# Generated by pormake.
# Topology fnd, (5)-cn, num edge types: 1
# Building blocks:
#     Node 0, Type 0, BuildingBlock: BEQFEK_clean_sbu_0, # of connection points: 5
#     Node 1, Type 0, BuildingBlock: BEQFEK_clean_sbu_0, # of connection points: 5
#     Node 2, Type 0, BuildingBlock: BEQFEK_clean_sbu_0, # of connection points: 5
#     Node 3, Type 0, BuildingBlock: BEQFEK_clean_sbu_0, # of connection points: 5
#     Node 4, Type 0, BuildingBlock: BEQFEK_clean_sbu_0, # of connection points: 5
#     Node 5, Type 0, BuildingBlock: BEQFEK_clean_sbu_0, # of connection points: 5
#     Node 6, Type 0, BuildingBlock: BEQFEK_clean_sbu_0, # of connection points: 5
#     Node 7, Type 0, BuildingBlock: BEQFEK_clean_sbu_0, # of connection points: 5
#     Node 8, Type 0, BuildingBlock: BEQFEK_clean_sbu_0, # of connection points: 5
#     Node 9, Type 0, BuildingBlock: BEQFEK_clean_sbu_0, # of connection points: 5
#     Node 10, Type 0, BuildingBlock: BEQFEK_clean_sbu_0, # of connection points: 5
#     Node 11, Type 0, BuildingBlock: BEQFEK_clean_sbu_0, # of connection points: 5
#     Node 12, Type 0, BuildingBlock: BEQFEK_clean_sbu_0, # of connection points: 5
#     Node 13, Type 0, BuildingBlock: BEQFEK_clean_sbu_0, # of connection points: 5
#     Node 14, Type 0, BuildingBlock: BEQFEK_clean_sbu_0, # of connection points: 5
#     Node 15, Type 0, BuildingBlock: BEQFEK_clean_sbu_0, # of connection points: 5
#     Node 16, Type 0, BuildingBlock: BEQFEK_clean_sbu_0, # of connection points: 5
#     Node 17, Type 0, BuildingBlock: BEQFEK_clean_sbu_0, # of connection points: 5
#     Edge 18, Type (0, 0), BuildingBlock: MIFKUJ_clean_linker_0, # of connection points: 2
#     Edge 19, Type (0, 0), BuildingBlock: MIFKUJ_clean_linker_0, # of connection points: 2
#     Edge 20, Type (0, 0), BuildingBlock: MIFKUJ_clean_linker_0, # of connection points: 2
#     Edge 21, Type (0, 0), BuildingBlock: MIFKUJ_clean_linker_0, # of connection points: 2
#     Edge 22, Type (0, 0), BuildingBlock: MIFKUJ_clean_linker_0, # of connection points: 2
#     Edge 23, Type (0, 0), BuildingBlock: MIFKUJ_clean_linker_0, # of connection points: 2
#     Edge 24, Type (0, 0), BuildingBlock: MIFKUJ_clean_linker_0, # of connection points: 2
#     Edge 25, Type (0, 0), BuildingBlock: MIFKUJ_clean_linker_0, # of connection points: 2
#     Edge 26, Type (0, 0), BuildingBlock: MIFKUJ_clean_linker_0, # of connection points: 2
#     Edge 27, Type (0, 0), BuildingBlock: MIFKUJ_clean_linker_0, # of connection points: 2
#     Edge 28, Type (0, 0), BuildingBlock: MIFKUJ_clean_linker_0, # of connection points: 2
#     Edge 29, Type (0, 0), BuildingBlock: MIFKUJ_clean_linker_0, # of connection points: 2
#     Edge 30, Type (0, 0), BuildingBlock: MIFKUJ_clean_linker_0, # of connection points: 2
#     Edge 31, Type (0, 0), BuildingBlock: MIFKUJ_clean_linker_0, # of connection points: 2
#     Edge 32, Type (0, 0), BuildingBlock: MIFKUJ_clean_linker_0, # of connection points: 2
#     Edge 33, Type (0, 0), BuildingBlock: MIFKUJ_clean_linker_0, # of connection points: 2
#     Edge 34, Type (0, 0), BuildingBlock: MIFKUJ_clean_linker_0, # of connection points: 2
#     Edge 35, Type (0, 0), BuildingBlock: MIFKUJ_clean_linker_0, # of connection points: 2
#     Edge 36, Type (0, 0), BuildingBlock: MIFKUJ_clean_linker_0, # of connection points: 2
#     Edge 37, Type (0, 0), BuildingBlock: MIFKUJ_clean_linker_0, # of connection points: 2
#     Edge 38, Type (0, 0), BuildingBlock: MIFKUJ_clean_linker_0, # of connection points: 2
#     Edge 39, Type (0, 0), BuildingBlock: MIFKUJ_clean_linker_0, # of connection points: 2
#     Edge 40, Type (0, 0), BuildingBlock: MIFKUJ_clean_linker_0, # of connection points: 2
#     Edge 41, Type (0, 0), BuildingBlock: MIFKUJ_clean_linker_0, # of connection points: 2
#     Edge 42, Type (0, 0), BuildingBlock: MIFKUJ_clean_linker_0, # of connection points: 2
#     Edge 43, Type (0, 0), BuildingBlock: MIFKUJ_clean_linker_0, # of connection points: 2
#     Edge 44, Type (0, 0), BuildingBlock: MIFKUJ_clean_linker_0, # of connection points: 2
#     Edge 45, Type (0, 0), BuildingBlock: MIFKUJ_clean_linker_0, # of connection points: 2
#     Edge 46, Type (0, 0), BuildingBlock: MIFKUJ_clean_linker_0, # of connection points: 2
#     Edge 47, Type (0, 0), BuildingBlock: MIFKUJ_clean_linker_0, # of connection points: 2
#     Edge 48, Type (0, 0), BuildingBlock: MIFKUJ_clean_linker_0, # of connection points: 2
#     Edge 49, Type (0, 0), BuildingBlock: MIFKUJ_clean_linker_0, # of connection points: 2
#     Edge 50, Type (0, 0), BuildingBlock: MIFKUJ_clean_linker_0, # of connection points: 2
#     Edge 51, Type (0, 0), BuildingBlock: MIFKUJ_clean_linker_0, # of connection points: 2
#     Edge 52, Type (0, 0), BuildingBlock: MIFKUJ_clean_linker_0, # of connection points: 2
#     Edge 53, Type (0, 0), BuildingBlock: MIFKUJ_clean_linker_0, # of connection points: 2
#     Edge 54, Type (0, 0), BuildingBlock: MIFKUJ_clean_linker_0, # of connection points: 2
#     Edge 55, Type (0, 0), BuildingBlock: MIFKUJ_clean_linker_0, # of connection points: 2
#     Edge 56, Type (0, 0), BuildingBlock: MIFKUJ_clean_linker_0, # of connection points: 2
#     Edge 57, Type (0, 0), BuildingBlock: MIFKUJ_clean_linker_0, # of connection points: 2
#     Edge 58, Type (0, 0), BuildingBlock: MIFKUJ_clean_linker_0, # of connection points: 2
#     Edge 59, Type (0, 0), BuildingBlock: MIFKUJ_clean_linker_0, # of connection points: 2
#     Edge 60, Type (0, 0), BuildingBlock: MIFKUJ_clean_linker_0, # of connection points: 2
#     Edge 61, Type (0, 0), BuildingBlock: MIFKUJ_clean_linker_0, # of connection points: 2
#     Edge 62, Type (0, 0), BuildingBlock: MIFKUJ_clean_linker_0, # of connection points: 2
# Relax obj value: 0.148
# Max RMSD: 0.197
# Mean RMSD: 0.197
data_MOF--net-fnd--node1-BEQFEK_clean_sbu_0--edge1-MIFKUJ_clean_linker_0
_symmetry_space_group_name_H-M    P1
_symmetry_Int_Tables_number       1
_symmetry_cell_setting            triclinic
loop_
_symmetry_equiv_pos_as_xyz
'x, y, z'
_cell_length_a     103.21988
_cell_length_b     103.19482
_cell_length_c     23.628497
_cell_angle_alpha  89.981014
_cell_angle_beta   89.999603
_cell_angle_gamma 120.00283
loop_
_atom_site_label
_atom_site_type_symbol
_atom_site_fract_x
_atom_site_fract_y
_atom_site_fract_z
_atom_type_partial_charge
Co0 Co 0.10907 0.21847 0.51079 0.0
Co1 Co 0.10572 0.2112 0.38098 0.0
C2 C 0.12149 0.20053 0.45519 0.0
O3 O 0.11893 0.20654 0.49756 0.0
O4 O 0.11714 0.20144 0.40562 0.0
C5 C 0.1256 0.22947 0.61422 0.0
O6 O 0.13682 0.23052 0.58438 0.0
C7 C 0.11098 0.20974 0.25734 0.0
C8 C 0.09193 0.21145 0.22337 0.0
C9 C 0.10442 0.21068 0.20717 0.0
N10 N 0.10284 0.21028 0.30095 0.0
N11 N 0.0914 0.2111 0.28014 0.0
C12 C 0.12445 0.20799 0.26396 0.0
H13 H 0.12322 0.20111 0.3017 0.0
H14 H 0.13452 0.21916 0.26997 0.0
H15 H 0.12608 0.20264 0.226 0.0
C16 C 0.12218 0.2494 0.46651 0.0
N17 N 0.11609 0.23454 0.45928 0.0
N18 N 0.11542 0.23156 0.40488 0.0
C19 C 0.12148 0.24451 0.37572 0.0
C20 C 0.12582 0.25626 0.41369 0.0
C21 C 0.12353 0.25666 0.5227 0.0
H22 H 0.11396 0.24916 0.55017 0.0
H23 H 0.13399 0.25865 0.54361 0.0
H24 H 0.12383 0.2675 0.51792 0.0
O25 O 0.08735 0.20561 0.5038 0.0
O26 O 0.08508 0.20008 0.41242 0.0
H27 H 0.11338 0.2423 0.29094 0.0
H28 H 0.13252 0.25715 0.30006 0.0
C29 C 0.12407 0.24564 0.31313 0.0
H30 H 0.12814 0.238 0.30022 0.0
H31 H 0.0834 0.2118 0.30488 0.0
O32 O 0.1131 0.22525 0.59013 0.0
C33 C 0.0793 0.19888 0.46109 0.0
Co34 Co 0.77837 0.89186 0.49999 0.0
Co35 Co 0.78616 0.8931 0.3705 0.0
C36 C 0.79788 0.92083 0.43655 0.0
O37 O 0.79126 0.91316 0.48021 0.0
O38 O 0.79718 0.91471 0.38905 0.0
C39 C 0.77256 0.90256 0.60365 0.0
O40 O 0.77694 0.91489 0.5744 0.0
C41 C 0.78706 0.89827 0.24701 0.0
C42 C 0.78691 0.87808 0.215 0.0
C43 C 0.78662 0.89075 0.19747 0.0
N44 N 0.78737 0.89023 0.29134 0.0
N45 N 0.78752 0.87832 0.27181 0.0
C46 C 0.78568 0.91197 0.25292 0.0
H47 H 0.78178 0.91262 0.29602 0.0
H48 H 0.77778 0.91195 0.22103 0.0
H49 H 0.79681 0.92203 0.24602 0.0
C50 C 0.74762 0.87479 0.45578 0.0
N51 N 0.76251 0.88279 0.44822 0.0
N52 N 0.7656 0.88369 0.3938 0.0
C53 C 0.75263 0.87648 0.3648 0.0
C54 C 0.7408 0.87052 0.40311 0.0
C55 C 0.74028 0.87051 0.51268 0.0
H56 H 0.7472 0.86809 0.54199 0.0
H57 H 0.73945 0.88004 0.53024 0.0
H58 H 0.72892 0.86055 0.51005 0.0
O59 O 0.78982 0.88132 0.49857 0.0
O60 O 0.79627 0.88332 0.40789 0.0
H61 H 0.7561 0.86902 0.2847 0.0
H62 H 0.73997 0.87156 0.28644 0.0
C63 C 0.75159 0.87601 0.30156 0.0
H64 H 0.75838 0.88747 0.28467 0.0
H65 H 0.78754 0.87009 0.29739 0.0
O66 O 0.77155 0.8911 0.57925 0.0
C67 C 0.79657 0.87904 0.45815 0.0
Co68 Co 0.10308 0.88613 0.49477 0.0
Co69 Co 0.10295 0.8926 0.36538 0.0
C70 C 0.07453 0.87463 0.42852 0.0
O71 O 0.08179 0.87603 0.4738 0.0
O72 O 0.08118 0.88065 0.3823 0.0
C73 C 0.09416 0.86978 0.5995 0.0
O74 O 0.08209 0.86046 0.57128 0.0
C75 C 0.09839 0.88723 0.243 0.0
C76 C 0.11693 0.90842 0.20915 0.0
C77 C 0.10525 0.89457 0.19313 0.0
N78 N 0.10589 0.89628 0.28648 0.0
N79 N 0.11687 0.90896 0.26598 0.0
C80 C 0.08444 0.87237 0.24987 0.0
H81 H 0.07601 0.87395 0.27316 0.0
H82 H 0.08687 0.86488 0.27588 0.0
H83 H 0.0796 0.86702 0.20865 0.0
C84 C 0.12078 0.87269 0.45427 0.0
N85 N 0.11336 0.88013 0.44522 0.0
N86 N 0.11317 0.88258 0.39061 0.0
C87 C 0.12055 0.87677 0.36314 0.0
C88 C 0.1255 0.87027 0.40252 0.0
C89 C 0.12241 0.86722 0.51099 0.0
H90 H 0.11115 0.85924 0.52785 0.0
H91 H 0.12915 0.86158 0.50867 0.0
H92 H 0.12776 0.8768 0.54075 0.0
O93 O 0.11166 0.90805 0.49279 0.0
O94 O 0.11159 0.91252 0.40108 0.0
H95 H 0.12756 0.88935 0.28601 0.0
H96 H 0.13136 0.87412 0.28893 0.0
C97 C 0.12321 0.8777 0.30059 0.0
H98 H 0.11251 0.87038 0.27856 0.0
H99 H 0.12447 0.91789 0.29088 0.0
O100 O 0.10463 0.881 0.57416 0.0
C101 C 0.11442 0.9171 0.45196 0.0
Co102 Co 0.21535 0.10561 0.49419 0.0
Co103 Co 0.20845 0.10202 0.62413 0.0
C104 C 0.19738 0.11772 0.55142 0.0
O105 O 0.20317 0.11511 0.50849 0.0
O106 O 0.19862 0.11351 0.60085 0.0
C107 C 0.22539 0.12218 0.39084 0.0
O108 O 0.22617 0.1332 0.42133 0.0
C109 C 0.2065 0.10676 0.74755 0.0
C110 C 0.2095 0.08846 0.78151 0.0
C111 C 0.20775 0.10039 0.79768 0.0
N112 N 0.20779 0.09907 0.70397 0.0
N113 N 0.20941 0.08808 0.72471 0.0
C114 C 0.2036 0.1195 0.74084 0.0
H115 H 0.19593 0.11734 0.70478 0.0
H116 H 0.21429 0.1299 0.73176 0.0
H117 H 0.19851 0.12113 0.77962 0.0
C118 C 0.24653 0.12031 0.53699 0.0
N119 N 0.23161 0.11308 0.54488 0.0
N120 N 0.22873 0.11194 0.59949 0.0
C121 C 0.24176 0.11862 0.62814 0.0
C122 C 0.25346 0.12406 0.58952 0.0
C123 C 0.2539 0.1232 0.48027 0.0
H124 H 0.24737 0.1135 0.45198 0.0
H125 H 0.2542 0.13316 0.46108 0.0
H126 H 0.26552 0.12531 0.48387 0.0
O127 O 0.2028 0.0838 0.50116 0.0
O128 O 0.19728 0.08147 0.59252 0.0
H129 H 0.23982 0.11011 0.71209 0.0
H130 H 0.25444 0.12936 0.70408 0.0
C131 C 0.24297 0.12088 0.69092 0.0
H132 H 0.23516 0.12466 0.70498 0.0
H133 H 0.21074 0.08046 0.69992 0.0
O134 O 0.2218 0.10979 0.41459 0.0
C135 C 0.1961 0.07571 0.54385 0.0
Co136 Co 0.88976 0.10755 0.49092 0.0
Co137 Co 0.89429 0.10526 0.62093 0.0
C138 C 0.8779 0.07798 0.55043 0.0
O139 O 0.87967 0.08597 0.50693 0.0
O140 O 0.88315 0.08383 0.5985 0.0
C141 C 0.87321 0.10091 0.38708 0.0
O142 O 0.86201 0.09086 0.41743 0.0
C143 C 0.88912 0.0986 0.74404 0.0
C144 C 0.9078 0.11949 0.77887 0.0
C145 C 0.89549 0.10601 0.79446 0.0
N146 N 0.89716 0.10751 0.70082 0.0
N147 N 0.90838 0.11988 0.72207 0.0
C148 C 0.87598 0.08318 0.73677 0.0
H149 H 0.87797 0.07745 0.70107 0.0
H150 H 0.8659 0.08399 0.72689 0.0
H151 H 0.87391 0.07637 0.77557 0.0
C152 C 0.87628 0.12521 0.53281 0.0
N153 N 0.88293 0.11699 0.54115 0.0
N154 N 0.8843 0.11557 0.59585 0.0
C155 C 0.87837 0.1227 0.62413 0.0
C156 C 0.8732 0.12915 0.58516 0.0
C157 C 0.87352 0.12965 0.47577 0.0
H158 H 0.88308 0.13233 0.44731 0.0
H159 H 0.86334 0.12012 0.45719 0.0
H160 H 0.87188 0.13947 0.4786 0.0
O161 O 0.9116 0.11639 0.49681 0.0
O162 O 0.91473 0.11482 0.58883 0.0
H163 H 0.88786 0.12999 0.7064 0.0
H164 H 0.86883 0.1262 0.70047 0.0
C165 C 0.87677 0.1225 0.68715 0.0
H166 H 0.87261 0.11101 0.70312 0.0
H167 H 0.9163 0.12874 0.69764 0.0
O168 O 0.88558 0.10962 0.41115 0.0
C169 C 0.92006 0.11859 0.53914 0.0
Co170 Co 0.89016 0.78325 0.495 0.0
Co171 Co 0.89234 0.79 0.62499 0.0
C172 C 0.91917 0.80442 0.55273 0.0
O173 O 0.91117 0.79821 0.50935 0.0
O174 O 0.91363 0.80184 0.6023 0.0
C175 C 0.89891 0.7749 0.39134 0.0
O176 O 0.90944 0.77472 0.42195 0.0
C177 C 0.89847 0.78884 0.74682 0.0
C178 C 0.88121 0.79282 0.7849 0.0
C179 C 0.89251 0.78982 0.79832 0.0
N180 N 0.89083 0.79094 0.70507 0.0
N181 N 0.88063 0.79343 0.72823 0.0
C182 C 0.91161 0.78667 0.73734 0.0
H183 H 0.92003 0.79222 0.7714 0.0
H184 H 0.9168 0.79119 0.69561 0.0
H185 H 0.9079 0.77458 0.73801 0.0
C186 C 0.87636 0.75209 0.53745 0.0
N187 N 0.8832 0.76698 0.54582 0.0
N188 N 0.88357 0.76971 0.60045 0.0
C189 C 0.87676 0.75657 0.6285 0.0
C190 C 0.87216 0.74502 0.58965 0.0
C191 C 0.87406 0.74493 0.48048 0.0
H192 H 0.88512 0.7485 0.46103 0.0
H193 H 0.86778 0.73254 0.48304 0.0
H194 H 0.86803 0.74882 0.45267 0.0
O195 O 0.87779 0.79276 0.50213 0.0
O196 O 0.88122 0.79936 0.59277 0.0
H197 H 0.86964 0.76304 0.70337 0.0
H198 H 0.86389 0.74348 0.70058 0.0
C199 C 0.87309 0.75491 0.69035 0.0
H200 H 0.88309 0.75703 0.71492 0.0
H201 H 0.87309 0.79532 0.70529 0.0
O202 O 0.88927 0.77737 0.41495 0.0
C203 C 0.87576 0.79919 0.5443 0.0
Co204 Co 0.77584 0.55202 0.83972 0.0
Co205 Co 0.77196 0.54494 0.70965 0.0
C206 C 0.78814 0.5343 0.78272 0.0
O207 O 0.7857 0.54022 0.82562 0.0
O208 O 0.78361 0.53526 0.73354 0.0
C209 C 0.79237 0.56254 0.94315 0.0
O210 O 0.80339 0.56309 0.9134 0.0
C211 C 0.77744 0.54395 0.58614 0.0
C212 C 0.75802 0.54495 0.55198 0.0
C213 C 0.77082 0.54475 0.5359 0.0
N214 N 0.76905 0.54405 0.62965 0.0
N215 N 0.75738 0.54443 0.60874 0.0
C216 C 0.79121 0.54273 0.59296 0.0
H217 H 0.79015 0.53587 0.63054 0.0
H218 H 0.80103 0.55405 0.59931 0.0
H219 H 0.79312 0.53758 0.55501 0.0
C220 C 0.78941 0.58305 0.79629 0.0
N221 N 0.78279 0.56816 0.78852 0.0
N222 N 0.78151 0.56525 0.7339 0.0
C223 C 0.78741 0.57826 0.70515 0.0
C224 C 0.79253 0.58995 0.74371 0.0
C225 C 0.79213 0.59042 0.853 0.0
H226 H 0.78242 0.58376 0.88113 0.0
H227 H 0.80213 0.59085 0.87243 0.0
H228 H 0.79405 0.60197 0.84945 0.0
O229 O 0.75408 0.53893 0.83331 0.0
O230 O 0.75146 0.53373 0.74157 0.0
H231 H 0.77781 0.57521 0.62264 0.0
H232 H 0.79641 0.59124 0.62817 0.0
C233 C 0.789 0.57953 0.64211 0.0
H234 H 0.79381 0.57269 0.62695 0.0
H235 H 0.74915 0.54474 0.6334 0.0
O236 O 0.77998 0.55876 0.91905 0.0
C237 C 0.74588 0.53232 0.79074 0.0
Co238 Co 0.44616 0.22494 0.8409 0.0
Co239 Co 0.45296 0.22547 0.71154 0.0
C240 C 0.46783 0.25317 0.77893 0.0
O241 O 0.46133 0.24565 0.82299 0.0
O242 O 0.46534 0.24707 0.73031 0.0
C243 C 0.44157 0.23652 0.94461 0.0
O244 O 0.44741 0.2492 0.91656 0.0
C245 C 0.45261 0.23036 0.58896 0.0
C246 C 0.4535 0.21081 0.5555 0.0
C247 C 0.4522 0.22301 0.53918 0.0
N248 N 0.45389 0.22269 0.63253 0.0
N249 N 0.45465 0.21117 0.61217 0.0
C250 C 0.4504 0.24354 0.59587 0.0
H251 H 0.4465 0.24385 0.63937 0.0
H252 H 0.44223 0.24314 0.56439 0.0
H253 H 0.46124 0.25395 0.5888 0.0
C254 C 0.41523 0.21167 0.7977 0.0
N255 N 0.43005 0.21777 0.78948 0.0
N256 N 0.43275 0.21769 0.73505 0.0
C257 C 0.41962 0.21132 0.70691 0.0
C258 C 0.40814 0.20743 0.74561 0.0
C259 C 0.40818 0.21024 0.8544 0.0
H260 H 0.4137 0.22129 0.8757 0.0
H261 H 0.39603 0.20615 0.85093 0.0
H262 H 0.40999 0.20242 0.88104 0.0
O263 O 0.45562 0.21244 0.8388 0.0
O264 O 0.46153 0.21413 0.74783 0.0
H265 H 0.42515 0.20304 0.63295 0.0
H266 H 0.4062 0.19936 0.63396 0.0
C267 C 0.41791 0.20768 0.64505 0.0
H268 H 0.42132 0.21803 0.6204 0.0
H269 H 0.45542 0.20324 0.63713 0.0
O270 O 0.43951 0.22472 0.91959 0.0
C271 C 0.46163 0.20946 0.79758 0.0
Co272 Co 0.77332 0.22079 0.84446 0.0
Co273 Co 0.77255 0.22846 0.71638 0.0
C274 C 0.74443 0.20923 0.77932 0.0
O275 O 0.7519 0.21068 0.82412 0.0
O276 O 0.75089 0.21542 0.73297 0.0
C277 C 0.76457 0.20527 0.95121 0.0
O278 O 0.75138 0.19765 0.92722 0.0
C279 C 0.76935 0.22481 0.59255 0.0
C280 C 0.78711 0.24715 0.56435 0.0
C281 C 0.7766 0.23312 0.5447 0.0
N282 N 0.77549 0.23353 0.63825 0.0
N283 N 0.7859 0.24693 0.62101 0.0
C284 C 0.75792 0.20852 0.59564 0.0
H285 H 0.75779 0.20405 0.6385 0.0
H286 H 0.76024 0.20213 0.56338 0.0
H287 H 0.74671 0.20707 0.58702 0.0
C288 C 0.79137 0.20835 0.79809 0.0
N289 N 0.78372 0.21566 0.79184 0.0
N290 N 0.78369 0.21904 0.73811 0.0
C291 C 0.79162 0.21418 0.70856 0.0
C292 C 0.79657 0.20712 0.74543 0.0
C293 C 0.79261 0.20177 0.85287 0.0
H294 H 0.78132 0.19498 0.8717 0.0
H295 H 0.79773 0.19463 0.84719 0.0
H296 H 0.79947 0.21096 0.88287 0.0
O297 O 0.78162 0.24269 0.84637 0.0
O298 O 0.78004 0.24766 0.75626 0.0
H299 H 0.8045 0.2151 0.63485 0.0
H300 H 0.78504 0.20872 0.62215 0.0
C301 C 0.79501 0.21674 0.64663 0.0
H302 H 0.79792 0.22828 0.63518 0.0
H303 H 0.79261 0.25575 0.64812 0.0
O304 O 0.77551 0.21511 0.92261 0.0
C305 C 0.78335 0.2519 0.80732 0.0
Co306 Co 0.88301 0.44051 0.82962 0.0
Co307 Co 0.87586 0.43725 0.9596 0.0
C308 C 0.86514 0.45295 0.88485 0.0
O309 O 0.87088 0.4501 0.8424 0.0
O310 O 0.86632 0.44889 0.93464 0.0
C311 C 0.89313 0.45678 0.72554 0.0
O312 O 0.8932 0.46764 0.75483 0.0
C313 C 0.87648 0.44394 0.08265 0.0
C314 C 0.87336 0.42273 0.11803 0.0
C315 C 0.87589 0.43677 0.13339 0.0
N316 N 0.87467 0.43459 0.03971 0.0
N317 N 0.87264 0.4219 0.06136 0.0
C318 C 0.87812 0.45909 0.0748 0.0
H319 H 0.87302 0.45964 0.0343 0.0
H320 H 0.89015 0.46769 0.07363 0.0
H321 H 0.87277 0.46171 0.11032 0.0
C322 C 0.91405 0.45496 0.87302 0.0
N323 N 0.89914 0.44802 0.88091 0.0
N324 N 0.89622 0.44658 0.93556 0.0
C325 C 0.90925 0.4525 0.96419 0.0
C326 C 0.92092 0.45811 0.92557 0.0
C327 C 0.92144 0.45908 0.81622 0.0
H328 H 0.91655 0.44906 0.78854 0.0
H329 H 0.91923 0.46752 0.79642 0.0
H330 H 0.93371 0.46382 0.8192 0.0
O331 O 0.87049 0.41864 0.83775 0.0
O332 O 0.86447 0.41672 0.92865 0.0
H333 H 0.90276 0.44061 0.04287 0.0
H334 H 0.92206 0.45511 0.04043 0.0
C335 C 0.91056 0.45203 0.02718 0.0
H336 H 0.90758 0.45993 0.04683 0.0
H337 H 0.87113 0.41278 0.03729 0.0
O338 O 0.88977 0.44453 0.75009 0.0
C339 C 0.86352 0.41077 0.8806 0.0
Co340 Co 0.55658 0.44108 0.81811 0.0
Co341 Co 0.56068 0.4382 0.94811 0.0
C342 C 0.54416 0.4112 0.87641 0.0
O343 O 0.5465 0.41942 0.83311 0.0
O344 O 0.54893 0.41685 0.92519 0.0
C345 C 0.5401 0.43545 0.71402 0.0
O346 O 0.52872 0.42525 0.74322 0.0
C347 C 0.55522 0.4323 0.0719 0.0
C348 C 0.57521 0.45237 0.10497 0.0
C349 C 0.56211 0.43977 0.12172 0.0
N350 N 0.56375 0.4404 0.02796 0.0
N351 N 0.57576 0.45224 0.04823 0.0
C352 C 0.54105 0.4176 0.06591 0.0
H353 H 0.54163 0.41152 0.0283 0.0
H354 H 0.53151 0.41958 0.06013 0.0
H355 H 0.539 0.41056 0.10409 0.0
C356 C 0.5435 0.45903 0.86067 0.0
N357 N 0.54986 0.45054 0.86882 0.0
N358 N 0.5513 0.44913 0.92349 0.0
C359 C 0.54578 0.45663 0.95192 0.0
C360 C 0.54071 0.46318 0.91307 0.0
C361 C 0.54078 0.46358 0.80377 0.0
H362 H 0.55042 0.46642 0.77552 0.0
H363 H 0.53068 0.45405 0.78476 0.0
H364 H 0.53903 0.47333 0.80688 0.0
O365 O 0.57837 0.44978 0.82424 0.0
O366 O 0.58109 0.44713 0.91577 0.0
H367 H 0.55594 0.46334 0.03349 0.0
H368 H 0.5377 0.46168 0.02899 0.0
C369 C 0.54459 0.45679 0.01502 0.0
H370 H 0.53937 0.4452 0.03122 0.0
H371 H 0.58416 0.46048 0.02312 0.0
O372 O 0.55252 0.44362 0.73867 0.0
C373 C 0.58662 0.4513 0.86654 0.0
Co374 Co 0.55626 0.11505 0.81848 0.0
Co375 Co 0.55985 0.12156 0.94861 0.0
C376 C 0.58637 0.13375 0.87402 0.0
O377 O 0.57788 0.12792 0.8314 0.0
O378 O 0.58111 0.13207 0.92399 0.0
C379 C 0.56198 0.10436 0.71466 0.0
O380 O 0.57183 0.10276 0.74453 0.0
C381 C 0.56637 0.12219 0.07213 0.0
C382 C 0.54606 0.12143 0.10633 0.0
C383 C 0.55901 0.12153 0.12229 0.0
N384 N 0.55791 0.12217 0.02864 0.0
N385 N 0.5459 0.12188 0.0496 0.0
C386 C 0.58131 0.12328 0.06557 0.0
H387 H 0.58843 0.12866 0.10321 0.0
H388 H 0.58704 0.12978 0.02718 0.0
H389 H 0.57977 0.1119 0.0609 0.0
C390 C 0.5401 0.08371 0.86031 0.0
N391 N 0.54803 0.09861 0.8687 0.0
N392 N 0.54978 0.10133 0.92343 0.0
C393 C 0.54312 0.08822 0.9516 0.0
C394 C 0.53673 0.07665 0.91257 0.0
C395 C 0.5352 0.07646 0.80351 0.0
H396 H 0.5321 0.08321 0.77609 0.0
H397 H 0.54461 0.07592 0.78326 0.0
H398 H 0.52553 0.06493 0.80722 0.0
O399 O 0.54624 0.12683 0.82719 0.0
O400 O 0.54948 0.13196 0.91886 0.0
H401 H 0.5366 0.09096 0.03463 0.0
H402 H 0.53944 0.07511 0.02803 0.0
C403 C 0.54354 0.08681 0.01453 0.0
H404 H 0.55519 0.09374 0.02946 0.0
H405 H 0.5374 0.12166 0.02499 0.0
O406 O 0.55388 0.10877 0.73883 0.0
C407 C 0.54455 0.13304 0.8708 0.0
Co408 Co 0.44313 0.88515 0.17562 0.0
Co409 Co 0.43649 0.87723 0.04629 0.0
C410 C 0.44997 0.86332 0.11656 0.0
O411 O 0.44899 0.87009 0.15986 0.0
O412 O 0.44601 0.86527 0.06769 0.0
C413 C 0.45943 0.89085 0.27958 0.0
O414 O 0.46694 0.88586 0.25092 0.0
C415 C 0.44221 0.87739 0.92374 0.0
C416 C 0.42129 0.87497 0.88845 0.0
C417 C 0.43519 0.87713 0.87312 0.0
N418 N 0.43292 0.87567 0.96666 0.0
N419 N 0.42034 0.87397 0.94519 0.0
C420 C 0.45793 0.88063 0.93202 0.0
H421 H 0.45834 0.87021 0.92494 0.0
H422 H 0.46173 0.88454 0.97588 0.0
H423 H 0.46556 0.88918 0.90125 0.0
C424 C 0.46046 0.91571 0.12872 0.0
N425 N 0.45178 0.90082 0.12222 0.0
N426 N 0.44874 0.89768 0.0681 0.0
C427 C 0.45525 0.9106 0.03854 0.0
C428 C 0.463 0.92238 0.07585 0.0
C429 C 0.46632 0.92322 0.18453 0.0
H430 H 0.45683 0.92177 0.21116 0.0
H431 H 0.47181 0.91778 0.20673 0.0
H432 H 0.47449 0.93532 0.17954 0.0
O433 O 0.4212 0.8755 0.17281 0.0
O434 O 0.41654 0.86869 0.08267 0.0
H435 H 0.44115 0.90404 0.96507 0.0
H436 H 0.4556 0.92338 0.96522 0.0
C437 C 0.45293 0.91188 0.97667 0.0
H438 H 0.46032 0.90909 0.95194 0.0
H439 H 0.41134 0.8727 0.96933 0.0
O440 O 0.44925 0.89223 0.25468 0.0
C441 C 0.41203 0.86908 0.13246 0.0
Co442 Co 0.11423 0.55918 0.17262 0.0
Co443 Co 0.11927 0.56066 0.04153 0.0
C444 C 0.13109 0.58841 0.10983 0.0
O445 O 0.12568 0.58066 0.15451 0.0
O446 O 0.12956 0.58225 0.06168 0.0
C447 C 0.10408 0.56556 0.2766 0.0
O448 O 0.10252 0.57537 0.24632 0.0
C449 C 0.11802 0.56549 0.91783 0.0
C450 C 0.11734 0.54506 0.88542 0.0
C451 C 0.11675 0.5576 0.86843 0.0
N452 N 0.11894 0.55769 0.96186 0.0
N453 N 0.1187 0.54562 0.94198 0.0
C454 C 0.11872 0.58027 0.92328 0.0
H455 H 0.12574 0.58657 0.95989 0.0
H456 H 0.10729 0.57841 0.93041 0.0
H457 H 0.12338 0.58706 0.88433 0.0
C458 C 0.08262 0.54076 0.13673 0.0
N459 N 0.09733 0.54931 0.12544 0.0
N460 N 0.09937 0.55021 0.07026 0.0
C461 C 0.08597 0.54229 0.04466 0.0
C462 C 0.07498 0.536 0.08592 0.0
C463 C 0.07616 0.5366 0.195 0.0
H464 H 0.08335 0.53397 0.22187 0.0
H465 H 0.07582 0.54625 0.21406 0.0
H466 H 0.06464 0.52683 0.19418 0.0
O467 O 0.12713 0.55024 0.16478 0.0
O468 O 0.13078 0.55163 0.07203 0.0
H469 H 0.08823 0.53448 0.96348 0.0
H470 H 0.07166 0.53609 0.97048 0.0
C471 C 0.08366 0.54125 0.9819 0.0
H472 H 0.0897 0.5526 0.96329 0.0
H473 H 0.11913 0.53754 0.96728 0.0
O474 O 0.1085 0.55741 0.25284 0.0
C475 C 0.13294 0.548 0.1211 0.0
Co476 Co 0.4397 0.55314 0.17138 0.0
Co477 Co 0.43848 0.56087 0.04356 0.0
C478 C 0.41067 0.54083 0.108 0.0
O479 O 0.41831 0.5423 0.15225 0.0
O480 O 0.41691 0.54732 0.06172 0.0
C481 C 0.4321 0.53716 0.27728 0.0
O482 O 0.41927 0.52827 0.25249 0.0
C483 C 0.435 0.55709 0.91952 0.0
C484 C 0.45148 0.57993 0.89111 0.0
C485 C 0.44161 0.56567 0.87143 0.0
N486 N 0.44088 0.5659 0.96522 0.0
N487 N 0.45053 0.57957 0.94784 0.0
C488 C 0.42439 0.5406 0.92282 0.0
H489 H 0.42464 0.53632 0.96569 0.0
H490 H 0.42723 0.53461 0.89051 0.0
H491 H 0.41287 0.53835 0.91444 0.0
C492 C 0.45885 0.54213 0.12378 0.0
N493 N 0.45056 0.54879 0.11801 0.0
N494 N 0.45028 0.55212 0.06437 0.0
C495 C 0.45868 0.5479 0.03443 0.0
C496 C 0.46424 0.54133 0.07095 0.0
C497 C 0.46052 0.53571 0.17826 0.0
H498 H 0.46703 0.54495 0.20851 0.0
H499 H 0.44931 0.52842 0.19702 0.0
H500 H 0.4662 0.52909 0.1722 0.0
O501 O 0.44678 0.57478 0.1738 0.0
O502 O 0.44575 0.58003 0.08353 0.0
H503 H 0.46411 0.56194 0.96112 0.0
H504 H 0.47182 0.54969 0.96044 0.0
C505 C 0.46192 0.55062 0.97247 0.0
H506 H 0.45215 0.54221 0.94813 0.0
H507 H 0.4569 0.58854 0.97484 0.0
O508 O 0.44245 0.54783 0.24927 0.0
C509 C 0.44856 0.58406 0.135 0.0
Co510 Co 0.54601 0.77089 0.1678 0.0
Co511 Co 0.53991 0.7691 0.29828 0.0
C512 C 0.52869 0.78411 0.22389 0.0
O513 O 0.53425 0.78092 0.18167 0.0
O514 O 0.53003 0.78041 0.27408 0.0
C515 C 0.55658 0.78734 0.06487 0.0
O516 O 0.55771 0.79843 0.09586 0.0
C517 C 0.53921 0.77451 0.4224 0.0
C518 C 0.54221 0.75607 0.45477 0.0
C519 C 0.5409 0.76818 0.47198 0.0
N520 N 0.53984 0.76659 0.37821 0.0
N521 N 0.54146 0.75552 0.39808 0.0
C522 C 0.53667 0.78751 0.41686 0.0
H523 H 0.52981 0.78618 0.37894 0.0
H524 H 0.54759 0.79795 0.41189 0.0
H525 H 0.53096 0.78854 0.45495 0.0
C526 C 0.57731 0.78448 0.20834 0.0
N527 N 0.56251 0.77837 0.21721 0.0
N528 N 0.55999 0.77845 0.27173 0.0
C529 C 0.57318 0.78505 0.29925 0.0
C530 C 0.58461 0.78893 0.26016 0.0
C531 C 0.58413 0.78527 0.15165 0.0
H532 H 0.57645 0.77545 0.12569 0.0
H533 H 0.58597 0.79554 0.12945 0.0
H534 H 0.59502 0.78564 0.1559 0.0
O535 O 0.53314 0.7492 0.17759 0.0
O536 O 0.52827 0.74831 0.26928 0.0
H537 H 0.57228 0.7786 0.38582 0.0
H538 H 0.58631 0.7978 0.37153 0.0
C539 C 0.57484 0.78874 0.36105 0.0
H540 H 0.56687 0.79246 0.37339 0.0
H541 H 0.54239 0.74775 0.37269 0.0
O542 O 0.55233 0.77471 0.0879 0.0
C543 C 0.52661 0.74182 0.22189 0.0
Co544 Co 0.22402 0.77471 0.16604 0.0
Co545 Co 0.22678 0.77144 0.29713 0.0
C546 C 0.21591 0.74527 0.22173 0.0
O547 O 0.21808 0.75368 0.17931 0.0
O548 O 0.21823 0.75035 0.27206 0.0
C549 C 0.20726 0.76553 0.06391 0.0
O550 O 0.19705 0.75522 0.09686 0.0
C551 C 0.22005 0.76387 0.4198 0.0
C552 C 0.239 0.78399 0.45778 0.0
C553 C 0.22634 0.77058 0.47143 0.0
N554 N 0.22857 0.77304 0.37787 0.0
N555 N 0.23988 0.785 0.40109 0.0
C556 C 0.20652 0.74883 0.41038 0.0
H557 H 0.20708 0.74423 0.36879 0.0
H558 H 0.19638 0.74996 0.4109 0.0
H559 H 0.20546 0.74093 0.44433 0.0
C560 C 0.20597 0.7879 0.20547 0.0
N561 N 0.21385 0.78096 0.21526 0.0
N562 N 0.21507 0.77976 0.27026 0.0
C563 C 0.208 0.78597 0.29721 0.0
C564 C 0.20203 0.79131 0.25705 0.0
C565 C 0.20339 0.79226 0.14797 0.0
H566 H 0.21375 0.79666 0.12234 0.0
H567 H 0.19449 0.78219 0.12635 0.0
H568 H 0.19988 0.80081 0.1505 0.0
O569 O 0.2457 0.78723 0.17673 0.0
O570 O 0.24761 0.7834 0.26809 0.0
H571 H 0.21845 0.79409 0.37761 0.0
H572 H 0.19977 0.79142 0.37288 0.0
C573 C 0.20707 0.78687 0.36017 0.0
H574 H 0.20249 0.77554 0.37854 0.0
H575 H 0.2482 0.79392 0.3781 0.0
O576 O 0.21942 0.77566 0.08559 0.0
C577 C 0.25358 0.78922 0.22072 0.0
Co578 Co 0.22233 0.44769 0.14362 0.0
Co579 Co 0.22567 0.45558 0.27282 0.0
C580 C 0.25238 0.46644 0.20178 0.0
O581 O 0.24389 0.46048 0.15923 0.0
O582 O 0.24707 0.46519 0.25145 0.0
C583 C 0.23111 0.43949 0.04105 0.0
O584 O 0.24314 0.44253 0.07015 0.0
C585 C 0.23081 0.45663 0.39701 0.0
C586 C 0.21105 0.45766 0.42684 0.0
C587 C 0.22323 0.45667 0.44575 0.0
N588 N 0.2232 0.45728 0.35183 0.0
N589 N 0.21158 0.45816 0.37011 0.0
C590 C 0.24419 0.45465 0.39272 0.0
H591 H 0.24517 0.45105 0.34946 0.0
H592 H 0.24343 0.44629 0.4241 0.0
H593 H 0.25443 0.46549 0.40176 0.0
C594 C 0.20468 0.41698 0.18956 0.0
N595 N 0.21329 0.43188 0.19625 0.0
N596 N 0.21505 0.43508 0.2506 0.0
C597 C 0.20778 0.42225 0.28034 0.0
C598 C 0.20085 0.41035 0.2427 0.0
C599 C 0.19958 0.40947 0.13327 0.0
H600 H 0.19693 0.4164 0.10491 0.0
H601 H 0.20878 0.40842 0.11363 0.0
H602 H 0.18957 0.39818 0.13747 0.0
O603 O 0.21283 0.46006 0.14651 0.0
O604 O 0.21648 0.4665 0.23706 0.0
H605 H 0.20191 0.42625 0.36274 0.0
H606 H 0.20377 0.40975 0.35876 0.0
C607 C 0.20831 0.42137 0.34348 0.0
H608 H 0.22005 0.42791 0.35768 0.0
H609 H 0.20368 0.45855 0.34371 0.0
O610 O 0.22052 0.4403 0.06518 0.0
C611 C 0.2117 0.46722 0.18818 0.0
H612 H 0.18687 0.12932 0.63209 0.0
H613 H 0.17386 0.14335 0.61635 0.0
H614 H 0.17612 0.1384 0.43587 0.0
H615 H 0.18938 0.12473 0.45104 0.0
H616 H 0.18359 0.1661 0.46021 0.0
H617 H 0.14345 0.11739 0.51127 0.0
H618 H 0.13011 0.09488 0.571 0.0
H619 H 0.12867 0.12167 0.7072 0.0
H620 H 0.14218 0.14437 0.64851 0.0
H621 H 0.13019 0.18692 0.3761 0.0
H622 H 0.14309 0.17281 0.39319 0.0
H623 H 0.1437 0.18108 0.57237 0.0
H624 H 0.1308 0.19509 0.55598 0.0
H625 H 0.13473 0.15183 0.54936 0.0
H626 H 0.17482 0.20055 0.49637 0.0
H627 H 0.18781 0.22278 0.43507 0.0
H628 H 0.18887 0.19545 0.30022 0.0
H629 H 0.17569 0.17301 0.3605 0.0
C630 C 0.18455 0.13117 0.58909 0.0
C631 C 0.18916 0.12589 0.54287 0.0
C632 C 0.17707 0.13915 0.58016 0.0
C633 C 0.1739 0.1418 0.52492 0.0
C634 C 0.17847 0.13651 0.47883 0.0
C635 C 0.18603 0.12866 0.48766 0.0
C636 C 0.16604 0.15029 0.51477 0.0
C637 C 0.17281 0.16286 0.47914 0.0
C638 C 0.15212 0.14624 0.54036 0.0
C639 C 0.14396 0.1326 0.57569 0.0
C640 C 0.14039 0.11849 0.55411 0.0
C641 C 0.13278 0.1057 0.58775 0.0
C642 C 0.12858 0.10685 0.64291 0.0
C643 C 0.13195 0.12079 0.66449 0.0
C644 C 0.13957 0.13363 0.63105 0.0
C645 C 0.13309 0.18576 0.41911 0.0
C646 C 0.12948 0.19216 0.46462 0.0
C647 C 0.14049 0.17773 0.42878 0.0
C648 C 0.1444 0.176 0.48402 0.0
C649 C 0.14075 0.18229 0.52946 0.0
C650 C 0.13342 0.19034 0.51989 0.0
C651 C 0.15227 0.16756 0.4947 0.0
C652 C 0.1455 0.15504 0.53045 0.0
C653 C 0.16615 0.17159 0.46898 0.0
C654 C 0.17413 0.18508 0.43276 0.0
C655 C 0.17771 0.19926 0.45349 0.0
C656 C 0.18513 0.21191 0.41896 0.0
C657 C 0.18913 0.21052 0.36373 0.0
C658 C 0.18575 0.1965 0.34298 0.0
C659 C 0.17832 0.18382 0.37732 0.0
H660 H 0.19487 0.22032 0.33706 0.0
H661 H 0.12269 0.09693 0.66888 0.0
H662 H 0.88136 0.05738 0.61161 0.0
H663 H 0.86966 0.03047 0.59258 0.0
H664 H 0.84405 0.03483 0.45701 0.0
H665 H 0.85622 0.06167 0.47392 0.0
H666 H 0.84326 0.0077 0.59487 0.0
H667 H 0.83873 0.01237 0.35022 0.0
H668 H 0.85266 0.03029 0.27381 0.0
H669 H 0.89287 0.04877 0.3729 0.0
H670 H 0.87925 0.03084 0.44958 0.0
H671 H 0.78968 0.93832 0.49293 0.0
H672 H 0.80481 0.96509 0.51157 0.0
H673 H 0.84121 0.96669 0.41562 0.0
H674 H 0.8256 0.93994 0.39393 0.0
H675 H 0.84087 0.99063 0.39677 0.0
H676 H 0.83991 0.96548 0.56596 0.0
H677 H 0.82838 0.94717 0.64338 0.0
H678 H 0.80466 0.96919 0.69883 0.0
H679 H 0.81589 0.98752 0.62124 0.0
C680 C 0.87319 0.05253 0.57793 0.0
C681 C 0.86983 0.0616 0.54369 0.0
C682 C 0.86652 0.03718 0.56707 0.0
C683 C 0.85627 0.03069 0.52236 0.0
C684 C 0.85231 0.03965 0.49043 0.0
C685 C 0.85919 0.05498 0.50038 0.0
C686 C 0.84971 0.01459 0.50847 0.0
C687 C 0.84281 0.00396 0.55164 0.0
C688 C 0.84956 0.00969 0.45232 0.0
C689 C 0.85792 0.02031 0.40582 0.0
C690 C 0.85057 0.02019 0.35556 0.0
C691 C 0.8584 0.03037 0.31224 0.0
C692 C 0.87363 0.04069 0.31856 0.0
C693 C 0.88107 0.0408 0.36813 0.0
C694 C 0.87329 0.03064 0.41155 0.0
C695 C 0.80087 0.94445 0.4754 0.0
C696 C 0.80658 0.93715 0.44246 0.0
C697 C 0.80955 0.9597 0.48646 0.0
C698 C 0.82434 0.96782 0.46666 0.0
C699 C 0.82988 0.96063 0.4318 0.0
C700 C 0.82099 0.9454 0.41935 0.0
C701 C 0.83395 0.98375 0.48283 0.0
C702 C 0.84146 0.99435 0.44012 0.0
C703 C 0.83516 0.98859 0.53975 0.0
C704 C 0.82869 0.97784 0.58753 0.0
C705 C 0.8322 0.9664 0.59455 0.0
C706 C 0.82571 0.95601 0.63845 0.0
C707 C 0.81577 0.957 0.67594 0.0
C708 C 0.81236 0.96843 0.66975 0.0
C709 C 0.81881 0.97884 0.62587 0.0
H710 H 0.81073 0.94892 0.70981 0.0
H711 H 0.87967 0.04857 0.28501 0.0
H712 H 0.93232 0.8243 0.46772 0.0
H713 H 0.95897 0.83858 0.4453 0.0
H714 H 0.96881 0.82071 0.59395 0.0
H715 H 0.94212 0.80708 0.61838 0.0
H716 H 0.99048 0.84903 0.57466 0.0
H717 H 0.96501 0.80338 0.46045 0.0
H718 H 0.94372 0.7867 0.39926 0.0
H719 H 0.95611 0.82258 0.28074 0.0
H720 H 0.97762 0.83934 0.34067 0.0
H721 H 0.05726 0.85324 0.50468 0.0
H722 H 0.0304 0.8419 0.51882 0.0
H723 H 0.0275 0.8658 0.37403 0.0
H724 H 0.05458 0.87706 0.35872 0.0
H725 H 0.00245 0.8362 0.38635 0.0
H726 H 0.02974 0.88112 0.49686 0.0
H727 H 0.05051 0.89772 0.55997 0.0
H728 H 0.03409 0.86346 0.68745 0.0
H729 H 0.01327 0.84665 0.62498 0.0
C730 C 0.94023 0.82366 0.49612 0.0
C731 C 0.93526 0.81449 0.54431 0.0
C732 C 0.95541 0.83174 0.48316 0.0
C733 C 0.96579 0.8303 0.51693 0.0
C734 C 0.96095 0.82187 0.56707 0.0
C735 C 0.94574 0.81409 0.58096 0.0
C736 C 0.98144 0.83658 0.49758 0.0
C737 C 0.99308 0.84614 0.53371 0.0
C738 C 0.98484 0.83304 0.44364 0.0
C739 C 0.97291 0.82257 0.40486 0.0
C740 C 0.96329 0.80762 0.4209 0.0
C741 C 0.95119 0.79816 0.38649 0.0
C742 C 0.94859 0.80355 0.33603 0.0
C743 C 0.95821 0.81836 0.31954 0.0
C744 C 0.97042 0.82781 0.35347 0.0
C745 C 0.05091 0.85596 0.47533 0.0
C746 C 0.05805 0.86627 0.43127 0.0
C747 C 0.03556 0.84944 0.48339 0.0
C748 C 0.02707 0.85328 0.4482 0.0
C749 C 0.03393 0.86277 0.40176 0.0
C750 C 0.04936 0.86921 0.3932 0.0
C751 C 0.01144 0.84847 0.46384 0.0
C752 C -0.00018 0.83918 0.42707 0.0
C753 C 0.00804 0.85226 0.51722 0.0
C754 C 0.01999 0.86263 0.55624 0.0
C755 C 0.03055 0.87716 0.53844 0.0
C756 C 0.04233 0.8866 0.57406 0.0
C757 C 0.04363 0.88166 0.62767 0.0
C758 C 0.03306 0.86731 0.646 0.0
C759 C 0.02123 0.85783 0.61058 0.0
H760 H 0.05284 0.88896 0.65488 0.0
H761 H 0.93909 0.79627 0.30983 0.0
H762 H 0.82249 0.88365 0.41022 0.0
H763 H 0.83543 0.86963 0.42765 0.0
H764 H 0.80077 0.84116 0.54555 0.0
H765 H 0.78848 0.85592 0.53124 0.0
H766 H 0.8246 0.84527 0.58591 0.0
H767 H 0.8035 0.83063 0.40224 0.0
H768 H 0.79793 0.83391 0.3035 0.0
H769 H 0.84466 0.8552 0.2623 0.0
H770 H 0.85054 0.85224 0.36102 0.0
H771 H 0.85247 0.79145 0.47212 0.0
H772 H 0.83762 0.80374 0.46062 0.0
H773 H 0.86515 0.8368 0.58503 0.0
H774 H 0.87931 0.82391 0.59928 0.0
H775 H 0.84277 0.8283 0.4235 0.0
H776 H 0.84736 0.85149 0.65239 0.0
H777 H 0.84875 0.84412 0.75055 0.0
H778 H 0.82726 0.79797 0.70049 0.0
H779 H 0.82556 0.80504 0.60223 0.0
C780 C 0.81773 0.87444 0.44005 0.0
C781 C 0.80451 0.8708 0.46931 0.0
C782 C 0.82504 0.86635 0.44969 0.0
C783 C 0.81891 0.85407 0.48692 0.0
C784 C 0.80575 0.85056 0.51662 0.0
C785 C 0.79871 0.85897 0.50837 0.0
C786 C 0.8262 0.8449 0.495 0.0
C787 C 0.82851 0.84151 0.55034 0.0
C788 C 0.83095 0.83958 0.44869 0.0
C789 C 0.82747 0.84132 0.38916 0.0
C790 C 0.8126 0.83609 0.3722 0.0
C791 C 0.80939 0.83789 0.31623 0.0
C792 C 0.82094 0.84479 0.27669 0.0
C793 C 0.83573 0.84987 0.293 0.0
C794 C 0.839 0.84813 0.34894 0.0
C795 C 0.85524 0.80128 0.49725 0.0
C796 C 0.86694 0.8067 0.53684 0.0
C797 C 0.84679 0.80833 0.49058 0.0
C798 C 0.85009 0.8211 0.52252 0.0
C799 C 0.86205 0.82671 0.56111 0.0
C800 C 0.87021 0.81941 0.56897 0.0
C801 C 0.84127 0.82876 0.51442 0.0
C802 C 0.83873 0.83193 0.45907 0.0
C803 C 0.83563 0.83319 0.56064 0.0
C804 C 0.83647 0.82883 0.61982 0.0
C805 C 0.84288 0.83977 0.66238 0.0
C806 C 0.84373 0.83564 0.71803 0.0
C807 C 0.83814 0.82059 0.7317 0.0
C808 C 0.83164 0.80963 0.6898 0.0
C809 C 0.83074 0.81369 0.63411 0.0
H810 H 0.83883 0.81742 0.7748 0.0
H811 H 0.81843 0.84617 0.23338 0.0
H812 H 0.19052 0.05953 0.44625 0.0
H813 H 0.17515 0.03249 0.43471 0.0
H814 H 0.16498 0.02769 0.61317 0.0
H815 H 0.18051 0.05475 0.62543 0.0
H816 H 0.17251 0.00747 0.57628 0.0
H817 H 0.13902 0.02449 0.51855 0.0
H818 H 0.13132 0.03998 0.46456 0.0
H819 H 0.13707 0.02204 0.30875 0.0
H820 H 0.145 0.00659 0.36178 0.0
H821 H 0.11741 0.93078 0.55419 0.0
H822 H 0.12963 0.95762 0.57321 0.0
H823 H 0.1397 0.96685 0.3955 0.0
H824 H 0.12712 0.94006 0.37589 0.0
H825 H 0.13093 0.98481 0.43739 0.0
H826 H 0.16614 0.96937 0.49314 0.0
H827 H 0.17449 0.95418 0.54554 0.0
H828 H 0.16617 0.96942 0.70318 0.0
H829 H 0.15759 0.98456 0.65167 0.0
C830 C 0.18501 0.05276 0.48311 0.0
C831 C 0.18673 0.05932 0.53676 0.0
C832 C 0.17616 0.0373 0.47635 0.0
C833 C 0.16878 0.02813 0.52297 0.0
C834 C 0.17055 0.0346 0.57665 0.0
C835 C 0.17941 0.05007 0.5835 0.0
C836 C 0.15949 0.01173 0.51573 0.0
C837 C 0.16325 0.00248 0.54663 0.0
C838 C 0.14763 0.0053 0.47615 0.0
C839 C 0.14271 0.01447 0.44415 0.0
C840 C 0.13874 0.02392 0.47276 0.0
C841 C 0.13432 0.03268 0.44233 0.0
C842 C 0.13374 0.03202 0.38326 0.0
C843 C 0.13753 0.02255 0.3545 0.0
C844 C 0.14197 0.01377 0.38473 0.0
C845 C 0.12219 0.93853 0.51913 0.0
C846 C 0.12139 0.9333 0.46358 0.0
C847 C 0.12921 0.95386 0.5301 0.0
C848 C 0.13579 0.96424 0.48589 0.0
C849 C 0.13471 0.95904 0.43027 0.0
C850 C 0.12755 0.94372 0.41917 0.0
C851 C 0.14407 0.98054 0.49744 0.0
C852 C 0.14012 0.98978 0.46737 0.0
C853 C 0.15582 0.98698 0.53755 0.0
C854 C 0.16108 0.97797 0.56856 0.0
C855 C 0.166 0.9694 0.53898 0.0
C856 C 0.17079 0.96081 0.56851 0.0
C857 C 0.17082 0.9608 0.62765 0.0
C858 C 0.16611 0.96942 0.65738 0.0
C859 C 0.1613 0.97802 0.62804 0.0
H860 H 0.17453 0.95414 0.65044 0.0
H861 H 0.13032 0.03881 0.35977 0.0
H862 H 0.93524 0.12443 0.43889 0.0
H863 H 0.96233 0.13718 0.42507 0.0
H864 H 0.96896 0.14219 0.60571 0.0
H865 H 0.9419 0.12945 0.62011 0.0
H866 H 0.98656 0.16848 0.54617 0.0
H867 H 0.97405 0.11692 0.54024 0.0
H868 H 0.96034 0.09081 0.50663 0.0
H869 H 0.97679 0.10542 0.33815 0.0
H870 H 0.99043 0.13165 0.37061 0.0
H871 H 0.06331 0.1922 0.55947 0.0
H872 H 0.03622 0.1778 0.57083 0.0
H873 H 0.03096 0.17061 0.39044 0.0
H874 H 0.05813 0.18482 0.37861 0.0
H875 H 0.0125 0.1454 0.44773 0.0
H876 H 0.02486 0.19666 0.4516 0.0
H877 H 0.03838 0.22296 0.48297 0.0
H878 H 0.02193 0.20929 0.65206 0.0
H879 H 0.00848 0.18287 0.62186 0.0
C880 C 0.94245 0.12819 0.47573 0.0
C881 C 0.93641 0.12592 0.53062 0.0
C882 C 0.95791 0.13542 0.46773 0.0
C883 C 0.96759 0.14053 0.51441 0.0
C884 C 0.96163 0.1383 0.5692 0.0
C885 C 0.94617 0.13097 0.5773 0.0
C886 C 0.98398 0.14859 0.50605 0.0
C887 C 0.99228 0.16338 0.52537 0.0
C888 C 0.9913 0.14204 0.47733 0.0
C889 C 0.98314 0.12627 0.45775 0.0
C890 C 0.97464 0.11458 0.49592 0.0
C891 C 0.9669 0.09976 0.4771 0.0
C892 C 0.96766 0.09646 0.42026 0.0
C893 C 0.97619 0.10799 0.38215 0.0
C894 C 0.98394 0.12283 0.40075 0.0
C895 C 0.05642 0.18754 0.52213 0.0
C896 C 0.06289 0.18975 0.46806 0.0
C897 C 0.04093 0.17935 0.52872 0.0
C898 C 0.03159 0.17334 0.48139 0.0
C899 C 0.03799 0.1752 0.42749 0.0
C900 C 0.05351 0.18336 0.42083 0.0
C901 C 0.01513 0.16527 0.48827 0.0
C902 C 0.0068 0.1505 0.46855 0.0
C903 C 0.00775 0.17188 0.51627 0.0
C904 C 0.01578 0.18777 0.53457 0.0
C905 C 0.02422 0.19925 0.49557 0.0
C906 C 0.03186 0.21418 0.51313 0.0
C907 C 0.03104 0.21779 0.56951 0.0
C908 C 0.02256 0.20648 0.60842 0.0
C909 C 0.01492 0.19152 0.59109 0.0
H910 H 0.03696 0.22936 0.58301 0.0
H911 H 0.96166 0.08498 0.40577 0.0
H912 H 0.85892 0.4613 0.7836 0.0
H913 H 0.84584 0.47505 0.76677 0.0
H914 H 0.84 0.4773 0.9466 0.0
H915 H 0.85292 0.46321 0.96406 0.0
H916 H 0.8147 0.47019 0.88942 0.0
H917 H 0.86639 0.50767 0.87518 0.0
H918 H 0.89237 0.51882 0.8411 0.0
H919 H 0.87766 0.51816 0.6706 0.0
H920 H 0.85154 0.5068 0.70358 0.0
H921 H 0.79628 0.52746 0.88313 0.0
H922 H 0.80914 0.5134 0.89849 0.0
H923 H 0.81119 0.50811 0.71825 0.0
H924 H 0.79823 0.52224 0.70213 0.0
H925 H 0.83831 0.51677 0.77491 0.0
H926 H 0.78647 0.47931 0.79069 0.0
H927 H 0.76065 0.46845 0.82623 0.0
H928 H 0.77601 0.46961 0.99604 0.0
H929 H 0.80197 0.48067 0.96158 0.0
C930 C 0.85488 0.4647 0.81976 0.0
C931 C 0.85704 0.4612 0.87529 0.0
C932 C 0.84745 0.47262 0.80998 0.0
C933 C 0.84216 0.47739 0.85544 0.0
C934 C 0.84406 0.47376 0.91094 0.0
C935 C 0.85147 0.46574 0.92083 0.0
C936 C 0.83454 0.48608 0.84467 0.0
C937 C 0.81994 0.48049 0.86511 0.0
C938 C 0.84127 0.49933 0.81176 0.0
C939 C 0.85698 0.50626 0.79181 0.0
C940 C 0.86868 0.5098 0.83037 0.0
C941 C 0.88343 0.51617 0.81126 0.0
C942 C 0.88666 0.51916 0.75371 0.0
C943 C 0.87514 0.51582 0.71516 0.0
C944 C 0.86036 0.50943 0.73405 0.0
C945 C 0.79945 0.52334 0.84655 0.0
C946 C 0.79617 0.52594 0.7913 0.0
C947 C 0.80676 0.51526 0.85553 0.0
C948 C 0.81095 0.50961 0.80954 0.0
C949 C 0.80797 0.51236 0.75425 0.0
C950 C 0.80054 0.5204 0.74516 0.0
C951 C 0.81851 0.50087 0.81967 0.0
C952 C 0.83309 0.50646 0.79916 0.0
C953 C 0.8118 0.48767 0.85275 0.0
C954 C 0.79618 0.48094 0.87359 0.0
C955 C 0.78436 0.47736 0.83566 0.0
C956 C 0.76969 0.47115 0.8556 0.0
C957 C 0.76669 0.46838 0.91337 0.0
C958 C 0.77835 0.47178 0.95131 0.0
C959 C 0.79304 0.478 0.93159 0.0
H960 H 0.75533 0.46357 0.92873 0.0
H961 H 0.89809 0.52409 0.73899 0.0
H962 H 0.48307 0.26763 0.87342 0.0
H963 H 0.49761 0.29454 0.88912 0.0
H964 H 0.48982 0.30236 0.71626 0.0
H965 H 0.47557 0.27525 0.69962 0.0
H966 H 0.5179 0.32245 0.75069 0.0
H967 H 0.4679 0.3029 0.82376 0.0
H968 H 0.44612 0.28545 0.88114 0.0
H969 H 0.47265 0.30113 0.03225 0.0
H970 H 0.49465 0.31854 0.97565 0.0
H971 H 0.53067 0.39561 0.78044 0.0
H972 H 0.51876 0.36874 0.76526 0.0
H973 H 0.52767 0.36258 0.93861 0.0
H974 H 0.53951 0.3896 0.95466 0.0
H975 H 0.49962 0.34163 0.90587 0.0
H976 H 0.54938 0.36162 0.83423 0.0
H977 H 0.57152 0.37854 0.77746 0.0
H978 H 0.54585 0.36187 0.62481 0.0
H979 H 0.52348 0.34499 0.68074 0.0
C980 C 0.48459 0.27507 0.8385 0.0
C981 C 0.47803 0.26938 0.78548 0.0
C982 C 0.49286 0.29044 0.8476 0.0
C983 C 0.49444 0.30041 0.8043 0.0
C984 C 0.48861 0.29481 0.75035 0.0
C985 C 0.48049 0.27936 0.74089 0.0
C986 C 0.50147 0.3166 0.81647 0.0
C987 C 0.51381 0.32668 0.78409 0.0
C988 C 0.49631 0.32203 0.8611 0.0
C989 C 0.48295 0.31195 0.89541 0.0
C990 C 0.4691 0.3026 0.86921 0.0
C991 C 0.45672 0.29271 0.90159 0.0
C992 C 0.45801 0.29216 0.96029 0.0
C993 C 0.47167 0.30156 0.98677 0.0
C994 C 0.48409 0.31146 0.95457 0.0
C995 C 0.53009 0.38858 0.81555 0.0
C996 C 0.53617 0.39478 0.86872 0.0
C997 C 0.52332 0.37321 0.80665 0.0
C998 C 0.52259 0.36372 0.85049 0.0
C999 C 0.52821 0.36976 0.90415 0.0
C1000 C 0.53498 0.38519 0.91321 0.0
C1001 C 0.51602 0.34751 0.83984 0.0
C1002 C 0.50375 0.33742 0.87251 0.0
C1003 C 0.52126 0.34207 0.79554 0.0
C1004 C 0.53472 0.35213 0.76173 0.0
C1005 C 0.54842 0.36164 0.78858 0.0
C1006 C 0.56102 0.37121 0.75655 0.0
C1007 C 0.56008 0.3713 0.69758 0.0
C1008 C 0.54655 0.3618 0.6705 0.0
C1009 C 0.53391 0.35221 0.70234 0.0
H1010 H 0.56985 0.37872 0.67285 0.0
H1011 H 0.44842 0.28447 0.98527 0.0
H1012 H 0.72744 0.19134 0.86577 0.0
H1013 H 0.70039 0.17813 0.87476 0.0
H1014 H 0.69664 0.19379 0.70964 0.0
H1015 H 0.72398 0.2073 0.70033 0.0
H1016 H 0.67972 0.19784 0.78853 0.0
H1017 H 0.68626 0.15776 0.72664 0.0
H1018 H 0.69707 0.14121 0.72405 0.0
H1019 H 0.68207 0.12685 0.89408 0.0
H1020 H 0.67134 0.14349 0.89803 0.0
H1021 H 0.60064 0.14734 0.77646 0.0
H1022 H 0.6275 0.16042 0.75763 0.0
H1023 H 0.63583 0.15254 0.92953 0.0
H1024 H 0.60886 0.13957 0.94919 0.0
H1025 H 0.64995 0.14413 0.84048 0.0
H1026 H 0.64437 0.18564 0.90123 0.0
H1027 H 0.63322 0.20191 0.90012 0.0
H1028 H 0.646 0.21299 0.72613 0.0
H1029 H 0.65705 0.1966 0.72596 0.0
C1030 C 0.72094 0.19195 0.83108 0.0
C1031 C 0.72791 0.20044 0.7824 0.0
C1032 C 0.70543 0.18429 0.8362 0.0
C1033 C 0.69651 0.18487 0.79269 0.0
C1034 C 0.70336 0.19319 0.74364 0.0
C1035 C 0.71895 0.20084 0.73833 0.0
C1036 C 0.6801 0.17733 0.80032 0.0
C1037 C 0.67315 0.18603 0.79882 0.0
C1038 C 0.67162 0.16198 0.8148 0.0
C1039 C 0.6781 0.15198 0.81279 0.0
C1040 C 0.68538 0.15118 0.76368 0.0
C1041 C 0.69147 0.14175 0.76193 0.0
C1042 C 0.69029 0.13301 0.80892 0.0
C1043 C 0.68299 0.13364 0.85773 0.0
C1044 C 0.67688 0.14306 0.85973 0.0
C1045 C 0.60818 0.14847 0.81045 0.0
C1046 C 0.60267 0.14242 0.86433 0.0
C1047 C 0.6235 0.15597 0.7996 0.0
C1048 C 0.63357 0.15742 0.84221 0.0
C1049 C 0.62816 0.1515 0.8962 0.0
C1050 C 0.61281 0.14419 0.90741 0.0
C1051 C 0.6497 0.1647 0.82952 0.0
C1052 C 0.65655 0.15592 0.8299 0.0
C1053 C 0.65804 0.17991 0.81343 0.0
C1054 C 0.65139 0.18976 0.8134 0.0
C1055 C 0.64467 0.19143 0.86256 0.0
C1056 C 0.6384 0.2007 0.8622 0.0
C1057 C 0.63886 0.20844 0.81304 0.0
C1058 C 0.64563 0.20696 0.76416 0.0
C1059 C 0.65191 0.19769 0.76427 0.0
H1060 H 0.634 0.21562 0.81286 0.0
H1061 H 0.69501 0.12571 0.80747 0.0
H1062 H 0.46507 0.19827 0.89817 0.0
H1063 H 0.47838 0.18456 0.91435 0.0
H1064 H 0.4887 0.18727 0.73631 0.0
H1065 H 0.47529 0.20078 0.7195 0.0
H1066 H 0.47957 0.15959 0.77861 0.0
H1067 H 0.51464 0.21085 0.83031 0.0
H1068 H 0.52283 0.23428 0.88321 0.0
H1069 H 0.51679 0.21093 0.04015 0.0
H1070 H 0.50837 0.18731 0.98817 0.0
H1071 H 0.53761 0.14281 0.77429 0.0
H1072 H 0.52301 0.1554 0.76598 0.0
H1073 H 0.51766 0.15387 0.94745 0.0
H1074 H 0.53269 0.1417 0.95627 0.0
H1075 H 0.52308 0.17995 0.9089 0.0
H1076 H 0.48919 0.129 0.85899 0.0
H1077 H 0.48069 0.1053 0.80764 0.0
H1078 H 0.48377 0.12739 0.65002 0.0
H1079 H 0.49248 0.15128 0.70037 0.0
C1080 C 0.47012 0.1959 0.8624 0.0
C1081 C 0.46919 0.2007 0.80758 0.0
C1082 C 0.47776 0.18811 0.87178 0.0
C1083 C 0.48465 0.18506 0.8266 0.0
C1084 C 0.48346 0.18954 0.77174 0.0
C1085 C 0.47583 0.19731 0.76229 0.0
C1086 C 0.49331 0.17738 0.83627 0.0
C1087 C 0.48917 0.1641 0.80668 0.0
C1088 C 0.50555 0.18307 0.87417 0.0
C1089 C 0.51073 0.19729 0.90538 0.0
C1090 C 0.51495 0.21069 0.87612 0.0
C1091 C 0.51965 0.22401 0.90593 0.0
C1092 C 0.52029 0.22409 0.96501 0.0
C1093 C 0.51627 0.21085 0.9944 0.0
C1094 C 0.51155 0.1975 0.96478 0.0
C1095 C 0.53337 0.14519 0.81246 0.0
C1096 C 0.53623 0.14119 0.86591 0.0
C1097 C 0.52496 0.15231 0.80763 0.0
C1098 C 0.51898 0.15529 0.85602 0.0
C1099 C 0.52211 0.15162 0.90954 0.0
C1100 C 0.53069 0.14466 0.91449 0.0
C1101 C 0.50947 0.16223 0.85064 0.0
C1102 C 0.51343 0.17536 0.8811 0.0
C1103 C 0.49698 0.15634 0.81381 0.0
C1104 C 0.4916 0.14196 0.78344 0.0
C1105 C 0.48815 0.12883 0.81335 0.0
C1106 C 0.48328 0.11535 0.78442 0.0
C1107 C 0.48172 0.11484 0.72559 0.0
C1108 C 0.48499 0.1278 0.69558 0.0
C1109 C 0.48987 0.14131 0.7243 0.0
H1110 H 0.47796 0.10441 0.70327 0.0
H1111 H 0.52393 0.23441 0.98802 0.0
H1112 H 0.78415 0.27364 0.73934 0.0
H1113 H 0.79635 0.30044 0.75832 0.0
H1114 H 0.80927 0.29338 0.92397 0.0
H1115 H 0.79702 0.26644 0.90554 0.0
H1116 H 0.79285 0.31748 0.84367 0.0
H1117 H 0.84586 0.3223 0.94142 0.0
H1118 H 0.85987 0.30869 0.94231 0.0
H1119 H 0.84381 0.29187 0.77541 0.0
H1120 H 0.82988 0.30553 0.77328 0.0
H1121 H 0.84215 0.39115 0.9535 0.0
H1122 H 0.8273 0.3639 0.94495 0.0
H1123 H 0.84945 0.36599 0.78765 0.0
H1124 H 0.86423 0.39326 0.79533 0.0
H1125 H 0.84803 0.34431 0.86736 0.0
H1126 H 0.81642 0.36058 0.77824 0.0
H1127 H 0.80244 0.37417 0.77423 0.0
H1128 H 0.77587 0.34903 0.91655 0.0
H1129 H 0.78985 0.33544 0.9219 0.0
C1130 C 0.78947 0.27774 0.78005 0.0
C1131 C 0.78974 0.26793 0.82076 0.0
C1132 C 0.79635 0.29304 0.7909 0.0
C1133 C 0.80376 0.29884 0.84232 0.0
C1134 C 0.80365 0.28907 0.88389 0.0
C1135 C 0.79665 0.27371 0.87327 0.0
C1136 C 0.81243 0.31521 0.85052 0.0
C1137 C 0.80489 0.32335 0.84931 0.0
C1138 C 0.82815 0.32281 0.85726 0.0
C1139 C 0.83671 0.3148 0.8575 0.0
C1140 C 0.84537 0.31574 0.90486 0.0
C1141 C 0.85329 0.30801 0.90559 0.0
C1142 C 0.85269 0.29938 0.85902 0.0
C1143 C 0.84422 0.29851 0.81153 0.0
C1144 C 0.8363 0.30623 0.81057 0.0
C1145 C 0.84385 0.38582 0.91701 0.0
C1146 C 0.85435 0.39435 0.875 0.0
C1147 C 0.83534 0.37027 0.91221 0.0
C1148 C 0.83732 0.36302 0.8657 0.0
C1149 C 0.84783 0.37145 0.82389 0.0
C1150 C 0.85619 0.38701 0.82822 0.0
C1151 C 0.82845 0.34658 0.86059 0.0
C1152 C 0.83596 0.33842 0.86245 0.0
C1153 C 0.81273 0.33899 0.85415 0.0
C1154 C 0.80429 0.34712 0.85086 0.0
C1155 C 0.80769 0.35805 0.80901 0.0
C1156 C 0.79975 0.36573 0.80642 0.0
C1157 C 0.7883 0.3625 0.84522 0.0
C1158 C 0.78475 0.35155 0.88659 0.0
C1159 C 0.79268 0.34384 0.88939 0.0
H1160 H 0.78216 0.36846 0.84314 0.0
H1161 H 0.85881 0.29339 0.8597 0.0
H1162 H 0.60773 0.45601 0.9464 0.0
H1163 H 0.63481 0.46846 0.93371 0.0
H1164 H 0.62967 0.47514 0.75673 0.0
H1165 H 0.60255 0.46249 0.76867 0.0
H1166 H 0.65005 0.46615 0.77319 0.0
H1167 H 0.63973 0.50336 0.85063 0.0
H1168 H 0.62918 0.51333 0.92044 0.0
H1169 H 0.65574 0.50924 0.05154 0.0
H1170 H 0.66629 0.49906 0.98262 0.0
H1171 H 0.72415 0.52267 0.70965 0.0
H1172 H 0.69712 0.50775 0.72324 0.0
H1173 H 0.70371 0.50542 0.90255 0.0
H1174 H 0.73073 0.52081 0.88955 0.0
H1175 H 0.6825 0.51145 0.88672 0.0
H1176 H 0.69355 0.47502 0.81039 0.0
H1177 H 0.70401 0.46467 0.74189 0.0
H1178 H 0.67625 0.46666 0.61081 0.0
H1179 H 0.66576 0.47721 0.67835 0.0
C1180 C 0.61233 0.46006 0.90469 0.0
C1181 C 0.60297 0.45834 0.85861 0.0
C1182 C 0.62782 0.46721 0.89758 0.0
C1183 C 0.63423 0.47288 0.84445 0.0
C1184 C 0.62492 0.47085 0.79809 0.0
C1185 C 0.60943 0.46367 0.80509 0.0
C1186 C 0.65067 0.48125 0.83739 0.0
C1187 C 0.65717 0.47615 0.79754 0.0
C1188 C 0.65992 0.49406 0.87024 0.0
C1189 C 0.65369 0.50032 0.91158 0.0
C1190 C 0.64324 0.50449 0.89442 0.0
C1191 C 0.63727 0.51019 0.93382 0.0
C1192 C 0.64176 0.51188 0.99041 0.0
C1193 C 0.65226 0.50791 0.0077 0.0
C1194 C 0.65824 0.50219 0.96849 0.0
C1195 C 0.71984 0.51892 0.75194 0.0
C1196 C 0.72956 0.52291 0.79854 0.0
C1197 C 0.70439 0.51032 0.75961 0.0
C1198 C 0.69839 0.50527 0.81382 0.0
C1199 C 0.70809 0.50918 0.86034 0.0
C1200 C 0.72353 0.51797 0.85283 0.0
C1201 C 0.68198 0.49637 0.82241 0.0
C1202 C 0.67545 0.5014 0.86251 0.0
C1203 C 0.67272 0.48344 0.78999 0.0
C1204 C 0.67896 0.47703 0.74934 0.0
C1205 C 0.68975 0.47335 0.76686 0.0
C1206 C 0.69568 0.46743 0.72822 0.0
C1207 C 0.69083 0.46504 0.67201 0.0
C1208 C 0.68001 0.46853 0.65435 0.0
C1209 C 0.67406 0.47446 0.69281 0.0
H1210 H 0.69543 0.46046 0.64215 0.0
H1211 H 0.63712 0.51629 0.02085 0.0
H1212 H 0.4631 0.85423 0.03696 0.0
H1213 H 0.47554 0.83962 0.05361 0.0
H1214 H 0.46291 0.83501 0.22982 0.0
H1215 H 0.45099 0.84993 0.21394 0.0
H1216 H 0.49103 0.84348 0.22193 0.0
H1217 H 0.44618 0.80538 0.13252 0.0
H1218 H 0.42717 0.79444 0.05716 0.0
H1219 H 0.46083 0.79923 0.93866 0.0
H1220 H 0.48009 0.81038 0.01316 0.0
H1221 H 0.51196 0.78988 0.29918 0.0
H1222 H 0.49756 0.80235 0.27967 0.0
H1223 H 0.51222 0.80882 0.10572 0.0
H1224 H 0.52635 0.79617 0.12437 0.0
H1225 H 0.48297 0.79914 0.11184 0.0
H1226 H 0.52775 0.83752 0.20152 0.0
H1227 H 0.54667 0.84833 0.27726 0.0
H1228 H 0.51275 0.84278 0.39592 0.0
H1229 H 0.49359 0.83176 0.32102 0.0
C1230 C 0.46284 0.84993 0.07903 0.0
C1231 C 0.45617 0.85329 0.1242 0.0
C1232 C 0.4699 0.84155 0.08849 0.0
C1233 C 0.4701 0.83617 0.14298 0.0
C1234 C 0.46299 0.83912 0.18755 0.0
C1235 C 0.45615 0.84764 0.17835 0.0
C1236 C 0.47841 0.82818 0.15477 0.0
C1237 C 0.48909 0.83364 0.19836 0.0
C1238 C 0.47617 0.81559 0.1231 0.0
C1239 C 0.4646 0.80885 0.0783 0.0
C1240 C 0.44955 0.80421 0.09029 0.0
C1241 C 0.43873 0.79795 0.04774 0.0
C1242 C 0.4428 0.79618 0.99312 0.0
C1243 C 0.4577 0.80063 0.98097 0.0
C1244 C 0.46857 0.8069 0.02335 0.0
C1245 C 0.51215 0.794 0.25685 0.0
C1246 C 0.52032 0.79205 0.2134 0.0
C1247 C 0.50394 0.80114 0.24578 0.0
C1248 C 0.50392 0.8066 0.19131 0.0
C1249 C 0.51205 0.80465 0.14797 0.0
C1250 C 0.52017 0.79746 0.15886 0.0
C1251 C 0.49546 0.81438 0.17922 0.0
C1252 C 0.48482 0.80894 0.13549 0.0
C1253 C 0.49769 0.82697 0.21082 0.0
C1254 C 0.50922 0.83368 0.25579 0.0
C1255 C 0.52431 0.83851 0.24386 0.0
C1256 C 0.53508 0.84469 0.28662 0.0
C1257 C 0.53091 0.8462 0.3414 0.0
C1258 C 0.51596 0.84158 0.35349 0.0
C1259 C 0.50515 0.83538 0.3109 0.0
H1260 H 0.53926 0.85099 0.37445 0.0
H1261 H 0.4344 0.79133 0.96025 0.0
H1262 H 0.21924 0.7325 0.12654 0.0
H1263 H 0.20704 0.7059 0.10386 0.0
H1264 H 0.18635 0.69517 0.26894 0.0
H1265 H 0.19906 0.72184 0.29277 0.0
H1266 H 0.19457 0.67557 0.2388 0.0
H1267 H 0.16855 0.69818 0.14678 0.0
H1268 H 0.16738 0.71662 0.08367 0.0
H1269 H 0.1813 0.7001 0.94327 0.0
H1270 H 0.18286 0.68177 0.00579 0.0
H1271 H 0.13226 0.60512 0.20078 0.0
H1272 H 0.14828 0.63194 0.21406 0.0
H1273 H 0.16609 0.63595 0.04571 0.0
H1274 H 0.14977 0.60895 0.03146 0.0
H1275 H 0.16141 0.65895 0.07026 0.0
H1276 H 0.18607 0.6356 0.15771 0.0
H1277 H 0.18836 0.6175 0.21897 0.0
H1278 H 0.17804 0.63549 0.36484 0.0
H1279 H 0.17548 0.65356 0.30434 0.0
C1280 C 0.21223 0.72445 0.15829 0.0
C1281 C 0.20993 0.7292 0.21122 0.0
C1282 C 0.20522 0.70927 0.14516 0.0
C1283 C 0.19547 0.69859 0.18412 0.0
C1284 C 0.19376 0.70326 0.2381 0.0
C1285 C 0.20101 0.71847 0.2517 0.0
C1286 C 0.18652 0.68263 0.16787 0.0
C1287 C 0.18721 0.67193 0.20229 0.0
C1288 C 0.17732 0.67793 0.11896 0.0
C1289 C 0.17595 0.68868 0.0811 0.0
C1290 C 0.17143 0.69852 0.10251 0.0
C1291 C 0.17072 0.70897 0.06686 0.0
C1292 C 0.17431 0.70956 0.00954 0.0
C1293 C 0.17856 0.69965 0.98771 0.0
C1294 C 0.17936 0.68924 0.02323 0.0
C1295 C 0.13951 0.61167 0.16632 0.0
C1296 C 0.13988 0.60487 0.11527 0.0
C1297 C 0.1487 0.62701 0.1741 0.0
C1298 C 0.15862 0.63586 0.13137 0.0
C1299 C 0.15859 0.62927 0.07937 0.0
C1300 C 0.14927 0.61386 0.07132 0.0
C1301 C 0.16919 0.65191 0.1421 0.0
C1302 C 0.16884 0.66261 0.10656 0.0
C1303 C 0.17881 0.65664 0.18972 0.0
C1304 C 0.18047 0.64587 0.22639 0.0
C1305 C 0.18419 0.63564 0.20281 0.0
C1306 C 0.18555 0.62539 0.2374 0.0
C1307 C 0.18332 0.62533 0.29574 0.0
C1308 C 0.17976 0.63554 0.31963 0.0
C1309 C 0.17837 0.6458 0.28521 0.0
H1310 H 0.18438 0.61738 0.32246 0.0
H1311 H 0.17377 0.71766 0.982 0.0
H1312 H 0.38979 0.53777 0.02882 0.0
H1313 H 0.36255 0.52466 0.04062 0.0
H1314 H 0.36715 0.51102 0.20854 0.0
H1315 H 0.39414 0.52381 0.19705 0.0
H1316 H 0.34423 0.48858 0.15416 0.0
H1317 H 0.36232 0.54075 0.18955 0.0
H1318 H 0.37577 0.56771 0.16733 0.0
H1319 H 0.34728 0.55967 0.02355 0.0
H1320 H 0.33378 0.53261 0.04449 0.0
H1321 H 0.27476 0.47275 0.27812 0.0
H1322 H 0.30174 0.48533 0.25872 0.0
H1323 H 0.2936 0.49178 0.08478 0.0
H1324 H 0.26675 0.47908 0.10335 0.0
H1325 H 0.31788 0.51758 0.13836 0.0
H1326 H 0.29937 0.46512 0.10647 0.0
H1327 H 0.28582 0.43838 0.13206 0.0
H1328 H 0.31526 0.44735 0.27345 0.0
H1329 H 0.32884 0.47422 0.24918 0.0
C1330 C 0.38498 0.53184 0.06799 0.0
C1331 C 0.39417 0.53195 0.11215 0.0
C1332 C 0.36943 0.52442 0.07476 0.0
C1333 C 0.36287 0.51704 0.12576 0.0
C1334 C 0.37198 0.51667 0.1689 0.0
C1335 C 0.38745 0.52406 0.16225 0.0
C1336 C 0.34658 0.5101 0.13549 0.0
C1337 C 0.33851 0.49495 0.15114 0.0
C1338 C 0.33908 0.51838 0.13084 0.0
C1339 C 0.34716 0.53464 0.11819 0.0
C1340 C 0.35901 0.54472 0.15291 0.0
C1341 C 0.36663 0.56002 0.1406 0.0
C1342 C 0.36242 0.5654 0.09395 0.0
C1343 C 0.35055 0.55548 0.0596 0.0
C1344 C 0.34291 0.54016 0.07168 0.0
C1345 C 0.27876 0.47696 0.23592 0.0
C1346 C 0.26868 0.47487 0.19218 0.0
C1347 C 0.29412 0.48409 0.22489 0.0
C1348 C 0.29957 0.48938 0.17027 0.0
C1349 C 0.28957 0.48776 0.12714 0.0
C1350 C 0.27425 0.48044 0.13783 0.0
C1351 C 0.31565 0.49615 0.15738 0.0
C1352 C 0.32364 0.51123 0.14112 0.0
C1353 C 0.3231 0.48785 0.16187 0.0
C1354 C 0.31501 0.4717 0.17638 0.0
C1355 C 0.30287 0.46142 0.14333 0.0
C1356 C 0.2952 0.44623 0.15753 0.0
C1357 C 0.29965 0.44117 0.20445 0.0
C1358 C 0.31181 0.45129 0.23717 0.0
C1359 C 0.3195 0.4665 0.2232 0.0
H1360 H 0.2937 0.42941 0.21537 0.0
H1361 H 0.36832 0.57725 0.08451 0.0
H1362 H 0.14322 0.54202 0.21884 0.0
H1363 H 0.15773 0.52931 0.22826 0.0
H1364 H 0.15779 0.52475 0.04684 0.0
H1365 H 0.14329 0.53743 0.03684 0.0
H1366 H 0.14975 0.49838 0.10403 0.0
H1367 H 0.18874 0.54987 0.10979 0.0
H1368 H 0.20137 0.57591 0.14416 0.0
H1369 H 0.2045 0.56101 0.31067 0.0
H1370 H 0.19168 0.53484 0.27747 0.0
H1371 H 0.20216 0.47338 0.08899 0.0
H1372 H 0.18972 0.48804 0.0765 0.0
H1373 H 0.19227 0.49622 0.25632 0.0
H1374 H 0.20496 0.48183 0.2692 0.0
H1375 H 0.19928 0.52114 0.19845 0.0
H1376 H 0.15979 0.46993 0.19553 0.0
H1377 H 0.14667 0.44366 0.16369 0.0
H1378 H 0.14388 0.45768 0.9952 0.0
H1379 H 0.15717 0.48407 0.02589 0.0
C1380 C 0.14636 0.53837 0.18091 0.0
C1381 C 0.1421 0.54074 0.12709 0.0
C1382 C 0.1547 0.53117 0.18638 0.0
C1383 C 0.15888 0.52619 0.1382 0.0
C1384 C 0.15466 0.52854 0.08448 0.0
C1385 C 0.14642 0.53583 0.0789 0.0
C1386 C 0.1673 0.51815 0.14393 0.0
C1387 C 0.16069 0.50341 0.12389 0.0
C1388 C 0.18136 0.52464 0.17122 0.0
C1389 C 0.18912 0.54037 0.19126 0.0
C1390 C 0.19201 0.55213 0.15385 0.0
C1391 C 0.19922 0.56692 0.1731 0.0
C1392 C 0.2037 0.57011 0.2296 0.0
C1393 C 0.201 0.55852 0.26693 0.0
C1394 C 0.19378 0.5437 0.24791 0.0
C1395 C 0.2001 0.47832 0.12591 0.0
C1396 C 0.20448 0.47637 0.18014 0.0
C1397 C 0.19296 0.48666 0.11869 0.0
C1398 C 0.18991 0.49305 0.1656 0.0
C1399 C 0.19452 0.49137 0.21959 0.0
C1400 C 0.20173 0.4831 0.22685 0.0
C1401 C 0.18175 0.50134 0.15851 0.0
C1402 C 0.18838 0.51611 0.17839 0.0
C1403 C 0.16764 0.49484 0.13143 0.0
C1404 C 0.15961 0.47898 0.11288 0.0
C1405 C 0.15648 0.46742 0.15159 0.0
C1406 C 0.14899 0.45251 0.13377 0.0
C1407 C 0.14448 0.449 0.07742 0.0
C1408 C 0.1474 0.46041 0.03881 0.0
C1409 C 0.1549 0.47535 0.0564 0.0
H1410 H 0.13868 0.43745 0.06371 0.0
H1411 H 0.20929 0.58157 0.24442 0.0
H1412 H 0.52056 0.72401 0.12868 0.0
H1413 H 0.50459 0.69692 0.12316 0.0
H1414 H 0.49452 0.69525 0.30112 0.0
H1415 H 0.51069 0.72239 0.30739 0.0
H1416 H 0.5007 0.67372 0.27302 0.0
H1417 H 0.4685 0.69073 0.20455 0.0
H1418 H 0.46102 0.7058 0.1468 0.0
H1419 H 0.46688 0.68638 0.99519 0.0
H1420 H 0.47461 0.67134 0.05198 0.0
H1421 H 0.44855 0.59588 0.23867 0.0
H1422 H 0.45859 0.62229 0.26223 0.0
H1423 H 0.47201 0.63433 0.08822 0.0
H1424 H 0.46144 0.60801 0.06402 0.0
H1425 H 0.46088 0.65035 0.1275 0.0
H1426 H 0.49697 0.6365 0.19839 0.0
H1427 H 0.50373 0.62102 0.25736 0.0
H1428 H 0.4895 0.63424 0.40646 0.0
H1429 H 0.48257 0.64973 0.34826 0.0
C1430 C 0.51494 0.71792 0.16669 0.0
C1431 C 0.51687 0.72539 0.21842 0.0
C1432 C 0.50575 0.70243 0.16338 0.0
C1433 C 0.4982 0.69412 0.21157 0.0
C1434 C 0.5002 0.70149 0.26341 0.0
C1435 C 0.50942 0.717 0.26682 0.0
C1436 C 0.48852 0.67768 0.20764 0.0
C1437 C 0.49181 0.66858 0.2419 0.0
C1438 C 0.47696 0.67101 0.16697 0.0
C1439 C 0.47223 0.67997 0.13257 0.0
C1440 C 0.4683 0.68975 0.15888 0.0
C1441 C 0.46399 0.69827 0.12631 0.0
C1442 C 0.4635 0.69707 0.06736 0.0
C1443 C 0.46727 0.6873 0.04086 0.0
C1444 C 0.4716 0.67876 0.07323 0.0
C1445 C 0.45359 0.60418 0.20546 0.0
C1446 C 0.4543 0.5999 0.14956 0.0
C1447 C 0.45936 0.61926 0.219 0.0
C1448 C 0.46627 0.63031 0.17716 0.0
C1449 C 0.46671 0.626 0.1212 0.0
C1450 C 0.46072 0.61095 0.10745 0.0
C1451 C 0.47348 0.64644 0.19119 0.0
C1452 C 0.46966 0.65548 0.15906 0.0
C1453 C 0.48451 0.65305 0.23393 0.0
C1454 C 0.48916 0.64416 0.26899 0.0
C1455 C 0.49528 0.63609 0.24375 0.0
C1456 C 0.49913 0.62731 0.27702 0.0
C1457 C 0.49701 0.62662 0.33561 0.0
C1458 C 0.49113 0.63479 0.36109 0.0
C1459 C 0.48727 0.64358 0.32801 0.0
H1460 H 0.49994 0.61978 0.36127 0.0
H1461 H 0.46017 0.70368 0.04222 0.0
H1462 H 0.39822 0.87076 0.22869 0.0
H1463 H 0.37138 0.85784 0.24854 0.0
H1464 H 0.36229 0.83787 0.08248 0.0
H1465 H 0.38908 0.85074 0.06201 0.0
H1466 H 0.34783 0.8587 0.19241 0.0
H1467 H 0.3337 0.80149 0.09913 0.0
H1468 H 0.346 0.7866 0.08186 0.0
H1469 H 0.37595 0.80849 0.22068 0.0
H1470 H 0.36369 0.82334 0.23927 0.0
H1471 H 0.27001 0.80939 0.13846 0.0
H1472 H 0.29728 0.82393 0.13037 0.0
H1473 H 0.30158 0.80396 0.28438 0.0
H1474 H 0.2743 0.78953 0.29345 0.0
H1475 H 0.31876 0.80318 0.18961 0.0
H1476 H 0.30944 0.83743 0.29508 0.0
H1477 H 0.29727 0.85231 0.31468 0.0
H1478 H 0.31445 0.87627 0.15878 0.0
H1479 H 0.32654 0.86137 0.13782 0.0
C1480 C 0.39052 0.86365 0.19628 0.0
C1481 C 0.39579 0.86171 0.14386 0.0
C1482 C 0.3752 0.85635 0.20766 0.0
C1483 C 0.36492 0.84685 0.16713 0.0
C1484 C 0.3701 0.84507 0.11444 0.0
C1485 C 0.3854 0.85246 0.10282 0.0
C1486 C 0.34878 0.83851 0.18039 0.0
C1487 C 0.34146 0.84657 0.19185 0.0
C1488 C 0.34058 0.82269 0.18031 0.0
C1489 C 0.34787 0.81362 0.1702 0.0
C1490 C 0.34287 0.80307 0.12611 0.0
C1491 C 0.34984 0.79465 0.11607 0.0
C1492 C 0.36178 0.79663 0.15004 0.0
C1493 C 0.36674 0.807 0.19427 0.0
C1494 C 0.35979 0.81544 0.20452 0.0
C1495 C 0.27675 0.80813 0.17073 0.0
C1496 C 0.27003 0.7983 0.21655 0.0
C1497 C 0.2923 0.81647 0.16613 0.0
C1498 C 0.30135 0.815 0.20686 0.0
C1499 C 0.29471 0.80522 0.25262 0.0
C1500 C 0.27916 0.79704 0.25777 0.0
C1501 C 0.31777 0.82337 0.20068 0.0
C1502 C 0.32514 0.81531 0.19034 0.0
C1503 C 0.32601 0.83918 0.20212 0.0
C1504 C 0.31878 0.84818 0.21463 0.0
C1505 C 0.31051 0.84578 0.26472 0.0
C1506 C 0.30365 0.85423 0.27613 0.0
C1507 C 0.30506 0.8652 0.23793 0.0
C1508 C 0.31336 0.86776 0.1883 0.0
C1509 C 0.32023 0.85932 0.17666 0.0
H1510 H 0.29974 0.87174 0.24685 0.0
H1511 H 0.36717 0.79011 0.14216 0.0
H1512 H 0.14938 0.27991 0.46596 0.0
H1513 H 0.16073 0.30644 0.44185 0.0
H1514 H 0.12952 0.29512 0.30356 0.0
H1515 H 0.11733 0.26886 0.33102 0.0
H1516 H 0.17535 0.32123 0.35796 0.0
H1517 H 0.12339 0.32268 0.26846 0.0
H1518 H 0.0963 0.3108 0.2871 0.0
H1519 H 0.10328 0.30201 0.45872 0.0
H1520 H 0.13042 0.31402 0.44136 0.0
H1521 H 0.20267 0.38692 0.1982 0.0
H1522 H 0.18849 0.36064 0.2271 0.0
H1523 H 0.16468 0.37171 0.35049 0.0
H1524 H 0.17797 0.39768 0.31831 0.0
H1525 H 0.1465 0.34645 0.31131 0.0
H1526 H 0.19583 0.3675 0.38509 0.0
H1527 H 0.2234 0.38092 0.38282 0.0
H1528 H 0.22243 0.34733 0.27284 0.0
H1529 H 0.19483 0.3338 0.27384 0.0
C1530 C 0.14473 0.28317 0.43136 0.0
C1531 C 0.1325 0.27235 0.4003 0.0
C1532 C 0.15133 0.2983 0.41714 0.0
C1533 C 0.14593 0.30286 0.37112 0.0
C1534 C 0.13372 0.292 0.34002 0.0
C1535 C 0.1269 0.27694 0.35514 0.0
C1536 C 0.1534 0.31887 0.35424 0.0
C1537 C 0.16902 0.32674 0.34804 0.0
C1538 C 0.14524 0.32624 0.3424 0.0
C1539 C 0.12893 0.31913 0.3534 0.0
C1540 C 0.11915 0.31827 0.31024 0.0
C1541 C 0.10378 0.3115 0.32057 0.0
C1542 C 0.09807 0.30561 0.37401 0.0
C1543 C 0.10771 0.30653 0.41729 0.0
C1544 C 0.12309 0.3133 0.40721 0.0
C1545 C 0.19417 0.38363 0.23061 0.0
C1546 C 0.19155 0.39431 0.25674 0.0
C1547 C 0.18622 0.36867 0.24767 0.0
C1548 C 0.1758 0.36424 0.29216 0.0
C1549 C 0.17273 0.37483 0.31645 0.0
C1550 C 0.18043 0.38969 0.29848 0.0
C1551 C 0.16841 0.34872 0.31452 0.0
C1552 C 0.15281 0.34094 0.32154 0.0
C1553 C 0.17666 0.34165 0.3297 0.0
C1554 C 0.19326 0.34971 0.32913 0.0
C1555 C 0.2015 0.36302 0.36013 0.0
C1556 C 0.21713 0.37064 0.3591 0.0
C1557 C 0.22467 0.365 0.3276 0.0
C1558 C 0.21658 0.3517 0.29716 0.0
C1559 C 0.20094 0.34404 0.29798 0.0
H1560 H 0.23677 0.37091 0.32686 0.0
H1561 H 0.08617 0.30036 0.3819 0.0
H1562 H 0.59825 0.78209 0.34397 0.0
H1563 H 0.62467 0.79561 0.36993 0.0
H1564 H 0.63418 0.82465 0.22543 0.0
H1565 H 0.60752 0.81195 0.20242 0.0
H1566 H 0.64891 0.80008 0.32874 0.0
H1567 H 0.66259 0.85907 0.25082 0.0
H1568 H 0.64977 0.87364 0.2382 0.0
H1569 H 0.61766 0.84712 0.36547 0.0
H1570 H 0.6304 0.83253 0.37938 0.0
H1571 H 0.72709 0.84681 0.33103 0.0
H1572 H 0.7006 0.83267 0.30634 0.0
H1573 H 0.6914 0.85853 0.42675 0.0
H1574 H 0.71813 0.87362 0.44742 0.0
H1575 H 0.6761 0.85549 0.3407 0.0
H1576 H 0.68299 0.8208 0.45055 0.0
H1577 H 0.69455 0.80595 0.47984 0.0
H1578 H 0.6833 0.7834 0.3194 0.0
H1579 H 0.67184 0.79827 0.28883 0.0
C1580 C 0.60597 0.79148 0.3182 0.0
C1581 C 0.60083 0.79616 0.27184 0.0
C1582 C 0.6211 0.7991 0.33265 0.0
C1583 C 0.63142 0.81136 0.30033 0.0
C1584 C 0.62639 0.81548 0.25195 0.0
C1585 C 0.61119 0.80808 0.2383 0.0
C1586 C 0.64732 0.81999 0.3182 0.0
C1587 C 0.65485 0.8122 0.33137 0.0
C1588 C 0.655 0.83578 0.32327 0.0
C1589 C 0.64736 0.84461 0.31566 0.0
C1590 C 0.65283 0.85639 0.27624 0.0
C1591 C 0.64557 0.86464 0.26885 0.0
C1592 C 0.63288 0.86128 0.30088 0.0
C1593 C 0.62746 0.84968 0.34054 0.0
C1594 C 0.63469 0.84141 0.34816 0.0
C1595 C 0.71941 0.8496 0.35156 0.0
C1596 C 0.72464 0.86139 0.39069 0.0
C1597 C 0.70424 0.84135 0.33815 0.0
C1598 C 0.6939 0.84434 0.36529 0.0
C1599 C 0.69912 0.85599 0.40515 0.0
C1600 C 0.71436 0.8645 0.41743 0.0
C1601 C 0.67773 0.83559 0.35108 0.0
C1602 C 0.67017 0.84337 0.3383 0.0
C1603 C 0.66983 0.81975 0.349 0.0
C1604 C 0.67668 0.81075 0.36723 0.0
C1605 C 0.68307 0.81275 0.42137 0.0
C1606 C 0.68959 0.80432 0.43822 0.0
C1607 C 0.68969 0.79376 0.40145 0.0
C1608 C 0.68323 0.79159 0.3478 0.0
C1609 C 0.67671 0.80001 0.33071 0.0
H1610 H 0.69474 0.78724 0.41458 0.0
H1611 H 0.62727 0.86767 0.29504 0.0
H1612 H 0.21333 0.81784 0.31151 0.0
H1613 H 0.20048 0.83178 0.33313 0.0
H1614 H 0.16091 0.79799 0.24802 0.0
H1615 H 0.17404 0.78433 0.22464 0.0
H1616 H 0.16528 0.82525 0.22576 0.0
H1617 H 0.16477 0.79834 0.39379 0.0
H1618 H 0.17676 0.791 0.46768 0.0
H1619 H 0.20268 0.83674 0.52159 0.0
H1620 H 0.19103 0.84439 0.44749 0.0
H1621 H 0.11434 0.84439 0.34405 0.0
H1622 H 0.12722 0.83065 0.31942 0.0
H1623 H 0.16664 0.86364 0.40779 0.0
H1624 H 0.15343 0.877 0.43443 0.0
H1625 H 0.16228 0.83673 0.42773 0.0
H1626 H 0.16276 0.86375 0.2606 0.0
H1627 H 0.1507 0.87121 0.18746 0.0
H1628 H 0.12497 0.82562 0.1317 0.0
H1629 H 0.13669 0.81783 0.20511 0.0
C1630 C 0.20192 0.8135 0.29725 0.0
C1631 C 0.19452 0.8 0.2672 0.0
C1632 C 0.19458 0.82141 0.30966 0.0
C1633 C 0.17963 0.81574 0.29327 0.0
C1634 C 0.17242 0.80251 0.26131 0.0
C1635 C 0.17986 0.79471 0.24817 0.0
C1636 C 0.17135 0.82333 0.31131 0.0
C1637 C 0.16447 0.82762 0.26995 0.0
C1638 C 0.17054 0.82665 0.3689 0.0
C1639 C 0.17712 0.82195 0.41479 0.0
C1640 C 0.17306 0.80684 0.4213 0.0
C1641 C 0.1798 0.80262 0.46317 0.0
C1642 C 0.19051 0.81341 0.49909 0.0
C1643 C 0.19441 0.82841 0.49362 0.0
C1644 C 0.18773 0.83269 0.45175 0.0
C1645 C 0.12571 0.84856 0.35848 0.0
C1646 C 0.13301 0.86167 0.3908 0.0
C1647 C 0.13309 0.8408 0.34417 0.0
C1648 C 0.14801 0.84631 0.36071 0.0
C1649 C 0.15515 0.85924 0.39439 0.0
C1650 C 0.14767 0.86686 0.40952 0.0
C1651 C 0.15624 0.83871 0.34221 0.0
C1652 C 0.16309 0.83439 0.3835 0.0
C1653 C 0.15705 0.8354 0.28455 0.0
C1654 C 0.15051 0.84019 0.23871 0.0
C1655 C 0.1545 0.85531 0.23282 0.0
C1656 C 0.14772 0.85959 0.19136 0.0
C1657 C 0.13703 0.84888 0.15518 0.0
C1658 C 0.13323 0.83389 0.1599 0.0
C1659 C 0.13995 0.82954 0.20138 0.0
H1660 H 0.13165 0.85217 0.12356 0.0
H1661 H 0.19581 0.81017 0.53113 0.0
H1662 H 0.39362 0.21571 0.6711 0.0
H1663 H 0.36708 0.20171 0.64517 0.0
H1664 H 0.3599 0.16751 0.76671 0.0
H1665 H 0.38652 0.18142 0.79198 0.0
H1666 H 0.34785 0.15586 0.66362 0.0
H1667 H 0.34748 0.19136 0.79375 0.0
H1668 H 0.3557 0.21648 0.83252 0.0
H1669 H 0.34329 0.22917 0.67757 0.0
H1670 H 0.33519 0.20419 0.63753 0.0
H1671 H 0.26858 0.11616 0.6627 0.0
H1672 H 0.29506 0.13069 0.68854 0.0
H1673 H 0.30116 0.1651 0.56979 0.0
H1674 H 0.27452 0.15072 0.5451 0.0
H1675 H 0.31387 0.17685 0.67043 0.0
H1676 H 0.31417 0.14153 0.54009 0.0
H1677 H 0.30606 0.11653 0.5004 0.0
H1678 H 0.31876 0.10364 0.65422 0.0
H1679 H 0.32675 0.12851 0.69518 0.0
C1680 C 0.3863 0.20526 0.69248 0.0
C1681 C 0.39197 0.19961 0.73359 0.0
C1682 C 0.37118 0.19732 0.67787 0.0
C1683 C 0.36153 0.18363 0.70433 0.0
C1684 C 0.36718 0.17807 0.74593 0.0
C1685 C 0.3823 0.18604 0.76062 0.0
C1686 C 0.34566 0.17485 0.68697 0.0
C1687 C 0.34034 0.16035 0.66586 0.0
C1688 C 0.33605 0.18092 0.68839 0.0
C1689 C 0.34086 0.19594 0.71245 0.0
C1690 C 0.34662 0.19955 0.76776 0.0
C1691 C 0.35123 0.21375 0.79 0.0
C1692 C 0.35005 0.22443 0.75748 0.0
C1693 C 0.34421 0.2209 0.70268 0.0
C1694 C 0.3396 0.20671 0.68022 0.0
C1695 C 0.27562 0.12682 0.64214 0.0
C1696 C 0.26961 0.13238 0.60204 0.0
C1697 C 0.29073 0.13505 0.6566 0.0
C1698 C 0.30009 0.14891 0.63072 0.0
C1699 C 0.29411 0.15442 0.59016 0.0
C1700 C 0.27898 0.14618 0.57577 0.0
C1701 C 0.31603 0.15783 0.64725 0.0
C1702 C 0.32137 0.17236 0.66815 0.0
C1703 C 0.32568 0.1518 0.64548 0.0
C1704 C 0.32093 0.13684 0.62089 0.0
C1705 C 0.31513 0.13333 0.56563 0.0
C1706 C 0.31057 0.11919 0.54287 0.0
C1707 C 0.31186 0.10849 0.57482 0.0
C1708 C 0.31775 0.11193 0.62955 0.0
C1709 C 0.32231 0.12605 0.65254 0.0
H1710 H 0.30833 0.09755 0.55712 0.0
H1711 H 0.35363 0.23542 0.77478 0.0
H1712 H 0.82276 0.2111 0.78888 0.0
H1713 H 0.8362 0.19808 0.76055 0.0
H1714 H 0.80144 0.17208 0.6395 0.0
H1715 H 0.78799 0.18498 0.6681 0.0
H1716 H 0.80995 0.15495 0.7018 0.0
H1717 H 0.83309 0.20068 0.59447 0.0
H1718 H 0.84582 0.22803 0.58158 0.0
H1719 H 0.88245 0.23323 0.68419 0.0
H1720 H 0.86982 0.2059 0.69844 0.0
H1721 H 0.84699 0.12527 0.54255 0.0
H1722 H 0.83434 0.13922 0.56776 0.0
H1723 H 0.8705 0.16682 0.68147 0.0
H1724 H 0.88334 0.15317 0.65498 0.0
H1725 H 0.86138 0.18328 0.62339 0.0
H1726 H 0.83848 0.13787 0.7317 0.0
H1727 H 0.82585 0.11057 0.74625 0.0
H1728 H 0.78891 0.10483 0.64427 0.0
H1729 H 0.80143 0.1321 0.62839 0.0
C1730 C 0.818 0.20251 0.75658 0.0
C1731 C 0.80444 0.199 0.73042 0.0
C1732 C 0.82568 0.19517 0.74023 0.0
C1733 C 0.81985 0.18423 0.6976 0.0
C1734 C 0.80612 0.18051 0.67239 0.0
C1735 C 0.79851 0.1879 0.6885 0.0
C1736 C 0.82809 0.1767 0.67879 0.0
C1737 C 0.82112 0.16111 0.68401 0.0
C1738 C 0.84278 0.18482 0.65678 0.0
C1739 C 0.85043 0.20125 0.648 0.0
C1740 C 0.8438 0.20766 0.61469 0.0
C1741 C 0.85101 0.22316 0.60706 0.0
C1742 C 0.86492 0.23237 0.63217 0.0
C1743 C 0.87166 0.22608 0.66484 0.0
C1744 C 0.86449 0.21059 0.67268 0.0
C1745 C 0.85229 0.13446 0.57226 0.0
C1746 C 0.86603 0.13812 0.59728 0.0
C1747 C 0.84504 0.14233 0.58695 0.0
C1748 C 0.85138 0.15389 0.62716 0.0
C1749 C 0.86538 0.1579 0.65057 0.0
C1750 C 0.87265 0.15006 0.63575 0.0
C1751 C 0.84322 0.1615 0.64623 0.0
C1752 C 0.8502 0.17711 0.64114 0.0
C1753 C 0.82856 0.1534 0.66863 0.0
C1754 C 0.82096 0.13701 0.67839 0.0
C1755 C 0.82772 0.13078 0.71201 0.0
C1756 C 0.82057 0.11531 0.72056 0.0
C1757 C 0.8066 0.10597 0.69608 0.0
C1758 C 0.79974 0.11208 0.66313 0.0
C1759 C 0.80685 0.12754 0.65437 0.0
H1760 H 0.80109 0.094 0.70276 0.0
H1761 H 0.87048 0.24436 0.62621 0.0
H1762 H 0.81912 0.61197 0.7845 0.0
H1763 H 0.8321 0.63856 0.7589 0.0
H1764 H 0.79552 0.63064 0.64854 0.0
H1765 H 0.78257 0.60405 0.67415 0.0
H1766 H 0.82219 0.64694 0.59672 0.0
H1767 H 0.80021 0.64823 0.7737 0.0
H1768 H 0.7944 0.64312 0.87525 0.0
H1769 H 0.84119 0.66869 0.91539 0.0
H1770 H 0.8473 0.67376 0.81394 0.0
H1771 H 0.84528 0.7237 0.54762 0.0
H1772 H 0.83126 0.69714 0.5737 0.0
H1773 H 0.86682 0.70375 0.68731 0.0
H1774 H 0.88075 0.73031 0.66147 0.0
H1775 H 0.84006 0.68807 0.73717 0.0
H1776 H 0.86207 0.68632 0.56023 0.0
H1777 H 0.86794 0.69135 0.45866 0.0
H1778 H 0.82111 0.66657 0.41851 0.0
H1779 H 0.81496 0.66159 0.51998 0.0
C1780 C 0.81381 0.616 0.75539 0.0
C1781 C 0.79992 0.60608 0.73111 0.0
C1782 C 0.8212 0.63114 0.74076 0.0
C1783 C 0.81472 0.63657 0.70203 0.0
C1784 C 0.80073 0.62666 0.67835 0.0
C1785 C 0.79335 0.61153 0.69297 0.0
C1786 C 0.82275 0.6525 0.68491 0.0
C1787 C 0.82591 0.65594 0.62731 0.0
C1788 C 0.82787 0.6642 0.72505 0.0
C1789 C 0.82422 0.66126 0.78614 0.0
C1790 C 0.80927 0.65267 0.80413 0.0
C1791 C 0.80592 0.64979 0.86169 0.0
C1792 C 0.81742 0.65555 0.90174 0.0
C1793 C 0.83229 0.66422 0.88431 0.0
C1794 C 0.8357 0.66711 0.82679 0.0
C1795 C 0.85014 0.71937 0.57743 0.0
C1796 C 0.8641 0.72887 0.60216 0.0
C1797 C 0.84215 0.70425 0.59242 0.0
C1798 C 0.84807 0.69846 0.63209 0.0
C1799 C 0.86206 0.708 0.65665 0.0
C1800 C 0.87001 0.7231 0.64178 0.0
C1801 C 0.83957 0.68252 0.64899 0.0
C1802 C 0.83631 0.67907 0.70656 0.0
C1803 C 0.83437 0.67081 0.60883 0.0
C1804 C 0.83805 0.67371 0.54776 0.0
C1805 C 0.85302 0.68205 0.52978 0.0
C1806 C 0.8564 0.68487 0.47222 0.0
C1807 C 0.8449 0.67931 0.43217 0.0
C1808 C 0.83001 0.67088 0.44959 0.0
C1809 C 0.82657 0.66805 0.50712 0.0
H1810 H 0.84754 0.68151 0.38763 0.0
H1811 H 0.81481 0.65331 0.94628 0.0
H1812 H 0.0611 0.50999 0.02716 0.0
H1813 H 0.03448 0.49531 0.00318 0.0
H1814 H 0.02602 0.52579 0.09995 0.0
H1815 H 0.05266 0.54035 0.12466 0.0
H1816 H 0.00372 0.49696 0.11295 0.0
H1817 H 0.03108 0.52994 0.95917 0.0
H1818 H 0.05118 0.54088 0.88783 0.0
H1819 H 0.03422 0.4978 0.80993 0.0
H1820 H 0.01416 0.48654 0.88152 0.0
H1821 H 0.93597 0.48312 0.9889 0.0
H1822 H 0.96231 0.49553 0.0173 0.0
H1823 H 0.96824 0.46336 0.92082 0.0
H1824 H 0.94183 0.45096 0.89216 0.0
H1825 H 0.99171 0.49205 0.90783 0.0
H1826 H 0.96355 0.45934 0.06035 0.0
H1827 H 0.9434 0.44878 0.13159 0.0
H1828 H 0.9618 0.49175 0.2117 0.0
H1829 H 0.98191 0.50264 0.14027 0.0
C1830 C 0.05347 0.5134 0.04371 0.0
C1831 C 0.0588 0.52632 0.07704 0.0
C1832 C 0.03833 0.50506 0.03002 0.0
C1833 C 0.02836 0.50965 0.04894 0.0
C1834 C 0.03356 0.52211 0.0848 0.0
C1835 C 0.04872 0.53041 0.09882 0.0
C1836 C 0.01273 0.50201 0.02845 0.0
C1837 C 0.00108 0.496 0.06817 0.0
C1838 C 0.00934 0.50056 0.9699 0.0
C1839 C 0.0212 0.50737 0.92604 0.0
C1840 C 0.03168 0.52278 0.92704 0.0
C1841 C 0.04307 0.52904 0.88655 0.0
C1842 C 0.044 0.52004 0.84445 0.0
C1843 C 0.0335 0.50476 0.84263 0.0
C1844 C 0.02212 0.49843 0.88314 0.0
C1845 C 0.94297 0.47881 0.97356 0.0
C1846 C 0.93702 0.46615 0.93856 0.0
C1847 C 0.95794 0.48584 0.98984 0.0
C1848 C 0.96713 0.48021 0.97178 0.0
C1849 C 0.9613 0.46784 0.93523 0.0
C1850 C 0.94629 0.46081 0.91884 0.0
C1851 C 0.9827 0.48705 0.99234 0.0
C1852 C 0.99435 0.49293 0.95261 0.0
C1853 C 0.98608 0.48843 0.05087 0.0
C1854 C 0.97418 0.48183 0.09464 0.0
C1855 C 0.96325 0.46656 0.09294 0.0
C1856 C 0.95184 0.46051 0.13336 0.0
C1857 C 0.9513 0.4696 0.17608 0.0
C1858 C 0.96222 0.48473 0.17855 0.0
C1859 C 0.97363 0.49085 0.13812 0.0
H1860 H 0.94245 0.4649 0.20732 0.0
H1861 H 0.05283 0.5249 0.81317 0.0
H1862 H 0.45636 0.51931 0.99364 0.0
H1863 H 0.47024 0.50673 0.96681 0.0
H1864 H 0.50489 0.53386 0.08653 0.0
H1865 H 0.49098 0.54654 0.11331 0.0
H1866 H 0.51579 0.53164 0.97946 0.0
H1867 H 0.48173 0.49958 0.12151 0.0
H1868 H 0.45713 0.48457 0.16714 0.0
H1869 H 0.44081 0.45628 0.02059 0.0
H1870 H 0.46526 0.47128 0.97367 0.0
H1871 H 0.55157 0.48783 0.97993 0.0
H1872 H 0.53914 0.50194 0.00559 0.0
H1873 H 0.5018 0.47322 0.89837 0.0
H1874 H 0.51411 0.45888 0.8738 0.0
H1875 H 0.49265 0.47663 0.00129 0.0
H1876 H 0.52651 0.50872 0.85857 0.0
H1877 H 0.55098 0.52383 0.81207 0.0
H1878 H 0.5676 0.55207 0.95863 0.0
H1879 H 0.54328 0.53699 0.00637 0.0
C1880 C 0.46696 0.52258 0.01402 0.0
C1881 C 0.47266 0.5338 0.05552 0.0
C1882 C 0.47483 0.51539 0.99889 0.0
C1883 C 0.48852 0.51933 0.02502 0.0
C1884 C 0.49433 0.53068 0.06602 0.0
C1885 C 0.48638 0.53782 0.08147 0.0
C1886 C 0.49664 0.51144 0.00953 0.0
C1887 C 0.51086 0.51965 0.98495 0.0
C1888 C 0.48999 0.49576 0.01562 0.0
C1889 C 0.47529 0.48665 0.04386 0.0
C1890 C 0.47286 0.49024 0.0988 0.0
C1891 C 0.45895 0.48172 0.12494 0.0
C1892 C 0.4474 0.4695 0.09673 0.0
C1893 C 0.44976 0.46576 0.04237 0.0
C1894 C 0.46365 0.47426 0.016 0.0
C1895 C 0.54073 0.48461 0.96184 0.0
C1896 C 0.53371 0.4723 0.92519 0.0
C1897 C 0.53369 0.4927 0.97616 0.0
C1898 C 0.51959 0.48867 0.95359 0.0
C1899 C 0.51268 0.4765 0.91621 0.0
C1900 C 0.51973 0.4684 0.90193 0.0
C1901 C 0.5118 0.4968 0.97071 0.0
C1902 C 0.49762 0.48863 0.99576 0.0
C1903 C 0.51849 0.51251 0.96493 0.0
C1904 C 0.53312 0.52163 0.93626 0.0
C1905 C 0.53542 0.51808 0.88108 0.0
C1906 C 0.54926 0.52665 0.85446 0.0
C1907 C 0.56085 0.53888 0.88244 0.0
C1908 C 0.55862 0.54258 0.93704 0.0
C1909 C 0.54481 0.53403 0.96389 0.0
H1910 H 0.57156 0.54551 0.86175 0.0
H1911 H 0.43663 0.46291 0.11704 0.0
H1912 H 0.54167 0.05506 0.86948 0.0
H1913 H 0.52883 0.02847 0.89537 0.0
H1914 H 0.50012 0.03546 0.00884 0.0
H1915 H 0.51292 0.062 0.98282 0.0
H1916 H 0.51224 0.02037 0.05938 0.0
H1917 H 0.487 0.01759 0.88503 0.0
H1918 H 0.48523 0.02186 0.78337 0.0
H1919 H 0.50656 0.99646 0.74222 0.0
H1920 H 0.50869 0.99225 0.84374 0.0
H1921 H 0.45903 0.94455 0.11925 0.0
H1922 H 0.47183 0.9709 0.09051 0.0
H1923 H 0.49845 0.96241 0.97138 0.0
H1924 H 0.48546 0.93601 -0.00041 0.0
H1925 H 0.48777 0.9783 0.92329 0.0
H1926 H 0.51329 0.98111 0.09612 0.0
H1927 H 0.51537 0.97677 0.19749 0.0
H1928 H 0.49412 0.00209 0.24113 0.0
H1929 H 0.4917 0.0064 0.13994 0.0
C1930 C 0.53247 0.05081 0.89929 0.0
C1931 C 0.52828 0.06047 0.92453 0.0
C1932 C 0.52517 0.03568 0.91408 0.0
C1933 C 0.51352 0.03002 0.95397 0.0
C1934 C 0.50913 0.03964 0.9782 0.0
C1935 C 0.51641 0.05474 0.96337 0.0
C1936 C 0.50626 0.01421 0.97215 0.0
C1937 C 0.50671 0.01116 0.02977 0.0
C1938 C 0.49945 0.00224 0.93316 0.0
C1939 C 0.49815 0.00475 0.87206 0.0
C1940 C 0.49144 0.01303 0.85435 0.0
C1941 C 0.49036 0.01542 0.79673 0.0
C1942 C 0.49582 0.00947 0.75636 0.0
C1943 C 0.50236 0.00109 0.77353 0.0
C1944 C 0.50351 0.99869 0.83111 0.0
C1945 C 0.46777 0.94842 0.08756 0.0
C1946 C 0.4714 0.93841 0.06177 0.0
C1947 C 0.47506 0.96342 0.07113 0.0
C1948 C 0.4862 0.96864 0.02917 0.0
C1949 C 0.48989 0.95862 0.00379 0.0
C1950 C 0.48254 0.94361 0.01997 0.0
C1951 C 0.4937 0.98446 0.0106 0.0
C1952 C 0.49332 0.98751 0.95291 0.0
C1953 C 0.50065 0.99644 0.04948 0.0
C1954 C 0.50219 0.99396 0.11041 0.0
C1955 C 0.50896 0.98566 0.12731 0.0
C1956 C 0.51022 0.98322 0.18474 0.0
C1957 C 0.50485 0.98912 0.22572 0.0
C1958 C 0.49826 0.99751 0.20934 0.0
C1959 C 0.49695 -3e-05 0.15195 0.0
H1960 H 0.50584 0.98722 0.27016 0.0
H1961 H 0.49496 0.01133 0.71178 0.0
H1962 H 0.15029 0.23799 0.68119 0.0
H1963 H 0.15114 0.23801 0.78483 0.0
H1964 H 0.1042 0.22422 0.79094 0.0
H1965 H 0.10338 0.22465 0.68818 0.0
H1966 H 0.11815 0.24355 0.87075 0.0
H1967 H 0.11773 0.19905 0.80163 0.0
H1968 H 0.1276 0.18546 0.74726 0.0
H1969 H 0.16861 0.20758 0.84162 0.0
H1970 H 0.15904 0.22145 0.89607 0.0
H1971 H 0.08729 0.20078 0.1131 0.0
H1972 H 0.09537 0.20666 0.01475 0.0
H1973 H 0.14145 0.2304 0.06829 0.0
H1974 H 0.13346 0.22508 0.16724 0.0
H1975 H 0.1331 0.20989 0.96388 0.0
H1976 H 0.13063 0.25166 0.04247 0.0
H1977 H 0.11877 0.26324 0.09748 0.0
H1978 H 0.08121 0.24431 0.98423 0.0
H1979 H 0.09273 0.2324 0.9291 0.0
C1980 C 0.14022 0.23518 0.70471 0.0
C1981 C 0.12674 0.23119 0.67644 0.0
C1982 C 0.1407 0.23511 0.76391 0.0
C1983 C 0.12767 0.23086 0.79566 0.0
C1984 C 0.1144 0.22753 0.76742 0.0
C1985 C 0.11394 0.22773 0.70852 0.0
C1986 C 0.12744 0.22914 0.85806 0.0
C1987 C 0.12145 0.23621 0.89098 0.0
C1988 C 0.13203 0.2198 0.88485 0.0
C1989 C 0.13775 0.21141 0.85239 0.0
C1990 C 0.12889 0.20109 0.81048 0.0
C1991 C 0.13443 0.19333 0.7797 0.0
C1992 C 0.14874 0.19569 0.79085 0.0
C1993 C 0.15754 0.20579 0.83294 0.0
C1994 C 0.15206 0.2136 0.86378 0.0
C1995 C 0.09916 0.20706 0.104 0.0
C1996 C 0.10972 0.21226 0.14803 0.0
C1997 C 0.10375 0.21038 0.04784 0.0
C1998 C 0.11898 0.21897 0.03456 0.0
C1999 C 0.12965 0.22364 0.07793 0.0
C2000 C 0.12505 0.22043 0.13444 0.0
C2001 C 0.12345 0.22396 0.97562 0.0
C2002 C 0.13018 0.21752 0.94358 0.0
C2003 C 0.11936 0.23371 0.94937 0.0
C2004 C 0.11251 0.24106 0.9819 0.0
C2005 C 0.11979 0.24988 0.02955 0.0
C2006 C 0.11314 0.25651 0.06071 0.0
C2007 C 0.09923 0.2545 0.04441 0.0
C2008 C 0.09198 0.24586 0.99682 0.0
C2009 C 0.09857 0.23918 0.96556 0.0
H2010 H 0.0941 0.25964 0.06861 0.0
H2011 H 0.15301 0.18967 0.76697 0.0
H2012 H 0.7606 0.87864 0.67565 0.0
H2013 H 0.7611 0.87922 0.77906 0.0
H2014 H 0.782 0.92735 0.7758 0.0
H2015 H 0.78152 0.92688 0.67231 0.0
H2016 H 0.79718 0.91749 0.84218 0.0
H2017 H 0.74706 0.90749 0.82243 0.0
H2018 H 0.7212 0.89457 0.78623 0.0
H2019 H 0.71355 0.85342 0.86119 0.0
H2020 H 0.73945 0.86604 0.89716 0.0
H2021 H 0.7971 0.91808 0.14436 0.0
H2022 H 0.7928 0.92248 0.04623 0.0
H2023 H 0.76762 0.87484 0.01736 0.0
H2024 H 0.77126 0.87037 0.11576 0.0
H2025 H 0.75394 0.88786 0.96912 0.0
H2026 H 0.80451 0.89657 0.97624 0.0
H2027 H 0.83058 0.90872 0.01011 0.0
H2028 H 0.83748 0.95151 0.95679 0.0
H2029 H 0.81136 0.93962 0.92325 0.0
C2030 C 0.76508 0.88933 0.69693 0.0
C2031 C 0.77104 0.90271 0.66582 0.0
C2032 C 0.76531 0.88964 0.75602 0.0
C2033 C 0.77154 0.90333 0.78505 0.0
C2034 C 0.77712 0.91668 0.75416 0.0
C2035 C 0.77677 0.91637 0.69503 0.0
C2036 C 0.77321 0.90368 0.84738 0.0
C2037 C 0.7877 0.91129 0.87017 0.0
C2038 C 0.76086 0.89534 0.88357 0.0
C2039 C 0.74525 0.8877 0.86217 0.0
C2040 C 0.73991 0.89566 0.83084 0.0
C2041 C 0.72523 0.88839 0.81042 0.0
C2042 C 0.71575 0.87318 0.82132 0.0
C2043 C 0.72091 0.86521 0.85276 0.0
C2044 C 0.73559 0.87241 0.87325 0.0
C2045 C 0.79035 0.90855 0.11758 0.0
C2046 C 0.78431 0.89387 0.13824 0.0
C2047 C 0.78807 0.91108 0.0612 0.0
C2048 C 0.77992 0.89898 0.02435 0.0
C2049 C 0.77387 0.88435 0.04503 0.0
C2050 C 0.77608 0.88182 0.10124 0.0
C2051 C 0.77795 0.90138 0.96377 0.0
C2052 C 0.7634 0.89428 0.94129 0.0
C2053 C 0.79025 0.91009 0.92774 0.0
C2054 C 0.80594 0.91724 0.94793 0.0
C2055 C 0.81155 0.90859 0.9722 0.0
C2056 C 0.82634 0.91542 0.99124 0.0
C2057 C 0.83567 0.93088 0.98579 0.0
C2058 C 0.83023 0.93954 0.96112 0.0
C2059 C 0.81544 0.93276 0.94207 0.0
H2060 H 0.84712 0.93615 0.00054 0.0
H2061 H 0.70439 0.86758 0.80548 0.0
H2062 H 0.0717 0.85077 0.67051 0.0
H2063 H 0.07203 0.85097 0.77407 0.0
H2064 H 0.11828 0.88604 0.77204 0.0
H2065 H 0.1181 0.88583 0.66879 0.0
H2066 H 0.11338 0.8664 0.85533 0.0
H2067 H 0.09104 0.8947 0.78619 0.0
H2068 H 0.07308 0.89988 0.73663 0.0
H2069 H 0.03689 0.86505 0.83124 0.0
H2070 H 0.05464 0.85959 0.88109 0.0
H2071 H 0.10455 0.90989 0.10164 0.0
H2072 H 0.10118 0.90196 0.00268 0.0
H2073 H 0.0957 0.85929 0.05307 0.0
H2074 H 0.09944 0.86738 0.15231 0.0
H2075 H 0.07831 0.87952 0.94782 0.0
H2076 H 0.11209 0.84877 0.94607 0.0
H2077 H 0.13287 0.84876 0.99776 0.0
H2078 H 0.15017 0.89478 0.04355 0.0
H2079 H 0.12962 0.89512 0.99155 0.0
C2080 C 0.08201 0.85834 0.69211 0.0
C2081 C 0.09484 0.8684 0.6615 0.0
C2082 C 0.08216 0.85848 0.75126 0.0
C2083 C 0.09512 0.86865 0.78063 0.0
C2084 C 0.10815 0.87811 0.75016 0.0
C2085 C 0.10801 0.87802 0.69114 0.0
C2086 C 0.09492 0.87028 0.84279 0.0
C2087 C 0.10559 0.86907 0.87572 0.0
C2088 C 0.08491 0.874 0.86922 0.0
C2089 C 0.07414 0.87662 0.83681 0.0
C2090 C 0.07923 0.888 0.79581 0.0
C2091 C 0.0691 0.89103 0.76788 0.0
C2092 C 0.05386 0.88281 0.78089 0.0
C2093 C 0.0487 0.87142 0.8213 0.0
C2094 C 0.05878 0.86835 0.84938 0.0
C2095 C 0.10248 0.89877 0.09155 0.0
C2096 C 0.10192 0.88911 0.13444 0.0
C2097 C 0.10051 0.89424 0.03517 0.0
C2098 C 0.09817 0.88004 0.02063 0.0
C2099 C 0.0975 0.87029 0.06348 0.0
C2100 C 0.09943 0.87484 0.12007 0.0
C2101 C 0.09683 0.87576 0.96028 0.0
C2102 C 0.08584 0.87644 0.92771 0.0
C2103 C 0.10682 0.87198 0.93406 0.0
C2104 C 0.11921 0.8719 0.96555 0.0
C2105 C 0.12034 0.85889 0.96713 0.0
C2106 C 0.13209 0.85883 0.99638 0.0
C2107 C 0.14282 0.87176 0.02394 0.0
C2108 C 0.14183 0.88477 0.02231 0.0
C2109 C 0.13012 0.88489 0.99303 0.0
H2110 H 0.1519 0.87169 0.04659 0.0
H2111 H 0.04606 0.88531 0.75986 0.0
H2112 H 0.22035 0.12912 0.83933 0.0
H2113 H 0.22313 0.13666 0.93867 0.0
H2114 H 0.20093 0.09025 0.98917 0.0
H2115 H 0.19735 0.08266 0.89013 0.0
H2116 H 0.19223 0.10475 0.05461 0.0
H2117 H 0.23994 0.11309 0.98418 0.0
H2118 H 0.26185 0.12427 0.92068 0.0
H2119 H 0.27232 0.16828 0.97346 0.0
H2120 H 0.25035 0.15735 0.03677 0.0
H2121 H 0.22036 0.10008 0.316 0.0
H2122 H 0.21816 0.10062 0.21349 0.0
H2123 H 0.23026 0.14707 0.22099 0.0
H2124 H 0.23233 0.14664 0.32443 0.0
H2125 H 0.24381 0.1372 0.12694 0.0
H2126 H 0.19697 0.12715 0.20899 0.0
H2127 H 0.17577 0.11444 0.27517 0.0
H2128 H 0.16425 0.07197 0.20158 0.0
H2129 H 0.18554 0.0844 0.13556 0.0
C2130 C 0.21556 0.12051 0.87148 0.0
C2131 C 0.20834 0.10527 0.85688 0.0
C2132 C 0.2174 0.12485 0.92834 0.0
C2133 C 0.21238 0.11403 0.97141 0.0
C2134 C 0.20486 0.09881 0.95673 0.0
C2135 C 0.20288 0.09449 0.9001 0.0
C2136 C 0.21548 0.11831 0.03189 0.0
C2137 C 0.20351 0.11186 0.07028 0.0
C2138 C 0.23017 0.12785 0.05242 0.0
C2139 C 0.24341 0.13442 0.01463 0.0
C2140 C 0.24686 0.12515 0.98192 0.0
C2141 C 0.25929 0.13144 0.94601 0.0
C2142 C 0.26844 0.14698 0.94289 0.0
C2143 C 0.2652 0.15625 0.97582 0.0
C2144 C 0.25277 0.15002 0.01172 0.0
C2145 C 0.22279 0.1105 0.29603 0.0
C2146 C 0.22636 0.12328 0.32846 0.0
C2147 C 0.22151 0.11077 0.23743 0.0
C2148 C 0.22389 0.12383 0.21009 0.0
C2149 C 0.22835 0.13689 0.24165 0.0
C2150 C 0.22949 0.1366 0.30062 0.0
C2151 C 0.22061 0.12329 0.14908 0.0
C2152 C 0.23251 0.13041 0.11086 0.0
C2153 C 0.2059 0.1142 0.12862 0.0
C2154 C 0.19291 0.10671 0.16757 0.0
C2155 C 0.18998 0.11509 0.20718 0.0
C2156 C 0.17794 0.10794 0.24463 0.0
C2157 C 0.16868 0.09241 0.24263 0.0
C2158 C 0.17143 0.084 0.20307 0.0
C2159 C 0.18347 0.0911 0.16558 0.0
H2160 H 0.15937 0.08689 0.27168 0.0
H2161 H 0.27806 0.15183 0.91508 0.0
H2162 H 0.91291 0.11241 0.8874 0.0
H2163 H 0.90508 0.10766 0.986 0.0
H2164 H 0.85879 0.08522 0.93416 0.0
H2165 H 0.86663 0.09077 0.8352 0.0
H2166 H 0.86261 0.10323 0.01721 0.0
H2167 H 0.87494 0.06534 0.99073 0.0
H2168 H 0.88966 0.05376 0.96004 0.0
H2169 H 0.9252 0.0824 0.07264 0.0
H2170 H 0.91081 0.09431 0.10343 0.0
H2171 H 0.84872 0.08411 0.31979 0.0
H2172 H 0.84845 0.0816 0.21633 0.0
H2173 H 0.89555 0.11404 0.21058 0.0
H2174 H 0.89593 0.11682 0.31299 0.0
H2175 H 0.88604 0.08511 0.15592 0.0
H2176 H 0.87368 0.12504 0.16884 0.0
H2177 H 0.85781 0.13534 0.19953 0.0
H2178 H 0.82025 0.1 0.11234 0.0
H2179 H 0.83587 0.08937 0.0818 0.0
C2180 C 0.90106 0.10631 0.89693 0.0
C2181 C 0.8904 0.1016 0.85342 0.0
C2182 C 0.89658 0.10348 0.95333 0.0
C2183 C 0.88132 0.09574 0.96753 0.0
C2184 C 0.87061 0.091 0.92416 0.0
C2185 C 0.87511 0.09397 0.86753 0.0
C2186 C 0.87679 0.09357 0.02794 0.0
C2187 C 0.86745 0.09892 0.04733 0.0
C2188 C 0.88307 0.08793 0.06741 0.0
C2189 C 0.8918 0.08077 0.04921 0.0
C2190 C 0.88594 0.06924 0.0087 0.0
C2191 C 0.89422 0.06261 0.99131 0.0
C2192 C 0.90836 0.06735 0.01433 0.0
C2193 C 0.91424 0.07873 0.05486 0.0
C2194 C 0.90601 0.08541 0.07237 0.0
C2195 C 0.85895 0.09087 0.29634 0.0
C2196 C 0.87236 0.10061 0.32462 0.0
C2197 C 0.85877 0.0894 0.2374 0.0
C2198 C 0.87201 0.09755 0.20624 0.0
C2199 C 0.88525 0.10759 0.23414 0.0
C2200 C 0.88542 0.10921 0.29268 0.0
C2201 C 0.87245 0.09532 0.14475 0.0
C2202 C 0.88097 0.08907 0.12538 0.0
C2203 C 0.86522 0.09987 0.10542 0.0
C2204 C 0.85588 0.1063 0.1237 0.0
C2205 C 0.862 0.11938 0.15672 0.0
C2206 C 0.85306 0.1253 0.17396 0.0
C2207 C 0.83801 0.1183 0.15807 0.0
C2208 C 0.83189 0.10539 0.12474 0.0
C2209 C 0.84079 0.09942 0.10743 0.0
H2210 H 0.83111 0.1229 0.17145 0.0
H2211 H 0.91476 0.0622 0.0008 0.0
H2212 H 0.90985 0.76048 0.32618 0.0
H2213 H 0.90965 0.75894 0.22246 0.0
H2214 H 0.88943 0.78682 0.21374 0.0
H2215 H 0.8887 0.78746 0.3163 0.0
H2216 H 0.87576 0.76569 0.14566 0.0
H2217 H 0.93145 0.79999 0.17437 0.0
H2218 H 0.95623 0.80547 0.20981 0.0
H2219 H 0.94921 0.76388 0.14206 0.0
H2220 H 0.92468 0.75843 0.1043 0.0
H2221 H 0.89164 0.80392 0.89332 0.0
H2222 H 0.89388 0.79769 0.99109 0.0
H2223 H 0.90304 0.76344 0.93331 0.0
H2224 H 0.90055 0.76945 0.83503 0.0
H2225 H 0.92093 0.78056 0.02848 0.0
H2226 H 0.86986 0.75166 0.97411 0.0
H2227 H 0.84624 0.74714 0.93063 0.0
H2228 H 0.8438 0.77755 0.04829 0.0
H2229 H 0.86754 0.78245 0.09193 0.0
C2230 C 0.90532 0.76619 0.30179 0.0
C2231 C 0.89911 0.77393 0.32913 0.0
C2232 C 0.90536 0.76546 0.24252 0.0
C2233 C 0.89964 0.77287 0.20986 0.0
C2234 C 0.89376 0.78084 0.23765 0.0
C2235 C 0.89334 0.78121 0.29643 0.0
C2236 C 0.89914 0.77219 0.14692 0.0
C2237 C 0.8857 0.76904 0.12028 0.0
C2238 C 0.91178 0.77565 0.11297 0.0
C2239 C 0.92623 0.77873 0.13728 0.0
C2240 C 0.93519 0.79199 0.16741 0.0
C2241 C 0.94918 0.79511 0.18772 0.0
C2242 C 0.95419 0.78495 0.17896 0.0
C2243 C 0.94529 0.77171 0.14911 0.0
C2244 C 0.93141 0.76865 0.12787 0.0
C2245 C 0.89435 0.7952 0.90133 0.0
C2246 C 0.89608 0.78729 0.85642 0.0
C2247 C 0.89561 0.79165 0.95715 0.0
C2248 C 0.89847 0.78001 0.96924 0.0
C2249 C 0.90088 0.7725 0.92466 0.0
C2250 C 0.89959 0.77605 0.86851 0.0
C2251 C 0.89794 0.77526 0.02864 0.0
C2252 C 0.91101 0.77708 0.05412 0.0
C2253 C 0.88493 0.77054 0.0617 0.0
C2254 C 0.87052 0.76747 0.03612 0.0
C2255 C 0.86433 0.75746 0.9905 0.0
C2256 C 0.85092 0.75482 0.96584 0.0
C2257 C 0.84353 0.76206 0.98664 0.0
C2258 C 0.84953 0.77194 0.03223 0.0
C2259 C 0.86296 0.77463 0.057 0.0
H2260 H 0.83315 0.76001 0.96748 0.0
H2261 H 0.965 0.78738 0.19495 0.0
H2262 H 0.81685 0.57005 0.01007 0.0
H2263 H 0.81775 0.57032 0.11369 0.0
H2264 H 0.77146 0.55897 0.11976 0.0
H2265 H 0.7706 0.55913 0.01694 0.0
H2266 H 0.78627 0.57826 0.19912 0.0
H2267 H 0.78277 0.53226 0.13159 0.0
H2268 H 0.79119 0.51736 0.07759 0.0
H2269 H 0.83244 0.53757 0.17073 0.0
H2270 H 0.82432 0.55274 0.2248 0.0
H2271 H 0.7539 0.53505 0.44119 0.0
H2272 H 0.76219 0.54095 0.34304 0.0
H2273 H 0.80815 0.56479 0.39796 0.0
H2274 H 0.79996 0.55958 0.49665 0.0
H2275 H 0.7987 0.54283 0.29329 0.0
H2276 H 0.79919 0.58648 0.36986 0.0
H2277 H 0.78848 0.59926 0.42438 0.0
H2278 H 0.75053 0.58129 0.31308 0.0
H2279 H 0.76091 0.56819 0.25846 0.0
C2280 C 0.80694 0.56783 0.03356 0.0
C2281 C 0.79362 0.56443 0.00529 0.0
C2282 C 0.80745 0.56791 0.09274 0.0
C2283 C 0.7946 0.56441 0.12448 0.0
C2284 C 0.78152 0.56169 0.09622 0.0
C2285 C 0.78103 0.56173 0.03731 0.0
C2286 C 0.79432 0.56279 0.18691 0.0
C2287 C 0.78904 0.57054 0.2196 0.0
C2288 C 0.79818 0.55291 0.21395 0.0
C2289 C 0.80302 0.54376 0.18169 0.0
C2290 C 0.79368 0.5336 0.14024 0.0
C2291 C 0.79839 0.5251 0.10968 0.0
C2292 C 0.81236 0.52656 0.12059 0.0
C2293 C 0.82163 0.53648 0.16223 0.0
C2294 C 0.81698 0.54503 0.19285 0.0
C2295 C 0.76579 0.54138 0.43248 0.0
C2296 C 0.77626 0.54659 0.47684 0.0
C2297 C 0.77049 0.54471 0.37642 0.0
C2298 C 0.78575 0.55326 0.36359 0.0
C2299 C 0.79632 0.55802 0.4073 0.0
C2300 C 0.7916 0.55486 0.46368 0.0
C2301 C 0.79035 0.55803 0.30461 0.0
C2302 C 0.79635 0.55084 0.27276 0.0
C2303 C 0.78695 0.56824 0.27807 0.0
C2304 C 0.78078 0.57626 0.31036 0.0
C2305 C 0.78851 0.58515 0.35731 0.0
C2306 C 0.78251 0.59247 0.38818 0.0
C2307 C 0.76882 0.59106 0.37227 0.0
C2308 C 0.76113 0.58236 0.32537 0.0
C2309 C 0.76707 0.575 0.29441 0.0
H2310 H 0.76419 0.59674 0.39623 0.0
H2311 H 0.81599 0.51997 0.09688 0.0
H2312 H 0.43485 0.20251 0.46127 0.0
H2313 H 0.43144 0.20668 0.36214 0.0
H2314 H 0.45999 0.25425 0.38505 0.0
H2315 H 0.46334 0.25013 0.48504 0.0
H2316 H 0.43579 0.24744 0.31498 0.0
H2317 H 0.47448 0.23494 0.32912 0.0
H2318 H 0.48602 0.22019 0.35992 0.0
H2319 H 0.45212 0.18175 0.27181 0.0
H2320 H 0.44025 0.19622 0.24116 0.0
H2321 H 0.45221 0.26043 0.0166 0.0
H2322 H 0.45211 0.25972 0.12002 0.0
H2323 H 0.42594 0.2115 0.1156 0.0
H2324 H 0.42629 0.2121 0.01235 0.0
H2325 H 0.45033 0.22066 0.17739 0.0
H2326 H 0.41154 0.23362 0.16352 0.0
H2327 H 0.40063 0.2489 0.13215 0.0
H2328 H 0.43553 0.28717 0.21776 0.0
H2329 H 0.44676 0.27215 0.24904 0.0
C2330 C 0.44031 0.21388 0.44533 0.0
C2331 C 0.44937 0.226 0.48075 0.0
C2332 C 0.43834 0.21624 0.38876 0.0
C2333 C 0.44564 0.23075 0.36613 0.0
C2334 C 0.45425 0.24297 0.40183 0.0
C2335 C 0.45613 0.24061 0.45887 0.0
C2336 C 0.44496 0.23288 0.30448 0.0
C2337 C 0.43913 0.24176 0.28473 0.0
C2338 C 0.44923 0.22535 0.26521 0.0
C2339 C 0.45641 0.21664 0.28324 0.0
C2340 C 0.46943 0.22331 0.31665 0.0
C2341 C 0.47604 0.215 0.33403 0.0
C2342 C 0.46979 0.20003 0.31793 0.0
C2343 C 0.45694 0.19334 0.28429 0.0
C2344 C 0.45027 0.2016 0.26685 0.0
C2345 C 0.44618 0.24969 0.03768 0.0
C2346 C 0.4394 0.2363 0.00641 0.0
C2347 C 0.44609 0.24931 0.09683 0.0
C2348 C 0.43904 0.23556 0.12552 0.0
C2349 C 0.43153 0.22224 0.09427 0.0
C2350 C 0.43173 0.22259 0.03529 0.0
C2351 C 0.44071 0.23485 0.18754 0.0
C2352 C 0.44692 0.22633 0.20743 0.0
C2353 C 0.43688 0.24279 0.22659 0.0
C2354 C 0.43007 0.25179 0.20817 0.0
C2355 C 0.41695 0.24532 0.1753 0.0
C2356 C 0.4107 0.25393 0.1576 0.0
C2357 C 0.41741 0.26901 0.17282 0.0
C2358 C 0.43035 0.27549 0.20594 0.0
C2359 C 0.43666 0.26693 0.22372 0.0
H2360 H 0.41255 0.27566 0.15906 0.0
H2361 H 0.47493 0.19362 0.33144 0.0
H2362 H 0.75111 0.21477 0.48473 0.0
H2363 H 0.74945 0.2075 0.38517 0.0
H2364 H 0.79758 0.23309 0.37176 0.0
H2365 H 0.79924 0.24055 0.47071 0.0
H2366 H 0.78547 0.23906 0.28646 0.0
H2367 H 0.77788 0.19405 0.37617 0.0
H2368 H 0.76587 0.17269 0.44201 0.0
H2369 H 0.72378 0.15706 0.35776 0.0
H2370 H 0.73549 0.17846 0.29188 0.0
H2371 H 0.79042 0.21634 0.0123 0.0
H2372 H 0.79293 0.21811 0.1153 0.0
H2373 H 0.74488 0.19425 0.13245 0.0
H2374 H 0.74227 0.19204 0.02965 0.0
H2375 H 0.75753 0.18678 0.21621 0.0
H2376 H 0.76484 0.23264 0.13129 0.0
H2377 H 0.77674 0.25406 0.06562 0.0
H2378 H 0.81948 0.26812 0.14214 0.0
H2379 H 0.80785 0.24666 0.20781 0.0
C2380 C 0.76132 0.21862 0.46074 0.0
C2381 C 0.77531 0.22809 0.48547 0.0
C2382 C 0.76038 0.21447 0.40387 0.0
C2383 C 0.77342 0.2196 0.37116 0.0
C2384 C 0.78738 0.229 0.39612 0.0
C2385 C 0.78831 0.23326 0.45261 0.0
C2386 C 0.77256 0.21582 0.31022 0.0
C2387 C 0.77957 0.2276 0.27127 0.0
C2388 C 0.76457 0.2009 0.29022 0.0
C2389 C 0.75754 0.18793 0.32939 0.0
C2390 C 0.76604 0.18612 0.37191 0.0
C2391 C 0.75929 0.174 0.40921 0.0
C2392 C 0.74406 0.16355 0.40415 0.0
C2393 C 0.73557 0.16517 0.36166 0.0
C2394 C 0.74226 0.17729 0.32429 0.0
C2395 C 0.78039 0.21123 0.03806 0.0
C2396 C 0.76615 0.20424 0.0129 0.0
C2397 C 0.78184 0.21229 0.09687 0.0
C2398 C 0.76909 0.20663 0.13143 0.0
C2399 C 0.75487 0.19876 0.10655 0.0
C2400 C 0.7534 0.19754 0.04775 0.0
C2401 C 0.77051 0.21002 0.1928 0.0
C2402 C 0.76355 0.19821 0.23167 0.0
C2403 C 0.77855 0.22493 0.21292 0.0
C2404 C 0.7855 0.23797 0.17408 0.0
C2405 C 0.77679 0.24026 0.1339 0.0
C2406 C 0.78348 0.25241 0.0967 0.0
C2407 C 0.79886 0.26243 0.09961 0.0
C2408 C 0.80757 0.26034 0.13988 0.0
C2409 C 0.80094 0.2482 0.17713 0.0
H2410 H 0.80403 0.27181 0.07072 0.0
H2411 H 0.73886 0.15417 0.43308 0.0
H2412 H 0.88854 0.43475 0.65113 0.0
H2413 H 0.88965 0.43617 0.54851 0.0
H2414 H 0.90418 0.48329 0.55622 0.0
H2415 H 0.90253 0.48181 0.65972 0.0
H2416 H 0.88345 0.47098 0.48096 0.0
H2417 H 0.92823 0.47037 0.51221 0.0
H2418 H 0.94523 0.46254 0.55299 0.0
H2419 H 0.91914 0.41902 0.47843 0.0
H2420 H 0.90185 0.4265 0.43788 0.0
H2421 H 0.89386 0.46575 0.17262 0.0
H2422 H 0.89975 0.47374 0.27127 0.0
H2423 H 0.87129 0.42826 0.32638 0.0
H2424 H 0.86469 0.42025 0.22841 0.0
H2425 H 0.90434 0.44575 0.36451 0.0
H2426 H 0.85747 0.44708 0.34898 0.0
H2427 H 0.84191 0.45648 0.30659 0.0
H2428 H 0.87518 0.50152 0.34909 0.0
H2429 H 0.89104 0.49237 0.39103 0.0
C2430 C 0.89218 0.44549 0.6312 0.0
C2431 C 0.89544 0.45817 0.66361 0.0
C2432 C 0.8929 0.44631 0.57233 0.0
C2433 C 0.89724 0.4599 0.54446 0.0
C2434 C 0.90085 0.47269 0.57676 0.0
C2435 C 0.89995 0.47184 0.63587 0.0
C2436 C 0.89687 0.46028 0.48168 0.0
C2437 C 0.88835 0.46579 0.45548 0.0
C2438 C 0.90329 0.45359 0.44805 0.0
C2439 C 0.91369 0.449 0.47218 0.0
C2440 C 0.92606 0.4591 0.50479 0.0
C2441 C 0.93575 0.45472 0.52783 0.0
C2442 C 0.93326 0.44029 0.51835 0.0
C2443 C 0.92106 0.4302 0.48572 0.0
C2444 C 0.91132 0.43452 0.4626 0.0
C2445 C 0.88835 0.45752 0.20553 0.0
C2446 C 0.87852 0.44237 0.19242 0.0
C2447 C 0.89193 0.4621 0.26192 0.0
C2448 C 0.88595 0.45156 0.30572 0.0
C2449 C 0.87602 0.43653 0.29292 0.0
C2450 C 0.87226 0.43199 0.23692 0.0
C2451 C 0.89048 0.45584 0.36507 0.0
C2452 C 0.89981 0.45126 0.39026 0.0
C2453 C 0.88508 0.46363 0.39745 0.0
C2454 C 0.87553 0.46907 0.37236 0.0
C2455 C 0.86154 0.459 0.34869 0.0
C2456 C 0.85265 0.46428 0.3249 0.0
C2457 C 0.85758 0.4796 0.32494 0.0
C2458 C 0.8714 0.48966 0.34895 0.0
C2459 C 0.88033 0.48444 0.37275 0.0
H2460 H 0.85068 0.48366 0.30652 0.0
H2461 H 0.94078 0.43692 0.53624 0.0
H2462 H 0.56285 0.45198 0.64104 0.0
H2463 H 0.56202 0.45189 0.53847 0.0
H2464 H 0.51438 0.42131 0.54265 0.0
H2465 H 0.51523 0.42091 0.64638 0.0
H2466 H 0.5265 0.41219 0.46772 0.0
H2467 H 0.52916 0.45855 0.5005 0.0
H2468 H 0.53787 0.48337 0.54312 0.0
H2469 H 0.5816 0.49923 0.47266 0.0
H2470 H 0.57323 0.47445 0.43029 0.0
H2471 H 0.53308 0.42687 0.16144 0.0
H2472 H 0.5251 0.42459 0.26023 0.0
H2473 H 0.57105 0.44488 0.31434 0.0
H2474 H 0.57909 0.44662 0.21613 0.0
H2475 H 0.55406 0.45873 0.35477 0.0
H2476 H 0.55068 0.40994 0.33507 0.0
H2477 H 0.54075 0.38503 0.29155 0.0
H2478 H 0.49603 0.37412 0.33526 0.0
H2479 H 0.5057 0.39907 0.37835 0.0
C2480 C 0.55213 0.44536 0.6204 0.0
C2481 C 0.5391 0.43646 0.65194 0.0
C2482 C 0.55166 0.4454 0.56154 0.0
C2483 C 0.53809 0.4368 0.5327 0.0
C2484 C 0.52496 0.42809 0.56401 0.0
C2485 C 0.52546 0.42791 0.62322 0.0
C2486 C 0.53804 0.43633 0.46992 0.0
C2487 C 0.5322 0.42238 0.4429 0.0
C2488 C 0.54546 0.4496 0.4373 0.0
C2489 C 0.55056 0.4646 0.46236 0.0
C2490 C 0.54066 0.4673 0.49434 0.0
C2491 C 0.54554 0.48137 0.51844 0.0
C2492 C 0.56029 0.49286 0.51064 0.0
C2493 C 0.57018 0.49032 0.47864 0.0
C2494 C 0.56536 0.47627 0.45447 0.0
C2495 C 0.54145 0.43029 0.1943 0.0
C2496 C 0.55672 0.43662 0.18091 0.0
C2497 C 0.53686 0.42917 0.25072 0.0
C2498 C 0.54751 0.43458 0.29429 0.0
C2499 C 0.56269 0.44067 0.28113 0.0
C2500 C 0.56724 0.44163 0.22505 0.0
C2501 C 0.54311 0.4347 0.35365 0.0
C2502 C 0.54807 0.44859 0.37971 0.0
C2503 C 0.53466 0.42141 0.38502 0.0
C2504 C 0.52889 0.40643 0.35923 0.0
C2505 C 0.53872 0.40229 0.33487 0.0
C2506 C 0.53314 0.38815 0.31041 0.0
C2507 C 0.51776 0.37802 0.31045 0.0
C2508 C 0.50794 0.38199 0.33513 0.0
C2509 C 0.51346 0.39612 0.3596 0.0
H2510 H 0.51346 0.36708 0.29151 0.0
H2511 H 0.56404 0.50374 0.52936 0.0
H2512 H 0.54781 0.11315 0.64031 0.0
H2513 H 0.54827 0.11243 0.5378 0.0
H2514 H 0.57479 0.09077 0.54471 0.0
H2515 H 0.5749 0.09203 0.64848 0.0
H2516 H 0.58587 0.11185 0.46844 0.0
H2517 H 0.53726 0.07133 0.5026 0.0
H2518 H 0.5122 0.05761 0.54591 0.0
H2519 H 0.50083 0.08879 0.47343 0.0
H2520 H 0.52588 0.10283 0.43033 0.0
H2521 H 0.57178 0.10536 0.16188 0.0
H2522 H 0.5739 0.09961 0.26094 0.0
H2523 H 0.55514 0.12672 0.31443 0.0
H2524 H 0.55332 0.13278 0.21602 0.0
H2525 H 0.54003 0.09693 0.35543 0.0
H2526 H 0.591 0.13909 0.33431 0.0
H2527 H 0.61607 0.15186 0.29071 0.0
H2528 H 0.62242 0.11516 0.33677 0.0
H2529 H 0.59728 0.10208 0.38 0.0
C2530 C 0.55361 0.10805 0.62026 0.0
C2531 C 0.56128 0.10259 0.65255 0.0
C2532 C 0.55379 0.10757 0.56146 0.0
C2533 C 0.5613 0.10126 0.53342 0.0
C2534 C 0.56885 0.09561 0.56547 0.0
C2535 C 0.56886 0.09629 0.62466 0.0
C2536 C 0.56181 0.10142 0.47068 0.0
C2537 C 0.57581 0.10825 0.44358 0.0
C2538 C 0.54869 0.09668 0.43805 0.0
C2539 C 0.5335 0.08816 0.46333 0.0
C2540 C 0.52944 0.07531 0.49609 0.0
C2541 C 0.51523 0.06747 0.52061 0.0
C2542 C 0.50493 0.07233 0.51246 0.0
C2543 C 0.50881 0.08502 0.47966 0.0
C2544 C 0.52301 0.09291 0.45507 0.0
C2545 C 0.56864 0.11055 0.19477 0.0
C2546 C 0.56259 0.11972 0.18125 0.0
C2547 C 0.5697 0.10711 0.25129 0.0
C2548 C 0.56462 0.11271 0.29475 0.0
C2549 C 0.55905 0.12224 0.28135 0.0
C2550 C 0.55806 0.12572 0.22519 0.0
C2551 C 0.56408 0.10801 0.35416 0.0
C2552 C 0.55003 0.10021 0.38034 0.0
C2553 C 0.5771 0.11162 0.38556 0.0
C2554 C 0.5922 0.11953 0.35972 0.0
C2555 C 0.59768 0.13368 0.33466 0.0
C2556 C 0.61192 0.14099 0.31013 0.0
C2557 C 0.62081 0.1343 0.31079 0.0
C2558 C 0.6155 0.12031 0.33617 0.0
C2559 C 0.60127 0.11295 0.36071 0.0
H2560 H 0.63183 0.13998 0.29179 0.0
H2561 H 0.49394 0.06625 0.53152 0.0
H2562 H 0.47595 0.88341 0.34871 0.0
H2563 H 0.47631 0.88349 0.45216 0.0
H2564 H 0.44749 0.90259 0.4546 0.0
H2565 H 0.44705 0.90256 0.35107 0.0
H2566 H 0.47004 0.91471 0.53747 0.0
H2567 H 0.43234 0.86618 0.46724 0.0
H2568 H 0.42343 0.84322 0.41049 0.0
H2569 H 0.45354 0.83293 0.49887 0.0
H2570 H 0.46277 0.85597 0.55563 0.0
H2571 H 0.4298 0.89236 0.79202 0.0
H2572 H 0.43859 0.89695 0.69439 0.0
H2573 H 0.46292 0.87366 0.72379 0.0
H2574 H 0.45383 0.86869 0.82174 0.0
H2575 H 0.44678 0.86453 0.62727 0.0
H2576 H 0.4818 0.91119 0.70781 0.0
H2577 H 0.49063 0.93409 0.76479 0.0
H2578 H 0.46617 0.94811 0.65844 0.0
H2579 H 0.45698 0.92517 0.60132 0.0
C2580 C 0.46988 0.88786 0.37116 0.0
C2581 C 0.46134 0.89284 0.34165 0.0
C2582 C 0.47008 0.88786 0.4303 0.0
C2583 C 0.46178 0.89287 0.46095 0.0
C2584 C 0.45395 0.89865 0.43167 0.0
C2585 C 0.45367 0.89857 0.37252 0.0
C2586 C 0.46029 0.89105 0.52324 0.0
C2587 C 0.4649 0.90376 0.55722 0.0
C2588 C 0.45399 0.87678 0.54896 0.0
C2589 C 0.44837 0.86288 0.51517 0.0
C2590 C 0.43715 0.85908 0.47424 0.0
C2591 C 0.43202 0.84605 0.44213 0.0
C2592 C 0.43795 0.83665 0.45094 0.0
C2593 C 0.44898 0.84024 0.49201 0.0
C2594 C 0.45416 0.85328 0.52417 0.0
C2595 C 0.43709 0.88827 0.77787 0.0
C2596 C 0.44128 0.88033 0.81484 0.0
C2597 C 0.44221 0.89102 0.72215 0.0
C2598 C 0.45163 0.88588 0.70203 0.0
C2599 C 0.45581 0.87788 0.73869 0.0
C2600 C 0.45072 0.87517 0.79478 0.0
C2601 C 0.45627 0.88818 0.64173 0.0
C2602 C 0.4522 0.87554 0.60792 0.0
C2603 C 0.46311 0.90253 0.61628 0.0
C2604 C 0.46861 0.91638 0.65047 0.0
C2605 C 0.4782 0.91909 0.69681 0.0
C2606 C 0.48328 0.93209 0.72911 0.0
C2607 C 0.47894 0.94254 0.7153 0.0
C2608 C 0.46952 0.94001 0.6691 0.0
C2609 C 0.46438 0.92701 0.6367 0.0
H2610 H 0.4829 0.9526 0.74034 0.0
H2611 H 0.43397 0.82656 0.42605 0.0
H2612 H 0.10975 0.54892 0.35108 0.0
H2613 H 0.10754 0.54831 0.45338 0.0
H2614 H 0.09059 0.57896 0.4455 0.0
H2615 H 0.09324 0.58001 0.34213 0.0
H2616 H 0.11091 0.58734 0.52542 0.0
H2617 H 0.0673 0.54186 0.48206 0.0
H2618 H 0.05152 0.5176 0.43511 0.0
H2619 H 0.07754 0.50015 0.51023 0.0
H2620 H 0.09363 0.52437 0.55698 0.0
H2621 H 0.10065 0.57063 0.82982 0.0
H2622 H 0.09507 0.57333 0.73123 0.0
H2623 H 0.12 0.55239 0.67554 0.0
H2624 H 0.12617 0.55023 0.77347 0.0
H2625 H 0.08962 0.53963 0.63236 0.0
H2626 H 0.13556 0.58778 0.66032 0.0
H2627 H 0.15043 0.61215 0.70779 0.0
H2628 H 0.11752 0.62423 0.66309 0.0
H2629 H 0.10235 0.59981 0.616 0.0
C2630 C 0.1054 0.55544 0.37083 0.0
C2631 C 0.10165 0.5645 0.33842 0.0
C2632 C 0.10404 0.555 0.42947 0.0
C2633 C 0.09862 0.56337 0.45713 0.0
C2634 C 0.09471 0.57234 0.42497 0.0
C2635 C 0.0962 0.5729 0.36599 0.0
C2636 C 0.09799 0.56326 0.51981 0.0
C2637 C 0.10591 0.57691 0.54891 0.0
C2638 C 0.09143 0.54966 0.55061 0.0
C2639 C 0.08171 0.53498 0.52293 0.0
C2640 C 0.06972 0.53288 0.48834 0.0
C2641 C 0.06071 0.51913 0.46177 0.0
C2642 C 0.06353 0.50734 0.46965 0.0
C2643 C 0.07536 0.50929 0.50421 0.0
C2644 C 0.08441 0.52302 0.53085 0.0
C2645 C 0.10542 0.56711 0.79663 0.0
C2646 C 0.11419 0.56056 0.80944 0.0
C2647 C 0.10202 0.56846 0.74038 0.0
C2648 C 0.10714 0.56305 0.69643 0.0
C2649 C 0.11593 0.55659 0.70907 0.0
C2650 C 0.11947 0.5554 0.76498 0.0
C2651 C 0.1031 0.56361 0.63695 0.0
C2652 C 0.09424 0.55003 0.60875 0.0
C2653 C 0.10857 0.57724 0.60726 0.0
C2654 C 0.11773 0.59191 0.63534 0.0
C2655 C 0.13143 0.59557 0.66111 0.0
C2656 C 0.13992 0.60941 0.68783 0.0
C2657 C 0.13489 0.61971 0.68864 0.0
C2658 C 0.12138 0.61622 0.66255 0.0
C2659 C 0.11284 0.60239 0.63583 0.0
H2660 H 0.14149 0.63042 0.70934 0.0
H2661 H 0.05655 0.49671 0.44902 0.0
H2662 H 0.41656 0.54516 0.81321 0.0
H2663 H 0.41509 0.53818 0.71338 0.0
H2664 H 0.46243 0.56888 0.69487 0.0
H2665 H 0.46394 0.5759 0.79421 0.0
H2666 H 0.44754 0.57219 0.61087 0.0
H2667 H 0.44797 0.53071 0.70151 0.0
H2668 H 0.43923 0.50961 0.7683 0.0
H2669 H 0.39618 0.48779 0.68774 0.0
H2670 H 0.4046 0.50887 0.62095 0.0
H2671 H 0.45766 0.55163 0.34009 0.0
H2672 H 0.45952 0.55401 0.44304 0.0
H2673 H 0.41192 0.52412 0.45745 0.0
H2674 H 0.41001 0.52138 0.35456 0.0
H2675 H 0.42674 0.51995 0.54353 0.0
H2676 H 0.42624 0.56179 0.45465 0.0
H2677 H 0.43511 0.58277 0.38714 0.0
H2678 H 0.47852 0.60397 0.46485 0.0
H2679 H 0.46996 0.583 0.5324 0.0
C2680 C 0.42669 0.55019 0.78813 0.0
C2681 C 0.44041 0.56091 0.81173 0.0
C2682 C 0.42583 0.54625 0.73103 0.0
C2683 C 0.43869 0.55289 0.6968 0.0
C2684 C 0.45236 0.56361 0.72042 0.0
C2685 C 0.4532 0.56761 0.7772 0.0
C2686 C 0.43793 0.5491 0.6359 0.0
C2687 C 0.44318 0.56078 0.59626 0.0
C2688 C 0.43193 0.53418 0.61673 0.0
C2689 C 0.42687 0.52144 0.65658 0.0
C2690 C 0.43661 0.52147 0.6983 0.0
C2691 C 0.43171 0.5095 0.73612 0.0
C2692 C 0.41715 0.49738 0.73236 0.0
C2693 C 0.40745 0.49719 0.69066 0.0
C2694 C 0.41228 0.50914 0.65278 0.0
C2695 C 0.44763 0.54534 0.36522 0.0
C2696 C 0.43365 0.5365 0.3392 0.0
C2697 C 0.4487 0.54675 0.42401 0.0
C2698 C 0.43579 0.53954 0.45772 0.0
C2699 C 0.422 0.52986 0.43216 0.0
C2700 C 0.42093 0.52832 0.37333 0.0
C2701 C 0.43648 0.54306 0.51882 0.0
C2702 C 0.43115 0.53135 0.55834 0.0
C2703 C 0.44242 0.55796 0.53802 0.0
C2704 C 0.44749 0.57076 0.49826 0.0
C2705 C 0.4377 0.57089 0.45718 0.0
C2706 C 0.44267 0.58278 0.41892 0.0
C2707 C 0.45738 0.59468 0.42162 0.0
C2708 C 0.46713 0.59474 0.46278 0.0
C2709 C 0.46222 0.58286 0.5011 0.0
H2710 H 0.46121 0.60386 0.39189 0.0
H2711 H 0.41338 0.48813 0.76168 0.0
H2712 H 0.55344 0.76605 0.9892 0.0
H2713 H 0.55426 0.76776 0.88656 0.0
H2714 H 0.56534 0.81394 0.89661 0.0
H2715 H 0.56416 0.8122 0.00013 0.0
H2716 H 0.54386 0.7996 0.82188 0.0
H2717 H 0.59145 0.80485 0.85093 0.0
H2718 H 0.61045 0.79963 0.89075 0.0
H2719 H 0.58824 0.75594 0.81532 0.0
H2720 H 0.56897 0.76079 0.77572 0.0
H2721 H 0.55356 0.79707 0.51341 0.0
H2722 H 0.55853 0.80482 0.6127 0.0
H2723 H 0.53832 0.75863 0.66382 0.0
H2724 H 0.5327 0.75074 0.56532 0.0
H2725 H 0.56915 0.77922 0.70305 0.0
H2726 H 0.51946 0.774 0.68842 0.0
H2727 H 0.50135 0.78038 0.64773 0.0
H2728 H 0.52981 0.8264 0.69421 0.0
H2729 H 0.54819 0.82031 0.73448 0.0
C2730 C 0.55624 0.77665 0.96979 0.0
C2731 C 0.55871 0.78899 0.00288 0.0
C2732 C 0.55679 0.77764 0.91096 0.0
C2733 C 0.56005 0.79104 0.88382 0.0
C2734 C 0.56285 0.80351 0.91669 0.0
C2735 C 0.56223 0.8025 0.9758 0.0
C2736 C 0.55951 0.79151 0.82118 0.0
C2737 C 0.54969 0.7955 0.79577 0.0
C2738 C 0.56712 0.78618 0.78698 0.0
C2739 C 0.57871 0.78317 0.81054 0.0
C2740 C 0.59055 0.79409 0.84312 0.0
C2741 C 0.60138 0.7912 0.86562 0.0
C2742 C 0.60054 0.77746 0.85562 0.0
C2743 C 0.58888 0.76658 0.82301 0.0
C2744 C 0.57801 0.76941 0.80044 0.0
C2745 C 0.54962 0.78853 0.54576 0.0
C2746 C 0.54245 0.77325 0.53144 0.0
C2747 C 0.55268 0.793 0.60244 0.0
C2748 C 0.54882 0.78227 0.64524 0.0
C2749 C 0.54142 0.76706 0.63118 0.0
C2750 C 0.5382 0.76259 0.57492 0.0
C2751 C 0.55307 0.78669 0.70473 0.0
C2752 C 0.56364 0.78367 0.72926 0.0
C2753 C 0.54635 0.79312 0.73782 0.0
C2754 C 0.53529 0.79674 0.71372 0.0
C2755 C 0.52193 0.7855 0.68941 0.0
C2756 C 0.5116 0.78906 0.66656 0.0
C2757 C 0.51445 0.8038 0.66819 0.0
C2758 C 0.52763 0.815 0.69285 0.0
C2759 C 0.538 0.8115 0.7157 0.0
H2760 H 0.50644 0.80653 0.6505 0.0
H2761 H 0.60894 0.77524 0.87308 0.0
H2762 H 0.1974 0.75441 0.51223 0.0
H2763 H 0.18963 0.74814 0.61084 0.0
H2764 H 0.23592 0.7703 0.66244 0.0
H2765 H 0.24372 0.77588 0.56395 0.0
H2766 H 0.22059 0.74616 0.724 0.0
H2767 H 0.21447 0.788 0.66581 0.0
H2768 H 0.20425 0.80045 0.6068 0.0
H2769 H 0.15954 0.7668 0.6519 0.0
H2770 H 0.16957 0.75411 0.71113 0.0
H2771 H 0.22868 0.78105 0.98463 0.0
H2772 H 0.22696 0.77686 0.88268 0.0
H2773 H 0.18059 0.74285 0.89959 0.0
H2774 H 0.18225 0.74676 0.00252 0.0
H2775 H 0.19022 0.76682 0.80411 0.0
H2776 H 0.19847 0.72852 0.88082 0.0
H2777 H 0.2107 0.7189 0.9443 0.0
H2778 H 0.25309 0.74795 0.8661 0.0
H2779 H 0.24119 0.75799 0.80291 0.0
C2780 C 0.20592 0.75748 0.54423 0.0
C2781 C 0.2212 0.76545 0.53003 0.0
C2782 C 0.20146 0.75409 0.60082 0.0
C2783 C 0.21219 0.75886 0.6442 0.0
C2784 C 0.22742 0.76643 0.62981 0.0
C2785 C 0.23187 0.76971 0.57345 0.0
C2786 C 0.20783 0.75695 0.70487 0.0
C2787 C 0.21389 0.75061 0.74139 0.0
C2788 C 0.19879 0.76244 0.72767 0.0
C2789 C 0.19275 0.77002 0.69221 0.0
C2790 C 0.20246 0.78321 0.66279 0.0
C2791 C 0.19669 0.79031 0.62936 0.0
C2792 C 0.18123 0.78438 0.62531 0.0
C2793 C 0.17151 0.77136 0.65493 0.0
C2794 C 0.17723 0.76422 0.68849 0.0
C2795 C 0.21804 0.77279 0.96682 0.0
C2796 C 0.20561 0.76419 0.00171 0.0
C2797 C 0.21711 0.77039 0.90857 0.0
C2798 C 0.20369 0.75948 0.88399 0.0
C2799 C 0.19104 0.7513 0.91807 0.0
C2800 C 0.19202 0.75355 0.97671 0.0
C2801 C 0.20336 0.75646 0.82278 0.0
C2802 C 0.19649 0.76192 0.78636 0.0
C2803 C 0.21178 0.75031 0.80012 0.0
C2804 C 0.21894 0.74408 0.8373 0.0
C2805 C 0.21042 0.73295 0.87741 0.0
C2806 C 0.21729 0.72741 0.91332 0.0
C2807 C 0.23265 0.73282 0.90925 0.0
C2808 C 0.24119 0.74377 0.86919 0.0
C2809 C 0.23438 0.74938 0.83327 0.0
H2810 H 0.23795 0.72852 0.9371 0.0
H2811 H 0.17677 0.78989 0.59942 0.0
H2812 H 0.24987 0.46535 0.50231 0.0
H2813 H 0.25289 0.46103 0.6022 0.0
H2814 H 0.20505 0.43861 0.62475 0.0
H2815 H 0.20189 0.44248 0.52531 0.0
H2816 H 0.22062 0.46057 0.70438 0.0
H2817 H 0.22208 0.41866 0.61858 0.0
H2818 H 0.2321 0.4071 0.55367 0.0
H2819 H 0.27502 0.43112 0.63447 0.0
H2820 H 0.26531 0.443 0.69937 0.0
H2821 H 0.20697 0.42876 0.97086 0.0
H2822 H 0.20726 0.4301 0.86765 0.0
H2823 H 0.25507 0.44827 0.86767 0.0
H2824 H 0.25481 0.44657 0.971 0.0
H2825 H 0.24224 0.43028 0.77661 0.0
H2826 H 0.24133 0.47162 0.86364 0.0
H2827 H 0.23211 0.48385 0.92892 0.0
H2828 H 0.18948 0.46235 0.8452 0.0
H2829 H 0.19838 0.4498 0.77992 0.0
C2830 C 0.23998 0.45918 0.52809 0.0
C2831 C 0.22562 0.45406 0.50551 0.0
C2832 C 0.24174 0.45682 0.58528 0.0
C2833 C 0.22918 0.44943 0.62063 0.0
C2834 C 0.21488 0.44435 0.59815 0.0
C2835 C 0.21312 0.44661 0.54127 0.0
C2836 C 0.23072 0.44741 0.68172 0.0
C2837 C 0.22523 0.45384 0.72017 0.0
C2838 C 0.23721 0.43906 0.70217 0.0
C2839 C 0.24302 0.43185 0.66339 0.0
C2840 C 0.23369 0.42158 0.62218 0.0
C2841 C 0.23931 0.41495 0.58545 0.0
C2842 C 0.2542 0.41841 0.58982 0.0
C2843 C 0.2635 0.42848 0.63106 0.0
C2844 C 0.25794 0.43516 0.66784 0.0
C2845 C 0.2175 0.43277 0.94885 0.0
C2846 C 0.2309 0.43778 0.979 0.0
C2847 C 0.21766 0.43357 0.88992 0.0
C2848 C 0.23124 0.43966 0.8602 0.0
C2849 C 0.24449 0.44364 0.88986 0.0
C2850 C 0.24431 0.44267 0.9489 0.0
C2851 C 0.23171 0.44308 0.7991 0.0
C2852 C 0.23769 0.43705 0.7608 0.0
C2853 C 0.22581 0.45196 0.77857 0.0
C2854 C 0.22049 0.45968 0.81718 0.0
C2855 C 0.22997 0.46944 0.85935 0.0
C2856 C 0.2248 0.47643 0.89635 0.0
C2857 C 0.21021 0.47385 0.89129 0.0
C2858 C 0.20078 0.46432 0.8491 0.0
C2859 C 0.20588 0.45727 0.81205 0.0
H2860 H 0.20622 0.47926 0.92001 0.0
H2861 H 0.25853 0.41326 0.56136 0.0
loop_
_geom_bond_atom_site_label_1
_geom_bond_atom_site_label_2
_geom_bond_distance
_geom_bond_site_symmetry_2
_ccdc_geom_bond_type
Co0 O3 1.970 . S
Co0 N17 1.989 . S
Co0 O25 1.967 . S
Co0 O32 1.920 . S
Co1 O4 1.966 . S
Co1 N10 2.022 . S
Co1 N18 1.993 . S
Co1 O26 1.941 . S
C2 O3 1.258 . S
C2 O4 1.263 . S
O3 Co0 1.970 . S
O3 C2 1.258 . S
O4 Co1 1.966 . S
O4 C2 1.263 . S
C5 O6 1.235 . S
C5 O32 1.289 . S
O6 C5 1.235 . S
C7 C9 1.400 . S
C7 N10 1.351 . S
C7 C12 1.501 . S
C8 C9 1.387 . S
C8 N11 1.341 . S
C9 C7 1.400 . S
C9 C8 1.387 . S
N10 Co1 2.022 . S
N10 C7 1.351 . S
N10 N11 1.365 . S
N11 C8 1.341 . S
N11 N10 1.365 . S
N11 H31 0.862 . S
C12 C7 1.501 . S
C12 H13 0.961 . S
C12 H14 0.961 . S
C12 H15 0.960 . S
H13 C12 0.961 . S
H14 C12 0.961 . S
H15 C12 0.960 . S
C16 N17 1.342 . S
C16 C20 1.401 . S
C16 C21 1.499 . S
N17 Co0 1.989 . S
N17 C16 1.342 . S
N17 N18 1.388 . S
N18 Co1 1.993 . S
N18 N17 1.388 . S
N18 C19 1.346 . S
C19 N18 1.346 . S
C19 C20 1.396 . S
C19 C29 1.510 . S
C20 C16 1.401 . S
C20 C19 1.396 . S
C21 C16 1.499 . S
C21 H22 0.959 . S
C21 H23 0.960 . S
C21 H24 0.961 . S
H22 C21 0.959 . S
H23 C21 0.960 . S
H24 C21 0.961 . S
O25 Co0 1.967 . S
O25 C33 1.258 . S
O26 Co1 1.941 . S
O26 C33 1.266 . S
H27 C29 0.959 . S
H28 C29 0.961 . S
C29 C19 1.510 . S
C29 H27 0.959 . S
C29 H28 0.961 . S
C29 H30 0.960 . S
H30 C29 0.960 . S
H31 N11 0.862 . S
O32 Co0 1.920 . S
O32 C5 1.289 . S
C33 O25 1.258 . S
C33 O26 1.266 . S
Co34 O37 1.970 . S
Co34 N51 1.989 . S
Co34 O59 1.967 . S
Co34 O66 1.920 . S
Co35 O38 1.966 . S
Co35 N44 2.022 . S
Co35 N52 1.993 . S
Co35 O60 1.941 . S
C36 O37 1.258 . S
C36 O38 1.263 . S
O37 Co34 1.970 . S
O37 C36 1.258 . S
O38 Co35 1.966 . S
O38 C36 1.263 . S
C39 O40 1.235 . S
C39 O66 1.289 . S
O40 C39 1.235 . S
C41 C43 1.400 . S
C41 N44 1.351 . S
C41 C46 1.501 . S
C42 C43 1.387 . S
C42 N45 1.341 . S
C43 C41 1.400 . S
C43 C42 1.387 . S
N44 Co35 2.022 . S
N44 C41 1.351 . S
N44 N45 1.365 . S
N45 C42 1.341 . S
N45 N44 1.365 . S
N45 H65 0.862 . S
C46 C41 1.501 . S
C46 H47 0.961 . S
C46 H48 0.961 . S
C46 H49 0.960 . S
H47 C46 0.961 . S
H48 C46 0.961 . S
H49 C46 0.960 . S
C50 N51 1.342 . S
C50 C54 1.401 . S
C50 C55 1.499 . S
N51 Co34 1.989 . S
N51 C50 1.342 . S
N51 N52 1.388 . S
N52 Co35 1.993 . S
N52 N51 1.388 . S
N52 C53 1.346 . S
C53 N52 1.346 . S
C53 C54 1.396 . S
C53 C63 1.510 . S
C54 C50 1.401 . S
C54 C53 1.396 . S
C55 C50 1.499 . S
C55 H56 0.959 . S
C55 H57 0.960 . S
C55 H58 0.961 . S
H56 C55 0.959 . S
H57 C55 0.960 . S
H58 C55 0.961 . S
O59 Co34 1.967 . S
O59 C67 1.258 . S
O60 Co35 1.941 . S
O60 C67 1.266 . S
H61 C63 0.959 . S
H62 C63 0.961 . S
C63 C53 1.510 . S
C63 H61 0.959 . S
C63 H62 0.961 . S
C63 H64 0.960 . S
H64 C63 0.960 . S
H65 N45 0.862 . S
O66 Co34 1.920 . S
O66 C39 1.289 . S
C67 O59 1.258 . S
C67 O60 1.266 . S
Co68 O71 1.970 . S
Co68 N85 1.989 . S
Co68 O93 1.967 . S
Co68 O100 1.920 . S
Co69 O72 1.966 . S
Co69 N78 2.022 . S
Co69 N86 1.993 . S
Co69 O94 1.941 . S
C70 O71 1.258 . S
C70 O72 1.263 . S
O71 Co68 1.970 . S
O71 C70 1.258 . S
O72 Co69 1.966 . S
O72 C70 1.263 . S
C73 O74 1.235 . S
C73 O100 1.289 . S
O74 C73 1.235 . S
C75 C77 1.400 . S
C75 N78 1.351 . S
C75 C80 1.501 . S
C76 C77 1.387 . S
C76 N79 1.341 . S
C77 C75 1.400 . S
C77 C76 1.387 . S
N78 Co69 2.022 . S
N78 C75 1.351 . S
N78 N79 1.365 . S
N79 C76 1.341 . S
N79 N78 1.365 . S
N79 H99 0.862 . S
C80 C75 1.501 . S
C80 H81 0.961 . S
C80 H82 0.961 . S
C80 H83 0.960 . S
H81 C80 0.961 . S
H82 C80 0.961 . S
H83 C80 0.960 . S
C84 N85 1.342 . S
C84 C88 1.401 . S
C84 C89 1.499 . S
N85 Co68 1.989 . S
N85 C84 1.342 . S
N85 N86 1.388 . S
N86 Co69 1.993 . S
N86 N85 1.388 . S
N86 C87 1.346 . S
C87 N86 1.346 . S
C87 C88 1.396 . S
C87 C97 1.510 . S
C88 C84 1.401 . S
C88 C87 1.396 . S
C89 C84 1.499 . S
C89 H90 0.959 . S
C89 H91 0.960 . S
C89 H92 0.961 . S
H90 C89 0.959 . S
H91 C89 0.960 . S
H92 C89 0.961 . S
O93 Co68 1.967 . S
O93 C101 1.258 . S
O94 Co69 1.941 . S
O94 C101 1.266 . S
H95 C97 0.959 . S
H96 C97 0.961 . S
C97 C87 1.510 . S
C97 H95 0.959 . S
C97 H96 0.961 . S
C97 H98 0.960 . S
H98 C97 0.960 . S
H99 N79 0.862 . S
O100 Co68 1.920 . S
O100 C73 1.289 . S
C101 O93 1.258 . S
C101 O94 1.266 . S
Co102 O105 1.970 . S
Co102 N119 1.989 . S
Co102 O127 1.967 . S
Co102 O134 1.920 . S
Co103 O106 1.966 . S
Co103 N112 2.022 . S
Co103 N120 1.993 . S
Co103 O128 1.941 . S
C104 O105 1.258 . S
C104 O106 1.263 . S
O105 Co102 1.970 . S
O105 C104 1.258 . S
O106 Co103 1.966 . S
O106 C104 1.263 . S
C107 O108 1.235 . S
C107 O134 1.289 . S
O108 C107 1.235 . S
C109 C111 1.400 . S
C109 N112 1.351 . S
C109 C114 1.501 . S
C110 C111 1.387 . S
C110 N113 1.341 . S
C111 C109 1.400 . S
C111 C110 1.387 . S
N112 Co103 2.022 . S
N112 C109 1.351 . S
N112 N113 1.365 . S
N113 C110 1.341 . S
N113 N112 1.365 . S
N113 H133 0.862 . S
C114 C109 1.501 . S
C114 H115 0.961 . S
C114 H116 0.961 . S
C114 H117 0.960 . S
H115 C114 0.961 . S
H116 C114 0.961 . S
H117 C114 0.960 . S
C118 N119 1.342 . S
C118 C122 1.401 . S
C118 C123 1.499 . S
N119 Co102 1.989 . S
N119 C118 1.342 . S
N119 N120 1.388 . S
N120 Co103 1.993 . S
N120 N119 1.388 . S
N120 C121 1.346 . S
C121 N120 1.346 . S
C121 C122 1.396 . S
C121 C131 1.510 . S
C122 C118 1.401 . S
C122 C121 1.396 . S
C123 C118 1.499 . S
C123 H124 0.959 . S
C123 H125 0.960 . S
C123 H126 0.961 . S
H124 C123 0.959 . S
H125 C123 0.960 . S
H126 C123 0.961 . S
O127 Co102 1.967 . S
O127 C135 1.258 . S
O128 Co103 1.941 . S
O128 C135 1.266 . S
H129 C131 0.959 . S
H130 C131 0.961 . S
C131 C121 1.510 . S
C131 H129 0.959 . S
C131 H130 0.961 . S
C131 H132 0.960 . S
H132 C131 0.960 . S
H133 N113 0.862 . S
O134 Co102 1.920 . S
O134 C107 1.289 . S
C135 O127 1.258 . S
C135 O128 1.266 . S
Co136 O139 1.970 . S
Co136 N153 1.989 . S
Co136 O161 1.967 . S
Co136 O168 1.920 . S
Co137 O140 1.966 . S
Co137 N146 2.022 . S
Co137 N154 1.993 . S
Co137 O162 1.941 . S
C138 O139 1.258 . S
C138 O140 1.263 . S
O139 Co136 1.970 . S
O139 C138 1.258 . S
O140 Co137 1.966 . S
O140 C138 1.263 . S
C141 O142 1.235 . S
C141 O168 1.289 . S
O142 C141 1.235 . S
C143 C145 1.400 . S
C143 N146 1.351 . S
C143 C148 1.501 . S
C144 C145 1.387 . S
C144 N147 1.341 . S
C145 C143 1.400 . S
C145 C144 1.387 . S
N146 Co137 2.022 . S
N146 C143 1.351 . S
N146 N147 1.365 . S
N147 C144 1.341 . S
N147 N146 1.365 . S
N147 H167 0.862 . S
C148 C143 1.501 . S
C148 H149 0.961 . S
C148 H150 0.961 . S
C148 H151 0.960 . S
H149 C148 0.961 . S
H150 C148 0.961 . S
H151 C148 0.960 . S
C152 N153 1.342 . S
C152 C156 1.401 . S
C152 C157 1.499 . S
N153 Co136 1.989 . S
N153 C152 1.342 . S
N153 N154 1.388 . S
N154 Co137 1.993 . S
N154 N153 1.388 . S
N154 C155 1.346 . S
C155 N154 1.346 . S
C155 C156 1.396 . S
C155 C165 1.510 . S
C156 C152 1.401 . S
C156 C155 1.396 . S
C157 C152 1.499 . S
C157 H158 0.959 . S
C157 H159 0.960 . S
C157 H160 0.961 . S
H158 C157 0.959 . S
H159 C157 0.960 . S
H160 C157 0.961 . S
O161 Co136 1.967 . S
O161 C169 1.258 . S
O162 Co137 1.941 . S
O162 C169 1.266 . S
H163 C165 0.959 . S
H164 C165 0.961 . S
C165 C155 1.510 . S
C165 H163 0.959 . S
C165 H164 0.961 . S
C165 H166 0.960 . S
H166 C165 0.960 . S
H167 N147 0.862 . S
O168 Co136 1.920 . S
O168 C141 1.289 . S
C169 O161 1.258 . S
C169 O162 1.266 . S
Co170 O173 1.970 . S
Co170 N187 1.989 . S
Co170 O195 1.967 . S
Co170 O202 1.920 . S
Co171 O174 1.966 . S
Co171 N180 2.022 . S
Co171 N188 1.993 . S
Co171 O196 1.941 . S
C172 O173 1.258 . S
C172 O174 1.263 . S
O173 Co170 1.970 . S
O173 C172 1.258 . S
O174 Co171 1.966 . S
O174 C172 1.263 . S
C175 O176 1.235 . S
C175 O202 1.289 . S
O176 C175 1.235 . S
C177 C179 1.400 . S
C177 N180 1.351 . S
C177 C182 1.501 . S
C178 C179 1.387 . S
C178 N181 1.341 . S
C179 C177 1.400 . S
C179 C178 1.387 . S
N180 Co171 2.022 . S
N180 C177 1.351 . S
N180 N181 1.365 . S
N181 C178 1.341 . S
N181 N180 1.365 . S
N181 H201 0.862 . S
C182 C177 1.501 . S
C182 H183 0.961 . S
C182 H184 0.961 . S
C182 H185 0.960 . S
H183 C182 0.961 . S
H184 C182 0.961 . S
H185 C182 0.960 . S
C186 N187 1.342 . S
C186 C190 1.401 . S
C186 C191 1.499 . S
N187 Co170 1.989 . S
N187 C186 1.342 . S
N187 N188 1.388 . S
N188 Co171 1.993 . S
N188 N187 1.388 . S
N188 C189 1.346 . S
C189 N188 1.346 . S
C189 C190 1.396 . S
C189 C199 1.510 . S
C190 C186 1.401 . S
C190 C189 1.396 . S
C191 C186 1.499 . S
C191 H192 0.959 . S
C191 H193 0.960 . S
C191 H194 0.961 . S
H192 C191 0.959 . S
H193 C191 0.960 . S
H194 C191 0.961 . S
O195 Co170 1.967 . S
O195 C203 1.258 . S
O196 Co171 1.941 . S
O196 C203 1.266 . S
H197 C199 0.959 . S
H198 C199 0.961 . S
C199 C189 1.510 . S
C199 H197 0.959 . S
C199 H198 0.961 . S
C199 H200 0.960 . S
H200 C199 0.960 . S
H201 N181 0.862 . S
O202 Co170 1.920 . S
O202 C175 1.289 . S
C203 O195 1.258 . S
C203 O196 1.266 . S
Co204 O207 1.970 . S
Co204 N221 1.989 . S
Co204 O229 1.967 . S
Co204 O236 1.920 . S
Co205 O208 1.966 . S
Co205 N214 2.022 . S
Co205 N222 1.993 . S
Co205 O230 1.941 . S
C206 O207 1.258 . S
C206 O208 1.263 . S
O207 Co204 1.970 . S
O207 C206 1.258 . S
O208 Co205 1.966 . S
O208 C206 1.263 . S
C209 O210 1.235 . S
C209 O236 1.289 . S
O210 C209 1.235 . S
C211 C213 1.400 . S
C211 N214 1.351 . S
C211 C216 1.501 . S
C212 C213 1.387 . S
C212 N215 1.341 . S
C213 C211 1.400 . S
C213 C212 1.387 . S
N214 Co205 2.022 . S
N214 C211 1.351 . S
N214 N215 1.365 . S
N215 C212 1.341 . S
N215 N214 1.365 . S
N215 H235 0.862 . S
C216 C211 1.501 . S
C216 H217 0.961 . S
C216 H218 0.961 . S
C216 H219 0.960 . S
H217 C216 0.961 . S
H218 C216 0.961 . S
H219 C216 0.960 . S
C220 N221 1.342 . S
C220 C224 1.401 . S
C220 C225 1.499 . S
N221 Co204 1.989 . S
N221 C220 1.342 . S
N221 N222 1.388 . S
N222 Co205 1.993 . S
N222 N221 1.388 . S
N222 C223 1.346 . S
C223 N222 1.346 . S
C223 C224 1.396 . S
C223 C233 1.510 . S
C224 C220 1.401 . S
C224 C223 1.396 . S
C225 C220 1.499 . S
C225 H226 0.959 . S
C225 H227 0.960 . S
C225 H228 0.961 . S
H226 C225 0.959 . S
H227 C225 0.960 . S
H228 C225 0.961 . S
O229 Co204 1.967 . S
O229 C237 1.258 . S
O230 Co205 1.941 . S
O230 C237 1.266 . S
H231 C233 0.959 . S
H232 C233 0.961 . S
C233 C223 1.510 . S
C233 H231 0.959 . S
C233 H232 0.961 . S
C233 H234 0.960 . S
H234 C233 0.960 . S
H235 N215 0.862 . S
O236 Co204 1.920 . S
O236 C209 1.289 . S
C237 O229 1.258 . S
C237 O230 1.266 . S
Co238 O241 1.970 . S
Co238 N255 1.989 . S
Co238 O263 1.967 . S
Co238 O270 1.920 . S
Co239 O242 1.966 . S
Co239 N248 2.022 . S
Co239 N256 1.993 . S
Co239 O264 1.941 . S
C240 O241 1.258 . S
C240 O242 1.263 . S
O241 Co238 1.970 . S
O241 C240 1.258 . S
O242 Co239 1.966 . S
O242 C240 1.263 . S
C243 O244 1.235 . S
C243 O270 1.289 . S
O244 C243 1.235 . S
C245 C247 1.400 . S
C245 N248 1.351 . S
C245 C250 1.501 . S
C246 C247 1.387 . S
C246 N249 1.341 . S
C247 C245 1.400 . S
C247 C246 1.387 . S
N248 Co239 2.022 . S
N248 C245 1.351 . S
N248 N249 1.365 . S
N249 C246 1.341 . S
N249 N248 1.365 . S
N249 H269 0.862 . S
C250 C245 1.501 . S
C250 H251 0.961 . S
C250 H252 0.961 . S
C250 H253 0.960 . S
H251 C250 0.961 . S
H252 C250 0.961 . S
H253 C250 0.960 . S
C254 N255 1.342 . S
C254 C258 1.401 . S
C254 C259 1.499 . S
N255 Co238 1.989 . S
N255 C254 1.342 . S
N255 N256 1.388 . S
N256 Co239 1.993 . S
N256 N255 1.388 . S
N256 C257 1.346 . S
C257 N256 1.346 . S
C257 C258 1.396 . S
C257 C267 1.510 . S
C258 C254 1.401 . S
C258 C257 1.396 . S
C259 C254 1.499 . S
C259 H260 0.959 . S
C259 H261 0.960 . S
C259 H262 0.961 . S
H260 C259 0.959 . S
H261 C259 0.960 . S
H262 C259 0.961 . S
O263 Co238 1.967 . S
O263 C271 1.258 . S
O264 Co239 1.941 . S
O264 C271 1.266 . S
H265 C267 0.959 . S
H266 C267 0.961 . S
C267 C257 1.510 . S
C267 H265 0.959 . S
C267 H266 0.961 . S
C267 H268 0.960 . S
H268 C267 0.960 . S
H269 N249 0.862 . S
O270 Co238 1.920 . S
O270 C243 1.289 . S
C271 O263 1.258 . S
C271 O264 1.266 . S
Co272 O275 1.970 . S
Co272 N289 1.989 . S
Co272 O297 1.967 . S
Co272 O304 1.920 . S
Co273 O276 1.966 . S
Co273 N282 2.022 . S
Co273 N290 1.993 . S
Co273 O298 1.941 . S
C274 O275 1.258 . S
C274 O276 1.263 . S
O275 Co272 1.970 . S
O275 C274 1.258 . S
O276 Co273 1.966 . S
O276 C274 1.263 . S
C277 O278 1.235 . S
C277 O304 1.289 . S
O278 C277 1.235 . S
C279 C281 1.400 . S
C279 N282 1.351 . S
C279 C284 1.501 . S
C280 C281 1.387 . S
C280 N283 1.341 . S
C281 C279 1.400 . S
C281 C280 1.387 . S
N282 Co273 2.022 . S
N282 C279 1.351 . S
N282 N283 1.365 . S
N283 C280 1.341 . S
N283 N282 1.365 . S
N283 H303 0.862 . S
C284 C279 1.501 . S
C284 H285 0.961 . S
C284 H286 0.961 . S
C284 H287 0.960 . S
H285 C284 0.961 . S
H286 C284 0.961 . S
H287 C284 0.960 . S
C288 N289 1.342 . S
C288 C292 1.401 . S
C288 C293 1.499 . S
N289 Co272 1.989 . S
N289 C288 1.342 . S
N289 N290 1.388 . S
N290 Co273 1.993 . S
N290 N289 1.388 . S
N290 C291 1.346 . S
C291 N290 1.346 . S
C291 C292 1.396 . S
C291 C301 1.510 . S
C292 C288 1.401 . S
C292 C291 1.396 . S
C293 C288 1.499 . S
C293 H294 0.959 . S
C293 H295 0.960 . S
C293 H296 0.961 . S
H294 C293 0.959 . S
H295 C293 0.960 . S
H296 C293 0.961 . S
O297 Co272 1.967 . S
O297 C305 1.258 . S
O298 Co273 1.941 . S
O298 C305 1.266 . S
H299 C301 0.959 . S
H300 C301 0.961 . S
C301 C291 1.510 . S
C301 H299 0.959 . S
C301 H300 0.961 . S
C301 H302 0.960 . S
H302 C301 0.960 . S
H303 N283 0.862 . S
O304 Co272 1.920 . S
O304 C277 1.289 . S
C305 O297 1.258 . S
C305 O298 1.266 . S
Co306 O309 1.970 . S
Co306 N323 1.989 . S
Co306 O331 1.967 . S
Co306 O338 1.920 . S
Co307 O310 1.966 . S
Co307 N316 2.022 1_556 S
Co307 N324 1.993 . S
Co307 O332 1.941 . S
C308 O309 1.258 . S
C308 O310 1.263 . S
O309 Co306 1.970 . S
O309 C308 1.258 . S
O310 Co307 1.966 . S
O310 C308 1.263 . S
C311 O312 1.235 . S
C311 O338 1.289 . S
O312 C311 1.235 . S
C313 C315 1.400 . S
C313 N316 1.351 . S
C313 C318 1.501 . S
C314 C315 1.387 . S
C314 N317 1.341 . S
C315 C313 1.400 . S
C315 C314 1.387 . S
N316 Co307 2.022 1_554 S
N316 C313 1.351 . S
N316 N317 1.365 . S
N317 C314 1.341 . S
N317 N316 1.365 . S
N317 H337 0.862 . S
C318 C313 1.501 . S
C318 H319 0.961 . S
C318 H320 0.961 . S
C318 H321 0.960 . S
H319 C318 0.961 . S
H320 C318 0.961 . S
H321 C318 0.960 . S
C322 N323 1.342 . S
C322 C326 1.401 . S
C322 C327 1.499 . S
N323 Co306 1.989 . S
N323 C322 1.342 . S
N323 N324 1.388 . S
N324 Co307 1.993 . S
N324 N323 1.388 . S
N324 C325 1.346 . S
C325 N324 1.346 . S
C325 C326 1.396 . S
C325 C335 1.510 1_556 S
C326 C322 1.401 . S
C326 C325 1.396 . S
C327 C322 1.499 . S
C327 H328 0.959 . S
C327 H329 0.960 . S
C327 H330 0.961 . S
H328 C327 0.959 . S
H329 C327 0.960 . S
H330 C327 0.961 . S
O331 Co306 1.967 . S
O331 C339 1.258 . S
O332 Co307 1.941 . S
O332 C339 1.266 . S
H333 C335 0.959 . S
H334 C335 0.961 . S
C335 C325 1.510 1_554 S
C335 H333 0.959 . S
C335 H334 0.961 . S
C335 H336 0.960 . S
H336 C335 0.960 . S
H337 N317 0.862 . S
O338 Co306 1.920 . S
O338 C311 1.289 . S
C339 O331 1.258 . S
C339 O332 1.266 . S
Co340 O343 1.970 . S
Co340 N357 1.989 . S
Co340 O365 1.967 . S
Co340 O372 1.920 . S
Co341 O344 1.966 . S
Co341 N350 2.022 1_556 S
Co341 N358 1.993 . S
Co341 O366 1.941 . S
C342 O343 1.258 . S
C342 O344 1.263 . S
O343 Co340 1.970 . S
O343 C342 1.258 . S
O344 Co341 1.966 . S
O344 C342 1.263 . S
C345 O346 1.235 . S
C345 O372 1.289 . S
O346 C345 1.235 . S
C347 C349 1.400 . S
C347 N350 1.351 . S
C347 C352 1.501 . S
C348 C349 1.387 . S
C348 N351 1.341 . S
C349 C347 1.400 . S
C349 C348 1.387 . S
N350 Co341 2.022 1_554 S
N350 C347 1.351 . S
N350 N351 1.365 . S
N351 C348 1.341 . S
N351 N350 1.365 . S
N351 H371 0.862 . S
C352 C347 1.501 . S
C352 H353 0.961 . S
C352 H354 0.961 . S
C352 H355 0.960 . S
H353 C352 0.961 . S
H354 C352 0.961 . S
H355 C352 0.960 . S
C356 N357 1.342 . S
C356 C360 1.401 . S
C356 C361 1.499 . S
N357 Co340 1.989 . S
N357 C356 1.342 . S
N357 N358 1.388 . S
N358 Co341 1.993 . S
N358 N357 1.388 . S
N358 C359 1.346 . S
C359 N358 1.346 . S
C359 C360 1.396 . S
C359 C369 1.510 1_556 S
C360 C356 1.401 . S
C360 C359 1.396 . S
C361 C356 1.499 . S
C361 H362 0.959 . S
C361 H363 0.960 . S
C361 H364 0.961 . S
H362 C361 0.959 . S
H363 C361 0.960 . S
H364 C361 0.961 . S
O365 Co340 1.967 . S
O365 C373 1.258 . S
O366 Co341 1.941 . S
O366 C373 1.266 . S
H367 C369 0.959 . S
H368 C369 0.961 . S
C369 C359 1.510 1_554 S
C369 H367 0.959 . S
C369 H368 0.961 . S
C369 H370 0.960 . S
H370 C369 0.960 . S
H371 N351 0.862 . S
O372 Co340 1.920 . S
O372 C345 1.289 . S
C373 O365 1.258 . S
C373 O366 1.266 . S
Co374 O377 1.970 . S
Co374 N391 1.989 . S
Co374 O399 1.967 . S
Co374 O406 1.920 . S
Co375 O378 1.966 . S
Co375 N384 2.022 1_556 S
Co375 N392 1.993 . S
Co375 O400 1.941 . S
C376 O377 1.258 . S
C376 O378 1.263 . S
O377 Co374 1.970 . S
O377 C376 1.258 . S
O378 Co375 1.966 . S
O378 C376 1.263 . S
C379 O380 1.235 . S
C379 O406 1.289 . S
O380 C379 1.235 . S
C381 C383 1.400 . S
C381 N384 1.351 . S
C381 C386 1.501 . S
C382 C383 1.387 . S
C382 N385 1.341 . S
C383 C381 1.400 . S
C383 C382 1.387 . S
N384 Co375 2.022 1_554 S
N384 C381 1.351 . S
N384 N385 1.365 . S
N385 C382 1.341 . S
N385 N384 1.365 . S
N385 H405 0.862 . S
C386 C381 1.501 . S
C386 H387 0.961 . S
C386 H388 0.961 . S
C386 H389 0.960 . S
H387 C386 0.961 . S
H388 C386 0.961 . S
H389 C386 0.960 . S
C390 N391 1.342 . S
C390 C394 1.401 . S
C390 C395 1.499 . S
N391 Co374 1.989 . S
N391 C390 1.342 . S
N391 N392 1.388 . S
N392 Co375 1.993 . S
N392 N391 1.388 . S
N392 C393 1.346 . S
C393 N392 1.346 . S
C393 C394 1.396 . S
C393 C403 1.510 1_556 S
C394 C390 1.401 . S
C394 C393 1.396 . S
C395 C390 1.499 . S
C395 H396 0.959 . S
C395 H397 0.960 . S
C395 H398 0.961 . S
H396 C395 0.959 . S
H397 C395 0.960 . S
H398 C395 0.961 . S
O399 Co374 1.967 . S
O399 C407 1.258 . S
O400 Co375 1.941 . S
O400 C407 1.266 . S
H401 C403 0.959 . S
H402 C403 0.961 . S
C403 C393 1.510 1_554 S
C403 H401 0.959 . S
C403 H402 0.961 . S
C403 H404 0.960 . S
H404 C403 0.960 . S
H405 N385 0.862 . S
O406 Co374 1.920 . S
O406 C379 1.289 . S
C407 O399 1.258 . S
C407 O400 1.266 . S
Co408 O411 1.970 . S
Co408 N425 1.989 . S
Co408 O433 1.967 . S
Co408 O440 1.920 . S
Co409 O412 1.966 . S
Co409 N418 2.022 1_554 S
Co409 N426 1.993 . S
Co409 O434 1.941 . S
C410 O411 1.258 . S
C410 O412 1.263 . S
O411 Co408 1.970 . S
O411 C410 1.258 . S
O412 Co409 1.966 . S
O412 C410 1.263 . S
C413 O414 1.235 . S
C413 O440 1.289 . S
O414 C413 1.235 . S
C415 C417 1.400 . S
C415 N418 1.351 . S
C415 C420 1.501 . S
C416 C417 1.387 . S
C416 N419 1.341 . S
C417 C415 1.400 . S
C417 C416 1.387 . S
N418 Co409 2.022 1_556 S
N418 C415 1.351 . S
N418 N419 1.365 . S
N419 C416 1.341 . S
N419 N418 1.365 . S
N419 H439 0.862 . S
C420 C415 1.501 . S
C420 H421 0.961 . S
C420 H422 0.961 . S
C420 H423 0.960 . S
H421 C420 0.961 . S
H422 C420 0.961 . S
H423 C420 0.960 . S
C424 N425 1.342 . S
C424 C428 1.401 . S
C424 C429 1.499 . S
N425 Co408 1.989 . S
N425 C424 1.342 . S
N425 N426 1.388 . S
N426 Co409 1.993 . S
N426 N425 1.388 . S
N426 C427 1.346 . S
C427 N426 1.346 . S
C427 C428 1.396 . S
C427 C437 1.510 1_554 S
C428 C424 1.401 . S
C428 C427 1.396 . S
C429 C424 1.499 . S
C429 H430 0.959 . S
C429 H431 0.960 . S
C429 H432 0.961 . S
H430 C429 0.959 . S
H431 C429 0.960 . S
H432 C429 0.961 . S
O433 Co408 1.967 . S
O433 C441 1.258 . S
O434 Co409 1.941 . S
O434 C441 1.266 . S
H435 C437 0.959 . S
H436 C437 0.961 . S
C437 C427 1.510 1_556 S
C437 H435 0.959 . S
C437 H436 0.961 . S
C437 H438 0.960 . S
H438 C437 0.960 . S
H439 N419 0.862 . S
O440 Co408 1.920 . S
O440 C413 1.289 . S
C441 O433 1.258 . S
C441 O434 1.266 . S
Co442 O445 1.970 . S
Co442 N459 1.989 . S
Co442 O467 1.967 . S
Co442 O474 1.920 . S
Co443 O446 1.966 . S
Co443 N452 2.022 1_554 S
Co443 N460 1.993 . S
Co443 O468 1.941 . S
C444 O445 1.258 . S
C444 O446 1.263 . S
O445 Co442 1.970 . S
O445 C444 1.258 . S
O446 Co443 1.966 . S
O446 C444 1.263 . S
C447 O448 1.235 . S
C447 O474 1.289 . S
O448 C447 1.235 . S
C449 C451 1.400 . S
C449 N452 1.351 . S
C449 C454 1.501 . S
C450 C451 1.387 . S
C450 N453 1.341 . S
C451 C449 1.400 . S
C451 C450 1.387 . S
N452 Co443 2.022 1_556 S
N452 C449 1.351 . S
N452 N453 1.365 . S
N453 C450 1.341 . S
N453 N452 1.365 . S
N453 H473 0.862 . S
C454 C449 1.501 . S
C454 H455 0.961 . S
C454 H456 0.961 . S
C454 H457 0.960 . S
H455 C454 0.961 . S
H456 C454 0.961 . S
H457 C454 0.960 . S
C458 N459 1.342 . S
C458 C462 1.401 . S
C458 C463 1.499 . S
N459 Co442 1.989 . S
N459 C458 1.342 . S
N459 N460 1.388 . S
N460 Co443 1.993 . S
N460 N459 1.388 . S
N460 C461 1.346 . S
C461 N460 1.346 . S
C461 C462 1.396 . S
C461 C471 1.510 1_554 S
C462 C458 1.401 . S
C462 C461 1.396 . S
C463 C458 1.499 . S
C463 H464 0.959 . S
C463 H465 0.960 . S
C463 H466 0.961 . S
H464 C463 0.959 . S
H465 C463 0.960 . S
H466 C463 0.961 . S
O467 Co442 1.967 . S
O467 C475 1.258 . S
O468 Co443 1.941 . S
O468 C475 1.266 . S
H469 C471 0.959 . S
H470 C471 0.961 . S
C471 C461 1.510 1_556 S
C471 H469 0.959 . S
C471 H470 0.961 . S
C471 H472 0.960 . S
H472 C471 0.960 . S
H473 N453 0.862 . S
O474 Co442 1.920 . S
O474 C447 1.289 . S
C475 O467 1.258 . S
C475 O468 1.266 . S
Co476 O479 1.970 . S
Co476 N493 1.989 . S
Co476 O501 1.967 . S
Co476 O508 1.920 . S
Co477 O480 1.966 . S
Co477 N486 2.022 1_554 S
Co477 N494 1.993 . S
Co477 O502 1.941 . S
C478 O479 1.258 . S
C478 O480 1.263 . S
O479 Co476 1.970 . S
O479 C478 1.258 . S
O480 Co477 1.966 . S
O480 C478 1.263 . S
C481 O482 1.235 . S
C481 O508 1.289 . S
O482 C481 1.235 . S
C483 C485 1.400 . S
C483 N486 1.351 . S
C483 C488 1.501 . S
C484 C485 1.387 . S
C484 N487 1.341 . S
C485 C483 1.400 . S
C485 C484 1.387 . S
N486 Co477 2.022 1_556 S
N486 C483 1.351 . S
N486 N487 1.365 . S
N487 C484 1.341 . S
N487 N486 1.365 . S
N487 H507 0.862 . S
C488 C483 1.501 . S
C488 H489 0.961 . S
C488 H490 0.961 . S
C488 H491 0.960 . S
H489 C488 0.961 . S
H490 C488 0.961 . S
H491 C488 0.960 . S
C492 N493 1.342 . S
C492 C496 1.401 . S
C492 C497 1.499 . S
N493 Co476 1.989 . S
N493 C492 1.342 . S
N493 N494 1.388 . S
N494 Co477 1.993 . S
N494 N493 1.388 . S
N494 C495 1.346 . S
C495 N494 1.346 . S
C495 C496 1.396 . S
C495 C505 1.510 1_554 S
C496 C492 1.401 . S
C496 C495 1.396 . S
C497 C492 1.499 . S
C497 H498 0.959 . S
C497 H499 0.960 . S
C497 H500 0.961 . S
H498 C497 0.959 . S
H499 C497 0.960 . S
H500 C497 0.961 . S
O501 Co476 1.967 . S
O501 C509 1.258 . S
O502 Co477 1.941 . S
O502 C509 1.266 . S
H503 C505 0.959 . S
H504 C505 0.961 . S
C505 C495 1.510 1_556 S
C505 H503 0.959 . S
C505 H504 0.961 . S
C505 H506 0.960 . S
H506 C505 0.960 . S
H507 N487 0.862 . S
O508 Co476 1.920 . S
O508 C481 1.289 . S
C509 O501 1.258 . S
C509 O502 1.266 . S
Co510 O513 1.970 . S
Co510 N527 1.989 . S
Co510 O535 1.967 . S
Co510 O542 1.920 . S
Co511 O514 1.966 . S
Co511 N520 2.022 . S
Co511 N528 1.993 . S
Co511 O536 1.941 . S
C512 O513 1.258 . S
C512 O514 1.263 . S
O513 Co510 1.970 . S
O513 C512 1.258 . S
O514 Co511 1.966 . S
O514 C512 1.263 . S
C515 O516 1.235 . S
C515 O542 1.289 . S
O516 C515 1.235 . S
C517 C519 1.400 . S
C517 N520 1.351 . S
C517 C522 1.501 . S
C518 C519 1.387 . S
C518 N521 1.341 . S
C519 C517 1.400 . S
C519 C518 1.387 . S
N520 Co511 2.022 . S
N520 C517 1.351 . S
N520 N521 1.365 . S
N521 C518 1.341 . S
N521 N520 1.365 . S
N521 H541 0.862 . S
C522 C517 1.501 . S
C522 H523 0.961 . S
C522 H524 0.961 . S
C522 H525 0.960 . S
H523 C522 0.961 . S
H524 C522 0.961 . S
H525 C522 0.960 . S
C526 N527 1.342 . S
C526 C530 1.401 . S
C526 C531 1.499 . S
N527 Co510 1.989 . S
N527 C526 1.342 . S
N527 N528 1.388 . S
N528 Co511 1.993 . S
N528 N527 1.388 . S
N528 C529 1.346 . S
C529 N528 1.346 . S
C529 C530 1.396 . S
C529 C539 1.510 . S
C530 C526 1.401 . S
C530 C529 1.396 . S
C531 C526 1.499 . S
C531 H532 0.959 . S
C531 H533 0.960 . S
C531 H534 0.961 . S
H532 C531 0.959 . S
H533 C531 0.960 . S
H534 C531 0.961 . S
O535 Co510 1.967 . S
O535 C543 1.258 . S
O536 Co511 1.941 . S
O536 C543 1.266 . S
H537 C539 0.959 . S
H538 C539 0.961 . S
C539 C529 1.510 . S
C539 H537 0.959 . S
C539 H538 0.961 . S
C539 H540 0.960 . S
H540 C539 0.960 . S
H541 N521 0.862 . S
O542 Co510 1.920 . S
O542 C515 1.289 . S
C543 O535 1.258 . S
C543 O536 1.266 . S
Co544 O547 1.970 . S
Co544 N561 1.989 . S
Co544 O569 1.967 . S
Co544 O576 1.920 . S
Co545 O548 1.966 . S
Co545 N554 2.022 . S
Co545 N562 1.993 . S
Co545 O570 1.941 . S
C546 O547 1.258 . S
C546 O548 1.263 . S
O547 Co544 1.970 . S
O547 C546 1.258 . S
O548 Co545 1.966 . S
O548 C546 1.263 . S
C549 O550 1.235 . S
C549 O576 1.289 . S
O550 C549 1.235 . S
C551 C553 1.400 . S
C551 N554 1.351 . S
C551 C556 1.501 . S
C552 C553 1.387 . S
C552 N555 1.341 . S
C553 C551 1.400 . S
C553 C552 1.387 . S
N554 Co545 2.022 . S
N554 C551 1.351 . S
N554 N555 1.365 . S
N555 C552 1.341 . S
N555 N554 1.365 . S
N555 H575 0.862 . S
C556 C551 1.501 . S
C556 H557 0.961 . S
C556 H558 0.961 . S
C556 H559 0.960 . S
H557 C556 0.961 . S
H558 C556 0.961 . S
H559 C556 0.960 . S
C560 N561 1.342 . S
C560 C564 1.401 . S
C560 C565 1.499 . S
N561 Co544 1.989 . S
N561 C560 1.342 . S
N561 N562 1.388 . S
N562 Co545 1.993 . S
N562 N561 1.388 . S
N562 C563 1.346 . S
C563 N562 1.346 . S
C563 C564 1.396 . S
C563 C573 1.510 . S
C564 C560 1.401 . S
C564 C563 1.396 . S
C565 C560 1.499 . S
C565 H566 0.959 . S
C565 H567 0.960 . S
C565 H568 0.961 . S
H566 C565 0.959 . S
H567 C565 0.960 . S
H568 C565 0.961 . S
O569 Co544 1.967 . S
O569 C577 1.258 . S
O570 Co545 1.941 . S
O570 C577 1.266 . S
H571 C573 0.959 . S
H572 C573 0.961 . S
C573 C563 1.510 . S
C573 H571 0.959 . S
C573 H572 0.961 . S
C573 H574 0.960 . S
H574 C573 0.960 . S
H575 N555 0.862 . S
O576 Co544 1.920 . S
O576 C549 1.289 . S
C577 O569 1.258 . S
C577 O570 1.266 . S
Co578 O581 1.970 . S
Co578 N595 1.989 . S
Co578 O603 1.967 . S
Co578 O610 1.920 . S
Co579 O582 1.966 . S
Co579 N588 2.022 . S
Co579 N596 1.993 . S
Co579 O604 1.941 . S
C580 O581 1.258 . S
C580 O582 1.263 . S
O581 Co578 1.970 . S
O581 C580 1.258 . S
O582 Co579 1.966 . S
O582 C580 1.263 . S
C583 O584 1.235 . S
C583 O610 1.289 . S
O584 C583 1.235 . S
C585 C587 1.400 . S
C585 N588 1.351 . S
C585 C590 1.501 . S
C586 C587 1.387 . S
C586 N589 1.341 . S
C587 C585 1.400 . S
C587 C586 1.387 . S
N588 Co579 2.022 . S
N588 C585 1.351 . S
N588 N589 1.365 . S
N589 C586 1.341 . S
N589 N588 1.365 . S
N589 H609 0.862 . S
C590 C585 1.501 . S
C590 H591 0.961 . S
C590 H592 0.961 . S
C590 H593 0.960 . S
H591 C590 0.961 . S
H592 C590 0.961 . S
H593 C590 0.960 . S
C594 N595 1.342 . S
C594 C598 1.401 . S
C594 C599 1.499 . S
N595 Co578 1.989 . S
N595 C594 1.342 . S
N595 N596 1.388 . S
N596 Co579 1.993 . S
N596 N595 1.388 . S
N596 C597 1.346 . S
C597 N596 1.346 . S
C597 C598 1.396 . S
C597 C607 1.510 . S
C598 C594 1.401 . S
C598 C597 1.396 . S
C599 C594 1.499 . S
C599 H600 0.959 . S
C599 H601 0.960 . S
C599 H602 0.961 . S
H600 C599 0.959 . S
H601 C599 0.960 . S
H602 C599 0.961 . S
O603 Co578 1.967 . S
O603 C611 1.258 . S
O604 Co579 1.941 . S
O604 C611 1.266 . S
H605 C607 0.959 . S
H606 C607 0.961 . S
C607 C597 1.510 . S
C607 H605 0.959 . S
C607 H606 0.961 . S
C607 H608 0.960 . S
H608 C607 0.960 . S
H609 N589 0.862 . S
O610 Co578 1.920 . S
O610 C583 1.289 . S
C611 O603 1.258 . S
C611 O604 1.266 . S
H612 C630 0.951 . S
H613 C632 0.951 . S
H614 C634 0.950 . S
H615 C635 0.950 . S
H616 C637 0.950 . S
H617 C640 0.950 . S
H618 C641 0.950 . S
H619 C643 0.950 . S
H620 C644 0.950 . S
H621 C645 0.951 . S
H622 C647 0.951 . S
H623 C649 0.950 . S
H624 C650 0.950 . S
H625 C652 0.950 . S
H626 C655 0.950 . S
H627 C656 0.950 . S
H628 C658 0.950 . S
H629 C659 0.950 . S
C630 H612 0.951 . S
C630 C631 1.366 . S
C630 C632 1.388 . S
C631 C630 1.366 . S
C631 C635 1.385 . S
C632 H613 0.951 . S
C632 C630 1.388 . S
C632 C633 1.366 . S
C633 C632 1.366 . S
C633 C634 1.414 . S
C633 C636 1.499 . S
C634 H614 0.950 . S
C634 C633 1.414 . S
C634 C635 1.374 . S
C635 H615 0.950 . S
C635 C631 1.385 . S
C635 C634 1.374 . S
C636 C633 1.499 . S
C636 C637 1.373 . S
C636 C638 1.389 . S
C637 H616 0.950 . S
C637 C636 1.373 . S
C637 C653 1.377 . S
C638 C636 1.389 . S
C638 C639 1.524 . S
C638 C652 1.377 . S
C639 C638 1.524 . S
C639 C640 1.397 . S
C639 C644 1.363 . S
C640 H617 0.950 . S
C640 C639 1.397 . S
C640 C641 1.334 . S
C641 H618 0.950 . S
C641 C640 1.334 . S
C641 C642 1.287 . S
C642 C641 1.287 . S
C642 C643 1.524 . S
C642 H661 0.913 . S
C643 H619 0.950 . S
C643 C642 1.524 . S
C643 C644 1.415 . S
C644 H620 0.950 . S
C644 C639 1.363 . S
C644 C643 1.415 . S
C645 H621 0.951 . S
C645 C646 1.366 . S
C645 C647 1.388 . S
C646 C645 1.366 . S
C646 C650 1.385 . S
C647 H622 0.951 . S
C647 C645 1.388 . S
C647 C648 1.366 . S
C648 C647 1.366 . S
C648 C649 1.414 . S
C648 C651 1.499 . S
C649 H623 0.950 . S
C649 C648 1.414 . S
C649 C650 1.374 . S
C650 H624 0.950 . S
C650 C646 1.385 . S
C650 C649 1.374 . S
C651 C648 1.499 . S
C651 C652 1.373 . S
C651 C653 1.389 . S
C652 H625 0.950 . S
C652 C638 1.377 . S
C652 C651 1.373 . S
C653 C637 1.377 . S
C653 C651 1.389 . S
C653 C654 1.524 . S
C654 C653 1.524 . S
C654 C655 1.397 . S
C654 C659 1.363 . S
C655 H626 0.950 . S
C655 C654 1.397 . S
C655 C656 1.334 . S
C656 H627 0.950 . S
C656 C655 1.334 . S
C656 C657 1.287 . S
C657 C656 1.287 . S
C657 C658 1.524 . S
C657 H660 0.999 . S
C658 H628 0.950 . S
C658 C657 1.524 . S
C658 C659 1.415 . S
C659 H629 0.950 . S
C659 C654 1.363 . S
C659 C658 1.415 . S
H660 C657 0.999 . S
H661 C642 0.913 . S
H662 C680 0.951 . S
H663 C682 0.951 . S
H664 C684 0.950 . S
H665 C685 0.950 . S
H666 C687 0.950 . S
H667 C690 0.950 . S
H668 C691 0.950 . S
H669 C693 0.950 . S
H670 C694 0.950 . S
H671 C695 0.951 . S
H672 C697 0.951 . S
H673 C699 0.950 . S
H674 C700 0.950 . S
H675 C702 0.950 . S
H676 C705 0.950 . S
H677 C706 0.950 . S
H678 C708 0.950 . S
H679 C709 0.950 . S
C680 H662 0.951 . S
C680 C681 1.366 . S
C680 C682 1.388 . S
C681 C680 1.366 . S
C681 C685 1.385 . S
C682 H663 0.951 . S
C682 C680 1.388 . S
C682 C683 1.366 . S
C683 C682 1.366 . S
C683 C684 1.414 . S
C683 C686 1.499 . S
C684 H664 0.950 . S
C684 C683 1.414 . S
C684 C685 1.374 . S
C685 H665 0.950 . S
C685 C681 1.385 . S
C685 C684 1.374 . S
C686 C683 1.499 . S
C686 C687 1.373 . S
C686 C688 1.389 . S
C687 H666 0.950 . S
C687 C686 1.373 . S
C687 C703 1.377 1_545 S
C688 C686 1.389 . S
C688 C689 1.524 . S
C688 C702 1.377 1_545 S
C689 C688 1.524 . S
C689 C690 1.397 . S
C689 C694 1.363 . S
C690 H667 0.950 . S
C690 C689 1.397 . S
C690 C691 1.334 . S
C691 H668 0.950 . S
C691 C690 1.334 . S
C691 C692 1.287 . S
C692 C691 1.287 . S
C692 C693 1.524 . S
C692 H711 0.913 . S
C693 H669 0.950 . S
C693 C692 1.524 . S
C693 C694 1.415 . S
C694 H670 0.950 . S
C694 C689 1.363 . S
C694 C693 1.415 . S
C695 H671 0.951 . S
C695 C696 1.366 . S
C695 C697 1.388 . S
C696 C695 1.366 . S
C696 C700 1.385 . S
C697 H672 0.951 . S
C697 C695 1.388 . S
C697 C698 1.366 . S
C698 C697 1.366 . S
C698 C699 1.414 . S
C698 C701 1.499 . S
C699 H673 0.950 . S
C699 C698 1.414 . S
C699 C700 1.374 . S
C700 H674 0.950 . S
C700 C696 1.385 . S
C700 C699 1.374 . S
C701 C698 1.499 . S
C701 C702 1.373 . S
C701 C703 1.389 . S
C702 H675 0.950 . S
C702 C688 1.377 1_565 S
C702 C701 1.373 . S
C703 C687 1.377 1_565 S
C703 C701 1.389 . S
C703 C704 1.524 . S
C704 C703 1.524 . S
C704 C705 1.397 . S
C704 C709 1.363 . S
C705 H676 0.950 . S
C705 C704 1.397 . S
C705 C706 1.334 . S
C706 H677 0.950 . S
C706 C705 1.334 . S
C706 C707 1.287 . S
C707 C706 1.287 . S
C707 C708 1.524 . S
C707 H710 0.999 . S
C708 H678 0.950 . S
C708 C707 1.524 . S
C708 C709 1.415 . S
C709 H679 0.950 . S
C709 C704 1.363 . S
C709 C708 1.415 . S
H710 C707 0.999 . S
H711 C692 0.913 . S
H712 C730 0.951 . S
H713 C732 0.951 . S
H714 C734 0.950 . S
H715 C735 0.950 . S
H716 C737 0.950 . S
H717 C740 0.950 . S
H718 C741 0.950 . S
H719 C743 0.950 . S
H720 C744 0.950 . S
H721 C745 0.951 . S
H722 C747 0.951 . S
H723 C749 0.950 . S
H724 C750 0.950 . S
H725 C752 0.950 . S
H726 C755 0.950 . S
H727 C756 0.950 . S
H728 C758 0.950 . S
H729 C759 0.950 . S
C730 H712 0.951 . S
C730 C731 1.366 . S
C730 C732 1.388 . S
C731 C730 1.366 . S
C731 C735 1.385 . S
C732 H713 0.951 . S
C732 C730 1.388 . S
C732 C733 1.366 . S
C733 C732 1.366 . S
C733 C734 1.414 . S
C733 C736 1.499 . S
C734 H714 0.950 . S
C734 C733 1.414 . S
C734 C735 1.374 . S
C735 H715 0.950 . S
C735 C731 1.385 . S
C735 C734 1.374 . S
C736 C733 1.499 . S
C736 C737 1.373 . S
C736 C738 1.389 . S
C737 H716 0.950 . S
C737 C736 1.373 . S
C737 C753 1.377 1_655 S
C738 C736 1.389 . S
C738 C739 1.524 . S
C738 C752 1.377 1_655 S
C739 C738 1.524 . S
C739 C740 1.397 . S
C739 C744 1.363 . S
C740 H717 0.950 . S
C740 C739 1.397 . S
C740 C741 1.334 . S
C741 H718 0.950 . S
C741 C740 1.334 . S
C741 C742 1.287 . S
C742 C741 1.287 . S
C742 C743 1.524 . S
C742 H761 0.913 . S
C743 H719 0.950 . S
C743 C742 1.524 . S
C743 C744 1.415 . S
C744 H720 0.950 . S
C744 C739 1.363 . S
C744 C743 1.415 . S
C745 H721 0.951 . S
C745 C746 1.366 . S
C745 C747 1.388 . S
C746 C745 1.366 . S
C746 C750 1.385 . S
C747 H722 0.951 . S
C747 C745 1.388 . S
C747 C748 1.366 . S
C748 C747 1.366 . S
C748 C749 1.414 . S
C748 C751 1.499 . S
C749 H723 0.950 . S
C749 C748 1.414 . S
C749 C750 1.374 . S
C750 H724 0.950 . S
C750 C746 1.385 . S
C750 C749 1.374 . S
C751 C748 1.499 . S
C751 C752 1.373 . S
C751 C753 1.389 . S
C752 H725 0.950 . S
C752 C738 1.377 1_455 S
C752 C751 1.373 . S
C753 C737 1.377 1_455 S
C753 C751 1.389 . S
C753 C754 1.524 . S
C754 C753 1.524 . S
C754 C755 1.397 . S
C754 C759 1.363 . S
C755 H726 0.950 . S
C755 C754 1.397 . S
C755 C756 1.334 . S
C756 H727 0.950 . S
C756 C755 1.334 . S
C756 C757 1.287 . S
C757 C756 1.287 . S
C757 C758 1.524 . S
C757 H760 0.999 . S
C758 H728 0.950 . S
C758 C757 1.524 . S
C758 C759 1.415 . S
C759 H729 0.950 . S
C759 C754 1.363 . S
C759 C758 1.415 . S
H760 C757 0.999 . S
H761 C742 0.913 . S
H762 C780 0.951 . S
H763 C782 0.951 . S
H764 C784 0.950 . S
H765 C785 0.950 . S
H766 C787 0.950 . S
H767 C790 0.950 . S
H768 C791 0.950 . S
H769 C793 0.950 . S
H770 C794 0.950 . S
H771 C795 0.951 . S
H772 C797 0.951 . S
H773 C799 0.950 . S
H774 C800 0.950 . S
H775 C802 0.950 . S
H776 C805 0.950 . S
H777 C806 0.950 . S
H778 C808 0.950 . S
H779 C809 0.950 . S
C780 H762 0.951 . S
C780 C781 1.366 . S
C780 C782 1.388 . S
C781 C780 1.366 . S
C781 C785 1.385 . S
C782 H763 0.951 . S
C782 C780 1.388 . S
C782 C783 1.366 . S
C783 C782 1.366 . S
C783 C784 1.414 . S
C783 C786 1.499 . S
C784 H764 0.950 . S
C784 C783 1.414 . S
C784 C785 1.374 . S
C785 H765 0.950 . S
C785 C781 1.385 . S
C785 C784 1.374 . S
C786 C783 1.499 . S
C786 C787 1.373 . S
C786 C788 1.389 . S
C787 H766 0.950 . S
C787 C786 1.373 . S
C787 C803 1.377 . S
C788 C786 1.389 . S
C788 C789 1.524 . S
C788 C802 1.377 . S
C789 C788 1.524 . S
C789 C790 1.397 . S
C789 C794 1.363 . S
C790 H767 0.950 . S
C790 C789 1.397 . S
C790 C791 1.334 . S
C791 H768 0.950 . S
C791 C790 1.334 . S
C791 C792 1.287 . S
C792 C791 1.287 . S
C792 C793 1.524 . S
C792 H811 0.913 . S
C793 H769 0.950 . S
C793 C792 1.524 . S
C793 C794 1.415 . S
C794 H770 0.950 . S
C794 C789 1.363 . S
C794 C793 1.415 . S
C795 H771 0.951 . S
C795 C796 1.366 . S
C795 C797 1.388 . S
C796 C795 1.366 . S
C796 C800 1.385 . S
C797 H772 0.951 . S
C797 C795 1.388 . S
C797 C798 1.366 . S
C798 C797 1.366 . S
C798 C799 1.414 . S
C798 C801 1.499 . S
C799 H773 0.950 . S
C799 C798 1.414 . S
C799 C800 1.374 . S
C800 H774 0.950 . S
C800 C796 1.385 . S
C800 C799 1.374 . S
C801 C798 1.499 . S
C801 C802 1.373 . S
C801 C803 1.389 . S
C802 H775 0.950 . S
C802 C788 1.377 . S
C802 C801 1.373 . S
C803 C787 1.377 . S
C803 C801 1.389 . S
C803 C804 1.524 . S
C804 C803 1.524 . S
C804 C805 1.397 . S
C804 C809 1.363 . S
C805 H776 0.950 . S
C805 C804 1.397 . S
C805 C806 1.334 . S
C806 H777 0.950 . S
C806 C805 1.334 . S
C806 C807 1.287 . S
C807 C806 1.287 . S
C807 C808 1.524 . S
C807 H810 0.999 . S
C808 H778 0.950 . S
C808 C807 1.524 . S
C808 C809 1.415 . S
C809 H779 0.950 . S
C809 C804 1.363 . S
C809 C808 1.415 . S
H810 C807 0.999 . S
H811 C792 0.913 . S
H812 C830 0.951 . S
H813 C832 0.951 . S
H814 C834 0.950 . S
H815 C835 0.950 . S
H816 C837 0.950 . S
H817 C840 0.950 . S
H818 C841 0.950 . S
H819 C843 0.950 . S
H820 C844 0.950 . S
H821 C845 0.951 . S
H822 C847 0.951 . S
H823 C849 0.950 . S
H824 C850 0.950 . S
H825 C852 0.950 . S
H826 C855 0.950 . S
H827 C856 0.950 . S
H828 C858 0.950 . S
H829 C859 0.950 . S
C830 H812 0.951 . S
C830 C831 1.366 . S
C830 C832 1.388 . S
C831 C830 1.366 . S
C831 C835 1.385 . S
C832 H813 0.951 . S
C832 C830 1.388 . S
C832 C833 1.366 . S
C833 C832 1.366 . S
C833 C834 1.414 . S
C833 C836 1.499 . S
C834 H814 0.950 . S
C834 C833 1.414 . S
C834 C835 1.374 . S
C835 H815 0.950 . S
C835 C831 1.385 . S
C835 C834 1.374 . S
C836 C833 1.499 . S
C836 C837 1.373 . S
C836 C838 1.389 . S
C837 H816 0.950 . S
C837 C836 1.373 . S
C837 C853 1.377 1_545 S
C838 C836 1.389 . S
C838 C839 1.524 . S
C838 C852 1.377 1_545 S
C839 C838 1.524 . S
C839 C840 1.397 . S
C839 C844 1.363 . S
C840 H817 0.950 . S
C840 C839 1.397 . S
C840 C841 1.334 . S
C841 H818 0.950 . S
C841 C840 1.334 . S
C841 C842 1.287 . S
C842 C841 1.287 . S
C842 C843 1.524 . S
C842 H861 0.913 . S
C843 H819 0.950 . S
C843 C842 1.524 . S
C843 C844 1.415 . S
C844 H820 0.950 . S
C844 C839 1.363 . S
C844 C843 1.415 . S
C845 H821 0.951 . S
C845 C846 1.366 . S
C845 C847 1.388 . S
C846 C845 1.366 . S
C846 C850 1.385 . S
C847 H822 0.951 . S
C847 C845 1.388 . S
C847 C848 1.366 . S
C848 C847 1.366 . S
C848 C849 1.414 . S
C848 C851 1.499 . S
C849 H823 0.950 . S
C849 C848 1.414 . S
C849 C850 1.374 . S
C850 H824 0.950 . S
C850 C846 1.385 . S
C850 C849 1.374 . S
C851 C848 1.499 . S
C851 C852 1.373 . S
C851 C853 1.389 . S
C852 H825 0.950 . S
C852 C838 1.377 1_565 S
C852 C851 1.373 . S
C853 C837 1.377 1_565 S
C853 C851 1.389 . S
C853 C854 1.524 . S
C854 C853 1.524 . S
C854 C855 1.397 . S
C854 C859 1.363 . S
C855 H826 0.950 . S
C855 C854 1.397 . S
C855 C856 1.334 . S
C856 H827 0.950 . S
C856 C855 1.334 . S
C856 C857 1.287 . S
C857 C856 1.287 . S
C857 C858 1.524 . S
C857 H860 0.999 . S
C858 H828 0.950 . S
C858 C857 1.524 . S
C858 C859 1.415 . S
C859 H829 0.950 . S
C859 C854 1.363 . S
C859 C858 1.415 . S
H860 C857 0.999 . S
H861 C842 0.913 . S
H862 C880 0.951 . S
H863 C882 0.951 . S
H864 C884 0.950 . S
H865 C885 0.950 . S
H866 C887 0.950 . S
H867 C890 0.950 . S
H868 C891 0.950 . S
H869 C893 0.950 . S
H870 C894 0.950 . S
H871 C895 0.951 . S
H872 C897 0.951 . S
H873 C899 0.950 . S
H874 C900 0.950 . S
H875 C902 0.950 . S
H876 C905 0.950 . S
H877 C906 0.950 . S
H878 C908 0.950 . S
H879 C909 0.950 . S
C880 H862 0.951 . S
C880 C881 1.366 . S
C880 C882 1.388 . S
C881 C880 1.366 . S
C881 C885 1.385 . S
C882 H863 0.951 . S
C882 C880 1.388 . S
C882 C883 1.366 . S
C883 C882 1.366 . S
C883 C884 1.414 . S
C883 C886 1.499 . S
C884 H864 0.950 . S
C884 C883 1.414 . S
C884 C885 1.374 . S
C885 H865 0.950 . S
C885 C881 1.385 . S
C885 C884 1.374 . S
C886 C883 1.499 . S
C886 C887 1.373 . S
C886 C888 1.389 . S
C887 H866 0.950 . S
C887 C886 1.373 . S
C887 C903 1.377 1_655 S
C888 C886 1.389 . S
C888 C889 1.524 . S
C888 C902 1.377 1_655 S
C889 C888 1.524 . S
C889 C890 1.397 . S
C889 C894 1.363 . S
C890 H867 0.950 . S
C890 C889 1.397 . S
C890 C891 1.334 . S
C891 H868 0.950 . S
C891 C890 1.334 . S
C891 C892 1.287 . S
C892 C891 1.287 . S
C892 C893 1.524 . S
C892 H911 0.913 . S
C893 H869 0.950 . S
C893 C892 1.524 . S
C893 C894 1.415 . S
C894 H870 0.950 . S
C894 C889 1.363 . S
C894 C893 1.415 . S
C895 H871 0.951 . S
C895 C896 1.366 . S
C895 C897 1.388 . S
C896 C895 1.366 . S
C896 C900 1.385 . S
C897 H872 0.951 . S
C897 C895 1.388 . S
C897 C898 1.366 . S
C898 C897 1.366 . S
C898 C899 1.414 . S
C898 C901 1.499 . S
C899 H873 0.950 . S
C899 C898 1.414 . S
C899 C900 1.374 . S
C900 H874 0.950 . S
C900 C896 1.385 . S
C900 C899 1.374 . S
C901 C898 1.499 . S
C901 C902 1.373 . S
C901 C903 1.389 . S
C902 H875 0.950 . S
C902 C888 1.377 1_455 S
C902 C901 1.373 . S
C903 C887 1.377 1_455 S
C903 C901 1.389 . S
C903 C904 1.524 . S
C904 C903 1.524 . S
C904 C905 1.397 . S
C904 C909 1.363 . S
C905 H876 0.950 . S
C905 C904 1.397 . S
C905 C906 1.334 . S
C906 H877 0.950 . S
C906 C905 1.334 . S
C906 C907 1.287 . S
C907 C906 1.287 . S
C907 C908 1.524 . S
C907 H910 0.999 . S
C908 H878 0.950 . S
C908 C907 1.524 . S
C908 C909 1.415 . S
C909 H879 0.950 . S
C909 C904 1.363 . S
C909 C908 1.415 . S
H910 C907 0.999 . S
H911 C892 0.913 . S
H912 C930 0.951 . S
H913 C932 0.951 . S
H914 C934 0.950 . S
H915 C935 0.950 . S
H916 C937 0.950 . S
H917 C940 0.950 . S
H918 C941 0.950 . S
H919 C943 0.950 . S
H920 C944 0.950 . S
H921 C945 0.951 . S
H922 C947 0.951 . S
H923 C949 0.950 . S
H924 C950 0.950 . S
H925 C952 0.950 . S
H926 C955 0.950 . S
H927 C956 0.950 . S
H928 C958 0.950 . S
H929 C959 0.950 . S
C930 H912 0.951 . S
C930 C931 1.366 . S
C930 C932 1.388 . S
C931 C930 1.366 . S
C931 C935 1.385 . S
C932 H913 0.951 . S
C932 C930 1.388 . S
C932 C933 1.366 . S
C933 C932 1.366 . S
C933 C934 1.414 . S
C933 C936 1.499 . S
C934 H914 0.950 . S
C934 C933 1.414 . S
C934 C935 1.374 . S
C935 H915 0.950 . S
C935 C931 1.385 . S
C935 C934 1.374 . S
C936 C933 1.499 . S
C936 C937 1.373 . S
C936 C938 1.389 . S
C937 H916 0.950 . S
C937 C936 1.373 . S
C937 C953 1.377 . S
C938 C936 1.389 . S
C938 C939 1.524 . S
C938 C952 1.377 . S
C939 C938 1.524 . S
C939 C940 1.397 . S
C939 C944 1.363 . S
C940 H917 0.950 . S
C940 C939 1.397 . S
C940 C941 1.334 . S
C941 H918 0.950 . S
C941 C940 1.334 . S
C941 C942 1.287 . S
C942 C941 1.287 . S
C942 C943 1.524 . S
C942 H961 0.913 . S
C943 H919 0.950 . S
C943 C942 1.524 . S
C943 C944 1.415 . S
C944 H920 0.950 . S
C944 C939 1.363 . S
C944 C943 1.415 . S
C945 H921 0.951 . S
C945 C946 1.366 . S
C945 C947 1.388 . S
C946 C945 1.366 . S
C946 C950 1.385 . S
C947 H922 0.951 . S
C947 C945 1.388 . S
C947 C948 1.366 . S
C948 C947 1.366 . S
C948 C949 1.414 . S
C948 C951 1.499 . S
C949 H923 0.950 . S
C949 C948 1.414 . S
C949 C950 1.374 . S
C950 H924 0.950 . S
C950 C946 1.385 . S
C950 C949 1.374 . S
C951 C948 1.499 . S
C951 C952 1.373 . S
C951 C953 1.389 . S
C952 H925 0.950 . S
C952 C938 1.377 . S
C952 C951 1.373 . S
C953 C937 1.377 . S
C953 C951 1.389 . S
C953 C954 1.524 . S
C954 C953 1.524 . S
C954 C955 1.397 . S
C954 C959 1.363 . S
C955 H926 0.950 . S
C955 C954 1.397 . S
C955 C956 1.334 . S
C956 H927 0.950 . S
C956 C955 1.334 . S
C956 C957 1.287 . S
C957 C956 1.287 . S
C957 C958 1.524 . S
C957 H960 0.999 . S
C958 H928 0.950 . S
C958 C957 1.524 . S
C958 C959 1.415 . S
C959 H929 0.950 . S
C959 C954 1.363 . S
C959 C958 1.415 . S
H960 C957 0.999 . S
H961 C942 0.913 . S
H962 C980 0.951 . S
H963 C982 0.951 . S
H964 C984 0.950 . S
H965 C985 0.950 . S
H966 C987 0.950 . S
H967 C990 0.950 . S
H968 C991 0.950 . S
H969 C993 0.950 . S
H970 C994 0.950 . S
H971 C995 0.951 . S
H972 C997 0.951 . S
H973 C999 0.950 . S
H974 C1000 0.950 . S
H975 C1002 0.950 . S
H976 C1005 0.950 . S
H977 C1006 0.950 . S
H978 C1008 0.950 . S
H979 C1009 0.950 . S
C980 H962 0.951 . S
C980 C981 1.366 . S
C980 C982 1.388 . S
C981 C980 1.366 . S
C981 C985 1.385 . S
C982 H963 0.951 . S
C982 C980 1.388 . S
C982 C983 1.366 . S
C983 C982 1.366 . S
C983 C984 1.414 . S
C983 C986 1.499 . S
C984 H964 0.950 . S
C984 C983 1.414 . S
C984 C985 1.374 . S
C985 H965 0.950 . S
C985 C981 1.385 . S
C985 C984 1.374 . S
C986 C983 1.499 . S
C986 C987 1.373 . S
C986 C988 1.389 . S
C987 H966 0.950 . S
C987 C986 1.373 . S
C987 C1003 1.377 . S
C988 C986 1.389 . S
C988 C989 1.524 . S
C988 C1002 1.377 . S
C989 C988 1.524 . S
C989 C990 1.397 . S
C989 C994 1.363 . S
C990 H967 0.950 . S
C990 C989 1.397 . S
C990 C991 1.334 . S
C991 H968 0.950 . S
C991 C990 1.334 . S
C991 C992 1.287 . S
C992 C991 1.287 . S
C992 C993 1.524 . S
C992 H1011 0.913 . S
C993 H969 0.950 . S
C993 C992 1.524 . S
C993 C994 1.415 . S
C994 H970 0.950 . S
C994 C989 1.363 . S
C994 C993 1.415 . S
C995 H971 0.951 . S
C995 C996 1.366 . S
C995 C997 1.388 . S
C996 C995 1.366 . S
C996 C1000 1.385 . S
C997 H972 0.951 . S
C997 C995 1.388 . S
C997 C998 1.366 . S
C998 C997 1.366 . S
C998 C999 1.414 . S
C998 C1001 1.499 . S
C999 H973 0.950 . S
C999 C998 1.414 . S
C999 C1000 1.374 . S
C1000 H974 0.950 . S
C1000 C996 1.385 . S
C1000 C999 1.374 . S
C1001 C998 1.499 . S
C1001 C1002 1.373 . S
C1001 C1003 1.389 . S
C1002 H975 0.950 . S
C1002 C988 1.377 . S
C1002 C1001 1.373 . S
C1003 C987 1.377 . S
C1003 C1001 1.389 . S
C1003 C1004 1.524 . S
C1004 C1003 1.524 . S
C1004 C1005 1.397 . S
C1004 C1009 1.363 . S
C1005 H976 0.950 . S
C1005 C1004 1.397 . S
C1005 C1006 1.334 . S
C1006 H977 0.950 . S
C1006 C1005 1.334 . S
C1006 C1007 1.287 . S
C1007 C1006 1.287 . S
C1007 C1008 1.524 . S
C1007 H1010 0.999 . S
C1008 H978 0.950 . S
C1008 C1007 1.524 . S
C1008 C1009 1.415 . S
C1009 H979 0.950 . S
C1009 C1004 1.363 . S
C1009 C1008 1.415 . S
H1010 C1007 0.999 . S
H1011 C992 0.913 . S
H1012 C1030 0.951 . S
H1013 C1032 0.951 . S
H1014 C1034 0.950 . S
H1015 C1035 0.950 . S
H1016 C1037 0.950 . S
H1017 C1040 0.950 . S
H1018 C1041 0.950 . S
H1019 C1043 0.950 . S
H1020 C1044 0.950 . S
H1021 C1045 0.951 . S
H1022 C1047 0.951 . S
H1023 C1049 0.950 . S
H1024 C1050 0.950 . S
H1025 C1052 0.950 . S
H1026 C1055 0.950 . S
H1027 C1056 0.950 1_554 S
H1028 C1058 0.950 . S
H1029 C1059 0.950 . S
C1030 H1012 0.951 . S
C1030 C1031 1.366 . S
C1030 C1032 1.388 . S
C1031 C1030 1.366 . S
C1031 C1035 1.385 . S
C1032 H1013 0.951 . S
C1032 C1030 1.388 . S
C1032 C1033 1.366 . S
C1033 C1032 1.366 . S
C1033 C1034 1.414 . S
C1033 C1036 1.499 . S
C1034 H1014 0.950 . S
C1034 C1033 1.414 . S
C1034 C1035 1.374 . S
C1035 H1015 0.950 . S
C1035 C1031 1.385 . S
C1035 C1034 1.374 . S
C1036 C1033 1.499 . S
C1036 C1037 1.373 . S
C1036 C1038 1.389 . S
C1037 H1016 0.950 . S
C1037 C1036 1.373 . S
C1037 C1053 1.377 . S
C1038 C1036 1.389 . S
C1038 C1039 1.524 . S
C1038 C1052 1.377 . S
C1039 C1038 1.524 . S
C1039 C1040 1.397 . S
C1039 C1044 1.363 . S
C1040 H1017 0.950 . S
C1040 C1039 1.397 . S
C1040 C1041 1.334 . S
C1041 H1018 0.950 . S
C1041 C1040 1.334 . S
C1041 C1042 1.287 . S
C1042 C1041 1.287 . S
C1042 C1043 1.524 . S
C1042 H1061 0.913 . S
C1043 H1019 0.950 . S
C1043 C1042 1.524 . S
C1043 C1044 1.415 . S
C1044 H1020 0.950 . S
C1044 C1039 1.363 . S
C1044 C1043 1.415 . S
C1045 H1021 0.951 . S
C1045 C1046 1.366 . S
C1045 C1047 1.388 . S
C1046 C1045 1.366 . S
C1046 C1050 1.385 . S
C1047 H1022 0.951 . S
C1047 C1045 1.388 . S
C1047 C1048 1.366 . S
C1048 C1047 1.366 . S
C1048 C1049 1.414 . S
C1048 C1051 1.499 . S
C1049 H1023 0.950 . S
C1049 C1048 1.414 . S
C1049 C1050 1.374 . S
C1050 H1024 0.950 . S
C1050 C1046 1.385 . S
C1050 C1049 1.374 . S
C1051 C1048 1.499 . S
C1051 C1052 1.373 . S
C1051 C1053 1.389 . S
C1052 H1025 0.950 . S
C1052 C1038 1.377 . S
C1052 C1051 1.373 . S
C1053 C1037 1.377 . S
C1053 C1051 1.389 . S
C1053 C1054 1.524 . S
C1054 C1053 1.524 . S
C1054 C1055 1.397 . S
C1054 C1059 1.363 . S
C1055 H1026 0.950 . S
C1055 C1054 1.397 . S
C1055 C1056 1.334 . S
C1056 H1027 0.950 1_556 S
C1056 C1055 1.334 . S
C1056 C1057 1.287 . S
C1057 C1056 1.287 . S
C1057 C1058 1.524 . S
C1057 H1060 0.999 . S
C1058 H1028 0.950 . S
C1058 C1057 1.524 . S
C1058 C1059 1.415 . S
C1059 H1029 0.950 . S
C1059 C1054 1.363 . S
C1059 C1058 1.415 . S
H1060 C1057 0.999 . S
H1061 C1042 0.913 . S
H1062 C1080 0.951 . S
H1063 C1082 0.951 . S
H1064 C1084 0.950 . S
H1065 C1085 0.950 . S
H1066 C1087 0.950 . S
H1067 C1090 0.950 . S
H1068 C1091 0.950 . S
H1069 C1093 0.950 . S
H1070 C1094 0.950 . S
H1071 C1095 0.951 . S
H1072 C1097 0.951 . S
H1073 C1099 0.950 . S
H1074 C1100 0.950 . S
H1075 C1102 0.950 . S
H1076 C1105 0.950 . S
H1077 C1106 0.950 . S
H1078 C1108 0.950 . S
H1079 C1109 0.950 . S
C1080 H1062 0.951 . S
C1080 C1081 1.366 . S
C1080 C1082 1.388 . S
C1081 C1080 1.366 . S
C1081 C1085 1.385 . S
C1082 H1063 0.951 . S
C1082 C1080 1.388 . S
C1082 C1083 1.366 . S
C1083 C1082 1.366 . S
C1083 C1084 1.414 . S
C1083 C1086 1.499 . S
C1084 H1064 0.950 . S
C1084 C1083 1.414 . S
C1084 C1085 1.374 . S
C1085 H1065 0.950 . S
C1085 C1081 1.385 . S
C1085 C1084 1.374 . S
C1086 C1083 1.499 . S
C1086 C1087 1.373 . S
C1086 C1088 1.389 . S
C1087 H1066 0.950 . S
C1087 C1086 1.373 . S
C1087 C1103 1.377 . S
C1088 C1086 1.389 . S
C1088 C1089 1.524 . S
C1088 C1102 1.377 . S
C1089 C1088 1.524 . S
C1089 C1090 1.397 . S
C1089 C1094 1.363 . S
C1090 H1067 0.950 . S
C1090 C1089 1.397 . S
C1090 C1091 1.334 . S
C1091 H1068 0.950 . S
C1091 C1090 1.334 . S
C1091 C1092 1.287 1_556 S
C1092 C1091 1.287 1_554 S
C1092 C1093 1.524 . S
C1092 H1111 0.913 . S
C1093 H1069 0.950 . S
C1093 C1092 1.524 . S
C1093 C1094 1.415 1_554 S
C1094 H1070 0.950 . S
C1094 C1089 1.363 . S
C1094 C1093 1.415 1_556 S
C1095 H1071 0.951 . S
C1095 C1096 1.366 . S
C1095 C1097 1.388 . S
C1096 C1095 1.366 . S
C1096 C1100 1.385 . S
C1097 H1072 0.951 . S
C1097 C1095 1.388 . S
C1097 C1098 1.366 . S
C1098 C1097 1.366 . S
C1098 C1099 1.414 . S
C1098 C1101 1.499 . S
C1099 H1073 0.950 . S
C1099 C1098 1.414 . S
C1099 C1100 1.374 . S
C1100 H1074 0.950 . S
C1100 C1096 1.385 . S
C1100 C1099 1.374 . S
C1101 C1098 1.499 . S
C1101 C1102 1.373 . S
C1101 C1103 1.389 . S
C1102 H1075 0.950 . S
C1102 C1088 1.377 . S
C1102 C1101 1.373 . S
C1103 C1087 1.377 . S
C1103 C1101 1.389 . S
C1103 C1104 1.524 . S
C1104 C1103 1.524 . S
C1104 C1105 1.397 . S
C1104 C1109 1.363 . S
C1105 H1076 0.950 . S
C1105 C1104 1.397 . S
C1105 C1106 1.334 . S
C1106 H1077 0.950 . S
C1106 C1105 1.334 . S
C1106 C1107 1.287 . S
C1107 C1106 1.287 . S
C1107 C1108 1.524 . S
C1107 H1110 0.999 . S
C1108 H1078 0.950 . S
C1108 C1107 1.524 . S
C1108 C1109 1.415 . S
C1109 H1079 0.950 . S
C1109 C1104 1.363 . S
C1109 C1108 1.415 . S
H1110 C1107 0.999 . S
H1111 C1092 0.913 . S
H1112 C1130 0.951 . S
H1113 C1132 0.951 . S
H1114 C1134 0.950 . S
H1115 C1135 0.950 . S
H1116 C1137 0.950 . S
H1117 C1140 0.950 . S
H1118 C1141 0.950 . S
H1119 C1143 0.950 . S
H1120 C1144 0.950 . S
H1121 C1145 0.951 . S
H1122 C1147 0.951 . S
H1123 C1149 0.950 . S
H1124 C1150 0.950 . S
H1125 C1152 0.950 . S
H1126 C1155 0.950 . S
H1127 C1156 0.950 . S
H1128 C1158 0.950 . S
H1129 C1159 0.950 . S
C1130 H1112 0.951 . S
C1130 C1131 1.366 . S
C1130 C1132 1.388 . S
C1131 C1130 1.366 . S
C1131 C1135 1.385 . S
C1132 H1113 0.951 . S
C1132 C1130 1.388 . S
C1132 C1133 1.366 . S
C1133 C1132 1.366 . S
C1133 C1134 1.414 . S
C1133 C1136 1.499 . S
C1134 H1114 0.950 . S
C1134 C1133 1.414 . S
C1134 C1135 1.374 . S
C1135 H1115 0.950 . S
C1135 C1131 1.385 . S
C1135 C1134 1.374 . S
C1136 C1133 1.499 . S
C1136 C1137 1.373 . S
C1136 C1138 1.389 . S
C1137 H1116 0.950 . S
C1137 C1136 1.373 . S
C1137 C1153 1.377 . S
C1138 C1136 1.389 . S
C1138 C1139 1.524 . S
C1138 C1152 1.377 . S
C1139 C1138 1.524 . S
C1139 C1140 1.397 . S
C1139 C1144 1.363 . S
C1140 H1117 0.950 . S
C1140 C1139 1.397 . S
C1140 C1141 1.334 . S
C1141 H1118 0.950 . S
C1141 C1140 1.334 . S
C1141 C1142 1.287 . S
C1142 C1141 1.287 . S
C1142 C1143 1.524 . S
C1142 H1161 0.913 . S
C1143 H1119 0.950 . S
C1143 C1142 1.524 . S
C1143 C1144 1.415 . S
C1144 H1120 0.950 . S
C1144 C1139 1.363 . S
C1144 C1143 1.415 . S
C1145 H1121 0.951 . S
C1145 C1146 1.366 . S
C1145 C1147 1.388 . S
C1146 C1145 1.366 . S
C1146 C1150 1.385 . S
C1147 H1122 0.951 . S
C1147 C1145 1.388 . S
C1147 C1148 1.366 . S
C1148 C1147 1.366 . S
C1148 C1149 1.414 . S
C1148 C1151 1.499 . S
C1149 H1123 0.950 . S
C1149 C1148 1.414 . S
C1149 C1150 1.374 . S
C1150 H1124 0.950 . S
C1150 C1146 1.385 . S
C1150 C1149 1.374 . S
C1151 C1148 1.499 . S
C1151 C1152 1.373 . S
C1151 C1153 1.389 . S
C1152 H1125 0.950 . S
C1152 C1138 1.377 . S
C1152 C1151 1.373 . S
C1153 C1137 1.377 . S
C1153 C1151 1.389 . S
C1153 C1154 1.524 . S
C1154 C1153 1.524 . S
C1154 C1155 1.397 . S
C1154 C1159 1.363 . S
C1155 H1126 0.950 . S
C1155 C1154 1.397 . S
C1155 C1156 1.334 . S
C1156 H1127 0.950 . S
C1156 C1155 1.334 . S
C1156 C1157 1.287 . S
C1157 C1156 1.287 . S
C1157 C1158 1.524 . S
C1157 H1160 0.999 . S
C1158 H1128 0.950 . S
C1158 C1157 1.524 . S
C1158 C1159 1.415 . S
C1159 H1129 0.950 . S
C1159 C1154 1.363 . S
C1159 C1158 1.415 . S
H1160 C1157 0.999 . S
H1161 C1142 0.913 . S
H1162 C1180 0.951 . S
H1163 C1182 0.951 . S
H1164 C1184 0.950 . S
H1165 C1185 0.950 . S
H1166 C1187 0.950 . S
H1167 C1190 0.950 . S
H1168 C1191 0.950 . S
H1169 C1193 0.950 . S
H1170 C1194 0.950 . S
H1171 C1195 0.951 . S
H1172 C1197 0.951 . S
H1173 C1199 0.950 . S
H1174 C1200 0.950 . S
H1175 C1202 0.950 . S
H1176 C1205 0.950 . S
H1177 C1206 0.950 . S
H1178 C1208 0.950 . S
H1179 C1209 0.950 . S
C1180 H1162 0.951 . S
C1180 C1181 1.366 . S
C1180 C1182 1.388 . S
C1181 C1180 1.366 . S
C1181 C1185 1.385 . S
C1182 H1163 0.951 . S
C1182 C1180 1.388 . S
C1182 C1183 1.366 . S
C1183 C1182 1.366 . S
C1183 C1184 1.414 . S
C1183 C1186 1.499 . S
C1184 H1164 0.950 . S
C1184 C1183 1.414 . S
C1184 C1185 1.374 . S
C1185 H1165 0.950 . S
C1185 C1181 1.385 . S
C1185 C1184 1.374 . S
C1186 C1183 1.499 . S
C1186 C1187 1.373 . S
C1186 C1188 1.389 . S
C1187 H1166 0.950 . S
C1187 C1186 1.373 . S
C1187 C1203 1.377 . S
C1188 C1186 1.389 . S
C1188 C1189 1.524 . S
C1188 C1202 1.377 . S
C1189 C1188 1.524 . S
C1189 C1190 1.397 . S
C1189 C1194 1.363 . S
C1190 H1167 0.950 . S
C1190 C1189 1.397 . S
C1190 C1191 1.334 1_556 S
C1191 H1168 0.950 . S
C1191 C1190 1.334 1_554 S
C1191 C1192 1.287 . S
C1192 C1191 1.287 . S
C1192 C1193 1.524 . S
C1192 H1211 0.913 . S
C1193 H1169 0.950 . S
C1193 C1192 1.524 . S
C1193 C1194 1.415 1_554 S
C1194 H1170 0.950 . S
C1194 C1189 1.363 . S
C1194 C1193 1.415 1_556 S
C1195 H1171 0.951 . S
C1195 C1196 1.366 . S
C1195 C1197 1.388 . S
C1196 C1195 1.366 . S
C1196 C1200 1.385 . S
C1197 H1172 0.951 . S
C1197 C1195 1.388 . S
C1197 C1198 1.366 . S
C1198 C1197 1.366 . S
C1198 C1199 1.414 . S
C1198 C1201 1.499 . S
C1199 H1173 0.950 . S
C1199 C1198 1.414 . S
C1199 C1200 1.374 . S
C1200 H1174 0.950 . S
C1200 C1196 1.385 . S
C1200 C1199 1.374 . S
C1201 C1198 1.499 . S
C1201 C1202 1.373 . S
C1201 C1203 1.389 . S
C1202 H1175 0.950 . S
C1202 C1188 1.377 . S
C1202 C1201 1.373 . S
C1203 C1187 1.377 . S
C1203 C1201 1.389 . S
C1203 C1204 1.524 . S
C1204 C1203 1.524 . S
C1204 C1205 1.397 . S
C1204 C1209 1.363 . S
C1205 H1176 0.950 . S
C1205 C1204 1.397 . S
C1205 C1206 1.334 . S
C1206 H1177 0.950 . S
C1206 C1205 1.334 . S
C1206 C1207 1.287 . S
C1207 C1206 1.287 . S
C1207 C1208 1.524 . S
C1207 H1210 0.999 . S
C1208 H1178 0.950 . S
C1208 C1207 1.524 . S
C1208 C1209 1.415 . S
C1209 H1179 0.950 . S
C1209 C1204 1.363 . S
C1209 C1208 1.415 . S
H1210 C1207 0.999 . S
H1211 C1192 0.913 . S
H1212 C1230 0.951 . S
H1213 C1232 0.951 . S
H1214 C1234 0.950 . S
H1215 C1235 0.950 . S
H1216 C1237 0.950 . S
H1217 C1240 0.950 . S
H1218 C1241 0.950 . S
H1219 C1243 0.950 . S
H1220 C1244 0.950 . S
H1221 C1245 0.951 . S
H1222 C1247 0.951 . S
H1223 C1249 0.950 . S
H1224 C1250 0.950 . S
H1225 C1252 0.950 . S
H1226 C1255 0.950 . S
H1227 C1256 0.950 . S
H1228 C1258 0.950 . S
H1229 C1259 0.950 . S
C1230 H1212 0.951 . S
C1230 C1231 1.366 . S
C1230 C1232 1.388 . S
C1231 C1230 1.366 . S
C1231 C1235 1.385 . S
C1232 H1213 0.951 . S
C1232 C1230 1.388 . S
C1232 C1233 1.366 . S
C1233 C1232 1.366 . S
C1233 C1234 1.414 . S
C1233 C1236 1.499 . S
C1234 H1214 0.950 . S
C1234 C1233 1.414 . S
C1234 C1235 1.374 . S
C1235 H1215 0.950 . S
C1235 C1231 1.385 . S
C1235 C1234 1.374 . S
C1236 C1233 1.499 . S
C1236 C1237 1.373 . S
C1236 C1238 1.389 . S
C1237 H1216 0.950 . S
C1237 C1236 1.373 . S
C1237 C1253 1.377 . S
C1238 C1236 1.389 . S
C1238 C1239 1.524 . S
C1238 C1252 1.377 . S
C1239 C1238 1.524 . S
C1239 C1240 1.397 . S
C1239 C1244 1.363 . S
C1240 H1217 0.950 . S
C1240 C1239 1.397 . S
C1240 C1241 1.334 1_554 S
C1241 H1218 0.950 . S
C1241 C1240 1.334 1_556 S
C1241 C1242 1.287 . S
C1242 C1241 1.287 . S
C1242 C1243 1.524 . S
C1242 H1261 0.913 . S
C1243 H1219 0.950 . S
C1243 C1242 1.524 . S
C1243 C1244 1.415 1_556 S
C1244 H1220 0.950 . S
C1244 C1239 1.363 . S
C1244 C1243 1.415 1_554 S
C1245 H1221 0.951 . S
C1245 C1246 1.366 . S
C1245 C1247 1.388 . S
C1246 C1245 1.366 . S
C1246 C1250 1.385 . S
C1247 H1222 0.951 . S
C1247 C1245 1.388 . S
C1247 C1248 1.366 . S
C1248 C1247 1.366 . S
C1248 C1249 1.414 . S
C1248 C1251 1.499 . S
C1249 H1223 0.950 . S
C1249 C1248 1.414 . S
C1249 C1250 1.374 . S
C1250 H1224 0.950 . S
C1250 C1246 1.385 . S
C1250 C1249 1.374 . S
C1251 C1248 1.499 . S
C1251 C1252 1.373 . S
C1251 C1253 1.389 . S
C1252 H1225 0.950 . S
C1252 C1238 1.377 . S
C1252 C1251 1.373 . S
C1253 C1237 1.377 . S
C1253 C1251 1.389 . S
C1253 C1254 1.524 . S
C1254 C1253 1.524 . S
C1254 C1255 1.397 . S
C1254 C1259 1.363 . S
C1255 H1226 0.950 . S
C1255 C1254 1.397 . S
C1255 C1256 1.334 . S
C1256 H1227 0.950 . S
C1256 C1255 1.334 . S
C1256 C1257 1.287 . S
C1257 C1256 1.287 . S
C1257 C1258 1.524 . S
C1257 H1260 0.999 . S
C1258 H1228 0.950 . S
C1258 C1257 1.524 . S
C1258 C1259 1.415 . S
C1259 H1229 0.950 . S
C1259 C1254 1.363 . S
C1259 C1258 1.415 . S
H1260 C1257 0.999 . S
H1261 C1242 0.913 . S
H1262 C1280 0.951 . S
H1263 C1282 0.951 . S
H1264 C1284 0.950 . S
H1265 C1285 0.950 . S
H1266 C1287 0.950 . S
H1267 C1290 0.950 . S
H1268 C1291 0.950 . S
H1269 C1293 0.950 . S
H1270 C1294 0.950 . S
H1271 C1295 0.951 . S
H1272 C1297 0.951 . S
H1273 C1299 0.950 . S
H1274 C1300 0.950 . S
H1275 C1302 0.950 . S
H1276 C1305 0.950 . S
H1277 C1306 0.950 . S
H1278 C1308 0.950 . S
H1279 C1309 0.950 . S
C1280 H1262 0.951 . S
C1280 C1281 1.366 . S
C1280 C1282 1.388 . S
C1281 C1280 1.366 . S
C1281 C1285 1.385 . S
C1282 H1263 0.951 . S
C1282 C1280 1.388 . S
C1282 C1283 1.366 . S
C1283 C1282 1.366 . S
C1283 C1284 1.414 . S
C1283 C1286 1.499 . S
C1284 H1264 0.950 . S
C1284 C1283 1.414 . S
C1284 C1285 1.374 . S
C1285 H1265 0.950 . S
C1285 C1281 1.385 . S
C1285 C1284 1.374 . S
C1286 C1283 1.499 . S
C1286 C1287 1.373 . S
C1286 C1288 1.389 . S
C1287 H1266 0.950 . S
C1287 C1286 1.373 . S
C1287 C1303 1.377 . S
C1288 C1286 1.389 . S
C1288 C1289 1.524 . S
C1288 C1302 1.377 . S
C1289 C1288 1.524 . S
C1289 C1290 1.397 . S
C1289 C1294 1.363 . S
C1290 H1267 0.950 . S
C1290 C1289 1.397 . S
C1290 C1291 1.334 . S
C1291 H1268 0.950 . S
C1291 C1290 1.334 . S
C1291 C1292 1.287 . S
C1292 C1291 1.287 . S
C1292 C1293 1.524 1_554 S
C1292 H1311 0.913 1_554 S
C1293 H1269 0.950 . S
C1293 C1292 1.524 1_556 S
C1293 C1294 1.415 1_556 S
C1294 H1270 0.950 . S
C1294 C1289 1.363 . S
C1294 C1293 1.415 1_554 S
C1295 H1271 0.951 . S
C1295 C1296 1.366 . S
C1295 C1297 1.388 . S
C1296 C1295 1.366 . S
C1296 C1300 1.385 . S
C1297 H1272 0.951 . S
C1297 C1295 1.388 . S
C1297 C1298 1.366 . S
C1298 C1297 1.366 . S
C1298 C1299 1.414 . S
C1298 C1301 1.499 . S
C1299 H1273 0.950 . S
C1299 C1298 1.414 . S
C1299 C1300 1.374 . S
C1300 H1274 0.950 . S
C1300 C1296 1.385 . S
C1300 C1299 1.374 . S
C1301 C1298 1.499 . S
C1301 C1302 1.373 . S
C1301 C1303 1.389 . S
C1302 H1275 0.950 . S
C1302 C1288 1.377 . S
C1302 C1301 1.373 . S
C1303 C1287 1.377 . S
C1303 C1301 1.389 . S
C1303 C1304 1.524 . S
C1304 C1303 1.524 . S
C1304 C1305 1.397 . S
C1304 C1309 1.363 . S
C1305 H1276 0.950 . S
C1305 C1304 1.397 . S
C1305 C1306 1.334 . S
C1306 H1277 0.950 . S
C1306 C1305 1.334 . S
C1306 C1307 1.287 . S
C1307 C1306 1.287 . S
C1307 C1308 1.524 . S
C1307 H1310 0.999 . S
C1308 H1278 0.950 . S
C1308 C1307 1.524 . S
C1308 C1309 1.415 . S
C1309 H1279 0.950 . S
C1309 C1304 1.363 . S
C1309 C1308 1.415 . S
H1310 C1307 0.999 . S
H1311 C1292 0.913 1_556 S
H1312 C1330 0.951 . S
H1313 C1332 0.951 . S
H1314 C1334 0.950 . S
H1315 C1335 0.950 . S
H1316 C1337 0.950 . S
H1317 C1340 0.950 . S
H1318 C1341 0.950 . S
H1319 C1343 0.950 . S
H1320 C1344 0.950 . S
H1321 C1345 0.951 . S
H1322 C1347 0.951 . S
H1323 C1349 0.950 . S
H1324 C1350 0.950 . S
H1325 C1352 0.950 . S
H1326 C1355 0.950 . S
H1327 C1356 0.950 . S
H1328 C1358 0.950 . S
H1329 C1359 0.950 . S
C1330 H1312 0.951 . S
C1330 C1331 1.366 . S
C1330 C1332 1.388 . S
C1331 C1330 1.366 . S
C1331 C1335 1.385 . S
C1332 H1313 0.951 . S
C1332 C1330 1.388 . S
C1332 C1333 1.366 . S
C1333 C1332 1.366 . S
C1333 C1334 1.414 . S
C1333 C1336 1.499 . S
C1334 H1314 0.950 . S
C1334 C1333 1.414 . S
C1334 C1335 1.374 . S
C1335 H1315 0.950 . S
C1335 C1331 1.385 . S
C1335 C1334 1.374 . S
C1336 C1333 1.499 . S
C1336 C1337 1.373 . S
C1336 C1338 1.389 . S
C1337 H1316 0.950 . S
C1337 C1336 1.373 . S
C1337 C1353 1.377 . S
C1338 C1336 1.389 . S
C1338 C1339 1.524 . S
C1338 C1352 1.377 . S
C1339 C1338 1.524 . S
C1339 C1340 1.397 . S
C1339 C1344 1.363 . S
C1340 H1317 0.950 . S
C1340 C1339 1.397 . S
C1340 C1341 1.334 . S
C1341 H1318 0.950 . S
C1341 C1340 1.334 . S
C1341 C1342 1.287 . S
C1342 C1341 1.287 . S
C1342 C1343 1.524 . S
C1342 H1361 0.913 . S
C1343 H1319 0.950 . S
C1343 C1342 1.524 . S
C1343 C1344 1.415 . S
C1344 H1320 0.950 . S
C1344 C1339 1.363 . S
C1344 C1343 1.415 . S
C1345 H1321 0.951 . S
C1345 C1346 1.366 . S
C1345 C1347 1.388 . S
C1346 C1345 1.366 . S
C1346 C1350 1.385 . S
C1347 H1322 0.951 . S
C1347 C1345 1.388 . S
C1347 C1348 1.366 . S
C1348 C1347 1.366 . S
C1348 C1349 1.414 . S
C1348 C1351 1.499 . S
C1349 H1323 0.950 . S
C1349 C1348 1.414 . S
C1349 C1350 1.374 . S
C1350 H1324 0.950 . S
C1350 C1346 1.385 . S
C1350 C1349 1.374 . S
C1351 C1348 1.499 . S
C1351 C1352 1.373 . S
C1351 C1353 1.389 . S
C1352 H1325 0.950 . S
C1352 C1338 1.377 . S
C1352 C1351 1.373 . S
C1353 C1337 1.377 . S
C1353 C1351 1.389 . S
C1353 C1354 1.524 . S
C1354 C1353 1.524 . S
C1354 C1355 1.397 . S
C1354 C1359 1.363 . S
C1355 H1326 0.950 . S
C1355 C1354 1.397 . S
C1355 C1356 1.334 . S
C1356 H1327 0.950 . S
C1356 C1355 1.334 . S
C1356 C1357 1.287 . S
C1357 C1356 1.287 . S
C1357 C1358 1.524 . S
C1357 H1360 0.999 . S
C1358 H1328 0.950 . S
C1358 C1357 1.524 . S
C1358 C1359 1.415 . S
C1359 H1329 0.950 . S
C1359 C1354 1.363 . S
C1359 C1358 1.415 . S
H1360 C1357 0.999 . S
H1361 C1342 0.913 . S
H1362 C1380 0.951 . S
H1363 C1382 0.951 . S
H1364 C1384 0.950 . S
H1365 C1385 0.950 . S
H1366 C1387 0.950 . S
H1367 C1390 0.950 . S
H1368 C1391 0.950 . S
H1369 C1393 0.950 . S
H1370 C1394 0.950 . S
H1371 C1395 0.951 . S
H1372 C1397 0.951 . S
H1373 C1399 0.950 . S
H1374 C1400 0.950 . S
H1375 C1402 0.950 . S
H1376 C1405 0.950 . S
H1377 C1406 0.950 . S
H1378 C1408 0.950 . S
H1379 C1409 0.950 . S
C1380 H1362 0.951 . S
C1380 C1381 1.366 . S
C1380 C1382 1.388 . S
C1381 C1380 1.366 . S
C1381 C1385 1.385 . S
C1382 H1363 0.951 . S
C1382 C1380 1.388 . S
C1382 C1383 1.366 . S
C1383 C1382 1.366 . S
C1383 C1384 1.414 . S
C1383 C1386 1.499 . S
C1384 H1364 0.950 . S
C1384 C1383 1.414 . S
C1384 C1385 1.374 . S
C1385 H1365 0.950 . S
C1385 C1381 1.385 . S
C1385 C1384 1.374 . S
C1386 C1383 1.499 . S
C1386 C1387 1.373 . S
C1386 C1388 1.389 . S
C1387 H1366 0.950 . S
C1387 C1386 1.373 . S
C1387 C1403 1.377 . S
C1388 C1386 1.389 . S
C1388 C1389 1.524 . S
C1388 C1402 1.377 . S
C1389 C1388 1.524 . S
C1389 C1390 1.397 . S
C1389 C1394 1.363 . S
C1390 H1367 0.950 . S
C1390 C1389 1.397 . S
C1390 C1391 1.334 . S
C1391 H1368 0.950 . S
C1391 C1390 1.334 . S
C1391 C1392 1.287 . S
C1392 C1391 1.287 . S
C1392 C1393 1.524 . S
C1392 H1411 0.913 . S
C1393 H1369 0.950 . S
C1393 C1392 1.524 . S
C1393 C1394 1.415 . S
C1394 H1370 0.950 . S
C1394 C1389 1.363 . S
C1394 C1393 1.415 . S
C1395 H1371 0.951 . S
C1395 C1396 1.366 . S
C1395 C1397 1.388 . S
C1396 C1395 1.366 . S
C1396 C1400 1.385 . S
C1397 H1372 0.951 . S
C1397 C1395 1.388 . S
C1397 C1398 1.366 . S
C1398 C1397 1.366 . S
C1398 C1399 1.414 . S
C1398 C1401 1.499 . S
C1399 H1373 0.950 . S
C1399 C1398 1.414 . S
C1399 C1400 1.374 . S
C1400 H1374 0.950 . S
C1400 C1396 1.385 . S
C1400 C1399 1.374 . S
C1401 C1398 1.499 . S
C1401 C1402 1.373 . S
C1401 C1403 1.389 . S
C1402 H1375 0.950 . S
C1402 C1388 1.377 . S
C1402 C1401 1.373 . S
C1403 C1387 1.377 . S
C1403 C1401 1.389 . S
C1403 C1404 1.524 . S
C1404 C1403 1.524 . S
C1404 C1405 1.397 . S
C1404 C1409 1.363 . S
C1405 H1376 0.950 . S
C1405 C1404 1.397 . S
C1405 C1406 1.334 . S
C1406 H1377 0.950 . S
C1406 C1405 1.334 . S
C1406 C1407 1.287 . S
C1407 C1406 1.287 . S
C1407 C1408 1.524 . S
C1407 H1410 0.999 . S
C1408 H1378 0.950 . S
C1408 C1407 1.524 . S
C1408 C1409 1.415 . S
C1409 H1379 0.950 . S
C1409 C1404 1.363 . S
C1409 C1408 1.415 . S
H1410 C1407 0.999 . S
H1411 C1392 0.913 . S
H1412 C1430 0.951 . S
H1413 C1432 0.951 . S
H1414 C1434 0.950 . S
H1415 C1435 0.950 . S
H1416 C1437 0.950 . S
H1417 C1440 0.950 . S
H1418 C1441 0.950 . S
H1419 C1443 0.950 . S
H1420 C1444 0.950 . S
H1421 C1445 0.951 . S
H1422 C1447 0.951 . S
H1423 C1449 0.950 . S
H1424 C1450 0.950 . S
H1425 C1452 0.950 . S
H1426 C1455 0.950 . S
H1427 C1456 0.950 . S
H1428 C1458 0.950 . S
H1429 C1459 0.950 . S
C1430 H1412 0.951 . S
C1430 C1431 1.366 . S
C1430 C1432 1.388 . S
C1431 C1430 1.366 . S
C1431 C1435 1.385 . S
C1432 H1413 0.951 . S
C1432 C1430 1.388 . S
C1432 C1433 1.366 . S
C1433 C1432 1.366 . S
C1433 C1434 1.414 . S
C1433 C1436 1.499 . S
C1434 H1414 0.950 . S
C1434 C1433 1.414 . S
C1434 C1435 1.374 . S
C1435 H1415 0.950 . S
C1435 C1431 1.385 . S
C1435 C1434 1.374 . S
C1436 C1433 1.499 . S
C1436 C1437 1.373 . S
C1436 C1438 1.389 . S
C1437 H1416 0.950 . S
C1437 C1436 1.373 . S
C1437 C1453 1.377 . S
C1438 C1436 1.389 . S
C1438 C1439 1.524 . S
C1438 C1452 1.377 . S
C1439 C1438 1.524 . S
C1439 C1440 1.397 . S
C1439 C1444 1.363 . S
C1440 H1417 0.950 . S
C1440 C1439 1.397 . S
C1440 C1441 1.334 . S
C1441 H1418 0.950 . S
C1441 C1440 1.334 . S
C1441 C1442 1.287 . S
C1442 C1441 1.287 . S
C1442 C1443 1.524 1_554 S
C1442 H1461 0.913 1_554 S
C1443 H1419 0.950 . S
C1443 C1442 1.524 1_556 S
C1443 C1444 1.415 1_556 S
C1444 H1420 0.950 . S
C1444 C1439 1.363 . S
C1444 C1443 1.415 1_554 S
C1445 H1421 0.951 . S
C1445 C1446 1.366 . S
C1445 C1447 1.388 . S
C1446 C1445 1.366 . S
C1446 C1450 1.385 . S
C1447 H1422 0.951 . S
C1447 C1445 1.388 . S
C1447 C1448 1.366 . S
C1448 C1447 1.366 . S
C1448 C1449 1.414 . S
C1448 C1451 1.499 . S
C1449 H1423 0.950 . S
C1449 C1448 1.414 . S
C1449 C1450 1.374 . S
C1450 H1424 0.950 . S
C1450 C1446 1.385 . S
C1450 C1449 1.374 . S
C1451 C1448 1.499 . S
C1451 C1452 1.373 . S
C1451 C1453 1.389 . S
C1452 H1425 0.950 . S
C1452 C1438 1.377 . S
C1452 C1451 1.373 . S
C1453 C1437 1.377 . S
C1453 C1451 1.389 . S
C1453 C1454 1.524 . S
C1454 C1453 1.524 . S
C1454 C1455 1.397 . S
C1454 C1459 1.363 . S
C1455 H1426 0.950 . S
C1455 C1454 1.397 . S
C1455 C1456 1.334 . S
C1456 H1427 0.950 . S
C1456 C1455 1.334 . S
C1456 C1457 1.287 . S
C1457 C1456 1.287 . S
C1457 C1458 1.524 . S
C1457 H1460 0.999 . S
C1458 H1428 0.950 . S
C1458 C1457 1.524 . S
C1458 C1459 1.415 . S
C1459 H1429 0.950 . S
C1459 C1454 1.363 . S
C1459 C1458 1.415 . S
H1460 C1457 0.999 . S
H1461 C1442 0.913 1_556 S
H1462 C1480 0.951 . S
H1463 C1482 0.951 . S
H1464 C1484 0.950 . S
H1465 C1485 0.950 . S
H1466 C1487 0.950 . S
H1467 C1490 0.950 . S
H1468 C1491 0.950 . S
H1469 C1493 0.950 . S
H1470 C1494 0.950 . S
H1471 C1495 0.951 . S
H1472 C1497 0.951 . S
H1473 C1499 0.950 . S
H1474 C1500 0.950 . S
H1475 C1502 0.950 . S
H1476 C1505 0.950 . S
H1477 C1506 0.950 . S
H1478 C1508 0.950 . S
H1479 C1509 0.950 . S
C1480 H1462 0.951 . S
C1480 C1481 1.366 . S
C1480 C1482 1.388 . S
C1481 C1480 1.366 . S
C1481 C1485 1.385 . S
C1482 H1463 0.951 . S
C1482 C1480 1.388 . S
C1482 C1483 1.366 . S
C1483 C1482 1.366 . S
C1483 C1484 1.414 . S
C1483 C1486 1.499 . S
C1484 H1464 0.950 . S
C1484 C1483 1.414 . S
C1484 C1485 1.374 . S
C1485 H1465 0.950 . S
C1485 C1481 1.385 . S
C1485 C1484 1.374 . S
C1486 C1483 1.499 . S
C1486 C1487 1.373 . S
C1486 C1488 1.389 . S
C1487 H1466 0.950 . S
C1487 C1486 1.373 . S
C1487 C1503 1.377 . S
C1488 C1486 1.389 . S
C1488 C1489 1.524 . S
C1488 C1502 1.377 . S
C1489 C1488 1.524 . S
C1489 C1490 1.397 . S
C1489 C1494 1.363 . S
C1490 H1467 0.950 . S
C1490 C1489 1.397 . S
C1490 C1491 1.334 1_554 S
C1491 H1468 0.950 . S
C1491 C1490 1.334 1_556 S
C1491 C1492 1.287 1_556 S
C1492 C1491 1.287 1_554 S
C1492 C1493 1.524 . S
C1492 H1511 0.913 1_554 S
C1493 H1469 0.950 . S
C1493 C1492 1.524 . S
C1493 C1494 1.415 . S
C1494 H1470 0.950 . S
C1494 C1489 1.363 . S
C1494 C1493 1.415 . S
C1495 H1471 0.951 . S
C1495 C1496 1.366 . S
C1495 C1497 1.388 . S
C1496 C1495 1.366 . S
C1496 C1500 1.385 . S
C1497 H1472 0.951 . S
C1497 C1495 1.388 . S
C1497 C1498 1.366 . S
C1498 C1497 1.366 . S
C1498 C1499 1.414 . S
C1498 C1501 1.499 . S
C1499 H1473 0.950 . S
C1499 C1498 1.414 . S
C1499 C1500 1.374 . S
C1500 H1474 0.950 . S
C1500 C1496 1.385 . S
C1500 C1499 1.374 . S
C1501 C1498 1.499 . S
C1501 C1502 1.373 . S
C1501 C1503 1.389 . S
C1502 H1475 0.950 . S
C1502 C1488 1.377 . S
C1502 C1501 1.373 . S
C1503 C1487 1.377 . S
C1503 C1501 1.389 . S
C1503 C1504 1.524 . S
C1504 C1503 1.524 . S
C1504 C1505 1.397 . S
C1504 C1509 1.363 . S
C1505 H1476 0.950 . S
C1505 C1504 1.397 . S
C1505 C1506 1.334 . S
C1506 H1477 0.950 . S
C1506 C1505 1.334 . S
C1506 C1507 1.287 . S
C1507 C1506 1.287 . S
C1507 C1508 1.524 . S
C1507 H1510 0.999 . S
C1508 H1478 0.950 . S
C1508 C1507 1.524 . S
C1508 C1509 1.415 . S
C1509 H1479 0.950 . S
C1509 C1504 1.363 . S
C1509 C1508 1.415 . S
H1510 C1507 0.999 . S
H1511 C1492 0.913 1_556 S
H1512 C1530 0.951 . S
H1513 C1532 0.951 . S
H1514 C1534 0.950 . S
H1515 C1535 0.950 . S
H1516 C1537 0.950 . S
H1517 C1540 0.950 . S
H1518 C1541 0.950 . S
H1519 C1543 0.950 . S
H1520 C1544 0.950 . S
H1521 C1545 0.951 . S
H1522 C1547 0.951 . S
H1523 C1549 0.950 . S
H1524 C1550 0.950 . S
H1525 C1552 0.950 . S
H1526 C1555 0.950 . S
H1527 C1556 0.950 . S
H1528 C1558 0.950 . S
H1529 C1559 0.950 . S
C1530 H1512 0.951 . S
C1530 C1531 1.366 . S
C1530 C1532 1.388 . S
C1531 C1530 1.366 . S
C1531 C1535 1.385 . S
C1532 H1513 0.951 . S
C1532 C1530 1.388 . S
C1532 C1533 1.366 . S
C1533 C1532 1.366 . S
C1533 C1534 1.414 . S
C1533 C1536 1.499 . S
C1534 H1514 0.950 . S
C1534 C1533 1.414 . S
C1534 C1535 1.374 . S
C1535 H1515 0.950 . S
C1535 C1531 1.385 . S
C1535 C1534 1.374 . S
C1536 C1533 1.499 . S
C1536 C1537 1.373 . S
C1536 C1538 1.389 . S
C1537 H1516 0.950 . S
C1537 C1536 1.373 . S
C1537 C1553 1.377 . S
C1538 C1536 1.389 . S
C1538 C1539 1.524 . S
C1538 C1552 1.377 . S
C1539 C1538 1.524 . S
C1539 C1540 1.397 . S
C1539 C1544 1.363 . S
C1540 H1517 0.950 . S
C1540 C1539 1.397 . S
C1540 C1541 1.334 . S
C1541 H1518 0.950 . S
C1541 C1540 1.334 . S
C1541 C1542 1.287 . S
C1542 C1541 1.287 . S
C1542 C1543 1.524 . S
C1542 H1561 0.913 . S
C1543 H1519 0.950 . S
C1543 C1542 1.524 . S
C1543 C1544 1.415 . S
C1544 H1520 0.950 . S
C1544 C1539 1.363 . S
C1544 C1543 1.415 . S
C1545 H1521 0.951 . S
C1545 C1546 1.366 . S
C1545 C1547 1.388 . S
C1546 C1545 1.366 . S
C1546 C1550 1.385 . S
C1547 H1522 0.951 . S
C1547 C1545 1.388 . S
C1547 C1548 1.366 . S
C1548 C1547 1.366 . S
C1548 C1549 1.414 . S
C1548 C1551 1.499 . S
C1549 H1523 0.950 . S
C1549 C1548 1.414 . S
C1549 C1550 1.374 . S
C1550 H1524 0.950 . S
C1550 C1546 1.385 . S
C1550 C1549 1.374 . S
C1551 C1548 1.499 . S
C1551 C1552 1.373 . S
C1551 C1553 1.389 . S
C1552 H1525 0.950 . S
C1552 C1538 1.377 . S
C1552 C1551 1.373 . S
C1553 C1537 1.377 . S
C1553 C1551 1.389 . S
C1553 C1554 1.524 . S
C1554 C1553 1.524 . S
C1554 C1555 1.397 . S
C1554 C1559 1.363 . S
C1555 H1526 0.950 . S
C1555 C1554 1.397 . S
C1555 C1556 1.334 . S
C1556 H1527 0.950 . S
C1556 C1555 1.334 . S
C1556 C1557 1.287 . S
C1557 C1556 1.287 . S
C1557 C1558 1.524 . S
C1557 H1560 0.999 . S
C1558 H1528 0.950 . S
C1558 C1557 1.524 . S
C1558 C1559 1.415 . S
C1559 H1529 0.950 . S
C1559 C1554 1.363 . S
C1559 C1558 1.415 . S
H1560 C1557 0.999 . S
H1561 C1542 0.913 . S
H1562 C1580 0.951 . S
H1563 C1582 0.951 . S
H1564 C1584 0.950 . S
H1565 C1585 0.950 . S
H1566 C1587 0.950 . S
H1567 C1590 0.950 . S
H1568 C1591 0.950 . S
H1569 C1593 0.950 . S
H1570 C1594 0.950 . S
H1571 C1595 0.951 . S
H1572 C1597 0.951 . S
H1573 C1599 0.950 . S
H1574 C1600 0.950 . S
H1575 C1602 0.950 . S
H1576 C1605 0.950 . S
H1577 C1606 0.950 . S
H1578 C1608 0.950 . S
H1579 C1609 0.950 . S
C1580 H1562 0.951 . S
C1580 C1581 1.366 . S
C1580 C1582 1.388 . S
C1581 C1580 1.366 . S
C1581 C1585 1.385 . S
C1582 H1563 0.951 . S
C1582 C1580 1.388 . S
C1582 C1583 1.366 . S
C1583 C1582 1.366 . S
C1583 C1584 1.414 . S
C1583 C1586 1.499 . S
C1584 H1564 0.950 . S
C1584 C1583 1.414 . S
C1584 C1585 1.374 . S
C1585 H1565 0.950 . S
C1585 C1581 1.385 . S
C1585 C1584 1.374 . S
C1586 C1583 1.499 . S
C1586 C1587 1.373 . S
C1586 C1588 1.389 . S
C1587 H1566 0.950 . S
C1587 C1586 1.373 . S
C1587 C1603 1.377 . S
C1588 C1586 1.389 . S
C1588 C1589 1.524 . S
C1588 C1602 1.377 . S
C1589 C1588 1.524 . S
C1589 C1590 1.397 . S
C1589 C1594 1.363 . S
C1590 H1567 0.950 . S
C1590 C1589 1.397 . S
C1590 C1591 1.334 . S
C1591 H1568 0.950 . S
C1591 C1590 1.334 . S
C1591 C1592 1.287 . S
C1592 C1591 1.287 . S
C1592 C1593 1.524 . S
C1592 H1611 0.913 . S
C1593 H1569 0.950 . S
C1593 C1592 1.524 . S
C1593 C1594 1.415 . S
C1594 H1570 0.950 . S
C1594 C1589 1.363 . S
C1594 C1593 1.415 . S
C1595 H1571 0.951 . S
C1595 C1596 1.366 . S
C1595 C1597 1.388 . S
C1596 C1595 1.366 . S
C1596 C1600 1.385 . S
C1597 H1572 0.951 . S
C1597 C1595 1.388 . S
C1597 C1598 1.366 . S
C1598 C1597 1.366 . S
C1598 C1599 1.414 . S
C1598 C1601 1.499 . S
C1599 H1573 0.950 . S
C1599 C1598 1.414 . S
C1599 C1600 1.374 . S
C1600 H1574 0.950 . S
C1600 C1596 1.385 . S
C1600 C1599 1.374 . S
C1601 C1598 1.499 . S
C1601 C1602 1.373 . S
C1601 C1603 1.389 . S
C1602 H1575 0.950 . S
C1602 C1588 1.377 . S
C1602 C1601 1.373 . S
C1603 C1587 1.377 . S
C1603 C1601 1.389 . S
C1603 C1604 1.524 . S
C1604 C1603 1.524 . S
C1604 C1605 1.397 . S
C1604 C1609 1.363 . S
C1605 H1576 0.950 . S
C1605 C1604 1.397 . S
C1605 C1606 1.334 . S
C1606 H1577 0.950 . S
C1606 C1605 1.334 . S
C1606 C1607 1.287 . S
C1607 C1606 1.287 . S
C1607 C1608 1.524 . S
C1607 H1610 0.999 . S
C1608 H1578 0.950 . S
C1608 C1607 1.524 . S
C1608 C1609 1.415 . S
C1609 H1579 0.950 . S
C1609 C1604 1.363 . S
C1609 C1608 1.415 . S
H1610 C1607 0.999 . S
H1611 C1592 0.913 . S
H1612 C1630 0.951 . S
H1613 C1632 0.951 . S
H1614 C1634 0.950 . S
H1615 C1635 0.950 . S
H1616 C1637 0.950 . S
H1617 C1640 0.950 . S
H1618 C1641 0.950 . S
H1619 C1643 0.950 . S
H1620 C1644 0.950 . S
H1621 C1645 0.951 . S
H1622 C1647 0.951 . S
H1623 C1649 0.950 . S
H1624 C1650 0.950 . S
H1625 C1652 0.950 . S
H1626 C1655 0.950 . S
H1627 C1656 0.950 . S
H1628 C1658 0.950 . S
H1629 C1659 0.950 . S
C1630 H1612 0.951 . S
C1630 C1631 1.366 . S
C1630 C1632 1.388 . S
C1631 C1630 1.366 . S
C1631 C1635 1.385 . S
C1632 H1613 0.951 . S
C1632 C1630 1.388 . S
C1632 C1633 1.366 . S
C1633 C1632 1.366 . S
C1633 C1634 1.414 . S
C1633 C1636 1.499 . S
C1634 H1614 0.950 . S
C1634 C1633 1.414 . S
C1634 C1635 1.374 . S
C1635 H1615 0.950 . S
C1635 C1631 1.385 . S
C1635 C1634 1.374 . S
C1636 C1633 1.499 . S
C1636 C1637 1.373 . S
C1636 C1638 1.389 . S
C1637 H1616 0.950 . S
C1637 C1636 1.373 . S
C1637 C1653 1.377 . S
C1638 C1636 1.389 . S
C1638 C1639 1.524 . S
C1638 C1652 1.377 . S
C1639 C1638 1.524 . S
C1639 C1640 1.397 . S
C1639 C1644 1.363 . S
C1640 H1617 0.950 . S
C1640 C1639 1.397 . S
C1640 C1641 1.334 . S
C1641 H1618 0.950 . S
C1641 C1640 1.334 . S
C1641 C1642 1.287 . S
C1642 C1641 1.287 . S
C1642 C1643 1.524 . S
C1642 H1661 0.913 . S
C1643 H1619 0.950 . S
C1643 C1642 1.524 . S
C1643 C1644 1.415 . S
C1644 H1620 0.950 . S
C1644 C1639 1.363 . S
C1644 C1643 1.415 . S
C1645 H1621 0.951 . S
C1645 C1646 1.366 . S
C1645 C1647 1.388 . S
C1646 C1645 1.366 . S
C1646 C1650 1.385 . S
C1647 H1622 0.951 . S
C1647 C1645 1.388 . S
C1647 C1648 1.366 . S
C1648 C1647 1.366 . S
C1648 C1649 1.414 . S
C1648 C1651 1.499 . S
C1649 H1623 0.950 . S
C1649 C1648 1.414 . S
C1649 C1650 1.374 . S
C1650 H1624 0.950 . S
C1650 C1646 1.385 . S
C1650 C1649 1.374 . S
C1651 C1648 1.499 . S
C1651 C1652 1.373 . S
C1651 C1653 1.389 . S
C1652 H1625 0.950 . S
C1652 C1638 1.377 . S
C1652 C1651 1.373 . S
C1653 C1637 1.377 . S
C1653 C1651 1.389 . S
C1653 C1654 1.524 . S
C1654 C1653 1.524 . S
C1654 C1655 1.397 . S
C1654 C1659 1.363 . S
C1655 H1626 0.950 . S
C1655 C1654 1.397 . S
C1655 C1656 1.334 . S
C1656 H1627 0.950 . S
C1656 C1655 1.334 . S
C1656 C1657 1.287 . S
C1657 C1656 1.287 . S
C1657 C1658 1.524 . S
C1657 H1660 0.999 . S
C1658 H1628 0.950 . S
C1658 C1657 1.524 . S
C1658 C1659 1.415 . S
C1659 H1629 0.950 . S
C1659 C1654 1.363 . S
C1659 C1658 1.415 . S
H1660 C1657 0.999 . S
H1661 C1642 0.913 . S
H1662 C1680 0.951 . S
H1663 C1682 0.951 . S
H1664 C1684 0.950 . S
H1665 C1685 0.950 . S
H1666 C1687 0.950 . S
H1667 C1690 0.950 . S
H1668 C1691 0.950 . S
H1669 C1693 0.950 . S
H1670 C1694 0.950 . S
H1671 C1695 0.951 . S
H1672 C1697 0.951 . S
H1673 C1699 0.950 . S
H1674 C1700 0.950 . S
H1675 C1702 0.950 . S
H1676 C1705 0.950 . S
H1677 C1706 0.950 . S
H1678 C1708 0.950 . S
H1679 C1709 0.950 . S
C1680 H1662 0.951 . S
C1680 C1681 1.366 . S
C1680 C1682 1.388 . S
C1681 C1680 1.366 . S
C1681 C1685 1.385 . S
C1682 H1663 0.951 . S
C1682 C1680 1.388 . S
C1682 C1683 1.366 . S
C1683 C1682 1.366 . S
C1683 C1684 1.414 . S
C1683 C1686 1.499 . S
C1684 H1664 0.950 . S
C1684 C1683 1.414 . S
C1684 C1685 1.374 . S
C1685 H1665 0.950 . S
C1685 C1681 1.385 . S
C1685 C1684 1.374 . S
C1686 C1683 1.499 . S
C1686 C1687 1.373 . S
C1686 C1688 1.389 . S
C1687 H1666 0.950 . S
C1687 C1686 1.373 . S
C1687 C1703 1.377 . S
C1688 C1686 1.389 . S
C1688 C1689 1.524 . S
C1688 C1702 1.377 . S
C1689 C1688 1.524 . S
C1689 C1690 1.397 . S
C1689 C1694 1.363 . S
C1690 H1667 0.950 . S
C1690 C1689 1.397 . S
C1690 C1691 1.334 . S
C1691 H1668 0.950 . S
C1691 C1690 1.334 . S
C1691 C1692 1.287 . S
C1692 C1691 1.287 . S
C1692 C1693 1.524 . S
C1692 H1711 0.913 . S
C1693 H1669 0.950 . S
C1693 C1692 1.524 . S
C1693 C1694 1.415 . S
C1694 H1670 0.950 . S
C1694 C1689 1.363 . S
C1694 C1693 1.415 . S
C1695 H1671 0.951 . S
C1695 C1696 1.366 . S
C1695 C1697 1.388 . S
C1696 C1695 1.366 . S
C1696 C1700 1.385 . S
C1697 H1672 0.951 . S
C1697 C1695 1.388 . S
C1697 C1698 1.366 . S
C1698 C1697 1.366 . S
C1698 C1699 1.414 . S
C1698 C1701 1.499 . S
C1699 H1673 0.950 . S
C1699 C1698 1.414 . S
C1699 C1700 1.374 . S
C1700 H1674 0.950 . S
C1700 C1696 1.385 . S
C1700 C1699 1.374 . S
C1701 C1698 1.499 . S
C1701 C1702 1.373 . S
C1701 C1703 1.389 . S
C1702 H1675 0.950 . S
C1702 C1688 1.377 . S
C1702 C1701 1.373 . S
C1703 C1687 1.377 . S
C1703 C1701 1.389 . S
C1703 C1704 1.524 . S
C1704 C1703 1.524 . S
C1704 C1705 1.397 . S
C1704 C1709 1.363 . S
C1705 H1676 0.950 . S
C1705 C1704 1.397 . S
C1705 C1706 1.334 . S
C1706 H1677 0.950 . S
C1706 C1705 1.334 . S
C1706 C1707 1.287 . S
C1707 C1706 1.287 . S
C1707 C1708 1.524 . S
C1707 H1710 0.999 . S
C1708 H1678 0.950 . S
C1708 C1707 1.524 . S
C1708 C1709 1.415 . S
C1709 H1679 0.950 . S
C1709 C1704 1.363 . S
C1709 C1708 1.415 . S
H1710 C1707 0.999 . S
H1711 C1692 0.913 . S
H1712 C1730 0.951 . S
H1713 C1732 0.951 . S
H1714 C1734 0.950 . S
H1715 C1735 0.950 . S
H1716 C1737 0.950 . S
H1717 C1740 0.950 . S
H1718 C1741 0.950 . S
H1719 C1743 0.950 . S
H1720 C1744 0.950 . S
H1721 C1745 0.951 . S
H1722 C1747 0.951 . S
H1723 C1749 0.950 . S
H1724 C1750 0.950 . S
H1725 C1752 0.950 . S
H1726 C1755 0.950 . S
H1727 C1756 0.950 . S
H1728 C1758 0.950 . S
H1729 C1759 0.950 . S
C1730 H1712 0.951 . S
C1730 C1731 1.366 . S
C1730 C1732 1.388 . S
C1731 C1730 1.366 . S
C1731 C1735 1.385 . S
C1732 H1713 0.951 . S
C1732 C1730 1.388 . S
C1732 C1733 1.366 . S
C1733 C1732 1.366 . S
C1733 C1734 1.414 . S
C1733 C1736 1.499 . S
C1734 H1714 0.950 . S
C1734 C1733 1.414 . S
C1734 C1735 1.374 . S
C1735 H1715 0.950 . S
C1735 C1731 1.385 . S
C1735 C1734 1.374 . S
C1736 C1733 1.499 . S
C1736 C1737 1.373 . S
C1736 C1738 1.389 . S
C1737 H1716 0.950 . S
C1737 C1736 1.373 . S
C1737 C1753 1.377 . S
C1738 C1736 1.389 . S
C1738 C1739 1.524 . S
C1738 C1752 1.377 . S
C1739 C1738 1.524 . S
C1739 C1740 1.397 . S
C1739 C1744 1.363 . S
C1740 H1717 0.950 . S
C1740 C1739 1.397 . S
C1740 C1741 1.334 . S
C1741 H1718 0.950 . S
C1741 C1740 1.334 . S
C1741 C1742 1.287 . S
C1742 C1741 1.287 . S
C1742 C1743 1.524 . S
C1742 H1761 0.913 . S
C1743 H1719 0.950 . S
C1743 C1742 1.524 . S
C1743 C1744 1.415 . S
C1744 H1720 0.950 . S
C1744 C1739 1.363 . S
C1744 C1743 1.415 . S
C1745 H1721 0.951 . S
C1745 C1746 1.366 . S
C1745 C1747 1.388 . S
C1746 C1745 1.366 . S
C1746 C1750 1.385 . S
C1747 H1722 0.951 . S
C1747 C1745 1.388 . S
C1747 C1748 1.366 . S
C1748 C1747 1.366 . S
C1748 C1749 1.414 . S
C1748 C1751 1.499 . S
C1749 H1723 0.950 . S
C1749 C1748 1.414 . S
C1749 C1750 1.374 . S
C1750 H1724 0.950 . S
C1750 C1746 1.385 . S
C1750 C1749 1.374 . S
C1751 C1748 1.499 . S
C1751 C1752 1.373 . S
C1751 C1753 1.389 . S
C1752 H1725 0.950 . S
C1752 C1738 1.377 . S
C1752 C1751 1.373 . S
C1753 C1737 1.377 . S
C1753 C1751 1.389 . S
C1753 C1754 1.524 . S
C1754 C1753 1.524 . S
C1754 C1755 1.397 . S
C1754 C1759 1.363 . S
C1755 H1726 0.950 . S
C1755 C1754 1.397 . S
C1755 C1756 1.334 . S
C1756 H1727 0.950 . S
C1756 C1755 1.334 . S
C1756 C1757 1.287 . S
C1757 C1756 1.287 . S
C1757 C1758 1.524 . S
C1757 H1760 0.999 . S
C1758 H1728 0.950 . S
C1758 C1757 1.524 . S
C1758 C1759 1.415 . S
C1759 H1729 0.950 . S
C1759 C1754 1.363 . S
C1759 C1758 1.415 . S
H1760 C1757 0.999 . S
H1761 C1742 0.913 . S
H1762 C1780 0.951 . S
H1763 C1782 0.951 . S
H1764 C1784 0.950 . S
H1765 C1785 0.950 . S
H1766 C1787 0.950 . S
H1767 C1790 0.950 . S
H1768 C1791 0.950 . S
H1769 C1793 0.950 . S
H1770 C1794 0.950 . S
H1771 C1795 0.951 . S
H1772 C1797 0.951 . S
H1773 C1799 0.950 . S
H1774 C1800 0.950 . S
H1775 C1802 0.950 . S
H1776 C1805 0.950 . S
H1777 C1806 0.950 . S
H1778 C1808 0.950 . S
H1779 C1809 0.950 . S
C1780 H1762 0.951 . S
C1780 C1781 1.366 . S
C1780 C1782 1.388 . S
C1781 C1780 1.366 . S
C1781 C1785 1.385 . S
C1782 H1763 0.951 . S
C1782 C1780 1.388 . S
C1782 C1783 1.366 . S
C1783 C1782 1.366 . S
C1783 C1784 1.414 . S
C1783 C1786 1.499 . S
C1784 H1764 0.950 . S
C1784 C1783 1.414 . S
C1784 C1785 1.374 . S
C1785 H1765 0.950 . S
C1785 C1781 1.385 . S
C1785 C1784 1.374 . S
C1786 C1783 1.499 . S
C1786 C1787 1.373 . S
C1786 C1788 1.389 . S
C1787 H1766 0.950 . S
C1787 C1786 1.373 . S
C1787 C1803 1.377 . S
C1788 C1786 1.389 . S
C1788 C1789 1.524 . S
C1788 C1802 1.377 . S
C1789 C1788 1.524 . S
C1789 C1790 1.397 . S
C1789 C1794 1.363 . S
C1790 H1767 0.950 . S
C1790 C1789 1.397 . S
C1790 C1791 1.334 . S
C1791 H1768 0.950 . S
C1791 C1790 1.334 . S
C1791 C1792 1.287 . S
C1792 C1791 1.287 . S
C1792 C1793 1.524 . S
C1792 H1811 0.913 . S
C1793 H1769 0.950 . S
C1793 C1792 1.524 . S
C1793 C1794 1.415 . S
C1794 H1770 0.950 . S
C1794 C1789 1.363 . S
C1794 C1793 1.415 . S
C1795 H1771 0.951 . S
C1795 C1796 1.366 . S
C1795 C1797 1.388 . S
C1796 C1795 1.366 . S
C1796 C1800 1.385 . S
C1797 H1772 0.951 . S
C1797 C1795 1.388 . S
C1797 C1798 1.366 . S
C1798 C1797 1.366 . S
C1798 C1799 1.414 . S
C1798 C1801 1.499 . S
C1799 H1773 0.950 . S
C1799 C1798 1.414 . S
C1799 C1800 1.374 . S
C1800 H1774 0.950 . S
C1800 C1796 1.385 . S
C1800 C1799 1.374 . S
C1801 C1798 1.499 . S
C1801 C1802 1.373 . S
C1801 C1803 1.389 . S
C1802 H1775 0.950 . S
C1802 C1788 1.377 . S
C1802 C1801 1.373 . S
C1803 C1787 1.377 . S
C1803 C1801 1.389 . S
C1803 C1804 1.524 . S
C1804 C1803 1.524 . S
C1804 C1805 1.397 . S
C1804 C1809 1.363 . S
C1805 H1776 0.950 . S
C1805 C1804 1.397 . S
C1805 C1806 1.334 . S
C1806 H1777 0.950 . S
C1806 C1805 1.334 . S
C1806 C1807 1.287 . S
C1807 C1806 1.287 . S
C1807 C1808 1.524 . S
C1807 H1810 0.999 . S
C1808 H1778 0.950 . S
C1808 C1807 1.524 . S
C1808 C1809 1.415 . S
C1809 H1779 0.950 . S
C1809 C1804 1.363 . S
C1809 C1808 1.415 . S
H1810 C1807 0.999 . S
H1811 C1792 0.913 . S
H1812 C1830 0.951 . S
H1813 C1832 0.951 . S
H1814 C1834 0.950 . S
H1815 C1835 0.950 . S
H1816 C1837 0.950 . S
H1817 C1840 0.950 . S
H1818 C1841 0.950 . S
H1819 C1843 0.950 . S
H1820 C1844 0.950 . S
H1821 C1845 0.951 . S
H1822 C1847 0.951 . S
H1823 C1849 0.950 . S
H1824 C1850 0.950 . S
H1825 C1852 0.950 . S
H1826 C1855 0.950 . S
H1827 C1856 0.950 . S
H1828 C1858 0.950 . S
H1829 C1859 0.950 . S
C1830 H1812 0.951 . S
C1830 C1831 1.366 . S
C1830 C1832 1.388 . S
C1831 C1830 1.366 . S
C1831 C1835 1.385 . S
C1832 H1813 0.951 . S
C1832 C1830 1.388 . S
C1832 C1833 1.366 . S
C1833 C1832 1.366 . S
C1833 C1834 1.414 . S
C1833 C1836 1.499 . S
C1834 H1814 0.950 . S
C1834 C1833 1.414 . S
C1834 C1835 1.374 . S
C1835 H1815 0.950 . S
C1835 C1831 1.385 . S
C1835 C1834 1.374 . S
C1836 C1833 1.499 . S
C1836 C1837 1.373 . S
C1836 C1838 1.389 1_554 S
C1837 H1816 0.950 . S
C1837 C1836 1.373 . S
C1837 C1853 1.377 1_455 S
C1838 C1836 1.389 1_556 S
C1838 C1839 1.524 . S
C1838 C1852 1.377 1_455 S
C1839 C1838 1.524 . S
C1839 C1840 1.397 . S
C1839 C1844 1.363 . S
C1840 H1817 0.950 . S
C1840 C1839 1.397 . S
C1840 C1841 1.334 . S
C1841 H1818 0.950 . S
C1841 C1840 1.334 . S
C1841 C1842 1.287 . S
C1842 C1841 1.287 . S
C1842 C1843 1.524 . S
C1842 H1861 0.913 . S
C1843 H1819 0.950 . S
C1843 C1842 1.524 . S
C1843 C1844 1.415 . S
C1844 H1820 0.950 . S
C1844 C1839 1.363 . S
C1844 C1843 1.415 . S
C1845 H1821 0.951 . S
C1845 C1846 1.366 . S
C1845 C1847 1.388 . S
C1846 C1845 1.366 . S
C1846 C1850 1.385 . S
C1847 H1822 0.951 . S
C1847 C1845 1.388 . S
C1847 C1848 1.366 . S
C1848 C1847 1.366 . S
C1848 C1849 1.414 . S
C1848 C1851 1.499 . S
C1849 H1823 0.950 . S
C1849 C1848 1.414 . S
C1849 C1850 1.374 . S
C1850 H1824 0.950 . S
C1850 C1846 1.385 . S
C1850 C1849 1.374 . S
C1851 C1848 1.499 . S
C1851 C1852 1.373 . S
C1851 C1853 1.389 1_556 S
C1852 H1825 0.950 . S
C1852 C1838 1.377 1_655 S
C1852 C1851 1.373 . S
C1853 C1837 1.377 1_655 S
C1853 C1851 1.389 1_554 S
C1853 C1854 1.524 . S
C1854 C1853 1.524 . S
C1854 C1855 1.397 . S
C1854 C1859 1.363 . S
C1855 H1826 0.950 . S
C1855 C1854 1.397 . S
C1855 C1856 1.334 . S
C1856 H1827 0.950 . S
C1856 C1855 1.334 . S
C1856 C1857 1.287 . S
C1857 C1856 1.287 . S
C1857 C1858 1.524 . S
C1857 H1860 0.999 . S
C1858 H1828 0.950 . S
C1858 C1857 1.524 . S
C1858 C1859 1.415 . S
C1859 H1829 0.950 . S
C1859 C1854 1.363 . S
C1859 C1858 1.415 . S
H1860 C1857 0.999 . S
H1861 C1842 0.913 . S
H1862 C1880 0.951 . S
H1863 C1882 0.951 . S
H1864 C1884 0.950 . S
H1865 C1885 0.950 . S
H1866 C1887 0.950 . S
H1867 C1890 0.950 . S
H1868 C1891 0.950 . S
H1869 C1893 0.950 . S
H1870 C1894 0.950 . S
H1871 C1895 0.951 . S
H1872 C1897 0.951 . S
H1873 C1899 0.950 . S
H1874 C1900 0.950 . S
H1875 C1902 0.950 . S
H1876 C1905 0.950 . S
H1877 C1906 0.950 . S
H1878 C1908 0.950 . S
H1879 C1909 0.950 . S
C1880 H1862 0.951 . S
C1880 C1881 1.366 . S
C1880 C1882 1.388 . S
C1881 C1880 1.366 . S
C1881 C1885 1.385 . S
C1882 H1863 0.951 . S
C1882 C1880 1.388 . S
C1882 C1883 1.366 . S
C1883 C1882 1.366 . S
C1883 C1884 1.414 . S
C1883 C1886 1.499 . S
C1884 H1864 0.950 . S
C1884 C1883 1.414 . S
C1884 C1885 1.374 . S
C1885 H1865 0.950 . S
C1885 C1881 1.385 . S
C1885 C1884 1.374 . S
C1886 C1883 1.499 . S
C1886 C1887 1.373 1_554 S
C1886 C1888 1.389 . S
C1887 H1866 0.950 . S
C1887 C1886 1.373 1_556 S
C1887 C1903 1.377 . S
C1888 C1886 1.389 . S
C1888 C1889 1.524 . S
C1888 C1902 1.377 . S
C1889 C1888 1.524 . S
C1889 C1890 1.397 . S
C1889 C1894 1.363 . S
C1890 H1867 0.950 . S
C1890 C1889 1.397 . S
C1890 C1891 1.334 . S
C1891 H1868 0.950 . S
C1891 C1890 1.334 . S
C1891 C1892 1.287 . S
C1892 C1891 1.287 . S
C1892 C1893 1.524 . S
C1892 H1911 0.913 . S
C1893 H1869 0.950 . S
C1893 C1892 1.524 . S
C1893 C1894 1.415 . S
C1894 H1870 0.950 . S
C1894 C1889 1.363 . S
C1894 C1893 1.415 . S
C1895 H1871 0.951 . S
C1895 C1896 1.366 . S
C1895 C1897 1.388 . S
C1896 C1895 1.366 . S
C1896 C1900 1.385 . S
C1897 H1872 0.951 . S
C1897 C1895 1.388 . S
C1897 C1898 1.366 . S
C1898 C1897 1.366 . S
C1898 C1899 1.414 . S
C1898 C1901 1.499 . S
C1899 H1873 0.950 . S
C1899 C1898 1.414 . S
C1899 C1900 1.374 . S
C1900 H1874 0.950 . S
C1900 C1896 1.385 . S
C1900 C1899 1.374 . S
C1901 C1898 1.499 . S
C1901 C1902 1.373 1_556 S
C1901 C1903 1.389 . S
C1902 H1875 0.950 . S
C1902 C1888 1.377 . S
C1902 C1901 1.373 1_554 S
C1903 C1887 1.377 . S
C1903 C1901 1.389 . S
C1903 C1904 1.524 . S
C1904 C1903 1.524 . S
C1904 C1905 1.397 . S
C1904 C1909 1.363 . S
C1905 H1876 0.950 . S
C1905 C1904 1.397 . S
C1905 C1906 1.334 . S
C1906 H1877 0.950 . S
C1906 C1905 1.334 . S
C1906 C1907 1.287 . S
C1907 C1906 1.287 . S
C1907 C1908 1.524 . S
C1907 H1910 0.999 . S
C1908 H1878 0.950 . S
C1908 C1907 1.524 . S
C1908 C1909 1.415 . S
C1909 H1879 0.950 . S
C1909 C1904 1.363 . S
C1909 C1908 1.415 . S
H1910 C1907 0.999 . S
H1911 C1892 0.913 . S
H1912 C1930 0.951 . S
H1913 C1932 0.951 . S
H1914 C1934 0.950 1_554 S
H1915 C1935 0.950 . S
H1916 C1937 0.950 . S
H1917 C1940 0.950 . S
H1918 C1941 0.950 . S
H1919 C1943 0.950 . S
H1920 C1944 0.950 1_565 S
H1921 C1945 0.951 . S
H1922 C1947 0.951 . S
H1923 C1949 0.950 1_556 S
H1924 C1950 0.950 . S
H1925 C1952 0.950 . S
H1926 C1955 0.950 . S
H1927 C1956 0.950 . S
H1928 C1958 0.950 . S
H1929 C1959 0.950 1_545 S
C1930 H1912 0.951 . S
C1930 C1931 1.366 . S
C1930 C1932 1.388 . S
C1931 C1930 1.366 . S
C1931 C1935 1.385 . S
C1932 H1913 0.951 . S
C1932 C1930 1.388 . S
C1932 C1933 1.366 . S
C1933 C1932 1.366 . S
C1933 C1934 1.414 . S
C1933 C1936 1.499 . S
C1934 H1914 0.950 1_556 S
C1934 C1933 1.414 . S
C1934 C1935 1.374 . S
C1935 H1915 0.950 . S
C1935 C1931 1.385 . S
C1935 C1934 1.374 . S
C1936 C1933 1.499 . S
C1936 C1937 1.373 1_556 S
C1936 C1938 1.389 . S
C1937 H1916 0.950 . S
C1937 C1936 1.373 1_554 S
C1937 C1953 1.377 1_545 S
C1938 C1936 1.389 . S
C1938 C1939 1.524 . S
C1938 C1952 1.377 1_545 S
C1939 C1938 1.524 . S
C1939 C1940 1.397 . S
C1939 C1944 1.363 . S
C1940 H1917 0.950 . S
C1940 C1939 1.397 . S
C1940 C1941 1.334 . S
C1941 H1918 0.950 . S
C1941 C1940 1.334 . S
C1941 C1942 1.287 . S
C1942 C1941 1.287 . S
C1942 C1943 1.524 . S
C1942 H1961 0.913 . S
C1943 H1919 0.950 . S
C1943 C1942 1.524 . S
C1943 C1944 1.415 . S
C1944 H1920 0.950 1_545 S
C1944 C1939 1.363 . S
C1944 C1943 1.415 . S
C1945 H1921 0.951 . S
C1945 C1946 1.366 . S
C1945 C1947 1.388 . S
C1946 C1945 1.366 . S
C1946 C1950 1.385 . S
C1947 H1922 0.951 . S
C1947 C1945 1.388 . S
C1947 C1948 1.366 . S
C1948 C1947 1.366 . S
C1948 C1949 1.414 . S
C1948 C1951 1.499 . S
C1949 H1923 0.950 1_554 S
C1949 C1948 1.414 . S
C1949 C1950 1.374 . S
C1950 H1924 0.950 . S
C1950 C1946 1.385 . S
C1950 C1949 1.374 . S
C1951 C1948 1.499 . S
C1951 C1952 1.373 1_554 S
C1951 C1953 1.389 . S
C1952 H1925 0.950 . S
C1952 C1938 1.377 1_565 S
C1952 C1951 1.373 1_556 S
C1953 C1937 1.377 1_565 S
C1953 C1951 1.389 . S
C1953 C1954 1.524 . S
C1954 C1953 1.524 . S
C1954 C1955 1.397 . S
C1954 C1959 1.363 . S
C1955 H1926 0.950 . S
C1955 C1954 1.397 . S
C1955 C1956 1.334 . S
C1956 H1927 0.950 . S
C1956 C1955 1.334 . S
C1956 C1957 1.287 . S
C1957 C1956 1.287 . S
C1957 C1958 1.524 . S
C1957 H1960 0.999 . S
C1958 H1928 0.950 . S
C1958 C1957 1.524 . S
C1958 C1959 1.415 . S
C1959 H1929 0.950 1_565 S
C1959 C1954 1.363 . S
C1959 C1958 1.415 . S
H1960 C1957 0.999 . S
H1961 C1942 0.913 . S
H1962 C1980 0.951 . S
H1963 C1982 0.951 . S
H1964 C1984 0.950 . S
H1965 C1985 0.950 . S
H1966 C1987 0.950 . S
H1967 C1990 0.950 . S
H1968 C1991 0.950 . S
H1969 C1993 0.950 . S
H1970 C1994 0.950 . S
H1971 C1995 0.951 . S
H1972 C1997 0.951 . S
H1973 C1999 0.950 . S
H1974 C2000 0.950 . S
H1975 C2002 0.950 . S
H1976 C2005 0.950 . S
H1977 C2006 0.950 . S
H1978 C2008 0.950 . S
H1979 C2009 0.950 . S
C1980 H1962 0.951 . S
C1980 C1981 1.366 . S
C1980 C1982 1.388 . S
C1981 C1980 1.366 . S
C1981 C1985 1.385 . S
C1982 H1963 0.951 . S
C1982 C1980 1.388 . S
C1982 C1983 1.366 . S
C1983 C1982 1.366 . S
C1983 C1984 1.414 . S
C1983 C1986 1.499 . S
C1984 H1964 0.950 . S
C1984 C1983 1.414 . S
C1984 C1985 1.374 . S
C1985 H1965 0.950 . S
C1985 C1981 1.385 . S
C1985 C1984 1.374 . S
C1986 C1983 1.499 . S
C1986 C1987 1.373 . S
C1986 C1988 1.389 . S
C1987 H1966 0.950 . S
C1987 C1986 1.373 . S
C1987 C2003 1.377 . S
C1988 C1986 1.389 . S
C1988 C1989 1.524 . S
C1988 C2002 1.377 . S
C1989 C1988 1.524 . S
C1989 C1990 1.397 . S
C1989 C1994 1.363 . S
C1990 H1967 0.950 . S
C1990 C1989 1.397 . S
C1990 C1991 1.334 . S
C1991 H1968 0.950 . S
C1991 C1990 1.334 . S
C1991 C1992 1.287 . S
C1992 C1991 1.287 . S
C1992 C1993 1.524 . S
C1992 H2011 0.913 . S
C1993 H1969 0.950 . S
C1993 C1992 1.524 . S
C1993 C1994 1.415 . S
C1994 H1970 0.950 . S
C1994 C1989 1.363 . S
C1994 C1993 1.415 . S
C1995 H1971 0.951 . S
C1995 C1996 1.366 . S
C1995 C1997 1.388 . S
C1996 C1995 1.366 . S
C1996 C2000 1.385 . S
C1997 H1972 0.951 . S
C1997 C1995 1.388 . S
C1997 C1998 1.366 . S
C1998 C1997 1.366 . S
C1998 C1999 1.414 . S
C1998 C2001 1.499 1_554 S
C1999 H1973 0.950 . S
C1999 C1998 1.414 . S
C1999 C2000 1.374 . S
C2000 H1974 0.950 . S
C2000 C1996 1.385 . S
C2000 C1999 1.374 . S
C2001 C1998 1.499 1_556 S
C2001 C2002 1.373 . S
C2001 C2003 1.389 . S
C2002 H1975 0.950 . S
C2002 C1988 1.377 . S
C2002 C2001 1.373 . S
C2003 C1987 1.377 . S
C2003 C2001 1.389 . S
C2003 C2004 1.524 . S
C2004 C2003 1.524 . S
C2004 C2005 1.397 . S
C2004 C2009 1.363 . S
C2005 H1976 0.950 . S
C2005 C2004 1.397 . S
C2005 C2006 1.334 1_556 S
C2006 H1977 0.950 . S
C2006 C2005 1.334 1_554 S
C2006 C2007 1.287 1_554 S
C2007 C2006 1.287 1_556 S
C2007 C2008 1.524 . S
C2007 H2010 0.999 1_556 S
C2008 H1978 0.950 . S
C2008 C2007 1.524 . S
C2008 C2009 1.415 . S
C2009 H1979 0.950 . S
C2009 C2004 1.363 . S
C2009 C2008 1.415 . S
H2010 C2007 0.999 1_554 S
H2011 C1992 0.913 . S
H2012 C2030 0.951 . S
H2013 C2032 0.951 . S
H2014 C2034 0.950 . S
H2015 C2035 0.950 . S
H2016 C2037 0.950 . S
H2017 C2040 0.950 . S
H2018 C2041 0.950 . S
H2019 C2043 0.950 . S
H2020 C2044 0.950 . S
H2021 C2045 0.951 . S
H2022 C2047 0.951 . S
H2023 C2049 0.950 . S
H2024 C2050 0.950 . S
H2025 C2052 0.950 . S
H2026 C2055 0.950 . S
H2027 C2056 0.950 1_554 S
H2028 C2058 0.950 . S
H2029 C2059 0.950 . S
C2030 H2012 0.951 . S
C2030 C2031 1.366 . S
C2030 C2032 1.388 . S
C2031 C2030 1.366 . S
C2031 C2035 1.385 . S
C2032 H2013 0.951 . S
C2032 C2030 1.388 . S
C2032 C2033 1.366 . S
C2033 C2032 1.366 . S
C2033 C2034 1.414 . S
C2033 C2036 1.499 . S
C2034 H2014 0.950 . S
C2034 C2033 1.414 . S
C2034 C2035 1.374 . S
C2035 H2015 0.950 . S
C2035 C2031 1.385 . S
C2035 C2034 1.374 . S
C2036 C2033 1.499 . S
C2036 C2037 1.373 . S
C2036 C2038 1.389 . S
C2037 H2016 0.950 . S
C2037 C2036 1.373 . S
C2037 C2053 1.377 . S
C2038 C2036 1.389 . S
C2038 C2039 1.524 . S
C2038 C2052 1.377 . S
C2039 C2038 1.524 . S
C2039 C2040 1.397 . S
C2039 C2044 1.363 . S
C2040 H2017 0.950 . S
C2040 C2039 1.397 . S
C2040 C2041 1.334 . S
C2041 H2018 0.950 . S
C2041 C2040 1.334 . S
C2041 C2042 1.287 . S
C2042 C2041 1.287 . S
C2042 C2043 1.524 . S
C2042 H2061 0.913 . S
C2043 H2019 0.950 . S
C2043 C2042 1.524 . S
C2043 C2044 1.415 . S
C2044 H2020 0.950 . S
C2044 C2039 1.363 . S
C2044 C2043 1.415 . S
C2045 H2021 0.951 . S
C2045 C2046 1.366 . S
C2045 C2047 1.388 . S
C2046 C2045 1.366 . S
C2046 C2050 1.385 . S
C2047 H2022 0.951 . S
C2047 C2045 1.388 . S
C2047 C2048 1.366 . S
C2048 C2047 1.366 . S
C2048 C2049 1.414 . S
C2048 C2051 1.499 1_554 S
C2049 H2023 0.950 . S
C2049 C2048 1.414 . S
C2049 C2050 1.374 . S
C2050 H2024 0.950 . S
C2050 C2046 1.385 . S
C2050 C2049 1.374 . S
C2051 C2048 1.499 1_556 S
C2051 C2052 1.373 . S
C2051 C2053 1.389 . S
C2052 H2025 0.950 . S
C2052 C2038 1.377 . S
C2052 C2051 1.373 . S
C2053 C2037 1.377 . S
C2053 C2051 1.389 . S
C2053 C2054 1.524 . S
C2054 C2053 1.524 . S
C2054 C2055 1.397 . S
C2054 C2059 1.363 . S
C2055 H2026 0.950 . S
C2055 C2054 1.397 . S
C2055 C2056 1.334 . S
C2056 H2027 0.950 1_556 S
C2056 C2055 1.334 . S
C2056 C2057 1.287 . S
C2057 C2056 1.287 . S
C2057 C2058 1.524 . S
C2057 H2060 0.999 . S
C2058 H2028 0.950 . S
C2058 C2057 1.524 . S
C2058 C2059 1.415 . S
C2059 H2029 0.950 . S
C2059 C2054 1.363 . S
C2059 C2058 1.415 . S
H2060 C2057 0.999 . S
H2061 C2042 0.913 . S
H2062 C2080 0.951 . S
H2063 C2082 0.951 . S
H2064 C2084 0.950 . S
H2065 C2085 0.950 . S
H2066 C2087 0.950 . S
H2067 C2090 0.950 . S
H2068 C2091 0.950 . S
H2069 C2093 0.950 . S
H2070 C2094 0.950 . S
H2071 C2095 0.951 . S
H2072 C2097 0.951 . S
H2073 C2099 0.950 . S
H2074 C2100 0.950 . S
H2075 C2102 0.950 . S
H2076 C2105 0.950 . S
H2077 C2106 0.950 . S
H2078 C2108 0.950 . S
H2079 C2109 0.950 . S
C2080 H2062 0.951 . S
C2080 C2081 1.366 . S
C2080 C2082 1.388 . S
C2081 C2080 1.366 . S
C2081 C2085 1.385 . S
C2082 H2063 0.951 . S
C2082 C2080 1.388 . S
C2082 C2083 1.366 . S
C2083 C2082 1.366 . S
C2083 C2084 1.414 . S
C2083 C2086 1.499 . S
C2084 H2064 0.950 . S
C2084 C2083 1.414 . S
C2084 C2085 1.374 . S
C2085 H2065 0.950 . S
C2085 C2081 1.385 . S
C2085 C2084 1.374 . S
C2086 C2083 1.499 . S
C2086 C2087 1.373 . S
C2086 C2088 1.389 . S
C2087 H2066 0.950 . S
C2087 C2086 1.373 . S
C2087 C2103 1.377 . S
C2088 C2086 1.389 . S
C2088 C2089 1.524 . S
C2088 C2102 1.377 . S
C2089 C2088 1.524 . S
C2089 C2090 1.397 . S
C2089 C2094 1.363 . S
C2090 H2067 0.950 . S
C2090 C2089 1.397 . S
C2090 C2091 1.334 . S
C2091 H2068 0.950 . S
C2091 C2090 1.334 . S
C2091 C2092 1.287 . S
C2092 C2091 1.287 . S
C2092 C2093 1.524 . S
C2092 H2111 0.913 . S
C2093 H2069 0.950 . S
C2093 C2092 1.524 . S
C2093 C2094 1.415 . S
C2094 H2070 0.950 . S
C2094 C2089 1.363 . S
C2094 C2093 1.415 . S
C2095 H2071 0.951 . S
C2095 C2096 1.366 . S
C2095 C2097 1.388 . S
C2096 C2095 1.366 . S
C2096 C2100 1.385 . S
C2097 H2072 0.951 . S
C2097 C2095 1.388 . S
C2097 C2098 1.366 . S
C2098 C2097 1.366 . S
C2098 C2099 1.414 . S
C2098 C2101 1.499 1_554 S
C2099 H2073 0.950 . S
C2099 C2098 1.414 . S
C2099 C2100 1.374 . S
C2100 H2074 0.950 . S
C2100 C2096 1.385 . S
C2100 C2099 1.374 . S
C2101 C2098 1.499 1_556 S
C2101 C2102 1.373 . S
C2101 C2103 1.389 . S
C2102 H2075 0.950 . S
C2102 C2088 1.377 . S
C2102 C2101 1.373 . S
C2103 C2087 1.377 . S
C2103 C2101 1.389 . S
C2103 C2104 1.524 . S
C2104 C2103 1.524 . S
C2104 C2105 1.397 . S
C2104 C2109 1.363 . S
C2105 H2076 0.950 . S
C2105 C2104 1.397 . S
C2105 C2106 1.334 1_556 S
C2106 H2077 0.950 . S
C2106 C2105 1.334 1_554 S
C2106 C2107 1.287 . S
C2107 C2106 1.287 . S
C2107 C2108 1.524 1_554 S
C2107 H2110 0.999 . S
C2108 H2078 0.950 . S
C2108 C2107 1.524 1_556 S
C2108 C2109 1.415 . S
C2109 H2079 0.950 . S
C2109 C2104 1.363 . S
C2109 C2108 1.415 . S
H2110 C2107 0.999 . S
H2111 C2092 0.913 . S
H2112 C2130 0.951 . S
H2113 C2132 0.951 . S
H2114 C2134 0.950 . S
H2115 C2135 0.950 . S
H2116 C2137 0.950 . S
H2117 C2140 0.950 . S
H2118 C2141 0.950 . S
H2119 C2143 0.950 . S
H2120 C2144 0.950 . S
H2121 C2145 0.951 . S
H2122 C2147 0.951 . S
H2123 C2149 0.950 . S
H2124 C2150 0.950 . S
H2125 C2152 0.950 . S
H2126 C2155 0.950 . S
H2127 C2156 0.950 . S
H2128 C2158 0.950 . S
H2129 C2159 0.950 . S
C2130 H2112 0.951 . S
C2130 C2131 1.366 . S
C2130 C2132 1.388 . S
C2131 C2130 1.366 . S
C2131 C2135 1.385 . S
C2132 H2113 0.951 . S
C2132 C2130 1.388 . S
C2132 C2133 1.366 . S
C2133 C2132 1.366 . S
C2133 C2134 1.414 . S
C2133 C2136 1.499 1_556 S
C2134 H2114 0.950 . S
C2134 C2133 1.414 . S
C2134 C2135 1.374 . S
C2135 H2115 0.950 . S
C2135 C2131 1.385 . S
C2135 C2134 1.374 . S
C2136 C2133 1.499 1_554 S
C2136 C2137 1.373 . S
C2136 C2138 1.389 . S
C2137 H2116 0.950 . S
C2137 C2136 1.373 . S
C2137 C2153 1.377 . S
C2138 C2136 1.389 . S
C2138 C2139 1.524 . S
C2138 C2152 1.377 . S
C2139 C2138 1.524 . S
C2139 C2140 1.397 . S
C2139 C2144 1.363 . S
C2140 H2117 0.950 . S
C2140 C2139 1.397 . S
C2140 C2141 1.334 1_554 S
C2141 H2118 0.950 . S
C2141 C2140 1.334 1_556 S
C2141 C2142 1.287 . S
C2142 C2141 1.287 . S
C2142 C2143 1.524 1_556 S
C2142 H2161 0.913 . S
C2143 H2119 0.950 . S
C2143 C2142 1.524 1_554 S
C2143 C2144 1.415 . S
C2144 H2120 0.950 . S
C2144 C2139 1.363 . S
C2144 C2143 1.415 . S
C2145 H2121 0.951 . S
C2145 C2146 1.366 . S
C2145 C2147 1.388 . S
C2146 C2145 1.366 . S
C2146 C2150 1.385 . S
C2147 H2122 0.951 . S
C2147 C2145 1.388 . S
C2147 C2148 1.366 . S
C2148 C2147 1.366 . S
C2148 C2149 1.414 . S
C2148 C2151 1.499 . S
C2149 H2123 0.950 . S
C2149 C2148 1.414 . S
C2149 C2150 1.374 . S
C2150 H2124 0.950 . S
C2150 C2146 1.385 . S
C2150 C2149 1.374 . S
C2151 C2148 1.499 . S
C2151 C2152 1.373 . S
C2151 C2153 1.389 . S
C2152 H2125 0.950 . S
C2152 C2138 1.377 . S
C2152 C2151 1.373 . S
C2153 C2137 1.377 . S
C2153 C2151 1.389 . S
C2153 C2154 1.524 . S
C2154 C2153 1.524 . S
C2154 C2155 1.397 . S
C2154 C2159 1.363 . S
C2155 H2126 0.950 . S
C2155 C2154 1.397 . S
C2155 C2156 1.334 . S
C2156 H2127 0.950 . S
C2156 C2155 1.334 . S
C2156 C2157 1.287 . S
C2157 C2156 1.287 . S
C2157 C2158 1.524 . S
C2157 H2160 0.999 . S
C2158 H2128 0.950 . S
C2158 C2157 1.524 . S
C2158 C2159 1.415 . S
C2159 H2129 0.950 . S
C2159 C2154 1.363 . S
C2159 C2158 1.415 . S
H2160 C2157 0.999 . S
H2161 C2142 0.913 . S
H2162 C2180 0.951 . S
H2163 C2182 0.951 . S
H2164 C2184 0.950 . S
H2165 C2185 0.950 . S
H2166 C2187 0.950 . S
H2167 C2190 0.950 . S
H2168 C2191 0.950 1_556 S
H2169 C2193 0.950 . S
H2170 C2194 0.950 . S
H2171 C2195 0.951 . S
H2172 C2197 0.951 . S
H2173 C2199 0.950 . S
H2174 C2200 0.950 . S
H2175 C2202 0.950 . S
H2176 C2205 0.950 . S
H2177 C2206 0.950 . S
H2178 C2208 0.950 . S
H2179 C2209 0.950 . S
C2180 H2162 0.951 . S
C2180 C2181 1.366 . S
C2180 C2182 1.388 . S
C2181 C2180 1.366 . S
C2181 C2185 1.385 . S
C2182 H2163 0.951 . S
C2182 C2180 1.388 . S
C2182 C2183 1.366 . S
C2183 C2182 1.366 . S
C2183 C2184 1.414 . S
C2183 C2186 1.499 1_556 S
C2184 H2164 0.950 . S
C2184 C2183 1.414 . S
C2184 C2185 1.374 . S
C2185 H2165 0.950 . S
C2185 C2181 1.385 . S
C2185 C2184 1.374 . S
C2186 C2183 1.499 1_554 S
C2186 C2187 1.373 . S
C2186 C2188 1.389 . S
C2187 H2166 0.950 . S
C2187 C2186 1.373 . S
C2187 C2203 1.377 . S
C2188 C2186 1.389 . S
C2188 C2189 1.524 . S
C2188 C2202 1.377 . S
C2189 C2188 1.524 . S
C2189 C2190 1.397 . S
C2189 C2194 1.363 . S
C2190 H2167 0.950 . S
C2190 C2189 1.397 . S
C2190 C2191 1.334 . S
C2191 H2168 0.950 1_554 S
C2191 C2190 1.334 . S
C2191 C2192 1.287 . S
C2192 C2191 1.287 . S
C2192 C2193 1.524 . S
C2192 H2211 0.913 . S
C2193 H2169 0.950 . S
C2193 C2192 1.524 . S
C2193 C2194 1.415 . S
C2194 H2170 0.950 . S
C2194 C2189 1.363 . S
C2194 C2193 1.415 . S
C2195 H2171 0.951 . S
C2195 C2196 1.366 . S
C2195 C2197 1.388 . S
C2196 C2195 1.366 . S
C2196 C2200 1.385 . S
C2197 H2172 0.951 . S
C2197 C2195 1.388 . S
C2197 C2198 1.366 . S
C2198 C2197 1.366 . S
C2198 C2199 1.414 . S
C2198 C2201 1.499 . S
C2199 H2173 0.950 . S
C2199 C2198 1.414 . S
C2199 C2200 1.374 . S
C2200 H2174 0.950 . S
C2200 C2196 1.385 . S
C2200 C2199 1.374 . S
C2201 C2198 1.499 . S
C2201 C2202 1.373 . S
C2201 C2203 1.389 . S
C2202 H2175 0.950 . S
C2202 C2188 1.377 . S
C2202 C2201 1.373 . S
C2203 C2187 1.377 . S
C2203 C2201 1.389 . S
C2203 C2204 1.524 . S
C2204 C2203 1.524 . S
C2204 C2205 1.397 . S
C2204 C2209 1.363 . S
C2205 H2176 0.950 . S
C2205 C2204 1.397 . S
C2205 C2206 1.334 . S
C2206 H2177 0.950 . S
C2206 C2205 1.334 . S
C2206 C2207 1.287 . S
C2207 C2206 1.287 . S
C2207 C2208 1.524 . S
C2207 H2210 0.999 . S
C2208 H2178 0.950 . S
C2208 C2207 1.524 . S
C2208 C2209 1.415 . S
C2209 H2179 0.950 . S
C2209 C2204 1.363 . S
C2209 C2208 1.415 . S
H2210 C2207 0.999 . S
H2211 C2192 0.913 . S
H2212 C2230 0.951 . S
H2213 C2232 0.951 . S
H2214 C2234 0.950 . S
H2215 C2235 0.950 . S
H2216 C2237 0.950 . S
H2217 C2240 0.950 . S
H2218 C2241 0.950 . S
H2219 C2243 0.950 . S
H2220 C2244 0.950 . S
H2221 C2245 0.951 . S
H2222 C2247 0.951 . S
H2223 C2249 0.950 . S
H2224 C2250 0.950 . S
H2225 C2252 0.950 . S
H2226 C2255 0.950 . S
H2227 C2256 0.950 . S
H2228 C2258 0.950 . S
H2229 C2259 0.950 . S
C2230 H2212 0.951 . S
C2230 C2231 1.366 . S
C2230 C2232 1.388 . S
C2231 C2230 1.366 . S
C2231 C2235 1.385 . S
C2232 H2213 0.951 . S
C2232 C2230 1.388 . S
C2232 C2233 1.366 . S
C2233 C2232 1.366 . S
C2233 C2234 1.414 . S
C2233 C2236 1.499 . S
C2234 H2214 0.950 . S
C2234 C2233 1.414 . S
C2234 C2235 1.374 . S
C2235 H2215 0.950 . S
C2235 C2231 1.385 . S
C2235 C2234 1.374 . S
C2236 C2233 1.499 . S
C2236 C2237 1.373 . S
C2236 C2238 1.389 . S
C2237 H2216 0.950 . S
C2237 C2236 1.373 . S
C2237 C2253 1.377 . S
C2238 C2236 1.389 . S
C2238 C2239 1.524 . S
C2238 C2252 1.377 . S
C2239 C2238 1.524 . S
C2239 C2240 1.397 . S
C2239 C2244 1.363 . S
C2240 H2217 0.950 . S
C2240 C2239 1.397 . S
C2240 C2241 1.334 . S
C2241 H2218 0.950 . S
C2241 C2240 1.334 . S
C2241 C2242 1.287 . S
C2242 C2241 1.287 . S
C2242 C2243 1.524 . S
C2242 H2261 0.913 . S
C2243 H2219 0.950 . S
C2243 C2242 1.524 . S
C2243 C2244 1.415 . S
C2244 H2220 0.950 . S
C2244 C2239 1.363 . S
C2244 C2243 1.415 . S
C2245 H2221 0.951 . S
C2245 C2246 1.366 . S
C2245 C2247 1.388 . S
C2246 C2245 1.366 . S
C2246 C2250 1.385 . S
C2247 H2222 0.951 . S
C2247 C2245 1.388 . S
C2247 C2248 1.366 . S
C2248 C2247 1.366 . S
C2248 C2249 1.414 . S
C2248 C2251 1.499 1_556 S
C2249 H2223 0.950 . S
C2249 C2248 1.414 . S
C2249 C2250 1.374 . S
C2250 H2224 0.950 . S
C2250 C2246 1.385 . S
C2250 C2249 1.374 . S
C2251 C2248 1.499 1_554 S
C2251 C2252 1.373 . S
C2251 C2253 1.389 . S
C2252 H2225 0.950 . S
C2252 C2238 1.377 . S
C2252 C2251 1.373 . S
C2253 C2237 1.377 . S
C2253 C2251 1.389 . S
C2253 C2254 1.524 . S
C2254 C2253 1.524 . S
C2254 C2255 1.397 . S
C2254 C2259 1.363 . S
C2255 H2226 0.950 . S
C2255 C2254 1.397 . S
C2255 C2256 1.334 1_554 S
C2256 H2227 0.950 . S
C2256 C2255 1.334 1_556 S
C2256 C2257 1.287 1_556 S
C2257 C2256 1.287 1_554 S
C2257 C2258 1.524 . S
C2257 H2260 0.999 1_554 S
C2258 H2228 0.950 . S
C2258 C2257 1.524 . S
C2258 C2259 1.415 . S
C2259 H2229 0.950 . S
C2259 C2254 1.363 . S
C2259 C2258 1.415 . S
H2260 C2257 0.999 1_556 S
H2261 C2242 0.913 . S
H2262 C2280 0.951 1_556 S
H2263 C2282 0.951 . S
H2264 C2284 0.950 . S
H2265 C2285 0.950 1_556 S
H2266 C2287 0.950 . S
H2267 C2290 0.950 . S
H2268 C2291 0.950 . S
H2269 C2293 0.950 . S
H2270 C2294 0.950 . S
H2271 C2295 0.951 . S
H2272 C2297 0.951 . S
H2273 C2299 0.950 . S
H2274 C2300 0.950 . S
H2275 C2302 0.950 . S
H2276 C2305 0.950 . S
H2277 C2306 0.950 . S
H2278 C2308 0.950 . S
H2279 C2309 0.950 . S
C2280 H2262 0.951 1_554 S
C2280 C2281 1.366 1_554 S
C2280 C2282 1.388 . S
C2281 C2280 1.366 1_556 S
C2281 C2285 1.385 1_556 S
C2282 H2263 0.951 . S
C2282 C2280 1.388 . S
C2282 C2283 1.366 . S
C2283 C2282 1.366 . S
C2283 C2284 1.414 . S
C2283 C2286 1.499 . S
C2284 H2264 0.950 . S
C2284 C2283 1.414 . S
C2284 C2285 1.374 . S
C2285 H2265 0.950 1_554 S
C2285 C2281 1.385 1_554 S
C2285 C2284 1.374 . S
C2286 C2283 1.499 . S
C2286 C2287 1.373 . S
C2286 C2288 1.389 . S
C2287 H2266 0.950 . S
C2287 C2286 1.373 . S
C2287 C2303 1.377 . S
C2288 C2286 1.389 . S
C2288 C2289 1.524 . S
C2288 C2302 1.377 . S
C2289 C2288 1.524 . S
C2289 C2290 1.397 . S
C2289 C2294 1.363 . S
C2290 H2267 0.950 . S
C2290 C2289 1.397 . S
C2290 C2291 1.334 . S
C2291 H2268 0.950 . S
C2291 C2290 1.334 . S
C2291 C2292 1.287 . S
C2292 C2291 1.287 . S
C2292 C2293 1.524 . S
C2292 H2311 0.913 . S
C2293 H2269 0.950 . S
C2293 C2292 1.524 . S
C2293 C2294 1.415 . S
C2294 H2270 0.950 . S
C2294 C2289 1.363 . S
C2294 C2293 1.415 . S
C2295 H2271 0.951 . S
C2295 C2296 1.366 . S
C2295 C2297 1.388 . S
C2296 C2295 1.366 . S
C2296 C2300 1.385 . S
C2297 H2272 0.951 . S
C2297 C2295 1.388 . S
C2297 C2298 1.366 . S
C2298 C2297 1.366 . S
C2298 C2299 1.414 . S
C2298 C2301 1.499 . S
C2299 H2273 0.950 . S
C2299 C2298 1.414 . S
C2299 C2300 1.374 . S
C2300 H2274 0.950 . S
C2300 C2296 1.385 . S
C2300 C2299 1.374 . S
C2301 C2298 1.499 . S
C2301 C2302 1.373 . S
C2301 C2303 1.389 . S
C2302 H2275 0.950 . S
C2302 C2288 1.377 . S
C2302 C2301 1.373 . S
C2303 C2287 1.377 . S
C2303 C2301 1.389 . S
C2303 C2304 1.524 . S
C2304 C2303 1.524 . S
C2304 C2305 1.397 . S
C2304 C2309 1.363 . S
C2305 H2276 0.950 . S
C2305 C2304 1.397 . S
C2305 C2306 1.334 . S
C2306 H2277 0.950 . S
C2306 C2305 1.334 . S
C2306 C2307 1.287 . S
C2307 C2306 1.287 . S
C2307 C2308 1.524 . S
C2307 H2310 0.999 . S
C2308 H2278 0.950 . S
C2308 C2307 1.524 . S
C2308 C2309 1.415 . S
C2309 H2279 0.950 . S
C2309 C2304 1.363 . S
C2309 C2308 1.415 . S
H2310 C2307 0.999 . S
H2311 C2292 0.913 . S
H2312 C2330 0.951 . S
H2313 C2332 0.951 . S
H2314 C2334 0.950 . S
H2315 C2335 0.950 . S
H2316 C2337 0.950 . S
H2317 C2340 0.950 . S
H2318 C2341 0.950 . S
H2319 C2343 0.950 . S
H2320 C2344 0.950 . S
H2321 C2345 0.951 1_556 S
H2322 C2347 0.951 . S
H2323 C2349 0.950 . S
H2324 C2350 0.950 1_556 S
H2325 C2352 0.950 . S
H2326 C2355 0.950 . S
H2327 C2356 0.950 . S
H2328 C2358 0.950 . S
H2329 C2359 0.950 . S
C2330 H2312 0.951 . S
C2330 C2331 1.366 . S
C2330 C2332 1.388 . S
C2331 C2330 1.366 . S
C2331 C2335 1.385 . S
C2332 H2313 0.951 . S
C2332 C2330 1.388 . S
C2332 C2333 1.366 . S
C2333 C2332 1.366 . S
C2333 C2334 1.414 . S
C2333 C2336 1.499 . S
C2334 H2314 0.950 . S
C2334 C2333 1.414 . S
C2334 C2335 1.374 . S
C2335 H2315 0.950 . S
C2335 C2331 1.385 . S
C2335 C2334 1.374 . S
C2336 C2333 1.499 . S
C2336 C2337 1.373 . S
C2336 C2338 1.389 . S
C2337 H2316 0.950 . S
C2337 C2336 1.373 . S
C2337 C2353 1.377 . S
C2338 C2336 1.389 . S
C2338 C2339 1.524 . S
C2338 C2352 1.377 . S
C2339 C2338 1.524 . S
C2339 C2340 1.397 . S
C2339 C2344 1.363 . S
C2340 H2317 0.950 . S
C2340 C2339 1.397 . S
C2340 C2341 1.334 . S
C2341 H2318 0.950 . S
C2341 C2340 1.334 . S
C2341 C2342 1.287 . S
C2342 C2341 1.287 . S
C2342 C2343 1.524 . S
C2342 H2361 0.913 . S
C2343 H2319 0.950 . S
C2343 C2342 1.524 . S
C2343 C2344 1.415 . S
C2344 H2320 0.950 . S
C2344 C2339 1.363 . S
C2344 C2343 1.415 . S
C2345 H2321 0.951 1_554 S
C2345 C2346 1.366 1_554 S
C2345 C2347 1.388 . S
C2346 C2345 1.366 1_556 S
C2346 C2350 1.385 1_556 S
C2347 H2322 0.951 . S
C2347 C2345 1.388 . S
C2347 C2348 1.366 . S
C2348 C2347 1.366 . S
C2348 C2349 1.414 . S
C2348 C2351 1.499 . S
C2349 H2323 0.950 . S
C2349 C2348 1.414 . S
C2349 C2350 1.374 . S
C2350 H2324 0.950 1_554 S
C2350 C2346 1.385 1_554 S
C2350 C2349 1.374 . S
C2351 C2348 1.499 . S
C2351 C2352 1.373 . S
C2351 C2353 1.389 . S
C2352 H2325 0.950 . S
C2352 C2338 1.377 . S
C2352 C2351 1.373 . S
C2353 C2337 1.377 . S
C2353 C2351 1.389 . S
C2353 C2354 1.524 . S
C2354 C2353 1.524 . S
C2354 C2355 1.397 . S
C2354 C2359 1.363 . S
C2355 H2326 0.950 . S
C2355 C2354 1.397 . S
C2355 C2356 1.334 . S
C2356 H2327 0.950 . S
C2356 C2355 1.334 . S
C2356 C2357 1.287 . S
C2357 C2356 1.287 . S
C2357 C2358 1.524 . S
C2357 H2360 0.999 . S
C2358 H2328 0.950 . S
C2358 C2357 1.524 . S
C2358 C2359 1.415 . S
C2359 H2329 0.950 . S
C2359 C2354 1.363 . S
C2359 C2358 1.415 . S
H2360 C2357 0.999 . S
H2361 C2342 0.913 . S
H2362 C2380 0.951 . S
H2363 C2382 0.951 . S
H2364 C2384 0.950 . S
H2365 C2385 0.950 . S
H2366 C2387 0.950 . S
H2367 C2390 0.950 . S
H2368 C2391 0.950 . S
H2369 C2393 0.950 . S
H2370 C2394 0.950 . S
H2371 C2395 0.951 1_556 S
H2372 C2397 0.951 . S
H2373 C2399 0.950 . S
H2374 C2400 0.950 1_556 S
H2375 C2402 0.950 . S
H2376 C2405 0.950 . S
H2377 C2406 0.950 . S
H2378 C2408 0.950 . S
H2379 C2409 0.950 . S
C2380 H2362 0.951 . S
C2380 C2381 1.366 . S
C2380 C2382 1.388 . S
C2381 C2380 1.366 . S
C2381 C2385 1.385 . S
C2382 H2363 0.951 . S
C2382 C2380 1.388 . S
C2382 C2383 1.366 . S
C2383 C2382 1.366 . S
C2383 C2384 1.414 . S
C2383 C2386 1.499 . S
C2384 H2364 0.950 . S
C2384 C2383 1.414 . S
C2384 C2385 1.374 . S
C2385 H2365 0.950 . S
C2385 C2381 1.385 . S
C2385 C2384 1.374 . S
C2386 C2383 1.499 . S
C2386 C2387 1.373 . S
C2386 C2388 1.389 . S
C2387 H2366 0.950 . S
C2387 C2386 1.373 . S
C2387 C2403 1.377 . S
C2388 C2386 1.389 . S
C2388 C2389 1.524 . S
C2388 C2402 1.377 . S
C2389 C2388 1.524 . S
C2389 C2390 1.397 . S
C2389 C2394 1.363 . S
C2390 H2367 0.950 . S
C2390 C2389 1.397 . S
C2390 C2391 1.334 . S
C2391 H2368 0.950 . S
C2391 C2390 1.334 . S
C2391 C2392 1.287 . S
C2392 C2391 1.287 . S
C2392 C2393 1.524 . S
C2392 H2411 0.913 . S
C2393 H2369 0.950 . S
C2393 C2392 1.524 . S
C2393 C2394 1.415 . S
C2394 H2370 0.950 . S
C2394 C2389 1.363 . S
C2394 C2393 1.415 . S
C2395 H2371 0.951 1_554 S
C2395 C2396 1.366 1_554 S
C2395 C2397 1.388 . S
C2396 C2395 1.366 1_556 S
C2396 C2400 1.385 1_556 S
C2397 H2372 0.951 . S
C2397 C2395 1.388 . S
C2397 C2398 1.366 . S
C2398 C2397 1.366 . S
C2398 C2399 1.414 . S
C2398 C2401 1.499 . S
C2399 H2373 0.950 . S
C2399 C2398 1.414 . S
C2399 C2400 1.374 . S
C2400 H2374 0.950 1_554 S
C2400 C2396 1.385 1_554 S
C2400 C2399 1.374 . S
C2401 C2398 1.499 . S
C2401 C2402 1.373 . S
C2401 C2403 1.389 . S
C2402 H2375 0.950 . S
C2402 C2388 1.377 . S
C2402 C2401 1.373 . S
C2403 C2387 1.377 . S
C2403 C2401 1.389 . S
C2403 C2404 1.524 . S
C2404 C2403 1.524 . S
C2404 C2405 1.397 . S
C2404 C2409 1.363 . S
C2405 H2376 0.950 . S
C2405 C2404 1.397 . S
C2405 C2406 1.334 . S
C2406 H2377 0.950 . S
C2406 C2405 1.334 . S
C2406 C2407 1.287 . S
C2407 C2406 1.287 . S
C2407 C2408 1.524 . S
C2407 H2410 0.999 . S
C2408 H2378 0.950 . S
C2408 C2407 1.524 . S
C2408 C2409 1.415 . S
C2409 H2379 0.950 . S
C2409 C2404 1.363 . S
C2409 C2408 1.415 . S
H2410 C2407 0.999 . S
H2411 C2392 0.913 . S
H2412 C2430 0.951 . S
H2413 C2432 0.951 . S
H2414 C2434 0.950 . S
H2415 C2435 0.950 . S
H2416 C2437 0.950 . S
H2417 C2440 0.950 . S
H2418 C2441 0.950 . S
H2419 C2443 0.950 . S
H2420 C2444 0.950 . S
H2421 C2445 0.951 . S
H2422 C2447 0.951 . S
H2423 C2449 0.950 . S
H2424 C2450 0.950 . S
H2425 C2452 0.950 . S
H2426 C2455 0.950 . S
H2427 C2456 0.950 . S
H2428 C2458 0.950 . S
H2429 C2459 0.950 . S
C2430 H2412 0.951 . S
C2430 C2431 1.366 . S
C2430 C2432 1.388 . S
C2431 C2430 1.366 . S
C2431 C2435 1.385 . S
C2432 H2413 0.951 . S
C2432 C2430 1.388 . S
C2432 C2433 1.366 . S
C2433 C2432 1.366 . S
C2433 C2434 1.414 . S
C2433 C2436 1.499 . S
C2434 H2414 0.950 . S
C2434 C2433 1.414 . S
C2434 C2435 1.374 . S
C2435 H2415 0.950 . S
C2435 C2431 1.385 . S
C2435 C2434 1.374 . S
C2436 C2433 1.499 . S
C2436 C2437 1.373 . S
C2436 C2438 1.389 . S
C2437 H2416 0.950 . S
C2437 C2436 1.373 . S
C2437 C2453 1.377 . S
C2438 C2436 1.389 . S
C2438 C2439 1.524 . S
C2438 C2452 1.377 . S
C2439 C2438 1.524 . S
C2439 C2440 1.397 . S
C2439 C2444 1.363 . S
C2440 H2417 0.950 . S
C2440 C2439 1.397 . S
C2440 C2441 1.334 . S
C2441 H2418 0.950 . S
C2441 C2440 1.334 . S
C2441 C2442 1.287 . S
C2442 C2441 1.287 . S
C2442 C2443 1.524 . S
C2442 H2461 0.913 . S
C2443 H2419 0.950 . S
C2443 C2442 1.524 . S
C2443 C2444 1.415 . S
C2444 H2420 0.950 . S
C2444 C2439 1.363 . S
C2444 C2443 1.415 . S
C2445 H2421 0.951 . S
C2445 C2446 1.366 . S
C2445 C2447 1.388 . S
C2446 C2445 1.366 . S
C2446 C2450 1.385 . S
C2447 H2422 0.951 . S
C2447 C2445 1.388 . S
C2447 C2448 1.366 . S
C2448 C2447 1.366 . S
C2448 C2449 1.414 . S
C2448 C2451 1.499 . S
C2449 H2423 0.950 . S
C2449 C2448 1.414 . S
C2449 C2450 1.374 . S
C2450 H2424 0.950 . S
C2450 C2446 1.385 . S
C2450 C2449 1.374 . S
C2451 C2448 1.499 . S
C2451 C2452 1.373 . S
C2451 C2453 1.389 . S
C2452 H2425 0.950 . S
C2452 C2438 1.377 . S
C2452 C2451 1.373 . S
C2453 C2437 1.377 . S
C2453 C2451 1.389 . S
C2453 C2454 1.524 . S
C2454 C2453 1.524 . S
C2454 C2455 1.397 . S
C2454 C2459 1.363 . S
C2455 H2426 0.950 . S
C2455 C2454 1.397 . S
C2455 C2456 1.334 . S
C2456 H2427 0.950 . S
C2456 C2455 1.334 . S
C2456 C2457 1.287 . S
C2457 C2456 1.287 . S
C2457 C2458 1.524 . S
C2457 H2460 0.999 . S
C2458 H2428 0.950 . S
C2458 C2457 1.524 . S
C2458 C2459 1.415 . S
C2459 H2429 0.950 . S
C2459 C2454 1.363 . S
C2459 C2458 1.415 . S
H2460 C2457 0.999 . S
H2461 C2442 0.913 . S
H2462 C2480 0.951 . S
H2463 C2482 0.951 . S
H2464 C2484 0.950 . S
H2465 C2485 0.950 . S
H2466 C2487 0.950 . S
H2467 C2490 0.950 . S
H2468 C2491 0.950 . S
H2469 C2493 0.950 . S
H2470 C2494 0.950 . S
H2471 C2495 0.951 . S
H2472 C2497 0.951 . S
H2473 C2499 0.950 . S
H2474 C2500 0.950 . S
H2475 C2502 0.950 . S
H2476 C2505 0.950 . S
H2477 C2506 0.950 . S
H2478 C2508 0.950 . S
H2479 C2509 0.950 . S
C2480 H2462 0.951 . S
C2480 C2481 1.366 . S
C2480 C2482 1.388 . S
C2481 C2480 1.366 . S
C2481 C2485 1.385 . S
C2482 H2463 0.951 . S
C2482 C2480 1.388 . S
C2482 C2483 1.366 . S
C2483 C2482 1.366 . S
C2483 C2484 1.414 . S
C2483 C2486 1.499 . S
C2484 H2464 0.950 . S
C2484 C2483 1.414 . S
C2484 C2485 1.374 . S
C2485 H2465 0.950 . S
C2485 C2481 1.385 . S
C2485 C2484 1.374 . S
C2486 C2483 1.499 . S
C2486 C2487 1.373 . S
C2486 C2488 1.389 . S
C2487 H2466 0.950 . S
C2487 C2486 1.373 . S
C2487 C2503 1.377 . S
C2488 C2486 1.389 . S
C2488 C2489 1.524 . S
C2488 C2502 1.377 . S
C2489 C2488 1.524 . S
C2489 C2490 1.397 . S
C2489 C2494 1.363 . S
C2490 H2467 0.950 . S
C2490 C2489 1.397 . S
C2490 C2491 1.334 . S
C2491 H2468 0.950 . S
C2491 C2490 1.334 . S
C2491 C2492 1.287 . S
C2492 C2491 1.287 . S
C2492 C2493 1.524 . S
C2492 H2511 0.913 . S
C2493 H2469 0.950 . S
C2493 C2492 1.524 . S
C2493 C2494 1.415 . S
C2494 H2470 0.950 . S
C2494 C2489 1.363 . S
C2494 C2493 1.415 . S
C2495 H2471 0.951 . S
C2495 C2496 1.366 . S
C2495 C2497 1.388 . S
C2496 C2495 1.366 . S
C2496 C2500 1.385 . S
C2497 H2472 0.951 . S
C2497 C2495 1.388 . S
C2497 C2498 1.366 . S
C2498 C2497 1.366 . S
C2498 C2499 1.414 . S
C2498 C2501 1.499 . S
C2499 H2473 0.950 . S
C2499 C2498 1.414 . S
C2499 C2500 1.374 . S
C2500 H2474 0.950 . S
C2500 C2496 1.385 . S
C2500 C2499 1.374 . S
C2501 C2498 1.499 . S
C2501 C2502 1.373 . S
C2501 C2503 1.389 . S
C2502 H2475 0.950 . S
C2502 C2488 1.377 . S
C2502 C2501 1.373 . S
C2503 C2487 1.377 . S
C2503 C2501 1.389 . S
C2503 C2504 1.524 . S
C2504 C2503 1.524 . S
C2504 C2505 1.397 . S
C2504 C2509 1.363 . S
C2505 H2476 0.950 . S
C2505 C2504 1.397 . S
C2505 C2506 1.334 . S
C2506 H2477 0.950 . S
C2506 C2505 1.334 . S
C2506 C2507 1.287 . S
C2507 C2506 1.287 . S
C2507 C2508 1.524 . S
C2507 H2510 0.999 . S
C2508 H2478 0.950 . S
C2508 C2507 1.524 . S
C2508 C2509 1.415 . S
C2509 H2479 0.950 . S
C2509 C2504 1.363 . S
C2509 C2508 1.415 . S
H2510 C2507 0.999 . S
H2511 C2492 0.913 . S
H2512 C2530 0.951 . S
H2513 C2532 0.951 . S
H2514 C2534 0.950 . S
H2515 C2535 0.950 . S
H2516 C2537 0.950 . S
H2517 C2540 0.950 . S
H2518 C2541 0.950 . S
H2519 C2543 0.950 . S
H2520 C2544 0.950 . S
H2521 C2545 0.951 . S
H2522 C2547 0.951 . S
H2523 C2549 0.950 . S
H2524 C2550 0.950 . S
H2525 C2552 0.950 . S
H2526 C2555 0.950 . S
H2527 C2556 0.950 . S
H2528 C2558 0.950 . S
H2529 C2559 0.950 . S
C2530 H2512 0.951 . S
C2530 C2531 1.366 . S
C2530 C2532 1.388 . S
C2531 C2530 1.366 . S
C2531 C2535 1.385 . S
C2532 H2513 0.951 . S
C2532 C2530 1.388 . S
C2532 C2533 1.366 . S
C2533 C2532 1.366 . S
C2533 C2534 1.414 . S
C2533 C2536 1.499 . S
C2534 H2514 0.950 . S
C2534 C2533 1.414 . S
C2534 C2535 1.374 . S
C2535 H2515 0.950 . S
C2535 C2531 1.385 . S
C2535 C2534 1.374 . S
C2536 C2533 1.499 . S
C2536 C2537 1.373 . S
C2536 C2538 1.389 . S
C2537 H2516 0.950 . S
C2537 C2536 1.373 . S
C2537 C2553 1.377 . S
C2538 C2536 1.389 . S
C2538 C2539 1.524 . S
C2538 C2552 1.377 . S
C2539 C2538 1.524 . S
C2539 C2540 1.397 . S
C2539 C2544 1.363 . S
C2540 H2517 0.950 . S
C2540 C2539 1.397 . S
C2540 C2541 1.334 . S
C2541 H2518 0.950 . S
C2541 C2540 1.334 . S
C2541 C2542 1.287 . S
C2542 C2541 1.287 . S
C2542 C2543 1.524 . S
C2542 H2561 0.913 . S
C2543 H2519 0.950 . S
C2543 C2542 1.524 . S
C2543 C2544 1.415 . S
C2544 H2520 0.950 . S
C2544 C2539 1.363 . S
C2544 C2543 1.415 . S
C2545 H2521 0.951 . S
C2545 C2546 1.366 . S
C2545 C2547 1.388 . S
C2546 C2545 1.366 . S
C2546 C2550 1.385 . S
C2547 H2522 0.951 . S
C2547 C2545 1.388 . S
C2547 C2548 1.366 . S
C2548 C2547 1.366 . S
C2548 C2549 1.414 . S
C2548 C2551 1.499 . S
C2549 H2523 0.950 . S
C2549 C2548 1.414 . S
C2549 C2550 1.374 . S
C2550 H2524 0.950 . S
C2550 C2546 1.385 . S
C2550 C2549 1.374 . S
C2551 C2548 1.499 . S
C2551 C2552 1.373 . S
C2551 C2553 1.389 . S
C2552 H2525 0.950 . S
C2552 C2538 1.377 . S
C2552 C2551 1.373 . S
C2553 C2537 1.377 . S
C2553 C2551 1.389 . S
C2553 C2554 1.524 . S
C2554 C2553 1.524 . S
C2554 C2555 1.397 . S
C2554 C2559 1.363 . S
C2555 H2526 0.950 . S
C2555 C2554 1.397 . S
C2555 C2556 1.334 . S
C2556 H2527 0.950 . S
C2556 C2555 1.334 . S
C2556 C2557 1.287 . S
C2557 C2556 1.287 . S
C2557 C2558 1.524 . S
C2557 H2560 0.999 . S
C2558 H2528 0.950 . S
C2558 C2557 1.524 . S
C2558 C2559 1.415 . S
C2559 H2529 0.950 . S
C2559 C2554 1.363 . S
C2559 C2558 1.415 . S
H2560 C2557 0.999 . S
H2561 C2542 0.913 . S
H2562 C2580 0.951 . S
H2563 C2582 0.951 . S
H2564 C2584 0.950 . S
H2565 C2585 0.950 . S
H2566 C2587 0.950 . S
H2567 C2590 0.950 . S
H2568 C2591 0.950 . S
H2569 C2593 0.950 . S
H2570 C2594 0.950 . S
H2571 C2595 0.951 . S
H2572 C2597 0.951 . S
H2573 C2599 0.950 . S
H2574 C2600 0.950 . S
H2575 C2602 0.950 . S
H2576 C2605 0.950 . S
H2577 C2606 0.950 . S
H2578 C2608 0.950 . S
H2579 C2609 0.950 . S
C2580 H2562 0.951 . S
C2580 C2581 1.366 . S
C2580 C2582 1.388 . S
C2581 C2580 1.366 . S
C2581 C2585 1.385 . S
C2582 H2563 0.951 . S
C2582 C2580 1.388 . S
C2582 C2583 1.366 . S
C2583 C2582 1.366 . S
C2583 C2584 1.414 . S
C2583 C2586 1.499 . S
C2584 H2564 0.950 . S
C2584 C2583 1.414 . S
C2584 C2585 1.374 . S
C2585 H2565 0.950 . S
C2585 C2581 1.385 . S
C2585 C2584 1.374 . S
C2586 C2583 1.499 . S
C2586 C2587 1.373 . S
C2586 C2588 1.389 . S
C2587 H2566 0.950 . S
C2587 C2586 1.373 . S
C2587 C2603 1.377 . S
C2588 C2586 1.389 . S
C2588 C2589 1.524 . S
C2588 C2602 1.377 . S
C2589 C2588 1.524 . S
C2589 C2590 1.397 . S
C2589 C2594 1.363 . S
C2590 H2567 0.950 . S
C2590 C2589 1.397 . S
C2590 C2591 1.334 . S
C2591 H2568 0.950 . S
C2591 C2590 1.334 . S
C2591 C2592 1.287 . S
C2592 C2591 1.287 . S
C2592 C2593 1.524 . S
C2592 H2611 0.913 . S
C2593 H2569 0.950 . S
C2593 C2592 1.524 . S
C2593 C2594 1.415 . S
C2594 H2570 0.950 . S
C2594 C2589 1.363 . S
C2594 C2593 1.415 . S
C2595 H2571 0.951 . S
C2595 C2596 1.366 . S
C2595 C2597 1.388 . S
C2596 C2595 1.366 . S
C2596 C2600 1.385 . S
C2597 H2572 0.951 . S
C2597 C2595 1.388 . S
C2597 C2598 1.366 . S
C2598 C2597 1.366 . S
C2598 C2599 1.414 . S
C2598 C2601 1.499 . S
C2599 H2573 0.950 . S
C2599 C2598 1.414 . S
C2599 C2600 1.374 . S
C2600 H2574 0.950 . S
C2600 C2596 1.385 . S
C2600 C2599 1.374 . S
C2601 C2598 1.499 . S
C2601 C2602 1.373 . S
C2601 C2603 1.389 . S
C2602 H2575 0.950 . S
C2602 C2588 1.377 . S
C2602 C2601 1.373 . S
C2603 C2587 1.377 . S
C2603 C2601 1.389 . S
C2603 C2604 1.524 . S
C2604 C2603 1.524 . S
C2604 C2605 1.397 . S
C2604 C2609 1.363 . S
C2605 H2576 0.950 . S
C2605 C2604 1.397 . S
C2605 C2606 1.334 . S
C2606 H2577 0.950 . S
C2606 C2605 1.334 . S
C2606 C2607 1.287 . S
C2607 C2606 1.287 . S
C2607 C2608 1.524 . S
C2607 H2610 0.999 . S
C2608 H2578 0.950 . S
C2608 C2607 1.524 . S
C2608 C2609 1.415 . S
C2609 H2579 0.950 . S
C2609 C2604 1.363 . S
C2609 C2608 1.415 . S
H2610 C2607 0.999 . S
H2611 C2592 0.913 . S
H2612 C2630 0.951 . S
H2613 C2632 0.951 . S
H2614 C2634 0.950 . S
H2615 C2635 0.950 . S
H2616 C2637 0.950 . S
H2617 C2640 0.950 . S
H2618 C2641 0.950 . S
H2619 C2643 0.950 . S
H2620 C2644 0.950 . S
H2621 C2645 0.951 . S
H2622 C2647 0.951 . S
H2623 C2649 0.950 . S
H2624 C2650 0.950 . S
H2625 C2652 0.950 . S
H2626 C2655 0.950 . S
H2627 C2656 0.950 . S
H2628 C2658 0.950 . S
H2629 C2659 0.950 . S
C2630 H2612 0.951 . S
C2630 C2631 1.366 . S
C2630 C2632 1.388 . S
C2631 C2630 1.366 . S
C2631 C2635 1.385 . S
C2632 H2613 0.951 . S
C2632 C2630 1.388 . S
C2632 C2633 1.366 . S
C2633 C2632 1.366 . S
C2633 C2634 1.414 . S
C2633 C2636 1.499 . S
C2634 H2614 0.950 . S
C2634 C2633 1.414 . S
C2634 C2635 1.374 . S
C2635 H2615 0.950 . S
C2635 C2631 1.385 . S
C2635 C2634 1.374 . S
C2636 C2633 1.499 . S
C2636 C2637 1.373 . S
C2636 C2638 1.389 . S
C2637 H2616 0.950 . S
C2637 C2636 1.373 . S
C2637 C2653 1.377 . S
C2638 C2636 1.389 . S
C2638 C2639 1.524 . S
C2638 C2652 1.377 . S
C2639 C2638 1.524 . S
C2639 C2640 1.397 . S
C2639 C2644 1.363 . S
C2640 H2617 0.950 . S
C2640 C2639 1.397 . S
C2640 C2641 1.334 . S
C2641 H2618 0.950 . S
C2641 C2640 1.334 . S
C2641 C2642 1.287 . S
C2642 C2641 1.287 . S
C2642 C2643 1.524 . S
C2642 H2661 0.913 . S
C2643 H2619 0.950 . S
C2643 C2642 1.524 . S
C2643 C2644 1.415 . S
C2644 H2620 0.950 . S
C2644 C2639 1.363 . S
C2644 C2643 1.415 . S
C2645 H2621 0.951 . S
C2645 C2646 1.366 . S
C2645 C2647 1.388 . S
C2646 C2645 1.366 . S
C2646 C2650 1.385 . S
C2647 H2622 0.951 . S
C2647 C2645 1.388 . S
C2647 C2648 1.366 . S
C2648 C2647 1.366 . S
C2648 C2649 1.414 . S
C2648 C2651 1.499 . S
C2649 H2623 0.950 . S
C2649 C2648 1.414 . S
C2649 C2650 1.374 . S
C2650 H2624 0.950 . S
C2650 C2646 1.385 . S
C2650 C2649 1.374 . S
C2651 C2648 1.499 . S
C2651 C2652 1.373 . S
C2651 C2653 1.389 . S
C2652 H2625 0.950 . S
C2652 C2638 1.377 . S
C2652 C2651 1.373 . S
C2653 C2637 1.377 . S
C2653 C2651 1.389 . S
C2653 C2654 1.524 . S
C2654 C2653 1.524 . S
C2654 C2655 1.397 . S
C2654 C2659 1.363 . S
C2655 H2626 0.950 . S
C2655 C2654 1.397 . S
C2655 C2656 1.334 . S
C2656 H2627 0.950 . S
C2656 C2655 1.334 . S
C2656 C2657 1.287 . S
C2657 C2656 1.287 . S
C2657 C2658 1.524 . S
C2657 H2660 0.999 . S
C2658 H2628 0.950 . S
C2658 C2657 1.524 . S
C2658 C2659 1.415 . S
C2659 H2629 0.950 . S
C2659 C2654 1.363 . S
C2659 C2658 1.415 . S
H2660 C2657 0.999 . S
H2661 C2642 0.913 . S
H2662 C2680 0.951 . S
H2663 C2682 0.951 . S
H2664 C2684 0.950 . S
H2665 C2685 0.950 . S
H2666 C2687 0.950 . S
H2667 C2690 0.950 . S
H2668 C2691 0.950 . S
H2669 C2693 0.950 . S
H2670 C2694 0.950 . S
H2671 C2695 0.951 . S
H2672 C2697 0.951 . S
H2673 C2699 0.950 . S
H2674 C2700 0.950 . S
H2675 C2702 0.950 . S
H2676 C2705 0.950 . S
H2677 C2706 0.950 . S
H2678 C2708 0.950 . S
H2679 C2709 0.950 . S
C2680 H2662 0.951 . S
C2680 C2681 1.366 . S
C2680 C2682 1.388 . S
C2681 C2680 1.366 . S
C2681 C2685 1.385 . S
C2682 H2663 0.951 . S
C2682 C2680 1.388 . S
C2682 C2683 1.366 . S
C2683 C2682 1.366 . S
C2683 C2684 1.414 . S
C2683 C2686 1.499 . S
C2684 H2664 0.950 . S
C2684 C2683 1.414 . S
C2684 C2685 1.374 . S
C2685 H2665 0.950 . S
C2685 C2681 1.385 . S
C2685 C2684 1.374 . S
C2686 C2683 1.499 . S
C2686 C2687 1.373 . S
C2686 C2688 1.389 . S
C2687 H2666 0.950 . S
C2687 C2686 1.373 . S
C2687 C2703 1.377 . S
C2688 C2686 1.389 . S
C2688 C2689 1.524 . S
C2688 C2702 1.377 . S
C2689 C2688 1.524 . S
C2689 C2690 1.397 . S
C2689 C2694 1.363 . S
C2690 H2667 0.950 . S
C2690 C2689 1.397 . S
C2690 C2691 1.334 . S
C2691 H2668 0.950 . S
C2691 C2690 1.334 . S
C2691 C2692 1.287 . S
C2692 C2691 1.287 . S
C2692 C2693 1.524 . S
C2692 H2711 0.913 . S
C2693 H2669 0.950 . S
C2693 C2692 1.524 . S
C2693 C2694 1.415 . S
C2694 H2670 0.950 . S
C2694 C2689 1.363 . S
C2694 C2693 1.415 . S
C2695 H2671 0.951 . S
C2695 C2696 1.366 . S
C2695 C2697 1.388 . S
C2696 C2695 1.366 . S
C2696 C2700 1.385 . S
C2697 H2672 0.951 . S
C2697 C2695 1.388 . S
C2697 C2698 1.366 . S
C2698 C2697 1.366 . S
C2698 C2699 1.414 . S
C2698 C2701 1.499 . S
C2699 H2673 0.950 . S
C2699 C2698 1.414 . S
C2699 C2700 1.374 . S
C2700 H2674 0.950 . S
C2700 C2696 1.385 . S
C2700 C2699 1.374 . S
C2701 C2698 1.499 . S
C2701 C2702 1.373 . S
C2701 C2703 1.389 . S
C2702 H2675 0.950 . S
C2702 C2688 1.377 . S
C2702 C2701 1.373 . S
C2703 C2687 1.377 . S
C2703 C2701 1.389 . S
C2703 C2704 1.524 . S
C2704 C2703 1.524 . S
C2704 C2705 1.397 . S
C2704 C2709 1.363 . S
C2705 H2676 0.950 . S
C2705 C2704 1.397 . S
C2705 C2706 1.334 . S
C2706 H2677 0.950 . S
C2706 C2705 1.334 . S
C2706 C2707 1.287 . S
C2707 C2706 1.287 . S
C2707 C2708 1.524 . S
C2707 H2710 0.999 . S
C2708 H2678 0.950 . S
C2708 C2707 1.524 . S
C2708 C2709 1.415 . S
C2709 H2679 0.950 . S
C2709 C2704 1.363 . S
C2709 C2708 1.415 . S
H2710 C2707 0.999 . S
H2711 C2692 0.913 . S
H2712 C2730 0.951 1_554 S
H2713 C2732 0.951 . S
H2714 C2734 0.950 . S
H2715 C2735 0.950 1_554 S
H2716 C2737 0.950 . S
H2717 C2740 0.950 . S
H2718 C2741 0.950 . S
H2719 C2743 0.950 . S
H2720 C2744 0.950 . S
H2721 C2745 0.951 . S
H2722 C2747 0.951 . S
H2723 C2749 0.950 . S
H2724 C2750 0.950 . S
H2725 C2752 0.950 . S
H2726 C2755 0.950 . S
H2727 C2756 0.950 . S
H2728 C2758 0.950 . S
H2729 C2759 0.950 . S
C2730 H2712 0.951 1_556 S
C2730 C2731 1.366 1_556 S
C2730 C2732 1.388 . S
C2731 C2730 1.366 1_554 S
C2731 C2735 1.385 1_554 S
C2732 H2713 0.951 . S
C2732 C2730 1.388 . S
C2732 C2733 1.366 . S
C2733 C2732 1.366 . S
C2733 C2734 1.414 . S
C2733 C2736 1.499 . S
C2734 H2714 0.950 . S
C2734 C2733 1.414 . S
C2734 C2735 1.374 . S
C2735 H2715 0.950 1_556 S
C2735 C2731 1.385 1_556 S
C2735 C2734 1.374 . S
C2736 C2733 1.499 . S
C2736 C2737 1.373 . S
C2736 C2738 1.389 . S
C2737 H2716 0.950 . S
C2737 C2736 1.373 . S
C2737 C2753 1.377 . S
C2738 C2736 1.389 . S
C2738 C2739 1.524 . S
C2738 C2752 1.377 . S
C2739 C2738 1.524 . S
C2739 C2740 1.397 . S
C2739 C2744 1.363 . S
C2740 H2717 0.950 . S
C2740 C2739 1.397 . S
C2740 C2741 1.334 . S
C2741 H2718 0.950 . S
C2741 C2740 1.334 . S
C2741 C2742 1.287 . S
C2742 C2741 1.287 . S
C2742 C2743 1.524 . S
C2742 H2761 0.913 . S
C2743 H2719 0.950 . S
C2743 C2742 1.524 . S
C2743 C2744 1.415 . S
C2744 H2720 0.950 . S
C2744 C2739 1.363 . S
C2744 C2743 1.415 . S
C2745 H2721 0.951 . S
C2745 C2746 1.366 . S
C2745 C2747 1.388 . S
C2746 C2745 1.366 . S
C2746 C2750 1.385 . S
C2747 H2722 0.951 . S
C2747 C2745 1.388 . S
C2747 C2748 1.366 . S
C2748 C2747 1.366 . S
C2748 C2749 1.414 . S
C2748 C2751 1.499 . S
C2749 H2723 0.950 . S
C2749 C2748 1.414 . S
C2749 C2750 1.374 . S
C2750 H2724 0.950 . S
C2750 C2746 1.385 . S
C2750 C2749 1.374 . S
C2751 C2748 1.499 . S
C2751 C2752 1.373 . S
C2751 C2753 1.389 . S
C2752 H2725 0.950 . S
C2752 C2738 1.377 . S
C2752 C2751 1.373 . S
C2753 C2737 1.377 . S
C2753 C2751 1.389 . S
C2753 C2754 1.524 . S
C2754 C2753 1.524 . S
C2754 C2755 1.397 . S
C2754 C2759 1.363 . S
C2755 H2726 0.950 . S
C2755 C2754 1.397 . S
C2755 C2756 1.334 . S
C2756 H2727 0.950 . S
C2756 C2755 1.334 . S
C2756 C2757 1.287 . S
C2757 C2756 1.287 . S
C2757 C2758 1.524 . S
C2757 H2760 0.999 . S
C2758 H2728 0.950 . S
C2758 C2757 1.524 . S
C2758 C2759 1.415 . S
C2759 H2729 0.950 . S
C2759 C2754 1.363 . S
C2759 C2758 1.415 . S
H2760 C2757 0.999 . S
H2761 C2742 0.913 . S
H2762 C2780 0.951 . S
H2763 C2782 0.951 . S
H2764 C2784 0.950 . S
H2765 C2785 0.950 . S
H2766 C2787 0.950 . S
H2767 C2790 0.950 . S
H2768 C2791 0.950 . S
H2769 C2793 0.950 . S
H2770 C2794 0.950 . S
H2771 C2795 0.951 1_554 S
H2772 C2797 0.951 . S
H2773 C2799 0.950 . S
H2774 C2800 0.950 1_554 S
H2775 C2802 0.950 . S
H2776 C2805 0.950 . S
H2777 C2806 0.950 . S
H2778 C2808 0.950 . S
H2779 C2809 0.950 . S
C2780 H2762 0.951 . S
C2780 C2781 1.366 . S
C2780 C2782 1.388 . S
C2781 C2780 1.366 . S
C2781 C2785 1.385 . S
C2782 H2763 0.951 . S
C2782 C2780 1.388 . S
C2782 C2783 1.366 . S
C2783 C2782 1.366 . S
C2783 C2784 1.414 . S
C2783 C2786 1.499 . S
C2784 H2764 0.950 . S
C2784 C2783 1.414 . S
C2784 C2785 1.374 . S
C2785 H2765 0.950 . S
C2785 C2781 1.385 . S
C2785 C2784 1.374 . S
C2786 C2783 1.499 . S
C2786 C2787 1.373 . S
C2786 C2788 1.389 . S
C2787 H2766 0.950 . S
C2787 C2786 1.373 . S
C2787 C2803 1.377 . S
C2788 C2786 1.389 . S
C2788 C2789 1.524 . S
C2788 C2802 1.377 . S
C2789 C2788 1.524 . S
C2789 C2790 1.397 . S
C2789 C2794 1.363 . S
C2790 H2767 0.950 . S
C2790 C2789 1.397 . S
C2790 C2791 1.334 . S
C2791 H2768 0.950 . S
C2791 C2790 1.334 . S
C2791 C2792 1.287 . S
C2792 C2791 1.287 . S
C2792 C2793 1.524 . S
C2792 H2811 0.913 . S
C2793 H2769 0.950 . S
C2793 C2792 1.524 . S
C2793 C2794 1.415 . S
C2794 H2770 0.950 . S
C2794 C2789 1.363 . S
C2794 C2793 1.415 . S
C2795 H2771 0.951 1_556 S
C2795 C2796 1.366 1_556 S
C2795 C2797 1.388 . S
C2796 C2795 1.366 1_554 S
C2796 C2800 1.385 1_554 S
C2797 H2772 0.951 . S
C2797 C2795 1.388 . S
C2797 C2798 1.366 . S
C2798 C2797 1.366 . S
C2798 C2799 1.414 . S
C2798 C2801 1.499 . S
C2799 H2773 0.950 . S
C2799 C2798 1.414 . S
C2799 C2800 1.374 . S
C2800 H2774 0.950 1_556 S
C2800 C2796 1.385 1_556 S
C2800 C2799 1.374 . S
C2801 C2798 1.499 . S
C2801 C2802 1.373 . S
C2801 C2803 1.389 . S
C2802 H2775 0.950 . S
C2802 C2788 1.377 . S
C2802 C2801 1.373 . S
C2803 C2787 1.377 . S
C2803 C2801 1.389 . S
C2803 C2804 1.524 . S
C2804 C2803 1.524 . S
C2804 C2805 1.397 . S
C2804 C2809 1.363 . S
C2805 H2776 0.950 . S
C2805 C2804 1.397 . S
C2805 C2806 1.334 . S
C2806 H2777 0.950 . S
C2806 C2805 1.334 . S
C2806 C2807 1.287 . S
C2807 C2806 1.287 . S
C2807 C2808 1.524 . S
C2807 H2810 0.999 . S
C2808 H2778 0.950 . S
C2808 C2807 1.524 . S
C2808 C2809 1.415 . S
C2809 H2779 0.950 . S
C2809 C2804 1.363 . S
C2809 C2808 1.415 . S
H2810 C2807 0.999 . S
H2811 C2792 0.913 . S
H2812 C2830 0.951 . S
H2813 C2832 0.951 . S
H2814 C2834 0.950 . S
H2815 C2835 0.950 . S
H2816 C2837 0.950 . S
H2817 C2840 0.950 . S
H2818 C2841 0.950 . S
H2819 C2843 0.950 . S
H2820 C2844 0.950 . S
H2821 C2845 0.951 1_554 S
H2822 C2847 0.951 . S
H2823 C2849 0.950 . S
H2824 C2850 0.950 1_554 S
H2825 C2852 0.950 . S
H2826 C2855 0.950 . S
H2827 C2856 0.950 . S
H2828 C2858 0.950 . S
H2829 C2859 0.950 . S
C2830 H2812 0.951 . S
C2830 C2831 1.366 . S
C2830 C2832 1.388 . S
C2831 C2830 1.366 . S
C2831 C2835 1.385 . S
C2832 H2813 0.951 . S
C2832 C2830 1.388 . S
C2832 C2833 1.366 . S
C2833 C2832 1.366 . S
C2833 C2834 1.414 . S
C2833 C2836 1.499 . S
C2834 H2814 0.950 . S
C2834 C2833 1.414 . S
C2834 C2835 1.374 . S
C2835 H2815 0.950 . S
C2835 C2831 1.385 . S
C2835 C2834 1.374 . S
C2836 C2833 1.499 . S
C2836 C2837 1.373 . S
C2836 C2838 1.389 . S
C2837 H2816 0.950 . S
C2837 C2836 1.373 . S
C2837 C2853 1.377 . S
C2838 C2836 1.389 . S
C2838 C2839 1.524 . S
C2838 C2852 1.377 . S
C2839 C2838 1.524 . S
C2839 C2840 1.397 . S
C2839 C2844 1.363 . S
C2840 H2817 0.950 . S
C2840 C2839 1.397 . S
C2840 C2841 1.334 . S
C2841 H2818 0.950 . S
C2841 C2840 1.334 . S
C2841 C2842 1.287 . S
C2842 C2841 1.287 . S
C2842 C2843 1.524 . S
C2842 H2861 0.913 . S
C2843 H2819 0.950 . S
C2843 C2842 1.524 . S
C2843 C2844 1.415 . S
C2844 H2820 0.950 . S
C2844 C2839 1.363 . S
C2844 C2843 1.415 . S
C2845 H2821 0.951 1_556 S
C2845 C2846 1.366 1_556 S
C2845 C2847 1.388 . S
C2846 C2845 1.366 1_554 S
C2846 C2850 1.385 1_554 S
C2847 H2822 0.951 . S
C2847 C2845 1.388 . S
C2847 C2848 1.366 . S
C2848 C2847 1.366 . S
C2848 C2849 1.414 . S
C2848 C2851 1.499 . S
C2849 H2823 0.950 . S
C2849 C2848 1.414 . S
C2849 C2850 1.374 . S
C2850 H2824 0.950 1_556 S
C2850 C2846 1.385 1_556 S
C2850 C2849 1.374 . S
C2851 C2848 1.499 . S
C2851 C2852 1.373 . S
C2851 C2853 1.389 . S
C2852 H2825 0.950 . S
C2852 C2838 1.377 . S
C2852 C2851 1.373 . S
C2853 C2837 1.377 . S
C2853 C2851 1.389 . S
C2853 C2854 1.524 . S
C2854 C2853 1.524 . S
C2854 C2855 1.397 . S
C2854 C2859 1.363 . S
C2855 H2826 0.950 . S
C2855 C2854 1.397 . S
C2855 C2856 1.334 . S
C2856 H2827 0.950 . S
C2856 C2855 1.334 . S
C2856 C2857 1.287 . S
C2857 C2856 1.287 . S
C2857 C2858 1.524 . S
C2857 H2860 0.999 . S
C2858 H2828 0.950 . S
C2858 C2857 1.524 . S
C2858 C2859 1.415 . S
C2859 H2829 0.950 . S
C2859 C2854 1.363 . S
C2859 C2858 1.415 . S
H2860 C2857 0.999 . S
H2861 C2842 0.913 . S
C631 C104 1.676 . S
C646 C2 1.677 . S
C681 C138 1.677 . S
C696 C36 1.677 . S
C731 C172 1.677 . S
C746 C70 1.677 . S
C781 C67 1.055 . S
C796 C203 1.055 . S
C831 C135 1.055 . S
C846 C101 1.055 . S
C881 C169 1.055 . S
C896 C33 1.055 . S
C931 C308 1.677 . S
C946 C206 1.677 . S
C981 C240 1.677 . S
C996 C342 1.676 . S
C1031 C274 1.677 . S
C1046 C376 1.676 . S
C1081 C271 1.055 . S
C1096 C407 1.055 . S
C1131 C305 1.055 . S
C1146 C339 1.055 . S
C1181 C373 1.055 . S
C1196 C237 1.055 . S
C1231 C410 1.677 . S
C1246 C512 1.677 . S
C1281 C546 1.677 . S
C1296 C444 1.677 . S
C1331 C478 1.677 . S
C1346 C580 1.677 . S
C1381 C475 1.055 . S
C1396 C611 1.055 . S
C1431 C543 1.055 . S
C1446 C509 1.055 . S
C1481 C441 1.055 . S
C1496 C577 1.055 . S
C1531 C20 1.867 . S
C1546 C598 1.867 . S
C1581 C530 1.867 . S
C1596 C54 1.867 . S
C1631 C564 1.867 . S
C1646 C88 1.867 . S
C1681 C258 1.867 . S
C1696 C122 1.867 . S
C1731 C292 1.867 . S
C1746 C156 1.868 . S
C1781 C224 1.867 . S
C1796 C190 1.867 . S
C1831 C462 1.867 . S
C1846 C326 1.867 . S
C1881 C496 1.867 . S
C1896 C360 1.867 . S
C1931 C394 1.867 . S
C1946 C428 1.867 . S
C1981 C5 1.309 . S
C1996 C9 1.240 . S
C2031 C39 1.309 . S
C2046 C43 1.239 . S
C2081 C73 1.309 . S
C2096 C77 1.239 . S
C2131 C111 1.239 . S
C2146 C107 1.309 . S
C2181 C145 1.239 . S
C2196 C141 1.309 . S
C2231 C175 1.309 . S
C2246 C179 1.240 . S
C2281 C209 1.309 . S
C2296 C213 1.240 . S
C2331 C247 1.240 . S
C2346 C243 1.309 . S
C2381 C281 1.238 . S
C2396 C277 1.309 . S
C2431 C311 1.309 . S
C2446 C315 1.238 . S
C2481 C345 1.309 . S
C2496 C349 1.238 . S
C2531 C379 1.309 . S
C2546 C383 1.238 . S
C2581 C413 1.309 . S
C2596 C417 1.238 . S
C2631 C447 1.309 . S
C2646 C451 1.238 . S
C2681 C485 1.238 . S
C2696 C481 1.309 . S
C2731 C515 1.309 . S
C2746 C519 1.238 . S
C2781 C553 1.238 . S
C2796 C549 1.309 . S
C2831 C587 1.238 . S
C2846 C583 1.309 . S
