# Generated by pormake.
# Topology sml, (6)-cn, num edge types: 1
# Building blocks:
#     Node 0, Type 0, BuildingBlock: MIFKUJ_clean_sbu_0, # of connection points: 6
#     Node 1, Type 0, BuildingBlock: MIFKUJ_clean_sbu_0, # of connection points: 6
#     Node 2, Type 0, BuildingBlock: MIFKUJ_clean_sbu_0, # of connection points: 6
#     Node 3, Type 0, BuildingBlock: MIFKUJ_clean_sbu_0, # of connection points: 6
#     Node 4, Type 0, BuildingBlock: MIFKUJ_clean_sbu_0, # of connection points: 6
#     Node 5, Type 0, BuildingBlock: MIFKUJ_clean_sbu_0, # of connection points: 6
#     Edge 6, Type (0, 0), BuildingBlock: MIFKUJ_clean_linker_0, # of connection points: 2
#     Edge 7, Type (0, 0), BuildingBlock: MIFKUJ_clean_linker_0, # of connection points: 2
#     Edge 8, Type (0, 0), BuildingBlock: MIFKUJ_clean_linker_0, # of connection points: 2
#     Edge 9, Type (0, 0), BuildingBlock: MIFKUJ_clean_linker_0, # of connection points: 2
#     Edge 10, Type (0, 0), BuildingBlock: MIFKUJ_clean_linker_0, # of connection points: 2
#     Edge 11, Type (0, 0), BuildingBlock: MIFKUJ_clean_linker_0, # of connection points: 2
#     Edge 12, Type (0, 0), BuildingBlock: MIFKUJ_clean_linker_0, # of connection points: 2
#     Edge 13, Type (0, 0), BuildingBlock: MIFKUJ_clean_linker_0, # of connection points: 2
#     Edge 14, Type (0, 0), BuildingBlock: MIFKUJ_clean_linker_0, # of connection points: 2
#     Edge 15, Type (0, 0), BuildingBlock: MIFKUJ_clean_linker_0, # of connection points: 2
#     Edge 16, Type (0, 0), BuildingBlock: MIFKUJ_clean_linker_0, # of connection points: 2
#     Edge 17, Type (0, 0), BuildingBlock: MIFKUJ_clean_linker_0, # of connection points: 2
#     Edge 18, Type (0, 0), BuildingBlock: MIFKUJ_clean_linker_0, # of connection points: 2
#     Edge 19, Type (0, 0), BuildingBlock: MIFKUJ_clean_linker_0, # of connection points: 2
#     Edge 20, Type (0, 0), BuildingBlock: MIFKUJ_clean_linker_0, # of connection points: 2
#     Edge 21, Type (0, 0), BuildingBlock: MIFKUJ_clean_linker_0, # of connection points: 2
#     Edge 22, Type (0, 0), BuildingBlock: MIFKUJ_clean_linker_0, # of connection points: 2
#     Edge 23, Type (0, 0), BuildingBlock: MIFKUJ_clean_linker_0, # of connection points: 2
# Relax obj value: 0.139
# Max RMSD: 0.175
# Mean RMSD: 0.175
data_MOF--net-sml--node1-MIFKUJ_clean_sbu_0--edge1-MIFKUJ_clean_linker_0
_symmetry_space_group_name_H-M    P1
_symmetry_Int_Tables_number       1
_symmetry_cell_setting            triclinic
loop_
_symmetry_equiv_pos_as_xyz
'x, y, z'
_cell_length_a     49.791128
_cell_length_b     49.798398
_cell_length_c     22.583719
_cell_angle_alpha  89.937589
_cell_angle_beta   90.045616
_cell_angle_gamma 120.02192
loop_
_atom_site_label
_atom_site_type_symbol
_atom_site_fract_x
_atom_site_fract_y
_atom_site_fract_z
_atom_type_partial_charge
Zn0 Zn 0.21543 0.42473 0.08596 0.0
Zn1 Zn 0.19909 0.4249 0.95478 0.0
C2 C 0.22272 0.47945 0.13363 0.0
O3 O 0.24783 0.47941 0.15141 0.0
C4 C 0.20035 0.37106 0.92055 0.0
O5 O 0.1753 0.36689 0.89295 0.0
O6 O 0.22476 0.41628 0.16926 0.0
O7 O 0.17715 0.38499 0.05918 0.0
O8 O 0.15912 0.40723 -0.00021 0.0
C9 C 0.20143 0.40502 0.20385 0.0
O10 O 0.1741 0.39733 0.18176 0.0
O11 O 0.20354 0.45744 0.10072 0.0
C12 C 0.21732 0.44055 0.83602 0.0
O13 O 0.24401 0.44977 0.86259 0.0
O14 O 0.19281 0.42963 0.86742 0.0
O15 O 0.23258 0.46632 0.98245 0.0
O16 O 0.25496 0.44609 0.03571 0.0
O17 O 0.21463 0.39439 0.95451 0.0
C18 C 0.15429 0.38651 0.03789 0.0
C19 C 0.25708 0.46792 0.00291 0.0
Zn20 Zn 0.76996 0.20797 0.39234 0.0
Zn21 Zn 0.78455 0.18853 0.25695 0.0
C22 C 0.72556 0.2284 0.40019 0.0
O23 O 0.75105 0.25549 0.40446 0.0
C24 C 0.84749 0.20271 0.27117 0.0
O25 O 0.83465 0.17268 0.26253 0.0
O26 O 0.78556 0.22072 0.47501 0.0
O27 O 0.76238 0.16424 0.38596 0.0
O28 O 0.76601 0.14736 0.29773 0.0
C29 C 0.76631 0.20195 0.51258 0.0
O30 O 0.74009 0.17855 0.49346 0.0
O31 O 0.72777 0.20433 0.39207 0.0
C32 C 0.80071 0.20725 0.14077 0.0
O33 O 0.81673 0.2334 0.16988 0.0
O34 O 0.78387 0.18239 0.16952 0.0
O35 O 0.76331 0.21372 0.26612 0.0
O36 O 0.79653 0.24206 0.33432 0.0
O37 O 0.83015 0.21454 0.27607 0.0
C38 C 0.76011 0.14269 0.35263 0.0
C39 C 0.78172 0.24026 0.28739 0.0
Zn40 Zn 0.57971 0.78856 0.74845 0.0
Zn41 Zn 0.5874 0.77985 0.61856 0.0
C42 C 0.5203 0.73835 0.77431 0.0
O43 O 0.51643 0.76221 0.78404 0.0
C44 C 0.64164 0.8372 0.59462 0.0
O45 O 0.64838 0.81773 0.56856 0.0
O46 O 0.58378 0.8032 0.8326 0.0
O47 O 0.62134 0.79153 0.73068 0.0
O48 O 0.60399 0.75595 0.66134 0.0
C49 C 0.59067 0.78745 0.86741 0.0
O50 O 0.59538 0.76582 0.84494 0.0
O51 O 0.54647 0.74323 0.75557 0.0
C52 C 0.5777 0.78866 0.50121 0.0
O53 O 0.57063 0.80729 0.52969 0.0
O54 O 0.58573 0.77208 0.53091 0.0
O55 O 0.54435 0.76958 0.63881 0.0
O56 O 0.56156 0.80971 0.69763 0.0
O57 O 0.61682 0.82629 0.6249 0.0
C58 C 0.62227 0.76946 0.7043 0.0
C59 C 0.5417 0.79171 0.65992 0.0
Zn60 Zn 0.79548 0.5694 0.04943 0.0
Zn61 Zn 0.81832 0.59079 0.92056 0.0
C62 C 0.78459 0.50912 0.05959 0.0
O63 O 0.75724 0.50628 0.06892 0.0
C64 C 0.8113 0.64403 0.90843 0.0
O65 O 0.83873 0.65459 0.88404 0.0
O66 O 0.78294 0.56823 0.13452 0.0
O67 O 0.83282 0.61265 0.04317 0.0
O68 O 0.8572 0.60595 0.96888 0.0
C69 C 0.80463 0.57113 0.16857 0.0
O70 O 0.83013 0.57426 0.14481 0.0
O71 O 0.8073 0.53581 0.04699 0.0
C72 C 0.80479 0.58969 0.80212 0.0
O73 O 0.77861 0.58268 0.82871 0.0
O74 O 0.82812 0.59482 0.8335 0.0
O75 O 0.78601 0.54616 0.92877 0.0
O76 O 0.7587 0.55496 0.99405 0.0
O77 O 0.79849 0.61748 0.93304 0.0
C78 C 0.85802 0.61859 0.01812 0.0
C79 C 0.75985 0.53989 0.94958 0.0
Zn80 Zn 0.21503 0.78678 0.42072 0.0
Zn81 Zn 0.21647 0.80365 0.28935 0.0
C82 C 0.26718 0.77988 0.4391 0.0
O83 O 0.2443 0.75115 0.444 0.0
C84 C 0.15676 0.79802 0.28587 0.0
O85 O 0.17378 0.8266 0.26657 0.0
O86 O 0.2009 0.77533 0.50466 0.0
O87 O 0.20889 0.82369 0.40635 0.0
O88 O 0.24058 0.84424 0.33122 0.0
C89 C 0.21602 0.79841 0.53879 0.0
O90 O 0.23755 0.82471 0.51592 0.0
O91 O 0.26095 0.80102 0.42605 0.0
C92 C 0.20257 0.78666 0.17206 0.0
O93 O 0.18506 0.76046 0.2002 0.0
O94 O 0.21995 0.81091 0.20193 0.0
O95 O 0.23005 0.7726 0.30118 0.0
O96 O 0.19477 0.74796 0.36941 0.0
O97 O 0.17031 0.78369 0.30424 0.0
C98 C 0.22857 0.84755 0.37812 0.0
C99 C 0.21069 0.74738 0.32593 0.0
Zn100 Zn 0.42714 0.22214 0.73512 0.0
Zn101 Zn 0.4007 0.21767 0.60248 0.0
C102 C 0.49097 0.26872 0.73697 0.0
O103 O 0.4935 0.24384 0.74339 0.0
C104 C 0.34869 0.15792 0.595 0.0
O105 O 0.33815 0.17493 0.5711 0.0
O106 O 0.4289 0.20901 0.81851 0.0
O107 O 0.3884 0.22595 0.73442 0.0
O108 O 0.38134 0.23887 0.64439 0.0
C109 C 0.43189 0.22956 0.85553 0.0
O110 O 0.43304 0.25494 0.83571 0.0
O111 O 0.46419 0.26559 0.73033 0.0
C112 C 0.40397 0.20304 0.48549 0.0
O113 O 0.41027 0.18398 0.51451 0.0
O114 O 0.39823 0.22151 0.51447 0.0
O115 O 0.44589 0.23397 0.61541 0.0
O116 O 0.43549 0.1961 0.67672 0.0
O117 O 0.37564 0.17153 0.6179 0.0
C118 C 0.37529 0.2359 0.69941 0.0
C119 C 0.45163 0.21343 0.63435 0.0
H120 H 0.36816 0.24649 0.81545 0.0
H121 H 0.3353 0.26534 0.856 0.0
H122 H 0.30063 0.26549 0.68081 0.0
H123 H 0.33439 0.24765 0.63957 0.0
H124 H 0.31372 0.31633 0.73232 0.0
H125 H 0.25756 0.21039 0.79015 0.0
H126 H 0.24857 0.1615 0.83528 0.0
H127 H 0.2713 0.2046 0.00654 0.0
H128 H 0.2812 0.25403 0.96227 0.0
H129 H 0.18615 0.33236 0.82599 0.0
H130 H 0.21314 0.30538 0.79314 0.0
H131 H 0.27257 0.33873 0.94641 0.0
H132 H 0.24605 0.36645 0.97934 0.0
H133 H 0.24535 0.27012 0.90708 0.0
H134 H 0.30182 0.3772 0.84181 0.0
H135 H 0.30665 0.4235 0.79217 0.0
H136 H 0.27858 0.37399 0.62746 0.0
H137 H 0.27232 0.32697 0.67667 0.0
C138 C 0.35338 0.2503 0.78551 0.0
C139 C 0.35393 0.24559 0.72418 0.0
C140 C 0.33444 0.26095 0.80888 0.0
C141 C 0.31514 0.26651 0.77164 0.0
C142 C 0.31533 0.2614 0.71047 0.0
C143 C 0.3346 0.25115 0.68694 0.0
C144 C 0.2959 0.27906 0.79603 0.0
C145 C 0.29844 0.30587 0.76998 0.0
C146 C 0.27628 0.26577 0.84589 0.0
C147 C 0.27051 0.23609 0.8727 0.0
C148 C 0.261 0.20959 0.83734 0.0
C149 C 0.25571 0.18175 0.86279 0.0
C150 C 0.2595 0.17999 0.9237 0.0
C151 C 0.26846 0.20603 0.95932 0.0
C152 C 0.27396 0.23398 0.93406 0.0
C153 C 0.20464 0.33362 0.85331 0.0
C154 C 0.21412 0.3517 0.90514 0.0
C155 C 0.22005 0.31824 0.83433 0.0
C156 C 0.2449 0.32034 0.86717 0.0
C157 C 0.25338 0.33692 0.92058 0.0
C158 C 0.23831 0.35279 0.93916 0.0
C159 C 0.26339 0.30711 0.84324 0.0
C160 C 0.26066 0.28032 0.86937 0.0
C161 C 0.2824 0.32002 0.79279 0.0
C162 C 0.2861 0.34835 0.76323 0.0
C163 C 0.29613 0.37598 0.79526 0.0
C164 C 0.29918 0.4024 0.76715 0.0
C165 C 0.29281 0.40166 0.70674 0.0
C166 C 0.28345 0.37452 0.67429 0.0
C167 C 0.28 0.34793 0.70234 0.0
H168 H 0.29519 0.42214 0.68505 0.0
H169 H 0.25539 0.15842 0.94334 0.0
H170 H 0.13362 0.33303 0.1016 0.0
H171 H 0.08254 0.30154 0.14727 0.0
H172 H 0.05316 0.36316 0.07652 0.0
H173 H 0.10398 0.39453 0.02987 0.0
H174 H 0.04124 0.34895 0.2021 0.0
H175 H 0.02649 0.2981 0.01269 0.0
H176 H 0.03954 0.2723 0.93391 0.0
H177 H 0.02875 0.20157 0.05644 0.0
H178 H 0.01607 0.22723 0.13621 0.0
H179 H 0.87873 0.26448 0.24448 0.0
H180 H 0.93251 0.29552 0.21278 0.0
H181 H 0.94679 0.21818 0.2462 0.0
H182 H 0.8924 0.18651 0.2755 0.0
H183 H 0.96862 0.23997 0.14428 0.0
H184 H 0.98102 0.28733 0.33292 0.0
H185 H 0.96963 0.31259 0.41522 0.0
H186 H 0.987 0.38886 0.30173 0.0
H187 H 0.99809 0.36386 0.21848 0.0
C188 C 0.11619 0.33972 0.09529 0.0
C189 C 0.12279 0.3662 0.06191 0.0
C190 C 0.08707 0.32174 0.12147 0.0
C191 C 0.06417 0.33011 0.11529 0.0
C192 C 0.0706 0.35641 0.08185 0.0
C193 C 0.09955 0.37415 0.0549 0.0
C194 C 0.03354 0.31153 0.14408 0.0
C195 C 0.02513 0.32521 0.18922 0.0
C196 C 0.01318 0.28028 0.12853 0.0
C197 C 0.02068 0.26478 0.08056 0.0
C198 C 0.02718 0.27721 0.02297 0.0
C199 C 0.03445 0.26258 0.97811 0.0
C200 C 0.03507 0.23537 0.9902 0.0
C201 C 0.02832 0.22268 0.04716 0.0
C202 C 0.02107 0.23725 0.09219 0.0
C203 C 0.89346 0.25424 0.2463 0.0
C204 C 0.88129 0.22299 0.26246 0.0
C205 C 0.92434 0.2721 0.22828 0.0
C206 C 0.94395 0.25936 0.22745 0.0
C207 C 0.93216 0.22855 0.24621 0.0
C208 C 0.90111 0.2105 0.26327 0.0
C209 C 0.97587 0.27734 0.20259 0.0
C210 C 0.98465 0.26359 0.15795 0.0
C211 C 0.99676 0.30842 0.21932 0.0
C212 C 0.99014 0.32357 0.2693 0.0
C213 C 0.98218 0.30938 0.32537 0.0
C214 C 0.97582 0.32367 0.37223 0.0
C215 C 0.97752 0.35228 0.36367 0.0
C216 C 0.98567 0.36668 0.30827 0.0
C217 C 0.99203 0.35248 0.26125 0.0
H218 H 0.97259 0.3633 0.4 0.0
H219 H 0.04069 0.22407 0.95541 0.0
H220 H 0.76385 0.09403 0.30457 0.0
H221 H 0.74718 0.04332 0.34949 0.0
H222 H 0.71556 0.07039 0.5041 0.0
H223 H 0.73315 0.12127 0.46056 0.0
H224 H 0.74279 0.04105 0.53881 0.0
H225 H 0.66502 0.02086 0.39337 0.0
H226 H 0.6442 0.02088 0.29427 0.0
H227 H 0.68204 0.96621 0.22669 0.0
H228 H 0.70346 0.96622 0.32526 0.0
H229 H 0.63605 0.88496 0.6422 0.0
H230 H 0.66049 0.93862 0.6062 0.0
H231 H 0.71041 0.9182 0.47468 0.0
H232 H 0.68667 0.86495 0.51072 0.0
H233 H 0.67478 0.94392 0.42939 0.0
H234 H 0.74928 0.96231 0.5824 0.0
H235 H 0.76727 0.9623 0.68409 0.0
H236 H 0.73112 0.02025 0.7411 0.0
H237 H 0.71238 0.02015 0.63994 0.0
C238 C 0.7533 0.08913 0.34808 0.0
C239 C 0.74972 0.11168 0.3788 0.0
C240 C 0.74366 0.06008 0.37369 0.0
C241 C 0.72966 0.05277 0.42996 0.0
C242 C 0.7263 0.07538 0.46074 0.0
C243 C 0.7363 0.1045 0.43559 0.0
C244 C 0.71843 0.02163 0.45696 0.0
C245 C 0.72759 0.01983 0.51507 0.0
C246 C 0.69893 0.99384 0.42591 0.0
C247 C 0.68614 0.99384 0.36654 0.0
C248 C 0.66912 0.00906 0.35726 0.0
C249 C 0.65717 0.00903 0.30121 0.0
C250 C 0.66187 0.99363 0.25417 0.0
C251 C 0.67847 0.97817 0.26314 0.0
C252 C 0.6905 0.97817 0.31909 0.0
C253 C 0.65269 0.89207 0.60638 0.0
C254 C 0.65932 0.87062 0.57925 0.0
C255 C 0.66663 0.92273 0.5859 0.0
C256 C 0.68718 0.9323 0.53768 0.0
C257 C 0.69459 0.91124 0.51189 0.0
C258 C 0.68104 0.88081 0.53278 0.0
C259 C 0.69913 0.96346 0.51099 0.0
C260 C 0.69001 0.9652 0.45297 0.0
C261 C 0.71813 0.99113 0.54259 0.0
C262 C 0.72902 0.99084 0.60367 0.0
C263 C 0.74477 0.9747 0.61674 0.0
C264 C 0.7552 0.9748 0.67428 0.0
C265 C 0.75024 0.99117 0.71908 0.0
C266 C 0.73488 0.00752 0.7064 0.0
C267 C 0.72435 0.00744 0.64896 0.0
H268 H 0.75838 0.99125 0.76357 0.0
H269 H 0.65259 0.99362 0.21081 0.0
H270 H 0.62174 0.71612 0.67393 0.0
H271 H 0.65387 0.69616 0.71392 0.0
H272 H 0.70286 0.77793 0.82259 0.0
H273 H 0.66987 0.79747 0.78438 0.0
H274 H 0.71144 0.71384 0.70902 0.0
H275 H 0.73048 0.76207 0.94675 0.0
H276 H 0.70434 0.77643 0.02238 0.0
H277 H 0.61574 0.71258 0.94684 0.0
H278 H 0.64143 0.69772 0.87082 0.0
H279 H 0.82966 0.69726 0.84538 0.0
H280 H 0.79801 0.71963 0.81471 0.0
H281 H 0.72037 0.64904 0.91263 0.0
H282 H 0.75194 0.6264 0.94373 0.0
H283 H 0.72537 0.70632 0.92481 0.0
H284 H 0.71829 0.63965 0.7635 0.0
H285 H 0.73784 0.6183 0.68733 0.0
H286 H 0.79399 0.70924 0.61339 0.0
H287 H 0.77405 0.73099 0.68832 0.0
C288 C 0.63939 0.72992 0.70626 0.0
C289 C 0.64318 0.75838 0.726 0.0
C290 C 0.65779 0.71846 0.72914 0.0
C291 C 0.6806 0.73527 0.77198 0.0
C292 C 0.68498 0.76411 0.79066 0.0
C293 C 0.66626 0.7754 0.76838 0.0
C294 C 0.69987 0.72258 0.79621 0.0
C295 C 0.71446 0.71234 0.75626 0.0
C296 C 0.70369 0.72012 0.85786 0.0
C297 C 0.68792 0.72904 0.90282 0.0
C298 C 0.70542 0.75111 0.94629 0.0
C299 C 0.69067 0.75938 0.98918 0.0
C300 C 0.65839 0.74559 0.98931 0.0
C301 C 0.64077 0.72343 0.9465 0.0
C302 C 0.65542 0.71512 0.90339 0.0
C303 C 0.80598 0.68666 0.86114 0.0
C304 C 0.79332 0.65991 0.89686 0.0
C305 C 0.78786 0.6994 0.8432 0.0
C306 C 0.75669 0.68573 0.8606 0.0
C307 C 0.74435 0.6599 0.89851 0.0
C308 C 0.76244 0.64701 0.9163 0.0
C309 C 0.73683 0.69786 0.83758 0.0
C310 C 0.72233 0.70805 0.87765 0.0
C311 C 0.73246 0.69968 0.77614 0.0
C312 C 0.74497 0.68695 0.73176 0.0
C313 C 0.73498 0.65509 0.73121 0.0
C314 C 0.74607 0.64292 0.68821 0.0
C315 C 0.76746 0.66244 0.64597 0.0
C316 C 0.77752 0.69416 0.64626 0.0
C317 C 0.76618 0.70639 0.68874 0.0
H318 H 0.77609 0.65297 0.61282 0.0
H319 H 0.64705 0.75198 0.02273 0.0
H320 H 0.12063 0.82188 0.24971 0.0
H321 H 0.06713 0.79323 0.21438 0.0
H322 H 0.06312 0.7069 0.25773 0.0
H323 H 0.11645 0.73542 0.29414 0.0
H324 H 0.04781 0.75638 0.12272 0.0
H325 H 0.98873 0.65043 0.2805 0.0
H326 H 0.98974 0.63815 0.38605 0.0
H327 H 0.02063 0.7328 0.43247 0.0
H328 H 0.01961 0.7456 0.32727 0.0
H329 H 0.91656 0.63299 0.98359 0.0
H330 H 0.96528 0.66496 0.03653 0.0
H331 H 0.91584 0.68289 0.17332 0.0
H332 H 0.86707 0.65045 0.12152 0.0
H333 H 0.95609 0.67077 0.22227 0.0
H334 H 0.95972 0.73807 0.0671 0.0
H335 H 0.95745 0.75347 0.96421 0.0
H336 H 0.03493 0.74228 0.91803 0.0
H337 H 0.03739 0.7264 0.0205 0.0
C338 C 0.10816 0.79682 0.25293 0.0
C339 C 0.12289 0.78096 0.27449 0.0
C340 C 0.07759 0.78045 0.23248 0.0
C341 C 0.06105 0.74789 0.23321 0.0
C342 C 0.0752 0.73201 0.25736 0.0
C343 C 0.10577 0.74839 0.27811 0.0
C344 C 0.03022 0.73063 0.2039 0.0
C345 C 0.02774 0.73774 0.14465 0.0
C346 C 0.00387 0.70651 0.23251 0.0
C347 C 0.0044 0.69902 0.29593 0.0
C348 C 0.99569 0.66861 0.31325 0.0
C349 C 0.99633 0.66157 0.37299 0.0
C350 C 0.00539 0.68472 0.41591 0.0
C351 C 0.01377 0.71493 0.39916 0.0
C352 C 0.01326 0.72211 0.33946 0.0
C353 C 0.91608 0.64391 0.02471 0.0
C354 C 0.88791 0.6393 0.04804 0.0
C355 C 0.94397 0.66224 0.05492 0.0
C356 C 0.94431 0.67665 0.10865 0.0
C357 C 0.91621 0.67206 0.13198 0.0
C358 C 0.88833 0.65362 0.10203 0.0
C359 C 0.97388 0.69626 0.14088 0.0
C360 C 0.97614 0.68951 0.2005 0.0
C361 C 0.9999 0.72114 0.11298 0.0
C362 C 0.99856 0.73078 0.05136 0.0
C363 C 0.97613 0.73868 0.03491 0.0
C364 C 0.97484 0.74753 0.97668 0.0
C365 C 0.99599 0.74878 0.93459 0.0
C366 C 0.01854 0.74126 0.95067 0.0
C367 C 0.01991 0.73237 0.00883 0.0
H368 H 0.99495 0.75564 0.88953 0.0
H369 H 0.00579 0.6792 0.46215 0.0
H370 H 0.36284 0.11502 0.63873 0.0
H371 H 0.33987 0.06062 0.60908 0.0
H372 H 0.2761 0.07064 0.49425 0.0
H373 H 0.29796 0.12434 0.52541 0.0
H374 H 0.24739 0.01644 0.54052 0.0
H375 H 0.34626 0.07653 0.44282 0.0
H376 H 0.40289 0.11182 0.4379 0.0
H377 H 0.41762 0.04815 0.5419 0.0
H378 H 0.36108 0.0125 0.54767 0.0
H379 H 0.26671 0.90367 0.32576 0.0
H380 H 0.28466 0.95528 0.36704 0.0
H381 H 0.23198 0.91393 0.52611 0.0
H382 H 0.21303 0.86241 0.48433 0.0
H383 H 0.31883 0.98353 0.45856 0.0
H384 H 0.20898 0.96059 0.58832 0.0
H385 H 0.15212 0.9273 0.5818 0.0
H386 H 0.15864 0.92072 0.39334 0.0
H387 H 0.21547 0.95428 0.39865 0.0
C388 C 0.34355 0.10543 0.60799 0.0
C389 C 0.33238 0.12408 0.58413 0.0
C390 C 0.3306 0.07441 0.59069 0.0
C391 C 0.3067 0.06168 0.54834 0.0
C392 C 0.29456 0.07988 0.52681 0.0
C393 C 0.30716 0.11068 0.54468 0.0
C394 C 0.29516 0.03 0.5241 0.0
C395 C 0.26305 0.00922 0.52286 0.0
C396 C 0.31547 0.02067 0.4999 0.0
C397 C 0.34946 0.04201 0.49618 0.0
C398 C 0.36158 0.07015 0.46492 0.0
C399 C 0.39365 0.0902 0.46195 0.0
C400 C 0.41382 0.08232 0.48982 0.0
C401 C 0.40197 0.05426 0.52045 0.0
C402 C 0.36993 0.03409 0.5235 0.0
C403 C 0.25871 0.90557 0.36929 0.0
C404 C 0.23838 0.87889 0.40165 0.0
C405 C 0.26913 0.93509 0.39299 0.0
C406 C 0.25954 0.93856 0.44956 0.0
C407 C 0.2393 0.91193 0.48198 0.0
C408 C 0.22858 0.88243 0.45805 0.0
C409 C 0.27106 0.97001 0.47489 0.0
C410 C 0.30318 0.99069 0.47649 0.0
C411 C 0.25071 0.97957 0.49782 0.0
C412 C 0.2165 0.95968 0.49403 0.0
C413 C 0.19826 0.95213 0.54548 0.0
C414 C 0.16604 0.93319 0.542 0.0
C415 C 0.15179 0.92182 0.48722 0.0
C416 C 0.16971 0.92945 0.43577 0.0
C417 C 0.20193 0.94839 0.43901 0.0
H418 H 0.12685 0.90715 0.48463 0.0
H419 H 0.43863 0.09791 0.48751 0.0
H420 H 0.1658 0.41103 0.76512 0.0
H421 H 0.16454 0.40535 0.65721 0.0
H422 H 0.2642 0.46194 0.65096 0.0
H423 H 0.26572 0.46771 0.75855 0.0
H424 H 0.23503 0.47568 0.5599 0.0
H425 H 0.23374 0.38816 0.64735 0.0
H426 H 0.2153 0.34325 0.71418 0.0
H427 H 0.12722 0.29864 0.62539 0.0
H428 H 0.14507 0.34366 0.55857 0.0
H429 H 0.25512 0.43464 0.26909 0.0
H430 H 0.25949 0.44009 0.37712 0.0
H431 H 0.16037 0.3813 0.39332 0.0
H432 H 0.15585 0.37556 0.28588 0.0
H433 H 0.19113 0.36907 0.47972 0.0
H434 H 0.19211 0.45852 0.39516 0.0
H435 H 0.21143 0.50382 0.32882 0.0
H436 H 0.3008 0.54475 0.41244 0.0
H437 H 0.28212 0.49944 0.47872 0.0
C438 C 0.1874 0.42264 0.7407 0.0
C439 C 0.21586 0.43973 0.77046 0.0
C440 C 0.18665 0.41928 0.67909 0.0
C441 C 0.21431 0.43304 0.64616 0.0
C442 C 0.24261 0.45118 0.67548 0.0
C443 C 0.2434 0.45434 0.73704 0.0
C444 C 0.21391 0.42718 0.58161 0.0
C445 C 0.22576 0.45242 0.54238 0.0
C446 C 0.20151 0.39677 0.55879 0.0
C447 C 0.19069 0.36943 0.59833 0.0
C448 C 0.21039 0.36886 0.64234 0.0
C449 C 0.20005 0.34338 0.68021 0.0
C450 C 0.17007 0.3181 0.67417 0.0
C451 C 0.15043 0.31826 0.63008 0.0
C452 C 0.16067 0.34377 0.59217 0.0
C453 C 0.23435 0.4224 0.29576 0.0
C454 C 0.20512 0.40483 0.26891 0.0
C455 C 0.23685 0.4257 0.35744 0.0
C456 C 0.21018 0.41147 0.39321 0.0
C457 C 0.18123 0.39257 0.36663 0.0
C458 C 0.1787 0.38939 0.30513 0.0
C459 C 0.212 0.41755 0.45791 0.0
C460 C 0.20043 0.39234 0.49723 0.0
C461 C 0.22467 0.44799 0.4808 0.0
C462 C 0.23581 0.47543 0.44149 0.0
C463 C 0.21595 0.47707 0.39912 0.0
C464 C 0.22677 0.50276 0.36155 0.0
C465 C 0.25735 0.5271 0.3663 0.0
C466 C 0.27713 0.52585 0.40875 0.0
C467 C 0.26644 0.50018 0.44635 0.0
H468 H 0.26571 0.54697 0.33721 0.0
H469 H 0.1621 0.29839 0.70359 0.0
H470 H 0.84053 0.2541 0.06845 0.0
H471 H 0.83965 0.25563 0.96046 0.0
H472 H 0.76066 0.16285 0.958 0.0
H473 H 0.76196 0.16082 0.06603 0.0
H474 H 0.79999 0.16915 0.87458 0.0
H475 H 0.75353 0.2281 0.94201 0.0
H476 H 0.75059 0.26934 0.99699 0.0
H477 H 0.82936 0.33872 0.9013 0.0
H478 H 0.83311 0.29788 0.8464 0.0
H479 H 0.73165 0.16222 0.59995 0.0
H480 H 0.74311 0.16628 0.70538 0.0
H481 H 0.82786 0.25277 0.67613 0.0
H482 H 0.81651 0.24899 0.56963 0.0
H483 H 0.79176 0.25321 0.77313 0.0
H484 H 0.83358 0.19116 0.69927 0.0
H485 H 0.83196 0.14807 0.64262 0.0
H486 H 0.75653 0.08224 0.75021 0.0
H487 H 0.75739 0.12495 0.807 0.0
C488 C 0.82306 0.23396 0.04488 0.0
C489 C 0.80116 0.20739 0.0756 0.0
C490 C 0.82252 0.23493 0.98323 0.0
C491 C 0.79977 0.20957 0.95134 0.0
C492 C 0.77838 0.18271 0.98185 0.0
C493 C 0.77912 0.18159 0.04351 0.0
C494 C 0.79792 0.21103 0.88619 0.0
C495 C 0.79797 0.18741 0.85246 0.0
C496 C 0.79598 0.23529 0.85736 0.0
C497 C 0.79384 0.2599 0.89059 0.0
C498 C 0.77042 0.25214 0.93308 0.0
C499 C 0.76857 0.27545 0.96416 0.0
C500 C 0.78984 0.30662 0.95276 0.0
C501 C 0.81295 0.31455 0.91017 0.0
C502 C 0.81495 0.29134 0.87906 0.0
C503 C 0.75273 0.18219 0.61572 0.0
C504 C 0.77328 0.20525 0.57646 0.0
C505 C 0.75927 0.18438 0.67598 0.0
C506 C 0.78649 0.20959 0.69816 0.0
C507 C 0.80681 0.23306 0.65951 0.0
C508 C 0.80033 0.23083 0.59887 0.0
C509 C 0.79335 0.21111 0.76199 0.0
C510 C 0.79424 0.23525 0.79538 0.0
C511 C 0.79565 0.18708 0.79067 0.0
C512 C 0.79544 0.16131 0.75717 0.0
C513 C 0.81652 0.16751 0.71064 0.0
C514 C 0.81575 0.14314 0.67852 0.0
C515 C 0.79412 0.11243 0.69273 0.0
C516 C 0.77327 0.10603 0.73924 0.0
C517 C 0.77393 0.13032 0.77147 0.0
H518 H 0.79352 0.09359 0.66778 0.0
H519 H 0.78837 0.32462 0.97681 0.0
H520 H 0.56398 0.82345 0.42749 0.0
H521 H 0.56673 0.82572 0.31974 0.0
H522 H 0.59478 0.75659 0.31873 0.0
H523 H 0.59262 0.75454 0.42709 0.0
H524 H 0.63067 0.80472 0.24695 0.0
H525 H 0.52114 0.73828 0.28018 0.0
H526 H 0.47018 0.72405 0.32307 0.0
H527 H 0.47288 0.80266 0.23864 0.0
H528 H 0.52408 0.81761 0.19585 0.0
H529 H 0.60427 0.7566 0.9503 0.0
H530 H 0.6031 0.76063 0.0575 0.0
H531 H 0.57756 0.83121 0.03949 0.0
H532 H 0.57829 0.827 0.93124 0.0
H533 H 0.5416 0.78674 0.12058 0.0
H534 H 0.64945 0.8511 0.08149 0.0
H535 H 0.70055 0.8656 0.03913 0.0
H536 H 0.7015 0.79165 0.13525 0.0
H537 H 0.65006 0.77621 0.17712 0.0
C538 C 0.57058 0.80856 0.40445 0.0
C539 C 0.57803 0.78874 0.43583 0.0
C540 C 0.57203 0.80984 0.34279 0.0
C541 C 0.58065 0.79111 0.31124 0.0
C542 C 0.58803 0.77121 0.34235 0.0
C543 C 0.58667 0.76997 0.40417 0.0
C544 C 0.58273 0.79286 0.24582 0.0
C545 C 0.61109 0.80039 0.21923 0.0
C546 C 0.55747 0.78831 0.20994 0.0
C547 C 0.52658 0.77923 0.2353 0.0
C548 C 0.51097 0.75267 0.27112 0.0
C549 C 0.48203 0.74445 0.29535 0.0
C550 C 0.46834 0.76249 0.28372 0.0
C551 C 0.48353 0.78874 0.24768 0.0
C552 C 0.5125 0.79707 0.22338 0.0
C553 C 0.59867 0.77321 0.96894 0.0
C554 C 0.59151 0.79158 0.93226 0.0
C555 C 0.59812 0.77555 0.03029 0.0
C556 C 0.59065 0.7965 0.05638 0.0
C557 C 0.58351 0.81499 0.02007 0.0
C558 C 0.58406 0.81264 0.95837 0.0
C559 C 0.5894 0.79808 0.12167 0.0
C560 C 0.56123 0.79124 0.14828 0.0
C561 C 0.61485 0.80328 0.15762 0.0
C562 C 0.64574 0.81235 0.13214 0.0
C563 C 0.66039 0.83772 0.09315 0.0
C564 C 0.68945 0.84613 0.06926 0.0
C565 C 0.70425 0.82954 0.08445 0.0
C566 C 0.69001 0.80449 0.12354 0.0
C567 C 0.66089 0.79588 0.14732 0.0
H568 H 0.72676 0.83611 0.06594 0.0
H569 H 0.44593 0.75609 0.30254 0.0
H570 H 0.76406 0.59307 0.72746 0.0
H571 H 0.76421 0.59254 0.61954 0.0
H572 H 0.84813 0.58726 0.62132 0.0
H573 H 0.84881 0.58924 0.72984 0.0
H574 H 0.85061 0.62416 0.53561 0.0
H575 H 0.7751 0.52225 0.60174 0.0
H576 H 0.72952 0.4841 0.65843 0.0
H577 H 0.67181 0.5113 0.5649 0.0
H578 H 0.71718 0.55004 0.50836 0.0
H579 H 0.84228 0.56632 0.24942 0.0
H580 H 0.84115 0.57054 0.35658 0.0
H581 H 0.76126 0.58239 0.34281 0.0
H582 H 0.7618 0.57745 0.23466 0.0
H583 H 0.75599 0.54384 0.43364 0.0
H584 H 0.83374 0.64444 0.3627 0.0
H585 H 0.88035 0.68026 0.30566 0.0
H586 H 0.9351 0.65274 0.40848 0.0
H587 H 0.88877 0.61631 0.46531 0.0
C588 C 0.78271 0.59211 0.70484 0.0
C589 C 0.8063 0.591 0.73694 0.0
C590 C 0.78267 0.59162 0.64318 0.0
C591 C 0.80578 0.58913 0.61237 0.0
C592 C 0.82998 0.58902 0.64425 0.0
C593 C 0.83032 0.59008 0.70615 0.0
C594 C 0.80417 0.58583 0.54705 0.0
C595 C 0.83005 0.6064 0.51335 0.0
C596 C 0.77707 0.56297 0.51799 0.0
C597 C 0.74962 0.53927 0.55118 0.0
C598 C 0.75273 0.52024 0.59349 0.0
C599 C 0.72693 0.4985 0.6256 0.0
C600 C 0.69781 0.49535 0.61538 0.0
C601 C 0.6944 0.51382 0.57283 0.0
C602 C 0.72015 0.53567 0.54073 0.0
C603 C 0.82436 0.56973 0.26903 0.0
C604 C 0.80229 0.57188 0.23359 0.0
C605 C 0.82384 0.57224 0.33033 0.0
C606 C 0.80157 0.57748 0.35748 0.0
C607 C 0.77879 0.57859 0.32253 0.0
C608 C 0.77913 0.57579 0.2609 0.0
C609 C 0.80247 0.58205 0.42235 0.0
C610 C 0.77646 0.56173 0.45594 0.0
C611 C 0.82959 0.60488 0.45134 0.0
C612 C 0.85768 0.62744 0.41804 0.0
C613 C 0.85569 0.64589 0.37294 0.0
C614 C 0.88208 0.66631 0.3406 0.0
C615 C 0.91069 0.66873 0.3533 0.0
C616 C 0.91296 0.65083 0.39856 0.0
C617 C 0.88664 0.6303 0.43089 0.0
H618 H 0.93109 0.6845 0.32817 0.0
H619 H 0.67789 0.47857 0.64039 0.0
H620 H 0.17984 0.74621 0.60483 0.0
H621 H 0.17425 0.74302 0.71291 0.0
H622 H 0.23415 0.84217 0.72542 0.0
H623 H 0.24014 0.84552 0.61829 0.0
H624 H 0.25197 0.81223 0.79955 0.0
H625 H 0.15642 0.80856 0.74717 0.0
H626 H 0.10609 0.78823 0.69638 0.0
H627 H 0.07274 0.70006 0.78166 0.0
H628 H 0.12306 0.71973 0.83233 0.0
H629 H 0.2323 0.83732 0.09973 0.0
H630 H 0.23155 0.8381 0.99148 0.0
H631 H 0.17102 0.73882 0.98905 0.0
H632 H 0.17117 0.73787 0.09709 0.0
H633 H 0.15261 0.76673 0.90992 0.0
H634 H 0.24776 0.77008 0.96198 0.0
H635 H 0.29795 0.7901 0.0132 0.0
H636 H 0.33197 0.87839 0.92798 0.0
H637 H 0.28181 0.85901 0.87686 0.0
C638 C 0.19157 0.76731 0.63069 0.0
C639 C 0.2106 0.79607 0.6032 0.0
C640 C 0.18829 0.76548 0.6923 0.0
C641 C 0.20376 0.79239 0.72701 0.0
C642 C 0.22214 0.82113 0.6994 0.0
C643 C 0.22552 0.82297 0.63814 0.0
C644 C 0.20227 0.79074 0.79235 0.0
C645 C 0.23026 0.80263 0.82371 0.0
C646 C 0.17387 0.7774 0.82361 0.0
C647 C 0.14364 0.76552 0.79302 0.0
C648 C 0.13847 0.78474 0.75466 0.0
C649 C 0.10992 0.77336 0.72599 0.0
C650 C 0.08627 0.74284 0.73565 0.0
C651 C 0.0911 0.72367 0.77413 0.0
C652 C 0.11962 0.73493 0.80286 0.0
C653 C 0.2188 0.81567 0.07613 0.0
C654 C 0.20196 0.78752 0.10686 0.0
C655 C 0.21844 0.81614 0.01436 0.0
C656 C 0.20152 0.78845 0.98238 0.0
C657 C 0.18422 0.76042 0.01297 0.0
C658 C 0.18445 0.75994 0.07469 0.0
C659 C 0.20235 0.78861 0.91697 0.0
C660 C 0.17428 0.77632 0.88566 0.0
C661 C 0.23068 0.80152 0.88558 0.0
C662 C 0.26093 0.81317 0.91603 0.0
C663 C 0.26587 0.79383 0.9545 0.0
C664 C 0.29432 0.80505 0.98346 0.0
C665 C 0.31811 0.83552 0.97396 0.0
C666 C 0.31351 0.85481 0.93535 0.0
C667 C 0.28509 0.84371 0.90633 0.0
H668 H 0.34012 0.84417 0.99643 0.0
H669 H 0.06417 0.73408 0.71343 0.0
H670 H 0.39993 0.15785 0.41268 0.0
H671 H 0.40458 0.15942 0.30501 0.0
H672 H 0.41569 0.25114 0.30366 0.0
H673 H 0.41007 0.24923 0.41148 0.0
H674 H 0.3796 0.21876 0.21734 0.0
H675 H 0.47798 0.2383 0.29035 0.0
H676 H 0.51392 0.22826 0.34875 0.0
H677 H 0.48447 0.1435 0.25339 0.0
H678 H 0.44791 0.15275 0.19502 0.0
H679 H 0.44667 0.27279 0.94127 0.0
H680 H 0.44301 0.26498 0.048 0.0
H681 H 0.41504 0.16861 0.02317 0.0
H682 H 0.41896 0.1763 0.91531 0.0
H683 H 0.45783 0.19935 0.12069 0.0
H684 H 0.36038 0.18469 0.04366 0.0
H685 H 0.32999 0.20119 0.98284 0.0
H686 H 0.36375 0.28403 0.08684 0.0
H687 H 0.39472 0.26828 0.14765 0.0
C688 C 0.40329 0.17831 0.38937 0.0
C689 C 0.40491 0.20353 0.42034 0.0
C690 C 0.40607 0.17923 0.3279 0.0
C691 C 0.41112 0.20565 0.2964 0.0
C692 C 0.41192 0.23056 0.32715 0.0
C693 C 0.40871 0.22946 0.38866 0.0
C694 C 0.41558 0.20737 0.23141 0.0
C695 C 0.39688 0.21473 0.1964 0.0
C696 C 0.43784 0.20164 0.20393 0.0
C697 C 0.45991 0.19605 0.23875 0.0
C698 C 0.47895 0.21738 0.28214 0.0
C699 C 0.49946 0.21185 0.3152 0.0
C700 C 0.50139 0.18521 0.30491 0.0
C701 C 0.48288 0.16409 0.26139 0.0
C702 C 0.46226 0.16946 0.22829 0.0
C703 C 0.44 0.24995 0.95831 0.0
C704 C 0.43262 0.22501 0.91991 0.0
C705 C 0.438 0.24558 0.01933 0.0
C706 C 0.42828 0.21614 0.04317 0.0
C707 C 0.42247 0.19148 0.00532 0.0
C708 C 0.42462 0.19588 0.9439 0.0
C709 C 0.42208 0.21102 0.1073 0.0
C710 C 0.44037 0.20298 0.14195 0.0
C711 C 0.39988 0.21671 0.13473 0.0
C712 C 0.38003 0.22539 0.09997 0.0
C713 C 0.36137 0.20645 0.05347 0.0
C714 C 0.34406 0.21569 0.01896 0.0
C715 C 0.34505 0.2437 0.03085 0.0
C716 C 0.36306 0.26236 0.07764 0.0
C717 C 0.38045 0.25327 0.11219 0.0
H718 H 0.33192 0.251 0.00381 0.0
H719 H 0.51725 0.18098 0.33059 0.0
H720 H 0.17843 0.49261 0.09361 0.0
H721 H 0.17177 0.53638 0.12316 0.0
H722 H 0.2471 0.56592 0.24764 0.0
H723 H 0.25426 0.52295 0.21785 0.0
H724 H 0.15914 0.55592 0.22669 0.0
H725 H 0.29134 0.64297 0.24466 0.0
H726 H 0.34001 0.65086 0.20013 0.0
H727 H 0.29058 0.60243 0.04358 0.0
H728 H 0.24173 0.59472 0.08673 0.0
H729 H 0.18683 0.69164 0.38404 0.0
H730 H 0.1845 0.64413 0.34782 0.0
H731 H 0.2234 0.68906 0.1808 0.0
H732 H 0.22701 0.7367 0.21757 0.0
H733 H 0.25164 0.66119 0.2133 0.0
H734 H 0.14463 0.63155 0.19912 0.0
H735 H 0.09416 0.62334 0.23414 0.0
H736 H 0.08979 0.55802 0.36353 0.0
H737 H 0.14045 0.56616 0.32982 0.0
C738 C 0.19348 0.50842 0.12739 0.0
C739 C 0.21718 0.50463 0.15273 0.0
C740 C 0.18955 0.53328 0.1444 0.0
C741 C 0.20926 0.55463 0.18695 0.0
C742 C 0.23203 0.55005 0.21394 0.0
C743 C 0.2361 0.52547 0.19674 0.0
C744 C 0.20722 0.58256 0.20162 0.0
C745 C 0.17928 0.57898 0.22366 0.0
C746 C 0.23334 0.61266 0.19629 0.0
C747 C 0.26283 0.61805 0.16921 0.0
C748 C 0.29089 0.6342 0.20058 0.0
C749 C 0.31851 0.6386 0.1756 0.0
C750 C 0.31837 0.62707 0.11914 0.0
C751 C 0.29065 0.61127 0.08738 0.0
C752 C 0.26299 0.60687 0.1121 0.0
C753 C 0.19466 0.69123 0.33949 0.0
C754 C 0.20721 0.71789 0.30376 0.0
C755 C 0.19318 0.66404 0.31868 0.0
C756 C 0.20355 0.66287 0.2613 0.0
C757 C 0.21541 0.68936 0.22528 0.0
C758 C 0.21741 0.7166 0.24637 0.0
C759 C 0.2036 0.63473 0.23949 0.0
C760 C 0.23133 0.63824 0.21615 0.0
C761 C 0.17701 0.60474 0.24206 0.0
C762 C 0.14647 0.59967 0.26227 0.0
C763 C 0.13301 0.6156 0.23532 0.0
C764 C 0.10435 0.61093 0.25489 0.0
C765 C 0.08881 0.59023 0.30112 0.0
C766 C 0.10186 0.57408 0.32777 0.0
C767 C 0.13054 0.57868 0.3084 0.0
H768 H 0.06663 0.58665 0.31622 0.0
H769 H 0.33975 0.63041 0.09997 0.0
H770 H 0.66937 0.17512 0.41125 0.0
H771 H 0.62069 0.17041 0.44579 0.0
H772 H 0.66395 0.27012 0.45264 0.0
H773 H 0.71281 0.27503 0.41891 0.0
H774 H 0.63649 0.2452 0.55409 0.0
H775 H 0.60755 0.22706 0.34979 0.0
H776 H 0.59823 0.20252 0.25145 0.0
H777 H 0.53228 0.11473 0.327 0.0
H778 H 0.54151 0.13866 0.426 0.0
H779 H 0.50397 0.26151 0.58892 0.0
H780 H 0.54904 0.26075 0.54851 0.0
H781 H 0.50622 0.16301 0.58692 0.0
H782 H 0.46096 0.16374 0.62896 0.0
H783 H 0.53177 0.18367 0.46526 0.0
H784 H 0.56048 0.20392 0.67014 0.0
H785 H 0.56946 0.23037 0.76641 0.0
H786 H 0.63571 0.31662 0.68613 0.0
H787 H 0.62682 0.29077 0.58911 0.0
C788 C 0.6684 0.19607 0.41913 0.0
C789 C 0.69505 0.22547 0.41284 0.0
C790 C 0.64049 0.19332 0.43868 0.0
C791 C 0.63866 0.21991 0.45182 0.0
C792 C 0.66487 0.24928 0.44303 0.0
C793 C 0.69278 0.25205 0.42364 0.0
C794 C 0.6104 0.21719 0.47963 0.0
C795 C 0.61367 0.23206 0.53416 0.0
C796 C 0.58046 0.19925 0.45463 0.0
C797 C 0.57555 0.18459 0.39547 0.0
C798 C 0.59136 0.20244 0.34559 0.0
C799 C 0.58601 0.18866 0.28968 0.0
C800 C 0.56476 0.15706 0.28302 0.0
C801 C 0.54881 0.13918 0.33226 0.0
C802 C 0.55409 0.15284 0.38827 0.0
C803 C 0.50415 0.23985 0.58894 0.0
C804 C 0.47902 0.21265 0.61199 0.0
C805 C 0.52993 0.23949 0.56602 0.0
C806 C 0.53088 0.21186 0.56491 0.0
C807 C 0.5058 0.18454 0.58758 0.0
C808 C 0.48014 0.18502 0.61175 0.0
C809 C 0.55811 0.21186 0.53907 0.0
C810 C 0.55463 0.19656 0.48509 0.0
C811 C 0.58793 0.22962 0.56422 0.0
C812 C 0.59281 0.24542 0.62223 0.0
C813 C 0.57672 0.22859 0.67285 0.0
C814 C 0.58191 0.24345 0.72762 0.0
C815 C 0.60326 0.27512 0.73243 0.0
C816 C 0.6193 0.29205 0.68238 0.0
C817 C 0.6142 0.2773 0.62749 0.0
H818 H 0.60726 0.28657 0.77488 0.0
H819 H 0.56058 0.14646 0.23967 0.0
H820 H 0.31476 0.47285 0.00682 0.0
H821 H 0.36335 0.51504 0.96545 0.0
H822 H 0.31595 0.56435 0.91636 0.0
H823 H 0.26779 0.52257 0.9564 0.0
H824 H 0.3482 0.56144 0.82559 0.0
H825 H 0.36647 0.58702 0.03392 0.0
H826 H 0.37215 0.57681 0.13874 0.0
H827 H 0.447 0.56127 0.09305 0.0
H828 H 0.4415 0.57104 0.98777 0.0
H829 H 0.45907 0.71904 0.78687 0.0
H830 H 0.41791 0.66857 0.82108 0.0
H831 H 0.48333 0.63597 0.8326 0.0
H832 H 0.52484 0.68668 0.79774 0.0
H833 H 0.44653 0.62428 0.9355 0.0
H834 H 0.43284 0.60941 0.7271 0.0
H835 H 0.42616 0.62124 0.624 0.0
H836 H 0.34076 0.61744 0.67078 0.0
H837 H 0.34744 0.60669 0.77455 0.0
C838 C 0.3149 0.4929 0.98784 0.0
C839 C 0.28741 0.49427 0.98449 0.0
C840 C 0.34263 0.51695 0.96418 0.0
C841 C 0.34325 0.54279 0.93747 0.0
C842 C 0.316 0.54452 0.93607 0.0
C843 C 0.28846 0.52059 0.95921 0.0
C844 C 0.37168 0.56784 0.90892 0.0
C845 C 0.36966 0.5753 0.84973 0.0
C846 C 0.40001 0.58522 0.93976 0.0
C847 C 0.40331 0.57935 0.00294 0.0
C848 C 0.38396 0.58115 0.04617 0.0
C849 C 0.38718 0.57551 0.10567 0.0
C850 C 0.40985 0.56828 0.12252 0.0
C851 C 0.4294 0.5668 0.07991 0.0
C852 C 0.42626 0.5724 0.02034 0.0
C853 C 0.46467 0.70105 0.79605 0.0
C854 C 0.49516 0.70679 0.78959 0.0
C855 C 0.4411 0.67219 0.81546 0.0
C856 C 0.44755 0.6485 0.82917 0.0
C857 C 0.4779 0.65397 0.82215 0.0
C858 C 0.5015 0.68282 0.8019 0.0
C859 C 0.42255 0.61858 0.85294 0.0
C860 C 0.42525 0.61013 0.91106 0.0
C861 C 0.39463 0.60047 0.82133 0.0
C862 C 0.39079 0.60745 0.7589 0.0
C863 C 0.41284 0.61151 0.71564 0.0
C864 C 0.40905 0.61803 0.65701 0.0
C865 C 0.38311 0.62019 0.64086 0.0
C866 C 0.3609 0.61584 0.68334 0.0
C867 C 0.36472 0.60961 0.74212 0.0
H868 H 0.38018 0.62518 0.59543 0.0
H869 H 0.41231 0.56393 0.1686 0.0
H870 H 0.83254 0.29836 0.28868 0.0
H871 H 0.83859 0.34491 0.23959 0.0
H872 H 0.74485 0.29236 0.17323 0.0
H873 H 0.73952 0.24553 0.21925 0.0
H874 H 0.77705 0.32911 0.09243 0.0
H875 H 0.76753 0.34296 0.29943 0.0
H876 H 0.78035 0.34593 0.40559 0.0
H877 H 0.87176 0.42217 0.37112 0.0
H878 H 0.85961 0.41935 0.26454 0.0
H879 H 0.73954 0.44866 0.06486 0.0
H880 H 0.74488 0.40419 0.09258 0.0
H881 H 0.84394 0.46362 0.10698 0.0
H882 H 0.83881 0.5085 0.07853 0.0
H883 H 0.81492 0.42609 0.20812 0.0
H884 H 0.81684 0.41285 0.99651 0.0
H885 H 0.79712 0.40857 0.8947 0.0
H886 H 0.71061 0.32919 0.94506 0.0
H887 H 0.72969 0.33318 0.04732 0.0
C888 C 0.81329 0.29683 0.26352 0.0
C889 C 0.78549 0.26845 0.2581 0.0
C890 C 0.8167 0.32346 0.23564 0.0
C891 C 0.79197 0.32243 0.20354 0.0
C892 C 0.76432 0.29389 0.19758 0.0
C893 C 0.76122 0.26713 0.22414 0.0
C894 C 0.79451 0.35105 0.17707 0.0
C895 C 0.78515 0.35021 0.11801 0.0
C896 C 0.80544 0.37887 0.20988 0.0
C897 C 0.81278 0.3807 0.27394 0.0
C898 C 0.79044 0.36021 0.31444 0.0
C899 C 0.79757 0.36189 0.37468 0.0
C900 C 0.82688 0.38417 0.39506 0.0
C901 C 0.84909 0.40488 0.35524 0.0
C902 C 0.84209 0.40326 0.29492 0.0
C903 C 0.76255 0.45224 0.07288 0.0
C904 C 0.78876 0.48207 0.06944 0.0
C905 C 0.76555 0.42677 0.08856 0.0
C906 C 0.79479 0.43058 0.10148 0.0
C907 C 0.82117 0.46021 0.09688 0.0
C908 C 0.81822 0.48576 0.08041 0.0
C909 C 0.79719 0.40388 0.12408 0.0
C910 C 0.80734 0.40509 0.18246 0.0
C911 C 0.786 0.37611 0.09135 0.0
C912 C 0.77466 0.37343 0.02965 0.0
C913 C 0.79356 0.39458 0.98594 0.0
C914 C 0.7825 0.39218 0.92813 0.0
C915 C 0.75262 0.36864 0.91344 0.0
C916 C 0.73376 0.34739 0.95649 0.0
C917 C 0.7447 0.34968 0.01435 0.0
H918 H 0.74409 0.36686 0.8687 0.0
H919 H 0.83237 0.38544 0.44172 0.0
H920 H 0.31454 0.83444 0.4832 0.0
H921 H 0.36401 0.84314 0.52372 0.0
H922 H 0.34072 0.75067 0.47088 0.0
H923 H 0.29105 0.74159 0.43273 0.0
H924 H 0.35833 0.75879 0.57918 0.0
H925 H 0.3986 0.81978 0.40108 0.0
H926 H 0.40759 0.86119 0.33022 0.0
H927 H 0.45281 0.92972 0.46598 0.0
H928 H 0.44374 0.88865 0.53786 0.0
H929 H 0.49583 0.75515 0.5832 0.0
H930 H 0.45236 0.76054 0.54994 0.0
H931 H 0.48443 0.84284 0.65631 0.0
H932 H 0.52865 0.83767 0.69034 0.0
H933 H 0.46374 0.8461 0.53504 0.0
H934 H 0.42726 0.78185 0.70956 0.0
H935 H 0.42004 0.73846 0.77324 0.0
H936 H 0.36844 0.67379 0.63504 0.0
H937 H 0.37567 0.71673 0.57045 0.0
C938 C 0.32032 0.81623 0.47938 0.0
C939 C 0.29894 0.78729 0.45509 0.0
C940 C 0.3486 0.82122 0.50251 0.0
C941 C 0.35618 0.79754 0.50052 0.0
C942 C 0.33535 0.7692 0.47359 0.0
C943 C 0.30699 0.76406 0.45153 0.0
C944 C 0.38467 0.8011 0.52949 0.0
C945 C 0.38134 0.77784 0.56907 0.0
C946 C 0.41474 0.82645 0.51812 0.0
C947 C 0.42015 0.85113 0.475 0.0
C948 C 0.41022 0.84366 0.41594 0.0
C949 C 0.41538 0.86707 0.37557 0.0
C950 C 0.43066 0.89806 0.39364 0.0
C951 C 0.44091 0.90571 0.45208 0.0
C952 C 0.43579 0.88238 0.49264 0.0
C953 C 0.49384 0.77449 0.59974 0.0
C954 C 0.51564 0.79585 0.63994 0.0
C955 C 0.46892 0.77752 0.58051 0.0
C956 C 0.46505 0.80191 0.60103 0.0
C957 C 0.48706 0.82383 0.64006 0.0
C958 C 0.51215 0.82074 0.65966 0.0
C959 C 0.43717 0.80327 0.58269 0.0
C960 C 0.4406 0.82741 0.54559 0.0
C961 C 0.40711 0.77851 0.59553 0.0
C962 C 0.40213 0.75255 0.63506 0.0
C963 C 0.4145 0.75837 0.69269 0.0
C964 C 0.41042 0.73383 0.72897 0.0
C965 C 0.39391 0.70334 0.70819 0.0
C966 C 0.38129 0.69735 0.6512 0.0
C967 C 0.3853 0.72179 0.61477 0.0
H968 H 0.39083 0.68438 0.73627 0.0
H969 H 0.43464 0.91615 0.36232 0.0
H970 H 0.70188 0.50718 -0.00095 0.0
H971 H 0.65596 0.46257 0.95605 0.0
H972 H 0.70794 0.47013 0.79805 0.0
H973 H 0.75378 0.51435 0.84066 0.0
H974 H 0.65027 0.46003 0.77127 0.0
H975 H 0.69569 0.41411 0.88963 0.0
H976 H 0.71825 0.40382 0.97804 0.0
H977 H 0.63391 0.37572 0.07429 0.0
H978 H 0.61081 0.38577 0.98624 0.0
H979 H 0.55132 0.28482 0.72209 0.0
H980 H 0.59732 0.33408 0.74941 0.0
H981 H 0.53873 0.37114 0.79907 0.0
H982 H 0.49272 0.32221 0.77101 0.0
H983 H 0.60046 0.35878 0.87599 0.0
H984 H 0.56401 0.42031 0.74343 0.0
H985 H 0.54677 0.42617 0.64409 0.0
H986 H 0.62183 0.41989 0.5648 0.0
H987 H 0.63908 0.41345 0.66373 0.0
C988 C 0.70341 0.49943 0.95503 0.0
C989 C 0.73143 0.51414 0.92336 0.0
C990 C 0.67726 0.47391 0.93065 0.0
C991 C 0.67868 0.46297 0.87406 0.0
C992 C 0.70638 0.47819 0.84177 0.0
C993 C 0.73256 0.50338 0.86634 0.0
C994 C 0.65147 0.43529 0.84885 0.0
C995 C 0.63931 0.43798 0.79446 0.0
C996 C 0.63766 0.40628 0.87807 0.0
C997 C 0.65167 0.40104 0.93164 0.0
C998 C 0.68207 0.40604 0.92985 0.0
C999 C 0.69491 0.40011 0.97978 0.0
C1000 C 0.67757 0.38925 0.03184 0.0
C1001 C 0.64733 0.38419 0.03397 0.0
C1002 C 0.63432 0.3899 0.98401 0.0
C1003 C 0.54836 0.30369 0.73792 0.0
C1004 C 0.51854 0.29969 0.74485 0.0
C1005 C 0.57456 0.33174 0.75326 0.0
C1006 C 0.57133 0.3562 0.77572 0.0
C1007 C 0.54168 0.35272 0.78063 0.0
C1008 C 0.51544 0.32474 0.76475 0.0
C1009 C 0.59864 0.38396 0.79998 0.0
C1010 C 0.61108 0.38109 0.85374 0.0
C1011 C 0.61314 0.41254 0.76963 0.0
C1012 C 0.6025 0.41598 0.71057 0.0
C1013 C 0.57656 0.41982 0.70469 0.0
C1014 C 0.56684 0.42331 0.64853 0.0
C1015 C 0.58311 0.42327 0.59813 0.0
C1016 C 0.60915 0.41976 0.60381 0.0
C1017 C 0.61885 0.41612 0.65986 0.0
H1018 H 0.57561 0.42606 0.55472 0.0
H1019 H 0.68752 0.38466 0.07047 0.0
loop_
_geom_bond_atom_site_label_1
_geom_bond_atom_site_label_2
_geom_bond_distance
_geom_bond_site_symmetry_2
_ccdc_geom_bond_type
Zn0 O6 1.969 . S
Zn0 O7 1.965 . S
Zn0 O11 2.024 . S
Zn0 O16 1.969 . S
Zn1 O8 1.969 . S
Zn1 O14 1.969 . S
Zn1 O15 1.965 . S
Zn1 O17 2.024 . S
C2 O3 1.229 . S
C2 O11 1.058 . S
O3 C2 1.229 . S
C4 O5 1.229 . S
C4 O17 1.058 . S
O5 C4 1.229 . S
O6 Zn0 1.969 . S
O6 C9 1.267 . S
O7 Zn0 1.965 . S
O7 C18 1.260 . S
O8 Zn1 1.969 . S
O8 C18 1.258 1_556 S
C9 O6 1.267 . S
C9 O10 1.228 . S
O10 C9 1.228 . S
O11 Zn0 2.024 . S
O11 C2 1.058 . S
C12 O13 1.228 . S
C12 O14 1.267 . S
O13 C12 1.228 . S
O14 Zn1 1.969 . S
O14 C12 1.267 . S
O15 Zn1 1.965 . S
O15 C19 1.260 . S
O16 Zn0 1.969 . S
O16 C19 1.258 1_554 S
O17 Zn1 2.024 . S
O17 C4 1.058 . S
C18 O7 1.260 . S
C18 O8 1.258 1_554 S
C19 O15 1.260 . S
C19 O16 1.258 1_556 S
Zn20 O26 1.969 . S
Zn20 O27 1.965 . S
Zn20 O31 2.024 . S
Zn20 O36 1.969 . S
Zn21 O28 1.969 . S
Zn21 O34 1.969 . S
Zn21 O35 1.965 . S
Zn21 O37 2.024 . S
C22 O23 1.229 . S
C22 O31 1.058 . S
O23 C22 1.229 . S
C24 O25 1.229 . S
C24 O37 1.058 . S
O25 C24 1.229 . S
O26 Zn20 1.969 . S
O26 C29 1.267 . S
O27 Zn20 1.965 . S
O27 C38 1.260 . S
O28 Zn21 1.969 . S
O28 C38 1.258 . S
C29 O26 1.267 . S
C29 O30 1.228 . S
O30 C29 1.228 . S
O31 Zn20 2.024 . S
O31 C22 1.058 . S
C32 O33 1.228 . S
C32 O34 1.267 . S
O33 C32 1.228 . S
O34 Zn21 1.969 . S
O34 C32 1.267 . S
O35 Zn21 1.965 . S
O35 C39 1.260 . S
O36 Zn20 1.969 . S
O36 C39 1.258 . S
O37 Zn21 2.024 . S
O37 C24 1.058 . S
C38 O27 1.260 . S
C38 O28 1.258 . S
C39 O35 1.260 . S
C39 O36 1.258 . S
Zn40 O46 1.969 . S
Zn40 O47 1.965 . S
Zn40 O51 2.024 . S
Zn40 O56 1.969 . S
Zn41 O48 1.969 . S
Zn41 O54 1.969 . S
Zn41 O55 1.965 . S
Zn41 O57 2.024 . S
C42 O43 1.229 . S
C42 O51 1.058 . S
O43 C42 1.229 . S
C44 O45 1.229 . S
C44 O57 1.058 . S
O45 C44 1.229 . S
O46 Zn40 1.969 . S
O46 C49 1.267 . S
O47 Zn40 1.965 . S
O47 C58 1.260 . S
O48 Zn41 1.969 . S
O48 C58 1.258 . S
C49 O46 1.267 . S
C49 O50 1.228 . S
O50 C49 1.228 . S
O51 Zn40 2.024 . S
O51 C42 1.058 . S
C52 O53 1.228 . S
C52 O54 1.267 . S
O53 C52 1.228 . S
O54 Zn41 1.969 . S
O54 C52 1.267 . S
O55 Zn41 1.965 . S
O55 C59 1.260 . S
O56 Zn40 1.969 . S
O56 C59 1.258 . S
O57 Zn41 2.024 . S
O57 C44 1.058 . S
C58 O47 1.260 . S
C58 O48 1.258 . S
C59 O55 1.260 . S
C59 O56 1.258 . S
Zn60 O66 1.969 . S
Zn60 O67 1.965 . S
Zn60 O71 2.024 . S
Zn60 O76 1.969 . S
Zn61 O68 1.969 . S
Zn61 O74 1.969 . S
Zn61 O75 1.965 . S
Zn61 O77 2.024 . S
C62 O63 1.229 . S
C62 O71 1.058 . S
O63 C62 1.229 . S
C64 O65 1.229 . S
C64 O77 1.058 . S
O65 C64 1.229 . S
O66 Zn60 1.969 . S
O66 C69 1.267 . S
O67 Zn60 1.965 . S
O67 C78 1.260 . S
O68 Zn61 1.969 . S
O68 C78 1.258 1_556 S
C69 O66 1.267 . S
C69 O70 1.228 . S
O70 C69 1.228 . S
O71 Zn60 2.024 . S
O71 C62 1.058 . S
C72 O73 1.228 . S
C72 O74 1.267 . S
O73 C72 1.228 . S
O74 Zn61 1.969 . S
O74 C72 1.267 . S
O75 Zn61 1.965 . S
O75 C79 1.260 . S
O76 Zn60 1.969 . S
O76 C79 1.258 1_554 S
O77 Zn61 2.024 . S
O77 C64 1.058 . S
C78 O67 1.260 . S
C78 O68 1.258 1_554 S
C79 O75 1.260 . S
C79 O76 1.258 1_556 S
Zn80 O86 1.969 . S
Zn80 O87 1.965 . S
Zn80 O91 2.024 . S
Zn80 O96 1.969 . S
Zn81 O88 1.969 . S
Zn81 O94 1.969 . S
Zn81 O95 1.965 . S
Zn81 O97 2.024 . S
C82 O83 1.229 . S
C82 O91 1.058 . S
O83 C82 1.229 . S
C84 O85 1.229 . S
C84 O97 1.058 . S
O85 C84 1.229 . S
O86 Zn80 1.969 . S
O86 C89 1.267 . S
O87 Zn80 1.965 . S
O87 C98 1.260 . S
O88 Zn81 1.969 . S
O88 C98 1.258 . S
C89 O86 1.267 . S
C89 O90 1.228 . S
O90 C89 1.228 . S
O91 Zn80 2.024 . S
O91 C82 1.058 . S
C92 O93 1.228 . S
C92 O94 1.267 . S
O93 C92 1.228 . S
O94 Zn81 1.969 . S
O94 C92 1.267 . S
O95 Zn81 1.965 . S
O95 C99 1.260 . S
O96 Zn80 1.969 . S
O96 C99 1.258 . S
O97 Zn81 2.024 . S
O97 C84 1.058 . S
C98 O87 1.260 . S
C98 O88 1.258 . S
C99 O95 1.260 . S
C99 O96 1.258 . S
Zn100 O106 1.969 . S
Zn100 O107 1.965 . S
Zn100 O111 2.024 . S
Zn100 O116 1.969 . S
Zn101 O108 1.969 . S
Zn101 O114 1.969 . S
Zn101 O115 1.965 . S
Zn101 O117 2.024 . S
C102 O103 1.229 . S
C102 O111 1.058 . S
O103 C102 1.229 . S
C104 O105 1.229 . S
C104 O117 1.058 . S
O105 C104 1.229 . S
O106 Zn100 1.969 . S
O106 C109 1.267 . S
O107 Zn100 1.965 . S
O107 C118 1.260 . S
O108 Zn101 1.969 . S
O108 C118 1.258 . S
C109 O106 1.267 . S
C109 O110 1.228 . S
O110 C109 1.228 . S
O111 Zn100 2.024 . S
O111 C102 1.058 . S
C112 O113 1.228 . S
C112 O114 1.267 . S
O113 C112 1.228 . S
O114 Zn101 1.969 . S
O114 C112 1.267 . S
O115 Zn101 1.965 . S
O115 C119 1.260 . S
O116 Zn100 1.969 . S
O116 C119 1.258 . S
O117 Zn101 2.024 . S
O117 C104 1.058 . S
C118 O107 1.260 . S
C118 O108 1.258 . S
C119 O115 1.260 . S
C119 O116 1.258 . S
H120 C138 0.951 . S
H121 C140 0.951 . S
H122 C142 0.950 . S
H123 C143 0.950 . S
H124 C145 0.950 . S
H125 C148 0.950 . S
H126 C149 0.950 . S
H127 C151 0.950 1_554 S
H128 C152 0.950 . S
H129 C153 0.951 . S
H130 C155 0.951 . S
H131 C157 0.950 . S
H132 C158 0.950 . S
H133 C160 0.950 . S
H134 C163 0.950 . S
H135 C164 0.950 . S
H136 C166 0.950 . S
H137 C167 0.950 . S
C138 H120 0.951 . S
C138 C139 1.366 . S
C138 C140 1.388 . S
C139 C138 1.366 . S
C139 C143 1.385 . S
C140 H121 0.951 . S
C140 C138 1.388 . S
C140 C141 1.366 . S
C141 C140 1.366 . S
C141 C142 1.414 . S
C141 C144 1.499 . S
C142 H122 0.950 . S
C142 C141 1.414 . S
C142 C143 1.374 . S
C143 H123 0.950 . S
C143 C139 1.385 . S
C143 C142 1.374 . S
C144 C141 1.499 . S
C144 C145 1.373 . S
C144 C146 1.389 . S
C145 H124 0.950 . S
C145 C144 1.373 . S
C145 C161 1.377 . S
C146 C144 1.389 . S
C146 C147 1.524 . S
C146 C160 1.377 . S
C147 C146 1.524 . S
C147 C148 1.397 . S
C147 C152 1.363 . S
C148 H125 0.950 . S
C148 C147 1.397 . S
C148 C149 1.334 . S
C149 H126 0.950 . S
C149 C148 1.334 . S
C149 C150 1.287 . S
C150 C149 1.287 . S
C150 C151 1.524 . S
C150 H169 0.904 1_556 S
C151 H127 0.950 1_556 S
C151 C150 1.524 . S
C151 C152 1.415 . S
C152 H128 0.950 . S
C152 C147 1.363 . S
C152 C151 1.415 . S
C153 H129 0.951 . S
C153 C154 1.366 . S
C153 C155 1.388 . S
C154 C153 1.366 . S
C154 C158 1.385 . S
C155 H130 0.951 . S
C155 C153 1.388 . S
C155 C156 1.366 . S
C156 C155 1.366 . S
C156 C157 1.414 . S
C156 C159 1.499 . S
C157 H131 0.950 . S
C157 C156 1.414 . S
C157 C158 1.374 . S
C158 H132 0.950 . S
C158 C154 1.385 . S
C158 C157 1.374 . S
C159 C156 1.499 . S
C159 C160 1.373 . S
C159 C161 1.389 . S
C160 H133 0.950 . S
C160 C146 1.377 . S
C160 C159 1.373 . S
C161 C145 1.377 . S
C161 C159 1.389 . S
C161 C162 1.524 . S
C162 C161 1.524 . S
C162 C163 1.397 . S
C162 C167 1.363 . S
C163 H134 0.950 . S
C163 C162 1.397 . S
C163 C164 1.334 . S
C164 H135 0.950 . S
C164 C163 1.334 . S
C164 C165 1.287 . S
C165 C164 1.287 . S
C165 C166 1.524 . S
C165 H168 0.999 . S
C166 H136 0.950 . S
C166 C165 1.524 . S
C166 C167 1.415 . S
C167 H137 0.950 . S
C167 C162 1.363 . S
C167 C166 1.415 . S
H168 C165 0.999 . S
H169 C150 0.904 1_554 S
H170 C188 0.951 . S
H171 C190 0.951 . S
H172 C192 0.950 . S
H173 C193 0.950 . S
H174 C195 0.950 . S
H175 C198 0.950 . S
H176 C199 0.950 . S
H177 C201 0.950 . S
H178 C202 0.950 . S
H179 C203 0.951 . S
H180 C205 0.951 . S
H181 C207 0.950 . S
H182 C208 0.950 . S
H183 C210 0.950 . S
H184 C213 0.950 . S
H185 C214 0.950 . S
H186 C216 0.950 . S
H187 C217 0.950 . S
C188 H170 0.951 . S
C188 C189 1.366 . S
C188 C190 1.388 . S
C189 C188 1.366 . S
C189 C193 1.385 . S
C190 H171 0.951 . S
C190 C188 1.388 . S
C190 C191 1.366 . S
C191 C190 1.366 . S
C191 C192 1.414 . S
C191 C194 1.499 . S
C192 H172 0.950 . S
C192 C191 1.414 . S
C192 C193 1.374 . S
C193 H173 0.950 . S
C193 C189 1.385 . S
C193 C192 1.374 . S
C194 C191 1.499 . S
C194 C195 1.373 . S
C194 C196 1.389 . S
C195 H174 0.950 . S
C195 C194 1.373 . S
C195 C211 1.377 . S
C196 C194 1.389 . S
C196 C197 1.524 . S
C196 C210 1.377 1_455 S
C197 C196 1.524 . S
C197 C198 1.397 1_554 S
C197 C202 1.363 . S
C198 H175 0.950 . S
C198 C197 1.397 1_556 S
C198 C199 1.334 . S
C199 H176 0.950 . S
C199 C198 1.334 . S
C199 C200 1.287 . S
C200 C199 1.287 . S
C200 C201 1.524 . S
C200 H219 0.913 . S
C201 H177 0.950 . S
C201 C200 1.524 . S
C201 C202 1.415 1_556 S
C202 H178 0.950 . S
C202 C197 1.363 . S
C202 C201 1.415 1_554 S
C203 H179 0.951 . S
C203 C204 1.366 . S
C203 C205 1.388 . S
C204 C203 1.366 . S
C204 C208 1.385 . S
C205 H180 0.951 . S
C205 C203 1.388 . S
C205 C206 1.366 . S
C206 C205 1.366 . S
C206 C207 1.414 . S
C206 C209 1.499 . S
C207 H181 0.950 . S
C207 C206 1.414 . S
C207 C208 1.374 . S
C208 H182 0.950 . S
C208 C204 1.385 . S
C208 C207 1.374 . S
C209 C206 1.499 . S
C209 C210 1.373 . S
C209 C211 1.389 1_655 S
C210 H183 0.950 . S
C210 C196 1.377 1_655 S
C210 C209 1.373 . S
C211 C195 1.377 . S
C211 C209 1.389 1_455 S
C211 C212 1.524 . S
C212 C211 1.524 . S
C212 C213 1.397 1_455 S
C212 C217 1.363 . S
C213 H184 0.950 . S
C213 C212 1.397 1_655 S
C213 C214 1.334 . S
C214 H185 0.950 . S
C214 C213 1.334 . S
C214 C215 1.287 1_655 S
C215 C214 1.287 1_455 S
C215 C216 1.524 . S
C215 H218 1.004 . S
C216 H186 0.950 . S
C216 C215 1.524 . S
C216 C217 1.415 . S
C217 H187 0.950 . S
C217 C212 1.363 . S
C217 C216 1.415 . S
H218 C215 1.004 . S
H219 C200 0.913 . S
H220 C238 0.951 . S
H221 C240 0.951 . S
H222 C242 0.950 . S
H223 C243 0.950 . S
H224 C245 0.950 . S
H225 C248 0.950 . S
H226 C249 0.950 . S
H227 C251 0.950 1_565 S
H228 C252 0.950 1_565 S
H229 C253 0.951 . S
H230 C255 0.951 . S
H231 C257 0.950 . S
H232 C258 0.950 . S
H233 C260 0.950 . S
H234 C263 0.950 . S
H235 C264 0.950 . S
H236 C266 0.950 . S
H237 C267 0.950 . S
C238 H220 0.951 . S
C238 C239 1.366 . S
C238 C240 1.388 . S
C239 C238 1.366 . S
C239 C243 1.385 . S
C240 H221 0.951 . S
C240 C238 1.388 . S
C240 C241 1.366 . S
C241 C240 1.366 . S
C241 C242 1.414 . S
C241 C244 1.499 . S
C242 H222 0.950 . S
C242 C241 1.414 . S
C242 C243 1.374 . S
C243 H223 0.950 . S
C243 C239 1.385 . S
C243 C242 1.374 . S
C244 C241 1.499 . S
C244 C245 1.373 . S
C244 C246 1.389 . S
C245 H224 0.950 . S
C245 C244 1.373 . S
C245 C261 1.377 . S
C246 C244 1.389 . S
C246 C247 1.524 . S
C246 C260 1.377 1_545 S
C247 C246 1.524 . S
C247 C248 1.397 . S
C247 C252 1.363 . S
C248 H225 0.950 . S
C248 C247 1.397 . S
C248 C249 1.334 . S
C249 H226 0.950 . S
C249 C248 1.334 . S
C249 C250 1.287 . S
C250 C249 1.287 . S
C250 C251 1.524 . S
C250 H269 0.913 . S
C251 H227 0.950 1_545 S
C251 C250 1.524 . S
C251 C252 1.415 . S
C252 H228 0.950 1_545 S
C252 C247 1.363 . S
C252 C251 1.415 . S
C253 H229 0.951 . S
C253 C254 1.366 . S
C253 C255 1.388 . S
C254 C253 1.366 . S
C254 C258 1.385 . S
C255 H230 0.951 . S
C255 C253 1.388 . S
C255 C256 1.366 . S
C256 C255 1.366 . S
C256 C257 1.414 . S
C256 C259 1.499 . S
C257 H231 0.950 . S
C257 C256 1.414 . S
C257 C258 1.374 . S
C258 H232 0.950 . S
C258 C254 1.385 . S
C258 C257 1.374 . S
C259 C256 1.499 . S
C259 C260 1.373 . S
C259 C261 1.389 1_565 S
C260 H233 0.950 . S
C260 C246 1.377 1_565 S
C260 C259 1.373 . S
C261 C245 1.377 . S
C261 C259 1.389 1_545 S
C261 C262 1.524 . S
C262 C261 1.524 . S
C262 C263 1.397 1_545 S
C262 C267 1.363 . S
C263 H234 0.950 . S
C263 C262 1.397 1_565 S
C263 C264 1.334 . S
C264 H235 0.950 . S
C264 C263 1.334 . S
C264 C265 1.287 1_565 S
C265 C264 1.287 1_545 S
C265 C266 1.524 . S
C265 H268 0.999 . S
C266 H236 0.950 . S
C266 C265 1.524 . S
C266 C267 1.415 . S
C267 H237 0.950 . S
C267 C262 1.363 . S
C267 C266 1.415 . S
H268 C265 0.999 . S
H269 C250 0.913 . S
H270 C288 0.951 . S
H271 C290 0.951 . S
H272 C292 0.950 . S
H273 C293 0.950 . S
H274 C295 0.950 . S
H275 C298 0.950 . S
H276 C299 0.950 . S
H277 C301 0.950 1_554 S
H278 C302 0.950 . S
H279 C303 0.951 . S
H280 C305 0.951 . S
H281 C307 0.950 . S
H282 C308 0.950 . S
H283 C310 0.950 . S
H284 C313 0.950 . S
H285 C314 0.950 . S
H286 C316 0.950 . S
H287 C317 0.950 . S
C288 H270 0.951 . S
C288 C289 1.366 . S
C288 C290 1.388 . S
C289 C288 1.366 . S
C289 C293 1.385 . S
C290 H271 0.951 . S
C290 C288 1.388 . S
C290 C291 1.366 . S
C291 C290 1.366 . S
C291 C292 1.414 . S
C291 C294 1.499 . S
C292 H272 0.950 . S
C292 C291 1.414 . S
C292 C293 1.374 . S
C293 H273 0.950 . S
C293 C289 1.385 . S
C293 C292 1.374 . S
C294 C291 1.499 . S
C294 C295 1.373 . S
C294 C296 1.389 . S
C295 H274 0.950 . S
C295 C294 1.373 . S
C295 C311 1.377 . S
C296 C294 1.389 . S
C296 C297 1.524 . S
C296 C310 1.377 . S
C297 C296 1.524 . S
C297 C298 1.397 . S
C297 C302 1.363 . S
C298 H275 0.950 . S
C298 C297 1.397 . S
C298 C299 1.334 . S
C299 H276 0.950 . S
C299 C298 1.334 . S
C299 C300 1.287 . S
C300 C299 1.287 . S
C300 C301 1.524 . S
C300 H319 0.913 1_556 S
C301 H277 0.950 1_556 S
C301 C300 1.524 . S
C301 C302 1.415 . S
C302 H278 0.950 . S
C302 C297 1.363 . S
C302 C301 1.415 . S
C303 H279 0.951 . S
C303 C304 1.366 . S
C303 C305 1.388 . S
C304 C303 1.366 . S
C304 C308 1.385 . S
C305 H280 0.951 . S
C305 C303 1.388 . S
C305 C306 1.366 . S
C306 C305 1.366 . S
C306 C307 1.414 . S
C306 C309 1.499 . S
C307 H281 0.950 . S
C307 C306 1.414 . S
C307 C308 1.374 . S
C308 H282 0.950 . S
C308 C304 1.385 . S
C308 C307 1.374 . S
C309 C306 1.499 . S
C309 C310 1.373 . S
C309 C311 1.389 . S
C310 H283 0.950 . S
C310 C296 1.377 . S
C310 C309 1.373 . S
C311 C295 1.377 . S
C311 C309 1.389 . S
C311 C312 1.524 . S
C312 C311 1.524 . S
C312 C313 1.397 . S
C312 C317 1.363 . S
C313 H284 0.950 . S
C313 C312 1.397 . S
C313 C314 1.334 . S
C314 H285 0.950 . S
C314 C313 1.334 . S
C314 C315 1.287 . S
C315 C314 1.287 . S
C315 C316 1.524 . S
C315 H318 0.999 . S
C316 H286 0.950 . S
C316 C315 1.524 . S
C316 C317 1.415 . S
C317 H287 0.950 . S
C317 C312 1.363 . S
C317 C316 1.415 . S
H318 C315 0.999 . S
H319 C300 0.913 1_554 S
H320 C338 0.951 . S
H321 C340 0.951 . S
H322 C342 0.950 . S
H323 C343 0.950 . S
H324 C345 0.950 . S
H325 C348 0.950 . S
H326 C349 0.950 . S
H327 C351 0.950 . S
H328 C352 0.950 . S
H329 C353 0.951 . S
H330 C355 0.951 . S
H331 C357 0.950 . S
H332 C358 0.950 . S
H333 C360 0.950 . S
H334 C363 0.950 . S
H335 C364 0.950 . S
H336 C366 0.950 1_455 S
H337 C367 0.950 1_454 S
C338 H320 0.951 . S
C338 C339 1.366 . S
C338 C340 1.388 . S
C339 C338 1.366 . S
C339 C343 1.385 . S
C340 H321 0.951 . S
C340 C338 1.388 . S
C340 C341 1.366 . S
C341 C340 1.366 . S
C341 C342 1.414 . S
C341 C344 1.499 . S
C342 H322 0.950 . S
C342 C341 1.414 . S
C342 C343 1.374 . S
C343 H323 0.950 . S
C343 C339 1.385 . S
C343 C342 1.374 . S
C344 C341 1.499 . S
C344 C345 1.373 . S
C344 C346 1.389 1_455 S
C345 H324 0.950 . S
C345 C344 1.373 . S
C345 C361 1.377 1_455 S
C346 C344 1.389 1_655 S
C346 C347 1.524 . S
C346 C360 1.377 . S
C347 C346 1.524 . S
C347 C348 1.397 1_655 S
C347 C352 1.363 . S
C348 H325 0.950 . S
C348 C347 1.397 1_455 S
C348 C349 1.334 . S
C349 H326 0.950 . S
C349 C348 1.334 . S
C349 C350 1.287 1_455 S
C350 C349 1.287 1_655 S
C350 C351 1.524 . S
C350 H369 0.913 . S
C351 H327 0.950 . S
C351 C350 1.524 . S
C351 C352 1.415 . S
C352 H328 0.950 . S
C352 C347 1.363 . S
C352 C351 1.415 . S
C353 H329 0.951 . S
C353 C354 1.366 . S
C353 C355 1.388 . S
C354 C353 1.366 . S
C354 C358 1.385 . S
C355 H330 0.951 . S
C355 C353 1.388 . S
C355 C356 1.366 . S
C356 C355 1.366 . S
C356 C357 1.414 . S
C356 C359 1.499 . S
C357 H331 0.950 . S
C357 C356 1.414 . S
C357 C358 1.374 . S
C358 H332 0.950 . S
C358 C354 1.385 . S
C358 C357 1.374 . S
C359 C356 1.499 . S
C359 C360 1.373 . S
C359 C361 1.389 . S
C360 H333 0.950 . S
C360 C346 1.377 . S
C360 C359 1.373 . S
C361 C345 1.377 1_655 S
C361 C359 1.389 . S
C361 C362 1.524 . S
C362 C361 1.524 . S
C362 C363 1.397 . S
C362 C367 1.363 1_554 S
C363 H334 0.950 . S
C363 C362 1.397 . S
C363 C364 1.334 1_554 S
C364 H335 0.950 . S
C364 C363 1.334 1_556 S
C364 C365 1.287 . S
C365 C364 1.287 . S
C365 C366 1.524 . S
C365 H368 0.999 . S
C366 H336 0.950 1_655 S
C366 C365 1.524 . S
C366 C367 1.415 . S
C367 H337 0.950 1_656 S
C367 C362 1.363 1_556 S
C367 C366 1.415 . S
H368 C365 0.999 . S
H369 C350 0.913 . S
H370 C388 0.951 . S
H371 C390 0.951 . S
H372 C392 0.950 . S
H373 C393 0.950 . S
H374 C395 0.950 . S
H375 C398 0.950 . S
H376 C399 0.950 . S
H377 C401 0.950 . S
H378 C402 0.950 . S
H379 C403 0.951 . S
H380 C405 0.951 . S
H381 C407 0.950 . S
H382 C408 0.950 . S
H383 C410 0.950 . S
H384 C413 0.950 . S
H385 C414 0.950 . S
H386 C416 0.950 . S
H387 C417 0.950 . S
C388 H370 0.951 . S
C388 C389 1.366 . S
C388 C390 1.388 . S
C389 C388 1.366 . S
C389 C393 1.385 . S
C390 H371 0.951 . S
C390 C388 1.388 . S
C390 C391 1.366 . S
C391 C390 1.366 . S
C391 C392 1.414 . S
C391 C394 1.499 . S
C392 H372 0.950 . S
C392 C391 1.414 . S
C392 C393 1.374 . S
C393 H373 0.950 . S
C393 C389 1.385 . S
C393 C392 1.374 . S
C394 C391 1.499 . S
C394 C395 1.373 . S
C394 C396 1.389 1_545 S
C395 H374 0.950 . S
C395 C394 1.373 . S
C395 C411 1.377 1_545 S
C396 C394 1.389 1_565 S
C396 C397 1.524 1_565 S
C396 C410 1.377 . S
C397 C396 1.524 1_545 S
C397 C398 1.397 . S
C397 C402 1.363 1_545 S
C398 H375 0.950 . S
C398 C397 1.397 . S
C398 C399 1.334 . S
C399 H376 0.950 . S
C399 C398 1.334 . S
C399 C400 1.287 . S
C400 C399 1.287 . S
C400 C401 1.524 1_545 S
C400 H419 0.913 . S
C401 H377 0.950 . S
C401 C400 1.524 1_565 S
C401 C402 1.415 . S
C402 H378 0.950 . S
C402 C397 1.363 1_565 S
C402 C401 1.415 . S
C403 H379 0.951 . S
C403 C404 1.366 . S
C403 C405 1.388 . S
C404 C403 1.366 . S
C404 C408 1.385 . S
C405 H380 0.951 . S
C405 C403 1.388 . S
C405 C406 1.366 . S
C406 C405 1.366 . S
C406 C407 1.414 . S
C406 C409 1.499 . S
C407 H381 0.950 . S
C407 C406 1.414 . S
C407 C408 1.374 . S
C408 H382 0.950 . S
C408 C404 1.385 . S
C408 C407 1.374 . S
C409 C406 1.499 . S
C409 C410 1.373 . S
C409 C411 1.389 . S
C410 H383 0.950 . S
C410 C396 1.377 . S
C410 C409 1.373 . S
C411 C395 1.377 1_565 S
C411 C409 1.389 . S
C411 C412 1.524 . S
C412 C411 1.524 . S
C412 C413 1.397 . S
C412 C417 1.363 . S
C413 H384 0.950 . S
C413 C412 1.397 . S
C413 C414 1.334 . S
C414 H385 0.950 . S
C414 C413 1.334 . S
C414 C415 1.287 . S
C415 C414 1.287 . S
C415 C416 1.524 . S
C415 H418 0.999 . S
C416 H386 0.950 . S
C416 C415 1.524 . S
C416 C417 1.415 . S
C417 H387 0.950 . S
C417 C412 1.363 . S
C417 C416 1.415 . S
H418 C415 0.999 . S
H419 C400 0.913 . S
H420 C438 0.951 . S
H421 C440 0.951 . S
H422 C442 0.950 . S
H423 C443 0.950 . S
H424 C445 0.950 . S
H425 C448 0.950 . S
H426 C449 0.950 . S
H427 C451 0.950 . S
H428 C452 0.950 . S
H429 C453 0.951 . S
H430 C455 0.951 . S
H431 C457 0.950 . S
H432 C458 0.950 . S
H433 C460 0.950 . S
H434 C463 0.950 . S
H435 C464 0.950 . S
H436 C466 0.950 . S
H437 C467 0.950 . S
C438 H420 0.951 . S
C438 C439 1.366 . S
C438 C440 1.388 . S
C439 C438 1.366 . S
C439 C443 1.385 . S
C440 H421 0.951 . S
C440 C438 1.388 . S
C440 C441 1.366 . S
C441 C440 1.366 . S
C441 C442 1.414 . S
C441 C444 1.499 . S
C442 H422 0.950 . S
C442 C441 1.414 . S
C442 C443 1.374 . S
C443 H423 0.950 . S
C443 C439 1.385 . S
C443 C442 1.374 . S
C444 C441 1.499 . S
C444 C445 1.373 . S
C444 C446 1.389 . S
C445 H424 0.950 . S
C445 C444 1.373 . S
C445 C461 1.377 . S
C446 C444 1.389 . S
C446 C447 1.524 . S
C446 C460 1.377 . S
C447 C446 1.524 . S
C447 C448 1.397 . S
C447 C452 1.363 . S
C448 H425 0.950 . S
C448 C447 1.397 . S
C448 C449 1.334 . S
C449 H426 0.950 . S
C449 C448 1.334 . S
C449 C450 1.287 . S
C450 C449 1.287 . S
C450 C451 1.524 . S
C450 H469 0.913 . S
C451 H427 0.950 . S
C451 C450 1.524 . S
C451 C452 1.415 . S
C452 H428 0.950 . S
C452 C447 1.363 . S
C452 C451 1.415 . S
C453 H429 0.951 . S
C453 C454 1.366 . S
C453 C455 1.388 . S
C454 C453 1.366 . S
C454 C458 1.385 . S
C455 H430 0.951 . S
C455 C453 1.388 . S
C455 C456 1.366 . S
C456 C455 1.366 . S
C456 C457 1.414 . S
C456 C459 1.499 . S
C457 H431 0.950 . S
C457 C456 1.414 . S
C457 C458 1.374 . S
C458 H432 0.950 . S
C458 C454 1.385 . S
C458 C457 1.374 . S
C459 C456 1.499 . S
C459 C460 1.373 . S
C459 C461 1.389 . S
C460 H433 0.950 . S
C460 C446 1.377 . S
C460 C459 1.373 . S
C461 C445 1.377 . S
C461 C459 1.389 . S
C461 C462 1.524 . S
C462 C461 1.524 . S
C462 C463 1.397 . S
C462 C467 1.363 . S
C463 H434 0.950 . S
C463 C462 1.397 . S
C463 C464 1.334 . S
C464 H435 0.950 . S
C464 C463 1.334 . S
C464 C465 1.287 . S
C465 C464 1.287 . S
C465 C466 1.524 . S
C465 H468 0.999 . S
C466 H436 0.950 . S
C466 C465 1.524 . S
C466 C467 1.415 . S
C467 H437 0.950 . S
C467 C462 1.363 . S
C467 C466 1.415 . S
H468 C465 0.999 . S
H469 C450 0.913 . S
H470 C488 0.951 . S
H471 C490 0.951 1_556 S
H472 C492 0.950 . S
H473 C493 0.950 . S
H474 C495 0.950 . S
H475 C498 0.950 . S
H476 C499 0.950 . S
H477 C501 0.950 . S
H478 C502 0.950 . S
H479 C503 0.951 . S
H480 C505 0.951 . S
H481 C507 0.950 . S
H482 C508 0.950 . S
H483 C510 0.950 . S
H484 C513 0.950 . S
H485 C514 0.950 . S
H486 C516 0.950 . S
H487 C517 0.950 . S
C488 H470 0.951 . S
C488 C489 1.366 . S
C488 C490 1.388 . S
C489 C488 1.366 . S
C489 C493 1.385 . S
C490 H471 0.951 1_554 S
C490 C488 1.388 . S
C490 C491 1.366 1_554 S
C491 C490 1.366 1_556 S
C491 C492 1.414 . S
C491 C494 1.499 . S
C492 H472 0.950 . S
C492 C491 1.414 . S
C492 C493 1.374 1_556 S
C493 H473 0.950 . S
C493 C489 1.385 . S
C493 C492 1.374 1_554 S
C494 C491 1.499 . S
C494 C495 1.373 . S
C494 C496 1.389 . S
C495 H474 0.950 . S
C495 C494 1.373 . S
C495 C511 1.377 . S
C496 C494 1.389 . S
C496 C497 1.524 . S
C496 C510 1.377 . S
C497 C496 1.524 . S
C497 C498 1.397 . S
C497 C502 1.363 . S
C498 H475 0.950 . S
C498 C497 1.397 . S
C498 C499 1.334 . S
C499 H476 0.950 . S
C499 C498 1.334 . S
C499 C500 1.287 . S
C500 C499 1.287 . S
C500 C501 1.524 . S
C500 H519 0.913 . S
C501 H477 0.950 . S
C501 C500 1.524 . S
C501 C502 1.415 . S
C502 H478 0.950 . S
C502 C497 1.363 . S
C502 C501 1.415 . S
C503 H479 0.951 . S
C503 C504 1.366 . S
C503 C505 1.388 . S
C504 C503 1.366 . S
C504 C508 1.385 . S
C505 H480 0.951 . S
C505 C503 1.388 . S
C505 C506 1.366 . S
C506 C505 1.366 . S
C506 C507 1.414 . S
C506 C509 1.499 . S
C507 H481 0.950 . S
C507 C506 1.414 . S
C507 C508 1.374 . S
C508 H482 0.950 . S
C508 C504 1.385 . S
C508 C507 1.374 . S
C509 C506 1.499 . S
C509 C510 1.373 . S
C509 C511 1.389 . S
C510 H483 0.950 . S
C510 C496 1.377 . S
C510 C509 1.373 . S
C511 C495 1.377 . S
C511 C509 1.389 . S
C511 C512 1.524 . S
C512 C511 1.524 . S
C512 C513 1.397 . S
C512 C517 1.363 . S
C513 H484 0.950 . S
C513 C512 1.397 . S
C513 C514 1.334 . S
C514 H485 0.950 . S
C514 C513 1.334 . S
C514 C515 1.287 . S
C515 C514 1.287 . S
C515 C516 1.524 . S
C515 H518 0.999 . S
C516 H486 0.950 . S
C516 C515 1.524 . S
C516 C517 1.415 . S
C517 H487 0.950 . S
C517 C512 1.363 . S
C517 C516 1.415 . S
H518 C515 0.999 . S
H519 C500 0.913 . S
H520 C538 0.951 . S
H521 C540 0.951 . S
H522 C542 0.950 . S
H523 C543 0.950 . S
H524 C545 0.950 . S
H525 C548 0.950 . S
H526 C549 0.950 . S
H527 C551 0.950 . S
H528 C552 0.950 . S
H529 C553 0.951 . S
H530 C555 0.951 . S
H531 C557 0.950 . S
H532 C558 0.950 . S
H533 C560 0.950 . S
H534 C563 0.950 . S
H535 C564 0.950 . S
H536 C566 0.950 . S
H537 C567 0.950 . S
C538 H520 0.951 . S
C538 C539 1.366 . S
C538 C540 1.388 . S
C539 C538 1.366 . S
C539 C543 1.385 . S
C540 H521 0.951 . S
C540 C538 1.388 . S
C540 C541 1.366 . S
C541 C540 1.366 . S
C541 C542 1.414 . S
C541 C544 1.499 . S
C542 H522 0.950 . S
C542 C541 1.414 . S
C542 C543 1.374 . S
C543 H523 0.950 . S
C543 C539 1.385 . S
C543 C542 1.374 . S
C544 C541 1.499 . S
C544 C545 1.373 . S
C544 C546 1.389 . S
C545 H524 0.950 . S
C545 C544 1.373 . S
C545 C561 1.377 . S
C546 C544 1.389 . S
C546 C547 1.524 . S
C546 C560 1.377 . S
C547 C546 1.524 . S
C547 C548 1.397 . S
C547 C552 1.363 . S
C548 H525 0.950 . S
C548 C547 1.397 . S
C548 C549 1.334 . S
C549 H526 0.950 . S
C549 C548 1.334 . S
C549 C550 1.287 . S
C550 C549 1.287 . S
C550 C551 1.524 . S
C550 H569 0.913 . S
C551 H527 0.950 . S
C551 C550 1.524 . S
C551 C552 1.415 . S
C552 H528 0.950 . S
C552 C547 1.363 . S
C552 C551 1.415 . S
C553 H529 0.951 . S
C553 C554 1.366 . S
C553 C555 1.388 1_556 S
C554 C553 1.366 . S
C554 C558 1.385 . S
C555 H530 0.951 . S
C555 C553 1.388 1_554 S
C555 C556 1.366 . S
C556 C555 1.366 . S
C556 C557 1.414 . S
C556 C559 1.499 . S
C557 H531 0.950 . S
C557 C556 1.414 . S
C557 C558 1.374 1_554 S
C558 H532 0.950 . S
C558 C554 1.385 . S
C558 C557 1.374 1_556 S
C559 C556 1.499 . S
C559 C560 1.373 . S
C559 C561 1.389 . S
C560 H533 0.950 . S
C560 C546 1.377 . S
C560 C559 1.373 . S
C561 C545 1.377 . S
C561 C559 1.389 . S
C561 C562 1.524 . S
C562 C561 1.524 . S
C562 C563 1.397 . S
C562 C567 1.363 . S
C563 H534 0.950 . S
C563 C562 1.397 . S
C563 C564 1.334 . S
C564 H535 0.950 . S
C564 C563 1.334 . S
C564 C565 1.287 . S
C565 C564 1.287 . S
C565 C566 1.524 . S
C565 H568 0.999 . S
C566 H536 0.950 . S
C566 C565 1.524 . S
C566 C567 1.415 . S
C567 H537 0.950 . S
C567 C562 1.363 . S
C567 C566 1.415 . S
H568 C565 0.999 . S
H569 C550 0.913 . S
H570 C588 0.951 . S
H571 C590 0.951 . S
H572 C592 0.950 . S
H573 C593 0.950 . S
H574 C595 0.950 . S
H575 C598 0.950 . S
H576 C599 0.950 . S
H577 C601 0.950 . S
H578 C602 0.950 . S
H579 C603 0.951 . S
H580 C605 0.951 . S
H581 C607 0.950 . S
H582 C608 0.950 . S
H583 C610 0.950 . S
H584 C613 0.950 . S
H585 C614 0.950 . S
H586 C616 0.950 . S
H587 C617 0.950 . S
C588 H570 0.951 . S
C588 C589 1.366 . S
C588 C590 1.388 . S
C589 C588 1.366 . S
C589 C593 1.385 . S
C590 H571 0.951 . S
C590 C588 1.388 . S
C590 C591 1.366 . S
C591 C590 1.366 . S
C591 C592 1.414 . S
C591 C594 1.499 . S
C592 H572 0.950 . S
C592 C591 1.414 . S
C592 C593 1.374 . S
C593 H573 0.950 . S
C593 C589 1.385 . S
C593 C592 1.374 . S
C594 C591 1.499 . S
C594 C595 1.373 . S
C594 C596 1.389 . S
C595 H574 0.950 . S
C595 C594 1.373 . S
C595 C611 1.377 . S
C596 C594 1.389 . S
C596 C597 1.524 . S
C596 C610 1.377 . S
C597 C596 1.524 . S
C597 C598 1.397 . S
C597 C602 1.363 . S
C598 H575 0.950 . S
C598 C597 1.397 . S
C598 C599 1.334 . S
C599 H576 0.950 . S
C599 C598 1.334 . S
C599 C600 1.287 . S
C600 C599 1.287 . S
C600 C601 1.524 . S
C600 H619 0.913 . S
C601 H577 0.950 . S
C601 C600 1.524 . S
C601 C602 1.415 . S
C602 H578 0.950 . S
C602 C597 1.363 . S
C602 C601 1.415 . S
C603 H579 0.951 . S
C603 C604 1.366 . S
C603 C605 1.388 . S
C604 C603 1.366 . S
C604 C608 1.385 . S
C605 H580 0.951 . S
C605 C603 1.388 . S
C605 C606 1.366 . S
C606 C605 1.366 . S
C606 C607 1.414 . S
C606 C609 1.499 . S
C607 H581 0.950 . S
C607 C606 1.414 . S
C607 C608 1.374 . S
C608 H582 0.950 . S
C608 C604 1.385 . S
C608 C607 1.374 . S
C609 C606 1.499 . S
C609 C610 1.373 . S
C609 C611 1.389 . S
C610 H583 0.950 . S
C610 C596 1.377 . S
C610 C609 1.373 . S
C611 C595 1.377 . S
C611 C609 1.389 . S
C611 C612 1.524 . S
C612 C611 1.524 . S
C612 C613 1.397 . S
C612 C617 1.363 . S
C613 H584 0.950 . S
C613 C612 1.397 . S
C613 C614 1.334 . S
C614 H585 0.950 . S
C614 C613 1.334 . S
C614 C615 1.287 . S
C615 C614 1.287 . S
C615 C616 1.524 . S
C615 H618 0.999 . S
C616 H586 0.950 . S
C616 C615 1.524 . S
C616 C617 1.415 . S
C617 H587 0.950 . S
C617 C612 1.363 . S
C617 C616 1.415 . S
H618 C615 0.999 . S
H619 C600 0.913 . S
H620 C638 0.951 . S
H621 C640 0.951 . S
H622 C642 0.950 . S
H623 C643 0.950 . S
H624 C645 0.950 . S
H625 C648 0.950 . S
H626 C649 0.950 . S
H627 C651 0.950 . S
H628 C652 0.950 . S
H629 C653 0.951 . S
H630 C655 0.951 . S
H631 C657 0.950 1_556 S
H632 C658 0.950 . S
H633 C660 0.950 . S
H634 C663 0.950 . S
H635 C664 0.950 . S
H636 C666 0.950 . S
H637 C667 0.950 . S
C638 H620 0.951 . S
C638 C639 1.366 . S
C638 C640 1.388 . S
C639 C638 1.366 . S
C639 C643 1.385 . S
C640 H621 0.951 . S
C640 C638 1.388 . S
C640 C641 1.366 . S
C641 C640 1.366 . S
C641 C642 1.414 . S
C641 C644 1.499 . S
C642 H622 0.950 . S
C642 C641 1.414 . S
C642 C643 1.374 . S
C643 H623 0.950 . S
C643 C639 1.385 . S
C643 C642 1.374 . S
C644 C641 1.499 . S
C644 C645 1.373 . S
C644 C646 1.389 . S
C645 H624 0.950 . S
C645 C644 1.373 . S
C645 C661 1.377 . S
C646 C644 1.389 . S
C646 C647 1.524 . S
C646 C660 1.377 . S
C647 C646 1.524 . S
C647 C648 1.397 . S
C647 C652 1.363 . S
C648 H625 0.950 . S
C648 C647 1.397 . S
C648 C649 1.334 . S
C649 H626 0.950 . S
C649 C648 1.334 . S
C649 C650 1.287 . S
C650 C649 1.287 . S
C650 C651 1.524 . S
C650 H669 0.913 . S
C651 H627 0.950 . S
C651 C650 1.524 . S
C651 C652 1.415 . S
C652 H628 0.950 . S
C652 C647 1.363 . S
C652 C651 1.415 . S
C653 H629 0.951 . S
C653 C654 1.366 . S
C653 C655 1.388 1_554 S
C654 C653 1.366 . S
C654 C658 1.385 . S
C655 H630 0.951 . S
C655 C653 1.388 1_556 S
C655 C656 1.366 . S
C656 C655 1.366 . S
C656 C657 1.414 1_556 S
C656 C659 1.499 . S
C657 H631 0.950 1_554 S
C657 C656 1.414 1_554 S
C657 C658 1.374 . S
C658 H632 0.950 . S
C658 C654 1.385 . S
C658 C657 1.374 . S
C659 C656 1.499 . S
C659 C660 1.373 . S
C659 C661 1.389 . S
C660 H633 0.950 . S
C660 C646 1.377 . S
C660 C659 1.373 . S
C661 C645 1.377 . S
C661 C659 1.389 . S
C661 C662 1.524 . S
C662 C661 1.524 . S
C662 C663 1.397 . S
C662 C667 1.363 . S
C663 H634 0.950 . S
C663 C662 1.397 . S
C663 C664 1.334 . S
C664 H635 0.950 . S
C664 C663 1.334 . S
C664 C665 1.287 . S
C665 C664 1.287 . S
C665 C666 1.524 . S
C665 H668 0.999 . S
C666 H636 0.950 . S
C666 C665 1.524 . S
C666 C667 1.415 . S
C667 H637 0.950 . S
C667 C662 1.363 . S
C667 C666 1.415 . S
H668 C665 0.999 . S
H669 C650 0.913 . S
H670 C688 0.951 . S
H671 C690 0.951 . S
H672 C692 0.950 . S
H673 C693 0.950 . S
H674 C695 0.950 . S
H675 C698 0.950 . S
H676 C699 0.950 . S
H677 C701 0.950 . S
H678 C702 0.950 . S
H679 C703 0.951 . S
H680 C705 0.951 . S
H681 C707 0.950 . S
H682 C708 0.950 . S
H683 C710 0.950 . S
H684 C713 0.950 . S
H685 C714 0.950 . S
H686 C716 0.950 . S
H687 C717 0.950 . S
C688 H670 0.951 . S
C688 C689 1.366 . S
C688 C690 1.388 . S
C689 C688 1.366 . S
C689 C693 1.385 . S
C690 H671 0.951 . S
C690 C688 1.388 . S
C690 C691 1.366 . S
C691 C690 1.366 . S
C691 C692 1.414 . S
C691 C694 1.499 . S
C692 H672 0.950 . S
C692 C691 1.414 . S
C692 C693 1.374 . S
C693 H673 0.950 . S
C693 C689 1.385 . S
C693 C692 1.374 . S
C694 C691 1.499 . S
C694 C695 1.373 . S
C694 C696 1.389 . S
C695 H674 0.950 . S
C695 C694 1.373 . S
C695 C711 1.377 . S
C696 C694 1.389 . S
C696 C697 1.524 . S
C696 C710 1.377 . S
C697 C696 1.524 . S
C697 C698 1.397 . S
C697 C702 1.363 . S
C698 H675 0.950 . S
C698 C697 1.397 . S
C698 C699 1.334 . S
C699 H676 0.950 . S
C699 C698 1.334 . S
C699 C700 1.287 . S
C700 C699 1.287 . S
C700 C701 1.524 . S
C700 H719 0.913 . S
C701 H677 0.950 . S
C701 C700 1.524 . S
C701 C702 1.415 . S
C702 H678 0.950 . S
C702 C697 1.363 . S
C702 C701 1.415 . S
C703 H679 0.951 . S
C703 C704 1.366 . S
C703 C705 1.388 1_556 S
C704 C703 1.366 . S
C704 C708 1.385 . S
C705 H680 0.951 . S
C705 C703 1.388 1_554 S
C705 C706 1.366 . S
C706 C705 1.366 . S
C706 C707 1.414 . S
C706 C709 1.499 . S
C707 H681 0.950 . S
C707 C706 1.414 . S
C707 C708 1.374 1_554 S
C708 H682 0.950 . S
C708 C704 1.385 . S
C708 C707 1.374 1_556 S
C709 C706 1.499 . S
C709 C710 1.373 . S
C709 C711 1.389 . S
C710 H683 0.950 . S
C710 C696 1.377 . S
C710 C709 1.373 . S
C711 C695 1.377 . S
C711 C709 1.389 . S
C711 C712 1.524 . S
C712 C711 1.524 . S
C712 C713 1.397 . S
C712 C717 1.363 . S
C713 H684 0.950 . S
C713 C712 1.397 . S
C713 C714 1.334 . S
C714 H685 0.950 . S
C714 C713 1.334 . S
C714 C715 1.287 . S
C715 C714 1.287 . S
C715 C716 1.524 . S
C715 H718 0.999 . S
C716 H686 0.950 . S
C716 C715 1.524 . S
C716 C717 1.415 . S
C717 H687 0.950 . S
C717 C712 1.363 . S
C717 C716 1.415 . S
H718 C715 0.999 . S
H719 C700 0.913 . S
H720 C738 0.951 . S
H721 C740 0.951 . S
H722 C742 0.950 . S
H723 C743 0.950 . S
H724 C745 0.950 . S
H725 C748 0.950 . S
H726 C749 0.950 . S
H727 C751 0.950 . S
H728 C752 0.950 . S
H729 C753 0.951 . S
H730 C755 0.951 . S
H731 C757 0.950 . S
H732 C758 0.950 . S
H733 C760 0.950 . S
H734 C763 0.950 . S
H735 C764 0.950 . S
H736 C766 0.950 . S
H737 C767 0.950 . S
C738 H720 0.951 . S
C738 C739 1.366 . S
C738 C740 1.388 . S
C739 C738 1.366 . S
C739 C743 1.385 . S
C740 H721 0.951 . S
C740 C738 1.388 . S
C740 C741 1.366 . S
C741 C740 1.366 . S
C741 C742 1.414 . S
C741 C744 1.499 . S
C742 H722 0.950 . S
C742 C741 1.414 . S
C742 C743 1.374 . S
C743 H723 0.950 . S
C743 C739 1.385 . S
C743 C742 1.374 . S
C744 C741 1.499 . S
C744 C745 1.373 . S
C744 C746 1.389 . S
C745 H724 0.950 . S
C745 C744 1.373 . S
C745 C761 1.377 . S
C746 C744 1.389 . S
C746 C747 1.524 . S
C746 C760 1.377 . S
C747 C746 1.524 . S
C747 C748 1.397 . S
C747 C752 1.363 . S
C748 H725 0.950 . S
C748 C747 1.397 . S
C748 C749 1.334 . S
C749 H726 0.950 . S
C749 C748 1.334 . S
C749 C750 1.287 1_554 S
C750 C749 1.287 1_556 S
C750 C751 1.524 . S
C750 H769 0.913 . S
C751 H727 0.950 . S
C751 C750 1.524 . S
C751 C752 1.415 1_556 S
C752 H728 0.950 . S
C752 C747 1.363 . S
C752 C751 1.415 1_554 S
C753 H729 0.951 . S
C753 C754 1.366 . S
C753 C755 1.388 . S
C754 C753 1.366 . S
C754 C758 1.385 . S
C755 H730 0.951 . S
C755 C753 1.388 . S
C755 C756 1.366 . S
C756 C755 1.366 . S
C756 C757 1.414 . S
C756 C759 1.499 . S
C757 H731 0.950 . S
C757 C756 1.414 . S
C757 C758 1.374 . S
C758 H732 0.950 . S
C758 C754 1.385 . S
C758 C757 1.374 . S
C759 C756 1.499 . S
C759 C760 1.373 . S
C759 C761 1.389 . S
C760 H733 0.950 . S
C760 C746 1.377 . S
C760 C759 1.373 . S
C761 C745 1.377 . S
C761 C759 1.389 . S
C761 C762 1.524 . S
C762 C761 1.524 . S
C762 C763 1.397 . S
C762 C767 1.363 . S
C763 H734 0.950 . S
C763 C762 1.397 . S
C763 C764 1.334 . S
C764 H735 0.950 . S
C764 C763 1.334 . S
C764 C765 1.287 . S
C765 C764 1.287 . S
C765 C766 1.524 . S
C765 H768 0.999 . S
C766 H736 0.950 . S
C766 C765 1.524 . S
C766 C767 1.415 . S
C767 H737 0.950 . S
C767 C762 1.363 . S
C767 C766 1.415 . S
H768 C765 0.999 . S
H769 C750 0.913 . S
H770 C788 0.951 . S
H771 C790 0.951 . S
H772 C792 0.950 . S
H773 C793 0.950 . S
H774 C795 0.950 . S
H775 C798 0.950 . S
H776 C799 0.950 . S
H777 C801 0.950 . S
H778 C802 0.950 . S
H779 C803 0.951 . S
H780 C805 0.951 . S
H781 C807 0.950 . S
H782 C808 0.950 . S
H783 C810 0.950 . S
H784 C813 0.950 . S
H785 C814 0.950 . S
H786 C816 0.950 . S
H787 C817 0.950 . S
C788 H770 0.951 . S
C788 C789 1.366 . S
C788 C790 1.388 . S
C789 C788 1.366 . S
C789 C793 1.385 . S
C790 H771 0.951 . S
C790 C788 1.388 . S
C790 C791 1.366 . S
C791 C790 1.366 . S
C791 C792 1.414 . S
C791 C794 1.499 . S
C792 H772 0.950 . S
C792 C791 1.414 . S
C792 C793 1.374 . S
C793 H773 0.950 . S
C793 C789 1.385 . S
C793 C792 1.374 . S
C794 C791 1.499 . S
C794 C795 1.373 . S
C794 C796 1.389 . S
C795 H774 0.950 . S
C795 C794 1.373 . S
C795 C811 1.377 . S
C796 C794 1.389 . S
C796 C797 1.524 . S
C796 C810 1.377 . S
C797 C796 1.524 . S
C797 C798 1.397 . S
C797 C802 1.363 . S
C798 H775 0.950 . S
C798 C797 1.397 . S
C798 C799 1.334 . S
C799 H776 0.950 . S
C799 C798 1.334 . S
C799 C800 1.287 . S
C800 C799 1.287 . S
C800 C801 1.524 . S
C800 H819 0.913 . S
C801 H777 0.950 . S
C801 C800 1.524 . S
C801 C802 1.415 . S
C802 H778 0.950 . S
C802 C797 1.363 . S
C802 C801 1.415 . S
C803 H779 0.951 . S
C803 C804 1.366 . S
C803 C805 1.388 . S
C804 C803 1.366 . S
C804 C808 1.385 . S
C805 H780 0.951 . S
C805 C803 1.388 . S
C805 C806 1.366 . S
C806 C805 1.366 . S
C806 C807 1.414 . S
C806 C809 1.499 . S
C807 H781 0.950 . S
C807 C806 1.414 . S
C807 C808 1.374 . S
C808 H782 0.950 . S
C808 C804 1.385 . S
C808 C807 1.374 . S
C809 C806 1.499 . S
C809 C810 1.373 . S
C809 C811 1.389 . S
C810 H783 0.950 . S
C810 C796 1.377 . S
C810 C809 1.373 . S
C811 C795 1.377 . S
C811 C809 1.389 . S
C811 C812 1.524 . S
C812 C811 1.524 . S
C812 C813 1.397 . S
C812 C817 1.363 . S
C813 H784 0.950 . S
C813 C812 1.397 . S
C813 C814 1.334 . S
C814 H785 0.950 . S
C814 C813 1.334 . S
C814 C815 1.287 . S
C815 C814 1.287 . S
C815 C816 1.524 . S
C815 H818 0.999 . S
C816 H786 0.950 . S
C816 C815 1.524 . S
C816 C817 1.415 . S
C817 H787 0.950 . S
C817 C812 1.363 . S
C817 C816 1.415 . S
H818 C815 0.999 . S
H819 C800 0.913 . S
H820 C838 0.951 . S
H821 C840 0.951 . S
H822 C842 0.950 . S
H823 C843 0.950 1_554 S
H824 C845 0.950 . S
H825 C848 0.950 . S
H826 C849 0.950 1_554 S
H827 C851 0.950 . S
H828 C852 0.950 . S
H829 C853 0.951 . S
H830 C855 0.951 . S
H831 C857 0.950 . S
H832 C858 0.950 . S
H833 C860 0.950 . S
H834 C863 0.950 . S
H835 C864 0.950 . S
H836 C866 0.950 . S
H837 C867 0.950 . S
C838 H820 0.951 . S
C838 C839 1.366 . S
C838 C840 1.388 . S
C839 C838 1.366 . S
C839 C843 1.385 . S
C840 H821 0.951 . S
C840 C838 1.388 . S
C840 C841 1.366 . S
C841 C840 1.366 . S
C841 C842 1.414 . S
C841 C844 1.499 . S
C842 H822 0.950 . S
C842 C841 1.414 . S
C842 C843 1.374 . S
C843 H823 0.950 1_556 S
C843 C839 1.385 . S
C843 C842 1.374 . S
C844 C841 1.499 . S
C844 C845 1.373 . S
C844 C846 1.389 . S
C845 H824 0.950 . S
C845 C844 1.373 . S
C845 C861 1.377 . S
C846 C844 1.389 . S
C846 C847 1.524 . S
C846 C860 1.377 . S
C847 C846 1.524 . S
C847 C848 1.397 . S
C847 C852 1.363 . S
C848 H825 0.950 . S
C848 C847 1.397 . S
C848 C849 1.334 . S
C849 H826 0.950 1_556 S
C849 C848 1.334 . S
C849 C850 1.287 . S
C850 C849 1.287 . S
C850 C851 1.524 . S
C850 H869 0.913 . S
C851 H827 0.950 . S
C851 C850 1.524 . S
C851 C852 1.415 . S
C852 H828 0.950 . S
C852 C847 1.363 . S
C852 C851 1.415 . S
C853 H829 0.951 . S
C853 C854 1.366 . S
C853 C855 1.388 . S
C854 C853 1.366 . S
C854 C858 1.385 . S
C855 H830 0.951 . S
C855 C853 1.388 . S
C855 C856 1.366 . S
C856 C855 1.366 . S
C856 C857 1.414 . S
C856 C859 1.499 . S
C857 H831 0.950 . S
C857 C856 1.414 . S
C857 C858 1.374 . S
C858 H832 0.950 . S
C858 C854 1.385 . S
C858 C857 1.374 . S
C859 C856 1.499 . S
C859 C860 1.373 . S
C859 C861 1.389 . S
C860 H833 0.950 . S
C860 C846 1.377 . S
C860 C859 1.373 . S
C861 C845 1.377 . S
C861 C859 1.389 . S
C861 C862 1.524 . S
C862 C861 1.524 . S
C862 C863 1.397 . S
C862 C867 1.363 . S
C863 H834 0.950 . S
C863 C862 1.397 . S
C863 C864 1.334 . S
C864 H835 0.950 . S
C864 C863 1.334 . S
C864 C865 1.287 . S
C865 C864 1.287 . S
C865 C866 1.524 . S
C865 H868 0.999 . S
C866 H836 0.950 . S
C866 C865 1.524 . S
C866 C867 1.415 . S
C867 H837 0.950 . S
C867 C862 1.363 . S
C867 C866 1.415 . S
H868 C865 0.999 . S
H869 C850 0.913 . S
H870 C888 0.951 . S
H871 C890 0.951 . S
H872 C892 0.950 . S
H873 C893 0.950 . S
H874 C895 0.950 . S
H875 C898 0.950 . S
H876 C899 0.950 . S
H877 C901 0.950 . S
H878 C902 0.950 . S
H879 C903 0.951 . S
H880 C905 0.951 . S
H881 C907 0.950 . S
H882 C908 0.950 . S
H883 C910 0.950 . S
H884 C913 0.950 . S
H885 C914 0.950 . S
H886 C916 0.950 . S
H887 C917 0.950 . S
C888 H870 0.951 . S
C888 C889 1.366 . S
C888 C890 1.388 . S
C889 C888 1.366 . S
C889 C893 1.385 . S
C890 H871 0.951 . S
C890 C888 1.388 . S
C890 C891 1.366 . S
C891 C890 1.366 . S
C891 C892 1.414 . S
C891 C894 1.499 . S
C892 H872 0.950 . S
C892 C891 1.414 . S
C892 C893 1.374 . S
C893 H873 0.950 . S
C893 C889 1.385 . S
C893 C892 1.374 . S
C894 C891 1.499 . S
C894 C895 1.373 . S
C894 C896 1.389 . S
C895 H874 0.950 . S
C895 C894 1.373 . S
C895 C911 1.377 . S
C896 C894 1.389 . S
C896 C897 1.524 . S
C896 C910 1.377 . S
C897 C896 1.524 . S
C897 C898 1.397 . S
C897 C902 1.363 . S
C898 H875 0.950 . S
C898 C897 1.397 . S
C898 C899 1.334 . S
C899 H876 0.950 . S
C899 C898 1.334 . S
C899 C900 1.287 . S
C900 C899 1.287 . S
C900 C901 1.524 . S
C900 H919 0.913 . S
C901 H877 0.950 . S
C901 C900 1.524 . S
C901 C902 1.415 . S
C902 H878 0.950 . S
C902 C897 1.363 . S
C902 C901 1.415 . S
C903 H879 0.951 . S
C903 C904 1.366 . S
C903 C905 1.388 . S
C904 C903 1.366 . S
C904 C908 1.385 . S
C905 H880 0.951 . S
C905 C903 1.388 . S
C905 C906 1.366 . S
C906 C905 1.366 . S
C906 C907 1.414 . S
C906 C909 1.499 . S
C907 H881 0.950 . S
C907 C906 1.414 . S
C907 C908 1.374 . S
C908 H882 0.950 . S
C908 C904 1.385 . S
C908 C907 1.374 . S
C909 C906 1.499 . S
C909 C910 1.373 . S
C909 C911 1.389 . S
C910 H883 0.950 . S
C910 C896 1.377 . S
C910 C909 1.373 . S
C911 C895 1.377 . S
C911 C909 1.389 . S
C911 C912 1.524 . S
C912 C911 1.524 . S
C912 C913 1.397 . S
C912 C917 1.363 . S
C913 H884 0.950 . S
C913 C912 1.397 . S
C913 C914 1.334 . S
C914 H885 0.950 . S
C914 C913 1.334 . S
C914 C915 1.287 . S
C915 C914 1.287 . S
C915 C916 1.524 . S
C915 H918 0.999 . S
C916 H886 0.950 . S
C916 C915 1.524 . S
C916 C917 1.415 . S
C917 H887 0.950 . S
C917 C912 1.363 . S
C917 C916 1.415 . S
H918 C915 0.999 . S
H919 C900 0.913 . S
H920 C938 0.951 . S
H921 C940 0.951 . S
H922 C942 0.950 . S
H923 C943 0.950 . S
H924 C945 0.950 . S
H925 C948 0.950 . S
H926 C949 0.950 . S
H927 C951 0.950 . S
H928 C952 0.950 . S
H929 C953 0.951 . S
H930 C955 0.951 . S
H931 C957 0.950 . S
H932 C958 0.950 . S
H933 C960 0.950 . S
H934 C963 0.950 . S
H935 C964 0.950 . S
H936 C966 0.950 . S
H937 C967 0.950 . S
C938 H920 0.951 . S
C938 C939 1.366 . S
C938 C940 1.388 . S
C939 C938 1.366 . S
C939 C943 1.385 . S
C940 H921 0.951 . S
C940 C938 1.388 . S
C940 C941 1.366 . S
C941 C940 1.366 . S
C941 C942 1.414 . S
C941 C944 1.499 . S
C942 H922 0.950 . S
C942 C941 1.414 . S
C942 C943 1.374 . S
C943 H923 0.950 . S
C943 C939 1.385 . S
C943 C942 1.374 . S
C944 C941 1.499 . S
C944 C945 1.373 . S
C944 C946 1.389 . S
C945 H924 0.950 . S
C945 C944 1.373 . S
C945 C961 1.377 . S
C946 C944 1.389 . S
C946 C947 1.524 . S
C946 C960 1.377 . S
C947 C946 1.524 . S
C947 C948 1.397 . S
C947 C952 1.363 . S
C948 H925 0.950 . S
C948 C947 1.397 . S
C948 C949 1.334 . S
C949 H926 0.950 . S
C949 C948 1.334 . S
C949 C950 1.287 . S
C950 C949 1.287 . S
C950 C951 1.524 . S
C950 H969 0.913 . S
C951 H927 0.950 . S
C951 C950 1.524 . S
C951 C952 1.415 . S
C952 H928 0.950 . S
C952 C947 1.363 . S
C952 C951 1.415 . S
C953 H929 0.951 . S
C953 C954 1.366 . S
C953 C955 1.388 . S
C954 C953 1.366 . S
C954 C958 1.385 . S
C955 H930 0.951 . S
C955 C953 1.388 . S
C955 C956 1.366 . S
C956 C955 1.366 . S
C956 C957 1.414 . S
C956 C959 1.499 . S
C957 H931 0.950 . S
C957 C956 1.414 . S
C957 C958 1.374 . S
C958 H932 0.950 . S
C958 C954 1.385 . S
C958 C957 1.374 . S
C959 C956 1.499 . S
C959 C960 1.373 . S
C959 C961 1.389 . S
C960 H933 0.950 . S
C960 C946 1.377 . S
C960 C959 1.373 . S
C961 C945 1.377 . S
C961 C959 1.389 . S
C961 C962 1.524 . S
C962 C961 1.524 . S
C962 C963 1.397 . S
C962 C967 1.363 . S
C963 H934 0.950 . S
C963 C962 1.397 . S
C963 C964 1.334 . S
C964 H935 0.950 . S
C964 C963 1.334 . S
C964 C965 1.287 . S
C965 C964 1.287 . S
C965 C966 1.524 . S
C965 H968 0.999 . S
C966 H936 0.950 . S
C966 C965 1.524 . S
C966 C967 1.415 . S
C967 H937 0.950 . S
C967 C962 1.363 . S
C967 C966 1.415 . S
H968 C965 0.999 . S
H969 C950 0.913 . S
H970 C988 0.951 1_554 S
H971 C990 0.951 . S
H972 C992 0.950 . S
H973 C993 0.950 . S
H974 C995 0.950 . S
H975 C998 0.950 . S
H976 C999 0.950 . S
H977 C1001 0.950 . S
H978 C1002 0.950 . S
H979 C1003 0.951 . S
H980 C1005 0.951 . S
H981 C1007 0.950 . S
H982 C1008 0.950 . S
H983 C1010 0.950 . S
H984 C1013 0.950 . S
H985 C1014 0.950 . S
H986 C1016 0.950 . S
H987 C1017 0.950 . S
C988 H970 0.951 1_556 S
C988 C989 1.366 . S
C988 C990 1.388 . S
C989 C988 1.366 . S
C989 C993 1.385 . S
C990 H971 0.951 . S
C990 C988 1.388 . S
C990 C991 1.366 . S
C991 C990 1.366 . S
C991 C992 1.414 . S
C991 C994 1.499 . S
C992 H972 0.950 . S
C992 C991 1.414 . S
C992 C993 1.374 . S
C993 H973 0.950 . S
C993 C989 1.385 . S
C993 C992 1.374 . S
C994 C991 1.499 . S
C994 C995 1.373 . S
C994 C996 1.389 . S
C995 H974 0.950 . S
C995 C994 1.373 . S
C995 C1011 1.377 . S
C996 C994 1.389 . S
C996 C997 1.524 . S
C996 C1010 1.377 . S
C997 C996 1.524 . S
C997 C998 1.397 . S
C997 C1002 1.363 1_556 S
C998 H975 0.950 . S
C998 C997 1.397 . S
C998 C999 1.334 1_556 S
C999 H976 0.950 . S
C999 C998 1.334 1_554 S
C999 C1000 1.287 . S
C1000 C999 1.287 . S
C1000 C1001 1.524 . S
C1000 H1019 0.913 . S
C1001 H977 0.950 . S
C1001 C1000 1.524 . S
C1001 C1002 1.415 . S
C1002 H978 0.950 . S
C1002 C997 1.363 1_554 S
C1002 C1001 1.415 . S
C1003 H979 0.951 . S
C1003 C1004 1.366 . S
C1003 C1005 1.388 . S
C1004 C1003 1.366 . S
C1004 C1008 1.385 . S
C1005 H980 0.951 . S
C1005 C1003 1.388 . S
C1005 C1006 1.366 . S
C1006 C1005 1.366 . S
C1006 C1007 1.414 . S
C1006 C1009 1.499 . S
C1007 H981 0.950 . S
C1007 C1006 1.414 . S
C1007 C1008 1.374 . S
C1008 H982 0.950 . S
C1008 C1004 1.385 . S
C1008 C1007 1.374 . S
C1009 C1006 1.499 . S
C1009 C1010 1.373 . S
C1009 C1011 1.389 . S
C1010 H983 0.950 . S
C1010 C996 1.377 . S
C1010 C1009 1.373 . S
C1011 C995 1.377 . S
C1011 C1009 1.389 . S
C1011 C1012 1.524 . S
C1012 C1011 1.524 . S
C1012 C1013 1.397 . S
C1012 C1017 1.363 . S
C1013 H984 0.950 . S
C1013 C1012 1.397 . S
C1013 C1014 1.334 . S
C1014 H985 0.950 . S
C1014 C1013 1.334 . S
C1014 C1015 1.287 . S
C1015 C1014 1.287 . S
C1015 C1016 1.524 . S
C1015 H1018 0.999 . S
C1016 H986 0.950 . S
C1016 C1015 1.524 . S
C1016 C1017 1.415 . S
C1017 H987 0.950 . S
C1017 C1012 1.363 . S
C1017 C1016 1.415 . S
H1018 C1015 0.999 . S
H1019 C1000 0.913 . S
C139 C118 1.334 . S
C154 C4 1.269 . S
C189 C18 1.334 . S
C204 C24 1.268 . S
C239 C38 1.334 . S
C254 C44 1.268 . S
C289 C58 1.334 . S
C304 C64 1.269 . S
C339 C84 1.268 . S
C354 C78 1.334 . S
C389 C104 1.269 . S
C404 C98 1.334 . S
C439 C12 1.212 . S
C454 C9 1.212 . S
C489 C32 1.211 . S
C504 C29 1.211 . S
C539 C52 1.211 . S
C554 C49 1.211 . S
C589 C72 1.212 . S
C604 C69 1.212 . S
C639 C89 1.211 . S
C654 C92 1.211 . S
C689 C112 1.212 . S
C704 C109 1.212 . S
C739 C2 1.412 . S
C754 C99 1.483 . S
C789 C22 1.411 . S
C804 C119 1.484 . S
C839 C19 1.483 . S
C854 C42 1.412 . S
C889 C39 1.483 . S
C904 C62 1.412 . S
C939 C82 1.411 . S
C954 C59 1.484 . S
C989 C79 1.484 . S
C1004 C102 1.411 . S
