# Generated by pormake.
# Topology lon, (4)-cn, num edge types: 1
# Building blocks:
#     Node 0, Type 0, BuildingBlock: CEKHIL_clean_sbu_0, # of connection points: 4
#     Node 1, Type 0, BuildingBlock: CEKHIL_clean_sbu_0, # of connection points: 4
#     Node 2, Type 0, BuildingBlock: CEKHIL_clean_sbu_0, # of connection points: 4
#     Node 3, Type 0, BuildingBlock: CEKHIL_clean_sbu_0, # of connection points: 4
#     Edge 4, Type (0, 0), BuildingBlock: MIFKUJ_clean_linker_0, # of connection points: 2
#     Edge 5, Type (0, 0), BuildingBlock: MIFKUJ_clean_linker_0, # of connection points: 2
#     Edge 6, Type (0, 0), BuildingBlock: MIFKUJ_clean_linker_0, # of connection points: 2
#     Edge 7, Type (0, 0), BuildingBlock: MIFKUJ_clean_linker_0, # of connection points: 2
#     Edge 8, Type (0, 0), BuildingBlock: MIFKUJ_clean_linker_0, # of connection points: 2
#     Edge 9, Type (0, 0), BuildingBlock: MIFKUJ_clean_linker_0, # of connection points: 2
#     Edge 10, Type (0, 0), BuildingBlock: MIFKUJ_clean_linker_0, # of connection points: 2
#     Edge 11, Type (0, 0), BuildingBlock: MIFKUJ_clean_linker_0, # of connection points: 2
# Relax obj value: 0.140
# Max RMSD: 0.174
# Mean RMSD: 0.173
data_MOF--net-lon--node1-CEKHIL_clean_sbu_0--edge1-MIFKUJ_clean_linker_0
_symmetry_space_group_name_H-M    P1
_symmetry_Int_Tables_number       1
_symmetry_cell_setting            triclinic
loop_
_symmetry_equiv_pos_as_xyz
'x, y, z'
_cell_length_a     29.504408
_cell_length_b     32.088323
_cell_length_c     52.855922
_cell_angle_alpha  90.955205
_cell_angle_beta   90.260092
_cell_angle_gamma 117.24201
loop_
_atom_site_label
_atom_site_type_symbol
_atom_site_fract_x
_atom_site_fract_y
_atom_site_fract_z
_atom_type_partial_charge
Co0 Co 0.36231 0.7043 0.0767 0.0
O1 O 0.33674 0.7258 0.1054 0.0
O2 O 0.36613 0.67381 0.10734 0.0
C3 C 0.4123 0.7764 0.06091 0.0
O4 O 0.39423 0.67414 0.05297 0.0
Co5 Co 0.3438 0.71912 0.02055 0.0
O6 O 0.39005 0.69142 0.01234 0.0
C7 C 0.25892 0.65135 0.0508 0.0
C8 C 0.34816 0.69867 0.11922 0.0
C9 C 0.40437 0.67225 0.02939 0.0
O10 O 0.29057 0.65309 0.06827 0.0
O11 O 0.27222 0.67865 0.03189 0.0
O12 O 0.42818 0.76104 0.07985 0.0
O13 O 0.36609 0.74968 0.05341 0.0
Co14 Co 0.6577 0.33591 0.57882 0.0
O15 O 0.61215 0.31227 0.60743 0.0
O16 O 0.69474 0.33399 0.60875 0.0
C17 C 0.62892 0.38685 0.56578 0.0
O18 O 0.71855 0.36429 0.55499 0.0
Co19 Co 0.62101 0.32632 0.52287 0.0
O20 O 0.69398 0.36398 0.51465 0.0
C21 C 0.61228 0.24324 0.54984 0.0
C22 C 0.6521 0.31905 0.62083 0.0
C23 C 0.72868 0.37424 0.5315 0.0
O24 O 0.64196 0.26936 0.56786 0.0
O25 O 0.59525 0.25905 0.53207 0.0
O26 O 0.66152 0.39818 0.58445 0.0
O27 O 0.61247 0.3447 0.55688 0.0
Co28 Co 0.32652 0.67896 0.43535 0.0
O29 O 0.30323 0.70221 0.40692 0.0
O30 O 0.36644 0.68352 0.40554 0.0
C31 C 0.24733 0.62609 0.44761 0.0
O32 O 0.36042 0.65107 0.45899 0.0
Co33 Co 0.29751 0.68448 0.4913 0.0
O34 O 0.33166 0.64525 0.4987 0.0
C35 C 0.37027 0.77018 0.46566 0.0
C36 C 0.33739 0.69733 0.39351 0.0
C37 C 0.35855 0.63801 0.48208 0.0
O38 O 0.37516 0.74569 0.44717 0.0
O39 O 0.33746 0.75236 0.48316 0.0
O40 O 0.26959 0.61596 0.42904 0.0
O41 O 0.27194 0.66796 0.45695 0.0
Co42 Co 0.66633 0.30818 0.93753 0.0
O43 O 0.61918 0.28615 0.90878 0.0
O44 O 0.6997 0.33943 0.90693 0.0
C45 C 0.64499 0.23579 0.95299 0.0
O46 O 0.72833 0.33892 0.96148 0.0
Co47 Co 0.63378 0.29193 0.99362 0.0
O48 O 0.70743 0.3144 1.00124 0.0
C49 C 0.61647 0.36096 0.96401 0.0
C50 C 0.65697 0.31401 0.89499 0.0
C51 C 0.7406 0.33671 0.98469 0.0
O52 O 0.64476 0.35861 0.94603 0.0
O53 O 0.60381 0.33417 0.98314 0.0
O54 O 0.67658 0.25189 0.93435 0.0
O55 O 0.62528 0.26229 0.96054 0.0
H56 H 0.40429 0.67792 0.15301 0.0
H57 H 0.40227 0.68071 0.19907 0.0
H58 H 0.28035 0.71953 0.1953 0.0
H59 H 0.28506 0.72005 0.14894 0.0
H60 H 0.33734 0.76614 0.23144 0.0
H61 H 0.26547 0.602 0.21104 0.0
H62 H 0.26154 0.53041 0.19101 0.0
H63 H 0.3985 0.55292 0.23063 0.0
H64 H 0.40358 0.62494 0.25067 0.0
H65 H 0.27343 0.7144 0.36222 0.0
H66 H 0.2737 0.71634 0.31593 0.0
H67 H 0.40784 0.69509 0.31506 0.0
H68 H 0.40709 0.69213 0.36127 0.0
H69 H 0.34027 0.63819 0.2816 0.0
H70 H 0.40992 0.80382 0.30187 0.0
H71 H 0.40961 0.87339 0.32228 0.0
H72 H 0.26994 0.84436 0.2833 0.0
H73 H 0.2691 0.77429 0.26289 0.0
C74 C 0.37681 0.68679 0.16198 0.0
C75 C 0.34446 0.69828 0.14729 0.0
C76 C 0.37539 0.68806 0.18845 0.0
C77 C 0.34012 0.69902 0.20104 0.0
C78 C 0.30782 0.71071 0.18629 0.0
C79 C 0.3103 0.71079 0.15973 0.0
C80 C 0.33781 0.69917 0.22946 0.0
C81 C 0.33714 0.73768 0.2423 0.0
C82 C 0.33835 0.66261 0.24405 0.0
C83 C 0.33509 0.61905 0.2322 0.0
C84 C 0.29488 0.5918 0.21538 0.0
C85 C 0.29244 0.55113 0.20403 0.0
C86 C 0.32981 0.53718 0.2095 0.0
C87 C 0.36961 0.56378 0.2264 0.0
C88 C 0.37224 0.60449 0.23778 0.0
C89 C 0.30338 0.71072 0.3522 0.0
C90 C 0.34032 0.70322 0.36554 0.0
C91 C 0.30357 0.71195 0.32565 0.0
C92 C 0.34104 0.70623 0.3118 0.0
C93 C 0.37844 0.69953 0.32517 0.0
C94 C 0.37812 0.69807 0.35167 0.0
C95 C 0.34033 0.70525 0.28343 0.0
C96 C 0.3403 0.6665 0.27065 0.0
C97 C 0.33841 0.74122 0.26895 0.0
C98 C 0.33922 0.7836 0.28103 0.0
C99 C 0.37898 0.81212 0.29778 0.0
C100 C 0.37904 0.85167 0.30932 0.0
C101 C 0.33972 0.86323 0.30414 0.0
C102 C 0.30034 0.83535 0.28732 0.0
C103 C 0.30009 0.79575 0.27574 0.0
H104 H 0.33982 0.89384 0.31311 0.0
H105 H 0.32787 0.50571 0.20069 0.0
H106 H 0.73148 0.35634 0.65465 0.0
H107 H 0.72862 0.35298 0.70068 0.0
H108 H 0.56581 0.26542 0.6967 0.0
H109 H 0.56832 0.27108 0.65045 0.0
H110 H 0.58288 0.32286 0.73311 0.0
H111 H 0.65867 0.22387 0.71195 0.0
H112 H 0.71934 0.20109 0.69162 0.0
H113 H 0.84385 0.31331 0.73135 0.0
H114 H 0.78399 0.33714 0.75168 0.0
H115 H 0.5734 0.2626 0.86443 0.0
H116 H 0.56882 0.26033 0.81806 0.0
H117 H 0.72648 0.36422 0.81552 0.0
H118 H 0.73142 0.36633 0.86174 0.0
H119 H 0.70755 0.29279 0.78273 0.0
H120 H 0.62716 0.39098 0.80309 0.0
H121 H 0.56328 0.40909 0.82376 0.0
H122 H 0.44272 0.29051 0.78584 0.0
H123 H 0.50589 0.27135 0.76518 0.0
C124 C 0.69507 0.33598 0.66353 0.0
C125 C 0.65017 0.31366 0.6488 0.0
C126 C 0.69347 0.33384 0.68998 0.0
C127 C 0.64713 0.30805 0.70249 0.0
C128 C 0.60217 0.28548 0.68772 0.0
C129 C 0.60363 0.2885 0.66122 0.0
C130 C 0.64558 0.30594 0.73087 0.0
C131 C 0.60968 0.31546 0.74385 0.0
C132 C 0.68075 0.2969 0.74527 0.0
C133 C 0.71686 0.28251 0.73318 0.0
C134 C 0.69902 0.24387 0.71623 0.0
C135 C 0.73327 0.23074 0.70472 0.0
C136 C 0.78542 0.2558 0.71014 0.0
C137 C 0.80344 0.29396 0.72715 0.0
C138 C 0.76936 0.30725 0.73869 0.0
C139 C 0.60698 0.28528 0.85401 0.0
C140 C 0.65276 0.31474 0.86689 0.0
C141 C 0.60428 0.28402 0.82744 0.0
C142 C 0.64723 0.31231 0.81314 0.0
C143 C 0.6928 0.34198 0.82602 0.0
C144 C 0.6955 0.34331 0.85252 0.0
C145 C 0.64544 0.3103 0.7848 0.0
C146 C 0.68066 0.29991 0.77188 0.0
C147 C 0.60914 0.31774 0.77051 0.0
C148 C 0.57123 0.32948 0.78279 0.0
C149 C 0.58702 0.36858 0.7993 0.0
C150 C 0.55094 0.37907 0.81099 0.0
C151 C 0.49897 0.3509 0.80617 0.0
C152 C 0.48298 0.31226 0.78958 0.0
C153 C 0.5189 0.30161 0.77786 0.0
H154 H 0.4711 0.35907 0.81524 0.0
H155 H 0.81187 0.24559 0.70121 0.0
H156 H 0.4516 0.63459 0.05975 0.0
H157 H 0.49359 0.58745 0.04682 0.0
H158 H 0.45944 0.59916 0.96861 0.0
H159 H 0.41887 0.6474 0.9813 0.0
H160 H 0.45993 0.50648 0.02579 0.0
H161 H 0.54521 0.59053 0.92947 0.0
H162 H 0.58211 0.66835 0.90999 0.0
H163 H 0.62328 0.73481 0.98352 0.0
H164 H 0.58729 0.65744 1.00341 0.0
H165 H 0.51844 0.34572 0.96213 0.0
H166 H 0.48647 0.40285 0.97005 0.0
H167 H 0.64114 0.51331 0.97625 0.0
H168 H 0.67294 0.45618 0.96676 0.0
H169 H 0.58663 0.54869 0.95717 0.0
H170 H 0.56695 0.45512 0.02963 0.0
H171 H 0.53918 0.38212 0.05338 0.0
H172 H 0.38284 0.34398 0.03534 0.0
H173 H 0.40973 0.41648 0.0112 0.0
C174 C 0.4534 0.62753 0.03976 0.0
C175 C 0.43186 0.64506 0.02161 0.0
C176 C 0.47737 0.60038 0.03238 0.0
C177 C 0.4803 0.58991 1.00667 0.0
C178 C 0.45883 0.60742 0.98852 0.0
C179 C 0.43531 0.63492 0.99585 0.0
C180 C 0.50385 0.55915 0.99896 0.0
C181 C 0.48767 0.51587 0.01079 0.0
C182 C 0.54093 0.57145 0.97974 0.0
C183 C 0.56306 0.61815 0.96792 0.0
C184 C 0.5623 0.62175 0.94147 0.0
C185 C 0.58304 0.66579 0.93036 0.0
C186 C 0.60487 0.70649 0.94551 0.0
C187 C 0.60617 0.70325 0.97181 0.0
C188 C 0.58555 0.65932 0.98301 0.0
C189 C 0.54548 0.38245 0.96445 0.0
C190 C 0.59806 0.39671 0.96366 0.0
C191 C 0.52726 0.41506 0.96932 0.0
C192 C 0.56127 0.4624 0.97458 0.0
C193 C 0.61396 0.47707 0.97242 0.0
C194 C 0.6322 0.4445 0.9669 0.0
C195 C 0.54191 0.49569 0.98368 0.0
C196 C 0.55886 0.53937 0.97214 0.0
C197 C 0.50674 0.48449 1.00378 0.0
C198 C 0.4904 0.44103 0.01844 0.0
C199 C 0.52667 0.43103 0.03062 0.0
C200 C 0.51109 0.38976 0.04416 0.0
C201 C 0.45929 0.35838 0.04582 0.0
C202 C 0.42295 0.36828 0.03401 0.0
C203 C 0.43834 0.40948 0.02042 0.0
H204 H 0.4473 0.32644 0.0563 0.0
H205 H 0.62087 0.74054 0.93687 0.0
H206 H 0.1742 0.54541 0.42485 0.0
H207 H 0.08675 0.49682 0.43933 0.0
H208 H 0.11822 0.58454 0.50638 0.0
H209 H 0.20491 0.6332 0.492 0.0
H210 H 0.062 0.48857 0.5163 0.0
H211 H 0.0587 0.60306 0.45857 0.0
H212 H 0.0742 0.643 0.4177 0.0
H213 H 0.97834 0.5121 0.37983 0.0
H214 H 0.96285 0.47127 0.42046 0.0
H215 H 0.81356 0.43278 0.55931 0.0
H216 H 0.90212 0.47128 0.54538 0.0
H217 H 0.85461 0.40366 0.4719 0.0
H218 H 0.76597 0.36756 0.48531 0.0
H219 H 0.92019 0.48564 0.46429 0.0
H220 H 0.91904 0.37002 0.52082 0.0
H221 H 0.90415 0.32743 0.56081 0.0
H222 H 0.00793 0.45429 0.59976 0.0
H223 H 0.02296 0.49778 0.56006 0.0
C224 C 0.16261 0.55389 0.44282 0.0
C225 C 0.19639 0.59327 0.45721 0.0
C226 C 0.11262 0.52624 0.45104 0.0
C227 C 0.09582 0.53727 0.47388 0.0
C228 C 0.13027 0.57533 0.48873 0.0
C229 C 0.17983 0.60322 0.48041 0.0
C230 C 0.04175 0.51101 0.48181 0.0
C231 C 0.0309 0.48805 0.50503 0.0
C232 C 1.00111 0.50946 0.46686 0.0
C233 C 0.01008 0.53406 0.44249 0.0
C234 C 0.04126 0.58275 0.44149 0.0
C235 C 0.04998 0.60555 0.41838 0.0
C236 C 0.02739 0.58008 0.39617 0.0
C237 C 0.99589 0.53177 0.39704 0.0
C238 C 0.9871 0.50879 0.4201 0.0
C239 C 0.8221 0.42614 0.5402 0.0
C240 C 0.78271 0.39715 0.52342 0.0
C241 C 0.8729 0.44788 0.53227 0.0
C242 C 0.88568 0.43984 0.50764 0.0
C243 C 0.84617 0.41069 0.49095 0.0
C244 C 0.79536 0.38994 0.49867 0.0
C245 C 0.93979 0.46267 0.49894 0.0
C246 C 0.95086 0.48537 0.47556 0.0
C247 C 0.98054 0.46333 0.51362 0.0
C248 C 0.97176 0.43722 0.5375 0.0
C249 C 0.93843 0.38889 0.53794 0.0
C250 C 0.93 0.36459 0.56055 0.0
C251 C 0.95498 0.38817 0.58282 0.0
C252 C 0.98856 0.43608 0.58251 0.0
C253 C 0.99709 0.46057 0.55995 0.0
H254 H 0.94839 0.36929 0.60031 0.0
H255 H 0.03419 0.5978 0.37829 0.0
H256 H 0.60467 0.20651 0.99956 0.0
H257 H 0.57345 0.12805 0.01708 0.0
H258 H 0.61754 0.08059 0.9492 0.0
H259 H 0.6505 0.15966 0.9318 0.0
H260 H 0.50037 0.03013 0.97387 0.0
H261 H 0.68297 0.07796 0.98521 0.0
H262 H 0.76893 0.13347 1.00083 0.0
H263 H 0.71224 0.12267 0.07638 0.0
H264 H 0.62574 0.06765 0.0611 0.0
H265 H 0.41775 0.79725 0.01094 0.0
H266 H 0.46523 0.87373 0.99166 0.0
H267 H 0.52151 0.93638 0.06551 0.0
H268 H 0.47749 0.85887 0.08439 0.0
H269 H 0.59116 0.98088 0.0365 0.0
H270 H 0.41395 0.93941 0.03003 0.0
H271 H 0.32324 0.89079 0.01874 0.0
H272 H 0.36134 0.8968 0.94012 0.0
H273 H 0.45238 0.94501 0.95098 0.0
C274 C 0.60839 0.17958 0.98847 0.0
C275 C 0.63015 0.18932 0.96429 0.0
C276 C 0.59053 0.13478 0.99853 0.0
C277 C 0.59325 0.09857 0.98446 0.0
C278 C 0.61534 0.10816 0.9604 0.0
C279 C 0.63429 0.15334 0.95053 0.0
C280 C 0.57044 0.05026 0.99448 0.0
C281 C 0.5204 0.01886 0.98721 0.0
C282 C 0.59578 0.03655 0.01276 0.0
C283 C 0.64783 0.06914 0.02196 0.0
C284 C 0.68874 0.08781 1.0051 0.0
C285 C 0.73758 0.11909 0.01391 0.0
C286 C 0.74602 0.13171 0.03957 0.0
C287 C 0.70565 0.11293 0.0565 0.0
C288 C 0.65673 0.08168 0.04778 0.0
C289 C 0.44077 0.82734 0.02297 0.0
C290 C 0.44378 0.82223 0.04916 0.0
C291 C 0.46754 0.87131 0.01199 0.0
C292 C 0.49591 0.91173 0.02709 0.0
C293 C 0.49994 0.9062 0.05327 0.0
C294 C 0.47467 0.86184 0.06413 0.0
C295 C 0.52052 0.9596 0.01574 0.0
C296 C 0.57085 0.99139 0.02294 0.0
C297 C 0.49472 0.97428 0.99794 0.0
C298 C 0.44001 0.94539 0.99134 0.0
C299 C 0.403 0.93011 0.01035 0.0
C300 C 0.35153 0.90266 1.00403 0.0
C301 C 0.33655 0.8906 0.97874 0.0
C302 C 0.37301 0.9061 0.95971 0.0
C303 C 0.42454 0.93351 0.96593 0.0
H304 H 0.29669 0.86934 0.97388 0.0
H305 H 0.78385 0.15593 0.04635 0.0
H306 H 0.62289 0.45957 0.59071 0.0
H307 H 0.58121 0.50581 0.57565 0.0
H308 H 0.54986 0.43246 0.5036 0.0
H309 H 0.58977 0.38513 0.51878 0.0
H310 H 0.59147 0.54066 0.50448 0.0
H311 H 0.45788 0.39357 0.53487 0.0
H312 H 0.41852 0.33245 0.56677 0.0
H313 H 0.41655 0.43468 0.61963 0.0
H314 H 0.45671 0.49658 0.58812 0.0
H315 H 0.40552 0.59899 0.45191 0.0
H316 H 0.45554 0.55975 0.46533 0.0
H317 H 0.43351 0.58615 0.54349 0.0
H318 H 0.3821 0.62374 0.53025 0.0
H319 H 0.42173 0.50268 0.53979 0.0
H320 H 0.55013 0.64941 0.51089 0.0
H321 H 0.59315 0.71385 0.48115 0.0
H322 H 0.61008 0.61895 0.42834 0.0
H323 H 0.56652 0.55376 0.45763 0.0
C324 C 0.60771 0.45379 0.57156 0.0
C325 C 0.60945 0.41867 0.55594 0.0
C326 C 0.58386 0.48011 0.563 0.0
C327 C 0.56245 0.47248 0.53852 0.0
C328 C 0.56626 0.43895 0.52252 0.0
C329 C 0.58892 0.41187 0.53126 0.0
C330 C 0.53325 0.49727 0.53013 0.0
C331 C 0.55413 0.53218 0.51196 0.0
C332 C 0.48519 0.48692 0.54038 0.0
C333 C 0.46088 0.44977 0.55928 0.0
C334 C 0.44957 0.4031 0.55339 0.0
C335 C 0.427 0.3683 0.57137 0.0
C336 C 0.41521 0.3797 0.59525 0.0
C337 C 0.42582 0.42592 0.60115 0.0
C338 C 0.44846 0.46087 0.58324 0.0
C339 C 0.4114 0.59651 0.47196 0.0
C340 C 0.38966 0.61458 0.48996 0.0
C341 C 0.44034 0.57427 0.47964 0.0
C342 C 0.44912 0.57041 0.50549 0.0
C343 C 0.42741 0.58847 0.52345 0.0
C344 C 0.39796 0.6101 0.51581 0.0
C345 C 0.47975 0.54664 0.51397 0.0
C346 C 0.45912 0.51164 0.53223 0.0
C347 C 0.52844 0.55753 0.50403 0.0
C348 C 0.55458 0.59661 0.48635 0.0
C349 C 0.56266 0.6422 0.49285 0.0
C350 C 0.5872 0.67888 0.47609 0.0
C351 C 0.6042 0.67047 0.45284 0.0
C352 C 0.59681 0.62539 0.44634 0.0
C353 C 0.57223 0.58857 0.46302 0.0
H354 H 0.62321 0.69892 0.4399 0.0
H355 H 0.39771 0.35271 0.60914 0.0
H356 H 0.21912 0.55743 0.06082 0.0
H357 H 0.13026 0.49726 0.05361 0.0
H358 H 0.08815 0.60502 0.03421 0.0
H359 H 0.17654 0.66465 0.04069 0.0
H360 H 0.01497 0.53378 0.0648 0.0
H361 H 0.11115 0.55278 0.9884 0.0
H362 H 0.18174 0.55408 0.96306 0.0
H363 H 0.13564 0.4101 0.98048 0.0
H364 H 0.06516 0.4082 1.00626 0.0
H365 H 0.81609 0.41493 0.96352 0.0
H366 H 0.90383 0.4619 0.97911 0.0
H367 H 0.87646 0.36501 0.0395 0.0
H368 H 0.78815 0.31878 0.02462 0.0
H369 H 0.98377 0.42515 0.99135 0.0
H370 H 0.897 0.4167 0.07644 0.0
H371 H 0.82561 0.41951 0.09928 0.0
H372 H 0.8545 0.54742 0.06241 0.0
H373 H 0.92533 0.5446 0.03893 0.0
C374 C 0.19057 0.56821 0.0556 0.0
C375 C 0.20464 0.61568 0.05136 0.0
C376 C 0.13995 0.53386 0.05132 0.0
C377 C 0.10257 0.54664 0.04324 0.0
C378 C 0.11619 0.5943 0.04047 0.0
C379 C 0.16673 0.62834 0.04417 0.0
C380 C 0.05014 0.51071 0.03585 0.0
C381 C 0.00834 0.50966 0.04895 0.0
C382 C 0.04108 0.47947 0.01498 0.0
C383 C 0.08337 0.48054 0.99953 0.0
C384 C 0.1164 0.52155 0.98704 0.0
C385 C 0.15631 0.52237 0.97256 0.0
C386 C 0.16329 0.48225 0.97024 0.0
C387 C 0.13027 0.44119 0.98235 0.0
C388 C 0.09034 0.44022 0.9969 0.0
C389 C 0.82878 0.40347 0.98006 0.0
C390 C 0.79493 0.36326 0.99293 0.0
C391 C 0.87891 0.43041 0.98897 0.0
C392 C 0.89643 0.41743 0.01074 0.0
C393 C 0.86342 0.37635 0.02305 0.0
C394 C 0.81301 0.34983 0.01443 0.0
C395 C 0.94893 0.44753 0.0207 0.0
C396 C 0.99065 0.44817 1.00774 0.0
C397 C 0.95804 0.4783 0.04171 0.0
C398 C 0.91565 0.47999 0.05568 0.0
C399 C 0.88761 0.44504 0.07299 0.0
C400 C 0.84736 0.44668 0.08607 0.0
C401 C 0.83536 0.48351 0.08221 0.0
C402 C 0.86366 0.5188 0.06529 0.0
C403 C 0.90375 0.51712 0.05205 0.0
H404 H 0.80428 0.4848 0.0924 0.0
H405 H 0.19419 0.48293 0.959 0.0
H406 H 0.51619 0.17385 0.54634 0.0
H407 H 0.48862 0.09193 0.53434 0.0
H408 H 0.64501 0.11624 0.53543 0.0
H409 H 0.67281 0.19895 0.54792 0.0
H410 H 0.59111 0.07195 0.49007 0.0
H411 H 0.57026 0.04702 0.57839 0.0
H412 H 0.54391 0.05532 0.6216 0.0
H413 H 0.38719 0.99147 0.59714 0.0
H414 H 0.41262 0.98341 0.55368 0.0
H415 H 0.47486 0.81836 0.46145 0.0
H416 H 0.52963 0.89915 0.47695 0.0
H417 H 0.39574 0.9165 0.49247 0.0
H418 H 0.34166 0.83649 0.47754 0.0
H419 H 0.45556 0.93699 0.53353 0.0
H420 H 0.47837 0.97388 0.44429 0.0
H421 H 0.50432 0.96703 0.40076 0.0
H422 H 0.65721 0.00837 0.42703 0.0
H423 H 0.63196 0.01489 0.4708 0.0
C424 C 0.54457 0.16137 0.5448 0.0
C425 C 0.59649 0.19242 0.54845 0.0
C426 C 0.52883 0.11459 0.53782 0.0
C427 C 0.56469 0.09781 0.534 0.0
C428 C 0.61668 0.12841 0.53834 0.0
C429 C 0.63247 0.17538 0.54578 0.0
C430 C 0.54699 0.04906 0.52401 0.0
C431 C 0.56236 0.04215 0.49982 0.0
C432 C 0.50906 0.01028 0.53655 0.0
C433 C 0.49342 0.01481 0.56272 0.0
C434 C 0.5302 0.03503 0.58217 0.0
C435 C 0.51542 0.03965 0.60673 0.0
C436 C 0.46391 0.02398 0.61211 0.0
C437 C 0.42707 1.00358 0.59295 0.0
C438 C 0.44165 0.99891 0.56835 0.0
C439 C 0.45743 0.8401 0.46742 0.0
C440 C 0.40406 0.82124 0.4683 0.0
C441 C 0.48867 0.88611 0.47644 0.0
C442 C 0.46681 0.91382 0.48622 0.0
C443 C 0.41359 0.89577 0.48538 0.0
C444 C 0.38268 0.8501 0.47663 0.0
C445 C 0.49794 0.96014 0.4991 0.0
C446 C 0.48508 0.96651 0.52395 0.0
C447 C 0.53804 0.99826 0.48712 0.0
C448 C 0.55313 0.99426 0.46085 0.0
C449 C 0.5174 0.98107 0.44082 0.0
C450 C 0.532 0.97735 0.41609 0.0
C451 C 0.58233 0.98709 0.41114 0.0
C452 C 0.61821 1.00072 0.4309 0.0
C453 C 0.60378 1.00446 0.45566 0.0
H454 H 0.59357 0.98421 0.39199 0.0
H455 H 0.45255 0.0276 0.63113 0.0
loop_
_geom_bond_atom_site_label_1
_geom_bond_atom_site_label_2
_geom_bond_distance
_geom_bond_site_symmetry_2
_ccdc_geom_bond_type
Co0 O1 2.216 . S
Co0 O2 2.091 . S
Co0 O4 2.004 . S
Co0 O10 2.021 . S
Co0 O12 2.137 . S
Co0 O13 2.244 . S
O1 Co0 2.216 . S
O1 C8 1.247 . S
O2 Co0 2.091 . S
O2 C8 1.261 . S
C3 O12 1.247 . S
C3 O13 1.272 . S
O4 Co0 2.004 . S
O4 C9 1.259 . S
Co5 O6 2.061 . S
Co5 O11 2.052 . S
Co5 O13 2.135 . S
O6 Co5 2.061 . S
O6 C9 1.235 . S
C7 O10 1.238 . S
C7 O11 1.241 . S
C8 O1 1.247 . S
C8 O2 1.261 . S
C9 O4 1.259 . S
C9 O6 1.235 . S
O10 Co0 2.021 . S
O10 C7 1.238 . S
O11 Co5 2.052 . S
O11 C7 1.241 . S
O12 Co0 2.137 . S
O12 C3 1.247 . S
O13 Co0 2.244 . S
O13 C3 1.272 . S
O13 Co5 2.135 . S
Co14 O15 2.216 . S
Co14 O16 2.091 . S
Co14 O18 2.004 . S
Co14 O24 2.021 . S
Co14 O26 2.137 . S
Co14 O27 2.244 . S
O15 Co14 2.216 . S
O15 C22 1.247 . S
O16 Co14 2.091 . S
O16 C22 1.261 . S
C17 O26 1.247 . S
C17 O27 1.272 . S
O18 Co14 2.004 . S
O18 C23 1.259 . S
Co19 O20 2.061 . S
Co19 O25 2.052 . S
Co19 O27 2.135 . S
O20 Co19 2.061 . S
O20 C23 1.235 . S
C21 O24 1.238 . S
C21 O25 1.241 . S
C22 O15 1.247 . S
C22 O16 1.261 . S
C23 O18 1.259 . S
C23 O20 1.235 . S
O24 Co14 2.021 . S
O24 C21 1.238 . S
O25 Co19 2.052 . S
O25 C21 1.241 . S
O26 Co14 2.137 . S
O26 C17 1.247 . S
O27 Co14 2.244 . S
O27 C17 1.272 . S
O27 Co19 2.135 . S
Co28 O29 2.216 . S
Co28 O30 2.091 . S
Co28 O32 2.004 . S
Co28 O38 2.021 . S
Co28 O40 2.137 . S
Co28 O41 2.244 . S
O29 Co28 2.216 . S
O29 C36 1.247 . S
O30 Co28 2.091 . S
O30 C36 1.261 . S
C31 O40 1.247 . S
C31 O41 1.272 . S
O32 Co28 2.004 . S
O32 C37 1.259 . S
Co33 O34 2.061 . S
Co33 O39 2.052 . S
Co33 O41 2.135 . S
O34 Co33 2.061 . S
O34 C37 1.235 . S
C35 O38 1.238 . S
C35 O39 1.241 . S
C36 O29 1.247 . S
C36 O30 1.261 . S
C37 O32 1.259 . S
C37 O34 1.235 . S
O38 Co28 2.021 . S
O38 C35 1.238 . S
O39 Co33 2.052 . S
O39 C35 1.241 . S
O40 Co28 2.137 . S
O40 C31 1.247 . S
O41 Co28 2.244 . S
O41 C31 1.272 . S
O41 Co33 2.135 . S
Co42 O43 2.216 . S
Co42 O44 2.091 . S
Co42 O46 2.004 . S
Co42 O52 2.021 . S
Co42 O54 2.137 . S
Co42 O55 2.244 . S
O43 Co42 2.216 . S
O43 C50 1.247 . S
O44 Co42 2.091 . S
O44 C50 1.261 . S
C45 O54 1.247 . S
C45 O55 1.272 . S
O46 Co42 2.004 . S
O46 C51 1.259 . S
Co47 O48 2.061 . S
Co47 O53 2.052 . S
Co47 O55 2.135 . S
O48 Co47 2.061 . S
O48 C51 1.235 . S
C49 O52 1.238 . S
C49 O53 1.241 . S
C50 O43 1.247 . S
C50 O44 1.261 . S
C51 O46 1.259 . S
C51 O48 1.235 . S
O52 Co42 2.021 . S
O52 C49 1.238 . S
O53 Co47 2.052 . S
O53 C49 1.241 . S
O54 Co42 2.137 . S
O54 C45 1.247 . S
O55 Co42 2.244 . S
O55 C45 1.272 . S
O55 Co47 2.135 . S
H56 C74 0.951 . S
H57 C76 0.951 . S
H58 C78 0.950 . S
H59 C79 0.950 . S
H60 C81 0.950 . S
H61 C84 0.950 . S
H62 C85 0.950 . S
H63 C87 0.950 . S
H64 C88 0.950 . S
H65 C89 0.951 . S
H66 C91 0.951 . S
H67 C93 0.950 . S
H68 C94 0.950 . S
H69 C96 0.950 . S
H70 C99 0.950 . S
H71 C100 0.950 . S
H72 C102 0.950 . S
H73 C103 0.950 . S
C74 H56 0.951 . S
C74 C75 1.366 . S
C74 C76 1.388 . S
C75 C74 1.366 . S
C75 C79 1.385 . S
C76 H57 0.951 . S
C76 C74 1.388 . S
C76 C77 1.366 . S
C77 C76 1.366 . S
C77 C78 1.414 . S
C77 C80 1.499 . S
C78 H58 0.950 . S
C78 C77 1.414 . S
C78 C79 1.374 . S
C79 H59 0.950 . S
C79 C75 1.385 . S
C79 C78 1.374 . S
C80 C77 1.499 . S
C80 C81 1.373 . S
C80 C82 1.389 . S
C81 H60 0.950 . S
C81 C80 1.373 . S
C81 C97 1.377 . S
C82 C80 1.389 . S
C82 C83 1.524 . S
C82 C96 1.377 . S
C83 C82 1.524 . S
C83 C84 1.397 . S
C83 C88 1.363 . S
C84 H61 0.950 . S
C84 C83 1.397 . S
C84 C85 1.334 . S
C85 H62 0.950 . S
C85 C84 1.334 . S
C85 C86 1.287 . S
C86 C85 1.287 . S
C86 C87 1.524 . S
C86 H105 0.913 . S
C87 H63 0.950 . S
C87 C86 1.524 . S
C87 C88 1.415 . S
C88 H64 0.950 . S
C88 C83 1.363 . S
C88 C87 1.415 . S
C89 H65 0.951 . S
C89 C90 1.366 . S
C89 C91 1.388 . S
C90 C89 1.366 . S
C90 C94 1.385 . S
C91 H66 0.951 . S
C91 C89 1.388 . S
C91 C92 1.366 . S
C92 C91 1.366 . S
C92 C93 1.414 . S
C92 C95 1.499 . S
C93 H67 0.950 . S
C93 C92 1.414 . S
C93 C94 1.374 . S
C94 H68 0.950 . S
C94 C90 1.385 . S
C94 C93 1.374 . S
C95 C92 1.499 . S
C95 C96 1.373 . S
C95 C97 1.389 . S
C96 H69 0.950 . S
C96 C82 1.377 . S
C96 C95 1.373 . S
C97 C81 1.377 . S
C97 C95 1.389 . S
C97 C98 1.524 . S
C98 C97 1.524 . S
C98 C99 1.397 . S
C98 C103 1.363 . S
C99 H70 0.950 . S
C99 C98 1.397 . S
C99 C100 1.334 . S
C100 H71 0.950 . S
C100 C99 1.334 . S
C100 C101 1.287 . S
C101 C100 1.287 . S
C101 C102 1.524 . S
C101 H104 0.999 . S
C102 H72 0.950 . S
C102 C101 1.524 . S
C102 C103 1.415 . S
C103 H73 0.950 . S
C103 C98 1.363 . S
C103 C102 1.415 . S
H104 C101 0.999 . S
H105 C86 0.913 . S
H106 C124 0.951 . S
H107 C126 0.951 . S
H108 C128 0.950 . S
H109 C129 0.950 . S
H110 C131 0.950 . S
H111 C134 0.950 . S
H112 C135 0.950 . S
H113 C137 0.950 . S
H114 C138 0.950 . S
H115 C139 0.951 . S
H116 C141 0.951 . S
H117 C143 0.950 . S
H118 C144 0.950 . S
H119 C146 0.950 . S
H120 C149 0.950 . S
H121 C150 0.950 . S
H122 C152 0.950 . S
H123 C153 0.950 . S
C124 H106 0.951 . S
C124 C125 1.366 . S
C124 C126 1.388 . S
C125 C124 1.366 . S
C125 C129 1.385 . S
C126 H107 0.951 . S
C126 C124 1.388 . S
C126 C127 1.366 . S
C127 C126 1.366 . S
C127 C128 1.414 . S
C127 C130 1.499 . S
C128 H108 0.950 . S
C128 C127 1.414 . S
C128 C129 1.374 . S
C129 H109 0.950 . S
C129 C125 1.385 . S
C129 C128 1.374 . S
C130 C127 1.499 . S
C130 C131 1.373 . S
C130 C132 1.389 . S
C131 H110 0.950 . S
C131 C130 1.373 . S
C131 C147 1.377 . S
C132 C130 1.389 . S
C132 C133 1.524 . S
C132 C146 1.377 . S
C133 C132 1.524 . S
C133 C134 1.397 . S
C133 C138 1.363 . S
C134 H111 0.950 . S
C134 C133 1.397 . S
C134 C135 1.334 . S
C135 H112 0.950 . S
C135 C134 1.334 . S
C135 C136 1.287 . S
C136 C135 1.287 . S
C136 C137 1.524 . S
C136 H155 0.913 . S
C137 H113 0.950 . S
C137 C136 1.524 . S
C137 C138 1.415 . S
C138 H114 0.950 . S
C138 C133 1.363 . S
C138 C137 1.415 . S
C139 H115 0.951 . S
C139 C140 1.366 . S
C139 C141 1.388 . S
C140 C139 1.366 . S
C140 C144 1.385 . S
C141 H116 0.951 . S
C141 C139 1.388 . S
C141 C142 1.366 . S
C142 C141 1.366 . S
C142 C143 1.414 . S
C142 C145 1.499 . S
C143 H117 0.950 . S
C143 C142 1.414 . S
C143 C144 1.374 . S
C144 H118 0.950 . S
C144 C140 1.385 . S
C144 C143 1.374 . S
C145 C142 1.499 . S
C145 C146 1.373 . S
C145 C147 1.389 . S
C146 H119 0.950 . S
C146 C132 1.377 . S
C146 C145 1.373 . S
C147 C131 1.377 . S
C147 C145 1.389 . S
C147 C148 1.524 . S
C148 C147 1.524 . S
C148 C149 1.397 . S
C148 C153 1.363 . S
C149 H120 0.950 . S
C149 C148 1.397 . S
C149 C150 1.334 . S
C150 H121 0.950 . S
C150 C149 1.334 . S
C150 C151 1.287 . S
C151 C150 1.287 . S
C151 C152 1.524 . S
C151 H154 0.999 . S
C152 H122 0.950 . S
C152 C151 1.524 . S
C152 C153 1.415 . S
C153 H123 0.950 . S
C153 C148 1.363 . S
C153 C152 1.415 . S
H154 C151 0.999 . S
H155 C136 0.913 . S
H156 C174 0.951 . S
H157 C176 0.951 . S
H158 C178 0.952 . S
H159 C179 0.950 . S
H160 C181 0.950 . S
H161 C184 0.950 . S
H162 C185 0.950 . S
H163 C187 0.950 . S
H164 C188 0.950 . S
H165 C189 0.951 . S
H166 C191 0.951 . S
H167 C193 0.950 . S
H168 C194 0.950 . S
H169 C196 0.950 . S
H170 C199 0.950 . S
H171 C200 0.950 . S
H172 C202 0.950 . S
H173 C203 0.950 . S
C174 H156 0.951 . S
C174 C175 1.366 . S
C174 C176 1.388 . S
C175 C174 1.366 . S
C175 C179 1.385 . S
C176 H157 0.951 . S
C176 C174 1.388 . S
C176 C177 1.366 . S
C177 C176 1.366 . S
C177 C178 1.414 . S
C177 C180 1.499 1_554 S
C178 H158 0.952 . S
C178 C177 1.414 . S
C178 C179 1.374 . S
C179 H159 0.950 . S
C179 C175 1.385 . S
C179 C178 1.374 . S
C180 C177 1.499 1_556 S
C180 C181 1.373 1_556 S
C180 C182 1.389 . S
C181 H160 0.950 . S
C181 C180 1.373 1_554 S
C181 C197 1.366 1_554 S
C182 C180 1.389 . S
C182 C183 1.524 . S
C182 C196 1.377 . S
C183 C182 1.524 . S
C183 C184 1.397 . S
C183 C188 1.363 . S
C184 H161 0.950 . S
C184 C183 1.397 . S
C184 C185 1.334 . S
C185 H162 0.950 . S
C185 C184 1.334 . S
C185 C186 1.287 . S
C186 C185 1.287 . S
C186 C187 1.524 . S
C186 H205 0.913 . S
C187 H163 0.950 . S
C187 C186 1.524 . S
C187 C188 1.415 . S
C188 H164 0.950 . S
C188 C183 1.363 . S
C188 C187 1.415 . S
C189 H165 0.951 . S
C189 C190 1.366 . S
C189 C191 1.388 . S
C190 C189 1.366 . S
C190 C194 1.385 . S
C191 H166 0.951 . S
C191 C189 1.388 . S
C191 C192 1.366 . S
C192 C191 1.366 . S
C192 C193 1.414 . S
C192 C195 1.499 . S
C193 H167 0.950 . S
C193 C192 1.414 . S
C193 C194 1.374 . S
C194 H168 0.950 . S
C194 C190 1.385 . S
C194 C193 1.374 . S
C195 C192 1.499 . S
C195 C196 1.373 . S
C195 C197 1.417 . S
C196 H169 0.950 . S
C196 C182 1.377 . S
C196 C195 1.373 . S
C197 C181 1.366 1_556 S
C197 C195 1.417 . S
C197 C198 1.505 1_556 S
C198 C197 1.505 1_554 S
C198 C199 1.397 . S
C198 C203 1.363 . S
C199 H170 0.950 . S
C199 C198 1.397 . S
C199 C200 1.334 . S
C200 H171 0.950 . S
C200 C199 1.334 . S
C200 C201 1.287 . S
C201 C200 1.287 . S
C201 C202 1.524 . S
C201 H204 0.999 . S
C202 H172 0.950 . S
C202 C201 1.524 . S
C202 C203 1.415 . S
C203 H173 0.950 . S
C203 C198 1.363 . S
C203 C202 1.415 . S
H204 C201 0.999 . S
H205 C186 0.913 . S
H206 C224 0.951 . S
H207 C226 0.951 . S
H208 C228 0.950 . S
H209 C229 0.950 . S
H210 C231 0.950 . S
H211 C234 0.950 . S
H212 C235 0.950 . S
H213 C237 0.950 . S
H214 C238 0.950 . S
H215 C239 0.951 . S
H216 C241 0.951 . S
H217 C243 0.950 . S
H218 C244 0.950 . S
H219 C246 0.950 . S
H220 C249 0.950 . S
H221 C250 0.950 . S
H222 C252 0.950 . S
H223 C253 0.950 . S
C224 H206 0.951 . S
C224 C225 1.366 . S
C224 C226 1.388 . S
C225 C224 1.366 . S
C225 C229 1.385 . S
C226 H207 0.951 . S
C226 C224 1.388 . S
C226 C227 1.366 . S
C227 C226 1.366 . S
C227 C228 1.414 . S
C227 C230 1.499 . S
C228 H208 0.950 . S
C228 C227 1.414 . S
C228 C229 1.374 . S
C229 H209 0.950 . S
C229 C225 1.385 . S
C229 C228 1.374 . S
C230 C227 1.499 . S
C230 C231 1.373 . S
C230 C232 1.389 1_455 S
C231 H210 0.950 . S
C231 C230 1.373 . S
C231 C247 1.377 1_455 S
C232 C230 1.389 1_655 S
C232 C233 1.524 1_655 S
C232 C246 1.377 . S
C233 C232 1.524 1_455 S
C233 C234 1.397 . S
C233 C238 1.363 1_455 S
C234 H211 0.950 . S
C234 C233 1.397 . S
C234 C235 1.334 . S
C235 H212 0.950 . S
C235 C234 1.334 . S
C235 C236 1.287 . S
C236 C235 1.287 . S
C236 C237 1.524 1_455 S
C236 H255 0.913 . S
C237 H213 0.950 . S
C237 C236 1.524 1_655 S
C237 C238 1.415 . S
C238 H214 0.950 . S
C238 C233 1.363 1_655 S
C238 C237 1.415 . S
C239 H215 0.951 . S
C239 C240 1.366 . S
C239 C241 1.388 . S
C240 C239 1.366 . S
C240 C244 1.385 . S
C241 H216 0.951 . S
C241 C239 1.388 . S
C241 C242 1.366 . S
C242 C241 1.366 . S
C242 C243 1.414 . S
C242 C245 1.499 . S
C243 H217 0.950 . S
C243 C242 1.414 . S
C243 C244 1.374 . S
C244 H218 0.950 . S
C244 C240 1.385 . S
C244 C243 1.374 . S
C245 C242 1.499 . S
C245 C246 1.373 . S
C245 C247 1.389 . S
C246 H219 0.950 . S
C246 C232 1.377 . S
C246 C245 1.373 . S
C247 C231 1.377 1_655 S
C247 C245 1.389 . S
C247 C248 1.524 . S
C248 C247 1.524 . S
C248 C249 1.397 . S
C248 C253 1.363 1_655 S
C249 H220 0.950 . S
C249 C248 1.397 . S
C249 C250 1.334 . S
C250 H221 0.950 . S
C250 C249 1.334 . S
C250 C251 1.287 . S
C251 C250 1.287 . S
C251 C252 1.524 1_655 S
C251 H254 0.999 . S
C252 H222 0.950 . S
C252 C251 1.524 1_455 S
C252 C253 1.415 . S
C253 H223 0.950 . S
C253 C248 1.363 1_455 S
C253 C252 1.415 . S
H254 C251 0.999 . S
H255 C236 0.913 . S
H256 C274 0.951 . S
H257 C276 0.951 1_554 S
H258 C278 0.950 . S
H259 C279 0.950 . S
H260 C281 0.950 . S
H261 C284 0.950 1_556 S
H262 C285 0.974 . S
H263 C287 0.950 . S
H264 C288 0.950 . S
H265 C289 0.951 . S
H266 C291 0.951 1_556 S
H267 C293 0.950 . S
H268 C294 0.950 . S
H269 C296 0.950 . S
H270 C299 0.950 1_554 S
H271 C300 0.974 . S
H272 C302 0.950 . S
H273 C303 0.950 . S
C274 H256 0.951 . S
C274 C275 1.366 . S
C274 C276 1.388 . S
C275 C274 1.366 . S
C275 C279 1.385 . S
C276 H257 0.951 1_556 S
C276 C274 1.388 . S
C276 C277 1.366 . S
C277 C276 1.366 . S
C277 C278 1.414 . S
C277 C280 1.499 . S
C278 H258 0.950 . S
C278 C277 1.414 . S
C278 C279 1.374 . S
C279 H259 0.950 . S
C279 C275 1.385 . S
C279 C278 1.374 . S
C280 C277 1.499 . S
C280 C281 1.373 . S
C280 C282 1.389 1_556 S
C281 H260 0.950 . S
C281 C280 1.373 . S
C281 C297 1.377 1_545 S
C282 C280 1.389 1_554 S
C282 C283 1.524 . S
C282 C296 1.377 1_545 S
C283 C282 1.524 . S
C283 C284 1.397 . S
C283 C288 1.363 . S
C284 H261 0.950 1_554 S
C284 C283 1.397 . S
C284 C285 1.334 . S
C285 H262 0.974 . S
C285 C284 1.334 . S
C285 C286 1.287 . S
C286 C285 1.287 . S
C286 C287 1.524 . S
C286 H305 0.913 . S
C287 H263 0.950 . S
C287 C286 1.524 . S
C287 C288 1.415 . S
C288 H264 0.950 . S
C288 C283 1.363 . S
C288 C287 1.415 . S
C289 H265 0.951 . S
C289 C290 1.366 . S
C289 C291 1.388 . S
C290 C289 1.366 . S
C290 C294 1.385 . S
C291 H266 0.951 1_554 S
C291 C289 1.388 . S
C291 C292 1.366 . S
C292 C291 1.366 . S
C292 C293 1.414 . S
C292 C295 1.499 . S
C293 H267 0.950 . S
C293 C292 1.414 . S
C293 C294 1.374 . S
C294 H268 0.950 . S
C294 C290 1.385 . S
C294 C293 1.374 . S
C295 C292 1.499 . S
C295 C296 1.373 . S
C295 C297 1.389 1_554 S
C296 H269 0.950 . S
C296 C282 1.377 1_565 S
C296 C295 1.373 . S
C297 C281 1.377 1_565 S
C297 C295 1.389 1_556 S
C297 C298 1.524 . S
C298 C297 1.524 . S
C298 C299 1.397 . S
C298 C303 1.363 . S
C299 H270 0.950 1_556 S
C299 C298 1.397 . S
C299 C300 1.334 . S
C300 H271 0.974 . S
C300 C299 1.334 . S
C300 C301 1.287 . S
C301 C300 1.287 . S
C301 C302 1.524 . S
C301 H304 0.999 . S
C302 H272 0.950 . S
C302 C301 1.524 . S
C302 C303 1.415 . S
C303 H273 0.950 . S
C303 C298 1.363 . S
C303 C302 1.415 . S
H304 C301 0.999 . S
H305 C286 0.913 . S
H306 C324 0.951 . S
H307 C326 0.951 . S
H308 C328 0.950 . S
H309 C329 0.950 . S
H310 C331 0.950 . S
H311 C334 0.950 . S
H312 C335 0.950 . S
H313 C337 0.950 . S
H314 C338 0.950 . S
H315 C339 0.951 . S
H316 C341 0.951 . S
H317 C343 0.950 . S
H318 C344 0.950 . S
H319 C346 0.950 . S
H320 C349 0.950 . S
H321 C350 0.950 . S
H322 C352 0.950 . S
H323 C353 0.950 . S
C324 H306 0.951 . S
C324 C325 1.366 . S
C324 C326 1.388 . S
C325 C324 1.366 . S
C325 C329 1.385 . S
C326 H307 0.951 . S
C326 C324 1.388 . S
C326 C327 1.366 . S
C327 C326 1.366 . S
C327 C328 1.414 . S
C327 C330 1.499 . S
C328 H308 0.950 . S
C328 C327 1.414 . S
C328 C329 1.374 . S
C329 H309 0.950 . S
C329 C325 1.385 . S
C329 C328 1.374 . S
C330 C327 1.499 . S
C330 C331 1.373 . S
C330 C332 1.389 . S
C331 H310 0.950 . S
C331 C330 1.373 . S
C331 C347 1.377 . S
C332 C330 1.389 . S
C332 C333 1.524 . S
C332 C346 1.377 . S
C333 C332 1.524 . S
C333 C334 1.397 . S
C333 C338 1.363 . S
C334 H311 0.950 . S
C334 C333 1.397 . S
C334 C335 1.334 . S
C335 H312 0.950 . S
C335 C334 1.334 . S
C335 C336 1.287 . S
C336 C335 1.287 . S
C336 C337 1.524 . S
C336 H355 0.913 . S
C337 H313 0.950 . S
C337 C336 1.524 . S
C337 C338 1.415 . S
C338 H314 0.950 . S
C338 C333 1.363 . S
C338 C337 1.415 . S
C339 H315 0.951 . S
C339 C340 1.366 . S
C339 C341 1.388 . S
C340 C339 1.366 . S
C340 C344 1.385 . S
C341 H316 0.951 . S
C341 C339 1.388 . S
C341 C342 1.366 . S
C342 C341 1.366 . S
C342 C343 1.414 . S
C342 C345 1.499 . S
C343 H317 0.950 . S
C343 C342 1.414 . S
C343 C344 1.374 . S
C344 H318 0.950 . S
C344 C340 1.385 . S
C344 C343 1.374 . S
C345 C342 1.499 . S
C345 C346 1.373 . S
C345 C347 1.389 . S
C346 H319 0.950 . S
C346 C332 1.377 . S
C346 C345 1.373 . S
C347 C331 1.377 . S
C347 C345 1.389 . S
C347 C348 1.524 . S
C348 C347 1.524 . S
C348 C349 1.397 . S
C348 C353 1.363 . S
C349 H320 0.950 . S
C349 C348 1.397 . S
C349 C350 1.334 . S
C350 H321 0.950 . S
C350 C349 1.334 . S
C350 C351 1.287 . S
C351 C350 1.287 . S
C351 C352 1.524 . S
C351 H354 0.999 . S
C352 H322 0.950 . S
C352 C351 1.524 . S
C352 C353 1.415 . S
C353 H323 0.950 . S
C353 C348 1.363 . S
C353 C352 1.415 . S
H354 C351 0.999 . S
H355 C336 0.913 . S
H356 C374 0.951 . S
H357 C376 0.951 . S
H358 C378 0.950 . S
H359 C379 0.950 . S
H360 C381 0.950 . S
H361 C384 0.950 . S
H362 C385 0.950 . S
H363 C387 0.950 . S
H364 C388 0.950 . S
H365 C389 0.951 . S
H366 C391 0.951 . S
H367 C393 0.950 . S
H368 C394 0.950 . S
H369 C396 0.950 . S
H370 C399 0.950 . S
H371 C400 0.950 . S
H372 C402 0.950 . S
H373 C403 0.950 . S
C374 H356 0.951 . S
C374 C375 1.366 . S
C374 C376 1.388 . S
C375 C374 1.366 . S
C375 C379 1.385 . S
C376 H357 0.951 . S
C376 C374 1.388 . S
C376 C377 1.366 . S
C377 C376 1.366 . S
C377 C378 1.414 . S
C377 C380 1.499 . S
C378 H358 0.950 . S
C378 C377 1.414 . S
C378 C379 1.374 . S
C379 H359 0.950 . S
C379 C375 1.385 . S
C379 C378 1.374 . S
C380 C377 1.499 . S
C380 C381 1.373 . S
C380 C382 1.389 1_554 S
C381 H360 0.950 . S
C381 C380 1.373 . S
C381 C397 1.377 1_455 S
C382 C380 1.389 1_556 S
C382 C383 1.524 . S
C382 C396 1.377 1_455 S
C383 C382 1.524 . S
C383 C384 1.397 . S
C383 C388 1.363 . S
C384 H361 0.950 . S
C384 C383 1.397 . S
C384 C385 1.334 . S
C385 H362 0.950 . S
C385 C384 1.334 . S
C385 C386 1.287 . S
C386 C385 1.287 . S
C386 C387 1.524 . S
C386 H405 0.913 . S
C387 H363 0.950 . S
C387 C386 1.524 . S
C387 C388 1.415 . S
C388 H364 0.950 . S
C388 C383 1.363 . S
C388 C387 1.415 . S
C389 H365 0.951 . S
C389 C390 1.366 . S
C389 C391 1.388 . S
C390 C389 1.366 . S
C390 C394 1.385 . S
C391 H366 0.951 . S
C391 C389 1.388 . S
C391 C392 1.366 . S
C392 C391 1.366 . S
C392 C393 1.414 . S
C392 C395 1.499 1_556 S
C393 H367 0.950 . S
C393 C392 1.414 . S
C393 C394 1.374 . S
C394 H368 0.950 . S
C394 C390 1.385 . S
C394 C393 1.374 . S
C395 C392 1.499 1_554 S
C395 C396 1.373 1_554 S
C395 C397 1.389 . S
C396 H369 0.950 . S
C396 C382 1.377 1_655 S
C396 C395 1.373 1_556 S
C397 C381 1.377 1_655 S
C397 C395 1.389 . S
C397 C398 1.524 . S
C398 C397 1.524 . S
C398 C399 1.397 . S
C398 C403 1.363 . S
C399 H370 0.950 . S
C399 C398 1.397 . S
C399 C400 1.334 . S
C400 H371 0.950 . S
C400 C399 1.334 . S
C400 C401 1.287 . S
C401 C400 1.287 . S
C401 C402 1.524 . S
C401 H404 0.999 . S
C402 H372 0.950 . S
C402 C401 1.524 . S
C402 C403 1.415 . S
C403 H373 0.950 . S
C403 C398 1.363 . S
C403 C402 1.415 . S
H404 C401 0.999 . S
H405 C386 0.913 . S
H406 C424 0.951 . S
H407 C426 0.951 . S
H408 C428 0.950 . S
H409 C429 0.950 . S
H410 C431 0.950 . S
H411 C434 0.950 . S
H412 C435 0.950 . S
H413 C437 0.950 . S
H414 C438 0.950 . S
H415 C439 0.951 . S
H416 C441 0.951 . S
H417 C443 0.950 . S
H418 C444 0.950 . S
H419 C446 0.950 . S
H420 C449 0.950 . S
H421 C450 0.950 . S
H422 C452 0.950 . S
H423 C453 0.950 . S
C424 H406 0.951 . S
C424 C425 1.366 . S
C424 C426 1.388 . S
C425 C424 1.366 . S
C425 C429 1.385 . S
C426 H407 0.951 . S
C426 C424 1.388 . S
C426 C427 1.366 . S
C427 C426 1.366 . S
C427 C428 1.414 . S
C427 C430 1.499 . S
C428 H408 0.950 . S
C428 C427 1.414 . S
C428 C429 1.374 . S
C429 H409 0.950 . S
C429 C425 1.385 . S
C429 C428 1.374 . S
C430 C427 1.499 . S
C430 C431 1.373 . S
C430 C432 1.389 . S
C431 H410 0.950 . S
C431 C430 1.373 . S
C431 C447 1.377 1_545 S
C432 C430 1.389 . S
C432 C433 1.524 . S
C432 C446 1.377 1_545 S
C433 C432 1.524 . S
C433 C434 1.397 . S
C433 C438 1.363 1_545 S
C434 H411 0.950 . S
C434 C433 1.397 . S
C434 C435 1.334 . S
C435 H412 0.950 . S
C435 C434 1.334 . S
C435 C436 1.287 . S
C436 C435 1.287 . S
C436 C437 1.524 1_545 S
C436 H455 0.913 . S
C437 H413 0.950 . S
C437 C436 1.524 1_565 S
C437 C438 1.415 . S
C438 H414 0.950 . S
C438 C433 1.363 1_565 S
C438 C437 1.415 . S
C439 H415 0.951 . S
C439 C440 1.366 . S
C439 C441 1.388 . S
C440 C439 1.366 . S
C440 C444 1.385 . S
C441 H416 0.951 . S
C441 C439 1.388 . S
C441 C442 1.366 . S
C442 C441 1.366 . S
C442 C443 1.414 . S
C442 C445 1.499 . S
C443 H417 0.950 . S
C443 C442 1.414 . S
C443 C444 1.374 . S
C444 H418 0.950 . S
C444 C440 1.385 . S
C444 C443 1.374 . S
C445 C442 1.499 . S
C445 C446 1.373 . S
C445 C447 1.389 . S
C446 H419 0.950 . S
C446 C432 1.377 1_565 S
C446 C445 1.373 . S
C447 C431 1.377 1_565 S
C447 C445 1.389 . S
C447 C448 1.524 . S
C448 C447 1.524 . S
C448 C449 1.397 . S
C448 C453 1.363 1_565 S
C449 H420 0.950 . S
C449 C448 1.397 . S
C449 C450 1.334 . S
C450 H421 0.950 . S
C450 C449 1.334 . S
C450 C451 1.287 . S
C451 C450 1.287 . S
C451 C452 1.524 1_565 S
C451 H454 0.999 . S
C452 H422 0.950 . S
C452 C451 1.524 1_545 S
C452 C453 1.415 . S
C453 H423 0.950 . S
C453 C448 1.363 1_545 S
C453 C452 1.415 . S
H454 C451 0.999 . S
H455 C436 0.913 . S
C75 C8 1.570 . S
C90 C36 1.568 . S
C125 C22 1.568 . S
C140 C50 1.569 . S
C175 C9 1.537 . S
C190 C49 1.496 . S
C225 C31 1.573 . S
C240 C23 1.568 . S
C275 C45 1.597 . S
C290 C3 1.597 . S
C325 C17 1.573 . S
C340 C37 1.568 . S
C375 C7 1.496 . S
C390 C51 1.537 . S
C425 C21 1.460 . S
C440 C35 1.460 . S
