# Generated by pormake.
# Topology snk, (6)-cn, num edge types: 1
# Building blocks:
#     Node 0, Type 0, BuildingBlock: PAMTUU_clean_sbu_0, # of connection points: 6
#     Node 1, Type 0, BuildingBlock: PAMTUU_clean_sbu_0, # of connection points: 6
#     Node 2, Type 0, BuildingBlock: PAMTUU_clean_sbu_0, # of connection points: 6
#     Node 3, Type 0, BuildingBlock: PAMTUU_clean_sbu_0, # of connection points: 6
#     Node 4, Type 0, BuildingBlock: PAMTUU_clean_sbu_0, # of connection points: 6
#     Node 5, Type 0, BuildingBlock: PAMTUU_clean_sbu_0, # of connection points: 6
#     Node 6, Type 0, BuildingBlock: PAMTUU_clean_sbu_0, # of connection points: 6
#     Node 7, Type 0, BuildingBlock: PAMTUU_clean_sbu_0, # of connection points: 6
#     Edge 8, Type (0, 0), BuildingBlock: AJUNOK_clean_linker_0, # of connection points: 2
#     Edge 9, Type (0, 0), BuildingBlock: AJUNOK_clean_linker_0, # of connection points: 2
#     Edge 10, Type (0, 0), BuildingBlock: AJUNOK_clean_linker_0, # of connection points: 2
#     Edge 11, Type (0, 0), BuildingBlock: AJUNOK_clean_linker_0, # of connection points: 2
#     Edge 12, Type (0, 0), BuildingBlock: AJUNOK_clean_linker_0, # of connection points: 2
#     Edge 13, Type (0, 0), BuildingBlock: AJUNOK_clean_linker_0, # of connection points: 2
#     Edge 14, Type (0, 0), BuildingBlock: AJUNOK_clean_linker_0, # of connection points: 2
#     Edge 15, Type (0, 0), BuildingBlock: AJUNOK_clean_linker_0, # of connection points: 2
#     Edge 16, Type (0, 0), BuildingBlock: AJUNOK_clean_linker_0, # of connection points: 2
#     Edge 17, Type (0, 0), BuildingBlock: AJUNOK_clean_linker_0, # of connection points: 2
#     Edge 18, Type (0, 0), BuildingBlock: AJUNOK_clean_linker_0, # of connection points: 2
#     Edge 19, Type (0, 0), BuildingBlock: AJUNOK_clean_linker_0, # of connection points: 2
#     Edge 20, Type (0, 0), BuildingBlock: AJUNOK_clean_linker_0, # of connection points: 2
#     Edge 21, Type (0, 0), BuildingBlock: AJUNOK_clean_linker_0, # of connection points: 2
#     Edge 22, Type (0, 0), BuildingBlock: AJUNOK_clean_linker_0, # of connection points: 2
#     Edge 23, Type (0, 0), BuildingBlock: AJUNOK_clean_linker_0, # of connection points: 2
#     Edge 24, Type (0, 0), BuildingBlock: AJUNOK_clean_linker_0, # of connection points: 2
#     Edge 25, Type (0, 0), BuildingBlock: AJUNOK_clean_linker_0, # of connection points: 2
#     Edge 26, Type (0, 0), BuildingBlock: AJUNOK_clean_linker_0, # of connection points: 2
#     Edge 27, Type (0, 0), BuildingBlock: AJUNOK_clean_linker_0, # of connection points: 2
#     Edge 28, Type (0, 0), BuildingBlock: AJUNOK_clean_linker_0, # of connection points: 2
#     Edge 29, Type (0, 0), BuildingBlock: AJUNOK_clean_linker_0, # of connection points: 2
#     Edge 30, Type (0, 0), BuildingBlock: AJUNOK_clean_linker_0, # of connection points: 2
#     Edge 31, Type (0, 0), BuildingBlock: AJUNOK_clean_linker_0, # of connection points: 2
# Relax obj value: 0.115
# Max RMSD: 0.154
# Mean RMSD: 0.154
data_MOF--net-snk--node1-PAMTUU_clean_sbu_0--edge1-AJUNOK_clean_linker_0
_symmetry_space_group_name_H-M    P1
_symmetry_Int_Tables_number       1
_symmetry_cell_setting            triclinic
loop_
_symmetry_equiv_pos_as_xyz
'x, y, z'
_cell_length_a     27.391502
_cell_length_b     27.567427
_cell_length_c     20.880783
_cell_angle_alpha  89.959505
_cell_angle_beta   90.035099
_cell_angle_gamma 90.10223
loop_
_atom_site_label
_atom_site_type_symbol
_atom_site_fract_x
_atom_site_fract_y
_atom_site_fract_z
_atom_type_partial_charge
Tb0 Tb -0.00659 0.02464 0.60908 0.0
Tb1 Tb 0.9845 0.95553 0.47726 0.0
C2 C 0.92704 0.05303 0.49467 0.0
C3 C -0.00278 0.05264 0.78067 0.0
C4 C 0.99153 0.01929 0.90852 0.0
C5 C -0.00348 0.06912 0.89506 0.0
C6 C -0.00053 0.08562 0.83164 0.0
C7 C 0.99151 0.003 0.79387 0.0
C8 C 0.9886 0.98647 0.85711 0.0
C9 C 0.00158 0.06959 0.71389 0.0
O10 O 0.92814 0.98062 0.61872 0.0
O11 O 0.94435 0.91668 0.55008 0.0
O12 O 0.04493 0.92803 0.53483 0.0
O13 O 0.0188 0.95337 0.6336 0.0
O14 O 0.94223 0.92015 0.40708 0.0
O15 O 0.02081 0.91984 0.40245 0.0
O16 O 0.02109 0.02175 0.451 0.0
O17 O 0.05579 0.04014 0.54784 0.0
O18 O 0.95817 0.06929 0.53742 0.0
O19 O 0.92487 0.00719 0.47778 0.0
C20 C 0.92038 0.93626 0.59802 0.0
O21 O 0.03845 0.05189 0.68208 0.0
O22 O 0.96153 0.06856 0.68002 0.0
C23 C 0.04516 0.92492 0.59763 0.0
C24 C 0.9786 0.92515 0.30476 0.0
C25 C 0.98094 0.95402 0.17484 0.0
C26 C 0.97631 0.90472 0.1915 0.0
C27 C 0.97528 0.89044 0.25592 0.0
C28 C 0.98205 0.97446 0.28845 0.0
C29 C 0.98315 0.98876 0.22412 0.0
C30 C 0.98034 0.90977 0.37235 0.0
C31 C 0.05427 0.04403 0.48515 0.0
H32 H -0.00108 0.09524 0.93366 0.0
H33 H 0.00387 0.12406 0.82243 0.0
H34 H 0.98952 0.97698 0.75517 0.0
H35 H 0.98371 0.94802 0.86575 0.0
H36 H 0.97341 0.87718 0.15473 0.0
H37 H 0.97232 0.85224 0.26759 0.0
H38 H 0.98459 0.00184 0.3255 0.0
H39 H 0.98677 0.02697 0.2129 0.0
Tb40 Tb 0.2067 0.73963 0.85628 0.0
Tb41 Tb 0.27676 0.74401 0.72501 0.0
C42 C 0.18803 0.67412 0.73536 0.0
C43 C 0.17458 0.74112 1.02816 0.0
C44 C 0.20337 0.74601 0.15823 0.0
C45 C 0.15359 0.74406 0.14131 0.0
C46 C 0.13938 0.74148 0.07686 0.0
C47 C 0.22416 0.74431 0.0447 0.0
C48 C 0.23843 0.74679 0.10901 0.0
C49 C 0.15977 0.73597 0.9605 0.0
O50 O 0.27748 0.71306 0.88329 0.0
O51 O 0.30438 0.68556 0.78577 0.0
O52 O 0.31627 0.78455 0.79707 0.0
O53 O 0.25112 0.80499 0.86142 0.0
O54 O 0.31089 0.70626 0.6501 0.0
O55 O 0.31401 0.78432 0.65466 0.0
O56 O 0.22351 0.80205 0.71952 0.0
O57 O 0.16178 0.77132 0.78221 0.0
O58 O 0.19023 0.67567 0.7983 0.0
O59 O 0.21103 0.70577 0.69979 0.0
C60 C 0.30634 0.68592 0.8488 0.0
O61 O 0.16323 0.77486 0.92514 0.0
O62 O 0.17711 0.69803 0.93105 0.0
C63 C 0.29679 0.8104 0.84335 0.0
C64 C 0.30412 0.74862 0.55273 0.0
C65 C 0.26982 0.74926 0.42489 0.0
C66 C 0.32022 0.74877 0.43813 0.0
C67 C 0.3372 0.74826 0.50152 0.0
C68 C 0.25382 0.75013 0.53977 0.0
C69 C 0.23683 0.75048 0.4765 0.0
C70 C 0.32184 0.74605 0.61944 0.0
C71 C 0.17738 0.80018 0.73654 0.0
H72 H 0.1256 0.74462 0.17789 0.0
H73 H 0.10091 0.73938 0.06508 0.0
H74 H 0.25185 0.74431 1.00777 0.0
H75 H 0.277 0.74834 0.12028 0.0
H76 H 0.3465 0.74778 0.39941 0.0
H77 H 0.37613 0.74708 0.51052 0.0
H78 H 0.22765 0.75072 0.57865 0.0
H79 H 0.19785 0.75187 0.46795 0.0
Tb80 Tb 0.49508 0.9622 0.09737 0.0
Tb81 Tb 0.49511 0.03187 0.96609 0.0
C82 C 0.55395 0.9332 0.97622 0.0
C83 C 0.49974 0.9364 0.2705 0.0
C84 C 0.50524 0.97041 0.39813 0.0
C85 C 0.49929 0.92063 0.38508 0.0
C86 C 0.4966 0.90381 0.32186 0.0
C87 C 0.50611 0.98606 0.28313 0.0
C88 C 0.50872 0.00293 0.34633 0.0
C89 C 0.49454 0.91883 0.2041 0.0
O90 O 0.5616 0.00485 0.09414 0.0
O91 O 0.53365 0.07162 1.04009 0.0
O92 O 0.43372 0.05375 1.02582 0.0
O93 O 0.46643 0.03223 0.12263 0.0
O94 O 0.53461 0.07167 0.8973 0.0
O95 O 0.45613 0.06646 0.89255 0.0
O96 O 0.45792 0.96576 0.94085 0.0
O97 O 0.43163 0.94116 1.04033 0.0
O98 O 0.52765 0.91725 1.02447 0.0
O99 O 0.55322 0.97864 0.95681 0.0
C100 C 0.56368 0.0513 0.08103 0.0
O101 O 0.45527 0.9331 0.1743 0.0
O102 O 0.53308 0.92277 0.16783 0.0
C103 C 0.43487 0.05664 0.08862 0.0
C104 C 0.49892 0.06485 0.79484 0.0
C105 C 0.50379 0.0363 0.6648 0.0
C106 C 0.50931 0.08538 0.68227 0.0
C107 C 0.50712 0.09944 0.74676 0.0
C108 C 0.49319 0.01596 0.77767 0.0
C109 C 0.49569 0.00183 0.71343 0.0
C110 C 0.4958 0.07963 0.86263 0.0
C111 C 0.42874 0.9402 0.97738 0.0
H112 H 0.49667 0.89465 0.42388 0.0
H113 H 0.49159 0.86539 0.31311 0.0
H114 H 0.50836 0.01188 0.24409 0.0
H115 H 0.5123 0.04155 0.35462 0.0
H116 H 0.5144 0.11306 0.64608 0.0
H117 H 0.51137 0.1374 0.75902 0.0
H118 H 0.48664 0.98868 0.81402 0.0
H119 H 0.49152 0.96375 0.70185 0.0
Tb120 Tb 0.27878 0.23678 0.35776 0.0
Tb121 Tb 0.20614 0.2369 0.22773 0.0
C122 C 0.30135 0.2988 0.23506 0.0
C123 C 0.30948 0.2336 0.53034 0.0
C124 C 0.27948 0.2316 0.66037 0.0
C125 C 0.32938 0.23016 0.64398 0.0
C126 C 0.34418 0.23141 0.57966 0.0
C127 C 0.25968 0.23368 0.54631 0.0
C128 C 0.24483 0.23277 0.61053 0.0
C129 C 0.32521 0.23718 0.46268 0.0
O130 O 0.2104 0.26885 0.38486 0.0
O131 O 0.18385 0.29779 0.28784 0.0
O132 O 0.16519 0.19968 0.30155 0.0
O133 O 0.23099 0.17401 0.36129 0.0
O134 O 0.17375 0.27668 0.15312 0.0
O135 O 0.16613 0.19898 0.15754 0.0
O136 O 0.25491 0.175 0.22308 0.0
O137 O 0.32029 0.20126 0.28306 0.0
O138 O 0.30057 0.2983 0.29812 0.0
O139 O 0.27431 0.26961 0.20083 0.0
C140 C 0.1843 0.29902 0.35091 0.0
O141 O 0.3189 0.19855 0.42754 0.0
O142 O 0.31141 0.27624 0.43247 0.0
C143 C 0.18444 0.17214 0.34636 0.0
C144 C 0.17771 0.23438 0.05536 0.0
C145 C 0.21184 0.23216 0.92721 0.0
C146 C 0.16158 0.236 0.9406 0.0
C147 C 0.14471 0.23722 1.00409 0.0
C148 C 0.22774 0.22976 1.04218 0.0
C149 C 0.24461 0.22839 0.97888 0.0
C150 C 0.1604 0.2377 0.12235 0.0
C151 C 0.30162 0.17417 0.2373 0.0
H152 H 0.35707 0.22786 0.68088 0.0
H153 H 0.38279 0.23094 0.56845 0.0
H154 H 0.23222 0.23499 0.50904 0.0
H155 H 0.20616 0.23391 0.62118 0.0
H156 H 0.13538 0.23901 0.90194 0.0
H157 H 0.10596 0.24092 1.01313 0.0
H158 H 0.25379 0.22738 0.081 0.0
H159 H 0.28336 0.22412 0.97038 0.0
Tb160 Tb 0.69921 0.23661 0.36542 0.0
Tb161 Tb 0.76994 0.2391 0.23476 0.0
C162 C 0.68081 0.16939 0.24927 0.0
C163 C 0.66769 0.22949 0.53724 0.0
C164 C 0.69727 0.22476 0.66701 0.0
C165 C 0.64739 0.22478 0.65057 0.0
C166 C 0.63278 0.22708 0.58624 0.0
C167 C 0.71746 0.22907 0.55332 0.0
C168 C 0.7321 0.22685 0.61753 0.0
C169 C 0.65225 0.23364 0.46969 0.0
O170 O 0.75193 0.17794 0.37034 0.0
O171 O 0.81506 0.2085 0.30952 0.0
O172 O 0.78884 0.30269 0.2917 0.0
O173 O 0.76514 0.27492 0.39076 0.0
O174 O 0.81134 0.20205 0.16541 0.0
O175 O 0.7988 0.27901 0.15786 0.0
O176 O 0.69922 0.26632 0.20836 0.0
O177 O 0.67354 0.29605 0.30527 0.0
O178 O 0.65976 0.19805 0.29114 0.0
O179 O 0.72753 0.17256 0.2362 0.0
C180 C 0.79837 0.17977 0.35469 0.0
O181 O 0.66489 0.2737 0.44079 0.0
O182 O 0.66033 0.19581 0.43375 0.0
C183 C 0.79012 0.30489 0.35464 0.0
C184 C 0.79702 0.23412 0.06209 0.0
C185 C 0.7634 0.22672 0.93411 0.0
C186 C 0.8136 0.23139 0.9477 0.0
C187 C 0.8302 0.23509 1.01105 0.0
C188 C 0.74697 0.22892 0.04896 0.0
C189 C 0.7303 0.22551 0.98565 0.0
C190 C 0.81435 0.24022 0.12863 0.0
C191 C 0.67144 0.2949 0.24237 0.0
H192 H 0.61964 0.2241 0.68748 0.0
H193 H 0.59419 0.22756 0.57481 0.0
H194 H 0.74502 0.23083 0.51618 0.0
H195 H 0.77075 0.22667 0.62852 0.0
H196 H 0.8401 0.23222 0.90924 0.0
H197 H 0.86894 0.23911 1.02013 0.0
H198 H 0.72071 0.22817 0.08769 0.0
H199 H 0.69138 0.22307 0.9771 0.0
Tb200 Tb 0.7805 0.74053 0.86152 0.0
Tb201 Tb 0.71029 0.73553 0.72961 0.0
C202 C 0.79661 0.80952 0.74471 0.0
C203 C 0.81303 0.74388 1.03275 0.0
C204 C 0.78311 0.74563 0.16226 0.0
C205 C 0.83147 0.73366 0.14586 0.0
C206 C 0.84629 0.73289 0.08166 0.0
C207 C 0.76471 0.75567 0.04876 0.0
C208 C 0.7499 0.75658 0.11289 0.0
C209 C 0.82816 0.7409 0.96515 0.0
O210 O 0.72541 0.79652 0.87097 0.0
O211 O 0.66521 0.772 0.79942 0.0
O212 O 0.69278 0.67321 0.78965 0.0
O213 O 0.71368 0.7047 0.88747 0.0
O214 O 0.66849 0.7684 0.65677 0.0
O215 O 0.68251 0.69147 0.65619 0.0
O216 O 0.78275 0.71268 0.70457 0.0
O217 O 0.80577 0.68113 0.8012 0.0
O218 O 0.81773 0.78383 0.78993 0.0
O219 O 0.7512 0.80264 0.72685 0.0
C220 C 0.68083 0.79853 0.84761 0.0
O221 O 0.81483 0.70152 0.93528 0.0
O222 O 0.82048 0.77952 0.93039 0.0
C223 C 0.68991 0.67326 0.85247 0.0
C224 C 0.68391 0.73182 0.55648 0.0
C225 C 0.71713 0.73901 0.42852 0.0
C226 C 0.66845 0.75014 0.44426 0.0
C227 C 0.65206 0.74671 0.50771 0.0
C228 C 0.73246 0.72045 0.54084 0.0
C229 C 0.74886 0.72388 0.47754 0.0
C230 C 0.66658 0.72849 0.62339 0.0
C231 C 0.80997 0.68371 0.73865 0.0
H232 H 0.85763 0.7239 0.18256 0.0
H233 H 0.88355 0.72308 0.07016 0.0
H234 H 0.73836 0.7638 1.01158 0.0
H235 H 0.71245 0.76596 0.1239 0.0
H236 H 0.64317 0.76192 0.40752 0.0
H237 H 0.6145 0.75571 0.5187 0.0
H238 H 0.75774 0.70878 0.57757 0.0
H239 H 0.78627 0.71415 0.46684 0.0
Tb240 Tb 0.49338 0.52504 0.10833 0.0
Tb241 Tb 0.48927 0.45517 0.97665 0.0
C242 C 0.4331 0.55323 0.98555 0.0
C243 C 0.5 0.55383 0.28013 0.0
C244 C 0.50368 0.52128 0.40863 0.0
C245 C 0.50187 0.57119 0.39431 0.0
C246 C 0.5001 0.58729 0.33065 0.0
C247 C 0.50197 0.50402 0.29407 0.0
C248 C 0.50367 0.48789 0.35765 0.0
C249 C 0.49643 0.5707 0.21319 0.0
O250 O 0.4547 0.46004 0.13455 0.0
O251 O 0.42664 0.43594 1.03571 0.0
O252 O 0.52149 0.41055 0.05062 0.0
O253 O 0.55171 0.47208 0.11375 0.0
O254 O 0.44768 0.42585 0.90154 0.0
O255 O 0.52518 0.41295 0.90718 0.0
O256 O 0.55532 0.49855 0.97363 0.0
O257 O 0.53297 0.56414 1.03499 0.0
O258 O 0.434 0.55184 0.04855 0.0
O259 O 0.46039 0.52495 0.95037 0.0
C260 C 0.42515 0.43452 0.09868 0.0
O261 O 0.53457 0.56281 0.1773 0.0
O262 O 0.45608 0.55925 0.18362 0.0
C263 C 0.5499 0.42619 0.09694 0.0
C264 C 0.49123 0.42522 0.80446 0.0
C265 C 0.49886 0.4555 0.67532 0.0
C266 C 0.49699 0.40584 0.69104 0.0
C267 C 0.49327 0.39087 0.75506 0.0
C268 C 0.49316 0.47478 0.78904 0.0
C269 C 0.49687 0.48977 0.72516 0.0
C270 C 0.48609 0.40949 0.87172 0.0
C271 C 0.55976 0.54433 0.98988 0.0
H272 H 0.50194 0.59782 0.43244 0.0
H273 H 0.49849 0.62586 0.32088 0.0
H274 H 0.50159 0.47756 0.25573 0.0
H275 H 0.50393 0.44924 0.3669 0.0
H276 H 0.49745 0.37856 0.65375 0.0
H277 H 0.49149 0.35247 0.76594 0.0
H278 H 0.49159 0.50193 0.82645 0.0
H279 H 0.49842 0.52824 0.71472 0.0
Tb280 Tb 0.98872 0.45311 0.608 0.0
Tb281 Tb -0.00517 0.52288 0.47701 0.0
C282 C 0.05162 0.42617 0.48734 0.0
C283 C 0.98229 0.42463 0.78018 0.0
C284 C 0.97996 0.45736 0.90866 0.0
C285 C 0.98458 0.40763 0.89449 0.0
C286 C 0.98572 0.39145 0.83086 0.0
C287 C 0.97746 0.47426 0.79396 0.0
C288 C 0.97647 0.49049 0.85751 0.0
C289 C 0.98566 0.40775 0.71323 0.0
O290 O 0.02577 0.51874 0.63469 0.0
O291 O 0.05757 0.54106 0.53751 0.0
O292 O 0.96131 0.56748 0.54986 0.0
O293 O 0.93007 0.50589 0.61201 0.0
O294 O 0.03743 0.55138 0.40233 0.0
O295 O 0.96017 0.56585 0.40708 0.0
O296 O 0.92914 0.47872 0.47093 0.0
O297 O 0.94987 0.41355 0.53443 0.0
O298 O 0.05016 0.42815 0.55028 0.0
O299 O 0.02293 0.45268 0.45172 0.0
C300 C 0.05833 0.54184 0.60062 0.0
O301 O 0.94752 0.41563 0.67727 0.0
O302 O 0.02599 0.41906 0.68359 0.0
C303 C 0.93195 0.55179 0.59509 0.0
C304 C -0.00568 0.55279 0.30468 0.0
C305 C 0.98628 0.52281 0.17546 0.0
C306 C 0.98616 0.57242 0.1915 0.0
C307 C 0.99013 0.58724 0.25555 0.0
C308 C -0.00582 0.50326 0.28893 0.0
C309 C 0.99035 0.48843 0.225 0.0
C310 C -0.0005 0.56844 0.37201 0.0
C311 C 0.92388 0.43315 0.48825 0.0
H312 H 0.98721 0.38117 0.9327 0.0
H313 H 0.98966 0.35304 0.82124 0.0
H314 H 0.97519 0.50055 0.75548 0.0
H315 H 0.97408 0.52909 0.86653 0.0
H316 H 0.98394 0.59982 0.15441 0.0
H317 H 0.99036 0.62562 0.26666 0.0
H318 H -0.00278 0.47602 0.3261 0.0
H319 H 0.9903 0.44998 0.21429 0.0
C320 C 0.07707 0.09246 0.38923 0.0
C321 C 0.0886 0.0764 0.45147 0.0
C322 C 0.10834 0.12332 0.35558 0.0
C323 C 0.15263 0.13882 0.38252 0.0
H324 H 0.04328 0.0816 0.36628 0.0
H325 H 0.09778 0.13484 0.30794 0.0
S326 S 0.19969 0.10783 0.54442 0.0
N327 N 0.14711 0.07875 0.53911 0.0
N328 N 0.20633 0.13655 0.47559 0.0
C329 C 0.16477 0.12304 0.44472 0.0
C330 C 0.13259 0.09196 0.47933 0.0
C331 C 0.12226 0.87761 0.60527 0.0
C332 C 0.07628 0.88931 0.63028 0.0
C333 C 0.1547 0.84863 0.6401 0.0
C334 C 0.14197 0.82998 0.70073 0.0
H335 H 0.13393 0.8923 0.55963 0.0
H336 H 0.19012 0.84105 0.61934 0.0
S337 S 0.0236 0.84695 0.78431 0.0
N338 N 0.01801 0.8777 0.7169 0.0
N339 N 0.07892 0.82332 0.78251 0.0
C340 C 0.09522 0.83999 0.72504 0.0
C341 C 0.06239 0.86968 0.68975 0.0
C342 C 0.37041 0.86311 0.84858 0.0
C343 C 0.32823 0.84494 0.87833 0.0
C344 C 0.4023 0.894 0.88117 0.0
C345 C 0.39368 0.90753 0.9452 0.0
H346 H 0.37899 0.85345 0.79958 0.0
H347 H 0.4344 0.90679 0.85594 0.0
S348 S 0.28846 0.86952 0.04527 0.0
N349 N 0.27926 0.84263 0.97566 0.0
N350 N 0.33973 0.90053 1.03725 0.0
C351 C 0.35164 0.88963 0.97574 0.0
C352 C 0.31872 0.8585 0.94218 0.0
C353 C 0.4145 0.10695 0.18331 0.0
C354 C 0.40077 0.0883 0.12324 0.0
C355 C 0.38212 0.13447 0.21987 0.0
C356 C 0.33449 0.14379 0.19821 0.0
H357 H 0.45069 0.10027 0.2024 0.0
H358 H 0.39452 0.14815 0.26571 0.0
S359 S 0.28069 0.10272 0.0438 0.0
N360 N 0.33684 0.08111 0.04317 0.0
N361 N 0.27521 0.13212 0.11224 0.0
C362 C 0.32027 0.12529 0.13799 0.0
C363 C 0.35365 0.09785 0.1003 0.0
C364 C 0.89108 0.9036 0.70154 0.0
C365 C 0.88681 0.9058 0.63452 0.0
C366 C 0.86165 0.87223 0.73736 0.0
C367 C 0.82614 0.84349 0.70719 0.0
H368 H 0.91826 0.92521 0.72619 0.0
H369 H 0.86655 0.87058 0.78882 0.0
S370 S 0.79981 0.83777 0.53305 0.0
N371 N 0.84478 0.87743 0.53936 0.0
N372 N 0.78783 0.8196 0.60674 0.0
C373 C 0.82085 0.84629 0.64028 0.0
C374 C 0.8517 0.87721 0.60382 0.0
C375 C 0.84735 0.07203 0.44486 0.0
C376 C 0.89465 0.08706 0.4616 0.0
C377 C 0.81641 0.10249 0.41021 0.0
C378 C 0.83226 0.14843 0.3898 0.0
H379 H 0.83407 0.03651 0.45886 0.0
H380 H 0.78005 0.08967 0.39856 0.0
S381 S 0.95308 0.20451 0.42096 0.0
N382 N 0.95609 0.15071 0.45564 0.0
N383 N 0.89795 0.20793 0.38915 0.0
C384 C 0.87956 0.1639 0.40595 0.0
C385 C 0.91078 0.1332 0.44239 0.0
C386 C 0.60445 0.15317 0.18879 0.0
C387 C 0.6508 0.13757 0.20895 0.0
C388 C 0.57723 0.1259 0.14498 0.0
C389 C 0.59514 0.08173 0.12116 0.0
H390 H 0.58959 0.18721 0.20579 0.0
H391 H 0.54146 0.13887 0.13093 0.0
S392 S 0.71392 0.02468 0.16 0.0
N393 N 0.71347 0.07544 0.20195 0.0
N394 N 0.66146 0.02332 0.12099 0.0
C395 C 0.64112 0.06548 0.14148 0.0
C396 C 0.66922 0.09367 0.18506 0.0
C397 C 0.63805 0.82756 0.94445 0.0
C398 C 0.64678 0.83169 0.87847 0.0
C399 C 0.60718 0.86022 0.97569 0.0
C400 C 0.58539 0.89872 0.94208 0.0
H401 H 0.65504 0.7988 0.97192 0.0
H402 H 0.60119 0.85591 1.02667 0.0
S403 S 0.59779 0.92488 0.76843 0.0
N404 N 0.63148 0.87605 0.78017 0.0
N405 N 0.5746 0.93881 0.83906 0.0
C406 C 0.59416 0.90317 0.87595 0.0
C407 C 0.6246 0.86918 0.844 0.0
C408 C 0.6116 0.61809 0.98237 0.0
C409 C 0.59439 0.57511 0.95429 0.0
C410 C 0.64273 0.64919 0.94896 0.0
C411 C 0.6574 0.63886 0.88581 0.0
H412 H 0.60101 0.62789 1.03063 0.0
H413 H 0.65476 0.68201 0.97282 0.0
S414 S 0.62221 0.53089 0.79028 0.0
N415 N 0.59421 0.52349 0.85959 0.0
N416 N 0.65259 0.58247 0.79645 0.0
C417 C 0.64051 0.59597 0.85699 0.0
C418 C 0.60913 0.5639 0.89139 0.0
C419 C 0.62549 0.37224 0.2311 0.0
C420 C 0.63698 0.32605 0.20754 0.0
C421 C 0.59732 0.40438 0.19477 0.0
C422 C 0.57921 0.39116 0.13399 0.0
H423 H 0.63965 0.38424 0.27691 0.0
H424 H 0.58985 0.4399 0.21459 0.0
S425 S 0.59569 0.27219 0.05372 0.0
N426 N 0.62575 0.26718 0.12189 0.0
N427 N 0.5727 0.32749 0.05364 0.0
C428 C 0.58901 0.34428 0.11103 0.0
C429 C 0.61796 0.31175 0.14781 0.0
C430 C 0.8694 0.36099 0.48325 0.0
C431 C 0.8887 0.40239 0.4533 0.0
C432 C 0.83724 0.33021 0.45092 0.0
C433 C 0.82353 0.3392 0.38697 0.0
H434 H 0.87908 0.35226 0.53223 0.0
H435 H 0.82365 0.29864 0.47627 0.0
S436 S 0.86471 0.44243 0.28634 0.0
N437 N 0.89225 0.45083 0.35582 0.0
N438 N 0.83193 0.3925 0.2947 0.0
C439 C 0.84267 0.38042 0.35622 0.0
C440 C 0.87512 0.41218 0.38952 0.0
C441 C 0.85513 0.60592 0.72771 0.0
C442 C 0.84451 0.65239 0.70429 0.0
C443 C 0.88329 0.5736 0.69175 0.0
C444 C 0.90223 0.58687 0.63144 0.0
H445 H 0.84035 0.59384 0.77314 0.0
H446 H 0.89014 0.53791 0.71152 0.0
S447 S 0.88783 0.7064 0.55154 0.0
N448 N 0.85734 0.71155 0.61931 0.0
N449 N 0.9101 0.65079 0.55148 0.0
C450 C 0.89312 0.63396 0.60852 0.0
C451 C 0.86428 0.66673 0.64503 0.0
C452 C 0.34961 0.37561 0.22911 0.0
C453 C 0.33391 0.33235 0.20023 0.0
C454 C 0.37834 0.40892 0.19526 0.0
C455 C 0.3922 0.40022 0.13132 0.0
H456 H 0.33913 0.38414 0.27782 0.0
H457 H 0.38965 0.44186 0.21942 0.0
S458 S 0.36453 0.29018 1.0359 0.0
N459 N 0.33728 0.28095 0.1053 0.0
N460 N 0.39052 0.34403 1.04171 0.0
C461 C 0.37732 0.35684 0.10215 0.0
C462 C 0.34845 0.32273 0.13668 0.0
C463 C 0.3887 0.57984 0.88745 0.0
C464 C 0.40151 0.58829 0.95189 0.0
C465 C 0.35899 0.61224 0.85372 0.0
C466 C 0.34107 0.65433 0.88316 0.0
H467 H 0.40107 0.54748 0.86293 0.0
H468 H 0.34911 0.6036 0.8048 0.0
S469 S 0.36853 0.6961 0.04864 0.0
N470 N 0.39685 0.64352 0.04237 0.0
N471 N 0.34165 0.70494 0.97888 0.0
C472 C 0.35496 0.66408 0.94694 0.0
C473 C 0.38494 0.6309 0.98139 0.0
C474 C 0.14993 0.64146 0.6355 0.0
C475 C 0.15683 0.63795 0.70234 0.0
C476 C 0.11919 0.60946 0.60261 0.0
C477 C 0.09398 0.57262 0.6352 0.0
H478 H 0.16773 0.66977 0.60799 0.0
H479 H 0.11427 0.61451 0.55159 0.0
S480 S 0.10267 0.5447 0.80925 0.0
N481 N 0.13808 0.5926 0.79925 0.0
N482 N 0.08061 0.53208 0.73762 0.0
C483 C 0.10177 0.56754 0.70172 0.0
C484 C 0.13305 0.60026 0.73528 0.0
C485 C 0.11049 0.35193 0.3558 0.0
C486 C 0.15201 0.33273 0.38585 0.0
C487 C 0.07808 0.38166 0.38941 0.0
C488 C 0.08595 0.39335 0.45436 0.0
H489 H 0.10243 0.34332 0.3063 0.0
H490 H 0.04634 0.39524 0.36418 0.0
S491 S 0.19145 0.35535 0.55371 0.0
N492 N 0.20093 0.32982 0.48337 0.0
N493 N 0.13955 0.38519 0.54654 0.0
C494 C 0.12769 0.37495 0.48477 0.0
C495 C 0.16086 0.34486 0.45047 0.0
C496 C 0.9578 0.02412 1.02027 0.0
C497 C 0.98924 0.00169 0.97602 0.0
C498 C 0.95511 0.00831 0.08414 0.0
C499 C 0.98378 0.96943 0.10642 0.0
H500 H 0.93468 0.05388 1.00526 0.0
H501 H 0.93003 0.02645 0.11624 0.0
S502 S 0.07475 0.90074 1.01105 0.0
N503 N 0.05138 0.94003 0.95982 0.0
N504 N 0.04645 0.91045 0.07966 0.0
C505 C 0.01573 0.94696 0.06279 0.0
C506 C 0.01843 0.96304 0.99774 0.0
C507 C 0.27125 0.7803 0.3115 0.0
C508 C 0.2518 0.74821 0.35741 0.0
C509 C 0.25513 0.77965 0.24758 0.0
C510 C 0.21898 0.74678 0.22682 0.0
H511 H 0.29889 0.80646 0.32524 0.0
H512 H 0.27091 0.80536 0.2142 0.0
S513 S 0.15914 0.65254 0.32697 0.0
N514 N 0.19611 0.68107 0.37687 0.0
N515 N 0.16612 0.67957 0.25697 0.0
C516 C 0.19961 0.71415 0.27215 0.0
C517 C 0.21593 0.71492 0.33725 0.0
C518 C 0.46984 0.98783 0.57305 0.0
C519 C 0.50499 0.02082 0.59622 0.0
C520 C 0.47032 0.97186 0.50926 0.0
C521 C 0.50587 0.98826 0.46563 0.0
H522 H 0.44129 0.9745 0.60436 0.0
H523 H 0.44217 0.94683 0.49377 0.0
S524 S 0.60772 0.07285 0.50246 0.0
N525 N 0.57756 0.068 0.57064 0.0
N526 N 0.57819 0.03828 0.45069 0.0
C527 C 0.54133 0.02121 0.48802 0.0
C528 C 0.54095 0.0374 0.55318 0.0
C529 C 0.20788 0.20261 0.81303 0.0
C530 C 0.22998 0.23237 0.85961 0.0
C531 C 0.22426 0.20234 0.74918 0.0
C532 C 0.26336 0.23197 0.72897 0.0
H533 H 0.17798 0.17886 0.8262 0.0
H534 H 0.20637 0.17833 0.71544 0.0
S535 S 0.33118 0.31953 0.83105 0.0
N536 N 0.29155 0.29402 0.88025 0.0
N537 N 0.32197 0.2939 0.7606 0.0
C538 C 0.28539 0.26235 0.77498 0.0
C539 C 0.26882 0.26247 0.84004 0.0
C540 C 0.7648 0.2577 0.82078 0.0
C541 C 0.74579 0.22499 0.86629 0.0
C542 C 0.74893 0.25727 0.75682 0.0
C543 C 0.71324 0.22419 0.73545 0.0
H544 H 0.79178 0.28442 0.83486 0.0
H545 H 0.76434 0.28358 0.72396 0.0
S546 S 0.65386 0.12879 0.83405 0.0
N547 N 0.69069 0.15703 0.88445 0.0
N548 N 0.66073 0.15649 0.76446 0.0
C549 C 0.69408 0.19103 0.78023 0.0
C550 C 0.71035 0.19137 0.84545 0.0
C551 C 0.7071 0.7203 0.31153 0.0
C552 C 0.73439 0.74209 0.36091 0.0
C553 C 0.723 0.7218 0.24764 0.0
C554 C 0.76678 0.74531 0.23042 0.0
H555 H 0.67355 0.70116 0.3225 0.0
H556 H 0.70117 0.70371 0.21154 0.0
S557 S 0.84947 0.81181 0.34075 0.0
N558 N 0.80605 0.79015 0.38762 0.0
N559 N 0.83561 0.79348 0.26768 0.0
C560 C 0.79397 0.76804 0.27917 0.0
C561 C 0.77787 0.76631 0.34427 0.0
C562 C 0.46953 0.50815 0.58487 0.0
C563 C 0.50137 0.4718 0.60719 0.0
C564 C 0.47075 0.524 0.52095 0.0
C565 C 0.50389 0.50423 0.47656 0.0
H566 H 0.44287 0.52402 0.61687 0.0
H567 H 0.44493 0.55147 0.50594 0.0
S568 S 0.59779 0.41095 0.51186 0.0
N569 N 0.5688 0.41831 0.5805 0.0
N570 N 0.57119 0.44811 0.46055 0.0
C571 C 0.53644 0.46835 0.49846 0.0
C572 C 0.53516 0.45216 0.5636 0.0
C573 C 0.01542 0.4566 1.01983 0.0
C574 C 0.98033 0.47454 0.97656 0.0
C575 C 0.01695 0.4723 0.08379 0.0
C576 C 0.98354 0.50673 0.10727 0.0
H577 H 0.04245 0.43063 1.00392 0.0
H578 H 0.04502 0.45782 0.11493 0.0
S579 S 0.88209 0.56243 1.01526 0.0
N580 N 0.90969 0.52689 0.96297 0.0
N581 N 0.9128 0.55655 0.08291 0.0
C582 C 0.94793 0.52463 0.0648 0.0
C583 C 0.94627 0.50854 0.99964 0.0
loop_
_geom_bond_atom_site_label_1
_geom_bond_atom_site_label_2
_geom_bond_distance
_geom_bond_site_symmetry_2
_ccdc_geom_bond_type
Tb0 C9 2.764 1_455 S
Tb0 O10 2.325 1_445 S
Tb0 O13 2.303 1_545 S
Tb0 O17 2.322 . S
Tb0 O18 2.349 1_455 S
Tb0 O21 2.415 . S
Tb0 O22 2.399 1_455 S
Tb1 O11 2.322 . S
Tb1 O12 2.349 1_655 S
Tb1 O14 2.415 . S
Tb1 O15 2.399 1_655 S
Tb1 O16 2.325 1_665 S
Tb1 O19 2.303 1_565 S
Tb1 C30 2.764 1_655 S
C2 O18 1.261 . S
C2 O19 1.257 . S
C3 C6 1.358 . S
C3 C7 1.332 . S
C3 C9 1.504 . S
C4 C5 1.373 . S
C4 C8 1.308 . S
C5 C4 1.373 . S
C5 C6 1.429 . S
C5 H32 0.932 . S
C6 C3 1.358 . S
C6 C5 1.429 . S
C6 H33 0.930 . S
C7 C3 1.332 . S
C7 C8 1.394 . S
C7 H34 0.932 1_645 S
C8 C4 1.308 . S
C8 C7 1.394 . S
C8 H35 0.929 1_545 S
C9 Tb0 2.764 1_655 S
C9 C3 1.504 . S
C9 O21 1.239 1_655 S
C9 O22 1.263 . S
O10 Tb0 2.325 1_665 S
O10 C20 1.236 . S
O11 Tb1 2.322 . S
O11 C20 1.257 . S
O12 Tb1 2.349 1_455 S
O12 C23 1.261 . S
O13 Tb0 2.303 1_565 S
O13 C23 1.257 . S
O14 Tb1 2.415 . S
O14 C30 1.239 1_655 S
O15 Tb1 2.399 1_455 S
O15 C30 1.263 . S
O16 Tb1 2.325 1_445 S
O16 C31 1.236 . S
O17 Tb0 2.322 . S
O17 C31 1.257 . S
O18 Tb0 2.349 1_655 S
O18 C2 1.261 . S
O19 Tb1 2.303 1_545 S
O19 C2 1.257 . S
C20 O10 1.236 . S
C20 O11 1.257 . S
O21 Tb0 2.415 . S
O21 C9 1.239 1_455 S
O22 Tb0 2.399 1_655 S
O22 C9 1.263 . S
C23 O12 1.261 . S
C23 O13 1.257 . S
C24 C27 1.358 . S
C24 C28 1.332 . S
C24 C30 1.504 . S
C25 C26 1.373 . S
C25 C29 1.308 . S
C26 C25 1.373 . S
C26 C27 1.429 . S
C26 H36 0.932 . S
C27 C24 1.358 . S
C27 C26 1.429 . S
C27 H37 0.930 . S
C28 C24 1.332 . S
C28 C29 1.394 . S
C28 H38 0.932 1_465 S
C29 C25 1.308 . S
C29 C28 1.394 . S
C29 H39 0.929 1_565 S
C30 Tb1 2.764 1_455 S
C30 O14 1.239 1_455 S
C30 O15 1.263 . S
C30 C24 1.504 . S
C31 O16 1.236 . S
C31 O17 1.257 . S
H32 C5 0.932 . S
H33 C6 0.930 . S
H34 C7 0.932 1_465 S
H35 C8 0.929 1_565 S
H36 C26 0.932 . S
H37 C27 0.930 . S
H38 C28 0.932 1_645 S
H39 C29 0.929 1_545 S
Tb40 C49 2.764 . S
Tb40 O50 2.325 . S
Tb40 O53 2.303 . S
Tb40 O57 2.322 . S
Tb40 O58 2.349 . S
Tb40 O61 2.415 . S
Tb40 O62 2.399 . S
Tb41 O51 2.322 . S
Tb41 O52 2.349 . S
Tb41 O54 2.415 . S
Tb41 O55 2.399 . S
Tb41 O56 2.325 . S
Tb41 O59 2.303 . S
Tb41 C70 2.764 . S
C42 O58 1.261 . S
C42 O59 1.257 . S
C43 C46 1.358 . S
C43 C47 1.332 . S
C43 C49 1.504 1_554 S
C44 C45 1.373 . S
C44 C48 1.308 . S
C45 C44 1.373 . S
C45 C46 1.429 . S
C45 H72 0.932 . S
C46 C43 1.358 . S
C46 C45 1.429 . S
C46 H73 0.930 . S
C47 C43 1.332 . S
C47 C48 1.394 . S
C47 H74 0.932 . S
C48 C44 1.308 . S
C48 C47 1.394 . S
C48 H75 0.929 . S
C49 Tb40 2.764 . S
C49 C43 1.504 1_556 S
C49 O61 1.239 . S
C49 O62 1.263 . S
O50 Tb40 2.325 . S
O50 C60 1.236 . S
O51 Tb41 2.322 . S
O51 C60 1.257 . S
O52 Tb41 2.349 . S
O52 C63 1.261 . S
O53 Tb40 2.303 . S
O53 C63 1.257 . S
O54 Tb41 2.415 . S
O54 C70 1.239 . S
O55 Tb41 2.399 . S
O55 C70 1.263 . S
O56 Tb41 2.325 . S
O56 C71 1.236 . S
O57 Tb40 2.322 . S
O57 C71 1.257 . S
O58 Tb40 2.349 . S
O58 C42 1.261 . S
O59 Tb41 2.303 . S
O59 C42 1.257 . S
C60 O50 1.236 . S
C60 O51 1.257 . S
O61 Tb40 2.415 . S
O61 C49 1.239 . S
O62 Tb40 2.399 . S
O62 C49 1.263 . S
C63 O52 1.261 . S
C63 O53 1.257 . S
C64 C67 1.358 . S
C64 C68 1.332 . S
C64 C70 1.504 . S
C65 C66 1.373 . S
C65 C69 1.308 . S
C66 C65 1.373 . S
C66 C67 1.429 . S
C66 H76 0.932 . S
C67 C64 1.358 . S
C67 C66 1.429 . S
C67 H77 0.930 . S
C68 C64 1.332 . S
C68 C69 1.394 . S
C68 H78 0.932 . S
C69 C65 1.308 . S
C69 C68 1.394 . S
C69 H79 0.929 . S
C70 Tb41 2.764 . S
C70 O54 1.239 . S
C70 O55 1.263 . S
C70 C64 1.504 . S
C71 O56 1.236 . S
C71 O57 1.257 . S
H72 C45 0.932 . S
H73 C46 0.930 . S
H74 C47 0.932 . S
H75 C48 0.929 . S
H76 C66 0.932 . S
H77 C67 0.930 . S
H78 C68 0.932 . S
H79 C69 0.929 . S
Tb80 C89 2.764 . S
Tb80 O90 2.325 1_565 S
Tb80 O93 2.303 1_565 S
Tb80 O97 2.322 1_554 S
Tb80 O98 2.349 . S
Tb80 O101 2.415 . S
Tb80 O102 2.399 . S
Tb81 O91 2.322 1_556 S
Tb81 O92 2.349 . S
Tb81 O94 2.415 . S
Tb81 O95 2.399 . S
Tb81 O96 2.325 1_545 S
Tb81 O99 2.303 1_545 S
Tb81 C110 2.764 . S
C82 O98 1.261 1_556 S
C82 O99 1.257 . S
C83 C86 1.358 . S
C83 C87 1.332 . S
C83 C89 1.504 . S
C84 C85 1.373 . S
C84 C88 1.308 . S
C85 C84 1.373 . S
C85 C86 1.429 . S
C85 H112 0.932 . S
C86 C83 1.358 . S
C86 C85 1.429 . S
C86 H113 0.930 . S
C87 C83 1.332 . S
C87 C88 1.394 . S
C87 H114 0.932 1_565 S
C88 C84 1.308 . S
C88 C87 1.394 . S
C88 H115 0.929 1_565 S
C89 Tb80 2.764 . S
C89 C83 1.504 . S
C89 O101 1.239 . S
C89 O102 1.263 . S
O90 Tb80 2.325 1_545 S
O90 C100 1.236 . S
O91 Tb81 2.322 1_554 S
O91 C100 1.257 . S
O92 Tb81 2.349 . S
O92 C103 1.261 1_556 S
O93 Tb80 2.303 1_545 S
O93 C103 1.257 . S
O94 Tb81 2.415 . S
O94 C110 1.239 . S
O95 Tb81 2.399 . S
O95 C110 1.263 . S
O96 Tb81 2.325 1_565 S
O96 C111 1.236 . S
O97 Tb80 2.322 1_556 S
O97 C111 1.257 . S
O98 Tb80 2.349 . S
O98 C82 1.261 1_554 S
O99 Tb81 2.303 1_565 S
O99 C82 1.257 . S
C100 O90 1.236 . S
C100 O91 1.257 . S
O101 Tb80 2.415 . S
O101 C89 1.239 . S
O102 Tb80 2.399 . S
O102 C89 1.263 . S
C103 O92 1.261 1_554 S
C103 O93 1.257 . S
C104 C107 1.358 . S
C104 C108 1.332 . S
C104 C110 1.504 . S
C105 C106 1.373 . S
C105 C109 1.308 . S
C106 C105 1.373 . S
C106 C107 1.429 . S
C106 H116 0.932 . S
C107 C104 1.358 . S
C107 C106 1.429 . S
C107 H117 0.930 . S
C108 C104 1.332 . S
C108 C109 1.394 . S
C108 H118 0.932 1_545 S
C109 C105 1.308 . S
C109 C108 1.394 . S
C109 H119 0.929 1_545 S
C110 Tb81 2.764 . S
C110 O94 1.239 . S
C110 O95 1.263 . S
C110 C104 1.504 . S
C111 O96 1.236 . S
C111 O97 1.257 . S
H112 C85 0.932 . S
H113 C86 0.930 . S
H114 C87 0.932 1_545 S
H115 C88 0.929 1_545 S
H116 C106 0.932 . S
H117 C107 0.930 . S
H118 C108 0.932 1_565 S
H119 C109 0.929 1_565 S
Tb120 C129 2.764 . S
Tb120 O130 2.325 . S
Tb120 O133 2.303 . S
Tb120 O137 2.322 . S
Tb120 O138 2.349 . S
Tb120 O141 2.415 . S
Tb120 O142 2.399 . S
Tb121 O131 2.322 . S
Tb121 O132 2.349 . S
Tb121 O134 2.415 . S
Tb121 O135 2.399 . S
Tb121 O136 2.325 . S
Tb121 O139 2.303 . S
Tb121 C150 2.764 . S
C122 O138 1.261 . S
C122 O139 1.257 . S
C123 C126 1.358 . S
C123 C127 1.332 . S
C123 C129 1.504 . S
C124 C125 1.373 . S
C124 C128 1.308 . S
C125 C124 1.373 . S
C125 C126 1.429 . S
C125 H152 0.932 . S
C126 C123 1.358 . S
C126 C125 1.429 . S
C126 H153 0.930 . S
C127 C123 1.332 . S
C127 C128 1.394 . S
C127 H154 0.932 . S
C128 C124 1.308 . S
C128 C127 1.394 . S
C128 H155 0.929 . S
C129 Tb120 2.764 . S
C129 C123 1.504 . S
C129 O141 1.239 . S
C129 O142 1.263 . S
O130 Tb120 2.325 . S
O130 C140 1.236 . S
O131 Tb121 2.322 . S
O131 C140 1.257 . S
O132 Tb121 2.349 . S
O132 C143 1.261 . S
O133 Tb120 2.303 . S
O133 C143 1.257 . S
O134 Tb121 2.415 . S
O134 C150 1.239 . S
O135 Tb121 2.399 . S
O135 C150 1.263 . S
O136 Tb121 2.325 . S
O136 C151 1.236 . S
O137 Tb120 2.322 . S
O137 C151 1.257 . S
O138 Tb120 2.349 . S
O138 C122 1.261 . S
O139 Tb121 2.303 . S
O139 C122 1.257 . S
C140 O130 1.236 . S
C140 O131 1.257 . S
O141 Tb120 2.415 . S
O141 C129 1.239 . S
O142 Tb120 2.399 . S
O142 C129 1.263 . S
C143 O132 1.261 . S
C143 O133 1.257 . S
C144 C147 1.358 . S
C144 C148 1.332 . S
C144 C150 1.504 1_556 S
C145 C146 1.373 . S
C145 C149 1.308 . S
C146 C145 1.373 . S
C146 C147 1.429 . S
C146 H156 0.932 . S
C147 C144 1.358 . S
C147 C146 1.429 . S
C147 H157 0.930 . S
C148 C144 1.332 . S
C148 C149 1.394 . S
C148 H158 0.932 . S
C149 C145 1.308 . S
C149 C148 1.394 . S
C149 H159 0.929 . S
C150 Tb121 2.764 . S
C150 O134 1.239 . S
C150 O135 1.263 . S
C150 C144 1.504 1_554 S
C151 O136 1.236 . S
C151 O137 1.257 . S
H152 C125 0.932 . S
H153 C126 0.930 . S
H154 C127 0.932 . S
H155 C128 0.929 . S
H156 C146 0.932 . S
H157 C147 0.930 . S
H158 C148 0.932 . S
H159 C149 0.929 . S
Tb160 C169 2.764 . S
Tb160 O170 2.325 . S
Tb160 O173 2.303 . S
Tb160 O177 2.322 . S
Tb160 O178 2.349 . S
Tb160 O181 2.415 . S
Tb160 O182 2.399 . S
Tb161 O171 2.322 . S
Tb161 O172 2.349 . S
Tb161 O174 2.415 . S
Tb161 O175 2.399 . S
Tb161 O176 2.325 . S
Tb161 O179 2.303 . S
Tb161 C190 2.764 . S
C162 O178 1.261 . S
C162 O179 1.257 . S
C163 C166 1.358 . S
C163 C167 1.332 . S
C163 C169 1.504 . S
C164 C165 1.373 . S
C164 C168 1.308 . S
C165 C164 1.373 . S
C165 C166 1.429 . S
C165 H192 0.932 . S
C166 C163 1.358 . S
C166 C165 1.429 . S
C166 H193 0.930 . S
C167 C163 1.332 . S
C167 C168 1.394 . S
C167 H194 0.932 . S
C168 C164 1.308 . S
C168 C167 1.394 . S
C168 H195 0.929 . S
C169 Tb160 2.764 . S
C169 C163 1.504 . S
C169 O181 1.239 . S
C169 O182 1.263 . S
O170 Tb160 2.325 . S
O170 C180 1.236 . S
O171 Tb161 2.322 . S
O171 C180 1.257 . S
O172 Tb161 2.349 . S
O172 C183 1.261 . S
O173 Tb160 2.303 . S
O173 C183 1.257 . S
O174 Tb161 2.415 . S
O174 C190 1.239 . S
O175 Tb161 2.399 . S
O175 C190 1.263 . S
O176 Tb161 2.325 . S
O176 C191 1.236 . S
O177 Tb160 2.322 . S
O177 C191 1.257 . S
O178 Tb160 2.349 . S
O178 C162 1.261 . S
O179 Tb161 2.303 . S
O179 C162 1.257 . S
C180 O170 1.236 . S
C180 O171 1.257 . S
O181 Tb160 2.415 . S
O181 C169 1.239 . S
O182 Tb160 2.399 . S
O182 C169 1.263 . S
C183 O172 1.261 . S
C183 O173 1.257 . S
C184 C187 1.358 . S
C184 C188 1.332 . S
C184 C190 1.504 1_556 S
C185 C186 1.373 . S
C185 C189 1.308 . S
C186 C185 1.373 . S
C186 C187 1.429 . S
C186 H196 0.932 . S
C187 C184 1.358 . S
C187 C186 1.429 . S
C187 H197 0.930 . S
C188 C184 1.332 . S
C188 C189 1.394 . S
C188 H198 0.932 . S
C189 C185 1.308 . S
C189 C188 1.394 . S
C189 H199 0.929 . S
C190 Tb161 2.764 . S
C190 O174 1.239 . S
C190 O175 1.263 . S
C190 C184 1.504 1_554 S
C191 O176 1.236 . S
C191 O177 1.257 . S
H192 C165 0.932 . S
H193 C166 0.930 . S
H194 C167 0.932 . S
H195 C168 0.929 . S
H196 C186 0.932 . S
H197 C187 0.930 . S
H198 C188 0.932 . S
H199 C189 0.929 . S
Tb200 C209 2.764 . S
Tb200 O210 2.325 . S
Tb200 O213 2.303 . S
Tb200 O217 2.322 . S
Tb200 O218 2.349 . S
Tb200 O221 2.415 . S
Tb200 O222 2.399 . S
Tb201 O211 2.322 . S
Tb201 O212 2.349 . S
Tb201 O214 2.415 . S
Tb201 O215 2.399 . S
Tb201 O216 2.325 . S
Tb201 O219 2.303 . S
Tb201 C230 2.764 . S
C202 O218 1.261 . S
C202 O219 1.257 . S
C203 C206 1.358 . S
C203 C207 1.332 . S
C203 C209 1.504 1_554 S
C204 C205 1.373 . S
C204 C208 1.308 . S
C205 C204 1.373 . S
C205 C206 1.429 . S
C205 H232 0.932 . S
C206 C203 1.358 . S
C206 C205 1.429 . S
C206 H233 0.930 . S
C207 C203 1.332 . S
C207 C208 1.394 . S
C207 H234 0.932 . S
C208 C204 1.308 . S
C208 C207 1.394 . S
C208 H235 0.929 . S
C209 Tb200 2.764 . S
C209 C203 1.504 1_556 S
C209 O221 1.239 . S
C209 O222 1.263 . S
O210 Tb200 2.325 . S
O210 C220 1.236 . S
O211 Tb201 2.322 . S
O211 C220 1.257 . S
O212 Tb201 2.349 . S
O212 C223 1.261 . S
O213 Tb200 2.303 . S
O213 C223 1.257 . S
O214 Tb201 2.415 . S
O214 C230 1.239 . S
O215 Tb201 2.399 . S
O215 C230 1.263 . S
O216 Tb201 2.325 . S
O216 C231 1.236 . S
O217 Tb200 2.322 . S
O217 C231 1.257 . S
O218 Tb200 2.349 . S
O218 C202 1.261 . S
O219 Tb201 2.303 . S
O219 C202 1.257 . S
C220 O210 1.236 . S
C220 O211 1.257 . S
O221 Tb200 2.415 . S
O221 C209 1.239 . S
O222 Tb200 2.399 . S
O222 C209 1.263 . S
C223 O212 1.261 . S
C223 O213 1.257 . S
C224 C227 1.358 . S
C224 C228 1.332 . S
C224 C230 1.504 . S
C225 C226 1.373 . S
C225 C229 1.308 . S
C226 C225 1.373 . S
C226 C227 1.429 . S
C226 H236 0.932 . S
C227 C224 1.358 . S
C227 C226 1.429 . S
C227 H237 0.930 . S
C228 C224 1.332 . S
C228 C229 1.394 . S
C228 H238 0.932 . S
C229 C225 1.308 . S
C229 C228 1.394 . S
C229 H239 0.929 . S
C230 Tb201 2.764 . S
C230 O214 1.239 . S
C230 O215 1.263 . S
C230 C224 1.504 . S
C231 O216 1.236 . S
C231 O217 1.257 . S
H232 C205 0.932 . S
H233 C206 0.930 . S
H234 C207 0.932 . S
H235 C208 0.929 . S
H236 C226 0.932 . S
H237 C227 0.930 . S
H238 C228 0.932 . S
H239 C229 0.929 . S
Tb240 C249 2.764 . S
Tb240 O250 2.325 . S
Tb240 O253 2.303 . S
Tb240 O257 2.322 1_554 S
Tb240 O258 2.349 . S
Tb240 O261 2.415 . S
Tb240 O262 2.399 . S
Tb241 O251 2.322 1_556 S
Tb241 O252 2.349 . S
Tb241 O254 2.415 . S
Tb241 O255 2.399 . S
Tb241 O256 2.325 . S
Tb241 O259 2.303 . S
Tb241 C270 2.764 . S
C242 O258 1.261 1_556 S
C242 O259 1.257 . S
C243 C246 1.358 . S
C243 C247 1.332 . S
C243 C249 1.504 . S
C244 C245 1.373 . S
C244 C248 1.308 . S
C245 C244 1.373 . S
C245 C246 1.429 . S
C245 H272 0.932 . S
C246 C243 1.358 . S
C246 C245 1.429 . S
C246 H273 0.930 . S
C247 C243 1.332 . S
C247 C248 1.394 . S
C247 H274 0.932 . S
C248 C244 1.308 . S
C248 C247 1.394 . S
C248 H275 0.929 . S
C249 Tb240 2.764 . S
C249 C243 1.504 . S
C249 O261 1.239 . S
C249 O262 1.263 . S
O250 Tb240 2.325 . S
O250 C260 1.236 . S
O251 Tb241 2.322 1_554 S
O251 C260 1.257 . S
O252 Tb241 2.349 . S
O252 C263 1.261 1_556 S
O253 Tb240 2.303 . S
O253 C263 1.257 . S
O254 Tb241 2.415 . S
O254 C270 1.239 . S
O255 Tb241 2.399 . S
O255 C270 1.263 . S
O256 Tb241 2.325 . S
O256 C271 1.236 . S
O257 Tb240 2.322 1_556 S
O257 C271 1.257 . S
O258 Tb240 2.349 . S
O258 C242 1.261 1_554 S
O259 Tb241 2.303 . S
O259 C242 1.257 . S
C260 O250 1.236 . S
C260 O251 1.257 . S
O261 Tb240 2.415 . S
O261 C249 1.239 . S
O262 Tb240 2.399 . S
O262 C249 1.263 . S
C263 O252 1.261 1_554 S
C263 O253 1.257 . S
C264 C267 1.358 . S
C264 C268 1.332 . S
C264 C270 1.504 . S
C265 C266 1.373 . S
C265 C269 1.308 . S
C266 C265 1.373 . S
C266 C267 1.429 . S
C266 H276 0.932 . S
C267 C264 1.358 . S
C267 C266 1.429 . S
C267 H277 0.930 . S
C268 C264 1.332 . S
C268 C269 1.394 . S
C268 H278 0.932 . S
C269 C265 1.308 . S
C269 C268 1.394 . S
C269 H279 0.929 . S
C270 Tb241 2.764 . S
C270 O254 1.239 . S
C270 O255 1.263 . S
C270 C264 1.504 . S
C271 O256 1.236 . S
C271 O257 1.257 . S
H272 C245 0.932 . S
H273 C246 0.930 . S
H274 C247 0.932 . S
H275 C248 0.929 . S
H276 C266 0.932 . S
H277 C267 0.930 . S
H278 C268 0.932 . S
H279 C269 0.929 . S
Tb280 C289 2.764 1_655 S
Tb280 O290 2.325 1_655 S
Tb280 O293 2.303 . S
Tb280 O297 2.322 . S
Tb280 O298 2.349 1_655 S
Tb280 O301 2.415 . S
Tb280 O302 2.399 1_655 S
Tb281 O291 2.322 . S
Tb281 O292 2.349 1_455 S
Tb281 O294 2.415 . S
Tb281 O295 2.399 1_455 S
Tb281 O296 2.325 1_455 S
Tb281 O299 2.303 . S
Tb281 C310 2.764 1_455 S
C282 O298 1.261 . S
C282 O299 1.257 . S
C283 C286 1.358 . S
C283 C287 1.332 . S
C283 C289 1.504 . S
C284 C285 1.373 . S
C284 C288 1.308 . S
C285 C284 1.373 . S
C285 C286 1.429 . S
C285 H312 0.932 . S
C286 C283 1.358 . S
C286 C285 1.429 . S
C286 H313 0.930 . S
C287 C283 1.332 . S
C287 C288 1.394 . S
C287 H314 0.932 1_455 S
C288 C284 1.308 . S
C288 C287 1.394 . S
C288 H315 0.929 . S
C289 Tb280 2.764 1_455 S
C289 C283 1.504 . S
C289 O301 1.239 1_455 S
C289 O302 1.263 . S
O290 Tb280 2.325 1_455 S
O290 C300 1.236 . S
O291 Tb281 2.322 . S
O291 C300 1.257 . S
O292 Tb281 2.349 1_655 S
O292 C303 1.261 . S
O293 Tb280 2.303 . S
O293 C303 1.257 . S
O294 Tb281 2.415 . S
O294 C310 1.239 1_455 S
O295 Tb281 2.399 1_655 S
O295 C310 1.263 . S
O296 Tb281 2.325 1_655 S
O296 C311 1.236 . S
O297 Tb280 2.322 . S
O297 C311 1.257 . S
O298 Tb280 2.349 1_455 S
O298 C282 1.261 . S
O299 Tb281 2.303 . S
O299 C282 1.257 . S
C300 O290 1.236 . S
C300 O291 1.257 . S
O301 Tb280 2.415 . S
O301 C289 1.239 1_655 S
O302 Tb280 2.399 1_455 S
O302 C289 1.263 . S
C303 O292 1.261 . S
C303 O293 1.257 . S
C304 C307 1.358 . S
C304 C308 1.332 . S
C304 C310 1.504 . S
C305 C306 1.373 . S
C305 C309 1.308 . S
C306 C305 1.373 . S
C306 C307 1.429 . S
C306 H316 0.932 . S
C307 C304 1.358 . S
C307 C306 1.429 . S
C307 H317 0.930 . S
C308 C304 1.332 . S
C308 C309 1.394 . S
C308 H318 0.932 1_655 S
C309 C305 1.308 . S
C309 C308 1.394 . S
C309 H319 0.929 . S
C310 Tb281 2.764 1_655 S
C310 O294 1.239 1_655 S
C310 O295 1.263 . S
C310 C304 1.504 . S
C311 O296 1.236 . S
C311 O297 1.257 . S
H312 C285 0.932 . S
H313 C286 0.930 . S
H314 C287 0.932 1_655 S
H315 C288 0.929 . S
H316 C306 0.932 . S
H317 C307 0.930 . S
H318 C308 0.932 1_455 S
H319 C309 0.929 . S
C320 C321 1.369 . S
C320 C322 1.419 . S
C320 H324 0.930 . S
C321 C320 1.369 . S
C321 C330 1.429 . S
C322 C320 1.419 . S
C322 C323 1.363 . S
C322 H325 0.929 . S
C323 C322 1.363 . S
C323 C329 1.428 . S
H324 C320 0.930 . S
H325 C322 0.929 . S
S326 N327 1.613 . S
S326 N328 1.610 . S
N327 S326 1.613 . S
N327 C330 1.350 . S
N328 S326 1.610 . S
N328 C329 1.351 . S
C329 C323 1.428 . S
C329 N328 1.351 . S
C329 C330 1.434 . S
C330 C321 1.429 . S
C330 N327 1.350 . S
C330 C329 1.434 . S
C331 C332 1.369 . S
C331 C333 1.419 . S
C331 H335 0.930 . S
C332 C331 1.369 . S
C332 C341 1.429 . S
C333 C331 1.419 . S
C333 C334 1.363 . S
C333 H336 0.929 . S
C334 C333 1.363 . S
C334 C340 1.428 . S
H335 C331 0.930 . S
H336 C333 0.929 . S
S337 N338 1.613 . S
S337 N339 1.610 . S
N338 S337 1.613 . S
N338 C341 1.350 . S
N339 S337 1.610 . S
N339 C340 1.351 . S
C340 C334 1.428 . S
C340 N339 1.351 . S
C340 C341 1.434 . S
C341 C332 1.429 . S
C341 N338 1.350 . S
C341 C340 1.434 . S
C342 C343 1.369 . S
C342 C344 1.419 . S
C342 H346 0.930 . S
C343 C342 1.369 . S
C343 C352 1.429 . S
C344 C342 1.419 . S
C344 C345 1.363 . S
C344 H347 0.929 . S
C345 C344 1.363 . S
C345 C351 1.428 . S
H346 C342 0.930 . S
H347 C344 0.929 . S
S348 N349 1.613 . S
S348 N350 1.610 . S
N349 S348 1.613 . S
N349 C352 1.350 . S
N350 S348 1.610 . S
N350 C351 1.351 . S
C351 C345 1.428 . S
C351 N350 1.351 . S
C351 C352 1.434 . S
C352 C343 1.429 . S
C352 N349 1.350 . S
C352 C351 1.434 . S
C353 C354 1.369 . S
C353 C355 1.419 . S
C353 H357 0.930 . S
C354 C353 1.369 . S
C354 C363 1.429 . S
C355 C353 1.419 . S
C355 C356 1.363 . S
C355 H358 0.929 . S
C356 C355 1.363 . S
C356 C362 1.428 . S
H357 C353 0.930 . S
H358 C355 0.929 . S
S359 N360 1.613 . S
S359 N361 1.610 . S
N360 S359 1.613 . S
N360 C363 1.350 . S
N361 S359 1.610 . S
N361 C362 1.351 . S
C362 C356 1.428 . S
C362 N361 1.351 . S
C362 C363 1.434 . S
C363 C354 1.429 . S
C363 N360 1.350 . S
C363 C362 1.434 . S
C364 C365 1.369 . S
C364 C366 1.419 . S
C364 H368 0.930 . S
C365 C364 1.369 . S
C365 C374 1.429 . S
C366 C364 1.419 . S
C366 C367 1.363 . S
C366 H369 0.929 . S
C367 C366 1.363 . S
C367 C373 1.428 . S
H368 C364 0.930 . S
H369 C366 0.929 . S
S370 N371 1.613 . S
S370 N372 1.610 . S
N371 S370 1.613 . S
N371 C374 1.350 . S
N372 S370 1.610 . S
N372 C373 1.351 . S
C373 C367 1.428 . S
C373 N372 1.351 . S
C373 C374 1.434 . S
C374 C365 1.429 . S
C374 N371 1.350 . S
C374 C373 1.434 . S
C375 C376 1.369 . S
C375 C377 1.419 . S
C375 H379 0.930 . S
C376 C375 1.369 . S
C376 C385 1.429 . S
C377 C375 1.419 . S
C377 C378 1.363 . S
C377 H380 0.929 . S
C378 C377 1.363 . S
C378 C384 1.428 . S
H379 C375 0.930 . S
H380 C377 0.929 . S
S381 N382 1.613 . S
S381 N383 1.610 . S
N382 S381 1.613 . S
N382 C385 1.350 . S
N383 S381 1.610 . S
N383 C384 1.351 . S
C384 C378 1.428 . S
C384 N383 1.351 . S
C384 C385 1.434 . S
C385 C376 1.429 . S
C385 N382 1.350 . S
C385 C384 1.434 . S
C386 C387 1.369 . S
C386 C388 1.419 . S
C386 H390 0.930 . S
C387 C386 1.369 . S
C387 C396 1.429 . S
C388 C386 1.419 . S
C388 C389 1.363 . S
C388 H391 0.929 . S
C389 C388 1.363 . S
C389 C395 1.428 . S
H390 C386 0.930 . S
H391 C388 0.929 . S
S392 N393 1.613 . S
S392 N394 1.610 . S
N393 S392 1.613 . S
N393 C396 1.350 . S
N394 S392 1.610 . S
N394 C395 1.351 . S
C395 C389 1.428 . S
C395 N394 1.351 . S
C395 C396 1.434 . S
C396 C387 1.429 . S
C396 N393 1.350 . S
C396 C395 1.434 . S
C397 C398 1.369 . S
C397 C399 1.419 . S
C397 H401 0.930 . S
C398 C397 1.369 . S
C398 C407 1.429 . S
C399 C397 1.419 . S
C399 C400 1.363 . S
C399 H402 0.929 . S
C400 C399 1.363 . S
C400 C406 1.428 . S
H401 C397 0.930 . S
H402 C399 0.929 . S
S403 N404 1.613 . S
S403 N405 1.610 . S
N404 S403 1.613 . S
N404 C407 1.350 . S
N405 S403 1.610 . S
N405 C406 1.351 . S
C406 C400 1.428 . S
C406 N405 1.351 . S
C406 C407 1.434 . S
C407 C398 1.429 . S
C407 N404 1.350 . S
C407 C406 1.434 . S
C408 C409 1.369 . S
C408 C410 1.419 . S
C408 H412 0.930 . S
C409 C408 1.369 . S
C409 C418 1.429 . S
C410 C408 1.419 . S
C410 C411 1.363 . S
C410 H413 0.929 . S
C411 C410 1.363 . S
C411 C417 1.428 . S
H412 C408 0.930 . S
H413 C410 0.929 . S
S414 N415 1.613 . S
S414 N416 1.610 . S
N415 S414 1.613 . S
N415 C418 1.350 . S
N416 S414 1.610 . S
N416 C417 1.351 . S
C417 C411 1.428 . S
C417 N416 1.351 . S
C417 C418 1.434 . S
C418 C409 1.429 . S
C418 N415 1.350 . S
C418 C417 1.434 . S
C419 C420 1.369 . S
C419 C421 1.419 . S
C419 H423 0.930 . S
C420 C419 1.369 . S
C420 C429 1.429 . S
C421 C419 1.419 . S
C421 C422 1.363 . S
C421 H424 0.929 . S
C422 C421 1.363 . S
C422 C428 1.428 . S
H423 C419 0.930 . S
H424 C421 0.929 . S
S425 N426 1.613 . S
S425 N427 1.610 . S
N426 S425 1.613 . S
N426 C429 1.350 . S
N427 S425 1.610 . S
N427 C428 1.351 . S
C428 C422 1.428 . S
C428 N427 1.351 . S
C428 C429 1.434 . S
C429 C420 1.429 . S
C429 N426 1.350 . S
C429 C428 1.434 . S
C430 C431 1.369 . S
C430 C432 1.419 . S
C430 H434 0.930 . S
C431 C430 1.369 . S
C431 C440 1.429 . S
C432 C430 1.419 . S
C432 C433 1.363 . S
C432 H435 0.929 . S
C433 C432 1.363 . S
C433 C439 1.428 . S
H434 C430 0.930 . S
H435 C432 0.929 . S
S436 N437 1.613 . S
S436 N438 1.610 . S
N437 S436 1.613 . S
N437 C440 1.350 . S
N438 S436 1.610 . S
N438 C439 1.351 . S
C439 C433 1.428 . S
C439 N438 1.351 . S
C439 C440 1.434 . S
C440 C431 1.429 . S
C440 N437 1.350 . S
C440 C439 1.434 . S
C441 C442 1.369 . S
C441 C443 1.419 . S
C441 H445 0.930 . S
C442 C441 1.369 . S
C442 C451 1.429 . S
C443 C441 1.419 . S
C443 C444 1.363 . S
C443 H446 0.929 . S
C444 C443 1.363 . S
C444 C450 1.428 . S
H445 C441 0.930 . S
H446 C443 0.929 . S
S447 N448 1.613 . S
S447 N449 1.610 . S
N448 S447 1.613 . S
N448 C451 1.350 . S
N449 S447 1.610 . S
N449 C450 1.351 . S
C450 C444 1.428 . S
C450 N449 1.351 . S
C450 C451 1.434 . S
C451 C442 1.429 . S
C451 N448 1.350 . S
C451 C450 1.434 . S
C452 C453 1.369 . S
C452 C454 1.419 . S
C452 H456 0.930 . S
C453 C452 1.369 . S
C453 C462 1.429 . S
C454 C452 1.419 . S
C454 C455 1.363 . S
C454 H457 0.929 . S
C455 C454 1.363 . S
C455 C461 1.428 . S
H456 C452 0.930 . S
H457 C454 0.929 . S
S458 N459 1.613 . S
S458 N460 1.610 . S
N459 S458 1.613 . S
N459 C462 1.350 . S
N460 S458 1.610 . S
N460 C461 1.351 . S
C461 C455 1.428 . S
C461 N460 1.351 . S
C461 C462 1.434 . S
C462 C453 1.429 . S
C462 N459 1.350 . S
C462 C461 1.434 . S
C463 C464 1.369 . S
C463 C465 1.419 . S
C463 H467 0.930 . S
C464 C463 1.369 . S
C464 C473 1.429 . S
C465 C463 1.419 . S
C465 C466 1.363 . S
C465 H468 0.929 . S
C466 C465 1.363 . S
C466 C472 1.428 . S
H467 C463 0.930 . S
H468 C465 0.929 . S
S469 N470 1.613 . S
S469 N471 1.610 1_554 S
N470 S469 1.613 . S
N470 C473 1.350 1_554 S
N471 S469 1.610 1_556 S
N471 C472 1.351 . S
C472 C466 1.428 . S
C472 N471 1.351 . S
C472 C473 1.434 . S
C473 C464 1.429 . S
C473 N470 1.350 1_556 S
C473 C472 1.434 . S
C474 C475 1.369 . S
C474 C476 1.419 . S
C474 H478 0.930 . S
C475 C474 1.369 . S
C475 C484 1.429 . S
C476 C474 1.419 . S
C476 C477 1.363 . S
C476 H479 0.929 . S
C477 C476 1.363 . S
C477 C483 1.428 . S
H478 C474 0.930 . S
H479 C476 0.929 . S
S480 N481 1.613 . S
S480 N482 1.610 . S
N481 S480 1.613 . S
N481 C484 1.350 . S
N482 S480 1.610 . S
N482 C483 1.351 . S
C483 C477 1.428 . S
C483 N482 1.351 . S
C483 C484 1.434 . S
C484 C475 1.429 . S
C484 N481 1.350 . S
C484 C483 1.434 . S
C485 C486 1.369 . S
C485 C487 1.419 . S
C485 H489 0.930 . S
C486 C485 1.369 . S
C486 C495 1.429 . S
C487 C485 1.419 . S
C487 C488 1.363 . S
C487 H490 0.929 . S
C488 C487 1.363 . S
C488 C494 1.428 . S
H489 C485 0.930 . S
H490 C487 0.929 . S
S491 N492 1.613 . S
S491 N493 1.610 . S
N492 S491 1.613 . S
N492 C495 1.350 . S
N493 S491 1.610 . S
N493 C494 1.351 . S
C494 C488 1.428 . S
C494 N493 1.351 . S
C494 C495 1.434 . S
C495 C486 1.429 . S
C495 N492 1.350 . S
C495 C494 1.434 . S
C496 C497 1.369 1_554 S
C496 C498 1.409 1_545 S
C496 H500 0.930 . S
C497 C496 1.369 1_556 S
C497 C506 1.429 1_645 S
C498 C496 1.409 1_565 S
C498 C499 1.373 1_655 S
C498 H501 0.929 . S
C499 C498 1.373 1_455 S
C499 C505 1.428 1_554 S
H500 C496 0.930 . S
H501 C498 0.929 . S
S502 N503 1.613 . S
S502 N504 1.610 . S
N503 S502 1.613 . S
N503 C506 1.350 . S
N504 S502 1.610 . S
N504 C505 1.351 . S
C505 C499 1.428 1_556 S
C505 N504 1.351 . S
C505 C506 1.434 . S
C506 C497 1.429 1_465 S
C506 N503 1.350 . S
C506 C505 1.434 . S
C507 C508 1.369 . S
C507 C509 1.419 . S
C507 H511 0.930 . S
C508 C507 1.369 . S
C508 C517 1.429 . S
C509 C507 1.419 . S
C509 C510 1.363 . S
C509 H512 0.929 . S
C510 C509 1.363 . S
C510 C516 1.428 . S
H511 C507 0.930 . S
H512 C509 0.929 . S
S513 N514 1.613 . S
S513 N515 1.610 . S
N514 S513 1.613 . S
N514 C517 1.350 . S
N515 S513 1.610 . S
N515 C516 1.351 . S
C516 C510 1.428 . S
C516 N515 1.351 . S
C516 C517 1.434 . S
C517 C508 1.429 . S
C517 N514 1.350 . S
C517 C516 1.434 . S
C518 C519 1.369 1_565 S
C518 C520 1.419 . S
C518 H522 0.930 . S
C519 C518 1.369 1_545 S
C519 C528 1.429 . S
C520 C518 1.419 . S
C520 C521 1.363 . S
C520 H523 0.929 . S
C521 C520 1.363 . S
C521 C527 1.428 1_565 S
H522 C518 0.930 . S
H523 C520 0.929 . S
S524 N525 1.613 . S
S524 N526 1.610 . S
N525 S524 1.613 . S
N525 C528 1.350 . S
N526 S524 1.610 . S
N526 C527 1.351 . S
C527 C521 1.428 1_545 S
C527 N526 1.351 . S
C527 C528 1.434 . S
C528 C519 1.429 . S
C528 N525 1.350 . S
C528 C527 1.434 . S
C529 C530 1.369 . S
C529 C531 1.419 . S
C529 H533 0.930 . S
C530 C529 1.369 . S
C530 C539 1.429 . S
C531 C529 1.419 . S
C531 C532 1.363 . S
C531 H534 0.929 . S
C532 C531 1.363 . S
C532 C538 1.428 . S
H533 C529 0.930 . S
H534 C531 0.929 . S
S535 N536 1.613 . S
S535 N537 1.610 . S
N536 S535 1.613 . S
N536 C539 1.350 . S
N537 S535 1.610 . S
N537 C538 1.351 . S
C538 C532 1.428 . S
C538 N537 1.351 . S
C538 C539 1.434 . S
C539 C530 1.429 . S
C539 N536 1.350 . S
C539 C538 1.434 . S
C540 C541 1.369 . S
C540 C542 1.419 . S
C540 H544 0.930 . S
C541 C540 1.369 . S
C541 C550 1.429 . S
C542 C540 1.419 . S
C542 C543 1.363 . S
C542 H545 0.929 . S
C543 C542 1.363 . S
C543 C549 1.428 . S
H544 C540 0.930 . S
H545 C542 0.929 . S
S546 N547 1.613 . S
S546 N548 1.610 . S
N547 S546 1.613 . S
N547 C550 1.350 . S
N548 S546 1.610 . S
N548 C549 1.351 . S
C549 C543 1.428 . S
C549 N548 1.351 . S
C549 C550 1.434 . S
C550 C541 1.429 . S
C550 N547 1.350 . S
C550 C549 1.434 . S
C551 C552 1.369 . S
C551 C553 1.419 . S
C551 H555 0.930 . S
C552 C551 1.369 . S
C552 C561 1.429 . S
C553 C551 1.419 . S
C553 C554 1.363 . S
C553 H556 0.929 . S
C554 C553 1.363 . S
C554 C560 1.428 . S
H555 C551 0.930 . S
H556 C553 0.929 . S
S557 N558 1.613 . S
S557 N559 1.610 . S
N558 S557 1.613 . S
N558 C561 1.350 . S
N559 S557 1.610 . S
N559 C560 1.351 . S
C560 C554 1.428 . S
C560 N559 1.351 . S
C560 C561 1.434 . S
C561 C552 1.429 . S
C561 N558 1.350 . S
C561 C560 1.434 . S
C562 C563 1.369 . S
C562 C564 1.419 . S
C562 H566 0.930 . S
C563 C562 1.369 . S
C563 C572 1.429 . S
C564 C562 1.419 . S
C564 C565 1.363 . S
C564 H567 0.929 . S
C565 C564 1.363 . S
C565 C571 1.428 . S
H566 C562 0.930 . S
H567 C564 0.929 . S
S568 N569 1.613 . S
S568 N570 1.610 . S
N569 S568 1.613 . S
N569 C572 1.350 . S
N570 S568 1.610 . S
N570 C571 1.351 . S
C571 C565 1.428 . S
C571 N570 1.351 . S
C571 C572 1.434 . S
C572 C563 1.429 . S
C572 N569 1.350 . S
C572 C571 1.434 . S
C573 C574 1.369 . S
C573 C575 1.419 1_556 S
C573 H577 0.930 . S
C574 C573 1.369 . S
C574 C583 1.429 1_455 S
C575 C573 1.419 1_554 S
C575 C576 1.363 1_455 S
C575 H578 0.929 . S
C576 C575 1.363 1_655 S
C576 C582 1.432 . S
H577 C573 0.930 . S
H578 C575 0.929 . S
S579 N580 1.613 . S
S579 N581 1.610 . S
N580 S579 1.613 . S
N580 C583 1.350 . S
N581 S579 1.610 . S
N581 C582 1.350 1_556 S
C582 C576 1.432 . S
C582 N581 1.350 1_554 S
C582 C583 1.431 1_554 S
C583 C574 1.429 1_655 S
C583 N580 1.350 . S
C583 C582 1.431 1_556 S
C321 C31 1.554 . S
C323 C143 1.551 . S
C332 C23 1.552 . S
C334 C71 1.554 . S
C343 C63 1.554 . S
C345 C111 1.556 . S
C354 C103 1.552 . S
C356 C151 1.549 . S
C365 C20 1.553 . S
C367 C202 1.557 . S
C376 C2 1.552 . S
C378 C180 1.554 . S
C387 C162 1.554 . S
C389 C100 1.550 . S
C398 C220 1.553 . S
C400 C82 1.556 . S
C409 C271 1.552 . S
C411 C223 1.554 . S
C420 C191 1.553 . S
C422 C263 1.550 . S
C431 C311 1.552 . S
C433 C183 1.554 . S
C442 C231 1.553 . S
C444 C303 1.553 . S
C453 C122 1.553 . S
C455 C260 1.553 . S
C464 C242 1.552 . S
C466 C60 1.554 . S
C475 C42 1.553 . S
C477 C300 1.551 . S
C486 C140 1.552 . S
C488 C282 1.551 . S
C497 C4 1.752 . S
C499 C25 1.762 . S
C508 C65 1.754 . S
C510 C44 1.761 . S
C519 C105 1.763 . S
C521 C84 1.754 . S
C530 C145 1.752 . S
C532 C124 1.762 . S
C541 C185 1.752 . S
C543 C164 1.762 . S
C552 C225 1.752 . S
C554 C204 1.762 . S
C563 C265 1.761 . S
C565 C244 1.754 . S
C574 C284 1.752 . S
C576 C305 1.762 . S
