# Generated by pormake.
# Topology ukt, (4)-cn, num edge types: 1
# Building blocks:
#     Node 0, Type 0, BuildingBlock: AZAVOO_clean_sbu_0, # of connection points: 4
#     Node 1, Type 0, BuildingBlock: AZAVOO_clean_sbu_0, # of connection points: 4
#     Node 2, Type 0, BuildingBlock: AZAVOO_clean_sbu_0, # of connection points: 4
#     Node 3, Type 0, BuildingBlock: AZAVOO_clean_sbu_0, # of connection points: 4
#     Node 4, Type 0, BuildingBlock: AZAVOO_clean_sbu_0, # of connection points: 4
#     Node 5, Type 0, BuildingBlock: AZAVOO_clean_sbu_0, # of connection points: 4
#     Node 6, Type 0, BuildingBlock: AZAVOO_clean_sbu_0, # of connection points: 4
#     Node 7, Type 0, BuildingBlock: AZAVOO_clean_sbu_0, # of connection points: 4
#     Node 8, Type 0, BuildingBlock: AZAVOO_clean_sbu_0, # of connection points: 4
#     Node 9, Type 0, BuildingBlock: AZAVOO_clean_sbu_0, # of connection points: 4
#     Node 10, Type 0, BuildingBlock: AZAVOO_clean_sbu_0, # of connection points: 4
#     Node 11, Type 0, BuildingBlock: AZAVOO_clean_sbu_0, # of connection points: 4
#     Node 12, Type 0, BuildingBlock: AZAVOO_clean_sbu_0, # of connection points: 4
#     Node 13, Type 0, BuildingBlock: AZAVOO_clean_sbu_0, # of connection points: 4
#     Node 14, Type 0, BuildingBlock: AZAVOO_clean_sbu_0, # of connection points: 4
#     Node 15, Type 0, BuildingBlock: AZAVOO_clean_sbu_0, # of connection points: 4
#     Edge 16, Type (0, 0), BuildingBlock: OJICUG_clean_linker_0, # of connection points: 2
#     Edge 17, Type (0, 0), BuildingBlock: OJICUG_clean_linker_0, # of connection points: 2
#     Edge 18, Type (0, 0), BuildingBlock: OJICUG_clean_linker_0, # of connection points: 2
#     Edge 19, Type (0, 0), BuildingBlock: OJICUG_clean_linker_0, # of connection points: 2
#     Edge 20, Type (0, 0), BuildingBlock: OJICUG_clean_linker_0, # of connection points: 2
#     Edge 21, Type (0, 0), BuildingBlock: OJICUG_clean_linker_0, # of connection points: 2
#     Edge 22, Type (0, 0), BuildingBlock: OJICUG_clean_linker_0, # of connection points: 2
#     Edge 23, Type (0, 0), BuildingBlock: OJICUG_clean_linker_0, # of connection points: 2
#     Edge 24, Type (0, 0), BuildingBlock: OJICUG_clean_linker_0, # of connection points: 2
#     Edge 25, Type (0, 0), BuildingBlock: OJICUG_clean_linker_0, # of connection points: 2
#     Edge 26, Type (0, 0), BuildingBlock: OJICUG_clean_linker_0, # of connection points: 2
#     Edge 27, Type (0, 0), BuildingBlock: OJICUG_clean_linker_0, # of connection points: 2
#     Edge 28, Type (0, 0), BuildingBlock: OJICUG_clean_linker_0, # of connection points: 2
#     Edge 29, Type (0, 0), BuildingBlock: OJICUG_clean_linker_0, # of connection points: 2
#     Edge 30, Type (0, 0), BuildingBlock: OJICUG_clean_linker_0, # of connection points: 2
#     Edge 31, Type (0, 0), BuildingBlock: OJICUG_clean_linker_0, # of connection points: 2
#     Edge 32, Type (0, 0), BuildingBlock: OJICUG_clean_linker_0, # of connection points: 2
#     Edge 33, Type (0, 0), BuildingBlock: OJICUG_clean_linker_0, # of connection points: 2
#     Edge 34, Type (0, 0), BuildingBlock: OJICUG_clean_linker_0, # of connection points: 2
#     Edge 35, Type (0, 0), BuildingBlock: OJICUG_clean_linker_0, # of connection points: 2
#     Edge 36, Type (0, 0), BuildingBlock: OJICUG_clean_linker_0, # of connection points: 2
#     Edge 37, Type (0, 0), BuildingBlock: OJICUG_clean_linker_0, # of connection points: 2
#     Edge 38, Type (0, 0), BuildingBlock: OJICUG_clean_linker_0, # of connection points: 2
#     Edge 39, Type (0, 0), BuildingBlock: OJICUG_clean_linker_0, # of connection points: 2
#     Edge 40, Type (0, 0), BuildingBlock: OJICUG_clean_linker_0, # of connection points: 2
#     Edge 41, Type (0, 0), BuildingBlock: OJICUG_clean_linker_0, # of connection points: 2
#     Edge 42, Type (0, 0), BuildingBlock: OJICUG_clean_linker_0, # of connection points: 2
#     Edge 43, Type (0, 0), BuildingBlock: OJICUG_clean_linker_0, # of connection points: 2
#     Edge 44, Type (0, 0), BuildingBlock: OJICUG_clean_linker_0, # of connection points: 2
#     Edge 45, Type (0, 0), BuildingBlock: OJICUG_clean_linker_0, # of connection points: 2
#     Edge 46, Type (0, 0), BuildingBlock: OJICUG_clean_linker_0, # of connection points: 2
#     Edge 47, Type (0, 0), BuildingBlock: OJICUG_clean_linker_0, # of connection points: 2
# Relax obj value: 0.284
# Max RMSD: 0.208
# Mean RMSD: 0.196
data_MOF--net-ukt--node1-AZAVOO_clean_sbu_0--edge1-OJICUG_clean_linker_0
_symmetry_space_group_name_H-M    P1
_symmetry_Int_Tables_number       1
_symmetry_cell_setting            triclinic
loop_
_symmetry_equiv_pos_as_xyz
'x, y, z'
_cell_length_a     30.702986
_cell_length_b     30.768834
_cell_length_c     28.179003
_cell_angle_alpha  90.080204
_cell_angle_beta   90.08257
_cell_angle_gamma 89.52182
loop_
_atom_site_label
_atom_site_type_symbol
_atom_site_fract_x
_atom_site_fract_y
_atom_site_fract_z
_atom_type_partial_charge
Mg0 Mg 0.5524 0.151 0.05057 0.0
O1 O 0.62532 0.14164 0.03704 0.0
O2 O 0.65784 0.2061 0.04277 0.0
Mg3 Mg 0.60513 0.25879 0.05243 0.0
C4 C 0.6594 0.16499 0.0366 0.0
C5 C 0.54639 0.05691 0.01416 0.0
O6 O 0.54951 0.08122 0.97618 0.0
O7 O 0.56422 0.16486 0.13194 0.0
O8 O 0.58877 0.23318 0.12558 0.0
O9 O 0.54086 0.16516 0.97233 0.0
O10 O 0.55491 0.2153 0.0257 0.0
C11 C 0.57587 0.20124 0.15054 0.0
C12 C 0.5477 0.20535 0.98235 0.0
O13 O 0.54627 0.07553 0.05476 0.0
Mg14 Mg 0.34159 0.54074 0.0759 0.0
O15 O 0.34411 0.61301 0.05994 0.0
O16 O 0.28092 0.63556 0.02893 0.0
Mg17 Mg 0.23373 0.5783 0.03613 0.0
C18 C 0.32029 0.64233 0.04115 0.0
C19 C 0.44724 0.55044 0.10513 0.0
O20 O 0.47489 0.56155 0.13855 0.0
O21 O 0.30239 0.55311 0.14483 0.0
O22 O 0.23799 0.57746 0.11791 0.0
O23 O 0.35453 0.52923 0.99728 0.0
O24 O 0.28929 0.53299 0.02996 0.0
C25 C 0.26347 0.56712 0.15206 0.0
C26 C 0.31261 0.52972 0.99251 0.0
O27 O 0.40676 0.54993 0.11533 0.0
Mg28 Mg 0.89321 0.33411 0.06074 0.0
O29 O 0.82035 0.35298 0.05175 0.0
O30 O 0.78321 0.29078 0.04785 0.0
Mg31 Mg 0.83006 0.23311 0.04827 0.0
C32 C 0.78452 0.33221 0.04849 0.0
C33 C 0.90347 0.43147 0.04055 0.0
O34 O 0.87526 0.41849 0.00855 0.0
O35 O 0.88302 0.30998 0.13881 0.0
O36 O 0.84801 0.24731 0.1248 0.0
O37 O 0.90333 0.33065 0.98155 0.0
O38 O 0.88197 0.27613 0.0264 0.0
C39 C 0.86588 0.27422 0.15305 0.0
C40 C 0.89078 0.29086 0.98509 0.0
O41 O 0.91345 0.40535 0.07418 0.0
Mg42 Mg 0.17088 0.91027 0.07294 0.0
O43 O 0.16701 0.83813 0.05237 0.0
O44 O 0.23359 0.80872 0.05848 0.0
Mg45 Mg 0.28108 0.86082 0.08208 0.0
C46 C 0.19308 0.80575 0.04912 0.0
C47 C 0.07629 0.90469 0.03186 0.0
O48 O 0.09888 0.88428 0.99899 0.0
O49 O 0.17695 0.89361 0.15329 0.0
O50 O 0.24528 0.86692 0.15135 0.0
O51 O 0.19263 0.92708 0.99829 0.0
O52 O 0.23678 0.91174 0.05779 0.0
C53 C 0.21085 0.87757 0.1738 0.0
C54 C 0.23186 0.92193 0.01423 0.0
O55 O 0.09585 0.91664 0.06964 0.0
Mg56 Mg 0.55038 0.33197 0.4276 0.0
O57 O 0.62276 0.33313 0.44099 0.0
O58 O 0.64554 0.26863 0.46709 0.0
Mg59 Mg 0.58718 0.22229 0.46141 0.0
C60 C 0.65255 0.30825 0.45685 0.0
C61 C 0.56097 0.43844 0.40192 0.0
O62 O 0.57433 0.46638 0.36998 0.0
O63 O 0.56003 0.29474 0.35679 0.0
O64 O 0.58243 0.22869 0.38008 0.0
O65 O 0.54181 0.34187 0.50729 0.0
O66 O 0.54255 0.27802 0.47161 0.0
C67 C 0.57196 0.25557 0.3474 0.0
C68 C 0.541 0.29995 0.51019 0.0
O69 O 0.56178 0.39812 0.39113 0.0
Mg70 Mg 0.15119 0.55558 0.44512 0.0
O71 O 0.13687 0.62789 0.45347 0.0
O72 O 0.19963 0.6641 0.45082 0.0
Mg73 Mg 0.25527 0.61447 0.44446 0.0
C74 C 0.15821 0.66323 0.45467 0.0
C75 C 0.05955 0.52813 0.4729 0.0
O76 O 0.08493 0.51276 0.5065 0.0
O77 O 0.16718 0.56366 0.36431 0.0
O78 O 0.23315 0.59402 0.37042 0.0
O79 O 0.15923 0.55089 0.5245 0.0
O80 O 0.21298 0.56536 0.47548 0.0
C81 C 0.20251 0.57777 0.34566 0.0
C82 C 0.19922 0.56178 0.51831 0.0
O83 O 0.07703 0.54515 0.43641 0.0
Mg84 Mg 0.92053 0.16906 0.44187 0.0
O85 O 0.84965 0.16501 0.46662 0.0
O86 O 0.81919 0.23097 0.46487 0.0
Mg87 Mg 0.87082 0.27915 0.44001 0.0
C88 C 0.81706 0.19023 0.47286 0.0
C89 C 0.91475 0.07779 0.48607 0.0
O90 O 0.90156 0.10442 0.51968 0.0
O91 O 0.89864 0.17853 0.36255 0.0
O92 O 0.87229 0.24688 0.36803 0.0
O93 O 0.94211 0.18924 0.51588 0.0
O94 O 0.92389 0.23454 0.45859 0.0
C95 C 0.88176 0.21303 0.34394 0.0
C96 C 0.9367 0.22869 0.50122 0.0
O97 O 0.92394 0.09369 0.44542 0.0
Mg98 Mg 0.33333 0.90645 0.44193 0.0
O99 O 0.34166 0.8325 0.45915 0.0
O100 O 0.27602 0.80117 0.46511 0.0
Mg101 Mg 0.23167 0.84733 0.42479 0.0
C102 C 0.31751 0.80003 0.46934 0.0
C103 C 0.42693 0.90611 0.4845 0.0
O104 O 0.40475 0.88552 0.51721 0.0
O105 O 0.32697 0.89887 0.35983 0.0
O106 O 0.29065 0.84127 0.37852 0.0
O107 O 0.31055 0.91688 0.5167 0.0
O108 O 0.26606 0.9037 0.45654 0.0
C109 C 0.2998 0.86963 0.34804 0.0
C110 C 0.27143 0.91101 0.50097 0.0
O111 O 0.40763 0.91642 0.44593 0.0
Mg112 Mg 0.46404 0.85378 0.9051 0.0
O113 O 0.4321 0.80102 0.95343 0.0
O114 O 0.40545 0.83136 0.02036 0.0
Mg115 Mg 0.43782 0.89686 0.0247 0.0
C116 C 0.40994 0.79918 0.99202 0.0
C117 C 0.45726 0.78338 0.82487 0.0
O118 O 0.41622 0.79448 0.83074 0.0
O119 O 0.53081 0.85586 0.94349 0.0
O120 O 0.49631 0.8549 0.0096 0.0
O121 O 0.39681 0.87126 0.88334 0.0
O122 O 0.42921 0.90126 0.94542 0.0
C123 C 0.52643 0.87126 0.98517 0.0
C124 C 0.39424 0.89565 0.92069 0.0
O125 O 0.486 0.80142 0.85085 0.0
Mg126 Mg 0.58661 0.44158 0.87471 0.0
O127 O 0.62674 0.42347 0.9417 0.0
O128 O 0.58648 0.38889 0.99663 0.0
Mg129 Mg 0.51374 0.38925 0.97491 0.0
C130 C 0.62297 0.40348 0.98141 0.0
C131 C 0.6454 0.48061 0.79612 0.0
O132 O 0.60854 0.47543 0.77314 0.0
O133 O 0.55962 0.50479 0.91164 0.0
O134 O 0.5295 0.44465 0.92969 0.0
O135 O 0.59367 0.37241 0.85213 0.0
O136 O 0.53971 0.39362 0.8991 0.0
C137 C 0.5318 0.48503 0.93684 0.0
C138 C 0.56105 0.36241 0.87889 0.0
O139 O 0.64625 0.47337 0.84058 0.0
Mg140 Mg 0.09109 0.58986 0.88583 0.0
O141 O 0.11354 0.63891 0.94123 0.0
O142 O 0.15018 0.60451 0.99847 0.0
Mg143 Mg 0.14671 0.53165 0.98294 0.0
C144 C 0.13557 0.63935 0.97956 0.0
C145 C 0.05675 0.65197 0.80557 0.0
O146 O 0.07703 0.62236 0.78008 0.0
O147 O 0.03386 0.56745 0.9348 0.0
O148 O 0.07272 0.53253 0.99042 0.0
O149 O 0.15853 0.59343 0.85346 0.0
O150 O 0.13921 0.54502 0.90682 0.0
C151 C 0.03622 0.54501 0.97323 0.0
C152 C 0.1693 0.56173 0.88132 0.0
O153 O 0.05437 0.64707 0.85038 0.0
Mg154 Mg 0.88022 0.05784 0.88391 0.0
O155 O 0.82844 0.07519 0.94052 0.0
O156 O 0.86082 0.11579 0.99579 0.0
Mg157 Mg 0.93321 0.11963 0.97914 0.0
C158 C 0.82691 0.0981 0.97839 0.0
C159 C 0.83596 0.02467 0.79967 0.0
O160 O 0.87359 0.04129 0.78732 0.0
O161 O 0.91092 0.00329 0.93066 0.0
O162 O 0.94204 0.04601 0.98515 0.0
O163 O 0.86515 0.12181 0.85086 0.0
O164 O 0.91751 0.11185 0.90374 0.0
C165 C 0.9341 0.00839 0.96821 0.0
C166 C 0.89413 0.13812 0.87876 0.0
O167 O 0.82965 0.01747 0.84362 0.0
Mg168 Mg 0.42344 0.58434 0.6311 0.0
O169 O 0.40708 0.63436 0.57281 0.0
O170 O 0.36202 0.60124 0.52234 0.0
Mg171 Mg 0.35202 0.5304 0.54426 0.0
C172 C 0.38258 0.63494 0.53612 0.0
C173 C 0.50308 0.65617 0.67991 0.0
O174 O 0.54378 0.65183 0.66623 0.0
O175 O 0.47241 0.5475 0.58124 0.0
O176 O 0.42347 0.51443 0.53485 0.0
O177 O 0.36022 0.60591 0.66516 0.0
O178 O 0.36648 0.54984 0.61679 0.0
C179 C 0.46265 0.52087 0.54779 0.0
C180 C 0.34184 0.57599 0.64001 0.0
O181 O 0.47466 0.63064 0.66259 0.0
Mg182 Mg 0.85752 0.46013 0.5917 0.0
O183 O 0.80892 0.42256 0.54282 0.0
O184 O 0.84395 0.39011 0.48194 0.0
Mg185 Mg 0.90751 0.42631 0.47874 0.0
C186 C 0.80999 0.39654 0.50717 0.0
C187 C 0.80225 0.47708 0.68307 0.0
O188 O 0.83804 0.46049 0.70149 0.0
O189 O 0.8591 0.5236 0.54767 0.0
O190 O 0.86079 0.48277 0.48597 0.0
O191 O 0.8759 0.39561 0.62073 0.0
O192 O 0.90897 0.42473 0.55871 0.0
C193 C 0.87477 0.51628 0.50665 0.0
C194 C 0.90329 0.39161 0.58605 0.0
O195 O 0.80041 0.48294 0.63837 0.0
Mg196 Mg 0.0352 0.87005 0.61563 0.0
O197 O 0.05358 0.82177 0.55392 0.0
O198 O 0.08856 0.85867 0.49679 0.0
Mg199 Mg 0.06238 0.9267 0.50628 0.0
C200 C 0.07728 0.82303 0.51634 0.0
C201 C 0.03004 0.81203 0.7022 0.0
O202 O 0.05357 0.84567 0.71465 0.0
O203 O 0.96784 0.89304 0.58532 0.0
O204 O 0.00086 0.88906 0.51791 0.0
O205 O 0.1054 0.86917 0.63301 0.0
O206 O 0.07625 0.91701 0.58338 0.0
C207 C 0.96971 0.90456 0.54193 0.0
C208 C 0.11068 0.8995 0.60191 0.0
O209 O 0.01156 0.81275 0.66159 0.0
Mg210 Mg 0.60033 0.0804 0.63112 0.0
O211 O 0.65186 0.09944 0.57553 0.0
O212 O 0.61779 0.13495 0.51711 0.0
Mg213 Mg 0.54453 0.13005 0.52835 0.0
C214 C 0.65258 0.12129 0.53714 0.0
C215 C 0.68912 0.06547 0.67969 0.0
O216 O 0.69136 0.10506 0.66255 0.0
O217 O 0.57851 0.02051 0.58655 0.0
O218 O 0.54617 0.05609 0.52669 0.0
O219 O 0.60297 0.14999 0.6584 0.0
O220 O 0.5562 0.12701 0.60486 0.0
C221 C 0.5576 0.02075 0.54703 0.0
C222 C 0.57212 0.15873 0.62851 0.0
O223 O 0.65443 0.04386 0.673 0.0
C224 C 0.51226 0.26783 0.94334 0.0
C225 C 0.54794 0.23936 0.94619 0.0
H226 H 0.48795 0.32874 0.91779 0.0
C227 C 0.58604 0.24846 0.92087 0.0
H228 H 0.48277 0.2614 0.96314 0.0
C229 C 0.58929 0.28725 0.89522 0.0
C230 C 0.55455 0.31738 0.89519 0.0
H231 H 0.61413 0.22703 0.92346 0.0
H232 H 0.61997 0.29501 0.87844 0.0
C233 C 0.51538 0.30637 0.91769 0.0
C234 C 0.24607 0.58324 0.89949 0.0
C235 C 0.21502 0.55056 0.89251 0.0
H236 H 0.3043 0.60137 0.93669 0.0
C237 C 0.22474 0.50804 0.90741 0.0
H238 H 0.23911 0.61639 0.88883 0.0
C239 C 0.26203 0.49945 0.93425 0.0
C240 C 0.2902 0.53322 0.94663 0.0
H241 H 0.2013 0.48228 0.90244 0.0
H242 H 0.26602 0.46756 0.95004 0.0
C243 C 0.28353 0.57459 0.92664 0.0
C244 C 0.85178 0.2016 0.90716 0.0
C245 C 0.89184 0.18396 0.89245 0.0
H246 H 0.82016 0.25063 0.94922 0.0
C247 C 0.9303 0.20711 0.90044 0.0
H248 H 0.82186 0.18369 0.90222 0.0
C249 C 0.92906 0.2461 0.9258 0.0
C250 C 0.88956 0.26133 0.94463 0.0
H251 H 0.96152 0.19359 0.88988 0.0
H252 H 0.95942 0.26185 0.93482 0.0
C253 C 0.85075 0.23978 0.93391 0.0
C254 C 0.31253 0.89514 0.91792 0.0
C255 C 0.35139 0.90939 0.93935 0.0
H256 H 0.2431 0.8887 0.92476 0.0
C257 C 0.34906 0.93333 0.98165 0.0
H258 H 0.31332 0.87667 0.88519 0.0
C259 C 0.30925 0.93969 0.00416 0.0
C260 C 0.27082 0.92318 0.98433 0.0
H261 H 0.37815 0.94556 0.99859 0.0
H262 H 0.30874 0.956 0.03829 0.0
C263 C 0.27234 0.90219 0.94024 0.0
C264 C 0.58509 0.27088 0.57736 0.0
C265 C 0.54436 0.27598 0.55511 0.0
H266 H 0.62608 0.22911 0.61964 0.0
C267 C 0.51085 0.2471 0.56611 0.0
H268 H 0.61178 0.29209 0.5682 0.0
C269 C 0.51897 0.21124 0.59508 0.0
C270 C 0.56089 0.20338 0.61333 0.0
H271 H 0.47952 0.24984 0.54852 0.0
H272 H 0.49345 0.18748 0.59961 0.0
C273 C 0.59331 0.23475 0.6066 0.0
C274 C 0.27131 0.54125 0.62355 0.0
C275 C 0.29634 0.57923 0.62436 0.0
H276 H 0.21967 0.50652 0.5894 0.0
C277 C 0.28409 0.61439 0.59542 0.0
H278 H 0.28086 0.51339 0.64474 0.0
C279 C 0.25076 0.60958 0.56197 0.0
C280 C 0.2281 0.57028 0.55874 0.0
H281 H 0.30342 0.64368 0.5948 0.0
H282 H 0.24419 0.63567 0.53713 0.0
C283 C 0.23683 0.5371 0.59148 0.0
C284 C 0.90473 0.31032 0.59358 0.0
C285 C 0.92055 0.34848 0.57233 0.0
H286 H 0.89854 0.24095 0.58783 0.0
C287 C 0.94917 0.34494 0.53375 0.0
H288 H 0.88277 0.31207 0.62357 0.0
C289 C 0.95801 0.30453 0.51361 0.0
C290 C 0.93904 0.26687 0.53212 0.0
H291 H 0.96259 0.37358 0.51714 0.0
H292 H 0.97727 0.30304 0.48141 0.0
C293 C 0.91403 0.2696 0.57355 0.0
C294 C 0.19018 0.88133 0.59506 0.0
C295 C 0.15413 0.90702 0.58127 0.0
H296 H 0.25655 0.86294 0.58038 0.0
C297 C 0.15903 0.93709 0.5443 0.0
H298 H 0.1874 0.85777 0.62338 0.0
C299 C 0.19808 0.93922 0.51938 0.0
C300 C 0.23332 0.91238 0.53195 0.0
H301 H 0.13228 0.9579 0.53337 0.0
H302 H 0.20047 0.96123 0.48952 0.0
C303 C 0.22972 0.88424 0.57069 0.0
C304 C 0.39163 0.74119 0.04982 0.0
C305 C 0.38733 0.75881 0.00415 0.0
H306 H 0.37396 0.68973 0.09711 0.0
C307 C 0.35928 0.7391 0.97134 0.0
H308 H 0.41291 0.75615 0.07572 0.0
C309 C 0.33561 0.70229 0.98421 0.0
C310 C 0.34082 0.684 0.02954 0.0
H311 H 0.35514 0.75262 0.93611 0.0
H312 H 0.31433 0.68732 0.95832 0.0
C313 C 0.36921 0.70355 0.06211 0.0
C314 C 0.70313 0.41193 0.99687 0.0
C315 C 0.66349 0.39125 0.00706 0.0
H316 H 0.77278 0.40999 0.00315 0.0
C317 C 0.66399 0.35488 0.03719 0.0
H318 H 0.70384 0.44021 0.97405 0.0
C319 C 0.70343 0.33721 0.0531 0.0
C320 C 0.74321 0.3561 0.04017 0.0
H321 H 0.63412 0.33827 0.04594 0.0
H322 H 0.70288 0.30757 0.07382 0.0
C323 C 0.74262 0.39475 0.01369 0.0
C324 C 0.12631 0.72035 0.98598 0.0
C325 C 0.14751 0.68181 1.00038 0.0
H326 H 0.12369 0.78991 0.99081 0.0
C327 C 0.18228 0.6845 0.03264 0.0
H328 H 0.0993 0.71939 0.96122 0.0
C329 C 0.19694 0.7248 0.04845 0.0
C330 C 0.17619 0.76328 0.03361 0.0
H331 H 0.19898 0.65551 0.0448 0.0
H332 H 0.22458 0.7258 0.07237 0.0
C333 C 0.1402 0.7607 0.00292 0.0
C334 C 0.74037 0.16111 0.04548 0.0
C335 C 0.7019 0.1441 0.02635 0.0
H336 H 0.80984 0.15775 0.04772 0.0
C337 C 0.70459 0.10821 0.99549 0.0
H338 H 0.73923 0.1883 0.06995 0.0
C339 C 0.74521 0.09165 0.98142 0.0
C340 C 0.78387 0.10997 0.99891 0.0
H341 H 0.67537 0.09432 0.98039 0.0
H342 H 0.74629 0.06548 0.9557 0.0
C343 C 0.78081 0.14364 0.03263 0.0
C344 C 0.39066 0.71635 0.52897 0.0
C345 C 0.37146 0.67729 0.51367 0.0
H346 H 0.38889 0.78626 0.52635 0.0
C347 C 0.3371 0.67949 0.48073 0.0
H348 H 0.41723 0.71592 0.55429 0.0
C349 C 0.32017 0.71944 0.46613 0.0
C350 C 0.338 0.75835 0.48299 0.0
H351 H 0.32191 0.65027 0.4677 0.0
H352 H 0.29269 0.71988 0.44195 0.0
C353 C 0.37437 0.7566 0.51323 0.0
C354 C 0.75468 0.33967 0.52292 0.0
C355 C 0.77041 0.37313 0.49404 0.0
H356 H 0.70528 0.29154 0.53272 0.0
C357 C 0.74893 0.38322 0.45152 0.0
H358 H 0.77127 0.33126 0.55565 0.0
C359 C 0.71112 0.36116 0.43878 0.0
C360 C 0.69504 0.32778 0.46769 0.0
H361 H 0.76092 0.40877 0.42869 0.0
H362 H 0.69423 0.3704 0.4065 0.0
C363 C 0.71744 0.31674 0.50954 0.0
C364 C 0.15274 0.74424 0.45351 0.0
C365 C 0.1347 0.70403 0.46565 0.0
H366 H 0.1483 0.81332 0.45939 0.0
C367 C 0.09577 0.7032 0.49191 0.0
H368 H 0.18263 0.74585 0.43322 0.0
C369 C 0.07643 0.74187 0.50771 0.0
C370 C 0.09517 0.78208 0.49666 0.0
H371 H 0.08126 0.67261 0.50203 0.0
H372 H 0.04725 0.74025 0.52918 0.0
C373 C 0.13295 0.78287 0.46846 0.0
C374 C 0.69668 0.17753 0.49693 0.0
C375 C 0.69488 0.13674 0.51889 0.0
H376 H 0.73625 0.2268 0.46612 0.0
C377 C 0.73378 0.11323 0.52585 0.0
H378 H 0.66727 0.19635 0.49205 0.0
C379 C 0.77358 0.13023 0.51036 0.0
C380 C 0.77523 0.17156 0.48891 0.0
H381 H 0.7334 0.08179 0.54309 0.0
H382 H 0.80308 0.11133 0.51586 0.0
C383 C 0.73627 0.195 0.48255 0.0
C384 C 0.54102 0.94644 0.95447 0.0
C385 C 0.53479 0.91826 0.99289 0.0
H386 H 0.54885 0.01176 0.93113 0.0
C387 C 0.53369 0.93587 0.03912 0.0
H388 H 0.54165 0.93421 0.91841 0.0
C389 C 0.53796 0.98077 0.04665 0.0
C390 C 0.54316 0.009 0.00799 0.0
H391 H 0.52898 0.91488 0.06949 0.0
H392 H 0.53663 -0.00666 0.08253 0.0
C393 C 0.5449 -0.00886 0.96191 0.0
C394 C 0.50209 0.55845 0.04038 0.0
C395 C 0.46448 0.53812 0.05797 0.0
H396 H 0.55262 0.55826 0.98766 0.0
C397 C 0.44769 0.50232 0.03348 0.0
H398 H 0.51589 0.58601 0.05887 0.0
C399 C 0.46921 0.48597 0.99341 0.0
C400 C 0.50764 0.50541 0.97667 0.0
H401 H 0.41933 0.48555 0.04677 0.0
H402 H 0.45622 0.45744 0.97603 0.0
C403 C 0.52318 0.5426 0.99973 0.0
C404 C 0.95807 0.52052 0.96973 0.0
C405 C -0.00344 0.52655 0.99578 0.0
H406 H 0.89792 0.4862 0.96394 0.0
C407 C -0.00025 0.50753 0.04123 0.0
H408 H 0.95436 0.53469 0.93478 0.0
C409 C 0.9676 0.47939 0.05789 0.0
C410 C 0.9313 0.46967 0.02962 0.0
H411 H 0.02863 0.51201 0.06275 0.0
H412 H 0.97276 0.46302 0.09147 0.0
C413 C 0.92576 0.49242 0.98651 0.0
C414 C 0.01387 0.91498 0.97485 0.0
C415 C 0.03205 0.92184 0.02023 0.0
H416 H 0.96737 0.93652 0.92278 0.0
C417 C 0.01045 0.95029 0.0515 0.0
H418 H 0.02928 0.89285 0.94998 0.0
C419 C 0.97477 0.97503 0.03591 0.0
C420 C 0.95977 0.97185 0.98877 0.0
H421 H 0.02301 0.95592 0.0869 0.0
H422 H 0.9611 -0.00078 0.05971 0.0
C423 C 0.978 0.93972 0.95928 0.0
C424 C 0.53168 0.51729 0.50037 0.0
C425 C 0.49615 0.49629 0.52104 0.0
H426 H 0.5805 0.5149 0.44607 0.0
C427 C 0.48694 0.45325 0.5074 0.0
H428 H 0.53909 0.55059 0.5097 0.0
C429 C 0.51023 0.43292 0.47092 0.0
C430 C 0.54336 0.45517 0.44739 0.0
H431 H 0.45948 0.43638 0.52268 0.0
H432 H 0.49986 0.40132 0.45859 0.0
C433 C 0.55499 0.49693 0.46364 0.0
C434 C -0.00423 0.52675 0.52753 0.0
C435 C 0.01186 0.52892 0.48081 0.0
H436 H 0.93994 0.5224 0.57261 0.0
C437 C 0.98212 0.5312 0.44302 0.0
H438 H 0.01784 0.52546 0.55754 0.0
C439 C 0.93723 0.52903 0.4518 0.0
C440 C 0.92133 0.52571 0.4985 0.0
H441 H -0.00646 0.53307 0.40674 0.0
H442 H 0.91488 0.52883 0.42201 0.0
C443 C 0.95106 0.52557 0.53633 0.0
C444 C 0.92751 0.97386 0.55796 0.0
C445 C 0.94971 0.94644 0.52612 0.0
H446 H 0.89886 0.03651 0.57017 0.0
C447 C 0.95628 0.96112 0.47928 0.0
H448 H 0.92166 0.96368 0.59415 0.0
C449 C 0.94333 0.00303 0.46543 0.0
C450 C 0.92337 0.03134 0.49805 0.0
H451 H 0.9729 0.94072 0.45358 0.0
H452 H 0.95039 0.01372 0.42967 0.0
C453 C 0.91454 0.01577 0.5441 0.0
C454 C 0.51937 0.95009 0.55916 0.0
C455 C 0.53717 0.98079 0.52806 0.0
H456 H 0.47036 0.90195 0.56957 0.0
C457 C 0.52486 0.97953 0.4799 0.0
H458 H 0.52798 0.9503 0.59645 0.0
C459 C 0.49145 0.95225 0.4645 0.0
C460 C 0.46972 0.9255 0.49694 0.0
H461 H 0.53831 0.00254 0.45492 0.0
H462 H 0.48046 0.95469 0.42805 0.0
C463 C 0.4859 0.92269 0.54372 0.0
C464 C 0.551 0.26452 0.26188 0.0
C465 C 0.57153 0.23978 0.29734 0.0
H466 H 0.53536 0.27063 0.18826 0.0
C467 C 0.59043 0.19934 0.28457 0.0
H468 H 0.53545 0.2953 0.27028 0.0
C469 C 0.58992 0.18483 0.23717 0.0
C470 C 0.57052 0.21054 0.20181 0.0
H471 H 0.60643 0.17929 0.31103 0.0
H472 H 0.60622 0.15464 0.22793 0.0
C473 C 0.55058 0.25012 0.21489 0.0
C474 C 0.24625 0.54229 0.2826 0.0
C475 C 0.21222 0.57098 0.29484 0.0
H476 H 0.2892 0.5187 0.22833 0.0
C477 C 0.19449 0.59815 0.25971 0.0
H478 H 0.26091 0.5215 0.30933 0.0
C479 C 0.21097 0.59684 0.21318 0.0
C480 C 0.24593 0.56884 0.20125 0.0
H481 H 0.1692 0.62151 0.26863 0.0
H482 H 0.19717 0.61861 0.18687 0.0
C483 C 0.26291 0.54119 0.23643 0.0
C484 C 0.8331 0.24466 0.22698 0.0
C485 C 0.87002 0.25964 0.20274 0.0
H486 H 0.80803 0.21687 0.29115 0.0
C487 C 0.91132 0.25288 0.22298 0.0
H488 H 0.80097 0.24851 0.21151 0.0
C489 C 0.91548 0.23252 0.26729 0.0
C490 C 0.87843 0.21895 0.29228 0.0
H491 H 0.94038 0.26277 0.20424 0.0
H492 H 0.94751 0.22951 0.28322 0.0
C493 C 0.83719 0.22535 0.27175 0.0
C494 C 0.24569 0.83851 0.29153 0.0
C495 C 0.27056 0.87433 0.3065 0.0
H496 H 0.2045 0.81195 0.23743 0.0
C497 C 0.26574 0.91398 0.28249 0.0
H498 H 0.24826 0.80758 0.3097 0.0
C499 C 0.23876 0.91687 0.2425 0.0
C500 C 0.21702 0.88003 0.22521 0.0
H501 H 0.2838 0.94232 0.2936 0.0
H502 H 0.2385 0.94676 0.22219 0.0
C503 C 0.21958 0.84119 0.25095 0.0
C504 C 0.51307 0.73994 0.7789 0.0
C505 C 0.46929 0.75075 0.78796 0.0
H506 H 0.558 0.70189 0.73775 0.0
C507 C 0.4367 0.73025 0.76095 0.0
H508 H 0.53901 0.75509 0.7989 0.0
C509 C 0.44755 0.69953 0.72605 0.0
C510 C 0.4913 0.68877 0.71694 0.0
H511 H 0.40262 0.73786 0.76675 0.0
H512 H 0.42161 0.68445 0.70598 0.0
C513 C 0.52393 0.70947 0.7437 0.0
C514 C 0.76492 0.47565 0.76236 0.0
C515 C 0.76316 0.48404 0.71329 0.0
H516 H 0.72933 0.46864 0.82722 0.0
C517 C 0.72297 0.49604 0.69302 0.0
H518 H 0.79535 0.46651 0.77925 0.0
C519 C 0.68505 0.49716 0.72057 0.0
C520 C 0.68644 0.48658 0.76911 0.0
H521 H 0.72043 0.50299 0.65545 0.0
H522 H 0.65437 0.50489 0.70341 0.0
C523 C 0.72704 0.47706 0.78999 0.0
C524 C 0.05778 0.77094 0.77308 0.0
C525 C 0.03154 0.77203 0.73196 0.0
H526 H 0.08581 0.73214 0.82872 0.0
C527 C 0.01051 0.73366 0.71787 0.0
H528 H 0.07495 0.79963 0.78483 0.0
C529 C 0.01731 0.69476 0.74296 0.0
C530 C 0.04442 0.69372 0.78315 0.0
H531 H 0.99008 0.73329 0.68652 0.0
H532 H 0.00208 0.66525 0.73042 0.0
C533 C 0.06395 0.73231 0.79848 0.0
C534 C 0.76866 0.06195 0.69498 0.0
C535 C 0.72673 0.04793 0.7068 0.0
H536 H 0.83574 0.06433 0.7138 0.0
C537 C 0.72144 0.02126 0.74689 0.0
H538 H 0.77381 0.08232 0.66418 0.0
C539 C 0.75725 0.01149 0.77643 0.0
C540 C 0.79895 0.02741 0.76559 0.0
H541 H 0.68937 0.0101 0.75685 0.0
H542 H 0.75202 -0.00706 0.80852 0.0
C543 C 0.80429 0.05141 0.72354 0.0
loop_
_geom_bond_atom_site_label_1
_geom_bond_atom_site_label_2
_geom_bond_distance
_geom_bond_site_symmetry_2
_ccdc_geom_bond_type
Mg0 O1 2.028 . S
Mg0 O7 1.986 . S
Mg0 O9 2.114 . S
Mg0 O10 2.251 . S
Mg0 O13 2.010 . S
O1 Mg0 2.028 . S
O1 C4 1.250 . S
O2 Mg3 2.028 . S
O2 C4 1.248 . S
Mg3 O2 2.028 . S
Mg3 O8 2.032 . S
Mg3 O10 2.079 . S
C4 O1 1.250 . S
C4 O2 1.248 . S
C5 O6 1.264 . S
C5 O13 1.249 . S
O6 C5 1.264 . S
O7 Mg0 1.986 . S
O7 C11 1.246 . S
O8 Mg3 2.032 . S
O8 C11 1.259 . S
O9 Mg0 2.114 . S
O9 C12 1.252 . S
O10 Mg0 2.251 . S
O10 Mg3 2.079 . S
O10 C12 1.273 . S
C11 O7 1.246 . S
C11 O8 1.259 . S
C12 O9 1.252 . S
C12 O10 1.273 . S
O13 Mg0 2.010 . S
O13 C5 1.249 . S
Mg14 O15 2.028 . S
Mg14 O21 1.986 . S
Mg14 O23 2.114 . S
Mg14 O24 2.251 . S
Mg14 O27 2.010 . S
O15 Mg14 2.028 . S
O15 C18 1.250 . S
O16 Mg17 2.028 . S
O16 C18 1.248 . S
Mg17 O16 2.028 . S
Mg17 O22 2.032 . S
Mg17 O24 2.079 . S
C18 O15 1.250 . S
C18 O16 1.248 . S
C19 O20 1.264 . S
C19 O27 1.249 . S
O20 C19 1.264 . S
O21 Mg14 1.986 . S
O21 C25 1.246 . S
O22 Mg17 2.032 . S
O22 C25 1.259 . S
O23 Mg14 2.114 . S
O23 C26 1.252 . S
O24 Mg14 2.251 . S
O24 Mg17 2.079 . S
O24 C26 1.273 . S
C25 O21 1.246 . S
C25 O22 1.259 . S
C26 O23 1.252 . S
C26 O24 1.273 . S
O27 Mg14 2.010 . S
O27 C19 1.249 . S
Mg28 O29 2.028 . S
Mg28 O35 1.986 . S
Mg28 O37 2.114 . S
Mg28 O38 2.251 . S
Mg28 O41 2.010 . S
O29 Mg28 2.028 . S
O29 C32 1.250 . S
O30 Mg31 2.028 . S
O30 C32 1.248 . S
Mg31 O30 2.028 . S
Mg31 O36 2.032 . S
Mg31 O38 2.079 . S
C32 O29 1.250 . S
C32 O30 1.248 . S
C33 O34 1.264 1_655 S
C33 O41 1.249 . S
O34 C33 1.264 1_455 S
O35 Mg28 1.986 . S
O35 C39 1.246 . S
O36 Mg31 2.032 . S
O36 C39 1.259 . S
O37 Mg28 2.114 . S
O37 C40 1.252 . S
O38 Mg28 2.251 . S
O38 Mg31 2.079 . S
O38 C40 1.273 . S
C39 O35 1.246 . S
C39 O36 1.259 . S
C40 O37 1.252 . S
C40 O38 1.273 . S
O41 Mg28 2.010 . S
O41 C33 1.249 . S
Mg42 O43 2.028 . S
Mg42 O49 1.986 . S
Mg42 O51 2.114 . S
Mg42 O52 2.251 . S
Mg42 O55 2.010 . S
O43 Mg42 2.028 . S
O43 C46 1.250 . S
O44 Mg45 2.028 . S
O44 C46 1.248 . S
Mg45 O44 2.028 . S
Mg45 O50 2.032 . S
Mg45 O52 2.079 . S
C46 O43 1.250 . S
C46 O44 1.248 . S
C47 O48 1.264 1_565 S
C47 O55 1.249 . S
O48 C47 1.264 1_545 S
O49 Mg42 1.986 . S
O49 C53 1.246 . S
O50 Mg45 2.032 . S
O50 C53 1.259 . S
O51 Mg42 2.114 . S
O51 C54 1.252 . S
O52 Mg42 2.251 . S
O52 Mg45 2.079 . S
O52 C54 1.273 . S
C53 O49 1.246 . S
C53 O50 1.259 . S
C54 O51 1.252 . S
C54 O52 1.273 . S
O55 Mg42 2.010 . S
O55 C47 1.249 . S
Mg56 O57 2.028 . S
Mg56 O63 1.986 . S
Mg56 O65 2.114 . S
Mg56 O66 2.251 . S
Mg56 O69 2.010 . S
O57 Mg56 2.028 . S
O57 C60 1.250 . S
O58 Mg59 2.028 . S
O58 C60 1.248 . S
Mg59 O58 2.028 . S
Mg59 O64 2.032 . S
Mg59 O66 2.079 . S
C60 O57 1.250 . S
C60 O58 1.248 . S
C61 O62 1.264 . S
C61 O69 1.249 . S
O62 C61 1.264 . S
O63 Mg56 1.986 . S
O63 C67 1.246 . S
O64 Mg59 2.032 . S
O64 C67 1.259 . S
O65 Mg56 2.114 . S
O65 C68 1.252 . S
O66 Mg56 2.251 . S
O66 Mg59 2.079 . S
O66 C68 1.273 . S
C67 O63 1.246 . S
C67 O64 1.259 . S
C68 O65 1.252 . S
C68 O66 1.273 . S
O69 Mg56 2.010 . S
O69 C61 1.249 . S
Mg70 O71 2.028 . S
Mg70 O77 1.986 . S
Mg70 O79 2.114 . S
Mg70 O80 2.251 . S
Mg70 O83 2.010 . S
O71 Mg70 2.028 . S
O71 C74 1.250 . S
O72 Mg73 2.028 . S
O72 C74 1.248 . S
Mg73 O72 2.028 . S
Mg73 O78 2.032 . S
Mg73 O80 2.079 . S
C74 O71 1.250 . S
C74 O72 1.248 . S
C75 O76 1.264 . S
C75 O83 1.249 . S
O76 C75 1.264 . S
O77 Mg70 1.986 . S
O77 C81 1.246 . S
O78 Mg73 2.032 . S
O78 C81 1.259 . S
O79 Mg70 2.114 . S
O79 C82 1.252 . S
O80 Mg70 2.251 . S
O80 Mg73 2.079 . S
O80 C82 1.273 . S
C81 O77 1.246 . S
C81 O78 1.259 . S
C82 O79 1.252 . S
C82 O80 1.273 . S
O83 Mg70 2.010 . S
O83 C75 1.249 . S
Mg84 O85 2.028 . S
Mg84 O91 1.986 . S
Mg84 O93 2.114 . S
Mg84 O94 2.251 . S
Mg84 O97 2.010 . S
O85 Mg84 2.028 . S
O85 C88 1.250 . S
O86 Mg87 2.028 . S
O86 C88 1.248 . S
Mg87 O86 2.028 . S
Mg87 O92 2.032 . S
Mg87 O94 2.079 . S
C88 O85 1.250 . S
C88 O86 1.248 . S
C89 O90 1.264 1_655 S
C89 O97 1.249 . S
O90 C89 1.264 1_455 S
O91 Mg84 1.986 . S
O91 C95 1.246 . S
O92 Mg87 2.032 . S
O92 C95 1.259 . S
O93 Mg84 2.114 . S
O93 C96 1.252 . S
O94 Mg84 2.251 . S
O94 Mg87 2.079 . S
O94 C96 1.273 . S
C95 O91 1.246 . S
C95 O92 1.259 . S
C96 O93 1.252 . S
C96 O94 1.273 . S
O97 Mg84 2.010 . S
O97 C89 1.249 . S
Mg98 O99 2.028 . S
Mg98 O105 1.986 . S
Mg98 O107 2.114 . S
Mg98 O108 2.251 . S
Mg98 O111 2.010 . S
O99 Mg98 2.028 . S
O99 C102 1.250 . S
O100 Mg101 2.028 . S
O100 C102 1.248 . S
Mg101 O100 2.028 . S
Mg101 O106 2.032 . S
Mg101 O108 2.079 . S
C102 O99 1.250 . S
C102 O100 1.248 . S
C103 O104 1.264 1_565 S
C103 O111 1.249 . S
O104 C103 1.264 1_545 S
O105 Mg98 1.986 . S
O105 C109 1.246 . S
O106 Mg101 2.032 . S
O106 C109 1.259 . S
O107 Mg98 2.114 . S
O107 C110 1.252 . S
O108 Mg98 2.251 . S
O108 Mg101 2.079 . S
O108 C110 1.273 . S
C109 O105 1.246 . S
C109 O106 1.259 . S
C110 O107 1.252 . S
C110 O108 1.273 . S
O111 Mg98 2.010 . S
O111 C103 1.249 . S
Mg112 O113 2.028 . S
Mg112 O119 1.986 . S
Mg112 O121 2.114 . S
Mg112 O122 2.251 . S
Mg112 O125 2.010 . S
O113 Mg112 2.028 . S
O113 C116 1.250 . S
O114 Mg115 2.028 . S
O114 C116 1.248 1_554 S
Mg115 O114 2.028 . S
Mg115 O120 2.032 . S
Mg115 O122 2.079 1_554 S
C116 O113 1.250 . S
C116 O114 1.248 1_556 S
C117 O118 1.264 . S
C117 O125 1.249 . S
O118 C117 1.264 . S
O119 Mg112 1.986 . S
O119 C123 1.246 . S
O120 Mg115 2.032 . S
O120 C123 1.259 1_554 S
O121 Mg112 2.114 . S
O121 C124 1.252 . S
O122 Mg112 2.251 . S
O122 Mg115 2.079 1_556 S
O122 C124 1.273 . S
C123 O119 1.246 . S
C123 O120 1.259 1_556 S
C124 O121 1.252 . S
C124 O122 1.273 . S
O125 Mg112 2.010 . S
O125 C117 1.249 . S
Mg126 O127 2.028 . S
Mg126 O133 1.986 . S
Mg126 O135 2.114 . S
Mg126 O136 2.251 . S
Mg126 O139 2.010 . S
O127 Mg126 2.028 . S
O127 C130 1.250 . S
O128 Mg129 2.028 . S
O128 C130 1.248 1_554 S
Mg129 O128 2.028 . S
Mg129 O134 2.032 . S
Mg129 O136 2.079 1_554 S
C130 O127 1.250 . S
C130 O128 1.248 1_556 S
C131 O132 1.264 . S
C131 O139 1.249 . S
O132 C131 1.264 . S
O133 Mg126 1.986 . S
O133 C137 1.246 . S
O134 Mg129 2.032 . S
O134 C137 1.259 1_554 S
O135 Mg126 2.114 . S
O135 C138 1.252 . S
O136 Mg126 2.251 . S
O136 Mg129 2.079 1_556 S
O136 C138 1.273 . S
C137 O133 1.246 . S
C137 O134 1.259 1_556 S
C138 O135 1.252 . S
C138 O136 1.273 . S
O139 Mg126 2.010 . S
O139 C131 1.249 . S
Mg140 O141 2.028 . S
Mg140 O147 1.986 . S
Mg140 O149 2.114 . S
Mg140 O150 2.251 . S
Mg140 O153 2.010 . S
O141 Mg140 2.028 . S
O141 C144 1.250 . S
O142 Mg143 2.028 . S
O142 C144 1.248 1_554 S
Mg143 O142 2.028 . S
Mg143 O148 2.032 . S
Mg143 O150 2.079 1_554 S
C144 O141 1.250 . S
C144 O142 1.248 1_556 S
C145 O146 1.264 . S
C145 O153 1.249 . S
O146 C145 1.264 . S
O147 Mg140 1.986 . S
O147 C151 1.246 . S
O148 Mg143 2.032 . S
O148 C151 1.259 1_554 S
O149 Mg140 2.114 . S
O149 C152 1.252 . S
O150 Mg140 2.251 . S
O150 Mg143 2.079 1_556 S
O150 C152 1.273 . S
C151 O147 1.246 . S
C151 O148 1.259 1_556 S
C152 O149 1.252 . S
C152 O150 1.273 . S
O153 Mg140 2.010 . S
O153 C145 1.249 . S
Mg154 O155 2.028 . S
Mg154 O161 1.986 . S
Mg154 O163 2.114 . S
Mg154 O164 2.251 . S
Mg154 O167 2.010 . S
O155 Mg154 2.028 . S
O155 C158 1.250 . S
O156 Mg157 2.028 . S
O156 C158 1.248 1_554 S
Mg157 O156 2.028 . S
Mg157 O162 2.032 . S
Mg157 O164 2.079 1_554 S
C158 O155 1.250 . S
C158 O156 1.248 1_556 S
C159 O160 1.264 . S
C159 O167 1.249 . S
O160 C159 1.264 . S
O161 Mg154 1.986 . S
O161 C165 1.246 . S
O162 Mg157 2.032 . S
O162 C165 1.259 1_554 S
O163 Mg154 2.114 . S
O163 C166 1.252 . S
O164 Mg154 2.251 . S
O164 Mg157 2.079 1_556 S
O164 C166 1.273 . S
C165 O161 1.246 . S
C165 O162 1.259 1_556 S
C166 O163 1.252 . S
C166 O164 1.273 . S
O167 Mg154 2.010 . S
O167 C159 1.249 . S
Mg168 O169 2.028 . S
Mg168 O175 1.986 . S
Mg168 O177 2.114 . S
Mg168 O178 2.251 . S
Mg168 O181 2.010 . S
O169 Mg168 2.028 . S
O169 C172 1.250 . S
O170 Mg171 2.028 . S
O170 C172 1.248 . S
Mg171 O170 2.028 . S
Mg171 O176 2.032 . S
Mg171 O178 2.079 . S
C172 O169 1.250 . S
C172 O170 1.248 . S
C173 O174 1.264 . S
C173 O181 1.249 . S
O174 C173 1.264 . S
O175 Mg168 1.986 . S
O175 C179 1.246 . S
O176 Mg171 2.032 . S
O176 C179 1.259 . S
O177 Mg168 2.114 . S
O177 C180 1.252 . S
O178 Mg168 2.251 . S
O178 Mg171 2.079 . S
O178 C180 1.273 . S
C179 O175 1.246 . S
C179 O176 1.259 . S
C180 O177 1.252 . S
C180 O178 1.273 . S
O181 Mg168 2.010 . S
O181 C173 1.249 . S
Mg182 O183 2.028 . S
Mg182 O189 1.986 . S
Mg182 O191 2.114 . S
Mg182 O192 2.251 . S
Mg182 O195 2.010 . S
O183 Mg182 2.028 . S
O183 C186 1.250 . S
O184 Mg185 2.028 . S
O184 C186 1.248 . S
Mg185 O184 2.028 . S
Mg185 O190 2.032 . S
Mg185 O192 2.079 . S
C186 O183 1.250 . S
C186 O184 1.248 . S
C187 O188 1.264 . S
C187 O195 1.249 . S
O188 C187 1.264 . S
O189 Mg182 1.986 . S
O189 C193 1.246 . S
O190 Mg185 2.032 . S
O190 C193 1.259 . S
O191 Mg182 2.114 . S
O191 C194 1.252 . S
O192 Mg182 2.251 . S
O192 Mg185 2.079 . S
O192 C194 1.273 . S
C193 O189 1.246 . S
C193 O190 1.259 . S
C194 O191 1.252 . S
C194 O192 1.273 . S
O195 Mg182 2.010 . S
O195 C187 1.249 . S
Mg196 O197 2.028 . S
Mg196 O203 1.986 . S
Mg196 O205 2.114 . S
Mg196 O206 2.251 . S
Mg196 O209 2.010 . S
O197 Mg196 2.028 . S
O197 C200 1.250 . S
O198 Mg199 2.028 . S
O198 C200 1.248 . S
Mg199 O198 2.028 . S
Mg199 O204 2.032 . S
Mg199 O206 2.079 . S
C200 O197 1.250 . S
C200 O198 1.248 . S
C201 O202 1.264 . S
C201 O209 1.249 . S
O202 C201 1.264 . S
O203 Mg196 1.986 . S
O203 C207 1.246 . S
O204 Mg199 2.032 . S
O204 C207 1.259 . S
O205 Mg196 2.114 . S
O205 C208 1.252 . S
O206 Mg196 2.251 . S
O206 Mg199 2.079 . S
O206 C208 1.273 . S
C207 O203 1.246 . S
C207 O204 1.259 . S
C208 O205 1.252 . S
C208 O206 1.273 . S
O209 Mg196 2.010 . S
O209 C201 1.249 . S
Mg210 O211 2.028 . S
Mg210 O217 1.986 . S
Mg210 O219 2.114 . S
Mg210 O220 2.251 . S
Mg210 O223 2.010 . S
O211 Mg210 2.028 . S
O211 C214 1.250 . S
O212 Mg213 2.028 . S
O212 C214 1.248 . S
Mg213 O212 2.028 . S
Mg213 O218 2.032 . S
Mg213 O220 2.079 . S
C214 O211 1.250 . S
C214 O212 1.248 . S
C215 O216 1.264 . S
C215 O223 1.249 . S
O216 C215 1.264 . S
O217 Mg210 1.986 . S
O217 C221 1.246 . S
O218 Mg213 2.032 . S
O218 C221 1.259 . S
O219 Mg210 2.114 . S
O219 C222 1.252 . S
O220 Mg210 2.251 . S
O220 Mg213 2.079 . S
O220 C222 1.273 . S
C221 O217 1.246 . S
C221 O218 1.259 . S
C222 O219 1.252 . S
C222 O220 1.273 . S
O223 Mg210 2.010 . S
O223 C215 1.249 . S
C224 C225 1.387 . S
C224 H228 0.950 . S
C224 C233 1.390 . S
C225 C224 1.387 . S
C225 C227 1.387 1_554 S
H226 C233 0.950 . S
C227 C225 1.387 1_556 S
C227 C229 1.390 . S
C227 H231 0.950 . S
H228 C224 0.950 . S
C229 C227 1.390 . S
C229 C230 1.387 . S
C229 H232 0.950 . S
C230 C229 1.387 . S
C230 C233 1.387 1_556 S
H231 C227 0.950 . S
H232 C229 0.950 . S
C233 C224 1.390 . S
C233 H226 0.950 . S
C233 C230 1.387 1_554 S
C234 C235 1.387 . S
C234 H238 0.950 . S
C234 C243 1.390 1_556 S
C235 C234 1.387 . S
C235 C237 1.387 . S
H236 C243 0.950 . S
C237 C235 1.387 . S
C237 C239 1.390 . S
C237 H241 0.950 . S
H238 C234 0.950 . S
C239 C237 1.390 . S
C239 C240 1.387 1_556 S
C239 H242 0.950 . S
C240 C239 1.387 1_554 S
C240 C243 1.387 . S
H241 C237 0.950 . S
H242 C239 0.950 . S
C243 C234 1.390 1_554 S
C243 H236 0.950 . S
C243 C240 1.387 . S
C244 C245 1.387 . S
C244 H248 0.950 . S
C244 C253 1.390 1_556 S
C245 C244 1.387 . S
C245 C247 1.387 . S
H246 C253 0.950 . S
C247 C245 1.387 . S
C247 C249 1.390 . S
C247 H251 0.950 . S
H248 C244 0.950 . S
C249 C247 1.390 . S
C249 C250 1.387 1_556 S
C249 H252 0.950 . S
C250 C249 1.387 1_554 S
C250 C253 1.387 . S
H251 C247 0.950 . S
H252 C249 0.950 . S
C253 C244 1.390 1_554 S
C253 H246 0.950 . S
C253 C250 1.387 . S
C254 C255 1.387 . S
C254 H258 0.950 . S
C254 C263 1.390 . S
C255 C254 1.387 . S
C255 C257 1.387 . S
H256 C263 0.950 . S
C257 C255 1.387 . S
C257 C259 1.390 1_556 S
C257 H261 0.950 . S
H258 C254 0.950 . S
C259 C257 1.390 1_554 S
C259 C260 1.387 . S
C259 H262 0.950 . S
C260 C259 1.387 . S
C260 C263 1.387 1_554 S
H261 C257 0.950 . S
H262 C259 0.950 . S
C263 C254 1.390 . S
C263 H256 0.950 . S
C263 C260 1.387 1_556 S
C264 C265 1.387 . S
C264 H268 0.950 . S
C264 C273 1.390 . S
C265 C264 1.387 . S
C265 C267 1.387 . S
H266 C273 0.950 . S
C267 C265 1.387 . S
C267 C269 1.390 . S
C267 H271 0.950 . S
H268 C264 0.950 . S
C269 C267 1.390 . S
C269 C270 1.387 . S
C269 H272 0.950 . S
C270 C269 1.387 . S
C270 C273 1.387 . S
H271 C267 0.950 . S
H272 C269 0.950 . S
C273 C264 1.390 . S
C273 H266 0.950 . S
C273 C270 1.387 . S
C274 C275 1.387 . S
C274 H278 0.950 . S
C274 C283 1.390 . S
C275 C274 1.387 . S
C275 C277 1.387 . S
H276 C283 0.950 . S
C277 C275 1.387 . S
C277 C279 1.390 . S
C277 H281 0.950 . S
H278 C274 0.950 . S
C279 C277 1.390 . S
C279 C280 1.387 . S
C279 H282 0.950 . S
C280 C279 1.387 . S
C280 C283 1.387 . S
H281 C277 0.950 . S
H282 C279 0.950 . S
C283 C274 1.390 . S
C283 H276 0.950 . S
C283 C280 1.387 . S
C284 C285 1.387 . S
C284 H288 0.950 . S
C284 C293 1.390 . S
C285 C284 1.387 . S
C285 C287 1.387 . S
H286 C293 0.950 . S
C287 C285 1.387 . S
C287 C289 1.390 . S
C287 H291 0.950 . S
H288 C284 0.950 . S
C289 C287 1.390 . S
C289 C290 1.387 . S
C289 H292 0.950 . S
C290 C289 1.387 . S
C290 C293 1.387 . S
H291 C287 0.950 . S
H292 C289 0.950 . S
C293 C284 1.390 . S
C293 H286 0.950 . S
C293 C290 1.387 . S
C294 C295 1.387 . S
C294 H298 0.950 . S
C294 C303 1.390 . S
C295 C294 1.387 . S
C295 C297 1.387 . S
H296 C303 0.950 . S
C297 C295 1.387 . S
C297 C299 1.390 . S
C297 H301 0.950 . S
H298 C294 0.950 . S
C299 C297 1.390 . S
C299 C300 1.387 . S
C299 H302 0.950 . S
C300 C299 1.387 . S
C300 C303 1.387 . S
H301 C297 0.950 . S
H302 C299 0.950 . S
C303 C294 1.390 . S
C303 H296 0.950 . S
C303 C300 1.387 . S
C304 C305 1.387 1_554 S
C304 H308 0.950 . S
C304 C313 1.390 . S
C305 C304 1.387 1_556 S
C305 C307 1.387 . S
H306 C313 0.950 . S
C307 C305 1.387 . S
C307 C309 1.390 1_556 S
C307 H311 0.950 . S
H308 C304 0.950 . S
C309 C307 1.390 1_554 S
C309 C310 1.387 . S
C309 H312 0.950 . S
C310 C309 1.387 . S
C310 C313 1.387 . S
H311 C307 0.950 . S
H312 C309 0.950 . S
C313 C304 1.390 . S
C313 H306 0.950 . S
C313 C310 1.387 . S
C314 C315 1.387 . S
C314 H318 0.950 . S
C314 C323 1.390 1_556 S
C315 C314 1.387 . S
C315 C317 1.387 1_556 S
H316 C323 0.950 1_556 S
C317 C315 1.387 1_554 S
C317 C319 1.390 . S
C317 H321 0.950 . S
H318 C314 0.950 . S
C319 C317 1.390 . S
C319 C320 1.387 . S
C319 H322 0.950 . S
C320 C319 1.387 . S
C320 C323 1.387 . S
H321 C317 0.950 . S
H322 C319 0.950 . S
C323 C314 1.390 1_554 S
C323 H316 0.950 1_554 S
C323 C320 1.387 . S
C324 C325 1.387 . S
C324 H328 0.950 . S
C324 C333 1.390 1_556 S
C325 C324 1.387 . S
C325 C327 1.387 1_556 S
H326 C333 0.950 . S
C327 C325 1.387 1_554 S
C327 C329 1.390 . S
C327 H331 0.950 . S
H328 C324 0.950 . S
C329 C327 1.390 . S
C329 C330 1.387 . S
C329 H332 0.950 . S
C330 C329 1.387 . S
C330 C333 1.387 . S
H331 C327 0.950 . S
H332 C329 0.950 . S
C333 C324 1.390 1_554 S
C333 H326 0.950 . S
C333 C330 1.387 . S
C334 C335 1.387 . S
C334 H338 0.950 . S
C334 C343 1.390 . S
C335 C334 1.387 . S
C335 C337 1.387 . S
H336 C343 0.950 . S
C337 C335 1.387 . S
C337 C339 1.390 1_554 S
C337 H341 0.950 . S
H338 C334 0.950 . S
C339 C337 1.390 1_556 S
C339 C340 1.387 . S
C339 H342 0.950 . S
C340 C339 1.387 . S
C340 C343 1.387 1_556 S
H341 C337 0.950 . S
H342 C339 0.950 . S
C343 C334 1.390 . S
C343 H336 0.950 . S
C343 C340 1.387 1_554 S
C344 C345 1.387 . S
C344 H348 0.950 . S
C344 C353 1.390 . S
C345 C344 1.387 . S
C345 C347 1.387 . S
H346 C353 0.950 . S
C347 C345 1.387 . S
C347 C349 1.390 . S
C347 H351 0.950 . S
H348 C344 0.950 . S
C349 C347 1.390 . S
C349 C350 1.387 . S
C349 H352 0.950 . S
C350 C349 1.387 . S
C350 C353 1.387 . S
H351 C347 0.950 . S
H352 C349 0.950 . S
C353 C344 1.390 . S
C353 H346 0.950 . S
C353 C350 1.387 . S
C354 C355 1.387 . S
C354 H358 0.950 . S
C354 C363 1.390 . S
C355 C354 1.387 . S
C355 C357 1.387 . S
H356 C363 0.950 . S
C357 C355 1.387 . S
C357 C359 1.390 . S
C357 H361 0.950 . S
H358 C354 0.950 . S
C359 C357 1.390 . S
C359 C360 1.387 . S
C359 H362 0.950 . S
C360 C359 1.387 . S
C360 C363 1.387 . S
H361 C357 0.950 . S
H362 C359 0.950 . S
C363 C354 1.390 . S
C363 H356 0.950 . S
C363 C360 1.387 . S
C364 C365 1.387 . S
C364 H368 0.950 . S
C364 C373 1.390 . S
C365 C364 1.387 . S
C365 C367 1.387 . S
H366 C373 0.950 . S
C367 C365 1.387 . S
C367 C369 1.390 . S
C367 H371 0.950 . S
H368 C364 0.950 . S
C369 C367 1.390 . S
C369 C370 1.387 . S
C369 H372 0.950 . S
C370 C369 1.387 . S
C370 C373 1.387 . S
H371 C367 0.950 . S
H372 C369 0.950 . S
C373 C364 1.390 . S
C373 H366 0.950 . S
C373 C370 1.387 . S
C374 C375 1.387 . S
C374 H378 0.950 . S
C374 C383 1.390 . S
C375 C374 1.387 . S
C375 C377 1.387 . S
H376 C383 0.950 . S
C377 C375 1.387 . S
C377 C379 1.390 . S
C377 H381 0.950 . S
H378 C374 0.950 . S
C379 C377 1.390 . S
C379 C380 1.387 . S
C379 H382 0.950 . S
C380 C379 1.387 . S
C380 C383 1.387 . S
H381 C377 0.950 . S
H382 C379 0.950 . S
C383 C374 1.390 . S
C383 H376 0.950 . S
C383 C380 1.387 . S
C384 C385 1.387 1_554 S
C384 H388 0.950 1_554 S
C384 C393 1.390 1_565 S
C385 C384 1.387 1_556 S
C385 C387 1.387 . S
H386 C393 0.950 . S
C387 C385 1.387 . S
C387 C389 1.390 1_566 S
C387 H391 0.950 . S
H388 C384 0.950 1_556 S
C389 C387 1.390 1_544 S
C389 C390 1.387 . S
C389 H392 0.950 . S
C390 C389 1.387 . S
C390 C393 1.387 . S
H391 C387 0.950 . S
H392 C389 0.950 . S
C393 C384 1.390 1_545 S
C393 H386 0.950 . S
C393 C390 1.387 . S
C394 C395 1.387 . S
C394 H398 0.950 . S
C394 C403 1.390 . S
C395 C394 1.387 . S
C395 C397 1.387 1_554 S
H396 C403 0.950 . S
C397 C395 1.387 1_556 S
C397 C399 1.390 . S
C397 H401 0.950 . S
H398 C394 0.950 . S
C399 C397 1.390 . S
C399 C400 1.387 . S
C399 H402 0.950 . S
C400 C399 1.387 . S
C400 C403 1.387 1_556 S
H401 C397 0.950 . S
H402 C399 0.950 . S
C403 C394 1.390 . S
C403 H396 0.950 . S
C403 C400 1.387 1_554 S
C404 C405 1.387 . S
C404 H408 0.950 . S
C404 C413 1.390 . S
C405 C404 1.387 . S
C405 C407 1.387 1_656 S
H406 C413 0.950 . S
C407 C405 1.387 1_454 S
C407 C409 1.390 1_455 S
C407 H411 0.950 . S
H408 C404 0.950 . S
C409 C407 1.390 1_655 S
C409 C410 1.387 . S
C409 H412 0.950 1_655 S
C410 C409 1.387 . S
C410 C413 1.387 1_554 S
H411 C407 0.950 . S
H412 C409 0.950 1_455 S
C413 C404 1.390 . S
C413 H406 0.950 . S
C413 C410 1.387 1_556 S
C414 C415 1.387 1_545 S
C414 H418 0.950 . S
C414 C423 1.390 1_454 S
C415 C414 1.387 1_565 S
C415 C417 1.387 1_455 S
H416 C423 0.950 . S
C417 C415 1.387 1_655 S
C417 C419 1.396 . S
C417 H421 0.950 1_655 S
H418 C414 0.950 . S
C419 C417 1.396 . S
C419 C420 1.384 1_554 S
C419 H422 0.948 1_554 S
C420 C419 1.384 1_556 S
C420 C423 1.387 1_565 S
H421 C417 0.950 1_455 S
H422 C419 0.948 1_556 S
C423 C414 1.390 1_656 S
C423 H416 0.950 . S
C423 C420 1.387 1_545 S
C424 C425 1.387 . S
C424 H428 0.950 . S
C424 C433 1.390 . S
C425 C424 1.387 . S
C425 C427 1.387 . S
H426 C433 0.950 . S
C427 C425 1.387 . S
C427 C429 1.390 . S
C427 H431 0.950 . S
H428 C424 0.950 . S
C429 C427 1.390 . S
C429 C430 1.387 . S
C429 H432 0.950 . S
C430 C429 1.387 . S
C430 C433 1.387 . S
H431 C427 0.950 . S
H432 C429 0.950 . S
C433 C424 1.390 . S
C433 H426 0.950 . S
C433 C430 1.387 . S
C434 C435 1.387 . S
C434 H438 0.950 . S
C434 C443 1.390 1_455 S
C435 C434 1.387 . S
C435 C437 1.387 . S
H436 C443 0.950 . S
C437 C435 1.387 . S
C437 C439 1.390 1_455 S
C437 H441 0.950 . S
H438 C434 0.950 . S
C439 C437 1.390 1_655 S
C439 C440 1.387 . S
C439 H442 0.950 . S
C440 C439 1.387 . S
C440 C443 1.387 . S
H441 C437 0.950 . S
H442 C439 0.950 . S
C443 C434 1.390 1_655 S
C443 H436 0.950 . S
C443 C440 1.387 . S
C444 C445 1.387 . S
C444 H448 0.950 . S
C444 C453 1.390 1_565 S
C445 C444 1.387 . S
C445 C447 1.387 1_655 S
H446 C453 0.950 . S
C447 C445 1.387 1_455 S
C447 C449 1.390 . S
C447 H451 0.950 . S
H448 C444 0.950 . S
C449 C447 1.390 . S
C449 C450 1.387 1_465 S
C449 H452 0.950 . S
C450 C449 1.387 1_645 S
C450 C453 1.387 . S
H451 C447 0.950 . S
H452 C449 0.950 . S
C453 C444 1.390 1_545 S
C453 H446 0.950 . S
C453 C450 1.387 . S
C454 C455 1.387 1_545 S
C454 H458 0.950 . S
C454 C463 1.390 . S
C455 C454 1.387 1_565 S
C455 C457 1.387 . S
H456 C463 0.950 . S
C457 C455 1.387 . S
C457 C459 1.390 . S
C457 H461 0.950 . S
H458 C454 0.950 . S
C459 C457 1.390 . S
C459 C460 1.387 . S
C459 H462 0.950 . S
C460 C459 1.387 . S
C460 C463 1.387 1_565 S
H461 C457 0.950 . S
H462 C459 0.950 . S
C463 C454 1.390 . S
C463 H456 0.950 . S
C463 C460 1.387 1_545 S
C464 C465 1.387 . S
C464 H468 0.950 . S
C464 C473 1.390 . S
C465 C464 1.387 . S
C465 C467 1.387 . S
H466 C473 0.950 . S
C467 C465 1.387 . S
C467 C469 1.390 . S
C467 H471 0.950 . S
H468 C464 0.950 . S
C469 C467 1.390 . S
C469 C470 1.387 . S
C469 H472 0.950 . S
C470 C469 1.387 . S
C470 C473 1.387 . S
H471 C467 0.950 . S
H472 C469 0.950 . S
C473 C464 1.390 . S
C473 H466 0.950 . S
C473 C470 1.387 . S
C474 C475 1.387 . S
C474 H478 0.950 . S
C474 C483 1.390 . S
C475 C474 1.387 . S
C475 C477 1.387 . S
H476 C483 0.950 . S
C477 C475 1.387 . S
C477 C479 1.390 . S
C477 H481 0.950 . S
H478 C474 0.950 . S
C479 C477 1.390 . S
C479 C480 1.387 . S
C479 H482 0.950 . S
C480 C479 1.387 . S
C480 C483 1.387 . S
H481 C477 0.950 . S
H482 C479 0.950 . S
C483 C474 1.390 . S
C483 H476 0.950 . S
C483 C480 1.387 . S
C484 C485 1.387 . S
C484 H488 0.950 . S
C484 C493 1.390 . S
C485 C484 1.387 . S
C485 C487 1.387 . S
H486 C493 0.950 . S
C487 C485 1.387 . S
C487 C489 1.390 . S
C487 H491 0.950 . S
H488 C484 0.950 . S
C489 C487 1.390 . S
C489 C490 1.387 . S
C489 H492 0.950 . S
C490 C489 1.387 . S
C490 C493 1.387 . S
H491 C487 0.950 . S
H492 C489 0.950 . S
C493 C484 1.390 . S
C493 H486 0.950 . S
C493 C490 1.387 . S
C494 C495 1.387 . S
C494 H498 0.950 . S
C494 C503 1.390 . S
C495 C494 1.387 . S
C495 C497 1.387 . S
H496 C503 0.950 . S
C497 C495 1.387 . S
C497 C499 1.390 . S
C497 H501 0.950 . S
H498 C494 0.950 . S
C499 C497 1.390 . S
C499 C500 1.387 . S
C499 H502 0.950 . S
C500 C499 1.387 . S
C500 C503 1.387 . S
H501 C497 0.950 . S
H502 C499 0.950 . S
C503 C494 1.390 . S
C503 H496 0.950 . S
C503 C500 1.387 . S
C504 C505 1.387 . S
C504 H508 0.950 . S
C504 C513 1.390 . S
C505 C504 1.387 . S
C505 C507 1.387 . S
H506 C513 0.950 . S
C507 C505 1.387 . S
C507 C509 1.390 . S
C507 H511 0.950 . S
H508 C504 0.950 . S
C509 C507 1.390 . S
C509 C510 1.387 . S
C509 H512 0.950 . S
C510 C509 1.387 . S
C510 C513 1.387 . S
H511 C507 0.950 . S
H512 C509 0.950 . S
C513 C504 1.390 . S
C513 H506 0.950 . S
C513 C510 1.387 . S
C514 C515 1.387 . S
C514 H518 0.950 . S
C514 C523 1.390 . S
C515 C514 1.387 . S
C515 C517 1.387 . S
H516 C523 0.950 . S
C517 C515 1.387 . S
C517 C519 1.390 . S
C517 H521 0.950 . S
H518 C514 0.950 . S
C519 C517 1.390 . S
C519 C520 1.387 . S
C519 H522 0.950 . S
C520 C519 1.387 . S
C520 C523 1.387 . S
H521 C517 0.950 . S
H522 C519 0.950 . S
C523 C514 1.390 . S
C523 H516 0.950 . S
C523 C520 1.387 . S
C524 C525 1.387 . S
C524 H528 0.950 . S
C524 C533 1.390 . S
C525 C524 1.387 . S
C525 C527 1.387 . S
H526 C533 0.950 . S
C527 C525 1.387 . S
C527 C529 1.390 . S
C527 H531 0.950 . S
H528 C524 0.950 . S
C529 C527 1.390 . S
C529 C530 1.387 . S
C529 H532 0.950 . S
C530 C529 1.387 . S
C530 C533 1.387 . S
H531 C527 0.950 . S
H532 C529 0.950 . S
C533 C524 1.390 . S
C533 H526 0.950 . S
C533 C530 1.387 . S
C534 C535 1.387 . S
C534 H538 0.950 . S
C534 C543 1.390 . S
C535 C534 1.387 . S
C535 C537 1.387 . S
H536 C543 0.950 . S
C537 C535 1.387 . S
C537 C539 1.390 . S
C537 H541 0.950 . S
H538 C534 0.950 . S
C539 C537 1.390 . S
C539 C540 1.387 . S
C539 H542 0.950 . S
C540 C539 1.387 . S
C540 C543 1.387 . S
H541 C537 0.950 . S
H542 C539 0.950 . S
C543 C534 1.390 . S
C543 H536 0.950 . S
C543 C540 1.387 . S
C225 C12 0.813 . S
C230 C138 0.810 . S
C235 C152 0.812 . S
C240 C26 0.812 . S
C245 C166 0.812 . S
C250 C40 0.813 . S
C255 C124 0.813 . S
C260 C54 0.811 . S
C265 C68 0.813 . S
C270 C222 0.812 . S
C275 C180 0.812 . S
C280 C82 0.810 . S
C285 C194 0.811 . S
C290 C96 0.810 . S
C295 C208 0.813 . S
C300 C110 0.812 . S
C305 C116 0.973 . S
C310 C18 1.005 . S
C315 C130 0.967 . S
C320 C32 1.007 . S
C325 C144 0.970 . S
C330 C46 1.007 . S
C335 C4 1.003 . S
C340 C158 0.970 . S
C345 C172 0.967 . S
C350 C102 1.007 . S
C355 C186 0.967 . S
C360 C60 1.005 . S
C365 C74 1.004 . S
C370 C200 0.973 . S
C375 C214 0.967 . S
C380 C88 1.004 . S
C385 C123 1.422 . S
C390 C5 1.498 . S
C395 C19 1.499 . S
C400 C137 1.420 . S
C405 C151 1.423 1_655 S
C410 C33 1.495 . S
C415 C47 1.497 . S
C420 C165 1.423 1_565 S
C425 C179 1.419 . S
C430 C61 1.498 . S
C435 C75 1.499 . S
C440 C193 1.421 . S
C445 C207 1.422 1_655 S
C450 C89 1.495 . S
C455 C221 1.423 1_565 S
C460 C103 1.498 . S
C465 C67 1.733 . S
C470 C11 1.733 . S
C475 C81 1.733 . S
C480 C25 1.733 . S
C485 C39 1.738 . S
C490 C95 1.738 . S
C495 C109 1.738 . S
C500 C53 1.738 . S
C505 C117 1.658 . S
C510 C173 1.658 . S
C515 C187 1.661 . S
C520 C131 1.661 . S
C525 C201 1.661 . S
C530 C145 1.661 . S
C535 C215 1.661 . S
C540 C159 1.661 . S
