# Generated by pormake.
# Topology smk, (6)-cn, num edge types: 1
# Building blocks:
#     Node 0, Type 0, BuildingBlock: IZENUY_clean_sbu_0, # of connection points: 6
#     Node 1, Type 0, BuildingBlock: IZENUY_clean_sbu_0, # of connection points: 6
#     Node 2, Type 0, BuildingBlock: IZENUY_clean_sbu_0, # of connection points: 6
#     Node 3, Type 0, BuildingBlock: IZENUY_clean_sbu_0, # of connection points: 6
#     Node 4, Type 0, BuildingBlock: IZENUY_clean_sbu_0, # of connection points: 6
#     Node 5, Type 0, BuildingBlock: IZENUY_clean_sbu_0, # of connection points: 6
#     Edge 6, Type (0, 0), BuildingBlock: FUNLAD_clean_linker_1, # of connection points: 2
#     Edge 7, Type (0, 0), BuildingBlock: FUNLAD_clean_linker_1, # of connection points: 2
#     Edge 8, Type (0, 0), BuildingBlock: FUNLAD_clean_linker_1, # of connection points: 2
#     Edge 9, Type (0, 0), BuildingBlock: FUNLAD_clean_linker_1, # of connection points: 2
#     Edge 10, Type (0, 0), BuildingBlock: FUNLAD_clean_linker_1, # of connection points: 2
#     Edge 11, Type (0, 0), BuildingBlock: FUNLAD_clean_linker_1, # of connection points: 2
#     Edge 12, Type (0, 0), BuildingBlock: FUNLAD_clean_linker_1, # of connection points: 2
#     Edge 13, Type (0, 0), BuildingBlock: FUNLAD_clean_linker_1, # of connection points: 2
#     Edge 14, Type (0, 0), BuildingBlock: FUNLAD_clean_linker_1, # of connection points: 2
#     Edge 15, Type (0, 0), BuildingBlock: FUNLAD_clean_linker_1, # of connection points: 2
#     Edge 16, Type (0, 0), BuildingBlock: FUNLAD_clean_linker_1, # of connection points: 2
#     Edge 17, Type (0, 0), BuildingBlock: FUNLAD_clean_linker_1, # of connection points: 2
#     Edge 18, Type (0, 0), BuildingBlock: FUNLAD_clean_linker_1, # of connection points: 2
#     Edge 19, Type (0, 0), BuildingBlock: FUNLAD_clean_linker_1, # of connection points: 2
#     Edge 20, Type (0, 0), BuildingBlock: FUNLAD_clean_linker_1, # of connection points: 2
#     Edge 21, Type (0, 0), BuildingBlock: FUNLAD_clean_linker_1, # of connection points: 2
#     Edge 22, Type (0, 0), BuildingBlock: FUNLAD_clean_linker_1, # of connection points: 2
#     Edge 23, Type (0, 0), BuildingBlock: FUNLAD_clean_linker_1, # of connection points: 2
# Relax obj value: 0.171
# Max RMSD: 0.207
# Mean RMSD: 0.207
data_MOF--net-smk--node1-IZENUY_clean_sbu_0--edge1-FUNLAD_clean_linker_1
_symmetry_space_group_name_H-M    P1
_symmetry_Int_Tables_number       1
_symmetry_cell_setting            triclinic
loop_
_symmetry_equiv_pos_as_xyz
'x, y, z'
_cell_length_a     43.00754
_cell_length_b     43.389112
_cell_length_c     15.782219
_cell_angle_alpha  90.286801
_cell_angle_beta   89.7491
_cell_angle_gamma 119.59764
loop_
_atom_site_label
_atom_site_type_symbol
_atom_site_fract_x
_atom_site_fract_y
_atom_site_fract_z
_atom_type_partial_charge
Fe0 Fe 0.47998 0.25848 0.64663 0.0
Fe1 Fe 0.41339 0.19922 0.5574 0.0
O2 O 0.46066 0.22466 0.56829 0.0
Fe3 Fe 0.48884 0.21652 0.50063 0.0
O4 O 0.50882 0.20625 0.5891 0.0
O5 O 0.51926 0.25303 0.66487 0.0
O6 O 0.45791 0.22702 0.73076 0.0
C7 C 0.42457 0.20703 0.73709 0.0
C8 C 0.52505 0.29144 0.51434 0.0
O9 O 0.40437 0.19936 0.67262 0.0
C10 C 0.43899 0.2115 0.3865 0.0
O11 O 0.44425 0.27016 0.64387 0.0
O12 O 0.40955 0.23842 0.53908 0.0
O13 O 0.5249 0.26281 0.4979 0.0
O14 O 0.5036 0.29246 0.56756 0.0
C15 C 0.43095 0.14731 0.53261 0.0
O16 O 0.41415 0.19449 0.44005 0.0
O17 O 0.47129 0.22662 0.40806 0.0
C18 C 0.42022 0.26414 0.58978 0.0
O19 O 0.41325 0.15798 0.57513 0.0
O20 O 0.4579 0.16865 0.48964 0.0
C21 C 0.52511 0.22774 0.64845 0.0
Fe22 Fe 0.23601 0.46591 0.83945 0.0
Fe23 Fe 0.2256 0.39625 0.76004 0.0
O24 O 0.24755 0.44338 0.76209 0.0
Fe25 Fe 0.28126 0.46859 0.68663 0.0
O26 O 0.31421 0.48971 0.76879 0.0
O27 O 0.28161 0.50486 0.84725 0.0
O28 O 0.24825 0.44663 0.92427 0.0
C29 C 0.23603 0.41392 0.93546 0.0
C30 C 0.2431 0.50623 0.70202 0.0
O31 O 0.22145 0.39153 0.87616 0.0
C32 C 0.23205 0.41576 0.58653 0.0
O33 O 0.18864 0.43145 0.84774 0.0
O34 O 0.18192 0.39247 0.7499 0.0
O35 O 0.27138 0.50549 0.68269 0.0
O36 O 0.22253 0.48636 0.75888 0.0
C37 C 0.29372 0.41132 0.72054 0.0
O38 O 0.22606 0.39312 0.64378 0.0
O39 O 0.25052 0.44861 0.60009 0.0
C40 C 0.1688 0.40576 0.79972 0.0
O41 O 0.26728 0.39559 0.7695 0.0
O42 O 0.29766 0.43696 0.67537 0.0
C43 C 0.31166 0.5078 0.82797 0.0
Fe44 Fe 0.84876 0.21815 0.95236 0.0
Fe45 Fe 0.82473 0.26621 0.8639 0.0
O46 O 0.81803 0.23414 0.94193 0.0
Fe47 Fe 0.78016 0.2181 1.00949 0.0
O48 O 0.80815 0.23446 0.10204 0.0
O49 O 0.84457 0.21393 0.06996 0.0
O50 O 0.88635 0.26226 0.96871 0.0
C51 C 0.89576 0.28775 0.91812 0.0
C52 C 0.786 0.1565 0.97923 0.0
O53 O 0.87384 0.28845 0.86609 0.0
C54 C 0.74939 0.22015 0.86167 0.0
O55 O 0.858 0.21968 0.83689 0.0
O56 O 0.8226 0.23707 0.77909 0.0
O57 O 0.77439 0.17338 0.0223 0.0
O58 O 0.81419 0.17261 0.93622 0.0
C59 C 0.80244 0.29142 0.99489 0.0
O60 O 0.77668 0.24995 0.84646 0.0
O61 O 0.74976 0.2008 0.92039 0.0
C62 C 0.84225 0.22314 0.77255 0.0
O63 O 0.82743 0.29769 0.94361 0.0
O64 O 0.77859 0.25985 1.01082 0.0
C65 C 0.83144 0.22649 0.12346 0.0
Fe66 Fe 0.64612 0.82696 0.06867 0.0
Fe67 Fe 0.5721 0.81579 0.01943 0.0
O68 O 0.59894 0.8046 0.08311 0.0
Fe69 Fe 0.57827 0.77091 0.16082 0.0
O70 O 0.60346 0.80114 0.24483 0.0
O71 O 0.65627 0.826 0.18283 0.0
O72 O 0.65021 0.87007 0.08917 0.0
C73 C 0.63383 0.88261 0.04857 0.0
C74 C 0.63342 0.7593 0.09532 0.0
O75 O 0.60611 0.86259 1.0064 0.0
C76 C 0.5293 0.74109 0.03434 0.0
O77 O 0.64416 0.83182 0.95191 0.0
O78 O 0.58639 0.80307 0.92409 0.0
O79 O 0.61055 0.75489 0.15166 0.0
O80 O 0.64598 0.78576 0.0469 0.0
C81 C 0.54036 0.80883 0.17308 0.0
O82 O 0.53275 0.77124 0.01977 0.0
O83 O 0.55095 0.73784 0.08211 0.0
C84 C 0.61838 0.81603 0.89999 0.0
O85 O 0.55594 0.82898 0.11117 0.0
O86 O 0.54264 0.78122 0.18566 0.0
C87 C 0.637 0.81941 0.24898 0.0
Fe88 Fe 0.83228 0.63495 0.26904 0.0
Fe89 Fe 0.77552 0.56256 0.19752 0.0
O90 O 0.81135 0.58795 0.26852 0.0
Fe91 Fe 0.82601 0.56591 0.33851 0.0
O92 O 0.81649 0.58461 0.42997 0.0
O93 O 0.83997 0.63963 0.38418 0.0
O94 O 0.79037 0.63382 0.2907 0.0
C95 C 0.76314 0.61899 0.2444 0.0
C96 C 0.89101 0.62688 0.29065 0.0
O97 O 0.75852 0.59416 0.19448 0.0
C98 C 0.8144 0.52531 0.19793 0.0
O99 O 0.82831 0.6384 0.15374 0.0
O100 O 0.80381 0.58315 0.10728 0.0
O101 O 0.87313 0.60071 0.33878 0.0
O102 O 0.87604 0.64021 0.24786 0.0
C103 C 0.75035 0.52296 0.34035 0.0
O104 O 0.78564 0.526 0.18554 0.0
O105 O 0.83687 0.54569 0.25128 0.0
C106 C 0.82165 0.61608 0.09474 0.0
O107 O 0.74495 0.54034 0.28413 0.0
O108 O 0.78128 0.52708 0.35281 0.0
C109 C 0.82801 0.61707 0.44335 0.0
Fe110 Fe 0.214 0.81552 0.41881 0.0
Fe111 Fe 0.23615 0.76184 0.3562 0.0
O112 O 0.24193 0.79614 0.42694 0.0
Fe113 Fe 0.27589 0.81108 0.50545 0.0
O114 O 0.24342 0.79907 0.58994 0.0
O115 O 0.21323 0.82288 0.53456 0.0
O116 O 0.17382 0.77338 0.4341 0.0
C117 C 0.16477 0.74626 0.38894 0.0
C118 C 0.27803 0.87465 0.45281 0.0
O119 O 0.18754 0.74272 0.34529 0.0
C120 C 0.31136 0.80348 0.37059 0.0
O121 O 0.20971 0.81142 0.30133 0.0
O122 O 0.24519 0.79033 0.26587 0.0
O123 O 0.28509 0.8572 0.50585 0.0
O124 O 0.25192 0.8594 0.40301 0.0
C125 C 0.24902 0.73654 0.50129 0.0
O126 O 0.28357 0.77462 0.35282 0.0
O127 O 0.31088 0.82416 0.42635 0.0
C128 C 0.22823 0.80597 0.2465 0.0
O129 O 0.22721 0.731 0.44218 0.0
O130 O 0.27309 0.76771 0.51992 0.0
C131 C 0.22158 0.81037 0.59771 0.0
H132 H 0.45387 0.23275 0.25807 0.0
C133 C 0.4319 0.21263 0.29525 0.0
H134 H 0.38083 0.16695 0.28821 0.0
H135 H 0.41912 0.26133 0.92441 0.0
H136 H 0.41387 0.30542 1.00926 0.0
H137 H 0.40029 0.29607 0.16207 0.0
H138 H 0.39304 0.24309 0.23171 0.0
C139 C 0.40227 0.1889 0.25414 0.0
C140 C 0.40118 0.19017 0.15924 0.0
C141 C 0.40335 0.22025 0.11837 0.0
C142 C 0.41019 0.22517 0.02968 0.0
C143 C 0.41395 0.25631 0.99155 0.0
C144 C 0.41079 0.2817 0.03938 0.0
C145 C 0.40321 0.27648 0.12547 0.0
C146 C 0.39937 0.2461 0.16476 0.0
H147 H 0.38012 0.17705 0.82828 0.0
C148 C 0.40862 0.19548 0.82274 0.0
H149 H 0.45678 0.22801 0.88819 0.0
H150 H 0.39497 0.12774 0.21509 0.0
H151 H 0.40008 0.08369 0.12932 0.0
H152 H 0.41001 0.09151 0.97544 0.0
H153 H 0.41597 0.14383 0.9057 0.0
C154 C 0.42857 0.20848 0.89336 0.0
C155 C 0.41373 0.1995 0.9811 0.0
C156 C 0.40866 0.16806 0.02055 0.0
C157 C 0.40246 0.1634 0.10969 0.0
C158 C 0.39939 0.13253 0.14775 0.0
C159 C 0.40215 0.107 0.09938 0.0
C160 C 0.40789 0.11144 1.01257 0.0
C161 C 0.41124 0.1416 0.97332 0.0
H162 H 0.19469 0.38885 0.48086 0.0
C163 C 0.22267 0.40402 0.49876 0.0
H164 H 0.27653 0.43032 0.46067 0.0
H165 H 0.1849 0.34526 0.11191 0.0
H166 H 0.16564 0.29042 0.18868 0.0
H167 H 0.18214 0.29129 0.33859 0.0
H168 H 0.21731 0.34702 0.41309 0.0
C169 C 0.24877 0.41501 0.44061 0.0
C170 C 0.24123 0.41358 0.34877 0.0
C171 C 0.22204 0.38075 0.3055 0.0
C172 C 0.21406 0.38025 0.21802 0.0
C173 C 0.19298 0.34717 0.17738 0.0
C174 C 0.18156 0.31549 0.22087 0.0
C175 C 0.19074 0.31598 0.30536 0.0
C176 C 0.21075 0.34815 0.34752 0.0
H177 H 0.24695 0.38659 0.03929 0.0
C178 C 0.234 0.4018 0.0227 0.0
H179 H 0.20677 0.42828 0.06305 0.0
H180 H 0.27778 0.48126 0.41386 0.0
H181 H 0.2996 0.53582 0.33581 0.0
H182 H 0.28887 0.53509 0.18222 0.0
H183 H 0.2568 0.47969 0.10588 0.0
C184 C 0.2195 0.41309 0.08211 0.0
C185 C 0.22687 0.41261 0.17353 0.0
C186 C 0.24673 0.44545 0.21653 0.0
C187 C 0.25355 0.44592 0.30449 0.0
C188 C 0.27245 0.47912 0.34657 0.0
C189 C 0.28499 0.51081 0.3026 0.0
C190 C 0.27899 0.51037 0.21621 0.0
C191 C 0.26028 0.47824 0.17328 0.0
H192 H 0.83144 0.24485 0.25311 0.0
C193 C 0.84021 0.22961 0.21488 0.0
H194 H 0.86172 0.19516 0.2193 0.0
H195 H 0.89238 0.28423 0.59099 0.0
H196 H 0.9348 0.3358 0.51099 0.0
H197 H 0.94266 0.33156 0.35719 0.0
H198 H 0.90793 0.27576 0.28219 0.0
C199 C 0.85475 0.21243 0.25473 0.0
C200 C 0.85662 0.21328 0.34975 0.0
C201 C 0.87774 0.24578 0.39323 0.0
C202 C 0.87353 0.2481 0.48223 0.0
C203 C 0.89439 0.28109 0.52344 0.0
C204 C 0.91894 0.31082 0.47838 0.0
C205 C 0.92334 0.30844 0.39175 0.0
C206 C 0.90309 0.27636 0.34937 0.0
H207 H 0.86711 0.20241 0.68117 0.0
C208 C 0.85011 0.2143 0.68671 0.0
H209 H 0.82244 0.23567 0.62108 0.0
H210 H 0.8169 0.1456 0.28936 0.0
H211 H 0.77784 0.09329 0.3712 0.0
H212 H 0.77014 0.09744 0.52503 0.0
H213 H 0.80215 0.15393 0.59856 0.0
C214 C 0.83826 0.22249 0.61592 0.0
C215 C 0.84862 0.21785 0.5282 0.0
C216 C 0.83012 0.18463 0.48627 0.0
C217 C 0.83429 0.1823 0.39707 0.0
C218 C 0.81479 0.1489 0.35673 0.0
C219 C 0.79217 0.11867 0.40293 0.0
C220 C 0.78792 0.12101 0.48963 0.0
C221 C 0.80645 0.15356 0.53108 0.0
H222 H 0.68272 0.84594 0.33895 0.0
C223 C 0.65379 0.83039 0.33415 0.0
H224 H 0.60472 0.80403 0.40063 0.0
H225 H 0.65883 0.77845 0.74389 0.0
H226 H 0.65083 0.72559 0.6709 0.0
H227 H 0.64177 0.71925 0.51612 0.0
H228 H 0.64094 0.76588 0.43315 0.0
C229 C 0.6336 0.82032 0.40528 0.0
C230 C 0.64828 0.82817 0.49322 0.0
C231 C 0.64899 0.80094 0.54095 0.0
C232 C 0.65374 0.8044 0.63048 0.0
C233 C 0.65451 0.7768 0.67613 0.0
C234 C 0.65017 0.74644 0.63495 0.0
C235 C 0.64508 0.74288 0.54778 0.0
C236 C 0.6445 0.76973 0.50099 0.0
H237 H 0.60153 0.79643 0.77022 0.0
C238 C 0.62454 0.81458 0.80791 0.0
H239 H 0.67829 0.85585 0.80257 0.0
H240 H 0.65262 0.88693 0.41977 0.0
H241 H 0.66197 0.94043 0.49188 0.0
H242 H 0.66944 0.94631 0.64689 0.0
H243 H 0.66808 0.89893 0.73125 0.0
C244 C 0.65547 0.83586 0.76755 0.0
C245 C 0.65727 0.83493 0.67267 0.0
C246 C 0.65946 0.8634 0.62404 0.0
C247 C 0.6549 0.85996 0.53432 0.0
C248 C 0.65586 0.88821 0.48786 0.0
C249 C 0.66125 0.91904 0.52845 0.0
C250 C 0.66555 0.92238 0.61583 0.0
C251 C 0.66466 0.89497 0.66344 0.0
H252 H 0.81885 0.64637 0.54627 0.0
C253 C 0.82927 0.62871 0.53118 0.0
H254 H 0.85082 0.5976 0.57494 0.0
H255 H 0.83905 0.68427 0.91768 0.0
H256 H 0.87812 0.73913 0.84437 0.0
H257 H 0.89824 0.73833 0.69811 0.0
H258 H 0.8785 0.68274 0.6235 0.0
C259 C 0.84017 0.61489 0.59239 0.0
C260 C 0.83172 0.61624 0.68309 0.0
C261 C 0.84527 0.64896 0.72705 0.0
C262 C 0.83559 0.64933 0.81316 0.0
C263 C 0.84711 0.68239 0.85373 0.0
C264 C 0.86933 0.71409 0.81216 0.0
C265 C 0.88051 0.71365 0.72968 0.0
C266 C 0.86874 0.68154 0.68732 0.0
H267 H 0.85953 0.64383 0.99079 0.0
C268 C 0.8314 0.62825 1.00742 0.0
H269 H 0.77805 0.60058 0.96681 0.0
H270 H 0.79917 0.54875 0.616 0.0
H271 H 0.76425 0.49401 0.69237 0.0
H272 H 0.75295 0.49447 0.84555 0.0
H273 H 0.7759 0.54964 0.92258 0.0
C274 C 0.80594 0.61628 0.94782 0.0
C275 C 0.81462 0.61691 0.85656 0.0
C276 C 0.80196 0.58416 0.81318 0.0
C277 C 0.80982 0.58385 0.72589 0.0
C278 C 0.79526 0.55075 0.68309 0.0
C279 C 0.77492 0.51898 0.72606 0.0
C280 C 0.76847 0.51923 0.81216 0.0
C281 C 0.78173 0.55128 0.85552 0.0
H282 H 0.25135 0.81837 0.11876 0.0
C283 C 0.22832 0.81449 0.15587 0.0
H284 H 0.1751 0.80444 0.14888 0.0
H285 H 0.25253 0.87177 0.7719 0.0
H286 H 0.27994 0.92836 0.84507 0.0
H287 H 0.27059 0.93179 0.99837 0.0
H288 H 0.23346 0.87842 0.0796 0.0
C289 C 0.19968 0.81152 0.11461 0.0
C290 C 0.19928 0.8106 0.0197 0.0
C291 C 0.22019 0.84195 0.97243 0.0
C292 C 0.22513 0.83997 0.88351 0.0
C293 C 0.24735 0.87167 0.839 0.0
C294 C 0.26339 0.90436 0.88034 0.0
C295 C 0.25811 0.90629 0.96669 0.0
C296 C 0.23687 0.87552 1.01258 0.0
H297 H 0.19097 0.82384 0.69036 0.0
C298 C 0.20867 0.81277 0.68374 0.0
H299 H 0.23671 0.79129 0.74731 0.0
H300 H 0.15401 0.7459 0.08905 0.0
H301 H 0.12446 0.68943 0.01505 0.0
H302 H 0.13258 0.68603 0.86112 0.0
H303 H 0.17048 0.73912 0.78008 0.0
C304 C 0.21965 0.8031 0.75361 0.0
C305 C 0.20879 0.80657 0.84172 0.0
C306 C 0.18587 0.77555 0.88808 0.0
C307 C 0.18098 0.77756 0.9769 0.0
C308 C 0.15862 0.74593 0.02158 0.0
C309 C 0.14145 0.71334 0.97987 0.0
C310 C 0.14605 0.71142 0.8932 0.0
C311 C 0.16797 0.74205 0.84752 0.0
H312 H 0.43425 0.10066 0.4884 0.0
C313 C 0.41796 0.10893 0.52421 0.0
H314 H 0.36951 0.09199 0.59097 0.0
H315 H 0.34282 0.95564 0.34229 0.0
H316 H 0.35024 0.9944 0.22461 0.0
H317 H 0.3648 0.05626 0.24993 0.0
H318 H 0.37467 0.08042 0.39188 0.0
C319 C 0.3859 0.08421 0.55394 0.0
C320 C 0.37196 0.04561 0.53893 0.0
C321 C 0.36451 0.03149 0.45546 0.0
C322 C 0.35266 0.99491 0.44149 0.0
C323 C 0.34911 0.98246 0.35697 0.0
C324 C 0.35373 1.00456 0.28873 0.0
C325 C 0.36231 0.03947 0.30283 0.0
C326 C 0.368 0.05303 0.3849 0.0
H327 H 0.28437 0.92737 0.4279 0.0
C328 C 0.29694 0.91371 0.45742 0.0
H329 H 0.34059 0.91886 0.52859 0.0
H330 H 0.38388 0.06406 0.70652 0.0
H331 H 0.37134 0.02431 0.82518 0.0
H332 H 0.34577 0.96005 0.80221 0.0
H333 H 0.33264 0.93511 0.66082 0.0
C334 C 0.32819 0.93256 0.49851 0.0
C335 C 0.34474 0.97171 0.5115 0.0
C336 C 0.35148 0.98575 0.59517 0.0
C337 C 0.36551 0.02276 0.6087 0.0
C338 C 0.37272 0.03613 0.69269 0.0
C339 C 0.36569 1.01362 0.76144 0.0
C340 C 0.3513 0.97744 0.7485 0.0
C341 C 0.34407 0.9635 0.66667 0.0
H342 H 0.37738 0.27532 0.55214 0.0
C343 C 0.4 0.2835 0.59456 0.0
H344 H 0.42835 0.31584 0.69848 0.0
H345 H 0.32281 0.37815 0.55389 0.0
H346 H 0.35563 0.39018 0.42199 0.0
H347 H 0.40259 0.37379 0.40287 0.0
H348 H 0.41602 0.3441 0.51471 0.0
C349 C 0.4067 0.30853 0.65357 0.0
C350 C 0.3819 0.3229 0.66804 0.0
C351 C 0.37626 0.3426 0.60435 0.0
C352 C 0.35112 0.35452 0.61786 0.0
C353 C 0.34336 0.37076 0.54969 0.0
C354 C 0.36173 0.37746 0.47305 0.0
C355 C 0.38801 0.36805 0.46211 0.0
C356 C 0.39528 0.35079 0.5267 0.0
H357 H 0.34602 0.41658 0.68767 0.0
C358 C 0.31906 0.39798 0.70878 0.0
H359 H 0.28169 0.34465 0.73476 0.0
H360 H 0.38395 0.28354 0.80115 0.0
H361 H 0.35204 0.27276 0.93425 0.0
H362 H 0.31353 0.2988 0.96333 0.0
H363 H 0.30522 0.3344 0.85787 0.0
C364 C 0.30883 0.36335 0.71499 0.0
C365 C 0.33389 0.34942 0.69786 0.0
C366 C 0.33982 0.33001 0.76174 0.0
C367 C 0.36332 0.31625 0.74633 0.0
C368 C 0.36722 0.29546 0.80996 0.0
C369 C 0.34911 0.28906 0.88687 0.0
C370 C 0.32723 0.30354 0.90304 0.0
C371 C 0.3226 0.32385 0.84164 0.0
H372 H 0.9406 0.33967 0.87923 0.0
C373 C 0.93394 0.3148 0.91003 0.0
H374 H 0.95373 0.28269 0.95894 0.0
H375 H 0.08587 0.39918 0.71069 0.0
H376 H 0.04313 0.37632 0.59548 0.0
H377 H 0.98023 0.33134 0.62187 0.0
H378 H 0.95944 0.31003 0.76357 0.0
C379 C 0.96025 0.30769 0.92903 0.0
C380 C 0.99881 0.33297 0.91054 0.0
C381 C 1.01097 0.34337 0.826 0.0
C382 C 0.04788 0.36718 0.80969 0.0
C383 C 0.05865 0.37951 0.7259 0.0
C384 C 0.03432 0.36683 0.65923 0.0
C385 C 0.99887 0.34169 0.67416 0.0
C386 C 0.9872 0.32995 0.75628 0.0
H387 H 0.11391 0.36236 0.77651 0.0
C388 C 0.12944 0.38751 0.80932 0.0
H389 H 0.12781 0.42448 0.89382 0.0
H390 H 0.98472 0.31946 0.07973 0.0
H391 H 1.02814 0.33911 0.19337 0.0
H392 H 0.0926 0.3761 0.16359 0.0
H393 H 0.114 0.39411 0.02039 0.0
C394 C 0.11244 0.39977 0.85928 0.0
C395 C 0.07315 0.37815 0.87665 0.0
C396 C 0.06104 0.36744 0.96091 0.0
C397 C 1.02388 0.34525 0.97789 0.0
C398 C 1.01262 0.33565 0.0629 0.0
C399 C 0.03726 0.34683 0.12888 0.0
C400 C 0.07354 0.36771 0.11213 0.0
C401 C 0.08544 0.37795 0.0294 0.0
H402 H 0.63336 0.93062 1.00565 0.0
C403 C 0.64868 0.92135 0.04146 0.0
H404 H 0.69617 0.93677 0.11047 0.0
H405 H 0.72798 0.07517 0.86531 0.0
H406 H 0.72265 0.03696 0.74729 0.0
H407 H 0.70712 0.97482 0.77114 0.0
H408 H 0.69508 0.9501 0.91243 0.0
C409 C 0.68069 0.94531 0.07293 0.0
C410 C 0.69533 0.98416 0.05948 0.0
C411 C 0.70425 0.99877 0.97677 0.0
C412 C 0.71604 0.03538 0.96377 0.0
C413 C 0.72138 0.04828 0.87961 0.0
C414 C 0.71799 0.02649 0.81106 0.0
C415 C 0.70897 0.99145 0.82436 0.0
C416 C 0.70197 0.97755 0.90595 0.0
H417 H 0.78389 0.10507 0.96153 0.0
C418 C 0.76916 0.11753 0.98643 0.0
H419 H 0.72231 0.10952 0.04867 0.0
H420 H 0.68054 0.96484 0.22577 0.0
H421 H 0.68907 1.00367 0.34503 0.0
H422 H 0.71322 0.06779 0.32399 0.0
H423 H 0.72921 0.09357 0.18395 0.0
C424 C 0.73695 0.0972 0.02253 0.0
C425 C 0.72178 0.0581 0.03429 0.0
C426 C 0.71343 0.04354 0.11719 0.0
C427 C 0.69997 1.00657 0.12961 0.0
C428 C 0.69121 0.99274 0.21282 0.0
C429 C 0.69595 1.01473 0.2819 0.0
C430 C 0.70956 0.05083 0.27004 0.0
C431 C 0.71845 0.06525 0.18902 0.0
H432 H 0.74296 0.65396 0.28974 0.0
C433 C 0.7399 0.63511 0.24032 0.0
H434 H 0.71539 0.61232 0.1233 0.0
H435 H 0.59164 0.65099 0.15368 0.0
H436 H 0.558 0.58682 0.16118 0.0
H437 H 0.5889 0.5519 0.17185 0.0
H438 H 0.65369 0.5809 0.17418 0.0
C439 C 0.71878 0.63093 0.17357 0.0
C440 C 0.70018 0.65218 0.16552 0.0
C441 C 0.6623 0.63492 0.1649 0.0
C442 C 0.64446 0.65515 0.16033 0.0
C443 C 0.60659 0.63704 0.15845 0.0
C444 C 0.58693 0.60019 0.1625 0.0
C445 C 0.60433 0.58052 0.16839 0.0
C446 C 0.64155 0.59752 0.1696 0.0
H447 H 0.66678 0.73866 0.03959 0.0
C448 C 0.64928 0.73583 0.09244 0.0
H449 H 0.62778 0.71048 0.20919 0.0
H450 H 0.77289 0.69366 0.1477 0.0
H451 H 0.8067 0.7578 0.14849 0.0
H452 H 0.77611 0.79305 0.15982 0.0
H453 H 0.7116 0.76438 0.16737 0.0
C454 C 0.64539 0.71369 0.1563 0.0
C455 C 0.66447 0.69273 0.15759 0.0
C456 C 0.70245 0.71005 0.15911 0.0
C457 C 0.72024 0.68972 0.15935 0.0
C458 C 0.75804 0.70769 0.15302 0.0
C459 C 0.77782 0.74456 0.15261 0.0
C460 C 0.76059 0.76439 0.15848 0.0
C461 C 0.72341 0.74751 0.16187 0.0
H462 H 0.94487 0.67095 0.26117 0.0
C463 C 0.93044 0.64556 0.29326 0.0
H464 H 0.93449 0.60859 0.37218 0.0
H465 H 0.10011 0.72466 0.23178 0.0
H466 H 0.07781 0.70286 0.09098 0.0
H467 H 1.01479 0.65743 0.06847 0.0
H468 H 0.97336 0.63461 0.18669 0.0
C469 C 0.94873 0.63349 0.33809 0.0
C470 C 0.98796 0.65589 0.35244 0.0
C471 C 1.01236 0.66706 0.28346 0.0
C472 C 0.04927 0.69137 0.29727 0.0
C473 C 0.0723 0.70462 0.22605 0.0
C474 C 0.05979 0.69254 0.14454 0.0
C475 C 1.02426 0.66713 0.13181 0.0
C476 C 1.0007 0.65446 0.20018 0.0
H477 H 0.11958 0.69478 0.34876 0.0
C478 C 0.12657 0.72009 0.3782 0.0
H479 H 0.10743 0.75311 0.42629 0.0
H480 H 0.94853 0.63979 0.49918 0.0
H481 H 0.97128 0.65916 0.64095 0.0
H482 H 0.03587 0.69769 0.6661 0.0
H483 H 0.07803 0.71748 0.54929 0.0
C484 C 0.10068 0.72786 0.39687 0.0
C485 C 0.06215 0.7024 0.381 0.0
C486 C 0.03793 0.69021 0.45024 0.0
C487 C 1.00079 0.66725 0.43593 0.0
C488 C 0.9771 0.65662 0.50619 0.0
C489 C 0.98978 0.66762 0.58811 0.0
C490 C 1.02613 0.68936 0.60225 0.0
C491 C 0.05003 0.7006 0.53447 0.0
H492 H 0.56601 0.32165 0.4187 0.0
C493 C 0.55356 0.32421 0.47645 0.0
H494 H 0.55528 0.35894 0.57281 0.0
H495 H 0.7105 0.43141 0.35351 0.0
H496 H 0.71656 0.38204 0.40364 0.0
H497 H 0.67034 0.33626 0.49528 0.0
H498 H 0.61713 0.33896 0.53385 0.0
C499 C 0.5672 0.35598 0.51467 0.0
C500 C 0.59877 0.38775 0.47816 0.0
C501 C 0.63131 0.38758 0.46341 0.0
C502 C 0.6595 0.41574 0.41768 0.0
C503 C 0.68956 0.4124 0.39406 0.0
C504 C 0.6932 0.38388 0.42152 0.0
C505 C 0.66709 0.358 0.47258 0.0
C506 C 0.63647 0.35969 0.49347 0.0
H507 H 0.72523 0.48556 0.44579 0.0
C508 C 0.71993 0.49433 0.38588 0.0
H509 H 0.68168 0.48535 0.29176 0.0
H510 H 0.54073 0.39716 0.49895 0.0
H511 H 0.53672 0.44903 0.45981 0.0
H512 H 0.58785 0.50054 0.39321 0.0
H513 H 0.64309 0.50031 0.36421 0.0
C514 C 0.68701 0.47684 0.352 0.0
C515 C 0.65683 0.44606 0.39544 0.0
C516 C 0.62502 0.44704 0.41422 0.0
C517 C 0.59582 0.41768 0.45458 0.0
C518 C 0.56395 0.41891 0.46972 0.0
C519 C 0.56125 0.44853 0.4475 0.0
C520 C 0.59002 0.47751 0.40991 0.0
C521 C 0.62158 0.47696 0.39339 0.0
H522 H 0.20965 0.53068 0.6787 0.0
C523 C 0.23591 0.53357 0.66713 0.0
H524 H 0.2874 0.56623 0.61603 0.0
H525 H 0.24717 0.65625 0.37424 0.0
H526 H 0.26521 0.62561 0.27394 0.0
H527 H 0.27717 0.57842 0.32093 0.0
H528 H 0.2718 0.56189 0.46917 0.0
C529 C 0.26106 0.56295 0.6285 0.0
C530 C 0.2535 0.59142 0.60045 0.0
C531 C 0.25599 0.60018 0.51329 0.0
C532 C 0.24817 0.62682 0.48578 0.0
C533 C 0.25203 0.63577 0.39864 0.0
C534 C 0.26247 0.61844 0.34026 0.0
C535 C 0.26928 0.59189 0.3668 0.0
C536 C 0.26612 0.58273 0.45214 0.0
H537 H 0.27176 0.71283 0.58671 0.0
C538 C 0.25087 0.70662 0.54021 0.0
H539 H 0.21007 0.66634 0.46652 0.0
H540 H 0.2527 0.58649 0.77411 0.0
H541 H 0.23213 0.61523 0.87364 0.0
H542 H 0.21146 0.65588 0.82384 0.0
H543 H 0.21235 0.66882 0.67434 0.0
C544 C 0.23003 0.67277 0.51558 0.0
C545 C 0.23714 0.64421 0.54518 0.0
C546 C 0.23419 0.63513 0.63223 0.0
C547 C 0.24371 0.60976 0.6603 0.0
C548 C 0.24366 0.60376 0.7485 0.0
C549 C 0.23225 0.62039 0.80656 0.0
C550 C 0.2208 0.64341 0.77858 0.0
C551 C 0.22171 0.6508 0.69256 0.0
H552 H 0.69348 0.18316 0.82493 0.0
C553 C 0.71477 0.2106 0.82191 0.0
H554 H 0.72895 0.26298 0.78865 0.0
H555 H 0.60765 0.23413 0.53092 0.0
H556 H 0.66021 0.26055 0.44091 0.0
H557 H 0.71844 0.27079 0.49391 0.0
H558 H 0.72457 0.25515 0.63765 0.0
C559 C 0.70785 0.23544 0.79106 0.0
C560 C 0.67189 0.22677 0.75841 0.0
C561 C 0.6685 0.23503 0.67329 0.0
C562 C 0.63473 0.22836 0.64208 0.0
C563 C 0.63246 0.23803 0.55762 0.0
C564 C 0.66246 0.25328 0.50519 0.0
C565 C 0.69525 0.25912 0.53508 0.0
C566 C 0.69839 0.25009 0.61793 0.0
H567 H 0.56896 0.24643 0.74124 0.0
C568 C 0.55556 0.22743 0.69044 0.0
H569 H 0.55745 0.18958 0.60907 0.0
H570 H 0.66952 0.21316 0.9292 0.0
H571 H 0.61668 0.18546 0.01769 0.0
H572 H 0.55721 0.1684 0.95919 0.0
H573 H 0.55051 0.17985 0.81202 0.0
C574 C 0.56933 0.20729 0.66284 0.0
C575 C 0.60421 0.21289 0.69556 0.0
C576 C 0.60741 0.20415 0.7803 0.0
C577 C 0.64145 0.21208 0.81262 0.0
C578 C 0.6442 0.20584 0.8996 0.0
C579 C 0.61405 0.19027 0.95156 0.0
C580 C 0.5806 0.18081 0.91874 0.0
C581 C 0.57716 0.18768 0.83423 0.0
H582 H 0.47821 0.7147 0.96607 0.0
C583 C 0.49665 0.70977 1.00282 0.0
H584 H 0.50527 0.67056 0.0589 0.0
H585 H 0.34197 0.55343 0.07423 0.0
H586 H 0.35832 0.56297 0.22305 0.0
H587 H 0.41742 0.61099 0.26774 0.0
H588 H 0.46095 0.64943 0.16423 0.0
C589 C 0.48794 0.6761 0.01958 0.0
C590 C 0.4527 0.64601 0.99177 0.0
C591 C 0.4273 0.62403 0.05328 0.0
C592 C 0.39279 0.59677 0.02761 0.0
C593 C 0.36831 0.5748 0.09031 0.0
C594 C 0.37732 0.57997 0.1759 0.0
C595 C 0.41066 0.60699 0.2011 0.0
C596 C 0.43544 0.62885 0.14088 0.0
H597 H 0.36982 0.53583 0.84704 0.0
C598 C 0.34535 0.53577 0.86511 0.0
H599 H 0.32377 0.56284 0.93375 0.0
H600 H 0.49665 0.67878 0.85602 0.0
H601 H 0.4793 0.67171 0.70823 0.0
H602 H 0.41731 0.62978 0.66542 0.0
H603 H 0.3727 0.59392 0.76981 0.0
C604 C 0.34773 0.5624 0.91356 0.0
C605 C 0.38345 0.59186 0.9406 0.0
C606 C 0.40861 0.61435 0.87919 0.0
C607 C 0.44366 0.64037 0.90445 0.0
C608 C 0.46908 0.66015 0.84098 0.0
C609 C 0.45957 0.65612 0.75574 0.0
C610 C 0.42474 0.63239 0.73161 0.0
C611 C 0.39946 0.61171 0.79225 0.0
H612 H 0.84532 0.4982 0.17229 0.0
C613 C 0.81981 0.49698 0.16092 0.0
H614 H 0.76821 0.46681 0.108 0.0
H615 H 0.8108 0.37604 0.86693 0.0
H616 H 0.80031 0.41135 0.76453 0.0
H617 H 0.78984 0.45981 0.81095 0.0
H618 H 0.78935 0.47305 0.96037 0.0
C619 C 0.79382 0.46854 0.12088 0.0
C620 C 0.79943 0.43868 0.0932 0.0
C621 C 0.80001 0.43152 1.00569 0.0
C622 C 0.80674 0.40395 0.97888 0.0
C623 C 0.80645 0.397 0.89098 0.0
C624 C 0.80037 0.41702 0.83142 0.0
C625 C 0.79442 0.44428 0.85758 0.0
C626 C 0.7942 0.45158 0.94356 0.0
H627 H 0.7746 0.31394 0.06841 0.0
C628 C 0.79784 0.32075 0.02876 0.0
H629 H 0.84299 0.36211 0.96843 0.0
H630 H 0.79384 0.44101 0.26605 0.0
H631 H 0.80633 0.40723 0.36869 0.0
H632 H 0.82433 0.36392 0.32229 0.0
H633 H 0.82887 0.35339 0.17306 0.0
C634 C 0.82039 0.35501 1.01047 0.0
C635 C 0.81326 0.38377 0.03962 0.0
C636 C 0.8128 0.39106 0.1273 0.0
C637 C 0.80467 0.41769 0.15409 0.0
C638 C 0.80171 0.42248 0.24205 0.0
C639 C 0.80854 0.40305 0.30175 0.0
C640 C 0.81849 0.37855 0.27563 0.0
C641 C 0.8207 0.37256 0.1896 0.0
H642 H 0.50685 0.80047 0.28557 0.0
C643 C 0.51471 0.81392 0.2248 0.0
H644 H 0.50462 0.84337 0.13373 0.0
H645 H 0.36013 0.76139 0.38545 0.0
H646 H 0.35644 0.70637 0.33866 0.0
H647 H 0.40142 0.70685 0.24021 0.0
H648 H 0.45101 0.76219 0.19149 0.0
C649 C 0.49728 0.83006 0.19469 0.0
C650 C 0.46688 0.82936 0.24214 0.0
C651 C 0.43632 0.79652 0.26347 0.0
C652 C 0.40852 0.79615 0.31312 0.0
C653 C 0.38052 0.76313 0.34224 0.0
C654 C 0.37828 0.73134 0.31663 0.0
C655 C 0.40371 0.73162 0.26174 0.0
C656 C 0.43238 0.7637 0.23511 0.0
H657 H 0.34321 0.79682 0.27115 0.0
C658 C 0.34507 0.81019 0.33096 0.0
H659 H 0.37925 0.84092 0.43044 0.0
H660 H 0.52182 0.89672 0.2143 0.0
H661 H 0.52316 0.95152 0.25323 0.0
H662 H 0.4721 0.95066 0.32727 0.0
H663 H 0.41959 0.895 0.36401 0.0
C664 C 0.37684 0.82773 0.37013 0.0
C665 C 0.40903 0.82842 0.33238 0.0
C666 C 0.43932 0.86117 0.31052 0.0
C667 C 0.46846 0.86165 0.2662 0.0
C668 C 0.4987 0.89477 0.24671 0.0
C669 C 0.49985 0.92644 0.26881 0.0
C670 C 0.47112 0.92596 0.31056 0.0
C671 C 0.44112 0.89381 0.33127 0.0
loop_
_geom_bond_atom_site_label_1
_geom_bond_atom_site_label_2
_geom_bond_distance
_geom_bond_site_symmetry_2
_ccdc_geom_bond_type
Fe0 O2 1.918 . S
Fe0 O5 1.997 . S
Fe0 O6 2.002 . S
Fe0 O11 1.976 . S
Fe0 O14 1.996 . S
Fe1 O2 1.918 . S
Fe1 O9 1.997 . S
Fe1 O12 1.996 . S
Fe1 O16 1.976 . S
Fe1 O19 2.002 . S
O2 Fe0 1.918 . S
O2 Fe1 1.918 . S
O2 Fe3 1.918 . S
Fe3 O2 1.918 . S
Fe3 O4 2.002 . S
Fe3 O13 1.976 . S
Fe3 O17 1.996 . S
Fe3 O20 1.997 . S
O4 Fe3 2.002 . S
O4 C21 1.295 . S
O5 Fe0 1.997 . S
O5 C21 1.235 . S
O6 Fe0 2.002 . S
O6 C7 1.295 . S
C7 O6 1.295 . S
C7 O9 1.235 . S
C8 O13 1.287 . S
C8 O14 1.255 . S
O9 Fe1 1.997 . S
O9 C7 1.235 . S
C10 O16 1.287 . S
C10 O17 1.255 . S
O11 Fe0 1.976 . S
O11 C18 1.287 . S
O12 Fe1 1.996 . S
O12 C18 1.255 . S
O13 Fe3 1.976 . S
O13 C8 1.287 . S
O14 Fe0 1.996 . S
O14 C8 1.255 . S
C15 O19 1.295 . S
C15 O20 1.235 . S
O16 Fe1 1.976 . S
O16 C10 1.287 . S
O17 Fe3 1.996 . S
O17 C10 1.255 . S
C18 O11 1.287 . S
C18 O12 1.255 . S
O19 Fe1 2.002 . S
O19 C15 1.295 . S
O20 Fe3 1.997 . S
O20 C15 1.235 . S
C21 O4 1.295 . S
C21 O5 1.235 . S
Fe22 O24 1.918 . S
Fe22 O27 1.997 . S
Fe22 O28 2.002 . S
Fe22 O33 1.976 . S
Fe22 O36 1.996 . S
Fe23 O24 1.918 . S
Fe23 O31 1.997 . S
Fe23 O34 1.996 . S
Fe23 O38 1.976 . S
Fe23 O41 2.002 . S
O24 Fe22 1.918 . S
O24 Fe23 1.918 . S
O24 Fe25 1.918 . S
Fe25 O24 1.918 . S
Fe25 O26 2.002 . S
Fe25 O35 1.976 . S
Fe25 O39 1.996 . S
Fe25 O42 1.997 . S
O26 Fe25 2.002 . S
O26 C43 1.295 . S
O27 Fe22 1.997 . S
O27 C43 1.235 . S
O28 Fe22 2.002 . S
O28 C29 1.295 . S
C29 O28 1.295 . S
C29 O31 1.235 . S
C30 O35 1.287 . S
C30 O36 1.255 . S
O31 Fe23 1.997 . S
O31 C29 1.235 . S
C32 O38 1.287 . S
C32 O39 1.255 . S
O33 Fe22 1.976 . S
O33 C40 1.287 . S
O34 Fe23 1.996 . S
O34 C40 1.255 . S
O35 Fe25 1.976 . S
O35 C30 1.287 . S
O36 Fe22 1.996 . S
O36 C30 1.255 . S
C37 O41 1.295 . S
C37 O42 1.235 . S
O38 Fe23 1.976 . S
O38 C32 1.287 . S
O39 Fe25 1.996 . S
O39 C32 1.255 . S
C40 O33 1.287 . S
C40 O34 1.255 . S
O41 Fe23 2.002 . S
O41 C37 1.295 . S
O42 Fe25 1.997 . S
O42 C37 1.235 . S
C43 O26 1.295 . S
C43 O27 1.235 . S
Fe44 O46 1.918 . S
Fe44 O49 1.997 1_556 S
Fe44 O50 2.002 . S
Fe44 O55 1.976 . S
Fe44 O58 1.996 . S
Fe45 O46 1.918 . S
Fe45 O53 1.997 . S
Fe45 O56 1.996 . S
Fe45 O60 1.976 . S
Fe45 O63 2.002 . S
O46 Fe44 1.918 . S
O46 Fe45 1.918 . S
O46 Fe47 1.918 . S
Fe47 O46 1.918 . S
Fe47 O48 2.002 1_556 S
Fe47 O57 1.976 . S
Fe47 O61 1.996 . S
Fe47 O64 1.997 1_556 S
O48 Fe47 2.002 1_554 S
O48 C65 1.295 . S
O49 Fe44 1.997 1_554 S
O49 C65 1.235 . S
O50 Fe44 2.002 . S
O50 C51 1.295 . S
C51 O50 1.295 . S
C51 O53 1.235 . S
C52 O57 1.287 . S
C52 O58 1.255 . S
O53 Fe45 1.997 . S
O53 C51 1.235 . S
C54 O60 1.287 . S
C54 O61 1.255 . S
O55 Fe44 1.976 . S
O55 C62 1.287 . S
O56 Fe45 1.996 . S
O56 C62 1.255 . S
O57 Fe47 1.976 . S
O57 C52 1.287 . S
O58 Fe44 1.996 . S
O58 C52 1.255 . S
C59 O63 1.295 . S
C59 O64 1.235 1_556 S
O60 Fe45 1.976 . S
O60 C54 1.287 . S
O61 Fe47 1.996 . S
O61 C54 1.255 . S
C62 O55 1.287 . S
C62 O56 1.255 . S
O63 Fe45 2.002 . S
O63 C59 1.295 . S
O64 Fe47 1.997 1_554 S
O64 C59 1.235 1_554 S
C65 O48 1.295 . S
C65 O49 1.235 . S
Fe66 O68 1.918 . S
Fe66 O71 1.997 . S
Fe66 O72 2.002 . S
Fe66 O77 1.976 1_554 S
Fe66 O80 1.996 . S
Fe67 O68 1.923 . S
Fe67 O75 1.998 . S
Fe67 O78 1.990 1_554 S
Fe67 O82 1.974 1_554 S
Fe67 O85 2.007 . S
O68 Fe66 1.918 . S
O68 Fe67 1.923 . S
O68 Fe69 1.918 . S
Fe69 O68 1.918 . S
Fe69 O70 2.002 . S
Fe69 O79 1.976 . S
Fe69 O83 1.996 . S
Fe69 O86 1.997 . S
O70 Fe69 2.002 . S
O70 C87 1.295 . S
O71 Fe66 1.997 . S
O71 C87 1.235 . S
O72 Fe66 2.002 . S
O72 C73 1.295 . S
C73 O72 1.295 . S
C73 O75 1.235 . S
C74 O79 1.287 . S
C74 O80 1.255 . S
O75 Fe67 1.998 . S
O75 C73 1.235 . S
C76 O82 1.287 1_554 S
C76 O83 1.255 . S
O77 Fe66 1.976 1_556 S
O77 C84 1.287 . S
O78 Fe67 1.990 1_556 S
O78 C84 1.255 . S
O79 Fe69 1.976 . S
O79 C74 1.287 . S
O80 Fe66 1.996 . S
O80 C74 1.255 . S
C81 O85 1.295 . S
C81 O86 1.235 . S
O82 Fe67 1.974 1_556 S
O82 C76 1.287 1_556 S
O83 Fe69 1.996 . S
O83 C76 1.255 . S
C84 O77 1.287 . S
C84 O78 1.255 . S
O85 Fe67 2.007 . S
O85 C81 1.295 . S
O86 Fe69 1.997 . S
O86 C81 1.235 . S
C87 O70 1.295 . S
C87 O71 1.235 . S
Fe88 O90 1.918 . S
Fe88 O93 1.997 . S
Fe88 O94 2.002 . S
Fe88 O99 1.976 . S
Fe88 O102 1.996 . S
Fe89 O90 1.918 . S
Fe89 O97 1.997 . S
Fe89 O100 1.996 . S
Fe89 O104 1.976 . S
Fe89 O107 2.002 . S
O90 Fe88 1.918 . S
O90 Fe89 1.918 . S
O90 Fe91 1.918 . S
Fe91 O90 1.918 . S
Fe91 O92 2.002 . S
Fe91 O101 1.976 . S
Fe91 O105 1.996 . S
Fe91 O108 1.997 . S
O92 Fe91 2.002 . S
O92 C109 1.295 . S
O93 Fe88 1.997 . S
O93 C109 1.235 . S
O94 Fe88 2.002 . S
O94 C95 1.295 . S
C95 O94 1.295 . S
C95 O97 1.235 . S
C96 O101 1.287 . S
C96 O102 1.255 . S
O97 Fe89 1.997 . S
O97 C95 1.235 . S
C98 O104 1.287 . S
C98 O105 1.255 . S
O99 Fe88 1.976 . S
O99 C106 1.287 . S
O100 Fe89 1.996 . S
O100 C106 1.255 . S
O101 Fe91 1.976 . S
O101 C96 1.287 . S
O102 Fe88 1.996 . S
O102 C96 1.255 . S
C103 O107 1.295 . S
C103 O108 1.235 . S
O104 Fe89 1.976 . S
O104 C98 1.287 . S
O105 Fe91 1.996 . S
O105 C98 1.255 . S
C106 O99 1.287 . S
C106 O100 1.255 . S
O107 Fe89 2.002 . S
O107 C103 1.295 . S
O108 Fe91 1.997 . S
O108 C103 1.235 . S
C109 O92 1.295 . S
C109 O93 1.235 . S
Fe110 O112 1.918 . S
Fe110 O115 1.997 . S
Fe110 O116 2.002 . S
Fe110 O121 1.976 . S
Fe110 O124 1.996 . S
Fe111 O112 1.918 . S
Fe111 O119 1.997 . S
Fe111 O122 1.996 . S
Fe111 O126 1.976 . S
Fe111 O129 2.002 . S
O112 Fe110 1.918 . S
O112 Fe111 1.918 . S
O112 Fe113 1.918 . S
Fe113 O112 1.918 . S
Fe113 O114 2.002 . S
Fe113 O123 1.976 . S
Fe113 O127 1.996 . S
Fe113 O130 1.997 . S
O114 Fe113 2.002 . S
O114 C131 1.295 . S
O115 Fe110 1.997 . S
O115 C131 1.235 . S
O116 Fe110 2.002 . S
O116 C117 1.295 . S
C117 O116 1.295 . S
C117 O119 1.235 . S
C118 O123 1.287 . S
C118 O124 1.255 . S
O119 Fe111 1.997 . S
O119 C117 1.235 . S
C120 O126 1.287 . S
C120 O127 1.255 . S
O121 Fe110 1.976 . S
O121 C128 1.287 . S
O122 Fe111 1.996 . S
O122 C128 1.255 . S
O123 Fe113 1.976 . S
O123 C118 1.287 . S
O124 Fe110 1.996 . S
O124 C118 1.255 . S
C125 O129 1.295 . S
C125 O130 1.235 . S
O126 Fe111 1.976 . S
O126 C120 1.287 . S
O127 Fe113 1.996 . S
O127 C120 1.255 . S
C128 O121 1.287 . S
C128 O122 1.255 . S
O129 Fe111 2.002 . S
O129 C125 1.295 . S
O130 Fe113 1.997 . S
O130 C125 1.235 . S
C131 O114 1.295 . S
C131 O115 1.235 . S
H132 C133 0.951 . S
C133 H132 0.951 . S
C133 C139 1.265 . S
H134 C139 0.950 . S
H135 C143 0.949 . S
H136 C144 0.950 1_556 S
H137 C145 0.951 . S
H138 C146 0.951 . S
C139 C133 1.265 . S
C139 H134 0.950 . S
C139 C140 1.478 . S
C140 C139 1.478 . S
C140 C141 1.397 . S
C140 C157 1.394 . S
C141 C140 1.397 . S
C141 C142 1.438 . S
C141 C146 1.429 . S
C142 C141 1.438 . S
C142 C143 1.428 1_554 S
C142 C155 1.394 1_554 S
C143 H135 0.949 . S
C143 C142 1.428 1_556 S
C143 C144 1.345 1_556 S
C144 H136 0.950 1_554 S
C144 C143 1.345 1_554 S
C144 C145 1.424 . S
C145 H137 0.951 . S
C145 C144 1.424 . S
C145 C146 1.347 . S
C146 H138 0.951 . S
C146 C141 1.429 . S
C146 C145 1.347 . S
H147 C148 0.951 . S
C148 H147 0.951 . S
C148 C154 1.265 . S
H149 C154 0.950 . S
H150 C158 0.949 . S
H151 C159 0.950 . S
H152 C160 0.951 . S
H153 C161 0.951 1_556 S
C154 C148 1.265 . S
C154 H149 0.950 . S
C154 C155 1.478 . S
C155 C142 1.394 1_556 S
C155 C154 1.478 . S
C155 C156 1.397 1_556 S
C156 C155 1.397 1_554 S
C156 C157 1.438 . S
C156 C161 1.429 . S
C157 C140 1.394 . S
C157 C156 1.438 . S
C157 C158 1.428 . S
C158 H150 0.949 . S
C158 C157 1.428 . S
C158 C159 1.345 . S
C159 H151 0.950 . S
C159 C158 1.345 . S
C159 C160 1.424 . S
C160 H152 0.951 . S
C160 C159 1.424 . S
C160 C161 1.347 . S
C161 H153 0.951 1_554 S
C161 C156 1.429 . S
C161 C160 1.347 . S
H162 C163 0.951 . S
C163 H162 0.951 . S
C163 C169 1.265 . S
H164 C169 0.950 . S
H165 C173 0.949 . S
H166 C174 0.950 . S
H167 C175 0.951 . S
H168 C176 0.951 . S
C169 C163 1.265 . S
C169 H164 0.950 . S
C169 C170 1.478 . S
C170 C169 1.478 . S
C170 C171 1.397 . S
C170 C187 1.394 . S
C171 C170 1.397 . S
C171 C172 1.438 . S
C171 C176 1.429 . S
C172 C171 1.438 . S
C172 C173 1.428 . S
C172 C185 1.394 . S
C173 H165 0.949 . S
C173 C172 1.428 . S
C173 C174 1.345 . S
C174 H166 0.950 . S
C174 C173 1.345 . S
C174 C175 1.424 . S
C175 H167 0.951 . S
C175 C174 1.424 . S
C175 C176 1.347 . S
C176 H168 0.951 . S
C176 C171 1.429 . S
C176 C175 1.347 . S
H177 C178 0.951 . S
C178 H177 0.951 . S
C178 C184 1.265 . S
H179 C184 0.950 . S
H180 C188 0.949 . S
H181 C189 0.950 . S
H182 C190 0.951 . S
H183 C191 0.951 . S
C184 C178 1.265 . S
C184 H179 0.950 . S
C184 C185 1.478 . S
C185 C172 1.394 . S
C185 C184 1.478 . S
C185 C186 1.397 . S
C186 C185 1.397 . S
C186 C187 1.438 . S
C186 C191 1.429 . S
C187 C170 1.394 . S
C187 C186 1.438 . S
C187 C188 1.428 . S
C188 H180 0.949 . S
C188 C187 1.428 . S
C188 C189 1.345 . S
C189 H181 0.950 . S
C189 C188 1.345 . S
C189 C190 1.424 . S
C190 H182 0.951 . S
C190 C189 1.424 . S
C190 C191 1.347 . S
C191 H183 0.951 . S
C191 C186 1.429 . S
C191 C190 1.347 . S
H192 C193 0.951 . S
C193 H192 0.951 . S
C193 C199 1.265 . S
H194 C199 0.950 . S
H195 C203 0.949 . S
H196 C204 0.950 . S
H197 C205 0.951 . S
H198 C206 0.951 . S
C199 C193 1.265 . S
C199 H194 0.950 . S
C199 C200 1.478 . S
C200 C199 1.478 . S
C200 C201 1.397 . S
C200 C217 1.394 . S
C201 C200 1.397 . S
C201 C202 1.438 . S
C201 C206 1.429 . S
C202 C201 1.438 . S
C202 C203 1.428 . S
C202 C215 1.394 . S
C203 H195 0.949 . S
C203 C202 1.428 . S
C203 C204 1.345 . S
C204 H196 0.950 . S
C204 C203 1.345 . S
C204 C205 1.424 . S
C205 H197 0.951 . S
C205 C204 1.424 . S
C205 C206 1.347 . S
C206 H198 0.951 . S
C206 C201 1.429 . S
C206 C205 1.347 . S
H207 C208 0.951 . S
C208 H207 0.951 . S
C208 C214 1.265 . S
H209 C214 0.950 . S
H210 C218 0.949 . S
H211 C219 0.950 . S
H212 C220 0.951 . S
H213 C221 0.951 . S
C214 C208 1.265 . S
C214 H209 0.950 . S
C214 C215 1.478 . S
C215 C202 1.394 . S
C215 C214 1.478 . S
C215 C216 1.397 . S
C216 C215 1.397 . S
C216 C217 1.438 . S
C216 C221 1.429 . S
C217 C200 1.394 . S
C217 C216 1.438 . S
C217 C218 1.428 . S
C218 H210 0.949 . S
C218 C217 1.428 . S
C218 C219 1.345 . S
C219 H211 0.950 . S
C219 C218 1.345 . S
C219 C220 1.424 . S
C220 H212 0.951 . S
C220 C219 1.424 . S
C220 C221 1.347 . S
C221 H213 0.951 . S
C221 C216 1.429 . S
C221 C220 1.347 . S
H222 C223 0.951 . S
C223 H222 0.951 . S
C223 C229 1.265 . S
H224 C229 0.950 . S
H225 C233 0.949 . S
H226 C234 0.950 . S
H227 C235 0.951 . S
H228 C236 0.951 . S
C229 C223 1.265 . S
C229 H224 0.950 . S
C229 C230 1.478 . S
C230 C229 1.478 . S
C230 C231 1.397 . S
C230 C247 1.394 . S
C231 C230 1.397 . S
C231 C232 1.438 . S
C231 C236 1.429 . S
C232 C231 1.438 . S
C232 C233 1.428 . S
C232 C245 1.394 . S
C233 H225 0.949 . S
C233 C232 1.428 . S
C233 C234 1.345 . S
C234 H226 0.950 . S
C234 C233 1.345 . S
C234 C235 1.424 . S
C235 H227 0.951 . S
C235 C234 1.424 . S
C235 C236 1.347 . S
C236 H228 0.951 . S
C236 C231 1.429 . S
C236 C235 1.347 . S
H237 C238 0.951 . S
C238 H237 0.951 . S
C238 C244 1.265 . S
H239 C244 0.950 . S
H240 C248 0.949 . S
H241 C249 0.950 . S
H242 C250 0.951 . S
H243 C251 0.951 . S
C244 C238 1.265 . S
C244 H239 0.950 . S
C244 C245 1.478 . S
C245 C232 1.394 . S
C245 C244 1.478 . S
C245 C246 1.397 . S
C246 C245 1.397 . S
C246 C247 1.438 . S
C246 C251 1.429 . S
C247 C230 1.394 . S
C247 C246 1.438 . S
C247 C248 1.428 . S
C248 H240 0.949 . S
C248 C247 1.428 . S
C248 C249 1.345 . S
C249 H241 0.950 . S
C249 C248 1.345 . S
C249 C250 1.424 . S
C250 H242 0.951 . S
C250 C249 1.424 . S
C250 C251 1.347 . S
C251 H243 0.951 . S
C251 C246 1.429 . S
C251 C250 1.347 . S
H252 C253 0.951 . S
C253 H252 0.951 . S
C253 C259 1.265 . S
H254 C259 0.950 . S
H255 C263 0.949 . S
H256 C264 0.950 . S
H257 C265 0.951 . S
H258 C266 0.951 . S
C259 C253 1.265 . S
C259 H254 0.950 . S
C259 C260 1.478 . S
C260 C259 1.478 . S
C260 C261 1.397 . S
C260 C277 1.394 . S
C261 C260 1.397 . S
C261 C262 1.438 . S
C261 C266 1.429 . S
C262 C261 1.438 . S
C262 C263 1.428 . S
C262 C275 1.394 . S
C263 H255 0.949 . S
C263 C262 1.428 . S
C263 C264 1.345 . S
C264 H256 0.950 . S
C264 C263 1.345 . S
C264 C265 1.424 . S
C265 H257 0.951 . S
C265 C264 1.424 . S
C265 C266 1.347 . S
C266 H258 0.951 . S
C266 C261 1.429 . S
C266 C265 1.347 . S
H267 C268 0.951 . S
C268 H267 0.951 . S
C268 C274 1.265 . S
H269 C274 0.950 . S
H270 C278 0.949 . S
H271 C279 0.950 . S
H272 C280 0.951 . S
H273 C281 0.951 . S
C274 C268 1.265 . S
C274 H269 0.950 . S
C274 C275 1.478 . S
C275 C262 1.394 . S
C275 C274 1.478 . S
C275 C276 1.397 . S
C276 C275 1.397 . S
C276 C277 1.438 . S
C276 C281 1.429 . S
C277 C260 1.394 . S
C277 C276 1.438 . S
C277 C278 1.428 . S
C278 H270 0.949 . S
C278 C277 1.428 . S
C278 C279 1.345 . S
C279 H271 0.950 . S
C279 C278 1.345 . S
C279 C280 1.424 . S
C280 H272 0.951 . S
C280 C279 1.424 . S
C280 C281 1.347 . S
C281 H273 0.951 . S
C281 C276 1.429 . S
C281 C280 1.347 . S
H282 C283 0.951 . S
C283 H282 0.951 . S
C283 C289 1.265 . S
H284 C289 0.950 . S
H285 C293 0.949 . S
H286 C294 0.950 . S
H287 C295 0.951 . S
H288 C296 0.951 1_554 S
C289 C283 1.265 . S
C289 H284 0.950 . S
C289 C290 1.478 1_554 S
C290 C289 1.478 1_556 S
C290 C291 1.397 . S
C290 C307 1.394 . S
C291 C290 1.397 . S
C291 C292 1.438 . S
C291 C296 1.429 . S
C292 C291 1.438 . S
C292 C293 1.428 . S
C292 C305 1.394 . S
C293 H285 0.949 . S
C293 C292 1.428 . S
C293 C294 1.345 . S
C294 H286 0.950 . S
C294 C293 1.345 . S
C294 C295 1.424 . S
C295 H287 0.951 . S
C295 C294 1.424 . S
C295 C296 1.347 . S
C296 H288 0.951 1_556 S
C296 C291 1.429 . S
C296 C295 1.347 . S
H297 C298 0.951 . S
C298 H297 0.951 . S
C298 C304 1.265 . S
H299 C304 0.950 . S
H300 C308 0.949 . S
H301 C309 0.950 1_554 S
H302 C310 0.951 . S
H303 C311 0.951 . S
C304 C298 1.265 . S
C304 H299 0.950 . S
C304 C305 1.478 . S
C305 C292 1.394 . S
C305 C304 1.478 . S
C305 C306 1.397 . S
C306 C305 1.397 . S
C306 C307 1.438 . S
C306 C311 1.429 . S
C307 C290 1.394 . S
C307 C306 1.438 . S
C307 C308 1.428 1_556 S
C308 H300 0.949 . S
C308 C307 1.428 1_554 S
C308 C309 1.345 1_554 S
C309 H301 0.950 1_556 S
C309 C308 1.345 1_556 S
C309 C310 1.424 . S
C310 H302 0.951 . S
C310 C309 1.424 . S
C310 C311 1.347 . S
C311 H303 0.951 . S
C311 C306 1.429 . S
C311 C310 1.347 . S
H312 C313 0.951 . S
C313 H312 0.951 . S
C313 C319 1.265 . S
H314 C319 0.950 . S
H315 C323 0.949 . S
H316 C324 0.950 . S
H317 C325 0.951 . S
H318 C326 0.951 . S
C319 C313 1.265 . S
C319 H314 0.950 . S
C319 C320 1.478 . S
C320 C319 1.478 . S
C320 C321 1.397 . S
C320 C337 1.394 . S
C321 C320 1.397 . S
C321 C322 1.438 1_545 S
C321 C326 1.429 . S
C322 C321 1.438 1_565 S
C322 C323 1.428 . S
C322 C335 1.394 . S
C323 H315 0.949 . S
C323 C322 1.428 . S
C323 C324 1.345 . S
C324 H316 0.950 . S
C324 C323 1.345 . S
C324 C325 1.424 1_565 S
C325 H317 0.951 . S
C325 C324 1.424 1_545 S
C325 C326 1.347 . S
C326 H318 0.951 . S
C326 C321 1.429 . S
C326 C325 1.347 . S
H327 C328 0.951 . S
C328 H327 0.951 . S
C328 C334 1.265 . S
H329 C334 0.950 . S
H330 C338 0.949 . S
H331 C339 0.950 . S
H332 C340 0.951 . S
H333 C341 0.951 . S
C334 C328 1.265 . S
C334 H329 0.950 . S
C334 C335 1.478 . S
C335 C322 1.394 . S
C335 C334 1.478 . S
C335 C336 1.397 . S
C336 C335 1.397 . S
C336 C337 1.438 1_565 S
C336 C341 1.429 . S
C337 C320 1.394 . S
C337 C336 1.438 1_545 S
C337 C338 1.428 . S
C338 H330 0.949 . S
C338 C337 1.428 . S
C338 C339 1.345 . S
C339 H331 0.950 . S
C339 C338 1.345 . S
C339 C340 1.424 1_545 S
C340 H332 0.951 . S
C340 C339 1.424 1_565 S
C340 C341 1.347 . S
C341 H333 0.951 . S
C341 C336 1.429 . S
C341 C340 1.347 . S
H342 C343 0.951 . S
C343 H342 0.951 . S
C343 C349 1.265 . S
H344 C349 0.950 . S
H345 C353 0.949 . S
H346 C354 0.950 . S
H347 C355 0.951 . S
H348 C356 0.951 . S
C349 C343 1.265 . S
C349 H344 0.950 . S
C349 C350 1.478 . S
C350 C349 1.478 . S
C350 C351 1.397 . S
C350 C367 1.394 . S
C351 C350 1.397 . S
C351 C352 1.438 . S
C351 C356 1.429 . S
C352 C351 1.438 . S
C352 C353 1.428 . S
C352 C365 1.394 . S
C353 H345 0.949 . S
C353 C352 1.428 . S
C353 C354 1.345 . S
C354 H346 0.950 . S
C354 C353 1.345 . S
C354 C355 1.424 . S
C355 H347 0.951 . S
C355 C354 1.424 . S
C355 C356 1.347 . S
C356 H348 0.951 . S
C356 C351 1.429 . S
C356 C355 1.347 . S
H357 C358 0.951 . S
C358 H357 0.951 . S
C358 C364 1.265 . S
H359 C364 0.950 . S
H360 C368 0.949 . S
H361 C369 0.950 . S
H362 C370 0.951 . S
H363 C371 0.951 . S
C364 C358 1.265 . S
C364 H359 0.950 . S
C364 C365 1.478 . S
C365 C352 1.394 . S
C365 C364 1.478 . S
C365 C366 1.397 . S
C366 C365 1.397 . S
C366 C367 1.438 . S
C366 C371 1.429 . S
C367 C350 1.394 . S
C367 C366 1.438 . S
C367 C368 1.428 . S
C368 H360 0.949 . S
C368 C367 1.428 . S
C368 C369 1.345 . S
C369 H361 0.950 . S
C369 C368 1.345 . S
C369 C370 1.424 . S
C370 H362 0.951 . S
C370 C369 1.424 . S
C370 C371 1.347 . S
C371 H363 0.951 . S
C371 C366 1.429 . S
C371 C370 1.347 . S
H372 C373 0.951 . S
C373 H372 0.951 . S
C373 C379 1.265 . S
H374 C379 0.950 . S
H375 C383 0.949 . S
H376 C384 0.950 . S
H377 C385 0.951 . S
H378 C386 0.951 . S
C379 C373 1.265 . S
C379 H374 0.950 . S
C379 C380 1.478 . S
C380 C379 1.478 . S
C380 C381 1.397 . S
C380 C397 1.394 . S
C381 C380 1.397 . S
C381 C382 1.438 1_655 S
C381 C386 1.429 . S
C382 C381 1.438 1_455 S
C382 C383 1.428 . S
C382 C395 1.394 . S
C383 H375 0.949 . S
C383 C382 1.428 . S
C383 C384 1.345 . S
C384 H376 0.950 . S
C384 C383 1.345 . S
C384 C385 1.424 1_455 S
C385 H377 0.951 . S
C385 C384 1.424 1_655 S
C385 C386 1.347 . S
C386 H378 0.951 . S
C386 C381 1.429 . S
C386 C385 1.347 . S
H387 C388 0.951 . S
C388 H387 0.951 . S
C388 C394 1.265 . S
H389 C394 0.950 . S
H390 C398 0.951 . S
H391 C399 0.950 . S
H392 C400 0.951 . S
H393 C401 0.951 . S
C394 C388 1.265 . S
C394 H389 0.950 . S
C394 C395 1.478 . S
C395 C382 1.394 . S
C395 C394 1.478 . S
C395 C396 1.397 . S
C396 C395 1.397 . S
C396 C397 1.438 1_455 S
C396 C401 1.429 . S
C397 C380 1.394 . S
C397 C396 1.438 1_655 S
C397 C398 1.428 . S
C398 H390 0.951 . S
C398 C397 1.428 . S
C398 C399 1.345 1_556 S
C399 H391 0.950 . S
C399 C398 1.345 1_554 S
C399 C400 1.424 1_655 S
C400 H392 0.951 . S
C400 C399 1.424 1_455 S
C400 C401 1.347 1_554 S
C401 H393 0.951 . S
C401 C396 1.429 . S
C401 C400 1.347 1_556 S
H402 C403 0.951 . S
C403 H402 0.951 . S
C403 C409 1.265 . S
H404 C409 0.950 . S
H405 C413 0.949 . S
H406 C414 0.950 . S
H407 C415 0.951 . S
H408 C416 0.951 . S
C409 C403 1.265 . S
C409 H404 0.950 . S
C409 C410 1.478 . S
C410 C409 1.478 . S
C410 C411 1.397 1_554 S
C410 C427 1.394 . S
C411 C410 1.397 1_556 S
C411 C412 1.438 1_565 S
C411 C416 1.429 . S
C412 C411 1.438 1_545 S
C412 C413 1.428 . S
C412 C425 1.394 . S
C413 H405 0.949 . S
C413 C412 1.428 . S
C413 C414 1.345 . S
C414 H406 0.950 . S
C414 C413 1.345 . S
C414 C415 1.424 1_545 S
C415 H407 0.951 . S
C415 C414 1.424 1_565 S
C415 C416 1.347 . S
C416 H408 0.951 . S
C416 C411 1.429 . S
C416 C415 1.347 . S
H417 C418 0.951 . S
C418 H417 0.951 . S
C418 C424 1.265 . S
H419 C424 0.950 . S
H420 C428 0.949 . S
H421 C429 0.950 . S
H422 C430 0.951 . S
H423 C431 0.951 . S
C424 C418 1.265 . S
C424 H419 0.950 . S
C424 C425 1.478 . S
C425 C412 1.394 . S
C425 C424 1.478 . S
C425 C426 1.397 1_556 S
C426 C425 1.397 1_554 S
C426 C427 1.438 1_545 S
C426 C431 1.429 . S
C427 C410 1.394 . S
C427 C426 1.438 1_565 S
C427 C428 1.428 . S
C428 H420 0.949 . S
C428 C427 1.428 . S
C428 C429 1.345 . S
C429 H421 0.950 . S
C429 C428 1.345 . S
C429 C430 1.424 1_565 S
C430 H422 0.951 . S
C430 C429 1.424 1_545 S
C430 C431 1.347 . S
C431 H423 0.951 . S
C431 C426 1.429 . S
C431 C430 1.347 . S
H432 C433 0.951 . S
C433 H432 0.951 . S
C433 C439 1.265 . S
H434 C439 0.950 . S
H435 C443 0.949 . S
H436 C444 0.950 . S
H437 C445 0.951 . S
H438 C446 0.951 . S
C439 C433 1.265 . S
C439 H434 0.950 . S
C439 C440 1.478 . S
C440 C439 1.478 . S
C440 C441 1.397 . S
C440 C457 1.394 . S
C441 C440 1.397 . S
C441 C442 1.438 . S
C441 C446 1.429 . S
C442 C441 1.438 . S
C442 C443 1.428 . S
C442 C455 1.394 . S
C443 H435 0.949 . S
C443 C442 1.428 . S
C443 C444 1.345 . S
C444 H436 0.950 . S
C444 C443 1.345 . S
C444 C445 1.424 . S
C445 H437 0.951 . S
C445 C444 1.424 . S
C445 C446 1.347 . S
C446 H438 0.951 . S
C446 C441 1.429 . S
C446 C445 1.347 . S
H447 C448 0.951 . S
C448 H447 0.951 . S
C448 C454 1.265 . S
H449 C454 0.950 . S
H450 C458 0.949 . S
H451 C459 0.950 . S
H452 C460 0.951 . S
H453 C461 0.951 . S
C454 C448 1.265 . S
C454 H449 0.950 . S
C454 C455 1.478 . S
C455 C442 1.394 . S
C455 C454 1.478 . S
C455 C456 1.397 . S
C456 C455 1.397 . S
C456 C457 1.438 . S
C456 C461 1.429 . S
C457 C440 1.394 . S
C457 C456 1.438 . S
C457 C458 1.428 . S
C458 H450 0.949 . S
C458 C457 1.428 . S
C458 C459 1.345 . S
C459 H451 0.950 . S
C459 C458 1.345 . S
C459 C460 1.424 . S
C460 H452 0.951 . S
C460 C459 1.424 . S
C460 C461 1.347 . S
C461 H453 0.951 . S
C461 C456 1.429 . S
C461 C460 1.347 . S
H462 C463 0.951 . S
C463 H462 0.951 . S
C463 C469 1.265 . S
H464 C469 0.950 . S
H465 C473 0.949 . S
H466 C474 0.950 . S
H467 C475 0.951 . S
H468 C476 0.951 . S
C469 C463 1.265 . S
C469 H464 0.950 . S
C469 C470 1.478 . S
C470 C469 1.478 . S
C470 C471 1.397 . S
C470 C487 1.394 . S
C471 C470 1.397 . S
C471 C472 1.438 1_655 S
C471 C476 1.429 . S
C472 C471 1.438 1_455 S
C472 C473 1.428 . S
C472 C485 1.394 . S
C473 H465 0.949 . S
C473 C472 1.428 . S
C473 C474 1.345 . S
C474 H466 0.950 . S
C474 C473 1.345 . S
C474 C475 1.424 . S
C475 H467 0.951 . S
C475 C474 1.424 . S
C475 C476 1.347 1_455 S
C476 H468 0.951 . S
C476 C471 1.429 . S
C476 C475 1.347 1_655 S
H477 C478 0.951 . S
C478 H477 0.951 . S
C478 C484 1.265 . S
H479 C484 0.950 . S
H480 C488 0.949 . S
H481 C489 0.950 . S
H482 C490 0.951 1_455 S
H483 C491 0.951 . S
C484 C478 1.265 . S
C484 H479 0.950 . S
C484 C485 1.478 . S
C485 C472 1.394 . S
C485 C484 1.478 . S
C485 C486 1.397 . S
C486 C485 1.397 . S
C486 C487 1.438 1_455 S
C486 C491 1.429 . S
C487 C470 1.394 . S
C487 C486 1.438 1_655 S
C487 C488 1.428 . S
C488 H480 0.949 . S
C488 C487 1.428 . S
C488 C489 1.345 . S
C489 H481 0.950 . S
C489 C488 1.345 . S
C489 C490 1.424 . S
C490 H482 0.951 1_655 S
C490 C489 1.424 . S
C490 C491 1.347 1_655 S
C491 H483 0.951 . S
C491 C486 1.429 . S
C491 C490 1.347 1_455 S
H492 C493 0.951 . S
C493 H492 0.951 . S
C493 C499 1.265 . S
H494 C499 0.950 . S
H495 C503 0.949 . S
H496 C504 0.950 . S
H497 C505 0.951 . S
H498 C506 0.951 . S
C499 C493 1.265 . S
C499 H494 0.950 . S
C499 C500 1.478 . S
C500 C499 1.478 . S
C500 C501 1.397 . S
C500 C517 1.394 . S
C501 C500 1.397 . S
C501 C502 1.438 . S
C501 C506 1.429 . S
C502 C501 1.438 . S
C502 C503 1.428 . S
C502 C515 1.394 . S
C503 H495 0.949 . S
C503 C502 1.428 . S
C503 C504 1.345 . S
C504 H496 0.950 . S
C504 C503 1.345 . S
C504 C505 1.424 . S
C505 H497 0.951 . S
C505 C504 1.424 . S
C505 C506 1.347 . S
C506 H498 0.951 . S
C506 C501 1.429 . S
C506 C505 1.347 . S
H507 C508 0.951 . S
C508 H507 0.951 . S
C508 C514 1.265 . S
H509 C514 0.950 . S
H510 C518 0.949 . S
H511 C519 0.950 . S
H512 C520 0.951 . S
H513 C521 0.951 . S
C514 C508 1.265 . S
C514 H509 0.950 . S
C514 C515 1.478 . S
C515 C502 1.394 . S
C515 C514 1.478 . S
C515 C516 1.397 . S
C516 C515 1.397 . S
C516 C517 1.438 . S
C516 C521 1.429 . S
C517 C500 1.394 . S
C517 C516 1.438 . S
C517 C518 1.428 . S
C518 H510 0.949 . S
C518 C517 1.428 . S
C518 C519 1.345 . S
C519 H511 0.950 . S
C519 C518 1.345 . S
C519 C520 1.424 . S
C520 H512 0.951 . S
C520 C519 1.424 . S
C520 C521 1.347 . S
C521 H513 0.951 . S
C521 C516 1.429 . S
C521 C520 1.347 . S
H522 C523 0.951 . S
C523 H522 0.951 . S
C523 C529 1.265 . S
H524 C529 0.950 . S
H525 C533 0.949 . S
H526 C534 0.950 . S
H527 C535 0.951 . S
H528 C536 0.951 . S
C529 C523 1.265 . S
C529 H524 0.950 . S
C529 C530 1.478 . S
C530 C529 1.478 . S
C530 C531 1.397 . S
C530 C547 1.394 . S
C531 C530 1.397 . S
C531 C532 1.438 . S
C531 C536 1.429 . S
C532 C531 1.438 . S
C532 C533 1.428 . S
C532 C545 1.394 . S
C533 H525 0.949 . S
C533 C532 1.428 . S
C533 C534 1.345 . S
C534 H526 0.950 . S
C534 C533 1.345 . S
C534 C535 1.424 . S
C535 H527 0.951 . S
C535 C534 1.424 . S
C535 C536 1.347 . S
C536 H528 0.951 . S
C536 C531 1.429 . S
C536 C535 1.347 . S
H537 C538 0.951 . S
C538 H537 0.951 . S
C538 C544 1.265 . S
H539 C544 0.950 . S
H540 C548 0.949 . S
H541 C549 0.950 . S
H542 C550 0.951 . S
H543 C551 0.951 . S
C544 C538 1.265 . S
C544 H539 0.950 . S
C544 C545 1.478 . S
C545 C532 1.394 . S
C545 C544 1.478 . S
C545 C546 1.397 . S
C546 C545 1.397 . S
C546 C547 1.438 . S
C546 C551 1.429 . S
C547 C530 1.394 . S
C547 C546 1.438 . S
C547 C548 1.428 . S
C548 H540 0.949 . S
C548 C547 1.428 . S
C548 C549 1.345 . S
C549 H541 0.950 . S
C549 C548 1.345 . S
C549 C550 1.424 . S
C550 H542 0.951 . S
C550 C549 1.424 . S
C550 C551 1.347 . S
C551 H543 0.951 . S
C551 C546 1.429 . S
C551 C550 1.347 . S
H552 C553 0.951 . S
C553 H552 0.951 . S
C553 C559 1.265 . S
H554 C559 0.950 . S
H555 C563 0.949 . S
H556 C564 0.950 . S
H557 C565 0.951 . S
H558 C566 0.951 . S
C559 C553 1.265 . S
C559 H554 0.950 . S
C559 C560 1.478 . S
C560 C559 1.478 . S
C560 C561 1.397 . S
C560 C577 1.394 . S
C561 C560 1.397 . S
C561 C562 1.438 . S
C561 C566 1.429 . S
C562 C561 1.438 . S
C562 C563 1.428 . S
C562 C575 1.394 . S
C563 H555 0.949 . S
C563 C562 1.428 . S
C563 C564 1.345 . S
C564 H556 0.950 . S
C564 C563 1.345 . S
C564 C565 1.424 . S
C565 H557 0.951 . S
C565 C564 1.424 . S
C565 C566 1.347 . S
C566 H558 0.951 . S
C566 C561 1.429 . S
C566 C565 1.347 . S
H567 C568 0.951 . S
C568 H567 0.951 . S
C568 C574 1.265 . S
H569 C574 0.950 . S
H570 C578 0.949 . S
H571 C579 0.950 . S
H572 C580 0.951 . S
H573 C581 0.951 . S
C574 C568 1.265 . S
C574 H569 0.950 . S
C574 C575 1.478 . S
C575 C562 1.394 . S
C575 C574 1.478 . S
C575 C576 1.397 . S
C576 C575 1.397 . S
C576 C577 1.438 . S
C576 C581 1.429 . S
C577 C560 1.394 . S
C577 C576 1.438 . S
C577 C578 1.428 . S
C578 H570 0.949 . S
C578 C577 1.428 . S
C578 C579 1.345 . S
C579 H571 0.950 . S
C579 C578 1.345 . S
C579 C580 1.424 . S
C580 H572 0.951 . S
C580 C579 1.424 . S
C580 C581 1.347 . S
C581 H573 0.951 . S
C581 C576 1.429 . S
C581 C580 1.347 . S
H582 C583 0.951 1_554 S
C583 H582 0.951 1_556 S
C583 C589 1.265 . S
H584 C589 0.950 . S
H585 C593 0.949 . S
H586 C594 0.950 . S
H587 C595 0.951 . S
H588 C596 0.951 . S
C589 C583 1.265 . S
C589 H584 0.950 . S
C589 C590 1.478 . S
C590 C589 1.478 . S
C590 C591 1.397 . S
C590 C607 1.394 . S
C591 C590 1.397 . S
C591 C592 1.438 . S
C591 C596 1.429 1_556 S
C592 C591 1.438 . S
C592 C593 1.428 . S
C592 C605 1.394 . S
C593 H585 0.949 . S
C593 C592 1.428 . S
C593 C594 1.345 1_556 S
C594 H586 0.950 . S
C594 C593 1.345 1_554 S
C594 C595 1.424 . S
C595 H587 0.951 . S
C595 C594 1.424 . S
C595 C596 1.347 . S
C596 H588 0.951 . S
C596 C591 1.429 1_554 S
C596 C595 1.347 . S
H597 C598 0.951 . S
C598 H597 0.951 . S
C598 C604 1.265 . S
H599 C604 0.950 . S
H600 C608 0.949 . S
H601 C609 0.950 . S
H602 C610 0.951 . S
H603 C611 0.951 . S
C604 C598 1.265 . S
C604 H599 0.950 . S
C604 C605 1.478 . S
C605 C592 1.394 . S
C605 C604 1.478 . S
C605 C606 1.397 . S
C606 C605 1.397 . S
C606 C607 1.438 . S
C606 C611 1.429 . S
C607 C590 1.394 . S
C607 C606 1.438 . S
C607 C608 1.428 . S
C608 H600 0.949 . S
C608 C607 1.428 . S
C608 C609 1.345 . S
C609 H601 0.950 . S
C609 C608 1.345 . S
C609 C610 1.424 . S
C610 H602 0.951 . S
C610 C609 1.424 . S
C610 C611 1.347 . S
C611 H603 0.951 . S
C611 C606 1.429 . S
C611 C610 1.347 . S
H612 C613 0.951 . S
C613 H612 0.951 . S
C613 C619 1.265 . S
H614 C619 0.950 . S
H615 C623 0.949 . S
H616 C624 0.950 . S
H617 C625 0.951 . S
H618 C626 0.951 . S
C619 C613 1.265 . S
C619 H614 0.950 . S
C619 C620 1.478 . S
C620 C619 1.478 . S
C620 C621 1.397 . S
C620 C637 1.394 . S
C621 C620 1.397 . S
C621 C622 1.438 . S
C621 C626 1.429 . S
C622 C621 1.438 . S
C622 C623 1.428 1_554 S
C622 C635 1.394 . S
C623 H615 0.949 . S
C623 C622 1.428 1_556 S
C623 C624 1.345 . S
C624 H616 0.950 . S
C624 C623 1.345 . S
C624 C625 1.424 . S
C625 H617 0.951 . S
C625 C624 1.424 . S
C625 C626 1.347 1_556 S
C626 H618 0.951 . S
C626 C621 1.429 . S
C626 C625 1.347 1_554 S
H627 C628 0.951 . S
C628 H627 0.951 . S
C628 C634 1.265 . S
H629 C634 0.950 1_556 S
H630 C638 0.949 . S
H631 C639 0.950 . S
H632 C640 0.951 . S
H633 C641 0.951 . S
C634 C628 1.265 . S
C634 H629 0.950 1_554 S
C634 C635 1.478 . S
C635 C622 1.394 . S
C635 C634 1.478 . S
C635 C636 1.397 . S
C636 C635 1.397 . S
C636 C637 1.438 . S
C636 C641 1.429 . S
C637 C620 1.394 . S
C637 C636 1.438 . S
C637 C638 1.428 . S
C638 H630 0.949 . S
C638 C637 1.428 . S
C638 C639 1.345 . S
C639 H631 0.950 . S
C639 C638 1.345 . S
C639 C640 1.424 . S
C640 H632 0.951 . S
C640 C639 1.424 . S
C640 C641 1.347 . S
C641 H633 0.951 . S
C641 C636 1.429 . S
C641 C640 1.347 . S
H642 C643 0.951 . S
C643 H642 0.951 . S
C643 C649 1.265 . S
H644 C649 0.950 . S
H645 C653 0.949 . S
H646 C654 0.950 . S
H647 C655 0.951 . S
H648 C656 0.951 . S
C649 C643 1.265 . S
C649 H644 0.950 . S
C649 C650 1.478 . S
C650 C649 1.478 . S
C650 C651 1.397 . S
C650 C667 1.394 . S
C651 C650 1.397 . S
C651 C652 1.438 . S
C651 C656 1.429 . S
C652 C651 1.438 . S
C652 C653 1.428 . S
C652 C665 1.394 . S
C653 H645 0.949 . S
C653 C652 1.428 . S
C653 C654 1.345 . S
C654 H646 0.950 . S
C654 C653 1.345 . S
C654 C655 1.424 . S
C655 H647 0.951 . S
C655 C654 1.424 . S
C655 C656 1.347 . S
C656 H648 0.951 . S
C656 C651 1.429 . S
C656 C655 1.347 . S
H657 C658 0.951 . S
C658 H657 0.951 . S
C658 C664 1.265 . S
H659 C664 0.950 . S
H660 C668 0.949 . S
H661 C669 0.950 . S
H662 C670 0.951 . S
H663 C671 0.951 . S
C664 C658 1.265 . S
C664 H659 0.950 . S
C664 C665 1.478 . S
C665 C652 1.394 . S
C665 C664 1.478 . S
C665 C666 1.397 . S
C666 C665 1.397 . S
C666 C667 1.438 . S
C666 C671 1.429 . S
C667 C650 1.394 . S
C667 C666 1.438 . S
C667 C668 1.428 . S
C668 H660 0.949 . S
C668 C667 1.428 . S
C668 C669 1.345 . S
C669 H661 0.950 . S
C669 C668 1.345 . S
C669 C670 1.424 . S
C670 H662 0.951 . S
C670 C669 1.424 . S
C670 C671 1.347 . S
C671 H663 0.951 . S
C671 C666 1.429 . S
C671 C670 1.347 . S
C133 C10 1.385 . S
C148 C7 1.433 . S
C163 C32 1.441 . S
C178 C29 1.451 1_554 S
C193 C65 1.378 . S
C208 C62 1.446 . S
C223 C87 1.449 . S
C238 C84 1.387 . S
C253 C109 1.448 . S
C268 C106 1.445 1_556 S
C283 C128 1.400 . S
C298 C131 1.462 . S
C313 C15 1.562 . S
C328 C118 1.563 . S
C343 C18 1.565 . S
C358 C37 1.589 . S
C373 C51 1.585 . S
C388 C40 1.562 . S
C403 C73 1.587 . S
C418 C52 1.564 . S
C433 C95 1.569 . S
C448 C74 1.594 . S
C463 C96 1.563 . S
C478 C117 1.586 . S
C493 C8 1.321 . S
C508 C103 1.333 . S
C523 C30 1.310 . S
C538 C125 1.268 . S
C553 C54 1.326 . S
C568 C21 1.291 . S
C583 C76 1.292 1_556 S
C598 C43 1.300 . S
C613 C98 1.327 . S
C628 C59 1.293 1_554 S
C643 C81 1.323 . S
C658 C120 1.331 . S
