# Generated by pormake.
# Topology lcy-e, (6)-cn, num edge types: 1
# Building blocks:
#     Node 0, Type 0, BuildingBlock: UKALOJ_clean_sbu_0, # of connection points: 6
#     Node 1, Type 0, BuildingBlock: UKALOJ_clean_sbu_0, # of connection points: 6
#     Node 2, Type 0, BuildingBlock: UKALOJ_clean_sbu_0, # of connection points: 6
#     Node 3, Type 0, BuildingBlock: UKALOJ_clean_sbu_0, # of connection points: 6
#     Node 4, Type 0, BuildingBlock: UKALOJ_clean_sbu_0, # of connection points: 6
#     Node 5, Type 0, BuildingBlock: UKALOJ_clean_sbu_0, # of connection points: 6
#     Node 6, Type 0, BuildingBlock: UKALOJ_clean_sbu_0, # of connection points: 6
#     Node 7, Type 0, BuildingBlock: UKALOJ_clean_sbu_0, # of connection points: 6
#     Node 8, Type 0, BuildingBlock: UKALOJ_clean_sbu_0, # of connection points: 6
#     Node 9, Type 0, BuildingBlock: UKALOJ_clean_sbu_0, # of connection points: 6
#     Node 10, Type 0, BuildingBlock: UKALOJ_clean_sbu_0, # of connection points: 6
#     Node 11, Type 0, BuildingBlock: UKALOJ_clean_sbu_0, # of connection points: 6
#     Edge 12, Type (0, 0), BuildingBlock: CIFDUS_clean_linker_0, # of connection points: 2
#     Edge 13, Type (0, 0), BuildingBlock: CIFDUS_clean_linker_0, # of connection points: 2
#     Edge 14, Type (0, 0), BuildingBlock: CIFDUS_clean_linker_0, # of connection points: 2
#     Edge 15, Type (0, 0), BuildingBlock: CIFDUS_clean_linker_0, # of connection points: 2
#     Edge 16, Type (0, 0), BuildingBlock: CIFDUS_clean_linker_0, # of connection points: 2
#     Edge 17, Type (0, 0), BuildingBlock: CIFDUS_clean_linker_0, # of connection points: 2
#     Edge 18, Type (0, 0), BuildingBlock: CIFDUS_clean_linker_0, # of connection points: 2
#     Edge 19, Type (0, 0), BuildingBlock: CIFDUS_clean_linker_0, # of connection points: 2
#     Edge 20, Type (0, 0), BuildingBlock: CIFDUS_clean_linker_0, # of connection points: 2
#     Edge 21, Type (0, 0), BuildingBlock: CIFDUS_clean_linker_0, # of connection points: 2
#     Edge 22, Type (0, 0), BuildingBlock: CIFDUS_clean_linker_0, # of connection points: 2
#     Edge 23, Type (0, 0), BuildingBlock: CIFDUS_clean_linker_0, # of connection points: 2
#     Edge 24, Type (0, 0), BuildingBlock: CIFDUS_clean_linker_0, # of connection points: 2
#     Edge 25, Type (0, 0), BuildingBlock: CIFDUS_clean_linker_0, # of connection points: 2
#     Edge 26, Type (0, 0), BuildingBlock: CIFDUS_clean_linker_0, # of connection points: 2
#     Edge 27, Type (0, 0), BuildingBlock: CIFDUS_clean_linker_0, # of connection points: 2
#     Edge 28, Type (0, 0), BuildingBlock: CIFDUS_clean_linker_0, # of connection points: 2
#     Edge 29, Type (0, 0), BuildingBlock: CIFDUS_clean_linker_0, # of connection points: 2
#     Edge 30, Type (0, 0), BuildingBlock: CIFDUS_clean_linker_0, # of connection points: 2
#     Edge 31, Type (0, 0), BuildingBlock: CIFDUS_clean_linker_0, # of connection points: 2
#     Edge 32, Type (0, 0), BuildingBlock: CIFDUS_clean_linker_0, # of connection points: 2
#     Edge 33, Type (0, 0), BuildingBlock: CIFDUS_clean_linker_0, # of connection points: 2
#     Edge 34, Type (0, 0), BuildingBlock: CIFDUS_clean_linker_0, # of connection points: 2
#     Edge 35, Type (0, 0), BuildingBlock: CIFDUS_clean_linker_0, # of connection points: 2
#     Edge 36, Type (0, 0), BuildingBlock: CIFDUS_clean_linker_0, # of connection points: 2
#     Edge 37, Type (0, 0), BuildingBlock: CIFDUS_clean_linker_0, # of connection points: 2
#     Edge 38, Type (0, 0), BuildingBlock: CIFDUS_clean_linker_0, # of connection points: 2
#     Edge 39, Type (0, 0), BuildingBlock: CIFDUS_clean_linker_0, # of connection points: 2
#     Edge 40, Type (0, 0), BuildingBlock: CIFDUS_clean_linker_0, # of connection points: 2
#     Edge 41, Type (0, 0), BuildingBlock: CIFDUS_clean_linker_0, # of connection points: 2
#     Edge 42, Type (0, 0), BuildingBlock: CIFDUS_clean_linker_0, # of connection points: 2
#     Edge 43, Type (0, 0), BuildingBlock: CIFDUS_clean_linker_0, # of connection points: 2
#     Edge 44, Type (0, 0), BuildingBlock: CIFDUS_clean_linker_0, # of connection points: 2
#     Edge 45, Type (0, 0), BuildingBlock: CIFDUS_clean_linker_0, # of connection points: 2
#     Edge 46, Type (0, 0), BuildingBlock: CIFDUS_clean_linker_0, # of connection points: 2
#     Edge 47, Type (0, 0), BuildingBlock: CIFDUS_clean_linker_0, # of connection points: 2
# Relax obj value: 0.280
# Max RMSD: 0.292
# Mean RMSD: 0.292
data_MOF--net-lcy-e--node1-UKALOJ_clean_sbu_0--edge1-CIFDUS_clean_linker_0
_symmetry_space_group_name_H-M    P1
_symmetry_Int_Tables_number       1
_symmetry_cell_setting            triclinic
loop_
_symmetry_equiv_pos_as_xyz
'x, y, z'
_cell_length_a     34.804796
_cell_length_b     34.868312
_cell_length_c     34.879478
_cell_angle_alpha  89.918599
_cell_angle_beta   90.048927
_cell_angle_gamma 90.381963
loop_
_atom_site_label
_atom_site_type_symbol
_atom_site_fract_x
_atom_site_fract_y
_atom_site_fract_z
_atom_type_partial_charge
Zn0 Zn 0.10413 0.23989 0.44088 0.0
O1 O 0.14453 0.27683 0.46227 0.0
C2 C 0.16648 0.18742 0.41216 0.0
Zn3 Zn 0.1231 0.19623 0.48312 0.0
C4 C 0.16637 0.26982 0.49033 0.0
O5 O 0.16559 0.23649 0.50559 0.0
C6 C 0.05717 0.17101 0.43343 0.0
O7 O 0.08467 0.21804 0.52143 0.0
O8 O 0.06388 0.26296 0.48261 0.0
N9 N 0.13871 0.15489 0.52158 0.0
C10 C 0.11781 0.12696 0.53858 0.0
C11 C 0.17638 0.11808 0.55389 0.0
N12 N 0.17508 0.14936 0.53117 0.0
N13 N 0.14085 0.10321 0.55858 0.0
C14 C 0.11153 0.29561 0.37256 0.0
C15 C 0.05373 0.31256 0.36214 0.0
N16 N 0.08957 0.27936 0.40007 0.0
N17 N 0.05366 0.28999 0.39361 0.0
N18 N 0.08966 0.31601 0.34812 0.0
H19 H 0.16759 0.28649 0.39844 0.0
H20 H 0.16691 0.32059 0.35974 0.0
H21 H 0.16261 0.27024 0.35006 0.0
C22 C 0.15456 0.29317 0.37041 0.0
C23 C 0.07477 0.12406 0.5372 0.0
H24 H 0.06338 0.11183 0.56433 0.0
H25 H 0.06615 0.10488 0.51331 0.0
H26 H 0.06153 0.15237 0.53238 0.0
O27 O 0.07922 0.15874 0.45977 0.0
O28 O 0.06194 0.20438 0.42007 0.0
C29 C 0.06325 0.24658 0.51544 0.0
O30 O 0.14522 0.21502 0.40147 0.0
O31 O 0.16267 0.17418 0.44569 0.0
Zn32 Zn 0.00011 0.86056 0.69504 0.0
O33 O 0.96887 0.90431 0.71628 0.0
C34 C 0.0546 0.9192 0.66153 0.0
Zn35 Zn 0.0469 0.87806 0.7343 0.0
C36 C 0.97726 0.92565 0.74424 0.0
O37 O 0.01034 0.92246 0.75987 0.0
C38 C 0.06437 0.81042 0.68238 0.0
O39 O 0.02557 0.84055 0.77486 0.0
O40 O 0.97587 0.82402 0.73958 0.0
N41 N 0.09213 0.89139 0.76931 0.0
C42 C 0.11977 0.86908 0.78453 0.0
C43 C 0.13306 0.92689 0.79948 0.0
N44 N 0.10046 0.9273 0.77861 0.0
N45 N 0.14605 0.89074 0.80321 0.0
C46 C 0.93814 0.87214 0.63282 0.0
C47 C 0.92052 0.81492 0.62029 0.0
N48 N 0.95628 0.84876 0.65776 0.0
N49 N 0.94496 0.81328 0.65021 0.0
N50 N 0.91566 0.85151 0.60861 0.0
H51 H 0.91709 0.92903 0.64147 0.0
H52 H 0.94983 0.92444 0.60157 0.0
H53 H 0.96657 0.92558 0.65024 0.0
C54 C 0.94365 0.91497 0.63133 0.0
C55 C 0.11996 0.82608 0.7828 0.0
H56 H 0.09077 0.81427 0.77834 0.0
H57 H 0.13198 0.81389 0.80962 0.0
H58 H 0.13826 0.81686 0.75853 0.0
O59 O 0.08038 0.83255 0.70686 0.0
O60 O 0.02967 0.81582 0.6735 0.0
C61 C 0.99429 0.82221 0.77126 0.0
O62 O 0.02668 0.89733 0.65247 0.0
O63 O 0.06833 0.91718 0.69503 0.0
Zn64 Zn 0.36602 0.79169 0.97912 0.0
O65 O 0.40198 0.7718 0.02076 0.0
C66 C 0.43473 0.81602 0.93118 0.0
Zn67 Zn 0.38844 0.74763 0.93945 0.0
C68 C 0.42436 0.74371 0.0169 0.0
O69 O 0.42657 0.72696 0.98443 0.0
C70 C 0.32682 0.79755 0.90492 0.0
O71 O 0.34706 0.71159 0.96053 0.0
O72 O 0.3221 0.7523 0.00123 0.0
N73 N 0.40598 0.70633 0.90237 0.0
C74 C 0.38606 0.68854 0.8744 0.0
C75 C 0.44469 0.67222 0.86842 0.0
N76 N 0.4424 0.69606 0.89877 0.0
N77 N 0.40975 0.66758 0.85242 0.0
C78 C 0.37241 0.8607 0.03311 0.0
C79 C 0.31737 0.88672 0.02818 0.0
N80 N 0.34968 0.83624 0.01338 0.0
N81 N 0.31543 0.85236 0.01051 0.0
N82 N 0.35299 0.89275 0.04211 0.0
H83 H 0.41182 0.82668 0.06541 0.0
H84 H 0.42569 0.8758 0.06267 0.0
H85 H 0.43133 0.84512 0.02152 0.0
C86 C 0.41263 0.85196 0.04616 0.0
C87 C 0.34322 0.69027 0.86926 0.0
H88 H 0.32829 0.69766 0.89609 0.0
H89 H 0.33196 0.66232 0.85881 0.0
H90 H 0.33624 0.71236 0.84756 0.0
O91 O 0.34907 0.77006 0.89617 0.0
O92 O 0.3287 0.81155 0.93825 0.0
C93 C 0.32306 0.71863 0.98672 0.0
O94 O 0.41116 0.82848 0.956 0.0
O95 O 0.4314 0.78218 0.91886 0.0
Zn96 Zn 0.48278 0.12472 0.19478 0.0
O97 O 0.51765 0.08085 0.21242 0.0
C98 C 0.4235 0.06663 0.16853 0.0
Zn99 Zn 0.44109 0.10696 0.2394 0.0
C100 C 0.51191 0.05993 0.24149 0.0
O101 O 0.48038 0.06313 0.25991 0.0
C102 C 0.41614 0.17418 0.19081 0.0
O103 O 0.46702 0.1443 0.27653 0.0
O104 O 0.51208 0.16174 0.23603 0.0
N105 N 0.40109 0.09322 0.2799 0.0
C106 C 0.3748 0.11543 0.29727 0.0
C107 C 0.36283 0.05757 0.31333 0.0
N108 N 0.39372 0.05728 0.29001 0.0
N109 N 0.35019 0.0937 0.31789 0.0
C110 C 0.53828 0.1152 0.12606 0.0
C111 C 0.55496 0.17282 0.11415 0.0
N112 N 0.5216 0.13775 0.15263 0.0
N113 N 0.53222 0.17348 0.14535 0.0
N114 N 0.55937 0.13664 0.10112 0.0
H115 H 0.56032 0.05856 0.1337 0.0
H116 H 0.52533 0.06301 0.09533 0.0
H117 H 0.51126 0.06172 0.14476 0.0
C118 C 0.53316 0.07239 0.12472 0.0
C119 C 0.37422 0.15845 0.29564 0.0
H120 H 0.36361 0.17038 0.32312 0.0
H121 H 0.35449 0.16775 0.27253 0.0
H122 H 0.40306 0.17047 0.28968 0.0
O123 O 0.40428 0.15161 0.21707 0.0
O124 O 0.44939 0.1696 0.17706 0.0
C125 C 0.49734 0.1632 0.26954 0.0
O126 O 0.45092 0.08739 0.15581 0.0
O127 O 0.41461 0.06867 0.20355 0.0
Zn128 Zn 0.61204 0.25496 0.54531 0.0
O129 O 0.65657 0.22123 0.52791 0.0
C130 C 0.67037 0.3106 0.57725 0.0
Zn131 Zn 0.63265 0.29783 0.50326 0.0
C132 C 0.67816 0.22726 0.49943 0.0
O133 O 0.67627 0.25938 0.48192 0.0
C134 C 0.56298 0.32054 0.54964 0.0
O135 O 0.59593 0.27418 0.46293 0.0
O136 O 0.57713 0.22801 0.50162 0.0
N137 N 0.64794 0.34032 0.46588 0.0
C138 C 0.62575 0.36438 0.44535 0.0
C139 C 0.68295 0.38659 0.44384 0.0
N140 N 0.68352 0.35397 0.46461 0.0
N141 N 0.64705 0.39377 0.43139 0.0
C142 C 0.62009 0.19622 0.61071 0.0
C143 C 0.56201 0.18074 0.62276 0.0
N144 N 0.5977 0.21425 0.58486 0.0
N145 N 0.56167 0.20436 0.59215 0.0
N146 N 0.59831 0.17501 0.63504 0.0
H147 H 0.67444 0.22421 0.5953 0.0
H148 H 0.67678 0.17433 0.60208 0.0
H149 H 0.67228 0.20561 0.64312 0.0
C150 C 0.66309 0.20075 0.61304 0.0
C151 C 0.58285 0.3608 0.44131 0.0
H152 H 0.57584 0.35181 0.41163 0.0
H153 H 0.56901 0.38885 0.44675 0.0
H154 H 0.57021 0.33909 0.46052 0.0
O155 O 0.58747 0.33391 0.526 0.0
O156 O 0.56621 0.28676 0.56215 0.0
C157 C 0.57668 0.24375 0.46855 0.0
O158 O 0.64723 0.28411 0.5874 0.0
O159 O 0.67078 0.32124 0.54259 0.0
Zn160 Zn 0.94365 0.38166 0.75397 0.0
O161 O 0.96139 0.34287 0.71322 0.0
C162 C 0.91421 0.31813 0.80525 0.0
Zn163 Zn 0.98747 0.35695 0.79302 0.0
C164 C 0.98737 0.31808 0.7179 0.0
O165 O 0.00367 0.31504 0.75055 0.0
C166 C 0.94322 0.42325 0.82578 0.0
O167 O 0.0267 0.39333 0.76959 0.0
O168 O 0.98617 0.42226 0.73127 0.0
N169 N 0.02798 0.33803 0.83089 0.0
C170 C 0.04791 0.35797 0.85745 0.0
C171 C 0.06073 0.29884 0.86585 0.0
N172 N 0.03611 0.30129 0.836 0.0
N173 N 0.06814 0.33405 0.87994 0.0
C174 C 0.87604 0.3806 0.69671 0.0
C175 C 0.85926 0.43928 0.69432 0.0
N176 N 0.90141 0.40077 0.71802 0.0
N177 N 0.89099 0.43722 0.71646 0.0
N178 N 0.84919 0.40408 0.68191 0.0
H179 H 0.90392 0.33525 0.66681 0.0
H180 H 0.85385 0.32668 0.6735 0.0
H181 H 0.88658 0.32174 0.71319 0.0
C182 C 0.87987 0.33872 0.6873 0.0
C183 C 0.04886 0.40095 0.8609 0.0
H184 H 0.04292 0.41519 0.83328 0.0
H185 H 0.07736 0.41082 0.87142 0.0
H186 H 0.02691 0.41015 0.88195 0.0
O187 O 0.97036 0.40024 0.83325 0.0
O188 O 0.92606 0.4213 0.79392 0.0
C189 C 0.02028 0.4185 0.74436 0.0
O190 O 0.90364 0.34065 0.77851 0.0
O191 O 0.94863 0.3194 0.81682 0.0
Zn192 Zn 0.87857 0.74045 0.04636 0.0
O193 O 0.83936 0.77594 0.02339 0.0
C194 C 0.81304 0.68842 0.072 0.0
Zn195 Zn 0.86058 0.69601 0.00512 0.0
C196 C 0.82014 0.76966 0.99334 0.0
O197 O 0.8221 0.73683 0.97726 0.0
C198 C 0.92098 0.67092 0.06179 0.0
O199 O 0.90389 0.71681 0.97042 0.0
O200 O 0.92053 0.76508 0.00729 0.0
N201 N 0.84903 0.65451 0.96545 0.0
C202 C 0.87262 0.62891 0.94876 0.0
C203 C 0.81534 0.61426 0.93279 0.0
N204 N 0.81351 0.64559 0.95522 0.0
N205 N 0.85208 0.60287 0.92821 0.0
C206 C 0.86448 0.79425 0.11329 0.0
C207 C 0.91842 0.79329 0.14223 0.0
N208 N 0.89012 0.77831 0.08927 0.0
N209 N 0.9237 0.77803 0.10717 0.0
N210 N 0.8813 0.80288 0.14704 0.0
H211 H 0.82387 0.81993 0.07495 0.0
H212 H 0.81038 0.82341 0.12382 0.0
H213 H 0.80617 0.77798 0.09935 0.0
C214 C 0.82391 0.80426 0.10251 0.0
C215 C 0.91556 0.62934 0.95348 0.0
H216 H 0.92563 0.65009 0.97496 0.0
H217 H 0.92899 0.63852 0.92613 0.0
H218 H 0.92602 0.60041 0.96144 0.0
O219 O 0.89926 0.6572 0.03575 0.0
O220 O 0.91881 0.70603 0.0698 0.0
C221 C 0.92349 0.74707 0.97556 0.0
O222 O 0.83592 0.71468 0.08327 0.0
O223 O 0.8162 0.67556 0.03829 0.0
Zn224 Zn 0.54325 0.61103 0.25304 0.0
O225 O 0.52327 0.65237 0.21678 0.0
C226 C 0.57356 0.67319 0.30546 0.0
Zn227 Zn 0.50081 0.63229 0.29511 0.0
C228 C 0.49551 0.67482 0.2224 0.0
O229 O 0.47878 0.67466 0.25501 0.0
C230 C 0.54979 0.56532 0.3213 0.0
O231 O 0.46131 0.59433 0.27294 0.0
O232 O 0.50047 0.57227 0.22912 0.0
N233 N 0.46259 0.64706 0.33693 0.0
C234 C 0.44285 0.62436 0.36145 0.0
C235 C 0.43797 0.68179 0.38153 0.0
N236 N 0.45921 0.68276 0.34924 0.0
N237 N 0.42729 0.64548 0.38994 0.0
C238 C 0.61067 0.6166 0.19625 0.0
C239 C 0.61704 0.55896 0.17707 0.0
N240 N 0.58282 0.59554 0.21312 0.0
N241 N 0.58672 0.55975 0.20112 0.0
N242 N 0.63279 0.59422 0.17398 0.0
H243 H 0.62543 0.67198 0.17257 0.0
H244 H 0.63689 0.66573 0.22238 0.0
H245 H 0.58819 0.67339 0.20818 0.0
C246 C 0.61523 0.65933 0.19997 0.0
C247 C 0.44074 0.5813 0.35878 0.0
H248 H 0.41147 0.57272 0.34947 0.0
H249 H 0.44673 0.56808 0.3871 0.0
H250 H 0.46049 0.56919 0.33754 0.0
O251 O 0.52462 0.58884 0.33296 0.0
O252 O 0.56285 0.56812 0.28769 0.0
C253 C 0.46721 0.57271 0.24453 0.0
O254 O 0.58416 0.65071 0.27877 0.0
O255 O 0.53922 0.67152 0.31718 0.0
Zn256 Zn 0.19527 0.48334 0.12313 0.0
O257 O 0.21629 0.52262 0.08452 0.0
C258 C 0.17041 0.42945 0.05849 0.0
Zn259 Zn 0.2387 0.44192 0.10319 0.0
C260 C 0.24464 0.51709 0.06263 0.0
O261 O 0.2607 0.48421 0.0624 0.0
C262 C 0.18757 0.4122 0.16668 0.0
O263 O 0.27406 0.46627 0.14351 0.0
O264 O 0.23344 0.50873 0.16539 0.0
N265 N 0.2806 0.40356 0.09002 0.0
C266 C 0.29784 0.37753 0.11275 0.0
C267 C 0.31729 0.36768 0.05569 0.0
N268 N 0.2928 0.39752 0.05457 0.0
N269 N 0.32047 0.35441 0.09184 0.0
C270 C 0.12257 0.53123 0.11334 0.0
C271 C 0.10479 0.54105 0.17095 0.0
N272 N 0.15078 0.51841 0.13646 0.0
N273 N 0.13976 0.52461 0.17226 0.0
N274 N 0.09315 0.54471 0.13429 0.0
H275 H 0.1538 0.53105 0.05933 0.0
H276 H 0.11047 0.55879 0.05938 0.0
H277 H 0.10804 0.50752 0.05843 0.0
C278 C 0.12416 0.53226 0.07028 0.0
C279 C 0.29401 0.37553 0.15564 0.0
H280 H 0.28589 0.40335 0.16814 0.0
H281 H 0.32141 0.36618 0.16884 0.0
H282 H 0.2715 0.35423 0.16324 0.0
O283 O 0.2149 0.40174 0.14492 0.0
O284 O 0.17442 0.44566 0.16315 0.0
C285 C 0.26696 0.49403 0.16561 0.0
O286 O 0.15909 0.45633 0.0803 0.0
O287 O 0.20448 0.41756 0.06161 0.0
Zn288 Zn 0.73951 0.04664 0.88098 0.0
O289 O 0.781 0.02511 0.84544 0.0
C290 C 0.69266 0.07598 0.81468 0.0
Zn291 Zn 0.69909 0.0044 0.85551 0.0
C292 C 0.77577 0.00037 0.81948 0.0
O293 O 0.74209 0.98647 0.81411 0.0
C294 C 0.66625 0.05148 0.92008 0.0
O295 O 0.7211 0.96492 0.89243 0.0
O296 O 0.75807 0.00541 0.92365 0.0
N297 N 0.65916 0.96523 0.83693 0.0
C298 C 0.63481 0.94307 0.85753 0.0
C299 C 0.61506 0.94245 0.79967 0.0
N300 N 0.64702 0.96451 0.80093 0.0
N301 N 0.60685 0.92856 0.83482 0.0
C302 C 0.79501 0.11559 0.87969 0.0
C303 C 0.80556 0.12663 0.93889 0.0
N304 N 0.77698 0.0878 0.89985 0.0
N305 N 0.78364 0.09461 0.93664 0.0
N306 N 0.81252 0.14057 0.90352 0.0
H307 H 0.79334 0.08924 0.82328 0.0
H308 H 0.82505 0.12986 0.82739 0.0
H309 H 0.77399 0.13666 0.82586 0.0
C310 C 0.79703 0.11766 0.83667 0.0
C311 C 0.63614 0.93808 0.9004 0.0
H312 H 0.64569 0.90856 0.90716 0.0
H313 H 0.60711 0.94204 0.91286 0.0
H314 H 0.65626 0.95782 0.91471 0.0
O315 O 0.65886 0.02356 0.89787 0.0
O316 O 0.6985 0.06823 0.91812 0.0
C317 C 0.74519 0.97134 0.91878 0.0
O318 O 0.72015 0.085 0.83694 0.0
O319 O 0.67709 0.0433 0.81722 0.0
Zn320 Zn 0.74842 0.94583 0.38282 0.0
O321 O 0.70968 0.96299 0.34189 0.0
C322 C 0.8031 0.91588 0.32404 0.0
Zn323 Zn 0.78804 0.98996 0.35919 0.0
C324 C 0.71482 0.98859 0.31666 0.0
O325 O 0.74749 0.00535 0.31437 0.0
C326 C 0.81771 0.94612 0.42804 0.0
O327 O 0.76372 0.03 0.39242 0.0
O328 O 0.72468 0.98974 0.42146 0.0
N329 N 0.82808 0.0287 0.3405 0.0
C330 C 0.85251 0.05096 0.36081 0.0
C331 C 0.87324 0.04931 0.30334 0.0
N332 N 0.84076 0.02809 0.30472 0.0
N333 N 0.88123 0.064 0.33817 0.0
C334 C 0.69056 0.8788 0.37993 0.0
C335 C 0.68508 0.86219 0.43856 0.0
N336 N 0.71092 0.90424 0.40095 0.0
N337 N 0.70746 0.89392 0.43737 0.0
N338 N 0.67448 0.85201 0.40284 0.0
H339 H 0.66237 0.90584 0.33284 0.0
H340 H 0.67068 0.85617 0.32493 0.0
H341 H 0.70986 0.88995 0.32192 0.0
C342 C 0.68327 0.88247 0.33756 0.0
C343 C 0.85044 0.05726 0.40343 0.0
H344 H 0.82766 0.04033 0.41746 0.0
H345 H 0.84406 0.08782 0.40913 0.0
H346 H 0.87849 0.05048 0.41691 0.0
O347 O 0.82628 0.97328 0.40519 0.0
O348 O 0.78602 0.92869 0.4246 0.0
C349 C 0.73782 0.02387 0.41698 0.0
O350 O 0.7747 0.90457 0.34416 0.0
O351 O 0.81329 0.95061 0.32519 0.0
Zn352 Zn 0.29739 0.4984 0.63309 0.0
O353 O 0.27249 0.4612 0.59509 0.0
C354 C 0.3271 0.54554 0.5665 0.0
Zn355 Zn 0.25758 0.54276 0.6116 0.0
C356 C 0.24461 0.46837 0.57301 0.0
O357 O 0.2307 0.50223 0.57222 0.0
C358 C 0.31246 0.56935 0.67348 0.0
O359 O 0.21929 0.52463 0.65278 0.0
O360 O 0.25604 0.47894 0.67516 0.0
N361 N 0.22199 0.58666 0.59735 0.0
C362 C 0.20496 0.61184 0.62108 0.0
C363 C 0.20074 0.6345 0.56441 0.0
N364 N 0.21933 0.60072 0.56212 0.0
N365 N 0.1919 0.6421 0.60116 0.0
C366 C 0.36006 0.43691 0.62706 0.0
C367 C 0.37918 0.43218 0.68495 0.0
N368 N 0.33603 0.45774 0.64886 0.0
N369 N 0.34765 0.45439 0.68487 0.0
N370 N 0.38757 0.4208 0.64903 0.0
H371 H 0.33724 0.45401 0.57119 0.0
H372 H 0.35059 0.4053 0.57524 0.0
H373 H 0.38737 0.44157 0.57177 0.0
C374 C 0.35867 0.43482 0.58399 0.0
C375 C 0.19831 0.60559 0.66327 0.0
H376 H 0.17509 0.58396 0.66685 0.0
H377 H 0.18904 0.63207 0.67799 0.0
H378 H 0.22418 0.59455 0.67776 0.0
O379 O 0.28626 0.5811 0.65102 0.0
O380 O 0.32232 0.5346 0.6722 0.0
C381 C 0.22398 0.49651 0.67517 0.0
O382 O 0.33697 0.51927 0.58973 0.0
O383 O 0.29434 0.56052 0.56923 0.0
H384 H 0.1574 0.34484 0.47336 0.0
H385 H 0.22326 0.26849 0.54521 0.0
H386 H 0.25455 0.32401 0.57535 0.0
H387 H 0.2605 0.39337 0.58311 0.0
H388 H 0.19137 0.46975 0.51447 0.0
H389 H 0.1636 0.41429 0.48092 0.0
C390 C 0.17891 0.3401 0.49536 0.0
C391 C 0.18817 0.30239 0.50694 0.0
C392 C 0.19577 0.372 0.51317 0.0
C393 C 0.21574 0.29707 0.53574 0.0
C394 C 0.23348 0.3288 0.55299 0.0
C395 C 0.23952 0.39815 0.56062 0.0
C396 C 0.22804 0.43582 0.5512 0.0
C397 C 0.22329 0.36629 0.54221 0.0
C398 C 0.20062 0.44119 0.52226 0.0
C399 C 0.18483 0.40949 0.50313 0.0
H400 H 0.85001 0.0091 0.8408 0.0
H401 H 0.77863 0.9618 0.75093 0.0
H402 H 0.83622 0.93939 0.71758 0.0
H403 H 0.90528 0.93044 0.71607 0.0
H404 H 0.97678 0.97185 0.80876 0.0
H405 H 0.92005 0.00077 0.8387 0.0
C406 C 0.84693 -0.00588 0.81373 0.0
C407 C 0.80997 0.9871 0.79825 0.0
C408 C 0.88 0.98066 0.79533 0.0
C409 C 0.8066 0.96736 0.76344 0.0
C410 C 0.83951 0.95472 0.7444 0.0
C411 C 0.90891 0.94608 0.74269 0.0
C412 C 0.9455 0.94886 0.76024 0.0
C413 C 0.87618 0.96086 0.76037 0.0
C414 C 0.94917 0.96938 0.7946 0.0
C415 C 0.91668 0.98558 0.8118 0.0
H416 H 0.33124 0.64421 0.96714 0.0
H417 H 0.26496 0.71821 0.04073 0.0
H418 H 0.23296 0.66164 0.0684 0.0
H419 H 0.22706 0.5917 0.07406 0.0
H420 H 0.29737 0.51814 0.00392 0.0
H421 H 0.3249 0.57476 0.97221 0.0
C422 C 0.30954 0.64831 0.98903 0.0
C423 C 0.30046 0.68566 0.00183 0.0
C424 C 0.29233 0.61582 0.00545 0.0
C425 C 0.27243 0.68998 0.03032 0.0
C426 C 0.25428 0.65763 0.04617 0.0
C427 C 0.24816 0.58785 0.05156 0.0
C428 C 0.26009 0.55056 0.04123 0.0
C429 C 0.26448 0.62046 0.03431 0.0
C430 C 0.28772 0.54636 0.01235 0.0
C431 C 0.30342 0.57873 -0.00569 0.0
H432 H 0.58494 0.06198 0.21497 0.0
H433 H 0.51356 0.00834 0.30132 0.0
H434 H 0.57069 0.979 0.32982 0.0
H435 H 0.64053 0.97373 0.33341 0.0
H436 H 0.71239 0.03186 0.2505 0.0
H437 H 0.65476 0.05494 0.21733 0.0
C438 C 0.58157 0.04345 0.23976 0.0
C439 C 0.54481 0.03735 0.25604 0.0
C440 C 0.61456 0.02804 0.25674 0.0
C441 C 0.54134 0.01343 0.28822 0.0
C442 C 0.57402 -0.00312 0.30458 0.0
C443 C 0.64382 0.99092 0.30768 0.0
C444 C 0.68087 0.00085 0.29423 0.0
C445 C 0.61075 0.00474 0.28955 0.0
C446 C 0.68433 0.02381 0.26137 0.0
C447 C 0.65139 0.03694 0.24248 0.0
H448 H 0.67165 0.15362 0.52321 0.0
H449 H 0.72878 0.22492 0.43895 0.0
H450 H 0.75281 0.16729 0.40707 0.0
H451 H 0.75333 0.09785 0.40075 0.0
H452 H 0.6926 0.02617 0.48207 0.0
H453 H 0.6731 0.08376 0.51742 0.0
C454 C 0.68982 0.15684 0.49815 0.0
C455 C 0.69853 0.19376 0.48347 0.0
C456 C 0.70201 0.12373 0.47918 0.0
C457 C 0.72187 0.19703 0.4509 0.0
C458 C 0.73527 0.16409 0.43255 0.0
C459 C 0.73589 0.09449 0.42631 0.0
C460 C 0.72433 0.05758 0.43879 0.0
C461 C 0.72474 0.12745 0.44601 0.0
C462 C 0.70161 0.05413 0.47177 0.0
C463 C 0.69072 0.08701 0.492 0.0
H464 H 0.09418 0.40948 0.76583 0.0
H465 H 0.02229 0.47703 0.69093 0.0
H466 H 0.07975 0.50959 0.66575 0.0
H467 H 0.14985 0.51532 0.66235 0.0
H468 H 0.22139 0.44426 0.73418 0.0
H469 H 0.16375 0.41634 0.76368 0.0
C470 C 0.09073 0.43148 0.7441 0.0
C471 C 0.05379 0.44071 0.73011 0.0
C472 C 0.1237 0.44922 0.72933 0.0
C473 C 0.05026 0.46934 0.70208 0.0
C474 C 0.08309 0.48785 0.68772 0.0
C475 C 0.15303 0.49415 0.68492 0.0
C476 C 0.19001 0.48201 0.69628 0.0
C477 C 0.1199 0.47756 0.70079 0.0
C478 C 0.19338 0.45412 0.72505 0.0
C479 C 0.16045 0.43814 0.74176 0.0
H480 H 0.72608 0.89699 0.90694 0.0
H481 H 0.79761 0.96997 0.97776 0.0
H482 H 0.8256 0.91303 0.00769 0.0
H483 H 0.83234 0.84383 0.01045 0.0
H484 H 0.7632 0.7703 0.93806 0.0
H485 H 0.73178 0.82718 0.91097 0.0
C486 C 0.74759 0.90068 0.92917 0.0
C487 C 0.75984 0.93785 0.94013 0.0
C488 C 0.7641 0.86798 0.9454 0.0
C489 C 0.7877 0.94184 0.96889 0.0
C490 C 0.80377 0.90931 0.9858 0.0
C491 C 0.8099 0.83988 0.98921 0.0
C492 C 0.79968 0.8027 0.97661 0.0
C493 C 0.79252 0.87241 0.97381 0.0
C494 C 0.77143 0.7985 0.94826 0.0
C495 C 0.75352 0.83098 0.93293 0.0
H496 H 0.39223 0.58465 0.2604 0.0
H497 H 0.46725 0.51373 0.19241 0.0
H498 H 0.41107 0.48142 0.16455 0.0
H499 H 0.34166 0.47563 0.15768 0.0
H500 H 0.26626 0.5496 0.2219 0.0
H501 H 0.32233 0.57856 0.25368 0.0
C502 C 0.39646 0.56188 0.2397 0.0
C503 C 0.43399 0.55145 0.22853 0.0
C504 C 0.36415 0.54423 0.22326 0.0
C505 C 0.43878 0.52225 0.20142 0.0
C506 C 0.40669 0.50384 0.18555 0.0
C507 C 0.33718 0.49789 0.17888 0.0
C508 C 0.29963 0.5104 0.18753 0.0
C509 C 0.36936 0.51493 0.19602 0.0
C510 C 0.29472 0.53944 0.21481 0.0
C511 C 0.32676 0.55599 0.23284 0.0
H512 H 0.48244 0.15214 0.34447 0.0
H513 H 0.55403 0.21894 0.26806 0.0
H514 H 0.5837 0.2508 0.32357 0.0
H515 H 0.5895 0.25856 0.39342 0.0
H516 H 0.52009 0.18876 0.46919 0.0
H517 H 0.48893 0.15894 0.41365 0.0
C518 C 0.50438 0.17387 0.3397 0.0
C519 C 0.5158 0.18346 0.30204 0.0
C520 C 0.52156 0.19133 0.37153 0.0
C521 C 0.54469 0.21117 0.29666 0.0
C522 C 0.56157 0.22932 0.32838 0.0
C523 C 0.56734 0.23698 0.39788 0.0
C524 C 0.55683 0.22604 0.43546 0.0
C525 C 0.55022 0.21952 0.36589 0.0
C526 C 0.52857 0.19768 0.44065 0.0
C527 C 0.51082 0.18069 0.40892 0.0
H528 H 0.06637 0.22119 0.58856 0.0
H529 H 0.01137 0.30599 0.51705 0.0
H530 H 0.98052 0.33332 0.57392 0.0
H531 H 0.9733 0.33564 0.64373 0.0
H532 H 0.03227 0.25367 0.71527 0.0
H533 H 0.05785 0.22244 0.65788 0.0
C534 C 0.04738 0.24549 0.58509 0.0
C535 C 0.04124 0.26162 0.54843 0.0
C536 C 0.0308 0.26155 0.61784 0.0
C537 C 0.01659 0.29308 0.54481 0.0
C538 C -0.00091 0.30871 0.57733 0.0
C539 C 0.99128 0.31056 0.64692 0.0
C540 C 0.00073 0.29679 0.68383 0.0
C541 C 0.00656 0.29353 0.61397 0.0
C542 C 0.02459 0.26474 0.68728 0.0
C543 C 0.03919 0.24698 0.6545 0.0
H544 H 0.01257 0.8365 0.84519 0.0
H545 H 0.94092 0.76391 0.77439 0.0
H546 H 0.9154 0.73251 0.83204 0.0
H547 H 0.91214 0.72742 0.9017 0.0
H548 H 0.97948 0.80351 0.97308 0.0
H549 H 0.00862 0.8319 0.91542 0.0
C550 C 0.99157 0.81357 0.84226 0.0
C551 C 0.97883 0.80225 0.80546 0.0
C552 C 0.97646 0.79645 0.87545 0.0
C553 C 0.95116 0.77304 0.80228 0.0
C554 C 0.93667 0.75513 0.83521 0.0
C555 C 0.93355 0.74993 0.90492 0.0
C556 C 0.94399 0.76308 0.94184 0.0
C557 C 0.949 0.76679 0.87184 0.0
C558 C 0.97118 0.79275 0.94514 0.0
C559 C 0.98767 0.80899 0.91218 0.0
H560 H 0.52122 0.6694 0.1496 0.0
H561 H 0.43624 0.72691 0.21871 0.0
H562 H 0.40831 0.75477 0.16045 0.0
H563 H 0.40561 0.75873 0.09037 0.0
H564 H 0.4877 0.69722 0.02143 0.0
H565 H 0.51915 0.67409 0.07995 0.0
C566 C 0.49678 0.68834 0.15227 0.0
C567 C 0.4808 0.69609 0.18869 0.0
C568 C 0.48021 0.70294 0.11878 0.0
C569 C 0.44912 0.72059 0.1912 0.0
C570 C 0.43308 0.73628 0.15788 0.0
C571 C 0.4307 0.74061 0.08799 0.0
C572 C 0.44455 0.72985 0.05151 0.0
C573 C 0.44801 0.72703 0.12158 0.0
C574 C 0.47654 0.70581 0.04907 0.0
C575 C 0.4945 0.69274 0.08249 0.0
H576 H 0.13653 0.29115 0.29201 0.0
H577 H 0.06742 0.38666 0.32772 0.0
H578 H 0.09044 0.42428 0.2729 0.0
H579 H 0.13297 0.4311 0.21798 0.0
H580 H 0.20499 0.33695 0.1832 0.0
H581 H 0.17882 0.29767 0.2355 0.0
C582 C 0.12713 0.32043 0.28811 0.0
C583 C 0.10129 0.33673 0.3144 0.0
C584 C 0.14119 0.34199 0.25709 0.0
C585 C 0.0876 0.37388 0.30796 0.0
C586 C 0.10089 0.39533 0.27683 0.0
C587 C 0.14302 0.40193 0.22159 0.0
C588 C 0.17123 0.38708 0.19685 0.0
C589 C 0.12816 0.37986 0.25168 0.0
C590 C 0.1836 0.34918 0.202 0.0
C591 C 0.16857 0.32673 0.23183 0.0
H592 H 0.87923 0.91892 0.59265 0.0
H593 H 0.90897 0.80934 0.54413 0.0
H594 H 0.88302 0.8296 0.48235 0.0
H595 H 0.85244 0.87906 0.4421 0.0
H596 H 0.83292 0.9916 0.48859 0.0
H597 H 0.85794 0.97083 0.55092 0.0
C598 C 0.88219 0.9 0.56845 0.0
C599 C 0.8978 0.86316 0.57306 0.0
C600 C 0.86989 0.91277 0.53242 0.0
C601 C 0.89745 0.83799 0.54153 0.0
C602 C 0.88304 0.84968 0.50604 0.0
C603 C 0.85489 0.8992 0.46568 0.0
C604 C 0.84164 0.93681 0.46108 0.0
C605 C 0.86964 0.88716 0.50107 0.0
C606 C 0.84395 0.96276 0.49163 0.0
C607 C 0.85762 0.9507 0.52726 0.0
H608 H 0.3664 0.5498 0.72552 0.0
H609 H 0.29996 0.64602 0.68514 0.0
H610 H 0.32826 0.68649 0.7352 0.0
H611 H 0.36902 0.6931 0.79247 0.0
H612 H 0.43099 0.59566 0.8355 0.0
H613 H 0.40848 0.55701 0.78108 0.0
C614 C 0.35817 0.57969 0.72742 0.0
C615 C 0.33086 0.59486 0.70184 0.0
C616 C 0.37393 0.60241 0.75651 0.0
C617 C 0.32076 0.63367 0.70462 0.0
C618 C 0.33693 0.65676 0.73318 0.0
C619 C 0.3771 0.66326 0.79006 0.0
C620 C 0.40046 0.64659 0.81833 0.0
C621 C 0.36296 0.64119 0.75964 0.0
C622 C 0.41264 0.60865 0.8141 0.0
C623 C 0.39958 0.58666 0.78326 0.0
H624 H 0.59032 0.06719 0.07981 0.0
H625 H 0.57498 0.18397 0.04162 0.0
H626 H 0.60591 0.16817 0.98107 0.0
H627 H 0.63743 0.12072 0.93899 0.0
H628 H 0.64106 0.00224 0.97398 0.0
H629 H 0.611 0.01853 0.03513 0.0
C630 C 0.59107 0.08901 0.05808 0.0
C631 C 0.57831 0.12652 0.06553 0.0
C632 C 0.60634 0.07919 0.02231 0.0
C633 C 0.58407 0.15471 0.03703 0.0
C634 C 0.60149 0.14568 0.00213 0.0
C635 C 0.63063 0.09849 0.95975 0.0
C636 C 0.64098 0.06041 0.95228 0.0
C637 C 0.61254 0.10793 -0.00561 0.0
C638 C 0.6326 0.03164 0.97915 0.0
C639 C 0.61592 0.04103 0.0142 0.0
H640 H 0.66358 0.1352 0.6499 0.0
H641 H 0.5564 0.17064 0.70003 0.0
H642 H 0.57655 0.14435 0.76186 0.0
H643 H 0.62585 0.11242 0.80175 0.0
H644 H 0.73688 0.08861 0.75315 0.0
H645 H 0.71553 0.11286 0.69084 0.0
C646 C 0.6453 0.13926 0.67449 0.0
C647 C 0.60924 0.15665 0.67046 0.0
C648 C 0.65826 0.12709 0.7104 0.0
C649 C 0.58452 0.15777 0.70234 0.0
C650 C 0.5962 0.14321 0.7378 0.0
C651 C 0.64555 0.11382 0.77769 0.0
C652 C 0.68291 0.09958 0.78166 0.0
C653 C 0.63327 0.12836 0.74227 0.0
C654 C 0.70827 0.10044 0.75052 0.0
C655 C 0.69589 0.11366 0.71492 0.0
H656 H 0.18967 0.37761 0.00413 0.0
H657 H 0.0934 0.44158 0.04796 0.0
H658 H 0.0523 0.41501 -0.00237 0.0
H659 H 0.0446 0.37568 0.93962 0.0
H660 H 0.14077 0.31303 0.89503 0.0
H661 H 0.18108 0.33586 0.94828 0.0
C662 C 0.15966 0.38569 0.00285 0.0
C663 C 0.1448 0.41218 0.02935 0.0
C664 C 0.13626 0.37025 0.97397 0.0
C665 C 0.10577 0.42197 0.02744 0.0
C666 C 0.0822 0.40658 -0.00116 0.0
C667 C 0.07445 0.36728 0.94166 0.0
C668 C 0.09025 0.34358 0.91331 0.0
C669 C 0.09731 0.38116 0.97168 0.0
C670 C 0.1284 0.33149 0.91663 0.0
C671 C 0.15133 0.34474 0.9468 0.0
H672 H 0.77805 0.85223 0.28512 0.0
H673 H 0.87781 0.92332 0.30638 0.0
H674 H 0.91224 0.89236 0.25457 0.0
H675 H 0.9111 0.85152 0.1978 0.0
H676 H 0.8137 0.77777 0.17707 0.0
H677 H 0.78116 0.80326 0.23365 0.0
C678 C 0.8076 0.86013 0.2789 0.0
C679 C 0.82509 0.89045 0.29883 0.0
C680 C 0.82729 0.84253 0.24851 0.0
C681 C 0.86349 0.90046 0.29078 0.0
C682 C 0.88325 0.88289 0.26113 0.0
C683 C 0.88292 0.8409 0.206 0.0
C684 C 0.86382 0.8147 0.18232 0.0
C685 C 0.8649 0.85504 0.23884 0.0
C686 C 0.8279 0.79984 0.19377 0.0
C687 C 0.80953 0.81399 0.22635 0.0
H688 H 0.37832 0.60359 0.55844 0.0
H689 H 0.32279 0.51054 0.49862 0.0
H690 H 0.34587 0.53566 0.43724 0.0
H691 H 0.37678 0.58704 0.40091 0.0
H692 H 0.43951 0.67603 0.45999 0.0
H693 H 0.41642 0.65131 0.52157 0.0
C694 C 0.37257 0.58828 0.53197 0.0
C695 C 0.34985 0.55494 0.53266 0.0
C696 C 0.38589 0.60297 0.49686 0.0
C697 C 0.34122 0.53574 0.49843 0.0
C698 C 0.35384 0.55041 0.46344 0.0
C699 C 0.38686 0.60014 0.42712 0.0
C700 C 0.41104 0.63249 0.42574 0.0
C701 C 0.37556 0.58438 0.4623 0.0
C702 C 0.42106 0.65091 0.46023 0.0
C703 C 0.40828 0.63653 0.49546 0.0
H704 H 0.21794 0.13313 0.43146 0.0
H705 H 0.18353 0.20571 0.33723 0.0
H706 H 0.23718 0.18177 0.29891 0.0
H707 H 0.29483 0.1413 0.29323 0.0
H708 H 0.32949 0.07052 0.38826 0.0
H709 H 0.27379 0.09194 0.42525 0.0
C710 C 0.22191 0.14371 0.40246 0.0
C711 C 0.19695 0.17157 0.38738 0.0
C712 C 0.25276 0.13006 0.38088 0.0
C713 C 0.20254 0.18465 0.34968 0.0
C714 C 0.23316 0.17091 0.32777 0.0
C715 C 0.29045 0.13118 0.32227 0.0
C716 C 0.31664 0.10531 0.33865 0.0
C717 C 0.25872 0.14401 0.34332 0.0
C718 C 0.30978 0.09077 0.3755 0.0
C719 C 0.27811 0.10309 0.39653 0.0
H720 H 0.09217 0.0463 0.53772 0.0
H721 H 0.16918 0.08335 0.62726 0.0
H722 H 0.15136 0.02739 0.66594 0.0
H723 H 0.11119 0.97071 0.67573 0.0
H724 H 0.0311 0.93492 0.58796 0.0
H725 H 0.05244 0.98813 0.54709 0.0
C726 C 0.10443 0.04245 0.56599 0.0
C727 C 0.13103 0.06945 0.58028 0.0
C728 C 0.09351 0.01059 0.58821 0.0
C729 C 0.14831 0.0631 0.61604 0.0
C730 C 0.13807 0.03124 0.63809 0.0
C731 C 0.09848 0.97426 0.64755 0.0
C732 C 0.06946 0.94891 0.63497 0.0
C733 C 0.1103 0.00516 0.62468 0.0
C734 C 0.05348 0.954 0.59833 0.0
C735 C 0.06558 0.98448 0.57503 0.0
H736 H 0.19944 0.83864 0.78209 0.0
H737 H 0.16868 0.91817 0.87124 0.0
H738 H 0.22388 0.89786 0.90933 0.0
H739 H 0.27807 0.85558 0.91873 0.0
H740 H 0.30893 0.77377 0.83139 0.0
H741 H 0.25594 0.79655 0.79109 0.0
C742 C 0.20452 0.85096 0.81013 0.0
C743 C 0.17947 0.87911 0.82445 0.0
C744 C 0.2361 0.83873 0.83205 0.0
C745 C 0.18741 0.89624 0.85995 0.0
C746 C 0.21884 0.88457 0.8817 0.0
C747 C 0.2735 0.84263 0.89082 0.0
C748 C 0.29727 0.8126 0.87832 0.0
C749 C 0.24299 0.85553 0.86823 0.0
C750 C 0.29092 0.79664 0.84188 0.0
C751 C 0.26061 0.80967 0.81887 0.0
H752 H 0.44588 0.03562 0.1002 0.0
H753 H 0.35369 0.03528 0.18295 0.0
H754 H 0.32198 0.98293 0.14924 0.0
H755 H 0.32335 0.93286 0.09982 0.0
H756 H 0.41495 0.93215 0.0172 0.0
H757 H 0.44391 0.98911 0.04687 0.0
C758 C 0.41857 0.02446 0.11039 0.0
C759 C 0.40247 0.03895 0.14425 0.0
C760 C 0.40061 0.99376 0.09118 0.0
C761 C 0.367 0.02425 0.15719 0.0
C762 C 0.34877 -0.00573 0.13797 0.0
C763 C 0.3494 0.9456 0.0883 0.0
C764 C 0.36779 0.92803 0.05741 0.0
C765 C 0.36581 0.97811 0.10558 0.0
C766 C 0.40115 0.94484 0.04189 0.0
C767 C 0.41755 0.97739 0.05869 0.0
H768 H 0.79448 0.35373 0.70225 0.0
H769 H 0.82803 0.43365 0.61415 0.0
H770 H 0.77284 0.41382 0.57485 0.0
H771 H 0.7185 0.37038 0.56394 0.0
H772 H 0.68581 0.28842 0.65114 0.0
H773 H 0.73734 0.31233 0.69271 0.0
C774 C 0.78951 0.36657 0.67436 0.0
C775 C 0.81545 0.39427 0.66034 0.0
C776 C 0.75818 0.35458 0.65197 0.0
C777 C 0.80848 0.41189 0.62494 0.0
C778 C 0.77712 0.40049 0.6026 0.0
C779 C 0.72238 0.35786 0.59216 0.0
C780 C 0.69853 0.32741 0.60431 0.0
C781 C 0.75228 0.37132 0.61554 0.0
C782 C 0.70379 0.31182 0.64108 0.0
C783 C 0.73332 0.32539 0.66479 0.0
H784 H 0.87526 0.43811 0.85904 0.0
H785 H 0.99086 0.48092 0.84592 0.0
H786 H 0.97215 0.5424 0.87397 0.0
H787 H 0.92139 0.58492 0.89511 0.0
H788 H 0.80809 0.53956 0.91865 0.0
H789 H 0.82667 0.4784 0.89075 0.0
C790 C 0.89645 0.46063 0.8635 0.0
C791 C 0.93433 0.45533 0.85103 0.0
C792 C 0.8856 0.49551 0.88011 0.0
C793 C 0.96171 0.48449 0.85615 0.0
C794 C 0.95087 0.51968 0.87162 0.0
C795 C 0.90112 0.56157 0.89661 0.0
C796 C 0.86369 0.56709 0.91077 0.0
C797 C 0.9127 0.52569 0.88299 0.0
C798 C 0.83721 0.53643 0.90828 0.0
C799 C 0.84787 0.50122 0.89267 0.0
H800 H 0.75812 0.6366 0.05314 0.0
H801 H 0.80024 0.70492 0.14767 0.0
H802 H 0.74934 0.67902 0.18877 0.0
H803 H 0.6923 0.63788 0.19713 0.0
H804 H 0.64806 0.57313 0.1016 0.0
H805 H 0.70163 0.59552 0.06161 0.0
C806 C 0.75631 0.64583 0.08276 0.0
C807 C 0.78285 0.67274 0.09733 0.0
C808 C 0.7269 0.6312 0.10596 0.0
C809 C 0.78007 0.68434 0.13577 0.0
C810 C 0.75106 0.6695 0.15926 0.0
C811 C 0.69408 0.62932 0.16736 0.0
C812 C 0.66583 0.60495 0.15176 0.0
C813 C 0.72417 0.6432 0.14451 0.0
C814 C 0.66944 0.59221 0.11385 0.0
C815 C 0.69982 0.60518 0.09108 0.0
H816 H 0.59616 0.40126 0.37392 0.0
H817 H 0.66934 0.46545 0.45031 0.0
H818 H 0.64345 0.52574 0.42526 0.0
H819 H 0.59941 0.55997 0.38112 0.0
H820 H 0.52438 0.4944 0.30758 0.0
H821 H 0.5497 0.43456 0.33362 0.0
C822 C 0.60567 0.42836 0.3858 0.0
C823 C 0.63385 0.42896 0.4145 0.0
C824 C 0.58968 0.46254 0.37233 0.0
C825 C 0.64756 0.46441 0.42814 0.0
C826 C 0.63249 0.49878 0.41416 0.0
C827 C 0.58806 0.53248 0.37178 0.0
C828 C 0.55972 0.53113 0.34325 0.0
C829 C 0.60325 0.4982 0.38646 0.0
C830 C 0.54576 0.49568 0.33018 0.0
C831 C 0.56051 0.4616 0.34468 0.0
H832 H 0.29519 0.29708 0.13693 0.0
H833 H 0.39347 0.338 0.07371 0.0
H834 H 0.43194 0.28481 0.09866 0.0
H835 H 0.43795 0.22907 0.14054 0.0
H836 H 0.34022 0.18903 0.20591 0.0
H837 H 0.30116 0.24068 0.17906 0.0
C838 C 0.32521 0.29465 0.12925 0.0
C839 C 0.34202 0.32182 0.10448 0.0
C840 C 0.34709 0.26462 0.14436 0.0
C841 C 0.3803 0.31744 0.09302 0.0
C842 C 0.40219 0.28728 0.10744 0.0
C843 C 0.40808 0.23151 0.14902 0.0
C844 C 0.39206 0.20535 0.17543 0.0
C845 C 0.38598 0.26108 0.13351 0.0
C846 C 0.35333 0.209 0.18597 0.0
C847 C 0.33097 0.23838 0.17047 0.0
H848 H 0.9296 0.27058 0.8644 0.0
H849 H 0.83946 0.30188 0.78532 0.0
H850 H 0.79814 0.25134 0.81201 0.0
H851 H 0.78947 0.19601 0.85531 0.0
H852 H 0.88119 0.16279 0.93104 0.0
H853 H 0.91999 0.21752 0.90907 0.0
C854 C 0.90085 0.26658 0.85299 0.0
C855 C 0.88774 0.28973 0.8226 0.0
C856 C 0.87767 0.23731 0.86801 0.0
C857 C 0.85028 0.28433 0.80855 0.0
C858 C 0.8267 0.25545 0.82378 0.0
C859 C 0.81812 0.20064 0.8666 0.0
C860 C 0.83318 0.17497 0.89379 0.0
C861 C 0.84042 0.23137 0.853 0.0
C862 C 0.86945 0.18212 0.90979 0.0
C863 C 0.89156 0.21315 0.89706 0.0
H864 H 0.05849 0.60776 0.15884 0.0
H865 H 0.04579 0.51261 0.08143 0.0
H866 H 0.98919 0.54217 0.05245 0.0
H867 H 0.94655 0.59838 0.0458 0.0
H868 H 0.95905 0.69203 0.12599 0.0
H869 H 0.01161 0.65956 0.15756 0.0
C870 C 0.04289 0.59342 0.13599 0.0
C871 C 0.05701 0.55917 0.12105 0.0
C872 C 0.0103 0.61036 0.11988 0.0
C873 C 0.03639 0.54014 0.09196 0.0
C874 C 0.00383 0.5568 0.0757 0.0
C875 C 0.96049 0.61132 0.07046 0.0
C876 C 0.94937 0.64784 0.08291 0.0
C877 C 0.99111 0.59252 0.08873 0.0
C878 C 0.96747 0.66419 0.11522 0.0
C879 C -0.00242 0.64568 0.13348 0.0
H880 H 0.69733 0.79731 0.35431 0.0
H881 H 0.60483 0.83108 0.42846 0.0
H882 H 0.56603 0.77636 0.40641 0.0
H883 H 0.55713 0.7224 0.36283 0.0
H884 H 0.64886 0.68898 0.28681 0.0
H885 H 0.68948 0.74051 0.31249 0.0
C886 C 0.6686 0.79247 0.36541 0.0
C887 C 0.65325 0.81833 0.39212 0.0
C888 C 0.64648 0.76148 0.35205 0.0
C889 C 0.61669 0.81157 0.40751 0.0
C890 C 0.59463 0.7805 0.3948 0.0
C891 C 0.58608 0.72614 0.35186 0.0
C892 C 0.59975 0.70215 0.32246 0.0
C893 C 0.60899 0.7558 0.36653 0.0
C894 C 0.63747 0.70727 0.30905 0.0
C895 C 0.6607 0.73669 0.32377 0.0
H896 H 0.55561 0.37725 0.60184 0.0
H897 H 0.49285 0.30669 0.52185 0.0
H898 H 0.43189 0.32916 0.54806 0.0
H899 H 0.39693 0.36546 0.59646 0.0
H900 H 0.45845 0.43941 0.67423 0.0
H901 H 0.51975 0.41742 0.64796 0.0
C902 C 0.52847 0.3679 0.58959 0.0
C903 C 0.5282 0.34128 0.55956 0.0
C904 C 0.49361 0.38043 0.6053 0.0
C905 C 0.49324 0.32799 0.54446 0.0
C906 C 0.45855 0.34037 0.55975 0.0
C907 C 0.42369 0.37743 0.60696 0.0
C908 C 0.42326 0.40461 0.63648 0.0
C909 C 0.45844 0.36604 0.59058 0.0
C910 C 0.45823 0.41835 0.65144 0.0
C911 C 0.49317 0.40621 0.63612 0.0
H912 H 0.12133 0.66736 0.58851 0.0
H913 H 0.22688 0.69315 0.64723 0.0
H914 H 0.19736 0.7491 0.67793 0.0
H915 H 0.13988 0.78882 0.68995 0.0
H916 H 0.03406 0.76041 0.63116 0.0
H917 H 0.06501 0.70765 0.59885 0.0
C918 C 0.13771 0.68572 0.60766 0.0
C919 C 0.17578 0.67666 0.61593 0.0
C920 C 0.12037 0.71711 0.6255 0.0
C921 C 0.19727 0.70007 0.64082 0.0
C922 C 0.18039 0.73178 0.65837 0.0
C923 C 0.1237 0.77107 0.6701 0.0
C924 C 0.0847 0.77862 0.6633 0.0
C925 C 0.14168 0.74028 0.65137 0.0
C926 C 0.06414 0.75538 0.63721 0.0
C927 C 0.08177 0.72508 0.61851 0.0
H928 H 0.44038 0.87735 0.88319 0.0
H929 H 0.50619 0.79977 0.95305 0.0
H930 H 0.56605 0.82572 0.92686 0.0
H931 H 0.59938 0.86817 0.88194 0.0
H932 H 0.53509 0.94815 0.81365 0.0
H933 H 0.47467 0.9224 0.8396 0.0
C934 C 0.46796 0.86703 0.8932 0.0
C935 C 0.46933 0.83746 0.92045 0.0
C936 C 0.50227 0.88163 0.87743 0.0
C937 C 0.50489 0.82315 0.93257 0.0
C938 C 0.53897 0.83761 0.91732 0.0
C939 C 0.57217 0.88034 0.87329 0.0
C940 C 0.57157 0.91041 0.84662 0.0
C941 C 0.53797 0.86645 0.88938 0.0
C942 C 0.53608 0.92486 0.83419 0.0
C943 C 0.50166 0.9105 0.84936 0.0
H944 H 0.89107 0.12541 0.38332 0.0
H945 H 0.95211 0.0399 0.31923 0.0
H946 H 0.01337 0.06343 0.34527 0.0
H947 H 0.0493 0.10834 0.3876 0.0
H948 H 0.98649 0.19128 0.45364 0.0
H949 H 0.9258 0.16744 0.42743 0.0
C950 C 0.91771 0.1115 0.37571 0.0
C951 C 0.91717 0.0806 0.35013 0.0
C952 C 0.95231 0.12416 0.39189 0.0
C953 C 0.95203 0.0639 0.3389 0.0
C954 C 0.9869 0.077 0.35413 0.0
C955 C 0.02214 0.12031 0.3968 0.0
C956 C 0.02185 0.15082 0.42291 0.0
C957 C 0.98736 0.10683 0.38107 0.0
C958 C 0.9869 0.16719 0.43402 0.0
C959 C 0.95237 0.15392 0.41875 0.0
loop_
_geom_bond_atom_site_label_1
_geom_bond_atom_site_label_2
_geom_bond_distance
_geom_bond_site_symmetry_2
_ccdc_geom_bond_type
Zn0 O1 2.055 . S
Zn0 O8 2.046 . S
Zn0 N16 2.036 . S
Zn0 O28 2.053 . S
Zn0 O30 2.066 . S
O1 Zn0 2.055 . S
O1 C4 1.259 . S
C2 O30 1.256 . S
C2 O31 1.244 . S
Zn3 O5 2.046 . S
Zn3 O7 2.055 . S
Zn3 N9 2.036 . S
Zn3 O27 2.066 . S
Zn3 O31 2.053 . S
C4 O1 1.259 . S
C4 O5 1.254 . S
O5 Zn3 2.046 . S
O5 C4 1.254 . S
C6 O27 1.256 . S
C6 O28 1.244 . S
O7 Zn3 2.055 . S
O7 C29 1.259 . S
O8 Zn0 2.046 . S
O8 C29 1.254 . S
N9 Zn3 2.036 . S
N9 C10 1.298 . S
N9 N12 1.398 . S
C10 N9 1.298 . S
C10 N13 1.367 . S
C10 C23 1.481 . S
C11 N12 1.299 . S
C11 N13 1.379 . S
N12 N9 1.398 . S
N12 C11 1.299 . S
N13 C10 1.367 . S
N13 C11 1.379 . S
C14 N16 1.298 . S
C14 N18 1.367 . S
C14 C22 1.481 . S
C15 N17 1.299 . S
C15 N18 1.379 . S
N16 Zn0 2.036 . S
N16 C14 1.298 . S
N16 N17 1.398 . S
N17 C15 1.299 . S
N17 N16 1.398 . S
N18 C14 1.367 . S
N18 C15 1.379 . S
H19 C22 0.980 . S
H20 C22 0.981 . S
H21 C22 0.981 . S
C22 C14 1.481 . S
C22 H19 0.980 . S
C22 H20 0.981 . S
C22 H21 0.981 . S
C23 C10 1.481 . S
C23 H24 0.980 . S
C23 H25 0.981 . S
C23 H26 0.981 . S
H24 C23 0.980 . S
H25 C23 0.981 . S
H26 C23 0.981 . S
O27 Zn3 2.066 . S
O27 C6 1.256 . S
O28 Zn0 2.053 . S
O28 C6 1.244 . S
C29 O7 1.259 . S
C29 O8 1.254 . S
O30 Zn0 2.066 . S
O30 C2 1.256 . S
O31 C2 1.244 . S
O31 Zn3 2.053 . S
Zn32 O33 2.055 . S
Zn32 O40 2.046 . S
Zn32 N48 2.036 . S
Zn32 O60 2.053 1_655 S
Zn32 O62 2.066 1_655 S
O33 Zn32 2.055 . S
O33 C36 1.259 . S
C34 O62 1.256 . S
C34 O63 1.244 . S
Zn35 O37 2.046 . S
Zn35 O39 2.055 . S
Zn35 N41 2.036 . S
Zn35 O59 2.066 . S
Zn35 O63 2.053 . S
C36 O33 1.259 . S
C36 O37 1.254 1_655 S
O37 Zn35 2.046 . S
O37 C36 1.254 1_455 S
C38 O59 1.256 . S
C38 O60 1.244 . S
O39 Zn35 2.055 . S
O39 C61 1.259 1_455 S
O40 Zn32 2.046 . S
O40 C61 1.254 . S
N41 Zn35 2.036 . S
N41 C42 1.298 . S
N41 N44 1.398 . S
C42 N41 1.298 . S
C42 N45 1.367 . S
C42 C55 1.481 . S
C43 N44 1.299 . S
C43 N45 1.379 . S
N44 N41 1.398 . S
N44 C43 1.299 . S
N45 C42 1.367 . S
N45 C43 1.379 . S
C46 N48 1.298 . S
C46 N50 1.367 . S
C46 C54 1.481 . S
C47 N49 1.299 . S
C47 N50 1.379 . S
N48 Zn32 2.036 . S
N48 C46 1.298 . S
N48 N49 1.398 . S
N49 C47 1.299 . S
N49 N48 1.398 . S
N50 C46 1.367 . S
N50 C47 1.379 . S
H51 C54 0.980 . S
H52 C54 0.981 . S
H53 C54 0.981 . S
C54 C46 1.481 . S
C54 H51 0.980 . S
C54 H52 0.981 . S
C54 H53 0.981 . S
C55 C42 1.481 . S
C55 H56 0.980 . S
C55 H57 0.981 . S
C55 H58 0.981 . S
H56 C55 0.980 . S
H57 C55 0.981 . S
H58 C55 0.981 . S
O59 Zn35 2.066 . S
O59 C38 1.256 . S
O60 Zn32 2.053 1_455 S
O60 C38 1.244 . S
C61 O39 1.259 1_655 S
C61 O40 1.254 . S
O62 Zn32 2.066 1_455 S
O62 C34 1.256 . S
O63 C34 1.244 . S
O63 Zn35 2.053 . S
Zn64 O65 2.055 . S
Zn64 O72 2.046 . S
Zn64 N80 2.036 . S
Zn64 O92 2.053 1_554 S
Zn64 O94 2.066 1_554 S
O65 Zn64 2.055 . S
O65 C68 1.259 . S
C66 O94 1.256 . S
C66 O95 1.244 . S
Zn67 O69 2.046 . S
Zn67 O71 2.055 . S
Zn67 N73 2.036 . S
Zn67 O91 2.066 . S
Zn67 O95 2.053 . S
C68 O65 1.259 . S
C68 O69 1.254 1_554 S
O69 Zn67 2.046 . S
O69 C68 1.254 1_556 S
C70 O91 1.256 . S
C70 O92 1.244 . S
O71 Zn67 2.055 . S
O71 C93 1.259 1_556 S
O72 Zn64 2.046 . S
O72 C93 1.254 . S
N73 Zn67 2.036 . S
N73 C74 1.298 . S
N73 N76 1.398 . S
C74 N73 1.298 . S
C74 N77 1.367 . S
C74 C87 1.481 . S
C75 N76 1.299 . S
C75 N77 1.379 . S
N76 N73 1.398 . S
N76 C75 1.299 . S
N77 C74 1.367 . S
N77 C75 1.379 . S
C78 N80 1.298 . S
C78 N82 1.367 . S
C78 C86 1.481 . S
C79 N81 1.299 . S
C79 N82 1.379 . S
N80 Zn64 2.036 . S
N80 C78 1.298 . S
N80 N81 1.398 . S
N81 C79 1.299 . S
N81 N80 1.398 . S
N82 C78 1.367 . S
N82 C79 1.379 . S
H83 C86 0.980 . S
H84 C86 0.981 . S
H85 C86 0.981 . S
C86 C78 1.481 . S
C86 H83 0.980 . S
C86 H84 0.981 . S
C86 H85 0.981 . S
C87 C74 1.481 . S
C87 H88 0.980 . S
C87 H89 0.981 . S
C87 H90 0.981 . S
H88 C87 0.980 . S
H89 C87 0.981 . S
H90 C87 0.981 . S
O91 Zn67 2.066 . S
O91 C70 1.256 . S
O92 Zn64 2.053 1_556 S
O92 C70 1.244 . S
C93 O71 1.259 1_554 S
C93 O72 1.254 . S
O94 Zn64 2.066 1_556 S
O94 C66 1.256 . S
O95 C66 1.244 . S
O95 Zn67 2.053 . S
Zn96 O97 2.055 . S
Zn96 O104 2.046 . S
Zn96 N112 2.036 . S
Zn96 O124 2.053 . S
Zn96 O126 2.066 . S
O97 Zn96 2.055 . S
O97 C100 1.259 . S
C98 O126 1.256 . S
C98 O127 1.244 . S
Zn99 O101 2.046 . S
Zn99 O103 2.055 . S
Zn99 N105 2.036 . S
Zn99 O123 2.066 . S
Zn99 O127 2.053 . S
C100 O97 1.259 . S
C100 O101 1.254 . S
O101 Zn99 2.046 . S
O101 C100 1.254 . S
C102 O123 1.256 . S
C102 O124 1.244 . S
O103 Zn99 2.055 . S
O103 C125 1.259 . S
O104 Zn96 2.046 . S
O104 C125 1.254 . S
N105 Zn99 2.036 . S
N105 C106 1.298 . S
N105 N108 1.398 . S
C106 N105 1.298 . S
C106 N109 1.367 . S
C106 C119 1.481 . S
C107 N108 1.299 . S
C107 N109 1.379 . S
N108 N105 1.398 . S
N108 C107 1.299 . S
N109 C106 1.367 . S
N109 C107 1.379 . S
C110 N112 1.298 . S
C110 N114 1.367 . S
C110 C118 1.481 . S
C111 N113 1.299 . S
C111 N114 1.379 . S
N112 Zn96 2.036 . S
N112 C110 1.298 . S
N112 N113 1.398 . S
N113 C111 1.299 . S
N113 N112 1.398 . S
N114 C110 1.367 . S
N114 C111 1.379 . S
H115 C118 0.980 . S
H116 C118 0.981 . S
H117 C118 0.981 . S
C118 C110 1.481 . S
C118 H115 0.980 . S
C118 H116 0.981 . S
C118 H117 0.981 . S
C119 C106 1.481 . S
C119 H120 0.980 . S
C119 H121 0.981 . S
C119 H122 0.981 . S
H120 C119 0.980 . S
H121 C119 0.981 . S
H122 C119 0.981 . S
O123 Zn99 2.066 . S
O123 C102 1.256 . S
O124 Zn96 2.053 . S
O124 C102 1.244 . S
C125 O103 1.259 . S
C125 O104 1.254 . S
O126 Zn96 2.066 . S
O126 C98 1.256 . S
O127 C98 1.244 . S
O127 Zn99 2.053 . S
Zn128 O129 2.055 . S
Zn128 O136 2.046 . S
Zn128 N144 2.036 . S
Zn128 O156 2.053 . S
Zn128 O158 2.066 . S
O129 Zn128 2.055 . S
O129 C132 1.259 . S
C130 O158 1.256 . S
C130 O159 1.244 . S
Zn131 O133 2.046 . S
Zn131 O135 2.055 . S
Zn131 N137 2.036 . S
Zn131 O155 2.066 . S
Zn131 O159 2.053 . S
C132 O129 1.259 . S
C132 O133 1.254 . S
O133 Zn131 2.046 . S
O133 C132 1.254 . S
C134 O155 1.256 . S
C134 O156 1.244 . S
O135 Zn131 2.055 . S
O135 C157 1.259 . S
O136 Zn128 2.046 . S
O136 C157 1.254 . S
N137 Zn131 2.036 . S
N137 C138 1.298 . S
N137 N140 1.398 . S
C138 N137 1.298 . S
C138 N141 1.367 . S
C138 C151 1.481 . S
C139 N140 1.299 . S
C139 N141 1.379 . S
N140 N137 1.398 . S
N140 C139 1.299 . S
N141 C138 1.367 . S
N141 C139 1.379 . S
C142 N144 1.298 . S
C142 N146 1.367 . S
C142 C150 1.481 . S
C143 N145 1.299 . S
C143 N146 1.379 . S
N144 Zn128 2.036 . S
N144 C142 1.298 . S
N144 N145 1.398 . S
N145 C143 1.299 . S
N145 N144 1.398 . S
N146 C142 1.367 . S
N146 C143 1.379 . S
H147 C150 0.980 . S
H148 C150 0.981 . S
H149 C150 0.981 . S
C150 C142 1.481 . S
C150 H147 0.980 . S
C150 H148 0.981 . S
C150 H149 0.981 . S
C151 C138 1.481 . S
C151 H152 0.980 . S
C151 H153 0.981 . S
C151 H154 0.981 . S
H152 C151 0.980 . S
H153 C151 0.981 . S
H154 C151 0.981 . S
O155 Zn131 2.066 . S
O155 C134 1.256 . S
O156 Zn128 2.053 . S
O156 C134 1.244 . S
C157 O135 1.259 . S
C157 O136 1.254 . S
O158 Zn128 2.066 . S
O158 C130 1.256 . S
O159 C130 1.244 . S
O159 Zn131 2.053 . S
Zn160 O161 2.055 . S
Zn160 O168 2.046 . S
Zn160 N176 2.036 . S
Zn160 O188 2.053 . S
Zn160 O190 2.066 . S
O161 Zn160 2.055 . S
O161 C164 1.259 1_655 S
C162 O190 1.256 . S
C162 O191 1.244 . S
Zn163 O165 2.046 . S
Zn163 O167 2.055 . S
Zn163 N169 2.036 . S
Zn163 O187 2.066 1_455 S
Zn163 O191 2.053 1_455 S
C164 O161 1.259 1_455 S
C164 O165 1.254 . S
O165 Zn163 2.046 . S
O165 C164 1.254 . S
C166 O187 1.256 . S
C166 O188 1.244 . S
O167 Zn163 2.055 . S
O167 C189 1.259 . S
O168 Zn160 2.046 . S
O168 C189 1.254 1_655 S
N169 Zn163 2.036 . S
N169 C170 1.298 . S
N169 N172 1.398 . S
C170 N169 1.298 . S
C170 N173 1.367 . S
C170 C183 1.481 . S
C171 N172 1.299 . S
C171 N173 1.379 . S
N172 N169 1.398 . S
N172 C171 1.299 . S
N173 C170 1.367 . S
N173 C171 1.379 . S
C174 N176 1.298 . S
C174 N178 1.367 . S
C174 C182 1.481 . S
C175 N177 1.299 . S
C175 N178 1.379 . S
N176 Zn160 2.036 . S
N176 C174 1.298 . S
N176 N177 1.398 . S
N177 C175 1.299 . S
N177 N176 1.398 . S
N178 C174 1.367 . S
N178 C175 1.379 . S
H179 C182 0.980 . S
H180 C182 0.981 . S
H181 C182 0.981 . S
C182 C174 1.481 . S
C182 H179 0.980 . S
C182 H180 0.981 . S
C182 H181 0.981 . S
C183 C170 1.481 . S
C183 H184 0.980 . S
C183 H185 0.981 . S
C183 H186 0.981 . S
H184 C183 0.980 . S
H185 C183 0.981 . S
H186 C183 0.981 . S
O187 Zn163 2.066 1_655 S
O187 C166 1.256 . S
O188 Zn160 2.053 . S
O188 C166 1.244 . S
C189 O167 1.259 . S
C189 O168 1.254 1_455 S
O190 Zn160 2.066 . S
O190 C162 1.256 . S
O191 C162 1.244 . S
O191 Zn163 2.053 1_655 S
Zn192 O193 2.055 . S
Zn192 O200 2.046 . S
Zn192 N208 2.036 . S
Zn192 O220 2.053 . S
Zn192 O222 2.066 . S
O193 Zn192 2.055 . S
O193 C196 1.259 1_554 S
C194 O222 1.256 . S
C194 O223 1.244 . S
Zn195 O197 2.046 . S
Zn195 O199 2.055 . S
Zn195 N201 2.036 . S
Zn195 O219 2.066 1_556 S
Zn195 O223 2.053 1_556 S
C196 O193 1.259 1_556 S
C196 O197 1.254 . S
O197 Zn195 2.046 . S
O197 C196 1.254 . S
C198 O219 1.256 . S
C198 O220 1.244 . S
O199 Zn195 2.055 . S
O199 C221 1.259 . S
O200 Zn192 2.046 . S
O200 C221 1.254 1_554 S
N201 Zn195 2.036 . S
N201 C202 1.298 . S
N201 N204 1.398 . S
C202 N201 1.298 . S
C202 N205 1.367 . S
C202 C215 1.481 . S
C203 N204 1.299 . S
C203 N205 1.379 . S
N204 N201 1.398 . S
N204 C203 1.299 . S
N205 C202 1.367 . S
N205 C203 1.379 . S
C206 N208 1.298 . S
C206 N210 1.367 . S
C206 C214 1.481 . S
C207 N209 1.299 . S
C207 N210 1.379 . S
N208 Zn192 2.036 . S
N208 C206 1.298 . S
N208 N209 1.398 . S
N209 C207 1.299 . S
N209 N208 1.398 . S
N210 C206 1.367 . S
N210 C207 1.379 . S
H211 C214 0.980 . S
H212 C214 0.981 . S
H213 C214 0.981 . S
C214 C206 1.481 . S
C214 H211 0.980 . S
C214 H212 0.981 . S
C214 H213 0.981 . S
C215 C202 1.481 . S
C215 H216 0.980 . S
C215 H217 0.981 . S
C215 H218 0.981 . S
H216 C215 0.980 . S
H217 C215 0.981 . S
H218 C215 0.981 . S
O219 Zn195 2.066 1_554 S
O219 C198 1.256 . S
O220 Zn192 2.053 . S
O220 C198 1.244 . S
C221 O199 1.259 . S
C221 O200 1.254 1_556 S
O222 Zn192 2.066 . S
O222 C194 1.256 . S
O223 C194 1.244 . S
O223 Zn195 2.053 1_554 S
Zn224 O225 2.055 . S
Zn224 O232 2.046 . S
Zn224 N240 2.036 . S
Zn224 O252 2.053 . S
Zn224 O254 2.066 . S
O225 Zn224 2.055 . S
O225 C228 1.259 . S
C226 O254 1.256 . S
C226 O255 1.244 . S
Zn227 O229 2.046 . S
Zn227 O231 2.055 . S
Zn227 N233 2.036 . S
Zn227 O251 2.066 . S
Zn227 O255 2.053 . S
C228 O225 1.259 . S
C228 O229 1.254 . S
O229 Zn227 2.046 . S
O229 C228 1.254 . S
C230 O251 1.256 . S
C230 O252 1.244 . S
O231 Zn227 2.055 . S
O231 C253 1.259 . S
O232 Zn224 2.046 . S
O232 C253 1.254 . S
N233 Zn227 2.036 . S
N233 C234 1.298 . S
N233 N236 1.398 . S
C234 N233 1.298 . S
C234 N237 1.367 . S
C234 C247 1.481 . S
C235 N236 1.299 . S
C235 N237 1.379 . S
N236 N233 1.398 . S
N236 C235 1.299 . S
N237 C234 1.367 . S
N237 C235 1.379 . S
C238 N240 1.298 . S
C238 N242 1.367 . S
C238 C246 1.481 . S
C239 N241 1.299 . S
C239 N242 1.379 . S
N240 Zn224 2.036 . S
N240 C238 1.298 . S
N240 N241 1.398 . S
N241 C239 1.299 . S
N241 N240 1.398 . S
N242 C238 1.367 . S
N242 C239 1.379 . S
H243 C246 0.980 . S
H244 C246 0.981 . S
H245 C246 0.981 . S
C246 C238 1.481 . S
C246 H243 0.980 . S
C246 H244 0.981 . S
C246 H245 0.981 . S
C247 C234 1.481 . S
C247 H248 0.980 . S
C247 H249 0.981 . S
C247 H250 0.981 . S
H248 C247 0.980 . S
H249 C247 0.981 . S
H250 C247 0.981 . S
O251 Zn227 2.066 . S
O251 C230 1.256 . S
O252 Zn224 2.053 . S
O252 C230 1.244 . S
C253 O231 1.259 . S
C253 O232 1.254 . S
O254 Zn224 2.066 . S
O254 C226 1.256 . S
O255 C226 1.244 . S
O255 Zn227 2.053 . S
Zn256 O257 2.055 . S
Zn256 O264 2.046 . S
Zn256 N272 2.036 . S
Zn256 O284 2.053 . S
Zn256 O286 2.066 . S
O257 Zn256 2.055 . S
O257 C260 1.259 . S
C258 O286 1.256 . S
C258 O287 1.244 . S
Zn259 O261 2.046 . S
Zn259 O263 2.055 . S
Zn259 N265 2.036 . S
Zn259 O283 2.066 . S
Zn259 O287 2.053 . S
C260 O257 1.259 . S
C260 O261 1.254 . S
O261 Zn259 2.046 . S
O261 C260 1.254 . S
C262 O283 1.256 . S
C262 O284 1.244 . S
O263 Zn259 2.055 . S
O263 C285 1.259 . S
O264 Zn256 2.046 . S
O264 C285 1.254 . S
N265 Zn259 2.036 . S
N265 C266 1.298 . S
N265 N268 1.398 . S
C266 N265 1.298 . S
C266 N269 1.367 . S
C266 C279 1.481 . S
C267 N268 1.299 . S
C267 N269 1.379 . S
N268 N265 1.398 . S
N268 C267 1.299 . S
N269 C266 1.367 . S
N269 C267 1.379 . S
C270 N272 1.298 . S
C270 N274 1.367 . S
C270 C278 1.481 . S
C271 N273 1.299 . S
C271 N274 1.379 . S
N272 Zn256 2.036 . S
N272 C270 1.298 . S
N272 N273 1.398 . S
N273 C271 1.299 . S
N273 N272 1.398 . S
N274 C270 1.367 . S
N274 C271 1.379 . S
H275 C278 0.980 . S
H276 C278 0.981 . S
H277 C278 0.981 . S
C278 C270 1.481 . S
C278 H275 0.980 . S
C278 H276 0.981 . S
C278 H277 0.981 . S
C279 C266 1.481 . S
C279 H280 0.980 . S
C279 H281 0.981 . S
C279 H282 0.981 . S
H280 C279 0.980 . S
H281 C279 0.981 . S
H282 C279 0.981 . S
O283 Zn259 2.066 . S
O283 C262 1.256 . S
O284 Zn256 2.053 . S
O284 C262 1.244 . S
C285 O263 1.259 . S
C285 O264 1.254 . S
O286 Zn256 2.066 . S
O286 C258 1.256 . S
O287 C258 1.244 . S
O287 Zn259 2.053 . S
Zn288 O289 2.055 . S
Zn288 O296 2.046 . S
Zn288 N304 2.036 . S
Zn288 O316 2.053 . S
Zn288 O318 2.066 . S
O289 Zn288 2.055 . S
O289 C292 1.259 1_545 S
C290 O318 1.256 . S
C290 O319 1.244 . S
Zn291 O293 2.046 . S
Zn291 O295 2.055 . S
Zn291 N297 2.036 . S
Zn291 O315 2.066 1_565 S
Zn291 O319 2.053 1_565 S
C292 O289 1.259 1_565 S
C292 O293 1.254 . S
O293 Zn291 2.046 . S
O293 C292 1.254 . S
C294 O315 1.256 . S
C294 O316 1.244 . S
O295 Zn291 2.055 . S
O295 C317 1.259 . S
O296 Zn288 2.046 . S
O296 C317 1.254 1_545 S
N297 Zn291 2.036 . S
N297 C298 1.298 . S
N297 N300 1.398 . S
C298 N297 1.298 . S
C298 N301 1.367 . S
C298 C311 1.481 . S
C299 N300 1.299 . S
C299 N301 1.379 . S
N300 N297 1.398 . S
N300 C299 1.299 . S
N301 C298 1.367 . S
N301 C299 1.379 . S
C302 N304 1.298 . S
C302 N306 1.367 . S
C302 C310 1.481 . S
C303 N305 1.299 . S
C303 N306 1.379 . S
N304 Zn288 2.036 . S
N304 C302 1.298 . S
N304 N305 1.398 . S
N305 C303 1.299 . S
N305 N304 1.398 . S
N306 C302 1.367 . S
N306 C303 1.379 . S
H307 C310 0.980 . S
H308 C310 0.981 . S
H309 C310 0.981 . S
C310 C302 1.481 . S
C310 H307 0.980 . S
C310 H308 0.981 . S
C310 H309 0.981 . S
C311 C298 1.481 . S
C311 H312 0.980 . S
C311 H313 0.981 . S
C311 H314 0.981 . S
H312 C311 0.980 . S
H313 C311 0.981 . S
H314 C311 0.981 . S
O315 Zn291 2.066 1_545 S
O315 C294 1.256 . S
O316 Zn288 2.053 . S
O316 C294 1.244 . S
C317 O295 1.259 . S
C317 O296 1.254 1_565 S
O318 Zn288 2.066 . S
O318 C290 1.256 . S
O319 C290 1.244 . S
O319 Zn291 2.053 1_545 S
Zn320 O321 2.055 . S
Zn320 O328 2.046 . S
Zn320 N336 2.036 . S
Zn320 O348 2.053 . S
Zn320 O350 2.066 . S
O321 Zn320 2.055 . S
O321 C324 1.259 1_565 S
C322 O350 1.256 . S
C322 O351 1.244 . S
Zn323 O325 2.046 . S
Zn323 O327 2.055 . S
Zn323 N329 2.036 . S
Zn323 O347 2.066 1_545 S
Zn323 O351 2.053 1_545 S
C324 O321 1.259 1_545 S
C324 O325 1.254 . S
O325 Zn323 2.046 . S
O325 C324 1.254 . S
C326 O347 1.256 . S
C326 O348 1.244 . S
O327 Zn323 2.055 . S
O327 C349 1.259 . S
O328 Zn320 2.046 . S
O328 C349 1.254 1_565 S
N329 Zn323 2.036 . S
N329 C330 1.298 . S
N329 N332 1.398 . S
C330 N329 1.298 . S
C330 N333 1.367 . S
C330 C343 1.481 . S
C331 N332 1.299 . S
C331 N333 1.379 . S
N332 N329 1.398 . S
N332 C331 1.299 . S
N333 C330 1.367 . S
N333 C331 1.379 . S
C334 N336 1.298 . S
C334 N338 1.367 . S
C334 C342 1.481 . S
C335 N337 1.299 . S
C335 N338 1.379 . S
N336 Zn320 2.036 . S
N336 C334 1.298 . S
N336 N337 1.398 . S
N337 C335 1.299 . S
N337 N336 1.398 . S
N338 C334 1.367 . S
N338 C335 1.379 . S
H339 C342 0.980 . S
H340 C342 0.981 . S
H341 C342 0.981 . S
C342 C334 1.481 . S
C342 H339 0.980 . S
C342 H340 0.981 . S
C342 H341 0.981 . S
C343 C330 1.481 . S
C343 H344 0.980 . S
C343 H345 0.981 . S
C343 H346 0.981 . S
H344 C343 0.980 . S
H345 C343 0.981 . S
H346 C343 0.981 . S
O347 Zn323 2.066 1_565 S
O347 C326 1.256 . S
O348 Zn320 2.053 . S
O348 C326 1.244 . S
C349 O327 1.259 . S
C349 O328 1.254 1_545 S
O350 Zn320 2.066 . S
O350 C322 1.256 . S
O351 C322 1.244 . S
O351 Zn323 2.053 1_565 S
Zn352 O353 2.055 . S
Zn352 O360 2.046 . S
Zn352 N368 2.036 . S
Zn352 O380 2.053 . S
Zn352 O382 2.066 . S
O353 Zn352 2.055 . S
O353 C356 1.259 . S
C354 O382 1.256 . S
C354 O383 1.244 . S
Zn355 O357 2.046 . S
Zn355 O359 2.055 . S
Zn355 N361 2.036 . S
Zn355 O379 2.066 . S
Zn355 O383 2.053 . S
C356 O353 1.259 . S
C356 O357 1.254 . S
O357 Zn355 2.046 . S
O357 C356 1.254 . S
C358 O379 1.256 . S
C358 O380 1.244 . S
O359 Zn355 2.055 . S
O359 C381 1.259 . S
O360 Zn352 2.046 . S
O360 C381 1.254 . S
N361 Zn355 2.036 . S
N361 C362 1.298 . S
N361 N364 1.398 . S
C362 N361 1.298 . S
C362 N365 1.367 . S
C362 C375 1.481 . S
C363 N364 1.299 . S
C363 N365 1.379 . S
N364 N361 1.398 . S
N364 C363 1.299 . S
N365 C362 1.367 . S
N365 C363 1.379 . S
C366 N368 1.298 . S
C366 N370 1.367 . S
C366 C374 1.481 . S
C367 N369 1.299 . S
C367 N370 1.379 . S
N368 Zn352 2.036 . S
N368 C366 1.298 . S
N368 N369 1.398 . S
N369 C367 1.299 . S
N369 N368 1.398 . S
N370 C366 1.367 . S
N370 C367 1.379 . S
H371 C374 0.980 . S
H372 C374 0.981 . S
H373 C374 0.981 . S
C374 C366 1.481 . S
C374 H371 0.980 . S
C374 H372 0.981 . S
C374 H373 0.981 . S
C375 C362 1.481 . S
C375 H376 0.980 . S
C375 H377 0.981 . S
C375 H378 0.981 . S
H376 C375 0.980 . S
H377 C375 0.981 . S
H378 C375 0.981 . S
O379 Zn355 2.066 . S
O379 C358 1.256 . S
O380 Zn352 2.053 . S
O380 C358 1.244 . S
C381 O359 1.259 . S
C381 O360 1.254 . S
O382 Zn352 2.066 . S
O382 C354 1.256 . S
O383 C354 1.244 . S
O383 Zn355 2.053 . S
H384 C390 0.930 . S
H385 C393 0.930 . S
H386 C394 0.930 . S
H387 C395 0.930 . S
H388 C398 0.930 . S
H389 C399 0.930 . S
C390 H384 0.930 . S
C390 C391 1.355 . S
C390 C392 1.415 . S
C391 C390 1.355 . S
C391 C393 1.419 . S
C392 C390 1.415 . S
C392 C397 1.425 . S
C392 C399 1.409 . S
C393 H385 0.930 . S
C393 C391 1.419 . S
C393 C394 1.362 . S
C394 H386 0.930 . S
C394 C393 1.362 . S
C394 C397 1.409 . S
C395 H387 0.930 . S
C395 C396 1.355 . S
C395 C397 1.415 . S
C396 C395 1.355 . S
C396 C398 1.419 . S
C397 C392 1.425 . S
C397 C394 1.409 . S
C397 C395 1.415 . S
C398 H388 0.930 . S
C398 C396 1.419 . S
C398 C399 1.362 . S
C399 H389 0.930 . S
C399 C392 1.409 . S
C399 C398 1.362 . S
H400 C406 0.930 . S
H401 C409 0.927 1_545 S
H402 C410 0.930 . S
H403 C411 0.930 . S
H404 C414 0.930 . S
H405 C415 0.930 . S
C406 H400 0.930 . S
C406 C407 1.355 . S
C406 C408 1.415 . S
C407 C406 1.355 . S
C407 C409 1.419 . S
C408 C406 1.415 . S
C408 C413 1.425 . S
C408 C415 1.409 . S
C409 H401 0.927 1_565 S
C409 C407 1.419 . S
C409 C410 1.362 . S
C410 H402 0.930 . S
C410 C409 1.362 . S
C410 C413 1.409 . S
C411 H403 0.930 . S
C411 C412 1.355 . S
C411 C413 1.415 . S
C412 C411 1.355 . S
C412 C414 1.419 . S
C413 C408 1.425 . S
C413 C410 1.409 . S
C413 C411 1.415 . S
C414 H404 0.930 . S
C414 C412 1.419 . S
C414 C415 1.362 . S
C415 H405 0.930 . S
C415 C408 1.409 . S
C415 C414 1.362 . S
H416 C422 0.930 . S
H417 C425 0.930 . S
H418 C426 0.930 . S
H419 C427 0.930 . S
H420 C430 0.930 . S
H421 C431 0.930 . S
C422 H416 0.930 . S
C422 C423 1.355 . S
C422 C424 1.415 . S
C423 C422 1.355 . S
C423 C425 1.419 1_554 S
C424 C422 1.415 . S
C424 C429 1.425 . S
C424 C431 1.409 . S
C425 H417 0.930 . S
C425 C423 1.419 1_556 S
C425 C426 1.362 . S
C426 H418 0.930 . S
C426 C425 1.362 . S
C426 C429 1.409 1_556 S
C427 H419 0.930 . S
C427 C428 1.355 . S
C427 C429 1.415 . S
C428 C427 1.355 . S
C428 C430 1.419 . S
C429 C424 1.425 . S
C429 C426 1.409 1_554 S
C429 C427 1.415 . S
C430 H420 0.930 . S
C430 C428 1.419 . S
C430 C431 1.362 . S
C431 H421 0.930 . S
C431 C424 1.409 . S
C431 C430 1.362 . S
H432 C438 0.930 1_565 S
H433 C441 0.930 . S
H434 C442 0.930 . S
H435 C443 0.930 . S
H436 C446 0.930 . S
H437 C447 0.930 . S
C438 H432 0.930 1_545 S
C438 C439 1.355 . S
C438 C440 1.415 . S
C439 C438 1.355 . S
C439 C441 1.419 . S
C440 C438 1.415 . S
C440 C445 1.425 . S
C440 C447 1.409 1_545 S
C441 H433 0.930 . S
C441 C439 1.419 . S
C441 C442 1.362 . S
C442 H434 0.930 . S
C442 C441 1.362 . S
C442 C445 1.409 . S
C443 H435 0.930 . S
C443 C444 1.355 . S
C443 C445 1.415 . S
C444 C443 1.355 . S
C444 C446 1.419 1_545 S
C445 C440 1.425 . S
C445 C442 1.409 . S
C445 C443 1.415 . S
C446 H436 0.930 . S
C446 C444 1.419 1_565 S
C446 C447 1.362 . S
C447 H437 0.930 . S
C447 C440 1.409 1_565 S
C447 C446 1.362 . S
H448 C454 0.930 . S
H449 C457 0.930 . S
H450 C458 0.930 . S
H451 C459 0.930 . S
H452 C462 0.930 . S
H453 C463 0.930 . S
C454 H448 0.930 . S
C454 C455 1.355 . S
C454 C456 1.415 . S
C455 C454 1.355 . S
C455 C457 1.419 . S
C456 C454 1.415 . S
C456 C461 1.425 . S
C456 C463 1.409 . S
C457 H449 0.930 . S
C457 C455 1.419 . S
C457 C458 1.362 . S
C458 H450 0.930 . S
C458 C457 1.362 . S
C458 C461 1.409 . S
C459 H451 0.930 . S
C459 C460 1.355 . S
C459 C461 1.415 . S
C460 C459 1.355 . S
C460 C462 1.419 . S
C461 C456 1.425 . S
C461 C458 1.409 . S
C461 C459 1.415 . S
C462 H452 0.930 . S
C462 C460 1.419 . S
C462 C463 1.362 . S
C463 H453 0.930 . S
C463 C456 1.409 . S
C463 C462 1.362 . S
H464 C470 0.930 . S
H465 C473 0.930 . S
H466 C474 0.930 . S
H467 C475 0.930 . S
H468 C478 0.930 . S
H469 C479 0.930 . S
C470 H464 0.930 . S
C470 C471 1.355 . S
C470 C472 1.415 . S
C471 C470 1.355 . S
C471 C473 1.419 . S
C472 C470 1.415 . S
C472 C477 1.425 . S
C472 C479 1.409 . S
C473 H465 0.930 . S
C473 C471 1.419 . S
C473 C474 1.362 . S
C474 H466 0.930 . S
C474 C473 1.362 . S
C474 C477 1.409 . S
C475 H467 0.930 . S
C475 C476 1.355 . S
C475 C477 1.415 . S
C476 C475 1.355 . S
C476 C478 1.419 . S
C477 C472 1.425 . S
C477 C474 1.409 . S
C477 C475 1.415 . S
C478 H468 0.930 . S
C478 C476 1.419 . S
C478 C479 1.362 . S
C479 H469 0.930 . S
C479 C472 1.409 . S
C479 C478 1.362 . S
H480 C486 0.930 . S
H481 C489 0.930 . S
H482 C490 0.930 . S
H483 C491 0.930 . S
H484 C494 0.930 . S
H485 C495 0.930 . S
C486 H480 0.930 . S
C486 C487 1.355 . S
C486 C488 1.415 . S
C487 C486 1.355 . S
C487 C489 1.419 . S
C488 C486 1.415 . S
C488 C493 1.425 . S
C488 C495 1.409 . S
C489 H481 0.930 . S
C489 C487 1.419 . S
C489 C490 1.362 . S
C490 H482 0.930 . S
C490 C489 1.362 . S
C490 C493 1.409 . S
C491 H483 0.930 . S
C491 C492 1.355 . S
C491 C493 1.415 . S
C492 C491 1.355 . S
C492 C494 1.419 . S
C493 C488 1.425 . S
C493 C490 1.409 . S
C493 C491 1.415 . S
C494 H484 0.930 . S
C494 C492 1.419 . S
C494 C495 1.362 . S
C495 H485 0.930 . S
C495 C488 1.409 . S
C495 C494 1.362 . S
H496 C502 0.930 . S
H497 C505 0.930 . S
H498 C506 0.930 . S
H499 C507 0.930 . S
H500 C510 0.930 . S
H501 C511 0.930 . S
C502 H496 0.930 . S
C502 C503 1.355 . S
C502 C504 1.415 . S
C503 C502 1.355 . S
C503 C505 1.419 . S
C504 C502 1.415 . S
C504 C509 1.425 . S
C504 C511 1.409 . S
C505 H497 0.930 . S
C505 C503 1.419 . S
C505 C506 1.362 . S
C506 H498 0.930 . S
C506 C505 1.362 . S
C506 C509 1.409 . S
C507 H499 0.930 . S
C507 C508 1.355 . S
C507 C509 1.415 . S
C508 C507 1.355 . S
C508 C510 1.419 . S
C509 C504 1.425 . S
C509 C506 1.409 . S
C509 C507 1.415 . S
C510 H500 0.930 . S
C510 C508 1.419 . S
C510 C511 1.362 . S
C511 H501 0.930 . S
C511 C504 1.409 . S
C511 C510 1.362 . S
H512 C518 0.930 . S
H513 C521 0.930 . S
H514 C522 0.930 . S
H515 C523 0.930 . S
H516 C526 0.930 . S
H517 C527 0.930 . S
C518 H512 0.930 . S
C518 C519 1.355 . S
C518 C520 1.415 . S
C519 C518 1.355 . S
C519 C521 1.419 . S
C520 C518 1.415 . S
C520 C525 1.425 . S
C520 C527 1.409 . S
C521 H513 0.930 . S
C521 C519 1.419 . S
C521 C522 1.362 . S
C522 H514 0.930 . S
C522 C521 1.362 . S
C522 C525 1.409 . S
C523 H515 0.930 . S
C523 C524 1.355 . S
C523 C525 1.415 . S
C524 C523 1.355 . S
C524 C526 1.419 . S
C525 C520 1.425 . S
C525 C522 1.409 . S
C525 C523 1.415 . S
C526 H516 0.930 . S
C526 C524 1.419 . S
C526 C527 1.362 . S
C527 H517 0.930 . S
C527 C520 1.409 . S
C527 C526 1.362 . S
H528 C534 0.930 . S
H529 C537 0.930 . S
H530 C538 0.930 . S
H531 C539 0.930 . S
H532 C542 0.933 . S
H533 C543 0.930 1_655 S
C534 H528 0.930 . S
C534 C535 1.355 . S
C534 C536 1.415 . S
C535 C534 1.355 . S
C535 C537 1.419 . S
C536 C534 1.415 . S
C536 C541 1.425 . S
C536 C543 1.409 . S
C537 H529 0.930 . S
C537 C535 1.419 . S
C537 C538 1.362 . S
C538 H530 0.930 . S
C538 C537 1.362 . S
C538 C541 1.409 . S
C539 H531 0.930 . S
C539 C540 1.355 . S
C539 C541 1.415 . S
C540 C539 1.355 . S
C540 C542 1.416 1_455 S
C541 C536 1.425 . S
C541 C538 1.409 . S
C541 C539 1.415 . S
C542 H532 0.933 . S
C542 C540 1.416 1_655 S
C542 C543 1.362 1_655 S
C543 H533 0.930 1_455 S
C543 C536 1.409 . S
C543 C542 1.362 1_455 S
H544 C550 0.930 1_455 S
H545 C553 0.930 . S
H546 C554 0.930 . S
H547 C555 0.930 . S
H548 C558 0.930 1_455 S
H549 C559 0.940 . S
C550 H544 0.930 1_655 S
C550 C551 1.355 . S
C550 C552 1.415 . S
C551 C550 1.355 . S
C551 C553 1.419 . S
C552 C550 1.415 . S
C552 C557 1.425 . S
C552 C559 1.404 1_655 S
C553 H545 0.930 . S
C553 C551 1.419 . S
C553 C554 1.362 . S
C554 H546 0.930 . S
C554 C553 1.362 . S
C554 C557 1.409 . S
C555 H547 0.930 . S
C555 C556 1.355 . S
C555 C557 1.415 . S
C556 C555 1.355 . S
C556 C558 1.419 . S
C557 C552 1.425 . S
C557 C554 1.409 . S
C557 C555 1.415 . S
C558 H548 0.930 1_655 S
C558 C556 1.419 . S
C558 C559 1.359 1_655 S
C559 H549 0.940 . S
C559 C552 1.404 1_455 S
C559 C558 1.359 1_455 S
H560 C566 0.930 . S
H561 C569 0.930 . S
H562 C570 0.930 . S
H563 C571 0.930 . S
H564 C574 0.930 . S
H565 C575 0.930 . S
C566 H560 0.930 . S
C566 C567 1.355 . S
C566 C568 1.415 . S
C567 C566 1.355 . S
C567 C569 1.419 . S
C568 C566 1.415 . S
C568 C573 1.425 . S
C568 C575 1.409 . S
C569 H561 0.930 . S
C569 C567 1.419 . S
C569 C570 1.362 . S
C570 H562 0.930 . S
C570 C569 1.362 . S
C570 C573 1.409 . S
C571 H563 0.930 . S
C571 C572 1.355 . S
C571 C573 1.415 . S
C572 C571 1.355 . S
C572 C574 1.419 . S
C573 C568 1.425 . S
C573 C570 1.409 . S
C573 C571 1.415 . S
C574 H564 0.930 . S
C574 C572 1.419 . S
C574 C575 1.362 . S
C575 H565 0.930 . S
C575 C568 1.409 . S
C575 C574 1.362 . S
H576 C582 0.930 . S
H577 C585 0.930 . S
H578 C586 0.930 . S
H579 C587 0.930 . S
H580 C590 0.930 . S
H581 C591 0.930 . S
C582 H576 0.930 . S
C582 C583 1.355 . S
C582 C584 1.415 . S
C583 C582 1.355 . S
C583 C585 1.419 . S
C584 C582 1.415 . S
C584 C589 1.425 . S
C584 C591 1.409 . S
C585 H577 0.930 . S
C585 C583 1.419 . S
C585 C586 1.362 . S
C586 H578 0.930 . S
C586 C585 1.362 . S
C586 C589 1.409 . S
C587 H579 0.930 . S
C587 C588 1.355 . S
C587 C589 1.415 . S
C588 C587 1.355 . S
C588 C590 1.419 . S
C589 C584 1.425 . S
C589 C586 1.409 . S
C589 C587 1.415 . S
C590 H580 0.930 . S
C590 C588 1.419 . S
C590 C591 1.362 . S
C591 H581 0.930 . S
C591 C584 1.409 . S
C591 C590 1.362 . S
H592 C598 0.930 . S
H593 C601 0.930 . S
H594 C602 0.930 . S
H595 C603 0.930 . S
H596 C606 0.930 . S
H597 C607 0.930 . S
C598 H592 0.930 . S
C598 C599 1.355 . S
C598 C600 1.415 . S
C599 C598 1.355 . S
C599 C601 1.419 . S
C600 C598 1.415 . S
C600 C605 1.425 . S
C600 C607 1.409 . S
C601 H593 0.930 . S
C601 C599 1.419 . S
C601 C602 1.362 . S
C602 H594 0.930 . S
C602 C601 1.362 . S
C602 C605 1.409 . S
C603 H595 0.930 . S
C603 C604 1.355 . S
C603 C605 1.415 . S
C604 C603 1.355 . S
C604 C606 1.419 . S
C605 C600 1.425 . S
C605 C602 1.409 . S
C605 C603 1.415 . S
C606 H596 0.930 . S
C606 C604 1.419 . S
C606 C607 1.362 . S
C607 H597 0.930 . S
C607 C600 1.409 . S
C607 C606 1.362 . S
H608 C614 0.930 . S
H609 C617 0.930 . S
H610 C618 0.930 . S
H611 C619 0.930 . S
H612 C622 0.930 . S
H613 C623 0.930 . S
C614 H608 0.930 . S
C614 C615 1.355 . S
C614 C616 1.415 . S
C615 C614 1.355 . S
C615 C617 1.419 . S
C616 C614 1.415 . S
C616 C621 1.425 . S
C616 C623 1.409 . S
C617 H609 0.930 . S
C617 C615 1.419 . S
C617 C618 1.362 . S
C618 H610 0.930 . S
C618 C617 1.362 . S
C618 C621 1.409 . S
C619 H611 0.930 . S
C619 C620 1.355 . S
C619 C621 1.415 . S
C620 C619 1.355 . S
C620 C622 1.419 . S
C621 C616 1.425 . S
C621 C618 1.409 . S
C621 C619 1.415 . S
C622 H612 0.930 . S
C622 C620 1.419 . S
C622 C623 1.362 . S
C623 H613 0.930 . S
C623 C616 1.409 . S
C623 C622 1.362 . S
H624 C630 0.930 . S
H625 C633 0.930 . S
H626 C634 0.930 1_556 S
H627 C635 0.930 . S
H628 C638 0.930 . S
H629 C639 0.930 . S
C630 H624 0.930 . S
C630 C631 1.355 . S
C630 C632 1.415 . S
C631 C630 1.355 . S
C631 C633 1.419 . S
C632 C630 1.415 . S
C632 C637 1.425 . S
C632 C639 1.409 . S
C633 H625 0.930 . S
C633 C631 1.419 . S
C633 C634 1.362 . S
C634 H626 0.930 1_554 S
C634 C633 1.362 . S
C634 C637 1.409 . S
C635 H627 0.930 . S
C635 C636 1.355 . S
C635 C637 1.415 1_556 S
C636 C635 1.355 . S
C636 C638 1.419 . S
C637 C632 1.425 . S
C637 C634 1.409 . S
C637 C635 1.415 1_554 S
C638 H628 0.930 . S
C638 C636 1.419 . S
C638 C639 1.362 1_556 S
C639 H629 0.930 . S
C639 C632 1.409 . S
C639 C638 1.362 1_554 S
H640 C646 0.930 . S
H641 C649 0.930 . S
H642 C650 0.930 . S
H643 C651 0.930 . S
H644 C654 0.930 . S
H645 C655 0.930 . S
C646 H640 0.930 . S
C646 C647 1.355 . S
C646 C648 1.415 . S
C647 C646 1.355 . S
C647 C649 1.419 . S
C648 C646 1.415 . S
C648 C653 1.425 . S
C648 C655 1.409 . S
C649 H641 0.930 . S
C649 C647 1.419 . S
C649 C650 1.362 . S
C650 H642 0.930 . S
C650 C649 1.362 . S
C650 C653 1.409 . S
C651 H643 0.930 . S
C651 C652 1.355 . S
C651 C653 1.415 . S
C652 C651 1.355 . S
C652 C654 1.419 . S
C653 C648 1.425 . S
C653 C650 1.409 . S
C653 C651 1.415 . S
C654 H644 0.930 . S
C654 C652 1.419 . S
C654 C655 1.362 . S
C655 H645 0.930 . S
C655 C648 1.409 . S
C655 C654 1.362 . S
H656 C662 0.930 . S
H657 C665 0.930 . S
H658 C666 0.930 . S
H659 C667 0.930 . S
H660 C670 0.930 . S
H661 C671 0.930 . S
C662 H656 0.930 . S
C662 C663 1.355 . S
C662 C664 1.415 1_554 S
C663 C662 1.355 . S
C663 C665 1.419 . S
C664 C662 1.415 1_556 S
C664 C669 1.425 . S
C664 C671 1.409 . S
C665 H657 0.930 . S
C665 C663 1.419 . S
C665 C666 1.362 . S
C666 H658 0.930 . S
C666 C665 1.362 . S
C666 C669 1.409 1_554 S
C667 H659 0.930 . S
C667 C668 1.355 . S
C667 C669 1.415 . S
C668 C667 1.355 . S
C668 C670 1.419 . S
C669 C664 1.425 . S
C669 C666 1.409 1_556 S
C669 C667 1.415 . S
C670 H660 0.930 . S
C670 C668 1.419 . S
C670 C671 1.362 . S
C671 H661 0.930 . S
C671 C664 1.409 . S
C671 C670 1.362 . S
H672 C678 0.930 . S
H673 C681 0.930 . S
H674 C682 0.930 . S
H675 C683 0.930 . S
H676 C686 0.930 . S
H677 C687 0.930 . S
C678 H672 0.930 . S
C678 C679 1.355 . S
C678 C680 1.415 . S
C679 C678 1.355 . S
C679 C681 1.419 . S
C680 C678 1.415 . S
C680 C685 1.425 . S
C680 C687 1.409 . S
C681 H673 0.930 . S
C681 C679 1.419 . S
C681 C682 1.362 . S
C682 H674 0.930 . S
C682 C681 1.362 . S
C682 C685 1.409 . S
C683 H675 0.930 . S
C683 C684 1.355 . S
C683 C685 1.415 . S
C684 C683 1.355 . S
C684 C686 1.419 . S
C685 C680 1.425 . S
C685 C682 1.409 . S
C685 C683 1.415 . S
C686 H676 0.930 . S
C686 C684 1.419 . S
C686 C687 1.362 . S
C687 H677 0.930 . S
C687 C680 1.409 . S
C687 C686 1.362 . S
H688 C694 0.930 . S
H689 C697 0.930 . S
H690 C698 0.930 . S
H691 C699 0.930 . S
H692 C702 0.930 . S
H693 C703 0.930 . S
C694 H688 0.930 . S
C694 C695 1.355 . S
C694 C696 1.415 . S
C695 C694 1.355 . S
C695 C697 1.419 . S
C696 C694 1.415 . S
C696 C701 1.425 . S
C696 C703 1.409 . S
C697 H689 0.930 . S
C697 C695 1.419 . S
C697 C698 1.362 . S
C698 H690 0.930 . S
C698 C697 1.362 . S
C698 C701 1.409 . S
C699 H691 0.930 . S
C699 C700 1.355 . S
C699 C701 1.415 . S
C700 C699 1.355 . S
C700 C702 1.419 . S
C701 C696 1.425 . S
C701 C698 1.409 . S
C701 C699 1.415 . S
C702 H692 0.930 . S
C702 C700 1.419 . S
C702 C703 1.362 . S
C703 H693 0.930 . S
C703 C696 1.409 . S
C703 C702 1.362 . S
H704 C710 0.930 . S
H705 C713 0.930 . S
H706 C714 0.930 . S
H707 C715 0.930 . S
H708 C718 0.930 . S
H709 C719 0.930 . S
C710 H704 0.930 . S
C710 C711 1.355 . S
C710 C712 1.415 . S
C711 C710 1.355 . S
C711 C713 1.419 . S
C712 C710 1.415 . S
C712 C717 1.425 . S
C712 C719 1.409 . S
C713 H705 0.930 . S
C713 C711 1.419 . S
C713 C714 1.362 . S
C714 H706 0.930 . S
C714 C713 1.362 . S
C714 C717 1.409 . S
C715 H707 0.930 . S
C715 C716 1.355 . S
C715 C717 1.415 . S
C716 C715 1.355 . S
C716 C718 1.419 . S
C717 C712 1.425 . S
C717 C714 1.409 . S
C717 C715 1.415 . S
C718 H708 0.930 . S
C718 C716 1.419 . S
C718 C719 1.362 . S
C719 H709 0.930 . S
C719 C712 1.409 . S
C719 C718 1.362 . S
H720 C726 0.930 . S
H721 C729 0.930 . S
H722 C730 0.930 . S
H723 C731 0.930 . S
H724 C734 0.953 . S
H725 C735 0.930 . S
C726 H720 0.930 . S
C726 C727 1.355 . S
C726 C728 1.415 . S
C727 C726 1.355 . S
C727 C729 1.419 . S
C728 C726 1.415 . S
C728 C733 1.425 . S
C728 C735 1.409 . S
C729 H721 0.930 . S
C729 C727 1.419 . S
C729 C730 1.362 . S
C730 H722 0.930 . S
C730 C729 1.362 . S
C730 C733 1.409 . S
C731 H723 0.930 . S
C731 C732 1.355 . S
C731 C733 1.415 1_565 S
C732 C731 1.355 . S
C732 C734 1.419 . S
C733 C728 1.425 . S
C733 C730 1.409 . S
C733 C731 1.415 1_545 S
C734 H724 0.953 . S
C734 C732 1.419 . S
C734 C735 1.362 1_565 S
C735 H725 0.930 . S
C735 C728 1.409 . S
C735 C734 1.362 1_545 S
H736 C742 0.930 . S
H737 C745 0.930 . S
H738 C746 0.930 . S
H739 C747 0.930 . S
H740 C750 0.930 . S
H741 C751 0.930 . S
C742 H736 0.930 . S
C742 C743 1.355 . S
C742 C744 1.415 . S
C743 C742 1.355 . S
C743 C745 1.419 . S
C744 C742 1.415 . S
C744 C749 1.425 . S
C744 C751 1.409 . S
C745 H737 0.930 . S
C745 C743 1.419 . S
C745 C746 1.362 . S
C746 H738 0.930 . S
C746 C745 1.362 . S
C746 C749 1.409 . S
C747 H739 0.930 . S
C747 C748 1.355 . S
C747 C749 1.415 . S
C748 C747 1.355 . S
C748 C750 1.419 . S
C749 C744 1.425 . S
C749 C746 1.409 . S
C749 C747 1.415 . S
C750 H740 0.930 . S
C750 C748 1.419 . S
C750 C751 1.362 . S
C751 H741 0.930 . S
C751 C744 1.409 . S
C751 C750 1.362 . S
H752 C758 0.930 . S
H753 C761 0.930 . S
H754 C762 0.927 1_565 S
H755 C763 0.930 . S
H756 C766 0.930 . S
H757 C767 0.930 . S
C758 H752 0.930 . S
C758 C759 1.355 . S
C758 C760 1.415 1_545 S
C759 C758 1.355 . S
C759 C761 1.419 . S
C760 C758 1.415 1_565 S
C760 C765 1.425 . S
C760 C767 1.409 . S
C761 H753 0.930 . S
C761 C759 1.419 . S
C761 C762 1.372 . S
C762 H754 0.927 1_545 S
C762 C761 1.372 . S
C762 C765 1.402 1_545 S
C763 H755 0.930 . S
C763 C764 1.355 . S
C763 C765 1.415 . S
C764 C763 1.355 . S
C764 C766 1.419 . S
C765 C760 1.425 . S
C765 C762 1.402 1_565 S
C765 C763 1.415 . S
C766 H756 0.930 . S
C766 C764 1.419 . S
C766 C767 1.362 . S
C767 H757 0.930 . S
C767 C760 1.409 . S
C767 C766 1.362 . S
H768 C774 0.930 . S
H769 C777 0.930 . S
H770 C778 0.930 . S
H771 C779 0.930 . S
H772 C782 0.930 . S
H773 C783 0.930 . S
C774 H768 0.930 . S
C774 C775 1.355 . S
C774 C776 1.415 . S
C775 C774 1.355 . S
C775 C777 1.419 . S
C776 C774 1.415 . S
C776 C781 1.425 . S
C776 C783 1.409 . S
C777 H769 0.930 . S
C777 C775 1.419 . S
C777 C778 1.362 . S
C778 H770 0.930 . S
C778 C777 1.362 . S
C778 C781 1.409 . S
C779 H771 0.930 . S
C779 C780 1.355 . S
C779 C781 1.415 . S
C780 C779 1.355 . S
C780 C782 1.419 . S
C781 C776 1.425 . S
C781 C778 1.409 . S
C781 C779 1.415 . S
C782 H772 0.930 . S
C782 C780 1.419 . S
C782 C783 1.362 . S
C783 H773 0.930 . S
C783 C776 1.409 . S
C783 C782 1.362 . S
H784 C790 0.930 . S
H785 C793 0.930 . S
H786 C794 0.930 . S
H787 C795 0.930 . S
H788 C798 0.930 . S
H789 C799 0.930 . S
C790 H784 0.930 . S
C790 C791 1.355 . S
C790 C792 1.415 . S
C791 C790 1.355 . S
C791 C793 1.419 . S
C792 C790 1.415 . S
C792 C797 1.425 . S
C792 C799 1.409 . S
C793 H785 0.930 . S
C793 C791 1.419 . S
C793 C794 1.362 . S
C794 H786 0.930 . S
C794 C793 1.362 . S
C794 C797 1.409 . S
C795 H787 0.930 . S
C795 C796 1.355 . S
C795 C797 1.415 . S
C796 C795 1.355 . S
C796 C798 1.419 . S
C797 C792 1.425 . S
C797 C794 1.409 . S
C797 C795 1.415 . S
C798 H788 0.930 . S
C798 C796 1.419 . S
C798 C799 1.362 . S
C799 H789 0.930 . S
C799 C792 1.409 . S
C799 C798 1.362 . S
H800 C806 0.930 . S
H801 C809 0.930 . S
H802 C810 0.930 . S
H803 C811 0.930 . S
H804 C814 0.930 . S
H805 C815 0.930 . S
C806 H800 0.930 . S
C806 C807 1.355 . S
C806 C808 1.415 . S
C807 C806 1.355 . S
C807 C809 1.419 . S
C808 C806 1.415 . S
C808 C813 1.425 . S
C808 C815 1.409 . S
C809 H801 0.930 . S
C809 C807 1.419 . S
C809 C810 1.362 . S
C810 H802 0.930 . S
C810 C809 1.362 . S
C810 C813 1.409 . S
C811 H803 0.930 . S
C811 C812 1.355 . S
C811 C813 1.415 . S
C812 C811 1.355 . S
C812 C814 1.419 . S
C813 C808 1.425 . S
C813 C810 1.409 . S
C813 C811 1.415 . S
C814 H804 0.930 . S
C814 C812 1.419 . S
C814 C815 1.362 . S
C815 H805 0.930 . S
C815 C808 1.409 . S
C815 C814 1.362 . S
H816 C822 0.930 . S
H817 C825 0.930 . S
H818 C826 0.930 . S
H819 C827 0.930 . S
H820 C830 0.930 . S
H821 C831 0.930 . S
C822 H816 0.930 . S
C822 C823 1.355 . S
C822 C824 1.415 . S
C823 C822 1.355 . S
C823 C825 1.419 . S
C824 C822 1.415 . S
C824 C829 1.425 . S
C824 C831 1.409 . S
C825 H817 0.930 . S
C825 C823 1.419 . S
C825 C826 1.362 . S
C826 H818 0.930 . S
C826 C825 1.362 . S
C826 C829 1.409 . S
C827 H819 0.930 . S
C827 C828 1.355 . S
C827 C829 1.415 . S
C828 C827 1.355 . S
C828 C830 1.419 . S
C829 C824 1.425 . S
C829 C826 1.409 . S
C829 C827 1.415 . S
C830 H820 0.930 . S
C830 C828 1.419 . S
C830 C831 1.362 . S
C831 H821 0.930 . S
C831 C824 1.409 . S
C831 C830 1.362 . S
H832 C838 0.930 . S
H833 C841 0.930 . S
H834 C842 0.930 . S
H835 C843 0.930 . S
H836 C846 0.930 . S
H837 C847 0.930 . S
C838 H832 0.930 . S
C838 C839 1.355 . S
C838 C840 1.415 . S
C839 C838 1.355 . S
C839 C841 1.419 . S
C840 C838 1.415 . S
C840 C845 1.425 . S
C840 C847 1.409 . S
C841 H833 0.930 . S
C841 C839 1.419 . S
C841 C842 1.362 . S
C842 H834 0.930 . S
C842 C841 1.362 . S
C842 C845 1.409 . S
C843 H835 0.930 . S
C843 C844 1.355 . S
C843 C845 1.415 . S
C844 C843 1.355 . S
C844 C846 1.419 . S
C845 C840 1.425 . S
C845 C842 1.409 . S
C845 C843 1.415 . S
C846 H836 0.930 . S
C846 C844 1.419 . S
C846 C847 1.362 . S
C847 H837 0.930 . S
C847 C840 1.409 . S
C847 C846 1.362 . S
H848 C854 0.930 . S
H849 C857 0.930 . S
H850 C858 0.930 . S
H851 C859 0.930 . S
H852 C862 0.930 . S
H853 C863 0.930 . S
C854 H848 0.930 . S
C854 C855 1.355 . S
C854 C856 1.415 . S
C855 C854 1.355 . S
C855 C857 1.419 . S
C856 C854 1.415 . S
C856 C861 1.425 . S
C856 C863 1.409 . S
C857 H849 0.930 . S
C857 C855 1.419 . S
C857 C858 1.362 . S
C858 H850 0.930 . S
C858 C857 1.362 . S
C858 C861 1.409 . S
C859 H851 0.930 . S
C859 C860 1.355 . S
C859 C861 1.415 . S
C860 C859 1.355 . S
C860 C862 1.419 . S
C861 C856 1.425 . S
C861 C858 1.409 . S
C861 C859 1.415 . S
C862 H852 0.930 . S
C862 C860 1.419 . S
C862 C863 1.362 . S
C863 H853 0.930 . S
C863 C856 1.409 . S
C863 C862 1.362 . S
H864 C870 0.930 . S
H865 C873 0.930 . S
H866 C874 0.930 . S
H867 C875 0.930 . S
H868 C878 0.930 . S
H869 C879 0.930 . S
C870 H864 0.930 . S
C870 C871 1.355 . S
C870 C872 1.415 . S
C871 C870 1.355 . S
C871 C873 1.419 . S
C872 C870 1.415 . S
C872 C877 1.425 . S
C872 C879 1.409 1_455 S
C873 H865 0.930 . S
C873 C871 1.419 . S
C873 C874 1.362 . S
C874 H866 0.930 . S
C874 C873 1.362 . S
C874 C877 1.409 . S
C875 H867 0.930 . S
C875 C876 1.355 . S
C875 C877 1.415 1_655 S
C876 C875 1.355 . S
C876 C878 1.419 . S
C877 C872 1.425 . S
C877 C874 1.409 . S
C877 C875 1.415 1_455 S
C878 H868 0.930 . S
C878 C876 1.419 . S
C878 C879 1.362 . S
C879 H869 0.930 . S
C879 C872 1.409 1_655 S
C879 C878 1.362 . S
H880 C886 0.930 . S
H881 C889 0.930 . S
H882 C890 0.930 . S
H883 C891 0.930 . S
H884 C894 0.930 . S
H885 C895 0.930 . S
C886 H880 0.930 . S
C886 C887 1.355 . S
C886 C888 1.415 . S
C887 C886 1.355 . S
C887 C889 1.419 . S
C888 C886 1.415 . S
C888 C893 1.425 . S
C888 C895 1.409 . S
C889 H881 0.930 . S
C889 C887 1.419 . S
C889 C890 1.362 . S
C890 H882 0.930 . S
C890 C889 1.362 . S
C890 C893 1.409 . S
C891 H883 0.930 . S
C891 C892 1.355 . S
C891 C893 1.415 . S
C892 C891 1.355 . S
C892 C894 1.419 . S
C893 C888 1.425 . S
C893 C890 1.409 . S
C893 C891 1.415 . S
C894 H884 0.930 . S
C894 C892 1.419 . S
C894 C895 1.362 . S
C895 H885 0.930 . S
C895 C888 1.409 . S
C895 C894 1.362 . S
H896 C902 0.930 . S
H897 C905 0.930 . S
H898 C906 0.930 . S
H899 C907 0.930 . S
H900 C910 0.930 . S
H901 C911 0.930 . S
C902 H896 0.930 . S
C902 C903 1.355 . S
C902 C904 1.415 . S
C903 C902 1.355 . S
C903 C905 1.419 . S
C904 C902 1.415 . S
C904 C909 1.425 . S
C904 C911 1.409 . S
C905 H897 0.930 . S
C905 C903 1.419 . S
C905 C906 1.362 . S
C906 H898 0.930 . S
C906 C905 1.362 . S
C906 C909 1.409 . S
C907 H899 0.930 . S
C907 C908 1.355 . S
C907 C909 1.415 . S
C908 C907 1.355 . S
C908 C910 1.419 . S
C909 C904 1.425 . S
C909 C906 1.409 . S
C909 C907 1.415 . S
C910 H900 0.930 . S
C910 C908 1.419 . S
C910 C911 1.362 . S
C911 H901 0.930 . S
C911 C904 1.409 . S
C911 C910 1.362 . S
H912 C918 0.930 . S
H913 C921 0.930 . S
H914 C922 0.930 . S
H915 C923 0.930 . S
H916 C926 0.930 . S
H917 C927 0.930 . S
C918 H912 0.930 . S
C918 C919 1.355 . S
C918 C920 1.415 . S
C919 C918 1.355 . S
C919 C921 1.419 . S
C920 C918 1.415 . S
C920 C925 1.425 . S
C920 C927 1.409 . S
C921 H913 0.930 . S
C921 C919 1.419 . S
C921 C922 1.362 . S
C922 H914 0.930 . S
C922 C921 1.362 . S
C922 C925 1.409 . S
C923 H915 0.930 . S
C923 C924 1.355 . S
C923 C925 1.415 . S
C924 C923 1.355 . S
C924 C926 1.419 . S
C925 C920 1.425 . S
C925 C922 1.409 . S
C925 C923 1.415 . S
C926 H916 0.930 . S
C926 C924 1.419 . S
C926 C927 1.362 . S
C927 H917 0.930 . S
C927 C920 1.409 . S
C927 C926 1.362 . S
H928 C934 0.930 . S
H929 C937 0.930 . S
H930 C938 0.930 . S
H931 C939 0.930 . S
H932 C942 0.930 . S
H933 C943 0.930 . S
C934 H928 0.930 . S
C934 C935 1.355 . S
C934 C936 1.415 . S
C935 C934 1.355 . S
C935 C937 1.419 . S
C936 C934 1.415 . S
C936 C941 1.425 . S
C936 C943 1.409 . S
C937 H929 0.930 . S
C937 C935 1.419 . S
C937 C938 1.362 . S
C938 H930 0.930 . S
C938 C937 1.362 . S
C938 C941 1.409 . S
C939 H931 0.930 . S
C939 C940 1.355 . S
C939 C941 1.415 . S
C940 C939 1.355 . S
C940 C942 1.419 . S
C941 C936 1.425 . S
C941 C938 1.409 . S
C941 C939 1.415 . S
C942 H932 0.930 . S
C942 C940 1.419 . S
C942 C943 1.362 . S
C943 H933 0.930 . S
C943 C936 1.409 . S
C943 C942 1.362 . S
H944 C950 0.930 . S
H945 C953 0.930 . S
H946 C954 0.930 1_455 S
H947 C955 0.930 . S
H948 C958 0.930 . S
H949 C959 0.930 . S
C950 H944 0.930 . S
C950 C951 1.355 . S
C950 C952 1.415 . S
C951 C950 1.355 . S
C951 C953 1.419 . S
C952 C950 1.415 . S
C952 C957 1.420 1_655 S
C952 C959 1.409 . S
C953 H945 0.930 . S
C953 C951 1.419 . S
C953 C954 1.362 . S
C954 H946 0.930 1_655 S
C954 C953 1.362 . S
C954 C957 1.408 1_655 S
C955 H947 0.930 . S
C955 C956 1.355 . S
C955 C957 1.420 . S
C956 C955 1.355 . S
C956 C958 1.419 . S
C957 C952 1.420 1_455 S
C957 C954 1.408 1_455 S
C957 C955 1.420 . S
C958 H948 0.930 . S
C958 C956 1.419 . S
C958 C959 1.362 1_455 S
C959 H949 0.930 . S
C959 C952 1.409 . S
C959 C958 1.362 1_655 S
C391 C4 1.382 . S
C396 C356 1.436 . S
C407 C292 1.459 . S
C412 C36 1.403 . S
C423 C93 1.373 . S
C428 C260 1.384 . S
C439 C100 1.386 . S
C444 C324 1.441 . S
C455 C132 1.372 . S
C460 C349 1.387 . S
C471 C189 1.389 . S
C476 C381 1.445 . S
C487 C317 1.397 . S
C492 C196 1.370 . S
C503 C253 1.385 . S
C508 C285 1.373 . S
C519 C125 1.373 . S
C524 C157 1.418 . S
C535 C29 1.422 . S
C540 C164 1.471 . S
C551 C61 1.476 . S
C556 C221 1.466 . S
C567 C228 1.375 . S
C572 C68 1.422 . S
C583 N18 1.328 . S
C588 C262 1.333 . S
C599 N50 1.312 . S
C604 C326 1.324 . S
C615 C358 1.332 . S
C620 N77 1.324 . S
C631 N114 1.312 . S
C636 C294 1.325 . S
C647 N146 1.322 . S
C652 C290 1.331 . S
C663 C258 1.329 . S
C668 N173 1.335 . S
C679 C322 1.323 . S
C684 N210 1.322 . S
C695 C354 1.325 . S
C700 N237 1.312 . S
C711 C2 1.324 . S
C716 N109 1.312 . S
C727 N13 1.326 . S
C732 C34 1.333 . S
C743 N45 1.337 . S
C748 C70 1.332 . S
C759 C98 1.324 . S
C764 N82 1.324 . S
C775 N178 1.337 . S
C780 C130 1.332 . S
C791 C166 1.326 . S
C796 N205 1.313 . S
C807 C194 1.332 . S
C812 N242 1.337 . S
C823 N141 1.312 . S
C828 C230 1.325 . S
C839 N269 1.333 . S
C844 C102 1.327 . S
C855 C162 1.330 . S
C860 N306 1.318 . S
C871 N274 1.325 . S
C876 C198 1.324 . S
C887 N338 1.336 . S
C892 C226 1.329 . S
C903 C134 1.324 . S
C908 N370 1.312 . S
C919 N365 1.316 . S
C924 C38 1.323 . S
C935 C66 1.324 . S
C940 N301 1.312 . S
C951 N333 1.314 . S
C956 C6 1.327 . S
