# Generated by pormake.
# Topology mmt, (4)-cn, num edge types: 1
# Building blocks:
#     Node 0, Type 0, BuildingBlock: QUQFOY_clean_sbu_3, # of connection points: 4
#     Node 1, Type 0, BuildingBlock: QUQFOY_clean_sbu_3, # of connection points: 4
#     Node 2, Type 0, BuildingBlock: QUQFOY_clean_sbu_3, # of connection points: 4
#     Node 3, Type 0, BuildingBlock: QUQFOY_clean_sbu_3, # of connection points: 4
#     Node 4, Type 0, BuildingBlock: QUQFOY_clean_sbu_3, # of connection points: 4
#     Node 5, Type 0, BuildingBlock: QUQFOY_clean_sbu_3, # of connection points: 4
#     Node 6, Type 0, BuildingBlock: QUQFOY_clean_sbu_3, # of connection points: 4
#     Node 7, Type 0, BuildingBlock: QUQFOY_clean_sbu_3, # of connection points: 4
#     Edge 8, Type (0, 0), BuildingBlock: AJUNOK_clean_linker_0, # of connection points: 2
#     Edge 9, Type (0, 0), BuildingBlock: AJUNOK_clean_linker_0, # of connection points: 2
#     Edge 10, Type (0, 0), BuildingBlock: AJUNOK_clean_linker_0, # of connection points: 2
#     Edge 11, Type (0, 0), BuildingBlock: AJUNOK_clean_linker_0, # of connection points: 2
#     Edge 12, Type (0, 0), BuildingBlock: AJUNOK_clean_linker_0, # of connection points: 2
#     Edge 13, Type (0, 0), BuildingBlock: AJUNOK_clean_linker_0, # of connection points: 2
#     Edge 14, Type (0, 0), BuildingBlock: AJUNOK_clean_linker_0, # of connection points: 2
#     Edge 15, Type (0, 0), BuildingBlock: AJUNOK_clean_linker_0, # of connection points: 2
#     Edge 16, Type (0, 0), BuildingBlock: AJUNOK_clean_linker_0, # of connection points: 2
#     Edge 17, Type (0, 0), BuildingBlock: AJUNOK_clean_linker_0, # of connection points: 2
#     Edge 18, Type (0, 0), BuildingBlock: AJUNOK_clean_linker_0, # of connection points: 2
#     Edge 19, Type (0, 0), BuildingBlock: AJUNOK_clean_linker_0, # of connection points: 2
#     Edge 20, Type (0, 0), BuildingBlock: AJUNOK_clean_linker_0, # of connection points: 2
#     Edge 21, Type (0, 0), BuildingBlock: AJUNOK_clean_linker_0, # of connection points: 2
#     Edge 22, Type (0, 0), BuildingBlock: AJUNOK_clean_linker_0, # of connection points: 2
#     Edge 23, Type (0, 0), BuildingBlock: AJUNOK_clean_linker_0, # of connection points: 2
# Relax obj value: 0.025
# Max RMSD: 0.041
# Mean RMSD: 0.041
data_MOF--net-mmt--node1-QUQFOY_clean_sbu_3--edge1-AJUNOK_clean_linker_0
_symmetry_space_group_name_H-M    P1
_symmetry_Int_Tables_number       1
_symmetry_cell_setting            triclinic
loop_
_symmetry_equiv_pos_as_xyz
'x, y, z'
_cell_length_a     17.121749
_cell_length_b     28.733388
_cell_length_c     35.128196
_cell_angle_alpha  90.465951
_cell_angle_beta   90.520096
_cell_angle_gamma 89.388255
loop_
_atom_site_label
_atom_site_type_symbol
_atom_site_fract_x
_atom_site_fract_y
_atom_site_fract_z
_atom_type_partial_charge
C0 C 0.11755 0.66525 0.31955 0.0
O1 O 0.07569 0.66866 0.28965 0.0
Cd2 Cd 0.00445 0.6042 0.262 0.0
O3 O 0.11579 0.62874 0.33975 0.0
Cd4 Cd 0.0424 0.55511 0.34011 0.0
C5 C 0.15233 0.52298 0.26542 0.0
O6 O 0.91841 0.56955 0.30601 0.0
O7 O 0.95947 0.49823 0.31101 0.0
O8 O -0.00517 0.5651 0.40471 0.0
C9 C 0.90615 0.52639 0.30059 0.0
O10 O 0.10481 0.54677 0.24512 0.0
C11 C 0.02505 0.52757 0.41719 0.0
O12 O 0.14727 0.5224 0.30158 0.0
O13 O 0.06711 0.50419 0.39414 0.0
C14 C 0.35612 0.80506 0.32387 0.0
O15 O 0.40994 0.79585 0.30035 0.0
Cd16 Cd 0.47136 0.85935 0.26905 0.0
O17 O 0.34794 0.84611 0.33728 0.0
Cd18 Cd 0.42567 0.91926 0.33637 0.0
C19 C 0.31713 0.93807 0.26015 0.0
O20 O 0.55538 0.90439 0.30875 0.0
O21 O 0.50012 0.97117 0.29781 0.0
O22 O 0.47137 0.91569 0.40219 0.0
C23 C 0.56045 0.94539 0.29574 0.0
O24 O 0.36372 0.90841 0.24515 0.0
C25 C 0.44194 0.95458 0.41227 0.0
O26 O 0.3232 0.94917 0.29521 0.0
O27 O 0.40203 0.97628 0.38726 0.0
C28 C 0.62167 0.30784 0.15014 0.0
O29 O 0.57145 0.29945 0.1754 0.0
Cd30 Cd 0.50677 0.36279 0.20723 0.0
O31 O 0.62555 0.34817 0.13549 0.0
Cd32 Cd 0.54408 0.42115 0.13767 0.0
C33 C 0.65386 0.44493 0.21284 0.0
O34 O 0.41806 0.40526 0.16802 0.0
O35 O 0.46849 0.47336 0.17682 0.0
O36 O 0.49123 0.41688 0.07333 0.0
C37 C 0.4109 0.44658 0.18078 0.0
O38 O 0.61088 0.41499 0.22885 0.0
C39 C 0.51863 0.45533 0.06233 0.0
O40 O 0.6458 0.45394 0.17757 0.0
O41 O 0.56156 0.47717 0.08603 0.0
C42 C 0.85542 0.16263 0.15354 0.0
O43 O 0.89785 0.16528 0.18329 0.0
Cd44 Cd 0.96589 0.09964 0.21136 0.0
O45 O 0.85344 0.1252 0.13392 0.0
Cd46 Cd 0.923 0.04887 0.13554 0.0
C47 C 0.81681 0.02123 0.21166 0.0
O48 O 0.05021 0.06107 0.16768 0.0
O49 O 0.00328 -0.00865 0.16603 0.0
O50 O 0.97061 0.05275 0.0706 0.0
C51 C 0.06001 0.01781 0.17379 0.0
O52 O 0.86616 0.04477 0.23088 0.0
C53 C 0.9397 0.01491 0.05954 0.0
O54 O 0.8186 0.01992 0.1754 0.0
O55 O 0.89641 -0.00547 0.08326 0.0
C56 C 0.85924 0.30507 0.65613 0.0
O57 O 0.90436 0.29868 0.68449 0.0
Cd58 Cd 0.9773 0.3615 0.71288 0.0
O59 O 0.85996 0.34329 0.63814 0.0
Cd60 Cd 0.93754 0.41537 0.64087 0.0
C61 C 0.83123 0.44393 0.71622 0.0
O62 O 0.06517 0.39816 0.6706 0.0
O63 O 0.01577 0.46714 0.67891 0.0
O64 O 0.98359 0.41207 0.57553 0.0
C65 C 0.07408 0.43986 0.68201 0.0
O66 O 0.88009 0.41901 0.73481 0.0
C67 C 0.9547 0.45124 0.56602 0.0
O68 O 0.833 0.44591 0.68005 0.0
O69 O 0.91469 0.47273 0.59102 0.0
C70 C 0.61236 0.171 0.65566 0.0
O71 O 0.56312 0.18008 0.68149 0.0
Cd72 Cd 0.49286 0.11878 0.71124 0.0
O73 O 0.61476 0.13092 0.63997 0.0
Cd74 Cd 0.53183 0.06017 0.64067 0.0
C75 C 0.6363 0.03255 0.71703 0.0
O76 O 0.40493 0.08028 0.66931 0.0
O77 O 0.45042 0.01046 0.67761 0.0
O78 O 0.48436 0.06793 0.57559 0.0
C79 C 0.39418 0.03916 0.68103 0.0
O80 O 0.59203 0.06265 0.73306 0.0
C81 C 0.50985 0.02875 0.56396 0.0
O82 O 0.63107 0.02488 0.68132 0.0
O83 O 0.54864 0.00458 0.58786 0.0
C84 C 0.36269 0.66729 0.80181 0.0
O85 O 0.40183 0.66136 0.77159 0.0
Cd86 Cd 0.48481 0.59667 0.75474 0.0
O87 O 0.36796 0.63783 0.82868 0.0
Cd88 Cd 0.43965 0.5621 0.83528 0.0
C89 C 0.33871 0.51864 0.76068 0.0
O90 O 0.56761 0.5716 0.80551 0.0
O91 O 0.52022 0.5023 0.8064 0.0
O92 O 0.48295 0.56962 0.90181 0.0
C93 C 0.578 0.52824 0.80021 0.0
O94 O 0.39115 0.53573 0.73962 0.0
C95 C 0.44861 0.53318 0.91284 0.0
O96 O 0.3374 0.52704 0.79634 0.0
O97 O 0.40674 0.51224 0.88824 0.0
C98 C 0.12073 0.81182 0.79843 0.0
O99 O 0.08539 0.81791 0.76686 0.0
Cd100 Cd -0.00336 0.87984 0.74865 0.0
O101 O 0.10995 0.84013 0.82602 0.0
Cd102 Cd 0.0342 0.91413 0.83221 0.0
C103 C 0.1324 0.9631 0.75938 0.0
O104 O 0.90933 0.90083 0.79824 0.0
O105 O 0.94194 0.9718 0.81123 0.0
O106 O -0.0094 0.90085 0.89717 0.0
C107 C 0.89081 0.94378 0.79901 0.0
O108 O 0.08308 0.94426 0.73693 0.0
C109 C 0.01998 0.93795 0.91075 0.0
O110 O 0.13303 0.95425 0.79491 0.0
O111 O 0.0609 0.96185 0.88827 0.0
C112 C 0.20513 0.47502 0.21183 0.0
C113 C 0.2176 0.49874 0.24654 0.0
C114 C 0.2679 0.45576 0.19145 0.0
C115 C 0.3449 0.46107 0.20466 0.0
H116 H 0.14663 0.47196 0.20012 0.0
H117 H 0.25647 0.43856 0.16444 0.0
S118 S 0.40826 0.5189 0.29431 0.0
N119 N 0.31217 0.52466 0.29394 0.0
N120 N 0.43034 0.49 0.25495 0.0
C121 C 0.35793 0.48378 0.23966 0.0
C122 C 0.2941 0.50224 0.26084 0.0
C123 C 0.16722 0.02463 0.2222 0.0
C124 C 0.12989 -0.00101 0.19321 0.0
C125 C 0.22796 0.00469 0.24388 0.0
C126 C 0.25439 0.95895 0.23658 0.0
H127 H 0.14754 0.05963 0.22908 0.0
H128 H 0.25435 0.02519 0.2665 0.0
S129 S 0.17796 0.87837 0.1624 0.0
N130 N 0.12468 0.92622 0.15758 0.0
N131 N 0.23987 0.88916 0.19759 0.0
C132 C 0.219 0.9336 0.20684 0.0
C133 C 0.15642 0.95353 0.18534 0.0
C134 C 0.75025 0.44405 0.26613 0.0
C135 C 0.71527 0.46803 0.23561 0.0
C136 C 0.81075 0.46391 0.28746 0.0
C137 C 0.83741 0.50889 0.27965 0.0
H138 H 0.73224 0.4091 0.273 0.0
H139 H 0.83735 0.44364 0.3101 0.0
S140 S 0.76228 0.58739 0.20419 0.0
N141 N 0.70972 0.53978 0.19934 0.0
N142 N 0.82277 0.57763 0.24022 0.0
C143 C 0.80136 0.53398 0.25005 0.0
C144 C 0.74057 0.51334 0.22775 0.0
C145 C 0.67674 0.00137 0.21808 0.0
C146 C 0.75376 -0.00236 0.23184 0.0
C147 C 0.61456 0.98359 0.23883 0.0
C148 C 0.62768 0.96028 0.27338 0.0
H149 H 0.66411 0.01977 0.19189 0.0
H150 H 0.55565 -0.01155 0.22792 0.0
S151 S 0.81903 0.93841 0.32014 0.0
N152 N 0.84033 0.96765 0.28134 0.0
N153 N 0.72314 0.9324 0.31958 0.0
C154 C 0.7046 0.95448 0.28661 0.0
C155 C 0.76782 0.97373 0.26603 0.0
C156 C 0.62951 0.48316 0.74533 0.0
C157 C 0.64417 0.51013 0.77813 0.0
C158 C 0.69092 0.4632 0.72463 0.0
C159 C 0.76866 0.46845 0.7368 0.0
H160 H 0.57008 0.47736 0.73566 0.0
H161 H 0.67734 0.44227 0.69968 0.0
S162 S 0.83767 0.5366 0.82033 0.0
N163 N 0.74157 0.54266 0.82104 0.0
N164 N 0.85746 0.50324 0.78301 0.0
C165 C 0.78417 0.49562 0.76937 0.0
C166 C 0.72167 0.51708 0.78981 0.0
C167 C 0.73275 0.96698 0.72555 0.0
C168 C 0.69595 0.00742 0.74009 0.0
C169 C 0.79293 0.94445 0.74588 0.0
C170 C 0.81902 0.96211 0.78108 0.0
H171 H 0.71595 0.95304 0.69796 0.0
H172 H 0.82165 0.91445 0.73313 0.0
S173 S 0.73892 0.06422 0.83331 0.0
N174 N 0.68719 0.06197 0.79347 0.0
N175 N 0.80111 0.02004 0.83095 0.0
C176 C 0.78109 0.00127 0.79661 0.0
C177 C 0.71928 0.02382 0.77632 0.0
C178 C 0.19745 0.50117 0.75579 0.0
C179 C 0.27376 0.49318 0.74275 0.0
C180 C 0.13323 0.48268 0.7363 0.0
C181 C 0.14329 0.45453 0.70378 0.0
H182 H 0.18695 0.52367 0.78016 0.0
H183 H 0.07512 0.49108 0.74645 0.0
S184 S 0.33132 0.41972 0.66015 0.0
N185 N 0.3563 0.45343 0.69651 0.0
N186 N 0.23495 0.41709 0.66065 0.0
C187 C 0.2193 0.44418 0.69159 0.0
C188 C 0.2848 0.46402 0.71087 0.0
C189 C 0.27278 0.98302 0.75645 0.0
C190 C 0.19622 -0.01001 0.74281 0.0
C191 C 0.33655 0.00056 0.73678 0.0
C192 C 0.32572 0.02672 0.70348 0.0
H193 H 0.28388 0.96151 0.78115 0.0
H194 H 0.39493 -0.00741 0.74718 0.0
S195 S 0.13679 0.05921 0.65852 0.0
N196 N 0.11264 0.02741 0.69551 0.0
N197 N 0.23315 0.062 0.65934 0.0
C198 C 0.24947 0.03665 0.69096 0.0
C199 C 0.18445 0.01778 0.71044 0.0
C200 C 0.03992 0.46722 0.46767 0.0
C201 C 0.00811 0.51014 0.45587 0.0
C202 C 0.02149 0.44834 0.50306 0.0
C203 C 0.97052 0.47159 0.52822 0.0
H204 H 0.07903 0.44767 0.44932 0.0
H205 H 0.04783 0.41524 0.51073 0.0
S206 S 0.87138 0.58521 0.51112 0.0
N207 N 0.92297 0.57554 0.47234 0.0
N208 N 0.88849 0.54008 0.53886 0.0
C209 C 0.93841 0.51467 0.5169 0.0
C210 C 0.95721 0.53394 0.48079 0.0
C211 C 0.50195 0.94877 0.47733 0.0
C212 C 0.45667 0.97421 0.4509 0.0
C213 C 0.51944 0.96687 0.51355 0.0
C214 C 0.49251 0.01124 0.52491 0.0
H215 H 0.52447 0.9145 0.47004 0.0
H216 H 0.55424 0.94572 0.53281 0.0
S217 S 0.37181 0.09227 0.4664 0.0
N218 N 0.38526 0.0463 0.43866 0.0
N219 N 0.41807 0.08034 0.50662 0.0
C220 C 0.44715 0.03715 0.49876 0.0
C221 C 0.42922 0.01864 0.46185 0.0
C222 C 0.53268 0.51656 0.01244 0.0
C223 C 0.49913 0.4746 0.02423 0.0
C224 C 0.51446 0.53584 0.97684 0.0
C225 C 0.46176 0.51404 0.95157 0.0
H226 H 0.57381 0.53465 0.03074 0.0
H227 H 0.54287 0.56779 0.96893 0.0
S228 S 0.35531 0.40442 0.96929 0.0
N229 N 0.40881 0.41248 0.00805 0.0
N230 N 0.37453 0.44867 0.94138 0.0
C231 C 0.42676 0.47245 0.96325 0.0
C232 C 0.44549 0.45274 -0.00055 0.0
C233 C 0.0291 -0.00115 0.96174 0.0
C234 C 0.00166 0.9551 0.94967 0.0
C235 C 0.0077 0.01804 -0.00305 0.0
C236 C 0.95789 -0.00565 0.02168 0.0
H237 H 0.06677 0.01891 0.94366 0.0
H238 H 0.03064 0.05181 0.00478 0.0
S239 S 0.87124 0.87807 0.00415 0.0
N240 N 0.92284 0.88814 0.96567 0.0
N241 N 0.88274 0.92417 0.03189 0.0
C242 C 0.93047 0.95033 0.01019 0.0
C243 C 0.95239 0.93072 0.97426 0.0
C244 C 0.15798 0.74851 0.32377 0.0
C245 C 0.17683 0.70105 0.32759 0.0
C246 C 0.2162 0.78251 0.32574 0.0
C247 C 0.29542 0.76995 0.33029 0.0
H248 H 0.09818 0.7593 0.31814 0.0
H249 H 0.19963 0.81856 0.32123 0.0
S250 S 0.37483 0.65057 0.34291 0.0
N251 N 0.27962 0.64343 0.33822 0.0
N252 N 0.38928 0.70719 0.34012 0.0
C253 C 0.31467 0.72279 0.33529 0.0
C254 C 0.25524 0.68835 0.33442 0.0
C255 C 0.72075 0.19049 0.13772 0.0
C256 C 0.79962 0.20087 0.14513 0.0
C257 C 0.66332 0.22572 0.13727 0.0
C258 C 0.68326 0.27263 0.14282 0.0
H259 H 0.70252 0.15463 0.1348 0.0
H260 H 0.60262 0.21608 0.13395 0.0
S261 S 0.88234 0.31841 0.15968 0.0
N262 N 0.89518 0.26147 0.1561 0.0
N263 N 0.78777 0.32792 0.15347 0.0
C264 C 0.7625 0.28373 0.14768 0.0
C265 C 0.8206 0.24776 0.14932 0.0
C266 C 0.7528 0.19054 0.64865 0.0
C267 C 0.67404 0.20505 0.64808 0.0
C268 C 0.8133 0.22313 0.64946 0.0
C269 C 0.79693 0.27113 0.64837 0.0
H270 H 0.76768 0.15392 0.65102 0.0
H271 H 0.87309 0.21078 0.6522 0.0
S272 S 0.6005 0.32663 0.64354 0.0
N273 N 0.58295 0.27023 0.64468 0.0
N274 N 0.69655 0.33147 0.64443 0.0
C275 C 0.71855 0.28589 0.64535 0.0
C276 C 0.65705 0.25281 0.64569 0.0
C277 C 0.27635 0.72456 0.76849 0.0
C278 C 0.30331 0.70543 0.80302 0.0
C279 C 0.21645 0.75798 0.76756 0.0
C280 C 0.18132 0.77453 0.80116 0.0
H281 H 0.30057 0.71302 0.74159 0.0
H282 H 0.19837 0.77139 0.74009 0.0
S283 S 0.23108 0.73672 0.8993 0.0
N284 N 0.29024 0.7057 0.87192 0.0
N285 N 0.17852 0.76967 0.87023 0.0
C286 C 0.20817 0.75631 0.83606 0.0
C287 C 0.26874 0.72148 0.83698 0.0
loop_
_geom_bond_atom_site_label_1
_geom_bond_atom_site_label_2
_geom_bond_distance
_geom_bond_site_symmetry_2
_ccdc_geom_bond_type
C0 O1 1.306 . S
C0 O3 1.160 . S
O1 C0 1.306 . S
O1 Cd2 2.228 . S
Cd2 O1 2.228 . S
Cd2 O6 2.273 . S
Cd2 O10 2.277 . S
O3 C0 1.160 . S
O3 Cd4 2.203 . S
Cd4 O3 2.203 . S
Cd4 O6 2.411 . S
Cd4 O7 2.333 . S
Cd4 O8 2.352 . S
Cd4 O12 2.277 . S
Cd4 O13 2.356 . S
C5 O10 1.209 . S
C5 O12 1.226 . S
O6 Cd2 2.273 . S
O6 Cd4 2.411 . S
O6 C9 1.320 . S
O7 Cd4 2.333 . S
O7 C9 1.214 . S
O8 Cd4 2.352 . S
O8 C11 1.258 . S
C9 O6 1.320 . S
C9 O7 1.214 . S
O10 Cd2 2.277 . S
O10 C5 1.209 . S
C11 O8 1.258 . S
C11 O13 1.282 . S
O12 Cd4 2.277 . S
O12 C5 1.226 . S
O13 Cd4 2.356 . S
O13 C11 1.282 . S
C14 O15 1.306 . S
C14 O17 1.160 . S
O15 C14 1.306 . S
O15 Cd16 2.228 . S
Cd16 O15 2.228 . S
Cd16 O20 2.273 . S
Cd16 O24 2.277 . S
O17 C14 1.160 . S
O17 Cd18 2.203 . S
Cd18 O17 2.203 . S
Cd18 O20 2.411 . S
Cd18 O21 2.333 1_565 S
Cd18 O22 2.352 . S
Cd18 O26 2.277 . S
Cd18 O27 2.356 . S
C19 O24 1.209 . S
C19 O26 1.226 . S
O20 Cd16 2.273 . S
O20 Cd18 2.411 . S
O20 C23 1.320 . S
O21 Cd18 2.333 1_545 S
O21 C23 1.214 1_545 S
O22 Cd18 2.352 . S
O22 C25 1.258 . S
C23 O20 1.320 . S
C23 O21 1.214 1_565 S
O24 Cd16 2.277 . S
O24 C19 1.209 . S
C25 O22 1.258 . S
C25 O27 1.282 . S
O26 Cd18 2.277 . S
O26 C19 1.226 . S
O27 Cd18 2.356 . S
O27 C25 1.282 . S
C28 O29 1.306 . S
C28 O31 1.160 . S
O29 C28 1.306 . S
O29 Cd30 2.228 . S
Cd30 O29 2.228 . S
Cd30 O34 2.273 . S
Cd30 O38 2.277 . S
O31 C28 1.160 . S
O31 Cd32 2.203 . S
Cd32 O31 2.203 . S
Cd32 O34 2.411 . S
Cd32 O35 2.333 . S
Cd32 O36 2.352 . S
Cd32 O40 2.277 . S
Cd32 O41 2.356 . S
C33 O38 1.209 . S
C33 O40 1.226 . S
O34 Cd30 2.273 . S
O34 Cd32 2.411 . S
O34 C37 1.320 . S
O35 Cd32 2.333 . S
O35 C37 1.214 . S
O36 Cd32 2.352 . S
O36 C39 1.258 . S
C37 O34 1.320 . S
C37 O35 1.214 . S
O38 Cd30 2.277 . S
O38 C33 1.209 . S
C39 O36 1.258 . S
C39 O41 1.282 . S
O40 Cd32 2.277 . S
O40 C33 1.226 . S
O41 Cd32 2.356 . S
O41 C39 1.282 . S
C42 O43 1.306 . S
C42 O45 1.160 . S
O43 C42 1.306 . S
O43 Cd44 2.228 . S
Cd44 O43 2.228 . S
Cd44 O48 2.273 . S
Cd44 O52 2.277 . S
O45 C42 1.160 . S
O45 Cd46 2.203 . S
Cd46 O45 2.203 . S
Cd46 O48 2.411 . S
Cd46 O49 2.333 1_545 S
Cd46 O50 2.352 . S
Cd46 O54 2.277 . S
Cd46 O55 2.356 . S
C47 O52 1.209 . S
C47 O54 1.226 . S
O48 Cd44 2.273 . S
O48 Cd46 2.411 . S
O48 C51 1.320 . S
O49 Cd46 2.333 1_565 S
O49 C51 1.214 1_565 S
O50 Cd46 2.352 . S
O50 C53 1.258 . S
C51 O48 1.320 . S
C51 O49 1.214 1_545 S
O52 Cd44 2.277 . S
O52 C47 1.209 . S
C53 O50 1.258 . S
C53 O55 1.282 . S
O54 Cd46 2.277 . S
O54 C47 1.226 . S
O55 Cd46 2.356 . S
O55 C53 1.282 . S
C56 O57 1.306 . S
C56 O59 1.160 . S
O57 C56 1.306 . S
O57 Cd58 2.228 . S
Cd58 O57 2.228 . S
Cd58 O62 2.273 . S
Cd58 O66 2.277 . S
O59 C56 1.160 . S
O59 Cd60 2.203 . S
Cd60 O59 2.203 . S
Cd60 O62 2.411 . S
Cd60 O63 2.333 . S
Cd60 O64 2.352 . S
Cd60 O68 2.277 . S
Cd60 O69 2.356 . S
C61 O66 1.209 . S
C61 O68 1.226 . S
O62 Cd58 2.273 . S
O62 Cd60 2.411 . S
O62 C65 1.320 . S
O63 Cd60 2.333 . S
O63 C65 1.214 . S
O64 Cd60 2.352 . S
O64 C67 1.258 . S
C65 O62 1.320 . S
C65 O63 1.214 . S
O66 Cd58 2.277 . S
O66 C61 1.209 . S
C67 O64 1.258 . S
C67 O69 1.282 . S
O68 Cd60 2.277 . S
O68 C61 1.226 . S
O69 Cd60 2.356 . S
O69 C67 1.282 . S
C70 O71 1.306 . S
C70 O73 1.160 . S
O71 C70 1.306 . S
O71 Cd72 2.228 . S
Cd72 O71 2.228 . S
Cd72 O76 2.273 . S
Cd72 O80 2.277 . S
O73 C70 1.160 . S
O73 Cd74 2.203 . S
Cd74 O73 2.203 . S
Cd74 O76 2.411 . S
Cd74 O77 2.333 1_545 S
Cd74 O78 2.352 . S
Cd74 O82 2.277 . S
Cd74 O83 2.356 . S
C75 O80 1.209 . S
C75 O82 1.226 . S
O76 Cd72 2.273 . S
O76 Cd74 2.411 . S
O76 C79 1.320 . S
O77 Cd74 2.333 1_565 S
O77 C79 1.214 1_565 S
O78 Cd74 2.352 . S
O78 C81 1.258 . S
C79 O76 1.320 . S
C79 O77 1.214 1_545 S
O80 Cd72 2.277 . S
O80 C75 1.209 . S
C81 O78 1.258 . S
C81 O83 1.282 . S
O82 Cd74 2.277 . S
O82 C75 1.226 . S
O83 Cd74 2.356 . S
O83 C81 1.282 . S
C84 O85 1.306 . S
C84 O87 1.160 . S
O85 C84 1.306 . S
O85 Cd86 2.228 . S
Cd86 O85 2.228 . S
Cd86 O90 2.273 . S
Cd86 O94 2.277 . S
O87 C84 1.160 . S
O87 Cd88 2.203 . S
Cd88 O87 2.203 . S
Cd88 O90 2.411 . S
Cd88 O91 2.333 . S
Cd88 O92 2.352 . S
Cd88 O96 2.277 . S
Cd88 O97 2.356 . S
C89 O94 1.209 . S
C89 O96 1.226 . S
O90 Cd86 2.273 . S
O90 Cd88 2.411 . S
O90 C93 1.320 . S
O91 Cd88 2.333 . S
O91 C93 1.214 . S
O92 Cd88 2.352 . S
O92 C95 1.258 . S
C93 O90 1.320 . S
C93 O91 1.214 . S
O94 Cd86 2.277 . S
O94 C89 1.209 . S
C95 O92 1.258 . S
C95 O97 1.282 . S
O96 Cd88 2.277 . S
O96 C89 1.226 . S
O97 Cd88 2.356 . S
O97 C95 1.282 . S
C98 O99 1.306 . S
C98 O101 1.160 . S
O99 C98 1.306 . S
O99 Cd100 2.228 . S
Cd100 O99 2.228 . S
Cd100 O104 2.273 . S
Cd100 O108 2.277 . S
O101 C98 1.160 . S
O101 Cd102 2.203 . S
Cd102 O101 2.203 . S
Cd102 O104 2.411 . S
Cd102 O105 2.333 1_565 S
Cd102 O106 2.352 . S
Cd102 O110 2.277 . S
Cd102 O111 2.356 . S
C103 O108 1.209 . S
C103 O110 1.226 . S
O104 Cd100 2.273 . S
O104 Cd102 2.411 . S
O104 C107 1.320 . S
O105 Cd102 2.333 1_545 S
O105 C107 1.214 1_545 S
O106 Cd102 2.352 . S
O106 C109 1.258 . S
C107 O104 1.320 . S
C107 O105 1.214 1_565 S
O108 Cd100 2.277 . S
O108 C103 1.209 . S
C109 O106 1.258 . S
C109 O111 1.282 . S
O110 Cd102 2.277 . S
O110 C103 1.226 . S
O111 Cd102 2.356 . S
O111 C109 1.282 . S
C112 C113 1.369 . S
C112 C114 1.419 . S
C112 H116 0.930 . S
C113 C112 1.369 . S
C113 C122 1.429 . S
C114 C112 1.419 . S
C114 C115 1.363 . S
C114 H117 0.929 . S
C115 C114 1.363 . S
C115 C121 1.428 . S
H116 C112 0.930 . S
H117 C114 0.929 . S
S118 N119 1.613 . S
S118 N120 1.610 . S
N119 S118 1.613 . S
N119 C122 1.350 . S
N120 S118 1.610 . S
N120 C121 1.351 . S
C121 C115 1.428 . S
C121 N120 1.351 . S
C121 C122 1.434 . S
C122 C113 1.429 . S
C122 N119 1.350 . S
C122 C121 1.434 . S
C123 C124 1.369 . S
C123 C125 1.419 . S
C123 H127 0.930 . S
C124 C123 1.369 . S
C124 C133 1.429 1_545 S
C125 C123 1.419 . S
C125 C126 1.363 1_545 S
C125 H128 0.929 . S
C126 C125 1.363 1_565 S
C126 C132 1.428 . S
H127 C123 0.930 . S
H128 C125 0.929 . S
S129 N130 1.613 . S
S129 N131 1.610 . S
N130 S129 1.613 . S
N130 C133 1.350 . S
N131 S129 1.610 . S
N131 C132 1.351 . S
C132 C126 1.428 . S
C132 N131 1.351 . S
C132 C133 1.434 . S
C133 C124 1.429 1_565 S
C133 N130 1.350 . S
C133 C132 1.434 . S
C134 C135 1.369 . S
C134 C136 1.419 . S
C134 H138 0.930 . S
C135 C134 1.369 . S
C135 C144 1.429 . S
C136 C134 1.419 . S
C136 C137 1.363 . S
C136 H139 0.929 . S
C137 C136 1.363 . S
C137 C143 1.428 . S
H138 C134 0.930 . S
H139 C136 0.929 . S
S140 N141 1.613 . S
S140 N142 1.610 . S
N141 S140 1.613 . S
N141 C144 1.350 . S
N142 S140 1.610 . S
N142 C143 1.351 . S
C143 C137 1.428 . S
C143 N142 1.351 . S
C143 C144 1.434 . S
C144 C135 1.429 . S
C144 N141 1.350 . S
C144 C143 1.434 . S
C145 C146 1.369 1_565 S
C145 C147 1.419 . S
C145 H149 0.930 . S
C146 C145 1.369 1_545 S
C146 C155 1.429 . S
C147 C145 1.419 . S
C147 C148 1.363 . S
C147 H150 0.929 . S
C148 C147 1.363 . S
C148 C154 1.428 1_565 S
H149 C145 0.930 . S
H150 C147 0.929 . S
S151 N152 1.613 . S
S151 N153 1.610 . S
N152 S151 1.613 . S
N152 C155 1.350 . S
N153 S151 1.610 . S
N153 C154 1.351 . S
C154 C148 1.428 1_545 S
C154 N153 1.351 . S
C154 C155 1.434 . S
C155 C146 1.429 . S
C155 N152 1.350 . S
C155 C154 1.434 . S
C156 C157 1.369 . S
C156 C158 1.419 . S
C156 H160 0.930 . S
C157 C156 1.369 . S
C157 C166 1.429 . S
C158 C156 1.419 . S
C158 C159 1.363 . S
C158 H161 0.929 . S
C159 C158 1.363 . S
C159 C165 1.428 . S
H160 C156 0.930 . S
H161 C158 0.929 . S
S162 N163 1.613 . S
S162 N164 1.610 . S
N163 S162 1.613 . S
N163 C166 1.350 . S
N164 S162 1.610 . S
N164 C165 1.351 . S
C165 C159 1.428 . S
C165 N164 1.351 . S
C165 C166 1.434 . S
C166 C157 1.429 . S
C166 N163 1.350 . S
C166 C165 1.434 . S
C167 C168 1.369 1_565 S
C167 C169 1.419 . S
C167 H171 0.930 . S
C168 C167 1.369 1_545 S
C168 C177 1.429 . S
C169 C167 1.419 . S
C169 C170 1.363 . S
C169 H172 0.929 1_655 S
C170 C169 1.363 . S
C170 C176 1.428 . S
H171 C167 0.930 . S
H172 C169 0.929 1_455 S
S173 N174 1.613 . S
S173 N175 1.610 . S
N174 S173 1.613 . S
N174 C177 1.350 . S
N175 S173 1.610 . S
N175 C176 1.351 1_545 S
C176 C170 1.428 . S
C176 N175 1.351 1_565 S
C176 C177 1.434 1_565 S
C177 C168 1.429 . S
C177 N174 1.350 . S
C177 C176 1.434 1_545 S
C178 C179 1.369 . S
C178 C180 1.419 . S
C178 H182 0.930 . S
C179 C178 1.369 . S
C179 C188 1.429 . S
C180 C178 1.419 . S
C180 C181 1.363 . S
C180 H183 0.929 1_455 S
C181 C180 1.363 . S
C181 C187 1.428 . S
H182 C178 0.930 . S
H183 C180 0.929 1_655 S
S184 N185 1.613 . S
S184 N186 1.610 . S
N185 S184 1.613 . S
N185 C188 1.350 . S
N186 S184 1.610 . S
N186 C187 1.351 . S
C187 C181 1.428 . S
C187 N186 1.351 . S
C187 C188 1.434 . S
C188 C179 1.429 . S
C188 N185 1.350 . S
C188 C187 1.434 . S
C189 C190 1.369 . S
C189 C191 1.419 . S
C189 H193 0.930 . S
C190 C189 1.369 . S
C190 C199 1.429 1_565 S
C191 C189 1.419 . S
C191 C192 1.363 1_565 S
C191 H194 0.929 . S
C192 C191 1.363 1_545 S
C192 C198 1.428 . S
H193 C189 0.930 . S
H194 C191 0.929 . S
S195 N196 1.613 . S
S195 N197 1.610 . S
N196 S195 1.613 . S
N196 C199 1.350 . S
N197 S195 1.610 . S
N197 C198 1.351 . S
C198 C192 1.428 . S
C198 N197 1.351 . S
C198 C199 1.434 . S
C199 C190 1.429 1_545 S
C199 N196 1.350 . S
C199 C198 1.434 . S
C200 C201 1.369 . S
C200 C202 1.419 . S
C200 H204 0.930 . S
C201 C200 1.369 . S
C201 C210 1.429 1_455 S
C202 C200 1.419 . S
C202 C203 1.363 1_455 S
C202 H205 0.929 . S
C203 C202 1.363 1_655 S
C203 C209 1.428 . S
H204 C200 0.930 . S
H205 C202 0.929 . S
S206 N207 1.613 . S
S206 N208 1.610 . S
N207 S206 1.613 . S
N207 C210 1.350 . S
N208 S206 1.610 . S
N208 C209 1.351 . S
C209 C203 1.428 . S
C209 N208 1.351 . S
C209 C210 1.434 . S
C210 C201 1.429 1_655 S
C210 N207 1.350 . S
C210 C209 1.434 . S
C211 C212 1.369 . S
C211 C213 1.419 . S
C211 H215 0.930 . S
C212 C211 1.369 . S
C212 C221 1.429 1_565 S
C213 C211 1.419 . S
C213 C214 1.363 1_565 S
C213 H216 0.929 . S
C214 C213 1.363 1_545 S
C214 C220 1.428 . S
H215 C211 0.930 . S
H216 C213 0.929 . S
S217 N218 1.613 . S
S217 N219 1.610 . S
N218 S217 1.613 . S
N218 C221 1.350 . S
N219 S217 1.610 . S
N219 C220 1.351 . S
C220 C214 1.428 . S
C220 N219 1.351 . S
C220 C221 1.434 . S
C221 C212 1.429 1_545 S
C221 N218 1.350 . S
C221 C220 1.434 . S
C222 C223 1.369 . S
C222 C224 1.426 . S
C222 H226 0.930 . S
C223 C222 1.369 . S
C223 C232 1.429 1_554 S
C224 C222 1.426 . S
C224 C225 1.355 1_554 S
C224 H227 0.930 . S
C225 C224 1.355 1_556 S
C225 C231 1.428 . S
H226 C222 0.930 . S
H227 C224 0.930 . S
S228 N229 1.613 . S
S228 N230 1.610 . S
N229 S228 1.613 . S
N229 C232 1.350 . S
N230 S228 1.610 . S
N230 C231 1.351 . S
C231 C225 1.428 . S
C231 N230 1.351 . S
C231 C232 1.434 . S
C232 C223 1.429 1_556 S
C232 N229 1.350 . S
C232 C231 1.434 . S
C233 C234 1.369 1_645 S
C233 C235 1.419 . S
C233 H237 0.930 . S
C234 C233 1.369 1_465 S
C234 C243 1.429 1_556 S
C235 C233 1.419 . S
C235 C236 1.363 1_556 S
C235 H238 0.929 . S
C236 C235 1.363 1_554 S
C236 C242 1.428 1_645 S
H237 C233 0.930 . S
H238 C235 0.929 . S
S239 N240 1.613 . S
S239 N241 1.610 . S
N240 S239 1.613 . S
N240 C243 1.350 . S
N241 S239 1.610 . S
N241 C242 1.351 . S
C242 C236 1.428 1_465 S
C242 N241 1.351 . S
C242 C243 1.434 . S
C243 C234 1.429 1_554 S
C243 N240 1.350 . S
C243 C242 1.434 . S
C244 C245 1.369 . S
C244 C246 1.419 . S
C244 H248 0.930 . S
C245 C244 1.369 . S
C245 C254 1.429 . S
C246 C244 1.419 . S
C246 C247 1.363 . S
C246 H249 0.929 . S
C247 C246 1.363 . S
C247 C253 1.428 . S
H248 C244 0.930 . S
H249 C246 0.929 . S
S250 N251 1.613 . S
S250 N252 1.610 . S
N251 S250 1.613 . S
N251 C254 1.350 . S
N252 S250 1.610 . S
N252 C253 1.351 . S
C253 C247 1.428 . S
C253 N252 1.351 . S
C253 C254 1.434 . S
C254 C245 1.429 . S
C254 N251 1.350 . S
C254 C253 1.434 . S
C255 C256 1.369 . S
C255 C257 1.419 . S
C255 H259 0.930 . S
C256 C255 1.369 . S
C256 C265 1.429 . S
C257 C255 1.419 . S
C257 C258 1.363 . S
C257 H260 0.929 . S
C258 C257 1.363 . S
C258 C264 1.428 . S
H259 C255 0.930 . S
H260 C257 0.929 . S
S261 N262 1.613 . S
S261 N263 1.610 . S
N262 S261 1.613 . S
N262 C265 1.350 . S
N263 S261 1.610 . S
N263 C264 1.351 . S
C264 C258 1.428 . S
C264 N263 1.351 . S
C264 C265 1.434 . S
C265 C256 1.429 . S
C265 N262 1.350 . S
C265 C264 1.434 . S
C266 C267 1.369 . S
C266 C268 1.419 . S
C266 H270 0.930 . S
C267 C266 1.369 . S
C267 C276 1.429 . S
C268 C266 1.419 . S
C268 C269 1.363 . S
C268 H271 0.929 . S
C269 C268 1.363 . S
C269 C275 1.428 . S
H270 C266 0.930 . S
H271 C268 0.929 . S
S272 N273 1.613 . S
S272 N274 1.610 . S
N273 S272 1.613 . S
N273 C276 1.350 . S
N274 S272 1.610 . S
N274 C275 1.351 . S
C275 C269 1.428 . S
C275 N274 1.351 . S
C275 C276 1.434 . S
C276 C267 1.429 . S
C276 N273 1.350 . S
C276 C275 1.434 . S
C277 C278 1.369 . S
C277 C279 1.419 . S
C277 H281 0.930 . S
C278 C277 1.369 . S
C278 C287 1.429 . S
C279 C277 1.419 . S
C279 C280 1.363 . S
C279 H282 0.929 . S
C280 C279 1.363 . S
C280 C286 1.428 . S
H281 C277 0.930 . S
H282 C279 0.929 . S
S283 N284 1.613 . S
S283 N285 1.610 . S
N284 S283 1.613 . S
N284 C287 1.350 . S
N285 S283 1.610 . S
N285 C286 1.351 . S
C286 C280 1.428 . S
C286 N285 1.351 . S
C286 C287 1.434 . S
C287 C278 1.429 . S
C287 N284 1.350 . S
C287 C286 1.434 . S
C113 C5 1.441 . S
C115 C37 1.446 . S
C124 C51 1.445 1_455 S
C126 C19 1.441 . S
C135 C33 1.443 . S
C137 C9 1.446 1_655 S
C146 C47 1.441 . S
C148 C23 1.446 . S
C157 C93 1.446 . S
C159 C61 1.442 . S
C168 C75 1.440 . S
C170 C107 1.446 1_655 S
C179 C89 1.440 . S
C181 C65 1.446 1_455 S
C190 C103 1.441 . S
C192 C79 1.446 . S
C201 C11 1.509 . S
C203 C67 1.511 . S
C212 C25 1.508 . S
C214 C81 1.511 . S
C223 C39 1.512 . S
C225 C95 1.508 . S
C234 C109 1.512 . S
C236 C53 1.508 . S
C245 C0 1.509 . S
C247 C14 1.508 . S
C256 C42 1.505 . S
C258 C28 1.505 . S
C267 C70 1.509 . S
C269 C56 1.508 . S
C278 C84 1.508 . S
C280 C98 1.508 . S
