# Generated by pormake.
# Topology ulg, (4)-cn, num edge types: 1
# Building blocks:
#     Node 0, Type 0, BuildingBlock: QUQFOY_clean_sbu_1, # of connection points: 4
#     Node 1, Type 0, BuildingBlock: QUQFOY_clean_sbu_1, # of connection points: 4
#     Node 2, Type 0, BuildingBlock: QUQFOY_clean_sbu_1, # of connection points: 4
#     Node 3, Type 0, BuildingBlock: QUQFOY_clean_sbu_1, # of connection points: 4
#     Node 4, Type 0, BuildingBlock: QUQFOY_clean_sbu_1, # of connection points: 4
#     Node 5, Type 0, BuildingBlock: QUQFOY_clean_sbu_1, # of connection points: 4
#     Node 6, Type 0, BuildingBlock: QUQFOY_clean_sbu_1, # of connection points: 4
#     Node 7, Type 0, BuildingBlock: QUQFOY_clean_sbu_1, # of connection points: 4
#     Node 8, Type 0, BuildingBlock: QUQFOY_clean_sbu_1, # of connection points: 4
#     Node 9, Type 0, BuildingBlock: QUQFOY_clean_sbu_1, # of connection points: 4
#     Node 10, Type 0, BuildingBlock: QUQFOY_clean_sbu_1, # of connection points: 4
#     Node 11, Type 0, BuildingBlock: QUQFOY_clean_sbu_1, # of connection points: 4
#     Node 12, Type 0, BuildingBlock: QUQFOY_clean_sbu_1, # of connection points: 4
#     Node 13, Type 0, BuildingBlock: QUQFOY_clean_sbu_1, # of connection points: 4
#     Node 14, Type 0, BuildingBlock: QUQFOY_clean_sbu_1, # of connection points: 4
#     Node 15, Type 0, BuildingBlock: QUQFOY_clean_sbu_1, # of connection points: 4
#     Node 16, Type 0, BuildingBlock: QUQFOY_clean_sbu_1, # of connection points: 4
#     Node 17, Type 0, BuildingBlock: QUQFOY_clean_sbu_1, # of connection points: 4
#     Node 18, Type 0, BuildingBlock: QUQFOY_clean_sbu_1, # of connection points: 4
#     Node 19, Type 0, BuildingBlock: QUQFOY_clean_sbu_1, # of connection points: 4
#     Node 20, Type 0, BuildingBlock: QUQFOY_clean_sbu_1, # of connection points: 4
#     Node 21, Type 0, BuildingBlock: QUQFOY_clean_sbu_1, # of connection points: 4
#     Node 22, Type 0, BuildingBlock: QUQFOY_clean_sbu_1, # of connection points: 4
#     Node 23, Type 0, BuildingBlock: QUQFOY_clean_sbu_1, # of connection points: 4
#     Node 24, Type 0, BuildingBlock: QUQFOY_clean_sbu_1, # of connection points: 4
#     Node 25, Type 0, BuildingBlock: QUQFOY_clean_sbu_1, # of connection points: 4
#     Node 26, Type 0, BuildingBlock: QUQFOY_clean_sbu_1, # of connection points: 4
#     Node 27, Type 0, BuildingBlock: QUQFOY_clean_sbu_1, # of connection points: 4
#     Node 28, Type 0, BuildingBlock: QUQFOY_clean_sbu_1, # of connection points: 4
#     Node 29, Type 0, BuildingBlock: QUQFOY_clean_sbu_1, # of connection points: 4
#     Node 30, Type 0, BuildingBlock: QUQFOY_clean_sbu_1, # of connection points: 4
#     Node 31, Type 0, BuildingBlock: QUQFOY_clean_sbu_1, # of connection points: 4
#     Node 32, Type 0, BuildingBlock: QUQFOY_clean_sbu_1, # of connection points: 4
#     Node 33, Type 0, BuildingBlock: QUQFOY_clean_sbu_1, # of connection points: 4
#     Node 34, Type 0, BuildingBlock: QUQFOY_clean_sbu_1, # of connection points: 4
#     Node 35, Type 0, BuildingBlock: QUQFOY_clean_sbu_1, # of connection points: 4
#     Node 36, Type 0, BuildingBlock: QUQFOY_clean_sbu_1, # of connection points: 4
#     Node 37, Type 0, BuildingBlock: QUQFOY_clean_sbu_1, # of connection points: 4
#     Node 38, Type 0, BuildingBlock: QUQFOY_clean_sbu_1, # of connection points: 4
#     Node 39, Type 0, BuildingBlock: QUQFOY_clean_sbu_1, # of connection points: 4
#     Node 40, Type 0, BuildingBlock: QUQFOY_clean_sbu_1, # of connection points: 4
#     Node 41, Type 0, BuildingBlock: QUQFOY_clean_sbu_1, # of connection points: 4
#     Node 42, Type 0, BuildingBlock: QUQFOY_clean_sbu_1, # of connection points: 4
#     Node 43, Type 0, BuildingBlock: QUQFOY_clean_sbu_1, # of connection points: 4
#     Node 44, Type 0, BuildingBlock: QUQFOY_clean_sbu_1, # of connection points: 4
#     Node 45, Type 0, BuildingBlock: QUQFOY_clean_sbu_1, # of connection points: 4
#     Node 46, Type 0, BuildingBlock: QUQFOY_clean_sbu_1, # of connection points: 4
#     Node 47, Type 0, BuildingBlock: QUQFOY_clean_sbu_1, # of connection points: 4
#     Node 48, Type 0, BuildingBlock: QUQFOY_clean_sbu_1, # of connection points: 4
#     Node 49, Type 0, BuildingBlock: QUQFOY_clean_sbu_1, # of connection points: 4
#     Node 50, Type 0, BuildingBlock: QUQFOY_clean_sbu_1, # of connection points: 4
#     Node 51, Type 0, BuildingBlock: QUQFOY_clean_sbu_1, # of connection points: 4
#     Node 52, Type 0, BuildingBlock: QUQFOY_clean_sbu_1, # of connection points: 4
#     Node 53, Type 0, BuildingBlock: QUQFOY_clean_sbu_1, # of connection points: 4
#     Node 54, Type 0, BuildingBlock: QUQFOY_clean_sbu_1, # of connection points: 4
#     Node 55, Type 0, BuildingBlock: QUQFOY_clean_sbu_1, # of connection points: 4
#     Node 56, Type 0, BuildingBlock: QUQFOY_clean_sbu_1, # of connection points: 4
#     Node 57, Type 0, BuildingBlock: QUQFOY_clean_sbu_1, # of connection points: 4
#     Node 58, Type 0, BuildingBlock: QUQFOY_clean_sbu_1, # of connection points: 4
#     Node 59, Type 0, BuildingBlock: QUQFOY_clean_sbu_1, # of connection points: 4
#     Node 60, Type 0, BuildingBlock: QUQFOY_clean_sbu_1, # of connection points: 4
#     Node 61, Type 0, BuildingBlock: QUQFOY_clean_sbu_1, # of connection points: 4
#     Node 62, Type 0, BuildingBlock: QUQFOY_clean_sbu_1, # of connection points: 4
#     Node 63, Type 0, BuildingBlock: QUQFOY_clean_sbu_1, # of connection points: 4
#     Node 64, Type 0, BuildingBlock: QUQFOY_clean_sbu_1, # of connection points: 4
#     Node 65, Type 0, BuildingBlock: QUQFOY_clean_sbu_1, # of connection points: 4
#     Node 66, Type 0, BuildingBlock: QUQFOY_clean_sbu_1, # of connection points: 4
#     Node 67, Type 0, BuildingBlock: QUQFOY_clean_sbu_1, # of connection points: 4
#     Node 68, Type 0, BuildingBlock: QUQFOY_clean_sbu_1, # of connection points: 4
#     Node 69, Type 0, BuildingBlock: QUQFOY_clean_sbu_1, # of connection points: 4
#     Node 70, Type 0, BuildingBlock: QUQFOY_clean_sbu_1, # of connection points: 4
#     Node 71, Type 0, BuildingBlock: QUQFOY_clean_sbu_1, # of connection points: 4
#     Node 72, Type 0, BuildingBlock: QUQFOY_clean_sbu_1, # of connection points: 4
#     Node 73, Type 0, BuildingBlock: QUQFOY_clean_sbu_1, # of connection points: 4
#     Node 74, Type 0, BuildingBlock: QUQFOY_clean_sbu_1, # of connection points: 4
#     Node 75, Type 0, BuildingBlock: QUQFOY_clean_sbu_1, # of connection points: 4
#     Node 76, Type 0, BuildingBlock: QUQFOY_clean_sbu_1, # of connection points: 4
#     Node 77, Type 0, BuildingBlock: QUQFOY_clean_sbu_1, # of connection points: 4
#     Node 78, Type 0, BuildingBlock: QUQFOY_clean_sbu_1, # of connection points: 4
#     Node 79, Type 0, BuildingBlock: QUQFOY_clean_sbu_1, # of connection points: 4
#     Node 80, Type 0, BuildingBlock: QUQFOY_clean_sbu_1, # of connection points: 4
#     Node 81, Type 0, BuildingBlock: QUQFOY_clean_sbu_1, # of connection points: 4
#     Node 82, Type 0, BuildingBlock: QUQFOY_clean_sbu_1, # of connection points: 4
#     Node 83, Type 0, BuildingBlock: QUQFOY_clean_sbu_1, # of connection points: 4
#     Node 84, Type 0, BuildingBlock: QUQFOY_clean_sbu_1, # of connection points: 4
#     Node 85, Type 0, BuildingBlock: QUQFOY_clean_sbu_1, # of connection points: 4
#     Node 86, Type 0, BuildingBlock: QUQFOY_clean_sbu_1, # of connection points: 4
#     Node 87, Type 0, BuildingBlock: QUQFOY_clean_sbu_1, # of connection points: 4
#     Node 88, Type 0, BuildingBlock: QUQFOY_clean_sbu_1, # of connection points: 4
#     Node 89, Type 0, BuildingBlock: QUQFOY_clean_sbu_1, # of connection points: 4
#     Node 90, Type 0, BuildingBlock: QUQFOY_clean_sbu_1, # of connection points: 4
#     Node 91, Type 0, BuildingBlock: QUQFOY_clean_sbu_1, # of connection points: 4
#     Node 92, Type 0, BuildingBlock: QUQFOY_clean_sbu_1, # of connection points: 4
#     Node 93, Type 0, BuildingBlock: QUQFOY_clean_sbu_1, # of connection points: 4
#     Node 94, Type 0, BuildingBlock: QUQFOY_clean_sbu_1, # of connection points: 4
#     Node 95, Type 0, BuildingBlock: QUQFOY_clean_sbu_1, # of connection points: 4
#     Edge 96, Type (0, 0), BuildingBlock: XIVTED_clean_linker_0, # of connection points: 2
#     Edge 97, Type (0, 0), BuildingBlock: XIVTED_clean_linker_0, # of connection points: 2
#     Edge 98, Type (0, 0), BuildingBlock: XIVTED_clean_linker_0, # of connection points: 2
#     Edge 99, Type (0, 0), BuildingBlock: XIVTED_clean_linker_0, # of connection points: 2
#     Edge 100, Type (0, 0), BuildingBlock: XIVTED_clean_linker_0, # of connection points: 2
#     Edge 101, Type (0, 0), BuildingBlock: XIVTED_clean_linker_0, # of connection points: 2
#     Edge 102, Type (0, 0), BuildingBlock: XIVTED_clean_linker_0, # of connection points: 2
#     Edge 103, Type (0, 0), BuildingBlock: XIVTED_clean_linker_0, # of connection points: 2
#     Edge 104, Type (0, 0), BuildingBlock: XIVTED_clean_linker_0, # of connection points: 2
#     Edge 105, Type (0, 0), BuildingBlock: XIVTED_clean_linker_0, # of connection points: 2
#     Edge 106, Type (0, 0), BuildingBlock: XIVTED_clean_linker_0, # of connection points: 2
#     Edge 107, Type (0, 0), BuildingBlock: XIVTED_clean_linker_0, # of connection points: 2
#     Edge 108, Type (0, 0), BuildingBlock: XIVTED_clean_linker_0, # of connection points: 2
#     Edge 109, Type (0, 0), BuildingBlock: XIVTED_clean_linker_0, # of connection points: 2
#     Edge 110, Type (0, 0), BuildingBlock: XIVTED_clean_linker_0, # of connection points: 2
#     Edge 111, Type (0, 0), BuildingBlock: XIVTED_clean_linker_0, # of connection points: 2
#     Edge 112, Type (0, 0), BuildingBlock: XIVTED_clean_linker_0, # of connection points: 2
#     Edge 113, Type (0, 0), BuildingBlock: XIVTED_clean_linker_0, # of connection points: 2
#     Edge 114, Type (0, 0), BuildingBlock: XIVTED_clean_linker_0, # of connection points: 2
#     Edge 115, Type (0, 0), BuildingBlock: XIVTED_clean_linker_0, # of connection points: 2
#     Edge 116, Type (0, 0), BuildingBlock: XIVTED_clean_linker_0, # of connection points: 2
#     Edge 117, Type (0, 0), BuildingBlock: XIVTED_clean_linker_0, # of connection points: 2
#     Edge 118, Type (0, 0), BuildingBlock: XIVTED_clean_linker_0, # of connection points: 2
#     Edge 119, Type (0, 0), BuildingBlock: XIVTED_clean_linker_0, # of connection points: 2
#     Edge 120, Type (0, 0), BuildingBlock: XIVTED_clean_linker_0, # of connection points: 2
#     Edge 121, Type (0, 0), BuildingBlock: XIVTED_clean_linker_0, # of connection points: 2
#     Edge 122, Type (0, 0), BuildingBlock: XIVTED_clean_linker_0, # of connection points: 2
#     Edge 123, Type (0, 0), BuildingBlock: XIVTED_clean_linker_0, # of connection points: 2
#     Edge 124, Type (0, 0), BuildingBlock: XIVTED_clean_linker_0, # of connection points: 2
#     Edge 125, Type (0, 0), BuildingBlock: XIVTED_clean_linker_0, # of connection points: 2
#     Edge 126, Type (0, 0), BuildingBlock: XIVTED_clean_linker_0, # of connection points: 2
#     Edge 127, Type (0, 0), BuildingBlock: XIVTED_clean_linker_0, # of connection points: 2
#     Edge 128, Type (0, 0), BuildingBlock: XIVTED_clean_linker_0, # of connection points: 2
#     Edge 129, Type (0, 0), BuildingBlock: XIVTED_clean_linker_0, # of connection points: 2
#     Edge 130, Type (0, 0), BuildingBlock: XIVTED_clean_linker_0, # of connection points: 2
#     Edge 131, Type (0, 0), BuildingBlock: XIVTED_clean_linker_0, # of connection points: 2
#     Edge 132, Type (0, 0), BuildingBlock: XIVTED_clean_linker_0, # of connection points: 2
#     Edge 133, Type (0, 0), BuildingBlock: XIVTED_clean_linker_0, # of connection points: 2
#     Edge 134, Type (0, 0), BuildingBlock: XIVTED_clean_linker_0, # of connection points: 2
#     Edge 135, Type (0, 0), BuildingBlock: XIVTED_clean_linker_0, # of connection points: 2
#     Edge 136, Type (0, 0), BuildingBlock: XIVTED_clean_linker_0, # of connection points: 2
#     Edge 137, Type (0, 0), BuildingBlock: XIVTED_clean_linker_0, # of connection points: 2
#     Edge 138, Type (0, 0), BuildingBlock: XIVTED_clean_linker_0, # of connection points: 2
#     Edge 139, Type (0, 0), BuildingBlock: XIVTED_clean_linker_0, # of connection points: 2
#     Edge 140, Type (0, 0), BuildingBlock: XIVTED_clean_linker_0, # of connection points: 2
#     Edge 141, Type (0, 0), BuildingBlock: XIVTED_clean_linker_0, # of connection points: 2
#     Edge 142, Type (0, 0), BuildingBlock: XIVTED_clean_linker_0, # of connection points: 2
#     Edge 143, Type (0, 0), BuildingBlock: XIVTED_clean_linker_0, # of connection points: 2
#     Edge 144, Type (0, 0), BuildingBlock: XIVTED_clean_linker_0, # of connection points: 2
#     Edge 145, Type (0, 0), BuildingBlock: XIVTED_clean_linker_0, # of connection points: 2
#     Edge 146, Type (0, 0), BuildingBlock: XIVTED_clean_linker_0, # of connection points: 2
#     Edge 147, Type (0, 0), BuildingBlock: XIVTED_clean_linker_0, # of connection points: 2
#     Edge 148, Type (0, 0), BuildingBlock: XIVTED_clean_linker_0, # of connection points: 2
#     Edge 149, Type (0, 0), BuildingBlock: XIVTED_clean_linker_0, # of connection points: 2
#     Edge 150, Type (0, 0), BuildingBlock: XIVTED_clean_linker_0, # of connection points: 2
#     Edge 151, Type (0, 0), BuildingBlock: XIVTED_clean_linker_0, # of connection points: 2
#     Edge 152, Type (0, 0), BuildingBlock: XIVTED_clean_linker_0, # of connection points: 2
#     Edge 153, Type (0, 0), BuildingBlock: XIVTED_clean_linker_0, # of connection points: 2
#     Edge 154, Type (0, 0), BuildingBlock: XIVTED_clean_linker_0, # of connection points: 2
#     Edge 155, Type (0, 0), BuildingBlock: XIVTED_clean_linker_0, # of connection points: 2
#     Edge 156, Type (0, 0), BuildingBlock: XIVTED_clean_linker_0, # of connection points: 2
#     Edge 157, Type (0, 0), BuildingBlock: XIVTED_clean_linker_0, # of connection points: 2
#     Edge 158, Type (0, 0), BuildingBlock: XIVTED_clean_linker_0, # of connection points: 2
#     Edge 159, Type (0, 0), BuildingBlock: XIVTED_clean_linker_0, # of connection points: 2
#     Edge 160, Type (0, 0), BuildingBlock: XIVTED_clean_linker_0, # of connection points: 2
#     Edge 161, Type (0, 0), BuildingBlock: XIVTED_clean_linker_0, # of connection points: 2
#     Edge 162, Type (0, 0), BuildingBlock: XIVTED_clean_linker_0, # of connection points: 2
#     Edge 163, Type (0, 0), BuildingBlock: XIVTED_clean_linker_0, # of connection points: 2
#     Edge 164, Type (0, 0), BuildingBlock: XIVTED_clean_linker_0, # of connection points: 2
#     Edge 165, Type (0, 0), BuildingBlock: XIVTED_clean_linker_0, # of connection points: 2
#     Edge 166, Type (0, 0), BuildingBlock: XIVTED_clean_linker_0, # of connection points: 2
#     Edge 167, Type (0, 0), BuildingBlock: XIVTED_clean_linker_0, # of connection points: 2
#     Edge 168, Type (0, 0), BuildingBlock: XIVTED_clean_linker_0, # of connection points: 2
#     Edge 169, Type (0, 0), BuildingBlock: XIVTED_clean_linker_0, # of connection points: 2
#     Edge 170, Type (0, 0), BuildingBlock: XIVTED_clean_linker_0, # of connection points: 2
#     Edge 171, Type (0, 0), BuildingBlock: XIVTED_clean_linker_0, # of connection points: 2
#     Edge 172, Type (0, 0), BuildingBlock: XIVTED_clean_linker_0, # of connection points: 2
#     Edge 173, Type (0, 0), BuildingBlock: XIVTED_clean_linker_0, # of connection points: 2
#     Edge 174, Type (0, 0), BuildingBlock: XIVTED_clean_linker_0, # of connection points: 2
#     Edge 175, Type (0, 0), BuildingBlock: XIVTED_clean_linker_0, # of connection points: 2
#     Edge 176, Type (0, 0), BuildingBlock: XIVTED_clean_linker_0, # of connection points: 2
#     Edge 177, Type (0, 0), BuildingBlock: XIVTED_clean_linker_0, # of connection points: 2
#     Edge 178, Type (0, 0), BuildingBlock: XIVTED_clean_linker_0, # of connection points: 2
#     Edge 179, Type (0, 0), BuildingBlock: XIVTED_clean_linker_0, # of connection points: 2
#     Edge 180, Type (0, 0), BuildingBlock: XIVTED_clean_linker_0, # of connection points: 2
#     Edge 181, Type (0, 0), BuildingBlock: XIVTED_clean_linker_0, # of connection points: 2
#     Edge 182, Type (0, 0), BuildingBlock: XIVTED_clean_linker_0, # of connection points: 2
#     Edge 183, Type (0, 0), BuildingBlock: XIVTED_clean_linker_0, # of connection points: 2
#     Edge 184, Type (0, 0), BuildingBlock: XIVTED_clean_linker_0, # of connection points: 2
#     Edge 185, Type (0, 0), BuildingBlock: XIVTED_clean_linker_0, # of connection points: 2
#     Edge 186, Type (0, 0), BuildingBlock: XIVTED_clean_linker_0, # of connection points: 2
#     Edge 187, Type (0, 0), BuildingBlock: XIVTED_clean_linker_0, # of connection points: 2
#     Edge 188, Type (0, 0), BuildingBlock: XIVTED_clean_linker_0, # of connection points: 2
#     Edge 189, Type (0, 0), BuildingBlock: XIVTED_clean_linker_0, # of connection points: 2
#     Edge 190, Type (0, 0), BuildingBlock: XIVTED_clean_linker_0, # of connection points: 2
#     Edge 191, Type (0, 0), BuildingBlock: XIVTED_clean_linker_0, # of connection points: 2
#     Edge 192, Type (0, 0), BuildingBlock: XIVTED_clean_linker_0, # of connection points: 2
#     Edge 193, Type (0, 0), BuildingBlock: XIVTED_clean_linker_0, # of connection points: 2
#     Edge 194, Type (0, 0), BuildingBlock: XIVTED_clean_linker_0, # of connection points: 2
#     Edge 195, Type (0, 0), BuildingBlock: XIVTED_clean_linker_0, # of connection points: 2
#     Edge 196, Type (0, 0), BuildingBlock: XIVTED_clean_linker_0, # of connection points: 2
#     Edge 197, Type (0, 0), BuildingBlock: XIVTED_clean_linker_0, # of connection points: 2
#     Edge 198, Type (0, 0), BuildingBlock: XIVTED_clean_linker_0, # of connection points: 2
#     Edge 199, Type (0, 0), BuildingBlock: XIVTED_clean_linker_0, # of connection points: 2
#     Edge 200, Type (0, 0), BuildingBlock: XIVTED_clean_linker_0, # of connection points: 2
#     Edge 201, Type (0, 0), BuildingBlock: XIVTED_clean_linker_0, # of connection points: 2
#     Edge 202, Type (0, 0), BuildingBlock: XIVTED_clean_linker_0, # of connection points: 2
#     Edge 203, Type (0, 0), BuildingBlock: XIVTED_clean_linker_0, # of connection points: 2
#     Edge 204, Type (0, 0), BuildingBlock: XIVTED_clean_linker_0, # of connection points: 2
#     Edge 205, Type (0, 0), BuildingBlock: XIVTED_clean_linker_0, # of connection points: 2
#     Edge 206, Type (0, 0), BuildingBlock: XIVTED_clean_linker_0, # of connection points: 2
#     Edge 207, Type (0, 0), BuildingBlock: XIVTED_clean_linker_0, # of connection points: 2
#     Edge 208, Type (0, 0), BuildingBlock: XIVTED_clean_linker_0, # of connection points: 2
#     Edge 209, Type (0, 0), BuildingBlock: XIVTED_clean_linker_0, # of connection points: 2
#     Edge 210, Type (0, 0), BuildingBlock: XIVTED_clean_linker_0, # of connection points: 2
#     Edge 211, Type (0, 0), BuildingBlock: XIVTED_clean_linker_0, # of connection points: 2
#     Edge 212, Type (0, 0), BuildingBlock: XIVTED_clean_linker_0, # of connection points: 2
#     Edge 213, Type (0, 0), BuildingBlock: XIVTED_clean_linker_0, # of connection points: 2
#     Edge 214, Type (0, 0), BuildingBlock: XIVTED_clean_linker_0, # of connection points: 2
#     Edge 215, Type (0, 0), BuildingBlock: XIVTED_clean_linker_0, # of connection points: 2
#     Edge 216, Type (0, 0), BuildingBlock: XIVTED_clean_linker_0, # of connection points: 2
#     Edge 217, Type (0, 0), BuildingBlock: XIVTED_clean_linker_0, # of connection points: 2
#     Edge 218, Type (0, 0), BuildingBlock: XIVTED_clean_linker_0, # of connection points: 2
#     Edge 219, Type (0, 0), BuildingBlock: XIVTED_clean_linker_0, # of connection points: 2
#     Edge 220, Type (0, 0), BuildingBlock: XIVTED_clean_linker_0, # of connection points: 2
#     Edge 221, Type (0, 0), BuildingBlock: XIVTED_clean_linker_0, # of connection points: 2
#     Edge 222, Type (0, 0), BuildingBlock: XIVTED_clean_linker_0, # of connection points: 2
#     Edge 223, Type (0, 0), BuildingBlock: XIVTED_clean_linker_0, # of connection points: 2
#     Edge 224, Type (0, 0), BuildingBlock: XIVTED_clean_linker_0, # of connection points: 2
#     Edge 225, Type (0, 0), BuildingBlock: XIVTED_clean_linker_0, # of connection points: 2
#     Edge 226, Type (0, 0), BuildingBlock: XIVTED_clean_linker_0, # of connection points: 2
#     Edge 227, Type (0, 0), BuildingBlock: XIVTED_clean_linker_0, # of connection points: 2
#     Edge 228, Type (0, 0), BuildingBlock: XIVTED_clean_linker_0, # of connection points: 2
#     Edge 229, Type (0, 0), BuildingBlock: XIVTED_clean_linker_0, # of connection points: 2
#     Edge 230, Type (0, 0), BuildingBlock: XIVTED_clean_linker_0, # of connection points: 2
#     Edge 231, Type (0, 0), BuildingBlock: XIVTED_clean_linker_0, # of connection points: 2
#     Edge 232, Type (0, 0), BuildingBlock: XIVTED_clean_linker_0, # of connection points: 2
#     Edge 233, Type (0, 0), BuildingBlock: XIVTED_clean_linker_0, # of connection points: 2
#     Edge 234, Type (0, 0), BuildingBlock: XIVTED_clean_linker_0, # of connection points: 2
#     Edge 235, Type (0, 0), BuildingBlock: XIVTED_clean_linker_0, # of connection points: 2
#     Edge 236, Type (0, 0), BuildingBlock: XIVTED_clean_linker_0, # of connection points: 2
#     Edge 237, Type (0, 0), BuildingBlock: XIVTED_clean_linker_0, # of connection points: 2
#     Edge 238, Type (0, 0), BuildingBlock: XIVTED_clean_linker_0, # of connection points: 2
#     Edge 239, Type (0, 0), BuildingBlock: XIVTED_clean_linker_0, # of connection points: 2
#     Edge 240, Type (0, 0), BuildingBlock: XIVTED_clean_linker_0, # of connection points: 2
#     Edge 241, Type (0, 0), BuildingBlock: XIVTED_clean_linker_0, # of connection points: 2
#     Edge 242, Type (0, 0), BuildingBlock: XIVTED_clean_linker_0, # of connection points: 2
#     Edge 243, Type (0, 0), BuildingBlock: XIVTED_clean_linker_0, # of connection points: 2
#     Edge 244, Type (0, 0), BuildingBlock: XIVTED_clean_linker_0, # of connection points: 2
#     Edge 245, Type (0, 0), BuildingBlock: XIVTED_clean_linker_0, # of connection points: 2
#     Edge 246, Type (0, 0), BuildingBlock: XIVTED_clean_linker_0, # of connection points: 2
#     Edge 247, Type (0, 0), BuildingBlock: XIVTED_clean_linker_0, # of connection points: 2
#     Edge 248, Type (0, 0), BuildingBlock: XIVTED_clean_linker_0, # of connection points: 2
#     Edge 249, Type (0, 0), BuildingBlock: XIVTED_clean_linker_0, # of connection points: 2
#     Edge 250, Type (0, 0), BuildingBlock: XIVTED_clean_linker_0, # of connection points: 2
#     Edge 251, Type (0, 0), BuildingBlock: XIVTED_clean_linker_0, # of connection points: 2
#     Edge 252, Type (0, 0), BuildingBlock: XIVTED_clean_linker_0, # of connection points: 2
#     Edge 253, Type (0, 0), BuildingBlock: XIVTED_clean_linker_0, # of connection points: 2
#     Edge 254, Type (0, 0), BuildingBlock: XIVTED_clean_linker_0, # of connection points: 2
#     Edge 255, Type (0, 0), BuildingBlock: XIVTED_clean_linker_0, # of connection points: 2
#     Edge 256, Type (0, 0), BuildingBlock: XIVTED_clean_linker_0, # of connection points: 2
#     Edge 257, Type (0, 0), BuildingBlock: XIVTED_clean_linker_0, # of connection points: 2
#     Edge 258, Type (0, 0), BuildingBlock: XIVTED_clean_linker_0, # of connection points: 2
#     Edge 259, Type (0, 0), BuildingBlock: XIVTED_clean_linker_0, # of connection points: 2
#     Edge 260, Type (0, 0), BuildingBlock: XIVTED_clean_linker_0, # of connection points: 2
#     Edge 261, Type (0, 0), BuildingBlock: XIVTED_clean_linker_0, # of connection points: 2
#     Edge 262, Type (0, 0), BuildingBlock: XIVTED_clean_linker_0, # of connection points: 2
#     Edge 263, Type (0, 0), BuildingBlock: XIVTED_clean_linker_0, # of connection points: 2
#     Edge 264, Type (0, 0), BuildingBlock: XIVTED_clean_linker_0, # of connection points: 2
#     Edge 265, Type (0, 0), BuildingBlock: XIVTED_clean_linker_0, # of connection points: 2
#     Edge 266, Type (0, 0), BuildingBlock: XIVTED_clean_linker_0, # of connection points: 2
#     Edge 267, Type (0, 0), BuildingBlock: XIVTED_clean_linker_0, # of connection points: 2
#     Edge 268, Type (0, 0), BuildingBlock: XIVTED_clean_linker_0, # of connection points: 2
#     Edge 269, Type (0, 0), BuildingBlock: XIVTED_clean_linker_0, # of connection points: 2
#     Edge 270, Type (0, 0), BuildingBlock: XIVTED_clean_linker_0, # of connection points: 2
#     Edge 271, Type (0, 0), BuildingBlock: XIVTED_clean_linker_0, # of connection points: 2
#     Edge 272, Type (0, 0), BuildingBlock: XIVTED_clean_linker_0, # of connection points: 2
#     Edge 273, Type (0, 0), BuildingBlock: XIVTED_clean_linker_0, # of connection points: 2
#     Edge 274, Type (0, 0), BuildingBlock: XIVTED_clean_linker_0, # of connection points: 2
#     Edge 275, Type (0, 0), BuildingBlock: XIVTED_clean_linker_0, # of connection points: 2
#     Edge 276, Type (0, 0), BuildingBlock: XIVTED_clean_linker_0, # of connection points: 2
#     Edge 277, Type (0, 0), BuildingBlock: XIVTED_clean_linker_0, # of connection points: 2
#     Edge 278, Type (0, 0), BuildingBlock: XIVTED_clean_linker_0, # of connection points: 2
#     Edge 279, Type (0, 0), BuildingBlock: XIVTED_clean_linker_0, # of connection points: 2
#     Edge 280, Type (0, 0), BuildingBlock: XIVTED_clean_linker_0, # of connection points: 2
#     Edge 281, Type (0, 0), BuildingBlock: XIVTED_clean_linker_0, # of connection points: 2
#     Edge 282, Type (0, 0), BuildingBlock: XIVTED_clean_linker_0, # of connection points: 2
#     Edge 283, Type (0, 0), BuildingBlock: XIVTED_clean_linker_0, # of connection points: 2
#     Edge 284, Type (0, 0), BuildingBlock: XIVTED_clean_linker_0, # of connection points: 2
#     Edge 285, Type (0, 0), BuildingBlock: XIVTED_clean_linker_0, # of connection points: 2
#     Edge 286, Type (0, 0), BuildingBlock: XIVTED_clean_linker_0, # of connection points: 2
#     Edge 287, Type (0, 0), BuildingBlock: XIVTED_clean_linker_0, # of connection points: 2
# Relax obj value: 0.406
# Max RMSD: 0.133
# Mean RMSD: 0.133
data_MOF--net-ulg--node1-QUQFOY_clean_sbu_1--edge1-XIVTED_clean_linker_0
_symmetry_space_group_name_H-M    P1
_symmetry_Int_Tables_number       1
_symmetry_cell_setting            triclinic
loop_
_symmetry_equiv_pos_as_xyz
'x, y, z'
_cell_length_a     101.96114
_cell_length_b     101.92279
_cell_length_c     101.96506
_cell_angle_alpha  89.993819
_cell_angle_beta   90.003815
_cell_angle_gamma 90.015655
loop_
_atom_site_label
_atom_site_type_symbol
_atom_site_fract_x
_atom_site_fract_y
_atom_site_fract_z
_atom_type_partial_charge
O0 O 0.05449 0.55547 0.13803 0.0
Cd1 Cd 0.06146 0.53697 0.14197 0.0
Cd2 Cd 0.07735 0.55139 0.15752 0.0
O3 O 0.06405 0.5663 0.15408 0.0
O4 O 0.04827 0.52609 0.13271 0.0
O5 O 0.05071 0.52563 0.15422 0.0
C6 C 0.04435 0.52186 0.14393 0.0
C7 C 0.0875 0.54822 0.17774 0.0
C8 C 0.0561 0.566 0.14449 0.0
C9 C 0.08931 0.53849 0.13388 0.0
O10 O 0.09019 0.54751 0.14243 0.0
O11 O 0.07882 0.53183 0.13286 0.0
O12 O 0.08898 0.5589 0.17117 0.0
O13 O 0.07941 0.53954 0.17331 0.0
O14 O 0.69271 0.30343 0.39311 0.0
Cd15 Cd 0.71118 0.31054 0.39714 0.0
Cd16 Cd 0.69687 0.3255 0.41295 0.0
O17 O 0.68211 0.31196 0.40986 0.0
O18 O 0.72228 0.29769 0.38766 0.0
O19 O 0.72267 0.29977 0.40922 0.0
C20 C 0.72657 0.29367 0.39883 0.0
C21 C 0.70195 0.33493 0.43306 0.0
C22 C 0.68232 0.30448 0.3999 0.0
C23 C 0.70898 0.33849 0.3897 0.0
O24 O 0.69974 0.3388 0.39804 0.0
O25 O 0.7161 0.32831 0.38867 0.0
O26 O 0.69064 0.33654 0.42767 0.0
O27 O 0.71011 0.32694 0.42758 0.0
O28 O 0.94531 0.95125 0.63972 0.0
Cd29 Cd 0.93757 0.96803 0.64778 0.0
Cd30 Cd 0.92474 0.95169 0.66168 0.0
O31 O 0.93944 0.93877 0.65632 0.0
O32 O 0.95065 0.9822 0.6452 0.0
O33 O 0.94619 0.97333 0.6646 0.0
C34 C 0.95327 0.98113 0.65754 0.0
C35 C 0.91572 0.9537 0.6825 0.0
C36 C 0.9458 0.94032 0.64569 0.0
C37 C 0.90995 0.96577 0.64079 0.0
O38 O 0.91072 0.95539 0.64763 0.0
O39 O 0.91949 0.97381 0.64063 0.0
O40 O 0.91478 0.94294 0.67592 0.0
O41 O 0.92288 0.96302 0.67777 0.0
O42 O 0.30404 0.19364 0.88936 0.0
Cd43 Cd 0.28485 0.18805 0.89179 0.0
Cd44 Cd 0.29726 0.16983 0.90742 0.0
O45 O 0.31333 0.18198 0.905 0.0
O46 O 0.27569 0.20269 0.88282 0.0
O47 O 0.27357 0.19888 0.90402 0.0
C48 C 0.27101 0.20619 0.894 0.0
C49 C 0.29386 0.1584 0.92696 0.0
C50 C 0.31411 0.19059 0.89602 0.0
C51 C 0.2844 0.16054 0.88233 0.0
O52 O 0.29251 0.15833 0.89152 0.0
O53 O 0.279 0.17173 0.88126 0.0
O54 O 0.30416 0.15661 0.91993 0.0
O55 O 0.28564 0.16733 0.92338 0.0
O56 O 0.0527 0.4439 0.85983 0.0
Cd57 Cd 0.05946 0.46251 0.856 0.0
Cd58 Cd 0.0757 0.44854 0.84083 0.0
O59 O 0.06266 0.43332 0.84388 0.0
O60 O 0.04596 0.47313 0.86508 0.0
O61 O 0.04874 0.47373 0.84361 0.0
C62 C 0.04217 0.47736 0.85381 0.0
C63 C 0.08552 0.45269 0.82065 0.0
C64 C 0.05457 0.43343 0.85336 0.0
C65 C 0.08716 0.46146 0.86462 0.0
O66 O 0.08835 0.45245 0.8561 0.0
O67 O 0.07655 0.46796 0.86539 0.0
O68 O 0.08745 0.44186 0.82686 0.0
O69 O 0.07721 0.46096 0.82544 0.0
O70 O 0.79989 0.29926 0.10774 0.0
Cd71 Cd 0.78262 0.30698 0.10073 0.0
Cd72 Cd 0.79851 0.32098 0.0867 0.0
O73 O 0.81181 0.30632 0.09119 0.0
O74 O 0.76876 0.29372 0.10412 0.0
O75 O 0.7761 0.29857 0.08418 0.0
C76 C 0.7688 0.2914 0.09168 0.0
C77 C 0.79705 0.33151 0.06651 0.0
C78 C 0.81068 0.2994 0.10152 0.0
C79 C 0.78458 0.33445 0.10867 0.0
O80 O 0.79469 0.33424 0.10141 0.0
O81 O 0.77685 0.32466 0.10884 0.0
O82 O 0.80759 0.33197 0.07344 0.0
O83 O 0.78762 0.32402 0.07045 0.0
O84 O 0.9462 0.05402 0.35596 0.0
Cd85 Cd 0.9396 0.0353 0.35232 0.0
Cd86 Cd 0.92378 0.04918 0.3361 0.0
O87 O 0.93704 0.06417 0.33925 0.0
O88 O 0.95296 0.02473 0.36171 0.0
O89 O 0.95052 0.024 0.3402 0.0
C90 C 0.95694 0.02044 0.35053 0.0
C91 C 0.91346 0.04608 0.31594 0.0
C92 C 0.9447 0.06429 0.34908 0.0
C93 C 0.91163 0.03663 0.35988 0.0
O94 O 0.91087 0.04554 0.3512 0.0
O95 O 0.92213 0.03002 0.36116 0.0
O96 O 0.91211 0.05676 0.32252 0.0
O97 O 0.92149 0.03733 0.32032 0.0
O98 O 0.20197 0.19949 0.61191 0.0
Cd99 Cd 0.2193 0.19122 0.60579 0.0
Cd100 Cd 0.20361 0.17624 0.59255 0.0
O101 O 0.1901 0.19098 0.59601 0.0
O102 O 0.2331 0.20469 0.60846 0.0
O103 O 0.22618 0.19835 0.58879 0.0
C104 C 0.2333 0.20608 0.59588 0.0
C105 C 0.20509 0.16469 0.5729 0.0
C106 C 0.19118 0.19872 0.60574 0.0
C107 C 0.21706 0.16453 0.61592 0.0
O108 O 0.20727 0.16407 0.60823 0.0
O109 O 0.22478 0.17432 0.61558 0.0
O110 O 0.19461 0.16445 0.57994 0.0
O111 O 0.21453 0.17235 0.57647 0.0
O112 O 0.14156 0.05007 0.55579 0.0
Cd113 Cd 0.14737 0.06019 0.53932 0.0
Cd114 Cd 0.16218 0.07119 0.55696 0.0
O115 O 0.15847 0.05481 0.5683 0.0
O116 O 0.13875 0.04982 0.52532 0.0
O117 O 0.16029 0.05078 0.52763 0.0
C118 C 0.15019 0.04576 0.52184 0.0
C119 C 0.18234 0.08086 0.55299 0.0
C120 C 0.14806 0.04826 0.56626 0.0
C121 C 0.14036 0.08724 0.54648 0.0
O122 O 0.14753 0.08506 0.55643 0.0
O123 O 0.14011 0.07903 0.53709 0.0
O124 O 0.1774 0.08053 0.56463 0.0
O125 O 0.17643 0.07448 0.54376 0.0
O126 O 0.19695 0.39323 0.80785 0.0
Cd127 Cd 0.18921 0.39806 0.78986 0.0
Cd128 Cd 0.17608 0.41445 0.80496 0.0
O129 O 0.19027 0.41053 0.81887 0.0
O130 O 0.20125 0.38861 0.77788 0.0
O131 O 0.1999 0.41024 0.77846 0.0
C132 C 0.20555 0.39983 0.77396 0.0
C133 C 0.16732 0.43505 0.80071 0.0
C134 C 0.19701 0.40006 0.81826 0.0
C135 C 0.16116 0.39207 0.79335 0.0
O136 O 0.16186 0.40027 0.80269 0.0
O137 O 0.17084 0.39058 0.78563 0.0
O138 O 0.16614 0.42957 0.81203 0.0
O139 O 0.17457 0.42935 0.79202 0.0
O140 O 0.86096 0.44725 0.04783 0.0
Cd141 Cd 0.85396 0.43942 0.03061 0.0
Cd142 Cd 0.83976 0.42562 0.04643 0.0
O143 O 0.84437 0.44025 0.05974 0.0
O144 O 0.8568 0.45268 0.01665 0.0
O145 O 0.83712 0.44741 0.02441 0.0
C146 C 0.84431 0.45474 0.01696 0.0
C147 C 0.81949 0.41526 0.04481 0.0
C148 C 0.85473 0.44714 0.05862 0.0
C149 C 0.8618 0.41196 0.03274 0.0
O150 O 0.85437 0.41224 0.04273 0.0
O151 O 0.86217 0.42173 0.02499 0.0
O152 O 0.82632 0.41476 0.05542 0.0
O153 O 0.82357 0.42272 0.03541 0.0
O154 O 0.80133 0.11049 0.30435 0.0
Cd155 Cd 0.8077 0.1058 0.28581 0.0
Cd156 Cd 0.82288 0.08984 0.29994 0.0
O157 O 0.80987 0.09377 0.31498 0.0
O158 O 0.79437 0.11482 0.27491 0.0
O159 O 0.79656 0.09326 0.27524 0.0
C160 C 0.79021 0.10347 0.27125 0.0
C161 C 0.8321 0.06923 0.29652 0.0
C162 C 0.8026 0.10389 0.31483 0.0
C163 C 0.83575 0.11277 0.28669 0.0
O164 O 0.8363 0.1044 0.2959 0.0
O165 O 0.82528 0.11405 0.28004 0.0
O166 O 0.83401 0.07565 0.30721 0.0
O167 O 0.82409 0.07405 0.28798 0.0
O168 O 0.14177 0.9479 0.44245 0.0
Cd169 Cd 0.14594 0.94169 0.46118 0.0
Cd170 Cd 0.16179 0.92602 0.44725 0.0
O171 O 0.15851 0.93907 0.43208 0.0
O172 O 0.13671 0.95527 0.4716 0.0
O173 O 0.15824 0.95292 0.47196 0.0
C174 C 0.14797 0.95943 0.47552 0.0
C175 C 0.18185 0.91596 0.45139 0.0
C176 C 0.14851 0.9465 0.43207 0.0
C177 C 0.13844 0.91375 0.46025 0.0
O178 O 0.14678 0.91307 0.45102 0.0
O179 O 0.13738 0.92421 0.46695 0.0
O180 O 0.17577 0.91434 0.44045 0.0
O181 O 0.17711 0.92426 0.4597 0.0
O182 O 0.30053 0.39028 0.69283 0.0
Cd183 Cd 0.30803 0.395 0.71097 0.0
Cd184 Cd 0.3226 0.41028 0.6958 0.0
O185 O 0.30847 0.40695 0.68167 0.0
O186 O 0.2954 0.386 0.72269 0.0
O187 O 0.29748 0.40757 0.7221 0.0
C188 C 0.29142 0.39735 0.72653 0.0
C189 C 0.33246 0.43039 0.69998 0.0
C190 C 0.30112 0.3969 0.6823 0.0
C191 C 0.33585 0.38746 0.70836 0.0
O192 O 0.33584 0.39532 0.6987 0.0
O193 O 0.32592 0.38682 0.71588 0.0
O194 O 0.3336 0.42468 0.68877 0.0
O195 O 0.32468 0.42525 0.70857 0.0
O196 O 0.85747 0.55084 0.94966 0.0
Cd197 Cd 0.85037 0.55842 0.96697 0.0
Cd198 Cd 0.83574 0.57163 0.9513 0.0
O199 O 0.84037 0.557 0.93803 0.0
O200 O 0.8541 0.54532 0.98088 0.0
O201 O 0.83406 0.54959 0.97347 0.0
C202 C 0.84173 0.54264 0.9808 0.0
C203 C 0.81524 0.58126 0.95376 0.0
C204 C 0.85101 0.55056 0.939 0.0
C205 C 0.85738 0.58609 0.96461 0.0
O206 O 0.85011 0.58544 0.95452 0.0
O207 O 0.85784 0.57646 0.97253 0.0
O208 O 0.82159 0.58197 0.94286 0.0
O209 O 0.81995 0.57394 0.96297 0.0
O210 O 0.69617 0.10783 0.19193 0.0
Cd211 Cd 0.68758 0.10277 0.20948 0.0
Cd212 Cd 0.67446 0.08757 0.19344 0.0
O213 O 0.68943 0.09101 0.18024 0.0
O214 O 0.69922 0.11193 0.22204 0.0
O215 O 0.69781 0.09032 0.22103 0.0
C216 C 0.70334 0.10064 0.22589 0.0
C217 C 0.66517 0.06738 0.19823 0.0
C218 C 0.69651 0.10121 0.1814 0.0
C219 C 0.6599 0.10992 0.20505 0.0
O220 O 0.66074 0.10226 0.19527 0.0
O221 O 0.66923 0.11051 0.2133 0.0
O222 O 0.66434 0.07244 0.18666 0.0
O223 O 0.6724 0.07323 0.20684 0.0
O224 O 0.55188 0.13718 0.04835 0.0
Cd225 Cd 0.53405 0.14217 0.05633 0.0
Cd226 Cd 0.54972 0.15741 0.07071 0.0
O227 O 0.56361 0.15334 0.05652 0.0
O228 O 0.52191 0.13351 0.0439 0.0
O229 O 0.52288 0.15505 0.04621 0.0
C230 C 0.51816 0.14497 0.04015 0.0
C231 C 0.54729 0.17805 0.08016 0.0
C232 C 0.56261 0.14346 0.04898 0.0
C233 C 0.53685 0.13462 0.08415 0.0
O234 O 0.54627 0.14277 0.08423 0.0
O235 O 0.52948 0.13368 0.07413 0.0
O236 O 0.55797 0.17142 0.08137 0.0
O237 O 0.53814 0.17338 0.07274 0.0
O238 O 0.05558 0.85934 0.44528 0.0
Cd239 Cd 0.03786 0.85351 0.43761 0.0
Cd240 Cd 0.05358 0.83755 0.42497 0.0
O241 O 0.06717 0.84218 0.43927 0.0
O242 O 0.02545 0.86279 0.44932 0.0
O243 O 0.02701 0.84117 0.44868 0.0
C244 C 0.02206 0.85156 0.454 0.0
C245 C 0.04987 0.81661 0.41682 0.0
C246 C 0.06618 0.85282 0.44569 0.0
C247 C 0.04123 0.85908 0.4095 0.0
O248 O 0.05097 0.85136 0.41044 0.0
O249 O 0.03335 0.86033 0.41907 0.0
O250 O 0.06106 0.82233 0.4155 0.0
O251 O 0.04101 0.82232 0.42386 0.0
O252 O 0.38836 0.30264 0.69828 0.0
Cd253 Cd 0.39247 0.28403 0.69174 0.0
Cd254 Cd 0.40805 0.29802 0.67558 0.0
O255 O 0.40449 0.31318 0.68856 0.0
O256 O 0.38387 0.27333 0.70549 0.0
O257 O 0.4053 0.2732 0.7023 0.0
C258 C 0.39531 0.26943 0.70912 0.0
C259 C 0.42843 0.29546 0.66553 0.0
C260 C 0.39485 0.31311 0.69645 0.0
C261 C 0.38434 0.28473 0.66394 0.0
O262 O 0.393 0.29362 0.66281 0.0
O263 O 0.38322 0.27839 0.67462 0.0
O264 O 0.42141 0.30579 0.66378 0.0
O265 O 0.42428 0.28671 0.67368 0.0
O266 O 0.93941 0.64035 0.9479 0.0
Cd267 Cd 0.95727 0.64528 0.93987 0.0
Cd268 Cd 0.94175 0.66064 0.92629 0.0
O269 O 0.928 0.6572 0.94077 0.0
O270 O 0.96947 0.63609 0.95188 0.0
O271 O 0.96871 0.65769 0.95028 0.0
C272 C 0.97339 0.64738 0.95596 0.0
C273 C 0.9471 0.68078 0.91717 0.0
C274 C 0.92888 0.64698 0.94786 0.0
C275 C 0.95364 0.63823 0.91203 0.0
O276 O 0.94391 0.64598 0.91259 0.0
O277 O 0.96158 0.63753 0.92162 0.0
O278 O 0.93551 0.67587 0.91596 0.0
O279 O 0.95537 0.67484 0.92474 0.0
O280 O 0.10928 0.69547 0.19306 0.0
Cd281 Cd 0.1055 0.71409 0.1863 0.0
Cd282 Cd 0.08982 0.69993 0.17031 0.0
O283 O 0.09305 0.68489 0.18352 0.0
O284 O 0.1151 0.72471 0.19947 0.0
O285 O 0.09357 0.72553 0.1973 0.0
C286 C 0.10399 0.7291 0.20354 0.0
C287 C 0.06963 0.70357 0.16028 0.0
C288 C 0.10269 0.68502 0.19141 0.0
C289 C 0.11352 0.71272 0.15841 0.0
O290 O 0.10496 0.70371 0.15748 0.0
O291 O 0.11453 0.71933 0.16893 0.0
O292 O 0.07599 0.69279 0.15866 0.0
O293 O 0.07425 0.71208 0.16844 0.0
O294 O 0.45034 0.86719 0.05381 0.0
Cd295 Cd 0.47006 0.86542 0.05729 0.0
Cd296 Cd 0.45937 0.85135 0.07953 0.0
O297 O 0.44195 0.85523 0.06979 0.0
O298 O 0.47709 0.87276 0.04073 0.0
O299 O 0.48036 0.85219 0.04666 0.0
C300 C 0.48173 0.86134 0.03802 0.0
C301 C 0.45933 0.83357 0.09409 0.0
C302 C 0.44048 0.8623 0.05962 0.0
C303 C 0.47562 0.87655 0.0836 0.0
O304 O 0.46887 0.86704 0.08795 0.0
O305 O 0.47779 0.87771 0.0714 0.0
O306 O 0.45279 0.84408 0.09632 0.0
O307 O 0.46559 0.83266 0.08314 0.0
O308 O 0.39332 0.18865 0.80305 0.0
Cd309 Cd 0.39761 0.20658 0.81135 0.0
Cd310 Cd 0.41293 0.19117 0.82514 0.0
O311 O 0.41025 0.17753 0.81043 0.0
O312 O 0.38783 0.21852 0.79954 0.0
O313 O 0.40945 0.2186 0.80091 0.0
C314 C 0.3989 0.22293 0.79539 0.0
C315 C 0.43267 0.19714 0.83469 0.0
C316 C 0.4002 0.17827 0.80311 0.0
C317 C 0.39008 0.20244 0.83904 0.0
O318 O 0.39789 0.19276 0.83851 0.0
O319 O 0.38958 0.21053 0.82956 0.0
O320 O 0.42814 0.18537 0.83571 0.0
O321 O 0.42661 0.20526 0.82705 0.0
O322 O 0.6071 0.30614 0.30465 0.0
Cd323 Cd 0.60236 0.28795 0.31204 0.0
Cd324 Cd 0.58651 0.30282 0.32594 0.0
O325 O 0.59005 0.31709 0.31201 0.0
O326 O 0.61187 0.27632 0.29972 0.0
O327 O 0.59025 0.27675 0.30103 0.0
C328 C 0.60069 0.27245 0.29531 0.0
C329 C 0.5661 0.29765 0.33458 0.0
C330 C 0.60033 0.31658 0.30499 0.0
C331 C 0.60902 0.29073 0.34007 0.0
O332 O 0.601 0.30025 0.33979 0.0
O333 O 0.61006 0.28319 0.33018 0.0
O334 O 0.57127 0.30907 0.33622 0.0
O335 O 0.57201 0.28942 0.32697 0.0
O336 O 0.04783 0.0374 0.62722 0.0
Cd337 Cd 0.05623 0.02174 0.63677 0.0
Cd338 Cd 0.06785 0.03963 0.65093 0.0
O339 O 0.05192 0.05025 0.64405 0.0
O340 O 0.04347 0.00713 0.63795 0.0
O341 O 0.04937 0.01949 0.65496 0.0
C342 C 0.04192 0.01043 0.6501 0.0
C343 C 0.07763 0.04604 0.67061 0.0
C344 C 0.04618 0.04822 0.63316 0.0
C345 C 0.0839 0.02429 0.63119 0.0
O346 O 0.08245 0.03472 0.63784 0.0
O347 O 0.07456 0.01608 0.63038 0.0
O348 O 0.07691 0.05375 0.66068 0.0
O349 O 0.07204 0.03472 0.6698 0.0
O350 O 0.6945 0.804 0.89167 0.0
Cd351 Cd 0.71273 0.81119 0.89648 0.0
Cd352 Cd 0.69766 0.82581 0.91204 0.0
O353 O 0.68324 0.81208 0.90822 0.0
O354 O 0.72423 0.79858 0.88716 0.0
O355 O 0.72378 0.80019 0.90876 0.0
C356 C 0.72806 0.79429 0.8984 0.0
C357 C 0.70166 0.83528 0.93237 0.0
C358 C 0.68389 0.80478 0.89813 0.0
C359 C 0.71054 0.8392 0.8894 0.0
O360 O 0.701 0.83928 0.8974 0.0
O361 O 0.71781 0.82912 0.88845 0.0
O362 O 0.69057 0.83671 0.92649 0.0
O363 O 0.71019 0.82743 0.92726 0.0
O364 O 0.94584 0.44409 0.14033 0.0
Cd365 Cd 0.93924 0.46288 0.14344 0.0
Cd366 Cd 0.92236 0.44906 0.15909 0.0
O367 O 0.9355 0.43388 0.1563 0.0
O368 O 0.95291 0.47296 0.13396 0.0
O369 O 0.95008 0.4745 0.15537 0.0
C370 C 0.95673 0.47761 0.14505 0.0
C371 C 0.91136 0.45192 0.17894 0.0
C372 C 0.94377 0.43377 0.14699 0.0
C373 C 0.91153 0.46183 0.13471 0.0
O374 O 0.91014 0.45312 0.14351 0.0
O375 O 0.92224 0.46814 0.13374 0.0
O376 O 0.91004 0.44143 0.17206 0.0
O377 O 0.91966 0.46064 0.17502 0.0
O378 O 0.29671 0.7027 0.38798 0.0
Cd379 Cd 0.28057 0.69381 0.3963 0.0
Cd380 Cd 0.29793 0.68198 0.4098 0.0
O381 O 0.30946 0.69787 0.40469 0.0
O382 O 0.26548 0.70595 0.39439 0.0
O383 O 0.27527 0.70177 0.41342 0.0
C384 C 0.26674 0.70839 0.40676 0.0
C385 C 0.29705 0.67233 0.43042 0.0
C386 C 0.30752 0.70408 0.39404 0.0
C387 C 0.28454 0.66646 0.38908 0.0
O388 O 0.29512 0.66803 0.39548 0.0
O389 O 0.27578 0.67533 0.38939 0.0
O390 O 0.30772 0.67241 0.42363 0.0
O391 O 0.28711 0.67883 0.42602 0.0
O392 O 0.05399 0.94164 0.35483 0.0
Cd393 Cd 0.06113 0.96002 0.35043 0.0
Cd394 Cd 0.07605 0.94518 0.3349 0.0
O395 O 0.06243 0.9306 0.33832 0.0
O396 O 0.04835 0.97122 0.35989 0.0
O397 O 0.05017 0.97127 0.33831 0.0
C398 C 0.04414 0.97527 0.3487 0.0
C399 C 0.08565 0.94956 0.3147 0.0
C400 C 0.05495 0.9311 0.34827 0.0
C401 C 0.08911 0.95786 0.35783 0.0
O402 O 0.08933 0.94837 0.34976 0.0
O403 O 0.07898 0.96509 0.35866 0.0
O404 O 0.08713 0.93841 0.32045 0.0
O405 O 0.07769 0.95796 0.31986 0.0
O406 O 0.80744 0.80235 0.6074 0.0
Cd407 Cd 0.789 0.80915 0.60285 0.0
Cd408 Cd 0.80379 0.82444 0.58741 0.0
O409 O 0.81844 0.81087 0.59091 0.0
O410 O 0.77798 0.796 0.61203 0.0
O411 O 0.77808 0.79812 0.59048 0.0
C412 C 0.77413 0.79184 0.60075 0.0
C413 C 0.8001 0.83458 0.56731 0.0
C414 C 0.818 0.80342 0.60089 0.0
C415 C 0.79069 0.83703 0.61048 0.0
O416 O 0.80017 0.83744 0.60242 0.0
O417 O 0.78358 0.8268 0.61126 0.0
O418 O 0.81103 0.83592 0.57348 0.0
O419 O 0.79154 0.82649 0.57198 0.0
O420 O 0.94294 0.55407 0.8591 0.0
Cd421 Cd 0.93658 0.53529 0.85544 0.0
Cd422 Cd 0.9201 0.54894 0.83997 0.0
O423 O 0.93289 0.56436 0.84301 0.0
O424 O 0.95013 0.52511 0.86493 0.0
O425 O 0.94772 0.52405 0.84344 0.0
C426 C 0.95418 0.52074 0.85382 0.0
C427 C 0.91023 0.54494 0.81977 0.0
C428 C 0.94093 0.56446 0.85253 0.0
C429 C 0.90879 0.53595 0.86384 0.0
O430 O 0.90749 0.54487 0.85523 0.0
O431 O 0.9195 0.52963 0.86473 0.0
O432 O 0.90822 0.55566 0.82612 0.0
O433 O 0.9186 0.53667 0.82444 0.0
O434 O 0.19955 0.69904 0.10656 0.0
Cd435 Cd 0.21681 0.69151 0.09935 0.0
Cd436 Cd 0.20116 0.67786 0.08511 0.0
O437 O 0.18767 0.69227 0.08986 0.0
O438 O 0.23064 0.70485 0.10246 0.0
O439 O 0.22287 0.69998 0.08268 0.0
C440 C 0.23026 0.70721 0.09003 0.0
C441 C 0.20351 0.6681 0.06466 0.0
C442 C 0.18876 0.69897 0.10033 0.0
C443 C 0.21496 0.66391 0.10679 0.0
O444 O 0.20485 0.66424 0.09952 0.0
O445 O 0.22267 0.6737 0.10714 0.0
O446 O 0.19272 0.66724 0.07116 0.0
O447 O 0.21266 0.67562 0.06918 0.0
O448 O 0.14109 0.55403 0.04818 0.0
Cd449 Cd 0.14837 0.56181 0.03105 0.0
Cd450 Cd 0.16257 0.57513 0.04698 0.0
O451 O 0.15783 0.56047 0.06019 0.0
O452 O 0.14497 0.54874 0.01703 0.0
O453 O 0.16486 0.55318 0.02476 0.0
C454 C 0.15736 0.54617 0.01731 0.0
C455 C 0.18306 0.58475 0.0445 0.0
C456 C 0.14732 0.55383 0.05897 0.0
C457 C 0.14103 0.5894 0.03337 0.0
O458 O 0.14819 0.58885 0.04354 0.0
O459 O 0.14075 0.57977 0.02546 0.0
O460 O 0.1767 0.58553 0.05539 0.0
O461 O 0.17837 0.57738 0.03533 0.0
O462 O 0.19877 0.89253 0.3096 0.0
Cd463 Cd 0.19076 0.89738 0.2917 0.0
Cd464 Cd 0.17711 0.91276 0.30715 0.0
O465 O 0.1914 0.90926 0.32104 0.0
O466 O 0.20244 0.88759 0.27968 0.0
O467 O 0.20151 0.90924 0.27997 0.0
C468 C 0.20681 0.89865 0.27546 0.0
C469 C 0.16855 0.93302 0.30141 0.0
C470 C 0.19858 0.89912 0.32017 0.0
C471 C 0.16277 0.8905 0.2952 0.0
O472 O 0.16323 0.89824 0.30494 0.0
O473 O 0.17245 0.88977 0.28738 0.0
O474 O 0.16702 0.92827 0.31303 0.0
O475 O 0.17609 0.9268 0.29332 0.0
O476 O 0.85689 0.9503 0.55774 0.0
Cd477 Cd 0.85195 0.9426 0.53974 0.0
Cd478 Cd 0.8367 0.92834 0.55493 0.0
O479 O 0.84012 0.9426 0.56893 0.0
O480 O 0.86013 0.95536 0.52757 0.0
O481 O 0.83867 0.95267 0.52905 0.0
C482 C 0.84852 0.95898 0.52418 0.0
C483 C 0.81658 0.91854 0.55072 0.0
C484 C 0.85023 0.94987 0.56826 0.0
C485 C 0.85944 0.91482 0.5425 0.0
O486 O 0.85155 0.91496 0.55213 0.0
O487 O 0.86017 0.9247 0.53491 0.0
O488 O 0.82221 0.91747 0.56198 0.0
O489 O 0.82177 0.92627 0.54213 0.0
O490 O 0.80067 0.60859 0.80363 0.0
Cd491 Cd 0.80787 0.60331 0.78554 0.0
Cd492 Cd 0.82141 0.58718 0.80057 0.0
O493 O 0.80747 0.59135 0.81466 0.0
O494 O 0.79549 0.61239 0.77364 0.0
O495 O 0.79684 0.59078 0.77487 0.0
C496 C 0.79107 0.60106 0.77022 0.0
C497 C 0.83009 0.56641 0.79692 0.0
C498 C 0.8008 0.60185 0.81411 0.0
C499 C 0.83599 0.60935 0.7881 0.0
O500 O 0.83554 0.60135 0.79765 0.0
O501 O 0.82612 0.61063 0.7806 0.0
O502 O 0.83151 0.57233 0.80799 0.0
O503 O 0.82273 0.57183 0.78814 0.0
O504 O 0.1375 0.44967 0.95212 0.0
Cd505 Cd 0.14456 0.44232 0.96953 0.0
Cd506 Cd 0.15898 0.42832 0.95428 0.0
O507 O 0.15419 0.44243 0.9405 0.0
O508 O 0.14191 0.45591 0.9832 0.0
O509 O 0.16149 0.45038 0.97537 0.0
C510 C 0.15441 0.45789 0.98274 0.0
C511 C 0.17957 0.41869 0.95624 0.0
C512 C 0.14378 0.44926 0.94136 0.0
C513 C 0.13704 0.41471 0.9682 0.0
O514 O 0.14459 0.41474 0.95829 0.0
O515 O 0.1365 0.42472 0.97561 0.0
O516 O 0.17274 0.4176 0.94567 0.0
O517 O 0.17522 0.42623 0.96543 0.0
O518 O 0.30114 0.88872 0.19259 0.0
Cd519 Cd 0.30851 0.89144 0.21115 0.0
Cd520 Cd 0.32646 0.90509 0.19665 0.0
O521 O 0.31286 0.90325 0.18173 0.0
O522 O 0.29441 0.88297 0.22151 0.0
O523 O 0.29893 0.90408 0.22315 0.0
C524 C 0.2916 0.89426 0.22638 0.0
C525 C 0.33883 0.92408 0.19967 0.0
C526 C 0.30367 0.89482 0.18205 0.0
C527 C 0.33519 0.87998 0.20946 0.0
O528 O 0.33725 0.88851 0.20061 0.0
O529 O 0.32462 0.88019 0.21605 0.0
O530 O 0.33973 0.9172 0.18913 0.0
O531 O 0.33028 0.92067 0.20835 0.0
O532 O 0.85881 0.05279 0.44368 0.0
Cd533 Cd 0.85344 0.06079 0.46141 0.0
Cd534 Cd 0.83803 0.07412 0.44601 0.0
O535 O 0.84188 0.05972 0.43226 0.0
O536 O 0.86118 0.04832 0.47415 0.0
O537 O 0.83977 0.05101 0.47184 0.0
C538 C 0.84943 0.04478 0.47718 0.0
C539 C 0.81764 0.08315 0.45056 0.0
C540 C 0.85221 0.05279 0.43313 0.0
C541 C 0.86042 0.08857 0.45806 0.0
O542 O 0.85247 0.08802 0.44848 0.0
O543 O 0.86141 0.0789 0.46588 0.0
O544 O 0.82298 0.08432 0.43916 0.0
O545 O 0.82332 0.07569 0.4591 0.0
O546 O 0.6935 0.60695 0.69309 0.0
Cd547 Cd 0.68621 0.60253 0.71136 0.0
Cd548 Cd 0.67106 0.58712 0.69615 0.0
O549 O 0.68512 0.59047 0.68194 0.0
O550 O 0.69913 0.61172 0.72261 0.0
O551 O 0.69697 0.59017 0.72255 0.0
C552 C 0.7032 0.60045 0.72656 0.0
C553 C 0.66044 0.56711 0.69904 0.0
C554 C 0.69267 0.60038 0.68255 0.0
C555 C 0.65845 0.61038 0.709 0.0
O556 O 0.65818 0.60228 0.69954 0.0
O557 O 0.66852 0.61111 0.71632 0.0
O558 O 0.65959 0.57356 0.68822 0.0
O559 O 0.66827 0.57146 0.708 0.0
O560 O 0.54682 0.63599 0.54924 0.0
Cd561 Cd 0.52938 0.64278 0.55672 0.0
Cd562 Cd 0.54445 0.65663 0.57156 0.0
O563 O 0.55833 0.65234 0.55737 0.0
O564 O 0.51593 0.64077 0.54283 0.0
O565 O 0.5237 0.66007 0.54935 0.0
C566 C 0.51647 0.65334 0.54139 0.0
C567 C 0.54296 0.67695 0.58187 0.0
C568 C 0.55755 0.64227 0.55004 0.0
C569 C 0.53024 0.63406 0.58396 0.0
O570 O 0.54005 0.64172 0.58449 0.0
O571 O 0.52306 0.63385 0.57377 0.0
O572 O 0.55328 0.66977 0.58289 0.0
O573 O 0.53369 0.67307 0.57416 0.0
O574 O 0.05459 0.36085 0.94986 0.0
Cd575 Cd 0.03724 0.35451 0.94171 0.0
Cd576 Cd 0.05313 0.33951 0.9293 0.0
O577 O 0.0664 0.3438 0.94401 0.0
O578 O 0.02399 0.36176 0.95388 0.0
O579 O 0.02754 0.34046 0.95164 0.0
C580 C 0.02166 0.34993 0.95768 0.0
C581 C 0.04822 0.31891 0.92105 0.0
C582 C 0.06521 0.35438 0.9505 0.0
C583 C 0.04084 0.36097 0.91393 0.0
O584 O 0.05083 0.3536 0.91498 0.0
O585 O 0.03266 0.36167 0.92332 0.0
O586 O 0.05976 0.32393 0.91978 0.0
O587 O 0.03975 0.32505 0.92821 0.0
O588 O 0.37856 0.7882 0.19473 0.0
Cd589 Cd 0.3853 0.77044 0.18806 0.0
Cd590 Cd 0.40013 0.78463 0.17232 0.0
O591 O 0.39459 0.79922 0.18534 0.0
O592 O 0.38415 0.75768 0.20267 0.0
O593 O 0.40299 0.76562 0.19503 0.0
C594 C 0.39675 0.75866 0.20361 0.0
C595 C 0.42053 0.78672 0.1622 0.0
C596 C 0.38473 0.79889 0.19297 0.0
C597 C 0.37758 0.76908 0.16055 0.0
O598 O 0.38609 0.77809 0.15935 0.0
O599 O 0.37617 0.76327 0.17148 0.0
O600 O 0.41114 0.79482 0.16 0.0
O601 O 0.41867 0.77745 0.1706 0.0
O602 O 0.94385 0.14194 0.44248 0.0
Cd603 Cd 0.9617 0.14683 0.43439 0.0
Cd604 Cd 0.94629 0.16211 0.42053 0.0
O605 O 0.93238 0.15852 0.43478 0.0
O606 O 0.97398 0.13749 0.44618 0.0
O607 O 0.97322 0.15912 0.44488 0.0
C608 C 0.97801 0.14872 0.45031 0.0
C609 C 0.95122 0.18254 0.41179 0.0
C610 C 0.93325 0.14847 0.44211 0.0
C611 C 0.9583 0.13961 0.4065 0.0
O612 O 0.94869 0.14752 0.40677 0.0
O613 O 0.96602 0.13887 0.41626 0.0
O614 O 0.9398 0.17731 0.41034 0.0
O615 O 0.95962 0.17665 0.41924 0.0
O616 O 0.12037 0.20505 0.70358 0.0
Cd617 Cd 0.11294 0.22127 0.6942 0.0
Cd618 Cd 0.09873 0.20342 0.68257 0.0
O619 O 0.10366 0.1923 0.69885 0.0
O620 O 0.11895 0.23579 0.70551 0.0
O621 O 0.09803 0.23036 0.70343 0.0
C622 C 0.10694 0.23732 0.70915 0.0
C623 C 0.07803 0.20249 0.67302 0.0
C624 C 0.11415 0.1944 0.70526 0.0
C625 C 0.11991 0.2164 0.66689 0.0
O626 O 0.11299 0.20615 0.66846 0.0
O627 O 0.12014 0.22517 0.67574 0.0
O628 O 0.08562 0.19241 0.67336 0.0
O629 O 0.08178 0.21305 0.67893 0.0
O630 O 0.44592 0.35979 0.55249 0.0
Cd631 Cd 0.46456 0.3562 0.55923 0.0
Cd632 Cd 0.45075 0.34029 0.57547 0.0
O633 O 0.43557 0.34369 0.56248 0.0
O634 O 0.47518 0.36518 0.54565 0.0
O635 O 0.47585 0.34374 0.54871 0.0
C636 C 0.47945 0.35388 0.54201 0.0
C637 C 0.4534 0.31994 0.58559 0.0
C638 C 0.43555 0.3532 0.55442 0.0
C639 C 0.46358 0.36428 0.5871 0.0
O640 O 0.45495 0.35536 0.58826 0.0
O641 O 0.46981 0.36562 0.57638 0.0
O642 O 0.44302 0.3269 0.58726 0.0
O643 O 0.46216 0.32412 0.57747 0.0
O644 O 0.38493 0.7039 0.30388 0.0
Cd645 Cd 0.39126 0.72189 0.31036 0.0
Cd646 Cd 0.40512 0.70772 0.32656 0.0
O647 O 0.40094 0.69291 0.3133 0.0
O648 O 0.38847 0.73431 0.29568 0.0
O649 O 0.40819 0.72786 0.30233 0.0
C650 C 0.40102 0.73424 0.29404 0.0
C651 C 0.42517 0.70892 0.33746 0.0
C652 C 0.39113 0.69323 0.30561 0.0
C653 C 0.38212 0.72265 0.33748 0.0
O654 O 0.39003 0.71312 0.33884 0.0
O655 O 0.38183 0.72905 0.32679 0.0
O656 O 0.41746 0.69903 0.33885 0.0
O657 O 0.42196 0.71793 0.32916 0.0
O658 O 0.60848 0.80801 0.80252 0.0
Cd659 Cd 0.60392 0.7897 0.80967 0.0
Cd660 Cd 0.58801 0.80434 0.82409 0.0
O661 O 0.59172 0.81897 0.81056 0.0
O662 O 0.6131 0.77829 0.79688 0.0
O663 O 0.59153 0.77866 0.79882 0.0
C664 C 0.60181 0.77448 0.79272 0.0
C665 C 0.56757 0.79976 0.83308 0.0
C666 C 0.60184 0.81852 0.80331 0.0
C667 C 0.61075 0.79189 0.83774 0.0
O668 O 0.6025 0.80123 0.83778 0.0
O669 O 0.61199 0.78471 0.82762 0.0
O670 O 0.57317 0.81097 0.83474 0.0
O671 O 0.57305 0.79143 0.82526 0.0
O672 O 0.54647 0.5482 0.63518 0.0
Cd673 Cd 0.55485 0.53139 0.64256 0.0
Cd674 Cd 0.5677 0.54768 0.65681 0.0
O675 O 0.55268 0.56042 0.65186 0.0
O676 O 0.54212 0.51683 0.64028 0.0
O677 O 0.54714 0.52553 0.65963 0.0
C678 C 0.54009 0.51754 0.65276 0.0
C679 C 0.57734 0.54587 0.67739 0.0
C680 C 0.54604 0.55901 0.64138 0.0
C681 C 0.58238 0.5344 0.63526 0.0
O682 O 0.58158 0.54448 0.64253 0.0
O683 O 0.57291 0.52629 0.63483 0.0
O684 O 0.57782 0.55666 0.67082 0.0
O685 O 0.57028 0.53639 0.67284 0.0
O686 O 0.19498 0.30479 0.8935 0.0
Cd687 Cd 0.21339 0.31174 0.89797 0.0
Cd688 Cd 0.19843 0.32672 0.91386 0.0
O689 O 0.18403 0.31295 0.91021 0.0
O690 O 0.22445 0.29913 0.88813 0.0
O691 O 0.22463 0.30037 0.90974 0.0
C692 C 0.22853 0.29459 0.89917 0.0
C693 C 0.20149 0.33666 0.93418 0.0
C694 C 0.18448 0.30562 0.90014 0.0
C695 C 0.21139 0.33982 0.89097 0.0
O696 O 0.20192 0.34001 0.89906 0.0
O697 O 0.21855 0.32966 0.88997 0.0
O698 O 0.19069 0.33787 0.92778 0.0
O699 O 0.21035 0.32887 0.92956 0.0
O700 O 0.45019 0.9607 0.13327 0.0
Cd701 Cd 0.44056 0.9757 0.14265 0.0
Cd702 Cd 0.42999 0.95695 0.15558 0.0
O703 O 0.44664 0.94694 0.1495 0.0
O704 O 0.4522 0.99128 0.14251 0.0
O705 O 0.44804 0.97944 0.16035 0.0
C706 C 0.45461 0.9887 0.15469 0.0
C707 C 0.42031 0.95533 0.17616 0.0
C708 C 0.4525 0.9498 0.13885 0.0
C709 C 0.41341 0.97077 0.13574 0.0
O710 O 0.4156 0.96008 0.14175 0.0
O711 O 0.42188 0.97992 0.13602 0.0
O712 O 0.42114 0.94532 0.16848 0.0
O713 O 0.42617 0.96602 0.17271 0.0
O714 O 0.80807 0.19805 0.39311 0.0
Cd715 Cd 0.78967 0.19091 0.39737 0.0
Cd716 Cd 0.80442 0.17555 0.41263 0.0
O717 O 0.81913 0.18907 0.40932 0.0
O718 O 0.77852 0.20387 0.38811 0.0
O719 O 0.77834 0.20163 0.40964 0.0
C720 C 0.77436 0.20784 0.39934 0.0
C721 C 0.80001 0.16578 0.43275 0.0
C722 C 0.81865 0.1968 0.39955 0.0
C723 C 0.79161 0.16301 0.38949 0.0
O724 O 0.80104 0.16251 0.39761 0.0
O725 O 0.78453 0.17325 0.38876 0.0
O726 O 0.81112 0.16422 0.42694 0.0
O727 O 0.79168 0.17388 0.42769 0.0
O728 O 0.55229 0.44415 0.35976 0.0
Cd729 Cd 0.55854 0.46295 0.35604 0.0
Cd730 Cd 0.57434 0.44964 0.33969 0.0
O731 O 0.56173 0.43413 0.34313 0.0
O732 O 0.54469 0.47338 0.36484 0.0
O733 O 0.54781 0.47381 0.3434 0.0
C734 C 0.54096 0.47736 0.35345 0.0
C735 C 0.58397 0.45354 0.31934 0.0
C736 C 0.55408 0.43387 0.35297 0.0
C737 C 0.58655 0.46233 0.36339 0.0
O738 O 0.58746 0.45366 0.3545 0.0
O739 O 0.57585 0.46854 0.36502 0.0
O740 O 0.58592 0.44279 0.32566 0.0
O741 O 0.57568 0.46185 0.3241 0.0
O742 O 0.30003 0.30129 0.61048 0.0
Cd743 Cd 0.2831 0.30914 0.6028 0.0
Cd744 Cd 0.29936 0.32209 0.58873 0.0
O745 O 0.31228 0.30727 0.59376 0.0
O746 O 0.26886 0.29622 0.60588 0.0
O747 O 0.27714 0.30051 0.58618 0.0
C748 C 0.26942 0.29361 0.59351 0.0
C749 C 0.29726 0.33156 0.56811 0.0
C750 C 0.31088 0.30084 0.60436 0.0
C751 C 0.28562 0.33676 0.60992 0.0
O752 O 0.29593 0.33598 0.60297 0.0
O753 O 0.27755 0.32725 0.6101 0.0
O754 O 0.30808 0.33226 0.57461 0.0
O755 O 0.28794 0.32434 0.57276 0.0
O756 O 0.44429 0.05297 0.86064 0.0
Cd757 Cd 0.43874 0.03382 0.85766 0.0
Cd758 Cd 0.42123 0.04605 0.84197 0.0
O759 O 0.43304 0.06228 0.84473 0.0
O760 O 0.45319 0.02437 0.86656 0.0
O761 O 0.44969 0.0229 0.84523 0.0
C762 C 0.45682 0.02001 0.85529 0.0
C763 C 0.41111 0.04187 0.82193 0.0
C764 C 0.44139 0.06306 0.85395 0.0
C765 C 0.41105 0.03297 0.8664 0.0
O766 O 0.40904 0.0413 0.85736 0.0
O767 O 0.42223 0.0276 0.86762 0.0
O768 O 0.40867 0.05233 0.82855 0.0
O769 O 0.41998 0.03395 0.82625 0.0
O770 O 0.70127 0.19724 0.1106 0.0
Cd771 Cd 0.71792 0.18891 0.10283 0.0
Cd772 Cd 0.70115 0.17631 0.0888 0.0
O773 O 0.68878 0.19158 0.09393 0.0
O774 O 0.73252 0.20154 0.1054 0.0
O775 O 0.72374 0.19709 0.08595 0.0
C776 C 0.73175 0.20396 0.09299 0.0
C777 C 0.70212 0.16619 0.06841 0.0
C778 C 0.69042 0.19799 0.10452 0.0
C779 C 0.71476 0.16139 0.10997 0.0
O780 O 0.70446 0.16245 0.10306 0.0
O781 O 0.72306 0.1707 0.1102 0.0
O782 O 0.69151 0.16615 0.07527 0.0
O783 O 0.71187 0.17317 0.07249 0.0
O784 O 0.63783 0.04971 0.05019 0.0
Cd785 Cd 0.64536 0.05781 0.03326 0.0
Cd786 Cd 0.65842 0.07158 0.04973 0.0
O787 O 0.65413 0.05649 0.06259 0.0
O788 O 0.64256 0.04481 0.01905 0.0
O789 O 0.66218 0.04964 0.0272 0.0
C790 C 0.65501 0.04258 0.01949 0.0
C791 C 0.67848 0.08221 0.04781 0.0
C792 C 0.64385 0.04957 0.0611 0.0
C793 C 0.63681 0.08504 0.0356 0.0
O794 O 0.64341 0.08455 0.04615 0.0
O795 O 0.63746 0.07561 0.02747 0.0
O796 O 0.67186 0.08256 0.05856 0.0
O797 O 0.67433 0.07476 0.03844 0.0
O798 O 0.69538 0.39129 0.30554 0.0
Cd799 Cd 0.68834 0.39598 0.28723 0.0
Cd800 Cd 0.67402 0.41205 0.30207 0.0
O801 O 0.68775 0.40826 0.31647 0.0
O802 O 0.70082 0.38621 0.27598 0.0
O803 O 0.69959 0.40785 0.276 0.0
C804 C 0.70534 0.3973 0.27197 0.0
C805 C 0.66488 0.4326 0.29822 0.0
C806 C 0.69481 0.398 0.31602 0.0
C807 C 0.66025 0.38938 0.28953 0.0
O808 O 0.66032 0.39753 0.29895 0.0
O809 O 0.67029 0.38821 0.28223 0.0
O810 O 0.6634 0.42666 0.30926 0.0
O811 O 0.67253 0.42737 0.28958 0.0
O812 O 0.3574 0.4467 0.5572 0.0
Cd813 Cd 0.35297 0.43882 0.53914 0.0
Cd814 Cd 0.33737 0.42462 0.55443 0.0
O815 O 0.34054 0.43905 0.56829 0.0
O816 O 0.36267 0.45085 0.52734 0.0
O817 O 0.34105 0.44949 0.52741 0.0
C818 C 0.35157 0.45506 0.52307 0.0
C819 C 0.31729 0.41484 0.54993 0.0
C820 C 0.35062 0.44636 0.56764 0.0
C821 C 0.36022 0.41094 0.54253 0.0
O822 O 0.35226 0.4112 0.55211 0.0
O823 O 0.36099 0.4207 0.53481 0.0
O824 O 0.3227 0.41388 0.56131 0.0
O825 O 0.32271 0.42243 0.54134 0.0
O826 O 0.30375 0.10963 0.79632 0.0
Cd827 Cd 0.31227 0.1012 0.7801 0.0
Cd828 Cd 0.32373 0.08695 0.79708 0.0
O829 O 0.30841 0.09283 0.80904 0.0
O830 O 0.30003 0.10331 0.76513 0.0
O831 O 0.30399 0.08422 0.77489 0.0
C832 C 0.29739 0.09098 0.76645 0.0
C833 C 0.33199 0.06575 0.79565 0.0
C834 C 0.30245 0.10364 0.80718 0.0
C835 C 0.33994 0.10733 0.7838 0.0
O836 O 0.33842 0.1005 0.79411 0.0
O837 O 0.33082 0.10781 0.7753 0.0
O838 O 0.33262 0.07236 0.80641 0.0
O839 O 0.32559 0.07074 0.78593 0.0
O840 O 0.64073 0.94841 0.94923 0.0
Cd841 Cd 0.64739 0.94049 0.96656 0.0
Cd842 Cd 0.66226 0.92727 0.95105 0.0
O843 O 0.65773 0.94184 0.93766 0.0
O844 O 0.64369 0.95341 0.98064 0.0
O845 O 0.66377 0.94884 0.9735 0.0
C846 C 0.65613 0.9558 0.98084 0.0
C847 C 0.68276 0.91775 0.95391 0.0
C848 C 0.64722 0.94851 0.93859 0.0
C849 C 0.64025 0.91284 0.96385 0.0
O850 O 0.64791 0.91341 0.95406 0.0
O851 O 0.63949 0.92251 0.9717 0.0
O852 O 0.67661 0.91698 0.9429 0.0
O853 O 0.67785 0.92506 0.96301 0.0
O854 O 0.80015 0.38652 0.19291 0.0
Cd855 Cd 0.80824 0.39199 0.21057 0.0
Cd856 Cd 0.82106 0.40786 0.19497 0.0
O857 O 0.80655 0.40365 0.18147 0.0
O858 O 0.79618 0.38357 0.22325 0.0
O859 O 0.79805 0.4051 0.22131 0.0
C860 C 0.7922 0.39512 0.22649 0.0
C861 C 0.82973 0.4286 0.19872 0.0
C862 C 0.79985 0.39317 0.1824 0.0
C863 C 0.83615 0.38576 0.20688 0.0
O864 O 0.8353 0.39372 0.19733 0.0
O865 O 0.82661 0.38453 0.21481 0.0
O866 O 0.83082 0.42291 0.1875 0.0
O867 O 0.82266 0.42299 0.20762 0.0
O868 O 0.35971 0.55428 0.44407 0.0
Cd869 Cd 0.35746 0.55985 0.46329 0.0
Cd870 Cd 0.34238 0.57869 0.45082 0.0
O871 O 0.3447 0.56665 0.43467 0.0
O872 O 0.36623 0.54497 0.47224 0.0
O873 O 0.34515 0.54922 0.47472 0.0
C874 C 0.35506 0.5417 0.47711 0.0
C875 C 0.32311 0.59066 0.45395 0.0
C876 C 0.35332 0.55768 0.43394 0.0
C877 C 0.36761 0.58714 0.46403 0.0
O878 O 0.35849 0.58972 0.45595 0.0
O879 O 0.36842 0.57584 0.46923 0.0
O880 O 0.3304 0.59235 0.44381 0.0
O881 O 0.32627 0.58155 0.46215 0.0
O882 O 0.20143 0.11673 0.70524 0.0
Cd883 Cd 0.19509 0.1102 0.72321 0.0
Cd884 Cd 0.17549 0.09859 0.70792 0.0
O885 O 0.18913 0.10328 0.69354 0.0
O886 O 0.21054 0.1102 0.73494 0.0
O887 O 0.20078 0.09197 0.72798 0.0
C888 C 0.2102 0.09756 0.73437 0.0
C889 C 0.15852 0.08409 0.70231 0.0
C890 C 0.19826 0.11178 0.69425 0.0
C891 C 0.16918 0.12125 0.72714 0.0
O892 O 0.16633 0.11366 0.71771 0.0
O893 O 0.18059 0.12112 0.73207 0.0
O894 O 0.16022 0.0951 0.69647 0.0
O895 O 0.16728 0.08048 0.71069 0.0
O896 O 0.05452 0.13962 0.55325 0.0
Cd897 Cd 0.03469 0.1405 0.55659 0.0
Cd898 Cd 0.04515 0.1529 0.58012 0.0
O899 O 0.0627 0.15023 0.57026 0.0
O900 O 0.02846 0.1327 0.5399 0.0
O901 O 0.02359 0.15295 0.54569 0.0
C902 C 0.02292 0.14367 0.53711 0.0
C903 C 0.04382 0.17013 0.59522 0.0
C904 C 0.0643 0.14406 0.55954 0.0
C905 C 0.02967 0.12716 0.58224 0.0
O906 O 0.03642 0.13624 0.58745 0.0
O907 O 0.0273 0.12724 0.57001 0.0
O908 O 0.05136 0.16022 0.59704 0.0
O909 O 0.03723 0.17075 0.58445 0.0
O910 O 0.55792 0.85938 0.94377 0.0
Cd911 Cd 0.5406 0.85368 0.93505 0.0
Cd912 Cd 0.55689 0.83843 0.92286 0.0
O913 O 0.56983 0.84239 0.9379 0.0
O914 O 0.52754 0.86317 0.94583 0.0
O915 O 0.52908 0.84153 0.94566 0.0
C916 C 0.5238 0.85202 0.95042 0.0
C917 C 0.55108 0.81804 0.91473 0.0
C918 C 0.56849 0.85285 0.94456 0.0
C919 C 0.54542 0.85992 0.9072 0.0
O920 O 0.5554 0.85258 0.90852 0.0
O921 O 0.53695 0.86053 0.91633 0.0
O922 O 0.56289 0.82246 0.9136 0.0
O923 O 0.54282 0.82467 0.92171 0.0
O924 O 0.88823 0.30118 0.19407 0.0
Cd925 Cd 0.89315 0.28275 0.18759 0.0
Cd926 Cd 0.90835 0.29684 0.17217 0.0
O927 O 0.90505 0.31167 0.18561 0.0
O928 O 0.88567 0.27146 0.20151 0.0
O929 O 0.907 0.273 0.19784 0.0
C930 C 0.89748 0.26853 0.20493 0.0
C931 C 0.92856 0.29359 0.16206 0.0
C932 C 0.89496 0.31159 0.19293 0.0
C933 C 0.88496 0.28364 0.16006 0.0
O934 O 0.89319 0.29297 0.15933 0.0
O935 O 0.88424 0.27677 0.17044 0.0
O936 O 0.92204 0.3043 0.16055 0.0
O937 O 0.92408 0.28492 0.17012 0.0
O938 O 0.45485 0.63657 0.44593 0.0
Cd939 Cd 0.47126 0.64496 0.43776 0.0
Cd940 Cd 0.45444 0.65914 0.42568 0.0
O941 O 0.44232 0.65341 0.44094 0.0
O942 O 0.48583 0.64311 0.45049 0.0
O943 O 0.47611 0.6621 0.44596 0.0
C944 C 0.48434 0.65545 0.45295 0.0
C945 C 0.45469 0.68005 0.41657 0.0
C946 C 0.44402 0.64263 0.447 0.0
C947 C 0.46828 0.63848 0.41015 0.0
O948 O 0.45794 0.64533 0.41136 0.0
O949 O 0.47658 0.6381 0.41945 0.0
O950 O 0.44435 0.67282 0.41618 0.0
O951 O 0.46468 0.67589 0.42315 0.0
O952 O 0.6083 0.69635 0.6955 0.0
Cd953 Cd 0.60408 0.7147 0.68826 0.0
Cd954 Cd 0.58823 0.69976 0.67312 0.0
O955 O 0.59165 0.68548 0.68709 0.0
O956 O 0.61348 0.72591 0.70109 0.0
O957 O 0.59191 0.72603 0.6991 0.0
C958 C 0.60228 0.73 0.70521 0.0
C959 C 0.56804 0.70237 0.66276 0.0
C960 C 0.60158 0.6859 0.69461 0.0
C961 C 0.61154 0.71243 0.66035 0.0
O962 O 0.60325 0.70314 0.66006 0.0
O963 O 0.61255 0.7196 0.6705 0.0
O964 O 0.57463 0.69165 0.6618 0.0
O965 O 0.5724 0.71142 0.67047 0.0
O966 O 0.94444 0.86249 0.55182 0.0
Cd967 Cd 0.96299 0.85849 0.55859 0.0
Cd968 Cd 0.94908 0.84278 0.57424 0.0
O969 O 0.93392 0.84615 0.56121 0.0
O970 O 0.97384 0.86729 0.5451 0.0
O971 O 0.97399 0.84581 0.54804 0.0
C972 C 0.97781 0.8559 0.54138 0.0
C973 C 0.95324 0.82242 0.58371 0.0
C974 C 0.93401 0.85589 0.55343 0.0
C975 C 0.96174 0.86641 0.58643 0.0
O976 O 0.95285 0.85772 0.5873 0.0
O977 O 0.9683 0.86762 0.57589 0.0
O978 O 0.94236 0.82853 0.58565 0.0
O979 O 0.96154 0.82741 0.57554 0.0
O980 O 0.89018 0.1955 0.30253 0.0
Cd981 Cd 0.8965 0.21304 0.31023 0.0
Cd982 Cd 0.91201 0.19737 0.3227 0.0
O983 O 0.90733 0.18382 0.30837 0.0
O984 O 0.88873 0.22601 0.29805 0.0
O985 O 0.91013 0.22278 0.29973 0.0
C986 C 0.90041 0.22844 0.29388 0.0
C987 C 0.93291 0.20155 0.33066 0.0
C988 C 0.89665 0.18487 0.30203 0.0
C989 C 0.89068 0.20987 0.33823 0.0
O990 O 0.89824 0.20001 0.33726 0.0
O991 O 0.88959 0.21782 0.32867 0.0
O992 O 0.92744 0.19024 0.33208 0.0
O993 O 0.92699 0.21024 0.32357 0.0
O994 O 0.10598 0.3098 0.8086 0.0
Cd995 Cd 0.10082 0.29155 0.81554 0.0
Cd996 Cd 0.08613 0.30679 0.83022 0.0
O997 O 0.08949 0.32124 0.81646 0.0
O998 O 0.11055 0.28053 0.80287 0.0
O999 O 0.08893 0.28074 0.80385 0.0
C1000 C 0.09949 0.27687 0.79803 0.0
C1001 C 0.06596 0.30173 0.83942 0.0
C1002 C 0.09959 0.32047 0.80922 0.0
C1003 C 0.10857 0.29358 0.84328 0.0
O1004 O 0.10115 0.30359 0.84333 0.0
O1005 O 0.10868 0.28599 0.83339 0.0
O1006 O 0.07138 0.31302 0.84119 0.0
O1007 O 0.07148 0.29358 0.83143 0.0
O1008 O 0.55091 0.04942 0.13709 0.0
Cd1009 Cd 0.55857 0.03218 0.14417 0.0
Cd1010 Cd 0.573 0.04766 0.15781 0.0
O1011 O 0.55877 0.06141 0.15323 0.0
O1012 O 0.54489 0.01849 0.14218 0.0
O1013 O 0.55104 0.02665 0.16144 0.0
C1014 C 0.54327 0.01922 0.15472 0.0
C1015 C 0.583 0.04563 0.17822 0.0
C1016 C 0.55153 0.06031 0.14312 0.0
C1017 C 0.58587 0.03344 0.13562 0.0
O1018 O 0.58614 0.0434 0.14309 0.0
O1019 O 0.57583 0.02603 0.13548 0.0
O1020 O 0.58407 0.05619 0.17136 0.0
O1021 O 0.57528 0.03651 0.17401 0.0
O1022 O 0.19946 0.80299 0.39108 0.0
Cd1023 Cd 0.21624 0.81093 0.39898 0.0
Cd1024 Cd 0.19983 0.82351 0.41314 0.0
O1025 O 0.18706 0.80865 0.40781 0.0
O1026 O 0.23066 0.79817 0.39611 0.0
O1027 O 0.222 0.80235 0.41568 0.0
C1028 C 0.22992 0.79555 0.40848 0.0
C1029 C 0.20189 0.8327 0.43387 0.0
C1030 C 0.18858 0.80237 0.39713 0.0
C1031 C 0.21356 0.83861 0.39225 0.0
O1032 O 0.20324 0.83766 0.39915 0.0
O1033 O 0.22168 0.82916 0.39191 0.0
O1034 O 0.19105 0.83339 0.4274 0.0
O1035 O 0.21124 0.82558 0.42913 0.0
O1036 O 0.44601 0.44933 0.63953 0.0
Cd1037 Cd 0.43782 0.4661 0.64721 0.0
Cd1038 Cd 0.42511 0.44955 0.66118 0.0
O1039 O 0.44014 0.43687 0.65615 0.0
O1040 O 0.45044 0.48056 0.64398 0.0
O1041 O 0.44641 0.47232 0.66375 0.0
C1042 C 0.45312 0.48013 0.65635 0.0
C1043 C 0.41561 0.45149 0.68179 0.0
C1044 C 0.44661 0.43845 0.6456 0.0
C1045 C 0.41027 0.46311 0.64001 0.0
O1046 O 0.41119 0.4528 0.64693 0.0
O1047 O 0.41965 0.47134 0.63986 0.0
O1048 O 0.41507 0.44066 0.67529 0.0
O1049 O 0.4227 0.46092 0.67716 0.0
O1050 O 0.80495 0.69554 0.89108 0.0
Cd1051 Cd 0.78644 0.68897 0.89569 0.0
Cd1052 Cd 0.80089 0.67351 0.91105 0.0
O1053 O 0.81578 0.68682 0.90758 0.0
O1054 O 0.77553 0.7023 0.88667 0.0
O1055 O 0.77574 0.70005 0.90821 0.0
C1056 C 0.7718 0.70643 0.898 0.0
C1057 C 0.79684 0.66369 0.93123 0.0
C1058 C 0.81548 0.69429 0.8976 0.0
C1059 C 0.78765 0.66109 0.888 0.0
O1060 O 0.79711 0.66051 0.89608 0.0
O1061 O 0.78073 0.67144 0.88723 0.0
O1062 O 0.80779 0.66204 0.92516 0.0
O1063 O 0.78847 0.67187 0.92639 0.0
O1064 O 0.55684 0.94447 0.85618 0.0
Cd1065 Cd 0.56313 0.96345 0.85354 0.0
Cd1066 Cd 0.57994 0.95064 0.83754 0.0
O1067 O 0.56738 0.93493 0.83994 0.0
O1068 O 0.54955 0.97307 0.86357 0.0
O1069 O 0.55192 0.97526 0.84216 0.0
C1070 C 0.54549 0.97803 0.85271 0.0
C1071 C 0.5897 0.95548 0.81747 0.0
C1072 C 0.55914 0.93438 0.84926 0.0
C1073 C 0.59099 0.96273 0.86199 0.0
O1074 O 0.5925 0.95429 0.85295 0.0
O1075 O 0.58014 0.96876 0.86317 0.0
O1076 O 0.59187 0.94459 0.82346 0.0
O1077 O 0.58124 0.96348 0.82245 0.0
O1078 O 0.29694 0.79864 0.10934 0.0
Cd1079 Cd 0.28121 0.80861 0.10158 0.0
Cd1080 Cd 0.29914 0.81969 0.08821 0.0
O1081 O 0.3097 0.80283 0.09246 0.0
O1082 O 0.26559 0.79716 0.10363 0.0
O1083 O 0.27524 0.8011 0.08449 0.0
C1084 C 0.26661 0.79471 0.09124 0.0
C1085 C 0.29712 0.83048 0.06832 0.0
C1086 C 0.30747 0.79653 0.103 0.0
C1087 C 0.28705 0.83547 0.10936 0.0
O1088 O 0.29754 0.83325 0.10302 0.0
O1089 O 0.27767 0.82725 0.10888 0.0
O1090 O 0.30833 0.82947 0.0741 0.0
O1091 O 0.28733 0.82396 0.07305 0.0
O1092 O 0.44746 0.55759 0.35655 0.0
Cd1093 Cd 0.43879 0.53999 0.35172 0.0
Cd1094 Cd 0.42564 0.55622 0.33634 0.0
O1095 O 0.44088 0.56915 0.33957 0.0
O1096 O 0.45019 0.52749 0.36129 0.0
O1097 O 0.44913 0.52812 0.33966 0.0
C1098 C 0.45444 0.52338 0.35014 0.0
C1099 C 0.41572 0.5522 0.31625 0.0
C1100 C 0.44794 0.56804 0.34978 0.0
C1101 C 0.41114 0.54477 0.35885 0.0
O1102 O 0.41211 0.55458 0.35124 0.0
O1103 O 0.42034 0.53636 0.35935 0.0
O1104 O 0.41535 0.56364 0.32162 0.0
O1105 O 0.42284 0.54324 0.3217 0.0
O1106 O 0.69523 0.69599 0.60792 0.0
Cd1107 Cd 0.71322 0.68821 0.60312 0.0
Cd1108 Cd 0.69769 0.67433 0.5873 0.0
O1109 O 0.68402 0.68884 0.59093 0.0
O1110 O 0.7252 0.70046 0.61233 0.0
O1111 O 0.72451 0.69882 0.59073 0.0
C1112 C 0.72904 0.70462 0.60104 0.0
C1113 C 0.70072 0.66434 0.56701 0.0
C1114 C 0.68476 0.69588 0.60118 0.0
C1115 C 0.70982 0.66036 0.61007 0.0
O1116 O 0.7003 0.6608 0.60205 0.0
O1117 O 0.71761 0.67005 0.61103 0.0
O1118 O 0.68969 0.66367 0.57313 0.0
O1119 O 0.70982 0.67169 0.57186 0.0
O1120 O 0.63627 0.55023 0.55184 0.0
Cd1121 Cd 0.642 0.55789 0.53409 0.0
Cd1122 Cd 0.65591 0.57285 0.5496 0.0
O1123 O 0.65206 0.55882 0.56374 0.0
O1124 O 0.63534 0.5445 0.52174 0.0
O1125 O 0.6565 0.54835 0.52458 0.0
C1126 C 0.64733 0.54137 0.5193 0.0
C1127 C 0.67622 0.58273 0.5465 0.0
C1128 C 0.64231 0.55112 0.56268 0.0
C1129 C 0.63318 0.58526 0.53581 0.0
O1130 O 0.64086 0.58575 0.54561 0.0
O1131 O 0.63303 0.57516 0.5285 0.0
O1132 O 0.66976 0.58414 0.55726 0.0
O1133 O 0.67162 0.57482 0.53773 0.0
O1134 O 0.69787 0.89213 0.80519 0.0
Cd1135 Cd 0.69048 0.89733 0.78716 0.0
Cd1136 Cd 0.67714 0.91345 0.80208 0.0
O1137 O 0.69088 0.90922 0.81634 0.0
O1138 O 0.70274 0.8881 0.77527 0.0
O1139 O 0.70145 0.90972 0.77627 0.0
C1140 C 0.70718 0.89938 0.77171 0.0
C1141 C 0.66932 0.93434 0.79746 0.0
C1142 C 0.69767 0.89879 0.81571 0.0
C1143 C 0.66231 0.8914 0.78984 0.0
O1144 O 0.66275 0.89952 0.79928 0.0
O1145 O 0.67221 0.88996 0.7824 0.0
O1146 O 0.66745 0.92891 0.80872 0.0
O1147 O 0.67665 0.92833 0.78905 0.0
O1148 O 0.35733 0.9499 0.05606 0.0
Cd1149 Cd 0.35091 0.94026 0.03953 0.0
Cd1150 Cd 0.33776 0.92751 0.05656 0.0
O1151 O 0.3409 0.94356 0.06855 0.0
O1152 O 0.35448 0.95222 0.02454 0.0
O1153 O 0.33444 0.94776 0.03181 0.0
C1154 C 0.34202 0.95438 0.0241 0.0
C1155 C 0.31833 0.91645 0.05249 0.0
C1156 C 0.351 0.95069 0.06677 0.0
C1157 C 0.36041 0.91373 0.04485 0.0
O1158 O 0.35336 0.9149 0.05504 0.0
O1159 O 0.35966 0.92229 0.0358 0.0
O1160 O 0.32344 0.91667 0.06407 0.0
O1161 O 0.32353 0.92371 0.04349 0.0
O1162 O 0.29983 0.61163 0.30692 0.0
Cd1163 Cd 0.30817 0.60711 0.28912 0.0
Cd1164 Cd 0.32279 0.59253 0.3049 0.0
O1165 O 0.30844 0.59582 0.31882 0.0
O1166 O 0.29584 0.61608 0.27709 0.0
O1167 O 0.29821 0.59455 0.27739 0.0
C1168 C 0.29218 0.60475 0.27291 0.0
C1169 C 0.33248 0.57237 0.30057 0.0
C1170 C 0.30056 0.60542 0.31768 0.0
C1171 C 0.33568 0.61569 0.29253 0.0
O1172 O 0.33586 0.60767 0.30206 0.0
O1173 O 0.32583 0.61608 0.28489 0.0
O1174 O 0.33373 0.57803 0.3118 0.0
O1175 O 0.32474 0.57765 0.29202 0.0
O1176 O 0.64141 0.44491 0.44613 0.0
Cd1177 Cd 0.64829 0.43679 0.46327 0.0
Cd1178 Cd 0.66315 0.42476 0.44682 0.0
O1179 O 0.6582 0.43947 0.43376 0.0
O1180 O 0.6406 0.44852 0.47665 0.0
O1181 O 0.66195 0.44729 0.47298 0.0
C1182 C 0.65225 0.45286 0.47894 0.0
C1183 C 0.68395 0.41675 0.45114 0.0
C1184 C 0.64755 0.44575 0.43533 0.0
C1185 C 0.64225 0.40892 0.45952 0.0
O1186 O 0.64938 0.41018 0.44938 0.0
O1187 O 0.64156 0.41822 0.4678 0.0
O1188 O 0.67867 0.41552 0.43971 0.0
O1189 O 0.67794 0.42379 0.45981 0.0
O1190 O 0.80447 0.88941 0.69469 0.0
Cd1191 Cd 0.81173 0.89448 0.71282 0.0
Cd1192 Cd 0.82567 0.91014 0.69797 0.0
O1193 O 0.81172 0.90652 0.68373 0.0
O1194 O 0.7991 0.88563 0.72462 0.0
O1195 O 0.80096 0.90721 0.7235 0.0
C1196 C 0.79493 0.89704 0.72807 0.0
C1197 C 0.83461 0.93054 0.70267 0.0
C1198 C 0.80478 0.89617 0.68424 0.0
C1199 C 0.83966 0.88768 0.71035 0.0
O1200 O 0.83943 0.89561 0.70075 0.0
O1201 O 0.82976 0.88671 0.71786 0.0
O1202 O 0.83611 0.92513 0.69135 0.0
O1203 O 0.82698 0.92489 0.71107 0.0
O1204 O 0.35871 0.0474 0.95216 0.0
Cd1205 Cd 0.35066 0.05548 0.96879 0.0
Cd1206 Cd 0.33604 0.06742 0.95204 0.0
O1207 O 0.34183 0.0524 0.93969 0.0
O1208 O 0.35383 0.04308 0.98347 0.0
O1209 O 0.33416 0.04664 0.97477 0.0
C1210 C 0.34152 0.04017 0.98281 0.0
C1211 C 0.31513 0.07649 0.95267 0.0
C1212 C 0.35266 0.04642 0.94131 0.0
C1213 C 0.35665 0.08328 0.96552 0.0
O1214 O 0.34969 0.08194 0.95527 0.0
O1215 O 0.3573 0.074 0.97382 0.0
O1216 O 0.32216 0.07685 0.94219 0.0
O1217 O 0.31945 0.06983 0.96254 0.0
O1218 O 0.19907 0.61111 0.19047 0.0
Cd1219 Cd 0.19103 0.60569 0.20817 0.0
Cd1220 Cd 0.17781 0.59022 0.19246 0.0
O1221 O 0.19225 0.59428 0.17885 0.0
O1222 O 0.20295 0.61467 0.22059 0.0
O1223 O 0.20153 0.59307 0.21928 0.0
C1224 C 0.20715 0.60331 0.22419 0.0
C1225 C 0.16918 0.56958 0.19669 0.0
C1226 C 0.19918 0.60459 0.17986 0.0
C1227 C 0.16307 0.61223 0.20473 0.0
O1228 O 0.16373 0.60449 0.19498 0.0
O1229 O 0.1727 0.61314 0.21259 0.0
O1230 O 0.16791 0.57509 0.18538 0.0
O1231 O 0.17642 0.57531 0.20537 0.0
O1232 O 0.05703 0.64136 0.04861 0.0
Cd1233 Cd 0.03914 0.64608 0.05668 0.0
Cd1234 Cd 0.0544 0.662 0.07015 0.0
O1235 O 0.06824 0.65833 0.05582 0.0
O1236 O 0.02701 0.63688 0.0446 0.0
O1237 O 0.02761 0.65848 0.04638 0.0
C1238 C 0.02303 0.64818 0.0406 0.0
C1239 C 0.04981 0.68249 0.07897 0.0
C1240 C 0.06749 0.64811 0.04873 0.0
C1241 C 0.04271 0.63946 0.08465 0.0
O1242 O 0.05213 0.64761 0.08414 0.0
O1243 O 0.035 0.63825 0.07493 0.0
O1244 O 0.0612 0.67716 0.08023 0.0
O1245 O 0.04125 0.67669 0.07164 0.0
O1246 O 0.55944 0.35525 0.44635 0.0
Cd1247 Cd 0.54118 0.35103 0.43884 0.0
Cd1248 Cd 0.55577 0.33527 0.42448 0.0
O1249 O 0.57029 0.33848 0.43819 0.0
O1250 O 0.52982 0.3608 0.45123 0.0
O1251 O 0.52952 0.33919 0.44967 0.0
C1252 C 0.52551 0.34972 0.45546 0.0
C1253 C 0.55001 0.31499 0.41591 0.0
C1254 C 0.56987 0.34849 0.44561 0.0
C1255 C 0.5439 0.35813 0.41082 0.0
O1256 O 0.55325 0.3499 0.41078 0.0
O1257 O 0.53656 0.35917 0.42084 0.0
O1258 O 0.5615 0.31992 0.41406 0.0
O1259 O 0.54204 0.32107 0.42367 0.0
O1260 O 0.89348 0.80467 0.69653 0.0
Cd1261 Cd 0.89803 0.78642 0.68922 0.0
Cd1262 Cd 0.91391 0.80154 0.67471 0.0
O1263 O 0.91028 0.81572 0.68871 0.0
O1264 O 0.88866 0.77496 0.70184 0.0
O1265 O 0.91025 0.77515 0.70006 0.0
C1266 C 0.89989 0.77099 0.70604 0.0
C1267 C 0.93425 0.79843 0.66484 0.0
C1268 C 0.90015 0.81517 0.69594 0.0
C1269 C 0.89097 0.78904 0.66126 0.0
O1270 O 0.89913 0.79846 0.6613 0.0
O1271 O 0.88994 0.78163 0.67123 0.0
O1272 O 0.92798 0.80935 0.6638 0.0
O1273 O 0.92948 0.78949 0.67244 0.0
O1274 O 0.43597 0.14068 0.94717 0.0
Cd1275 Cd 0.45359 0.14617 0.93896 0.0
Cd1276 Cd 0.43762 0.16103 0.92574 0.0
O1277 O 0.42395 0.15716 0.94018 0.0
O1278 O 0.46602 0.13695 0.95068 0.0
O1279 O 0.4649 0.15857 0.94953 0.0
C1280 C 0.46977 0.14822 0.95498 0.0
C1281 C 0.44377 0.18131 0.91762 0.0
C1282 C 0.42522 0.14696 0.94724 0.0
C1283 C 0.44991 0.13921 0.91108 0.0
O1284 O 0.43995 0.14667 0.91174 0.0
O1285 O 0.45792 0.13869 0.92062 0.0
O1286 O 0.43205 0.17682 0.91593 0.0
O1287 O 0.45166 0.17483 0.92514 0.0
O1288 O 0.60924 0.19585 0.19557 0.0
Cd1289 Cd 0.6064 0.21485 0.18949 0.0
Cd1290 Cd 0.59065 0.20168 0.17183 0.0
O1291 O 0.59362 0.186 0.18434 0.0
O1292 O 0.61556 0.22448 0.2037 0.0
O1293 O 0.59424 0.2262 0.20034 0.0
C1294 C 0.60439 0.22906 0.20735 0.0
C1295 C 0.57079 0.20401 0.16066 0.0
C1296 C 0.6027 0.18561 0.19287 0.0
C1297 C 0.6153 0.21485 0.16178 0.0
O1298 O 0.60622 0.20653 0.1599 0.0
O1299 O 0.61649 0.22049 0.17284 0.0
O1300 O 0.57819 0.19394 0.15905 0.0
O1301 O 0.57424 0.21266 0.16924 0.0
O1302 O 0.94516 0.35946 0.05228 0.0
Cd1303 Cd 0.96237 0.35319 0.06073 0.0
Cd1304 Cd 0.94614 0.33829 0.07323 0.0
O1305 O 0.93312 0.34262 0.05831 0.0
O1306 O 0.9757 0.3607 0.04881 0.0
O1307 O 0.97241 0.33934 0.05083 0.0
C1308 C 0.97823 0.34894 0.04494 0.0
C1309 C 0.95009 0.31755 0.08169 0.0
C1310 C 0.9345 0.35306 0.05163 0.0
C1311 C 0.95846 0.3599 0.08845 0.0
O1312 O 0.94849 0.35249 0.08743 0.0
O1313 O 0.9667 0.36053 0.07912 0.0
O1314 O 0.93877 0.32306 0.08277 0.0
O1315 O 0.95896 0.32335 0.07474 0.0
O1316 O 0.89153 0.69115 0.80222 0.0
Cd1317 Cd 0.89626 0.70937 0.80951 0.0
Cd1318 Cd 0.91165 0.69418 0.82412 0.0
O1319 O 0.9081 0.67988 0.81022 0.0
O1320 O 0.88709 0.72094 0.79683 0.0
O1321 O 0.90866 0.72048 0.79871 0.0
C1322 C 0.89838 0.72479 0.7927 0.0
C1323 C 0.9318 0.69834 0.83393 0.0
C1324 C 0.89803 0.68055 0.80291 0.0
C1325 C 0.88888 0.70689 0.83741 0.0
O1326 O 0.8968 0.69727 0.83742 0.0
O1327 O 0.88813 0.71434 0.82744 0.0
O1328 O 0.92603 0.68716 0.83516 0.0
O1329 O 0.92672 0.70686 0.82604 0.0
O1330 O 0.11045 0.80567 0.3035 0.0
Cd1331 Cd 0.10701 0.78671 0.30941 0.0
Cd1332 Cd 0.09114 0.79971 0.32614 0.0
O1333 O 0.09422 0.81549 0.3138 0.0
O1334 O 0.11615 0.7768 0.29541 0.0
O1335 O 0.09472 0.7757 0.29837 0.0
C1336 C 0.10492 0.77253 0.29156 0.0
C1337 C 0.07093 0.79587 0.33611 0.0
C1338 C 0.10377 0.81592 0.3058 0.0
C1339 C 0.11523 0.78675 0.33724 0.0
O1340 O 0.10635 0.79536 0.33871 0.0
O1341 O 0.11646 0.78081 0.32635 0.0
O1342 O 0.07749 0.80644 0.33823 0.0
O1343 O 0.0754 0.78765 0.32758 0.0
H1344 H 0.11422 0.54837 0.13513 0.0
H1345 H 0.12666 0.53671 0.05937 0.0
H1346 H 0.08887 0.52486 0.11067 0.0
H1347 H 0.15426 0.55625 0.08486 0.0
H1348 H 0.11439 0.52945 0.07858 0.0
H1349 H 0.13053 0.54858 0.11764 0.0
C1350 C 0.11215 0.5431 0.12614 0.0
C1351 C 0.10006 0.53678 0.12428 0.0
C1352 C 0.12325 0.53514 0.08 0.0
C1353 C 0.11868 0.5371 0.10413 0.0
C1354 C 0.13027 0.5393 0.06902 0.0
C1355 C 0.14138 0.5473 0.07049 0.0
C1356 C 0.12727 0.53914 0.09256 0.0
C1357 C 0.14568 0.5502 0.08325 0.0
C1358 C 0.12149 0.54321 0.11615 0.0
C1359 C 0.09801 0.52996 0.11249 0.0
N1360 N 0.13848 0.54632 0.09378 0.0
N1361 N 0.10713 0.53049 0.10278 0.0
H1362 H 0.68987 0.40471 0.34163 0.0
H1363 H 0.725 0.33994 0.36811 0.0
H1364 H 0.71348 0.37889 0.31779 0.0
H1365 H 0.69663 0.36233 0.39018 0.0
H1366 H 0.72501 0.35706 0.35132 0.0
H1367 H 0.69657 0.39236 0.3611 0.0
C1368 C 0.6967 0.39664 0.34052 0.0
C1369 C 0.70093 0.39267 0.32804 0.0
C1370 C 0.71891 0.3583 0.35993 0.0
C1371 C 0.7085 0.37844 0.35022 0.0
C1372 C 0.71892 0.34854 0.36953 0.0
C1373 C 0.71062 0.34958 0.38046 0.0
C1374 C 0.71055 0.36918 0.36125 0.0
C1375 C 0.70303 0.361 0.38182 0.0
C1376 C 0.70045 0.38955 0.35163 0.0
C1377 C 0.70979 0.38216 0.32719 0.0
N1378 N 0.70306 0.37028 0.37225 0.0
N1379 N 0.71314 0.3753 0.3381 0.0
H1380 H 0.84345 0.94567 0.59398 0.0
H1381 H 0.90754 0.98251 0.61981 0.0
H1382 H 0.86912 0.96884 0.56954 0.0
H1383 H 0.88639 0.95307 0.64169 0.0
H1384 H 0.89015 0.98227 0.60325 0.0
H1385 H 0.8556 0.95312 0.61329 0.0
C1386 C 0.85144 0.95256 0.59269 0.0
C1387 C 0.85544 0.95644 0.58011 0.0
C1388 C 0.88923 0.97602 0.61179 0.0
C1389 C 0.86943 0.96489 0.60213 0.0
C1390 C 0.89913 0.97619 0.62127 0.0
C1391 C 0.89854 0.96761 0.63202 0.0
C1392 C 0.87866 0.96725 0.61312 0.0
C1393 C 0.88736 0.95967 0.63344 0.0
C1394 C 0.85842 0.95675 0.60371 0.0
C1395 C 0.86585 0.96541 0.57904 0.0
N1396 N 0.87795 0.95957 0.62401 0.0
N1397 N 0.8726 0.96919 0.58989 0.0
H1398 H 0.29061 0.13451 0.88364 0.0
H1399 H 0.28775 0.12612 0.80641 0.0
H1400 H 0.27407 0.16355 0.85764 0.0
H1401 H 0.3011 0.0959 0.83291 0.0
H1402 H 0.27946 0.13853 0.82512 0.0
H1403 H 0.29123 0.11893 0.86552 0.0
C1404 C 0.28692 0.13756 0.87415 0.0
C1405 C 0.28248 0.15043 0.8721 0.0
C1406 C 0.28402 0.1291 0.82684 0.0
C1407 C 0.28333 0.13265 0.85123 0.0
C1408 C 0.28876 0.12199 0.81615 0.0
C1409 C 0.29535 0.11004 0.8181 0.0
C1410 C 0.28597 0.12429 0.8396 0.0
C1411 C 0.29623 0.10512 0.83093 0.0
C1412 C 0.28727 0.12864 0.8638 0.0
C1413 C 0.27767 0.15376 0.85964 0.0
N1414 N 0.29179 0.11236 0.8412 0.0
N1415 N 0.27843 0.145 0.84961 0.0
H1416 H 0.11204 0.45139 0.86438 0.0
H1417 H 0.12299 0.46619 0.93988 0.0
H1418 H 0.0862 0.47583 0.88735 0.0
H1419 H 0.15114 0.44577 0.91573 0.0
H1420 H 0.11101 0.47251 0.92015 0.0
H1421 H 0.12794 0.45181 0.88224 0.0
C1422 C 0.10977 0.457 0.87311 0.0
C1423 C 0.09766 0.46341 0.87445 0.0
C1424 C 0.11992 0.46683 0.91914 0.0
C1425 C 0.11581 0.46383 0.89502 0.0
C1426 C 0.12678 0.46322 0.93041 0.0
C1427 C 0.13798 0.45525 0.92948 0.0
C1428 C 0.12418 0.46231 0.90684 0.0
C1429 C 0.1425 0.45181 0.91694 0.0
C1430 C 0.11888 0.45725 0.88332 0.0
C1431 C 0.09535 0.47064 0.88593 0.0
N1432 N 0.13546 0.45517 0.90613 0.0
N1433 N 0.10425 0.47048 0.89586 0.0
H1434 H 0.79561 0.35878 0.10719 0.0
H1435 H 0.78152 0.37362 0.18185 0.0
H1436 H 0.76947 0.33545 0.13095 0.0
H1437 H 0.80303 0.39986 0.15653 0.0
H1438 H 0.77411 0.36146 0.16263 0.0
H1439 H 0.79564 0.37566 0.12412 0.0
C1440 C 0.78972 0.35729 0.1159 0.0
C1441 C 0.78271 0.34559 0.11777 0.0
C1442 C 0.78025 0.37002 0.16123 0.0
C1443 C 0.78282 0.36484 0.1373 0.0
C1444 C 0.7845 0.37698 0.17222 0.0
C1445 C 0.79311 0.38764 0.17081 0.0
C1446 C 0.7848 0.37362 0.14875 0.0
C1447 C 0.7965 0.39163 0.15808 0.0
C1448 C 0.78972 0.36696 0.12557 0.0
C1449 C 0.7751 0.34427 0.12916 0.0
N1450 N 0.79254 0.38447 0.14756 0.0
N1451 N 0.77556 0.35368 0.13861 0.0
H1452 H 0.91111 0.0219 0.38244 0.0
H1453 H 0.84518 0.05593 0.40731 0.0
H1454 H 0.88716 0.04758 0.35876 0.0
H1455 H 0.87197 0.03473 0.43231 0.0
H1456 H 0.8576 0.04849 0.38817 0.0
H1457 H 0.89415 0.02217 0.39938 0.0
C1458 C 0.90221 0.02742 0.3807 0.0
C1459 C 0.90068 0.03493 0.36926 0.0
C1460 C 0.86062 0.04529 0.39784 0.0
C1461 C 0.88125 0.03534 0.38864 0.0
C1462 C 0.85349 0.04948 0.40877 0.0
C1463 C 0.85769 0.04616 0.42144 0.0
C1464 C 0.87201 0.03772 0.39962 0.0
C1465 C 0.86851 0.03773 0.42273 0.0
C1466 C 0.89253 0.0276 0.3904 0.0
C1467 C 0.88887 0.04183 0.36752 0.0
N1468 N 0.8754 0.03395 0.41198 0.0
N1469 N 0.8797 0.04199 0.37717 0.0
H1470 H 0.23171 0.16541 0.63854 0.0
H1471 H 0.19354 0.10413 0.6689 0.0
H1472 H 0.2051 0.1406 0.61687 0.0
H1473 H 0.21694 0.13101 0.69181 0.0
H1474 H 0.20137 0.11475 0.64894 0.0
H1475 H 0.23015 0.15029 0.65716 0.0
C1476 C 0.22576 0.15666 0.63759 0.0
C1477 C 0.21835 0.15438 0.62622 0.0
C1478 C 0.20492 0.11823 0.65833 0.0
C1479 C 0.21644 0.13713 0.64748 0.0
C1480 C 0.20045 0.11216 0.66975 0.0
C1481 C 0.2044 0.11682 0.68208 0.0
C1482 C 0.21335 0.1291 0.65922 0.0
C1483 C 0.21349 0.12718 0.68253 0.0
C1484 C 0.22482 0.14806 0.64825 0.0
C1485 C 0.21082 0.14286 0.62553 0.0
N1486 N 0.21753 0.13308 0.67127 0.0
N1487 N 0.20994 0.13477 0.63606 0.0
H1488 H 0.07147 0.13365 0.53591 0.0
H1489 H 0.13892 0.10701 0.5646 0.0
H1490 H 0.08741 0.14534 0.57336 0.0
H1491 H 0.12174 0.09387 0.52819 0.0
H1492 H 0.12245 0.12433 0.56586 0.0
H1493 H 0.09209 0.12269 0.5308 0.0
C1494 C 0.0794 0.13413 0.54297 0.0
C1495 C 0.07761 0.14021 0.5552 0.0
C1496 C 0.12237 0.11776 0.55751 0.0
C1497 C 0.10121 0.12748 0.54946 0.0
C1498 C 0.13177 0.10785 0.55678 0.0
C1499 C 0.13157 0.09881 0.54638 0.0
C1500 C 0.11264 0.11863 0.54781 0.0
C1501 C 0.12218 0.1005 0.53647 0.0
C1502 C 0.09117 0.12782 0.54005 0.0
C1503 C 0.08829 0.14066 0.56387 0.0
N1504 N 0.11299 0.1101 0.53752 0.0
N1505 N 0.09956 0.13417 0.56093 0.0
H1506 H 0.11717 0.32139 0.7891 0.0
H1507 H 0.13784 0.39423 0.80645 0.0
H1508 H 0.09497 0.34635 0.81509 0.0
H1509 H 0.15789 0.37028 0.77787 0.0
H1510 H 0.12008 0.37821 0.80708 0.0
H1511 H 0.12989 0.34038 0.78205 0.0
C1512 C 0.11481 0.33093 0.79315 0.0
C1513 C 0.10515 0.33226 0.80286 0.0
C1514 C 0.12826 0.37653 0.80053 0.0
C1515 C 0.11985 0.35403 0.795 0.0
C1516 C 0.13844 0.38568 0.80018 0.0
C1517 C 0.1495 0.38348 0.79227 0.0
C1518 C 0.12919 0.36503 0.79302 0.0
C1519 C 0.14963 0.37231 0.78422 0.0
C1520 C 0.12209 0.34178 0.78913 0.0
C1521 C 0.1024 0.34487 0.80765 0.0
N1522 N 0.13973 0.3634 0.78496 0.0
N1523 N 0.1099 0.35523 0.80386 0.0
H1524 H 0.85959 0.38747 0.04324 0.0
H1525 H 0.93499 0.37287 0.03358 0.0
H1526 H 0.88483 0.41109 0.01881 0.0
H1527 H 0.90845 0.34648 0.05338 0.0
H1528 H 0.91624 0.38507 0.02513 0.0
H1529 H 0.8765 0.3706 0.0441 0.0
C1530 C 0.86863 0.38902 0.03788 0.0
C1531 C 0.8709 0.4008 0.03113 0.0
C1532 C 0.91448 0.37648 0.03113 0.0
C1533 C 0.89042 0.38158 0.03223 0.0
C1534 C 0.9252 0.3695 0.03598 0.0
C1535 C 0.92329 0.35878 0.04441 0.0
C1536 C 0.90175 0.37282 0.03488 0.0
C1537 C 0.91039 0.35476 0.04702 0.0
C1538 C 0.87829 0.37936 0.03836 0.0
C1539 C 0.88271 0.40219 0.02422 0.0
N1540 N 0.90011 0.36194 0.04248 0.0
N1541 N 0.89214 0.3928 0.02515 0.0
H1542 H 0.83652 0.13514 0.27171 0.0
H1543 H 0.90353 0.15894 0.30447 0.0
H1544 H 0.86036 0.11122 0.29726 0.0
H1545 H 0.87616 0.18456 0.28479 0.0
H1546 H 0.89071 0.14003 0.29707 0.0
H1547 H 0.85377 0.15182 0.27169 0.0
C1548 C 0.84547 0.13328 0.27713 0.0
C1549 C 0.84688 0.12187 0.28471 0.0
C1550 C 0.88764 0.14979 0.2942 0.0
C1551 C 0.86662 0.14094 0.28477 0.0
C1552 C 0.89499 0.16058 0.29836 0.0
C1553 C 0.89076 0.17335 0.29546 0.0
C1554 C 0.87602 0.1518 0.28706 0.0
C1555 C 0.87965 0.17489 0.28746 0.0
C1556 C 0.8553 0.14283 0.27715 0.0
C1557 C 0.85874 0.11997 0.29147 0.0
N1558 N 0.87257 0.16426 0.28369 0.0
N1559 N 0.86808 0.12947 0.29147 0.0
H1560 H 0.09209 0.84597 0.44299 0.0
H1561 H 0.11603 0.91321 0.4752 0.0
H1562 H 0.06663 0.87322 0.46304 0.0
H1563 H 0.13985 0.88908 0.44983 0.0
H1564 H 0.09934 0.89596 0.47543 0.0
H1565 H 0.11103 0.85886 0.45017 0.0
C1566 C 0.09049 0.85449 0.44914 0.0
C1567 C 0.07774 0.85867 0.4522 0.0
C1568 C 0.10831 0.89438 0.46997 0.0
C1569 C 0.09933 0.87351 0.46033 0.0
C1570 C 0.11786 0.90421 0.46985 0.0
C1571 C 0.12924 0.9027 0.46227 0.0
C1572 C 0.11018 0.88296 0.46246 0.0
C1573 C 0.13112 0.89078 0.45562 0.0
C1574 C 0.1013 0.86188 0.45318 0.0
C1575 C 0.07627 0.86976 0.46024 0.0
N1576 N 0.12162 0.88144 0.45574 0.0
N1577 N 0.08692 0.87689 0.46388 0.0
H1578 H 0.33798 0.36689 0.72562 0.0
H1579 H 0.40124 0.33835 0.68954 0.0
H1580 H 0.35917 0.3872 0.69508 0.0
H1581 H 0.3768 0.3161 0.71601 0.0
H1582 H 0.38917 0.3582 0.69553 0.0
H1583 H 0.35517 0.3502 0.72607 0.0
C1584 C 0.34632 0.36795 0.71914 0.0
C1585 C 0.347 0.37833 0.71012 0.0
C1586 C 0.38661 0.34901 0.7002 0.0
C1587 C 0.36669 0.35923 0.71056 0.0
C1588 C 0.39355 0.33768 0.69684 0.0
C1589 C 0.38985 0.3255 0.70209 0.0
C1590 C 0.37592 0.34813 0.70886 0.0
C1591 C 0.37983 0.32524 0.71153 0.0
C1592 C 0.35614 0.3584 0.71939 0.0
C1593 C 0.35812 0.37925 0.70204 0.0
N1594 N 0.37309 0.33634 0.71448 0.0
N1595 N 0.36744 0.36974 0.70234 0.0
H1596 H 0.87882 0.58851 0.98075 0.0
H1597 H 0.90299 0.65341 0.94413 0.0
H1598 H 0.85599 0.60974 0.9521 0.0
H1599 H 0.92819 0.62801 0.96676 0.0
H1600 H 0.884 0.64086 0.95176 0.0
H1601 H 0.89515 0.60613 0.98034 0.0
C1602 C 0.87712 0.59698 0.97456 0.0
C1603 C 0.86615 0.59754 0.96626 0.0
C1604 C 0.89367 0.63819 0.95523 0.0
C1605 C 0.88478 0.61768 0.96571 0.0
C1606 C 0.90451 0.6454 0.95094 0.0
C1607 C 0.91722 0.64159 0.95461 0.0
C1608 C 0.89557 0.62713 0.96326 0.0
C1609 C 0.91859 0.63115 0.96349 0.0
C1610 C 0.88646 0.60701 0.9743 0.0
C1611 C 0.86442 0.60878 0.95849 0.0
N1612 N 0.90793 0.62417 0.96737 0.0
N1613 N 0.87371 0.61833 0.95829 0.0
H1614 H 0.61821 0.18152 0.21431 0.0
H1615 H 0.63758 0.11026 0.19013 0.0
H1616 H 0.59761 0.16083 0.18366 0.0
H1617 H 0.65634 0.1301 0.22249 0.0
H1618 H 0.6205 0.12702 0.19006 0.0
H1619 H 0.62954 0.16127 0.22007 0.0
C1620 C 0.61588 0.17265 0.20895 0.0
C1621 C 0.60712 0.17292 0.19833 0.0
C1622 C 0.62824 0.12762 0.1973 0.0
C1623 C 0.62026 0.14972 0.20473 0.0
C1624 C 0.63803 0.11805 0.19733 0.0
C1625 C 0.64855 0.1189 0.20618 0.0
C1626 C 0.62903 0.13819 0.2061 0.0
C1627 C 0.64851 0.12913 0.21539 0.0
C1628 C 0.62238 0.16108 0.21223 0.0
C1629 C 0.60436 0.16109 0.19185 0.0
N1630 N 0.63901 0.13847 0.21498 0.0
N1631 N 0.61111 0.15002 0.19498 0.0
H1632 H 0.53329 0.06117 0.12346 0.0
H1633 H 0.54853 0.13578 0.10827 0.0
H1634 H 0.55564 0.08617 0.14932 0.0
H1635 H 0.52189 0.11226 0.08524 0.0
H1636 H 0.54874 0.1187 0.12503 0.0
H1637 H 0.52639 0.08049 0.11113 0.0
C1638 C 0.53658 0.07075 0.12669 0.0
C1639 C 0.54525 0.07203 0.13731 0.0
C1640 C 0.54269 0.11734 0.11641 0.0
C1641 C 0.53752 0.0942 0.12311 0.0
C1642 C 0.54258 0.12709 0.10681 0.0
C1643 C 0.53535 0.12536 0.09522 0.0
C1644 C 0.53566 0.10567 0.11434 0.0
C1645 C 0.5277 0.11397 0.09395 0.0
C1646 C 0.53263 0.08179 0.11963 0.0
C1647 C 0.54905 0.0847 0.14112 0.0
N1648 N 0.52823 0.10447 0.10329 0.0
N1649 N 0.54536 0.09527 0.13388 0.0
H1650 H 0.05487 0.85748 0.38642 0.0
H1651 H 0.03454 0.92934 0.36547 0.0
H1652 H 0.02458 0.87989 0.40575 0.0
H1653 H 0.06167 0.90549 0.34343 0.0
H1654 H 0.02802 0.91002 0.37797 0.0
H1655 H 0.05494 0.87342 0.36857 0.0
C1656 C 0.0481 0.86566 0.38684 0.0
C1657 C 0.03988 0.86748 0.39773 0.0
C1658 C 0.03523 0.90893 0.37025 0.0
C1659 C 0.03999 0.88584 0.37733 0.0
C1660 C 0.03894 0.91997 0.36308 0.0
C1661 C 0.04882 0.91906 0.35354 0.0
C1662 C 0.04159 0.89692 0.36802 0.0
C1663 C 0.05408 0.90665 0.35076 0.0
C1664 C 0.04814 0.87476 0.37661 0.0
C1665 C 0.0312 0.87817 0.39763 0.0
N1666 N 0.05059 0.8961 0.35815 0.0
N1667 N 0.03164 0.88705 0.3877 0.0
H1668 H 0.33673 0.30196 0.59696 0.0
H1669 H 0.36119 0.27096 0.6646 0.0
H1670 H 0.31101 0.28486 0.62593 0.0
H1671 H 0.38544 0.29433 0.63892 0.0
H1672 H 0.34385 0.27125 0.64803 0.0
H1673 H 0.35561 0.29443 0.60968 0.0
C1674 C 0.33504 0.29641 0.60586 0.0
C1675 C 0.32226 0.29425 0.61051 0.0
C1676 C 0.35304 0.27615 0.64595 0.0
C1677 C 0.34383 0.28569 0.62515 0.0
C1678 C 0.36297 0.27595 0.65539 0.0
C1679 C 0.37471 0.28283 0.65325 0.0
C1680 C 0.35488 0.28325 0.63428 0.0
C1681 C 0.37647 0.28907 0.64109 0.0
C1682 C 0.34583 0.29216 0.61314 0.0
C1683 C 0.32069 0.28693 0.62208 0.0
N1684 N 0.36661 0.28926 0.63214 0.0
N1685 N 0.33134 0.28306 0.62908 0.0
H1686 H 0.97136 0.61824 0.90869 0.0
H1687 H 0.93316 0.58959 0.84671 0.0
H1688 H 0.93918 0.63791 0.8894 0.0
H1689 H 0.96123 0.56774 0.86967 0.0
H1690 H 0.93917 0.60945 0.85878 0.0
H1691 H 0.97145 0.60185 0.8912 0.0
C1692 C 0.96443 0.61922 0.9007 0.0
C1693 C 0.95508 0.62933 0.90065 0.0
C1694 C 0.94418 0.60035 0.86101 0.0
C1695 C 0.95512 0.61057 0.88063 0.0
C1696 C 0.94081 0.58902 0.85406 0.0
C1697 C 0.94652 0.57694 0.85737 0.0
C1698 C 0.95332 0.59956 0.8713 0.0
C1699 C 0.9564 0.5768 0.86696 0.0
C1700 C 0.96448 0.60985 0.89071 0.0
C1701 C 0.94643 0.63016 0.88996 0.0
N1702 N 0.95935 0.58789 0.87371 0.0
N1703 N 0.94655 0.62082 0.88047 0.0
H1704 H 0.18798 0.71614 0.12094 0.0
H1705 H 0.11252 0.70263 0.13357 0.0
H1706 H 0.16293 0.69588 0.09346 0.0
H1707 H 0.13648 0.72677 0.1588 0.0
H1708 H 0.13001 0.70274 0.11725 0.0
H1709 H 0.16862 0.72291 0.13324 0.0
C1710 C 0.17839 0.71329 0.11736 0.0
C1711 C 0.17709 0.70524 0.10627 0.0
C1712 C 0.13138 0.70818 0.12627 0.0
C1713 C 0.15487 0.71282 0.12044 0.0
C1714 C 0.1214 0.7081 0.13562 0.0
C1715 C 0.12312 0.71452 0.14768 0.0
C1716 C 0.14326 0.71458 0.12905 0.0
C1717 C 0.13476 0.72159 0.1497 0.0
C1718 C 0.16732 0.71716 0.12441 0.0
C1719 C 0.16441 0.70198 0.10202 0.0
N1720 N 0.14448 0.72125 0.14057 0.0
N1721 N 0.1538 0.70559 0.10924 0.0
H1722 H 0.46578 0.95235 0.11563 0.0
H1723 H 0.47685 0.87549 0.11032 0.0
H1724 H 0.45848 0.92485 0.147 0.0
H1725 H 0.48122 0.90226 0.07782 0.0
H1726 H 0.47578 0.89412 0.12525 0.0
H1727 H 0.47663 0.93497 0.10324 0.0
C1728 C 0.46662 0.94271 0.12001 0.0
C1729 C 0.46096 0.93999 0.13228 0.0
C1730 C 0.47723 0.89595 0.11489 0.0
C1731 C 0.47335 0.92003 0.11809 0.0
C1732 C 0.4779 0.88529 0.10635 0.0
C1733 C 0.47883 0.88733 0.09276 0.0
C1734 C 0.47735 0.90874 0.10981 0.0
C1735 C 0.48035 0.90024 0.0882 0.0
C1736 C 0.47283 0.93278 0.11292 0.0
C1737 C 0.46252 0.92735 0.13751 0.0
N1738 N 0.47927 0.91048 0.09669 0.0
N1739 N 0.46839 0.9178 0.1303 0.0
H1740 H 0.33859 0.18101 0.90188 0.0
H1741 H 0.37067 0.22073 0.84261 0.0
H1742 H 0.31898 0.21167 0.88023 0.0
H1743 H 0.38851 0.18699 0.86098 0.0
H1744 H 0.35384 0.22076 0.85964 0.0
H1745 H 0.35903 0.18651 0.89056 0.0
C1746 C 0.33865 0.18911 0.89499 0.0
C1747 C 0.32701 0.19573 0.89181 0.0
C1748 C 0.36153 0.21344 0.86004 0.0
C1749 C 0.35029 0.20194 0.87872 0.0
C1750 C 0.37115 0.21342 0.85031 0.0
C1751 C 0.38089 0.20369 0.85021 0.0
C1752 C 0.3616 0.20364 0.86973 0.0
C1753 C 0.38108 0.19456 0.86053 0.0
C1754 C 0.3503 0.19218 0.88846 0.0
C1755 C 0.32768 0.20615 0.88282 0.0
N1756 N 0.37149 0.19466 0.86978 0.0
N1757 N 0.33906 0.2088 0.87646 0.0
H1758 H 0.65688 0.31073 0.40616 0.0
H1759 H 0.62967 0.27368 0.34281 0.0
H1760 H 0.67993 0.28484 0.38186 0.0
H1761 H 0.60876 0.30432 0.36324 0.0
H1762 H 0.64612 0.27367 0.36024 0.0
H1763 H 0.63726 0.30429 0.39391 0.0
C1764 C 0.65778 0.30345 0.39847 0.0
C1765 C 0.6701 0.2985 0.39487 0.0
C1766 C 0.63783 0.28027 0.36099 0.0
C1767 C 0.64775 0.29121 0.38074 0.0
C1768 C 0.62842 0.28027 0.35104 0.0
C1769 C 0.61795 0.28919 0.35142 0.0
C1770 C 0.63677 0.28925 0.37139 0.0
C1771 C 0.61679 0.29743 0.36242 0.0
C1772 C 0.64658 0.29984 0.39142 0.0
C1773 C 0.67066 0.28908 0.38483 0.0
N1774 N 0.62617 0.29737 0.37188 0.0
N1775 N 0.65968 0.28588 0.378 0.0
H1776 H 0.08763 0.00964 0.6089 0.0
H1777 H 0.15382 0.04801 0.59256 0.0
H1778 H 0.10769 0.03557 0.63567 0.0
H1779 H 0.12909 0.02957 0.56357 0.0
H1780 H 0.14068 0.03777 0.60985 0.0
H1781 H 0.10633 0.01121 0.59386 0.0
C1782 C 0.09609 0.01539 0.61175 0.0
C1783 C 0.09601 0.0227 0.62341 0.0
C1784 C 0.1383 0.03576 0.59969 0.0
C1785 C 0.11734 0.02459 0.60629 0.0
C1786 C 0.14584 0.04155 0.58982 0.0
C1787 C 0.14236 0.03987 0.57662 0.0
C1788 C 0.12726 0.02822 0.59631 0.0
C1789 C 0.13195 0.03135 0.57364 0.0
C1790 C 0.10673 0.01634 0.60315 0.0
C1791 C 0.10725 0.02998 0.62665 0.0
N1792 N 0.12464 0.026 0.58341 0.0
N1793 N 0.11737 0.03088 0.61806 0.0
H1794 H 0.71649 0.8798 0.81698 0.0
H1795 H 0.69898 0.86338 0.89073 0.0
H1796 H 0.69278 0.90491 0.84145 0.0
H1797 H 0.72611 0.84065 0.8675 0.0
H1798 H 0.69936 0.88051 0.87404 0.0
H1799 H 0.72306 0.86744 0.83637 0.0
C1800 C 0.71285 0.88287 0.82648 0.0
C1801 C 0.70389 0.89326 0.82758 0.0
C1802 C 0.70539 0.87187 0.87266 0.0
C1803 C 0.7112 0.87899 0.84981 0.0
C1804 C 0.70516 0.86206 0.88219 0.0
C1805 C 0.71234 0.85044 0.8804 0.0
C1806 C 0.71274 0.87001 0.86117 0.0
C1807 C 0.72031 0.84937 0.86923 0.0
C1808 C 0.7166 0.87579 0.83756 0.0
C1809 C 0.69962 0.8969 0.84014 0.0
N1810 N 0.72012 0.85894 0.85993 0.0
N1811 N 0.70312 0.88961 0.85075 0.0
H1812 H 0.87545 0.4642 0.0594 0.0
H1813 H 0.88639 0.4525 0.13551 0.0
H1814 H 0.84746 0.44457 0.0844 0.0
H1815 H 0.9128 0.47506 0.11128 0.0
H1816 H 0.87045 0.45242 0.11768 0.0
H1817 H 0.88751 0.47126 0.07883 0.0
C1818 C 0.87171 0.46155 0.06899 0.0
C1819 C 0.86054 0.45358 0.07026 0.0
C1820 C 0.87965 0.45756 0.11631 0.0
C1821 C 0.87442 0.46151 0.09256 0.0
C1822 C 0.88878 0.45759 0.12649 0.0
C1823 C 0.90105 0.46361 0.12482 0.0
C1824 C 0.88285 0.46345 0.10428 0.0
C1825 C 0.90351 0.4702 0.11298 0.0
C1826 C 0.87862 0.46558 0.08009 0.0
C1827 C 0.85608 0.45059 0.08293 0.0
N1828 N 0.89458 0.46976 0.10308 0.0
N1829 N 0.86316 0.45437 0.09358 0.0
H1830 H 0.26484 0.66097 0.37147 0.0
H1831 H 0.28012 0.62267 0.31797 0.0
H1832 H 0.30094 0.64536 0.38714 0.0
H1833 H 0.30558 0.60079 0.34373 0.0
H1834 H 0.27257 0.63547 0.33653 0.0
H1835 H 0.26451 0.64326 0.35534 0.0
C1836 C 0.27266 0.65378 0.37156 0.0
C1837 C 0.28311 0.65486 0.38046 0.0
C1838 C 0.27945 0.62761 0.33832 0.0
C1839 C 0.28304 0.63477 0.36175 0.0
C1840 C 0.28385 0.62031 0.32763 0.0
C1841 C 0.29364 0.61077 0.32926 0.0
C1842 C 0.28494 0.62541 0.35077 0.0
C1843 C 0.29807 0.6081 0.34201 0.0
C1844 C 0.27255 0.64373 0.36223 0.0
C1845 C 0.29284 0.64511 0.38028 0.0
N1846 N 0.2939 0.61558 0.35223 0.0
N1847 N 0.29264 0.63559 0.37098 0.0
H1848 H 0.09097 0.97492 0.37858 0.0
H1849 H 0.15489 0.93965 0.40681 0.0
H1850 H 0.11267 0.94498 0.35793 0.0
H1851 H 0.1302 0.9658 0.42914 0.0
H1852 H 0.14263 0.94548 0.387 0.0
H1853 H 0.10818 0.97548 0.39527 0.0
C1854 C 0.09943 0.96859 0.37745 0.0
C1855 C 0.10025 0.95971 0.36696 0.0
C1856 C 0.14005 0.95011 0.3962 0.0
C1857 C 0.11996 0.96027 0.38606 0.0
C1858 C 0.1471 0.94685 0.4075 0.0
C1859 C 0.1434 0.95206 0.41969 0.0
C1860 C 0.12925 0.95864 0.39713 0.0
C1861 C 0.13324 0.96136 0.41999 0.0
C1862 C 0.10925 0.9689 0.38699 0.0
C1863 C 0.11151 0.95183 0.36596 0.0
N1864 N 0.12641 0.96421 0.40892 0.0
N1865 N 0.12084 0.95218 0.37547 0.0
H1866 H 0.809 0.90328 0.6586 0.0
H1867 H 0.77475 0.83802 0.63217 0.0
H1868 H 0.78645 0.87671 0.68265 0.0
H1869 H 0.80235 0.86119 0.6099 0.0
H1870 H 0.77455 0.85505 0.64906 0.0
H1871 H 0.8021 0.89104 0.63914 0.0
C1872 C 0.80236 0.89506 0.65977 0.0
C1873 C 0.7985 0.89085 0.67229 0.0
C1874 C 0.7805 0.85649 0.64038 0.0
C1875 C 0.79068 0.87675 0.65011 0.0
C1876 C 0.7806 0.84678 0.63072 0.0
C1877 C 0.78878 0.84806 0.61972 0.0
C1878 C 0.78863 0.86755 0.63903 0.0
C1879 C 0.79608 0.85967 0.61833 0.0
C1880 C 0.79848 0.88803 0.64866 0.0
C1881 C 0.78986 0.88016 0.67321 0.0
N1882 N 0.79595 0.86889 0.62795 0.0
N1883 N 0.78639 0.87337 0.66229 0.0
H1884 H 0.90978 0.52155 0.88656 0.0
H1885 H 0.84297 0.55235 0.91338 0.0
H1886 H 0.88387 0.54592 0.86358 0.0
H1887 H 0.87244 0.53444 0.93795 0.0
H1888 H 0.85519 0.54525 0.89402 0.0
H1889 H 0.89359 0.52149 0.90425 0.0
C1890 C 0.9006 0.5267 0.88513 0.0
C1891 C 0.89829 0.53395 0.87366 0.0
C1892 C 0.85887 0.54271 0.90365 0.0
C1893 C 0.87975 0.53396 0.89388 0.0
C1894 C 0.85187 0.5467 0.91472 0.0
C1895 C 0.85681 0.54419 0.92732 0.0
C1896 C 0.87088 0.53613 0.9052 0.0
C1897 C 0.86837 0.53678 0.92843 0.0
C1898 C 0.89138 0.5267 0.89526 0.0
C1899 C 0.88617 0.54038 0.87234 0.0
N1900 N 0.87509 0.53315 0.91752 0.0
N1901 N 0.87743 0.54035 0.88239 0.0
H1902 H 0.21785 0.62381 0.17946 0.0
H1903 H 0.20387 0.63962 0.10495 0.0
H1904 H 0.19578 0.59826 0.15393 0.0
H1905 H 0.23005 0.66254 0.12905 0.0
H1906 H 0.20371 0.62253 0.12168 0.0
H1907 H 0.22541 0.63606 0.16036 0.0
C1908 C 0.21478 0.62063 0.1698 0.0
C1909 C 0.20597 0.61014 0.16831 0.0
C1910 C 0.20967 0.63119 0.12325 0.0
C1911 C 0.21445 0.62426 0.14637 0.0
C1912 C 0.20975 0.64097 0.11369 0.0
C1913 C 0.2168 0.65263 0.11571 0.0
C1914 C 0.21654 0.63314 0.13502 0.0
C1915 C 0.22439 0.65376 0.12714 0.0
C1916 C 0.21911 0.62763 0.15888 0.0
C1917 C 0.20246 0.60635 0.15555 0.0
N1918 N 0.22386 0.64424 0.13648 0.0
N1919 N 0.20651 0.61357 0.14509 0.0
H1920 H 0.06845 0.6295 0.02949 0.0
H1921 H 0.1425 0.61334 0.04528 0.0
H1922 H 0.0933 0.65453 0.05291 0.0
H1923 H 0.11924 0.59124 0.01766 0.0
H1924 H 0.12577 0.63043 0.04539 0.0
H1925 H 0.0878 0.61752 0.02213 0.0
C1926 C 0.07802 0.63264 0.03289 0.0
C1927 C 0.07924 0.64288 0.04202 0.0
C1928 C 0.1244 0.62196 0.03913 0.0
C1929 C 0.10144 0.62905 0.03379 0.0
C1930 C 0.13394 0.61217 0.03908 0.0
C1931 C 0.13215 0.60073 0.03163 0.0
C1932 C 0.11285 0.62023 0.03182 0.0
C1933 C 0.12097 0.59984 0.02365 0.0
C1934 C 0.08907 0.62578 0.02869 0.0
C1935 C 0.09188 0.64662 0.04596 0.0
N1936 N 0.11163 0.60934 0.02414 0.0
N1937 N 0.10247 0.63954 0.04202 0.0
H1938 H 0.15937 0.87109 0.27688 0.0
H1939 H 0.09782 0.84072 0.31446 0.0
H1940 H 0.14027 0.88954 0.30987 0.0
H1941 H 0.1208 0.82001 0.28556 0.0
H1942 H 0.10976 0.86086 0.30911 0.0
H1943 H 0.142 0.8546 0.27638 0.0
C1944 C 0.15144 0.87178 0.28392 0.0
C1945 C 0.15142 0.88158 0.29359 0.0
C1946 C 0.11202 0.85195 0.30378 0.0
C1947 C 0.13151 0.86269 0.29309 0.0
C1948 C 0.10514 0.84047 0.30677 0.0
C1949 C 0.1085 0.82862 0.30062 0.0
C1950 C 0.12227 0.85155 0.29457 0.0
C1951 C 0.11805 0.82889 0.29071 0.0
C1952 C 0.14152 0.86235 0.28363 0.0
C1953 C 0.1408 0.88205 0.30236 0.0
N1954 N 0.12473 0.84012 0.28813 0.0
N1955 N 0.13136 0.87264 0.302 0.0
H1956 H 0.93119 0.87326 0.53325 0.0
H1957 H 0.85888 0.89124 0.5553 0.0
H1958 H 0.90874 0.85031 0.56085 0.0
H1959 H 0.88056 0.91271 0.52593 0.0
H1960 H 0.87551 0.87405 0.55471 0.0
H1961 H 0.91138 0.88535 0.52749 0.0
C1962 C 0.92203 0.87059 0.53792 0.0
C1963 C 0.92167 0.86092 0.54773 0.0
C1964 C 0.87655 0.88243 0.54825 0.0
C1965 C 0.89897 0.8749 0.54133 0.0
C1966 C 0.86707 0.89228 0.54861 0.0
C1967 C 0.86845 0.90356 0.54082 0.0
C1968 C 0.88759 0.8839 0.54015 0.0
C1969 C 0.87916 0.90426 0.53221 0.0
C1970 C 0.91071 0.87752 0.53464 0.0
C1971 C 0.9095 0.85776 0.55332 0.0
N1972 N 0.88842 0.89466 0.53225 0.0
N1973 N 0.89867 0.86491 0.55022 0.0
H1974 H 0.90367 0.65477 0.80837 0.0
H1975 H 0.83908 0.63033 0.7715 0.0
H1976 H 0.87968 0.6792 0.78346 0.0
H1977 H 0.85937 0.60804 0.80125 0.0
H1978 H 0.85698 0.64629 0.77165 0.0
H1979 H 0.8908 0.63567 0.80154 0.0
C1980 C 0.89591 0.65608 0.80122 0.0
C1981 C 0.89258 0.66863 0.79667 0.0
C1982 C 0.85759 0.63781 0.77801 0.0
C1983 C 0.87776 0.64688 0.78893 0.0
C1984 C 0.84738 0.62868 0.77792 0.0
C1985 C 0.84759 0.61796 0.78656 0.0
C1986 C 0.86809 0.63622 0.7868 0.0
C1987 C 0.85867 0.61627 0.79458 0.0
C1988 C 0.88852 0.64518 0.79739 0.0
C1989 C 0.88245 0.66973 0.7874 0.0
N1990 N 0.86839 0.62539 0.79462 0.0
N1991 N 0.87528 0.65904 0.78399 0.0
H1992 H 0.11463 0.41373 0.98311 0.0
H1993 H 0.09114 0.34733 0.94882 0.0
H1994 H 0.13871 0.39027 0.95739 0.0
H1995 H 0.06515 0.37478 0.96788 0.0
H1996 H 0.1099 0.3599 0.95695 0.0
H1997 H 0.09785 0.39654 0.98259 0.0
C1998 C 0.11651 0.40486 0.97758 0.0
C1999 C 0.12797 0.40354 0.97008 0.0
C2000 C 0.10009 0.36304 0.95953 0.0
C2001 C 0.10883 0.38389 0.96939 0.0
C2002 C 0.08937 0.35583 0.95494 0.0
C2003 C 0.07656 0.36015 0.95746 0.0
C2004 C 0.09795 0.37462 0.9667 0.0
C2005 C 0.07487 0.37122 0.9655 0.0
C2006 C 0.10691 0.39507 0.97723 0.0
C2007 C 0.12991 0.3918 0.96312 0.0
N2008 N 0.08543 0.37817 0.96969 0.0
N2009 N 0.12037 0.38251 0.96282 0.0
H2010 H 0.3944 0.82379 0.18993 0.0
H2011 H 0.33186 0.85708 0.22325 0.0
H2012 H 0.36367 0.80208 0.2094 0.0
H2013 H 0.35974 0.87769 0.19893 0.0
H2014 H 0.34586 0.83762 0.22235 0.0
H2015 H 0.38425 0.8442 0.1972 0.0
C2016 C 0.38561 0.82329 0.19588 0.0
C2017 C 0.37976 0.81119 0.19887 0.0
C2018 C 0.34899 0.84646 0.21736 0.0
C2019 C 0.36805 0.83457 0.20717 0.0
C2020 C 0.34103 0.8576 0.21792 0.0
C2021 C 0.34452 0.86897 0.21097 0.0
C2022 C 0.36053 0.84672 0.20983 0.0
C2023 C 0.35655 0.86908 0.20427 0.0
C2024 C 0.37981 0.83497 0.20001 0.0
C2025 C 0.36844 0.81118 0.20671 0.0
N2026 N 0.36404 0.85808 0.20375 0.0
N2027 N 0.36287 0.8227 0.21047 0.0
H2028 H 0.93237 0.13026 0.46174 0.0
H2029 H 0.85879 0.11213 0.44534 0.0
H2030 H 0.90739 0.15415 0.4373 0.0
H2031 H 0.88232 0.09104 0.47353 0.0
H2032 H 0.87526 0.12948 0.44489 0.0
H2033 H 0.91319 0.11794 0.46896 0.0
C2034 C 0.92281 0.13308 0.45808 0.0
C2035 C 0.92151 0.1431 0.44872 0.0
C2036 C 0.87675 0.12116 0.45133 0.0
C2037 C 0.8995 0.12887 0.45679 0.0
C2038 C 0.86735 0.11122 0.45157 0.0
C2039 C 0.86929 0.09999 0.45931 0.0
C2040 C 0.88827 0.11981 0.45876 0.0
C2041 C 0.88048 0.09945 0.46731 0.0
C2042 C 0.91184 0.12602 0.4622 0.0
C2043 C 0.90886 0.14643 0.44444 0.0
N2044 N 0.88965 0.10911 0.46666 0.0
N2045 N 0.89837 0.13915 0.44831 0.0
H2046 H 0.63435 0.60959 0.69728 0.0
H2047 H 0.61976 0.684 0.71419 0.0
H2048 H 0.65754 0.63254 0.72427 0.0
H2049 H 0.59502 0.66033 0.68929 0.0
H2050 H 0.63134 0.66425 0.7211 0.0
H2051 H 0.61776 0.62682 0.69723 0.0
C2052 C 0.63588 0.61819 0.70334 0.0
C2053 C 0.64748 0.61974 0.71061 0.0
C2054 C 0.62323 0.66332 0.7143 0.0
C2055 C 0.62853 0.63958 0.7105 0.0
C2056 C 0.6166 0.67461 0.71035 0.0
C2057 C 0.60656 0.67385 0.70096 0.0
C2058 C 0.61993 0.65119 0.70868 0.0
C2059 C 0.60278 0.6614 0.69646 0.0
C2060 C 0.62638 0.62802 0.70332 0.0
C2061 C 0.64882 0.63099 0.71841 0.0
N2062 N 0.60963 0.65058 0.70018 0.0
N2063 N 0.63956 0.64058 0.71798 0.0
H2064 H 0.52944 0.55917 0.62026 0.0
H2065 H 0.53977 0.63517 0.60894 0.0
H2066 H 0.54735 0.58484 0.64878 0.0
H2067 H 0.51641 0.61095 0.58325 0.0
H2068 H 0.53992 0.61753 0.62508 0.0
H2069 H 0.52184 0.57836 0.60812 0.0
C2070 C 0.53159 0.56884 0.6241 0.0
C2071 C 0.53925 0.57039 0.63544 0.0
C2072 C 0.53457 0.61612 0.61602 0.0
C2073 C 0.5307 0.59242 0.62148 0.0
C2074 C 0.53449 0.6262 0.60678 0.0
C2075 C 0.52823 0.62445 0.59464 0.0
C2076 C 0.52854 0.6041 0.61304 0.0
C2077 C 0.52143 0.61268 0.59245 0.0
C2078 C 0.52724 0.57981 0.61715 0.0
C2079 C 0.5416 0.58317 0.64002 0.0
N2080 N 0.52197 0.60285 0.60146 0.0
N2081 N 0.53754 0.59368 0.6329 0.0
H2082 H 0.02297 0.38068 0.90984 0.0
H2083 H 0.06198 0.40813 0.84782 0.0
H2084 H 0.05552 0.36079 0.89146 0.0
H2085 H 0.03408 0.43062 0.87037 0.0
H2086 H 0.05562 0.38849 0.86007 0.0
H2087 H 0.02305 0.3967 0.892 0.0
C2088 C 0.03001 0.37956 0.90196 0.0
C2089 C 0.03943 0.36952 0.90229 0.0
C2090 C 0.05072 0.39768 0.86216 0.0
C2091 C 0.03958 0.38784 0.88186 0.0
C2092 C 0.05429 0.40889 0.85511 0.0
C2093 C 0.04874 0.42108 0.85826 0.0
C2094 C 0.04153 0.39871 0.87239 0.0
C2095 C 0.0388 0.42146 0.86778 0.0
C2096 C 0.03005 0.38872 0.89178 0.0
C2097 C 0.04822 0.3685 0.89174 0.0
N2098 N 0.03565 0.41048 0.87464 0.0
N2099 N 0.04819 0.37764 0.88204 0.0
H2100 H 0.33281 0.79277 0.09468 0.0
H2101 H 0.35293 0.7583 0.16186 0.0
H2102 H 0.30527 0.7805 0.12442 0.0
H2103 H 0.38033 0.7759 0.13482 0.0
H2104 H 0.33558 0.7608 0.14546 0.0
H2105 H 0.35024 0.78133 0.10651 0.0
C2106 C 0.33037 0.78748 0.10357 0.0
C2107 C 0.3176 0.78783 0.1087 0.0
C2108 C 0.34546 0.76387 0.14302 0.0
C2109 C 0.33753 0.77477 0.12233 0.0
C2110 C 0.35539 0.76235 0.15235 0.0
C2111 C 0.36803 0.76715 0.1498 0.0
C2112 C 0.34822 0.77021 0.13109 0.0
C2113 C 0.37066 0.77229 0.13729 0.0
C2114 C 0.34034 0.78097 0.11034 0.0
C2115 C 0.31502 0.7807 0.12022 0.0
N2116 N 0.3608 0.77388 0.12849 0.0
N2117 N 0.32492 0.77462 0.12673 0.0
H2118 H 0.93791 0.08944 0.34222 0.0
H2119 H 0.97571 0.11926 0.40393 0.0
H2120 H 0.96443 0.06752 0.36691 0.0
H2121 H 0.94414 0.13891 0.38366 0.0
H2122 H 0.97562 0.10227 0.38704 0.0
H2123 H 0.94421 0.10952 0.35377 0.0
C2124 C 0.94528 0.08888 0.34985 0.0
C2125 C 0.95047 0.07675 0.35377 0.0
C2126 C 0.96883 0.1104 0.3862 0.0
C2127 C 0.95761 0.09964 0.36708 0.0
C2128 C 0.96889 0.12012 0.39584 0.0
C2129 C 0.95975 0.13041 0.39536 0.0
C2130 C 0.95957 0.11095 0.37601 0.0
C2131 C 0.95122 0.13105 0.38455 0.0
C2132 C 0.94881 0.10034 0.3565 0.0
C2133 C 0.96001 0.07663 0.36371 0.0
N2134 N 0.95124 0.12137 0.37539 0.0
N2135 N 0.96314 0.08787 0.37014 0.0
H2136 H 0.14051 0.23329 0.66297 0.0
H2137 H 0.16534 0.19415 0.59983 0.0
H2138 H 0.11911 0.20178 0.64442 0.0
H2139 H 0.19029 0.21813 0.62425 0.0
H2140 H 0.14633 0.20164 0.61238 0.0
H2141 H 0.15668 0.23236 0.64525 0.0
C2142 C 0.13908 0.22633 0.65506 0.0
C2143 C 0.12857 0.21743 0.6553 0.0
C2144 C 0.15594 0.20543 0.61483 0.0
C2145 C 0.14701 0.21634 0.63503 0.0
C2146 C 0.1668 0.20122 0.60763 0.0
C2147 C 0.17945 0.20533 0.61116 0.0
C2148 C 0.15777 0.21384 0.62559 0.0
C2149 C 0.18073 0.21453 0.62133 0.0
C2150 C 0.14833 0.22579 0.64498 0.0
C2151 C 0.12719 0.20868 0.64476 0.0
N2152 N 0.17004 0.21835 0.6283 0.0
N2153 N 0.13637 0.20826 0.63512 0.0
H2154 H 0.46321 0.43882 0.62451 0.0
H2155 H 0.45469 0.36253 0.61234 0.0
H2156 H 0.44543 0.41246 0.65248 0.0
H2157 H 0.47611 0.3881 0.58625 0.0
H2158 H 0.45416 0.38 0.62866 0.0
H2159 H 0.47099 0.41994 0.61203 0.0
C2160 C 0.46111 0.42905 0.62815 0.0
C2161 C 0.45345 0.42722 0.63945 0.0
C2162 C 0.45915 0.38175 0.61945 0.0
C2163 C 0.46221 0.40554 0.62509 0.0
C2164 C 0.45945 0.37177 0.61011 0.0
C2165 C 0.46526 0.37393 0.59781 0.0
C2166 C 0.46456 0.39406 0.61644 0.0
C2167 C 0.47142 0.38604 0.59555 0.0
C2168 C 0.46557 0.41827 0.621 0.0
C2169 C 0.45119 0.41434 0.64376 0.0
N2170 N 0.47071 0.39572 0.60469 0.0
N2171 N 0.45536 0.404 0.63646 0.0
H2172 H 0.30667 0.71913 0.37177 0.0
H2173 H 0.38359 0.71592 0.36331 0.0
H2174 H 0.3331 0.70593 0.40211 0.0
H2175 H 0.35801 0.73438 0.3351 0.0
H2176 H 0.3656 0.71546 0.37904 0.0
H2177 H 0.32537 0.72793 0.35966 0.0
C2178 C 0.31638 0.71827 0.376 0.0
C2179 C 0.31834 0.71155 0.38787 0.0
C2180 C 0.36394 0.71983 0.3695 0.0
C2181 C 0.33981 0.7215 0.37397 0.0
C2182 C 0.37423 0.7201 0.36051 0.0
C2183 C 0.37223 0.72501 0.34781 0.0
C2184 C 0.35147 0.72428 0.3657 0.0
C2185 C 0.35995 0.73043 0.34476 0.0
C2186 C 0.32706 0.72331 0.36907 0.0
C2187 C 0.33112 0.71087 0.39293 0.0
N2188 N 0.34995 0.72968 0.35356 0.0
N2189 N 0.34139 0.71558 0.38584 0.0
H2190 H 0.68243 0.78526 0.87987 0.0
H2191 H 0.60914 0.80368 0.86179 0.0
H2192 H 0.65816 0.81057 0.90356 0.0
H2193 H 0.63269 0.77638 0.83959 0.0
H2194 H 0.62559 0.80343 0.87915 0.0
H2195 H 0.66313 0.77883 0.86731 0.0
C2196 C 0.67299 0.78928 0.88259 0.0
C2197 C 0.67194 0.79865 0.89264 0.0
C2198 C 0.62709 0.79734 0.87057 0.0
C2199 C 0.64981 0.79149 0.87812 0.0
C2200 C 0.6177 0.7975 0.86063 0.0
C2201 C 0.61964 0.79022 0.84909 0.0
C2202 C 0.6386 0.78996 0.86895 0.0
C2203 C 0.63084 0.78226 0.84824 0.0
C2204 C 0.66196 0.78562 0.87539 0.0
C2205 C 0.65943 0.8034 0.89583 0.0
N2206 N 0.63999 0.7825 0.85794 0.0
N2207 N 0.64888 0.79996 0.88842 0.0
H2208 H 0.62406 0.53149 0.5633 0.0
H2209 H 0.60612 0.54659 0.63723 0.0
H2210 H 0.64769 0.55582 0.58864 0.0
H2211 H 0.58467 0.51914 0.61318 0.0
H2212 H 0.62342 0.54722 0.62075 0.0
H2213 H 0.61174 0.52395 0.58236 0.0
C2214 C 0.62682 0.53508 0.57291 0.0
C2215 C 0.63677 0.5445 0.57435 0.0
C2216 C 0.61504 0.5409 0.61914 0.0
C2217 C 0.62256 0.53601 0.59622 0.0
C2218 C 0.60513 0.54054 0.62855 0.0
C2219 C 0.59382 0.53297 0.62647 0.0
C2220 C 0.61356 0.53378 0.60745 0.0
C2221 C 0.59317 0.5252 0.61513 0.0
C2222 C 0.61976 0.53076 0.5838 0.0
C2223 C 0.64002 0.54866 0.58705 0.0
N2224 N 0.60279 0.52598 0.60593 0.0
N2225 N 0.63277 0.54457 0.59747 0.0
H2226 H 0.19298 0.40691 0.84399 0.0
H2227 H 0.22744 0.34137 0.8694 0.0
H2228 H 0.21541 0.38066 0.81949 0.0
H2229 H 0.19945 0.36384 0.89187 0.0
H2230 H 0.22761 0.3587 0.85283 0.0
H2231 H 0.19994 0.39439 0.86326 0.0
C2232 C 0.19962 0.39872 0.84268 0.0
C2233 C 0.20342 0.39467 0.83009 0.0
C2234 C 0.22158 0.35992 0.86148 0.0
C2235 C 0.2113 0.38025 0.85204 0.0
C2236 C 0.22149 0.35003 0.87096 0.0
C2237 C 0.21322 0.35103 0.88192 0.0
C2238 C 0.21335 0.37088 0.86298 0.0
C2239 C 0.2058 0.36254 0.88346 0.0
C2240 C 0.20353 0.39152 0.85368 0.0
C2241 C 0.21206 0.38399 0.829 0.0
N2242 N 0.20592 0.37194 0.87402 0.0
N2243 N 0.21555 0.37704 0.8398 0.0
H2244 H 0.36966 0.96992 0.06553 0.0
H2245 H 0.39045 0.95744 0.1386 0.0
H2246 H 0.34561 0.94852 0.09302 0.0
H2247 H 0.40933 0.9864 0.11419 0.0
H2248 H 0.37238 0.95632 0.12299 0.0
H2249 H 0.38252 0.97852 0.08379 0.0
C2250 C 0.36691 0.96724 0.07544 0.0
C2251 C 0.35669 0.95829 0.07774 0.0
C2252 C 0.38034 0.9631 0.12112 0.0
C2253 C 0.37153 0.96793 0.09869 0.0
C2254 C 0.39069 0.96371 0.13003 0.0
C2255 C 0.4015 0.97187 0.12757 0.0
C2256 C 0.38091 0.9705 0.10952 0.0
C2257 C 0.40122 0.97992 0.11641 0.0
C2258 C 0.37426 0.97216 0.08587 0.0
C2259 C 0.35347 0.95529 0.09078 0.0
N2260 N 0.39121 0.97883 0.10764 0.0
N2261 N 0.36105 0.95988 0.10075 0.0
H2262 H 0.77488 0.16185 0.36842 0.0
H2263 H 0.80877 0.09717 0.34017 0.0
H2264 H 0.80391 0.13914 0.38929 0.0
H2265 H 0.784 0.12297 0.31751 0.0
H2266 H 0.80299 0.10947 0.35995 0.0
H2267 H 0.7742 0.14488 0.35149 0.0
C2268 C 0.78098 0.15322 0.36955 0.0
C2269 C 0.78964 0.15204 0.38018 0.0
C2270 C 0.79865 0.1123 0.35067 0.0
C2271 C 0.78894 0.1326 0.36081 0.0
C2272 C 0.80189 0.10523 0.33939 0.0
C2273 C 0.79705 0.1092 0.32713 0.0
C2274 C 0.79051 0.12339 0.34967 0.0
C2275 C 0.78814 0.1197 0.32672 0.0
C2276 C 0.7806 0.14354 0.35987 0.0
C2277 C 0.79723 0.14058 0.38116 0.0
N2278 N 0.7853 0.12653 0.33779 0.0
N2279 N 0.79682 0.13138 0.37153 0.0
H2280 H 0.62709 0.46302 0.43623 0.0
H2281 H 0.61177 0.45373 0.36061 0.0
H2282 H 0.65349 0.44406 0.40911 0.0
H2283 H 0.58655 0.47488 0.38723 0.0
H2284 H 0.62884 0.45342 0.37736 0.0
H2285 H 0.61404 0.4708 0.41777 0.0
C2286 C 0.63028 0.46067 0.42637 0.0
C2287 C 0.64128 0.45267 0.42422 0.0
C2288 C 0.61965 0.4583 0.37949 0.0
C2289 C 0.62625 0.46142 0.40302 0.0
C2290 C 0.60988 0.45848 0.36993 0.0
C2291 C 0.59761 0.46414 0.37261 0.0
C2292 C 0.61711 0.4637 0.39191 0.0
C2293 C 0.5958 0.47029 0.38478 0.0
C2294 C 0.6228 0.46512 0.41582 0.0
C2295 C 0.64502 0.45009 0.41123 0.0
N2296 N 0.60537 0.46972 0.39406 0.0
N2297 N 0.63738 0.45426 0.40113 0.0
H2298 H 0.26882 0.33934 0.63082 0.0
H2299 H 0.30576 0.40342 0.65658 0.0
H2300 H 0.29855 0.36021 0.60906 0.0
H2301 H 0.28195 0.37822 0.68089 0.0
H2302 H 0.29851 0.39114 0.63728 0.0
H2303 H 0.26901 0.35684 0.64727 0.0
C2304 C 0.27521 0.34771 0.62937 0.0
C2305 C 0.28387 0.34819 0.61869 0.0
C2306 C 0.2947 0.38845 0.64682 0.0
C2307 C 0.28416 0.3682 0.63746 0.0
C2308 C 0.29878 0.39551 0.65784 0.0
C2309 C 0.29466 0.39168 0.6704 0.0
C2310 C 0.28644 0.37752 0.64839 0.0
C2311 C 0.28557 0.38137 0.67142 0.0
C2312 C 0.27534 0.35767 0.63878 0.0
C2313 C 0.29188 0.35931 0.61727 0.0
N2314 N 0.28191 0.37453 0.66059 0.0
N2315 N 0.29195 0.36879 0.62663 0.0
H2316 H 0.38517 0.03985 0.86501 0.0
H2317 H 0.3749 0.03138 0.94155 0.0
H2318 H 0.4133 0.02093 0.89038 0.0
H2319 H 0.34528 0.04667 0.91544 0.0
H2320 H 0.38765 0.0243 0.92258 0.0
H2321 H 0.36914 0.03931 0.88274 0.0
C2322 C 0.38793 0.03541 0.87426 0.0
C2323 C 0.40068 0.03063 0.87628 0.0
C2324 C 0.37826 0.02901 0.92098 0.0
C2325 C 0.38238 0.03011 0.89671 0.0
C2326 C 0.37096 0.03306 0.93183 0.0
C2327 C 0.35911 0.03984 0.93009 0.0
C2328 C 0.37375 0.0319 0.9083 0.0
C2329 C 0.35443 0.0416 0.91726 0.0
C2330 C 0.37875 0.03509 0.8844 0.0
C2331 C 0.40362 0.02484 0.88842 0.0
N2332 N 0.36187 0.03786 0.90685 0.0
N2333 N 0.39461 0.02494 0.89825 0.0
H2334 H 0.70276 0.13762 0.10754 0.0
H2335 H 0.71596 0.11962 0.18155 0.0
H2336 H 0.72998 0.15884 0.13205 0.0
H2337 H 0.69332 0.09529 0.15534 0.0
H2338 H 0.72418 0.1319 0.16275 0.0
H2339 H 0.70208 0.12009 0.12377 0.0
C2340 C 0.70875 0.1385 0.11627 0.0
C2341 C 0.71626 0.14982 0.11856 0.0
C2342 C 0.71761 0.12372 0.16106 0.0
C2343 C 0.71539 0.12982 0.13731 0.0
C2344 C 0.71291 0.11669 0.1718 0.0
C2345 C 0.70374 0.10657 0.17003 0.0
C2346 C 0.71297 0.12075 0.14844 0.0
C2347 C 0.70027 0.1031 0.15717 0.0
C2348 C 0.70838 0.12846 0.12554 0.0
C2349 C 0.72397 0.15033 0.12994 0.0
N2350 N 0.70469 0.11035 0.14688 0.0
N2351 N 0.72314 0.14059 0.13902 0.0
H2352 H 0.56333 0.12466 0.02993 0.0
H2353 H 0.61843 0.08806 0.01607 0.0
H2354 H 0.58851 0.14951 0.05318 0.0
H2355 H 0.63419 0.10721 0.05039 0.0
H2356 H 0.60132 0.10478 0.01494 0.0
H2357 H 0.58235 0.11226 0.02285 0.0
C2358 C 0.57294 0.12773 0.03327 0.0
C2359 C 0.57429 0.13802 0.04233 0.0
C2360 C 0.60845 0.10531 0.02277 0.0
C2361 C 0.59633 0.12387 0.03414 0.0
C2362 C 0.61833 0.09582 0.02333 0.0
C2363 C 0.62756 0.09603 0.03354 0.0
C2364 C 0.60775 0.115 0.03258 0.0
C2365 C 0.62711 0.10647 0.04251 0.0
C2366 C 0.58389 0.12066 0.02913 0.0
C2367 C 0.58698 0.14159 0.04627 0.0
N2368 N 0.61728 0.11542 0.04191 0.0
N2369 N 0.59748 0.13435 0.04236 0.0
H2370 H 0.65809 0.36801 0.27329 0.0
H2371 H 0.59374 0.34228 0.30967 0.0
H2372 H 0.63659 0.39028 0.30219 0.0
H2373 H 0.61913 0.31805 0.286 0.0
H2374 H 0.60604 0.36164 0.30254 0.0
H2375 H 0.64072 0.35148 0.27352 0.0
C2376 C 0.64963 0.36954 0.27953 0.0
C2377 C 0.64893 0.38042 0.28793 0.0
C2378 C 0.60877 0.3521 0.29873 0.0
C2379 C 0.62905 0.36151 0.28827 0.0
C2380 C 0.60169 0.34105 0.30273 0.0
C2381 C 0.60558 0.32851 0.29862 0.0
C2382 C 0.61975 0.35056 0.29053 0.0
C2383 C 0.61595 0.32751 0.28961 0.0
C2384 C 0.63973 0.36008 0.27967 0.0
C2385 C 0.63767 0.38193 0.29572 0.0
N2386 N 0.62278 0.33837 0.28601 0.0
N2387 N 0.62825 0.3725 0.29582 0.0
H2388 H 0.36003 0.38772 0.55603 0.0
H2389 H 0.43237 0.37009 0.53388 0.0
H2390 H 0.38115 0.40855 0.5258 0.0
H2391 H 0.41041 0.3475 0.56216 0.0
H2392 H 0.41236 0.38175 0.52795 0.0
H2393 H 0.37686 0.37072 0.55576 0.0
C2394 C 0.36813 0.38865 0.54922 0.0
C2395 C 0.3693 0.39972 0.5411 0.0
C2396 C 0.41184 0.37409 0.5353 0.0
C2397 C 0.38867 0.38028 0.5408 0.0
C2398 C 0.42328 0.3674 0.53867 0.0
C2399 C 0.42311 0.35797 0.5487 0.0
C2400 C 0.40017 0.37147 0.54212 0.0
C2401 C 0.41102 0.35478 0.55445 0.0
C2402 C 0.37773 0.37891 0.54905 0.0
C2403 C 0.37992 0.40028 0.53235 0.0
N2404 N 0.40007 0.3617 0.55126 0.0
N2405 N 0.38929 0.3908 0.53257 0.0
H2406 H 0.40658 0.15242 0.80715 0.0
H2407 H 0.34387 0.12809 0.7671 0.0
H2408 H 0.3823 0.17753 0.78322 0.0
H2409 H 0.36275 0.10584 0.79777 0.0
H2410 H 0.36167 0.14417 0.76818 0.0
H2411 H 0.39451 0.13337 0.7989 0.0
C2412 C 0.39894 0.15391 0.79992 0.0
C2413 C 0.39526 0.1666 0.79606 0.0
C2414 C 0.36202 0.13564 0.77452 0.0
C2415 C 0.38137 0.14489 0.78669 0.0
C2416 C 0.35188 0.12644 0.77387 0.0
C2417 C 0.35169 0.11575 0.78254 0.0
C2418 C 0.37205 0.1341 0.78385 0.0
C2419 C 0.36238 0.11407 0.79107 0.0
C2420 C 0.392 0.14303 0.79528 0.0
C2421 C 0.3853 0.16793 0.78664 0.0
N2422 N 0.37203 0.12324 0.79162 0.0
N2423 N 0.37858 0.15723 0.78242 0.0
H2424 H 0.64273 0.88875 0.95246 0.0
H2425 H 0.56788 0.87212 0.96315 0.0
H2426 H 0.61745 0.91103 0.97806 0.0
H2427 H 0.59461 0.84673 0.94236 0.0
H2428 H 0.58653 0.88453 0.97156 0.0
H2429 H 0.62618 0.87151 0.95143 0.0
C2430 C 0.63376 0.88993 0.95803 0.0
C2431 C 0.63136 0.90145 0.96518 0.0
C2432 C 0.58836 0.8761 0.96535 0.0
C2433 C 0.61227 0.88179 0.96391 0.0
C2434 C 0.5777 0.869 0.96054 0.0
C2435 C 0.57969 0.85851 0.95184 0.0
C2436 C 0.60109 0.87282 0.9613 0.0
C2437 C 0.59262 0.85482 0.94894 0.0
C2438 C 0.62431 0.88006 0.95746 0.0
C2439 C 0.61965 0.90236 0.97234 0.0
N2440 N 0.60283 0.86213 0.95345 0.0
N2441 N 0.61043 0.89277 0.97133 0.0
H2442 H 0.90396 0.33678 0.18926 0.0
H2443 H 0.85888 0.387 0.19271 0.0
H2444 H 0.87435 0.31452 0.20978 0.0
H2445 H 0.83984 0.3647 0.22326 0.0
H2446 H 0.87623 0.37074 0.1919 0.0
H2447 H 0.89274 0.35698 0.19551 0.0
C2448 C 0.89516 0.33614 0.19518 0.0
C2449 C 0.8899 0.32391 0.1987 0.0
C2450 C 0.86853 0.36951 0.19909 0.0
C2451 C 0.87667 0.34697 0.20548 0.0
C2452 C 0.85849 0.3788 0.19946 0.0
C2453 C 0.84777 0.37712 0.20793 0.0
C2454 C 0.86785 0.35841 0.20724 0.0
C2455 C 0.84785 0.36634 0.21649 0.0
C2456 C 0.88863 0.3477 0.19861 0.0
C2457 C 0.87861 0.32371 0.20658 0.0
N2458 N 0.85762 0.35729 0.21576 0.0
N2459 N 0.87229 0.33504 0.20954 0.0
H2460 H 0.44427 0.61999 0.4615 0.0
H2461 H 0.36686 0.61332 0.45837 0.0
H2462 H 0.41845 0.65086 0.44831 0.0
H2463 H 0.39222 0.58338 0.47429 0.0
H2464 H 0.38532 0.62851 0.45806 0.0
H2465 H 0.42528 0.60788 0.4696 0.0
C2466 C 0.43463 0.62433 0.46048 0.0
C2467 C 0.43294 0.63636 0.45399 0.0
C2468 C 0.38683 0.61869 0.46181 0.0
C2469 C 0.41112 0.62246 0.46315 0.0
C2470 C 0.37628 0.60999 0.46199 0.0
C2471 C 0.37806 0.59698 0.46615 0.0
C2472 C 0.39931 0.61431 0.46566 0.0
C2473 C 0.39044 0.59329 0.4709 0.0
C2474 C 0.42377 0.61739 0.46512 0.0
C2475 C 0.42022 0.64155 0.4531 0.0
N2476 N 0.40066 0.60184 0.4703 0.0
N2477 N 0.40978 0.63447 0.45743 0.0
H2478 H 0.1737 0.14581 0.73726 0.0
H2479 H 0.10485 0.1695 0.70969 0.0
H2480 H 0.14268 0.11994 0.72464 0.0
H2481 H 0.1366 0.1956 0.71992 0.0
H2482 H 0.11648 0.15156 0.72048 0.0
H2483 H 0.15822 0.16419 0.73667 0.0
C2484 C 0.16354 0.14393 0.73478 0.0
C2485 C 0.15951 0.13142 0.73072 0.0
C2486 C 0.12082 0.16126 0.72055 0.0
C2487 C 0.14186 0.15234 0.72978 0.0
C2488 C 0.11417 0.17152 0.71438 0.0
C2489 C 0.11989 0.18401 0.71363 0.0
C2490 C 0.13333 0.16348 0.72592 0.0
C2491 C 0.13192 0.18607 0.72003 0.0
C2492 C 0.15473 0.15443 0.73433 0.0
C2493 C 0.14624 0.12951 0.72758 0.0
N2494 N 0.13834 0.17586 0.72572 0.0
N2495 N 0.13795 0.1399 0.72695 0.0
H2496 H 0.02243 0.10256 0.57391 0.0
H2497 H 0.03967 0.07205 0.64367 0.0
H2498 H 0.02964 0.12522 0.60895 0.0
H2499 H 0.03599 0.04914 0.60825 0.0
H2500 H 0.03093 0.09102 0.63204 0.0
H2501 H 0.02214 0.08258 0.58724 0.0
C2502 C 0.02363 0.10338 0.58444 0.0
C2503 C 0.02632 0.11555 0.59029 0.0
C2504 C 0.03185 0.0818 0.62684 0.0
C2505 C 0.02614 0.09274 0.60554 0.0
C2506 C 0.03685 0.07094 0.63349 0.0
C2507 C 0.03881 0.05904 0.62686 0.0
C2508 C 0.02888 0.08081 0.61343 0.0
C2509 C 0.0348 0.05817 0.61371 0.0
C2510 C 0.02354 0.09195 0.59203 0.0
C2511 C 0.02777 0.11602 0.60398 0.0
N2512 N 0.03022 0.06897 0.60736 0.0
N2513 N 0.02785 0.10477 0.6111 0.0
H2514 H 0.56789 0.90961 0.84336 0.0
H2515 H 0.52684 0.87874 0.90235 0.0
H2516 H 0.53797 0.9302 0.86509 0.0
H2517 H 0.56146 0.86095 0.88566 0.0
H2518 H 0.52716 0.89513 0.88488 0.0
H2519 H 0.56179 0.88934 0.85471 0.0
C2520 C 0.55982 0.90981 0.85026 0.0
C2521 C 0.5536 0.92166 0.85348 0.0
C2522 C 0.53458 0.88753 0.88494 0.0
C2523 C 0.54668 0.89858 0.86656 0.0
C2524 C 0.5344 0.87816 0.89491 0.0
C2525 C 0.5443 0.86861 0.89563 0.0
C2526 C 0.54473 0.88738 0.87562 0.0
C2527 C 0.55376 0.86827 0.88562 0.0
C2528 C 0.55641 0.89825 0.8568 0.0
C2529 C 0.54319 0.92133 0.86249 0.0
N2530 N 0.55384 0.87762 0.87613 0.0
N2531 N 0.54019 0.91002 0.86885 0.0
H2532 H 0.8624 0.26891 0.16023 0.0
H2533 H 0.83643 0.30163 0.09398 0.0
H2534 H 0.88554 0.2943 0.13547 0.0
H2535 H 0.8115 0.28253 0.1224 0.0
H2536 H 0.85563 0.29426 0.10628 0.0
H2537 H 0.84498 0.26917 0.14373 0.0
C2538 C 0.86392 0.27435 0.15123 0.0
C2539 C 0.87535 0.28179 0.14934 0.0
C2540 C 0.84596 0.29151 0.10971 0.0
C2541 C 0.85545 0.28216 0.13046 0.0
C2542 C 0.83498 0.29568 0.10266 0.0
C2543 C 0.82232 0.2929 0.10729 0.0
C2544 C 0.84426 0.28452 0.12147 0.0
C2545 C 0.82107 0.28508 0.11857 0.0
C2546 C 0.85395 0.27452 0.14184 0.0
C2547 C 0.87681 0.2886 0.13744 0.0
N2548 N 0.8319 0.28131 0.12536 0.0
N2549 N 0.86691 0.28874 0.12853 0.0
H2550 H 0.48419 0.61697 0.40711 0.0
H2551 H 0.44547 0.59401 0.34306 0.0
H2552 H 0.45549 0.64049 0.38673 0.0
H2553 H 0.46707 0.56796 0.36852 0.0
H2554 H 0.45426 0.61274 0.35525 0.0
H2555 H 0.48306 0.60077 0.3894 0.0
C2556 C 0.47787 0.61887 0.39878 0.0
C2557 C 0.46973 0.62996 0.39851 0.0
C2558 C 0.45726 0.60292 0.358 0.0
C2559 C 0.46836 0.61149 0.37829 0.0
C2560 C 0.4523 0.59223 0.35101 0.0
C2561 C 0.45534 0.5794 0.35495 0.0
C2562 C 0.46532 0.60074 0.36897 0.0
C2563 C 0.46428 0.57769 0.36529 0.0
C2564 C 0.47719 0.60959 0.38871 0.0
C2565 C 0.46176 0.63194 0.38746 0.0
N2566 N 0.46881 0.58823 0.37206 0.0
N2567 N 0.46115 0.62272 0.37787 0.0
H2568 H 0.659 0.69226 0.59419 0.0
H2569 H 0.63363 0.72781 0.65913 0.0
H2570 H 0.68371 0.71445 0.62046 0.0
H2571 H 0.61061 0.70053 0.63633 0.0
H2572 H 0.65049 0.72741 0.64207 0.0
H2573 H 0.63977 0.69976 0.60641 0.0
C2574 C 0.66037 0.69894 0.60233 0.0
C2575 C 0.673 0.70253 0.60646 0.0
C2576 C 0.64166 0.72165 0.64073 0.0
C2577 C 0.65107 0.71103 0.62056 0.0
C2578 C 0.63201 0.7219 0.65045 0.0
C2579 C 0.62081 0.714 0.64928 0.0
C2580 C 0.64007 0.71345 0.62976 0.0
C2581 C 0.6192 0.70661 0.63776 0.0
C2582 C 0.64939 0.70316 0.60936 0.0
C2583 C 0.67417 0.71125 0.61707 0.0
N2584 N 0.6288 0.7064 0.62853 0.0
N2585 N 0.66337 0.71505 0.62386 0.0
H2586 H 0.96231 0.9406 0.62454 0.0
H2587 H 0.95229 0.86468 0.61146 0.0
H2588 H 0.94412 0.91428 0.65229 0.0
H2589 H 0.97484 0.88994 0.58602 0.0
H2590 H 0.95192 0.882 0.62795 0.0
H2591 H 0.96974 0.92171 0.61186 0.0
C2592 C 0.96005 0.93083 0.62809 0.0
C2593 C 0.95239 0.92903 0.63938 0.0
C2594 C 0.95713 0.88371 0.61885 0.0
C2595 C 0.96074 0.90734 0.62481 0.0
C2596 C 0.95733 0.87381 0.6094 0.0
C2597 C 0.96342 0.87594 0.59724 0.0
C2598 C 0.96291 0.8959 0.61606 0.0
C2599 C 0.96992 0.88791 0.59521 0.0
C2600 C 0.96431 0.92004 0.62083 0.0
C2601 C 0.9499 0.91615 0.64358 0.0
N2602 N 0.96931 0.89752 0.60443 0.0
N2603 N 0.95387 0.9058 0.63617 0.0
H2604 H 0.89219 0.19627 0.36132 0.0
H2605 H 0.82059 0.21732 0.38246 0.0
H2606 H 0.87 0.22669 0.34195 0.0
H2607 H 0.8442 0.18981 0.40431 0.0
H2608 H 0.83994 0.22366 0.36992 0.0
H2609 H 0.87629 0.19636 0.3792 0.0
C2610 C 0.88406 0.2031 0.3609 0.0
C2611 C 0.8823 0.21132 0.34999 0.0
C2612 C 0.84097 0.21641 0.37761 0.0
C2613 C 0.86397 0.21139 0.37042 0.0
C2614 C 0.82992 0.2128 0.3848 0.0
C2615 C 0.83074 0.20285 0.39429 0.0
C2616 C 0.85291 0.20989 0.37977 0.0
C2617 C 0.8431 0.19744 0.39701 0.0
C2618 C 0.87499 0.20316 0.37114 0.0
C2619 C 0.87168 0.22007 0.35009 0.0
N2620 N 0.85365 0.20084 0.38959 0.0
N2621 N 0.8628 0.21973 0.36003 0.0
H2622 H 0.12653 0.27372 0.84637 0.0
H2623 H 0.18269 0.28649 0.88153 0.0
H2624 H 0.11203 0.30882 0.86511 0.0
H2625 H 0.15886 0.31093 0.90654 0.0
H2626 H 0.16321 0.27998 0.86956 0.0
H2627 H 0.14391 0.27247 0.86274 0.0
C2628 C 0.12698 0.28115 0.85395 0.0
C2629 C 0.11799 0.29158 0.85415 0.0
C2630 C 0.16205 0.28641 0.87791 0.0
C2631 C 0.13819 0.2905 0.8727 0.0
C2632 C 0.17327 0.29022 0.88473 0.0
C2633 C 0.17244 0.29941 0.89495 0.0
C2634 C 0.14985 0.29188 0.88129 0.0
C2635 C 0.15997 0.30388 0.89868 0.0
C2636 C 0.13702 0.28052 0.86325 0.0
C2637 C 0.11889 0.30074 0.86439 0.0
N2638 N 0.1492 0.30027 0.89168 0.0
N2639 N 0.1289 0.30008 0.87314 0.0
H2640 H 0.62301 0.0326 0.06117 0.0
H2641 H 0.61071 0.04326 0.13695 0.0
H2642 H 0.65091 0.05123 0.087 0.0
H2643 H 0.58558 0.01945 0.11261 0.0
H2644 H 0.62704 0.04353 0.11949 0.0
H2645 H 0.61078 0.02494 0.08027 0.0
C2646 C 0.6267 0.0349 0.07086 0.0
C2647 C 0.63789 0.04277 0.07247 0.0
C2648 C 0.61806 0.03806 0.11801 0.0
C2649 C 0.62382 0.03415 0.09441 0.0
C2650 C 0.60872 0.03791 0.12799 0.0
C2651 C 0.59668 0.03149 0.12615 0.0
C2652 C 0.61528 0.03193 0.106 0.0
C2653 C 0.59469 0.02459 0.11441 0.0
C2654 C 0.6197 0.03051 0.08178 0.0
C2655 C 0.64227 0.04531 0.08527 0.0
N2656 N 0.6038 0.0252 0.10467 0.0
N2657 N 0.6351 0.04121 0.09574 0.0
H2658 H 0.21808 0.88077 0.32091 0.0
H2659 H 0.20121 0.8623 0.39412 0.0
H2660 H 0.19404 0.90488 0.34605 0.0
H2661 H 0.22969 0.84134 0.37086 0.0
H2662 H 0.20119 0.87988 0.37791 0.0
H2663 H 0.22532 0.86838 0.34005 0.0
C2664 C 0.21452 0.88363 0.33051 0.0
C2665 C 0.20525 0.89373 0.33186 0.0
C2666 C 0.20761 0.87155 0.37643 0.0
C2667 C 0.21333 0.87941 0.35381 0.0
C2668 C 0.20761 0.86148 0.38568 0.0
C2669 C 0.21529 0.85022 0.38372 0.0
C2670 C 0.2152 0.87028 0.36501 0.0
C2671 C 0.22352 0.84979 0.3727 0.0
C2672 C 0.21865 0.87653 0.34144 0.0
C2673 C 0.2011 0.8971 0.34454 0.0
N2674 N 0.22308 0.85956 0.36363 0.0
N2675 N 0.20497 0.88978 0.355 0.0
H2676 H 0.34389 0.44211 0.59337 0.0
H2677 H 0.40754 0.47981 0.61905 0.0
H2678 H 0.36917 0.46566 0.56888 0.0
H2679 H 0.38696 0.44994 0.64089 0.0
H2680 H 0.39009 0.47936 0.60256 0.0
H2681 H 0.35599 0.44971 0.61265 0.0
C2682 C 0.35177 0.44911 0.59207 0.0
C2683 C 0.35569 0.45305 0.57948 0.0
C2684 C 0.3893 0.47306 0.61108 0.0
C2685 C 0.36963 0.46168 0.60146 0.0
C2686 C 0.39924 0.47334 0.62051 0.0
C2687 C 0.39883 0.46472 0.63123 0.0
C2688 C 0.37888 0.46413 0.61241 0.0
C2689 C 0.3878 0.45659 0.63265 0.0
C2690 C 0.35873 0.45339 0.60307 0.0
C2691 C 0.36596 0.46218 0.57839 0.0
N2692 N 0.37834 0.45638 0.62328 0.0
N2693 N 0.37269 0.46604 0.58922 0.0
H2694 H 0.77175 0.66047 0.86627 0.0
H2695 H 0.80468 0.59458 0.83974 0.0
H2696 H 0.79889 0.63674 0.8885 0.0
H2697 H 0.78303 0.62184 0.81563 0.0
H2698 H 0.79798 0.60693 0.8592 0.0
H2699 H 0.77129 0.64352 0.8493 0.0
C2700 C 0.77745 0.65161 0.8677 0.0
C2701 C 0.78557 0.65014 0.87871 0.0
C2702 C 0.79452 0.61007 0.84966 0.0
C2703 C 0.78512 0.63074 0.85932 0.0
C2704 C 0.79828 0.60298 0.83856 0.0
C2705 C 0.79461 0.60733 0.82603 0.0
C2706 C 0.78703 0.62156 0.84821 0.0
C2707 C 0.78628 0.61826 0.82509 0.0
C2708 C 0.7772 0.64195 0.85799 0.0
C2709 C 0.79266 0.6384 0.88007 0.0
N2710 N 0.78292 0.6251 0.83601 0.0
N2711 N 0.7924 0.62923 0.87041 0.0
H2712 H 0.61609 0.95319 0.86144 0.0
H2713 H 0.62648 0.96551 0.9375 0.0
H2714 H 0.58969 0.97616 0.88527 0.0
H2715 H 0.65479 0.94585 0.91291 0.0
H2716 H 0.6146 0.97241 0.91792 0.0
H2717 H 0.63193 0.95321 0.87937 0.0
C2718 C 0.61368 0.95839 0.87038 0.0
C2719 C 0.60144 0.9645 0.87192 0.0
C2720 C 0.62352 0.96676 0.91678 0.0
C2721 C 0.61951 0.96446 0.89257 0.0
C2722 C 0.63033 0.96282 0.92797 0.0
C2723 C 0.64154 0.9549 0.92686 0.0
C2724 C 0.62785 0.96262 0.90437 0.0
C2725 C 0.64613 0.95185 0.91425 0.0
C2726 C 0.62275 0.95841 0.88063 0.0
C2727 C 0.59895 0.97121 0.88368 0.0
N2728 N 0.63915 0.95553 0.9035 0.0
N2729 N 0.60782 0.97084 0.89363 0.0
H2730 H 0.28148 0.88 0.17951 0.0
H2731 H 0.3025 0.85729 0.10845 0.0
H2732 H 0.31154 0.89916 0.15668 0.0
H2733 H 0.26999 0.84038 0.12964 0.0
H2734 H 0.30341 0.87508 0.12439 0.0
H2735 H 0.27442 0.86819 0.15995 0.0
C2736 C 0.28642 0.88194 0.17031 0.0
C2737 C 0.2973 0.89039 0.16979 0.0
C2738 C 0.29594 0.86759 0.12549 0.0
C2739 C 0.28939 0.87671 0.14738 0.0
C2740 C 0.29544 0.85739 0.1164 0.0
C2741 C 0.28631 0.84719 0.11787 0.0
C2742 C 0.28737 0.86753 0.13626 0.0
C2743 C 0.27728 0.84797 0.12822 0.0
C2744 C 0.28239 0.87516 0.15913 0.0
C2745 C 0.3032 0.89264 0.15757 0.0
N2746 N 0.27818 0.85784 0.13715 0.0
N2747 N 0.29934 0.88563 0.1469 0.0
H2748 H 0.3482 0.5677 0.40947 0.0
H2749 H 0.40669 0.5264 0.37802 0.0
H2750 H 0.36838 0.53607 0.4291 0.0
H2751 H 0.38963 0.56081 0.36016 0.0
H2752 H 0.38935 0.52673 0.39456 0.0
H2753 H 0.35965 0.56201 0.38916 0.0
C2754 C 0.35478 0.55936 0.40944 0.0
C2755 C 0.35753 0.55251 0.42106 0.0
C2756 C 0.38931 0.53411 0.38692 0.0
C2757 C 0.37078 0.54607 0.39793 0.0
C2758 C 0.39921 0.53393 0.37747 0.0
C2759 C 0.39977 0.54374 0.36783 0.0
C2760 C 0.37991 0.5442 0.38676 0.0
C2761 C 0.38972 0.55317 0.36753 0.0
C2762 C 0.36139 0.55617 0.39786 0.0
C2763 C 0.36614 0.54177 0.42043 0.0
N2764 N 0.38031 0.55326 0.37696 0.0
N2765 N 0.3726 0.53901 0.40912 0.0
H2766 H 0.68754 0.59428 0.65681 0.0
H2767 H 0.7259 0.65768 0.63151 0.0
H2768 H 0.71235 0.61847 0.68114 0.0
H2769 H 0.69642 0.63713 0.6091 0.0
H2770 H 0.72513 0.64023 0.64796 0.0
H2771 H 0.69496 0.60656 0.63756 0.0
C2772 C 0.69477 0.60196 0.65808 0.0
C2773 C 0.69914 0.60553 0.67063 0.0
C2774 C 0.71897 0.63946 0.63935 0.0
C2775 C 0.70755 0.61968 0.6487 0.0
C2776 C 0.71942 0.64941 0.62994 0.0
C2777 C 0.71103 0.649 0.61904 0.0
C2778 C 0.71007 0.62903 0.63783 0.0
C2779 C 0.7029 0.63798 0.61747 0.0
C2780 C 0.69894 0.60902 0.64709 0.0
C2781 C 0.70854 0.61555 0.67167 0.0
N2782 N 0.70251 0.62851 0.62684 0.0
N2783 N 0.71229 0.62239 0.66088 0.0
H2784 H 0.61137 0.58524 0.52002 0.0
H2785 H 0.58305 0.65023 0.55329 0.0
H2786 H 0.63291 0.60953 0.54721 0.0
H2787 H 0.55931 0.62178 0.53276 0.0
H2788 H 0.60271 0.63844 0.54631 0.0
H2789 H 0.59372 0.60151 0.51991 0.0
C2790 C 0.6125 0.59409 0.52578 0.0
C2791 C 0.62353 0.59592 0.53383 0.0
C2792 C 0.5932 0.6349 0.54317 0.0
C2793 C 0.60337 0.61452 0.53378 0.0
C2794 C 0.58196 0.64165 0.54711 0.0
C2795 C 0.56949 0.63684 0.54382 0.0
C2796 C 0.59196 0.62326 0.53589 0.0
C2797 C 0.56871 0.62572 0.53571 0.0
C2798 C 0.6024 0.60335 0.52575 0.0
C2799 C 0.62449 0.60761 0.54104 0.0
N2800 N 0.57978 0.61921 0.53217 0.0
N2801 N 0.61448 0.61639 0.54095 0.0
H2802 H 0.61949 0.82027 0.78328 0.0
H2803 H 0.63883 0.89289 0.80282 0.0
H2804 H 0.59662 0.84414 0.8097 0.0
H2805 H 0.65937 0.87012 0.77362 0.0
H2806 H 0.62128 0.87662 0.80282 0.0
H2807 H 0.63188 0.83967 0.7768 0.0
C2808 C 0.6169 0.82966 0.78754 0.0
C2809 C 0.60715 0.83056 0.79721 0.0
C2810 C 0.62952 0.87527 0.79626 0.0
C2811 C 0.62149 0.8528 0.79001 0.0
C2812 C 0.63958 0.88456 0.79627 0.0
C2813 C 0.65072 0.88275 0.78838 0.0
C2814 C 0.63066 0.86401 0.78841 0.0
C2815 C 0.65105 0.87185 0.77998 0.0
C2816 C 0.624 0.84075 0.78384 0.0
C2817 C 0.60412 0.84299 0.80228 0.0
N2818 N 0.64127 0.86279 0.78037 0.0
N2819 N 0.61145 0.85359 0.79881 0.0
H2820 H 0.4168 0.85775 0.0717 0.0
H2821 H 0.38001 0.91011 0.02669 0.0
H2822 H 0.43388 0.87573 0.03737 0.0
H2823 H 0.36347 0.89322 0.06184 0.0
H2824 H 0.39819 0.89453 0.02813 0.0
H2825 H 0.39567 0.86749 0.06592 0.0
C2826 C 0.41607 0.86355 0.06284 0.0
C2827 C 0.42719 0.86612 0.05515 0.0
C2828 C 0.39048 0.89412 0.03543 0.0
C2829 C 0.40308 0.8774 0.04853 0.0
C2830 C 0.38008 0.903 0.03459 0.0
C2831 C 0.37032 0.90313 0.04429 0.0
C2832 C 0.39114 0.88535 0.04606 0.0
C2833 C 0.37089 0.89363 0.05426 0.0
C2834 C 0.404 0.86916 0.05955 0.0
C2835 C 0.42563 0.87366 0.04372 0.0
N2836 N 0.38121 0.88524 0.05498 0.0
N2837 N 0.41385 0.87917 0.04086 0.0
H2838 H 0.35925 0.61618 0.30536 0.0
H2839 H 0.37224 0.69054 0.28674 0.0
H2840 H 0.33646 0.63742 0.27667 0.0
H2841 H 0.39785 0.66791 0.31174 0.0
H2842 H 0.3609 0.6704 0.28053 0.0
H2843 H 0.37522 0.63401 0.30552 0.0
C2844 C 0.35769 0.62452 0.29896 0.0
C2845 C 0.34638 0.6254 0.29115 0.0
C2846 C 0.36913 0.66979 0.28722 0.0
C2847 C 0.36459 0.64593 0.29138 0.0
C2848 C 0.37562 0.6813 0.29077 0.0
C2849 C 0.38588 0.68094 0.29995 0.0
C2850 C 0.37281 0.65784 0.29301 0.0
C2851 C 0.38992 0.66867 0.30473 0.0
C2852 C 0.36683 0.6347 0.29904 0.0
C2853 C 0.34496 0.63637 0.28295 0.0
N2854 N 0.38323 0.65764 0.30137 0.0
N2855 N 0.35385 0.6463 0.28343 0.0
H2856 H 0.57164 0.3658 0.46593 0.0
H2857 H 0.64351 0.386 0.44563 0.0
H2858 H 0.59546 0.34309 0.43932 0.0
H2859 H 0.6218 0.40507 0.47656 0.0
H2860 H 0.62747 0.36823 0.44562 0.0
H2861 H 0.59109 0.37801 0.47261 0.0
C2862 C 0.58103 0.3632 0.46168 0.0
C2863 C 0.5819 0.35357 0.45189 0.0
C2864 C 0.62631 0.37618 0.45257 0.0
C2865 C 0.60419 0.36771 0.45929 0.0
C2866 C 0.63546 0.38637 0.45255 0.0
C2867 C 0.63386 0.39717 0.46094 0.0
C2868 C 0.61538 0.37688 0.46091 0.0
C2869 C 0.62335 0.39701 0.46982 0.0
C2870 C 0.59215 0.3702 0.46549 0.0
C2871 C 0.59433 0.35051 0.44683 0.0
N2872 N 0.61438 0.38715 0.46941 0.0
N2873 N 0.60495 0.35775 0.4504 0.0
H2874 H 0.90653 0.84085 0.69085 0.0
H2875 H 0.84207 0.86662 0.72696 0.0
H2876 H 0.88146 0.81678 0.71504 0.0
H2877 H 0.86318 0.88845 0.69743 0.0
H2878 H 0.85958 0.85025 0.72699 0.0
H2879 H 0.89406 0.86019 0.69767 0.0
C2880 C 0.89862 0.83966 0.69784 0.0
C2881 C 0.89487 0.82715 0.70219 0.0
C2882 C 0.86046 0.85872 0.72063 0.0
C2883 C 0.8805 0.84919 0.7099 0.0
C2884 C 0.85047 0.86808 0.72063 0.0
C2885 C 0.85103 0.87879 0.71199 0.0
C2886 C 0.87108 0.86008 0.71196 0.0
C2887 C 0.86222 0.88023 0.70409 0.0
C2888 C 0.89145 0.8507 0.70166 0.0
C2889 C 0.88454 0.82621 0.71126 0.0
N2890 N 0.87172 0.87089 0.70415 0.0
N2891 N 0.87761 0.83705 0.71467 0.0
H2892 H 0.37787 0.08712 0.98168 0.0
H2893 H 0.39906 0.15221 0.94355 0.0
H2894 H 0.35418 0.10652 0.95245 0.0
H2895 H 0.42546 0.12832 0.96646 0.0
H2896 H 0.38066 0.13899 0.95154 0.0
H2897 H 0.39337 0.10546 0.98084 0.0
C2898 C 0.37579 0.09534 0.97528 0.0
C2899 C 0.36485 0.09517 0.96694 0.0
C2900 C 0.39046 0.13681 0.95499 0.0
C2901 C 0.38253 0.11613 0.96591 0.0
C2902 C 0.40096 0.1444 0.9505 0.0
C2903 C 0.41384 0.1412 0.95415 0.0
C2904 C 0.39288 0.12599 0.96321 0.0
C2905 C 0.41571 0.13098 0.9632 0.0
C2906 C 0.38466 0.10578 0.97477 0.0
C2907 C 0.36262 0.10612 0.95887 0.0
N2908 N 0.40538 0.12363 0.96728 0.0
N2909 N 0.37146 0.11608 0.95845 0.0
H2910 H 0.15955 0.63229 0.22232 0.0
H2911 H 0.09693 0.6597 0.18425 0.0
H2912 H 0.1403 0.61204 0.19049 0.0
H2913 H 0.12006 0.68228 0.2116 0.0
H2914 H 0.10922 0.64005 0.19052 0.0
H2915 H 0.14185 0.64845 0.22237 0.0
C2916 C 0.15152 0.63113 0.21546 0.0
C2917 C 0.15155 0.62093 0.20621 0.0
C2918 C 0.11143 0.64927 0.19531 0.0
C2919 C 0.13127 0.63942 0.2062 0.0
C2920 C 0.10436 0.66047 0.1918 0.0
C2921 C 0.10765 0.67269 0.19723 0.0
C2922 C 0.12183 0.65032 0.20432 0.0
C2923 C 0.11735 0.6731 0.20699 0.0
C2924 C 0.14141 0.64037 0.21549 0.0
C2925 C 0.1408 0.61986 0.19765 0.0
N2926 N 0.12422 0.66212 0.21009 0.0
N2927 N 0.13119 0.62908 0.19775 0.0
H2928 H 0.0354 0.56837 0.12768 0.0
H2929 H 0.05627 0.64057 0.1078 0.0
H2930 H 0.06348 0.59142 0.14942 0.0
H2931 H 0.02637 0.61828 0.08772 0.0
H2932 H 0.05637 0.62423 0.12529 0.0
H2933 H 0.02911 0.58794 0.11547 0.0
C2934 C 0.04007 0.57762 0.13007 0.0
C2935 C 0.05015 0.57822 0.13943 0.0
C2936 C 0.04965 0.623 0.11716 0.0
C2937 C 0.04315 0.60064 0.12529 0.0
C2938 C 0.04961 0.63232 0.10714 0.0
C2939 C 0.04147 0.63067 0.09614 0.0
C2940 C 0.04159 0.61187 0.11614 0.0
C2941 C 0.03292 0.61988 0.09592 0.0
C2942 C 0.03648 0.5888 0.12306 0.0
C2943 C 0.05573 0.59049 0.14222 0.0
N2944 N 0.03335 0.61079 0.10567 0.0
N2945 N 0.05234 0.60118 0.13499 0.0
H2946 H 0.53383 0.43029 0.37008 0.0
H2947 H 0.55727 0.35819 0.3875 0.0
H2948 H 0.56234 0.40888 0.34728 0.0
H2949 H 0.52697 0.37893 0.4086 0.0
H2950 H 0.55671 0.37511 0.37056 0.0
H2951 H 0.52843 0.41017 0.38184 0.0
C2952 C 0.53878 0.42129 0.36737 0.0
C2953 C 0.54871 0.42131 0.35783 0.0
C2954 C 0.55005 0.37587 0.3788 0.0
C2955 C 0.54275 0.39826 0.37145 0.0
C2956 C 0.55038 0.36622 0.3885 0.0
C2957 C 0.54231 0.36726 0.39962 0.0
C2958 C 0.54168 0.38671 0.38026 0.0
C2959 C 0.53348 0.37779 0.40029 0.0
C2960 C 0.53571 0.40979 0.37412 0.0
C2961 C 0.55469 0.40933 0.35463 0.0
N2962 N 0.53353 0.3872 0.39085 0.0
N2963 N 0.5518 0.39833 0.3616 0.0
H2964 H 0.86966 0.7727 0.65904 0.0
H2965 H 0.84361 0.80926 0.59489 0.0
H2966 H 0.89165 0.802 0.63776 0.0
H2967 H 0.8199 0.78407 0.6193 0.0
H2968 H 0.863 0.80264 0.6074 0.0
H2969 H 0.85316 0.77287 0.64164 0.0
C2970 C 0.87113 0.77903 0.65063 0.0
C2971 C 0.88194 0.78753 0.64998 0.0
C2972 C 0.85358 0.79839 0.60987 0.0
C2973 C 0.86306 0.7878 0.63006 0.0
C2974 C 0.84252 0.80211 0.60267 0.0
C2975 C 0.83008 0.7974 0.60621 0.0
C2976 C 0.85217 0.7899 0.62064 0.0
C2977 C 0.82926 0.78813 0.61637 0.0
C2978 C 0.86169 0.77913 0.6407 0.0
C2979 C 0.88336 0.79543 0.63878 0.0
N2980 N 0.84012 0.78482 0.62334 0.0
N2981 N 0.87396 0.79549 0.62935 0.0
H2982 H 0.43527 0.13831 0.88855 0.0
H2983 H 0.46247 0.06803 0.86968 0.0
H2984 H 0.46823 0.11982 0.90766 0.0
H2985 H 0.43135 0.08745 0.84857 0.0
H2986 H 0.46733 0.08854 0.88097 0.0
H2987 H 0.4361 0.12156 0.87146 0.0
C2988 C 0.44279 0.13083 0.88908 0.0
C2989 C 0.45154 0.13033 0.89971 0.0
C2990 C 0.45959 0.08841 0.8737 0.0
C2991 C 0.45249 0.11107 0.88018 0.0
C2992 C 0.45682 0.07669 0.86723 0.0
C2993 C 0.44633 0.07597 0.85835 0.0
C2994 C 0.45168 0.09946 0.87143 0.0
C2995 C 0.43945 0.08753 0.85543 0.0
C2996 C 0.44327 0.12127 0.87929 0.0
C2997 C 0.46117 0.1205 0.89976 0.0
N2998 N 0.44208 0.09875 0.86216 0.0
N2999 N 0.46126 0.11115 0.89026 0.0
H3000 H 0.69077 0.21385 0.12619 0.0
H3001 H 0.61389 0.20757 0.13602 0.0
H3002 H 0.66455 0.19778 0.09708 0.0
H3003 H 0.63958 0.22631 0.16398 0.0
H3004 H 0.63177 0.20719 0.12016 0.0
H3005 H 0.67186 0.22175 0.13853 0.0
C3006 C 0.68104 0.21216 0.12227 0.0
C3007 C 0.67925 0.20493 0.11069 0.0
C3008 C 0.63347 0.21157 0.12969 0.0
C3009 C 0.65752 0.21384 0.12487 0.0
C3010 C 0.62325 0.21179 0.13877 0.0
C3011 C 0.6253 0.21678 0.15144 0.0
C3012 C 0.64591 0.21623 0.13333 0.0
C3013 C 0.63758 0.22226 0.15437 0.0
C3014 C 0.67023 0.21668 0.12934 0.0
C3015 C 0.66641 0.20318 0.10603 0.0
N3016 N 0.64749 0.22164 0.14546 0.0
N3017 N 0.65604 0.20741 0.11324 0.0
H3018 H 0.93618 0.40863 0.15298 0.0
H3019 H 0.97632 0.37965 0.09243 0.0
H3020 H 0.96457 0.43051 0.13044 0.0
H3021 H 0.94345 0.36018 0.11072 0.0
H3022 H 0.97596 0.39608 0.10988 0.0
H3023 H 0.94276 0.38867 0.14137 0.0
C3024 C 0.94402 0.40919 0.14583 0.0
C3025 C 0.94966 0.4213 0.14249 0.0
C3026 C 0.96894 0.3881 0.11017 0.0
C3027 C 0.95711 0.39857 0.12909 0.0
C3028 C 0.96916 0.3787 0.10021 0.0
C3029 C 0.95973 0.36866 0.09996 0.0
C3030 C 0.95924 0.38746 0.11994 0.0
C3031 C 0.95076 0.36787 0.11039 0.0
C3032 C 0.94771 0.39781 0.13914 0.0
C3033 C 0.95979 0.42142 0.13316 0.0
N3034 N 0.95063 0.37725 0.11986 0.0
N3035 N 0.96306 0.41028 0.12665 0.0
H3036 H 0.84096 0.68811 0.90378 0.0
H3037 H 0.86789 0.72365 0.83943 0.0
H3038 H 0.81777 0.71347 0.87905 0.0
H3039 H 0.88919 0.69405 0.86098 0.0
H3040 H 0.85134 0.72396 0.85678 0.0
H3041 H 0.86051 0.69431 0.8913 0.0
C3042 C 0.84002 0.69521 0.89593 0.0
C3043 C 0.82768 0.70009 0.89229 0.0
C3044 C 0.85973 0.71752 0.85779 0.0
C3045 C 0.84994 0.7071 0.87789 0.0
C3046 C 0.8692 0.71736 0.84789 0.0
C3047 C 0.87982 0.70864 0.84862 0.0
C3048 C 0.8609 0.70891 0.8685 0.0
C3049 C 0.88104 0.70078 0.85988 0.0
C3050 C 0.85117 0.69869 0.88876 0.0
C3051 C 0.82706 0.70928 0.88205 0.0
N3052 N 0.87162 0.70099 0.86929 0.0
N3053 N 0.83799 0.71235 0.8751 0.0
H3054 H 0.16271 0.80296 0.40455 0.0
H3055 H 0.13866 0.77351 0.33608 0.0
H3056 H 0.18865 0.78689 0.37519 0.0
H3057 H 0.11402 0.79553 0.36256 0.0
H3058 H 0.15603 0.77361 0.35262 0.0
H3059 H 0.14393 0.79549 0.39165 0.0
C3060 C 0.16447 0.79765 0.39552 0.0
C3061 C 0.17728 0.79576 0.39083 0.0
C3062 C 0.14675 0.77826 0.35487 0.0
C3063 C 0.15583 0.78728 0.37597 0.0
C3064 C 0.13681 0.77816 0.34545 0.0
C3065 C 0.12494 0.78472 0.34784 0.0
C3066 C 0.1448 0.78493 0.36678 0.0
C3067 C 0.12308 0.79053 0.36019 0.0
C3068 C 0.15374 0.79343 0.38813 0.0
C3069 C 0.17895 0.78874 0.37909 0.0
N3070 N 0.13296 0.79063 0.36913 0.0
N3071 N 0.16835 0.78491 0.37198 0.0
H3072 H 0.16232 0.54842 0.18192 0.0
H3073 H 0.09462 0.56385 0.19813 0.0
H3074 H 0.15467 0.56736 0.21889 0.0
H3075 H 0.10254 0.52642 0.18021 0.0
H3076 H 0.11592 0.56292 0.20904 0.0
H3077 H 0.14128 0.53708 0.1836 0.0
C3078 C 0.15645 0.54971 0.19069 0.0
C3079 C 0.16011 0.55892 0.2002 0.0
C3080 C 0.11281 0.55462 0.20319 0.0
C3081 C 0.1358 0.54655 0.20188 0.0
C3082 C 0.10062 0.55515 0.197 0.0
C3083 C 0.09692 0.54524 0.18823 0.0
C3084 C 0.12154 0.54442 0.20007 0.0
C3085 C 0.10508 0.53425 0.18693 0.0
C3086 C 0.14441 0.54327 0.19164 0.0
C3087 C 0.15214 0.56035 0.21133 0.0
N3088 N 0.11727 0.53435 0.19238 0.0
N3089 N 0.14009 0.55463 0.21163 0.0
H3090 H 0.72457 0.3489 0.43371 0.0
H3091 H 0.68622 0.40307 0.47387 0.0
H3092 H 0.68827 0.34305 0.45453 0.0
H3093 H 0.7049 0.40895 0.43642 0.0
H3094 H 0.69682 0.38157 0.47551 0.0
H3095 H 0.72666 0.37059 0.44392 0.0
C3096 C 0.71744 0.35186 0.44101 0.0
C3097 C 0.70613 0.34432 0.44319 0.0
C3098 C 0.69909 0.38786 0.46726 0.0
C3099 C 0.70848 0.36895 0.45481 0.0
C3100 C 0.69314 0.40017 0.46634 0.0
C3101 C 0.69452 0.40764 0.45486 0.0
C3102 C 0.70661 0.38319 0.45672 0.0
C3103 C 0.70347 0.40337 0.44534 0.0
C3104 C 0.71859 0.36427 0.44673 0.0
C3105 C 0.69707 0.34867 0.45254 0.0
N3106 N 0.70899 0.39128 0.44635 0.0
N3107 N 0.6983 0.36083 0.45785 0.0
H3108 H 0.90081 0.97538 0.68634 0.0
H3109 H 0.84943 0.9314 0.7247 0.0
H3110 H 0.90865 0.93697 0.70214 0.0
H3111 H 0.84151 0.95239 0.68889 0.0
H3112 H 0.87081 0.94234 0.72609 0.0
H3113 H 0.87944 0.97529 0.69739 0.0
C3114 C 0.89836 0.96725 0.69273 0.0
C3115 C 0.90637 0.95607 0.69323 0.0
C3116 C 0.8641 0.94502 0.7183 0.0
C3117 C 0.88214 0.95598 0.70586 0.0
C3118 C 0.85186 0.93888 0.71755 0.0
C3119 C 0.84382 0.94093 0.70658 0.0
C3120 C 0.86808 0.95341 0.70815 0.0
C3121 C 0.84751 0.95051 0.69745 0.0
C3122 C 0.88614 0.96718 0.69894 0.0
C3123 C 0.90266 0.94571 0.70145 0.0
N3124 N 0.85951 0.95626 0.69831 0.0
N3125 N 0.89068 0.9458 0.70729 0.0
H3126 H 0.30872 0.15192 0.94809 0.0
H3127 H 0.2963 0.08259 0.93473 0.0
H3128 H 0.27278 0.14229 0.92812 0.0
H3129 H 0.31045 0.0927 0.97324 0.0
H3130 H 0.28506 0.10374 0.93355 0.0
H3131 H 0.30776 0.13085 0.95955 0.0
C3132 C 0.30031 0.14559 0.94659 0.0
C3133 C 0.29079 0.14879 0.93724 0.0
C3134 C 0.29015 0.10113 0.9425 0.0
C3135 C 0.28998 0.12446 0.94969 0.0
C3136 C 0.29653 0.08904 0.94317 0.0
C3137 C 0.30434 0.08598 0.95405 0.0
C3138 C 0.29211 0.11038 0.95252 0.0
C3139 C 0.30448 0.09472 0.96468 0.0
C3140 C 0.29977 0.13355 0.95308 0.0
C3141 C 0.28023 0.14016 0.93538 0.0
N3142 N 0.29889 0.10677 0.96346 0.0
N3143 N 0.28034 0.12815 0.94119 0.0
H3144 H 0.1601 0.45614 0.81541 0.0
H3145 H 0.09301 0.43779 0.79985 0.0
H3146 H 0.15271 0.4369 0.77854 0.0
H3147 H 0.09956 0.47519 0.81836 0.0
H3148 H 0.11403 0.4399 0.78859 0.0
H3149 H 0.13867 0.46671 0.81397 0.0
C3150 C 0.1542 0.45464 0.8067 0.0
C3151 C 0.15805 0.44553 0.79717 0.0
C3152 C 0.11066 0.44794 0.79466 0.0
C3153 C 0.13329 0.457 0.79577 0.0
C3154 C 0.09863 0.44673 0.80106 0.0
C3155 C 0.09466 0.45628 0.81009 0.0
C3156 C 0.11899 0.45846 0.79783 0.0
C3157 C 0.10233 0.46762 0.81145 0.0
C3158 C 0.14192 0.46063 0.80588 0.0
C3159 C 0.15003 0.44384 0.78612 0.0
N3160 N 0.1144 0.46818 0.80579 0.0
N3161 N 0.13777 0.4491 0.78596 0.0
H3162 H 0.81401 0.33894 0.04727 0.0
H3163 H 0.80016 0.40781 0.06168 0.0
H3164 H 0.77608 0.34761 0.06372 0.0
H3165 H 0.81665 0.39933 0.02371 0.0
H3166 H 0.78939 0.38635 0.06154 0.0
H3167 H 0.81409 0.36049 0.03667 0.0
C3168 C 0.80545 0.34517 0.04816 0.0
C3169 C 0.79503 0.34155 0.05634 0.0
C3170 C 0.79492 0.38939 0.053 0.0
C3171 C 0.79535 0.36638 0.04487 0.0
C3172 C 0.80103 0.40164 0.05307 0.0
C3173 C 0.80927 0.40529 0.0427 0.0
C3174 C 0.79759 0.38056 0.04276 0.0
C3175 C 0.81028 0.39688 0.03186 0.0
C3176 C 0.80551 0.35748 0.04216 0.0
C3177 C 0.78426 0.35005 0.0574 0.0
N3178 N 0.80492 0.38466 0.03237 0.0
N3179 N 0.7849 0.3623 0.05214 0.0
H3180 H 0.90674 0.06164 0.29536 0.0
H3181 H 0.83867 0.04849 0.31195 0.0
H3182 H 0.89782 0.02468 0.31378 0.0
H3183 H 0.84663 0.06623 0.27445 0.0
H3184 H 0.85945 0.03666 0.31055 0.0
H3185 H 0.88537 0.06119 0.28454 0.0
C3186 C 0.9005 0.05313 0.29662 0.0
C3187 C 0.90395 0.04323 0.30549 0.0
C3188 C 0.85643 0.04269 0.30234 0.0
C3189 C 0.87927 0.04296 0.29377 0.0
C3190 C 0.84454 0.0494 0.30314 0.0
C3191 C 0.84103 0.05837 0.29334 0.0
C3192 C 0.86508 0.04546 0.29197 0.0
C3193 C 0.84903 0.05936 0.28219 0.0
C3194 C 0.88827 0.05287 0.29049 0.0
C3195 C 0.89548 0.03249 0.30696 0.0
N3196 N 0.86096 0.05339 0.28202 0.0
N3197 N 0.88328 0.03287 0.30157 0.0
H3198 H 0.18782 0.15713 0.55403 0.0
H3199 H 0.20319 0.08806 0.56812 0.0
H3200 H 0.22598 0.14847 0.56994 0.0
H3201 H 0.18361 0.09686 0.53172 0.0
H3202 H 0.21392 0.10951 0.56726 0.0
H3203 H 0.18756 0.13559 0.54346 0.0
C3204 C 0.19638 0.15088 0.55482 0.0
C3205 C 0.20692 0.15451 0.56285 0.0
C3206 C 0.20769 0.10655 0.55918 0.0
C3207 C 0.20643 0.12968 0.55138 0.0
C3208 C 0.2016 0.0943 0.55966 0.0
C3209 C 0.19244 0.09077 0.55003 0.0
C3210 C 0.20416 0.11548 0.5493 0.0
C3211 C 0.19061 0.09924 0.53934 0.0
C3212 C 0.19623 0.13858 0.54882 0.0
C3213 C 0.2177 0.14601 0.56375 0.0
N3214 N 0.19603 0.11144 0.53949 0.0
N3215 N 0.217 0.13377 0.55848 0.0
H3216 H 0.2028 0.90791 0.43696 0.0
H3217 H 0.18506 0.8407 0.45303 0.0
H3218 H 0.18283 0.90142 0.47361 0.0
H3219 H 0.2238 0.84738 0.43754 0.0
H3220 H 0.18579 0.86224 0.46353 0.0
H3221 H 0.21319 0.8864 0.43907 0.0
C3222 C 0.2011 0.90218 0.44576 0.0
C3223 C 0.19195 0.90636 0.4551 0.0
C3224 C 0.19437 0.85879 0.45831 0.0
C3225 C 0.20319 0.88153 0.45724 0.0
C3226 C 0.19395 0.84648 0.45235 0.0
C3227 C 0.20432 0.84236 0.44433 0.0
C3228 C 0.20499 0.8672 0.45573 0.0
C3229 C 0.21559 0.85024 0.44364 0.0
C3230 C 0.20698 0.88988 0.44695 0.0
C3231 C 0.18989 0.89852 0.46623 0.0
N3232 N 0.21543 0.86254 0.44882 0.0
N3233 N 0.19506 0.88623 0.46675 0.0
H3234 H 0.3402 0.45143 0.68546 0.0
H3235 H 0.4079 0.43453 0.70096 0.0
H3236 H 0.34735 0.43144 0.72199 0.0
H3237 H 0.40053 0.47313 0.6854 0.0
H3238 H 0.3864 0.43493 0.71156 0.0
H3239 H 0.36162 0.46203 0.6873 0.0
C3240 C 0.34605 0.44975 0.69417 0.0
C3241 C 0.34209 0.44053 0.70355 0.0
C3242 C 0.38968 0.44356 0.70629 0.0
C3243 C 0.36682 0.45204 0.70539 0.0
C3244 C 0.40197 0.44333 0.70027 0.0
C3245 C 0.4059 0.45376 0.69223 0.0
C3246 C 0.3811 0.45404 0.70373 0.0
C3247 C 0.39783 0.46489 0.69153 0.0
C3248 C 0.35831 0.45576 0.69521 0.0
C3249 C 0.35009 0.43853 0.71457 0.0
N3250 N 0.38557 0.46454 0.69677 0.0
N3251 N 0.36232 0.44385 0.71495 0.0
H3252 H 0.81262 0.59647 0.9754 0.0
H3253 H 0.77459 0.64922 0.93261 0.0
H3254 H 0.79541 0.58896 0.93754 0.0
H3255 H 0.81138 0.65595 0.95227 0.0
H3256 H 0.77304 0.62774 0.94338 0.0
H3257 H 0.80245 0.61828 0.97542 0.0
C3258 C 0.80609 0.59911 0.96744 0.0
C3259 C 0.80494 0.59102 0.95637 0.0
C3260 C 0.78111 0.63421 0.94581 0.0
C3261 C 0.79333 0.61577 0.95639 0.0
C3262 C 0.78196 0.6465 0.93977 0.0
C3263 C 0.7932 0.65425 0.94151 0.0
C3264 C 0.79144 0.62989 0.95381 0.0
C3265 C 0.80261 0.65018 0.95066 0.0
C3266 C 0.8004 0.61159 0.96743 0.0
C3267 C 0.79658 0.59499 0.94621 0.0
N3268 N 0.80163 0.63816 0.95633 0.0
N3269 N 0.79125 0.60721 0.94635 0.0
H3270 H 0.59782 0.02384 0.18177 0.0
H3271 H 0.65009 0.06688 0.22012 0.0
H3272 H 0.59066 0.06237 0.1976 0.0
H3273 H 0.65776 0.04575 0.18433 0.0
H3274 H 0.62846 0.05643 0.22135 0.0
H3275 H 0.61931 0.02366 0.1926 0.0
C3276 C 0.60046 0.03194 0.18812 0.0
C3277 C 0.59258 0.04321 0.18872 0.0
C3278 C 0.63515 0.05362 0.2136 0.0
C3279 C 0.61695 0.04301 0.20109 0.0
C3280 C 0.64753 0.05948 0.21293 0.0
C3281 C 0.65559 0.05726 0.20201 0.0
C3282 C 0.63104 0.04533 0.20341 0.0
C3283 C 0.65173 0.04777 0.19284 0.0
C3284 C 0.61275 0.03186 0.1942 0.0
C3285 C 0.59653 0.05355 0.19686 0.0
N3286 N 0.63961 0.0423 0.19362 0.0
N3287 N 0.60856 0.0533 0.20258 0.0
H3288 H 0.55022 0.18805 0.15511 0.0
H3289 H 0.56361 0.19843 0.08558 0.0
H3290 H 0.56839 0.22451 0.14395 0.0
H3291 H 0.52623 0.18173 0.09599 0.0
H3292 H 0.56361 0.21077 0.10612 0.0
H3293 H 0.53868 0.18758 0.1341 0.0
C3294 C 0.55128 0.19627 0.14845 0.0
C3295 C 0.56021 0.20633 0.15119 0.0
C3296 C 0.55513 0.20484 0.1037 0.0
C3297 C 0.54768 0.20552 0.12692 0.0
C3298 C 0.55513 0.19783 0.09195 0.0
C3299 C 0.54494 0.18904 0.08918 0.0
C3300 C 0.54517 0.20254 0.11294 0.0
C3301 C 0.53425 0.18846 0.0978 0.0
C3302 C 0.54474 0.19599 0.13644 0.0
C3303 C 0.56149 0.21663 0.14217 0.0
N3304 N 0.53485 0.19473 0.10957 0.0
N3305 N 0.55567 0.21574 0.13019 0.0
H3306 H 0.0651 0.7956 0.41053 0.0
H3307 H 0.04987 0.81078 0.34272 0.0
H3308 H 0.02786 0.81369 0.40213 0.0
H3309 H 0.06873 0.77389 0.35091 0.0
H3310 H 0.03842 0.80937 0.3637 0.0
H3311 H 0.06402 0.7841 0.38956 0.0
C3312 C 0.0564 0.79665 0.40452 0.0
C3313 C 0.04664 0.8057 0.40794 0.0
C3314 C 0.04461 0.80127 0.36071 0.0
C3315 C 0.04564 0.79316 0.38369 0.0
C3316 C 0.0511 0.80208 0.34869 0.0
C3317 C 0.06027 0.79248 0.34518 0.0
C3318 C 0.04783 0.79113 0.36947 0.0
C3319 C 0.0617 0.78148 0.35331 0.0
C3320 C 0.05578 0.79013 0.39251 0.0
C3321 C 0.03561 0.80681 0.39979 0.0
N3322 N 0.05593 0.78133 0.36535 0.0
N3323 N 0.03564 0.80103 0.38777 0.0
H3324 H 0.44902 0.3115 0.66023 0.0
H3325 H 0.43753 0.29921 0.59087 0.0
H3326 H 0.43171 0.27447 0.64956 0.0
H3327 H 0.47428 0.31695 0.60175 0.0
H3328 H 0.4374 0.28719 0.6116 0.0
H3329 H 0.46123 0.31153 0.6396 0.0
C3330 C 0.44828 0.30308 0.65378 0.0
C3331 C 0.43937 0.29299 0.6565 0.0
C3332 C 0.4458 0.29326 0.60925 0.0
C3333 C 0.45268 0.29328 0.63265 0.0
C3334 C 0.44588 0.30008 0.59739 0.0
C3335 C 0.45591 0.30906 0.59469 0.0
C3336 C 0.45549 0.29597 0.61866 0.0
C3337 C 0.4664 0.31004 0.60351 0.0
C3338 C 0.45521 0.3031 0.64198 0.0
C3339 C 0.43856 0.2824 0.64777 0.0
N3340 N 0.4657 0.30396 0.61537 0.0
N3341 N 0.44475 0.28304 0.63597 0.0
H3342 H 0.93321 0.72098 0.84785 0.0
H3343 H 0.97002 0.68141 0.90364 0.0
H3344 H 0.95222 0.68357 0.84287 0.0
H3345 H 0.93343 0.70203 0.90834 0.0
H3346 H 0.97254 0.69135 0.88189 0.0
H3347 H 0.94282 0.72267 0.86982 0.0
C3348 C 0.94 0.71348 0.85107 0.0
C3349 C 0.94181 0.70202 0.84367 0.0
C3350 C 0.96429 0.69417 0.88797 0.0
C3351 C 0.95277 0.70391 0.86864 0.0
C3352 C 0.96289 0.6886 0.90041 0.0
C3353 C 0.95139 0.69077 0.90766 0.0
C3354 C 0.95423 0.70211 0.88294 0.0
C3355 C 0.94236 0.70001 0.90296 0.0
C3356 C 0.94539 0.71441 0.86365 0.0
C3357 C 0.95052 0.69249 0.84837 0.0
N3358 N 0.94385 0.70517 0.89076 0.0
N3359 N 0.9555 0.69353 0.86069 0.0
H3360 H 0.06754 0.72562 0.14556 0.0
H3361 H 0.02759 0.68401 0.09352 0.0
H3362 H 0.04889 0.68842 0.15297 0.0
H3363 H 0.06409 0.70396 0.08605 0.0
H3364 H 0.02628 0.69495 0.1149 0.0
H3365 H 0.05672 0.72648 0.12408 0.0
C3366 C 0.06058 0.71801 0.14299 0.0
C3367 C 0.05917 0.70685 0.15091 0.0
C3368 C 0.03422 0.69741 0.10828 0.0
C3369 C 0.04686 0.7078 0.12654 0.0
C3370 C 0.03494 0.69126 0.09605 0.0
C3371 C 0.04607 0.69298 0.08816 0.0
C3372 C 0.0446 0.70545 0.11243 0.0
C3373 C 0.05542 0.70231 0.09196 0.0
C3374 C 0.05451 0.71846 0.1307 0.0
C3375 C 0.05026 0.69713 0.14705 0.0
N3376 N 0.05461 0.70804 0.10397 0.0
N3377 N 0.04459 0.69771 0.13501 0.0
H3378 H 0.45615 0.8069 0.09127 0.0
H3379 H 0.44153 0.80206 0.16758 0.0
H3380 H 0.46316 0.83718 0.11992 0.0
H3381 H 0.42594 0.77525 0.13893 0.0
H3382 H 0.45689 0.81041 0.15113 0.0
H3383 H 0.45204 0.79127 0.10926 0.0
C3384 C 0.45719 0.81012 0.10134 0.0
C3385 C 0.45974 0.82332 0.10422 0.0
C3386 C 0.45041 0.8024 0.14852 0.0
C3387 C 0.45517 0.80569 0.12465 0.0
C3388 C 0.44177 0.79755 0.15796 0.0
C3389 C 0.43259 0.78797 0.15453 0.0
C3390 C 0.44954 0.79785 0.13552 0.0
C3391 C 0.43301 0.78261 0.14189 0.0
C3392 C 0.45482 0.80125 0.11158 0.0
C3393 C 0.46098 0.8271 0.11736 0.0
N3394 N 0.44116 0.78782 0.13271 0.0
N3395 N 0.45856 0.81838 0.12708 0.0
H3396 H 0.43241 0.22021 0.84801 0.0
H3397 H 0.46757 0.18231 0.90564 0.0
H3398 H 0.45387 0.18398 0.84437 0.0
H3399 H 0.43065 0.20272 0.9083 0.0
H3400 H 0.47134 0.19246 0.8842 0.0
H3401 H 0.44113 0.22286 0.87024 0.0
C3402 C 0.43954 0.2132 0.85159 0.0
C3403 C 0.44224 0.20171 0.8445 0.0
C3404 C 0.46272 0.19519 0.88978 0.0
C3405 C 0.45216 0.20468 0.86979 0.0
C3406 C 0.46059 0.18949 0.90206 0.0
C3407 C 0.44864 0.19149 0.90858 0.0
C3408 C 0.45291 0.20305 0.88417 0.0
C3409 C 0.4399 0.20078 0.90345 0.0
C3410 C 0.44442 0.21467 0.86432 0.0
C3411 C 0.45142 0.19287 0.84964 0.0
N3412 N 0.44207 0.20602 0.8914 0.0
N3413 N 0.45585 0.19439 0.86211 0.0
H3414 H 0.56469 0.27467 0.34795 0.0
H3415 H 0.52688 0.3141 0.40276 0.0
H3416 H 0.54474 0.31155 0.34268 0.0
H3417 H 0.56324 0.2932 0.40785 0.0
H3418 H 0.52415 0.30364 0.3813 0.0
H3419 H 0.55436 0.27244 0.36954 0.0
C3420 C 0.55755 0.28192 0.351 0.0
C3421 C 0.55573 0.29344 0.34369 0.0
C3422 C 0.53238 0.30086 0.38742 0.0
C3423 C 0.54397 0.29095 0.36823 0.0
C3424 C 0.5339 0.30673 0.39971 0.0
C3425 C 0.54544 0.30466 0.40692 0.0
C3426 C 0.54237 0.29275 0.38252 0.0
C3427 C 0.55431 0.29516 0.40246 0.0
C3428 C 0.55175 0.28068 0.36336 0.0
C3429 C 0.54651 0.30261 0.34814 0.0
N3430 N 0.55274 0.28974 0.39039 0.0
N3431 N 0.54117 0.30131 0.36028 0.0
H3432 H 0.1525 0.05802 0.70754 0.0
H3433 H 0.07903 0.06952 0.68276 0.0
H3434 H 0.13588 0.0943 0.69335 0.0
H3435 H 0.09661 0.03109 0.68221 0.0
H3436 H 0.09817 0.07793 0.69435 0.0
H3437 H 0.13093 0.04736 0.70432 0.0
C3438 C 0.14436 0.06371 0.70379 0.0
C3439 C 0.14603 0.07698 0.70047 0.0
C3440 C 0.09776 0.06757 0.69198 0.0
C3441 C 0.12149 0.06512 0.69729 0.0
C3442 C 0.08676 0.06276 0.68552 0.0
C3443 C 0.08635 0.04966 0.68149 0.0
C3444 C 0.10857 0.0593 0.69412 0.0
C3445 C 0.09662 0.04128 0.68522 0.0
C3446 C 0.13209 0.05767 0.70203 0.0
C3447 C 0.13516 0.08398 0.6958 0.0
N3448 N 0.10754 0.04631 0.69106 0.0
N3449 N 0.12342 0.07799 0.69438 0.0
H3450 H 0.72387 0.84982 0.93382 0.0
H3451 H 0.68517 0.90274 0.97573 0.0
H3452 H 0.68702 0.84302 0.95336 0.0
H3453 H 0.70282 0.90995 0.93802 0.0
H3454 H 0.69545 0.88099 0.97612 0.0
H3455 H 0.72525 0.87138 0.94444 0.0
C3456 C 0.71645 0.85254 0.94093 0.0
C3457 C 0.70524 0.84475 0.94266 0.0
C3458 C 0.69757 0.88761 0.96808 0.0
C3459 C 0.7068 0.86921 0.95478 0.0
C3460 C 0.69181 0.90005 0.96788 0.0
C3461 C 0.69306 0.90803 0.95674 0.0
C3462 C 0.7048 0.88334 0.95718 0.0
C3463 C 0.70156 0.904 0.94673 0.0
C3464 C 0.7172 0.86487 0.94688 0.0
C3465 C 0.69578 0.84882 0.95174 0.0
N3466 N 0.70696 0.89182 0.94708 0.0
N3467 N 0.69666 0.86089 0.95732 0.0
H3468 H 0.83615 0.44956 0.18346 0.0
H3469 H 0.90458 0.4361 0.19928 0.0
H3470 H 0.84462 0.43133 0.22062 0.0
H3471 H 0.89551 0.47315 0.18112 0.0
H3472 H 0.88324 0.43642 0.21017 0.0
H3473 H 0.85701 0.46128 0.18468 0.0
C3474 C 0.84216 0.4485 0.19216 0.0
C3475 C 0.83877 0.4394 0.20189 0.0
C3476 C 0.88609 0.44478 0.20426 0.0
C3477 C 0.86289 0.45222 0.20305 0.0
C3478 C 0.8983 0.4446 0.19809 0.0
C3479 C 0.90172 0.45459 0.1893 0.0
C3480 C 0.87706 0.4547 0.20109 0.0
C3481 C 0.8932 0.46529 0.18789 0.0
C3482 C 0.85409 0.45515 0.19286 0.0
C3483 C 0.84692 0.43826 0.21291 0.0
N3484 N 0.88102 0.46484 0.19332 0.0
N3485 N 0.85888 0.4442 0.21297 0.0
H3486 H 0.27648 0.65603 0.43481 0.0
H3487 H 0.32255 0.60728 0.47459 0.0
H3488 H 0.31491 0.66603 0.44932 0.0
H3489 H 0.30185 0.59711 0.43921 0.0
H3490 H 0.31156 0.62874 0.47457 0.0
H3491 H 0.27801 0.63483 0.44611 0.0
C3492 C 0.28493 0.65406 0.44095 0.0
C3493 C 0.29566 0.66268 0.44106 0.0
C3494 C 0.30898 0.62155 0.46718 0.0
C3495 C 0.29738 0.63864 0.45397 0.0
C3496 C 0.31514 0.6093 0.46724 0.0
C3497 C 0.31304 0.6005 0.45688 0.0
C3498 C 0.30054 0.62481 0.45682 0.0
C3499 C 0.30365 0.60366 0.44737 0.0
C3500 C 0.28582 0.64194 0.44728 0.0
C3501 C 0.30648 0.65957 0.44894 0.0
N3502 N 0.29784 0.61565 0.44747 0.0
N3503 N 0.30716 0.64769 0.45495 0.0
H3504 H 0.09445 0.9349 0.2942 0.0
H3505 H 0.15993 0.95444 0.31487 0.0
H3506 H 0.09929 0.97238 0.31308 0.0
H3507 H 0.15561 0.93402 0.27813 0.0
H3508 H 0.13861 0.96474 0.31142 0.0
H3509 H 0.11617 0.93723 0.28444 0.0
C3510 C 0.09986 0.94391 0.29578 0.0
C3511 C 0.0952 0.95338 0.30457 0.0
C3512 C 0.14252 0.95845 0.30381 0.0
C3513 C 0.1203 0.95582 0.29404 0.0
C3514 C 0.15474 0.9526 0.30578 0.0
C3515 C 0.1594 0.94323 0.29688 0.0
C3516 C 0.13474 0.95443 0.29316 0.0
C3517 C 0.15229 0.94114 0.28528 0.0
C3518 C 0.11231 0.94524 0.29025 0.0
C3519 C 0.1026 0.96483 0.30638 0.0
N3520 N 0.14005 0.94628 0.28399 0.0
N3521 N 0.11504 0.96552 0.3016 0.0
H3522 H 0.81535 0.84335 0.54723 0.0
H3523 H 0.7961 0.90983 0.5655 0.0
H3524 H 0.77759 0.84865 0.5654 0.0
H3525 H 0.81524 0.90434 0.52825 0.0
H3526 H 0.7862 0.8881 0.56339 0.0
H3527 H 0.81332 0.865 0.53715 0.0
C3528 C 0.80636 0.84885 0.5486 0.0
C3529 C 0.79667 0.84431 0.55721 0.0
C3530 C 0.79211 0.89184 0.55539 0.0
C3531 C 0.79456 0.8693 0.54631 0.0
C3532 C 0.79772 0.90427 0.55659 0.0
C3533 C 0.80657 0.90878 0.5471 0.0
C3534 C 0.79586 0.88371 0.54491 0.0
C3535 C 0.80847 0.90117 0.53579 0.0
C3536 C 0.8052 0.86124 0.54288 0.0
C3537 C 0.78527 0.85185 0.5588 0.0
N3538 N 0.80358 0.88876 0.53523 0.0
N3539 N 0.78474 0.86422 0.55382 0.0
H3540 H 0.84509 0.56394 0.77512 0.0
H3541 H 0.89541 0.52297 0.81779 0.0
H3542 H 0.83634 0.54524 0.81199 0.0
H3543 H 0.90369 0.55963 0.79847 0.0
H3544 H 0.87428 0.52197 0.80629 0.0
H3545 H 0.86632 0.55265 0.77472 0.0
C3546 C 0.8473 0.55687 0.78274 0.0
C3547 C 0.83909 0.55562 0.79371 0.0
C3548 C 0.88103 0.52988 0.80409 0.0
C3549 C 0.8632 0.54277 0.79328 0.0
C3550 C 0.89311 0.53041 0.81055 0.0
C3551 C 0.90116 0.54147 0.80912 0.0
C3552 C 0.8772 0.54037 0.79604 0.0
C3553 C 0.89766 0.55099 0.79986 0.0
C3554 C 0.85945 0.55053 0.78255 0.0
C3555 C 0.84249 0.54652 0.80343 0.0
N3556 N 0.88581 0.55034 0.7938 0.0
N3557 N 0.85443 0.54061 0.80312 0.0
H3558 H 0.18727 0.66034 0.04492 0.0
H3559 H 0.20284 0.5925 0.06072 0.0
H3560 H 0.22518 0.65293 0.06202 0.0
H3561 H 0.18576 0.59987 0.02278 0.0
H3562 H 0.2135 0.61398 0.05984 0.0
H3563 H 0.18808 0.63882 0.03434 0.0
C3564 C 0.19602 0.6544 0.04595 0.0
C3565 C 0.20614 0.65834 0.05437 0.0
C3566 C 0.20787 0.61069 0.05144 0.0
C3567 C 0.20685 0.63352 0.0429 0.0
C3568 C 0.20183 0.59842 0.05194 0.0
C3569 C 0.19339 0.59449 0.04184 0.0
C3570 C 0.20495 0.61926 0.04105 0.0
C3571 C 0.19224 0.60256 0.03075 0.0
C3572 C 0.19648 0.64211 0.03995 0.0
C3573 C 0.2172 0.65023 0.05555 0.0
N3574 N 0.19753 0.61481 0.03086 0.0
N3575 N 0.21706 0.63796 0.0503 0.0
H3576 H 0.18599 0.34342 0.9548 0.0
H3577 H 0.1992 0.41183 0.93951 0.0
H3578 H 0.22292 0.35225 0.93629 0.0
H3579 H 0.1832 0.40338 0.97768 0.0
H3580 H 0.21059 0.39073 0.93985 0.0
H3581 H 0.18667 0.3647 0.96584 0.0
C3582 C 0.19454 0.34961 0.95356 0.0
C3583 C 0.20438 0.34616 0.94463 0.0
C3584 C 0.20505 0.3937 0.94841 0.0
C3585 C 0.20491 0.37073 0.9566 0.0
C3586 C 0.19858 0.40576 0.94821 0.0
C3587 C 0.19024 0.40926 0.95855 0.0
C3588 C 0.20264 0.3849 0.95874 0.0
C3589 C 0.18959 0.40101 0.96954 0.0
C3590 C 0.19492 0.36178 0.95981 0.0
C3591 C 0.21516 0.35459 0.94317 0.0
N3592 N 0.1953 0.38895 0.96915 0.0
N3593 N 0.21491 0.36673 0.94869 0.0
H3594 H 0.40281 0.97448 0.18207 0.0
H3595 H 0.3563 0.92423 0.21964 0.0
H3596 H 0.41475 0.93549 0.19326 0.0
H3597 H 0.34488 0.94553 0.18499 0.0
H3598 H 0.37751 0.93574 0.21941 0.0
H3599 H 0.38169 0.97087 0.19305 0.0
C3600 C 0.40126 0.96542 0.18742 0.0
C3601 C 0.41045 0.9552 0.18671 0.0
C3602 C 0.37011 0.93828 0.21223 0.0
C3603 C 0.38651 0.95113 0.19927 0.0
C3604 C 0.35801 0.93182 0.2124 0.0
C3605 C 0.34891 0.93402 0.20233 0.0
C3606 C 0.3729 0.94714 0.20208 0.0
C3607 C 0.35167 0.94365 0.19294 0.0
C3608 C 0.38919 0.96336 0.19357 0.0
C3609 C 0.40786 0.94357 0.19357 0.0
N3610 N 0.3635 0.94981 0.19296 0.0
N3611 N 0.39604 0.94177 0.19945 0.0
H3612 H 0.7774 0.15184 0.43402 0.0
H3613 H 0.81623 0.09712 0.47316 0.0
H3614 H 0.81443 0.15734 0.4536 0.0
H3615 H 0.79669 0.09143 0.43613 0.0
H3616 H 0.80609 0.11885 0.4749 0.0
H3617 H 0.77554 0.13009 0.44416 0.0
C3618 C 0.78476 0.14878 0.44105 0.0
C3619 C 0.79617 0.15626 0.44289 0.0
C3620 C 0.80354 0.11257 0.46672 0.0
C3621 C 0.79408 0.13156 0.45445 0.0
C3622 C 0.80922 0.10013 0.46576 0.0
C3623 C 0.80743 0.09261 0.45437 0.0
C3624 C 0.79587 0.11731 0.45633 0.0
C3625 C 0.79841 0.09703 0.44499 0.0
C3626 C 0.78374 0.13634 0.44673 0.0
C3627 C 0.80554 0.15178 0.45188 0.0
N3628 N 0.79314 0.10923 0.44604 0.0
N3629 N 0.80441 0.13959 0.45717 0.0
H3630 H 0.58466 0.56291 0.69663 0.0
H3631 H 0.65313 0.54675 0.68342 0.0
H3632 H 0.59271 0.52445 0.68105 0.0
H3633 H 0.64457 0.5655 0.72029 0.0
H3634 H 0.63159 0.5362 0.68402 0.0
H3635 H 0.60591 0.56261 0.70776 0.0
C3636 C 0.59068 0.55417 0.69604 0.0
C3637 C 0.58701 0.54373 0.68789 0.0
C3638 C 0.63461 0.54218 0.69226 0.0
C3639 C 0.61152 0.54357 0.7 0.0
C3640 C 0.64692 0.54815 0.69193 0.0
C3641 C 0.65056 0.55698 0.7018 0.0
C3642 C 0.62572 0.54557 0.70223 0.0
C3643 C 0.6421 0.55868 0.71253 0.0
C3644 C 0.60282 0.55399 0.70235 0.0
C3645 C 0.59521 0.53269 0.68729 0.0
N3646 N 0.62984 0.55342 0.71223 0.0
N3647 N 0.60733 0.53309 0.69285 0.0
H3648 H 0.52207 0.68065 0.59787 0.0
H3649 H 0.56609 0.72308 0.64625 0.0
H3650 H 0.55996 0.6966 0.58807 0.0
H3651 H 0.54726 0.68672 0.65673 0.0
H3652 H 0.55493 0.72242 0.62492 0.0
H3653 H 0.5229 0.69232 0.61893 0.0
C3654 C 0.53022 0.68718 0.59985 0.0
C3655 C 0.54101 0.68765 0.59134 0.0
C3656 C 0.55277 0.71494 0.63216 0.0
C3657 C 0.54195 0.70097 0.61518 0.0
C3658 C 0.55903 0.71536 0.64435 0.0
C3659 C 0.5576 0.70489 0.65315 0.0
C3660 C 0.54487 0.70413 0.62898 0.0
C3661 C 0.5486 0.69495 0.65014 0.0
C3662 C 0.53072 0.69373 0.61188 0.0
C3663 C 0.55148 0.69599 0.59444 0.0
N3664 N 0.54269 0.69471 0.6382 0.0
N3665 N 0.55178 0.70221 0.60622 0.0
H3666 H 0.02539 0.31728 0.90746 0.0
H3667 H 0.06486 0.27885 0.85296 0.0
H3668 H 0.06238 0.29763 0.91309 0.0
H3669 H 0.04458 0.31553 0.84758 0.0
H3670 H 0.05447 0.27654 0.87452 0.0
H3671 H 0.02342 0.30687 0.88589 0.0
C3672 C 0.03273 0.31019 0.90449 0.0
C3673 C 0.0442 0.30848 0.9119 0.0
C3674 C 0.0518 0.28475 0.86832 0.0
C3675 C 0.04198 0.29662 0.88738 0.0
C3676 C 0.05764 0.28604 0.85599 0.0
C3677 C 0.05569 0.29751 0.84864 0.0
C3678 C 0.04386 0.29491 0.87313 0.0
C3679 C 0.04642 0.30662 0.85307 0.0
C3680 C 0.03163 0.30435 0.89214 0.0
C3681 C 0.05348 0.29932 0.90755 0.0
N3682 N 0.04101 0.30526 0.86516 0.0
N3683 N 0.0523 0.29392 0.89542 0.0
H3684 H 0.95395 0.18667 0.33767 0.0
H3685 H 0.93712 0.20403 0.40456 0.0
H3686 H 0.93557 0.22406 0.34466 0.0
H3687 H 0.97375 0.18413 0.39768 0.0
H3688 H 0.93937 0.21506 0.38344 0.0
H3689 H 0.96507 0.18841 0.35878 0.0
C3690 C 0.95275 0.19554 0.3434 0.0
C3691 C 0.9437 0.20513 0.33956 0.0
C3692 C 0.94723 0.20873 0.38675 0.0
C3693 C 0.95581 0.2069 0.36398 0.0
C3694 C 0.94595 0.20246 0.39885 0.0
C3695 C 0.95517 0.19306 0.40274 0.0
C3696 C 0.95749 0.20507 0.3783 0.0
C3697 C 0.96639 0.1913 0.39497 0.0
C3698 C 0.95906 0.19653 0.3555 0.0
C3699 C 0.94243 0.21641 0.34734 0.0
N3700 N 0.96699 0.19684 0.38285 0.0
N3701 N 0.94799 0.21676 0.35946 0.0
H3702 H 0.07115 0.22081 0.65487 0.0
H3703 H 0.02987 0.16638 0.61723 0.0
H3704 H 0.05982 0.18322 0.67054 0.0
H3705 H 0.05479 0.19447 0.5979 0.0
H3706 H 0.03277 0.17826 0.63789 0.0
H3707 H 0.05737 0.21662 0.63553 0.0
C3708 C 0.06528 0.21196 0.65451 0.0
C3709 C 0.06662 0.20229 0.66421 0.0
C3710 C 0.03726 0.18209 0.62905 0.0
C3711 C 0.05102 0.19744 0.64226 0.0
C3712 C 0.03553 0.17538 0.61728 0.0
C3713 C 0.04209 0.17953 0.60595 0.0
C3714 C 0.04579 0.19289 0.62951 0.0
C3715 C 0.04952 0.19108 0.60647 0.0
C3716 C 0.05754 0.20952 0.64343 0.0
C3717 C 0.05905 0.19088 0.66321 0.0
N3718 N 0.05138 0.19726 0.61816 0.0
N3719 N 0.05168 0.1887 0.65235 0.0
H3720 H 0.42776 0.72864 0.35498 0.0
H3721 H 0.47452 0.68493 0.39957 0.0
H3722 H 0.4457 0.69257 0.34225 0.0
H3723 H 0.43676 0.69933 0.41193 0.0
H3724 H 0.47219 0.69722 0.37899 0.0
H3725 H 0.43972 0.72693 0.37585 0.0
C3726 C 0.43478 0.72076 0.3563 0.0
C3727 C 0.43582 0.71072 0.34697 0.0
C3728 C 0.46472 0.69815 0.3865 0.0
C3729 C 0.44944 0.70878 0.37057 0.0
C3730 C 0.46608 0.69125 0.39826 0.0
C3731 C 0.45576 0.6911 0.40736 0.0
C3732 C 0.45313 0.70514 0.38406 0.0
C3733 C 0.44489 0.69919 0.4051 0.0
C3734 C 0.44148 0.71976 0.36821 0.0
C3735 C 0.44472 0.70051 0.34924 0.0
N3736 N 0.44377 0.70578 0.39357 0.0
N3737 N 0.45111 0.69971 0.36091 0.0
H3738 H 0.56602 0.77703 0.84683 0.0
H3739 H 0.52814 0.81715 0.90121 0.0
H3740 H 0.54648 0.81406 0.84114 0.0
H3741 H 0.56444 0.79624 0.90679 0.0
H3742 H 0.52566 0.80663 0.87976 0.0
H3743 H 0.55576 0.77521 0.86849 0.0
C3744 C 0.55897 0.7844 0.84981 0.0
C3745 C 0.55722 0.79582 0.84234 0.0
C3746 C 0.53382 0.80388 0.88598 0.0
C3747 C 0.54555 0.7938 0.86696 0.0
C3748 C 0.53521 0.80979 0.89826 0.0
C3749 C 0.54666 0.80773 0.90562 0.0
C3750 C 0.54386 0.79574 0.88122 0.0
C3751 C 0.55558 0.79821 0.90128 0.0
C3752 C 0.55322 0.7834 0.86221 0.0
C3753 C 0.54816 0.80518 0.84672 0.0
N3754 N 0.55413 0.79275 0.88922 0.0
N3755 N 0.54284 0.8041 0.85888 0.0
H3756 H 0.59866 0.47561 0.31753 0.0
H3757 H 0.6502 0.43479 0.27616 0.0
H3758 H 0.59094 0.43885 0.29817 0.0
H3759 H 0.65798 0.45365 0.31317 0.0
H3760 H 0.62886 0.44586 0.2753 0.0
H3761 H 0.62004 0.47664 0.30653 0.0
C3762 C 0.60113 0.46815 0.31037 0.0
C3763 C 0.59315 0.45706 0.30881 0.0
C3764 C 0.63554 0.44806 0.28326 0.0
C3765 C 0.61742 0.45819 0.29629 0.0
C3766 C 0.64775 0.44185 0.28373 0.0
C3767 C 0.65572 0.44322 0.29485 0.0
C3768 C 0.63149 0.45582 0.29389 0.0
C3769 C 0.65201 0.45228 0.30449 0.0
C3770 C 0.61337 0.4687 0.3042 0.0
C3771 C 0.5969 0.44752 0.29966 0.0
N3772 N 0.64003 0.45808 0.30391 0.0
N3773 N 0.60889 0.44818 0.29389 0.0
H3774 H 0.31409 0.33945 0.54891 0.0
H3775 H 0.29614 0.40697 0.56421 0.0
H3776 H 0.27542 0.34634 0.56447 0.0
H3777 H 0.31656 0.39994 0.5279 0.0
H3778 H 0.28579 0.38543 0.56231 0.0
H3779 H 0.31339 0.3609 0.53823 0.0
C3780 C 0.30522 0.34525 0.54958 0.0
C3781 C 0.29485 0.34121 0.55765 0.0
C3782 C 0.2921 0.38879 0.55445 0.0
C3783 C 0.29423 0.36597 0.54605 0.0
C3784 C 0.29797 0.40111 0.55553 0.0
C3785 C 0.30726 0.40515 0.54625 0.0
C3786 C 0.29603 0.38028 0.54435 0.0
C3787 C 0.30943 0.39715 0.53526 0.0
C3788 C 0.30481 0.35752 0.54352 0.0
C3789 C 0.28362 0.34913 0.55832 0.0
N3790 N 0.30426 0.38486 0.53485 0.0
N3791 N 0.28379 0.36139 0.55303 0.0
H3792 H 0.39522 0.02067 0.82108 0.0
H3793 H 0.34745 0.06071 0.77461 0.0
H3794 H 0.40566 0.0556 0.79973 0.0
H3795 H 0.33747 0.04616 0.81301 0.0
H3796 H 0.36817 0.04853 0.77565 0.0
H3797 H 0.37414 0.02015 0.80944 0.0
C3798 C 0.39339 0.02777 0.81337 0.0
C3799 C 0.40207 0.03824 0.81134 0.0
C3800 C 0.36113 0.04751 0.78355 0.0
C3801 C 0.37818 0.03768 0.79812 0.0
C3802 C 0.34928 0.05437 0.78294 0.0
C3803 C 0.34089 0.05455 0.79384 0.0
C3804 C 0.36437 0.04063 0.79502 0.0
C3805 C 0.34379 0.04635 0.80448 0.0
C3806 C 0.38134 0.02752 0.80684 0.0
C3807 C 0.39916 0.04739 0.80153 0.0
N3808 N 0.35543 0.03987 0.80491 0.0
N3809 N 0.38734 0.04703 0.79539 0.0
H3810 H 0.68467 0.15882 0.04954 0.0
H3811 H 0.69793 0.08987 0.06445 0.0
H3812 H 0.72282 0.14981 0.06531 0.0
H3813 H 0.68101 0.09808 0.02662 0.0
H3814 H 0.70882 0.11127 0.06397 0.0
H3815 H 0.68407 0.13714 0.03922 0.0
C3816 C 0.69316 0.15248 0.05033 0.0
C3817 C 0.7038 0.15605 0.05827 0.0
C3818 C 0.70315 0.10819 0.05553 0.0
C3819 C 0.7029 0.1311 0.04711 0.0
C3820 C 0.69697 0.09597 0.0558 0.0
C3821 C 0.6886 0.09226 0.04556 0.0
C3822 C 0.70043 0.11692 0.04523 0.0
C3823 C 0.68748 0.10059 0.03466 0.0
C3824 C 0.69281 0.1401 0.04449 0.0
C3825 C 0.71448 0.14742 0.05919 0.0
N3826 N 0.69293 0.11277 0.03498 0.0
N3827 N 0.71356 0.13511 0.0541 0.0
H3828 H 0.97198 0.31508 0.09661 0.0
H3829 H 0.93066 0.27214 0.14652 0.0
H3830 H 0.93516 0.29625 0.08791 0.0
H3831 H 0.94946 0.30889 0.15559 0.0
H3832 H 0.94174 0.27203 0.12515 0.0
H3833 H 0.97272 0.30337 0.11761 0.0
C3834 C 0.96443 0.30792 0.09878 0.0
C3835 C 0.95338 0.30673 0.09067 0.0
C3836 C 0.94393 0.27977 0.1321 0.0
C3837 C 0.95421 0.29338 0.11449 0.0
C3838 C 0.93771 0.27979 0.14432 0.0
C3839 C 0.9391 0.29061 0.1527 0.0
C3840 C 0.95172 0.29052 0.12846 0.0
C3841 C 0.94811 0.30042 0.14931 0.0
C3842 C 0.96482 0.30134 0.1108 0.0
C3843 C 0.94376 0.2975 0.09401 0.0
N3844 N 0.95394 0.30026 0.13734 0.0
N3845 N 0.94427 0.29133 0.1058 0.0
H3846 H 0.93629 0.77697 0.6493 0.0
H3847 H 0.97552 0.82036 0.59806 0.0
H3848 H 0.95485 0.81396 0.65788 0.0
H3849 H 0.9386 0.80119 0.59064 0.0
H3850 H 0.977 0.80879 0.61912 0.0
H3851 H 0.94673 0.77704 0.62762 0.0
C3852 C 0.94317 0.78472 0.64692 0.0
C3853 C 0.94463 0.79556 0.65526 0.0
C3854 C 0.96892 0.80665 0.61257 0.0
C3855 C 0.95653 0.79567 0.63066 0.0
C3856 C 0.9681 0.81315 0.60052 0.0
C3857 C 0.95685 0.81177 0.59274 0.0
C3858 C 0.95851 0.79859 0.61662 0.0
C3859 C 0.94739 0.80253 0.59646 0.0
C3860 C 0.94902 0.7848 0.63452 0.0
C3861 C 0.95344 0.80548 0.65164 0.0
N3862 N 0.94832 0.79643 0.60827 0.0
N3863 N 0.95889 0.80542 0.63949 0.0
H3864 H 0.60418 0.97773 0.81613 0.0
H3865 H 0.6554 0.93681 0.77493 0.0
H3866 H 0.59641 0.94156 0.79573 0.0
H3867 H 0.66302 0.956 0.81179 0.0
H3868 H 0.63443 0.94846 0.77348 0.0
H3869 H 0.62547 0.97915 0.80502 0.0
C3870 C 0.60662 0.9705 0.80873 0.0
C3871 C 0.59869 0.95941 0.80692 0.0
C3872 C 0.64101 0.95061 0.78154 0.0
C3873 C 0.62285 0.96097 0.79429 0.0
C3874 C 0.65302 0.94406 0.78233 0.0
C3875 C 0.66078 0.94531 0.79363 0.0
C3876 C 0.63695 0.95856 0.79202 0.0
C3877 C 0.65718 0.95467 0.80302 0.0
C3878 C 0.6188 0.97127 0.80249 0.0
C3879 C 0.60236 0.95019 0.79743 0.0
N3880 N 0.64537 0.96076 0.80215 0.0
N3881 N 0.61432 0.95104 0.79163 0.0
H3882 H 0.27588 0.84644 0.06648 0.0
H3883 H 0.31802 0.90141 0.03052 0.0
H3884 H 0.31412 0.83971 0.04974 0.0
H3885 H 0.29821 0.90699 0.06744 0.0
H3886 H 0.3084 0.87939 0.02898 0.0
H3887 H 0.27627 0.86884 0.05774 0.0
C3888 C 0.28406 0.84943 0.06039 0.0
C3889 C 0.29506 0.84129 0.05893 0.0
C3890 C 0.30574 0.88568 0.03712 0.0
C3891 C 0.29549 0.86676 0.04891 0.0
C3892 C 0.31112 0.89827 0.03797 0.0
C3893 C 0.30896 0.90594 0.04919 0.0
C3894 C 0.29794 0.88095 0.04741 0.0
C3895 C 0.30015 0.90132 0.05868 0.0
C3896 C 0.2843 0.86225 0.05552 0.0
C3897 C 0.30549 0.84574 0.05115 0.0
N3898 N 0.29507 0.88903 0.05766 0.0
N3899 N 0.30554 0.85827 0.04657 0.0
H3900 H 0.34052 0.5517 0.31544 0.0
H3901 H 0.40769 0.56725 0.29569 0.0
H3902 H 0.34648 0.57036 0.278 0.0
H3903 H 0.40052 0.53034 0.315 0.0
H3904 H 0.38586 0.56612 0.28589 0.0
H3905 H 0.36166 0.54069 0.31309 0.0
C3906 C 0.34605 0.55301 0.30646 0.0
C3907 C 0.34186 0.56202 0.29696 0.0
C3908 C 0.38923 0.55797 0.29183 0.0
C3909 C 0.36629 0.55001 0.29449 0.0
C3910 C 0.40172 0.55861 0.29737 0.0
C3911 C 0.4058 0.54896 0.30626 0.0
C3912 C 0.38063 0.54791 0.29567 0.0
C3913 C 0.39769 0.53801 0.30822 0.0
C3914 C 0.35814 0.54676 0.30512 0.0
C3915 C 0.34941 0.56348 0.28555 0.0
N3916 N 0.38525 0.53802 0.30338 0.0
N3917 N 0.36152 0.55794 0.28484 0.0
H3918 H 0.72185 0.64831 0.56531 0.0
H3919 H 0.67897 0.59761 0.52463 0.0
H3920 H 0.68522 0.65748 0.54635 0.0
H3921 H 0.69668 0.58972 0.56217 0.0
H3922 H 0.69053 0.61873 0.52389 0.0
H3923 H 0.72151 0.62661 0.55491 0.0
C3924 C 0.71413 0.64604 0.55836 0.0
C3925 C 0.70346 0.65458 0.55675 0.0
C3926 C 0.69235 0.61207 0.53197 0.0
C3927 C 0.70307 0.62995 0.54489 0.0
C3928 C 0.68586 0.6 0.53237 0.0
C3929 C 0.68684 0.59203 0.54354 0.0
C3930 C 0.70003 0.61597 0.54271 0.0
C3931 C 0.69565 0.59567 0.55343 0.0
C3932 C 0.7139 0.63363 0.55254 0.0
C3933 C 0.69357 0.6511 0.54787 0.0
N3934 N 0.70179 0.60749 0.55288 0.0
N3935 N 0.69349 0.63893 0.54242 0.0
H3936 H 0.97037 0.48565 0.167 0.0
H3937 H 0.03105 0.51054 0.12384 0.0
H3938 H 0.97136 0.48659 0.12469 0.0
H3939 H 0.02985 0.5155 0.16586 0.0
H3940 H 0.00964 0.50018 0.12461 0.0
H3941 H 0.99223 0.49585 0.1674 0.0
C3942 C 0.9751 0.48814 0.15782 0.0
C3943 C 0.96905 0.48523 0.14579 0.0
C3944 C 0.01402 0.50347 0.13371 0.0
C3945 C 0.99402 0.49664 0.14618 0.0
C3946 C 0.02632 0.50934 0.13328 0.0
C3947 C 0.03223 0.51396 0.1448 0.0
C3948 C 0.00747 0.5022 0.14575 0.0
C3949 C 0.02564 0.51206 0.15675 0.0
C3950 C 0.98759 0.49388 0.15806 0.0
C3951 C 0.97564 0.48859 0.1342 0.0
N3952 N 0.01353 0.50638 0.15692 0.0
N3953 N 0.98775 0.49403 0.13469 0.0
H3954 H 0.73747 0.28041 0.37845 0.0
H3955 H 0.76664 0.2215 0.42139 0.0
H3956 H 0.73409 0.27953 0.42064 0.0
H3957 H 0.76392 0.22173 0.37914 0.0
H3958 H 0.75544 0.24286 0.42188 0.0
H3959 H 0.74864 0.2594 0.37907 0.0
C3960 C 0.73918 0.27584 0.38789 0.0
C3961 C 0.73478 0.28173 0.39951 0.0
C3962 C 0.75724 0.23816 0.41254 0.0
C3963 C 0.7475 0.25743 0.4003 0.0
C3964 C 0.76356 0.22595 0.41225 0.0
C3965 C 0.76625 0.21984 0.4002 0.0
C3966 C 0.75369 0.24425 0.40069 0.0
C3967 C 0.76211 0.22607 0.38865 0.0
C3968 C 0.74551 0.26377 0.38824 0.0
C3969 C 0.73734 0.27533 0.41145 0.0
N3970 N 0.75612 0.23792 0.3892 0.0
N3971 N 0.74349 0.26346 0.41154 0.0
H3972 H 0.97132 0.96929 0.67307 0.0
H3973 H 0.02568 0.02454 0.66575 0.0
H3974 H 0.96322 0.00553 0.65283 0.0
H3975 H 0.03162 0.9857 0.6501 0.0
H3976 H 0.00343 0.01813 0.67249 0.0
H3977 H 0.99418 0.97641 0.67609 0.0
C3978 C 0.97421 0.97898 0.66978 0.0
C3979 C 0.96546 0.98688 0.66269 0.0
C3980 C 0.00983 0.01093 0.668 0.0
C3981 C 0.99128 0.99504 0.6663 0.0
C3982 C 0.0225 0.01451 0.66424 0.0
C3983 C 0.03042 0.00561 0.65735 0.0
C3984 C 0.00529 0.99826 0.6652 0.0
C3985 C 0.02577 0.99282 0.65538 0.0
C3986 C 0.98722 0.98295 0.67143 0.0
C3987 C 0.96973 0.9992 0.65835 0.0
N3988 N 0.01344 0.98952 0.65923 0.0
N3989 N 0.9824 0.0029 0.66017 0.0
H3990 H 0.23468 0.279 0.9204 0.0
H3991 H 0.26322 0.22229 0.87424 0.0
H3992 H 0.23978 0.28212 0.87849 0.0
H3993 H 0.26292 0.21895 0.91645 0.0
H3994 H 0.25376 0.24405 0.87605 0.0
H3995 H 0.24488 0.25716 0.9197 0.0
C3996 C 0.23812 0.27519 0.9111 0.0
C3997 C 0.23633 0.28237 0.89948 0.0
C3998 C 0.25571 0.2386 0.88496 0.0
C3999 C 0.24774 0.25741 0.89858 0.0
C4000 C 0.26107 0.2261 0.88393 0.0
C4001 C 0.2639 0.21878 0.89522 0.0
C4002 C 0.25313 0.24393 0.89739 0.0
C4003 C 0.26085 0.22426 0.90749 0.0
C4004 C 0.24384 0.2627 0.9107 0.0
C4005 C 0.24088 0.27693 0.8877 0.0
N4006 N 0.25566 0.23656 0.90826 0.0
N4007 N 0.24628 0.26479 0.88755 0.0
H4008 H 0.02825 0.48412 0.83161 0.0
H4009 H 0.96803 0.51075 0.87424 0.0
H4010 H 0.02804 0.48782 0.87379 0.0
H4011 H 0.96862 0.51378 0.83201 0.0
H4012 H 0.98962 0.50082 0.87368 0.0
H4013 H 0.00639 0.49431 0.83095 0.0
C4014 C 0.0237 0.48723 0.84069 0.0
C4015 C 0.02995 0.48507 0.85278 0.0
C4016 C 0.98507 0.5036 0.86449 0.0
C4017 C 0.00499 0.49644 0.8521 0.0
C4018 C 0.97266 0.50922 0.86481 0.0
C4019 C 0.96652 0.51316 0.85316 0.0
C4020 C 0.99149 0.50187 0.85244 0.0
C4021 C 0.97302 0.51086 0.84123 0.0
C4022 C 0.01121 0.49296 0.84031 0.0
C4023 C 0.02359 0.48921 0.86425 0.0
N4024 N 0.98522 0.5054 0.84117 0.0
N4025 N 0.01147 0.4946 0.86362 0.0
H4026 H 0.74367 0.28353 0.09621 0.0
H4027 H 0.75697 0.2119 0.09705 0.0
H4028 H 0.77942 0.27212 0.07678 0.0
H4029 H 0.72104 0.22287 0.07768 0.0
H4030 H 0.76594 0.23378 0.0922 0.0
H4031 H 0.73468 0.26152 0.09201 0.0
C4032 C 0.74945 0.27649 0.09074 0.0
C4033 C 0.7622 0.2796 0.08668 0.0
C4034 C 0.75623 0.23122 0.08872 0.0
C4035 C 0.75231 0.25447 0.08243 0.0
C4036 C 0.75114 0.21881 0.09147 0.0
C4037 C 0.73834 0.21562 0.08763 0.0
C4038 C 0.74823 0.24061 0.08262 0.0
C4039 C 0.73103 0.22495 0.08062 0.0
C4040 C 0.74436 0.264 0.08837 0.0
C4041 C 0.76946 0.2701 0.07987 0.0
N4042 N 0.73594 0.23721 0.07866 0.0
N4043 N 0.76456 0.25778 0.07827 0.0
H4044 H 0.97112 0.01049 0.37079 0.0
H4045 H 0.02979 0.98237 0.32689 0.0
H4046 H 0.97081 0.013 0.32852 0.0
H4047 H 0.0306 0.98588 0.36907 0.0
H4048 H 0.00815 0.993 0.32675 0.0
H4049 H 0.99251 0.0001 0.36984 0.0
C4050 C 0.97551 0.00875 0.36127 0.0
C4051 C 0.96916 0.01267 0.34971 0.0
C4052 C 0.01315 0.99151 0.336 0.0
C4053 C 0.9939 0.00085 0.34856 0.0
C4054 C 0.02552 0.98552 0.33608 0.0
C4055 C 0.032 0.98319 0.34802 0.0
C4056 C 0.00726 0.99509 0.34794 0.0
C4057 C 0.02597 0.98741 0.35964 0.0
C4058 C 0.9878 0.00287 0.36074 0.0
C4059 C 0.97535 0.01011 0.33767 0.0
N4060 N 0.01395 0.99306 0.3593 0.0
N4061 N 0.98743 0.0044 0.3374 0.0
H4062 H 0.25838 0.21433 0.60002 0.0
H4063 H 0.2443 0.28552 0.5978 0.0
H4064 H 0.22264 0.22435 0.57982 0.0
H4065 H 0.28037 0.27436 0.5788 0.0
H4066 H 0.23561 0.26338 0.59369 0.0
H4067 H 0.26717 0.23618 0.59474 0.0
C4068 C 0.25257 0.22101 0.59414 0.0
C4069 C 0.23988 0.21757 0.59018 0.0
C4070 C 0.24528 0.26594 0.59011 0.0
C4071 C 0.24953 0.24255 0.58471 0.0
C4072 C 0.25022 0.27851 0.59244 0.0
C4073 C 0.26298 0.28172 0.58849 0.0
C4074 C 0.25341 0.25645 0.58434 0.0
C4075 C 0.2704 0.27226 0.58181 0.0
C4076 C 0.25756 0.23341 0.59115 0.0
C4077 C 0.23257 0.22663 0.58284 0.0
N4078 N 0.26566 0.25987 0.58028 0.0
N4079 N 0.23735 0.2389 0.58066 0.0
H4080 H 0.17193 0.03061 0.5165 0.0
H4081 H 0.12787 0.97502 0.48345 0.0
H4082 H 0.13088 0.03485 0.50702 0.0
H4083 H 0.17014 0.97256 0.48388 0.0
H4084 H 0.1292 0.99663 0.49332 0.0
H4085 H 0.17208 0.00946 0.50493 0.0
C4086 C 0.16303 0.02724 0.51177 0.0
C4087 C 0.15134 0.03446 0.51281 0.0
C4088 C 0.13822 0.99141 0.49128 0.0
C4089 C 0.15139 0.01025 0.49987 0.0
C4090 C 0.13747 0.97898 0.48572 0.0
C4091 C 0.14892 0.97194 0.48281 0.0
C4092 C 0.15052 0.99693 0.49406 0.0
C4093 C 0.16106 0.97764 0.48599 0.0
C4094 C 0.16311 0.01513 0.50526 0.0
C4095 C 0.14009 0.02959 0.50657 0.0
N4096 N 0.16156 0.98983 0.49145 0.0
N4097 N 0.14038 0.01776 0.50051 0.0
H4098 H 0.278 0.37745 0.7381 0.0
H4099 H 0.21979 0.42161 0.76654 0.0
H4100 H 0.2775 0.41953 0.73335 0.0
H4101 H 0.21864 0.37943 0.76286 0.0
H4102 H 0.24118 0.42167 0.7554 0.0
H4103 H 0.25691 0.3786 0.74908 0.0
C4104 C 0.2735 0.38698 0.73947 0.0
C4105 C 0.27951 0.39841 0.73473 0.0
C4106 C 0.23615 0.41244 0.75696 0.0
C4107 C 0.25513 0.39979 0.74722 0.0
C4108 C 0.22393 0.4124 0.76324 0.0
C4109 C 0.21744 0.40049 0.76568 0.0
C4110 C 0.2419 0.40048 0.75323 0.0
C4111 C 0.22328 0.38885 0.76126 0.0
C4112 C 0.26138 0.38762 0.74568 0.0
C4113 C 0.27321 0.41048 0.73686 0.0
N4114 N 0.23518 0.38914 0.75535 0.0
N4115 N 0.26129 0.41086 0.74292 0.0
H4116 H 0.84865 0.46314 0.99195 0.0
H4117 H 0.84686 0.53451 0.00574 0.0
H4118 H 0.82864 0.47329 0.02777 0.0
H4119 H 0.82689 0.52328 0.97021 0.0
H4120 H 0.84308 0.51234 0.01453 0.0
H4121 H 0.84358 0.48508 0.98323 0.0
C4122 C 0.84288 0.46988 0.99781 0.0
C4123 C 0.83891 0.46645 0.0105 0.0
C4124 C 0.83923 0.51489 0.00495 0.0
C4125 C 0.83366 0.49149 0.00091 0.0
C4126 C 0.84137 0.52747 -3e-05 0.0
C4127 C 0.83703 0.53068 0.98734 0.0
C4128 C 0.83326 0.50539 0.997 0.0
C4129 C 0.83019 0.52118 0.98009 0.0
C4130 C 0.84001 0.48233 0.99286 0.0
C4131 C 0.83168 0.47556 0.01785 0.0
N4132 N 0.82883 0.50879 0.98487 0.0
N4133 N 0.8296 0.48786 0.0131 0.0
H4134 H 0.77542 0.12346 0.26167 0.0
H4135 H 0.71821 0.07891 0.23206 0.0
H4136 H 0.77662 0.08118 0.26408 0.0
H4137 H 0.7154 0.12064 0.23874 0.0
H4138 H 0.73965 0.07893 0.24311 0.0
H4139 H 0.75387 0.1221 0.25169 0.0
C4140 C 0.77119 0.11385 0.26 0.0
C4141 C 0.77784 0.10241 0.26376 0.0
C4142 C 0.73424 0.08802 0.24225 0.0
C4143 C 0.75293 0.10078 0.2524 0.0
C4144 C 0.72198 0.08801 0.23604 0.0
C4145 C 0.71505 0.09981 0.2344 0.0
C4146 C 0.73956 0.09993 0.24674 0.0
C4147 C 0.72042 0.11132 0.23967 0.0
C4148 C 0.7588 0.11308 0.25437 0.0
C4149 C 0.77184 0.09024 0.26131 0.0
N4150 N 0.73237 0.1111 0.24548 0.0
N4151 N 0.75967 0.08973 0.25578 0.0
H4152 H 0.50592 0.12539 0.02687 0.0
H4153 H 0.47671 0.16998 0.96951 0.0
H4154 H 0.5115 0.16739 0.0265 0.0
H4155 H 0.48185 0.12798 0.96739 0.0
H4156 H 0.4881 0.16995 0.99079 0.0
H4157 H 0.49474 0.12687 0.00593 0.0
C4158 C 0.50469 0.13497 0.02244 0.0
C4159 C 0.50974 0.14628 0.02842 0.0
C4160 C 0.4868 0.16079 0.98557 0.0
C4161 C 0.49702 0.14802 0.00421 0.0
C4162 C 0.48039 0.1608 0.97341 0.0
C4163 C 0.47827 0.14895 0.9667 0.0
C4164 C 0.49097 0.14883 0.99101 0.0
C4165 C 0.48318 0.13735 0.97222 0.0
C4166 C 0.49836 0.1358 0.0104 0.0
C4167 C 0.50775 0.15843 0.02221 0.0
N4168 N 0.48918 0.13758 0.98407 0.0
N4169 N 0.50158 0.15899 0.01037 0.0
H4170 H 0.98772 0.87559 0.52641 0.0
H4171 H 0.01644 0.8301 0.4695 0.0
H4172 H 0.98496 0.83335 0.52821 0.0
H4173 H 0.00956 0.87176 0.46607 0.0
H4174 H 0.00592 0.83048 0.4912 0.0
H4175 H 0.99768 0.87385 0.50488 0.0
C4176 C 0.98932 0.86591 0.52233 0.0
C4177 C 0.98544 0.8546 0.52912 0.0
C4178 C 0.00663 0.83949 0.4856 0.0
C4179 C 0.99676 0.85254 0.50423 0.0
C4180 C 0.01254 0.83926 0.4732 0.0
C4181 C 0.01395 0.85093 0.466 0.0
C4182 C 0.00222 0.85147 0.49079 0.0
C4183 C 0.00879 0.86253 0.47129 0.0
C4184 C 0.99494 0.86493 0.50995 0.0
C4185 C 0.98782 0.84233 0.5233 0.0
N4186 N 0.00328 0.86251 0.48337 0.0
N4187 N 0.9933 0.84161 0.51113 0.0
H4188 H 0.37843 0.23579 0.78424 0.0
H4189 H 0.41804 0.26162 0.72159 0.0
H4190 H 0.42006 0.22947 0.77987 0.0
H4191 H 0.37584 0.26036 0.72489 0.0
H4192 H 0.4197 0.25124 0.7433 0.0
H4193 H 0.37812 0.24711 0.7633 0.0
C4194 C 0.38756 0.23691 0.77893 0.0
C4195 C 0.39927 0.23159 0.78378 0.0
C4196 C 0.41011 0.2532 0.7392 0.0
C4197 C 0.39896 0.24443 0.75955 0.0
C4198 C 0.40915 0.25904 0.72679 0.0
C4199 C 0.39678 0.26187 0.72142 0.0
C4200 C 0.39862 0.25029 0.74624 0.0
C4201 C 0.38558 0.2584 0.72862 0.0
C4202 C 0.38736 0.24332 0.7669 0.0
C4203 C 0.41081 0.23344 0.77648 0.0
N4204 N 0.38678 0.25287 0.74064 0.0
N4205 N 0.41036 0.23963 0.76464 0.0
H4206 H 0.01525 0.67025 0.027 0.0
H4207 H 0.98559 0.62727 0.9685 0.0
H4208 H 0.01177 0.62803 0.02725 0.0
H4209 H 0.98047 0.66928 0.97018 0.0
H4210 H 0.99719 0.62803 0.98927 0.0
H4211 H 0.00362 0.67074 0.00588 0.0
C4212 C 0.0119 0.66112 0.02272 0.0
C4213 C 0.01453 0.64907 0.02888 0.0
C4214 C 0.99358 0.63712 0.98512 0.0
C4215 C 0.00152 0.64956 0.00472 0.0
C4216 C 0.98702 0.6367 0.97318 0.0
C4217 C 0.98198 0.64823 0.96761 0.0
C4218 C 0.99518 0.64915 0.99163 0.0
C4219 C 0.9842 0.66017 0.97414 0.0
C4220 C 0.00535 0.66141 0.01065 0.0
C4221 C 0.01003 0.63754 0.02287 0.0
N4222 N 0.9906 0.66032 0.98587 0.0
N4223 N 0.00385 0.63808 0.01112 0.0
H4224 H 0.08265 0.76485 0.27822 0.0
H4225 H 0.12442 0.7403 0.21644 0.0
H4226 H 0.12494 0.76387 0.27627 0.0
H4227 H 0.0824 0.73555 0.21849 0.0
H4228 H 0.12414 0.75062 0.23788 0.0
H4229 H 0.08174 0.75496 0.25623 0.0
C4230 C 0.09172 0.76243 0.27325 0.0
C4231 C 0.10389 0.76521 0.27908 0.0
C4232 C 0.11494 0.74738 0.23367 0.0
C4233 C 0.10292 0.75416 0.25396 0.0
C4234 C 0.11508 0.74154 0.22136 0.0
C4235 C 0.10342 0.73699 0.21568 0.0
C4236 C 0.10304 0.74869 0.24048 0.0
C4237 C 0.09162 0.73894 0.22252 0.0
C4238 C 0.09119 0.75687 0.26069 0.0
C4239 C 0.11533 0.76195 0.27218 0.0
N4240 N 0.09173 0.74459 0.23464 0.0
N4241 N 0.11455 0.75668 0.26001 0.0
H4242 H 0.49218 0.83835 0.02823 0.0
H4243 H 0.50723 0.8712 0.9585 0.0
H4244 H 0.48435 0.8787 0.01799 0.0
H4245 H 0.52048 0.83226 0.96848 0.0
H4246 H 0.496 0.87257 0.97948 0.0
H4247 H 0.50066 0.8347 0.00594 0.0
C4248 C 0.4923 0.84643 0.02134 0.0
C4249 C 0.48761 0.85886 0.025 0.0
C4250 C 0.50125 0.86365 0.97709 0.0
C4251 C 0.49704 0.85472 -0.00044 0.0
C4252 C 0.5076 0.86284 0.96506 0.0
C4253 C 0.51489 0.85165 0.96181 0.0
C4254 C 0.50228 0.85325 0.98607 0.0
C4255 C 0.51496 0.84107 0.97063 0.0
C4256 C 0.49707 0.84433 0.00863 0.0
C4257 C 0.4879 0.86896 0.01566 0.0
N4258 N 0.50888 0.84219 0.98248 0.0
N4259 N 0.49251 0.86666 0.00342 0.0
H4260 H 0.62437 0.23731 0.22292 0.0
H4261 H 0.5792 0.26649 0.28002 0.0
H4262 H 0.5821 0.23711 0.22043 0.0
H4263 H 0.62102 0.26057 0.28283 0.0
H4264 H 0.57951 0.25607 0.25828 0.0
H4265 H 0.62289 0.24697 0.24461 0.0
C4266 C 0.61475 0.2394 0.2269 0.0
C4267 C 0.60334 0.23636 0.21984 0.0
C4268 C 0.58858 0.25697 0.26374 0.0
C4269 C 0.60155 0.24735 0.24491 0.0
C4270 C 0.58839 0.26282 0.27617 0.0
C4271 C 0.60011 0.26446 0.28322 0.0
C4272 C 0.60057 0.25281 0.25837 0.0
C4273 C 0.61176 0.25961 0.27774 0.0
C4274 C 0.6139 0.24486 0.23936 0.0
C4275 C 0.59115 0.23934 0.22553 0.0
N4276 N 0.61169 0.25411 0.26564 0.0
N4277 N 0.59056 0.24464 0.23779 0.0
H4278 H 0.73992 0.78154 0.87824 0.0
H4279 H 0.76476 0.72011 0.92027 0.0
H4280 H 0.73405 0.77928 0.92011 0.0
H4281 H 0.76215 0.72118 0.87802 0.0
H4282 H 0.75478 0.74207 0.92109 0.0
H4283 H 0.75026 0.7601 0.87871 0.0
C4284 C 0.74092 0.77659 0.88758 0.0
C4285 C 0.73603 0.7822 0.89914 0.0
C4286 C 0.75634 0.73742 0.91167 0.0
C4287 C 0.74776 0.75741 0.89973 0.0
C4288 C 0.76195 0.72488 0.91119 0.0
C4289 C 0.76432 0.71881 0.89905 0.0
C4290 C 0.7532 0.74391 0.89992 0.0
C4291 C 0.76056 0.72546 0.8876 0.0
C4292 C 0.74677 0.76427 0.88783 0.0
C4293 C 0.73769 0.77531 0.91096 0.0
N4294 N 0.75528 0.73763 0.88833 0.0
N4295 N 0.74337 0.7632 0.91096 0.0
H4296 H 0.25515 0.78772 0.40442 0.0
H4297 H 0.24142 0.71623 0.4032 0.0
H4298 H 0.21907 0.77631 0.42327 0.0
H4299 H 0.27755 0.72707 0.42229 0.0
H4300 H 0.23247 0.73802 0.40838 0.0
H4301 H 0.26404 0.76572 0.40877 0.0
C4302 C 0.24927 0.78068 0.40979 0.0
C4303 C 0.23645 0.78377 0.41362 0.0
C4304 C 0.24222 0.73545 0.41174 0.0
C4305 C 0.24626 0.75866 0.41805 0.0
C4306 C 0.2473 0.72308 0.4088 0.0
C4307 C 0.26016 0.7199 0.41243 0.0
C4308 C 0.25028 0.7448 0.41783 0.0
C4309 C 0.26752 0.72915 0.41949 0.0
C4310 C 0.25432 0.76819 0.41226 0.0
C4311 C 0.22908 0.77429 0.42034 0.0
N4312 N 0.26262 0.74138 0.42162 0.0
N4313 N 0.23395 0.76198 0.42202 0.0
H4314 H 0.76665 0.77818 0.57861 0.0
H4315 H 0.7414 0.71717 0.62105 0.0
H4316 H 0.7646 0.77721 0.62089 0.0
H4317 H 0.73513 0.71944 0.57924 0.0
H4318 H 0.75212 0.73843 0.62043 0.0
H4319 H 0.75639 0.75634 0.57795 0.0
C4320 C 0.76391 0.77347 0.58772 0.0
C4321 C 0.76651 0.77952 0.59982 0.0
C4322 C 0.74846 0.7343 0.61135 0.0
C4323 C 0.75507 0.75455 0.59914 0.0
C4324 C 0.7424 0.72209 0.61169 0.0
C4325 C 0.73728 0.71654 0.60019 0.0
C4326 C 0.74944 0.74113 0.59943 0.0
C4327 C 0.73895 0.72337 0.58834 0.0
C4328 C 0.75814 0.76099 0.58734 0.0
C4329 C 0.76283 0.77294 0.61133 0.0
N4330 N 0.74483 0.73539 0.58826 0.0
N4331 N 0.75739 0.76082 0.61069 0.0
H4332 H 0.25542 0.71539 0.09385 0.0
H4333 H 0.24143 0.78673 0.09569 0.0
H4334 H 0.21894 0.72641 0.07557 0.0
H4335 H 0.27683 0.77623 0.07511 0.0
H4336 H 0.23243 0.76489 0.09076 0.0
H4337 H 0.26398 0.73753 0.08947 0.0
C4338 C 0.24938 0.72238 0.08859 0.0
C4339 C 0.23655 0.71912 0.08491 0.0
C4340 C 0.24201 0.76755 0.08702 0.0
C4341 C 0.24598 0.74439 0.08046 0.0
C4342 C 0.24712 0.77996 0.08981 0.0
C4343 C 0.25981 0.78325 0.08569 0.0
C4344 C 0.24989 0.75829 0.08059 0.0
C4345 C 0.26693 0.77408 0.07829 0.0
C4346 C 0.25423 0.73494 0.08611 0.0
C4347 C 0.22896 0.72856 0.07836 0.0
N4348 N 0.26203 0.76182 0.07631 0.0
N4349 N 0.23365 0.74094 0.07668 0.0
H4350 H 0.15033 0.46678 0.00761 0.0
H4351 H 0.15251 0.53776 0.99241 0.0
H4352 H 0.17017 0.4761 0.97146 0.0
H4353 H 0.17228 0.52707 0.0282 0.0
H4354 H 0.15633 0.51547 0.98398 0.0
H4355 H 0.15568 0.48881 0.01588 0.0
C4356 C 0.15611 0.47336 0.00158 0.0
C4357 C 0.15996 0.46967 0.98893 0.0
C4358 C 0.16014 0.51817 0.99352 0.0
C4359 C 0.16553 0.49482 0.99803 0.0
C4360 C 0.15798 0.53082 0.99831 0.0
C4361 C 0.16223 0.5342 0.01092 0.0
C4362 C 0.16604 0.50878 0.00166 0.0
C4363 C 0.16905 0.52483 0.01834 0.0
C4364 C 0.15915 0.48586 0.00628 0.0
C4365 C 0.16722 0.47858 0.98136 0.0
N4366 N 0.17041 0.51237 0.01376 0.0
N4367 N 0.16946 0.49094 0.98587 0.0
H4368 H 0.28017 0.91705 0.23552 0.0
H4369 H 0.21739 0.87816 0.26219 0.0
H4370 H 0.27565 0.87493 0.23535 0.0
H4371 H 0.22269 0.91961 0.26907 0.0
H4372 H 0.23806 0.87765 0.25042 0.0
H4373 H 0.2589 0.91893 0.24677 0.0
C4374 C 0.2748 0.90821 0.23797 0.0
C4375 C 0.27968 0.89581 0.23446 0.0
C4376 C 0.23474 0.8869 0.25443 0.0
C4377 C 0.25537 0.89791 0.24704 0.0
C4378 C 0.22286 0.88721 0.26111 0.0
C4379 C 0.21834 0.89893 0.2667 0.0
C4380 C 0.24227 0.89838 0.25333 0.0
C4381 C 0.22583 0.91037 0.2649 0.0
C4382 C 0.26264 0.9093 0.2443 0.0
C4383 C 0.27228 0.8847 0.2378 0.0
N4384 N 0.23751 0.9098 0.25843 0.0
N4385 N 0.26052 0.88603 0.24382 0.0
H4386 H 0.82646 0.03134 0.48188 0.0
H4387 H 0.82574 0.97244 0.51866 0.0
H4388 H 0.86783 0.03115 0.49084 0.0
H4389 H 0.86747 0.97287 0.51158 0.0
H4390 H 0.82398 0.99385 0.5079 0.0
H4391 H 0.82429 0.01002 0.49273 0.0
C4392 C 0.83502 0.02695 0.48638 0.0
C4393 C 0.84735 0.03303 0.48544 0.0
C4394 C 0.83348 0.98916 0.50844 0.0
C4395 C 0.84498 0.00865 0.49786 0.0
C4396 C 0.83448 0.97691 0.5146 0.0
C4397 C 0.84677 0.97086 0.51603 0.0
C4398 C 0.84488 0.99533 0.50371 0.0
C4399 C 0.85779 0.97716 0.51074 0.0
C4400 C 0.83378 0.01475 0.49258 0.0
C4401 C 0.85814 0.02683 0.49128 0.0
N4402 N 0.85659 0.98906 0.50494 0.0
N4403 N 0.85671 0.01497 0.49712 0.0
H4404 H 0.71702 0.57832 0.73379 0.0
H4405 H 0.77815 0.621 0.75813 0.0
H4406 H 0.71756 0.62059 0.7365 0.0
H4407 H 0.77611 0.5792 0.76467 0.0
H4408 H 0.75662 0.62028 0.74799 0.0
H4409 H 0.73894 0.57774 0.74386 0.0
C4410 C 0.72165 0.58744 0.73666 0.0
C4411 C 0.71547 0.59952 0.73426 0.0
C4412 C 0.76086 0.61122 0.75158 0.0
C4413 C 0.74052 0.59893 0.74547 0.0
C4414 C 0.77323 0.61162 0.75731 0.0
C4415 C 0.77893 0.60015 0.76234 0.0
C4416 C 0.75404 0.59928 0.75082 0.0
C4417 C 0.77207 0.58827 0.76092 0.0
C4418 C 0.73417 0.5871 0.74232 0.0
C4419 C 0.72194 0.61104 0.7381 0.0
N4420 N 0.75992 0.58814 0.75534 0.0
N4421 N 0.73411 0.61045 0.7434 0.0
H4422 H 0.4726 0.67151 0.47063 0.0
H4423 H 0.52797 0.67061 0.52472 0.0
H4424 H 0.50887 0.65124 0.46279 0.0
H4425 H 0.49224 0.6489 0.53104 0.0
H4426 H 0.52058 0.67572 0.50229 0.0
H4427 H 0.48003 0.67549 0.49325 0.0
C4428 C 0.48234 0.6684 0.47351 0.0
C4429 C 0.49017 0.66104 0.46491 0.0
C4430 C 0.51421 0.67024 0.50881 0.0
C4431 C 0.49869 0.66576 0.49043 0.0
C4432 C 0.51834 0.66741 0.52157 0.0
C4433 C 0.51064 0.65936 0.52966 0.0
C4434 C 0.50217 0.66534 0.50439 0.0
C4435 C 0.4984 0.65516 0.52506 0.0
C4436 C 0.4865 0.6706 0.48638 0.0
C4437 C 0.50259 0.65696 0.46917 0.0
N4438 N 0.49453 0.65816 0.51266 0.0
N4439 N 0.50646 0.65931 0.4817 0.0
H4440 H 0.98208 0.32614 0.03093 0.0
H4441 H 0.01789 0.32682 0.97121 0.0
H4442 H 0.99219 0.36727 0.03153 0.0
H4443 H 0.00797 0.36799 0.97169 0.0
H4444 H 0.00803 0.3245 0.99303 0.0
H4445 H 0.99206 0.32432 0.00912 0.0
C4446 C 0.98666 0.3347 0.02662 0.0
C4447 C 0.98626 0.34689 0.03305 0.0
C4448 C 0.00776 0.33396 0.98823 0.0
C4449 C 0.99758 0.34491 0.00815 0.0
C4450 C 0.01338 0.33529 0.97577 0.0
C4451 C 0.01378 0.34763 0.96963 0.0
C4452 C 0.0026 0.34508 0.99454 0.0
C4453 C 0.00794 0.3583 0.97603 0.0
C4454 C 0.99234 0.33365 0.01416 0.0
C4455 C 0.9922 0.35769 0.02695 0.0
N4456 N 0.00275 0.3568 0.98817 0.0
N4457 N 0.99745 0.35647 0.01481 0.0
H4458 H 0.39435 0.73457 0.21495 0.0
H4459 H 0.39704 0.75831 0.28314 0.0
H4460 H 0.41302 0.77222 0.21964 0.0
H4461 H 0.41634 0.72126 0.2767 0.0
H4462 H 0.40125 0.7642 0.26014 0.0
H4463 H 0.40074 0.7289 0.2375 0.0
C4464 C 0.40015 0.74145 0.22061 0.0
C4465 C 0.4033 0.7538 0.21549 0.0
C4466 C 0.40492 0.75497 0.26391 0.0
C4467 C 0.41004 0.74767 0.24124 0.0
C4468 C 0.40255 0.75163 0.27697 0.0
C4469 C 0.4065 0.73937 0.28175 0.0
C4470 C 0.41073 0.74573 0.25553 0.0
C4471 C 0.41334 0.73089 0.27336 0.0
C4472 C 0.40378 0.73823 0.23341 0.0
C4473 C 0.4106 0.76252 0.22325 0.0
N4474 N 0.41488 0.73404 0.26049 0.0
N4475 N 0.41338 0.75946 0.23593 0.0
H4476 H 0.99374 0.12937 0.45953 0.0
H4477 H 0.01109 0.16581 0.5269 0.0
H4478 H 0.9821 0.16932 0.46728 0.0
H4479 H 0.02063 0.12558 0.51772 0.0
H4480 H 0.00157 0.16822 0.50485 0.0
H4481 H 0.00545 0.12893 0.48026 0.0
C4482 C 0.99379 0.13813 0.46555 0.0
C4483 C 0.98687 0.14936 0.46173 0.0
C4484 C 0.00578 0.15889 0.50771 0.0
C4485 C 9e-05 0.14887 0.48572 0.0
C4486 C 0.01114 0.1575 0.52029 0.0
C4487 C 0.01661 0.14546 0.52418 0.0
C4488 C 0.00595 0.14818 0.49903 0.0
C4489 C 0.0165 0.13503 0.51521 0.0
C4490 C 0.00044 0.13786 0.47744 0.0
C4491 C 0.98734 0.16046 0.46988 0.0
N4492 N 0.01127 0.13664 0.50311 0.0
N4493 N 0.99372 0.15989 0.48161 0.0
H4494 H 0.12321 0.25459 0.72126 0.0
H4495 H 0.07804 0.26926 0.7833 0.0
H4496 H 0.08424 0.23819 0.72381 0.0
H4497 H 0.1204 0.26898 0.78359 0.0
H4498 H 0.07852 0.26072 0.76068 0.0
H4499 H 0.12037 0.26419 0.74289 0.0
C4500 C 0.11395 0.25318 0.72629 0.0
C4501 C 0.10401 0.24544 0.72079 0.0
C4502 C 0.08765 0.26247 0.76581 0.0
C4503 C 0.10078 0.25626 0.74573 0.0
C4504 C 0.0874 0.26724 0.7787 0.0
C4505 C 0.0992 0.26988 0.78533 0.0
C4506 C 0.09977 0.26057 0.75954 0.0
C4507 C 0.11105 0.26716 0.7789 0.0
C4508 C 0.11238 0.25857 0.7387 0.0
C4509 C 0.09217 0.24407 0.72773 0.0
N4510 N 0.11102 0.26279 0.76636 0.0
N4511 N 0.09091 0.24933 0.73995 0.0
H4512 H 0.4894 0.37372 0.52728 0.0
H4513 H 0.5183 0.32825 0.47026 0.0
H4514 H 0.48696 0.33146 0.52884 0.0
H4515 H 0.51437 0.37037 0.46808 0.0
H4516 H 0.50733 0.32866 0.49173 0.0
H4517 H 0.49987 0.37218 0.50598 0.0
C4518 C 0.49117 0.36408 0.52319 0.0
C4519 C 0.48725 0.3527 0.52985 0.0
C4520 C 0.50879 0.33777 0.48647 0.0
C4521 C 0.49916 0.35085 0.50522 0.0
C4522 C 0.51496 0.33754 0.4742 0.0
C4523 C 0.5173 0.3493 0.4674 0.0
C4524 C 0.50502 0.34986 0.49194 0.0
C4525 C 0.51286 0.36106 0.47298 0.0
C4526 C 0.49709 0.3632 0.51094 0.0
C4527 C 0.48985 0.34048 0.52403 0.0
N4528 N 0.50703 0.36103 0.48492 0.0
N4529 N 0.49561 0.33987 0.51199 0.0
H4530 H 0.57972 0.76758 0.77869 0.0
H4531 H 0.62255 0.74092 0.71862 0.0
H4532 H 0.62191 0.76397 0.77871 0.0
H4533 H 0.58043 0.73675 0.71967 0.0
H4534 H 0.6219 0.75123 0.74007 0.0
H4535 H 0.57918 0.75726 0.75689 0.0
C4536 C 0.58883 0.76447 0.77421 0.0
C4537 C 0.60088 0.76668 0.78051 0.0
C4538 C 0.61276 0.74812 0.73564 0.0
C4539 C 0.60034 0.75516 0.7556 0.0
C4540 C 0.61312 0.74229 0.72331 0.0
C4541 C 0.60153 0.7379 0.71735 0.0
C4542 C 0.60072 0.74961 0.74215 0.0
C4543 C 0.5896 0.74001 0.72392 0.0
C4544 C 0.58852 0.75866 0.76175 0.0
C4545 C 0.61239 0.76252 0.77423 0.0
N4546 N 0.5895 0.74567 0.73603 0.0
N4547 N 0.61183 0.75706 0.76212 0.0
H4548 H 0.46064 0.50542 0.65204 0.0
H4549 H 0.53204 0.49234 0.64877 0.0
H4550 H 0.47274 0.4695 0.67078 0.0
H4551 H 0.52174 0.52809 0.66885 0.0
H4552 H 0.5104 0.48327 0.65437 0.0
H4553 H 0.48268 0.51449 0.65579 0.0
C4554 C 0.46784 0.49962 0.65728 0.0
C4555 C 0.46492 0.48679 0.66125 0.0
C4556 C 0.51306 0.49296 0.65784 0.0
C4557 C 0.49007 0.49679 0.66498 0.0
C4558 C 0.52534 0.49811 0.65466 0.0
C4559 C 0.52863 0.5109 0.65847 0.0
C4560 C 0.5039 0.50089 0.66435 0.0
C4561 C 0.51957 0.51812 0.6659 0.0
C4562 C 0.48035 0.50476 0.6594 0.0
C4563 C 0.47462 0.47952 0.66777 0.0
N4564 N 0.50741 0.51316 0.66828 0.0
N4565 N 0.48693 0.48447 0.66909 0.0
H4566 H 0.46374 0.01383 0.15279 0.0
H4567 H 0.53366 0.99451 0.15129 0.0
H4568 H 0.47247 0.97611 0.16982 0.0
H4569 H 0.52572 0.03125 0.17063 0.0
H4570 H 0.51136 0.98714 0.15669 0.0
H4571 H 0.4861 0.02109 0.15809 0.0
C4572 C 0.47023 0.00725 0.15802 0.0
C4573 C 0.4663 0.9944 0.16094 0.0
C4574 C 0.51467 0.99665 0.16009 0.0
C4575 C 0.49185 0.00239 0.16645 0.0
C4576 C 0.52734 0.00083 0.15702 0.0
C4577 C 0.53148 0.01342 0.16064 0.0
C4578 C 0.50599 0.00536 0.16628 0.0
C4579 C 0.52288 0.0214 0.16784 0.0
C4580 C 0.48294 0.01137 0.16103 0.0
C4581 C 0.47513 0.98614 0.16754 0.0
N4582 N 0.51035 0.0174 0.17008 0.0
N4583 N 0.48767 0.99013 0.1697 0.0
H4584 H 0.46517 0.50967 0.37032 0.0
H4585 H 0.5287 0.4858 0.33085 0.0
H4586 H 0.47024 0.5175 0.32903 0.0
H4587 H 0.52468 0.48534 0.373 0.0
H4588 H 0.50687 0.49593 0.32922 0.0
H4589 H 0.48612 0.49834 0.37057 0.0
C4590 C 0.47063 0.50887 0.36124 0.0
C4591 C 0.46598 0.51463 0.34965 0.0
C4592 C 0.51084 0.49364 0.3388 0.0
C4593 C 0.49022 0.5018 0.34991 0.0
C4594 C 0.52331 0.48794 0.33974 0.0
C4595 C 0.52854 0.48472 0.35208 0.0
C4596 C 0.50357 0.49602 0.35027 0.0
C4597 C 0.52109 0.48763 0.36327 0.0
C4598 C 0.48267 0.50246 0.36141 0.0
C4599 C 0.47347 0.51319 0.33818 0.0
N4600 N 0.50901 0.49304 0.36209 0.0
N4601 N 0.48531 0.507 0.33861 0.0
H4602 H 0.53231 0.9879 0.87362 0.0
H4603 H 0.46999 0.01275 0.8328 0.0
H4604 H 0.53044 0.98519 0.83141 0.0
H4605 H 0.47244 0.01135 0.87505 0.0
H4606 H 0.49209 0.00318 0.83154 0.0
H4607 H 0.51068 0.99781 0.87377 0.0
C4608 C 0.52738 0.9895 0.86434 0.0
C4609 C 0.53317 0.98565 0.85248 0.0
C4610 C 0.48772 0.00492 0.84106 0.0
C4611 C 0.50817 0.99689 0.85259 0.0
C4612 C 0.47509 0.01029 0.84179 0.0
C4613 C 0.46937 0.01288 0.85405 0.0
C4614 C 0.49461 0.00218 0.85268 0.0
C4615 C 0.47645 0.00959 0.86538 0.0
C4616 C 0.51496 0.99512 0.86444 0.0
C4617 C 0.52633 0.98804 0.84077 0.0
N4618 N 0.48867 0.00449 0.86441 0.0
N4619 N 0.51411 0.99345 0.84111 0.0
H4620 H 0.65072 0.96335 0.0059 0.0
H4621 H 0.65132 0.03513 0.9941 0.0
H4622 H 0.67167 0.97506 0.9711 0.0
H4623 H 0.66983 0.02329 0.03021 0.0
H4624 H 0.65607 0.01334 0.98485 0.0
H4625 H 0.65495 0.98512 0.01542 0.0
C4626 C 0.6565 0.9704 0.00044 0.0
C4627 C 0.66099 0.96745 0.9878 0.0
C4628 C 0.65939 0.01569 0.99467 0.0
C4629 C 0.6653 0.99231 0.9983 0.0
C4630 C 0.6567 0.02805 -8e-05 0.0
C4631 C 0.66034 0.03096 0.01284 0.0
C4632 C 0.66521 0.00609 0.00262 0.0
C4633 C 0.66706 0.02141 0.02013 0.0
C4634 C 0.6589 0.98275 0.00585 0.0
C4635 C 0.66824 0.97696 0.98097 0.0
N4636 N 0.66895 0.00922 0.01505 0.0
N4637 N 0.66985 0.98915 0.98616 0.0
H4638 H 0.71848 0.37656 0.26162 0.0
H4639 H 0.7784 0.41764 0.23233 0.0
H4640 H 0.72012 0.41878 0.26469 0.0
H4641 H 0.77868 0.37581 0.23896 0.0
H4642 H 0.75686 0.41886 0.24308 0.0
H4643 H 0.73991 0.37665 0.25128 0.0
C4644 C 0.7233 0.38589 0.26 0.0
C4645 C 0.7175 0.39768 0.26409 0.0
C4646 C 0.76173 0.40946 0.24226 0.0
C4647 C 0.74228 0.39784 0.25234 0.0
C4648 C 0.77405 0.40876 0.23621 0.0
C4649 C 0.78033 0.39659 0.23468 0.0
C4650 C 0.75568 0.39789 0.24668 0.0
C4651 C 0.7742 0.38539 0.23983 0.0
C4652 C 0.73562 0.38593 0.25417 0.0
C4653 C 0.72424 0.40947 0.26167 0.0
N4654 N 0.76221 0.38631 0.24549 0.0
N4655 N 0.73633 0.40926 0.25598 0.0
H4656 H 0.37182 0.46586 0.50957 0.0
H4657 H 0.33262 0.53004 0.48679 0.0
H4658 H 0.33053 0.47102 0.51733 0.0
H4659 H 0.3745 0.52466 0.48357 0.0
H4660 H 0.33094 0.50822 0.49697 0.0
H4661 H 0.37214 0.4868 0.49822 0.0
C4662 C 0.36276 0.47135 0.50876 0.0
C4663 C 0.35115 0.46672 0.51448 0.0
C4664 C 0.34048 0.51188 0.49405 0.0
C4665 C 0.35148 0.49095 0.50162 0.0
C4666 C 0.34145 0.52434 0.48832 0.0
C4667 C 0.35372 0.52919 0.48433 0.0
C4668 C 0.35185 0.50426 0.49573 0.0
C4669 C 0.36483 0.52136 0.48647 0.0
C4670 C 0.36296 0.48338 0.50232 0.0
C4671 C 0.33969 0.47424 0.51304 0.0
N4672 N 0.36361 0.50932 0.49196 0.0
N4673 N 0.34016 0.48608 0.50684 0.0
H4674 H 0.22701 0.08282 0.72014 0.0
H4675 H 0.27928 0.07484 0.77739 0.0
H4676 H 0.21933 0.09638 0.75941 0.0
H4677 H 0.28838 0.09556 0.74166 0.0
H4678 H 0.25685 0.07129 0.76931 0.0
H4679 H 0.24912 0.07603 0.72708 0.0
C4680 C 0.22979 0.0838 0.73035 0.0
C4681 C 0.22143 0.09006 0.73928 0.0
C4682 C 0.26394 0.07618 0.76309 0.0
C4683 C 0.24636 0.08225 0.7472 0.0
C4684 C 0.27672 0.07814 0.76762 0.0
C4685 C 0.2856 0.08554 0.76016 0.0
C4686 C 0.26026 0.08132 0.7509 0.0
C4687 C 0.28176 0.08984 0.74768 0.0
C4688 C 0.24237 0.08002 0.73424 0.0
C4689 C 0.22553 0.09149 0.75231 0.0
N4690 N 0.2693 0.08773 0.74345 0.0
N4691 N 0.23778 0.08766 0.7559 0.0
H4692 H 0.92271 0.23119 0.27888 0.0
H4693 H 0.92095 0.26391 0.21755 0.0
H4694 H 0.88204 0.24276 0.28092 0.0
H4695 H 0.87923 0.25755 0.22094 0.0
H4696 H 0.92379 0.25511 0.23975 0.0
H4697 H 0.92397 0.24055 0.25678 0.0
C4698 C 0.91415 0.23598 0.27481 0.0
C4699 C 0.90224 0.23615 0.28174 0.0
C4700 C 0.91406 0.2554 0.23554 0.0
C4701 C 0.90356 0.24682 0.25648 0.0
C4702 C 0.91243 0.26042 0.22285 0.0
C4703 C 0.89983 0.26147 0.21737 0.0
C4704 C 0.90297 0.25145 0.24274 0.0
C4705 C 0.88913 0.25696 0.22473 0.0
C4706 C 0.91486 0.24132 0.26217 0.0
C4707 C 0.89141 0.24234 0.27594 0.0
N4708 N 0.89094 0.25228 0.23704 0.0
N4709 N 0.8923 0.24727 0.26363 0.0
H4710 H 0.67116 0.52909 0.51558 0.0
H4711 H 0.67435 0.46821 0.48163 0.0
H4712 H 0.62988 0.52561 0.5068 0.0
H4713 H 0.63384 0.46533 0.49359 0.0
H4714 H 0.67524 0.49036 0.49102 0.0
H4715 H 0.67459 0.50699 0.50663 0.0
C4716 C 0.66288 0.52381 0.51152 0.0
C4717 C 0.65021 0.5292 0.51197 0.0
C4718 C 0.66627 0.48475 0.49185 0.0
C4719 C 0.65402 0.50397 0.50187 0.0
C4720 C 0.66576 0.47209 0.48652 0.0
C4721 C 0.65398 0.46494 0.48677 0.0
C4722 C 0.65489 0.49021 0.49739 0.0
C4723 C 0.64311 0.4705 0.49308 0.0
C4724 C 0.66485 0.51119 0.50643 0.0
C4725 C 0.63981 0.52187 0.50672 0.0
N4726 N 0.64379 0.48284 0.49796 0.0
N4727 N 0.64194 0.50962 0.50205 0.0
H4728 H 0.72176 0.92125 0.76527 0.0
H4729 H 0.78133 0.8773 0.73972 0.0
H4730 H 0.72057 0.87916 0.76066 0.0
H4731 H 0.78063 0.91925 0.73392 0.0
H4732 H 0.75978 0.87849 0.74975 0.0
H4733 H 0.74364 0.92141 0.75512 0.0
C4734 C 0.72599 0.91209 0.76196 0.0
C4735 C 0.71935 0.90017 0.76387 0.0
C4736 C 0.76432 0.88748 0.74633 0.0
C4737 C 0.74436 0.90026 0.75258 0.0
C4738 C 0.7767 0.88681 0.74068 0.0
C4739 C 0.78278 0.89818 0.73589 0.0
C4740 C 0.75788 0.89961 0.74727 0.0
C4741 C 0.77628 0.91024 0.73748 0.0
C4742 C 0.73849 0.91219 0.75625 0.0
C4743 C 0.72532 0.88858 0.75947 0.0
N4744 N 0.76412 0.91064 0.743 0.0
N4745 N 0.73749 0.88892 0.75414 0.0
H4746 H 0.34816 0.96132 0.99901 0.0
H4747 H 0.3454 0.03333 0.00836 0.0
H4748 H 0.32551 0.97341 0.03258 0.0
H4749 H 0.32749 0.02011 0.97243 0.0
H4750 H 0.34121 0.01163 0.0181 0.0
H4751 H 0.34373 0.98269 0.98868 0.0
C4752 C 0.34196 0.96835 0.00401 0.0
C4753 C 0.33705 0.96563 0.01656 0.0
C4754 C 0.33791 0.01364 0.0082 0.0
C4755 C 0.33251 0.99006 0.00516 0.0
C4756 C 0.34028 0.02595 0.00267 0.0
C4757 C 0.33663 0.02846 0.98967 0.0
C4758 C 0.33239 0.0037 0.00045 0.0
C4759 C 0.33025 0.01854 0.98257 0.0
C4760 C 0.33946 0.98048 0.99816 0.0
C4761 C 0.32928 0.97512 0.0228 0.0
N4762 N 0.32866 0.00642 0.98792 0.0
N4763 N 0.32755 0.98711 0.0172 0.0
H4764 H 0.22129 0.58127 0.23103 0.0
H4765 H 0.27944 0.62463 0.26062 0.0
H4766 H 0.2201 0.6233 0.23612 0.0
H4767 H 0.27828 0.58262 0.26586 0.0
H4768 H 0.2586 0.62362 0.2492 0.0
H4769 H 0.2426 0.58085 0.24234 0.0
C4770 C 0.2254 0.59036 0.23467 0.0
C4771 C 0.21893 0.60235 0.23257 0.0
C4772 C 0.26287 0.61458 0.2528 0.0
C4773 C 0.24329 0.60196 0.2452 0.0
C4774 C 0.27486 0.61514 0.25926 0.0
C4775 C 0.28058 0.6037 0.2643 0.0
C4776 C 0.25647 0.60248 0.25131 0.0
C4777 C 0.27419 0.59168 0.26213 0.0
C4778 C 0.23758 0.59012 0.24105 0.0
C4779 C 0.22473 0.61384 0.23744 0.0
N4780 N 0.26239 0.59137 0.25584 0.0
N4781 N 0.23658 0.61336 0.24341 0.0
H4782 H 0.87831 0.73618 0.77936 0.0
H4783 H 0.92181 0.76355 0.72007 0.0
H4784 H 0.92038 0.73147 0.77842 0.0
H4785 H 0.87957 0.76053 0.71978 0.0
H4786 H 0.9221 0.75277 0.74164 0.0
H4787 H 0.87921 0.74692 0.75813 0.0
C4788 C 0.88779 0.73752 0.77474 0.0
C4789 C 0.89928 0.73285 0.78067 0.0
C4790 C 0.9128 0.7544 0.73677 0.0
C4791 C 0.90037 0.74507 0.75612 0.0
C4792 C 0.91263 0.76048 0.72444 0.0
C4793 C 0.90064 0.76298 0.71812 0.0
C4794 C 0.9009 0.75092 0.7428 0.0
C4795 C 0.88905 0.75886 0.72428 0.0
C4796 C 0.88828 0.74359 0.76254 0.0
C4797 C 0.91127 0.73493 0.77419 0.0
N4798 N 0.88947 0.75313 0.73626 0.0
N4799 N 0.91151 0.74084 0.7622 0.0
loop_
_geom_bond_atom_site_label_1
_geom_bond_atom_site_label_2
_geom_bond_distance
_geom_bond_site_symmetry_2
_ccdc_geom_bond_type
O0 Cd1 2.223 . S
O0 C8 1.315 . S
Cd1 O0 2.223 . S
Cd1 O4 2.297 . S
Cd1 O5 2.439 . S
Cd1 O11 2.240 . S
Cd2 O3 2.240 . S
Cd2 O10 2.223 . S
Cd2 O12 2.297 . S
Cd2 O13 2.439 . S
O3 Cd2 2.240 . S
O3 C8 1.279 . S
O4 Cd1 2.297 . S
O4 C6 1.247 . S
O5 Cd1 2.439 . S
O5 C6 1.208 . S
C6 O4 1.247 . S
C6 O5 1.208 . S
C7 O12 1.247 . S
C7 O13 1.208 . S
C8 O0 1.315 . S
C8 O3 1.279 . S
C9 O10 1.315 . S
C9 O11 1.279 . S
O10 Cd2 2.223 . S
O10 C9 1.315 . S
O11 Cd1 2.240 . S
O11 C9 1.279 . S
O12 Cd2 2.297 . S
O12 C7 1.247 . S
O13 Cd2 2.439 . S
O13 C7 1.208 . S
O14 Cd15 2.223 . S
O14 C22 1.315 . S
Cd15 O14 2.223 . S
Cd15 O18 2.297 . S
Cd15 O19 2.439 . S
Cd15 O25 2.240 . S
Cd16 O17 2.240 . S
Cd16 O24 2.223 . S
Cd16 O26 2.297 . S
Cd16 O27 2.439 . S
O17 Cd16 2.240 . S
O17 C22 1.279 . S
O18 Cd15 2.297 . S
O18 C20 1.247 . S
O19 Cd15 2.439 . S
O19 C20 1.208 . S
C20 O18 1.247 . S
C20 O19 1.208 . S
C21 O26 1.247 . S
C21 O27 1.208 . S
C22 O14 1.315 . S
C22 O17 1.279 . S
C23 O24 1.315 . S
C23 O25 1.279 . S
O24 Cd16 2.223 . S
O24 C23 1.315 . S
O25 Cd15 2.240 . S
O25 C23 1.279 . S
O26 Cd16 2.297 . S
O26 C21 1.247 . S
O27 Cd16 2.439 . S
O27 C21 1.208 . S
O28 Cd29 2.223 . S
O28 C36 1.315 . S
Cd29 O28 2.223 . S
Cd29 O32 2.297 . S
Cd29 O33 2.439 . S
Cd29 O39 2.240 . S
Cd30 O31 2.240 . S
Cd30 O38 2.223 . S
Cd30 O40 2.297 . S
Cd30 O41 2.439 . S
O31 Cd30 2.240 . S
O31 C36 1.279 . S
O32 Cd29 2.297 . S
O32 C34 1.247 . S
O33 Cd29 2.439 . S
O33 C34 1.208 . S
C34 O32 1.247 . S
C34 O33 1.208 . S
C35 O40 1.247 . S
C35 O41 1.208 . S
C36 O28 1.315 . S
C36 O31 1.279 . S
C37 O38 1.315 . S
C37 O39 1.279 . S
O38 Cd30 2.223 . S
O38 C37 1.315 . S
O39 Cd29 2.240 . S
O39 C37 1.279 . S
O40 Cd30 2.297 . S
O40 C35 1.247 . S
O41 Cd30 2.439 . S
O41 C35 1.208 . S
O42 Cd43 2.223 . S
O42 C50 1.315 . S
Cd43 O42 2.223 . S
Cd43 O46 2.297 . S
Cd43 O47 2.439 . S
Cd43 O53 2.240 . S
Cd44 O45 2.240 . S
Cd44 O52 2.223 . S
Cd44 O54 2.297 . S
Cd44 O55 2.439 . S
O45 Cd44 2.240 . S
O45 C50 1.279 . S
O46 Cd43 2.297 . S
O46 C48 1.247 . S
O47 Cd43 2.439 . S
O47 C48 1.208 . S
C48 O46 1.247 . S
C48 O47 1.208 . S
C49 O54 1.247 . S
C49 O55 1.208 . S
C50 O42 1.315 . S
C50 O45 1.279 . S
C51 O52 1.315 . S
C51 O53 1.279 . S
O52 Cd44 2.223 . S
O52 C51 1.315 . S
O53 Cd43 2.240 . S
O53 C51 1.279 . S
O54 Cd44 2.297 . S
O54 C49 1.247 . S
O55 Cd44 2.439 . S
O55 C49 1.208 . S
O56 Cd57 2.223 . S
O56 C64 1.315 . S
Cd57 O56 2.223 . S
Cd57 O60 2.297 . S
Cd57 O61 2.439 . S
Cd57 O67 2.240 . S
Cd58 O59 2.240 . S
Cd58 O66 2.223 . S
Cd58 O68 2.297 . S
Cd58 O69 2.439 . S
O59 Cd58 2.240 . S
O59 C64 1.279 . S
O60 Cd57 2.297 . S
O60 C62 1.247 . S
O61 Cd57 2.439 . S
O61 C62 1.208 . S
C62 O60 1.247 . S
C62 O61 1.208 . S
C63 O68 1.247 . S
C63 O69 1.208 . S
C64 O56 1.315 . S
C64 O59 1.279 . S
C65 O66 1.315 . S
C65 O67 1.279 . S
O66 Cd58 2.223 . S
O66 C65 1.315 . S
O67 Cd57 2.240 . S
O67 C65 1.279 . S
O68 Cd58 2.297 . S
O68 C63 1.247 . S
O69 Cd58 2.439 . S
O69 C63 1.208 . S
O70 Cd71 2.223 . S
O70 C78 1.315 . S
Cd71 O70 2.223 . S
Cd71 O74 2.297 . S
Cd71 O75 2.439 . S
Cd71 O81 2.240 . S
Cd72 O73 2.240 . S
Cd72 O80 2.223 . S
Cd72 O82 2.297 . S
Cd72 O83 2.439 . S
O73 Cd72 2.240 . S
O73 C78 1.279 . S
O74 Cd71 2.297 . S
O74 C76 1.247 . S
O75 Cd71 2.439 . S
O75 C76 1.208 . S
C76 O74 1.247 . S
C76 O75 1.208 . S
C77 O82 1.247 . S
C77 O83 1.208 . S
C78 O70 1.315 . S
C78 O73 1.279 . S
C79 O80 1.315 . S
C79 O81 1.279 . S
O80 Cd72 2.223 . S
O80 C79 1.315 . S
O81 Cd71 2.240 . S
O81 C79 1.279 . S
O82 Cd72 2.297 . S
O82 C77 1.247 . S
O83 Cd72 2.439 . S
O83 C77 1.208 . S
O84 Cd85 2.223 . S
O84 C92 1.315 . S
Cd85 O84 2.223 . S
Cd85 O88 2.297 . S
Cd85 O89 2.439 . S
Cd85 O95 2.240 . S
Cd86 O87 2.240 . S
Cd86 O94 2.223 . S
Cd86 O96 2.297 . S
Cd86 O97 2.439 . S
O87 Cd86 2.240 . S
O87 C92 1.279 . S
O88 Cd85 2.297 . S
O88 C90 1.247 . S
O89 Cd85 2.439 . S
O89 C90 1.208 . S
C90 O88 1.247 . S
C90 O89 1.208 . S
C91 O96 1.247 . S
C91 O97 1.208 . S
C92 O84 1.315 . S
C92 O87 1.279 . S
C93 O94 1.315 . S
C93 O95 1.279 . S
O94 Cd86 2.223 . S
O94 C93 1.315 . S
O95 Cd85 2.240 . S
O95 C93 1.279 . S
O96 Cd86 2.297 . S
O96 C91 1.247 . S
O97 Cd86 2.439 . S
O97 C91 1.208 . S
O98 Cd99 2.223 . S
O98 C106 1.315 . S
Cd99 O98 2.223 . S
Cd99 O102 2.297 . S
Cd99 O103 2.439 . S
Cd99 O109 2.240 . S
Cd100 O101 2.240 . S
Cd100 O108 2.223 . S
Cd100 O110 2.297 . S
Cd100 O111 2.439 . S
O101 Cd100 2.240 . S
O101 C106 1.279 . S
O102 Cd99 2.297 . S
O102 C104 1.247 . S
O103 Cd99 2.439 . S
O103 C104 1.208 . S
C104 O102 1.247 . S
C104 O103 1.208 . S
C105 O110 1.247 . S
C105 O111 1.208 . S
C106 O98 1.315 . S
C106 O101 1.279 . S
C107 O108 1.315 . S
C107 O109 1.279 . S
O108 Cd100 2.223 . S
O108 C107 1.315 . S
O109 Cd99 2.240 . S
O109 C107 1.279 . S
O110 Cd100 2.297 . S
O110 C105 1.247 . S
O111 Cd100 2.439 . S
O111 C105 1.208 . S
O112 Cd113 2.223 . S
O112 C120 1.315 . S
Cd113 O112 2.223 . S
Cd113 O116 2.297 . S
Cd113 O117 2.439 . S
Cd113 O123 2.240 . S
Cd114 O115 2.240 . S
Cd114 O122 2.223 . S
Cd114 O124 2.297 . S
Cd114 O125 2.439 . S
O115 Cd114 2.240 . S
O115 C120 1.279 . S
O116 Cd113 2.297 . S
O116 C118 1.247 . S
O117 Cd113 2.439 . S
O117 C118 1.208 . S
C118 O116 1.247 . S
C118 O117 1.208 . S
C119 O124 1.247 . S
C119 O125 1.208 . S
C120 O112 1.315 . S
C120 O115 1.279 . S
C121 O122 1.315 . S
C121 O123 1.279 . S
O122 Cd114 2.223 . S
O122 C121 1.315 . S
O123 Cd113 2.240 . S
O123 C121 1.279 . S
O124 Cd114 2.297 . S
O124 C119 1.247 . S
O125 Cd114 2.439 . S
O125 C119 1.208 . S
O126 Cd127 2.223 . S
O126 C134 1.315 . S
Cd127 O126 2.223 . S
Cd127 O130 2.297 . S
Cd127 O131 2.439 . S
Cd127 O137 2.240 . S
Cd128 O129 2.240 . S
Cd128 O136 2.223 . S
Cd128 O138 2.297 . S
Cd128 O139 2.439 . S
O129 Cd128 2.240 . S
O129 C134 1.279 . S
O130 Cd127 2.297 . S
O130 C132 1.247 . S
O131 Cd127 2.439 . S
O131 C132 1.208 . S
C132 O130 1.247 . S
C132 O131 1.208 . S
C133 O138 1.247 . S
C133 O139 1.208 . S
C134 O126 1.315 . S
C134 O129 1.279 . S
C135 O136 1.315 . S
C135 O137 1.279 . S
O136 Cd128 2.223 . S
O136 C135 1.315 . S
O137 Cd127 2.240 . S
O137 C135 1.279 . S
O138 Cd128 2.297 . S
O138 C133 1.247 . S
O139 Cd128 2.439 . S
O139 C133 1.208 . S
O140 Cd141 2.223 . S
O140 C148 1.315 . S
Cd141 O140 2.223 . S
Cd141 O144 2.297 . S
Cd141 O145 2.439 . S
Cd141 O151 2.240 . S
Cd142 O143 2.240 . S
Cd142 O150 2.223 . S
Cd142 O152 2.297 . S
Cd142 O153 2.439 . S
O143 Cd142 2.240 . S
O143 C148 1.279 . S
O144 Cd141 2.297 . S
O144 C146 1.247 . S
O145 Cd141 2.439 . S
O145 C146 1.208 . S
C146 O144 1.247 . S
C146 O145 1.208 . S
C147 O152 1.247 . S
C147 O153 1.208 . S
C148 O140 1.315 . S
C148 O143 1.279 . S
C149 O150 1.315 . S
C149 O151 1.279 . S
O150 Cd142 2.223 . S
O150 C149 1.315 . S
O151 Cd141 2.240 . S
O151 C149 1.279 . S
O152 Cd142 2.297 . S
O152 C147 1.247 . S
O153 Cd142 2.439 . S
O153 C147 1.208 . S
O154 Cd155 2.223 . S
O154 C162 1.315 . S
Cd155 O154 2.223 . S
Cd155 O158 2.297 . S
Cd155 O159 2.439 . S
Cd155 O165 2.240 . S
Cd156 O157 2.240 . S
Cd156 O164 2.223 . S
Cd156 O166 2.297 . S
Cd156 O167 2.439 . S
O157 Cd156 2.240 . S
O157 C162 1.279 . S
O158 Cd155 2.297 . S
O158 C160 1.247 . S
O159 Cd155 2.439 . S
O159 C160 1.208 . S
C160 O158 1.247 . S
C160 O159 1.208 . S
C161 O166 1.247 . S
C161 O167 1.208 . S
C162 O154 1.315 . S
C162 O157 1.279 . S
C163 O164 1.315 . S
C163 O165 1.279 . S
O164 Cd156 2.223 . S
O164 C163 1.315 . S
O165 Cd155 2.240 . S
O165 C163 1.279 . S
O166 Cd156 2.297 . S
O166 C161 1.247 . S
O167 Cd156 2.439 . S
O167 C161 1.208 . S
O168 Cd169 2.223 . S
O168 C176 1.315 . S
Cd169 O168 2.223 . S
Cd169 O172 2.297 . S
Cd169 O173 2.439 . S
Cd169 O179 2.240 . S
Cd170 O171 2.240 . S
Cd170 O178 2.223 . S
Cd170 O180 2.297 . S
Cd170 O181 2.439 . S
O171 Cd170 2.240 . S
O171 C176 1.279 . S
O172 Cd169 2.297 . S
O172 C174 1.247 . S
O173 Cd169 2.439 . S
O173 C174 1.208 . S
C174 O172 1.247 . S
C174 O173 1.208 . S
C175 O180 1.247 . S
C175 O181 1.208 . S
C176 O168 1.315 . S
C176 O171 1.279 . S
C177 O178 1.315 . S
C177 O179 1.279 . S
O178 Cd170 2.223 . S
O178 C177 1.315 . S
O179 Cd169 2.240 . S
O179 C177 1.279 . S
O180 Cd170 2.297 . S
O180 C175 1.247 . S
O181 Cd170 2.439 . S
O181 C175 1.208 . S
O182 Cd183 2.223 . S
O182 C190 1.315 . S
Cd183 O182 2.223 . S
Cd183 O186 2.297 . S
Cd183 O187 2.439 . S
Cd183 O193 2.240 . S
Cd184 O185 2.240 . S
Cd184 O192 2.223 . S
Cd184 O194 2.297 . S
Cd184 O195 2.439 . S
O185 Cd184 2.240 . S
O185 C190 1.279 . S
O186 Cd183 2.297 . S
O186 C188 1.247 . S
O187 Cd183 2.439 . S
O187 C188 1.208 . S
C188 O186 1.247 . S
C188 O187 1.208 . S
C189 O194 1.247 . S
C189 O195 1.208 . S
C190 O182 1.315 . S
C190 O185 1.279 . S
C191 O192 1.315 . S
C191 O193 1.279 . S
O192 Cd184 2.223 . S
O192 C191 1.315 . S
O193 Cd183 2.240 . S
O193 C191 1.279 . S
O194 Cd184 2.297 . S
O194 C189 1.247 . S
O195 Cd184 2.439 . S
O195 C189 1.208 . S
O196 Cd197 2.223 . S
O196 C204 1.315 . S
Cd197 O196 2.223 . S
Cd197 O200 2.297 . S
Cd197 O201 2.439 . S
Cd197 O207 2.240 . S
Cd198 O199 2.240 . S
Cd198 O206 2.223 . S
Cd198 O208 2.297 . S
Cd198 O209 2.439 . S
O199 Cd198 2.240 . S
O199 C204 1.279 . S
O200 Cd197 2.297 . S
O200 C202 1.247 . S
O201 Cd197 2.439 . S
O201 C202 1.208 . S
C202 O200 1.247 . S
C202 O201 1.208 . S
C203 O208 1.247 . S
C203 O209 1.208 . S
C204 O196 1.315 . S
C204 O199 1.279 . S
C205 O206 1.315 . S
C205 O207 1.279 . S
O206 Cd198 2.223 . S
O206 C205 1.315 . S
O207 Cd197 2.240 . S
O207 C205 1.279 . S
O208 Cd198 2.297 . S
O208 C203 1.247 . S
O209 Cd198 2.439 . S
O209 C203 1.208 . S
O210 Cd211 2.223 . S
O210 C218 1.315 . S
Cd211 O210 2.223 . S
Cd211 O214 2.297 . S
Cd211 O215 2.439 . S
Cd211 O221 2.240 . S
Cd212 O213 2.240 . S
Cd212 O220 2.223 . S
Cd212 O222 2.297 . S
Cd212 O223 2.439 . S
O213 Cd212 2.240 . S
O213 C218 1.279 . S
O214 Cd211 2.297 . S
O214 C216 1.247 . S
O215 Cd211 2.439 . S
O215 C216 1.208 . S
C216 O214 1.247 . S
C216 O215 1.208 . S
C217 O222 1.247 . S
C217 O223 1.208 . S
C218 O210 1.315 . S
C218 O213 1.279 . S
C219 O220 1.315 . S
C219 O221 1.279 . S
O220 Cd212 2.223 . S
O220 C219 1.315 . S
O221 Cd211 2.240 . S
O221 C219 1.279 . S
O222 Cd212 2.297 . S
O222 C217 1.247 . S
O223 Cd212 2.439 . S
O223 C217 1.208 . S
O224 Cd225 2.223 . S
O224 C232 1.315 . S
Cd225 O224 2.223 . S
Cd225 O228 2.297 . S
Cd225 O229 2.439 . S
Cd225 O235 2.240 . S
Cd226 O227 2.240 . S
Cd226 O234 2.223 . S
Cd226 O236 2.297 . S
Cd226 O237 2.439 . S
O227 Cd226 2.240 . S
O227 C232 1.279 . S
O228 Cd225 2.297 . S
O228 C230 1.247 . S
O229 Cd225 2.439 . S
O229 C230 1.208 . S
C230 O228 1.247 . S
C230 O229 1.208 . S
C231 O236 1.247 . S
C231 O237 1.208 . S
C232 O224 1.315 . S
C232 O227 1.279 . S
C233 O234 1.315 . S
C233 O235 1.279 . S
O234 Cd226 2.223 . S
O234 C233 1.315 . S
O235 Cd225 2.240 . S
O235 C233 1.279 . S
O236 Cd226 2.297 . S
O236 C231 1.247 . S
O237 Cd226 2.439 . S
O237 C231 1.208 . S
O238 Cd239 2.223 . S
O238 C246 1.315 . S
Cd239 O238 2.223 . S
Cd239 O242 2.297 . S
Cd239 O243 2.439 . S
Cd239 O249 2.240 . S
Cd240 O241 2.240 . S
Cd240 O248 2.223 . S
Cd240 O250 2.297 . S
Cd240 O251 2.439 . S
O241 Cd240 2.240 . S
O241 C246 1.279 . S
O242 Cd239 2.297 . S
O242 C244 1.247 . S
O243 Cd239 2.439 . S
O243 C244 1.208 . S
C244 O242 1.247 . S
C244 O243 1.208 . S
C245 O250 1.247 . S
C245 O251 1.208 . S
C246 O238 1.315 . S
C246 O241 1.279 . S
C247 O248 1.315 . S
C247 O249 1.279 . S
O248 Cd240 2.223 . S
O248 C247 1.315 . S
O249 Cd239 2.240 . S
O249 C247 1.279 . S
O250 Cd240 2.297 . S
O250 C245 1.247 . S
O251 Cd240 2.439 . S
O251 C245 1.208 . S
O252 Cd253 2.223 . S
O252 C260 1.315 . S
Cd253 O252 2.223 . S
Cd253 O256 2.297 . S
Cd253 O257 2.439 . S
Cd253 O263 2.240 . S
Cd254 O255 2.240 . S
Cd254 O262 2.223 . S
Cd254 O264 2.297 . S
Cd254 O265 2.439 . S
O255 Cd254 2.240 . S
O255 C260 1.279 . S
O256 Cd253 2.297 . S
O256 C258 1.247 . S
O257 Cd253 2.439 . S
O257 C258 1.208 . S
C258 O256 1.247 . S
C258 O257 1.208 . S
C259 O264 1.247 . S
C259 O265 1.208 . S
C260 O252 1.315 . S
C260 O255 1.279 . S
C261 O262 1.315 . S
C261 O263 1.279 . S
O262 Cd254 2.223 . S
O262 C261 1.315 . S
O263 Cd253 2.240 . S
O263 C261 1.279 . S
O264 Cd254 2.297 . S
O264 C259 1.247 . S
O265 Cd254 2.439 . S
O265 C259 1.208 . S
O266 Cd267 2.223 . S
O266 C274 1.315 . S
Cd267 O266 2.223 . S
Cd267 O270 2.297 . S
Cd267 O271 2.439 . S
Cd267 O277 2.240 . S
Cd268 O269 2.240 . S
Cd268 O276 2.223 . S
Cd268 O278 2.297 . S
Cd268 O279 2.439 . S
O269 Cd268 2.240 . S
O269 C274 1.279 . S
O270 Cd267 2.297 . S
O270 C272 1.247 . S
O271 Cd267 2.439 . S
O271 C272 1.208 . S
C272 O270 1.247 . S
C272 O271 1.208 . S
C273 O278 1.247 . S
C273 O279 1.208 . S
C274 O266 1.315 . S
C274 O269 1.279 . S
C275 O276 1.315 . S
C275 O277 1.279 . S
O276 Cd268 2.223 . S
O276 C275 1.315 . S
O277 Cd267 2.240 . S
O277 C275 1.279 . S
O278 Cd268 2.297 . S
O278 C273 1.247 . S
O279 Cd268 2.439 . S
O279 C273 1.208 . S
O280 Cd281 2.223 . S
O280 C288 1.315 . S
Cd281 O280 2.223 . S
Cd281 O284 2.297 . S
Cd281 O285 2.439 . S
Cd281 O291 2.240 . S
Cd282 O283 2.240 . S
Cd282 O290 2.223 . S
Cd282 O292 2.297 . S
Cd282 O293 2.439 . S
O283 Cd282 2.240 . S
O283 C288 1.279 . S
O284 Cd281 2.297 . S
O284 C286 1.247 . S
O285 Cd281 2.439 . S
O285 C286 1.208 . S
C286 O284 1.247 . S
C286 O285 1.208 . S
C287 O292 1.247 . S
C287 O293 1.208 . S
C288 O280 1.315 . S
C288 O283 1.279 . S
C289 O290 1.315 . S
C289 O291 1.279 . S
O290 Cd282 2.223 . S
O290 C289 1.315 . S
O291 Cd281 2.240 . S
O291 C289 1.279 . S
O292 Cd282 2.297 . S
O292 C287 1.247 . S
O293 Cd282 2.439 . S
O293 C287 1.208 . S
O294 Cd295 2.223 . S
O294 C302 1.315 . S
Cd295 O294 2.223 . S
Cd295 O298 2.297 . S
Cd295 O299 2.439 . S
Cd295 O305 2.240 . S
Cd296 O297 2.240 . S
Cd296 O304 2.223 . S
Cd296 O306 2.297 . S
Cd296 O307 2.439 . S
O297 Cd296 2.240 . S
O297 C302 1.279 . S
O298 Cd295 2.297 . S
O298 C300 1.247 . S
O299 Cd295 2.439 . S
O299 C300 1.208 . S
C300 O298 1.247 . S
C300 O299 1.208 . S
C301 O306 1.247 . S
C301 O307 1.208 . S
C302 O294 1.315 . S
C302 O297 1.279 . S
C303 O304 1.315 . S
C303 O305 1.279 . S
O304 Cd296 2.223 . S
O304 C303 1.315 . S
O305 Cd295 2.240 . S
O305 C303 1.279 . S
O306 Cd296 2.297 . S
O306 C301 1.247 . S
O307 Cd296 2.439 . S
O307 C301 1.208 . S
O308 Cd309 2.223 . S
O308 C316 1.315 . S
Cd309 O308 2.223 . S
Cd309 O312 2.297 . S
Cd309 O313 2.439 . S
Cd309 O319 2.240 . S
Cd310 O311 2.240 . S
Cd310 O318 2.223 . S
Cd310 O320 2.297 . S
Cd310 O321 2.439 . S
O311 Cd310 2.240 . S
O311 C316 1.279 . S
O312 Cd309 2.297 . S
O312 C314 1.247 . S
O313 Cd309 2.439 . S
O313 C314 1.208 . S
C314 O312 1.247 . S
C314 O313 1.208 . S
C315 O320 1.247 . S
C315 O321 1.208 . S
C316 O308 1.315 . S
C316 O311 1.279 . S
C317 O318 1.315 . S
C317 O319 1.279 . S
O318 Cd310 2.223 . S
O318 C317 1.315 . S
O319 Cd309 2.240 . S
O319 C317 1.279 . S
O320 Cd310 2.297 . S
O320 C315 1.247 . S
O321 Cd310 2.439 . S
O321 C315 1.208 . S
O322 Cd323 2.223 . S
O322 C330 1.315 . S
Cd323 O322 2.223 . S
Cd323 O326 2.297 . S
Cd323 O327 2.439 . S
Cd323 O333 2.240 . S
Cd324 O325 2.240 . S
Cd324 O332 2.223 . S
Cd324 O334 2.297 . S
Cd324 O335 2.439 . S
O325 Cd324 2.240 . S
O325 C330 1.279 . S
O326 Cd323 2.297 . S
O326 C328 1.247 . S
O327 Cd323 2.439 . S
O327 C328 1.208 . S
C328 O326 1.247 . S
C328 O327 1.208 . S
C329 O334 1.247 . S
C329 O335 1.208 . S
C330 O322 1.315 . S
C330 O325 1.279 . S
C331 O332 1.315 . S
C331 O333 1.279 . S
O332 Cd324 2.223 . S
O332 C331 1.315 . S
O333 Cd323 2.240 . S
O333 C331 1.279 . S
O334 Cd324 2.297 . S
O334 C329 1.247 . S
O335 Cd324 2.439 . S
O335 C329 1.208 . S
O336 Cd337 2.223 . S
O336 C344 1.315 . S
Cd337 O336 2.223 . S
Cd337 O340 2.297 . S
Cd337 O341 2.439 . S
Cd337 O347 2.240 . S
Cd338 O339 2.240 . S
Cd338 O346 2.223 . S
Cd338 O348 2.297 . S
Cd338 O349 2.439 . S
O339 Cd338 2.240 . S
O339 C344 1.279 . S
O340 Cd337 2.297 . S
O340 C342 1.247 . S
O341 Cd337 2.439 . S
O341 C342 1.208 . S
C342 O340 1.247 . S
C342 O341 1.208 . S
C343 O348 1.247 . S
C343 O349 1.208 . S
C344 O336 1.315 . S
C344 O339 1.279 . S
C345 O346 1.315 . S
C345 O347 1.279 . S
O346 Cd338 2.223 . S
O346 C345 1.315 . S
O347 Cd337 2.240 . S
O347 C345 1.279 . S
O348 Cd338 2.297 . S
O348 C343 1.247 . S
O349 Cd338 2.439 . S
O349 C343 1.208 . S
O350 Cd351 2.223 . S
O350 C358 1.315 . S
Cd351 O350 2.223 . S
Cd351 O354 2.297 . S
Cd351 O355 2.439 . S
Cd351 O361 2.240 . S
Cd352 O353 2.240 . S
Cd352 O360 2.223 . S
Cd352 O362 2.297 . S
Cd352 O363 2.439 . S
O353 Cd352 2.240 . S
O353 C358 1.279 . S
O354 Cd351 2.297 . S
O354 C356 1.247 . S
O355 Cd351 2.439 . S
O355 C356 1.208 . S
C356 O354 1.247 . S
C356 O355 1.208 . S
C357 O362 1.247 . S
C357 O363 1.208 . S
C358 O350 1.315 . S
C358 O353 1.279 . S
C359 O360 1.315 . S
C359 O361 1.279 . S
O360 Cd352 2.223 . S
O360 C359 1.315 . S
O361 Cd351 2.240 . S
O361 C359 1.279 . S
O362 Cd352 2.297 . S
O362 C357 1.247 . S
O363 Cd352 2.439 . S
O363 C357 1.208 . S
O364 Cd365 2.223 . S
O364 C372 1.315 . S
Cd365 O364 2.223 . S
Cd365 O368 2.297 . S
Cd365 O369 2.439 . S
Cd365 O375 2.240 . S
Cd366 O367 2.240 . S
Cd366 O374 2.223 . S
Cd366 O376 2.297 . S
Cd366 O377 2.439 . S
O367 Cd366 2.240 . S
O367 C372 1.279 . S
O368 Cd365 2.297 . S
O368 C370 1.247 . S
O369 Cd365 2.439 . S
O369 C370 1.208 . S
C370 O368 1.247 . S
C370 O369 1.208 . S
C371 O376 1.247 . S
C371 O377 1.208 . S
C372 O364 1.315 . S
C372 O367 1.279 . S
C373 O374 1.315 . S
C373 O375 1.279 . S
O374 Cd366 2.223 . S
O374 C373 1.315 . S
O375 Cd365 2.240 . S
O375 C373 1.279 . S
O376 Cd366 2.297 . S
O376 C371 1.247 . S
O377 Cd366 2.439 . S
O377 C371 1.208 . S
O378 Cd379 2.223 . S
O378 C386 1.315 . S
Cd379 O378 2.223 . S
Cd379 O382 2.297 . S
Cd379 O383 2.439 . S
Cd379 O389 2.240 . S
Cd380 O381 2.240 . S
Cd380 O388 2.223 . S
Cd380 O390 2.297 . S
Cd380 O391 2.439 . S
O381 Cd380 2.240 . S
O381 C386 1.279 . S
O382 Cd379 2.297 . S
O382 C384 1.247 . S
O383 Cd379 2.439 . S
O383 C384 1.208 . S
C384 O382 1.247 . S
C384 O383 1.208 . S
C385 O390 1.247 . S
C385 O391 1.208 . S
C386 O378 1.315 . S
C386 O381 1.279 . S
C387 O388 1.315 . S
C387 O389 1.279 . S
O388 Cd380 2.223 . S
O388 C387 1.315 . S
O389 Cd379 2.240 . S
O389 C387 1.279 . S
O390 Cd380 2.297 . S
O390 C385 1.247 . S
O391 Cd380 2.439 . S
O391 C385 1.208 . S
O392 Cd393 2.223 . S
O392 C400 1.315 . S
Cd393 O392 2.223 . S
Cd393 O396 2.297 . S
Cd393 O397 2.439 . S
Cd393 O403 2.240 . S
Cd394 O395 2.240 . S
Cd394 O402 2.223 . S
Cd394 O404 2.297 . S
Cd394 O405 2.439 . S
O395 Cd394 2.240 . S
O395 C400 1.279 . S
O396 Cd393 2.297 . S
O396 C398 1.247 . S
O397 Cd393 2.439 . S
O397 C398 1.208 . S
C398 O396 1.247 . S
C398 O397 1.208 . S
C399 O404 1.247 . S
C399 O405 1.208 . S
C400 O392 1.315 . S
C400 O395 1.279 . S
C401 O402 1.315 . S
C401 O403 1.279 . S
O402 Cd394 2.223 . S
O402 C401 1.315 . S
O403 Cd393 2.240 . S
O403 C401 1.279 . S
O404 Cd394 2.297 . S
O404 C399 1.247 . S
O405 Cd394 2.439 . S
O405 C399 1.208 . S
O406 Cd407 2.223 . S
O406 C414 1.315 . S
Cd407 O406 2.223 . S
Cd407 O410 2.297 . S
Cd407 O411 2.439 . S
Cd407 O417 2.240 . S
Cd408 O409 2.240 . S
Cd408 O416 2.223 . S
Cd408 O418 2.297 . S
Cd408 O419 2.439 . S
O409 Cd408 2.240 . S
O409 C414 1.279 . S
O410 Cd407 2.297 . S
O410 C412 1.247 . S
O411 Cd407 2.439 . S
O411 C412 1.208 . S
C412 O410 1.247 . S
C412 O411 1.208 . S
C413 O418 1.247 . S
C413 O419 1.208 . S
C414 O406 1.315 . S
C414 O409 1.279 . S
C415 O416 1.315 . S
C415 O417 1.279 . S
O416 Cd408 2.223 . S
O416 C415 1.315 . S
O417 Cd407 2.240 . S
O417 C415 1.279 . S
O418 Cd408 2.297 . S
O418 C413 1.247 . S
O419 Cd408 2.439 . S
O419 C413 1.208 . S
O420 Cd421 2.223 . S
O420 C428 1.315 . S
Cd421 O420 2.223 . S
Cd421 O424 2.297 . S
Cd421 O425 2.439 . S
Cd421 O431 2.240 . S
Cd422 O423 2.240 . S
Cd422 O430 2.223 . S
Cd422 O432 2.297 . S
Cd422 O433 2.439 . S
O423 Cd422 2.240 . S
O423 C428 1.279 . S
O424 Cd421 2.297 . S
O424 C426 1.247 . S
O425 Cd421 2.439 . S
O425 C426 1.208 . S
C426 O424 1.247 . S
C426 O425 1.208 . S
C427 O432 1.247 . S
C427 O433 1.208 . S
C428 O420 1.315 . S
C428 O423 1.279 . S
C429 O430 1.315 . S
C429 O431 1.279 . S
O430 Cd422 2.223 . S
O430 C429 1.315 . S
O431 Cd421 2.240 . S
O431 C429 1.279 . S
O432 Cd422 2.297 . S
O432 C427 1.247 . S
O433 Cd422 2.439 . S
O433 C427 1.208 . S
O434 Cd435 2.223 . S
O434 C442 1.315 . S
Cd435 O434 2.223 . S
Cd435 O438 2.297 . S
Cd435 O439 2.439 . S
Cd435 O445 2.240 . S
Cd436 O437 2.240 . S
Cd436 O444 2.223 . S
Cd436 O446 2.297 . S
Cd436 O447 2.439 . S
O437 Cd436 2.240 . S
O437 C442 1.279 . S
O438 Cd435 2.297 . S
O438 C440 1.247 . S
O439 Cd435 2.439 . S
O439 C440 1.208 . S
C440 O438 1.247 . S
C440 O439 1.208 . S
C441 O446 1.247 . S
C441 O447 1.208 . S
C442 O434 1.315 . S
C442 O437 1.279 . S
C443 O444 1.315 . S
C443 O445 1.279 . S
O444 Cd436 2.223 . S
O444 C443 1.315 . S
O445 Cd435 2.240 . S
O445 C443 1.279 . S
O446 Cd436 2.297 . S
O446 C441 1.247 . S
O447 Cd436 2.439 . S
O447 C441 1.208 . S
O448 Cd449 2.223 . S
O448 C456 1.315 . S
Cd449 O448 2.223 . S
Cd449 O452 2.297 . S
Cd449 O453 2.439 . S
Cd449 O459 2.240 . S
Cd450 O451 2.240 . S
Cd450 O458 2.223 . S
Cd450 O460 2.297 . S
Cd450 O461 2.439 . S
O451 Cd450 2.240 . S
O451 C456 1.279 . S
O452 Cd449 2.297 . S
O452 C454 1.247 . S
O453 Cd449 2.439 . S
O453 C454 1.208 . S
C454 O452 1.247 . S
C454 O453 1.208 . S
C455 O460 1.247 . S
C455 O461 1.208 . S
C456 O448 1.315 . S
C456 O451 1.279 . S
C457 O458 1.315 . S
C457 O459 1.279 . S
O458 Cd450 2.223 . S
O458 C457 1.315 . S
O459 Cd449 2.240 . S
O459 C457 1.279 . S
O460 Cd450 2.297 . S
O460 C455 1.247 . S
O461 Cd450 2.439 . S
O461 C455 1.208 . S
O462 Cd463 2.223 . S
O462 C470 1.315 . S
Cd463 O462 2.223 . S
Cd463 O466 2.297 . S
Cd463 O467 2.439 . S
Cd463 O473 2.240 . S
Cd464 O465 2.240 . S
Cd464 O472 2.223 . S
Cd464 O474 2.297 . S
Cd464 O475 2.439 . S
O465 Cd464 2.240 . S
O465 C470 1.279 . S
O466 Cd463 2.297 . S
O466 C468 1.247 . S
O467 Cd463 2.439 . S
O467 C468 1.208 . S
C468 O466 1.247 . S
C468 O467 1.208 . S
C469 O474 1.247 . S
C469 O475 1.208 . S
C470 O462 1.315 . S
C470 O465 1.279 . S
C471 O472 1.315 . S
C471 O473 1.279 . S
O472 Cd464 2.223 . S
O472 C471 1.315 . S
O473 Cd463 2.240 . S
O473 C471 1.279 . S
O474 Cd464 2.297 . S
O474 C469 1.247 . S
O475 Cd464 2.439 . S
O475 C469 1.208 . S
O476 Cd477 2.223 . S
O476 C484 1.315 . S
Cd477 O476 2.223 . S
Cd477 O480 2.297 . S
Cd477 O481 2.439 . S
Cd477 O487 2.240 . S
Cd478 O479 2.240 . S
Cd478 O486 2.223 . S
Cd478 O488 2.297 . S
Cd478 O489 2.439 . S
O479 Cd478 2.240 . S
O479 C484 1.279 . S
O480 Cd477 2.297 . S
O480 C482 1.247 . S
O481 Cd477 2.439 . S
O481 C482 1.208 . S
C482 O480 1.247 . S
C482 O481 1.208 . S
C483 O488 1.247 . S
C483 O489 1.208 . S
C484 O476 1.315 . S
C484 O479 1.279 . S
C485 O486 1.315 . S
C485 O487 1.279 . S
O486 Cd478 2.223 . S
O486 C485 1.315 . S
O487 Cd477 2.240 . S
O487 C485 1.279 . S
O488 Cd478 2.297 . S
O488 C483 1.247 . S
O489 Cd478 2.439 . S
O489 C483 1.208 . S
O490 Cd491 2.223 . S
O490 C498 1.315 . S
Cd491 O490 2.223 . S
Cd491 O494 2.297 . S
Cd491 O495 2.439 . S
Cd491 O501 2.240 . S
Cd492 O493 2.240 . S
Cd492 O500 2.223 . S
Cd492 O502 2.297 . S
Cd492 O503 2.439 . S
O493 Cd492 2.240 . S
O493 C498 1.279 . S
O494 Cd491 2.297 . S
O494 C496 1.247 . S
O495 Cd491 2.439 . S
O495 C496 1.208 . S
C496 O494 1.247 . S
C496 O495 1.208 . S
C497 O502 1.247 . S
C497 O503 1.208 . S
C498 O490 1.315 . S
C498 O493 1.279 . S
C499 O500 1.315 . S
C499 O501 1.279 . S
O500 Cd492 2.223 . S
O500 C499 1.315 . S
O501 Cd491 2.240 . S
O501 C499 1.279 . S
O502 Cd492 2.297 . S
O502 C497 1.247 . S
O503 Cd492 2.439 . S
O503 C497 1.208 . S
O504 Cd505 2.223 . S
O504 C512 1.315 . S
Cd505 O504 2.223 . S
Cd505 O508 2.297 . S
Cd505 O509 2.439 . S
Cd505 O515 2.240 . S
Cd506 O507 2.240 . S
Cd506 O514 2.223 . S
Cd506 O516 2.297 . S
Cd506 O517 2.439 . S
O507 Cd506 2.240 . S
O507 C512 1.279 . S
O508 Cd505 2.297 . S
O508 C510 1.247 . S
O509 Cd505 2.439 . S
O509 C510 1.208 . S
C510 O508 1.247 . S
C510 O509 1.208 . S
C511 O516 1.247 . S
C511 O517 1.208 . S
C512 O504 1.315 . S
C512 O507 1.279 . S
C513 O514 1.315 . S
C513 O515 1.279 . S
O514 Cd506 2.223 . S
O514 C513 1.315 . S
O515 Cd505 2.240 . S
O515 C513 1.279 . S
O516 Cd506 2.297 . S
O516 C511 1.247 . S
O517 Cd506 2.439 . S
O517 C511 1.208 . S
O518 Cd519 2.223 . S
O518 C526 1.315 . S
Cd519 O518 2.223 . S
Cd519 O522 2.297 . S
Cd519 O523 2.439 . S
Cd519 O529 2.240 . S
Cd520 O521 2.240 . S
Cd520 O528 2.223 . S
Cd520 O530 2.297 . S
Cd520 O531 2.439 . S
O521 Cd520 2.240 . S
O521 C526 1.279 . S
O522 Cd519 2.297 . S
O522 C524 1.247 . S
O523 Cd519 2.439 . S
O523 C524 1.208 . S
C524 O522 1.247 . S
C524 O523 1.208 . S
C525 O530 1.247 . S
C525 O531 1.208 . S
C526 O518 1.315 . S
C526 O521 1.279 . S
C527 O528 1.315 . S
C527 O529 1.279 . S
O528 Cd520 2.223 . S
O528 C527 1.315 . S
O529 Cd519 2.240 . S
O529 C527 1.279 . S
O530 Cd520 2.297 . S
O530 C525 1.247 . S
O531 Cd520 2.439 . S
O531 C525 1.208 . S
O532 Cd533 2.223 . S
O532 C540 1.315 . S
Cd533 O532 2.223 . S
Cd533 O536 2.297 . S
Cd533 O537 2.439 . S
Cd533 O543 2.240 . S
Cd534 O535 2.240 . S
Cd534 O542 2.223 . S
Cd534 O544 2.297 . S
Cd534 O545 2.439 . S
O535 Cd534 2.240 . S
O535 C540 1.279 . S
O536 Cd533 2.297 . S
O536 C538 1.247 . S
O537 Cd533 2.439 . S
O537 C538 1.208 . S
C538 O536 1.247 . S
C538 O537 1.208 . S
C539 O544 1.247 . S
C539 O545 1.208 . S
C540 O532 1.315 . S
C540 O535 1.279 . S
C541 O542 1.315 . S
C541 O543 1.279 . S
O542 Cd534 2.223 . S
O542 C541 1.315 . S
O543 Cd533 2.240 . S
O543 C541 1.279 . S
O544 Cd534 2.297 . S
O544 C539 1.247 . S
O545 Cd534 2.439 . S
O545 C539 1.208 . S
O546 Cd547 2.223 . S
O546 C554 1.315 . S
Cd547 O546 2.223 . S
Cd547 O550 2.297 . S
Cd547 O551 2.439 . S
Cd547 O557 2.240 . S
Cd548 O549 2.240 . S
Cd548 O556 2.223 . S
Cd548 O558 2.297 . S
Cd548 O559 2.439 . S
O549 Cd548 2.240 . S
O549 C554 1.279 . S
O550 Cd547 2.297 . S
O550 C552 1.247 . S
O551 Cd547 2.439 . S
O551 C552 1.208 . S
C552 O550 1.247 . S
C552 O551 1.208 . S
C553 O558 1.247 . S
C553 O559 1.208 . S
C554 O546 1.315 . S
C554 O549 1.279 . S
C555 O556 1.315 . S
C555 O557 1.279 . S
O556 Cd548 2.223 . S
O556 C555 1.315 . S
O557 Cd547 2.240 . S
O557 C555 1.279 . S
O558 Cd548 2.297 . S
O558 C553 1.247 . S
O559 Cd548 2.439 . S
O559 C553 1.208 . S
O560 Cd561 2.223 . S
O560 C568 1.315 . S
Cd561 O560 2.223 . S
Cd561 O564 2.297 . S
Cd561 O565 2.439 . S
Cd561 O571 2.240 . S
Cd562 O563 2.240 . S
Cd562 O570 2.223 . S
Cd562 O572 2.297 . S
Cd562 O573 2.439 . S
O563 Cd562 2.240 . S
O563 C568 1.279 . S
O564 Cd561 2.297 . S
O564 C566 1.247 . S
O565 Cd561 2.439 . S
O565 C566 1.208 . S
C566 O564 1.247 . S
C566 O565 1.208 . S
C567 O572 1.247 . S
C567 O573 1.208 . S
C568 O560 1.315 . S
C568 O563 1.279 . S
C569 O570 1.315 . S
C569 O571 1.279 . S
O570 Cd562 2.223 . S
O570 C569 1.315 . S
O571 Cd561 2.240 . S
O571 C569 1.279 . S
O572 Cd562 2.297 . S
O572 C567 1.247 . S
O573 Cd562 2.439 . S
O573 C567 1.208 . S
O574 Cd575 2.223 . S
O574 C582 1.315 . S
Cd575 O574 2.223 . S
Cd575 O578 2.297 . S
Cd575 O579 2.439 . S
Cd575 O585 2.240 . S
Cd576 O577 2.240 . S
Cd576 O584 2.223 . S
Cd576 O586 2.297 . S
Cd576 O587 2.439 . S
O577 Cd576 2.240 . S
O577 C582 1.279 . S
O578 Cd575 2.297 . S
O578 C580 1.247 . S
O579 Cd575 2.439 . S
O579 C580 1.208 . S
C580 O578 1.247 . S
C580 O579 1.208 . S
C581 O586 1.247 . S
C581 O587 1.208 . S
C582 O574 1.315 . S
C582 O577 1.279 . S
C583 O584 1.315 . S
C583 O585 1.279 . S
O584 Cd576 2.223 . S
O584 C583 1.315 . S
O585 Cd575 2.240 . S
O585 C583 1.279 . S
O586 Cd576 2.297 . S
O586 C581 1.247 . S
O587 Cd576 2.439 . S
O587 C581 1.208 . S
O588 Cd589 2.223 . S
O588 C596 1.315 . S
Cd589 O588 2.223 . S
Cd589 O592 2.297 . S
Cd589 O593 2.439 . S
Cd589 O599 2.240 . S
Cd590 O591 2.240 . S
Cd590 O598 2.223 . S
Cd590 O600 2.297 . S
Cd590 O601 2.439 . S
O591 Cd590 2.240 . S
O591 C596 1.279 . S
O592 Cd589 2.297 . S
O592 C594 1.247 . S
O593 Cd589 2.439 . S
O593 C594 1.208 . S
C594 O592 1.247 . S
C594 O593 1.208 . S
C595 O600 1.247 . S
C595 O601 1.208 . S
C596 O588 1.315 . S
C596 O591 1.279 . S
C597 O598 1.315 . S
C597 O599 1.279 . S
O598 Cd590 2.223 . S
O598 C597 1.315 . S
O599 Cd589 2.240 . S
O599 C597 1.279 . S
O600 Cd590 2.297 . S
O600 C595 1.247 . S
O601 Cd590 2.439 . S
O601 C595 1.208 . S
O602 Cd603 2.223 . S
O602 C610 1.315 . S
Cd603 O602 2.223 . S
Cd603 O606 2.297 . S
Cd603 O607 2.439 . S
Cd603 O613 2.240 . S
Cd604 O605 2.240 . S
Cd604 O612 2.223 . S
Cd604 O614 2.297 . S
Cd604 O615 2.439 . S
O605 Cd604 2.240 . S
O605 C610 1.279 . S
O606 Cd603 2.297 . S
O606 C608 1.247 . S
O607 Cd603 2.439 . S
O607 C608 1.208 . S
C608 O606 1.247 . S
C608 O607 1.208 . S
C609 O614 1.247 . S
C609 O615 1.208 . S
C610 O602 1.315 . S
C610 O605 1.279 . S
C611 O612 1.315 . S
C611 O613 1.279 . S
O612 Cd604 2.223 . S
O612 C611 1.315 . S
O613 Cd603 2.240 . S
O613 C611 1.279 . S
O614 Cd604 2.297 . S
O614 C609 1.247 . S
O615 Cd604 2.439 . S
O615 C609 1.208 . S
O616 Cd617 2.223 . S
O616 C624 1.315 . S
Cd617 O616 2.223 . S
Cd617 O620 2.297 . S
Cd617 O621 2.439 . S
Cd617 O627 2.240 . S
Cd618 O619 2.240 . S
Cd618 O626 2.223 . S
Cd618 O628 2.297 . S
Cd618 O629 2.439 . S
O619 Cd618 2.240 . S
O619 C624 1.279 . S
O620 Cd617 2.297 . S
O620 C622 1.247 . S
O621 Cd617 2.439 . S
O621 C622 1.208 . S
C622 O620 1.247 . S
C622 O621 1.208 . S
C623 O628 1.247 . S
C623 O629 1.208 . S
C624 O616 1.315 . S
C624 O619 1.279 . S
C625 O626 1.315 . S
C625 O627 1.279 . S
O626 Cd618 2.223 . S
O626 C625 1.315 . S
O627 Cd617 2.240 . S
O627 C625 1.279 . S
O628 Cd618 2.297 . S
O628 C623 1.247 . S
O629 Cd618 2.439 . S
O629 C623 1.208 . S
O630 Cd631 2.223 . S
O630 C638 1.315 . S
Cd631 O630 2.223 . S
Cd631 O634 2.297 . S
Cd631 O635 2.439 . S
Cd631 O641 2.240 . S
Cd632 O633 2.240 . S
Cd632 O640 2.223 . S
Cd632 O642 2.297 . S
Cd632 O643 2.439 . S
O633 Cd632 2.240 . S
O633 C638 1.279 . S
O634 Cd631 2.297 . S
O634 C636 1.247 . S
O635 Cd631 2.439 . S
O635 C636 1.208 . S
C636 O634 1.247 . S
C636 O635 1.208 . S
C637 O642 1.247 . S
C637 O643 1.208 . S
C638 O630 1.315 . S
C638 O633 1.279 . S
C639 O640 1.315 . S
C639 O641 1.279 . S
O640 Cd632 2.223 . S
O640 C639 1.315 . S
O641 Cd631 2.240 . S
O641 C639 1.279 . S
O642 Cd632 2.297 . S
O642 C637 1.247 . S
O643 Cd632 2.439 . S
O643 C637 1.208 . S
O644 Cd645 2.223 . S
O644 C652 1.315 . S
Cd645 O644 2.223 . S
Cd645 O648 2.297 . S
Cd645 O649 2.439 . S
Cd645 O655 2.240 . S
Cd646 O647 2.240 . S
Cd646 O654 2.223 . S
Cd646 O656 2.297 . S
Cd646 O657 2.439 . S
O647 Cd646 2.240 . S
O647 C652 1.279 . S
O648 Cd645 2.297 . S
O648 C650 1.247 . S
O649 Cd645 2.439 . S
O649 C650 1.208 . S
C650 O648 1.247 . S
C650 O649 1.208 . S
C651 O656 1.247 . S
C651 O657 1.208 . S
C652 O644 1.315 . S
C652 O647 1.279 . S
C653 O654 1.315 . S
C653 O655 1.279 . S
O654 Cd646 2.223 . S
O654 C653 1.315 . S
O655 Cd645 2.240 . S
O655 C653 1.279 . S
O656 Cd646 2.297 . S
O656 C651 1.247 . S
O657 Cd646 2.439 . S
O657 C651 1.208 . S
O658 Cd659 2.223 . S
O658 C666 1.315 . S
Cd659 O658 2.223 . S
Cd659 O662 2.297 . S
Cd659 O663 2.439 . S
Cd659 O669 2.240 . S
Cd660 O661 2.240 . S
Cd660 O668 2.223 . S
Cd660 O670 2.297 . S
Cd660 O671 2.439 . S
O661 Cd660 2.240 . S
O661 C666 1.279 . S
O662 Cd659 2.297 . S
O662 C664 1.247 . S
O663 Cd659 2.439 . S
O663 C664 1.208 . S
C664 O662 1.247 . S
C664 O663 1.208 . S
C665 O670 1.247 . S
C665 O671 1.208 . S
C666 O658 1.315 . S
C666 O661 1.279 . S
C667 O668 1.315 . S
C667 O669 1.279 . S
O668 Cd660 2.223 . S
O668 C667 1.315 . S
O669 Cd659 2.240 . S
O669 C667 1.279 . S
O670 Cd660 2.297 . S
O670 C665 1.247 . S
O671 Cd660 2.439 . S
O671 C665 1.208 . S
O672 Cd673 2.223 . S
O672 C680 1.315 . S
Cd673 O672 2.223 . S
Cd673 O676 2.297 . S
Cd673 O677 2.439 . S
Cd673 O683 2.240 . S
Cd674 O675 2.240 . S
Cd674 O682 2.223 . S
Cd674 O684 2.297 . S
Cd674 O685 2.439 . S
O675 Cd674 2.240 . S
O675 C680 1.279 . S
O676 Cd673 2.297 . S
O676 C678 1.247 . S
O677 Cd673 2.439 . S
O677 C678 1.208 . S
C678 O676 1.247 . S
C678 O677 1.208 . S
C679 O684 1.247 . S
C679 O685 1.208 . S
C680 O672 1.315 . S
C680 O675 1.279 . S
C681 O682 1.315 . S
C681 O683 1.279 . S
O682 Cd674 2.223 . S
O682 C681 1.315 . S
O683 Cd673 2.240 . S
O683 C681 1.279 . S
O684 Cd674 2.297 . S
O684 C679 1.247 . S
O685 Cd674 2.439 . S
O685 C679 1.208 . S
O686 Cd687 2.223 . S
O686 C694 1.315 . S
Cd687 O686 2.223 . S
Cd687 O690 2.297 . S
Cd687 O691 2.439 . S
Cd687 O697 2.240 . S
Cd688 O689 2.240 . S
Cd688 O696 2.223 . S
Cd688 O698 2.297 . S
Cd688 O699 2.439 . S
O689 Cd688 2.240 . S
O689 C694 1.279 . S
O690 Cd687 2.297 . S
O690 C692 1.247 . S
O691 Cd687 2.439 . S
O691 C692 1.208 . S
C692 O690 1.247 . S
C692 O691 1.208 . S
C693 O698 1.247 . S
C693 O699 1.208 . S
C694 O686 1.315 . S
C694 O689 1.279 . S
C695 O696 1.315 . S
C695 O697 1.279 . S
O696 Cd688 2.223 . S
O696 C695 1.315 . S
O697 Cd687 2.240 . S
O697 C695 1.279 . S
O698 Cd688 2.297 . S
O698 C693 1.247 . S
O699 Cd688 2.439 . S
O699 C693 1.208 . S
O700 Cd701 2.223 . S
O700 C708 1.315 . S
Cd701 O700 2.223 . S
Cd701 O704 2.297 . S
Cd701 O705 2.439 . S
Cd701 O711 2.240 . S
Cd702 O703 2.240 . S
Cd702 O710 2.223 . S
Cd702 O712 2.297 . S
Cd702 O713 2.439 . S
O703 Cd702 2.240 . S
O703 C708 1.279 . S
O704 Cd701 2.297 . S
O704 C706 1.247 . S
O705 Cd701 2.439 . S
O705 C706 1.208 . S
C706 O704 1.247 . S
C706 O705 1.208 . S
C707 O712 1.247 . S
C707 O713 1.208 . S
C708 O700 1.315 . S
C708 O703 1.279 . S
C709 O710 1.315 . S
C709 O711 1.279 . S
O710 Cd702 2.223 . S
O710 C709 1.315 . S
O711 Cd701 2.240 . S
O711 C709 1.279 . S
O712 Cd702 2.297 . S
O712 C707 1.247 . S
O713 Cd702 2.439 . S
O713 C707 1.208 . S
O714 Cd715 2.223 . S
O714 C722 1.315 . S
Cd715 O714 2.223 . S
Cd715 O718 2.297 . S
Cd715 O719 2.439 . S
Cd715 O725 2.240 . S
Cd716 O717 2.240 . S
Cd716 O724 2.223 . S
Cd716 O726 2.297 . S
Cd716 O727 2.439 . S
O717 Cd716 2.240 . S
O717 C722 1.279 . S
O718 Cd715 2.297 . S
O718 C720 1.247 . S
O719 Cd715 2.439 . S
O719 C720 1.208 . S
C720 O718 1.247 . S
C720 O719 1.208 . S
C721 O726 1.247 . S
C721 O727 1.208 . S
C722 O714 1.315 . S
C722 O717 1.279 . S
C723 O724 1.315 . S
C723 O725 1.279 . S
O724 Cd716 2.223 . S
O724 C723 1.315 . S
O725 Cd715 2.240 . S
O725 C723 1.279 . S
O726 Cd716 2.297 . S
O726 C721 1.247 . S
O727 Cd716 2.439 . S
O727 C721 1.208 . S
O728 Cd729 2.223 . S
O728 C736 1.315 . S
Cd729 O728 2.223 . S
Cd729 O732 2.297 . S
Cd729 O733 2.439 . S
Cd729 O739 2.240 . S
Cd730 O731 2.240 . S
Cd730 O738 2.223 . S
Cd730 O740 2.297 . S
Cd730 O741 2.439 . S
O731 Cd730 2.240 . S
O731 C736 1.279 . S
O732 Cd729 2.297 . S
O732 C734 1.247 . S
O733 Cd729 2.439 . S
O733 C734 1.208 . S
C734 O732 1.247 . S
C734 O733 1.208 . S
C735 O740 1.247 . S
C735 O741 1.208 . S
C736 O728 1.315 . S
C736 O731 1.279 . S
C737 O738 1.315 . S
C737 O739 1.279 . S
O738 Cd730 2.223 . S
O738 C737 1.315 . S
O739 Cd729 2.240 . S
O739 C737 1.279 . S
O740 Cd730 2.297 . S
O740 C735 1.247 . S
O741 Cd730 2.439 . S
O741 C735 1.208 . S
O742 Cd743 2.223 . S
O742 C750 1.315 . S
Cd743 O742 2.223 . S
Cd743 O746 2.297 . S
Cd743 O747 2.439 . S
Cd743 O753 2.240 . S
Cd744 O745 2.240 . S
Cd744 O752 2.223 . S
Cd744 O754 2.297 . S
Cd744 O755 2.439 . S
O745 Cd744 2.240 . S
O745 C750 1.279 . S
O746 Cd743 2.297 . S
O746 C748 1.247 . S
O747 Cd743 2.439 . S
O747 C748 1.208 . S
C748 O746 1.247 . S
C748 O747 1.208 . S
C749 O754 1.247 . S
C749 O755 1.208 . S
C750 O742 1.315 . S
C750 O745 1.279 . S
C751 O752 1.315 . S
C751 O753 1.279 . S
O752 Cd744 2.223 . S
O752 C751 1.315 . S
O753 Cd743 2.240 . S
O753 C751 1.279 . S
O754 Cd744 2.297 . S
O754 C749 1.247 . S
O755 Cd744 2.439 . S
O755 C749 1.208 . S
O756 Cd757 2.223 . S
O756 C764 1.315 . S
Cd757 O756 2.223 . S
Cd757 O760 2.297 . S
Cd757 O761 2.439 . S
Cd757 O767 2.240 . S
Cd758 O759 2.240 . S
Cd758 O766 2.223 . S
Cd758 O768 2.297 . S
Cd758 O769 2.439 . S
O759 Cd758 2.240 . S
O759 C764 1.279 . S
O760 Cd757 2.297 . S
O760 C762 1.247 . S
O761 Cd757 2.439 . S
O761 C762 1.208 . S
C762 O760 1.247 . S
C762 O761 1.208 . S
C763 O768 1.247 . S
C763 O769 1.208 . S
C764 O756 1.315 . S
C764 O759 1.279 . S
C765 O766 1.315 . S
C765 O767 1.279 . S
O766 Cd758 2.223 . S
O766 C765 1.315 . S
O767 Cd757 2.240 . S
O767 C765 1.279 . S
O768 Cd758 2.297 . S
O768 C763 1.247 . S
O769 Cd758 2.439 . S
O769 C763 1.208 . S
O770 Cd771 2.223 . S
O770 C778 1.315 . S
Cd771 O770 2.223 . S
Cd771 O774 2.297 . S
Cd771 O775 2.439 . S
Cd771 O781 2.240 . S
Cd772 O773 2.240 . S
Cd772 O780 2.223 . S
Cd772 O782 2.297 . S
Cd772 O783 2.439 . S
O773 Cd772 2.240 . S
O773 C778 1.279 . S
O774 Cd771 2.297 . S
O774 C776 1.247 . S
O775 Cd771 2.439 . S
O775 C776 1.208 . S
C776 O774 1.247 . S
C776 O775 1.208 . S
C777 O782 1.247 . S
C777 O783 1.208 . S
C778 O770 1.315 . S
C778 O773 1.279 . S
C779 O780 1.315 . S
C779 O781 1.279 . S
O780 Cd772 2.223 . S
O780 C779 1.315 . S
O781 Cd771 2.240 . S
O781 C779 1.279 . S
O782 Cd772 2.297 . S
O782 C777 1.247 . S
O783 Cd772 2.439 . S
O783 C777 1.208 . S
O784 Cd785 2.223 . S
O784 C792 1.315 . S
Cd785 O784 2.223 . S
Cd785 O788 2.297 . S
Cd785 O789 2.439 . S
Cd785 O795 2.240 . S
Cd786 O787 2.240 . S
Cd786 O794 2.223 . S
Cd786 O796 2.297 . S
Cd786 O797 2.439 . S
O787 Cd786 2.240 . S
O787 C792 1.279 . S
O788 Cd785 2.297 . S
O788 C790 1.247 . S
O789 Cd785 2.439 . S
O789 C790 1.208 . S
C790 O788 1.247 . S
C790 O789 1.208 . S
C791 O796 1.247 . S
C791 O797 1.208 . S
C792 O784 1.315 . S
C792 O787 1.279 . S
C793 O794 1.315 . S
C793 O795 1.279 . S
O794 Cd786 2.223 . S
O794 C793 1.315 . S
O795 Cd785 2.240 . S
O795 C793 1.279 . S
O796 Cd786 2.297 . S
O796 C791 1.247 . S
O797 Cd786 2.439 . S
O797 C791 1.208 . S
O798 Cd799 2.223 . S
O798 C806 1.315 . S
Cd799 O798 2.223 . S
Cd799 O802 2.297 . S
Cd799 O803 2.439 . S
Cd799 O809 2.240 . S
Cd800 O801 2.240 . S
Cd800 O808 2.223 . S
Cd800 O810 2.297 . S
Cd800 O811 2.439 . S
O801 Cd800 2.240 . S
O801 C806 1.279 . S
O802 Cd799 2.297 . S
O802 C804 1.247 . S
O803 Cd799 2.439 . S
O803 C804 1.208 . S
C804 O802 1.247 . S
C804 O803 1.208 . S
C805 O810 1.247 . S
C805 O811 1.208 . S
C806 O798 1.315 . S
C806 O801 1.279 . S
C807 O808 1.315 . S
C807 O809 1.279 . S
O808 Cd800 2.223 . S
O808 C807 1.315 . S
O809 Cd799 2.240 . S
O809 C807 1.279 . S
O810 Cd800 2.297 . S
O810 C805 1.247 . S
O811 Cd800 2.439 . S
O811 C805 1.208 . S
O812 Cd813 2.223 . S
O812 C820 1.315 . S
Cd813 O812 2.223 . S
Cd813 O816 2.297 . S
Cd813 O817 2.439 . S
Cd813 O823 2.240 . S
Cd814 O815 2.240 . S
Cd814 O822 2.223 . S
Cd814 O824 2.297 . S
Cd814 O825 2.439 . S
O815 Cd814 2.240 . S
O815 C820 1.279 . S
O816 Cd813 2.297 . S
O816 C818 1.247 . S
O817 Cd813 2.439 . S
O817 C818 1.208 . S
C818 O816 1.247 . S
C818 O817 1.208 . S
C819 O824 1.247 . S
C819 O825 1.208 . S
C820 O812 1.315 . S
C820 O815 1.279 . S
C821 O822 1.315 . S
C821 O823 1.279 . S
O822 Cd814 2.223 . S
O822 C821 1.315 . S
O823 Cd813 2.240 . S
O823 C821 1.279 . S
O824 Cd814 2.297 . S
O824 C819 1.247 . S
O825 Cd814 2.439 . S
O825 C819 1.208 . S
O826 Cd827 2.223 . S
O826 C834 1.315 . S
Cd827 O826 2.223 . S
Cd827 O830 2.297 . S
Cd827 O831 2.439 . S
Cd827 O837 2.240 . S
Cd828 O829 2.240 . S
Cd828 O836 2.223 . S
Cd828 O838 2.297 . S
Cd828 O839 2.439 . S
O829 Cd828 2.240 . S
O829 C834 1.279 . S
O830 Cd827 2.297 . S
O830 C832 1.247 . S
O831 Cd827 2.439 . S
O831 C832 1.208 . S
C832 O830 1.247 . S
C832 O831 1.208 . S
C833 O838 1.247 . S
C833 O839 1.208 . S
C834 O826 1.315 . S
C834 O829 1.279 . S
C835 O836 1.315 . S
C835 O837 1.279 . S
O836 Cd828 2.223 . S
O836 C835 1.315 . S
O837 Cd827 2.240 . S
O837 C835 1.279 . S
O838 Cd828 2.297 . S
O838 C833 1.247 . S
O839 Cd828 2.439 . S
O839 C833 1.208 . S
O840 Cd841 2.223 . S
O840 C848 1.315 . S
Cd841 O840 2.223 . S
Cd841 O844 2.297 . S
Cd841 O845 2.439 . S
Cd841 O851 2.240 . S
Cd842 O843 2.240 . S
Cd842 O850 2.223 . S
Cd842 O852 2.297 . S
Cd842 O853 2.439 . S
O843 Cd842 2.240 . S
O843 C848 1.279 . S
O844 Cd841 2.297 . S
O844 C846 1.247 . S
O845 Cd841 2.439 . S
O845 C846 1.208 . S
C846 O844 1.247 . S
C846 O845 1.208 . S
C847 O852 1.247 . S
C847 O853 1.208 . S
C848 O840 1.315 . S
C848 O843 1.279 . S
C849 O850 1.315 . S
C849 O851 1.279 . S
O850 Cd842 2.223 . S
O850 C849 1.315 . S
O851 Cd841 2.240 . S
O851 C849 1.279 . S
O852 Cd842 2.297 . S
O852 C847 1.247 . S
O853 Cd842 2.439 . S
O853 C847 1.208 . S
O854 Cd855 2.223 . S
O854 C862 1.315 . S
Cd855 O854 2.223 . S
Cd855 O858 2.297 . S
Cd855 O859 2.439 . S
Cd855 O865 2.240 . S
Cd856 O857 2.240 . S
Cd856 O864 2.223 . S
Cd856 O866 2.297 . S
Cd856 O867 2.439 . S
O857 Cd856 2.240 . S
O857 C862 1.279 . S
O858 Cd855 2.297 . S
O858 C860 1.247 . S
O859 Cd855 2.439 . S
O859 C860 1.208 . S
C860 O858 1.247 . S
C860 O859 1.208 . S
C861 O866 1.247 . S
C861 O867 1.208 . S
C862 O854 1.315 . S
C862 O857 1.279 . S
C863 O864 1.315 . S
C863 O865 1.279 . S
O864 Cd856 2.223 . S
O864 C863 1.315 . S
O865 Cd855 2.240 . S
O865 C863 1.279 . S
O866 Cd856 2.297 . S
O866 C861 1.247 . S
O867 Cd856 2.439 . S
O867 C861 1.208 . S
O868 Cd869 2.223 . S
O868 C876 1.315 . S
Cd869 O868 2.223 . S
Cd869 O872 2.297 . S
Cd869 O873 2.439 . S
Cd869 O879 2.240 . S
Cd870 O871 2.240 . S
Cd870 O878 2.223 . S
Cd870 O880 2.297 . S
Cd870 O881 2.439 . S
O871 Cd870 2.240 . S
O871 C876 1.279 . S
O872 Cd869 2.297 . S
O872 C874 1.247 . S
O873 Cd869 2.439 . S
O873 C874 1.208 . S
C874 O872 1.247 . S
C874 O873 1.208 . S
C875 O880 1.247 . S
C875 O881 1.208 . S
C876 O868 1.315 . S
C876 O871 1.279 . S
C877 O878 1.315 . S
C877 O879 1.279 . S
O878 Cd870 2.223 . S
O878 C877 1.315 . S
O879 Cd869 2.240 . S
O879 C877 1.279 . S
O880 Cd870 2.297 . S
O880 C875 1.247 . S
O881 Cd870 2.439 . S
O881 C875 1.208 . S
O882 Cd883 2.223 . S
O882 C890 1.315 . S
Cd883 O882 2.223 . S
Cd883 O886 2.297 . S
Cd883 O887 2.439 . S
Cd883 O893 2.240 . S
Cd884 O885 2.240 . S
Cd884 O892 2.223 . S
Cd884 O894 2.297 . S
Cd884 O895 2.439 . S
O885 Cd884 2.240 . S
O885 C890 1.279 . S
O886 Cd883 2.297 . S
O886 C888 1.247 . S
O887 Cd883 2.439 . S
O887 C888 1.208 . S
C888 O886 1.247 . S
C888 O887 1.208 . S
C889 O894 1.247 . S
C889 O895 1.208 . S
C890 O882 1.315 . S
C890 O885 1.279 . S
C891 O892 1.315 . S
C891 O893 1.279 . S
O892 Cd884 2.223 . S
O892 C891 1.315 . S
O893 Cd883 2.240 . S
O893 C891 1.279 . S
O894 Cd884 2.297 . S
O894 C889 1.247 . S
O895 Cd884 2.439 . S
O895 C889 1.208 . S
O896 Cd897 2.223 . S
O896 C904 1.315 . S
Cd897 O896 2.223 . S
Cd897 O900 2.297 . S
Cd897 O901 2.439 . S
Cd897 O907 2.240 . S
Cd898 O899 2.240 . S
Cd898 O906 2.223 . S
Cd898 O908 2.297 . S
Cd898 O909 2.439 . S
O899 Cd898 2.240 . S
O899 C904 1.279 . S
O900 Cd897 2.297 . S
O900 C902 1.247 . S
O901 Cd897 2.439 . S
O901 C902 1.208 . S
C902 O900 1.247 . S
C902 O901 1.208 . S
C903 O908 1.247 . S
C903 O909 1.208 . S
C904 O896 1.315 . S
C904 O899 1.279 . S
C905 O906 1.315 . S
C905 O907 1.279 . S
O906 Cd898 2.223 . S
O906 C905 1.315 . S
O907 Cd897 2.240 . S
O907 C905 1.279 . S
O908 Cd898 2.297 . S
O908 C903 1.247 . S
O909 Cd898 2.439 . S
O909 C903 1.208 . S
O910 Cd911 2.223 . S
O910 C918 1.315 . S
Cd911 O910 2.223 . S
Cd911 O914 2.297 . S
Cd911 O915 2.439 . S
Cd911 O921 2.240 . S
Cd912 O913 2.240 . S
Cd912 O920 2.223 . S
Cd912 O922 2.297 . S
Cd912 O923 2.439 . S
O913 Cd912 2.240 . S
O913 C918 1.279 . S
O914 Cd911 2.297 . S
O914 C916 1.247 . S
O915 Cd911 2.439 . S
O915 C916 1.208 . S
C916 O914 1.247 . S
C916 O915 1.208 . S
C917 O922 1.247 . S
C917 O923 1.208 . S
C918 O910 1.315 . S
C918 O913 1.279 . S
C919 O920 1.315 . S
C919 O921 1.279 . S
O920 Cd912 2.223 . S
O920 C919 1.315 . S
O921 Cd911 2.240 . S
O921 C919 1.279 . S
O922 Cd912 2.297 . S
O922 C917 1.247 . S
O923 Cd912 2.439 . S
O923 C917 1.208 . S
O924 Cd925 2.223 . S
O924 C932 1.315 . S
Cd925 O924 2.223 . S
Cd925 O928 2.297 . S
Cd925 O929 2.439 . S
Cd925 O935 2.240 . S
Cd926 O927 2.240 . S
Cd926 O934 2.223 . S
Cd926 O936 2.297 . S
Cd926 O937 2.439 . S
O927 Cd926 2.240 . S
O927 C932 1.279 . S
O928 Cd925 2.297 . S
O928 C930 1.247 . S
O929 Cd925 2.439 . S
O929 C930 1.208 . S
C930 O928 1.247 . S
C930 O929 1.208 . S
C931 O936 1.247 . S
C931 O937 1.208 . S
C932 O924 1.315 . S
C932 O927 1.279 . S
C933 O934 1.315 . S
C933 O935 1.279 . S
O934 Cd926 2.223 . S
O934 C933 1.315 . S
O935 Cd925 2.240 . S
O935 C933 1.279 . S
O936 Cd926 2.297 . S
O936 C931 1.247 . S
O937 Cd926 2.439 . S
O937 C931 1.208 . S
O938 Cd939 2.223 . S
O938 C946 1.315 . S
Cd939 O938 2.223 . S
Cd939 O942 2.297 . S
Cd939 O943 2.439 . S
Cd939 O949 2.240 . S
Cd940 O941 2.240 . S
Cd940 O948 2.223 . S
Cd940 O950 2.297 . S
Cd940 O951 2.439 . S
O941 Cd940 2.240 . S
O941 C946 1.279 . S
O942 Cd939 2.297 . S
O942 C944 1.247 . S
O943 Cd939 2.439 . S
O943 C944 1.208 . S
C944 O942 1.247 . S
C944 O943 1.208 . S
C945 O950 1.247 . S
C945 O951 1.208 . S
C946 O938 1.315 . S
C946 O941 1.279 . S
C947 O948 1.315 . S
C947 O949 1.279 . S
O948 Cd940 2.223 . S
O948 C947 1.315 . S
O949 Cd939 2.240 . S
O949 C947 1.279 . S
O950 Cd940 2.297 . S
O950 C945 1.247 . S
O951 Cd940 2.439 . S
O951 C945 1.208 . S
O952 Cd953 2.223 . S
O952 C960 1.315 . S
Cd953 O952 2.223 . S
Cd953 O956 2.297 . S
Cd953 O957 2.439 . S
Cd953 O963 2.240 . S
Cd954 O955 2.240 . S
Cd954 O962 2.223 . S
Cd954 O964 2.297 . S
Cd954 O965 2.439 . S
O955 Cd954 2.240 . S
O955 C960 1.279 . S
O956 Cd953 2.297 . S
O956 C958 1.247 . S
O957 Cd953 2.439 . S
O957 C958 1.208 . S
C958 O956 1.247 . S
C958 O957 1.208 . S
C959 O964 1.247 . S
C959 O965 1.208 . S
C960 O952 1.315 . S
C960 O955 1.279 . S
C961 O962 1.315 . S
C961 O963 1.279 . S
O962 Cd954 2.223 . S
O962 C961 1.315 . S
O963 Cd953 2.240 . S
O963 C961 1.279 . S
O964 Cd954 2.297 . S
O964 C959 1.247 . S
O965 Cd954 2.439 . S
O965 C959 1.208 . S
O966 Cd967 2.223 . S
O966 C974 1.315 . S
Cd967 O966 2.223 . S
Cd967 O970 2.297 . S
Cd967 O971 2.439 . S
Cd967 O977 2.240 . S
Cd968 O969 2.240 . S
Cd968 O976 2.223 . S
Cd968 O978 2.297 . S
Cd968 O979 2.439 . S
O969 Cd968 2.240 . S
O969 C974 1.279 . S
O970 Cd967 2.297 . S
O970 C972 1.247 . S
O971 Cd967 2.439 . S
O971 C972 1.208 . S
C972 O970 1.247 . S
C972 O971 1.208 . S
C973 O978 1.247 . S
C973 O979 1.208 . S
C974 O966 1.315 . S
C974 O969 1.279 . S
C975 O976 1.315 . S
C975 O977 1.279 . S
O976 Cd968 2.223 . S
O976 C975 1.315 . S
O977 Cd967 2.240 . S
O977 C975 1.279 . S
O978 Cd968 2.297 . S
O978 C973 1.247 . S
O979 Cd968 2.439 . S
O979 C973 1.208 . S
O980 Cd981 2.223 . S
O980 C988 1.315 . S
Cd981 O980 2.223 . S
Cd981 O984 2.297 . S
Cd981 O985 2.439 . S
Cd981 O991 2.240 . S
Cd982 O983 2.240 . S
Cd982 O990 2.223 . S
Cd982 O992 2.297 . S
Cd982 O993 2.439 . S
O983 Cd982 2.240 . S
O983 C988 1.279 . S
O984 Cd981 2.297 . S
O984 C986 1.247 . S
O985 Cd981 2.439 . S
O985 C986 1.208 . S
C986 O984 1.247 . S
C986 O985 1.208 . S
C987 O992 1.247 . S
C987 O993 1.208 . S
C988 O980 1.315 . S
C988 O983 1.279 . S
C989 O990 1.315 . S
C989 O991 1.279 . S
O990 Cd982 2.223 . S
O990 C989 1.315 . S
O991 Cd981 2.240 . S
O991 C989 1.279 . S
O992 Cd982 2.297 . S
O992 C987 1.247 . S
O993 Cd982 2.439 . S
O993 C987 1.208 . S
O994 Cd995 2.223 . S
O994 C1002 1.315 . S
Cd995 O994 2.223 . S
Cd995 O998 2.297 . S
Cd995 O999 2.439 . S
Cd995 O1005 2.240 . S
Cd996 O997 2.240 . S
Cd996 O1004 2.223 . S
Cd996 O1006 2.297 . S
Cd996 O1007 2.439 . S
O997 Cd996 2.240 . S
O997 C1002 1.279 . S
O998 Cd995 2.297 . S
O998 C1000 1.247 . S
O999 Cd995 2.439 . S
O999 C1000 1.208 . S
C1000 O998 1.247 . S
C1000 O999 1.208 . S
C1001 O1006 1.247 . S
C1001 O1007 1.208 . S
C1002 O994 1.315 . S
C1002 O997 1.279 . S
C1003 O1004 1.315 . S
C1003 O1005 1.279 . S
O1004 Cd996 2.223 . S
O1004 C1003 1.315 . S
O1005 Cd995 2.240 . S
O1005 C1003 1.279 . S
O1006 Cd996 2.297 . S
O1006 C1001 1.247 . S
O1007 Cd996 2.439 . S
O1007 C1001 1.208 . S
O1008 Cd1009 2.223 . S
O1008 C1016 1.315 . S
Cd1009 O1008 2.223 . S
Cd1009 O1012 2.297 . S
Cd1009 O1013 2.439 . S
Cd1009 O1019 2.240 . S
Cd1010 O1011 2.240 . S
Cd1010 O1018 2.223 . S
Cd1010 O1020 2.297 . S
Cd1010 O1021 2.439 . S
O1011 Cd1010 2.240 . S
O1011 C1016 1.279 . S
O1012 Cd1009 2.297 . S
O1012 C1014 1.247 . S
O1013 Cd1009 2.439 . S
O1013 C1014 1.208 . S
C1014 O1012 1.247 . S
C1014 O1013 1.208 . S
C1015 O1020 1.247 . S
C1015 O1021 1.208 . S
C1016 O1008 1.315 . S
C1016 O1011 1.279 . S
C1017 O1018 1.315 . S
C1017 O1019 1.279 . S
O1018 Cd1010 2.223 . S
O1018 C1017 1.315 . S
O1019 Cd1009 2.240 . S
O1019 C1017 1.279 . S
O1020 Cd1010 2.297 . S
O1020 C1015 1.247 . S
O1021 Cd1010 2.439 . S
O1021 C1015 1.208 . S
O1022 Cd1023 2.223 . S
O1022 C1030 1.315 . S
Cd1023 O1022 2.223 . S
Cd1023 O1026 2.297 . S
Cd1023 O1027 2.439 . S
Cd1023 O1033 2.240 . S
Cd1024 O1025 2.240 . S
Cd1024 O1032 2.223 . S
Cd1024 O1034 2.297 . S
Cd1024 O1035 2.439 . S
O1025 Cd1024 2.240 . S
O1025 C1030 1.279 . S
O1026 Cd1023 2.297 . S
O1026 C1028 1.247 . S
O1027 Cd1023 2.439 . S
O1027 C1028 1.208 . S
C1028 O1026 1.247 . S
C1028 O1027 1.208 . S
C1029 O1034 1.247 . S
C1029 O1035 1.208 . S
C1030 O1022 1.315 . S
C1030 O1025 1.279 . S
C1031 O1032 1.315 . S
C1031 O1033 1.279 . S
O1032 Cd1024 2.223 . S
O1032 C1031 1.315 . S
O1033 Cd1023 2.240 . S
O1033 C1031 1.279 . S
O1034 Cd1024 2.297 . S
O1034 C1029 1.247 . S
O1035 Cd1024 2.439 . S
O1035 C1029 1.208 . S
O1036 Cd1037 2.223 . S
O1036 C1044 1.315 . S
Cd1037 O1036 2.223 . S
Cd1037 O1040 2.297 . S
Cd1037 O1041 2.439 . S
Cd1037 O1047 2.240 . S
Cd1038 O1039 2.240 . S
Cd1038 O1046 2.223 . S
Cd1038 O1048 2.297 . S
Cd1038 O1049 2.439 . S
O1039 Cd1038 2.240 . S
O1039 C1044 1.279 . S
O1040 Cd1037 2.297 . S
O1040 C1042 1.247 . S
O1041 Cd1037 2.439 . S
O1041 C1042 1.208 . S
C1042 O1040 1.247 . S
C1042 O1041 1.208 . S
C1043 O1048 1.247 . S
C1043 O1049 1.208 . S
C1044 O1036 1.315 . S
C1044 O1039 1.279 . S
C1045 O1046 1.315 . S
C1045 O1047 1.279 . S
O1046 Cd1038 2.223 . S
O1046 C1045 1.315 . S
O1047 Cd1037 2.240 . S
O1047 C1045 1.279 . S
O1048 Cd1038 2.297 . S
O1048 C1043 1.247 . S
O1049 Cd1038 2.439 . S
O1049 C1043 1.208 . S
O1050 Cd1051 2.223 . S
O1050 C1058 1.315 . S
Cd1051 O1050 2.223 . S
Cd1051 O1054 2.297 . S
Cd1051 O1055 2.439 . S
Cd1051 O1061 2.240 . S
Cd1052 O1053 2.240 . S
Cd1052 O1060 2.223 . S
Cd1052 O1062 2.297 . S
Cd1052 O1063 2.439 . S
O1053 Cd1052 2.240 . S
O1053 C1058 1.279 . S
O1054 Cd1051 2.297 . S
O1054 C1056 1.247 . S
O1055 Cd1051 2.439 . S
O1055 C1056 1.208 . S
C1056 O1054 1.247 . S
C1056 O1055 1.208 . S
C1057 O1062 1.247 . S
C1057 O1063 1.208 . S
C1058 O1050 1.315 . S
C1058 O1053 1.279 . S
C1059 O1060 1.315 . S
C1059 O1061 1.279 . S
O1060 Cd1052 2.223 . S
O1060 C1059 1.315 . S
O1061 Cd1051 2.240 . S
O1061 C1059 1.279 . S
O1062 Cd1052 2.297 . S
O1062 C1057 1.247 . S
O1063 Cd1052 2.439 . S
O1063 C1057 1.208 . S
O1064 Cd1065 2.223 . S
O1064 C1072 1.315 . S
Cd1065 O1064 2.223 . S
Cd1065 O1068 2.297 . S
Cd1065 O1069 2.439 . S
Cd1065 O1075 2.240 . S
Cd1066 O1067 2.240 . S
Cd1066 O1074 2.223 . S
Cd1066 O1076 2.297 . S
Cd1066 O1077 2.439 . S
O1067 Cd1066 2.240 . S
O1067 C1072 1.279 . S
O1068 Cd1065 2.297 . S
O1068 C1070 1.247 . S
O1069 Cd1065 2.439 . S
O1069 C1070 1.208 . S
C1070 O1068 1.247 . S
C1070 O1069 1.208 . S
C1071 O1076 1.247 . S
C1071 O1077 1.208 . S
C1072 O1064 1.315 . S
C1072 O1067 1.279 . S
C1073 O1074 1.315 . S
C1073 O1075 1.279 . S
O1074 Cd1066 2.223 . S
O1074 C1073 1.315 . S
O1075 Cd1065 2.240 . S
O1075 C1073 1.279 . S
O1076 Cd1066 2.297 . S
O1076 C1071 1.247 . S
O1077 Cd1066 2.439 . S
O1077 C1071 1.208 . S
O1078 Cd1079 2.223 . S
O1078 C1086 1.315 . S
Cd1079 O1078 2.223 . S
Cd1079 O1082 2.297 . S
Cd1079 O1083 2.439 . S
Cd1079 O1089 2.240 . S
Cd1080 O1081 2.240 . S
Cd1080 O1088 2.223 . S
Cd1080 O1090 2.297 . S
Cd1080 O1091 2.439 . S
O1081 Cd1080 2.240 . S
O1081 C1086 1.279 . S
O1082 Cd1079 2.297 . S
O1082 C1084 1.247 . S
O1083 Cd1079 2.439 . S
O1083 C1084 1.208 . S
C1084 O1082 1.247 . S
C1084 O1083 1.208 . S
C1085 O1090 1.247 . S
C1085 O1091 1.208 . S
C1086 O1078 1.315 . S
C1086 O1081 1.279 . S
C1087 O1088 1.315 . S
C1087 O1089 1.279 . S
O1088 Cd1080 2.223 . S
O1088 C1087 1.315 . S
O1089 Cd1079 2.240 . S
O1089 C1087 1.279 . S
O1090 Cd1080 2.297 . S
O1090 C1085 1.247 . S
O1091 Cd1080 2.439 . S
O1091 C1085 1.208 . S
O1092 Cd1093 2.223 . S
O1092 C1100 1.315 . S
Cd1093 O1092 2.223 . S
Cd1093 O1096 2.297 . S
Cd1093 O1097 2.439 . S
Cd1093 O1103 2.240 . S
Cd1094 O1095 2.240 . S
Cd1094 O1102 2.223 . S
Cd1094 O1104 2.297 . S
Cd1094 O1105 2.439 . S
O1095 Cd1094 2.240 . S
O1095 C1100 1.279 . S
O1096 Cd1093 2.297 . S
O1096 C1098 1.247 . S
O1097 Cd1093 2.439 . S
O1097 C1098 1.208 . S
C1098 O1096 1.247 . S
C1098 O1097 1.208 . S
C1099 O1104 1.247 . S
C1099 O1105 1.208 . S
C1100 O1092 1.315 . S
C1100 O1095 1.279 . S
C1101 O1102 1.315 . S
C1101 O1103 1.279 . S
O1102 Cd1094 2.223 . S
O1102 C1101 1.315 . S
O1103 Cd1093 2.240 . S
O1103 C1101 1.279 . S
O1104 Cd1094 2.297 . S
O1104 C1099 1.247 . S
O1105 Cd1094 2.439 . S
O1105 C1099 1.208 . S
O1106 Cd1107 2.223 . S
O1106 C1114 1.315 . S
Cd1107 O1106 2.223 . S
Cd1107 O1110 2.297 . S
Cd1107 O1111 2.439 . S
Cd1107 O1117 2.240 . S
Cd1108 O1109 2.240 . S
Cd1108 O1116 2.223 . S
Cd1108 O1118 2.297 . S
Cd1108 O1119 2.439 . S
O1109 Cd1108 2.240 . S
O1109 C1114 1.279 . S
O1110 Cd1107 2.297 . S
O1110 C1112 1.247 . S
O1111 Cd1107 2.439 . S
O1111 C1112 1.208 . S
C1112 O1110 1.247 . S
C1112 O1111 1.208 . S
C1113 O1118 1.247 . S
C1113 O1119 1.208 . S
C1114 O1106 1.315 . S
C1114 O1109 1.279 . S
C1115 O1116 1.315 . S
C1115 O1117 1.279 . S
O1116 Cd1108 2.223 . S
O1116 C1115 1.315 . S
O1117 Cd1107 2.240 . S
O1117 C1115 1.279 . S
O1118 Cd1108 2.297 . S
O1118 C1113 1.247 . S
O1119 Cd1108 2.439 . S
O1119 C1113 1.208 . S
O1120 Cd1121 2.223 . S
O1120 C1128 1.315 . S
Cd1121 O1120 2.223 . S
Cd1121 O1124 2.297 . S
Cd1121 O1125 2.439 . S
Cd1121 O1131 2.240 . S
Cd1122 O1123 2.240 . S
Cd1122 O1130 2.223 . S
Cd1122 O1132 2.297 . S
Cd1122 O1133 2.439 . S
O1123 Cd1122 2.240 . S
O1123 C1128 1.279 . S
O1124 Cd1121 2.297 . S
O1124 C1126 1.247 . S
O1125 Cd1121 2.439 . S
O1125 C1126 1.208 . S
C1126 O1124 1.247 . S
C1126 O1125 1.208 . S
C1127 O1132 1.247 . S
C1127 O1133 1.208 . S
C1128 O1120 1.315 . S
C1128 O1123 1.279 . S
C1129 O1130 1.315 . S
C1129 O1131 1.279 . S
O1130 Cd1122 2.223 . S
O1130 C1129 1.315 . S
O1131 Cd1121 2.240 . S
O1131 C1129 1.279 . S
O1132 Cd1122 2.297 . S
O1132 C1127 1.247 . S
O1133 Cd1122 2.439 . S
O1133 C1127 1.208 . S
O1134 Cd1135 2.223 . S
O1134 C1142 1.315 . S
Cd1135 O1134 2.223 . S
Cd1135 O1138 2.297 . S
Cd1135 O1139 2.439 . S
Cd1135 O1145 2.240 . S
Cd1136 O1137 2.240 . S
Cd1136 O1144 2.223 . S
Cd1136 O1146 2.297 . S
Cd1136 O1147 2.439 . S
O1137 Cd1136 2.240 . S
O1137 C1142 1.279 . S
O1138 Cd1135 2.297 . S
O1138 C1140 1.247 . S
O1139 Cd1135 2.439 . S
O1139 C1140 1.208 . S
C1140 O1138 1.247 . S
C1140 O1139 1.208 . S
C1141 O1146 1.247 . S
C1141 O1147 1.208 . S
C1142 O1134 1.315 . S
C1142 O1137 1.279 . S
C1143 O1144 1.315 . S
C1143 O1145 1.279 . S
O1144 Cd1136 2.223 . S
O1144 C1143 1.315 . S
O1145 Cd1135 2.240 . S
O1145 C1143 1.279 . S
O1146 Cd1136 2.297 . S
O1146 C1141 1.247 . S
O1147 Cd1136 2.439 . S
O1147 C1141 1.208 . S
O1148 Cd1149 2.223 . S
O1148 C1156 1.315 . S
Cd1149 O1148 2.223 . S
Cd1149 O1152 2.297 . S
Cd1149 O1153 2.439 . S
Cd1149 O1159 2.240 . S
Cd1150 O1151 2.240 . S
Cd1150 O1158 2.223 . S
Cd1150 O1160 2.297 . S
Cd1150 O1161 2.439 . S
O1151 Cd1150 2.240 . S
O1151 C1156 1.279 . S
O1152 Cd1149 2.297 . S
O1152 C1154 1.247 . S
O1153 Cd1149 2.439 . S
O1153 C1154 1.208 . S
C1154 O1152 1.247 . S
C1154 O1153 1.208 . S
C1155 O1160 1.247 . S
C1155 O1161 1.208 . S
C1156 O1148 1.315 . S
C1156 O1151 1.279 . S
C1157 O1158 1.315 . S
C1157 O1159 1.279 . S
O1158 Cd1150 2.223 . S
O1158 C1157 1.315 . S
O1159 Cd1149 2.240 . S
O1159 C1157 1.279 . S
O1160 Cd1150 2.297 . S
O1160 C1155 1.247 . S
O1161 Cd1150 2.439 . S
O1161 C1155 1.208 . S
O1162 Cd1163 2.223 . S
O1162 C1170 1.315 . S
Cd1163 O1162 2.223 . S
Cd1163 O1166 2.297 . S
Cd1163 O1167 2.439 . S
Cd1163 O1173 2.240 . S
Cd1164 O1165 2.240 . S
Cd1164 O1172 2.223 . S
Cd1164 O1174 2.297 . S
Cd1164 O1175 2.439 . S
O1165 Cd1164 2.240 . S
O1165 C1170 1.279 . S
O1166 Cd1163 2.297 . S
O1166 C1168 1.247 . S
O1167 Cd1163 2.439 . S
O1167 C1168 1.208 . S
C1168 O1166 1.247 . S
C1168 O1167 1.208 . S
C1169 O1174 1.247 . S
C1169 O1175 1.208 . S
C1170 O1162 1.315 . S
C1170 O1165 1.279 . S
C1171 O1172 1.315 . S
C1171 O1173 1.279 . S
O1172 Cd1164 2.223 . S
O1172 C1171 1.315 . S
O1173 Cd1163 2.240 . S
O1173 C1171 1.279 . S
O1174 Cd1164 2.297 . S
O1174 C1169 1.247 . S
O1175 Cd1164 2.439 . S
O1175 C1169 1.208 . S
O1176 Cd1177 2.223 . S
O1176 C1184 1.315 . S
Cd1177 O1176 2.223 . S
Cd1177 O1180 2.297 . S
Cd1177 O1181 2.439 . S
Cd1177 O1187 2.240 . S
Cd1178 O1179 2.240 . S
Cd1178 O1186 2.223 . S
Cd1178 O1188 2.297 . S
Cd1178 O1189 2.439 . S
O1179 Cd1178 2.240 . S
O1179 C1184 1.279 . S
O1180 Cd1177 2.297 . S
O1180 C1182 1.247 . S
O1181 Cd1177 2.439 . S
O1181 C1182 1.208 . S
C1182 O1180 1.247 . S
C1182 O1181 1.208 . S
C1183 O1188 1.247 . S
C1183 O1189 1.208 . S
C1184 O1176 1.315 . S
C1184 O1179 1.279 . S
C1185 O1186 1.315 . S
C1185 O1187 1.279 . S
O1186 Cd1178 2.223 . S
O1186 C1185 1.315 . S
O1187 Cd1177 2.240 . S
O1187 C1185 1.279 . S
O1188 Cd1178 2.297 . S
O1188 C1183 1.247 . S
O1189 Cd1178 2.439 . S
O1189 C1183 1.208 . S
O1190 Cd1191 2.223 . S
O1190 C1198 1.315 . S
Cd1191 O1190 2.223 . S
Cd1191 O1194 2.297 . S
Cd1191 O1195 2.439 . S
Cd1191 O1201 2.240 . S
Cd1192 O1193 2.240 . S
Cd1192 O1200 2.223 . S
Cd1192 O1202 2.297 . S
Cd1192 O1203 2.439 . S
O1193 Cd1192 2.240 . S
O1193 C1198 1.279 . S
O1194 Cd1191 2.297 . S
O1194 C1196 1.247 . S
O1195 Cd1191 2.439 . S
O1195 C1196 1.208 . S
C1196 O1194 1.247 . S
C1196 O1195 1.208 . S
C1197 O1202 1.247 . S
C1197 O1203 1.208 . S
C1198 O1190 1.315 . S
C1198 O1193 1.279 . S
C1199 O1200 1.315 . S
C1199 O1201 1.279 . S
O1200 Cd1192 2.223 . S
O1200 C1199 1.315 . S
O1201 Cd1191 2.240 . S
O1201 C1199 1.279 . S
O1202 Cd1192 2.297 . S
O1202 C1197 1.247 . S
O1203 Cd1192 2.439 . S
O1203 C1197 1.208 . S
O1204 Cd1205 2.223 . S
O1204 C1212 1.315 . S
Cd1205 O1204 2.223 . S
Cd1205 O1208 2.297 . S
Cd1205 O1209 2.439 . S
Cd1205 O1215 2.240 . S
Cd1206 O1207 2.240 . S
Cd1206 O1214 2.223 . S
Cd1206 O1216 2.297 . S
Cd1206 O1217 2.439 . S
O1207 Cd1206 2.240 . S
O1207 C1212 1.279 . S
O1208 Cd1205 2.297 . S
O1208 C1210 1.247 . S
O1209 Cd1205 2.439 . S
O1209 C1210 1.208 . S
C1210 O1208 1.247 . S
C1210 O1209 1.208 . S
C1211 O1216 1.247 . S
C1211 O1217 1.208 . S
C1212 O1204 1.315 . S
C1212 O1207 1.279 . S
C1213 O1214 1.315 . S
C1213 O1215 1.279 . S
O1214 Cd1206 2.223 . S
O1214 C1213 1.315 . S
O1215 Cd1205 2.240 . S
O1215 C1213 1.279 . S
O1216 Cd1206 2.297 . S
O1216 C1211 1.247 . S
O1217 Cd1206 2.439 . S
O1217 C1211 1.208 . S
O1218 Cd1219 2.223 . S
O1218 C1226 1.315 . S
Cd1219 O1218 2.223 . S
Cd1219 O1222 2.297 . S
Cd1219 O1223 2.439 . S
Cd1219 O1229 2.240 . S
Cd1220 O1221 2.240 . S
Cd1220 O1228 2.223 . S
Cd1220 O1230 2.297 . S
Cd1220 O1231 2.439 . S
O1221 Cd1220 2.240 . S
O1221 C1226 1.279 . S
O1222 Cd1219 2.297 . S
O1222 C1224 1.247 . S
O1223 Cd1219 2.439 . S
O1223 C1224 1.208 . S
C1224 O1222 1.247 . S
C1224 O1223 1.208 . S
C1225 O1230 1.247 . S
C1225 O1231 1.208 . S
C1226 O1218 1.315 . S
C1226 O1221 1.279 . S
C1227 O1228 1.315 . S
C1227 O1229 1.279 . S
O1228 Cd1220 2.223 . S
O1228 C1227 1.315 . S
O1229 Cd1219 2.240 . S
O1229 C1227 1.279 . S
O1230 Cd1220 2.297 . S
O1230 C1225 1.247 . S
O1231 Cd1220 2.439 . S
O1231 C1225 1.208 . S
O1232 Cd1233 2.223 . S
O1232 C1240 1.315 . S
Cd1233 O1232 2.223 . S
Cd1233 O1236 2.297 . S
Cd1233 O1237 2.439 . S
Cd1233 O1243 2.240 . S
Cd1234 O1235 2.240 . S
Cd1234 O1242 2.223 . S
Cd1234 O1244 2.297 . S
Cd1234 O1245 2.439 . S
O1235 Cd1234 2.240 . S
O1235 C1240 1.279 . S
O1236 Cd1233 2.297 . S
O1236 C1238 1.247 . S
O1237 Cd1233 2.439 . S
O1237 C1238 1.208 . S
C1238 O1236 1.247 . S
C1238 O1237 1.208 . S
C1239 O1244 1.247 . S
C1239 O1245 1.208 . S
C1240 O1232 1.315 . S
C1240 O1235 1.279 . S
C1241 O1242 1.315 . S
C1241 O1243 1.279 . S
O1242 Cd1234 2.223 . S
O1242 C1241 1.315 . S
O1243 Cd1233 2.240 . S
O1243 C1241 1.279 . S
O1244 Cd1234 2.297 . S
O1244 C1239 1.247 . S
O1245 Cd1234 2.439 . S
O1245 C1239 1.208 . S
O1246 Cd1247 2.223 . S
O1246 C1254 1.315 . S
Cd1247 O1246 2.223 . S
Cd1247 O1250 2.297 . S
Cd1247 O1251 2.439 . S
Cd1247 O1257 2.240 . S
Cd1248 O1249 2.240 . S
Cd1248 O1256 2.223 . S
Cd1248 O1258 2.297 . S
Cd1248 O1259 2.439 . S
O1249 Cd1248 2.240 . S
O1249 C1254 1.279 . S
O1250 Cd1247 2.297 . S
O1250 C1252 1.247 . S
O1251 Cd1247 2.439 . S
O1251 C1252 1.208 . S
C1252 O1250 1.247 . S
C1252 O1251 1.208 . S
C1253 O1258 1.247 . S
C1253 O1259 1.208 . S
C1254 O1246 1.315 . S
C1254 O1249 1.279 . S
C1255 O1256 1.315 . S
C1255 O1257 1.279 . S
O1256 Cd1248 2.223 . S
O1256 C1255 1.315 . S
O1257 Cd1247 2.240 . S
O1257 C1255 1.279 . S
O1258 Cd1248 2.297 . S
O1258 C1253 1.247 . S
O1259 Cd1248 2.439 . S
O1259 C1253 1.208 . S
O1260 Cd1261 2.223 . S
O1260 C1268 1.315 . S
Cd1261 O1260 2.223 . S
Cd1261 O1264 2.297 . S
Cd1261 O1265 2.439 . S
Cd1261 O1271 2.240 . S
Cd1262 O1263 2.240 . S
Cd1262 O1270 2.223 . S
Cd1262 O1272 2.297 . S
Cd1262 O1273 2.439 . S
O1263 Cd1262 2.240 . S
O1263 C1268 1.279 . S
O1264 Cd1261 2.297 . S
O1264 C1266 1.247 . S
O1265 Cd1261 2.439 . S
O1265 C1266 1.208 . S
C1266 O1264 1.247 . S
C1266 O1265 1.208 . S
C1267 O1272 1.247 . S
C1267 O1273 1.208 . S
C1268 O1260 1.315 . S
C1268 O1263 1.279 . S
C1269 O1270 1.315 . S
C1269 O1271 1.279 . S
O1270 Cd1262 2.223 . S
O1270 C1269 1.315 . S
O1271 Cd1261 2.240 . S
O1271 C1269 1.279 . S
O1272 Cd1262 2.297 . S
O1272 C1267 1.247 . S
O1273 Cd1262 2.439 . S
O1273 C1267 1.208 . S
O1274 Cd1275 2.223 . S
O1274 C1282 1.315 . S
Cd1275 O1274 2.223 . S
Cd1275 O1278 2.297 . S
Cd1275 O1279 2.439 . S
Cd1275 O1285 2.240 . S
Cd1276 O1277 2.240 . S
Cd1276 O1284 2.223 . S
Cd1276 O1286 2.297 . S
Cd1276 O1287 2.439 . S
O1277 Cd1276 2.240 . S
O1277 C1282 1.279 . S
O1278 Cd1275 2.297 . S
O1278 C1280 1.247 . S
O1279 Cd1275 2.439 . S
O1279 C1280 1.208 . S
C1280 O1278 1.247 . S
C1280 O1279 1.208 . S
C1281 O1286 1.247 . S
C1281 O1287 1.208 . S
C1282 O1274 1.315 . S
C1282 O1277 1.279 . S
C1283 O1284 1.315 . S
C1283 O1285 1.279 . S
O1284 Cd1276 2.223 . S
O1284 C1283 1.315 . S
O1285 Cd1275 2.240 . S
O1285 C1283 1.279 . S
O1286 Cd1276 2.297 . S
O1286 C1281 1.247 . S
O1287 Cd1276 2.439 . S
O1287 C1281 1.208 . S
O1288 Cd1289 2.223 . S
O1288 C1296 1.315 . S
Cd1289 O1288 2.223 . S
Cd1289 O1292 2.297 . S
Cd1289 O1293 2.439 . S
Cd1289 O1299 2.240 . S
Cd1290 O1291 2.240 . S
Cd1290 O1298 2.223 . S
Cd1290 O1300 2.297 . S
Cd1290 O1301 2.439 . S
O1291 Cd1290 2.240 . S
O1291 C1296 1.279 . S
O1292 Cd1289 2.297 . S
O1292 C1294 1.247 . S
O1293 Cd1289 2.439 . S
O1293 C1294 1.208 . S
C1294 O1292 1.247 . S
C1294 O1293 1.208 . S
C1295 O1300 1.247 . S
C1295 O1301 1.208 . S
C1296 O1288 1.315 . S
C1296 O1291 1.279 . S
C1297 O1298 1.315 . S
C1297 O1299 1.279 . S
O1298 Cd1290 2.223 . S
O1298 C1297 1.315 . S
O1299 Cd1289 2.240 . S
O1299 C1297 1.279 . S
O1300 Cd1290 2.297 . S
O1300 C1295 1.247 . S
O1301 Cd1290 2.439 . S
O1301 C1295 1.208 . S
O1302 Cd1303 2.223 . S
O1302 C1310 1.315 . S
Cd1303 O1302 2.223 . S
Cd1303 O1306 2.297 . S
Cd1303 O1307 2.439 . S
Cd1303 O1313 2.240 . S
Cd1304 O1305 2.240 . S
Cd1304 O1312 2.223 . S
Cd1304 O1314 2.297 . S
Cd1304 O1315 2.439 . S
O1305 Cd1304 2.240 . S
O1305 C1310 1.279 . S
O1306 Cd1303 2.297 . S
O1306 C1308 1.247 . S
O1307 Cd1303 2.439 . S
O1307 C1308 1.208 . S
C1308 O1306 1.247 . S
C1308 O1307 1.208 . S
C1309 O1314 1.247 . S
C1309 O1315 1.208 . S
C1310 O1302 1.315 . S
C1310 O1305 1.279 . S
C1311 O1312 1.315 . S
C1311 O1313 1.279 . S
O1312 Cd1304 2.223 . S
O1312 C1311 1.315 . S
O1313 Cd1303 2.240 . S
O1313 C1311 1.279 . S
O1314 Cd1304 2.297 . S
O1314 C1309 1.247 . S
O1315 Cd1304 2.439 . S
O1315 C1309 1.208 . S
O1316 Cd1317 2.223 . S
O1316 C1324 1.315 . S
Cd1317 O1316 2.223 . S
Cd1317 O1320 2.297 . S
Cd1317 O1321 2.439 . S
Cd1317 O1327 2.240 . S
Cd1318 O1319 2.240 . S
Cd1318 O1326 2.223 . S
Cd1318 O1328 2.297 . S
Cd1318 O1329 2.439 . S
O1319 Cd1318 2.240 . S
O1319 C1324 1.279 . S
O1320 Cd1317 2.297 . S
O1320 C1322 1.247 . S
O1321 Cd1317 2.439 . S
O1321 C1322 1.208 . S
C1322 O1320 1.247 . S
C1322 O1321 1.208 . S
C1323 O1328 1.247 . S
C1323 O1329 1.208 . S
C1324 O1316 1.315 . S
C1324 O1319 1.279 . S
C1325 O1326 1.315 . S
C1325 O1327 1.279 . S
O1326 Cd1318 2.223 . S
O1326 C1325 1.315 . S
O1327 Cd1317 2.240 . S
O1327 C1325 1.279 . S
O1328 Cd1318 2.297 . S
O1328 C1323 1.247 . S
O1329 Cd1318 2.439 . S
O1329 C1323 1.208 . S
O1330 Cd1331 2.223 . S
O1330 C1338 1.315 . S
Cd1331 O1330 2.223 . S
Cd1331 O1334 2.297 . S
Cd1331 O1335 2.439 . S
Cd1331 O1341 2.240 . S
Cd1332 O1333 2.240 . S
Cd1332 O1340 2.223 . S
Cd1332 O1342 2.297 . S
Cd1332 O1343 2.439 . S
O1333 Cd1332 2.240 . S
O1333 C1338 1.279 . S
O1334 Cd1331 2.297 . S
O1334 C1336 1.247 . S
O1335 Cd1331 2.439 . S
O1335 C1336 1.208 . S
C1336 O1334 1.247 . S
C1336 O1335 1.208 . S
C1337 O1342 1.247 . S
C1337 O1343 1.208 . S
C1338 O1330 1.315 . S
C1338 O1333 1.279 . S
C1339 O1340 1.315 . S
C1339 O1341 1.279 . S
O1340 Cd1332 2.223 . S
O1340 C1339 1.315 . S
O1341 Cd1331 2.240 . S
O1341 C1339 1.279 . S
O1342 Cd1332 2.297 . S
O1342 C1337 1.247 . S
O1343 Cd1332 2.439 . S
O1343 C1337 1.208 . S
H1344 C1350 0.930 . S
H1345 C1354 0.930 . S
H1346 C1359 0.929 . S
H1347 C1357 0.929 . S
H1348 C1352 0.929 . S
H1349 C1358 0.929 . S
C1350 H1344 0.930 . S
C1350 C1351 1.367 . S
C1350 C1358 1.378 . S
C1351 C1350 1.367 . S
C1351 C1359 1.433 . S
C1352 H1348 0.929 . S
C1352 C1354 1.378 . S
C1352 C1356 1.350 . S
C1353 C1356 1.463 . S
C1353 C1358 1.350 . S
C1353 N1361 1.427 . S
C1354 H1345 0.930 . S
C1354 C1352 1.378 . S
C1354 C1355 1.367 . S
C1355 C1354 1.367 . S
C1355 C1357 1.433 . S
C1356 C1352 1.350 . S
C1356 C1353 1.463 . S
C1356 N1360 1.427 . S
C1357 H1347 0.929 . S
C1357 C1355 1.433 . S
C1357 N1360 1.384 . S
C1358 H1349 0.929 . S
C1358 C1350 1.378 . S
C1358 C1353 1.350 . S
C1359 H1346 0.929 . S
C1359 C1351 1.433 . S
C1359 N1361 1.384 . S
N1360 C1356 1.427 . S
N1360 C1357 1.384 . S
N1361 C1353 1.427 . S
N1361 C1359 1.384 . S
H1362 C1368 0.930 . S
H1363 C1372 0.930 . S
H1364 C1377 0.929 . S
H1365 C1375 0.929 . S
H1366 C1370 0.929 . S
H1367 C1376 0.929 . S
C1368 H1362 0.930 . S
C1368 C1369 1.367 . S
C1368 C1376 1.378 . S
C1369 C1368 1.367 . S
C1369 C1377 1.433 . S
C1370 H1366 0.929 . S
C1370 C1372 1.378 . S
C1370 C1374 1.350 . S
C1371 C1374 1.463 . S
C1371 C1376 1.350 . S
C1371 N1379 1.427 . S
C1372 H1363 0.930 . S
C1372 C1370 1.378 . S
C1372 C1373 1.367 . S
C1373 C1372 1.367 . S
C1373 C1375 1.433 . S
C1374 C1370 1.350 . S
C1374 C1371 1.463 . S
C1374 N1378 1.427 . S
C1375 H1365 0.929 . S
C1375 C1373 1.433 . S
C1375 N1378 1.384 . S
C1376 H1367 0.929 . S
C1376 C1368 1.378 . S
C1376 C1371 1.350 . S
C1377 H1364 0.929 . S
C1377 C1369 1.433 . S
C1377 N1379 1.384 . S
N1378 C1374 1.427 . S
N1378 C1375 1.384 . S
N1379 C1371 1.427 . S
N1379 C1377 1.384 . S
H1380 C1386 0.930 . S
H1381 C1390 0.930 . S
H1382 C1395 0.929 . S
H1383 C1393 0.929 . S
H1384 C1388 0.929 . S
H1385 C1394 0.929 . S
C1386 H1380 0.930 . S
C1386 C1387 1.367 . S
C1386 C1394 1.378 . S
C1387 C1386 1.367 . S
C1387 C1395 1.433 . S
C1388 H1384 0.929 . S
C1388 C1390 1.378 . S
C1388 C1392 1.350 . S
C1389 C1392 1.463 . S
C1389 C1394 1.350 . S
C1389 N1397 1.427 . S
C1390 H1381 0.930 . S
C1390 C1388 1.378 . S
C1390 C1391 1.367 . S
C1391 C1390 1.367 . S
C1391 C1393 1.433 . S
C1392 C1388 1.350 . S
C1392 C1389 1.463 . S
C1392 N1396 1.427 . S
C1393 H1383 0.929 . S
C1393 C1391 1.433 . S
C1393 N1396 1.384 . S
C1394 H1385 0.929 . S
C1394 C1386 1.378 . S
C1394 C1389 1.350 . S
C1395 H1382 0.929 . S
C1395 C1387 1.433 . S
C1395 N1397 1.384 . S
N1396 C1392 1.427 . S
N1396 C1393 1.384 . S
N1397 C1389 1.427 . S
N1397 C1395 1.384 . S
H1398 C1404 0.930 . S
H1399 C1408 0.930 . S
H1400 C1413 0.929 . S
H1401 C1411 0.929 . S
H1402 C1406 0.929 . S
H1403 C1412 0.929 . S
C1404 H1398 0.930 . S
C1404 C1405 1.367 . S
C1404 C1412 1.378 . S
C1405 C1404 1.367 . S
C1405 C1413 1.433 . S
C1406 H1402 0.929 . S
C1406 C1408 1.378 . S
C1406 C1410 1.350 . S
C1407 C1410 1.463 . S
C1407 C1412 1.350 . S
C1407 N1415 1.427 . S
C1408 H1399 0.930 . S
C1408 C1406 1.378 . S
C1408 C1409 1.367 . S
C1409 C1408 1.367 . S
C1409 C1411 1.433 . S
C1410 C1406 1.350 . S
C1410 C1407 1.463 . S
C1410 N1414 1.427 . S
C1411 H1401 0.929 . S
C1411 C1409 1.433 . S
C1411 N1414 1.384 . S
C1412 H1403 0.929 . S
C1412 C1404 1.378 . S
C1412 C1407 1.350 . S
C1413 H1400 0.929 . S
C1413 C1405 1.433 . S
C1413 N1415 1.384 . S
N1414 C1410 1.427 . S
N1414 C1411 1.384 . S
N1415 C1407 1.427 . S
N1415 C1413 1.384 . S
H1416 C1422 0.930 . S
H1417 C1426 0.930 . S
H1418 C1431 0.929 . S
H1419 C1429 0.929 . S
H1420 C1424 0.929 . S
H1421 C1430 0.929 . S
C1422 H1416 0.930 . S
C1422 C1423 1.367 . S
C1422 C1430 1.378 . S
C1423 C1422 1.367 . S
C1423 C1431 1.433 . S
C1424 H1420 0.929 . S
C1424 C1426 1.378 . S
C1424 C1428 1.350 . S
C1425 C1428 1.463 . S
C1425 C1430 1.350 . S
C1425 N1433 1.427 . S
C1426 H1417 0.930 . S
C1426 C1424 1.378 . S
C1426 C1427 1.367 . S
C1427 C1426 1.367 . S
C1427 C1429 1.433 . S
C1428 C1424 1.350 . S
C1428 C1425 1.463 . S
C1428 N1432 1.427 . S
C1429 H1419 0.929 . S
C1429 C1427 1.433 . S
C1429 N1432 1.384 . S
C1430 H1421 0.929 . S
C1430 C1422 1.378 . S
C1430 C1425 1.350 . S
C1431 H1418 0.929 . S
C1431 C1423 1.433 . S
C1431 N1433 1.384 . S
N1432 C1428 1.427 . S
N1432 C1429 1.384 . S
N1433 C1425 1.427 . S
N1433 C1431 1.384 . S
H1434 C1440 0.930 . S
H1435 C1444 0.930 . S
H1436 C1449 0.929 . S
H1437 C1447 0.929 . S
H1438 C1442 0.929 . S
H1439 C1448 0.929 . S
C1440 H1434 0.930 . S
C1440 C1441 1.367 . S
C1440 C1448 1.378 . S
C1441 C1440 1.367 . S
C1441 C1449 1.433 . S
C1442 H1438 0.929 . S
C1442 C1444 1.378 . S
C1442 C1446 1.350 . S
C1443 C1446 1.463 . S
C1443 C1448 1.350 . S
C1443 N1451 1.427 . S
C1444 H1435 0.930 . S
C1444 C1442 1.378 . S
C1444 C1445 1.367 . S
C1445 C1444 1.367 . S
C1445 C1447 1.433 . S
C1446 C1442 1.350 . S
C1446 C1443 1.463 . S
C1446 N1450 1.427 . S
C1447 H1437 0.929 . S
C1447 C1445 1.433 . S
C1447 N1450 1.384 . S
C1448 H1439 0.929 . S
C1448 C1440 1.378 . S
C1448 C1443 1.350 . S
C1449 H1436 0.929 . S
C1449 C1441 1.433 . S
C1449 N1451 1.384 . S
N1450 C1446 1.427 . S
N1450 C1447 1.384 . S
N1451 C1443 1.427 . S
N1451 C1449 1.384 . S
H1452 C1458 0.930 . S
H1453 C1462 0.930 . S
H1454 C1467 0.929 . S
H1455 C1465 0.929 . S
H1456 C1460 0.929 . S
H1457 C1466 0.929 . S
C1458 H1452 0.930 . S
C1458 C1459 1.367 . S
C1458 C1466 1.378 . S
C1459 C1458 1.367 . S
C1459 C1467 1.433 . S
C1460 H1456 0.929 . S
C1460 C1462 1.378 . S
C1460 C1464 1.350 . S
C1461 C1464 1.463 . S
C1461 C1466 1.350 . S
C1461 N1469 1.427 . S
C1462 H1453 0.930 . S
C1462 C1460 1.378 . S
C1462 C1463 1.367 . S
C1463 C1462 1.367 . S
C1463 C1465 1.433 . S
C1464 C1460 1.350 . S
C1464 C1461 1.463 . S
C1464 N1468 1.427 . S
C1465 H1455 0.929 . S
C1465 C1463 1.433 . S
C1465 N1468 1.384 . S
C1466 H1457 0.929 . S
C1466 C1458 1.378 . S
C1466 C1461 1.350 . S
C1467 H1454 0.929 . S
C1467 C1459 1.433 . S
C1467 N1469 1.384 . S
N1468 C1464 1.427 . S
N1468 C1465 1.384 . S
N1469 C1461 1.427 . S
N1469 C1467 1.384 . S
H1470 C1476 0.930 . S
H1471 C1480 0.930 . S
H1472 C1485 0.929 . S
H1473 C1483 0.929 . S
H1474 C1478 0.929 . S
H1475 C1484 0.929 . S
C1476 H1470 0.930 . S
C1476 C1477 1.367 . S
C1476 C1484 1.378 . S
C1477 C1476 1.367 . S
C1477 C1485 1.433 . S
C1478 H1474 0.929 . S
C1478 C1480 1.378 . S
C1478 C1482 1.350 . S
C1479 C1482 1.463 . S
C1479 C1484 1.350 . S
C1479 N1487 1.427 . S
C1480 H1471 0.930 . S
C1480 C1478 1.378 . S
C1480 C1481 1.367 . S
C1481 C1480 1.367 . S
C1481 C1483 1.433 . S
C1482 C1478 1.350 . S
C1482 C1479 1.463 . S
C1482 N1486 1.427 . S
C1483 H1473 0.929 . S
C1483 C1481 1.433 . S
C1483 N1486 1.384 . S
C1484 H1475 0.929 . S
C1484 C1476 1.378 . S
C1484 C1479 1.350 . S
C1485 H1472 0.929 . S
C1485 C1477 1.433 . S
C1485 N1487 1.384 . S
N1486 C1482 1.427 . S
N1486 C1483 1.384 . S
N1487 C1479 1.427 . S
N1487 C1485 1.384 . S
H1488 C1494 0.930 . S
H1489 C1498 0.930 . S
H1490 C1503 0.929 . S
H1491 C1501 0.929 . S
H1492 C1496 0.929 . S
H1493 C1502 0.929 . S
C1494 H1488 0.930 . S
C1494 C1495 1.367 . S
C1494 C1502 1.378 . S
C1495 C1494 1.367 . S
C1495 C1503 1.433 . S
C1496 H1492 0.929 . S
C1496 C1498 1.378 . S
C1496 C1500 1.350 . S
C1497 C1500 1.463 . S
C1497 C1502 1.350 . S
C1497 N1505 1.427 . S
C1498 H1489 0.930 . S
C1498 C1496 1.378 . S
C1498 C1499 1.367 . S
C1499 C1498 1.367 . S
C1499 C1501 1.433 . S
C1500 C1496 1.350 . S
C1500 C1497 1.463 . S
C1500 N1504 1.427 . S
C1501 H1491 0.929 . S
C1501 C1499 1.433 . S
C1501 N1504 1.384 . S
C1502 H1493 0.929 . S
C1502 C1494 1.378 . S
C1502 C1497 1.350 . S
C1503 H1490 0.929 . S
C1503 C1495 1.433 . S
C1503 N1505 1.384 . S
N1504 C1500 1.427 . S
N1504 C1501 1.384 . S
N1505 C1497 1.427 . S
N1505 C1503 1.384 . S
H1506 C1512 0.930 . S
H1507 C1516 0.930 . S
H1508 C1521 0.929 . S
H1509 C1519 0.929 . S
H1510 C1514 0.929 . S
H1511 C1520 0.929 . S
C1512 H1506 0.930 . S
C1512 C1513 1.367 . S
C1512 C1520 1.378 . S
C1513 C1512 1.367 . S
C1513 C1521 1.433 . S
C1514 H1510 0.929 . S
C1514 C1516 1.378 . S
C1514 C1518 1.350 . S
C1515 C1518 1.463 . S
C1515 C1520 1.350 . S
C1515 N1523 1.427 . S
C1516 H1507 0.930 . S
C1516 C1514 1.378 . S
C1516 C1517 1.367 . S
C1517 C1516 1.367 . S
C1517 C1519 1.433 . S
C1518 C1514 1.350 . S
C1518 C1515 1.463 . S
C1518 N1522 1.427 . S
C1519 H1509 0.929 . S
C1519 C1517 1.433 . S
C1519 N1522 1.384 . S
C1520 H1511 0.929 . S
C1520 C1512 1.378 . S
C1520 C1515 1.350 . S
C1521 H1508 0.929 . S
C1521 C1513 1.433 . S
C1521 N1523 1.384 . S
N1522 C1518 1.427 . S
N1522 C1519 1.384 . S
N1523 C1515 1.427 . S
N1523 C1521 1.384 . S
H1524 C1530 0.930 . S
H1525 C1534 0.930 . S
H1526 C1539 0.929 . S
H1527 C1537 0.929 . S
H1528 C1532 0.929 . S
H1529 C1538 0.929 . S
C1530 H1524 0.930 . S
C1530 C1531 1.367 . S
C1530 C1538 1.378 . S
C1531 C1530 1.367 . S
C1531 C1539 1.433 . S
C1532 H1528 0.929 . S
C1532 C1534 1.378 . S
C1532 C1536 1.350 . S
C1533 C1536 1.463 . S
C1533 C1538 1.350 . S
C1533 N1541 1.427 . S
C1534 H1525 0.930 . S
C1534 C1532 1.378 . S
C1534 C1535 1.367 . S
C1535 C1534 1.367 . S
C1535 C1537 1.433 . S
C1536 C1532 1.350 . S
C1536 C1533 1.463 . S
C1536 N1540 1.427 . S
C1537 H1527 0.929 . S
C1537 C1535 1.433 . S
C1537 N1540 1.384 . S
C1538 H1529 0.929 . S
C1538 C1530 1.378 . S
C1538 C1533 1.350 . S
C1539 H1526 0.929 . S
C1539 C1531 1.433 . S
C1539 N1541 1.384 . S
N1540 C1536 1.427 . S
N1540 C1537 1.384 . S
N1541 C1533 1.427 . S
N1541 C1539 1.384 . S
H1542 C1548 0.930 . S
H1543 C1552 0.930 . S
H1544 C1557 0.929 . S
H1545 C1555 0.929 . S
H1546 C1550 0.929 . S
H1547 C1556 0.929 . S
C1548 H1542 0.930 . S
C1548 C1549 1.367 . S
C1548 C1556 1.378 . S
C1549 C1548 1.367 . S
C1549 C1557 1.433 . S
C1550 H1546 0.929 . S
C1550 C1552 1.378 . S
C1550 C1554 1.350 . S
C1551 C1554 1.463 . S
C1551 C1556 1.350 . S
C1551 N1559 1.427 . S
C1552 H1543 0.930 . S
C1552 C1550 1.378 . S
C1552 C1553 1.367 . S
C1553 C1552 1.367 . S
C1553 C1555 1.433 . S
C1554 C1550 1.350 . S
C1554 C1551 1.463 . S
C1554 N1558 1.427 . S
C1555 H1545 0.929 . S
C1555 C1553 1.433 . S
C1555 N1558 1.384 . S
C1556 H1547 0.929 . S
C1556 C1548 1.378 . S
C1556 C1551 1.350 . S
C1557 H1544 0.929 . S
C1557 C1549 1.433 . S
C1557 N1559 1.384 . S
N1558 C1554 1.427 . S
N1558 C1555 1.384 . S
N1559 C1551 1.427 . S
N1559 C1557 1.384 . S
H1560 C1566 0.930 . S
H1561 C1570 0.930 . S
H1562 C1575 0.929 . S
H1563 C1573 0.929 . S
H1564 C1568 0.929 . S
H1565 C1574 0.929 . S
C1566 H1560 0.930 . S
C1566 C1567 1.367 . S
C1566 C1574 1.378 . S
C1567 C1566 1.367 . S
C1567 C1575 1.433 . S
C1568 H1564 0.929 . S
C1568 C1570 1.378 . S
C1568 C1572 1.350 . S
C1569 C1572 1.463 . S
C1569 C1574 1.350 . S
C1569 N1577 1.427 . S
C1570 H1561 0.930 . S
C1570 C1568 1.378 . S
C1570 C1571 1.367 . S
C1571 C1570 1.367 . S
C1571 C1573 1.433 . S
C1572 C1568 1.350 . S
C1572 C1569 1.463 . S
C1572 N1576 1.427 . S
C1573 H1563 0.929 . S
C1573 C1571 1.433 . S
C1573 N1576 1.384 . S
C1574 H1565 0.929 . S
C1574 C1566 1.378 . S
C1574 C1569 1.350 . S
C1575 H1562 0.929 . S
C1575 C1567 1.433 . S
C1575 N1577 1.384 . S
N1576 C1572 1.427 . S
N1576 C1573 1.384 . S
N1577 C1569 1.427 . S
N1577 C1575 1.384 . S
H1578 C1584 0.930 . S
H1579 C1588 0.930 . S
H1580 C1593 0.929 . S
H1581 C1591 0.929 . S
H1582 C1586 0.929 . S
H1583 C1592 0.929 . S
C1584 H1578 0.930 . S
C1584 C1585 1.367 . S
C1584 C1592 1.378 . S
C1585 C1584 1.367 . S
C1585 C1593 1.433 . S
C1586 H1582 0.929 . S
C1586 C1588 1.378 . S
C1586 C1590 1.350 . S
C1587 C1590 1.463 . S
C1587 C1592 1.350 . S
C1587 N1595 1.427 . S
C1588 H1579 0.930 . S
C1588 C1586 1.378 . S
C1588 C1589 1.367 . S
C1589 C1588 1.367 . S
C1589 C1591 1.433 . S
C1590 C1586 1.350 . S
C1590 C1587 1.463 . S
C1590 N1594 1.427 . S
C1591 H1581 0.929 . S
C1591 C1589 1.433 . S
C1591 N1594 1.384 . S
C1592 H1583 0.929 . S
C1592 C1584 1.378 . S
C1592 C1587 1.350 . S
C1593 H1580 0.929 . S
C1593 C1585 1.433 . S
C1593 N1595 1.384 . S
N1594 C1590 1.427 . S
N1594 C1591 1.384 . S
N1595 C1587 1.427 . S
N1595 C1593 1.384 . S
H1596 C1602 0.930 . S
H1597 C1606 0.930 . S
H1598 C1611 0.929 . S
H1599 C1609 0.929 . S
H1600 C1604 0.929 . S
H1601 C1610 0.929 . S
C1602 H1596 0.930 . S
C1602 C1603 1.367 . S
C1602 C1610 1.378 . S
C1603 C1602 1.367 . S
C1603 C1611 1.433 . S
C1604 H1600 0.929 . S
C1604 C1606 1.378 . S
C1604 C1608 1.350 . S
C1605 C1608 1.463 . S
C1605 C1610 1.350 . S
C1605 N1613 1.427 . S
C1606 H1597 0.930 . S
C1606 C1604 1.378 . S
C1606 C1607 1.367 . S
C1607 C1606 1.367 . S
C1607 C1609 1.433 . S
C1608 C1604 1.350 . S
C1608 C1605 1.463 . S
C1608 N1612 1.427 . S
C1609 H1599 0.929 . S
C1609 C1607 1.433 . S
C1609 N1612 1.384 . S
C1610 H1601 0.929 . S
C1610 C1602 1.378 . S
C1610 C1605 1.350 . S
C1611 H1598 0.929 . S
C1611 C1603 1.433 . S
C1611 N1613 1.384 . S
N1612 C1608 1.427 . S
N1612 C1609 1.384 . S
N1613 C1605 1.427 . S
N1613 C1611 1.384 . S
H1614 C1620 0.930 . S
H1615 C1624 0.930 . S
H1616 C1629 0.929 . S
H1617 C1627 0.929 . S
H1618 C1622 0.929 . S
H1619 C1628 0.929 . S
C1620 H1614 0.930 . S
C1620 C1621 1.367 . S
C1620 C1628 1.378 . S
C1621 C1620 1.367 . S
C1621 C1629 1.433 . S
C1622 H1618 0.929 . S
C1622 C1624 1.378 . S
C1622 C1626 1.350 . S
C1623 C1626 1.463 . S
C1623 C1628 1.350 . S
C1623 N1631 1.427 . S
C1624 H1615 0.930 . S
C1624 C1622 1.378 . S
C1624 C1625 1.367 . S
C1625 C1624 1.367 . S
C1625 C1627 1.433 . S
C1626 C1622 1.350 . S
C1626 C1623 1.463 . S
C1626 N1630 1.427 . S
C1627 H1617 0.929 . S
C1627 C1625 1.433 . S
C1627 N1630 1.384 . S
C1628 H1619 0.929 . S
C1628 C1620 1.378 . S
C1628 C1623 1.350 . S
C1629 H1616 0.929 . S
C1629 C1621 1.433 . S
C1629 N1631 1.384 . S
N1630 C1626 1.427 . S
N1630 C1627 1.384 . S
N1631 C1623 1.427 . S
N1631 C1629 1.384 . S
H1632 C1638 0.930 . S
H1633 C1642 0.930 . S
H1634 C1647 0.929 . S
H1635 C1645 0.929 . S
H1636 C1640 0.929 . S
H1637 C1646 0.929 . S
C1638 H1632 0.930 . S
C1638 C1639 1.367 . S
C1638 C1646 1.378 . S
C1639 C1638 1.367 . S
C1639 C1647 1.433 . S
C1640 H1636 0.929 . S
C1640 C1642 1.378 . S
C1640 C1644 1.350 . S
C1641 C1644 1.463 . S
C1641 C1646 1.350 . S
C1641 N1649 1.427 . S
C1642 H1633 0.930 . S
C1642 C1640 1.378 . S
C1642 C1643 1.367 . S
C1643 C1642 1.367 . S
C1643 C1645 1.433 . S
C1644 C1640 1.350 . S
C1644 C1641 1.463 . S
C1644 N1648 1.427 . S
C1645 H1635 0.929 . S
C1645 C1643 1.433 . S
C1645 N1648 1.384 . S
C1646 H1637 0.929 . S
C1646 C1638 1.378 . S
C1646 C1641 1.350 . S
C1647 H1634 0.929 . S
C1647 C1639 1.433 . S
C1647 N1649 1.384 . S
N1648 C1644 1.427 . S
N1648 C1645 1.384 . S
N1649 C1641 1.427 . S
N1649 C1647 1.384 . S
H1650 C1656 0.930 . S
H1651 C1660 0.930 . S
H1652 C1665 0.929 . S
H1653 C1663 0.929 . S
H1654 C1658 0.929 . S
H1655 C1664 0.929 . S
C1656 H1650 0.930 . S
C1656 C1657 1.367 . S
C1656 C1664 1.378 . S
C1657 C1656 1.367 . S
C1657 C1665 1.433 . S
C1658 H1654 0.929 . S
C1658 C1660 1.378 . S
C1658 C1662 1.350 . S
C1659 C1662 1.463 . S
C1659 C1664 1.350 . S
C1659 N1667 1.427 . S
C1660 H1651 0.930 . S
C1660 C1658 1.378 . S
C1660 C1661 1.367 . S
C1661 C1660 1.367 . S
C1661 C1663 1.433 . S
C1662 C1658 1.350 . S
C1662 C1659 1.463 . S
C1662 N1666 1.427 . S
C1663 H1653 0.929 . S
C1663 C1661 1.433 . S
C1663 N1666 1.384 . S
C1664 H1655 0.929 . S
C1664 C1656 1.378 . S
C1664 C1659 1.350 . S
C1665 H1652 0.929 . S
C1665 C1657 1.433 . S
C1665 N1667 1.384 . S
N1666 C1662 1.427 . S
N1666 C1663 1.384 . S
N1667 C1659 1.427 . S
N1667 C1665 1.384 . S
H1668 C1674 0.930 . S
H1669 C1678 0.930 . S
H1670 C1683 0.929 . S
H1671 C1681 0.929 . S
H1672 C1676 0.929 . S
H1673 C1682 0.929 . S
C1674 H1668 0.930 . S
C1674 C1675 1.367 . S
C1674 C1682 1.378 . S
C1675 C1674 1.367 . S
C1675 C1683 1.433 . S
C1676 H1672 0.929 . S
C1676 C1678 1.378 . S
C1676 C1680 1.350 . S
C1677 C1680 1.463 . S
C1677 C1682 1.350 . S
C1677 N1685 1.427 . S
C1678 H1669 0.930 . S
C1678 C1676 1.378 . S
C1678 C1679 1.367 . S
C1679 C1678 1.367 . S
C1679 C1681 1.433 . S
C1680 C1676 1.350 . S
C1680 C1677 1.463 . S
C1680 N1684 1.427 . S
C1681 H1671 0.929 . S
C1681 C1679 1.433 . S
C1681 N1684 1.384 . S
C1682 H1673 0.929 . S
C1682 C1674 1.378 . S
C1682 C1677 1.350 . S
C1683 H1670 0.929 . S
C1683 C1675 1.433 . S
C1683 N1685 1.384 . S
N1684 C1680 1.427 . S
N1684 C1681 1.384 . S
N1685 C1677 1.427 . S
N1685 C1683 1.384 . S
H1686 C1692 0.930 . S
H1687 C1696 0.930 . S
H1688 C1701 0.929 . S
H1689 C1699 0.929 . S
H1690 C1694 0.929 . S
H1691 C1700 0.929 . S
C1692 H1686 0.930 . S
C1692 C1693 1.367 . S
C1692 C1700 1.378 . S
C1693 C1692 1.367 . S
C1693 C1701 1.433 . S
C1694 H1690 0.929 . S
C1694 C1696 1.378 . S
C1694 C1698 1.350 . S
C1695 C1698 1.463 . S
C1695 C1700 1.350 . S
C1695 N1703 1.427 . S
C1696 H1687 0.930 . S
C1696 C1694 1.378 . S
C1696 C1697 1.367 . S
C1697 C1696 1.367 . S
C1697 C1699 1.433 . S
C1698 C1694 1.350 . S
C1698 C1695 1.463 . S
C1698 N1702 1.427 . S
C1699 H1689 0.929 . S
C1699 C1697 1.433 . S
C1699 N1702 1.384 . S
C1700 H1691 0.929 . S
C1700 C1692 1.378 . S
C1700 C1695 1.350 . S
C1701 H1688 0.929 . S
C1701 C1693 1.433 . S
C1701 N1703 1.384 . S
N1702 C1698 1.427 . S
N1702 C1699 1.384 . S
N1703 C1695 1.427 . S
N1703 C1701 1.384 . S
H1704 C1710 0.930 . S
H1705 C1714 0.930 . S
H1706 C1719 0.929 . S
H1707 C1717 0.929 . S
H1708 C1712 0.929 . S
H1709 C1718 0.929 . S
C1710 H1704 0.930 . S
C1710 C1711 1.367 . S
C1710 C1718 1.378 . S
C1711 C1710 1.367 . S
C1711 C1719 1.433 . S
C1712 H1708 0.929 . S
C1712 C1714 1.378 . S
C1712 C1716 1.350 . S
C1713 C1716 1.463 . S
C1713 C1718 1.350 . S
C1713 N1721 1.427 . S
C1714 H1705 0.930 . S
C1714 C1712 1.378 . S
C1714 C1715 1.367 . S
C1715 C1714 1.367 . S
C1715 C1717 1.433 . S
C1716 C1712 1.350 . S
C1716 C1713 1.463 . S
C1716 N1720 1.427 . S
C1717 H1707 0.929 . S
C1717 C1715 1.433 . S
C1717 N1720 1.384 . S
C1718 H1709 0.929 . S
C1718 C1710 1.378 . S
C1718 C1713 1.350 . S
C1719 H1706 0.929 . S
C1719 C1711 1.433 . S
C1719 N1721 1.384 . S
N1720 C1716 1.427 . S
N1720 C1717 1.384 . S
N1721 C1713 1.427 . S
N1721 C1719 1.384 . S
H1722 C1728 0.930 . S
H1723 C1732 0.930 . S
H1724 C1737 0.929 . S
H1725 C1735 0.929 . S
H1726 C1730 0.929 . S
H1727 C1736 0.929 . S
C1728 H1722 0.930 . S
C1728 C1729 1.367 . S
C1728 C1736 1.378 . S
C1729 C1728 1.367 . S
C1729 C1737 1.433 . S
C1730 H1726 0.929 . S
C1730 C1732 1.378 . S
C1730 C1734 1.350 . S
C1731 C1734 1.463 . S
C1731 C1736 1.350 . S
C1731 N1739 1.427 . S
C1732 H1723 0.930 . S
C1732 C1730 1.378 . S
C1732 C1733 1.367 . S
C1733 C1732 1.367 . S
C1733 C1735 1.433 . S
C1734 C1730 1.350 . S
C1734 C1731 1.463 . S
C1734 N1738 1.427 . S
C1735 H1725 0.929 . S
C1735 C1733 1.433 . S
C1735 N1738 1.384 . S
C1736 H1727 0.929 . S
C1736 C1728 1.378 . S
C1736 C1731 1.350 . S
C1737 H1724 0.929 . S
C1737 C1729 1.433 . S
C1737 N1739 1.384 . S
N1738 C1734 1.427 . S
N1738 C1735 1.384 . S
N1739 C1731 1.427 . S
N1739 C1737 1.384 . S
H1740 C1746 0.930 . S
H1741 C1750 0.930 . S
H1742 C1755 0.929 . S
H1743 C1753 0.929 . S
H1744 C1748 0.929 . S
H1745 C1754 0.929 . S
C1746 H1740 0.930 . S
C1746 C1747 1.367 . S
C1746 C1754 1.378 . S
C1747 C1746 1.367 . S
C1747 C1755 1.433 . S
C1748 H1744 0.929 . S
C1748 C1750 1.378 . S
C1748 C1752 1.350 . S
C1749 C1752 1.463 . S
C1749 C1754 1.350 . S
C1749 N1757 1.427 . S
C1750 H1741 0.930 . S
C1750 C1748 1.378 . S
C1750 C1751 1.367 . S
C1751 C1750 1.367 . S
C1751 C1753 1.433 . S
C1752 C1748 1.350 . S
C1752 C1749 1.463 . S
C1752 N1756 1.427 . S
C1753 H1743 0.929 . S
C1753 C1751 1.433 . S
C1753 N1756 1.384 . S
C1754 H1745 0.929 . S
C1754 C1746 1.378 . S
C1754 C1749 1.350 . S
C1755 H1742 0.929 . S
C1755 C1747 1.433 . S
C1755 N1757 1.384 . S
N1756 C1752 1.427 . S
N1756 C1753 1.384 . S
N1757 C1749 1.427 . S
N1757 C1755 1.384 . S
H1758 C1764 0.930 . S
H1759 C1768 0.930 . S
H1760 C1773 0.929 . S
H1761 C1771 0.929 . S
H1762 C1766 0.929 . S
H1763 C1772 0.929 . S
C1764 H1758 0.930 . S
C1764 C1765 1.367 . S
C1764 C1772 1.378 . S
C1765 C1764 1.367 . S
C1765 C1773 1.433 . S
C1766 H1762 0.929 . S
C1766 C1768 1.378 . S
C1766 C1770 1.350 . S
C1767 C1770 1.463 . S
C1767 C1772 1.350 . S
C1767 N1775 1.427 . S
C1768 H1759 0.930 . S
C1768 C1766 1.378 . S
C1768 C1769 1.367 . S
C1769 C1768 1.367 . S
C1769 C1771 1.433 . S
C1770 C1766 1.350 . S
C1770 C1767 1.463 . S
C1770 N1774 1.427 . S
C1771 H1761 0.929 . S
C1771 C1769 1.433 . S
C1771 N1774 1.384 . S
C1772 H1763 0.929 . S
C1772 C1764 1.378 . S
C1772 C1767 1.350 . S
C1773 H1760 0.929 . S
C1773 C1765 1.433 . S
C1773 N1775 1.384 . S
N1774 C1770 1.427 . S
N1774 C1771 1.384 . S
N1775 C1767 1.427 . S
N1775 C1773 1.384 . S
H1776 C1782 0.930 . S
H1777 C1786 0.930 . S
H1778 C1791 0.929 . S
H1779 C1789 0.929 . S
H1780 C1784 0.929 . S
H1781 C1790 0.929 . S
C1782 H1776 0.930 . S
C1782 C1783 1.367 . S
C1782 C1790 1.378 . S
C1783 C1782 1.367 . S
C1783 C1791 1.433 . S
C1784 H1780 0.929 . S
C1784 C1786 1.378 . S
C1784 C1788 1.350 . S
C1785 C1788 1.463 . S
C1785 C1790 1.350 . S
C1785 N1793 1.427 . S
C1786 H1777 0.930 . S
C1786 C1784 1.378 . S
C1786 C1787 1.367 . S
C1787 C1786 1.367 . S
C1787 C1789 1.433 . S
C1788 C1784 1.350 . S
C1788 C1785 1.463 . S
C1788 N1792 1.427 . S
C1789 H1779 0.929 . S
C1789 C1787 1.433 . S
C1789 N1792 1.384 . S
C1790 H1781 0.929 . S
C1790 C1782 1.378 . S
C1790 C1785 1.350 . S
C1791 H1778 0.929 . S
C1791 C1783 1.433 . S
C1791 N1793 1.384 . S
N1792 C1788 1.427 . S
N1792 C1789 1.384 . S
N1793 C1785 1.427 . S
N1793 C1791 1.384 . S
H1794 C1800 0.930 . S
H1795 C1804 0.930 . S
H1796 C1809 0.929 . S
H1797 C1807 0.929 . S
H1798 C1802 0.929 . S
H1799 C1808 0.929 . S
C1800 H1794 0.930 . S
C1800 C1801 1.367 . S
C1800 C1808 1.378 . S
C1801 C1800 1.367 . S
C1801 C1809 1.433 . S
C1802 H1798 0.929 . S
C1802 C1804 1.378 . S
C1802 C1806 1.350 . S
C1803 C1806 1.463 . S
C1803 C1808 1.350 . S
C1803 N1811 1.427 . S
C1804 H1795 0.930 . S
C1804 C1802 1.378 . S
C1804 C1805 1.367 . S
C1805 C1804 1.367 . S
C1805 C1807 1.433 . S
C1806 C1802 1.350 . S
C1806 C1803 1.463 . S
C1806 N1810 1.427 . S
C1807 H1797 0.929 . S
C1807 C1805 1.433 . S
C1807 N1810 1.384 . S
C1808 H1799 0.929 . S
C1808 C1800 1.378 . S
C1808 C1803 1.350 . S
C1809 H1796 0.929 . S
C1809 C1801 1.433 . S
C1809 N1811 1.384 . S
N1810 C1806 1.427 . S
N1810 C1807 1.384 . S
N1811 C1803 1.427 . S
N1811 C1809 1.384 . S
H1812 C1818 0.930 . S
H1813 C1822 0.930 . S
H1814 C1827 0.929 . S
H1815 C1825 0.929 . S
H1816 C1820 0.929 . S
H1817 C1826 0.929 . S
C1818 H1812 0.930 . S
C1818 C1819 1.367 . S
C1818 C1826 1.378 . S
C1819 C1818 1.367 . S
C1819 C1827 1.433 . S
C1820 H1816 0.929 . S
C1820 C1822 1.378 . S
C1820 C1824 1.350 . S
C1821 C1824 1.463 . S
C1821 C1826 1.350 . S
C1821 N1829 1.427 . S
C1822 H1813 0.930 . S
C1822 C1820 1.378 . S
C1822 C1823 1.367 . S
C1823 C1822 1.367 . S
C1823 C1825 1.433 . S
C1824 C1820 1.350 . S
C1824 C1821 1.463 . S
C1824 N1828 1.427 . S
C1825 H1815 0.929 . S
C1825 C1823 1.433 . S
C1825 N1828 1.384 . S
C1826 H1817 0.929 . S
C1826 C1818 1.378 . S
C1826 C1821 1.350 . S
C1827 H1814 0.929 . S
C1827 C1819 1.433 . S
C1827 N1829 1.384 . S
N1828 C1824 1.427 . S
N1828 C1825 1.384 . S
N1829 C1821 1.427 . S
N1829 C1827 1.384 . S
H1830 C1836 0.930 . S
H1831 C1840 0.930 . S
H1832 C1845 0.929 . S
H1833 C1843 0.929 . S
H1834 C1838 0.929 . S
H1835 C1844 0.929 . S
C1836 H1830 0.930 . S
C1836 C1837 1.367 . S
C1836 C1844 1.378 . S
C1837 C1836 1.367 . S
C1837 C1845 1.433 . S
C1838 H1834 0.929 . S
C1838 C1840 1.378 . S
C1838 C1842 1.350 . S
C1839 C1842 1.463 . S
C1839 C1844 1.350 . S
C1839 N1847 1.427 . S
C1840 H1831 0.930 . S
C1840 C1838 1.378 . S
C1840 C1841 1.367 . S
C1841 C1840 1.367 . S
C1841 C1843 1.433 . S
C1842 C1838 1.350 . S
C1842 C1839 1.463 . S
C1842 N1846 1.427 . S
C1843 H1833 0.929 . S
C1843 C1841 1.433 . S
C1843 N1846 1.384 . S
C1844 H1835 0.929 . S
C1844 C1836 1.378 . S
C1844 C1839 1.350 . S
C1845 H1832 0.929 . S
C1845 C1837 1.433 . S
C1845 N1847 1.384 . S
N1846 C1842 1.427 . S
N1846 C1843 1.384 . S
N1847 C1839 1.427 . S
N1847 C1845 1.384 . S
H1848 C1854 0.930 . S
H1849 C1858 0.930 . S
H1850 C1863 0.929 . S
H1851 C1861 0.929 . S
H1852 C1856 0.929 . S
H1853 C1862 0.929 . S
C1854 H1848 0.930 . S
C1854 C1855 1.367 . S
C1854 C1862 1.378 . S
C1855 C1854 1.367 . S
C1855 C1863 1.433 . S
C1856 H1852 0.929 . S
C1856 C1858 1.378 . S
C1856 C1860 1.350 . S
C1857 C1860 1.463 . S
C1857 C1862 1.350 . S
C1857 N1865 1.427 . S
C1858 H1849 0.930 . S
C1858 C1856 1.378 . S
C1858 C1859 1.367 . S
C1859 C1858 1.367 . S
C1859 C1861 1.433 . S
C1860 C1856 1.350 . S
C1860 C1857 1.463 . S
C1860 N1864 1.427 . S
C1861 H1851 0.929 . S
C1861 C1859 1.433 . S
C1861 N1864 1.384 . S
C1862 H1853 0.929 . S
C1862 C1854 1.378 . S
C1862 C1857 1.350 . S
C1863 H1850 0.929 . S
C1863 C1855 1.433 . S
C1863 N1865 1.384 . S
N1864 C1860 1.427 . S
N1864 C1861 1.384 . S
N1865 C1857 1.427 . S
N1865 C1863 1.384 . S
H1866 C1872 0.930 . S
H1867 C1876 0.930 . S
H1868 C1881 0.929 . S
H1869 C1879 0.929 . S
H1870 C1874 0.929 . S
H1871 C1880 0.929 . S
C1872 H1866 0.930 . S
C1872 C1873 1.367 . S
C1872 C1880 1.378 . S
C1873 C1872 1.367 . S
C1873 C1881 1.433 . S
C1874 H1870 0.929 . S
C1874 C1876 1.378 . S
C1874 C1878 1.350 . S
C1875 C1878 1.463 . S
C1875 C1880 1.350 . S
C1875 N1883 1.427 . S
C1876 H1867 0.930 . S
C1876 C1874 1.378 . S
C1876 C1877 1.367 . S
C1877 C1876 1.367 . S
C1877 C1879 1.433 . S
C1878 C1874 1.350 . S
C1878 C1875 1.463 . S
C1878 N1882 1.427 . S
C1879 H1869 0.929 . S
C1879 C1877 1.433 . S
C1879 N1882 1.384 . S
C1880 H1871 0.929 . S
C1880 C1872 1.378 . S
C1880 C1875 1.350 . S
C1881 H1868 0.929 . S
C1881 C1873 1.433 . S
C1881 N1883 1.384 . S
N1882 C1878 1.427 . S
N1882 C1879 1.384 . S
N1883 C1875 1.427 . S
N1883 C1881 1.384 . S
H1884 C1890 0.930 . S
H1885 C1894 0.930 . S
H1886 C1899 0.929 . S
H1887 C1897 0.929 . S
H1888 C1892 0.929 . S
H1889 C1898 0.929 . S
C1890 H1884 0.930 . S
C1890 C1891 1.367 . S
C1890 C1898 1.378 . S
C1891 C1890 1.367 . S
C1891 C1899 1.433 . S
C1892 H1888 0.929 . S
C1892 C1894 1.378 . S
C1892 C1896 1.350 . S
C1893 C1896 1.463 . S
C1893 C1898 1.350 . S
C1893 N1901 1.427 . S
C1894 H1885 0.930 . S
C1894 C1892 1.378 . S
C1894 C1895 1.367 . S
C1895 C1894 1.367 . S
C1895 C1897 1.433 . S
C1896 C1892 1.350 . S
C1896 C1893 1.463 . S
C1896 N1900 1.427 . S
C1897 H1887 0.929 . S
C1897 C1895 1.433 . S
C1897 N1900 1.384 . S
C1898 H1889 0.929 . S
C1898 C1890 1.378 . S
C1898 C1893 1.350 . S
C1899 H1886 0.929 . S
C1899 C1891 1.433 . S
C1899 N1901 1.384 . S
N1900 C1896 1.427 . S
N1900 C1897 1.384 . S
N1901 C1893 1.427 . S
N1901 C1899 1.384 . S
H1902 C1908 0.930 . S
H1903 C1912 0.930 . S
H1904 C1917 0.929 . S
H1905 C1915 0.929 . S
H1906 C1910 0.929 . S
H1907 C1916 0.929 . S
C1908 H1902 0.930 . S
C1908 C1909 1.367 . S
C1908 C1916 1.378 . S
C1909 C1908 1.367 . S
C1909 C1917 1.433 . S
C1910 H1906 0.929 . S
C1910 C1912 1.378 . S
C1910 C1914 1.350 . S
C1911 C1914 1.463 . S
C1911 C1916 1.350 . S
C1911 N1919 1.427 . S
C1912 H1903 0.930 . S
C1912 C1910 1.378 . S
C1912 C1913 1.367 . S
C1913 C1912 1.367 . S
C1913 C1915 1.433 . S
C1914 C1910 1.350 . S
C1914 C1911 1.463 . S
C1914 N1918 1.427 . S
C1915 H1905 0.929 . S
C1915 C1913 1.433 . S
C1915 N1918 1.384 . S
C1916 H1907 0.929 . S
C1916 C1908 1.378 . S
C1916 C1911 1.350 . S
C1917 H1904 0.929 . S
C1917 C1909 1.433 . S
C1917 N1919 1.384 . S
N1918 C1914 1.427 . S
N1918 C1915 1.384 . S
N1919 C1911 1.427 . S
N1919 C1917 1.384 . S
H1920 C1926 0.930 . S
H1921 C1930 0.930 . S
H1922 C1935 0.929 . S
H1923 C1933 0.929 . S
H1924 C1928 0.929 . S
H1925 C1934 0.929 . S
C1926 H1920 0.930 . S
C1926 C1927 1.367 . S
C1926 C1934 1.378 . S
C1927 C1926 1.367 . S
C1927 C1935 1.433 . S
C1928 H1924 0.929 . S
C1928 C1930 1.378 . S
C1928 C1932 1.350 . S
C1929 C1932 1.463 . S
C1929 C1934 1.350 . S
C1929 N1937 1.427 . S
C1930 H1921 0.930 . S
C1930 C1928 1.378 . S
C1930 C1931 1.367 . S
C1931 C1930 1.367 . S
C1931 C1933 1.433 . S
C1932 C1928 1.350 . S
C1932 C1929 1.463 . S
C1932 N1936 1.427 . S
C1933 H1923 0.929 . S
C1933 C1931 1.433 . S
C1933 N1936 1.384 . S
C1934 H1925 0.929 . S
C1934 C1926 1.378 . S
C1934 C1929 1.350 . S
C1935 H1922 0.929 . S
C1935 C1927 1.433 . S
C1935 N1937 1.384 . S
N1936 C1932 1.427 . S
N1936 C1933 1.384 . S
N1937 C1929 1.427 . S
N1937 C1935 1.384 . S
H1938 C1944 0.930 . S
H1939 C1948 0.930 . S
H1940 C1953 0.929 . S
H1941 C1951 0.929 . S
H1942 C1946 0.929 . S
H1943 C1952 0.929 . S
C1944 H1938 0.930 . S
C1944 C1945 1.367 . S
C1944 C1952 1.378 . S
C1945 C1944 1.367 . S
C1945 C1953 1.433 . S
C1946 H1942 0.929 . S
C1946 C1948 1.378 . S
C1946 C1950 1.350 . S
C1947 C1950 1.463 . S
C1947 C1952 1.350 . S
C1947 N1955 1.427 . S
C1948 H1939 0.930 . S
C1948 C1946 1.378 . S
C1948 C1949 1.367 . S
C1949 C1948 1.367 . S
C1949 C1951 1.433 . S
C1950 C1946 1.350 . S
C1950 C1947 1.463 . S
C1950 N1954 1.427 . S
C1951 H1941 0.929 . S
C1951 C1949 1.433 . S
C1951 N1954 1.384 . S
C1952 H1943 0.929 . S
C1952 C1944 1.378 . S
C1952 C1947 1.350 . S
C1953 H1940 0.929 . S
C1953 C1945 1.433 . S
C1953 N1955 1.384 . S
N1954 C1950 1.427 . S
N1954 C1951 1.384 . S
N1955 C1947 1.427 . S
N1955 C1953 1.384 . S
H1956 C1962 0.930 . S
H1957 C1966 0.930 . S
H1958 C1971 0.929 . S
H1959 C1969 0.929 . S
H1960 C1964 0.929 . S
H1961 C1970 0.929 . S
C1962 H1956 0.930 . S
C1962 C1963 1.367 . S
C1962 C1970 1.378 . S
C1963 C1962 1.367 . S
C1963 C1971 1.433 . S
C1964 H1960 0.929 . S
C1964 C1966 1.378 . S
C1964 C1968 1.350 . S
C1965 C1968 1.463 . S
C1965 C1970 1.350 . S
C1965 N1973 1.427 . S
C1966 H1957 0.930 . S
C1966 C1964 1.378 . S
C1966 C1967 1.367 . S
C1967 C1966 1.367 . S
C1967 C1969 1.433 . S
C1968 C1964 1.350 . S
C1968 C1965 1.463 . S
C1968 N1972 1.427 . S
C1969 H1959 0.929 . S
C1969 C1967 1.433 . S
C1969 N1972 1.384 . S
C1970 H1961 0.929 . S
C1970 C1962 1.378 . S
C1970 C1965 1.350 . S
C1971 H1958 0.929 . S
C1971 C1963 1.433 . S
C1971 N1973 1.384 . S
N1972 C1968 1.427 . S
N1972 C1969 1.384 . S
N1973 C1965 1.427 . S
N1973 C1971 1.384 . S
H1974 C1980 0.930 . S
H1975 C1984 0.930 . S
H1976 C1989 0.929 . S
H1977 C1987 0.929 . S
H1978 C1982 0.929 . S
H1979 C1988 0.929 . S
C1980 H1974 0.930 . S
C1980 C1981 1.367 . S
C1980 C1988 1.378 . S
C1981 C1980 1.367 . S
C1981 C1989 1.433 . S
C1982 H1978 0.929 . S
C1982 C1984 1.378 . S
C1982 C1986 1.350 . S
C1983 C1986 1.463 . S
C1983 C1988 1.350 . S
C1983 N1991 1.427 . S
C1984 H1975 0.930 . S
C1984 C1982 1.378 . S
C1984 C1985 1.367 . S
C1985 C1984 1.367 . S
C1985 C1987 1.433 . S
C1986 C1982 1.350 . S
C1986 C1983 1.463 . S
C1986 N1990 1.427 . S
C1987 H1977 0.929 . S
C1987 C1985 1.433 . S
C1987 N1990 1.384 . S
C1988 H1979 0.929 . S
C1988 C1980 1.378 . S
C1988 C1983 1.350 . S
C1989 H1976 0.929 . S
C1989 C1981 1.433 . S
C1989 N1991 1.384 . S
N1990 C1986 1.427 . S
N1990 C1987 1.384 . S
N1991 C1983 1.427 . S
N1991 C1989 1.384 . S
H1992 C1998 0.930 . S
H1993 C2002 0.930 . S
H1994 C2007 0.929 . S
H1995 C2005 0.929 . S
H1996 C2000 0.929 . S
H1997 C2006 0.929 . S
C1998 H1992 0.930 . S
C1998 C1999 1.367 . S
C1998 C2006 1.378 . S
C1999 C1998 1.367 . S
C1999 C2007 1.433 . S
C2000 H1996 0.929 . S
C2000 C2002 1.378 . S
C2000 C2004 1.350 . S
C2001 C2004 1.463 . S
C2001 C2006 1.350 . S
C2001 N2009 1.427 . S
C2002 H1993 0.930 . S
C2002 C2000 1.378 . S
C2002 C2003 1.367 . S
C2003 C2002 1.367 . S
C2003 C2005 1.433 . S
C2004 C2000 1.350 . S
C2004 C2001 1.463 . S
C2004 N2008 1.427 . S
C2005 H1995 0.929 . S
C2005 C2003 1.433 . S
C2005 N2008 1.384 . S
C2006 H1997 0.929 . S
C2006 C1998 1.378 . S
C2006 C2001 1.350 . S
C2007 H1994 0.929 . S
C2007 C1999 1.433 . S
C2007 N2009 1.384 . S
N2008 C2004 1.427 . S
N2008 C2005 1.384 . S
N2009 C2001 1.427 . S
N2009 C2007 1.384 . S
H2010 C2016 0.930 . S
H2011 C2020 0.930 . S
H2012 C2025 0.929 . S
H2013 C2023 0.929 . S
H2014 C2018 0.929 . S
H2015 C2024 0.929 . S
C2016 H2010 0.930 . S
C2016 C2017 1.367 . S
C2016 C2024 1.378 . S
C2017 C2016 1.367 . S
C2017 C2025 1.433 . S
C2018 H2014 0.929 . S
C2018 C2020 1.378 . S
C2018 C2022 1.350 . S
C2019 C2022 1.463 . S
C2019 C2024 1.350 . S
C2019 N2027 1.427 . S
C2020 H2011 0.930 . S
C2020 C2018 1.378 . S
C2020 C2021 1.367 . S
C2021 C2020 1.367 . S
C2021 C2023 1.433 . S
C2022 C2018 1.350 . S
C2022 C2019 1.463 . S
C2022 N2026 1.427 . S
C2023 H2013 0.929 . S
C2023 C2021 1.433 . S
C2023 N2026 1.384 . S
C2024 H2015 0.929 . S
C2024 C2016 1.378 . S
C2024 C2019 1.350 . S
C2025 H2012 0.929 . S
C2025 C2017 1.433 . S
C2025 N2027 1.384 . S
N2026 C2022 1.427 . S
N2026 C2023 1.384 . S
N2027 C2019 1.427 . S
N2027 C2025 1.384 . S
H2028 C2034 0.930 . S
H2029 C2038 0.930 . S
H2030 C2043 0.929 . S
H2031 C2041 0.929 . S
H2032 C2036 0.929 . S
H2033 C2042 0.929 . S
C2034 H2028 0.930 . S
C2034 C2035 1.367 . S
C2034 C2042 1.378 . S
C2035 C2034 1.367 . S
C2035 C2043 1.433 . S
C2036 H2032 0.929 . S
C2036 C2038 1.378 . S
C2036 C2040 1.350 . S
C2037 C2040 1.463 . S
C2037 C2042 1.350 . S
C2037 N2045 1.427 . S
C2038 H2029 0.930 . S
C2038 C2036 1.378 . S
C2038 C2039 1.367 . S
C2039 C2038 1.367 . S
C2039 C2041 1.433 . S
C2040 C2036 1.350 . S
C2040 C2037 1.463 . S
C2040 N2044 1.427 . S
C2041 H2031 0.929 . S
C2041 C2039 1.433 . S
C2041 N2044 1.384 . S
C2042 H2033 0.929 . S
C2042 C2034 1.378 . S
C2042 C2037 1.350 . S
C2043 H2030 0.929 . S
C2043 C2035 1.433 . S
C2043 N2045 1.384 . S
N2044 C2040 1.427 . S
N2044 C2041 1.384 . S
N2045 C2037 1.427 . S
N2045 C2043 1.384 . S
H2046 C2052 0.930 . S
H2047 C2056 0.930 . S
H2048 C2061 0.929 . S
H2049 C2059 0.929 . S
H2050 C2054 0.929 . S
H2051 C2060 0.929 . S
C2052 H2046 0.930 . S
C2052 C2053 1.367 . S
C2052 C2060 1.378 . S
C2053 C2052 1.367 . S
C2053 C2061 1.433 . S
C2054 H2050 0.929 . S
C2054 C2056 1.378 . S
C2054 C2058 1.350 . S
C2055 C2058 1.463 . S
C2055 C2060 1.350 . S
C2055 N2063 1.427 . S
C2056 H2047 0.930 . S
C2056 C2054 1.378 . S
C2056 C2057 1.367 . S
C2057 C2056 1.367 . S
C2057 C2059 1.433 . S
C2058 C2054 1.350 . S
C2058 C2055 1.463 . S
C2058 N2062 1.427 . S
C2059 H2049 0.929 . S
C2059 C2057 1.433 . S
C2059 N2062 1.384 . S
C2060 H2051 0.929 . S
C2060 C2052 1.378 . S
C2060 C2055 1.350 . S
C2061 H2048 0.929 . S
C2061 C2053 1.433 . S
C2061 N2063 1.384 . S
N2062 C2058 1.427 . S
N2062 C2059 1.384 . S
N2063 C2055 1.427 . S
N2063 C2061 1.384 . S
H2064 C2070 0.930 . S
H2065 C2074 0.930 . S
H2066 C2079 0.929 . S
H2067 C2077 0.929 . S
H2068 C2072 0.929 . S
H2069 C2078 0.929 . S
C2070 H2064 0.930 . S
C2070 C2071 1.367 . S
C2070 C2078 1.378 . S
C2071 C2070 1.367 . S
C2071 C2079 1.433 . S
C2072 H2068 0.929 . S
C2072 C2074 1.378 . S
C2072 C2076 1.350 . S
C2073 C2076 1.463 . S
C2073 C2078 1.350 . S
C2073 N2081 1.427 . S
C2074 H2065 0.930 . S
C2074 C2072 1.378 . S
C2074 C2075 1.367 . S
C2075 C2074 1.367 . S
C2075 C2077 1.433 . S
C2076 C2072 1.350 . S
C2076 C2073 1.463 . S
C2076 N2080 1.427 . S
C2077 H2067 0.929 . S
C2077 C2075 1.433 . S
C2077 N2080 1.384 . S
C2078 H2069 0.929 . S
C2078 C2070 1.378 . S
C2078 C2073 1.350 . S
C2079 H2066 0.929 . S
C2079 C2071 1.433 . S
C2079 N2081 1.384 . S
N2080 C2076 1.427 . S
N2080 C2077 1.384 . S
N2081 C2073 1.427 . S
N2081 C2079 1.384 . S
H2082 C2088 0.930 . S
H2083 C2092 0.930 . S
H2084 C2097 0.929 . S
H2085 C2095 0.929 . S
H2086 C2090 0.929 . S
H2087 C2096 0.929 . S
C2088 H2082 0.930 . S
C2088 C2089 1.367 . S
C2088 C2096 1.378 . S
C2089 C2088 1.367 . S
C2089 C2097 1.433 . S
C2090 H2086 0.929 . S
C2090 C2092 1.378 . S
C2090 C2094 1.350 . S
C2091 C2094 1.463 . S
C2091 C2096 1.350 . S
C2091 N2099 1.427 . S
C2092 H2083 0.930 . S
C2092 C2090 1.378 . S
C2092 C2093 1.367 . S
C2093 C2092 1.367 . S
C2093 C2095 1.433 . S
C2094 C2090 1.350 . S
C2094 C2091 1.463 . S
C2094 N2098 1.427 . S
C2095 H2085 0.929 . S
C2095 C2093 1.433 . S
C2095 N2098 1.384 . S
C2096 H2087 0.929 . S
C2096 C2088 1.378 . S
C2096 C2091 1.350 . S
C2097 H2084 0.929 . S
C2097 C2089 1.433 . S
C2097 N2099 1.384 . S
N2098 C2094 1.427 . S
N2098 C2095 1.384 . S
N2099 C2091 1.427 . S
N2099 C2097 1.384 . S
H2100 C2106 0.930 . S
H2101 C2110 0.930 . S
H2102 C2115 0.929 . S
H2103 C2113 0.929 . S
H2104 C2108 0.929 . S
H2105 C2114 0.929 . S
C2106 H2100 0.930 . S
C2106 C2107 1.367 . S
C2106 C2114 1.378 . S
C2107 C2106 1.367 . S
C2107 C2115 1.433 . S
C2108 H2104 0.929 . S
C2108 C2110 1.378 . S
C2108 C2112 1.350 . S
C2109 C2112 1.463 . S
C2109 C2114 1.350 . S
C2109 N2117 1.427 . S
C2110 H2101 0.930 . S
C2110 C2108 1.378 . S
C2110 C2111 1.367 . S
C2111 C2110 1.367 . S
C2111 C2113 1.433 . S
C2112 C2108 1.350 . S
C2112 C2109 1.463 . S
C2112 N2116 1.427 . S
C2113 H2103 0.929 . S
C2113 C2111 1.433 . S
C2113 N2116 1.384 . S
C2114 H2105 0.929 . S
C2114 C2106 1.378 . S
C2114 C2109 1.350 . S
C2115 H2102 0.929 . S
C2115 C2107 1.433 . S
C2115 N2117 1.384 . S
N2116 C2112 1.427 . S
N2116 C2113 1.384 . S
N2117 C2109 1.427 . S
N2117 C2115 1.384 . S
H2118 C2124 0.930 . S
H2119 C2128 0.930 . S
H2120 C2133 0.929 . S
H2121 C2131 0.929 . S
H2122 C2126 0.929 . S
H2123 C2132 0.929 . S
C2124 H2118 0.930 . S
C2124 C2125 1.367 . S
C2124 C2132 1.378 . S
C2125 C2124 1.367 . S
C2125 C2133 1.433 . S
C2126 H2122 0.929 . S
C2126 C2128 1.378 . S
C2126 C2130 1.350 . S
C2127 C2130 1.463 . S
C2127 C2132 1.350 . S
C2127 N2135 1.427 . S
C2128 H2119 0.930 . S
C2128 C2126 1.378 . S
C2128 C2129 1.367 . S
C2129 C2128 1.367 . S
C2129 C2131 1.433 . S
C2130 C2126 1.350 . S
C2130 C2127 1.463 . S
C2130 N2134 1.427 . S
C2131 H2121 0.929 . S
C2131 C2129 1.433 . S
C2131 N2134 1.384 . S
C2132 H2123 0.929 . S
C2132 C2124 1.378 . S
C2132 C2127 1.350 . S
C2133 H2120 0.929 . S
C2133 C2125 1.433 . S
C2133 N2135 1.384 . S
N2134 C2130 1.427 . S
N2134 C2131 1.384 . S
N2135 C2127 1.427 . S
N2135 C2133 1.384 . S
H2136 C2142 0.930 . S
H2137 C2146 0.930 . S
H2138 C2151 0.929 . S
H2139 C2149 0.929 . S
H2140 C2144 0.929 . S
H2141 C2150 0.929 . S
C2142 H2136 0.930 . S
C2142 C2143 1.367 . S
C2142 C2150 1.378 . S
C2143 C2142 1.367 . S
C2143 C2151 1.433 . S
C2144 H2140 0.929 . S
C2144 C2146 1.378 . S
C2144 C2148 1.350 . S
C2145 C2148 1.463 . S
C2145 C2150 1.350 . S
C2145 N2153 1.427 . S
C2146 H2137 0.930 . S
C2146 C2144 1.378 . S
C2146 C2147 1.367 . S
C2147 C2146 1.367 . S
C2147 C2149 1.433 . S
C2148 C2144 1.350 . S
C2148 C2145 1.463 . S
C2148 N2152 1.427 . S
C2149 H2139 0.929 . S
C2149 C2147 1.433 . S
C2149 N2152 1.384 . S
C2150 H2141 0.929 . S
C2150 C2142 1.378 . S
C2150 C2145 1.350 . S
C2151 H2138 0.929 . S
C2151 C2143 1.433 . S
C2151 N2153 1.384 . S
N2152 C2148 1.427 . S
N2152 C2149 1.384 . S
N2153 C2145 1.427 . S
N2153 C2151 1.384 . S
H2154 C2160 0.930 . S
H2155 C2164 0.930 . S
H2156 C2169 0.929 . S
H2157 C2167 0.929 . S
H2158 C2162 0.929 . S
H2159 C2168 0.929 . S
C2160 H2154 0.930 . S
C2160 C2161 1.367 . S
C2160 C2168 1.378 . S
C2161 C2160 1.367 . S
C2161 C2169 1.433 . S
C2162 H2158 0.929 . S
C2162 C2164 1.378 . S
C2162 C2166 1.350 . S
C2163 C2166 1.463 . S
C2163 C2168 1.350 . S
C2163 N2171 1.427 . S
C2164 H2155 0.930 . S
C2164 C2162 1.378 . S
C2164 C2165 1.367 . S
C2165 C2164 1.367 . S
C2165 C2167 1.433 . S
C2166 C2162 1.350 . S
C2166 C2163 1.463 . S
C2166 N2170 1.427 . S
C2167 H2157 0.929 . S
C2167 C2165 1.433 . S
C2167 N2170 1.384 . S
C2168 H2159 0.929 . S
C2168 C2160 1.378 . S
C2168 C2163 1.350 . S
C2169 H2156 0.929 . S
C2169 C2161 1.433 . S
C2169 N2171 1.384 . S
N2170 C2166 1.427 . S
N2170 C2167 1.384 . S
N2171 C2163 1.427 . S
N2171 C2169 1.384 . S
H2172 C2178 0.930 . S
H2173 C2182 0.930 . S
H2174 C2187 0.929 . S
H2175 C2185 0.929 . S
H2176 C2180 0.929 . S
H2177 C2186 0.929 . S
C2178 H2172 0.930 . S
C2178 C2179 1.367 . S
C2178 C2186 1.378 . S
C2179 C2178 1.367 . S
C2179 C2187 1.433 . S
C2180 H2176 0.929 . S
C2180 C2182 1.378 . S
C2180 C2184 1.350 . S
C2181 C2184 1.463 . S
C2181 C2186 1.350 . S
C2181 N2189 1.427 . S
C2182 H2173 0.930 . S
C2182 C2180 1.378 . S
C2182 C2183 1.367 . S
C2183 C2182 1.367 . S
C2183 C2185 1.433 . S
C2184 C2180 1.350 . S
C2184 C2181 1.463 . S
C2184 N2188 1.427 . S
C2185 H2175 0.929 . S
C2185 C2183 1.433 . S
C2185 N2188 1.384 . S
C2186 H2177 0.929 . S
C2186 C2178 1.378 . S
C2186 C2181 1.350 . S
C2187 H2174 0.929 . S
C2187 C2179 1.433 . S
C2187 N2189 1.384 . S
N2188 C2184 1.427 . S
N2188 C2185 1.384 . S
N2189 C2181 1.427 . S
N2189 C2187 1.384 . S
H2190 C2196 0.930 . S
H2191 C2200 0.930 . S
H2192 C2205 0.929 . S
H2193 C2203 0.929 . S
H2194 C2198 0.929 . S
H2195 C2204 0.929 . S
C2196 H2190 0.930 . S
C2196 C2197 1.367 . S
C2196 C2204 1.378 . S
C2197 C2196 1.367 . S
C2197 C2205 1.433 . S
C2198 H2194 0.929 . S
C2198 C2200 1.378 . S
C2198 C2202 1.350 . S
C2199 C2202 1.463 . S
C2199 C2204 1.350 . S
C2199 N2207 1.427 . S
C2200 H2191 0.930 . S
C2200 C2198 1.378 . S
C2200 C2201 1.367 . S
C2201 C2200 1.367 . S
C2201 C2203 1.433 . S
C2202 C2198 1.350 . S
C2202 C2199 1.463 . S
C2202 N2206 1.427 . S
C2203 H2193 0.929 . S
C2203 C2201 1.433 . S
C2203 N2206 1.384 . S
C2204 H2195 0.929 . S
C2204 C2196 1.378 . S
C2204 C2199 1.350 . S
C2205 H2192 0.929 . S
C2205 C2197 1.433 . S
C2205 N2207 1.384 . S
N2206 C2202 1.427 . S
N2206 C2203 1.384 . S
N2207 C2199 1.427 . S
N2207 C2205 1.384 . S
H2208 C2214 0.930 . S
H2209 C2218 0.930 . S
H2210 C2223 0.929 . S
H2211 C2221 0.929 . S
H2212 C2216 0.929 . S
H2213 C2222 0.929 . S
C2214 H2208 0.930 . S
C2214 C2215 1.367 . S
C2214 C2222 1.378 . S
C2215 C2214 1.367 . S
C2215 C2223 1.433 . S
C2216 H2212 0.929 . S
C2216 C2218 1.378 . S
C2216 C2220 1.350 . S
C2217 C2220 1.463 . S
C2217 C2222 1.350 . S
C2217 N2225 1.427 . S
C2218 H2209 0.930 . S
C2218 C2216 1.378 . S
C2218 C2219 1.367 . S
C2219 C2218 1.367 . S
C2219 C2221 1.433 . S
C2220 C2216 1.350 . S
C2220 C2217 1.463 . S
C2220 N2224 1.427 . S
C2221 H2211 0.929 . S
C2221 C2219 1.433 . S
C2221 N2224 1.384 . S
C2222 H2213 0.929 . S
C2222 C2214 1.378 . S
C2222 C2217 1.350 . S
C2223 H2210 0.929 . S
C2223 C2215 1.433 . S
C2223 N2225 1.384 . S
N2224 C2220 1.427 . S
N2224 C2221 1.384 . S
N2225 C2217 1.427 . S
N2225 C2223 1.384 . S
H2226 C2232 0.930 . S
H2227 C2236 0.930 . S
H2228 C2241 0.929 . S
H2229 C2239 0.929 . S
H2230 C2234 0.929 . S
H2231 C2240 0.929 . S
C2232 H2226 0.930 . S
C2232 C2233 1.367 . S
C2232 C2240 1.378 . S
C2233 C2232 1.367 . S
C2233 C2241 1.433 . S
C2234 H2230 0.929 . S
C2234 C2236 1.378 . S
C2234 C2238 1.350 . S
C2235 C2238 1.463 . S
C2235 C2240 1.350 . S
C2235 N2243 1.427 . S
C2236 H2227 0.930 . S
C2236 C2234 1.378 . S
C2236 C2237 1.367 . S
C2237 C2236 1.367 . S
C2237 C2239 1.433 . S
C2238 C2234 1.350 . S
C2238 C2235 1.463 . S
C2238 N2242 1.427 . S
C2239 H2229 0.929 . S
C2239 C2237 1.433 . S
C2239 N2242 1.384 . S
C2240 H2231 0.929 . S
C2240 C2232 1.378 . S
C2240 C2235 1.350 . S
C2241 H2228 0.929 . S
C2241 C2233 1.433 . S
C2241 N2243 1.384 . S
N2242 C2238 1.427 . S
N2242 C2239 1.384 . S
N2243 C2235 1.427 . S
N2243 C2241 1.384 . S
H2244 C2250 0.930 . S
H2245 C2254 0.930 . S
H2246 C2259 0.929 . S
H2247 C2257 0.929 . S
H2248 C2252 0.929 . S
H2249 C2258 0.929 . S
C2250 H2244 0.930 . S
C2250 C2251 1.367 . S
C2250 C2258 1.378 . S
C2251 C2250 1.367 . S
C2251 C2259 1.433 . S
C2252 H2248 0.929 . S
C2252 C2254 1.378 . S
C2252 C2256 1.350 . S
C2253 C2256 1.463 . S
C2253 C2258 1.350 . S
C2253 N2261 1.427 . S
C2254 H2245 0.930 . S
C2254 C2252 1.378 . S
C2254 C2255 1.367 . S
C2255 C2254 1.367 . S
C2255 C2257 1.433 . S
C2256 C2252 1.350 . S
C2256 C2253 1.463 . S
C2256 N2260 1.427 . S
C2257 H2247 0.929 . S
C2257 C2255 1.433 . S
C2257 N2260 1.384 . S
C2258 H2249 0.929 . S
C2258 C2250 1.378 . S
C2258 C2253 1.350 . S
C2259 H2246 0.929 . S
C2259 C2251 1.433 . S
C2259 N2261 1.384 . S
N2260 C2256 1.427 . S
N2260 C2257 1.384 . S
N2261 C2253 1.427 . S
N2261 C2259 1.384 . S
H2262 C2268 0.930 . S
H2263 C2272 0.930 . S
H2264 C2277 0.929 . S
H2265 C2275 0.929 . S
H2266 C2270 0.929 . S
H2267 C2276 0.929 . S
C2268 H2262 0.930 . S
C2268 C2269 1.367 . S
C2268 C2276 1.378 . S
C2269 C2268 1.367 . S
C2269 C2277 1.433 . S
C2270 H2266 0.929 . S
C2270 C2272 1.378 . S
C2270 C2274 1.350 . S
C2271 C2274 1.463 . S
C2271 C2276 1.350 . S
C2271 N2279 1.427 . S
C2272 H2263 0.930 . S
C2272 C2270 1.378 . S
C2272 C2273 1.367 . S
C2273 C2272 1.367 . S
C2273 C2275 1.433 . S
C2274 C2270 1.350 . S
C2274 C2271 1.463 . S
C2274 N2278 1.427 . S
C2275 H2265 0.929 . S
C2275 C2273 1.433 . S
C2275 N2278 1.384 . S
C2276 H2267 0.929 . S
C2276 C2268 1.378 . S
C2276 C2271 1.350 . S
C2277 H2264 0.929 . S
C2277 C2269 1.433 . S
C2277 N2279 1.384 . S
N2278 C2274 1.427 . S
N2278 C2275 1.384 . S
N2279 C2271 1.427 . S
N2279 C2277 1.384 . S
H2280 C2286 0.930 . S
H2281 C2290 0.930 . S
H2282 C2295 0.929 . S
H2283 C2293 0.929 . S
H2284 C2288 0.929 . S
H2285 C2294 0.929 . S
C2286 H2280 0.930 . S
C2286 C2287 1.367 . S
C2286 C2294 1.378 . S
C2287 C2286 1.367 . S
C2287 C2295 1.433 . S
C2288 H2284 0.929 . S
C2288 C2290 1.378 . S
C2288 C2292 1.350 . S
C2289 C2292 1.463 . S
C2289 C2294 1.350 . S
C2289 N2297 1.427 . S
C2290 H2281 0.930 . S
C2290 C2288 1.378 . S
C2290 C2291 1.367 . S
C2291 C2290 1.367 . S
C2291 C2293 1.433 . S
C2292 C2288 1.350 . S
C2292 C2289 1.463 . S
C2292 N2296 1.427 . S
C2293 H2283 0.929 . S
C2293 C2291 1.433 . S
C2293 N2296 1.384 . S
C2294 H2285 0.929 . S
C2294 C2286 1.378 . S
C2294 C2289 1.350 . S
C2295 H2282 0.929 . S
C2295 C2287 1.433 . S
C2295 N2297 1.384 . S
N2296 C2292 1.427 . S
N2296 C2293 1.384 . S
N2297 C2289 1.427 . S
N2297 C2295 1.384 . S
H2298 C2304 0.930 . S
H2299 C2308 0.930 . S
H2300 C2313 0.929 . S
H2301 C2311 0.929 . S
H2302 C2306 0.929 . S
H2303 C2312 0.929 . S
C2304 H2298 0.930 . S
C2304 C2305 1.367 . S
C2304 C2312 1.378 . S
C2305 C2304 1.367 . S
C2305 C2313 1.433 . S
C2306 H2302 0.929 . S
C2306 C2308 1.378 . S
C2306 C2310 1.350 . S
C2307 C2310 1.463 . S
C2307 C2312 1.350 . S
C2307 N2315 1.427 . S
C2308 H2299 0.930 . S
C2308 C2306 1.378 . S
C2308 C2309 1.367 . S
C2309 C2308 1.367 . S
C2309 C2311 1.433 . S
C2310 C2306 1.350 . S
C2310 C2307 1.463 . S
C2310 N2314 1.427 . S
C2311 H2301 0.929 . S
C2311 C2309 1.433 . S
C2311 N2314 1.384 . S
C2312 H2303 0.929 . S
C2312 C2304 1.378 . S
C2312 C2307 1.350 . S
C2313 H2300 0.929 . S
C2313 C2305 1.433 . S
C2313 N2315 1.384 . S
N2314 C2310 1.427 . S
N2314 C2311 1.384 . S
N2315 C2307 1.427 . S
N2315 C2313 1.384 . S
H2316 C2322 0.930 . S
H2317 C2326 0.930 . S
H2318 C2331 0.929 . S
H2319 C2329 0.929 . S
H2320 C2324 0.929 . S
H2321 C2330 0.929 . S
C2322 H2316 0.930 . S
C2322 C2323 1.367 . S
C2322 C2330 1.378 . S
C2323 C2322 1.367 . S
C2323 C2331 1.433 . S
C2324 H2320 0.929 . S
C2324 C2326 1.378 . S
C2324 C2328 1.350 . S
C2325 C2328 1.463 . S
C2325 C2330 1.350 . S
C2325 N2333 1.427 . S
C2326 H2317 0.930 . S
C2326 C2324 1.378 . S
C2326 C2327 1.367 . S
C2327 C2326 1.367 . S
C2327 C2329 1.433 . S
C2328 C2324 1.350 . S
C2328 C2325 1.463 . S
C2328 N2332 1.427 . S
C2329 H2319 0.929 . S
C2329 C2327 1.433 . S
C2329 N2332 1.384 . S
C2330 H2321 0.929 . S
C2330 C2322 1.378 . S
C2330 C2325 1.350 . S
C2331 H2318 0.929 . S
C2331 C2323 1.433 . S
C2331 N2333 1.384 . S
N2332 C2328 1.427 . S
N2332 C2329 1.384 . S
N2333 C2325 1.427 . S
N2333 C2331 1.384 . S
H2334 C2340 0.930 . S
H2335 C2344 0.930 . S
H2336 C2349 0.929 . S
H2337 C2347 0.929 . S
H2338 C2342 0.929 . S
H2339 C2348 0.929 . S
C2340 H2334 0.930 . S
C2340 C2341 1.367 . S
C2340 C2348 1.378 . S
C2341 C2340 1.367 . S
C2341 C2349 1.433 . S
C2342 H2338 0.929 . S
C2342 C2344 1.378 . S
C2342 C2346 1.350 . S
C2343 C2346 1.463 . S
C2343 C2348 1.350 . S
C2343 N2351 1.427 . S
C2344 H2335 0.930 . S
C2344 C2342 1.378 . S
C2344 C2345 1.367 . S
C2345 C2344 1.367 . S
C2345 C2347 1.433 . S
C2346 C2342 1.350 . S
C2346 C2343 1.463 . S
C2346 N2350 1.427 . S
C2347 H2337 0.929 . S
C2347 C2345 1.433 . S
C2347 N2350 1.384 . S
C2348 H2339 0.929 . S
C2348 C2340 1.378 . S
C2348 C2343 1.350 . S
C2349 H2336 0.929 . S
C2349 C2341 1.433 . S
C2349 N2351 1.384 . S
N2350 C2346 1.427 . S
N2350 C2347 1.384 . S
N2351 C2343 1.427 . S
N2351 C2349 1.384 . S
H2352 C2358 0.930 . S
H2353 C2362 0.930 . S
H2354 C2367 0.929 . S
H2355 C2365 0.929 . S
H2356 C2360 0.929 . S
H2357 C2366 0.929 . S
C2358 H2352 0.930 . S
C2358 C2359 1.367 . S
C2358 C2366 1.378 . S
C2359 C2358 1.367 . S
C2359 C2367 1.433 . S
C2360 H2356 0.929 . S
C2360 C2362 1.378 . S
C2360 C2364 1.350 . S
C2361 C2364 1.463 . S
C2361 C2366 1.350 . S
C2361 N2369 1.427 . S
C2362 H2353 0.930 . S
C2362 C2360 1.378 . S
C2362 C2363 1.367 . S
C2363 C2362 1.367 . S
C2363 C2365 1.433 . S
C2364 C2360 1.350 . S
C2364 C2361 1.463 . S
C2364 N2368 1.427 . S
C2365 H2355 0.929 . S
C2365 C2363 1.433 . S
C2365 N2368 1.384 . S
C2366 H2357 0.929 . S
C2366 C2358 1.378 . S
C2366 C2361 1.350 . S
C2367 H2354 0.929 . S
C2367 C2359 1.433 . S
C2367 N2369 1.384 . S
N2368 C2364 1.427 . S
N2368 C2365 1.384 . S
N2369 C2361 1.427 . S
N2369 C2367 1.384 . S
H2370 C2376 0.930 . S
H2371 C2380 0.930 . S
H2372 C2385 0.929 . S
H2373 C2383 0.929 . S
H2374 C2378 0.929 . S
H2375 C2384 0.929 . S
C2376 H2370 0.930 . S
C2376 C2377 1.367 . S
C2376 C2384 1.378 . S
C2377 C2376 1.367 . S
C2377 C2385 1.433 . S
C2378 H2374 0.929 . S
C2378 C2380 1.378 . S
C2378 C2382 1.350 . S
C2379 C2382 1.463 . S
C2379 C2384 1.350 . S
C2379 N2387 1.427 . S
C2380 H2371 0.930 . S
C2380 C2378 1.378 . S
C2380 C2381 1.367 . S
C2381 C2380 1.367 . S
C2381 C2383 1.433 . S
C2382 C2378 1.350 . S
C2382 C2379 1.463 . S
C2382 N2386 1.427 . S
C2383 H2373 0.929 . S
C2383 C2381 1.433 . S
C2383 N2386 1.384 . S
C2384 H2375 0.929 . S
C2384 C2376 1.378 . S
C2384 C2379 1.350 . S
C2385 H2372 0.929 . S
C2385 C2377 1.433 . S
C2385 N2387 1.384 . S
N2386 C2382 1.427 . S
N2386 C2383 1.384 . S
N2387 C2379 1.427 . S
N2387 C2385 1.384 . S
H2388 C2394 0.930 . S
H2389 C2398 0.930 . S
H2390 C2403 0.929 . S
H2391 C2401 0.929 . S
H2392 C2396 0.929 . S
H2393 C2402 0.929 . S
C2394 H2388 0.930 . S
C2394 C2395 1.367 . S
C2394 C2402 1.378 . S
C2395 C2394 1.367 . S
C2395 C2403 1.433 . S
C2396 H2392 0.929 . S
C2396 C2398 1.378 . S
C2396 C2400 1.350 . S
C2397 C2400 1.463 . S
C2397 C2402 1.350 . S
C2397 N2405 1.427 . S
C2398 H2389 0.930 . S
C2398 C2396 1.378 . S
C2398 C2399 1.367 . S
C2399 C2398 1.367 . S
C2399 C2401 1.433 . S
C2400 C2396 1.350 . S
C2400 C2397 1.463 . S
C2400 N2404 1.427 . S
C2401 H2391 0.929 . S
C2401 C2399 1.433 . S
C2401 N2404 1.384 . S
C2402 H2393 0.929 . S
C2402 C2394 1.378 . S
C2402 C2397 1.350 . S
C2403 H2390 0.929 . S
C2403 C2395 1.433 . S
C2403 N2405 1.384 . S
N2404 C2400 1.427 . S
N2404 C2401 1.384 . S
N2405 C2397 1.427 . S
N2405 C2403 1.384 . S
H2406 C2412 0.930 . S
H2407 C2416 0.930 . S
H2408 C2421 0.929 . S
H2409 C2419 0.929 . S
H2410 C2414 0.929 . S
H2411 C2420 0.929 . S
C2412 H2406 0.930 . S
C2412 C2413 1.367 . S
C2412 C2420 1.378 . S
C2413 C2412 1.367 . S
C2413 C2421 1.433 . S
C2414 H2410 0.929 . S
C2414 C2416 1.378 . S
C2414 C2418 1.350 . S
C2415 C2418 1.463 . S
C2415 C2420 1.350 . S
C2415 N2423 1.427 . S
C2416 H2407 0.930 . S
C2416 C2414 1.378 . S
C2416 C2417 1.367 . S
C2417 C2416 1.367 . S
C2417 C2419 1.433 . S
C2418 C2414 1.350 . S
C2418 C2415 1.463 . S
C2418 N2422 1.427 . S
C2419 H2409 0.929 . S
C2419 C2417 1.433 . S
C2419 N2422 1.384 . S
C2420 H2411 0.929 . S
C2420 C2412 1.378 . S
C2420 C2415 1.350 . S
C2421 H2408 0.929 . S
C2421 C2413 1.433 . S
C2421 N2423 1.384 . S
N2422 C2418 1.427 . S
N2422 C2419 1.384 . S
N2423 C2415 1.427 . S
N2423 C2421 1.384 . S
H2424 C2430 0.930 . S
H2425 C2434 0.930 . S
H2426 C2439 0.929 . S
H2427 C2437 0.929 . S
H2428 C2432 0.929 . S
H2429 C2438 0.929 . S
C2430 H2424 0.930 . S
C2430 C2431 1.367 . S
C2430 C2438 1.378 . S
C2431 C2430 1.367 . S
C2431 C2439 1.433 . S
C2432 H2428 0.929 . S
C2432 C2434 1.378 . S
C2432 C2436 1.350 . S
C2433 C2436 1.463 . S
C2433 C2438 1.350 . S
C2433 N2441 1.427 . S
C2434 H2425 0.930 . S
C2434 C2432 1.378 . S
C2434 C2435 1.367 . S
C2435 C2434 1.367 . S
C2435 C2437 1.433 . S
C2436 C2432 1.350 . S
C2436 C2433 1.463 . S
C2436 N2440 1.427 . S
C2437 H2427 0.929 . S
C2437 C2435 1.433 . S
C2437 N2440 1.384 . S
C2438 H2429 0.929 . S
C2438 C2430 1.378 . S
C2438 C2433 1.350 . S
C2439 H2426 0.929 . S
C2439 C2431 1.433 . S
C2439 N2441 1.384 . S
N2440 C2436 1.427 . S
N2440 C2437 1.384 . S
N2441 C2433 1.427 . S
N2441 C2439 1.384 . S
H2442 C2448 0.930 . S
H2443 C2452 0.930 . S
H2444 C2457 0.929 . S
H2445 C2455 0.929 . S
H2446 C2450 0.929 . S
H2447 C2456 0.929 . S
C2448 H2442 0.930 . S
C2448 C2449 1.367 . S
C2448 C2456 1.378 . S
C2449 C2448 1.367 . S
C2449 C2457 1.433 . S
C2450 H2446 0.929 . S
C2450 C2452 1.378 . S
C2450 C2454 1.350 . S
C2451 C2454 1.463 . S
C2451 C2456 1.350 . S
C2451 N2459 1.427 . S
C2452 H2443 0.930 . S
C2452 C2450 1.378 . S
C2452 C2453 1.367 . S
C2453 C2452 1.367 . S
C2453 C2455 1.433 . S
C2454 C2450 1.350 . S
C2454 C2451 1.463 . S
C2454 N2458 1.427 . S
C2455 H2445 0.929 . S
C2455 C2453 1.433 . S
C2455 N2458 1.384 . S
C2456 H2447 0.929 . S
C2456 C2448 1.378 . S
C2456 C2451 1.350 . S
C2457 H2444 0.929 . S
C2457 C2449 1.433 . S
C2457 N2459 1.384 . S
N2458 C2454 1.427 . S
N2458 C2455 1.384 . S
N2459 C2451 1.427 . S
N2459 C2457 1.384 . S
H2460 C2466 0.930 . S
H2461 C2470 0.930 . S
H2462 C2475 0.929 . S
H2463 C2473 0.929 . S
H2464 C2468 0.929 . S
H2465 C2474 0.929 . S
C2466 H2460 0.930 . S
C2466 C2467 1.367 . S
C2466 C2474 1.378 . S
C2467 C2466 1.367 . S
C2467 C2475 1.433 . S
C2468 H2464 0.929 . S
C2468 C2470 1.378 . S
C2468 C2472 1.350 . S
C2469 C2472 1.463 . S
C2469 C2474 1.350 . S
C2469 N2477 1.427 . S
C2470 H2461 0.930 . S
C2470 C2468 1.378 . S
C2470 C2471 1.367 . S
C2471 C2470 1.367 . S
C2471 C2473 1.433 . S
C2472 C2468 1.350 . S
C2472 C2469 1.463 . S
C2472 N2476 1.427 . S
C2473 H2463 0.929 . S
C2473 C2471 1.433 . S
C2473 N2476 1.384 . S
C2474 H2465 0.929 . S
C2474 C2466 1.378 . S
C2474 C2469 1.350 . S
C2475 H2462 0.929 . S
C2475 C2467 1.433 . S
C2475 N2477 1.384 . S
N2476 C2472 1.427 . S
N2476 C2473 1.384 . S
N2477 C2469 1.427 . S
N2477 C2475 1.384 . S
H2478 C2484 0.930 . S
H2479 C2488 0.930 . S
H2480 C2493 0.929 . S
H2481 C2491 0.929 . S
H2482 C2486 0.929 . S
H2483 C2492 0.929 . S
C2484 H2478 0.930 . S
C2484 C2485 1.367 . S
C2484 C2492 1.378 . S
C2485 C2484 1.367 . S
C2485 C2493 1.433 . S
C2486 H2482 0.929 . S
C2486 C2488 1.378 . S
C2486 C2490 1.350 . S
C2487 C2490 1.463 . S
C2487 C2492 1.350 . S
C2487 N2495 1.427 . S
C2488 H2479 0.930 . S
C2488 C2486 1.378 . S
C2488 C2489 1.367 . S
C2489 C2488 1.367 . S
C2489 C2491 1.433 . S
C2490 C2486 1.350 . S
C2490 C2487 1.463 . S
C2490 N2494 1.427 . S
C2491 H2481 0.929 . S
C2491 C2489 1.433 . S
C2491 N2494 1.384 . S
C2492 H2483 0.929 . S
C2492 C2484 1.378 . S
C2492 C2487 1.350 . S
C2493 H2480 0.929 . S
C2493 C2485 1.433 . S
C2493 N2495 1.384 . S
N2494 C2490 1.427 . S
N2494 C2491 1.384 . S
N2495 C2487 1.427 . S
N2495 C2493 1.384 . S
H2496 C2502 0.930 . S
H2497 C2506 0.930 . S
H2498 C2511 0.929 . S
H2499 C2509 0.929 . S
H2500 C2504 0.929 . S
H2501 C2510 0.929 . S
C2502 H2496 0.930 . S
C2502 C2503 1.367 . S
C2502 C2510 1.378 . S
C2503 C2502 1.367 . S
C2503 C2511 1.433 . S
C2504 H2500 0.929 . S
C2504 C2506 1.378 . S
C2504 C2508 1.350 . S
C2505 C2508 1.463 . S
C2505 C2510 1.350 . S
C2505 N2513 1.427 . S
C2506 H2497 0.930 . S
C2506 C2504 1.378 . S
C2506 C2507 1.367 . S
C2507 C2506 1.367 . S
C2507 C2509 1.433 . S
C2508 C2504 1.350 . S
C2508 C2505 1.463 . S
C2508 N2512 1.427 . S
C2509 H2499 0.929 . S
C2509 C2507 1.433 . S
C2509 N2512 1.384 . S
C2510 H2501 0.929 . S
C2510 C2502 1.378 . S
C2510 C2505 1.350 . S
C2511 H2498 0.929 . S
C2511 C2503 1.433 . S
C2511 N2513 1.384 . S
N2512 C2508 1.427 . S
N2512 C2509 1.384 . S
N2513 C2505 1.427 . S
N2513 C2511 1.384 . S
H2514 C2520 0.930 . S
H2515 C2524 0.930 . S
H2516 C2529 0.929 . S
H2517 C2527 0.929 . S
H2518 C2522 0.929 . S
H2519 C2528 0.929 . S
C2520 H2514 0.930 . S
C2520 C2521 1.367 . S
C2520 C2528 1.378 . S
C2521 C2520 1.367 . S
C2521 C2529 1.433 . S
C2522 H2518 0.929 . S
C2522 C2524 1.378 . S
C2522 C2526 1.350 . S
C2523 C2526 1.463 . S
C2523 C2528 1.350 . S
C2523 N2531 1.427 . S
C2524 H2515 0.930 . S
C2524 C2522 1.378 . S
C2524 C2525 1.367 . S
C2525 C2524 1.367 . S
C2525 C2527 1.433 . S
C2526 C2522 1.350 . S
C2526 C2523 1.463 . S
C2526 N2530 1.427 . S
C2527 H2517 0.929 . S
C2527 C2525 1.433 . S
C2527 N2530 1.384 . S
C2528 H2519 0.929 . S
C2528 C2520 1.378 . S
C2528 C2523 1.350 . S
C2529 H2516 0.929 . S
C2529 C2521 1.433 . S
C2529 N2531 1.384 . S
N2530 C2526 1.427 . S
N2530 C2527 1.384 . S
N2531 C2523 1.427 . S
N2531 C2529 1.384 . S
H2532 C2538 0.930 . S
H2533 C2542 0.930 . S
H2534 C2547 0.929 . S
H2535 C2545 0.929 . S
H2536 C2540 0.929 . S
H2537 C2546 0.929 . S
C2538 H2532 0.930 . S
C2538 C2539 1.367 . S
C2538 C2546 1.378 . S
C2539 C2538 1.367 . S
C2539 C2547 1.433 . S
C2540 H2536 0.929 . S
C2540 C2542 1.378 . S
C2540 C2544 1.350 . S
C2541 C2544 1.463 . S
C2541 C2546 1.350 . S
C2541 N2549 1.427 . S
C2542 H2533 0.930 . S
C2542 C2540 1.378 . S
C2542 C2543 1.367 . S
C2543 C2542 1.367 . S
C2543 C2545 1.433 . S
C2544 C2540 1.350 . S
C2544 C2541 1.463 . S
C2544 N2548 1.427 . S
C2545 H2535 0.929 . S
C2545 C2543 1.433 . S
C2545 N2548 1.384 . S
C2546 H2537 0.929 . S
C2546 C2538 1.378 . S
C2546 C2541 1.350 . S
C2547 H2534 0.929 . S
C2547 C2539 1.433 . S
C2547 N2549 1.384 . S
N2548 C2544 1.427 . S
N2548 C2545 1.384 . S
N2549 C2541 1.427 . S
N2549 C2547 1.384 . S
H2550 C2556 0.930 . S
H2551 C2560 0.930 . S
H2552 C2565 0.929 . S
H2553 C2563 0.929 . S
H2554 C2558 0.929 . S
H2555 C2564 0.929 . S
C2556 H2550 0.930 . S
C2556 C2557 1.367 . S
C2556 C2564 1.378 . S
C2557 C2556 1.367 . S
C2557 C2565 1.433 . S
C2558 H2554 0.929 . S
C2558 C2560 1.378 . S
C2558 C2562 1.350 . S
C2559 C2562 1.463 . S
C2559 C2564 1.350 . S
C2559 N2567 1.427 . S
C2560 H2551 0.930 . S
C2560 C2558 1.378 . S
C2560 C2561 1.367 . S
C2561 C2560 1.367 . S
C2561 C2563 1.433 . S
C2562 C2558 1.350 . S
C2562 C2559 1.463 . S
C2562 N2566 1.427 . S
C2563 H2553 0.929 . S
C2563 C2561 1.433 . S
C2563 N2566 1.384 . S
C2564 H2555 0.929 . S
C2564 C2556 1.378 . S
C2564 C2559 1.350 . S
C2565 H2552 0.929 . S
C2565 C2557 1.433 . S
C2565 N2567 1.384 . S
N2566 C2562 1.427 . S
N2566 C2563 1.384 . S
N2567 C2559 1.427 . S
N2567 C2565 1.384 . S
H2568 C2574 0.930 . S
H2569 C2578 0.930 . S
H2570 C2583 0.929 . S
H2571 C2581 0.929 . S
H2572 C2576 0.929 . S
H2573 C2582 0.929 . S
C2574 H2568 0.930 . S
C2574 C2575 1.367 . S
C2574 C2582 1.378 . S
C2575 C2574 1.367 . S
C2575 C2583 1.433 . S
C2576 H2572 0.929 . S
C2576 C2578 1.378 . S
C2576 C2580 1.350 . S
C2577 C2580 1.463 . S
C2577 C2582 1.350 . S
C2577 N2585 1.427 . S
C2578 H2569 0.930 . S
C2578 C2576 1.378 . S
C2578 C2579 1.367 . S
C2579 C2578 1.367 . S
C2579 C2581 1.433 . S
C2580 C2576 1.350 . S
C2580 C2577 1.463 . S
C2580 N2584 1.427 . S
C2581 H2571 0.929 . S
C2581 C2579 1.433 . S
C2581 N2584 1.384 . S
C2582 H2573 0.929 . S
C2582 C2574 1.378 . S
C2582 C2577 1.350 . S
C2583 H2570 0.929 . S
C2583 C2575 1.433 . S
C2583 N2585 1.384 . S
N2584 C2580 1.427 . S
N2584 C2581 1.384 . S
N2585 C2577 1.427 . S
N2585 C2583 1.384 . S
H2586 C2592 0.930 . S
H2587 C2596 0.930 . S
H2588 C2601 0.929 . S
H2589 C2599 0.929 . S
H2590 C2594 0.929 . S
H2591 C2600 0.929 . S
C2592 H2586 0.930 . S
C2592 C2593 1.367 . S
C2592 C2600 1.378 . S
C2593 C2592 1.367 . S
C2593 C2601 1.433 . S
C2594 H2590 0.929 . S
C2594 C2596 1.378 . S
C2594 C2598 1.350 . S
C2595 C2598 1.463 . S
C2595 C2600 1.350 . S
C2595 N2603 1.427 . S
C2596 H2587 0.930 . S
C2596 C2594 1.378 . S
C2596 C2597 1.367 . S
C2597 C2596 1.367 . S
C2597 C2599 1.433 . S
C2598 C2594 1.350 . S
C2598 C2595 1.463 . S
C2598 N2602 1.427 . S
C2599 H2589 0.929 . S
C2599 C2597 1.433 . S
C2599 N2602 1.384 . S
C2600 H2591 0.929 . S
C2600 C2592 1.378 . S
C2600 C2595 1.350 . S
C2601 H2588 0.929 . S
C2601 C2593 1.433 . S
C2601 N2603 1.384 . S
N2602 C2598 1.427 . S
N2602 C2599 1.384 . S
N2603 C2595 1.427 . S
N2603 C2601 1.384 . S
H2604 C2610 0.930 . S
H2605 C2614 0.930 . S
H2606 C2619 0.929 . S
H2607 C2617 0.929 . S
H2608 C2612 0.929 . S
H2609 C2618 0.929 . S
C2610 H2604 0.930 . S
C2610 C2611 1.367 . S
C2610 C2618 1.378 . S
C2611 C2610 1.367 . S
C2611 C2619 1.433 . S
C2612 H2608 0.929 . S
C2612 C2614 1.378 . S
C2612 C2616 1.350 . S
C2613 C2616 1.463 . S
C2613 C2618 1.350 . S
C2613 N2621 1.427 . S
C2614 H2605 0.930 . S
C2614 C2612 1.378 . S
C2614 C2615 1.367 . S
C2615 C2614 1.367 . S
C2615 C2617 1.433 . S
C2616 C2612 1.350 . S
C2616 C2613 1.463 . S
C2616 N2620 1.427 . S
C2617 H2607 0.929 . S
C2617 C2615 1.433 . S
C2617 N2620 1.384 . S
C2618 H2609 0.929 . S
C2618 C2610 1.378 . S
C2618 C2613 1.350 . S
C2619 H2606 0.929 . S
C2619 C2611 1.433 . S
C2619 N2621 1.384 . S
N2620 C2616 1.427 . S
N2620 C2617 1.384 . S
N2621 C2613 1.427 . S
N2621 C2619 1.384 . S
H2622 C2628 0.930 . S
H2623 C2632 0.930 . S
H2624 C2637 0.929 . S
H2625 C2635 0.929 . S
H2626 C2630 0.929 . S
H2627 C2636 0.929 . S
C2628 H2622 0.930 . S
C2628 C2629 1.367 . S
C2628 C2636 1.378 . S
C2629 C2628 1.367 . S
C2629 C2637 1.433 . S
C2630 H2626 0.929 . S
C2630 C2632 1.378 . S
C2630 C2634 1.350 . S
C2631 C2634 1.463 . S
C2631 C2636 1.350 . S
C2631 N2639 1.427 . S
C2632 H2623 0.930 . S
C2632 C2630 1.378 . S
C2632 C2633 1.367 . S
C2633 C2632 1.367 . S
C2633 C2635 1.433 . S
C2634 C2630 1.350 . S
C2634 C2631 1.463 . S
C2634 N2638 1.427 . S
C2635 H2625 0.929 . S
C2635 C2633 1.433 . S
C2635 N2638 1.384 . S
C2636 H2627 0.929 . S
C2636 C2628 1.378 . S
C2636 C2631 1.350 . S
C2637 H2624 0.929 . S
C2637 C2629 1.433 . S
C2637 N2639 1.384 . S
N2638 C2634 1.427 . S
N2638 C2635 1.384 . S
N2639 C2631 1.427 . S
N2639 C2637 1.384 . S
H2640 C2646 0.930 . S
H2641 C2650 0.930 . S
H2642 C2655 0.929 . S
H2643 C2653 0.929 . S
H2644 C2648 0.929 . S
H2645 C2654 0.929 . S
C2646 H2640 0.930 . S
C2646 C2647 1.367 . S
C2646 C2654 1.378 . S
C2647 C2646 1.367 . S
C2647 C2655 1.433 . S
C2648 H2644 0.929 . S
C2648 C2650 1.378 . S
C2648 C2652 1.350 . S
C2649 C2652 1.463 . S
C2649 C2654 1.350 . S
C2649 N2657 1.427 . S
C2650 H2641 0.930 . S
C2650 C2648 1.378 . S
C2650 C2651 1.367 . S
C2651 C2650 1.367 . S
C2651 C2653 1.433 . S
C2652 C2648 1.350 . S
C2652 C2649 1.463 . S
C2652 N2656 1.427 . S
C2653 H2643 0.929 . S
C2653 C2651 1.433 . S
C2653 N2656 1.384 . S
C2654 H2645 0.929 . S
C2654 C2646 1.378 . S
C2654 C2649 1.350 . S
C2655 H2642 0.929 . S
C2655 C2647 1.433 . S
C2655 N2657 1.384 . S
N2656 C2652 1.427 . S
N2656 C2653 1.384 . S
N2657 C2649 1.427 . S
N2657 C2655 1.384 . S
H2658 C2664 0.930 . S
H2659 C2668 0.930 . S
H2660 C2673 0.929 . S
H2661 C2671 0.929 . S
H2662 C2666 0.929 . S
H2663 C2672 0.929 . S
C2664 H2658 0.930 . S
C2664 C2665 1.367 . S
C2664 C2672 1.378 . S
C2665 C2664 1.367 . S
C2665 C2673 1.433 . S
C2666 H2662 0.929 . S
C2666 C2668 1.378 . S
C2666 C2670 1.350 . S
C2667 C2670 1.463 . S
C2667 C2672 1.350 . S
C2667 N2675 1.427 . S
C2668 H2659 0.930 . S
C2668 C2666 1.378 . S
C2668 C2669 1.367 . S
C2669 C2668 1.367 . S
C2669 C2671 1.433 . S
C2670 C2666 1.350 . S
C2670 C2667 1.463 . S
C2670 N2674 1.427 . S
C2671 H2661 0.929 . S
C2671 C2669 1.433 . S
C2671 N2674 1.384 . S
C2672 H2663 0.929 . S
C2672 C2664 1.378 . S
C2672 C2667 1.350 . S
C2673 H2660 0.929 . S
C2673 C2665 1.433 . S
C2673 N2675 1.384 . S
N2674 C2670 1.427 . S
N2674 C2671 1.384 . S
N2675 C2667 1.427 . S
N2675 C2673 1.384 . S
H2676 C2682 0.930 . S
H2677 C2686 0.930 . S
H2678 C2691 0.929 . S
H2679 C2689 0.929 . S
H2680 C2684 0.929 . S
H2681 C2690 0.929 . S
C2682 H2676 0.930 . S
C2682 C2683 1.367 . S
C2682 C2690 1.378 . S
C2683 C2682 1.367 . S
C2683 C2691 1.433 . S
C2684 H2680 0.929 . S
C2684 C2686 1.378 . S
C2684 C2688 1.350 . S
C2685 C2688 1.463 . S
C2685 C2690 1.350 . S
C2685 N2693 1.427 . S
C2686 H2677 0.930 . S
C2686 C2684 1.378 . S
C2686 C2687 1.367 . S
C2687 C2686 1.367 . S
C2687 C2689 1.433 . S
C2688 C2684 1.350 . S
C2688 C2685 1.463 . S
C2688 N2692 1.427 . S
C2689 H2679 0.929 . S
C2689 C2687 1.433 . S
C2689 N2692 1.384 . S
C2690 H2681 0.929 . S
C2690 C2682 1.378 . S
C2690 C2685 1.350 . S
C2691 H2678 0.929 . S
C2691 C2683 1.433 . S
C2691 N2693 1.384 . S
N2692 C2688 1.427 . S
N2692 C2689 1.384 . S
N2693 C2685 1.427 . S
N2693 C2691 1.384 . S
H2694 C2700 0.930 . S
H2695 C2704 0.930 . S
H2696 C2709 0.929 . S
H2697 C2707 0.929 . S
H2698 C2702 0.929 . S
H2699 C2708 0.929 . S
C2700 H2694 0.930 . S
C2700 C2701 1.367 . S
C2700 C2708 1.378 . S
C2701 C2700 1.367 . S
C2701 C2709 1.433 . S
C2702 H2698 0.929 . S
C2702 C2704 1.378 . S
C2702 C2706 1.350 . S
C2703 C2706 1.463 . S
C2703 C2708 1.350 . S
C2703 N2711 1.427 . S
C2704 H2695 0.930 . S
C2704 C2702 1.378 . S
C2704 C2705 1.367 . S
C2705 C2704 1.367 . S
C2705 C2707 1.433 . S
C2706 C2702 1.350 . S
C2706 C2703 1.463 . S
C2706 N2710 1.427 . S
C2707 H2697 0.929 . S
C2707 C2705 1.433 . S
C2707 N2710 1.384 . S
C2708 H2699 0.929 . S
C2708 C2700 1.378 . S
C2708 C2703 1.350 . S
C2709 H2696 0.929 . S
C2709 C2701 1.433 . S
C2709 N2711 1.384 . S
N2710 C2706 1.427 . S
N2710 C2707 1.384 . S
N2711 C2703 1.427 . S
N2711 C2709 1.384 . S
H2712 C2718 0.930 . S
H2713 C2722 0.930 . S
H2714 C2727 0.929 . S
H2715 C2725 0.929 . S
H2716 C2720 0.929 . S
H2717 C2726 0.929 . S
C2718 H2712 0.930 . S
C2718 C2719 1.367 . S
C2718 C2726 1.378 . S
C2719 C2718 1.367 . S
C2719 C2727 1.433 . S
C2720 H2716 0.929 . S
C2720 C2722 1.378 . S
C2720 C2724 1.350 . S
C2721 C2724 1.463 . S
C2721 C2726 1.350 . S
C2721 N2729 1.427 . S
C2722 H2713 0.930 . S
C2722 C2720 1.378 . S
C2722 C2723 1.367 . S
C2723 C2722 1.367 . S
C2723 C2725 1.433 . S
C2724 C2720 1.350 . S
C2724 C2721 1.463 . S
C2724 N2728 1.427 . S
C2725 H2715 0.929 . S
C2725 C2723 1.433 . S
C2725 N2728 1.384 . S
C2726 H2717 0.929 . S
C2726 C2718 1.378 . S
C2726 C2721 1.350 . S
C2727 H2714 0.929 . S
C2727 C2719 1.433 . S
C2727 N2729 1.384 . S
N2728 C2724 1.427 . S
N2728 C2725 1.384 . S
N2729 C2721 1.427 . S
N2729 C2727 1.384 . S
H2730 C2736 0.930 . S
H2731 C2740 0.930 . S
H2732 C2745 0.929 . S
H2733 C2743 0.929 . S
H2734 C2738 0.929 . S
H2735 C2744 0.929 . S
C2736 H2730 0.930 . S
C2736 C2737 1.367 . S
C2736 C2744 1.378 . S
C2737 C2736 1.367 . S
C2737 C2745 1.433 . S
C2738 H2734 0.929 . S
C2738 C2740 1.378 . S
C2738 C2742 1.350 . S
C2739 C2742 1.463 . S
C2739 C2744 1.350 . S
C2739 N2747 1.427 . S
C2740 H2731 0.930 . S
C2740 C2738 1.378 . S
C2740 C2741 1.367 . S
C2741 C2740 1.367 . S
C2741 C2743 1.433 . S
C2742 C2738 1.350 . S
C2742 C2739 1.463 . S
C2742 N2746 1.427 . S
C2743 H2733 0.929 . S
C2743 C2741 1.433 . S
C2743 N2746 1.384 . S
C2744 H2735 0.929 . S
C2744 C2736 1.378 . S
C2744 C2739 1.350 . S
C2745 H2732 0.929 . S
C2745 C2737 1.433 . S
C2745 N2747 1.384 . S
N2746 C2742 1.427 . S
N2746 C2743 1.384 . S
N2747 C2739 1.427 . S
N2747 C2745 1.384 . S
H2748 C2754 0.930 . S
H2749 C2758 0.930 . S
H2750 C2763 0.929 . S
H2751 C2761 0.929 . S
H2752 C2756 0.929 . S
H2753 C2762 0.929 . S
C2754 H2748 0.930 . S
C2754 C2755 1.367 . S
C2754 C2762 1.378 . S
C2755 C2754 1.367 . S
C2755 C2763 1.433 . S
C2756 H2752 0.929 . S
C2756 C2758 1.378 . S
C2756 C2760 1.350 . S
C2757 C2760 1.463 . S
C2757 C2762 1.350 . S
C2757 N2765 1.427 . S
C2758 H2749 0.930 . S
C2758 C2756 1.378 . S
C2758 C2759 1.367 . S
C2759 C2758 1.367 . S
C2759 C2761 1.433 . S
C2760 C2756 1.350 . S
C2760 C2757 1.463 . S
C2760 N2764 1.427 . S
C2761 H2751 0.929 . S
C2761 C2759 1.433 . S
C2761 N2764 1.384 . S
C2762 H2753 0.929 . S
C2762 C2754 1.378 . S
C2762 C2757 1.350 . S
C2763 H2750 0.929 . S
C2763 C2755 1.433 . S
C2763 N2765 1.384 . S
N2764 C2760 1.427 . S
N2764 C2761 1.384 . S
N2765 C2757 1.427 . S
N2765 C2763 1.384 . S
H2766 C2772 0.930 . S
H2767 C2776 0.930 . S
H2768 C2781 0.929 . S
H2769 C2779 0.929 . S
H2770 C2774 0.929 . S
H2771 C2780 0.929 . S
C2772 H2766 0.930 . S
C2772 C2773 1.367 . S
C2772 C2780 1.378 . S
C2773 C2772 1.367 . S
C2773 C2781 1.433 . S
C2774 H2770 0.929 . S
C2774 C2776 1.378 . S
C2774 C2778 1.350 . S
C2775 C2778 1.463 . S
C2775 C2780 1.350 . S
C2775 N2783 1.427 . S
C2776 H2767 0.930 . S
C2776 C2774 1.378 . S
C2776 C2777 1.367 . S
C2777 C2776 1.367 . S
C2777 C2779 1.433 . S
C2778 C2774 1.350 . S
C2778 C2775 1.463 . S
C2778 N2782 1.427 . S
C2779 H2769 0.929 . S
C2779 C2777 1.433 . S
C2779 N2782 1.384 . S
C2780 H2771 0.929 . S
C2780 C2772 1.378 . S
C2780 C2775 1.350 . S
C2781 H2768 0.929 . S
C2781 C2773 1.433 . S
C2781 N2783 1.384 . S
N2782 C2778 1.427 . S
N2782 C2779 1.384 . S
N2783 C2775 1.427 . S
N2783 C2781 1.384 . S
H2784 C2790 0.930 . S
H2785 C2794 0.930 . S
H2786 C2799 0.929 . S
H2787 C2797 0.929 . S
H2788 C2792 0.929 . S
H2789 C2798 0.929 . S
C2790 H2784 0.930 . S
C2790 C2791 1.367 . S
C2790 C2798 1.378 . S
C2791 C2790 1.367 . S
C2791 C2799 1.433 . S
C2792 H2788 0.929 . S
C2792 C2794 1.378 . S
C2792 C2796 1.350 . S
C2793 C2796 1.463 . S
C2793 C2798 1.350 . S
C2793 N2801 1.427 . S
C2794 H2785 0.930 . S
C2794 C2792 1.378 . S
C2794 C2795 1.367 . S
C2795 C2794 1.367 . S
C2795 C2797 1.433 . S
C2796 C2792 1.350 . S
C2796 C2793 1.463 . S
C2796 N2800 1.427 . S
C2797 H2787 0.929 . S
C2797 C2795 1.433 . S
C2797 N2800 1.384 . S
C2798 H2789 0.929 . S
C2798 C2790 1.378 . S
C2798 C2793 1.350 . S
C2799 H2786 0.929 . S
C2799 C2791 1.433 . S
C2799 N2801 1.384 . S
N2800 C2796 1.427 . S
N2800 C2797 1.384 . S
N2801 C2793 1.427 . S
N2801 C2799 1.384 . S
H2802 C2808 0.930 . S
H2803 C2812 0.930 . S
H2804 C2817 0.929 . S
H2805 C2815 0.929 . S
H2806 C2810 0.929 . S
H2807 C2816 0.929 . S
C2808 H2802 0.930 . S
C2808 C2809 1.367 . S
C2808 C2816 1.378 . S
C2809 C2808 1.367 . S
C2809 C2817 1.433 . S
C2810 H2806 0.929 . S
C2810 C2812 1.378 . S
C2810 C2814 1.350 . S
C2811 C2814 1.463 . S
C2811 C2816 1.350 . S
C2811 N2819 1.427 . S
C2812 H2803 0.930 . S
C2812 C2810 1.378 . S
C2812 C2813 1.367 . S
C2813 C2812 1.367 . S
C2813 C2815 1.433 . S
C2814 C2810 1.350 . S
C2814 C2811 1.463 . S
C2814 N2818 1.427 . S
C2815 H2805 0.929 . S
C2815 C2813 1.433 . S
C2815 N2818 1.384 . S
C2816 H2807 0.929 . S
C2816 C2808 1.378 . S
C2816 C2811 1.350 . S
C2817 H2804 0.929 . S
C2817 C2809 1.433 . S
C2817 N2819 1.384 . S
N2818 C2814 1.427 . S
N2818 C2815 1.384 . S
N2819 C2811 1.427 . S
N2819 C2817 1.384 . S
H2820 C2826 0.930 . S
H2821 C2830 0.930 . S
H2822 C2835 0.929 . S
H2823 C2833 0.929 . S
H2824 C2828 0.929 . S
H2825 C2834 0.929 . S
C2826 H2820 0.930 . S
C2826 C2827 1.367 . S
C2826 C2834 1.378 . S
C2827 C2826 1.367 . S
C2827 C2835 1.433 . S
C2828 H2824 0.929 . S
C2828 C2830 1.378 . S
C2828 C2832 1.350 . S
C2829 C2832 1.463 . S
C2829 C2834 1.350 . S
C2829 N2837 1.427 . S
C2830 H2821 0.930 . S
C2830 C2828 1.378 . S
C2830 C2831 1.367 . S
C2831 C2830 1.367 . S
C2831 C2833 1.433 . S
C2832 C2828 1.350 . S
C2832 C2829 1.463 . S
C2832 N2836 1.427 . S
C2833 H2823 0.929 . S
C2833 C2831 1.433 . S
C2833 N2836 1.384 . S
C2834 H2825 0.929 . S
C2834 C2826 1.378 . S
C2834 C2829 1.350 . S
C2835 H2822 0.929 . S
C2835 C2827 1.433 . S
C2835 N2837 1.384 . S
N2836 C2832 1.427 . S
N2836 C2833 1.384 . S
N2837 C2829 1.427 . S
N2837 C2835 1.384 . S
H2838 C2844 0.930 . S
H2839 C2848 0.930 . S
H2840 C2853 0.929 . S
H2841 C2851 0.929 . S
H2842 C2846 0.929 . S
H2843 C2852 0.929 . S
C2844 H2838 0.930 . S
C2844 C2845 1.367 . S
C2844 C2852 1.378 . S
C2845 C2844 1.367 . S
C2845 C2853 1.433 . S
C2846 H2842 0.929 . S
C2846 C2848 1.378 . S
C2846 C2850 1.350 . S
C2847 C2850 1.463 . S
C2847 C2852 1.350 . S
C2847 N2855 1.427 . S
C2848 H2839 0.930 . S
C2848 C2846 1.378 . S
C2848 C2849 1.367 . S
C2849 C2848 1.367 . S
C2849 C2851 1.433 . S
C2850 C2846 1.350 . S
C2850 C2847 1.463 . S
C2850 N2854 1.427 . S
C2851 H2841 0.929 . S
C2851 C2849 1.433 . S
C2851 N2854 1.384 . S
C2852 H2843 0.929 . S
C2852 C2844 1.378 . S
C2852 C2847 1.350 . S
C2853 H2840 0.929 . S
C2853 C2845 1.433 . S
C2853 N2855 1.384 . S
N2854 C2850 1.427 . S
N2854 C2851 1.384 . S
N2855 C2847 1.427 . S
N2855 C2853 1.384 . S
H2856 C2862 0.930 . S
H2857 C2866 0.930 . S
H2858 C2871 0.929 . S
H2859 C2869 0.929 . S
H2860 C2864 0.929 . S
H2861 C2870 0.929 . S
C2862 H2856 0.930 . S
C2862 C2863 1.367 . S
C2862 C2870 1.378 . S
C2863 C2862 1.367 . S
C2863 C2871 1.433 . S
C2864 H2860 0.929 . S
C2864 C2866 1.378 . S
C2864 C2868 1.350 . S
C2865 C2868 1.463 . S
C2865 C2870 1.350 . S
C2865 N2873 1.427 . S
C2866 H2857 0.930 . S
C2866 C2864 1.378 . S
C2866 C2867 1.367 . S
C2867 C2866 1.367 . S
C2867 C2869 1.433 . S
C2868 C2864 1.350 . S
C2868 C2865 1.463 . S
C2868 N2872 1.427 . S
C2869 H2859 0.929 . S
C2869 C2867 1.433 . S
C2869 N2872 1.384 . S
C2870 H2861 0.929 . S
C2870 C2862 1.378 . S
C2870 C2865 1.350 . S
C2871 H2858 0.929 . S
C2871 C2863 1.433 . S
C2871 N2873 1.384 . S
N2872 C2868 1.427 . S
N2872 C2869 1.384 . S
N2873 C2865 1.427 . S
N2873 C2871 1.384 . S
H2874 C2880 0.930 . S
H2875 C2884 0.930 . S
H2876 C2889 0.929 . S
H2877 C2887 0.929 . S
H2878 C2882 0.929 . S
H2879 C2888 0.929 . S
C2880 H2874 0.930 . S
C2880 C2881 1.367 . S
C2880 C2888 1.378 . S
C2881 C2880 1.367 . S
C2881 C2889 1.433 . S
C2882 H2878 0.929 . S
C2882 C2884 1.378 . S
C2882 C2886 1.350 . S
C2883 C2886 1.463 . S
C2883 C2888 1.350 . S
C2883 N2891 1.427 . S
C2884 H2875 0.930 . S
C2884 C2882 1.378 . S
C2884 C2885 1.367 . S
C2885 C2884 1.367 . S
C2885 C2887 1.433 . S
C2886 C2882 1.350 . S
C2886 C2883 1.463 . S
C2886 N2890 1.427 . S
C2887 H2877 0.929 . S
C2887 C2885 1.433 . S
C2887 N2890 1.384 . S
C2888 H2879 0.929 . S
C2888 C2880 1.378 . S
C2888 C2883 1.350 . S
C2889 H2876 0.929 . S
C2889 C2881 1.433 . S
C2889 N2891 1.384 . S
N2890 C2886 1.427 . S
N2890 C2887 1.384 . S
N2891 C2883 1.427 . S
N2891 C2889 1.384 . S
H2892 C2898 0.930 . S
H2893 C2902 0.930 . S
H2894 C2907 0.929 . S
H2895 C2905 0.929 . S
H2896 C2900 0.929 . S
H2897 C2906 0.929 . S
C2898 H2892 0.930 . S
C2898 C2899 1.367 . S
C2898 C2906 1.378 . S
C2899 C2898 1.367 . S
C2899 C2907 1.433 . S
C2900 H2896 0.929 . S
C2900 C2902 1.378 . S
C2900 C2904 1.350 . S
C2901 C2904 1.463 . S
C2901 C2906 1.350 . S
C2901 N2909 1.427 . S
C2902 H2893 0.930 . S
C2902 C2900 1.378 . S
C2902 C2903 1.367 . S
C2903 C2902 1.367 . S
C2903 C2905 1.433 . S
C2904 C2900 1.350 . S
C2904 C2901 1.463 . S
C2904 N2908 1.427 . S
C2905 H2895 0.929 . S
C2905 C2903 1.433 . S
C2905 N2908 1.384 . S
C2906 H2897 0.929 . S
C2906 C2898 1.378 . S
C2906 C2901 1.350 . S
C2907 H2894 0.929 . S
C2907 C2899 1.433 . S
C2907 N2909 1.384 . S
N2908 C2904 1.427 . S
N2908 C2905 1.384 . S
N2909 C2901 1.427 . S
N2909 C2907 1.384 . S
H2910 C2916 0.930 . S
H2911 C2920 0.930 . S
H2912 C2925 0.929 . S
H2913 C2923 0.929 . S
H2914 C2918 0.929 . S
H2915 C2924 0.929 . S
C2916 H2910 0.930 . S
C2916 C2917 1.367 . S
C2916 C2924 1.378 . S
C2917 C2916 1.367 . S
C2917 C2925 1.433 . S
C2918 H2914 0.929 . S
C2918 C2920 1.378 . S
C2918 C2922 1.350 . S
C2919 C2922 1.463 . S
C2919 C2924 1.350 . S
C2919 N2927 1.427 . S
C2920 H2911 0.930 . S
C2920 C2918 1.378 . S
C2920 C2921 1.367 . S
C2921 C2920 1.367 . S
C2921 C2923 1.433 . S
C2922 C2918 1.350 . S
C2922 C2919 1.463 . S
C2922 N2926 1.427 . S
C2923 H2913 0.929 . S
C2923 C2921 1.433 . S
C2923 N2926 1.384 . S
C2924 H2915 0.929 . S
C2924 C2916 1.378 . S
C2924 C2919 1.350 . S
C2925 H2912 0.929 . S
C2925 C2917 1.433 . S
C2925 N2927 1.384 . S
N2926 C2922 1.427 . S
N2926 C2923 1.384 . S
N2927 C2919 1.427 . S
N2927 C2925 1.384 . S
H2928 C2934 0.930 . S
H2929 C2938 0.930 . S
H2930 C2943 0.929 . S
H2931 C2941 0.929 . S
H2932 C2936 0.929 . S
H2933 C2942 0.929 . S
C2934 H2928 0.930 . S
C2934 C2935 1.367 . S
C2934 C2942 1.378 . S
C2935 C2934 1.367 . S
C2935 C2943 1.433 . S
C2936 H2932 0.929 . S
C2936 C2938 1.378 . S
C2936 C2940 1.350 . S
C2937 C2940 1.463 . S
C2937 C2942 1.350 . S
C2937 N2945 1.427 . S
C2938 H2929 0.930 . S
C2938 C2936 1.378 . S
C2938 C2939 1.367 . S
C2939 C2938 1.367 . S
C2939 C2941 1.433 . S
C2940 C2936 1.350 . S
C2940 C2937 1.463 . S
C2940 N2944 1.427 . S
C2941 H2931 0.929 . S
C2941 C2939 1.433 . S
C2941 N2944 1.384 . S
C2942 H2933 0.929 . S
C2942 C2934 1.378 . S
C2942 C2937 1.350 . S
C2943 H2930 0.929 . S
C2943 C2935 1.433 . S
C2943 N2945 1.384 . S
N2944 C2940 1.427 . S
N2944 C2941 1.384 . S
N2945 C2937 1.427 . S
N2945 C2943 1.384 . S
H2946 C2952 0.930 . S
H2947 C2956 0.930 . S
H2948 C2961 0.929 . S
H2949 C2959 0.929 . S
H2950 C2954 0.929 . S
H2951 C2960 0.929 . S
C2952 H2946 0.930 . S
C2952 C2953 1.367 . S
C2952 C2960 1.378 . S
C2953 C2952 1.367 . S
C2953 C2961 1.433 . S
C2954 H2950 0.929 . S
C2954 C2956 1.378 . S
C2954 C2958 1.350 . S
C2955 C2958 1.463 . S
C2955 C2960 1.350 . S
C2955 N2963 1.427 . S
C2956 H2947 0.930 . S
C2956 C2954 1.378 . S
C2956 C2957 1.367 . S
C2957 C2956 1.367 . S
C2957 C2959 1.433 . S
C2958 C2954 1.350 . S
C2958 C2955 1.463 . S
C2958 N2962 1.427 . S
C2959 H2949 0.929 . S
C2959 C2957 1.433 . S
C2959 N2962 1.384 . S
C2960 H2951 0.929 . S
C2960 C2952 1.378 . S
C2960 C2955 1.350 . S
C2961 H2948 0.929 . S
C2961 C2953 1.433 . S
C2961 N2963 1.384 . S
N2962 C2958 1.427 . S
N2962 C2959 1.384 . S
N2963 C2955 1.427 . S
N2963 C2961 1.384 . S
H2964 C2970 0.930 . S
H2965 C2974 0.930 . S
H2966 C2979 0.929 . S
H2967 C2977 0.929 . S
H2968 C2972 0.929 . S
H2969 C2978 0.929 . S
C2970 H2964 0.930 . S
C2970 C2971 1.367 . S
C2970 C2978 1.378 . S
C2971 C2970 1.367 . S
C2971 C2979 1.433 . S
C2972 H2968 0.929 . S
C2972 C2974 1.378 . S
C2972 C2976 1.350 . S
C2973 C2976 1.463 . S
C2973 C2978 1.350 . S
C2973 N2981 1.427 . S
C2974 H2965 0.930 . S
C2974 C2972 1.378 . S
C2974 C2975 1.367 . S
C2975 C2974 1.367 . S
C2975 C2977 1.433 . S
C2976 C2972 1.350 . S
C2976 C2973 1.463 . S
C2976 N2980 1.427 . S
C2977 H2967 0.929 . S
C2977 C2975 1.433 . S
C2977 N2980 1.384 . S
C2978 H2969 0.929 . S
C2978 C2970 1.378 . S
C2978 C2973 1.350 . S
C2979 H2966 0.929 . S
C2979 C2971 1.433 . S
C2979 N2981 1.384 . S
N2980 C2976 1.427 . S
N2980 C2977 1.384 . S
N2981 C2973 1.427 . S
N2981 C2979 1.384 . S
H2982 C2988 0.930 . S
H2983 C2992 0.930 . S
H2984 C2997 0.929 . S
H2985 C2995 0.929 . S
H2986 C2990 0.929 . S
H2987 C2996 0.929 . S
C2988 H2982 0.930 . S
C2988 C2989 1.367 . S
C2988 C2996 1.378 . S
C2989 C2988 1.367 . S
C2989 C2997 1.433 . S
C2990 H2986 0.929 . S
C2990 C2992 1.378 . S
C2990 C2994 1.350 . S
C2991 C2994 1.463 . S
C2991 C2996 1.350 . S
C2991 N2999 1.427 . S
C2992 H2983 0.930 . S
C2992 C2990 1.378 . S
C2992 C2993 1.367 . S
C2993 C2992 1.367 . S
C2993 C2995 1.433 . S
C2994 C2990 1.350 . S
C2994 C2991 1.463 . S
C2994 N2998 1.427 . S
C2995 H2985 0.929 . S
C2995 C2993 1.433 . S
C2995 N2998 1.384 . S
C2996 H2987 0.929 . S
C2996 C2988 1.378 . S
C2996 C2991 1.350 . S
C2997 H2984 0.929 . S
C2997 C2989 1.433 . S
C2997 N2999 1.384 . S
N2998 C2994 1.427 . S
N2998 C2995 1.384 . S
N2999 C2991 1.427 . S
N2999 C2997 1.384 . S
H3000 C3006 0.930 . S
H3001 C3010 0.930 . S
H3002 C3015 0.929 . S
H3003 C3013 0.929 . S
H3004 C3008 0.929 . S
H3005 C3014 0.929 . S
C3006 H3000 0.930 . S
C3006 C3007 1.367 . S
C3006 C3014 1.378 . S
C3007 C3006 1.367 . S
C3007 C3015 1.433 . S
C3008 H3004 0.929 . S
C3008 C3010 1.378 . S
C3008 C3012 1.350 . S
C3009 C3012 1.463 . S
C3009 C3014 1.350 . S
C3009 N3017 1.427 . S
C3010 H3001 0.930 . S
C3010 C3008 1.378 . S
C3010 C3011 1.367 . S
C3011 C3010 1.367 . S
C3011 C3013 1.433 . S
C3012 C3008 1.350 . S
C3012 C3009 1.463 . S
C3012 N3016 1.427 . S
C3013 H3003 0.929 . S
C3013 C3011 1.433 . S
C3013 N3016 1.384 . S
C3014 H3005 0.929 . S
C3014 C3006 1.378 . S
C3014 C3009 1.350 . S
C3015 H3002 0.929 . S
C3015 C3007 1.433 . S
C3015 N3017 1.384 . S
N3016 C3012 1.427 . S
N3016 C3013 1.384 . S
N3017 C3009 1.427 . S
N3017 C3015 1.384 . S
H3018 C3024 0.930 . S
H3019 C3028 0.930 . S
H3020 C3033 0.929 . S
H3021 C3031 0.929 . S
H3022 C3026 0.929 . S
H3023 C3032 0.929 . S
C3024 H3018 0.930 . S
C3024 C3025 1.367 . S
C3024 C3032 1.378 . S
C3025 C3024 1.367 . S
C3025 C3033 1.433 . S
C3026 H3022 0.929 . S
C3026 C3028 1.378 . S
C3026 C3030 1.350 . S
C3027 C3030 1.463 . S
C3027 C3032 1.350 . S
C3027 N3035 1.427 . S
C3028 H3019 0.930 . S
C3028 C3026 1.378 . S
C3028 C3029 1.367 . S
C3029 C3028 1.367 . S
C3029 C3031 1.433 . S
C3030 C3026 1.350 . S
C3030 C3027 1.463 . S
C3030 N3034 1.427 . S
C3031 H3021 0.929 . S
C3031 C3029 1.433 . S
C3031 N3034 1.384 . S
C3032 H3023 0.929 . S
C3032 C3024 1.378 . S
C3032 C3027 1.350 . S
C3033 H3020 0.929 . S
C3033 C3025 1.433 . S
C3033 N3035 1.384 . S
N3034 C3030 1.427 . S
N3034 C3031 1.384 . S
N3035 C3027 1.427 . S
N3035 C3033 1.384 . S
H3036 C3042 0.930 . S
H3037 C3046 0.930 . S
H3038 C3051 0.929 . S
H3039 C3049 0.929 . S
H3040 C3044 0.929 . S
H3041 C3050 0.929 . S
C3042 H3036 0.930 . S
C3042 C3043 1.367 . S
C3042 C3050 1.378 . S
C3043 C3042 1.367 . S
C3043 C3051 1.433 . S
C3044 H3040 0.929 . S
C3044 C3046 1.378 . S
C3044 C3048 1.350 . S
C3045 C3048 1.463 . S
C3045 C3050 1.350 . S
C3045 N3053 1.427 . S
C3046 H3037 0.930 . S
C3046 C3044 1.378 . S
C3046 C3047 1.367 . S
C3047 C3046 1.367 . S
C3047 C3049 1.433 . S
C3048 C3044 1.350 . S
C3048 C3045 1.463 . S
C3048 N3052 1.427 . S
C3049 H3039 0.929 . S
C3049 C3047 1.433 . S
C3049 N3052 1.384 . S
C3050 H3041 0.929 . S
C3050 C3042 1.378 . S
C3050 C3045 1.350 . S
C3051 H3038 0.929 . S
C3051 C3043 1.433 . S
C3051 N3053 1.384 . S
N3052 C3048 1.427 . S
N3052 C3049 1.384 . S
N3053 C3045 1.427 . S
N3053 C3051 1.384 . S
H3054 C3060 0.930 . S
H3055 C3064 0.930 . S
H3056 C3069 0.929 . S
H3057 C3067 0.929 . S
H3058 C3062 0.929 . S
H3059 C3068 0.929 . S
C3060 H3054 0.930 . S
C3060 C3061 1.367 . S
C3060 C3068 1.378 . S
C3061 C3060 1.367 . S
C3061 C3069 1.433 . S
C3062 H3058 0.929 . S
C3062 C3064 1.378 . S
C3062 C3066 1.350 . S
C3063 C3066 1.463 . S
C3063 C3068 1.350 . S
C3063 N3071 1.427 . S
C3064 H3055 0.930 . S
C3064 C3062 1.378 . S
C3064 C3065 1.367 . S
C3065 C3064 1.367 . S
C3065 C3067 1.433 . S
C3066 C3062 1.350 . S
C3066 C3063 1.463 . S
C3066 N3070 1.427 . S
C3067 H3057 0.929 . S
C3067 C3065 1.433 . S
C3067 N3070 1.384 . S
C3068 H3059 0.929 . S
C3068 C3060 1.378 . S
C3068 C3063 1.350 . S
C3069 H3056 0.929 . S
C3069 C3061 1.433 . S
C3069 N3071 1.384 . S
N3070 C3066 1.427 . S
N3070 C3067 1.384 . S
N3071 C3063 1.427 . S
N3071 C3069 1.384 . S
H3072 C3078 0.930 . S
H3073 C3082 0.930 . S
H3074 C3087 0.929 . S
H3075 C3085 0.929 . S
H3076 C3080 0.929 . S
H3077 C3086 0.929 . S
C3078 H3072 0.930 . S
C3078 C3079 1.367 . S
C3078 C3086 1.378 . S
C3079 C3078 1.367 . S
C3079 C3087 1.433 . S
C3080 H3076 0.929 . S
C3080 C3082 1.378 . S
C3080 C3084 1.350 . S
C3081 C3084 1.463 . S
C3081 C3086 1.350 . S
C3081 N3089 1.427 . S
C3082 H3073 0.930 . S
C3082 C3080 1.378 . S
C3082 C3083 1.367 . S
C3083 C3082 1.367 . S
C3083 C3085 1.433 . S
C3084 C3080 1.350 . S
C3084 C3081 1.463 . S
C3084 N3088 1.427 . S
C3085 H3075 0.929 . S
C3085 C3083 1.433 . S
C3085 N3088 1.384 . S
C3086 H3077 0.929 . S
C3086 C3078 1.378 . S
C3086 C3081 1.350 . S
C3087 H3074 0.929 . S
C3087 C3079 1.433 . S
C3087 N3089 1.384 . S
N3088 C3084 1.427 . S
N3088 C3085 1.384 . S
N3089 C3081 1.427 . S
N3089 C3087 1.384 . S
H3090 C3096 0.930 . S
H3091 C3100 0.930 . S
H3092 C3105 0.929 . S
H3093 C3103 0.929 . S
H3094 C3098 0.929 . S
H3095 C3104 0.929 . S
C3096 H3090 0.930 . S
C3096 C3097 1.367 . S
C3096 C3104 1.378 . S
C3097 C3096 1.367 . S
C3097 C3105 1.433 . S
C3098 H3094 0.929 . S
C3098 C3100 1.378 . S
C3098 C3102 1.350 . S
C3099 C3102 1.463 . S
C3099 C3104 1.350 . S
C3099 N3107 1.427 . S
C3100 H3091 0.930 . S
C3100 C3098 1.378 . S
C3100 C3101 1.367 . S
C3101 C3100 1.367 . S
C3101 C3103 1.433 . S
C3102 C3098 1.350 . S
C3102 C3099 1.463 . S
C3102 N3106 1.427 . S
C3103 H3093 0.929 . S
C3103 C3101 1.433 . S
C3103 N3106 1.384 . S
C3104 H3095 0.929 . S
C3104 C3096 1.378 . S
C3104 C3099 1.350 . S
C3105 H3092 0.929 . S
C3105 C3097 1.433 . S
C3105 N3107 1.384 . S
N3106 C3102 1.427 . S
N3106 C3103 1.384 . S
N3107 C3099 1.427 . S
N3107 C3105 1.384 . S
H3108 C3114 0.930 . S
H3109 C3118 0.930 . S
H3110 C3123 0.929 . S
H3111 C3121 0.929 . S
H3112 C3116 0.929 . S
H3113 C3122 0.929 . S
C3114 H3108 0.930 . S
C3114 C3115 1.367 . S
C3114 C3122 1.378 . S
C3115 C3114 1.367 . S
C3115 C3123 1.433 . S
C3116 H3112 0.929 . S
C3116 C3118 1.378 . S
C3116 C3120 1.350 . S
C3117 C3120 1.463 . S
C3117 C3122 1.350 . S
C3117 N3125 1.427 . S
C3118 H3109 0.930 . S
C3118 C3116 1.378 . S
C3118 C3119 1.367 . S
C3119 C3118 1.367 . S
C3119 C3121 1.433 . S
C3120 C3116 1.350 . S
C3120 C3117 1.463 . S
C3120 N3124 1.427 . S
C3121 H3111 0.929 . S
C3121 C3119 1.433 . S
C3121 N3124 1.384 . S
C3122 H3113 0.929 . S
C3122 C3114 1.378 . S
C3122 C3117 1.350 . S
C3123 H3110 0.929 . S
C3123 C3115 1.433 . S
C3123 N3125 1.384 . S
N3124 C3120 1.427 . S
N3124 C3121 1.384 . S
N3125 C3117 1.427 . S
N3125 C3123 1.384 . S
H3126 C3132 0.930 . S
H3127 C3136 0.930 . S
H3128 C3141 0.929 . S
H3129 C3139 0.929 . S
H3130 C3134 0.929 . S
H3131 C3140 0.929 . S
C3132 H3126 0.930 . S
C3132 C3133 1.367 . S
C3132 C3140 1.378 . S
C3133 C3132 1.367 . S
C3133 C3141 1.433 . S
C3134 H3130 0.929 . S
C3134 C3136 1.378 . S
C3134 C3138 1.350 . S
C3135 C3138 1.463 . S
C3135 C3140 1.350 . S
C3135 N3143 1.427 . S
C3136 H3127 0.930 . S
C3136 C3134 1.378 . S
C3136 C3137 1.367 . S
C3137 C3136 1.367 . S
C3137 C3139 1.433 . S
C3138 C3134 1.350 . S
C3138 C3135 1.463 . S
C3138 N3142 1.427 . S
C3139 H3129 0.929 . S
C3139 C3137 1.433 . S
C3139 N3142 1.384 . S
C3140 H3131 0.929 . S
C3140 C3132 1.378 . S
C3140 C3135 1.350 . S
C3141 H3128 0.929 . S
C3141 C3133 1.433 . S
C3141 N3143 1.384 . S
N3142 C3138 1.427 . S
N3142 C3139 1.384 . S
N3143 C3135 1.427 . S
N3143 C3141 1.384 . S
H3144 C3150 0.930 . S
H3145 C3154 0.930 . S
H3146 C3159 0.929 . S
H3147 C3157 0.929 . S
H3148 C3152 0.929 . S
H3149 C3158 0.929 . S
C3150 H3144 0.930 . S
C3150 C3151 1.367 . S
C3150 C3158 1.378 . S
C3151 C3150 1.367 . S
C3151 C3159 1.433 . S
C3152 H3148 0.929 . S
C3152 C3154 1.378 . S
C3152 C3156 1.350 . S
C3153 C3156 1.463 . S
C3153 C3158 1.350 . S
C3153 N3161 1.427 . S
C3154 H3145 0.930 . S
C3154 C3152 1.378 . S
C3154 C3155 1.367 . S
C3155 C3154 1.367 . S
C3155 C3157 1.433 . S
C3156 C3152 1.350 . S
C3156 C3153 1.463 . S
C3156 N3160 1.427 . S
C3157 H3147 0.929 . S
C3157 C3155 1.433 . S
C3157 N3160 1.384 . S
C3158 H3149 0.929 . S
C3158 C3150 1.378 . S
C3158 C3153 1.350 . S
C3159 H3146 0.929 . S
C3159 C3151 1.433 . S
C3159 N3161 1.384 . S
N3160 C3156 1.427 . S
N3160 C3157 1.384 . S
N3161 C3153 1.427 . S
N3161 C3159 1.384 . S
H3162 C3168 0.930 . S
H3163 C3172 0.930 . S
H3164 C3177 0.929 . S
H3165 C3175 0.929 . S
H3166 C3170 0.929 . S
H3167 C3176 0.929 . S
C3168 H3162 0.930 . S
C3168 C3169 1.367 . S
C3168 C3176 1.378 . S
C3169 C3168 1.367 . S
C3169 C3177 1.433 . S
C3170 H3166 0.929 . S
C3170 C3172 1.378 . S
C3170 C3174 1.350 . S
C3171 C3174 1.463 . S
C3171 C3176 1.350 . S
C3171 N3179 1.427 . S
C3172 H3163 0.930 . S
C3172 C3170 1.378 . S
C3172 C3173 1.367 . S
C3173 C3172 1.367 . S
C3173 C3175 1.433 . S
C3174 C3170 1.350 . S
C3174 C3171 1.463 . S
C3174 N3178 1.427 . S
C3175 H3165 0.929 . S
C3175 C3173 1.433 . S
C3175 N3178 1.384 . S
C3176 H3167 0.929 . S
C3176 C3168 1.378 . S
C3176 C3171 1.350 . S
C3177 H3164 0.929 . S
C3177 C3169 1.433 . S
C3177 N3179 1.384 . S
N3178 C3174 1.427 . S
N3178 C3175 1.384 . S
N3179 C3171 1.427 . S
N3179 C3177 1.384 . S
H3180 C3186 0.930 . S
H3181 C3190 0.930 . S
H3182 C3195 0.929 . S
H3183 C3193 0.929 . S
H3184 C3188 0.929 . S
H3185 C3194 0.929 . S
C3186 H3180 0.930 . S
C3186 C3187 1.367 . S
C3186 C3194 1.378 . S
C3187 C3186 1.367 . S
C3187 C3195 1.433 . S
C3188 H3184 0.929 . S
C3188 C3190 1.378 . S
C3188 C3192 1.350 . S
C3189 C3192 1.463 . S
C3189 C3194 1.350 . S
C3189 N3197 1.427 . S
C3190 H3181 0.930 . S
C3190 C3188 1.378 . S
C3190 C3191 1.367 . S
C3191 C3190 1.367 . S
C3191 C3193 1.433 . S
C3192 C3188 1.350 . S
C3192 C3189 1.463 . S
C3192 N3196 1.427 . S
C3193 H3183 0.929 . S
C3193 C3191 1.433 . S
C3193 N3196 1.384 . S
C3194 H3185 0.929 . S
C3194 C3186 1.378 . S
C3194 C3189 1.350 . S
C3195 H3182 0.929 . S
C3195 C3187 1.433 . S
C3195 N3197 1.384 . S
N3196 C3192 1.427 . S
N3196 C3193 1.384 . S
N3197 C3189 1.427 . S
N3197 C3195 1.384 . S
H3198 C3204 0.930 . S
H3199 C3208 0.930 . S
H3200 C3213 0.929 . S
H3201 C3211 0.929 . S
H3202 C3206 0.929 . S
H3203 C3212 0.929 . S
C3204 H3198 0.930 . S
C3204 C3205 1.367 . S
C3204 C3212 1.378 . S
C3205 C3204 1.367 . S
C3205 C3213 1.433 . S
C3206 H3202 0.929 . S
C3206 C3208 1.378 . S
C3206 C3210 1.350 . S
C3207 C3210 1.463 . S
C3207 C3212 1.350 . S
C3207 N3215 1.427 . S
C3208 H3199 0.930 . S
C3208 C3206 1.378 . S
C3208 C3209 1.367 . S
C3209 C3208 1.367 . S
C3209 C3211 1.433 . S
C3210 C3206 1.350 . S
C3210 C3207 1.463 . S
C3210 N3214 1.427 . S
C3211 H3201 0.929 . S
C3211 C3209 1.433 . S
C3211 N3214 1.384 . S
C3212 H3203 0.929 . S
C3212 C3204 1.378 . S
C3212 C3207 1.350 . S
C3213 H3200 0.929 . S
C3213 C3205 1.433 . S
C3213 N3215 1.384 . S
N3214 C3210 1.427 . S
N3214 C3211 1.384 . S
N3215 C3207 1.427 . S
N3215 C3213 1.384 . S
H3216 C3222 0.930 . S
H3217 C3226 0.930 . S
H3218 C3231 0.929 . S
H3219 C3229 0.929 . S
H3220 C3224 0.929 . S
H3221 C3230 0.929 . S
C3222 H3216 0.930 . S
C3222 C3223 1.367 . S
C3222 C3230 1.378 . S
C3223 C3222 1.367 . S
C3223 C3231 1.433 . S
C3224 H3220 0.929 . S
C3224 C3226 1.378 . S
C3224 C3228 1.350 . S
C3225 C3228 1.463 . S
C3225 C3230 1.350 . S
C3225 N3233 1.427 . S
C3226 H3217 0.930 . S
C3226 C3224 1.378 . S
C3226 C3227 1.367 . S
C3227 C3226 1.367 . S
C3227 C3229 1.433 . S
C3228 C3224 1.350 . S
C3228 C3225 1.463 . S
C3228 N3232 1.427 . S
C3229 H3219 0.929 . S
C3229 C3227 1.433 . S
C3229 N3232 1.384 . S
C3230 H3221 0.929 . S
C3230 C3222 1.378 . S
C3230 C3225 1.350 . S
C3231 H3218 0.929 . S
C3231 C3223 1.433 . S
C3231 N3233 1.384 . S
N3232 C3228 1.427 . S
N3232 C3229 1.384 . S
N3233 C3225 1.427 . S
N3233 C3231 1.384 . S
H3234 C3240 0.930 . S
H3235 C3244 0.930 . S
H3236 C3249 0.929 . S
H3237 C3247 0.929 . S
H3238 C3242 0.929 . S
H3239 C3248 0.929 . S
C3240 H3234 0.930 . S
C3240 C3241 1.367 . S
C3240 C3248 1.378 . S
C3241 C3240 1.367 . S
C3241 C3249 1.433 . S
C3242 H3238 0.929 . S
C3242 C3244 1.378 . S
C3242 C3246 1.350 . S
C3243 C3246 1.463 . S
C3243 C3248 1.350 . S
C3243 N3251 1.427 . S
C3244 H3235 0.930 . S
C3244 C3242 1.378 . S
C3244 C3245 1.367 . S
C3245 C3244 1.367 . S
C3245 C3247 1.433 . S
C3246 C3242 1.350 . S
C3246 C3243 1.463 . S
C3246 N3250 1.427 . S
C3247 H3237 0.929 . S
C3247 C3245 1.433 . S
C3247 N3250 1.384 . S
C3248 H3239 0.929 . S
C3248 C3240 1.378 . S
C3248 C3243 1.350 . S
C3249 H3236 0.929 . S
C3249 C3241 1.433 . S
C3249 N3251 1.384 . S
N3250 C3246 1.427 . S
N3250 C3247 1.384 . S
N3251 C3243 1.427 . S
N3251 C3249 1.384 . S
H3252 C3258 0.930 . S
H3253 C3262 0.930 . S
H3254 C3267 0.929 . S
H3255 C3265 0.929 . S
H3256 C3260 0.929 . S
H3257 C3266 0.929 . S
C3258 H3252 0.930 . S
C3258 C3259 1.367 . S
C3258 C3266 1.378 . S
C3259 C3258 1.367 . S
C3259 C3267 1.433 . S
C3260 H3256 0.929 . S
C3260 C3262 1.378 . S
C3260 C3264 1.350 . S
C3261 C3264 1.463 . S
C3261 C3266 1.350 . S
C3261 N3269 1.427 . S
C3262 H3253 0.930 . S
C3262 C3260 1.378 . S
C3262 C3263 1.367 . S
C3263 C3262 1.367 . S
C3263 C3265 1.433 . S
C3264 C3260 1.350 . S
C3264 C3261 1.463 . S
C3264 N3268 1.427 . S
C3265 H3255 0.929 . S
C3265 C3263 1.433 . S
C3265 N3268 1.384 . S
C3266 H3257 0.929 . S
C3266 C3258 1.378 . S
C3266 C3261 1.350 . S
C3267 H3254 0.929 . S
C3267 C3259 1.433 . S
C3267 N3269 1.384 . S
N3268 C3264 1.427 . S
N3268 C3265 1.384 . S
N3269 C3261 1.427 . S
N3269 C3267 1.384 . S
H3270 C3276 0.930 . S
H3271 C3280 0.930 . S
H3272 C3285 0.929 . S
H3273 C3283 0.929 . S
H3274 C3278 0.929 . S
H3275 C3284 0.929 . S
C3276 H3270 0.930 . S
C3276 C3277 1.367 . S
C3276 C3284 1.378 . S
C3277 C3276 1.367 . S
C3277 C3285 1.433 . S
C3278 H3274 0.929 . S
C3278 C3280 1.378 . S
C3278 C3282 1.350 . S
C3279 C3282 1.463 . S
C3279 C3284 1.350 . S
C3279 N3287 1.427 . S
C3280 H3271 0.930 . S
C3280 C3278 1.378 . S
C3280 C3281 1.367 . S
C3281 C3280 1.367 . S
C3281 C3283 1.433 . S
C3282 C3278 1.350 . S
C3282 C3279 1.463 . S
C3282 N3286 1.427 . S
C3283 H3273 0.929 . S
C3283 C3281 1.433 . S
C3283 N3286 1.384 . S
C3284 H3275 0.929 . S
C3284 C3276 1.378 . S
C3284 C3279 1.350 . S
C3285 H3272 0.929 . S
C3285 C3277 1.433 . S
C3285 N3287 1.384 . S
N3286 C3282 1.427 . S
N3286 C3283 1.384 . S
N3287 C3279 1.427 . S
N3287 C3285 1.384 . S
H3288 C3294 0.930 . S
H3289 C3298 0.930 . S
H3290 C3303 0.929 . S
H3291 C3301 0.929 . S
H3292 C3296 0.929 . S
H3293 C3302 0.929 . S
C3294 H3288 0.930 . S
C3294 C3295 1.367 . S
C3294 C3302 1.378 . S
C3295 C3294 1.367 . S
C3295 C3303 1.433 . S
C3296 H3292 0.929 . S
C3296 C3298 1.378 . S
C3296 C3300 1.350 . S
C3297 C3300 1.463 . S
C3297 C3302 1.350 . S
C3297 N3305 1.427 . S
C3298 H3289 0.930 . S
C3298 C3296 1.378 . S
C3298 C3299 1.367 . S
C3299 C3298 1.367 . S
C3299 C3301 1.433 . S
C3300 C3296 1.350 . S
C3300 C3297 1.463 . S
C3300 N3304 1.427 . S
C3301 H3291 0.929 . S
C3301 C3299 1.433 . S
C3301 N3304 1.384 . S
C3302 H3293 0.929 . S
C3302 C3294 1.378 . S
C3302 C3297 1.350 . S
C3303 H3290 0.929 . S
C3303 C3295 1.433 . S
C3303 N3305 1.384 . S
N3304 C3300 1.427 . S
N3304 C3301 1.384 . S
N3305 C3297 1.427 . S
N3305 C3303 1.384 . S
H3306 C3312 0.930 . S
H3307 C3316 0.930 . S
H3308 C3321 0.929 . S
H3309 C3319 0.929 . S
H3310 C3314 0.929 . S
H3311 C3320 0.929 . S
C3312 H3306 0.930 . S
C3312 C3313 1.367 . S
C3312 C3320 1.378 . S
C3313 C3312 1.367 . S
C3313 C3321 1.433 . S
C3314 H3310 0.929 . S
C3314 C3316 1.378 . S
C3314 C3318 1.350 . S
C3315 C3318 1.463 . S
C3315 C3320 1.350 . S
C3315 N3323 1.427 . S
C3316 H3307 0.930 . S
C3316 C3314 1.378 . S
C3316 C3317 1.367 . S
C3317 C3316 1.367 . S
C3317 C3319 1.433 . S
C3318 C3314 1.350 . S
C3318 C3315 1.463 . S
C3318 N3322 1.427 . S
C3319 H3309 0.929 . S
C3319 C3317 1.433 . S
C3319 N3322 1.384 . S
C3320 H3311 0.929 . S
C3320 C3312 1.378 . S
C3320 C3315 1.350 . S
C3321 H3308 0.929 . S
C3321 C3313 1.433 . S
C3321 N3323 1.384 . S
N3322 C3318 1.427 . S
N3322 C3319 1.384 . S
N3323 C3315 1.427 . S
N3323 C3321 1.384 . S
H3324 C3330 0.930 . S
H3325 C3334 0.930 . S
H3326 C3339 0.929 . S
H3327 C3337 0.929 . S
H3328 C3332 0.929 . S
H3329 C3338 0.929 . S
C3330 H3324 0.930 . S
C3330 C3331 1.367 . S
C3330 C3338 1.378 . S
C3331 C3330 1.367 . S
C3331 C3339 1.433 . S
C3332 H3328 0.929 . S
C3332 C3334 1.378 . S
C3332 C3336 1.350 . S
C3333 C3336 1.463 . S
C3333 C3338 1.350 . S
C3333 N3341 1.427 . S
C3334 H3325 0.930 . S
C3334 C3332 1.378 . S
C3334 C3335 1.367 . S
C3335 C3334 1.367 . S
C3335 C3337 1.433 . S
C3336 C3332 1.350 . S
C3336 C3333 1.463 . S
C3336 N3340 1.427 . S
C3337 H3327 0.929 . S
C3337 C3335 1.433 . S
C3337 N3340 1.384 . S
C3338 H3329 0.929 . S
C3338 C3330 1.378 . S
C3338 C3333 1.350 . S
C3339 H3326 0.929 . S
C3339 C3331 1.433 . S
C3339 N3341 1.384 . S
N3340 C3336 1.427 . S
N3340 C3337 1.384 . S
N3341 C3333 1.427 . S
N3341 C3339 1.384 . S
H3342 C3348 0.930 . S
H3343 C3352 0.930 . S
H3344 C3357 0.929 . S
H3345 C3355 0.929 . S
H3346 C3350 0.929 . S
H3347 C3356 0.929 . S
C3348 H3342 0.930 . S
C3348 C3349 1.367 . S
C3348 C3356 1.378 . S
C3349 C3348 1.367 . S
C3349 C3357 1.433 . S
C3350 H3346 0.929 . S
C3350 C3352 1.378 . S
C3350 C3354 1.350 . S
C3351 C3354 1.463 . S
C3351 C3356 1.350 . S
C3351 N3359 1.427 . S
C3352 H3343 0.930 . S
C3352 C3350 1.378 . S
C3352 C3353 1.367 . S
C3353 C3352 1.367 . S
C3353 C3355 1.433 . S
C3354 C3350 1.350 . S
C3354 C3351 1.463 . S
C3354 N3358 1.427 . S
C3355 H3345 0.929 . S
C3355 C3353 1.433 . S
C3355 N3358 1.384 . S
C3356 H3347 0.929 . S
C3356 C3348 1.378 . S
C3356 C3351 1.350 . S
C3357 H3344 0.929 . S
C3357 C3349 1.433 . S
C3357 N3359 1.384 . S
N3358 C3354 1.427 . S
N3358 C3355 1.384 . S
N3359 C3351 1.427 . S
N3359 C3357 1.384 . S
H3360 C3366 0.930 . S
H3361 C3370 0.930 . S
H3362 C3375 0.929 . S
H3363 C3373 0.929 . S
H3364 C3368 0.929 . S
H3365 C3374 0.929 . S
C3366 H3360 0.930 . S
C3366 C3367 1.367 . S
C3366 C3374 1.378 . S
C3367 C3366 1.367 . S
C3367 C3375 1.433 . S
C3368 H3364 0.929 . S
C3368 C3370 1.378 . S
C3368 C3372 1.350 . S
C3369 C3372 1.463 . S
C3369 C3374 1.350 . S
C3369 N3377 1.427 . S
C3370 H3361 0.930 . S
C3370 C3368 1.378 . S
C3370 C3371 1.367 . S
C3371 C3370 1.367 . S
C3371 C3373 1.433 . S
C3372 C3368 1.350 . S
C3372 C3369 1.463 . S
C3372 N3376 1.427 . S
C3373 H3363 0.929 . S
C3373 C3371 1.433 . S
C3373 N3376 1.384 . S
C3374 H3365 0.929 . S
C3374 C3366 1.378 . S
C3374 C3369 1.350 . S
C3375 H3362 0.929 . S
C3375 C3367 1.433 . S
C3375 N3377 1.384 . S
N3376 C3372 1.427 . S
N3376 C3373 1.384 . S
N3377 C3369 1.427 . S
N3377 C3375 1.384 . S
H3378 C3384 0.930 . S
H3379 C3388 0.930 . S
H3380 C3393 0.929 . S
H3381 C3391 0.929 . S
H3382 C3386 0.929 . S
H3383 C3392 0.929 . S
C3384 H3378 0.930 . S
C3384 C3385 1.367 . S
C3384 C3392 1.378 . S
C3385 C3384 1.367 . S
C3385 C3393 1.433 . S
C3386 H3382 0.929 . S
C3386 C3388 1.378 . S
C3386 C3390 1.350 . S
C3387 C3390 1.463 . S
C3387 C3392 1.350 . S
C3387 N3395 1.427 . S
C3388 H3379 0.930 . S
C3388 C3386 1.378 . S
C3388 C3389 1.367 . S
C3389 C3388 1.367 . S
C3389 C3391 1.433 . S
C3390 C3386 1.350 . S
C3390 C3387 1.463 . S
C3390 N3394 1.427 . S
C3391 H3381 0.929 . S
C3391 C3389 1.433 . S
C3391 N3394 1.384 . S
C3392 H3383 0.929 . S
C3392 C3384 1.378 . S
C3392 C3387 1.350 . S
C3393 H3380 0.929 . S
C3393 C3385 1.433 . S
C3393 N3395 1.384 . S
N3394 C3390 1.427 . S
N3394 C3391 1.384 . S
N3395 C3387 1.427 . S
N3395 C3393 1.384 . S
H3396 C3402 0.930 . S
H3397 C3406 0.930 . S
H3398 C3411 0.929 . S
H3399 C3409 0.929 . S
H3400 C3404 0.929 . S
H3401 C3410 0.929 . S
C3402 H3396 0.930 . S
C3402 C3403 1.367 . S
C3402 C3410 1.378 . S
C3403 C3402 1.367 . S
C3403 C3411 1.433 . S
C3404 H3400 0.929 . S
C3404 C3406 1.378 . S
C3404 C3408 1.350 . S
C3405 C3408 1.463 . S
C3405 C3410 1.350 . S
C3405 N3413 1.427 . S
C3406 H3397 0.930 . S
C3406 C3404 1.378 . S
C3406 C3407 1.367 . S
C3407 C3406 1.367 . S
C3407 C3409 1.433 . S
C3408 C3404 1.350 . S
C3408 C3405 1.463 . S
C3408 N3412 1.427 . S
C3409 H3399 0.929 . S
C3409 C3407 1.433 . S
C3409 N3412 1.384 . S
C3410 H3401 0.929 . S
C3410 C3402 1.378 . S
C3410 C3405 1.350 . S
C3411 H3398 0.929 . S
C3411 C3403 1.433 . S
C3411 N3413 1.384 . S
N3412 C3408 1.427 . S
N3412 C3409 1.384 . S
N3413 C3405 1.427 . S
N3413 C3411 1.384 . S
H3414 C3420 0.930 . S
H3415 C3424 0.930 . S
H3416 C3429 0.929 . S
H3417 C3427 0.929 . S
H3418 C3422 0.929 . S
H3419 C3428 0.929 . S
C3420 H3414 0.930 . S
C3420 C3421 1.367 . S
C3420 C3428 1.378 . S
C3421 C3420 1.367 . S
C3421 C3429 1.433 . S
C3422 H3418 0.929 . S
C3422 C3424 1.378 . S
C3422 C3426 1.350 . S
C3423 C3426 1.463 . S
C3423 C3428 1.350 . S
C3423 N3431 1.427 . S
C3424 H3415 0.930 . S
C3424 C3422 1.378 . S
C3424 C3425 1.367 . S
C3425 C3424 1.367 . S
C3425 C3427 1.433 . S
C3426 C3422 1.350 . S
C3426 C3423 1.463 . S
C3426 N3430 1.427 . S
C3427 H3417 0.929 . S
C3427 C3425 1.433 . S
C3427 N3430 1.384 . S
C3428 H3419 0.929 . S
C3428 C3420 1.378 . S
C3428 C3423 1.350 . S
C3429 H3416 0.929 . S
C3429 C3421 1.433 . S
C3429 N3431 1.384 . S
N3430 C3426 1.427 . S
N3430 C3427 1.384 . S
N3431 C3423 1.427 . S
N3431 C3429 1.384 . S
H3432 C3438 0.930 . S
H3433 C3442 0.930 . S
H3434 C3447 0.929 . S
H3435 C3445 0.929 . S
H3436 C3440 0.929 . S
H3437 C3446 0.929 . S
C3438 H3432 0.930 . S
C3438 C3439 1.367 . S
C3438 C3446 1.378 . S
C3439 C3438 1.367 . S
C3439 C3447 1.433 . S
C3440 H3436 0.929 . S
C3440 C3442 1.378 . S
C3440 C3444 1.350 . S
C3441 C3444 1.463 . S
C3441 C3446 1.350 . S
C3441 N3449 1.427 . S
C3442 H3433 0.930 . S
C3442 C3440 1.378 . S
C3442 C3443 1.367 . S
C3443 C3442 1.367 . S
C3443 C3445 1.433 . S
C3444 C3440 1.350 . S
C3444 C3441 1.463 . S
C3444 N3448 1.427 . S
C3445 H3435 0.929 . S
C3445 C3443 1.433 . S
C3445 N3448 1.384 . S
C3446 H3437 0.929 . S
C3446 C3438 1.378 . S
C3446 C3441 1.350 . S
C3447 H3434 0.929 . S
C3447 C3439 1.433 . S
C3447 N3449 1.384 . S
N3448 C3444 1.427 . S
N3448 C3445 1.384 . S
N3449 C3441 1.427 . S
N3449 C3447 1.384 . S
H3450 C3456 0.930 . S
H3451 C3460 0.930 . S
H3452 C3465 0.929 . S
H3453 C3463 0.929 . S
H3454 C3458 0.929 . S
H3455 C3464 0.929 . S
C3456 H3450 0.930 . S
C3456 C3457 1.367 . S
C3456 C3464 1.378 . S
C3457 C3456 1.367 . S
C3457 C3465 1.433 . S
C3458 H3454 0.929 . S
C3458 C3460 1.378 . S
C3458 C3462 1.350 . S
C3459 C3462 1.463 . S
C3459 C3464 1.350 . S
C3459 N3467 1.427 . S
C3460 H3451 0.930 . S
C3460 C3458 1.378 . S
C3460 C3461 1.367 . S
C3461 C3460 1.367 . S
C3461 C3463 1.433 . S
C3462 C3458 1.350 . S
C3462 C3459 1.463 . S
C3462 N3466 1.427 . S
C3463 H3453 0.929 . S
C3463 C3461 1.433 . S
C3463 N3466 1.384 . S
C3464 H3455 0.929 . S
C3464 C3456 1.378 . S
C3464 C3459 1.350 . S
C3465 H3452 0.929 . S
C3465 C3457 1.433 . S
C3465 N3467 1.384 . S
N3466 C3462 1.427 . S
N3466 C3463 1.384 . S
N3467 C3459 1.427 . S
N3467 C3465 1.384 . S
H3468 C3474 0.930 . S
H3469 C3478 0.930 . S
H3470 C3483 0.929 . S
H3471 C3481 0.929 . S
H3472 C3476 0.929 . S
H3473 C3482 0.929 . S
C3474 H3468 0.930 . S
C3474 C3475 1.367 . S
C3474 C3482 1.378 . S
C3475 C3474 1.367 . S
C3475 C3483 1.433 . S
C3476 H3472 0.929 . S
C3476 C3478 1.378 . S
C3476 C3480 1.350 . S
C3477 C3480 1.463 . S
C3477 C3482 1.350 . S
C3477 N3485 1.427 . S
C3478 H3469 0.930 . S
C3478 C3476 1.378 . S
C3478 C3479 1.367 . S
C3479 C3478 1.367 . S
C3479 C3481 1.433 . S
C3480 C3476 1.350 . S
C3480 C3477 1.463 . S
C3480 N3484 1.427 . S
C3481 H3471 0.929 . S
C3481 C3479 1.433 . S
C3481 N3484 1.384 . S
C3482 H3473 0.929 . S
C3482 C3474 1.378 . S
C3482 C3477 1.350 . S
C3483 H3470 0.929 . S
C3483 C3475 1.433 . S
C3483 N3485 1.384 . S
N3484 C3480 1.427 . S
N3484 C3481 1.384 . S
N3485 C3477 1.427 . S
N3485 C3483 1.384 . S
H3486 C3492 0.930 . S
H3487 C3496 0.930 . S
H3488 C3501 0.929 . S
H3489 C3499 0.929 . S
H3490 C3494 0.929 . S
H3491 C3500 0.929 . S
C3492 H3486 0.930 . S
C3492 C3493 1.367 . S
C3492 C3500 1.378 . S
C3493 C3492 1.367 . S
C3493 C3501 1.433 . S
C3494 H3490 0.929 . S
C3494 C3496 1.378 . S
C3494 C3498 1.350 . S
C3495 C3498 1.463 . S
C3495 C3500 1.350 . S
C3495 N3503 1.427 . S
C3496 H3487 0.930 . S
C3496 C3494 1.378 . S
C3496 C3497 1.367 . S
C3497 C3496 1.367 . S
C3497 C3499 1.433 . S
C3498 C3494 1.350 . S
C3498 C3495 1.463 . S
C3498 N3502 1.427 . S
C3499 H3489 0.929 . S
C3499 C3497 1.433 . S
C3499 N3502 1.384 . S
C3500 H3491 0.929 . S
C3500 C3492 1.378 . S
C3500 C3495 1.350 . S
C3501 H3488 0.929 . S
C3501 C3493 1.433 . S
C3501 N3503 1.384 . S
N3502 C3498 1.427 . S
N3502 C3499 1.384 . S
N3503 C3495 1.427 . S
N3503 C3501 1.384 . S
H3504 C3510 0.930 . S
H3505 C3514 0.930 . S
H3506 C3519 0.929 . S
H3507 C3517 0.929 . S
H3508 C3512 0.929 . S
H3509 C3518 0.929 . S
C3510 H3504 0.930 . S
C3510 C3511 1.367 . S
C3510 C3518 1.378 . S
C3511 C3510 1.367 . S
C3511 C3519 1.433 . S
C3512 H3508 0.929 . S
C3512 C3514 1.378 . S
C3512 C3516 1.350 . S
C3513 C3516 1.463 . S
C3513 C3518 1.350 . S
C3513 N3521 1.427 . S
C3514 H3505 0.930 . S
C3514 C3512 1.378 . S
C3514 C3515 1.367 . S
C3515 C3514 1.367 . S
C3515 C3517 1.433 . S
C3516 C3512 1.350 . S
C3516 C3513 1.463 . S
C3516 N3520 1.427 . S
C3517 H3507 0.929 . S
C3517 C3515 1.433 . S
C3517 N3520 1.384 . S
C3518 H3509 0.929 . S
C3518 C3510 1.378 . S
C3518 C3513 1.350 . S
C3519 H3506 0.929 . S
C3519 C3511 1.433 . S
C3519 N3521 1.384 . S
N3520 C3516 1.427 . S
N3520 C3517 1.384 . S
N3521 C3513 1.427 . S
N3521 C3519 1.384 . S
H3522 C3528 0.930 . S
H3523 C3532 0.930 . S
H3524 C3537 0.929 . S
H3525 C3535 0.929 . S
H3526 C3530 0.929 . S
H3527 C3536 0.929 . S
C3528 H3522 0.930 . S
C3528 C3529 1.367 . S
C3528 C3536 1.378 . S
C3529 C3528 1.367 . S
C3529 C3537 1.433 . S
C3530 H3526 0.929 . S
C3530 C3532 1.378 . S
C3530 C3534 1.350 . S
C3531 C3534 1.463 . S
C3531 C3536 1.350 . S
C3531 N3539 1.427 . S
C3532 H3523 0.930 . S
C3532 C3530 1.378 . S
C3532 C3533 1.367 . S
C3533 C3532 1.367 . S
C3533 C3535 1.433 . S
C3534 C3530 1.350 . S
C3534 C3531 1.463 . S
C3534 N3538 1.427 . S
C3535 H3525 0.929 . S
C3535 C3533 1.433 . S
C3535 N3538 1.384 . S
C3536 H3527 0.929 . S
C3536 C3528 1.378 . S
C3536 C3531 1.350 . S
C3537 H3524 0.929 . S
C3537 C3529 1.433 . S
C3537 N3539 1.384 . S
N3538 C3534 1.427 . S
N3538 C3535 1.384 . S
N3539 C3531 1.427 . S
N3539 C3537 1.384 . S
H3540 C3546 0.930 . S
H3541 C3550 0.930 . S
H3542 C3555 0.929 . S
H3543 C3553 0.929 . S
H3544 C3548 0.929 . S
H3545 C3554 0.929 . S
C3546 H3540 0.930 . S
C3546 C3547 1.367 . S
C3546 C3554 1.378 . S
C3547 C3546 1.367 . S
C3547 C3555 1.433 . S
C3548 H3544 0.929 . S
C3548 C3550 1.378 . S
C3548 C3552 1.350 . S
C3549 C3552 1.463 . S
C3549 C3554 1.350 . S
C3549 N3557 1.427 . S
C3550 H3541 0.930 . S
C3550 C3548 1.378 . S
C3550 C3551 1.367 . S
C3551 C3550 1.367 . S
C3551 C3553 1.433 . S
C3552 C3548 1.350 . S
C3552 C3549 1.463 . S
C3552 N3556 1.427 . S
C3553 H3543 0.929 . S
C3553 C3551 1.433 . S
C3553 N3556 1.384 . S
C3554 H3545 0.929 . S
C3554 C3546 1.378 . S
C3554 C3549 1.350 . S
C3555 H3542 0.929 . S
C3555 C3547 1.433 . S
C3555 N3557 1.384 . S
N3556 C3552 1.427 . S
N3556 C3553 1.384 . S
N3557 C3549 1.427 . S
N3557 C3555 1.384 . S
H3558 C3564 0.930 . S
H3559 C3568 0.930 . S
H3560 C3573 0.929 . S
H3561 C3571 0.929 . S
H3562 C3566 0.929 . S
H3563 C3572 0.929 . S
C3564 H3558 0.930 . S
C3564 C3565 1.367 . S
C3564 C3572 1.378 . S
C3565 C3564 1.367 . S
C3565 C3573 1.433 . S
C3566 H3562 0.929 . S
C3566 C3568 1.378 . S
C3566 C3570 1.350 . S
C3567 C3570 1.463 . S
C3567 C3572 1.350 . S
C3567 N3575 1.427 . S
C3568 H3559 0.930 . S
C3568 C3566 1.378 . S
C3568 C3569 1.367 . S
C3569 C3568 1.367 . S
C3569 C3571 1.433 . S
C3570 C3566 1.350 . S
C3570 C3567 1.463 . S
C3570 N3574 1.427 . S
C3571 H3561 0.929 . S
C3571 C3569 1.433 . S
C3571 N3574 1.384 . S
C3572 H3563 0.929 . S
C3572 C3564 1.378 . S
C3572 C3567 1.350 . S
C3573 H3560 0.929 . S
C3573 C3565 1.433 . S
C3573 N3575 1.384 . S
N3574 C3570 1.427 . S
N3574 C3571 1.384 . S
N3575 C3567 1.427 . S
N3575 C3573 1.384 . S
H3576 C3582 0.930 . S
H3577 C3586 0.930 . S
H3578 C3591 0.929 . S
H3579 C3589 0.929 . S
H3580 C3584 0.929 . S
H3581 C3590 0.929 . S
C3582 H3576 0.930 . S
C3582 C3583 1.367 . S
C3582 C3590 1.378 . S
C3583 C3582 1.367 . S
C3583 C3591 1.433 . S
C3584 H3580 0.929 . S
C3584 C3586 1.378 . S
C3584 C3588 1.350 . S
C3585 C3588 1.463 . S
C3585 C3590 1.350 . S
C3585 N3593 1.427 . S
C3586 H3577 0.930 . S
C3586 C3584 1.378 . S
C3586 C3587 1.367 . S
C3587 C3586 1.367 . S
C3587 C3589 1.433 . S
C3588 C3584 1.350 . S
C3588 C3585 1.463 . S
C3588 N3592 1.427 . S
C3589 H3579 0.929 . S
C3589 C3587 1.433 . S
C3589 N3592 1.384 . S
C3590 H3581 0.929 . S
C3590 C3582 1.378 . S
C3590 C3585 1.350 . S
C3591 H3578 0.929 . S
C3591 C3583 1.433 . S
C3591 N3593 1.384 . S
N3592 C3588 1.427 . S
N3592 C3589 1.384 . S
N3593 C3585 1.427 . S
N3593 C3591 1.384 . S
H3594 C3600 0.930 . S
H3595 C3604 0.930 . S
H3596 C3609 0.929 . S
H3597 C3607 0.929 . S
H3598 C3602 0.929 . S
H3599 C3608 0.929 . S
C3600 H3594 0.930 . S
C3600 C3601 1.367 . S
C3600 C3608 1.378 . S
C3601 C3600 1.367 . S
C3601 C3609 1.433 . S
C3602 H3598 0.929 . S
C3602 C3604 1.378 . S
C3602 C3606 1.350 . S
C3603 C3606 1.463 . S
C3603 C3608 1.350 . S
C3603 N3611 1.427 . S
C3604 H3595 0.930 . S
C3604 C3602 1.378 . S
C3604 C3605 1.367 . S
C3605 C3604 1.367 . S
C3605 C3607 1.433 . S
C3606 C3602 1.350 . S
C3606 C3603 1.463 . S
C3606 N3610 1.427 . S
C3607 H3597 0.929 . S
C3607 C3605 1.433 . S
C3607 N3610 1.384 . S
C3608 H3599 0.929 . S
C3608 C3600 1.378 . S
C3608 C3603 1.350 . S
C3609 H3596 0.929 . S
C3609 C3601 1.433 . S
C3609 N3611 1.384 . S
N3610 C3606 1.427 . S
N3610 C3607 1.384 . S
N3611 C3603 1.427 . S
N3611 C3609 1.384 . S
H3612 C3618 0.930 . S
H3613 C3622 0.930 . S
H3614 C3627 0.929 . S
H3615 C3625 0.929 . S
H3616 C3620 0.929 . S
H3617 C3626 0.929 . S
C3618 H3612 0.930 . S
C3618 C3619 1.367 . S
C3618 C3626 1.378 . S
C3619 C3618 1.367 . S
C3619 C3627 1.433 . S
C3620 H3616 0.929 . S
C3620 C3622 1.378 . S
C3620 C3624 1.350 . S
C3621 C3624 1.463 . S
C3621 C3626 1.350 . S
C3621 N3629 1.427 . S
C3622 H3613 0.930 . S
C3622 C3620 1.378 . S
C3622 C3623 1.367 . S
C3623 C3622 1.367 . S
C3623 C3625 1.433 . S
C3624 C3620 1.350 . S
C3624 C3621 1.463 . S
C3624 N3628 1.427 . S
C3625 H3615 0.929 . S
C3625 C3623 1.433 . S
C3625 N3628 1.384 . S
C3626 H3617 0.929 . S
C3626 C3618 1.378 . S
C3626 C3621 1.350 . S
C3627 H3614 0.929 . S
C3627 C3619 1.433 . S
C3627 N3629 1.384 . S
N3628 C3624 1.427 . S
N3628 C3625 1.384 . S
N3629 C3621 1.427 . S
N3629 C3627 1.384 . S
H3630 C3636 0.930 . S
H3631 C3640 0.930 . S
H3632 C3645 0.929 . S
H3633 C3643 0.929 . S
H3634 C3638 0.929 . S
H3635 C3644 0.929 . S
C3636 H3630 0.930 . S
C3636 C3637 1.367 . S
C3636 C3644 1.378 . S
C3637 C3636 1.367 . S
C3637 C3645 1.433 . S
C3638 H3634 0.929 . S
C3638 C3640 1.378 . S
C3638 C3642 1.350 . S
C3639 C3642 1.463 . S
C3639 C3644 1.350 . S
C3639 N3647 1.427 . S
C3640 H3631 0.930 . S
C3640 C3638 1.378 . S
C3640 C3641 1.367 . S
C3641 C3640 1.367 . S
C3641 C3643 1.433 . S
C3642 C3638 1.350 . S
C3642 C3639 1.463 . S
C3642 N3646 1.427 . S
C3643 H3633 0.929 . S
C3643 C3641 1.433 . S
C3643 N3646 1.384 . S
C3644 H3635 0.929 . S
C3644 C3636 1.378 . S
C3644 C3639 1.350 . S
C3645 H3632 0.929 . S
C3645 C3637 1.433 . S
C3645 N3647 1.384 . S
N3646 C3642 1.427 . S
N3646 C3643 1.384 . S
N3647 C3639 1.427 . S
N3647 C3645 1.384 . S
H3648 C3654 0.930 . S
H3649 C3658 0.930 . S
H3650 C3663 0.929 . S
H3651 C3661 0.929 . S
H3652 C3656 0.929 . S
H3653 C3662 0.929 . S
C3654 H3648 0.930 . S
C3654 C3655 1.367 . S
C3654 C3662 1.378 . S
C3655 C3654 1.367 . S
C3655 C3663 1.433 . S
C3656 H3652 0.929 . S
C3656 C3658 1.378 . S
C3656 C3660 1.350 . S
C3657 C3660 1.463 . S
C3657 C3662 1.350 . S
C3657 N3665 1.427 . S
C3658 H3649 0.930 . S
C3658 C3656 1.378 . S
C3658 C3659 1.367 . S
C3659 C3658 1.367 . S
C3659 C3661 1.433 . S
C3660 C3656 1.350 . S
C3660 C3657 1.463 . S
C3660 N3664 1.427 . S
C3661 H3651 0.929 . S
C3661 C3659 1.433 . S
C3661 N3664 1.384 . S
C3662 H3653 0.929 . S
C3662 C3654 1.378 . S
C3662 C3657 1.350 . S
C3663 H3650 0.929 . S
C3663 C3655 1.433 . S
C3663 N3665 1.384 . S
N3664 C3660 1.427 . S
N3664 C3661 1.384 . S
N3665 C3657 1.427 . S
N3665 C3663 1.384 . S
H3666 C3672 0.930 . S
H3667 C3676 0.930 . S
H3668 C3681 0.929 . S
H3669 C3679 0.929 . S
H3670 C3674 0.929 . S
H3671 C3680 0.929 . S
C3672 H3666 0.930 . S
C3672 C3673 1.367 . S
C3672 C3680 1.378 . S
C3673 C3672 1.367 . S
C3673 C3681 1.433 . S
C3674 H3670 0.929 . S
C3674 C3676 1.378 . S
C3674 C3678 1.350 . S
C3675 C3678 1.463 . S
C3675 C3680 1.350 . S
C3675 N3683 1.427 . S
C3676 H3667 0.930 . S
C3676 C3674 1.378 . S
C3676 C3677 1.367 . S
C3677 C3676 1.367 . S
C3677 C3679 1.433 . S
C3678 C3674 1.350 . S
C3678 C3675 1.463 . S
C3678 N3682 1.427 . S
C3679 H3669 0.929 . S
C3679 C3677 1.433 . S
C3679 N3682 1.384 . S
C3680 H3671 0.929 . S
C3680 C3672 1.378 . S
C3680 C3675 1.350 . S
C3681 H3668 0.929 . S
C3681 C3673 1.433 . S
C3681 N3683 1.384 . S
N3682 C3678 1.427 . S
N3682 C3679 1.384 . S
N3683 C3675 1.427 . S
N3683 C3681 1.384 . S
H3684 C3690 0.930 . S
H3685 C3694 0.930 . S
H3686 C3699 0.929 . S
H3687 C3697 0.929 . S
H3688 C3692 0.929 . S
H3689 C3698 0.929 . S
C3690 H3684 0.930 . S
C3690 C3691 1.367 . S
C3690 C3698 1.378 . S
C3691 C3690 1.367 . S
C3691 C3699 1.433 . S
C3692 H3688 0.929 . S
C3692 C3694 1.378 . S
C3692 C3696 1.350 . S
C3693 C3696 1.463 . S
C3693 C3698 1.350 . S
C3693 N3701 1.427 . S
C3694 H3685 0.930 . S
C3694 C3692 1.378 . S
C3694 C3695 1.367 . S
C3695 C3694 1.367 . S
C3695 C3697 1.433 . S
C3696 C3692 1.350 . S
C3696 C3693 1.463 . S
C3696 N3700 1.427 . S
C3697 H3687 0.929 . S
C3697 C3695 1.433 . S
C3697 N3700 1.384 . S
C3698 H3689 0.929 . S
C3698 C3690 1.378 . S
C3698 C3693 1.350 . S
C3699 H3686 0.929 . S
C3699 C3691 1.433 . S
C3699 N3701 1.384 . S
N3700 C3696 1.427 . S
N3700 C3697 1.384 . S
N3701 C3693 1.427 . S
N3701 C3699 1.384 . S
H3702 C3708 0.930 . S
H3703 C3712 0.930 . S
H3704 C3717 0.929 . S
H3705 C3715 0.929 . S
H3706 C3710 0.929 . S
H3707 C3716 0.929 . S
C3708 H3702 0.930 . S
C3708 C3709 1.367 . S
C3708 C3716 1.378 . S
C3709 C3708 1.367 . S
C3709 C3717 1.433 . S
C3710 H3706 0.929 . S
C3710 C3712 1.378 . S
C3710 C3714 1.350 . S
C3711 C3714 1.463 . S
C3711 C3716 1.350 . S
C3711 N3719 1.427 . S
C3712 H3703 0.930 . S
C3712 C3710 1.378 . S
C3712 C3713 1.367 . S
C3713 C3712 1.367 . S
C3713 C3715 1.433 . S
C3714 C3710 1.350 . S
C3714 C3711 1.463 . S
C3714 N3718 1.427 . S
C3715 H3705 0.929 . S
C3715 C3713 1.433 . S
C3715 N3718 1.384 . S
C3716 H3707 0.929 . S
C3716 C3708 1.378 . S
C3716 C3711 1.350 . S
C3717 H3704 0.929 . S
C3717 C3709 1.433 . S
C3717 N3719 1.384 . S
N3718 C3714 1.427 . S
N3718 C3715 1.384 . S
N3719 C3711 1.427 . S
N3719 C3717 1.384 . S
H3720 C3726 0.930 . S
H3721 C3730 0.930 . S
H3722 C3735 0.929 . S
H3723 C3733 0.929 . S
H3724 C3728 0.929 . S
H3725 C3734 0.929 . S
C3726 H3720 0.930 . S
C3726 C3727 1.367 . S
C3726 C3734 1.378 . S
C3727 C3726 1.367 . S
C3727 C3735 1.433 . S
C3728 H3724 0.929 . S
C3728 C3730 1.378 . S
C3728 C3732 1.350 . S
C3729 C3732 1.463 . S
C3729 C3734 1.350 . S
C3729 N3737 1.427 . S
C3730 H3721 0.930 . S
C3730 C3728 1.378 . S
C3730 C3731 1.367 . S
C3731 C3730 1.367 . S
C3731 C3733 1.433 . S
C3732 C3728 1.350 . S
C3732 C3729 1.463 . S
C3732 N3736 1.427 . S
C3733 H3723 0.929 . S
C3733 C3731 1.433 . S
C3733 N3736 1.384 . S
C3734 H3725 0.929 . S
C3734 C3726 1.378 . S
C3734 C3729 1.350 . S
C3735 H3722 0.929 . S
C3735 C3727 1.433 . S
C3735 N3737 1.384 . S
N3736 C3732 1.427 . S
N3736 C3733 1.384 . S
N3737 C3729 1.427 . S
N3737 C3735 1.384 . S
H3738 C3744 0.930 . S
H3739 C3748 0.930 . S
H3740 C3753 0.929 . S
H3741 C3751 0.929 . S
H3742 C3746 0.929 . S
H3743 C3752 0.929 . S
C3744 H3738 0.930 . S
C3744 C3745 1.367 . S
C3744 C3752 1.378 . S
C3745 C3744 1.367 . S
C3745 C3753 1.433 . S
C3746 H3742 0.929 . S
C3746 C3748 1.378 . S
C3746 C3750 1.350 . S
C3747 C3750 1.463 . S
C3747 C3752 1.350 . S
C3747 N3755 1.427 . S
C3748 H3739 0.930 . S
C3748 C3746 1.378 . S
C3748 C3749 1.367 . S
C3749 C3748 1.367 . S
C3749 C3751 1.433 . S
C3750 C3746 1.350 . S
C3750 C3747 1.463 . S
C3750 N3754 1.427 . S
C3751 H3741 0.929 . S
C3751 C3749 1.433 . S
C3751 N3754 1.384 . S
C3752 H3743 0.929 . S
C3752 C3744 1.378 . S
C3752 C3747 1.350 . S
C3753 H3740 0.929 . S
C3753 C3745 1.433 . S
C3753 N3755 1.384 . S
N3754 C3750 1.427 . S
N3754 C3751 1.384 . S
N3755 C3747 1.427 . S
N3755 C3753 1.384 . S
H3756 C3762 0.930 . S
H3757 C3766 0.930 . S
H3758 C3771 0.929 . S
H3759 C3769 0.929 . S
H3760 C3764 0.929 . S
H3761 C3770 0.929 . S
C3762 H3756 0.930 . S
C3762 C3763 1.367 . S
C3762 C3770 1.378 . S
C3763 C3762 1.367 . S
C3763 C3771 1.433 . S
C3764 H3760 0.929 . S
C3764 C3766 1.378 . S
C3764 C3768 1.350 . S
C3765 C3768 1.463 . S
C3765 C3770 1.350 . S
C3765 N3773 1.427 . S
C3766 H3757 0.930 . S
C3766 C3764 1.378 . S
C3766 C3767 1.367 . S
C3767 C3766 1.367 . S
C3767 C3769 1.433 . S
C3768 C3764 1.350 . S
C3768 C3765 1.463 . S
C3768 N3772 1.427 . S
C3769 H3759 0.929 . S
C3769 C3767 1.433 . S
C3769 N3772 1.384 . S
C3770 H3761 0.929 . S
C3770 C3762 1.378 . S
C3770 C3765 1.350 . S
C3771 H3758 0.929 . S
C3771 C3763 1.433 . S
C3771 N3773 1.384 . S
N3772 C3768 1.427 . S
N3772 C3769 1.384 . S
N3773 C3765 1.427 . S
N3773 C3771 1.384 . S
H3774 C3780 0.930 . S
H3775 C3784 0.930 . S
H3776 C3789 0.929 . S
H3777 C3787 0.929 . S
H3778 C3782 0.929 . S
H3779 C3788 0.929 . S
C3780 H3774 0.930 . S
C3780 C3781 1.367 . S
C3780 C3788 1.378 . S
C3781 C3780 1.367 . S
C3781 C3789 1.433 . S
C3782 H3778 0.929 . S
C3782 C3784 1.378 . S
C3782 C3786 1.350 . S
C3783 C3786 1.463 . S
C3783 C3788 1.350 . S
C3783 N3791 1.427 . S
C3784 H3775 0.930 . S
C3784 C3782 1.378 . S
C3784 C3785 1.367 . S
C3785 C3784 1.367 . S
C3785 C3787 1.433 . S
C3786 C3782 1.350 . S
C3786 C3783 1.463 . S
C3786 N3790 1.427 . S
C3787 H3777 0.929 . S
C3787 C3785 1.433 . S
C3787 N3790 1.384 . S
C3788 H3779 0.929 . S
C3788 C3780 1.378 . S
C3788 C3783 1.350 . S
C3789 H3776 0.929 . S
C3789 C3781 1.433 . S
C3789 N3791 1.384 . S
N3790 C3786 1.427 . S
N3790 C3787 1.384 . S
N3791 C3783 1.427 . S
N3791 C3789 1.384 . S
H3792 C3798 0.930 . S
H3793 C3802 0.930 . S
H3794 C3807 0.929 . S
H3795 C3805 0.929 . S
H3796 C3800 0.929 . S
H3797 C3806 0.929 . S
C3798 H3792 0.930 . S
C3798 C3799 1.367 . S
C3798 C3806 1.378 . S
C3799 C3798 1.367 . S
C3799 C3807 1.433 . S
C3800 H3796 0.929 . S
C3800 C3802 1.378 . S
C3800 C3804 1.350 . S
C3801 C3804 1.463 . S
C3801 C3806 1.350 . S
C3801 N3809 1.427 . S
C3802 H3793 0.930 . S
C3802 C3800 1.378 . S
C3802 C3803 1.367 . S
C3803 C3802 1.367 . S
C3803 C3805 1.433 . S
C3804 C3800 1.350 . S
C3804 C3801 1.463 . S
C3804 N3808 1.427 . S
C3805 H3795 0.929 . S
C3805 C3803 1.433 . S
C3805 N3808 1.384 . S
C3806 H3797 0.929 . S
C3806 C3798 1.378 . S
C3806 C3801 1.350 . S
C3807 H3794 0.929 . S
C3807 C3799 1.433 . S
C3807 N3809 1.384 . S
N3808 C3804 1.427 . S
N3808 C3805 1.384 . S
N3809 C3801 1.427 . S
N3809 C3807 1.384 . S
H3810 C3816 0.930 . S
H3811 C3820 0.930 . S
H3812 C3825 0.929 . S
H3813 C3823 0.929 . S
H3814 C3818 0.929 . S
H3815 C3824 0.929 . S
C3816 H3810 0.930 . S
C3816 C3817 1.367 . S
C3816 C3824 1.378 . S
C3817 C3816 1.367 . S
C3817 C3825 1.433 . S
C3818 H3814 0.929 . S
C3818 C3820 1.378 . S
C3818 C3822 1.350 . S
C3819 C3822 1.463 . S
C3819 C3824 1.350 . S
C3819 N3827 1.427 . S
C3820 H3811 0.930 . S
C3820 C3818 1.378 . S
C3820 C3821 1.367 . S
C3821 C3820 1.367 . S
C3821 C3823 1.433 . S
C3822 C3818 1.350 . S
C3822 C3819 1.463 . S
C3822 N3826 1.427 . S
C3823 H3813 0.929 . S
C3823 C3821 1.433 . S
C3823 N3826 1.384 . S
C3824 H3815 0.929 . S
C3824 C3816 1.378 . S
C3824 C3819 1.350 . S
C3825 H3812 0.929 . S
C3825 C3817 1.433 . S
C3825 N3827 1.384 . S
N3826 C3822 1.427 . S
N3826 C3823 1.384 . S
N3827 C3819 1.427 . S
N3827 C3825 1.384 . S
H3828 C3834 0.930 . S
H3829 C3838 0.930 . S
H3830 C3843 0.929 . S
H3831 C3841 0.929 . S
H3832 C3836 0.929 . S
H3833 C3842 0.929 . S
C3834 H3828 0.930 . S
C3834 C3835 1.367 . S
C3834 C3842 1.378 . S
C3835 C3834 1.367 . S
C3835 C3843 1.433 . S
C3836 H3832 0.929 . S
C3836 C3838 1.378 . S
C3836 C3840 1.350 . S
C3837 C3840 1.463 . S
C3837 C3842 1.350 . S
C3837 N3845 1.427 . S
C3838 H3829 0.930 . S
C3838 C3836 1.378 . S
C3838 C3839 1.367 . S
C3839 C3838 1.367 . S
C3839 C3841 1.433 . S
C3840 C3836 1.350 . S
C3840 C3837 1.463 . S
C3840 N3844 1.427 . S
C3841 H3831 0.929 . S
C3841 C3839 1.433 . S
C3841 N3844 1.384 . S
C3842 H3833 0.929 . S
C3842 C3834 1.378 . S
C3842 C3837 1.350 . S
C3843 H3830 0.929 . S
C3843 C3835 1.433 . S
C3843 N3845 1.384 . S
N3844 C3840 1.427 . S
N3844 C3841 1.384 . S
N3845 C3837 1.427 . S
N3845 C3843 1.384 . S
H3846 C3852 0.930 . S
H3847 C3856 0.930 . S
H3848 C3861 0.929 . S
H3849 C3859 0.929 . S
H3850 C3854 0.929 . S
H3851 C3860 0.929 . S
C3852 H3846 0.930 . S
C3852 C3853 1.367 . S
C3852 C3860 1.378 . S
C3853 C3852 1.367 . S
C3853 C3861 1.433 . S
C3854 H3850 0.929 . S
C3854 C3856 1.378 . S
C3854 C3858 1.350 . S
C3855 C3858 1.463 . S
C3855 C3860 1.350 . S
C3855 N3863 1.427 . S
C3856 H3847 0.930 . S
C3856 C3854 1.378 . S
C3856 C3857 1.367 . S
C3857 C3856 1.367 . S
C3857 C3859 1.433 . S
C3858 C3854 1.350 . S
C3858 C3855 1.463 . S
C3858 N3862 1.427 . S
C3859 H3849 0.929 . S
C3859 C3857 1.433 . S
C3859 N3862 1.384 . S
C3860 H3851 0.929 . S
C3860 C3852 1.378 . S
C3860 C3855 1.350 . S
C3861 H3848 0.929 . S
C3861 C3853 1.433 . S
C3861 N3863 1.384 . S
N3862 C3858 1.427 . S
N3862 C3859 1.384 . S
N3863 C3855 1.427 . S
N3863 C3861 1.384 . S
H3864 C3870 0.930 . S
H3865 C3874 0.930 . S
H3866 C3879 0.929 . S
H3867 C3877 0.929 . S
H3868 C3872 0.929 . S
H3869 C3878 0.929 . S
C3870 H3864 0.930 . S
C3870 C3871 1.367 . S
C3870 C3878 1.378 . S
C3871 C3870 1.367 . S
C3871 C3879 1.433 . S
C3872 H3868 0.929 . S
C3872 C3874 1.378 . S
C3872 C3876 1.350 . S
C3873 C3876 1.463 . S
C3873 C3878 1.350 . S
C3873 N3881 1.427 . S
C3874 H3865 0.930 . S
C3874 C3872 1.378 . S
C3874 C3875 1.367 . S
C3875 C3874 1.367 . S
C3875 C3877 1.433 . S
C3876 C3872 1.350 . S
C3876 C3873 1.463 . S
C3876 N3880 1.427 . S
C3877 H3867 0.929 . S
C3877 C3875 1.433 . S
C3877 N3880 1.384 . S
C3878 H3869 0.929 . S
C3878 C3870 1.378 . S
C3878 C3873 1.350 . S
C3879 H3866 0.929 . S
C3879 C3871 1.433 . S
C3879 N3881 1.384 . S
N3880 C3876 1.427 . S
N3880 C3877 1.384 . S
N3881 C3873 1.427 . S
N3881 C3879 1.384 . S
H3882 C3888 0.930 . S
H3883 C3892 0.930 . S
H3884 C3897 0.929 . S
H3885 C3895 0.929 . S
H3886 C3890 0.929 . S
H3887 C3896 0.929 . S
C3888 H3882 0.930 . S
C3888 C3889 1.367 . S
C3888 C3896 1.378 . S
C3889 C3888 1.367 . S
C3889 C3897 1.433 . S
C3890 H3886 0.929 . S
C3890 C3892 1.378 . S
C3890 C3894 1.350 . S
C3891 C3894 1.463 . S
C3891 C3896 1.350 . S
C3891 N3899 1.427 . S
C3892 H3883 0.930 . S
C3892 C3890 1.378 . S
C3892 C3893 1.367 . S
C3893 C3892 1.367 . S
C3893 C3895 1.433 . S
C3894 C3890 1.350 . S
C3894 C3891 1.463 . S
C3894 N3898 1.427 . S
C3895 H3885 0.929 . S
C3895 C3893 1.433 . S
C3895 N3898 1.384 . S
C3896 H3887 0.929 . S
C3896 C3888 1.378 . S
C3896 C3891 1.350 . S
C3897 H3884 0.929 . S
C3897 C3889 1.433 . S
C3897 N3899 1.384 . S
N3898 C3894 1.427 . S
N3898 C3895 1.384 . S
N3899 C3891 1.427 . S
N3899 C3897 1.384 . S
H3900 C3906 0.930 . S
H3901 C3910 0.930 . S
H3902 C3915 0.929 . S
H3903 C3913 0.929 . S
H3904 C3908 0.929 . S
H3905 C3914 0.929 . S
C3906 H3900 0.930 . S
C3906 C3907 1.367 . S
C3906 C3914 1.378 . S
C3907 C3906 1.367 . S
C3907 C3915 1.433 . S
C3908 H3904 0.929 . S
C3908 C3910 1.378 . S
C3908 C3912 1.350 . S
C3909 C3912 1.463 . S
C3909 C3914 1.350 . S
C3909 N3917 1.427 . S
C3910 H3901 0.930 . S
C3910 C3908 1.378 . S
C3910 C3911 1.367 . S
C3911 C3910 1.367 . S
C3911 C3913 1.433 . S
C3912 C3908 1.350 . S
C3912 C3909 1.463 . S
C3912 N3916 1.427 . S
C3913 H3903 0.929 . S
C3913 C3911 1.433 . S
C3913 N3916 1.384 . S
C3914 H3905 0.929 . S
C3914 C3906 1.378 . S
C3914 C3909 1.350 . S
C3915 H3902 0.929 . S
C3915 C3907 1.433 . S
C3915 N3917 1.384 . S
N3916 C3912 1.427 . S
N3916 C3913 1.384 . S
N3917 C3909 1.427 . S
N3917 C3915 1.384 . S
H3918 C3924 0.930 . S
H3919 C3928 0.930 . S
H3920 C3933 0.929 . S
H3921 C3931 0.929 . S
H3922 C3926 0.929 . S
H3923 C3932 0.929 . S
C3924 H3918 0.930 . S
C3924 C3925 1.367 . S
C3924 C3932 1.378 . S
C3925 C3924 1.367 . S
C3925 C3933 1.433 . S
C3926 H3922 0.929 . S
C3926 C3928 1.378 . S
C3926 C3930 1.350 . S
C3927 C3930 1.463 . S
C3927 C3932 1.350 . S
C3927 N3935 1.427 . S
C3928 H3919 0.930 . S
C3928 C3926 1.378 . S
C3928 C3929 1.367 . S
C3929 C3928 1.367 . S
C3929 C3931 1.433 . S
C3930 C3926 1.350 . S
C3930 C3927 1.463 . S
C3930 N3934 1.427 . S
C3931 H3921 0.929 . S
C3931 C3929 1.433 . S
C3931 N3934 1.384 . S
C3932 H3923 0.929 . S
C3932 C3924 1.378 . S
C3932 C3927 1.350 . S
C3933 H3920 0.929 . S
C3933 C3925 1.433 . S
C3933 N3935 1.384 . S
N3934 C3930 1.427 . S
N3934 C3931 1.384 . S
N3935 C3927 1.427 . S
N3935 C3933 1.384 . S
H3936 C3942 0.930 . S
H3937 C3946 0.930 . S
H3938 C3951 0.929 . S
H3939 C3949 0.929 . S
H3940 C3944 0.929 . S
H3941 C3950 0.929 . S
C3942 H3936 0.930 . S
C3942 C3943 1.367 . S
C3942 C3950 1.378 . S
C3943 C3942 1.367 . S
C3943 C3951 1.433 . S
C3944 H3940 0.929 . S
C3944 C3946 1.378 . S
C3944 C3948 1.350 . S
C3945 C3948 1.463 1_655 S
C3945 C3950 1.350 . S
C3945 N3953 1.427 . S
C3946 H3937 0.930 . S
C3946 C3944 1.378 . S
C3946 C3947 1.367 . S
C3947 C3946 1.367 . S
C3947 C3949 1.433 . S
C3948 C3944 1.350 . S
C3948 C3945 1.463 1_455 S
C3948 N3952 1.427 . S
C3949 H3939 0.929 . S
C3949 C3947 1.433 . S
C3949 N3952 1.384 . S
C3950 H3941 0.929 . S
C3950 C3942 1.378 . S
C3950 C3945 1.350 . S
C3951 H3938 0.929 . S
C3951 C3943 1.433 . S
C3951 N3953 1.384 . S
N3952 C3948 1.427 . S
N3952 C3949 1.384 . S
N3953 C3945 1.427 . S
N3953 C3951 1.384 . S
H3954 C3960 0.930 . S
H3955 C3964 0.930 . S
H3956 C3969 0.929 . S
H3957 C3967 0.929 . S
H3958 C3962 0.929 . S
H3959 C3968 0.929 . S
C3960 H3954 0.930 . S
C3960 C3961 1.367 . S
C3960 C3968 1.378 . S
C3961 C3960 1.367 . S
C3961 C3969 1.433 . S
C3962 H3958 0.929 . S
C3962 C3964 1.378 . S
C3962 C3966 1.350 . S
C3963 C3966 1.463 . S
C3963 C3968 1.350 . S
C3963 N3971 1.427 . S
C3964 H3955 0.930 . S
C3964 C3962 1.378 . S
C3964 C3965 1.367 . S
C3965 C3964 1.367 . S
C3965 C3967 1.433 . S
C3966 C3962 1.350 . S
C3966 C3963 1.463 . S
C3966 N3970 1.427 . S
C3967 H3957 0.929 . S
C3967 C3965 1.433 . S
C3967 N3970 1.384 . S
C3968 H3959 0.929 . S
C3968 C3960 1.378 . S
C3968 C3963 1.350 . S
C3969 H3956 0.929 . S
C3969 C3961 1.433 . S
C3969 N3971 1.384 . S
N3970 C3966 1.427 . S
N3970 C3967 1.384 . S
N3971 C3963 1.427 . S
N3971 C3969 1.384 . S
H3972 C3978 0.930 . S
H3973 C3982 0.930 . S
H3974 C3987 0.929 . S
H3975 C3985 0.929 . S
H3976 C3980 0.929 . S
H3977 C3986 0.929 . S
C3978 H3972 0.930 . S
C3978 C3979 1.367 . S
C3978 C3986 1.378 . S
C3979 C3978 1.367 . S
C3979 C3987 1.433 1_565 S
C3980 H3976 0.929 . S
C3980 C3982 1.378 . S
C3980 C3984 1.350 . S
C3981 C3984 1.463 1_665 S
C3981 C3986 1.350 . S
C3981 N3989 1.427 1_565 S
C3982 H3973 0.930 . S
C3982 C3980 1.378 . S
C3982 C3983 1.367 . S
C3983 C3982 1.367 . S
C3983 C3985 1.433 1_545 S
C3984 C3980 1.350 . S
C3984 C3981 1.463 1_445 S
C3984 N3988 1.427 1_545 S
C3985 H3975 0.929 . S
C3985 C3983 1.433 1_565 S
C3985 N3988 1.384 . S
C3986 H3977 0.929 . S
C3986 C3978 1.378 . S
C3986 C3981 1.350 . S
C3987 H3974 0.929 . S
C3987 C3979 1.433 1_545 S
C3987 N3989 1.384 . S
N3988 C3984 1.427 1_565 S
N3988 C3985 1.384 . S
N3989 C3981 1.427 1_545 S
N3989 C3987 1.384 . S
H3990 C3996 0.930 . S
H3991 C4000 0.930 . S
H3992 C4005 0.929 . S
H3993 C4003 0.929 . S
H3994 C3998 0.929 . S
H3995 C4004 0.929 . S
C3996 H3990 0.930 . S
C3996 C3997 1.367 . S
C3996 C4004 1.378 . S
C3997 C3996 1.367 . S
C3997 C4005 1.433 . S
C3998 H3994 0.929 . S
C3998 C4000 1.378 . S
C3998 C4002 1.350 . S
C3999 C4002 1.463 . S
C3999 C4004 1.350 . S
C3999 N4007 1.427 . S
C4000 H3991 0.930 . S
C4000 C3998 1.378 . S
C4000 C4001 1.367 . S
C4001 C4000 1.367 . S
C4001 C4003 1.433 . S
C4002 C3998 1.350 . S
C4002 C3999 1.463 . S
C4002 N4006 1.427 . S
C4003 H3993 0.929 . S
C4003 C4001 1.433 . S
C4003 N4006 1.384 . S
C4004 H3995 0.929 . S
C4004 C3996 1.378 . S
C4004 C3999 1.350 . S
C4005 H3992 0.929 . S
C4005 C3997 1.433 . S
C4005 N4007 1.384 . S
N4006 C4002 1.427 . S
N4006 C4003 1.384 . S
N4007 C3999 1.427 . S
N4007 C4005 1.384 . S
H4008 C4014 0.930 . S
H4009 C4018 0.930 . S
H4010 C4023 0.929 . S
H4011 C4021 0.929 . S
H4012 C4016 0.929 . S
H4013 C4022 0.929 . S
C4014 H4008 0.930 . S
C4014 C4015 1.367 . S
C4014 C4022 1.378 . S
C4015 C4014 1.367 . S
C4015 C4023 1.433 . S
C4016 H4012 0.929 . S
C4016 C4018 1.378 . S
C4016 C4020 1.350 . S
C4017 C4020 1.463 1_455 S
C4017 C4022 1.350 . S
C4017 N4025 1.427 . S
C4018 H4009 0.930 . S
C4018 C4016 1.378 . S
C4018 C4019 1.367 . S
C4019 C4018 1.367 . S
C4019 C4021 1.433 . S
C4020 C4016 1.350 . S
C4020 C4017 1.463 1_655 S
C4020 N4024 1.427 . S
C4021 H4011 0.929 . S
C4021 C4019 1.433 . S
C4021 N4024 1.384 . S
C4022 H4013 0.929 . S
C4022 C4014 1.378 . S
C4022 C4017 1.350 . S
C4023 H4010 0.929 . S
C4023 C4015 1.433 . S
C4023 N4025 1.384 . S
N4024 C4020 1.427 . S
N4024 C4021 1.384 . S
N4025 C4017 1.427 . S
N4025 C4023 1.384 . S
H4026 C4032 0.930 . S
H4027 C4036 0.930 . S
H4028 C4041 0.929 . S
H4029 C4039 0.929 . S
H4030 C4034 0.929 . S
H4031 C4040 0.929 . S
C4032 H4026 0.930 . S
C4032 C4033 1.367 . S
C4032 C4040 1.378 . S
C4033 C4032 1.367 . S
C4033 C4041 1.433 . S
C4034 H4030 0.929 . S
C4034 C4036 1.378 . S
C4034 C4038 1.350 . S
C4035 C4038 1.463 . S
C4035 C4040 1.350 . S
C4035 N4043 1.427 . S
C4036 H4027 0.930 . S
C4036 C4034 1.378 . S
C4036 C4037 1.367 . S
C4037 C4036 1.367 . S
C4037 C4039 1.433 . S
C4038 C4034 1.350 . S
C4038 C4035 1.463 . S
C4038 N4042 1.427 . S
C4039 H4029 0.929 . S
C4039 C4037 1.433 . S
C4039 N4042 1.384 . S
C4040 H4031 0.929 . S
C4040 C4032 1.378 . S
C4040 C4035 1.350 . S
C4041 H4028 0.929 . S
C4041 C4033 1.433 . S
C4041 N4043 1.384 . S
N4042 C4038 1.427 . S
N4042 C4039 1.384 . S
N4043 C4035 1.427 . S
N4043 C4041 1.384 . S
H4044 C4050 0.929 . S
H4045 C4054 0.929 . S
H4046 C4059 0.929 . S
H4047 C4057 0.929 . S
H4048 C4052 0.929 . S
H4049 C4058 0.929 . S
C4050 H4044 0.929 . S
C4050 C4051 1.369 1_565 S
C4050 C4058 1.377 . S
C4051 C4050 1.369 1_545 S
C4051 C4059 1.433 . S
C4052 H4048 0.929 . S
C4052 C4054 1.377 . S
C4052 C4056 1.340 1_545 S
C4053 C4056 1.455 1_645 S
C4053 C4058 1.340 1_545 S
C4053 N4061 1.448 . S
C4054 H4045 0.929 . S
C4054 C4052 1.377 . S
C4054 C4055 1.369 1_545 S
C4055 C4054 1.369 1_565 S
C4055 C4057 1.433 . S
C4056 C4052 1.340 1_565 S
C4056 C4053 1.455 1_465 S
C4056 N4060 1.448 . S
C4057 H4047 0.929 . S
C4057 C4055 1.433 . S
C4057 N4060 1.384 . S
C4058 H4049 0.929 . S
C4058 C4050 1.377 . S
C4058 C4053 1.340 1_565 S
C4059 H4046 0.929 . S
C4059 C4051 1.433 . S
C4059 N4061 1.384 . S
N4060 C4056 1.448 . S
N4060 C4057 1.384 . S
N4061 C4053 1.448 . S
N4061 C4059 1.384 . S
H4062 C4068 0.930 . S
H4063 C4072 0.930 . S
H4064 C4077 0.929 . S
H4065 C4075 0.929 . S
H4066 C4070 0.929 . S
H4067 C4076 0.929 . S
C4068 H4062 0.930 . S
C4068 C4069 1.367 . S
C4068 C4076 1.378 . S
C4069 C4068 1.367 . S
C4069 C4077 1.433 . S
C4070 H4066 0.929 . S
C4070 C4072 1.378 . S
C4070 C4074 1.350 . S
C4071 C4074 1.463 . S
C4071 C4076 1.350 . S
C4071 N4079 1.427 . S
C4072 H4063 0.930 . S
C4072 C4070 1.378 . S
C4072 C4073 1.367 . S
C4073 C4072 1.367 . S
C4073 C4075 1.433 . S
C4074 C4070 1.350 . S
C4074 C4071 1.463 . S
C4074 N4078 1.427 . S
C4075 H4065 0.929 . S
C4075 C4073 1.433 . S
C4075 N4078 1.384 . S
C4076 H4067 0.929 . S
C4076 C4068 1.378 . S
C4076 C4071 1.350 . S
C4077 H4064 0.929 . S
C4077 C4069 1.433 . S
C4077 N4079 1.384 . S
N4078 C4074 1.427 . S
N4078 C4075 1.384 . S
N4079 C4071 1.427 . S
N4079 C4077 1.384 . S
H4080 C4086 0.930 . S
H4081 C4090 0.930 . S
H4082 C4095 0.929 . S
H4083 C4093 0.929 . S
H4084 C4088 0.929 . S
H4085 C4094 0.929 . S
C4086 H4080 0.930 . S
C4086 C4087 1.367 . S
C4086 C4094 1.378 . S
C4087 C4086 1.367 . S
C4087 C4095 1.433 . S
C4088 H4084 0.929 . S
C4088 C4090 1.378 . S
C4088 C4092 1.350 . S
C4089 C4092 1.463 1_545 S
C4089 C4094 1.350 . S
C4089 N4097 1.427 . S
C4090 H4081 0.930 . S
C4090 C4088 1.378 . S
C4090 C4091 1.367 . S
C4091 C4090 1.367 . S
C4091 C4093 1.433 . S
C4092 C4088 1.350 . S
C4092 C4089 1.463 1_565 S
C4092 N4096 1.427 . S
C4093 H4083 0.929 . S
C4093 C4091 1.433 . S
C4093 N4096 1.384 . S
C4094 H4085 0.929 . S
C4094 C4086 1.378 . S
C4094 C4089 1.350 . S
C4095 H4082 0.929 . S
C4095 C4087 1.433 . S
C4095 N4097 1.384 . S
N4096 C4092 1.427 . S
N4096 C4093 1.384 . S
N4097 C4089 1.427 . S
N4097 C4095 1.384 . S
H4098 C4104 0.930 . S
H4099 C4108 0.930 . S
H4100 C4113 0.929 . S
H4101 C4111 0.929 . S
H4102 C4106 0.929 . S
H4103 C4112 0.929 . S
C4104 H4098 0.930 . S
C4104 C4105 1.367 . S
C4104 C4112 1.378 . S
C4105 C4104 1.367 . S
C4105 C4113 1.433 . S
C4106 H4102 0.929 . S
C4106 C4108 1.378 . S
C4106 C4110 1.350 . S
C4107 C4110 1.463 . S
C4107 C4112 1.350 . S
C4107 N4115 1.427 . S
C4108 H4099 0.930 . S
C4108 C4106 1.378 . S
C4108 C4109 1.367 . S
C4109 C4108 1.367 . S
C4109 C4111 1.433 . S
C4110 C4106 1.350 . S
C4110 C4107 1.463 . S
C4110 N4114 1.427 . S
C4111 H4101 0.929 . S
C4111 C4109 1.433 . S
C4111 N4114 1.384 . S
C4112 H4103 0.929 . S
C4112 C4104 1.378 . S
C4112 C4107 1.350 . S
C4113 H4100 0.929 . S
C4113 C4105 1.433 . S
C4113 N4115 1.384 . S
N4114 C4110 1.427 . S
N4114 C4111 1.384 . S
N4115 C4107 1.427 . S
N4115 C4113 1.384 . S
H4116 C4122 0.930 . S
H4117 C4126 0.930 . S
H4118 C4131 0.929 . S
H4119 C4129 0.929 . S
H4120 C4124 0.929 . S
H4121 C4130 0.929 . S
C4122 H4116 0.930 . S
C4122 C4123 1.367 1_556 S
C4122 C4130 1.378 . S
C4123 C4122 1.367 1_554 S
C4123 C4131 1.433 . S
C4124 H4120 0.929 . S
C4124 C4126 1.378 . S
C4124 C4128 1.322 1_554 S
C4125 C4128 1.460 1_554 S
C4125 C4130 1.322 1_554 S
C4125 N4133 1.460 . S
C4126 H4117 0.930 . S
C4126 C4124 1.378 . S
C4126 C4127 1.367 1_554 S
C4127 C4126 1.367 1_556 S
C4127 C4129 1.433 . S
C4128 C4124 1.322 1_556 S
C4128 C4125 1.460 1_556 S
C4128 N4132 1.460 . S
C4129 H4119 0.929 . S
C4129 C4127 1.433 . S
C4129 N4132 1.384 . S
C4130 H4121 0.929 . S
C4130 C4122 1.378 . S
C4130 C4125 1.322 1_556 S
C4131 H4118 0.929 . S
C4131 C4123 1.433 . S
C4131 N4133 1.384 . S
N4132 C4128 1.460 . S
N4132 C4129 1.384 . S
N4133 C4125 1.460 . S
N4133 C4131 1.384 . S
H4134 C4140 0.930 . S
H4135 C4144 0.930 . S
H4136 C4149 0.929 . S
H4137 C4147 0.929 . S
H4138 C4142 0.929 . S
H4139 C4148 0.929 . S
C4140 H4134 0.930 . S
C4140 C4141 1.367 . S
C4140 C4148 1.378 . S
C4141 C4140 1.367 . S
C4141 C4149 1.433 . S
C4142 H4138 0.929 . S
C4142 C4144 1.378 . S
C4142 C4146 1.350 . S
C4143 C4146 1.463 . S
C4143 C4148 1.350 . S
C4143 N4151 1.427 . S
C4144 H4135 0.930 . S
C4144 C4142 1.378 . S
C4144 C4145 1.367 . S
C4145 C4144 1.367 . S
C4145 C4147 1.433 . S
C4146 C4142 1.350 . S
C4146 C4143 1.463 . S
C4146 N4150 1.427 . S
C4147 H4137 0.929 . S
C4147 C4145 1.433 . S
C4147 N4150 1.384 . S
C4148 H4139 0.929 . S
C4148 C4140 1.378 . S
C4148 C4143 1.350 . S
C4149 H4136 0.929 . S
C4149 C4141 1.433 . S
C4149 N4151 1.384 . S
N4150 C4146 1.427 . S
N4150 C4147 1.384 . S
N4151 C4143 1.427 . S
N4151 C4149 1.384 . S
H4152 C4158 0.930 . S
H4153 C4162 0.930 . S
H4154 C4167 0.929 . S
H4155 C4165 0.929 . S
H4156 C4160 0.929 . S
H4157 C4166 0.929 . S
C4158 H4152 0.930 . S
C4158 C4159 1.367 . S
C4158 C4166 1.378 . S
C4159 C4158 1.367 . S
C4159 C4167 1.433 . S
C4160 H4156 0.929 . S
C4160 C4162 1.378 . S
C4160 C4164 1.350 . S
C4161 C4164 1.463 1_554 S
C4161 C4166 1.350 . S
C4161 N4169 1.427 . S
C4162 H4153 0.930 . S
C4162 C4160 1.378 . S
C4162 C4163 1.367 . S
C4163 C4162 1.367 . S
C4163 C4165 1.433 . S
C4164 C4160 1.350 . S
C4164 C4161 1.463 1_556 S
C4164 N4168 1.427 . S
C4165 H4155 0.929 . S
C4165 C4163 1.433 . S
C4165 N4168 1.384 . S
C4166 H4157 0.929 . S
C4166 C4158 1.378 . S
C4166 C4161 1.350 . S
C4167 H4154 0.929 . S
C4167 C4159 1.433 . S
C4167 N4169 1.384 . S
N4168 C4164 1.427 . S
N4168 C4165 1.384 . S
N4169 C4161 1.427 . S
N4169 C4167 1.384 . S
H4170 C4176 0.930 . S
H4171 C4180 0.930 . S
H4172 C4185 0.929 . S
H4173 C4183 0.929 . S
H4174 C4178 0.929 . S
H4175 C4184 0.929 . S
C4176 H4170 0.930 . S
C4176 C4177 1.367 . S
C4176 C4184 1.378 . S
C4177 C4176 1.367 . S
C4177 C4185 1.433 1_655 S
C4178 H4174 0.929 . S
C4178 C4180 1.378 . S
C4178 C4182 1.350 . S
C4179 C4182 1.463 1_655 S
C4179 C4184 1.350 . S
C4179 N4187 1.427 1_655 S
C4180 H4171 0.930 . S
C4180 C4178 1.378 . S
C4180 C4181 1.367 . S
C4181 C4180 1.367 . S
C4181 C4183 1.433 1_455 S
C4182 C4178 1.350 . S
C4182 C4179 1.463 1_455 S
C4182 N4186 1.427 1_455 S
C4183 H4173 0.929 . S
C4183 C4181 1.433 1_655 S
C4183 N4186 1.384 . S
C4184 H4175 0.929 . S
C4184 C4176 1.378 . S
C4184 C4179 1.350 . S
C4185 H4172 0.929 . S
C4185 C4177 1.433 1_455 S
C4185 N4187 1.384 . S
N4186 C4182 1.427 1_655 S
N4186 C4183 1.384 . S
N4187 C4179 1.427 1_455 S
N4187 C4185 1.384 . S
H4188 C4194 0.930 . S
H4189 C4198 0.930 . S
H4190 C4203 0.929 . S
H4191 C4201 0.929 . S
H4192 C4196 0.929 . S
H4193 C4202 0.929 . S
C4194 H4188 0.930 . S
C4194 C4195 1.367 . S
C4194 C4202 1.378 . S
C4195 C4194 1.367 . S
C4195 C4203 1.433 . S
C4196 H4192 0.929 . S
C4196 C4198 1.378 . S
C4196 C4200 1.350 . S
C4197 C4200 1.463 . S
C4197 C4202 1.350 . S
C4197 N4205 1.427 . S
C4198 H4189 0.930 . S
C4198 C4196 1.378 . S
C4198 C4199 1.367 . S
C4199 C4198 1.367 . S
C4199 C4201 1.433 . S
C4200 C4196 1.350 . S
C4200 C4197 1.463 . S
C4200 N4204 1.427 . S
C4201 H4191 0.929 . S
C4201 C4199 1.433 . S
C4201 N4204 1.384 . S
C4202 H4193 0.929 . S
C4202 C4194 1.378 . S
C4202 C4197 1.350 . S
C4203 H4190 0.929 . S
C4203 C4195 1.433 . S
C4203 N4205 1.384 . S
N4204 C4200 1.427 . S
N4204 C4201 1.384 . S
N4205 C4197 1.427 . S
N4205 C4203 1.384 . S
H4206 C4212 0.930 . S
H4207 C4216 0.930 . S
H4208 C4221 0.929 . S
H4209 C4219 0.929 . S
H4210 C4214 0.929 . S
H4211 C4220 0.929 . S
C4212 H4206 0.930 . S
C4212 C4213 1.367 . S
C4212 C4220 1.378 . S
C4213 C4212 1.367 . S
C4213 C4221 1.433 1_455 S
C4214 H4210 0.929 . S
C4214 C4216 1.378 . S
C4214 C4218 1.350 . S
C4215 C4218 1.463 1_454 S
C4215 C4220 1.350 . S
C4215 N4223 1.427 1_455 S
C4216 H4207 0.930 . S
C4216 C4214 1.378 . S
C4216 C4217 1.367 . S
C4217 C4216 1.367 . S
C4217 C4219 1.433 1_655 S
C4218 C4214 1.350 . S
C4218 C4215 1.463 1_656 S
C4218 N4222 1.427 1_655 S
C4219 H4209 0.929 . S
C4219 C4217 1.433 1_455 S
C4219 N4222 1.384 . S
C4220 H4211 0.929 . S
C4220 C4212 1.378 . S
C4220 C4215 1.350 . S
C4221 H4208 0.929 . S
C4221 C4213 1.433 1_655 S
C4221 N4223 1.384 . S
N4222 C4218 1.427 1_455 S
N4222 C4219 1.384 . S
N4223 C4215 1.427 1_655 S
N4223 C4221 1.384 . S
H4224 C4230 0.930 . S
H4225 C4234 0.930 . S
H4226 C4239 0.929 . S
H4227 C4237 0.929 . S
H4228 C4232 0.929 . S
H4229 C4238 0.929 . S
C4230 H4224 0.930 . S
C4230 C4231 1.367 . S
C4230 C4238 1.378 . S
C4231 C4230 1.367 . S
C4231 C4239 1.433 . S
C4232 H4228 0.929 . S
C4232 C4234 1.378 . S
C4232 C4236 1.350 . S
C4233 C4236 1.463 . S
C4233 C4238 1.350 . S
C4233 N4241 1.427 . S
C4234 H4225 0.930 . S
C4234 C4232 1.378 . S
C4234 C4235 1.367 . S
C4235 C4234 1.367 . S
C4235 C4237 1.433 . S
C4236 C4232 1.350 . S
C4236 C4233 1.463 . S
C4236 N4240 1.427 . S
C4237 H4227 0.929 . S
C4237 C4235 1.433 . S
C4237 N4240 1.384 . S
C4238 H4229 0.929 . S
C4238 C4230 1.378 . S
C4238 C4233 1.350 . S
C4239 H4226 0.929 . S
C4239 C4231 1.433 . S
C4239 N4241 1.384 . S
N4240 C4236 1.427 . S
N4240 C4237 1.384 . S
N4241 C4233 1.427 . S
N4241 C4239 1.384 . S
H4242 C4248 0.930 . S
H4243 C4252 0.930 . S
H4244 C4257 0.929 . S
H4245 C4255 0.929 . S
H4246 C4250 0.929 . S
H4247 C4256 0.929 . S
C4248 H4242 0.930 . S
C4248 C4249 1.367 . S
C4248 C4256 1.378 . S
C4249 C4248 1.367 . S
C4249 C4257 1.433 . S
C4250 H4246 0.929 . S
C4250 C4252 1.378 . S
C4250 C4254 1.350 . S
C4251 C4254 1.463 1_554 S
C4251 C4256 1.350 . S
C4251 N4259 1.427 . S
C4252 H4243 0.930 . S
C4252 C4250 1.378 . S
C4252 C4253 1.367 . S
C4253 C4252 1.367 . S
C4253 C4255 1.433 . S
C4254 C4250 1.350 . S
C4254 C4251 1.463 1_556 S
C4254 N4258 1.427 . S
C4255 H4245 0.929 . S
C4255 C4253 1.433 . S
C4255 N4258 1.384 . S
C4256 H4247 0.929 . S
C4256 C4248 1.378 . S
C4256 C4251 1.350 . S
C4257 H4244 0.929 . S
C4257 C4249 1.433 . S
C4257 N4259 1.384 . S
N4258 C4254 1.427 . S
N4258 C4255 1.384 . S
N4259 C4251 1.427 . S
N4259 C4257 1.384 . S
H4260 C4266 0.930 . S
H4261 C4270 0.930 . S
H4262 C4275 0.929 . S
H4263 C4273 0.929 . S
H4264 C4268 0.929 . S
H4265 C4274 0.929 . S
C4266 H4260 0.930 . S
C4266 C4267 1.367 . S
C4266 C4274 1.378 . S
C4267 C4266 1.367 . S
C4267 C4275 1.433 . S
C4268 H4264 0.929 . S
C4268 C4270 1.378 . S
C4268 C4272 1.350 . S
C4269 C4272 1.463 . S
C4269 C4274 1.350 . S
C4269 N4277 1.427 . S
C4270 H4261 0.930 . S
C4270 C4268 1.378 . S
C4270 C4271 1.367 . S
C4271 C4270 1.367 . S
C4271 C4273 1.433 . S
C4272 C4268 1.350 . S
C4272 C4269 1.463 . S
C4272 N4276 1.427 . S
C4273 H4263 0.929 . S
C4273 C4271 1.433 . S
C4273 N4276 1.384 . S
C4274 H4265 0.929 . S
C4274 C4266 1.378 . S
C4274 C4269 1.350 . S
C4275 H4262 0.929 . S
C4275 C4267 1.433 . S
C4275 N4277 1.384 . S
N4276 C4272 1.427 . S
N4276 C4273 1.384 . S
N4277 C4269 1.427 . S
N4277 C4275 1.384 . S
H4278 C4284 0.930 . S
H4279 C4288 0.930 . S
H4280 C4293 0.929 . S
H4281 C4291 0.929 . S
H4282 C4286 0.929 . S
H4283 C4292 0.929 . S
C4284 H4278 0.930 . S
C4284 C4285 1.367 . S
C4284 C4292 1.378 . S
C4285 C4284 1.367 . S
C4285 C4293 1.433 . S
C4286 H4282 0.929 . S
C4286 C4288 1.378 . S
C4286 C4290 1.350 . S
C4287 C4290 1.463 . S
C4287 C4292 1.350 . S
C4287 N4295 1.427 . S
C4288 H4279 0.930 . S
C4288 C4286 1.378 . S
C4288 C4289 1.367 . S
C4289 C4288 1.367 . S
C4289 C4291 1.433 . S
C4290 C4286 1.350 . S
C4290 C4287 1.463 . S
C4290 N4294 1.427 . S
C4291 H4281 0.929 . S
C4291 C4289 1.433 . S
C4291 N4294 1.384 . S
C4292 H4283 0.929 . S
C4292 C4284 1.378 . S
C4292 C4287 1.350 . S
C4293 H4280 0.929 . S
C4293 C4285 1.433 . S
C4293 N4295 1.384 . S
N4294 C4290 1.427 . S
N4294 C4291 1.384 . S
N4295 C4287 1.427 . S
N4295 C4293 1.384 . S
H4296 C4302 0.930 . S
H4297 C4306 0.930 . S
H4298 C4311 0.929 . S
H4299 C4309 0.929 . S
H4300 C4304 0.929 . S
H4301 C4310 0.929 . S
C4302 H4296 0.930 . S
C4302 C4303 1.367 . S
C4302 C4310 1.378 . S
C4303 C4302 1.367 . S
C4303 C4311 1.433 . S
C4304 H4300 0.929 . S
C4304 C4306 1.378 . S
C4304 C4308 1.350 . S
C4305 C4308 1.463 . S
C4305 C4310 1.350 . S
C4305 N4313 1.427 . S
C4306 H4297 0.930 . S
C4306 C4304 1.378 . S
C4306 C4307 1.367 . S
C4307 C4306 1.367 . S
C4307 C4309 1.433 . S
C4308 C4304 1.350 . S
C4308 C4305 1.463 . S
C4308 N4312 1.427 . S
C4309 H4299 0.929 . S
C4309 C4307 1.433 . S
C4309 N4312 1.384 . S
C4310 H4301 0.929 . S
C4310 C4302 1.378 . S
C4310 C4305 1.350 . S
C4311 H4298 0.929 . S
C4311 C4303 1.433 . S
C4311 N4313 1.384 . S
N4312 C4308 1.427 . S
N4312 C4309 1.384 . S
N4313 C4305 1.427 . S
N4313 C4311 1.384 . S
H4314 C4320 0.930 . S
H4315 C4324 0.930 . S
H4316 C4329 0.929 . S
H4317 C4327 0.929 . S
H4318 C4322 0.929 . S
H4319 C4328 0.929 . S
C4320 H4314 0.930 . S
C4320 C4321 1.367 . S
C4320 C4328 1.378 . S
C4321 C4320 1.367 . S
C4321 C4329 1.433 . S
C4322 H4318 0.929 . S
C4322 C4324 1.378 . S
C4322 C4326 1.350 . S
C4323 C4326 1.463 . S
C4323 C4328 1.350 . S
C4323 N4331 1.427 . S
C4324 H4315 0.930 . S
C4324 C4322 1.378 . S
C4324 C4325 1.367 . S
C4325 C4324 1.367 . S
C4325 C4327 1.433 . S
C4326 C4322 1.350 . S
C4326 C4323 1.463 . S
C4326 N4330 1.427 . S
C4327 H4317 0.929 . S
C4327 C4325 1.433 . S
C4327 N4330 1.384 . S
C4328 H4319 0.929 . S
C4328 C4320 1.378 . S
C4328 C4323 1.350 . S
C4329 H4316 0.929 . S
C4329 C4321 1.433 . S
C4329 N4331 1.384 . S
N4330 C4326 1.427 . S
N4330 C4327 1.384 . S
N4331 C4323 1.427 . S
N4331 C4329 1.384 . S
H4332 C4338 0.930 . S
H4333 C4342 0.930 . S
H4334 C4347 0.929 . S
H4335 C4345 0.929 . S
H4336 C4340 0.929 . S
H4337 C4346 0.929 . S
C4338 H4332 0.930 . S
C4338 C4339 1.367 . S
C4338 C4346 1.378 . S
C4339 C4338 1.367 . S
C4339 C4347 1.433 . S
C4340 H4336 0.929 . S
C4340 C4342 1.378 . S
C4340 C4344 1.350 . S
C4341 C4344 1.463 . S
C4341 C4346 1.350 . S
C4341 N4349 1.427 . S
C4342 H4333 0.930 . S
C4342 C4340 1.378 . S
C4342 C4343 1.367 . S
C4343 C4342 1.367 . S
C4343 C4345 1.433 . S
C4344 C4340 1.350 . S
C4344 C4341 1.463 . S
C4344 N4348 1.427 . S
C4345 H4335 0.929 . S
C4345 C4343 1.433 . S
C4345 N4348 1.384 . S
C4346 H4337 0.929 . S
C4346 C4338 1.378 . S
C4346 C4341 1.350 . S
C4347 H4334 0.929 . S
C4347 C4339 1.433 . S
C4347 N4349 1.384 . S
N4348 C4344 1.427 . S
N4348 C4345 1.384 . S
N4349 C4341 1.427 . S
N4349 C4347 1.384 . S
H4350 C4356 0.930 . S
H4351 C4360 0.930 . S
H4352 C4365 0.929 . S
H4353 C4363 0.929 . S
H4354 C4358 0.929 . S
H4355 C4364 0.929 . S
C4356 H4350 0.930 . S
C4356 C4357 1.367 1_554 S
C4356 C4364 1.378 . S
C4357 C4356 1.367 1_556 S
C4357 C4365 1.433 . S
C4358 H4354 0.929 . S
C4358 C4360 1.378 . S
C4358 C4362 1.322 1_556 S
C4359 C4362 1.460 1_556 S
C4359 C4364 1.322 1_556 S
C4359 N4367 1.460 . S
C4360 H4351 0.930 . S
C4360 C4358 1.378 . S
C4360 C4361 1.367 1_556 S
C4361 C4360 1.367 1_554 S
C4361 C4363 1.433 . S
C4362 C4358 1.322 1_554 S
C4362 C4359 1.460 1_554 S
C4362 N4366 1.460 . S
C4363 H4353 0.929 . S
C4363 C4361 1.433 . S
C4363 N4366 1.384 . S
C4364 H4355 0.929 . S
C4364 C4356 1.378 . S
C4364 C4359 1.322 1_554 S
C4365 H4352 0.929 . S
C4365 C4357 1.433 . S
C4365 N4367 1.384 . S
N4366 C4362 1.460 . S
N4366 C4363 1.384 . S
N4367 C4359 1.460 . S
N4367 C4365 1.384 . S
H4368 C4374 0.930 . S
H4369 C4378 0.930 . S
H4370 C4383 0.929 . S
H4371 C4381 0.929 . S
H4372 C4376 0.929 . S
H4373 C4382 0.929 . S
C4374 H4368 0.930 . S
C4374 C4375 1.367 . S
C4374 C4382 1.378 . S
C4375 C4374 1.367 . S
C4375 C4383 1.433 . S
C4376 H4372 0.929 . S
C4376 C4378 1.378 . S
C4376 C4380 1.350 . S
C4377 C4380 1.463 . S
C4377 C4382 1.350 . S
C4377 N4385 1.427 . S
C4378 H4369 0.930 . S
C4378 C4376 1.378 . S
C4378 C4379 1.367 . S
C4379 C4378 1.367 . S
C4379 C4381 1.433 . S
C4380 C4376 1.350 . S
C4380 C4377 1.463 . S
C4380 N4384 1.427 . S
C4381 H4371 0.929 . S
C4381 C4379 1.433 . S
C4381 N4384 1.384 . S
C4382 H4373 0.929 . S
C4382 C4374 1.378 . S
C4382 C4377 1.350 . S
C4383 H4370 0.929 . S
C4383 C4375 1.433 . S
C4383 N4385 1.384 . S
N4384 C4380 1.427 . S
N4384 C4381 1.384 . S
N4385 C4377 1.427 . S
N4385 C4383 1.384 . S
H4386 C4392 0.930 . S
H4387 C4396 0.930 . S
H4388 C4401 0.929 . S
H4389 C4399 0.929 . S
H4390 C4394 0.929 . S
H4391 C4400 0.929 . S
C4392 H4386 0.930 . S
C4392 C4393 1.367 . S
C4392 C4400 1.378 . S
C4393 C4392 1.367 . S
C4393 C4401 1.433 . S
C4394 H4390 0.929 . S
C4394 C4396 1.378 . S
C4394 C4398 1.350 . S
C4395 C4398 1.463 1_545 S
C4395 C4400 1.350 . S
C4395 N4403 1.427 . S
C4396 H4387 0.930 . S
C4396 C4394 1.378 . S
C4396 C4397 1.367 . S
C4397 C4396 1.367 . S
C4397 C4399 1.433 . S
C4398 C4394 1.350 . S
C4398 C4395 1.463 1_565 S
C4398 N4402 1.427 . S
C4399 H4389 0.929 . S
C4399 C4397 1.433 . S
C4399 N4402 1.384 . S
C4400 H4391 0.929 . S
C4400 C4392 1.378 . S
C4400 C4395 1.350 . S
C4401 H4388 0.929 . S
C4401 C4393 1.433 . S
C4401 N4403 1.384 . S
N4402 C4398 1.427 . S
N4402 C4399 1.384 . S
N4403 C4395 1.427 . S
N4403 C4401 1.384 . S
H4404 C4410 0.930 . S
H4405 C4414 0.930 . S
H4406 C4419 0.929 . S
H4407 C4417 0.929 . S
H4408 C4412 0.929 . S
H4409 C4418 0.929 . S
C4410 H4404 0.930 . S
C4410 C4411 1.367 . S
C4410 C4418 1.378 . S
C4411 C4410 1.367 . S
C4411 C4419 1.433 . S
C4412 H4408 0.929 . S
C4412 C4414 1.378 . S
C4412 C4416 1.350 . S
C4413 C4416 1.463 . S
C4413 C4418 1.350 . S
C4413 N4421 1.427 . S
C4414 H4405 0.930 . S
C4414 C4412 1.378 . S
C4414 C4415 1.367 . S
C4415 C4414 1.367 . S
C4415 C4417 1.433 . S
C4416 C4412 1.350 . S
C4416 C4413 1.463 . S
C4416 N4420 1.427 . S
C4417 H4407 0.929 . S
C4417 C4415 1.433 . S
C4417 N4420 1.384 . S
C4418 H4409 0.929 . S
C4418 C4410 1.378 . S
C4418 C4413 1.350 . S
C4419 H4406 0.929 . S
C4419 C4411 1.433 . S
C4419 N4421 1.384 . S
N4420 C4416 1.427 . S
N4420 C4417 1.384 . S
N4421 C4413 1.427 . S
N4421 C4419 1.384 . S
H4422 C4428 0.930 . S
H4423 C4432 0.930 . S
H4424 C4437 0.929 . S
H4425 C4435 0.929 . S
H4426 C4430 0.929 . S
H4427 C4436 0.929 . S
C4428 H4422 0.930 . S
C4428 C4429 1.367 . S
C4428 C4436 1.378 . S
C4429 C4428 1.367 . S
C4429 C4437 1.433 . S
C4430 H4426 0.929 . S
C4430 C4432 1.378 . S
C4430 C4434 1.350 . S
C4431 C4434 1.463 . S
C4431 C4436 1.350 . S
C4431 N4439 1.427 . S
C4432 H4423 0.930 . S
C4432 C4430 1.378 . S
C4432 C4433 1.367 . S
C4433 C4432 1.367 . S
C4433 C4435 1.433 . S
C4434 C4430 1.350 . S
C4434 C4431 1.463 . S
C4434 N4438 1.427 . S
C4435 H4425 0.929 . S
C4435 C4433 1.433 . S
C4435 N4438 1.384 . S
C4436 H4427 0.929 . S
C4436 C4428 1.378 . S
C4436 C4431 1.350 . S
C4437 H4424 0.929 . S
C4437 C4429 1.433 . S
C4437 N4439 1.384 . S
N4438 C4434 1.427 . S
N4438 C4435 1.384 . S
N4439 C4431 1.427 . S
N4439 C4437 1.384 . S
H4440 C4446 0.930 . S
H4441 C4450 0.930 . S
H4442 C4455 0.929 . S
H4443 C4453 0.929 . S
H4444 C4448 0.929 . S
H4445 C4454 0.929 . S
C4446 H4440 0.930 . S
C4446 C4447 1.367 . S
C4446 C4454 1.378 . S
C4447 C4446 1.367 . S
C4447 C4455 1.433 1_655 S
C4448 H4444 0.929 . S
C4448 C4450 1.378 . S
C4448 C4452 1.350 . S
C4449 C4452 1.463 1_654 S
C4449 C4454 1.350 . S
C4449 N4457 1.427 1_655 S
C4450 H4441 0.930 . S
C4450 C4448 1.378 . S
C4450 C4451 1.367 . S
C4451 C4450 1.367 . S
C4451 C4453 1.433 1_455 S
C4452 C4448 1.350 . S
C4452 C4449 1.463 1_456 S
C4452 N4456 1.427 1_455 S
C4453 H4443 0.929 . S
C4453 C4451 1.433 1_655 S
C4453 N4456 1.384 . S
C4454 H4445 0.929 . S
C4454 C4446 1.378 . S
C4454 C4449 1.350 . S
C4455 H4442 0.929 . S
C4455 C4447 1.433 1_455 S
C4455 N4457 1.384 . S
N4456 C4452 1.427 1_655 S
N4456 C4453 1.384 . S
N4457 C4449 1.427 1_455 S
N4457 C4455 1.384 . S
H4458 C4464 0.930 . S
H4459 C4468 0.930 . S
H4460 C4473 0.929 . S
H4461 C4471 0.929 . S
H4462 C4466 0.929 . S
H4463 C4472 0.929 . S
C4464 H4458 0.930 . S
C4464 C4465 1.367 . S
C4464 C4472 1.378 . S
C4465 C4464 1.367 . S
C4465 C4473 1.433 . S
C4466 H4462 0.929 . S
C4466 C4468 1.378 . S
C4466 C4470 1.350 . S
C4467 C4470 1.463 . S
C4467 C4472 1.350 . S
C4467 N4475 1.427 . S
C4468 H4459 0.930 . S
C4468 C4466 1.378 . S
C4468 C4469 1.367 . S
C4469 C4468 1.367 . S
C4469 C4471 1.433 . S
C4470 C4466 1.350 . S
C4470 C4467 1.463 . S
C4470 N4474 1.427 . S
C4471 H4461 0.929 . S
C4471 C4469 1.433 . S
C4471 N4474 1.384 . S
C4472 H4463 0.929 . S
C4472 C4464 1.378 . S
C4472 C4467 1.350 . S
C4473 H4460 0.929 . S
C4473 C4465 1.433 . S
C4473 N4475 1.384 . S
N4474 C4470 1.427 . S
N4474 C4471 1.384 . S
N4475 C4467 1.427 . S
N4475 C4473 1.384 . S
H4476 C4482 0.930 . S
H4477 C4486 0.930 . S
H4478 C4491 0.929 . S
H4479 C4489 0.929 . S
H4480 C4484 0.929 . S
H4481 C4490 0.929 . S
C4482 H4476 0.930 . S
C4482 C4483 1.367 1_455 S
C4482 C4490 1.378 . S
C4483 C4482 1.367 1_655 S
C4483 C4491 1.433 . S
C4484 H4480 0.929 . S
C4484 C4486 1.378 . S
C4484 C4488 1.327 1_655 S
C4485 C4488 1.457 1_655 S
C4485 C4490 1.327 1_655 S
C4485 N4493 1.457 . S
C4486 H4477 0.930 . S
C4486 C4484 1.378 . S
C4486 C4487 1.367 1_655 S
C4487 C4486 1.367 1_455 S
C4487 C4489 1.433 . S
C4488 C4484 1.327 1_455 S
C4488 C4485 1.457 1_455 S
C4488 N4492 1.457 . S
C4489 H4479 0.929 . S
C4489 C4487 1.433 . S
C4489 N4492 1.384 . S
C4490 H4481 0.929 . S
C4490 C4482 1.378 . S
C4490 C4485 1.327 1_455 S
C4491 H4478 0.929 . S
C4491 C4483 1.433 . S
C4491 N4493 1.384 . S
N4492 C4488 1.457 . S
N4492 C4489 1.384 . S
N4493 C4485 1.457 . S
N4493 C4491 1.384 . S
H4494 C4500 0.930 . S
H4495 C4504 0.930 . S
H4496 C4509 0.929 . S
H4497 C4507 0.929 . S
H4498 C4502 0.929 . S
H4499 C4508 0.929 . S
C4500 H4494 0.930 . S
C4500 C4501 1.367 . S
C4500 C4508 1.378 . S
C4501 C4500 1.367 . S
C4501 C4509 1.433 . S
C4502 H4498 0.929 . S
C4502 C4504 1.378 . S
C4502 C4506 1.350 . S
C4503 C4506 1.463 . S
C4503 C4508 1.350 . S
C4503 N4511 1.427 . S
C4504 H4495 0.930 . S
C4504 C4502 1.378 . S
C4504 C4505 1.367 . S
C4505 C4504 1.367 . S
C4505 C4507 1.433 . S
C4506 C4502 1.350 . S
C4506 C4503 1.463 . S
C4506 N4510 1.427 . S
C4507 H4497 0.929 . S
C4507 C4505 1.433 . S
C4507 N4510 1.384 . S
C4508 H4499 0.929 . S
C4508 C4500 1.378 . S
C4508 C4503 1.350 . S
C4509 H4496 0.929 . S
C4509 C4501 1.433 . S
C4509 N4511 1.384 . S
N4510 C4506 1.427 . S
N4510 C4507 1.384 . S
N4511 C4503 1.427 . S
N4511 C4509 1.384 . S
H4512 C4518 0.930 . S
H4513 C4522 0.930 . S
H4514 C4527 0.929 . S
H4515 C4525 0.929 . S
H4516 C4520 0.929 . S
H4517 C4526 0.929 . S
C4518 H4512 0.930 . S
C4518 C4519 1.367 . S
C4518 C4526 1.378 . S
C4519 C4518 1.367 . S
C4519 C4527 1.433 . S
C4520 H4516 0.929 . S
C4520 C4522 1.378 . S
C4520 C4524 1.350 . S
C4521 C4524 1.463 . S
C4521 C4526 1.350 . S
C4521 N4529 1.427 . S
C4522 H4513 0.930 . S
C4522 C4520 1.378 . S
C4522 C4523 1.367 . S
C4523 C4522 1.367 . S
C4523 C4525 1.433 . S
C4524 C4520 1.350 . S
C4524 C4521 1.463 . S
C4524 N4528 1.427 . S
C4525 H4515 0.929 . S
C4525 C4523 1.433 . S
C4525 N4528 1.384 . S
C4526 H4517 0.929 . S
C4526 C4518 1.378 . S
C4526 C4521 1.350 . S
C4527 H4514 0.929 . S
C4527 C4519 1.433 . S
C4527 N4529 1.384 . S
N4528 C4524 1.427 . S
N4528 C4525 1.384 . S
N4529 C4521 1.427 . S
N4529 C4527 1.384 . S
H4530 C4536 0.930 . S
H4531 C4540 0.930 . S
H4532 C4545 0.929 . S
H4533 C4543 0.929 . S
H4534 C4538 0.929 . S
H4535 C4544 0.929 . S
C4536 H4530 0.930 . S
C4536 C4537 1.367 . S
C4536 C4544 1.378 . S
C4537 C4536 1.367 . S
C4537 C4545 1.433 . S
C4538 H4534 0.929 . S
C4538 C4540 1.378 . S
C4538 C4542 1.350 . S
C4539 C4542 1.463 . S
C4539 C4544 1.350 . S
C4539 N4547 1.427 . S
C4540 H4531 0.930 . S
C4540 C4538 1.378 . S
C4540 C4541 1.367 . S
C4541 C4540 1.367 . S
C4541 C4543 1.433 . S
C4542 C4538 1.350 . S
C4542 C4539 1.463 . S
C4542 N4546 1.427 . S
C4543 H4533 0.929 . S
C4543 C4541 1.433 . S
C4543 N4546 1.384 . S
C4544 H4535 0.929 . S
C4544 C4536 1.378 . S
C4544 C4539 1.350 . S
C4545 H4532 0.929 . S
C4545 C4537 1.433 . S
C4545 N4547 1.384 . S
N4546 C4542 1.427 . S
N4546 C4543 1.384 . S
N4547 C4539 1.427 . S
N4547 C4545 1.384 . S
H4548 C4554 0.930 . S
H4549 C4558 0.930 . S
H4550 C4563 0.929 . S
H4551 C4561 0.929 . S
H4552 C4556 0.929 . S
H4553 C4562 0.929 . S
C4554 H4548 0.930 . S
C4554 C4555 1.367 . S
C4554 C4562 1.378 . S
C4555 C4554 1.367 . S
C4555 C4563 1.433 . S
C4556 H4552 0.929 . S
C4556 C4558 1.378 . S
C4556 C4560 1.350 . S
C4557 C4560 1.463 . S
C4557 C4562 1.350 . S
C4557 N4565 1.427 . S
C4558 H4549 0.930 . S
C4558 C4556 1.378 . S
C4558 C4559 1.367 . S
C4559 C4558 1.367 . S
C4559 C4561 1.433 . S
C4560 C4556 1.350 . S
C4560 C4557 1.463 . S
C4560 N4564 1.427 . S
C4561 H4551 0.929 . S
C4561 C4559 1.433 . S
C4561 N4564 1.384 . S
C4562 H4553 0.929 . S
C4562 C4554 1.378 . S
C4562 C4557 1.350 . S
C4563 H4550 0.929 . S
C4563 C4555 1.433 . S
C4563 N4565 1.384 . S
N4564 C4560 1.427 . S
N4564 C4561 1.384 . S
N4565 C4557 1.427 . S
N4565 C4563 1.384 . S
H4566 C4572 0.930 . S
H4567 C4576 0.930 . S
H4568 C4581 0.929 . S
H4569 C4579 0.929 . S
H4570 C4574 0.929 . S
H4571 C4580 0.929 . S
C4572 H4566 0.930 . S
C4572 C4573 1.367 1_545 S
C4572 C4580 1.378 . S
C4573 C4572 1.367 1_565 S
C4573 C4581 1.433 . S
C4574 H4570 0.929 . S
C4574 C4576 1.378 . S
C4574 C4578 1.322 1_565 S
C4575 C4578 1.460 1_565 S
C4575 C4580 1.322 1_565 S
C4575 N4583 1.460 . S
C4576 H4567 0.930 . S
C4576 C4574 1.378 . S
C4576 C4577 1.367 1_565 S
C4577 C4576 1.367 1_545 S
C4577 C4579 1.433 . S
C4578 C4574 1.322 1_545 S
C4578 C4575 1.460 1_545 S
C4578 N4582 1.460 . S
C4579 H4569 0.929 . S
C4579 C4577 1.433 . S
C4579 N4582 1.384 . S
C4580 H4571 0.929 . S
C4580 C4572 1.378 . S
C4580 C4575 1.322 1_545 S
C4581 H4568 0.929 . S
C4581 C4573 1.433 . S
C4581 N4583 1.384 . S
N4582 C4578 1.460 . S
N4582 C4579 1.384 . S
N4583 C4575 1.460 . S
N4583 C4581 1.384 . S
H4584 C4590 0.930 . S
H4585 C4594 0.930 . S
H4586 C4599 0.929 . S
H4587 C4597 0.929 . S
H4588 C4592 0.929 . S
H4589 C4598 0.929 . S
C4590 H4584 0.930 . S
C4590 C4591 1.367 . S
C4590 C4598 1.378 . S
C4591 C4590 1.367 . S
C4591 C4599 1.433 . S
C4592 H4588 0.929 . S
C4592 C4594 1.378 . S
C4592 C4596 1.350 . S
C4593 C4596 1.463 . S
C4593 C4598 1.350 . S
C4593 N4601 1.427 . S
C4594 H4585 0.930 . S
C4594 C4592 1.378 . S
C4594 C4595 1.367 . S
C4595 C4594 1.367 . S
C4595 C4597 1.433 . S
C4596 C4592 1.350 . S
C4596 C4593 1.463 . S
C4596 N4600 1.427 . S
C4597 H4587 0.929 . S
C4597 C4595 1.433 . S
C4597 N4600 1.384 . S
C4598 H4589 0.929 . S
C4598 C4590 1.378 . S
C4598 C4593 1.350 . S
C4599 H4586 0.929 . S
C4599 C4591 1.433 . S
C4599 N4601 1.384 . S
N4600 C4596 1.427 . S
N4600 C4597 1.384 . S
N4601 C4593 1.427 . S
N4601 C4599 1.384 . S
H4602 C4608 0.939 . S
H4603 C4612 0.939 . S
H4604 C4617 0.929 . S
H4605 C4615 0.929 . S
H4606 C4610 0.929 . S
H4607 C4616 0.929 . S
C4608 H4602 0.939 . S
C4608 C4609 1.367 . S
C4608 C4616 1.378 1_565 S
C4609 C4608 1.367 . S
C4609 C4617 1.433 . S
C4610 H4606 0.929 . S
C4610 C4612 1.378 1_565 S
C4610 C4614 1.347 1_565 S
C4611 C4614 1.454 1_565 S
C4611 C4616 1.347 1_565 S
C4611 N4619 1.442 . S
C4612 H4603 0.939 . S
C4612 C4610 1.378 1_545 S
C4612 C4613 1.367 . S
C4613 C4612 1.367 . S
C4613 C4615 1.433 . S
C4614 C4610 1.347 1_545 S
C4614 C4611 1.454 1_545 S
C4614 N4618 1.442 . S
C4615 H4605 0.929 . S
C4615 C4613 1.433 . S
C4615 N4618 1.384 . S
C4616 H4607 0.929 . S
C4616 C4608 1.378 1_545 S
C4616 C4611 1.347 1_545 S
C4617 H4604 0.929 . S
C4617 C4609 1.433 . S
C4617 N4619 1.384 . S
N4618 C4614 1.442 . S
N4618 C4615 1.384 . S
N4619 C4611 1.442 . S
N4619 C4617 1.384 . S
H4620 C4626 0.930 . S
H4621 C4630 0.930 . S
H4622 C4635 0.929 . S
H4623 C4633 0.929 . S
H4624 C4628 0.929 . S
H4625 C4634 0.929 . S
C4626 H4620 0.930 . S
C4626 C4627 1.367 1_554 S
C4626 C4634 1.378 . S
C4627 C4626 1.367 1_556 S
C4627 C4635 1.433 . S
C4628 H4624 0.929 . S
C4628 C4630 1.378 . S
C4628 C4632 1.322 1_556 S
C4629 C4632 1.459 1_566 S
C4629 C4634 1.322 1_556 S
C4629 N4637 1.460 . S
C4630 H4621 0.930 . S
C4630 C4628 1.378 . S
C4630 C4631 1.367 1_556 S
C4631 C4630 1.367 1_554 S
C4631 C4633 1.433 . S
C4632 C4628 1.322 1_554 S
C4632 C4629 1.459 1_544 S
C4632 N4636 1.460 . S
C4633 H4623 0.929 . S
C4633 C4631 1.433 . S
C4633 N4636 1.384 . S
C4634 H4625 0.929 . S
C4634 C4626 1.378 . S
C4634 C4629 1.322 1_554 S
C4635 H4622 0.929 . S
C4635 C4627 1.433 . S
C4635 N4637 1.384 . S
N4636 C4632 1.460 . S
N4636 C4633 1.384 . S
N4637 C4629 1.460 . S
N4637 C4635 1.384 . S
H4638 C4644 0.930 . S
H4639 C4648 0.930 . S
H4640 C4653 0.929 . S
H4641 C4651 0.929 . S
H4642 C4646 0.929 . S
H4643 C4652 0.929 . S
C4644 H4638 0.930 . S
C4644 C4645 1.367 . S
C4644 C4652 1.378 . S
C4645 C4644 1.367 . S
C4645 C4653 1.433 . S
C4646 H4642 0.929 . S
C4646 C4648 1.378 . S
C4646 C4650 1.350 . S
C4647 C4650 1.463 . S
C4647 C4652 1.350 . S
C4647 N4655 1.427 . S
C4648 H4639 0.930 . S
C4648 C4646 1.378 . S
C4648 C4649 1.367 . S
C4649 C4648 1.367 . S
C4649 C4651 1.433 . S
C4650 C4646 1.350 . S
C4650 C4647 1.463 . S
C4650 N4654 1.427 . S
C4651 H4641 0.929 . S
C4651 C4649 1.433 . S
C4651 N4654 1.384 . S
C4652 H4643 0.929 . S
C4652 C4644 1.378 . S
C4652 C4647 1.350 . S
C4653 H4640 0.929 . S
C4653 C4645 1.433 . S
C4653 N4655 1.384 . S
N4654 C4650 1.427 . S
N4654 C4651 1.384 . S
N4655 C4647 1.427 . S
N4655 C4653 1.384 . S
H4656 C4662 0.930 . S
H4657 C4666 0.930 . S
H4658 C4671 0.929 . S
H4659 C4669 0.929 . S
H4660 C4664 0.929 . S
H4661 C4670 0.929 . S
C4662 H4656 0.930 . S
C4662 C4663 1.367 . S
C4662 C4670 1.378 . S
C4663 C4662 1.367 . S
C4663 C4671 1.433 . S
C4664 H4660 0.929 . S
C4664 C4666 1.378 . S
C4664 C4668 1.350 . S
C4665 C4668 1.463 . S
C4665 C4670 1.350 . S
C4665 N4673 1.427 . S
C4666 H4657 0.930 . S
C4666 C4664 1.378 . S
C4666 C4667 1.367 . S
C4667 C4666 1.367 . S
C4667 C4669 1.433 . S
C4668 C4664 1.350 . S
C4668 C4665 1.463 . S
C4668 N4672 1.427 . S
C4669 H4659 0.929 . S
C4669 C4667 1.433 . S
C4669 N4672 1.384 . S
C4670 H4661 0.929 . S
C4670 C4662 1.378 . S
C4670 C4665 1.350 . S
C4671 H4658 0.929 . S
C4671 C4663 1.433 . S
C4671 N4673 1.384 . S
N4672 C4668 1.427 . S
N4672 C4669 1.384 . S
N4673 C4665 1.427 . S
N4673 C4671 1.384 . S
H4674 C4680 0.930 . S
H4675 C4684 0.930 . S
H4676 C4689 0.929 . S
H4677 C4687 0.929 . S
H4678 C4682 0.929 . S
H4679 C4688 0.929 . S
C4680 H4674 0.930 . S
C4680 C4681 1.367 . S
C4680 C4688 1.378 . S
C4681 C4680 1.367 . S
C4681 C4689 1.433 . S
C4682 H4678 0.929 . S
C4682 C4684 1.378 . S
C4682 C4686 1.350 . S
C4683 C4686 1.463 . S
C4683 C4688 1.350 . S
C4683 N4691 1.427 . S
C4684 H4675 0.930 . S
C4684 C4682 1.378 . S
C4684 C4685 1.367 . S
C4685 C4684 1.367 . S
C4685 C4687 1.433 . S
C4686 C4682 1.350 . S
C4686 C4683 1.463 . S
C4686 N4690 1.427 . S
C4687 H4677 0.929 . S
C4687 C4685 1.433 . S
C4687 N4690 1.384 . S
C4688 H4679 0.929 . S
C4688 C4680 1.378 . S
C4688 C4683 1.350 . S
C4689 H4676 0.929 . S
C4689 C4681 1.433 . S
C4689 N4691 1.384 . S
N4690 C4686 1.427 . S
N4690 C4687 1.384 . S
N4691 C4683 1.427 . S
N4691 C4689 1.384 . S
H4692 C4698 0.930 . S
H4693 C4702 0.930 . S
H4694 C4707 0.929 . S
H4695 C4705 0.929 . S
H4696 C4700 0.929 . S
H4697 C4706 0.929 . S
C4698 H4692 0.930 . S
C4698 C4699 1.367 . S
C4698 C4706 1.378 . S
C4699 C4698 1.367 . S
C4699 C4707 1.433 . S
C4700 H4696 0.929 . S
C4700 C4702 1.378 . S
C4700 C4704 1.350 . S
C4701 C4704 1.463 . S
C4701 C4706 1.350 . S
C4701 N4709 1.427 . S
C4702 H4693 0.930 . S
C4702 C4700 1.378 . S
C4702 C4703 1.367 . S
C4703 C4702 1.367 . S
C4703 C4705 1.433 . S
C4704 C4700 1.350 . S
C4704 C4701 1.463 . S
C4704 N4708 1.427 . S
C4705 H4695 0.929 . S
C4705 C4703 1.433 . S
C4705 N4708 1.384 . S
C4706 H4697 0.929 . S
C4706 C4698 1.378 . S
C4706 C4701 1.350 . S
C4707 H4694 0.929 . S
C4707 C4699 1.433 . S
C4707 N4709 1.384 . S
N4708 C4704 1.427 . S
N4708 C4705 1.384 . S
N4709 C4701 1.427 . S
N4709 C4707 1.384 . S
H4710 C4716 0.930 . S
H4711 C4720 0.930 . S
H4712 C4725 0.929 . S
H4713 C4723 0.929 . S
H4714 C4718 0.929 . S
H4715 C4724 0.929 . S
C4716 H4710 0.930 . S
C4716 C4717 1.367 . S
C4716 C4724 1.378 . S
C4717 C4716 1.367 . S
C4717 C4725 1.433 . S
C4718 H4714 0.929 . S
C4718 C4720 1.378 . S
C4718 C4722 1.350 . S
C4719 C4722 1.463 . S
C4719 C4724 1.350 . S
C4719 N4727 1.427 . S
C4720 H4711 0.930 . S
C4720 C4718 1.378 . S
C4720 C4721 1.367 . S
C4721 C4720 1.367 . S
C4721 C4723 1.433 . S
C4722 C4718 1.350 . S
C4722 C4719 1.463 . S
C4722 N4726 1.427 . S
C4723 H4713 0.929 . S
C4723 C4721 1.433 . S
C4723 N4726 1.384 . S
C4724 H4715 0.929 . S
C4724 C4716 1.378 . S
C4724 C4719 1.350 . S
C4725 H4712 0.929 . S
C4725 C4717 1.433 . S
C4725 N4727 1.384 . S
N4726 C4722 1.427 . S
N4726 C4723 1.384 . S
N4727 C4719 1.427 . S
N4727 C4725 1.384 . S
H4728 C4734 0.930 . S
H4729 C4738 0.930 . S
H4730 C4743 0.929 . S
H4731 C4741 0.929 . S
H4732 C4736 0.929 . S
H4733 C4742 0.929 . S
C4734 H4728 0.930 . S
C4734 C4735 1.367 . S
C4734 C4742 1.378 . S
C4735 C4734 1.367 . S
C4735 C4743 1.433 . S
C4736 H4732 0.929 . S
C4736 C4738 1.378 . S
C4736 C4740 1.350 . S
C4737 C4740 1.463 . S
C4737 C4742 1.350 . S
C4737 N4745 1.427 . S
C4738 H4729 0.930 . S
C4738 C4736 1.378 . S
C4738 C4739 1.367 . S
C4739 C4738 1.367 . S
C4739 C4741 1.433 . S
C4740 C4736 1.350 . S
C4740 C4737 1.463 . S
C4740 N4744 1.427 . S
C4741 H4731 0.929 . S
C4741 C4739 1.433 . S
C4741 N4744 1.384 . S
C4742 H4733 0.929 . S
C4742 C4734 1.378 . S
C4742 C4737 1.350 . S
C4743 H4730 0.929 . S
C4743 C4735 1.433 . S
C4743 N4745 1.384 . S
N4744 C4740 1.427 . S
N4744 C4741 1.384 . S
N4745 C4737 1.427 . S
N4745 C4743 1.384 . S
H4746 C4752 0.930 . S
H4747 C4756 0.930 . S
H4748 C4761 0.929 . S
H4749 C4759 0.929 . S
H4750 C4754 0.929 . S
H4751 C4760 0.929 . S
C4752 H4746 0.930 . S
C4752 C4753 1.367 1_556 S
C4752 C4760 1.378 . S
C4753 C4752 1.367 1_554 S
C4753 C4761 1.433 . S
C4754 H4750 0.929 . S
C4754 C4756 1.378 . S
C4754 C4758 1.322 1_554 S
C4755 C4758 1.460 1_564 S
C4755 C4760 1.322 1_554 S
C4755 N4763 1.460 . S
C4756 H4747 0.930 . S
C4756 C4754 1.378 . S
C4756 C4757 1.367 1_554 S
C4757 C4756 1.367 1_556 S
C4757 C4759 1.433 . S
C4758 C4754 1.322 1_556 S
C4758 C4755 1.460 1_546 S
C4758 N4762 1.460 . S
C4759 H4749 0.929 . S
C4759 C4757 1.433 . S
C4759 N4762 1.384 . S
C4760 H4751 0.929 . S
C4760 C4752 1.378 . S
C4760 C4755 1.322 1_556 S
C4761 H4748 0.929 . S
C4761 C4753 1.433 . S
C4761 N4763 1.384 . S
N4762 C4758 1.460 . S
N4762 C4759 1.384 . S
N4763 C4755 1.460 . S
N4763 C4761 1.384 . S
H4764 C4770 0.930 . S
H4765 C4774 0.930 . S
H4766 C4779 0.929 . S
H4767 C4777 0.929 . S
H4768 C4772 0.929 . S
H4769 C4778 0.929 . S
C4770 H4764 0.930 . S
C4770 C4771 1.367 . S
C4770 C4778 1.378 . S
C4771 C4770 1.367 . S
C4771 C4779 1.433 . S
C4772 H4768 0.929 . S
C4772 C4774 1.378 . S
C4772 C4776 1.350 . S
C4773 C4776 1.463 . S
C4773 C4778 1.350 . S
C4773 N4781 1.427 . S
C4774 H4765 0.930 . S
C4774 C4772 1.378 . S
C4774 C4775 1.367 . S
C4775 C4774 1.367 . S
C4775 C4777 1.433 . S
C4776 C4772 1.350 . S
C4776 C4773 1.463 . S
C4776 N4780 1.427 . S
C4777 H4767 0.929 . S
C4777 C4775 1.433 . S
C4777 N4780 1.384 . S
C4778 H4769 0.929 . S
C4778 C4770 1.378 . S
C4778 C4773 1.350 . S
C4779 H4766 0.929 . S
C4779 C4771 1.433 . S
C4779 N4781 1.384 . S
N4780 C4776 1.427 . S
N4780 C4777 1.384 . S
N4781 C4773 1.427 . S
N4781 C4779 1.384 . S
H4782 C4788 0.930 . S
H4783 C4792 0.930 . S
H4784 C4797 0.929 . S
H4785 C4795 0.929 . S
H4786 C4790 0.929 . S
H4787 C4796 0.929 . S
C4788 H4782 0.930 . S
C4788 C4789 1.367 . S
C4788 C4796 1.378 . S
C4789 C4788 1.367 . S
C4789 C4797 1.433 . S
C4790 H4786 0.929 . S
C4790 C4792 1.378 . S
C4790 C4794 1.350 . S
C4791 C4794 1.463 . S
C4791 C4796 1.350 . S
C4791 N4799 1.427 . S
C4792 H4783 0.930 . S
C4792 C4790 1.378 . S
C4792 C4793 1.367 . S
C4793 C4792 1.367 . S
C4793 C4795 1.433 . S
C4794 C4790 1.350 . S
C4794 C4791 1.463 . S
C4794 N4798 1.427 . S
C4795 H4785 0.929 . S
C4795 C4793 1.433 . S
C4795 N4798 1.384 . S
C4796 H4787 0.929 . S
C4796 C4788 1.378 . S
C4796 C4791 1.350 . S
C4797 H4784 0.929 . S
C4797 C4789 1.433 . S
C4797 N4799 1.384 . S
N4798 C4794 1.427 . S
N4798 C4795 1.384 . S
N4799 C4791 1.427 . S
N4799 C4797 1.384 . S
C1351 C9 1.395 . S
C1355 C456 1.464 . S
C1369 C806 1.465 . S
C1373 C23 1.407 . S
C1387 C484 1.465 . S
C1391 C37 1.409 . S
C1405 C51 1.404 . S
C1409 C834 1.464 . S
C1423 C65 1.392 . S
C1427 C512 1.464 . S
C1441 C79 1.406 . S
C1445 C862 1.464 . S
C1459 C93 1.407 . S
C1463 C540 1.465 . S
C1477 C107 1.396 . S
C1481 C890 1.465 . S
C1495 C904 1.464 . S
C1499 C121 1.393 . S
C1513 C1002 1.464 . S
C1517 C135 1.408 . S
C1531 C149 1.392 . S
C1535 C1310 1.464 . S
C1549 C163 1.401 . S
C1553 C988 1.465 . S
C1567 C246 1.465 . S
C1571 C177 1.406 . S
C1585 C191 1.406 . S
C1589 C260 1.465 . S
C1603 C205 1.397 . S
C1607 C274 1.465 . S
C1621 C1296 1.464 . S
C1625 C219 1.392 . S
C1639 C1016 1.464 . S
C1643 C233 1.398 . S
C1657 C247 1.398 . S
C1661 C400 1.464 . S
C1675 C750 1.465 . S
C1679 C261 1.409 . S
C1693 C275 1.409 . S
C1697 C428 1.465 . S
C1711 C442 1.464 . S
C1715 C289 1.399 . S
C1729 C708 1.464 . S
C1733 C303 1.407 . S
C1747 C50 1.465 . S
C1751 C317 1.395 . S
C1765 C22 1.465 . S
C1769 C331 1.403 . S
C1783 C345 1.409 . S
C1787 C120 1.465 . S
C1801 C1142 1.464 . S
C1805 C359 1.406 . S
C1819 C148 1.464 . S
C1823 C373 1.394 . S
C1837 C387 1.408 . S
C1841 C1170 1.464 . S
C1855 C401 1.407 . S
C1859 C176 1.465 . S
C1873 C1198 1.465 . S
C1877 C415 1.401 . S
C1891 C429 1.405 . S
C1895 C204 1.465 . S
C1909 C1226 1.464 . S
C1913 C443 1.393 . S
C1927 C1240 1.464 . S
C1931 C457 1.400 . S
C1945 C471 1.407 . S
C1949 C1338 1.465 . S
C1963 C974 1.464 . S
C1967 C485 1.405 . S
C1981 C1324 1.465 . S
C1985 C499 1.409 . S
C1999 C513 1.394 . S
C2003 C582 1.464 . S
C2017 C596 1.465 . S
C2021 C527 1.409 . S
C2035 C610 1.464 . S
C2039 C541 1.395 . S
C2053 C555 1.401 . S
C2057 C960 1.464 . S
C2071 C680 1.464 . S
C2075 C569 1.396 . S
C2089 C583 1.395 . S
C2093 C64 1.464 . S
C2107 C1086 1.465 . S
C2111 C597 1.395 . S
C2125 C92 1.465 . S
C2129 C611 1.406 . S
C2143 C625 1.408 . S
C2147 C106 1.465 . S
C2161 C1044 1.464 . S
C2165 C639 1.398 . S
C2179 C386 1.464 . S
C2183 C653 1.406 . S
C2197 C358 1.464 . S
C2201 C667 1.407 . S
C2215 C1128 1.464 . S
C2219 C681 1.392 . S
C2233 C134 1.465 . S
C2237 C695 1.407 . S
C2251 C1156 1.464 . S
C2255 C709 1.392 . S
C2269 C723 1.409 . S
C2273 C162 1.465 . S
C2287 C1184 1.464 . S
C2291 C737 1.407 . S
C2305 C751 1.396 . S
C2309 C190 1.465 . S
C2323 C765 1.398 . S
C2327 C1212 1.464 . S
C2341 C779 1.395 . S
C2345 C218 1.464 . S
C2359 C232 1.464 . S
C2363 C793 1.408 . S
C2377 C807 1.404 . S
C2381 C330 1.465 . S
C2395 C821 1.393 . S
C2399 C638 1.464 . S
C2413 C316 1.464 . S
C2417 C835 1.394 . S
C2431 C849 1.402 . S
C2435 C918 1.464 . S
C2449 C932 1.464 . S
C2453 C863 1.393 . S
C2467 C946 1.464 . S
C2471 C877 1.392 . S
C2485 C891 1.396 . S
C2489 C624 1.465 . S
C2503 C905 1.408 . S
C2507 C344 1.465 . S
C2521 C1072 1.465 . S
C2525 C919 1.406 . S
C2539 C933 1.405 . S
C2543 C78 1.465 . S
C2557 C947 1.393 . S
C2561 C1100 1.464 . S
C2575 C1114 1.465 . S
C2579 C961 1.398 . S
C2593 C36 1.464 . S
C2597 C975 1.402 . S
C2611 C989 1.403 . S
C2615 C722 1.464 . S
C2629 C1003 1.409 . S
C2633 C694 1.465 . S
C2647 C792 1.464 . S
C2651 C1017 1.407 . S
C2665 C470 1.464 . S
C2669 C1031 1.404 . S
C2683 C820 1.465 . S
C2687 C1045 1.408 . S
C2701 C1059 1.395 . S
C2705 C498 1.465 . S
C2719 C1073 1.394 . S
C2723 C848 1.464 . S
C2737 C526 1.464 . S
C2741 C1087 1.405 . S
C2755 C876 1.465 . S
C2759 C1101 1.396 . S
C2773 C554 1.465 . S
C2777 C1115 1.403 . S
C2791 C1129 1.407 . S
C2795 C568 1.465 . S
C2809 C666 1.464 . S
C2813 C1143 1.403 . S
C2827 C302 1.465 . S
C2831 C1157 1.402 . S
C2845 C1171 1.397 . S
C2849 C652 1.464 . S
C2863 C1254 1.464 . S
C2867 C1185 1.397 . S
C2881 C1268 1.465 . S
C2885 C1199 1.404 . S
C2899 C1213 1.407 . S
C2903 C1282 1.465 . S
C2917 C1227 1.408 . S
C2921 C288 1.465 . S
C2935 C8 1.464 . S
C2939 C1241 1.406 . S
C2953 C736 1.464 . S
C2957 C1255 1.396 . S
C2971 C1269 1.409 . S
C2975 C414 1.465 . S
C2989 C1283 1.403 . S
C2993 C764 1.464 . S
C3007 C778 1.464 . S
C3011 C1297 1.404 . S
C3025 C372 1.465 . S
C3029 C1311 1.405 . S
C3043 C1058 1.465 . S
C3047 C1325 1.396 . S
C3061 C1030 1.465 . S
C3065 C1339 1.401 . S
C3079 C1225 1.380 . S
C3083 C7 1.361 . S
C3097 C21 1.385 . S
C3101 C1183 1.369 . S
C3115 C35 1.374 . S
C3119 C1197 1.382 . S
C3133 C49 1.375 . S
C3137 C1211 1.364 . S
C3151 C133 1.373 . S
C3155 C63 1.365 . S
C3169 C77 1.365 . S
C3173 C147 1.375 . S
C3187 C91 1.377 . S
C3191 C161 1.363 . S
C3205 C105 1.385 . S
C3209 C119 1.361 . S
C3223 C175 1.371 . S
C3227 C1029 1.367 . S
C3241 C189 1.379 . S
C3245 C1043 1.362 . S
C3259 C203 1.379 . S
C3263 C1057 1.377 . S
C3277 C1015 1.383 . S
C3281 C217 1.372 . S
C3295 C1295 1.377 . S
C3299 C231 1.363 . S
C3313 C245 1.370 . S
C3317 C1337 1.369 . S
C3331 C259 1.363 . S
C3335 C637 1.376 . S
C3349 C1323 1.381 . S
C3353 C273 1.375 . S
C3367 C287 1.371 . S
C3371 C1239 1.384 . S
C3385 C301 1.377 . S
C3389 C595 1.363 . S
C3403 C315 1.374 . S
C3407 C1281 1.381 . S
C3421 C329 1.371 . S
C3425 C1253 1.384 . S
C3439 C889 1.382 . S
C3443 C343 1.361 . S
C3457 C357 1.382 . S
C3461 C847 1.374 . S
C3475 C861 1.362 . S
C3479 C371 1.379 . S
C3493 C385 1.386 . S
C3497 C875 1.365 . S
C3511 C399 1.383 . S
C3515 C469 1.361 . S
C3529 C413 1.372 . S
C3533 C483 1.366 . S
C3547 C497 1.362 . S
C3551 C427 1.386 . S
C3565 C441 1.379 . S
C3569 C455 1.362 . S
C3583 C693 1.364 . S
C3587 C511 1.376 . S
C3601 C707 1.386 . S
C3605 C525 1.365 . S
C3619 C721 1.366 . S
C3623 C539 1.386 . S
C3637 C679 1.384 . S
C3641 C553 1.361 . S
C3655 C567 1.386 . S
C3659 C959 1.363 . S
C3673 C581 1.368 . S
C3677 C1001 1.385 . S
C3691 C987 1.361 . S
C3695 C609 1.384 . S
C3709 C623 1.386 . S
C3713 C903 1.366 . S
C3727 C651 1.364 . S
C3731 C945 1.386 . S
C3745 C665 1.366 . S
C3749 C917 1.386 . S
C3763 C735 1.386 . S
C3767 C805 1.363 . S
C3781 C749 1.382 . S
C3785 C819 1.361 . S
C3799 C763 1.383 . S
C3803 C833 1.372 . S
C3817 C777 1.384 . S
C3821 C791 1.361 . S
C3835 C1309 1.366 . S
C3839 C931 1.386 . S
C3853 C1267 1.373 . S
C3857 C973 1.383 . S
C3871 C1071 1.386 . S
C3875 C1141 1.365 . S
C3889 C1085 1.386 . S
C3893 C1155 1.363 . S
C3907 C1169 1.361 . S
C3911 C1099 1.383 . S
C3925 C1113 1.385 . S
C3929 C1127 1.369 . S
C3943 C370 1.407 . S
C3947 C6 1.390 . S
C3961 C20 1.389 . S
C3965 C720 1.406 . S
C3979 C34 1.398 . S
C3983 C342 1.390 . S
C3997 C692 1.406 . S
C4001 C48 1.389 . S
C4015 C62 1.408 . S
C4019 C426 1.390 . S
C4033 C76 1.399 . S
C4037 C776 1.406 . S
C4051 C90 1.391 . S
C4055 C398 1.408 . S
C4069 C104 1.402 . S
C4073 C748 1.404 . S
C4087 C118 1.405 . S
C4091 C174 1.389 . S
C4105 C188 1.391 . S
C4109 C132 1.408 . S
C4123 C146 1.403 . S
C4127 C202 1.403 . S
C4141 C160 1.392 . S
C4145 C216 1.408 . S
C4159 C230 1.394 . S
C4163 C1280 1.408 . S
C4177 C972 1.389 . S
C4181 C244 1.402 . S
C4195 C314 1.389 . S
C4199 C258 1.403 . S
C4213 C1238 1.403 . S
C4217 C272 1.389 . S
C4231 C1336 1.408 . S
C4235 C286 1.395 . S
C4249 C300 1.408 . S
C4253 C916 1.393 . S
C4267 C1294 1.389 . S
C4271 C328 1.404 . S
C4285 C356 1.390 . S
C4289 C1056 1.407 . S
C4303 C1028 1.406 . S
C4307 C384 1.400 . S
C4321 C412 1.406 . S
C4325 C1112 1.389 . S
C4339 C440 1.407 . S
C4343 C1084 1.399 . S
C4357 C510 1.405 . S
C4361 C454 1.401 . S
C4375 C524 1.408 . S
C4379 C468 1.392 . S
C4393 C538 1.391 . S
C4397 C482 1.397 . S
C4411 C552 1.408 . S
C4415 C496 1.390 . S
C4429 C944 1.392 . S
C4433 C566 1.396 . S
C4447 C1308 1.393 . S
C4451 C580 1.395 . S
C4465 C594 1.402 . S
C4469 C650 1.404 . S
C4483 C608 1.394 . S
C4487 C902 1.408 . S
C4501 C622 1.389 . S
C4505 C1000 1.401 . S
C4519 C636 1.392 . S
C4523 C1252 1.408 . S
C4537 C664 1.408 . S
C4541 C958 1.393 . S
C4555 C1042 1.400 . S
C4559 C678 1.406 . S
C4573 C706 1.401 . S
C4577 C1014 1.405 . S
C4591 C1098 1.391 . S
C4595 C734 1.408 . S
C4609 C1070 1.391 . S
C4613 C762 1.408 . S
C4627 C846 1.407 . S
C4631 C790 1.398 . S
C4645 C804 1.389 . S
C4649 C860 1.406 . S
C4663 C818 1.389 . S
C4667 C874 1.406 . S
C4681 C888 1.397 . S
C4685 C832 1.391 . S
C4699 C986 1.391 . S
C4703 C930 1.397 . S
C4717 C1126 1.389 . S
C4721 C1182 1.400 . S
C4735 C1140 1.404 . S
C4739 C1196 1.389 . S
C4753 C1154 1.405 . S
C4757 C1210 1.401 . S
C4771 C1224 1.408 . S
C4775 C1168 1.393 . S
C4789 C1322 1.390 . S
C4793 C1266 1.400 . S
