# Generated by pormake.
# Topology acs-a, (4)-cn, num edge types: 1
# Building blocks:
#     Node 0, Type 0, BuildingBlock: TATPOV_clean_sbu_0, # of connection points: 4
#     Node 1, Type 0, BuildingBlock: TATPOV_clean_sbu_0, # of connection points: 4
#     Node 2, Type 0, BuildingBlock: TATPOV_clean_sbu_0, # of connection points: 4
#     Node 3, Type 0, BuildingBlock: TATPOV_clean_sbu_0, # of connection points: 4
#     Node 4, Type 0, BuildingBlock: TATPOV_clean_sbu_0, # of connection points: 4
#     Node 5, Type 0, BuildingBlock: TATPOV_clean_sbu_0, # of connection points: 4
#     Node 6, Type 0, BuildingBlock: TATPOV_clean_sbu_0, # of connection points: 4
#     Node 7, Type 0, BuildingBlock: TATPOV_clean_sbu_0, # of connection points: 4
#     Node 8, Type 0, BuildingBlock: TATPOV_clean_sbu_0, # of connection points: 4
#     Node 9, Type 0, BuildingBlock: TATPOV_clean_sbu_0, # of connection points: 4
#     Node 10, Type 0, BuildingBlock: TATPOV_clean_sbu_0, # of connection points: 4
#     Node 11, Type 0, BuildingBlock: TATPOV_clean_sbu_0, # of connection points: 4
#     Edge 12, Type (0, 0), BuildingBlock: KIFKEQ_clean_linker_1, # of connection points: 2
#     Edge 13, Type (0, 0), BuildingBlock: KIFKEQ_clean_linker_1, # of connection points: 2
#     Edge 14, Type (0, 0), BuildingBlock: KIFKEQ_clean_linker_1, # of connection points: 2
#     Edge 15, Type (0, 0), BuildingBlock: KIFKEQ_clean_linker_1, # of connection points: 2
#     Edge 16, Type (0, 0), BuildingBlock: KIFKEQ_clean_linker_1, # of connection points: 2
#     Edge 17, Type (0, 0), BuildingBlock: KIFKEQ_clean_linker_1, # of connection points: 2
#     Edge 18, Type (0, 0), BuildingBlock: KIFKEQ_clean_linker_1, # of connection points: 2
#     Edge 19, Type (0, 0), BuildingBlock: KIFKEQ_clean_linker_1, # of connection points: 2
#     Edge 20, Type (0, 0), BuildingBlock: KIFKEQ_clean_linker_1, # of connection points: 2
#     Edge 21, Type (0, 0), BuildingBlock: KIFKEQ_clean_linker_1, # of connection points: 2
#     Edge 22, Type (0, 0), BuildingBlock: KIFKEQ_clean_linker_1, # of connection points: 2
#     Edge 23, Type (0, 0), BuildingBlock: KIFKEQ_clean_linker_1, # of connection points: 2
#     Edge 24, Type (0, 0), BuildingBlock: KIFKEQ_clean_linker_1, # of connection points: 2
#     Edge 25, Type (0, 0), BuildingBlock: KIFKEQ_clean_linker_1, # of connection points: 2
#     Edge 26, Type (0, 0), BuildingBlock: KIFKEQ_clean_linker_1, # of connection points: 2
#     Edge 27, Type (0, 0), BuildingBlock: KIFKEQ_clean_linker_1, # of connection points: 2
#     Edge 28, Type (0, 0), BuildingBlock: KIFKEQ_clean_linker_1, # of connection points: 2
#     Edge 29, Type (0, 0), BuildingBlock: KIFKEQ_clean_linker_1, # of connection points: 2
#     Edge 30, Type (0, 0), BuildingBlock: KIFKEQ_clean_linker_1, # of connection points: 2
#     Edge 31, Type (0, 0), BuildingBlock: KIFKEQ_clean_linker_1, # of connection points: 2
#     Edge 32, Type (0, 0), BuildingBlock: KIFKEQ_clean_linker_1, # of connection points: 2
#     Edge 33, Type (0, 0), BuildingBlock: KIFKEQ_clean_linker_1, # of connection points: 2
#     Edge 34, Type (0, 0), BuildingBlock: KIFKEQ_clean_linker_1, # of connection points: 2
#     Edge 35, Type (0, 0), BuildingBlock: KIFKEQ_clean_linker_1, # of connection points: 2
# Relax obj value: 0.368
# Max RMSD: 0.178
# Mean RMSD: 0.173
data_MOF--net-acs-a--node1-TATPOV_clean_sbu_0--edge1-KIFKEQ_clean_linker_1
_symmetry_space_group_name_H-M    P1
_symmetry_Int_Tables_number       1
_symmetry_cell_setting            triclinic
loop_
_symmetry_equiv_pos_as_xyz
'x, y, z'
_cell_length_a     47.594662
_cell_length_b     47.583177
_cell_length_c     47.10045
_cell_angle_alpha  89.991926
_cell_angle_beta   90.15029
_cell_angle_gamma 115.04201
loop_
_atom_site_label
_atom_site_type_symbol
_atom_site_fract_x
_atom_site_fract_y
_atom_site_fract_z
_atom_type_partial_charge
Zn0 Zn 0.63965 0.17873 0.12739 0.0
Zn1 Zn 0.59876 0.13112 0.11018 0.0
O2 O 0.63969 0.13625 0.08954 0.0
O3 O 0.67475 0.16784 0.11859 0.0
O4 O 0.56705 0.09156 0.09241 0.0
O5 O 0.6225 0.17258 0.16641 0.0
O6 O 0.59571 0.12376 0.15428 0.0
C7 C 0.66801 0.1501 0.09726 0.0
C8 C 0.60005 0.1934 0.09389 0.0
O9 O 0.58354 0.16471 0.09883 0.0
O10 O 0.62848 0.20532 0.10055 0.0
C11 C 0.56269 0.09203 0.06577 0.0
O12 O 0.57821 0.11791 0.05179 0.0
C13 C 0.60506 0.14499 0.17322 0.0
Zn14 Zn 0.43681 0.61562 0.61687 0.0
Zn15 Zn 0.44268 0.57832 0.58069 0.0
O16 O 0.4634 0.6226 0.56246 0.0
O17 O 0.46703 0.65366 0.59812 0.0
O18 O 0.45329 0.55139 0.55391 0.0
O19 O 0.45133 0.59933 0.64982 0.0
O20 O 0.45802 0.56798 0.61908 0.0
C21 C 0.47264 0.64999 0.57254 0.0
C22 C 0.37879 0.57429 0.58954 0.0
O23 O 0.3952 0.56165 0.57892 0.0
O24 O 0.3912 0.59807 0.60525 0.0
C25 C 0.48109 0.56015 0.54551 0.0
O26 O 0.5021 0.58749 0.55338 0.0
C27 C 0.45984 0.57811 0.64439 0.0
Zn28 Zn 0.78605 0.35733 0.08009 0.0
Zn29 Zn 0.84 0.38437 0.05442 0.0
O30 O 0.81553 0.40989 0.04239 0.0
O31 O 0.76901 0.38378 0.06033 0.0
O32 O 0.88082 0.40815 0.03548 0.0
O33 O 0.80754 0.3702 0.11824 0.0
O34 O 0.85266 0.38825 0.09658 0.0
C35 C 0.78752 0.40598 0.04548 0.0
C36 C 0.79962 0.31588 0.04382 0.0
O37 O 0.82457 0.3397 0.03836 0.0
O38 O 0.78016 0.31751 0.06124 0.0
C39 C 0.88196 0.41984 0.01103 0.0
O40 O 0.85601 0.41412 -0.00264 0.0
C41 C 0.83689 0.38249 0.11937 0.0
Zn42 Zn 0.35889 0.79944 0.60815 0.0
Zn43 Zn 0.38474 0.84872 0.57878 0.0
O44 O 0.33931 0.83153 0.56455 0.0
O45 O 0.31685 0.79725 0.59809 0.0
O46 O 0.40661 0.889 0.55829 0.0
O47 O 0.38034 0.82036 0.64417 0.0
O48 O 0.39287 0.86382 0.62062 0.0
C49 C 0.31477 0.81197 0.5764 0.0
C50 C 0.40006 0.79382 0.5674 0.0
O51 O 0.40778 0.82282 0.56521 0.0
O52 O 0.37765 0.77742 0.58323 0.0
C53 C 0.42071 0.89163 0.53489 0.0
O54 O 0.41948 0.86665 0.52202 0.0
C55 C 0.39185 0.84967 0.64383 0.0
Zn56 Zn 0.61733 0.44575 0.12843 0.0
Zn57 Zn 0.58149 0.44898 0.08839 0.0
O58 O 0.57047 0.40248 0.08527 0.0
O59 O 0.59733 0.39887 0.12218 0.0
O60 O 0.55435 0.45748 0.06014 0.0
O61 O 0.60132 0.46456 0.15822 0.0
O62 O 0.56623 0.46062 0.12621 0.0
C63 C 0.57885 0.38618 0.10175 0.0
C64 C 0.653 0.48133 0.083 0.0
O65 O 0.62598 0.47444 0.07293 0.0
O66 O 0.65594 0.47233 0.10763 0.0
C67 C 0.55913 0.45975 0.03354 0.0
O68 O 0.58229 0.45494 0.0231 0.0
C69 C 0.5767 0.46691 0.1515 0.0
Zn70 Zn 0.16551 0.60691 0.604 0.0
Zn71 Zn 0.11876 0.57526 0.58258 0.0
O72 O 0.14941 0.55431 0.57618 0.0
O73 O 0.17838 0.57318 0.61379 0.0
O74 O 0.07876 0.54684 0.56301 0.0
O75 O 0.14606 0.62285 0.63358 0.0
O76 O 0.10655 0.57841 0.62496 0.0
C77 C 0.17037 0.55439 0.59323 0.0
C78 C 0.16036 0.63515 0.55525 0.0
O79 O 0.13226 0.61723 0.56093 0.0
O80 O 0.1818 0.63163 0.56843 0.0
C81 C 0.07926 0.54067 0.53678 0.0
O82 O 0.10588 0.55252 0.52328 0.0
C83 C 0.1199 0.60226 0.64076 0.0
Zn84 Zn 0.82716 0.31335 0.34937 0.0
Zn85 Zn 0.85654 0.36244 0.37921 0.0
O86 O 0.85349 0.32394 0.4029 0.0
O87 O 0.83299 0.28328 0.37513 0.0
O88 O 0.88705 0.39838 0.40256 0.0
O89 O 0.85349 0.32797 0.31508 0.0
O90 O 0.87556 0.372 0.33839 0.0
C91 C 0.84429 0.29483 0.39893 0.0
C92 C 0.78963 0.34623 0.36745 0.0
O93 O 0.81459 0.36544 0.37918 0.0
O94 O 0.78947 0.32292 0.35419 0.0
C95 C 0.88757 0.39729 0.42956 0.0
O96 O 0.86623 0.37346 0.44265 0.0
C97 C 0.87249 0.35619 0.31574 0.0
Zn98 Zn 0.33991 0.83318 0.8739 0.0
Zn99 Zn 0.38456 0.87106 0.90464 0.0
O100 O 0.39354 0.83215 0.90702 0.0
O101 O 0.35173 0.79857 0.88528 0.0
O102 O 0.41768 0.90367 0.92895 0.0
O103 O 0.35565 0.85682 0.83844 0.0
O104 O 0.39416 0.89038 0.86383 0.0
C105 C 0.37676 0.80457 0.89863 0.0
C106 C 0.31466 0.85359 0.91756 0.0
O107 O 0.34313 0.86547 0.92515 0.0
O108 O 0.30686 0.83944 0.89416 0.0
C109 C 0.41497 0.9047 0.95577 0.0
O110 O 0.39064 0.88331 0.96822 0.0
C111 C 0.38021 0.88158 0.84005 0.0
Zn112 Zn 0.51944 0.33334 0.34278 0.0
Zn113 Zn 0.53351 0.37816 0.38074 0.0
O114 O 0.57697 0.37934 0.37596 0.0
O115 O 0.56568 0.34336 0.34294 0.0
O116 O 0.53811 0.41241 0.40813 0.0
O117 O 0.50231 0.35383 0.31486 0.0
O118 O 0.51769 0.3926 0.3451 0.0
C119 C 0.5854 0.36328 0.35925 0.0
C120 C 0.49005 0.30967 0.39508 0.0
O121 O 0.50471 0.3382 0.40175 0.0
O122 O 0.4913 0.30114 0.36985 0.0
C123 C 0.53454 0.40859 0.43481 0.0
O124 O 0.53003 0.38169 0.44589 0.0
C125 C 0.50574 0.38091 0.32124 0.0
Zn126 Zn 0.18907 0.65683 0.88964 0.0
Zn127 Zn 0.1327 0.62391 0.90902 0.0
O128 O 0.14577 0.66479 0.93237 0.0
O129 O 0.19317 0.69109 0.91604 0.0
O130 O 0.09003 0.59697 0.92244 0.0
O131 O 0.17237 0.65438 0.84975 0.0
O132 O 0.12557 0.62592 0.86596 0.0
C133 C 0.17144 0.68896 0.93254 0.0
C134 C 0.18371 0.60109 0.9165 0.0
O135 O 0.15567 0.59701 0.91955 0.0
O136 O 0.203 0.62512 0.90417 0.0
C137 C 0.08512 0.58927 0.94838 0.0
O138 O 0.10809 0.60091 0.96666 0.0
C139 C 0.14363 0.6389 0.84528 0.0
Zn140 Zn 0.63556 0.21623 0.43077 0.0
Zn141 Zn 0.6075 0.15751 0.44488 0.0
O142 O 0.57855 0.17659 0.46032 0.0
O143 O 0.60364 0.22614 0.45015 0.0
O144 O 0.58388 0.11312 0.45562 0.0
O145 O 0.63071 0.2038 0.38909 0.0
O146 O 0.60767 0.1547 0.40139 0.0
C147 C 0.58058 0.20416 0.46116 0.0
C148 C 0.67376 0.19711 0.46548 0.0
O149 O 0.65076 0.17059 0.46387 0.0
O150 O 0.67267 0.22029 0.45324 0.0
C151 C 0.5761 0.10582 0.48126 0.0
O152 O 0.58547 0.12763 0.50078 0.0
C153 C 0.61764 0.17539 0.38216 0.0
Zn154 Zn 0.35375 0.551 0.83867 0.0
Zn155 Zn 0.38471 0.5426 0.8813 0.0
O156 O 0.3391 0.51915 0.8941 0.0
O157 O 0.31336 0.5254 0.85764 0.0
O158 O 0.40866 0.53207 0.91143 0.0
O159 O 0.37036 0.53106 0.81031 0.0
O160 O 0.40032 0.52873 0.84494 0.0
C161 C 0.31344 0.51473 0.88223 0.0
C162 C 0.3921 0.6079 0.8687 0.0
O163 O 0.39782 0.58954 0.88497 0.0
O164 O 0.37535 0.59749 0.84677 0.0
C165 C 0.43774 0.54124 0.90841 0.0
O166 O 0.45153 0.55903 0.88669 0.0
C167 C 0.39194 0.5244 0.81898 0.0
H168 H 0.63226 0.21409 0.33653 0.0
H169 H 0.59268 0.11682 0.35873 0.0
H170 H 0.62319 0.20043 0.28666 0.0
H171 H 0.58342 0.10313 0.30825 0.0
H172 H 0.6144 0.10493 0.20987 0.0
H173 H 0.61419 0.10831 0.26201 0.0
H174 H 0.57678 0.17644 0.25575 0.0
H175 H 0.57768 0.17349 0.20418 0.0
C176 C 0.62161 0.18975 0.33081 0.0
C177 C 0.61306 0.16658 0.35171 0.0
C178 C 0.61618 0.18191 0.30217 0.0
C179 C 0.60211 0.15068 0.29356 0.0
C180 C 0.59421 0.12737 0.31429 0.0
C181 C 0.59947 0.13525 0.34315 0.0
C182 C 0.60505 0.11965 0.21982 0.0
C183 C 0.59606 0.13897 0.20322 0.0
C184 C 0.60508 0.12175 0.24958 0.0
C185 C 0.59615 0.1432 0.26288 0.0
C186 C 0.58446 0.16025 0.2461 0.0
C187 C 0.58464 0.15832 0.21661 0.0
H188 H 0.44456 0.51629 0.65091 0.0
H189 H 0.49048 0.60498 0.69255 0.0
H190 H 0.43828 0.4902 0.69677 0.0
H191 H 0.48429 0.57935 0.73802 0.0
H192 H 0.45434 0.54069 0.8182 0.0
H193 H 0.4845 0.54374 0.77537 0.0
H194 H 0.39942 0.49334 0.72886 0.0
H195 H 0.36975 0.49038 0.77131 0.0
C196 C 0.4547 0.53011 0.66965 0.0
C197 C 0.46721 0.56261 0.66846 0.0
C198 C 0.45102 0.51519 0.69593 0.0
C199 C 0.45996 0.53269 0.72117 0.0
C200 C 0.47698 0.56503 0.71915 0.0
C201 C 0.48034 0.57985 0.69304 0.0
C202 C 0.44228 0.52899 0.79912 0.0
C203 C 0.40977 0.51607 0.79771 0.0
C204 C 0.45953 0.5308 0.77458 0.0
C205 C 0.44438 0.51953 0.7485 0.0
C206 C 0.41198 0.50237 0.74844 0.0
C207 C 0.39484 0.50088 0.77278 0.0
H208 H 0.81503 0.39496 0.16869 0.0
H209 H 0.89362 0.3844 0.13329 0.0
H210 H 0.83696 0.39908 0.21608 0.0
H211 H 0.91543 0.38795 0.18116 0.0
H212 H 0.89015 0.33148 0.27099 0.0
H213 H 0.89211 0.34779 0.2217 0.0
H214 H 0.88328 0.43026 0.24898 0.0
H215 H 0.88176 0.41411 0.29848 0.0
C216 C 0.83727 0.39402 0.17103 0.0
C217 C 0.85245 0.38902 0.14737 0.0
C218 C 0.85001 0.39673 0.19814 0.0
C219 C 0.87798 0.39397 0.20228 0.0
C220 C 0.89391 0.3903 0.1785 0.0
C221 C 0.88142 0.38824 0.15119 0.0
C222 C 0.89012 0.35381 0.26653 0.0
C223 C 0.88543 0.37136 0.28848 0.0
C224 C 0.89128 0.36318 0.2383 0.0
C225 C 0.8873 0.39001 0.23154 0.0
C226 C 0.88614 0.40934 0.25367 0.0
C227 C 0.88552 0.40021 0.282 0.0
H228 H 0.3514 0.89878 0.7987 0.0
H229 H 0.43841 0.89634 0.82035 0.0
H230 H 0.36529 0.90369 0.74866 0.0
H231 H 0.45232 0.9008 0.76996 0.0
H232 H 0.39243 0.90565 0.65852 0.0
H233 H 0.40049 0.92849 0.70624 0.0
H234 H 0.42272 0.85492 0.73737 0.0
H235 H 0.41425 0.83205 0.69018 0.0
C236 C 0.37421 0.90092 0.79279 0.0
C237 C 0.39382 0.89709 0.81322 0.0
C238 C 0.38221 0.90374 0.76411 0.0
C239 C 0.40968 0.90212 0.75536 0.0
C240 C 0.4309 0.9019 0.77614 0.0
C241 C 0.42309 0.89963 0.80498 0.0
C242 C 0.39983 0.89491 0.67546 0.0
C243 C 0.40226 0.86684 0.67082 0.0
C244 C 0.40447 0.90797 0.70271 0.0
C245 C 0.41228 0.89353 0.72552 0.0
C246 C 0.41714 0.86687 0.72021 0.0
C247 C 0.41194 0.85354 0.69322 0.0
H248 H 0.523 0.44377 0.32213 0.0
H249 H 0.47731 0.36222 0.26994 0.0
H250 H 0.52927 0.47656 0.28063 0.0
H251 H 0.48436 0.39459 0.22866 0.0
H252 H 0.51349 0.44541 0.15356 0.0
H253 H 0.48319 0.43331 0.19727 0.0
H254 H 0.56721 0.48332 0.24544 0.0
H255 H 0.5969 0.49588 0.20204 0.0
C256 C 0.51341 0.43283 0.30202 0.0
C257 C 0.50071 0.40039 0.29908 0.0
C258 C 0.51708 0.45164 0.27819 0.0
C259 C 0.50828 0.4383 0.25107 0.0
C260 C 0.49161 0.40589 0.24905 0.0
C261 C 0.48786 0.38716 0.2728 0.0
C262 C 0.52517 0.45509 0.17338 0.0
C263 C 0.55765 0.47067 0.1746 0.0
C264 C 0.50784 0.44796 0.19849 0.0
C265 C 0.52285 0.45626 0.22502 0.0
C266 C 0.55469 0.47621 0.22557 0.0
C267 C 0.57192 0.48328 0.20058 0.0
H268 H 0.12087 0.65416 0.66467 0.0
H269 H 0.09445 0.55707 0.68101 0.0
H270 H 0.1179 0.66334 0.71522 0.0
H271 H 0.09236 0.56634 0.73199 0.0
H272 H 0.08874 0.59443 0.82453 0.0
H273 H 0.07264 0.58443 0.77461 0.0
H274 H 0.15617 0.66339 0.74982 0.0
H275 H 0.172 0.67335 0.79913 0.0
C276 C 0.11344 0.63459 0.67908 0.0
C277 C 0.10817 0.60498 0.66907 0.0
C278 C 0.11199 0.63987 0.70803 0.0
C279 C 0.10574 0.61575 0.72767 0.0
C280 C 0.09725 0.58542 0.7174 0.0
C281 C 0.09836 0.58006 0.68821 0.0
C282 C 0.10332 0.60992 0.80838 0.0
C283 C 0.13173 0.63461 0.81575 0.0
C284 C 0.09417 0.60409 0.77983 0.0
C285 C 0.11302 0.62317 0.75825 0.0
C286 C 0.14078 0.64852 0.76588 0.0
C287 C 0.15004 0.6541 0.7942 0.0
H288 H 0.53213 0.03267 0.08616 0.0
H289 H 0.54454 0.08777 0.01038 0.0
H290 H 0.49785 0.98647 0.06001 0.0
H291 H 0.50969 0.04202 0.98456 0.0
H292 H 0.46994 0.95056 0.93777 0.0
H293 H 0.50625 -0.00537 0.96487 0.0
H294 H 0.44751 0.96255 0.03872 0.0
H295 H 0.41175 0.91798 0.01185 0.0
C296 C 0.52739 0.03497 0.06399 0.0
C297 C 0.54113 0.06393 0.05037 0.0
C298 C 0.50762 0.0085 0.049 0.0
C299 C 0.50103 0.01039 0.02007 0.0
C300 C 0.51465 0.03946 0.00661 0.0
C301 C 0.5345 0.06582 0.02152 0.0
C302 C 0.46487 0.9528 0.95984 0.0
C303 C 0.43786 0.93076 0.97258 0.0
C304 C 0.4856 0.97822 0.97536 0.0
C305 C 0.47976 0.98239 0.00399 0.0
C306 C 0.45301 0.95998 0.01685 0.0
C307 C 0.43237 0.93446 0.00136 0.0
H308 H 0.44684 0.49841 0.53548 0.0
H309 H 0.53588 0.57397 0.51801 0.0
H310 H 0.46257 0.46297 0.50974 0.0
H311 H 0.55152 0.53837 0.49215 0.0
H312 H 0.54722 0.46833 0.41995 0.0
H313 H 0.53572 0.50593 0.44707 0.0
H314 H 0.50206 0.4408 0.51634 0.0
H315 H 0.51354 0.40316 0.48935 0.0
C316 C 0.46971 0.50749 0.52605 0.0
C317 C 0.49013 0.539 0.52879 0.0
C318 C 0.4788 0.48713 0.51152 0.0
C319 C 0.50834 0.49789 0.49915 0.0
C320 C 0.52858 0.52949 0.50143 0.0
C321 C 0.51964 0.54981 0.51627 0.0
C322 C 0.53772 0.46216 0.44111 0.0
C323 C 0.53112 0.43268 0.45244 0.0
C324 C 0.53123 0.48373 0.45664 0.0
C325 C 0.51772 0.47613 0.48367 0.0
C326 C 0.51208 0.44708 0.49538 0.0
C327 C 0.51888 0.42564 0.47999 0.0
H328 H 0.03687 0.55331 0.91427 0.0
H329 H 0.06479 0.57058 0.00231 0.0
H330 H 0.9882 0.51112 0.92837 0.0
H331 H 0.01553 0.529 0.01653 0.0
H332 H 0.94001 0.43268 0.03102 0.0
H333 H 0.98894 0.47354 0.01527 0.0
H334 H 0.94012 0.50067 0.95112 0.0
H335 H 0.89137 0.45914 0.96624 0.0
C336 C 0.03244 0.54836 0.93669 0.0
C337 C 0.0547 0.56523 0.9572 0.0
C338 C 0.00447 0.52421 0.94477 0.0
C339 C -0.002 0.51657 0.97357 0.0
C340 C 0.02004 0.53389 -0.00588 0.0
C341 C 0.04816 0.55789 0.98601 0.0
C342 C 0.93979 0.44719 0.01336 0.0
C343 C 0.91185 0.44274 -0.00011 0.0
C344 C 0.96779 0.47079 0.00451 0.0
C345 C 0.96842 0.49061 0.98214 0.0
C346 C 0.94052 0.48564 0.96824 0.0
C347 C 0.91255 0.46186 0.97694 0.0
H348 H 0.55598 0.08178 0.53389 0.0
H349 H 0.54681 0.05744 0.44484 0.0
H350 H 0.51776 0.02972 0.54544 0.0
H351 H 0.50798 0.00569 0.45633 0.0
H352 H 0.4635 0.90631 0.49231 0.0
H353 H 0.50171 0.95782 0.47895 0.0
H354 H 0.46267 -0.00118 0.54022 0.0
H355 H 0.42507 0.94739 0.55409 0.0
C356 C 0.54584 0.06533 0.51679 0.0
C357 C 0.55438 0.07375 0.48847 0.0
C358 C 0.52374 0.03557 0.52338 0.0
C359 C 0.50961 0.01366 0.50176 0.0
C360 C 0.51861 0.02193 0.47348 0.0
C361 C 0.54081 0.05164 0.46691 0.0
C362 C 0.46289 0.92634 0.50272 0.0
C363 C 0.44142 0.92278 0.52439 0.0
C364 C 0.48475 0.95587 0.49503 0.0
C365 C 0.48545 0.98239 0.50878 0.0
C366 C 0.4632 0.97882 0.52969 0.0
C367 C 0.44148 0.94934 0.53746 0.0
H368 H 0.41542 0.50024 0.95241 0.0
H369 H 0.49986 0.55629 0.90764 0.0
H370 H 0.44395 0.47924 0.9821 0.0
H371 H 0.5285 0.53581 0.93777 0.0
H372 H 0.56361 0.46856 0.97598 0.0
H373 H 0.5338 0.48791 0.94597 0.0
H374 H 0.48254 0.49439 0.01933 0.0
H375 H 0.51173 0.47442 0.04917 0.0
C376 C 0.44012 0.50831 0.94908 0.0
C377 C 0.45536 0.52993 0.92764 0.0
C378 C 0.4565 0.49633 0.96616 0.0
C379 C 0.48849 0.50574 0.96223 0.0
C380 C 0.50378 0.52767 0.94103 0.0
C381 C 0.4874 0.53961 0.92392 0.0
C382 C 0.54583 0.47392 0.98566 0.0
C383 C 0.54009 0.46997 0.01497 0.0
C384 C 0.52891 0.48523 0.9685 0.0
C385 C 0.5059 0.49287 0.98028 0.0
C386 C 0.49985 0.48843 0.00952 0.0
C387 C 0.51672 0.4771 0.02665 0.0
H388 H 0.89963 0.39724 0.48635 0.0
H389 H 0.93516 0.45014 0.40967 0.0
H390 H 0.94514 0.43264 0.51231 0.0
H391 H 0.98031 0.48615 0.43586 0.0
H392 H 0.01951 0.51627 0.55669 0.0
H393 H 0.97215 0.48391 0.53105 0.0
H394 H 0.02644 0.48698 0.45675 0.0
H395 H 0.07353 0.51995 0.48206 0.0
C396 C 0.91692 0.4167 0.47509 0.0
C397 C 0.91378 0.42071 0.44585 0.0
C398 C 0.94302 0.43714 0.49005 0.0
C399 C 0.96661 0.46222 0.4762 0.0
C400 C 0.96294 0.46677 0.44713 0.0
C401 C 0.9369 0.44624 0.43213 0.0
C402 C 0.02131 0.51007 0.53486 0.0
C403 C 0.05035 0.52072 0.52145 0.0
C404 C -0.00586 0.49139 0.52017 0.0
C405 C -0.00464 0.48282 0.49175 0.0
C406 C 0.02446 0.49353 0.47841 0.0
C407 C 0.05156 0.51228 0.49304 0.0
H408 H 0.62536 0.2438 0.05972 0.0
H409 H 0.54405 0.19112 0.10964 0.0
H410 H 0.60954 0.28624 0.05622 0.0
H411 H 0.52859 0.23411 0.10679 0.0
H412 H 0.57035 0.35717 0.05028 0.0
H413 H 0.56596 0.30459 0.04142 0.0
H414 H 0.56229 0.28801 0.13172 0.0
H415 H 0.56755 0.34054 0.14054 0.0
C416 C 0.60353 0.24091 0.06909 0.0
C417 C 0.58598 0.21431 0.08504 0.0
C418 C 0.59442 0.26515 0.06702 0.0
C419 C 0.56796 0.26349 0.0814 0.0
C420 C 0.54909 0.23589 0.09551 0.0
C421 C 0.55784 0.21128 0.09701 0.0
C422 C 0.56771 0.34192 0.06815 0.0
C423 C 0.56951 0.3529 0.0961 0.0
C424 C 0.56527 0.31194 0.06308 0.0
C425 C 0.56372 0.29228 0.08589 0.0
C426 C 0.56306 0.30252 0.11374 0.0
C427 C 0.56629 0.33264 0.1188 0.0
H428 H 0.3339 0.51466 0.59322 0.0
H429 H 0.34892 0.60799 0.57137 0.0
H430 H 0.27745 0.49772 0.58816 0.0
H431 H 0.29318 0.59099 0.56516 0.0
H432 H 0.19494 0.55292 0.54158 0.0
H433 H 0.24415 0.54919 0.53417 0.0
H434 H 0.24326 0.52096 0.6213 0.0
H435 H 0.19466 0.52566 0.62897 0.0
C436 C 0.32514 0.53126 0.58658 0.0
C437 C 0.34552 0.56261 0.5828 0.0
C438 C 0.29301 0.5216 0.58366 0.0
C439 C 0.28111 0.543 0.57593 0.0
C440 C 0.30178 0.57393 0.57066 0.0
C441 C 0.3336 0.58371 0.57443 0.0
C442 C 0.2044 0.54433 0.5587 0.0
C443 C 0.19112 0.53967 0.58587 0.0
C444 C 0.23266 0.54241 0.55451 0.0
C445 C 0.2475 0.53501 0.57724 0.0
C446 C 0.23216 0.52648 0.6034 0.0
C447 C 0.20434 0.52912 0.60777 0.0
H448 H 0.83188 0.28042 0.04926 0.0
H449 H 0.75018 0.28234 0.01158 0.0
H450 H 0.80744 0.22371 0.04781 0.0
H451 H 0.72536 0.22652 0.0107 0.0
H452 H 0.66629 0.14288 0.03936 0.0
H453 H 0.70985 0.17337 0.00887 0.0
H454 H 0.77097 0.19651 0.08179 0.0
H455 H 0.72803 0.16508 0.11145 0.0
C456 C 0.80935 0.2687 0.03927 0.0
C457 C 0.79251 0.28545 0.03108 0.0
C458 C 0.79511 0.23617 0.0387 0.0
C459 C 0.76372 0.22022 0.03052 0.0
C460 C 0.74929 0.23746 0.01762 0.0
C461 C 0.76349 0.26976 0.01816 0.0
C462 C 0.68937 0.153 0.04849 0.0
C463 C 0.69361 0.15307 0.07801 0.0
C464 C 0.71441 0.17082 0.03104 0.0
C465 C 0.7436 0.18935 0.04313 0.0
C466 C 0.74882 0.18358 0.07155 0.0
C467 C 0.72397 0.16553 0.08883 0.0
H468 H 0.37778 0.73468 0.54857 0.0
H469 H 0.4618 0.81933 0.55332 0.0
H470 H 0.40727 0.70656 0.53355 0.0
H471 H 0.4919 0.79089 0.53831 0.0
H472 H 0.51113 0.70981 0.58488 0.0
H473 H 0.50113 0.75297 0.5684 0.0
H474 H 0.44229 0.69527 0.50187 0.0
H475 H 0.45206 0.6518 0.51878 0.0
C476 C 0.40258 0.74742 0.54567 0.0
C477 C 0.41761 0.77898 0.5527 0.0
C478 C 0.41954 0.73139 0.53663 0.0
C479 C 0.45208 0.74643 0.53481 0.0
C480 C 0.46689 0.77866 0.53957 0.0
C481 C 0.44971 0.7949 0.54821 0.0
C482 C 0.49757 0.70686 0.56568 0.0
C483 C 0.4814 0.67721 0.55379 0.0
C484 C 0.4918 0.7317 0.55615 0.0
C485 C 0.46977 0.72709 0.53462 0.0
C486 C 0.45868 0.69918 0.51908 0.0
C487 C 0.46454 0.6743 0.5286 0.0
H488 H 0.71357 0.51134 0.09865 0.0
H489 H 0.65459 0.47558 0.02527 0.0
H490 H 0.75546 0.50556 0.07424 0.0
H491 H 0.69696 0.47032 0.00038 0.0
H492 H 0.73179 0.39224 0.02151 0.0
H493 H 0.70678 0.42686 0.01646 0.0
H494 H 0.79255 0.50471 0.03913 0.0
H495 H 0.81771 0.46937 0.04409 0.0
C496 C 0.7101 0.50383 0.07669 0.0
C497 C 0.68047 0.49265 0.06431 0.0
C498 C 0.73429 0.50065 0.06251 0.0
C499 C 0.72912 0.48615 0.03577 0.0
C500 C 0.70132 0.48069 0.02134 0.0
C501 C 0.67705 0.48389 0.03557 0.0
C502 C 0.74562 0.41692 0.02429 0.0
C503 C 0.77638 0.42812 0.03377 0.0
C504 C 0.73138 0.43697 0.02111 0.0
C505 C 0.74749 0.46863 0.02789 0.0
C506 C 0.77943 0.48039 0.03407 0.0
C507 C 0.79386 0.46023 0.03685 0.0
H508 H 0.13506 0.67675 0.55887 0.0
H509 H 0.20655 0.65938 0.51696 0.0
H510 H 0.16492 0.73246 0.55165 0.0
H511 H 0.23634 0.71449 0.50975 0.0
H512 H 0.30161 0.80583 0.51962 0.0
H513 H 0.25236 0.7692 0.49927 0.0
H514 H 0.21016 0.75673 0.58223 0.0
H515 H 0.25897 0.79305 0.60216 0.0
C516 C 0.15622 0.6847 0.54657 0.0
C517 C 0.16896 0.66402 0.53902 0.0
C518 C 0.17348 0.71665 0.54262 0.0
C519 C 0.20355 0.72806 0.53106 0.0
C520 C 0.21345 0.70676 0.51894 0.0
C521 C 0.19639 0.675 0.52312 0.0
C522 C 0.28133 0.79646 0.53312 0.0
C523 C 0.28416 0.80153 0.56257 0.0
C524 C 0.25313 0.77536 0.5215 0.0
C525 C 0.22751 0.75927 0.53922 0.0
C526 C 0.22928 0.76844 0.56783 0.0
C527 C 0.25742 0.78919 0.57942 0.0
H528 H 0.7318 0.30482 0.35205 0.0
H529 H 0.78155 0.39774 0.38492 0.0
H530 H 0.68445 0.31206 0.35054 0.0
H531 H 0.73367 0.4053 0.38277 0.0
H532 H 0.63053 0.39039 0.39997 0.0
H533 H 0.68106 0.38837 0.40304 0.0
H534 H 0.6636 0.34073 0.32236 0.0
H535 H 0.61324 0.34202 0.31967 0.0
C536 C 0.7327 0.32692 0.35889 0.0
C537 C 0.76064 0.35081 0.36835 0.0
C538 C 0.70547 0.33115 0.35783 0.0
C539 C 0.7053 0.35948 0.366 0.0
C540 C 0.73299 0.38318 0.37631 0.0
C541 C 0.76043 0.37888 0.37749 0.0
C542 C 0.63771 0.37983 0.38276 0.0
C543 C 0.61766 0.366 0.35976 0.0
C544 C 0.66669 0.37872 0.3845 0.0
C545 C 0.67617 0.36385 0.36321 0.0
C546 C 0.65673 0.35159 0.33954 0.0
C547 C 0.62786 0.35251 0.3379 0.0
H548 H 0.31263 0.84445 0.97523 0.0
H549 H 0.25895 0.85292 0.90467 0.0
H550 H 0.26498 0.81118 -0.00044 0.0
H551 H 0.21191 0.8185 0.92745 0.0
H552 H 0.14416 0.7294 0.93475 0.0
H553 H 0.17133 0.78307 0.95085 0.0
H554 H 0.24246 0.76049 0.98831 0.0
H555 H 0.21441 0.70752 0.97362 0.0
C556 C 0.2906 0.84039 0.96547 0.0
C557 C 0.28939 0.84978 0.93745 0.0
C558 C 0.26314 0.82078 0.97918 0.0
C559 C 0.23453 0.80959 0.96448 0.0
C560 C 0.23323 0.82507 0.93932 0.0
C561 C 0.26049 0.84504 0.92597 0.0
C562 C 0.16467 0.7358 0.94789 0.0
C563 C 0.17778 0.71478 0.95237 0.0
C564 C 0.18065 0.76673 0.95678 0.0
C565 C 0.21045 0.77707 0.96919 0.0
C566 C 0.2202 0.75433 0.9782 0.0
C567 C 0.20408 0.72356 0.96969 0.0
H568 H 0.51841 0.16557 0.46025 0.0
H569 H 0.58401 0.25775 0.48377 0.0
H570 H 0.47693 0.18302 0.45946 0.0
H571 H 0.54354 0.27544 0.48232 0.0
H572 H 0.49189 0.3181 0.453 0.0
H573 H 0.49813 0.28242 0.48673 0.0
H574 H 0.47102 0.21178 0.42156 0.0
H575 H 0.46334 0.24666 0.3887 0.0
C576 C 0.52371 0.18923 0.46639 0.0
C577 C 0.55453 0.21066 0.47104 0.0
C578 C 0.49999 0.19932 0.46577 0.0
C579 C 0.50693 0.23098 0.46959 0.0
C580 C 0.53696 0.25097 0.4789 0.0
C581 C 0.5605 0.24092 0.47947 0.0
C582 C 0.4858 0.29446 0.4463 0.0
C583 C 0.47904 0.28578 0.41769 0.0
C584 C 0.48953 0.27397 0.46565 0.0
C585 C 0.48721 0.24491 0.45638 0.0
C586 C 0.474 0.23422 0.4295 0.0
C587 C 0.46978 0.25449 0.41035 0.0
H588 H 0.23953 0.61135 0.93864 0.0
H589 H 0.15149 0.53786 0.91485 0.0
H590 H 0.2618 0.57426 0.94305 0.0
H591 H 0.17399 0.50015 0.91896 0.0
H592 H 0.25404 0.48932 0.86258 0.0
H593 H 0.21245 0.49825 0.88433 0.0
H594 H 0.26594 0.52758 0.96168 0.0
H595 H 0.30791 0.51895 0.93965 0.0
C596 C 0.2247 0.58699 0.93521 0.0
C597 C 0.19406 0.57748 0.92587 0.0
C598 C 0.23732 0.56556 0.93809 0.0
C599 C 0.21973 0.53417 0.93114 0.0
C600 C 0.18812 0.52418 0.92437 0.0
C601 C 0.17527 0.54571 0.92199 0.0
C602 C 0.25628 0.4961 0.88473 0.0
C603 C 0.28466 0.50467 0.89903 0.0
C604 C 0.23228 0.5011 0.89733 0.0
C605 C 0.23647 0.51484 0.92435 0.0
C606 C 0.26246 0.51771 0.94052 0.0
C607 C 0.28647 0.5126 0.92792 0.0
H608 H 0.71452 0.24768 0.49304 0.0
H609 H 0.70083 0.15625 0.46601 0.0
H610 H 0.76957 0.26415 0.49366 0.0
H611 H 0.75674 0.17207 0.46796 0.0
H612 H 0.82318 0.23185 0.39761 0.0
H613 H 0.78925 0.19836 0.43289 0.0
H614 H 0.82016 0.27455 0.49277 0.0
H615 H 0.85253 0.3089 0.45606 0.0
C616 C 0.72341 0.23062 0.48849 0.0
C617 C 0.70366 0.20124 0.4781 0.0
C618 C 0.75536 0.23998 0.48902 0.0
C619 C 0.76826 0.22013 0.47888 0.0
C620 C 0.7479 0.18868 0.47421 0.0
C621 C 0.71572 0.17936 0.47344 0.0
C622 C 0.82354 0.24137 0.41858 0.0
C623 C 0.83866 0.2735 0.42337 0.0
C624 C 0.804 0.22189 0.43923 0.0
C625 C 0.79962 0.23426 0.46517 0.0
C626 C 0.82099 0.26469 0.47225 0.0
C627 C 0.83996 0.28444 0.45126 0.0
H628 H 0.40648 0.65772 0.83382 0.0
H629 H 0.39671 0.63136 0.92221 0.0
H630 H 0.41076 0.70915 0.84696 0.0
H631 H 0.39987 0.68255 0.93519 0.0
H632 H 0.34215 0.74652 0.91781 0.0
H633 H 0.35476 0.70179 0.91529 0.0
H634 H 0.44543 0.76047 0.88268 0.0
H635 H 0.43322 0.80571 0.88637 0.0
C636 C 0.40604 0.66321 0.85609 0.0
C637 C 0.40123 0.64058 0.87699 0.0
C638 C 0.4086 0.69263 0.86359 0.0
C639 C 0.40564 0.69968 0.89205 0.0
C640 C 0.40241 0.67764 0.91313 0.0
C641 C 0.4007 0.64846 0.90569 0.0
C642 C 0.36514 0.75001 0.91103 0.0
C643 C 0.3868 0.77946 0.90244 0.0
C644 C 0.37236 0.7245 0.90964 0.0
C645 C 0.40106 0.72781 0.89885 0.0
C646 C 0.42325 0.75748 0.89127 0.0
C647 C 0.41632 0.78326 0.89348 0.0
loop_
_geom_bond_atom_site_label_1
_geom_bond_atom_site_label_2
_geom_bond_distance
_geom_bond_site_symmetry_2
_ccdc_geom_bond_type
Zn0 O3 2.031 . S
Zn0 O5 2.049 . S
Zn0 O10 2.067 . S
Zn1 O2 1.962 . S
Zn1 O4 1.986 . S
Zn1 O6 1.996 . S
Zn1 O9 1.943 . S
O2 Zn1 1.962 . S
O2 C7 1.254 . S
O3 Zn0 2.031 . S
O3 C7 1.269 . S
O4 Zn1 1.986 . S
O4 C11 1.262 . S
O5 Zn0 2.049 . S
O5 C13 1.260 . S
O6 Zn1 1.996 . S
O6 C13 1.257 . S
C7 O2 1.254 . S
C7 O3 1.269 . S
C8 O9 1.249 . S
C8 O10 1.270 . S
O9 Zn1 1.943 . S
O9 C8 1.249 . S
O10 Zn0 2.067 . S
O10 C8 1.270 . S
C11 O4 1.262 . S
C11 O12 1.232 . S
O12 C11 1.232 . S
C13 O5 1.260 . S
C13 O6 1.257 . S
Zn14 O17 2.031 . S
Zn14 O19 2.049 . S
Zn14 O24 2.067 . S
Zn15 O16 1.962 . S
Zn15 O18 1.986 . S
Zn15 O20 1.996 . S
Zn15 O23 1.943 . S
O16 Zn15 1.962 . S
O16 C21 1.254 . S
O17 Zn14 2.031 . S
O17 C21 1.269 . S
O18 Zn15 1.986 . S
O18 C25 1.262 . S
O19 Zn14 2.049 . S
O19 C27 1.260 . S
O20 Zn15 1.996 . S
O20 C27 1.257 . S
C21 O16 1.254 . S
C21 O17 1.269 . S
C22 O23 1.249 . S
C22 O24 1.270 . S
O23 Zn15 1.943 . S
O23 C22 1.249 . S
O24 Zn14 2.067 . S
O24 C22 1.270 . S
C25 O18 1.262 . S
C25 O26 1.232 . S
O26 C25 1.232 . S
C27 O19 1.260 . S
C27 O20 1.257 . S
Zn28 O31 2.031 . S
Zn28 O33 2.049 . S
Zn28 O38 2.067 . S
Zn29 O30 1.962 . S
Zn29 O32 1.986 . S
Zn29 O34 1.996 . S
Zn29 O37 1.943 . S
O30 Zn29 1.962 . S
O30 C35 1.254 . S
O31 Zn28 2.031 . S
O31 C35 1.269 . S
O32 Zn29 1.986 . S
O32 C39 1.262 . S
O33 Zn28 2.049 . S
O33 C41 1.260 . S
O34 Zn29 1.996 . S
O34 C41 1.257 . S
C35 O30 1.254 . S
C35 O31 1.269 . S
C36 O37 1.249 . S
C36 O38 1.270 . S
O37 Zn29 1.943 . S
O37 C36 1.249 . S
O38 Zn28 2.067 . S
O38 C36 1.270 . S
C39 O32 1.262 . S
C39 O40 1.232 . S
O40 C39 1.232 . S
C41 O33 1.260 . S
C41 O34 1.257 . S
Zn42 O45 2.031 . S
Zn42 O47 2.049 . S
Zn42 O52 2.067 . S
Zn43 O44 1.962 . S
Zn43 O46 1.986 . S
Zn43 O48 1.996 . S
Zn43 O51 1.943 . S
O44 Zn43 1.962 . S
O44 C49 1.254 . S
O45 Zn42 2.031 . S
O45 C49 1.269 . S
O46 Zn43 1.986 . S
O46 C53 1.262 . S
O47 Zn42 2.049 . S
O47 C55 1.260 . S
O48 Zn43 1.996 . S
O48 C55 1.257 . S
C49 O44 1.254 . S
C49 O45 1.269 . S
C50 O51 1.249 . S
C50 O52 1.270 . S
O51 Zn43 1.943 . S
O51 C50 1.249 . S
O52 Zn42 2.067 . S
O52 C50 1.270 . S
C53 O46 1.262 . S
C53 O54 1.232 . S
O54 C53 1.232 . S
C55 O47 1.260 . S
C55 O48 1.257 . S
Zn56 O59 2.031 . S
Zn56 O61 2.049 . S
Zn56 O66 2.067 . S
Zn57 O58 1.962 . S
Zn57 O60 1.986 . S
Zn57 O62 1.996 . S
Zn57 O65 1.943 . S
O58 Zn57 1.962 . S
O58 C63 1.254 . S
O59 Zn56 2.031 . S
O59 C63 1.269 . S
O60 Zn57 1.986 . S
O60 C67 1.262 . S
O61 Zn56 2.049 . S
O61 C69 1.260 . S
O62 Zn57 1.996 . S
O62 C69 1.257 . S
C63 O58 1.254 . S
C63 O59 1.269 . S
C64 O65 1.249 . S
C64 O66 1.270 . S
O65 Zn57 1.943 . S
O65 C64 1.249 . S
O66 Zn56 2.067 . S
O66 C64 1.270 . S
C67 O60 1.262 . S
C67 O68 1.232 . S
O68 C67 1.232 . S
C69 O61 1.260 . S
C69 O62 1.257 . S
Zn70 O73 2.031 . S
Zn70 O75 2.049 . S
Zn70 O80 2.067 . S
Zn71 O72 1.962 . S
Zn71 O74 1.986 . S
Zn71 O76 1.996 . S
Zn71 O79 1.943 . S
O72 Zn71 1.962 . S
O72 C77 1.254 . S
O73 Zn70 2.031 . S
O73 C77 1.269 . S
O74 Zn71 1.986 . S
O74 C81 1.262 . S
O75 Zn70 2.049 . S
O75 C83 1.260 . S
O76 Zn71 1.996 . S
O76 C83 1.257 . S
C77 O72 1.254 . S
C77 O73 1.269 . S
C78 O79 1.249 . S
C78 O80 1.270 . S
O79 Zn71 1.943 . S
O79 C78 1.249 . S
O80 Zn70 2.067 . S
O80 C78 1.270 . S
C81 O74 1.262 . S
C81 O82 1.232 . S
O82 C81 1.232 . S
C83 O75 1.260 . S
C83 O76 1.257 . S
Zn84 O87 2.031 . S
Zn84 O89 2.049 . S
Zn84 O94 2.067 . S
Zn85 O86 1.962 . S
Zn85 O88 1.986 . S
Zn85 O90 1.996 . S
Zn85 O93 1.943 . S
O86 Zn85 1.962 . S
O86 C91 1.254 . S
O87 Zn84 2.031 . S
O87 C91 1.269 . S
O88 Zn85 1.986 . S
O88 C95 1.262 . S
O89 Zn84 2.049 . S
O89 C97 1.260 . S
O90 Zn85 1.996 . S
O90 C97 1.257 . S
C91 O86 1.254 . S
C91 O87 1.269 . S
C92 O93 1.249 . S
C92 O94 1.270 . S
O93 Zn85 1.943 . S
O93 C92 1.249 . S
O94 Zn84 2.067 . S
O94 C92 1.270 . S
C95 O88 1.262 . S
C95 O96 1.232 . S
O96 C95 1.232 . S
C97 O89 1.260 . S
C97 O90 1.257 . S
Zn98 O101 2.031 . S
Zn98 O103 2.049 . S
Zn98 O108 2.067 . S
Zn99 O100 1.962 . S
Zn99 O102 1.986 . S
Zn99 O104 1.996 . S
Zn99 O107 1.943 . S
O100 Zn99 1.962 . S
O100 C105 1.254 . S
O101 Zn98 2.031 . S
O101 C105 1.269 . S
O102 Zn99 1.986 . S
O102 C109 1.262 . S
O103 Zn98 2.049 . S
O103 C111 1.260 . S
O104 Zn99 1.996 . S
O104 C111 1.257 . S
C105 O100 1.254 . S
C105 O101 1.269 . S
C106 O107 1.249 . S
C106 O108 1.270 . S
O107 Zn99 1.943 . S
O107 C106 1.249 . S
O108 Zn98 2.067 . S
O108 C106 1.270 . S
C109 O102 1.262 . S
C109 O110 1.232 . S
O110 C109 1.232 . S
C111 O103 1.260 . S
C111 O104 1.257 . S
Zn112 O115 2.031 . S
Zn112 O117 2.049 . S
Zn112 O122 2.067 . S
Zn113 O114 1.962 . S
Zn113 O116 1.986 . S
Zn113 O118 1.996 . S
Zn113 O121 1.943 . S
O114 Zn113 1.962 . S
O114 C119 1.254 . S
O115 Zn112 2.031 . S
O115 C119 1.269 . S
O116 Zn113 1.986 . S
O116 C123 1.262 . S
O117 Zn112 2.049 . S
O117 C125 1.260 . S
O118 Zn113 1.996 . S
O118 C125 1.257 . S
C119 O114 1.254 . S
C119 O115 1.269 . S
C120 O121 1.249 . S
C120 O122 1.270 . S
O121 Zn113 1.943 . S
O121 C120 1.249 . S
O122 Zn112 2.067 . S
O122 C120 1.270 . S
C123 O116 1.262 . S
C123 O124 1.232 . S
O124 C123 1.232 . S
C125 O117 1.260 . S
C125 O118 1.257 . S
Zn126 O129 2.031 . S
Zn126 O131 2.049 . S
Zn126 O136 2.067 . S
Zn127 O128 1.962 . S
Zn127 O130 1.986 . S
Zn127 O132 1.996 . S
Zn127 O135 1.943 . S
O128 Zn127 1.962 . S
O128 C133 1.254 . S
O129 Zn126 2.031 . S
O129 C133 1.269 . S
O130 Zn127 1.986 . S
O130 C137 1.262 . S
O131 Zn126 2.049 . S
O131 C139 1.260 . S
O132 Zn127 1.996 . S
O132 C139 1.257 . S
C133 O128 1.254 . S
C133 O129 1.269 . S
C134 O135 1.249 . S
C134 O136 1.270 . S
O135 Zn127 1.943 . S
O135 C134 1.249 . S
O136 Zn126 2.067 . S
O136 C134 1.270 . S
C137 O130 1.262 . S
C137 O138 1.232 . S
O138 C137 1.232 . S
C139 O131 1.260 . S
C139 O132 1.257 . S
Zn140 O143 2.031 . S
Zn140 O145 2.049 . S
Zn140 O150 2.067 . S
Zn141 O142 1.962 . S
Zn141 O144 1.986 . S
Zn141 O146 1.996 . S
Zn141 O149 1.943 . S
O142 Zn141 1.962 . S
O142 C147 1.254 . S
O143 Zn140 2.031 . S
O143 C147 1.269 . S
O144 Zn141 1.986 . S
O144 C151 1.262 . S
O145 Zn140 2.049 . S
O145 C153 1.260 . S
O146 Zn141 1.996 . S
O146 C153 1.257 . S
C147 O142 1.254 . S
C147 O143 1.269 . S
C148 O149 1.249 . S
C148 O150 1.270 . S
O149 Zn141 1.943 . S
O149 C148 1.249 . S
O150 Zn140 2.067 . S
O150 C148 1.270 . S
C151 O144 1.262 . S
C151 O152 1.232 . S
O152 C151 1.232 . S
C153 O145 1.260 . S
C153 O146 1.257 . S
Zn154 O157 2.031 . S
Zn154 O159 2.049 . S
Zn154 O164 2.067 . S
Zn155 O156 1.962 . S
Zn155 O158 1.986 . S
Zn155 O160 1.996 . S
Zn155 O163 1.943 . S
O156 Zn155 1.962 . S
O156 C161 1.254 . S
O157 Zn154 2.031 . S
O157 C161 1.269 . S
O158 Zn155 1.986 . S
O158 C165 1.262 . S
O159 Zn154 2.049 . S
O159 C167 1.260 . S
O160 Zn155 1.996 . S
O160 C167 1.257 . S
C161 O156 1.254 . S
C161 O157 1.269 . S
C162 O163 1.249 . S
C162 O164 1.270 . S
O163 Zn155 1.943 . S
O163 C162 1.249 . S
O164 Zn154 2.067 . S
O164 C162 1.270 . S
C165 O158 1.262 . S
C165 O166 1.232 . S
O166 C165 1.232 . S
C167 O159 1.260 . S
C167 O160 1.257 . S
H168 C176 0.950 . S
H169 C181 0.950 . S
H170 C178 0.950 . S
H171 C180 0.950 . S
H172 C182 0.950 . S
H173 C184 0.950 . S
H174 C186 0.950 . S
H175 C187 0.950 . S
C176 H168 0.950 . S
C176 C177 1.386 . S
C176 C178 1.391 . S
C177 C176 1.386 . S
C177 C181 1.393 . S
C178 H170 0.950 . S
C178 C176 1.391 . S
C178 C179 1.400 . S
C179 C178 1.400 . S
C179 C180 1.398 . S
C179 C185 1.491 . S
C180 H171 0.950 . S
C180 C179 1.398 . S
C180 C181 1.391 . S
C181 H169 0.950 . S
C181 C177 1.393 . S
C181 C180 1.391 . S
C182 H172 0.950 . S
C182 C183 1.386 . S
C182 C184 1.391 . S
C183 C182 1.386 . S
C183 C187 1.393 . S
C184 H173 0.950 . S
C184 C182 1.391 . S
C184 C185 1.400 . S
C185 C179 1.491 . S
C185 C184 1.400 . S
C185 C186 1.398 . S
C186 H174 0.950 . S
C186 C185 1.398 . S
C186 C187 1.391 . S
C187 H175 0.950 . S
C187 C183 1.393 . S
C187 C186 1.391 . S
H188 C196 0.950 . S
H189 C201 0.950 . S
H190 C198 0.950 . S
H191 C200 0.950 . S
H192 C202 0.950 . S
H193 C204 0.950 . S
H194 C206 0.950 . S
H195 C207 0.950 . S
C196 H188 0.950 . S
C196 C197 1.386 . S
C196 C198 1.391 . S
C197 C196 1.386 . S
C197 C201 1.393 . S
C198 H190 0.950 . S
C198 C196 1.391 . S
C198 C199 1.400 . S
C199 C198 1.400 . S
C199 C200 1.398 . S
C199 C205 1.491 . S
C200 H191 0.950 . S
C200 C199 1.398 . S
C200 C201 1.391 . S
C201 H189 0.950 . S
C201 C197 1.393 . S
C201 C200 1.391 . S
C202 H192 0.950 . S
C202 C203 1.386 . S
C202 C204 1.391 . S
C203 C202 1.386 . S
C203 C207 1.393 . S
C204 H193 0.950 . S
C204 C202 1.391 . S
C204 C205 1.400 . S
C205 C199 1.491 . S
C205 C204 1.400 . S
C205 C206 1.398 . S
C206 H194 0.950 . S
C206 C205 1.398 . S
C206 C207 1.391 . S
C207 H195 0.950 . S
C207 C203 1.393 . S
C207 C206 1.391 . S
H208 C216 0.950 . S
H209 C221 0.950 . S
H210 C218 0.950 . S
H211 C220 0.950 . S
H212 C222 0.950 . S
H213 C224 0.950 . S
H214 C226 0.950 . S
H215 C227 0.950 . S
C216 H208 0.950 . S
C216 C217 1.386 . S
C216 C218 1.391 . S
C217 C216 1.386 . S
C217 C221 1.393 . S
C218 H210 0.950 . S
C218 C216 1.391 . S
C218 C219 1.400 . S
C219 C218 1.400 . S
C219 C220 1.398 . S
C219 C225 1.491 . S
C220 H211 0.950 . S
C220 C219 1.398 . S
C220 C221 1.391 . S
C221 H209 0.950 . S
C221 C217 1.393 . S
C221 C220 1.391 . S
C222 H212 0.950 . S
C222 C223 1.386 . S
C222 C224 1.391 . S
C223 C222 1.386 . S
C223 C227 1.393 . S
C224 H213 0.950 . S
C224 C222 1.391 . S
C224 C225 1.400 . S
C225 C219 1.491 . S
C225 C224 1.400 . S
C225 C226 1.398 . S
C226 H214 0.950 . S
C226 C225 1.398 . S
C226 C227 1.391 . S
C227 H215 0.950 . S
C227 C223 1.393 . S
C227 C226 1.391 . S
H228 C236 0.950 . S
H229 C241 0.950 . S
H230 C238 0.950 . S
H231 C240 0.950 . S
H232 C242 0.950 . S
H233 C244 0.950 . S
H234 C246 0.950 . S
H235 C247 0.950 . S
C236 H228 0.950 . S
C236 C237 1.386 . S
C236 C238 1.391 . S
C237 C236 1.386 . S
C237 C241 1.393 . S
C238 H230 0.950 . S
C238 C236 1.391 . S
C238 C239 1.400 . S
C239 C238 1.400 . S
C239 C240 1.398 . S
C239 C245 1.491 . S
C240 H231 0.950 . S
C240 C239 1.398 . S
C240 C241 1.391 . S
C241 H229 0.950 . S
C241 C237 1.393 . S
C241 C240 1.391 . S
C242 H232 0.950 . S
C242 C243 1.386 . S
C242 C244 1.391 . S
C243 C242 1.386 . S
C243 C247 1.393 . S
C244 H233 0.950 . S
C244 C242 1.391 . S
C244 C245 1.400 . S
C245 C239 1.491 . S
C245 C244 1.400 . S
C245 C246 1.398 . S
C246 H234 0.950 . S
C246 C245 1.398 . S
C246 C247 1.391 . S
C247 H235 0.950 . S
C247 C243 1.393 . S
C247 C246 1.391 . S
H248 C256 0.950 . S
H249 C261 0.950 . S
H250 C258 0.950 . S
H251 C260 0.950 . S
H252 C262 0.950 . S
H253 C264 0.950 . S
H254 C266 0.950 . S
H255 C267 0.950 . S
C256 H248 0.950 . S
C256 C257 1.386 . S
C256 C258 1.391 . S
C257 C256 1.386 . S
C257 C261 1.393 . S
C258 H250 0.950 . S
C258 C256 1.391 . S
C258 C259 1.400 . S
C259 C258 1.400 . S
C259 C260 1.398 . S
C259 C265 1.491 . S
C260 H251 0.950 . S
C260 C259 1.398 . S
C260 C261 1.391 . S
C261 H249 0.950 . S
C261 C257 1.393 . S
C261 C260 1.391 . S
C262 H252 0.950 . S
C262 C263 1.386 . S
C262 C264 1.391 . S
C263 C262 1.386 . S
C263 C267 1.393 . S
C264 H253 0.950 . S
C264 C262 1.391 . S
C264 C265 1.400 . S
C265 C259 1.491 . S
C265 C264 1.400 . S
C265 C266 1.398 . S
C266 H254 0.950 . S
C266 C265 1.398 . S
C266 C267 1.391 . S
C267 H255 0.950 . S
C267 C263 1.393 . S
C267 C266 1.391 . S
H268 C276 0.950 . S
H269 C281 0.950 . S
H270 C278 0.950 . S
H271 C280 0.950 . S
H272 C282 0.950 . S
H273 C284 0.950 . S
H274 C286 0.950 . S
H275 C287 0.950 . S
C276 H268 0.950 . S
C276 C277 1.386 . S
C276 C278 1.391 . S
C277 C276 1.386 . S
C277 C281 1.393 . S
C278 H270 0.950 . S
C278 C276 1.391 . S
C278 C279 1.400 . S
C279 C278 1.400 . S
C279 C280 1.398 . S
C279 C285 1.491 . S
C280 H271 0.950 . S
C280 C279 1.398 . S
C280 C281 1.391 . S
C281 H269 0.950 . S
C281 C277 1.393 . S
C281 C280 1.391 . S
C282 H272 0.950 . S
C282 C283 1.386 . S
C282 C284 1.391 . S
C283 C282 1.386 . S
C283 C287 1.393 . S
C284 H273 0.950 . S
C284 C282 1.391 . S
C284 C285 1.400 . S
C285 C279 1.491 . S
C285 C284 1.400 . S
C285 C286 1.398 . S
C286 H274 0.950 . S
C286 C285 1.398 . S
C286 C287 1.391 . S
C287 H275 0.950 . S
C287 C283 1.393 . S
C287 C286 1.391 . S
H288 C296 0.950 . S
H289 C301 0.950 . S
H290 C298 0.950 . S
H291 C300 0.950 . S
H292 C302 0.950 . S
H293 C304 0.950 . S
H294 C306 0.950 . S
H295 C307 0.950 . S
C296 H288 0.950 . S
C296 C297 1.386 . S
C296 C298 1.391 . S
C297 C296 1.386 . S
C297 C301 1.393 . S
C298 H290 0.950 . S
C298 C296 1.391 . S
C298 C299 1.400 . S
C299 C298 1.400 . S
C299 C300 1.398 1_554 S
C299 C305 1.491 1_544 S
C300 H291 0.950 . S
C300 C299 1.398 1_556 S
C300 C301 1.391 1_556 S
C301 H289 0.950 . S
C301 C297 1.393 . S
C301 C300 1.391 1_554 S
C302 H292 0.950 . S
C302 C303 1.386 . S
C302 C304 1.391 . S
C303 C302 1.386 . S
C303 C307 1.393 . S
C304 H293 0.950 . S
C304 C302 1.391 . S
C304 C305 1.400 . S
C305 C299 1.491 1_566 S
C305 C304 1.400 . S
C305 C306 1.398 1_556 S
C306 H294 0.950 . S
C306 C305 1.398 1_554 S
C306 C307 1.391 1_554 S
C307 H295 0.950 . S
C307 C303 1.393 . S
C307 C306 1.391 1_556 S
H308 C316 0.950 . S
H309 C321 0.950 . S
H310 C318 0.950 . S
H311 C320 0.950 . S
H312 C322 0.950 . S
H313 C324 0.950 . S
H314 C326 0.950 . S
H315 C327 0.950 . S
C316 H308 0.950 . S
C316 C317 1.386 . S
C316 C318 1.391 . S
C317 C316 1.386 . S
C317 C321 1.393 . S
C318 H310 0.950 . S
C318 C316 1.391 . S
C318 C319 1.400 . S
C319 C318 1.400 . S
C319 C320 1.398 . S
C319 C325 1.491 . S
C320 H311 0.950 . S
C320 C319 1.398 . S
C320 C321 1.391 . S
C321 H309 0.950 . S
C321 C317 1.393 . S
C321 C320 1.391 . S
C322 H312 0.950 . S
C322 C323 1.386 . S
C322 C324 1.391 . S
C323 C322 1.386 . S
C323 C327 1.393 . S
C324 H313 0.950 . S
C324 C322 1.391 . S
C324 C325 1.400 . S
C325 C319 1.491 . S
C325 C324 1.400 . S
C325 C326 1.398 . S
C326 H314 0.950 . S
C326 C325 1.398 . S
C326 C327 1.391 . S
C327 H315 0.950 . S
C327 C323 1.393 . S
C327 C326 1.391 . S
H328 C336 0.950 . S
H329 C341 0.950 1_554 S
H330 C338 0.964 . S
H331 C340 0.950 . S
H332 C342 0.950 . S
H333 C344 0.950 . S
H334 C346 0.950 . S
H335 C347 0.950 1_556 S
C336 H328 0.950 . S
C336 C337 1.386 . S
C336 C338 1.391 . S
C337 C336 1.386 . S
C337 C341 1.393 . S
C338 H330 0.964 . S
C338 C336 1.391 . S
C338 C339 1.400 . S
C339 C338 1.400 . S
C339 C340 1.398 1_556 S
C339 C345 1.491 1_456 S
C340 H331 0.950 . S
C340 C339 1.398 1_554 S
C340 C341 1.391 1_554 S
C341 H329 0.950 1_556 S
C341 C337 1.393 . S
C341 C340 1.391 1_556 S
C342 H332 0.950 . S
C342 C343 1.386 . S
C342 C344 1.391 . S
C343 C342 1.386 . S
C343 C347 1.393 . S
C344 H333 0.950 . S
C344 C342 1.391 . S
C344 C345 1.400 . S
C345 C339 1.491 1_654 S
C345 C344 1.400 . S
C345 C346 1.398 1_554 S
C346 H334 0.950 . S
C346 C345 1.398 1_556 S
C346 C347 1.391 1_556 S
C347 H335 0.950 1_554 S
C347 C343 1.393 . S
C347 C346 1.391 1_554 S
H348 C356 0.950 . S
H349 C361 0.950 . S
H350 C358 0.950 . S
H351 C360 0.950 . S
H352 C362 0.950 . S
H353 C364 0.950 . S
H354 C366 0.950 . S
H355 C367 0.950 . S
C356 H348 0.950 . S
C356 C357 1.386 . S
C356 C358 1.391 . S
C357 C356 1.386 . S
C357 C361 1.393 . S
C358 H350 0.950 . S
C358 C356 1.391 . S
C358 C359 1.400 . S
C359 C358 1.400 . S
C359 C360 1.398 . S
C359 C365 1.491 1_545 S
C360 H351 0.950 . S
C360 C359 1.398 . S
C360 C361 1.391 . S
C361 H349 0.950 . S
C361 C357 1.393 . S
C361 C360 1.391 . S
C362 H352 0.950 . S
C362 C363 1.386 . S
C362 C364 1.391 . S
C363 C362 1.386 . S
C363 C367 1.393 . S
C364 H353 0.950 . S
C364 C362 1.391 . S
C364 C365 1.400 . S
C365 C359 1.491 1_565 S
C365 C364 1.400 . S
C365 C366 1.398 . S
C366 H354 0.950 . S
C366 C365 1.398 . S
C366 C367 1.391 . S
C367 H355 0.950 . S
C367 C363 1.393 . S
C367 C366 1.391 . S
H368 C376 0.950 . S
H369 C381 0.950 . S
H370 C378 0.950 . S
H371 C380 0.950 . S
H372 C382 0.950 . S
H373 C384 0.950 . S
H374 C386 0.950 . S
H375 C387 0.950 . S
C376 H368 0.950 . S
C376 C377 1.386 . S
C376 C378 1.391 . S
C377 C376 1.386 . S
C377 C381 1.393 . S
C378 H370 0.950 . S
C378 C376 1.391 . S
C378 C379 1.400 . S
C379 C378 1.400 . S
C379 C380 1.398 . S
C379 C385 1.491 1_556 S
C380 H371 0.950 . S
C380 C379 1.398 . S
C380 C381 1.391 . S
C381 H369 0.950 . S
C381 C377 1.393 . S
C381 C380 1.391 . S
C382 H372 0.950 . S
C382 C383 1.386 . S
C382 C384 1.391 . S
C383 C382 1.386 . S
C383 C387 1.393 . S
C384 H373 0.950 . S
C384 C382 1.391 . S
C384 C385 1.400 . S
C385 C379 1.491 1_554 S
C385 C384 1.400 . S
C385 C386 1.398 . S
C386 H374 0.950 . S
C386 C385 1.398 . S
C386 C387 1.391 . S
C387 H375 0.950 . S
C387 C383 1.393 . S
C387 C386 1.391 . S
H388 C396 0.950 . S
H389 C401 0.950 . S
H390 C398 0.950 . S
H391 C400 0.950 . S
H392 C402 0.950 . S
H393 C404 0.950 . S
H394 C406 0.950 . S
H395 C407 0.950 . S
C396 H388 0.950 . S
C396 C397 1.386 . S
C396 C398 1.391 . S
C397 C396 1.386 . S
C397 C401 1.393 . S
C398 H390 0.950 . S
C398 C396 1.391 . S
C398 C399 1.400 . S
C399 C398 1.400 . S
C399 C400 1.398 . S
C399 C405 1.491 1_655 S
C400 H391 0.950 . S
C400 C399 1.398 . S
C400 C401 1.391 . S
C401 H389 0.950 . S
C401 C397 1.393 . S
C401 C400 1.391 . S
C402 H392 0.950 . S
C402 C403 1.386 . S
C402 C404 1.391 . S
C403 C402 1.386 . S
C403 C407 1.393 . S
C404 H393 0.950 . S
C404 C402 1.391 . S
C404 C405 1.400 . S
C405 C399 1.491 1_455 S
C405 C404 1.400 . S
C405 C406 1.398 . S
C406 H394 0.950 . S
C406 C405 1.398 . S
C406 C407 1.391 . S
C407 H395 0.950 . S
C407 C403 1.393 . S
C407 C406 1.391 . S
H408 C416 0.950 . S
H409 C421 0.950 . S
H410 C418 0.950 . S
H411 C420 0.950 . S
H412 C422 0.950 . S
H413 C424 0.950 . S
H414 C426 0.950 . S
H415 C427 0.950 . S
C416 H408 0.950 . S
C416 C417 1.386 . S
C416 C418 1.391 . S
C417 C416 1.386 . S
C417 C421 1.393 . S
C418 H410 0.950 . S
C418 C416 1.391 . S
C418 C419 1.400 . S
C419 C418 1.400 . S
C419 C420 1.398 . S
C419 C425 1.491 . S
C420 H411 0.950 . S
C420 C419 1.398 . S
C420 C421 1.391 . S
C421 H409 0.950 . S
C421 C417 1.393 . S
C421 C420 1.391 . S
C422 H412 0.950 . S
C422 C423 1.386 . S
C422 C424 1.391 . S
C423 C422 1.386 . S
C423 C427 1.393 . S
C424 H413 0.950 . S
C424 C422 1.391 . S
C424 C425 1.400 . S
C425 C419 1.491 . S
C425 C424 1.400 . S
C425 C426 1.398 . S
C426 H414 0.950 . S
C426 C425 1.398 . S
C426 C427 1.391 . S
C427 H415 0.950 . S
C427 C423 1.393 . S
C427 C426 1.391 . S
H428 C436 0.950 . S
H429 C441 0.950 . S
H430 C438 0.950 . S
H431 C440 0.950 . S
H432 C442 0.950 . S
H433 C444 0.950 . S
H434 C446 0.950 . S
H435 C447 0.950 . S
C436 H428 0.950 . S
C436 C437 1.386 . S
C436 C438 1.391 . S
C437 C436 1.386 . S
C437 C441 1.393 . S
C438 H430 0.950 . S
C438 C436 1.391 . S
C438 C439 1.400 . S
C439 C438 1.400 . S
C439 C440 1.398 . S
C439 C445 1.491 . S
C440 H431 0.950 . S
C440 C439 1.398 . S
C440 C441 1.391 . S
C441 H429 0.950 . S
C441 C437 1.393 . S
C441 C440 1.391 . S
C442 H432 0.950 . S
C442 C443 1.386 . S
C442 C444 1.391 . S
C443 C442 1.386 . S
C443 C447 1.393 . S
C444 H433 0.950 . S
C444 C442 1.391 . S
C444 C445 1.400 . S
C445 C439 1.491 . S
C445 C444 1.400 . S
C445 C446 1.398 . S
C446 H434 0.950 . S
C446 C445 1.398 . S
C446 C447 1.391 . S
C447 H435 0.950 . S
C447 C443 1.393 . S
C447 C446 1.391 . S
H448 C456 0.950 . S
H449 C461 0.950 . S
H450 C458 0.950 . S
H451 C460 0.950 . S
H452 C462 0.950 . S
H453 C464 0.950 . S
H454 C466 0.950 . S
H455 C467 0.950 . S
C456 H448 0.950 . S
C456 C457 1.386 . S
C456 C458 1.391 . S
C457 C456 1.386 . S
C457 C461 1.393 . S
C458 H450 0.950 . S
C458 C456 1.391 . S
C458 C459 1.400 . S
C459 C458 1.400 . S
C459 C460 1.398 . S
C459 C465 1.491 . S
C460 H451 0.950 . S
C460 C459 1.398 . S
C460 C461 1.391 . S
C461 H449 0.950 . S
C461 C457 1.393 . S
C461 C460 1.391 . S
C462 H452 0.950 . S
C462 C463 1.386 . S
C462 C464 1.391 . S
C463 C462 1.386 . S
C463 C467 1.393 . S
C464 H453 0.950 . S
C464 C462 1.391 . S
C464 C465 1.400 . S
C465 C459 1.491 . S
C465 C464 1.400 . S
C465 C466 1.398 . S
C466 H454 0.950 . S
C466 C465 1.398 . S
C466 C467 1.391 . S
C467 H455 0.950 . S
C467 C463 1.393 . S
C467 C466 1.391 . S
H468 C476 0.950 . S
H469 C481 0.950 . S
H470 C478 0.950 . S
H471 C480 0.950 . S
H472 C482 0.950 . S
H473 C484 0.950 . S
H474 C486 0.950 . S
H475 C487 0.950 . S
C476 H468 0.950 . S
C476 C477 1.386 . S
C476 C478 1.391 . S
C477 C476 1.386 . S
C477 C481 1.393 . S
C478 H470 0.950 . S
C478 C476 1.391 . S
C478 C479 1.400 . S
C479 C478 1.400 . S
C479 C480 1.398 . S
C479 C485 1.491 . S
C480 H471 0.950 . S
C480 C479 1.398 . S
C480 C481 1.391 . S
C481 H469 0.950 . S
C481 C477 1.393 . S
C481 C480 1.391 . S
C482 H472 0.950 . S
C482 C483 1.386 . S
C482 C484 1.391 . S
C483 C482 1.386 . S
C483 C487 1.393 . S
C484 H473 0.950 . S
C484 C482 1.391 . S
C484 C485 1.400 . S
C485 C479 1.491 . S
C485 C484 1.400 . S
C485 C486 1.398 . S
C486 H474 0.950 . S
C486 C485 1.398 . S
C486 C487 1.391 . S
C487 H475 0.950 . S
C487 C483 1.393 . S
C487 C486 1.391 . S
H488 C496 0.950 . S
H489 C501 0.950 . S
H490 C498 0.950 . S
H491 C500 0.950 . S
H492 C502 0.950 . S
H493 C504 0.950 . S
H494 C506 0.950 . S
H495 C507 0.950 . S
C496 H488 0.950 . S
C496 C497 1.386 . S
C496 C498 1.391 . S
C497 C496 1.386 . S
C497 C501 1.393 . S
C498 H490 0.950 . S
C498 C496 1.391 . S
C498 C499 1.400 . S
C499 C498 1.400 . S
C499 C500 1.398 . S
C499 C505 1.491 . S
C500 H491 0.950 . S
C500 C499 1.398 . S
C500 C501 1.391 . S
C501 H489 0.950 . S
C501 C497 1.393 . S
C501 C500 1.391 . S
C502 H492 0.950 . S
C502 C503 1.386 . S
C502 C504 1.391 . S
C503 C502 1.386 . S
C503 C507 1.393 . S
C504 H493 0.950 . S
C504 C502 1.391 . S
C504 C505 1.400 . S
C505 C499 1.491 . S
C505 C504 1.400 . S
C505 C506 1.398 . S
C506 H494 0.950 . S
C506 C505 1.398 . S
C506 C507 1.391 . S
C507 H495 0.950 . S
C507 C503 1.393 . S
C507 C506 1.391 . S
H508 C516 0.950 . S
H509 C521 0.950 . S
H510 C518 0.950 . S
H511 C520 0.950 . S
H512 C522 0.950 . S
H513 C524 0.950 . S
H514 C526 0.950 . S
H515 C527 0.950 . S
C516 H508 0.950 . S
C516 C517 1.386 . S
C516 C518 1.391 . S
C517 C516 1.386 . S
C517 C521 1.393 . S
C518 H510 0.950 . S
C518 C516 1.391 . S
C518 C519 1.400 . S
C519 C518 1.400 . S
C519 C520 1.398 . S
C519 C525 1.491 . S
C520 H511 0.950 . S
C520 C519 1.398 . S
C520 C521 1.391 . S
C521 H509 0.950 . S
C521 C517 1.393 . S
C521 C520 1.391 . S
C522 H512 0.950 . S
C522 C523 1.386 . S
C522 C524 1.391 . S
C523 C522 1.386 . S
C523 C527 1.393 . S
C524 H513 0.950 . S
C524 C522 1.391 . S
C524 C525 1.400 . S
C525 C519 1.491 . S
C525 C524 1.400 . S
C525 C526 1.398 . S
C526 H514 0.950 . S
C526 C525 1.398 . S
C526 C527 1.391 . S
C527 H515 0.950 . S
C527 C523 1.393 . S
C527 C526 1.391 . S
H528 C536 0.950 . S
H529 C541 0.950 . S
H530 C538 0.950 . S
H531 C540 0.950 . S
H532 C542 0.950 . S
H533 C544 0.950 . S
H534 C546 0.950 . S
H535 C547 0.950 . S
C536 H528 0.950 . S
C536 C537 1.386 . S
C536 C538 1.391 . S
C537 C536 1.386 . S
C537 C541 1.393 . S
C538 H530 0.950 . S
C538 C536 1.391 . S
C538 C539 1.400 . S
C539 C538 1.400 . S
C539 C540 1.398 . S
C539 C545 1.491 . S
C540 H531 0.950 . S
C540 C539 1.398 . S
C540 C541 1.391 . S
C541 H529 0.950 . S
C541 C537 1.393 . S
C541 C540 1.391 . S
C542 H532 0.950 . S
C542 C543 1.386 . S
C542 C544 1.391 . S
C543 C542 1.386 . S
C543 C547 1.393 . S
C544 H533 0.950 . S
C544 C542 1.391 . S
C544 C545 1.400 . S
C545 C539 1.491 . S
C545 C544 1.400 . S
C545 C546 1.398 . S
C546 H534 0.950 . S
C546 C545 1.398 . S
C546 C547 1.391 . S
C547 H535 0.950 . S
C547 C543 1.393 . S
C547 C546 1.391 . S
H548 C556 0.950 . S
H549 C561 0.950 . S
H550 C558 0.950 . S
H551 C560 0.950 . S
H552 C562 0.950 . S
H553 C564 0.950 . S
H554 C566 0.950 . S
H555 C567 0.950 . S
C556 H548 0.950 . S
C556 C557 1.386 . S
C556 C558 1.391 . S
C557 C556 1.386 . S
C557 C561 1.393 . S
C558 H550 0.950 . S
C558 C556 1.391 . S
C558 C559 1.400 . S
C559 C558 1.400 . S
C559 C560 1.398 . S
C559 C565 1.491 . S
C560 H551 0.950 . S
C560 C559 1.398 . S
C560 C561 1.391 . S
C561 H549 0.950 . S
C561 C557 1.393 . S
C561 C560 1.391 . S
C562 H552 0.950 . S
C562 C563 1.386 . S
C562 C564 1.391 . S
C563 C562 1.386 . S
C563 C567 1.393 . S
C564 H553 0.950 . S
C564 C562 1.391 . S
C564 C565 1.400 . S
C565 C559 1.491 . S
C565 C564 1.400 . S
C565 C566 1.398 . S
C566 H554 0.950 . S
C566 C565 1.398 . S
C566 C567 1.391 . S
C567 H555 0.950 . S
C567 C563 1.393 . S
C567 C566 1.391 . S
H568 C576 0.950 . S
H569 C581 0.950 . S
H570 C578 0.950 . S
H571 C580 0.950 . S
H572 C582 0.950 . S
H573 C584 0.950 . S
H574 C586 0.950 . S
H575 C587 0.950 . S
C576 H568 0.950 . S
C576 C577 1.386 . S
C576 C578 1.391 . S
C577 C576 1.386 . S
C577 C581 1.393 . S
C578 H570 0.950 . S
C578 C576 1.391 . S
C578 C579 1.400 . S
C579 C578 1.400 . S
C579 C580 1.398 . S
C579 C585 1.491 . S
C580 H571 0.950 . S
C580 C579 1.398 . S
C580 C581 1.391 . S
C581 H569 0.950 . S
C581 C577 1.393 . S
C581 C580 1.391 . S
C582 H572 0.950 . S
C582 C583 1.386 . S
C582 C584 1.391 . S
C583 C582 1.386 . S
C583 C587 1.393 . S
C584 H573 0.950 . S
C584 C582 1.391 . S
C584 C585 1.400 . S
C585 C579 1.491 . S
C585 C584 1.400 . S
C585 C586 1.398 . S
C586 H574 0.950 . S
C586 C585 1.398 . S
C586 C587 1.391 . S
C587 H575 0.950 . S
C587 C583 1.393 . S
C587 C586 1.391 . S
H588 C596 0.950 . S
H589 C601 0.950 . S
H590 C598 0.950 . S
H591 C600 0.950 . S
H592 C602 0.950 . S
H593 C604 0.950 . S
H594 C606 0.950 . S
H595 C607 0.950 . S
C596 H588 0.950 . S
C596 C597 1.386 . S
C596 C598 1.391 . S
C597 C596 1.386 . S
C597 C601 1.393 . S
C598 H590 0.950 . S
C598 C596 1.391 . S
C598 C599 1.400 . S
C599 C598 1.400 . S
C599 C600 1.398 . S
C599 C605 1.491 . S
C600 H591 0.950 . S
C600 C599 1.398 . S
C600 C601 1.391 . S
C601 H589 0.950 . S
C601 C597 1.393 . S
C601 C600 1.391 . S
C602 H592 0.950 . S
C602 C603 1.386 . S
C602 C604 1.391 . S
C603 C602 1.386 . S
C603 C607 1.393 . S
C604 H593 0.950 . S
C604 C602 1.391 . S
C604 C605 1.400 . S
C605 C599 1.491 . S
C605 C604 1.400 . S
C605 C606 1.398 . S
C606 H594 0.950 . S
C606 C605 1.398 . S
C606 C607 1.391 . S
C607 H595 0.950 . S
C607 C603 1.393 . S
C607 C606 1.391 . S
H608 C616 0.950 . S
H609 C621 0.950 . S
H610 C618 0.950 . S
H611 C620 0.950 . S
H612 C622 0.950 . S
H613 C624 0.950 . S
H614 C626 0.950 . S
H615 C627 0.950 . S
C616 H608 0.950 . S
C616 C617 1.386 . S
C616 C618 1.391 . S
C617 C616 1.386 . S
C617 C621 1.393 . S
C618 H610 0.950 . S
C618 C616 1.391 . S
C618 C619 1.400 . S
C619 C618 1.400 . S
C619 C620 1.398 . S
C619 C625 1.491 . S
C620 H611 0.950 . S
C620 C619 1.398 . S
C620 C621 1.391 . S
C621 H609 0.950 . S
C621 C617 1.393 . S
C621 C620 1.391 . S
C622 H612 0.950 . S
C622 C623 1.386 . S
C622 C624 1.391 . S
C623 C622 1.386 . S
C623 C627 1.393 . S
C624 H613 0.950 . S
C624 C622 1.391 . S
C624 C625 1.400 . S
C625 C619 1.491 . S
C625 C624 1.400 . S
C625 C626 1.398 . S
C626 H614 0.950 . S
C626 C625 1.398 . S
C626 C627 1.391 . S
C627 H615 0.950 . S
C627 C623 1.393 . S
C627 C626 1.391 . S
H628 C636 0.950 . S
H629 C641 0.950 . S
H630 C638 0.950 . S
H631 C640 0.950 . S
H632 C642 0.950 . S
H633 C644 0.950 . S
H634 C646 0.950 . S
H635 C647 0.950 . S
C636 H628 0.950 . S
C636 C637 1.386 . S
C636 C638 1.391 . S
C637 C636 1.386 . S
C637 C641 1.393 . S
C638 H630 0.950 . S
C638 C636 1.391 . S
C638 C639 1.400 . S
C639 C638 1.400 . S
C639 C640 1.398 . S
C639 C645 1.491 . S
C640 H631 0.950 . S
C640 C639 1.398 . S
C640 C641 1.391 . S
C641 H629 0.950 . S
C641 C637 1.393 . S
C641 C640 1.391 . S
C642 H632 0.950 . S
C642 C643 1.386 . S
C642 C644 1.391 . S
C643 C642 1.386 . S
C643 C647 1.393 . S
C644 H633 0.950 . S
C644 C642 1.391 . S
C644 C645 1.400 . S
C645 C639 1.491 . S
C645 C644 1.400 . S
C645 C646 1.398 . S
C646 H634 0.950 . S
C646 C645 1.398 . S
C646 C647 1.391 . S
C647 H635 0.950 . S
C647 C643 1.393 . S
C647 C646 1.391 . S
C177 C153 1.314 . S
C183 C13 1.321 . S
C197 C27 1.220 . S
C203 C167 1.206 . S
C217 C41 1.302 . S
C223 C97 1.331 . S
C237 C111 1.313 . S
C243 C55 1.322 . S
C257 C125 1.192 . S
C263 C69 1.242 . S
C277 C83 1.319 . S
C283 C139 1.299 . S
C297 C11 0.896 . S
C303 C109 0.886 . S
C317 C25 0.812 . S
C323 C123 0.802 . S
C337 C137 0.896 . S
C343 C39 0.882 . S
C357 C151 0.884 . S
C363 C53 0.896 . S
C377 C165 0.810 . S
C383 C67 0.809 . S
C397 C95 0.904 . S
C403 C81 0.900 . S
C417 C8 0.942 . S
C423 C63 0.908 . S
C437 C22 0.865 . S
C443 C77 0.917 . S
C457 C36 0.856 . S
C463 C7 0.908 . S
C477 C50 0.950 . S
C483 C21 0.894 . S
C497 C64 0.869 . S
C503 C35 0.917 . S
C517 C78 0.856 . S
C523 C49 0.907 . S
C537 C92 0.907 . S
C543 C119 0.943 . S
C557 C106 0.906 . S
C563 C133 0.861 . S
C577 C147 0.912 . S
C583 C120 0.875 . S
C597 C134 0.945 . S
C603 C161 0.893 . S
C617 C148 0.909 . S
C623 C91 0.857 . S
C637 C162 0.868 . S
C643 C105 0.918 . S
