# Generated by pormake.
# Topology smm, (6)-cn, num edge types: 1
# Building blocks:
#     Node 0, Type 0, BuildingBlock: KUMJIN_clean_sbu_1, # of connection points: 6
#     Node 1, Type 0, BuildingBlock: KUMJIN_clean_sbu_1, # of connection points: 6
#     Node 2, Type 0, BuildingBlock: KUMJIN_clean_sbu_1, # of connection points: 6
#     Node 3, Type 0, BuildingBlock: KUMJIN_clean_sbu_1, # of connection points: 6
#     Node 4, Type 0, BuildingBlock: KUMJIN_clean_sbu_1, # of connection points: 6
#     Node 5, Type 0, BuildingBlock: KUMJIN_clean_sbu_1, # of connection points: 6
#     Node 6, Type 0, BuildingBlock: KUMJIN_clean_sbu_1, # of connection points: 6
#     Node 7, Type 0, BuildingBlock: KUMJIN_clean_sbu_1, # of connection points: 6
#     Node 8, Type 0, BuildingBlock: KUMJIN_clean_sbu_1, # of connection points: 6
#     Edge 9, Type (0, 0), BuildingBlock: XIVTED_clean_linker_0, # of connection points: 2
#     Edge 10, Type (0, 0), BuildingBlock: XIVTED_clean_linker_0, # of connection points: 2
#     Edge 11, Type (0, 0), BuildingBlock: XIVTED_clean_linker_0, # of connection points: 2
#     Edge 12, Type (0, 0), BuildingBlock: XIVTED_clean_linker_0, # of connection points: 2
#     Edge 13, Type (0, 0), BuildingBlock: XIVTED_clean_linker_0, # of connection points: 2
#     Edge 14, Type (0, 0), BuildingBlock: XIVTED_clean_linker_0, # of connection points: 2
#     Edge 15, Type (0, 0), BuildingBlock: XIVTED_clean_linker_0, # of connection points: 2
#     Edge 16, Type (0, 0), BuildingBlock: XIVTED_clean_linker_0, # of connection points: 2
#     Edge 17, Type (0, 0), BuildingBlock: XIVTED_clean_linker_0, # of connection points: 2
#     Edge 18, Type (0, 0), BuildingBlock: XIVTED_clean_linker_0, # of connection points: 2
#     Edge 19, Type (0, 0), BuildingBlock: XIVTED_clean_linker_0, # of connection points: 2
#     Edge 20, Type (0, 0), BuildingBlock: XIVTED_clean_linker_0, # of connection points: 2
#     Edge 21, Type (0, 0), BuildingBlock: XIVTED_clean_linker_0, # of connection points: 2
#     Edge 22, Type (0, 0), BuildingBlock: XIVTED_clean_linker_0, # of connection points: 2
#     Edge 23, Type (0, 0), BuildingBlock: XIVTED_clean_linker_0, # of connection points: 2
#     Edge 24, Type (0, 0), BuildingBlock: XIVTED_clean_linker_0, # of connection points: 2
#     Edge 25, Type (0, 0), BuildingBlock: XIVTED_clean_linker_0, # of connection points: 2
#     Edge 26, Type (0, 0), BuildingBlock: XIVTED_clean_linker_0, # of connection points: 2
#     Edge 27, Type (0, 0), BuildingBlock: XIVTED_clean_linker_0, # of connection points: 2
#     Edge 28, Type (0, 0), BuildingBlock: XIVTED_clean_linker_0, # of connection points: 2
#     Edge 29, Type (0, 0), BuildingBlock: XIVTED_clean_linker_0, # of connection points: 2
#     Edge 30, Type (0, 0), BuildingBlock: XIVTED_clean_linker_0, # of connection points: 2
#     Edge 31, Type (0, 0), BuildingBlock: XIVTED_clean_linker_0, # of connection points: 2
#     Edge 32, Type (0, 0), BuildingBlock: XIVTED_clean_linker_0, # of connection points: 2
#     Edge 33, Type (0, 0), BuildingBlock: XIVTED_clean_linker_0, # of connection points: 2
#     Edge 34, Type (0, 0), BuildingBlock: XIVTED_clean_linker_0, # of connection points: 2
#     Edge 35, Type (0, 0), BuildingBlock: XIVTED_clean_linker_0, # of connection points: 2
# Relax obj value: 0.110
# Max RMSD: 0.223
# Mean RMSD: 0.176
data_MOF--net-smm--node1-KUMJIN_clean_sbu_1--edge1-XIVTED_clean_linker_0
_symmetry_space_group_name_H-M    P1
_symmetry_Int_Tables_number       1
_symmetry_cell_setting            triclinic
loop_
_symmetry_equiv_pos_as_xyz
'x, y, z'
_cell_length_a     59.846122
_cell_length_b     75.466755
_cell_length_c     15.089725
_cell_angle_alpha  96.568314
_cell_angle_beta   96.941127
_cell_angle_gamma 121.65034
loop_
_atom_site_label
_atom_site_type_symbol
_atom_site_fract_x
_atom_site_fract_y
_atom_site_fract_z
_atom_type_partial_charge
Eu0 Eu 0.03071 0.17639 0.11821 0.0
C1 C 0.15397 0.2339 0.26696 0.0
N2 N 0.13424 0.23489 0.29866 0.0
C3 C 0.15749 0.24327 0.4532 0.0
C4 C 0.17619 0.23725 0.32838 0.0
C5 C 0.13565 0.23953 0.38993 0.0
C6 C 0.17789 0.24217 0.42234 0.0
C7 C 0.17051 0.22575 0.13923 0.0
C8 C 0.15135 0.22858 0.17277 0.0
C9 C 0.1929 0.22948 0.20034 0.0
C10 C 0.19583 0.23536 0.29448 0.0
Eu11 Eu 0.10118 0.23227 0.18746 0.0
N12 N 0.1294 0.22501 0.11459 0.0
C13 C 0.16636 0.21876 0.04529 0.0
C14 C 0.12512 0.2178 0.02299 0.0
C15 C 0.14342 0.21454 0.98719 0.0
H16 H 0.1204 0.24107 0.41386 0.0
H17 H 0.13975 0.20869 0.91462 0.0
H18 H 1.01278 0.15221 0.89808 0.0
H19 H 0.96601 0.17585 0.34364 0.0
H20 H 0.1075 0.214 0.97646 0.0
H21 H 0.18049 0.21619 0.0171 0.0
H22 H 1.00669 0.17901 0.30407 0.0
H23 H 0.15871 0.2472 0.52563 0.0
H24 H 0.20792 0.22759 0.17549 0.0
H25 H 0.21312 0.23801 0.34067 0.0
H26 H 0.9748 0.13823 0.76663 0.0
H27 H 0.19479 0.24504 0.47158 0.0
H28 H 0.92808 0.16682 0.22055 0.0
N29 N 0.99531 0.16226 0.98963 0.0
C30 C 0.97308 0.16181 0.00381 0.0
C31 C 0.97412 0.14496 0.8328 0.0
C32 C 0.95079 0.15369 0.93146 0.0
C33 C 0.99556 0.15289 0.90715 0.0
C34 C 0.95187 0.1458 0.84454 0.0
N35 N 0.99225 0.1727 0.16129 0.0
C36 C 0.99027 0.17519 0.25045 0.0
C37 C 0.94765 0.16471 0.1117 0.0
C38 C 0.97139 0.16699 0.09273 0.0
C39 C 0.94598 0.16837 0.20312 0.0
C40 C 0.96728 0.17339 0.27283 0.0
H41 H 0.93517 0.13946 0.78708 0.0
H42 H 0.91037 0.1466 0.89437 0.0
H43 H 0.90771 0.15641 0.05226 0.0
O44 O 1.01396 0.14942 0.18643 0.0
O45 O 0.02672 0.20435 0.16526 0.0
O46 O 0.06477 0.23456 0.14399 0.0
O47 O 0.02767 0.14709 0.06276 0.0
O48 O 0.05474 0.18852 0.26437 0.0
O49 O 0.07568 0.2248 0.292 0.0
O50 O 0.12964 0.26187 0.14889 0.0
O51 O 0.09924 0.20201 0.20979 0.0
O52 O 0.06913 0.18313 0.07945 0.0
O53 O 0.121 0.26252 0.28386 0.0
O54 O 0.08161 0.22506 0.03922 0.0
O55 O 0.04151 0.19138 -0.00429 0.0
C56 C 0.03955 0.22416 0.15378 0.0
C57 C 0.99159 0.11577 0.08719 0.0
C58 C 0.97099 0.07748 0.05286 0.0
C59 C 0.94778 0.07495 0.00224 0.0
C60 C 0.96788 0.11287 0.04012 0.0
C61 C 0.94622 0.09258 -0.00334 0.0
C62 C 0.99303 0.09808 0.09436 0.0
C63 C 0.06344 0.20674 0.31892 0.0
C64 C 1.01558 0.13709 0.12359 0.0
C65 C 0.92761 0.15255 0.94923 0.0
C66 C 0.92606 0.15808 0.0392 0.0
C67 C 0.08751 0.18523 0.14343 0.0
C68 C 0.12851 0.29103 0.21533 0.0
C69 C 0.14205 0.32365 0.1619 0.0
C70 C 0.12095 0.32396 0.19232 0.0
C71 C 0.10739 0.29145 0.24528 0.0
C72 C 0.14576 0.30716 0.17379 0.0
C73 C 0.10374 0.30791 0.2339 0.0
C74 C 0.06036 0.20949 0.97851 0.0
C75 C 0.13245 0.27369 0.22475 0.0
H76 H 0.93075 0.05935 0.96724 0.0
H77 H 0.96606 0.12617 0.03645 0.0
H78 H 0.92818 0.09051 0.95869 0.0
H79 H 1.0112 0.10044 0.13312 0.0
H80 H 0.11792 0.33668 0.18448 0.0
H81 H 0.09359 0.27901 0.27682 0.0
H82 H 0.16176 0.30663 0.14921 0.0
H83 H 0.08748 0.30818 0.25705 0.0
Eu84 Eu 0.91867 0.85706 0.09864 0.0
C85 C 0.97164 0.80855 0.98484 0.0
N86 N 0.94728 0.80457 0.94561 0.0
C87 C 0.95437 0.79736 0.79655 0.0
C88 C 0.98852 0.80736 0.93032 0.0
C89 C 0.93815 0.79846 0.85324 0.0
C90 C 0.97971 0.80191 0.83518 0.0
C91 C 1.00485 0.81787 0.12199 0.0
C92 C 0.97978 0.81376 0.08009 0.0
C93 C 1.02161 0.81665 0.06755 0.0
C94 C 1.0135 0.81145 0.97215 0.0
Eu95 Eu 0.92133 0.80529 0.0489 0.0
N96 N 0.96356 0.81553 0.13161 0.0
C97 C 1.01233 0.82306 0.21753 0.0
C98 C 0.97014 0.81953 0.22461 0.0
C99 C 0.9948 0.82374 0.26898 0.0
H100 H 0.91804 0.79368 0.82321 0.0
H101 H 1.00009 0.82716 0.34283 0.0
H102 H 0.91509 0.86337 0.31589 0.0
H103 H 0.85334 0.85216 0.79497 0.0
H104 H 0.95627 0.81898 0.26499 0.0
H105 H 0.03141 0.82627 0.25225 0.0
H106 H 0.89408 0.85668 0.88036 0.0
H107 H 0.94713 0.79262 0.7232 0.0
H108 H 0.04093 0.81972 0.09861 0.0
H109 H 0.0267 0.81055 0.93125 0.0
H110 H 0.88401 0.8636 0.4092 0.0
H111 H 0.99212 0.80084 0.79101 0.0
H112 H 0.81855 0.8499 0.87506 0.0
N113 N 0.88978 0.85718 0.19012 0.0
C114 C 0.86778 0.85623 0.14768 0.0
C115 C 0.87896 0.86118 0.33563 0.0
C116 C 0.8496 0.85665 0.19787 0.0
C117 C 0.89625 0.86056 0.28276 0.0
C118 C 0.85532 0.85895 0.29287 0.0
N119 N 0.88177 0.85493 0.00775 0.0
C120 C 0.87877 0.85477 0.91644 0.0
C121 C 0.84007 0.8528 0.00751 0.0
C122 C 0.86333 0.85458 0.05369 0.0
C123 C 0.83624 0.85142 0.91311 0.0
C124 C 0.85579 0.85262 0.86761 0.0
H125 H 0.84188 0.85938 0.33385 0.0
H126 H 0.81199 0.85476 0.189 0.0
H127 H 0.80348 0.85115 0.0223 0.0
O128 O 0.92862 0.88943 0.09566 0.0
O129 O 0.88121 0.82566 0.1081 0.0
O130 O 0.8789 0.79987 0.00296 0.0
O131 O 0.94923 0.88331 0.20749 0.0
O132 O 0.92242 0.84763 0.95468 0.0
O133 O 0.9026 0.81099 0.92423 0.0
O134 O 0.90858 0.77875 0.1221 0.0
O135 O 0.9632 0.84011 0.07614 0.0
O136 O 0.95291 0.86339 0.02923 0.0
O137 O 0.90858 0.77293 0.98078 0.0
O138 O 0.91016 0.81136 0.18121 0.0
O139 O 0.9368 0.84731 0.20855 0.0
C140 C 0.86688 0.80804 0.04469 0.0
C141 C 0.96203 0.91973 0.21801 0.0
C142 C 0.97741 0.95653 0.21649 0.0
C143 C 0.99308 0.9628 0.30497 0.0
C144 C 0.97759 0.92621 0.30686 0.0
C145 C 0.99301 0.94766 0.34997 0.0
C146 C 0.96172 0.93493 0.1734 0.0
C147 C 0.91162 0.82917 0.8975 0.0
C148 C 0.94612 0.89715 0.17297 0.0
C149 C 0.82635 0.85469 0.15181 0.0
C150 C 0.82151 0.85263 0.05686 0.0
C151 C 0.97106 0.85901 0.05309 0.0
C152 C 0.87978 0.74211 0.03978 0.0
C153 C 0.85713 0.70366 0.04992 0.0
C154 C 0.83276 0.70082 0.009 0.0
C155 C 0.85472 0.73803 0.00011 0.0
C156 C 0.88104 0.72467 0.0645 0.0
C157 C 0.8316 0.71765 0.98457 0.0
C158 C 0.92225 0.82979 0.23752 0.0
C159 C 0.90406 0.76451 0.05253 0.0
H160 H 1.00497 0.97937 0.33997 0.0
H161 H 0.97781 0.91471 0.34323 0.0
H162 H 1.00489 0.95255 0.41852 0.0
H163 H 0.9496 0.93005 0.10508 0.0
H164 H 0.81419 0.68528 -0.00433 0.0
H165 H 0.85303 0.75073 0.9805 0.0
H166 H 0.9002 0.72749 0.09579 0.0
H167 H 0.81246 0.71485 0.95334 0.0
Eu168 Eu 0.20737 0.03791 0.02523 0.0
C169 C 0.19418 0.94983 0.05599 0.0
N170 N 0.21023 0.96996 0.10737 0.0
C171 C 0.20613 0.95657 0.24479 0.0
C172 C 0.18259 0.93222 0.09821 0.0
C173 C 0.21714 0.97352 0.19999 0.0
C174 C 0.1886 0.93583 0.19374 0.0
C175 C 0.17116 0.92612 0.9066 0.0
C176 C 0.18862 0.94683 0.96065 0.0
C177 C 0.15964 0.90859 0.94881 0.0
C178 C 0.16535 0.91163 0.04414 0.0
Eu179 Eu 0.22981 0.99675 0.02455 0.0
N180 N 0.19951 0.96412 0.92116 0.0
C181 C 0.16556 0.92362 0.81158 0.0
C182 C 0.19491 0.96168 0.82847 0.0
C183 C 0.17759 0.94146 0.77243 0.0
H184 H 0.23188 0.9893 0.23914 0.0
H185 H 0.17383 0.93962 0.69893 0.0
H186 H 0.20063 0.04195 0.80338 0.0
H187 H 0.27167 0.09922 0.33138 0.0
H188 H 0.20507 0.97506 0.79682 0.0
H189 H 0.15218 0.90797 0.7678 0.0
H190 H 0.23699 0.06279 0.24464 0.0
H191 H 0.21152 0.95947 0.31848 0.0
H192 H 0.14616 0.89259 0.90823 0.0
H193 H 0.15623 0.89791 0.07546 0.0
H194 H 0.22454 0.06809 0.71079 0.0
H195 H 0.18012 0.92269 0.22866 0.0
H196 H 0.2954 0.12816 0.24909 0.0
N197 N 0.22853 0.06126 0.928 0.0
C198 C 0.24805 0.0816 0.97238 0.0
C199 C 0.23183 0.07195 0.784 0.0
C200 C 0.26114 0.09763 0.92278 0.0
C201 C 0.21898 0.05679 0.83613 0.0
C202 C 0.25334 0.09238 0.82737 0.0
N203 N 0.2423 0.07097 0.11522 0.0
C204 C 0.24777 0.07524 0.2084 0.0
C205 C 0.2741 0.10777 0.11497 0.0
C206 C 0.25446 0.08675 0.06806 0.0
C207 C 0.28033 0.1122 0.21069 0.0
C208 C 0.26711 0.09588 0.25749 0.0
H209 H 0.26297 0.10423 0.78693 0.0
H210 H 0.2913 0.13095 0.93247 0.0
H211 H 0.3027 0.13977 0.10021 0.0
O212 O 0.19129 0.05341 0.10349 0.0
O213 O 0.25403 0.05157 0.06624 0.0
O214 O 0.2615 0.02794 0.98877 0.0
O215 O 0.18117 0.04663 0.95669 0.0
O216 O 0.20326 0.02315 0.14808 0.0
O217 O 0.23875 0.01893 0.15874 0.0
O218 O 0.24928 0.98184 0.96437 0.0
O219 O 0.18398 0.98084 0.02328 0.0
O220 O 0.16963 1.00416 0.02453 0.0
O221 O 0.26324 0.99818 0.10858 0.0
O222 O 0.23137 1.01058 0.89964 0.0
O223 O 0.19623 0.01517 0.8902 0.0
C224 C 0.27041 0.04762 0.02856 0.0
C225 C 0.15462 0.05517 0.0349 0.0
C226 C 0.13163 0.07379 0.05947 0.0
C227 C 0.10715 0.05391 0.0411 0.0
C228 C 0.12991 0.03562 0.01638 0.0
C229 C 0.10632 0.03504 0.01921 0.0
C230 C 0.15545 0.07434 0.05553 0.0
C231 C 0.22073 0.02043 0.19507 0.0
C232 C 0.17961 0.05586 0.03184 0.0
C233 C 0.281 0.1185 0.96965 0.0
C234 C 0.28738 0.12356 0.06527 0.0
C235 C 0.16461 0.98464 0.02398 0.0
C236 C 0.28592 0.98154 0.05401 0.0
C237 C 0.31212 0.96876 0.99332 0.0
C238 C 0.32415 0.97082 0.08291 0.0
C239 C 0.29817 0.98335 0.14295 0.0
C240 C 0.29274 0.97395 0.9786 0.0
C241 C 0.31711 0.97797 0.15711 0.0
C242 C 0.21343 1.01274 0.85256 0.0
C243 C 0.26556 0.98698 0.04197 0.0
H244 H 0.08853 0.053 0.04293 0.0
H245 H 0.1289 0.02083 -0.00032 0.0
H246 H 0.08726 0.01987 0.00455 0.0
H247 H 0.17453 0.08954 0.06954 0.0
H248 H 0.33912 0.96691 0.09538 0.0
H249 H 0.29297 0.98879 0.20188 0.0
H250 H 0.28343 0.97238 0.90946 0.0
H251 H 0.32643 0.97942 0.2259 0.0
Eu252 Eu 0.79305 0.50579 0.12534 0.0
C253 C 0.67321 0.46892 0.0105 0.0
N254 N 0.6954 0.48463 0.98648 0.0
C255 C 0.67365 0.47023 0.82802 0.0
C256 C 0.65064 0.45294 0.94311 0.0
C257 C 0.69519 0.48609 0.89693 0.0
C258 C 0.6514 0.45345 0.85109 0.0
C259 C 0.64912 0.45379 0.12913 0.0
C260 C 0.67236 0.46922 0.10293 0.0
C261 C 0.62687 0.43781 0.06186 0.0
C262 C 0.62768 0.43732 0.9693 0.0
Eu263 Eu 0.72899 0.51071 0.11223 0.0
N264 N 0.69431 0.48449 0.16747 0.0
C265 C 0.64897 0.45486 0.22246 0.0
C266 C 0.69416 0.48604 0.25825 0.0
C267 C 0.67158 0.47108 0.28726 0.0
H268 H 0.71076 0.49981 0.87729 0.0
H269 H 0.67153 0.47218 0.35937 0.0
H270 H 0.81093 0.51034 0.35427 0.0
H271 H 0.85446 0.54925 0.89397 0.0
H272 H 0.71137 0.49898 0.30785 0.0
H273 H 0.63145 0.44329 0.24517 0.0
H274 H 0.8142 0.52044 0.93607 0.0
H275 H 0.67387 0.47134 0.75719 0.0
H276 H 0.60886 0.42578 0.08071 0.0
H277 H 0.61019 0.42498 0.91828 0.0
H278 H 0.84764 0.53629 0.4827 0.0
H279 H 0.63449 0.44142 0.79743 0.0
H280 H 0.89361 0.57676 0.01502 0.0
N281 N 0.82732 0.52889 0.25533 0.0
C282 C 0.85 0.54531 0.23708 0.0
C283 C 0.84832 0.5393 0.41432 0.0
C284 C 0.87221 0.56006 0.30833 0.0
C285 C 0.82703 0.52492 0.34141 0.0
C286 C 0.87082 0.55719 0.398 0.0
N287 N 0.83028 0.53211 0.07837 0.0
C288 C 0.83108 0.5326 0.98886 0.0
C289 C 0.87513 0.56331 0.12559 0.0
C290 C 0.85174 0.54673 0.14635 0.0
C291 C 0.87597 0.56423 0.03371 0.0
C292 C 0.85389 0.54876 0.96509 0.0
H293 H 0.88747 0.56817 0.45454 0.0
H294 H 0.9126 0.58829 0.34174 0.0
H295 H 0.91501 0.5913 0.18215 0.0
O296 O 0.81298 0.49209 0.05902 0.0
O297 O 0.80325 0.5408 0.12512 0.0
O298 O 0.76524 0.5425 0.11053 0.0
O299 O 0.80044 0.48356 0.18341 0.0
O300 O 0.76744 0.49701 0.98549 0.0
O301 O 0.74981 0.51785 0.99227 0.0
O302 O 0.71918 0.52911 0.20374 0.0
O303 O 0.7249 0.48007 0.14223 0.0
O304 O 0.75155 0.47595 0.05763 0.0
O305 O 0.70139 0.51941 0.05936 0.0
O306 O 0.75879 0.52383 0.24748 0.0
O307 O 0.77223 0.50046 0.24425 0.0
C308 C 0.79131 0.5516 0.11954 0.0
C309 C 0.83702 0.4815 0.15273 0.0
C310 C 0.86132 0.46352 0.16426 0.0
C311 C 0.88392 0.48264 0.21704 0.0
C312 C 0.86 0.50027 0.20539 0.0
C313 C 0.88319 0.50079 0.23761 0.0
C314 C 0.83762 0.46294 0.13277 0.0
C315 C 0.76022 0.5087 0.94905 0.0
C316 C 0.81238 0.4812 0.12074 0.0
C317 C 0.89543 0.57676 0.28776 0.0
C318 C 0.89686 0.5784 0.19679 0.0
C319 C 0.73076 0.46762 0.0967 0.0
C320 C 0.70708 0.55082 0.1397 0.0
C321 C 0.7015 0.57842 0.21233 0.0
C322 C 0.71079 0.58946 0.14226 0.0
C323 C 0.71662 0.56217 0.0709 0.0
C324 C 0.69958 0.55899 0.21018 0.0
C325 C 0.7183 0.58136 0.07214 0.0
C326 C 0.76611 0.51276 0.28883 0.0
C327 C 0.70392 0.53011 0.13806 0.0
H328 H 0.90222 0.4835 0.24317 0.0
H329 H 0.86003 0.51455 0.22208 0.0
H330 H 0.90074 0.51536 0.27876 0.0
H331 H 0.81997 0.4483 0.09227 0.0
H332 H 0.71209 0.6043 0.14139 0.0
H333 H 0.72258 0.55618 0.01597 0.0
H334 H 0.69253 0.55032 0.26387 0.0
H335 H 0.72539 0.58996 0.01849 0.0
Eu336 Eu 0.5295 0.21125 0.07213 0.0
C337 C 0.57195 0.15344 0.97313 0.0
N338 N 0.54771 0.14934 0.93202 0.0
C339 C 0.55376 0.13884 0.78572 0.0
C340 C 0.58832 0.1507 0.92085 0.0
C341 C 0.53832 0.14199 0.84011 0.0
C342 C 0.57887 0.14323 0.82621 0.0
C343 C 0.60668 0.16684 0.11041 0.0
C344 C 0.58101 0.16145 0.0673 0.0
C345 C 0.62289 0.16394 0.05843 0.0
C346 C 0.61373 0.15585 0.96409 0.0
Eu347 Eu 0.52309 0.15486 0.02893 0.0
N348 N 0.56521 0.16474 0.11593 0.0
C349 C 0.61543 0.17514 0.20454 0.0
C350 C 0.57323 0.17189 0.20834 0.0
C351 C 0.59855 0.1775 0.25374 0.0
H352 H 0.51872 0.13823 0.8091 0.0
H353 H 0.6049 0.18343 0.32694 0.0
H354 H 0.54196 0.232 0.29348 0.0
H355 H 0.45212 0.19661 0.78768 0.0
H356 H 0.56018 0.17292 0.24816 0.0
H357 H 0.63504 0.17951 0.24004 0.0
H358 H 0.49233 0.19825 0.85966 0.0
H359 H 0.54626 0.13299 0.71271 0.0
H360 H 0.64265 0.168 0.09055 0.0
H361 H 0.62658 0.15385 0.92498 0.0
H362 H 0.5219 0.2444 0.39792 0.0
H363 H 0.59085 0.14086 0.78378 0.0
H364 H 0.42859 0.20743 0.88233 0.0
N365 N 0.5114 0.2225 0.17718 0.0
C366 C 0.48921 0.22219 0.14171 0.0
C367 C 0.51233 0.23796 0.32626 0.0
C368 C 0.47738 0.22952 0.19828 0.0
C369 C 0.5234 0.2306 0.26741 0.0
C370 C 0.48912 0.23732 0.29166 0.0
N371 N 0.49087 0.2085 0.99492 0.0
C372 C 0.48192 0.20232 0.90243 0.0
C373 C 0.45588 0.21483 0.0093 0.0
C374 C 0.47868 0.21505 0.0481 0.0
C375 C 0.44606 0.20783 0.91472 0.0
C376 C 0.45923 0.20165 0.86106 0.0
H377 H 0.4807 0.24319 0.3373 0.0
H378 H 0.44519 0.23477 0.20227 0.0
H379 H 0.4263 0.2218 0.03705 0.0
O380 O 0.5459 0.23837 0.00064 0.0
O381 O 0.48601 0.1812 0.07308 0.0
O382 O 0.48263 0.15132 0.99325 0.0
O383 O 0.56231 0.24343 0.14171 0.0
O384 O 0.53191 0.19845 0.93293 0.0
O385 O 0.50602 0.16156 0.90442 0.0
O386 O 0.51303 0.12996 0.10706 0.0
O387 O 0.55954 0.1837 -0.00026 0.0
O388 O 0.56551 0.20884 0.11407 0.0
O389 O 0.50032 0.12144 0.95824 0.0
O390 O 0.51473 0.16518 0.16087 0.0
O391 O 0.54098 0.20181 0.19761 0.0
C392 C 0.47154 0.16032 0.03369 0.0
C393 C 0.56923 0.27431 0.09225 0.0
C394 C 0.59735 0.3133 0.09868 0.0
C395 C 0.58195 0.31577 0.15649 0.0
C396 C 0.55403 0.27784 0.14689 0.0
C397 C 0.56056 0.29833 0.17952 0.0
C398 C 0.5912 0.29227 0.06794 0.0
C399 C 0.51849 0.17968 0.87678 0.0
C400 C 0.56392 0.25236 0.07203 0.0
C401 C 0.45456 0.22919 0.15985 0.0
C402 C 0.44382 0.22183 0.06571 0.0
C403 C 0.57522 0.20239 0.05434 0.0
C404 C 0.49299 0.09293 0.03583 0.0
C405 C 0.48631 0.0653 0.12064 0.0
C406 C 0.4725 0.05 0.0383 0.0
C407 C 0.47945 0.07733 0.95477 0.0
C408 C 0.49643 0.08684 0.11888 0.0
C409 C 0.46927 0.05603 0.95621 0.0
C410 C 0.5266 0.18332 0.2199 0.0
C411 C 0.49987 0.11474 0.03427 0.0
H412 H 0.58645 0.33145 0.18435 0.0
H413 H 0.53748 0.26472 0.16711 0.0
H414 H 0.54903 0.30076 0.22375 0.0
H415 H 0.60324 0.28989 0.02593 0.0
H416 H 0.4638 0.03325 0.03735 0.0
H417 H 0.47604 0.08148 0.89037 0.0
H418 H 0.50673 0.09878 0.18187 0.0
H419 H 0.45845 0.04408 0.89352 0.0
Eu420 Eu 0.8946 0.30902 0.15893 0.0
C421 C 0.97913 0.40256 0.15424 0.0
N422 N 0.97747 0.38497 0.11087 0.0
C423 C 0.98602 0.39916 0.97605 0.0
C424 C 0.98393 0.41914 0.1087 0.0
C425 C 0.98114 0.38311 0.02372 0.0
C426 C 0.98741 0.41726 0.01866 0.0
C427 C 0.97495 0.42111 0.28729 0.0
C428 C 0.9744 0.40338 0.24259 0.0
C429 C 0.97997 0.43773 0.24226 0.0
C430 C 0.98443 0.43674 0.15333 0.0
Eu431 Eu 0.97016 0.35926 0.19738 0.0
N432 N 0.96883 0.38676 0.28399 0.0
C433 C 0.97052 0.42169 0.37621 0.0
C434 C 0.96614 0.38792 0.37256 0.0
C435 C 0.96641 0.40514 0.41933 0.0
H436 H 0.98076 0.3694 0.99163 0.0
H437 H 0.96393 0.40581 0.48925 0.0
H438 H 0.88355 0.30077 0.36661 0.0
H439 H 0.88681 0.2551 0.86348 0.0
H440 H 0.96478 0.37613 0.40909 0.0
H441 H 0.97081 0.43505 0.41285 0.0
H442 H 0.89174 0.28753 0.94391 0.0
H443 H 0.98882 0.39761 0.90671 0.0
H444 H 0.98039 0.45143 0.27561 0.0
H445 H 0.98804 0.44961 0.11934 0.0
H446 H 0.87614 0.27392 0.45901 0.0
H447 H 0.99106 0.42963 0.98132 0.0
H448 H 0.87922 0.22643 0.94501 0.0
N449 N 0.88543 0.28362 0.24955 0.0
C450 C 0.88183 0.26505 0.20849 0.0
C451 C 0.87792 0.27129 0.3889 0.0
C452 C 0.87677 0.24897 0.25751 0.0
C453 C 0.88266 0.28667 0.33722 0.0
C454 C 0.87516 0.25241 0.3491 0.0
N455 N 0.88911 0.27829 0.07228 0.0
C456 C 0.88947 0.27563 0.98162 0.0
C457 C 0.88017 0.24322 0.07321 0.0
C458 C 0.88366 0.26227 0.11731 0.0
C459 C 0.88176 0.24082 0.98129 0.0
C460 C 0.88618 0.25702 0.93515 0.0
H461 H 0.87145 0.24049 0.38927 0.0
H462 H 0.86977 0.21758 0.25059 0.0
H463 H 0.87262 0.21249 0.08936 0.0
O464 O 0.85751 0.29768 0.05902 0.0
O465 O 0.92798 0.30211 0.19512 0.0
O466 O 0.96599 0.32785 0.15253 0.0
O467 O 0.85693 0.29924 0.20178 0.0
O468 O 0.90824 0.32266 0.03384 0.0
O469 O 0.95382 0.33621 0.0611 0.0
O470 O 1.00782 0.376 0.30372 0.0
O471 O 0.93601 0.36208 0.13184 0.0
O472 O 0.90399 0.34232 0.20786 0.0
O473 O 1.00845 0.3725 0.15823 0.0
O474 O 0.95825 0.34288 0.31701 0.0
O475 O 0.91422 0.33226 0.29434 0.0
C476 C 0.95171 0.30913 0.17378 0.0
C477 C 0.81651 0.27334 0.09974 0.0
C478 C 0.76751 0.25292 0.07843 0.0
C479 C 0.76737 0.23411 0.06992 0.0
C480 C 0.81564 0.2543 0.09024 0.0
C481 C 0.79125 0.23484 0.07604 0.0
C482 C 0.79232 0.27268 0.09467 0.0
C483 C 0.93076 0.32885 0.00525 0.0
C484 C 0.84268 0.29383 0.11992 0.0
C485 C 0.87358 0.23008 0.2139 0.0
C486 C 0.87522 0.2272 0.12205 0.0
C487 C 0.91427 0.35742 0.16163 0.0
C488 C 0.05176 0.39147 0.26075 0.0
C489 C 0.09588 0.41405 0.36264 0.0
C490 C 0.10773 0.41266 0.28946 0.0
C491 C 0.06417 0.39036 0.18883 0.0
C492 C 0.06774 0.40354 0.34816 0.0
C493 C 0.09196 0.40093 0.20323 0.0
C494 C 0.93593 0.33597 0.34673 0.0
C495 C 1.02227 0.38012 0.24169 0.0
H496 H 0.74863 0.21875 0.05855 0.0
H497 H 0.83384 0.25446 0.0943 0.0
H498 H 0.79084 0.22023 0.06954 0.0
H499 H 0.79278 0.28733 0.10213 0.0
H500 H 0.12937 0.42078 0.29913 0.0
H501 H 0.05238 0.38123 0.121 0.0
H502 H 0.05847 0.40459 0.40428 0.0
H503 H 0.1013 0.39997 0.14735 0.0
Eu504 Eu 0.40258 0.86333 0.70695 0.0
C505 C 0.52409 0.93238 0.87374 0.0
N506 N 0.50261 0.93171 0.89845 0.0
C507 C 0.5237 0.94141 0.05655 0.0
C508 C 0.54635 0.93754 0.9405 0.0
C509 C 0.50207 0.93622 0.98795 0.0
C510 C 0.54593 0.94206 0.03277 0.0
C511 C 0.5453 0.92758 0.75392 0.0
C512 C 0.52335 0.92711 0.78132 0.0
C513 C 0.5676 0.93284 0.82032 0.0
C514 C 0.56808 0.93774 0.91327 0.0
Eu515 Eu 0.46668 0.92156 0.77881 0.0
N516 N 0.50112 0.9214 0.71843 0.0
C517 C 0.54431 0.92292 0.66047 0.0
C518 C 0.50087 0.91829 0.62746 0.0
C519 C 0.52216 0.91858 0.59699 0.0
H520 H 0.48506 0.93599 0.00641 0.0
H521 H 0.52166 0.91581 0.52459 0.0
H522 H 0.38529 0.85454 0.47881 0.0
H523 H 0.34619 0.86294 0.96796 0.0
H524 H 0.48494 0.91639 0.57797 0.0
H525 H 0.56082 0.92318 0.63662 0.0
H526 H 0.38423 0.86563 0.91126 0.0
H527 H 0.52321 0.94492 0.12761 0.0
H528 H 0.58461 0.9332 0.80047 0.0
H529 H 0.58539 0.94167 0.9636 0.0
H530 H 0.34675 0.84629 0.36179 0.0
H531 H 0.56264 0.94603 0.08612 0.0
H532 H 0.30584 0.85442 0.85924 0.0
N533 N 0.36718 0.8557 0.59007 0.0
C534 C 0.34479 0.85266 0.61721 0.0
C535 C 0.346 0.84818 0.43336 0.0
C536 C 0.32208 0.8475 0.5525 0.0
C537 C 0.36799 0.85322 0.49982 0.0
C538 C 0.32295 0.84534 0.45976 0.0
N539 N 0.36735 0.86105 0.7717 0.0
C540 C 0.36763 0.86308 0.86291 0.0
C541 C 0.32213 0.85298 0.74001 0.0
C542 C 0.34489 0.85545 0.71032 0.0
C543 C 0.32288 0.85609 0.83378 0.0
C544 C 0.34568 0.86104 0.8954 0.0
H545 H 0.30592 0.84141 0.40804 0.0
H546 H 0.28173 0.84084 0.53337 0.0
H547 H 0.28176 0.84562 0.69725 0.0
O548 O 0.38992 0.8353 0.76595 0.0
O549 O 0.39589 0.8901 0.68873 0.0
O550 O 0.42785 0.91603 0.80863 0.0
O551 O 0.38507 0.83273 0.6179 0.0
O552 O 0.42461 0.87416 0.85594 0.0
O553 O 0.44245 0.91021 0.88692 0.0
O554 O 0.47432 0.94628 0.70144 0.0
O555 O 0.47358 0.89534 0.80824 0.0
O556 O 0.44244 0.86797 0.69228 0.0
O557 O 0.48697 0.95467 0.85083 0.0
O558 O 0.44311 0.90942 0.63186 0.0
O559 O 0.42846 0.8743 0.60446 0.0
C560 C 0.40571 0.90803 0.74742 0.0
C561 C 0.36011 0.80103 0.67013 0.0
C562 C 0.34937 0.76654 0.69178 0.0
C563 C 0.32709 0.75687 0.6181 0.0
C564 C 0.33799 0.79157 0.59648 0.0
C565 C 0.32122 0.76941 0.57157 0.0
C566 C 0.36498 0.78856 0.71961 0.0
C567 C 0.43514 0.89234 0.91391 0.0
C568 C 0.38204 0.82302 0.68545 0.0
C569 C 0.29939 0.84487 0.58215 0.0
C570 C 0.29941 0.84761 0.67553 0.0
C571 C 0.4632 0.87611 0.7599 0.0
C572 C 0.49603 0.98365 0.77349 0.0
C573 C 0.50119 1.0112 0.69077 0.0
C574 C 0.51428 0.02628 0.77387 0.0
C575 C 0.50905 0.999 0.85527 0.0
C576 C 0.49215 0.9898 0.69124 0.0
C577 C 0.5181 0.02018 0.85526 0.0
C578 C 0.4348 0.89161 0.57535 0.0
C579 C 0.4854 0.96117 0.77538 0.0
H580 H 0.31495 0.73975 0.59404 0.0
H581 H 0.3344 0.80119 0.55627 0.0
H582 H 0.30447 0.76195 0.51357 0.0
H583 H 0.38241 0.79611 0.77565 0.0
H584 H 0.52193 0.04293 0.77606 0.0
H585 H 0.5121 0.99465 0.91949 0.0
H586 H 0.4816 0.9779 0.62819 0.0
H587 H 0.52814 0.03193 0.91869 0.0
Eu588 Eu 0.30501 0.57241 0.85702 0.0
C589 C 0.37655 0.53395 0.79209 0.0
N590 N 0.35383 0.53053 0.74072 0.0
C591 C 0.36954 0.52826 0.60387 0.0
C592 C 0.39699 0.53501 0.75068 0.0
C593 C 0.34982 0.52732 0.64781 0.0
C594 C 0.39329 0.53222 0.6555 0.0
C595 C 0.40278 0.53989 0.94129 0.0
C596 C 0.37942 0.53633 0.88653 0.0
C597 C 0.42328 0.5412 0.90019 0.0
C598 C 0.42038 0.53874 0.80524 0.0
Eu599 Eu 0.32139 0.52785 0.8216 0.0
N600 N 0.35935 0.53513 0.92482 0.0
C601 C 0.40471 0.54174 0.03573 0.0
C602 C 0.36044 0.53564 0.01595 0.0
C603 C 0.38332 0.5394 0.07305 0.0
H604 H 0.3311 0.52332 0.60708 0.0
H605 H 0.38423 0.5401 0.14555 0.0
H606 H 0.28689 0.56607 0.05751 0.0
H607 H 0.24723 0.56401 0.52469 0.0
H608 H 0.34353 0.53257 0.04493 0.0
H609 H 0.42235 0.54449 0.0801 0.0
H610 H 0.28735 0.57264 0.63092 0.0
H611 H 0.36627 0.52567 0.53014 0.0
H612 H 0.44139 0.54395 0.94123 0.0
H613 H 0.43632 0.53966 0.77458 0.0
H614 H 0.2482 0.5588 0.12441 0.0
H615 H 0.40851 0.53287 0.62115 0.0
H616 H 0.20593 0.55468 0.57972 0.0
N617 N 0.26765 0.56235 0.92293 0.0
C618 C 0.24601 0.55999 0.86895 0.0
C619 C 0.24709 0.55869 0.0522 0.0
C620 C 0.22337 0.55588 0.90444 0.0
C621 C 0.26882 0.56236 0.01378 0.0
C622 C 0.22415 0.55528 -0.00284 0.0
N623 N 0.26853 0.5656 0.74495 0.0
C624 C 0.2693 0.56735 0.65605 0.0
C625 C 0.22307 0.55719 0.7189 0.0
C626 C 0.24615 0.56104 0.77722 0.0
C627 C 0.22337 0.5578 0.62679 0.0
C628 C 0.2466 0.56297 0.59539 0.0
H629 H 0.20727 0.55241 0.02706 0.0
H630 H 0.18311 0.54925 0.87263 0.0
H631 H 0.18263 0.54998 0.7101 0.0
O632 O 0.30984 0.60284 0.84845 0.0
O633 O 0.27106 0.5378 0.8481 0.0
O634 O 0.28352 0.52273 0.74378 0.0
O635 O 0.31869 0.59621 0.97981 0.0
O636 O 0.31955 0.57059 0.7249 0.0
O637 O 0.30805 0.53567 0.69284 0.0
O638 O 0.29892 0.49845 0.87319 0.0
O639 O 0.35886 0.5617 0.86743 0.0
O640 O 0.34697 0.58531 0.83144 0.0
O641 O 0.31324 0.49821 0.74602 0.0
O642 O 0.30662 0.53223 0.94833 0.0
O643 O 0.32776 0.56805 0.97283 0.0
C644 C 0.26496 0.52185 0.78364 0.0
C645 C 0.34432 0.63147 0.96695 0.0
C646 C 0.3768 0.66535 0.93369 0.0
C647 C 0.38689 0.67384 0.0284 0.0
C648 C 0.35418 0.64023 0.06074 0.0
C649 C 0.376 0.66114 0.09119 0.0
C650 C 0.35704 0.64353 0.90427 0.0
C651 C 0.31544 0.55391 0.66867 0.0
C652 C 0.31963 0.61036 0.9362 0.0
C653 C 0.20068 0.55244 0.84658 0.0
C654 C 0.20043 0.55288 0.75401 0.0
C655 C 0.36491 0.58047 0.85248 0.0
C656 C 0.28903 0.46445 0.79014 0.0
C657 C 0.26038 0.43038 0.82892 0.0
C658 C 0.26422 0.42023 0.75416 0.0
C659 C 0.29301 0.45416 0.71577 0.0
C660 C 0.27291 0.4525 0.84751 0.0
C661 C 0.28068 0.43214 0.69818 0.0
C662 C 0.31704 0.55059 0.00379 0.0
C663 C 0.30042 0.48736 0.80378 0.0
H664 H 0.40184 0.69058 0.05502 0.0
H665 H 0.3447 0.63101 0.11039 0.0
H666 H 0.3834 0.66791 0.16367 0.0
H667 H 0.34996 0.63631 0.83215 0.0
H668 H 0.25448 0.40308 0.73932 0.0
H669 H 0.30536 0.46307 0.67041 0.0
H670 H 0.26943 0.46018 0.9046 0.0
H671 H 0.28365 0.42428 0.64051 0.0
Eu672 Eu 0.60388 0.74143 0.87442 0.0
C673 C 0.55936 0.64826 0.89 0.0
N674 N 0.58119 0.66661 0.94287 0.0
C675 C 0.56877 0.65375 0.07834 0.0
C676 C 0.54074 0.63228 0.93033 0.0
C677 C 0.5869 0.66895 0.03533 0.0
C678 C 0.54537 0.63547 0.02571 0.0
C679 C 0.5336 0.62612 0.739 0.0
C680 C 0.5558 0.64512 0.79494 0.0
C681 C 0.51491 0.61037 0.77936 0.0
C682 C 0.51841 0.61347 0.87459 0.0
Eu683 Eu 0.61029 0.69038 0.8607 0.0
N684 N 0.57356 0.6609 0.75703 0.0
C685 C 0.53055 0.6237 0.64395 0.0
C686 C 0.57118 0.65849 0.66475 0.0
C687 C 0.54946 0.63994 0.60673 0.0
H688 H 0.60587 0.68198 0.07604 0.0
H689 H 0.54741 0.63811 0.53345 0.0
H690 H 0.60414 0.74715 0.65471 0.0
H691 H 0.66739 0.79846 0.1918 0.0
H692 H 0.58616 0.6708 0.63612 0.0
H693 H 0.51369 0.60936 0.59874 0.0
H694 H 0.63007 0.76388 0.09736 0.0
H695 H 0.57319 0.65589 0.15192 0.0
H696 H 0.4976 0.59574 0.73746 0.0
H697 H 0.50386 0.60109 0.90455 0.0
H698 H 0.63213 0.7736 0.57076 0.0
H699 H 0.53151 0.62358 0.05924 0.0
H700 H 0.6966 0.8275 0.11773 0.0
N701 N 0.62953 0.76504 0.78503 0.0
C702 C 0.64983 0.78467 0.83355 0.0
C703 C 0.63784 0.77672 0.64444 0.0
C704 C 0.66562 0.80086 0.78829 0.0
C705 C 0.62266 0.76124 0.69211 0.0
C706 C 0.65961 0.79656 0.69266 0.0
N707 N 0.63897 0.77308 0.97174 0.0
C708 C 0.64309 0.77629 0.06452 0.0
C709 C 0.67581 0.80889 0.98042 0.0
C710 C 0.65462 0.78882 0.92907 0.0
C711 C 0.68045 0.81228 0.07592 0.0
C712 C 0.66404 0.79591 0.11808 0.0
H713 H 0.67113 0.80867 0.65552 0.0
H714 H 0.69881 0.83356 0.80583 0.0
H715 H 0.70798 0.84049 0.97357 0.0
O716 O 0.59104 0.76237 0.92946 0.0
O717 O 0.64866 0.75015 0.90047 0.0
O718 O 0.6513 0.72029 0.89412 0.0
O719 O 0.57057 0.74163 0.79766 0.0
O720 O 0.59887 0.72724 0.00038 0.0
O721 O 0.62397 0.71197 0.0015 0.0
O722 O 0.6268 0.67602 0.77767 0.0
O723 O 0.57038 0.68685 0.80906 0.0
O724 O 0.5704 0.71154 0.91072 0.0
O725 O 0.6278 0.67448 0.92228 0.0
O726 O 0.62226 0.7091 0.74975 0.0
O727 O 0.59226 0.71938 0.73721 0.0
C728 C 0.66258 0.74092 0.90519 0.0
C729 C 0.57021 0.77329 0.82107 0.0
C730 C 0.55164 0.79569 0.81155 0.0
C731 C 0.56436 0.80282 0.73921 0.0
C732 C 0.58243 0.78094 0.7484 0.0
C733 C 0.57958 0.7955 0.70803 0.0
C734 C 0.5545 0.78074 0.85282 0.0
C735 C 0.61226 0.7202 0.04287 0.0
C736 C 0.57241 0.75649 0.85758 0.0
C737 C 0.68653 0.82094 0.83956 0.0
C738 C 0.69169 0.82491 0.93517 0.0
C739 C 0.55778 0.6923 0.85989 0.0
C740 C 0.6468 0.65781 0.84048 0.0
C741 C 0.66351 0.63996 0.75188 0.0
C742 C 0.67481 0.63755 0.83295 0.0
C743 C 0.65792 0.65498 0.9209 0.0
C744 C 0.64938 0.65002 0.75558 0.0
C745 C 0.67184 0.6449 0.91694 0.0
C746 C 0.60741 0.71403 0.70132 0.0
C747 C 0.63351 0.66955 0.84643 0.0
H748 H 0.56224 0.814 0.70588 0.0
H749 H 0.59375 0.7753 0.72081 0.0
H750 H 0.589 0.80097 0.6514 0.0
H751 H 0.54448 0.77488 0.90795 0.0
H752 H 0.68592 0.62994 0.83108 0.0
H753 H 0.65623 0.66084 0.98708 0.0
H754 H 0.64096 0.65213 0.69294 0.0
H755 H 0.68056 0.64296 0.97925 0.0
H756 H 0.19687 0.34594 0.19339 0.0
H757 H 0.2064 0.40448 0.78183 0.0
H758 H 0.12768 0.3389 0.02655 0.0
H759 H 0.27427 0.42704 0.00131 0.0
H760 H 0.17711 0.37904 0.86699 0.0
H761 H 0.22604 0.37392 0.11724 0.0
C762 C 0.18789 0.35034 0.14078 0.0
C763 C 0.15993 0.34036 0.11656 0.0
C764 C 0.19834 0.38972 0.89714 0.0
C765 C 0.19292 0.37216 0.03022 0.0
C766 C 0.21492 0.40415 0.84875 0.0
C767 C 0.24249 0.41754 0.88524 0.0
C768 C 0.20966 0.38857 0.98165 0.0
C769 C 0.25295 0.4168 0.97172 0.0
C770 C 0.20449 0.36636 0.09806 0.0
C771 C 0.14919 0.34652 0.04813 0.0
N772 N 0.23648 0.40227 0.01699 0.0
N773 N 0.16573 0.36202 0.00701 0.0
H774 H 0.82815 0.7767 0.8943 0.0
H775 H 0.70229 0.78031 0.02191 0.0
H776 H 0.83486 0.8141 0.14575 0.0
H777 H 0.693 0.72935 0.82661 0.0
H778 H 0.75151 0.79635 0.05614 0.0
H779 H 0.77944 0.76178 0.85851 0.0
C780 C 0.81961 0.78196 0.94198 0.0
C781 C 0.83636 0.79731 0.02248 0.0
C782 C 0.73867 0.78174 0.00513 0.0
C783 C 0.77989 0.78044 0.98035 0.0
C784 C 0.71049 0.77269 0.98484 0.0
C785 C 0.69308 0.75343 0.92045 0.0
C786 C 0.74987 0.77174 0.95983 0.0
C787 C 0.7053 0.7442 0.87651 0.0
C788 C 0.79164 0.77347 0.92118 0.0
C789 C 0.82344 0.80314 0.08109 0.0
N790 N 0.73252 0.75336 0.89652 0.0
N791 N 0.79643 0.795 0.05873 0.0
H792 H 0.3589 0.99236 0.94051 0.0
H793 H 0.35292 0.8925 0.66569 0.0
H794 H 0.28717 0.92928 0.88197 0.0
H795 H 0.42352 0.94728 0.84492 0.0
H796 H 0.32702 0.90805 0.70096 0.0
H797 H 0.38069 0.97853 0.85485 0.0
C798 C 0.34746 0.97572 0.90654 0.0
C799 C 0.32131 0.9619 0.91796 0.0
C800 C 0.34825 0.91665 0.73164 0.0
C801 C 0.34621 0.94586 0.82231 0.0
C802 C 0.36299 0.90769 0.71235 0.0
C803 C 0.39019 0.91811 0.75532 0.0
C804 C 0.36116 0.93657 0.79133 0.0
C805 C 0.40245 0.93835 0.81182 0.0
C806 C 0.35994 0.96779 0.85861 0.0
C807 C 0.30735 0.9404 0.87394 0.0
N808 N 0.38786 0.94684 0.8283 0.0
N809 N 0.32013 0.9329 0.82894 0.0
H810 H 0.43749 0.11794 0.94787 0.0
H811 H 0.3029 0.08991 0.13143 0.0
H812 H 0.43478 0.16654 0.11695 0.0
H813 H 0.30774 0.04622 0.93839 0.0
H814 H 0.34958 0.11789 0.13033 0.0
H815 H 0.39069 0.09232 0.94851 0.0
C816 C 0.42725 0.12353 0.98519 0.0
C817 C 0.44118 0.14509 0.03225 0.0
C818 C 0.34047 0.10225 0.08764 0.0
C819 C 0.38534 0.11442 0.03346 0.0
C820 C 0.31331 0.08617 0.08705 0.0
C821 C 0.30008 0.0654 0.03239 0.0
C822 C 0.35558 0.09782 0.03466 0.0
C823 C 0.31618 0.06175 0.98114 0.0
C824 C 0.40002 0.10854 0.98543 0.0
C825 C 0.4256 0.15043 0.07904 0.0
N826 N 0.3425 0.07748 0.98375 0.0
N827 N 0.39894 0.13538 0.07858 0.0
H828 H 0.99826 0.31828 0.1211 0.0
H829 H 0.99025 0.21155 0.19721 0.0
H830 H 0.93313 0.26936 0.21996 0.0
H831 H 0.05627 0.26366 0.11582 0.0
H832 H 0.96803 0.23113 0.20198 0.0
H833 H 1.01853 0.29763 0.11645 0.0
C834 C 0.98796 0.30311 0.14163 0.0
C835 C 0.96354 0.29568 0.17048 0.0
C836 C 0.98741 0.23831 0.18333 0.0
C837 C 0.98723 0.27147 0.16468 0.0
C838 C 1.00015 0.22706 0.1802 0.0
C839 C 0.02541 0.23583 0.15634 0.0
C840 C 0.9999 0.25865 0.16237 0.0
C841 C 0.03706 0.25617 0.13557 0.0
C842 C 0.99973 0.29125 0.13882 0.0
C843 C 0.95163 0.27577 0.19605 0.0
N844 N 0.02432 0.26677 0.13914 0.0
N845 N 0.96352 0.2644 0.19243 0.0
H846 H 0.88158 0.68191 -0.00323 0.0
H847 H 0.77782 0.57918 0.18306 0.0
H848 H 0.82645 0.67939 0.16131 0.0
H849 H 0.83857 0.57906 0.05672 0.0
H850 H 0.79688 0.61608 0.1734 0.0
H851 H 0.86893 0.64587 0.01809 0.0
C852 C 0.86741 0.67416 0.03938 0.0
C853 C 0.85537 0.68417 0.07792 0.0
C854 C 0.80647 0.60829 0.14843 0.0
C855 C 0.84001 0.6422 0.10045 0.0
C856 C 0.79548 0.58692 0.15394 0.0
C857 C 0.80649 0.57549 0.12151 0.0
C858 C 0.82899 0.61912 0.10932 0.0
C859 C 0.82945 0.58698 0.08424 0.0
C860 C 0.85992 0.65336 0.05068 0.0
C861 C 0.83656 0.6727 0.13046 0.0
N862 N 0.83974 0.60796 0.0786 0.0
N863 N 0.82947 0.65265 0.13924 0.0
H864 H 0.24901 0.48294 0.69107 0.0
H865 H 0.10384 0.45018 0.46544 0.0
H866 H 0.21694 0.51897 0.79043 0.0
H867 H 0.12956 0.40647 0.46067 0.0
H868 H 0.14307 0.47538 0.58974 0.0
H869 H 0.20415 0.45451 0.60949 0.0
C870 C 0.23249 0.48489 0.69612 0.0
C871 C 0.23696 0.50372 0.74607 0.0
C872 C 0.13966 0.46002 0.56309 0.0
C873 C 0.18522 0.47112 0.65125 0.0
C874 C 0.11724 0.44563 0.49283 0.0
C875 C 0.11377 0.42639 0.45283 0.0
C876 C 0.15856 0.45501 0.59198 0.0
C877 C 0.13174 0.42124 0.48958 0.0
C878 C 0.20678 0.46858 0.64962 0.0
C879 C 0.21464 0.50512 0.75104 0.0
N880 N 0.15357 0.4356 0.55591 0.0
N881 N 0.18972 0.48921 0.70254 0.0
H882 H 0.70966 0.65767 0.6903 0.0
H883 H 0.65756 0.55789 0.28994 0.0
H884 H 0.62685 0.60514 0.61807 0.0
H885 H 0.72947 0.61945 0.30829 0.0
H886 H 0.64676 0.57354 0.41626 0.0
H887 H 0.71805 0.64296 0.55451 0.0
C888 C 0.69321 0.64314 0.64478 0.0
C889 C 0.66759 0.63255 0.66443 0.0
C890 C 0.66478 0.58362 0.39199 0.0
C891 C 0.67701 0.61536 0.51072 0.0
C892 C 0.67105 0.57468 0.32054 0.0
C893 C 0.69439 0.58744 0.28831 0.0
C894 C 0.68218 0.60537 0.43222 0.0
C895 C 0.7111 0.60911 0.33011 0.0
C896 C 0.69795 0.63473 0.56759 0.0
C897 C 0.64686 0.61373 0.60432 0.0
N898 N 0.70475 0.61735 0.40013 0.0
N899 N 0.65207 0.60555 0.53034 0.0
H900 H 0.48228 0.07934 0.29171 0.0
H901 H 0.50526 0.99757 0.51968 0.0
H902 H 0.49795 0.03553 0.14765 0.0
H903 H 0.48817 0.04037 0.66438 0.0
H904 H 0.50177 1.01088 0.38188 0.0
H905 H 0.48528 0.06591 0.43008 0.0
C906 C 0.48653 0.06702 0.28918 0.0
C907 C 0.48961 0.05842 0.20739 0.0
C908 C 0.49881 0.01738 0.44384 0.0
C909 C 0.49264 0.04273 0.36526 0.0
C910 C 0.50059 1.00965 0.52249 0.0
C911 C 0.49735 0.01803 0.60441 0.0
C912 C 0.49376 0.03364 0.44682 0.0
C913 C 0.49148 0.03379 0.60358 0.0
C914 C 0.48802 0.05923 0.36806 0.0
C915 C 0.49488 0.04235 0.20841 0.0
N916 N 0.49 0.04113 0.52634 0.0
N917 N 0.49614 0.03501 0.28574 0.0
H918 H 0.11637 0.08592 0.20551 0.0
H919 H 0.09113 0.16566 0.98671 0.0
H920 H 0.14484 0.10568 0.96354 0.0
H921 H 0.10646 0.17196 0.27865 0.0
H922 H 0.10639 0.14114 0.97156 0.0
H923 H 0.10869 0.11488 0.23034 0.0
C924 C 0.12146 0.09663 0.15855 0.0
C925 C 0.13141 0.09347 0.0827 0.0
C926 C 0.10654 0.14796 0.03896 0.0
C927 C 0.12188 0.12628 0.1091 0.0
C928 C 0.09768 0.16185 0.04765 0.0
C929 C 0.09746 0.17083 0.13411 0.0
C930 C 0.11448 0.14242 0.11704 0.0
C931 C 0.10638 0.16545 0.21077 0.0
C932 C 0.11703 0.11312 0.17264 0.0
C933 C 0.13736 0.10766 0.02327 0.0
N934 N 0.1141 0.15135 0.2004 0.0
N935 N 0.1321 0.12322 0.03686 0.0
H936 H 1.02007 0.9941 0.19726 0.0
H937 H 0.93025 0.03957 0.07791 0.0
H938 H 0.93341 0.95542 0.13443 0.0
H939 H 1.01357 0.07255 0.05726 0.0
H940 H 0.93144 1.00865 0.0991 0.0
H941 H 1.01868 0.02299 0.1439 0.0
C942 C 1.00078 0.99168 0.17125 0.0
C943 C 0.97683 0.97262 0.17147 0.0
C944 C 0.94939 0.02256 0.08888 0.0
C945 C 0.97504 1.00539 0.1113 0.0
C946 C 0.94871 0.04021 0.07638 0.0
C947 C 0.97174 0.05862 0.06469 0.0
C948 C 0.97339 0.02336 0.09123 0.0
C949 C 0.99537 0.05876 0.06667 0.0
C950 C 0.99999 1.00809 0.1406 0.0
C951 C 0.95231 0.96998 0.13569 0.0
N952 N 0.99563 0.04139 0.08025 0.0
N953 N 0.95204 0.98636 0.10823 0.0
H954 H 0.99283 0.90209 0.06871 0.0
H955 H 0.14389 0.94094 0.0065 0.0
H956 H 1.01839 0.85842 0.03754 0.0
H957 H 0.11784 0.98384 0.05094 0.0
H958 H 0.09974 0.91131 0.01646 0.0
H959 H 0.03773 0.93123 0.06215 0.0
C960 C 1.00773 0.89836 0.06054 0.0
C961 C 1.0007 0.87702 0.05411 0.0
C962 C 0.10345 0.92713 0.02424 0.0
C963 C 0.05428 0.91183 0.04533 0.0
C964 C 0.12922 0.94446 0.01873 0.0
C965 C 0.13592 0.96573 0.02795 0.0
C966 C 0.08291 0.93038 0.03922 0.0
C967 C 0.11458 0.96817 0.04273 0.0
C968 C 0.03381 0.91538 0.05676 0.0
C969 C 1.02203 0.87419 0.04395 0.0
N970 N 0.08964 0.95107 0.04775 0.0
N971 N 0.04731 0.89109 0.03952 0.0
H972 H 0.83088 0.42384 0.20483 0.0
H973 H 0.92718 0.38702 0.05459 0.0
H974 H 0.8978 0.46096 0.08165 0.0
H975 H 0.87539 0.35833 0.24028 0.0
H976 H 0.91194 0.41116 0.04568 0.0
H977 H 0.84129 0.39617 0.19679 0.0
C978 C 0.84735 0.42593 0.17423 0.0
C979 C 0.86353 0.44473 0.14395 0.0
C980 C 0.9038 0.39957 0.08828 0.0
C981 C 0.87575 0.41336 0.13551 0.0
C982 C 0.91275 0.38587 0.09423 0.0
C983 C 0.90325 0.37098 0.15056 0.0
C984 C 0.88455 0.39812 0.13715 0.0
C985 C 0.88358 0.36971 0.19688 0.0
C986 C 0.85348 0.41027 0.17056 0.0
C987 C 0.88486 0.44674 0.10597 0.0
N988 N 0.87493 0.38311 0.18933 0.0
N989 N 0.89039 0.43137 0.10318 0.0
H990 H 0.68909 0.44609 0.18173 0.0
H991 H 0.65223 0.32962 0.10572 0.0
H992 H 0.73399 0.43437 0.00822 0.0
H993 H 0.59185 0.34354 0.03661 0.0
H994 H 0.68715 0.3666 0.09817 0.0
H995 H 0.65791 0.40797 0.16402 0.0
C996 C 0.6922 0.43561 0.13814 0.0
C997 C 0.71351 0.44386 0.09211 0.0
C998 C 0.66616 0.3613 0.08311 0.0
C999 C 0.67875 0.39935 0.0786 0.0
C1000 C 0.64617 0.34014 0.08679 0.0
C1001 C 0.61884 0.33331 0.07296 0.0
C1002 C 0.65878 0.37579 0.06718 0.0
C1003 C 0.61252 0.34797 0.04946 0.0
C1004 C 0.67456 0.41367 0.12962 0.0
C1005 C 0.71747 0.42894 0.04304 0.0
N1006 N 0.63214 0.3684 0.04954 0.0
N1007 N 0.70035 0.40744 0.03783 0.0
H1008 H 0.6181 0.23471 0.18919 0.0
H1009 H 0.72575 0.23055 0.9332 0.0
H1010 H 0.59933 0.19585 0.92432 0.0
H1011 H 0.74926 0.27006 0.19995 0.0
H1012 H 0.67971 0.22081 0.92536 0.0
H1013 H 0.6663 0.25056 0.19241 0.0
C1014 C 0.62406 0.22962 0.13158 0.0
C1015 C 0.60456 0.21375 0.05679 0.0
C1016 C 0.69484 0.23183 0.98543 0.0
C1017 C 0.65949 0.23172 0.06008 0.0
C1018 C 0.7212 0.23748 0.98957 0.0
C1019 C 0.74126 0.251 0.06745 0.0
C1020 C 0.6882 0.23965 0.06002 0.0
C1021 C 0.73432 0.25959 0.13857 0.0
C1022 C 0.65155 0.23862 0.13358 0.0
C1023 C 0.61349 0.20779 0.98407 0.0
N1024 N 0.70824 0.25357 0.13371 0.0
N1025 N 0.64012 0.21663 0.9879 0.0
H1026 H 0.49715 0.77688 0.7632 0.0
H1027 H 0.51114 0.88956 0.875 0.0
H1028 H 0.56989 0.83504 0.90998 0.0
H1029 H 0.44222 0.83352 0.69579 0.0
H1030 H 0.53046 0.86872 0.90688 0.0
H1031 H 0.47382 0.79573 0.76104 0.0
C1032 C 0.50792 0.79341 0.79828 0.0
C1033 C 0.5354 0.80429 0.83837 0.0
C1034 C 0.51107 0.86093 0.86075 0.0
C1035 C 0.50919 0.82632 0.83262 0.0
C1036 C 0.50004 0.87291 0.84209 0.0
C1037 C 0.47519 0.86352 0.78103 0.0
C1038 C 0.49708 0.8392 0.81913 0.0
C1039 C 0.46165 0.84165 0.74197 0.0
C1040 C 0.49474 0.80429 0.79563 0.0
C1041 C 0.54859 0.82593 0.87997 0.0
N1042 N 0.47274 0.83031 0.76146 0.0
N1043 N 0.5355 0.83623 0.87525 0.0
H1044 H 0.34252 0.65799 0.77377 0.0
H1045 H 0.40094 0.77606 0.73662 0.0
H1046 H 0.42099 0.70609 0.9425 0.0
H1047 H 0.31854 0.72885 0.74051 0.0
H1048 H 0.41407 0.75211 0.78249 0.0
H1049 H 0.34149 0.68493 0.70862 0.0
C1050 C 0.36011 0.67399 0.79614 0.0
C1051 C 0.38133 0.67975 0.86898 0.0
C1052 C 0.39323 0.74721 0.77341 0.0
C1053 C 0.379 0.71084 0.79611 0.0
C1054 C 0.38566 0.76079 0.74822 0.0
C1055 C 0.35836 0.75401 0.73242 0.0
C1056 C 0.37321 0.7268 0.78025 0.0
C1057 C 0.33953 0.73427 0.74872 0.0
C1058 C 0.35909 0.6895 0.75927 0.0
C1059 C 0.40336 0.70106 0.89133 0.0
N1060 N 0.34728 0.72118 0.7706 0.0
N1061 N 0.40125 0.71616 0.85745 0.0
H1062 H 0.52114 0.65733 0.72622 0.0
H1063 H 0.39215 0.62265 0.93436 0.0
H1064 H 0.52777 0.69203 0.98595 0.0
H1065 H 0.4025 0.57667 0.78087 0.0
H1066 H 0.43922 0.65046 0.93884 0.0
H1067 H 0.4751 0.62962 0.72949 0.0
C1068 C 0.51306 0.65899 0.78465 0.0
C1069 C 0.52883 0.67663 0.85766 0.0
C1070 C 0.4312 0.63424 0.90485 0.0
C1071 C 0.47527 0.64556 0.85891 0.0
C1072 C 0.40438 0.6184 0.902 0.0
C1073 C 0.39353 0.59724 0.85828 0.0
C1074 C 0.44706 0.62901 0.86122 0.0
C1075 C 0.4102 0.59262 0.81703 0.0
C1076 C 0.48664 0.64326 0.78593 0.0
C1077 C 0.51655 0.67857 0.92873 0.0
N1078 N 0.43601 0.60839 0.81863 0.0
N1079 N 0.49047 0.66326 0.92748 0.0
H1080 H 0.10008 0.23939 0.90512 0.0
H1081 H 0.04006 0.17307 0.40423 0.0
H1082 H 1.01821 0.18516 0.83097 0.0
H1083 H 0.08306 0.24176 0.45453 0.0
H1084 H 0.03805 0.17481 0.56608 0.0
H1085 H 0.10032 0.23888 0.743 0.0
C1086 C 0.0821 0.22734 0.85522 0.0
C1087 C 0.05936 0.21158 0.88204 0.0
C1088 C 0.04791 0.18942 0.54098 0.0
C1089 C 0.05983 0.21088 0.69739 0.0
C1090 C 0.04914 0.18848 0.44907 0.0
C1091 C 0.06187 0.20731 0.41584 0.0
C1092 C 0.0601 0.2093 0.59994 0.0
C1093 C 0.07328 0.22684 0.47715 0.0
C1094 C 0.08236 0.22707 0.7629 0.0
C1095 C 0.0366 0.19669 0.81382 0.0
N1096 N 0.07243 0.22736 0.56669 0.0
N1097 N 0.03752 0.19642 0.72439 0.0
H1098 H 0.87843 0.79656 0.74936 0.0
H1099 H 0.95738 0.86159 0.3867 0.0
H1100 H 0.94488 0.86226 0.82217 0.0
H1101 H 0.88432 0.79904 0.31096 0.0
H1102 H 0.95402 0.86188 0.5472 0.0
H1103 H 0.88086 0.79687 0.5886 0.0
C1104 C 0.89347 0.81106 0.73145 0.0
C1105 C 0.91154 0.82936 0.79931 0.0
C1106 C 0.93871 0.84809 0.49544 0.0
C1107 C 0.91452 0.82987 0.61547 0.0
C1108 C 0.94067 0.84792 0.4039 0.0
C1109 C 0.92109 0.83028 0.33536 0.0
C1110 C 0.91714 0.83042 0.51878 0.0
C1111 C 0.89994 0.81294 0.36156 0.0
C1112 C 0.89485 0.81126 0.63969 0.0
C1113 C 0.93048 0.84779 0.77213 0.0
N1114 N 0.89852 0.81345 0.45099 0.0
N1115 N 0.93158 0.84753 0.68252 0.0
H1116 H 0.2569 0.0257 0.77585 0.0
H1117 H 0.17879 1.01086 0.27656 0.0
H1118 H 0.1725 1.00201 0.70831 0.0
H1119 H 0.26122 0.02876 0.33585 0.0
H1120 H 0.17695 1.0091 0.43581 0.0
H1121 H 0.2594 0.02797 0.61703 0.0
C1122 C 0.2388 0.02083 0.72733 0.0
C1123 C 0.21441 1.01366 0.7554 0.0
C1124 C 0.19546 1.0134 0.41427 0.0
C1125 C 0.21723 0.01637 0.57303 0.0
C1126 C 0.1966 1.01452 0.32327 0.0
C1127 C 0.22017 0.01987 0.29263 0.0
C1128 C 0.21811 0.01775 0.47585 0.0
C1129 C 0.24256 0.02439 0.3564 0.0
C1130 C 0.2403 0.02223 0.63665 0.0
C1131 C 0.19171 1.00774 0.68969 0.0
N1132 N 0.24096 0.02319 0.44506 0.0
N1133 N 0.1937 1.00929 0.6016 0.0
H1134 H 0.76499 0.4835 0.38199 0.0
H1135 H 0.75761 0.53713 0.85729 0.0
H1136 H 0.76489 0.54103 0.41771 0.0
H1137 H 0.76642 0.48369 0.8213 0.0
H1138 H 0.75933 0.53873 0.69684 0.0
H1139 H 0.76448 0.48318 0.54263 0.0
C1140 C 0.76499 0.49617 0.42379 0.0
C1141 C 0.7653 0.51248 0.38642 0.0
C1142 C 0.76092 0.52668 0.72417 0.0
C1143 C 0.76432 0.51201 0.57118 0.0
C1144 C 0.75986 0.52571 0.81564 0.0
C1145 C 0.76168 0.51015 0.85264 0.0
C1146 C 0.76374 0.51194 0.66927 0.0
C1147 C 0.76487 0.49593 0.79579 0.0
C1148 C 0.76464 0.49594 0.51572 0.0
C1149 C 0.76477 0.52821 0.44378 0.0
N1150 N 0.76571 0.49713 0.70705 0.0
N1151 N 0.76432 0.5276 0.53345 0.0
H1152 H 0.4942 0.14876 0.28878 0.0
H1153 H 0.55416 0.21251 0.80693 0.0
H1154 H 0.55863 0.21511 0.37224 0.0
H1155 H 0.48772 0.14675 0.72636 0.0
H1156 H 0.5575 0.21297 0.64853 0.0
H1157 H 0.49348 0.14695 0.44867 0.0
C1158 C 0.50807 0.16303 0.34065 0.0
C1159 C 0.52603 0.1823 0.31681 0.0
C1160 C 0.5422 0.1984 0.66521 0.0
C1161 C 0.52521 0.18028 0.50016 0.0
C1162 C 0.54015 0.19812 0.75585 0.0
C1163 C 0.52042 0.17957 0.78005 0.0
C1164 C 0.52435 0.18003 0.59764 0.0
C1165 C 0.5032 0.16138 0.71078 0.0
C1166 C 0.50762 0.16195 0.43198 0.0
C1167 C 0.5438 0.20013 0.38709 0.0
N1168 N 0.50551 0.16209 0.62246 0.0
N1169 N 0.54283 0.19871 0.4756 0.0
H1170 H 0.9691 0.33076 0.46738 0.0
H1171 H 0.89488 0.3296 0.87738 0.0
H1172 H 0.90416 0.34074 0.44951 0.0
H1173 H 0.96662 0.32833 0.90985 0.0
H1174 H 0.89671 0.3318 0.71775 0.0
H1175 H 0.96791 0.32865 0.62804 0.0
C1176 C 0.95471 0.33262 0.49745 0.0
C1177 C 0.93652 0.3357 0.44492 0.0
C1178 C 0.91203 0.33099 0.75966 0.0
C1179 C 0.93491 0.3332 0.62804 0.0
C1180 C 0.91087 0.32958 0.85067 0.0
C1181 C 0.93063 0.3288 0.90701 0.0
C1182 C 0.93297 0.33144 0.72431 0.0
C1183 C 0.95104 0.32901 0.86889 0.0
C1184 C 0.95396 0.33134 0.58894 0.0
C1185 C 0.9183 0.33804 0.4872 0.0
N1186 N 0.95169 0.33031 0.77996 0.0
N1187 N 0.91787 0.33663 0.57597 0.0
H1188 H 0.43032 0.91849 0.47997 0.0
H1189 H 0.43832 0.86447 0.00656 0.0
H1190 H 0.43783 0.8644 0.4491 0.0
H1191 H 0.43338 0.91979 0.04243 0.0
H1192 H 0.43797 0.8639 0.1683 0.0
H1193 H 0.43046 0.91864 0.31833 0.0
C1194 C 0.4321 0.9067 0.43903 0.0
C1195 C 0.43419 0.89149 0.47759 0.0
C1196 C 0.43693 0.87614 0.14074 0.0
C1197 C 0.43452 0.89159 0.29316 0.0
C1198 C 0.43711 0.87645 0.04861 0.0
C1199 C 0.43585 0.89218 0.01152 0.0
C1200 C 0.43522 0.89156 0.19557 0.0
C1201 C 0.43457 0.90748 0.0687 0.0
C1202 C 0.43215 0.90676 0.34685 0.0
C1203 C 0.4361 0.87637 0.42162 0.0
N1204 N 0.43417 0.90672 0.15787 0.0
N1205 N 0.43633 0.87685 0.33209 0.0
H1206 H 0.34529 0.58596 0.14294 0.0
H1207 H 0.28686 0.51974 0.52657 0.0
H1208 H 0.2891 0.51784 0.08884 0.0
H1209 H 0.34148 0.58808 0.58697 0.0
H1210 H 0.28694 0.51923 0.36549 0.0
H1211 H 0.34397 0.58748 0.30492 0.0
C1212 C 0.33276 0.57131 0.1652 0.0
C1213 C 0.31736 0.55169 0.1024 0.0
C1214 C 0.29892 0.53439 0.4136 0.0
C1215 C 0.31571 0.55338 0.28739 0.0
C1216 C 0.29896 0.5347 0.50589 0.0
C1217 C 0.31451 0.554 0.57049 0.0
C1218 C 0.31457 0.55351 0.38506 0.0
C1219 C 0.32932 0.57288 0.53933 0.0
C1220 C 0.33197 0.57221 0.25761 0.0
C1221 C 0.30144 0.53326 0.13493 0.0
N1222 N 0.32913 0.57216 0.44864 0.0
N1223 N 0.30103 0.53456 0.22511 0.0
H1224 H 0.64802 0.72033 0.61692 0.0
H1225 H 0.57275 0.71557 0.12985 0.0
H1226 H 0.56732 0.70631 0.56284 0.0
H1227 H 0.65013 0.72318 0.17657 0.0
H1228 H 0.57079 0.71291 0.28894 0.0
H1229 H 0.64936 0.72172 0.45638 0.0
C1230 C 0.63047 0.71731 0.57089 0.0
C1231 C 0.6076 0.71334 0.60313 0.0
C1232 C 0.58826 0.71525 0.26468 0.0
C1233 C 0.609 0.715 0.41949 0.0
C1234 C 0.58949 0.71694 0.17403 0.0
C1235 C 0.61174 0.71973 0.14029 0.0
C1236 C 0.60956 0.71657 0.32244 0.0
C1237 C 0.63263 0.72102 0.20002 0.0
C1238 C 0.63129 0.71821 0.47938 0.0
C1239 C 0.58546 0.70965 0.54078 0.0
N1240 N 0.63107 0.71949 0.28829 0.0
N1241 N 0.58675 0.71067 0.45202 0.0
loop_
_geom_bond_atom_site_label_1
_geom_bond_atom_site_label_2
_geom_bond_distance
_geom_bond_site_symmetry_2
_ccdc_geom_bond_type
Eu0 N29 2.600 1_454 S
Eu0 N35 2.562 1_455 S
Eu0 O44 2.462 1_455 S
Eu0 O45 2.373 . S
Eu0 O47 2.432 1_455 S
Eu0 O48 2.291 . S
Eu0 O52 2.335 . S
Eu0 O55 2.372 1_554 S
Eu0 C64 2.787 1_455 S
C1 N2 1.365 . S
C1 C4 1.405 . S
C1 C8 1.448 . S
N2 C1 1.365 . S
N2 C5 1.319 . S
N2 Eu11 2.600 . S
C3 C5 1.397 . S
C3 C6 1.367 . S
C3 H23 0.931 . S
C4 C1 1.405 . S
C4 C6 1.403 . S
C4 C10 1.439 . S
C5 N2 1.319 . S
C5 C3 1.397 . S
C5 H16 0.930 . S
C6 C3 1.367 . S
C6 C4 1.403 . S
C6 H27 0.929 . S
C7 C8 1.430 . S
C7 C9 1.387 . S
C7 C13 1.404 . S
C8 C1 1.448 . S
C8 C7 1.430 . S
C8 N12 1.351 . S
C9 C7 1.387 . S
C9 C10 1.374 . S
C9 H24 0.931 . S
C10 C4 1.439 . S
C10 C9 1.374 . S
C10 H25 0.931 . S
Eu11 N2 2.600 . S
Eu11 N12 2.562 . S
Eu11 O46 2.335 . S
Eu11 O49 2.372 . S
Eu11 O50 2.462 . S
Eu11 O51 2.373 . S
Eu11 O53 2.432 . S
Eu11 O54 2.291 . S
Eu11 C75 2.787 . S
N12 C8 1.351 . S
N12 Eu11 2.562 . S
N12 C14 1.325 . S
C13 C7 1.404 . S
C13 C15 1.366 . S
C13 H21 0.930 . S
C14 N12 1.325 . S
C14 C15 1.416 . S
C14 H20 0.929 . S
C15 C13 1.366 . S
C15 C14 1.416 . S
C15 H17 0.930 1_554 S
H16 C5 0.930 . S
H17 C15 0.930 1_556 S
H18 C33 0.930 . S
H19 C40 0.930 . S
H20 C14 0.929 . S
H21 C13 0.930 . S
H22 C36 0.929 . S
H23 C3 0.931 . S
H24 C9 0.931 . S
H25 C10 0.931 . S
H26 C31 0.931 . S
H27 C6 0.929 . S
H28 C39 0.930 . S
N29 Eu0 2.600 1_656 S
N29 C30 1.365 . S
N29 C33 1.319 . S
C30 N29 1.365 . S
C30 C32 1.405 . S
C30 C38 1.448 1_556 S
C31 H26 0.931 . S
C31 C33 1.397 . S
C31 C34 1.367 . S
C32 C30 1.405 . S
C32 C34 1.403 . S
C32 C65 1.439 . S
C33 H18 0.930 . S
C33 N29 1.319 . S
C33 C31 1.397 . S
C34 C31 1.367 . S
C34 C32 1.403 . S
C34 H41 0.929 . S
N35 Eu0 2.562 1_655 S
N35 C36 1.325 . S
N35 C38 1.351 . S
C36 H22 0.929 . S
C36 N35 1.325 . S
C36 C40 1.416 . S
C37 C38 1.430 . S
C37 C39 1.404 . S
C37 C66 1.387 . S
C38 C30 1.448 1_554 S
C38 N35 1.351 . S
C38 C37 1.430 . S
C39 H28 0.930 . S
C39 C37 1.404 . S
C39 C40 1.366 . S
C40 H19 0.930 . S
C40 C36 1.416 . S
C40 C39 1.366 . S
H41 C34 0.929 . S
H42 C65 0.931 . S
H43 C66 0.931 . S
O44 Eu0 2.462 1_655 S
O44 C64 1.252 . S
O45 Eu0 2.373 . S
O45 C56 1.249 . S
O46 Eu11 2.335 . S
O46 C56 1.264 . S
O47 Eu0 2.432 1_655 S
O47 C64 1.268 . S
O48 Eu0 2.291 . S
O48 C63 1.255 . S
O49 Eu11 2.372 . S
O49 C63 1.257 . S
O50 Eu11 2.462 . S
O50 C75 1.252 . S
O51 Eu11 2.373 . S
O51 C67 1.249 . S
O52 Eu0 2.335 . S
O52 C67 1.264 . S
O53 Eu11 2.432 . S
O53 C75 1.268 . S
O54 Eu11 2.291 . S
O54 C74 1.255 1_554 S
O55 Eu0 2.372 1_556 S
O55 C74 1.257 . S
C56 O45 1.249 . S
C56 O46 1.264 . S
C57 C60 1.382 . S
C57 C62 1.390 . S
C57 C64 1.506 . S
C58 C59 1.398 . S
C58 C62 1.392 . S
C59 C58 1.398 . S
C59 C61 1.372 . S
C59 H76 0.931 . S
C60 C57 1.382 . S
C60 C61 1.390 . S
C60 H77 0.931 1_554 S
C61 C59 1.372 . S
C61 C60 1.390 . S
C61 H78 0.929 1_554 S
C62 C57 1.390 . S
C62 C58 1.392 . S
C62 H79 0.930 . S
C63 O48 1.255 . S
C63 O49 1.257 . S
C64 Eu0 2.787 1_655 S
C64 O44 1.252 . S
C64 O47 1.268 . S
C64 C57 1.506 . S
C65 C32 1.439 . S
C65 H42 0.931 . S
C65 C66 1.374 1_556 S
C66 C37 1.387 . S
C66 H43 0.931 . S
C66 C65 1.374 1_554 S
C67 O51 1.249 . S
C67 O52 1.264 . S
C68 C71 1.382 . S
C68 C72 1.390 . S
C68 C75 1.506 . S
C69 C70 1.398 . S
C69 C72 1.392 . S
C70 C69 1.398 . S
C70 C73 1.372 . S
C70 H80 0.931 . S
C71 C68 1.382 . S
C71 C73 1.390 . S
C71 H81 0.931 . S
C72 C68 1.390 . S
C72 C69 1.392 . S
C72 H82 0.930 . S
C73 C70 1.372 . S
C73 C71 1.390 . S
C73 H83 0.929 . S
C74 O54 1.255 1_556 S
C74 O55 1.257 . S
C75 Eu11 2.787 . S
C75 O50 1.252 . S
C75 O53 1.268 . S
C75 C68 1.506 . S
H76 C59 0.931 . S
H77 C60 0.931 1_556 S
H78 C61 0.929 1_556 S
H79 C62 0.930 . S
H80 C70 0.931 . S
H81 C71 0.931 . S
H82 C72 0.930 . S
H83 C73 0.929 . S
Eu84 N113 2.600 . S
Eu84 N119 2.562 . S
Eu84 O128 2.462 . S
Eu84 O129 2.373 . S
Eu84 O131 2.432 . S
Eu84 O132 2.300 . S
Eu84 O136 2.335 . S
Eu84 O139 2.372 . S
Eu84 C148 2.787 . S
C85 N86 1.365 1_554 S
C85 C88 1.405 1_554 S
C85 C92 1.448 . S
N86 C85 1.365 1_556 S
N86 C89 1.319 . S
N86 Eu95 2.600 1_556 S
C87 C89 1.397 . S
C87 C90 1.367 . S
C87 H107 0.931 . S
C88 C85 1.405 1_556 S
C88 C90 1.403 . S
C88 C94 1.439 . S
C89 N86 1.319 . S
C89 C87 1.397 . S
C89 H100 0.930 . S
C90 C87 1.367 . S
C90 C88 1.403 . S
C90 H111 0.929 . S
C91 C92 1.430 . S
C91 C93 1.387 . S
C91 C97 1.404 . S
C92 C85 1.448 . S
C92 C91 1.430 . S
C92 N96 1.351 . S
C93 C91 1.387 . S
C93 C94 1.374 1_554 S
C93 H108 0.931 1_655 S
C94 C88 1.439 . S
C94 C93 1.374 1_556 S
C94 H109 0.931 . S
Eu95 N86 2.600 1_554 S
Eu95 N96 2.562 . S
Eu95 O130 2.335 . S
Eu95 O133 2.372 1_554 S
Eu95 O134 2.462 . S
Eu95 O135 2.373 . S
Eu95 O137 2.432 1_554 S
Eu95 O138 2.291 . S
Eu95 C159 2.787 . S
N96 C92 1.351 . S
N96 Eu95 2.562 . S
N96 C98 1.325 . S
C97 C91 1.404 . S
C97 C99 1.366 . S
C97 H105 0.930 . S
C98 N96 1.325 . S
C98 C99 1.416 . S
C98 H104 0.929 . S
C99 C97 1.366 . S
C99 C98 1.416 . S
C99 H101 0.930 . S
H100 C89 0.930 . S
H101 C99 0.930 . S
H102 C117 0.930 . S
H103 C124 0.930 . S
H104 C98 0.929 . S
H105 C97 0.930 . S
H106 C120 0.929 . S
H107 C87 0.931 . S
H108 C93 0.931 1_455 S
H109 C94 0.931 . S
H110 C115 0.931 . S
H111 C90 0.929 . S
H112 C123 0.930 . S
N113 Eu84 2.600 . S
N113 C114 1.365 . S
N113 C117 1.319 . S
C114 N113 1.365 . S
C114 C116 1.405 . S
C114 C122 1.448 . S
C115 H110 0.931 . S
C115 C117 1.397 . S
C115 C118 1.367 . S
C116 C114 1.405 . S
C116 C118 1.403 . S
C116 C149 1.439 . S
C117 H102 0.930 . S
C117 N113 1.319 . S
C117 C115 1.397 . S
C118 C115 1.367 . S
C118 C116 1.403 . S
C118 H125 0.929 . S
N119 Eu84 2.562 . S
N119 C120 1.325 1_554 S
N119 C122 1.351 . S
C120 H106 0.929 . S
C120 N119 1.325 1_556 S
C120 C124 1.416 . S
C121 C122 1.430 . S
C121 C123 1.404 1_554 S
C121 C150 1.387 . S
C122 C114 1.448 . S
C122 N119 1.351 . S
C122 C121 1.430 . S
C123 H112 0.930 . S
C123 C121 1.404 1_556 S
C123 C124 1.366 . S
C124 H103 0.930 . S
C124 C120 1.416 . S
C124 C123 1.366 . S
H125 C118 0.929 . S
H126 C149 0.931 . S
H127 C150 0.931 . S
O128 Eu84 2.462 . S
O128 C148 1.252 . S
O129 Eu84 2.373 . S
O129 C140 1.249 . S
O130 Eu95 2.335 . S
O130 C140 1.264 . S
O131 Eu84 2.432 . S
O131 C148 1.268 . S
O132 Eu84 2.300 . S
O132 C147 1.247 1_554 S
O133 Eu95 2.372 1_556 S
O133 C147 1.257 . S
O134 Eu95 2.462 . S
O134 C159 1.252 . S
O135 Eu95 2.373 . S
O135 C151 1.249 . S
O136 Eu84 2.335 . S
O136 C151 1.264 . S
O137 Eu95 2.432 1_556 S
O137 C159 1.268 1_556 S
O138 Eu95 2.291 . S
O138 C158 1.255 . S
O139 Eu84 2.372 . S
O139 C158 1.257 . S
C140 O129 1.249 . S
C140 O130 1.264 . S
C141 C144 1.382 . S
C141 C146 1.390 . S
C141 C148 1.506 . S
C142 C143 1.398 . S
C142 C146 1.392 . S
C143 C142 1.398 . S
C143 C145 1.372 . S
C143 H160 0.931 . S
C144 C141 1.382 . S
C144 C145 1.390 . S
C144 H161 0.931 . S
C145 C143 1.372 . S
C145 C144 1.390 . S
C145 H162 0.929 . S
C146 C141 1.390 . S
C146 C142 1.392 . S
C146 H163 0.930 . S
C147 O132 1.247 1_556 S
C147 O133 1.257 . S
C148 Eu84 2.787 . S
C148 O128 1.252 . S
C148 O131 1.268 . S
C148 C141 1.506 . S
C149 C116 1.439 . S
C149 H126 0.931 . S
C149 C150 1.374 . S
C150 C121 1.387 . S
C150 H127 0.931 . S
C150 C149 1.374 . S
C151 O135 1.249 . S
C151 O136 1.264 . S
C152 C155 1.382 1_554 S
C152 C156 1.390 . S
C152 C159 1.506 . S
C153 C154 1.398 . S
C153 C156 1.392 . S
C154 C153 1.398 . S
C154 C157 1.372 1_554 S
C154 H164 0.931 . S
C155 C152 1.382 1_556 S
C155 C157 1.390 . S
C155 H165 0.931 . S
C156 C152 1.390 . S
C156 C153 1.392 . S
C156 H166 0.930 . S
C157 C154 1.372 1_556 S
C157 C155 1.390 . S
C157 H167 0.929 . S
C158 O138 1.255 . S
C158 O139 1.257 . S
C159 Eu95 2.787 . S
C159 O134 1.252 . S
C159 O137 1.268 1_554 S
C159 C152 1.506 . S
H160 C143 0.931 . S
H161 C144 0.931 . S
H162 C145 0.929 . S
H163 C146 0.930 . S
H164 C154 0.931 . S
H165 C155 0.931 . S
H166 C156 0.930 . S
H167 C157 0.929 . S
Eu168 N197 2.600 . S
Eu168 N203 2.562 1_556 S
Eu168 O212 2.462 1_556 S
Eu168 O213 2.373 . S
Eu168 O215 2.432 . S
Eu168 O216 2.291 1_556 S
Eu168 O220 2.335 . S
Eu168 O223 2.372 . S
Eu168 C232 2.787 1_556 S
C169 N170 1.365 . S
C169 C172 1.405 . S
C169 C176 1.448 1_554 S
N170 C169 1.365 . S
N170 C173 1.319 . S
N170 Eu179 2.600 . S
C171 C173 1.397 . S
C171 C174 1.367 . S
C171 H191 0.931 . S
C172 C169 1.405 . S
C172 C174 1.403 . S
C172 C178 1.439 . S
C173 N170 1.319 . S
C173 C171 1.397 . S
C173 H184 0.930 . S
C174 C171 1.367 . S
C174 C172 1.403 . S
C174 H195 0.929 . S
C175 C176 1.430 . S
C175 C177 1.387 . S
C175 C181 1.404 . S
C176 C169 1.448 1_556 S
C176 C175 1.430 . S
C176 N180 1.351 . S
C177 C175 1.387 . S
C177 C178 1.374 1_556 S
C177 H192 0.931 . S
C178 C172 1.439 . S
C178 C177 1.374 1_554 S
C178 H193 0.931 . S
Eu179 N170 2.600 . S
Eu179 N180 2.562 1_554 S
Eu179 O214 2.335 1_565 S
Eu179 O217 2.372 1_565 S
Eu179 O218 2.462 1_554 S
Eu179 O219 2.373 . S
Eu179 O221 2.432 . S
Eu179 O222 2.291 1_554 S
Eu179 C243 2.787 1_554 S
N180 C176 1.351 . S
N180 Eu179 2.562 1_556 S
N180 C182 1.325 . S
C181 C175 1.404 . S
C181 C183 1.366 . S
C181 H189 0.930 . S
C182 N180 1.325 . S
C182 C183 1.416 . S
C182 H188 0.929 . S
C183 C181 1.366 . S
C183 C182 1.416 . S
C183 H185 0.930 . S
H184 C173 0.930 . S
H185 C183 0.930 . S
H186 C201 0.930 . S
H187 C208 0.930 . S
H188 C182 0.929 . S
H189 C181 0.930 . S
H190 C204 0.929 . S
H191 C171 0.931 . S
H192 C177 0.931 . S
H193 C178 0.931 . S
H194 C199 0.931 . S
H195 C174 0.929 . S
H196 C207 0.930 . S
N197 Eu168 2.600 . S
N197 C198 1.365 . S
N197 C201 1.319 . S
C198 N197 1.365 . S
C198 C200 1.405 . S
C198 C206 1.448 1_556 S
C199 H194 0.931 . S
C199 C201 1.397 . S
C199 C202 1.367 . S
C200 C198 1.405 . S
C200 C202 1.403 . S
C200 C233 1.439 . S
C201 H186 0.930 . S
C201 N197 1.319 . S
C201 C199 1.397 . S
C202 C199 1.367 . S
C202 C200 1.403 . S
C202 H209 0.929 . S
N203 Eu168 2.562 1_554 S
N203 C204 1.325 . S
N203 C206 1.351 . S
C204 H190 0.929 . S
C204 N203 1.325 . S
C204 C208 1.416 . S
C205 C206 1.430 . S
C205 C207 1.404 . S
C205 C234 1.387 . S
C206 C198 1.448 1_554 S
C206 N203 1.351 . S
C206 C205 1.430 . S
C207 H196 0.930 . S
C207 C205 1.404 . S
C207 C208 1.366 . S
C208 H187 0.930 . S
C208 C204 1.416 . S
C208 C207 1.366 . S
H209 C202 0.929 . S
H210 C233 0.931 . S
H211 C234 0.931 . S
O212 Eu168 2.462 1_554 S
O212 C232 1.252 . S
O213 Eu168 2.373 . S
O213 C224 1.249 1_556 S
O214 Eu179 2.335 1_545 S
O214 C224 1.264 . S
O215 Eu168 2.432 . S
O215 C232 1.268 1_556 S
O216 Eu168 2.291 1_554 S
O216 C231 1.255 . S
O217 Eu179 2.372 1_545 S
O217 C231 1.257 . S
O218 Eu179 2.462 1_556 S
O218 C243 1.252 . S
O219 Eu179 2.373 . S
O219 C235 1.249 1_554 S
O220 Eu168 2.335 . S
O220 C235 1.264 1_545 S
O221 Eu179 2.432 . S
O221 C243 1.268 1_554 S
O222 Eu179 2.291 1_556 S
O222 C242 1.255 1_565 S
O223 Eu168 2.372 . S
O223 C242 1.257 . S
C224 O213 1.249 1_554 S
C224 O214 1.264 . S
C225 C228 1.382 1_554 S
C225 C230 1.390 . S
C225 C232 1.506 . S
C226 C227 1.398 . S
C226 C230 1.392 . S
C227 C226 1.398 . S
C227 C229 1.372 1_554 S
C227 H244 0.931 . S
C228 C225 1.382 1_556 S
C228 C229 1.390 . S
C228 H245 0.931 . S
C229 C227 1.372 1_556 S
C229 C228 1.390 . S
C229 H246 0.929 . S
C230 C225 1.390 . S
C230 C226 1.392 . S
C230 H247 0.930 . S
C231 O216 1.255 . S
C231 O217 1.257 . S
C232 Eu168 2.787 1_554 S
C232 O212 1.252 . S
C232 O215 1.268 1_554 S
C232 C225 1.506 . S
C233 C200 1.439 . S
C233 H210 0.931 . S
C233 C234 1.374 1_556 S
C234 C205 1.387 . S
C234 H211 0.931 . S
C234 C233 1.374 1_554 S
C235 O219 1.249 1_556 S
C235 O220 1.264 1_565 S
C236 C239 1.382 1_556 S
C236 C240 1.390 . S
C236 C243 1.506 . S
C237 C238 1.398 . S
C237 C240 1.392 . S
C238 C237 1.398 . S
C238 C241 1.372 1_556 S
C238 H248 0.931 . S
C239 C236 1.382 1_554 S
C239 C241 1.390 . S
C239 H249 0.931 . S
C240 C236 1.390 . S
C240 C237 1.392 . S
C240 H250 0.930 . S
C241 C238 1.372 1_554 S
C241 C239 1.390 . S
C241 H251 0.929 . S
C242 O222 1.255 1_545 S
C242 O223 1.257 . S
C243 Eu179 2.787 1_556 S
C243 O218 1.252 . S
C243 O221 1.268 1_556 S
C243 C236 1.506 . S
H244 C227 0.931 . S
H245 C228 0.931 . S
H246 C229 0.929 . S
H247 C230 0.930 . S
H248 C238 0.931 . S
H249 C239 0.931 . S
H250 C240 0.930 . S
H251 C241 0.929 . S
Eu252 N281 2.600 . S
Eu252 N287 2.562 . S
Eu252 O296 2.462 . S
Eu252 O297 2.373 . S
Eu252 O299 2.432 . S
Eu252 O300 2.291 . S
Eu252 O304 2.335 . S
Eu252 O307 2.372 . S
Eu252 C316 2.787 . S
C253 N254 1.365 1_554 S
C253 C256 1.405 1_554 S
C253 C260 1.448 . S
N254 C253 1.365 1_556 S
N254 C257 1.319 . S
N254 Eu263 2.600 1_556 S
C255 C257 1.397 . S
C255 C258 1.367 . S
C255 H275 0.931 . S
C256 C253 1.405 1_556 S
C256 C258 1.403 . S
C256 C262 1.439 . S
C257 N254 1.319 . S
C257 C255 1.397 . S
C257 H268 0.930 . S
C258 C255 1.367 . S
C258 C256 1.403 . S
C258 H279 0.929 . S
C259 C260 1.430 . S
C259 C261 1.387 . S
C259 C265 1.404 . S
C260 C253 1.448 . S
C260 C259 1.430 . S
C260 N264 1.351 . S
C261 C259 1.387 . S
C261 C262 1.374 1_554 S
C261 H276 0.931 . S
C262 C256 1.439 . S
C262 C261 1.374 1_556 S
C262 H277 0.931 . S
Eu263 N254 2.600 1_554 S
Eu263 N264 2.562 . S
Eu263 O298 2.335 . S
Eu263 O301 2.372 1_554 S
Eu263 O302 2.462 . S
Eu263 O303 2.373 . S
Eu263 O305 2.432 . S
Eu263 O306 2.291 . S
Eu263 C327 2.787 . S
N264 C260 1.351 . S
N264 Eu263 2.562 . S
N264 C266 1.325 . S
C265 C259 1.404 . S
C265 C267 1.366 . S
C265 H273 0.930 . S
C266 N264 1.325 . S
C266 C267 1.416 . S
C266 H272 0.929 . S
C267 C265 1.366 . S
C267 C266 1.416 . S
C267 H269 0.930 . S
H268 C257 0.930 . S
H269 C267 0.930 . S
H270 C285 0.930 . S
H271 C292 0.930 1_556 S
H272 C266 0.929 . S
H273 C265 0.930 . S
H274 C288 0.928 1_556 S
H275 C255 0.931 . S
H276 C261 0.931 . S
H277 C262 0.931 . S
H278 C283 0.931 . S
H279 C258 0.929 . S
H280 C291 0.930 . S
N281 Eu252 2.600 . S
N281 C282 1.365 . S
N281 C285 1.319 . S
C282 N281 1.365 . S
C282 C284 1.405 . S
C282 C290 1.448 . S
C283 H278 0.931 . S
C283 C285 1.397 . S
C283 C286 1.367 . S
C284 C282 1.405 . S
C284 C286 1.403 . S
C284 C317 1.439 . S
C285 H270 0.930 . S
C285 N281 1.319 . S
C285 C283 1.397 . S
C286 C283 1.367 . S
C286 C284 1.403 . S
C286 H293 0.929 . S
N287 Eu252 2.562 . S
N287 C288 1.325 . S
N287 C290 1.351 . S
C288 H274 0.928 1_554 S
C288 N287 1.325 . S
C288 C292 1.416 . S
C289 C290 1.430 . S
C289 C291 1.404 . S
C289 C318 1.387 . S
C290 C282 1.448 . S
C290 N287 1.351 . S
C290 C289 1.430 . S
C291 H280 0.930 . S
C291 C289 1.404 . S
C291 C292 1.366 . S
C292 H271 0.930 1_554 S
C292 C288 1.416 . S
C292 C291 1.366 . S
H293 C286 0.929 . S
H294 C317 0.931 . S
H295 C318 0.931 . S
O296 Eu252 2.462 . S
O296 C316 1.252 . S
O297 Eu252 2.373 . S
O297 C308 1.249 . S
O298 Eu263 2.335 . S
O298 C308 1.264 . S
O299 Eu252 2.432 . S
O299 C316 1.268 . S
O300 Eu252 2.291 . S
O300 C315 1.255 1_554 S
O301 Eu263 2.372 1_556 S
O301 C315 1.257 . S
O302 Eu263 2.462 . S
O302 C327 1.252 . S
O303 Eu263 2.373 . S
O303 C319 1.249 . S
O304 Eu252 2.335 . S
O304 C319 1.264 . S
O305 Eu263 2.432 . S
O305 C327 1.268 . S
O306 Eu263 2.291 . S
O306 C326 1.255 . S
O307 Eu252 2.372 . S
O307 C326 1.257 . S
C308 O297 1.249 . S
C308 O298 1.264 . S
C309 C312 1.382 . S
C309 C314 1.390 . S
C309 C316 1.506 . S
C310 C311 1.398 . S
C310 C314 1.392 . S
C311 C310 1.398 . S
C311 C313 1.372 . S
C311 H328 0.931 . S
C312 C309 1.382 . S
C312 C313 1.390 . S
C312 H329 0.931 . S
C313 C311 1.372 . S
C313 C312 1.390 . S
C313 H330 0.929 . S
C314 C309 1.390 . S
C314 C310 1.392 . S
C314 H331 0.930 1_554 S
C315 O300 1.255 1_556 S
C315 O301 1.257 . S
C316 Eu252 2.787 . S
C316 O296 1.252 . S
C316 O299 1.268 . S
C316 C309 1.506 . S
C317 C284 1.439 . S
C317 H294 0.931 . S
C317 C318 1.374 . S
C318 C289 1.387 . S
C318 H295 0.931 . S
C318 C317 1.374 . S
C319 O303 1.249 . S
C319 O304 1.264 . S
C320 C323 1.382 . S
C320 C324 1.390 . S
C320 C327 1.506 . S
C321 C322 1.398 . S
C321 C324 1.392 . S
C322 C321 1.398 . S
C322 C325 1.372 . S
C322 H332 0.931 . S
C323 C320 1.382 . S
C323 C325 1.390 . S
C323 H333 0.931 . S
C324 C320 1.390 . S
C324 C321 1.392 . S
C324 H334 0.930 . S
C325 C322 1.372 . S
C325 C323 1.390 . S
C325 H335 0.929 . S
C326 O306 1.255 . S
C326 O307 1.257 . S
C327 Eu263 2.787 . S
C327 O302 1.252 . S
C327 O305 1.268 . S
C327 C320 1.506 . S
H328 C311 0.931 . S
H329 C312 0.931 . S
H330 C313 0.929 . S
H331 C314 0.930 1_556 S
H332 C322 0.931 . S
H333 C323 0.931 . S
H334 C324 0.930 . S
H335 C325 0.929 . S
Eu336 N365 2.600 . S
Eu336 N371 2.562 . S
Eu336 O380 2.460 1_554 S
Eu336 O381 2.373 . S
Eu336 O383 2.432 . S
Eu336 O384 2.291 1_554 S
Eu336 O388 2.335 . S
Eu336 O391 2.372 . S
Eu336 C400 2.787 . S
C337 N338 1.365 . S
C337 C340 1.405 . S
C337 C344 1.448 1_556 S
N338 C337 1.365 . S
N338 C341 1.319 . S
N338 Eu347 2.600 1_556 S
C339 C341 1.397 . S
C339 C342 1.367 . S
C339 H359 0.931 . S
C340 C337 1.405 . S
C340 C342 1.403 . S
C340 C346 1.439 . S
C341 N338 1.319 . S
C341 C339 1.397 . S
C341 H352 0.930 . S
C342 C339 1.367 . S
C342 C340 1.403 . S
C342 H363 0.929 . S
C343 C344 1.430 . S
C343 C345 1.387 . S
C343 C349 1.404 . S
C344 C337 1.448 1_554 S
C344 C343 1.430 . S
C344 N348 1.351 . S
C345 C343 1.387 . S
C345 C346 1.374 1_554 S
C345 H360 0.931 . S
C346 C340 1.439 . S
C346 C345 1.374 1_556 S
C346 H361 0.931 . S
Eu347 N338 2.600 1_554 S
Eu347 N348 2.562 . S
Eu347 O382 2.335 . S
Eu347 O385 2.372 1_554 S
Eu347 O386 2.462 . S
Eu347 O387 2.373 . S
Eu347 O389 2.432 1_554 S
Eu347 O390 2.291 . S
Eu347 C411 2.787 . S
N348 C344 1.351 . S
N348 Eu347 2.562 . S
N348 C350 1.325 . S
C349 C343 1.404 . S
C349 C351 1.366 . S
C349 H357 0.930 . S
C350 N348 1.325 . S
C350 C351 1.416 . S
C350 H356 0.929 . S
C351 C349 1.366 . S
C351 C350 1.416 . S
C351 H353 0.930 . S
H352 C341 0.930 . S
H353 C351 0.930 . S
H354 C369 0.930 . S
H355 C376 0.930 . S
H356 C350 0.929 . S
H357 C349 0.930 . S
H358 C372 0.929 . S
H359 C339 0.931 . S
H360 C345 0.931 . S
H361 C346 0.931 . S
H362 C367 0.931 . S
H363 C342 0.929 . S
H364 C375 0.930 . S
N365 Eu336 2.600 . S
N365 C366 1.365 . S
N365 C369 1.319 . S
C366 N365 1.365 . S
C366 C368 1.405 . S
C366 C374 1.448 . S
C367 H362 0.931 . S
C367 C369 1.397 . S
C367 C370 1.367 . S
C368 C366 1.405 . S
C368 C370 1.403 . S
C368 C401 1.439 . S
C369 H354 0.930 . S
C369 N365 1.319 . S
C369 C367 1.397 . S
C370 C367 1.367 . S
C370 C368 1.403 . S
C370 H377 0.929 . S
N371 Eu336 2.562 . S
N371 C372 1.325 1_554 S
N371 C374 1.351 . S
C372 H358 0.929 . S
C372 N371 1.325 1_556 S
C372 C376 1.416 . S
C373 C374 1.430 . S
C373 C375 1.404 1_554 S
C373 C402 1.387 . S
C374 C366 1.448 . S
C374 N371 1.351 . S
C374 C373 1.430 . S
C375 H364 0.930 . S
C375 C373 1.404 1_556 S
C375 C376 1.366 . S
C376 H355 0.930 . S
C376 C372 1.416 . S
C376 C375 1.366 . S
H377 C370 0.929 . S
H378 C401 0.931 . S
H379 C402 0.931 . S
O380 Eu336 2.460 1_556 S
O380 C400 1.250 1_556 S
O381 Eu336 2.373 . S
O381 C392 1.249 . S
O382 Eu347 2.335 . S
O382 C392 1.264 . S
O383 Eu336 2.432 . S
O383 C400 1.268 . S
O384 Eu336 2.291 1_556 S
O384 C399 1.255 . S
O385 Eu347 2.372 1_556 S
O385 C399 1.257 . S
O386 Eu347 2.462 . S
O386 C411 1.252 . S
O387 Eu347 2.373 . S
O387 C403 1.249 . S
O388 Eu336 2.335 . S
O388 C403 1.264 . S
O389 Eu347 2.432 1_556 S
O389 C411 1.268 1_556 S
O390 Eu347 2.291 . S
O390 C410 1.255 . S
O391 Eu336 2.372 . S
O391 C410 1.257 . S
C392 O381 1.249 . S
C392 O382 1.264 . S
C393 C396 1.382 . S
C393 C398 1.390 1_554 S
C393 C400 1.506 . S
C394 C395 1.398 1_556 S
C394 C398 1.392 . S
C395 C394 1.398 1_554 S
C395 C397 1.372 . S
C395 H412 0.931 . S
C396 C393 1.382 . S
C396 C397 1.390 . S
C396 H413 0.931 . S
C397 C395 1.372 . S
C397 C396 1.390 . S
C397 H414 0.929 . S
C398 C393 1.390 1_556 S
C398 C394 1.392 . S
C398 H415 0.930 . S
C399 O384 1.255 . S
C399 O385 1.257 . S
C400 Eu336 2.787 . S
C400 O380 1.250 1_554 S
C400 O383 1.268 . S
C400 C393 1.506 . S
C401 C368 1.439 . S
C401 H378 0.931 . S
C401 C402 1.374 . S
C402 C373 1.387 . S
C402 H379 0.931 . S
C402 C401 1.374 . S
C403 O387 1.249 . S
C403 O388 1.264 . S
C404 C407 1.382 1_554 S
C404 C408 1.390 . S
C404 C411 1.506 . S
C405 C406 1.398 . S
C405 C408 1.392 . S
C406 C405 1.398 . S
C406 C409 1.372 1_554 S
C406 H416 0.931 . S
C407 C404 1.382 1_556 S
C407 C409 1.390 . S
C407 H417 0.931 . S
C408 C404 1.390 . S
C408 C405 1.392 . S
C408 H418 0.930 . S
C409 C406 1.372 1_556 S
C409 C407 1.390 . S
C409 H419 0.929 . S
C410 O390 1.255 . S
C410 O391 1.257 . S
C411 Eu347 2.787 . S
C411 O386 1.252 . S
C411 O389 1.268 1_554 S
C411 C404 1.506 . S
H412 C395 0.931 . S
H413 C396 0.931 . S
H414 C397 0.929 . S
H415 C398 0.930 . S
H416 C406 0.931 . S
H417 C407 0.931 . S
H418 C408 0.930 . S
H419 C409 0.929 . S
Eu420 N449 2.600 . S
Eu420 N455 2.562 . S
Eu420 O464 2.462 . S
Eu420 O465 2.373 . S
Eu420 O467 2.432 . S
Eu420 O468 2.291 . S
Eu420 O472 2.335 . S
Eu420 O475 2.372 . S
Eu420 C484 2.787 . S
C421 N422 1.365 . S
C421 C424 1.405 . S
C421 C428 1.448 . S
N422 C421 1.365 . S
N422 C425 1.319 . S
N422 Eu431 2.600 . S
C423 C425 1.397 1_556 S
C423 C426 1.367 1_556 S
C423 H443 0.931 . S
C424 C421 1.405 . S
C424 C426 1.403 . S
C424 C430 1.439 . S
C425 N422 1.319 . S
C425 C423 1.397 1_554 S
C425 H436 0.930 1_554 S
C426 C423 1.367 1_554 S
C426 C424 1.403 . S
C426 H447 0.929 1_554 S
C427 C428 1.430 . S
C427 C429 1.387 . S
C427 C433 1.404 . S
C428 C421 1.448 . S
C428 C427 1.430 . S
C428 N432 1.351 . S
C429 C427 1.387 . S
C429 C430 1.374 . S
C429 H444 0.931 . S
C430 C424 1.439 . S
C430 C429 1.374 . S
C430 H445 0.931 . S
Eu431 N422 2.600 . S
Eu431 N432 2.562 . S
Eu431 O466 2.335 . S
Eu431 O469 2.372 . S
Eu431 O470 2.462 . S
Eu431 O471 2.373 . S
Eu431 O473 2.432 . S
Eu431 O474 2.291 . S
Eu431 C495 2.787 . S
N432 C428 1.351 . S
N432 Eu431 2.562 . S
N432 C434 1.325 . S
C433 C427 1.404 . S
C433 C435 1.366 . S
C433 H441 0.930 . S
C434 N432 1.325 . S
C434 C435 1.416 . S
C434 H440 0.929 . S
C435 C433 1.366 . S
C435 C434 1.416 . S
C435 H437 0.930 . S
H436 C425 0.930 1_556 S
H437 C435 0.930 . S
H438 C453 0.930 . S
H439 C460 0.930 . S
H440 C434 0.929 . S
H441 C433 0.930 . S
H442 C456 0.929 1_556 S
H443 C423 0.931 . S
H444 C429 0.931 . S
H445 C430 0.931 . S
H446 C451 0.931 . S
H447 C426 0.929 1_556 S
H448 C459 0.930 . S
N449 Eu420 2.600 . S
N449 C450 1.365 . S
N449 C453 1.319 . S
C450 N449 1.365 . S
C450 C452 1.405 . S
C450 C458 1.448 . S
C451 H446 0.931 . S
C451 C453 1.397 . S
C451 C454 1.367 . S
C452 C450 1.405 . S
C452 C454 1.403 . S
C452 C485 1.439 . S
C453 H438 0.930 . S
C453 N449 1.319 . S
C453 C451 1.397 . S
C454 C451 1.367 . S
C454 C452 1.403 . S
C454 H461 0.929 . S
N455 Eu420 2.562 . S
N455 C456 1.325 . S
N455 C458 1.351 . S
C456 H442 0.929 1_554 S
C456 N455 1.325 . S
C456 C460 1.416 1_554 S
C457 C458 1.430 . S
C457 C459 1.404 1_554 S
C457 C486 1.387 . S
C458 C450 1.448 . S
C458 N455 1.351 . S
C458 C457 1.430 . S
C459 H448 0.930 . S
C459 C457 1.404 1_556 S
C459 C460 1.366 . S
C460 H439 0.930 . S
C460 C456 1.416 1_556 S
C460 C459 1.366 . S
H461 C454 0.929 . S
H462 C485 0.931 . S
H463 C486 0.931 . S
O464 Eu420 2.462 . S
O464 C484 1.252 . S
O465 Eu420 2.373 . S
O465 C476 1.249 . S
O466 Eu431 2.335 . S
O466 C476 1.264 . S
O467 Eu420 2.432 . S
O467 C484 1.268 . S
O468 Eu420 2.291 . S
O468 C483 1.255 . S
O469 Eu431 2.372 . S
O469 C483 1.257 . S
O470 Eu431 2.462 . S
O470 C495 1.252 . S
O471 Eu431 2.373 . S
O471 C487 1.249 . S
O472 Eu420 2.335 . S
O472 C487 1.264 . S
O473 Eu431 2.432 . S
O473 C495 1.268 . S
O474 Eu431 2.291 . S
O474 C494 1.255 . S
O475 Eu420 2.372 . S
O475 C494 1.257 . S
C476 O465 1.249 . S
C476 O466 1.264 . S
C477 C480 1.382 . S
C477 C482 1.390 1_554 S
C477 C484 1.506 . S
C478 C479 1.398 1_556 S
C478 C482 1.392 . S
C479 C478 1.398 1_554 S
C479 C481 1.372 . S
C479 H496 0.931 . S
C480 C477 1.382 . S
C480 C481 1.390 . S
C480 H497 0.931 . S
C481 C479 1.372 . S
C481 C480 1.390 . S
C481 H498 0.929 . S
C482 C477 1.390 1_556 S
C482 C478 1.392 . S
C482 H499 0.930 . S
C483 O468 1.255 . S
C483 O469 1.257 . S
C484 Eu420 2.787 . S
C484 O464 1.252 . S
C484 O467 1.268 . S
C484 C477 1.506 . S
C485 C452 1.439 . S
C485 H462 0.931 . S
C485 C486 1.374 . S
C486 C457 1.387 . S
C486 H463 0.931 . S
C486 C485 1.374 . S
C487 O471 1.249 . S
C487 O472 1.264 . S
C488 C491 1.382 . S
C488 C492 1.390 . S
C488 C495 1.506 1_455 S
C489 C490 1.398 . S
C489 C492 1.392 . S
C490 C489 1.398 . S
C490 C493 1.372 . S
C490 H500 0.931 . S
C491 C488 1.382 . S
C491 C493 1.390 . S
C491 H501 0.931 . S
C492 C488 1.390 . S
C492 C489 1.392 . S
C492 H502 0.930 . S
C493 C490 1.372 . S
C493 C491 1.390 . S
C493 H503 0.929 . S
C494 O474 1.255 . S
C494 O475 1.257 . S
C495 Eu431 2.787 . S
C495 O470 1.252 . S
C495 O473 1.268 . S
C495 C488 1.506 1_655 S
H496 C479 0.931 . S
H497 C480 0.931 . S
H498 C481 0.929 . S
H499 C482 0.930 . S
H500 C490 0.931 . S
H501 C491 0.931 . S
H502 C492 0.930 . S
H503 C493 0.929 . S
Eu504 N533 2.600 . S
Eu504 N539 2.562 . S
Eu504 O548 2.462 . S
Eu504 O549 2.373 . S
Eu504 O551 2.432 . S
Eu504 O552 2.291 . S
Eu504 O556 2.335 . S
Eu504 O559 2.372 . S
Eu504 C568 2.787 . S
C505 N506 1.365 . S
C505 C508 1.405 . S
C505 C512 1.448 . S
N506 C505 1.365 . S
N506 C509 1.319 . S
N506 Eu515 2.600 . S
C507 C509 1.397 1_554 S
C507 C510 1.367 . S
C507 H527 0.931 . S
C508 C505 1.405 . S
C508 C510 1.403 1_556 S
C508 C514 1.439 . S
C509 N506 1.319 . S
C509 C507 1.397 1_556 S
C509 H520 0.930 1_556 S
C510 C507 1.367 . S
C510 C508 1.403 1_554 S
C510 H531 0.929 . S
C511 C512 1.430 . S
C511 C513 1.387 . S
C511 C517 1.404 . S
C512 C505 1.448 . S
C512 C511 1.430 . S
C512 N516 1.351 . S
C513 C511 1.387 . S
C513 C514 1.374 . S
C513 H528 0.931 . S
C514 C508 1.439 . S
C514 C513 1.374 . S
C514 H529 0.931 . S
Eu515 N506 2.600 . S
Eu515 N516 2.562 . S
Eu515 O550 2.335 . S
Eu515 O553 2.372 . S
Eu515 O554 2.462 . S
Eu515 O555 2.373 . S
Eu515 O557 2.432 . S
Eu515 O558 2.291 . S
Eu515 C579 2.787 . S
N516 C512 1.351 . S
N516 Eu515 2.562 . S
N516 C518 1.325 . S
C517 C511 1.404 . S
C517 C519 1.366 . S
C517 H525 0.930 . S
C518 N516 1.325 . S
C518 C519 1.416 . S
C518 H524 0.929 . S
C519 C517 1.366 . S
C519 C518 1.416 . S
C519 H521 0.930 . S
H520 C509 0.930 1_554 S
H521 C519 0.930 . S
H522 C537 0.930 . S
H523 C544 0.930 . S
H524 C518 0.929 . S
H525 C517 0.930 . S
H526 C540 0.929 . S
H527 C507 0.931 . S
H528 C513 0.931 . S
H529 C514 0.931 . S
H530 C535 0.931 . S
H531 C510 0.929 . S
H532 C543 0.930 . S
N533 Eu504 2.600 . S
N533 C534 1.365 . S
N533 C537 1.319 . S
C534 N533 1.365 . S
C534 C536 1.405 . S
C534 C542 1.448 . S
C535 H530 0.931 . S
C535 C537 1.397 . S
C535 C538 1.367 . S
C536 C534 1.405 . S
C536 C538 1.403 . S
C536 C569 1.439 . S
C537 H522 0.930 . S
C537 N533 1.319 . S
C537 C535 1.397 . S
C538 C535 1.367 . S
C538 C536 1.403 . S
C538 H545 0.929 . S
N539 Eu504 2.562 . S
N539 C540 1.325 . S
N539 C542 1.351 . S
C540 H526 0.929 . S
C540 N539 1.325 . S
C540 C544 1.416 . S
C541 C542 1.430 . S
C541 C543 1.404 . S
C541 C570 1.387 . S
C542 C534 1.448 . S
C542 N539 1.351 . S
C542 C541 1.430 . S
C543 H532 0.930 . S
C543 C541 1.404 . S
C543 C544 1.366 . S
C544 H523 0.930 . S
C544 C540 1.416 . S
C544 C543 1.366 . S
H545 C538 0.929 . S
H546 C569 0.931 . S
H547 C570 0.931 . S
O548 Eu504 2.462 . S
O548 C568 1.252 . S
O549 Eu504 2.373 . S
O549 C560 1.249 . S
O550 Eu515 2.335 . S
O550 C560 1.264 . S
O551 Eu504 2.432 . S
O551 C568 1.268 . S
O552 Eu504 2.291 . S
O552 C567 1.255 . S
O553 Eu515 2.372 . S
O553 C567 1.257 . S
O554 Eu515 2.462 . S
O554 C579 1.252 . S
O555 Eu515 2.373 . S
O555 C571 1.249 . S
O556 Eu504 2.335 . S
O556 C571 1.264 . S
O557 Eu515 2.432 . S
O557 C579 1.268 . S
O558 Eu515 2.291 . S
O558 C578 1.255 . S
O559 Eu504 2.372 . S
O559 C578 1.257 . S
C560 O549 1.249 . S
C560 O550 1.264 . S
C561 C564 1.382 . S
C561 C566 1.390 . S
C561 C568 1.506 . S
C562 C563 1.398 . S
C562 C566 1.392 . S
C563 C562 1.398 . S
C563 C565 1.372 . S
C563 H580 0.931 . S
C564 C561 1.382 . S
C564 C565 1.390 . S
C564 H581 0.931 . S
C565 C563 1.372 . S
C565 C564 1.390 . S
C565 H582 0.929 . S
C566 C561 1.390 . S
C566 C562 1.392 . S
C566 H583 0.930 . S
C567 O552 1.255 . S
C567 O553 1.257 . S
C568 Eu504 2.787 . S
C568 O548 1.252 . S
C568 O551 1.268 . S
C568 C561 1.506 . S
C569 C536 1.439 . S
C569 H546 0.931 . S
C569 C570 1.374 . S
C570 C541 1.387 . S
C570 H547 0.931 . S
C570 C569 1.374 . S
C571 O555 1.249 . S
C571 O556 1.264 . S
C572 C575 1.382 . S
C572 C576 1.390 . S
C572 C579 1.506 . S
C573 C574 1.398 1_565 S
C573 C576 1.392 . S
C574 C573 1.398 1_545 S
C574 C577 1.395 . S
C574 H584 0.931 . S
C575 C572 1.382 . S
C575 C577 1.340 1_565 S
C575 H585 0.931 . S
C576 C572 1.390 . S
C576 C573 1.392 . S
C576 H586 0.930 . S
C577 C574 1.395 . S
C577 C575 1.340 1_545 S
C577 H587 0.959 . S
C578 O558 1.255 . S
C578 O559 1.257 . S
C579 Eu515 2.787 . S
C579 O554 1.252 . S
C579 O557 1.268 . S
C579 C572 1.506 . S
H580 C563 0.931 . S
H581 C564 0.931 . S
H582 C565 0.929 . S
H583 C566 0.930 . S
H584 C574 0.931 . S
H585 C575 0.931 . S
H586 C576 0.930 . S
H587 C577 0.959 . S
Eu588 N617 2.600 . S
Eu588 N623 2.562 . S
Eu588 O632 2.462 . S
Eu588 O633 2.373 . S
Eu588 O635 2.432 . S
Eu588 O636 2.291 . S
Eu588 O640 2.335 . S
Eu588 O643 2.372 1_556 S
Eu588 C652 2.787 . S
C589 N590 1.365 . S
C589 C592 1.405 . S
C589 C596 1.448 . S
N590 C589 1.365 . S
N590 C593 1.319 . S
N590 Eu599 2.600 . S
C591 C593 1.397 . S
C591 C594 1.367 . S
C591 H611 0.931 . S
C592 C589 1.405 . S
C592 C594 1.403 . S
C592 C598 1.439 . S
C593 N590 1.319 . S
C593 C591 1.397 . S
C593 H604 0.930 . S
C594 C591 1.367 . S
C594 C592 1.403 . S
C594 H615 0.929 . S
C595 C596 1.430 . S
C595 C597 1.387 . S
C595 C601 1.404 1_556 S
C596 C589 1.448 . S
C596 C595 1.430 . S
C596 N600 1.351 . S
C597 C595 1.387 . S
C597 C598 1.374 . S
C597 H612 0.931 . S
C598 C592 1.439 . S
C598 C597 1.374 . S
C598 H613 0.931 . S
Eu599 N590 2.600 . S
Eu599 N600 2.562 . S
Eu599 O634 2.335 . S
Eu599 O637 2.372 . S
Eu599 O638 2.462 . S
Eu599 O639 2.373 . S
Eu599 O641 2.432 . S
Eu599 O642 2.291 . S
Eu599 C663 2.787 . S
N600 C596 1.351 . S
N600 Eu599 2.562 . S
N600 C602 1.325 1_556 S
C601 C595 1.404 1_554 S
C601 C603 1.366 . S
C601 H609 0.930 . S
C602 N600 1.325 1_554 S
C602 C603 1.416 . S
C602 H608 0.929 . S
C603 C601 1.366 . S
C603 C602 1.416 . S
C603 H605 0.930 . S
H604 C593 0.930 . S
H605 C603 0.930 . S
H606 C621 0.930 . S
H607 C628 0.930 . S
H608 C602 0.929 . S
H609 C601 0.930 . S
H610 C624 0.929 . S
H611 C591 0.931 . S
H612 C597 0.931 . S
H613 C598 0.931 . S
H614 C619 0.931 . S
H615 C594 0.929 . S
H616 C627 0.930 . S
N617 Eu588 2.600 . S
N617 C618 1.365 . S
N617 C621 1.319 1_556 S
C618 N617 1.365 . S
C618 C620 1.405 . S
C618 C626 1.448 . S
C619 H614 0.931 . S
C619 C621 1.397 . S
C619 C622 1.367 . S
C620 C618 1.405 . S
C620 C622 1.403 1_556 S
C620 C653 1.439 . S
C621 H606 0.930 . S
C621 N617 1.319 1_554 S
C621 C619 1.397 . S
C622 C619 1.367 . S
C622 C620 1.403 1_554 S
C622 H629 0.929 . S
N623 Eu588 2.562 . S
N623 C624 1.325 . S
N623 C626 1.351 . S
C624 H610 0.929 . S
C624 N623 1.325 . S
C624 C628 1.416 . S
C625 C626 1.430 . S
C625 C627 1.404 . S
C625 C654 1.387 . S
C626 C618 1.448 . S
C626 N623 1.351 . S
C626 C625 1.430 . S
C627 H616 0.930 . S
C627 C625 1.404 . S
C627 C628 1.366 . S
C628 H607 0.930 . S
C628 C624 1.416 . S
C628 C627 1.366 . S
H629 C622 0.929 . S
H630 C653 0.931 . S
H631 C654 0.931 . S
O632 Eu588 2.462 . S
O632 C652 1.252 . S
O633 Eu588 2.373 . S
O633 C644 1.249 . S
O634 Eu599 2.335 . S
O634 C644 1.264 . S
O635 Eu588 2.432 . S
O635 C652 1.268 . S
O636 Eu588 2.291 . S
O636 C651 1.255 . S
O637 Eu599 2.372 . S
O637 C651 1.257 . S
O638 Eu599 2.462 . S
O638 C663 1.252 . S
O639 Eu599 2.373 . S
O639 C655 1.249 . S
O640 Eu588 2.335 . S
O640 C655 1.264 . S
O641 Eu599 2.432 . S
O641 C663 1.268 . S
O642 Eu599 2.291 . S
O642 C662 1.255 1_556 S
O643 Eu588 2.372 1_554 S
O643 C662 1.257 . S
C644 O633 1.249 . S
C644 O634 1.264 . S
C645 C648 1.382 . S
C645 C650 1.390 . S
C645 C652 1.506 . S
C646 C647 1.398 . S
C646 C650 1.392 . S
C647 C646 1.398 . S
C647 C649 1.372 . S
C647 H664 0.931 . S
C648 C645 1.382 . S
C648 C649 1.390 . S
C648 H665 0.931 . S
C649 C647 1.372 . S
C649 C648 1.390 . S
C649 H666 0.929 . S
C650 C645 1.390 . S
C650 C646 1.392 . S
C650 H667 0.930 . S
C651 O636 1.255 . S
C651 O637 1.257 . S
C652 Eu588 2.787 . S
C652 O632 1.252 . S
C652 O635 1.268 . S
C652 C645 1.506 . S
C653 C620 1.439 . S
C653 H630 0.931 . S
C653 C654 1.374 . S
C654 C625 1.387 . S
C654 H631 0.931 . S
C654 C653 1.374 . S
C655 O639 1.249 . S
C655 O640 1.264 . S
C656 C659 1.382 . S
C656 C660 1.390 . S
C656 C663 1.506 . S
C657 C658 1.398 . S
C657 C660 1.392 . S
C658 C657 1.398 . S
C658 C661 1.372 . S
C658 H668 0.931 . S
C659 C656 1.382 . S
C659 C661 1.390 . S
C659 H669 0.931 . S
C660 C656 1.390 . S
C660 C657 1.392 . S
C660 H670 0.930 . S
C661 C658 1.372 . S
C661 C659 1.390 . S
C661 H671 0.929 . S
C662 O642 1.255 1_554 S
C662 O643 1.257 . S
C663 Eu599 2.787 . S
C663 O638 1.252 . S
C663 O641 1.268 . S
C663 C656 1.506 . S
H664 C647 0.931 . S
H665 C648 0.931 . S
H666 C649 0.929 . S
H667 C650 0.930 . S
H668 C658 0.931 . S
H669 C659 0.931 . S
H670 C660 0.930 . S
H671 C661 0.929 . S
Eu672 N701 2.600 . S
Eu672 N707 2.562 . S
Eu672 O716 2.462 . S
Eu672 O717 2.373 . S
Eu672 O719 2.432 . S
Eu672 O720 2.291 . S
Eu672 O724 2.335 . S
Eu672 O727 2.372 . S
Eu672 C736 2.787 . S
C673 N674 1.365 . S
C673 C676 1.405 . S
C673 C680 1.448 . S
N674 C673 1.365 . S
N674 C677 1.319 1_556 S
N674 Eu683 2.600 . S
C675 C677 1.397 . S
C675 C678 1.367 . S
C675 H695 0.931 . S
C676 C673 1.405 . S
C676 C678 1.403 1_556 S
C676 C682 1.439 . S
C677 N674 1.319 1_554 S
C677 C675 1.397 . S
C677 H688 0.930 . S
C678 C675 1.367 . S
C678 C676 1.403 1_554 S
C678 H699 0.929 . S
C679 C680 1.430 . S
C679 C681 1.387 . S
C679 C685 1.404 . S
C680 C673 1.448 . S
C680 C679 1.430 . S
C680 N684 1.351 . S
C681 C679 1.387 . S
C681 C682 1.374 . S
C681 H696 0.931 . S
C682 C676 1.439 . S
C682 C681 1.374 . S
C682 H697 0.931 . S
Eu683 N674 2.600 . S
Eu683 N684 2.562 . S
Eu683 O718 2.335 . S
Eu683 O721 2.372 . S
Eu683 O722 2.462 . S
Eu683 O723 2.373 . S
Eu683 O725 2.432 . S
Eu683 O726 2.291 . S
Eu683 C747 2.787 . S
N684 C680 1.351 . S
N684 Eu683 2.562 . S
N684 C686 1.325 . S
C685 C679 1.404 . S
C685 C687 1.366 . S
C685 H693 0.930 . S
C686 N684 1.325 . S
C686 C687 1.416 . S
C686 H692 0.929 . S
C687 C685 1.366 . S
C687 C686 1.416 . S
C687 H689 0.930 . S
H688 C677 0.930 . S
H689 C687 0.930 . S
H690 C705 0.930 . S
H691 C712 0.930 . S
H692 C686 0.929 . S
H693 C685 0.930 . S
H694 C708 0.929 . S
H695 C675 0.931 . S
H696 C681 0.931 . S
H697 C682 0.931 . S
H698 C703 0.931 . S
H699 C678 0.929 . S
H700 C711 0.930 . S
N701 Eu672 2.600 . S
N701 C702 1.365 . S
N701 C705 1.319 . S
C702 N701 1.365 . S
C702 C704 1.405 . S
C702 C710 1.448 . S
C703 H698 0.931 . S
C703 C705 1.397 . S
C703 C706 1.367 . S
C704 C702 1.405 . S
C704 C706 1.403 . S
C704 C737 1.439 . S
C705 H690 0.930 . S
C705 N701 1.319 . S
C705 C703 1.397 . S
C706 C703 1.367 . S
C706 C704 1.403 . S
C706 H713 0.929 . S
N707 Eu672 2.562 . S
N707 C708 1.325 1_556 S
N707 C710 1.351 . S
C708 H694 0.929 . S
C708 N707 1.325 1_554 S
C708 C712 1.416 . S
C709 C710 1.430 . S
C709 C711 1.404 1_556 S
C709 C738 1.387 . S
C710 C702 1.448 . S
C710 N707 1.351 . S
C710 C709 1.430 . S
C711 H700 0.930 . S
C711 C709 1.404 1_554 S
C711 C712 1.366 . S
C712 H691 0.930 . S
C712 C708 1.416 . S
C712 C711 1.366 . S
H713 C706 0.929 . S
H714 C737 0.931 . S
H715 C738 0.931 . S
O716 Eu672 2.462 . S
O716 C736 1.252 . S
O717 Eu672 2.373 . S
O717 C728 1.249 . S
O718 Eu683 2.335 . S
O718 C728 1.264 . S
O719 Eu672 2.432 . S
O719 C736 1.268 . S
O720 Eu672 2.291 . S
O720 C735 1.255 1_556 S
O721 Eu683 2.372 . S
O721 C735 1.257 1_556 S
O722 Eu683 2.462 . S
O722 C747 1.252 . S
O723 Eu683 2.373 . S
O723 C739 1.249 . S
O724 Eu672 2.335 . S
O724 C739 1.264 . S
O725 Eu683 2.432 . S
O725 C747 1.268 . S
O726 Eu683 2.291 . S
O726 C746 1.255 . S
O727 Eu672 2.372 . S
O727 C746 1.257 . S
C728 O717 1.249 . S
C728 O718 1.264 . S
C729 C732 1.382 . S
C729 C734 1.390 . S
C729 C736 1.506 . S
C730 C731 1.398 . S
C730 C734 1.392 . S
C731 C730 1.398 . S
C731 C733 1.372 . S
C731 H748 0.931 . S
C732 C729 1.382 . S
C732 C733 1.390 . S
C732 H749 0.931 . S
C733 C731 1.372 . S
C733 C732 1.390 . S
C733 H750 0.929 . S
C734 C729 1.390 . S
C734 C730 1.392 . S
C734 H751 0.930 1_556 S
C735 O720 1.255 1_554 S
C735 O721 1.257 1_554 S
C736 Eu672 2.787 . S
C736 O716 1.252 . S
C736 O719 1.268 . S
C736 C729 1.506 . S
C737 C704 1.439 . S
C737 H714 0.931 . S
C737 C738 1.374 . S
C738 C709 1.387 . S
C738 H715 0.931 . S
C738 C737 1.374 . S
C739 O723 1.249 . S
C739 O724 1.264 . S
C740 C743 1.382 . S
C740 C744 1.390 . S
C740 C747 1.506 . S
C741 C742 1.398 . S
C741 C744 1.392 . S
C742 C741 1.398 . S
C742 C745 1.372 . S
C742 H752 0.931 . S
C743 C740 1.382 . S
C743 C745 1.390 . S
C743 H753 0.931 . S
C744 C740 1.390 . S
C744 C741 1.392 . S
C744 H754 0.930 . S
C745 C742 1.372 . S
C745 C743 1.390 . S
C745 H755 0.929 . S
C746 O726 1.255 . S
C746 O727 1.257 . S
C747 Eu683 2.787 . S
C747 O722 1.252 . S
C747 O725 1.268 . S
C747 C740 1.506 . S
H748 C731 0.931 . S
H749 C732 0.931 . S
H750 C733 0.929 . S
H751 C734 0.930 1_554 S
H752 C742 0.931 . S
H753 C743 0.931 . S
H754 C744 0.930 . S
H755 C745 0.929 . S
H756 C762 0.930 . S
H757 C766 0.930 . S
H758 C771 0.929 . S
H759 C769 0.929 . S
H760 C764 0.929 . S
H761 C770 0.929 . S
C762 H756 0.930 . S
C762 C763 1.367 . S
C762 C770 1.378 . S
C763 C762 1.367 . S
C763 C771 1.433 1_554 S
C764 H760 0.929 . S
C764 C766 1.378 . S
C764 C768 1.350 . S
C765 C768 1.463 1_554 S
C765 C770 1.350 . S
C765 N773 1.427 1_554 S
C766 H757 0.930 . S
C766 C764 1.378 . S
C766 C767 1.367 . S
C767 C766 1.367 . S
C767 C769 1.433 1_556 S
C768 C764 1.350 . S
C768 C765 1.463 1_556 S
C768 N772 1.427 1_556 S
C769 H759 0.929 . S
C769 C767 1.433 1_554 S
C769 N772 1.384 . S
C770 H761 0.929 . S
C770 C762 1.378 . S
C770 C765 1.350 . S
C771 H758 0.929 . S
C771 C763 1.433 1_556 S
C771 N773 1.384 . S
N772 C768 1.427 1_554 S
N772 C769 1.384 . S
N773 C765 1.427 1_556 S
N773 C771 1.384 . S
H774 C780 0.930 . S
H775 C784 0.940 . S
H776 C789 0.929 . S
H777 C787 0.929 . S
H778 C782 0.929 . S
H779 C788 0.929 . S
C780 H774 0.930 . S
C780 C781 1.367 1_556 S
C780 C788 1.378 . S
C781 C780 1.367 1_554 S
C781 C789 1.433 . S
C782 H778 0.929 . S
C782 C784 1.379 . S
C782 C786 1.350 1_554 S
C783 C786 1.463 . S
C783 C788 1.350 . S
C783 N791 1.427 1_556 S
C784 H775 0.940 . S
C784 C782 1.379 . S
C784 C785 1.356 1_554 S
C785 C784 1.356 1_556 S
C785 C787 1.433 . S
C786 C782 1.350 1_556 S
C786 C783 1.463 . S
C786 N790 1.427 . S
C787 H777 0.929 . S
C787 C785 1.433 . S
C787 N790 1.384 . S
C788 H779 0.929 . S
C788 C780 1.378 . S
C788 C783 1.350 . S
C789 H776 0.929 . S
C789 C781 1.433 . S
C789 N791 1.384 . S
N790 C786 1.427 . S
N790 C787 1.384 . S
N791 C783 1.427 1_554 S
N791 C789 1.384 . S
H792 C798 0.930 . S
H793 C802 0.930 . S
H794 C807 0.929 . S
H795 C805 0.929 . S
H796 C800 0.929 . S
H797 C806 0.929 . S
C798 H792 0.930 . S
C798 C799 1.367 . S
C798 C806 1.378 . S
C799 C798 1.367 . S
C799 C807 1.433 . S
C800 H796 0.929 . S
C800 C802 1.378 . S
C800 C804 1.350 . S
C801 C804 1.463 . S
C801 C806 1.350 . S
C801 N809 1.427 . S
C802 H793 0.930 . S
C802 C800 1.378 . S
C802 C803 1.367 . S
C803 C802 1.367 . S
C803 C805 1.433 . S
C804 C800 1.350 . S
C804 C801 1.463 . S
C804 N808 1.427 . S
C805 H795 0.929 . S
C805 C803 1.433 . S
C805 N808 1.384 . S
C806 H797 0.929 . S
C806 C798 1.378 . S
C806 C801 1.350 . S
C807 H794 0.929 . S
C807 C799 1.433 . S
C807 N809 1.384 . S
N808 C804 1.427 . S
N808 C805 1.384 . S
N809 C801 1.427 . S
N809 C807 1.384 . S
H810 C816 0.930 . S
H811 C820 0.930 . S
H812 C825 0.929 . S
H813 C823 0.929 . S
H814 C818 0.929 . S
H815 C824 0.929 . S
C816 H810 0.930 . S
C816 C817 1.367 1_556 S
C816 C824 1.378 . S
C817 C816 1.367 1_554 S
C817 C825 1.433 . S
C818 H814 0.929 . S
C818 C820 1.378 . S
C818 C822 1.350 . S
C819 C822 1.463 . S
C819 C824 1.350 1_554 S
C819 N827 1.427 . S
C820 H811 0.930 . S
C820 C818 1.378 . S
C820 C821 1.367 . S
C821 C820 1.367 . S
C821 C823 1.433 1_554 S
C822 C818 1.350 . S
C822 C819 1.463 . S
C822 N826 1.427 1_554 S
C823 H813 0.929 . S
C823 C821 1.433 1_556 S
C823 N826 1.384 . S
C824 H815 0.929 . S
C824 C816 1.378 . S
C824 C819 1.350 1_556 S
C825 H812 0.929 . S
C825 C817 1.433 . S
C825 N827 1.384 . S
N826 C822 1.427 1_556 S
N826 C823 1.384 . S
N827 C819 1.427 . S
N827 C825 1.384 . S
H828 C834 0.930 . S
H829 C838 0.930 . S
H830 C843 0.929 . S
H831 C841 0.929 . S
H832 C836 0.929 . S
H833 C842 0.929 . S
C834 H828 0.930 . S
C834 C835 1.367 . S
C834 C842 1.378 . S
C835 C834 1.367 . S
C835 C843 1.433 . S
C836 H832 0.929 . S
C836 C838 1.378 . S
C836 C840 1.350 . S
C837 C840 1.463 . S
C837 C842 1.350 . S
C837 N845 1.427 . S
C838 H829 0.930 . S
C838 C836 1.378 . S
C838 C839 1.364 . S
C839 C838 1.364 . S
C839 C841 1.433 1_655 S
C840 C836 1.350 . S
C840 C837 1.463 . S
C840 N844 1.427 . S
C841 H831 0.929 . S
C841 C839 1.433 1_455 S
C841 N844 1.384 1_455 S
C842 H833 0.929 . S
C842 C834 1.378 . S
C842 C837 1.350 . S
C843 H830 0.929 . S
C843 C835 1.433 . S
C843 N845 1.384 . S
N844 C840 1.427 . S
N844 C841 1.384 1_655 S
N845 C837 1.427 . S
N845 C843 1.384 . S
H846 C852 0.930 . S
H847 C856 0.930 . S
H848 C861 0.929 . S
H849 C859 0.929 . S
H850 C854 0.929 . S
H851 C860 0.929 . S
C852 H846 0.930 . S
C852 C853 1.367 . S
C852 C860 1.378 . S
C853 C852 1.367 . S
C853 C861 1.433 . S
C854 H850 0.929 . S
C854 C856 1.378 . S
C854 C858 1.350 . S
C855 C858 1.463 . S
C855 C860 1.350 . S
C855 N863 1.427 . S
C856 H847 0.930 . S
C856 C854 1.378 . S
C856 C857 1.367 . S
C857 C856 1.367 . S
C857 C859 1.433 . S
C858 C854 1.350 . S
C858 C855 1.463 . S
C858 N862 1.427 . S
C859 H849 0.929 . S
C859 C857 1.433 . S
C859 N862 1.384 . S
C860 H851 0.929 . S
C860 C852 1.378 . S
C860 C855 1.350 . S
C861 H848 0.929 . S
C861 C853 1.433 . S
C861 N863 1.384 . S
N862 C858 1.427 . S
N862 C859 1.384 . S
N863 C855 1.427 . S
N863 C861 1.384 . S
H864 C870 0.930 . S
H865 C874 0.930 . S
H866 C879 0.929 . S
H867 C877 0.929 . S
H868 C872 0.929 . S
H869 C878 0.929 . S
C870 H864 0.930 . S
C870 C871 1.367 . S
C870 C878 1.378 . S
C871 C870 1.367 . S
C871 C879 1.433 . S
C872 H868 0.929 . S
C872 C874 1.378 . S
C872 C876 1.350 . S
C873 C876 1.463 . S
C873 C878 1.350 . S
C873 N881 1.427 . S
C874 H865 0.930 . S
C874 C872 1.378 . S
C874 C875 1.367 . S
C875 C874 1.367 . S
C875 C877 1.433 . S
C876 C872 1.350 . S
C876 C873 1.463 . S
C876 N880 1.427 . S
C877 H867 0.929 . S
C877 C875 1.433 . S
C877 N880 1.384 . S
C878 H869 0.929 . S
C878 C870 1.378 . S
C878 C873 1.350 . S
C879 H866 0.929 . S
C879 C871 1.433 . S
C879 N881 1.384 . S
N880 C876 1.427 . S
N880 C877 1.384 . S
N881 C873 1.427 . S
N881 C879 1.384 . S
H882 C888 0.930 . S
H883 C892 0.930 . S
H884 C897 0.929 . S
H885 C895 0.929 . S
H886 C890 0.929 . S
H887 C896 0.929 . S
C888 H882 0.930 . S
C888 C889 1.367 . S
C888 C896 1.378 . S
C889 C888 1.367 . S
C889 C897 1.433 . S
C890 H886 0.929 . S
C890 C892 1.378 . S
C890 C894 1.350 . S
C891 C894 1.463 . S
C891 C896 1.350 . S
C891 N899 1.427 . S
C892 H883 0.930 . S
C892 C890 1.378 . S
C892 C893 1.367 . S
C893 C892 1.367 . S
C893 C895 1.433 . S
C894 C890 1.350 . S
C894 C891 1.463 . S
C894 N898 1.427 . S
C895 H885 0.929 . S
C895 C893 1.433 . S
C895 N898 1.384 . S
C896 H887 0.929 . S
C896 C888 1.378 . S
C896 C891 1.350 . S
C897 H884 0.929 . S
C897 C889 1.433 . S
C897 N899 1.384 . S
N898 C894 1.427 . S
N898 C895 1.384 . S
N899 C891 1.427 . S
N899 C897 1.384 . S
H900 C906 0.930 . S
H901 C910 0.930 . S
H902 C915 0.929 . S
H903 C913 0.929 . S
H904 C908 0.929 1_565 S
H905 C914 0.929 . S
C906 H900 0.930 . S
C906 C907 1.367 . S
C906 C914 1.378 . S
C907 C906 1.367 . S
C907 C915 1.433 . S
C908 H904 0.929 1_545 S
C908 C910 1.378 1_545 S
C908 C912 1.350 . S
C909 C912 1.463 . S
C909 C914 1.350 . S
C909 N917 1.427 . S
C910 H901 0.930 . S
C910 C908 1.378 1_565 S
C910 C911 1.378 . S
C911 C910 1.378 . S
C911 C913 1.393 1_565 S
C912 C908 1.350 . S
C912 C909 1.463 . S
C912 N916 1.427 . S
C913 H903 0.929 . S
C913 C911 1.393 1_545 S
C913 N916 1.384 . S
C914 H905 0.929 . S
C914 C906 1.378 . S
C914 C909 1.350 . S
C915 H902 0.929 . S
C915 C907 1.433 . S
C915 N917 1.384 . S
N916 C912 1.427 . S
N916 C913 1.384 . S
N917 C909 1.427 . S
N917 C915 1.384 . S
H918 C924 0.930 . S
H919 C928 0.930 . S
H920 C933 0.929 . S
H921 C931 0.929 . S
H922 C926 0.929 . S
H923 C932 0.929 . S
C924 H918 0.930 . S
C924 C925 1.367 . S
C924 C932 1.378 . S
C925 C924 1.367 . S
C925 C933 1.433 . S
C926 H922 0.929 . S
C926 C928 1.378 . S
C926 C930 1.350 . S
C927 C930 1.463 . S
C927 C932 1.350 . S
C927 N935 1.427 . S
C928 H919 0.930 . S
C928 C926 1.378 . S
C928 C929 1.367 . S
C929 C928 1.367 . S
C929 C931 1.433 . S
C930 C926 1.350 . S
C930 C927 1.463 . S
C930 N934 1.427 . S
C931 H921 0.929 . S
C931 C929 1.433 . S
C931 N934 1.384 . S
C932 H923 0.929 . S
C932 C924 1.378 . S
C932 C927 1.350 . S
C933 H920 0.929 . S
C933 C925 1.433 . S
C933 N935 1.384 . S
N934 C930 1.427 . S
N934 C931 1.384 . S
N935 C927 1.427 . S
N935 C933 1.384 . S
H936 C942 0.930 . S
H937 C946 0.930 . S
H938 C951 0.929 . S
H939 C949 0.935 . S
H940 C944 0.929 1_565 S
H941 C950 0.929 . S
C942 H936 0.930 . S
C942 C943 1.367 . S
C942 C950 1.378 . S
C943 C942 1.367 . S
C943 C951 1.433 . S
C944 H940 0.929 1_545 S
C944 C946 1.378 . S
C944 C948 1.350 . S
C945 C948 1.463 1_565 S
C945 C950 1.350 . S
C945 N953 1.427 . S
C946 H937 0.930 . S
C946 C944 1.378 . S
C946 C947 1.367 . S
C947 C946 1.367 . S
C947 C949 1.433 . S
C948 C944 1.350 . S
C948 C945 1.463 1_545 S
C948 N952 1.427 . S
C949 H939 0.935 . S
C949 C947 1.433 . S
C949 N952 1.384 . S
C950 H941 0.929 . S
C950 C942 1.378 . S
C950 C945 1.350 . S
C951 H938 0.929 . S
C951 C943 1.433 . S
C951 N953 1.384 . S
N952 C948 1.427 . S
N952 C949 1.384 . S
N953 C945 1.427 . S
N953 C951 1.384 . S
H954 C960 0.930 1_655 S
H955 C964 0.930 . S
H956 C969 0.929 1_655 S
H957 C967 0.929 . S
H958 C962 0.929 . S
H959 C968 0.929 . S
C960 H954 0.930 1_455 S
C960 C961 1.367 1_455 S
C960 C968 1.378 . S
C961 C960 1.367 1_655 S
C961 C969 1.433 1_655 S
C962 H958 0.929 . S
C962 C964 1.378 . S
C962 C966 1.350 1_556 S
C963 C966 1.463 . S
C963 C968 1.350 . S
C963 N971 1.427 . S
C964 H955 0.930 . S
C964 C962 1.378 . S
C964 C965 1.367 1_556 S
C965 C964 1.367 1_554 S
C965 C967 1.433 . S
C966 C962 1.350 1_554 S
C966 C963 1.463 . S
C966 N970 1.427 . S
C967 H957 0.929 . S
C967 C965 1.433 . S
C967 N970 1.384 . S
C968 H959 0.929 . S
C968 C960 1.378 . S
C968 C963 1.350 . S
C969 H956 0.929 1_455 S
C969 C961 1.433 1_455 S
C969 N971 1.384 . S
N970 C966 1.427 . S
N970 C967 1.384 . S
N971 C963 1.427 . S
N971 C969 1.384 . S
H972 C978 0.930 . S
H973 C982 0.930 . S
H974 C987 0.929 . S
H975 C985 0.929 . S
H976 C980 0.929 . S
H977 C986 0.929 . S
C978 H972 0.930 . S
C978 C979 1.367 . S
C978 C986 1.378 . S
C979 C978 1.367 . S
C979 C987 1.433 1_554 S
C980 H976 0.929 . S
C980 C982 1.378 . S
C980 C984 1.350 . S
C981 C984 1.463 . S
C981 C986 1.350 . S
C981 N989 1.427 . S
C982 H973 0.930 . S
C982 C980 1.378 . S
C982 C983 1.367 . S
C983 C982 1.367 . S
C983 C985 1.433 . S
C984 C980 1.350 . S
C984 C981 1.463 . S
C984 N988 1.427 . S
C985 H975 0.929 . S
C985 C983 1.433 . S
C985 N988 1.384 . S
C986 H977 0.929 . S
C986 C978 1.378 . S
C986 C981 1.350 . S
C987 H974 0.929 . S
C987 C979 1.433 1_556 S
C987 N989 1.384 1_556 S
N988 C984 1.427 . S
N988 C985 1.384 . S
N989 C981 1.427 . S
N989 C987 1.384 1_554 S
H990 C996 0.930 . S
H991 C1000 0.930 . S
H992 C1005 0.929 . S
H993 C1003 0.929 . S
H994 C998 0.929 1_554 S
H995 C1004 0.929 . S
C996 H990 0.930 . S
C996 C997 1.367 . S
C996 C1004 1.378 . S
C997 C996 1.367 . S
C997 C1005 1.433 . S
C998 H994 0.929 1_556 S
C998 C1000 1.378 . S
C998 C1002 1.350 1_556 S
C999 C1002 1.463 . S
C999 C1004 1.350 . S
C999 N1007 1.427 . S
C1000 H991 0.930 . S
C1000 C998 1.378 . S
C1000 C1001 1.367 . S
C1001 C1000 1.367 . S
C1001 C1003 1.433 . S
C1002 C998 1.350 1_554 S
C1002 C999 1.463 . S
C1002 N1006 1.428 1_554 S
C1003 H993 0.929 . S
C1003 C1001 1.433 . S
C1003 N1006 1.384 . S
C1004 H995 0.929 . S
C1004 C996 1.378 . S
C1004 C999 1.350 . S
C1005 H992 0.929 . S
C1005 C997 1.433 . S
C1005 N1007 1.384 . S
N1006 C1002 1.428 1_556 S
N1006 C1003 1.384 . S
N1007 C999 1.427 . S
N1007 C1005 1.384 . S
H1008 C1014 0.930 . S
H1009 C1018 0.930 . S
H1010 C1023 0.929 . S
H1011 C1021 0.929 . S
H1012 C1016 0.929 . S
H1013 C1022 0.929 . S
C1014 H1008 0.930 . S
C1014 C1015 1.367 . S
C1014 C1022 1.378 . S
C1015 C1014 1.367 . S
C1015 C1023 1.433 1_554 S
C1016 H1012 0.929 . S
C1016 C1018 1.378 . S
C1016 C1020 1.350 . S
C1017 C1020 1.463 1_554 S
C1017 C1022 1.350 . S
C1017 N1025 1.427 1_554 S
C1018 H1009 0.930 . S
C1018 C1016 1.378 . S
C1018 C1019 1.367 . S
C1019 C1018 1.367 . S
C1019 C1021 1.433 1_556 S
C1020 C1016 1.350 . S
C1020 C1017 1.463 1_556 S
C1020 N1024 1.427 1_556 S
C1021 H1011 0.929 . S
C1021 C1019 1.433 1_554 S
C1021 N1024 1.384 . S
C1022 H1013 0.929 . S
C1022 C1014 1.378 . S
C1022 C1017 1.350 . S
C1023 H1010 0.929 . S
C1023 C1015 1.433 1_556 S
C1023 N1025 1.384 . S
N1024 C1020 1.427 1_554 S
N1024 C1021 1.384 . S
N1025 C1017 1.427 1_556 S
N1025 C1023 1.384 . S
H1026 C1032 0.930 . S
H1027 C1036 0.930 . S
H1028 C1041 0.929 . S
H1029 C1039 0.929 . S
H1030 C1034 0.929 . S
H1031 C1040 0.929 . S
C1032 H1026 0.930 . S
C1032 C1033 1.367 . S
C1032 C1040 1.378 . S
C1033 C1032 1.367 . S
C1033 C1041 1.433 1_556 S
C1034 H1030 0.929 . S
C1034 C1036 1.378 . S
C1034 C1038 1.350 . S
C1035 C1038 1.463 . S
C1035 C1040 1.350 . S
C1035 N1043 1.427 . S
C1036 H1027 0.930 . S
C1036 C1034 1.378 . S
C1036 C1037 1.367 . S
C1037 C1036 1.367 . S
C1037 C1039 1.433 . S
C1038 C1034 1.350 . S
C1038 C1035 1.463 . S
C1038 N1042 1.427 . S
C1039 H1029 0.929 . S
C1039 C1037 1.433 . S
C1039 N1042 1.384 . S
C1040 H1031 0.929 . S
C1040 C1032 1.378 . S
C1040 C1035 1.350 . S
C1041 H1028 0.929 . S
C1041 C1033 1.433 1_554 S
C1041 N1043 1.384 1_554 S
N1042 C1038 1.427 . S
N1042 C1039 1.384 . S
N1043 C1035 1.427 . S
N1043 C1041 1.384 1_556 S
H1044 C1050 0.930 . S
H1045 C1054 0.930 . S
H1046 C1059 0.929 . S
H1047 C1057 0.929 . S
H1048 C1052 0.929 . S
H1049 C1058 0.929 . S
C1050 H1044 0.930 . S
C1050 C1051 1.367 . S
C1050 C1058 1.378 . S
C1051 C1050 1.367 . S
C1051 C1059 1.433 . S
C1052 H1048 0.929 . S
C1052 C1054 1.378 . S
C1052 C1056 1.350 . S
C1053 C1056 1.463 . S
C1053 C1058 1.350 . S
C1053 N1061 1.427 . S
C1054 H1045 0.930 . S
C1054 C1052 1.378 . S
C1054 C1055 1.367 . S
C1055 C1054 1.367 . S
C1055 C1057 1.433 . S
C1056 C1052 1.350 . S
C1056 C1053 1.463 . S
C1056 N1060 1.427 . S
C1057 H1047 0.929 . S
C1057 C1055 1.433 . S
C1057 N1060 1.384 . S
C1058 H1049 0.929 . S
C1058 C1050 1.378 . S
C1058 C1053 1.350 . S
C1059 H1046 0.929 . S
C1059 C1051 1.433 . S
C1059 N1061 1.384 . S
N1060 C1056 1.427 . S
N1060 C1057 1.384 . S
N1061 C1053 1.427 . S
N1061 C1059 1.384 . S
H1062 C1068 0.930 . S
H1063 C1072 0.930 1_554 S
H1064 C1077 0.929 . S
H1065 C1075 0.929 . S
H1066 C1070 0.929 . S
H1067 C1076 0.929 . S
C1068 H1062 0.930 . S
C1068 C1069 1.367 . S
C1068 C1076 1.378 . S
C1069 C1068 1.367 . S
C1069 C1077 1.433 . S
C1070 H1066 0.929 . S
C1070 C1072 1.378 . S
C1070 C1074 1.350 . S
C1071 C1074 1.463 . S
C1071 C1076 1.350 . S
C1071 N1079 1.427 . S
C1072 H1063 0.930 1_556 S
C1072 C1070 1.378 . S
C1072 C1073 1.367 . S
C1073 C1072 1.367 . S
C1073 C1075 1.433 . S
C1074 C1070 1.350 . S
C1074 C1071 1.463 . S
C1074 N1078 1.427 . S
C1075 H1065 0.929 . S
C1075 C1073 1.433 . S
C1075 N1078 1.384 . S
C1076 H1067 0.929 . S
C1076 C1068 1.378 . S
C1076 C1071 1.350 . S
C1077 H1064 0.929 . S
C1077 C1069 1.433 . S
C1077 N1079 1.384 . S
N1078 C1074 1.427 . S
N1078 C1075 1.384 . S
N1079 C1071 1.427 . S
N1079 C1077 1.384 . S
H1080 C1086 0.930 . S
H1081 C1090 0.930 . S
H1082 C1095 0.929 . S
H1083 C1093 0.929 . S
H1084 C1088 0.929 . S
H1085 C1094 0.929 . S
C1086 H1080 0.930 . S
C1086 C1087 1.367 . S
C1086 C1094 1.378 . S
C1087 C1086 1.367 . S
C1087 C1095 1.433 . S
C1088 H1084 0.929 . S
C1088 C1090 1.378 . S
C1088 C1092 1.350 . S
C1089 C1092 1.463 . S
C1089 C1094 1.350 . S
C1089 N1097 1.427 . S
C1090 H1081 0.930 . S
C1090 C1088 1.378 . S
C1090 C1091 1.367 . S
C1091 C1090 1.367 . S
C1091 C1093 1.433 . S
C1092 C1088 1.350 . S
C1092 C1089 1.463 . S
C1092 N1096 1.427 . S
C1093 H1083 0.929 . S
C1093 C1091 1.433 . S
C1093 N1096 1.384 . S
C1094 H1085 0.929 . S
C1094 C1086 1.378 . S
C1094 C1089 1.350 . S
C1095 H1082 0.929 . S
C1095 C1087 1.433 . S
C1095 N1097 1.384 . S
N1096 C1092 1.427 . S
N1096 C1093 1.384 . S
N1097 C1089 1.427 . S
N1097 C1095 1.384 . S
H1098 C1104 0.930 . S
H1099 C1108 0.930 . S
H1100 C1113 0.929 . S
H1101 C1111 0.929 . S
H1102 C1106 0.929 . S
H1103 C1112 0.929 . S
C1104 H1098 0.930 . S
C1104 C1105 1.367 . S
C1104 C1112 1.378 . S
C1105 C1104 1.367 . S
C1105 C1113 1.433 . S
C1106 H1102 0.929 . S
C1106 C1108 1.378 . S
C1106 C1110 1.350 . S
C1107 C1110 1.463 . S
C1107 C1112 1.350 . S
C1107 N1115 1.427 . S
C1108 H1099 0.930 . S
C1108 C1106 1.378 . S
C1108 C1109 1.367 . S
C1109 C1108 1.367 . S
C1109 C1111 1.433 . S
C1110 C1106 1.350 . S
C1110 C1107 1.463 . S
C1110 N1114 1.427 . S
C1111 H1101 0.929 . S
C1111 C1109 1.433 . S
C1111 N1114 1.384 . S
C1112 H1103 0.929 . S
C1112 C1104 1.378 . S
C1112 C1107 1.350 . S
C1113 H1100 0.929 . S
C1113 C1105 1.433 . S
C1113 N1115 1.384 . S
N1114 C1110 1.427 . S
N1114 C1111 1.384 . S
N1115 C1107 1.427 . S
N1115 C1113 1.384 . S
H1116 C1122 0.918 1_565 S
H1117 C1126 0.930 . S
H1118 C1131 0.929 . S
H1119 C1129 0.929 . S
H1120 C1124 0.929 . S
H1121 C1130 0.929 . S
C1122 H1116 0.918 1_545 S
C1122 C1123 1.374 . S
C1122 C1130 1.382 . S
C1123 C1122 1.374 . S
C1123 C1131 1.433 . S
C1124 H1120 0.929 . S
C1124 C1126 1.378 . S
C1124 C1128 1.350 . S
C1125 C1128 1.463 . S
C1125 C1130 1.350 . S
C1125 N1133 1.427 . S
C1126 H1117 0.930 . S
C1126 C1124 1.378 . S
C1126 C1127 1.367 . S
C1127 C1126 1.367 . S
C1127 C1129 1.433 . S
C1128 C1124 1.350 . S
C1128 C1125 1.463 . S
C1128 N1132 1.427 . S
C1129 H1119 0.929 . S
C1129 C1127 1.433 . S
C1129 N1132 1.384 . S
C1130 H1121 0.929 . S
C1130 C1122 1.382 . S
C1130 C1125 1.350 . S
C1131 H1118 0.929 . S
C1131 C1123 1.433 . S
C1131 N1133 1.384 . S
N1132 C1128 1.427 . S
N1132 C1129 1.384 . S
N1133 C1125 1.427 . S
N1133 C1131 1.384 . S
H1134 C1140 0.930 . S
H1135 C1144 0.930 . S
H1136 C1149 0.929 . S
H1137 C1147 0.929 . S
H1138 C1142 0.929 . S
H1139 C1148 0.929 . S
C1140 H1134 0.930 . S
C1140 C1141 1.367 . S
C1140 C1148 1.378 . S
C1141 C1140 1.367 . S
C1141 C1149 1.433 . S
C1142 H1138 0.929 . S
C1142 C1144 1.378 . S
C1142 C1146 1.350 . S
C1143 C1146 1.463 . S
C1143 C1148 1.350 . S
C1143 N1151 1.427 . S
C1144 H1135 0.930 . S
C1144 C1142 1.378 . S
C1144 C1145 1.367 . S
C1145 C1144 1.367 . S
C1145 C1147 1.433 . S
C1146 C1142 1.350 . S
C1146 C1143 1.463 . S
C1146 N1150 1.427 . S
C1147 H1137 0.929 . S
C1147 C1145 1.433 . S
C1147 N1150 1.384 . S
C1148 H1139 0.929 . S
C1148 C1140 1.378 . S
C1148 C1143 1.350 . S
C1149 H1136 0.929 . S
C1149 C1141 1.433 . S
C1149 N1151 1.384 . S
N1150 C1146 1.427 . S
N1150 C1147 1.384 . S
N1151 C1143 1.427 . S
N1151 C1149 1.384 . S
H1152 C1158 0.930 . S
H1153 C1162 0.930 . S
H1154 C1167 0.929 . S
H1155 C1165 0.929 . S
H1156 C1160 0.929 . S
H1157 C1166 0.929 . S
C1158 H1152 0.930 . S
C1158 C1159 1.367 . S
C1158 C1166 1.378 . S
C1159 C1158 1.367 . S
C1159 C1167 1.433 . S
C1160 H1156 0.929 . S
C1160 C1162 1.378 . S
C1160 C1164 1.350 . S
C1161 C1164 1.463 . S
C1161 C1166 1.350 . S
C1161 N1169 1.427 . S
C1162 H1153 0.930 . S
C1162 C1160 1.378 . S
C1162 C1163 1.367 . S
C1163 C1162 1.367 . S
C1163 C1165 1.433 . S
C1164 C1160 1.350 . S
C1164 C1161 1.463 . S
C1164 N1168 1.427 . S
C1165 H1155 0.929 . S
C1165 C1163 1.433 . S
C1165 N1168 1.384 . S
C1166 H1157 0.929 . S
C1166 C1158 1.378 . S
C1166 C1161 1.350 . S
C1167 H1154 0.929 . S
C1167 C1159 1.433 . S
C1167 N1169 1.384 . S
N1168 C1164 1.427 . S
N1168 C1165 1.384 . S
N1169 C1161 1.427 . S
N1169 C1167 1.384 . S
H1170 C1176 0.930 . S
H1171 C1180 0.930 . S
H1172 C1185 0.929 . S
H1173 C1183 0.929 . S
H1174 C1178 0.929 . S
H1175 C1184 0.929 . S
C1176 H1170 0.930 . S
C1176 C1177 1.367 . S
C1176 C1184 1.378 . S
C1177 C1176 1.367 . S
C1177 C1185 1.433 . S
C1178 H1174 0.929 . S
C1178 C1180 1.378 . S
C1178 C1182 1.350 . S
C1179 C1182 1.463 . S
C1179 C1184 1.350 . S
C1179 N1187 1.427 . S
C1180 H1171 0.930 . S
C1180 C1178 1.378 . S
C1180 C1181 1.367 . S
C1181 C1180 1.367 . S
C1181 C1183 1.433 . S
C1182 C1178 1.350 . S
C1182 C1179 1.463 . S
C1182 N1186 1.427 . S
C1183 H1173 0.929 . S
C1183 C1181 1.433 . S
C1183 N1186 1.384 . S
C1184 H1175 0.929 . S
C1184 C1176 1.378 . S
C1184 C1179 1.350 . S
C1185 H1172 0.929 . S
C1185 C1177 1.433 . S
C1185 N1187 1.384 . S
N1186 C1182 1.427 . S
N1186 C1183 1.384 . S
N1187 C1179 1.427 . S
N1187 C1185 1.384 . S
H1188 C1194 0.930 . S
H1189 C1198 0.930 . S
H1190 C1203 0.929 . S
H1191 C1201 0.929 . S
H1192 C1196 0.929 . S
H1193 C1202 0.929 . S
C1194 H1188 0.930 . S
C1194 C1195 1.367 . S
C1194 C1202 1.378 . S
C1195 C1194 1.367 . S
C1195 C1203 1.433 . S
C1196 H1192 0.929 . S
C1196 C1198 1.378 . S
C1196 C1200 1.350 . S
C1197 C1200 1.463 . S
C1197 C1202 1.350 . S
C1197 N1205 1.427 . S
C1198 H1189 0.930 . S
C1198 C1196 1.378 . S
C1198 C1199 1.367 . S
C1199 C1198 1.367 . S
C1199 C1201 1.433 . S
C1200 C1196 1.350 . S
C1200 C1197 1.463 . S
C1200 N1204 1.427 . S
C1201 H1191 0.929 . S
C1201 C1199 1.433 . S
C1201 N1204 1.384 . S
C1202 H1193 0.929 . S
C1202 C1194 1.378 . S
C1202 C1197 1.350 . S
C1203 H1190 0.929 . S
C1203 C1195 1.433 . S
C1203 N1205 1.384 . S
N1204 C1200 1.427 . S
N1204 C1201 1.384 . S
N1205 C1197 1.427 . S
N1205 C1203 1.384 . S
H1206 C1212 0.930 . S
H1207 C1216 0.930 . S
H1208 C1221 0.929 . S
H1209 C1219 0.929 . S
H1210 C1214 0.929 . S
H1211 C1220 0.929 . S
C1212 H1206 0.930 . S
C1212 C1213 1.367 . S
C1212 C1220 1.378 . S
C1213 C1212 1.367 . S
C1213 C1221 1.433 . S
C1214 H1210 0.929 . S
C1214 C1216 1.378 . S
C1214 C1218 1.350 . S
C1215 C1218 1.463 . S
C1215 C1220 1.350 . S
C1215 N1223 1.427 . S
C1216 H1207 0.930 . S
C1216 C1214 1.378 . S
C1216 C1217 1.367 . S
C1217 C1216 1.367 . S
C1217 C1219 1.433 . S
C1218 C1214 1.350 . S
C1218 C1215 1.463 . S
C1218 N1222 1.427 . S
C1219 H1209 0.929 . S
C1219 C1217 1.433 . S
C1219 N1222 1.384 . S
C1220 H1211 0.929 . S
C1220 C1212 1.378 . S
C1220 C1215 1.350 . S
C1221 H1208 0.929 . S
C1221 C1213 1.433 . S
C1221 N1223 1.384 . S
N1222 C1218 1.427 . S
N1222 C1219 1.384 . S
N1223 C1215 1.427 . S
N1223 C1221 1.384 . S
H1224 C1230 0.930 . S
H1225 C1234 0.930 . S
H1226 C1239 0.929 . S
H1227 C1237 0.929 . S
H1228 C1232 0.929 . S
H1229 C1238 0.929 . S
C1230 H1224 0.930 . S
C1230 C1231 1.367 . S
C1230 C1238 1.378 . S
C1231 C1230 1.367 . S
C1231 C1239 1.433 . S
C1232 H1228 0.929 . S
C1232 C1234 1.378 . S
C1232 C1236 1.350 . S
C1233 C1236 1.463 . S
C1233 C1238 1.350 . S
C1233 N1241 1.427 . S
C1234 H1225 0.930 . S
C1234 C1232 1.378 . S
C1234 C1235 1.367 . S
C1235 C1234 1.367 . S
C1235 C1237 1.433 . S
C1236 C1232 1.350 . S
C1236 C1233 1.463 . S
C1236 N1240 1.427 . S
C1237 H1227 0.929 . S
C1237 C1235 1.433 . S
C1237 N1240 1.384 . S
C1238 H1229 0.929 . S
C1238 C1230 1.378 . S
C1238 C1233 1.350 . S
C1239 H1226 0.929 . S
C1239 C1231 1.433 . S
C1239 N1241 1.384 . S
N1240 C1236 1.427 . S
N1240 C1237 1.384 . S
N1241 C1233 1.427 . S
N1241 C1239 1.384 . S
C763 C69 1.094 . S
C767 C657 1.117 . S
C781 C140 2.223 . S
C785 C728 2.230 . S
C799 C237 1.296 . S
C803 C560 1.494 . S
C817 C392 2.367 . S
C821 C224 2.382 . S
C835 C476 2.262 . S
C839 C56 2.259 1_655 S
C853 C153 1.897 . S
C857 C308 2.161 . S
C871 C644 1.586 . S
C875 C489 1.452 . S
C889 C741 1.236 . S
C893 C321 1.253 . S
C907 C405 1.577 . S
C911 C573 1.634 . S
C925 C226 1.423 . S
C929 C67 1.763 . S
C943 C142 1.220 . S
C947 C58 1.243 . S
C961 C151 2.964 . S
C965 C235 2.990 1_554 S
C979 C310 1.612 . S
C983 C487 2.064 . S
C997 C319 2.041 . S
C1001 C394 1.653 . S
C1015 C403 2.009 . S
C1019 C478 1.530 . S
C1033 C730 1.749 . S
C1037 C571 2.283 . S
C1051 C646 0.834 . S
C1055 C562 0.852 . S
C1069 C739 2.043 . S
C1073 C655 2.038 . S
C1087 C74 1.467 . S
C1091 C63 1.467 . S
C1105 C147 1.488 . S
C1109 C158 1.488 . S
C1123 C242 1.544 . S
C1127 C231 1.544 . S
C1141 C326 1.481 . S
C1145 C315 1.481 . S
C1159 C410 1.480 . S
C1163 C399 1.480 . S
C1177 C494 1.512 . S
C1181 C483 1.512 1_556 S
C1195 C578 1.473 . S
C1199 C567 1.473 1_554 S
C1213 C662 1.455 . S
C1217 C651 1.455 . S
C1231 C746 1.490 . S
C1235 C735 1.490 . S
