# Generated by pormake.
# Topology upa, (4)-cn, num edge types: 1
# Building blocks:
#     Node 0, Type 0, BuildingBlock: TATPOV_clean_sbu_0, # of connection points: 4
#     Node 1, Type 0, BuildingBlock: TATPOV_clean_sbu_0, # of connection points: 4
#     Node 2, Type 0, BuildingBlock: TATPOV_clean_sbu_0, # of connection points: 4
#     Node 3, Type 0, BuildingBlock: TATPOV_clean_sbu_0, # of connection points: 4
#     Node 4, Type 0, BuildingBlock: TATPOV_clean_sbu_0, # of connection points: 4
#     Node 5, Type 0, BuildingBlock: TATPOV_clean_sbu_0, # of connection points: 4
#     Node 6, Type 0, BuildingBlock: TATPOV_clean_sbu_0, # of connection points: 4
#     Node 7, Type 0, BuildingBlock: TATPOV_clean_sbu_0, # of connection points: 4
#     Edge 8, Type (0, 0), BuildingBlock: FUNLAD_clean_linker_0, # of connection points: 2
#     Edge 9, Type (0, 0), BuildingBlock: FUNLAD_clean_linker_0, # of connection points: 2
#     Edge 10, Type (0, 0), BuildingBlock: FUNLAD_clean_linker_0, # of connection points: 2
#     Edge 11, Type (0, 0), BuildingBlock: FUNLAD_clean_linker_0, # of connection points: 2
#     Edge 12, Type (0, 0), BuildingBlock: FUNLAD_clean_linker_0, # of connection points: 2
#     Edge 13, Type (0, 0), BuildingBlock: FUNLAD_clean_linker_0, # of connection points: 2
#     Edge 14, Type (0, 0), BuildingBlock: FUNLAD_clean_linker_0, # of connection points: 2
#     Edge 15, Type (0, 0), BuildingBlock: FUNLAD_clean_linker_0, # of connection points: 2
#     Edge 16, Type (0, 0), BuildingBlock: FUNLAD_clean_linker_0, # of connection points: 2
#     Edge 17, Type (0, 0), BuildingBlock: FUNLAD_clean_linker_0, # of connection points: 2
#     Edge 18, Type (0, 0), BuildingBlock: FUNLAD_clean_linker_0, # of connection points: 2
#     Edge 19, Type (0, 0), BuildingBlock: FUNLAD_clean_linker_0, # of connection points: 2
#     Edge 20, Type (0, 0), BuildingBlock: FUNLAD_clean_linker_0, # of connection points: 2
#     Edge 21, Type (0, 0), BuildingBlock: FUNLAD_clean_linker_0, # of connection points: 2
#     Edge 22, Type (0, 0), BuildingBlock: FUNLAD_clean_linker_0, # of connection points: 2
#     Edge 23, Type (0, 0), BuildingBlock: FUNLAD_clean_linker_0, # of connection points: 2
# Relax obj value: 0.175
# Max RMSD: 0.172
# Mean RMSD: 0.172
data_MOF--net-upa--node1-TATPOV_clean_sbu_0--edge1-FUNLAD_clean_linker_0
_symmetry_space_group_name_H-M    P1
_symmetry_Int_Tables_number       1
_symmetry_cell_setting            triclinic
loop_
_symmetry_equiv_pos_as_xyz
'x, y, z'
_cell_length_a     30.223528
_cell_length_b     30.179269
_cell_length_c     49.331611
_cell_angle_alpha  90.025192
_cell_angle_beta   89.988139
_cell_angle_gamma 90.067925
loop_
_atom_site_label
_atom_site_type_symbol
_atom_site_fract_x
_atom_site_fract_y
_atom_site_fract_z
_atom_type_partial_charge
Zn0 Zn 0.10035 0.286 0.37919 0.0
Zn1 Zn 0.16275 0.26039 0.34694 0.0
O2 O 0.11639 0.29423 0.32274 0.0
O3 O 0.0682 0.32188 0.35154 0.0
O4 O 0.21727 0.25133 0.32303 0.0
O5 O 0.13829 0.31367 0.40755 0.0
O6 O 0.19144 0.28592 0.38244 0.0
C7 C 0.08104 0.3163 0.32739 0.0
C8 C 0.10362 0.19014 0.36936 0.0
O9 O 0.13646 0.19917 0.35411 0.0
O10 O 0.08413 0.22083 0.38226 0.0
C11 C 0.24608 0.22195 0.32872 0.0
O12 O 0.23898 0.19555 0.34945 0.0
C13 C 0.1789 0.30562 0.40406 0.0
Zn14 Zn 0.23116 0.5992 0.88206 0.0
Zn15 Zn 0.25741 0.66141 0.84917 0.0
O16 O 0.22553 0.61457 0.82428 0.0
O17 O 0.19919 0.56553 0.85311 0.0
O18 O 0.26847 0.71658 0.82606 0.0
O19 O 0.20006 0.63772 0.90887 0.0
O20 O 0.22944 0.69016 0.88385 0.0
C21 C 0.20478 0.57834 0.82893 0.0
C22 C 0.32707 0.60491 0.87486 0.0
O23 O 0.31805 0.63589 0.85823 0.0
O24 O 0.29636 0.58562 0.88784 0.0
C25 C 0.30243 0.72323 0.81133 0.0
O26 O 0.33222 0.69176 0.80914 0.0
C27 C 0.20834 0.6783 0.9051 0.0
Zn28 Zn 0.91728 0.73294 0.38184 0.0
Zn29 Zn 0.85651 0.76164 0.34853 0.0
O30 O 0.90352 0.72973 0.324 0.0
O31 O 0.95148 0.70175 0.35283 0.0
O32 O 0.80439 0.77588 0.32356 0.0
O33 O 0.87667 0.7011 0.40709 0.0
O34 O 0.82532 0.73174 0.38185 0.0
C35 C 0.93923 0.70829 0.32864 0.0
C36 C 0.91342 0.82923 0.37648 0.0
O37 O 0.88291 0.8214 0.35929 0.0
O38 O 0.93177 0.79763 0.38913 0.0
C39 C 0.76856 0.79155 0.33328 0.0
O40 O 0.76625 0.79956 0.35942 0.0
C41 C 0.83631 0.70946 0.40282 0.0
Zn42 Zn 0.78298 0.41587 0.87414 0.0
Zn43 Zn 0.75629 0.35581 0.84033 0.0
O44 O 0.79215 0.40242 0.81753 0.0
O45 O 0.82097 0.44823 0.84738 0.0
O46 O 0.74741 0.30212 0.81574 0.0
O47 O 0.80716 0.37554 0.90273 0.0
O48 O 0.7783 0.32528 0.87589 0.0
C49 C 0.81521 0.43691 0.82293 0.0
C50 C 0.68732 0.4159 0.86238 0.0
O51 O 0.69567 0.3833 0.84677 0.0
O52 O 0.71816 0.43383 0.87599 0.0
C53 C 0.71984 0.27202 0.82236 0.0
O54 O 0.69539 0.2778 0.8441 0.0
C55 C 0.79699 0.33557 0.89825 0.0
Zn56 Zn 0.59934 0.2304 0.14006 0.0
Zn57 Zn 0.66332 0.25987 0.17108 0.0
O58 O 0.61884 0.22616 0.1965 0.0
O59 O 0.57206 0.19267 0.1691 0.0
O60 O 0.71887 0.27216 0.19346 0.0
O61 O 0.63811 0.20587 0.11065 0.0
O62 O 0.6911 0.23388 0.13579 0.0
C63 C 0.58506 0.20124 0.19291 0.0
C64 C 0.60051 0.32694 0.14914 0.0
O65 O 0.6356 0.31967 0.16272 0.0
O66 O 0.57993 0.29502 0.13806 0.0
C67 C 0.72467 0.30555 0.20883 0.0
O68 O 0.69219 0.33396 0.21205 0.0
C69 C 0.67865 0.2146 0.11404 0.0
Zn70 Zn 0.28214 0.0953 0.63845 0.0
Zn71 Zn 0.25684 0.15974 0.66944 0.0
O72 O 0.28967 0.11447 0.695 0.0
O73 O 0.31686 0.06445 0.66716 0.0
O74 O 0.24657 0.21608 0.69167 0.0
O75 O 0.31112 0.13142 0.60971 0.0
O76 O 0.28359 0.18623 0.6336 0.0
C77 C 0.3113 0.07858 0.69105 0.0
C78 C 0.18648 0.10008 0.64727 0.0
O79 O 0.19577 0.13345 0.66206 0.0
O80 O 0.217 0.07952 0.6349 0.0
C81 C 0.21548 0.2213 0.70879 0.0
O82 O 0.18867 0.18799 0.71379 0.0
C83 C 0.30358 0.17234 0.61239 0.0
Zn84 Zn 0.42077 0.78538 0.13711 0.0
Zn85 Zn 0.35503 0.76111 0.16779 0.0
O86 O 0.40019 0.79343 0.19365 0.0
O87 O 0.45154 0.81937 0.1663 0.0
O88 O 0.2989 0.75087 0.18995 0.0
O89 O 0.38454 0.81454 0.10831 0.0
O90 O 0.32902 0.78877 0.1323 0.0
C91 C 0.43667 0.81425 0.19007 0.0
C92 C 0.41351 0.68972 0.14548 0.0
O93 O 0.37984 0.69962 0.15979 0.0
O94 O 0.43547 0.71998 0.13374 0.0
C95 C 0.29435 0.72028 0.20749 0.0
O96 O 0.32812 0.69433 0.2128 0.0
C97 C 0.34344 0.80814 0.11103 0.0
Zn98 Zn 0.72681 0.91669 0.63361 0.0
Zn99 Zn 0.7574 0.85314 0.66424 0.0
O100 O 0.72499 0.89712 0.69063 0.0
O101 O 0.69387 0.94632 0.66378 0.0
O102 O 0.77119 0.79746 0.68626 0.0
O103 O 0.69651 0.87845 0.60633 0.0
O104 O 0.72889 0.8254 0.62937 0.0
C105 C 0.70171 0.93211 0.68741 0.0
C106 C 0.82351 0.9143 0.63909 0.0
O107 O 0.81664 0.88147 0.65478 0.0
O108 O 0.79136 0.93352 0.62749 0.0
C109 C 0.80282 0.79336 0.7031 0.0
O110 O 0.82851 0.82761 0.70796 0.0
C111 C 0.70636 0.83798 0.60885 0.0
C112 C 0.05214 0.13452 0.38957 0.0
C113 C 0.08525 0.14476 0.37055 0.0
C114 C 0.03071 0.09361 0.38894 0.0
C115 C 0.04201 0.06182 0.36929 0.0
C116 C 0.07571 0.07164 0.35062 0.0
C117 C 0.09741 0.1126 0.35134 0.0
C118 C 0.01751 0.01939 0.36683 0.0
C119 C 0.99723 0.99971 0.38794 0.0
C120 C 0.97294 0.95735 0.38521 0.0
C121 C 0.94822 0.94713 0.36186 0.0
C122 C 0.9269 0.90618 0.35953 0.0
C123 C 0.93046 0.87462 0.38033 0.0
H124 H 0.99276 0.93421 0.42488 0.0
C125 C 0.95387 0.88555 0.40402 0.0
C126 C 0.97443 0.92677 0.40656 0.0
H127 H 0.95689 0.86195 0.42046 0.0
H128 H 0.04182 0.15862 0.40457 0.0
H129 H 1.00417 0.08782 0.40324 0.0
H130 H 0.08487 0.04779 0.33519 0.0
H131 H 0.12255 0.1196 0.33629 0.0
H132 H 0.01749 1.00309 0.34717 0.0
H133 H 1.00096 0.01325 0.40821 0.0
H134 H 0.94545 0.97066 0.34538 0.0
H135 H 0.90906 0.89862 0.34105 0.0
C136 C 0.40329 0.5933 0.85646 0.0
C137 C 0.37277 0.58856 0.87774 0.0
C138 C 0.44461 0.57266 0.85789 0.0
C139 C 0.4562 0.54747 0.8808 0.0
C140 C 0.42663 0.54483 0.90262 0.0
C141 C 0.38507 0.56469 0.90099 0.0
C142 C 0.4989 0.52378 0.8826 0.0
C143 C 0.51805 0.50446 0.86099 0.0
C144 C 0.56043 0.47992 0.86277 0.0
C145 C 0.56955 0.44636 0.84385 0.0
C146 C 0.61012 0.42409 0.84429 0.0
C147 C 0.64257 0.43553 0.86346 0.0
H148 H 0.58742 0.51726 0.89666 0.0
C149 C 0.63315 0.46876 0.88258 0.0
C150 C 0.59265 0.49078 0.88222 0.0
H151 H 0.65749 0.4786 0.89754 0.0
H152 H 0.39466 0.61154 0.83831 0.0
H153 H 0.46733 0.57632 0.84107 0.0
H154 H 0.43512 0.5261 0.92062 0.0
H155 H 0.36229 0.56078 0.91778 0.0
H156 H 0.5131 0.51943 0.90265 0.0
H157 H 0.5012 0.50496 0.84152 0.0
H158 H 0.54535 0.43757 0.82856 0.0
H159 H 0.6165 0.39889 0.82916 0.0
C160 C 0.54058 0.37906 0.1351 0.0
C161 C 0.5822 0.37222 0.14712 0.0
C162 C 0.52201 0.42131 0.13417 0.0
C163 C 0.54468 0.45772 0.14526 0.0
C164 C 0.58674 0.45117 0.15663 0.0
C165 C 0.60524 0.40877 0.15776 0.0
C166 C 0.52593 0.50304 0.14443 0.0
C167 C 0.4821 0.51115 0.14471 0.0
C168 C 0.46382 0.55666 0.14378 0.0
C169 C 0.42352 0.56584 0.15676 0.0
C170 C 0.40645 0.60891 0.15694 0.0
C171 C 0.42917 0.6434 0.14376 0.0
H172 H 0.51599 0.58457 0.11875 0.0
C173 C 0.46857 0.63366 0.12983 0.0
C174 C 0.4857 0.59082 0.12982 0.0
H175 H 0.48674 0.65932 0.11921 0.0
H176 H 0.52201 0.35169 0.12655 0.0
H177 H 0.49018 0.42534 0.12443 0.0
H178 H 0.60509 0.47884 0.16501 0.0
H179 H 0.63743 0.40465 0.16705 0.0
H180 H 0.54912 0.53057 0.14491 0.0
H181 H 0.45887 0.48395 0.14715 0.0
H182 H 0.40575 0.53987 0.16734 0.0
H183 H 0.37591 0.61527 0.16773 0.0
C184 C 0.12989 0.04987 0.62687 0.0
C185 C 0.14086 0.08251 0.64607 0.0
C186 C 0.08857 0.02928 0.62744 0.0
C187 C 0.05721 0.04092 0.64724 0.0
C188 C 0.06782 0.07409 0.66613 0.0
C189 C 0.10913 0.09502 0.66542 0.0
C190 C 0.0144 0.01717 0.64963 0.0
C191 C 0.99381 0.99857 0.62829 0.0
C192 C 0.9512 0.97479 0.63093 0.0
C193 C 0.91988 0.97842 0.61011 0.0
C194 C 0.87867 0.95789 0.61253 0.0
C195 C 0.86851 0.93232 0.63551 0.0
H196 H 0.96567 0.94386 0.66964 0.0
C197 C 0.90067 0.92689 0.65578 0.0
C198 C 0.9416 0.94822 0.65361 0.0
H199 H 0.89369 0.90736 0.6737 0.0
H200 H 0.15367 0.03932 0.61176 0.0
H201 H 0.08207 1.00311 0.61297 0.0
H202 H 0.04429 0.08347 0.68168 0.0
H203 H 0.11672 0.1198 0.68062 0.0
H204 H 0.99865 0.01633 0.66944 0.0
H205 H 0.0069 1.00326 0.60798 0.0
H206 H 0.92681 0.99826 0.5923 0.0
H207 H 0.85459 0.96239 0.5965 0.0
C208 C 0.25043 0.28973 0.42816 0.0
C209 C 0.20982 0.31236 0.42708 0.0
C210 C 0.27442 0.28758 0.45245 0.0
C211 C 0.25815 0.308 0.47616 0.0
C212 C 0.21991 0.33416 0.47424 0.0
C213 C 0.1959 0.33616 0.45007 0.0
C214 C 0.27718 0.29983 0.50364 0.0
C215 C 0.29938 0.26251 0.51009 0.0
C216 C 0.3078 0.24671 0.53834 0.0
C217 C 0.33441 0.20899 0.54175 0.0
C218 C 0.33602 0.18689 0.56661 0.0
C219 C 0.31102 0.20196 0.5888 0.0
H220 H 0.26447 0.29265 0.55976 0.0
C221 C 0.28745 0.24186 0.5862 0.0
C222 C 0.28563 0.26394 0.56121 0.0
H223 H 0.26773 0.25433 0.60287 0.0
H224 H 0.26238 0.27144 0.41074 0.0
H225 H 0.30478 0.26866 0.45268 0.0
H226 H 0.20691 0.35089 0.49197 0.0
H227 H 0.16507 0.35442 0.44988 0.0
H228 H 0.26786 0.32283 0.51953 0.0
H229 H 0.30841 0.23967 0.49403 0.0
H230 H 0.3521 0.19497 0.52467 0.0
H231 H 0.35485 0.15645 0.56794 0.0
C232 C 0.17786 0.69633 0.951 0.0
C233 C 0.20098 0.70999 0.9277 0.0
C234 C 0.17997 0.72115 0.9749 0.0
C235 C 0.20552 0.75997 0.97621 0.0
C236 C 0.22503 0.77598 0.95216 0.0
C237 C 0.2228 0.75117 0.92817 0.0
C238 C 0.21422 0.77988 1.00342 0.0
C239 C 0.25154 0.80262 1.00928 0.0
C240 C 0.26826 0.81181 0.03727 0.0
C241 C 0.3074 0.83664 0.03989 0.0
C242 C 0.32998 0.8386 0.06458 0.0
C243 C 0.31396 0.81579 0.0874 0.0
H244 H 0.22024 0.77264 0.06002 0.0
C245 C 0.27279 0.79426 0.08555 0.0
C246 C 0.25021 0.79211 0.06075 0.0
H247 H 0.25947 0.77635 0.10273 0.0
H248 H 0.16023 0.66506 0.95131 0.0
H249 H 0.16391 0.70832 0.99291 0.0
H250 H 0.24339 0.80676 0.95192 0.0
H251 H 0.24051 0.763 0.9105 0.0
H252 H 0.19179 0.7706 0.01959 0.0
H253 H 0.27385 0.81127 0.99287 0.0
H254 H 0.32207 0.85253 0.02236 0.0
H255 H 0.36141 0.85585 0.06531 0.0
C256 C 0.72366 0.76866 0.58273 0.0
C257 C 0.69885 0.80778 0.58552 0.0
C258 C 0.72547 0.74644 0.55779 0.0
C259 C 0.70207 0.76273 0.53514 0.0
C260 C 0.67424 0.79949 0.53878 0.0
C261 C 0.67259 0.82173 0.56361 0.0
C262 C 0.71069 0.74729 0.50685 0.0
C263 C 0.73318 0.71017 0.50032 0.0
C264 C 0.75308 0.70267 0.47298 0.0
C265 C 0.73789 0.72406 0.44934 0.0
C266 C 0.76311 0.72309 0.42549 0.0
C267 C 0.80386 0.70068 0.42478 0.0
H268 H 0.8035 0.65896 0.48892 0.0
C269 C 0.81653 0.67561 0.44751 0.0
C270 C 0.79132 0.67647 0.47126 0.0
H271 H 0.84742 0.65744 0.44758 0.0
H272 H 0.74437 0.75704 0.59917 0.0
H273 H 0.74769 0.71856 0.55611 0.0
H274 H 0.65563 0.81277 0.52186 0.0
H275 H 0.65279 0.85154 0.56508 0.0
H276 H 0.70169 0.77032 0.4909 0.0
H277 H 0.74219 0.68696 0.51615 0.0
H278 H 0.70754 0.74299 0.44935 0.0
H279 H 0.75203 0.74228 0.40823 0.0
C280 C 0.77774 0.26179 0.91867 0.0
C281 C 0.79923 0.30299 0.9208 0.0
C282 C 0.77057 0.23572 0.94174 0.0
C283 C 0.78492 0.24995 0.96744 0.0
C284 C 0.80943 0.28961 0.96916 0.0
C285 C 0.81659 0.31564 0.9461 0.0
C286 C 0.76813 0.22625 0.99198 0.0
C287 C 0.78394 0.23247 0.01734 0.0
C288 C 0.76028 0.21893 0.04271 0.0
C289 C 0.77636 0.23481 0.06766 0.0
C290 C 0.75146 0.23032 0.09144 0.0
C291 C 0.70971 0.20979 0.09085 0.0
H292 H 0.70675 0.18066 0.02438 0.0
C293 C 0.69533 0.19046 0.06645 0.0
C294 C 0.72027 0.19481 0.04268 0.0
H295 H 0.66358 0.17385 0.06532 0.0
H296 H 0.76391 0.25092 0.89953 0.0
H297 H 0.75162 0.2054 0.93969 0.0
H298 H 0.82068 0.30251 0.9884 0.0
H299 H 0.83338 0.34713 0.94851 0.0
H300 H 0.7394 0.20542 0.98882 0.0
H301 H 0.81398 0.2517 0.02 0.0
H302 H 0.80723 0.25305 0.06856 0.0
H303 H 0.76376 0.24542 0.10988 0.0
C304 C 0.54881 0.22101 0.23692 0.0
C305 C 0.55486 0.19046 0.2157 0.0
C306 C 0.51219 0.21754 0.25426 0.0
C307 C 0.48133 0.18296 0.25101 0.0
C308 C 0.48955 0.15037 0.23134 0.0
C309 C 0.52552 0.1544 0.2136 0.0
C310 C 0.43957 0.18095 0.26706 0.0
C311 C 0.41593 0.21756 0.27322 0.0
C312 C 0.37182 0.21668 0.28687 0.0
C313 C 0.34234 0.25198 0.28253 0.0
C314 C 0.3011 0.25316 0.29549 0.0
C315 C 0.28856 0.21935 0.31352 0.0
H316 H 0.38118 0.15526 0.30905 0.0
C317 C 0.31803 0.18396 0.31789 0.0
C318 C 0.3591 0.18254 0.30468 0.0
H319 H 0.30959 0.15746 0.33176 0.0
H320 H 0.57055 0.24938 0.23894 0.0
H321 H 0.50742 0.24257 0.26972 0.0
H322 H 0.46664 0.12308 0.22863 0.0
H323 H 0.5292 0.13042 0.19741 0.0
H324 H 0.42586 0.14843 0.27135 0.0
H325 H 0.42798 0.24958 0.26633 0.0
H326 H 0.35126 0.27887 0.26903 0.0
H327 H 0.27943 0.28106 0.29176 0.0
C328 C 0.28224 0.80334 0.80367 0.0
C329 C 0.30936 0.7667 0.79771 0.0
C330 C 0.28954 0.84448 0.79116 0.0
C331 C 0.3241 0.84985 0.77227 0.0
C332 C 0.35084 0.81309 0.76621 0.0
C333 C 0.34384 0.77219 0.77888 0.0
C334 C 0.33168 0.89202 0.75709 0.0
C335 C 0.31912 0.93264 0.76579 0.0
C336 C 0.32381 0.97384 0.74908 0.0
C337 C 0.29624 0.01032 0.75458 0.0
C338 C 0.29517 0.04699 0.7371 0.0
C339 C 0.32172 0.04791 0.7137 0.0
H340 H 0.377 0.95093 0.72282 0.0
C341 C 0.35218 0.01335 0.7096 0.0
C342 C 0.3535 0.97696 0.72714 0.0
H343 H 0.3735 0.01329 0.69194 0.0
H344 H 0.25533 0.80031 0.81806 0.0
H345 H 0.26736 0.8715 0.79588 0.0
H346 H 0.37741 0.816 0.75156 0.0
H347 H 0.36534 0.74476 0.77373 0.0
H348 H 0.34803 0.88872 0.73763 0.0
H349 H 0.30265 0.93578 0.78525 0.0
H350 H 0.27359 0.0094 0.7716 0.0
H351 H 0.27117 0.07293 0.74082 0.0
C352 C 0.68909 0.8141 0.327 0.0
C353 C 0.72937 0.79967 0.31569 0.0
C354 C 0.65184 0.82117 0.31064 0.0
C355 C 0.65392 0.81389 0.28248 0.0
C356 C 0.69436 0.80004 0.27119 0.0
C357 C 0.73153 0.7928 0.28755 0.0
C358 C 0.6154 0.82134 0.26403 0.0
C359 C 0.57256 0.82204 0.27202 0.0
C360 C 0.53508 0.82634 0.25245 0.0
C361 C 0.49438 0.80565 0.25813 0.0
C362 C 0.46048 0.80464 0.23867 0.0
C363 C 0.46652 0.82471 0.2132 0.0
H364 H 0.56961 0.8676 0.22323 0.0
C365 C 0.50579 0.84869 0.20854 0.0
C366 C 0.53958 0.84957 0.2279 0.0
H367 H 0.51142 0.8651 0.18932 0.0
H368 H 0.68623 0.81997 0.34859 0.0
H369 H 0.62183 0.83293 0.32016 0.0
H370 H 0.69719 0.79445 0.24956 0.0
H371 H 0.76197 0.78184 0.2781 0.0
H372 H 0.6228 0.82375 0.24254 0.0
H373 H 0.5643 0.81558 0.29306 0.0
H374 H 0.48963 0.78819 0.27709 0.0
H375 H 0.43075 0.78585 0.24299 0.0
C376 C 0.68397 0.19842 0.8128 0.0
C377 C 0.7176 0.22942 0.80722 0.0
C378 C 0.68316 0.15715 0.79975 0.0
C379 C 0.71618 0.14578 0.78088 0.0
C380 C 0.74971 0.17679 0.7753 0.0
C381 C 0.75025 0.21824 0.78811 0.0
C382 C 0.71767 0.10157 0.76732 0.0
C383 C 0.68155 0.07653 0.76227 0.0
C384 C 0.68381 0.03484 0.74614 0.0
C385 C 0.65048 0.02581 0.72711 0.0
C386 C 0.65456 0.99006 0.70919 0.0
C387 C 0.69138 0.96171 0.71052 0.0
H388 H 0.745 0.01045 0.76355 0.0
C389 C 0.72283 0.96848 0.73111 0.0
C390 C 0.71932 1.00496 0.74861 0.0
H391 H 0.75181 0.94751 0.73245 0.0
H392 H 0.65843 0.20581 0.82752 0.0
H393 H 0.6573 0.13389 0.80506 0.0
H394 H 0.7757 0.16892 0.76096 0.0
H395 H 0.77681 0.24111 0.78345 0.0
H396 H 0.7495 0.09069 0.75951 0.0
H397 H 0.64898 0.08906 0.76747 0.0
H398 H 0.62252 0.04799 0.725 0.0
H399 H 0.62994 0.9858 0.69344 0.0
C400 C 0.01448 0.35669 0.3102 0.0
C401 C 0.04954 0.32717 0.30524 0.0
C402 C 0.97787 0.3583 0.29288 0.0
C403 C 0.97506 0.32987 0.27028 0.0
C404 C 0.01193 0.30334 0.264 0.0
C405 C 0.0488 0.30196 0.28127 0.0
C406 C 0.93386 0.32537 0.25363 0.0
C407 C 0.89315 0.33661 0.26273 0.0
C408 C 0.85108 0.32882 0.24756 0.0
C409 C 0.81381 0.35438 0.25426 0.0
C410 C 0.77299 0.34695 0.24165 0.0
C411 C 0.76812 0.31319 0.22224 0.0
H412 H 0.87379 0.27372 0.22282 0.0
C413 C 0.80531 0.2873 0.2156 0.0
C414 C 0.84634 0.29504 0.22806 0.0
H415 H 0.80277 0.26097 0.20076 0.0
H416 H 0.01427 0.37702 0.32831 0.0
H417 H 0.95146 0.38102 0.29785 0.0
H418 H 0.01124 0.28169 0.24648 0.0
H419 H 0.07514 0.27875 0.27685 0.0
H420 H 0.93712 0.31004 0.23383 0.0
H421 H 0.88972 0.35187 0.28252 0.0
H422 H 0.81624 0.38033 0.26939 0.0
H423 H 0.74512 0.36749 0.24734 0.0
C424 C 0.23297 0.30258 0.71463 0.0
C425 C 0.20873 0.26481 0.72244 0.0
C426 C 0.22605 0.34357 0.72742 0.0
C427 C 0.19473 0.34768 0.74844 0.0
C428 C 0.17081 0.30982 0.75627 0.0
C429 C 0.17745 0.26906 0.74336 0.0
C430 C 0.18773 0.38971 0.76393 0.0
C431 C 0.19798 0.43075 0.7548 0.0
C432 C 0.19338 0.47177 0.77171 0.0
C433 C 0.21938 0.50916 0.76553 0.0
C434 C 0.2202 0.54605 0.78288 0.0
C435 C 0.19494 0.54632 0.80682 0.0
H436 H 0.14272 0.44712 0.79924 0.0
C437 C 0.1661 0.5106 0.81173 0.0
C438 C 0.16504 0.47397 0.79435 0.0
H439 H 0.14574 0.50998 0.82981 0.0
H440 H 0.2574 0.30052 0.69861 0.0
H441 H 0.24607 0.37149 0.72119 0.0
H442 H 0.14675 0.31173 0.77252 0.0
H443 H 0.15821 0.24077 0.74999 0.0
H444 H 0.17377 0.38598 0.78405 0.0
H445 H 0.21229 0.43453 0.73476 0.0
H446 H 0.24094 0.50892 0.74798 0.0
H447 H 0.24292 0.57289 0.7785 0.0
C448 C 0.2131 0.73674 0.21337 0.0
C449 C 0.25113 0.71318 0.2213 0.0
C450 C 0.17238 0.72959 0.22634 0.0
C451 C 0.1688 0.6987 0.24764 0.0
C452 C 0.20691 0.67544 0.25558 0.0
C453 C 0.24743 0.68233 0.24251 0.0
C454 C 0.12705 0.69156 0.26327 0.0
C455 C 0.08595 0.70108 0.25411 0.0
C456 C 0.04522 0.69661 0.27118 0.0
C457 C 0.00785 0.72247 0.26501 0.0
C458 C 0.97123 0.72347 0.2825 0.0
C459 C 0.97123 0.6985 0.30656 0.0
H460 H 0.07019 0.64633 0.29884 0.0
C461 C 0.00694 0.66975 0.31148 0.0
C462 C 0.04331 0.66855 0.29396 0.0
H463 H 0.00774 0.64957 0.32963 0.0
H464 H 0.21475 0.76084 0.19713 0.0
H465 H 0.14425 0.74913 0.22001 0.0
H466 H 0.20539 0.65175 0.27205 0.0
H467 H 0.27595 0.66363 0.24923 0.0
H468 H 0.13101 0.67822 0.28354 0.0
H469 H 0.08191 0.71478 0.23394 0.0
H470 H 0.00789 0.74381 0.24735 0.0
H471 H 0.94436 0.74606 0.27809 0.0
C472 C 0.85427 0.50568 0.80739 0.0
C473 C 0.82674 0.46936 0.80134 0.0
C474 C 0.85623 0.54245 0.79014 0.0
C475 C 0.83023 0.5441 0.76645 0.0
C476 C 0.80581 0.50616 0.75924 0.0
C477 C 0.80403 0.46922 0.77646 0.0
C478 C 0.82612 0.58503 0.74945 0.0
C479 C 0.83514 0.6263 0.75867 0.0
C480 C 0.8274 0.66796 0.74299 0.0
C481 C 0.85058 0.70643 0.75055 0.0
C482 C 0.84284 0.74689 0.73751 0.0
C483 C 0.81116 0.75016 0.71676 0.0
H484 H 0.77624 0.64269 0.7161 0.0
C485 C 0.78774 0.71174 0.70918 0.0
C486 C 0.79576 0.6711 0.7221 0.0
H487 H 0.76302 0.71303 0.69331 0.0
H488 H 0.87272 0.50669 0.82621 0.0
H489 H 0.87731 0.56981 0.79595 0.0
H490 H 0.78609 0.50596 0.7409 0.0
H491 H 0.78244 0.44191 0.77111 0.0
H492 H 0.81292 0.58097 0.72914 0.0
H493 H 0.84831 0.63053 0.77895 0.0
H494 H 0.87482 0.70525 0.76671 0.0
H495 H 0.86145 0.77572 0.74394 0.0
loop_
_geom_bond_atom_site_label_1
_geom_bond_atom_site_label_2
_geom_bond_distance
_geom_bond_site_symmetry_2
_ccdc_geom_bond_type
Zn0 O3 2.031 . S
Zn0 O5 2.049 . S
Zn0 O10 2.067 . S
Zn1 O2 1.962 . S
Zn1 O4 1.986 . S
Zn1 O6 1.996 . S
Zn1 O9 1.943 . S
O2 Zn1 1.962 . S
O2 C7 1.254 . S
O3 Zn0 2.031 . S
O3 C7 1.269 . S
O4 Zn1 1.986 . S
O4 C11 1.262 . S
O5 Zn0 2.049 . S
O5 C13 1.260 . S
O6 Zn1 1.996 . S
O6 C13 1.257 . S
C7 O2 1.254 . S
C7 O3 1.269 . S
C8 O9 1.249 . S
C8 O10 1.270 . S
O9 Zn1 1.943 . S
O9 C8 1.249 . S
O10 Zn0 2.067 . S
O10 C8 1.270 . S
C11 O4 1.262 . S
C11 O12 1.232 . S
O12 C11 1.232 . S
C13 O5 1.260 . S
C13 O6 1.257 . S
Zn14 O17 2.031 . S
Zn14 O19 2.049 . S
Zn14 O24 2.067 . S
Zn15 O16 1.962 . S
Zn15 O18 1.986 . S
Zn15 O20 1.996 . S
Zn15 O23 1.943 . S
O16 Zn15 1.962 . S
O16 C21 1.254 . S
O17 Zn14 2.031 . S
O17 C21 1.269 . S
O18 Zn15 1.986 . S
O18 C25 1.262 . S
O19 Zn14 2.049 . S
O19 C27 1.260 . S
O20 Zn15 1.996 . S
O20 C27 1.257 . S
C21 O16 1.254 . S
C21 O17 1.269 . S
C22 O23 1.249 . S
C22 O24 1.270 . S
O23 Zn15 1.943 . S
O23 C22 1.249 . S
O24 Zn14 2.067 . S
O24 C22 1.270 . S
C25 O18 1.262 . S
C25 O26 1.232 . S
O26 C25 1.232 . S
C27 O19 1.260 . S
C27 O20 1.257 . S
Zn28 O31 2.031 . S
Zn28 O33 2.049 . S
Zn28 O38 2.067 . S
Zn29 O30 1.962 . S
Zn29 O32 1.986 . S
Zn29 O34 1.996 . S
Zn29 O37 1.943 . S
O30 Zn29 1.962 . S
O30 C35 1.254 . S
O31 Zn28 2.031 . S
O31 C35 1.269 . S
O32 Zn29 1.986 . S
O32 C39 1.262 . S
O33 Zn28 2.049 . S
O33 C41 1.260 . S
O34 Zn29 1.996 . S
O34 C41 1.257 . S
C35 O30 1.254 . S
C35 O31 1.269 . S
C36 O37 1.249 . S
C36 O38 1.270 . S
O37 Zn29 1.943 . S
O37 C36 1.249 . S
O38 Zn28 2.067 . S
O38 C36 1.270 . S
C39 O32 1.262 . S
C39 O40 1.232 . S
O40 C39 1.232 . S
C41 O33 1.260 . S
C41 O34 1.257 . S
Zn42 O45 2.031 . S
Zn42 O47 2.049 . S
Zn42 O52 2.067 . S
Zn43 O44 1.962 . S
Zn43 O46 1.986 . S
Zn43 O48 1.996 . S
Zn43 O51 1.943 . S
O44 Zn43 1.962 . S
O44 C49 1.254 . S
O45 Zn42 2.031 . S
O45 C49 1.269 . S
O46 Zn43 1.986 . S
O46 C53 1.262 . S
O47 Zn42 2.049 . S
O47 C55 1.260 . S
O48 Zn43 1.996 . S
O48 C55 1.257 . S
C49 O44 1.254 . S
C49 O45 1.269 . S
C50 O51 1.249 . S
C50 O52 1.270 . S
O51 Zn43 1.943 . S
O51 C50 1.249 . S
O52 Zn42 2.067 . S
O52 C50 1.270 . S
C53 O46 1.262 . S
C53 O54 1.232 . S
O54 C53 1.232 . S
C55 O47 1.260 . S
C55 O48 1.257 . S
Zn56 O59 2.031 . S
Zn56 O61 2.049 . S
Zn56 O66 2.067 . S
Zn57 O58 1.962 . S
Zn57 O60 1.986 . S
Zn57 O62 1.996 . S
Zn57 O65 1.943 . S
O58 Zn57 1.962 . S
O58 C63 1.254 . S
O59 Zn56 2.031 . S
O59 C63 1.269 . S
O60 Zn57 1.986 . S
O60 C67 1.262 . S
O61 Zn56 2.049 . S
O61 C69 1.260 . S
O62 Zn57 1.996 . S
O62 C69 1.257 . S
C63 O58 1.254 . S
C63 O59 1.269 . S
C64 O65 1.249 . S
C64 O66 1.270 . S
O65 Zn57 1.943 . S
O65 C64 1.249 . S
O66 Zn56 2.067 . S
O66 C64 1.270 . S
C67 O60 1.262 . S
C67 O68 1.232 . S
O68 C67 1.232 . S
C69 O61 1.260 . S
C69 O62 1.257 . S
Zn70 O73 2.031 . S
Zn70 O75 2.049 . S
Zn70 O80 2.067 . S
Zn71 O72 1.962 . S
Zn71 O74 1.986 . S
Zn71 O76 1.996 . S
Zn71 O79 1.943 . S
O72 Zn71 1.962 . S
O72 C77 1.254 . S
O73 Zn70 2.031 . S
O73 C77 1.269 . S
O74 Zn71 1.986 . S
O74 C81 1.262 . S
O75 Zn70 2.049 . S
O75 C83 1.260 . S
O76 Zn71 1.996 . S
O76 C83 1.257 . S
C77 O72 1.254 . S
C77 O73 1.269 . S
C78 O79 1.249 . S
C78 O80 1.270 . S
O79 Zn71 1.943 . S
O79 C78 1.249 . S
O80 Zn70 2.067 . S
O80 C78 1.270 . S
C81 O74 1.262 . S
C81 O82 1.232 . S
O82 C81 1.232 . S
C83 O75 1.260 . S
C83 O76 1.257 . S
Zn84 O87 2.031 . S
Zn84 O89 2.049 . S
Zn84 O94 2.067 . S
Zn85 O86 1.962 . S
Zn85 O88 1.986 . S
Zn85 O90 1.996 . S
Zn85 O93 1.943 . S
O86 Zn85 1.962 . S
O86 C91 1.254 . S
O87 Zn84 2.031 . S
O87 C91 1.269 . S
O88 Zn85 1.986 . S
O88 C95 1.262 . S
O89 Zn84 2.049 . S
O89 C97 1.260 . S
O90 Zn85 1.996 . S
O90 C97 1.257 . S
C91 O86 1.254 . S
C91 O87 1.269 . S
C92 O93 1.249 . S
C92 O94 1.270 . S
O93 Zn85 1.943 . S
O93 C92 1.249 . S
O94 Zn84 2.067 . S
O94 C92 1.270 . S
C95 O88 1.262 . S
C95 O96 1.232 . S
O96 C95 1.232 . S
C97 O89 1.260 . S
C97 O90 1.257 . S
Zn98 O101 2.031 . S
Zn98 O103 2.049 . S
Zn98 O108 2.067 . S
Zn99 O100 1.962 . S
Zn99 O102 1.986 . S
Zn99 O104 1.996 . S
Zn99 O107 1.943 . S
O100 Zn99 1.962 . S
O100 C105 1.254 . S
O101 Zn98 2.031 . S
O101 C105 1.269 . S
O102 Zn99 1.986 . S
O102 C109 1.262 . S
O103 Zn98 2.049 . S
O103 C111 1.260 . S
O104 Zn99 1.996 . S
O104 C111 1.257 . S
C105 O100 1.254 . S
C105 O101 1.269 . S
C106 O107 1.249 . S
C106 O108 1.270 . S
O107 Zn99 1.943 . S
O107 C106 1.249 . S
O108 Zn98 2.067 . S
O108 C106 1.270 . S
C109 O102 1.262 . S
C109 O110 1.232 . S
O110 C109 1.232 . S
C111 O103 1.260 . S
C111 O104 1.257 . S
C112 C113 1.386 . S
C112 C114 1.383 . S
C112 H128 0.951 . S
C113 C112 1.386 . S
C113 C117 1.383 . S
C114 C112 1.383 . S
C114 C115 1.402 . S
C114 H129 0.951 . S
C115 C114 1.402 . S
C115 C116 1.375 . S
C115 C118 1.481 1_455 S
C116 C115 1.375 . S
C116 C117 1.367 . S
C116 H130 0.951 1_455 S
C117 C113 1.383 . S
C117 C116 1.367 . S
C117 H131 0.950 . S
C118 C115 1.481 1_655 S
C118 C119 1.300 1_545 S
C118 H132 0.950 . S
C119 C118 1.300 1_565 S
C119 C120 1.491 . S
C119 H133 0.934 1_655 S
C120 C119 1.491 . S
C120 C121 1.375 . S
C120 C126 1.404 . S
C121 C120 1.375 . S
C121 C122 1.369 . S
C121 H134 0.950 1_655 S
C122 C121 1.369 . S
C122 C123 1.392 . S
C122 H135 0.951 . S
C123 C122 1.392 . S
C123 C125 1.384 . S
H124 C126 0.949 . S
C125 C123 1.384 . S
C125 C126 1.385 . S
C125 H127 0.950 . S
C126 C120 1.404 . S
C126 H124 0.949 . S
C126 C125 1.385 . S
H127 C125 0.950 . S
H128 C112 0.951 . S
H129 C114 0.951 . S
H130 C116 0.951 1_655 S
H131 C117 0.950 . S
H132 C118 0.950 . S
H133 C119 0.934 1_455 S
H134 C121 0.950 1_455 S
H135 C122 0.951 . S
C136 C137 1.386 . S
C136 C138 1.383 . S
C136 H152 0.951 . S
C137 C136 1.386 . S
C137 C141 1.383 . S
C138 C136 1.383 . S
C138 C139 1.402 . S
C138 H153 0.951 . S
C139 C138 1.402 . S
C139 C140 1.375 . S
C139 C142 1.481 . S
C140 C139 1.375 . S
C140 C141 1.367 . S
C140 H154 0.951 . S
C141 C137 1.383 . S
C141 C140 1.367 . S
C141 H155 0.950 . S
C142 C139 1.481 . S
C142 C143 1.297 . S
C142 H156 0.950 . S
C143 C142 1.297 . S
C143 C144 1.479 . S
C143 H157 0.950 . S
C144 C143 1.479 . S
C144 C145 1.375 . S
C144 C150 1.404 . S
C145 C144 1.375 . S
C145 C146 1.369 . S
C145 H158 0.950 . S
C146 C145 1.369 . S
C146 C147 1.392 . S
C146 H159 0.951 . S
C147 C146 1.392 . S
C147 C149 1.384 . S
H148 C150 0.949 . S
C149 C147 1.384 . S
C149 C150 1.385 . S
C149 H151 0.950 . S
C150 C144 1.404 . S
C150 H148 0.949 . S
C150 C149 1.385 . S
H151 C149 0.950 . S
H152 C136 0.951 . S
H153 C138 0.951 . S
H154 C140 0.951 . S
H155 C141 0.950 . S
H156 C142 0.950 . S
H157 C143 0.950 . S
H158 C145 0.950 . S
H159 C146 0.951 . S
C160 C161 1.386 . S
C160 C162 1.383 . S
C160 H176 0.951 . S
C161 C160 1.386 . S
C161 C165 1.383 . S
C162 C160 1.383 . S
C162 C163 1.402 . S
C162 H177 0.951 . S
C163 C162 1.402 . S
C163 C164 1.375 . S
C163 C166 1.481 . S
C164 C163 1.375 . S
C164 C165 1.367 . S
C164 H178 0.951 . S
C165 C161 1.383 . S
C165 C164 1.367 . S
C165 H179 0.950 . S
C166 C163 1.481 . S
C166 C167 1.297 . S
C166 H180 0.950 . S
C167 C166 1.297 . S
C167 C168 1.479 . S
C167 H181 0.950 . S
C168 C167 1.479 . S
C168 C169 1.375 . S
C168 C174 1.404 . S
C169 C168 1.375 . S
C169 C170 1.369 . S
C169 H182 0.950 . S
C170 C169 1.369 . S
C170 C171 1.392 . S
C170 H183 0.951 . S
C171 C170 1.392 . S
C171 C173 1.384 . S
H172 C174 0.949 . S
C173 C171 1.384 . S
C173 C174 1.385 . S
C173 H175 0.950 . S
C174 C168 1.404 . S
C174 H172 0.949 . S
C174 C173 1.385 . S
H175 C173 0.950 . S
H176 C160 0.951 . S
H177 C162 0.951 . S
H178 C164 0.951 . S
H179 C165 0.950 . S
H180 C166 0.950 . S
H181 C167 0.950 . S
H182 C169 0.950 . S
H183 C170 0.951 . S
C184 C185 1.386 . S
C184 C186 1.383 . S
C184 H200 0.951 . S
C185 C184 1.386 . S
C185 C189 1.383 . S
C186 C184 1.383 . S
C186 C187 1.402 . S
C186 H201 0.951 . S
C187 C186 1.402 . S
C187 C188 1.375 . S
C187 C190 1.481 1_545 S
C188 C187 1.375 . S
C188 C189 1.367 . S
C188 H202 0.951 1_545 S
C189 C185 1.383 . S
C189 C188 1.367 . S
C189 H203 0.950 . S
C190 C187 1.481 1_565 S
C190 C191 1.297 1_455 S
C190 H204 0.950 . S
C191 C190 1.297 1_655 S
C191 C192 1.479 . S
C191 H205 0.950 1_565 S
C192 C191 1.479 . S
C192 C193 1.375 . S
C192 C198 1.404 . S
C193 C192 1.375 . S
C193 C194 1.369 . S
C193 H206 0.950 . S
C194 C193 1.369 . S
C194 C195 1.392 . S
C194 H207 0.951 . S
C195 C194 1.392 . S
C195 C197 1.384 . S
H196 C198 0.949 . S
C197 C195 1.384 . S
C197 C198 1.385 . S
C197 H199 0.950 . S
C198 C192 1.404 . S
C198 H196 0.949 . S
C198 C197 1.385 . S
H199 C197 0.950 . S
H200 C184 0.951 . S
H201 C186 0.951 . S
H202 C188 0.951 1_565 S
H203 C189 0.950 . S
H204 C190 0.950 . S
H205 C191 0.950 1_545 S
H206 C193 0.950 . S
H207 C194 0.951 . S
C208 C209 1.386 . S
C208 C210 1.383 . S
C208 H224 0.951 . S
C209 C208 1.386 . S
C209 C213 1.383 . S
C210 C208 1.383 . S
C210 C211 1.402 . S
C210 H225 0.951 . S
C211 C210 1.402 . S
C211 C212 1.375 . S
C211 C214 1.481 . S
C212 C211 1.375 . S
C212 C213 1.367 . S
C212 H226 0.951 . S
C213 C209 1.383 . S
C213 C212 1.367 . S
C213 H227 0.950 . S
C214 C211 1.481 . S
C214 C215 1.297 . S
C214 H228 0.950 . S
C215 C214 1.297 . S
C215 C216 1.479 . S
C215 H229 0.950 . S
C216 C215 1.479 . S
C216 C217 1.375 . S
C216 C222 1.404 . S
C217 C216 1.375 . S
C217 C218 1.369 . S
C217 H230 0.950 . S
C218 C217 1.369 . S
C218 C219 1.392 . S
C218 H231 0.951 . S
C219 C218 1.392 . S
C219 C221 1.384 . S
H220 C222 0.949 . S
C221 C219 1.384 . S
C221 C222 1.385 . S
C221 H223 0.950 . S
C222 C216 1.404 . S
C222 H220 0.949 . S
C222 C221 1.385 . S
H223 C221 0.950 . S
H224 C208 0.951 . S
H225 C210 0.951 . S
H226 C212 0.951 . S
H227 C213 0.950 . S
H228 C214 0.950 . S
H229 C215 0.950 . S
H230 C217 0.950 . S
H231 C218 0.951 . S
C232 C233 1.386 . S
C232 C234 1.383 . S
C232 H248 0.951 . S
C233 C232 1.386 . S
C233 C237 1.383 . S
C234 C232 1.383 . S
C234 C235 1.402 . S
C234 H249 0.951 . S
C235 C234 1.402 . S
C235 C236 1.375 . S
C235 C238 1.481 . S
C236 C235 1.375 . S
C236 C237 1.367 . S
C236 H250 0.951 . S
C237 C233 1.383 . S
C237 C236 1.367 . S
C237 H251 0.950 . S
C238 C235 1.481 . S
C238 C239 1.297 1_556 S
C238 H252 0.950 . S
C239 C238 1.297 1_554 S
C239 C240 1.479 . S
C239 H253 0.950 1_554 S
C240 C239 1.479 . S
C240 C241 1.375 . S
C240 C246 1.404 . S
C241 C240 1.375 . S
C241 C242 1.369 . S
C241 H254 0.950 . S
C242 C241 1.369 . S
C242 C243 1.392 . S
C242 H255 0.951 . S
C243 C242 1.392 . S
C243 C245 1.384 . S
H244 C246 0.949 . S
C245 C243 1.384 . S
C245 C246 1.385 . S
C245 H247 0.950 . S
C246 C240 1.404 . S
C246 H244 0.949 . S
C246 C245 1.385 . S
H247 C245 0.950 . S
H248 C232 0.951 . S
H249 C234 0.951 . S
H250 C236 0.951 . S
H251 C237 0.950 . S
H252 C238 0.950 . S
H253 C239 0.950 1_556 S
H254 C241 0.950 . S
H255 C242 0.951 . S
C256 C257 1.386 . S
C256 C258 1.383 . S
C256 H272 0.951 . S
C257 C256 1.386 . S
C257 C261 1.383 . S
C258 C256 1.383 . S
C258 C259 1.402 . S
C258 H273 0.951 . S
C259 C258 1.402 . S
C259 C260 1.375 . S
C259 C262 1.481 . S
C260 C259 1.375 . S
C260 C261 1.367 . S
C260 H274 0.951 . S
C261 C257 1.383 . S
C261 C260 1.367 . S
C261 H275 0.950 . S
C262 C259 1.481 . S
C262 C263 1.297 . S
C262 H276 0.950 . S
C263 C262 1.297 . S
C263 C264 1.479 . S
C263 H277 0.950 . S
C264 C263 1.479 . S
C264 C265 1.375 . S
C264 C270 1.404 . S
C265 C264 1.375 . S
C265 C266 1.369 . S
C265 H278 0.950 . S
C266 C265 1.369 . S
C266 C267 1.392 . S
C266 H279 0.951 . S
C267 C266 1.392 . S
C267 C269 1.384 . S
H268 C270 0.949 . S
C269 C267 1.384 . S
C269 C270 1.385 . S
C269 H271 0.950 . S
C270 C264 1.404 . S
C270 H268 0.949 . S
C270 C269 1.385 . S
H271 C269 0.950 . S
H272 C256 0.951 . S
H273 C258 0.951 . S
H274 C260 0.951 . S
H275 C261 0.950 . S
H276 C262 0.950 . S
H277 C263 0.950 . S
H278 C265 0.950 . S
H279 C266 0.951 . S
C280 C281 1.386 . S
C280 C282 1.383 . S
C280 H296 0.951 . S
C281 C280 1.386 . S
C281 C285 1.383 . S
C282 C280 1.383 . S
C282 C283 1.402 . S
C282 H297 0.951 . S
C283 C282 1.402 . S
C283 C284 1.375 . S
C283 C286 1.481 . S
C284 C283 1.375 . S
C284 C285 1.367 . S
C284 H298 0.951 . S
C285 C281 1.383 . S
C285 C284 1.367 . S
C285 H299 0.950 . S
C286 C283 1.481 . S
C286 C287 1.297 1_556 S
C286 H300 0.950 . S
C287 C286 1.297 1_554 S
C287 C288 1.479 . S
C287 H301 0.950 . S
C288 C287 1.479 . S
C288 C289 1.375 . S
C288 C294 1.404 . S
C289 C288 1.375 . S
C289 C290 1.369 . S
C289 H302 0.950 . S
C290 C289 1.369 . S
C290 C291 1.392 . S
C290 H303 0.951 . S
C291 C290 1.392 . S
C291 C293 1.384 . S
H292 C294 0.949 . S
C293 C291 1.384 . S
C293 C294 1.385 . S
C293 H295 0.950 . S
C294 C288 1.404 . S
C294 H292 0.949 . S
C294 C293 1.385 . S
H295 C293 0.950 . S
H296 C280 0.951 . S
H297 C282 0.951 . S
H298 C284 0.951 . S
H299 C285 0.950 . S
H300 C286 0.950 . S
H301 C287 0.950 . S
H302 C289 0.950 . S
H303 C290 0.951 . S
C304 C305 1.386 . S
C304 C306 1.383 . S
C304 H320 0.951 . S
C305 C304 1.386 . S
C305 C309 1.383 . S
C306 C304 1.383 . S
C306 C307 1.402 . S
C306 H321 0.951 . S
C307 C306 1.402 . S
C307 C308 1.375 . S
C307 C310 1.481 . S
C308 C307 1.375 . S
C308 C309 1.367 . S
C308 H322 0.951 . S
C309 C305 1.383 . S
C309 C308 1.367 . S
C309 H323 0.950 . S
C310 C307 1.481 . S
C310 C311 1.297 . S
C310 H324 0.950 . S
C311 C310 1.297 . S
C311 C312 1.479 . S
C311 H325 0.950 . S
C312 C311 1.479 . S
C312 C313 1.375 . S
C312 C318 1.404 . S
C313 C312 1.375 . S
C313 C314 1.369 . S
C313 H326 0.950 . S
C314 C313 1.369 . S
C314 C315 1.392 . S
C314 H327 0.951 . S
C315 C314 1.392 . S
C315 C317 1.384 . S
H316 C318 0.949 . S
C317 C315 1.384 . S
C317 C318 1.385 . S
C317 H319 0.950 . S
C318 C312 1.404 . S
C318 H316 0.949 . S
C318 C317 1.385 . S
H319 C317 0.950 . S
H320 C304 0.951 . S
H321 C306 0.951 . S
H322 C308 0.951 . S
H323 C309 0.950 . S
H324 C310 0.950 . S
H325 C311 0.950 . S
H326 C313 0.950 . S
H327 C314 0.951 . S
C328 C329 1.386 . S
C328 C330 1.383 . S
C328 H344 0.951 . S
C329 C328 1.386 . S
C329 C333 1.383 . S
C330 C328 1.383 . S
C330 C331 1.402 . S
C330 H345 0.951 . S
C331 C330 1.402 . S
C331 C332 1.375 . S
C331 C334 1.481 . S
C332 C331 1.375 . S
C332 C333 1.367 . S
C332 H346 0.951 . S
C333 C329 1.383 . S
C333 C332 1.367 . S
C333 H347 0.950 . S
C334 C331 1.481 . S
C334 C335 1.297 . S
C334 H348 0.950 . S
C335 C334 1.297 . S
C335 C336 1.479 . S
C335 H349 0.950 . S
C336 C335 1.479 . S
C336 C337 1.375 . S
C336 C342 1.404 . S
C337 C336 1.375 . S
C337 C338 1.369 1_565 S
C337 H350 0.950 . S
C338 C337 1.369 1_545 S
C338 C339 1.392 . S
C338 H351 0.951 . S
C339 C338 1.392 . S
C339 C341 1.384 1_545 S
H340 C342 0.949 . S
C341 C339 1.384 1_565 S
C341 C342 1.385 . S
C341 H343 0.950 . S
C342 C336 1.404 . S
C342 H340 0.949 . S
C342 C341 1.385 . S
H343 C341 0.950 . S
H344 C328 0.951 . S
H345 C330 0.951 . S
H346 C332 0.951 . S
H347 C333 0.950 . S
H348 C334 0.950 . S
H349 C335 0.950 . S
H350 C337 0.950 . S
H351 C338 0.951 . S
C352 C353 1.386 . S
C352 C354 1.383 . S
C352 H368 0.951 . S
C353 C352 1.386 . S
C353 C357 1.383 . S
C354 C352 1.383 . S
C354 C355 1.402 . S
C354 H369 0.951 . S
C355 C354 1.402 . S
C355 C356 1.375 . S
C355 C358 1.481 . S
C356 C355 1.375 . S
C356 C357 1.367 . S
C356 H370 0.951 . S
C357 C353 1.383 . S
C357 C356 1.367 . S
C357 H371 0.950 . S
C358 C355 1.481 . S
C358 C359 1.297 . S
C358 H372 0.950 . S
C359 C358 1.297 . S
C359 C360 1.479 . S
C359 H373 0.950 . S
C360 C359 1.479 . S
C360 C361 1.375 . S
C360 C366 1.404 . S
C361 C360 1.375 . S
C361 C362 1.369 . S
C361 H374 0.950 . S
C362 C361 1.369 . S
C362 C363 1.392 . S
C362 H375 0.951 . S
C363 C362 1.392 . S
C363 C365 1.384 . S
H364 C366 0.949 . S
C365 C363 1.384 . S
C365 C366 1.385 . S
C365 H367 0.950 . S
C366 C360 1.404 . S
C366 H364 0.949 . S
C366 C365 1.385 . S
H367 C365 0.950 . S
H368 C352 0.951 . S
H369 C354 0.951 . S
H370 C356 0.951 . S
H371 C357 0.950 . S
H372 C358 0.950 . S
H373 C359 0.950 . S
H374 C361 0.950 . S
H375 C362 0.951 . S
C376 C377 1.386 . S
C376 C378 1.383 . S
C376 H392 0.951 . S
C377 C376 1.386 . S
C377 C381 1.383 . S
C378 C376 1.383 . S
C378 C379 1.402 . S
C378 H393 0.951 . S
C379 C378 1.402 . S
C379 C380 1.375 . S
C379 C382 1.481 . S
C380 C379 1.375 . S
C380 C381 1.367 . S
C380 H394 0.951 . S
C381 C377 1.383 . S
C381 C380 1.367 . S
C381 H395 0.950 . S
C382 C379 1.481 . S
C382 C383 1.297 . S
C382 H396 0.950 . S
C383 C382 1.297 . S
C383 C384 1.479 . S
C383 H397 0.950 . S
C384 C383 1.479 . S
C384 C385 1.375 . S
C384 C390 1.404 . S
C385 C384 1.375 . S
C385 C386 1.369 . S
C385 H398 0.950 . S
C386 C385 1.369 . S
C386 C387 1.392 1_545 S
C386 H399 0.951 . S
C387 C386 1.392 1_565 S
C387 C389 1.384 1_565 S
H388 C390 0.949 . S
C389 C387 1.384 1_545 S
C389 C390 1.385 . S
C389 H391 0.944 1_545 S
C390 C384 1.404 . S
C390 H388 0.949 . S
C390 C389 1.385 . S
H391 C389 0.944 1_565 S
H392 C376 0.951 . S
H393 C378 0.951 . S
H394 C380 0.951 . S
H395 C381 0.950 . S
H396 C382 0.950 . S
H397 C383 0.950 . S
H398 C385 0.950 . S
H399 C386 0.951 . S
C400 C401 1.386 1_655 S
C400 C402 1.383 . S
C400 H416 0.951 . S
C401 C400 1.386 1_455 S
C401 C405 1.386 . S
C402 C400 1.383 . S
C402 C403 1.402 . S
C402 H417 0.951 . S
C403 C402 1.402 . S
C403 C404 1.375 . S
C403 C406 1.481 . S
C404 C403 1.375 . S
C404 C405 1.356 1_655 S
C404 H418 0.951 . S
C405 C401 1.386 . S
C405 C404 1.356 1_455 S
C405 H419 0.958 . S
C406 C403 1.481 . S
C406 C407 1.297 . S
C406 H420 0.950 . S
C407 C406 1.297 . S
C407 C408 1.479 . S
C407 H421 0.950 . S
C408 C407 1.479 . S
C408 C409 1.375 . S
C408 C414 1.404 . S
C409 C408 1.375 . S
C409 C410 1.369 . S
C409 H422 0.950 . S
C410 C409 1.369 . S
C410 C411 1.392 . S
C410 H423 0.951 . S
C411 C410 1.392 . S
C411 C413 1.384 . S
H412 C414 0.949 . S
C413 C411 1.384 . S
C413 C414 1.385 . S
C413 H415 0.950 . S
C414 C408 1.404 . S
C414 H412 0.949 . S
C414 C413 1.385 . S
H415 C413 0.950 . S
H416 C400 0.951 . S
H417 C402 0.951 . S
H418 C404 0.951 . S
H419 C405 0.958 . S
H420 C406 0.950 . S
H421 C407 0.950 . S
H422 C409 0.950 . S
H423 C410 0.951 . S
C424 C425 1.386 . S
C424 C426 1.383 . S
C424 H440 0.951 . S
C425 C424 1.386 . S
C425 C429 1.383 . S
C426 C424 1.383 . S
C426 C427 1.402 . S
C426 H441 0.951 . S
C427 C426 1.402 . S
C427 C428 1.375 . S
C427 C430 1.481 . S
C428 C427 1.375 . S
C428 C429 1.367 . S
C428 H442 0.951 . S
C429 C425 1.383 . S
C429 C428 1.367 . S
C429 H443 0.950 . S
C430 C427 1.481 . S
C430 C431 1.297 . S
C430 H444 0.950 . S
C431 C430 1.297 . S
C431 C432 1.479 . S
C431 H445 0.950 . S
C432 C431 1.479 . S
C432 C433 1.375 . S
C432 C438 1.404 . S
C433 C432 1.375 . S
C433 C434 1.369 . S
C433 H446 0.950 . S
C434 C433 1.369 . S
C434 C435 1.392 . S
C434 H447 0.951 . S
C435 C434 1.392 . S
C435 C437 1.384 . S
H436 C438 0.949 . S
C437 C435 1.384 . S
C437 C438 1.385 . S
C437 H439 0.950 . S
C438 C432 1.404 . S
C438 H436 0.949 . S
C438 C437 1.385 . S
H439 C437 0.950 . S
H440 C424 0.951 . S
H441 C426 0.951 . S
H442 C428 0.951 . S
H443 C429 0.950 . S
H444 C430 0.950 . S
H445 C431 0.950 . S
H446 C433 0.950 . S
H447 C434 0.951 . S
C448 C449 1.386 . S
C448 C450 1.383 . S
C448 H464 0.951 . S
C449 C448 1.386 . S
C449 C453 1.383 . S
C450 C448 1.383 . S
C450 C451 1.402 . S
C450 H465 0.951 . S
C451 C450 1.402 . S
C451 C452 1.375 . S
C451 C454 1.481 . S
C452 C451 1.375 . S
C452 C453 1.367 . S
C452 H466 0.951 . S
C453 C449 1.383 . S
C453 C452 1.367 . S
C453 H467 0.950 . S
C454 C451 1.481 . S
C454 C455 1.297 . S
C454 H468 0.950 . S
C455 C454 1.297 . S
C455 C456 1.479 . S
C455 H469 0.950 . S
C456 C455 1.479 . S
C456 C457 1.375 . S
C456 C462 1.404 . S
C457 C456 1.375 . S
C457 C458 1.369 1_455 S
C457 H470 0.950 . S
C458 C457 1.369 1_655 S
C458 C459 1.392 . S
C458 H471 0.951 . S
C459 C458 1.392 . S
C459 C461 1.384 1_655 S
H460 C462 0.949 . S
C461 C459 1.384 1_455 S
C461 C462 1.385 . S
C461 H463 0.950 . S
C462 C456 1.404 . S
C462 H460 0.949 . S
C462 C461 1.385 . S
H463 C461 0.950 . S
H464 C448 0.951 . S
H465 C450 0.951 . S
H466 C452 0.951 . S
H467 C453 0.950 . S
H468 C454 0.950 . S
H469 C455 0.950 . S
H470 C457 0.950 . S
H471 C458 0.951 . S
C472 C473 1.386 . S
C472 C474 1.383 . S
C472 H488 0.951 . S
C473 C472 1.386 . S
C473 C477 1.383 . S
C474 C472 1.383 . S
C474 C475 1.402 . S
C474 H489 0.951 . S
C475 C474 1.402 . S
C475 C476 1.375 . S
C475 C478 1.481 . S
C476 C475 1.375 . S
C476 C477 1.367 . S
C476 H490 0.951 . S
C477 C473 1.383 . S
C477 C476 1.367 . S
C477 H491 0.950 . S
C478 C475 1.481 . S
C478 C479 1.297 . S
C478 H492 0.950 . S
C479 C478 1.297 . S
C479 C480 1.479 . S
C479 H493 0.950 . S
C480 C479 1.479 . S
C480 C481 1.375 . S
C480 C486 1.404 . S
C481 C480 1.375 . S
C481 C482 1.369 . S
C481 H494 0.950 . S
C482 C481 1.369 . S
C482 C483 1.392 . S
C482 H495 0.951 . S
C483 C482 1.392 . S
C483 C485 1.384 . S
H484 C486 0.949 . S
C485 C483 1.384 . S
C485 C486 1.385 . S
C485 H487 0.950 . S
C486 C480 1.404 . S
C486 H484 0.949 . S
C486 C485 1.385 . S
H487 C485 0.950 . S
H488 C472 0.951 . S
H489 C474 0.951 . S
H490 C476 0.951 . S
H491 C477 0.950 . S
H492 C478 0.950 . S
H493 C479 0.950 . S
H494 C481 0.950 . S
H495 C482 0.951 . S
C113 C8 0.381 . S
C123 C36 0.335 . S
C137 C22 0.438 . S
C147 C50 0.378 . S
C161 C64 0.441 . S
C171 C92 0.382 . S
C185 C78 0.433 . S
C195 C106 0.453 . S
C209 C13 1.422 . S
C219 C83 1.418 . S
C233 C27 1.428 . S
C243 C97 1.363 . S
C257 C111 1.357 . S
C267 C41 1.426 . S
C281 C55 1.348 . S
C291 C69 1.385 . S
C305 C63 1.451 . S
C315 C11 1.459 . S
C329 C25 1.471 . S
C339 C77 1.473 . S
C353 C39 1.476 . S
C363 C91 1.421 . S
C377 C53 1.479 . S
C387 C105 1.401 . S
C401 C7 1.430 . S
C411 C67 1.479 . S
C425 C81 1.471 . S
C435 C21 1.471 . S
C449 C95 1.475 . S
C459 C35 1.467 . S
C473 C49 1.444 . S
C483 C109 1.473 . S
