# Generated by pormake.
# Topology qtz-x, (6)-cn, num edge types: 1
# Building blocks:
#     Node 0, Type 0, BuildingBlock: MAKGUD_clean_sbu_1, # of connection points: 6
#     Node 1, Type 0, BuildingBlock: MAKGUD_clean_sbu_1, # of connection points: 6
#     Node 2, Type 0, BuildingBlock: MAKGUD_clean_sbu_1, # of connection points: 6
#     Edge 3, Type (0, 0), BuildingBlock: MIFKUJ_clean_linker_0, # of connection points: 2
#     Edge 4, Type (0, 0), BuildingBlock: MIFKUJ_clean_linker_0, # of connection points: 2
#     Edge 5, Type (0, 0), BuildingBlock: MIFKUJ_clean_linker_0, # of connection points: 2
#     Edge 6, Type (0, 0), BuildingBlock: MIFKUJ_clean_linker_0, # of connection points: 2
#     Edge 7, Type (0, 0), BuildingBlock: MIFKUJ_clean_linker_0, # of connection points: 2
#     Edge 8, Type (0, 0), BuildingBlock: MIFKUJ_clean_linker_0, # of connection points: 2
#     Edge 9, Type (0, 0), BuildingBlock: MIFKUJ_clean_linker_0, # of connection points: 2
#     Edge 10, Type (0, 0), BuildingBlock: MIFKUJ_clean_linker_0, # of connection points: 2
#     Edge 11, Type (0, 0), BuildingBlock: MIFKUJ_clean_linker_0, # of connection points: 2
# Relax obj value: 0.083
# Max RMSD: 0.219
# Mean RMSD: 0.188
data_MOF--net-qtz-x--node1-MAKGUD_clean_sbu_1--edge1-MIFKUJ_clean_linker_0
_symmetry_space_group_name_H-M    P1
_symmetry_Int_Tables_number       1
_symmetry_cell_setting            triclinic
loop_
_symmetry_equiv_pos_as_xyz
'x, y, z'
_cell_length_a     18.409638
_cell_length_b     18.542688
_cell_length_c     62.830033
_cell_angle_alpha  97.392309
_cell_angle_beta   97.774507
_cell_angle_gamma 120.82151
loop_
_atom_site_label
_atom_site_type_symbol
_atom_site_fract_x
_atom_site_fract_y
_atom_site_fract_z
_atom_type_partial_charge
O0 O 0.13019 0.48911 0.12706 0.0
Tb1 Tb 0.03948 0.48484 0.14678 0.0
C2 C 0.02581 0.57855 0.18932 0.0
O3 O 0.9665 0.36348 0.17995 0.0
Tb4 Tb 0.01043 0.43994 0.21361 0.0
C5 C 0.17123 0.49902 0.23619 0.0
O6 O 0.04283 0.37457 0.15395 0.0
O7 O 0.92794 0.39146 0.23669 0.0
C8 C 0.92675 0.33109 0.24592 0.0
O9 O 0.96399 0.29223 0.23829 0.0
O10 O 0.07713 0.56017 0.18048 0.0
O11 O 0.9942 0.54191 0.2053 0.0
O12 O 0.90894 0.43213 0.12738 0.0
C13 C 0.01343 0.34072 0.17045 0.0
C14 C 0.14367 0.55674 0.11993 0.0
O15 O 0.1103 0.41807 0.22808 0.0
O16 O 0.14247 0.54638 0.23033 0.0
C17 C 0.88642 0.48676 0.12339 0.0
O18 O 0.93669 0.56734 0.13466 0.0
O19 O 0.10134 0.58628 0.12879 0.0
O20 O 0.49115 0.94882 0.46151 0.0
Tb21 Tb 0.60378 0.06811 0.48242 0.0
C22 C 0.69537 0.05798 0.52671 0.0
O23 O 0.49083 0.01045 0.5171 0.0
Tb24 Tb 0.55928 0.04354 0.55162 0.0
C25 C 0.47992 0.93932 0.57768 0.0
O26 O 0.50325 0.08746 0.49113 0.0
O27 O 0.61689 0.17335 0.57124 0.0
C28 C 0.56652 0.20248 0.57437 0.0
O29 O 0.48689 0.15976 0.56201 0.0
O30 O 0.66794 0.10133 0.51705 0.0
O31 O 0.66703 0.03403 0.54426 0.0
O32 O 0.67022 0.15652 0.46197 0.0
C33 C 0.46988 0.05949 0.50789 0.0
C34 C 0.53071 0.90857 0.45812 0.0
O35 O 0.44803 0.97523 0.56641 0.0
O36 O 0.55429 0.95926 0.57337 0.0
C37 C 0.72548 0.14737 0.45247 0.0
O38 O 0.74639 0.09328 0.45801 0.0
O39 O 0.61142 0.95713 0.46943 0.0
O40 O 0.5464 0.54104 0.90207 0.0
Tb41 Tb 0.44489 0.5504 0.88262 0.0
C42 C 0.31155 0.45451 0.83593 0.0
O43 O 0.48356 0.62535 0.8451 0.0
Tb44 Tb 0.42948 0.58391 0.80984 0.0
C45 C 0.48072 0.50771 0.7823 0.0
O46 O 0.55541 0.67295 0.87978 0.0
O47 O 0.41038 0.66973 0.79257 0.0
C48 C 0.46678 0.71036 0.78084 0.0
O49 O 0.53638 0.70617 0.78269 0.0
O50 O 0.3869 0.47488 0.84805 0.0
O51 O 0.31075 0.48454 0.81784 0.0
O52 O 0.38248 0.60247 0.90053 0.0
C53 C 0.55377 0.68642 0.85978 0.0
C54 C 0.49504 0.48017 0.91099 0.0
O55 O 0.53306 0.57271 0.79919 0.0
O56 O 0.40065 0.4842 0.78191 0.0
C57 C 0.30644 0.55085 0.90465 0.0
O58 O 0.25867 0.47022 0.89339 0.0
O59 O 0.41499 0.45643 0.90315 0.0
H60 H 0.12317 0.70405 0.1681 0.0
H61 H 0.11982 0.83271 0.16489 0.0
H62 H 0.9127 0.75101 0.19914 0.0
H63 H 0.91449 0.62177 0.20198 0.0
H64 H 0.88248 0.8157 0.16616 0.0
H65 H 0.12467 0.90614 0.22595 0.0
H66 H 0.26177 0.92281 0.24393 0.0
H67 H 0.39081 0.06886 0.1983 0.0
H68 H 0.25408 0.05208 0.17987 0.0
H69 H 0.9192 0.22055 0.19331 0.0
H70 H 0.92129 0.09163 0.19726 0.0
H71 H 0.12175 0.16398 0.16099 0.0
H72 H 0.12078 0.29298 0.15727 0.0
H73 H 0.15461 0.10413 0.19561 0.0
H74 H 0.90979 0.01195 0.13582 0.0
H75 H 0.77178 0.99446 0.11827 0.0
H76 H 0.64682 0.8515 0.16482 0.0
H77 H 0.78449 0.86913 0.18283 0.0
C78 C 0.07619 0.71293 0.1747 0.0
C79 C 0.0193 0.65264 0.18536 0.0
C80 C 0.07475 0.78692 0.173 0.0
C81 C 0.01694 0.80254 0.18211 0.0
C82 C 0.95811 0.74081 0.19205 0.0
C83 C 0.95944 0.66695 0.19372 0.0
C84 C 0.01902 0.88399 0.18183 0.0
C85 C 0.94182 0.87873 0.17285 0.0
C86 C 0.09653 0.96654 0.19028 0.0
C87 C 0.17894 0.97712 0.20139 0.0
C88 C 0.18213 0.94128 0.21965 0.0
C89 C 0.25979 0.95083 0.22994 0.0
C90 C 0.3349 0.99667 0.22223 0.0
C91 C 0.33254 0.03327 0.20424 0.0
C92 C 0.25501 0.02382 0.19388 0.0
C93 C 0.96466 0.20968 0.1865 0.0
C94 C 0.01968 0.26704 0.17494 0.0
C95 C 0.96528 0.13552 0.18859 0.0
C96 C 0.02086 0.11726 0.17914 0.0
C97 C 0.0781 0.1763 0.16836 0.0
C98 C 0.07727 0.25004 0.1662 0.0
C99 C 0.01816 0.0358 0.17988 0.0
C100 C 0.09526 0.04108 0.18896 0.0
C101 C 0.94046 0.95329 0.17162 0.0
C102 C 0.85768 0.94267 0.16082 0.0
C103 C 0.85307 0.97741 0.14243 0.0
C104 C 0.77487 0.96735 0.13237 0.0
C105 C 0.70063 0.92211 0.14046 0.0
C106 C 0.70441 0.88665 0.15859 0.0
C107 C 0.78249 0.89661 0.16872 0.0
H108 H 0.64014 0.91434 0.13265 0.0
H109 H 0.39497 1.00401 0.23021 0.0
H110 H 0.34516 0.96268 0.52944 0.0
H111 H 0.21429 0.9634 0.53246 0.0
H112 H 0.29253 0.16817 0.49781 0.0
H113 H 0.42452 0.1694 0.49534 0.0
H114 H 0.22376 0.19553 0.52986 0.0
H115 H 0.13922 0.95422 0.47142 0.0
H116 H 0.12656 0.81947 0.45448 0.0
H117 H 0.98087 0.69203 0.50036 0.0
H118 H 0.9937 0.82644 0.51778 0.0
H119 H 0.81172 0.14959 0.5027 0.0
H120 H 0.94177 0.14886 0.49823 0.0
H121 H 0.87391 0.95039 0.53473 0.0
H122 H 0.7435 0.9498 0.53884 0.0
H123 H 0.93706 0.9204 0.50091 0.0
H124 H 0.0244 0.16335 0.55967 0.0
H125 H 0.03751 0.2985 0.57647 0.0
H126 H 0.17783 0.42299 0.52945 0.0
H127 H 0.16456 0.28815 0.51218 0.0
C128 C 0.33552 0.00914 0.52289 0.0
C129 C 0.3957 0.06617 0.51221 0.0
C130 C 0.25996 0.0088 0.52438 0.0
C131 C 0.24229 0.06477 0.51499 0.0
C132 C 0.3041 0.12406 0.50511 0.0
C133 C 0.37965 0.12457 0.50368 0.0
C134 C 0.15854 0.06002 0.51483 0.0
C135 C 0.16114 0.1355 0.52326 0.0
C136 C 0.07634 0.98163 0.50653 0.0
C137 C 0.06817 0.90063 0.49603 0.0
C138 C 0.10502 0.89763 0.478 0.0
C139 C 0.09774 0.8213 0.4683 0.0
C140 C 0.05313 0.7473 0.47638 0.0
C141 C 0.01551 0.74943 0.49414 0.0
C142 C 0.02271 0.82565 0.50392 0.0
C143 C 0.8234 0.1043 0.50927 0.0
C144 C 0.76697 0.04951 0.52103 0.0
C145 C 0.89841 0.10466 0.50695 0.0
C146 C 0.91874 0.05052 0.51646 0.0
C147 C 0.86015 0.99299 0.5273 0.0
C148 C 0.78549 0.99279 0.52966 0.0
C149 C 1.00237 0.05582 0.51599 0.0
C150 C 0.99972 0.98044 0.50744 0.0
C151 C 0.0845 0.13433 0.52412 0.0
C152 C 0.09266 0.21543 0.53449 0.0
C153 C 0.05745 0.21936 0.55281 0.0
C154 C 0.06502 0.29593 0.56243 0.0
C155 C 0.10826 0.36921 0.55399 0.0
C156 C 0.14422 0.36613 0.53594 0.0
C157 C 0.13675 0.28968 0.52624 0.0
H158 H 0.11407 0.42844 0.56147 0.0
H159 H 0.04755 0.68826 0.46884 0.0
H160 H 0.7171 0.79201 0.8858 0.0
H161 H 0.83706 0.92494 0.88008 0.0
H162 H 0.67741 0.89168 0.81811 0.0
H163 H 0.5558 0.75855 0.82433 0.0
H164 H 0.84543 0.94376 0.815 0.0
H165 H 0.71193 0.03857 0.86028 0.0
H166 H 0.6456 0.04751 0.89125 0.0
H167 H 0.88712 0.14414 0.93742 0.0
H168 H 0.95508 0.13528 0.90676 0.0
H169 H 0.14583 0.38617 0.8117 0.0
H170 H 0.01135 0.25762 0.81427 0.0
H171 H 0.15385 0.22943 0.8694 0.0
H172 H 0.28925 0.3556 0.86638 0.0
H173 H 0.98505 0.21284 0.87368 0.0
H174 H 0.11207 0.10676 0.82554 0.0
H175 H 0.17212 0.10116 0.79303 0.0
H176 H 0.93187 0.03019 0.7502 0.0
H177 H 0.87087 0.03675 0.78252 0.0
C178 C 0.70743 0.81261 0.87088 0.0
C179 C 0.62723 0.76402 0.8552 0.0
C180 C 0.77615 0.8889 0.86766 0.0
C181 C 0.76633 0.91892 0.84875 0.0
C182 C 0.6868 0.86971 0.8328 0.0
C183 C 0.61764 0.79328 0.83615 0.0
C184 C 0.83933 1.00225 0.84607 0.0
C185 C 0.87494 1.00288 0.82765 0.0
C186 C 0.87835 0.07958 0.86259 0.0
C187 C 0.83834 0.08541 0.8812 0.0
C188 C 0.75081 0.06114 0.87705 0.0
C189 C 0.71301 0.06645 0.89456 0.0
C190 C 0.7622 0.09637 0.91631 0.0
C191 C 0.84933 0.12121 0.92058 0.0
C192 C 0.88755 0.11616 0.90314 0.0
C193 C 0.14872 0.35315 0.8245 0.0
C194 C 0.22863 0.38202 0.83899 0.0
C195 C 0.07167 0.27956 0.8259 0.0
C196 C 0.07268 0.23401 0.842 0.0
C197 C 0.15164 0.2639 0.8569 0.0
C198 C 0.229 0.33634 0.8552 0.0
C199 C 0.99196 0.1536 0.8429 0.0
C200 C 0.95496 0.15375 0.86099 0.0
C201 C 0.95082 0.07755 0.82587 0.0
C202 C 0.98735 0.0734 0.80646 0.0
C203 C 0.07239 0.09091 0.80921 0.0
C204 C 0.10652 0.08735 0.79081 0.0
C205 C 0.05596 0.06565 0.76956 0.0
C206 C 0.97104 0.0472 0.76667 0.0
C207 C 0.93665 0.0508 0.78502 0.0
H208 H 0.08249 0.06288 0.75534 0.0
H209 H 0.73284 0.10042 0.92985 0.0
H210 H 0.42189 0.67521 0.94138 0.0
H211 H 0.39755 0.69062 0.9784 0.0
H212 H 0.12403 0.49704 0.95279 0.0
H213 H 0.1491 0.47811 0.91575 0.0
H214 H 0.31428 0.7324 1.00087 0.0
H215 H 0.04962 0.36839 0.99216 0.0
H216 H 0.9998 0.22479 0.97015 0.0
H217 H 0.24628 0.32665 0.95279 0.0
H218 H 0.29885 0.47009 0.97534 0.0
H219 H 0.1314 0.66221 0.09513 0.0
H220 H 0.16681 0.67781 0.05919 0.0
H221 H 0.27322 0.51899 0.06493 0.0
H222 H 0.23517 0.50106 0.10054 0.0
H223 H 0.17026 0.46214 0.02718 0.0
H224 H 0.4032 0.74178 0.06698 0.0
H225 H 0.47514 0.88515 0.09226 0.0
H226 H 0.32569 0.95155 0.0501 0.0
H227 H 0.25204 0.80808 0.02469 0.0
C228 C 0.35612 0.63729 0.94349 0.0
C229 C 0.28748 0.57486 0.92565 0.0
C230 C 0.34225 0.64615 0.96475 0.0
C231 C 0.25927 0.59365 0.96857 0.0
C232 C 0.1891 0.53679 0.9504 0.0
C233 C 0.20331 0.52648 0.9292 0.0
C234 C 0.24829 0.59378 0.99165 0.0
C235 C 0.28216 0.67314 1.00655 0.0
C236 C 0.20893 0.51672 0.99938 0.0
C237 C 0.17792 0.43073 0.98534 0.0
C238 C 0.09337 0.36026 0.9837 0.0
C239 C 0.06457 0.27871 0.97109 0.0
C240 C 0.11938 0.26668 0.95983 0.0
C241 C 0.2036 0.33607 0.9614 0.0
C242 C 0.23308 0.41758 0.97419 0.0
C243 C 0.1643 0.63244 0.08896 0.0
C244 C 0.18066 0.58051 0.10062 0.0
C245 C 0.18467 0.64145 0.06839 0.0
C246 C 0.22284 0.59963 0.05924 0.0
C247 C 0.24318 0.55136 0.07149 0.0
C248 C 0.22205 0.54167 0.09193 0.0
C249 C 0.23538 0.60051 0.03629 0.0
C250 C 0.20171 0.52128 0.02142 0.0
C251 C 0.27765 0.67764 0.0288 0.0
C252 C 0.32148 0.76387 0.04405 0.0
C253 C 0.38514 0.78669 0.06319 0.0
C254 C 0.42634 0.86802 0.07753 0.0
C255 C 0.40482 0.92733 0.07282 0.0
C256 C 0.3422 0.90549 0.05374 0.0
C257 C 0.30078 0.82421 0.03935 0.0
H258 H 0.4368 0.99028 0.08393 0.0
H259 H 0.09672 0.2035 0.94999 0.0
H260 H 0.68389 0.25118 0.43326 0.0
H261 H 0.71902 0.30008 0.39942 0.0
H262 H 0.86105 0.17455 0.39441 0.0
H263 H 0.82892 0.1284 0.42826 0.0
H264 H 0.94658 0.31953 0.38404 0.0
H265 H 0.64628 0.08417 0.36354 0.0
H266 H 0.49149 1.00578 0.36477 0.0
H267 H 0.47194 0.21321 0.34775 0.0
H268 H 0.6271 0.29345 0.34675 0.0
H269 H 0.93735 0.22684 0.27137 0.0
H270 H 0.9059 0.2149 0.30766 0.0
H271 H 0.82124 0.39208 0.30471 0.0
H272 H 0.85332 0.40514 0.26818 0.0
H273 H 0.70994 0.24411 0.32021 0.0
H274 H 0.01685 0.46864 0.3369 0.0
H275 H 0.17102 0.53445 0.3355 0.0
H276 H 0.17346 0.32654 0.35788 0.0
H277 H 0.01963 0.25956 0.35955 0.0
C278 C 0.72363 0.23515 0.42508 0.0
C279 C 0.75334 0.18564 0.43346 0.0
C280 C 0.74304 0.26248 0.40563 0.0
C281 C 0.79162 0.23992 0.39409 0.0
C282 C 0.8235 0.19294 0.40291 0.0
C283 C 0.80486 0.16638 0.42234 0.0
C284 C 0.80877 0.26321 0.37266 0.0
C285 C 0.89458 0.3026 0.37009 0.0
C286 C 0.74144 0.24285 0.35447 0.0
C287 C 0.64854 0.19529 0.35536 0.0
C288 C 0.60918 0.11342 0.36027 0.0
C289 C 0.52133 0.06855 0.36087 0.0
C290 C 0.47194 0.10452 0.35637 0.0
C291 C 0.51031 0.18547 0.35126 0.0
C292 C 0.5982 0.23069 0.35069 0.0
C293 C 0.91136 0.26291 0.27827 0.0
C294 C 0.89803 0.31715 0.26682 0.0
C295 C 0.89401 0.25641 0.29913 0.0
C296 C 0.86265 0.30372 0.30906 0.0
C297 C 0.84605 0.35551 0.2974 0.0
C298 C 0.86416 0.36267 0.27651 0.0
C299 C 0.84719 0.29808 0.33157 0.0
C300 C 0.76189 0.26224 0.33432 0.0
C301 C 0.91461 0.31957 0.34981 0.0
C302 C 0.00648 0.35878 0.3482 0.0
C303 C 0.05002 0.43655 0.34133 0.0
C304 C 0.1374 0.47417 0.34053 0.0
C305 C 0.18171 0.43443 0.34646 0.0
C306 C 0.13896 0.35715 0.35327 0.0
C307 C 0.05182 0.3195 0.35421 0.0
H308 H 0.2492 0.46348 0.34585 0.0
H309 H 0.40389 0.06959 0.35679 0.0
H310 H 0.30724 0.67244 0.75876 0.0
H311 H 0.27659 0.71179 0.72425 0.0
H312 H 0.55199 0.86625 0.72767 0.0
H313 H 0.58262 0.82844 0.76197 0.0
H314 H 0.47548 0.94381 0.71274 0.0
H315 H 0.41969 0.65242 0.69779 0.0
H316 H 0.34354 0.49987 0.70012 0.0
H317 H 0.09877 0.46219 0.67048 0.0
H318 H 0.17339 0.61492 0.66823 0.0
H319 H 0.56201 0.89457 0.60724 0.0
H320 H 0.52588 0.85536 0.64174 0.0
H321 H 0.29309 0.85923 0.62539 0.0
H322 H 0.33035 0.90133 0.59087 0.0
H323 H 0.31142 0.70228 0.64605 0.0
H324 H 0.37713 0.99642 0.65729 0.0
H325 H 0.46057 0.14912 0.65559 0.0
H326 H 0.69276 0.18139 0.69292 0.0
H327 H 0.61091 0.02776 0.69429 0.0
C328 C 0.36113 0.71672 0.75243 0.0
C329 C 0.44731 0.74702 0.76297 0.0
C330 C 0.34354 0.73846 0.73261 0.0
C331 C 0.41193 0.79085 0.72315 0.0
C332 C 0.49805 0.82559 0.73455 0.0
C333 C 0.51552 0.80378 0.75418 0.0
C334 C 0.39575 0.80564 0.70075 0.0
C335 C 0.43872 0.89089 0.6982 0.0
C336 C 0.34658 0.73679 0.68171 0.0
C337 C 0.30191 0.64519 0.68308 0.0
C338 C 0.34956 0.61172 0.69192 0.0
C339 C 0.30673 0.52523 0.6932 0.0
C340 C 0.21641 0.47141 0.6855 0.0
C341 C 0.16872 0.50397 0.67647 0.0
C342 C 0.21122 0.59047 0.67519 0.0
C343 C 0.50234 0.88575 0.61076 0.0
C344 C 0.44904 0.90114 0.59638 0.0
C345 C 0.48198 0.86361 0.63051 0.0
C346 C 0.4074 0.85531 0.63616 0.0
C347 C 0.35122 0.86587 0.62132 0.0
C348 C 0.37235 0.88948 0.60162 0.0
C349 C 0.39253 0.84021 0.6582 0.0
C350 C 0.34503 0.75505 0.66066 0.0
C351 C 0.43791 0.90901 0.6772 0.0
C352 C 0.4881 1.00034 0.67562 0.0
C353 C 0.44628 0.03563 0.66478 0.0
C354 C 0.49326 0.12255 0.66398 0.0
C355 C 0.58195 0.1751 0.6742 0.0
C356 C 0.62405 0.14059 0.68502 0.0
C357 C 0.57743 0.05356 0.68578 0.0
H358 H 0.61804 0.24263 0.67388 0.0
H359 H 0.18343 0.40445 0.68649 0.0
H360 H 0.39527 0.37599 0.93582 0.0
H361 H 0.44625 0.35685 0.97148 0.0
H362 H 0.71217 0.5174 0.96659 0.0
H363 H 0.66137 0.53551 0.93086 0.0
H364 H 0.6991 0.39428 0.98394 0.0
H365 H 0.6184 0.59684 0.99684 0.0
H366 H 0.53331 0.66489 0.99711 0.0
H367 H 0.35528 0.47342 0.02726 0.0
H368 H 0.43833 0.4029 0.02676 0.0
H369 H 0.8356 0.5903 0.10922 0.0
H370 H 0.75411 0.56862 0.07263 0.0
H371 H 0.70725 0.31324 0.05452 0.0
H372 H 0.7918 0.33579 0.09112 0.0
H373 H 0.60233 0.47168 0.04817 0.0
H374 H 0.71568 0.27258 0.99973 0.0
H375 H 0.83983 0.2537 1.00353 0.0
H376 H 1.00345 0.504 0.04774 0.0
H377 H 0.88097 0.52507 0.04392 0.0
C378 C 0.4645 0.40565 0.94217 0.0
C379 C 0.52447 0.45722 0.93059 0.0
C380 C 0.4936 0.3953 0.96263 0.0
C381 C 0.58317 0.43664 0.97192 0.0
C382 C 0.64279 0.48476 0.95981 0.0
C383 C 0.61373 0.4951 0.93938 0.0
C384 C 0.61535 0.43325 0.99459 0.0
C385 C 0.67716 0.41029 0.99795 0.0
C386 C 0.58893 0.45676 1.01304 0.0
C387 C 0.53405 0.49387 1.0115 0.0
C388 C 0.56015 0.56812 1.00313 0.0
C389 C 0.51262 0.60748 1.00345 0.0
C390 C 0.43945 0.57385 1.01236 0.0
C391 C 0.41237 0.49962 0.0205 0.0
C392 C 0.45944 0.45973 0.02012 0.0
C393 C 0.80686 0.52884 0.09763 0.0
C394 C 0.82122 0.4652 0.10304 0.0
C395 C 0.75998 0.51645 0.07665 0.0
C396 C 0.72582 0.43993 0.0606 0.0
C397 C 0.73454 0.37359 0.06646 0.0
C398 C 0.78222 0.38625 0.08747 0.0
C399 C 0.68595 0.43271 0.03753 0.0
C400 C 0.62256 0.4535 0.03408 0.0
C401 C 0.7147 0.41222 0.0192 0.0
C402 C 0.78861 0.39968 0.02181 0.0
C403 C 0.77815 0.32354 1.01027 0.0
C404 C 0.84832 0.31256 1.0124 0.0
C405 C 0.92941 0.37748 0.02595 0.0
C406 C 0.94058 0.45365 0.03734 0.0
C407 C 0.87076 0.46508 0.03521 0.0
H408 H 0.98364 0.36891 0.02759 0.0
H409 H 0.40382 0.60538 1.01296 0.0
H410 H 0.1802 0.40653 0.26541 0.0
H411 H 0.26098 0.46646 0.3039 0.0
H412 H 0.40066 0.72073 0.29095 0.0
H413 H 0.31514 0.66137 0.25264 0.0
H414 H 0.41209 0.55376 0.33092 0.0
H415 H 0.41768 0.86816 0.33334 0.0
H416 H 0.34664 0.92712 0.31192 0.0
H417 H 0.11954 0.67194 0.28563 0.0
H418 H 0.18866 0.61174 0.3071 0.0
H419 H 0.62419 0.8597 0.43686 0.0
H420 H 0.5745 0.7713 0.39919 0.0
H421 H 0.31339 0.7089 0.39784 0.0
H422 H 0.36316 0.79838 0.43523 0.0
H423 H 0.36777 0.78018 0.36519 0.0
H424 H 0.35873 0.55042 0.39362 0.0
H425 H 0.41289 0.47995 0.41585 0.0
H426 H 0.61753 0.54586 0.38169 0.0
H427 H 0.56519 0.61772 0.35943 0.0
C428 C 0.23025 0.47477 0.27056 0.0
C429 C 0.24071 0.52965 0.25616 0.0
C430 C 0.27641 0.50911 0.29265 0.0
C431 C 0.33487 0.59863 0.30056 0.0
C432 C 0.35388 0.65179 0.2854 0.0
C433 C 0.30577 0.61781 0.26345 0.0
C434 C 0.36555 0.6365 0.3248 0.0
C435 C 0.40322 0.60392 0.3384 0.0
C436 C 0.35184 0.70034 0.33473 0.0
C437 C 0.30875 0.73544 0.32177 0.0
C438 C 0.35241 0.82473 0.32308 0.0
C439 C 0.31249 0.85836 0.3109 0.0
C440 C 0.2287 0.80328 0.29737 0.0
C441 C 0.18448 0.71453 0.29609 0.0
C442 C 0.22399 0.68063 0.3083 0.0
C443 C 0.55561 0.82447 0.42882 0.0
C444 C 0.49754 0.83624 0.43887 0.0
C445 C 0.52727 0.77409 0.40725 0.0
C446 C 0.44033 0.73418 0.39557 0.0
C447 C 0.38093 0.73977 0.40643 0.0
C448 C 0.40928 0.79046 0.42786 0.0
C449 C 0.41375 0.6971 0.37134 0.0
C450 C 0.37736 0.73048 0.35774 0.0
C451 C 0.42635 0.63252 0.36155 0.0
C452 C 0.45874 0.59041 0.37507 0.0
C453 C 0.41588 0.55074 0.39102 0.0
C454 C 0.44608 0.51031 0.40358 0.0
C455 C 0.51881 0.50871 0.40024 0.0
C456 C 0.56133 0.54733 0.38429 0.0
C457 C 0.53139 0.58785 0.37168 0.0
H458 H 0.54205 0.47732 0.40997 0.0
H459 H 0.198 0.82939 0.2879 0.0
H460 H 0.40433 0.48367 0.74046 0.0
H461 H 0.4429 0.44917 0.70688 0.0
H462 H 0.65231 0.4439 0.74528 0.0
H463 H 0.61714 0.48556 0.77956 0.0
H464 H 0.70209 0.5079 0.7114 0.0
H465 H 0.45137 0.24908 0.71647 0.0
H466 H 0.30497 0.15715 0.72282 0.0
H467 H 0.19422 0.217 0.66852 0.0
H468 H 0.34003 0.30981 0.66196 0.0
H469 H 0.69276 0.25426 0.61181 0.0
H470 H 0.7023 0.3255 0.64847 0.0
H471 H 0.49933 0.36238 0.62076 0.0
H472 H 0.48815 0.28934 0.58414 0.0
H473 H 0.45495 0.27618 0.65122 0.0
H474 H 0.71945 0.53473 0.64694 0.0
H475 H 0.86872 0.61547 0.64145 0.0
H476 H 0.95778 0.53685 0.6952 0.0
H477 H 0.80881 0.45487 0.70087 0.0
C478 C 0.45841 0.47476 0.74181 0.0
C479 C 0.50651 0.48509 0.76254 0.0
C480 C 0.48029 0.45475 0.72256 0.0
C481 C 0.54842 0.44055 0.72338 0.0
C482 C 0.59866 0.45335 0.74417 0.0
C483 C 0.57836 0.47652 0.76369 0.0
C484 C 0.56452 0.4112 0.70229 0.0
C485 C 0.6484 0.45608 0.69837 0.0
C486 C 0.49478 0.34357 0.68517 0.0
C487 C 0.40667 0.2867 0.68881 0.0
C488 C 0.3958 0.24282 0.70594 0.0
C489 C 0.31293 0.19053 0.70956 0.0
C490 C 0.24036 0.18132 0.6961 0.0
C491 C 0.25047 0.22412 0.67892 0.0
C492 C 0.33317 0.27638 0.6752 0.0
C493 C 0.65205 0.27997 0.6134 0.0
C494 C 0.58887 0.26521 0.5951 0.0
C495 C 0.65763 0.32088 0.63445 0.0
C496 C 0.60094 0.34876 0.63751 0.0
C497 C 0.54326 0.34077 0.61889 0.0
C498 C 0.53706 0.2992 0.59792 0.0
C499 C 0.592 0.37409 0.66001 0.0
C500 C 0.50901 0.3277 0.66425 0.0
C501 C 0.66319 0.43793 0.67746 0.0
C502 C 0.75287 0.4882 0.67422 0.0
C503 C 0.77077 0.53428 0.65751 0.0
C504 C 0.85535 0.58034 0.65438 0.0
C505 C 0.92266 0.58116 0.66794 0.0
C506 C 0.90559 0.53617 0.68471 0.0
C507 C 0.82114 0.49004 0.68791 0.0
H508 H 0.98806 0.61674 0.66547 0.0
H509 H 0.17629 0.14095 0.69896 0.0
loop_
_geom_bond_atom_site_label_1
_geom_bond_atom_site_label_2
_geom_bond_distance
_geom_bond_site_symmetry_2
_ccdc_geom_bond_type
O0 Tb1 2.506 . S
O0 C14 1.265 . S
Tb1 O0 2.506 . S
Tb1 O6 2.312 . S
Tb1 O10 2.271 . S
Tb1 O12 2.338 1_455 S
Tb1 O19 2.441 . S
C2 O10 1.252 . S
C2 O11 1.253 . S
O3 Tb4 2.271 . S
O3 C13 1.252 . S
Tb4 O3 2.271 . S
Tb4 O7 2.338 1_455 S
Tb4 O11 2.312 . S
Tb4 O15 2.441 . S
Tb4 O16 2.506 . S
C5 O15 1.244 . S
C5 O16 1.265 . S
O6 Tb1 2.312 . S
O6 C13 1.253 . S
O7 Tb4 2.338 1_655 S
O7 C8 1.258 . S
C8 O7 1.258 . S
C8 O9 1.251 . S
O9 C8 1.251 . S
O10 Tb1 2.271 . S
O10 C2 1.252 . S
O11 C2 1.253 . S
O11 Tb4 2.312 . S
O12 Tb1 2.338 1_655 S
O12 C17 1.258 . S
C13 O3 1.252 . S
C13 O6 1.253 . S
C14 O0 1.265 . S
C14 O19 1.244 . S
O15 Tb4 2.441 . S
O15 C5 1.244 . S
O16 Tb4 2.506 . S
O16 C5 1.265 . S
C17 O12 1.258 . S
C17 O18 1.251 . S
O18 C17 1.251 . S
O19 Tb1 2.441 . S
O19 C14 1.244 . S
O20 Tb21 2.506 . S
O20 C34 1.265 . S
Tb21 O20 2.506 . S
Tb21 O26 2.312 . S
Tb21 O30 2.271 . S
Tb21 O32 2.338 1_565 S
Tb21 O39 2.441 . S
C22 O30 1.252 . S
C22 O31 1.253 . S
O23 Tb24 2.271 . S
O23 C33 1.252 1_545 S
Tb24 O23 2.271 . S
Tb24 O27 2.338 . S
Tb24 O31 2.312 1_545 S
Tb24 O35 2.441 1_545 S
Tb24 O36 2.503 1_545 S
C25 O35 1.244 . S
C25 O36 1.264 . S
O26 Tb21 2.312 . S
O26 C33 1.253 . S
O27 Tb24 2.338 . S
O27 C28 1.258 . S
C28 O27 1.258 . S
C28 O29 1.251 . S
O29 C28 1.251 . S
O30 Tb21 2.271 . S
O30 C22 1.252 . S
O31 C22 1.253 . S
O31 Tb24 2.312 1_565 S
O32 Tb21 2.338 1_545 S
O32 C37 1.258 . S
C33 O23 1.252 1_565 S
C33 O26 1.253 . S
C34 O20 1.265 . S
C34 O39 1.244 . S
O35 Tb24 2.441 1_565 S
O35 C25 1.244 . S
O36 Tb24 2.503 1_565 S
O36 C25 1.264 . S
C37 O32 1.258 . S
C37 O38 1.251 . S
O38 C37 1.251 . S
O39 Tb21 2.441 . S
O39 C34 1.244 . S
O40 Tb41 2.506 . S
O40 C54 1.265 . S
Tb41 O40 2.506 . S
Tb41 O46 2.312 . S
Tb41 O50 2.271 . S
Tb41 O52 2.338 . S
Tb41 O59 2.441 . S
C42 O50 1.252 . S
C42 O51 1.253 . S
O43 Tb44 2.271 . S
O43 C53 1.252 . S
Tb44 O43 2.271 . S
Tb44 O47 2.338 . S
Tb44 O51 2.312 . S
Tb44 O55 2.441 . S
Tb44 O56 2.506 . S
C45 O55 1.244 . S
C45 O56 1.265 . S
O46 Tb41 2.312 . S
O46 C53 1.253 . S
O47 Tb44 2.338 . S
O47 C48 1.258 . S
C48 O47 1.258 . S
C48 O49 1.251 . S
O49 C48 1.251 . S
O50 Tb41 2.271 . S
O50 C42 1.252 . S
O51 C42 1.253 . S
O51 Tb44 2.312 . S
O52 Tb41 2.338 . S
O52 C57 1.258 . S
C53 O43 1.252 . S
C53 O46 1.253 . S
C54 O40 1.265 . S
C54 O59 1.244 . S
O55 Tb44 2.441 . S
O55 C45 1.244 . S
O56 Tb44 2.506 . S
O56 C45 1.265 . S
C57 O52 1.258 . S
C57 O58 1.251 . S
O58 C57 1.251 . S
O59 Tb41 2.441 . S
O59 C54 1.244 . S
H60 C78 0.951 . S
H61 C80 0.951 . S
H62 C82 0.950 . S
H63 C83 0.950 . S
H64 C85 0.950 . S
H65 C88 0.950 . S
H66 C89 0.950 . S
H67 C91 0.950 . S
H68 C92 0.950 . S
H69 C93 0.951 . S
H70 C95 0.951 . S
H71 C97 0.950 . S
H72 C98 0.950 . S
H73 C100 0.950 . S
H74 C103 0.950 . S
H75 C104 0.950 . S
H76 C106 0.950 . S
H77 C107 0.950 . S
C78 H60 0.951 . S
C78 C79 1.366 . S
C78 C80 1.388 . S
C79 C78 1.366 . S
C79 C83 1.385 . S
C80 H61 0.951 . S
C80 C78 1.388 . S
C80 C81 1.366 . S
C81 C80 1.366 . S
C81 C82 1.414 . S
C81 C84 1.499 . S
C82 H62 0.950 . S
C82 C81 1.414 . S
C82 C83 1.374 . S
C83 H63 0.950 . S
C83 C79 1.385 . S
C83 C82 1.374 . S
C84 C81 1.499 . S
C84 C85 1.373 1_455 S
C84 C86 1.389 . S
C85 H64 0.950 . S
C85 C84 1.373 1_655 S
C85 C101 1.377 . S
C86 C84 1.389 . S
C86 C87 1.524 . S
C86 C100 1.377 1_565 S
C87 C86 1.524 . S
C87 C88 1.397 . S
C87 C92 1.363 . S
C88 H65 0.950 . S
C88 C87 1.397 . S
C88 C89 1.334 . S
C89 H66 0.950 . S
C89 C88 1.334 . S
C89 C90 1.287 . S
C90 C89 1.287 . S
C90 C91 1.524 . S
C90 H109 0.913 . S
C91 H67 0.950 . S
C91 C90 1.524 . S
C91 C92 1.415 . S
C92 H68 0.950 . S
C92 C87 1.363 . S
C92 C91 1.415 . S
C93 H69 0.951 . S
C93 C94 1.366 . S
C93 C95 1.388 . S
C94 C93 1.366 . S
C94 C98 1.385 . S
C95 H70 0.951 . S
C95 C93 1.388 . S
C95 C96 1.366 . S
C96 C95 1.366 . S
C96 C97 1.414 . S
C96 C99 1.499 . S
C97 H71 0.950 . S
C97 C96 1.414 . S
C97 C98 1.374 . S
C98 H72 0.950 . S
C98 C94 1.385 . S
C98 C97 1.374 . S
C99 C96 1.499 . S
C99 C100 1.373 . S
C99 C101 1.389 1_445 S
C100 H73 0.950 . S
C100 C86 1.377 1_545 S
C100 C99 1.373 . S
C101 C85 1.377 . S
C101 C99 1.389 1_665 S
C101 C102 1.524 . S
C102 C101 1.524 . S
C102 C103 1.397 . S
C102 C107 1.363 . S
C103 H74 0.950 . S
C103 C102 1.397 . S
C103 C104 1.334 . S
C104 H75 0.950 . S
C104 C103 1.334 . S
C104 C105 1.287 . S
C105 C104 1.287 . S
C105 C106 1.524 . S
C105 H108 0.999 . S
C106 H76 0.950 . S
C106 C105 1.524 . S
C106 C107 1.415 . S
C107 H77 0.950 . S
C107 C102 1.363 . S
C107 C106 1.415 . S
H108 C105 0.999 . S
H109 C90 0.913 . S
H110 C128 0.951 . S
H111 C130 0.951 . S
H112 C132 0.950 . S
H113 C133 0.950 . S
H114 C135 0.950 . S
H115 C138 0.950 . S
H116 C139 0.950 . S
H117 C141 0.950 . S
H118 C142 0.950 1_655 S
H119 C143 0.951 . S
H120 C145 0.951 . S
H121 C147 0.950 . S
H122 C148 0.950 . S
H123 C150 0.950 1_655 S
H124 C153 0.950 . S
H125 C154 0.950 . S
H126 C156 0.950 . S
H127 C157 0.950 . S
C128 H110 0.951 . S
C128 C129 1.366 1_565 S
C128 C130 1.388 . S
C129 C128 1.366 1_545 S
C129 C133 1.385 . S
C130 H111 0.951 . S
C130 C128 1.388 . S
C130 C131 1.366 1_565 S
C131 C130 1.366 1_545 S
C131 C132 1.414 . S
C131 C134 1.499 . S
C132 H112 0.950 . S
C132 C131 1.414 . S
C132 C133 1.374 . S
C133 H113 0.950 . S
C133 C129 1.385 . S
C133 C132 1.374 . S
C134 C131 1.499 . S
C134 C135 1.373 . S
C134 C136 1.389 1_545 S
C135 H114 0.950 . S
C135 C134 1.373 . S
C135 C151 1.377 . S
C136 C134 1.389 1_565 S
C136 C137 1.524 . S
C136 C150 1.377 . S
C137 C136 1.524 . S
C137 C138 1.397 . S
C137 C142 1.363 . S
C138 H115 0.950 . S
C138 C137 1.397 . S
C138 C139 1.334 . S
C139 H116 0.950 . S
C139 C138 1.334 . S
C139 C140 1.287 . S
C140 C139 1.287 . S
C140 C141 1.524 1_455 S
C140 H159 0.913 . S
C141 H117 0.950 . S
C141 C140 1.524 1_655 S
C141 C142 1.415 1_655 S
C142 H118 0.950 1_455 S
C142 C137 1.363 . S
C142 C141 1.415 1_455 S
C143 H119 0.951 . S
C143 C144 1.366 . S
C143 C145 1.388 . S
C144 C143 1.366 . S
C144 C148 1.385 1_545 S
C145 H120 0.951 . S
C145 C143 1.388 . S
C145 C146 1.366 . S
C146 C145 1.366 . S
C146 C147 1.414 1_545 S
C146 C149 1.499 1_655 S
C147 H121 0.950 . S
C147 C146 1.414 1_565 S
C147 C148 1.374 . S
C148 H122 0.950 . S
C148 C144 1.385 1_565 S
C148 C147 1.374 . S
C149 C146 1.499 1_455 S
C149 C150 1.373 1_545 S
C149 C151 1.389 . S
C150 H123 0.950 1_455 S
C150 C136 1.377 . S
C150 C149 1.373 1_565 S
C151 C135 1.377 . S
C151 C149 1.389 . S
C151 C152 1.524 . S
C152 C151 1.524 . S
C152 C153 1.397 . S
C152 C157 1.363 . S
C153 H124 0.950 . S
C153 C152 1.397 . S
C153 C154 1.334 . S
C154 H125 0.950 . S
C154 C153 1.334 . S
C154 C155 1.287 . S
C155 C154 1.287 . S
C155 C156 1.524 . S
C155 H158 0.999 . S
C156 H126 0.950 . S
C156 C155 1.524 . S
C156 C157 1.415 . S
C157 H127 0.950 . S
C157 C152 1.363 . S
C157 C156 1.415 . S
H158 C155 0.999 . S
H159 C140 0.913 . S
H160 C178 0.951 . S
H161 C180 0.951 . S
H162 C182 0.950 . S
H163 C183 0.950 . S
H164 C185 0.950 1_565 S
H165 C188 0.950 . S
H166 C189 0.950 . S
H167 C191 0.950 . S
H168 C192 0.950 . S
H169 C193 0.951 . S
H170 C195 0.951 . S
H171 C197 0.950 . S
H172 C198 0.950 . S
H173 C200 0.950 . S
H174 C203 0.950 . S
H175 C204 0.950 . S
H176 C206 0.950 1_655 S
H177 C207 0.950 . S
C178 H160 0.951 . S
C178 C179 1.366 . S
C178 C180 1.388 . S
C179 C178 1.366 . S
C179 C183 1.385 . S
C180 H161 0.951 . S
C180 C178 1.388 . S
C180 C181 1.366 . S
C181 C180 1.366 . S
C181 C182 1.414 . S
C181 C184 1.499 1_565 S
C182 H162 0.950 . S
C182 C181 1.414 . S
C182 C183 1.374 . S
C183 H163 0.950 . S
C183 C179 1.385 . S
C183 C182 1.374 . S
C184 C181 1.499 1_545 S
C184 C185 1.373 . S
C184 C186 1.389 . S
C185 H164 0.950 1_545 S
C185 C184 1.373 . S
C185 C201 1.377 . S
C186 C184 1.389 . S
C186 C187 1.524 . S
C186 C200 1.377 . S
C187 C186 1.524 . S
C187 C188 1.397 . S
C187 C192 1.363 . S
C188 H165 0.950 . S
C188 C187 1.397 . S
C188 C189 1.334 . S
C189 H166 0.950 . S
C189 C188 1.334 . S
C189 C190 1.287 . S
C190 C189 1.287 . S
C190 C191 1.524 . S
C190 H209 0.913 . S
C191 H167 0.950 . S
C191 C190 1.524 . S
C191 C192 1.415 . S
C192 H168 0.950 . S
C192 C187 1.363 . S
C192 C191 1.415 . S
C193 H169 0.951 . S
C193 C194 1.366 . S
C193 C195 1.388 . S
C194 C193 1.366 . S
C194 C198 1.385 . S
C195 H170 0.951 . S
C195 C193 1.388 . S
C195 C196 1.366 . S
C196 C195 1.366 . S
C196 C197 1.414 . S
C196 C199 1.499 . S
C197 H171 0.950 . S
C197 C196 1.414 . S
C197 C198 1.374 . S
C198 H172 0.950 . S
C198 C194 1.385 . S
C198 C197 1.374 . S
C199 C196 1.499 . S
C199 C200 1.373 1_455 S
C199 C201 1.389 1_455 S
C200 H173 0.950 . S
C200 C186 1.377 . S
C200 C199 1.373 1_655 S
C201 C185 1.377 . S
C201 C199 1.389 1_655 S
C201 C202 1.524 1_655 S
C202 C201 1.524 1_455 S
C202 C203 1.397 . S
C202 C207 1.363 1_455 S
C203 H174 0.950 . S
C203 C202 1.397 . S
C203 C204 1.334 . S
C204 H175 0.950 . S
C204 C203 1.334 . S
C204 C205 1.287 . S
C205 C204 1.287 . S
C205 C206 1.524 . S
C205 H208 0.999 . S
C206 H176 0.950 1_455 S
C206 C205 1.524 . S
C206 C207 1.415 1_455 S
C207 H177 0.950 . S
C207 C202 1.363 1_655 S
C207 C206 1.415 1_655 S
H208 C205 0.999 . S
H209 C190 0.913 . S
H210 C228 0.951 . S
H211 C230 0.951 . S
H212 C232 0.950 . S
H213 C233 0.950 . S
H214 C235 0.950 . S
H215 C238 0.950 . S
H216 C239 0.946 1_655 S
H217 C241 0.950 . S
H218 C242 0.950 . S
H219 C243 0.951 . S
H220 C245 0.951 . S
H221 C247 0.950 . S
H222 C248 0.950 . S
H223 C250 0.950 . S
H224 C253 0.950 . S
H225 C254 0.950 . S
H226 C256 0.950 . S
H227 C257 0.960 . S
C228 H210 0.951 . S
C228 C229 1.366 . S
C228 C230 1.388 . S
C229 C228 1.366 . S
C229 C233 1.385 . S
C230 H211 0.951 . S
C230 C228 1.388 . S
C230 C231 1.366 . S
C231 C230 1.366 . S
C231 C232 1.414 . S
C231 C234 1.499 . S
C232 H212 0.950 . S
C232 C231 1.414 . S
C232 C233 1.374 . S
C233 H213 0.950 . S
C233 C229 1.385 . S
C233 C232 1.374 . S
C234 C231 1.499 . S
C234 C235 1.373 . S
C234 C236 1.389 . S
C235 H214 0.950 . S
C235 C234 1.373 . S
C235 C251 1.337 1_556 S
C236 C234 1.389 . S
C236 C237 1.524 . S
C236 C250 1.377 . S
C237 C236 1.524 . S
C237 C238 1.397 . S
C237 C242 1.363 . S
C238 H215 0.950 . S
C238 C237 1.397 . S
C238 C239 1.334 . S
C239 H216 0.946 1_455 S
C239 C238 1.334 . S
C239 C240 1.287 . S
C240 C239 1.287 . S
C240 C241 1.524 . S
C240 H259 0.913 . S
C241 H217 0.950 . S
C241 C240 1.524 . S
C241 C242 1.415 . S
C242 H218 0.950 . S
C242 C237 1.363 . S
C242 C241 1.415 . S
C243 H219 0.951 . S
C243 C244 1.366 . S
C243 C245 1.388 . S
C244 C243 1.366 . S
C244 C248 1.385 . S
C245 H220 0.951 . S
C245 C243 1.388 . S
C245 C246 1.366 . S
C246 C245 1.366 . S
C246 C247 1.414 . S
C246 C249 1.499 . S
C247 H221 0.950 . S
C247 C246 1.414 . S
C247 C248 1.374 . S
C248 H222 0.950 . S
C248 C244 1.385 . S
C248 C247 1.374 . S
C249 C246 1.499 . S
C249 C250 1.373 1_554 S
C249 C251 1.407 . S
C250 H223 0.950 . S
C250 C236 1.377 . S
C250 C249 1.373 1_556 S
C251 C235 1.337 1_554 S
C251 C249 1.407 . S
C251 C252 1.546 . S
C252 C251 1.546 . S
C252 C253 1.397 . S
C252 C257 1.363 . S
C253 H224 0.950 . S
C253 C252 1.397 . S
C253 C254 1.334 . S
C254 H225 0.950 . S
C254 C253 1.334 . S
C254 C255 1.287 . S
C255 C254 1.287 . S
C255 C256 1.524 . S
C255 H258 0.999 . S
C256 H226 0.950 . S
C256 C255 1.524 . S
C256 C257 1.415 . S
C257 H227 0.960 . S
C257 C252 1.363 . S
C257 C256 1.415 . S
H258 C255 0.999 . S
H259 C240 0.913 . S
H260 C278 0.951 . S
H261 C280 0.951 . S
H262 C282 0.950 . S
H263 C283 0.950 . S
H264 C285 0.950 . S
H265 C288 0.950 . S
H266 C289 0.950 . S
H267 C291 0.950 . S
H268 C292 0.950 . S
H269 C293 0.951 . S
H270 C295 0.951 . S
H271 C297 0.950 . S
H272 C298 0.950 . S
H273 C300 0.950 . S
H274 C303 0.950 . S
H275 C304 0.950 . S
H276 C306 0.950 . S
H277 C307 0.950 . S
C278 H260 0.951 . S
C278 C279 1.366 . S
C278 C280 1.388 . S
C279 C278 1.366 . S
C279 C283 1.385 . S
C280 H261 0.951 . S
C280 C278 1.388 . S
C280 C281 1.366 . S
C281 C280 1.366 . S
C281 C282 1.414 . S
C281 C284 1.499 . S
C282 H262 0.950 . S
C282 C281 1.414 . S
C282 C283 1.374 . S
C283 H263 0.950 . S
C283 C279 1.385 . S
C283 C282 1.374 . S
C284 C281 1.499 . S
C284 C285 1.373 . S
C284 C286 1.389 . S
C285 H264 0.950 . S
C285 C284 1.373 . S
C285 C301 1.377 . S
C286 C284 1.389 . S
C286 C287 1.524 . S
C286 C300 1.377 . S
C287 C286 1.524 . S
C287 C288 1.397 . S
C287 C292 1.363 . S
C288 H265 0.950 . S
C288 C287 1.397 . S
C288 C289 1.334 . S
C289 H266 0.950 . S
C289 C288 1.334 . S
C289 C290 1.287 . S
C290 C289 1.287 . S
C290 C291 1.524 . S
C290 H309 0.913 . S
C291 H267 0.950 . S
C291 C290 1.524 . S
C291 C292 1.415 . S
C292 H268 0.950 . S
C292 C287 1.363 . S
C292 C291 1.415 . S
C293 H269 0.951 . S
C293 C294 1.366 . S
C293 C295 1.388 . S
C294 C293 1.366 . S
C294 C298 1.385 . S
C295 H270 0.951 . S
C295 C293 1.388 . S
C295 C296 1.366 . S
C296 C295 1.366 . S
C296 C297 1.414 . S
C296 C299 1.499 . S
C297 H271 0.950 . S
C297 C296 1.414 . S
C297 C298 1.374 . S
C298 H272 0.950 . S
C298 C294 1.385 . S
C298 C297 1.374 . S
C299 C296 1.499 . S
C299 C300 1.373 . S
C299 C301 1.389 . S
C300 H273 0.950 . S
C300 C286 1.377 . S
C300 C299 1.373 . S
C301 C285 1.377 . S
C301 C299 1.389 . S
C301 C302 1.524 . S
C302 C301 1.524 . S
C302 C303 1.397 1_655 S
C302 C307 1.363 . S
C303 H274 0.950 . S
C303 C302 1.397 1_455 S
C303 C304 1.334 . S
C304 H275 0.950 . S
C304 C303 1.334 . S
C304 C305 1.287 . S
C305 C304 1.287 . S
C305 C306 1.524 . S
C305 H308 0.999 . S
C306 H276 0.950 . S
C306 C305 1.524 . S
C306 C307 1.415 1_455 S
C307 H277 0.950 . S
C307 C302 1.363 . S
C307 C306 1.415 1_655 S
H308 C305 0.999 . S
H309 C290 0.913 . S
H310 C328 0.951 . S
H311 C330 0.951 . S
H312 C332 0.950 . S
H313 C333 0.950 . S
H314 C335 0.950 . S
H315 C338 0.950 . S
H316 C339 0.950 . S
H317 C341 0.950 . S
H318 C342 0.950 . S
H319 C343 0.951 . S
H320 C345 0.951 . S
H321 C347 0.950 . S
H322 C348 0.950 . S
H323 C350 0.950 . S
H324 C353 0.950 . S
H325 C354 0.950 . S
H326 C356 0.950 . S
H327 C357 0.950 . S
C328 H310 0.951 . S
C328 C329 1.366 . S
C328 C330 1.388 . S
C329 C328 1.366 . S
C329 C333 1.385 . S
C330 H311 0.951 . S
C330 C328 1.388 . S
C330 C331 1.366 . S
C331 C330 1.366 . S
C331 C332 1.414 . S
C331 C334 1.499 . S
C332 H312 0.950 . S
C332 C331 1.414 . S
C332 C333 1.374 . S
C333 H313 0.950 . S
C333 C329 1.385 . S
C333 C332 1.374 . S
C334 C331 1.499 . S
C334 C335 1.373 . S
C334 C336 1.389 . S
C335 H314 0.950 . S
C335 C334 1.373 . S
C335 C351 1.377 . S
C336 C334 1.389 . S
C336 C337 1.524 . S
C336 C350 1.377 . S
C337 C336 1.524 . S
C337 C338 1.397 . S
C337 C342 1.363 . S
C338 H315 0.950 . S
C338 C337 1.397 . S
C338 C339 1.334 . S
C339 H316 0.950 . S
C339 C338 1.334 . S
C339 C340 1.287 . S
C340 C339 1.287 . S
C340 C341 1.524 . S
C340 H359 0.913 . S
C341 H317 0.950 . S
C341 C340 1.524 . S
C341 C342 1.415 . S
C342 H318 0.950 . S
C342 C337 1.363 . S
C342 C341 1.415 . S
C343 H319 0.951 . S
C343 C344 1.366 . S
C343 C345 1.388 . S
C344 C343 1.366 . S
C344 C348 1.385 . S
C345 H320 0.951 . S
C345 C343 1.388 . S
C345 C346 1.366 . S
C346 C345 1.366 . S
C346 C347 1.414 . S
C346 C349 1.499 . S
C347 H321 0.950 . S
C347 C346 1.414 . S
C347 C348 1.374 . S
C348 H322 0.950 . S
C348 C344 1.385 . S
C348 C347 1.374 . S
C349 C346 1.499 . S
C349 C350 1.373 . S
C349 C351 1.389 . S
C350 H323 0.950 . S
C350 C336 1.377 . S
C350 C349 1.373 . S
C351 C335 1.377 . S
C351 C349 1.389 . S
C351 C352 1.524 1_565 S
C352 C351 1.524 1_545 S
C352 C353 1.397 . S
C352 C357 1.363 . S
C353 H324 0.950 . S
C353 C352 1.397 . S
C353 C354 1.334 . S
C354 H325 0.950 . S
C354 C353 1.334 . S
C354 C355 1.287 . S
C355 C354 1.287 . S
C355 C356 1.524 . S
C355 H358 0.999 . S
C356 H326 0.950 . S
C356 C355 1.524 . S
C356 C357 1.415 . S
C357 H327 0.950 . S
C357 C352 1.363 . S
C357 C356 1.415 . S
H358 C355 0.999 . S
H359 C340 0.913 . S
H360 C378 0.951 . S
H361 C380 0.951 . S
H362 C382 0.950 . S
H363 C383 0.950 . S
H364 C385 0.950 . S
H365 C388 0.950 . S
H366 C389 0.950 . S
H367 C391 0.950 . S
H368 C392 0.950 . S
H369 C393 0.951 . S
H370 C395 0.951 . S
H371 C397 0.950 . S
H372 C398 0.950 . S
H373 C400 0.950 . S
H374 C403 0.950 . S
H375 C404 0.950 . S
H376 C406 0.950 . S
H377 C407 0.950 . S
C378 H360 0.951 . S
C378 C379 1.366 . S
C378 C380 1.388 . S
C379 C378 1.366 . S
C379 C383 1.385 . S
C380 H361 0.951 . S
C380 C378 1.388 . S
C380 C381 1.366 . S
C381 C380 1.366 . S
C381 C382 1.414 . S
C381 C384 1.499 . S
C382 H362 0.950 . S
C382 C381 1.414 . S
C382 C383 1.374 . S
C383 H363 0.950 . S
C383 C379 1.385 . S
C383 C382 1.374 . S
C384 C381 1.499 . S
C384 C385 1.373 . S
C384 C386 1.389 1_556 S
C385 H364 0.950 . S
C385 C384 1.373 . S
C385 C401 1.377 1_556 S
C386 C384 1.389 1_554 S
C386 C387 1.524 . S
C386 C400 1.377 . S
C387 C386 1.524 . S
C387 C388 1.397 . S
C387 C392 1.363 . S
C388 H365 0.950 . S
C388 C387 1.397 . S
C388 C389 1.334 . S
C389 H366 0.950 . S
C389 C388 1.334 . S
C389 C390 1.287 . S
C390 C389 1.287 . S
C390 C391 1.524 . S
C390 H409 0.913 . S
C391 H367 0.950 . S
C391 C390 1.524 . S
C391 C392 1.415 . S
C392 H368 0.950 . S
C392 C387 1.363 . S
C392 C391 1.415 . S
C393 H369 0.951 . S
C393 C394 1.366 . S
C393 C395 1.388 . S
C394 C393 1.366 . S
C394 C398 1.385 . S
C395 H370 0.951 . S
C395 C393 1.388 . S
C395 C396 1.366 . S
C396 C395 1.366 . S
C396 C397 1.414 . S
C396 C399 1.499 . S
C397 H371 0.950 . S
C397 C396 1.414 . S
C397 C398 1.374 . S
C398 H372 0.950 . S
C398 C394 1.385 . S
C398 C397 1.374 . S
C399 C396 1.499 . S
C399 C400 1.373 . S
C399 C401 1.389 . S
C400 H373 0.950 . S
C400 C386 1.377 . S
C400 C399 1.373 . S
C401 C385 1.377 1_554 S
C401 C399 1.389 . S
C401 C402 1.524 . S
C402 C401 1.524 . S
C402 C403 1.397 . S
C402 C407 1.363 1_554 S
C403 H374 0.950 . S
C403 C402 1.397 . S
C403 C404 1.334 . S
C404 H375 0.950 . S
C404 C403 1.334 . S
C404 C405 1.287 1_554 S
C405 C404 1.287 1_556 S
C405 C406 1.524 . S
C405 H408 0.999 . S
C406 H376 0.950 . S
C406 C405 1.524 . S
C406 C407 1.415 . S
C407 H377 0.950 . S
C407 C402 1.363 1_556 S
C407 C406 1.415 . S
H408 C405 0.999 . S
H409 C390 0.913 . S
H410 C428 0.951 . S
H411 C430 0.951 . S
H412 C432 0.950 . S
H413 C433 0.950 . S
H414 C435 0.950 . S
H415 C438 0.950 . S
H416 C439 0.950 . S
H417 C441 0.950 . S
H418 C442 0.950 . S
H419 C443 0.951 . S
H420 C445 0.951 . S
H421 C447 0.950 . S
H422 C448 0.950 . S
H423 C450 0.950 . S
H424 C453 0.950 . S
H425 C454 0.950 . S
H426 C456 0.950 . S
H427 C457 0.950 . S
C428 H410 0.951 . S
C428 C429 1.366 . S
C428 C430 1.388 . S
C429 C428 1.366 . S
C429 C433 1.385 . S
C430 H411 0.951 . S
C430 C428 1.388 . S
C430 C431 1.366 . S
C431 C430 1.366 . S
C431 C432 1.414 . S
C431 C434 1.499 . S
C432 H412 0.950 . S
C432 C431 1.414 . S
C432 C433 1.374 . S
C433 H413 0.950 . S
C433 C429 1.385 . S
C433 C432 1.374 . S
C434 C431 1.499 . S
C434 C435 1.373 . S
C434 C436 1.389 . S
C435 H414 0.950 . S
C435 C434 1.373 . S
C435 C451 1.377 . S
C436 C434 1.389 . S
C436 C437 1.524 . S
C436 C450 1.377 . S
C437 C436 1.524 . S
C437 C438 1.397 . S
C437 C442 1.363 . S
C438 H415 0.950 . S
C438 C437 1.397 . S
C438 C439 1.334 . S
C439 H416 0.950 . S
C439 C438 1.334 . S
C439 C440 1.287 . S
C440 C439 1.287 . S
C440 C441 1.524 . S
C440 H459 0.913 . S
C441 H417 0.950 . S
C441 C440 1.524 . S
C441 C442 1.415 . S
C442 H418 0.950 . S
C442 C437 1.363 . S
C442 C441 1.415 . S
C443 H419 0.951 . S
C443 C444 1.366 . S
C443 C445 1.388 . S
C444 C443 1.366 . S
C444 C448 1.385 . S
C445 H420 0.951 . S
C445 C443 1.388 . S
C445 C446 1.366 . S
C446 C445 1.366 . S
C446 C447 1.414 . S
C446 C449 1.499 . S
C447 H421 0.950 . S
C447 C446 1.414 . S
C447 C448 1.374 . S
C448 H422 0.950 . S
C448 C444 1.385 . S
C448 C447 1.374 . S
C449 C446 1.499 . S
C449 C450 1.373 . S
C449 C451 1.389 . S
C450 H423 0.950 . S
C450 C436 1.377 . S
C450 C449 1.373 . S
C451 C435 1.377 . S
C451 C449 1.389 . S
C451 C452 1.524 . S
C452 C451 1.524 . S
C452 C453 1.397 . S
C452 C457 1.363 . S
C453 H424 0.950 . S
C453 C452 1.397 . S
C453 C454 1.334 . S
C454 H425 0.950 . S
C454 C453 1.334 . S
C454 C455 1.287 . S
C455 C454 1.287 . S
C455 C456 1.524 . S
C455 H458 0.999 . S
C456 H426 0.950 . S
C456 C455 1.524 . S
C456 C457 1.415 . S
C457 H427 0.950 . S
C457 C452 1.363 . S
C457 C456 1.415 . S
H458 C455 0.999 . S
H459 C440 0.913 . S
H460 C478 0.951 . S
H461 C480 0.951 . S
H462 C482 0.950 . S
H463 C483 0.950 . S
H464 C485 0.950 . S
H465 C488 0.950 . S
H466 C489 0.950 . S
H467 C491 0.950 . S
H468 C492 0.950 . S
H469 C493 0.951 . S
H470 C495 0.951 . S
H471 C497 0.950 . S
H472 C498 0.950 . S
H473 C500 0.950 . S
H474 C503 0.950 . S
H475 C504 0.950 . S
H476 C506 0.950 . S
H477 C507 0.950 . S
C478 H460 0.951 . S
C478 C479 1.366 . S
C478 C480 1.388 . S
C479 C478 1.366 . S
C479 C483 1.385 . S
C480 H461 0.951 . S
C480 C478 1.388 . S
C480 C481 1.366 . S
C481 C480 1.366 . S
C481 C482 1.414 . S
C481 C484 1.499 . S
C482 H462 0.950 . S
C482 C481 1.414 . S
C482 C483 1.374 . S
C483 H463 0.950 . S
C483 C479 1.385 . S
C483 C482 1.374 . S
C484 C481 1.499 . S
C484 C485 1.373 . S
C484 C486 1.389 . S
C485 H464 0.950 . S
C485 C484 1.373 . S
C485 C501 1.377 . S
C486 C484 1.389 . S
C486 C487 1.524 . S
C486 C500 1.377 . S
C487 C486 1.524 . S
C487 C488 1.397 . S
C487 C492 1.363 . S
C488 H465 0.950 . S
C488 C487 1.397 . S
C488 C489 1.334 . S
C489 H466 0.950 . S
C489 C488 1.334 . S
C489 C490 1.287 . S
C490 C489 1.287 . S
C490 C491 1.524 . S
C490 H509 0.913 . S
C491 H467 0.950 . S
C491 C490 1.524 . S
C491 C492 1.415 . S
C492 H468 0.950 . S
C492 C487 1.363 . S
C492 C491 1.415 . S
C493 H469 0.951 . S
C493 C494 1.366 . S
C493 C495 1.388 . S
C494 C493 1.366 . S
C494 C498 1.385 . S
C495 H470 0.951 . S
C495 C493 1.388 . S
C495 C496 1.366 . S
C496 C495 1.366 . S
C496 C497 1.414 . S
C496 C499 1.499 . S
C497 H471 0.950 . S
C497 C496 1.414 . S
C497 C498 1.374 . S
C498 H472 0.950 . S
C498 C494 1.385 . S
C498 C497 1.374 . S
C499 C496 1.499 . S
C499 C500 1.373 . S
C499 C501 1.389 . S
C500 H473 0.950 . S
C500 C486 1.377 . S
C500 C499 1.373 . S
C501 C485 1.377 . S
C501 C499 1.389 . S
C501 C502 1.524 . S
C502 C501 1.524 . S
C502 C503 1.397 . S
C502 C507 1.363 . S
C503 H474 0.950 . S
C503 C502 1.397 . S
C503 C504 1.334 . S
C504 H475 0.950 . S
C504 C503 1.334 . S
C504 C505 1.287 . S
C505 C504 1.287 . S
C505 C506 1.524 . S
C505 H508 0.999 . S
C506 H476 0.950 . S
C506 C505 1.524 . S
C506 C507 1.415 . S
C507 H477 0.950 . S
C507 C502 1.363 . S
C507 C506 1.415 . S
H508 C505 0.999 . S
H509 C490 0.913 . S
C79 C2 1.336 . S
C94 C13 1.334 . S
C129 C33 1.337 1_545 S
C144 C22 1.335 1_545 S
C179 C53 1.239 . S
C194 C42 1.239 . S
C229 C57 1.724 . S
C244 C14 1.750 . S
C279 C37 3.072 . S
C294 C8 3.072 . S
C329 C48 1.725 . S
C344 C25 1.750 . S
C379 C54 1.691 . S
C394 C17 1.711 . S
C429 C5 0.450 . S
C444 C34 0.449 . S
C479 C45 1.692 . S
C494 C28 1.711 . S
