# Generated by pormake.
# Topology uoc, (4)-cn, num edge types: 1
# Building blocks:
#     Node 0, Type 0, BuildingBlock: ICAMEG_clean_sbu_1, # of connection points: 4
#     Node 1, Type 0, BuildingBlock: ICAMEG_clean_sbu_1, # of connection points: 4
#     Node 2, Type 0, BuildingBlock: ICAMEG_clean_sbu_1, # of connection points: 4
#     Node 3, Type 0, BuildingBlock: ICAMEG_clean_sbu_1, # of connection points: 4
#     Node 4, Type 0, BuildingBlock: ICAMEG_clean_sbu_1, # of connection points: 4
#     Node 5, Type 0, BuildingBlock: ICAMEG_clean_sbu_1, # of connection points: 4
#     Node 6, Type 0, BuildingBlock: ICAMEG_clean_sbu_1, # of connection points: 4
#     Node 7, Type 0, BuildingBlock: ICAMEG_clean_sbu_1, # of connection points: 4
#     Edge 8, Type (0, 0), BuildingBlock: OJICUG_clean_linker_0, # of connection points: 2
#     Edge 9, Type (0, 0), BuildingBlock: OJICUG_clean_linker_0, # of connection points: 2
#     Edge 10, Type (0, 0), BuildingBlock: OJICUG_clean_linker_0, # of connection points: 2
#     Edge 11, Type (0, 0), BuildingBlock: OJICUG_clean_linker_0, # of connection points: 2
#     Edge 12, Type (0, 0), BuildingBlock: OJICUG_clean_linker_0, # of connection points: 2
#     Edge 13, Type (0, 0), BuildingBlock: OJICUG_clean_linker_0, # of connection points: 2
#     Edge 14, Type (0, 0), BuildingBlock: OJICUG_clean_linker_0, # of connection points: 2
#     Edge 15, Type (0, 0), BuildingBlock: OJICUG_clean_linker_0, # of connection points: 2
#     Edge 16, Type (0, 0), BuildingBlock: OJICUG_clean_linker_0, # of connection points: 2
#     Edge 17, Type (0, 0), BuildingBlock: OJICUG_clean_linker_0, # of connection points: 2
#     Edge 18, Type (0, 0), BuildingBlock: OJICUG_clean_linker_0, # of connection points: 2
#     Edge 19, Type (0, 0), BuildingBlock: OJICUG_clean_linker_0, # of connection points: 2
#     Edge 20, Type (0, 0), BuildingBlock: OJICUG_clean_linker_0, # of connection points: 2
#     Edge 21, Type (0, 0), BuildingBlock: OJICUG_clean_linker_0, # of connection points: 2
#     Edge 22, Type (0, 0), BuildingBlock: OJICUG_clean_linker_0, # of connection points: 2
#     Edge 23, Type (0, 0), BuildingBlock: OJICUG_clean_linker_0, # of connection points: 2
# Relax obj value: 0.095
# Max RMSD: 0.097
# Mean RMSD: 0.097
data_MOF--net-uoc--node1-ICAMEG_clean_sbu_1--edge1-OJICUG_clean_linker_0
_symmetry_space_group_name_H-M    P1
_symmetry_Int_Tables_number       1
_symmetry_cell_setting            triclinic
loop_
_symmetry_equiv_pos_as_xyz
'x, y, z'
_cell_length_a     21.171304
_cell_length_b     21.170436
_cell_length_c     43.0429
_cell_angle_alpha  90.002137
_cell_angle_beta   90.002521
_cell_angle_gamma 101.13424
loop_
_atom_site_label
_atom_site_type_symbol
_atom_site_fract_x
_atom_site_fract_y
_atom_site_fract_z
_atom_type_partial_charge
Co0 Co 0.16074 0.24422 0.14 0.0
Co1 Co 0.00432 0.22802 0.1138 0.0
O2 O 0.07979 0.27522 0.13566 0.0
C3 C 0.13323 0.27055 0.20622 0.0
O4 O 0.07723 0.23159 0.20327 0.0
C5 C 0.02429 0.35833 0.08561 0.0
O6 O 0.08501 0.35489 0.08156 0.0
O7 O 0.05771 0.21741 0.07634 0.0
O8 O 0.15252 0.20668 0.09714 0.0
H9 H 0.8807 0.04227 0.05269 0.0
H10 H 0.15739 0.38103 0.15324 0.0
O11 O 0.17147 0.28131 0.18314 0.0
H12 H 0.3139 0.38585 0.06801 0.0
H13 H 0.39098 0.26387 0.17454 0.0
H14 H 0.20727 0.1253 0.12284 0.0
H15 H 0.25919 0.28248 0.09044 0.0
H16 H 0.28818 0.30063 0.16783 0.0
O17 O 0.98542 0.31074 0.09711 0.0
H18 H 0.97634 0.10544 0.0786 0.0
H19 H 0.87116 0.25045 0.10209 0.0
H20 H 0.30922 0.08666 0.12883 0.0
H21 H 0.21134 0.48549 0.13165 0.0
H22 H 0.40207 0.15623 0.15488 0.0
H23 H 0.29012 0.48831 0.08867 0.0
O24 O 0.11464 0.15943 0.15646 0.0
H25 H 0.93145 0.35002 0.20278 0.0
H26 H 0.90443 0.13957 0.15022 0.0
H27 H 0.84149 0.15037 0.19747 0.0
H28 H 0.85475 0.25627 0.22406 0.0
H29 H 0.99388 0.33685 0.15564 0.0
H30 H 0.77485 0.18951 0.0758 0.0
H31 H 0.77899 0.08415 0.05131 0.0
O32 O 0.02001 0.14518 0.13091 0.0
C33 C 0.11334 0.20247 0.07438 0.0
C34 C 0.87821 0.08792 0.06348 0.0
C35 C 0.81884 0.17064 0.07638 0.0
N36 N 0.92922 0.18132 0.09208 0.0
C37 C 0.93218 0.12391 0.07819 0.0
C38 C 0.87367 0.20515 0.09104 0.0
C39 C 0.82114 0.11146 0.0627 0.0
C40 C 0.19208 0.3819 0.13475 0.0
N41 N 0.20538 0.32575 0.12323 0.0
C42 C 0.22228 0.44118 0.12253 0.0
C43 C 0.26639 0.44272 0.09838 0.0
C44 C 0.27972 0.38524 0.08676 0.0
C45 C 0.2485 0.32685 0.09951 0.0
C46 C 0.35087 0.23308 0.16318 0.0
C47 C 0.24736 0.15576 0.13414 0.0
C48 C 0.29244 0.25354 0.1594 0.0
N49 N 0.24164 0.21504 0.14494 0.0
C50 C 0.30502 0.13367 0.1375 0.0
C51 C 0.35708 0.1727 0.15213 0.0
C52 C 0.06046 0.12536 0.14852 0.0
C53 C 0.9252 0.30364 0.19139 0.0
C54 C 0.91073 0.18568 0.16177 0.0
C55 C 0.87479 0.19158 0.18845 0.0
C56 C 0.88222 0.25101 0.20334 0.0
N57 N 0.95285 0.23748 0.1502 0.0
C58 C 0.96031 0.29593 0.16465 0.0
Co59 Co 0.74426 0.65485 0.39076 0.0
Co60 Co 0.76146 0.51243 0.42555 0.0
O61 O 0.7949 0.58794 0.39946 0.0
C62 C 0.79346 0.62455 0.32822 0.0
O63 O 0.78841 0.56429 0.33667 0.0
C64 C 0.89743 0.55703 0.44743 0.0
O65 O 0.89194 0.61728 0.44376 0.0
O66 O 0.74381 0.56979 0.46016 0.0
O67 O 0.70769 0.64744 0.43405 0.0
H68 H 0.5989 0.37836 0.49568 0.0
H69 H 0.88421 0.68317 0.37768 0.0
O70 O 0.7786 0.66583 0.34702 0.0
H71 H 0.84954 0.846 0.45445 0.0
H72 H 0.7062 0.86436 0.34614 0.0
H73 H 0.61054 0.66893 0.40459 0.0
H74 H 0.75829 0.76483 0.43535 0.0
H75 H 0.77016 0.78145 0.35778 0.0
O76 O 0.8495 0.51184 0.44246 0.0
H77 H 0.64429 0.47326 0.46399 0.0
H78 H 0.80787 0.39226 0.44292 0.0
H79 H 0.54504 0.7508 0.39366 0.0
H80 H 0.97679 0.76401 0.39587 0.0
H81 H 0.59285 0.8494 0.36422 0.0
H82 H 0.95973 0.84607 0.4346 0.0
O83 O 0.67081 0.58886 0.37571 0.0
H84 H 0.89754 0.44111 0.34176 0.0
H85 H 0.68688 0.39508 0.39435 0.0
H86 H 0.70829 0.32544 0.3513 0.0
H87 H 0.81444 0.34811 0.32474 0.0
H88 H 0.87352 0.51027 0.38448 0.0
H89 H 0.76524 0.29753 0.47529 0.0
H90 H 0.65968 0.28983 0.50168 0.0
O91 O 0.67255 0.50788 0.409 0.0
C92 C 0.71543 0.61789 0.45922 0.0
C93 C 0.64494 0.38116 0.4843 0.0
C94 C 0.73831 0.33583 0.47287 0.0
N95 N 0.72851 0.43823 0.45144 0.0
C96 C 0.67082 0.4347 0.46623 0.0
C97 C 0.76242 0.38982 0.45473 0.0
C98 C 0.67905 0.33147 0.48763 0.0
C99 C 0.87636 0.71912 0.39431 0.0
N100 N 0.81593 0.71938 0.40536 0.0
C101 C 0.92898 0.76459 0.40462 0.0
C102 C 0.91939 0.81055 0.4264 0.0
C103 C 0.85759 0.81049 0.43757 0.0
C104 C 0.80613 0.76424 0.42675 0.0
C105 C 0.68486 0.82166 0.35904 0.0
C106 C 0.63183 0.71186 0.39193 0.0
C107 C 0.72081 0.77448 0.36565 0.0
N108 N 0.69425 0.72057 0.38204 0.0
C109 C 0.59444 0.75799 0.38574 0.0
C110 C 0.62127 0.81325 0.3692 0.0
C111 C 0.64523 0.53515 0.38788 0.0
C112 C 0.85111 0.43068 0.35315 0.0
C113 C 0.73277 0.40582 0.38267 0.0
C114 C 0.74484 0.36593 0.35843 0.0
C115 C 0.80444 0.37859 0.34358 0.0
N116 N 0.7787 0.45694 0.39189 0.0
C117 C 0.83732 0.4695 0.37749 0.0
Co118 Co 0.34182 0.25691 0.63999 0.0
Co119 Co 0.49821 0.27316 0.61377 0.0
O120 O 0.42279 0.22594 0.63565 0.0
C121 C 0.3693 0.23061 0.70623 0.0
O122 O 0.42528 0.26961 0.70328 0.0
C123 C 0.47836 0.1428 0.58563 0.0
O124 O 0.41762 0.14617 0.58157 0.0
O125 O 0.44477 0.28364 0.57631 0.0
O126 O 0.35001 0.29447 0.59714 0.0
H127 H 0.62158 0.45885 0.55254 0.0
H128 H 0.34521 0.12011 0.65322 0.0
O129 O 0.33109 0.2198 0.68313 0.0
H130 H 0.18868 0.11527 0.56799 0.0
H131 H 0.11157 0.23718 0.67453 0.0
H132 H 0.29525 0.37583 0.62285 0.0
H133 H 0.24337 0.21864 0.59042 0.0
H134 H 0.21438 0.20045 0.66781 0.0
O135 O 0.51719 0.19044 0.59711 0.0
H136 H 0.52603 0.39567 0.57851 0.0
H137 H 0.63141 0.25086 0.60205 0.0
H138 H 0.19328 0.41443 0.62886 0.0
H139 H 0.29128 0.01564 0.63161 0.0
H140 H 0.10045 0.34482 0.65489 0.0
H141 H 0.21249 0.01281 0.58863 0.0
O142 O 0.3879 0.34169 0.65646 0.0
H143 H 0.57131 0.15146 0.7028 0.0
H144 H 0.59806 0.36178 0.65014 0.0
H145 H 0.66107 0.35115 0.69739 0.0
H146 H 0.64794 0.24532 0.72403 0.0
H147 H 0.5088 0.16445 0.65566 0.0
H148 H 0.72763 0.31179 0.5757 0.0
H149 H 0.72334 0.41706 0.55115 0.0
O150 O 0.48245 0.35601 0.63085 0.0
C151 C 0.38916 0.29863 0.57436 0.0
C152 C 0.62414 0.41323 0.56335 0.0
C153 C 0.68362 0.33062 0.57628 0.0
N154 N 0.57325 0.31988 0.59202 0.0
C155 C 0.57021 0.37725 0.5781 0.0
C156 C 0.62883 0.29611 0.59098 0.0
C157 C 0.68123 0.38975 0.56257 0.0
C158 C 0.31051 0.11923 0.63473 0.0
N159 N 0.2972 0.17538 0.62322 0.0
C160 C 0.28032 0.05995 0.6225 0.0
C161 C 0.23621 0.0584 0.59834 0.0
C162 C 0.22286 0.11588 0.58674 0.0
C163 C 0.25407 0.17427 0.59949 0.0
C164 C 0.15167 0.26798 0.66317 0.0
C165 C 0.25517 0.34535 0.63415 0.0
C166 C 0.21011 0.24754 0.65939 0.0
N167 N 0.2609 0.28606 0.64493 0.0
C168 C 0.19749 0.36742 0.63751 0.0
C169 C 0.14545 0.32836 0.65213 0.0
C170 C 0.44204 0.3758 0.64849 0.0
C171 C 0.5775 0.19781 0.69139 0.0
C172 C 0.59182 0.3157 0.66171 0.0
C173 C 0.6278 0.3099 0.68839 0.0
C174 C 0.62044 0.2505 0.70331 0.0
N175 N 0.54974 0.26383 0.65017 0.0
C176 C 0.54235 0.20542 0.66464 0.0
Co177 Co 0.75844 0.84602 0.89077 0.0
Co178 Co 0.74087 0.98828 0.92559 0.0
O179 O 0.70759 0.91275 0.89948 0.0
C180 C 0.70922 0.87625 0.82823 0.0
O181 O 0.71426 0.93651 0.83669 0.0
C182 C 0.60479 0.94357 0.94733 0.0
O183 O 0.61022 0.88333 0.94356 0.0
O184 O 0.75854 0.93092 0.9602 0.0
O185 O 0.79504 0.85353 0.93405 0.0
H186 H 0.90316 0.12251 0.99581 0.0
H187 H 0.61849 0.81727 0.8777 0.0
O188 O 0.72408 0.83497 0.84703 0.0
H189 H 0.65375 0.65462 0.95443 0.0
H190 H 0.79716 0.63678 0.84611 0.0
H191 H 0.8923 0.83237 0.90458 0.0
H192 H 0.74479 0.73606 0.93535 0.0
H193 H 0.7329 0.71943 0.85777 0.0
O194 O 0.65278 0.98875 0.94246 0.0
H195 H 0.85793 0.02757 0.9641 0.0
H196 H 0.69427 0.10835 0.94293 0.0
H197 H 0.95809 0.75076 0.89362 0.0
H198 H 0.52613 0.73615 0.89586 0.0
H199 H 0.91054 0.65208 0.86417 0.0
H200 H 0.54349 0.65417 0.93458 0.0
O201 O 0.83171 0.91219 0.87571 0.0
H202 H 0.60484 0.05944 0.84173 0.0
H203 H 0.81539 0.10571 0.89443 0.0
H204 H 0.79396 0.17532 0.85137 0.0
H205 H 0.68787 0.15253 0.82477 0.0
H206 H 0.62887 0.99031 0.88447 0.0
H207 H 0.73672 0.20311 0.97532 0.0
H208 H 0.84225 0.21094 1.00177 0.0
O209 O 0.82984 0.99298 0.90909 0.0
C210 C 0.78712 0.88296 0.95924 0.0
C211 C 0.85713 0.11965 0.9844 0.0
C212 C 0.7637 0.16486 0.97292 0.0
N213 N 0.77368 0.06249 0.9515 0.0
C214 C 0.83134 0.06608 0.96633 0.0
C215 C 0.7397 0.11084 0.95477 0.0
C216 C 0.82295 0.16929 0.98771 0.0
C217 C 0.62647 0.78136 0.89431 0.0
N218 N 0.68694 0.7813 0.90536 0.0
C219 C 0.57397 0.73573 0.90462 0.0
C220 C 0.58373 0.68982 0.92639 0.0
C221 C 0.64557 0.69008 0.93756 0.0
C222 C 0.6969 0.73649 0.92675 0.0
C223 C 0.81838 0.67951 0.859 0.0
C224 C 0.87111 0.7894 0.89191 0.0
C225 C 0.78227 0.72654 0.86563 0.0
N226 N 0.80868 0.7805 0.88203 0.0
C227 C 0.90868 0.74342 0.8857 0.0
C228 C 0.88199 0.68811 0.86915 0.0
C229 C 0.85721 0.96588 0.88793 0.0
C230 C 0.65123 0.06992 0.85315 0.0
C231 C 0.76951 0.09491 0.88273 0.0
C232 C 0.75744 0.13479 0.85848 0.0
C233 C 0.69787 0.12206 0.84361 0.0
N234 N 0.72362 0.04374 0.89193 0.0
C235 C 0.66503 0.03112 0.8775 0.0
Co236 Co 0.65589 0.74351 0.64162 0.0
Co237 Co 0.51363 0.7611 0.60682 0.0
O238 O 0.58918 0.79438 0.63291 0.0
C239 C 0.62572 0.79276 0.70415 0.0
O240 O 0.56545 0.78769 0.6957 0.0
C241 C 0.55834 0.89717 0.58505 0.0
O242 O 0.61858 0.89175 0.58882 0.0
O243 O 0.57095 0.74339 0.5722 0.0
O244 O 0.64834 0.70688 0.59834 0.0
H245 H 0.37931 0.5988 0.53664 0.0
H246 H 0.68469 0.88348 0.65467 0.0
O247 O 0.66699 0.7779 0.68535 0.0
H248 H 0.84725 0.84813 0.57791 0.0
H249 H 0.86515 0.70477 0.68625 0.0
H250 H 0.66951 0.60964 0.62782 0.0
H251 H 0.76581 0.75712 0.59701 0.0
H252 H 0.78251 0.76905 0.67459 0.0
O253 O 0.51316 0.84918 0.58994 0.0
H254 H 0.47428 0.64402 0.56832 0.0
H255 H 0.39356 0.80772 0.5895 0.0
H256 H 0.75111 0.54383 0.63877 0.0
H257 H 0.76581 0.97581 0.63648 0.0
H258 H 0.84981 0.59138 0.6682 0.0
H259 H 0.84774 0.95841 0.59775 0.0
O260 O 0.58973 0.67026 0.6567 0.0
H261 H 0.44259 0.89721 0.69068 0.0
H262 H 0.39622 0.68662 0.63801 0.0
H263 H 0.32667 0.70809 0.68108 0.0
H264 H 0.34951 0.81421 0.70767 0.0
H265 H 0.51166 0.87314 0.64793 0.0
H266 H 0.29876 0.76526 0.55714 0.0
H267 H 0.29088 0.65972 0.5307 0.0
O268 O 0.50892 0.67214 0.62333 0.0
C269 C 0.61889 0.71479 0.57315 0.0
C270 C 0.38219 0.64484 0.54804 0.0
C271 C 0.33701 0.73828 0.55953 0.0
N272 N 0.43939 0.7283 0.58093 0.0
C273 C 0.43577 0.67062 0.5661 0.0
C274 C 0.39104 0.76228 0.57767 0.0
C275 C 0.33256 0.67902 0.54475 0.0
C276 C 0.72058 0.87547 0.63805 0.0
N277 N 0.72061 0.81499 0.627 0.0
C278 C 0.76622 0.92796 0.62772 0.0
C279 C 0.8121 0.91818 0.60595 0.0
C280 C 0.81181 0.85633 0.59478 0.0
C281 C 0.7654 0.80501 0.60561 0.0
C282 C 0.82241 0.68356 0.67336 0.0
C283 C 0.71249 0.63082 0.64048 0.0
C284 C 0.77538 0.71968 0.66674 0.0
N285 N 0.72141 0.69326 0.65035 0.0
C286 C 0.75846 0.59325 0.64668 0.0
C287 C 0.81378 0.61994 0.66322 0.0
C288 C 0.53603 0.64476 0.64449 0.0
C289 C 0.43208 0.85081 0.67926 0.0
C290 C 0.40704 0.7325 0.6497 0.0
C291 C 0.3672 0.7446 0.67396 0.0
C292 C 0.37995 0.80418 0.68882 0.0
N293 N 0.4582 0.77838 0.64049 0.0
C294 C 0.47086 0.83699 0.65491 0.0
Co295 Co 0.24503 0.16014 0.8924 0.0
Co296 Co 0.22882 0.00371 0.91857 0.0
O297 O 0.27603 0.07918 0.89672 0.0
C298 C 0.27137 0.13271 0.82617 0.0
O299 O 0.23241 0.0767 0.82911 0.0
C300 C 0.35918 0.02356 0.94672 0.0
O301 O 0.35579 0.08429 0.9508 0.0
O302 O 0.21832 0.0571 0.95605 0.0
O303 O 0.20748 0.15188 0.93525 0.0
H304 H 0.04317 0.8802 0.97977 0.0
H305 H 0.38184 0.15682 0.87916 0.0
O306 O 0.28213 0.17092 0.84927 0.0
H307 H 0.38662 0.31325 0.96443 0.0
H308 H 0.26469 0.39043 0.85792 0.0
H309 H 0.1261 0.20666 0.90957 0.0
H310 H 0.28327 0.25854 0.94199 0.0
H311 H 0.30145 0.28763 0.86461 0.0
O312 O 0.31155 0.98473 0.93523 0.0
H313 H 0.10632 0.9758 0.95383 0.0
H314 H 0.25117 0.8705 0.93024 0.0
H315 H 0.08747 0.30862 0.90359 0.0
H316 H 0.48628 0.21076 0.90078 0.0
H317 H 0.15705 0.4015 0.87758 0.0
H318 H 0.48909 0.2895 0.94378 0.0
O319 O 0.16025 0.11406 0.87592 0.0
H320 H 0.35057 0.93081 0.82951 0.0
H321 H 0.14025 0.9039 0.88216 0.0
H322 H 0.1509 0.84097 0.83489 0.0
H323 H 0.25674 0.85419 0.80825 0.0
H324 H 0.33755 0.99323 0.87668 0.0
H325 H 0.19026 0.77422 0.95656 0.0
H326 H 0.08499 0.77844 0.98112 0.0
O327 O 0.14597 0.01947 0.9015 0.0
C328 C 0.20332 0.1127 0.95802 0.0
C329 C 0.08879 0.87767 0.96895 0.0
C330 C 0.17142 0.81823 0.95599 0.0
N331 N 0.18213 0.92863 0.94029 0.0
C332 C 0.12476 0.93162 0.95422 0.0
C333 C 0.20592 0.87305 0.94131 0.0
C334 C 0.11229 0.82058 0.96971 0.0
C335 C 0.3827 0.19149 0.89767 0.0
N336 N 0.32655 0.20477 0.90918 0.0
C337 C 0.44197 0.22169 0.9099 0.0
C338 C 0.44351 0.26578 0.93406 0.0
C339 C 0.38603 0.27909 0.94568 0.0
C340 C 0.32764 0.24787 0.93292 0.0
C341 C 0.2339 0.35031 0.86927 0.0
C342 C 0.15657 0.24677 0.89827 0.0
C343 C 0.25436 0.29187 0.87304 0.0
N344 N 0.21585 0.24106 0.88748 0.0
C345 C 0.13448 0.30443 0.89493 0.0
C346 C 0.17352 0.3565 0.88032 0.0
C347 C 0.12616 0.0599 0.88388 0.0
C348 C 0.30422 0.92458 0.84092 0.0
C349 C 0.18633 0.91017 0.8706 0.0
C350 C 0.19215 0.87424 0.84391 0.0
C351 C 0.25154 0.88165 0.82899 0.0
N352 N 0.23818 0.95225 0.88215 0.0
C353 C 0.29659 0.95968 0.86768 0.0
Co354 Co 0.84688 0.75743 0.14164 0.0
Co355 Co 0.98922 0.74007 0.10684 0.0
O356 O 0.9137 0.70669 0.13294 0.0
C357 C 0.87709 0.70813 0.20417 0.0
O358 O 0.93734 0.7131 0.19571 0.0
C359 C 0.94456 0.60406 0.085 0.0
O360 O 0.88431 0.60954 0.0887 0.0
O361 O 0.93186 0.75774 0.07223 0.0
O362 O 0.85434 0.79403 0.09835 0.0
H363 H 0.12334 0.9025 0.03666 0.0
H364 H 0.81836 0.61746 0.15469 0.0
O365 O 0.83584 0.72307 0.18538 0.0
H366 H 0.65563 0.65243 0.07794 0.0
H367 H 0.63748 0.79578 0.18626 0.0
H368 H 0.83299 0.89122 0.12783 0.0
H369 H 0.73691 0.74358 0.09704 0.0
H370 H 0.72027 0.73168 0.17461 0.0
O371 O 0.98975 0.65201 0.08994 0.0
H372 H 0.02844 0.85719 0.06837 0.0
H373 H 0.10933 0.69357 0.08948 0.0
H374 H 0.75124 0.95685 0.13877 0.0
H375 H 0.7374 0.52499 0.1365 0.0
H376 H 0.6526 0.90915 0.1682 0.0
H377 H 0.65539 0.5422 0.09778 0.0
O378 O 0.91294 0.83079 0.1567 0.0
H379 H 0.06048 0.60397 0.19064 0.0
H380 H 0.10659 0.81461 0.13803 0.0
H381 H 0.17622 0.79318 0.18108 0.0
H382 H 0.15351 0.68704 0.20764 0.0
H383 H 0.99133 0.62801 0.14791 0.0
H384 H 0.20406 0.73611 0.05709 0.0
H385 H 0.21181 0.84165 0.03067 0.0
O386 O 0.99383 0.829 0.12337 0.0
C387 C 0.88384 0.78622 0.07318 0.0
C388 C 0.12052 0.85646 0.04805 0.0
C389 C 0.16579 0.76306 0.05951 0.0
N390 N 0.06342 0.77295 0.08094 0.0
C391 C 0.06698 0.83063 0.06613 0.0
C392 C 0.1118 0.73901 0.07765 0.0
C393 C 0.17017 0.82232 0.04473 0.0
C394 C 0.78243 0.62538 0.13807 0.0
N395 N 0.78227 0.68584 0.12703 0.0
C396 C 0.73689 0.57281 0.12775 0.0
C397 C 0.69096 0.58249 0.10598 0.0
C398 C 0.69111 0.64431 0.09482 0.0
C399 C 0.73743 0.69571 0.10564 0.0
C400 C 0.6802 0.81706 0.17337 0.0
C401 C 0.79004 0.86997 0.14049 0.0
C402 C 0.72731 0.78104 0.16675 0.0
N403 N 0.78124 0.80754 0.15036 0.0
C404 C 0.74399 0.90744 0.14668 0.0
C405 C 0.6887 0.88067 0.16322 0.0
C406 C 0.96664 0.85634 0.14451 0.0
C407 C 0.07093 0.65039 0.17924 0.0
C408 C 0.09583 0.76872 0.14971 0.0
C409 C 0.13572 0.75665 0.17395 0.0
C410 C 0.12303 0.69705 0.1888 0.0
N411 N 0.04469 0.72281 0.14049 0.0
C412 C 0.03211 0.66419 0.1549 0.0
Co413 Co 0.2574 0.34103 0.39241 0.0
Co414 Co 0.27349 0.49745 0.4186 0.0
O415 O 0.22633 0.42194 0.39675 0.0
C416 C 0.23106 0.3685 0.32618 0.0
O417 O 0.26999 0.42453 0.32913 0.0
C418 C 0.14318 0.47737 0.4468 0.0
O419 O 0.14666 0.41665 0.45084 0.0
O420 O 0.28418 0.44409 0.45606 0.0
O421 O 0.29494 0.34927 0.43526 0.0
H422 H 0.45918 0.62123 0.47968 0.0
H423 H 0.12058 0.34427 0.37916 0.0
O424 O 0.22031 0.33027 0.34927 0.0
H425 H 0.11588 0.18777 0.46439 0.0
H426 H 0.23793 0.1108 0.35785 0.0
H427 H 0.37636 0.29458 0.40958 0.0
H428 H 0.21922 0.24256 0.44197 0.0
H429 H 0.20108 0.21356 0.36457 0.0
O430 O 0.19075 0.51628 0.43531 0.0
H431 H 0.39608 0.52555 0.45378 0.0
H432 H 0.25094 0.63058 0.43031 0.0
H433 H 0.41508 0.19266 0.40358 0.0
H434 H 0.01615 0.29024 0.40076 0.0
H435 H 0.34557 0.09978 0.37752 0.0
H436 H 0.01338 0.21147 0.44374 0.0
O437 O 0.34216 0.38718 0.37594 0.0
H438 H 0.15131 0.57017 0.32964 0.0
H439 H 0.36181 0.59743 0.38216 0.0
H440 H 0.3509 0.66034 0.33492 0.0
H441 H 0.24498 0.64696 0.30835 0.0
H442 H 0.16459 0.50776 0.37678 0.0
H443 H 0.31179 0.72693 0.4566 0.0
H444 H 0.41719 0.72289 0.48108 0.0
O445 O 0.35634 0.48185 0.40147 0.0
C446 C 0.29915 0.38847 0.45802 0.0
C447 C 0.41351 0.62368 0.46891 0.0
C448 C 0.33071 0.68296 0.45602 0.0
N449 N 0.32013 0.57258 0.44031 0.0
C450 C 0.37757 0.56968 0.45419 0.0
C451 C 0.29624 0.6281 0.44136 0.0
C452 C 0.38991 0.68071 0.46969 0.0
C453 C 0.11973 0.30958 0.39765 0.0
N454 N 0.1759 0.29633 0.40917 0.0
C455 C 0.06047 0.27933 0.40988 0.0
C456 C 0.05896 0.23523 0.43403 0.0
C457 C 0.11646 0.22195 0.44564 0.0
C458 C 0.17483 0.25321 0.43289 0.0
C459 C 0.26868 0.15093 0.36922 0.0
C460 C 0.34593 0.25447 0.39827 0.0
C461 C 0.24818 0.20934 0.373 0.0
N462 N 0.28664 0.26015 0.38747 0.0
C463 C 0.36807 0.19683 0.39491 0.0
C464 C 0.32907 0.14476 0.38028 0.0
C465 C 0.3762 0.4414 0.38387 0.0
C466 C 0.1977 0.57647 0.34102 0.0
C467 C 0.31569 0.59107 0.37063 0.0
C468 C 0.30973 0.627 0.34395 0.0
C469 C 0.25028 0.6195 0.32907 0.0
N470 N 0.26394 0.5489 0.3822 0.0
C471 C 0.20547 0.54138 0.36776 0.0
C472 C 0.11264 0.19762 1.01596 0.0
C473 C 0.13416 0.17778 0.04451 0.0
H474 H 0.1184 0.19334 0.96636 0.0
C475 C 0.17712 0.13452 0.04441 0.0
H476 H 0.07955 0.23075 1.01522 0.0
C477 C 0.19844 0.11198 0.01644 0.0
C478 C 0.17859 0.13347 0.98788 0.0
H479 H 0.19412 0.1177 0.06603 0.0
H480 H 0.23163 0.07894 0.01717 0.0
C481 C 0.13524 0.17636 0.98798 0.0
C482 C 0.78902 0.69303 0.28125 0.0
C483 C 0.81512 0.64518 0.29643 0.0
H484 H 0.78709 0.7491 0.2399 0.0
C485 C 0.86214 0.61809 0.28108 0.0
H486 H 0.7526 0.71463 0.2925 0.0
C487 C 0.88346 0.63939 0.2513 0.0
C488 C 0.85644 0.68647 0.23595 0.0
H489 H 0.88323 0.58133 0.29233 0.0
H490 H 0.92018 0.61825 0.24005 0.0
C491 C 0.80864 0.71263 0.25114 0.0
C492 C 0.3254 0.36663 0.54441 0.0
C493 C 0.36833 0.32333 0.5445 0.0
H494 H 0.27091 0.42225 0.51718 0.0
C495 C 0.38981 0.30349 0.51594 0.0
H496 H 0.30843 0.38346 0.56603 0.0
C497 C 0.36721 0.32477 0.48797 0.0
C498 C 0.3239 0.36769 0.48788 0.0
H499 H 0.42287 0.27033 0.5152 0.0
H500 H 0.38402 0.30778 0.46635 0.0
C501 C 0.30408 0.3892 0.51644 0.0
C502 C 0.71375 0.80784 0.78125 0.0
C503 C 0.68759 0.85563 0.79644 0.0
H504 H 0.71576 0.75183 0.73988 0.0
C505 C 0.64054 0.8827 0.78109 0.0
H506 H 0.75019 0.78626 0.79249 0.0
C507 C 0.61927 0.86142 0.7513 0.0
C508 C 0.64635 0.8144 0.73594 0.0
H509 H 0.61941 0.91942 0.79235 0.0
H510 H 0.58252 0.88253 0.74005 0.0
C511 C 0.69417 0.78826 0.75113 0.0
C512 C 0.2297 0.37588 0.26792 0.0
C513 C 0.20259 0.34712 0.29551 0.0
H514 H 0.22942 0.37393 0.21813 0.0
C515 C 0.14993 0.29531 0.29345 0.0
H516 H 0.27033 0.41576 0.26868 0.0
C517 C 0.12581 0.27194 0.26448 0.0
C518 C 0.15458 0.29904 0.2369 0.0
H519 H 0.12774 0.27225 0.31427 0.0
H520 H 0.08597 0.23128 0.26373 0.0
C521 C 0.20636 0.35174 0.23895 0.0
C522 C 0.68483 0.64531 0.54507 0.0
C523 C 0.64204 0.68877 0.54391 0.0
H524 H 0.74075 0.58834 0.51964 0.0
C525 C 0.62257 0.7073 0.51462 0.0
H526 H 0.70068 0.62945 0.56715 0.0
C527 C 0.64632 0.68421 0.48731 0.0
C528 C 0.6895 0.64114 0.48846 0.0
H529 H 0.58966 0.74044 0.51273 0.0
H530 H 0.63063 0.70022 0.46522 0.0
C531 C 0.70783 0.62147 0.51775 0.0
C532 C 0.29615 0.14943 0.73895 0.0
C533 C 0.34793 0.20213 0.7369 0.0
H534 H 0.23216 0.08542 0.76866 0.0
C535 C 0.37666 0.22926 0.76448 0.0
H536 H 0.27311 0.12722 0.71812 0.0
C537 C 0.35251 0.2059 0.79345 0.0
C538 C 0.29986 0.15408 0.7955 0.0
H539 H 0.4165 0.26992 0.76374 0.0
H540 H 0.37468 0.22898 0.81428 0.0
C541 C 0.27279 0.1253 0.76791 0.0
C542 C 0.81764 0.85545 0.04509 0.0
C543 C 0.86063 0.81219 0.04393 0.0
H544 H 0.76152 0.91222 0.01966 0.0
C545 C 0.88026 0.79383 1.01464 0.0
H546 H 0.80166 0.87117 0.06718 0.0
C547 C 0.85647 0.81688 0.98733 0.0
C548 C 0.81309 0.85975 0.98848 0.0
H549 H 0.91333 0.76085 1.01275 0.0
H550 H 0.8723 0.80101 0.96524 0.0
C551 C 0.7946 0.87925 0.01778 0.0
C552 C 0.98392 0.03043 0.16863 0.0
C553 C 0.04499 0.05675 0.15659 0.0
H554 H 0.9114 0.94578 0.17496 0.0
C555 C 0.08382 0.01551 0.14515 0.0
H556 H 0.95316 0.06151 0.17758 0.0
C557 C 0.05959 0.94952 0.14297 0.0
C558 C 0.9964 0.92345 0.15268 0.0
H559 H 0.13053 0.03462 0.13524 0.0
H560 H 0.08914 0.91973 0.13187 0.0
C561 C 0.96001 0.96419 0.16702 0.0
C562 C 0.07789 0.56474 0.44699 0.0
C563 C 0.08155 0.49962 0.45163 0.0
H564 H 0.01703 0.63432 0.44242 0.0
C565 C 0.02478 0.4554 0.45834 0.0
H566 H 0.12076 0.60025 0.44191 0.0
C567 C 0.96539 0.47504 0.45865 0.0
C568 C 0.96127 0.53943 0.45232 0.0
H569 H 0.02575 0.405 0.46211 0.0
H570 H 0.92236 0.43908 0.46276 0.0
C571 C 0.01841 0.58446 0.44741 0.0
C572 C 0.5185 0.47069 0.66867 0.0
C573 C 0.45749 0.44441 0.65656 0.0
H574 H 0.59104 0.55531 0.67506 0.0
C575 C 0.41876 0.48566 0.64503 0.0
H576 H 0.54919 0.43959 0.67768 0.0
C577 C 0.44304 0.55164 0.64286 0.0
C578 C 0.50619 0.57767 0.65265 0.0
H579 H 0.3721 0.46656 0.63506 0.0
H580 H 0.41357 0.58144 0.6317 0.0
C581 C 0.54247 0.53692 0.66706 0.0
C582 C 0.5369 0.02558 0.95864 0.0
C583 C 0.54096 0.96122 0.95222 0.0
H584 H 0.47664 0.09569 0.96219 0.0
C585 C 0.48379 0.91629 0.9472 0.0
H586 H 0.57995 0.06146 0.96284 0.0
C587 C 0.42436 0.93609 0.94679 0.0
C588 C 0.42077 0.00119 0.95153 0.0
H589 H 0.48513 0.86645 0.94213 0.0
H590 H 0.38147 0.90066 0.94163 0.0
C591 C 0.47756 0.04531 0.95834 0.0
C592 C 0.91716 0.48307 0.08506 0.0
C593 C 0.96216 0.54021 0.0801 0.0
H594 H 0.90141 0.38072 0.09059 0.0
C595 C 0.02653 0.53611 0.07374 0.0
H596 H 0.86731 0.48445 0.09008 0.0
C597 C 0.04619 0.47673 0.07404 0.0
C598 C 0.002 0.41995 0.08079 0.0
H599 H 0.06246 0.57914 0.06959 0.0
H600 H 0.09658 0.47576 0.07023 0.0
C601 C 0.93689 0.4236 0.08547 0.0
C602 C 0.47113 0.51804 0.36383 0.0
C603 C 0.44481 0.45691 0.3758 0.0
H604 H 0.55579 0.59057 0.35754 0.0
C605 C 0.48605 0.418 0.38717 0.0
H606 H 0.44005 0.54886 0.35493 0.0
C607 C 0.55204 0.44221 0.38935 0.0
C608 C 0.57811 0.50545 0.3797 0.0
H609 H 0.46694 0.37124 0.39702 0.0
H610 H 0.58183 0.41259 0.4004 0.0
C611 C 0.53737 0.54192 0.36543 0.0
C612 C 0.4566 0.02441 0.57403 0.0
C613 C 0.50073 0.08121 0.58083 0.0
H614 H 0.44044 0.92201 0.56956 0.0
C615 C 0.56583 0.07761 0.58556 0.0
H616 H 0.40622 0.02533 0.57019 0.0
C617 C 0.58562 0.01817 0.58516 0.0
C618 C 0.54069 0.961 0.58016 0.0
H619 H 0.60126 0.12051 0.59071 0.0
H620 H 0.63547 0.01684 0.59023 0.0
C621 C 0.47632 0.96506 0.57374 0.0
C622 C 0.95033 0.05887 0.88957 0.0
C623 C 0.9243 0.99572 0.87976 0.0
H624 H 0.0354 0.12981 0.89735 0.0
C625 C 0.96504 0.95946 0.86534 0.0
H626 H 0.92054 0.08832 0.90074 0.0
C627 C 0.03126 0.98344 0.86371 0.0
C628 C 0.05755 0.04445 0.87583 0.0
H629 H 0.94664 0.9109 0.85733 0.0
H630 H 0.06235 0.95276 0.85468 0.0
C631 C 0.0163 0.08317 0.88737 0.0
loop_
_geom_bond_atom_site_label_1
_geom_bond_atom_site_label_2
_geom_bond_distance
_geom_bond_site_symmetry_2
_ccdc_geom_bond_type
Co0 O2 2.143 . S
Co0 O8 2.074 . S
Co0 O11 2.093 . S
Co0 O24 2.097 . S
Co0 N41 2.151 . S
Co0 N49 2.214 . S
Co1 O2 2.160 . S
Co1 O7 2.058 . S
Co1 O17 2.057 . S
Co1 O32 2.037 . S
Co1 N36 2.145 1_455 S
Co1 N57 2.257 1_455 S
O2 Co0 2.143 . S
O2 Co1 2.160 . S
C3 O4 1.278 . S
C3 O11 1.224 . S
O4 C3 1.278 . S
C5 O6 1.245 . S
C5 O17 1.232 . S
O6 C5 1.245 . S
O7 Co1 2.058 . S
O7 C33 1.269 . S
O8 Co0 2.074 . S
O8 C33 1.257 . S
H9 C34 0.930 . S
H10 C40 0.930 . S
O11 Co0 2.093 . S
O11 C3 1.224 . S
H12 C44 0.929 . S
H13 C46 0.930 . S
H14 C47 0.930 . S
H15 C45 0.929 . S
H16 C48 0.928 . S
O17 Co1 2.057 . S
O17 C5 1.232 . S
H18 C37 0.918 1_455 S
H19 C38 0.929 . S
H20 C50 0.931 . S
H21 C42 0.929 . S
H22 C51 0.930 . S
H23 C43 0.931 . S
O24 Co0 2.097 . S
O24 C52 1.214 . S
H25 C53 0.929 . S
H26 C54 0.929 . S
H27 C55 0.930 . S
H28 C56 0.929 . S
H29 C58 0.930 1_455 S
H30 C35 0.930 . S
H31 C39 0.930 . S
O32 Co1 2.037 . S
O32 C52 1.234 . S
C33 O7 1.269 . S
C33 O8 1.257 . S
C34 H9 0.930 . S
C34 C37 1.388 . S
C34 C39 1.418 . S
C35 H30 0.930 . S
C35 C38 1.404 . S
C35 C39 1.353 . S
N36 Co1 2.145 1_655 S
N36 C37 1.397 . S
N36 C38 1.334 . S
C37 H18 0.918 1_655 S
C37 C34 1.388 . S
C37 N36 1.397 . S
C38 H19 0.929 . S
C38 C35 1.404 . S
C38 N36 1.334 . S
C39 H31 0.930 . S
C39 C34 1.418 . S
C39 C35 1.353 . S
C40 H10 0.930 . S
C40 N41 1.330 . S
C40 C42 1.446 . S
N41 Co0 2.151 . S
N41 C40 1.330 . S
N41 C45 1.418 . S
C42 H21 0.929 . S
C42 C40 1.446 . S
C42 C43 1.332 . S
C43 H23 0.931 . S
C43 C42 1.332 . S
C43 C44 1.267 . S
C44 H12 0.929 . S
C44 C43 1.267 . S
C44 C45 1.251 . S
C45 H15 0.929 . S
C45 N41 1.418 . S
C45 C44 1.251 . S
C46 H13 0.930 . S
C46 C48 1.406 . S
C46 C51 1.261 . S
C47 H14 0.930 . S
C47 N49 1.325 . S
C47 C50 1.357 . S
C48 H16 0.928 . S
C48 C46 1.406 . S
C48 N49 1.261 . S
N49 Co0 2.214 . S
N49 C47 1.325 . S
N49 C48 1.261 . S
C50 H20 0.931 . S
C50 C47 1.357 . S
C50 C51 1.312 . S
C51 H22 0.930 . S
C51 C46 1.261 . S
C51 C50 1.312 . S
C52 O24 1.214 . S
C52 O32 1.234 . S
C53 H25 0.929 . S
C53 C56 1.391 . S
C53 C58 1.391 . S
C54 H26 0.929 . S
C54 C55 1.390 . S
C54 N57 1.391 . S
C55 H27 0.930 . S
C55 C54 1.390 . S
C55 C56 1.392 . S
C56 H28 0.929 . S
C56 C53 1.391 . S
C56 C55 1.392 . S
N57 Co1 2.257 1_655 S
N57 C54 1.391 . S
N57 C58 1.388 . S
C58 H29 0.930 1_655 S
C58 C53 1.391 . S
C58 N57 1.388 . S
Co59 O61 2.143 . S
Co59 O67 2.074 . S
Co59 O70 2.093 . S
Co59 O83 2.097 . S
Co59 N100 2.151 . S
Co59 N108 2.214 . S
Co60 O61 2.160 . S
Co60 O66 2.058 . S
Co60 O76 2.057 . S
Co60 O91 2.037 . S
Co60 N95 2.145 . S
Co60 N116 2.257 . S
O61 Co59 2.143 . S
O61 Co60 2.160 . S
C62 O63 1.278 . S
C62 O70 1.224 . S
O63 C62 1.278 . S
C64 O65 1.245 . S
C64 O76 1.232 . S
O65 C64 1.245 . S
O66 Co60 2.058 . S
O66 C92 1.269 . S
O67 Co59 2.074 . S
O67 C92 1.257 . S
H68 C93 0.930 . S
H69 C99 0.930 . S
O70 Co59 2.093 . S
O70 C62 1.224 . S
H71 C103 0.929 . S
H72 C105 0.930 . S
H73 C106 0.930 . S
H74 C104 0.929 . S
H75 C107 0.928 . S
O76 Co60 2.057 . S
O76 C64 1.232 . S
H77 C96 0.929 . S
H78 C97 0.929 . S
H79 C109 0.931 . S
H80 C101 0.929 . S
H81 C110 0.930 . S
H82 C102 0.931 . S
O83 Co59 2.097 . S
O83 C111 1.214 . S
H84 C112 0.929 . S
H85 C113 0.929 . S
H86 C114 0.930 . S
H87 C115 0.929 . S
H88 C117 0.930 . S
H89 C94 0.930 . S
H90 C98 0.930 . S
O91 Co60 2.037 . S
O91 C111 1.234 . S
C92 O66 1.269 . S
C92 O67 1.257 . S
C93 H68 0.930 . S
C93 C96 1.388 . S
C93 C98 1.418 . S
C94 H89 0.930 . S
C94 C97 1.404 . S
C94 C98 1.353 . S
N95 Co60 2.145 . S
N95 C96 1.397 . S
N95 C97 1.334 . S
C96 H77 0.929 . S
C96 C93 1.388 . S
C96 N95 1.397 . S
C97 H78 0.929 . S
C97 C94 1.404 . S
C97 N95 1.334 . S
C98 H90 0.930 . S
C98 C93 1.418 . S
C98 C94 1.353 . S
C99 H69 0.930 . S
C99 N100 1.330 . S
C99 C101 1.446 . S
N100 Co59 2.151 . S
N100 C99 1.330 . S
N100 C104 1.418 . S
C101 H80 0.929 . S
C101 C99 1.446 . S
C101 C102 1.332 . S
C102 H82 0.931 . S
C102 C101 1.332 . S
C102 C103 1.267 . S
C103 H71 0.929 . S
C103 C102 1.267 . S
C103 C104 1.251 . S
C104 H74 0.929 . S
C104 N100 1.418 . S
C104 C103 1.251 . S
C105 H72 0.930 . S
C105 C107 1.406 . S
C105 C110 1.261 . S
C106 H73 0.930 . S
C106 N108 1.325 . S
C106 C109 1.357 . S
C107 H75 0.928 . S
C107 C105 1.406 . S
C107 N108 1.261 . S
N108 Co59 2.214 . S
N108 C106 1.325 . S
N108 C107 1.261 . S
C109 H79 0.931 . S
C109 C106 1.357 . S
C109 C110 1.312 . S
C110 H81 0.930 . S
C110 C105 1.261 . S
C110 C109 1.312 . S
C111 O83 1.214 . S
C111 O91 1.234 . S
C112 H84 0.929 . S
C112 C115 1.391 . S
C112 C117 1.391 . S
C113 H85 0.929 . S
C113 C114 1.390 . S
C113 N116 1.391 . S
C114 H86 0.930 . S
C114 C113 1.390 . S
C114 C115 1.392 . S
C115 H87 0.929 . S
C115 C112 1.391 . S
C115 C114 1.392 . S
N116 Co60 2.257 . S
N116 C113 1.391 . S
N116 C117 1.388 . S
C117 H88 0.930 . S
C117 C112 1.391 . S
C117 N116 1.388 . S
Co118 O120 2.143 . S
Co118 O126 2.074 . S
Co118 O129 2.093 . S
Co118 O142 2.097 . S
Co118 N159 2.151 . S
Co118 N167 2.214 . S
Co119 O120 2.160 . S
Co119 O125 2.058 . S
Co119 O135 2.057 . S
Co119 O150 2.037 . S
Co119 N154 2.145 . S
Co119 N175 2.257 . S
O120 Co118 2.143 . S
O120 Co119 2.160 . S
C121 O122 1.278 . S
C121 O129 1.224 . S
O122 C121 1.278 . S
C123 O124 1.245 . S
C123 O135 1.232 . S
O124 C123 1.245 . S
O125 Co119 2.058 . S
O125 C151 1.269 . S
O126 Co118 2.074 . S
O126 C151 1.257 . S
H127 C152 0.930 . S
H128 C158 0.930 . S
O129 Co118 2.093 . S
O129 C121 1.224 . S
H130 C162 0.929 . S
H131 C164 0.930 . S
H132 C165 0.930 . S
H133 C163 0.929 . S
H134 C166 0.928 . S
O135 Co119 2.057 . S
O135 C123 1.232 . S
H136 C155 0.929 . S
H137 C156 0.929 . S
H138 C168 0.931 . S
H139 C160 0.929 . S
H140 C169 0.930 . S
H141 C161 0.931 . S
O142 Co118 2.097 . S
O142 C170 1.214 . S
H143 C171 0.929 . S
H144 C172 0.929 . S
H145 C173 0.930 . S
H146 C174 0.929 . S
H147 C176 0.930 . S
H148 C153 0.930 . S
H149 C157 0.930 . S
O150 Co119 2.037 . S
O150 C170 1.234 . S
C151 O125 1.269 . S
C151 O126 1.257 . S
C152 H127 0.930 . S
C152 C155 1.388 . S
C152 C157 1.418 . S
C153 H148 0.930 . S
C153 C156 1.404 . S
C153 C157 1.353 . S
N154 Co119 2.145 . S
N154 C155 1.397 . S
N154 C156 1.334 . S
C155 H136 0.929 . S
C155 C152 1.388 . S
C155 N154 1.397 . S
C156 H137 0.929 . S
C156 C153 1.404 . S
C156 N154 1.334 . S
C157 H149 0.930 . S
C157 C152 1.418 . S
C157 C153 1.353 . S
C158 H128 0.930 . S
C158 N159 1.330 . S
C158 C160 1.446 . S
N159 Co118 2.151 . S
N159 C158 1.330 . S
N159 C163 1.418 . S
C160 H139 0.929 . S
C160 C158 1.446 . S
C160 C161 1.332 . S
C161 H141 0.931 . S
C161 C160 1.332 . S
C161 C162 1.267 . S
C162 H130 0.929 . S
C162 C161 1.267 . S
C162 C163 1.251 . S
C163 H133 0.929 . S
C163 N159 1.418 . S
C163 C162 1.251 . S
C164 H131 0.930 . S
C164 C166 1.406 . S
C164 C169 1.261 . S
C165 H132 0.930 . S
C165 N167 1.325 . S
C165 C168 1.357 . S
C166 H134 0.928 . S
C166 C164 1.406 . S
C166 N167 1.261 . S
N167 Co118 2.214 . S
N167 C165 1.325 . S
N167 C166 1.261 . S
C168 H138 0.931 . S
C168 C165 1.357 . S
C168 C169 1.312 . S
C169 H140 0.930 . S
C169 C164 1.261 . S
C169 C168 1.312 . S
C170 O142 1.214 . S
C170 O150 1.234 . S
C171 H143 0.929 . S
C171 C174 1.391 . S
C171 C176 1.391 . S
C172 H144 0.929 . S
C172 C173 1.390 . S
C172 N175 1.391 . S
C173 H145 0.930 . S
C173 C172 1.390 . S
C173 C174 1.392 . S
C174 H146 0.929 . S
C174 C171 1.391 . S
C174 C173 1.392 . S
N175 Co119 2.257 . S
N175 C172 1.391 . S
N175 C176 1.388 . S
C176 H147 0.930 . S
C176 C171 1.391 . S
C176 N175 1.388 . S
Co177 O179 2.143 . S
Co177 O185 2.074 . S
Co177 O188 2.093 . S
Co177 O201 2.097 . S
Co177 N218 2.151 . S
Co177 N226 2.214 . S
Co178 O179 2.160 . S
Co178 O184 2.058 . S
Co178 O194 2.057 . S
Co178 O209 2.037 . S
Co178 N213 2.145 1_565 S
Co178 N234 2.257 1_565 S
O179 Co177 2.143 . S
O179 Co178 2.160 . S
C180 O181 1.278 . S
C180 O188 1.224 . S
O181 C180 1.278 . S
C182 O183 1.245 . S
C182 O194 1.232 . S
O183 C182 1.245 . S
O184 Co178 2.058 . S
O184 C210 1.269 . S
O185 Co177 2.074 . S
O185 C210 1.257 . S
H186 C211 0.930 . S
H187 C217 0.930 . S
O188 Co177 2.093 . S
O188 C180 1.224 . S
H189 C221 0.929 . S
H190 C223 0.930 . S
H191 C224 0.930 . S
H192 C222 0.929 . S
H193 C225 0.928 . S
O194 Co178 2.057 . S
O194 C182 1.232 . S
H195 C214 0.918 1_565 S
H196 C215 0.929 . S
H197 C227 0.931 . S
H198 C219 0.929 . S
H199 C228 0.930 . S
H200 C220 0.931 . S
O201 Co177 2.097 . S
O201 C229 1.214 . S
H202 C230 0.929 . S
H203 C231 0.929 . S
H204 C232 0.930 . S
H205 C233 0.929 . S
H206 C235 0.930 1_565 S
H207 C212 0.930 . S
H208 C216 0.930 . S
O209 Co178 2.037 . S
O209 C229 1.234 . S
C210 O184 1.269 . S
C210 O185 1.257 . S
C211 H186 0.930 . S
C211 C214 1.388 . S
C211 C216 1.418 . S
C212 H207 0.930 . S
C212 C215 1.404 . S
C212 C216 1.353 . S
N213 Co178 2.145 1_545 S
N213 C214 1.397 . S
N213 C215 1.334 . S
C214 H195 0.918 1_545 S
C214 C211 1.388 . S
C214 N213 1.397 . S
C215 H196 0.929 . S
C215 C212 1.404 . S
C215 N213 1.334 . S
C216 H208 0.930 . S
C216 C211 1.418 . S
C216 C212 1.353 . S
C217 H187 0.930 . S
C217 N218 1.330 . S
C217 C219 1.446 . S
N218 Co177 2.151 . S
N218 C217 1.330 . S
N218 C222 1.418 . S
C219 H198 0.929 . S
C219 C217 1.446 . S
C219 C220 1.332 . S
C220 H200 0.931 . S
C220 C219 1.332 . S
C220 C221 1.267 . S
C221 H189 0.929 . S
C221 C220 1.267 . S
C221 C222 1.251 . S
C222 H192 0.929 . S
C222 N218 1.418 . S
C222 C221 1.251 . S
C223 H190 0.930 . S
C223 C225 1.406 . S
C223 C228 1.261 . S
C224 H191 0.930 . S
C224 N226 1.325 . S
C224 C227 1.357 . S
C225 H193 0.928 . S
C225 C223 1.406 . S
C225 N226 1.261 . S
N226 Co177 2.214 . S
N226 C224 1.325 . S
N226 C225 1.261 . S
C227 H197 0.931 . S
C227 C224 1.357 . S
C227 C228 1.312 . S
C228 H199 0.930 . S
C228 C223 1.261 . S
C228 C227 1.312 . S
C229 O201 1.214 . S
C229 O209 1.234 . S
C230 H202 0.929 . S
C230 C233 1.391 . S
C230 C235 1.391 . S
C231 H203 0.929 . S
C231 C232 1.390 . S
C231 N234 1.391 . S
C232 H204 0.930 . S
C232 C231 1.390 . S
C232 C233 1.392 . S
C233 H205 0.929 . S
C233 C230 1.391 . S
C233 C232 1.392 . S
N234 Co178 2.257 1_545 S
N234 C231 1.391 . S
N234 C235 1.388 . S
C235 H206 0.930 1_545 S
C235 C230 1.391 . S
C235 N234 1.388 . S
Co236 O238 2.143 . S
Co236 O244 2.074 . S
Co236 O247 2.093 . S
Co236 O260 2.097 . S
Co236 N277 2.151 . S
Co236 N285 2.214 . S
Co237 O238 2.160 . S
Co237 O243 2.058 . S
Co237 O253 2.057 . S
Co237 O268 2.037 . S
Co237 N272 2.145 . S
Co237 N293 2.257 . S
O238 Co236 2.143 . S
O238 Co237 2.160 . S
C239 O240 1.278 . S
C239 O247 1.224 . S
O240 C239 1.278 . S
C241 O242 1.245 . S
C241 O253 1.232 . S
O242 C241 1.245 . S
O243 Co237 2.058 . S
O243 C269 1.269 . S
O244 Co236 2.074 . S
O244 C269 1.257 . S
H245 C270 0.930 . S
H246 C276 0.930 . S
O247 Co236 2.093 . S
O247 C239 1.224 . S
H248 C280 0.929 . S
H249 C282 0.930 . S
H250 C283 0.930 . S
H251 C281 0.929 . S
H252 C284 0.928 . S
O253 Co237 2.057 . S
O253 C241 1.232 . S
H254 C273 0.929 . S
H255 C274 0.929 . S
H256 C286 0.931 . S
H257 C278 0.929 . S
H258 C287 0.930 . S
H259 C279 0.931 . S
O260 Co236 2.097 . S
O260 C288 1.214 . S
H261 C289 0.929 . S
H262 C290 0.929 . S
H263 C291 0.930 . S
H264 C292 0.929 . S
H265 C294 0.930 . S
H266 C271 0.930 . S
H267 C275 0.930 . S
O268 Co237 2.037 . S
O268 C288 1.234 . S
C269 O243 1.269 . S
C269 O244 1.257 . S
C270 H245 0.930 . S
C270 C273 1.388 . S
C270 C275 1.418 . S
C271 H266 0.930 . S
C271 C274 1.404 . S
C271 C275 1.353 . S
N272 Co237 2.145 . S
N272 C273 1.397 . S
N272 C274 1.334 . S
C273 H254 0.929 . S
C273 C270 1.388 . S
C273 N272 1.397 . S
C274 H255 0.929 . S
C274 C271 1.404 . S
C274 N272 1.334 . S
C275 H267 0.930 . S
C275 C270 1.418 . S
C275 C271 1.353 . S
C276 H246 0.930 . S
C276 N277 1.330 . S
C276 C278 1.446 . S
N277 Co236 2.151 . S
N277 C276 1.330 . S
N277 C281 1.418 . S
C278 H257 0.929 . S
C278 C276 1.446 . S
C278 C279 1.332 . S
C279 H259 0.931 . S
C279 C278 1.332 . S
C279 C280 1.267 . S
C280 H248 0.929 . S
C280 C279 1.267 . S
C280 C281 1.251 . S
C281 H251 0.929 . S
C281 N277 1.418 . S
C281 C280 1.251 . S
C282 H249 0.930 . S
C282 C284 1.406 . S
C282 C287 1.261 . S
C283 H250 0.930 . S
C283 N285 1.325 . S
C283 C286 1.357 . S
C284 H252 0.928 . S
C284 C282 1.406 . S
C284 N285 1.261 . S
N285 Co236 2.214 . S
N285 C283 1.325 . S
N285 C284 1.261 . S
C286 H256 0.931 . S
C286 C283 1.357 . S
C286 C287 1.312 . S
C287 H258 0.930 . S
C287 C282 1.261 . S
C287 C286 1.312 . S
C288 O260 1.214 . S
C288 O268 1.234 . S
C289 H261 0.929 . S
C289 C292 1.391 . S
C289 C294 1.391 . S
C290 H262 0.929 . S
C290 C291 1.390 . S
C290 N293 1.391 . S
C291 H263 0.930 . S
C291 C290 1.390 . S
C291 C292 1.392 . S
C292 H264 0.929 . S
C292 C289 1.391 . S
C292 C291 1.392 . S
N293 Co237 2.257 . S
N293 C290 1.391 . S
N293 C294 1.388 . S
C294 H265 0.930 . S
C294 C289 1.391 . S
C294 N293 1.388 . S
Co295 O297 2.143 . S
Co295 O303 2.074 . S
Co295 O306 2.093 . S
Co295 O319 2.097 . S
Co295 N336 2.151 . S
Co295 N344 2.214 . S
Co296 O297 2.160 . S
Co296 O302 2.058 . S
Co296 O312 2.057 . S
Co296 O327 2.037 . S
Co296 N331 2.145 1_545 S
Co296 N352 2.257 1_545 S
O297 Co295 2.143 . S
O297 Co296 2.160 . S
C298 O299 1.278 . S
C298 O306 1.224 . S
O299 C298 1.278 . S
C300 O301 1.245 . S
C300 O312 1.232 . S
O301 C300 1.245 . S
O302 Co296 2.058 . S
O302 C328 1.269 . S
O303 Co295 2.074 . S
O303 C328 1.257 . S
H304 C329 0.930 . S
H305 C335 0.930 . S
O306 Co295 2.093 . S
O306 C298 1.224 . S
H307 C339 0.929 . S
H308 C341 0.930 . S
H309 C342 0.930 . S
H310 C340 0.929 . S
H311 C343 0.928 . S
O312 Co296 2.057 . S
O312 C300 1.232 . S
H313 C332 0.918 1_545 S
H314 C333 0.929 . S
H315 C345 0.931 . S
H316 C337 0.929 . S
H317 C346 0.930 . S
H318 C338 0.931 . S
O319 Co295 2.097 . S
O319 C347 1.214 . S
H320 C348 0.929 . S
H321 C349 0.929 . S
H322 C350 0.930 . S
H323 C351 0.929 . S
H324 C353 0.930 1_545 S
H325 C330 0.930 . S
H326 C334 0.930 . S
O327 Co296 2.037 . S
O327 C347 1.234 . S
C328 O302 1.269 . S
C328 O303 1.257 . S
C329 H304 0.930 . S
C329 C332 1.388 . S
C329 C334 1.418 . S
C330 H325 0.930 . S
C330 C333 1.404 . S
C330 C334 1.353 . S
N331 Co296 2.145 1_565 S
N331 C332 1.397 . S
N331 C333 1.334 . S
C332 H313 0.918 1_565 S
C332 C329 1.388 . S
C332 N331 1.397 . S
C333 H314 0.929 . S
C333 C330 1.404 . S
C333 N331 1.334 . S
C334 H326 0.930 . S
C334 C329 1.418 . S
C334 C330 1.353 . S
C335 H305 0.930 . S
C335 N336 1.330 . S
C335 C337 1.446 . S
N336 Co295 2.151 . S
N336 C335 1.330 . S
N336 C340 1.418 . S
C337 H316 0.929 . S
C337 C335 1.446 . S
C337 C338 1.332 . S
C338 H318 0.931 . S
C338 C337 1.332 . S
C338 C339 1.267 . S
C339 H307 0.929 . S
C339 C338 1.267 . S
C339 C340 1.251 . S
C340 H310 0.929 . S
C340 N336 1.418 . S
C340 C339 1.251 . S
C341 H308 0.930 . S
C341 C343 1.406 . S
C341 C346 1.261 . S
C342 H309 0.930 . S
C342 N344 1.325 . S
C342 C345 1.357 . S
C343 H311 0.928 . S
C343 C341 1.406 . S
C343 N344 1.261 . S
N344 Co295 2.214 . S
N344 C342 1.325 . S
N344 C343 1.261 . S
C345 H315 0.931 . S
C345 C342 1.357 . S
C345 C346 1.312 . S
C346 H317 0.930 . S
C346 C341 1.261 . S
C346 C345 1.312 . S
C347 O319 1.214 . S
C347 O327 1.234 . S
C348 H320 0.929 . S
C348 C351 1.391 . S
C348 C353 1.391 . S
C349 H321 0.929 . S
C349 C350 1.390 . S
C349 N352 1.391 . S
C350 H322 0.930 . S
C350 C349 1.390 . S
C350 C351 1.392 . S
C351 H323 0.929 . S
C351 C348 1.391 . S
C351 C350 1.392 . S
N352 Co296 2.257 1_565 S
N352 C349 1.391 . S
N352 C353 1.388 . S
C353 H324 0.930 1_565 S
C353 C348 1.391 . S
C353 N352 1.388 . S
Co354 O356 2.143 . S
Co354 O362 2.074 . S
Co354 O365 2.093 . S
Co354 O378 2.097 . S
Co354 N395 2.151 . S
Co354 N403 2.214 . S
Co355 O356 2.160 . S
Co355 O361 2.058 . S
Co355 O371 2.057 . S
Co355 O386 2.037 . S
Co355 N390 2.145 1_655 S
Co355 N411 2.257 1_655 S
O356 Co354 2.143 . S
O356 Co355 2.160 . S
C357 O358 1.278 . S
C357 O365 1.224 . S
O358 C357 1.278 . S
C359 O360 1.245 . S
C359 O371 1.232 . S
O360 C359 1.245 . S
O361 Co355 2.058 . S
O361 C387 1.269 . S
O362 Co354 2.074 . S
O362 C387 1.257 . S
H363 C388 0.930 . S
H364 C394 0.930 . S
O365 Co354 2.093 . S
O365 C357 1.224 . S
H366 C398 0.929 . S
H367 C400 0.930 . S
H368 C401 0.930 . S
H369 C399 0.929 . S
H370 C402 0.928 . S
O371 Co355 2.057 . S
O371 C359 1.232 . S
H372 C391 0.918 1_655 S
H373 C392 0.929 . S
H374 C404 0.931 . S
H375 C396 0.929 . S
H376 C405 0.930 . S
H377 C397 0.931 . S
O378 Co354 2.097 . S
O378 C406 1.214 . S
H379 C407 0.929 . S
H380 C408 0.929 . S
H381 C409 0.930 . S
H382 C410 0.929 . S
H383 C412 0.930 1_655 S
H384 C389 0.930 . S
H385 C393 0.930 . S
O386 Co355 2.037 . S
O386 C406 1.234 . S
C387 O361 1.269 . S
C387 O362 1.257 . S
C388 H363 0.930 . S
C388 C391 1.388 . S
C388 C393 1.418 . S
C389 H384 0.930 . S
C389 C392 1.404 . S
C389 C393 1.353 . S
N390 Co355 2.145 1_455 S
N390 C391 1.397 . S
N390 C392 1.334 . S
C391 H372 0.918 1_455 S
C391 C388 1.388 . S
C391 N390 1.397 . S
C392 H373 0.929 . S
C392 C389 1.404 . S
C392 N390 1.334 . S
C393 H385 0.930 . S
C393 C388 1.418 . S
C393 C389 1.353 . S
C394 H364 0.930 . S
C394 N395 1.330 . S
C394 C396 1.446 . S
N395 Co354 2.151 . S
N395 C394 1.330 . S
N395 C399 1.418 . S
C396 H375 0.929 . S
C396 C394 1.446 . S
C396 C397 1.332 . S
C397 H377 0.931 . S
C397 C396 1.332 . S
C397 C398 1.267 . S
C398 H366 0.929 . S
C398 C397 1.267 . S
C398 C399 1.251 . S
C399 H369 0.929 . S
C399 N395 1.418 . S
C399 C398 1.251 . S
C400 H367 0.930 . S
C400 C402 1.406 . S
C400 C405 1.261 . S
C401 H368 0.930 . S
C401 N403 1.325 . S
C401 C404 1.357 . S
C402 H370 0.928 . S
C402 C400 1.406 . S
C402 N403 1.261 . S
N403 Co354 2.214 . S
N403 C401 1.325 . S
N403 C402 1.261 . S
C404 H374 0.931 . S
C404 C401 1.357 . S
C404 C405 1.312 . S
C405 H376 0.930 . S
C405 C400 1.261 . S
C405 C404 1.312 . S
C406 O378 1.214 . S
C406 O386 1.234 . S
C407 H379 0.929 . S
C407 C410 1.391 . S
C407 C412 1.391 . S
C408 H380 0.929 . S
C408 C409 1.390 . S
C408 N411 1.391 . S
C409 H381 0.930 . S
C409 C408 1.390 . S
C409 C410 1.392 . S
C410 H382 0.929 . S
C410 C407 1.391 . S
C410 C409 1.392 . S
N411 Co355 2.257 1_455 S
N411 C408 1.391 . S
N411 C412 1.388 . S
C412 H383 0.930 1_455 S
C412 C407 1.391 . S
C412 N411 1.388 . S
Co413 O415 2.143 . S
Co413 O421 2.074 . S
Co413 O424 2.093 . S
Co413 O437 2.097 . S
Co413 N454 2.151 . S
Co413 N462 2.214 . S
Co414 O415 2.160 . S
Co414 O420 2.058 . S
Co414 O430 2.057 . S
Co414 O445 2.037 . S
Co414 N449 2.145 . S
Co414 N470 2.257 . S
O415 Co413 2.143 . S
O415 Co414 2.160 . S
C416 O417 1.278 . S
C416 O424 1.224 . S
O417 C416 1.278 . S
C418 O419 1.245 . S
C418 O430 1.232 . S
O419 C418 1.245 . S
O420 Co414 2.058 . S
O420 C446 1.269 . S
O421 Co413 2.074 . S
O421 C446 1.257 . S
H422 C447 0.930 . S
H423 C453 0.930 . S
O424 Co413 2.093 . S
O424 C416 1.224 . S
H425 C457 0.929 . S
H426 C459 0.930 . S
H427 C460 0.930 . S
H428 C458 0.929 . S
H429 C461 0.928 . S
O430 Co414 2.057 . S
O430 C418 1.232 . S
H431 C450 0.929 . S
H432 C451 0.929 . S
H433 C463 0.931 . S
H434 C455 0.929 . S
H435 C464 0.930 . S
H436 C456 0.931 . S
O437 Co413 2.097 . S
O437 C465 1.214 . S
H438 C466 0.929 . S
H439 C467 0.929 . S
H440 C468 0.930 . S
H441 C469 0.929 . S
H442 C471 0.930 . S
H443 C448 0.930 . S
H444 C452 0.930 . S
O445 Co414 2.037 . S
O445 C465 1.234 . S
C446 O420 1.269 . S
C446 O421 1.257 . S
C447 H422 0.930 . S
C447 C450 1.388 . S
C447 C452 1.418 . S
C448 H443 0.930 . S
C448 C451 1.404 . S
C448 C452 1.353 . S
N449 Co414 2.145 . S
N449 C450 1.397 . S
N449 C451 1.334 . S
C450 H431 0.929 . S
C450 C447 1.388 . S
C450 N449 1.397 . S
C451 H432 0.929 . S
C451 C448 1.404 . S
C451 N449 1.334 . S
C452 H444 0.930 . S
C452 C447 1.418 . S
C452 C448 1.353 . S
C453 H423 0.930 . S
C453 N454 1.330 . S
C453 C455 1.446 . S
N454 Co413 2.151 . S
N454 C453 1.330 . S
N454 C458 1.418 . S
C455 H434 0.929 . S
C455 C453 1.446 . S
C455 C456 1.332 . S
C456 H436 0.931 . S
C456 C455 1.332 . S
C456 C457 1.267 . S
C457 H425 0.929 . S
C457 C456 1.267 . S
C457 C458 1.251 . S
C458 H428 0.929 . S
C458 N454 1.418 . S
C458 C457 1.251 . S
C459 H426 0.930 . S
C459 C461 1.406 . S
C459 C464 1.261 . S
C460 H427 0.930 . S
C460 N462 1.325 . S
C460 C463 1.357 . S
C461 H429 0.928 . S
C461 C459 1.406 . S
C461 N462 1.261 . S
N462 Co413 2.214 . S
N462 C460 1.325 . S
N462 C461 1.261 . S
C463 H433 0.931 . S
C463 C460 1.357 . S
C463 C464 1.312 . S
C464 H435 0.930 . S
C464 C459 1.261 . S
C464 C463 1.312 . S
C465 O437 1.214 . S
C465 O445 1.234 . S
C466 H438 0.929 . S
C466 C469 1.391 . S
C466 C471 1.391 . S
C467 H439 0.929 . S
C467 C468 1.390 . S
C467 N470 1.391 . S
C468 H440 0.930 . S
C468 C467 1.390 . S
C468 C469 1.392 . S
C469 H441 0.929 . S
C469 C466 1.391 . S
C469 C468 1.392 . S
N470 Co414 2.257 . S
N470 C467 1.391 . S
N470 C471 1.388 . S
C471 H442 0.930 . S
C471 C466 1.391 . S
C471 N470 1.388 . S
C472 C473 1.387 . S
C472 H476 0.950 . S
C472 C481 1.390 1_554 S
C473 C472 1.387 . S
C473 C475 1.387 . S
H474 C481 0.950 . S
C475 C473 1.387 . S
C475 C477 1.390 1_554 S
C475 H479 0.950 . S
H476 C472 0.950 . S
C477 C475 1.390 1_556 S
C477 C478 1.387 . S
C477 H480 0.950 . S
C478 C477 1.387 . S
C478 C481 1.387 . S
H479 C475 0.950 . S
H480 C477 0.950 . S
C481 C472 1.390 1_556 S
C481 H474 0.950 . S
C481 C478 1.387 . S
C482 C483 1.387 . S
C482 H486 0.950 . S
C482 C491 1.390 . S
C483 C482 1.387 . S
C483 C485 1.387 . S
H484 C491 0.950 . S
C485 C483 1.387 . S
C485 C487 1.390 . S
C485 H489 0.950 . S
H486 C482 0.950 . S
C487 C485 1.390 . S
C487 C488 1.387 . S
C487 H490 0.950 . S
C488 C487 1.387 . S
C488 C491 1.387 . S
H489 C485 0.950 . S
H490 C487 0.950 . S
C491 C482 1.390 . S
C491 H484 0.950 . S
C491 C488 1.387 . S
C492 C493 1.387 . S
C492 H496 0.950 . S
C492 C501 1.390 . S
C493 C492 1.387 . S
C493 C495 1.387 . S
H494 C501 0.950 . S
C495 C493 1.387 . S
C495 C497 1.390 . S
C495 H499 0.950 . S
H496 C492 0.950 . S
C497 C495 1.390 . S
C497 C498 1.387 . S
C497 H500 0.950 . S
C498 C497 1.387 . S
C498 C501 1.387 . S
H499 C495 0.950 . S
H500 C497 0.950 . S
C501 C492 1.390 . S
C501 H494 0.950 . S
C501 C498 1.387 . S
C502 C503 1.387 . S
C502 H506 0.950 . S
C502 C511 1.390 . S
C503 C502 1.387 . S
C503 C505 1.387 . S
H504 C511 0.950 . S
C505 C503 1.387 . S
C505 C507 1.390 . S
C505 H509 0.950 . S
H506 C502 0.950 . S
C507 C505 1.390 . S
C507 C508 1.387 . S
C507 H510 0.950 . S
C508 C507 1.387 . S
C508 C511 1.387 . S
H509 C505 0.950 . S
H510 C507 0.950 . S
C511 C502 1.390 . S
C511 H504 0.950 . S
C511 C508 1.387 . S
C512 C513 1.387 . S
C512 H516 0.950 . S
C512 C521 1.390 . S
C513 C512 1.387 . S
C513 C515 1.387 . S
H514 C521 0.950 . S
C515 C513 1.387 . S
C515 C517 1.390 . S
C515 H519 0.950 . S
H516 C512 0.950 . S
C517 C515 1.390 . S
C517 C518 1.387 . S
C517 H520 0.950 . S
C518 C517 1.387 . S
C518 C521 1.387 . S
H519 C515 0.950 . S
H520 C517 0.950 . S
C521 C512 1.390 . S
C521 H514 0.950 . S
C521 C518 1.387 . S
C522 C523 1.387 . S
C522 H526 0.950 . S
C522 C531 1.390 . S
C523 C522 1.387 . S
C523 C525 1.387 . S
H524 C531 0.950 . S
C525 C523 1.387 . S
C525 C527 1.390 . S
C525 H529 0.950 . S
H526 C522 0.950 . S
C527 C525 1.390 . S
C527 C528 1.387 . S
C527 H530 0.950 . S
C528 C527 1.387 . S
C528 C531 1.387 . S
H529 C525 0.950 . S
H530 C527 0.950 . S
C531 C522 1.390 . S
C531 H524 0.950 . S
C531 C528 1.387 . S
C532 C533 1.387 . S
C532 H536 0.950 . S
C532 C541 1.390 . S
C533 C532 1.387 . S
C533 C535 1.387 . S
H534 C541 0.950 . S
C535 C533 1.387 . S
C535 C537 1.390 . S
C535 H539 0.950 . S
H536 C532 0.950 . S
C537 C535 1.390 . S
C537 C538 1.387 . S
C537 H540 0.950 . S
C538 C537 1.387 . S
C538 C541 1.387 . S
H539 C535 0.950 . S
H540 C537 0.950 . S
C541 C532 1.390 . S
C541 H534 0.950 . S
C541 C538 1.387 . S
C542 C543 1.387 . S
C542 H546 0.950 . S
C542 C551 1.390 1_554 S
C543 C542 1.387 . S
C543 C545 1.387 . S
H544 C551 0.950 . S
C545 C543 1.387 . S
C545 C547 1.390 1_554 S
C545 H549 0.950 . S
H546 C542 0.950 . S
C547 C545 1.390 1_556 S
C547 C548 1.387 . S
C547 H550 0.950 . S
C548 C547 1.387 . S
C548 C551 1.387 . S
H549 C545 0.950 . S
H550 C547 0.950 . S
C551 C542 1.390 1_556 S
C551 H544 0.950 . S
C551 C548 1.387 . S
C552 C553 1.387 . S
C552 H556 0.950 . S
C552 C561 1.390 1_445 S
C553 C552 1.387 . S
C553 C555 1.387 . S
H554 C561 0.950 . S
C555 C553 1.387 . S
C555 C557 1.390 1_445 S
C555 H559 0.950 . S
H556 C552 0.950 . S
C557 C555 1.390 1_665 S
C557 C558 1.387 . S
C557 H560 0.950 . S
C558 C557 1.387 . S
C558 C561 1.387 . S
H559 C555 0.950 . S
H560 C557 0.950 . S
C561 C552 1.390 1_665 S
C561 H554 0.950 . S
C561 C558 1.387 . S
C562 C563 1.387 . S
C562 H566 0.950 . S
C562 C571 1.390 1_455 S
C563 C562 1.387 . S
C563 C565 1.387 . S
H564 C571 0.950 . S
C565 C563 1.387 . S
C565 C567 1.390 1_455 S
C565 H569 0.950 . S
H566 C562 0.950 . S
C567 C565 1.390 1_655 S
C567 C568 1.387 . S
C567 H570 0.950 . S
C568 C567 1.387 . S
C568 C571 1.387 . S
H569 C565 0.950 . S
H570 C567 0.950 . S
C571 C562 1.390 1_655 S
C571 H564 0.950 . S
C571 C568 1.387 . S
C572 C573 1.387 . S
C572 H576 0.950 . S
C572 C581 1.390 . S
C573 C572 1.387 . S
C573 C575 1.387 . S
H574 C581 0.950 . S
C575 C573 1.387 . S
C575 C577 1.390 . S
C575 H579 0.950 . S
H576 C572 0.950 . S
C577 C575 1.390 . S
C577 C578 1.387 . S
C577 H580 0.950 . S
C578 C577 1.387 . S
C578 C581 1.387 . S
H579 C575 0.950 . S
H580 C577 0.950 . S
C581 C572 1.390 . S
C581 H574 0.950 . S
C581 C578 1.387 . S
C582 C583 1.387 . S
C582 H586 0.950 . S
C582 C591 1.390 1_565 S
C583 C582 1.387 . S
C583 C585 1.387 . S
H584 C591 0.950 . S
C585 C583 1.387 . S
C585 C587 1.390 1_565 S
C585 H589 0.950 . S
H586 C582 0.950 . S
C587 C585 1.390 1_545 S
C587 C588 1.387 . S
C587 H590 0.950 . S
C588 C587 1.387 . S
C588 C591 1.387 . S
H589 C585 0.950 . S
H590 C587 0.950 . S
C591 C582 1.390 1_545 S
C591 H584 0.950 . S
C591 C588 1.387 . S
C592 C593 1.387 . S
C592 H596 0.950 . S
C592 C601 1.390 1_655 S
C593 C592 1.387 . S
C593 C595 1.387 . S
H594 C601 0.950 . S
C595 C593 1.387 . S
C595 C597 1.390 1_655 S
C595 H599 0.950 . S
H596 C592 0.950 . S
C597 C595 1.390 1_455 S
C597 C598 1.387 . S
C597 H600 0.950 . S
C598 C597 1.387 . S
C598 C601 1.387 . S
H599 C595 0.950 . S
H600 C597 0.950 . S
C601 C592 1.390 1_455 S
C601 H594 0.950 . S
C601 C598 1.387 . S
C602 C603 1.387 . S
C602 H606 0.950 . S
C602 C611 1.390 . S
C603 C602 1.387 . S
C603 C605 1.387 . S
H604 C611 0.950 . S
C605 C603 1.387 . S
C605 C607 1.390 . S
C605 H609 0.950 . S
H606 C602 0.950 . S
C607 C605 1.390 . S
C607 C608 1.387 . S
C607 H610 0.950 . S
C608 C607 1.387 . S
C608 C611 1.387 . S
H609 C605 0.950 . S
H610 C607 0.950 . S
C611 C602 1.390 . S
C611 H604 0.950 . S
C611 C608 1.387 . S
C612 C613 1.387 . S
C612 H616 0.950 . S
C612 C621 1.390 1_545 S
C613 C612 1.387 . S
C613 C615 1.387 . S
H614 C621 0.950 . S
C615 C613 1.387 . S
C615 C617 1.390 1_545 S
C615 H619 0.950 . S
H616 C612 0.950 . S
C617 C615 1.390 1_565 S
C617 C618 1.387 . S
C617 H620 0.950 . S
C618 C617 1.387 . S
C618 C621 1.387 . S
H619 C615 0.950 . S
H620 C617 0.950 . S
C621 C612 1.390 1_565 S
C621 H614 0.950 . S
C621 C618 1.387 . S
C622 C623 1.387 . S
C622 H626 0.950 . S
C622 C631 1.390 1_665 S
C623 C622 1.387 . S
C623 C625 1.387 . S
H624 C631 0.950 . S
C625 C623 1.387 . S
C625 C627 1.390 1_665 S
C625 H629 0.950 . S
H626 C622 0.950 . S
C627 C625 1.390 1_445 S
C627 C628 1.387 . S
C627 H630 0.950 . S
C628 C627 1.387 . S
C628 C631 1.387 . S
H629 C625 0.950 . S
H630 C627 0.950 . S
C631 C622 1.390 1_445 S
C631 H624 0.950 . S
C631 C628 1.387 . S
C473 C33 1.345 . S
C478 C328 1.346 . S
C483 C62 1.450 . S
C488 C357 1.450 . S
C493 C151 1.346 . S
C498 C446 1.345 . S
C503 C180 1.450 . S
C508 C239 1.450 . S
C513 C416 1.451 . S
C518 C3 1.451 . S
C523 C269 1.346 . S
C528 C92 1.345 . S
C533 C121 1.452 . S
C538 C298 1.452 . S
C543 C387 1.346 . S
C548 C210 1.345 . S
C553 C52 1.652 . S
C558 C406 1.652 . S
C563 C418 1.648 . S
C568 C64 1.648 . S
C573 C170 1.652 . S
C578 C288 1.652 . S
C583 C182 1.650 . S
C588 C300 1.650 . S
C593 C359 1.648 . S
C598 C5 1.648 . S
C603 C465 1.652 . S
C608 C111 1.652 . S
C613 C123 1.650 . S
C618 C241 1.650 . S
C623 C229 1.650 . S
C628 C347 1.650 . S
