# Generated by pormake.
# Topology wkj, (6)-cn, num edge types: 1
# Building blocks:
#     Node 0, Type 0, BuildingBlock: MIFKUJ_clean_sbu_0, # of connection points: 6
#     Node 1, Type 0, BuildingBlock: MIFKUJ_clean_sbu_0, # of connection points: 6
#     Node 2, Type 0, BuildingBlock: MIFKUJ_clean_sbu_0, # of connection points: 6
#     Node 3, Type 0, BuildingBlock: MIFKUJ_clean_sbu_0, # of connection points: 6
#     Node 4, Type 0, BuildingBlock: MIFKUJ_clean_sbu_0, # of connection points: 6
#     Node 5, Type 0, BuildingBlock: MIFKUJ_clean_sbu_0, # of connection points: 6
#     Node 6, Type 0, BuildingBlock: MIFKUJ_clean_sbu_0, # of connection points: 6
#     Node 7, Type 0, BuildingBlock: MIFKUJ_clean_sbu_0, # of connection points: 6
#     Node 8, Type 0, BuildingBlock: MIFKUJ_clean_sbu_0, # of connection points: 6
#     Node 9, Type 0, BuildingBlock: MIFKUJ_clean_sbu_0, # of connection points: 6
#     Node 10, Type 0, BuildingBlock: MIFKUJ_clean_sbu_0, # of connection points: 6
#     Node 11, Type 0, BuildingBlock: MIFKUJ_clean_sbu_0, # of connection points: 6
#     Edge 12, Type (0, 0), BuildingBlock: OJICUG_clean_linker_0, # of connection points: 2
#     Edge 13, Type (0, 0), BuildingBlock: OJICUG_clean_linker_0, # of connection points: 2
#     Edge 14, Type (0, 0), BuildingBlock: OJICUG_clean_linker_0, # of connection points: 2
#     Edge 15, Type (0, 0), BuildingBlock: OJICUG_clean_linker_0, # of connection points: 2
#     Edge 16, Type (0, 0), BuildingBlock: OJICUG_clean_linker_0, # of connection points: 2
#     Edge 17, Type (0, 0), BuildingBlock: OJICUG_clean_linker_0, # of connection points: 2
#     Edge 18, Type (0, 0), BuildingBlock: OJICUG_clean_linker_0, # of connection points: 2
#     Edge 19, Type (0, 0), BuildingBlock: OJICUG_clean_linker_0, # of connection points: 2
#     Edge 20, Type (0, 0), BuildingBlock: OJICUG_clean_linker_0, # of connection points: 2
#     Edge 21, Type (0, 0), BuildingBlock: OJICUG_clean_linker_0, # of connection points: 2
#     Edge 22, Type (0, 0), BuildingBlock: OJICUG_clean_linker_0, # of connection points: 2
#     Edge 23, Type (0, 0), BuildingBlock: OJICUG_clean_linker_0, # of connection points: 2
#     Edge 24, Type (0, 0), BuildingBlock: OJICUG_clean_linker_0, # of connection points: 2
#     Edge 25, Type (0, 0), BuildingBlock: OJICUG_clean_linker_0, # of connection points: 2
#     Edge 26, Type (0, 0), BuildingBlock: OJICUG_clean_linker_0, # of connection points: 2
#     Edge 27, Type (0, 0), BuildingBlock: OJICUG_clean_linker_0, # of connection points: 2
#     Edge 28, Type (0, 0), BuildingBlock: OJICUG_clean_linker_0, # of connection points: 2
#     Edge 29, Type (0, 0), BuildingBlock: OJICUG_clean_linker_0, # of connection points: 2
#     Edge 30, Type (0, 0), BuildingBlock: OJICUG_clean_linker_0, # of connection points: 2
#     Edge 31, Type (0, 0), BuildingBlock: OJICUG_clean_linker_0, # of connection points: 2
#     Edge 32, Type (0, 0), BuildingBlock: OJICUG_clean_linker_0, # of connection points: 2
#     Edge 33, Type (0, 0), BuildingBlock: OJICUG_clean_linker_0, # of connection points: 2
#     Edge 34, Type (0, 0), BuildingBlock: OJICUG_clean_linker_0, # of connection points: 2
#     Edge 35, Type (0, 0), BuildingBlock: OJICUG_clean_linker_0, # of connection points: 2
#     Edge 36, Type (0, 0), BuildingBlock: OJICUG_clean_linker_0, # of connection points: 2
#     Edge 37, Type (0, 0), BuildingBlock: OJICUG_clean_linker_0, # of connection points: 2
#     Edge 38, Type (0, 0), BuildingBlock: OJICUG_clean_linker_0, # of connection points: 2
#     Edge 39, Type (0, 0), BuildingBlock: OJICUG_clean_linker_0, # of connection points: 2
#     Edge 40, Type (0, 0), BuildingBlock: OJICUG_clean_linker_0, # of connection points: 2
#     Edge 41, Type (0, 0), BuildingBlock: OJICUG_clean_linker_0, # of connection points: 2
#     Edge 42, Type (0, 0), BuildingBlock: OJICUG_clean_linker_0, # of connection points: 2
#     Edge 43, Type (0, 0), BuildingBlock: OJICUG_clean_linker_0, # of connection points: 2
#     Edge 44, Type (0, 0), BuildingBlock: OJICUG_clean_linker_0, # of connection points: 2
#     Edge 45, Type (0, 0), BuildingBlock: OJICUG_clean_linker_0, # of connection points: 2
#     Edge 46, Type (0, 0), BuildingBlock: OJICUG_clean_linker_0, # of connection points: 2
#     Edge 47, Type (0, 0), BuildingBlock: OJICUG_clean_linker_0, # of connection points: 2
# Relax obj value: 0.305
# Max RMSD: 0.215
# Mean RMSD: 0.215
data_MOF--net-wkj--node1-MIFKUJ_clean_sbu_0--edge1-OJICUG_clean_linker_0
_symmetry_space_group_name_H-M    P1
_symmetry_Int_Tables_number       1
_symmetry_cell_setting            triclinic
loop_
_symmetry_equiv_pos_as_xyz
'x, y, z'
_cell_length_a     34.442017
_cell_length_b     34.694853
_cell_length_c     23.558974
_cell_angle_alpha  89.897969
_cell_angle_beta   90.362696
_cell_angle_gamma 120.50528
loop_
_atom_site_label
_atom_site_type_symbol
_atom_site_fract_x
_atom_site_fract_y
_atom_site_fract_z
_atom_type_partial_charge
Zn0 Zn 0.46188 0.10293 0.18445 0.0
Zn1 Zn 0.42174 0.10223 0.34228 0.0
C2 C 0.42196 0.03942 0.1003 0.0
O3 O 0.46449 0.05036 0.10018 0.0
C4 C 0.49684 0.16261 0.41645 0.0
O5 O 0.47149 0.17983 0.42796 0.0
O6 O 0.51508 0.14327 0.13333 0.0
O7 O 0.44572 0.12983 0.24597 0.0
O8 O 0.40808 0.1468 0.30232 0.0
C9 C 0.50615 0.15237 0.08416 0.0
O10 O 0.46412 0.13962 0.07149 0.0
O11 O 0.40931 0.05882 0.13513 0.0
C12 C 0.39232 0.04326 0.42712 0.0
O13 O 0.42829 0.04497 0.40578 0.0
O14 O 0.37906 0.06837 0.40591 0.0
O15 O 0.41535 0.05219 0.28721 0.0
O16 O 0.47274 0.06293 0.23386 0.0
O17 O 0.48413 0.13278 0.37803 0.0
C18 C 0.42481 0.15027 0.25359 0.0
C19 C 0.44638 0.0436 0.27568 0.0
Zn20 Zn 0.28935 0.41644 0.50908 0.0
Zn21 Zn 0.28063 0.44059 0.68131 0.0
C22 C 0.32455 0.38893 0.42743 0.0
O23 O 0.35224 0.43222 0.43263 0.0
C24 C 0.28223 0.50219 0.76484 0.0
O25 O 0.25012 0.46562 0.7886 0.0
O26 O 0.28982 0.46713 0.46433 0.0
O27 O 0.25536 0.39437 0.58032 0.0
O28 O 0.2223 0.41677 0.63763 0.0
C29 C 0.27955 0.46371 0.41182 0.0
O30 O 0.25828 0.42373 0.38862 0.0
O31 O 0.28888 0.37017 0.45695 0.0
C32 C 0.28552 0.36926 0.73915 0.0
O33 O 0.29018 0.35726 0.68794 0.0
O34 O 0.27759 0.401 0.74483 0.0
O35 O 0.33673 0.45635 0.6343 0.0
O36 O 0.34936 0.44753 0.54368 0.0
O37 O 0.29693 0.49933 0.71673 0.0
C38 C 0.22324 0.40075 0.58984 0.0
C39 C 0.36325 0.46115 0.59383 0.0
Zn40 Zn 0.83753 0.32162 0.83539 0.0
Zn41 Zn 0.82161 0.29255 0.01474 0.0
C42 C 0.8837 0.31207 0.73422 0.0
O43 O 0.84387 0.28928 0.71008 0.0
C44 C 0.76732 0.29153 0.10872 0.0
O45 O 0.78288 0.26818 0.13373 0.0
O46 O 0.79072 0.32719 0.78946 0.0
O47 O 0.81899 0.28048 0.90109 0.0
O48 O 0.79417 0.23355 0.97035 0.0
C49 C 0.76256 0.30254 0.7516 0.0
O50 O 0.75608 0.2625 0.74185 0.0
O51 O 0.8868 0.32485 0.7855 0.0
C52 C 0.8906 0.33515 0.09275 0.0
O53 O 0.88228 0.36673 0.07764 0.0
O54 O 0.86704 0.29634 0.07149 0.0
O55 O 0.85426 0.34862 0.96416 0.0
O56 O 0.8694 0.37849 0.87792 0.0
O57 O 0.77556 0.30092 0.05642 0.0
C58 C 0.80001 0.24046 0.91739 0.0
C59 C 0.87389 0.38252 0.93163 0.0
Zn60 Zn 0.48938 0.86211 0.17559 0.0
Zn61 Zn 0.48842 0.83459 0.35206 0.0
C62 C 0.50459 0.92568 0.09621 0.0
O63 O 0.46133 0.90515 0.10763 0.0
C64 C 0.40184 0.77696 0.4106 0.0
O65 O 0.38293 0.77233 0.36053 0.0
O66 O 0.44435 0.81034 0.12671 0.0
O67 O 0.51854 0.85051 0.24101 0.0
O68 O 0.50494 0.79846 0.30218 0.0
C69 C 0.45132 0.81175 0.0735 0.0
O70 O 0.49194 0.83905 0.05411 0.0
O71 O 0.52912 0.91401 0.12333 0.0
C72 C 0.52901 0.9013 0.42687 0.0
O73 O 0.48662 0.89089 0.42501 0.0
O74 O 0.54177 0.88062 0.39468 0.0
O75 O 0.46264 0.86768 0.30742 0.0
O76 O 0.4533 0.88226 0.21782 0.0
O77 O 0.44458 0.79789 0.41432 0.0
C78 C 0.51417 0.81287 0.2517 0.0
C79 C 0.44831 0.88482 0.27087 0.0
Zn80 Zn 0.60314 0.50824 0.49108 0.0
Zn81 Zn 0.6227 0.51477 0.6706 0.0
C82 C 0.58902 0.53907 0.39076 0.0
O83 O 0.5587 0.49625 0.39184 0.0
C84 C 0.61312 0.44748 0.75058 0.0
O85 O 0.64894 0.4814 0.77382 0.0
O86 O 0.58648 0.44754 0.45556 0.0
O87 O 0.6397 0.52611 0.55992 0.0
O88 O 0.68246 0.53295 0.6303 0.0
C89 C 0.60487 0.44398 0.4106 0.0
O90 O 0.64044 0.47985 0.39072 0.0
O91 O 0.61724 0.55569 0.43145 0.0
C92 C 0.61883 0.58441 0.73394 0.0
O93 O 0.60731 0.59293 0.68428 0.0
O94 O 0.63009 0.55478 0.73718 0.0
O95 O 0.57075 0.50937 0.61945 0.0
O96 O 0.54932 0.50203 0.52824 0.0
O97 O 0.59799 0.45347 0.70413 0.0
C98 C 0.67728 0.53342 0.57713 0.0
C99 C 0.5428 0.50564 0.58078 0.0
Zn100 Zn 0.06628 0.60819 0.83046 0.0
Zn101 Zn 0.08675 0.63839 0.00999 0.0
C102 C 0.02562 0.62721 0.7269 0.0
O103 O 0.06505 0.64739 0.70194 0.0
C104 C 0.15241 0.6415 0.08997 0.0
O105 O 0.15017 0.67523 0.1115 0.0
O106 O 0.10724 0.59105 0.7897 0.0
O107 O 0.09229 0.65213 0.89358 0.0
O108 O 0.12025 0.69639 0.96582 0.0
C109 C 0.13736 0.61235 0.75254 0.0
O110 O 0.14782 0.65319 0.7389 0.0
O111 O 0.02255 0.61345 0.77767 0.0
C112 C 0.00865 0.63048 0.06409 0.0
O113 O -0.00836 0.61857 0.01271 0.0
O114 O 0.04979 0.64267 0.07253 0.0
O115 O 0.04471 0.58543 0.95993 0.0
O116 O 0.02377 0.55452 0.87466 0.0
O117 O 0.13008 0.62268 0.0452 0.0
C118 C 0.1166 0.69139 0.91235 0.0
C119 C 0.01871 0.5526 0.92826 0.0
Zn120 Zn 0.82339 0.47876 0.49178 0.0
Zn121 Zn 0.82055 0.49842 0.31671 0.0
C122 C 0.87516 0.52493 0.58388 0.0
O123 O 0.87105 0.48524 0.58708 0.0
C124 C 0.7638 0.42803 0.23715 0.0
O125 O 0.76185 0.46036 0.21062 0.0
O126 O 0.78541 0.42085 0.53594 0.0
O127 O 0.79903 0.48655 0.42059 0.0
O128 O 0.77882 0.5163 0.35587 0.0
C129 C 0.76894 0.42229 0.58366 0.0
O130 O 0.77363 0.46047 0.60068 0.0
O131 O 0.85454 0.53259 0.54441 0.0
C132 C 0.89318 0.57246 0.25853 0.0
O133 O 0.91066 0.58191 0.3099 0.0
O134 O 0.85343 0.53954 0.25161 0.0
O135 O 0.86958 0.49654 0.36719 0.0
O136 O 0.87605 0.48045 0.45792 0.0
O137 O 0.78453 0.4364 0.2844 0.0
C138 C 0.77706 0.50506 0.40721 0.0
C139 C 0.89177 0.49202 0.40787 0.0
Zn140 Zn 0.32394 0.83617 0.85394 0.0
Zn141 Zn 0.31218 0.85099 0.68406 0.0
C142 C 0.31992 0.88757 0.95536 0.0
O143 O 0.28664 0.85022 0.97595 0.0
C144 C 0.30512 0.78659 0.60095 0.0
O145 O 0.26711 0.78511 0.58869 0.0
O146 O 0.29154 0.77396 0.88941 0.0
O147 O 0.28702 0.83334 0.78809 0.0
O148 O 0.24691 0.82129 0.71305 0.0
C149 C 0.29515 0.7499 0.92767 0.0
O150 O 0.26093 0.70916 0.93497 0.0
O151 O 0.33712 0.88705 0.9079 0.0
C152 C 0.30448 0.91768 0.60919 0.0
O153 O 0.26691 0.91014 0.6331 0.0
O154 O 0.32378 0.89671 0.62569 0.0
O155 O 0.35959 0.88448 0.74661 0.0
O156 O 0.38232 0.85486 0.81201 0.0
O157 O 0.32754 0.80888 0.64416 0.0
C158 C 0.24856 0.81851 0.76652 0.0
C159 C 0.3893 0.87595 0.76495 0.0
Zn160 Zn 0.43044 0.31169 0.16637 0.0
Zn161 Zn 0.42207 0.30351 0.98535 0.0
C162 C 0.40114 0.3311 0.26119 0.0
O163 O 0.4434 0.36257 0.25426 0.0
C164 C 0.47837 0.31254 0.89008 0.0
O165 O 0.44011 0.28121 0.86804 0.0
O166 O 0.48759 0.32023 0.20529 0.0
O167 O 0.41017 0.28155 0.09333 0.0
O168 O 0.40297 0.24182 0.02029 0.0
C169 C 0.48581 0.30591 0.25566 0.0
O170 O 0.44674 0.27415 0.27473 0.0
O171 O 0.38287 0.29976 0.22473 0.0
C172 C 0.3725 0.33423 0.92317 0.0
O173 O 0.39972 0.37017 0.95252 0.0
O174 O 0.37471 0.29902 0.9299 0.0
O175 O 0.43608 0.35495 0.04311 0.0
O176 O 0.44681 0.37046 0.13595 0.0
O177 O 0.47888 0.32526 0.94076 0.0
C178 C 0.4015 0.24464 0.07362 0.0
C179 C 0.44486 0.38169 0.08494 0.0
Zn180 Zn 0.08955 0.45183 0.49586 0.0
Zn181 Zn 0.10713 0.4598 0.31824 0.0
C182 C 0.03165 0.41195 0.58535 0.0
O183 O 0.04687 0.45489 0.59197 0.0
C184 C 0.16639 0.51851 0.23265 0.0
O185 O 0.15971 0.48078 0.21079 0.0
O186 O 0.13738 0.50131 0.54487 0.0
O187 O 0.1068 0.43875 0.42294 0.0
O188 O 0.14116 0.43065 0.35257 0.0
C189 C 0.14708 0.49435 0.59461 0.0
O190 O 0.13341 0.45302 0.61023 0.0
O191 O 0.04533 0.39908 0.5434 0.0
C192 C 0.03024 0.38484 0.25999 0.0
O193 O 0.02113 0.36286 0.30814 0.0
O194 O 0.06526 0.42326 0.25608 0.0
O195 O 0.06943 0.47583 0.37217 0.0
O196 O 0.05501 0.47733 0.46426 0.0
O197 O 0.15075 0.51787 0.28154 0.0
C198 C 0.13431 0.42815 0.40532 0.0
C199 C 0.04966 0.48391 0.41228 0.0
Zn200 Zn 0.60392 0.10129 0.81536 0.0
Zn201 Zn 0.63887 0.10026 0.64833 0.0
C202 C 0.56419 0.04705 0.90552 0.0
O203 O 0.53652 0.06005 0.8872 0.0
C204 C 0.61925 0.17183 0.59168 0.0
O205 O 0.6396 0.205 0.62803 0.0
O206 O 0.59686 0.15034 0.85188 0.0
O207 O 0.64858 0.11652 0.75627 0.0
O208 O 0.69837 0.13431 0.69192 0.0
C209 C 0.61738 0.16497 0.89912 0.0
O210 O 0.64989 0.15719 0.91192 0.0
O211 O 0.60134 0.06109 0.87974 0.0
C212 C 0.64075 0.02733 0.59648 0.0
O213 O 0.6371 0.01256 0.64865 0.0
O214 O 0.64902 0.06685 0.58842 0.0
O215 O 0.58211 0.05095 0.6915 0.0
O216 O 0.55069 0.06065 0.76967 0.0
O217 O 0.61922 0.13558 0.59978 0.0
C218 C 0.68936 0.13242 0.74401 0.0
C219 C 0.55122 0.03648 0.72931 0.0
Zn220 Zn 0.45705 0.61581 0.16567 0.0
Zn221 Zn 0.48335 0.63528 0.98915 0.0
C222 C 0.50471 0.60141 0.24682 0.0
O223 O 0.46481 0.56497 0.24484 0.0
C224 C 0.42176 0.6326 0.90223 0.0
O225 O 0.45785 0.66686 0.88049 0.0
O226 O 0.39886 0.59333 0.21061 0.0
O227 O 0.46732 0.64593 0.09272 0.0
O228 O 0.50075 0.69511 0.02818 0.0
C229 C 0.39945 0.60367 0.26263 0.0
O230 O 0.43739 0.63551 0.28475 0.0
O231 O 0.5119 0.63471 0.21638 0.0
C232 C 0.55562 0.62847 0.93538 0.0
O233 O 0.55751 0.61167 0.98464 0.0
O234 O 0.52843 0.64283 0.92898 0.0
O235 O 0.46885 0.57879 0.0381 0.0
O236 O 0.45107 0.56275 0.13005 0.0
O237 O 0.42519 0.61565 0.94844 0.0
C238 C 0.48627 0.68624 0.07837 0.0
C239 C 0.45804 0.5524 0.08088 0.0
C240 C 0.37618 0.17272 0.20133 0.0
C241 C 0.4162 0.17169 0.20584 0.0
H242 H 0.33949 0.19635 0.15289 0.0
C243 C 0.44891 0.19111 0.16347 0.0
H244 H 0.3507 0.15815 0.23396 0.0
C245 C 0.44175 0.21091 0.11646 0.0
C246 C 0.40216 0.21249 0.11216 0.0
H247 H 0.48083 0.1924 0.16789 0.0
H248 H 0.46838 0.22763 0.08553 0.0
C249 C 0.36939 0.19351 0.15472 0.0
C250 C 0.17882 0.37328 0.5009 0.0
C251 C 0.20089 0.40727 0.54154 0.0
H252 H 0.13961 0.35342 0.42384 0.0
C253 C 0.20569 0.44931 0.53279 0.0
H254 H 0.17608 0.341 0.50669 0.0
C255 C 0.18692 0.45682 0.48491 0.0
C256 C 0.16242 0.42219 0.44611 0.0
H257 H 0.22438 0.47643 0.56261 0.0
H258 H 0.19044 0.4894 0.47879 0.0
C259 C 0.15895 0.38053 0.4534 0.0
C260 C 0.74067 0.16417 0.8886 0.0
C261 C 0.78002 0.20424 0.87564 0.0
H262 H 0.68084 0.10855 0.85489 0.0
C263 C 0.79528 0.21288 0.81941 0.0
H264 H 0.7291 0.15588 0.93198 0.0
C265 C 0.76755 0.18602 0.77551 0.0
C266 C 0.72431 0.15083 0.78806 0.0
H267 H 0.82682 0.24248 0.80915 0.0
H268 H 0.77801 0.19565 0.73199 0.0
C269 C 0.71283 0.13752 0.84465 0.0
C270 C 0.46564 0.70697 0.1682 0.0
C271 C 0.49333 0.72039 0.12021 0.0
H272 H 0.45111 0.7256 0.24789 0.0
C273 C 0.5266 0.76552 0.11371 0.0
H274 H 0.43812 0.67303 0.1726 0.0
C275 C 0.53312 0.7963 0.15636 0.0
C276 C 0.50678 0.78182 0.20569 0.0
H277 H 0.54783 0.77675 0.0765 0.0
H278 H 0.55921 0.83102 0.15147 0.0
C279 C 0.47272 0.73714 0.21098 0.0
C280 C 0.72343 0.55897 0.48982 0.0
C281 C 0.70764 0.53052 0.53716 0.0
H282 H 0.7591 0.57375 0.4108 0.0
C283 C 0.714 0.49397 0.54071 0.0
H284 H 0.71725 0.58652 0.48582 0.0
C285 C 0.73594 0.48579 0.49731 0.0
C286 C 0.75309 0.5147 0.45076 0.0
H287 H 0.69984 0.47039 0.57546 0.0
H288 H 0.73816 0.45587 0.499 0.0
C289 C 0.74662 0.55138 0.44687 0.0
C290 C 0.21147 0.80028 0.85975 0.0
C291 C 0.20856 0.79207 0.8012 0.0
H292 H 0.184 0.77465 0.9414 0.0
C293 C 0.17036 0.75465 0.77852 0.0
H294 H 0.24025 0.82965 0.87772 0.0
C295 C 0.13803 0.72308 0.81496 0.0
C296 C 0.14374 0.72884 0.87403 0.0
H297 H 0.16728 0.74797 0.73331 0.0
H298 H 0.11016 0.69293 0.79714 0.0
C299 C 0.17923 0.76891 0.89604 0.0
C300 C 0.55427 0.17381 0.93629 0.0
C301 C 0.5952 0.1751 0.94581 0.0
H302 H 0.49428 0.16648 0.97292 0.0
C303 C 0.6104 0.17777 0.00213 0.0
H304 H 0.54178 0.17223 0.89354 0.0
C305 C 0.5829 0.17392 0.0478 0.0
C306 C 0.53985 0.16776 0.03803 0.0
H307 H 0.64207 0.17936 0.01112 0.0
H308 H 0.59416 0.17276 0.09047 0.0
C309 C 0.52694 0.17032 0.98196 0.0
C310 C 0.36654 0.57898 0.35991 0.0
C311 C 0.36207 0.57293 0.30066 0.0
H312 H 0.34346 0.54952 0.44178 0.0
C313 C 0.32478 0.53377 0.27901 0.0
H314 H 0.39458 0.60888 0.37819 0.0
C315 C 0.29535 0.49962 0.31561 0.0
C316 C 0.30251 0.50384 0.3747 0.0
H317 H 0.31992 0.52816 0.23365 0.0
H318 H 0.26873 0.46876 0.29731 0.0
C319 C 0.33707 0.54485 0.39652 0.0
C320 C 0.7474 0.36288 0.72379 0.0
C321 C 0.7495 0.32491 0.70854 0.0
H322 H 0.75068 0.423 0.69587 0.0
C323 C 0.74881 0.31466 0.6507 0.0
H324 H 0.74756 0.37135 0.76808 0.0
C325 C 0.75158 0.3448 0.60908 0.0
C326 C 0.75435 0.38521 0.62478 0.0
H327 H 0.75041 0.28556 0.6377 0.0
H328 H 0.75466 0.33789 0.56504 0.0
C329 C 0.74938 0.39255 0.68228 0.0
C330 C 0.33313 0.74258 0.01433 0.0
C331 C 0.33566 0.76596 0.96422 0.0
H332 H 0.36776 0.73861 0.08814 0.0
C333 C 0.37713 0.80323 0.94923 0.0
H334 H 0.30163 0.71368 0.02724 0.0
C335 C 0.41528 0.81672 0.98347 0.0
C336 C 0.41246 0.79373 0.03404 0.0
H337 H 0.3802 0.82183 0.91104 0.0
H338 H 0.44664 0.84611 0.97128 0.0
C339 C 0.37099 0.7566 0.04917 0.0
C340 C 0.56252 0.37165 0.27827 0.0
C341 C 0.52165 0.33515 0.29709 0.0
H342 H 0.6213 0.43414 0.29946 0.0
C343 C 0.51226 0.3314 0.35562 0.0
H344 H 0.57098 0.37556 0.23361 0.0
C345 C 0.54087 0.36538 0.39342 0.0
C346 C 0.5799 0.40365 0.37377 0.0
H347 H 0.48118 0.30378 0.37186 0.0
H348 H 0.5311 0.36272 0.43751 0.0
C349 C 0.59141 0.40534 0.31618 0.0
C350 C 0.16759 0.6018 0.66111 0.0
C351 C 0.15237 0.58738 0.71663 0.0
H352 H 0.1786 0.58355 0.57856 0.0
C353 C 0.1452 0.54554 0.73433 0.0
H354 H 0.17381 0.634 0.64624 0.0
C355 C 0.14852 0.51682 0.6957 0.0
C356 C 0.15839 0.52915 0.63839 0.0
H357 H 0.13415 0.53378 0.77713 0.0
H358 H 0.1395 0.48357 0.70977 0.0
C359 C 0.17036 0.57285 0.62226 0.0
C360 C 0.38083 0.96711 0.97021 0.0
C361 C 0.34134 0.92929 0.98976 0.0
H362 H 0.43667 0.03199 0.99016 0.0
C363 C 0.325 0.93099 0.04384 0.0
H364 H 0.3942 0.96737 0.92862 0.0
C365 C 0.34939 0.96858 0.07894 0.0
C366 C 0.3906 0.00464 0.06056 0.0
H367 H 0.29444 0.90263 0.05997 0.0
H368 H 0.33757 0.96822 0.12156 0.0
C369 C 0.40524 0.00418 0.00536 0.0
C370 C 0.40153 0.35801 0.35784 0.0
C371 C 0.37656 0.33483 0.30961 0.0
H372 H 0.40375 0.39282 0.43347 0.0
C373 C 0.33085 0.32222 0.30556 0.0
H374 H 0.43663 0.36752 0.36238 0.0
C375 C 0.31179 0.33655 0.34701 0.0
C376 C 0.33851 0.36342 0.39225 0.0
H377 H 0.31106 0.30446 0.26854 0.0
H378 H 0.27761 0.32969 0.34137 0.0
C379 C 0.38276 0.37238 0.39857 0.0
C380 C 0.00072 0.3929 0.6825 0.0
C381 C -0.00217 0.38031 0.6254 0.0
H382 H -0.03254 0.38031 0.76222 0.0
C383 C -0.04039 0.34098 0.60627 0.0
H384 H 0.03008 0.42301 0.69824 0.0
C385 C 0.92307 0.31679 0.64275 0.0
C386 C 0.92478 0.33122 0.69902 0.0
H387 H 0.95666 0.33078 0.56227 0.0
H388 H 0.89274 0.28816 0.62615 0.0
C389 C -0.03517 0.36832 0.71914 0.0
C390 C 0.49202 0.96765 0.02001 0.0
C391 C 0.52193 0.95798 0.04869 0.0
H392 H 0.48182 0.00208 0.95216 0.0
C393 C 0.56669 -0.02223 0.02966 0.0
H394 H 0.45721 0.95288 0.03301 0.0
C395 C 0.58101 0.00674 0.9827 0.0
C396 C 0.55072 0.0162 0.95438 0.0
H397 H 0.59041 -0.02932 0.0507 0.0
H398 H 0.61561 0.02178 0.96878 0.0
C399 C 0.50617 -0.00387 0.97353 0.0
C400 C 0.57041 0.54901 0.29281 0.0
C401 C 0.58388 0.56682 0.34755 0.0
H402 H 0.53544 0.54761 0.21689 0.0
C403 C 0.58067 0.60416 0.36342 0.0
H404 H 0.5724 0.52011 0.2798 0.0
C405 C 0.5591 0.61984 0.32726 0.0
C406 C 0.54125 0.59849 0.27505 0.0
H407 H 0.59025 0.61796 0.40583 0.0
H408 H 0.5525 0.64543 0.34238 0.0
C409 C 0.54931 0.56475 0.25685 0.0
C410 C 0.94241 0.57667 0.71551 0.0
C411 C -0.01635 0.60997 0.69266 0.0
H412 H 0.8752 0.52346 0.69804 0.0
C413 C -0.01489 0.62104 0.63488 0.0
H414 H 0.93979 0.56731 0.75981 0.0
C415 C 0.94731 0.59642 0.59975 0.0
C416 C 0.90787 0.56018 0.62188 0.0
H417 H 0.01623 0.64661 0.61601 0.0
H418 H 0.95031 0.60303 0.55454 0.0
C419 C 0.90517 0.55162 0.68028 0.0
C420 C 0.40506 0.96274 0.25592 0.0
C421 C 0.43754 -0.00124 0.28816 0.0
H422 H 0.38222 0.89629 0.22643 0.0
C423 C 0.466 -0.00724 0.32505 0.0
H424 H 0.38304 0.96718 0.22698 0.0
C425 C 0.46481 0.95197 0.3258 0.0
C426 C 0.43589 0.9175 0.2886 0.0
H427 H 0.49132 0.02051 0.34994 0.0
H428 H 0.49019 0.94952 0.35022 0.0
C429 C 0.40437 0.92227 0.25593 0.0
C430 C 0.4398 0.51312 0.56144 0.0
C431 C 0.41178 0.4835 0.60327 0.0
H432 H 0.5043 0.54391 0.52241 0.0
C433 C 0.43 0.46873 0.64565 0.0
H434 H 0.42629 0.52518 0.52876 0.0
C435 C 0.47495 0.47942 0.64193 0.0
C436 C 0.50118 0.50462 0.59572 0.0
H437 H 0.40859 0.44566 0.67809 0.0
H438 H 0.48774 0.46471 0.67183 0.0
C439 C 0.48421 0.52361 0.55768 0.0
C440 C 0.89975 0.46254 0.93522 0.0
C441 C 0.90481 0.42704 0.95412 0.0
H442 H 0.93343 0.5319 0.91368 0.0
C443 C 0.94582 0.43582 0.97847 0.0
H444 H 0.86843 0.45619 0.91575 0.0
C445 C -0.01681 0.47919 0.97695 0.0
C446 C -0.02081 0.51351 0.95135 0.0
H447 H 0.95045 0.40856 0.99213 0.0
H448 H 0.0159 0.48478 0.98987 0.0
C449 C 0.93683 0.50566 0.9339 0.0
C450 C 0.00923 0.52195 0.44158 0.0
C451 C 0.01687 0.49783 0.39986 0.0
H452 H -0.03718 0.53895 0.47616 0.0
C453 C -0.01283 0.47986 0.35338 0.0
H454 H 0.03212 0.53675 0.47729 0.0
C455 C 0.9473 0.48137 0.35261 0.0
C456 C 0.93735 0.50063 0.39843 0.0
H457 H -0.00744 0.46113 0.32073 0.0
H458 H 0.92269 0.46412 0.31922 0.0
C459 C -0.03037 0.52312 0.44103 0.0
C460 C 0.44431 0.92984 0.69537 0.0
C461 C 0.43607 0.90794 0.74821 0.0
H462 H 0.48853 -0.01135 0.64732 0.0
C463 C 0.47062 0.92428 0.7891 0.0
H464 H 0.41824 0.91765 0.66295 0.0
C465 C 0.51016 0.96491 0.7803 0.0
C466 C 0.51609 -0.01079 0.73021 0.0
H467 H 0.46547 0.90824 0.8301 0.0
H468 H 0.53484 -0.02112 0.81431 0.0
C469 C 0.48432 0.97035 0.68632 0.0
C470 C 0.47077 0.49528 0.03134 0.0
C471 C 0.45098 0.50712 0.07487 0.0
H472 H 0.48451 0.44503 1.0001 0.0
C473 C 0.42602 0.47573 0.11709 0.0
H474 H 0.48991 0.51884 0.9981 0.0
C475 C 0.42341 0.43476 0.1184 0.0
C476 C 0.44524 0.42368 0.07728 0.0
H477 H 0.40933 0.48317 0.15053 0.0
H478 H 0.40481 0.41189 0.15258 0.0
C479 C 0.46778 0.45338 0.03247 0.0
C480 C 0.30671 -0.02496 0.54092 0.0
C481 C 0.32574 0.95056 0.56297 0.0
H482 H 0.31297 0.02416 0.48004 0.0
C483 C 0.36639 0.95745 0.54031 0.0
H484 H 0.27539 0.9704 0.55759 0.0
C485 C 0.38752 -0.0123 0.4967 0.0
C486 C 0.36878 0.01216 0.47424 0.0
H487 H 0.38225 0.93938 0.55614 0.0
H488 H 0.41876 -0.00829 0.48059 0.0
C489 C 0.32818 0.00576 0.49672 0.0
C490 C 0.33106 0.36987 0.88498 0.0
C491 C 0.34299 0.33694 0.87977 0.0
H492 H 0.30238 0.40499 0.84536 0.0
C493 C 0.33039 0.31037 0.83056 0.0
H494 H 0.34003 0.39057 0.9227 0.0
C495 C 0.30919 0.31904 0.78548 0.0
C496 C 0.29971 0.35389 0.7895 0.0
H497 H 0.33925 0.28474 0.82556 0.0
H498 H 0.30201 0.29979 0.74671 0.0
C499 C 0.30928 0.37798 0.84062 0.0
C500 C -0.03494 0.38909 0.13367 0.0
C501 C 0.92762 0.34566 0.13264 0.0
H502 H 0.0273 0.435 0.17352 0.0
C503 C 0.92541 0.31365 0.17115 0.0
H504 H -0.03229 0.41424 0.10406 0.0
C505 C -0.04061 0.32576 0.21208 0.0
C506 C -0.0036 0.36968 0.21389 0.0
H507 H 0.89669 0.27991 0.17101 0.0
H508 H 0.95632 0.3011 0.24278 0.0
C509 C -0.00067 0.40084 0.17336 0.0
C510 C 0.62736 0.96732 0.52697 0.0
C511 C 0.61416 -0.00464 0.55212 0.0
H512 H 0.61068 0.91548 0.46553 0.0
C513 C 0.57405 -0.00681 0.535 0.0
H514 H 0.65831 0.9688 0.53993 0.0
C515 C 0.54702 0.96306 0.4935 0.0
C516 C 0.55977 0.93472 0.468 0.0
H517 H 0.56328 0.01451 0.55442 0.0
H518 H 0.51598 0.96188 0.48167 0.0
C519 C 0.60037 0.93727 0.48448 0.0
C520 C 0.57591 0.64059 0.8322 0.0
C521 C 0.57903 0.62393 0.88542 0.0
H522 H 0.5867 0.64181 0.74273 0.0
C523 C 0.60087 0.59903 0.88916 0.0
H524 H 0.55968 0.66024 0.82786 0.0
C525 C 0.61632 0.58836 0.84022 0.0
C526 C 0.61039 0.60247 0.7865 0.0
H527 H 0.60408 0.58586 0.92951 0.0
H528 H 0.63098 0.56727 0.8443 0.0
C529 C 0.59148 0.63005 0.78332 0.0
C530 C -0.00301 0.63576 0.16791 0.0
C531 C -0.02119 0.62253 0.113 0.0
H532 H -0.01594 0.63093 0.25706 0.0
C533 C 0.93176 0.59759 0.10613 0.0
H534 H 0.03311 0.65531 0.17458 0.0
C535 C 0.90362 0.58339 0.15346 0.0
C536 C 0.92197 0.59413 0.20857 0.0
H537 H 0.91666 0.58701 0.06438 0.0
H538 H 0.86762 0.56236 0.14688 0.0
C539 C -0.03117 0.62185 0.21521 0.0
C540 C 0.54906 0.13938 0.45699 0.0
C541 C 0.53386 0.17006 0.45582 0.0
H542 H 0.58755 0.11589 0.50057 0.0
C543 C 0.55067 0.20445 0.49674 0.0
H544 H 0.53681 0.11238 0.42635 0.0
C545 C 0.58033 0.20669 0.53955 0.0
C546 C 0.59314 0.17417 0.54266 0.0
H547 H 0.53975 0.22873 0.49681 0.0
H548 H 0.59158 0.23264 0.57153 0.0
C549 C 0.57805 0.14126 0.49995 0.0
C550 C 0.30641 0.54024 0.85899 0.0
C551 C 0.31027 0.54255 0.79962 0.0
H552 H 0.33903 0.56764 0.9385 0.0
C553 C 0.34668 0.5806 0.77488 0.0
H554 H 0.2785 0.51172 0.87942 0.0
C555 C 0.38139 0.6128 0.80884 0.0
C556 C 0.38025 0.60725 0.86796 0.0
H557 H 0.35022 0.58372 0.72918 0.0
H558 H 0.41073 0.63977 0.78841 0.0
C559 C 0.34124 0.57224 0.89289 0.0
C560 C 0.75788 0.31908 0.20271 0.0
C561 C 0.75315 0.31782 0.14335 0.0
H562 H 0.76445 0.35489 0.27934 0.0
C563 C 0.74261 0.34786 0.11706 0.0
H564 H 0.76547 0.29612 0.22446 0.0
C565 C 0.742 0.38164 0.14862 0.0
C566 C 0.75203 0.38603 0.20698 0.0
H567 H 0.73811 0.3474 0.07147 0.0
H568 H 0.73705 0.4062 0.12644 0.0
C569 C 0.75743 0.35293 0.23422 0.0
C570 C 0.32806 0.75046 0.45983 0.0
C571 C 0.37493 0.76851 0.46305 0.0
H572 H 0.26882 0.74113 0.50156 0.0
C573 C 0.3967 0.7846 0.51577 0.0
H574 H 0.31009 0.73715 0.42018 0.0
C575 C 0.37304 0.78691 0.56245 0.0
C576 C 0.32708 0.77316 0.55746 0.0
H577 H 0.4327 0.79838 0.52009 0.0
H578 H 0.39159 0.80243 0.60113 0.0
C579 C 0.30437 0.75275 0.50658 0.0
C580 C 0.59179 0.40609 0.84273 0.0
C581 C 0.58441 0.40668 0.78409 0.0
H582 H 0.56385 0.37531 0.92258 0.0
C583 C 0.54544 0.37083 0.75966 0.0
H584 H 0.62168 0.43292 0.86284 0.0
C585 C 0.51238 0.3376 0.79392 0.0
C586 C 0.51756 0.33988 0.85324 0.0
H587 H 0.53909 0.36995 0.71445 0.0
H588 H 0.48141 0.31213 0.77417 0.0
C589 C 0.55855 0.3731 0.87704 0.0
C590 C 0.18166 0.59634 0.21807 0.0
C591 C 0.17813 0.55721 0.19536 0.0
H592 H 0.17704 0.65456 0.20201 0.0
C593 C 0.17686 0.55208 0.13611 0.0
H594 H 0.18348 0.60164 0.26354 0.0
C595 C 0.17285 0.58229 0.10084 0.0
C596 C 0.17048 0.6183 0.12423 0.0
H597 H 0.17478 0.52267 0.11715 0.0
H598 H 0.16809 0.57545 0.05569 0.0
C599 C 0.178 0.62674 0.18274 0.0
loop_
_geom_bond_atom_site_label_1
_geom_bond_atom_site_label_2
_geom_bond_distance
_geom_bond_site_symmetry_2
_ccdc_geom_bond_type
Zn0 O6 1.969 . S
Zn0 O7 1.965 . S
Zn0 O11 2.024 . S
Zn0 O16 1.969 . S
Zn1 O8 1.969 . S
Zn1 O14 1.969 . S
Zn1 O15 1.965 . S
Zn1 O17 2.024 . S
C2 O3 1.229 . S
C2 O11 1.058 . S
O3 C2 1.229 . S
C4 O5 1.229 . S
C4 O17 1.058 . S
O5 C4 1.229 . S
O6 Zn0 1.969 . S
O6 C9 1.267 . S
O7 Zn0 1.965 . S
O7 C18 1.260 . S
O8 Zn1 1.969 . S
O8 C18 1.258 . S
C9 O6 1.267 . S
C9 O10 1.228 . S
O10 C9 1.228 . S
O11 Zn0 2.024 . S
O11 C2 1.058 . S
C12 O13 1.228 . S
C12 O14 1.267 . S
O13 C12 1.228 . S
O14 Zn1 1.969 . S
O14 C12 1.267 . S
O15 Zn1 1.965 . S
O15 C19 1.260 . S
O16 Zn0 1.969 . S
O16 C19 1.258 . S
O17 Zn1 2.024 . S
O17 C4 1.058 . S
C18 O7 1.260 . S
C18 O8 1.258 . S
C19 O15 1.260 . S
C19 O16 1.258 . S
Zn20 O26 1.969 . S
Zn20 O27 1.965 . S
Zn20 O31 2.024 . S
Zn20 O36 1.969 . S
Zn21 O28 1.969 . S
Zn21 O34 1.969 . S
Zn21 O35 1.965 . S
Zn21 O37 2.024 . S
C22 O23 1.229 . S
C22 O31 1.058 . S
O23 C22 1.229 . S
C24 O25 1.229 . S
C24 O37 1.058 . S
O25 C24 1.229 . S
O26 Zn20 1.969 . S
O26 C29 1.267 . S
O27 Zn20 1.965 . S
O27 C38 1.260 . S
O28 Zn21 1.969 . S
O28 C38 1.258 . S
C29 O26 1.267 . S
C29 O30 1.228 . S
O30 C29 1.228 . S
O31 Zn20 2.024 . S
O31 C22 1.058 . S
C32 O33 1.228 . S
C32 O34 1.267 . S
O33 C32 1.228 . S
O34 Zn21 1.969 . S
O34 C32 1.267 . S
O35 Zn21 1.965 . S
O35 C39 1.260 . S
O36 Zn20 1.969 . S
O36 C39 1.258 . S
O37 Zn21 2.024 . S
O37 C24 1.058 . S
C38 O27 1.260 . S
C38 O28 1.258 . S
C39 O35 1.260 . S
C39 O36 1.258 . S
Zn40 O46 1.969 . S
Zn40 O47 1.965 . S
Zn40 O51 2.024 . S
Zn40 O56 1.969 . S
Zn41 O48 1.969 1_554 S
Zn41 O54 1.969 . S
Zn41 O55 1.965 1_554 S
Zn41 O57 2.024 . S
C42 O43 1.229 . S
C42 O51 1.058 . S
O43 C42 1.229 . S
C44 O45 1.229 . S
C44 O57 1.058 . S
O45 C44 1.229 . S
O46 Zn40 1.969 . S
O46 C49 1.267 . S
O47 Zn40 1.965 . S
O47 C58 1.260 . S
O48 Zn41 1.969 1_556 S
O48 C58 1.258 . S
C49 O46 1.267 . S
C49 O50 1.228 . S
O50 C49 1.228 . S
O51 Zn40 2.024 . S
O51 C42 1.058 . S
C52 O53 1.228 . S
C52 O54 1.267 . S
O53 C52 1.228 . S
O54 Zn41 1.969 . S
O54 C52 1.267 . S
O55 Zn41 1.965 1_556 S
O55 C59 1.260 . S
O56 Zn40 1.969 . S
O56 C59 1.258 . S
O57 Zn41 2.024 . S
O57 C44 1.058 . S
C58 O47 1.260 . S
C58 O48 1.258 . S
C59 O55 1.260 . S
C59 O56 1.258 . S
Zn60 O66 1.969 . S
Zn60 O67 1.965 . S
Zn60 O71 2.024 . S
Zn60 O76 1.969 . S
Zn61 O68 1.969 . S
Zn61 O74 1.969 . S
Zn61 O75 1.965 . S
Zn61 O77 2.024 . S
C62 O63 1.229 . S
C62 O71 1.058 . S
O63 C62 1.229 . S
C64 O65 1.229 . S
C64 O77 1.058 . S
O65 C64 1.229 . S
O66 Zn60 1.969 . S
O66 C69 1.267 . S
O67 Zn60 1.965 . S
O67 C78 1.260 . S
O68 Zn61 1.969 . S
O68 C78 1.258 . S
C69 O66 1.267 . S
C69 O70 1.228 . S
O70 C69 1.228 . S
O71 Zn60 2.024 . S
O71 C62 1.058 . S
C72 O73 1.228 . S
C72 O74 1.267 . S
O73 C72 1.228 . S
O74 Zn61 1.969 . S
O74 C72 1.267 . S
O75 Zn61 1.965 . S
O75 C79 1.260 . S
O76 Zn60 1.969 . S
O76 C79 1.258 . S
O77 Zn61 2.024 . S
O77 C64 1.058 . S
C78 O67 1.260 . S
C78 O68 1.258 . S
C79 O75 1.260 . S
C79 O76 1.258 . S
Zn80 O86 1.969 . S
Zn80 O87 1.965 . S
Zn80 O91 2.024 . S
Zn80 O96 1.969 . S
Zn81 O88 1.969 . S
Zn81 O94 1.969 . S
Zn81 O95 1.965 . S
Zn81 O97 2.024 . S
C82 O83 1.229 . S
C82 O91 1.058 . S
O83 C82 1.229 . S
C84 O85 1.229 . S
C84 O97 1.058 . S
O85 C84 1.229 . S
O86 Zn80 1.969 . S
O86 C89 1.267 . S
O87 Zn80 1.965 . S
O87 C98 1.260 . S
O88 Zn81 1.969 . S
O88 C98 1.258 . S
C89 O86 1.267 . S
C89 O90 1.228 . S
O90 C89 1.228 . S
O91 Zn80 2.024 . S
O91 C82 1.058 . S
C92 O93 1.228 . S
C92 O94 1.267 . S
O93 C92 1.228 . S
O94 Zn81 1.969 . S
O94 C92 1.267 . S
O95 Zn81 1.965 . S
O95 C99 1.260 . S
O96 Zn80 1.969 . S
O96 C99 1.258 . S
O97 Zn81 2.024 . S
O97 C84 1.058 . S
C98 O87 1.260 . S
C98 O88 1.258 . S
C99 O95 1.260 . S
C99 O96 1.258 . S
Zn100 O106 1.969 . S
Zn100 O107 1.965 . S
Zn100 O111 2.024 . S
Zn100 O116 1.969 . S
Zn101 O108 1.969 1_554 S
Zn101 O114 1.969 . S
Zn101 O115 1.965 1_554 S
Zn101 O117 2.024 . S
C102 O103 1.229 . S
C102 O111 1.058 . S
O103 C102 1.229 . S
C104 O105 1.229 . S
C104 O117 1.058 . S
O105 C104 1.229 . S
O106 Zn100 1.969 . S
O106 C109 1.267 . S
O107 Zn100 1.965 . S
O107 C118 1.260 . S
O108 Zn101 1.969 1_556 S
O108 C118 1.258 . S
C109 O106 1.267 . S
C109 O110 1.228 . S
O110 C109 1.228 . S
O111 Zn100 2.024 . S
O111 C102 1.058 . S
C112 O113 1.228 . S
C112 O114 1.267 . S
O113 C112 1.228 . S
O114 Zn101 1.969 . S
O114 C112 1.267 . S
O115 Zn101 1.965 1_556 S
O115 C119 1.260 . S
O116 Zn100 1.969 . S
O116 C119 1.258 . S
O117 Zn101 2.024 . S
O117 C104 1.058 . S
C118 O107 1.260 . S
C118 O108 1.258 . S
C119 O115 1.260 . S
C119 O116 1.258 . S
Zn120 O126 1.969 . S
Zn120 O127 1.965 . S
Zn120 O131 2.024 . S
Zn120 O136 1.969 . S
Zn121 O128 1.969 . S
Zn121 O134 1.969 . S
Zn121 O135 1.965 . S
Zn121 O137 2.024 . S
C122 O123 1.229 . S
C122 O131 1.058 . S
O123 C122 1.229 . S
C124 O125 1.229 . S
C124 O137 1.058 . S
O125 C124 1.229 . S
O126 Zn120 1.969 . S
O126 C129 1.267 . S
O127 Zn120 1.965 . S
O127 C138 1.260 . S
O128 Zn121 1.969 . S
O128 C138 1.258 . S
C129 O126 1.267 . S
C129 O130 1.228 . S
O130 C129 1.228 . S
O131 Zn120 2.024 . S
O131 C122 1.058 . S
C132 O133 1.228 . S
C132 O134 1.267 . S
O133 C132 1.228 . S
O134 Zn121 1.969 . S
O134 C132 1.267 . S
O135 Zn121 1.965 . S
O135 C139 1.260 . S
O136 Zn120 1.969 . S
O136 C139 1.258 . S
O137 Zn121 2.024 . S
O137 C124 1.058 . S
C138 O127 1.260 . S
C138 O128 1.258 . S
C139 O135 1.260 . S
C139 O136 1.258 . S
Zn140 O146 1.969 . S
Zn140 O147 1.965 . S
Zn140 O151 2.024 . S
Zn140 O156 1.969 . S
Zn141 O148 1.969 . S
Zn141 O154 1.969 . S
Zn141 O155 1.965 . S
Zn141 O157 2.024 . S
C142 O143 1.229 . S
C142 O151 1.058 . S
O143 C142 1.229 . S
C144 O145 1.229 . S
C144 O157 1.058 . S
O145 C144 1.229 . S
O146 Zn140 1.969 . S
O146 C149 1.267 . S
O147 Zn140 1.965 . S
O147 C158 1.260 . S
O148 Zn141 1.969 . S
O148 C158 1.258 . S
C149 O146 1.267 . S
C149 O150 1.228 . S
O150 C149 1.228 . S
O151 Zn140 2.024 . S
O151 C142 1.058 . S
C152 O153 1.228 . S
C152 O154 1.267 . S
O153 C152 1.228 . S
O154 Zn141 1.969 . S
O154 C152 1.267 . S
O155 Zn141 1.965 . S
O155 C159 1.260 . S
O156 Zn140 1.969 . S
O156 C159 1.258 . S
O157 Zn141 2.024 . S
O157 C144 1.058 . S
C158 O147 1.260 . S
C158 O148 1.258 . S
C159 O155 1.260 . S
C159 O156 1.258 . S
Zn160 O166 1.969 . S
Zn160 O167 1.965 . S
Zn160 O171 2.024 . S
Zn160 O176 1.969 . S
Zn161 O168 1.969 1_556 S
Zn161 O174 1.969 . S
Zn161 O175 1.965 1_556 S
Zn161 O177 2.024 . S
C162 O163 1.229 . S
C162 O171 1.058 . S
O163 C162 1.229 . S
C164 O165 1.229 . S
C164 O177 1.058 . S
O165 C164 1.229 . S
O166 Zn160 1.969 . S
O166 C169 1.267 . S
O167 Zn160 1.965 . S
O167 C178 1.260 . S
O168 Zn161 1.969 1_554 S
O168 C178 1.258 . S
C169 O166 1.267 . S
C169 O170 1.228 . S
O170 C169 1.228 . S
O171 Zn160 2.024 . S
O171 C162 1.058 . S
C172 O173 1.228 . S
C172 O174 1.267 . S
O173 C172 1.228 . S
O174 Zn161 1.969 . S
O174 C172 1.267 . S
O175 Zn161 1.965 1_554 S
O175 C179 1.260 . S
O176 Zn160 1.969 . S
O176 C179 1.258 . S
O177 Zn161 2.024 . S
O177 C164 1.058 . S
C178 O167 1.260 . S
C178 O168 1.258 . S
C179 O175 1.260 . S
C179 O176 1.258 . S
Zn180 O186 1.969 . S
Zn180 O187 1.965 . S
Zn180 O191 2.024 . S
Zn180 O196 1.969 . S
Zn181 O188 1.969 . S
Zn181 O194 1.969 . S
Zn181 O195 1.965 . S
Zn181 O197 2.024 . S
C182 O183 1.229 . S
C182 O191 1.058 . S
O183 C182 1.229 . S
C184 O185 1.229 . S
C184 O197 1.058 . S
O185 C184 1.229 . S
O186 Zn180 1.969 . S
O186 C189 1.267 . S
O187 Zn180 1.965 . S
O187 C198 1.260 . S
O188 Zn181 1.969 . S
O188 C198 1.258 . S
C189 O186 1.267 . S
C189 O190 1.228 . S
O190 C189 1.228 . S
O191 Zn180 2.024 . S
O191 C182 1.058 . S
C192 O193 1.228 . S
C192 O194 1.267 . S
O193 C192 1.228 . S
O194 Zn181 1.969 . S
O194 C192 1.267 . S
O195 Zn181 1.965 . S
O195 C199 1.260 . S
O196 Zn180 1.969 . S
O196 C199 1.258 . S
O197 Zn181 2.024 . S
O197 C184 1.058 . S
C198 O187 1.260 . S
C198 O188 1.258 . S
C199 O195 1.260 . S
C199 O196 1.258 . S
Zn200 O206 1.969 . S
Zn200 O207 1.965 . S
Zn200 O211 2.024 . S
Zn200 O216 1.969 . S
Zn201 O208 1.969 . S
Zn201 O214 1.969 . S
Zn201 O215 1.965 . S
Zn201 O217 2.024 . S
C202 O203 1.229 . S
C202 O211 1.058 . S
O203 C202 1.229 . S
C204 O205 1.229 . S
C204 O217 1.058 . S
O205 C204 1.229 . S
O206 Zn200 1.969 . S
O206 C209 1.267 . S
O207 Zn200 1.965 . S
O207 C218 1.260 . S
O208 Zn201 1.969 . S
O208 C218 1.258 . S
C209 O206 1.267 . S
C209 O210 1.228 . S
O210 C209 1.228 . S
O211 Zn200 2.024 . S
O211 C202 1.058 . S
C212 O213 1.228 . S
C212 O214 1.267 . S
O213 C212 1.228 . S
O214 Zn201 1.969 . S
O214 C212 1.267 . S
O215 Zn201 1.965 . S
O215 C219 1.260 . S
O216 Zn200 1.969 . S
O216 C219 1.258 . S
O217 Zn201 2.024 . S
O217 C204 1.058 . S
C218 O207 1.260 . S
C218 O208 1.258 . S
C219 O215 1.260 . S
C219 O216 1.258 . S
Zn220 O226 1.969 . S
Zn220 O227 1.965 . S
Zn220 O231 2.024 . S
Zn220 O236 1.969 . S
Zn221 O228 1.969 1_556 S
Zn221 O234 1.969 . S
Zn221 O235 1.965 1_556 S
Zn221 O237 2.024 . S
C222 O223 1.229 . S
C222 O231 1.058 . S
O223 C222 1.229 . S
C224 O225 1.229 . S
C224 O237 1.058 . S
O225 C224 1.229 . S
O226 Zn220 1.969 . S
O226 C229 1.267 . S
O227 Zn220 1.965 . S
O227 C238 1.260 . S
O228 Zn221 1.969 1_554 S
O228 C238 1.258 . S
C229 O226 1.267 . S
C229 O230 1.228 . S
O230 C229 1.228 . S
O231 Zn220 2.024 . S
O231 C222 1.058 . S
C232 O233 1.228 . S
C232 O234 1.267 . S
O233 C232 1.228 . S
O234 Zn221 1.969 . S
O234 C232 1.267 . S
O235 Zn221 1.965 1_554 S
O235 C239 1.260 . S
O236 Zn220 1.969 . S
O236 C239 1.258 . S
O237 Zn221 2.024 . S
O237 C224 1.058 . S
C238 O227 1.260 . S
C238 O228 1.258 . S
C239 O235 1.260 . S
C239 O236 1.258 . S
C240 C241 1.387 . S
C240 H244 0.950 . S
C240 C249 1.390 . S
C241 C240 1.387 . S
C241 C243 1.387 . S
H242 C249 0.950 . S
C243 C241 1.387 . S
C243 C245 1.390 . S
C243 H247 0.950 . S
H244 C240 0.950 . S
C245 C243 1.390 . S
C245 C246 1.387 . S
C245 H248 0.950 . S
C246 C245 1.387 . S
C246 C249 1.387 . S
H247 C243 0.950 . S
H248 C245 0.950 . S
C249 C240 1.390 . S
C249 H242 0.950 . S
C249 C246 1.387 . S
C250 C251 1.387 . S
C250 H254 0.950 . S
C250 C259 1.390 . S
C251 C250 1.387 . S
C251 C253 1.387 . S
H252 C259 0.950 . S
C253 C251 1.387 . S
C253 C255 1.390 . S
C253 H257 0.950 . S
H254 C250 0.950 . S
C255 C253 1.390 . S
C255 C256 1.387 . S
C255 H258 0.950 . S
C256 C255 1.387 . S
C256 C259 1.387 . S
H257 C253 0.950 . S
H258 C255 0.950 . S
C259 C250 1.390 . S
C259 H252 0.950 . S
C259 C256 1.387 . S
C260 C261 1.387 . S
C260 H264 0.950 . S
C260 C269 1.390 . S
C261 C260 1.387 . S
C261 C263 1.387 . S
H262 C269 0.950 . S
C263 C261 1.387 . S
C263 C265 1.390 . S
C263 H267 0.950 . S
H264 C260 0.950 . S
C265 C263 1.390 . S
C265 C266 1.387 . S
C265 H268 0.950 . S
C266 C265 1.387 . S
C266 C269 1.387 . S
H267 C263 0.950 . S
H268 C265 0.950 . S
C269 C260 1.390 . S
C269 H262 0.950 . S
C269 C266 1.387 . S
C270 C271 1.387 . S
C270 H274 0.950 . S
C270 C279 1.390 . S
C271 C270 1.387 . S
C271 C273 1.387 . S
H272 C279 0.950 . S
C273 C271 1.387 . S
C273 C275 1.390 . S
C273 H277 0.950 . S
H274 C270 0.950 . S
C275 C273 1.390 . S
C275 C276 1.387 . S
C275 H278 0.950 . S
C276 C275 1.387 . S
C276 C279 1.387 . S
H277 C273 0.950 . S
H278 C275 0.950 . S
C279 C270 1.390 . S
C279 H272 0.950 . S
C279 C276 1.387 . S
C280 C281 1.387 . S
C280 H284 0.950 . S
C280 C289 1.390 . S
C281 C280 1.387 . S
C281 C283 1.387 . S
H282 C289 0.950 . S
C283 C281 1.387 . S
C283 C285 1.390 . S
C283 H287 0.950 . S
H284 C280 0.950 . S
C285 C283 1.390 . S
C285 C286 1.387 . S
C285 H288 0.950 . S
C286 C285 1.387 . S
C286 C289 1.387 . S
H287 C283 0.950 . S
H288 C285 0.950 . S
C289 C280 1.390 . S
C289 H282 0.950 . S
C289 C286 1.387 . S
C290 C291 1.387 . S
C290 H294 0.950 . S
C290 C299 1.390 . S
C291 C290 1.387 . S
C291 C293 1.387 . S
H292 C299 0.950 . S
C293 C291 1.387 . S
C293 C295 1.390 . S
C293 H297 0.950 . S
H294 C290 0.950 . S
C295 C293 1.390 . S
C295 C296 1.387 . S
C295 H298 0.950 . S
C296 C295 1.387 . S
C296 C299 1.387 . S
H297 C293 0.950 . S
H298 C295 0.950 . S
C299 C290 1.390 . S
C299 H292 0.950 . S
C299 C296 1.387 . S
C300 C301 1.387 . S
C300 H304 0.950 . S
C300 C309 1.390 1_556 S
C301 C300 1.387 . S
C301 C303 1.387 . S
H302 C309 0.950 . S
C303 C301 1.387 . S
C303 C305 1.390 1_556 S
C303 H307 0.950 . S
H304 C300 0.950 . S
C305 C303 1.390 1_554 S
C305 C306 1.387 . S
C305 H308 0.950 . S
C306 C305 1.387 . S
C306 C309 1.387 . S
H307 C303 0.950 . S
H308 C305 0.950 . S
C309 C300 1.390 1_554 S
C309 H302 0.950 . S
C309 C306 1.387 . S
C310 C311 1.387 . S
C310 H314 0.950 . S
C310 C319 1.390 . S
C311 C310 1.387 . S
C311 C313 1.387 . S
H312 C319 0.950 . S
C313 C311 1.387 . S
C313 C315 1.390 . S
C313 H317 0.950 . S
H314 C310 0.950 . S
C315 C313 1.390 . S
C315 C316 1.387 . S
C315 H318 0.950 . S
C316 C315 1.387 . S
C316 C319 1.387 . S
H317 C313 0.950 . S
H318 C315 0.950 . S
C319 C310 1.390 . S
C319 H312 0.950 . S
C319 C316 1.387 . S
C320 C321 1.387 . S
C320 H324 0.950 . S
C320 C329 1.390 . S
C321 C320 1.387 . S
C321 C323 1.387 . S
H322 C329 0.950 . S
C323 C321 1.387 . S
C323 C325 1.390 . S
C323 H327 0.950 . S
H324 C320 0.950 . S
C325 C323 1.390 . S
C325 C326 1.387 . S
C325 H328 0.950 . S
C326 C325 1.387 . S
C326 C329 1.387 . S
H327 C323 0.950 . S
H328 C325 0.950 . S
C329 C320 1.390 . S
C329 H322 0.950 . S
C329 C326 1.387 . S
C330 C331 1.387 . S
C330 H334 0.950 . S
C330 C339 1.390 1_556 S
C331 C330 1.387 . S
C331 C333 1.387 . S
H332 C339 0.950 . S
C333 C331 1.387 . S
C333 C335 1.390 1_556 S
C333 H337 0.950 . S
H334 C330 0.950 . S
C335 C333 1.390 1_554 S
C335 C336 1.387 . S
C335 H338 0.950 . S
C336 C335 1.387 . S
C336 C339 1.387 . S
H337 C333 0.950 . S
H338 C335 0.950 . S
C339 C330 1.390 1_554 S
C339 H332 0.950 . S
C339 C336 1.387 . S
C340 C341 1.387 . S
C340 H344 0.950 . S
C340 C349 1.390 . S
C341 C340 1.387 . S
C341 C343 1.387 . S
H342 C349 0.950 . S
C343 C341 1.387 . S
C343 C345 1.390 . S
C343 H347 0.950 . S
H344 C340 0.950 . S
C345 C343 1.390 . S
C345 C346 1.387 . S
C345 H348 0.950 . S
C346 C345 1.387 . S
C346 C349 1.387 . S
H347 C343 0.950 . S
H348 C345 0.950 . S
C349 C340 1.390 . S
C349 H342 0.950 . S
C349 C346 1.387 . S
C350 C351 1.387 . S
C350 H354 0.950 . S
C350 C359 1.390 . S
C351 C350 1.387 . S
C351 C353 1.387 . S
H352 C359 0.950 . S
C353 C351 1.387 . S
C353 C355 1.390 . S
C353 H357 0.950 . S
H354 C350 0.950 . S
C355 C353 1.390 . S
C355 C356 1.387 . S
C355 H358 0.950 . S
C356 C355 1.387 . S
C356 C359 1.387 . S
H357 C353 0.950 . S
H358 C355 0.950 . S
C359 C350 1.390 . S
C359 H352 0.950 . S
C359 C356 1.387 . S
C360 C361 1.387 . S
C360 H364 0.950 . S
C360 C369 1.390 1_566 S
C361 C360 1.387 . S
C361 C363 1.387 . S
H362 C369 0.950 . S
C363 C361 1.387 . S
C363 C365 1.390 1_566 S
C363 H367 0.950 . S
H364 C360 0.950 . S
C365 C363 1.390 1_544 S
C365 C366 1.387 . S
C365 H368 0.950 . S
C366 C365 1.387 . S
C366 C369 1.387 . S
H367 C363 0.950 . S
H368 C365 0.950 . S
C369 C360 1.390 1_544 S
C369 H362 0.950 . S
C369 C366 1.387 . S
C370 C371 1.387 . S
C370 H374 0.950 . S
C370 C379 1.390 . S
C371 C370 1.387 . S
C371 C373 1.387 . S
H372 C379 0.950 . S
C373 C371 1.387 . S
C373 C375 1.390 . S
C373 H377 0.950 . S
H374 C370 0.950 . S
C375 C373 1.390 . S
C375 C376 1.387 . S
C375 H378 0.950 . S
C376 C375 1.387 . S
C376 C379 1.387 . S
H377 C373 0.950 . S
H378 C375 0.950 . S
C379 C370 1.390 . S
C379 H372 0.950 . S
C379 C376 1.387 . S
C380 C381 1.387 . S
C380 H384 0.950 . S
C380 C389 1.390 . S
C381 C380 1.387 . S
C381 C383 1.387 1_455 S
H382 C389 0.950 . S
C383 C381 1.387 1_655 S
C383 C385 1.390 . S
C383 H387 0.950 . S
H384 C380 0.950 . S
C385 C383 1.390 . S
C385 C386 1.387 . S
C385 H388 0.950 . S
C386 C385 1.387 . S
C386 C389 1.387 1_655 S
H387 C383 0.950 . S
H388 C385 0.950 . S
C389 C380 1.390 . S
C389 H382 0.950 . S
C389 C386 1.387 1_455 S
C390 C391 1.387 . S
C390 H394 0.950 . S
C390 C399 1.390 1_564 S
C391 C390 1.387 . S
C391 C393 1.387 . S
H392 C399 0.950 . S
C393 C391 1.387 . S
C393 C395 1.390 1_564 S
C393 H397 0.950 . S
H394 C390 0.950 . S
C395 C393 1.390 1_546 S
C395 C396 1.387 . S
C395 H398 0.950 . S
C396 C395 1.387 . S
C396 C399 1.387 . S
H397 C393 0.950 . S
H398 C395 0.950 . S
C399 C390 1.390 1_546 S
C399 H392 0.950 . S
C399 C396 1.387 . S
C400 C401 1.387 . S
C400 H404 0.950 . S
C400 C409 1.390 . S
C401 C400 1.387 . S
C401 C403 1.387 . S
H402 C409 0.950 . S
C403 C401 1.387 . S
C403 C405 1.390 . S
C403 H407 0.950 . S
H404 C400 0.950 . S
C405 C403 1.390 . S
C405 C406 1.387 . S
C405 H408 0.950 . S
C406 C405 1.387 . S
C406 C409 1.387 . S
H407 C403 0.950 . S
H408 C405 0.950 . S
C409 C400 1.390 . S
C409 H402 0.950 . S
C409 C406 1.387 . S
C410 C411 1.387 1_655 S
C410 H414 0.950 . S
C410 C419 1.390 . S
C411 C410 1.387 1_455 S
C411 C413 1.387 . S
H412 C419 0.950 . S
C413 C411 1.387 . S
C413 C415 1.390 . S
C413 H417 0.950 . S
H414 C410 0.950 . S
C415 C413 1.390 . S
C415 C416 1.387 1_455 S
C415 H418 0.950 . S
C416 C415 1.387 1_655 S
C416 C419 1.387 . S
H417 C413 0.950 . S
H418 C415 0.950 . S
C419 C410 1.390 . S
C419 H412 0.950 . S
C419 C416 1.387 . S
C420 C421 1.387 . S
C420 H424 0.950 . S
C420 C429 1.390 1_545 S
C421 C420 1.387 . S
C421 C423 1.387 . S
H422 C429 0.950 . S
C423 C421 1.387 . S
C423 C425 1.390 1_545 S
C423 H427 0.950 . S
H424 C420 0.950 . S
C425 C423 1.390 1_565 S
C425 C426 1.387 . S
C425 H428 0.950 . S
C426 C425 1.387 . S
C426 C429 1.387 . S
H427 C423 0.950 . S
H428 C425 0.950 . S
C429 C420 1.390 1_565 S
C429 H422 0.950 . S
C429 C426 1.387 . S
C430 C431 1.387 . S
C430 H434 0.950 . S
C430 C439 1.390 . S
C431 C430 1.387 . S
C431 C433 1.387 . S
H432 C439 0.950 . S
C433 C431 1.387 . S
C433 C435 1.390 . S
C433 H437 0.950 . S
H434 C430 0.950 . S
C435 C433 1.390 . S
C435 C436 1.387 . S
C435 H438 0.950 . S
C436 C435 1.387 . S
C436 C439 1.387 . S
H437 C433 0.950 . S
H438 C435 0.950 . S
C439 C430 1.390 . S
C439 H432 0.950 . S
C439 C436 1.387 . S
C440 C441 1.387 . S
C440 H444 0.950 . S
C440 C449 1.390 1_655 S
C441 C440 1.387 . S
C441 C443 1.387 . S
H442 C449 0.950 . S
C443 C441 1.387 . S
C443 C445 1.390 1_655 S
C443 H447 0.950 1_556 S
H444 C440 0.950 . S
C445 C443 1.390 1_455 S
C445 C446 1.387 . S
C445 H448 0.950 1_556 S
C446 C445 1.387 . S
C446 C449 1.387 . S
H447 C443 0.950 1_554 S
H448 C445 0.950 1_554 S
C449 C440 1.390 1_455 S
C449 H442 0.950 . S
C449 C446 1.387 . S
C450 C451 1.387 . S
C450 H454 0.950 . S
C450 C459 1.390 1_455 S
C451 C450 1.387 . S
C451 C453 1.387 . S
H452 C459 0.950 . S
C453 C451 1.387 . S
C453 C455 1.390 1_455 S
C453 H457 0.950 . S
H454 C450 0.950 . S
C455 C453 1.390 1_655 S
C455 C456 1.387 . S
C455 H458 0.950 . S
C456 C455 1.387 . S
C456 C459 1.387 . S
H457 C453 0.950 . S
H458 C455 0.950 . S
C459 C450 1.390 1_655 S
C459 H452 0.950 . S
C459 C456 1.387 . S
C460 C461 1.387 . S
C460 H464 0.950 . S
C460 C469 1.390 1_565 S
C461 C460 1.387 . S
C461 C463 1.387 . S
H462 C469 0.950 . S
C463 C461 1.387 . S
C463 C465 1.390 1_565 S
C463 H467 0.950 . S
H464 C460 0.950 . S
C465 C463 1.390 1_545 S
C465 C466 1.387 . S
C465 H468 0.950 . S
C466 C465 1.387 . S
C466 C469 1.387 . S
H467 C463 0.950 . S
H468 C465 0.950 . S
C469 C460 1.390 1_545 S
C469 H462 0.950 . S
C469 C466 1.387 . S
C470 C471 1.387 . S
C470 H474 0.950 1_554 S
C470 C479 1.390 . S
C471 C470 1.387 . S
C471 C473 1.387 . S
H472 C479 0.950 1_556 S
C473 C471 1.387 . S
C473 C475 1.390 . S
C473 H477 0.950 . S
H474 C470 0.950 1_556 S
C475 C473 1.390 . S
C475 C476 1.387 . S
C475 H478 0.950 . S
C476 C475 1.387 . S
C476 C479 1.387 . S
H477 C473 0.950 . S
H478 C475 0.950 . S
C479 C470 1.390 . S
C479 H472 0.950 1_554 S
C479 C476 1.387 . S
C480 C481 1.387 . S
C480 H484 0.950 . S
C480 C489 1.390 1_565 S
C481 C480 1.387 . S
C481 C483 1.387 . S
H482 C489 0.950 . S
C483 C481 1.387 . S
C483 C485 1.390 1_565 S
C483 H487 0.950 . S
H484 C480 0.950 . S
C485 C483 1.390 1_545 S
C485 C486 1.387 . S
C485 H488 0.950 . S
C486 C485 1.387 . S
C486 C489 1.387 . S
H487 C483 0.950 . S
H488 C485 0.950 . S
C489 C480 1.390 1_545 S
C489 H482 0.950 . S
C489 C486 1.387 . S
C490 C491 1.387 . S
C490 H494 0.950 . S
C490 C499 1.390 . S
C491 C490 1.387 . S
C491 C493 1.387 . S
H492 C499 0.950 . S
C493 C491 1.387 . S
C493 C495 1.390 . S
C493 H497 0.950 . S
H494 C490 0.950 . S
C495 C493 1.390 . S
C495 C496 1.387 . S
C495 H498 0.950 . S
C496 C495 1.387 . S
C496 C499 1.387 . S
H497 C493 0.950 . S
H498 C495 0.950 . S
C499 C490 1.390 . S
C499 H492 0.950 . S
C499 C496 1.387 . S
C500 C501 1.387 . S
C500 H504 0.950 . S
C500 C509 1.390 1_655 S
C501 C500 1.387 . S
C501 C503 1.387 . S
H502 C509 0.950 . S
C503 C501 1.387 . S
C503 C505 1.390 1_655 S
C503 H507 0.950 . S
H504 C500 0.950 . S
C505 C503 1.390 1_455 S
C505 C506 1.387 . S
C505 H508 0.950 . S
C506 C505 1.387 . S
C506 C509 1.387 . S
H507 C503 0.950 . S
H508 C505 0.950 . S
C509 C500 1.390 1_455 S
C509 H502 0.950 . S
C509 C506 1.387 . S
C510 C511 1.387 . S
C510 H514 0.950 . S
C510 C519 1.390 1_545 S
C511 C510 1.387 . S
C511 C513 1.387 . S
H512 C519 0.950 . S
C513 C511 1.387 . S
C513 C515 1.390 1_545 S
C513 H517 0.950 . S
H514 C510 0.950 . S
C515 C513 1.390 1_565 S
C515 C516 1.387 . S
C515 H518 0.950 . S
C516 C515 1.387 . S
C516 C519 1.387 . S
H517 C513 0.950 . S
H518 C515 0.950 . S
C519 C510 1.390 1_565 S
C519 H512 0.950 . S
C519 C516 1.387 . S
C520 C521 1.387 . S
C520 H524 0.950 . S
C520 C529 1.390 . S
C521 C520 1.387 . S
C521 C523 1.387 . S
H522 C529 0.950 . S
C523 C521 1.387 . S
C523 C525 1.390 . S
C523 H527 0.950 . S
H524 C520 0.950 . S
C525 C523 1.390 . S
C525 C526 1.387 . S
C525 H528 0.950 . S
C526 C525 1.387 . S
C526 C529 1.387 . S
H527 C523 0.950 . S
H528 C525 0.950 . S
C529 C520 1.390 . S
C529 H522 0.950 . S
C529 C526 1.387 . S
C530 C531 1.387 . S
C530 H534 0.950 . S
C530 C539 1.390 . S
C531 C530 1.387 . S
C531 C533 1.387 1_455 S
H532 C539 0.950 . S
C533 C531 1.387 1_655 S
C533 C535 1.390 . S
C533 H537 0.950 . S
H534 C530 0.950 . S
C535 C533 1.390 . S
C535 C536 1.387 . S
C535 H538 0.950 . S
C536 C535 1.387 . S
C536 C539 1.387 1_655 S
H537 C533 0.950 . S
H538 C535 0.950 . S
C539 C530 1.390 . S
C539 H532 0.950 . S
C539 C536 1.387 1_455 S
C540 C541 1.387 . S
C540 H544 0.950 . S
C540 C549 1.390 . S
C541 C540 1.387 . S
C541 C543 1.387 . S
H542 C549 0.950 . S
C543 C541 1.387 . S
C543 C545 1.390 . S
C543 H547 0.950 . S
H544 C540 0.950 . S
C545 C543 1.390 . S
C545 C546 1.387 . S
C545 H548 0.950 . S
C546 C545 1.387 . S
C546 C549 1.387 . S
H547 C543 0.950 . S
H548 C545 0.950 . S
C549 C540 1.390 . S
C549 H542 0.950 . S
C549 C546 1.387 . S
C550 C551 1.387 . S
C550 H554 0.950 . S
C550 C559 1.390 . S
C551 C550 1.387 . S
C551 C553 1.387 . S
H552 C559 0.950 . S
C553 C551 1.387 . S
C553 C555 1.390 . S
C553 H557 0.950 . S
H554 C550 0.950 . S
C555 C553 1.390 . S
C555 C556 1.387 . S
C555 H558 0.950 . S
C556 C555 1.387 . S
C556 C559 1.387 . S
H557 C553 0.950 . S
H558 C555 0.950 . S
C559 C550 1.390 . S
C559 H552 0.950 . S
C559 C556 1.387 . S
C560 C561 1.387 . S
C560 H564 0.950 . S
C560 C569 1.390 . S
C561 C560 1.387 . S
C561 C563 1.387 . S
H562 C569 0.950 . S
C563 C561 1.387 . S
C563 C565 1.390 . S
C563 H567 0.950 . S
H564 C560 0.950 . S
C565 C563 1.390 . S
C565 C566 1.387 . S
C565 H568 0.950 . S
C566 C565 1.387 . S
C566 C569 1.387 . S
H567 C563 0.950 . S
H568 C565 0.950 . S
C569 C560 1.390 . S
C569 H562 0.950 . S
C569 C566 1.387 . S
C570 C571 1.387 . S
C570 H574 0.950 . S
C570 C579 1.390 . S
C571 C570 1.387 . S
C571 C573 1.387 . S
H572 C579 0.950 . S
C573 C571 1.387 . S
C573 C575 1.390 . S
C573 H577 0.950 . S
H574 C570 0.950 . S
C575 C573 1.390 . S
C575 C576 1.387 . S
C575 H578 0.950 . S
C576 C575 1.387 . S
C576 C579 1.387 . S
H577 C573 0.950 . S
H578 C575 0.950 . S
C579 C570 1.390 . S
C579 H572 0.950 . S
C579 C576 1.387 . S
C580 C581 1.387 . S
C580 H584 0.950 . S
C580 C589 1.390 . S
C581 C580 1.387 . S
C581 C583 1.387 . S
H582 C589 0.950 . S
C583 C581 1.387 . S
C583 C585 1.390 . S
C583 H587 0.950 . S
H584 C580 0.950 . S
C585 C583 1.390 . S
C585 C586 1.387 . S
C585 H588 0.950 . S
C586 C585 1.387 . S
C586 C589 1.387 . S
H587 C583 0.950 . S
H588 C585 0.950 . S
C589 C580 1.390 . S
C589 H582 0.950 . S
C589 C586 1.387 . S
C590 C591 1.387 . S
C590 H594 0.950 . S
C590 C599 1.390 . S
C591 C590 1.387 . S
C591 C593 1.387 . S
H592 C599 0.950 . S
C593 C591 1.387 . S
C593 C595 1.390 . S
C593 H597 0.950 . S
H594 C590 0.950 . S
C595 C593 1.390 . S
C595 C596 1.387 . S
C595 H598 0.950 . S
C596 C595 1.387 . S
C596 C599 1.387 . S
H597 C593 0.950 . S
H598 C595 0.950 . S
C599 C590 1.390 . S
C599 H592 0.950 . S
C599 C596 1.387 . S
C241 C18 1.255 . S
C246 C178 1.256 . S
C251 C38 1.256 . S
C256 C198 1.255 . S
C261 C58 1.258 . S
C266 C218 1.256 . S
C271 C238 1.258 . S
C276 C78 1.259 . S
C281 C98 1.256 . S
C286 C138 1.255 . S
C291 C158 1.256 . S
C296 C118 1.258 . S
C301 C209 0.977 . S
C306 C9 0.977 . S
C311 C229 0.980 . S
C316 C29 0.981 . S
C321 C49 0.981 . S
C326 C129 0.977 . S
C331 C149 0.977 . S
C336 C69 0.977 . S
C341 C169 0.981 . S
C346 C89 0.977 . S
C351 C109 0.978 . S
C356 C189 0.982 . S
C361 C142 1.488 . S
C366 C2 1.488 . S
C371 C162 1.488 . S
C376 C22 1.488 . S
C381 C182 1.489 . S
C386 C42 1.487 . S
C391 C62 1.488 . S
C396 C202 1.488 . S
C401 C82 1.488 . S
C406 C222 1.488 . S
C411 C102 1.486 . S
C416 C122 1.490 . S
C421 C19 0.859 . S
C426 C79 0.859 . S
C431 C39 0.859 . S
C436 C99 0.859 . S
C441 C59 0.859 . S
C446 C119 0.859 . S
C451 C199 0.859 . S
C456 C139 0.859 . S
C461 C159 0.859 . S
C466 C219 0.859 . S
C471 C239 0.859 . S
C476 C179 0.859 . S
C481 C152 1.374 . S
C486 C12 1.374 . S
C491 C172 1.375 . S
C496 C32 1.374 . S
C501 C52 1.375 . S
C506 C192 1.374 . S
C511 C212 1.374 . S
C516 C72 1.374 . S
C521 C232 1.373 . S
C526 C92 1.376 . S
C531 C112 1.373 . S
C536 C132 1.376 . S
C541 C4 1.671 . S
C546 C204 1.670 . S
C551 C24 1.673 . S
C556 C224 1.670 . S
C561 C44 1.672 . S
C566 C124 1.670 . S
C571 C64 1.673 . S
C576 C144 1.673 . S
C581 C84 1.674 . S
C586 C164 1.672 . S
C591 C184 1.671 . S
C596 C104 1.674 . S
