# Generated by pormake.
# Topology lcs-e, (6)-cn, num edge types: 1
# Building blocks:
#     Node 0, Type 0, BuildingBlock: BETDEL_clean_sbu_0, # of connection points: 6
#     Node 1, Type 0, BuildingBlock: BETDEL_clean_sbu_0, # of connection points: 6
#     Node 2, Type 0, BuildingBlock: BETDEL_clean_sbu_0, # of connection points: 6
#     Node 3, Type 0, BuildingBlock: BETDEL_clean_sbu_0, # of connection points: 6
#     Node 4, Type 0, BuildingBlock: BETDEL_clean_sbu_0, # of connection points: 6
#     Node 5, Type 0, BuildingBlock: BETDEL_clean_sbu_0, # of connection points: 6
#     Node 6, Type 0, BuildingBlock: BETDEL_clean_sbu_0, # of connection points: 6
#     Node 7, Type 0, BuildingBlock: BETDEL_clean_sbu_0, # of connection points: 6
#     Node 8, Type 0, BuildingBlock: BETDEL_clean_sbu_0, # of connection points: 6
#     Node 9, Type 0, BuildingBlock: BETDEL_clean_sbu_0, # of connection points: 6
#     Node 10, Type 0, BuildingBlock: BETDEL_clean_sbu_0, # of connection points: 6
#     Node 11, Type 0, BuildingBlock: BETDEL_clean_sbu_0, # of connection points: 6
#     Node 12, Type 0, BuildingBlock: BETDEL_clean_sbu_0, # of connection points: 6
#     Node 13, Type 0, BuildingBlock: BETDEL_clean_sbu_0, # of connection points: 6
#     Node 14, Type 0, BuildingBlock: BETDEL_clean_sbu_0, # of connection points: 6
#     Node 15, Type 0, BuildingBlock: BETDEL_clean_sbu_0, # of connection points: 6
#     Node 16, Type 0, BuildingBlock: BETDEL_clean_sbu_0, # of connection points: 6
#     Node 17, Type 0, BuildingBlock: BETDEL_clean_sbu_0, # of connection points: 6
#     Node 18, Type 0, BuildingBlock: BETDEL_clean_sbu_0, # of connection points: 6
#     Node 19, Type 0, BuildingBlock: BETDEL_clean_sbu_0, # of connection points: 6
#     Node 20, Type 0, BuildingBlock: BETDEL_clean_sbu_0, # of connection points: 6
#     Node 21, Type 0, BuildingBlock: BETDEL_clean_sbu_0, # of connection points: 6
#     Node 22, Type 0, BuildingBlock: BETDEL_clean_sbu_0, # of connection points: 6
#     Node 23, Type 0, BuildingBlock: BETDEL_clean_sbu_0, # of connection points: 6
#     Node 24, Type 0, BuildingBlock: BETDEL_clean_sbu_0, # of connection points: 6
#     Node 25, Type 0, BuildingBlock: BETDEL_clean_sbu_0, # of connection points: 6
#     Node 26, Type 0, BuildingBlock: BETDEL_clean_sbu_0, # of connection points: 6
#     Node 27, Type 0, BuildingBlock: BETDEL_clean_sbu_0, # of connection points: 6
#     Node 28, Type 0, BuildingBlock: BETDEL_clean_sbu_0, # of connection points: 6
#     Node 29, Type 0, BuildingBlock: BETDEL_clean_sbu_0, # of connection points: 6
#     Node 30, Type 0, BuildingBlock: BETDEL_clean_sbu_0, # of connection points: 6
#     Node 31, Type 0, BuildingBlock: BETDEL_clean_sbu_0, # of connection points: 6
#     Node 32, Type 0, BuildingBlock: BETDEL_clean_sbu_0, # of connection points: 6
#     Node 33, Type 0, BuildingBlock: BETDEL_clean_sbu_0, # of connection points: 6
#     Node 34, Type 0, BuildingBlock: BETDEL_clean_sbu_0, # of connection points: 6
#     Node 35, Type 0, BuildingBlock: BETDEL_clean_sbu_0, # of connection points: 6
#     Node 36, Type 0, BuildingBlock: BETDEL_clean_sbu_0, # of connection points: 6
#     Node 37, Type 0, BuildingBlock: BETDEL_clean_sbu_0, # of connection points: 6
#     Node 38, Type 0, BuildingBlock: BETDEL_clean_sbu_0, # of connection points: 6
#     Node 39, Type 0, BuildingBlock: BETDEL_clean_sbu_0, # of connection points: 6
#     Node 40, Type 0, BuildingBlock: BETDEL_clean_sbu_0, # of connection points: 6
#     Node 41, Type 0, BuildingBlock: BETDEL_clean_sbu_0, # of connection points: 6
#     Node 42, Type 0, BuildingBlock: BETDEL_clean_sbu_0, # of connection points: 6
#     Node 43, Type 0, BuildingBlock: BETDEL_clean_sbu_0, # of connection points: 6
#     Node 44, Type 0, BuildingBlock: BETDEL_clean_sbu_0, # of connection points: 6
#     Node 45, Type 0, BuildingBlock: BETDEL_clean_sbu_0, # of connection points: 6
#     Node 46, Type 0, BuildingBlock: BETDEL_clean_sbu_0, # of connection points: 6
#     Node 47, Type 0, BuildingBlock: BETDEL_clean_sbu_0, # of connection points: 6
#     Edge 48, Type (0, 0), BuildingBlock: ZUJKAS_clean_linker_0, # of connection points: 2
#     Edge 49, Type (0, 0), BuildingBlock: ZUJKAS_clean_linker_0, # of connection points: 2
#     Edge 50, Type (0, 0), BuildingBlock: ZUJKAS_clean_linker_0, # of connection points: 2
#     Edge 51, Type (0, 0), BuildingBlock: ZUJKAS_clean_linker_0, # of connection points: 2
#     Edge 52, Type (0, 0), BuildingBlock: ZUJKAS_clean_linker_0, # of connection points: 2
#     Edge 53, Type (0, 0), BuildingBlock: ZUJKAS_clean_linker_0, # of connection points: 2
#     Edge 54, Type (0, 0), BuildingBlock: ZUJKAS_clean_linker_0, # of connection points: 2
#     Edge 55, Type (0, 0), BuildingBlock: ZUJKAS_clean_linker_0, # of connection points: 2
#     Edge 56, Type (0, 0), BuildingBlock: ZUJKAS_clean_linker_0, # of connection points: 2
#     Edge 57, Type (0, 0), BuildingBlock: ZUJKAS_clean_linker_0, # of connection points: 2
#     Edge 58, Type (0, 0), BuildingBlock: ZUJKAS_clean_linker_0, # of connection points: 2
#     Edge 59, Type (0, 0), BuildingBlock: ZUJKAS_clean_linker_0, # of connection points: 2
#     Edge 60, Type (0, 0), BuildingBlock: ZUJKAS_clean_linker_0, # of connection points: 2
#     Edge 61, Type (0, 0), BuildingBlock: ZUJKAS_clean_linker_0, # of connection points: 2
#     Edge 62, Type (0, 0), BuildingBlock: ZUJKAS_clean_linker_0, # of connection points: 2
#     Edge 63, Type (0, 0), BuildingBlock: ZUJKAS_clean_linker_0, # of connection points: 2
#     Edge 64, Type (0, 0), BuildingBlock: ZUJKAS_clean_linker_0, # of connection points: 2
#     Edge 65, Type (0, 0), BuildingBlock: ZUJKAS_clean_linker_0, # of connection points: 2
#     Edge 66, Type (0, 0), BuildingBlock: ZUJKAS_clean_linker_0, # of connection points: 2
#     Edge 67, Type (0, 0), BuildingBlock: ZUJKAS_clean_linker_0, # of connection points: 2
#     Edge 68, Type (0, 0), BuildingBlock: ZUJKAS_clean_linker_0, # of connection points: 2
#     Edge 69, Type (0, 0), BuildingBlock: ZUJKAS_clean_linker_0, # of connection points: 2
#     Edge 70, Type (0, 0), BuildingBlock: ZUJKAS_clean_linker_0, # of connection points: 2
#     Edge 71, Type (0, 0), BuildingBlock: ZUJKAS_clean_linker_0, # of connection points: 2
#     Edge 72, Type (0, 0), BuildingBlock: ZUJKAS_clean_linker_0, # of connection points: 2
#     Edge 73, Type (0, 0), BuildingBlock: ZUJKAS_clean_linker_0, # of connection points: 2
#     Edge 74, Type (0, 0), BuildingBlock: ZUJKAS_clean_linker_0, # of connection points: 2
#     Edge 75, Type (0, 0), BuildingBlock: ZUJKAS_clean_linker_0, # of connection points: 2
#     Edge 76, Type (0, 0), BuildingBlock: ZUJKAS_clean_linker_0, # of connection points: 2
#     Edge 77, Type (0, 0), BuildingBlock: ZUJKAS_clean_linker_0, # of connection points: 2
#     Edge 78, Type (0, 0), BuildingBlock: ZUJKAS_clean_linker_0, # of connection points: 2
#     Edge 79, Type (0, 0), BuildingBlock: ZUJKAS_clean_linker_0, # of connection points: 2
#     Edge 80, Type (0, 0), BuildingBlock: ZUJKAS_clean_linker_0, # of connection points: 2
#     Edge 81, Type (0, 0), BuildingBlock: ZUJKAS_clean_linker_0, # of connection points: 2
#     Edge 82, Type (0, 0), BuildingBlock: ZUJKAS_clean_linker_0, # of connection points: 2
#     Edge 83, Type (0, 0), BuildingBlock: ZUJKAS_clean_linker_0, # of connection points: 2
#     Edge 84, Type (0, 0), BuildingBlock: ZUJKAS_clean_linker_0, # of connection points: 2
#     Edge 85, Type (0, 0), BuildingBlock: ZUJKAS_clean_linker_0, # of connection points: 2
#     Edge 86, Type (0, 0), BuildingBlock: ZUJKAS_clean_linker_0, # of connection points: 2
#     Edge 87, Type (0, 0), BuildingBlock: ZUJKAS_clean_linker_0, # of connection points: 2
#     Edge 88, Type (0, 0), BuildingBlock: ZUJKAS_clean_linker_0, # of connection points: 2
#     Edge 89, Type (0, 0), BuildingBlock: ZUJKAS_clean_linker_0, # of connection points: 2
#     Edge 90, Type (0, 0), BuildingBlock: ZUJKAS_clean_linker_0, # of connection points: 2
#     Edge 91, Type (0, 0), BuildingBlock: ZUJKAS_clean_linker_0, # of connection points: 2
#     Edge 92, Type (0, 0), BuildingBlock: ZUJKAS_clean_linker_0, # of connection points: 2
#     Edge 93, Type (0, 0), BuildingBlock: ZUJKAS_clean_linker_0, # of connection points: 2
#     Edge 94, Type (0, 0), BuildingBlock: ZUJKAS_clean_linker_0, # of connection points: 2
#     Edge 95, Type (0, 0), BuildingBlock: ZUJKAS_clean_linker_0, # of connection points: 2
#     Edge 96, Type (0, 0), BuildingBlock: ZUJKAS_clean_linker_0, # of connection points: 2
#     Edge 97, Type (0, 0), BuildingBlock: ZUJKAS_clean_linker_0, # of connection points: 2
#     Edge 98, Type (0, 0), BuildingBlock: ZUJKAS_clean_linker_0, # of connection points: 2
#     Edge 99, Type (0, 0), BuildingBlock: ZUJKAS_clean_linker_0, # of connection points: 2
#     Edge 100, Type (0, 0), BuildingBlock: ZUJKAS_clean_linker_0, # of connection points: 2
#     Edge 101, Type (0, 0), BuildingBlock: ZUJKAS_clean_linker_0, # of connection points: 2
#     Edge 102, Type (0, 0), BuildingBlock: ZUJKAS_clean_linker_0, # of connection points: 2
#     Edge 103, Type (0, 0), BuildingBlock: ZUJKAS_clean_linker_0, # of connection points: 2
#     Edge 104, Type (0, 0), BuildingBlock: ZUJKAS_clean_linker_0, # of connection points: 2
#     Edge 105, Type (0, 0), BuildingBlock: ZUJKAS_clean_linker_0, # of connection points: 2
#     Edge 106, Type (0, 0), BuildingBlock: ZUJKAS_clean_linker_0, # of connection points: 2
#     Edge 107, Type (0, 0), BuildingBlock: ZUJKAS_clean_linker_0, # of connection points: 2
#     Edge 108, Type (0, 0), BuildingBlock: ZUJKAS_clean_linker_0, # of connection points: 2
#     Edge 109, Type (0, 0), BuildingBlock: ZUJKAS_clean_linker_0, # of connection points: 2
#     Edge 110, Type (0, 0), BuildingBlock: ZUJKAS_clean_linker_0, # of connection points: 2
#     Edge 111, Type (0, 0), BuildingBlock: ZUJKAS_clean_linker_0, # of connection points: 2
#     Edge 112, Type (0, 0), BuildingBlock: ZUJKAS_clean_linker_0, # of connection points: 2
#     Edge 113, Type (0, 0), BuildingBlock: ZUJKAS_clean_linker_0, # of connection points: 2
#     Edge 114, Type (0, 0), BuildingBlock: ZUJKAS_clean_linker_0, # of connection points: 2
#     Edge 115, Type (0, 0), BuildingBlock: ZUJKAS_clean_linker_0, # of connection points: 2
#     Edge 116, Type (0, 0), BuildingBlock: ZUJKAS_clean_linker_0, # of connection points: 2
#     Edge 117, Type (0, 0), BuildingBlock: ZUJKAS_clean_linker_0, # of connection points: 2
#     Edge 118, Type (0, 0), BuildingBlock: ZUJKAS_clean_linker_0, # of connection points: 2
#     Edge 119, Type (0, 0), BuildingBlock: ZUJKAS_clean_linker_0, # of connection points: 2
#     Edge 120, Type (0, 0), BuildingBlock: ZUJKAS_clean_linker_0, # of connection points: 2
#     Edge 121, Type (0, 0), BuildingBlock: ZUJKAS_clean_linker_0, # of connection points: 2
#     Edge 122, Type (0, 0), BuildingBlock: ZUJKAS_clean_linker_0, # of connection points: 2
#     Edge 123, Type (0, 0), BuildingBlock: ZUJKAS_clean_linker_0, # of connection points: 2
#     Edge 124, Type (0, 0), BuildingBlock: ZUJKAS_clean_linker_0, # of connection points: 2
#     Edge 125, Type (0, 0), BuildingBlock: ZUJKAS_clean_linker_0, # of connection points: 2
#     Edge 126, Type (0, 0), BuildingBlock: ZUJKAS_clean_linker_0, # of connection points: 2
#     Edge 127, Type (0, 0), BuildingBlock: ZUJKAS_clean_linker_0, # of connection points: 2
#     Edge 128, Type (0, 0), BuildingBlock: ZUJKAS_clean_linker_0, # of connection points: 2
#     Edge 129, Type (0, 0), BuildingBlock: ZUJKAS_clean_linker_0, # of connection points: 2
#     Edge 130, Type (0, 0), BuildingBlock: ZUJKAS_clean_linker_0, # of connection points: 2
#     Edge 131, Type (0, 0), BuildingBlock: ZUJKAS_clean_linker_0, # of connection points: 2
#     Edge 132, Type (0, 0), BuildingBlock: ZUJKAS_clean_linker_0, # of connection points: 2
#     Edge 133, Type (0, 0), BuildingBlock: ZUJKAS_clean_linker_0, # of connection points: 2
#     Edge 134, Type (0, 0), BuildingBlock: ZUJKAS_clean_linker_0, # of connection points: 2
#     Edge 135, Type (0, 0), BuildingBlock: ZUJKAS_clean_linker_0, # of connection points: 2
#     Edge 136, Type (0, 0), BuildingBlock: ZUJKAS_clean_linker_0, # of connection points: 2
#     Edge 137, Type (0, 0), BuildingBlock: ZUJKAS_clean_linker_0, # of connection points: 2
#     Edge 138, Type (0, 0), BuildingBlock: ZUJKAS_clean_linker_0, # of connection points: 2
#     Edge 139, Type (0, 0), BuildingBlock: ZUJKAS_clean_linker_0, # of connection points: 2
#     Edge 140, Type (0, 0), BuildingBlock: ZUJKAS_clean_linker_0, # of connection points: 2
#     Edge 141, Type (0, 0), BuildingBlock: ZUJKAS_clean_linker_0, # of connection points: 2
#     Edge 142, Type (0, 0), BuildingBlock: ZUJKAS_clean_linker_0, # of connection points: 2
#     Edge 143, Type (0, 0), BuildingBlock: ZUJKAS_clean_linker_0, # of connection points: 2
#     Edge 144, Type (0, 0), BuildingBlock: ZUJKAS_clean_linker_0, # of connection points: 2
#     Edge 145, Type (0, 0), BuildingBlock: ZUJKAS_clean_linker_0, # of connection points: 2
#     Edge 146, Type (0, 0), BuildingBlock: ZUJKAS_clean_linker_0, # of connection points: 2
#     Edge 147, Type (0, 0), BuildingBlock: ZUJKAS_clean_linker_0, # of connection points: 2
#     Edge 148, Type (0, 0), BuildingBlock: ZUJKAS_clean_linker_0, # of connection points: 2
#     Edge 149, Type (0, 0), BuildingBlock: ZUJKAS_clean_linker_0, # of connection points: 2
#     Edge 150, Type (0, 0), BuildingBlock: ZUJKAS_clean_linker_0, # of connection points: 2
#     Edge 151, Type (0, 0), BuildingBlock: ZUJKAS_clean_linker_0, # of connection points: 2
#     Edge 152, Type (0, 0), BuildingBlock: ZUJKAS_clean_linker_0, # of connection points: 2
#     Edge 153, Type (0, 0), BuildingBlock: ZUJKAS_clean_linker_0, # of connection points: 2
#     Edge 154, Type (0, 0), BuildingBlock: ZUJKAS_clean_linker_0, # of connection points: 2
#     Edge 155, Type (0, 0), BuildingBlock: ZUJKAS_clean_linker_0, # of connection points: 2
#     Edge 156, Type (0, 0), BuildingBlock: ZUJKAS_clean_linker_0, # of connection points: 2
#     Edge 157, Type (0, 0), BuildingBlock: ZUJKAS_clean_linker_0, # of connection points: 2
#     Edge 158, Type (0, 0), BuildingBlock: ZUJKAS_clean_linker_0, # of connection points: 2
#     Edge 159, Type (0, 0), BuildingBlock: ZUJKAS_clean_linker_0, # of connection points: 2
#     Edge 160, Type (0, 0), BuildingBlock: ZUJKAS_clean_linker_0, # of connection points: 2
#     Edge 161, Type (0, 0), BuildingBlock: ZUJKAS_clean_linker_0, # of connection points: 2
#     Edge 162, Type (0, 0), BuildingBlock: ZUJKAS_clean_linker_0, # of connection points: 2
#     Edge 163, Type (0, 0), BuildingBlock: ZUJKAS_clean_linker_0, # of connection points: 2
#     Edge 164, Type (0, 0), BuildingBlock: ZUJKAS_clean_linker_0, # of connection points: 2
#     Edge 165, Type (0, 0), BuildingBlock: ZUJKAS_clean_linker_0, # of connection points: 2
#     Edge 166, Type (0, 0), BuildingBlock: ZUJKAS_clean_linker_0, # of connection points: 2
#     Edge 167, Type (0, 0), BuildingBlock: ZUJKAS_clean_linker_0, # of connection points: 2
#     Edge 168, Type (0, 0), BuildingBlock: ZUJKAS_clean_linker_0, # of connection points: 2
#     Edge 169, Type (0, 0), BuildingBlock: ZUJKAS_clean_linker_0, # of connection points: 2
#     Edge 170, Type (0, 0), BuildingBlock: ZUJKAS_clean_linker_0, # of connection points: 2
#     Edge 171, Type (0, 0), BuildingBlock: ZUJKAS_clean_linker_0, # of connection points: 2
#     Edge 172, Type (0, 0), BuildingBlock: ZUJKAS_clean_linker_0, # of connection points: 2
#     Edge 173, Type (0, 0), BuildingBlock: ZUJKAS_clean_linker_0, # of connection points: 2
#     Edge 174, Type (0, 0), BuildingBlock: ZUJKAS_clean_linker_0, # of connection points: 2
#     Edge 175, Type (0, 0), BuildingBlock: ZUJKAS_clean_linker_0, # of connection points: 2
#     Edge 176, Type (0, 0), BuildingBlock: ZUJKAS_clean_linker_0, # of connection points: 2
#     Edge 177, Type (0, 0), BuildingBlock: ZUJKAS_clean_linker_0, # of connection points: 2
#     Edge 178, Type (0, 0), BuildingBlock: ZUJKAS_clean_linker_0, # of connection points: 2
#     Edge 179, Type (0, 0), BuildingBlock: ZUJKAS_clean_linker_0, # of connection points: 2
#     Edge 180, Type (0, 0), BuildingBlock: ZUJKAS_clean_linker_0, # of connection points: 2
#     Edge 181, Type (0, 0), BuildingBlock: ZUJKAS_clean_linker_0, # of connection points: 2
#     Edge 182, Type (0, 0), BuildingBlock: ZUJKAS_clean_linker_0, # of connection points: 2
#     Edge 183, Type (0, 0), BuildingBlock: ZUJKAS_clean_linker_0, # of connection points: 2
#     Edge 184, Type (0, 0), BuildingBlock: ZUJKAS_clean_linker_0, # of connection points: 2
#     Edge 185, Type (0, 0), BuildingBlock: ZUJKAS_clean_linker_0, # of connection points: 2
#     Edge 186, Type (0, 0), BuildingBlock: ZUJKAS_clean_linker_0, # of connection points: 2
#     Edge 187, Type (0, 0), BuildingBlock: ZUJKAS_clean_linker_0, # of connection points: 2
#     Edge 188, Type (0, 0), BuildingBlock: ZUJKAS_clean_linker_0, # of connection points: 2
#     Edge 189, Type (0, 0), BuildingBlock: ZUJKAS_clean_linker_0, # of connection points: 2
#     Edge 190, Type (0, 0), BuildingBlock: ZUJKAS_clean_linker_0, # of connection points: 2
#     Edge 191, Type (0, 0), BuildingBlock: ZUJKAS_clean_linker_0, # of connection points: 2
# Relax obj value: 0.427
# Max RMSD: 0.318
# Mean RMSD: 0.283
data_MOF--net-lcs-e--node1-BETDEL_clean_sbu_0--edge1-ZUJKAS_clean_linker_0
_symmetry_space_group_name_H-M    P1
_symmetry_Int_Tables_number       1
_symmetry_cell_setting            triclinic
loop_
_symmetry_equiv_pos_as_xyz
'x, y, z'
_cell_length_a     73.421481
_cell_length_b     75.025531
_cell_length_c     72.915766
_cell_angle_alpha  88.963344
_cell_angle_beta   89.868873
_cell_angle_gamma 88.518689
loop_
_atom_site_label
_atom_site_type_symbol
_atom_site_fract_x
_atom_site_fract_y
_atom_site_fract_z
_atom_type_partial_charge
Dy0 Dy 0.00399 0.37359 0.2596 0.0
C1 C 0.02471 0.42943 0.30865 0.0
C2 C 0.00364 0.34086 0.24311 0.0
Dy3 Dy 0.01772 0.40162 0.28649 0.0
O4 O 0.99001 0.35241 0.24303 0.0
O5 O 0.01736 0.34765 0.25141 0.0
O6 O 0.98242 0.39419 0.24905 0.0
O7 O 0.0072 0.40217 0.25914 0.0
C8 C 0.99199 0.40783 0.25374 0.0
C9 C 0.03291 0.36907 0.29037 0.0
O10 O 0.99015 0.39531 0.29838 0.0
O11 O 0.98597 0.36856 0.28372 0.0
O12 O 0.02684 0.41269 0.31311 0.0
O13 O 0.01848 0.43106 0.29201 0.0
O14 O 0.04154 0.38376 0.29262 0.0
O15 O 0.01629 0.37258 0.28703 0.0
O16 O 0.03145 0.38013 0.24727 0.0
O17 O 0.03832 0.40505 0.26436 0.0
C18 C 0.98157 0.38005 0.29668 0.0
C19 C 0.04214 0.39364 0.25111 0.0
Dy20 Dy 0.87115 0.75823 0.5439 0.0
C21 C 0.84733 0.81386 0.4936 0.0
C22 C 0.88601 0.73671 0.57052 0.0
Dy23 Dy 0.86291 0.78741 0.51475 0.0
O24 O 0.8804 0.75305 0.57253 0.0
O25 O 0.88344 0.73174 0.55368 0.0
O26 O 0.84409 0.76356 0.55734 0.0
O27 O 0.85765 0.78431 0.54385 0.0
C28 C 0.84306 0.78004 0.55168 0.0
C29 C 0.8927 0.76758 0.5073 0.0
O30 O 0.88136 0.80238 0.53304 0.0
O31 O 0.89427 0.777 0.54677 0.0
O32 O 0.85414 0.799 0.48736 0.0
O33 O 0.84925 0.8143 0.51126 0.0
O34 O 0.88988 0.78379 0.5012 0.0
O35 O 0.8784 0.76182 0.51502 0.0
O36 O 0.84839 0.74466 0.52957 0.0
O37 O 0.8389 0.76971 0.51247 0.0
C38 C 0.89401 0.79443 0.54349 0.0
C39 C 0.83632 0.75331 0.51888 0.0
Dy40 Dy 0.46598 0.61304 0.74648 0.0
C41 C 0.5077 0.63647 0.80839 0.0
C42 C 0.45158 0.59885 0.71563 0.0
Dy43 Dy 0.48972 0.62184 0.78005 0.0
O44 O 0.44809 0.61486 0.72145 0.0
O45 O 0.46352 0.59094 0.72628 0.0
O46 O 0.44095 0.6244 0.76041 0.0
O47 O 0.46683 0.63447 0.76577 0.0
C48 C 0.45024 0.63536 0.77012 0.0
C49 C 0.49703 0.58964 0.76586 0.0
O50 O 0.46589 0.60924 0.79374 0.0
O51 O 0.45609 0.59404 0.76827 0.0
O52 O 0.51547 0.62994 0.79383 0.0
O53 O 0.49012 0.63498 0.80746 0.0
O54 O 0.49999 0.59364 0.78276 0.0
O55 O 0.49267 0.60364 0.75664 0.0
O56 O 0.48112 0.63653 0.73445 0.0
O57 O 0.49827 0.64335 0.7602 0.0
C58 C 0.45559 0.59716 0.78613 0.0
C59 C 0.49263 0.64692 0.74319 0.0
Dy60 Dy 0.61793 0.22251 0.01435 0.0
C61 C 0.60174 0.26904 0.07487 0.0
C62 C 0.63075 0.20358 0.9853 0.0
Dy63 Dy 0.61289 0.24934 0.04589 0.0
O64 O 0.61553 0.20084 0.99379 0.0
O65 O 0.63896 0.21684 0.99256 0.0
O66 O 0.59534 0.20547 0.02574 0.0
O67 O 0.61049 0.22088 0.04311 0.0
C68 C 0.59681 0.21128 0.04233 0.0
C69 C 0.63842 0.25855 0.02143 0.0
O70 O 0.63503 0.23157 0.05804 0.0
O71 O 0.64238 0.21562 0.03178 0.0
O72 O 0.61013 0.25363 0.0761 0.0
O73 O 0.59934 0.27371 0.05779 0.0
O74 O 0.63694 0.26501 0.03776 0.0
O75 O 0.62379 0.25055 0.01788 0.0
O76 O 0.59326 0.23792 0.00424 0.0
O77 O 0.58525 0.24873 0.03282 0.0
C78 C 0.64567 0.2201 0.04898 0.0
C79 C 0.58107 0.24501 0.01565 0.0
Dy80 Dy 0.00026 0.63238 0.22124 0.0
C81 C 0.05264 0.61216 0.27712 0.0
C82 C 0.97701 0.64484 0.19466 0.0
Dy83 Dy 0.02689 0.6263 0.25379 0.0
O84 O 0.99246 0.6366 0.19189 0.0
O85 O 0.97407 0.64646 0.21218 0.0
O86 O 0.01008 0.60634 0.20898 0.0
O87 O 0.02749 0.62109 0.22493 0.0
C88 C 0.02588 0.60656 0.21696 0.0
C89 C 0.00416 0.65437 0.25864 0.0
O90 O 0.04404 0.64145 0.23339 0.0
O91 O 0.02005 0.6545 0.21707 0.0
O92 O 0.05069 0.62897 0.27285 0.0
O93 O 0.04041 0.60312 0.26882 0.0
O94 O 0.01897 0.65144 0.268 0.0
O95 O 0.00045 0.64032 0.24998 0.0
O96 O 0.98634 0.60928 0.23487 0.0
O97 O 0.00894 0.60241 0.25643 0.0
C98 C 0.03757 0.65368 0.22146 0.0
C99 C 0.99385 0.59841 0.24751 0.0
Dy100 Dy 0.62128 0.79111 0.4994 0.0
C101 C 0.61984 0.74119 0.44067 0.0
C102 C 0.62541 0.8132 0.52821 0.0
Dy103 Dy 0.62206 0.76118 0.47135 0.0
O104 O 0.61707 0.81727 0.513 0.0
O105 O 0.63114 0.79662 0.52806 0.0
O106 O 0.61314 0.81131 0.47784 0.0
O107 O 0.60512 0.78474 0.4756 0.0
C108 C 0.60564 0.7997 0.46745 0.0
C109 C 0.64416 0.75477 0.50089 0.0
O110 O 0.6416 0.78024 0.45833 0.0
O111 O 0.64664 0.79756 0.48385 0.0
O112 O 0.61818 0.73508 0.45735 0.0
O113 O 0.62306 0.7581 0.4408 0.0
O114 O 0.63577 0.74254 0.49207 0.0
O115 O 0.64051 0.76941 0.49292 0.0
O116 O 0.59696 0.7755 0.50911 0.0
O117 O 0.59385 0.75853 0.4831 0.0
C118 C 0.65023 0.79316 0.46664 0.0
C119 C 0.58741 0.76456 0.49893 0.0
Dy120 Dy 0.50121 0.37093 0.7151 0.0
C121 C 0.43585 0.3747 0.75887 0.0
C122 C 0.53233 0.36485 0.69546 0.0
Dy123 Dy 0.46843 0.37062 0.74127 0.0
O124 O 0.52133 0.37854 0.6934 0.0
O125 O 0.52671 0.35474 0.70891 0.0
O126 O 0.48471 0.3846 0.69302 0.0
O127 O 0.47852 0.38917 0.7208 0.0
C128 C 0.47332 0.39192 0.70449 0.0
C129 C 0.49327 0.34337 0.74766 0.0
O130 O 0.45649 0.3575 0.71681 0.0
O131 O 0.48387 0.35068 0.70203 0.0
O132 O 0.43776 0.37174 0.74148 0.0
O133 O 0.45171 0.3752 0.76665 0.0
O134 O 0.48362 0.3512 0.76026 0.0
O135 O 0.48873 0.35064 0.73265 0.0
O136 O 0.51073 0.38998 0.73663 0.0
O137 O 0.48233 0.39564 0.74944 0.0
C138 C 0.46593 0.34948 0.70365 0.0
C139 C 0.49963 0.39987 0.747 0.0
Dy140 Dy 0.86298 0.24244 0.95786 0.0
C141 C 0.86527 0.18016 0.00507 0.0
C142 C 0.86652 0.27195 0.93576 0.0
Dy143 Dy 0.8651 0.2121 0.9865 0.0
O144 O 0.85455 0.25972 0.9338 0.0
O145 O 0.8761 0.2685 0.95046 0.0
O146 O 0.85365 0.22373 0.93632 0.0
O147 O 0.84714 0.21897 0.96393 0.0
C148 C 0.84669 0.2126 0.94807 0.0
C149 C 0.88761 0.23947 0.99379 0.0
O150 O 0.88174 0.20053 0.9636 0.0
O151 O 0.88712 0.22691 0.94763 0.0
O152 O 0.87147 0.18265 0.98859 0.0
O153 O 0.85904 0.19516 0.01151 0.0
O154 O 0.87957 0.22973 0.00611 0.0
O155 O 0.88338 0.23358 0.97835 0.0
O156 O 0.84044 0.25116 0.9772 0.0
O157 O 0.83685 0.22356 0.99133 0.0
C158 C 0.88987 0.20952 0.95024 0.0
C159 C 0.83072 0.24004 0.98746 0.0
Dy160 Dy 0.2981 0.0032 0.36566 0.0
C161 C 0.25834 0.06943 0.37316 0.0
C162 C 0.31348 0.97069 0.35802 0.0
Dy163 Dy 0.27408 0.03675 0.36763 0.0
O164 O 0.31828 0.98081 0.37134 0.0
O165 O 0.29989 0.97816 0.34915 0.0
O166 O 0.32177 0.01766 0.37714 0.0
O167 O 0.29504 0.02483 0.38494 0.0
C168 C 0.31153 0.02904 0.38596 0.0
C169 C 0.26295 0.01314 0.34236 0.0
O170 O 0.29695 0.04686 0.3501 0.0
O171 O 0.31072 0.01951 0.34321 0.0
O172 O 0.24959 0.05477 0.3714 0.0
O173 O 0.27573 0.06634 0.37158 0.0
O174 O 0.25214 0.02338 0.35183 0.0
O175 O 0.27906 0.01667 0.34659 0.0
O176 O 0.27738 0.99455 0.38693 0.0
O177 O 0.26665 0.02286 0.39397 0.0
C178 C 0.30933 0.03712 0.34121 0.0
C179 C 0.26798 0.00552 0.39775 0.0
Dy180 Dy 0.21684 0.00544 0.62483 0.0
C181 C 0.2623 0.06413 0.60511 0.0
C182 C 0.19184 0.98214 0.63791 0.0
Dy183 Dy 0.24408 0.03553 0.61832 0.0
O184 O 0.18863 0.99863 0.6332 0.0
O185 O 0.20904 0.97804 0.63545 0.0
O186 O 0.20319 0.01292 0.59794 0.0
O187 O 0.21536 0.03236 0.61362 0.0
C188 C 0.20769 0.0295 0.59865 0.0
C189 C 0.25268 0.01487 0.64728 0.0
O190 O 0.22562 0.04875 0.63857 0.0
O191 O 0.21259 0.02274 0.64942 0.0
O192 O 0.27002 0.04916 0.61054 0.0
O193 O 0.24475 0.06337 0.6068 0.0
O194 O 0.25806 0.0311 0.64487 0.0
O195 O 0.24528 0.00938 0.6327 0.0
O196 O 0.23248 0.99323 0.60144 0.0
O197 O 0.24775 0.019 0.59321 0.0
C198 C 0.21543 0.04007 0.6506 0.0
C199 C 0.24273 0.00252 0.58984 0.0
Dy200 Dy 0.23532 0.96252 0.8737 0.0
C201 C 0.17953 0.01762 0.86906 0.0
C202 C 0.26415 0.93931 0.87731 0.0
Dy203 Dy 0.20839 0.99451 0.87367 0.0
O204 O 0.25036 0.93734 0.86653 0.0
O205 O 0.26229 0.95411 0.88625 0.0
O206 O 0.2141 0.94432 0.86368 0.0
O207 O 0.21274 0.9716 0.85632 0.0
C208 C 0.20435 0.95709 0.856 0.0
C209 C 0.23629 0.99684 0.89826 0.0
O210 O 0.19332 0.97458 0.8909 0.0
O211 O 0.21798 0.95546 0.89783 0.0
O212 O 0.17846 0.00131 0.87515 0.0
O213 O 0.19642 0.02144 0.86602 0.0
O214 O 0.22824 0.01048 0.89022 0.0
O215 O 0.22823 0.98327 0.89313 0.0
O216 O 0.24745 0.9798 0.85156 0.0
O217 O 0.22177 0.99748 0.84597 0.0
C218 C 0.20071 0.96073 0.90003 0.0
C219 C 0.23805 0.9912 0.84094 0.0
Dy220 Dy 0.25433 0.95799 0.12034 0.0
C221 C 0.32294 0.9922 0.12969 0.0
C222 C 0.22333 0.94113 0.11086 0.0
Dy223 Dy 0.28851 0.98129 0.12258 0.0
O224 O 0.23204 0.93885 0.12624 0.0
O225 O 0.23107 0.95343 0.10099 0.0
O226 O 0.26823 0.93613 0.13688 0.0
O227 O 0.27489 0.96286 0.14077 0.0
C228 C 0.27913 0.94692 0.14491 0.0
C229 C 0.26637 0.98935 0.09359 0.0
O230 O 0.30022 0.95633 0.11034 0.0
O231 O 0.2734 0.94259 0.10237 0.0
O232 O 0.30865 0.00277 0.1283 0.0
O233 O 0.3184 0.97591 0.12687 0.0
O234 O 0.27655 0.00081 0.10161 0.0
O235 O 0.26974 0.97427 0.10081 0.0
O236 O 0.2438 0.98008 0.13862 0.0
O237 O 0.27188 0.99162 0.14618 0.0
C238 C 0.29141 0.94328 0.10252 0.0
C239 C 0.25407 0.99032 0.14893 0.0
Dy240 Dy 0.3622 0.24384 0.04538 0.0
C241 C 0.3547 0.30485 0.99709 0.0
C242 C 0.36823 0.21453 0.06726 0.0
Dy243 Dy 0.3606 0.27378 0.01629 0.0
O244 O 0.35549 0.22657 0.06962 0.0
O245 O 0.37742 0.21819 0.05243 0.0
O246 O 0.35054 0.26214 0.06652 0.0
O247 O 0.34327 0.26565 0.03874 0.0
C248 C 0.34198 0.27219 0.05449 0.0
C249 C 0.38649 0.24801 0.00962 0.0
O250 O 0.37755 0.28638 0.03797 0.0
O251 O 0.38475 0.26074 0.05517 0.0
O252 O 0.35563 0.28913 0.98992 0.0
O253 O 0.35745 0.30362 0.01464 0.0
O254 O 0.37752 0.25693 0.99698 0.0
O255 O 0.38129 0.2539 0.02484 0.0
O256 O 0.34096 0.23324 0.02628 0.0
O257 O 0.33435 0.26 0.01114 0.0
C258 C 0.38657 0.27799 0.05147 0.0
C259 C 0.33016 0.24336 0.01555 0.0
Dy260 Dy 0.00114 0.87334 0.21595 0.0
C261 C 0.9348 0.87968 0.25801 0.0
C262 C 0.03302 0.86562 0.19831 0.0
Dy263 Dy 0.96765 0.87431 0.24123 0.0
O264 O 0.02239 0.87935 0.19487 0.0
O265 O 0.02653 0.85636 0.21199 0.0
O266 O 0.98599 0.88702 0.19304 0.0
O267 O 0.97864 0.89213 0.22046 0.0
C268 C 0.97415 0.89461 0.20386 0.0
C269 C 0.99152 0.84635 0.24843 0.0
O270 O 0.95602 0.86092 0.21676 0.0
O271 O 0.98348 0.85377 0.20228 0.0
O272 O 0.93701 0.87647 0.24069 0.0
O273 O 0.9505 0.87968 0.26616 0.0
O274 O 0.98177 0.8545 0.26075 0.0
O275 O 0.98754 0.85369 0.23331 0.0
O276 O 0.01045 0.89284 0.23701 0.0
O277 O 0.98198 0.89924 0.24933 0.0
C278 C 0.96548 0.85289 0.20361 0.0
C279 C 0.99938 0.90313 0.24694 0.0
Dy280 Dy 0.12289 0.72214 0.52438 0.0
C281 C 0.10883 0.77362 0.57963 0.0
C282 C 0.13377 0.69874 0.49837 0.0
Dy283 Dy 0.1193 0.75087 0.55293 0.0
O284 O 0.13225 0.69508 0.51572 0.0
O285 O 0.12939 0.71538 0.49502 0.0
O286 O 0.09815 0.7082 0.53528 0.0
O287 O 0.11425 0.72251 0.55296 0.0
C288 C 0.09969 0.71417 0.55179 0.0
C289 C 0.14587 0.75727 0.52873 0.0
O290 O 0.13846 0.73174 0.56731 0.0
O291 O 0.14854 0.71809 0.54087 0.0
O292 O 0.11727 0.75841 0.5824 0.0
O293 O 0.10615 0.7765 0.56223 0.0
O294 O 0.1451 0.76385 0.54502 0.0
O295 O 0.13091 0.74997 0.52505 0.0
O296 O 0.0973 0.73571 0.51375 0.0
O297 O 0.0915 0.75144 0.54025 0.0
C298 C 0.15007 0.72097 0.55867 0.0
C299 C 0.08623 0.74544 0.5242 0.0
Dy300 Dy 0.98486 0.59772 0.71528 0.0
C301 C 0.99238 0.66281 0.75529 0.0
C302 C 0.9818 0.56803 0.69466 0.0
Dy303 Dy 0.99208 0.62883 0.74164 0.0
O304 O 0.98194 0.58432 0.6883 0.0
O305 O 0.98432 0.56795 0.71234 0.0
O306 O 0.95744 0.60985 0.7089 0.0
O307 O 0.97887 0.62637 0.71502 0.0
C308 C 0.96209 0.62615 0.71151 0.0
C309 C 0.00532 0.59589 0.75168 0.0
O310 O 0.96478 0.61972 0.751 0.0
O311 O 0.96758 0.59113 0.7397 0.0
O312 O 0.00622 0.65148 0.75581 0.0
O313 O 0.97852 0.65524 0.74794 0.0
O314 O 0.99925 0.60753 0.76345 0.0
O315 O 0.00489 0.60291 0.73596 0.0
O316 O 0.00875 0.6096 0.70089 0.0
O317 O 0.0118 0.63482 0.71888 0.0
C318 C 0.95918 0.60313 0.75006 0.0
C319 C 0.01624 0.62513 0.70435 0.0
Dy320 Dy 0.1401 0.21505 0.47893 0.0
C321 C 0.12517 0.2759 0.43194 0.0
C322 C 0.14744 0.18305 0.49586 0.0
Dy323 Dy 0.13556 0.24577 0.45084 0.0
O324 O 0.14628 0.19825 0.5041 0.0
O325 O 0.14446 0.18533 0.47843 0.0
O326 O 0.1238 0.23061 0.49988 0.0
O327 O 0.11845 0.23452 0.47233 0.0
C328 C 0.11409 0.23982 0.48802 0.0
C329 C 0.15616 0.21846 0.43962 0.0
O330 O 0.15862 0.25615 0.46803 0.0
O331 O 0.16596 0.22963 0.4835 0.0
O332 O 0.13777 0.26458 0.42683 0.0
O333 O 0.11871 0.27111 0.44786 0.0
O334 O 0.14651 0.22854 0.42842 0.0
O335 O 0.15563 0.22456 0.4556 0.0
O336 O 0.12145 0.2027 0.45863 0.0
O337 O 0.11327 0.22825 0.44171 0.0
C338 C 0.16981 0.24625 0.47863 0.0
C339 C 0.11167 0.21102 0.44563 0.0
Dy340 Dy 0.50088 0.38168 0.22023 0.0
C341 C 0.5399 0.40448 0.28431 0.0
C342 C 0.48283 0.3678 0.19155 0.0
Dy343 Dy 0.52463 0.38967 0.25425 0.0
O344 O 0.47505 0.37384 0.20635 0.0
O345 O 0.50038 0.36941 0.19245 0.0
O346 O 0.49144 0.4101 0.2174 0.0
O347 O 0.49843 0.40004 0.24362 0.0
C348 C 0.49457 0.4141 0.23426 0.0
C349 C 0.5398 0.36682 0.23077 0.0
O350 O 0.50871 0.36661 0.26609 0.0
O351 O 0.49208 0.36005 0.23987 0.0
O352 O 0.54252 0.38806 0.27931 0.0
O353 O 0.52809 0.41231 0.27347 0.0
O354 O 0.54945 0.37719 0.24081 0.0
O355 O 0.52322 0.36857 0.23484 0.0
O356 O 0.52541 0.39314 0.20678 0.0
O357 O 0.53542 0.40806 0.23234 0.0
C358 C 0.49738 0.35629 0.25698 0.0
C359 C 0.53606 0.40482 0.21451 0.0
Dy360 Dy 0.38774 0.75579 0.95585 0.0
C361 C 0.3801 0.79696 0.02037 0.0
C362 C 0.39177 0.73702 0.9244 0.0
Dy363 Dy 0.38631 0.78093 0.98772 0.0
O364 O 0.39128 0.73014 0.94082 0.0
O365 O 0.38999 0.75427 0.92506 0.0
O366 O 0.37099 0.73618 0.97232 0.0
O367 O 0.36676 0.76304 0.97605 0.0
C368 C 0.3618 0.74797 0.98153 0.0
C369 C 0.40583 0.79309 0.95964 0.0
O370 O 0.40723 0.76061 0.99788 0.0
O371 O 0.41445 0.74912 0.9696 0.0
O372 O 0.39262 0.8013 0.00866 0.0
O373 O 0.37097 0.78368 0.0143 0.0
O374 O 0.39742 0.80337 0.97127 0.0
O375 O 0.40528 0.77689 0.96492 0.0
O376 O 0.37164 0.77857 0.9432 0.0
O377 O 0.36422 0.79325 0.97017 0.0
C378 C 0.41836 0.7513 0.98714 0.0
C379 C 0.36285 0.79142 0.95214 0.0
Dy380 Dy 0.96592 0.37185 0.7478 0.0
C381 C 0.01492 0.35883 0.80834 0.0
C382 C 0.94013 0.38208 0.72276 0.0
Dy383 Dy 0.99241 0.36906 0.78031 0.0
O384 O 0.93712 0.37318 0.73782 0.0
O385 O 0.95737 0.38529 0.72118 0.0
O386 O 0.97411 0.34569 0.73627 0.0
O387 O 0.9932 0.35926 0.75204 0.0
C388 C 0.98949 0.34442 0.74489 0.0
C389 C 0.96522 0.39341 0.7837 0.0
O390 O 0.00461 0.39265 0.76584 0.0
O391 O 0.97961 0.39846 0.74701 0.0
O392 O 0.99842 0.36509 0.81003 0.0
O393 O 0.01944 0.35812 0.79107 0.0
O394 O 0.98094 0.39503 0.79156 0.0
O395 O 0.96471 0.3785 0.77632 0.0
O396 O 0.94977 0.35553 0.7679 0.0
O397 O 0.97441 0.34565 0.78534 0.0
C398 C 0.99511 0.40341 0.75453 0.0
C399 C 0.95701 0.34477 0.78075 0.0
Dy400 Dy 0.39051 0.23662 0.52117 0.0
C401 C 0.37717 0.19015 0.46016 0.0
C402 C 0.40041 0.2563 0.55004 0.0
Dy403 Dy 0.38593 0.20924 0.49031 0.0
O404 O 0.39752 0.26271 0.53356 0.0
O405 O 0.39807 0.23919 0.55064 0.0
O406 O 0.36309 0.24882 0.5163 0.0
O407 O 0.37674 0.23696 0.49418 0.0
C408 C 0.36157 0.2437 0.49953 0.0
C409 C 0.4019 0.19638 0.52097 0.0
O410 O 0.41224 0.22178 0.48094 0.0
O411 O 0.41602 0.2413 0.50514 0.0
O412 O 0.39263 0.18898 0.4688 0.0
O413 O 0.36677 0.20234 0.46758 0.0
O414 O 0.39198 0.1867 0.51052 0.0
O415 O 0.40361 0.2116 0.51377 0.0
O416 O 0.37245 0.21675 0.53476 0.0
O417 O 0.3614 0.20493 0.50789 0.0
C418 C 0.42198 0.23358 0.48995 0.0
C419 C 0.36066 0.20701 0.52589 0.0
Dy420 Dy 0.53567 0.63139 0.25391 0.0
C421 C 0.46874 0.64289 0.29414 0.0
C422 C 0.56944 0.62516 0.23935 0.0
Dy423 Dy 0.50111 0.63421 0.27788 0.0
O424 O 0.56623 0.62955 0.25621 0.0
O425 O 0.55422 0.62431 0.23041 0.0
O426 O 0.52294 0.65082 0.23309 0.0
O427 O 0.51587 0.65264 0.26024 0.0
C428 C 0.51257 0.6593 0.24466 0.0
C429 C 0.52691 0.61244 0.29152 0.0
O430 O 0.49217 0.61461 0.25659 0.0
O431 O 0.521 0.60673 0.24601 0.0
O432 O 0.47832 0.62839 0.29728 0.0
O433 O 0.47657 0.65244 0.28146 0.0
O434 O 0.51494 0.6207 0.30169 0.0
O435 O 0.5231 0.61467 0.27473 0.0
O436 O 0.54672 0.64465 0.2786 0.0
O437 O 0.51913 0.65346 0.29196 0.0
C438 C 0.50333 0.60362 0.2475 0.0
C439 C 0.53723 0.65346 0.29117 0.0
Dy440 Dy 0.13317 0.77721 0.00785 0.0
C441 C 0.12906 0.72474 0.06612 0.0
C442 C 0.13919 0.80577 0.98529 0.0
Dy443 Dy 0.13556 0.74937 0.03892 0.0
O444 O 0.12379 0.79782 0.98695 0.0
O445 O 0.15139 0.79792 0.99569 0.0
O446 O 0.10814 0.76679 0.99577 0.0
O447 O 0.12578 0.74886 0.01039 0.0
C448 C 0.10996 0.75111 0.00336 0.0
C449 C 0.15538 0.7788 0.04327 0.0
O450 O 0.15893 0.73886 0.02214 0.0
O451 O 0.16023 0.76338 0.00221 0.0
O452 O 0.14075 0.73733 0.06684 0.0
O453 O 0.12112 0.72521 0.05019 0.0
O454 O 0.16033 0.76325 0.04991 0.0
O455 O 0.13986 0.77777 0.03639 0.0
O456 O 0.11501 0.78999 0.02908 0.0
O457 O 0.10955 0.76428 0.04584 0.0
C458 C 0.16749 0.74842 0.00943 0.0
C459 C 0.10555 0.7812 0.04173 0.0
Dy460 Dy 0.72991 0.95661 0.63139 0.0
C461 C 0.69049 0.02148 0.64861 0.0
C462 C 0.74195 0.92331 0.62249 0.0
Dy463 Dy 0.706 0.99043 0.6368 0.0
O464 O 0.75242 0.9363 0.62675 0.0
O465 O 0.72499 0.92845 0.6233 0.0
O466 O 0.75224 0.96803 0.64859 0.0
O467 O 0.72534 0.9751 0.65381 0.0
C468 C 0.74146 0.97805 0.65842 0.0
C469 C 0.69183 0.96613 0.61527 0.0
O470 O 0.72567 0.00031 0.61511 0.0
O471 O 0.73761 0.97272 0.60644 0.0
O472 O 0.68654 0.01372 0.63339 0.0
O473 O 0.70359 0.01263 0.65693 0.0
O474 O 0.68191 0.97694 0.62512 0.0
O475 O 0.70836 0.97023 0.61612 0.0
O476 O 0.70768 0.94557 0.64913 0.0
O477 O 0.69325 0.9722 0.65754 0.0
C478 C 0.73527 0.99016 0.60359 0.0
C479 C 0.69504 0.95455 0.65848 0.0
Dy480 Dy 0.75358 0.97109 0.37789 0.0
C481 C 0.8011 0.03084 0.37028 0.0
C482 C 0.7379 0.93884 0.38281 0.0
Dy483 Dy 0.78146 0.00102 0.37654 0.0
O484 O 0.72922 0.95415 0.38343 0.0
O485 O 0.75499 0.94119 0.3793 0.0
O486 O 0.73359 0.98775 0.36101 0.0
O487 O 0.7612 0.99122 0.35745 0.0
C488 C 0.74575 0.99702 0.35237 0.0
C489 C 0.79129 0.97221 0.39626 0.0
O490 O 0.76215 0.01135 0.39847 0.0
O491 O 0.74718 0.98496 0.40431 0.0
O492 O 0.80416 0.01914 0.38331 0.0
O493 O 0.78687 0.02651 0.36089 0.0
O494 O 0.80302 0.98211 0.38776 0.0
O495 O 0.77555 0.97919 0.39517 0.0
O496 O 0.7754 0.95891 0.35999 0.0
O497 O 0.79245 0.98408 0.35393 0.0
C498 C 0.75118 0.00148 0.40881 0.0
C499 C 0.78891 0.96704 0.3514 0.0
Dy500 Dy 0.78457 0.00344 0.12643 0.0
C501 C 0.74188 0.0695 0.12047 0.0
C502 C 0.81042 0.97823 0.13548 0.0
Dy503 Dy 0.76134 0.03885 0.12739 0.0
O504 O 0.80703 0.98375 0.11874 0.0
O505 O 0.7996 0.9863 0.14689 0.0
O506 O 0.76215 0.9894 0.11172 0.0
O507 O 0.76452 0.01659 0.10857 0.0
C508 C 0.75499 0.00373 0.10397 0.0
C509 C 0.78848 0.03547 0.15221 0.0
O510 O 0.74516 0.02187 0.14654 0.0
O511 O 0.76889 0.00191 0.15297 0.0
O512 O 0.75836 0.06854 0.12685 0.0
O513 O 0.73585 0.05358 0.11773 0.0
O514 O 0.77372 0.04497 0.15502 0.0
O515 O 0.78812 0.02998 0.13614 0.0
O516 O 0.80177 0.02089 0.10826 0.0
O517 O 0.78017 0.04401 0.10375 0.0
C518 C 0.75307 0.00961 0.15735 0.0
C519 C 0.79602 0.03592 0.09987 0.0
Dy520 Dy 0.71448 0.0162 0.87937 0.0
C521 C 0.78319 0.05068 0.88681 0.0
C522 C 0.67932 0.00625 0.87507 0.0
Dy523 Dy 0.75003 0.03713 0.879 0.0
O524 O 0.69337 0.99535 0.87542 0.0
O525 O 0.68448 0.02246 0.87729 0.0
O526 O 0.72641 0.99633 0.89987 0.0
O527 O 0.73476 0.02244 0.90006 0.0
C528 C 0.73736 0.00731 0.90753 0.0
C529 C 0.72442 0.04908 0.85553 0.0
O530 O 0.7581 0.01421 0.86058 0.0
O531 O 0.72888 0.00461 0.85484 0.0
O532 O 0.77318 0.05519 0.87272 0.0
O533 O 0.77536 0.03814 0.89626 0.0
O534 O 0.73631 0.05949 0.86266 0.0
O535 O 0.72816 0.03312 0.8599 0.0
O536 O 0.7052 0.04208 0.89189 0.0
O537 O 0.73349 0.05379 0.89815 0.0
C538 C 0.74659 0.00461 0.85097 0.0
C539 C 0.71547 0.0544 0.89918 0.0
Dy540 Dy 0.63781 0.72171 0.98222 0.0
C541 C 0.62054 0.78684 0.94245 0.0
C542 C 0.64564 0.68927 0.99794 0.0
Dy543 Dy 0.63297 0.75554 0.95779 0.0
O544 O 0.64504 0.70427 0.00653 0.0
O545 O 0.64174 0.69191 0.98073 0.0
O546 O 0.62127 0.73492 0.00465 0.0
O547 O 0.6161 0.7416 0.97768 0.0
C548 C 0.61151 0.74519 0.99381 0.0
C549 C 0.65343 0.72984 0.94323 0.0
O550 O 0.6562 0.76396 0.97596 0.0
O551 O 0.66383 0.73575 0.98767 0.0
O552 O 0.63388 0.777 0.93617 0.0
O553 O 0.61475 0.78006 0.95786 0.0
O554 O 0.64417 0.74144 0.93328 0.0
O555 O 0.65281 0.73386 0.95992 0.0
O556 O 0.62018 0.71117 0.95996 0.0
O557 O 0.6111 0.73843 0.94667 0.0
C558 C 0.66759 0.75283 0.985 0.0
C559 C 0.61013 0.7208 0.94812 0.0
Dy560 Dy 0.03223 0.12599 0.75403 0.0
C561 C 0.96372 0.13406 0.79163 0.0
C562 C 0.06629 0.12086 0.73986 0.0
Dy563 Dy 0.99717 0.12708 0.77694 0.0
O564 O 0.06276 0.12469 0.7568 0.0
O565 O 0.05124 0.12 0.73064 0.0
O566 O 0.01988 0.14645 0.73412 0.0
O567 O 0.01229 0.14686 0.76124 0.0
C568 C 0.00944 0.15443 0.74599 0.0
C569 C 0.02258 0.10427 0.78967 0.0
O570 O 0.98884 0.10943 0.75377 0.0
O571 O 0.01797 0.10168 0.74428 0.0
O572 O 0.97374 0.11989 0.795 0.0
O573 O 0.97187 0.14436 0.77984 0.0
O574 O 0.01037 0.11181 0.80015 0.0
O575 O 0.0192 0.10776 0.77301 0.0
O576 O 0.04238 0.13752 0.78012 0.0
O577 O 0.01434 0.14542 0.79305 0.0
C578 C 0.00022 0.09867 0.74475 0.0
C579 C 0.03244 0.1455 0.79295 0.0
Dy580 Dy 0.88961 0.26196 0.45377 0.0
C581 C 0.88167 0.30173 0.51961 0.0
C582 C 0.89462 0.24547 0.42112 0.0
Dy583 Dy 0.88843 0.28651 0.48664 0.0
O584 O 0.89263 0.23738 0.43684 0.0
O585 O 0.89356 0.26262 0.42314 0.0
O586 O 0.87263 0.24194 0.46951 0.0
O587 O 0.8691 0.26867 0.47452 0.0
C588 C 0.86388 0.25352 0.47946 0.0
C589 C 0.90745 0.2991 0.45843 0.0
O590 O 0.91007 0.26646 0.49592 0.0
O591 O 0.91615 0.25442 0.46753 0.0
O592 O 0.89401 0.30674 0.50797 0.0
O593 O 0.87316 0.28815 0.51334 0.0
O594 O 0.89925 0.30926 0.47032 0.0
O595 O 0.90693 0.28287 0.46352 0.0
O596 O 0.87224 0.28451 0.4423 0.0
O597 O 0.86597 0.29896 0.46969 0.0
C598 C 0.92062 0.25678 0.48492 0.0
C599 C 0.86369 0.29718 0.45175 0.0
Dy600 Dy 0.50302 0.86938 0.76243 0.0
C601 C 0.52606 0.924 0.81218 0.0
C602 C 0.50181 0.83667 0.74596 0.0
Dy603 Dy 0.51774 0.89645 0.7901 0.0
O604 O 0.4886 0.8487 0.74556 0.0
O605 O 0.51562 0.84298 0.75455 0.0
O606 O 0.48284 0.89099 0.75135 0.0
O607 O 0.50764 0.8977 0.76254 0.0
C608 C 0.49286 0.9041 0.75666 0.0
C609 C 0.53055 0.86292 0.7943 0.0
O610 O 0.48997 0.89093 0.80202 0.0
O611 O 0.48409 0.86519 0.78607 0.0
O612 O 0.52897 0.90722 0.81606 0.0
O613 O 0.51824 0.92577 0.79625 0.0
O614 O 0.54017 0.87699 0.79665 0.0
O615 O 0.5144 0.86766 0.79022 0.0
O616 O 0.53078 0.87516 0.75031 0.0
O617 O 0.53883 0.8991 0.76833 0.0
C618 C 0.4804 0.87636 0.79954 0.0
C619 C 0.54213 0.88798 0.7547 0.0
Dy620 Dy 0.96691 0.12079 0.2428 0.0
C621 C 0.00903 0.1301 0.30776 0.0
C622 C 0.95026 0.11023 0.21163 0.0
Dy623 Dy 0.99205 0.12376 0.27544 0.0
O624 O 0.94529 0.12389 0.22129 0.0
O625 O 0.9649 0.10277 0.21862 0.0
O626 O 0.9443 0.13566 0.25704 0.0
O627 O 0.97171 0.1413 0.26269 0.0
C628 C 0.95538 0.14429 0.26735 0.0
C629 C 0.00032 0.09532 0.25385 0.0
O630 O 0.9678 0.11153 0.28907 0.0
O631 O 0.95297 0.10273 0.26276 0.0
O632 O 0.01695 0.12956 0.29185 0.0
O633 O 0.9918 0.12708 0.30607 0.0
O634 O 0.01215 0.10441 0.26265 0.0
O635 O 0.98479 0.10172 0.25769 0.0
O636 O 0.98702 0.14049 0.23103 0.0
O637 O 3e-05 0.14785 0.25867 0.0
C638 C 0.95444 0.10318 0.28087 0.0
C639 C 0.99737 0.15103 0.24088 0.0
Dy640 Dy 0.5003 0.12755 0.7176 0.0
C641 C 0.56117 0.11451 0.76665 0.0
C642 C 0.47323 0.13731 0.69353 0.0
Dy643 Dy 0.5315 0.12541 0.74667 0.0
O644 O 0.48401 0.12346 0.6922 0.0
O645 O 0.47697 0.14587 0.70836 0.0
O646 O 0.51117 0.10135 0.70579 0.0
O647 O 0.52831 0.11894 0.71846 0.0
C648 C 0.5276 0.1039 0.71159 0.0
C649 C 0.50836 0.15281 0.7517 0.0
O650 O 0.5444 0.14334 0.72561 0.0
O651 O 0.51891 0.14902 0.70717 0.0
O652 O 0.54468 0.11592 0.77315 0.0
O653 O 0.56138 0.11925 0.74946 0.0
O654 O 0.52474 0.15185 0.7584 0.0
O655 O 0.50394 0.13772 0.74547 0.0
O656 O 0.48929 0.10603 0.73595 0.0
O657 O 0.51697 0.09933 0.75022 0.0
C658 C 0.53608 0.15199 0.71178 0.0
C659 C 0.5001 0.09503 0.74575 0.0
Dy660 Dy 0.11726 0.28451 0.00374 0.0
C661 C 0.10827 0.23589 0.94422 0.0
C662 C 0.12578 0.30739 0.03098 0.0
Dy663 Dy 0.1167 0.25576 0.97369 0.0
O664 O 0.11572 0.31128 0.01683 0.0
O665 O 0.13112 0.29074 0.03052 0.0
O666 O 0.09362 0.29896 0.98956 0.0
O667 O 0.11277 0.28422 0.97454 0.0
C668 C 0.09804 0.29294 0.97351 0.0
C669 C 0.13991 0.24781 0.00062 0.0
O670 O 0.13968 0.27203 0.9627 0.0
O671 O 0.14332 0.28963 0.98837 0.0
O672 O 0.11257 0.22937 0.96032 0.0
O673 O 0.10863 0.25316 0.94426 0.0
O674 O 0.14133 0.24152 0.98419 0.0
O675 O 0.12463 0.25602 0.00277 0.0
O676 O 0.09173 0.27094 0.01255 0.0
O677 O 0.08856 0.25446 0.986 0.0
C678 C 0.14875 0.28402 0.972 0.0
C679 C 0.08202 0.26086 0.00162 0.0
Dy680 Dy 0.36991 0.7457 0.46529 0.0
C681 C 0.36976 0.68359 0.51275 0.0
C682 C 0.37541 0.7746 0.4428 0.0
Dy683 Dy 0.37382 0.71384 0.49223 0.0
O684 O 0.36444 0.76178 0.4396 0.0
O685 O 0.38322 0.77188 0.45862 0.0
O686 O 0.34528 0.73302 0.45254 0.0
O687 O 0.36619 0.71731 0.46396 0.0
C688 C 0.35068 0.71689 0.45695 0.0
C689 C 0.39754 0.73919 0.49829 0.0
O690 O 0.39369 0.70481 0.47069 0.0
O691 O 0.39547 0.73199 0.45507 0.0
O692 O 0.3722 0.6993 0.51943 0.0
O693 O 0.36948 0.68448 0.49498 0.0
O694 O 0.40027 0.72254 0.50278 0.0
O695 O 0.38113 0.74217 0.4931 0.0
O696 O 0.34657 0.75268 0.48377 0.0
O697 O 0.34519 0.72443 0.49715 0.0
C698 C 0.4012 0.71525 0.45801 0.0
C699 C 0.33776 0.74042 0.49337 0.0
Dy700 Dy 0.78668 0.51218 0.86014 0.0
C701 C 0.74149 0.57444 0.87042 0.0
C702 C 0.80696 0.48289 0.85048 0.0
Dy703 Dy 0.76122 0.54494 0.86096 0.0
O704 O 0.80966 0.49238 0.86484 0.0
O705 O 0.79289 0.48917 0.84153 0.0
O706 O 0.80101 0.52138 0.88575 0.0
O707 O 0.78945 0.53984 0.86739 0.0
C708 C 0.79701 0.53813 0.8827 0.0
C709 C 0.75268 0.52251 0.83477 0.0
O710 O 0.78219 0.55529 0.84125 0.0
O711 O 0.79698 0.52809 0.83602 0.0
O712 O 0.7582 0.57445 0.86462 0.0
O713 O 0.73546 0.55833 0.87094 0.0
O714 O 0.74845 0.53939 0.83426 0.0
O715 O 0.75874 0.51775 0.85053 0.0
O716 O 0.76806 0.50313 0.88246 0.0
O717 O 0.75751 0.53173 0.88871 0.0
C718 C 0.7942 0.54529 0.83209 0.0
C719 C 0.75979 0.51465 0.89345 0.0
Dy720 Dy 0.71677 0.51007 0.12322 0.0
C721 C 0.76469 0.56689 0.1037 0.0
C722 C 0.69098 0.48747 0.13588 0.0
Dy723 Dy 0.74599 0.53854 0.11695 0.0
O724 O 0.6883 0.5041 0.13137 0.0
O725 O 0.70807 0.48288 0.13352 0.0
O726 O 0.70314 0.51905 0.09698 0.0
O727 O 0.71689 0.53743 0.11286 0.0
C728 C 0.7088 0.53524 0.09792 0.0
C729 C 0.75497 0.51495 0.14355 0.0
O730 O 0.72683 0.55257 0.13613 0.0
O731 O 0.7144 0.52694 0.1483 0.0
O732 O 0.76612 0.56028 0.12022 0.0
O733 O 0.75335 0.55775 0.09426 0.0
O734 O 0.76224 0.53046 0.1416 0.0
O735 O 0.74572 0.51164 0.12938 0.0
O736 O 0.73081 0.49796 0.09881 0.0
O737 O 0.75074 0.52113 0.09264 0.0
C738 C 0.71728 0.54427 0.14899 0.0
C739 C 0.74308 0.50595 0.08825 0.0
Dy740 Dy 0.7363 0.47065 0.36885 0.0
C741 C 0.68765 0.53202 0.36758 0.0
C742 C 0.75887 0.44189 0.37433 0.0
Dy743 Dy 0.71312 0.50543 0.37236 0.0
O744 O 0.74182 0.4412 0.36973 0.0
O745 O 0.76367 0.45837 0.37597 0.0
O746 O 0.7216 0.46408 0.34252 0.0
O747 O 0.70852 0.4789 0.36257 0.0
C748 C 0.70689 0.47317 0.34666 0.0
C749 C 0.74453 0.50513 0.39237 0.0
O750 O 0.69759 0.48777 0.39172 0.0
O751 O 0.71956 0.46467 0.39385 0.0
O752 O 0.68866 0.52154 0.38198 0.0
O753 O 0.70061 0.52807 0.35617 0.0
O754 O 0.73658 0.51945 0.38554 0.0
O755 O 0.73466 0.4924 0.38829 0.0
O756 O 0.74993 0.48823 0.34829 0.0
O757 O 0.72443 0.50622 0.34367 0.0
C758 C 0.70411 0.47262 0.39927 0.0
C759 C 0.74021 0.49949 0.33789 0.0
Dy760 Dy 0.75472 0.46581 0.61448 0.0
C761 C 0.82458 0.4979 0.62226 0.0
C762 C 0.72281 0.4505 0.60539 0.0
Dy763 Dy 0.78962 0.48805 0.61627 0.0
O764 O 0.73168 0.44762 0.62058 0.0
O765 O 0.73097 0.46252 0.5955 0.0
O766 O 0.7685 0.44333 0.63037 0.0
O767 O 0.77585 0.46978 0.63438 0.0
C768 C 0.77988 0.45376 0.63824 0.0
C769 C 0.76717 0.4971 0.58782 0.0
O770 O 0.80029 0.46289 0.60349 0.0
O771 O 0.7729 0.44986 0.59612 0.0
O772 O 0.81049 0.5088 0.62207 0.0
O773 O 0.81953 0.48187 0.61892 0.0
O774 O 0.77764 0.50819 0.59601 0.0
O775 O 0.77023 0.48186 0.5948 0.0
O776 O 0.74533 0.48792 0.63333 0.0
O777 O 0.77402 0.49798 0.64078 0.0
C778 C 0.79095 0.45008 0.59587 0.0
C779 C 0.7562 0.49725 0.64395 0.0
Dy780 Dy 0.49026 0.10053 0.20951 0.0
C781 C 0.49774 0.1664 0.2467 0.0
C782 C 0.48221 0.06932 0.1929 0.0
Dy783 Dy 0.49589 0.13129 0.23626 0.0
O784 O 0.48339 0.08475 0.18475 0.0
O785 O 0.48617 0.0708 0.21016 0.0
O786 O 0.48193 0.12029 0.18792 0.0
O787 O 0.47558 0.12561 0.2154 0.0
C788 C 0.47532 0.13189 0.19923 0.0
C789 C 0.51127 0.09915 0.24554 0.0
O790 O 0.46868 0.12271 0.24632 0.0
O791 O 0.46952 0.09543 0.23174 0.0
O792 O 0.5014 0.15262 0.25741 0.0
O793 O 0.4933 0.16083 0.23064 0.0
O794 O 0.50537 0.11051 0.25768 0.0
O795 O 0.51018 0.10636 0.22993 0.0
O796 O 0.51759 0.10859 0.19962 0.0
O797 O 0.51627 0.13622 0.21355 0.0
C798 C 0.46222 0.1066 0.2438 0.0
C799 C 0.52324 0.12515 0.20115 0.0
Dy800 Dy 0.00163 0.87939 0.72536 0.0
C801 C 0.03965 0.89675 0.79175 0.0
C802 C 0.98647 0.87177 0.69229 0.0
Dy803 Dy 0.02525 0.88389 0.76035 0.0
O804 O 0.97753 0.87394 0.7075 0.0
O805 O 0.00374 0.87389 0.69508 0.0
O806 O 0.98109 0.89956 0.73622 0.0
O807 O 0.00812 0.90157 0.7431 0.0
C808 C 0.99256 0.90843 0.74574 0.0
C809 C 0.03787 0.85975 0.73707 0.0
O810 O 0.0047 0.86381 0.77093 0.0
O811 O 0.99303 0.85588 0.74267 0.0
O812 O 0.04508 0.88224 0.7837 0.0
O813 O 0.02574 0.90386 0.78303 0.0
O814 O 0.04851 0.8681 0.74814 0.0
O815 O 0.02143 0.86343 0.74063 0.0
O816 O 0.02683 0.89118 0.71312 0.0
O817 O 0.04031 0.90082 0.74004 0.0
C818 C 0.99495 0.85301 0.76063 0.0
C819 C 0.0398 0.89965 0.72187 0.0
Dy820 Dy 0.47356 0.87858 0.25553 0.0
C821 C 0.53585 0.8643 0.30142 0.0
C822 C 0.44261 0.88559 0.23584 0.0
Dy823 Dy 0.50485 0.87522 0.28365 0.0
O824 O 0.44306 0.8788 0.25235 0.0
O825 O 0.45905 0.88825 0.23002 0.0
O826 O 0.48927 0.8604 0.23634 0.0
O827 O 0.4926 0.8572 0.26419 0.0
C828 C 0.49801 0.85136 0.24903 0.0
C829 C 0.47732 0.89666 0.29379 0.0
O830 O 0.51589 0.89668 0.26462 0.0
O831 O 0.48868 0.90388 0.24987 0.0
O832 O 0.52522 0.87751 0.30627 0.0
O833 O 0.52979 0.85731 0.2865 0.0
O834 O 0.48817 0.88853 0.30555 0.0
O835 O 0.48328 0.89453 0.2777 0.0
O836 O 0.45944 0.86504 0.27908 0.0
O837 O 0.4852 0.85588 0.29574 0.0
C838 C 0.50581 0.90757 0.25391 0.0
C839 C 0.4673 0.85613 0.29297 0.0
Dy840 Dy 0.88602 0.74195 0.02186 0.0
C841 C 0.87554 0.68941 0.96549 0.0
C842 C 0.89423 0.7619 0.0511 0.0
Dy843 Dy 0.88184 0.71157 0.99398 0.0
O844 O 0.89672 0.76691 0.03409 0.0
O845 O 0.8875 0.74609 0.05199 0.0
O846 O 0.86117 0.757 0.01281 0.0
O847 O 0.87438 0.74016 0.99395 0.0
C848 C 0.85986 0.74924 0.99719 0.0
C849 C 0.89463 0.70146 0.02702 0.0
O850 O 0.90962 0.7216 0.98558 0.0
O851 O 0.91335 0.74289 0.00817 0.0
O852 O 0.88919 0.6879 0.97673 0.0
O853 O 0.86571 0.70349 0.96938 0.0
O854 O 0.88483 0.69117 0.01708 0.0
O855 O 0.89784 0.7156 0.01826 0.0
O856 O 0.86533 0.72471 0.03547 0.0
O857 O 0.85555 0.71069 0.00936 0.0
C858 C 0.9197 0.7334 0.99421 0.0
C859 C 0.85351 0.71483 0.02681 0.0
Dy860 Dy 0.6347 0.28777 0.5016 0.0
C861 C 0.6259 0.23798 0.56156 0.0
C862 C 0.64194 0.31728 0.48082 0.0
Dy863 Dy 0.63481 0.26015 0.53305 0.0
O864 O 0.62622 0.30983 0.48192 0.0
O865 O 0.65385 0.30826 0.49058 0.0
O866 O 0.61071 0.27739 0.48738 0.0
O867 O 0.62654 0.25961 0.50402 0.0
C868 C 0.61143 0.26192 0.49559 0.0
C869 C 0.65488 0.28918 0.53815 0.0
O870 O 0.66013 0.25013 0.51887 0.0
O871 O 0.66186 0.27354 0.49749 0.0
O872 O 0.62889 0.25485 0.56261 0.0
O873 O 0.62809 0.23283 0.54469 0.0
O874 O 0.65928 0.27365 0.54521 0.0
O875 O 0.63974 0.28834 0.53047 0.0
O876 O 0.61568 0.30026 0.52225 0.0
O877 O 0.60728 0.27367 0.53531 0.0
C878 C 0.66902 0.25911 0.5059 0.0
C879 C 0.60453 0.29102 0.53289 0.0
Dy880 Dy 0.23231 0.45722 0.13249 0.0
C881 C 0.18463 0.51699 0.14963 0.0
C882 C 0.25156 0.42967 0.11784 0.0
Dy883 Dy 0.20472 0.4874 0.14042 0.0
O884 O 0.2579 0.44549 0.12022 0.0
O885 O 0.23487 0.42889 0.12366 0.0
O886 O 0.2455 0.45854 0.15978 0.0
O887 O 0.23316 0.48197 0.14856 0.0
C888 C 0.24015 0.47479 0.16292 0.0
C889 C 0.19144 0.46022 0.12169 0.0
O890 O 0.21852 0.49944 0.11562 0.0
O891 O 0.23806 0.47552 0.10875 0.0
O892 O 0.18353 0.50871 0.13423 0.0
O893 O 0.19715 0.50939 0.15986 0.0
O894 O 0.18173 0.46952 0.13313 0.0
O895 O 0.20703 0.46669 0.12009 0.0
O896 O 0.21166 0.44324 0.14978 0.0
O897 O 0.20016 0.46849 0.16398 0.0
C898 C 0.23087 0.49154 0.10491 0.0
C899 C 0.2017 0.45091 0.16274 0.0
Dy900 Dy 0.25555 0.45997 0.88429 0.0
C901 C 0.30126 0.52107 0.87299 0.0
C902 C 0.2415 0.42732 0.89181 0.0
Dy903 Dy 0.28196 0.49125 0.8807 0.0
O904 O 0.23196 0.44211 0.89024 0.0
O905 O 0.2586 0.43037 0.88906 0.0
O906 O 0.23446 0.47487 0.86708 0.0
O907 O 0.26181 0.47957 0.86284 0.0
C908 C 0.24601 0.48454 0.85802 0.0
C909 C 0.29329 0.46399 0.902 0.0
O910 O 0.26169 0.50228 0.90129 0.0
O911 O 0.24834 0.4755 0.90937 0.0
O912 O 0.30399 0.51033 0.88691 0.0
O913 O 0.28742 0.51587 0.86352 0.0
O914 O 0.30436 0.47384 0.8926 0.0
O915 O 0.27722 0.47018 0.90078 0.0
O916 O 0.27729 0.44807 0.86612 0.0
O917 O 0.29299 0.47376 0.85857 0.0
C918 C 0.25117 0.49262 0.9123 0.0
C919 C 0.29016 0.45647 0.85682 0.0
Dy920 Dy 0.28282 0.50462 0.63316 0.0
C921 C 0.22734 0.56059 0.63032 0.0
C922 C 0.31231 0.48227 0.63787 0.0
Dy923 Dy 0.25504 0.53594 0.63381 0.0
O924 O 0.31296 0.49871 0.63211 0.0
O925 O 0.29551 0.47789 0.64054 0.0
O926 O 0.26429 0.48893 0.61507 0.0
O927 O 0.26337 0.51632 0.61342 0.0
C928 C 0.25615 0.50266 0.6073 0.0
C929 C 0.28528 0.54078 0.65322 0.0
O930 O 0.24189 0.51669 0.65351 0.0
O931 O 0.26799 0.49981 0.65972 0.0
O932 O 0.23926 0.5599 0.64341 0.0
O933 O 0.23023 0.54742 0.61921 0.0
O934 O 0.27571 0.55377 0.64574 0.0
O935 O 0.27706 0.52631 0.65161 0.0
O936 O 0.29807 0.52565 0.61765 0.0
O937 O 0.27331 0.54468 0.61096 0.0
C938 C 0.25111 0.50496 0.66396 0.0
C939 C 0.29071 0.53979 0.60903 0.0
Dy940 Dy 0.2123 0.51626 0.3828 0.0
C941 C 0.27738 0.5574 0.38758 0.0
C942 C 0.1774 0.50544 0.37907 0.0
Dy943 Dy 0.24594 0.53978 0.3818 0.0
O944 O 0.19177 0.49504 0.37767 0.0
O945 O 0.18216 0.52145 0.38282 0.0
O946 O 0.22579 0.49721 0.40305 0.0
O947 O 0.23234 0.5239 0.40325 0.0
C948 C 0.23608 0.50888 0.41055 0.0
C949 C 0.21914 0.54978 0.35877 0.0
O950 O 0.25553 0.51718 0.36361 0.0
O951 O 0.22704 0.50568 0.35813 0.0
O952 O 0.26692 0.55945 0.37334 0.0
O953 O 0.2711 0.54495 0.39834 0.0
O954 O 0.23014 0.56105 0.36589 0.0
O955 O 0.22423 0.53413 0.36302 0.0
O956 O 0.20117 0.54175 0.39436 0.0
O957 O 0.22838 0.55524 0.40117 0.0
C958 C 0.24464 0.50684 0.3541 0.0
C959 C 0.21038 0.55474 0.40173 0.0
H960 H 0.95835 0.42563 0.24993 0.0
H961 H 0.95277 0.45831 0.24797 0.0
H962 H 0.01061 0.46638 0.25019 0.0
H963 H 0.01618 0.43431 0.25218 0.0
H964 H 0.96637 0.48571 0.27486 0.0
H965 H 0.99205 0.49587 0.20396 0.0
H966 H 0.98428 0.47458 0.21241 0.0
H967 H 0.00654 0.48198 0.21839 0.0
C968 C 0.96982 0.43442 0.2498 0.0
C969 C 0.9877 0.4273 0.2512 0.0
C970 C 0.96664 0.45308 0.24878 0.0
C971 C 0.9813 0.46488 0.2488 0.0
C972 C 0.99907 0.45767 0.24996 0.0
H973 H 0.0031 0.57348 0.27417 0.0
H974 H 0.99693 0.54165 0.27459 0.0
C975 C 0.00221 0.43923 0.25117 0.0
C976 C 0.9785 0.48474 0.248 0.0
H977 H 0.98981 0.52167 0.22257 0.0
C978 C 0.97121 0.49357 0.2633 0.0
C979 C 0.98475 0.49511 0.23294 0.0
C980 C 0.99222 0.48645 0.2159 0.0
C981 C 0.97075 0.51238 0.26424 0.0
C982 C 0.97792 0.52274 0.24956 0.0
C983 C 0.9844 0.51388 0.23392 0.0
C984 C 0.97979 0.54261 0.25048 0.0
C985 C 0.96273 0.521 0.28105 0.0
C986 C 0.97218 0.55404 0.23686 0.0
C987 C 0.97564 0.57242 0.23662 0.0
C988 C 0.98704 0.57983 0.24986 0.0
C989 C 0.99413 0.56841 0.26382 0.0
C990 C 0.99056 0.5501 0.26412 0.0
H991 H 0.95298 0.51211 0.28814 0.0
H992 H 0.97385 0.52372 0.29081 0.0
H993 H 0.9556 0.53382 0.27749 0.0
H994 H 0.96391 0.54867 0.2261 0.0
H995 H 0.97011 0.58063 0.22549 0.0
H996 H 0.81221 0.76152 0.4915 0.0
H997 H 0.77948 0.75674 0.49163 0.0
H998 H 0.78486 0.72538 0.54155 0.0
H999 H 0.8178 0.73036 0.54164 0.0
H1000 H 0.75739 0.72746 0.49189 0.0
H1001 H 0.74915 0.76575 0.55609 0.0
H1002 H 0.77007 0.76535 0.54306 0.0
H1003 H 0.76438 0.74663 0.55746 0.0
C1004 C 0.80654 0.75324 0.5023 0.0
C1005 C 0.81768 0.74634 0.51657 0.0
C1006 C 0.78776 0.75056 0.50239 0.0
C1007 C 0.77957 0.74104 0.51681 0.0
C1008 C 0.79079 0.73309 0.53045 0.0
H1009 H 0.66152 0.72238 0.50758 0.0
H1010 H 0.69401 0.71711 0.51402 0.0
C1011 C 0.80969 0.7357 0.53033 0.0
C1012 C 0.75926 0.74045 0.51784 0.0
H1013 H 0.72241 0.75542 0.54256 0.0
C1014 C 0.74973 0.73336 0.50308 0.0
C1015 C 0.74924 0.74847 0.53228 0.0
C1016 C 0.75865 0.75713 0.54807 0.0
C1017 C 0.73057 0.73434 0.50219 0.0
C1018 C 0.72052 0.7423 0.51666 0.0
C1019 C 0.73005 0.74913 0.53158 0.0
C1020 C 0.70028 0.74507 0.51572 0.0
C1021 C 0.72135 0.72762 0.48527 0.0
C1022 C 0.69266 0.76244 0.51579 0.0
C1023 C 0.67404 0.76546 0.51243 0.0
C1024 C 0.66259 0.75117 0.50885 0.0
C1025 C 0.66996 0.73369 0.51016 0.0
C1026 C 0.6886 0.73067 0.51363 0.0
H1027 H 0.73108 0.72575 0.47373 0.0
H1028 H 0.71527 0.71454 0.48847 0.0
H1029 H 0.71026 0.737 0.48066 0.0
H1030 H 0.70128 0.77379 0.51754 0.0
H1031 H 0.66883 0.77909 0.51161 0.0
H1032 H 0.48243 0.42214 0.77112 0.0
H1033 H 0.48538 0.45438 0.77316 0.0
H1034 H 0.53052 0.45238 0.7353 0.0
H1035 H 0.52748 0.42001 0.73295 0.0
H1036 H 0.5124 0.4771 0.78282 0.0
H1037 H 0.4946 0.48691 0.70929 0.0
H1038 H 0.49207 0.46586 0.72126 0.0
H1039 H 0.51417 0.47259 0.71359 0.0
C1040 C 0.49327 0.42845 0.7635 0.0
C1041 C 0.50466 0.41838 0.75179 0.0
C1042 C 0.49488 0.44697 0.76463 0.0
C1043 C 0.50785 0.45597 0.75402 0.0
C1044 C 0.5201 0.44584 0.74329 0.0
H1045 H 0.52801 0.56964 0.76931 0.0
H1046 H 0.53186 0.53743 0.76507 0.0
C1047 C 0.51852 0.42724 0.74218 0.0
C1048 C 0.50789 0.47594 0.75374 0.0
H1049 H 0.50117 0.51277 0.72582 0.0
C1050 C 0.51008 0.48488 0.77033 0.0
C1051 C 0.50448 0.48619 0.73751 0.0
C1052 C 0.50102 0.47746 0.71941 0.0
C1053 C 0.50902 0.50363 0.77114 0.0
C1054 C 0.50599 0.5139 0.75485 0.0
C1055 C 0.50371 0.50497 0.73826 0.0
C1056 C 0.50454 0.53384 0.75497 0.0
C1057 C 0.51059 0.51226 0.78959 0.0
C1058 C 0.48824 0.54284 0.7498 0.0
C1059 C 0.48613 0.56137 0.75196 0.0
C1060 C 0.50038 0.57131 0.75905 0.0
C1061 C 0.51692 0.5624 0.76345 0.0
C1062 C 0.51905 0.54393 0.76125 0.0
H1063 H 0.50823 0.50263 0.80105 0.0
H1064 H 0.52451 0.51744 0.79111 0.0
H1065 H 0.50069 0.52362 0.79084 0.0
H1066 H 0.47679 0.53539 0.74502 0.0
H1067 H 0.47294 0.56758 0.74937 0.0
H1068 H 0.80959 0.26822 0.97398 0.0
H1069 H 0.77639 0.27197 0.9759 0.0
H1070 H 0.77389 0.22492 0.01053 0.0
H1071 H 0.80694 0.22096 0.00854 0.0
H1072 H 0.74869 0.22465 0.98214 0.0
H1073 H 0.74476 0.28925 0.01823 0.0
H1074 H 0.75806 0.28934 0.99753 0.0
H1075 H 0.76555 0.27599 0.01693 0.0
C1076 C 0.80205 0.25888 0.98234 0.0
C1077 C 0.81108 0.24433 0.99119 0.0
C1078 C 0.78299 0.26101 0.98337 0.0
C1079 C 0.77253 0.24874 0.99338 0.0
C1080 C 0.78157 0.23453 0.00263 0.0
H1081 H 0.66865 0.25289 0.04165 0.0
H1082 H 0.70003 0.25012 0.03166 0.0
C1083 C 0.80056 0.23237 0.00159 0.0
C1084 C 0.75218 0.2504 0.99408 0.0
H1085 H 0.71702 0.27698 0.00941 0.0
C1086 C 0.74175 0.23618 0.98794 0.0
C1087 C 0.74306 0.2654 0.00167 0.0
C1088 C 0.75338 0.28082 0.00912 0.0
C1089 C 0.72258 0.2364 0.98961 0.0
C1090 C 0.71355 0.25125 0.99752 0.0
C1091 C 0.72393 0.26567 0.00315 0.0
C1092 C 0.69387 0.25112 0.00271 0.0
C1093 C 0.71215 0.22042 0.98375 0.0
C1094 C 0.67964 0.25207 0.98971 0.0
C1095 C 0.66127 0.25358 0.99546 0.0
C1096 C 0.657 0.25428 0.01426 0.0
C1097 C 0.67133 0.25259 0.02704 0.0
C1098 C 0.68941 0.251 0.02137 0.0
H1099 H 0.7213 0.20932 0.97922 0.0
H1100 H 0.70354 0.21554 0.99524 0.0
H1101 H 0.70294 0.22434 0.97224 0.0
H1102 H 0.68275 0.25225 0.97519 0.0
H1103 H 0.65056 0.25496 0.98531 0.0
H1104 H 0.24851 0.02456 0.423 0.0
H1105 H 0.24334 0.01696 0.4551 0.0
H1106 H 0.26781 0.96481 0.44707 0.0
H1107 H 0.27369 0.9726 0.41479 0.0
H1108 H 0.22517 0.99258 0.47407 0.0
H1109 H 0.29924 0.98259 0.48759 0.0
H1110 H 0.29069 0.99159 0.46611 0.0
H1111 H 0.29003 0.96802 0.47091 0.0
C1112 C 0.25266 0.01136 0.4279 0.0
C1113 C 0.26177 0.99929 0.41623 0.0
C1114 C 0.24965 0.00702 0.44637 0.0
C1115 C 0.25557 0.99046 0.45375 0.0
C1116 C 0.26356 0.97788 0.44189 0.0
H1117 H 0.22697 0.97485 0.5716 0.0
H1118 H 0.23025 0.96794 0.53892 0.0
C1119 C 0.26672 0.98227 0.42333 0.0
C1120 C 0.25408 0.98709 0.47399 0.0
H1121 H 0.27958 0.98026 0.51285 0.0
C1122 C 0.23704 0.98966 0.48254 0.0
C1123 C 0.26959 0.98345 0.48514 0.0
C1124 C 0.28846 0.98139 0.47706 0.0
C1125 C 0.23518 0.98941 0.50178 0.0
C1126 C 0.25073 0.986 0.51292 0.0
C1127 C 0.26763 0.98272 0.50436 0.0
C1128 C 0.25022 0.98808 0.53328 0.0
C1129 C 0.21676 0.99389 0.50997 0.0
C1130 C 0.2611 0.00091 0.54131 0.0
C1131 C 0.25947 0.00466 0.55996 0.0
C1132 C 0.2469 0.99568 0.57118 0.0
C1133 C 0.2368 0.98202 0.56342 0.0
C1134 C 0.23848 0.97822 0.54465 0.0
H1135 H 0.20716 0.99975 0.49962 0.0
H1136 H 0.21073 0.98154 0.51563 0.0
H1137 H 0.21802 0.00345 0.52132 0.0
H1138 H 0.27035 0.00864 0.53296 0.0
H1139 H 0.2676 0.01518 0.5654 0.0
H1140 H 0.27418 0.02432 0.67482 0.0
H1141 H 0.27278 0.01544 0.70678 0.0
H1142 H 0.23198 0.97711 0.69436 0.0
H1143 H 0.23283 0.98673 0.66179 0.0
H1144 H 0.22183 0.99564 0.72313 0.0
H1145 H 0.293 0.97472 0.7356 0.0
H1146 H 0.29274 0.99659 0.72542 0.0
H1147 H 0.28421 0.97815 0.71269 0.0
C1148 C 0.26512 0.01371 0.67871 0.0
C1149 C 0.25365 0.00617 0.66569 0.0
C1150 C 0.26447 0.00851 0.6971 0.0
C1151 C 0.2526 0.99529 0.70311 0.0
C1152 C 0.24143 0.98722 0.69007 0.0
H1153 H 0.25991 0.96883 0.82087 0.0
H1154 H 0.26287 0.96823 0.78756 0.0
C1155 C 0.242 0.99258 0.67144 0.0
C1156 C 0.25096 0.99146 0.72323 0.0
H1157 H 0.2767 0.98665 0.7621 0.0
C1158 C 0.2338 0.99331 0.73162 0.0
C1159 C 0.26645 0.98805 0.73446 0.0
C1160 C 0.28507 0.98406 0.7265 0.0
C1161 C 0.23185 0.99285 0.75085 0.0
C1162 C 0.2476 0.99128 0.7621 0.0
C1163 C 0.26462 0.98839 0.75365 0.0
C1164 C 0.24673 0.9924 0.78256 0.0
C1165 C 0.21286 0.99391 0.75879 0.0
C1166 C 0.23739 0.00661 0.79113 0.0
C1167 C 0.23545 0.00684 0.81026 0.0
C1168 C 0.24331 0.99317 0.82132 0.0
C1169 C 0.2538 0.97968 0.81283 0.0
C1170 C 0.2554 0.97925 0.79369 0.0
H1171 H 0.20272 0.98872 0.74909 0.0
H1172 H 0.21194 0.98623 0.7719 0.0
H1173 H 0.20906 0.00806 0.76135 0.0
H1174 H 0.23123 0.01736 0.78301 0.0
H1175 H 0.22734 0.01746 0.81635 0.0
H1176 H 0.26461 0.02012 0.07269 0.0
H1177 H 0.2592 0.02304 0.03956 0.0
H1178 H 0.25142 0.96636 0.03692 0.0
H1179 H 0.25624 0.9635 0.06998 0.0
H1180 H 0.27846 0.00944 0.01194 0.0
H1181 H 0.20874 0.98382 0.0074 0.0
H1182 H 0.21889 0.98935 0.029 0.0
H1183 H 0.2239 0.96811 0.01873 0.0
C1184 C 0.26135 0.00835 0.0651 0.0
C1185 C 0.26074 0.9916 0.07404 0.0
C1186 C 0.25836 0.01001 0.04611 0.0
C1187 C 0.25466 0.99497 0.03561 0.0
C1188 C 0.25376 0.97828 0.04463 0.0
H1189 H 0.24607 0.96894 0.92087 0.0
H1190 H 0.25164 0.96951 0.9539 0.0
C1191 C 0.2566 0.97664 0.06361 0.0
C1192 C 0.25274 0.99654 0.01516 0.0
H1193 H 0.22555 0.98539 0.97927 0.0
C1194 C 0.26678 0.00435 0.00484 0.0
C1195 C 0.2375 0.98997 0.00574 0.0
C1196 C 0.22133 0.98252 0.01581 0.0
C1197 C 0.26625 0.00525 0.98551 0.0
C1198 C 0.25128 0.99821 0.97614 0.0
C1199 C 0.23712 0.99066 0.98642 0.0
C1200 C 0.25005 0.99824 0.95568 0.0
C1201 C 0.28196 0.01325 0.97517 0.0
C1202 C 0.24773 0.01424 0.94549 0.0
C1203 C 0.2445 0.01396 0.92649 0.0
C1204 C 0.24349 0.99766 0.91732 0.0
C1205 C 0.24677 0.98173 0.92744 0.0
C1206 C 0.24987 0.98202 0.94638 0.0
H1207 H 0.29394 0.01512 0.98415 0.0
H1208 H 0.28614 0.00467 0.96357 0.0
H1209 H 0.27762 0.02647 0.9694 0.0
H1210 H 0.24763 0.02692 0.95235 0.0
H1211 H 0.2419 0.02645 0.91917 0.0
H1212 H 0.23373 0.97116 0.1729 0.0
H1213 H 0.2315 0.97552 0.20587 0.0
H1214 H 0.2575 0.02622 0.19959 0.0
H1215 H 0.26098 0.02112 0.16669 0.0
H1216 H 0.27384 0.00956 0.22445 0.0
H1217 H 0.20131 0.00122 0.24115 0.0
H1218 H 0.20991 0.98201 0.22942 0.0
H1219 H 0.20913 0.00348 0.2178 0.0
C1220 C 0.23829 0.98358 0.17844 0.0
C1221 C 0.24728 0.99594 0.16714 0.0
C1222 C 0.23701 0.98609 0.19742 0.0
C1223 C 0.24414 0.00132 0.20548 0.0
C1224 C 0.25192 0.0143 0.19389 0.0
H1225 H 0.23308 0.02399 0.3223 0.0
H1226 H 0.22841 0.02075 0.28941 0.0
C1227 C 0.2537 0.01152 0.17501 0.0
C1228 C 0.24552 0.00273 0.22594 0.0
H1229 H 0.22233 0.99684 0.26628 0.0
C1230 C 0.26244 0.00701 0.23352 0.0
C1231 C 0.23073 0.99959 0.23803 0.0
C1232 C 0.21173 0.99652 0.23114 0.0
C1233 C 0.26503 0.00809 0.25257 0.0
C1234 C 0.25059 0.0038 0.26469 0.0
C1235 C 0.23358 0.99976 0.25714 0.0
C1236 C 0.25262 0.00422 0.28513 0.0
C1237 C 0.28314 0.01444 0.25933 0.0
C1238 C 0.26737 0.99543 0.29408 0.0
C1239 C 0.27032 0.99765 0.3129 0.0
C1240 C 0.25821 0.00815 0.32335 0.0
C1241 C 0.24268 0.01577 0.3147 0.0
C1242 C 0.24001 0.01394 0.2958 0.0
H1243 H 0.29009 0.02264 0.24872 0.0
H1244 H 0.2815 0.02253 0.27186 0.0
H1245 H 0.29219 0.00273 0.26254 0.0
H1246 H 0.27693 0.98722 0.28644 0.0
H1247 H 0.28236 0.99157 0.31915 0.0
H1248 H 0.41086 0.23579 0.03544 0.0
H1249 H 0.44406 0.23346 0.03238 0.0
H1250 H 0.43959 0.24616 0.97465 0.0
H1251 H 0.40634 0.24858 0.97761 0.0
H1252 H 0.46892 0.21343 0.00951 0.0
H1253 H 0.4708 0.28648 0.99556 0.0
H1254 H 0.45086 0.27582 0.00463 0.0
H1255 H 0.45644 0.27412 0.98073 0.0
C1256 C 0.4169 0.23767 0.02199 0.0
C1257 C 0.40592 0.24251 0.0068 0.0
C1258 C 0.43591 0.23639 0.02027 0.0
C1259 C 0.44438 0.24 0.00337 0.0
C1260 C 0.4334 0.24363 0.98791 0.0
H1261 H 0.56363 0.22856 0.98739 0.0
H1262 H 0.53063 0.22733 0.98229 0.0
C1263 C 0.41436 0.24485 0.9896 0.0
C1264 C 0.46463 0.24114 0.00229 0.0
H1265 H 0.49893 0.27069 0.99594 0.0
C1266 C 0.47549 0.22589 0.00635 0.0
C1267 C 0.47323 0.25748 0.99844 0.0
C1268 C 0.4623 0.27448 0.99473 0.0
C1269 C 0.49466 0.22658 0.00675 0.0
C1270 C 0.50325 0.24292 0.00286 0.0
C1271 C 0.49238 0.25813 0.9987 0.0
C1272 C 0.52336 0.24482 0.00457 0.0
C1273 C 0.50557 0.20996 0.01201 0.0
C1274 C 0.53033 0.25564 0.01825 0.0
C1275 C 0.54914 0.25642 0.02114 0.0
C1276 C 0.5615 0.24654 0.01029 0.0
C1277 C 0.55455 0.23643 0.99593 0.0
C1278 C 0.53566 0.23555 0.99313 0.0
H1279 H 0.49684 0.19936 0.0178 0.0
H1280 H 0.51256 0.20467 0.99967 0.0
H1281 H 0.51617 0.21303 0.02225 0.0
H1282 H 0.52117 0.26301 0.02718 0.0
H1283 H 0.55395 0.26438 0.03231 0.0
H1284 H 0.9092 0.23344 0.02396 0.0
H1285 H 0.94154 0.23909 0.02694 0.0
H1286 H 0.94095 0.26644 0.97436 0.0
H1287 H 0.90869 0.25961 0.97078 0.0
H1288 H 0.96848 0.24635 0.97471 0.0
H1289 H 0.97048 0.27924 0.04152 0.0
H1290 H 0.96025 0.25796 0.04426 0.0
H1291 H 0.94928 0.2751 0.03015 0.0
C1292 C 0.91581 0.24102 0.01318 0.0
C1293 C 0.90624 0.24619 0.99716 0.0
C1294 C 0.93443 0.24437 0.01497 0.0
C1295 C 0.94392 0.25355 0.00108 0.0
C1296 C 0.93413 0.25937 0.98537 0.0
H1297 H 0.0577 0.28497 0.01625 0.0
H1298 H 0.02439 0.28361 0.01619 0.0
C1299 C 0.91558 0.25561 0.98337 0.0
C1300 C 0.96423 0.25567 0.00221 0.0
H1301 H 0.99894 0.26618 0.03112 0.0
C1302 C 0.97504 0.25092 0.98702 0.0
C1303 C 0.9731 0.26191 0.01807 0.0
C1304 C 0.96262 0.26903 0.03431 0.0
C1305 C 0.99418 0.25184 0.98732 0.0
C1306 C 0.00312 0.25677 0.00365 0.0
C1307 C 0.99232 0.26198 0.0187 0.0
C1308 C 0.02355 0.25699 0.00521 0.0
C1309 C 0.00448 0.24801 0.96982 0.0
C1310 C 0.03446 0.24227 -0.00014 0.0
C1311 C 0.05352 0.2432 0.99952 0.0
C1312 C 0.06224 0.25859 0.00528 0.0
C1313 C 0.05144 0.27282 0.01194 0.0
C1314 C 0.03232 0.27208 0.0118 0.0
H1315 H 0.9958 0.25069 0.95756 0.0
H1316 H 0.01681 0.25619 0.96853 0.0
H1317 H 0.00867 0.2337 0.9697 0.0
H1318 H 0.02825 0.23014 0.99547 0.0
H1319 H 0.06145 0.23198 0.99438 0.0
H1320 H 0.99255 0.6734 0.22739 0.0
H1321 H 0.98984 0.70611 0.22471 0.0
H1322 H 0.99538 0.70987 0.28334 0.0
H1323 H 0.99903 0.67753 0.28589 0.0
H1324 H 0.96878 0.73378 0.23797 0.0
H1325 H 0.03805 0.73836 0.26676 0.0
H1326 H 0.02872 0.71743 0.26016 0.0
H1327 H 0.02315 0.7268 0.28212 0.0
C1328 C 0.99278 0.68116 0.23972 0.0
C1329 C 0.99619 0.6728 0.25685 0.0
C1330 C 0.99134 0.69994 0.23818 0.0
C1331 C 0.99313 0.71066 0.25376 0.0
C1332 C 0.99466 0.7021 0.271 0.0
H1333 H 0.99049 0.82412 0.27895 0.0
H1334 H 0.99136 0.79132 0.27967 0.0
C1335 C 0.99642 0.68351 0.27248 0.0
C1336 C 0.99433 0.73062 0.25219 0.0
H1337 H 0.02054 0.76559 0.26478 0.0
C1338 C 0.98018 0.74068 0.2437 0.0
C1339 C 0.0093 0.73984 0.25948 0.0
C1340 C 0.02575 0.73005 0.26746 0.0
C1341 C 0.98029 0.75953 0.2429 0.0
C1342 C 0.99493 0.76867 0.25076 0.0
C1343 C 0.0092 0.75865 0.25896 0.0
C1344 C 0.99568 0.78863 0.2505 0.0
C1345 C 0.96454 0.76962 0.23399 0.0
C1346 C 0.99853 0.79811 0.234 0.0
C1347 C 0.99836 0.81684 0.2336 0.0
C1348 C 0.99516 0.82663 0.24967 0.0
C1349 C 0.99305 0.81708 0.26632 0.0
C1350 C 0.99342 0.7983 0.26673 0.0
H1351 H 0.95294 0.76086 0.23116 0.0
H1352 H 0.9597 0.78065 0.24288 0.0
H1353 H 0.96913 0.77563 0.22081 0.0
H1354 H 0.0006 0.79101 0.22133 0.0
H1355 H 6e-05 0.82366 0.22051 0.0
H1356 H 0.56453 0.74101 0.48325 0.0
H1357 H 0.53134 0.74068 0.48522 0.0
H1358 H 0.53189 0.78243 0.52502 0.0
H1359 H 0.56523 0.783 0.523 0.0
H1360 H 0.5074 0.73488 0.51397 0.0
H1361 H 0.49772 0.80347 0.48505 0.0
H1362 H 0.51927 0.79138 0.48409 0.0
H1363 H 0.51197 0.80162 0.50503 0.0
C1364 C 0.55768 0.74998 0.49265 0.0
C1365 C 0.56767 0.76208 0.50292 0.0
C1366 C 0.53863 0.74981 0.4937 0.0
C1367 C 0.529 0.76181 0.50493 0.0
C1368 C 0.53894 0.77331 0.51592 0.0
H1369 H 0.41394 0.74876 0.52941 0.0
H1370 H 0.44578 0.75726 0.53173 0.0
C1371 C 0.55806 0.77344 0.51494 0.0
C1372 C 0.50862 0.76225 0.50488 0.0
H1373 H 0.47107 0.78849 0.49413 0.0
C1374 C 0.49949 0.74665 0.50973 0.0
C1375 C 0.49822 0.77751 0.49905 0.0
C1376 C 0.50723 0.79443 0.49284 0.0
C1377 C 0.48037 0.74588 0.50903 0.0
C1378 C 0.46993 0.76122 0.50355 0.0
C1379 C 0.47902 0.77681 0.49855 0.0
C1380 C 0.44962 0.76085 0.5025 0.0
C1381 C 0.4715 0.72844 0.51374 0.0
C1382 C 0.44071 0.76144 0.48543 0.0
C1383 C 0.42228 0.75696 0.48414 0.0
C1384 C 0.41249 0.75188 0.4999 0.0
C1385 C 0.42098 0.75304 0.51708 0.0
C1386 C 0.4393 0.7576 0.51839 0.0
H1387 H 0.48145 0.71704 0.51373 0.0
H1388 H 0.46539 0.72922 0.52765 0.0
H1389 H 0.46044 0.72572 0.50388 0.0
H1390 H 0.44836 0.76394 0.47297 0.0
H1391 H 0.41633 0.75572 0.47067 0.0
H1392 H 0.91014 0.74618 0.53348 0.0
H1393 H 0.94317 0.73966 0.53496 0.0
H1394 H 0.94972 0.76365 0.48125 0.0
H1395 H 0.9171 0.77064 0.48003 0.0
H1396 H 0.97046 0.7221 0.51272 0.0
H1397 H 0.97978 0.79513 0.51435 0.0
H1398 H 0.95786 0.7852 0.51756 0.0
H1399 H 0.96704 0.78824 0.49485 0.0
C1400 C 0.91857 0.74956 0.52182 0.0
C1401 C 0.91108 0.759 0.50669 0.0
C1402 C 0.93747 0.74593 0.52269 0.0
C1403 C 0.94901 0.75158 0.50839 0.0
C1404 C 0.9412 0.75954 0.49263 0.0
H1405 H 0.06707 0.73001 0.49626 0.0
H1406 H 0.03393 0.73106 0.49164 0.0
C1407 C 0.92251 0.76339 0.49189 0.0
C1408 C 0.96924 0.75073 0.51036 0.0
H1409 H 0.00647 0.77716 0.51047 0.0
C1410 C 0.97836 0.73412 0.51229 0.0
C1411 C 0.97956 0.76643 0.51009 0.0
C1412 C 0.97058 0.78477 0.50929 0.0
C1413 C 0.99753 0.7328 0.51363 0.0
C1414 C 0.00788 0.74851 0.51264 0.0
C1415 C 0.99866 0.76509 0.51095 0.0
C1416 C 0.02815 0.74828 0.51456 0.0
C1417 C 0.00645 0.71465 0.5166 0.0
C1418 C 0.03611 0.75829 0.52836 0.0
C1419 C 0.05499 0.75801 0.53079 0.0
C1420 C 0.06654 0.74767 0.5195 0.0
C1421 C 0.05864 0.73814 0.50521 0.0
C1422 C 0.03964 0.73851 0.50272 0.0
H1423 H 0.99659 0.70475 0.52178 0.0
H1424 H 0.01198 0.70983 0.50336 0.0
H1425 H 0.01788 0.71523 0.52649 0.0
H1426 H 0.02764 0.76607 0.5376 0.0
H1427 H 0.06046 0.76557 0.54193 0.0
H1428 H 0.97909 0.17099 0.21454 0.0
H1429 H 0.98051 0.20336 0.20956 0.0
H1430 H 0.02536 0.2053 0.24738 0.0
H1431 H 0.02386 0.17304 0.25266 0.0
H1432 H 0.97718 0.22783 0.24278 0.0
H1433 H 0.03937 0.23764 0.20058 0.0
H1434 H 0.02659 0.21737 0.20007 0.0
H1435 H 0.04103 0.22161 0.21923 0.0
C1436 C 0.9897 0.17817 0.2213 0.0
C1437 C 0.00147 0.16932 0.23391 0.0
C1438 C 0.99036 0.19675 0.21858 0.0
C1439 C 0.00304 0.20681 0.22809 0.0
C1440 C 0.01555 0.19785 0.23977 0.0
H1441 H 0.03041 0.31553 0.24764 0.0
H1442 H 0.02909 0.28359 0.24236 0.0
C1443 C 0.01472 0.17936 0.24272 0.0
C1444 C 0.00213 0.22673 0.22732 0.0
H1445 H 0.02583 0.26336 0.2138 0.0
C1446 C 0.98768 0.23565 0.23625 0.0
C1447 C 0.01592 0.2369 0.21899 0.0
C1448 C 0.0316 0.22799 0.20905 0.0
C1449 C 0.987 0.25438 0.23769 0.0
C1450 C 0.00088 0.26465 0.22942 0.0
C1451 C 0.01511 0.25566 0.2201 0.0
C1452 C 0.00168 0.28452 0.23145 0.0
C1453 C 0.9719 0.26283 0.24891 0.0
C1454 C 0.9869 0.29606 0.22669 0.0
C1455 C 0.98755 0.31449 0.22994 0.0
C1456 C 0.00314 0.32181 0.23768 0.0
C1457 C 0.01817 0.31038 0.24164 0.0
C1458 C 0.01744 0.29203 0.23861 0.0
H1459 H 0.96546 0.25298 0.25828 0.0
H1460 H 0.97704 0.27386 0.25725 0.0
H1461 H 0.96118 0.26834 0.23957 0.0
H1462 H 0.97475 0.29081 0.22065 0.0
H1463 H 0.97577 0.32293 0.22667 0.0
H1464 H 0.47341 0.81958 0.72943 0.0
H1465 H 0.47148 0.78756 0.7232 0.0
H1466 H 0.52567 0.77876 0.7448 0.0
H1467 H 0.52786 0.81059 0.75035 0.0
H1468 H 0.52165 0.75897 0.71572 0.0
H1469 H 0.46142 0.74957 0.76065 0.0
H1470 H 0.45748 0.76527 0.74216 0.0
H1471 H 0.4736 0.77011 0.75983 0.0
C1472 C 0.48496 0.81081 0.73263 0.0
C1473 C 0.50077 0.81767 0.74043 0.0
C1474 C 0.48379 0.79244 0.72927 0.0
C1475 C 0.49827 0.78048 0.73392 0.0
C1476 C 0.51424 0.78752 0.74113 0.0
H1477 H 0.52083 0.66847 0.7516 0.0
H1478 H 0.52228 0.70069 0.74632 0.0
C1479 C 0.51548 0.80581 0.74432 0.0
C1480 C 0.49695 0.76067 0.73168 0.0
H1481 H 0.47252 0.7243 0.74499 0.0
C1482 C 0.51083 0.75145 0.72208 0.0
C1483 C 0.4829 0.75064 0.73997 0.0
C1484 C 0.4681 0.75934 0.75138 0.0
C1485 C 0.51116 0.73271 0.72074 0.0
C1486 C 0.49727 0.72274 0.72922 0.0
C1487 C 0.48312 0.73192 0.73837 0.0
C1488 C 0.49779 0.70277 0.72993 0.0
C1489 C 0.52645 0.72366 0.71031 0.0
C1490 C 0.48378 0.69298 0.72211 0.0
C1491 C 0.48307 0.6744 0.72488 0.0
C1492 C 0.49616 0.66524 0.73586 0.0
C1493 C 0.51062 0.675 0.74293 0.0
C1494 C 0.51146 0.69349 0.73994 0.0
H1495 H 0.53336 0.73311 0.70085 0.0
H1496 H 0.53671 0.71819 0.72019 0.0
H1497 H 0.52132 0.71242 0.70226 0.0
H1498 H 0.47303 0.69981 0.7144 0.0
H1499 H 0.47155 0.66745 0.7195 0.0
H1500 H 0.02369 0.42111 0.77021 0.0
H1501 H 0.02835 0.45337 0.77031 0.0
H1502 H 0.98119 0.46182 0.73582 0.0
H1503 H 0.97687 0.42982 0.73506 0.0
H1504 H 0.00639 0.48335 0.72508 0.0
H1505 H 0.00059 0.48876 0.80055 0.0
H1506 H 0.01894 0.47418 0.79348 0.0
H1507 H 0.99576 0.4685 0.78877 0.0
C1508 C 0.01448 0.4298 0.7624 0.0
C1509 C -0.00013 0.42268 0.75266 0.0
C1510 C 0.017 0.44835 0.76269 0.0
C1511 C 0.00484 0.46027 0.75349 0.0
C1512 C 0.99074 0.45308 0.74317 0.0
H1513 H 0.98576 0.57391 0.7746 0.0
H1514 H 0.98639 0.54112 0.77517 0.0
C1515 C 0.98831 0.43463 0.74273 0.0
C1516 C 0.00655 0.48017 0.75447 0.0
H1517 H 0.00809 0.51507 0.78408 0.0
C1518 C 0.00676 0.49024 0.73802 0.0
C1519 C 0.00673 0.48939 0.77129 0.0
C1520 C 0.00531 0.4797 0.78953 0.0
C1521 C 0.0071 0.50903 0.73786 0.0
C1522 C 0.00787 0.51827 0.75468 0.0
C1523 C 0.00766 0.50818 0.77115 0.0
C1524 C 0.00841 0.53832 0.75547 0.0
C1525 C 0.00602 0.51862 0.7195 0.0
C1526 C 0.02093 0.54792 0.7448 0.0
C1527 C 0.0202 0.56662 0.7441 0.0
C1528 C 0.00752 0.57629 0.75472 0.0
C1529 C 0.99581 0.56683 0.76641 0.0
C1530 C 0.99615 0.54804 0.76667 0.0
H1531 H 0.99861 0.51071 0.7093 0.0
H1532 H 0.99908 0.53185 0.72051 0.0
H1533 H 0.02001 0.52051 0.71416 0.0
H1534 H 0.03104 0.54097 0.73658 0.0
H1535 H 0.02943 0.57356 0.73501 0.0
H1536 H 0.19374 0.23452 0.50495 0.0
H1537 H 0.22691 0.23592 0.50383 0.0
H1538 H 0.22322 0.26942 0.45525 0.0
H1539 H 0.18992 0.26837 0.45653 0.0
H1540 H 0.24703 0.22235 0.47575 0.0
H1541 H 0.26259 0.29392 0.48362 0.0
H1542 H 0.24063 0.28509 0.48943 0.0
H1543 H 0.24658 0.28927 0.46585 0.0
C1544 C 0.19994 0.24271 0.49439 0.0
C1545 C 0.1891 0.25142 0.48091 0.0
C1546 C 0.21896 0.24337 0.49366 0.0
C1547 C 0.2277 0.25272 0.47942 0.0
C1548 C 0.2169 0.26233 0.46654 0.0
H1549 H 0.34883 0.25108 0.46427 0.0
H1550 H 0.31638 0.25276 0.45491 0.0
C1551 C 0.19779 0.26179 0.46735 0.0
C1552 C 0.24794 0.25096 0.47739 0.0
H1553 H 0.28748 0.27416 0.47818 0.0
C1554 C 0.25582 0.23374 0.4761 0.0
C1555 C 0.25952 0.26578 0.47759 0.0
C1556 C 0.25198 0.28457 0.47934 0.0
C1557 C 0.27482 0.23089 0.4758 0.0
C1558 C 0.28638 0.2456 0.47682 0.0
C1559 C 0.27859 0.2629 0.47717 0.0
C1560 C 0.30614 0.24305 0.481 0.0
C1561 C 0.28248 0.21206 0.47506 0.0
C1562 C 0.31108 0.23682 0.49854 0.0
C1563 C 0.32928 0.23609 0.50386 0.0
C1564 C 0.3432 0.24119 0.49171 0.0
C1565 C 0.33844 0.24668 0.47377 0.0
C1566 C 0.31994 0.2478 0.46851 0.0
H1567 H 0.27237 0.20274 0.46963 0.0
H1568 H 0.29493 0.21143 0.46639 0.0
H1569 H 0.28629 0.20747 0.48913 0.0
H1570 H 0.30073 0.23326 0.50847 0.0
H1571 H 0.33238 0.23218 0.5179 0.0
H1572 H 0.52008 0.43519 0.24995 0.0
H1573 H 0.51806 0.46746 0.25381 0.0
H1574 H 0.46277 0.4681 0.23402 0.0
H1575 H 0.46476 0.43568 0.23046 0.0
H1576 H 0.48416 0.49184 0.21528 0.0
H1577 H 0.49234 0.50072 0.29011 0.0
H1578 H 0.50964 0.48664 0.28001 0.0
H1579 H 0.48639 0.47968 0.28041 0.0
C1580 C 0.50716 0.44197 0.24752 0.0
C1581 C 0.49229 0.43267 0.24079 0.0
C1582 C 0.50608 0.46058 0.24943 0.0
C1583 C 0.49015 0.47032 0.24448 0.0
C1584 C 0.47516 0.46096 0.23811 0.0
H1585 H 0.47413 0.58552 0.26149 0.0
H1586 H 0.46909 0.55339 0.25987 0.0
C1587 C 0.47625 0.44239 0.23624 0.0
C1588 C 0.48965 0.49029 0.24428 0.0
H1589 H 0.49522 0.52671 0.27111 0.0
C1590 C 0.48645 0.49945 0.22754 0.0
C1591 C 0.49248 0.50032 0.26025 0.0
C1592 C 0.49524 0.49138 0.27876 0.0
C1593 C 0.48647 0.51821 0.22625 0.0
C1594 C 0.48992 0.52821 0.24209 0.0
C1595 C 0.49263 0.5191 0.25893 0.0
C1596 C 0.49155 0.54805 0.24136 0.0
C1597 C 0.48274 0.52719 0.20792 0.0
C1598 C 0.50557 0.55591 0.23114 0.0
C1599 C 0.50846 0.57427 0.23201 0.0
C1600 C 0.4974 0.5853 0.2431 0.0
C1601 C 0.48276 0.57756 0.25259 0.0
C1602 C 0.47998 0.55911 0.25184 0.0
H1603 H 0.47556 0.51827 0.19849 0.0
H1604 H 0.47441 0.53963 0.20954 0.0
H1605 H 0.49587 0.53075 0.20143 0.0
H1606 H 0.51484 0.54771 0.22314 0.0
H1607 H 0.51995 0.57969 0.22464 0.0
H1608 H 0.34256 0.71693 0.98176 0.0
H1609 H 0.30984 0.7137 0.98749 0.0
H1610 H 0.30495 0.76941 0.00058 0.0
H1611 H 0.3376 0.77268 0.99505 0.0
H1612 H 0.2845 0.74807 0.02401 0.0
H1613 H 0.27094 0.73236 0.95125 0.0
H1614 H 0.28746 0.71786 0.96247 0.0
H1615 H 0.29234 0.74099 0.95873 0.0
C1616 C 0.33458 0.72843 0.98615 0.0
C1617 C 0.34273 0.74509 0.98785 0.0
C1618 C 0.3158 0.7266 0.98924 0.0
C1619 C 0.30475 0.7414 0.99408 0.0
C1620 C 0.31308 0.75781 0.99674 0.0
H1621 H 0.18911 0.7637 0.98302 0.0
H1622 H 0.2221 0.76032 0.97947 0.0
C1623 C 0.3318 0.75965 0.99361 0.0
C1624 C 0.28448 0.74005 0.99584 0.0
H1625 H 0.24581 0.73185 0.97149 0.0
C1626 C 0.27606 0.7444 0.01256 0.0
C1627 C 0.27335 0.73553 0.98083 0.0
C1628 C 0.2814 0.73156 0.96224 0.0
C1629 C 0.25695 0.74435 0.01468 0.0
C1630 C 0.24584 0.73961 -0.00026 0.0
C1631 C 0.25426 0.73527 0.98302 0.0
C1632 C 0.22545 0.7402 0.00089 0.0
C1633 C 0.24879 0.75 0.03275 0.0
C1634 C 0.21607 0.72951 0.01364 0.0
C1635 C 0.19706 0.73134 0.01566 0.0
C1636 C 0.18696 0.74389 0.00496 0.0
C1637 C 0.19632 0.75389 0.99155 0.0
C1638 C 0.21528 0.75201 0.98951 0.0
H1639 H 0.25874 0.75701 0.04131 0.0
H1640 H 0.23666 0.75892 0.03053 0.0
H1641 H 0.24438 0.73801 0.04052 0.0
H1642 H 0.2235 0.72002 0.02234 0.0
H1643 H 0.19043 0.72343 0.02616 0.0
H1644 H 0.72243 0.99138 0.43007 0.0
H1645 H 0.71901 0.99459 0.46321 0.0
H1646 H 0.76786 0.02528 0.46441 0.0
H1647 H 0.77077 0.02282 0.43115 0.0
H1648 H 0.74014 0.98086 0.48746 0.0
H1649 H 0.73869 0.05328 0.4999 0.0
H1650 H 0.73611 0.04439 0.47726 0.0
H1651 H 0.75845 0.04665 0.48701 0.0
C1652 C 0.73207 0.99936 0.43731 0.0
C1653 C 0.74677 0.00699 0.42788 0.0
C1654 C 0.7302 0.00108 0.45634 0.0
C1655 C 0.74311 0.01026 0.46655 0.0
C1656 C 0.75739 0.01853 0.45701 0.0
H1657 H 0.7625 0.97849 0.58082 0.0
H1658 H 0.76567 0.98506 0.54801 0.0
C1659 C 0.75907 0.0171 0.43788 0.0
C1660 C 0.74264 0.00941 0.48715 0.0
H1661 H 0.74524 0.03424 0.52602 0.0
C1662 C 0.7411 0.99261 0.49581 0.0
C1663 C 0.74374 0.02466 0.49829 0.0
C1664 C 0.74414 0.04327 0.49013 0.0
C1665 C 0.74078 0.99059 0.51503 0.0
C1666 C 0.74281 0.00571 0.52618 0.0
C1667 C 0.74405 0.02257 0.51758 0.0
C1668 C 0.74308 0.00417 0.54672 0.0
C1669 C 0.73772 0.97223 0.52311 0.0
C1670 C 0.73037 0.01381 0.55738 0.0
C1671 C 0.72891 0.01045 0.57636 0.0
C1672 C 0.74004 0.99728 0.58503 0.0
C1673 C 0.75364 0.98863 0.57457 0.0
C1674 C 0.7553 0.99222 0.55572 0.0
H1675 H 0.73093 0.96352 0.51318 0.0
H1676 H 0.75107 0.96582 0.52668 0.0
H1677 H 0.72923 0.97289 0.53571 0.0
H1678 H 0.72089 0.02323 0.55089 0.0
H1679 H 0.71819 0.01725 0.58393 0.0
H1680 H 0.77108 0.00938 0.32815 0.0
H1681 H 0.76772 0.01361 0.29501 0.0
H1682 H 0.71055 0.00246 0.29942 0.0
H1683 H 0.71388 0.998 0.33266 0.0
H1684 H 0.7276 0.98208 0.27349 0.0
H1685 H 0.74551 0.05262 0.26234 0.0
H1686 H 0.76243 0.04028 0.27539 0.0
H1687 H 0.73991 0.04361 0.28472 0.0
C1688 C 0.75767 0.0083 0.32216 0.0
C1689 C 0.74275 0.00336 0.33311 0.0
C1690 C 0.75576 0.01075 0.30315 0.0
C1691 C 0.73885 0.00847 0.29462 0.0
C1692 C 0.72374 0.00432 0.30564 0.0
H1693 H 0.72735 0.02968 0.17592 0.0
H1694 H 0.72119 0.02896 0.20897 0.0
C1695 C 0.72563 0.00189 0.32468 0.0
C1696 C 0.73737 0.00888 0.27416 0.0
H1697 H 0.74672 0.03407 0.23587 0.0
C1698 C 0.73157 0.99355 0.26529 0.0
C1699 C 0.74233 0.02387 0.26334 0.0
C1700 C 0.74772 0.04109 0.27193 0.0
C1701 C 0.7313 0.99253 0.24602 0.0
C1702 C 0.73722 0.00717 0.23522 0.0
C1703 C 0.74231 0.02277 0.24407 0.0
C1704 C 0.73917 0.00628 0.21483 0.0
C1705 C 0.7247 0.97575 0.23741 0.0
C1706 C 0.75102 0.99356 0.20696 0.0
C1707 C 0.75451 0.99387 0.18806 0.0
C1708 C 0.74629 0.00699 0.1765 0.0
C1709 C 0.73378 0.01925 0.18429 0.0
C1710 C 0.73036 0.01896 0.20326 0.0
H1711 H 0.71548 0.9684 0.24681 0.0
H1712 H 0.71739 0.97876 0.22436 0.0
H1713 H 0.73658 0.96683 0.23441 0.0
H1714 H 0.75827 0.98383 0.21555 0.0
H1715 H 0.76431 0.98429 0.18265 0.0
H1716 H 0.74844 0.03319 0.93067 0.0
H1717 H 0.75084 0.03135 0.96405 0.0
H1718 H 0.73923 0.97532 0.96292 0.0
H1719 H 0.73622 0.97725 0.92944 0.0
H1720 H 0.71871 0.99138 0.98811 0.0
H1721 H 0.78957 0.01246 0.99786 0.0
H1722 H 0.77652 0.02863 0.98471 0.0
H1723 H 0.78088 0.00674 0.97567 0.0
C1724 C 0.74677 0.02037 0.93746 0.0
C1725 C 0.74217 0.00535 0.92732 0.0
C1726 C 0.74821 0.01931 0.95663 0.0
C1727 C 0.74543 0.00314 0.96616 0.0
C1728 C 0.74147 0.98797 0.95598 0.0
H1729 H 0.74682 0.97446 0.08352 0.0
H1730 H 0.74285 0.97382 0.05014 0.0
C1731 C 0.73988 0.98905 0.93679 0.0
C1732 C 0.74553 0.00234 0.98672 0.0
H1733 H 0.77041 0.013 0.02444 0.0
C1734 C 0.73011 0.99594 0.99603 0.0
C1735 C 0.76037 0.00827 0.99721 0.0
C1736 C 0.77783 0.01423 0.98835 0.0
C1737 C 0.72896 0.99577 0.01534 0.0
C1738 C 0.74361 0.00209 0.02574 0.0
C1739 C 0.75909 0.0083 0.01649 0.0
C1740 C 0.74328 0.00246 0.04622 0.0
C1741 C 0.71187 0.98926 0.0245 0.0
C1742 C 0.74435 0.01876 0.05527 0.0
C1743 C 0.74644 0.01918 0.07435 0.0
C1744 C 0.74781 0.00326 0.08487 0.0
C1745 C 0.74568 0.98697 0.07592 0.0
C1746 C 0.74346 0.98658 0.05678 0.0
H1747 H 0.70045 0.98828 0.01463 0.0
H1748 H 0.71463 0.97582 0.03063 0.0
H1749 H 0.70759 0.99827 0.03571 0.0
H1750 H 0.74421 0.03119 0.04746 0.0
H1751 H 0.74809 0.03196 0.08074 0.0
H1752 H 0.71872 0.99291 0.68388 0.0
H1753 H 0.72471 0.9975 0.71636 0.0
H1754 H 0.7801 0.97844 0.70915 0.0
H1755 H 0.77423 0.97398 0.67641 0.0
H1756 H 0.76093 0.96153 0.73878 0.0
H1757 H 0.755 0.0352 0.74241 0.0
H1758 H 0.73638 0.02519 0.73083 0.0
H1759 H 0.75888 0.02374 0.72111 0.0
C1760 C 0.73233 0.99014 0.68904 0.0
C1761 C 0.74604 0.98325 0.67744 0.0
C1762 C 0.73573 0.99273 0.70769 0.0
C1763 C 0.7529 0.98845 0.71524 0.0
C1764 C 0.76676 0.98192 0.70364 0.0
H1765 H 0.77594 0.01434 0.82994 0.0
H1766 H 0.78035 0.00902 0.79714 0.0
C1767 C 0.76341 0.97946 0.6849 0.0
C1768 C 0.75589 0.98979 0.73541 0.0
H1769 H 0.75354 0.01901 0.77086 0.0
C1770 C 0.75954 0.97413 0.74577 0.0
C1771 C 0.75424 0.00623 0.74458 0.0
C1772 C 0.75108 0.02359 0.73418 0.0
C1773 C 0.76081 0.97437 0.76505 0.0
C1774 C 0.75829 0.9907 0.77428 0.0
C1775 C 0.7554 0.00646 0.76385 0.0
C1776 C 0.75745 0.99167 0.79471 0.0
C1777 C 0.76469 0.95713 0.77542 0.0
C1778 C 0.74342 0.9833 0.80444 0.0
C1779 C 0.74085 0.98632 0.82319 0.0
C1780 C 0.75227 0.99777 0.8327 0.0
C1781 C 0.76702 0.00526 0.82318 0.0
C1782 C 0.76947 0.00236 0.80435 0.0
H1783 H 0.77127 0.94697 0.7665 0.0
H1784 H 0.77363 0.95928 0.7874 0.0
H1785 H 0.75167 0.95171 0.78054 0.0
H1786 H 0.73379 0.9752 0.79732 0.0
H1787 H 0.72928 0.98042 0.83001 0.0
H1788 H 0.43508 0.76179 0.01875 0.0
H1789 H 0.46781 0.76087 0.02518 0.0
H1790 H 0.47761 0.73144 0.97575 0.0
H1791 H 0.44498 0.73214 0.96927 0.0
H1792 H 0.49973 0.71978 0.00574 0.0
H1793 H 0.50144 0.79324 0.99443 0.0
H1794 H 0.48583 0.78561 0.01172 0.0
H1795 H 0.48212 0.7803 0.98812 0.0
C1796 C 0.44411 0.75472 0.00946 0.0
C1797 C 0.43733 0.74717 0.99338 0.0
C1798 C 0.46288 0.75438 0.01308 0.0
C1799 C 0.47522 0.74646 0.00072 0.0
C1800 C 0.46838 0.73777 0.98541 0.0
H1801 H 0.58635 0.76085 0.97092 0.0
H1802 H 0.55334 0.76237 0.97517 0.0
C1803 C 0.44966 0.73815 0.98174 0.0
C1804 C 0.49526 0.74814 0.00296 0.0
H1805 H 0.52934 0.7784 0.00109 0.0
C1806 C 0.5062 0.7326 0.00496 0.0
C1807 C 0.50372 0.76488 0.00165 0.0
C1808 C 0.49276 0.78198 0.99872 0.0
C1809 C 0.52533 0.73332 0.00545 0.0
C1810 C 0.53379 0.75006 0.00412 0.0
C1811 C 0.52284 0.76562 0.00235 0.0
C1812 C 0.55395 0.75149 0.00285 0.0
C1813 C 0.53638 0.7161 0.0066 0.0
C1814 C 0.56539 0.74568 0.01731 0.0
C1815 C 0.58437 0.74495 0.01497 0.0
C1816 C 0.59223 0.74998 0.99809 0.0
C1817 C 0.58078 0.75694 0.98411 0.0
C1818 C 0.56186 0.75773 0.98649 0.0
H1819 H 0.52795 0.7043 0.00411 0.0
H1820 H 0.54771 0.7162 0.99649 0.0
H1821 H 0.54242 0.71458 0.0205 0.0
H1822 H 0.5596 0.74111 0.03018 0.0
H1823 H 0.59279 0.73951 0.02601 0.0
H1824 H 0.94319 0.75934 0.00389 0.0
H1825 H 0.97644 0.75788 0.00344 0.0
H1826 H 0.97532 0.70706 0.97693 0.0
H1827 H 0.94186 0.70838 0.97737 0.0
H1828 H 0.99869 0.70759 0.00855 0.0
H1829 H 0.01241 0.76379 0.96052 0.0
H1830 H 0.99685 0.76943 0.97868 0.0
H1831 H 0.9905 0.75345 0.96192 0.0
C1832 C 0.94994 0.748 0.99757 0.0
C1833 C 0.93972 0.73405 0.99053 0.0
C1834 C 0.96904 0.74718 0.99735 0.0
C1835 C 0.97849 0.73239 0.99011 0.0
C1836 C 0.96838 0.71864 0.98258 0.0
H1837 H 0.09563 0.73706 0.97312 0.0
H1838 H 0.06383 0.72888 0.96973 0.0
C1839 C 0.94921 0.71951 0.98265 0.0
C1840 C 0.99885 0.73108 0.99115 0.0
H1841 H 0.03741 0.75277 0.97848 0.0
C1842 C 0.00719 0.71736 0.00183 0.0
C1843 C 0.01001 0.74373 0.98232 0.0
C1844 C 0.00204 0.75835 0.97007 0.0
C1845 C 0.02627 0.71628 0.0043 0.0
C1846 C 0.03737 0.72933 0.996 0.0
C1847 C 0.02901 0.74275 0.98494 0.0
C1848 C 0.0576 0.72975 0.99871 0.0
C1849 C 0.03437 0.70112 0.01572 0.0
C1850 C 0.06517 0.73196 0.01624 0.0
C1851 C 0.0836 0.73627 0.01821 0.0
C1852 C 0.09477 0.73855 0.0027 0.0
C1853 C 0.08754 0.73489 0.98537 0.0
C1854 C 0.06923 0.73049 0.9834 0.0
H1855 H 0.02506 0.68969 0.01661 0.0
H1856 H 0.04763 0.69641 0.00998 0.0
H1857 H 0.03673 0.70579 0.02984 0.0
H1858 H 0.05652 0.73182 0.02829 0.0
H1859 H 0.08853 0.7396 0.03167 0.0
H1860 H 0.99831 0.17635 0.77358 0.0
H1861 H 0.99721 0.20898 0.7734 0.0
H1862 H 0.0113 0.20989 0.716 0.0
H1863 H 0.01266 0.17713 0.71611 0.0
H1864 H 0.02816 0.23173 0.76263 0.0
H1865 H 0.96575 0.24475 0.72096 0.0
H1866 H 0.97028 0.2237 0.73273 0.0
H1867 H 0.9822 0.22902 0.7119 0.0
C1868 C 0.00088 0.18344 0.76081 0.0
C1869 C 0.00556 0.17405 0.74483 0.0
C1870 C 0.00037 0.20215 0.76078 0.0
C1871 C 0.00422 0.21195 0.74472 0.0
C1872 C 0.00818 0.20264 0.72855 0.0
H1873 H 0.99945 0.32447 0.71618 0.0
H1874 H 0.00589 0.2924 0.71667 0.0
C1875 C 0.00888 0.18389 0.7286 0.0
C1876 C 0.00464 0.23186 0.74507 0.0
H1877 H 0.98272 0.26964 0.72892 0.0
C1878 C 0.01823 0.24006 0.75527 0.0
C1879 C 0.99173 0.24273 0.73548 0.0
C1880 C 0.97655 0.2347 0.72473 0.0
C1881 C 0.01948 0.2588 0.75579 0.0
C1882 C 0.00648 0.26973 0.74624 0.0
C1883 C 0.99281 0.26142 0.73618 0.0
C1884 C 0.00658 0.28976 0.74627 0.0
C1885 C 0.03505 0.26662 0.76614 0.0
C1886 C 0.00588 0.2994 0.7627 0.0
C1887 C 0.00282 0.31803 0.76238 0.0
C1888 C -2e-05 0.32727 0.74564 0.0
C1889 C 0.0019 0.31779 0.72927 0.0
C1890 C 0.00531 0.29935 0.72956 0.0
H1891 H 0.04669 0.25693 0.76757 0.0
H1892 H 0.03994 0.2789 0.75922 0.0
H1893 H 0.03036 0.27007 0.78014 0.0
H1894 H 0.00645 0.29245 0.77583 0.0
H1895 H 0.00107 0.32484 0.77523 0.0
H1896 H 0.44372 0.26067 0.50016 0.0
H1897 H 0.47686 0.26153 0.49867 0.0
H1898 H 0.47841 0.21254 0.46868 0.0
H1899 H 0.44502 0.21145 0.47031 0.0
H1900 H 0.5026 0.21201 0.49869 0.0
H1901 H 0.51109 0.2733 0.45648 0.0
H1902 H 0.49614 0.27663 0.47568 0.0
H1903 H 0.4898 0.26184 0.45776 0.0
C1904 C 0.45101 0.25026 0.49283 0.0
C1905 C 0.44157 0.23605 0.48522 0.0
C1906 C 0.47005 0.25078 0.49201 0.0
C1907 C 0.48025 0.23715 0.4835 0.0
C1908 C 0.47088 0.22324 0.47531 0.0
H1909 H 0.59554 0.2522 0.46434 0.0
H1910 H 0.56424 0.24263 0.46106 0.0
C1911 C 0.45174 0.22275 0.47605 0.0
C1912 C 0.50063 0.23715 0.48401 0.0
H1913 H 0.53711 0.26276 0.47334 0.0
C1914 C 0.51018 0.22301 0.49297 0.0
C1915 C 0.51063 0.25141 0.47648 0.0
C1916 C 0.50142 0.26658 0.4659 0.0
C1917 C 0.52932 0.223 0.49499 0.0
C1918 C 0.53922 0.23763 0.48808 0.0
C1919 C 0.52965 0.25154 0.47876 0.0
C1920 C 0.55945 0.23908 0.49017 0.0
C1921 C 0.53873 0.20725 0.50437 0.0
C1922 C 0.56779 0.23924 0.50757 0.0
C1923 C 0.58605 0.24427 0.50942 0.0
C1924 C 0.59614 0.24953 0.49393 0.0
C1925 C 0.58822 0.24796 0.47652 0.0
C1926 C 0.57019 0.24271 0.47465 0.0
H1927 H 0.53033 0.19516 0.50391 0.0
H1928 H 0.55217 0.20422 0.49797 0.0
H1929 H 0.54099 0.21038 0.519 0.0
H1930 H 0.55984 0.23678 0.51984 0.0
H1931 H 0.59161 0.24562 0.52304 0.0
H1932 H 0.94528 0.23476 0.46765 0.0
H1933 H 0.97806 0.23211 0.47314 0.0
H1934 H 0.97233 0.26608 0.51994 0.0
H1935 H 0.93945 0.26883 0.51457 0.0
H1936 H 0.9986 0.27745 0.49388 0.0
H1937 H 0.00949 0.20602 0.51259 0.0
H1938 H 0.9961 0.20983 0.49223 0.0
H1939 H 0.98743 0.21718 0.51397 0.0
C1940 C 0.95087 0.24131 0.47942 0.0
C1941 C 0.93962 0.25199 0.49067 0.0
C1942 C 0.96967 0.23975 0.48255 0.0
C1943 C 0.97771 0.24885 0.49699 0.0
C1944 C 0.96645 0.2589 0.50874 0.0
H1945 H 0.09503 0.23677 0.52039 0.0
H1946 H 0.06198 0.24063 0.52458 0.0
C1947 C 0.94759 0.26034 0.50571 0.0
C1948 C 0.99795 0.24908 0.49877 0.0
H1949 H 0.03591 0.22208 0.50379 0.0
C1950 C 0.00675 0.26537 0.49626 0.0
C1951 C 0.00862 0.23337 0.50201 0.0
C1952 C -4e-05 0.21562 0.50552 0.0
C1953 C 0.02588 0.26624 0.49621 0.0
C1954 C 0.03656 0.2504 0.49863 0.0
C1955 C 0.02776 0.23422 0.50185 0.0
C1956 C 0.05682 0.25013 0.49685 0.0
C1957 C 0.03453 0.28411 0.49342 0.0
C1958 C 0.06499 0.25452 0.47999 0.0
C1959 C 0.08383 0.25231 0.47755 0.0
C1960 C 0.09498 0.24566 0.49193 0.0
C1961 C 0.08689 0.24207 0.50908 0.0
C1962 C 0.06798 0.24415 0.51146 0.0
H1963 H 0.02492 0.29527 0.49679 0.0
H1964 H 0.04694 0.28511 0.50198 0.0
H1965 H 0.03858 0.2857 0.47882 0.0
H1966 H 0.05669 0.2589 0.46841 0.0
H1967 H 0.08955 0.25499 0.46411 0.0
H1968 H 0.02037 0.68202 0.76981 0.0
H1969 H 0.0203 0.71416 0.77607 0.0
H1970 H 0.96477 0.7192 0.75717 0.0
H1971 H 0.96464 0.68728 0.75143 0.0
H1972 H 0.01638 0.74229 0.7535 0.0
H1973 H 0.95999 0.74617 0.80359 0.0
H1974 H 0.97024 0.72518 0.79682 0.0
H1975 H 0.95288 0.73602 0.78283 0.0
C1976 C 0.00807 0.68996 0.76729 0.0
C1977 C 0.99246 0.68201 0.7603 0.0
C1978 C 0.00804 0.70837 0.77082 0.0
C1979 C 0.99239 0.71923 0.76749 0.0
C1980 C 0.97685 0.71121 0.76045 0.0
H1981 H 0.96904 0.83077 0.7481 0.0
H1982 H 0.96839 0.79834 0.75241 0.0
C1983 C 0.97684 0.69288 0.75704 0.0
C1984 C 0.9925 0.73904 0.7703 0.0
H1985 H 0.96805 0.77391 0.78888 0.0
C1986 C 0.00597 0.74912 0.7615 0.0
C1987 C 0.97897 0.74816 0.78077 0.0
C1988 C 0.96483 0.73829 0.79169 0.0
C1989 C 0.00583 0.7679 0.76225 0.0
C1990 C 0.9919 0.77699 0.77209 0.0
C1991 C 0.97869 0.76698 0.78127 0.0
C1992 C 0.99042 0.79691 0.77202 0.0
C1993 C 0.02024 0.77805 0.75199 0.0
C1994 C 0.00244 0.80707 0.78227 0.0
C1995 C 0.00263 0.82575 0.78008 0.0
C1996 C 0.99093 0.83462 0.76741 0.0
C1997 C 0.97813 0.82445 0.75808 0.0
C1998 C 0.97782 0.80586 0.76044 0.0
H1999 H 0.02928 0.76916 0.74377 0.0
H2000 H 0.01374 0.78821 0.74269 0.0
H2001 H 0.02874 0.78519 0.7619 0.0
H2002 H 0.01227 0.80048 0.79133 0.0
H2003 H 0.01289 0.83303 0.78726 0.0
H2004 H 0.5179 0.33593 0.28138 0.0
H2005 H 0.51783 0.30336 0.28497 0.0
H2006 H 0.47038 0.30153 0.2505 0.0
H2007 H 0.47035 0.33401 0.24681 0.0
H2008 H 0.47129 0.27589 0.28207 0.0
H2009 H 0.53378 0.27387 0.23873 0.0
H2010 H 0.53424 0.28763 0.25867 0.0
H2011 H 0.51914 0.29351 0.24009 0.0
C2012 C 0.50703 0.32871 0.2751 0.0
C2013 C 0.49413 0.33771 0.26378 0.0
C2014 C 0.50716 0.31 0.27699 0.0
C2015 C 0.49429 0.2999 0.26775 0.0
C2016 C 0.4805 0.30896 0.25771 0.0
H2017 H 0.49398 0.19486 0.22341 0.0
H2018 H 0.49374 0.22658 0.23042 0.0
C2019 C 0.48047 0.32761 0.25568 0.0
C2020 C 0.49609 0.27999 0.26701 0.0
H2021 H 0.52193 0.24636 0.24807 0.0
C2022 C 0.48248 0.26941 0.27485 0.0
C2023 C 0.51056 0.27149 0.25735 0.0
C2024 C 0.52524 0.28212 0.24808 0.0
C2025 C 0.4829 0.25066 0.27318 0.0
C2026 C 0.49731 0.2422 0.2634 0.0
C2027 C 0.51098 0.25278 0.25572 0.0
C2028 C 0.49763 0.22263 0.2596 0.0
C2029 C 0.46759 0.24006 0.2813 0.0
C2030 C 0.5001 0.20964 0.27364 0.0
C2031 C 0.50041 0.19132 0.26962 0.0
C2032 C 0.49813 0.18565 0.25149 0.0
C2033 C 0.49575 0.1987 0.23753 0.0
C2034 C 0.49562 0.2169 0.24151 0.0
H2035 H 0.45617 0.24876 0.28617 0.0
H2036 H 0.46228 0.23077 0.27102 0.0
H2037 H 0.47281 0.23194 0.29311 0.0
H2038 H 0.5019 0.21368 0.28769 0.0
H2039 H 0.50226 0.18161 0.28068 0.0
H2040 H 0.46901 0.07817 0.73456 0.0
H2041 H 0.46246 0.0463 0.73724 0.0
H2042 H 0.51277 0.03702 0.76665 0.0
H2043 H 0.51913 0.06864 0.76449 0.0
H2044 H 0.48084 0.01805 0.7236 0.0
H2045 H 0.47932 0.00936 0.79886 0.0
H2046 H 0.4787 0.03112 0.7879 0.0
H2047 H 0.50012 0.0193 0.79159 0.0
C2048 C 0.47846 0.06943 0.74201 0.0
C2049 C 0.49453 0.0762 0.74947 0.0
C2050 C 0.47476 0.05112 0.74341 0.0
C2051 C 0.48695 0.03909 0.75241 0.0
C2052 C 0.50283 0.0459 0.76008 0.0
H2053 H 0.51766 0.92988 0.75967 0.0
H2054 H 0.51313 0.96209 0.75841 0.0
C2055 C 0.5065 0.06413 0.75874 0.0
C2056 C 0.48381 0.01935 0.75292 0.0
H2057 H 0.4851 0.98261 0.78157 0.0
C2058 C 0.48138 0.01037 0.73633 0.0
C2059 C 0.48439 0.00913 0.7695 0.0
C2060 C 0.48558 0.01776 0.78797 0.0
C2061 C 0.48059 0.99158 0.73582 0.0
C2062 C 0.48222 0.98139 0.75228 0.0
C2063 C 0.48389 0.99037 0.76891 0.0
C2064 C 0.48437 0.96149 0.75239 0.0
C2065 C 0.47897 0.98259 0.71759 0.0
C2066 C 0.46968 0.95017 0.74932 0.0
C2067 C 0.47219 0.93143 0.7503 0.0
C2068 C 0.48944 0.92375 0.75434 0.0
C2069 C 0.50409 0.93522 0.75689 0.0
C2070 C 0.50156 0.95374 0.75609 0.0
H2071 H 0.47862 0.99231 0.70591 0.0
H2072 H 0.49063 0.97309 0.71568 0.0
H2073 H 0.46632 0.97481 0.71739 0.0
H2074 H 0.45624 0.95583 0.74648 0.0
H2075 H 0.46064 0.92301 0.74823 0.0
H2076 H 0.16004 0.27461 0.01501 0.0
H2077 H 0.19269 0.27139 0.02145 0.0
H2078 H 0.18896 0.21426 0.01922 0.0
H2079 H 0.15648 0.21748 0.01234 0.0
H2080 H 0.21782 0.24999 0.04644 0.0
H2081 H 0.21993 0.22998 0.97342 0.0
H2082 H 0.20021 0.24079 0.98355 0.0
H2083 H 0.20489 0.21749 0.98795 0.0
C2084 C 0.16592 0.26137 0.01682 0.0
C2085 C 0.15563 0.24629 0.0132 0.0
C2086 C 0.1847 0.25952 0.02034 0.0
C2087 C 0.19335 0.24258 0.02038 0.0
C2088 C 0.18263 0.22747 0.01901 0.0
H2089 H 0.31047 0.21873 0.03507 0.0
H2090 H 0.27719 0.217 0.03627 0.0
C2091 C 0.16398 0.22932 0.01536 0.0
C2092 C 0.21357 0.24075 0.01909 0.0
H2093 H 0.24778 0.2288 0.98945 0.0
C2094 C 0.2244 0.24528 0.03404 0.0
C2095 C 0.22215 0.23488 0.00276 0.0
C2096 C 0.21127 0.23063 0.98591 0.0
C2097 C 0.24357 0.24392 0.03315 0.0
C2098 C 0.25213 0.23768 0.01693 0.0
C2099 C 0.24125 0.23331 0.00196 0.0
C2100 C 0.27234 0.23681 0.01478 0.0
C2101 C 0.25455 0.24969 0.04936 0.0
C2102 C 0.28074 0.24764 0.00151 0.0
C2103 C 0.29974 0.2485 0.00065 0.0
C2104 C 0.31083 0.23846 0.01296 0.0
C2105 C 0.30242 0.22656 0.02529 0.0
C2106 C 0.28335 0.22578 0.0262 0.0
H2107 H 0.24617 0.25763 0.05913 0.0
H2108 H 0.26005 0.2377 0.05681 0.0
H2109 H 0.26624 0.25776 0.04479 0.0
H2110 H 0.27257 0.25612 0.9924 0.0
H2111 H 0.30572 0.25782 0.99099 0.0
H2112 H 0.02692 0.07316 0.26844 0.0
H2113 H 0.02888 0.04072 0.26764 0.0
H2114 H 0.98249 0.04066 0.23139 0.0
H2115 H 0.97964 0.07315 0.23347 0.0
H2116 H 0.97785 0.01636 0.25413 0.0
H2117 H 0.04956 0.00671 0.23337 0.0
H2118 H 0.04837 0.019 0.25415 0.0
H2119 H 0.03861 0.02846 0.23333 0.0
C2120 C 0.01733 0.06629 0.26 0.0
C2121 C 0.00325 0.07585 0.25079 0.0
C2122 C 0.01854 0.0476 0.25944 0.0
C2123 C 0.00614 0.03793 0.24908 0.0
C2124 C 0.99234 0.04759 0.23947 0.0
H2125 H 0.02146 0.92432 0.22636 0.0
H2126 H 0.02337 0.95672 0.22746 0.0
C2127 C 0.9908 0.06626 0.24049 0.0
C2128 C 0.00673 0.01783 0.24929 0.0
H2129 H 0.03529 0.9811 0.24659 0.0
C2130 C 0.99043 0.00872 0.25226 0.0
C2131 C 0.02301 0.00754 0.24661 0.0
C2132 C 0.0408 0.01596 0.24148 0.0
C2133 C 0.98992 0.98994 0.25274 0.0
C2134 C 0.00638 0.97967 0.25128 0.0
C2135 C 0.02266 0.98876 0.24813 0.0
C2136 C 0.00686 0.95958 0.25196 0.0
C2137 C 0.97153 0.98146 0.25407 0.0
C2138 C 0.99775 0.94996 0.26583 0.0
C2139 C 0.99629 0.93136 0.26496 0.0
C2140 C 0.00461 0.92178 0.25066 0.0
C2141 C 0.0151 0.9312 0.23773 0.0
C2142 C 0.01608 0.94985 0.23829 0.0
H2143 H 0.9605 0.99065 0.24892 0.0
H2144 H 0.97116 0.96901 0.2461 0.0
H2145 H 0.96847 0.97828 0.26866 0.0
H2146 H 0.9912 0.95687 0.27706 0.0
H2147 H 0.98811 0.92453 0.27513 0.0
H2148 H 0.31522 0.71844 0.51282 0.0
H2149 H 0.28215 0.7209 0.51587 0.0
H2150 H 0.28202 0.77127 0.48647 0.0
H2151 H 0.31518 0.76878 0.48305 0.0
H2152 H 0.25971 0.74506 0.5319 0.0
H2153 H 0.24493 0.74408 0.45742 0.0
H2154 H 0.2672 0.73859 0.46667 0.0
H2155 H 0.25985 0.76152 0.46373 0.0
C2156 C 0.30825 0.73016 0.50712 0.0
C2157 C 0.31801 0.74339 0.49762 0.0
C2158 C 0.28925 0.7315 0.50882 0.0
C2159 C 0.27943 0.74604 0.50101 0.0
C2160 C 0.28917 0.75966 0.49219 0.0
H2161 H 0.17142 0.78214 0.52855 0.0
H2162 H 0.20335 0.77861 0.51975 0.0
C2163 C 0.30822 0.75833 0.49047 0.0
C2164 C 0.25909 0.74699 0.50242 0.0
H2165 H 0.21979 0.75093 0.47716 0.0
C2166 C 0.25104 0.74624 0.5199 0.0
C2167 C 0.24762 0.74821 0.48677 0.0
C2168 C 0.2553 0.74797 0.46757 0.0
C2169 C 0.23201 0.74724 0.52219 0.0
C2170 C 0.2206 0.74927 0.50662 0.0
C2171 C 0.22854 0.74949 0.48909 0.0
C2172 C 0.20054 0.75232 0.50866 0.0
C2173 C 0.2242 0.74621 0.54133 0.0
C2174 C 0.18803 0.73909 0.50441 0.0
C2175 C 0.16951 0.74119 0.50926 0.0
C2176 C 0.16337 0.75651 0.5185 0.0
C2177 C 0.17572 0.77018 0.52144 0.0
C2178 C 0.19403 0.76815 0.51652 0.0
H2179 H 0.23426 0.74056 0.55136 0.0
H2180 H 0.22016 0.75983 0.54575 0.0
H2181 H 0.21188 0.73794 0.5417 0.0
H2182 H 0.19276 0.72676 0.49829 0.0
H2183 H 0.1604 0.73034 0.50703 0.0
H2184 H 0.73635 0.5313 0.9172 0.0
H2185 H 0.73292 0.52543 0.95009 0.0
H2186 H 0.77056 0.48055 0.94653 0.0
H2187 H 0.77359 0.486 0.91343 0.0
H2188 H 0.74361 0.47363 0.971 0.0
H2189 H 0.77181 0.53968 0.9852 0.0
H2190 H 0.75162 0.54138 0.97144 0.0
H2191 H 0.77184 0.53049 0.96253 0.0
C2192 C 0.74368 0.51999 0.92334 0.0
C2193 C 0.75536 0.50921 0.91265 0.0
C2194 C 0.74183 0.51674 0.94221 0.0
C2195 C 0.75191 0.50288 0.95098 0.0
C2196 C 0.76275 0.49143 0.94017 0.0
H2197 H 0.77402 0.50918 0.0678 0.0
H2198 H 0.77715 0.50547 0.03471 0.0
C2199 C 0.76443 0.49453 0.9212 0.0
C2200 C 0.75185 0.50096 0.97143 0.0
H2201 H 0.75919 0.52405 0.01058 0.0
C2202 C 0.7471 0.48463 0.97967 0.0
C2203 C 0.75681 0.51513 0.98284 0.0
C2204 C 0.76349 0.53258 0.97507 0.0
C2205 C 0.74675 0.48225 0.99892 0.0
C2206 C 0.75085 0.49673 0.01031 0.0
C2207 C 0.75592 0.51292 0.002 0.0
C2208 C 0.74995 0.4957 0.03083 0.0
C2209 C 0.74234 0.46414 0.00678 0.0
C2210 C 0.7339 0.49079 0.03999 0.0
C2211 C 0.73226 0.49249 0.05908 0.0
C2212 C 0.7465 0.49953 0.06936 0.0
C2213 C 0.76284 0.50363 0.06031 0.0
C2214 C 0.76458 0.50162 0.04133 0.0
H2215 H 0.74558 0.45342 0.99688 0.0
H2216 H 0.74995 0.46123 0.01967 0.0
H2217 H 0.72754 0.46375 0.00981 0.0
H2218 H 0.7222 0.48662 0.0323 0.0
H2219 H 0.71935 0.4896 0.06554 0.0
H2220 H 0.78293 0.51327 0.16703 0.0
H2221 H 0.78167 0.50691 0.19986 0.0
H2222 H 0.72595 0.49092 0.19457 0.0
H2223 H 0.72747 0.49665 0.1613 0.0
H2224 H 0.75873 0.52655 0.22099 0.0
H2225 H 0.74624 0.45449 0.23227 0.0
H2226 H 0.75463 0.46336 0.21075 0.0
H2227 H 0.7309 0.46576 0.21648 0.0
C2228 C 0.77062 0.50771 0.17272 0.0
C2229 C 0.75526 0.50557 0.16159 0.0
C2230 C 0.76987 0.50421 0.19155 0.0
C2231 C 0.75369 0.4986 0.19981 0.0
C2232 C 0.73868 0.49508 0.18854 0.0
H2233 H 0.72342 0.5215 0.31246 0.0
H2234 H 0.72711 0.52124 0.27921 0.0
C2235 C 0.73953 0.49836 0.16948 0.0
C2236 C 0.75214 0.49875 0.22022 0.0
H2237 H 0.74395 0.47298 0.25837 0.0
C2238 C 0.75555 0.51479 0.22914 0.0
C2239 C 0.74809 0.48343 0.23091 0.0
C2240 C 0.7449 0.46572 0.22218 0.0
C2241 C 0.75502 0.51596 0.24834 0.0
C2242 C 0.75061 0.50076 0.25904 0.0
C2243 C 0.7473 0.48466 0.25017 0.0
C2244 C 0.74906 0.50145 0.2794 0.0
C2245 C 0.7595 0.53343 0.25699 0.0
C2246 C 0.76022 0.49044 0.2907 0.0
C2247 C 0.75817 0.49057 0.30984 0.0
C2248 C 0.74478 0.5016 0.31807 0.0
C2249 C 0.73398 0.51293 0.30669 0.0
C2250 C 0.73606 0.51281 0.28761 0.0
H2251 H 0.76742 0.54205 0.24752 0.0
H2252 H 0.74665 0.54074 0.26045 0.0
H2253 H 0.76743 0.53122 0.26982 0.0
H2254 H 0.77036 0.48156 0.28469 0.0
H2255 H 0.7666 0.48151 0.3181 0.0
H2256 H 0.75666 0.47169 0.56391 0.0
H2257 H 0.75419 0.47449 0.53054 0.0
H2258 H 0.76421 0.53075 0.53355 0.0
H2259 H 0.76725 0.52789 0.56696 0.0
H2260 H 0.73273 0.49293 0.50713 0.0
H2261 H 0.80349 0.51574 0.49814 0.0
H2262 H 0.79509 0.50732 0.5198 0.0
H2263 H 0.78982 0.52992 0.51253 0.0
C2264 C 0.75813 0.48472 0.5575 0.0
C2265 C 0.76234 0.49954 0.56811 0.0
C2266 C 0.75677 0.48629 0.53837 0.0
C2267 C 0.75955 0.50273 0.52936 0.0
C2268 C 0.76261 0.51779 0.54004 0.0
H2269 H 0.75249 0.53406 0.41338 0.0
H2270 H 0.75761 0.53369 0.44663 0.0
C2271 C 0.76411 0.5162 0.5592 0.0
C2272 C 0.75945 0.50393 0.50885 0.0
H2273 H 0.78509 0.51577 0.47142 0.0
C2274 C 0.74421 0.4979 0.49937 0.0
C2275 C 0.77446 0.51033 0.49858 0.0
C2276 C 0.79172 0.51604 0.50775 0.0
C2277 C 0.74348 0.49825 0.48007 0.0
C2278 C 0.75845 0.50468 0.46986 0.0
C2279 C 0.77363 0.51087 0.47926 0.0
C2280 C 0.75845 0.50494 0.44941 0.0
C2281 C 0.72658 0.49191 0.47072 0.0
C2282 C 0.75827 0.48892 0.43977 0.0
C2283 C 0.75555 0.48908 0.42076 0.0
C2284 C 0.75284 0.50529 0.41097 0.0
C2285 C 0.75454 0.52135 0.42044 0.0
C2286 C 0.75734 0.52116 0.4395 0.0
H2287 H 0.71488 0.49096 0.48036 0.0
H2288 H 0.72262 0.50102 0.45915 0.0
H2289 H 0.72937 0.47848 0.46507 0.0
H2290 H 0.75941 0.47624 0.44707 0.0
H2291 H 0.75436 0.47646 0.41392 0.0
H2292 H 0.72125 0.51676 0.81728 0.0
H2293 H 0.71815 0.50944 0.78489 0.0
H2294 H 0.77607 0.49904 0.78158 0.0
H2295 H 0.77912 0.50644 0.81393 0.0
H2296 H 0.73545 0.53033 0.75862 0.0
H2297 H 0.75532 0.45905 0.75038 0.0
H2298 H 0.74835 0.46811 0.77217 0.0
H2299 H 0.77098 0.47157 0.76363 0.0
C2300 C 0.73317 0.51197 0.80989 0.0
C2301 C 0.75034 0.51153 0.81838 0.0
C2302 C 0.73142 0.50801 0.7913 0.0
C2303 C 0.74684 0.50359 0.78074 0.0
C2304 C 0.76389 0.50201 0.78948 0.0
H2305 H 0.77099 0.52163 0.66654 0.0
H2306 H 0.7664 0.52386 0.69966 0.0
C2307 C 0.76562 0.506 0.80813 0.0
C2308 C 0.74542 0.50308 0.76034 0.0
H2309 H 0.75379 0.47705 0.72307 0.0
C2310 C 0.7393 0.5186 0.75088 0.0
C2311 C 0.75038 0.48781 0.75018 0.0
C2312 C 0.75648 0.47062 0.75957 0.0
C2313 C 0.73847 0.51941 0.7316 0.0
C2314 C 0.74396 0.50433 0.72143 0.0
C2315 C 0.74961 0.48864 0.73087 0.0
C2316 C 0.7448 0.50482 0.70101 0.0
C2317 C 0.7318 0.53642 0.72222 0.0
C2318 C 0.7338 0.49379 0.6906 0.0
C2319 C 0.73619 0.4927 0.67154 0.0
C2320 C 0.74989 0.50237 0.66258 0.0
C2321 C 0.76021 0.51412 0.67294 0.0
C2322 C 0.75765 0.51536 0.69193 0.0
H2323 H 0.7242 0.54526 0.7318 0.0
H2324 H 0.74366 0.54376 0.71683 0.0
H2325 H 0.72284 0.53348 0.71046 0.0
H2326 H 0.7238 0.48554 0.69732 0.0
H2327 H 0.7282 0.4833 0.66409 0.0
H2328 H 0.49262 0.32109 0.77805 0.0
H2329 H 0.4934 0.28838 0.77863 0.0
H2330 H 0.50257 0.28829 0.72023 0.0
H2331 H 0.50192 0.32093 0.71956 0.0
H2332 H 0.47335 0.26627 0.73221 0.0
H2333 H 0.53626 0.2522 0.77258 0.0
H2334 H 0.52034 0.2677 0.7828 0.0
H2335 H 0.53144 0.27358 0.76164 0.0
C2336 C 0.49525 0.31413 0.7654 0.0
C2337 C 0.49725 0.32373 0.74878 0.0
C2338 C 0.49564 0.29537 0.76573 0.0
C2339 C 0.49804 0.28576 0.74947 0.0
C2340 C 0.50065 0.29532 0.73297 0.0
H2341 H 0.49775 0.17251 0.72118 0.0
H2342 H 0.4934 0.20493 0.72018 0.0
C2343 C 0.5004 0.31404 0.73264 0.0
C2344 C 0.49707 0.26583 0.74952 0.0
H2345 H 0.51779 0.22768 0.76649 0.0
C2346 C 0.4831 0.25781 0.73967 0.0
C2347 C 0.50972 0.25473 0.75926 0.0
C2348 C 0.5254 0.26241 0.76956 0.0
C2349 C 0.4812 0.23912 0.73964 0.0
C2350 C 0.49389 0.22798 0.74937 0.0
C2351 C 0.50793 0.23607 0.75911 0.0
C2352 C 0.49315 0.20796 0.74969 0.0
C2353 C 0.46529 0.23158 0.72958 0.0
C2354 C 0.49405 0.19851 0.7665 0.0
C2355 C 0.4967 0.17994 0.76703 0.0
C2356 C 0.49827 0.1702 0.75078 0.0
C2357 C 0.49601 0.17943 0.73395 0.0
C2358 C 0.49362 0.19812 0.73339 0.0
H2359 H 0.45397 0.24159 0.72798 0.0
H2360 H 0.46977 0.22765 0.71565 0.0
H2361 H 0.46003 0.21962 0.73683 0.0
H2362 H 0.49372 0.20563 0.7793 0.0
H2363 H 0.49889 0.17332 0.7802 0.0
H2364 H 0.53216 0.92622 0.27168 0.0
H2365 H 0.53572 0.95865 0.27115 0.0
H2366 H 0.49554 0.96404 0.22828 0.0
H2367 H 0.49167 0.93179 0.22896 0.0
H2368 H 0.54467 0.98466 0.24592 0.0
H2369 H 0.47294 0.99494 0.2677 0.0
H2370 H 0.48405 0.97321 0.26777 0.0
H2371 H 0.47503 0.98283 0.24678 0.0
C2372 C 0.52441 0.93424 0.2618 0.0
C2373 C 0.51153 0.92631 0.25044 0.0
C2374 C 0.52636 0.95285 0.26162 0.0
C2375 C 0.51548 0.96394 0.25008 0.0
C2376 C 0.50369 0.9559 0.23773 0.0
H2377 H 0.52563 0.07573 0.22122 0.0
H2378 H 0.52764 0.04327 0.22371 0.0
C2379 C 0.50165 0.93737 0.23798 0.0
C2380 C 0.51589 0.98385 0.2514 0.0
H2381 H 0.48863 0.02091 0.25814 0.0
C2382 C 0.53243 0.99256 0.24869 0.0
C2383 C 0.50003 0.99428 0.25543 0.0
C2384 C 0.48205 0.98585 0.25978 0.0
C2385 C 0.5334 0.01131 0.24926 0.0
C2386 C 0.51734 0.02177 0.25232 0.0
C2387 C 0.50094 0.01302 0.25563 0.0
C2388 C 0.51707 0.04176 0.25141 0.0
C2389 C 0.55171 0.0197 0.24672 0.0
C2390 C 0.51015 0.05199 0.26602 0.0
C2391 C 0.50887 0.07072 0.26456 0.0
C2392 C 0.5143 0.07959 0.24838 0.0
C2393 C 0.52145 0.06935 0.23393 0.0
C2394 C 0.52272 0.05072 0.23538 0.0
H2395 H 0.56301 0.01022 0.25052 0.0
H2396 H 0.55348 0.02353 0.23207 0.0
H2397 H 0.55282 0.03184 0.25508 0.0
H2398 H 0.50556 0.04545 0.27849 0.0
H2399 H 0.50314 0.0782 0.27586 0.0
H2400 H 0.84098 0.77964 0.99027 0.0
H2401 H 0.80827 0.78243 0.98472 0.0
H2402 H 0.8062 0.72581 0.97646 0.0
H2403 H 0.83917 0.72303 0.98153 0.0
H2404 H 0.78035 0.74844 0.95395 0.0
H2405 H 0.77764 0.76234 0.02847 0.0
H2406 H 0.79236 0.77648 0.01533 0.0
H2407 H 0.79768 0.75302 0.01749 0.0
C2408 C 0.83374 0.76787 0.98643 0.0
C2409 C 0.84275 0.75109 0.98644 0.0
C2410 C 0.81496 0.76947 0.98348 0.0
C2411 C 0.80467 0.75428 0.98068 0.0
C2412 C 0.81385 0.73772 0.97876 0.0
H2413 H 0.69202 0.73729 0.00879 0.0
H2414 H 0.72516 0.73894 0.0075 0.0
C2415 C 0.8328 0.73614 0.98154 0.0
C2416 C 0.78439 0.75554 0.98205 0.0
H2417 H 0.7499 0.76522 0.01222 0.0
C2418 C 0.77367 0.75214 0.96666 0.0
C2419 C 0.77565 0.76011 0.99874 0.0
C2420 C 0.78636 0.76305 0.01602 0.0
C2421 C 0.75447 0.75341 0.96745 0.0
C2422 C 0.74575 0.75846 0.98403 0.0
C2423 C 0.75652 0.76164 0.99945 0.0
C2424 C 0.72548 0.75923 0.98606 0.0
C2425 C 0.74366 0.74884 0.95069 0.0
C2426 C 0.71447 0.77078 0.97514 0.0
C2427 C 0.69537 0.77 0.976 0.0
C2428 C 0.68693 0.75762 0.98777 0.0
C2429 C 0.69802 0.747 0.99958 0.0
C2430 C 0.71703 0.74785 0.99878 0.0
H2431 H 0.7521 0.74143 0.94054 0.0
H2432 H 0.73179 0.74066 0.9545 0.0
H2433 H 0.73845 0.76133 0.94395 0.0
H2434 H 0.72064 0.78001 0.96553 0.0
H2435 H 0.6873 0.77825 0.96658 0.0
H2436 H 0.96916 0.08173 0.75577 0.0
H2437 H 0.96407 0.04961 0.75546 0.0
H2438 H 0.0134 0.0416 0.72424 0.0
H2439 H 0.01861 0.07366 0.72443 0.0
H2440 H 0.98353 0.01948 0.71361 0.0
H2441 H 0.99732 0.01655 0.78858 0.0
H2442 H 0.97966 0.03208 0.78114 0.0
H2443 H 0.00283 0.03562 0.77436 0.0
C2444 C 0.97866 0.07326 0.74834 0.0
C2445 C 0.99438 0.08037 0.74021 0.0
C2446 C 0.97583 0.05482 0.74837 0.0
C2447 C 0.98857 0.04312 0.74019 0.0
C2448 C 0.00345 0.05032 0.73078 0.0
H2449 H 0.01762 0.93184 0.75784 0.0
H2450 H 0.01516 0.96446 0.75732 0.0
C2451 C 0.00637 0.06871 0.73084 0.0
C2452 C 0.98719 0.02338 0.74249 0.0
H2453 H 0.99062 0.98948 0.77448 0.0
C2454 C 0.98491 0.01292 0.72693 0.0
C2455 C 0.98931 0.01479 0.75986 0.0
C2456 C 0.99257 0.02525 0.77697 0.0
C2457 C 0.98465 0.99416 0.72826 0.0
C2458 C 0.98661 0.98558 0.74565 0.0
C2459 C 0.98892 0.99604 0.7612 0.0
C2460 C 0.98729 0.96573 0.74776 0.0
C2461 C 0.98285 0.98363 0.71096 0.0
C2462 C 0.9722 0.95551 0.74328 0.0
C2463 C 0.97351 0.9368 0.74374 0.0
C2464 C 0.98996 0.92793 0.74866 0.0
C2465 C 0.00473 0.93821 0.75406 0.0
C2466 C 0.00338 0.95689 0.75368 0.0
H2467 H 0.98515 0.99195 0.69844 0.0
H2468 H 0.99269 0.97213 0.71096 0.0
H2469 H 0.96891 0.97832 0.71023 0.0
H2470 H 0.95954 0.96201 0.73899 0.0
H2471 H 0.96188 0.92932 0.73951 0.0
H2472 H 0.69129 0.23411 0.52365 0.0
H2473 H 0.72432 0.22976 0.52028 0.0
H2474 H 0.72454 0.26947 0.47684 0.0
H2475 H 0.6916 0.27372 0.47989 0.0
H2476 H 0.74729 0.24087 0.46913 0.0
H2477 H 0.76104 0.26485 0.53921 0.0
H2478 H 0.74622 0.24621 0.53838 0.0
H2479 H 0.73895 0.26735 0.52854 0.0
C2480 C 0.69828 0.24174 0.51316 0.0
C2481 C 0.68861 0.25433 0.5021 0.0
C2482 C 0.71727 0.23937 0.51139 0.0
C2483 C 0.72712 0.24957 0.49858 0.0
C2484 C 0.71738 0.2615 0.48694 0.0
H2485 H 0.84048 0.27827 0.49419 0.0
H2486 H 0.80775 0.27579 0.49962 0.0
C2487 C 0.69844 0.2639 0.4887 0.0
C2488 C 0.74753 0.24826 0.4975 0.0
H2489 H 0.7865 0.25496 0.52196 0.0
C2490 C 0.75584 0.24384 0.48073 0.0
C2491 C 0.75882 0.25239 0.51252 0.0
C2492 C 0.75087 0.25813 0.53065 0.0
C2493 C 0.77496 0.24347 0.47857 0.0
C2494 C 0.78626 0.24736 0.49366 0.0
C2495 C 0.77795 0.25175 0.51043 0.0
C2496 C 0.80661 0.24812 0.49195 0.0
C2497 C 0.78285 0.23956 0.4599 0.0
C2498 C 0.81721 0.23322 0.48649 0.0
C2499 C 0.83606 0.23459 0.48343 0.0
C2500 C 0.84476 0.25089 0.48581 0.0
C2501 C 0.83428 0.2655 0.49222 0.0
C2502 C 0.81549 0.26411 0.49529 0.0
H2503 H 0.77243 0.24103 0.44891 0.0
H2504 H 0.79422 0.24855 0.4566 0.0
H2505 H 0.78827 0.22562 0.45982 0.0
H2506 H 0.81085 0.22059 0.48423 0.0
H2507 H 0.84367 0.22307 0.47852 0.0
H2508 H 0.26152 0.48643 0.08429 0.0
H2509 H 0.26517 0.49289 0.05157 0.0
H2510 H 0.21208 0.51889 0.05039 0.0
H2511 H 0.20868 0.51302 0.08333 0.0
H2512 H 0.24509 0.47866 0.02679 0.0
H2513 H 0.23894 0.55183 0.0167 0.0
H2514 H 0.24268 0.54152 0.03898 0.0
H2515 H 0.22013 0.54299 0.02935 0.0
C2516 C 0.25087 0.49406 0.0772 0.0
C2517 C 0.23482 0.49924 0.08645 0.0
C2518 C 0.25294 0.49769 0.05843 0.0
C2519 C 0.23893 0.50642 0.04836 0.0
C2520 C 0.22329 0.51249 0.05779 0.0
H2521 H 0.22293 0.48186 0.9338 0.0
H2522 H 0.21858 0.48745 0.96645 0.0
C2523 C 0.22134 0.5091 0.07669 0.0
C2524 C 0.23982 0.507 0.02786 0.0
H2525 H 0.23561 0.53423 0.9898 0.0
C2526 C 0.24314 0.49088 0.01877 0.0
C2527 C 0.23739 0.52291 0.01725 0.0
C2528 C 0.23477 0.54081 0.02607 0.0
C2529 C 0.24395 0.49014 0.99956 0.0
C2530 C 0.24075 0.50588 0.98891 0.0
C2531 C 0.23774 0.52211 0.99792 0.0
C2532 C 0.24093 0.50554 0.96846 0.0
C2533 C 0.2486 0.47245 0.99089 0.0
C2534 C 0.25403 0.51491 0.95835 0.0
C2535 C 0.25631 0.51201 0.93949 0.0
C2536 C 0.24559 0.4996 0.93048 0.0
C2537 C 0.23151 0.4914 0.94034 0.0
C2538 C 0.2291 0.49448 0.95907 0.0
H2539 H 0.25553 0.46307 0.00073 0.0
H2540 H 0.23587 0.46621 0.98637 0.0
H2541 H 0.25756 0.47421 0.97874 0.0
H2542 H 0.26325 0.52362 0.96524 0.0
H2543 H 0.26736 0.51847 0.93235 0.0
H2544 H 0.21363 0.48473 0.8392 0.0
H2545 H 0.20932 0.48966 0.80612 0.0
H2546 H 0.26586 0.50294 0.80048 0.0
H2547 H 0.27021 0.49824 0.83347 0.0
H2548 H 0.24278 0.52455 0.77866 0.0
H2549 H 0.22903 0.4527 0.76973 0.0
H2550 H 0.21424 0.46421 0.7855 0.0
H2551 H 0.23804 0.46122 0.79074 0.0
C2552 C 0.22505 0.48907 0.83097 0.0
C2553 C 0.2423 0.49096 0.83896 0.0
C2554 C 0.2226 0.49171 0.81202 0.0
C2555 C 0.23737 0.49626 0.80072 0.0
C2556 C 0.25429 0.4993 0.80887 0.0
H2557 H 0.26521 0.48026 0.68841 0.0
H2558 H 0.25907 0.47812 0.72127 0.0
C2559 C 0.25674 0.49666 0.82777 0.0
C2560 C 0.23563 0.49695 0.78034 0.0
H2561 H 0.22876 0.47087 0.74307 0.0
C2562 C 0.23951 0.51288 0.77087 0.0
C2563 C 0.23162 0.48162 0.77016 0.0
C2564 C 0.22814 0.46391 0.77947 0.0
C2565 C 0.23975 0.51384 0.75157 0.0
C2566 C 0.23574 0.49851 0.74139 0.0
C2567 C 0.23161 0.48266 0.75086 0.0
C2568 C 0.23747 0.49827 0.72101 0.0
C2569 C 0.24511 0.53106 0.74225 0.0
C2570 C 0.22677 0.50971 0.70969 0.0
C2571 C 0.23021 0.51094 0.69077 0.0
C2572 C 0.24443 0.50074 0.68281 0.0
C2573 C 0.25421 0.48839 0.69402 0.0
C2574 C 0.25074 0.48716 0.71288 0.0
H2575 H 0.25131 0.54037 0.75198 0.0
H2576 H 0.25494 0.52845 0.73096 0.0
H2577 H 0.2328 0.53776 0.73624 0.0
H2578 H 0.21618 0.51814 0.71559 0.0
H2579 H 0.22239 0.52059 0.68261 0.0
H2580 H 0.25185 0.4735 0.58547 0.0
H2581 H 0.24829 0.47362 0.55197 0.0
H2582 H 0.24413 0.53102 0.55133 0.0
H2583 H 0.24759 0.53103 0.58469 0.0
H2584 H 0.2206 0.48962 0.52716 0.0
H2585 H 0.28874 0.51899 0.51776 0.0
H2586 H 0.28168 0.50876 0.53915 0.0
H2587 H 0.27354 0.53082 0.5329 0.0
C2588 C 0.24977 0.48613 0.57825 0.0
C2589 C 0.25014 0.50226 0.5878 0.0
C2590 C 0.24784 0.48618 0.55907 0.0
C2591 C 0.24636 0.50234 0.54906 0.0
C2592 C 0.24561 0.51839 0.55869 0.0
H2593 H 0.24498 0.53529 0.43416 0.0
H2594 H 0.24799 0.53291 0.46755 0.0
C2595 C 0.24744 0.51836 0.57781 0.0
C2596 C 0.24634 0.50254 0.52857 0.0
H2597 H 0.27086 0.51609 0.49109 0.0
C2598 C 0.23162 0.49531 0.51925 0.0
C2599 C 0.26071 0.51001 0.51824 0.0
C2600 C 0.27716 0.51747 0.52745 0.0
C2601 C 0.23063 0.49579 0.49994 0.0
C2602 C 0.24504 0.50324 0.48955 0.0
C2603 C 0.25983 0.51033 0.49893 0.0
C2604 C 0.24475 0.50432 0.46901 0.0
C2605 C 0.2138 0.48889 0.49091 0.0
C2606 C 0.24273 0.48898 0.45846 0.0
C2607 C 0.24092 0.49032 0.43931 0.0
C2608 C 0.24134 0.50702 0.43023 0.0
C2609 C 0.24456 0.52221 0.44068 0.0
C2610 C 0.24622 0.52087 0.45983 0.0
H2611 H 0.20211 0.48842 0.50059 0.0
H2612 H 0.20976 0.49732 0.47885 0.0
H2613 H 0.21665 0.47512 0.48618 0.0
H2614 H 0.24216 0.47596 0.46506 0.0
H2615 H 0.23859 0.47834 0.43168 0.0
H2616 H 0.2289 0.48132 0.33375 0.0
H2617 H 0.23236 0.47691 0.30087 0.0
H2618 H 0.27589 0.51438 0.29916 0.0
H2619 H 0.27233 0.51907 0.33219 0.0
H2620 H 0.24889 0.52243 0.27355 0.0
H2621 H 0.26971 0.45123 0.26916 0.0
H2622 H 0.24981 0.45462 0.28311 0.0
H2623 H 0.27119 0.46345 0.29018 0.0
C2624 C 0.23962 0.48822 0.32653 0.0
C2625 C 0.25038 0.5005 0.3357 0.0
C2626 C 0.24158 0.48568 0.30766 0.0
C2627 C 0.25442 0.49526 0.29746 0.0
C2628 C 0.26589 0.50681 0.30673 0.0
H2629 H 0.27139 0.47171 0.18211 0.0
H2630 H 0.27622 0.47906 0.2142 0.0
C2631 C 0.26399 0.50931 0.32568 0.0
C2632 C 0.25469 0.49428 0.27704 0.0
H2633 H 0.25755 0.46496 0.24179 0.0
C2634 C 0.251 0.5099 0.26658 0.0
C2635 C 0.25753 0.47798 0.26787 0.0
C2636 C 0.26246 0.4609 0.27814 0.0
C2637 C 0.24959 0.50955 0.24731 0.0
C2638 C 0.25164 0.4931 0.23822 0.0
C2639 C 0.25581 0.47759 0.24868 0.0
C2640 C 0.24957 0.49146 0.21794 0.0
C2641 C 0.24605 0.52684 0.23689 0.0
C2642 C 0.23317 0.49647 0.20901 0.0
C2643 C 0.23052 0.49253 0.19044 0.0
C2644 C 0.24414 0.48336 0.18055 0.0
C2645 C 0.26074 0.47902 0.18931 0.0
C2646 C 0.26347 0.4831 0.20771 0.0
H2647 H 0.25017 0.53849 0.24495 0.0
H2648 H 0.25347 0.527 0.2236 0.0
H2649 H 0.23125 0.52838 0.23403 0.0
H2650 H 0.22203 0.50251 0.21663 0.0
H2651 H 0.21737 0.49539 0.18433 0.0
H2652 H 0.50093 0.8324 0.21714 0.0
H2653 H 0.50358 0.79984 0.21423 0.0
H2654 H 0.50796 0.79402 0.27295 0.0
H2655 H 0.50554 0.82645 0.27597 0.0
H2656 H 0.53243 0.7727 0.23087 0.0
H2657 H 0.46119 0.76532 0.25538 0.0
H2658 H 0.46922 0.78593 0.24548 0.0
H2659 H 0.4756 0.77943 0.26841 0.0
C2660 C 0.50285 0.82422 0.2294 0.0
C2661 C 0.50294 0.83209 0.2468 0.0
C2662 C 0.50429 0.80559 0.22772 0.0
C2663 C 0.50571 0.79444 0.24339 0.0
C2664 C 0.5067 0.80231 0.26068 0.0
H2665 H 0.50037 0.68217 0.27091 0.0
H2666 H 0.49836 0.71468 0.26917 0.0
C2667 C 0.50541 0.8209 0.26237 0.0
C2668 C 0.50529 0.77462 0.24185 0.0
H2669 H 0.47854 0.73884 0.25097 0.0
C2670 C 0.52062 0.76527 0.23513 0.0
C2671 C 0.4899 0.76493 0.24748 0.0
C2672 C 0.47294 0.77433 0.2545 0.0
C2673 C 0.52121 0.74646 0.23443 0.0
C2674 C 0.50579 0.73669 0.24009 0.0
C2675 C 0.49035 0.74617 0.24655 0.0
C2676 C 0.50572 0.71666 0.24045 0.0
C2677 C 0.53867 0.73726 0.22838 0.0
C2678 C 0.50983 0.70665 0.22474 0.0
C2679 C 0.51109 0.68791 0.22574 0.0
C2680 C 0.50804 0.67873 0.24243 0.0
C2681 C 0.50284 0.68874 0.25783 0.0
C2682 C 0.50173 0.70741 0.25686 0.0
H2683 H 0.55049 0.74613 0.22939 0.0
H2684 H 0.54156 0.72502 0.23677 0.0
H2685 H 0.53738 0.7334 0.21384 0.0
H2686 H 0.51239 0.71333 0.21174 0.0
H2687 H 0.51506 0.68065 0.2136 0.0
H2688 H 0.06645 0.3541 0.28826 0.0
H2689 H 0.08085 0.33499 0.31185 0.0
H2690 H 0.02913 0.33059 0.33959 0.0
H2691 H 0.01458 0.34916 0.31557 0.0
H2692 H 0.0812 0.34862 0.34587 0.0
H2693 H 0.05155 0.28129 0.34878 0.0
H2694 H 0.0494 0.29586 0.32887 0.0
H2695 H 0.03492 0.29927 0.34848 0.0
C2696 C 0.05803 0.34825 0.29889 0.0
C2697 C 0.03948 0.35297 0.30017 0.0
C2698 C 0.06626 0.33748 0.31242 0.0
C2699 C 0.0561 0.33148 0.32754 0.0
C2700 C 0.03718 0.33483 0.32792 0.0
H2701 H 0.09133 0.2913 0.43523 0.0
H2702 H 0.07387 0.30668 0.41072 0.0
C2703 C 0.02886 0.34541 0.31417 0.0
C2704 C 0.06578 0.32462 0.34409 0.0
H2705 H 0.06957 0.28945 0.3743 0.0
C2706 C 0.07871 0.33562 0.352 0.0
C2707 C 0.06229 0.30782 0.35225 0.0
C2708 C 0.0489 0.29529 0.34409 0.0
C2709 C 0.08841 0.3302 0.36773 0.0
C2710 C 0.08512 0.31334 0.37572 0.0
C2711 C 0.07194 0.30244 0.36811 0.0
C2712 C 0.09612 0.30625 0.39123 0.0
C2713 C 0.10211 0.34252 0.37573 0.0
C2714 C 0.11448 0.30144 0.38843 0.0
C2715 C 0.12442 0.29268 0.40231 0.0
C2716 C 0.11614 0.28867 0.41921 0.0
C2717 C 0.09807 0.29443 0.42238 0.0
C2718 C 0.08805 0.30305 0.40838 0.0
H2719 H 0.10017 0.35644 0.37048 0.0
H2720 H 0.10116 0.34247 0.39093 0.0
H2721 H 0.11606 0.33782 0.37196 0.0
H2722 H 0.12086 0.30371 0.3752 0.0
H2723 H 0.1383 0.28826 0.39951 0.0
H2724 H 0.00393 0.86271 0.66051 0.0
H2725 H 0.99007 0.85213 0.63224 0.0
H2726 H 0.93669 0.85868 0.65644 0.0
H2727 H 0.95047 0.86894 0.68475 0.0
H2728 H 0.94237 0.82582 0.64184 0.0
H2729 H 0.96157 0.87839 0.59137 0.0
H2730 H 0.98034 0.86863 0.60412 0.0
H2731 H 0.96299 0.88137 0.61585 0.0
C2732 C 0.98923 0.8621 0.65967 0.0
C2733 C 0.97825 0.86664 0.67477 0.0
C2734 C 0.98132 0.85617 0.64349 0.0
C2735 C 0.96232 0.85484 0.64213 0.0
C2736 C 0.95137 0.85968 0.65715 0.0
H2737 H 0.89117 0.82989 0.55181 0.0
H2738 H 0.90941 0.84547 0.57435 0.0
C2739 C 0.95925 0.86553 0.6733 0.0
C2740 C 0.95382 0.8471 0.62572 0.0
H2741 H 0.94806 0.85254 0.5794 0.0
C2742 C 0.9436 0.83169 0.62821 0.0
C2743 C 0.95533 0.85486 0.60796 0.0
C2744 C 0.96551 0.87182 0.60461 0.0
C2745 C 0.93493 0.82376 0.61344 0.0
C2746 C 0.9368 0.83122 0.5956 0.0
C2747 C 0.94685 0.84674 0.59307 0.0
C2748 C 0.92798 0.82311 0.57961 0.0
C2749 C 0.92355 0.80759 0.61715 0.0
C2750 C 0.93295 0.80573 0.57449 0.0
C2751 C 0.92255 0.7968 0.56174 0.0
C2752 C 0.90706 0.80516 0.55374 0.0
C2753 C 0.90301 0.8231 0.55773 0.0
C2754 C 0.91339 0.832 0.57063 0.0
H2755 H 0.92005 0.80609 0.63192 0.0
H2756 H 0.91072 0.80838 0.6091 0.0
H2757 H 0.93133 0.79543 0.61301 0.0
H2758 H 0.94436 0.79875 0.58103 0.0
H2759 H 0.92618 0.78306 0.55876 0.0
H2760 H 0.46704 0.66175 0.78789 0.0
H2761 H 0.45535 0.67885 0.81382 0.0
H2762 H 0.40551 0.64964 0.81279 0.0
H2763 H 0.41705 0.63267 0.78656 0.0
H2764 H 0.39976 0.6862 0.81649 0.0
H2765 H 0.4512 0.65988 0.86628 0.0
H2766 H 0.46106 0.66967 0.84607 0.0
H2767 H 0.44781 0.64995 0.84423 0.0
C2768 C 0.45358 0.659 0.79321 0.0
C2769 C 0.44291 0.64593 0.78532 0.0
C2770 C 0.44697 0.6687 0.80804 0.0
C2771 C 0.42969 0.6653 0.81537 0.0
C2772 C 0.41889 0.65241 0.80733 0.0
H2773 H 0.39341 0.70105 0.92182 0.0
H2774 H 0.40098 0.68357 0.89476 0.0
C2775 C 0.42546 0.64277 0.79238 0.0
C2776 C 0.42291 0.6753 0.83137 0.0
H2777 H 0.43293 0.68477 0.87572 0.0
C2778 C 0.40692 0.68583 0.82949 0.0
C2779 C 0.4322 0.67459 0.84834 0.0
C2780 C 0.44892 0.66278 0.85146 0.0
C2781 C 0.40016 0.69601 0.84409 0.0
C2782 C 0.40984 0.69581 0.86083 0.0
C2783 C 0.42563 0.68501 0.86279 0.0
C2784 C 0.4038 0.70651 0.87666 0.0
C2785 C 0.38262 0.70667 0.84154 0.0
C2786 C 0.40277 0.72521 0.87539 0.0
C2787 C 0.39833 0.73524 0.89083 0.0
C2788 C 0.39508 0.72667 0.90774 0.0
C2789 C 0.39586 0.70797 0.90891 0.0
C2790 C 0.40019 0.69798 0.8935 0.0
H2791 H 0.3745 0.70172 0.82993 0.0
H2792 H 0.37416 0.70624 0.85417 0.0
H2793 H 0.38582 0.7208 0.83849 0.0
H2794 H 0.40588 0.73206 0.8626 0.0
H2795 H 0.39793 0.74966 0.88965 0.0
H2796 H 0.56978 0.18683 0.04368 0.0
H2797 H 0.55818 0.17126 0.0711 0.0
H2798 H 0.59401 0.20107 0.10509 0.0
H2799 H 0.60557 0.21661 0.07792 0.0
H2800 H 0.59499 0.16183 0.11039 0.0
H2801 H 0.52553 0.19333 0.11328 0.0
H2802 H 0.53301 0.18482 0.09152 0.0
H2803 H 0.54413 0.20352 0.10107 0.0
C2804 C 0.575 0.19017 0.05703 0.0
C2805 C 0.58854 0.20292 0.05869 0.0
C2806 C 0.56839 0.18129 0.07264 0.0
C2807 C 0.57527 0.18506 0.09007 0.0
C2808 C 0.58857 0.19798 0.09174 0.0
H2809 H 0.5355 0.15916 0.19804 0.0
H2810 H 0.54997 0.17283 0.17133 0.0
C2811 C 0.59508 0.2069 0.07622 0.0
C2812 C 0.56898 0.17531 0.10661 0.0
H2813 H 0.5326 0.17089 0.13537 0.0
C2814 C 0.58133 0.16372 0.11585 0.0
C2815 C 0.55123 0.17798 0.11371 0.0
C2816 C 0.53766 0.19066 0.10452 0.0
C2817 C 0.57634 0.15467 0.13205 0.0
C2818 C 0.55856 0.15731 0.1391 0.0
C2819 C 0.54623 0.16891 0.12987 0.0
C2820 C 0.55242 0.14837 0.15619 0.0
C2821 C 0.59014 0.14262 0.14172 0.0
C2822 C 0.54953 0.12996 0.15672 0.0
C2823 C 0.54122 0.12204 0.17201 0.0
C2824 C 0.53563 0.13245 0.18697 0.0
C2825 C 0.53961 0.15071 0.1868 0.0
C2826 C 0.54782 0.1586 0.1715 0.0
H2827 H 0.60414 0.14442 0.13629 0.0
H2828 H 0.59011 0.14518 0.15668 0.0
H2829 H 0.58646 0.12852 0.13983 0.0
H2830 H 0.55286 0.12189 0.14496 0.0
H2831 H 0.53832 0.10798 0.17163 0.0
H2832 H 0.07417 0.64725 0.21693 0.0
H2833 H 0.09356 0.6594 0.19264 0.0
H2834 H 0.04903 0.69365 0.17403 0.0
H2835 H 0.02964 0.68177 0.19832 0.0
H2836 H 0.08557 0.65617 0.15534 0.0
H2837 H 0.09211 0.72714 0.17342 0.0
H2838 H 0.08495 0.71036 0.18979 0.0
H2839 H 0.06897 0.71996 0.17351 0.0
C2840 C 0.06866 0.65776 0.20802 0.0
C2841 C 0.05034 0.66353 0.20954 0.0
C2842 C 0.07973 0.66459 0.19406 0.0
C2843 C 0.07275 0.67746 0.18157 0.0
C2844 C 0.05478 0.68391 0.18367 0.0
H2845 H 0.09994 0.70284 0.06925 0.0
H2846 H 0.08789 0.68957 0.09765 0.0
C2847 C 0.04369 0.67705 0.19754 0.0
C2848 C 0.08359 0.68299 0.16536 0.0
H2849 H 0.09948 0.71952 0.14251 0.0
C2850 C 0.08882 0.66999 0.15262 0.0
C2851 C 0.08789 0.701 0.1619 0.0
C2852 C 0.08335 0.71541 0.17546 0.0
C2853 C 0.09773 0.67461 0.13621 0.0
C2854 C 0.10129 0.69273 0.13237 0.0
C2855 C 0.09659 0.70564 0.1454 0.0
C2856 C 0.10963 0.69874 0.11486 0.0
C2857 C 0.10326 0.66008 0.12312 0.0
C2858 C 0.12588 0.70814 0.11508 0.0
C2859 C 0.13271 0.71573 0.09894 0.0
C2860 C 0.12337 0.71414 0.08228 0.0
C2861 C 0.10749 0.70411 0.08188 0.0
C2862 C 0.10063 0.69651 0.09809 0.0
H2863 H 0.10406 0.64681 0.13012 0.0
H2864 H 0.09295 0.6595 0.11205 0.0
H2865 H 0.11665 0.6628 0.1167 0.0
H2866 H 0.13301 0.71005 0.12786 0.0
H2867 H 0.14496 0.72344 0.09965 0.0
H2868 H 0.59114 0.7768 0.44288 0.0
H2869 H 0.58535 0.78265 0.41013 0.0
H2870 H 0.60381 0.83642 0.41594 0.0
H2871 H 0.61042 0.83036 0.44818 0.0
H2872 H 0.56213 0.80563 0.39519 0.0
H2873 H 0.63036 0.82337 0.37032 0.0
H2874 H 0.6269 0.81283 0.39246 0.0
H2875 H 0.62424 0.83668 0.38962 0.0
C2876 C 0.59422 0.78975 0.43702 0.0
C2877 C 0.60138 0.80307 0.44796 0.0
C2878 C 0.59092 0.79308 0.41835 0.0
C2879 C 0.59463 0.80983 0.41044 0.0
C2880 C 0.60149 0.82319 0.42152 0.0
H2881 H 0.55114 0.87877 0.33132 0.0
H2882 H 0.56883 0.86293 0.3552 0.0
C2883 C 0.60499 0.8198 0.44004 0.0
C2884 C 0.58968 0.81412 0.39112 0.0
H2885 H 0.60463 0.83618 0.35276 0.0
C2886 C 0.57156 0.81184 0.38573 0.0
C2887 C 0.60202 0.82215 0.3787 0.0
C2888 C 0.622 0.8237 0.38304 0.0
C2889 C 0.56513 0.81857 0.36883 0.0
C2890 C 0.57712 0.8278 0.35709 0.0
C2891 C 0.59548 0.82918 0.36192 0.0
C2892 C 0.57007 0.83789 0.34096 0.0
C2893 C 0.54528 0.81675 0.36406 0.0
C2894 C 0.56561 0.82916 0.3248 0.0
C2895 C 0.55563 0.83823 0.31105 0.0
C2896 C 0.54985 0.85604 0.31348 0.0
C2897 C 0.55542 0.86504 0.32913 0.0
C2898 C 0.56553 0.85604 0.34275 0.0
H2899 H 0.53767 0.8094 0.37485 0.0
H2900 H 0.53877 0.83017 0.36207 0.0
H2901 H 0.54408 0.80958 0.35096 0.0
H2902 H 0.56899 0.81512 0.32328 0.0
H2903 H 0.55141 0.83098 0.29913 0.0
H2904 H 0.43063 0.35382 0.69238 0.0
H2905 H 0.41619 0.33893 0.66672 0.0
H2906 H 0.4653 0.30717 0.65852 0.0
H2907 H 0.47987 0.3222 0.68376 0.0
H2908 H 0.45317 0.32448 0.62722 0.0
H2909 H 0.39706 0.28843 0.66186 0.0
H2910 H 0.39782 0.31192 0.66617 0.0
H2911 H 0.41592 0.29731 0.67431 0.0
C2912 C 0.43817 0.3434 0.6853 0.0
C2913 C 0.45635 0.33915 0.68995 0.0
C2914 C 0.42992 0.33492 0.6707 0.0
C2915 C 0.43968 0.32191 0.66084 0.0
C2916 C 0.45758 0.31722 0.66596 0.0
H2917 H 0.41014 0.24381 0.5838 0.0
H2918 H 0.41834 0.26126 0.61041 0.0
C2919 C 0.46588 0.3258 0.68035 0.0
C2920 C 0.43192 0.31395 0.64435 0.0
H2921 H 0.3987 0.28676 0.62957 0.0
C2922 C 0.44121 0.31629 0.62768 0.0
C2923 C 0.41636 0.30328 0.64512 0.0
C2924 C 0.40625 0.29992 0.66283 0.0
C2925 C 0.43567 0.30781 0.61178 0.0
C2926 C 0.42012 0.2971 0.61252 0.0
C2927 C 0.41055 0.2951 0.62909 0.0
C2928 C 0.41439 0.28684 0.59657 0.0
C2929 C 0.44697 0.3098 0.59456 0.0
C2930 C 0.40932 0.2955 0.58007 0.0
C2931 C 0.40487 0.28555 0.56479 0.0
C2932 C 0.40519 0.26686 0.56596 0.0
C2933 C 0.40986 0.25823 0.58258 0.0
C2934 C 0.41445 0.26816 0.59778 0.0
H2935 H 0.46067 0.315 0.59748 0.0
H2936 H 0.44871 0.29684 0.58757 0.0
H2937 H 0.43995 0.31934 0.58497 0.0
H2938 H 0.40887 0.30992 0.579 0.0
H2939 H 0.40111 0.29247 0.55214 0.0
H2940 H 0.94556 0.11372 0.81637 0.0
H2941 H 0.92871 0.12485 0.84295 0.0
H2942 H 0.9323 0.17858 0.82152 0.0
H2943 H 0.94907 0.16754 0.7948 0.0
H2944 H 0.9522 0.16728 0.85686 0.0
H2945 H 0.87825 0.1522 0.85598 0.0
H2946 H 0.89447 0.13579 0.84762 0.0
H2947 H 0.89093 0.15635 0.8351 0.0
C2948 C 0.94206 0.12782 0.81694 0.0
C2949 C 0.94877 0.13984 0.80372 0.0
C2950 C 0.93241 0.13413 0.8321 0.0
C2951 C 0.92938 0.1525 0.83413 0.0
C2952 C 0.93447 0.16434 0.82004 0.0
H2953 H 0.91055 0.22322 0.92261 0.0
H2954 H 0.92127 0.20779 0.89542 0.0
C2955 C 0.944 0.15802 0.8048 0.0
C2956 C 0.92458 0.15946 0.85229 0.0
H2957 H 0.88979 0.16489 0.88283 0.0
C2958 C 0.93854 0.16683 0.86256 0.0
C2959 C 0.90691 0.15834 0.85973 0.0
C2960 C 0.89166 0.15031 0.8491 0.0
C2961 C 0.93524 0.17341 0.88011 0.0
C2962 C 0.91738 0.17301 0.88731 0.0
C2963 C 0.90348 0.1652 0.87722 0.0
C2964 C 0.91255 0.18178 0.90468 0.0
C2965 C 0.95096 0.18055 0.8908 0.0
C2966 C 0.90415 0.17224 0.91893 0.0
C2967 C 0.89788 0.18107 0.93451 0.0
C2968 C 0.89981 0.1996 0.93594 0.0
C2969 C 0.90894 0.20894 0.92197 0.0
C2970 C 0.91515 0.20012 0.90643 0.0
H2971 H 0.96417 0.17448 0.88632 0.0
H2972 H 0.9516 0.19516 0.88837 0.0
H2973 H 0.94932 0.178 0.90576 0.0
H2974 H 0.90199 0.15808 0.91775 0.0
H2975 H 0.89068 0.17352 0.94492 0.0
H2976 H 0.31667 0.0727 0.33951 0.0
H2977 H 0.34073 0.08713 0.32179 0.0
H2978 H 0.3566 0.03649 0.2988 0.0
H2979 H 0.33259 0.02198 0.31631 0.0
H2980 H 0.3785 0.07809 0.32461 0.0
H2981 H 0.3532 0.07031 0.25367 0.0
H2982 H 0.33864 0.06832 0.27357 0.0
H2983 H 0.35351 0.05005 0.26718 0.0
C2984 C 0.32506 0.06468 0.33043 0.0
C2985 C 0.32267 0.04619 0.32926 0.0
C2986 C 0.33884 0.07295 0.32038 0.0
C2987 C 0.35028 0.06291 0.30884 0.0
C2988 C 0.3477 0.04453 0.30738 0.0
H2989 H 0.44707 0.07373 0.24459 0.0
H2990 H 0.41964 0.06461 0.26078 0.0
C2991 C 0.33402 0.03624 0.31749 0.0
C2992 C 0.36573 0.07131 0.29923 0.0
H2993 H 0.38437 0.07797 0.25683 0.0
C2994 C 0.37972 0.07831 0.30978 0.0
C2995 C 0.36724 0.07149 0.2799 0.0
C2996 C 0.35228 0.06479 0.26788 0.0
C2997 C 0.39559 0.08481 0.30154 0.0
C2998 C 0.39729 0.08462 0.28221 0.0
C2999 C 0.38306 0.07805 0.27165 0.0
C3000 C 0.41405 0.0904 0.27268 0.0
C3001 C 0.41069 0.09112 0.31364 0.0
C3002 C 0.41999 0.10797 0.27395 0.0
C3003 C 0.43578 0.11323 0.26477 0.0
C3004 C 0.44579 0.10105 0.25401 0.0
C3005 C 0.43971 0.08348 0.25273 0.0
C3006 C 0.424 0.07823 0.26196 0.0
H3007 H 0.40904 0.0865 0.32809 0.0
H3008 H 0.4242 0.08633 0.30857 0.0
H3009 H 0.41055 0.10591 0.31345 0.0
H3010 H 0.41231 0.11766 0.28186 0.0
H3011 H 0.43999 0.12689 0.26592 0.0
H3012 H 0.20782 0.06511 0.60415 0.0
H3013 H 0.19624 0.08889 0.58369 0.0
H3014 H 0.18153 0.04995 0.54392 0.0
H3015 H 0.19325 0.02588 0.56444 0.0
H3016 H 0.20261 0.08419 0.53172 0.0
H3017 H 0.13888 0.09507 0.5718 0.0
H3018 H 0.15961 0.09267 0.58483 0.0
H3019 H 0.15159 0.07411 0.57224 0.0
C3020 C 0.20233 0.06159 0.59096 0.0
C3021 C 0.20143 0.04369 0.58582 0.0
C3022 C 0.19564 0.07517 0.57937 0.0
C3023 C 0.18794 0.07108 0.56244 0.0
C3024 C 0.18738 0.05327 0.55701 0.0
H3025 H 0.14967 0.15043 0.4801 0.0
H3026 H 0.15852 0.12191 0.49489 0.0
C3027 C 0.19402 0.0396 0.5687 0.0
C3028 C 0.18024 0.08561 0.55076 0.0
H3029 H 0.14617 0.11735 0.54967 0.0
C3030 C 0.19013 0.09132 0.53539 0.0
C3031 C 0.16401 0.09481 0.55576 0.0
C3032 C 0.15277 0.08884 0.57198 0.0
C3033 C 0.18462 0.10665 0.52531 0.0
C3034 C 0.16863 0.11618 0.53065 0.0
C3035 C 0.15843 0.11003 0.54565 0.0
C3036 C 0.16284 0.13319 0.5216 0.0
C3037 C 0.19641 0.11298 0.50963 0.0
C3038 C 0.16182 0.14884 0.53186 0.0
C3039 C 0.15659 0.16505 0.52351 0.0
C3040 C 0.15228 0.16585 0.50478 0.0
C3041 C 0.15302 0.15015 0.49457 0.0
C3042 C 0.15818 0.1339 0.50295 0.0
H3043 H 0.21016 0.10646 0.50992 0.0
H3044 H 0.18986 0.10974 0.49645 0.0
H3045 H 0.19797 0.12765 0.50998 0.0
H3046 H 0.1653 0.14854 0.5463 0.0
H3047 H 0.15611 0.17698 0.53168 0.0
H3048 H 0.18527 0.92685 0.85809 0.0
H3049 H 0.15325 0.92289 0.85117 0.0
H3050 H 0.14722 0.97887 0.83711 0.0
H3051 H 0.17978 0.98274 0.84332 0.0
H3052 H 0.12284 0.9372 0.8662 0.0
H3053 H 0.1266 0.9564 0.79213 0.0
H3054 H 0.14674 0.9527 0.80591 0.0
H3055 H 0.13337 0.97296 0.80804 0.0
C3056 C 0.1772 0.93832 0.85334 0.0
C3057 C 0.18503 0.95509 0.85111 0.0
C3058 C 0.15884 0.93606 0.84953 0.0
C3059 C 0.14782 0.95052 0.84346 0.0
C3060 C 0.15552 0.96743 0.84144 0.0
H3061 H 0.03848 0.9322 0.79956 0.0
H3062 H 0.06204 0.94855 0.81556 0.0
C3063 C 0.17407 0.96966 0.84508 0.0
C3064 C 0.12845 0.94737 0.83898 0.0
H3065 H 0.09904 0.94521 0.80292 0.0
C3066 C 0.11753 0.93923 0.85242 0.0
C3067 C 0.12146 0.95012 0.82104 0.0
C3068 C 0.13264 0.9584 0.80587 0.0
C3069 C 0.10028 0.93283 0.84815 0.0
C3070 C 0.0938 0.93462 0.82998 0.0
C3071 C 0.1041 0.94388 0.81686 0.0
C3072 C 0.07775 0.92491 0.82359 0.0
C3073 C 0.0894 0.92363 0.86293 0.0
C3074 C 0.07857 0.9062 0.82323 0.0
C3075 C 0.06527 0.89688 0.814 0.0
C3076 C 0.05087 0.90611 0.80507 0.0
C3077 C 0.04935 0.92475 0.80651 0.0
C3078 C 0.06282 0.93411 0.81555 0.0
H3079 H 0.09343 0.92794 0.87681 0.0
H3080 H 0.07457 0.92633 0.86106 0.0
H3081 H 0.09195 0.90902 0.86219 0.0
H3082 H 0.09012 0.89886 0.82907 0.0
H3083 H 0.06682 0.88254 0.81298 0.0
H3084 H 0.3492 0.79466 0.04092 0.0
H3085 H 0.33623 0.81819 0.06025 0.0
H3086 H 0.385 0.84837 0.05323 0.0
H3087 H 0.39805 0.82498 0.03387 0.0
H3088 H 0.35847 0.84602 0.09277 0.0
H3089 H 0.33151 0.86899 0.02455 0.0
H3090 H 0.33282 0.84551 0.0303 0.0
H3091 H 0.35332 0.85748 0.02649 0.0
C3092 C 0.35741 0.806 0.04408 0.0
C3093 C 0.37448 0.80821 0.03575 0.0
C3094 C 0.35002 0.81936 0.05513 0.0
C3095 C 0.3597 0.83492 0.05801 0.0
C3096 C 0.37745 0.83635 0.05118 0.0
H3097 H 0.32831 0.93737 0.10415 0.0
H3098 H 0.34547 0.91096 0.09407 0.0
C3099 C 0.38482 0.82304 0.04009 0.0
C3100 C 0.35012 0.8509 0.06484 0.0
H3101 H 0.32386 0.88633 0.04993 0.0
C3102 C 0.35088 0.85488 0.0835 0.0
C3103 C 0.34033 0.86231 0.05256 0.0
C3104 C 0.33936 0.8585 0.03232 0.0
C3105 C 0.34177 0.87008 0.0903 0.0
C3106 C 0.332 0.88153 0.07797 0.0
C3107 C 0.33137 0.8775 0.0593 0.0
C3108 C 0.32181 0.89755 0.08409 0.0
C3109 C 0.34236 0.87357 0.11061 0.0
C3110 C 0.30296 0.89897 0.08117 0.0
C3111 C 0.29315 0.9141 0.08663 0.0
C3112 C 0.30206 0.92813 0.09507 0.0
C3113 C 0.32105 0.92683 0.09762 0.0
C3114 C 0.33085 0.91167 0.0921 0.0
H3115 H 0.34659 0.86144 0.11864 0.0
H3116 H 0.35236 0.88406 0.11323 0.0
H3117 H 0.32885 0.87837 0.11567 0.0
H3118 H 0.2958 0.88824 0.07483 0.0
H3119 H 0.27856 0.91465 0.08449 0.0
H3120 H 0.44036 0.90362 0.20325 0.0
H3121 H 0.41276 0.91485 0.18771 0.0
H3122 H 0.37981 0.89105 0.2302 0.0
H3123 H 0.40743 0.88027 0.24609 0.0
H3124 H 0.38437 0.89812 0.17348 0.0
H3125 H 0.36045 0.9419 0.22948 0.0
H3126 H 0.38295 0.93165 0.22924 0.0
H3127 H 0.36369 0.91911 0.23688 0.0
C3128 C 0.42721 0.90076 0.20924 0.0
C3129 C 0.42596 0.89116 0.22588 0.0
C3130 C 0.41148 0.90719 0.20037 0.0
C3131 C 0.39425 0.90409 0.20798 0.0
C3132 C 0.39298 0.894 0.22433 0.0
H3133 H 0.29145 0.91293 0.15096 0.0
H3134 H 0.31973 0.90309 0.16604 0.0
C3135 C 0.40873 0.88771 0.2333 0.0
C3136 C 0.37765 0.91131 0.1987 0.0
H3137 H 0.33935 0.93716 0.20535 0.0
C3138 C 0.37457 0.90673 0.18041 0.0
C3139 C 0.36508 0.92286 0.20764 0.0
C3140 C 0.36828 0.92933 0.22682 0.0
C3141 C 0.35901 0.91301 0.17094 0.0
C3142 C 0.34596 0.92376 0.18022 0.0
C3143 C 0.34927 0.92873 0.19835 0.0
C3144 C 0.32865 0.92977 0.17147 0.0
C3145 C 0.35686 0.90827 0.15104 0.0
C3146 C 0.3239 0.94801 0.17023 0.0
C3147 C 0.30753 0.95363 0.16199 0.0
C3148 C 0.29577 0.9411 0.15475 0.0
C3149 C 0.30035 0.92287 0.15634 0.0
C3150 C 0.31659 0.91724 0.16476 0.0
H3151 H 0.37022 0.90498 0.14458 0.0
H3152 H 0.3483 0.89634 0.1501 0.0
H3153 H 0.35017 0.91934 0.14305 0.0
H3154 H 0.33296 0.95789 0.17547 0.0
H3155 H 0.30419 0.96777 0.16108 0.0
H3156 H 0.34228 0.18471 0.44926 0.0
H3157 H 0.331 0.15822 0.43425 0.0
H3158 H 0.38621 0.13828 0.42765 0.0
H3159 H 0.3975 0.16445 0.44317 0.0
H3160 H 0.33594 0.1414 0.40139 0.0
H3161 H 0.3637 0.09921 0.45856 0.0
H3162 H 0.36277 0.12322 0.45936 0.0
H3163 H 0.38073 0.11193 0.44695 0.0
C3164 C 0.35202 0.17485 0.44426 0.0
C3165 C 0.37075 0.17651 0.44754 0.0
C3166 C 0.34556 0.15969 0.43573 0.0
C3167 C 0.35773 0.14603 0.43031 0.0
C3168 C 0.37654 0.14841 0.43221 0.0
H3169 H 0.34591 0.04156 0.38414 0.0
H3170 H 0.35653 0.07038 0.39448 0.0
C3171 C 0.38299 0.16345 0.44091 0.0
C3172 C 0.35073 0.12885 0.42381 0.0
H3173 H 0.35147 0.08405 0.43331 0.0
C3174 C 0.3393 0.12887 0.40838 0.0
C3175 C 0.35491 0.11251 0.43312 0.0
C3176 C 0.36604 0.11167 0.45052 0.0
C3177 C 0.33232 0.11293 0.40178 0.0
C3178 C 0.33685 0.09664 0.41088 0.0
C3179 C 0.34814 0.0966 0.42634 0.0
C3180 C 0.33018 0.07938 0.40448 0.0
C3181 C 0.32032 0.11352 0.38501 0.0
C3182 C 0.31191 0.07485 0.40699 0.0
C3183 C 0.30587 0.05827 0.40136 0.0
C3184 C 0.31798 0.0461 0.39296 0.0
C3185 C 0.33629 0.05066 0.3906 0.0
C3186 C 0.34235 0.06713 0.39641 0.0
H3187 H 0.32043 0.12672 0.37786 0.0
H3188 H 0.32474 0.10306 0.37525 0.0
H3189 H 0.30612 0.11079 0.3892 0.0
H3190 H 0.30237 0.08408 0.41341 0.0
H3191 H 0.29172 0.05501 0.40349 0.0
H3192 H 0.1877 0.02845 0.67227 0.0
H3193 H 0.16731 0.04644 0.69116 0.0
H3194 H 0.19956 0.09268 0.68005 0.0
H3195 H 0.21975 0.07485 0.6604 0.0
H3196 H 0.16976 0.06642 0.72095 0.0
H3197 H 0.15076 0.10933 0.66058 0.0
H3198 H 0.16472 0.08936 0.6585 0.0
H3199 H 0.17438 0.10945 0.66685 0.0
C3200 C 0.19066 0.04239 0.67399 0.0
C3201 C 0.20517 0.05029 0.66455 0.0
C3202 C 0.17897 0.05267 0.68485 0.0
C3203 C 0.18164 0.07101 0.68665 0.0
C3204 C 0.19694 0.07866 0.67841 0.0
H3205 H 0.09912 0.1247 0.75663 0.0
H3206 H 0.12924 0.11558 0.74492 0.0
C3207 C 0.20853 0.06843 0.66729 0.0
C3208 C 0.16751 0.08204 0.69598 0.0
H3209 H 0.13485 0.11442 0.68788 0.0
C3210 C 0.16224 0.07707 0.71384 0.0
C3211 C 0.15765 0.09585 0.68657 0.0
C3212 C 0.16201 0.10126 0.66702 0.0
C3213 C 0.14682 0.08486 0.72219 0.0
C3214 C 0.13676 0.09842 0.71262 0.0
C3215 C 0.14262 0.10405 0.69518 0.0
C3216 C 0.11898 0.10544 0.71941 0.0
C3217 C 0.14082 0.07768 0.74066 0.0
C3218 C 0.10335 0.10352 0.70863 0.0
C3219 C 0.08628 0.10906 0.7151 0.0
C3220 C 0.08451 0.11649 0.73254 0.0
C3221 C 0.10016 0.11888 0.74317 0.0
C3222 C 0.11732 0.11355 0.73656 0.0
H3223 H 0.14769 0.06471 0.7442 0.0
H3224 H 0.1443 0.0873 0.75141 0.0
H3225 H 0.12586 0.07586 0.74099 0.0
H3226 H 0.10429 0.09732 0.69534 0.0
H3227 H 0.07441 0.10707 0.70665 0.0
H3228 H 0.17032 0.82428 0.98249 0.0
H3229 H 0.17411 0.85366 0.96808 0.0
H3230 H 0.1179 0.85464 0.95099 0.0
H3231 H 0.11395 0.82515 0.96547 0.0
H3232 H 0.14898 0.86482 0.92329 0.0
H3233 H 0.14662 0.90081 0.98928 0.0
H3234 H 0.15986 0.88028 0.98912 0.0
H3235 H 0.13563 0.8798 0.98609 0.0
C3236 C 0.15882 0.83068 0.97553 0.0
C3237 C 0.14185 0.82254 0.97508 0.0
C3238 C 0.16098 0.84744 0.9674 0.0
C3239 C 0.14621 0.85628 0.95874 0.0
C3240 C 0.12938 0.84797 0.95773 0.0
H3241 H 0.16408 0.95634 0.897 0.0
H3242 H 0.14626 0.93312 0.91222 0.0
C3243 C 0.12719 0.83117 0.96593 0.0
C3244 C 0.14859 0.87428 0.95095 0.0
H3245 H 0.15878 0.91642 0.96346 0.0
C3246 C 0.15069 0.87627 0.93193 0.0
C3247 C 0.15074 0.88904 0.9624 0.0
C3248 C 0.14798 0.88752 0.98287 0.0
C3249 C 0.15622 0.89248 0.92414 0.0
C3250 C 0.1594 0.90699 0.93575 0.0
C3251 C 0.15623 0.90526 0.95465 0.0
C3252 C 0.1687 0.92294 0.92887 0.0
C3253 C 0.15988 0.89361 0.90377 0.0
C3254 C 0.18689 0.9253 0.93387 0.0
C3255 C 0.19704 0.93846 0.92527 0.0
C3256 C 0.18908 0.94955 0.91164 0.0
C3257 C 0.17048 0.94803 0.90758 0.0
C3258 C 0.16034 0.93472 0.91612 0.0
H3259 H 0.15868 0.88051 0.89708 0.0
H3260 H 0.14997 0.90316 0.89724 0.0
H3261 H 0.17376 0.89863 0.90114 0.0
H3262 H 0.19352 0.91631 0.94373 0.0
H3263 H 0.21132 0.93944 0.92871 0.0
H3264 H 0.2426 0.39493 0.11883 0.0
H3265 H 0.25915 0.36992 0.10498 0.0
H3266 H 0.29875 0.40607 0.08281 0.0
H3267 H 0.28266 0.43106 0.09751 0.0
H3268 H 0.26645 0.36258 0.07049 0.0
H3269 H 0.33145 0.37009 0.10809 0.0
H3270 H 0.31095 0.38245 0.11394 0.0
H3271 H 0.32462 0.3894 0.09471 0.0
C3272 C 0.25493 0.39749 0.11112 0.0
C3273 C 0.26155 0.41479 0.10938 0.0
C3274 C 0.26431 0.38324 0.10315 0.0
C3275 C 0.28033 0.3861 0.0931 0.0
C3276 C 0.2867 0.4035 0.09093 0.0
H3277 H 0.32577 0.29598 0.0305 0.0
H3278 H 0.31176 0.32501 0.03775 0.0
C3279 C 0.27748 0.41775 0.09923 0.0
C3280 C 0.29024 0.37071 0.08506 0.0
H3281 H 0.33082 0.34759 0.086 0.0
C3282 C 0.28055 0.35929 0.07382 0.0
C3283 C 0.3086 0.36647 0.08954 0.0
C3284 C 0.31948 0.37764 0.10236 0.0
C3285 C 0.28849 0.34338 0.06747 0.0
C3286 C 0.30685 0.33916 0.07192 0.0
C3287 C 0.31675 0.35092 0.08258 0.0
C3288 C 0.31567 0.32194 0.0671 0.0
C3289 C 0.27683 0.33088 0.05686 0.0
C3290 C 0.323 0.31088 0.0811 0.0
C3291 C 0.3315 0.29466 0.07693 0.0
C3292 C 0.33261 0.28912 0.0587 0.0
C3293 C 0.32514 0.30005 0.04466 0.0
C3294 C 0.31697 0.31651 0.04881 0.0
H3295 H 0.26207 0.33394 0.05874 0.0
H3296 H 0.27997 0.33228 0.04202 0.0
H3297 H 0.27959 0.31679 0.06113 0.0
H3298 H 0.32212 0.31481 0.09532 0.0
H3299 H 0.33716 0.28645 0.088 0.0
H3300 H 0.79835 0.04958 0.92097 0.0
H3301 H 0.81563 0.07337 0.9349 0.0
H3302 H 0.81727 0.1013 0.88274 0.0
H3303 H 0.80004 0.07763 0.86876 0.0
H3304 H 0.85052 0.10335 0.9069 0.0
H3305 H 0.78407 0.12097 0.94003 0.0
H3306 H 0.79293 0.09855 0.94321 0.0
H3307 H 0.78563 0.10612 0.92087 0.0
C3308 C 0.80296 0.06048 0.91234 0.0
C3309 C 0.79771 0.0619 0.89384 0.0
C3310 C 0.81275 0.07408 0.92033 0.0
C3311 C 0.81745 0.08917 0.90988 0.0
C3312 C 0.81372 0.08975 0.89102 0.0
H3313 H 0.8493 0.19683 0.91496 0.0
H3314 H 0.84436 0.16567 0.90791 0.0
C3315 C 0.80388 0.07623 0.88306 0.0
C3316 C 0.82373 0.10544 0.91883 0.0
H3317 H 0.80771 0.1409 0.94328 0.0
C3318 C 0.8413 0.11147 0.91509 0.0
C3319 C 0.81164 0.11595 0.92953 0.0
C3320 C 0.79246 0.11022 0.93363 0.0
C3321 C 0.84696 0.128 0.92145 0.0
C3322 C 0.83451 0.13895 0.93132 0.0
C3323 C 0.81723 0.13253 0.9357 0.0
C3324 C 0.83845 0.15764 0.93594 0.0
C3325 C 0.86619 0.13359 0.91746 0.0
C3326 C 0.8361 0.16371 0.95394 0.0
C3327 C 0.83847 0.18168 0.95791 0.0
C3328 C 0.84328 0.19382 0.94396 0.0
C3329 C 0.84559 0.18774 0.92598 0.0
C3330 C 0.84306 0.16987 0.92199 0.0
H3331 H 0.87553 0.1218 0.91602 0.0
H3332 H 0.86644 0.14124 0.90429 0.0
H3333 H 0.87145 0.14213 0.92844 0.0
H3334 H 0.83235 0.15456 0.96489 0.0
H3335 H 0.8366 0.18605 0.97188 0.0
H3336 H 0.02895 0.58269 0.18914 0.0
H3337 H 0.05713 0.56765 0.17862 0.0
H3338 H 0.08661 0.59011 0.22336 0.0
H3339 H 0.05869 0.60529 0.23381 0.0
H3340 H 0.09251 0.59143 0.17231 0.0
H3341 H 0.09902 0.53275 0.22006 0.0
H3342 H 0.07707 0.54235 0.21361 0.0
H3343 H 0.09144 0.55396 0.22895 0.0
C3344 C 0.04137 0.58411 0.19691 0.0
C3345 C 0.04173 0.59517 0.21222 0.0
C3346 C 0.05741 0.5756 0.19087 0.0
C3347 C 0.07383 0.57785 0.20025 0.0
C3348 C 0.07401 0.5882 0.21603 0.0
H3349 H 0.18261 0.53261 0.1831 0.0
H3350 H 0.15672 0.54995 0.19537 0.0
C3351 C 0.05807 0.59683 0.22196 0.0
C3352 C 0.09109 0.57055 0.19285 0.0
H3353 H 0.12292 0.53716 0.199 0.0
C3354 C 0.0992 0.57954 0.17806 0.0
C3355 C 0.0998 0.5553 0.20071 0.0
C3356 C 0.09146 0.54539 0.21669 0.0
C3357 C 0.11593 0.57357 0.1708 0.0
C3358 C 0.12446 0.55796 0.17829 0.0
C3359 C 0.11639 0.54914 0.19329 0.0
C3360 C 0.14117 0.54989 0.17018 0.0
C3361 C 0.12442 0.5842 0.15539 0.0
C3362 C 0.14117 0.54449 0.15186 0.0
C3363 C 0.15598 0.5348 0.1448 0.0
C3364 C 0.17091 0.53011 0.15604 0.0
C3365 C 0.17129 0.53614 0.17414 0.0
C3366 C 0.15649 0.54595 0.18118 0.0
H3367 H 0.11967 0.59839 0.15551 0.0
H3368 H 0.13952 0.58368 0.15624 0.0
H3369 H 0.12034 0.5786 0.14208 0.0
H3370 H 0.12935 0.54701 0.14325 0.0
H3371 H 0.15529 0.53017 0.13084 0.0
H3372 H 0.66874 0.82177 0.47852 0.0
H3373 H 0.68641 0.84245 0.46015 0.0
H3374 H 0.6794 0.80997 0.41258 0.0
H3375 H 0.66105 0.78936 0.4308 0.0
H3376 H 0.71722 0.83994 0.44037 0.0
H3377 H 0.65847 0.85748 0.39483 0.0
H3378 H 0.65607 0.84407 0.41541 0.0
H3379 H 0.66561 0.83442 0.39504 0.0
C3380 C 0.67106 0.81885 0.4642 0.0
C3381 C 0.66328 0.804 0.45609 0.0
C3382 C 0.68122 0.83071 0.4537 0.0
C3383 C 0.6839 0.82795 0.43491 0.0
C3384 C 0.67711 0.81257 0.42696 0.0
H3385 H 0.75431 0.90605 0.38002 0.0
H3386 H 0.74209 0.87734 0.38983 0.0
C3387 C 0.66676 0.80074 0.43745 0.0
C3388 C 0.69304 0.8418 0.42375 0.0
H3389 H 0.68536 0.8732 0.39 0.0
C3390 C 0.71036 0.84711 0.42921 0.0
C3391 C 0.68394 0.85121 0.40932 0.0
C3392 C 0.66495 0.84666 0.40335 0.0
C3393 C 0.71854 0.86205 0.42121 0.0
C3394 C 0.70936 0.87159 0.4069 0.0
C3395 C 0.69237 0.86581 0.40091 0.0
C3396 C 0.7163 0.88853 0.39919 0.0
C3397 C 0.73644 0.868 0.42888 0.0
C3398 C 0.70553 0.90423 0.40036 0.0
C3399 C 0.71232 0.92055 0.39442 0.0
C3400 C 0.73004 0.92145 0.38731 0.0
C3401 C 0.74061 0.9057 0.38555 0.0
C3402 C 0.73371 0.88932 0.39128 0.0
H3403 H 0.73929 0.86194 0.44263 0.0
H3404 H 0.74765 0.8638 0.41957 0.0
H3405 H 0.73658 0.88273 0.43005 0.0
H3406 H 0.69203 0.90393 0.40638 0.0
H3407 H 0.70393 0.93252 0.39592 0.0
H3408 H 0.94627 0.9092 0.2242 0.0
H3409 H 0.91683 0.92099 0.21267 0.0
H3410 H 0.93385 0.90989 0.15727 0.0
H3411 H 0.96289 0.89777 0.16867 0.0
H3412 H 0.9105 0.94917 0.18844 0.0
H3413 H 0.88445 0.88692 0.15956 0.0
H3414 H 0.9035 0.88702 0.17517 0.0
H3415 H 0.9067 0.89224 0.15123 0.0
C3416 C 0.94362 0.90922 0.2096 0.0
C3417 C 0.95675 0.90252 0.19732 0.0
C3418 C 0.92685 0.91592 0.20303 0.0
C3419 C 0.92304 0.91594 0.18414 0.0
C3420 C 0.93632 0.90954 0.17191 0.0
H3421 H 0.83849 0.96439 0.11478 0.0
H3422 H 0.8657 0.94796 0.12636 0.0
C3423 C 0.95297 0.90281 0.17845 0.0
C3424 C 0.9056 0.92349 0.177 0.0
H3425 H 0.86879 0.91407 0.15059 0.0
C3426 C 0.9013 0.94146 0.18032 0.0
C3427 C 0.89369 0.91338 0.1663 0.0
C3428 C 0.89721 0.89378 0.16299 0.0
C3429 C 0.88558 0.94973 0.17291 0.0
C3430 C 0.87379 0.9397 0.16208 0.0
C3431 C 0.87799 0.9217 0.1588 0.0
C3432 C 0.85671 0.94769 0.15465 0.0
C3433 C 0.88179 0.96924 0.17648 0.0
C3434 C 0.84256 0.95238 0.16667 0.0
C3435 C 0.82716 0.96165 0.16014 0.0
C3436 C 0.82561 0.96634 0.14146 0.0
C3437 C 0.83938 0.96089 0.12924 0.0
C3438 C 0.85487 0.95156 0.13582 0.0
H3439 H 0.89396 0.9759 0.18187 0.0
H3440 H 0.87722 0.97633 0.16374 0.0
H3441 H 0.8707 0.97053 0.18677 0.0
H3442 H 0.8437 0.94932 0.18121 0.0
H3443 H 0.8167 0.96562 0.16986 0.0
H3444 H 0.20691 0.56789 0.5997 0.0
H3445 H 0.19276 0.59684 0.59108 0.0
H3446 H 0.20745 0.61775 0.64355 0.0
H3447 H 0.22157 0.58896 0.65227 0.0
H3448 H 0.1653 0.62122 0.61039 0.0
H3449 H 0.23527 0.6473 0.60222 0.0
H3450 H 0.2308 0.62374 0.60261 0.0
H3451 H 0.23017 0.63598 0.62352 0.0
C3452 C 0.20667 0.57853 0.60956 0.0
C3453 C 0.21544 0.5763 0.62656 0.0
C3454 C 0.19865 0.59503 0.60462 0.0
C3455 C 0.19937 0.60941 0.61661 0.0
C3456 C 0.20697 0.60681 0.63408 0.0
H3457 H 0.14895 0.71444 0.59565 0.0
H3458 H 0.16232 0.68847 0.61182 0.0
C3459 C 0.21495 0.59036 0.63904 0.0
C3460 C 0.19371 0.62748 0.61025 0.0
H3461 H 0.21075 0.66744 0.59637 0.0
C3462 C 0.17517 0.6314 0.60744 0.0
C3463 C 0.20674 0.64058 0.60631 0.0
C3464 C 0.22689 0.63677 0.60867 0.0
C3465 C 0.16926 0.64818 0.60065 0.0
C3466 C 0.1823 0.6613 0.59672 0.0
C3467 C 0.20084 0.65738 0.59962 0.0
C3468 C 0.17698 0.67863 0.58816 0.0
C3469 C 0.14919 0.65159 0.59719 0.0
C3470 C 0.1818 0.68221 0.56987 0.0
C3471 C 0.17429 0.69707 0.5606 0.0
C3472 C 0.16187 0.70857 0.56954 0.0
C3473 C 0.15843 0.70583 0.58836 0.0
C3474 C 0.16591 0.69091 0.59759 0.0
H3475 H 0.14135 0.63912 0.59795 0.0
H3476 H 0.14363 0.66081 0.60765 0.0
H3477 H 0.14699 0.65798 0.58349 0.0
H3478 H 0.19049 0.67293 0.56245 0.0
H3479 H 0.17732 0.6989 0.54615 0.0
H3480 H 0.03781 0.42701 0.34325 0.0
H3481 H 0.05815 0.44768 0.35759 0.0
H3482 H 0.05009 0.48492 0.31235 0.0
H3483 H 0.02986 0.46394 0.29767 0.0
H3484 H 0.08493 0.47519 0.31626 0.0
H3485 H 0.05868 0.49391 0.3843 0.0
H3486 H 0.05763 0.47027 0.38163 0.0
H3487 H 0.04422 0.48498 0.36687 0.0
C3488 C 0.03985 0.43987 0.33666 0.0
C3489 C 0.03249 0.44384 0.31928 0.0
C3490 C 0.05137 0.45177 0.34497 0.0
C3491 C 0.05557 0.46791 0.33612 0.0
C3492 C 0.04694 0.47256 0.31945 0.0
H3493 H 0.14727 0.52716 0.37966 0.0
H3494 H 0.11656 0.52032 0.36927 0.0
C3495 C 0.03539 0.46061 0.3111 0.0
C3496 C 0.07147 0.47785 0.34244 0.0
H3497 H 0.09194 0.49249 0.38116 0.0
C3498 C 0.08628 0.47939 0.33034 0.0
C3499 C 0.07325 0.48343 0.36076 0.0
C3500 C 0.05749 0.48323 0.37405 0.0
C3501 C 0.10317 0.48518 0.3364 0.0
C3502 C 0.10536 0.48923 0.35509 0.0
C3503 C 0.09027 0.48896 0.36691 0.0
C3504 C 0.12345 0.493 0.36263 0.0
C3505 C 0.11869 0.48644 0.32286 0.0
C3506 C 0.13728 0.47971 0.36273 0.0
C3507 C 0.15479 0.48353 0.36869 0.0
C3508 C 0.15864 0.50069 0.37467 0.0
C3509 C 0.14461 0.51379 0.37515 0.0
C3510 C 0.12711 0.50995 0.36922 0.0
H3511 H 0.11368 0.48749 0.30851 0.0
H3512 H 0.12714 0.49815 0.32566 0.0
H3513 H 0.12751 0.47425 0.32413 0.0
H3514 H 0.13459 0.46647 0.35789 0.0
H3515 H 0.16538 0.47323 0.3682 0.0
H3516 H 0.43396 0.56962 0.7768 0.0
H3517 H 0.40731 0.55888 0.79339 0.0
H3518 H 0.4174 0.5954 0.83698 0.0
H3519 H 0.44398 0.60639 0.82045 0.0
H3520 H 0.4041 0.54388 0.8291 0.0
H3521 H 0.36437 0.60764 0.82113 0.0
H3522 H 0.38457 0.60267 0.8078 0.0
H3523 H 0.38656 0.60942 0.83119 0.0
C3524 C 0.43064 0.57526 0.79 0.0
C3525 C 0.44109 0.58889 0.79727 0.0
C3526 C 0.41539 0.56913 0.79944 0.0
C3527 C 0.41021 0.5766 0.81622 0.0
C3528 C 0.42099 0.58971 0.82387 0.0
H3529 H 0.3311 0.53179 0.89125 0.0
H3530 H 0.35711 0.54737 0.87821 0.0
C3531 C 0.4363 0.59581 0.81449 0.0
C3532 C 0.39344 0.5707 0.82559 0.0
H3533 H 0.35088 0.58477 0.839 0.0
C3534 C 0.39249 0.55282 0.83132 0.0
C3535 C 0.37825 0.58238 0.82823 0.0
C3536 C 0.37833 0.60157 0.82165 0.0
C3537 C 0.37677 0.54629 0.83978 0.0
C3538 C 0.3617 0.55803 0.84274 0.0
C3539 C 0.36256 0.57589 0.83687 0.0
C3540 C 0.34483 0.55166 0.85151 0.0
C3541 C 0.37627 0.5268 0.8452 0.0
C3542 C 0.32897 0.54981 0.84108 0.0
C3543 C 0.31402 0.54098 0.84853 0.0
C3544 C 0.3148 0.53394 0.86651 0.0
C3545 C 0.33017 0.53703 0.87733 0.0
C3546 C 0.34506 0.54585 0.86989 0.0
H3547 H 0.38747 0.51889 0.83873 0.0
H3548 H 0.3777 0.52539 0.86031 0.0
H3549 H 0.36306 0.52107 0.8413 0.0
H3550 H 0.32855 0.55428 0.82687 0.0
H3551 H 0.30236 0.53872 0.83988 0.0
H3552 H 0.89359 0.74807 0.60441 0.0
H3553 H 0.9064 0.73089 0.63014 0.0
H3554 H 0.90919 0.6839 0.59689 0.0
H3555 H 0.89653 0.70128 0.57071 0.0
H3556 H 0.89208 0.70159 0.64746 0.0
H3557 H 0.96066 0.68628 0.61848 0.0
H3558 H 0.94537 0.703 0.60852 0.0
H3559 H 0.94199 0.67977 0.60441 0.0
C3560 C 0.897 0.73408 0.60251 0.0
C3561 C 0.8941 0.72595 0.58559 0.0
C3562 C 0.90429 0.72431 0.61724 0.0
C3563 C 0.90886 0.70621 0.61537 0.0
C3564 C 0.90601 0.69797 0.59848 0.0
H3565 H 0.92746 0.62641 0.69873 0.0
H3566 H 0.91367 0.64816 0.67736 0.0
C3567 C 0.89872 0.70783 0.58361 0.0
C3568 C 0.91618 0.69605 0.63138 0.0
H3569 H 0.95336 0.6722 0.64684 0.0
C3570 C 0.90551 0.69519 0.64737 0.0
C3571 C 0.93381 0.68808 0.6313 0.0
C3572 C 0.94623 0.68942 0.61483 0.0
C3573 C 0.91187 0.68621 0.6632 0.0
C3574 C 0.92923 0.67765 0.66288 0.0
C3575 C 0.94004 0.67881 0.64702 0.0
C3576 C 0.93604 0.66637 0.67834 0.0
C3577 C 0.90003 0.68608 0.68014 0.0
C3578 C 0.953 0.66961 0.68629 0.0
C3579 C 0.96097 0.65712 0.69847 0.0
C3580 C 0.95211 0.64117 0.70263 0.0
C3581 C 0.93457 0.63859 0.6957 0.0
C3582 C 0.92664 0.65105 0.68355 0.0
H3583 H 0.8902 0.6976 0.68009 0.0
H3584 H 0.89209 0.6737 0.68053 0.0
H3585 H 0.90838 0.68643 0.69281 0.0
H3586 H 0.96045 0.68138 0.68241 0.0
H3587 H 0.9745 0.65942 0.70366 0.0
H3588 H 0.09984 0.17718 0.45265 0.0
H3589 H 0.07922 0.16 0.43388 0.0
H3590 H 0.07376 0.20437 0.39566 0.0
H3591 H 0.0938 0.22176 0.4145 0.0
H3592 H 0.04139 0.18898 0.40241 0.0
H3593 H 0.09459 0.13748 0.38608 0.0
H3594 H 0.08967 0.14008 0.41003 0.0
H3595 H 0.09985 0.15796 0.39725 0.0
C3596 C 0.09416 0.1833 0.44029 0.0
C3597 C 0.09856 0.20079 0.43499 0.0
C3598 C 0.08246 0.17343 0.42956 0.0
C3599 C 0.07523 0.18081 0.41323 0.0
C3600 C 0.07921 0.19842 0.40821 0.0
H3601 H 0.04376 0.14073 0.31165 0.0
H3602 H 0.05829 0.15095 0.33949 0.0
C3603 C 0.09071 0.20833 0.41899 0.0
C3604 C 0.06399 0.17022 0.40085 0.0
H3605 H 0.06607 0.13484 0.37209 0.0
C3606 C 0.04666 0.17701 0.39591 0.0
C3607 C 0.07101 0.15468 0.39236 0.0
C3608 C 0.08984 0.14715 0.39654 0.0
C3609 C 0.03648 0.1692 0.38208 0.0
C3610 C 0.04366 0.15385 0.37334 0.0
C3611 C 0.0606 0.14656 0.3789 0.0
C3612 C 0.03491 0.14644 0.35698 0.0
C3613 C 0.01868 0.17807 0.37623 0.0
C3614 C 0.01705 0.14019 0.35765 0.0
C3615 C 0.00863 0.13455 0.34165 0.0
C3616 C 0.01809 0.13483 0.32489 0.0
C3617 C 0.03617 0.14041 0.32441 0.0
C3618 C 0.04449 0.1462 0.34031 0.0
H3619 H 0.01706 0.19176 0.38166 0.0
H3620 H 0.01764 0.17885 0.36104 0.0
H3621 H 0.00721 0.17011 0.38151 0.0
H3622 H 0.00956 0.13989 0.37045 0.0
H3623 H 0.9947 0.13017 0.34235 0.0
H3624 H 0.57428 0.36612 0.21689 0.0
H3625 H 0.58528 0.34982 0.19006 0.0
H3626 H 0.5316 0.329 0.18239 0.0
H3627 H 0.5209 0.3444 0.20975 0.0
H3628 H 0.55665 0.30374 0.1788 0.0
H3629 H 0.57653 0.36264 0.13711 0.0
H3630 H 0.58787 0.36129 0.15887 0.0
H3631 H 0.56352 0.36458 0.15802 0.0
C3632 C 0.56492 0.35795 0.2095 0.0
C3633 C 0.54673 0.3566 0.21517 0.0
C3634 C 0.57113 0.34885 0.19408 0.0
C3635 C 0.55913 0.33856 0.18399 0.0
C3636 C 0.54103 0.337 0.18989 0.0
H3637 H 0.57885 0.29815 0.07471 0.0
H3638 H 0.56826 0.31506 0.10131 0.0
C3639 C 0.53492 0.34586 0.20544 0.0
C3640 C 0.56549 0.32886 0.16762 0.0
H3641 H 0.58594 0.33415 0.1259 0.0
C3642 C 0.56298 0.31041 0.16719 0.0
C3643 C 0.57345 0.33766 0.15239 0.0
C3644 C 0.57533 0.35765 0.15149 0.0
C3645 C 0.56836 0.30042 0.15199 0.0
C3646 C 0.57712 0.30905 0.13713 0.0
C3647 C 0.57944 0.32755 0.13744 0.0
C3648 C 0.58383 0.29909 0.12106 0.0
C3649 C 0.5642 0.28081 0.15189 0.0
C3650 C 0.5963 0.28474 0.12335 0.0
C3651 C 0.60208 0.27493 0.10827 0.0
C3652 C 0.59581 0.27959 0.09063 0.0
C3653 C 0.58381 0.2943 0.08823 0.0
C3654 C 0.5778 0.30396 0.10337 0.0
H3655 H 0.55272 0.27766 0.16126 0.0
H3656 H 0.56068 0.27643 0.1379 0.0
H3657 H 0.57634 0.27296 0.15668 0.0
H3658 H 0.60153 0.2811 0.13682 0.0
H3659 H 0.61153 0.26375 0.11041 0.0
H3660 H 0.40277 0.8269 0.94671 0.0
H3661 H 0.4134 0.83909 0.91761 0.0
H3662 H 0.43508 0.78731 0.90292 0.0
H3663 H 0.42435 0.77483 0.93247 0.0
H3664 H 0.45947 0.81664 0.89732 0.0
H3665 H 0.3917 0.83113 0.86642 0.0
H3666 H 0.39382 0.8395 0.8892 0.0
H3667 H 0.395 0.81585 0.88564 0.0
C3668 C 0.4098 0.81803 0.93734 0.0
C3669 C 0.41279 0.7999 0.94189 0.0
C3670 C 0.41573 0.82502 0.92062 0.0
C3671 C 0.42477 0.81408 0.90798 0.0
C3672 C 0.428 0.79595 0.91247 0.0
H3673 H 0.45541 0.85008 0.79786 0.0
H3674 H 0.44101 0.83475 0.82375 0.0
C3675 C 0.42192 0.78885 0.9293 0.0
C3676 C 0.43135 0.82206 0.89049 0.0
H3677 H 0.41691 0.84637 0.85292 0.0
C3678 C 0.45018 0.82294 0.88748 0.0
C3679 C 0.41918 0.8302 0.87763 0.0
C3680 C 0.39879 0.829 0.87976 0.0
C3681 C 0.4572 0.83238 0.87233 0.0
C3682 C 0.44504 0.84132 0.86001 0.0
C3683 C 0.4262 0.83979 0.86258 0.0
C3684 C 0.45175 0.85208 0.84424 0.0
C3685 C 0.47758 0.83276 0.86962 0.0
C3686 C 0.4618 0.86745 0.84711 0.0
C3687 C 0.46993 0.87638 0.83232 0.0
C3688 C 0.4682 0.87001 0.81439 0.0
C3689 C 0.45707 0.85532 0.81148 0.0
C3690 C 0.44887 0.84649 0.82627 0.0
H3691 H 0.48477 0.82205 0.87772 0.0
H3692 H 0.48119 0.83126 0.85492 0.0
H3693 H 0.48262 0.84578 0.87415 0.0
H3694 H 0.46392 0.87215 0.86089 0.0
H3695 H 0.47846 0.88758 0.83509 0.0
H3696 H 0.84882 0.27813 0.90352 0.0
H3697 H 0.86122 0.29215 0.8758 0.0
H3698 H 0.90896 0.30666 0.90583 0.0
H3699 H 0.89662 0.29261 0.9337 0.0
H3700 H 0.89368 0.33344 0.878 0.0
H3701 H 0.90656 0.2649 0.85209 0.0
H3702 H 0.88383 0.27007 0.85999 0.0
H3703 H 0.90235 0.26928 0.87602 0.0
C3704 C 0.86173 0.28474 0.90436 0.0
C3705 C 0.87184 0.28419 0.92072 0.0
C3706 C 0.86882 0.29265 0.88849 0.0
C3707 C 0.88611 0.30014 0.88874 0.0
C3708 C 0.89561 0.30086 0.90539 0.0
H3709 H 0.96673 0.31899 0.80604 0.0
H3710 H 0.94798 0.30765 0.83118 0.0
C3711 C 0.88852 0.29291 0.9213 0.0
C3712 C 0.89499 0.30563 0.87136 0.0
H3713 H 0.91443 0.28881 0.8325 0.0
C3714 C 0.89812 0.32374 0.86798 0.0
C3715 C 0.90093 0.29286 0.85846 0.0
C3716 C 0.89841 0.27315 0.86177 0.0
C3717 C 0.90707 0.32945 0.85194 0.0
C3718 C 0.91289 0.31667 0.83896 0.0
C3719 C 0.90976 0.29856 0.84238 0.0
C3720 C 0.92338 0.32178 0.82238 0.0
C3721 C 0.91072 0.34903 0.84923 0.0
C3722 C 0.91552 0.33279 0.80864 0.0
C3723 C 0.92617 0.33921 0.79414 0.0
C3724 C 0.94489 0.33476 0.79324 0.0
C3725 C 0.95239 0.32275 0.80638 0.0
C3726 C 0.94171 0.31628 0.82078 0.0
H3727 H 0.90844 0.35662 0.86201 0.0
H3728 H 0.92493 0.35096 0.84451 0.0
H3729 H 0.90143 0.35471 0.83853 0.0
H3730 H 0.9013 0.33693 0.80947 0.0
H3731 H 0.91997 0.34848 0.7843 0.0
H3732 H 0.456 0.17002 0.68951 0.0
H3733 H 0.44049 0.18176 0.66177 0.0
H3734 H 0.44819 0.13073 0.63619 0.0
H3735 H 0.46366 0.11903 0.66362 0.0
H3736 H 0.46308 0.16113 0.61691 0.0
H3737 H 0.39022 0.17118 0.63653 0.0
H3738 H 0.40724 0.17921 0.65188 0.0
H3739 H 0.40533 0.15569 0.6487 0.0
C3740 C 0.45393 0.16123 0.67812 0.0
C3741 C 0.46106 0.14366 0.67863 0.0
C3742 C 0.44508 0.16792 0.66233 0.0
C3743 C 0.44321 0.15707 0.64698 0.0
C3744 C 0.4495 0.13929 0.6479 0.0
H3745 H 0.3914 0.16774 0.54149 0.0
H3746 H 0.401 0.15957 0.5728 0.0
C3747 C 0.45831 0.13263 0.66359 0.0
C3748 C 0.43658 0.16454 0.62924 0.0
H3749 H 0.3986 0.17986 0.60641 0.0
C3750 C 0.44901 0.16533 0.61462 0.0
C3751 C 0.41822 0.1699 0.62636 0.0
C3752 C 0.40436 0.16891 0.64161 0.0
C3753 C 0.44351 0.17112 0.59706 0.0
C3754 C 0.42513 0.17647 0.59413 0.0
C3755 C 0.4127 0.17583 0.60878 0.0
C3756 C 0.41854 0.18208 0.5757 0.0
C3757 C 0.4573 0.17096 0.58167 0.0
C3758 C 0.42511 0.19752 0.5671 0.0
C3759 C 0.41978 0.2021 0.54922 0.0
C3760 C 0.40771 0.19138 0.53973 0.0
C3761 C 0.40089 0.17611 0.54846 0.0
C3762 C 0.40622 0.17153 0.56636 0.0
H3763 H 0.46979 0.16303 0.58534 0.0
H3764 H 0.45138 0.16542 0.56905 0.0
H3765 H 0.46134 0.18484 0.5785 0.0
H3766 H 0.43449 0.20592 0.57418 0.0
H3767 H 0.4252 0.21397 0.54277 0.0
H3768 H 0.61475 0.75463 0.40618 0.0
H3769 H 0.60282 0.73902 0.37978 0.0
H3770 H 0.60331 0.68982 0.41139 0.0
H3771 H 0.61471 0.70552 0.43804 0.0
H3772 H 0.61421 0.7107 0.35945 0.0
H3773 H 0.55028 0.69545 0.39665 0.0
H3774 H 0.56677 0.71051 0.4054 0.0
H3775 H 0.57041 0.68679 0.40792 0.0
C3776 C 0.61255 0.74043 0.4074 0.0
C3777 C 0.61546 0.73126 0.42414 0.0
C3778 C 0.60573 0.73155 0.39234 0.0
C3779 C 0.60181 0.71337 0.39378 0.0
C3780 C 0.60582 0.70396 0.41016 0.0
H3781 H 0.57197 0.64672 0.30273 0.0
H3782 H 0.58815 0.66142 0.32722 0.0
C3783 C 0.61244 0.71288 0.4253 0.0
C3784 C 0.59268 0.70455 0.37846 0.0
H3785 H 0.55413 0.68274 0.36739 0.0
C3786 C 0.60107 0.70458 0.36115 0.0
C3787 C 0.57537 0.69691 0.38066 0.0
C3788 C 0.56507 0.69754 0.3986 0.0
C3789 C 0.59268 0.697 0.34598 0.0
C3790 C 0.57566 0.68882 0.34835 0.0
C3791 C 0.56724 0.68891 0.36564 0.0
C3792 C 0.56615 0.68026 0.33309 0.0
C3793 C 0.60191 0.69826 0.3275 0.0
C3794 C 0.54821 0.68562 0.3286 0.0
C3795 C 0.53881 0.67703 0.31484 0.0
C3796 C 0.54727 0.66303 0.30523 0.0
C3797 C 0.56525 0.65772 0.30967 0.0
C3798 C 0.57454 0.66615 0.32361 0.0
H3799 H 0.61175 0.70926 0.32693 0.0
H3800 H 0.60959 0.68561 0.32494 0.0
H3801 H 0.5918 0.70043 0.31633 0.0
H3802 H 0.54145 0.69642 0.33584 0.0
H3803 H 0.52496 0.68136 0.3117 0.0
H3804 H 0.10075 0.81747 0.04376 0.0
H3805 H 0.08871 0.83389 0.07 0.0
H3806 H 0.07393 0.78439 0.09637 0.0
H3807 H 0.08538 0.76792 0.07007 0.0
H3808 H 0.0488 0.81094 0.10217 0.0
H3809 H 0.11844 0.83435 0.11687 0.0
H3810 H 0.10973 0.84068 0.09465 0.0
H3811 H 0.11419 0.81753 0.10014 0.0
C3812 C 0.09449 0.8101 0.05492 0.0
C3813 C 0.0943 0.79135 0.05496 0.0
C3814 C 0.08785 0.8195 0.07 0.0
C3815 C 0.08104 0.81029 0.08537 0.0
C3816 C 0.07939 0.79173 0.08475 0.0
H3817 H 0.04766 0.83194 0.19647 0.0
H3818 H 0.06196 0.81872 0.16933 0.0
C3819 C 0.08591 0.78234 0.06966 0.0
C3820 C 0.07649 0.81969 0.10251 0.0
H3821 H 0.0948 0.84417 0.13668 0.0
C3822 C 0.05885 0.81821 0.1097 0.0
C3823 C 0.08971 0.82906 0.11237 0.0
C3824 C 0.10913 0.83041 0.10574 0.0
C3825 C 0.05402 0.82591 0.12644 0.0
C3826 C 0.06724 0.83519 0.13628 0.0
C3827 C 0.08481 0.83691 0.12906 0.0
C3828 C 0.06264 0.84358 0.15388 0.0
C3829 C 0.03478 0.82421 0.13347 0.0
C3830 C 0.05934 0.86203 0.15442 0.0
C3831 C 0.0512 0.8696 0.16985 0.0
C3832 C 0.04635 0.85878 0.18492 0.0
C3833 C 0.05131 0.84057 0.18504 0.0
C3834 C 0.05935 0.833 0.16954 0.0
H3835 H 0.02551 0.81904 0.1229 0.0
H3836 H 0.03476 0.81488 0.14546 0.0
H3837 H 0.02931 0.83732 0.13809 0.0
H3838 H 0.06186 0.87037 0.14244 0.0
H3839 H 0.04752 0.88368 0.16945 0.0
H3840 H 0.66781 0.96803 0.6802 0.0
H3841 H 0.64327 0.95175 0.69495 0.0
H3842 H 0.66627 0.90217 0.67538 0.0
H3843 H 0.69099 0.91832 0.6605 0.0
H3844 H 0.6186 0.92861 0.67511 0.0
H3845 H 0.65684 0.89406 0.73195 0.0
H3846 H 0.66526 0.91373 0.72046 0.0
H3847 H 0.66608 0.89274 0.70909 0.0
C3848 C 0.66785 0.95364 0.6792 0.0
C3849 C 0.68144 0.94448 0.66921 0.0
C3850 C 0.65376 0.94438 0.68759 0.0
C3851 C 0.65302 0.9258 0.68626 0.0
C3852 C 0.66674 0.91651 0.67669 0.0
H3853 H 0.55191 0.87307 0.72171 0.0
H3854 H 0.57935 0.87912 0.70347 0.0
C3855 C 0.68087 0.92577 0.66824 0.0
C3856 C 0.63742 0.9164 0.69442 0.0
H3857 H 0.62517 0.8902 0.73091 0.0
C3858 C 0.62001 0.91998 0.68715 0.0
C3859 C 0.63942 0.90519 0.7101 0.0
C3860 C 0.65786 0.90119 0.71851 0.0
C3861 C 0.60439 0.91319 0.69559 0.0
C3862 C 0.60633 0.90245 0.71163 0.0
C3863 C 0.62381 0.89832 0.71851 0.0
C3864 C 0.59034 0.89753 0.72282 0.0
C3865 C 0.58589 0.91832 0.6879 0.0
C3866 C 0.58768 0.90562 0.7398 0.0
C3867 C 0.57213 0.90228 0.75014 0.0
C3868 C 0.55889 0.89067 0.74377 0.0
C3869 C 0.56181 0.88214 0.72695 0.0
C3870 C 0.57743 0.88559 0.71651 0.0
H3871 H 0.58669 0.92843 0.67662 0.0
H3872 H 0.57941 0.90631 0.68248 0.0
H3873 H 0.57692 0.92373 0.69888 0.0
H3874 H 0.59749 0.91487 0.74489 0.0
H3875 H 0.57047 0.90896 0.76311 0.0
H3876 H 0.84514 0.81629 0.45627 0.0
H3877 H 0.83343 0.84183 0.43788 0.0
H3878 H 0.81904 0.86943 0.48745 0.0
H3879 H 0.83088 0.84414 0.50584 0.0
H3880 H 0.79816 0.86083 0.43729 0.0
H3881 H 0.85539 0.90207 0.46007 0.0
H3882 H 0.85553 0.87813 0.46297 0.0
H3883 H 0.84265 0.892 0.4784 0.0
C3884 C 0.83935 0.82778 0.46319 0.0
C3885 C 0.83911 0.82843 0.48242 0.0
C3886 C 0.83262 0.84227 0.45271 0.0
C3887 C 0.82562 0.85753 0.46137 0.0
C3888 C 0.82464 0.85784 0.48056 0.0
H3889 H 0.76913 0.95165 0.41734 0.0
H3890 H 0.77679 0.92266 0.43173 0.0
C3891 C 0.8314 0.84342 0.49102 0.0
C3892 C 0.82043 0.87362 0.45047 0.0
H3893 H 0.83176 0.91696 0.4434 0.0
C3894 C 0.80551 0.87311 0.4385 0.0
C3895 C 0.83025 0.88948 0.45195 0.0
C3896 C 0.84695 0.89049 0.46391 0.0
C3897 C 0.79991 0.88828 0.42821 0.0
C3898 C 0.80938 0.90432 0.43022 0.0
C3899 C 0.82447 0.90466 0.44195 0.0
C3900 C 0.80405 0.92103 0.42036 0.0
C3901 C 0.7841 0.88695 0.41515 0.0
C3902 C 0.81692 0.92982 0.40945 0.0
C3903 C 0.8127 0.94646 0.40155 0.0
C3904 C 0.79552 0.95456 0.40439 0.0
C3905 C 0.78248 0.94563 0.41498 0.0
C3906 C 0.78677 0.92902 0.42303 0.0
H3907 H 0.78175 0.87291 0.4114 0.0
H3908 H 0.77153 0.89222 0.42182 0.0
H3909 H 0.78639 0.89491 0.4024 0.0
H3910 H 0.83035 0.92389 0.40728 0.0
H3911 H 0.82291 0.95303 0.39329 0.0
H3912 H 0.79588 0.05902 0.17929 0.0
H3913 H 0.82634 0.068 0.18871 0.0
H3914 H 0.85069 0.02693 0.1553 0.0
H3915 H 0.82044 0.01795 0.14581 0.0
H3916 H 0.85966 0.04765 0.20353 0.0
H3917 H 0.86662 0.07704 0.13319 0.0
H3918 H 0.84482 0.07141 0.14289 0.0
H3919 H 0.86006 0.05413 0.13497 0.0
C3920 C 0.80771 0.05158 0.17442 0.0
C3921 C 0.80587 0.03796 0.16167 0.0
C3922 C 0.82506 0.05675 0.17975 0.0
C3923 C 0.84065 0.04831 0.17238 0.0
C3924 C 0.83878 0.03371 0.16091 0.0
H3925 H 0.9521 0.07568 0.20074 0.0
H3926 H 0.92673 0.05898 0.18842 0.0
C3927 C 0.8215 0.02856 0.15559 0.0
C3928 C 0.85874 0.05592 0.17516 0.0
H3929 H 0.89119 0.08043 0.15344 0.0
C3930 C 0.86669 0.05466 0.19258 0.0
C3931 C 0.86768 0.06514 0.16078 0.0
C3932 C 0.85939 0.06718 0.1419 0.0
C3933 C 0.88338 0.0626 0.19609 0.0
C3934 C 0.89225 0.07194 0.18175 0.0
C3935 C 0.88439 0.07304 0.16428 0.0
C3936 C 0.90875 0.08213 0.18531 0.0
C3937 C 0.89112 0.06153 0.21525 0.0
C3938 C 0.90727 0.10072 0.18656 0.0
C3939 C 0.92167 0.11026 0.19357 0.0
C3940 C 0.93776 0.10131 0.19928 0.0
C3941 C 0.93985 0.0829 0.19635 0.0
C3942 C 0.92536 0.07334 0.18947 0.0
H3943 H 0.88144 0.05568 0.22528 0.0
H3944 H 0.90377 0.0531 0.21526 0.0
H3945 H 0.89474 0.075 0.21988 0.0
H3946 H 0.89454 0.1077 0.18332 0.0
H3947 H 0.91974 0.12444 0.1957 0.0
H3948 H 0.66567 0.20275 0.97258 0.0
H3949 H 0.68028 0.179 0.95462 0.0
H3950 H 0.62878 0.15301 0.95037 0.0
H3951 H 0.61414 0.17661 0.9683 0.0
H3952 H 0.67893 0.14257 0.96843 0.0
H3953 H 0.65104 0.15018 0.89784 0.0
H3954 H 0.65134 0.16839 0.91372 0.0
H3955 H 0.63456 0.1515 0.91607 0.0
C3956 C 0.65741 0.19221 0.96738 0.0
C3957 C 0.63883 0.1914 0.97183 0.0
C3958 C 0.66575 0.17868 0.95718 0.0
C3959 C 0.65554 0.16438 0.95111 0.0
C3960 C 0.63679 0.1641 0.9547 0.0
H3961 H 0.67892 0.06123 0.90393 0.0
H3962 H 0.66449 0.08792 0.91698 0.0
C3963 C 0.62848 0.17752 0.965 0.0
C3964 C 0.66478 0.14863 0.94316 0.0
H3965 H 0.66697 0.12297 0.90506 0.0
C3966 C 0.67649 0.13835 0.95451 0.0
C3967 C 0.66126 0.1431 0.92514 0.0
C3968 C 0.64897 0.15391 0.91239 0.0
C3969 C 0.68458 0.12242 0.94842 0.0
C3970 C 0.68119 0.11691 0.93033 0.0
C3971 C 0.66951 0.12725 0.91894 0.0
C3972 C 0.6899 0.10061 0.92288 0.0
C3973 C 0.69625 0.11139 0.9616 0.0
C3974 C 0.70893 0.099 0.92185 0.0
C3975 C 0.71721 0.08375 0.91461 0.0
C3976 C 0.70659 0.06991 0.90803 0.0
C3977 C 0.6875 0.07158 0.90902 0.0
C3978 C 0.67922 0.08684 0.91638 0.0
H3979 H 0.69315 0.11465 0.9761 0.0
H3980 H 0.69429 0.09691 0.95972 0.0
H3981 H 0.7108 0.11422 0.95905 0.0
H3982 H 0.7174 0.10966 0.92642 0.0
H3983 H 0.73194 0.08301 0.91389 0.0
H3984 H 0.59626 0.1142 0.75501 0.0
H3985 H 0.62306 0.10201 0.77108 0.0
H3986 H 0.58921 0.0863 0.81676 0.0
H3987 H 0.56235 0.09917 0.80092 0.0
H3988 H 0.6195 0.10053 0.82861 0.0
H3989 H 0.63798 0.05066 0.77645 0.0
H3990 H 0.63706 0.07272 0.76662 0.0
H3991 H 0.61665 0.06312 0.7758 0.0
C3992 C 0.59455 0.1082 0.76851 0.0
C3993 C 0.57727 0.10758 0.77675 0.0
C3994 C 0.60984 0.10107 0.7776 0.0
C3995 C 0.6081 0.09284 0.79494 0.0
C3996 C 0.59085 0.09247 0.80333 0.0
H3997 H 0.69773 0.02854 0.84204 0.0
H3998 H 0.6686 0.0386 0.82873 0.0
C3999 C 0.57554 0.09982 0.79431 0.0
C4000 C 0.62437 0.08502 0.80442 0.0
H4001 H 0.66119 0.05702 0.79836 0.0
C4002 C 0.62852 0.09088 0.82207 0.0
C4003 C 0.63596 0.07214 0.79606 0.0
C4004 C 0.63157 0.06415 0.77778 0.0
C4005 C 0.64427 0.0847 0.83131 0.0
C4006 C 0.65648 0.07276 0.82241 0.0
C4007 C 0.652 0.06642 0.80505 0.0
C4008 C 0.67402 0.06673 0.83079 0.0
C4009 C 0.64752 0.09087 0.8506 0.0
C4010 C 0.68688 0.07918 0.83613 0.0
C4011 C 0.7034 0.07344 0.84402 0.0
C4012 C 0.70745 0.05517 0.84638 0.0
C4013 C 0.69485 0.04272 0.84052 0.0
C4014 C 0.67823 0.04845 0.83288 0.0
H4015 H 0.63456 0.09502 0.85738 0.0
H4016 H 0.65426 0.08022 0.85913 0.0
H4017 H 0.65644 0.10258 0.85012 0.0
H4018 H 0.68417 0.09333 0.83415 0.0
H4019 H 0.71294 0.08331 0.84832 0.0
H4020 H 0.70482 0.94611 0.58706 0.0
H4021 H 0.69326 0.91752 0.57684 0.0
H4022 H 0.65462 0.91768 0.6216 0.0
H4023 H 0.66503 0.94682 0.63072 0.0
H4024 H 0.69102 0.8855 0.59019 0.0
H4025 H 0.62039 0.91201 0.58095 0.0
H4026 H 0.63899 0.92621 0.58615 0.0
H4027 H 0.628 0.91364 0.60415 0.0
C4028 C 0.69371 0.94006 0.5945 0.0
C4029 C 0.68549 0.94875 0.60935 0.0
C4030 C 0.6872 0.9237 0.58879 0.0
C4031 C 0.67267 0.91567 0.59813 0.0
C4032 C 0.66529 0.92392 0.61369 0.0
H4033 H 0.64256 0.80803 0.56149 0.0
H4034 H 0.65345 0.83137 0.58175 0.0
C4035 C 0.67132 0.94052 0.61896 0.0
C4036 C 0.66482 0.89906 0.59115 0.0
H4037 H 0.62507 0.88118 0.57707 0.0
C4038 C 0.6766 0.88454 0.58728 0.0
C4039 C 0.64599 0.89783 0.58731 0.0
C4040 C 0.63266 0.91331 0.58968 0.0
C4041 C 0.67019 0.86912 0.57903 0.0
C4042 C 0.65134 0.86789 0.57531 0.0
C4043 C 0.6395 0.88208 0.58001 0.0
C4044 C 0.64381 0.85333 0.56431 0.0
C4045 C 0.68384 0.85479 0.57354 0.0
C4046 C 0.63395 0.85787 0.54836 0.0
C4047 C 0.62726 0.84469 0.53725 0.0
C4048 C 0.63052 0.82661 0.54163 0.0
C4049 C 0.63994 0.82191 0.55782 0.0
C4050 C 0.64635 0.83522 0.56924 0.0
H4051 H 0.69801 0.85965 0.57355 0.0
H4052 H 0.6832 0.84343 0.58345 0.0
H4053 H 0.6808 0.84982 0.55966 0.0
H4054 H 0.63178 0.87171 0.54422 0.0
H4055 H 0.6201 0.84873 0.52482 0.0
H4056 H 0.78451 0.93293 0.33957 0.0
H4057 H 0.80577 0.91509 0.32109 0.0
H4058 H 0.84199 0.95938 0.31753 0.0
H4059 H 0.82069 0.97743 0.33548 0.0
H4060 H 0.83911 0.94277 0.28503 0.0
H4061 H 0.85273 0.89316 0.34122 0.0
H4062 H 0.82929 0.8955 0.33441 0.0
H4063 H 0.84031 0.91384 0.3449 0.0
C4064 C 0.79694 0.93892 0.33474 0.0
C4065 C 0.80096 0.95658 0.33911 0.0
C4066 C 0.80912 0.92866 0.32427 0.0
C4067 C 0.82562 0.9358 0.31825 0.0
C4068 C 0.82936 0.95359 0.32209 0.0
H4069 H 0.92949 0.89081 0.29285 0.0
H4070 H 0.90126 0.90257 0.30631 0.0
C4071 C 0.81715 0.96389 0.33238 0.0
C4072 C 0.83935 0.92478 0.30835 0.0
H4073 H 0.86832 0.8887 0.31339 0.0
C4074 C 0.84541 0.93085 0.29113 0.0
C4075 C 0.84763 0.90932 0.31647 0.0
C4076 C 0.84231 0.90261 0.33533 0.0
C4077 C 0.85992 0.92224 0.28203 0.0
C4078 C 0.86825 0.90683 0.29017 0.0
C4079 C 0.86181 0.90043 0.30713 0.0
C4080 C 0.88481 0.89823 0.28226 0.0
C4081 C 0.86677 0.93029 0.26426 0.0
C4082 C 0.88485 0.89144 0.26443 0.0
C4083 C 0.90105 0.88488 0.25664 0.0
C4084 C 0.91736 0.88478 0.26669 0.0
C4085 C 0.91711 0.89076 0.28481 0.0
C4086 C 0.90098 0.89746 0.29251 0.0
H4087 H 0.86163 0.94423 0.2621 0.0
H4088 H 0.88189 0.93023 0.26395 0.0
H4089 H 0.86201 0.9223 0.25263 0.0
H4090 H 0.87244 0.89152 0.25644 0.0
H4091 H 0.9009 0.88025 0.24266 0.0
H4092 H 0.84941 0.17272 0.03797 0.0
H4093 H 0.84535 0.14336 0.05222 0.0
H4094 H 0.87487 0.11881 0.00765 0.0
H4095 H 0.87849 0.14819 0.99306 0.0
H4096 H 0.84417 0.10245 0.01378 0.0
H4097 H 0.8783 0.10952 0.08036 0.0
H4098 H 0.86216 0.12755 0.07677 0.0
H4099 H 0.88144 0.12515 0.06156 0.0
C4100 C 0.85527 0.16108 0.03137 0.0
C4101 C 0.86428 0.16268 0.01446 0.0
C4102 C 0.8531 0.14432 0.0396 0.0
C4103 C 0.86015 0.12888 0.03122 0.0
C4104 C 0.86948 0.13053 0.01446 0.0
H4105 H 0.83328 0.03325 0.09668 0.0
H4106 H 0.8527 0.05213 0.07737 0.0
C4107 C 0.87153 0.1473 0.00615 0.0
C4108 C 0.85606 0.11104 0.03906 0.0
H4109 H 0.85389 0.08802 0.07974 0.0
C4110 C 0.8467 0.09911 0.0281 0.0
C4111 C 0.85974 0.10637 0.05759 0.0
C4112 C 0.87116 0.11777 0.06966 0.0
C4113 C 0.83955 0.08343 0.0356 0.0
C4114 C 0.84142 0.07984 0.05461 0.0
C4115 C 0.85219 0.09091 0.0652 0.0
C4116 C 0.83017 0.06647 0.06424 0.0
C4117 C 0.82946 0.07121 0.02318 0.0
C4118 C 0.81114 0.06815 0.0631 0.0
C4119 C 0.80013 0.05748 0.07403 0.0
C4120 C 0.80788 0.04496 0.08646 0.0
C4121 C 0.82694 0.0427 0.0871 0.0
C4122 C 0.83803 0.0535 0.07615 0.0
H4123 H 0.83518 0.07165 0.00906 0.0
H4124 H 0.83005 0.05721 0.02838 0.0
H4125 H 0.81497 0.07573 0.02231 0.0
H4126 H 0.80475 0.07834 0.0544 0.0
H4127 H 0.78548 0.05952 0.07318 0.0
H4128 H 0.6715 0.70349 0.9625 0.0
H4129 H 0.68583 0.6764 0.95022 0.0
H4130 H 0.67158 0.69407 0.8953 0.0
H4131 H 0.65642 0.72066 0.9076 0.0
H4132 H 0.664 0.65984 0.90081 0.0
H4133 H 0.73422 0.67218 0.92455 0.0
H4134 H 0.71785 0.67173 0.94284 0.0
H4135 H 0.71623 0.68898 0.92539 0.0
C4136 C 0.67141 0.70152 0.94783 0.0
C4137 C 0.66286 0.71404 0.93596 0.0
C4138 C 0.67974 0.68616 0.94082 0.0
C4139 C 0.68001 0.6834 0.92184 0.0
C4140 C 0.67154 0.69599 0.90999 0.0
H4141 H 0.7506 0.60894 0.86532 0.0
H4142 H 0.73463 0.63536 0.87714 0.0
C4143 C 0.66297 0.71118 0.91701 0.0
C4144 C 0.68875 0.66723 0.91421 0.0
H4145 H 0.72903 0.64379 0.91197 0.0
C4146 C 0.67824 0.65634 0.90317 0.0
C4147 C 0.70737 0.66288 0.91717 0.0
C4148 C 0.71963 0.67464 0.92798 0.0
C4149 C 0.68587 0.64115 0.89497 0.0
C4150 C 0.70433 0.63648 0.89841 0.0
C4151 C 0.71483 0.64737 0.90946 0.0
C4152 C 0.71323 0.62054 0.89045 0.0
C4153 C 0.67419 0.63057 0.88234 0.0
C4154 C 0.70641 0.60352 0.89396 0.0
C4155 C 0.71533 0.58847 0.88695 0.0
C4156 C 0.73138 0.59027 0.87669 0.0
C4157 C 0.7382 0.60728 0.87318 0.0
C4158 C 0.72914 0.62232 0.87995 0.0
H4159 H 0.66246 0.63872 0.87695 0.0
H4160 H 0.68221 0.62543 0.87055 0.0
H4161 H 0.66864 0.61904 0.89007 0.0
H4162 H 0.69442 0.60183 0.90243 0.0
H4163 H 0.70996 0.57543 0.88999 0.0
H4164 H 0.20728 0.91426 0.12983 0.0
H4165 H 0.19366 0.88788 0.11687 0.0
H4166 H 0.19855 0.91092 0.06253 0.0
H4167 H 0.21229 0.93739 0.07542 0.0
H4168 H 0.16338 0.88173 0.09289 0.0
H4169 H 0.23075 0.86427 0.06206 0.0
H4170 H 0.22795 0.88098 0.07942 0.0
H4171 H 0.2215 0.88603 0.05613 0.0
C4172 C 0.20499 0.91393 0.11517 0.0
C4173 C 0.21094 0.9278 0.10361 0.0
C4174 C 0.19727 0.89882 0.10778 0.0
C4175 C 0.19549 0.89731 0.08874 0.0
C4176 C 0.20011 0.91174 0.07726 0.0
H4177 H 0.1441 0.81175 0.03158 0.0
H4178 H 0.15424 0.84049 0.04221 0.0
C4179 C 0.20777 0.92691 0.08465 0.0
C4180 C 0.19018 0.88011 0.08094 0.0
H4181 H 0.20669 0.84487 0.0563 0.0
C4182 C 0.17279 0.8737 0.08481 0.0
C4183 C 0.20266 0.86952 0.07073 0.0
C4184 C 0.22183 0.87541 0.06692 0.0
C4185 C 0.16745 0.85705 0.07851 0.0
C4186 C 0.17979 0.84664 0.06797 0.0
C4187 C 0.19725 0.85295 0.06429 0.0
C4188 C 0.1747 0.8292 0.06061 0.0
C4189 C 0.14875 0.85054 0.08346 0.0
C4190 C 0.18338 0.81334 0.06689 0.0
C4191 C 0.17764 0.79679 0.06077 0.0
C4192 C 0.1632 0.79597 0.04824 0.0
C4193 C 0.15515 0.81194 0.04138 0.0
C4194 C 0.16086 0.82839 0.04749 0.0
H4195 H 0.14257 0.85814 0.09495 0.0
H4196 H 0.13966 0.8522 0.07138 0.0
H4197 H 0.14936 0.83617 0.08738 0.0
H4198 H 0.19422 0.81374 0.07692 0.0
H4199 H 0.18409 0.78469 0.06624 0.0
H4200 H 0.80869 0.46935 0.81612 0.0
H4201 H 0.83432 0.45229 0.80288 0.0
H4202 H 0.86106 0.45057 0.85551 0.0
H4203 H 0.83562 0.46768 0.86878 0.0
H4204 H 0.8716 0.46648 0.80485 0.0
H4205 H 0.86545 0.39839 0.83535 0.0
H4206 H 0.84626 0.41386 0.83315 0.0
H4207 H 0.86274 0.41656 0.85096 0.0
C4208 C 0.81982 0.4649 0.82494 0.0
C4209 C 0.82027 0.46979 0.84343 0.0
C4210 C 0.83444 0.45527 0.81737 0.0
C4211 C 0.84947 0.4502 0.82828 0.0
C4212 C 0.84946 0.45424 0.84697 0.0
H4213 H 0.96204 0.42302 0.80497 0.0
H4214 H 0.93351 0.43819 0.81435 0.0
C4215 C 0.83496 0.464 0.8545 0.0
C4216 C 0.86594 0.44225 0.81988 0.0
H4217 H 0.89326 0.40483 0.82023 0.0
C4218 C 0.8763 0.45296 0.80806 0.0
C4219 C 0.87193 0.42465 0.82419 0.0
C4220 C 0.86099 0.41259 0.8365 0.0
C4221 C 0.89281 0.44657 0.80069 0.0
C4222 C 0.89899 0.42912 0.80534 0.0
C4223 C 0.88845 0.41829 0.81685 0.0
C4224 C 0.91625 0.42161 0.79818 0.0
C4225 C 0.90354 0.45841 0.78795 0.0
C4226 C 0.91582 0.40757 0.78584 0.0
C4227 C 0.93195 0.39901 0.78049 0.0
C4228 C 0.94874 0.40423 0.78755 0.0
C4229 C 0.94925 0.41877 0.79936 0.0
C4230 C 0.93303 0.42742 0.80468 0.0
H4231 H 0.89556 0.4705 0.78351 0.0
H4232 H 0.91598 0.46271 0.79509 0.0
H4233 H 0.90796 0.45096 0.77562 0.0
H4234 H 0.90296 0.40295 0.78072 0.0
H4235 H 0.93117 0.38787 0.77133 0.0
H4236 H 0.32945 0.1929 0.51323 0.0
H4237 H 0.31062 0.17098 0.52889 0.0
H4238 H 0.34371 0.17454 0.57744 0.0
H4239 H 0.36251 0.19669 0.56194 0.0
H4240 H 0.32568 0.13864 0.54087 0.0
H4241 H 0.29159 0.17429 0.59813 0.0
H4242 H 0.30139 0.18581 0.57865 0.0
H4243 H 0.3158 0.17704 0.59672 0.0
C4244 C 0.33248 0.18931 0.52738 0.0
C4245 C 0.34748 0.19641 0.53636 0.0
C4246 C 0.3217 0.17681 0.53629 0.0
C4247 C 0.32576 0.17121 0.55431 0.0
C4248 C 0.34017 0.17894 0.56364 0.0
H4249 H 0.29896 0.06809 0.60173 0.0
H4250 H 0.31469 0.09443 0.59003 0.0
C4251 C 0.35091 0.19156 0.55476 0.0
C4252 C 0.31626 0.15586 0.56243 0.0
H4253 H 0.28973 0.14265 0.5984 0.0
C4254 C 0.31775 0.13952 0.55341 0.0
C4255 C 0.30593 0.15713 0.57874 0.0
C4256 C 0.3034 0.17454 0.58858 0.0
C4257 C 0.30923 0.12433 0.56031 0.0
C4258 C 0.29924 0.12548 0.57684 0.0
C4259 C 0.29759 0.14184 0.58581 0.0
C4260 C 0.28992 0.1099 0.58468 0.0
C4261 C 0.31073 0.10727 0.54969 0.0
C4262 C 0.27086 0.11011 0.58587 0.0
C4263 C 0.26189 0.09517 0.59256 0.0
C4264 C 0.27188 0.07984 0.59822 0.0
C4265 C 0.29098 0.07973 0.59732 0.0
C4266 C 0.29995 0.0947 0.59063 0.0
H4267 H 0.31525 0.10969 0.53533 0.0
H4268 H 0.32087 0.09811 0.55642 0.0
H4269 H 0.29746 0.10049 0.54945 0.0
H4270 H 0.26292 0.12174 0.58134 0.0
H4271 H 0.24714 0.09558 0.59318 0.0
H4272 H 0.03146 0.09826 0.82522 0.0
H4273 H 0.05973 0.08515 0.83746 0.0
H4274 H 0.08012 0.07805 0.78245 0.0
H4275 H 0.05146 0.09083 0.77003 0.0
H4276 H 0.08573 0.04842 0.8047 0.0
H4277 H 0.10885 0.10871 0.8395 0.0
H4278 H 0.08613 0.10307 0.8461 0.0
H4279 H 0.09082 0.10944 0.82267 0.0
C4280 C 0.04194 0.09386 0.81572 0.0
C4281 C 0.03937 0.09558 0.7967 0.0
C4282 C 0.05814 0.08655 0.82273 0.0
C4283 C 0.07215 0.08104 0.81086 0.0
C4284 C 0.06951 0.08242 0.79181 0.0
H4285 H 0.18024 0.04976 0.85128 0.0
H4286 H 0.15454 0.06576 0.8366 0.0
C4287 C 0.05318 0.08967 0.78476 0.0
C4288 C 0.08921 0.07321 0.81854 0.0
H4289 H 0.12295 0.08086 0.84929 0.0
C4290 C 0.09401 0.05555 0.81428 0.0
C4291 C 0.10012 0.08268 0.8308 0.0
C4292 C 0.09634 0.10208 0.83489 0.0
C4293 C 0.10904 0.04683 0.82258 0.0
C4294 C 0.11921 0.05591 0.83579 0.0
C4295 C 0.11489 0.07382 0.83944 0.0
C4296 C 0.13443 0.04703 0.8459 0.0
C4297 C 0.11391 0.028 0.81705 0.0
C4298 C 0.13148 0.03161 0.85658 0.0
C4299 C 0.14612 0.02243 0.8649 0.0
C4300 C 0.16386 0.0287 0.86286 0.0
C4301 C 0.16666 0.04467 0.85306 0.0
C4302 C 0.15203 0.05379 0.84463 0.0
H4303 H 0.10838 0.025 0.8033 0.0
H4304 H 0.12891 0.02566 0.81681 0.0
H4305 H 0.10796 0.0185 0.82709 0.0
H4306 H 0.11791 0.02645 0.85811 0.0
H4307 H 0.14362 0.01014 0.87242 0.0
H4308 H 0.75132 0.40735 0.368 0.0
H4309 H 0.76928 0.38086 0.37753 0.0
H4310 H 0.81019 0.41443 0.40003 0.0
H4311 H 0.79249 0.44101 0.39006 0.0
H4312 H 0.82484 0.38507 0.38189 0.0
H4313 H 0.77093 0.36541 0.43136 0.0
H4314 H 0.76341 0.36769 0.40801 0.0
H4315 H 0.77084 0.38695 0.41997 0.0
C4316 C 0.76424 0.40905 0.37481 0.0
C4317 C 0.77049 0.42614 0.3785 0.0
C4318 C 0.77442 0.39394 0.38029 0.0
C4319 C 0.79083 0.39574 0.3898 0.0
C4320 C 0.79749 0.41281 0.39277 0.0
H4321 H 0.84518 0.32568 0.46608 0.0
H4322 H 0.82735 0.34857 0.44957 0.0
C4323 C 0.78739 0.42794 0.38712 0.0
C4324 C 0.80059 0.37989 0.39754 0.0
H4325 H 0.79645 0.34588 0.42882 0.0
C4326 C 0.81865 0.37642 0.39208 0.0
C4327 C 0.79246 0.36881 0.41098 0.0
C4328 C 0.77341 0.37244 0.41808 0.0
C4329 C 0.82892 0.36221 0.39989 0.0
C4330 C 0.82072 0.35106 0.41321 0.0
C4331 C 0.80259 0.35439 0.41847 0.0
C4332 C 0.83109 0.33669 0.42296 0.0
C4333 C 0.84862 0.35967 0.39433 0.0
C4334 C 0.83878 0.32225 0.41347 0.0
C4335 C 0.84909 0.30912 0.42287 0.0
C4336 C 0.85169 0.3102 0.44192 0.0
C4337 C 0.84347 0.32443 0.45142 0.0
C4338 C 0.83327 0.33754 0.44201 0.0
H4339 H 0.85388 0.37163 0.38706 0.0
H4340 H 0.85733 0.35671 0.4065 0.0
H4341 H 0.84992 0.34822 0.38496 0.0
H4342 H 0.83691 0.32118 0.39881 0.0
H4343 H 0.85518 0.29829 0.41516 0.0
H4344 H 0.96921 0.53682 0.70888 0.0
H4345 H 0.9472 0.51773 0.69448 0.0
H4346 H 0.95119 0.54873 0.64428 0.0
H4347 H 0.97387 0.56727 0.65835 0.0
H4348 H 0.91559 0.53249 0.68552 0.0
H4349 H 0.94367 0.50032 0.62373 0.0
H4350 H 0.95808 0.50932 0.64116 0.0
H4351 H 0.94827 0.52367 0.62351 0.0
C4352 C 0.96623 0.53891 0.69446 0.0
C4353 C 0.97332 0.55348 0.68471 0.0
C4354 C 0.95346 0.5281 0.68628 0.0
C4355 C 0.9475 0.53176 0.66828 0.0
C4356 C 0.95579 0.54536 0.65804 0.0
H4357 H 0.83749 0.53077 0.62966 0.0
H4358 H 0.86806 0.53769 0.64048 0.0
C4359 C 0.96871 0.55605 0.66615 0.0
C4360 C 0.93046 0.52395 0.66155 0.0
H4361 H 0.91086 0.50545 0.62421 0.0
C4362 C 0.91467 0.52627 0.67225 0.0
C4363 C 0.92919 0.5158 0.64427 0.0
C4364 C 0.94577 0.51196 0.63261 0.0
C4365 C 0.89758 0.52136 0.66586 0.0
C4366 C 0.89614 0.51432 0.64809 0.0
C4367 C 0.91198 0.51119 0.63769 0.0
C4368 C 0.87821 0.51034 0.64013 0.0
C4369 C 0.88118 0.52387 0.67817 0.0
C4370 C 0.87406 0.49279 0.63575 0.0
C4371 C 0.85669 0.48885 0.62945 0.0
C4372 C 0.84325 0.50243 0.62739 0.0
C4373 C 0.8476 0.52007 0.63121 0.0
C4374 C 0.86499 0.52401 0.63745 0.0
H4375 H 0.88518 0.52466 0.69282 0.0
H4376 H 0.87391 0.53653 0.67431 0.0
H4377 H 0.87158 0.5128 0.67671 0.0
H4378 H 0.88409 0.48208 0.63769 0.0
H4379 H 0.85366 0.47511 0.62663 0.0
H4380 H 0.65598 0.4975 0.14155 0.0
H4381 H 0.63113 0.47945 0.15275 0.0
H4382 H 0.66748 0.43341 0.15637 0.0
H4383 H 0.6928 0.45173 0.1453 0.0
H4384 H 0.61669 0.44912 0.13768 0.0
H4385 H 0.64434 0.43595 0.20784 0.0
H4386 H 0.65344 0.45281 0.19269 0.0
H4387 H 0.65869 0.42967 0.18888 0.0
C4388 C 0.65876 0.48354 0.14474 0.0
C4389 C 0.67632 0.476 0.14263 0.0
C4390 C 0.6445 0.47322 0.15108 0.0
C4391 C 0.64747 0.45513 0.15548 0.0
C4392 C 0.66498 0.44743 0.15326 0.0
H4393 H 0.55098 0.39226 0.18276 0.0
H4394 H 0.57845 0.40256 0.16727 0.0
C4395 C 0.67938 0.45784 0.1469 0.0
C4396 C 0.63199 0.44477 0.16258 0.0
H4397 H 0.61505 0.42579 0.2017 0.0
C4398 C 0.61637 0.44378 0.1516 0.0
C4399 C 0.63163 0.438 0.18079 0.0
C4400 C 0.64784 0.4392 0.19335 0.0
C4401 C 0.60013 0.43685 0.15856 0.0
C4402 C 0.59965 0.43043 0.1769 0.0
C4403 C 0.61549 0.43076 0.18765 0.0
C4404 C 0.58258 0.42444 0.18566 0.0
C4405 C 0.58341 0.43731 0.14654 0.0
C4406 C 0.57584 0.43324 0.20118 0.0
C4407 C 0.56024 0.42731 0.21014 0.0
C4408 C 0.55104 0.4125 0.20367 0.0
C4409 C 0.55756 0.40394 0.18786 0.0
C4410 C 0.57329 0.40978 0.17901 0.0
H4411 H 0.58501 0.44626 0.13436 0.0
H4412 H 0.58096 0.42369 0.14158 0.0
H4413 H 0.5712 0.44185 0.15434 0.0
H4414 H 0.58279 0.4446 0.20651 0.0
H4415 H 0.55559 0.43413 0.22232 0.0
H4416 H 0.58483 0.79675 0.94695 0.0
H4417 H 0.56414 0.80671 0.92227 0.0
H4418 H 0.60992 0.81215 0.88563 0.0
H4419 H 0.63061 0.80197 0.91009 0.0
H4420 H 0.56157 0.83658 0.89703 0.0
H4421 H 0.57855 0.77307 0.86262 0.0
H4422 H 0.58407 0.77692 0.88633 0.0
H4423 H 0.59832 0.78545 0.86826 0.0
C4424 C 0.59053 0.8007 0.93382 0.0
C4425 C 0.60928 0.79843 0.93031 0.0
C4426 C 0.57868 0.80621 0.91972 0.0
C4427 C 0.58551 0.80955 0.90205 0.0
C4428 C 0.6044 0.80915 0.8991 0.0
H4429 H 0.56363 0.84721 0.7986 0.0
H4430 H 0.57331 0.82921 0.82522 0.0
C4431 C 0.61621 0.80356 0.91312 0.0
C4432 C 0.57305 0.81226 0.88632 0.0
H4433 H 0.56402 0.79602 0.84397 0.0
C4434 C 0.56176 0.82758 0.88556 0.0
C4435 C 0.57313 0.80023 0.87159 0.0
C4436 C 0.58402 0.78289 0.87227 0.0
C4437 C 0.55166 0.83197 0.86972 0.0
C4438 C 0.55282 0.82059 0.85444 0.0
C4439 C 0.56317 0.80468 0.85571 0.0
C4440 C 0.54609 0.82661 0.83625 0.0
C4441 C 0.54081 0.84935 0.86898 0.0
C4442 C 0.52746 0.82989 0.833 0.0
C4443 C 0.52189 0.84002 0.81762 0.0
C4444 C 0.53498 0.84701 0.80555 0.0
C4445 C 0.55335 0.84193 0.80774 0.0
C4446 C 0.55888 0.83172 0.82297 0.0
H4447 H 0.54295 0.85752 0.88131 0.0
H4448 H 0.54459 0.85731 0.85663 0.0
H4449 H 0.52608 0.84654 0.86804 0.0
H4450 H 0.51741 0.82583 0.84303 0.0
H4451 H 0.50762 0.84387 0.81627 0.0
H4452 H 0.38687 0.31411 0.05575 0.0
H4453 H 0.40441 0.33048 0.0781 0.0
H4454 H 0.4309 0.28134 0.09635 0.0
H4455 H 0.41316 0.26485 0.07438 0.0
H4456 H 0.417 0.29999 0.12452 0.0
H4457 H 0.45729 0.34449 0.07947 0.0
H4458 H 0.43322 0.34609 0.07527 0.0
H4459 H 0.44551 0.32555 0.07088 0.0
C4460 C 0.39668 0.30684 0.06429 0.0
C4461 C 0.39862 0.28819 0.06333 0.0
C4462 C 0.40674 0.31623 0.07701 0.0
C4463 C 0.4191 0.30715 0.08876 0.0
C4464 C 0.42144 0.2886 0.0874 0.0
H4465 H 0.49801 0.35182 0.16186 0.0
H4466 H 0.48223 0.33742 0.1368 0.0
C4467 C 0.41129 0.2792 0.07484 0.0
C4468 C 0.42858 0.31668 0.10341 0.0
H4469 H 0.45743 0.35063 0.11141 0.0
C4470 C 0.4259 0.31102 0.12165 0.0
C4471 C 0.44029 0.33096 0.0996 0.0
C4472 C 0.44442 0.33704 0.08023 0.0
C4473 C 0.43452 0.3193 0.13622 0.0
C4474 C 0.44579 0.33394 0.13248 0.0
C4475 C 0.44861 0.33953 0.11423 0.0
C4476 C 0.45518 0.34327 0.14731 0.0
C4477 C 0.43181 0.31201 0.15544 0.0
C4478 C 0.44518 0.35157 0.16136 0.0
C4479 C 0.45416 0.35966 0.17576 0.0
C4480 C 0.47327 0.35977 0.17617 0.0
C4481 C 0.48325 0.35189 0.16186 0.0
C4482 C 0.47427 0.3437 0.14754 0.0
H4483 H 0.42692 0.29811 0.15541 0.0
H4484 H 0.44466 0.31222 0.16343 0.0
H4485 H 0.42142 0.32038 0.16256 0.0
H4486 H 0.43042 0.35171 0.16123 0.0
H4487 H 0.44617 0.36578 0.18657 0.0
H4488 H 0.89493 0.20991 0.41498 0.0
H4489 H 0.9058 0.19459 0.38757 0.0
H4490 H 0.91701 0.24528 0.36159 0.0
H4491 H 0.9057 0.26072 0.3889 0.0
H4492 H 0.90107 0.22232 0.33816 0.0
H4493 H 0.95922 0.18866 0.37394 0.0
H4494 H 0.93782 0.18413 0.38474 0.0
H4495 H 0.94599 0.20656 0.38406 0.0
C4496 C 0.89958 0.21778 0.40336 0.0
C4497 C 0.89959 0.23645 0.40402 0.0
C4498 C 0.90592 0.20902 0.3878 0.0
C4499 C 0.91263 0.2188 0.37276 0.0
C4500 C 0.91203 0.2375 0.37314 0.0
H4501 H 0.97652 0.16625 0.28711 0.0
H4502 H 0.96663 0.18601 0.31184 0.0
C4503 C 0.90555 0.24629 0.38868 0.0
C4504 C 0.92026 0.20942 0.3567 0.0
H4505 H 0.95183 0.17766 0.34437 0.0
C4506 C 0.91227 0.21266 0.33946 0.0
C4507 C 0.93514 0.19713 0.35837 0.0
C4508 C 0.94517 0.19404 0.37624 0.0
C4509 C 0.91832 0.20342 0.32395 0.0
C4510 C 0.93241 0.19029 0.32588 0.0
C4511 C 0.94086 0.18755 0.34297 0.0
C4512 C 0.93828 0.17888 0.3105 0.0
C4513 C 0.90961 0.20788 0.30566 0.0
C4514 C 0.92567 0.16817 0.30176 0.0
C4515 C 0.93124 0.15704 0.28758 0.0
C4516 C 0.94958 0.15624 0.28211 0.0
C4517 C 0.96227 0.16673 0.29103 0.0
C4518 C 0.95665 0.17799 0.30512 0.0
H4519 H 0.90361 0.22163 0.30535 0.0
H4520 H 0.91962 0.20664 0.29428 0.0
H4521 H 0.89844 0.19853 0.30321 0.0
H4522 H 0.91154 0.16823 0.30606 0.0
H4523 H 0.92125 0.14888 0.28107 0.0
H4524 H 0.10569 0.7211 0.58778 0.0
H4525 H 0.09253 0.70601 0.61461 0.0
H4526 H 0.05981 0.67457 0.57912 0.0
H4527 H 0.07287 0.68963 0.55215 0.0
H4528 H 0.04617 0.69833 0.61853 0.0
H4529 H 0.09893 0.64349 0.61917 0.0
H4530 H 0.1045 0.66589 0.61208 0.0
H4531 H 0.09055 0.65282 0.59771 0.0
C4532 C 0.09554 0.71112 0.58569 0.0
C4533 C 0.09034 0.70647 0.56789 0.0
C4534 C 0.08809 0.70251 0.60101 0.0
C4535 C 0.07536 0.68914 0.59874 0.0
C4536 C 0.0697 0.68484 0.58105 0.0
H4537 H 0.02538 0.61193 0.67063 0.0
H4538 H 0.04093 0.62751 0.64565 0.0
C4539 C 0.07712 0.69346 0.56571 0.0
C4540 C 0.06826 0.67937 0.61488 0.0
H4541 H 0.07587 0.64216 0.64169 0.0
C4542 C 0.05264 0.68609 0.62369 0.0
C4543 C 0.07679 0.6634 0.62138 0.0
C4544 C 0.09365 0.65585 0.6122 0.0
C4545 C 0.04516 0.6771 0.63887 0.0
C4546 C 0.05376 0.66115 0.64553 0.0
C4547 C 0.0694 0.65444 0.63664 0.0
C4548 C 0.04628 0.65099 0.66134 0.0
C4549 C 0.02785 0.68451 0.64735 0.0
C4550 C 0.04482 0.65873 0.67867 0.0
C4551 C 0.03592 0.64988 0.69301 0.0
C4552 C 0.02841 0.63305 0.6903 0.0
C4553 C 0.03093 0.62487 0.67323 0.0
C4554 C 0.0398 0.63377 0.65889 0.0
H4555 H 0.02073 0.6943 0.63806 0.0
H4556 H 0.01837 0.67366 0.65085 0.0
H4557 H 0.03122 0.69142 0.66018 0.0
H4558 H 0.05009 0.67185 0.68095 0.0
H4559 H 0.03438 0.65654 0.70599 0.0
H4560 H 0.52438 0.17767 0.68717 0.0
H4561 H 0.54205 0.19101 0.66221 0.0
H4562 H 0.5902 0.1621 0.68109 0.0
H4563 H 0.57284 0.14938 0.7065 0.0
H4564 H 0.59905 0.19376 0.66989 0.0
H4565 H 0.55564 0.16515 0.61665 0.0
H4566 H 0.54258 0.17934 0.63151 0.0
H4567 H 0.55343 0.15927 0.64062 0.0
C4568 C 0.5388 0.17439 0.68615 0.0
C4569 C 0.54719 0.16239 0.69872 0.0
C4570 C 0.54884 0.18184 0.67175 0.0
C4571 C 0.56731 0.17706 0.66937 0.0
C4572 C 0.57592 0.16583 0.6825 0.0
H4573 H 0.62011 0.20186 0.5635 0.0
H4574 H 0.60803 0.18499 0.58995 0.0
C4575 C 0.56598 0.15864 0.69709 0.0
C4576 C 0.57763 0.18364 0.65316 0.0
H4577 H 0.57598 0.18781 0.60646 0.0
C4578 C 0.59408 0.19229 0.65602 0.0
C4579 C 0.57151 0.18124 0.63496 0.0
C4580 C 0.55494 0.17056 0.63073 0.0
C4581 C 0.6041 0.19933 0.64129 0.0
C4582 C 0.59716 0.19826 0.62324 0.0
C4583 C 0.58118 0.18887 0.6203 0.0
C4584 C 0.60548 0.20793 0.6075 0.0
C4585 C 0.62206 0.20779 0.64529 0.0
C4586 C 0.60786 0.22636 0.60851 0.0
C4587 C 0.61491 0.23585 0.59364 0.0
C4588 C 0.61939 0.22721 0.57724 0.0
C4589 C 0.61687 0.20879 0.57604 0.0
C4590 C 0.60996 0.19919 0.59111 0.0
H4591 H 0.62852 0.2017 0.65775 0.0
H4592 H 0.63172 0.20642 0.63363 0.0
H4593 H 0.61967 0.22218 0.64793 0.0
H4594 H 0.60392 0.23354 0.6207 0.0
H4595 H 0.61646 0.2501 0.5949 0.0
H4596 H 0.0066 0.36301 0.844 0.0
H4597 H 0.02358 0.35199 0.87066 0.0
H4598 H 0.06535 0.33006 0.83531 0.0
H4599 H 0.04815 0.3411 0.80823 0.0
H4600 H 0.05209 0.3061 0.86304 0.0
H4601 H 0.07081 0.37076 0.89225 0.0
H4602 H 0.04705 0.36979 0.88673 0.0
H4603 H 0.06377 0.36859 0.86869 0.0
C4604 C 0.01949 0.356 0.84185 0.0
C4605 C 0.02613 0.35293 0.82409 0.0
C4606 C 0.02922 0.34981 0.85712 0.0
C4607 C 0.04583 0.34049 0.85494 0.0
C4608 C 0.05261 0.3374 0.83721 0.0
H4609 H 0.11218 0.28819 0.93957 0.0
H4610 H 0.09968 0.29884 0.91032 0.0
C4611 C 0.04284 0.34371 0.82182 0.0
C4612 C 0.05534 0.33322 0.87136 0.0
H4613 H 0.07203 0.34543 0.91277 0.0
C4614 C 0.05674 0.31465 0.87382 0.0
C4615 C 0.06125 0.34448 0.88537 0.0
C4616 C 0.06082 0.36452 0.88309 0.0
C4617 C 0.06324 0.30702 0.89032 0.0
C4618 C 0.0686 0.31831 0.90455 0.0
C4619 C 0.06766 0.33686 0.90189 0.0
C4620 C 0.07558 0.31115 0.92223 0.0
C4621 C 0.06376 0.28698 0.89267 0.0
C4622 C 0.06622 0.31477 0.93863 0.0
C4623 C 0.07331 0.30861 0.95544 0.0
C4624 C 0.08987 0.29887 0.95598 0.0
C4625 C 0.09917 0.29532 0.93952 0.0
C4626 C 0.09208 0.30141 0.92279 0.0
H4627 H 0.05535 0.28044 0.88222 0.0
H4628 H 0.07802 0.28193 0.89119 0.0
H4629 H 0.05887 0.28297 0.90653 0.0
H4630 H 0.0535 0.32241 0.9384 0.0
H4631 H 0.06596 0.31158 0.96796 0.0
H4632 H 0.98055 0.83464 0.17522 0.0
H4633 H 0.96485 0.81977 0.15076 0.0
H4634 H 0.913 0.83333 0.1755 0.0
H4635 H 0.92864 0.84876 0.20001 0.0
H4636 H 0.94212 0.7916 0.15296 0.0
H4637 H 0.90687 0.85168 0.12261 0.0
H4638 H 0.92501 0.85314 0.13914 0.0
H4639 H 0.90252 0.84744 0.14654 0.0
C4640 C 0.9658 0.8345 0.17555 0.0
C4641 C 0.95583 0.84294 0.18955 0.0
C4642 C 0.95687 0.82597 0.16154 0.0
C4643 C 0.9378 0.82568 0.16123 0.0
C4644 C 0.92774 0.83373 0.17535 0.0
H4645 H 0.88517 0.75424 0.08627 0.0
H4646 H 0.89358 0.77036 0.11366 0.0
C4647 C 0.93669 0.84238 0.18941 0.0
C4648 C 0.92876 0.8167 0.14606 0.0
H4649 H 0.90175 0.82414 0.10854 0.0
C4650 C 0.93318 0.79865 0.1433 0.0
C4651 C 0.9173 0.82608 0.13344 0.0
C4652 C 0.91271 0.84569 0.13542 0.0
C4653 C 0.92679 0.78976 0.128 0.0
C4654 C 0.91524 0.79909 0.11542 0.0
C4655 C 0.91053 0.81707 0.11832 0.0
C4656 C 0.90854 0.7905 0.0988 0.0
C4657 C 0.93307 0.77069 0.12509 0.0
C4658 C 0.91353 0.79698 0.08137 0.0
C4659 C 0.90853 0.78792 0.06566 0.0
C4660 C 0.89856 0.77227 0.06729 0.0
C4661 C 0.89305 0.76619 0.0847 0.0
C4662 C 0.89787 0.77533 0.10034 0.0
H4663 H 0.94538 0.76709 0.13332 0.0
H4664 H 0.92208 0.76162 0.12939 0.0
H4665 H 0.93618 0.76832 0.11041 0.0
H4666 H 0.92173 0.80872 0.07996 0.0
H4667 H 0.91285 0.79287 0.05234 0.0
H4668 H 0.4513 0.62422 0.32073 0.0
H4669 H 0.43748 0.63667 0.34833 0.0
H4670 H 0.44314 0.68977 0.32575 0.0
H4671 H 0.45704 0.67736 0.29804 0.0
H4672 H 0.46238 0.68198 0.35929 0.0
H4673 H 0.38985 0.66295 0.36405 0.0
H4674 H 0.40559 0.6453 0.35791 0.0
H4675 H 0.40205 0.66401 0.34251 0.0
C4676 C 0.44891 0.63851 0.32133 0.0
C4677 C 0.45532 0.64986 0.30736 0.0
C4678 C 0.44099 0.6456 0.3371 0.0
C4679 C 0.43935 0.66412 0.33906 0.0
C4680 C 0.44428 0.67543 0.32443 0.0
H4681 H 0.42007 0.73227 0.43092 0.0
H4682 H 0.43144 0.71909 0.40273 0.0
C4683 C 0.4521 0.66833 0.30857 0.0
C4684 C 0.4354 0.67157 0.35729 0.0
H4685 H 0.40331 0.67385 0.39107 0.0
C4686 C 0.44941 0.68036 0.36621 0.0
C4687 C 0.41862 0.66908 0.36633 0.0
C4688 C 0.40308 0.65994 0.3572 0.0
C4689 C 0.44716 0.68662 0.38408 0.0
C4690 C 0.4303 0.68433 0.39308 0.0
C4691 C 0.41629 0.67548 0.38417 0.0
C4692 C 0.42643 0.69188 0.41132 0.0
C4693 C 0.46298 0.69529 0.39327 0.0
C4694 C 0.42025 0.68092 0.42571 0.0
C4695 C 0.4136 0.68844 0.44187 0.0
C4696 C 0.41287 0.70707 0.44377 0.0
C4697 C 0.42039 0.71788 0.42989 0.0
C4698 C 0.42698 0.71036 0.41375 0.0
H4699 H 0.4762 0.69091 0.38717 0.0
H4700 H 0.46163 0.70996 0.39134 0.0
H4701 H 0.46326 0.69219 0.40821 0.0
H4702 H 0.41975 0.66662 0.42408 0.0
H4703 H 0.40786 0.67973 0.45225 0.0
H4704 H 0.81722 0.52913 0.80779 0.0
H4705 H 0.84335 0.54225 0.79243 0.0
H4706 H 0.82753 0.59395 0.81291 0.0
H4707 H 0.80142 0.58087 0.82867 0.0
H4708 H 0.84793 0.57044 0.76681 0.0
H4709 H 0.87873 0.5845 0.83458 0.0
H4710 H 0.85936 0.5704 0.83229 0.0
H4711 H 0.85645 0.5942 0.83043 0.0
C4712 C 0.81909 0.54336 0.8088 0.0
C4713 C 0.80738 0.55392 0.81966 0.0
C4714 C 0.83403 0.55083 0.79999 0.0
C4715 C 0.83758 0.56897 0.8019 0.0
C4716 C 0.8252 0.57984 0.8116 0.0
H4717 H 0.93606 0.6248 0.76968 0.0
H4718 H 0.90616 0.61749 0.78215 0.0
C4719 C 0.81019 0.57237 0.82043 0.0
C4720 C 0.8549 0.57604 0.79474 0.0
H4721 H 0.89596 0.5916 0.80833 0.0
C4722 C 0.85839 0.57519 0.77585 0.0
C4723 C 0.86851 0.58219 0.80662 0.0
C4724 C 0.86573 0.58279 0.82713 0.0
C4725 C 0.87523 0.58019 0.76851 0.0
C4726 C 0.88902 0.58585 0.78044 0.0
C4727 C 0.88536 0.58717 0.79926 0.0
C4728 C 0.90749 0.59001 0.77368 0.0
C4729 C 0.8781 0.5794 0.74804 0.0
C4730 C 0.91837 0.5768 0.76534 0.0
C4731 C 0.93547 0.58089 0.75824 0.0
C4732 C 0.94205 0.59828 0.75943 0.0
C4733 C 0.93141 0.61129 0.76848 0.0
C4734 C 0.91429 0.60716 0.77558 0.0
H4735 H 0.86494 0.57959 0.74052 0.0
H4736 H 0.88627 0.59074 0.74301 0.0
H4737 H 0.88559 0.56683 0.74472 0.0
H4738 H 0.91353 0.56335 0.76415 0.0
H4739 H 0.94335 0.5705 0.75149 0.0
H4740 H 0.71682 0.57034 0.10024 0.0
H4741 H 0.7062 0.5948 0.07992 0.0
H4742 H 0.6784 0.55741 0.04637 0.0
H4743 H 0.68912 0.53278 0.06654 0.0
H4744 H 0.70725 0.59417 0.0333 0.0
H4745 H 0.64202 0.60023 0.07239 0.0
H4746 H 0.66289 0.59319 0.08373 0.0
H4747 H 0.6523 0.57859 0.06804 0.0
C4748 C 0.70866 0.56731 0.08839 0.0
C4749 C 0.70368 0.54973 0.08497 0.0
C4750 C 0.70265 0.58125 0.07683 0.0
C4751 C 0.69154 0.57779 0.06177 0.0
C4752 C 0.687 0.56022 0.05797 0.0
H4753 H 0.65001 0.65717 0.98121 0.0
H4754 H 0.66062 0.62884 0.99541 0.0
C4755 C 0.69308 0.54624 0.06949 0.0
C4756 C 0.68371 0.59273 0.05082 0.0
H4757 H 0.64697 0.6214 0.04887 0.0
C4758 C 0.694 0.60007 0.03649 0.0
C4759 C 0.6665 0.60029 0.05524 0.0
C4760 C 0.65516 0.59277 0.07068 0.0
C4761 C 0.6876 0.6152 0.02663 0.0
C4762 C 0.67045 0.62294 0.03122 0.0
C4763 C 0.66006 0.61534 0.04536 0.0
C4764 C 0.66362 0.63971 0.0225 0.0
C4765 C 0.69948 0.62318 0.01188 0.0
C4766 C 0.6614 0.65498 0.03316 0.0
C4767 C 0.65528 0.67103 0.02516 0.0
C4768 C 0.65119 0.67205 0.00638 0.0
C4769 C 0.65309 0.65669 0.99574 0.0
C4770 C 0.65925 0.64058 0.00377 0.0
H4771 H 0.71362 0.61756 0.01234 0.0
H4772 H 0.69366 0.62039 0.99823 0.0
H4773 H 0.69996 0.63788 0.01324 0.0
H4774 H 0.66467 0.65452 0.04765 0.0
H4775 H 0.65393 0.6827 0.03365 0.0
H4776 H 0.69905 0.46223 0.31195 0.0
H4777 H 0.66895 0.45477 0.30005 0.0
H4778 H 0.64466 0.46863 0.35205 0.0
H4779 H 0.67412 0.47724 0.36329 0.0
H4780 H 0.64876 0.42993 0.3098 0.0
H4781 H 0.60742 0.491 0.32061 0.0
H4782 H 0.63187 0.4907 0.32275 0.0
H4783 H 0.6177 0.48434 0.34194 0.0
C4784 C 0.68715 0.4641 0.32057 0.0
C4785 C 0.68889 0.47035 0.33847 0.0
C4786 C 0.66998 0.4598 0.31384 0.0
C4787 C 0.65436 0.46141 0.32502 0.0
C4788 C 0.65622 0.46788 0.34283 0.0
H4789 H 0.56334 0.39129 0.31057 0.0
H4790 H 0.59023 0.40612 0.32218 0.0
C4791 C 0.6732 0.47262 0.34935 0.0
C4792 C 0.63652 0.45464 0.31894 0.0
H4793 H 0.59067 0.4635 0.31996 0.0
C4794 C 0.63609 0.43743 0.31175 0.0
C4795 C 0.61992 0.46445 0.32115 0.0
C4796 C 0.61931 0.48371 0.32683 0.0
C4797 C 0.61962 0.42957 0.30718 0.0
C4798 C 0.60294 0.43874 0.31093 0.0
C4799 C 0.60337 0.45619 0.31759 0.0
C4800 C 0.58498 0.43085 0.30704 0.0
C4801 C 0.62046 0.41172 0.29791 0.0
C4802 C 0.5721 0.4404 0.29627 0.0
C4803 C 0.55631 0.43224 0.29042 0.0
C4804 C 0.55332 0.41426 0.29491 0.0
C4805 C 0.56543 0.40513 0.30684 0.0
C4806 C 0.58095 0.4135 0.31318 0.0
H4807 H 0.63367 0.40953 0.29072 0.0
H4808 H 0.61921 0.40093 0.30841 0.0
H4809 H 0.60933 0.41058 0.28775 0.0
H4810 H 0.57471 0.45386 0.2915 0.0
H4811 H 0.54722 0.4396 0.28118 0.0
H4812 H 0.89866 0.32976 0.53439 0.0
H4813 H 0.88431 0.35301 0.55302 0.0
H4814 H 0.83543 0.32251 0.55689 0.0
H4815 H 0.84977 0.2991 0.53838 0.0
H4816 H 0.8347 0.35803 0.53674 0.0
H4817 H 0.86339 0.36014 0.60729 0.0
H4818 H 0.87888 0.35578 0.58859 0.0
H4819 H 0.86222 0.33965 0.59468 0.0
C4820 C 0.88512 0.3277 0.53983 0.0
C4821 C 0.87521 0.31279 0.53484 0.0
C4822 C 0.87698 0.34094 0.55052 0.0
C4823 C 0.85887 0.33939 0.55629 0.0
C4824 C 0.8495 0.3238 0.55264 0.0
H4825 H 0.77682 0.41946 0.58297 0.0
H4826 H 0.79344 0.39256 0.57384 0.0
C4827 C 0.85769 0.31046 0.54209 0.0
C4828 C 0.84873 0.35534 0.56257 0.0
H4829 H 0.84432 0.38449 0.59771 0.0
C4830 C 0.83663 0.36376 0.55014 0.0
C4831 C 0.85171 0.36286 0.57985 0.0
C4832 C 0.86468 0.35417 0.59349 0.0
C4833 C 0.82749 0.37973 0.55444 0.0
C4834 C 0.83012 0.38714 0.57191 0.0
C4835 C 0.84229 0.37871 0.58436 0.0
C4836 C 0.82015 0.4035 0.57752 0.0
C4837 C 0.81556 0.38875 0.54001 0.0
C4838 C 0.82967 0.41846 0.58302 0.0
C4839 C 0.8202 0.43387 0.58844 0.0
C4840 C 0.80103 0.43454 0.58843 0.0
C4841 C 0.79157 0.41953 0.58285 0.0
C4842 C 0.80105 0.40411 0.5776 0.0
H4843 H 0.81945 0.38451 0.52598 0.0
H4844 H 0.8012 0.38503 0.54236 0.0
H4845 H 0.81633 0.40349 0.54058 0.0
H4846 H 0.84444 0.41819 0.58315 0.0
H4847 H 0.82791 0.44511 0.59288 0.0
H4848 H 0.94333 0.40547 0.69381 0.0
H4849 H 0.91825 0.42006 0.67642 0.0
H4850 H 0.87948 0.38932 0.70726 0.0
H4851 H 0.90428 0.37493 0.72471 0.0
H4852 H 0.88841 0.40568 0.65521 0.0
H4853 H 0.86528 0.44243 0.71665 0.0
H4854 H 0.88758 0.43182 0.71502 0.0
H4855 H 0.86804 0.41884 0.72072 0.0
C4856 C 0.92945 0.4017 0.69665 0.0
C4857 C 0.92565 0.38923 0.71065 0.0
C4858 C 0.9152 0.41002 0.68676 0.0
C4859 C 0.89709 0.40594 0.69085 0.0
C4860 C 0.89339 0.39283 0.70417 0.0
H4861 H 0.79424 0.42 0.63895 0.0
H4862 H 0.8243 0.41024 0.65013 0.0
C4863 C 0.90755 0.38458 0.71405 0.0
C4864 C 0.88181 0.41582 0.68192 0.0
H4865 H 0.84401 0.44108 0.69197 0.0
C4866 C 0.8788 0.41363 0.66312 0.0
C4867 C 0.86959 0.4265 0.69225 0.0
C4868 C 0.87285 0.43022 0.71224 0.0
C4869 C 0.86318 0.42106 0.65459 0.0
C4870 C 0.85022 0.43056 0.66531 0.0
C4871 C 0.85384 0.43359 0.68384 0.0
C4872 C 0.83235 0.43662 0.65793 0.0
C4873 C 0.86063 0.41855 0.63427 0.0
C4874 C 0.82667 0.45455 0.6593 0.0
C4875 C 0.80934 0.46004 0.65335 0.0
C4876 C 0.79752 0.44771 0.64585 0.0
C4877 C 0.80312 0.42975 0.6447 0.0
C4878 C 0.82038 0.42423 0.6508 0.0
H4879 H 0.87392 0.4165 0.6272 0.0
H4880 H 0.85247 0.40653 0.63209 0.0
H4881 H 0.85334 0.4302 0.62782 0.0
H4882 H 0.83565 0.46428 0.66495 0.0
H4883 H 0.80527 0.47397 0.65442 0.0
H4884 H 0.7951 0.57295 0.87222 0.0
H4885 H 0.81026 0.59794 0.88594 0.0
H4886 H 0.83296 0.56276 0.92786 0.0
H4887 H 0.81766 0.53742 0.91409 0.0
H4888 H 0.81639 0.59688 0.94013 0.0
H4889 H 0.86659 0.60516 0.88367 0.0
H4890 H 0.84329 0.60372 0.87644 0.0
H4891 H 0.85438 0.5848 0.88746 0.0
C4892 C 0.80321 0.57049 0.88443 0.0
C4893 C 0.80526 0.55321 0.89207 0.0
C4894 C 0.81197 0.58478 0.89216 0.0
C4895 C 0.82296 0.58212 0.90769 0.0
C4896 C 0.82463 0.56501 0.91575 0.0
H4897 H 0.89427 0.65878 0.95722 0.0
H4898 H 0.88224 0.63254 0.94227 0.0
C4899 C 0.8159 0.55059 0.90792 0.0
C4900 C 0.8325 0.5974 0.91544 0.0
H4901 H 0.86422 0.62862 0.90521 0.0
C4902 C 0.82695 0.60374 0.93259 0.0
C4903 C 0.84631 0.60625 0.90556 0.0
C4904 C 0.85315 0.59959 0.88732 0.0
C4905 C 0.83451 0.61907 0.9399 0.0
C4906 C 0.84786 0.62827 0.92972 0.0
C4907 C 0.85382 0.62162 0.91284 0.0
C4908 C 0.85582 0.64478 0.93661 0.0
C4909 C 0.82816 0.62538 0.95843 0.0
C4910 C 0.84515 0.66051 0.93768 0.0
C4911 C 0.85203 0.67555 0.94603 0.0
C4912 C 0.86965 0.67501 0.95351 0.0
C4913 C 0.88065 0.65955 0.95154 0.0
C4914 C 0.8738 0.64456 0.94306 0.0
H4915 H 0.82032 0.61508 0.96594 0.0
H4916 H 0.83995 0.62906 0.96695 0.0
H4917 H 0.81923 0.63744 0.95658 0.0
H4918 H 0.83129 0.66095 0.93259 0.0
H4919 H 0.84324 0.68727 0.94743 0.0
H4920 H 0.60244 0.62828 0.25595 0.0
H4921 H 0.63245 0.61958 0.24366 0.0
H4922 H 0.60697 0.60239 0.19394 0.0
H4923 H 0.57718 0.61162 0.20588 0.0
H4924 H 0.64524 0.58785 0.23479 0.0
H4925 H 0.64741 0.6308 0.17278 0.0
H4926 H 0.63072 0.63428 0.19066 0.0
H4927 H 0.62692 0.61834 0.17293 0.0
C4928 C 0.60334 0.6229 0.24228 0.0
C4929 C 0.58757 0.62073 0.23177 0.0
C4930 C 0.62046 0.61792 0.23529 0.0
C4931 C 0.62203 0.61068 0.21771 0.0
C4932 C 0.60621 0.60848 0.20728 0.0
H4933 H 0.69158 0.53266 0.17316 0.0
H4934 H 0.67175 0.55071 0.19246 0.0
C4935 C 0.58916 0.61361 0.21417 0.0
C4936 C 0.63993 0.60419 0.21066 0.0
H4937 H 0.66598 0.60354 0.17191 0.0
C4938 C 0.64998 0.59155 0.22118 0.0
C4939 C 0.64648 0.60935 0.19314 0.0
C4940 C 0.6374 0.6241 0.18185 0.0
C4941 C 0.66562 0.58297 0.21408 0.0
C4942 C 0.67099 0.58675 0.1958 0.0
C4943 C 0.66174 0.60036 0.18582 0.0
C4944 C 0.68482 0.57563 0.18606 0.0
C4945 C 0.67601 0.56978 0.22621 0.0
C4946 C 0.69878 0.58357 0.17581 0.0
C4947 C 0.70997 0.57327 0.16436 0.0
C4948 C 0.70741 0.55483 0.16298 0.0
C4949 C 0.69402 0.54681 0.17393 0.0
C4950 C 0.68272 0.55712 0.18517 0.0
H4951 H 0.67507 0.57364 0.24083 0.0
H4952 H 0.66993 0.55646 0.22508 0.0
H4953 H 0.69062 0.56871 0.22228 0.0
H4954 H 0.70061 0.59784 0.1762 0.0
H4955 H 0.7202 0.57985 0.15614 0.0
H4956 H 0.71658 0.45 0.42597 0.0
H4957 H 0.69893 0.4282 0.44307 0.0
H4958 H 0.64923 0.45094 0.42018 0.0
H4959 H 0.66697 0.47281 0.40271 0.0
H4960 H 0.66869 0.42861 0.46786 0.0
H4961 H 0.65281 0.39973 0.39991 0.0
H4962 H 0.66977 0.41649 0.40238 0.0
H4963 H 0.64601 0.42257 0.40367 0.0
C4964 C 0.70186 0.45063 0.4249 0.0
C4965 C 0.69313 0.46286 0.41282 0.0
C4966 C 0.69179 0.43822 0.43473 0.0
C4967 C 0.67285 0.43777 0.43258 0.0
C4968 C 0.66389 0.45097 0.42179 0.0
H4969 H 0.61741 0.33874 0.46239 0.0
H4970 H 0.62178 0.36948 0.45151 0.0
C4971 C 0.67401 0.46351 0.41195 0.0
C4972 C 0.66322 0.42209 0.43981 0.0
H4973 H 0.64674 0.38238 0.42602 0.0
C4974 C 0.66351 0.41864 0.45877 0.0
C4975 C 0.65652 0.40913 0.42786 0.0
C4976 C 0.65629 0.412 0.40731 0.0
C4977 C 0.6581 0.40219 0.46606 0.0
C4978 C 0.65258 0.38881 0.45399 0.0
C4979 C 0.65112 0.39267 0.43517 0.0
C4980 C 0.64983 0.37028 0.46041 0.0
C4981 C 0.65881 0.39909 0.48655 0.0
C4982 C 0.66435 0.36044 0.46843 0.0
C4983 C 0.66195 0.34293 0.47451 0.0
C4984 C 0.64501 0.33495 0.47254 0.0
C4985 C 0.63063 0.34461 0.464 0.0
C4986 C 0.63306 0.36215 0.4579 0.0
H4987 H 0.6576 0.41185 0.494 0.0
H4988 H 0.64779 0.39023 0.49127 0.0
H4989 H 0.6721 0.39264 0.49026 0.0
H4990 H 0.67756 0.36634 0.47002 0.0
H4991 H 0.67324 0.33576 0.48106 0.0
H4992 H 0.81019 0.77198 0.56636 0.0
H4993 H 0.78624 0.793 0.57647 0.0
H4994 H 0.81831 0.83699 0.55727 0.0
H4995 H 0.84229 0.81611 0.54734 0.0
H4996 H 0.79291 0.81893 0.60292 0.0
H4997 H 0.76664 0.85006 0.53846 0.0
H4998 H 0.77883 0.8288 0.53911 0.0
H4999 H 0.79108 0.84924 0.53957 0.0
C5000 C 0.81198 0.78614 0.56411 0.0
C5001 C 0.82803 0.7925 0.55612 0.0
C5002 C 0.79829 0.79808 0.5698 0.0
C5003 C 0.80044 0.81649 0.56738 0.0
C5004 C 0.81623 0.82281 0.55886 0.0
H5005 H 0.77654 0.90972 0.6234 0.0
H5006 H 0.78759 0.88137 0.61088 0.0
C5007 C 0.82993 0.81089 0.55325 0.0
C5008 C 0.78739 0.82926 0.57567 0.0
H5009 H 0.76218 0.86705 0.56602 0.0
C5010 C 0.78584 0.82923 0.59485 0.0
C5011 C 0.77807 0.84254 0.56507 0.0
C5012 C 0.77857 0.8426 0.54439 0.0
C5013 C 0.77626 0.84293 0.60379 0.0
C5014 C 0.76817 0.85695 0.59324 0.0
C5015 C 0.76858 0.85631 0.57403 0.0
C5016 C 0.76103 0.87329 0.60187 0.0
C5017 C 0.77545 0.84271 0.62447 0.0
C5018 C 0.74246 0.87802 0.60084 0.0
C5019 C 0.73612 0.89414 0.6081 0.0
C5020 C 0.74835 0.90578 0.61616 0.0
C5021 C 0.76688 0.90092 0.61729 0.0
C5022 C 0.77317 0.88476 0.61023 0.0
H5023 H 0.77808 0.82909 0.63027 0.0
H5024 H 0.78601 0.85157 0.62981 0.0
H5025 H 0.76196 0.84772 0.62936 0.0
H5026 H 0.73296 0.86935 0.59429 0.0
H5027 H 0.72176 0.89769 0.60698 0.0
H5028 H 0.29344 0.56073 0.42106 0.0
H5029 H 0.30812 0.58738 0.43237 0.0
H5030 H 0.30405 0.61182 0.3785 0.0
H5031 H 0.28961 0.58521 0.36708 0.0
H5032 H 0.33662 0.61921 0.3968 0.0
H5033 H 0.27544 0.63227 0.44 0.0
H5034 H 0.28648 0.61091 0.44399 0.0
H5035 H 0.27596 0.61586 0.4222 0.0
C5036 C 0.29618 0.57158 0.41152 0.0
C5037 C 0.29027 0.571 0.39324 0.0
C5038 C 0.30437 0.58685 0.41804 0.0
C5039 C 0.3067 0.60172 0.40637 0.0
C5040 C 0.3022 0.60055 0.38776 0.0
H5041 H 0.3183 0.71266 0.43891 0.0
H5042 H 0.30719 0.68494 0.42577 0.0
C5043 C 0.29401 0.58531 0.38125 0.0
C5044 C 0.31256 0.61892 0.41372 0.0
H5045 H 0.29993 0.6519 0.44323 0.0
C5046 C 0.32863 0.62636 0.40696 0.0
C5047 C 0.30184 0.62843 0.42662 0.0
C5048 C 0.28387 0.62159 0.43353 0.0
C5049 C 0.33452 0.64286 0.41312 0.0
C5050 C 0.32416 0.65201 0.42658 0.0
C5051 C 0.30788 0.64479 0.433 0.0
C5052 C 0.33045 0.66871 0.4347 0.0
C5053 C 0.35167 0.65045 0.40505 0.0
C5054 C 0.34689 0.66861 0.44439 0.0
C5055 C 0.35318 0.68427 0.45181 0.0
C5056 C 0.34306 0.70036 0.44988 0.0
C5057 C 0.32635 0.70043 0.44057 0.0
C5058 C 0.32003 0.68466 0.43308 0.0
H5059 H 0.35499 0.6446 0.39151 0.0
H5060 H 0.35039 0.66517 0.40335 0.0
H5061 H 0.36326 0.64733 0.41441 0.0
H5062 H 0.35494 0.65639 0.44613 0.0
H5063 H 0.36618 0.68378 0.45877 0.0
H5064 H 0.53099 0.06772 0.70638 0.0
H5065 H 0.55961 0.05069 0.70077 0.0
H5066 H 0.58923 0.09967 0.70118 0.0
H5067 H 0.5613 0.11625 0.70748 0.0
H5068 H 0.58201 0.05139 0.67356 0.0
H5069 H 0.6214 0.07051 0.73365 0.0
H5070 H 0.59717 0.07489 0.73211 0.0
H5071 H 0.61305 0.09052 0.72253 0.0
C5072 C 0.54371 0.07468 0.70538 0.0
C5073 C 0.54406 0.0932 0.70752 0.0
C5074 C 0.56 0.06501 0.7023 0.0
C5075 C 0.57668 0.07384 0.70118 0.0
C5076 C 0.57675 0.09241 0.70283 0.0
H5077 H 0.66693 0.04578 0.63305 0.0
H5078 H 0.6398 0.0588 0.64771 0.0
C5079 C 0.56069 0.10192 0.70621 0.0
C5080 C 0.59394 0.06426 0.69665 0.0
H5081 H 0.63945 0.06409 0.706 0.0
C5082 C 0.59452 0.05385 0.68088 0.0
C5083 C 0.61023 0.06699 0.70648 0.0
C5084 C 0.61034 0.07616 0.72475 0.0
C5085 C 0.61109 0.04717 0.67394 0.0
C5086 C 0.62759 0.05183 0.68248 0.0
C5087 C 0.62689 0.06111 0.69902 0.0
C5088 C 0.6456 0.04702 0.6745 0.0
C5089 C 0.61062 0.03517 0.65756 0.0
C5090 C 0.65879 0.03777 0.68513 0.0
C5091 C 0.67471 0.03109 0.67695 0.0
C5092 C 0.67743 0.03331 0.65799 0.0
C5093 C 0.66503 0.04386 0.64769 0.0
C5094 C 0.64939 0.05098 0.65599 0.0
H5095 H 0.59758 0.02801 0.65696 0.0
H5096 H 0.61167 0.04336 0.6448 0.0
H5097 H 0.62201 0.02514 0.65788 0.0
H5098 H 0.65632 0.03478 0.6995 0.0
H5099 H 0.68404 0.02288 0.68516 0.0
H5100 H 0.16258 0.27926 0.93731 0.0
H5101 H 0.18378 0.29854 0.92089 0.0
H5102 H 0.18909 0.33031 0.96922 0.0
H5103 H 0.16865 0.31089 0.98583 0.0
H5104 H 0.17751 0.33201 0.91262 0.0
H5105 H 0.24073 0.3286 0.95307 0.0
H5106 H 0.22299 0.31261 0.95627 0.0
H5107 H 0.22189 0.33364 0.9679 0.0
C5108 C 0.16867 0.29006 0.94459 0.0
C5109 C 0.1638 0.29357 0.96287 0.0
C5110 C 0.18076 0.3011 0.93516 0.0
C5111 C 0.18822 0.3158 0.94384 0.0
C5112 C 0.18396 0.31882 0.96231 0.0
H5113 H 0.20677 0.41989 0.90187 0.0
H5114 H 0.19517 0.39122 0.91239 0.0
C5115 C 0.17206 0.30774 0.97177 0.0
C5116 C 0.19851 0.3293 0.93318 0.0
H5117 H 0.23501 0.3564 0.93586 0.0
C5118 C 0.19029 0.33707 0.91749 0.0
C5119 C 0.21538 0.33576 0.93924 0.0
C5120 C 0.22582 0.32704 0.95493 0.0
C5121 C 0.19784 0.35181 0.90845 0.0
C5122 C 0.21371 0.35938 0.91564 0.0
C5123 C 0.22261 0.35088 0.93056 0.0
C5124 C 0.22071 0.3766 0.90859 0.0
C5125 C 0.18856 0.3592 0.8914 0.0
C5126 C 0.23908 0.37812 0.90352 0.0
C5127 C 0.24579 0.39459 0.8978 0.0
C5128 C 0.23424 0.40982 0.89707 0.0
C5129 C 0.21589 0.40831 0.9021 0.0
C5130 C 0.20923 0.39189 0.90797 0.0
H5131 H 0.18129 0.34862 0.88413 0.0
H5132 H 0.17827 0.36955 0.89532 0.0
H5133 H 0.19845 0.3653 0.88177 0.0
H5134 H 0.24824 0.36657 0.90406 0.0
H5135 H 0.26004 0.39544 0.89411 0.0
H5136 H 0.31244 0.44995 0.65535 0.0
H5137 H 0.33878 0.43367 0.6685 0.0
H5138 H 0.37437 0.47368 0.64649 0.0
H5139 H 0.34802 0.49028 0.63382 0.0
H5140 H 0.36881 0.41881 0.65371 0.0
H5141 H 0.38826 0.47277 0.70003 0.0
H5142 H 0.36687 0.47315 0.68788 0.0
H5143 H 0.38735 0.48011 0.6765 0.0
C5144 C 0.32591 0.45517 0.65321 0.0
C5145 C 0.32826 0.47137 0.64366 0.0
C5146 C 0.34092 0.44591 0.66076 0.0
C5147 C 0.35846 0.4527 0.65885 0.0
C5148 C 0.36089 0.46847 0.64857 0.0
H5149 H 0.46137 0.39818 0.66987 0.0
H5150 H 0.43256 0.41223 0.66024 0.0
C5151 C 0.34588 0.47783 0.64116 0.0
C5152 C 0.37423 0.44325 0.66753 0.0
H5153 H 0.4104 0.44915 0.69591 0.0
C5154 C 0.37782 0.42539 0.66306 0.0
C5155 C 0.3857 0.45172 0.6801 0.0
C5156 C 0.38175 0.47042 0.68658 0.0
C5157 C 0.39302 0.41598 0.67022 0.0
C5158 C 0.40518 0.42486 0.68175 0.0
C5159 C 0.40117 0.44246 0.68686 0.0
C5160 C 0.4226 0.41642 0.68784 0.0
C5161 C 0.39588 0.39663 0.66537 0.0
C5162 C 0.42686 0.41473 0.70657 0.0
C5163 C 0.44352 0.40696 0.71212 0.0
C5164 C 0.45607 0.4008 0.69898 0.0
C5165 C 0.45188 0.40274 0.68028 0.0
C5166 C 0.43535 0.4106 0.67476 0.0
H5167 H 0.3828 0.39042 0.66182 0.0
H5168 H 0.40495 0.39571 0.65322 0.0
H5169 H 0.4023 0.38885 0.67685 0.0
H5170 H 0.41725 0.41931 0.71687 0.0
H5171 H 0.44651 0.40567 0.72663 0.0
H5172 H 0.75159 0.10246 0.13056 0.0
H5173 H 0.73635 0.13094 0.12292 0.0
H5174 H 0.69518 0.10334 0.09324 0.0
H5175 H 0.71012 0.07468 0.1014 0.0
H5176 H 0.73144 0.14548 0.08998 0.0
H5177 H 0.66419 0.13716 0.12295 0.0
H5178 H 0.6834 0.12234 0.12783 0.0
H5179 H 0.66967 0.11928 0.10774 0.0
C5180 C 0.73915 0.10246 0.1226 0.0
C5181 C 0.73197 0.08642 0.11657 0.0
C5182 C 0.73047 0.11873 0.11825 0.0
C5183 C 0.7145 0.11927 0.10773 0.0
C5184 C 0.70723 0.10322 0.10178 0.0
H5185 H 0.67198 0.19821 0.0346 0.0
H5186 H 0.69069 0.17604 0.05105 0.0
C5187 C 0.71582 0.08688 0.10632 0.0
C5188 C 0.70624 0.13668 0.10192 0.0
H5189 H 0.66599 0.16032 0.09984 0.0
C5190 C 0.71718 0.14883 0.09237 0.0
C5191 C 0.68775 0.14124 0.10536 0.0
C5192 C 0.67563 0.12939 0.11671 0.0
C5193 C 0.70992 0.16503 0.0854 0.0
C5194 C 0.69112 0.16896 0.08765 0.0
C5195 C 0.68038 0.15723 0.09798 0.0
C5196 C 0.68194 0.18424 0.07807 0.0
C5197 C 0.72244 0.17767 0.07556 0.0
C5198 C 0.67087 0.19637 0.08778 0.0
C5199 C 0.65993 0.209 0.07835 0.0
C5200 C 0.65978 0.20955 0.05907 0.0
C5201 C 0.6717 0.19809 0.04946 0.0
C5202 C 0.68255 0.18547 0.05886 0.0
H5203 H 0.73663 0.17607 0.08071 0.0
H5204 H 0.72263 0.17464 0.06072 0.0
H5205 H 0.71786 0.19178 0.07719 0.0
H5206 H 0.67016 0.19559 0.10261 0.0
H5207 H 0.65087 0.21761 0.08616 0.0
H5208 H 0.54234 0.92148 0.84543 0.0
H5209 H 0.56279 0.94287 0.85856 0.0
H5210 H 0.54971 0.9804 0.81471 0.0
H5211 H 0.52926 0.95881 0.80133 0.0
H5212 H 0.58567 0.97189 0.81643 0.0
H5213 H 0.56177 0.98932 0.88583 0.0
H5214 H 0.56164 0.96568 0.88268 0.0
H5215 H 0.54692 0.98006 0.86891 0.0
C5216 C 0.54334 0.93452 0.83893 0.0
C5217 C 0.53439 0.93847 0.82231 0.0
C5218 C 0.55494 0.94681 0.84653 0.0
C5219 C 0.55769 0.9633 0.8377 0.0
C5220 C 0.54768 0.96779 0.8218 0.0
H5221 H 0.64921 0.02819 0.87337 0.0
H5222 H 0.61827 0.02028 0.86442 0.0
C5223 C 0.536 0.95548 0.8142 0.0
C5224 C 0.57332 0.97407 0.84319 0.0
H5225 H 0.5946 0.99041 0.8807 0.0
C5226 C 0.58741 0.97635 0.83037 0.0
C5227 C 0.5756 0.97994 0.86135 0.0
C5228 C 0.56057 0.97878 0.87541 0.0
C5229 C 0.60416 0.9832 0.83556 0.0
C5230 C 0.60691 0.98772 0.85403 0.0
C5231 C 0.59247 0.98663 0.86659 0.0
C5232 C 0.62511 0.99239 0.86066 0.0
C5233 C 0.61906 0.98494 0.82141 0.0
C5234 C 0.63898 0.9792 0.8618 0.0
C5235 C 0.65656 0.98362 0.86698 0.0
C5236 C 0.6605 0.00131 0.87105 0.0
C5237 C 0.64648 0.01443 0.87033 0.0
C5238 C 0.62885 0.00997 0.86524 0.0
H5239 H 0.61363 0.98468 0.80721 0.0
H5240 H 0.62645 0.99753 0.8232 0.0
H5241 H 0.62902 0.97366 0.82317 0.0
H5242 H 0.63624 0.96553 0.85839 0.0
H5243 H 0.66714 0.97328 0.86742 0.0
H5244 H 0.83003 0.04211 0.38962 0.0
H5245 H 0.85588 0.05865 0.37761 0.0
H5246 H 0.8289 0.06458 0.32524 0.0
H5247 H 0.80281 0.04854 0.3374 0.0
H5248 H 0.87667 0.04607 0.35073 0.0
H5249 H 0.85019 0.11301 0.32974 0.0
H5250 H 0.83762 0.09837 0.34474 0.0
H5251 H 0.83694 0.0957 0.32025 0.0
C5252 C 0.82938 0.04748 0.37574 0.0
C5253 C 0.81448 0.04407 0.36441 0.0
C5254 C 0.84417 0.05686 0.36887 0.0
C5255 C 0.84432 0.06293 0.35055 0.0
C5256 C 0.82895 0.06039 0.33953 0.0
H5257 H 0.92333 0.08797 0.26889 0.0
H5258 H 0.8974 0.07852 0.28733 0.0
C5259 C 0.81406 0.05117 0.34647 0.0
C5260 C 0.86134 0.06972 0.34233 0.0
H5261 H 0.87841 0.10325 0.31564 0.0
C5262 C 0.87713 0.05874 0.34335 0.0
C5263 C 0.86193 0.08621 0.33264 0.0
C5264 C 0.8458 0.09907 0.33193 0.0
C5265 C 0.89325 0.06348 0.33437 0.0
C5266 C 0.89357 0.07959 0.32413 0.0
C5267 C 0.878 0.09083 0.32346 0.0
C5268 C 0.9097 0.08461 0.3133 0.0
C5269 C 0.90966 0.05098 0.33527 0.0
C5270 C 0.92526 0.09092 0.32192 0.0
C5271 C 0.94016 0.09637 0.31143 0.0
C5272 C 0.9397 0.09554 0.29217 0.0
C5273 C 0.92421 0.08874 0.28368 0.0
C5274 C 0.90932 0.08341 0.29417 0.0
H5275 H 0.90666 0.03818 0.34241 0.0
H5276 H 0.91465 0.0481 0.32121 0.0
H5277 H 0.92082 0.05744 0.3427 0.0
H5278 H 0.92571 0.09195 0.33671 0.0
H5279 H 0.95182 0.1016 0.3184 0.0
H5280 H 0.40037 0.19569 0.06909 0.0
H5281 H 0.41418 0.18268 0.09698 0.0
H5282 H 0.3647 0.19393 0.12702 0.0
H5283 H 0.35077 0.20697 0.09922 0.0
H5284 H 0.41342 0.20828 0.131 0.0
H5285 H 0.38527 0.14054 0.14199 0.0
H5286 H 0.38815 0.14973 0.11911 0.0
H5287 H 0.37082 0.15882 0.13381 0.0
C5288 C 0.39223 0.19481 0.08147 0.0
C5289 C 0.37458 0.2024 0.08208 0.0
C5290 C 0.40015 0.18749 0.09737 0.0
C5291 C 0.39043 0.18751 0.11396 0.0
C5292 C 0.37232 0.19379 0.11428 0.0
H5293 H 0.44229 0.14263 0.21316 0.0
H5294 H 0.41907 0.16065 0.19642 0.0
C5295 C 0.36441 0.20117 0.0984 0.0
C5296 C 0.40004 0.18306 0.1312 0.0
H5297 H 0.40863 0.1491 0.1618 0.0
C5298 C 0.41221 0.19545 0.13794 0.0
C5299 C 0.39803 0.16652 0.14035 0.0
C5300 C 0.38489 0.15303 0.13356 0.0
C5301 C 0.42331 0.19127 0.15309 0.0
C5302 C 0.42237 0.17416 0.1614 0.0
C5303 C 0.40927 0.16225 0.15542 0.0
C5304 C 0.4369 0.16715 0.17371 0.0
C5305 C 0.4364 0.20493 0.15964 0.0
C5306 C 0.45466 0.1654 0.16673 0.0
C5307 C 0.46773 0.1551 0.17611 0.0
C5308 C 0.46329 0.14646 0.19265 0.0
C5309 C 0.44601 0.14938 0.20049 0.0
C5310 C 0.43277 0.15956 0.19092 0.0
H5311 H 0.43105 0.2187 0.15682 0.0
H5312 H 0.43913 0.20333 0.17456 0.0
H5313 H 0.4495 0.20331 0.15214 0.0
H5314 H 0.45804 0.17083 0.15332 0.0
H5315 H 0.48097 0.15289 0.16982 0.0
H5316 H 0.58322 0.73593 0.92675 0.0
H5317 H 0.56396 0.72121 0.90471 0.0
H5318 H 0.58972 0.67052 0.91892 0.0
H5319 H 0.60883 0.68509 0.9413 0.0
H5320 H 0.57545 0.70346 0.87478 0.0
H5321 H 0.53619 0.6584 0.92015 0.0
H5322 H 0.5491 0.67657 0.92884 0.0
H5323 H 0.5604 0.65587 0.92303 0.0
C5324 C 0.58466 0.72161 0.92537 0.0
C5325 C 0.59755 0.71167 0.93581 0.0
C5326 C 0.57363 0.71323 0.91276 0.0
C5327 C 0.57525 0.69475 0.91032 0.0
C5328 C 0.58794 0.68474 0.92088 0.0
H5329 H 0.54434 0.63888 0.81274 0.0
H5330 H 0.56042 0.65299 0.83779 0.0
C5331 C 0.59891 0.6931 0.93361 0.0
C5332 C 0.56455 0.68623 0.89583 0.0
H5333 H 0.53455 0.65319 0.888 0.0
C5334 C 0.56642 0.69253 0.87769 0.0
C5335 C 0.55262 0.67212 0.89968 0.0
C5336 C 0.54929 0.66544 0.919 0.0
C5337 C 0.55695 0.68492 0.86325 0.0
C5338 C 0.54561 0.67033 0.86698 0.0
C5339 C 0.54343 0.66425 0.88516 0.0
C5340 C 0.53589 0.66126 0.85218 0.0
C5341 C 0.55899 0.69274 0.84415 0.0
C5342 C 0.51679 0.66074 0.85228 0.0
C5343 C 0.50759 0.65254 0.83808 0.0
C5344 C 0.51738 0.64471 0.8236 0.0
C5345 C 0.53648 0.64495 0.82368 0.0
C5346 C 0.54567 0.65308 0.83792 0.0
H5347 H 0.56389 0.70662 0.84443 0.0
H5348 H 0.56913 0.68458 0.83645 0.0
H5349 H 0.54588 0.69274 0.8366 0.0
H5350 H 0.509 0.6669 0.86321 0.0
H5351 H 0.49284 0.65248 0.83834 0.0
H5352 H 0.11607 0.77013 0.61588 0.0
H5353 H 0.10211 0.78707 0.64077 0.0
H5354 H 0.07142 0.81918 0.60139 0.0
H5355 H 0.08571 0.80246 0.5763 0.0
H5356 H 0.0859 0.83878 0.63002 0.0
H5357 H 0.04905 0.77996 0.65601 0.0
H5358 H 0.07311 0.77563 0.654 0.0
H5359 H 0.05983 0.78062 0.63374 0.0
C5360 C 0.10648 0.78091 0.61254 0.0
C5361 C 0.10179 0.78496 0.59428 0.0
C5362 C 0.09846 0.79048 0.62673 0.0
C5363 C 0.08546 0.80403 0.62284 0.0
C5364 C 0.08133 0.80863 0.60458 0.0
H5365 H 0.01721 0.84282 0.71235 0.0
H5366 H 0.02707 0.83112 0.68273 0.0
C5367 C 0.08948 0.79912 0.59033 0.0
C5368 C 0.07595 0.81301 0.638 0.0
H5369 H 0.05107 0.80444 0.67647 0.0
C5370 C 0.07809 0.83137 0.64009 0.0
C5371 C 0.06541 0.80332 0.65079 0.0
C5372 C 0.06153 0.78383 0.64844 0.0
C5373 C 0.07073 0.84016 0.6553 0.0
C5374 C 0.06141 0.83015 0.66882 0.0
C5375 C 0.05847 0.812 0.66619 0.0
C5376 C 0.05531 0.83798 0.68622 0.0
C5377 C 0.07302 0.86001 0.65678 0.0
C5378 C 0.06801 0.84538 0.69803 0.0
C5379 C 0.06239 0.85214 0.71484 0.0
C5380 C 0.04404 0.8514 0.7201 0.0
C5381 C 0.03142 0.84361 0.70849 0.0
C5382 C 0.03701 0.83698 0.6916 0.0
H5383 H 0.07522 0.86638 0.64311 0.0
H5384 H 0.06092 0.86647 0.66328 0.0
H5385 H 0.08512 0.86255 0.66534 0.0
H5386 H 0.08229 0.84578 0.69433 0.0
H5387 H 0.07235 0.85812 0.7236 0.0
H5388 H 0.92681 0.2812 0.43167 0.0
H5389 H 0.93767 0.29373 0.40224 0.0
H5390 H 0.91391 0.34497 0.41593 0.0
H5391 H 0.90308 0.33267 0.44498 0.0
H5392 H 0.90647 0.33363 0.37935 0.0
H5393 H 0.98017 0.32971 0.39738 0.0
H5394 H 0.96756 0.30955 0.3999 0.0
H5395 H 0.96245 0.32802 0.41449 0.0
C5396 C 0.92396 0.29512 0.42834 0.0
C5397 C 0.91427 0.306 0.44066 0.0
C5398 C 0.93018 0.30227 0.41159 0.0
C5399 C 0.92671 0.32034 0.407 0.0
C5400 C 0.91677 0.33103 0.4192 0.0
H5401 H 0.97796 0.39322 0.33136 0.0
H5402 H 0.96303 0.37887 0.35759 0.0
C5403 C 0.91067 0.32398 0.43585 0.0
C5404 C 0.93357 0.32848 0.38972 0.0
H5405 H 0.97241 0.34236 0.36859 0.0
C5406 C 0.92089 0.33541 0.37688 0.0
C5407 C 0.95237 0.331 0.38672 0.0
C5408 C 0.9665 0.32432 0.40036 0.0
C5409 C 0.92653 0.34489 0.36115 0.0
C5410 C 0.94532 0.34745 0.35819 0.0
C5411 C 0.958 0.34041 0.37095 0.0
C5412 C 0.95222 0.35735 0.34192 0.0
C5413 C 0.91236 0.35249 0.34805 0.0
C5414 C 0.95066 0.35026 0.32436 0.0
C5415 C 0.95916 0.35842 0.30934 0.0
C5416 C 0.96939 0.37385 0.31161 0.0
C5417 C 0.97007 0.38147 0.32907 0.0
C5418 C 0.96167 0.3732 0.34411 0.0
H5419 H 0.89847 0.3525 0.35415 0.0
H5420 H 0.91563 0.36635 0.34385 0.0
H5421 H 0.91225 0.34432 0.33552 0.0
H5422 H 0.94359 0.33795 0.32239 0.0
H5423 H 0.95839 0.35217 0.2961 0.0
H5424 H 0.43043 0.8605 0.29753 0.0
H5425 H 0.41186 0.84894 0.32277 0.0
H5426 H 0.4593 0.82193 0.34584 0.0
H5427 H 0.47789 0.83313 0.32058 0.0
H5428 H 0.42895 0.80089 0.34511 0.0
H5429 H 0.4125 0.86683 0.37556 0.0
H5430 H 0.4064 0.86474 0.35187 0.0
H5431 H 0.42999 0.86383 0.35837 0.0
C5432 C 0.43687 0.85188 0.30783 0.0
C5433 C 0.45565 0.84769 0.30702 0.0
C5434 C 0.42627 0.84549 0.32236 0.0
C5435 C 0.43429 0.83486 0.33632 0.0
C5436 C 0.45289 0.83022 0.33525 0.0
H5437 H 0.40376 0.79746 0.44406 0.0
H5438 H 0.41638 0.8144 0.41805 0.0
C5439 C 0.46348 0.83662 0.32078 0.0
C5440 C 0.42341 0.82827 0.35203 0.0
H5441 H 0.39925 0.84157 0.38975 0.0
C5442 C 0.4224 0.80978 0.35483 0.0
C5443 C 0.41499 0.83995 0.36473 0.0
C5444 C 0.4161 0.85995 0.36264 0.0
C5445 C 0.41327 0.80261 0.37003 0.0
C5446 C 0.4048 0.81425 0.38268 0.0
C5447 C 0.40571 0.83275 0.37992 0.0
C5448 C 0.39537 0.80714 0.39904 0.0
C5449 C 0.41304 0.78261 0.37269 0.0
C5450 C 0.37904 0.79812 0.39703 0.0
C5451 C 0.37185 0.78849 0.41178 0.0
C5452 C 0.38089 0.78776 0.42875 0.0
C5453 C 0.39653 0.79786 0.43112 0.0
C5454 C 0.40373 0.80751 0.41631 0.0
H5455 H 0.4227 0.77562 0.36335 0.0
H5456 H 0.41654 0.77881 0.38707 0.0
H5457 H 0.39913 0.77789 0.36992 0.0
H5458 H 0.37238 0.79778 0.3838 0.0
H5459 H 0.35974 0.78087 0.40962 0.0
H5460 H 0.97845 0.63501 0.15936 0.0
H5461 H 0.96102 0.64748 0.13358 0.0
H5462 H 0.93175 0.68271 0.17006 0.0
H5463 H 0.94898 0.66974 0.19627 0.0
H5464 H 0.90953 0.66851 0.14304 0.0
H5465 H 0.97161 0.69649 0.11221 0.0
H5466 H 0.97449 0.67302 0.11671 0.0
H5467 H 0.97098 0.688 0.13551 0.0
C5468 C 0.96821 0.64533 0.16194 0.0
C5469 C 0.96517 0.65159 0.17972 0.0
C5470 C 0.95832 0.65249 0.14719 0.0
C5471 C 0.94546 0.66634 0.14986 0.0
C5472 C 0.94177 0.67214 0.16773 0.0
H5473 H 0.91453 0.72251 0.04875 0.0
H5474 H 0.92385 0.71672 0.08044 0.0
C5475 C 0.95157 0.66476 0.18264 0.0
C5476 C 0.93647 0.6749 0.1337 0.0
H5477 H 0.94634 0.69307 0.09183 0.0
C5478 C 0.91749 0.67416 0.13193 0.0
C5479 C 0.94683 0.68269 0.11944 0.0
C5480 C 0.96708 0.68529 0.12114 0.0
C5481 C 0.9087 0.6801 0.11574 0.0
C5482 C 0.9193 0.68641 0.10084 0.0
C5483 C 0.93817 0.68801 0.1031 0.0
C5484 C 0.91146 0.69085 0.08251 0.0
C5485 C 0.8882 0.67955 0.11485 0.0
C5486 C 0.90124 0.67834 0.0731 0.0
C5487 C 0.89544 0.68189 0.05512 0.0
C5488 C 0.90018 0.6978 0.04613 0.0
C5489 C 0.91045 0.71025 0.05548 0.0
C5490 C 0.91586 0.70691 0.07356 0.0
H5491 H 0.88204 0.68088 0.12871 0.0
H5492 H 0.88244 0.69032 0.10577 0.0
H5493 H 0.88419 0.6665 0.10944 0.0
H5494 H 0.89819 0.6656 0.07942 0.0
H5495 H 0.8876 0.67204 0.04814 0.0
H5496 H 0.10868 0.19971 0.94149 0.0
H5497 H 0.09895 0.18239 0.91521 0.0
H5498 H 0.08578 0.23122 0.88537 0.0
H5499 H 0.09585 0.24853 0.91136 0.0
H5500 H 0.06533 0.18215 0.90012 0.0
H5501 H 0.1153 0.20373 0.84785 0.0
H5502 H 0.11822 0.20767 0.87201 0.0
H5503 H 0.10368 0.22227 0.8583 0.0
C5504 C 0.1039 0.2067 0.92922 0.0
C5505 C 0.10307 0.2254 0.92835 0.0
C5506 C 0.09836 0.19682 0.91426 0.0
C5507 C 0.09196 0.20554 0.89824 0.0
C5508 C 0.09114 0.22424 0.8974 0.0
H5509 H 0.01797 0.16918 0.81731 0.0
H5510 H 0.03337 0.18266 0.84307 0.0
C5511 C 0.09676 0.2341 0.9123 0.0
C5512 C 0.08499 0.19515 0.88284 0.0
H5513 H 0.08841 0.19004 0.83656 0.0
C5514 C 0.07052 0.1837 0.88626 0.0
C5515 C 0.09197 0.197 0.86483 0.0
C5516 C 0.10828 0.20819 0.86054 0.0
C5517 C 0.06232 0.17458 0.87199 0.0
C5518 C 0.06854 0.17734 0.85381 0.0
C5519 C 0.08351 0.18819 0.85049 0.0
C5520 C 0.05939 0.16941 0.83801 0.0
C5521 C 0.0471 0.16209 0.87651 0.0
C5522 C 0.06912 0.15799 0.8263 0.0
C5523 C 0.06043 0.15044 0.81142 0.0
C5524 C 0.04186 0.15422 0.80805 0.0
C5525 C 0.03224 0.1659 0.81964 0.0
C5526 C 0.04098 0.17353 0.83443 0.0
H5527 H 0.04769 0.15744 0.89105 0.0
H5528 H 0.03382 0.16922 0.87436 0.0
H5529 H 0.0476 0.15027 0.86755 0.0
H5530 H 0.08337 0.15472 0.82882 0.0
H5531 H 0.06817 0.14138 0.8028 0.0
H5532 H 0.54642 0.33142 0.68998 0.0
H5533 H 0.5605 0.32066 0.66172 0.0
H5534 H 0.5608 0.3745 0.63989 0.0
H5535 H 0.54618 0.38522 0.66793 0.0
H5536 H 0.54402 0.35281 0.61723 0.0
H5537 H 0.60985 0.32111 0.63799 0.0
H5538 H 0.59123 0.31281 0.65128 0.0
H5539 H 0.59711 0.33589 0.65281 0.0
C5540 C 0.55009 0.34102 0.67941 0.0
C5541 C 0.54522 0.35913 0.68109 0.0
C5542 C 0.55815 0.33486 0.66325 0.0
C5543 C 0.56178 0.34679 0.64868 0.0
C5544 C 0.5581 0.36507 0.65093 0.0
H5545 H 0.60095 0.32707 0.53785 0.0
H5546 H 0.58885 0.34175 0.56516 0.0
C5547 C 0.54987 0.37119 0.66699 0.0
C5548 C 0.56727 0.34 0.63044 0.0
H5549 H 0.59811 0.31285 0.6087 0.0
C5550 C 0.556 0.34427 0.61532 0.0
C5551 C 0.58285 0.32882 0.62796 0.0
C5552 C 0.59605 0.32454 0.64335 0.0
C5553 C 0.55963 0.33727 0.59794 0.0
C5554 C 0.57486 0.3257 0.59566 0.0
C5555 C 0.58631 0.32164 0.61062 0.0
C5556 C 0.5792 0.31749 0.57786 0.0
C5557 C 0.54697 0.34185 0.5822 0.0
C5558 C 0.5771 0.29914 0.57575 0.0
C5559 C 0.58381 0.29073 0.56011 0.0
C5560 C 0.59301 0.30051 0.54646 0.0
C5561 C 0.59391 0.31913 0.54805 0.0
C5562 C 0.58708 0.32756 0.56368 0.0
H5563 H 0.53462 0.34946 0.58669 0.0
H5564 H 0.55426 0.35 0.57181 0.0
H5565 H 0.5427 0.32949 0.57544 0.0
H5566 H 0.57099 0.29121 0.58657 0.0
H5567 H 0.58282 0.27638 0.55934 0.0
H5568 H 0.05779 0.37174 0.22519 0.0
H5569 H 0.08738 0.37535 0.20991 0.0
H5570 H 0.09454 0.42466 0.23816 0.0
H5571 H 0.06533 0.42126 0.25339 0.0
H5572 H 0.09996 0.40477 0.18752 0.0
H5573 H 0.14119 0.39486 0.25051 0.0
H5574 H 0.11782 0.38804 0.24896 0.0
H5575 H 0.12289 0.41094 0.25322 0.0
C5576 C 0.06563 0.38339 0.22806 0.0
C5577 C 0.05923 0.39614 0.24063 0.0
C5578 C 0.08254 0.38539 0.21938 0.0
C5579 C 0.09328 0.40005 0.22327 0.0
C5580 C 0.08664 0.41302 0.23533 0.0
H5581 H 0.18232 0.46083 0.19303 0.0
H5582 H 0.15758 0.44472 0.20768 0.0
C5583 C 0.06985 0.41108 0.24395 0.0
C5584 C 0.11135 0.4023 0.21463 0.0
H5585 H 0.15561 0.41021 0.22531 0.0
C5586 C 0.11225 0.40556 0.19565 0.0
C5587 C 0.12733 0.40323 0.22532 0.0
C5588 C 0.12734 0.3989 0.24561 0.0
C5589 C 0.12849 0.41102 0.18729 0.0
C5590 C 0.14419 0.413 0.19822 0.0
C5591 C 0.14353 0.40874 0.21701 0.0
C5592 C 0.16074 0.4214 0.19081 0.0
C5593 C 0.12843 0.4157 0.16706 0.0
C5594 C 0.17116 0.4133 0.17698 0.0
C5595 C 0.18538 0.42247 0.1686 0.0
C5596 C 0.18934 0.43989 0.17392 0.0
C5597 C 0.17956 0.44748 0.18855 0.0
C5598 C 0.16542 0.43829 0.19694 0.0
H5599 H 0.11447 0.41602 0.1612 0.0
H5600 H 0.13458 0.4289 0.16458 0.0
H5601 H 0.13675 0.40561 0.15959 0.0
H5602 H 0.1679 0.40015 0.17226 0.0
H5603 H 0.1926 0.41625 0.15732 0.0
H5604 H 0.32572 0.44625 0.89945 0.0
H5605 H 0.33513 0.41852 0.91516 0.0
H5606 H 0.28271 0.41648 0.94195 0.0
H5607 H 0.27303 0.44406 0.92576 0.0
H5608 H 0.33856 0.41259 0.95124 0.0
H5609 H 0.28832 0.36639 0.92295 0.0
H5610 H 0.29175 0.38836 0.91328 0.0
H5611 H 0.27818 0.38559 0.93364 0.0
C5612 C 0.31618 0.43984 0.90862 0.0
C5613 C 0.29869 0.44725 0.91147 0.0
C5614 C 0.32155 0.424 0.91756 0.0
C5615 C 0.30956 0.41533 0.92956 0.0
C5616 C 0.29204 0.42273 0.93244 0.0
H5617 H 0.34586 0.33693 0.0118 0.0
H5618 H 0.33461 0.36385 0.9956 0.0
C5619 C 0.28658 0.43854 0.92333 0.0
C5620 C 0.31589 0.39905 0.93965 0.0
H5621 H 0.3071 0.35509 0.94725 0.0
C5622 C 0.3317 0.4 0.95034 0.0
C5623 C 0.307 0.38262 0.93829 0.0
C5624 C 0.29048 0.38057 0.92629 0.0
C5625 C 0.33892 0.38498 0.95971 0.0
C5626 C 0.32979 0.36866 0.95876 0.0
C5627 C 0.31398 0.36767 0.94805 0.0
C5628 C 0.33658 0.3524 0.96859 0.0
C5629 C 0.35651 0.38665 0.97017 0.0
C5630 C 0.34104 0.33694 0.95881 0.0
C5631 C 0.34729 0.32151 0.96806 0.0
C5632 C 0.3492 0.32135 0.9872 0.0
C5633 C 0.34477 0.33682 0.99698 0.0
C5634 C 0.33837 0.35219 0.98776 0.0
H5635 H 0.36428 0.39835 0.96532 0.0
H5636 H 0.35337 0.38847 0.98492 0.0
H5637 H 0.36531 0.37448 0.96883 0.0
H5638 H 0.33969 0.33683 0.94402 0.0
H5639 H 0.3505 0.30969 0.96024 0.0
H5640 H 0.4513 0.5632 0.70923 0.0
H5641 H 0.42738 0.5472 0.69351 0.0
H5642 H 0.40136 0.59735 0.6778 0.0
H5643 H 0.42516 0.61338 0.69348 0.0
H5644 H 0.39127 0.55117 0.70539 0.0
H5645 H 0.39648 0.56764 0.63138 0.0
H5646 H 0.41534 0.56976 0.64702 0.0
H5647 H 0.39784 0.58696 0.64543 0.0
C5648 C 0.4408 0.5708 0.70188 0.0
C5649 C 0.44002 0.58953 0.70258 0.0
C5650 C 0.42713 0.56164 0.69297 0.0
C5651 C 0.41267 0.57107 0.68439 0.0
C5652 C 0.41257 0.5898 0.68403 0.0
H5653 H 0.30453 0.57093 0.65216 0.0
H5654 H 0.33668 0.57439 0.65879 0.0
C5655 C 0.42614 0.59896 0.69306 0.0
C5656 C 0.39632 0.56167 0.67824 0.0
H5657 H 0.36675 0.55939 0.64242 0.0
C5658 C 0.38606 0.55255 0.69152 0.0
C5659 C 0.38964 0.56347 0.66014 0.0
C5660 C 0.4005 0.57234 0.64512 0.0
C5661 C 0.36858 0.5465 0.68756 0.0
C5662 C 0.36139 0.54934 0.66973 0.0
C5663 C 0.37223 0.55732 0.65612 0.0
C5664 C 0.34192 0.54652 0.66558 0.0
C5665 C 0.3575 0.53829 0.70284 0.0
C5666 C 0.33407 0.52967 0.66728 0.0
C5667 C 0.31545 0.52771 0.66379 0.0
C5668 C 0.30459 0.54252 0.65825 0.0
C5669 C 0.31253 0.55928 0.65649 0.0
C5670 C 0.33097 0.56126 0.66013 0.0
H5671 H 0.36387 0.53993 0.71649 0.0
H5672 H 0.34355 0.54434 0.70315 0.0
H5673 H 0.3563 0.5238 0.70047 0.0
H5674 H 0.34232 0.51805 0.6712 0.0
H5675 H 0.30962 0.51465 0.66524 0.0
H5676 H 0.13521 0.7029 0.46098 0.0
H5677 H 0.14392 0.67989 0.43871 0.0
H5678 H 0.15378 0.64221 0.48323 0.0
H5679 H 0.14488 0.66479 0.50526 0.0
H5680 H 0.17652 0.6612 0.43544 0.0
H5681 H 0.12121 0.61455 0.4498 0.0
H5682 H 0.12018 0.63745 0.45703 0.0
H5683 H 0.13207 0.62062 0.47068 0.0
C5684 C 0.13916 0.68965 0.46589 0.0
C5685 C 0.13928 0.6855 0.48475 0.0
C5686 C 0.14407 0.67657 0.45323 0.0
C5687 C 0.14901 0.65927 0.45935 0.0
C5688 C 0.14945 0.65532 0.47821 0.0
H5689 H 0.22254 0.57929 0.42559 0.0
H5690 H 0.20604 0.60579 0.43638 0.0
C5691 C 0.14451 0.66828 0.49078 0.0
C5692 C 0.15484 0.64536 0.44641 0.0
H5693 H 0.14944 0.60128 0.43814 0.0
C5694 C 0.17037 0.6482 0.43565 0.0
C5695 C 0.14654 0.62857 0.44637 0.0
C5696 C 0.12895 0.62519 0.45645 0.0
C5697 C 0.17873 0.63419 0.42605 0.0
C5698 C 0.17157 0.6169 0.42773 0.0
C5699 C 0.15516 0.61446 0.43721 0.0
C5700 C 0.18151 0.60098 0.42096 0.0
C5701 C 0.19537 0.63797 0.41458 0.0
C5702 C 0.17288 0.58908 0.40942 0.0
C5703 C 0.18211 0.57371 0.40362 0.0
C5704 C 0.20015 0.57005 0.40924 0.0
C5705 C 0.20868 0.58185 0.42099 0.0
C5706 C 0.19936 0.59709 0.42696 0.0
H5707 H 0.19508 0.65199 0.4094 0.0
H5708 H 0.20774 0.63603 0.42318 0.0
H5709 H 0.19648 0.62894 0.40271 0.0
H5710 H 0.15905 0.59176 0.40478 0.0
H5711 H 0.17527 0.56495 0.39436 0.0
H5712 H 0.06014 0.57693 0.28391 0.0
H5713 H 0.08651 0.56386 0.30033 0.0
H5714 H 0.10532 0.61659 0.31139 0.0
H5715 H 0.07897 0.62971 0.29509 0.0
H5716 H 0.12294 0.56952 0.29032 0.0
H5717 H 0.10936 0.59083 0.36157 0.0
H5718 H 0.09184 0.59072 0.34422 0.0
H5719 H 0.10756 0.60868 0.34487 0.0
C5720 C 0.06976 0.58571 0.2901 0.0
C5721 C 0.06756 0.60431 0.2883 0.0
C5722 C 0.08479 0.57824 0.29944 0.0
C5723 C 0.0977 0.58927 0.30726 0.0
C5724 C 0.0953 0.60786 0.30577 0.0
H5725 H 0.20401 0.58303 0.35453 0.0
H5726 H 0.17383 0.59107 0.34229 0.0
C5727 C 0.08032 0.61533 0.29639 0.0
C5728 C 0.11446 0.58146 0.31567 0.0
H5729 H 0.13977 0.58074 0.35487 0.0
C5730 C 0.12655 0.57174 0.3045 0.0
C5731 C 0.11906 0.58442 0.33416 0.0
C5732 C 0.1062 0.59409 0.34697 0.0
C5733 C 0.14355 0.5656 0.31108 0.0
C5734 C 0.14839 0.569 0.32943 0.0
C5735 C 0.13604 0.57824 0.34078 0.0
C5736 C 0.16655 0.5639 0.33686 0.0
C5737 C 0.1565 0.5562 0.29811 0.0
C5738 C 0.17238 0.54595 0.33793 0.0
C5739 C 0.18971 0.54137 0.34466 0.0
C5740 C 0.20131 0.55465 0.35071 0.0
C5741 C 0.19538 0.57257 0.3498 0.0
C5742 C 0.17813 0.57715 0.34294 0.0
H5743 H 0.15241 0.55828 0.28355 0.0
H5744 H 0.1706 0.56092 0.2998 0.0
H5745 H 0.15657 0.54166 0.30119 0.0
H5746 H 0.1635 0.53549 0.33366 0.0
H5747 H 0.19393 0.52743 0.34535 0.0
H5748 H 0.15424 0.30471 0.05525 0.0
H5749 H 0.16667 0.32896 0.07326 0.0
H5750 H 0.12342 0.36439 0.05378 0.0
H5751 H 0.11131 0.34048 0.03555 0.0
H5752 H 0.15686 0.37805 0.04823 0.0
H5753 H 0.15022 0.35356 0.12025 0.0
H5754 H 0.16196 0.33851 0.10509 0.0
H5755 H 0.13822 0.3438 0.10148 0.0
C5756 C 0.14722 0.31759 0.05517 0.0
C5757 C 0.13186 0.32078 0.04402 0.0
C5758 C 0.15429 0.33141 0.06548 0.0
C5759 C 0.14591 0.34847 0.06494 0.0
C5760 C 0.13012 0.35136 0.05439 0.0
H5761 H 0.16037 0.4424 0.12885 0.0
H5762 H 0.15073 0.41449 0.11545 0.0
C5763 C 0.12319 0.33767 0.04401 0.0
C5764 C 0.15424 0.36383 0.07398 0.0
H5765 H 0.16585 0.38051 0.11551 0.0
C5766 C 0.15887 0.37857 0.06294 0.0
C5767 C 0.15675 0.3645 0.09317 0.0
C5768 C 0.1514 0.34933 0.10576 0.0
C5769 C 0.16565 0.39408 0.07056 0.0
C5770 C 0.16834 0.39472 0.08974 0.0
C5771 C 0.16391 0.37991 0.1008 0.0
C5772 C 0.17483 0.41102 0.0986 0.0
C5773 C 0.16921 0.40986 0.05802 0.0
C5774 C 0.19172 0.41818 0.09381 0.0
C5775 C 0.19712 0.43425 0.10125 0.0
C5776 C 0.18584 0.44327 0.1138 0.0
C5777 C 0.16921 0.43582 0.11901 0.0
C5778 C 0.16377 0.41982 0.11149 0.0
H5779 H 0.16214 0.40879 0.04465 0.0
H5780 H 0.16472 0.42254 0.06446 0.0
H5781 H 0.18405 0.41048 0.05524 0.0
H5782 H 0.20065 0.41142 0.08418 0.0
H5783 H 0.21005 0.43969 0.09708 0.0
H5784 H 0.28638 0.42206 0.84559 0.0
H5785 H 0.30738 0.4047 0.82635 0.0
H5786 H 0.34215 0.45001 0.82112 0.0
H5787 H 0.32109 0.46756 0.8398 0.0
H5788 H 0.33831 0.43331 0.78883 0.0
H5789 H 0.3557 0.38407 0.8444 0.0
H5790 H 0.33198 0.38577 0.83851 0.0
H5791 H 0.34286 0.4044 0.84861 0.0
C5792 C 0.29845 0.42836 0.84024 0.0
C5793 C 0.30211 0.44617 0.84432 0.0
C5794 C 0.31048 0.41838 0.82934 0.0
C5795 C 0.32649 0.42597 0.8226 0.0
C5796 C 0.32989 0.44387 0.82622 0.0
H5797 H 0.43095 0.38554 0.79386 0.0
H5798 H 0.40255 0.39586 0.80814 0.0
C5799 C 0.31782 0.45389 0.83694 0.0
C5800 C 0.3401 0.41533 0.81213 0.0
H5801 H 0.37059 0.38036 0.8161 0.0
C5802 C 0.34527 0.42162 0.79469 0.0
C5803 C 0.34921 0.40017 0.81991 0.0
C5804 C 0.34482 0.39324 0.83894 0.0
C5805 C 0.35978 0.41359 0.78508 0.0
C5806 C 0.36901 0.39852 0.79294 0.0
C5807 C 0.36339 0.39183 0.81008 0.0
C5808 C 0.38573 0.39072 0.78455 0.0
C5809 C 0.36569 0.42193 0.7671 0.0
C5810 C 0.38563 0.38397 0.76672 0.0
C5811 C 0.40191 0.37826 0.75845 0.0
C5812 C 0.41844 0.37896 0.76803 0.0
C5813 C 0.41838 0.38488 0.78617 0.0
C5814 C 0.40217 0.39075 0.79434 0.0
H5815 H 0.35983 0.43562 0.76507 0.0
H5816 H 0.38077 0.42258 0.76632 0.0
H5817 H 0.361 0.41369 0.75563 0.0
H5818 H 0.37303 0.38344 0.75907 0.0
H5819 H 0.40162 0.37363 0.74447 0.0
H5820 H 0.36051 0.65138 0.49994 0.0
H5821 H 0.3518 0.62515 0.51794 0.0
H5822 H 0.36331 0.65266 0.56791 0.0
H5823 H 0.37158 0.6792 0.54991 0.0
H5824 H 0.36891 0.60325 0.54415 0.0
H5825 H 0.30965 0.641 0.57317 0.0
H5826 H 0.32305 0.64963 0.55443 0.0
H5827 H 0.33147 0.65031 0.57753 0.0
C5828 C 0.36134 0.65177 0.51476 0.0
C5829 C 0.36645 0.66733 0.52361 0.0
C5830 C 0.35645 0.63677 0.52501 0.0
C5831 C 0.35666 0.6371 0.54423 0.0
C5832 C 0.36275 0.6523 0.55308 0.0
H5833 H 0.32712 0.54489 0.61293 0.0
H5834 H 0.34519 0.56758 0.59722 0.0
C5835 C 0.36749 0.66739 0.54282 0.0
C5836 C 0.34909 0.62204 0.55481 0.0
H5837 H 0.31342 0.61101 0.58239 0.0
C5838 C 0.35686 0.6049 0.55264 0.0
C5839 C 0.33323 0.6243 0.56566 0.0
C5840 C 0.32373 0.64225 0.56776 0.0
C5841 C 0.34895 0.58987 0.56079 0.0
C5842 C 0.33307 0.59217 0.57156 0.0
C5843 C 0.32561 0.60935 0.5741 0.0
C5844 C 0.32318 0.57699 0.57954 0.0
C5845 C 0.35721 0.57163 0.55726 0.0
C5846 C 0.30491 0.57475 0.57472 0.0
C5847 C 0.29456 0.56204 0.58379 0.0
C5848 C 0.30235 0.55126 0.59775 0.0
C5849 C 0.32089 0.55289 0.60201 0.0
C5850 C 0.33122 0.56581 0.59305 0.0
H5851 H 0.36695 0.57183 0.54558 0.0
H5852 H 0.3647 0.56681 0.56966 0.0
H5853 H 0.34644 0.56195 0.55435 0.0
H5854 H 0.2985 0.58326 0.5643 0.0
H5855 H 0.28032 0.56097 0.5802 0.0
H5856 H 0.27533 0.09937 0.38381 0.0
H5857 H 0.2609 0.12627 0.3967 0.0
H5858 H 0.20792 0.10438 0.38792 0.0
H5859 H 0.22224 0.07746 0.37538 0.0
H5860 H 0.23537 0.15097 0.38227 0.0
H5861 H 0.20779 0.11505 0.44281 0.0
H5862 H 0.22506 0.10538 0.42809 0.0
H5863 H 0.20143 0.10519 0.42159 0.0
C5864 C 0.26061 0.10045 0.38449 0.0
C5865 C 0.24985 0.08639 0.37876 0.0
C5866 C 0.25241 0.11573 0.39188 0.0
C5867 C 0.23339 0.11706 0.39363 0.0
C5868 C 0.22264 0.10336 0.3871 0.0
H5869 H 0.15864 0.20433 0.40575 0.0
H5870 H 0.17945 0.18052 0.39565 0.0
C5871 C 0.23081 0.08809 0.37982 0.0
C5872 C 0.22461 0.13265 0.40236 0.0
H5873 H 0.19468 0.14406 0.43624 0.0
C5874 C 0.22665 0.14954 0.3942 0.0
C5875 C 0.21361 0.13076 0.41819 0.0
C5876 C 0.21198 0.11315 0.42831 0.0
C5877 C 0.21712 0.1645 0.40089 0.0
C5878 C 0.20501 0.16233 0.41584 0.0
C5879 C 0.20377 0.14562 0.42461 0.0
C5880 C 0.19276 0.17696 0.42198 0.0
C5881 C 0.22001 0.18244 0.3918 0.0
C5882 C 0.19291 0.18236 0.44031 0.0
C5883 C 0.18085 0.1958 0.44617 0.0
C5884 C 0.16849 0.20395 0.43375 0.0
C5885 C 0.16818 0.19835 0.41551 0.0
C5886 C 0.18015 0.18488 0.4097 0.0
H5887 H 0.23356 0.18294 0.38502 0.0
H5888 H 0.20947 0.18485 0.38109 0.0
H5889 H 0.21891 0.19336 0.40186 0.0
H5890 H 0.2024 0.17623 0.45004 0.0
H5891 H 0.18128 0.19987 0.46033 0.0
H5892 H 0.64448 0.32194 0.52534 0.0
H5893 H 0.65481 0.35075 0.53542 0.0
H5894 H 0.69345 0.32432 0.57188 0.0
H5895 H 0.68308 0.29515 0.56177 0.0
H5896 H 0.65332 0.36144 0.57363 0.0
H5897 H 0.7227 0.36342 0.54286 0.0
H5898 H 0.70526 0.34911 0.53443 0.0
H5899 H 0.71707 0.34336 0.55531 0.0
C5900 C 0.65534 0.32219 0.53534 0.0
C5901 C 0.66294 0.3063 0.54286 0.0
C5902 C 0.66118 0.33869 0.5411 0.0
C5903 C 0.67485 0.33963 0.55437 0.0
C5904 C 0.68296 0.32381 0.5615 0.0
H5905 H 0.70552 0.42438 0.62429 0.0
H5906 H 0.69111 0.39851 0.61118 0.0
C5907 C 0.67705 0.3072 0.55574 0.0
C5908 C 0.67978 0.35721 0.5614 0.0
H5909 H 0.71419 0.38681 0.5627 0.0
C5910 C 0.66661 0.36704 0.57124 0.0
C5911 C 0.69702 0.36449 0.558 0.0
C5912 C 0.71135 0.35467 0.54696 0.0
C5913 C 0.67039 0.3839 0.57811 0.0
C5914 C 0.68779 0.39101 0.57509 0.0
C5915 C 0.70084 0.38131 0.56495 0.0
C5916 C 0.69318 0.40805 0.58309 0.0
C5917 C 0.65576 0.39402 0.58846 0.0
C5918 C 0.69859 0.42222 0.57167 0.0
C5919 C 0.70671 0.43709 0.57915 0.0
C5920 C 0.70977 0.43782 0.59812 0.0
C5921 C 0.70322 0.42419 0.60962 0.0
C5922 C 0.695 0.4094 0.60216 0.0
H5923 H 0.642 0.38887 0.58569 0.0
H5924 H 0.6584 0.39258 0.60339 0.0
H5925 H 0.65582 0.40845 0.58478 0.0
H5926 H 0.69732 0.42138 0.55691 0.0
H5927 H 0.71176 0.44735 0.56996 0.0
H5928 H 0.45059 0.90871 0.27035 0.0
H5929 H 0.41875 0.91584 0.278 0.0
H5930 H 0.43049 0.90597 0.33534 0.0
H5931 H 0.46192 0.89775 0.32759 0.0
H5932 H 0.39911 0.89188 0.32663 0.0
H5933 H 0.40027 0.96141 0.29905 0.0
H5934 H 0.4053 0.9448 0.28229 0.0
H5935 H 0.42063 0.94763 0.30118 0.0
C5936 C 0.44631 0.90806 0.28455 0.0
C5937 C 0.45866 0.90273 0.29838 0.0
C5938 C 0.42817 0.91226 0.28894 0.0
C5939 C 0.42229 0.91174 0.30729 0.0
C5940 C 0.43471 0.90649 0.32109 0.0
H5941 H 0.3409 0.95286 0.37599 0.0
H5942 H 0.36469 0.93406 0.36211 0.0
C5943 C 0.45271 0.90197 0.31667 0.0
C5944 C 0.40333 0.91689 0.31238 0.0
H5945 H 0.37264 0.95183 0.3116 0.0
C5946 C 0.39327 0.90494 0.32322 0.0
C5947 C 0.39569 0.93393 0.30789 0.0
C5948 C 0.40607 0.94775 0.29711 0.0
C5949 C 0.37605 0.90982 0.33019 0.0
C5950 C 0.3687 0.92698 0.32607 0.0
C5951 C 0.37832 0.9386 0.31456 0.0
C5952 C 0.35221 0.93418 0.33526 0.0
C5953 C 0.36603 0.89679 0.34224 0.0
C5954 C 0.33704 0.93998 0.32487 0.0
C5955 C 0.32335 0.9506 0.33283 0.0
C5956 C 0.32489 0.95583 0.35115 0.0
C5957 C 0.3394 0.94897 0.36185 0.0
C5958 C 0.35295 0.93818 0.35396 0.0
H5959 H 0.37118 0.88289 0.34038 0.0
H5960 H 0.36799 0.90027 0.35682 0.0
H5961 H 0.35118 0.89748 0.33932 0.0
H5962 H 0.33635 0.93716 0.31038 0.0
H5963 H 0.31234 0.95582 0.32427 0.0
H5964 H 0.76176 0.58269 0.06991 0.0
H5965 H 0.77492 0.61089 0.05969 0.0
H5966 H 0.79915 0.61676 0.11302 0.0
H5967 H 0.78635 0.58843 0.12318 0.0
H5968 H 0.76961 0.64503 0.07432 0.0
H5969 H 0.84225 0.62246 0.07811 0.0
H5970 H 0.82376 0.60709 0.07882 0.0
H5971 H 0.82952 0.61926 0.09891 0.0
C5972 C 0.77006 0.58992 0.07936 0.0
C5973 C 0.77323 0.58336 0.09725 0.0
C5974 C 0.77746 0.60604 0.07356 0.0
C5975 C 0.78814 0.61577 0.08556 0.0
C5976 C 0.79122 0.60927 0.10347 0.0
H5977 H 0.85216 0.7097 0.06395 0.0
H5978 H 0.83358 0.6882 0.0806 0.0
C5979 C 0.78388 0.59313 0.10925 0.0
C5980 C 0.79603 0.63275 0.07929 0.0
H5981 H 0.83642 0.65278 0.07084 0.0
C5982 C 0.78421 0.64678 0.0736 0.0
C5983 C 0.81508 0.63497 0.07847 0.0
C5984 C 0.82843 0.62012 0.08374 0.0
C5985 C 0.79098 0.66299 0.06695 0.0
C5986 C 0.81002 0.66506 0.0658 0.0
C5987 C 0.82181 0.65118 0.0719 0.0
C5988 C 0.8182 0.68073 0.05679 0.0
C5989 C 0.77772 0.67772 0.06118 0.0
C5990 C 0.81526 0.68403 0.03802 0.0
C5991 C 0.82583 0.6963 0.02847 0.0
C5992 C 0.83959 0.70536 0.03753 0.0
C5993 C 0.8416 0.703 0.0566 0.0
C5994 C 0.83105 0.69067 0.06613 0.0
H5995 H 0.76431 0.67628 0.06805 0.0
H5996 H 0.78309 0.69102 0.06432 0.0
H5997 H 0.7755 0.67713 0.04615 0.0
H5998 H 0.80563 0.67628 0.03049 0.0
H5999 H 0.82393 0.6979 0.01379 0.0
H6000 H 0.53791 0.61252 0.32678 0.0
H6001 H 0.56658 0.60084 0.33947 0.0
H6002 H 0.5834 0.58357 0.28578 0.0
H6003 H 0.55445 0.5953 0.27285 0.0
H6004 H 0.58715 0.55737 0.31615 0.0
H6005 H 0.6178 0.62248 0.33105 0.0
H6006 H 0.59474 0.62018 0.33888 0.0
H6007 H 0.59956 0.62022 0.31473 0.0
C6008 C 0.54768 0.6062 0.31765 0.0
C6009 C 0.54402 0.60474 0.29885 0.0
C6010 C 0.56408 0.59968 0.32491 0.0
C6011 C 0.5771 0.59161 0.3135 0.0
C6012 C 0.57346 0.5899 0.29473 0.0
H6013 H 0.68659 0.55669 0.34013 0.0
H6014 H 0.6596 0.57249 0.32794 0.0
C6015 C 0.557 0.59653 0.28739 0.0
C6016 C 0.59421 0.58444 0.32154 0.0
H6017 H 0.63215 0.59661 0.34463 0.0
C6018 C 0.59707 0.56591 0.32228 0.0
C6019 C 0.60704 0.59572 0.32943 0.0
C6020 C 0.60478 0.61577 0.32839 0.0
C6021 C 0.61237 0.55827 0.33112 0.0
C6022 C 0.6249 0.56953 0.33956 0.0
C6023 C 0.62227 0.58808 0.33842 0.0
C6024 C 0.64139 0.56216 0.34867 0.0
C6025 C 0.61511 0.53825 0.33127 0.0
C6026 C 0.6401 0.55177 0.36481 0.0
C6027 C 0.65554 0.54283 0.3719 0.0
C6028 C 0.67233 0.54415 0.36281 0.0
C6029 C 0.67376 0.55544 0.34734 0.0
C6030 C 0.65839 0.56446 0.34036 0.0
H6031 H 0.60602 0.53177 0.32138 0.0
H6032 H 0.62947 0.53455 0.32791 0.0
H6033 H 0.61213 0.53286 0.3452 0.0
H6034 H 0.62704 0.55003 0.37146 0.0
H6035 H 0.65413 0.53413 0.38381 0.0
H6036 H 0.3367 0.81451 0.96485 0.0
H6037 H 0.32166 0.83912 0.94789 0.0
H6038 H 0.35086 0.82427 0.89886 0.0
H6039 H 0.36601 0.79958 0.91571 0.0
H6040 H 0.35208 0.8619 0.90908 0.0
H6041 H 0.28211 0.83557 0.90697 0.0
H6042 H 0.29265 0.83458 0.92921 0.0
H6043 H 0.30206 0.82144 0.91096 0.0
C6044 C 0.33974 0.81633 0.95041 0.0
C6045 C 0.35238 0.80504 0.94155 0.0
C6046 C 0.33114 0.83036 0.94075 0.0
C6047 C 0.33509 0.83334 0.92215 0.0
C6048 C 0.34759 0.82204 0.9132 0.0
H6049 H 0.26973 0.90919 0.85803 0.0
H6050 H 0.28972 0.88376 0.86619 0.0
C6051 C 0.35609 0.80789 0.92281 0.0
C6052 C 0.32655 0.84867 0.9123 0.0
H6053 H 0.28522 0.86635 0.89957 0.0
C6054 C 0.33749 0.86286 0.90677 0.0
C6055 C 0.30758 0.84968 0.9092 0.0
C6056 C 0.29539 0.83445 0.91423 0.0
C6057 C 0.32977 0.87845 0.89882 0.0
C6058 C 0.31069 0.87979 0.89654 0.0
C6059 C 0.29987 0.86529 0.90144 0.0
C6060 C 0.30135 0.89627 0.8898 0.0
C6061 C 0.34203 0.89337 0.89304 0.0
C6062 C 0.30167 0.91187 0.90013 0.0
C6063 C 0.29027 0.92645 0.89547 0.0
C6064 C 0.27834 0.92548 0.88053 0.0
C6065 C 0.27877 0.91022 0.86966 0.0
C6066 C 0.29017 0.89571 0.87428 0.0
H6067 H 0.35632 0.88851 0.89107 0.0
H6068 H 0.33715 0.8999 0.88011 0.0
H6069 H 0.34198 0.90356 0.90389 0.0
H6070 H 0.30997 0.91242 0.91236 0.0
H6071 H 0.2901 0.93807 0.90409 0.0
H6072 H 0.35237 0.9703 0.13604 0.0
H6073 H 0.38241 0.97849 0.14715 0.0
H6074 H 0.36503 0.03386 0.14699 0.0
H6075 H 0.33482 0.0257 0.13612 0.0
H6076 H 0.40827 0.00091 0.13216 0.0
H6077 H 0.38366 0.02525 0.19932 0.0
H6078 H 0.3698 0.01222 0.18447 0.0
H6079 H 0.37198 0.03577 0.18026 0.0
C6080 C 0.35499 0.98423 0.1383 0.0
C6081 C 0.3413 0.9974 0.13528 0.0
C6082 C 0.37214 0.98887 0.14465 0.0
C6083 C 0.37585 0.00673 0.14816 0.0
C6084 C 0.36232 0.01995 0.14471 0.0
H6085 H 0.47095 0.06623 0.15776 0.0
H6086 H 0.44736 0.04678 0.14693 0.0
C6087 C 0.34513 0.01531 0.1384 0.0
C6088 C 0.39385 0.01157 0.15545 0.0
H6089 H 0.41382 0.03315 0.19059 0.0
C6090 C 0.40954 0.00779 0.14503 0.0
C6091 C 0.39555 0.02011 0.17247 0.0
C6092 C 0.37938 0.02342 0.18488 0.0
C6093 C 0.42678 0.0132 0.15073 0.0
C6094 C 0.42827 0.02287 0.16711 0.0
C6095 C 0.4127 0.02581 0.17797 0.0
C6096 C 0.44529 0.03169 0.17242 0.0
C6097 C 0.44317 0.00863 0.13906 0.0
C6098 C 0.45235 0.02945 0.19024 0.0
C6099 C 0.46582 0.0407 0.19652 0.0
C6100 C 0.47228 0.05443 0.18509 0.0
C6101 C 0.46626 0.05571 0.16684 0.0
C6102 C 0.45281 0.04451 0.16059 0.0
H6103 H 0.44109 0.99622 0.13132 0.0
H6104 H 0.44528 0.01958 0.1289 0.0
H6105 H 0.45569 0.00689 0.14749 0.0
H6106 H 0.44671 0.01967 0.19962 0.0
H6107 H 0.47019 0.03947 0.21068 0.0
H6108 H 0.19448 0.94631 0.64696 0.0
H6109 H 0.16974 0.92746 0.65846 0.0
H6110 H 0.13275 0.97308 0.65678 0.0
H6111 H 0.15697 0.99163 0.64511 0.0
H6112 H 0.14911 0.93024 0.68973 0.0
H6113 H 0.10408 0.93688 0.62942 0.0
H6114 H 0.1277 0.94301 0.62864 0.0
H6115 H 0.11051 0.9584 0.63706 0.0
C6116 C 0.18101 0.95219 0.64896 0.0
C6117 C 0.17758 0.97036 0.64501 0.0
C6118 C 0.16692 0.94145 0.65549 0.0
C6119 C 0.14928 0.94878 0.65802 0.0
C6120 C 0.14606 0.96699 0.65438 0.0
H6121 H 0.06343 0.92515 0.73199 0.0
H6122 H 0.09062 0.93473 0.71559 0.0
C6123 C 0.16 0.97762 0.64784 0.0
C6124 C 0.13421 0.93792 0.66531 0.0
H6125 H 0.08924 0.92989 0.65832 0.0
C6126 C 0.13611 0.92985 0.68272 0.0
C6127 C 0.11735 0.93705 0.65602 0.0
C6128 C 0.11485 0.94413 0.63666 0.0
C6129 C 0.12125 0.92201 0.69161 0.0
C6130 C 0.10394 0.92273 0.68303 0.0
C6131 C 0.10238 0.92968 0.66509 0.0
C6132 C 0.08715 0.91713 0.69271 0.0
C6133 C 0.12424 0.9132 0.71016 0.0
C6134 C 0.07559 0.90475 0.68485 0.0
C6135 C 0.05977 0.89958 0.69401 0.0
C6136 C 0.05527 0.90666 0.71121 0.0
C6137 C 0.06661 0.91937 0.71882 0.0
C6138 C 0.08228 0.9247 0.70956 0.0
H6139 H 0.13856 0.90825 0.71174 0.0
H6140 H 0.12155 0.92312 0.72101 0.0
H6141 H 0.11503 0.90185 0.71236 0.0
H6142 H 0.07898 0.89887 0.67178 0.0
H6143 H 0.0514 0.88961 0.68789 0.0
loop_
_geom_bond_atom_site_label_1
_geom_bond_atom_site_label_2
_geom_bond_distance
_geom_bond_site_symmetry_2
_ccdc_geom_bond_type
Dy0 O4 2.398 1_455 S
Dy0 O5 2.491 . S
Dy0 O6 2.403 . S
Dy0 O7 2.664 . S
Dy0 O11 2.326 . S
Dy0 O15 2.310 . S
Dy0 O16 2.351 . S
C1 O12 1.185 . S
C1 O13 1.355 . S
C2 O4 1.185 . S
C2 O5 1.355 1_655 S
Dy3 O7 2.310 . S
Dy3 O10 2.351 . S
Dy3 O12 2.398 . S
Dy3 O13 2.491 . S
Dy3 O14 2.403 . S
Dy3 O15 2.664 . S
Dy3 O17 2.326 . S
O4 Dy0 2.398 1_655 S
O4 C2 1.185 . S
O5 Dy0 2.491 . S
O5 C2 1.355 1_455 S
O6 Dy0 2.403 . S
O6 C8 1.254 . S
O7 Dy0 2.664 . S
O7 Dy3 2.310 . S
O7 C8 1.268 . S
C8 O6 1.254 . S
C8 O7 1.268 . S
C9 O14 1.254 . S
C9 O15 1.268 . S
O10 Dy3 2.351 . S
O10 C18 1.249 . S
O11 Dy0 2.326 . S
O11 C18 1.267 . S
O12 C1 1.185 . S
O12 Dy3 2.398 . S
O13 C1 1.355 . S
O13 Dy3 2.491 . S
O14 Dy3 2.403 . S
O14 C9 1.254 . S
O15 Dy0 2.310 . S
O15 Dy3 2.664 . S
O15 C9 1.268 . S
O16 Dy0 2.351 . S
O16 C19 1.249 . S
O17 Dy3 2.326 . S
O17 C19 1.267 . S
C18 O10 1.249 . S
C18 O11 1.267 . S
C19 O16 1.249 . S
C19 O17 1.267 . S
Dy20 O24 2.398 . S
Dy20 O25 2.491 . S
Dy20 O26 2.403 . S
Dy20 O27 2.664 . S
Dy20 O31 2.326 . S
Dy20 O35 2.310 . S
Dy20 O36 2.351 . S
C21 O32 1.185 . S
C21 O33 1.355 . S
C22 O24 1.185 . S
C22 O25 1.355 . S
Dy23 O27 2.310 . S
Dy23 O30 2.351 . S
Dy23 O32 2.398 . S
Dy23 O33 2.491 . S
Dy23 O34 2.403 . S
Dy23 O35 2.664 . S
Dy23 O37 2.326 . S
O24 Dy20 2.398 . S
O24 C22 1.185 . S
O25 Dy20 2.491 . S
O25 C22 1.355 . S
O26 Dy20 2.403 . S
O26 C28 1.254 . S
O27 Dy20 2.664 . S
O27 Dy23 2.310 . S
O27 C28 1.268 . S
C28 O26 1.254 . S
C28 O27 1.268 . S
C29 O34 1.254 . S
C29 O35 1.268 . S
O30 Dy23 2.351 . S
O30 C38 1.249 . S
O31 Dy20 2.326 . S
O31 C38 1.267 . S
O32 C21 1.185 . S
O32 Dy23 2.398 . S
O33 C21 1.355 . S
O33 Dy23 2.491 . S
O34 Dy23 2.403 . S
O34 C29 1.254 . S
O35 Dy20 2.310 . S
O35 Dy23 2.664 . S
O35 C29 1.268 . S
O36 Dy20 2.351 . S
O36 C39 1.249 . S
O37 Dy23 2.326 . S
O37 C39 1.267 . S
C38 O30 1.249 . S
C38 O31 1.267 . S
C39 O36 1.249 . S
C39 O37 1.267 . S
Dy40 O44 2.398 . S
Dy40 O45 2.491 . S
Dy40 O46 2.403 . S
Dy40 O47 2.664 . S
Dy40 O51 2.326 . S
Dy40 O55 2.310 . S
Dy40 O56 2.351 . S
C41 O52 1.185 . S
C41 O53 1.355 . S
C42 O44 1.185 . S
C42 O45 1.355 . S
Dy43 O47 2.310 . S
Dy43 O50 2.351 . S
Dy43 O52 2.398 . S
Dy43 O53 2.491 . S
Dy43 O54 2.403 . S
Dy43 O55 2.664 . S
Dy43 O57 2.326 . S
O44 Dy40 2.398 . S
O44 C42 1.185 . S
O45 Dy40 2.491 . S
O45 C42 1.355 . S
O46 Dy40 2.403 . S
O46 C48 1.254 . S
O47 Dy40 2.664 . S
O47 Dy43 2.310 . S
O47 C48 1.268 . S
C48 O46 1.254 . S
C48 O47 1.268 . S
C49 O54 1.254 . S
C49 O55 1.268 . S
O50 Dy43 2.351 . S
O50 C58 1.249 . S
O51 Dy40 2.326 . S
O51 C58 1.267 . S
O52 C41 1.185 . S
O52 Dy43 2.398 . S
O53 C41 1.355 . S
O53 Dy43 2.491 . S
O54 Dy43 2.403 . S
O54 C49 1.254 . S
O55 Dy40 2.310 . S
O55 Dy43 2.664 . S
O55 C49 1.268 . S
O56 Dy40 2.351 . S
O56 C59 1.249 . S
O57 Dy43 2.326 . S
O57 C59 1.267 . S
C58 O50 1.249 . S
C58 O51 1.267 . S
C59 O56 1.249 . S
C59 O57 1.267 . S
Dy60 O64 2.398 . S
Dy60 O65 2.491 . S
Dy60 O66 2.403 . S
Dy60 O67 2.664 . S
Dy60 O71 2.326 . S
Dy60 O75 2.310 . S
Dy60 O76 2.351 . S
C61 O72 1.185 . S
C61 O73 1.355 . S
C62 O64 1.185 . S
C62 O65 1.355 . S
Dy63 O67 2.310 . S
Dy63 O70 2.351 . S
Dy63 O72 2.398 . S
Dy63 O73 2.491 . S
Dy63 O74 2.403 . S
Dy63 O75 2.664 . S
Dy63 O77 2.326 . S
O64 Dy60 2.398 . S
O64 C62 1.185 . S
O65 Dy60 2.491 . S
O65 C62 1.355 . S
O66 Dy60 2.403 . S
O66 C68 1.254 . S
O67 Dy60 2.664 . S
O67 Dy63 2.310 . S
O67 C68 1.268 . S
C68 O66 1.254 . S
C68 O67 1.268 . S
C69 O74 1.254 . S
C69 O75 1.268 . S
O70 Dy63 2.351 . S
O70 C78 1.249 . S
O71 Dy60 2.326 . S
O71 C78 1.267 . S
O72 C61 1.185 . S
O72 Dy63 2.398 . S
O73 C61 1.355 . S
O73 Dy63 2.491 . S
O74 Dy63 2.403 . S
O74 C69 1.254 . S
O75 Dy60 2.310 . S
O75 Dy63 2.664 . S
O75 C69 1.268 . S
O76 Dy60 2.351 . S
O76 C79 1.249 . S
O77 Dy63 2.326 . S
O77 C79 1.267 . S
C78 O70 1.249 . S
C78 O71 1.267 . S
C79 O76 1.249 . S
C79 O77 1.267 . S
Dy80 O84 2.398 1_455 S
Dy80 O85 2.491 1_455 S
Dy80 O86 2.403 . S
Dy80 O87 2.664 . S
Dy80 O91 2.326 . S
Dy80 O95 2.310 . S
Dy80 O96 2.351 . S
C81 O92 1.185 . S
C81 O93 1.355 . S
C82 O84 1.185 . S
C82 O85 1.355 . S
Dy83 O87 2.310 . S
Dy83 O90 2.351 . S
Dy83 O92 2.398 . S
Dy83 O93 2.491 . S
Dy83 O94 2.403 . S
Dy83 O95 2.664 . S
Dy83 O97 2.326 . S
O84 Dy80 2.398 1_655 S
O84 C82 1.185 . S
O85 Dy80 2.491 1_655 S
O85 C82 1.355 . S
O86 Dy80 2.403 . S
O86 C88 1.254 . S
O87 Dy80 2.664 . S
O87 Dy83 2.310 . S
O87 C88 1.268 . S
C88 O86 1.254 . S
C88 O87 1.268 . S
C89 O94 1.254 . S
C89 O95 1.268 . S
O90 Dy83 2.351 . S
O90 C98 1.249 . S
O91 Dy80 2.326 . S
O91 C98 1.267 . S
O92 C81 1.185 . S
O92 Dy83 2.398 . S
O93 C81 1.355 . S
O93 Dy83 2.491 . S
O94 Dy83 2.403 . S
O94 C89 1.254 . S
O95 Dy80 2.310 . S
O95 Dy83 2.664 . S
O95 C89 1.268 . S
O96 Dy80 2.351 . S
O96 C99 1.249 . S
O97 Dy83 2.326 . S
O97 C99 1.267 . S
C98 O90 1.249 . S
C98 O91 1.267 . S
C99 O96 1.249 . S
C99 O97 1.267 . S
Dy100 O104 2.398 . S
Dy100 O105 2.491 . S
Dy100 O106 2.403 . S
Dy100 O107 2.664 . S
Dy100 O111 2.326 . S
Dy100 O115 2.310 . S
Dy100 O116 2.351 . S
C101 O112 1.185 . S
C101 O113 1.355 . S
C102 O104 1.185 . S
C102 O105 1.355 . S
Dy103 O107 2.310 . S
Dy103 O110 2.351 . S
Dy103 O112 2.398 . S
Dy103 O113 2.491 . S
Dy103 O114 2.403 . S
Dy103 O115 2.664 . S
Dy103 O117 2.326 . S
O104 Dy100 2.398 . S
O104 C102 1.185 . S
O105 Dy100 2.491 . S
O105 C102 1.355 . S
O106 Dy100 2.403 . S
O106 C108 1.254 . S
O107 Dy100 2.664 . S
O107 Dy103 2.310 . S
O107 C108 1.268 . S
C108 O106 1.254 . S
C108 O107 1.268 . S
C109 O114 1.254 . S
C109 O115 1.268 . S
O110 Dy103 2.351 . S
O110 C118 1.249 . S
O111 Dy100 2.326 . S
O111 C118 1.267 . S
O112 C101 1.185 . S
O112 Dy103 2.398 . S
O113 C101 1.355 . S
O113 Dy103 2.491 . S
O114 Dy103 2.403 . S
O114 C109 1.254 . S
O115 Dy100 2.310 . S
O115 Dy103 2.664 . S
O115 C109 1.268 . S
O116 Dy100 2.351 . S
O116 C119 1.249 . S
O117 Dy103 2.326 . S
O117 C119 1.267 . S
C118 O110 1.249 . S
C118 O111 1.267 . S
C119 O116 1.249 . S
C119 O117 1.267 . S
Dy120 O124 2.398 . S
Dy120 O125 2.491 . S
Dy120 O126 2.403 . S
Dy120 O127 2.664 . S
Dy120 O131 2.326 . S
Dy120 O135 2.310 . S
Dy120 O136 2.351 . S
C121 O132 1.185 . S
C121 O133 1.355 . S
C122 O124 1.185 . S
C122 O125 1.355 . S
Dy123 O127 2.310 . S
Dy123 O130 2.351 . S
Dy123 O132 2.398 . S
Dy123 O133 2.491 . S
Dy123 O134 2.403 . S
Dy123 O135 2.664 . S
Dy123 O137 2.326 . S
O124 Dy120 2.398 . S
O124 C122 1.185 . S
O125 Dy120 2.491 . S
O125 C122 1.355 . S
O126 Dy120 2.403 . S
O126 C128 1.254 . S
O127 Dy120 2.664 . S
O127 Dy123 2.310 . S
O127 C128 1.268 . S
C128 O126 1.254 . S
C128 O127 1.268 . S
C129 O134 1.254 . S
C129 O135 1.268 . S
O130 Dy123 2.351 . S
O130 C138 1.249 . S
O131 Dy120 2.326 . S
O131 C138 1.267 . S
O132 C121 1.185 . S
O132 Dy123 2.398 . S
O133 C121 1.355 . S
O133 Dy123 2.491 . S
O134 Dy123 2.403 . S
O134 C129 1.254 . S
O135 Dy120 2.310 . S
O135 Dy123 2.664 . S
O135 C129 1.268 . S
O136 Dy120 2.351 . S
O136 C139 1.249 . S
O137 Dy123 2.326 . S
O137 C139 1.267 . S
C138 O130 1.249 . S
C138 O131 1.267 . S
C139 O136 1.249 . S
C139 O137 1.267 . S
Dy140 O144 2.398 . S
Dy140 O145 2.491 . S
Dy140 O146 2.403 . S
Dy140 O147 2.664 . S
Dy140 O151 2.326 . S
Dy140 O155 2.310 . S
Dy140 O156 2.351 . S
C141 O152 1.185 . S
C141 O153 1.355 . S
C142 O144 1.185 . S
C142 O145 1.355 . S
Dy143 O147 2.310 . S
Dy143 O150 2.351 . S
Dy143 O152 2.398 1_556 S
Dy143 O153 2.491 1_556 S
Dy143 O154 2.403 1_556 S
Dy143 O155 2.664 . S
Dy143 O157 2.326 1_556 S
O144 Dy140 2.398 . S
O144 C142 1.185 . S
O145 Dy140 2.491 . S
O145 C142 1.355 . S
O146 Dy140 2.403 . S
O146 C148 1.254 . S
O147 Dy140 2.664 . S
O147 Dy143 2.310 . S
O147 C148 1.268 . S
C148 O146 1.254 . S
C148 O147 1.268 . S
C149 O154 1.254 1_556 S
C149 O155 1.268 . S
O150 Dy143 2.351 . S
O150 C158 1.249 . S
O151 Dy140 2.326 . S
O151 C158 1.267 . S
O152 C141 1.185 . S
O152 Dy143 2.398 1_554 S
O153 C141 1.355 . S
O153 Dy143 2.491 1_554 S
O154 Dy143 2.403 1_554 S
O154 C149 1.254 1_554 S
O155 Dy140 2.310 . S
O155 Dy143 2.664 . S
O155 C149 1.268 . S
O156 Dy140 2.351 . S
O156 C159 1.205 1_556 S
O157 Dy143 2.326 1_554 S
O157 C159 1.287 . S
C158 O150 1.249 . S
C158 O151 1.267 . S
C159 O156 1.205 1_554 S
C159 O157 1.287 . S
Dy160 O164 2.398 . S
Dy160 O165 2.491 . S
Dy160 O166 2.403 . S
Dy160 O167 2.664 . S
Dy160 O171 2.326 . S
Dy160 O175 2.310 . S
Dy160 O176 2.351 . S
C161 O172 1.185 . S
C161 O173 1.355 . S
C162 O164 1.185 . S
C162 O165 1.355 . S
Dy163 O167 2.310 . S
Dy163 O170 2.351 . S
Dy163 O172 2.398 . S
Dy163 O173 2.491 . S
Dy163 O174 2.403 . S
Dy163 O175 2.664 . S
Dy163 O177 2.326 . S
O164 Dy160 2.398 . S
O164 C162 1.185 . S
O165 Dy160 2.491 . S
O165 C162 1.355 . S
O166 Dy160 2.403 . S
O166 C168 1.254 . S
O167 Dy160 2.664 . S
O167 Dy163 2.310 . S
O167 C168 1.268 . S
C168 O166 1.254 . S
C168 O167 1.268 . S
C169 O174 1.254 . S
C169 O175 1.268 . S
O170 Dy163 2.351 . S
O170 C178 1.249 . S
O171 Dy160 2.326 . S
O171 C178 1.267 . S
O172 C161 1.185 . S
O172 Dy163 2.398 . S
O173 C161 1.355 . S
O173 Dy163 2.491 . S
O174 Dy163 2.403 . S
O174 C169 1.254 . S
O175 Dy160 2.310 . S
O175 Dy163 2.664 . S
O175 C169 1.268 . S
O176 Dy160 2.351 . S
O176 C179 1.249 . S
O177 Dy163 2.326 . S
O177 C179 1.267 . S
C178 O170 1.249 . S
C178 O171 1.267 . S
C179 O176 1.249 . S
C179 O177 1.267 . S
Dy180 O184 2.398 . S
Dy180 O185 2.491 . S
Dy180 O186 2.403 . S
Dy180 O187 2.664 . S
Dy180 O191 2.326 . S
Dy180 O195 2.310 . S
Dy180 O196 2.351 . S
C181 O192 1.185 . S
C181 O193 1.355 . S
C182 O184 1.185 . S
C182 O185 1.355 . S
Dy183 O187 2.310 . S
Dy183 O190 2.351 . S
Dy183 O192 2.398 . S
Dy183 O193 2.491 . S
Dy183 O194 2.403 . S
Dy183 O195 2.664 . S
Dy183 O197 2.326 . S
O184 Dy180 2.398 . S
O184 C182 1.185 . S
O185 Dy180 2.491 . S
O185 C182 1.355 . S
O186 Dy180 2.403 . S
O186 C188 1.254 . S
O187 Dy180 2.664 . S
O187 Dy183 2.310 . S
O187 C188 1.268 . S
C188 O186 1.254 . S
C188 O187 1.268 . S
C189 O194 1.254 . S
C189 O195 1.268 . S
O190 Dy183 2.351 . S
O190 C198 1.249 . S
O191 Dy180 2.326 . S
O191 C198 1.267 . S
O192 C181 1.185 . S
O192 Dy183 2.398 . S
O193 C181 1.355 . S
O193 Dy183 2.491 . S
O194 Dy183 2.403 . S
O194 C189 1.254 . S
O195 Dy180 2.310 . S
O195 Dy183 2.664 . S
O195 C189 1.268 . S
O196 Dy180 2.351 . S
O196 C199 1.249 . S
O197 Dy183 2.326 . S
O197 C199 1.267 . S
C198 O190 1.249 . S
C198 O191 1.267 . S
C199 O196 1.249 . S
C199 O197 1.267 . S
Dy200 O204 2.398 . S
Dy200 O205 2.491 . S
Dy200 O206 2.403 . S
Dy200 O207 2.664 . S
Dy200 O211 2.326 . S
Dy200 O215 2.310 . S
Dy200 O216 2.351 . S
C201 O212 1.185 . S
C201 O213 1.355 . S
C202 O204 1.185 . S
C202 O205 1.355 . S
Dy203 O207 2.310 . S
Dy203 O210 2.351 . S
Dy203 O212 2.398 1_565 S
Dy203 O213 2.491 1_565 S
Dy203 O214 2.403 1_565 S
Dy203 O215 2.664 . S
Dy203 O217 2.326 1_565 S
O204 Dy200 2.398 . S
O204 C202 1.185 . S
O205 Dy200 2.491 . S
O205 C202 1.355 . S
O206 Dy200 2.403 . S
O206 C208 1.254 . S
O207 Dy200 2.664 . S
O207 Dy203 2.310 . S
O207 C208 1.268 . S
C208 O206 1.254 . S
C208 O207 1.268 . S
C209 O214 1.232 1_565 S
C209 O215 1.295 . S
O210 Dy203 2.351 . S
O210 C218 1.249 . S
O211 Dy200 2.326 . S
O211 C218 1.267 . S
O212 C201 1.185 . S
O212 Dy203 2.398 1_545 S
O213 C201 1.355 . S
O213 Dy203 2.491 1_545 S
O214 Dy203 2.403 1_545 S
O214 C209 1.232 1_545 S
O215 Dy200 2.310 . S
O215 Dy203 2.664 . S
O215 C209 1.295 . S
O216 Dy200 2.351 . S
O216 C219 1.249 1_565 S
O217 Dy203 2.326 1_545 S
O217 C219 1.267 . S
C218 O210 1.249 . S
C218 O211 1.267 . S
C219 O216 1.249 1_545 S
C219 O217 1.267 . S
Dy220 O224 2.398 . S
Dy220 O225 2.491 . S
Dy220 O226 2.403 . S
Dy220 O227 2.664 . S
Dy220 O231 2.326 . S
Dy220 O235 2.310 . S
Dy220 O236 2.351 . S
C221 O232 1.185 . S
C221 O233 1.355 1_545 S
C222 O224 1.185 . S
C222 O225 1.355 . S
Dy223 O227 2.310 . S
Dy223 O230 2.351 . S
Dy223 O232 2.398 1_565 S
Dy223 O233 2.491 . S
Dy223 O234 2.403 . S
Dy223 O235 2.664 . S
Dy223 O237 2.326 . S
O224 Dy220 2.398 . S
O224 C222 1.185 . S
O225 Dy220 2.491 . S
O225 C222 1.355 . S
O226 Dy220 2.403 . S
O226 C228 1.254 . S
O227 Dy220 2.664 . S
O227 Dy223 2.310 . S
O227 C228 1.268 . S
C228 O226 1.254 . S
C228 O227 1.268 . S
C229 O234 1.254 . S
C229 O235 1.268 . S
O230 Dy223 2.351 . S
O230 C238 1.249 . S
O231 Dy220 2.326 . S
O231 C238 1.267 . S
O232 C221 1.185 . S
O232 Dy223 2.398 1_545 S
O233 C221 1.355 1_565 S
O233 Dy223 2.491 . S
O234 Dy223 2.403 . S
O234 C229 1.254 . S
O235 Dy220 2.310 . S
O235 Dy223 2.664 . S
O235 C229 1.268 . S
O236 Dy220 2.351 . S
O236 C239 1.249 . S
O237 Dy223 2.326 . S
O237 C239 1.267 . S
C238 O230 1.249 . S
C238 O231 1.267 . S
C239 O236 1.249 . S
C239 O237 1.267 . S
Dy240 O244 2.398 . S
Dy240 O245 2.491 . S
Dy240 O246 2.403 . S
Dy240 O247 2.664 . S
Dy240 O251 2.326 . S
Dy240 O255 2.310 . S
Dy240 O256 2.351 . S
C241 O252 1.184 1_554 S
C241 O253 1.371 . S
C242 O244 1.185 . S
C242 O245 1.355 . S
Dy243 O247 2.310 . S
Dy243 O250 2.351 . S
Dy243 O252 2.385 1_554 S
Dy243 O253 2.491 . S
Dy243 O254 2.403 . S
Dy243 O255 2.664 . S
Dy243 O257 2.326 . S
O244 Dy240 2.398 . S
O244 C242 1.185 . S
O245 Dy240 2.491 . S
O245 C242 1.355 . S
O246 Dy240 2.403 . S
O246 C248 1.254 . S
O247 Dy240 2.664 . S
O247 Dy243 2.310 . S
O247 C248 1.268 . S
C248 O246 1.254 . S
C248 O247 1.268 . S
C249 O254 1.254 . S
C249 O255 1.268 . S
O250 Dy243 2.351 . S
O250 C258 1.249 . S
O251 Dy240 2.326 . S
O251 C258 1.267 . S
O252 C241 1.184 1_556 S
O252 Dy243 2.385 1_556 S
O253 C241 1.371 . S
O253 Dy243 2.491 . S
O254 Dy243 2.403 . S
O254 C249 1.254 . S
O255 Dy240 2.310 . S
O255 Dy243 2.664 . S
O255 C249 1.268 . S
O256 Dy240 2.351 . S
O256 C259 1.249 . S
O257 Dy243 2.326 . S
O257 C259 1.267 . S
C258 O250 1.249 . S
C258 O251 1.267 . S
C259 O256 1.249 . S
C259 O257 1.267 . S
Dy260 O264 2.398 1_655 S
Dy260 O265 2.491 1_655 S
Dy260 O266 2.403 . S
Dy260 O267 2.664 . S
Dy260 O271 2.326 . S
Dy260 O275 2.310 . S
Dy260 O276 2.351 . S
C261 O272 1.185 . S
C261 O273 1.355 . S
C262 O264 1.185 . S
C262 O265 1.355 . S
Dy263 O267 2.310 . S
Dy263 O270 2.351 . S
Dy263 O272 2.398 . S
Dy263 O273 2.491 . S
Dy263 O274 2.403 . S
Dy263 O275 2.664 . S
Dy263 O277 2.326 . S
O264 Dy260 2.398 1_455 S
O264 C262 1.185 . S
O265 Dy260 2.491 1_455 S
O265 C262 1.355 . S
O266 Dy260 2.403 . S
O266 C268 1.254 . S
O267 Dy260 2.664 . S
O267 Dy263 2.310 . S
O267 C268 1.268 . S
C268 O266 1.254 . S
C268 O267 1.268 . S
C269 O274 1.254 . S
C269 O275 1.268 . S
O270 Dy263 2.351 . S
O270 C278 1.249 . S
O271 Dy260 2.326 . S
O271 C278 1.267 . S
O272 C261 1.185 . S
O272 Dy263 2.398 . S
O273 C261 1.355 . S
O273 Dy263 2.491 . S
O274 Dy263 2.403 . S
O274 C269 1.254 . S
O275 Dy260 2.310 . S
O275 Dy263 2.664 . S
O275 C269 1.268 . S
O276 Dy260 2.351 . S
O276 C279 1.249 . S
O277 Dy263 2.326 . S
O277 C279 1.267 . S
C278 O270 1.249 . S
C278 O271 1.267 . S
C279 O276 1.249 . S
C279 O277 1.267 . S
Dy280 O284 2.398 . S
Dy280 O285 2.491 . S
Dy280 O286 2.403 . S
Dy280 O287 2.664 . S
Dy280 O291 2.326 . S
Dy280 O295 2.310 . S
Dy280 O296 2.351 . S
C281 O292 1.185 . S
C281 O293 1.355 . S
C282 O284 1.185 . S
C282 O285 1.355 . S
Dy283 O287 2.310 . S
Dy283 O290 2.351 . S
Dy283 O292 2.398 . S
Dy283 O293 2.491 . S
Dy283 O294 2.403 . S
Dy283 O295 2.664 . S
Dy283 O297 2.326 . S
O284 Dy280 2.398 . S
O284 C282 1.185 . S
O285 Dy280 2.491 . S
O285 C282 1.355 . S
O286 Dy280 2.403 . S
O286 C288 1.254 . S
O287 Dy280 2.664 . S
O287 Dy283 2.310 . S
O287 C288 1.268 . S
C288 O286 1.254 . S
C288 O287 1.268 . S
C289 O294 1.254 . S
C289 O295 1.268 . S
O290 Dy283 2.351 . S
O290 C298 1.249 . S
O291 Dy280 2.326 . S
O291 C298 1.267 . S
O292 C281 1.185 . S
O292 Dy283 2.398 . S
O293 C281 1.355 . S
O293 Dy283 2.491 . S
O294 Dy283 2.403 . S
O294 C289 1.254 . S
O295 Dy280 2.310 . S
O295 Dy283 2.664 . S
O295 C289 1.268 . S
O296 Dy280 2.351 . S
O296 C299 1.249 . S
O297 Dy283 2.326 . S
O297 C299 1.267 . S
C298 O290 1.249 . S
C298 O291 1.267 . S
C299 O296 1.249 . S
C299 O297 1.267 . S
Dy300 O304 2.398 . S
Dy300 O305 2.491 . S
Dy300 O306 2.403 . S
Dy300 O307 2.664 . S
Dy300 O311 2.326 . S
Dy300 O315 2.310 . S
Dy300 O316 2.351 . S
C301 O312 1.185 . S
C301 O313 1.355 1_455 S
C302 O304 1.185 . S
C302 O305 1.355 . S
Dy303 O307 2.310 . S
Dy303 O310 2.351 . S
Dy303 O312 2.398 1_655 S
Dy303 O313 2.491 . S
Dy303 O314 2.403 . S
Dy303 O315 2.664 . S
Dy303 O317 2.326 . S
O304 Dy300 2.398 . S
O304 C302 1.185 . S
O305 Dy300 2.491 . S
O305 C302 1.355 . S
O306 Dy300 2.403 . S
O306 C308 1.254 . S
O307 Dy300 2.664 . S
O307 Dy303 2.310 . S
O307 C308 1.268 . S
C308 O306 1.254 . S
C308 O307 1.268 . S
C309 O314 1.254 . S
C309 O315 1.268 . S
O310 Dy303 2.351 . S
O310 C318 1.249 . S
O311 Dy300 2.326 . S
O311 C318 1.267 . S
O312 C301 1.185 . S
O312 Dy303 2.398 1_455 S
O313 C301 1.355 1_655 S
O313 Dy303 2.491 . S
O314 Dy303 2.403 . S
O314 C309 1.254 . S
O315 Dy300 2.310 . S
O315 Dy303 2.664 . S
O315 C309 1.268 . S
O316 Dy300 2.351 . S
O316 C319 1.249 . S
O317 Dy303 2.326 . S
O317 C319 1.267 . S
C318 O310 1.249 . S
C318 O311 1.267 . S
C319 O316 1.249 . S
C319 O317 1.267 . S
Dy320 O324 2.398 . S
Dy320 O325 2.491 . S
Dy320 O326 2.403 . S
Dy320 O327 2.664 . S
Dy320 O331 2.326 . S
Dy320 O335 2.310 . S
Dy320 O336 2.351 . S
C321 O332 1.185 . S
C321 O333 1.355 . S
C322 O324 1.185 . S
C322 O325 1.355 . S
Dy323 O327 2.310 . S
Dy323 O330 2.351 . S
Dy323 O332 2.398 . S
Dy323 O333 2.491 . S
Dy323 O334 2.403 . S
Dy323 O335 2.664 . S
Dy323 O337 2.326 . S
O324 Dy320 2.398 . S
O324 C322 1.185 . S
O325 Dy320 2.491 . S
O325 C322 1.355 . S
O326 Dy320 2.403 . S
O326 C328 1.254 . S
O327 Dy320 2.664 . S
O327 Dy323 2.310 . S
O327 C328 1.268 . S
C328 O326 1.254 . S
C328 O327 1.268 . S
C329 O334 1.254 . S
C329 O335 1.268 . S
O330 Dy323 2.351 . S
O330 C338 1.249 . S
O331 Dy320 2.326 . S
O331 C338 1.267 . S
O332 C321 1.185 . S
O332 Dy323 2.398 . S
O333 C321 1.355 . S
O333 Dy323 2.491 . S
O334 Dy323 2.403 . S
O334 C329 1.254 . S
O335 Dy320 2.310 . S
O335 Dy323 2.664 . S
O335 C329 1.268 . S
O336 Dy320 2.351 . S
O336 C339 1.249 . S
O337 Dy323 2.326 . S
O337 C339 1.267 . S
C338 O330 1.249 . S
C338 O331 1.267 . S
C339 O336 1.249 . S
C339 O337 1.267 . S
Dy340 O344 2.398 . S
Dy340 O345 2.491 . S
Dy340 O346 2.403 . S
Dy340 O347 2.664 . S
Dy340 O351 2.326 . S
Dy340 O355 2.310 . S
Dy340 O356 2.351 . S
C341 O352 1.185 . S
C341 O353 1.355 . S
C342 O344 1.185 . S
C342 O345 1.355 . S
Dy343 O347 2.310 . S
Dy343 O350 2.351 . S
Dy343 O352 2.398 . S
Dy343 O353 2.491 . S
Dy343 O354 2.403 . S
Dy343 O355 2.664 . S
Dy343 O357 2.326 . S
O344 Dy340 2.398 . S
O344 C342 1.185 . S
O345 Dy340 2.491 . S
O345 C342 1.355 . S
O346 Dy340 2.403 . S
O346 C348 1.254 . S
O347 Dy340 2.664 . S
O347 Dy343 2.310 . S
O347 C348 1.268 . S
C348 O346 1.254 . S
C348 O347 1.268 . S
C349 O354 1.254 . S
C349 O355 1.268 . S
O350 Dy343 2.351 . S
O350 C358 1.249 . S
O351 Dy340 2.326 . S
O351 C358 1.267 . S
O352 C341 1.185 . S
O352 Dy343 2.398 . S
O353 C341 1.355 . S
O353 Dy343 2.491 . S
O354 Dy343 2.403 . S
O354 C349 1.254 . S
O355 Dy340 2.310 . S
O355 Dy343 2.664 . S
O355 C349 1.268 . S
O356 Dy340 2.351 . S
O356 C359 1.249 . S
O357 Dy343 2.326 . S
O357 C359 1.267 . S
C358 O350 1.249 . S
C358 O351 1.267 . S
C359 O356 1.249 . S
C359 O357 1.267 . S
Dy360 O364 2.398 . S
Dy360 O365 2.491 . S
Dy360 O366 2.403 . S
Dy360 O367 2.664 . S
Dy360 O371 2.326 . S
Dy360 O375 2.310 . S
Dy360 O376 2.351 . S
C361 O372 1.185 . S
C361 O373 1.355 . S
C362 O364 1.185 . S
C362 O365 1.355 . S
Dy363 O367 2.310 . S
Dy363 O370 2.351 . S
Dy363 O372 2.398 . S
Dy363 O373 2.491 . S
Dy363 O374 2.403 . S
Dy363 O375 2.664 . S
Dy363 O377 2.326 . S
O364 Dy360 2.398 . S
O364 C362 1.185 . S
O365 Dy360 2.491 . S
O365 C362 1.355 . S
O366 Dy360 2.403 . S
O366 C368 1.254 . S
O367 Dy360 2.664 . S
O367 Dy363 2.310 . S
O367 C368 1.268 . S
C368 O366 1.254 . S
C368 O367 1.268 . S
C369 O374 1.254 . S
C369 O375 1.268 . S
O370 Dy363 2.351 . S
O370 C378 1.249 . S
O371 Dy360 2.326 . S
O371 C378 1.267 . S
O372 C361 1.185 . S
O372 Dy363 2.398 . S
O373 C361 1.355 . S
O373 Dy363 2.491 . S
O374 Dy363 2.403 . S
O374 C369 1.254 . S
O375 Dy360 2.310 . S
O375 Dy363 2.664 . S
O375 C369 1.268 . S
O376 Dy360 2.351 . S
O376 C379 1.249 . S
O377 Dy363 2.326 . S
O377 C379 1.267 . S
C378 O370 1.249 . S
C378 O371 1.267 . S
C379 O376 1.249 . S
C379 O377 1.267 . S
Dy380 O384 2.398 . S
Dy380 O385 2.491 . S
Dy380 O386 2.403 . S
Dy380 O387 2.664 . S
Dy380 O391 2.326 . S
Dy380 O395 2.310 . S
Dy380 O396 2.351 . S
C381 O392 1.185 . S
C381 O393 1.355 . S
C382 O384 1.185 . S
C382 O385 1.355 . S
Dy383 O387 2.310 . S
Dy383 O390 2.351 . S
Dy383 O392 2.398 1_655 S
Dy383 O393 2.491 1_655 S
Dy383 O394 2.403 . S
Dy383 O395 2.664 . S
Dy383 O397 2.326 . S
O384 Dy380 2.398 . S
O384 C382 1.185 . S
O385 Dy380 2.491 . S
O385 C382 1.355 . S
O386 Dy380 2.403 . S
O386 C388 1.254 . S
O387 Dy380 2.664 . S
O387 Dy383 2.310 . S
O387 C388 1.268 . S
C388 O386 1.254 . S
C388 O387 1.268 . S
C389 O394 1.254 . S
C389 O395 1.268 . S
O390 Dy383 2.351 . S
O390 C398 1.249 . S
O391 Dy380 2.326 . S
O391 C398 1.267 . S
O392 C381 1.185 . S
O392 Dy383 2.398 1_455 S
O393 C381 1.355 . S
O393 Dy383 2.491 1_455 S
O394 Dy383 2.403 . S
O394 C389 1.254 . S
O395 Dy380 2.310 . S
O395 Dy383 2.664 . S
O395 C389 1.268 . S
O396 Dy380 2.351 . S
O396 C399 1.249 . S
O397 Dy383 2.326 . S
O397 C399 1.267 . S
C398 O390 1.249 . S
C398 O391 1.267 . S
C399 O396 1.249 . S
C399 O397 1.267 . S
Dy400 O404 2.398 . S
Dy400 O405 2.491 . S
Dy400 O406 2.403 . S
Dy400 O407 2.664 . S
Dy400 O411 2.326 . S
Dy400 O415 2.310 . S
Dy400 O416 2.351 . S
C401 O412 1.185 . S
C401 O413 1.355 . S
C402 O404 1.185 . S
C402 O405 1.355 . S
Dy403 O407 2.310 . S
Dy403 O410 2.351 . S
Dy403 O412 2.398 . S
Dy403 O413 2.491 . S
Dy403 O414 2.403 . S
Dy403 O415 2.664 . S
Dy403 O417 2.326 . S
O404 Dy400 2.398 . S
O404 C402 1.185 . S
O405 Dy400 2.491 . S
O405 C402 1.355 . S
O406 Dy400 2.403 . S
O406 C408 1.254 . S
O407 Dy400 2.664 . S
O407 Dy403 2.310 . S
O407 C408 1.268 . S
C408 O406 1.254 . S
C408 O407 1.268 . S
C409 O414 1.254 . S
C409 O415 1.268 . S
O410 Dy403 2.351 . S
O410 C418 1.249 . S
O411 Dy400 2.326 . S
O411 C418 1.267 . S
O412 C401 1.185 . S
O412 Dy403 2.398 . S
O413 C401 1.355 . S
O413 Dy403 2.491 . S
O414 Dy403 2.403 . S
O414 C409 1.254 . S
O415 Dy400 2.310 . S
O415 Dy403 2.664 . S
O415 C409 1.268 . S
O416 Dy400 2.351 . S
O416 C419 1.249 . S
O417 Dy403 2.326 . S
O417 C419 1.267 . S
C418 O410 1.249 . S
C418 O411 1.267 . S
C419 O416 1.249 . S
C419 O417 1.267 . S
Dy420 O424 2.398 . S
Dy420 O425 2.491 . S
Dy420 O426 2.403 . S
Dy420 O427 2.664 . S
Dy420 O431 2.326 . S
Dy420 O435 2.310 . S
Dy420 O436 2.351 . S
C421 O432 1.185 . S
C421 O433 1.355 . S
C422 O424 1.185 . S
C422 O425 1.355 . S
Dy423 O427 2.310 . S
Dy423 O430 2.351 . S
Dy423 O432 2.398 . S
Dy423 O433 2.491 . S
Dy423 O434 2.403 . S
Dy423 O435 2.664 . S
Dy423 O437 2.326 . S
O424 Dy420 2.398 . S
O424 C422 1.185 . S
O425 Dy420 2.491 . S
O425 C422 1.355 . S
O426 Dy420 2.403 . S
O426 C428 1.254 . S
O427 Dy420 2.664 . S
O427 Dy423 2.310 . S
O427 C428 1.268 . S
C428 O426 1.254 . S
C428 O427 1.268 . S
C429 O434 1.254 . S
C429 O435 1.268 . S
O430 Dy423 2.351 . S
O430 C438 1.249 . S
O431 Dy420 2.326 . S
O431 C438 1.267 . S
O432 C421 1.185 . S
O432 Dy423 2.398 . S
O433 C421 1.355 . S
O433 Dy423 2.491 . S
O434 Dy423 2.403 . S
O434 C429 1.254 . S
O435 Dy420 2.310 . S
O435 Dy423 2.664 . S
O435 C429 1.268 . S
O436 Dy420 2.351 . S
O436 C439 1.249 . S
O437 Dy423 2.326 . S
O437 C439 1.267 . S
C438 O430 1.249 . S
C438 O431 1.267 . S
C439 O436 1.249 . S
C439 O437 1.267 . S
Dy440 O444 2.398 1_554 S
Dy440 O445 2.491 1_554 S
Dy440 O446 2.403 1_554 S
Dy440 O447 2.664 . S
Dy440 O451 2.326 1_554 S
Dy440 O455 2.310 . S
Dy440 O456 2.351 . S
C441 O452 1.185 . S
C441 O453 1.355 . S
C442 O444 1.185 . S
C442 O445 1.355 . S
Dy443 O447 2.310 . S
Dy443 O450 2.351 . S
Dy443 O452 2.398 . S
Dy443 O453 2.491 . S
Dy443 O454 2.403 . S
Dy443 O455 2.664 . S
Dy443 O457 2.326 . S
O444 Dy440 2.398 1_556 S
O444 C442 1.185 . S
O445 Dy440 2.491 1_556 S
O445 C442 1.355 . S
O446 Dy440 2.403 1_556 S
O446 C448 1.254 1_556 S
O447 Dy440 2.664 . S
O447 Dy443 2.310 . S
O447 C448 1.268 . S
C448 O446 1.254 1_554 S
C448 O447 1.268 . S
C449 O454 1.254 . S
C449 O455 1.268 . S
O450 Dy443 2.351 . S
O450 C458 1.205 1_554 S
O451 Dy440 2.326 1_556 S
O451 C458 1.287 . S
O452 C441 1.185 . S
O452 Dy443 2.398 . S
O453 C441 1.355 . S
O453 Dy443 2.491 . S
O454 Dy443 2.403 . S
O454 C449 1.254 . S
O455 Dy440 2.310 . S
O455 Dy443 2.664 . S
O455 C449 1.268 . S
O456 Dy440 2.351 . S
O456 C459 1.249 . S
O457 Dy443 2.326 . S
O457 C459 1.267 . S
C458 O450 1.205 1_556 S
C458 O451 1.287 . S
C459 O456 1.249 . S
C459 O457 1.267 . S
Dy460 O464 2.398 . S
Dy460 O465 2.491 . S
Dy460 O466 2.403 . S
Dy460 O467 2.664 . S
Dy460 O471 2.326 . S
Dy460 O475 2.310 . S
Dy460 O476 2.351 . S
C461 O472 1.185 . S
C461 O473 1.355 . S
C462 O464 1.185 . S
C462 O465 1.355 . S
Dy463 O467 2.310 . S
Dy463 O470 2.351 . S
Dy463 O472 2.398 . S
Dy463 O473 2.491 . S
Dy463 O474 2.403 . S
Dy463 O475 2.664 . S
Dy463 O477 2.326 . S
O464 Dy460 2.398 . S
O464 C462 1.185 . S
O465 Dy460 2.491 . S
O465 C462 1.355 . S
O466 Dy460 2.403 . S
O466 C468 1.254 . S
O467 Dy460 2.664 . S
O467 Dy463 2.310 . S
O467 C468 1.268 . S
C468 O466 1.254 . S
C468 O467 1.268 . S
C469 O474 1.254 . S
C469 O475 1.268 . S
O470 Dy463 2.351 . S
O470 C478 1.249 . S
O471 Dy460 2.326 . S
O471 C478 1.267 . S
O472 C461 1.185 . S
O472 Dy463 2.398 . S
O473 C461 1.355 . S
O473 Dy463 2.491 . S
O474 Dy463 2.403 . S
O474 C469 1.254 . S
O475 Dy460 2.310 . S
O475 Dy463 2.664 . S
O475 C469 1.268 . S
O476 Dy460 2.351 . S
O476 C479 1.249 . S
O477 Dy463 2.326 . S
O477 C479 1.267 . S
C478 O470 1.249 . S
C478 O471 1.267 . S
C479 O476 1.249 . S
C479 O477 1.267 . S
Dy480 O484 2.398 . S
Dy480 O485 2.491 . S
Dy480 O486 2.403 . S
Dy480 O487 2.664 . S
Dy480 O491 2.326 . S
Dy480 O495 2.310 . S
Dy480 O496 2.351 . S
C481 O492 1.185 . S
C481 O493 1.355 . S
C482 O484 1.185 . S
C482 O485 1.355 . S
Dy483 O487 2.310 . S
Dy483 O490 2.351 . S
Dy483 O492 2.398 . S
Dy483 O493 2.491 . S
Dy483 O494 2.403 . S
Dy483 O495 2.664 . S
Dy483 O497 2.326 . S
O484 Dy480 2.398 . S
O484 C482 1.185 . S
O485 Dy480 2.491 . S
O485 C482 1.355 . S
O486 Dy480 2.403 . S
O486 C488 1.254 . S
O487 Dy480 2.664 . S
O487 Dy483 2.310 . S
O487 C488 1.268 . S
C488 O486 1.254 . S
C488 O487 1.268 . S
C489 O494 1.254 . S
C489 O495 1.268 . S
O490 Dy483 2.351 . S
O490 C498 1.249 . S
O491 Dy480 2.326 . S
O491 C498 1.267 . S
O492 C481 1.185 . S
O492 Dy483 2.398 . S
O493 C481 1.355 . S
O493 Dy483 2.491 . S
O494 Dy483 2.403 . S
O494 C489 1.254 . S
O495 Dy480 2.310 . S
O495 Dy483 2.664 . S
O495 C489 1.268 . S
O496 Dy480 2.351 . S
O496 C499 1.249 . S
O497 Dy483 2.326 . S
O497 C499 1.267 . S
C498 O490 1.249 . S
C498 O491 1.267 . S
C499 O496 1.249 . S
C499 O497 1.267 . S
Dy500 O504 2.398 1_545 S
Dy500 O505 2.491 1_545 S
Dy500 O506 2.403 1_545 S
Dy500 O507 2.664 . S
Dy500 O511 2.326 1_545 S
Dy500 O515 2.310 . S
Dy500 O516 2.351 . S
C501 O512 1.185 . S
C501 O513 1.355 . S
C502 O504 1.185 . S
C502 O505 1.355 . S
Dy503 O507 2.310 . S
Dy503 O510 2.351 . S
Dy503 O512 2.398 . S
Dy503 O513 2.491 . S
Dy503 O514 2.403 . S
Dy503 O515 2.664 . S
Dy503 O517 2.326 . S
O504 Dy500 2.398 1_565 S
O504 C502 1.185 . S
O505 Dy500 2.491 1_565 S
O505 C502 1.355 . S
O506 Dy500 2.403 1_565 S
O506 C508 1.232 1_565 S
O507 Dy500 2.664 . S
O507 Dy503 2.310 . S
O507 C508 1.295 . S
C508 O506 1.232 1_545 S
C508 O507 1.295 . S
C509 O514 1.254 . S
C509 O515 1.268 . S
O510 Dy503 2.351 . S
O510 C518 1.249 1_545 S
O511 Dy500 2.326 1_565 S
O511 C518 1.267 . S
O512 C501 1.185 . S
O512 Dy503 2.398 . S
O513 C501 1.355 . S
O513 Dy503 2.491 . S
O514 Dy503 2.403 . S
O514 C509 1.254 . S
O515 Dy500 2.310 . S
O515 Dy503 2.664 . S
O515 C509 1.268 . S
O516 Dy500 2.351 . S
O516 C519 1.249 . S
O517 Dy503 2.326 . S
O517 C519 1.267 . S
C518 O510 1.249 1_565 S
C518 O511 1.267 . S
C519 O516 1.249 . S
C519 O517 1.267 . S
Dy520 O524 2.398 1_545 S
Dy520 O525 2.491 . S
Dy520 O526 2.403 . S
Dy520 O527 2.664 . S
Dy520 O531 2.326 . S
Dy520 O535 2.310 . S
Dy520 O536 2.351 . S
C521 O532 1.185 . S
C521 O533 1.355 . S
C522 O524 1.185 . S
C522 O525 1.355 1_565 S
Dy523 O527 2.310 . S
Dy523 O530 2.351 . S
Dy523 O532 2.398 . S
Dy523 O533 2.491 . S
Dy523 O534 2.403 . S
Dy523 O535 2.664 . S
Dy523 O537 2.326 . S
O524 Dy520 2.398 1_565 S
O524 C522 1.185 . S
O525 Dy520 2.491 . S
O525 C522 1.355 1_545 S
O526 Dy520 2.403 . S
O526 C528 1.254 . S
O527 Dy520 2.664 . S
O527 Dy523 2.310 . S
O527 C528 1.268 . S
C528 O526 1.254 . S
C528 O527 1.268 . S
C529 O534 1.254 . S
C529 O535 1.268 . S
O530 Dy523 2.351 . S
O530 C538 1.249 . S
O531 Dy520 2.326 . S
O531 C538 1.267 . S
O532 C521 1.185 . S
O532 Dy523 2.398 . S
O533 C521 1.355 . S
O533 Dy523 2.491 . S
O534 Dy523 2.403 . S
O534 C529 1.254 . S
O535 Dy520 2.310 . S
O535 Dy523 2.664 . S
O535 C529 1.268 . S
O536 Dy520 2.351 . S
O536 C539 1.249 . S
O537 Dy523 2.326 . S
O537 C539 1.267 . S
C538 O530 1.249 . S
C538 O531 1.267 . S
C539 O536 1.249 . S
C539 O537 1.267 . S
Dy540 O544 2.385 1_556 S
Dy540 O545 2.491 . S
Dy540 O546 2.403 . S
Dy540 O547 2.664 . S
Dy540 O551 2.326 . S
Dy540 O555 2.310 . S
Dy540 O556 2.351 . S
C541 O552 1.185 . S
C541 O553 1.355 . S
C542 O544 1.184 1_556 S
C542 O545 1.371 . S
Dy543 O547 2.310 . S
Dy543 O550 2.351 . S
Dy543 O552 2.398 . S
Dy543 O553 2.491 . S
Dy543 O554 2.403 . S
Dy543 O555 2.664 . S
Dy543 O557 2.326 . S
O544 Dy540 2.385 1_554 S
O544 C542 1.184 1_554 S
O545 Dy540 2.491 . S
O545 C542 1.371 . S
O546 Dy540 2.403 . S
O546 C548 1.254 . S
O547 Dy540 2.664 . S
O547 Dy543 2.310 . S
O547 C548 1.268 . S
C548 O546 1.254 . S
C548 O547 1.268 . S
C549 O554 1.254 . S
C549 O555 1.268 . S
O550 Dy543 2.351 . S
O550 C558 1.249 . S
O551 Dy540 2.326 . S
O551 C558 1.267 . S
O552 C541 1.185 . S
O552 Dy543 2.398 . S
O553 C541 1.355 . S
O553 Dy543 2.491 . S
O554 Dy543 2.403 . S
O554 C549 1.254 . S
O555 Dy540 2.310 . S
O555 Dy543 2.664 . S
O555 C549 1.268 . S
O556 Dy540 2.351 . S
O556 C559 1.249 . S
O557 Dy543 2.326 . S
O557 C559 1.267 . S
C558 O550 1.249 . S
C558 O551 1.267 . S
C559 O556 1.249 . S
C559 O557 1.267 . S
Dy560 O564 2.398 . S
Dy560 O565 2.491 . S
Dy560 O566 2.403 . S
Dy560 O567 2.664 . S
Dy560 O571 2.326 . S
Dy560 O575 2.310 . S
Dy560 O576 2.351 . S
C561 O572 1.185 . S
C561 O573 1.355 . S
C562 O564 1.185 . S
C562 O565 1.355 . S
Dy563 O567 2.310 . S
Dy563 O570 2.351 . S
Dy563 O572 2.398 1_455 S
Dy563 O573 2.491 1_455 S
Dy563 O574 2.403 . S
Dy563 O575 2.664 . S
Dy563 O577 2.326 . S
O564 Dy560 2.398 . S
O564 C562 1.185 . S
O565 Dy560 2.491 . S
O565 C562 1.355 . S
O566 Dy560 2.403 . S
O566 C568 1.254 . S
O567 Dy560 2.664 . S
O567 Dy563 2.310 . S
O567 C568 1.268 . S
C568 O566 1.254 . S
C568 O567 1.268 . S
C569 O574 1.254 . S
C569 O575 1.268 . S
O570 Dy563 2.351 . S
O570 C578 1.249 . S
O571 Dy560 2.326 . S
O571 C578 1.267 . S
O572 C561 1.185 . S
O572 Dy563 2.398 1_655 S
O573 C561 1.355 . S
O573 Dy563 2.491 1_655 S
O574 Dy563 2.403 . S
O574 C569 1.254 . S
O575 Dy560 2.310 . S
O575 Dy563 2.664 . S
O575 C569 1.268 . S
O576 Dy560 2.351 . S
O576 C579 1.249 . S
O577 Dy563 2.326 . S
O577 C579 1.267 . S
C578 O570 1.249 . S
C578 O571 1.267 . S
C579 O576 1.249 . S
C579 O577 1.267 . S
Dy580 O584 2.398 . S
Dy580 O585 2.491 . S
Dy580 O586 2.403 . S
Dy580 O587 2.664 . S
Dy580 O591 2.326 . S
Dy580 O595 2.310 . S
Dy580 O596 2.351 . S
C581 O592 1.185 . S
C581 O593 1.355 . S
C582 O584 1.185 . S
C582 O585 1.355 . S
Dy583 O587 2.310 . S
Dy583 O590 2.351 . S
Dy583 O592 2.398 . S
Dy583 O593 2.491 . S
Dy583 O594 2.403 . S
Dy583 O595 2.664 . S
Dy583 O597 2.326 . S
O584 Dy580 2.398 . S
O584 C582 1.185 . S
O585 Dy580 2.491 . S
O585 C582 1.355 . S
O586 Dy580 2.403 . S
O586 C588 1.254 . S
O587 Dy580 2.664 . S
O587 Dy583 2.310 . S
O587 C588 1.268 . S
C588 O586 1.254 . S
C588 O587 1.268 . S
C589 O594 1.254 . S
C589 O595 1.268 . S
O590 Dy583 2.351 . S
O590 C598 1.249 . S
O591 Dy580 2.326 . S
O591 C598 1.267 . S
O592 C581 1.185 . S
O592 Dy583 2.398 . S
O593 C581 1.355 . S
O593 Dy583 2.491 . S
O594 Dy583 2.403 . S
O594 C589 1.254 . S
O595 Dy580 2.310 . S
O595 Dy583 2.664 . S
O595 C589 1.268 . S
O596 Dy580 2.351 . S
O596 C599 1.249 . S
O597 Dy583 2.326 . S
O597 C599 1.267 . S
C598 O590 1.249 . S
C598 O591 1.267 . S
C599 O596 1.249 . S
C599 O597 1.267 . S
Dy600 O604 2.398 . S
Dy600 O605 2.491 . S
Dy600 O606 2.403 . S
Dy600 O607 2.664 . S
Dy600 O611 2.326 . S
Dy600 O615 2.310 . S
Dy600 O616 2.351 . S
C601 O612 1.185 . S
C601 O613 1.355 . S
C602 O604 1.185 . S
C602 O605 1.355 . S
Dy603 O607 2.310 . S
Dy603 O610 2.351 . S
Dy603 O612 2.398 . S
Dy603 O613 2.491 . S
Dy603 O614 2.403 . S
Dy603 O615 2.664 . S
Dy603 O617 2.326 . S
O604 Dy600 2.398 . S
O604 C602 1.185 . S
O605 Dy600 2.491 . S
O605 C602 1.355 . S
O606 Dy600 2.403 . S
O606 C608 1.254 . S
O607 Dy600 2.664 . S
O607 Dy603 2.310 . S
O607 C608 1.268 . S
C608 O606 1.254 . S
C608 O607 1.268 . S
C609 O614 1.254 . S
C609 O615 1.268 . S
O610 Dy603 2.351 . S
O610 C618 1.249 . S
O611 Dy600 2.326 . S
O611 C618 1.267 . S
O612 C601 1.185 . S
O612 Dy603 2.398 . S
O613 C601 1.355 . S
O613 Dy603 2.491 . S
O614 Dy603 2.403 . S
O614 C609 1.254 . S
O615 Dy600 2.310 . S
O615 Dy603 2.664 . S
O615 C609 1.268 . S
O616 Dy600 2.351 . S
O616 C619 1.249 . S
O617 Dy603 2.326 . S
O617 C619 1.267 . S
C618 O610 1.249 . S
C618 O611 1.267 . S
C619 O616 1.249 . S
C619 O617 1.267 . S
Dy620 O624 2.398 . S
Dy620 O625 2.491 . S
Dy620 O626 2.403 . S
Dy620 O627 2.664 . S
Dy620 O631 2.326 . S
Dy620 O635 2.310 . S
Dy620 O636 2.351 . S
C621 O632 1.185 . S
C621 O633 1.355 1_455 S
C622 O624 1.185 . S
C622 O625 1.355 . S
Dy623 O627 2.310 . S
Dy623 O630 2.351 . S
Dy623 O632 2.398 1_655 S
Dy623 O633 2.491 . S
Dy623 O634 2.403 . S
Dy623 O635 2.664 . S
Dy623 O637 2.326 . S
O624 Dy620 2.398 . S
O624 C622 1.185 . S
O625 Dy620 2.491 . S
O625 C622 1.355 . S
O626 Dy620 2.403 . S
O626 C628 1.254 . S
O627 Dy620 2.664 . S
O627 Dy623 2.310 . S
O627 C628 1.268 . S
C628 O626 1.254 . S
C628 O627 1.268 . S
C629 O634 1.254 . S
C629 O635 1.268 . S
O630 Dy623 2.351 . S
O630 C638 1.249 . S
O631 Dy620 2.326 . S
O631 C638 1.267 . S
O632 C621 1.185 . S
O632 Dy623 2.398 1_455 S
O633 C621 1.355 1_655 S
O633 Dy623 2.491 . S
O634 Dy623 2.403 . S
O634 C629 1.254 . S
O635 Dy620 2.310 . S
O635 Dy623 2.664 . S
O635 C629 1.268 . S
O636 Dy620 2.351 . S
O636 C639 1.249 . S
O637 Dy623 2.326 . S
O637 C639 1.267 . S
C638 O630 1.249 . S
C638 O631 1.267 . S
C639 O636 1.249 . S
C639 O637 1.267 . S
Dy640 O644 2.398 . S
Dy640 O645 2.491 . S
Dy640 O646 2.403 . S
Dy640 O647 2.664 . S
Dy640 O651 2.326 . S
Dy640 O655 2.310 . S
Dy640 O656 2.351 . S
C641 O652 1.185 . S
C641 O653 1.355 . S
C642 O644 1.185 . S
C642 O645 1.355 . S
Dy643 O647 2.310 . S
Dy643 O650 2.351 . S
Dy643 O652 2.398 . S
Dy643 O653 2.491 . S
Dy643 O654 2.403 . S
Dy643 O655 2.664 . S
Dy643 O657 2.326 . S
O644 Dy640 2.398 . S
O644 C642 1.185 . S
O645 Dy640 2.491 . S
O645 C642 1.355 . S
O646 Dy640 2.403 . S
O646 C648 1.254 . S
O647 Dy640 2.664 . S
O647 Dy643 2.310 . S
O647 C648 1.268 . S
C648 O646 1.254 . S
C648 O647 1.268 . S
C649 O654 1.254 . S
C649 O655 1.268 . S
O650 Dy643 2.351 . S
O650 C658 1.249 . S
O651 Dy640 2.326 . S
O651 C658 1.267 . S
O652 C641 1.185 . S
O652 Dy643 2.398 . S
O653 C641 1.355 . S
O653 Dy643 2.491 . S
O654 Dy643 2.403 . S
O654 C649 1.254 . S
O655 Dy640 2.310 . S
O655 Dy643 2.664 . S
O655 C649 1.268 . S
O656 Dy640 2.351 . S
O656 C659 1.249 . S
O657 Dy643 2.326 . S
O657 C659 1.267 . S
C658 O650 1.249 . S
C658 O651 1.267 . S
C659 O656 1.249 . S
C659 O657 1.267 . S
Dy660 O664 2.398 . S
Dy660 O665 2.491 . S
Dy660 O666 2.403 1_554 S
Dy660 O667 2.664 1_554 S
Dy660 O671 2.326 1_554 S
Dy660 O675 2.308 1_554 S
Dy660 O676 2.351 . S
C661 O672 1.185 . S
C661 O673 1.355 . S
C662 O664 1.185 . S
C662 O665 1.355 . S
Dy663 O667 2.310 . S
Dy663 O670 2.351 . S
Dy663 O672 2.398 . S
Dy663 O673 2.491 . S
Dy663 O674 2.403 . S
Dy663 O675 2.673 . S
Dy663 O677 2.326 . S
O664 Dy660 2.398 . S
O664 C662 1.185 . S
O665 Dy660 2.491 . S
O665 C662 1.355 . S
O666 Dy660 2.403 1_556 S
O666 C668 1.254 . S
O667 Dy660 2.664 1_556 S
O667 Dy663 2.310 . S
O667 C668 1.268 . S
C668 O666 1.254 . S
C668 O667 1.268 . S
C669 O674 1.254 1_554 S
C669 O675 1.267 1_554 S
O670 Dy663 2.351 . S
O670 C678 1.249 . S
O671 Dy660 2.326 1_556 S
O671 C678 1.267 . S
O672 C661 1.185 . S
O672 Dy663 2.398 . S
O673 C661 1.355 . S
O673 Dy663 2.491 . S
O674 Dy663 2.403 . S
O674 C669 1.254 1_556 S
O675 Dy660 2.308 1_556 S
O675 Dy663 2.673 . S
O675 C669 1.267 1_556 S
O676 Dy660 2.351 . S
O676 C679 1.249 1_554 S
O677 Dy663 2.326 . S
O677 C679 1.267 . S
C678 O670 1.249 . S
C678 O671 1.267 . S
C679 O676 1.249 1_556 S
C679 O677 1.267 . S
Dy680 O684 2.398 . S
Dy680 O685 2.491 . S
Dy680 O686 2.403 . S
Dy680 O687 2.664 . S
Dy680 O691 2.326 . S
Dy680 O695 2.310 . S
Dy680 O696 2.351 . S
C681 O692 1.185 . S
C681 O693 1.355 . S
C682 O684 1.185 . S
C682 O685 1.355 . S
Dy683 O687 2.310 . S
Dy683 O690 2.351 . S
Dy683 O692 2.398 . S
Dy683 O693 2.491 . S
Dy683 O694 2.403 . S
Dy683 O695 2.664 . S
Dy683 O697 2.326 . S
O684 Dy680 2.398 . S
O684 C682 1.185 . S
O685 Dy680 2.491 . S
O685 C682 1.355 . S
O686 Dy680 2.403 . S
O686 C688 1.254 . S
O687 Dy680 2.664 . S
O687 Dy683 2.310 . S
O687 C688 1.268 . S
C688 O686 1.254 . S
C688 O687 1.268 . S
C689 O694 1.254 . S
C689 O695 1.268 . S
O690 Dy683 2.351 . S
O690 C698 1.249 . S
O691 Dy680 2.326 . S
O691 C698 1.267 . S
O692 C681 1.185 . S
O692 Dy683 2.398 . S
O693 C681 1.355 . S
O693 Dy683 2.491 . S
O694 Dy683 2.403 . S
O694 C689 1.254 . S
O695 Dy680 2.310 . S
O695 Dy683 2.664 . S
O695 C689 1.268 . S
O696 Dy680 2.351 . S
O696 C699 1.249 . S
O697 Dy683 2.326 . S
O697 C699 1.267 . S
C698 O690 1.249 . S
C698 O691 1.267 . S
C699 O696 1.249 . S
C699 O697 1.267 . S
Dy700 O704 2.398 . S
Dy700 O705 2.491 . S
Dy700 O706 2.403 . S
Dy700 O707 2.664 . S
Dy700 O711 2.326 . S
Dy700 O715 2.310 . S
Dy700 O716 2.351 . S
C701 O712 1.185 . S
C701 O713 1.355 . S
C702 O704 1.185 . S
C702 O705 1.355 . S
Dy703 O707 2.310 . S
Dy703 O710 2.351 . S
Dy703 O712 2.398 . S
Dy703 O713 2.491 . S
Dy703 O714 2.403 . S
Dy703 O715 2.664 . S
Dy703 O717 2.326 . S
O704 Dy700 2.398 . S
O704 C702 1.185 . S
O705 Dy700 2.491 . S
O705 C702 1.355 . S
O706 Dy700 2.403 . S
O706 C708 1.254 . S
O707 Dy700 2.664 . S
O707 Dy703 2.310 . S
O707 C708 1.268 . S
C708 O706 1.254 . S
C708 O707 1.268 . S
C709 O714 1.254 . S
C709 O715 1.268 . S
O710 Dy703 2.351 . S
O710 C718 1.249 . S
O711 Dy700 2.326 . S
O711 C718 1.267 . S
O712 C701 1.185 . S
O712 Dy703 2.398 . S
O713 C701 1.355 . S
O713 Dy703 2.491 . S
O714 Dy703 2.403 . S
O714 C709 1.254 . S
O715 Dy700 2.310 . S
O715 Dy703 2.664 . S
O715 C709 1.268 . S
O716 Dy700 2.351 . S
O716 C719 1.249 . S
O717 Dy703 2.326 . S
O717 C719 1.267 . S
C718 O710 1.249 . S
C718 O711 1.267 . S
C719 O716 1.249 . S
C719 O717 1.267 . S
Dy720 O724 2.398 . S
Dy720 O725 2.491 . S
Dy720 O726 2.403 . S
Dy720 O727 2.664 . S
Dy720 O731 2.326 . S
Dy720 O735 2.310 . S
Dy720 O736 2.351 . S
C721 O732 1.185 . S
C721 O733 1.355 . S
C722 O724 1.185 . S
C722 O725 1.355 . S
Dy723 O727 2.310 . S
Dy723 O730 2.351 . S
Dy723 O732 2.398 . S
Dy723 O733 2.491 . S
Dy723 O734 2.403 . S
Dy723 O735 2.664 . S
Dy723 O737 2.326 . S
O724 Dy720 2.398 . S
O724 C722 1.185 . S
O725 Dy720 2.491 . S
O725 C722 1.355 . S
O726 Dy720 2.403 . S
O726 C728 1.254 . S
O727 Dy720 2.664 . S
O727 Dy723 2.310 . S
O727 C728 1.268 . S
C728 O726 1.254 . S
C728 O727 1.268 . S
C729 O734 1.254 . S
C729 O735 1.268 . S
O730 Dy723 2.351 . S
O730 C738 1.249 . S
O731 Dy720 2.326 . S
O731 C738 1.267 . S
O732 C721 1.185 . S
O732 Dy723 2.398 . S
O733 C721 1.355 . S
O733 Dy723 2.491 . S
O734 Dy723 2.403 . S
O734 C729 1.254 . S
O735 Dy720 2.310 . S
O735 Dy723 2.664 . S
O735 C729 1.268 . S
O736 Dy720 2.351 . S
O736 C739 1.249 . S
O737 Dy723 2.326 . S
O737 C739 1.267 . S
C738 O730 1.249 . S
C738 O731 1.267 . S
C739 O736 1.249 . S
C739 O737 1.267 . S
Dy740 O744 2.398 . S
Dy740 O745 2.491 . S
Dy740 O746 2.403 . S
Dy740 O747 2.664 . S
Dy740 O751 2.326 . S
Dy740 O755 2.310 . S
Dy740 O756 2.351 . S
C741 O752 1.185 . S
C741 O753 1.355 . S
C742 O744 1.185 . S
C742 O745 1.355 . S
Dy743 O747 2.310 . S
Dy743 O750 2.351 . S
Dy743 O752 2.398 . S
Dy743 O753 2.491 . S
Dy743 O754 2.403 . S
Dy743 O755 2.664 . S
Dy743 O757 2.326 . S
O744 Dy740 2.398 . S
O744 C742 1.185 . S
O745 Dy740 2.491 . S
O745 C742 1.355 . S
O746 Dy740 2.403 . S
O746 C748 1.254 . S
O747 Dy740 2.664 . S
O747 Dy743 2.310 . S
O747 C748 1.268 . S
C748 O746 1.254 . S
C748 O747 1.268 . S
C749 O754 1.254 . S
C749 O755 1.268 . S
O750 Dy743 2.351 . S
O750 C758 1.249 . S
O751 Dy740 2.326 . S
O751 C758 1.267 . S
O752 C741 1.185 . S
O752 Dy743 2.398 . S
O753 C741 1.355 . S
O753 Dy743 2.491 . S
O754 Dy743 2.403 . S
O754 C749 1.254 . S
O755 Dy740 2.310 . S
O755 Dy743 2.664 . S
O755 C749 1.268 . S
O756 Dy740 2.351 . S
O756 C759 1.249 . S
O757 Dy743 2.326 . S
O757 C759 1.267 . S
C758 O750 1.249 . S
C758 O751 1.267 . S
C759 O756 1.249 . S
C759 O757 1.267 . S
Dy760 O764 2.398 . S
Dy760 O765 2.491 . S
Dy760 O766 2.403 . S
Dy760 O767 2.664 . S
Dy760 O771 2.326 . S
Dy760 O775 2.310 . S
Dy760 O776 2.351 . S
C761 O772 1.185 . S
C761 O773 1.355 . S
C762 O764 1.185 . S
C762 O765 1.355 . S
Dy763 O767 2.310 . S
Dy763 O770 2.351 . S
Dy763 O772 2.398 . S
Dy763 O773 2.491 . S
Dy763 O774 2.403 . S
Dy763 O775 2.664 . S
Dy763 O777 2.326 . S
O764 Dy760 2.398 . S
O764 C762 1.185 . S
O765 Dy760 2.491 . S
O765 C762 1.355 . S
O766 Dy760 2.403 . S
O766 C768 1.254 . S
O767 Dy760 2.664 . S
O767 Dy763 2.310 . S
O767 C768 1.268 . S
C768 O766 1.254 . S
C768 O767 1.268 . S
C769 O774 1.254 . S
C769 O775 1.268 . S
O770 Dy763 2.351 . S
O770 C778 1.249 . S
O771 Dy760 2.326 . S
O771 C778 1.267 . S
O772 C761 1.185 . S
O772 Dy763 2.398 . S
O773 C761 1.355 . S
O773 Dy763 2.491 . S
O774 Dy763 2.403 . S
O774 C769 1.254 . S
O775 Dy760 2.310 . S
O775 Dy763 2.664 . S
O775 C769 1.268 . S
O776 Dy760 2.351 . S
O776 C779 1.249 . S
O777 Dy763 2.326 . S
O777 C779 1.267 . S
C778 O770 1.249 . S
C778 O771 1.267 . S
C779 O776 1.249 . S
C779 O777 1.267 . S
Dy780 O784 2.398 . S
Dy780 O785 2.491 . S
Dy780 O786 2.403 . S
Dy780 O787 2.664 . S
Dy780 O791 2.326 . S
Dy780 O795 2.310 . S
Dy780 O796 2.351 . S
C781 O792 1.185 . S
C781 O793 1.355 . S
C782 O784 1.185 . S
C782 O785 1.355 . S
Dy783 O787 2.310 . S
Dy783 O790 2.351 . S
Dy783 O792 2.398 . S
Dy783 O793 2.491 . S
Dy783 O794 2.403 . S
Dy783 O795 2.664 . S
Dy783 O797 2.326 . S
O784 Dy780 2.398 . S
O784 C782 1.185 . S
O785 Dy780 2.491 . S
O785 C782 1.355 . S
O786 Dy780 2.403 . S
O786 C788 1.254 . S
O787 Dy780 2.664 . S
O787 Dy783 2.310 . S
O787 C788 1.268 . S
C788 O786 1.254 . S
C788 O787 1.268 . S
C789 O794 1.254 . S
C789 O795 1.268 . S
O790 Dy783 2.351 . S
O790 C798 1.249 . S
O791 Dy780 2.326 . S
O791 C798 1.267 . S
O792 C781 1.185 . S
O792 Dy783 2.398 . S
O793 C781 1.355 . S
O793 Dy783 2.491 . S
O794 Dy783 2.403 . S
O794 C789 1.254 . S
O795 Dy780 2.310 . S
O795 Dy783 2.664 . S
O795 C789 1.268 . S
O796 Dy780 2.351 . S
O796 C799 1.249 . S
O797 Dy783 2.326 . S
O797 C799 1.267 . S
C798 O790 1.249 . S
C798 O791 1.267 . S
C799 O796 1.249 . S
C799 O797 1.267 . S
Dy800 O804 2.398 1_455 S
Dy800 O805 2.491 . S
Dy800 O806 2.403 . S
Dy800 O807 2.664 . S
Dy800 O811 2.326 . S
Dy800 O815 2.310 . S
Dy800 O816 2.351 . S
C801 O812 1.185 . S
C801 O813 1.355 . S
C802 O804 1.185 . S
C802 O805 1.355 1_655 S
Dy803 O807 2.310 . S
Dy803 O810 2.351 . S
Dy803 O812 2.398 . S
Dy803 O813 2.491 . S
Dy803 O814 2.403 . S
Dy803 O815 2.664 . S
Dy803 O817 2.326 . S
O804 Dy800 2.398 1_655 S
O804 C802 1.185 . S
O805 Dy800 2.491 . S
O805 C802 1.355 1_455 S
O806 Dy800 2.403 . S
O806 C808 1.254 . S
O807 Dy800 2.664 . S
O807 Dy803 2.310 . S
O807 C808 1.268 . S
C808 O806 1.254 . S
C808 O807 1.268 . S
C809 O814 1.254 . S
C809 O815 1.268 . S
O810 Dy803 2.351 . S
O810 C818 1.249 . S
O811 Dy800 2.326 . S
O811 C818 1.267 . S
O812 C801 1.185 . S
O812 Dy803 2.398 . S
O813 C801 1.355 . S
O813 Dy803 2.491 . S
O814 Dy803 2.403 . S
O814 C809 1.254 . S
O815 Dy800 2.310 . S
O815 Dy803 2.664 . S
O815 C809 1.268 . S
O816 Dy800 2.351 . S
O816 C819 1.249 . S
O817 Dy803 2.326 . S
O817 C819 1.267 . S
C818 O810 1.249 . S
C818 O811 1.267 . S
C819 O816 1.249 . S
C819 O817 1.267 . S
Dy820 O824 2.398 . S
Dy820 O825 2.491 . S
Dy820 O826 2.403 . S
Dy820 O827 2.664 . S
Dy820 O831 2.326 . S
Dy820 O835 2.310 . S
Dy820 O836 2.351 . S
C821 O832 1.185 . S
C821 O833 1.355 . S
C822 O824 1.185 . S
C822 O825 1.355 . S
Dy823 O827 2.310 . S
Dy823 O830 2.351 . S
Dy823 O832 2.398 . S
Dy823 O833 2.491 . S
Dy823 O834 2.403 . S
Dy823 O835 2.664 . S
Dy823 O837 2.326 . S
O824 Dy820 2.398 . S
O824 C822 1.185 . S
O825 Dy820 2.491 . S
O825 C822 1.355 . S
O826 Dy820 2.403 . S
O826 C828 1.254 . S
O827 Dy820 2.664 . S
O827 Dy823 2.310 . S
O827 C828 1.268 . S
C828 O826 1.254 . S
C828 O827 1.268 . S
C829 O834 1.254 . S
C829 O835 1.268 . S
O830 Dy823 2.351 . S
O830 C838 1.249 . S
O831 Dy820 2.326 . S
O831 C838 1.267 . S
O832 C821 1.185 . S
O832 Dy823 2.398 . S
O833 C821 1.355 . S
O833 Dy823 2.491 . S
O834 Dy823 2.403 . S
O834 C829 1.254 . S
O835 Dy820 2.310 . S
O835 Dy823 2.664 . S
O835 C829 1.268 . S
O836 Dy820 2.351 . S
O836 C839 1.249 . S
O837 Dy823 2.326 . S
O837 C839 1.267 . S
C838 O830 1.249 . S
C838 O831 1.267 . S
C839 O836 1.249 . S
C839 O837 1.267 . S
Dy840 O844 2.398 . S
Dy840 O845 2.491 . S
Dy840 O846 2.403 . S
Dy840 O847 2.673 . S
Dy840 O851 2.326 . S
Dy840 O855 2.310 . S
Dy840 O856 2.351 . S
C841 O852 1.185 . S
C841 O853 1.355 . S
C842 O844 1.185 . S
C842 O845 1.355 . S
Dy843 O847 2.308 1_556 S
Dy843 O850 2.351 . S
Dy843 O852 2.398 . S
Dy843 O853 2.491 . S
Dy843 O854 2.403 1_556 S
Dy843 O855 2.664 1_556 S
Dy843 O857 2.326 1_556 S
O844 Dy840 2.398 . S
O844 C842 1.185 . S
O845 Dy840 2.491 . S
O845 C842 1.355 . S
O846 Dy840 2.403 . S
O846 C848 1.254 1_554 S
O847 Dy840 2.673 . S
O847 Dy843 2.308 1_554 S
O847 C848 1.267 1_554 S
C848 O846 1.254 1_556 S
C848 O847 1.267 1_556 S
C849 O854 1.254 . S
C849 O855 1.268 . S
O850 Dy843 2.351 . S
O850 C858 1.249 1_556 S
O851 Dy840 2.326 . S
O851 C858 1.267 . S
O852 C841 1.185 . S
O852 Dy843 2.398 . S
O853 C841 1.355 . S
O853 Dy843 2.491 . S
O854 Dy843 2.403 1_554 S
O854 C849 1.254 . S
O855 Dy840 2.310 . S
O855 Dy843 2.664 1_554 S
O855 C849 1.268 . S
O856 Dy840 2.351 . S
O856 C859 1.249 . S
O857 Dy843 2.326 1_554 S
O857 C859 1.267 . S
C858 O850 1.249 1_554 S
C858 O851 1.267 . S
C859 O856 1.249 . S
C859 O857 1.267 . S
Dy860 O864 2.398 . S
Dy860 O865 2.491 . S
Dy860 O866 2.403 . S
Dy860 O867 2.664 . S
Dy860 O871 2.326 . S
Dy860 O875 2.310 . S
Dy860 O876 2.351 . S
C861 O872 1.185 . S
C861 O873 1.355 . S
C862 O864 1.185 . S
C862 O865 1.355 . S
Dy863 O867 2.310 . S
Dy863 O870 2.351 . S
Dy863 O872 2.398 . S
Dy863 O873 2.491 . S
Dy863 O874 2.403 . S
Dy863 O875 2.664 . S
Dy863 O877 2.326 . S
O864 Dy860 2.398 . S
O864 C862 1.185 . S
O865 Dy860 2.491 . S
O865 C862 1.355 . S
O866 Dy860 2.403 . S
O866 C868 1.254 . S
O867 Dy860 2.664 . S
O867 Dy863 2.310 . S
O867 C868 1.268 . S
C868 O866 1.254 . S
C868 O867 1.268 . S
C869 O874 1.254 . S
C869 O875 1.268 . S
O870 Dy863 2.351 . S
O870 C878 1.249 . S
O871 Dy860 2.326 . S
O871 C878 1.267 . S
O872 C861 1.185 . S
O872 Dy863 2.398 . S
O873 C861 1.355 . S
O873 Dy863 2.491 . S
O874 Dy863 2.403 . S
O874 C869 1.254 . S
O875 Dy860 2.310 . S
O875 Dy863 2.664 . S
O875 C869 1.268 . S
O876 Dy860 2.351 . S
O876 C879 1.249 . S
O877 Dy863 2.326 . S
O877 C879 1.267 . S
C878 O870 1.249 . S
C878 O871 1.267 . S
C879 O876 1.249 . S
C879 O877 1.267 . S
Dy880 O884 2.398 . S
Dy880 O885 2.491 . S
Dy880 O886 2.403 . S
Dy880 O887 2.664 . S
Dy880 O891 2.326 . S
Dy880 O895 2.310 . S
Dy880 O896 2.351 . S
C881 O892 1.185 . S
C881 O893 1.355 . S
C882 O884 1.185 . S
C882 O885 1.355 . S
Dy883 O887 2.310 . S
Dy883 O890 2.351 . S
Dy883 O892 2.398 . S
Dy883 O893 2.491 . S
Dy883 O894 2.403 . S
Dy883 O895 2.664 . S
Dy883 O897 2.326 . S
O884 Dy880 2.398 . S
O884 C882 1.185 . S
O885 Dy880 2.491 . S
O885 C882 1.355 . S
O886 Dy880 2.403 . S
O886 C888 1.254 . S
O887 Dy880 2.664 . S
O887 Dy883 2.310 . S
O887 C888 1.268 . S
C888 O886 1.254 . S
C888 O887 1.268 . S
C889 O894 1.254 . S
C889 O895 1.268 . S
O890 Dy883 2.351 . S
O890 C898 1.249 . S
O891 Dy880 2.326 . S
O891 C898 1.267 . S
O892 C881 1.185 . S
O892 Dy883 2.398 . S
O893 C881 1.355 . S
O893 Dy883 2.491 . S
O894 Dy883 2.403 . S
O894 C889 1.254 . S
O895 Dy880 2.310 . S
O895 Dy883 2.664 . S
O895 C889 1.268 . S
O896 Dy880 2.351 . S
O896 C899 1.249 . S
O897 Dy883 2.326 . S
O897 C899 1.267 . S
C898 O890 1.249 . S
C898 O891 1.267 . S
C899 O896 1.249 . S
C899 O897 1.267 . S
Dy900 O904 2.398 . S
Dy900 O905 2.491 . S
Dy900 O906 2.403 . S
Dy900 O907 2.664 . S
Dy900 O911 2.326 . S
Dy900 O915 2.310 . S
Dy900 O916 2.351 . S
C901 O912 1.185 . S
C901 O913 1.355 . S
C902 O904 1.185 . S
C902 O905 1.355 . S
Dy903 O907 2.310 . S
Dy903 O910 2.351 . S
Dy903 O912 2.398 . S
Dy903 O913 2.491 . S
Dy903 O914 2.403 . S
Dy903 O915 2.664 . S
Dy903 O917 2.326 . S
O904 Dy900 2.398 . S
O904 C902 1.185 . S
O905 Dy900 2.491 . S
O905 C902 1.355 . S
O906 Dy900 2.403 . S
O906 C908 1.254 . S
O907 Dy900 2.664 . S
O907 Dy903 2.310 . S
O907 C908 1.268 . S
C908 O906 1.254 . S
C908 O907 1.268 . S
C909 O914 1.254 . S
C909 O915 1.268 . S
O910 Dy903 2.351 . S
O910 C918 1.249 . S
O911 Dy900 2.326 . S
O911 C918 1.267 . S
O912 C901 1.185 . S
O912 Dy903 2.398 . S
O913 C901 1.355 . S
O913 Dy903 2.491 . S
O914 Dy903 2.403 . S
O914 C909 1.254 . S
O915 Dy900 2.310 . S
O915 Dy903 2.664 . S
O915 C909 1.268 . S
O916 Dy900 2.351 . S
O916 C919 1.249 . S
O917 Dy903 2.326 . S
O917 C919 1.267 . S
C918 O910 1.249 . S
C918 O911 1.267 . S
C919 O916 1.249 . S
C919 O917 1.267 . S
Dy920 O924 2.398 . S
Dy920 O925 2.491 . S
Dy920 O926 2.403 . S
Dy920 O927 2.664 . S
Dy920 O931 2.326 . S
Dy920 O935 2.310 . S
Dy920 O936 2.351 . S
C921 O932 1.185 . S
C921 O933 1.355 . S
C922 O924 1.185 . S
C922 O925 1.355 . S
Dy923 O927 2.310 . S
Dy923 O930 2.351 . S
Dy923 O932 2.398 . S
Dy923 O933 2.491 . S
Dy923 O934 2.403 . S
Dy923 O935 2.664 . S
Dy923 O937 2.326 . S
O924 Dy920 2.398 . S
O924 C922 1.185 . S
O925 Dy920 2.491 . S
O925 C922 1.355 . S
O926 Dy920 2.403 . S
O926 C928 1.254 . S
O927 Dy920 2.664 . S
O927 Dy923 2.310 . S
O927 C928 1.268 . S
C928 O926 1.254 . S
C928 O927 1.268 . S
C929 O934 1.254 . S
C929 O935 1.268 . S
O930 Dy923 2.351 . S
O930 C938 1.249 . S
O931 Dy920 2.326 . S
O931 C938 1.267 . S
O932 C921 1.185 . S
O932 Dy923 2.398 . S
O933 C921 1.355 . S
O933 Dy923 2.491 . S
O934 Dy923 2.403 . S
O934 C929 1.254 . S
O935 Dy920 2.310 . S
O935 Dy923 2.664 . S
O935 C929 1.268 . S
O936 Dy920 2.351 . S
O936 C939 1.249 . S
O937 Dy923 2.326 . S
O937 C939 1.267 . S
C938 O930 1.249 . S
C938 O931 1.267 . S
C939 O936 1.249 . S
C939 O937 1.267 . S
Dy940 O944 2.398 . S
Dy940 O945 2.491 . S
Dy940 O946 2.403 . S
Dy940 O947 2.664 . S
Dy940 O951 2.326 . S
Dy940 O955 2.310 . S
Dy940 O956 2.351 . S
C941 O952 1.185 . S
C941 O953 1.355 . S
C942 O944 1.185 . S
C942 O945 1.355 . S
Dy943 O947 2.310 . S
Dy943 O950 2.351 . S
Dy943 O952 2.398 . S
Dy943 O953 2.491 . S
Dy943 O954 2.403 . S
Dy943 O955 2.664 . S
Dy943 O957 2.326 . S
O944 Dy940 2.398 . S
O944 C942 1.185 . S
O945 Dy940 2.491 . S
O945 C942 1.355 . S
O946 Dy940 2.403 . S
O946 C948 1.254 . S
O947 Dy940 2.664 . S
O947 Dy943 2.310 . S
O947 C948 1.268 . S
C948 O946 1.254 . S
C948 O947 1.268 . S
C949 O954 1.254 . S
C949 O955 1.268 . S
O950 Dy943 2.351 . S
O950 C958 1.249 . S
O951 Dy940 2.326 . S
O951 C958 1.267 . S
O952 C941 1.185 . S
O952 Dy943 2.398 . S
O953 C941 1.355 . S
O953 Dy943 2.491 . S
O954 Dy943 2.403 . S
O954 C949 1.254 . S
O955 Dy940 2.310 . S
O955 Dy943 2.664 . S
O955 C949 1.268 . S
O956 Dy940 2.351 . S
O956 C959 1.249 . S
O957 Dy943 2.326 . S
O957 C959 1.267 . S
C958 O950 1.249 . S
C958 O951 1.267 . S
C959 O956 1.249 . S
C959 O957 1.267 . S
H960 C968 0.929 . S
H961 C970 0.930 . S
H962 C972 0.930 . S
H963 C975 0.929 . S
H964 C978 0.930 . S
H965 C980 0.960 . S
H966 C980 0.960 . S
H967 C980 0.960 . S
C968 H960 0.929 . S
C968 C969 1.377 1_655 S
C968 C970 1.384 . S
C969 C968 1.377 1_455 S
C969 C975 1.390 . S
C970 H961 0.930 . S
C970 C968 1.384 . S
C970 C971 1.372 1_655 S
C971 C970 1.372 1_455 S
C971 C972 1.400 . S
C971 C976 1.490 . S
C972 H962 0.930 . S
C972 C971 1.400 . S
C972 C975 1.386 . S
H973 C989 0.930 . S
H974 C990 0.931 . S
C975 H963 0.929 . S
C975 C969 1.390 . S
C975 C972 1.386 . S
C976 C971 1.490 . S
C976 C978 1.395 1_455 S
C976 C979 1.403 . S
H977 C983 0.930 . S
C978 H964 0.930 . S
C978 C976 1.395 1_655 S
C978 C981 1.403 . S
C979 C976 1.403 . S
C979 C980 1.524 . S
C979 C983 1.400 . S
C980 H965 0.960 . S
C980 H966 0.960 . S
C980 H967 0.960 . S
C980 C979 1.524 . S
C981 C978 1.403 . S
C981 C982 1.392 1_655 S
C981 C985 1.495 . S
C982 C981 1.392 1_455 S
C982 C983 1.385 . S
C982 C984 1.478 . S
C983 H977 0.930 . S
C983 C979 1.400 . S
C983 C982 1.385 . S
C984 C982 1.478 . S
C984 C986 1.381 1_455 S
C984 C990 1.383 . S
C985 C981 1.495 . S
C985 H991 0.959 . S
C985 H992 0.961 . S
C985 H993 0.960 . S
C986 C984 1.381 1_655 S
C986 C987 1.394 . S
C986 H994 0.930 . S
C987 C986 1.394 . S
C987 C988 1.383 1_655 S
C987 H995 0.929 . S
C988 C987 1.383 1_455 S
C988 C989 1.377 . S
C989 H973 0.930 . S
C989 C988 1.377 . S
C989 C990 1.379 . S
C990 H974 0.931 . S
C990 C984 1.383 . S
C990 C989 1.379 . S
H991 C985 0.959 . S
H992 C985 0.961 . S
H993 C985 0.960 . S
H994 C986 0.930 . S
H995 C987 0.929 . S
H996 C1004 0.929 . S
H997 C1006 0.930 . S
H998 C1008 0.930 . S
H999 C1011 0.929 . S
H1000 C1014 0.930 . S
H1001 C1016 0.960 . S
H1002 C1016 0.960 . S
H1003 C1016 0.960 . S
C1004 H996 0.929 . S
C1004 C1005 1.377 . S
C1004 C1006 1.384 . S
C1005 C1004 1.377 . S
C1005 C1011 1.390 . S
C1006 H997 0.930 . S
C1006 C1004 1.384 . S
C1006 C1007 1.372 . S
C1007 C1006 1.372 . S
C1007 C1008 1.400 . S
C1007 C1012 1.490 . S
C1008 H998 0.930 . S
C1008 C1007 1.400 . S
C1008 C1011 1.386 . S
H1009 C1025 0.930 . S
H1010 C1026 0.931 . S
C1011 H999 0.929 . S
C1011 C1005 1.390 . S
C1011 C1008 1.386 . S
C1012 C1007 1.490 . S
C1012 C1014 1.395 . S
C1012 C1015 1.403 . S
H1013 C1019 0.930 . S
C1014 H1000 0.930 . S
C1014 C1012 1.395 . S
C1014 C1017 1.403 . S
C1015 C1012 1.403 . S
C1015 C1016 1.524 . S
C1015 C1019 1.400 . S
C1016 H1001 0.960 . S
C1016 H1002 0.960 . S
C1016 H1003 0.960 . S
C1016 C1015 1.524 . S
C1017 C1014 1.403 . S
C1017 C1018 1.392 . S
C1017 C1021 1.495 . S
C1018 C1017 1.392 . S
C1018 C1019 1.385 . S
C1018 C1020 1.478 . S
C1019 H1013 0.930 . S
C1019 C1015 1.400 . S
C1019 C1018 1.385 . S
C1020 C1018 1.478 . S
C1020 C1022 1.381 . S
C1020 C1026 1.383 . S
C1021 C1017 1.495 . S
C1021 H1027 0.959 . S
C1021 H1028 0.961 . S
C1021 H1029 0.960 . S
C1022 C1020 1.381 . S
C1022 C1023 1.394 . S
C1022 H1030 0.930 . S
C1023 C1022 1.394 . S
C1023 C1024 1.383 . S
C1023 H1031 0.929 . S
C1024 C1023 1.383 . S
C1024 C1025 1.377 . S
C1025 H1009 0.930 . S
C1025 C1024 1.377 . S
C1025 C1026 1.379 . S
C1026 H1010 0.931 . S
C1026 C1020 1.383 . S
C1026 C1025 1.379 . S
H1027 C1021 0.959 . S
H1028 C1021 0.961 . S
H1029 C1021 0.960 . S
H1030 C1022 0.930 . S
H1031 C1023 0.929 . S
H1032 C1040 0.929 . S
H1033 C1042 0.930 . S
H1034 C1044 0.930 . S
H1035 C1047 0.929 . S
H1036 C1050 0.930 . S
H1037 C1052 0.960 . S
H1038 C1052 0.960 . S
H1039 C1052 0.960 . S
C1040 H1032 0.929 . S
C1040 C1041 1.377 . S
C1040 C1042 1.384 . S
C1041 C1040 1.377 . S
C1041 C1047 1.390 . S
C1042 H1033 0.930 . S
C1042 C1040 1.384 . S
C1042 C1043 1.372 . S
C1043 C1042 1.372 . S
C1043 C1044 1.400 . S
C1043 C1048 1.490 . S
C1044 H1034 0.930 . S
C1044 C1043 1.400 . S
C1044 C1047 1.386 . S
H1045 C1061 0.930 . S
H1046 C1062 0.931 . S
C1047 H1035 0.929 . S
C1047 C1041 1.390 . S
C1047 C1044 1.386 . S
C1048 C1043 1.490 . S
C1048 C1050 1.395 . S
C1048 C1051 1.403 . S
H1049 C1055 0.930 . S
C1050 H1036 0.930 . S
C1050 C1048 1.395 . S
C1050 C1053 1.403 . S
C1051 C1048 1.403 . S
C1051 C1052 1.524 . S
C1051 C1055 1.400 . S
C1052 H1037 0.960 . S
C1052 H1038 0.960 . S
C1052 H1039 0.960 . S
C1052 C1051 1.524 . S
C1053 C1050 1.403 . S
C1053 C1054 1.392 . S
C1053 C1057 1.495 . S
C1054 C1053 1.392 . S
C1054 C1055 1.385 . S
C1054 C1056 1.478 . S
C1055 H1049 0.930 . S
C1055 C1051 1.400 . S
C1055 C1054 1.385 . S
C1056 C1054 1.478 . S
C1056 C1058 1.381 . S
C1056 C1062 1.383 . S
C1057 C1053 1.495 . S
C1057 H1063 0.959 . S
C1057 H1064 0.961 . S
C1057 H1065 0.960 . S
C1058 C1056 1.381 . S
C1058 C1059 1.394 . S
C1058 H1066 0.930 . S
C1059 C1058 1.394 . S
C1059 C1060 1.383 . S
C1059 H1067 0.929 . S
C1060 C1059 1.383 . S
C1060 C1061 1.377 . S
C1061 H1045 0.930 . S
C1061 C1060 1.377 . S
C1061 C1062 1.379 . S
C1062 H1046 0.931 . S
C1062 C1056 1.383 . S
C1062 C1061 1.379 . S
H1063 C1057 0.959 . S
H1064 C1057 0.961 . S
H1065 C1057 0.960 . S
H1066 C1058 0.930 . S
H1067 C1059 0.929 . S
H1068 C1076 0.929 . S
H1069 C1078 0.930 . S
H1070 C1080 0.930 . S
H1071 C1083 0.929 . S
H1072 C1086 0.930 1_556 S
H1073 C1088 0.960 . S
H1074 C1088 0.960 . S
H1075 C1088 0.960 . S
C1076 H1068 0.929 . S
C1076 C1077 1.377 1_556 S
C1076 C1078 1.384 . S
C1077 C1076 1.377 1_554 S
C1077 C1083 1.390 . S
C1078 H1069 0.930 . S
C1078 C1076 1.384 . S
C1078 C1079 1.372 1_556 S
C1079 C1078 1.372 1_554 S
C1079 C1080 1.400 . S
C1079 C1084 1.490 . S
C1080 H1070 0.930 . S
C1080 C1079 1.400 . S
C1080 C1083 1.386 . S
H1081 C1097 0.930 . S
H1082 C1098 0.931 . S
C1083 H1071 0.929 . S
C1083 C1077 1.390 . S
C1083 C1080 1.386 . S
C1084 C1079 1.490 . S
C1084 C1086 1.395 . S
C1084 C1087 1.403 . S
H1085 C1091 0.930 . S
C1086 H1072 0.930 1_554 S
C1086 C1084 1.395 . S
C1086 C1089 1.403 . S
C1087 C1084 1.403 . S
C1087 C1088 1.524 . S
C1087 C1091 1.400 . S
C1088 H1073 0.960 . S
C1088 H1074 0.960 . S
C1088 H1075 0.960 . S
C1088 C1087 1.524 . S
C1089 C1086 1.403 . S
C1089 C1090 1.392 . S
C1089 C1093 1.495 1_554 S
C1090 C1089 1.392 . S
C1090 C1091 1.385 . S
C1090 C1092 1.478 . S
C1091 H1085 0.930 . S
C1091 C1087 1.400 . S
C1091 C1090 1.385 . S
C1092 C1090 1.478 . S
C1092 C1094 1.381 . S
C1092 C1098 1.383 . S
C1093 C1089 1.495 1_556 S
C1093 H1099 0.959 . S
C1093 H1100 0.961 1_556 S
C1093 H1101 0.960 . S
C1094 C1092 1.381 . S
C1094 C1095 1.394 . S
C1094 H1102 0.930 1_554 S
C1095 C1094 1.394 . S
C1095 C1096 1.383 . S
C1095 H1103 0.929 . S
C1096 C1095 1.383 . S
C1096 C1097 1.377 . S
C1097 H1081 0.930 . S
C1097 C1096 1.377 . S
C1097 C1098 1.379 . S
C1098 H1082 0.931 . S
C1098 C1092 1.383 . S
C1098 C1097 1.379 . S
H1099 C1093 0.959 . S
H1100 C1093 0.961 1_554 S
H1101 C1093 0.960 . S
H1102 C1094 0.930 1_556 S
H1103 C1095 0.929 . S
H1104 C1112 0.929 . S
H1105 C1114 0.930 . S
H1106 C1116 0.930 . S
H1107 C1119 0.929 . S
H1108 C1122 0.930 . S
H1109 C1124 0.960 . S
H1110 C1124 0.960 . S
H1111 C1124 0.960 . S
C1112 H1104 0.929 . S
C1112 C1113 1.377 . S
C1112 C1114 1.384 . S
C1113 C1112 1.377 . S
C1113 C1119 1.390 . S
C1114 H1105 0.930 . S
C1114 C1112 1.384 . S
C1114 C1115 1.372 . S
C1115 C1114 1.372 . S
C1115 C1116 1.400 . S
C1115 C1120 1.490 . S
C1116 H1106 0.930 . S
C1116 C1115 1.400 . S
C1116 C1119 1.386 . S
H1117 C1133 0.930 . S
H1118 C1134 0.931 . S
C1119 H1107 0.929 . S
C1119 C1113 1.390 . S
C1119 C1116 1.386 . S
C1120 C1115 1.490 . S
C1120 C1122 1.395 . S
C1120 C1123 1.403 . S
H1121 C1127 0.930 . S
C1122 H1108 0.930 . S
C1122 C1120 1.395 . S
C1122 C1125 1.403 . S
C1123 C1120 1.403 . S
C1123 C1124 1.524 . S
C1123 C1127 1.400 . S
C1124 H1109 0.960 . S
C1124 H1110 0.960 . S
C1124 H1111 0.960 . S
C1124 C1123 1.524 . S
C1125 C1122 1.403 . S
C1125 C1126 1.392 . S
C1125 C1129 1.495 . S
C1126 C1125 1.392 . S
C1126 C1127 1.385 . S
C1126 C1128 1.478 . S
C1127 H1121 0.930 . S
C1127 C1123 1.400 . S
C1127 C1126 1.385 . S
C1128 C1126 1.478 . S
C1128 C1130 1.381 . S
C1128 C1134 1.383 . S
C1129 C1125 1.495 . S
C1129 H1135 0.959 . S
C1129 H1136 0.961 . S
C1129 H1137 0.960 . S
C1130 C1128 1.381 . S
C1130 C1131 1.394 . S
C1130 H1138 0.930 . S
C1131 C1130 1.394 . S
C1131 C1132 1.383 . S
C1131 H1139 0.929 . S
C1132 C1131 1.383 . S
C1132 C1133 1.377 . S
C1133 H1117 0.930 . S
C1133 C1132 1.377 . S
C1133 C1134 1.379 . S
C1134 H1118 0.931 . S
C1134 C1128 1.383 . S
C1134 C1133 1.379 . S
H1135 C1129 0.959 . S
H1136 C1129 0.961 . S
H1137 C1129 0.960 . S
H1138 C1130 0.930 . S
H1139 C1131 0.929 . S
H1140 C1148 0.929 . S
H1141 C1150 0.930 . S
H1142 C1152 0.930 . S
H1143 C1155 0.929 . S
H1144 C1158 0.930 . S
H1145 C1160 0.960 . S
H1146 C1160 0.960 . S
H1147 C1160 0.960 . S
C1148 H1140 0.929 . S
C1148 C1149 1.377 . S
C1148 C1150 1.384 . S
C1149 C1148 1.377 . S
C1149 C1155 1.390 . S
C1150 H1141 0.930 . S
C1150 C1148 1.384 . S
C1150 C1151 1.372 . S
C1151 C1150 1.372 . S
C1151 C1152 1.400 . S
C1151 C1156 1.490 . S
C1152 H1142 0.930 . S
C1152 C1151 1.400 . S
C1152 C1155 1.386 . S
H1153 C1169 0.879 1_565 S
H1154 C1170 0.931 1_565 S
C1155 H1143 0.929 . S
C1155 C1149 1.390 . S
C1155 C1152 1.386 . S
C1156 C1151 1.490 . S
C1156 C1158 1.395 . S
C1156 C1159 1.403 . S
H1157 C1163 0.930 . S
C1158 H1144 0.930 . S
C1158 C1156 1.395 . S
C1158 C1161 1.403 . S
C1159 C1156 1.403 . S
C1159 C1160 1.524 . S
C1159 C1163 1.400 . S
C1160 H1145 0.960 . S
C1160 H1146 0.960 . S
C1160 H1147 0.960 . S
C1160 C1159 1.524 . S
C1161 C1158 1.403 . S
C1161 C1162 1.392 . S
C1161 C1165 1.495 . S
C1162 C1161 1.392 . S
C1162 C1163 1.385 . S
C1162 C1164 1.478 . S
C1163 H1157 0.930 . S
C1163 C1159 1.400 . S
C1163 C1162 1.385 . S
C1164 C1162 1.478 . S
C1164 C1166 1.381 . S
C1164 C1170 1.383 . S
C1165 C1161 1.495 . S
C1165 H1171 0.959 . S
C1165 H1172 0.961 . S
C1165 H1173 0.960 . S
C1166 C1164 1.381 . S
C1166 C1167 1.394 . S
C1166 H1174 0.930 . S
C1167 C1166 1.394 . S
C1167 C1168 1.383 . S
C1167 H1175 0.929 . S
C1168 C1167 1.383 . S
C1168 C1169 1.423 . S
C1169 H1153 0.879 1_545 S
C1169 C1168 1.423 . S
C1169 C1170 1.386 . S
C1170 H1154 0.931 1_545 S
C1170 C1164 1.383 . S
C1170 C1169 1.386 . S
H1171 C1165 0.959 . S
H1172 C1165 0.961 . S
H1173 C1165 0.960 . S
H1174 C1166 0.930 . S
H1175 C1167 0.929 . S
H1176 C1184 0.929 . S
H1177 C1186 0.930 . S
H1178 C1188 0.930 . S
H1179 C1191 0.929 . S
H1180 C1194 0.967 . S
H1181 C1196 0.960 1_556 S
H1182 C1196 0.960 . S
H1183 C1196 0.960 . S
C1184 H1176 0.929 . S
C1184 C1185 1.377 1_545 S
C1184 C1186 1.384 . S
C1185 C1184 1.377 1_565 S
C1185 C1191 1.390 . S
C1186 H1177 0.930 . S
C1186 C1184 1.384 . S
C1186 C1187 1.372 1_545 S
C1187 C1186 1.372 1_565 S
C1187 C1188 1.400 . S
C1187 C1192 1.490 . S
C1188 H1178 0.930 . S
C1188 C1187 1.400 . S
C1188 C1191 1.386 . S
H1189 C1205 0.930 . S
H1190 C1206 0.931 . S
C1191 H1179 0.929 . S
C1191 C1185 1.390 . S
C1191 C1188 1.386 . S
C1192 C1187 1.490 . S
C1192 C1194 1.419 1_565 S
C1192 C1195 1.403 1_554 S
H1193 C1199 0.930 . S
C1194 H1180 0.967 . S
C1194 C1192 1.419 1_545 S
C1194 C1197 1.345 1_554 S
C1195 C1192 1.403 1_556 S
C1195 C1196 1.524 1_556 S
C1195 C1199 1.400 . S
C1196 H1181 0.960 1_554 S
C1196 H1182 0.960 . S
C1196 H1183 0.960 . S
C1196 C1195 1.524 1_554 S
C1197 C1194 1.345 1_556 S
C1197 C1198 1.371 1_545 S
C1197 C1201 1.495 . S
C1198 C1197 1.371 1_565 S
C1198 C1199 1.410 . S
C1198 C1200 1.476 1_565 S
C1199 H1193 0.930 . S
C1199 C1195 1.400 . S
C1199 C1198 1.410 . S
C1200 C1198 1.476 1_545 S
C1200 C1202 1.414 . S
C1200 C1206 1.351 1_545 S
C1201 C1197 1.495 . S
C1201 H1207 0.959 . S
C1201 H1208 0.961 . S
C1201 H1209 0.960 . S
C1202 C1200 1.414 . S
C1202 C1203 1.394 . S
C1202 H1210 0.930 . S
C1203 C1202 1.394 . S
C1203 C1204 1.383 . S
C1203 H1211 0.929 . S
C1204 C1203 1.383 . S
C1204 C1205 1.377 1_545 S
C1205 H1189 0.930 . S
C1205 C1204 1.377 1_565 S
C1205 C1206 1.379 . S
C1206 H1190 0.931 . S
C1206 C1200 1.351 1_565 S
C1206 C1205 1.379 . S
H1207 C1201 0.959 . S
H1208 C1201 0.961 . S
H1209 C1201 0.960 . S
H1210 C1202 0.930 . S
H1211 C1203 0.929 . S
H1212 C1220 0.929 . S
H1213 C1222 0.930 . S
H1214 C1224 0.930 . S
H1215 C1227 0.929 . S
H1216 C1230 0.930 . S
H1217 C1232 0.960 . S
H1218 C1232 0.960 1_565 S
H1219 C1232 0.960 . S
C1220 H1212 0.929 . S
C1220 C1221 1.377 . S
C1220 C1222 1.384 . S
C1221 C1220 1.377 . S
C1221 C1227 1.390 1_565 S
C1222 H1213 0.930 . S
C1222 C1220 1.384 . S
C1222 C1223 1.372 1_565 S
C1223 C1222 1.372 1_545 S
C1223 C1224 1.400 . S
C1223 C1228 1.490 . S
C1224 H1214 0.930 . S
C1224 C1223 1.400 . S
C1224 C1227 1.386 . S
H1225 C1241 0.930 . S
H1226 C1242 0.931 . S
C1227 H1215 0.929 . S
C1227 C1221 1.390 1_545 S
C1227 C1224 1.386 . S
C1228 C1223 1.490 . S
C1228 C1230 1.395 . S
C1228 C1231 1.403 . S
H1229 C1235 0.930 . S
C1230 H1216 0.930 . S
C1230 C1228 1.395 . S
C1230 C1233 1.403 . S
C1231 C1228 1.403 . S
C1231 C1232 1.524 . S
C1231 C1235 1.400 . S
C1232 H1217 0.960 . S
C1232 H1218 0.960 1_545 S
C1232 H1219 0.960 . S
C1232 C1231 1.524 . S
C1233 C1230 1.403 . S
C1233 C1234 1.392 . S
C1233 C1237 1.495 . S
C1234 C1233 1.392 . S
C1234 C1235 1.385 . S
C1234 C1236 1.478 . S
C1235 H1229 0.930 . S
C1235 C1231 1.400 . S
C1235 C1234 1.385 . S
C1236 C1234 1.478 . S
C1236 C1238 1.381 . S
C1236 C1242 1.383 . S
C1237 C1233 1.495 . S
C1237 H1243 0.959 . S
C1237 H1244 0.961 . S
C1237 H1245 0.960 . S
C1238 C1236 1.381 . S
C1238 C1239 1.394 . S
C1238 H1246 0.930 1_545 S
C1239 C1238 1.394 . S
C1239 C1240 1.383 . S
C1239 H1247 0.929 1_545 S
C1240 C1239 1.383 . S
C1240 C1241 1.377 . S
C1241 H1225 0.930 . S
C1241 C1240 1.377 . S
C1241 C1242 1.379 . S
C1242 H1226 0.931 . S
C1242 C1236 1.383 . S
C1242 C1241 1.379 . S
H1243 C1237 0.959 . S
H1244 C1237 0.961 . S
H1245 C1237 0.960 . S
H1246 C1238 0.930 1_565 S
H1247 C1239 0.929 1_565 S
H1248 C1256 0.929 . S
H1249 C1258 0.930 . S
H1250 C1260 0.930 . S
H1251 C1263 0.929 . S
H1252 C1266 0.930 . S
H1253 C1268 0.960 . S
H1254 C1268 0.960 . S
H1255 C1268 0.960 . S
C1256 H1248 0.929 . S
C1256 C1257 1.377 . S
C1256 C1258 1.384 . S
C1257 C1256 1.377 . S
C1257 C1263 1.390 . S
C1258 H1249 0.930 . S
C1258 C1256 1.384 . S
C1258 C1259 1.372 . S
C1259 C1258 1.372 . S
C1259 C1260 1.400 . S
C1259 C1264 1.490 . S
C1260 H1250 0.930 . S
C1260 C1259 1.400 . S
C1260 C1263 1.386 . S
H1261 C1277 0.930 . S
H1262 C1278 0.931 . S
C1263 H1251 0.929 . S
C1263 C1257 1.390 . S
C1263 C1260 1.386 . S
C1264 C1259 1.490 . S
C1264 C1266 1.395 . S
C1264 C1267 1.403 . S
H1265 C1271 0.930 . S
C1266 H1252 0.930 . S
C1266 C1264 1.395 . S
C1266 C1269 1.403 . S
C1267 C1264 1.403 . S
C1267 C1268 1.524 . S
C1267 C1271 1.400 . S
C1268 H1253 0.960 . S
C1268 H1254 0.960 . S
C1268 H1255 0.960 . S
C1268 C1267 1.524 . S
C1269 C1266 1.403 . S
C1269 C1270 1.392 . S
C1269 C1273 1.495 . S
C1270 C1269 1.392 . S
C1270 C1271 1.385 . S
C1270 C1272 1.478 . S
C1271 H1265 0.930 . S
C1271 C1267 1.400 . S
C1271 C1270 1.385 . S
C1272 C1270 1.478 . S
C1272 C1274 1.381 . S
C1272 C1278 1.383 . S
C1273 C1269 1.495 . S
C1273 H1279 0.959 . S
C1273 H1280 0.961 . S
C1273 H1281 0.960 . S
C1274 C1272 1.381 . S
C1274 C1275 1.394 . S
C1274 H1282 0.930 . S
C1275 C1274 1.394 . S
C1275 C1276 1.383 . S
C1275 H1283 0.929 . S
C1276 C1275 1.383 . S
C1276 C1277 1.377 . S
C1277 H1261 0.930 . S
C1277 C1276 1.377 . S
C1277 C1278 1.379 . S
C1278 H1262 0.931 . S
C1278 C1272 1.383 . S
C1278 C1277 1.379 . S
H1279 C1273 0.959 . S
H1280 C1273 0.961 . S
H1281 C1273 0.960 . S
H1282 C1274 0.930 . S
H1283 C1275 0.929 . S
H1284 C1292 0.929 . S
H1285 C1294 0.930 . S
H1286 C1296 0.930 . S
H1287 C1299 0.929 . S
H1288 C1302 0.930 . S
H1289 C1304 0.960 . S
H1290 C1304 0.960 . S
H1291 C1304 0.960 . S
C1292 H1284 0.929 . S
C1292 C1293 1.377 . S
C1292 C1294 1.384 . S
C1293 C1292 1.377 . S
C1293 C1299 1.390 1_556 S
C1294 H1285 0.930 . S
C1294 C1292 1.384 . S
C1294 C1295 1.372 . S
C1295 C1294 1.372 . S
C1295 C1296 1.400 1_556 S
C1295 C1300 1.490 . S
C1296 H1286 0.930 . S
C1296 C1295 1.400 1_554 S
C1296 C1299 1.386 . S
H1297 C1313 0.929 1_554 S
H1298 C1314 0.931 . S
C1299 H1287 0.929 . S
C1299 C1293 1.390 1_554 S
C1299 C1296 1.386 . S
C1300 C1295 1.490 . S
C1300 C1302 1.395 . S
C1300 C1303 1.403 1_556 S
H1301 C1307 0.930 . S
C1302 H1288 0.930 . S
C1302 C1300 1.395 . S
C1302 C1305 1.403 . S
C1303 C1300 1.403 1_554 S
C1303 C1304 1.524 . S
C1303 C1307 1.400 . S
C1304 H1289 0.960 . S
C1304 H1290 0.960 . S
C1304 H1291 0.960 . S
C1304 C1303 1.524 . S
C1305 C1302 1.403 . S
C1305 C1306 1.384 1_655 S
C1305 C1309 1.497 . S
C1306 C1305 1.384 1_455 S
C1306 C1307 1.377 1_456 S
C1306 C1308 1.495 . S
C1307 H1301 0.930 . S
C1307 C1303 1.400 . S
C1307 C1306 1.377 1_654 S
C1308 C1306 1.495 . S
C1308 C1310 1.381 . S
C1308 C1314 1.383 . S
C1309 C1305 1.497 . S
C1309 H1315 0.963 . S
C1309 H1316 0.959 1_655 S
C1309 H1317 0.956 1_655 S
C1310 C1308 1.381 . S
C1310 C1311 1.394 . S
C1310 H1318 0.930 . S
C1311 C1310 1.394 . S
C1311 C1312 1.383 . S
C1311 H1319 0.929 . S
C1312 C1311 1.383 . S
C1312 C1313 1.377 . S
C1313 H1297 0.929 1_556 S
C1313 C1312 1.377 . S
C1313 C1314 1.379 . S
C1314 H1298 0.931 . S
C1314 C1308 1.383 . S
C1314 C1313 1.379 . S
H1315 C1309 0.963 . S
H1316 C1309 0.959 1_455 S
H1317 C1309 0.956 1_455 S
H1318 C1310 0.930 . S
H1319 C1311 0.929 . S
H1320 C1328 0.929 . S
H1321 C1330 0.930 . S
H1322 C1332 0.930 . S
H1323 C1335 0.929 . S
H1324 C1338 0.930 . S
H1325 C1340 0.960 . S
H1326 C1340 0.960 . S
H1327 C1340 0.960 . S
C1328 H1320 0.929 . S
C1328 C1329 1.377 . S
C1328 C1330 1.384 . S
C1329 C1328 1.377 . S
C1329 C1335 1.390 1_455 S
C1330 H1321 0.930 . S
C1330 C1328 1.384 . S
C1330 C1331 1.372 . S
C1331 C1330 1.372 . S
C1331 C1332 1.400 1_455 S
C1331 C1336 1.490 . S
C1332 H1322 0.930 . S
C1332 C1331 1.400 1_655 S
C1332 C1335 1.386 . S
H1333 C1349 0.930 . S
H1334 C1350 0.931 . S
C1335 H1323 0.929 . S
C1335 C1329 1.390 1_655 S
C1335 C1332 1.386 . S
C1336 C1331 1.490 . S
C1336 C1338 1.395 1_455 S
C1336 C1339 1.403 . S
H1337 C1343 0.930 . S
C1338 H1324 0.930 . S
C1338 C1336 1.395 1_655 S
C1338 C1341 1.403 . S
C1339 C1336 1.403 . S
C1339 C1340 1.524 . S
C1339 C1343 1.400 . S
C1340 H1325 0.960 . S
C1340 H1326 0.960 . S
C1340 H1327 0.960 . S
C1340 C1339 1.524 . S
C1341 C1338 1.403 . S
C1341 C1342 1.404 . S
C1341 C1345 1.495 . S
C1342 C1341 1.404 . S
C1342 C1343 1.372 1_655 S
C1342 C1344 1.479 . S
C1343 H1337 0.930 . S
C1343 C1339 1.400 . S
C1343 C1342 1.372 1_455 S
C1344 C1342 1.479 . S
C1344 C1346 1.381 1_655 S
C1344 C1350 1.383 . S
C1345 C1341 1.495 . S
C1345 H1351 0.959 . S
C1345 H1352 0.961 . S
C1345 H1353 0.960 . S
C1346 C1344 1.381 1_455 S
C1346 C1347 1.394 . S
C1346 H1354 0.930 . S
C1347 C1346 1.394 . S
C1347 C1348 1.383 1_455 S
C1347 H1355 0.929 . S
C1348 C1347 1.383 1_655 S
C1348 C1349 1.377 . S
C1349 H1333 0.930 . S
C1349 C1348 1.377 . S
C1349 C1350 1.379 . S
C1350 H1334 0.931 . S
C1350 C1344 1.383 . S
C1350 C1349 1.379 . S
H1351 C1345 0.959 . S
H1352 C1345 0.961 . S
H1353 C1345 0.960 . S
H1354 C1346 0.930 . S
H1355 C1347 0.929 . S
H1356 C1364 0.929 . S
H1357 C1366 0.930 . S
H1358 C1368 0.930 . S
H1359 C1371 0.929 . S
H1360 C1374 0.930 . S
H1361 C1376 0.960 . S
H1362 C1376 0.960 . S
H1363 C1376 0.960 . S
C1364 H1356 0.929 . S
C1364 C1365 1.377 . S
C1364 C1366 1.384 . S
C1365 C1364 1.377 . S
C1365 C1371 1.390 . S
C1366 H1357 0.930 . S
C1366 C1364 1.384 . S
C1366 C1367 1.372 . S
C1367 C1366 1.372 . S
C1367 C1368 1.400 . S
C1367 C1372 1.490 . S
C1368 H1358 0.930 . S
C1368 C1367 1.400 . S
C1368 C1371 1.386 . S
H1369 C1385 0.930 . S
H1370 C1386 0.931 . S
C1371 H1359 0.929 . S
C1371 C1365 1.390 . S
C1371 C1368 1.386 . S
C1372 C1367 1.490 . S
C1372 C1374 1.395 . S
C1372 C1375 1.403 . S
H1373 C1379 0.930 . S
C1374 H1360 0.930 . S
C1374 C1372 1.395 . S
C1374 C1377 1.403 . S
C1375 C1372 1.403 . S
C1375 C1376 1.524 . S
C1375 C1379 1.400 . S
C1376 H1361 0.960 . S
C1376 H1362 0.960 . S
C1376 H1363 0.960 . S
C1376 C1375 1.524 . S
C1377 C1374 1.403 . S
C1377 C1378 1.392 . S
C1377 C1381 1.495 . S
C1378 C1377 1.392 . S
C1378 C1379 1.385 . S
C1378 C1380 1.478 . S
C1379 H1373 0.930 . S
C1379 C1375 1.400 . S
C1379 C1378 1.385 . S
C1380 C1378 1.478 . S
C1380 C1382 1.381 . S
C1380 C1386 1.383 . S
C1381 C1377 1.495 . S
C1381 H1387 0.959 . S
C1381 H1388 0.961 . S
C1381 H1389 0.960 . S
C1382 C1380 1.381 . S
C1382 C1383 1.394 . S
C1382 H1390 0.930 . S
C1383 C1382 1.394 . S
C1383 C1384 1.383 . S
C1383 H1391 0.929 . S
C1384 C1383 1.383 . S
C1384 C1385 1.377 . S
C1385 H1369 0.930 . S
C1385 C1384 1.377 . S
C1385 C1386 1.379 . S
C1386 H1370 0.931 . S
C1386 C1380 1.383 . S
C1386 C1385 1.379 . S
H1387 C1381 0.959 . S
H1388 C1381 0.961 . S
H1389 C1381 0.960 . S
H1390 C1382 0.930 . S
H1391 C1383 0.929 . S
H1392 C1400 0.929 . S
H1393 C1402 0.930 . S
H1394 C1404 0.930 . S
H1395 C1407 0.929 . S
H1396 C1410 0.930 . S
H1397 C1412 0.960 . S
H1398 C1412 0.960 . S
H1399 C1412 0.960 . S
C1400 H1392 0.929 . S
C1400 C1401 1.377 . S
C1400 C1402 1.384 . S
C1401 C1400 1.377 . S
C1401 C1407 1.390 . S
C1402 H1393 0.930 . S
C1402 C1400 1.384 . S
C1402 C1403 1.372 . S
C1403 C1402 1.372 . S
C1403 C1404 1.400 . S
C1403 C1408 1.490 . S
C1404 H1394 0.930 . S
C1404 C1403 1.400 . S
C1404 C1407 1.386 . S
H1405 C1421 0.930 . S
H1406 C1422 0.931 . S
C1407 H1395 0.929 . S
C1407 C1401 1.390 . S
C1407 C1404 1.386 . S
C1408 C1403 1.490 . S
C1408 C1410 1.395 . S
C1408 C1411 1.403 . S
H1409 C1415 0.930 . S
C1410 H1396 0.930 . S
C1410 C1408 1.395 . S
C1410 C1413 1.403 1_655 S
C1411 C1408 1.403 . S
C1411 C1412 1.524 . S
C1411 C1415 1.400 1_655 S
C1412 H1397 0.960 . S
C1412 H1398 0.960 . S
C1412 H1399 0.960 . S
C1412 C1411 1.524 . S
C1413 C1410 1.403 1_455 S
C1413 C1414 1.392 . S
C1413 C1417 1.495 . S
C1414 C1413 1.392 . S
C1414 C1415 1.385 . S
C1414 C1416 1.478 . S
C1415 H1409 0.930 . S
C1415 C1411 1.400 1_455 S
C1415 C1414 1.385 . S
C1416 C1414 1.478 . S
C1416 C1418 1.381 . S
C1416 C1422 1.383 . S
C1417 C1413 1.495 . S
C1417 H1423 0.959 . S
C1417 H1424 0.961 . S
C1417 H1425 0.960 . S
C1418 C1416 1.381 . S
C1418 C1419 1.394 . S
C1418 H1426 0.930 . S
C1419 C1418 1.394 . S
C1419 C1420 1.383 . S
C1419 H1427 0.929 . S
C1420 C1419 1.383 . S
C1420 C1421 1.377 . S
C1421 H1405 0.930 . S
C1421 C1420 1.377 . S
C1421 C1422 1.379 . S
C1422 H1406 0.931 . S
C1422 C1416 1.383 . S
C1422 C1421 1.379 . S
H1423 C1417 0.959 . S
H1424 C1417 0.961 . S
H1425 C1417 0.960 . S
H1426 C1418 0.930 . S
H1427 C1419 0.929 . S
H1428 C1436 0.929 1_455 S
H1429 C1438 0.930 1_455 S
H1430 C1440 0.930 . S
H1431 C1443 0.929 . S
H1432 C1446 0.930 . S
H1433 C1448 0.973 . S
H1434 C1448 0.995 . S
H1435 C1448 0.930 1_655 S
C1436 H1428 0.929 1_655 S
C1436 C1437 1.377 . S
C1436 C1438 1.384 . S
C1437 C1436 1.377 . S
C1437 C1443 1.390 . S
C1438 H1429 0.930 1_655 S
C1438 C1436 1.384 . S
C1438 C1439 1.372 . S
C1439 C1438 1.372 . S
C1439 C1440 1.400 . S
C1439 C1444 1.490 . S
C1440 H1430 0.930 . S
C1440 C1439 1.400 . S
C1440 C1443 1.386 . S
H1441 C1457 0.930 . S
H1442 C1458 0.931 . S
C1443 H1431 0.929 . S
C1443 C1437 1.390 . S
C1443 C1440 1.386 . S
C1444 C1439 1.490 . S
C1444 C1446 1.395 . S
C1444 C1447 1.403 . S
H1445 C1451 0.930 . S
C1446 H1432 0.930 . S
C1446 C1444 1.395 . S
C1446 C1449 1.403 . S
C1447 C1444 1.403 . S
C1447 C1448 1.508 1_655 S
C1447 C1451 1.400 . S
C1448 H1433 0.973 . S
C1448 H1434 0.995 . S
C1448 H1435 0.930 1_455 S
C1448 C1447 1.508 1_455 S
C1449 C1446 1.403 . S
C1449 C1450 1.392 . S
C1449 C1453 1.495 . S
C1450 C1449 1.392 . S
C1450 C1451 1.385 . S
C1450 C1452 1.478 . S
C1451 H1445 0.930 . S
C1451 C1447 1.400 . S
C1451 C1450 1.385 . S
C1452 C1450 1.478 . S
C1452 C1454 1.381 . S
C1452 C1458 1.383 . S
C1453 C1449 1.495 . S
C1453 H1459 0.959 . S
C1453 H1460 0.961 . S
C1453 H1461 0.960 . S
C1454 C1452 1.381 . S
C1454 C1455 1.394 . S
C1454 H1462 0.930 1_655 S
C1455 C1454 1.394 . S
C1455 C1456 1.383 . S
C1455 H1463 0.929 1_655 S
C1456 C1455 1.383 . S
C1456 C1457 1.377 . S
C1457 H1441 0.930 . S
C1457 C1456 1.377 . S
C1457 C1458 1.379 . S
C1458 H1442 0.931 . S
C1458 C1452 1.383 . S
C1458 C1457 1.379 . S
H1459 C1453 0.959 . S
H1460 C1453 0.961 . S
H1461 C1453 0.960 . S
H1462 C1454 0.930 1_455 S
H1463 C1455 0.929 1_455 S
H1464 C1472 0.929 . S
H1465 C1474 0.930 . S
H1466 C1476 0.930 . S
H1467 C1479 0.929 . S
H1468 C1482 0.930 . S
H1469 C1484 0.960 . S
H1470 C1484 0.960 . S
H1471 C1484 0.960 . S
C1472 H1464 0.929 . S
C1472 C1473 1.377 . S
C1472 C1474 1.384 . S
C1473 C1472 1.377 . S
C1473 C1479 1.390 . S
C1474 H1465 0.930 . S
C1474 C1472 1.384 . S
C1474 C1475 1.372 . S
C1475 C1474 1.372 . S
C1475 C1476 1.400 . S
C1475 C1480 1.490 . S
C1476 H1466 0.930 . S
C1476 C1475 1.400 . S
C1476 C1479 1.386 . S
H1477 C1493 0.930 . S
H1478 C1494 0.931 . S
C1479 H1467 0.929 . S
C1479 C1473 1.390 . S
C1479 C1476 1.386 . S
C1480 C1475 1.490 . S
C1480 C1482 1.395 . S
C1480 C1483 1.403 . S
H1481 C1487 0.930 . S
C1482 H1468 0.930 . S
C1482 C1480 1.395 . S
C1482 C1485 1.403 . S
C1483 C1480 1.403 . S
C1483 C1484 1.524 . S
C1483 C1487 1.400 . S
C1484 H1469 0.960 . S
C1484 H1470 0.960 . S
C1484 H1471 0.960 . S
C1484 C1483 1.524 . S
C1485 C1482 1.403 . S
C1485 C1486 1.392 . S
C1485 C1489 1.495 . S
C1486 C1485 1.392 . S
C1486 C1487 1.385 . S
C1486 C1488 1.478 . S
C1487 H1481 0.930 . S
C1487 C1483 1.400 . S
C1487 C1486 1.385 . S
C1488 C1486 1.478 . S
C1488 C1490 1.381 . S
C1488 C1494 1.383 . S
C1489 C1485 1.495 . S
C1489 H1495 0.959 . S
C1489 H1496 0.961 . S
C1489 H1497 0.960 . S
C1490 C1488 1.381 . S
C1490 C1491 1.394 . S
C1490 H1498 0.930 . S
C1491 C1490 1.394 . S
C1491 C1492 1.383 . S
C1491 H1499 0.929 . S
C1492 C1491 1.383 . S
C1492 C1493 1.377 . S
C1493 H1477 0.930 . S
C1493 C1492 1.377 . S
C1493 C1494 1.379 . S
C1494 H1478 0.931 . S
C1494 C1488 1.383 . S
C1494 C1493 1.379 . S
H1495 C1489 0.959 . S
H1496 C1489 0.961 . S
H1497 C1489 0.960 . S
H1498 C1490 0.930 . S
H1499 C1491 0.929 . S
H1500 C1508 0.929 . S
H1501 C1510 0.930 . S
H1502 C1512 0.930 . S
H1503 C1515 0.929 . S
H1504 C1518 0.930 . S
H1505 C1520 0.960 . S
H1506 C1520 0.960 1_455 S
H1507 C1520 0.960 . S
C1508 H1500 0.929 . S
C1508 C1509 1.377 1_455 S
C1508 C1510 1.384 . S
C1509 C1508 1.377 1_655 S
C1509 C1515 1.390 . S
C1510 H1501 0.930 . S
C1510 C1508 1.384 . S
C1510 C1511 1.372 1_455 S
C1511 C1510 1.372 1_655 S
C1511 C1512 1.400 . S
C1511 C1516 1.490 . S
C1512 H1502 0.930 . S
C1512 C1511 1.400 . S
C1512 C1515 1.386 . S
H1513 C1529 0.930 . S
H1514 C1530 0.931 . S
C1515 H1503 0.929 . S
C1515 C1509 1.390 . S
C1515 C1512 1.386 . S
C1516 C1511 1.490 . S
C1516 C1518 1.395 . S
C1516 C1519 1.403 . S
H1517 C1523 0.930 . S
C1518 H1504 0.930 . S
C1518 C1516 1.395 . S
C1518 C1521 1.403 . S
C1519 C1516 1.403 . S
C1519 C1520 1.524 . S
C1519 C1523 1.400 . S
C1520 H1505 0.960 . S
C1520 H1506 0.960 1_655 S
C1520 H1507 0.960 . S
C1520 C1519 1.524 . S
C1521 C1518 1.403 . S
C1521 C1522 1.392 . S
C1521 C1525 1.495 . S
C1522 C1521 1.392 . S
C1522 C1523 1.385 . S
C1522 C1524 1.478 . S
C1523 H1517 0.930 . S
C1523 C1519 1.400 . S
C1523 C1522 1.385 . S
C1524 C1522 1.478 . S
C1524 C1526 1.381 1_655 S
C1524 C1530 1.383 . S
C1525 C1521 1.495 . S
C1525 H1531 0.959 . S
C1525 H1532 0.961 . S
C1525 H1533 0.960 . S
C1526 C1524 1.381 1_455 S
C1526 C1527 1.394 . S
C1526 H1534 0.930 . S
C1527 C1526 1.394 . S
C1527 C1528 1.383 1_455 S
C1527 H1535 0.929 . S
C1528 C1527 1.383 1_655 S
C1528 C1529 1.377 . S
C1529 H1513 0.930 . S
C1529 C1528 1.377 . S
C1529 C1530 1.379 . S
C1530 H1514 0.931 . S
C1530 C1524 1.383 . S
C1530 C1529 1.379 . S
H1531 C1525 0.959 . S
H1532 C1525 0.961 . S
H1533 C1525 0.960 . S
H1534 C1526 0.930 . S
H1535 C1527 0.929 . S
H1536 C1544 0.929 . S
H1537 C1546 0.930 . S
H1538 C1548 0.930 . S
H1539 C1551 0.929 . S
H1540 C1554 0.930 . S
H1541 C1556 0.960 . S
H1542 C1556 0.960 . S
H1543 C1556 0.960 . S
C1544 H1536 0.929 . S
C1544 C1545 1.377 . S
C1544 C1546 1.384 . S
C1545 C1544 1.377 . S
C1545 C1551 1.390 . S
C1546 H1537 0.930 . S
C1546 C1544 1.384 . S
C1546 C1547 1.372 . S
C1547 C1546 1.372 . S
C1547 C1548 1.400 . S
C1547 C1552 1.490 . S
C1548 H1538 0.930 . S
C1548 C1547 1.400 . S
C1548 C1551 1.386 . S
H1549 C1565 0.930 . S
H1550 C1566 0.931 . S
C1551 H1539 0.929 . S
C1551 C1545 1.390 . S
C1551 C1548 1.386 . S
C1552 C1547 1.490 . S
C1552 C1554 1.395 . S
C1552 C1555 1.403 . S
H1553 C1559 0.930 . S
C1554 H1540 0.930 . S
C1554 C1552 1.395 . S
C1554 C1557 1.403 . S
C1555 C1552 1.403 . S
C1555 C1556 1.524 . S
C1555 C1559 1.400 . S
C1556 H1541 0.960 . S
C1556 H1542 0.960 . S
C1556 H1543 0.960 . S
C1556 C1555 1.524 . S
C1557 C1554 1.403 . S
C1557 C1558 1.392 . S
C1557 C1561 1.495 . S
C1558 C1557 1.392 . S
C1558 C1559 1.385 . S
C1558 C1560 1.478 . S
C1559 H1553 0.930 . S
C1559 C1555 1.400 . S
C1559 C1558 1.385 . S
C1560 C1558 1.478 . S
C1560 C1562 1.381 . S
C1560 C1566 1.383 . S
C1561 C1557 1.495 . S
C1561 H1567 0.959 . S
C1561 H1568 0.961 . S
C1561 H1569 0.960 . S
C1562 C1560 1.381 . S
C1562 C1563 1.394 . S
C1562 H1570 0.930 . S
C1563 C1562 1.394 . S
C1563 C1564 1.383 . S
C1563 H1571 0.929 . S
C1564 C1563 1.383 . S
C1564 C1565 1.377 . S
C1565 H1549 0.930 . S
C1565 C1564 1.377 . S
C1565 C1566 1.379 . S
C1566 H1550 0.931 . S
C1566 C1560 1.383 . S
C1566 C1565 1.379 . S
H1567 C1561 0.959 . S
H1568 C1561 0.961 . S
H1569 C1561 0.960 . S
H1570 C1562 0.930 . S
H1571 C1563 0.929 . S
H1572 C1580 0.929 . S
H1573 C1582 0.930 . S
H1574 C1584 0.930 . S
H1575 C1587 0.929 . S
H1576 C1590 0.930 . S
H1577 C1592 0.960 . S
H1578 C1592 0.960 . S
H1579 C1592 0.960 . S
C1580 H1572 0.929 . S
C1580 C1581 1.377 . S
C1580 C1582 1.384 . S
C1581 C1580 1.377 . S
C1581 C1587 1.390 . S
C1582 H1573 0.930 . S
C1582 C1580 1.384 . S
C1582 C1583 1.372 . S
C1583 C1582 1.372 . S
C1583 C1584 1.400 . S
C1583 C1588 1.490 . S
C1584 H1574 0.930 . S
C1584 C1583 1.400 . S
C1584 C1587 1.386 . S
H1585 C1601 0.930 . S
H1586 C1602 0.931 . S
C1587 H1575 0.929 . S
C1587 C1581 1.390 . S
C1587 C1584 1.386 . S
C1588 C1583 1.490 . S
C1588 C1590 1.395 . S
C1588 C1591 1.403 . S
H1589 C1595 0.930 . S
C1590 H1576 0.930 . S
C1590 C1588 1.395 . S
C1590 C1593 1.403 . S
C1591 C1588 1.403 . S
C1591 C1592 1.524 . S
C1591 C1595 1.400 . S
C1592 H1577 0.960 . S
C1592 H1578 0.960 . S
C1592 H1579 0.960 . S
C1592 C1591 1.524 . S
C1593 C1590 1.403 . S
C1593 C1594 1.392 . S
C1593 C1597 1.495 . S
C1594 C1593 1.392 . S
C1594 C1595 1.385 . S
C1594 C1596 1.478 . S
C1595 H1589 0.930 . S
C1595 C1591 1.400 . S
C1595 C1594 1.385 . S
C1596 C1594 1.478 . S
C1596 C1598 1.381 . S
C1596 C1602 1.383 . S
C1597 C1593 1.495 . S
C1597 H1603 0.959 . S
C1597 H1604 0.961 . S
C1597 H1605 0.960 . S
C1598 C1596 1.381 . S
C1598 C1599 1.394 . S
C1598 H1606 0.930 . S
C1599 C1598 1.394 . S
C1599 C1600 1.383 . S
C1599 H1607 0.929 . S
C1600 C1599 1.383 . S
C1600 C1601 1.377 . S
C1601 H1585 0.930 . S
C1601 C1600 1.377 . S
C1601 C1602 1.379 . S
C1602 H1586 0.931 . S
C1602 C1596 1.383 . S
C1602 C1601 1.379 . S
H1603 C1597 0.959 . S
H1604 C1597 0.961 . S
H1605 C1597 0.960 . S
H1606 C1598 0.930 . S
H1607 C1599 0.929 . S
H1608 C1616 0.929 . S
H1609 C1618 0.894 1_554 S
H1610 C1620 0.930 . S
H1611 C1623 0.929 . S
H1612 C1626 0.930 1_554 S
H1613 C1628 0.960 . S
H1614 C1628 0.960 . S
H1615 C1628 0.960 . S
C1616 H1608 0.929 . S
C1616 C1617 1.377 . S
C1616 C1618 1.384 . S
C1617 C1616 1.377 . S
C1617 C1623 1.390 . S
C1618 H1609 0.894 1_556 S
C1618 C1616 1.384 . S
C1618 C1619 1.372 . S
C1619 C1618 1.372 . S
C1619 C1620 1.400 . S
C1619 C1624 1.490 . S
C1620 H1610 0.930 . S
C1620 C1619 1.400 . S
C1620 C1623 1.386 . S
H1621 C1637 0.930 . S
H1622 C1638 0.931 . S
C1623 H1611 0.929 . S
C1623 C1617 1.390 . S
C1623 C1620 1.386 . S
C1624 C1619 1.490 . S
C1624 C1626 1.395 . S
C1624 C1627 1.403 . S
H1625 C1631 0.930 . S
C1626 H1612 0.930 1_556 S
C1626 C1624 1.395 . S
C1626 C1629 1.403 . S
C1627 C1624 1.403 . S
C1627 C1628 1.524 . S
C1627 C1631 1.400 . S
C1628 H1613 0.960 . S
C1628 H1614 0.960 . S
C1628 H1615 0.960 . S
C1628 C1627 1.524 . S
C1629 C1626 1.403 . S
C1629 C1630 1.392 . S
C1629 C1633 1.495 1_556 S
C1630 C1629 1.392 . S
C1630 C1631 1.385 . S
C1630 C1632 1.478 . S
C1631 H1625 0.930 . S
C1631 C1627 1.400 . S
C1631 C1630 1.385 . S
C1632 C1630 1.478 . S
C1632 C1634 1.381 1_556 S
C1632 C1638 1.383 . S
C1633 C1629 1.495 1_554 S
C1633 H1639 0.959 . S
C1633 H1640 0.961 . S
C1633 H1641 0.960 . S
C1634 C1632 1.381 1_554 S
C1634 C1635 1.394 . S
C1634 H1642 0.930 . S
C1635 C1634 1.394 . S
C1635 C1636 1.383 1_554 S
C1635 H1643 0.929 . S
C1636 C1635 1.383 1_556 S
C1636 C1637 1.377 . S
C1637 H1621 0.930 . S
C1637 C1636 1.377 . S
C1637 C1638 1.379 . S
C1638 H1622 0.931 . S
C1638 C1632 1.383 . S
C1638 C1637 1.379 . S
H1639 C1633 0.959 . S
H1640 C1633 0.961 . S
H1641 C1633 0.960 . S
H1642 C1634 0.930 . S
H1643 C1635 0.929 . S
H1644 C1652 0.929 . S
H1645 C1654 0.930 . S
H1646 C1656 0.930 . S
H1647 C1659 0.929 . S
H1648 C1662 0.930 . S
H1649 C1664 0.960 . S
H1650 C1664 0.960 . S
H1651 C1664 0.960 . S
C1652 H1644 0.929 . S
C1652 C1653 1.377 . S
C1652 C1654 1.384 . S
C1653 C1652 1.377 . S
C1653 C1659 1.390 . S
C1654 H1645 0.930 . S
C1654 C1652 1.384 . S
C1654 C1655 1.372 . S
C1655 C1654 1.372 . S
C1655 C1656 1.400 . S
C1655 C1660 1.490 . S
C1656 H1646 0.930 . S
C1656 C1655 1.400 . S
C1656 C1659 1.386 . S
H1657 C1673 0.930 . S
H1658 C1674 0.931 . S
C1659 H1647 0.929 . S
C1659 C1653 1.390 . S
C1659 C1656 1.386 . S
C1660 C1655 1.490 . S
C1660 C1662 1.395 . S
C1660 C1663 1.403 . S
H1661 C1667 0.930 . S
C1662 H1648 0.930 . S
C1662 C1660 1.395 . S
C1662 C1665 1.403 . S
C1663 C1660 1.403 . S
C1663 C1664 1.524 . S
C1663 C1667 1.400 . S
C1664 H1649 0.960 . S
C1664 H1650 0.960 . S
C1664 H1651 0.960 . S
C1664 C1663 1.524 . S
C1665 C1662 1.403 . S
C1665 C1666 1.392 . S
C1665 C1669 1.495 . S
C1666 C1665 1.392 . S
C1666 C1667 1.385 . S
C1666 C1668 1.478 . S
C1667 H1661 0.930 . S
C1667 C1663 1.400 . S
C1667 C1666 1.385 . S
C1668 C1666 1.478 . S
C1668 C1670 1.381 . S
C1668 C1674 1.383 . S
C1669 C1665 1.495 . S
C1669 H1675 0.959 . S
C1669 H1676 0.961 . S
C1669 H1677 0.960 . S
C1670 C1668 1.381 . S
C1670 C1671 1.394 . S
C1670 H1678 0.930 . S
C1671 C1670 1.394 . S
C1671 C1672 1.383 . S
C1671 H1679 0.929 . S
C1672 C1671 1.383 . S
C1672 C1673 1.377 . S
C1673 H1657 0.930 . S
C1673 C1672 1.377 . S
C1673 C1674 1.379 . S
C1674 H1658 0.931 . S
C1674 C1668 1.383 . S
C1674 C1673 1.379 . S
H1675 C1669 0.959 . S
H1676 C1669 0.961 . S
H1677 C1669 0.960 . S
H1678 C1670 0.930 . S
H1679 C1671 0.929 . S
H1680 C1688 0.929 . S
H1681 C1690 0.930 . S
H1682 C1692 0.930 . S
H1683 C1695 0.929 . S
H1684 C1698 0.930 . S
H1685 C1700 0.960 . S
H1686 C1700 0.960 . S
H1687 C1700 0.960 . S
C1688 H1680 0.929 . S
C1688 C1689 1.377 . S
C1688 C1690 1.384 . S
C1689 C1688 1.377 . S
C1689 C1695 1.390 . S
C1690 H1681 0.930 . S
C1690 C1688 1.384 . S
C1690 C1691 1.372 . S
C1691 C1690 1.372 . S
C1691 C1692 1.400 . S
C1691 C1696 1.490 . S
C1692 H1682 0.930 . S
C1692 C1691 1.400 . S
C1692 C1695 1.386 . S
H1693 C1709 0.930 . S
H1694 C1710 0.931 . S
C1695 H1683 0.929 . S
C1695 C1689 1.390 . S
C1695 C1692 1.386 . S
C1696 C1691 1.490 . S
C1696 C1698 1.395 . S
C1696 C1699 1.403 . S
H1697 C1703 0.930 1_545 S
C1698 H1684 0.930 . S
C1698 C1696 1.395 . S
C1698 C1701 1.403 . S
C1699 C1696 1.403 . S
C1699 C1700 1.524 1_565 S
C1699 C1703 1.400 . S
C1700 H1685 0.960 . S
C1700 H1686 0.960 . S
C1700 H1687 0.960 . S
C1700 C1699 1.524 1_545 S
C1701 C1698 1.403 . S
C1701 C1702 1.392 . S
C1701 C1705 1.495 . S
C1702 C1701 1.392 . S
C1702 C1703 1.385 . S
C1702 C1704 1.478 . S
C1703 H1697 0.930 1_565 S
C1703 C1699 1.400 . S
C1703 C1702 1.385 . S
C1704 C1702 1.478 . S
C1704 C1706 1.381 . S
C1704 C1710 1.383 . S
C1705 C1701 1.495 . S
C1705 H1711 0.959 . S
C1705 H1712 0.961 . S
C1705 H1713 0.960 . S
C1706 C1704 1.381 . S
C1706 C1707 1.394 . S
C1706 H1714 0.930 . S
C1707 C1706 1.394 . S
C1707 C1708 1.383 . S
C1707 H1715 0.929 . S
C1708 C1707 1.383 . S
C1708 C1709 1.377 . S
C1709 H1693 0.930 . S
C1709 C1708 1.377 . S
C1709 C1710 1.379 . S
C1710 H1694 0.931 . S
C1710 C1704 1.383 . S
C1710 C1709 1.379 . S
H1711 C1705 0.959 . S
H1712 C1705 0.961 . S
H1713 C1705 0.960 . S
H1714 C1706 0.930 . S
H1715 C1707 0.929 . S
H1716 C1724 0.929 . S
H1717 C1726 0.930 . S
H1718 C1728 0.930 . S
H1719 C1731 0.952 . S
H1720 C1734 0.929 1_556 S
H1721 C1736 0.960 1_554 S
H1722 C1736 0.960 . S
H1723 C1736 0.960 . S
C1724 H1716 0.929 . S
C1724 C1725 1.377 . S
C1724 C1726 1.384 . S
C1725 C1724 1.377 . S
C1725 C1731 1.367 1_545 S
C1726 H1717 0.930 . S
C1726 C1724 1.384 . S
C1726 C1727 1.372 . S
C1727 C1726 1.372 . S
C1727 C1728 1.400 1_545 S
C1727 C1732 1.490 . S
C1728 H1718 0.930 . S
C1728 C1727 1.400 1_565 S
C1728 C1731 1.387 . S
H1729 C1745 0.930 . S
H1730 C1746 0.931 . S
C1731 H1719 0.952 . S
C1731 C1725 1.367 1_565 S
C1731 C1728 1.387 . S
C1732 C1727 1.490 . S
C1732 C1734 1.395 1_556 S
C1732 C1735 1.403 1_556 S
H1733 C1739 0.930 . S
C1734 H1720 0.929 1_554 S
C1734 C1732 1.395 1_554 S
C1734 C1737 1.404 . S
C1735 C1732 1.403 1_554 S
C1735 C1736 1.524 1_554 S
C1735 C1739 1.400 . S
C1736 H1721 0.960 1_556 S
C1736 H1722 0.960 . S
C1736 H1723 0.960 . S
C1736 C1735 1.524 1_556 S
C1737 C1734 1.404 . S
C1737 C1738 1.394 . S
C1737 C1741 1.493 1_545 S
C1738 C1737 1.394 . S
C1738 C1739 1.385 . S
C1738 C1740 1.478 . S
C1739 H1733 0.930 . S
C1739 C1735 1.400 . S
C1739 C1738 1.385 . S
C1740 C1738 1.478 . S
C1740 C1742 1.381 . S
C1740 C1746 1.383 1_545 S
C1741 C1737 1.493 1_565 S
C1741 H1747 0.959 . S
C1741 H1748 0.961 . S
C1741 H1749 0.960 1_565 S
C1742 C1740 1.381 . S
C1742 C1743 1.394 . S
C1742 H1750 0.930 . S
C1743 C1742 1.394 . S
C1743 C1744 1.359 1_545 S
C1743 H1751 0.929 . S
C1744 C1743 1.359 1_565 S
C1744 C1745 1.399 . S
C1745 H1729 0.930 . S
C1745 C1744 1.399 . S
C1745 C1746 1.379 . S
C1746 H1730 0.931 . S
C1746 C1740 1.383 1_565 S
C1746 C1745 1.379 . S
H1747 C1741 0.959 . S
H1748 C1741 0.961 . S
H1749 C1741 0.960 1_545 S
H1750 C1742 0.930 . S
H1751 C1743 0.929 . S
H1752 C1760 0.929 . S
H1753 C1762 0.930 . S
H1754 C1764 0.930 1_545 S
H1755 C1767 0.936 . S
H1756 C1770 0.930 . S
H1757 C1772 0.960 . S
H1758 C1772 0.960 . S
H1759 C1772 0.960 . S
C1760 H1752 0.929 . S
C1760 C1761 1.377 . S
C1760 C1762 1.384 . S
C1761 C1760 1.377 . S
C1761 C1767 1.390 . S
C1762 H1753 0.930 . S
C1762 C1760 1.384 . S
C1762 C1763 1.372 . S
C1763 C1762 1.372 . S
C1763 C1764 1.400 . S
C1763 C1768 1.490 . S
C1764 H1754 0.930 1_565 S
C1764 C1763 1.400 . S
C1764 C1767 1.386 . S
H1765 C1781 0.930 . S
H1766 C1782 0.931 . S
C1767 H1755 0.936 . S
C1767 C1761 1.390 . S
C1767 C1764 1.386 . S
C1768 C1763 1.490 . S
C1768 C1770 1.395 . S
C1768 C1771 1.403 1_565 S
H1769 C1775 0.930 . S
C1770 H1756 0.930 . S
C1770 C1768 1.395 . S
C1770 C1773 1.403 . S
C1771 C1768 1.403 1_545 S
C1771 C1772 1.524 . S
C1771 C1775 1.400 . S
C1772 H1757 0.960 . S
C1772 H1758 0.960 . S
C1772 H1759 0.960 . S
C1772 C1771 1.524 . S
C1773 C1770 1.403 . S
C1773 C1774 1.392 . S
C1773 C1777 1.495 . S
C1774 C1773 1.392 . S
C1774 C1775 1.385 1_565 S
C1774 C1776 1.478 . S
C1775 H1769 0.930 . S
C1775 C1771 1.400 . S
C1775 C1774 1.385 1_545 S
C1776 C1774 1.478 . S
C1776 C1778 1.381 . S
C1776 C1782 1.383 1_565 S
C1777 C1773 1.495 . S
C1777 H1783 0.959 . S
C1777 H1784 0.961 . S
C1777 H1785 0.960 . S
C1778 C1776 1.381 . S
C1778 C1779 1.394 . S
C1778 H1786 0.930 . S
C1779 C1778 1.394 . S
C1779 C1780 1.381 1_565 S
C1779 H1787 0.929 . S
C1780 C1779 1.381 1_545 S
C1780 C1781 1.378 . S
C1781 H1765 0.930 . S
C1781 C1780 1.378 . S
C1781 C1782 1.379 . S
C1782 H1766 0.931 . S
C1782 C1776 1.383 1_545 S
C1782 C1781 1.379 . S
H1783 C1777 0.959 . S
H1784 C1777 0.961 . S
H1785 C1777 0.960 . S
H1786 C1778 0.930 . S
H1787 C1779 0.929 . S
H1788 C1796 0.929 . S
H1789 C1798 0.930 . S
H1790 C1800 0.930 . S
H1791 C1803 0.929 . S
H1792 C1806 0.930 . S
H1793 C1808 0.960 . S
H1794 C1808 0.960 . S
H1795 C1808 0.960 . S
C1796 H1788 0.929 . S
C1796 C1797 1.377 . S
C1796 C1798 1.384 . S
C1797 C1796 1.377 . S
C1797 C1803 1.390 . S
C1798 H1789 0.930 . S
C1798 C1796 1.384 . S
C1798 C1799 1.372 . S
C1799 C1798 1.372 . S
C1799 C1800 1.400 . S
C1799 C1804 1.490 . S
C1800 H1790 0.930 . S
C1800 C1799 1.400 . S
C1800 C1803 1.386 . S
H1801 C1817 0.930 . S
H1802 C1818 0.931 . S
C1803 H1791 0.929 . S
C1803 C1797 1.390 . S
C1803 C1800 1.386 . S
C1804 C1799 1.490 . S
C1804 C1806 1.395 . S
C1804 C1807 1.403 . S
H1805 C1811 0.930 . S
C1806 H1792 0.930 . S
C1806 C1804 1.395 . S
C1806 C1809 1.403 . S
C1807 C1804 1.403 . S
C1807 C1808 1.524 . S
C1807 C1811 1.400 . S
C1808 H1793 0.960 . S
C1808 H1794 0.960 . S
C1808 H1795 0.960 . S
C1808 C1807 1.524 . S
C1809 C1806 1.403 . S
C1809 C1810 1.392 . S
C1809 C1813 1.495 . S
C1810 C1809 1.392 . S
C1810 C1811 1.385 . S
C1810 C1812 1.478 . S
C1811 H1805 0.930 . S
C1811 C1807 1.400 . S
C1811 C1810 1.385 . S
C1812 C1810 1.478 . S
C1812 C1814 1.381 . S
C1812 C1818 1.383 . S
C1813 C1809 1.495 . S
C1813 H1819 0.959 . S
C1813 H1820 0.961 . S
C1813 H1821 0.960 . S
C1814 C1812 1.381 . S
C1814 C1815 1.394 . S
C1814 H1822 0.930 . S
C1815 C1814 1.394 . S
C1815 C1816 1.383 . S
C1815 H1823 0.929 . S
C1816 C1815 1.383 . S
C1816 C1817 1.377 . S
C1817 H1801 0.930 . S
C1817 C1816 1.377 . S
C1817 C1818 1.379 . S
C1818 H1802 0.931 . S
C1818 C1812 1.383 . S
C1818 C1817 1.379 . S
H1819 C1813 0.959 . S
H1820 C1813 0.961 . S
H1821 C1813 0.960 . S
H1822 C1814 0.930 . S
H1823 C1815 0.929 . S
H1824 C1832 0.929 . S
H1825 C1834 0.930 . S
H1826 C1836 0.930 . S
H1827 C1839 0.929 . S
H1828 C1842 0.930 . S
H1829 C1844 0.960 1_455 S
H1830 C1844 0.960 1_554 S
H1831 C1844 0.960 . S
C1832 H1824 0.929 . S
C1832 C1833 1.377 . S
C1832 C1834 1.384 . S
C1833 C1832 1.377 . S
C1833 C1839 1.390 1_554 S
C1834 H1825 0.930 . S
C1834 C1832 1.384 . S
C1834 C1835 1.372 . S
C1835 C1834 1.372 . S
C1835 C1836 1.400 1_554 S
C1835 C1840 1.468 1_655 S
C1836 H1826 0.930 . S
C1836 C1835 1.400 1_556 S
C1836 C1839 1.386 . S
H1837 C1853 0.930 . S
H1838 C1854 0.931 . S
C1839 H1827 0.929 . S
C1839 C1833 1.390 1_556 S
C1839 C1836 1.386 . S
C1840 C1835 1.468 1_455 S
C1840 C1842 1.407 . S
C1840 C1843 1.413 1_554 S
H1841 C1847 0.930 . S
C1842 H1828 0.930 . S
C1842 C1840 1.407 . S
C1842 C1845 1.403 . S
C1843 C1840 1.413 1_556 S
C1843 C1844 1.524 1_455 S
C1843 C1847 1.400 . S
C1844 H1829 0.960 1_655 S
C1844 H1830 0.960 1_556 S
C1844 H1831 0.960 . S
C1844 C1843 1.524 1_655 S
C1845 C1842 1.403 . S
C1845 C1846 1.392 . S
C1845 C1849 1.495 . S
C1846 C1845 1.392 . S
C1846 C1847 1.385 1_554 S
C1846 C1848 1.478 . S
C1847 H1841 0.930 . S
C1847 C1843 1.400 . S
C1847 C1846 1.385 1_556 S
C1848 C1846 1.478 . S
C1848 C1850 1.381 . S
C1848 C1854 1.383 1_554 S
C1849 C1845 1.495 . S
C1849 H1855 0.959 . S
C1849 H1856 0.961 . S
C1849 H1857 0.960 . S
C1850 C1848 1.381 . S
C1850 C1851 1.394 . S
C1850 H1858 0.930 . S
C1851 C1850 1.394 . S
C1851 C1852 1.383 . S
C1851 H1859 0.929 . S
C1852 C1851 1.383 . S
C1852 C1853 1.377 1_554 S
C1853 H1837 0.930 . S
C1853 C1852 1.377 1_556 S
C1853 C1854 1.379 . S
C1854 H1838 0.931 . S
C1854 C1848 1.383 1_556 S
C1854 C1853 1.379 . S
H1855 C1849 0.959 . S
H1856 C1849 0.961 . S
H1857 C1849 0.960 . S
H1858 C1850 0.930 . S
H1859 C1851 0.929 . S
H1860 C1868 0.929 . S
H1861 C1870 0.930 . S
H1862 C1872 0.930 . S
H1863 C1875 0.929 . S
H1864 C1878 0.930 . S
H1865 C1880 0.960 . S
H1866 C1880 0.960 . S
H1867 C1880 0.960 . S
C1868 H1860 0.929 . S
C1868 C1869 1.360 1_655 S
C1868 C1870 1.384 . S
C1869 C1868 1.360 1_455 S
C1869 C1875 1.407 . S
C1870 H1861 0.930 . S
C1870 C1868 1.384 . S
C1870 C1871 1.372 . S
C1871 C1870 1.372 . S
C1871 C1872 1.400 1_655 S
C1871 C1876 1.490 . S
C1872 H1862 0.930 . S
C1872 C1871 1.400 1_455 S
C1872 C1875 1.386 . S
H1873 C1889 0.930 . S
H1874 C1890 0.931 . S
C1875 H1863 0.929 . S
C1875 C1869 1.407 . S
C1875 C1872 1.386 . S
C1876 C1871 1.490 . S
C1876 C1878 1.395 1_655 S
C1876 C1879 1.403 . S
H1877 C1883 0.930 . S
C1878 H1864 0.930 . S
C1878 C1876 1.395 1_455 S
C1878 C1881 1.403 . S
C1879 C1876 1.403 . S
C1879 C1880 1.524 . S
C1879 C1883 1.400 . S
C1880 H1865 0.960 . S
C1880 H1866 0.960 . S
C1880 H1867 0.960 . S
C1880 C1879 1.524 . S
C1881 C1878 1.403 . S
C1881 C1882 1.392 1_455 S
C1881 C1885 1.495 . S
C1882 C1881 1.392 1_655 S
C1882 C1883 1.385 . S
C1882 C1884 1.478 . S
C1883 H1877 0.930 . S
C1883 C1879 1.400 . S
C1883 C1882 1.385 . S
C1884 C1882 1.478 . S
C1884 C1886 1.381 . S
C1884 C1890 1.383 1_655 S
C1885 C1881 1.495 . S
C1885 H1891 0.959 . S
C1885 H1892 0.961 . S
C1885 H1893 0.960 . S
C1886 C1884 1.381 . S
C1886 C1887 1.394 . S
C1886 H1894 0.930 . S
C1887 C1886 1.394 . S
C1887 C1888 1.383 . S
C1887 H1895 0.929 . S
C1888 C1887 1.383 . S
C1888 C1889 1.377 1_655 S
C1889 H1873 0.930 . S
C1889 C1888 1.377 1_455 S
C1889 C1890 1.379 . S
C1890 H1874 0.931 . S
C1890 C1884 1.383 1_455 S
C1890 C1889 1.379 . S
H1891 C1885 0.959 . S
H1892 C1885 0.961 . S
H1893 C1885 0.960 . S
H1894 C1886 0.930 . S
H1895 C1887 0.929 . S
H1896 C1904 0.929 . S
H1897 C1906 0.930 . S
H1898 C1908 0.930 . S
H1899 C1911 0.929 . S
H1900 C1914 0.930 . S
H1901 C1916 0.960 . S
H1902 C1916 0.960 . S
H1903 C1916 0.960 . S
C1904 H1896 0.929 . S
C1904 C1905 1.377 . S
C1904 C1906 1.384 . S
C1905 C1904 1.377 . S
C1905 C1911 1.390 . S
C1906 H1897 0.930 . S
C1906 C1904 1.384 . S
C1906 C1907 1.372 . S
C1907 C1906 1.372 . S
C1907 C1908 1.400 . S
C1907 C1912 1.490 . S
C1908 H1898 0.930 . S
C1908 C1907 1.400 . S
C1908 C1911 1.386 . S
H1909 C1925 0.930 . S
H1910 C1926 0.931 . S
C1911 H1899 0.929 . S
C1911 C1905 1.390 . S
C1911 C1908 1.386 . S
C1912 C1907 1.490 . S
C1912 C1914 1.395 . S
C1912 C1915 1.403 . S
H1913 C1919 0.930 . S
C1914 H1900 0.930 . S
C1914 C1912 1.395 . S
C1914 C1917 1.403 . S
C1915 C1912 1.403 . S
C1915 C1916 1.524 . S
C1915 C1919 1.400 . S
C1916 H1901 0.960 . S
C1916 H1902 0.960 . S
C1916 H1903 0.960 . S
C1916 C1915 1.524 . S
C1917 C1914 1.403 . S
C1917 C1918 1.392 . S
C1917 C1921 1.495 . S
C1918 C1917 1.392 . S
C1918 C1919 1.385 . S
C1918 C1920 1.478 . S
C1919 H1913 0.930 . S
C1919 C1915 1.400 . S
C1919 C1918 1.385 . S
C1920 C1918 1.478 . S
C1920 C1922 1.381 . S
C1920 C1926 1.383 . S
C1921 C1917 1.495 . S
C1921 H1927 0.959 . S
C1921 H1928 0.961 . S
C1921 H1929 0.960 . S
C1922 C1920 1.381 . S
C1922 C1923 1.394 . S
C1922 H1930 0.930 . S
C1923 C1922 1.394 . S
C1923 C1924 1.383 . S
C1923 H1931 0.929 . S
C1924 C1923 1.383 . S
C1924 C1925 1.377 . S
C1925 H1909 0.930 . S
C1925 C1924 1.377 . S
C1925 C1926 1.379 . S
C1926 H1910 0.931 . S
C1926 C1920 1.383 . S
C1926 C1925 1.379 . S
H1927 C1921 0.959 . S
H1928 C1921 0.961 . S
H1929 C1921 0.960 . S
H1930 C1922 0.930 . S
H1931 C1923 0.929 . S
H1932 C1940 0.929 . S
H1933 C1942 0.930 . S
H1934 C1944 0.930 . S
H1935 C1947 0.929 . S
H1936 C1950 0.930 . S
H1937 C1952 0.960 . S
H1938 C1952 0.960 . S
H1939 C1952 0.960 . S
C1940 H1932 0.929 . S
C1940 C1941 1.377 . S
C1940 C1942 1.384 . S
C1941 C1940 1.377 . S
C1941 C1947 1.390 . S
C1942 H1933 0.930 . S
C1942 C1940 1.384 . S
C1942 C1943 1.372 . S
C1943 C1942 1.372 . S
C1943 C1944 1.400 . S
C1943 C1948 1.490 . S
C1944 H1934 0.930 . S
C1944 C1943 1.400 . S
C1944 C1947 1.386 . S
H1945 C1961 0.930 . S
H1946 C1962 0.931 . S
C1947 H1935 0.929 . S
C1947 C1941 1.390 . S
C1947 C1944 1.386 . S
C1948 C1943 1.490 . S
C1948 C1950 1.395 . S
C1948 C1951 1.403 . S
H1949 C1955 0.930 . S
C1950 H1936 0.930 . S
C1950 C1948 1.395 . S
C1950 C1953 1.403 1_655 S
C1951 C1948 1.403 . S
C1951 C1952 1.524 . S
C1951 C1955 1.400 1_655 S
C1952 H1937 0.960 . S
C1952 H1938 0.960 . S
C1952 H1939 0.960 . S
C1952 C1951 1.524 . S
C1953 C1950 1.403 1_455 S
C1953 C1954 1.392 . S
C1953 C1957 1.495 . S
C1954 C1953 1.392 . S
C1954 C1955 1.385 . S
C1954 C1956 1.478 . S
C1955 H1949 0.930 . S
C1955 C1951 1.400 1_455 S
C1955 C1954 1.385 . S
C1956 C1954 1.478 . S
C1956 C1958 1.381 . S
C1956 C1962 1.383 . S
C1957 C1953 1.495 . S
C1957 H1963 0.959 . S
C1957 H1964 0.961 . S
C1957 H1965 0.960 . S
C1958 C1956 1.381 . S
C1958 C1959 1.394 . S
C1958 H1966 0.930 . S
C1959 C1958 1.394 . S
C1959 C1960 1.383 . S
C1959 H1967 0.929 . S
C1960 C1959 1.383 . S
C1960 C1961 1.377 . S
C1961 H1945 0.930 . S
C1961 C1960 1.377 . S
C1961 C1962 1.379 . S
C1962 H1946 0.931 . S
C1962 C1956 1.383 . S
C1962 C1961 1.379 . S
H1963 C1957 0.959 . S
H1964 C1957 0.961 . S
H1965 C1957 0.960 . S
H1966 C1958 0.930 . S
H1967 C1959 0.929 . S
H1968 C1976 0.929 . S
H1969 C1978 0.930 . S
H1970 C1980 0.930 . S
H1971 C1983 0.929 . S
H1972 C1986 0.930 . S
H1973 C1988 0.960 . S
H1974 C1988 0.960 . S
H1975 C1988 0.960 . S
C1976 H1968 0.929 . S
C1976 C1977 1.377 . S
C1976 C1978 1.384 . S
C1977 C1976 1.377 . S
C1977 C1983 1.390 . S
C1978 H1969 0.930 . S
C1978 C1976 1.384 . S
C1978 C1979 1.372 . S
C1979 C1978 1.372 . S
C1979 C1980 1.400 . S
C1979 C1984 1.490 . S
C1980 H1970 0.930 . S
C1980 C1979 1.400 . S
C1980 C1983 1.386 . S
H1981 C1997 0.930 . S
H1982 C1998 0.931 . S
C1983 H1971 0.929 . S
C1983 C1977 1.390 . S
C1983 C1980 1.386 . S
C1984 C1979 1.490 . S
C1984 C1986 1.395 . S
C1984 C1987 1.403 1_455 S
H1985 C1991 0.893 1_655 S
C1986 H1972 0.930 . S
C1986 C1984 1.395 . S
C1986 C1989 1.403 . S
C1987 C1984 1.403 1_655 S
C1987 C1988 1.524 . S
C1987 C1991 1.394 1_655 S
C1988 H1973 0.960 . S
C1988 H1974 0.960 . S
C1988 H1975 0.960 . S
C1988 C1987 1.524 . S
C1989 C1986 1.403 . S
C1989 C1990 1.392 . S
C1989 C1993 1.495 . S
C1990 C1989 1.392 . S
C1990 C1991 1.429 . S
C1990 C1992 1.478 . S
C1991 H1985 0.893 1_455 S
C1991 C1987 1.394 1_455 S
C1991 C1990 1.429 . S
C1992 C1990 1.478 . S
C1992 C1994 1.381 . S
C1992 C1998 1.383 . S
C1993 C1989 1.495 . S
C1993 H1999 0.959 . S
C1993 H2000 0.961 . S
C1993 H2001 0.960 . S
C1994 C1992 1.381 . S
C1994 C1995 1.394 . S
C1994 H2002 0.930 . S
C1995 C1994 1.394 . S
C1995 C1996 1.383 . S
C1995 H2003 0.929 . S
C1996 C1995 1.383 . S
C1996 C1997 1.377 . S
C1997 H1981 0.930 . S
C1997 C1996 1.377 . S
C1997 C1998 1.379 . S
C1998 H1982 0.931 . S
C1998 C1992 1.383 . S
C1998 C1997 1.379 . S
H1999 C1993 0.959 . S
H2000 C1993 0.961 . S
H2001 C1993 0.960 . S
H2002 C1994 0.930 . S
H2003 C1995 0.929 . S
H2004 C2012 0.929 . S
H2005 C2014 0.930 . S
H2006 C2016 0.930 . S
H2007 C2019 0.929 . S
H2008 C2022 0.930 . S
H2009 C2024 0.960 . S
H2010 C2024 0.960 . S
H2011 C2024 0.960 . S
C2012 H2004 0.929 . S
C2012 C2013 1.377 . S
C2012 C2014 1.384 . S
C2013 C2012 1.377 . S
C2013 C2019 1.390 . S
C2014 H2005 0.930 . S
C2014 C2012 1.384 . S
C2014 C2015 1.372 . S
C2015 C2014 1.372 . S
C2015 C2016 1.400 . S
C2015 C2020 1.490 . S
C2016 H2006 0.930 . S
C2016 C2015 1.400 . S
C2016 C2019 1.386 . S
H2017 C2033 0.930 . S
H2018 C2034 0.931 . S
C2019 H2007 0.929 . S
C2019 C2013 1.390 . S
C2019 C2016 1.386 . S
C2020 C2015 1.490 . S
C2020 C2022 1.395 . S
C2020 C2023 1.403 . S
H2021 C2027 0.930 . S
C2022 H2008 0.930 . S
C2022 C2020 1.395 . S
C2022 C2025 1.403 . S
C2023 C2020 1.403 . S
C2023 C2024 1.524 . S
C2023 C2027 1.400 . S
C2024 H2009 0.960 . S
C2024 H2010 0.960 . S
C2024 H2011 0.960 . S
C2024 C2023 1.524 . S
C2025 C2022 1.403 . S
C2025 C2026 1.392 . S
C2025 C2029 1.495 . S
C2026 C2025 1.392 . S
C2026 C2027 1.385 . S
C2026 C2028 1.478 . S
C2027 H2021 0.930 . S
C2027 C2023 1.400 . S
C2027 C2026 1.385 . S
C2028 C2026 1.478 . S
C2028 C2030 1.381 . S
C2028 C2034 1.383 . S
C2029 C2025 1.495 . S
C2029 H2035 0.959 . S
C2029 H2036 0.961 . S
C2029 H2037 0.960 . S
C2030 C2028 1.381 . S
C2030 C2031 1.394 . S
C2030 H2038 0.930 . S
C2031 C2030 1.394 . S
C2031 C2032 1.383 . S
C2031 H2039 0.929 . S
C2032 C2031 1.383 . S
C2032 C2033 1.377 . S
C2033 H2017 0.930 . S
C2033 C2032 1.377 . S
C2033 C2034 1.379 . S
C2034 H2018 0.931 . S
C2034 C2028 1.383 . S
C2034 C2033 1.379 . S
H2035 C2029 0.959 . S
H2036 C2029 0.961 . S
H2037 C2029 0.960 . S
H2038 C2030 0.930 . S
H2039 C2031 0.929 . S
H2040 C2048 0.929 . S
H2041 C2050 0.930 . S
H2042 C2052 0.930 . S
H2043 C2055 0.929 . S
H2044 C2058 0.930 . S
H2045 C2060 0.960 . S
H2046 C2060 0.960 . S
H2047 C2060 0.960 . S
C2048 H2040 0.929 . S
C2048 C2049 1.377 . S
C2048 C2050 1.384 . S
C2049 C2048 1.377 . S
C2049 C2055 1.390 . S
C2050 H2041 0.930 . S
C2050 C2048 1.384 . S
C2050 C2051 1.372 . S
C2051 C2050 1.372 . S
C2051 C2052 1.400 . S
C2051 C2056 1.490 . S
C2052 H2042 0.930 . S
C2052 C2051 1.400 . S
C2052 C2055 1.386 . S
H2053 C2069 0.930 . S
H2054 C2070 0.931 . S
C2055 H2043 0.929 . S
C2055 C2049 1.390 . S
C2055 C2052 1.386 . S
C2056 C2051 1.490 . S
C2056 C2058 1.395 . S
C2056 C2059 1.403 . S
H2057 C2063 0.930 . S
C2058 H2044 0.930 . S
C2058 C2056 1.395 . S
C2058 C2061 1.403 1_545 S
C2059 C2056 1.403 . S
C2059 C2060 1.524 . S
C2059 C2063 1.400 1_545 S
C2060 H2045 0.960 . S
C2060 H2046 0.960 . S
C2060 H2047 0.960 . S
C2060 C2059 1.524 . S
C2061 C2058 1.403 1_565 S
C2061 C2062 1.392 . S
C2061 C2065 1.495 . S
C2062 C2061 1.392 . S
C2062 C2063 1.385 . S
C2062 C2064 1.478 . S
C2063 H2057 0.930 . S
C2063 C2059 1.400 1_565 S
C2063 C2062 1.385 . S
C2064 C2062 1.478 . S
C2064 C2066 1.381 . S
C2064 C2070 1.383 . S
C2065 C2061 1.495 . S
C2065 H2071 0.959 . S
C2065 H2072 0.961 . S
C2065 H2073 0.960 . S
C2066 C2064 1.381 . S
C2066 C2067 1.394 . S
C2066 H2074 0.930 . S
C2067 C2066 1.394 . S
C2067 C2068 1.383 . S
C2067 H2075 0.929 . S
C2068 C2067 1.383 . S
C2068 C2069 1.377 . S
C2069 H2053 0.930 . S
C2069 C2068 1.377 . S
C2069 C2070 1.379 . S
C2070 H2054 0.931 . S
C2070 C2064 1.383 . S
C2070 C2069 1.379 . S
H2071 C2065 0.959 . S
H2072 C2065 0.961 . S
H2073 C2065 0.960 . S
H2074 C2066 0.930 . S
H2075 C2067 0.929 . S
H2076 C2084 0.896 1_556 S
H2077 C2086 0.930 1_556 S
H2078 C2088 0.930 . S
H2079 C2091 0.929 . S
H2080 C2094 0.930 . S
H2081 C2096 0.959 1_556 S
H2082 C2096 0.954 1_556 S
H2083 C2096 0.965 . S
C2084 H2076 0.896 1_554 S
C2084 C2085 1.409 . S
C2084 C2086 1.388 . S
C2085 C2084 1.409 . S
C2085 C2091 1.390 . S
C2086 H2077 0.930 1_554 S
C2086 C2084 1.388 . S
C2086 C2087 1.372 . S
C2087 C2086 1.372 . S
C2087 C2088 1.400 . S
C2087 C2092 1.490 . S
C2088 H2078 0.930 . S
C2088 C2087 1.400 . S
C2088 C2091 1.386 . S
H2089 C2105 0.930 . S
H2090 C2106 0.931 . S
C2091 H2079 0.929 . S
C2091 C2085 1.390 . S
C2091 C2088 1.386 . S
C2092 C2087 1.490 . S
C2092 C2094 1.395 . S
C2092 C2095 1.403 . S
H2093 C2099 0.930 . S
C2094 H2080 0.930 . S
C2094 C2092 1.395 . S
C2094 C2097 1.403 . S
C2095 C2092 1.403 . S
C2095 C2096 1.527 . S
C2095 C2099 1.400 . S
C2096 H2081 0.959 1_554 S
C2096 H2082 0.954 1_554 S
C2096 H2083 0.965 . S
C2096 C2095 1.527 . S
C2097 C2094 1.403 . S
C2097 C2098 1.392 . S
C2097 C2101 1.495 . S
C2098 C2097 1.392 . S
C2098 C2099 1.385 . S
C2098 C2100 1.478 . S
C2099 H2093 0.930 . S
C2099 C2095 1.400 . S
C2099 C2098 1.385 . S
C2100 C2098 1.478 . S
C2100 C2102 1.381 . S
C2100 C2106 1.383 . S
C2101 C2097 1.495 . S
C2101 H2107 0.959 . S
C2101 H2108 0.961 . S
C2101 H2109 0.960 . S
C2102 C2100 1.381 . S
C2102 C2103 1.394 . S
C2102 H2110 0.930 1_554 S
C2103 C2102 1.394 . S
C2103 C2104 1.383 . S
C2103 H2111 0.912 1_554 S
C2104 C2103 1.383 . S
C2104 C2105 1.377 . S
C2105 H2089 0.930 . S
C2105 C2104 1.377 . S
C2105 C2106 1.379 . S
C2106 H2090 0.931 . S
C2106 C2100 1.383 . S
C2106 C2105 1.379 . S
H2107 C2101 0.959 . S
H2108 C2101 0.961 . S
H2109 C2101 0.960 . S
H2110 C2102 0.930 1_556 S
H2111 C2103 0.912 1_556 S
H2112 C2120 0.929 . S
H2113 C2122 0.930 . S
H2114 C2124 0.930 . S
H2115 C2127 0.929 . S
H2116 C2130 0.933 1_545 S
H2117 C2132 0.960 1_565 S
H2118 C2132 0.960 . S
H2119 C2132 0.960 1_655 S
C2120 H2112 0.929 . S
C2120 C2121 1.377 . S
C2120 C2122 1.384 . S
C2121 C2120 1.377 . S
C2121 C2127 1.390 . S
C2122 H2113 0.930 . S
C2122 C2120 1.384 . S
C2122 C2123 1.372 . S
C2123 C2122 1.372 . S
C2123 C2124 1.400 . S
C2123 C2128 1.490 . S
C2124 H2114 0.930 . S
C2124 C2123 1.400 . S
C2124 C2127 1.386 . S
H2125 C2141 0.930 . S
H2126 C2142 0.931 . S
C2127 H2115 0.929 . S
C2127 C2121 1.390 . S
C2127 C2124 1.386 . S
C2128 C2123 1.490 . S
C2128 C2130 1.395 1_545 S
C2128 C2131 1.403 1_545 S
H2129 C2135 0.930 . S
C2130 H2116 0.933 1_565 S
C2130 C2128 1.395 1_565 S
C2130 C2133 1.403 . S
C2131 C2128 1.403 1_565 S
C2131 C2132 1.524 1_665 S
C2131 C2135 1.400 . S
C2132 H2117 0.960 1_545 S
C2132 H2118 0.960 . S
C2132 H2119 0.960 1_455 S
C2132 C2131 1.524 1_445 S
C2133 C2130 1.403 . S
C2133 C2134 1.392 . S
C2133 C2137 1.495 . S
C2134 C2133 1.392 . S
C2134 C2135 1.385 . S
C2134 C2136 1.478 . S
C2135 H2129 0.930 . S
C2135 C2131 1.400 . S
C2135 C2134 1.385 . S
C2136 C2134 1.478 . S
C2136 C2138 1.381 . S
C2136 C2142 1.383 . S
C2137 C2133 1.495 . S
C2137 H2143 0.959 . S
C2137 H2144 0.961 . S
C2137 H2145 0.960 . S
C2138 C2136 1.381 . S
C2138 C2139 1.394 . S
C2138 H2146 0.930 . S
C2139 C2138 1.394 . S
C2139 C2140 1.383 . S
C2139 H2147 0.929 . S
C2140 C2139 1.383 . S
C2140 C2141 1.377 . S
C2141 H2125 0.930 . S
C2141 C2140 1.377 . S
C2141 C2142 1.379 . S
C2142 H2126 0.931 . S
C2142 C2136 1.383 . S
C2142 C2141 1.379 . S
H2143 C2137 0.959 . S
H2144 C2137 0.961 . S
H2145 C2137 0.960 . S
H2146 C2138 0.930 . S
H2147 C2139 0.929 . S
H2148 C2156 0.929 . S
H2149 C2158 0.930 . S
H2150 C2160 0.930 . S
H2151 C2163 0.929 . S
H2152 C2166 0.930 . S
H2153 C2168 0.960 . S
H2154 C2168 0.960 . S
H2155 C2168 0.960 . S
C2156 H2148 0.929 . S
C2156 C2157 1.377 . S
C2156 C2158 1.384 . S
C2157 C2156 1.377 . S
C2157 C2163 1.390 . S
C2158 H2149 0.930 . S
C2158 C2156 1.384 . S
C2158 C2159 1.372 . S
C2159 C2158 1.372 . S
C2159 C2160 1.400 . S
C2159 C2164 1.490 . S
C2160 H2150 0.930 . S
C2160 C2159 1.400 . S
C2160 C2163 1.386 . S
H2161 C2177 0.930 . S
H2162 C2178 0.931 . S
C2163 H2151 0.929 . S
C2163 C2157 1.390 . S
C2163 C2160 1.386 . S
C2164 C2159 1.490 . S
C2164 C2166 1.395 . S
C2164 C2167 1.403 . S
H2165 C2171 0.930 . S
C2166 H2152 0.930 . S
C2166 C2164 1.395 . S
C2166 C2169 1.403 . S
C2167 C2164 1.403 . S
C2167 C2168 1.524 . S
C2167 C2171 1.400 . S
C2168 H2153 0.960 . S
C2168 H2154 0.960 . S
C2168 H2155 0.960 . S
C2168 C2167 1.524 . S
C2169 C2166 1.403 . S
C2169 C2170 1.392 . S
C2169 C2173 1.495 . S
C2170 C2169 1.392 . S
C2170 C2171 1.385 . S
C2170 C2172 1.478 . S
C2171 H2165 0.930 . S
C2171 C2167 1.400 . S
C2171 C2170 1.385 . S
C2172 C2170 1.478 . S
C2172 C2174 1.381 . S
C2172 C2178 1.383 . S
C2173 C2169 1.495 . S
C2173 H2179 0.959 . S
C2173 H2180 0.961 . S
C2173 H2181 0.960 . S
C2174 C2172 1.381 . S
C2174 C2175 1.394 . S
C2174 H2182 0.930 . S
C2175 C2174 1.394 . S
C2175 C2176 1.383 . S
C2175 H2183 0.929 . S
C2176 C2175 1.383 . S
C2176 C2177 1.377 . S
C2177 H2161 0.930 . S
C2177 C2176 1.377 . S
C2177 C2178 1.379 . S
C2178 H2162 0.931 . S
C2178 C2172 1.383 . S
C2178 C2177 1.379 . S
H2179 C2173 0.959 . S
H2180 C2173 0.961 . S
H2181 C2173 0.960 . S
H2182 C2174 0.930 . S
H2183 C2175 0.929 . S
H2184 C2192 0.929 . S
H2185 C2194 0.930 . S
H2186 C2196 0.930 . S
H2187 C2199 0.929 . S
H2188 C2202 0.930 . S
H2189 C2204 0.960 . S
H2190 C2204 0.960 . S
H2191 C2204 0.960 . S
C2192 H2184 0.929 . S
C2192 C2193 1.377 . S
C2192 C2194 1.384 . S
C2193 C2192 1.377 . S
C2193 C2199 1.390 . S
C2194 H2185 0.930 . S
C2194 C2192 1.384 . S
C2194 C2195 1.372 . S
C2195 C2194 1.372 . S
C2195 C2196 1.400 . S
C2195 C2200 1.490 . S
C2196 H2186 0.930 . S
C2196 C2195 1.400 . S
C2196 C2199 1.386 . S
H2197 C2213 0.930 . S
H2198 C2214 0.931 . S
C2199 H2187 0.929 . S
C2199 C2193 1.390 . S
C2199 C2196 1.386 . S
C2200 C2195 1.490 . S
C2200 C2202 1.395 . S
C2200 C2203 1.403 . S
H2201 C2207 0.930 1_554 S
C2202 H2188 0.930 . S
C2202 C2200 1.395 . S
C2202 C2205 1.403 . S
C2203 C2200 1.403 . S
C2203 C2204 1.524 . S
C2203 C2207 1.400 . S
C2204 H2189 0.960 . S
C2204 H2190 0.960 . S
C2204 H2191 0.960 . S
C2204 C2203 1.524 . S
C2205 C2202 1.403 . S
C2205 C2206 1.392 1_556 S
C2205 C2209 1.495 1_556 S
C2206 C2205 1.392 1_554 S
C2206 C2207 1.385 1_554 S
C2206 C2208 1.478 . S
C2207 H2201 0.930 1_556 S
C2207 C2203 1.400 . S
C2207 C2206 1.385 1_556 S
C2208 C2206 1.478 . S
C2208 C2210 1.381 . S
C2208 C2214 1.383 . S
C2209 C2205 1.495 1_554 S
C2209 H2215 0.959 1_554 S
C2209 H2216 0.961 . S
C2209 H2217 0.960 . S
C2210 C2208 1.381 . S
C2210 C2211 1.394 . S
C2210 H2218 0.930 . S
C2211 C2210 1.394 . S
C2211 C2212 1.383 . S
C2211 H2219 0.929 . S
C2212 C2211 1.383 . S
C2212 C2213 1.377 . S
C2213 H2197 0.930 . S
C2213 C2212 1.377 . S
C2213 C2214 1.379 . S
C2214 H2198 0.931 . S
C2214 C2208 1.383 . S
C2214 C2213 1.379 . S
H2215 C2209 0.959 1_556 S
H2216 C2209 0.961 . S
H2217 C2209 0.960 . S
H2218 C2210 0.930 . S
H2219 C2211 0.929 . S
H2220 C2228 0.929 . S
H2221 C2230 0.930 . S
H2222 C2232 0.930 . S
H2223 C2235 0.929 . S
H2224 C2238 0.930 . S
H2225 C2240 0.960 . S
H2226 C2240 0.960 . S
H2227 C2240 0.960 . S
C2228 H2220 0.929 . S
C2228 C2229 1.377 . S
C2228 C2230 1.384 . S
C2229 C2228 1.377 . S
C2229 C2235 1.390 . S
C2230 H2221 0.930 . S
C2230 C2228 1.384 . S
C2230 C2231 1.372 . S
C2231 C2230 1.372 . S
C2231 C2232 1.400 . S
C2231 C2236 1.490 . S
C2232 H2222 0.930 . S
C2232 C2231 1.400 . S
C2232 C2235 1.386 . S
H2233 C2249 0.930 . S
H2234 C2250 0.931 . S
C2235 H2223 0.929 . S
C2235 C2229 1.390 . S
C2235 C2232 1.386 . S
C2236 C2231 1.490 . S
C2236 C2238 1.395 . S
C2236 C2239 1.403 . S
H2237 C2243 0.930 . S
C2238 H2224 0.930 . S
C2238 C2236 1.395 . S
C2238 C2241 1.403 . S
C2239 C2236 1.403 . S
C2239 C2240 1.524 . S
C2239 C2243 1.400 . S
C2240 H2225 0.960 . S
C2240 H2226 0.960 . S
C2240 H2227 0.960 . S
C2240 C2239 1.524 . S
C2241 C2238 1.403 . S
C2241 C2242 1.392 . S
C2241 C2245 1.495 . S
C2242 C2241 1.392 . S
C2242 C2243 1.385 . S
C2242 C2244 1.478 . S
C2243 H2237 0.930 . S
C2243 C2239 1.400 . S
C2243 C2242 1.385 . S
C2244 C2242 1.478 . S
C2244 C2246 1.381 . S
C2244 C2250 1.383 . S
C2245 C2241 1.495 . S
C2245 H2251 0.959 . S
C2245 H2252 0.961 . S
C2245 H2253 0.960 . S
C2246 C2244 1.381 . S
C2246 C2247 1.394 . S
C2246 H2254 0.930 . S
C2247 C2246 1.394 . S
C2247 C2248 1.383 . S
C2247 H2255 0.929 . S
C2248 C2247 1.383 . S
C2248 C2249 1.377 . S
C2249 H2233 0.930 . S
C2249 C2248 1.377 . S
C2249 C2250 1.379 . S
C2250 H2234 0.931 . S
C2250 C2244 1.383 . S
C2250 C2249 1.379 . S
H2251 C2245 0.959 . S
H2252 C2245 0.961 . S
H2253 C2245 0.960 . S
H2254 C2246 0.930 . S
H2255 C2247 0.929 . S
H2256 C2264 0.929 . S
H2257 C2266 0.930 . S
H2258 C2268 0.930 . S
H2259 C2271 0.929 . S
H2260 C2274 0.930 . S
H2261 C2276 0.960 . S
H2262 C2276 0.960 . S
H2263 C2276 0.960 . S
C2264 H2256 0.929 . S
C2264 C2265 1.377 . S
C2264 C2266 1.384 . S
C2265 C2264 1.377 . S
C2265 C2271 1.390 . S
C2266 H2257 0.930 . S
C2266 C2264 1.384 . S
C2266 C2267 1.372 . S
C2267 C2266 1.372 . S
C2267 C2268 1.400 . S
C2267 C2272 1.490 . S
C2268 H2258 0.930 . S
C2268 C2267 1.400 . S
C2268 C2271 1.386 . S
H2269 C2285 0.930 . S
H2270 C2286 0.931 . S
C2271 H2259 0.929 . S
C2271 C2265 1.390 . S
C2271 C2268 1.386 . S
C2272 C2267 1.490 . S
C2272 C2274 1.395 . S
C2272 C2275 1.403 . S
H2273 C2279 0.930 . S
C2274 H2260 0.930 . S
C2274 C2272 1.395 . S
C2274 C2277 1.403 . S
C2275 C2272 1.403 . S
C2275 C2276 1.524 . S
C2275 C2279 1.400 . S
C2276 H2261 0.960 . S
C2276 H2262 0.960 . S
C2276 H2263 0.960 . S
C2276 C2275 1.524 . S
C2277 C2274 1.403 . S
C2277 C2278 1.392 . S
C2277 C2281 1.495 . S
C2278 C2277 1.392 . S
C2278 C2279 1.385 . S
C2278 C2280 1.478 . S
C2279 H2273 0.930 . S
C2279 C2275 1.400 . S
C2279 C2278 1.385 . S
C2280 C2278 1.478 . S
C2280 C2282 1.381 . S
C2280 C2286 1.383 . S
C2281 C2277 1.495 . S
C2281 H2287 0.959 . S
C2281 H2288 0.961 . S
C2281 H2289 0.960 . S
C2282 C2280 1.381 . S
C2282 C2283 1.394 . S
C2282 H2290 0.930 . S
C2283 C2282 1.394 . S
C2283 C2284 1.383 . S
C2283 H2291 0.929 . S
C2284 C2283 1.383 . S
C2284 C2285 1.377 . S
C2285 H2269 0.930 . S
C2285 C2284 1.377 . S
C2285 C2286 1.379 . S
C2286 H2270 0.931 . S
C2286 C2280 1.383 . S
C2286 C2285 1.379 . S
H2287 C2281 0.959 . S
H2288 C2281 0.961 . S
H2289 C2281 0.960 . S
H2290 C2282 0.930 . S
H2291 C2283 0.929 . S
H2292 C2300 0.929 . S
H2293 C2302 0.930 . S
H2294 C2304 0.930 . S
H2295 C2307 0.929 . S
H2296 C2310 0.930 . S
H2297 C2312 0.960 . S
H2298 C2312 0.960 . S
H2299 C2312 0.960 . S
C2300 H2292 0.929 . S
C2300 C2301 1.377 . S
C2300 C2302 1.384 . S
C2301 C2300 1.377 . S
C2301 C2307 1.390 . S
C2302 H2293 0.930 . S
C2302 C2300 1.384 . S
C2302 C2303 1.372 . S
C2303 C2302 1.372 . S
C2303 C2304 1.400 . S
C2303 C2308 1.490 . S
C2304 H2294 0.930 . S
C2304 C2303 1.400 . S
C2304 C2307 1.386 . S
H2305 C2321 0.930 . S
H2306 C2322 0.931 . S
C2307 H2295 0.929 . S
C2307 C2301 1.390 . S
C2307 C2304 1.386 . S
C2308 C2303 1.490 . S
C2308 C2310 1.395 . S
C2308 C2311 1.403 . S
H2309 C2315 0.930 . S
C2310 H2296 0.930 . S
C2310 C2308 1.395 . S
C2310 C2313 1.403 . S
C2311 C2308 1.403 . S
C2311 C2312 1.524 . S
C2311 C2315 1.400 . S
C2312 H2297 0.960 . S
C2312 H2298 0.960 . S
C2312 H2299 0.960 . S
C2312 C2311 1.524 . S
C2313 C2310 1.403 . S
C2313 C2314 1.392 . S
C2313 C2317 1.495 . S
C2314 C2313 1.392 . S
C2314 C2315 1.385 . S
C2314 C2316 1.478 . S
C2315 H2309 0.930 . S
C2315 C2311 1.400 . S
C2315 C2314 1.385 . S
C2316 C2314 1.478 . S
C2316 C2318 1.381 . S
C2316 C2322 1.383 . S
C2317 C2313 1.495 . S
C2317 H2323 0.959 . S
C2317 H2324 0.961 . S
C2317 H2325 0.960 . S
C2318 C2316 1.381 . S
C2318 C2319 1.394 . S
C2318 H2326 0.930 . S
C2319 C2318 1.394 . S
C2319 C2320 1.383 . S
C2319 H2327 0.929 . S
C2320 C2319 1.383 . S
C2320 C2321 1.377 . S
C2321 H2305 0.930 . S
C2321 C2320 1.377 . S
C2321 C2322 1.379 . S
C2322 H2306 0.931 . S
C2322 C2316 1.383 . S
C2322 C2321 1.379 . S
H2323 C2317 0.959 . S
H2324 C2317 0.961 . S
H2325 C2317 0.960 . S
H2326 C2318 0.930 . S
H2327 C2319 0.929 . S
H2328 C2336 0.929 . S
H2329 C2338 0.930 . S
H2330 C2340 0.930 . S
H2331 C2343 0.929 . S
H2332 C2346 0.930 . S
H2333 C2348 0.960 . S
H2334 C2348 0.960 . S
H2335 C2348 0.960 . S
C2336 H2328 0.929 . S
C2336 C2337 1.377 . S
C2336 C2338 1.384 . S
C2337 C2336 1.377 . S
C2337 C2343 1.390 . S
C2338 H2329 0.930 . S
C2338 C2336 1.384 . S
C2338 C2339 1.372 . S
C2339 C2338 1.372 . S
C2339 C2340 1.400 . S
C2339 C2344 1.490 . S
C2340 H2330 0.930 . S
C2340 C2339 1.400 . S
C2340 C2343 1.386 . S
H2341 C2357 0.930 . S
H2342 C2358 0.931 . S
C2343 H2331 0.929 . S
C2343 C2337 1.390 . S
C2343 C2340 1.386 . S
C2344 C2339 1.490 . S
C2344 C2346 1.395 . S
C2344 C2347 1.403 . S
H2345 C2351 0.930 . S
C2346 H2332 0.930 . S
C2346 C2344 1.395 . S
C2346 C2349 1.403 . S
C2347 C2344 1.403 . S
C2347 C2348 1.524 . S
C2347 C2351 1.400 . S
C2348 H2333 0.960 . S
C2348 H2334 0.960 . S
C2348 H2335 0.960 . S
C2348 C2347 1.524 . S
C2349 C2346 1.403 . S
C2349 C2350 1.392 . S
C2349 C2353 1.495 . S
C2350 C2349 1.392 . S
C2350 C2351 1.385 . S
C2350 C2352 1.478 . S
C2351 H2345 0.930 . S
C2351 C2347 1.400 . S
C2351 C2350 1.385 . S
C2352 C2350 1.478 . S
C2352 C2354 1.381 . S
C2352 C2358 1.383 . S
C2353 C2349 1.495 . S
C2353 H2359 0.959 . S
C2353 H2360 0.961 . S
C2353 H2361 0.960 . S
C2354 C2352 1.381 . S
C2354 C2355 1.394 . S
C2354 H2362 0.930 . S
C2355 C2354 1.394 . S
C2355 C2356 1.383 . S
C2355 H2363 0.929 . S
C2356 C2355 1.383 . S
C2356 C2357 1.377 . S
C2357 H2341 0.930 . S
C2357 C2356 1.377 . S
C2357 C2358 1.379 . S
C2358 H2342 0.931 . S
C2358 C2352 1.383 . S
C2358 C2357 1.379 . S
H2359 C2353 0.959 . S
H2360 C2353 0.961 . S
H2361 C2353 0.960 . S
H2362 C2354 0.930 . S
H2363 C2355 0.929 . S
H2364 C2372 0.929 . S
H2365 C2374 0.930 . S
H2366 C2376 0.930 . S
H2367 C2379 0.929 . S
H2368 C2382 0.930 . S
H2369 C2384 1.001 . S
H2370 C2384 0.960 . S
H2371 C2384 0.960 . S
C2372 H2364 0.929 . S
C2372 C2373 1.377 . S
C2372 C2374 1.384 . S
C2373 C2372 1.377 . S
C2373 C2379 1.390 . S
C2374 H2365 0.930 . S
C2374 C2372 1.384 . S
C2374 C2375 1.372 . S
C2375 C2374 1.372 . S
C2375 C2376 1.400 . S
C2375 C2380 1.490 . S
C2376 H2366 0.930 . S
C2376 C2375 1.400 . S
C2376 C2379 1.386 . S
H2377 C2393 0.930 . S
H2378 C2394 0.931 . S
C2379 H2367 0.929 . S
C2379 C2373 1.390 . S
C2379 C2376 1.386 . S
C2380 C2375 1.490 . S
C2380 C2382 1.395 . S
C2380 C2383 1.403 . S
H2381 C2387 0.930 . S
C2382 H2368 0.930 . S
C2382 C2380 1.395 . S
C2382 C2385 1.403 1_565 S
C2383 C2380 1.403 . S
C2383 C2384 1.524 . S
C2383 C2387 1.400 1_565 S
C2384 H2369 1.001 . S
C2384 H2370 0.960 . S
C2384 H2371 0.960 . S
C2384 C2383 1.524 . S
C2385 C2382 1.403 1_545 S
C2385 C2386 1.392 . S
C2385 C2389 1.495 . S
C2386 C2385 1.392 . S
C2386 C2387 1.385 . S
C2386 C2388 1.478 . S
C2387 H2381 0.930 . S
C2387 C2383 1.400 1_545 S
C2387 C2386 1.385 . S
C2388 C2386 1.478 . S
C2388 C2390 1.381 . S
C2388 C2394 1.383 . S
C2389 C2385 1.495 . S
C2389 H2395 0.959 . S
C2389 H2396 0.961 . S
C2389 H2397 0.960 . S
C2390 C2388 1.381 . S
C2390 C2391 1.394 . S
C2390 H2398 0.930 . S
C2391 C2390 1.394 . S
C2391 C2392 1.383 . S
C2391 H2399 0.929 . S
C2392 C2391 1.383 . S
C2392 C2393 1.377 . S
C2393 H2377 0.930 . S
C2393 C2392 1.377 . S
C2393 C2394 1.379 . S
C2394 H2378 0.931 . S
C2394 C2388 1.383 . S
C2394 C2393 1.379 . S
H2395 C2389 0.959 . S
H2396 C2389 0.961 . S
H2397 C2389 0.960 . S
H2398 C2390 0.930 . S
H2399 C2391 0.929 . S
H2400 C2408 0.929 . S
H2401 C2410 0.930 . S
H2402 C2412 0.930 1_554 S
H2403 C2415 0.929 1_554 S
H2404 C2418 0.930 . S
H2405 C2420 0.960 . S
H2406 C2420 0.960 . S
H2407 C2420 0.960 . S
C2408 H2400 0.929 . S
C2408 C2409 1.377 . S
C2408 C2410 1.384 . S
C2409 C2408 1.377 . S
C2409 C2415 1.390 . S
C2410 H2401 0.930 . S
C2410 C2408 1.384 . S
C2410 C2411 1.372 . S
C2411 C2410 1.372 . S
C2411 C2412 1.400 . S
C2411 C2416 1.490 . S
C2412 H2402 0.930 1_556 S
C2412 C2411 1.400 . S
C2412 C2415 1.386 . S
H2413 C2429 0.930 . S
H2414 C2430 0.931 . S
C2415 H2403 0.929 1_556 S
C2415 C2409 1.390 . S
C2415 C2412 1.386 . S
C2416 C2411 1.490 . S
C2416 C2418 1.395 . S
C2416 C2419 1.390 1_556 S
H2417 C2423 0.930 1_554 S
C2418 H2404 0.930 . S
C2418 C2416 1.395 . S
C2418 C2421 1.403 . S
C2419 C2416 1.390 1_554 S
C2419 C2420 1.538 . S
C2419 C2423 1.398 1_554 S
C2420 H2405 0.960 . S
C2420 H2406 0.960 . S
C2420 H2407 0.960 . S
C2420 C2419 1.538 . S
C2421 C2418 1.403 . S
C2421 C2422 1.392 . S
C2421 C2425 1.495 . S
C2422 C2421 1.392 . S
C2422 C2423 1.385 . S
C2422 C2424 1.478 . S
C2423 H2417 0.930 1_556 S
C2423 C2419 1.398 1_556 S
C2423 C2422 1.385 . S
C2424 C2422 1.478 . S
C2424 C2426 1.381 . S
C2424 C2430 1.383 . S
C2425 C2421 1.495 . S
C2425 H2431 0.959 . S
C2425 H2432 0.961 . S
C2425 H2433 0.960 . S
C2426 C2424 1.381 . S
C2426 C2427 1.394 . S
C2426 H2434 0.930 . S
C2427 C2426 1.394 . S
C2427 C2428 1.383 . S
C2427 H2435 0.929 . S
C2428 C2427 1.383 . S
C2428 C2429 1.377 . S
C2429 H2413 0.930 . S
C2429 C2428 1.377 . S
C2429 C2430 1.379 . S
C2430 H2414 0.931 . S
C2430 C2424 1.383 . S
C2430 C2429 1.379 . S
H2431 C2425 0.959 . S
H2432 C2425 0.961 . S
H2433 C2425 0.960 . S
H2434 C2426 0.930 . S
H2435 C2427 0.929 . S
H2436 C2444 0.929 1_655 S
H2437 C2446 0.930 1_655 S
H2438 C2448 0.930 . S
H2439 C2451 0.929 . S
H2440 C2454 0.930 . S
H2441 C2456 0.960 . S
H2442 C2456 0.960 . S
H2443 C2456 0.960 . S
C2444 H2436 0.929 1_455 S
C2444 C2445 1.377 . S
C2444 C2446 1.384 . S
C2445 C2444 1.377 . S
C2445 C2451 1.390 . S
C2446 H2437 0.930 1_455 S
C2446 C2444 1.384 . S
C2446 C2447 1.372 . S
C2447 C2446 1.372 . S
C2447 C2448 1.400 . S
C2447 C2452 1.490 . S
C2448 H2438 0.930 . S
C2448 C2447 1.400 . S
C2448 C2451 1.386 . S
H2449 C2465 0.930 . S
H2450 C2466 0.931 . S
C2451 H2439 0.929 . S
C2451 C2445 1.390 . S
C2451 C2448 1.386 . S
C2452 C2447 1.490 . S
C2452 C2454 1.395 1_455 S
C2452 C2455 1.403 . S
H2453 C2459 0.930 1_565 S
C2454 H2440 0.930 . S
C2454 C2452 1.395 1_655 S
C2454 C2457 1.403 . S
C2455 C2452 1.403 . S
C2455 C2456 1.524 . S
C2455 C2459 1.400 . S
C2456 H2441 0.960 . S
C2456 H2442 0.960 . S
C2456 H2443 0.960 . S
C2456 C2455 1.524 . S
C2457 C2454 1.403 . S
C2457 C2458 1.392 1_645 S
C2457 C2461 1.495 1_545 S
C2458 C2457 1.392 1_465 S
C2458 C2459 1.385 1_565 S
C2458 C2460 1.478 . S
C2459 H2453 0.930 1_545 S
C2459 C2455 1.400 . S
C2459 C2458 1.385 1_545 S
C2460 C2458 1.478 . S
C2460 C2462 1.381 . S
C2460 C2466 1.383 . S
C2461 C2457 1.495 1_565 S
C2461 H2467 0.959 1_565 S
C2461 H2468 0.961 . S
C2461 H2469 0.960 . S
C2462 C2460 1.381 . S
C2462 C2463 1.394 . S
C2462 H2470 0.957 . S
C2463 C2462 1.394 . S
C2463 C2464 1.383 . S
C2463 H2471 0.929 . S
C2464 C2463 1.383 . S
C2464 C2465 1.377 . S
C2465 H2449 0.930 . S
C2465 C2464 1.377 . S
C2465 C2466 1.379 . S
C2466 H2450 0.931 . S
C2466 C2460 1.383 . S
C2466 C2465 1.379 . S
H2467 C2461 0.959 1_545 S
H2468 C2461 0.961 . S
H2469 C2461 0.960 . S
H2470 C2462 0.957 . S
H2471 C2463 0.929 . S
H2472 C2480 0.929 . S
H2473 C2482 0.930 . S
H2474 C2484 0.930 . S
H2475 C2487 0.929 . S
H2476 C2490 0.930 . S
H2477 C2492 0.960 . S
H2478 C2492 0.960 . S
H2479 C2492 0.960 . S
C2480 H2472 0.929 . S
C2480 C2481 1.377 . S
C2480 C2482 1.384 . S
C2481 C2480 1.377 . S
C2481 C2487 1.390 . S
C2482 H2473 0.930 . S
C2482 C2480 1.384 . S
C2482 C2483 1.372 . S
C2483 C2482 1.372 . S
C2483 C2484 1.400 . S
C2483 C2488 1.490 . S
C2484 H2474 0.930 . S
C2484 C2483 1.400 . S
C2484 C2487 1.386 . S
H2485 C2501 0.930 . S
H2486 C2502 0.931 . S
C2487 H2475 0.929 . S
C2487 C2481 1.390 . S
C2487 C2484 1.386 . S
C2488 C2483 1.490 . S
C2488 C2490 1.395 . S
C2488 C2491 1.403 . S
H2489 C2495 0.930 . S
C2490 H2476 0.930 . S
C2490 C2488 1.395 . S
C2490 C2493 1.403 . S
C2491 C2488 1.403 . S
C2491 C2492 1.524 . S
C2491 C2495 1.400 . S
C2492 H2477 0.960 . S
C2492 H2478 0.960 . S
C2492 H2479 0.960 . S
C2492 C2491 1.524 . S
C2493 C2490 1.403 . S
C2493 C2494 1.392 . S
C2493 C2497 1.495 . S
C2494 C2493 1.392 . S
C2494 C2495 1.385 . S
C2494 C2496 1.478 . S
C2495 H2489 0.930 . S
C2495 C2491 1.400 . S
C2495 C2494 1.385 . S
C2496 C2494 1.478 . S
C2496 C2498 1.381 . S
C2496 C2502 1.383 . S
C2497 C2493 1.495 . S
C2497 H2503 0.959 . S
C2497 H2504 0.961 . S
C2497 H2505 0.960 . S
C2498 C2496 1.381 . S
C2498 C2499 1.394 . S
C2498 H2506 0.930 . S
C2499 C2498 1.394 . S
C2499 C2500 1.383 . S
C2499 H2507 0.929 . S
C2500 C2499 1.383 . S
C2500 C2501 1.377 . S
C2501 H2485 0.930 . S
C2501 C2500 1.377 . S
C2501 C2502 1.379 . S
C2502 H2486 0.931 . S
C2502 C2496 1.383 . S
C2502 C2501 1.379 . S
H2503 C2497 0.959 . S
H2504 C2497 0.961 . S
H2505 C2497 0.960 . S
H2506 C2498 0.930 . S
H2507 C2499 0.929 . S
H2508 C2516 0.929 . S
H2509 C2518 0.930 . S
H2510 C2520 0.930 . S
H2511 C2523 0.929 . S
H2512 C2526 0.930 . S
H2513 C2528 0.960 . S
H2514 C2528 0.960 . S
H2515 C2528 0.960 . S
C2516 H2508 0.929 . S
C2516 C2517 1.377 . S
C2516 C2518 1.384 . S
C2517 C2516 1.377 . S
C2517 C2523 1.390 . S
C2518 H2509 0.930 . S
C2518 C2516 1.384 . S
C2518 C2519 1.372 . S
C2519 C2518 1.372 . S
C2519 C2520 1.400 . S
C2519 C2524 1.490 . S
C2520 H2510 0.930 . S
C2520 C2519 1.400 . S
C2520 C2523 1.386 . S
H2521 C2537 0.930 . S
H2522 C2538 0.931 . S
C2523 H2511 0.929 . S
C2523 C2517 1.390 . S
C2523 C2520 1.386 . S
C2524 C2519 1.490 . S
C2524 C2526 1.395 . S
C2524 C2527 1.403 . S
H2525 C2531 0.916 1_556 S
C2526 H2512 0.930 . S
C2526 C2524 1.395 . S
C2526 C2529 1.403 . S
C2527 C2524 1.403 . S
C2527 C2528 1.524 . S
C2527 C2531 1.422 . S
C2528 H2513 0.960 . S
C2528 H2514 0.960 . S
C2528 H2515 0.960 . S
C2528 C2527 1.524 . S
C2529 C2526 1.403 . S
C2529 C2530 1.392 1_554 S
C2529 C2533 1.494 1_554 S
C2530 C2529 1.392 1_556 S
C2530 C2531 1.377 1_556 S
C2530 C2532 1.478 . S
C2531 H2525 0.916 1_554 S
C2531 C2527 1.422 . S
C2531 C2530 1.377 1_554 S
C2532 C2530 1.478 . S
C2532 C2534 1.381 . S
C2532 C2538 1.383 . S
C2533 C2529 1.494 1_556 S
C2533 H2539 0.956 1_556 S
C2533 H2540 0.963 . S
C2533 H2541 0.961 . S
C2534 C2532 1.381 . S
C2534 C2535 1.394 . S
C2534 H2542 0.930 . S
C2535 C2534 1.394 . S
C2535 C2536 1.383 . S
C2535 H2543 0.929 . S
C2536 C2535 1.383 . S
C2536 C2537 1.377 . S
C2537 H2521 0.930 . S
C2537 C2536 1.377 . S
C2537 C2538 1.379 . S
C2538 H2522 0.931 . S
C2538 C2532 1.383 . S
C2538 C2537 1.379 . S
H2539 C2533 0.956 1_554 S
H2540 C2533 0.963 . S
H2541 C2533 0.961 . S
H2542 C2534 0.930 . S
H2543 C2535 0.929 . S
H2544 C2552 0.929 . S
H2545 C2554 0.930 . S
H2546 C2556 0.930 . S
H2547 C2559 0.929 . S
H2548 C2562 0.930 . S
H2549 C2564 0.960 . S
H2550 C2564 0.960 . S
H2551 C2564 0.960 . S
C2552 H2544 0.929 . S
C2552 C2553 1.377 . S
C2552 C2554 1.384 . S
C2553 C2552 1.377 . S
C2553 C2559 1.390 . S
C2554 H2545 0.930 . S
C2554 C2552 1.384 . S
C2554 C2555 1.372 . S
C2555 C2554 1.372 . S
C2555 C2556 1.400 . S
C2555 C2560 1.490 . S
C2556 H2546 0.930 . S
C2556 C2555 1.400 . S
C2556 C2559 1.386 . S
H2557 C2573 0.930 . S
H2558 C2574 0.931 . S
C2559 H2547 0.929 . S
C2559 C2553 1.390 . S
C2559 C2556 1.386 . S
C2560 C2555 1.490 . S
C2560 C2562 1.395 . S
C2560 C2563 1.403 . S
H2561 C2567 0.930 . S
C2562 H2548 0.930 . S
C2562 C2560 1.395 . S
C2562 C2565 1.403 . S
C2563 C2560 1.403 . S
C2563 C2564 1.524 . S
C2563 C2567 1.400 . S
C2564 H2549 0.960 . S
C2564 H2550 0.960 . S
C2564 H2551 0.960 . S
C2564 C2563 1.524 . S
C2565 C2562 1.403 . S
C2565 C2566 1.392 . S
C2565 C2569 1.495 . S
C2566 C2565 1.392 . S
C2566 C2567 1.385 . S
C2566 C2568 1.478 . S
C2567 H2561 0.930 . S
C2567 C2563 1.400 . S
C2567 C2566 1.385 . S
C2568 C2566 1.478 . S
C2568 C2570 1.381 . S
C2568 C2574 1.383 . S
C2569 C2565 1.495 . S
C2569 H2575 0.959 . S
C2569 H2576 0.961 . S
C2569 H2577 0.960 . S
C2570 C2568 1.381 . S
C2570 C2571 1.394 . S
C2570 H2578 0.930 . S
C2571 C2570 1.394 . S
C2571 C2572 1.383 . S
C2571 H2579 0.929 . S
C2572 C2571 1.383 . S
C2572 C2573 1.377 . S
C2573 H2557 0.930 . S
C2573 C2572 1.377 . S
C2573 C2574 1.379 . S
C2574 H2558 0.931 . S
C2574 C2568 1.383 . S
C2574 C2573 1.379 . S
H2575 C2569 0.959 . S
H2576 C2569 0.961 . S
H2577 C2569 0.960 . S
H2578 C2570 0.930 . S
H2579 C2571 0.929 . S
H2580 C2588 0.929 . S
H2581 C2590 0.930 . S
H2582 C2592 0.930 . S
H2583 C2595 0.929 . S
H2584 C2598 0.930 . S
H2585 C2600 0.960 . S
H2586 C2600 0.960 . S
H2587 C2600 0.960 . S
C2588 H2580 0.929 . S
C2588 C2589 1.377 . S
C2588 C2590 1.384 . S
C2589 C2588 1.377 . S
C2589 C2595 1.390 . S
C2590 H2581 0.930 . S
C2590 C2588 1.384 . S
C2590 C2591 1.372 . S
C2591 C2590 1.372 . S
C2591 C2592 1.400 . S
C2591 C2596 1.490 . S
C2592 H2582 0.930 . S
C2592 C2591 1.400 . S
C2592 C2595 1.386 . S
H2593 C2609 0.930 . S
H2594 C2610 0.931 . S
C2595 H2583 0.929 . S
C2595 C2589 1.390 . S
C2595 C2592 1.386 . S
C2596 C2591 1.490 . S
C2596 C2598 1.395 . S
C2596 C2599 1.403 . S
H2597 C2603 0.930 . S
C2598 H2584 0.930 . S
C2598 C2596 1.395 . S
C2598 C2601 1.403 . S
C2599 C2596 1.403 . S
C2599 C2600 1.524 . S
C2599 C2603 1.400 . S
C2600 H2585 0.960 . S
C2600 H2586 0.960 . S
C2600 H2587 0.960 . S
C2600 C2599 1.524 . S
C2601 C2598 1.403 . S
C2601 C2602 1.392 . S
C2601 C2605 1.495 . S
C2602 C2601 1.392 . S
C2602 C2603 1.385 . S
C2602 C2604 1.478 . S
C2603 H2597 0.930 . S
C2603 C2599 1.400 . S
C2603 C2602 1.385 . S
C2604 C2602 1.478 . S
C2604 C2606 1.381 . S
C2604 C2610 1.383 . S
C2605 C2601 1.495 . S
C2605 H2611 0.959 . S
C2605 H2612 0.961 . S
C2605 H2613 0.960 . S
C2606 C2604 1.381 . S
C2606 C2607 1.394 . S
C2606 H2614 0.930 . S
C2607 C2606 1.394 . S
C2607 C2608 1.383 . S
C2607 H2615 0.929 . S
C2608 C2607 1.383 . S
C2608 C2609 1.377 . S
C2609 H2593 0.930 . S
C2609 C2608 1.377 . S
C2609 C2610 1.379 . S
C2610 H2594 0.931 . S
C2610 C2604 1.383 . S
C2610 C2609 1.379 . S
H2611 C2605 0.959 . S
H2612 C2605 0.961 . S
H2613 C2605 0.960 . S
H2614 C2606 0.930 . S
H2615 C2607 0.929 . S
H2616 C2624 0.929 . S
H2617 C2626 0.930 . S
H2618 C2628 0.930 . S
H2619 C2631 0.929 . S
H2620 C2634 0.930 . S
H2621 C2636 0.960 . S
H2622 C2636 0.960 . S
H2623 C2636 0.960 . S
C2624 H2616 0.929 . S
C2624 C2625 1.377 . S
C2624 C2626 1.384 . S
C2625 C2624 1.377 . S
C2625 C2631 1.390 . S
C2626 H2617 0.930 . S
C2626 C2624 1.384 . S
C2626 C2627 1.372 . S
C2627 C2626 1.372 . S
C2627 C2628 1.400 . S
C2627 C2632 1.490 . S
C2628 H2618 0.930 . S
C2628 C2627 1.400 . S
C2628 C2631 1.386 . S
H2629 C2645 0.930 . S
H2630 C2646 0.931 . S
C2631 H2619 0.929 . S
C2631 C2625 1.390 . S
C2631 C2628 1.386 . S
C2632 C2627 1.490 . S
C2632 C2634 1.395 . S
C2632 C2635 1.403 . S
H2633 C2639 0.930 . S
C2634 H2620 0.930 . S
C2634 C2632 1.395 . S
C2634 C2637 1.403 . S
C2635 C2632 1.403 . S
C2635 C2636 1.524 . S
C2635 C2639 1.400 . S
C2636 H2621 0.960 . S
C2636 H2622 0.960 . S
C2636 H2623 0.960 . S
C2636 C2635 1.524 . S
C2637 C2634 1.403 . S
C2637 C2638 1.392 . S
C2637 C2641 1.495 . S
C2638 C2637 1.392 . S
C2638 C2639 1.385 . S
C2638 C2640 1.478 . S
C2639 H2633 0.930 . S
C2639 C2635 1.400 . S
C2639 C2638 1.385 . S
C2640 C2638 1.478 . S
C2640 C2642 1.381 . S
C2640 C2646 1.383 . S
C2641 C2637 1.495 . S
C2641 H2647 0.959 . S
C2641 H2648 0.961 . S
C2641 H2649 0.960 . S
C2642 C2640 1.381 . S
C2642 C2643 1.394 . S
C2642 H2650 0.930 . S
C2643 C2642 1.394 . S
C2643 C2644 1.383 . S
C2643 H2651 0.929 . S
C2644 C2643 1.383 . S
C2644 C2645 1.377 . S
C2645 H2629 0.930 . S
C2645 C2644 1.377 . S
C2645 C2646 1.379 . S
C2646 H2630 0.931 . S
C2646 C2640 1.383 . S
C2646 C2645 1.379 . S
H2647 C2641 0.959 . S
H2648 C2641 0.961 . S
H2649 C2641 0.960 . S
H2650 C2642 0.930 . S
H2651 C2643 0.929 . S
H2652 C2660 0.929 . S
H2653 C2662 0.930 . S
H2654 C2664 0.930 . S
H2655 C2667 0.929 . S
H2656 C2670 0.930 . S
H2657 C2672 0.960 . S
H2658 C2672 0.960 . S
H2659 C2672 0.960 . S
C2660 H2652 0.929 . S
C2660 C2661 1.377 . S
C2660 C2662 1.384 . S
C2661 C2660 1.377 . S
C2661 C2667 1.390 . S
C2662 H2653 0.930 . S
C2662 C2660 1.384 . S
C2662 C2663 1.372 . S
C2663 C2662 1.372 . S
C2663 C2664 1.400 . S
C2663 C2668 1.490 . S
C2664 H2654 0.930 . S
C2664 C2663 1.400 . S
C2664 C2667 1.386 . S
H2665 C2681 0.930 . S
H2666 C2682 0.931 . S
C2667 H2655 0.929 . S
C2667 C2661 1.390 . S
C2667 C2664 1.386 . S
C2668 C2663 1.490 . S
C2668 C2670 1.395 . S
C2668 C2671 1.403 . S
H2669 C2675 0.930 . S
C2670 H2656 0.930 . S
C2670 C2668 1.395 . S
C2670 C2673 1.403 . S
C2671 C2668 1.403 . S
C2671 C2672 1.524 . S
C2671 C2675 1.400 . S
C2672 H2657 0.960 . S
C2672 H2658 0.960 . S
C2672 H2659 0.960 . S
C2672 C2671 1.524 . S
C2673 C2670 1.403 . S
C2673 C2674 1.392 . S
C2673 C2677 1.495 . S
C2674 C2673 1.392 . S
C2674 C2675 1.385 . S
C2674 C2676 1.478 . S
C2675 H2669 0.930 . S
C2675 C2671 1.400 . S
C2675 C2674 1.385 . S
C2676 C2674 1.478 . S
C2676 C2678 1.381 . S
C2676 C2682 1.383 . S
C2677 C2673 1.495 . S
C2677 H2683 0.959 . S
C2677 H2684 0.961 . S
C2677 H2685 0.960 . S
C2678 C2676 1.381 . S
C2678 C2679 1.394 . S
C2678 H2686 0.930 . S
C2679 C2678 1.394 . S
C2679 C2680 1.383 . S
C2679 H2687 0.929 . S
C2680 C2679 1.383 . S
C2680 C2681 1.377 . S
C2681 H2665 0.930 . S
C2681 C2680 1.377 . S
C2681 C2682 1.379 . S
C2682 H2666 0.931 . S
C2682 C2676 1.383 . S
C2682 C2681 1.379 . S
H2683 C2677 0.959 . S
H2684 C2677 0.961 . S
H2685 C2677 0.960 . S
H2686 C2678 0.930 . S
H2687 C2679 0.929 . S
H2688 C2696 0.929 . S
H2689 C2698 0.930 . S
H2690 C2700 0.930 . S
H2691 C2703 0.929 . S
H2692 C2706 0.930 . S
H2693 C2708 0.960 . S
H2694 C2708 0.960 . S
H2695 C2708 0.960 . S
C2696 H2688 0.929 . S
C2696 C2697 1.377 . S
C2696 C2698 1.384 . S
C2697 C2696 1.377 . S
C2697 C2703 1.390 . S
C2698 H2689 0.930 . S
C2698 C2696 1.384 . S
C2698 C2699 1.372 . S
C2699 C2698 1.372 . S
C2699 C2700 1.400 . S
C2699 C2704 1.490 . S
C2700 H2690 0.930 . S
C2700 C2699 1.400 . S
C2700 C2703 1.386 . S
H2701 C2717 0.930 . S
H2702 C2718 0.931 . S
C2703 H2691 0.929 . S
C2703 C2697 1.390 . S
C2703 C2700 1.386 . S
C2704 C2699 1.490 . S
C2704 C2706 1.395 . S
C2704 C2707 1.403 . S
H2705 C2711 0.930 . S
C2706 H2692 0.930 . S
C2706 C2704 1.395 . S
C2706 C2709 1.403 . S
C2707 C2704 1.403 . S
C2707 C2708 1.524 . S
C2707 C2711 1.400 . S
C2708 H2693 0.960 . S
C2708 H2694 0.960 . S
C2708 H2695 0.960 . S
C2708 C2707 1.524 . S
C2709 C2706 1.403 . S
C2709 C2710 1.392 . S
C2709 C2713 1.495 . S
C2710 C2709 1.392 . S
C2710 C2711 1.385 . S
C2710 C2712 1.478 . S
C2711 H2705 0.930 . S
C2711 C2707 1.400 . S
C2711 C2710 1.385 . S
C2712 C2710 1.478 . S
C2712 C2714 1.381 . S
C2712 C2718 1.383 . S
C2713 C2709 1.495 . S
C2713 H2719 0.959 . S
C2713 H2720 0.961 . S
C2713 H2721 0.960 . S
C2714 C2712 1.381 . S
C2714 C2715 1.394 . S
C2714 H2722 0.930 . S
C2715 C2714 1.394 . S
C2715 C2716 1.383 . S
C2715 H2723 0.929 . S
C2716 C2715 1.383 . S
C2716 C2717 1.377 . S
C2717 H2701 0.930 . S
C2717 C2716 1.377 . S
C2717 C2718 1.379 . S
C2718 H2702 0.931 . S
C2718 C2712 1.383 . S
C2718 C2717 1.379 . S
H2719 C2713 0.959 . S
H2720 C2713 0.961 . S
H2721 C2713 0.960 . S
H2722 C2714 0.930 . S
H2723 C2715 0.929 . S
H2724 C2732 0.929 . S
H2725 C2734 0.930 . S
H2726 C2736 0.930 . S
H2727 C2739 0.929 . S
H2728 C2742 0.930 . S
H2729 C2744 0.960 . S
H2730 C2744 0.960 . S
H2731 C2744 0.960 . S
C2732 H2724 0.929 . S
C2732 C2733 1.377 . S
C2732 C2734 1.384 . S
C2733 C2732 1.377 . S
C2733 C2739 1.390 . S
C2734 H2725 0.930 . S
C2734 C2732 1.384 . S
C2734 C2735 1.372 . S
C2735 C2734 1.372 . S
C2735 C2736 1.400 . S
C2735 C2740 1.490 . S
C2736 H2726 0.930 . S
C2736 C2735 1.400 . S
C2736 C2739 1.386 . S
H2737 C2753 0.930 . S
H2738 C2754 0.931 . S
C2739 H2727 0.929 . S
C2739 C2733 1.390 . S
C2739 C2736 1.386 . S
C2740 C2735 1.490 . S
C2740 C2742 1.395 . S
C2740 C2743 1.403 . S
H2741 C2747 0.930 . S
C2742 H2728 0.930 . S
C2742 C2740 1.395 . S
C2742 C2745 1.403 . S
C2743 C2740 1.403 . S
C2743 C2744 1.524 . S
C2743 C2747 1.400 . S
C2744 H2729 0.960 . S
C2744 H2730 0.960 . S
C2744 H2731 0.960 . S
C2744 C2743 1.524 . S
C2745 C2742 1.403 . S
C2745 C2746 1.392 . S
C2745 C2749 1.495 . S
C2746 C2745 1.392 . S
C2746 C2747 1.385 . S
C2746 C2748 1.478 . S
C2747 H2741 0.930 . S
C2747 C2743 1.400 . S
C2747 C2746 1.385 . S
C2748 C2746 1.478 . S
C2748 C2750 1.381 . S
C2748 C2754 1.383 . S
C2749 C2745 1.495 . S
C2749 H2755 0.959 . S
C2749 H2756 0.961 . S
C2749 H2757 0.960 . S
C2750 C2748 1.381 . S
C2750 C2751 1.394 . S
C2750 H2758 0.930 . S
C2751 C2750 1.394 . S
C2751 C2752 1.383 . S
C2751 H2759 0.929 . S
C2752 C2751 1.383 . S
C2752 C2753 1.377 . S
C2753 H2737 0.930 . S
C2753 C2752 1.377 . S
C2753 C2754 1.379 . S
C2754 H2738 0.931 . S
C2754 C2748 1.383 . S
C2754 C2753 1.379 . S
H2755 C2749 0.959 . S
H2756 C2749 0.961 . S
H2757 C2749 0.960 . S
H2758 C2750 0.930 . S
H2759 C2751 0.929 . S
H2760 C2768 0.929 . S
H2761 C2770 0.930 . S
H2762 C2772 0.930 . S
H2763 C2775 0.929 . S
H2764 C2778 0.930 . S
H2765 C2780 0.960 . S
H2766 C2780 0.960 . S
H2767 C2780 0.960 . S
C2768 H2760 0.929 . S
C2768 C2769 1.377 . S
C2768 C2770 1.384 . S
C2769 C2768 1.377 . S
C2769 C2775 1.390 . S
C2770 H2761 0.930 . S
C2770 C2768 1.384 . S
C2770 C2771 1.372 . S
C2771 C2770 1.372 . S
C2771 C2772 1.400 . S
C2771 C2776 1.490 . S
C2772 H2762 0.930 . S
C2772 C2771 1.400 . S
C2772 C2775 1.386 . S
H2773 C2789 0.930 . S
H2774 C2790 0.931 . S
C2775 H2763 0.929 . S
C2775 C2769 1.390 . S
C2775 C2772 1.386 . S
C2776 C2771 1.490 . S
C2776 C2778 1.395 . S
C2776 C2779 1.403 . S
H2777 C2783 0.930 . S
C2778 H2764 0.930 . S
C2778 C2776 1.395 . S
C2778 C2781 1.403 . S
C2779 C2776 1.403 . S
C2779 C2780 1.524 . S
C2779 C2783 1.400 . S
C2780 H2765 0.960 . S
C2780 H2766 0.960 . S
C2780 H2767 0.960 . S
C2780 C2779 1.524 . S
C2781 C2778 1.403 . S
C2781 C2782 1.392 . S
C2781 C2785 1.495 . S
C2782 C2781 1.392 . S
C2782 C2783 1.385 . S
C2782 C2784 1.478 . S
C2783 H2777 0.930 . S
C2783 C2779 1.400 . S
C2783 C2782 1.385 . S
C2784 C2782 1.478 . S
C2784 C2786 1.381 . S
C2784 C2790 1.383 . S
C2785 C2781 1.495 . S
C2785 H2791 0.959 . S
C2785 H2792 0.961 . S
C2785 H2793 0.960 . S
C2786 C2784 1.381 . S
C2786 C2787 1.394 . S
C2786 H2794 0.930 . S
C2787 C2786 1.394 . S
C2787 C2788 1.383 . S
C2787 H2795 0.929 . S
C2788 C2787 1.383 . S
C2788 C2789 1.377 . S
C2789 H2773 0.930 . S
C2789 C2788 1.377 . S
C2789 C2790 1.379 . S
C2790 H2774 0.931 . S
C2790 C2784 1.383 . S
C2790 C2789 1.379 . S
H2791 C2785 0.959 . S
H2792 C2785 0.961 . S
H2793 C2785 0.960 . S
H2794 C2786 0.930 . S
H2795 C2787 0.929 . S
H2796 C2804 0.929 . S
H2797 C2806 0.930 . S
H2798 C2808 0.930 . S
H2799 C2811 0.929 . S
H2800 C2814 0.930 . S
H2801 C2816 0.960 . S
H2802 C2816 0.960 . S
H2803 C2816 0.960 . S
C2804 H2796 0.929 . S
C2804 C2805 1.377 . S
C2804 C2806 1.384 . S
C2805 C2804 1.377 . S
C2805 C2811 1.390 . S
C2806 H2797 0.930 . S
C2806 C2804 1.384 . S
C2806 C2807 1.372 . S
C2807 C2806 1.372 . S
C2807 C2808 1.400 . S
C2807 C2812 1.490 . S
C2808 H2798 0.930 . S
C2808 C2807 1.400 . S
C2808 C2811 1.386 . S
H2809 C2825 0.930 . S
H2810 C2826 0.931 . S
C2811 H2799 0.929 . S
C2811 C2805 1.390 . S
C2811 C2808 1.386 . S
C2812 C2807 1.490 . S
C2812 C2814 1.395 . S
C2812 C2815 1.403 . S
H2813 C2819 0.930 . S
C2814 H2800 0.930 . S
C2814 C2812 1.395 . S
C2814 C2817 1.403 . S
C2815 C2812 1.403 . S
C2815 C2816 1.524 . S
C2815 C2819 1.400 . S
C2816 H2801 0.960 . S
C2816 H2802 0.960 . S
C2816 H2803 0.960 . S
C2816 C2815 1.524 . S
C2817 C2814 1.403 . S
C2817 C2818 1.392 . S
C2817 C2821 1.495 . S
C2818 C2817 1.392 . S
C2818 C2819 1.385 . S
C2818 C2820 1.478 . S
C2819 H2813 0.930 . S
C2819 C2815 1.400 . S
C2819 C2818 1.385 . S
C2820 C2818 1.478 . S
C2820 C2822 1.381 . S
C2820 C2826 1.383 . S
C2821 C2817 1.495 . S
C2821 H2827 0.959 . S
C2821 H2828 0.961 . S
C2821 H2829 0.960 . S
C2822 C2820 1.381 . S
C2822 C2823 1.394 . S
C2822 H2830 0.930 . S
C2823 C2822 1.394 . S
C2823 C2824 1.383 . S
C2823 H2831 0.929 . S
C2824 C2823 1.383 . S
C2824 C2825 1.377 . S
C2825 H2809 0.930 . S
C2825 C2824 1.377 . S
C2825 C2826 1.379 . S
C2826 H2810 0.931 . S
C2826 C2820 1.383 . S
C2826 C2825 1.379 . S
H2827 C2821 0.959 . S
H2828 C2821 0.961 . S
H2829 C2821 0.960 . S
H2830 C2822 0.930 . S
H2831 C2823 0.929 . S
H2832 C2840 0.929 . S
H2833 C2842 0.930 . S
H2834 C2844 0.930 . S
H2835 C2847 0.929 . S
H2836 C2850 0.930 . S
H2837 C2852 0.960 . S
H2838 C2852 0.960 . S
H2839 C2852 0.960 . S
C2840 H2832 0.929 . S
C2840 C2841 1.377 . S
C2840 C2842 1.384 . S
C2841 C2840 1.377 . S
C2841 C2847 1.390 . S
C2842 H2833 0.930 . S
C2842 C2840 1.384 . S
C2842 C2843 1.372 . S
C2843 C2842 1.372 . S
C2843 C2844 1.400 . S
C2843 C2848 1.490 . S
C2844 H2834 0.930 . S
C2844 C2843 1.400 . S
C2844 C2847 1.386 . S
H2845 C2861 0.930 . S
H2846 C2862 0.931 . S
C2847 H2835 0.929 . S
C2847 C2841 1.390 . S
C2847 C2844 1.386 . S
C2848 C2843 1.490 . S
C2848 C2850 1.395 . S
C2848 C2851 1.403 . S
H2849 C2855 0.930 . S
C2850 H2836 0.930 . S
C2850 C2848 1.395 . S
C2850 C2853 1.403 . S
C2851 C2848 1.403 . S
C2851 C2852 1.524 . S
C2851 C2855 1.400 . S
C2852 H2837 0.960 . S
C2852 H2838 0.960 . S
C2852 H2839 0.960 . S
C2852 C2851 1.524 . S
C2853 C2850 1.403 . S
C2853 C2854 1.392 . S
C2853 C2857 1.495 . S
C2854 C2853 1.392 . S
C2854 C2855 1.385 . S
C2854 C2856 1.478 . S
C2855 H2849 0.930 . S
C2855 C2851 1.400 . S
C2855 C2854 1.385 . S
C2856 C2854 1.478 . S
C2856 C2858 1.381 . S
C2856 C2862 1.383 . S
C2857 C2853 1.495 . S
C2857 H2863 0.959 . S
C2857 H2864 0.961 . S
C2857 H2865 0.960 . S
C2858 C2856 1.381 . S
C2858 C2859 1.394 . S
C2858 H2866 0.930 . S
C2859 C2858 1.394 . S
C2859 C2860 1.383 . S
C2859 H2867 0.929 . S
C2860 C2859 1.383 . S
C2860 C2861 1.377 . S
C2861 H2845 0.930 . S
C2861 C2860 1.377 . S
C2861 C2862 1.379 . S
C2862 H2846 0.931 . S
C2862 C2856 1.383 . S
C2862 C2861 1.379 . S
H2863 C2857 0.959 . S
H2864 C2857 0.961 . S
H2865 C2857 0.960 . S
H2866 C2858 0.930 . S
H2867 C2859 0.929 . S
H2868 C2876 0.929 . S
H2869 C2878 0.930 . S
H2870 C2880 0.930 . S
H2871 C2883 0.929 . S
H2872 C2886 0.930 . S
H2873 C2888 0.960 . S
H2874 C2888 0.960 . S
H2875 C2888 0.960 . S
C2876 H2868 0.929 . S
C2876 C2877 1.377 . S
C2876 C2878 1.384 . S
C2877 C2876 1.377 . S
C2877 C2883 1.390 . S
C2878 H2869 0.930 . S
C2878 C2876 1.384 . S
C2878 C2879 1.372 . S
C2879 C2878 1.372 . S
C2879 C2880 1.400 . S
C2879 C2884 1.490 . S
C2880 H2870 0.930 . S
C2880 C2879 1.400 . S
C2880 C2883 1.386 . S
H2881 C2897 0.930 . S
H2882 C2898 0.931 . S
C2883 H2871 0.929 . S
C2883 C2877 1.390 . S
C2883 C2880 1.386 . S
C2884 C2879 1.490 . S
C2884 C2886 1.395 . S
C2884 C2887 1.403 . S
H2885 C2891 0.930 . S
C2886 H2872 0.930 . S
C2886 C2884 1.395 . S
C2886 C2889 1.403 . S
C2887 C2884 1.403 . S
C2887 C2888 1.524 . S
C2887 C2891 1.400 . S
C2888 H2873 0.960 . S
C2888 H2874 0.960 . S
C2888 H2875 0.960 . S
C2888 C2887 1.524 . S
C2889 C2886 1.403 . S
C2889 C2890 1.392 . S
C2889 C2893 1.495 . S
C2890 C2889 1.392 . S
C2890 C2891 1.385 . S
C2890 C2892 1.478 . S
C2891 H2885 0.930 . S
C2891 C2887 1.400 . S
C2891 C2890 1.385 . S
C2892 C2890 1.478 . S
C2892 C2894 1.381 . S
C2892 C2898 1.383 . S
C2893 C2889 1.495 . S
C2893 H2899 0.959 . S
C2893 H2900 0.961 . S
C2893 H2901 0.960 . S
C2894 C2892 1.381 . S
C2894 C2895 1.394 . S
C2894 H2902 0.930 . S
C2895 C2894 1.394 . S
C2895 C2896 1.383 . S
C2895 H2903 0.929 . S
C2896 C2895 1.383 . S
C2896 C2897 1.377 . S
C2897 H2881 0.930 . S
C2897 C2896 1.377 . S
C2897 C2898 1.379 . S
C2898 H2882 0.931 . S
C2898 C2892 1.383 . S
C2898 C2897 1.379 . S
H2899 C2893 0.959 . S
H2900 C2893 0.961 . S
H2901 C2893 0.960 . S
H2902 C2894 0.930 . S
H2903 C2895 0.929 . S
H2904 C2912 0.929 . S
H2905 C2914 0.930 . S
H2906 C2916 0.930 . S
H2907 C2919 0.929 . S
H2908 C2922 0.930 . S
H2909 C2924 0.960 . S
H2910 C2924 0.960 . S
H2911 C2924 0.960 . S
C2912 H2904 0.929 . S
C2912 C2913 1.377 . S
C2912 C2914 1.384 . S
C2913 C2912 1.377 . S
C2913 C2919 1.390 . S
C2914 H2905 0.930 . S
C2914 C2912 1.384 . S
C2914 C2915 1.372 . S
C2915 C2914 1.372 . S
C2915 C2916 1.400 . S
C2915 C2920 1.490 . S
C2916 H2906 0.930 . S
C2916 C2915 1.400 . S
C2916 C2919 1.386 . S
H2917 C2933 0.930 . S
H2918 C2934 0.931 . S
C2919 H2907 0.929 . S
C2919 C2913 1.390 . S
C2919 C2916 1.386 . S
C2920 C2915 1.490 . S
C2920 C2922 1.395 . S
C2920 C2923 1.403 . S
H2921 C2927 0.930 . S
C2922 H2908 0.930 . S
C2922 C2920 1.395 . S
C2922 C2925 1.403 . S
C2923 C2920 1.403 . S
C2923 C2924 1.524 . S
C2923 C2927 1.400 . S
C2924 H2909 0.960 . S
C2924 H2910 0.960 . S
C2924 H2911 0.960 . S
C2924 C2923 1.524 . S
C2925 C2922 1.403 . S
C2925 C2926 1.392 . S
C2925 C2929 1.495 . S
C2926 C2925 1.392 . S
C2926 C2927 1.385 . S
C2926 C2928 1.478 . S
C2927 H2921 0.930 . S
C2927 C2923 1.400 . S
C2927 C2926 1.385 . S
C2928 C2926 1.478 . S
C2928 C2930 1.381 . S
C2928 C2934 1.383 . S
C2929 C2925 1.495 . S
C2929 H2935 0.959 . S
C2929 H2936 0.961 . S
C2929 H2937 0.960 . S
C2930 C2928 1.381 . S
C2930 C2931 1.394 . S
C2930 H2938 0.930 . S
C2931 C2930 1.394 . S
C2931 C2932 1.383 . S
C2931 H2939 0.929 . S
C2932 C2931 1.383 . S
C2932 C2933 1.377 . S
C2933 H2917 0.930 . S
C2933 C2932 1.377 . S
C2933 C2934 1.379 . S
C2934 H2918 0.931 . S
C2934 C2928 1.383 . S
C2934 C2933 1.379 . S
H2935 C2929 0.959 . S
H2936 C2929 0.961 . S
H2937 C2929 0.960 . S
H2938 C2930 0.930 . S
H2939 C2931 0.929 . S
H2940 C2948 0.933 1_455 S
H2941 C2950 0.930 . S
H2942 C2952 0.930 . S
H2943 C2955 0.929 . S
H2944 C2958 0.930 . S
H2945 C2960 0.960 . S
H2946 C2960 0.960 . S
H2947 C2960 0.960 . S
C2948 H2940 0.933 1_655 S
C2948 C2949 1.377 . S
C2948 C2950 1.384 . S
C2949 C2948 1.377 . S
C2949 C2955 1.390 . S
C2950 H2941 0.930 . S
C2950 C2948 1.384 . S
C2950 C2951 1.372 . S
C2951 C2950 1.372 . S
C2951 C2952 1.400 . S
C2951 C2956 1.490 . S
C2952 H2942 0.930 . S
C2952 C2951 1.400 . S
C2952 C2955 1.386 . S
H2953 C2969 0.930 . S
H2954 C2970 0.931 . S
C2955 H2943 0.929 . S
C2955 C2949 1.390 . S
C2955 C2952 1.386 . S
C2956 C2951 1.490 . S
C2956 C2958 1.395 . S
C2956 C2959 1.403 . S
H2957 C2963 0.930 . S
C2958 H2944 0.930 . S
C2958 C2956 1.395 . S
C2958 C2961 1.403 . S
C2959 C2956 1.403 . S
C2959 C2960 1.524 . S
C2959 C2963 1.400 . S
C2960 H2945 0.960 . S
C2960 H2946 0.960 . S
C2960 H2947 0.960 . S
C2960 C2959 1.524 . S
C2961 C2958 1.403 . S
C2961 C2962 1.392 . S
C2961 C2965 1.495 . S
C2962 C2961 1.392 . S
C2962 C2963 1.385 . S
C2962 C2964 1.478 . S
C2963 H2957 0.930 . S
C2963 C2959 1.400 . S
C2963 C2962 1.385 . S
C2964 C2962 1.478 . S
C2964 C2966 1.381 . S
C2964 C2970 1.383 . S
C2965 C2961 1.495 . S
C2965 H2971 0.959 . S
C2965 H2972 0.961 . S
C2965 H2973 0.960 . S
C2966 C2964 1.381 . S
C2966 C2967 1.394 . S
C2966 H2974 0.930 . S
C2967 C2966 1.394 . S
C2967 C2968 1.383 . S
C2967 H2975 0.929 . S
C2968 C2967 1.383 . S
C2968 C2969 1.377 . S
C2969 H2953 0.930 . S
C2969 C2968 1.377 . S
C2969 C2970 1.379 . S
C2970 H2954 0.931 . S
C2970 C2964 1.383 . S
C2970 C2969 1.379 . S
H2971 C2965 0.959 . S
H2972 C2965 0.961 . S
H2973 C2965 0.960 . S
H2974 C2966 0.930 . S
H2975 C2967 0.929 . S
H2976 C2984 0.929 . S
H2977 C2986 0.930 . S
H2978 C2988 0.930 . S
H2979 C2991 0.929 . S
H2980 C2994 0.930 . S
H2981 C2996 0.960 . S
H2982 C2996 0.960 . S
H2983 C2996 0.960 . S
C2984 H2976 0.929 . S
C2984 C2985 1.377 . S
C2984 C2986 1.384 . S
C2985 C2984 1.377 . S
C2985 C2991 1.390 . S
C2986 H2977 0.930 . S
C2986 C2984 1.384 . S
C2986 C2987 1.372 . S
C2987 C2986 1.372 . S
C2987 C2988 1.400 . S
C2987 C2992 1.490 . S
C2988 H2978 0.930 . S
C2988 C2987 1.400 . S
C2988 C2991 1.386 . S
H2989 C3005 0.930 . S
H2990 C3006 0.931 . S
C2991 H2979 0.929 . S
C2991 C2985 1.390 . S
C2991 C2988 1.386 . S
C2992 C2987 1.490 . S
C2992 C2994 1.395 . S
C2992 C2995 1.403 . S
H2993 C2999 0.930 . S
C2994 H2980 0.930 . S
C2994 C2992 1.395 . S
C2994 C2997 1.403 . S
C2995 C2992 1.403 . S
C2995 C2996 1.524 . S
C2995 C2999 1.400 . S
C2996 H2981 0.960 . S
C2996 H2982 0.960 . S
C2996 H2983 0.960 . S
C2996 C2995 1.524 . S
C2997 C2994 1.403 . S
C2997 C2998 1.392 . S
C2997 C3001 1.495 . S
C2998 C2997 1.392 . S
C2998 C2999 1.385 . S
C2998 C3000 1.478 . S
C2999 H2993 0.930 . S
C2999 C2995 1.400 . S
C2999 C2998 1.385 . S
C3000 C2998 1.478 . S
C3000 C3002 1.381 . S
C3000 C3006 1.383 . S
C3001 C2997 1.495 . S
C3001 H3007 0.959 . S
C3001 H3008 0.961 . S
C3001 H3009 0.960 . S
C3002 C3000 1.381 . S
C3002 C3003 1.394 . S
C3002 H3010 0.930 . S
C3003 C3002 1.394 . S
C3003 C3004 1.383 . S
C3003 H3011 0.929 . S
C3004 C3003 1.383 . S
C3004 C3005 1.377 . S
C3005 H2989 0.930 . S
C3005 C3004 1.377 . S
C3005 C3006 1.379 . S
C3006 H2990 0.931 . S
C3006 C3000 1.383 . S
C3006 C3005 1.379 . S
H3007 C3001 0.959 . S
H3008 C3001 0.961 . S
H3009 C3001 0.960 . S
H3010 C3002 0.930 . S
H3011 C3003 0.929 . S
H3012 C3020 0.929 . S
H3013 C3022 0.930 . S
H3014 C3024 0.930 . S
H3015 C3027 0.929 . S
H3016 C3030 0.930 . S
H3017 C3032 0.960 . S
H3018 C3032 0.960 . S
H3019 C3032 0.960 . S
C3020 H3012 0.929 . S
C3020 C3021 1.377 . S
C3020 C3022 1.384 . S
C3021 C3020 1.377 . S
C3021 C3027 1.390 . S
C3022 H3013 0.930 . S
C3022 C3020 1.384 . S
C3022 C3023 1.372 . S
C3023 C3022 1.372 . S
C3023 C3024 1.400 . S
C3023 C3028 1.490 . S
C3024 H3014 0.930 . S
C3024 C3023 1.400 . S
C3024 C3027 1.386 . S
H3025 C3041 0.930 . S
H3026 C3042 0.931 . S
C3027 H3015 0.929 . S
C3027 C3021 1.390 . S
C3027 C3024 1.386 . S
C3028 C3023 1.490 . S
C3028 C3030 1.395 . S
C3028 C3031 1.403 . S
H3029 C3035 0.930 . S
C3030 H3016 0.930 . S
C3030 C3028 1.395 . S
C3030 C3033 1.403 . S
C3031 C3028 1.403 . S
C3031 C3032 1.524 . S
C3031 C3035 1.400 . S
C3032 H3017 0.960 . S
C3032 H3018 0.960 . S
C3032 H3019 0.960 . S
C3032 C3031 1.524 . S
C3033 C3030 1.403 . S
C3033 C3034 1.392 . S
C3033 C3037 1.495 . S
C3034 C3033 1.392 . S
C3034 C3035 1.385 . S
C3034 C3036 1.478 . S
C3035 H3029 0.930 . S
C3035 C3031 1.400 . S
C3035 C3034 1.385 . S
C3036 C3034 1.478 . S
C3036 C3038 1.381 . S
C3036 C3042 1.383 . S
C3037 C3033 1.495 . S
C3037 H3043 0.959 . S
C3037 H3044 0.961 . S
C3037 H3045 0.960 . S
C3038 C3036 1.381 . S
C3038 C3039 1.394 . S
C3038 H3046 0.930 . S
C3039 C3038 1.394 . S
C3039 C3040 1.383 . S
C3039 H3047 0.929 . S
C3040 C3039 1.383 . S
C3040 C3041 1.377 . S
C3041 H3025 0.930 . S
C3041 C3040 1.377 . S
C3041 C3042 1.379 . S
C3042 H3026 0.931 . S
C3042 C3036 1.383 . S
C3042 C3041 1.379 . S
H3043 C3037 0.959 . S
H3044 C3037 0.961 . S
H3045 C3037 0.960 . S
H3046 C3038 0.930 . S
H3047 C3039 0.929 . S
H3048 C3056 0.929 . S
H3049 C3058 0.930 . S
H3050 C3060 0.930 . S
H3051 C3063 0.929 . S
H3052 C3066 0.930 . S
H3053 C3068 0.960 . S
H3054 C3068 0.960 . S
H3055 C3068 0.960 . S
C3056 H3048 0.929 . S
C3056 C3057 1.377 . S
C3056 C3058 1.384 . S
C3057 C3056 1.377 . S
C3057 C3063 1.390 . S
C3058 H3049 0.930 . S
C3058 C3056 1.384 . S
C3058 C3059 1.372 . S
C3059 C3058 1.372 . S
C3059 C3060 1.400 . S
C3059 C3064 1.490 . S
C3060 H3050 0.930 . S
C3060 C3059 1.400 . S
C3060 C3063 1.386 . S
H3061 C3077 0.930 . S
H3062 C3078 0.931 . S
C3063 H3051 0.929 . S
C3063 C3057 1.390 . S
C3063 C3060 1.386 . S
C3064 C3059 1.490 . S
C3064 C3066 1.395 . S
C3064 C3067 1.403 . S
H3065 C3071 0.930 . S
C3066 H3052 0.930 . S
C3066 C3064 1.395 . S
C3066 C3069 1.403 . S
C3067 C3064 1.403 . S
C3067 C3068 1.524 . S
C3067 C3071 1.400 . S
C3068 H3053 0.960 . S
C3068 H3054 0.960 . S
C3068 H3055 0.960 . S
C3068 C3067 1.524 . S
C3069 C3066 1.403 . S
C3069 C3070 1.392 . S
C3069 C3073 1.495 . S
C3070 C3069 1.392 . S
C3070 C3071 1.385 . S
C3070 C3072 1.478 . S
C3071 H3065 0.930 . S
C3071 C3067 1.400 . S
C3071 C3070 1.385 . S
C3072 C3070 1.478 . S
C3072 C3074 1.381 . S
C3072 C3078 1.383 . S
C3073 C3069 1.495 . S
C3073 H3079 0.959 . S
C3073 H3080 0.961 . S
C3073 H3081 0.960 . S
C3074 C3072 1.381 . S
C3074 C3075 1.394 . S
C3074 H3082 0.930 . S
C3075 C3074 1.394 . S
C3075 C3076 1.383 . S
C3075 H3083 0.929 . S
C3076 C3075 1.383 . S
C3076 C3077 1.377 . S
C3077 H3061 0.930 . S
C3077 C3076 1.377 . S
C3077 C3078 1.379 . S
C3078 H3062 0.931 . S
C3078 C3072 1.383 . S
C3078 C3077 1.379 . S
H3079 C3073 0.959 . S
H3080 C3073 0.961 . S
H3081 C3073 0.960 . S
H3082 C3074 0.930 . S
H3083 C3075 0.929 . S
H3084 C3092 0.929 . S
H3085 C3094 0.930 . S
H3086 C3096 0.937 . S
H3087 C3099 0.929 . S
H3088 C3102 0.930 . S
H3089 C3104 0.960 . S
H3090 C3104 0.960 . S
H3091 C3104 0.960 . S
C3092 H3084 0.929 . S
C3092 C3093 1.377 1_554 S
C3092 C3094 1.384 . S
C3093 C3092 1.377 1_556 S
C3093 C3099 1.390 . S
C3094 H3085 0.930 . S
C3094 C3092 1.384 . S
C3094 C3095 1.372 . S
C3095 C3094 1.372 . S
C3095 C3096 1.360 1_554 S
C3095 C3100 1.490 . S
C3096 H3086 0.937 . S
C3096 C3095 1.360 1_556 S
C3096 C3099 1.422 . S
H3097 C3113 0.930 . S
H3098 C3114 0.931 . S
C3099 H3087 0.929 . S
C3099 C3093 1.390 . S
C3099 C3096 1.422 . S
C3100 C3095 1.490 . S
C3100 C3102 1.395 . S
C3100 C3103 1.403 . S
H3101 C3107 0.930 . S
C3102 H3088 0.930 . S
C3102 C3100 1.395 . S
C3102 C3105 1.403 . S
C3103 C3100 1.403 . S
C3103 C3104 1.524 1_554 S
C3103 C3107 1.400 . S
C3104 H3089 0.960 . S
C3104 H3090 0.960 . S
C3104 H3091 0.960 . S
C3104 C3103 1.524 1_556 S
C3105 C3102 1.403 . S
C3105 C3106 1.392 . S
C3105 C3109 1.495 . S
C3106 C3105 1.392 . S
C3106 C3107 1.385 . S
C3106 C3108 1.478 . S
C3107 H3101 0.930 . S
C3107 C3103 1.400 . S
C3107 C3106 1.385 . S
C3108 C3106 1.478 . S
C3108 C3110 1.381 . S
C3108 C3114 1.383 . S
C3109 C3105 1.495 . S
C3109 H3115 0.959 . S
C3109 H3116 0.961 . S
C3109 H3117 0.960 . S
C3110 C3108 1.381 . S
C3110 C3111 1.394 . S
C3110 H3118 0.930 . S
C3111 C3110 1.394 . S
C3111 C3112 1.383 . S
C3111 H3119 0.929 . S
C3112 C3111 1.383 . S
C3112 C3113 1.377 . S
C3113 H3097 0.930 . S
C3113 C3112 1.377 . S
C3113 C3114 1.379 . S
C3114 H3098 0.931 . S
C3114 C3108 1.383 . S
C3114 C3113 1.379 . S
H3115 C3109 0.959 . S
H3116 C3109 0.961 . S
H3117 C3109 0.960 . S
H3118 C3110 0.930 . S
H3119 C3111 0.929 . S
H3120 C3128 0.929 . S
H3121 C3130 0.930 . S
H3122 C3132 0.930 . S
H3123 C3135 0.929 . S
H3124 C3138 0.930 . S
H3125 C3140 0.960 . S
H3126 C3140 0.960 . S
H3127 C3140 0.960 . S
C3128 H3120 0.929 . S
C3128 C3129 1.377 . S
C3128 C3130 1.384 . S
C3129 C3128 1.377 . S
C3129 C3135 1.390 . S
C3130 H3121 0.930 . S
C3130 C3128 1.384 . S
C3130 C3131 1.372 . S
C3131 C3130 1.372 . S
C3131 C3132 1.400 . S
C3131 C3136 1.490 . S
C3132 H3122 0.930 . S
C3132 C3131 1.400 . S
C3132 C3135 1.386 . S
H3133 C3149 0.930 . S
H3134 C3150 0.931 . S
C3135 H3123 0.929 . S
C3135 C3129 1.390 . S
C3135 C3132 1.386 . S
C3136 C3131 1.490 . S
C3136 C3138 1.395 . S
C3136 C3139 1.403 . S
H3137 C3143 0.930 . S
C3138 H3124 0.930 . S
C3138 C3136 1.395 . S
C3138 C3141 1.403 . S
C3139 C3136 1.403 . S
C3139 C3140 1.524 . S
C3139 C3143 1.400 . S
C3140 H3125 0.960 . S
C3140 H3126 0.960 . S
C3140 H3127 0.960 . S
C3140 C3139 1.524 . S
C3141 C3138 1.403 . S
C3141 C3142 1.392 . S
C3141 C3145 1.495 . S
C3142 C3141 1.392 . S
C3142 C3143 1.385 . S
C3142 C3144 1.478 . S
C3143 H3137 0.930 . S
C3143 C3139 1.400 . S
C3143 C3142 1.385 . S
C3144 C3142 1.478 . S
C3144 C3146 1.381 . S
C3144 C3150 1.383 . S
C3145 C3141 1.495 . S
C3145 H3151 0.959 . S
C3145 H3152 0.961 . S
C3145 H3153 0.960 . S
C3146 C3144 1.381 . S
C3146 C3147 1.394 . S
C3146 H3154 0.930 . S
C3147 C3146 1.394 . S
C3147 C3148 1.383 . S
C3147 H3155 0.929 . S
C3148 C3147 1.383 . S
C3148 C3149 1.377 . S
C3149 H3133 0.930 . S
C3149 C3148 1.377 . S
C3149 C3150 1.379 . S
C3150 H3134 0.931 . S
C3150 C3144 1.383 . S
C3150 C3149 1.379 . S
H3151 C3145 0.959 . S
H3152 C3145 0.961 . S
H3153 C3145 0.960 . S
H3154 C3146 0.930 . S
H3155 C3147 0.929 . S
H3156 C3164 0.929 . S
H3157 C3166 0.930 . S
H3158 C3168 0.930 . S
H3159 C3171 0.929 . S
H3160 C3174 0.930 . S
H3161 C3176 0.960 . S
H3162 C3176 0.960 . S
H3163 C3176 0.960 . S
C3164 H3156 0.929 . S
C3164 C3165 1.377 . S
C3164 C3166 1.384 . S
C3165 C3164 1.377 . S
C3165 C3171 1.390 . S
C3166 H3157 0.930 . S
C3166 C3164 1.384 . S
C3166 C3167 1.372 . S
C3167 C3166 1.372 . S
C3167 C3168 1.400 . S
C3167 C3172 1.490 . S
C3168 H3158 0.930 . S
C3168 C3167 1.400 . S
C3168 C3171 1.386 . S
H3169 C3185 0.930 . S
H3170 C3186 0.931 . S
C3171 H3159 0.929 . S
C3171 C3165 1.390 . S
C3171 C3168 1.386 . S
C3172 C3167 1.490 . S
C3172 C3174 1.395 . S
C3172 C3175 1.403 . S
H3173 C3179 0.930 . S
C3174 H3160 0.930 . S
C3174 C3172 1.395 . S
C3174 C3177 1.403 . S
C3175 C3172 1.403 . S
C3175 C3176 1.524 . S
C3175 C3179 1.400 . S
C3176 H3161 0.960 . S
C3176 H3162 0.960 . S
C3176 H3163 0.960 . S
C3176 C3175 1.524 . S
C3177 C3174 1.403 . S
C3177 C3178 1.392 . S
C3177 C3181 1.495 . S
C3178 C3177 1.392 . S
C3178 C3179 1.385 . S
C3178 C3180 1.478 . S
C3179 H3173 0.930 . S
C3179 C3175 1.400 . S
C3179 C3178 1.385 . S
C3180 C3178 1.478 . S
C3180 C3182 1.381 . S
C3180 C3186 1.383 . S
C3181 C3177 1.495 . S
C3181 H3187 0.959 . S
C3181 H3188 0.961 . S
C3181 H3189 0.960 . S
C3182 C3180 1.381 . S
C3182 C3183 1.394 . S
C3182 H3190 0.930 . S
C3183 C3182 1.394 . S
C3183 C3184 1.383 . S
C3183 H3191 0.929 . S
C3184 C3183 1.383 . S
C3184 C3185 1.377 . S
C3185 H3169 0.930 . S
C3185 C3184 1.377 . S
C3185 C3186 1.379 . S
C3186 H3170 0.931 . S
C3186 C3180 1.383 . S
C3186 C3185 1.379 . S
H3187 C3181 0.959 . S
H3188 C3181 0.961 . S
H3189 C3181 0.960 . S
H3190 C3182 0.930 . S
H3191 C3183 0.929 . S
H3192 C3200 0.929 . S
H3193 C3202 0.930 . S
H3194 C3204 0.930 . S
H3195 C3207 0.929 . S
H3196 C3210 0.930 . S
H3197 C3212 0.960 . S
H3198 C3212 0.960 . S
H3199 C3212 0.960 . S
C3200 H3192 0.929 . S
C3200 C3201 1.377 . S
C3200 C3202 1.384 . S
C3201 C3200 1.377 . S
C3201 C3207 1.390 . S
C3202 H3193 0.930 . S
C3202 C3200 1.384 . S
C3202 C3203 1.372 . S
C3203 C3202 1.372 . S
C3203 C3204 1.400 . S
C3203 C3208 1.490 . S
C3204 H3194 0.930 . S
C3204 C3203 1.400 . S
C3204 C3207 1.386 . S
H3205 C3221 0.930 . S
H3206 C3222 0.931 . S
C3207 H3195 0.929 . S
C3207 C3201 1.390 . S
C3207 C3204 1.386 . S
C3208 C3203 1.490 . S
C3208 C3210 1.395 . S
C3208 C3211 1.403 . S
H3209 C3215 0.930 . S
C3210 H3196 0.930 . S
C3210 C3208 1.395 . S
C3210 C3213 1.403 . S
C3211 C3208 1.403 . S
C3211 C3212 1.524 . S
C3211 C3215 1.400 . S
C3212 H3197 0.960 . S
C3212 H3198 0.960 . S
C3212 H3199 0.960 . S
C3212 C3211 1.524 . S
C3213 C3210 1.403 . S
C3213 C3214 1.392 . S
C3213 C3217 1.495 . S
C3214 C3213 1.392 . S
C3214 C3215 1.385 . S
C3214 C3216 1.478 . S
C3215 H3209 0.930 . S
C3215 C3211 1.400 . S
C3215 C3214 1.385 . S
C3216 C3214 1.478 . S
C3216 C3218 1.381 . S
C3216 C3222 1.383 . S
C3217 C3213 1.495 . S
C3217 H3223 0.959 . S
C3217 H3224 0.961 . S
C3217 H3225 0.960 . S
C3218 C3216 1.381 . S
C3218 C3219 1.394 . S
C3218 H3226 0.930 . S
C3219 C3218 1.394 . S
C3219 C3220 1.383 . S
C3219 H3227 0.929 . S
C3220 C3219 1.383 . S
C3220 C3221 1.377 . S
C3221 H3205 0.930 . S
C3221 C3220 1.377 . S
C3221 C3222 1.379 . S
C3222 H3206 0.931 . S
C3222 C3216 1.383 . S
C3222 C3221 1.379 . S
H3223 C3217 0.959 . S
H3224 C3217 0.961 . S
H3225 C3217 0.960 . S
H3226 C3218 0.930 . S
H3227 C3219 0.929 . S
H3228 C3236 0.929 . S
H3229 C3238 0.930 . S
H3230 C3240 0.930 . S
H3231 C3243 0.929 . S
H3232 C3246 0.930 . S
H3233 C3248 0.960 . S
H3234 C3248 0.960 . S
H3235 C3248 0.960 . S
C3236 H3228 0.929 . S
C3236 C3237 1.377 . S
C3236 C3238 1.384 . S
C3237 C3236 1.377 . S
C3237 C3243 1.390 . S
C3238 H3229 0.930 . S
C3238 C3236 1.384 . S
C3238 C3239 1.372 . S
C3239 C3238 1.372 . S
C3239 C3240 1.400 . S
C3239 C3244 1.490 . S
C3240 H3230 0.930 . S
C3240 C3239 1.400 . S
C3240 C3243 1.386 . S
H3241 C3257 0.930 . S
H3242 C3258 0.931 . S
C3243 H3231 0.929 . S
C3243 C3237 1.390 . S
C3243 C3240 1.386 . S
C3244 C3239 1.490 . S
C3244 C3246 1.395 . S
C3244 C3247 1.403 . S
H3245 C3251 0.930 . S
C3246 H3232 0.930 . S
C3246 C3244 1.395 . S
C3246 C3249 1.403 . S
C3247 C3244 1.403 . S
C3247 C3248 1.524 . S
C3247 C3251 1.400 . S
C3248 H3233 0.960 . S
C3248 H3234 0.960 . S
C3248 H3235 0.960 . S
C3248 C3247 1.524 . S
C3249 C3246 1.403 . S
C3249 C3250 1.392 . S
C3249 C3253 1.495 . S
C3250 C3249 1.392 . S
C3250 C3251 1.385 . S
C3250 C3252 1.478 . S
C3251 H3245 0.930 . S
C3251 C3247 1.400 . S
C3251 C3250 1.385 . S
C3252 C3250 1.478 . S
C3252 C3254 1.381 . S
C3252 C3258 1.383 . S
C3253 C3249 1.495 . S
C3253 H3259 0.959 . S
C3253 H3260 0.961 . S
C3253 H3261 0.960 . S
C3254 C3252 1.381 . S
C3254 C3255 1.394 . S
C3254 H3262 0.930 . S
C3255 C3254 1.394 . S
C3255 C3256 1.383 . S
C3255 H3263 0.929 . S
C3256 C3255 1.383 . S
C3256 C3257 1.377 . S
C3257 H3241 0.930 . S
C3257 C3256 1.377 . S
C3257 C3258 1.379 . S
C3258 H3242 0.931 . S
C3258 C3252 1.383 . S
C3258 C3257 1.379 . S
H3259 C3253 0.959 . S
H3260 C3253 0.961 . S
H3261 C3253 0.960 . S
H3262 C3254 0.930 . S
H3263 C3255 0.929 . S
H3264 C3272 0.929 . S
H3265 C3274 0.930 . S
H3266 C3276 0.930 . S
H3267 C3279 0.929 . S
H3268 C3282 0.930 . S
H3269 C3284 0.960 . S
H3270 C3284 0.960 . S
H3271 C3284 0.960 . S
C3272 H3264 0.929 . S
C3272 C3273 1.377 . S
C3272 C3274 1.384 . S
C3273 C3272 1.377 . S
C3273 C3279 1.390 . S
C3274 H3265 0.930 . S
C3274 C3272 1.384 . S
C3274 C3275 1.372 . S
C3275 C3274 1.372 . S
C3275 C3276 1.400 . S
C3275 C3280 1.490 . S
C3276 H3266 0.930 . S
C3276 C3275 1.400 . S
C3276 C3279 1.386 . S
H3277 C3293 0.930 . S
H3278 C3294 0.931 . S
C3279 H3267 0.929 . S
C3279 C3273 1.390 . S
C3279 C3276 1.386 . S
C3280 C3275 1.490 . S
C3280 C3282 1.395 . S
C3280 C3283 1.403 . S
H3281 C3287 0.930 . S
C3282 H3268 0.930 . S
C3282 C3280 1.395 . S
C3282 C3285 1.403 . S
C3283 C3280 1.403 . S
C3283 C3284 1.524 . S
C3283 C3287 1.400 . S
C3284 H3269 0.960 . S
C3284 H3270 0.960 . S
C3284 H3271 0.960 . S
C3284 C3283 1.524 . S
C3285 C3282 1.403 . S
C3285 C3286 1.392 . S
C3285 C3289 1.495 . S
C3286 C3285 1.392 . S
C3286 C3287 1.385 . S
C3286 C3288 1.478 . S
C3287 H3281 0.930 . S
C3287 C3283 1.400 . S
C3287 C3286 1.385 . S
C3288 C3286 1.478 . S
C3288 C3290 1.381 . S
C3288 C3294 1.383 . S
C3289 C3285 1.495 . S
C3289 H3295 0.959 . S
C3289 H3296 0.961 . S
C3289 H3297 0.960 . S
C3290 C3288 1.381 . S
C3290 C3291 1.394 . S
C3290 H3298 0.930 . S
C3291 C3290 1.394 . S
C3291 C3292 1.383 . S
C3291 H3299 0.929 . S
C3292 C3291 1.383 . S
C3292 C3293 1.377 . S
C3293 H3277 0.930 . S
C3293 C3292 1.377 . S
C3293 C3294 1.379 . S
C3294 H3278 0.931 . S
C3294 C3288 1.383 . S
C3294 C3293 1.379 . S
H3295 C3289 0.959 . S
H3296 C3289 0.961 . S
H3297 C3289 0.960 . S
H3298 C3290 0.930 . S
H3299 C3291 0.929 . S
H3300 C3308 0.929 . S
H3301 C3310 0.930 . S
H3302 C3312 0.930 . S
H3303 C3315 0.929 . S
H3304 C3318 0.930 . S
H3305 C3320 0.960 . S
H3306 C3320 0.960 . S
H3307 C3320 0.960 . S
C3308 H3300 0.929 . S
C3308 C3309 1.377 . S
C3308 C3310 1.384 . S
C3309 C3308 1.377 . S
C3309 C3315 1.390 . S
C3310 H3301 0.930 . S
C3310 C3308 1.384 . S
C3310 C3311 1.372 . S
C3311 C3310 1.372 . S
C3311 C3312 1.400 . S
C3311 C3316 1.490 . S
C3312 H3302 0.930 . S
C3312 C3311 1.400 . S
C3312 C3315 1.386 . S
H3313 C3329 0.930 . S
H3314 C3330 0.931 . S
C3315 H3303 0.929 . S
C3315 C3309 1.390 . S
C3315 C3312 1.386 . S
C3316 C3311 1.490 . S
C3316 C3318 1.395 . S
C3316 C3319 1.403 . S
H3317 C3323 0.930 . S
C3318 H3304 0.930 . S
C3318 C3316 1.395 . S
C3318 C3321 1.403 . S
C3319 C3316 1.403 . S
C3319 C3320 1.524 . S
C3319 C3323 1.400 . S
C3320 H3305 0.960 . S
C3320 H3306 0.960 . S
C3320 H3307 0.960 . S
C3320 C3319 1.524 . S
C3321 C3318 1.403 . S
C3321 C3322 1.392 . S
C3321 C3325 1.495 . S
C3322 C3321 1.392 . S
C3322 C3323 1.385 . S
C3322 C3324 1.478 . S
C3323 H3317 0.930 . S
C3323 C3319 1.400 . S
C3323 C3322 1.385 . S
C3324 C3322 1.478 . S
C3324 C3326 1.381 . S
C3324 C3330 1.383 . S
C3325 C3321 1.495 . S
C3325 H3331 0.959 . S
C3325 H3332 0.961 . S
C3325 H3333 0.960 . S
C3326 C3324 1.381 . S
C3326 C3327 1.394 . S
C3326 H3334 0.930 . S
C3327 C3326 1.394 . S
C3327 C3328 1.383 . S
C3327 H3335 0.929 . S
C3328 C3327 1.383 . S
C3328 C3329 1.377 . S
C3329 H3313 0.930 . S
C3329 C3328 1.377 . S
C3329 C3330 1.379 . S
C3330 H3314 0.931 . S
C3330 C3324 1.383 . S
C3330 C3329 1.379 . S
H3331 C3325 0.959 . S
H3332 C3325 0.961 . S
H3333 C3325 0.960 . S
H3334 C3326 0.930 . S
H3335 C3327 0.929 . S
H3336 C3344 0.929 . S
H3337 C3346 0.930 . S
H3338 C3348 0.930 . S
H3339 C3351 0.929 . S
H3340 C3354 0.930 . S
H3341 C3356 0.960 . S
H3342 C3356 0.960 . S
H3343 C3356 0.960 . S
C3344 H3336 0.929 . S
C3344 C3345 1.377 . S
C3344 C3346 1.384 . S
C3345 C3344 1.377 . S
C3345 C3351 1.390 . S
C3346 H3337 0.930 . S
C3346 C3344 1.384 . S
C3346 C3347 1.372 . S
C3347 C3346 1.372 . S
C3347 C3348 1.400 . S
C3347 C3352 1.490 . S
C3348 H3338 0.930 . S
C3348 C3347 1.400 . S
C3348 C3351 1.386 . S
H3349 C3365 0.930 . S
H3350 C3366 0.931 . S
C3351 H3339 0.929 . S
C3351 C3345 1.390 . S
C3351 C3348 1.386 . S
C3352 C3347 1.490 . S
C3352 C3354 1.395 . S
C3352 C3355 1.403 . S
H3353 C3359 0.930 . S
C3354 H3340 0.930 . S
C3354 C3352 1.395 . S
C3354 C3357 1.403 . S
C3355 C3352 1.403 . S
C3355 C3356 1.524 . S
C3355 C3359 1.400 . S
C3356 H3341 0.960 . S
C3356 H3342 0.960 . S
C3356 H3343 0.960 . S
C3356 C3355 1.524 . S
C3357 C3354 1.403 . S
C3357 C3358 1.392 . S
C3357 C3361 1.495 . S
C3358 C3357 1.392 . S
C3358 C3359 1.385 . S
C3358 C3360 1.478 . S
C3359 H3353 0.930 . S
C3359 C3355 1.400 . S
C3359 C3358 1.385 . S
C3360 C3358 1.478 . S
C3360 C3362 1.381 . S
C3360 C3366 1.383 . S
C3361 C3357 1.495 . S
C3361 H3367 0.959 . S
C3361 H3368 0.961 . S
C3361 H3369 0.960 . S
C3362 C3360 1.381 . S
C3362 C3363 1.394 . S
C3362 H3370 0.930 . S
C3363 C3362 1.394 . S
C3363 C3364 1.383 . S
C3363 H3371 0.929 . S
C3364 C3363 1.383 . S
C3364 C3365 1.377 . S
C3365 H3349 0.930 . S
C3365 C3364 1.377 . S
C3365 C3366 1.379 . S
C3366 H3350 0.931 . S
C3366 C3360 1.383 . S
C3366 C3365 1.379 . S
H3367 C3361 0.959 . S
H3368 C3361 0.961 . S
H3369 C3361 0.960 . S
H3370 C3362 0.930 . S
H3371 C3363 0.929 . S
H3372 C3380 0.929 . S
H3373 C3382 0.930 . S
H3374 C3384 0.930 . S
H3375 C3387 0.929 . S
H3376 C3390 0.930 . S
H3377 C3392 0.960 . S
H3378 C3392 0.960 . S
H3379 C3392 0.960 . S
C3380 H3372 0.929 . S
C3380 C3381 1.377 . S
C3380 C3382 1.384 . S
C3381 C3380 1.377 . S
C3381 C3387 1.390 . S
C3382 H3373 0.930 . S
C3382 C3380 1.384 . S
C3382 C3383 1.372 . S
C3383 C3382 1.372 . S
C3383 C3384 1.400 . S
C3383 C3388 1.490 . S
C3384 H3374 0.930 . S
C3384 C3383 1.400 . S
C3384 C3387 1.386 . S
H3385 C3401 0.930 . S
H3386 C3402 0.931 . S
C3387 H3375 0.929 . S
C3387 C3381 1.390 . S
C3387 C3384 1.386 . S
C3388 C3383 1.490 . S
C3388 C3390 1.395 . S
C3388 C3391 1.403 . S
H3389 C3395 0.930 . S
C3390 H3376 0.930 . S
C3390 C3388 1.395 . S
C3390 C3393 1.403 . S
C3391 C3388 1.403 . S
C3391 C3392 1.524 . S
C3391 C3395 1.400 . S
C3392 H3377 0.960 . S
C3392 H3378 0.960 . S
C3392 H3379 0.960 . S
C3392 C3391 1.524 . S
C3393 C3390 1.403 . S
C3393 C3394 1.392 . S
C3393 C3397 1.495 . S
C3394 C3393 1.392 . S
C3394 C3395 1.385 . S
C3394 C3396 1.478 . S
C3395 H3389 0.930 . S
C3395 C3391 1.400 . S
C3395 C3394 1.385 . S
C3396 C3394 1.478 . S
C3396 C3398 1.381 . S
C3396 C3402 1.383 . S
C3397 C3393 1.495 . S
C3397 H3403 0.959 . S
C3397 H3404 0.961 . S
C3397 H3405 0.960 . S
C3398 C3396 1.381 . S
C3398 C3399 1.394 . S
C3398 H3406 0.930 . S
C3399 C3398 1.394 . S
C3399 C3400 1.383 . S
C3399 H3407 0.929 . S
C3400 C3399 1.383 . S
C3400 C3401 1.377 . S
C3401 H3385 0.930 . S
C3401 C3400 1.377 . S
C3401 C3402 1.379 . S
C3402 H3386 0.931 . S
C3402 C3396 1.383 . S
C3402 C3401 1.379 . S
H3403 C3397 0.959 . S
H3404 C3397 0.961 . S
H3405 C3397 0.960 . S
H3406 C3398 0.930 . S
H3407 C3399 0.929 . S
H3408 C3416 0.929 . S
H3409 C3418 0.930 . S
H3410 C3420 0.930 . S
H3411 C3423 0.929 . S
H3412 C3426 0.930 . S
H3413 C3428 0.960 . S
H3414 C3428 0.960 . S
H3415 C3428 0.960 . S
C3416 H3408 0.929 . S
C3416 C3417 1.377 . S
C3416 C3418 1.384 . S
C3417 C3416 1.377 . S
C3417 C3423 1.390 . S
C3418 H3409 0.930 . S
C3418 C3416 1.384 . S
C3418 C3419 1.372 . S
C3419 C3418 1.372 . S
C3419 C3420 1.400 . S
C3419 C3424 1.490 . S
C3420 H3410 0.930 . S
C3420 C3419 1.400 . S
C3420 C3423 1.386 . S
H3421 C3437 0.930 . S
H3422 C3438 0.931 . S
C3423 H3411 0.929 . S
C3423 C3417 1.390 . S
C3423 C3420 1.386 . S
C3424 C3419 1.490 . S
C3424 C3426 1.395 . S
C3424 C3427 1.403 . S
H3425 C3431 0.930 . S
C3426 H3412 0.930 . S
C3426 C3424 1.395 . S
C3426 C3429 1.403 . S
C3427 C3424 1.403 . S
C3427 C3428 1.524 . S
C3427 C3431 1.400 . S
C3428 H3413 0.960 . S
C3428 H3414 0.960 . S
C3428 H3415 0.960 . S
C3428 C3427 1.524 . S
C3429 C3426 1.403 . S
C3429 C3430 1.392 . S
C3429 C3433 1.495 . S
C3430 C3429 1.392 . S
C3430 C3431 1.385 . S
C3430 C3432 1.478 . S
C3431 H3425 0.930 . S
C3431 C3427 1.400 . S
C3431 C3430 1.385 . S
C3432 C3430 1.478 . S
C3432 C3434 1.381 . S
C3432 C3438 1.383 . S
C3433 C3429 1.495 . S
C3433 H3439 0.959 . S
C3433 H3440 0.961 . S
C3433 H3441 0.960 . S
C3434 C3432 1.381 . S
C3434 C3435 1.394 . S
C3434 H3442 0.930 . S
C3435 C3434 1.394 . S
C3435 C3436 1.383 . S
C3435 H3443 0.929 . S
C3436 C3435 1.383 . S
C3436 C3437 1.377 . S
C3437 H3421 0.930 . S
C3437 C3436 1.377 . S
C3437 C3438 1.379 . S
C3438 H3422 0.931 . S
C3438 C3432 1.383 . S
C3438 C3437 1.379 . S
H3439 C3433 0.959 . S
H3440 C3433 0.961 . S
H3441 C3433 0.960 . S
H3442 C3434 0.930 . S
H3443 C3435 0.929 . S
H3444 C3452 0.929 . S
H3445 C3454 0.930 . S
H3446 C3456 0.930 . S
H3447 C3459 0.929 . S
H3448 C3462 0.930 . S
H3449 C3464 0.960 . S
H3450 C3464 0.960 . S
H3451 C3464 0.960 . S
C3452 H3444 0.929 . S
C3452 C3453 1.377 . S
C3452 C3454 1.384 . S
C3453 C3452 1.377 . S
C3453 C3459 1.390 . S
C3454 H3445 0.930 . S
C3454 C3452 1.384 . S
C3454 C3455 1.372 . S
C3455 C3454 1.372 . S
C3455 C3456 1.400 . S
C3455 C3460 1.490 . S
C3456 H3446 0.930 . S
C3456 C3455 1.400 . S
C3456 C3459 1.386 . S
H3457 C3473 0.930 . S
H3458 C3474 0.931 . S
C3459 H3447 0.929 . S
C3459 C3453 1.390 . S
C3459 C3456 1.386 . S
C3460 C3455 1.490 . S
C3460 C3462 1.395 . S
C3460 C3463 1.403 . S
H3461 C3467 0.930 . S
C3462 H3448 0.930 . S
C3462 C3460 1.395 . S
C3462 C3465 1.403 . S
C3463 C3460 1.403 . S
C3463 C3464 1.524 . S
C3463 C3467 1.400 . S
C3464 H3449 0.960 . S
C3464 H3450 0.960 . S
C3464 H3451 0.960 . S
C3464 C3463 1.524 . S
C3465 C3462 1.403 . S
C3465 C3466 1.392 . S
C3465 C3469 1.495 . S
C3466 C3465 1.392 . S
C3466 C3467 1.385 . S
C3466 C3468 1.478 . S
C3467 H3461 0.930 . S
C3467 C3463 1.400 . S
C3467 C3466 1.385 . S
C3468 C3466 1.478 . S
C3468 C3470 1.381 . S
C3468 C3474 1.383 . S
C3469 C3465 1.495 . S
C3469 H3475 0.959 . S
C3469 H3476 0.961 . S
C3469 H3477 0.960 . S
C3470 C3468 1.381 . S
C3470 C3471 1.394 . S
C3470 H3478 0.930 . S
C3471 C3470 1.394 . S
C3471 C3472 1.383 . S
C3471 H3479 0.929 . S
C3472 C3471 1.383 . S
C3472 C3473 1.377 . S
C3473 H3457 0.930 . S
C3473 C3472 1.377 . S
C3473 C3474 1.379 . S
C3474 H3458 0.931 . S
C3474 C3468 1.383 . S
C3474 C3473 1.379 . S
H3475 C3469 0.959 . S
H3476 C3469 0.961 . S
H3477 C3469 0.960 . S
H3478 C3470 0.930 . S
H3479 C3471 0.929 . S
H3480 C3488 0.929 . S
H3481 C3490 0.930 . S
H3482 C3492 0.930 . S
H3483 C3495 0.929 . S
H3484 C3498 0.930 . S
H3485 C3500 0.960 . S
H3486 C3500 0.960 . S
H3487 C3500 0.960 . S
C3488 H3480 0.929 . S
C3488 C3489 1.377 . S
C3488 C3490 1.384 . S
C3489 C3488 1.377 . S
C3489 C3495 1.390 . S
C3490 H3481 0.930 . S
C3490 C3488 1.384 . S
C3490 C3491 1.372 . S
C3491 C3490 1.372 . S
C3491 C3492 1.400 . S
C3491 C3496 1.490 . S
C3492 H3482 0.930 . S
C3492 C3491 1.400 . S
C3492 C3495 1.386 . S
H3493 C3509 0.930 . S
H3494 C3510 0.931 . S
C3495 H3483 0.929 . S
C3495 C3489 1.390 . S
C3495 C3492 1.386 . S
C3496 C3491 1.490 . S
C3496 C3498 1.395 . S
C3496 C3499 1.403 . S
H3497 C3503 0.930 . S
C3498 H3484 0.930 . S
C3498 C3496 1.395 . S
C3498 C3501 1.403 . S
C3499 C3496 1.403 . S
C3499 C3500 1.524 . S
C3499 C3503 1.400 . S
C3500 H3485 0.960 . S
C3500 H3486 0.960 . S
C3500 H3487 0.960 . S
C3500 C3499 1.524 . S
C3501 C3498 1.403 . S
C3501 C3502 1.392 . S
C3501 C3505 1.495 . S
C3502 C3501 1.392 . S
C3502 C3503 1.385 . S
C3502 C3504 1.478 . S
C3503 H3497 0.930 . S
C3503 C3499 1.400 . S
C3503 C3502 1.385 . S
C3504 C3502 1.478 . S
C3504 C3506 1.381 . S
C3504 C3510 1.383 . S
C3505 C3501 1.495 . S
C3505 H3511 0.959 . S
C3505 H3512 0.961 . S
C3505 H3513 0.960 . S
C3506 C3504 1.381 . S
C3506 C3507 1.394 . S
C3506 H3514 0.930 . S
C3507 C3506 1.394 . S
C3507 C3508 1.383 . S
C3507 H3515 0.929 . S
C3508 C3507 1.383 . S
C3508 C3509 1.377 . S
C3509 H3493 0.930 . S
C3509 C3508 1.377 . S
C3509 C3510 1.379 . S
C3510 H3494 0.931 . S
C3510 C3504 1.383 . S
C3510 C3509 1.379 . S
H3511 C3505 0.959 . S
H3512 C3505 0.961 . S
H3513 C3505 0.960 . S
H3514 C3506 0.930 . S
H3515 C3507 0.929 . S
H3516 C3524 0.929 . S
H3517 C3526 0.930 . S
H3518 C3528 0.930 . S
H3519 C3531 0.929 . S
H3520 C3534 0.930 . S
H3521 C3536 0.960 . S
H3522 C3536 0.960 . S
H3523 C3536 0.960 . S
C3524 H3516 0.929 . S
C3524 C3525 1.377 . S
C3524 C3526 1.384 . S
C3525 C3524 1.377 . S
C3525 C3531 1.390 . S
C3526 H3517 0.930 . S
C3526 C3524 1.384 . S
C3526 C3527 1.372 . S
C3527 C3526 1.372 . S
C3527 C3528 1.400 . S
C3527 C3532 1.490 . S
C3528 H3518 0.930 . S
C3528 C3527 1.400 . S
C3528 C3531 1.386 . S
H3529 C3545 0.930 . S
H3530 C3546 0.931 . S
C3531 H3519 0.929 . S
C3531 C3525 1.390 . S
C3531 C3528 1.386 . S
C3532 C3527 1.490 . S
C3532 C3534 1.395 . S
C3532 C3535 1.403 . S
H3533 C3539 0.930 . S
C3534 H3520 0.930 . S
C3534 C3532 1.395 . S
C3534 C3537 1.403 . S
C3535 C3532 1.403 . S
C3535 C3536 1.524 . S
C3535 C3539 1.400 . S
C3536 H3521 0.960 . S
C3536 H3522 0.960 . S
C3536 H3523 0.960 . S
C3536 C3535 1.524 . S
C3537 C3534 1.403 . S
C3537 C3538 1.392 . S
C3537 C3541 1.495 . S
C3538 C3537 1.392 . S
C3538 C3539 1.385 . S
C3538 C3540 1.478 . S
C3539 H3533 0.930 . S
C3539 C3535 1.400 . S
C3539 C3538 1.385 . S
C3540 C3538 1.478 . S
C3540 C3542 1.381 . S
C3540 C3546 1.383 . S
C3541 C3537 1.495 . S
C3541 H3547 0.959 . S
C3541 H3548 0.961 . S
C3541 H3549 0.960 . S
C3542 C3540 1.381 . S
C3542 C3543 1.394 . S
C3542 H3550 0.930 . S
C3543 C3542 1.394 . S
C3543 C3544 1.383 . S
C3543 H3551 0.929 . S
C3544 C3543 1.383 . S
C3544 C3545 1.377 . S
C3545 H3529 0.930 . S
C3545 C3544 1.377 . S
C3545 C3546 1.379 . S
C3546 H3530 0.931 . S
C3546 C3540 1.383 . S
C3546 C3545 1.379 . S
H3547 C3541 0.959 . S
H3548 C3541 0.961 . S
H3549 C3541 0.960 . S
H3550 C3542 0.930 . S
H3551 C3543 0.929 . S
H3552 C3560 0.929 . S
H3553 C3562 0.930 . S
H3554 C3564 0.930 . S
H3555 C3567 0.929 . S
H3556 C3570 0.930 . S
H3557 C3572 0.960 . S
H3558 C3572 0.960 . S
H3559 C3572 0.960 . S
C3560 H3552 0.929 . S
C3560 C3561 1.377 . S
C3560 C3562 1.384 . S
C3561 C3560 1.377 . S
C3561 C3567 1.390 . S
C3562 H3553 0.930 . S
C3562 C3560 1.384 . S
C3562 C3563 1.372 . S
C3563 C3562 1.372 . S
C3563 C3564 1.400 . S
C3563 C3568 1.490 . S
C3564 H3554 0.930 . S
C3564 C3563 1.400 . S
C3564 C3567 1.386 . S
H3565 C3581 0.930 . S
H3566 C3582 0.931 . S
C3567 H3555 0.929 . S
C3567 C3561 1.390 . S
C3567 C3564 1.386 . S
C3568 C3563 1.490 . S
C3568 C3570 1.395 . S
C3568 C3571 1.403 . S
H3569 C3575 0.930 . S
C3570 H3556 0.930 . S
C3570 C3568 1.395 . S
C3570 C3573 1.403 . S
C3571 C3568 1.403 . S
C3571 C3572 1.524 . S
C3571 C3575 1.400 . S
C3572 H3557 0.960 . S
C3572 H3558 0.960 . S
C3572 H3559 0.960 . S
C3572 C3571 1.524 . S
C3573 C3570 1.403 . S
C3573 C3574 1.392 . S
C3573 C3577 1.495 . S
C3574 C3573 1.392 . S
C3574 C3575 1.385 . S
C3574 C3576 1.478 . S
C3575 H3569 0.930 . S
C3575 C3571 1.400 . S
C3575 C3574 1.385 . S
C3576 C3574 1.478 . S
C3576 C3578 1.381 . S
C3576 C3582 1.383 . S
C3577 C3573 1.495 . S
C3577 H3583 0.959 . S
C3577 H3584 0.961 . S
C3577 H3585 0.960 . S
C3578 C3576 1.381 . S
C3578 C3579 1.394 . S
C3578 H3586 0.930 . S
C3579 C3578 1.394 . S
C3579 C3580 1.383 . S
C3579 H3587 0.929 . S
C3580 C3579 1.383 . S
C3580 C3581 1.377 . S
C3581 H3565 0.930 . S
C3581 C3580 1.377 . S
C3581 C3582 1.379 . S
C3582 H3566 0.931 . S
C3582 C3576 1.383 . S
C3582 C3581 1.379 . S
H3583 C3577 0.959 . S
H3584 C3577 0.961 . S
H3585 C3577 0.960 . S
H3586 C3578 0.930 . S
H3587 C3579 0.929 . S
H3588 C3596 0.929 . S
H3589 C3598 0.930 . S
H3590 C3600 0.930 . S
H3591 C3603 0.929 . S
H3592 C3606 0.930 . S
H3593 C3608 0.960 . S
H3594 C3608 0.960 . S
H3595 C3608 0.960 . S
C3596 H3588 0.929 . S
C3596 C3597 1.377 . S
C3596 C3598 1.384 . S
C3597 C3596 1.377 . S
C3597 C3603 1.390 . S
C3598 H3589 0.930 . S
C3598 C3596 1.384 . S
C3598 C3599 1.372 . S
C3599 C3598 1.372 . S
C3599 C3600 1.400 . S
C3599 C3604 1.490 . S
C3600 H3590 0.930 . S
C3600 C3599 1.400 . S
C3600 C3603 1.386 . S
H3601 C3617 0.930 . S
H3602 C3618 0.931 . S
C3603 H3591 0.929 . S
C3603 C3597 1.390 . S
C3603 C3600 1.386 . S
C3604 C3599 1.490 . S
C3604 C3606 1.395 . S
C3604 C3607 1.403 . S
H3605 C3611 0.930 . S
C3606 H3592 0.930 . S
C3606 C3604 1.395 . S
C3606 C3609 1.403 . S
C3607 C3604 1.403 . S
C3607 C3608 1.524 . S
C3607 C3611 1.400 . S
C3608 H3593 0.960 . S
C3608 H3594 0.960 . S
C3608 H3595 0.960 . S
C3608 C3607 1.524 . S
C3609 C3606 1.403 . S
C3609 C3610 1.392 . S
C3609 C3613 1.495 . S
C3610 C3609 1.392 . S
C3610 C3611 1.385 . S
C3610 C3612 1.478 . S
C3611 H3605 0.930 . S
C3611 C3607 1.400 . S
C3611 C3610 1.385 . S
C3612 C3610 1.478 . S
C3612 C3614 1.381 . S
C3612 C3618 1.383 . S
C3613 C3609 1.495 . S
C3613 H3619 0.959 . S
C3613 H3620 0.961 . S
C3613 H3621 0.960 . S
C3614 C3612 1.381 . S
C3614 C3615 1.394 . S
C3614 H3622 0.930 . S
C3615 C3614 1.394 . S
C3615 C3616 1.383 . S
C3615 H3623 0.929 . S
C3616 C3615 1.383 . S
C3616 C3617 1.377 . S
C3617 H3601 0.930 . S
C3617 C3616 1.377 . S
C3617 C3618 1.379 . S
C3618 H3602 0.931 . S
C3618 C3612 1.383 . S
C3618 C3617 1.379 . S
H3619 C3613 0.959 . S
H3620 C3613 0.961 . S
H3621 C3613 0.960 . S
H3622 C3614 0.930 . S
H3623 C3615 0.929 . S
H3624 C3632 0.929 . S
H3625 C3634 0.930 . S
H3626 C3636 0.930 . S
H3627 C3639 0.929 . S
H3628 C3642 0.930 . S
H3629 C3644 0.960 . S
H3630 C3644 0.960 . S
H3631 C3644 0.960 . S
C3632 H3624 0.929 . S
C3632 C3633 1.377 . S
C3632 C3634 1.384 . S
C3633 C3632 1.377 . S
C3633 C3639 1.390 . S
C3634 H3625 0.930 . S
C3634 C3632 1.384 . S
C3634 C3635 1.372 . S
C3635 C3634 1.372 . S
C3635 C3636 1.400 . S
C3635 C3640 1.490 . S
C3636 H3626 0.930 . S
C3636 C3635 1.400 . S
C3636 C3639 1.386 . S
H3637 C3653 0.930 . S
H3638 C3654 0.931 . S
C3639 H3627 0.929 . S
C3639 C3633 1.390 . S
C3639 C3636 1.386 . S
C3640 C3635 1.490 . S
C3640 C3642 1.395 . S
C3640 C3643 1.403 . S
H3641 C3647 0.930 . S
C3642 H3628 0.930 . S
C3642 C3640 1.395 . S
C3642 C3645 1.403 . S
C3643 C3640 1.403 . S
C3643 C3644 1.524 . S
C3643 C3647 1.400 . S
C3644 H3629 0.960 . S
C3644 H3630 0.960 . S
C3644 H3631 0.960 . S
C3644 C3643 1.524 . S
C3645 C3642 1.403 . S
C3645 C3646 1.392 . S
C3645 C3649 1.495 . S
C3646 C3645 1.392 . S
C3646 C3647 1.385 . S
C3646 C3648 1.478 . S
C3647 H3641 0.930 . S
C3647 C3643 1.400 . S
C3647 C3646 1.385 . S
C3648 C3646 1.478 . S
C3648 C3650 1.381 . S
C3648 C3654 1.383 . S
C3649 C3645 1.495 . S
C3649 H3655 0.959 . S
C3649 H3656 0.961 . S
C3649 H3657 0.960 . S
C3650 C3648 1.381 . S
C3650 C3651 1.394 . S
C3650 H3658 0.930 . S
C3651 C3650 1.394 . S
C3651 C3652 1.383 . S
C3651 H3659 0.929 . S
C3652 C3651 1.383 . S
C3652 C3653 1.377 . S
C3653 H3637 0.930 . S
C3653 C3652 1.377 . S
C3653 C3654 1.379 . S
C3654 H3638 0.931 . S
C3654 C3648 1.383 . S
C3654 C3653 1.379 . S
H3655 C3649 0.959 . S
H3656 C3649 0.961 . S
H3657 C3649 0.960 . S
H3658 C3650 0.930 . S
H3659 C3651 0.929 . S
H3660 C3668 0.929 . S
H3661 C3670 0.930 . S
H3662 C3672 0.930 . S
H3663 C3675 0.929 . S
H3664 C3678 0.930 . S
H3665 C3680 0.960 . S
H3666 C3680 0.960 . S
H3667 C3680 0.960 . S
C3668 H3660 0.929 . S
C3668 C3669 1.377 . S
C3668 C3670 1.384 . S
C3669 C3668 1.377 . S
C3669 C3675 1.390 . S
C3670 H3661 0.930 . S
C3670 C3668 1.384 . S
C3670 C3671 1.372 . S
C3671 C3670 1.372 . S
C3671 C3672 1.400 . S
C3671 C3676 1.490 . S
C3672 H3662 0.930 . S
C3672 C3671 1.400 . S
C3672 C3675 1.386 . S
H3673 C3689 0.930 . S
H3674 C3690 0.931 . S
C3675 H3663 0.929 . S
C3675 C3669 1.390 . S
C3675 C3672 1.386 . S
C3676 C3671 1.490 . S
C3676 C3678 1.395 . S
C3676 C3679 1.403 . S
H3677 C3683 0.930 . S
C3678 H3664 0.930 . S
C3678 C3676 1.395 . S
C3678 C3681 1.403 . S
C3679 C3676 1.403 . S
C3679 C3680 1.524 . S
C3679 C3683 1.400 . S
C3680 H3665 0.960 . S
C3680 H3666 0.960 . S
C3680 H3667 0.960 . S
C3680 C3679 1.524 . S
C3681 C3678 1.403 . S
C3681 C3682 1.392 . S
C3681 C3685 1.495 . S
C3682 C3681 1.392 . S
C3682 C3683 1.385 . S
C3682 C3684 1.478 . S
C3683 H3677 0.930 . S
C3683 C3679 1.400 . S
C3683 C3682 1.385 . S
C3684 C3682 1.478 . S
C3684 C3686 1.381 . S
C3684 C3690 1.383 . S
C3685 C3681 1.495 . S
C3685 H3691 0.959 . S
C3685 H3692 0.961 . S
C3685 H3693 0.960 . S
C3686 C3684 1.381 . S
C3686 C3687 1.394 . S
C3686 H3694 0.930 . S
C3687 C3686 1.394 . S
C3687 C3688 1.383 . S
C3687 H3695 0.929 . S
C3688 C3687 1.383 . S
C3688 C3689 1.377 . S
C3689 H3673 0.930 . S
C3689 C3688 1.377 . S
C3689 C3690 1.379 . S
C3690 H3674 0.931 . S
C3690 C3684 1.383 . S
C3690 C3689 1.379 . S
H3691 C3685 0.959 . S
H3692 C3685 0.961 . S
H3693 C3685 0.960 . S
H3694 C3686 0.930 . S
H3695 C3687 0.929 . S
H3696 C3704 0.929 . S
H3697 C3706 0.930 . S
H3698 C3708 0.930 . S
H3699 C3711 0.929 . S
H3700 C3714 0.930 . S
H3701 C3716 0.960 . S
H3702 C3716 0.960 . S
H3703 C3716 0.960 . S
C3704 H3696 0.929 . S
C3704 C3705 1.377 . S
C3704 C3706 1.384 . S
C3705 C3704 1.377 . S
C3705 C3711 1.390 . S
C3706 H3697 0.930 . S
C3706 C3704 1.384 . S
C3706 C3707 1.372 . S
C3707 C3706 1.372 . S
C3707 C3708 1.400 . S
C3707 C3712 1.490 . S
C3708 H3698 0.930 . S
C3708 C3707 1.400 . S
C3708 C3711 1.386 . S
H3709 C3725 0.930 . S
H3710 C3726 0.931 . S
C3711 H3699 0.929 . S
C3711 C3705 1.390 . S
C3711 C3708 1.386 . S
C3712 C3707 1.490 . S
C3712 C3714 1.395 . S
C3712 C3715 1.403 . S
H3713 C3719 0.930 . S
C3714 H3700 0.930 . S
C3714 C3712 1.395 . S
C3714 C3717 1.403 . S
C3715 C3712 1.403 . S
C3715 C3716 1.524 . S
C3715 C3719 1.400 . S
C3716 H3701 0.960 . S
C3716 H3702 0.960 . S
C3716 H3703 0.960 . S
C3716 C3715 1.524 . S
C3717 C3714 1.403 . S
C3717 C3718 1.392 . S
C3717 C3721 1.495 . S
C3718 C3717 1.392 . S
C3718 C3719 1.385 . S
C3718 C3720 1.478 . S
C3719 H3713 0.930 . S
C3719 C3715 1.400 . S
C3719 C3718 1.385 . S
C3720 C3718 1.478 . S
C3720 C3722 1.381 . S
C3720 C3726 1.383 . S
C3721 C3717 1.495 . S
C3721 H3727 0.959 . S
C3721 H3728 0.961 . S
C3721 H3729 0.960 . S
C3722 C3720 1.381 . S
C3722 C3723 1.394 . S
C3722 H3730 0.930 . S
C3723 C3722 1.394 . S
C3723 C3724 1.383 . S
C3723 H3731 0.929 . S
C3724 C3723 1.383 . S
C3724 C3725 1.377 . S
C3725 H3709 0.930 . S
C3725 C3724 1.377 . S
C3725 C3726 1.379 . S
C3726 H3710 0.931 . S
C3726 C3720 1.383 . S
C3726 C3725 1.379 . S
H3727 C3721 0.959 . S
H3728 C3721 0.961 . S
H3729 C3721 0.960 . S
H3730 C3722 0.930 . S
H3731 C3723 0.929 . S
H3732 C3740 0.929 . S
H3733 C3742 0.930 . S
H3734 C3744 0.930 . S
H3735 C3747 0.929 . S
H3736 C3750 0.930 . S
H3737 C3752 0.960 . S
H3738 C3752 0.960 . S
H3739 C3752 0.960 . S
C3740 H3732 0.929 . S
C3740 C3741 1.377 . S
C3740 C3742 1.384 . S
C3741 C3740 1.377 . S
C3741 C3747 1.390 . S
C3742 H3733 0.930 . S
C3742 C3740 1.384 . S
C3742 C3743 1.372 . S
C3743 C3742 1.372 . S
C3743 C3744 1.400 . S
C3743 C3748 1.490 . S
C3744 H3734 0.930 . S
C3744 C3743 1.400 . S
C3744 C3747 1.386 . S
H3745 C3761 0.930 . S
H3746 C3762 0.931 . S
C3747 H3735 0.929 . S
C3747 C3741 1.390 . S
C3747 C3744 1.386 . S
C3748 C3743 1.490 . S
C3748 C3750 1.395 . S
C3748 C3751 1.403 . S
H3749 C3755 0.930 . S
C3750 H3736 0.930 . S
C3750 C3748 1.395 . S
C3750 C3753 1.403 . S
C3751 C3748 1.403 . S
C3751 C3752 1.524 . S
C3751 C3755 1.400 . S
C3752 H3737 0.960 . S
C3752 H3738 0.960 . S
C3752 H3739 0.960 . S
C3752 C3751 1.524 . S
C3753 C3750 1.403 . S
C3753 C3754 1.392 . S
C3753 C3757 1.495 . S
C3754 C3753 1.392 . S
C3754 C3755 1.385 . S
C3754 C3756 1.478 . S
C3755 H3749 0.930 . S
C3755 C3751 1.400 . S
C3755 C3754 1.385 . S
C3756 C3754 1.478 . S
C3756 C3758 1.381 . S
C3756 C3762 1.383 . S
C3757 C3753 1.495 . S
C3757 H3763 0.959 . S
C3757 H3764 0.961 . S
C3757 H3765 0.960 . S
C3758 C3756 1.381 . S
C3758 C3759 1.394 . S
C3758 H3766 0.930 . S
C3759 C3758 1.394 . S
C3759 C3760 1.383 . S
C3759 H3767 0.929 . S
C3760 C3759 1.383 . S
C3760 C3761 1.377 . S
C3761 H3745 0.930 . S
C3761 C3760 1.377 . S
C3761 C3762 1.379 . S
C3762 H3746 0.931 . S
C3762 C3756 1.383 . S
C3762 C3761 1.379 . S
H3763 C3757 0.959 . S
H3764 C3757 0.961 . S
H3765 C3757 0.960 . S
H3766 C3758 0.930 . S
H3767 C3759 0.929 . S
H3768 C3776 0.929 . S
H3769 C3778 0.930 . S
H3770 C3780 0.930 . S
H3771 C3783 0.929 . S
H3772 C3786 0.930 . S
H3773 C3788 0.960 . S
H3774 C3788 0.960 . S
H3775 C3788 0.960 . S
C3776 H3768 0.929 . S
C3776 C3777 1.377 . S
C3776 C3778 1.384 . S
C3777 C3776 1.377 . S
C3777 C3783 1.390 . S
C3778 H3769 0.930 . S
C3778 C3776 1.384 . S
C3778 C3779 1.372 . S
C3779 C3778 1.372 . S
C3779 C3780 1.400 . S
C3779 C3784 1.490 . S
C3780 H3770 0.930 . S
C3780 C3779 1.400 . S
C3780 C3783 1.386 . S
H3781 C3797 0.930 . S
H3782 C3798 0.931 . S
C3783 H3771 0.929 . S
C3783 C3777 1.390 . S
C3783 C3780 1.386 . S
C3784 C3779 1.490 . S
C3784 C3786 1.395 . S
C3784 C3787 1.403 . S
H3785 C3791 0.930 . S
C3786 H3772 0.930 . S
C3786 C3784 1.395 . S
C3786 C3789 1.403 . S
C3787 C3784 1.403 . S
C3787 C3788 1.524 . S
C3787 C3791 1.400 . S
C3788 H3773 0.960 . S
C3788 H3774 0.960 . S
C3788 H3775 0.960 . S
C3788 C3787 1.524 . S
C3789 C3786 1.403 . S
C3789 C3790 1.392 . S
C3789 C3793 1.495 . S
C3790 C3789 1.392 . S
C3790 C3791 1.385 . S
C3790 C3792 1.478 . S
C3791 H3785 0.930 . S
C3791 C3787 1.400 . S
C3791 C3790 1.385 . S
C3792 C3790 1.478 . S
C3792 C3794 1.381 . S
C3792 C3798 1.383 . S
C3793 C3789 1.495 . S
C3793 H3799 0.959 . S
C3793 H3800 0.961 . S
C3793 H3801 0.960 . S
C3794 C3792 1.381 . S
C3794 C3795 1.394 . S
C3794 H3802 0.930 . S
C3795 C3794 1.394 . S
C3795 C3796 1.383 . S
C3795 H3803 0.929 . S
C3796 C3795 1.383 . S
C3796 C3797 1.377 . S
C3797 H3781 0.930 . S
C3797 C3796 1.377 . S
C3797 C3798 1.379 . S
C3798 H3782 0.931 . S
C3798 C3792 1.383 . S
C3798 C3797 1.379 . S
H3799 C3793 0.959 . S
H3800 C3793 0.961 . S
H3801 C3793 0.960 . S
H3802 C3794 0.930 . S
H3803 C3795 0.929 . S
H3804 C3812 0.929 . S
H3805 C3814 0.930 . S
H3806 C3816 0.930 . S
H3807 C3819 0.929 . S
H3808 C3822 0.930 . S
H3809 C3824 0.960 . S
H3810 C3824 0.960 . S
H3811 C3824 0.960 . S
C3812 H3804 0.929 . S
C3812 C3813 1.377 . S
C3812 C3814 1.384 . S
C3813 C3812 1.377 . S
C3813 C3819 1.390 . S
C3814 H3805 0.930 . S
C3814 C3812 1.384 . S
C3814 C3815 1.372 . S
C3815 C3814 1.372 . S
C3815 C3816 1.400 . S
C3815 C3820 1.490 . S
C3816 H3806 0.930 . S
C3816 C3815 1.400 . S
C3816 C3819 1.386 . S
H3817 C3833 0.930 . S
H3818 C3834 0.931 . S
C3819 H3807 0.929 . S
C3819 C3813 1.390 . S
C3819 C3816 1.386 . S
C3820 C3815 1.490 . S
C3820 C3822 1.395 . S
C3820 C3823 1.403 . S
H3821 C3827 0.930 . S
C3822 H3808 0.930 . S
C3822 C3820 1.395 . S
C3822 C3825 1.403 . S
C3823 C3820 1.403 . S
C3823 C3824 1.524 . S
C3823 C3827 1.400 . S
C3824 H3809 0.960 . S
C3824 H3810 0.960 . S
C3824 H3811 0.960 . S
C3824 C3823 1.524 . S
C3825 C3822 1.403 . S
C3825 C3826 1.392 . S
C3825 C3829 1.495 . S
C3826 C3825 1.392 . S
C3826 C3827 1.385 . S
C3826 C3828 1.478 . S
C3827 H3821 0.930 . S
C3827 C3823 1.400 . S
C3827 C3826 1.385 . S
C3828 C3826 1.478 . S
C3828 C3830 1.381 . S
C3828 C3834 1.383 . S
C3829 C3825 1.495 . S
C3829 H3835 0.959 . S
C3829 H3836 0.961 . S
C3829 H3837 0.960 . S
C3830 C3828 1.381 . S
C3830 C3831 1.394 . S
C3830 H3838 0.930 . S
C3831 C3830 1.394 . S
C3831 C3832 1.383 . S
C3831 H3839 0.929 . S
C3832 C3831 1.383 . S
C3832 C3833 1.377 . S
C3833 H3817 0.930 . S
C3833 C3832 1.377 . S
C3833 C3834 1.379 . S
C3834 H3818 0.931 . S
C3834 C3828 1.383 . S
C3834 C3833 1.379 . S
H3835 C3829 0.959 . S
H3836 C3829 0.961 . S
H3837 C3829 0.960 . S
H3838 C3830 0.930 . S
H3839 C3831 0.929 . S
H3840 C3848 0.929 . S
H3841 C3850 0.930 . S
H3842 C3852 0.930 . S
H3843 C3855 0.929 . S
H3844 C3858 0.930 . S
H3845 C3860 0.960 . S
H3846 C3860 0.960 . S
H3847 C3860 0.960 . S
C3848 H3840 0.929 . S
C3848 C3849 1.377 . S
C3848 C3850 1.384 . S
C3849 C3848 1.377 . S
C3849 C3855 1.390 . S
C3850 H3841 0.930 . S
C3850 C3848 1.384 . S
C3850 C3851 1.372 . S
C3851 C3850 1.372 . S
C3851 C3852 1.400 . S
C3851 C3856 1.490 . S
C3852 H3842 0.930 . S
C3852 C3851 1.400 . S
C3852 C3855 1.386 . S
H3853 C3869 0.930 . S
H3854 C3870 0.931 . S
C3855 H3843 0.929 . S
C3855 C3849 1.390 . S
C3855 C3852 1.386 . S
C3856 C3851 1.490 . S
C3856 C3858 1.395 . S
C3856 C3859 1.403 . S
H3857 C3863 0.930 . S
C3858 H3844 0.930 . S
C3858 C3856 1.395 . S
C3858 C3861 1.403 . S
C3859 C3856 1.403 . S
C3859 C3860 1.524 . S
C3859 C3863 1.400 . S
C3860 H3845 0.960 . S
C3860 H3846 0.960 . S
C3860 H3847 0.960 . S
C3860 C3859 1.524 . S
C3861 C3858 1.403 . S
C3861 C3862 1.392 . S
C3861 C3865 1.495 . S
C3862 C3861 1.392 . S
C3862 C3863 1.385 . S
C3862 C3864 1.478 . S
C3863 H3857 0.930 . S
C3863 C3859 1.400 . S
C3863 C3862 1.385 . S
C3864 C3862 1.478 . S
C3864 C3866 1.381 . S
C3864 C3870 1.383 . S
C3865 C3861 1.495 . S
C3865 H3871 0.959 . S
C3865 H3872 0.961 . S
C3865 H3873 0.960 . S
C3866 C3864 1.381 . S
C3866 C3867 1.394 . S
C3866 H3874 0.930 . S
C3867 C3866 1.394 . S
C3867 C3868 1.383 . S
C3867 H3875 0.929 . S
C3868 C3867 1.383 . S
C3868 C3869 1.377 . S
C3869 H3853 0.930 . S
C3869 C3868 1.377 . S
C3869 C3870 1.379 . S
C3870 H3854 0.931 . S
C3870 C3864 1.383 . S
C3870 C3869 1.379 . S
H3871 C3865 0.959 . S
H3872 C3865 0.961 . S
H3873 C3865 0.960 . S
H3874 C3866 0.930 . S
H3875 C3867 0.929 . S
H3876 C3884 0.929 . S
H3877 C3886 0.930 . S
H3878 C3888 0.930 . S
H3879 C3891 0.929 . S
H3880 C3894 0.930 . S
H3881 C3896 0.960 . S
H3882 C3896 0.960 . S
H3883 C3896 0.960 . S
C3884 H3876 0.929 . S
C3884 C3885 1.377 . S
C3884 C3886 1.384 . S
C3885 C3884 1.377 . S
C3885 C3891 1.390 . S
C3886 H3877 0.930 . S
C3886 C3884 1.384 . S
C3886 C3887 1.372 . S
C3887 C3886 1.372 . S
C3887 C3888 1.400 . S
C3887 C3892 1.490 . S
C3888 H3878 0.930 . S
C3888 C3887 1.400 . S
C3888 C3891 1.386 . S
H3889 C3905 0.930 . S
H3890 C3906 0.931 . S
C3891 H3879 0.929 . S
C3891 C3885 1.390 . S
C3891 C3888 1.386 . S
C3892 C3887 1.490 . S
C3892 C3894 1.395 . S
C3892 C3895 1.403 . S
H3893 C3899 0.930 . S
C3894 H3880 0.930 . S
C3894 C3892 1.395 . S
C3894 C3897 1.403 . S
C3895 C3892 1.403 . S
C3895 C3896 1.524 . S
C3895 C3899 1.400 . S
C3896 H3881 0.960 . S
C3896 H3882 0.960 . S
C3896 H3883 0.960 . S
C3896 C3895 1.524 . S
C3897 C3894 1.403 . S
C3897 C3898 1.392 . S
C3897 C3901 1.495 . S
C3898 C3897 1.392 . S
C3898 C3899 1.385 . S
C3898 C3900 1.478 . S
C3899 H3893 0.930 . S
C3899 C3895 1.400 . S
C3899 C3898 1.385 . S
C3900 C3898 1.478 . S
C3900 C3902 1.381 . S
C3900 C3906 1.383 . S
C3901 C3897 1.495 . S
C3901 H3907 0.959 . S
C3901 H3908 0.961 . S
C3901 H3909 0.960 . S
C3902 C3900 1.381 . S
C3902 C3903 1.394 . S
C3902 H3910 0.930 . S
C3903 C3902 1.394 . S
C3903 C3904 1.383 . S
C3903 H3911 0.929 . S
C3904 C3903 1.383 . S
C3904 C3905 1.377 . S
C3905 H3889 0.930 . S
C3905 C3904 1.377 . S
C3905 C3906 1.379 . S
C3906 H3890 0.931 . S
C3906 C3900 1.383 . S
C3906 C3905 1.379 . S
H3907 C3901 0.959 . S
H3908 C3901 0.961 . S
H3909 C3901 0.960 . S
H3910 C3902 0.930 . S
H3911 C3903 0.929 . S
H3912 C3920 0.929 . S
H3913 C3922 0.930 . S
H3914 C3924 0.930 . S
H3915 C3927 0.929 . S
H3916 C3930 0.930 . S
H3917 C3932 0.960 . S
H3918 C3932 0.960 . S
H3919 C3932 0.960 . S
C3920 H3912 0.929 . S
C3920 C3921 1.377 . S
C3920 C3922 1.384 . S
C3921 C3920 1.377 . S
C3921 C3927 1.390 . S
C3922 H3913 0.930 . S
C3922 C3920 1.384 . S
C3922 C3923 1.372 . S
C3923 C3922 1.372 . S
C3923 C3924 1.400 . S
C3923 C3928 1.490 . S
C3924 H3914 0.930 . S
C3924 C3923 1.400 . S
C3924 C3927 1.386 . S
H3925 C3941 0.930 . S
H3926 C3942 0.931 . S
C3927 H3915 0.929 . S
C3927 C3921 1.390 . S
C3927 C3924 1.386 . S
C3928 C3923 1.490 . S
C3928 C3930 1.395 . S
C3928 C3931 1.403 . S
H3929 C3935 0.930 . S
C3930 H3916 0.930 . S
C3930 C3928 1.395 . S
C3930 C3933 1.403 . S
C3931 C3928 1.403 . S
C3931 C3932 1.524 . S
C3931 C3935 1.400 . S
C3932 H3917 0.960 . S
C3932 H3918 0.960 . S
C3932 H3919 0.960 . S
C3932 C3931 1.524 . S
C3933 C3930 1.403 . S
C3933 C3934 1.392 . S
C3933 C3937 1.495 . S
C3934 C3933 1.392 . S
C3934 C3935 1.385 . S
C3934 C3936 1.478 . S
C3935 H3929 0.930 . S
C3935 C3931 1.400 . S
C3935 C3934 1.385 . S
C3936 C3934 1.478 . S
C3936 C3938 1.381 . S
C3936 C3942 1.383 . S
C3937 C3933 1.495 . S
C3937 H3943 0.959 . S
C3937 H3944 0.961 . S
C3937 H3945 0.960 . S
C3938 C3936 1.381 . S
C3938 C3939 1.394 . S
C3938 H3946 0.930 . S
C3939 C3938 1.394 . S
C3939 C3940 1.383 . S
C3939 H3947 0.929 . S
C3940 C3939 1.383 . S
C3940 C3941 1.377 . S
C3941 H3925 0.930 . S
C3941 C3940 1.377 . S
C3941 C3942 1.379 . S
C3942 H3926 0.931 . S
C3942 C3936 1.383 . S
C3942 C3941 1.379 . S
H3943 C3937 0.959 . S
H3944 C3937 0.961 . S
H3945 C3937 0.960 . S
H3946 C3938 0.930 . S
H3947 C3939 0.929 . S
H3948 C3956 0.929 . S
H3949 C3958 0.930 . S
H3950 C3960 0.930 . S
H3951 C3963 0.929 . S
H3952 C3966 0.930 . S
H3953 C3968 0.960 . S
H3954 C3968 0.960 . S
H3955 C3968 0.960 . S
C3956 H3948 0.929 . S
C3956 C3957 1.377 1_556 S
C3956 C3958 1.384 . S
C3957 C3956 1.377 1_554 S
C3957 C3963 1.390 . S
C3958 H3949 0.930 . S
C3958 C3956 1.384 . S
C3958 C3959 1.372 . S
C3959 C3958 1.372 . S
C3959 C3960 1.400 1_556 S
C3959 C3964 1.490 . S
C3960 H3950 0.930 . S
C3960 C3959 1.400 1_554 S
C3960 C3963 1.386 . S
H3961 C3977 0.930 . S
H3962 C3978 0.931 . S
C3963 H3951 0.929 . S
C3963 C3957 1.390 . S
C3963 C3960 1.386 . S
C3964 C3959 1.490 . S
C3964 C3966 1.395 . S
C3964 C3967 1.403 . S
H3965 C3971 0.930 . S
C3966 H3952 0.930 . S
C3966 C3964 1.395 . S
C3966 C3969 1.403 . S
C3967 C3964 1.403 . S
C3967 C3968 1.524 . S
C3967 C3971 1.400 . S
C3968 H3953 0.960 . S
C3968 H3954 0.960 . S
C3968 H3955 0.960 . S
C3968 C3967 1.524 . S
C3969 C3966 1.403 . S
C3969 C3970 1.392 . S
C3969 C3973 1.495 . S
C3970 C3969 1.392 . S
C3970 C3971 1.385 . S
C3970 C3972 1.478 . S
C3971 H3965 0.930 . S
C3971 C3967 1.400 . S
C3971 C3970 1.385 . S
C3972 C3970 1.478 . S
C3972 C3974 1.381 . S
C3972 C3978 1.383 . S
C3973 C3969 1.495 . S
C3973 H3979 0.959 . S
C3973 H3980 0.961 . S
C3973 H3981 0.960 . S
C3974 C3972 1.381 . S
C3974 C3975 1.394 . S
C3974 H3982 0.930 . S
C3975 C3974 1.394 . S
C3975 C3976 1.383 . S
C3975 H3983 0.929 . S
C3976 C3975 1.383 . S
C3976 C3977 1.377 . S
C3977 H3961 0.930 . S
C3977 C3976 1.377 . S
C3977 C3978 1.379 . S
C3978 H3962 0.931 . S
C3978 C3972 1.383 . S
C3978 C3977 1.379 . S
H3979 C3973 0.959 . S
H3980 C3973 0.961 . S
H3981 C3973 0.960 . S
H3982 C3974 0.930 . S
H3983 C3975 0.929 . S
H3984 C3992 0.929 . S
H3985 C3994 0.930 . S
H3986 C3996 0.930 . S
H3987 C3999 0.929 . S
H3988 C4002 0.930 . S
H3989 C4004 0.960 . S
H3990 C4004 0.960 . S
H3991 C4004 0.960 . S
C3992 H3984 0.929 . S
C3992 C3993 1.377 . S
C3992 C3994 1.384 . S
C3993 C3992 1.377 . S
C3993 C3999 1.390 . S
C3994 H3985 0.930 . S
C3994 C3992 1.384 . S
C3994 C3995 1.372 . S
C3995 C3994 1.372 . S
C3995 C3996 1.400 . S
C3995 C4000 1.490 . S
C3996 H3986 0.930 . S
C3996 C3995 1.400 . S
C3996 C3999 1.386 . S
H3997 C4013 0.930 . S
H3998 C4014 0.931 . S
C3999 H3987 0.929 . S
C3999 C3993 1.390 . S
C3999 C3996 1.386 . S
C4000 C3995 1.490 . S
C4000 C4002 1.395 . S
C4000 C4003 1.403 . S
H4001 C4007 0.930 . S
C4002 H3988 0.930 . S
C4002 C4000 1.395 . S
C4002 C4005 1.403 . S
C4003 C4000 1.403 . S
C4003 C4004 1.524 . S
C4003 C4007 1.400 . S
C4004 H3989 0.960 . S
C4004 H3990 0.960 . S
C4004 H3991 0.960 . S
C4004 C4003 1.524 . S
C4005 C4002 1.403 . S
C4005 C4006 1.392 . S
C4005 C4009 1.495 . S
C4006 C4005 1.392 . S
C4006 C4007 1.385 . S
C4006 C4008 1.478 . S
C4007 H4001 0.930 . S
C4007 C4003 1.400 . S
C4007 C4006 1.385 . S
C4008 C4006 1.478 . S
C4008 C4010 1.381 . S
C4008 C4014 1.383 . S
C4009 C4005 1.495 . S
C4009 H4015 0.959 . S
C4009 H4016 0.961 . S
C4009 H4017 0.960 . S
C4010 C4008 1.381 . S
C4010 C4011 1.394 . S
C4010 H4018 0.930 . S
C4011 C4010 1.394 . S
C4011 C4012 1.383 . S
C4011 H4019 0.929 . S
C4012 C4011 1.383 . S
C4012 C4013 1.377 . S
C4013 H3997 0.930 . S
C4013 C4012 1.377 . S
C4013 C4014 1.379 . S
C4014 H3998 0.931 . S
C4014 C4008 1.383 . S
C4014 C4013 1.379 . S
H4015 C4009 0.959 . S
H4016 C4009 0.961 . S
H4017 C4009 0.960 . S
H4018 C4010 0.930 . S
H4019 C4011 0.929 . S
H4020 C4028 0.929 . S
H4021 C4030 0.930 . S
H4022 C4032 0.930 . S
H4023 C4035 0.929 . S
H4024 C4038 0.930 . S
H4025 C4040 0.960 . S
H4026 C4040 0.960 . S
H4027 C4040 0.960 . S
C4028 H4020 0.929 . S
C4028 C4029 1.377 . S
C4028 C4030 1.384 . S
C4029 C4028 1.377 . S
C4029 C4035 1.390 . S
C4030 H4021 0.930 . S
C4030 C4028 1.384 . S
C4030 C4031 1.372 . S
C4031 C4030 1.372 . S
C4031 C4032 1.400 . S
C4031 C4036 1.490 . S
C4032 H4022 0.930 . S
C4032 C4031 1.400 . S
C4032 C4035 1.386 . S
H4033 C4049 0.930 . S
H4034 C4050 0.931 . S
C4035 H4023 0.929 . S
C4035 C4029 1.390 . S
C4035 C4032 1.386 . S
C4036 C4031 1.490 . S
C4036 C4038 1.395 . S
C4036 C4039 1.403 . S
H4037 C4043 0.930 . S
C4038 H4024 0.930 . S
C4038 C4036 1.395 . S
C4038 C4041 1.403 . S
C4039 C4036 1.403 . S
C4039 C4040 1.524 . S
C4039 C4043 1.400 . S
C4040 H4025 0.960 . S
C4040 H4026 0.960 . S
C4040 H4027 0.960 . S
C4040 C4039 1.524 . S
C4041 C4038 1.403 . S
C4041 C4042 1.392 . S
C4041 C4045 1.495 . S
C4042 C4041 1.392 . S
C4042 C4043 1.385 . S
C4042 C4044 1.478 . S
C4043 H4037 0.930 . S
C4043 C4039 1.400 . S
C4043 C4042 1.385 . S
C4044 C4042 1.478 . S
C4044 C4046 1.381 . S
C4044 C4050 1.383 . S
C4045 C4041 1.495 . S
C4045 H4051 0.959 . S
C4045 H4052 0.961 . S
C4045 H4053 0.960 . S
C4046 C4044 1.381 . S
C4046 C4047 1.394 . S
C4046 H4054 0.930 . S
C4047 C4046 1.394 . S
C4047 C4048 1.383 . S
C4047 H4055 0.929 . S
C4048 C4047 1.383 . S
C4048 C4049 1.377 . S
C4049 H4033 0.930 . S
C4049 C4048 1.377 . S
C4049 C4050 1.379 . S
C4050 H4034 0.931 . S
C4050 C4044 1.383 . S
C4050 C4049 1.379 . S
H4051 C4045 0.959 . S
H4052 C4045 0.961 . S
H4053 C4045 0.960 . S
H4054 C4046 0.930 . S
H4055 C4047 0.929 . S
H4056 C4064 0.929 . S
H4057 C4066 0.930 . S
H4058 C4068 0.930 . S
H4059 C4071 0.929 . S
H4060 C4074 0.930 . S
H4061 C4076 0.960 . S
H4062 C4076 0.960 . S
H4063 C4076 0.960 . S
C4064 H4056 0.929 . S
C4064 C4065 1.377 . S
C4064 C4066 1.384 . S
C4065 C4064 1.377 . S
C4065 C4071 1.390 . S
C4066 H4057 0.930 . S
C4066 C4064 1.384 . S
C4066 C4067 1.372 . S
C4067 C4066 1.372 . S
C4067 C4068 1.400 . S
C4067 C4072 1.490 . S
C4068 H4058 0.930 . S
C4068 C4067 1.400 . S
C4068 C4071 1.386 . S
H4069 C4085 0.930 . S
H4070 C4086 0.931 . S
C4071 H4059 0.929 . S
C4071 C4065 1.390 . S
C4071 C4068 1.386 . S
C4072 C4067 1.490 . S
C4072 C4074 1.395 . S
C4072 C4075 1.403 . S
H4073 C4079 0.930 . S
C4074 H4060 0.930 . S
C4074 C4072 1.395 . S
C4074 C4077 1.403 . S
C4075 C4072 1.403 . S
C4075 C4076 1.524 . S
C4075 C4079 1.400 . S
C4076 H4061 0.960 . S
C4076 H4062 0.960 . S
C4076 H4063 0.960 . S
C4076 C4075 1.524 . S
C4077 C4074 1.403 . S
C4077 C4078 1.392 . S
C4077 C4081 1.495 . S
C4078 C4077 1.392 . S
C4078 C4079 1.385 . S
C4078 C4080 1.478 . S
C4079 H4073 0.930 . S
C4079 C4075 1.400 . S
C4079 C4078 1.385 . S
C4080 C4078 1.478 . S
C4080 C4082 1.381 . S
C4080 C4086 1.383 . S
C4081 C4077 1.495 . S
C4081 H4087 0.959 . S
C4081 H4088 0.961 . S
C4081 H4089 0.960 . S
C4082 C4080 1.381 . S
C4082 C4083 1.394 . S
C4082 H4090 0.930 . S
C4083 C4082 1.394 . S
C4083 C4084 1.383 . S
C4083 H4091 0.929 . S
C4084 C4083 1.383 . S
C4084 C4085 1.377 . S
C4085 H4069 0.930 . S
C4085 C4084 1.377 . S
C4085 C4086 1.379 . S
C4086 H4070 0.931 . S
C4086 C4080 1.383 . S
C4086 C4085 1.379 . S
H4087 C4081 0.959 . S
H4088 C4081 0.961 . S
H4089 C4081 0.960 . S
H4090 C4082 0.930 . S
H4091 C4083 0.929 . S
H4092 C4100 0.929 . S
H4093 C4102 0.930 . S
H4094 C4104 0.930 . S
H4095 C4107 0.929 . S
H4096 C4110 0.930 . S
H4097 C4112 0.960 . S
H4098 C4112 0.960 . S
H4099 C4112 0.960 . S
C4100 H4092 0.929 . S
C4100 C4101 1.377 . S
C4100 C4102 1.384 . S
C4101 C4100 1.377 . S
C4101 C4107 1.390 . S
C4102 H4093 0.930 . S
C4102 C4100 1.384 . S
C4102 C4103 1.372 . S
C4103 C4102 1.372 . S
C4103 C4104 1.400 . S
C4103 C4108 1.490 . S
C4104 H4094 0.930 . S
C4104 C4103 1.400 . S
C4104 C4107 1.386 . S
H4105 C4121 0.930 . S
H4106 C4122 0.931 . S
C4107 H4095 0.929 . S
C4107 C4101 1.390 . S
C4107 C4104 1.386 . S
C4108 C4103 1.490 . S
C4108 C4110 1.395 . S
C4108 C4111 1.403 . S
H4109 C4115 0.930 . S
C4110 H4096 0.930 . S
C4110 C4108 1.395 . S
C4110 C4113 1.403 . S
C4111 C4108 1.403 . S
C4111 C4112 1.524 . S
C4111 C4115 1.400 . S
C4112 H4097 0.960 . S
C4112 H4098 0.960 . S
C4112 H4099 0.960 . S
C4112 C4111 1.524 . S
C4113 C4110 1.403 . S
C4113 C4114 1.392 . S
C4113 C4117 1.495 . S
C4114 C4113 1.392 . S
C4114 C4115 1.385 . S
C4114 C4116 1.478 . S
C4115 H4109 0.930 . S
C4115 C4111 1.400 . S
C4115 C4114 1.385 . S
C4116 C4114 1.478 . S
C4116 C4118 1.381 . S
C4116 C4122 1.383 . S
C4117 C4113 1.495 . S
C4117 H4123 0.959 . S
C4117 H4124 0.961 . S
C4117 H4125 0.960 . S
C4118 C4116 1.381 . S
C4118 C4119 1.394 . S
C4118 H4126 0.930 . S
C4119 C4118 1.394 . S
C4119 C4120 1.383 . S
C4119 H4127 0.929 . S
C4120 C4119 1.383 . S
C4120 C4121 1.377 . S
C4121 H4105 0.930 . S
C4121 C4120 1.377 . S
C4121 C4122 1.379 . S
C4122 H4106 0.931 . S
C4122 C4116 1.383 . S
C4122 C4121 1.379 . S
H4123 C4117 0.959 . S
H4124 C4117 0.961 . S
H4125 C4117 0.960 . S
H4126 C4118 0.930 . S
H4127 C4119 0.929 . S
H4128 C4136 0.929 . S
H4129 C4138 0.930 . S
H4130 C4140 0.930 . S
H4131 C4143 0.929 . S
H4132 C4146 0.930 . S
H4133 C4148 0.960 . S
H4134 C4148 0.960 . S
H4135 C4148 0.960 . S
C4136 H4128 0.929 . S
C4136 C4137 1.377 . S
C4136 C4138 1.384 . S
C4137 C4136 1.377 . S
C4137 C4143 1.390 . S
C4138 H4129 0.930 . S
C4138 C4136 1.384 . S
C4138 C4139 1.372 . S
C4139 C4138 1.372 . S
C4139 C4140 1.400 . S
C4139 C4144 1.490 . S
C4140 H4130 0.930 . S
C4140 C4139 1.400 . S
C4140 C4143 1.386 . S
H4141 C4157 0.930 . S
H4142 C4158 0.931 . S
C4143 H4131 0.929 . S
C4143 C4137 1.390 . S
C4143 C4140 1.386 . S
C4144 C4139 1.490 . S
C4144 C4146 1.395 . S
C4144 C4147 1.403 . S
H4145 C4151 0.930 . S
C4146 H4132 0.930 . S
C4146 C4144 1.395 . S
C4146 C4149 1.403 . S
C4147 C4144 1.403 . S
C4147 C4148 1.524 . S
C4147 C4151 1.400 . S
C4148 H4133 0.960 . S
C4148 H4134 0.960 . S
C4148 H4135 0.960 . S
C4148 C4147 1.524 . S
C4149 C4146 1.403 . S
C4149 C4150 1.392 . S
C4149 C4153 1.495 . S
C4150 C4149 1.392 . S
C4150 C4151 1.385 . S
C4150 C4152 1.478 . S
C4151 H4145 0.930 . S
C4151 C4147 1.400 . S
C4151 C4150 1.385 . S
C4152 C4150 1.478 . S
C4152 C4154 1.381 . S
C4152 C4158 1.383 . S
C4153 C4149 1.495 . S
C4153 H4159 0.959 . S
C4153 H4160 0.961 . S
C4153 H4161 0.960 . S
C4154 C4152 1.381 . S
C4154 C4155 1.394 . S
C4154 H4162 0.930 . S
C4155 C4154 1.394 . S
C4155 C4156 1.383 . S
C4155 H4163 0.929 . S
C4156 C4155 1.383 . S
C4156 C4157 1.377 . S
C4157 H4141 0.930 . S
C4157 C4156 1.377 . S
C4157 C4158 1.379 . S
C4158 H4142 0.931 . S
C4158 C4152 1.383 . S
C4158 C4157 1.379 . S
H4159 C4153 0.959 . S
H4160 C4153 0.961 . S
H4161 C4153 0.960 . S
H4162 C4154 0.930 . S
H4163 C4155 0.929 . S
H4164 C4172 0.929 . S
H4165 C4174 0.930 . S
H4166 C4176 0.930 . S
H4167 C4179 0.929 . S
H4168 C4182 0.930 . S
H4169 C4184 0.960 . S
H4170 C4184 0.960 . S
H4171 C4184 0.960 . S
C4172 H4164 0.929 . S
C4172 C4173 1.377 . S
C4172 C4174 1.384 . S
C4173 C4172 1.377 . S
C4173 C4179 1.390 . S
C4174 H4165 0.930 . S
C4174 C4172 1.384 . S
C4174 C4175 1.372 . S
C4175 C4174 1.372 . S
C4175 C4176 1.400 . S
C4175 C4180 1.490 . S
C4176 H4166 0.930 . S
C4176 C4175 1.400 . S
C4176 C4179 1.386 . S
H4177 C4193 0.930 . S
H4178 C4194 0.931 . S
C4179 H4167 0.929 . S
C4179 C4173 1.390 . S
C4179 C4176 1.386 . S
C4180 C4175 1.490 . S
C4180 C4182 1.395 . S
C4180 C4183 1.403 . S
H4181 C4187 0.930 . S
C4182 H4168 0.930 . S
C4182 C4180 1.395 . S
C4182 C4185 1.403 . S
C4183 C4180 1.403 . S
C4183 C4184 1.524 . S
C4183 C4187 1.400 . S
C4184 H4169 0.960 . S
C4184 H4170 0.960 . S
C4184 H4171 0.960 . S
C4184 C4183 1.524 . S
C4185 C4182 1.403 . S
C4185 C4186 1.392 . S
C4185 C4189 1.495 . S
C4186 C4185 1.392 . S
C4186 C4187 1.385 . S
C4186 C4188 1.478 . S
C4187 H4181 0.930 . S
C4187 C4183 1.400 . S
C4187 C4186 1.385 . S
C4188 C4186 1.478 . S
C4188 C4190 1.381 . S
C4188 C4194 1.383 . S
C4189 C4185 1.495 . S
C4189 H4195 0.959 . S
C4189 H4196 0.961 . S
C4189 H4197 0.960 . S
C4190 C4188 1.381 . S
C4190 C4191 1.394 . S
C4190 H4198 0.930 . S
C4191 C4190 1.394 . S
C4191 C4192 1.383 . S
C4191 H4199 0.929 . S
C4192 C4191 1.383 . S
C4192 C4193 1.377 . S
C4193 H4177 0.930 . S
C4193 C4192 1.377 . S
C4193 C4194 1.379 . S
C4194 H4178 0.931 . S
C4194 C4188 1.383 . S
C4194 C4193 1.379 . S
H4195 C4189 0.959 . S
H4196 C4189 0.961 . S
H4197 C4189 0.960 . S
H4198 C4190 0.930 . S
H4199 C4191 0.929 . S
H4200 C4208 0.929 . S
H4201 C4210 0.930 . S
H4202 C4212 0.930 . S
H4203 C4215 0.929 . S
H4204 C4218 0.930 . S
H4205 C4220 0.960 . S
H4206 C4220 0.960 . S
H4207 C4220 0.960 . S
C4208 H4200 0.929 . S
C4208 C4209 1.377 . S
C4208 C4210 1.384 . S
C4209 C4208 1.377 . S
C4209 C4215 1.390 . S
C4210 H4201 0.930 . S
C4210 C4208 1.384 . S
C4210 C4211 1.372 . S
C4211 C4210 1.372 . S
C4211 C4212 1.400 . S
C4211 C4216 1.490 . S
C4212 H4202 0.930 . S
C4212 C4211 1.400 . S
C4212 C4215 1.386 . S
H4213 C4229 0.930 . S
H4214 C4230 0.931 . S
C4215 H4203 0.929 . S
C4215 C4209 1.390 . S
C4215 C4212 1.386 . S
C4216 C4211 1.490 . S
C4216 C4218 1.395 . S
C4216 C4219 1.403 . S
H4217 C4223 0.930 . S
C4218 H4204 0.930 . S
C4218 C4216 1.395 . S
C4218 C4221 1.403 . S
C4219 C4216 1.403 . S
C4219 C4220 1.524 . S
C4219 C4223 1.400 . S
C4220 H4205 0.960 . S
C4220 H4206 0.960 . S
C4220 H4207 0.960 . S
C4220 C4219 1.524 . S
C4221 C4218 1.403 . S
C4221 C4222 1.392 . S
C4221 C4225 1.495 . S
C4222 C4221 1.392 . S
C4222 C4223 1.385 . S
C4222 C4224 1.478 . S
C4223 H4217 0.930 . S
C4223 C4219 1.400 . S
C4223 C4222 1.385 . S
C4224 C4222 1.478 . S
C4224 C4226 1.381 . S
C4224 C4230 1.383 . S
C4225 C4221 1.495 . S
C4225 H4231 0.959 . S
C4225 H4232 0.961 . S
C4225 H4233 0.960 . S
C4226 C4224 1.381 . S
C4226 C4227 1.394 . S
C4226 H4234 0.930 . S
C4227 C4226 1.394 . S
C4227 C4228 1.383 . S
C4227 H4235 0.929 . S
C4228 C4227 1.383 . S
C4228 C4229 1.377 . S
C4229 H4213 0.930 . S
C4229 C4228 1.377 . S
C4229 C4230 1.379 . S
C4230 H4214 0.931 . S
C4230 C4224 1.383 . S
C4230 C4229 1.379 . S
H4231 C4225 0.959 . S
H4232 C4225 0.961 . S
H4233 C4225 0.960 . S
H4234 C4226 0.930 . S
H4235 C4227 0.929 . S
H4236 C4244 0.929 . S
H4237 C4246 0.930 . S
H4238 C4248 0.930 . S
H4239 C4251 0.929 . S
H4240 C4254 0.930 . S
H4241 C4256 0.960 . S
H4242 C4256 0.960 . S
H4243 C4256 0.960 . S
C4244 H4236 0.929 . S
C4244 C4245 1.377 . S
C4244 C4246 1.384 . S
C4245 C4244 1.377 . S
C4245 C4251 1.390 . S
C4246 H4237 0.930 . S
C4246 C4244 1.384 . S
C4246 C4247 1.372 . S
C4247 C4246 1.372 . S
C4247 C4248 1.400 . S
C4247 C4252 1.490 . S
C4248 H4238 0.930 . S
C4248 C4247 1.400 . S
C4248 C4251 1.386 . S
H4249 C4265 0.930 . S
H4250 C4266 0.931 . S
C4251 H4239 0.929 . S
C4251 C4245 1.390 . S
C4251 C4248 1.386 . S
C4252 C4247 1.490 . S
C4252 C4254 1.395 . S
C4252 C4255 1.403 . S
H4253 C4259 0.930 . S
C4254 H4240 0.930 . S
C4254 C4252 1.395 . S
C4254 C4257 1.403 . S
C4255 C4252 1.403 . S
C4255 C4256 1.524 . S
C4255 C4259 1.400 . S
C4256 H4241 0.960 . S
C4256 H4242 0.960 . S
C4256 H4243 0.960 . S
C4256 C4255 1.524 . S
C4257 C4254 1.403 . S
C4257 C4258 1.392 . S
C4257 C4261 1.495 . S
C4258 C4257 1.392 . S
C4258 C4259 1.385 . S
C4258 C4260 1.478 . S
C4259 H4253 0.930 . S
C4259 C4255 1.400 . S
C4259 C4258 1.385 . S
C4260 C4258 1.478 . S
C4260 C4262 1.381 . S
C4260 C4266 1.383 . S
C4261 C4257 1.495 . S
C4261 H4267 0.959 . S
C4261 H4268 0.961 . S
C4261 H4269 0.960 . S
C4262 C4260 1.381 . S
C4262 C4263 1.394 . S
C4262 H4270 0.930 . S
C4263 C4262 1.394 . S
C4263 C4264 1.383 . S
C4263 H4271 0.929 . S
C4264 C4263 1.383 . S
C4264 C4265 1.377 . S
C4265 H4249 0.930 . S
C4265 C4264 1.377 . S
C4265 C4266 1.379 . S
C4266 H4250 0.931 . S
C4266 C4260 1.383 . S
C4266 C4265 1.379 . S
H4267 C4261 0.959 . S
H4268 C4261 0.961 . S
H4269 C4261 0.960 . S
H4270 C4262 0.930 . S
H4271 C4263 0.929 . S
H4272 C4280 0.929 . S
H4273 C4282 0.930 . S
H4274 C4284 0.930 . S
H4275 C4287 0.929 . S
H4276 C4290 0.930 . S
H4277 C4292 0.960 . S
H4278 C4292 0.960 . S
H4279 C4292 0.960 . S
C4280 H4272 0.929 . S
C4280 C4281 1.377 . S
C4280 C4282 1.384 . S
C4281 C4280 1.377 . S
C4281 C4287 1.390 . S
C4282 H4273 0.930 . S
C4282 C4280 1.384 . S
C4282 C4283 1.372 . S
C4283 C4282 1.372 . S
C4283 C4284 1.400 . S
C4283 C4288 1.490 . S
C4284 H4274 0.930 . S
C4284 C4283 1.400 . S
C4284 C4287 1.386 . S
H4285 C4301 0.930 . S
H4286 C4302 0.931 . S
C4287 H4275 0.929 . S
C4287 C4281 1.390 . S
C4287 C4284 1.386 . S
C4288 C4283 1.490 . S
C4288 C4290 1.395 . S
C4288 C4291 1.403 . S
H4289 C4295 0.930 . S
C4290 H4276 0.930 . S
C4290 C4288 1.395 . S
C4290 C4293 1.403 . S
C4291 C4288 1.403 . S
C4291 C4292 1.524 . S
C4291 C4295 1.400 . S
C4292 H4277 0.960 . S
C4292 H4278 0.960 . S
C4292 H4279 0.960 . S
C4292 C4291 1.524 . S
C4293 C4290 1.403 . S
C4293 C4294 1.392 . S
C4293 C4297 1.495 . S
C4294 C4293 1.392 . S
C4294 C4295 1.385 . S
C4294 C4296 1.478 . S
C4295 H4289 0.930 . S
C4295 C4291 1.400 . S
C4295 C4294 1.385 . S
C4296 C4294 1.478 . S
C4296 C4298 1.381 . S
C4296 C4302 1.383 . S
C4297 C4293 1.495 . S
C4297 H4303 0.959 . S
C4297 H4304 0.961 . S
C4297 H4305 0.960 . S
C4298 C4296 1.381 . S
C4298 C4299 1.394 . S
C4298 H4306 0.930 . S
C4299 C4298 1.394 . S
C4299 C4300 1.383 . S
C4299 H4307 0.929 . S
C4300 C4299 1.383 . S
C4300 C4301 1.377 . S
C4301 H4285 0.930 . S
C4301 C4300 1.377 . S
C4301 C4302 1.379 . S
C4302 H4286 0.931 . S
C4302 C4296 1.383 . S
C4302 C4301 1.379 . S
H4303 C4297 0.959 . S
H4304 C4297 0.961 . S
H4305 C4297 0.960 . S
H4306 C4298 0.930 . S
H4307 C4299 0.929 . S
H4308 C4316 0.929 . S
H4309 C4318 0.930 . S
H4310 C4320 0.930 . S
H4311 C4323 0.929 . S
H4312 C4326 0.930 . S
H4313 C4328 0.960 . S
H4314 C4328 0.960 . S
H4315 C4328 0.960 . S
C4316 H4308 0.929 . S
C4316 C4317 1.377 . S
C4316 C4318 1.384 . S
C4317 C4316 1.377 . S
C4317 C4323 1.390 . S
C4318 H4309 0.930 . S
C4318 C4316 1.384 . S
C4318 C4319 1.372 . S
C4319 C4318 1.372 . S
C4319 C4320 1.400 . S
C4319 C4324 1.490 . S
C4320 H4310 0.930 . S
C4320 C4319 1.400 . S
C4320 C4323 1.386 . S
H4321 C4337 0.930 . S
H4322 C4338 0.931 . S
C4323 H4311 0.929 . S
C4323 C4317 1.390 . S
C4323 C4320 1.386 . S
C4324 C4319 1.490 . S
C4324 C4326 1.395 . S
C4324 C4327 1.403 . S
H4325 C4331 0.930 . S
C4326 H4312 0.930 . S
C4326 C4324 1.395 . S
C4326 C4329 1.403 . S
C4327 C4324 1.403 . S
C4327 C4328 1.524 . S
C4327 C4331 1.400 . S
C4328 H4313 0.960 . S
C4328 H4314 0.960 . S
C4328 H4315 0.960 . S
C4328 C4327 1.524 . S
C4329 C4326 1.403 . S
C4329 C4330 1.392 . S
C4329 C4333 1.495 . S
C4330 C4329 1.392 . S
C4330 C4331 1.385 . S
C4330 C4332 1.478 . S
C4331 H4325 0.930 . S
C4331 C4327 1.400 . S
C4331 C4330 1.385 . S
C4332 C4330 1.478 . S
C4332 C4334 1.381 . S
C4332 C4338 1.383 . S
C4333 C4329 1.495 . S
C4333 H4339 0.959 . S
C4333 H4340 0.961 . S
C4333 H4341 0.960 . S
C4334 C4332 1.381 . S
C4334 C4335 1.394 . S
C4334 H4342 0.930 . S
C4335 C4334 1.394 . S
C4335 C4336 1.383 . S
C4335 H4343 0.929 . S
C4336 C4335 1.383 . S
C4336 C4337 1.377 . S
C4337 H4321 0.930 . S
C4337 C4336 1.377 . S
C4337 C4338 1.379 . S
C4338 H4322 0.931 . S
C4338 C4332 1.383 . S
C4338 C4337 1.379 . S
H4339 C4333 0.959 . S
H4340 C4333 0.961 . S
H4341 C4333 0.960 . S
H4342 C4334 0.930 . S
H4343 C4335 0.929 . S
H4344 C4352 0.929 . S
H4345 C4354 0.930 . S
H4346 C4356 0.930 . S
H4347 C4359 0.929 . S
H4348 C4362 0.930 . S
H4349 C4364 0.960 . S
H4350 C4364 0.960 . S
H4351 C4364 0.960 . S
C4352 H4344 0.929 . S
C4352 C4353 1.377 . S
C4352 C4354 1.384 . S
C4353 C4352 1.377 . S
C4353 C4359 1.390 . S
C4354 H4345 0.930 . S
C4354 C4352 1.384 . S
C4354 C4355 1.372 . S
C4355 C4354 1.372 . S
C4355 C4356 1.400 . S
C4355 C4360 1.490 . S
C4356 H4346 0.930 . S
C4356 C4355 1.400 . S
C4356 C4359 1.386 . S
H4357 C4373 0.930 . S
H4358 C4374 0.931 . S
C4359 H4347 0.929 . S
C4359 C4353 1.390 . S
C4359 C4356 1.386 . S
C4360 C4355 1.490 . S
C4360 C4362 1.395 . S
C4360 C4363 1.403 . S
H4361 C4367 0.930 . S
C4362 H4348 0.930 . S
C4362 C4360 1.395 . S
C4362 C4365 1.403 . S
C4363 C4360 1.403 . S
C4363 C4364 1.524 . S
C4363 C4367 1.400 . S
C4364 H4349 0.960 . S
C4364 H4350 0.960 . S
C4364 H4351 0.960 . S
C4364 C4363 1.524 . S
C4365 C4362 1.403 . S
C4365 C4366 1.392 . S
C4365 C4369 1.495 . S
C4366 C4365 1.392 . S
C4366 C4367 1.385 . S
C4366 C4368 1.478 . S
C4367 H4361 0.930 . S
C4367 C4363 1.400 . S
C4367 C4366 1.385 . S
C4368 C4366 1.478 . S
C4368 C4370 1.381 . S
C4368 C4374 1.383 . S
C4369 C4365 1.495 . S
C4369 H4375 0.959 . S
C4369 H4376 0.961 . S
C4369 H4377 0.960 . S
C4370 C4368 1.381 . S
C4370 C4371 1.394 . S
C4370 H4378 0.930 . S
C4371 C4370 1.394 . S
C4371 C4372 1.383 . S
C4371 H4379 0.929 . S
C4372 C4371 1.383 . S
C4372 C4373 1.377 . S
C4373 H4357 0.930 . S
C4373 C4372 1.377 . S
C4373 C4374 1.379 . S
C4374 H4358 0.931 . S
C4374 C4368 1.383 . S
C4374 C4373 1.379 . S
H4375 C4369 0.959 . S
H4376 C4369 0.961 . S
H4377 C4369 0.960 . S
H4378 C4370 0.930 . S
H4379 C4371 0.929 . S
H4380 C4388 0.929 . S
H4381 C4390 0.930 . S
H4382 C4392 0.930 . S
H4383 C4395 0.929 . S
H4384 C4398 0.930 . S
H4385 C4400 0.960 . S
H4386 C4400 0.960 . S
H4387 C4400 0.960 . S
C4388 H4380 0.929 . S
C4388 C4389 1.377 . S
C4388 C4390 1.384 . S
C4389 C4388 1.377 . S
C4389 C4395 1.390 . S
C4390 H4381 0.930 . S
C4390 C4388 1.384 . S
C4390 C4391 1.372 . S
C4391 C4390 1.372 . S
C4391 C4392 1.400 . S
C4391 C4396 1.490 . S
C4392 H4382 0.930 . S
C4392 C4391 1.400 . S
C4392 C4395 1.386 . S
H4393 C4409 0.930 . S
H4394 C4410 0.931 . S
C4395 H4383 0.929 . S
C4395 C4389 1.390 . S
C4395 C4392 1.386 . S
C4396 C4391 1.490 . S
C4396 C4398 1.395 . S
C4396 C4399 1.403 . S
H4397 C4403 0.930 . S
C4398 H4384 0.930 . S
C4398 C4396 1.395 . S
C4398 C4401 1.403 . S
C4399 C4396 1.403 . S
C4399 C4400 1.524 . S
C4399 C4403 1.400 . S
C4400 H4385 0.960 . S
C4400 H4386 0.960 . S
C4400 H4387 0.960 . S
C4400 C4399 1.524 . S
C4401 C4398 1.403 . S
C4401 C4402 1.392 . S
C4401 C4405 1.495 . S
C4402 C4401 1.392 . S
C4402 C4403 1.385 . S
C4402 C4404 1.478 . S
C4403 H4397 0.930 . S
C4403 C4399 1.400 . S
C4403 C4402 1.385 . S
C4404 C4402 1.478 . S
C4404 C4406 1.381 . S
C4404 C4410 1.383 . S
C4405 C4401 1.495 . S
C4405 H4411 0.959 . S
C4405 H4412 0.961 . S
C4405 H4413 0.960 . S
C4406 C4404 1.381 . S
C4406 C4407 1.394 . S
C4406 H4414 0.930 . S
C4407 C4406 1.394 . S
C4407 C4408 1.383 . S
C4407 H4415 0.929 . S
C4408 C4407 1.383 . S
C4408 C4409 1.377 . S
C4409 H4393 0.930 . S
C4409 C4408 1.377 . S
C4409 C4410 1.379 . S
C4410 H4394 0.931 . S
C4410 C4404 1.383 . S
C4410 C4409 1.379 . S
H4411 C4405 0.959 . S
H4412 C4405 0.961 . S
H4413 C4405 0.960 . S
H4414 C4406 0.930 . S
H4415 C4407 0.929 . S
H4416 C4424 0.929 . S
H4417 C4426 0.930 . S
H4418 C4428 0.930 . S
H4419 C4431 0.929 . S
H4420 C4434 0.930 . S
H4421 C4436 0.960 . S
H4422 C4436 0.960 . S
H4423 C4436 0.960 . S
C4424 H4416 0.929 . S
C4424 C4425 1.377 . S
C4424 C4426 1.384 . S
C4425 C4424 1.377 . S
C4425 C4431 1.390 . S
C4426 H4417 0.930 . S
C4426 C4424 1.384 . S
C4426 C4427 1.372 . S
C4427 C4426 1.372 . S
C4427 C4428 1.400 . S
C4427 C4432 1.490 . S
C4428 H4418 0.930 . S
C4428 C4427 1.400 . S
C4428 C4431 1.386 . S
H4429 C4445 0.930 . S
H4430 C4446 0.931 . S
C4431 H4419 0.929 . S
C4431 C4425 1.390 . S
C4431 C4428 1.386 . S
C4432 C4427 1.490 . S
C4432 C4434 1.395 . S
C4432 C4435 1.403 . S
H4433 C4439 0.930 . S
C4434 H4420 0.930 . S
C4434 C4432 1.395 . S
C4434 C4437 1.403 . S
C4435 C4432 1.403 . S
C4435 C4436 1.524 . S
C4435 C4439 1.400 . S
C4436 H4421 0.960 . S
C4436 H4422 0.960 . S
C4436 H4423 0.960 . S
C4436 C4435 1.524 . S
C4437 C4434 1.403 . S
C4437 C4438 1.392 . S
C4437 C4441 1.495 . S
C4438 C4437 1.392 . S
C4438 C4439 1.385 . S
C4438 C4440 1.478 . S
C4439 H4433 0.930 . S
C4439 C4435 1.400 . S
C4439 C4438 1.385 . S
C4440 C4438 1.478 . S
C4440 C4442 1.381 . S
C4440 C4446 1.383 . S
C4441 C4437 1.495 . S
C4441 H4447 0.959 . S
C4441 H4448 0.961 . S
C4441 H4449 0.960 . S
C4442 C4440 1.381 . S
C4442 C4443 1.394 . S
C4442 H4450 0.930 . S
C4443 C4442 1.394 . S
C4443 C4444 1.383 . S
C4443 H4451 0.929 . S
C4444 C4443 1.383 . S
C4444 C4445 1.377 . S
C4445 H4429 0.930 . S
C4445 C4444 1.377 . S
C4445 C4446 1.379 . S
C4446 H4430 0.931 . S
C4446 C4440 1.383 . S
C4446 C4445 1.379 . S
H4447 C4441 0.959 . S
H4448 C4441 0.961 . S
H4449 C4441 0.960 . S
H4450 C4442 0.930 . S
H4451 C4443 0.929 . S
H4452 C4460 0.929 . S
H4453 C4462 0.930 . S
H4454 C4464 0.930 . S
H4455 C4467 0.929 . S
H4456 C4470 0.930 . S
H4457 C4472 0.960 . S
H4458 C4472 0.960 . S
H4459 C4472 0.960 . S
C4460 H4452 0.929 . S
C4460 C4461 1.377 . S
C4460 C4462 1.384 . S
C4461 C4460 1.377 . S
C4461 C4467 1.390 . S
C4462 H4453 0.930 . S
C4462 C4460 1.384 . S
C4462 C4463 1.372 . S
C4463 C4462 1.372 . S
C4463 C4464 1.400 . S
C4463 C4468 1.490 . S
C4464 H4454 0.930 . S
C4464 C4463 1.400 . S
C4464 C4467 1.386 . S
H4465 C4481 0.930 . S
H4466 C4482 0.931 . S
C4467 H4455 0.929 . S
C4467 C4461 1.390 . S
C4467 C4464 1.386 . S
C4468 C4463 1.490 . S
C4468 C4470 1.395 . S
C4468 C4471 1.403 . S
H4469 C4475 0.930 . S
C4470 H4456 0.930 . S
C4470 C4468 1.395 . S
C4470 C4473 1.403 . S
C4471 C4468 1.403 . S
C4471 C4472 1.524 . S
C4471 C4475 1.400 . S
C4472 H4457 0.960 . S
C4472 H4458 0.960 . S
C4472 H4459 0.960 . S
C4472 C4471 1.524 . S
C4473 C4470 1.403 . S
C4473 C4474 1.392 . S
C4473 C4477 1.495 . S
C4474 C4473 1.392 . S
C4474 C4475 1.385 . S
C4474 C4476 1.478 . S
C4475 H4469 0.930 . S
C4475 C4471 1.400 . S
C4475 C4474 1.385 . S
C4476 C4474 1.478 . S
C4476 C4478 1.381 . S
C4476 C4482 1.383 . S
C4477 C4473 1.495 . S
C4477 H4483 0.959 . S
C4477 H4484 0.961 . S
C4477 H4485 0.960 . S
C4478 C4476 1.381 . S
C4478 C4479 1.394 . S
C4478 H4486 0.930 . S
C4479 C4478 1.394 . S
C4479 C4480 1.383 . S
C4479 H4487 0.929 . S
C4480 C4479 1.383 . S
C4480 C4481 1.377 . S
C4481 H4465 0.930 . S
C4481 C4480 1.377 . S
C4481 C4482 1.379 . S
C4482 H4466 0.931 . S
C4482 C4476 1.383 . S
C4482 C4481 1.379 . S
H4483 C4477 0.959 . S
H4484 C4477 0.961 . S
H4485 C4477 0.960 . S
H4486 C4478 0.930 . S
H4487 C4479 0.929 . S
H4488 C4496 0.929 . S
H4489 C4498 0.930 . S
H4490 C4500 0.930 . S
H4491 C4503 0.929 . S
H4492 C4506 0.930 . S
H4493 C4508 0.960 . S
H4494 C4508 0.960 . S
H4495 C4508 0.960 . S
C4496 H4488 0.929 . S
C4496 C4497 1.377 . S
C4496 C4498 1.384 . S
C4497 C4496 1.377 . S
C4497 C4503 1.390 . S
C4498 H4489 0.930 . S
C4498 C4496 1.384 . S
C4498 C4499 1.372 . S
C4499 C4498 1.372 . S
C4499 C4500 1.400 . S
C4499 C4504 1.490 . S
C4500 H4490 0.930 . S
C4500 C4499 1.400 . S
C4500 C4503 1.386 . S
H4501 C4517 0.930 . S
H4502 C4518 0.931 . S
C4503 H4491 0.929 . S
C4503 C4497 1.390 . S
C4503 C4500 1.386 . S
C4504 C4499 1.490 . S
C4504 C4506 1.395 . S
C4504 C4507 1.403 . S
H4505 C4511 0.930 . S
C4506 H4492 0.930 . S
C4506 C4504 1.395 . S
C4506 C4509 1.403 . S
C4507 C4504 1.403 . S
C4507 C4508 1.524 . S
C4507 C4511 1.400 . S
C4508 H4493 0.960 . S
C4508 H4494 0.960 . S
C4508 H4495 0.960 . S
C4508 C4507 1.524 . S
C4509 C4506 1.403 . S
C4509 C4510 1.392 . S
C4509 C4513 1.495 . S
C4510 C4509 1.392 . S
C4510 C4511 1.385 . S
C4510 C4512 1.478 . S
C4511 H4505 0.930 . S
C4511 C4507 1.400 . S
C4511 C4510 1.385 . S
C4512 C4510 1.478 . S
C4512 C4514 1.381 . S
C4512 C4518 1.383 . S
C4513 C4509 1.495 . S
C4513 H4519 0.959 . S
C4513 H4520 0.961 . S
C4513 H4521 0.960 . S
C4514 C4512 1.381 . S
C4514 C4515 1.394 . S
C4514 H4522 0.930 . S
C4515 C4514 1.394 . S
C4515 C4516 1.383 . S
C4515 H4523 0.929 . S
C4516 C4515 1.383 . S
C4516 C4517 1.377 . S
C4517 H4501 0.930 . S
C4517 C4516 1.377 . S
C4517 C4518 1.379 . S
C4518 H4502 0.931 . S
C4518 C4512 1.383 . S
C4518 C4517 1.379 . S
H4519 C4513 0.959 . S
H4520 C4513 0.961 . S
H4521 C4513 0.960 . S
H4522 C4514 0.930 . S
H4523 C4515 0.929 . S
H4524 C4532 0.929 . S
H4525 C4534 0.930 . S
H4526 C4536 0.930 . S
H4527 C4539 0.929 . S
H4528 C4542 0.930 . S
H4529 C4544 0.960 . S
H4530 C4544 0.960 . S
H4531 C4544 0.960 . S
C4532 H4524 0.929 . S
C4532 C4533 1.377 . S
C4532 C4534 1.384 . S
C4533 C4532 1.377 . S
C4533 C4539 1.390 . S
C4534 H4525 0.930 . S
C4534 C4532 1.384 . S
C4534 C4535 1.372 . S
C4535 C4534 1.372 . S
C4535 C4536 1.400 . S
C4535 C4540 1.490 . S
C4536 H4526 0.930 . S
C4536 C4535 1.400 . S
C4536 C4539 1.386 . S
H4537 C4553 0.930 . S
H4538 C4554 0.931 . S
C4539 H4527 0.929 . S
C4539 C4533 1.390 . S
C4539 C4536 1.386 . S
C4540 C4535 1.490 . S
C4540 C4542 1.395 . S
C4540 C4543 1.403 . S
H4541 C4547 0.930 . S
C4542 H4528 0.930 . S
C4542 C4540 1.395 . S
C4542 C4545 1.403 . S
C4543 C4540 1.403 . S
C4543 C4544 1.524 . S
C4543 C4547 1.400 . S
C4544 H4529 0.960 . S
C4544 H4530 0.960 . S
C4544 H4531 0.960 . S
C4544 C4543 1.524 . S
C4545 C4542 1.403 . S
C4545 C4546 1.392 . S
C4545 C4549 1.495 . S
C4546 C4545 1.392 . S
C4546 C4547 1.385 . S
C4546 C4548 1.478 . S
C4547 H4541 0.930 . S
C4547 C4543 1.400 . S
C4547 C4546 1.385 . S
C4548 C4546 1.478 . S
C4548 C4550 1.381 . S
C4548 C4554 1.383 . S
C4549 C4545 1.495 . S
C4549 H4555 0.959 . S
C4549 H4556 0.961 . S
C4549 H4557 0.960 . S
C4550 C4548 1.381 . S
C4550 C4551 1.394 . S
C4550 H4558 0.930 . S
C4551 C4550 1.394 . S
C4551 C4552 1.383 . S
C4551 H4559 0.929 . S
C4552 C4551 1.383 . S
C4552 C4553 1.377 1_455 S
C4553 H4537 0.930 . S
C4553 C4552 1.377 1_655 S
C4553 C4554 1.379 1_655 S
C4554 H4538 0.931 . S
C4554 C4548 1.383 . S
C4554 C4553 1.379 1_455 S
H4555 C4549 0.959 . S
H4556 C4549 0.961 . S
H4557 C4549 0.960 . S
H4558 C4550 0.930 . S
H4559 C4551 0.929 . S
H4560 C4568 0.929 . S
H4561 C4570 0.930 . S
H4562 C4572 0.930 . S
H4563 C4575 0.929 . S
H4564 C4578 0.930 . S
H4565 C4580 0.960 . S
H4566 C4580 0.960 . S
H4567 C4580 0.960 . S
C4568 H4560 0.929 . S
C4568 C4569 1.377 . S
C4568 C4570 1.384 . S
C4569 C4568 1.377 . S
C4569 C4575 1.390 . S
C4570 H4561 0.930 . S
C4570 C4568 1.384 . S
C4570 C4571 1.372 . S
C4571 C4570 1.372 . S
C4571 C4572 1.400 . S
C4571 C4576 1.490 . S
C4572 H4562 0.930 . S
C4572 C4571 1.400 . S
C4572 C4575 1.386 . S
H4573 C4589 0.930 . S
H4574 C4590 0.931 . S
C4575 H4563 0.929 . S
C4575 C4569 1.390 . S
C4575 C4572 1.386 . S
C4576 C4571 1.490 . S
C4576 C4578 1.395 . S
C4576 C4579 1.403 . S
H4577 C4583 0.930 . S
C4578 H4564 0.930 . S
C4578 C4576 1.395 . S
C4578 C4581 1.403 . S
C4579 C4576 1.403 . S
C4579 C4580 1.524 . S
C4579 C4583 1.400 . S
C4580 H4565 0.960 . S
C4580 H4566 0.960 . S
C4580 H4567 0.960 . S
C4580 C4579 1.524 . S
C4581 C4578 1.403 . S
C4581 C4582 1.392 . S
C4581 C4585 1.495 . S
C4582 C4581 1.392 . S
C4582 C4583 1.385 . S
C4582 C4584 1.478 . S
C4583 H4577 0.930 . S
C4583 C4579 1.400 . S
C4583 C4582 1.385 . S
C4584 C4582 1.478 . S
C4584 C4586 1.381 . S
C4584 C4590 1.383 . S
C4585 C4581 1.495 . S
C4585 H4591 0.959 . S
C4585 H4592 0.961 . S
C4585 H4593 0.960 . S
C4586 C4584 1.381 . S
C4586 C4587 1.394 . S
C4586 H4594 0.930 . S
C4587 C4586 1.394 . S
C4587 C4588 1.383 . S
C4587 H4595 0.929 . S
C4588 C4587 1.383 . S
C4588 C4589 1.377 . S
C4589 H4573 0.930 . S
C4589 C4588 1.377 . S
C4589 C4590 1.379 . S
C4590 H4574 0.931 . S
C4590 C4584 1.383 . S
C4590 C4589 1.379 . S
H4591 C4585 0.959 . S
H4592 C4585 0.961 . S
H4593 C4585 0.960 . S
H4594 C4586 0.930 . S
H4595 C4587 0.929 . S
H4596 C4604 0.929 1_655 S
H4597 C4606 0.945 . S
H4598 C4608 0.930 . S
H4599 C4611 0.929 . S
H4600 C4614 0.930 . S
H4601 C4616 0.960 . S
H4602 C4616 0.960 . S
H4603 C4616 0.960 . S
C4604 H4596 0.929 1_455 S
C4604 C4605 1.377 . S
C4604 C4606 1.384 . S
C4605 C4604 1.377 . S
C4605 C4611 1.390 . S
C4606 H4597 0.945 . S
C4606 C4604 1.384 . S
C4606 C4607 1.372 . S
C4607 C4606 1.372 . S
C4607 C4608 1.400 . S
C4607 C4612 1.490 . S
C4608 H4598 0.930 . S
C4608 C4607 1.400 . S
C4608 C4611 1.386 . S
H4609 C4625 0.930 . S
H4610 C4626 0.931 . S
C4611 H4599 0.929 . S
C4611 C4605 1.390 . S
C4611 C4608 1.386 . S
C4612 C4607 1.490 . S
C4612 C4614 1.395 . S
C4612 C4615 1.403 . S
H4613 C4619 0.930 . S
C4614 H4600 0.930 . S
C4614 C4612 1.395 . S
C4614 C4617 1.403 . S
C4615 C4612 1.403 . S
C4615 C4616 1.524 . S
C4615 C4619 1.400 . S
C4616 H4601 0.960 . S
C4616 H4602 0.960 . S
C4616 H4603 0.960 . S
C4616 C4615 1.524 . S
C4617 C4614 1.403 . S
C4617 C4618 1.392 . S
C4617 C4621 1.495 . S
C4618 C4617 1.392 . S
C4618 C4619 1.385 . S
C4618 C4620 1.478 . S
C4619 H4613 0.930 . S
C4619 C4615 1.400 . S
C4619 C4618 1.385 . S
C4620 C4618 1.478 . S
C4620 C4622 1.381 . S
C4620 C4626 1.383 . S
C4621 C4617 1.495 . S
C4621 H4627 0.959 . S
C4621 H4628 0.961 . S
C4621 H4629 0.960 . S
C4622 C4620 1.381 . S
C4622 C4623 1.394 . S
C4622 H4630 0.930 . S
C4623 C4622 1.394 . S
C4623 C4624 1.383 . S
C4623 H4631 0.929 . S
C4624 C4623 1.383 . S
C4624 C4625 1.377 . S
C4625 H4609 0.930 . S
C4625 C4624 1.377 . S
C4625 C4626 1.379 . S
C4626 H4610 0.931 . S
C4626 C4620 1.383 . S
C4626 C4625 1.379 . S
H4627 C4621 0.959 . S
H4628 C4621 0.961 . S
H4629 C4621 0.960 . S
H4630 C4622 0.930 . S
H4631 C4623 0.929 . S
H4632 C4640 0.929 . S
H4633 C4642 0.930 . S
H4634 C4644 0.930 . S
H4635 C4647 0.929 . S
H4636 C4650 0.930 . S
H4637 C4652 0.960 . S
H4638 C4652 0.960 . S
H4639 C4652 0.960 . S
C4640 H4632 0.929 . S
C4640 C4641 1.377 . S
C4640 C4642 1.384 . S
C4641 C4640 1.377 . S
C4641 C4647 1.390 . S
C4642 H4633 0.930 . S
C4642 C4640 1.384 . S
C4642 C4643 1.372 . S
C4643 C4642 1.372 . S
C4643 C4644 1.400 . S
C4643 C4648 1.490 . S
C4644 H4634 0.930 . S
C4644 C4643 1.400 . S
C4644 C4647 1.386 . S
H4645 C4661 0.930 . S
H4646 C4662 0.931 . S
C4647 H4635 0.929 . S
C4647 C4641 1.390 . S
C4647 C4644 1.386 . S
C4648 C4643 1.490 . S
C4648 C4650 1.395 . S
C4648 C4651 1.403 . S
H4649 C4655 0.930 . S
C4650 H4636 0.930 . S
C4650 C4648 1.395 . S
C4650 C4653 1.403 . S
C4651 C4648 1.403 . S
C4651 C4652 1.524 . S
C4651 C4655 1.400 . S
C4652 H4637 0.960 . S
C4652 H4638 0.960 . S
C4652 H4639 0.960 . S
C4652 C4651 1.524 . S
C4653 C4650 1.403 . S
C4653 C4654 1.392 . S
C4653 C4657 1.495 . S
C4654 C4653 1.392 . S
C4654 C4655 1.385 . S
C4654 C4656 1.478 . S
C4655 H4649 0.930 . S
C4655 C4651 1.400 . S
C4655 C4654 1.385 . S
C4656 C4654 1.478 . S
C4656 C4658 1.381 . S
C4656 C4662 1.383 . S
C4657 C4653 1.495 . S
C4657 H4663 0.959 . S
C4657 H4664 0.961 . S
C4657 H4665 0.960 . S
C4658 C4656 1.381 . S
C4658 C4659 1.394 . S
C4658 H4666 0.930 . S
C4659 C4658 1.394 . S
C4659 C4660 1.383 . S
C4659 H4667 0.929 . S
C4660 C4659 1.383 . S
C4660 C4661 1.377 . S
C4661 H4645 0.930 . S
C4661 C4660 1.377 . S
C4661 C4662 1.379 . S
C4662 H4646 0.931 . S
C4662 C4656 1.383 . S
C4662 C4661 1.379 . S
H4663 C4657 0.959 . S
H4664 C4657 0.961 . S
H4665 C4657 0.960 . S
H4666 C4658 0.930 . S
H4667 C4659 0.929 . S
H4668 C4676 0.929 . S
H4669 C4678 0.930 . S
H4670 C4680 0.930 . S
H4671 C4683 0.929 . S
H4672 C4686 0.930 . S
H4673 C4688 0.960 . S
H4674 C4688 0.960 . S
H4675 C4688 0.960 . S
C4676 H4668 0.929 . S
C4676 C4677 1.377 . S
C4676 C4678 1.384 . S
C4677 C4676 1.377 . S
C4677 C4683 1.390 . S
C4678 H4669 0.930 . S
C4678 C4676 1.384 . S
C4678 C4679 1.372 . S
C4679 C4678 1.372 . S
C4679 C4680 1.400 . S
C4679 C4684 1.490 . S
C4680 H4670 0.930 . S
C4680 C4679 1.400 . S
C4680 C4683 1.386 . S
H4681 C4697 0.930 . S
H4682 C4698 0.931 . S
C4683 H4671 0.929 . S
C4683 C4677 1.390 . S
C4683 C4680 1.386 . S
C4684 C4679 1.490 . S
C4684 C4686 1.395 . S
C4684 C4687 1.403 . S
H4685 C4691 0.930 . S
C4686 H4672 0.930 . S
C4686 C4684 1.395 . S
C4686 C4689 1.403 . S
C4687 C4684 1.403 . S
C4687 C4688 1.524 . S
C4687 C4691 1.400 . S
C4688 H4673 0.960 . S
C4688 H4674 0.960 . S
C4688 H4675 0.960 . S
C4688 C4687 1.524 . S
C4689 C4686 1.403 . S
C4689 C4690 1.392 . S
C4689 C4693 1.495 . S
C4690 C4689 1.392 . S
C4690 C4691 1.385 . S
C4690 C4692 1.478 . S
C4691 H4685 0.930 . S
C4691 C4687 1.400 . S
C4691 C4690 1.385 . S
C4692 C4690 1.478 . S
C4692 C4694 1.381 . S
C4692 C4698 1.383 . S
C4693 C4689 1.495 . S
C4693 H4699 0.959 . S
C4693 H4700 0.961 . S
C4693 H4701 0.960 . S
C4694 C4692 1.381 . S
C4694 C4695 1.394 . S
C4694 H4702 0.930 . S
C4695 C4694 1.394 . S
C4695 C4696 1.383 . S
C4695 H4703 0.929 . S
C4696 C4695 1.383 . S
C4696 C4697 1.377 . S
C4697 H4681 0.930 . S
C4697 C4696 1.377 . S
C4697 C4698 1.379 . S
C4698 H4682 0.931 . S
C4698 C4692 1.383 . S
C4698 C4697 1.379 . S
H4699 C4693 0.959 . S
H4700 C4693 0.961 . S
H4701 C4693 0.960 . S
H4702 C4694 0.930 . S
H4703 C4695 0.929 . S
H4704 C4712 0.929 . S
H4705 C4714 0.930 . S
H4706 C4716 0.930 . S
H4707 C4719 0.929 . S
H4708 C4722 0.930 . S
H4709 C4724 0.960 . S
H4710 C4724 0.960 . S
H4711 C4724 0.960 . S
C4712 H4704 0.929 . S
C4712 C4713 1.377 . S
C4712 C4714 1.384 . S
C4713 C4712 1.377 . S
C4713 C4719 1.390 . S
C4714 H4705 0.930 . S
C4714 C4712 1.384 . S
C4714 C4715 1.372 . S
C4715 C4714 1.372 . S
C4715 C4716 1.400 . S
C4715 C4720 1.490 . S
C4716 H4706 0.930 . S
C4716 C4715 1.400 . S
C4716 C4719 1.386 . S
H4717 C4733 0.930 . S
H4718 C4734 0.931 . S
C4719 H4707 0.929 . S
C4719 C4713 1.390 . S
C4719 C4716 1.386 . S
C4720 C4715 1.490 . S
C4720 C4722 1.395 . S
C4720 C4723 1.403 . S
H4721 C4727 0.930 . S
C4722 H4708 0.930 . S
C4722 C4720 1.395 . S
C4722 C4725 1.403 . S
C4723 C4720 1.403 . S
C4723 C4724 1.524 . S
C4723 C4727 1.400 . S
C4724 H4709 0.960 . S
C4724 H4710 0.960 . S
C4724 H4711 0.960 . S
C4724 C4723 1.524 . S
C4725 C4722 1.403 . S
C4725 C4726 1.392 . S
C4725 C4729 1.495 . S
C4726 C4725 1.392 . S
C4726 C4727 1.385 . S
C4726 C4728 1.478 . S
C4727 H4721 0.930 . S
C4727 C4723 1.400 . S
C4727 C4726 1.385 . S
C4728 C4726 1.478 . S
C4728 C4730 1.381 . S
C4728 C4734 1.383 . S
C4729 C4725 1.495 . S
C4729 H4735 0.959 . S
C4729 H4736 0.961 . S
C4729 H4737 0.960 . S
C4730 C4728 1.381 . S
C4730 C4731 1.394 . S
C4730 H4738 0.930 . S
C4731 C4730 1.394 . S
C4731 C4732 1.383 . S
C4731 H4739 0.929 . S
C4732 C4731 1.383 . S
C4732 C4733 1.377 . S
C4733 H4717 0.930 . S
C4733 C4732 1.377 . S
C4733 C4734 1.379 . S
C4734 H4718 0.931 . S
C4734 C4728 1.383 . S
C4734 C4733 1.379 . S
H4735 C4729 0.959 . S
H4736 C4729 0.961 . S
H4737 C4729 0.960 . S
H4738 C4730 0.930 . S
H4739 C4731 0.929 . S
H4740 C4748 0.929 . S
H4741 C4750 0.930 . S
H4742 C4752 0.930 . S
H4743 C4755 0.929 . S
H4744 C4758 0.930 . S
H4745 C4760 0.960 . S
H4746 C4760 0.960 . S
H4747 C4760 0.960 . S
C4748 H4740 0.929 . S
C4748 C4749 1.377 . S
C4748 C4750 1.384 . S
C4749 C4748 1.377 . S
C4749 C4755 1.390 . S
C4750 H4741 0.930 . S
C4750 C4748 1.384 . S
C4750 C4751 1.372 . S
C4751 C4750 1.372 . S
C4751 C4752 1.400 . S
C4751 C4756 1.490 . S
C4752 H4742 0.930 . S
C4752 C4751 1.400 . S
C4752 C4755 1.386 . S
H4753 C4769 0.930 1_556 S
H4754 C4770 0.931 . S
C4755 H4743 0.929 . S
C4755 C4749 1.390 . S
C4755 C4752 1.386 . S
C4756 C4751 1.490 . S
C4756 C4758 1.395 . S
C4756 C4759 1.403 . S
H4757 C4763 0.930 . S
C4758 H4744 0.930 . S
C4758 C4756 1.395 . S
C4758 C4761 1.403 . S
C4759 C4756 1.403 . S
C4759 C4760 1.524 . S
C4759 C4763 1.400 . S
C4760 H4745 0.960 . S
C4760 H4746 0.960 . S
C4760 H4747 0.960 . S
C4760 C4759 1.524 . S
C4761 C4758 1.403 . S
C4761 C4762 1.392 . S
C4761 C4765 1.495 . S
C4762 C4761 1.392 . S
C4762 C4763 1.385 . S
C4762 C4764 1.478 . S
C4763 H4757 0.930 . S
C4763 C4759 1.400 . S
C4763 C4762 1.385 . S
C4764 C4762 1.478 . S
C4764 C4766 1.381 . S
C4764 C4770 1.383 . S
C4765 C4761 1.495 . S
C4765 H4771 0.959 . S
C4765 H4772 0.961 1_554 S
C4765 H4773 0.960 . S
C4766 C4764 1.381 . S
C4766 C4767 1.394 . S
C4766 H4774 0.930 . S
C4767 C4766 1.394 . S
C4767 C4768 1.373 1_554 S
C4767 H4775 0.929 . S
C4768 C4767 1.373 1_556 S
C4768 C4769 1.372 1_556 S
C4769 H4753 0.930 1_554 S
C4769 C4768 1.372 1_554 S
C4769 C4770 1.379 . S
C4770 H4754 0.931 . S
C4770 C4764 1.383 . S
C4770 C4769 1.379 . S
H4771 C4765 0.959 . S
H4772 C4765 0.961 1_556 S
H4773 C4765 0.960 . S
H4774 C4766 0.930 . S
H4775 C4767 0.929 . S
H4776 C4784 0.929 . S
H4777 C4786 0.930 . S
H4778 C4788 0.930 . S
H4779 C4791 0.929 . S
H4780 C4794 0.930 . S
H4781 C4796 0.960 . S
H4782 C4796 0.960 . S
H4783 C4796 0.960 . S
C4784 H4776 0.929 . S
C4784 C4785 1.377 . S
C4784 C4786 1.384 . S
C4785 C4784 1.377 . S
C4785 C4791 1.390 . S
C4786 H4777 0.930 . S
C4786 C4784 1.384 . S
C4786 C4787 1.372 . S
C4787 C4786 1.372 . S
C4787 C4788 1.400 . S
C4787 C4792 1.490 . S
C4788 H4778 0.930 . S
C4788 C4787 1.400 . S
C4788 C4791 1.386 . S
H4789 C4805 0.930 . S
H4790 C4806 0.931 . S
C4791 H4779 0.929 . S
C4791 C4785 1.390 . S
C4791 C4788 1.386 . S
C4792 C4787 1.490 . S
C4792 C4794 1.395 . S
C4792 C4795 1.403 . S
H4793 C4799 0.930 . S
C4794 H4780 0.930 . S
C4794 C4792 1.395 . S
C4794 C4797 1.403 . S
C4795 C4792 1.403 . S
C4795 C4796 1.524 . S
C4795 C4799 1.400 . S
C4796 H4781 0.960 . S
C4796 H4782 0.960 . S
C4796 H4783 0.960 . S
C4796 C4795 1.524 . S
C4797 C4794 1.403 . S
C4797 C4798 1.392 . S
C4797 C4801 1.495 . S
C4798 C4797 1.392 . S
C4798 C4799 1.385 . S
C4798 C4800 1.478 . S
C4799 H4793 0.930 . S
C4799 C4795 1.400 . S
C4799 C4798 1.385 . S
C4800 C4798 1.478 . S
C4800 C4802 1.381 . S
C4800 C4806 1.383 . S
C4801 C4797 1.495 . S
C4801 H4807 0.959 . S
C4801 H4808 0.961 . S
C4801 H4809 0.960 . S
C4802 C4800 1.381 . S
C4802 C4803 1.394 . S
C4802 H4810 0.930 . S
C4803 C4802 1.394 . S
C4803 C4804 1.383 . S
C4803 H4811 0.929 . S
C4804 C4803 1.383 . S
C4804 C4805 1.377 . S
C4805 H4789 0.930 . S
C4805 C4804 1.377 . S
C4805 C4806 1.379 . S
C4806 H4790 0.931 . S
C4806 C4800 1.383 . S
C4806 C4805 1.379 . S
H4807 C4801 0.959 . S
H4808 C4801 0.961 . S
H4809 C4801 0.960 . S
H4810 C4802 0.930 . S
H4811 C4803 0.929 . S
H4812 C4820 0.929 . S
H4813 C4822 0.930 . S
H4814 C4824 0.930 . S
H4815 C4827 0.929 . S
H4816 C4830 0.930 . S
H4817 C4832 0.960 . S
H4818 C4832 0.960 . S
H4819 C4832 0.960 . S
C4820 H4812 0.929 . S
C4820 C4821 1.377 . S
C4820 C4822 1.384 . S
C4821 C4820 1.377 . S
C4821 C4827 1.390 . S
C4822 H4813 0.930 . S
C4822 C4820 1.384 . S
C4822 C4823 1.372 . S
C4823 C4822 1.372 . S
C4823 C4824 1.400 . S
C4823 C4828 1.490 . S
C4824 H4814 0.930 . S
C4824 C4823 1.400 . S
C4824 C4827 1.386 . S
H4825 C4841 0.930 . S
H4826 C4842 0.931 . S
C4827 H4815 0.929 . S
C4827 C4821 1.390 . S
C4827 C4824 1.386 . S
C4828 C4823 1.490 . S
C4828 C4830 1.395 . S
C4828 C4831 1.403 . S
H4829 C4835 0.930 . S
C4830 H4816 0.930 . S
C4830 C4828 1.395 . S
C4830 C4833 1.403 . S
C4831 C4828 1.403 . S
C4831 C4832 1.524 . S
C4831 C4835 1.400 . S
C4832 H4817 0.960 . S
C4832 H4818 0.960 . S
C4832 H4819 0.960 . S
C4832 C4831 1.524 . S
C4833 C4830 1.403 . S
C4833 C4834 1.392 . S
C4833 C4837 1.495 . S
C4834 C4833 1.392 . S
C4834 C4835 1.385 . S
C4834 C4836 1.478 . S
C4835 H4829 0.930 . S
C4835 C4831 1.400 . S
C4835 C4834 1.385 . S
C4836 C4834 1.478 . S
C4836 C4838 1.381 . S
C4836 C4842 1.383 . S
C4837 C4833 1.495 . S
C4837 H4843 0.959 . S
C4837 H4844 0.961 . S
C4837 H4845 0.960 . S
C4838 C4836 1.381 . S
C4838 C4839 1.394 . S
C4838 H4846 0.930 . S
C4839 C4838 1.394 . S
C4839 C4840 1.383 . S
C4839 H4847 0.929 . S
C4840 C4839 1.383 . S
C4840 C4841 1.377 . S
C4841 H4825 0.930 . S
C4841 C4840 1.377 . S
C4841 C4842 1.379 . S
C4842 H4826 0.931 . S
C4842 C4836 1.383 . S
C4842 C4841 1.379 . S
H4843 C4837 0.959 . S
H4844 C4837 0.961 . S
H4845 C4837 0.960 . S
H4846 C4838 0.930 . S
H4847 C4839 0.929 . S
H4848 C4856 0.929 . S
H4849 C4858 0.930 . S
H4850 C4860 0.930 . S
H4851 C4863 0.929 . S
H4852 C4866 0.930 . S
H4853 C4868 0.960 . S
H4854 C4868 0.960 . S
H4855 C4868 0.960 . S
C4856 H4848 0.929 . S
C4856 C4857 1.377 . S
C4856 C4858 1.384 . S
C4857 C4856 1.377 . S
C4857 C4863 1.390 . S
C4858 H4849 0.930 . S
C4858 C4856 1.384 . S
C4858 C4859 1.372 . S
C4859 C4858 1.372 . S
C4859 C4860 1.400 . S
C4859 C4864 1.490 . S
C4860 H4850 0.930 . S
C4860 C4859 1.400 . S
C4860 C4863 1.386 . S
H4861 C4877 0.930 . S
H4862 C4878 0.931 . S
C4863 H4851 0.929 . S
C4863 C4857 1.390 . S
C4863 C4860 1.386 . S
C4864 C4859 1.490 . S
C4864 C4866 1.395 . S
C4864 C4867 1.403 . S
H4865 C4871 0.930 . S
C4866 H4852 0.930 . S
C4866 C4864 1.395 . S
C4866 C4869 1.403 . S
C4867 C4864 1.403 . S
C4867 C4868 1.524 . S
C4867 C4871 1.400 . S
C4868 H4853 0.960 . S
C4868 H4854 0.960 . S
C4868 H4855 0.960 . S
C4868 C4867 1.524 . S
C4869 C4866 1.403 . S
C4869 C4870 1.392 . S
C4869 C4873 1.495 . S
C4870 C4869 1.392 . S
C4870 C4871 1.385 . S
C4870 C4872 1.478 . S
C4871 H4865 0.930 . S
C4871 C4867 1.400 . S
C4871 C4870 1.385 . S
C4872 C4870 1.478 . S
C4872 C4874 1.381 . S
C4872 C4878 1.383 . S
C4873 C4869 1.495 . S
C4873 H4879 0.959 . S
C4873 H4880 0.961 . S
C4873 H4881 0.960 . S
C4874 C4872 1.381 . S
C4874 C4875 1.394 . S
C4874 H4882 0.930 . S
C4875 C4874 1.394 . S
C4875 C4876 1.383 . S
C4875 H4883 0.929 . S
C4876 C4875 1.383 . S
C4876 C4877 1.377 . S
C4877 H4861 0.930 . S
C4877 C4876 1.377 . S
C4877 C4878 1.379 . S
C4878 H4862 0.931 . S
C4878 C4872 1.383 . S
C4878 C4877 1.379 . S
H4879 C4873 0.959 . S
H4880 C4873 0.961 . S
H4881 C4873 0.960 . S
H4882 C4874 0.930 . S
H4883 C4875 0.929 . S
H4884 C4892 0.929 . S
H4885 C4894 0.930 . S
H4886 C4896 0.930 . S
H4887 C4899 0.929 . S
H4888 C4902 0.930 . S
H4889 C4904 0.960 . S
H4890 C4904 0.960 . S
H4891 C4904 0.960 . S
C4892 H4884 0.929 . S
C4892 C4893 1.377 . S
C4892 C4894 1.384 . S
C4893 C4892 1.377 . S
C4893 C4899 1.390 . S
C4894 H4885 0.930 . S
C4894 C4892 1.384 . S
C4894 C4895 1.372 . S
C4895 C4894 1.372 . S
C4895 C4896 1.400 . S
C4895 C4900 1.490 . S
C4896 H4886 0.930 . S
C4896 C4895 1.400 . S
C4896 C4899 1.386 . S
H4897 C4913 0.930 . S
H4898 C4914 0.931 . S
C4899 H4887 0.929 . S
C4899 C4893 1.390 . S
C4899 C4896 1.386 . S
C4900 C4895 1.490 . S
C4900 C4902 1.395 . S
C4900 C4903 1.403 . S
H4901 C4907 0.930 . S
C4902 H4888 0.930 . S
C4902 C4900 1.395 . S
C4902 C4905 1.403 . S
C4903 C4900 1.403 . S
C4903 C4904 1.524 . S
C4903 C4907 1.400 . S
C4904 H4889 0.960 . S
C4904 H4890 0.960 . S
C4904 H4891 0.960 . S
C4904 C4903 1.524 . S
C4905 C4902 1.403 . S
C4905 C4906 1.392 . S
C4905 C4909 1.495 . S
C4906 C4905 1.392 . S
C4906 C4907 1.385 . S
C4906 C4908 1.478 . S
C4907 H4901 0.930 . S
C4907 C4903 1.400 . S
C4907 C4906 1.385 . S
C4908 C4906 1.478 . S
C4908 C4910 1.381 . S
C4908 C4914 1.383 . S
C4909 C4905 1.495 . S
C4909 H4915 0.959 . S
C4909 H4916 0.961 . S
C4909 H4917 0.960 . S
C4910 C4908 1.381 . S
C4910 C4911 1.394 . S
C4910 H4918 0.930 . S
C4911 C4910 1.394 . S
C4911 C4912 1.383 . S
C4911 H4919 0.929 . S
C4912 C4911 1.383 . S
C4912 C4913 1.377 . S
C4913 H4897 0.930 . S
C4913 C4912 1.377 . S
C4913 C4914 1.379 . S
C4914 H4898 0.931 . S
C4914 C4908 1.383 . S
C4914 C4913 1.379 . S
H4915 C4909 0.959 . S
H4916 C4909 0.961 . S
H4917 C4909 0.960 . S
H4918 C4910 0.930 . S
H4919 C4911 0.929 . S
H4920 C4928 0.929 . S
H4921 C4930 0.930 . S
H4922 C4932 0.930 . S
H4923 C4935 0.929 . S
H4924 C4938 0.930 . S
H4925 C4940 0.960 . S
H4926 C4940 0.960 . S
H4927 C4940 0.960 . S
C4928 H4920 0.929 . S
C4928 C4929 1.377 . S
C4928 C4930 1.384 . S
C4929 C4928 1.377 . S
C4929 C4935 1.390 . S
C4930 H4921 0.930 . S
C4930 C4928 1.384 . S
C4930 C4931 1.372 . S
C4931 C4930 1.372 . S
C4931 C4932 1.400 . S
C4931 C4936 1.490 . S
C4932 H4922 0.930 . S
C4932 C4931 1.400 . S
C4932 C4935 1.386 . S
H4933 C4949 0.930 . S
H4934 C4950 0.931 . S
C4935 H4923 0.929 . S
C4935 C4929 1.390 . S
C4935 C4932 1.386 . S
C4936 C4931 1.490 . S
C4936 C4938 1.395 . S
C4936 C4939 1.403 . S
H4937 C4943 0.930 . S
C4938 H4924 0.930 . S
C4938 C4936 1.395 . S
C4938 C4941 1.403 . S
C4939 C4936 1.403 . S
C4939 C4940 1.524 . S
C4939 C4943 1.400 . S
C4940 H4925 0.960 . S
C4940 H4926 0.960 . S
C4940 H4927 0.960 . S
C4940 C4939 1.524 . S
C4941 C4938 1.403 . S
C4941 C4942 1.392 . S
C4941 C4945 1.495 . S
C4942 C4941 1.392 . S
C4942 C4943 1.385 . S
C4942 C4944 1.478 . S
C4943 H4937 0.930 . S
C4943 C4939 1.400 . S
C4943 C4942 1.385 . S
C4944 C4942 1.478 . S
C4944 C4946 1.381 . S
C4944 C4950 1.383 . S
C4945 C4941 1.495 . S
C4945 H4951 0.959 . S
C4945 H4952 0.961 . S
C4945 H4953 0.960 . S
C4946 C4944 1.381 . S
C4946 C4947 1.394 . S
C4946 H4954 0.930 . S
C4947 C4946 1.394 . S
C4947 C4948 1.383 . S
C4947 H4955 0.929 . S
C4948 C4947 1.383 . S
C4948 C4949 1.377 . S
C4949 H4933 0.930 . S
C4949 C4948 1.377 . S
C4949 C4950 1.379 . S
C4950 H4934 0.931 . S
C4950 C4944 1.383 . S
C4950 C4949 1.379 . S
H4951 C4945 0.959 . S
H4952 C4945 0.961 . S
H4953 C4945 0.960 . S
H4954 C4946 0.930 . S
H4955 C4947 0.929 . S
H4956 C4964 0.929 . S
H4957 C4966 0.930 . S
H4958 C4968 0.930 . S
H4959 C4971 0.929 . S
H4960 C4974 0.930 . S
H4961 C4976 0.960 . S
H4962 C4976 0.960 . S
H4963 C4976 0.960 . S
C4964 H4956 0.929 . S
C4964 C4965 1.377 . S
C4964 C4966 1.384 . S
C4965 C4964 1.377 . S
C4965 C4971 1.390 . S
C4966 H4957 0.930 . S
C4966 C4964 1.384 . S
C4966 C4967 1.372 . S
C4967 C4966 1.372 . S
C4967 C4968 1.400 . S
C4967 C4972 1.490 . S
C4968 H4958 0.930 . S
C4968 C4967 1.400 . S
C4968 C4971 1.386 . S
H4969 C4985 0.930 . S
H4970 C4986 0.931 . S
C4971 H4959 0.929 . S
C4971 C4965 1.390 . S
C4971 C4968 1.386 . S
C4972 C4967 1.490 . S
C4972 C4974 1.395 . S
C4972 C4975 1.403 . S
H4973 C4979 0.930 . S
C4974 H4960 0.930 . S
C4974 C4972 1.395 . S
C4974 C4977 1.403 . S
C4975 C4972 1.403 . S
C4975 C4976 1.524 . S
C4975 C4979 1.400 . S
C4976 H4961 0.960 . S
C4976 H4962 0.960 . S
C4976 H4963 0.960 . S
C4976 C4975 1.524 . S
C4977 C4974 1.403 . S
C4977 C4978 1.392 . S
C4977 C4981 1.495 . S
C4978 C4977 1.392 . S
C4978 C4979 1.385 . S
C4978 C4980 1.478 . S
C4979 H4973 0.930 . S
C4979 C4975 1.400 . S
C4979 C4978 1.385 . S
C4980 C4978 1.478 . S
C4980 C4982 1.381 . S
C4980 C4986 1.383 . S
C4981 C4977 1.495 . S
C4981 H4987 0.959 . S
C4981 H4988 0.961 . S
C4981 H4989 0.960 . S
C4982 C4980 1.381 . S
C4982 C4983 1.394 . S
C4982 H4990 0.930 . S
C4983 C4982 1.394 . S
C4983 C4984 1.383 . S
C4983 H4991 0.929 . S
C4984 C4983 1.383 . S
C4984 C4985 1.377 . S
C4985 H4969 0.930 . S
C4985 C4984 1.377 . S
C4985 C4986 1.379 . S
C4986 H4970 0.931 . S
C4986 C4980 1.383 . S
C4986 C4985 1.379 . S
H4987 C4981 0.959 . S
H4988 C4981 0.961 . S
H4989 C4981 0.960 . S
H4990 C4982 0.930 . S
H4991 C4983 0.929 . S
H4992 C5000 0.929 . S
H4993 C5002 0.930 . S
H4994 C5004 0.930 . S
H4995 C5007 0.929 . S
H4996 C5010 0.930 . S
H4997 C5012 0.960 . S
H4998 C5012 0.960 . S
H4999 C5012 0.960 . S
C5000 H4992 0.929 . S
C5000 C5001 1.377 . S
C5000 C5002 1.384 . S
C5001 C5000 1.377 . S
C5001 C5007 1.390 . S
C5002 H4993 0.930 . S
C5002 C5000 1.384 . S
C5002 C5003 1.372 . S
C5003 C5002 1.372 . S
C5003 C5004 1.400 . S
C5003 C5008 1.490 . S
C5004 H4994 0.930 . S
C5004 C5003 1.400 . S
C5004 C5007 1.386 . S
H5005 C5021 0.930 . S
H5006 C5022 0.931 . S
C5007 H4995 0.929 . S
C5007 C5001 1.390 . S
C5007 C5004 1.386 . S
C5008 C5003 1.490 . S
C5008 C5010 1.395 . S
C5008 C5011 1.403 . S
H5009 C5015 0.930 . S
C5010 H4996 0.930 . S
C5010 C5008 1.395 . S
C5010 C5013 1.403 . S
C5011 C5008 1.403 . S
C5011 C5012 1.524 . S
C5011 C5015 1.400 . S
C5012 H4997 0.960 . S
C5012 H4998 0.960 . S
C5012 H4999 0.960 . S
C5012 C5011 1.524 . S
C5013 C5010 1.403 . S
C5013 C5014 1.392 . S
C5013 C5017 1.495 . S
C5014 C5013 1.392 . S
C5014 C5015 1.385 . S
C5014 C5016 1.478 . S
C5015 H5009 0.930 . S
C5015 C5011 1.400 . S
C5015 C5014 1.385 . S
C5016 C5014 1.478 . S
C5016 C5018 1.381 . S
C5016 C5022 1.383 . S
C5017 C5013 1.495 . S
C5017 H5023 0.959 . S
C5017 H5024 0.961 . S
C5017 H5025 0.960 . S
C5018 C5016 1.381 . S
C5018 C5019 1.394 . S
C5018 H5026 0.930 . S
C5019 C5018 1.394 . S
C5019 C5020 1.383 . S
C5019 H5027 0.929 . S
C5020 C5019 1.383 . S
C5020 C5021 1.377 . S
C5021 H5005 0.930 . S
C5021 C5020 1.377 . S
C5021 C5022 1.379 . S
C5022 H5006 0.931 . S
C5022 C5016 1.383 . S
C5022 C5021 1.379 . S
H5023 C5017 0.959 . S
H5024 C5017 0.961 . S
H5025 C5017 0.960 . S
H5026 C5018 0.930 . S
H5027 C5019 0.929 . S
H5028 C5036 0.929 . S
H5029 C5038 0.930 . S
H5030 C5040 0.930 . S
H5031 C5043 0.929 . S
H5032 C5046 0.930 . S
H5033 C5048 0.960 . S
H5034 C5048 0.960 . S
H5035 C5048 0.960 . S
C5036 H5028 0.929 . S
C5036 C5037 1.377 . S
C5036 C5038 1.384 . S
C5037 C5036 1.377 . S
C5037 C5043 1.390 . S
C5038 H5029 0.930 . S
C5038 C5036 1.384 . S
C5038 C5039 1.372 . S
C5039 C5038 1.372 . S
C5039 C5040 1.400 . S
C5039 C5044 1.490 . S
C5040 H5030 0.930 . S
C5040 C5039 1.400 . S
C5040 C5043 1.386 . S
H5041 C5057 0.930 . S
H5042 C5058 0.931 . S
C5043 H5031 0.929 . S
C5043 C5037 1.390 . S
C5043 C5040 1.386 . S
C5044 C5039 1.490 . S
C5044 C5046 1.395 . S
C5044 C5047 1.403 . S
H5045 C5051 0.930 . S
C5046 H5032 0.930 . S
C5046 C5044 1.395 . S
C5046 C5049 1.403 . S
C5047 C5044 1.403 . S
C5047 C5048 1.524 . S
C5047 C5051 1.400 . S
C5048 H5033 0.960 . S
C5048 H5034 0.960 . S
C5048 H5035 0.960 . S
C5048 C5047 1.524 . S
C5049 C5046 1.403 . S
C5049 C5050 1.392 . S
C5049 C5053 1.495 . S
C5050 C5049 1.392 . S
C5050 C5051 1.385 . S
C5050 C5052 1.478 . S
C5051 H5045 0.930 . S
C5051 C5047 1.400 . S
C5051 C5050 1.385 . S
C5052 C5050 1.478 . S
C5052 C5054 1.381 . S
C5052 C5058 1.383 . S
C5053 C5049 1.495 . S
C5053 H5059 0.959 . S
C5053 H5060 0.961 . S
C5053 H5061 0.960 . S
C5054 C5052 1.381 . S
C5054 C5055 1.394 . S
C5054 H5062 0.930 . S
C5055 C5054 1.394 . S
C5055 C5056 1.383 . S
C5055 H5063 0.929 . S
C5056 C5055 1.383 . S
C5056 C5057 1.377 . S
C5057 H5041 0.930 . S
C5057 C5056 1.377 . S
C5057 C5058 1.379 . S
C5058 H5042 0.931 . S
C5058 C5052 1.383 . S
C5058 C5057 1.379 . S
H5059 C5053 0.959 . S
H5060 C5053 0.961 . S
H5061 C5053 0.960 . S
H5062 C5054 0.930 . S
H5063 C5055 0.929 . S
H5064 C5072 0.929 . S
H5065 C5074 0.930 . S
H5066 C5076 0.930 . S
H5067 C5079 0.929 . S
H5068 C5082 0.930 . S
H5069 C5084 0.960 . S
H5070 C5084 0.960 . S
H5071 C5084 0.960 . S
C5072 H5064 0.929 . S
C5072 C5073 1.377 . S
C5072 C5074 1.384 . S
C5073 C5072 1.377 . S
C5073 C5079 1.390 . S
C5074 H5065 0.930 . S
C5074 C5072 1.384 . S
C5074 C5075 1.372 . S
C5075 C5074 1.372 . S
C5075 C5076 1.400 . S
C5075 C5080 1.490 . S
C5076 H5066 0.930 . S
C5076 C5075 1.400 . S
C5076 C5079 1.386 . S
H5077 C5093 0.930 . S
H5078 C5094 0.931 . S
C5079 H5067 0.929 . S
C5079 C5073 1.390 . S
C5079 C5076 1.386 . S
C5080 C5075 1.490 . S
C5080 C5082 1.395 . S
C5080 C5083 1.403 . S
H5081 C5087 0.930 . S
C5082 H5068 0.930 . S
C5082 C5080 1.395 . S
C5082 C5085 1.403 . S
C5083 C5080 1.403 . S
C5083 C5084 1.524 . S
C5083 C5087 1.400 . S
C5084 H5069 0.960 . S
C5084 H5070 0.960 . S
C5084 H5071 0.960 . S
C5084 C5083 1.524 . S
C5085 C5082 1.403 . S
C5085 C5086 1.392 . S
C5085 C5089 1.495 . S
C5086 C5085 1.392 . S
C5086 C5087 1.385 . S
C5086 C5088 1.478 . S
C5087 H5081 0.930 . S
C5087 C5083 1.400 . S
C5087 C5086 1.385 . S
C5088 C5086 1.478 . S
C5088 C5090 1.381 1_545 S
C5088 C5094 1.383 . S
C5089 C5085 1.495 . S
C5089 H5095 0.959 . S
C5089 H5096 0.961 . S
C5089 H5097 0.931 1_545 S
C5090 C5088 1.381 1_565 S
C5090 C5091 1.394 . S
C5090 H5098 0.930 . S
C5091 C5090 1.394 . S
C5091 C5092 1.383 . S
C5091 H5099 0.929 . S
C5092 C5091 1.383 . S
C5092 C5093 1.377 1_565 S
C5093 H5077 0.930 . S
C5093 C5092 1.377 1_545 S
C5093 C5094 1.379 . S
C5094 H5078 0.931 . S
C5094 C5088 1.383 . S
C5094 C5093 1.379 . S
H5095 C5089 0.959 . S
H5096 C5089 0.961 . S
H5097 C5089 0.931 1_565 S
H5098 C5090 0.930 . S
H5099 C5091 0.929 . S
H5100 C5108 0.929 . S
H5101 C5110 0.930 . S
H5102 C5112 0.930 . S
H5103 C5115 0.929 . S
H5104 C5118 0.930 . S
H5105 C5120 0.960 . S
H5106 C5120 0.960 . S
H5107 C5120 0.960 . S
C5108 H5100 0.929 . S
C5108 C5109 1.377 . S
C5108 C5110 1.384 . S
C5109 C5108 1.377 . S
C5109 C5115 1.390 . S
C5110 H5101 0.930 . S
C5110 C5108 1.384 . S
C5110 C5111 1.372 . S
C5111 C5110 1.372 . S
C5111 C5112 1.400 . S
C5111 C5116 1.490 . S
C5112 H5102 0.930 . S
C5112 C5111 1.400 . S
C5112 C5115 1.386 . S
H5113 C5129 0.930 . S
H5114 C5130 0.931 . S
C5115 H5103 0.929 . S
C5115 C5109 1.390 . S
C5115 C5112 1.386 . S
C5116 C5111 1.490 . S
C5116 C5118 1.395 . S
C5116 C5119 1.403 . S
H5117 C5123 0.930 . S
C5118 H5104 0.930 . S
C5118 C5116 1.395 . S
C5118 C5121 1.403 . S
C5119 C5116 1.403 . S
C5119 C5120 1.524 . S
C5119 C5123 1.400 . S
C5120 H5105 0.960 . S
C5120 H5106 0.960 . S
C5120 H5107 0.960 . S
C5120 C5119 1.524 . S
C5121 C5118 1.403 . S
C5121 C5122 1.392 . S
C5121 C5125 1.495 . S
C5122 C5121 1.392 . S
C5122 C5123 1.385 . S
C5122 C5124 1.478 . S
C5123 H5117 0.930 . S
C5123 C5119 1.400 . S
C5123 C5122 1.385 . S
C5124 C5122 1.478 . S
C5124 C5126 1.381 . S
C5124 C5130 1.383 . S
C5125 C5121 1.495 . S
C5125 H5131 0.959 . S
C5125 H5132 0.961 . S
C5125 H5133 0.960 . S
C5126 C5124 1.381 . S
C5126 C5127 1.394 . S
C5126 H5134 0.930 . S
C5127 C5126 1.394 . S
C5127 C5128 1.383 . S
C5127 H5135 0.929 . S
C5128 C5127 1.383 . S
C5128 C5129 1.377 . S
C5129 H5113 0.930 . S
C5129 C5128 1.377 . S
C5129 C5130 1.379 . S
C5130 H5114 0.931 . S
C5130 C5124 1.383 . S
C5130 C5129 1.379 . S
H5131 C5125 0.959 . S
H5132 C5125 0.961 . S
H5133 C5125 0.960 . S
H5134 C5126 0.930 . S
H5135 C5127 0.929 . S
H5136 C5144 0.929 . S
H5137 C5146 0.930 . S
H5138 C5148 0.930 . S
H5139 C5151 0.929 . S
H5140 C5154 0.930 . S
H5141 C5156 0.960 . S
H5142 C5156 0.960 . S
H5143 C5156 0.960 . S
C5144 H5136 0.929 . S
C5144 C5145 1.377 . S
C5144 C5146 1.384 . S
C5145 C5144 1.377 . S
C5145 C5151 1.390 . S
C5146 H5137 0.930 . S
C5146 C5144 1.384 . S
C5146 C5147 1.372 . S
C5147 C5146 1.372 . S
C5147 C5148 1.400 . S
C5147 C5152 1.490 . S
C5148 H5138 0.930 . S
C5148 C5147 1.400 . S
C5148 C5151 1.386 . S
H5149 C5165 0.930 . S
H5150 C5166 0.931 . S
C5151 H5139 0.929 . S
C5151 C5145 1.390 . S
C5151 C5148 1.386 . S
C5152 C5147 1.490 . S
C5152 C5154 1.395 . S
C5152 C5155 1.403 . S
H5153 C5159 0.930 . S
C5154 H5140 0.930 . S
C5154 C5152 1.395 . S
C5154 C5157 1.403 . S
C5155 C5152 1.403 . S
C5155 C5156 1.524 . S
C5155 C5159 1.400 . S
C5156 H5141 0.960 . S
C5156 H5142 0.960 . S
C5156 H5143 0.960 . S
C5156 C5155 1.524 . S
C5157 C5154 1.403 . S
C5157 C5158 1.392 . S
C5157 C5161 1.495 . S
C5158 C5157 1.392 . S
C5158 C5159 1.385 . S
C5158 C5160 1.478 . S
C5159 H5153 0.930 . S
C5159 C5155 1.400 . S
C5159 C5158 1.385 . S
C5160 C5158 1.478 . S
C5160 C5162 1.381 . S
C5160 C5166 1.383 . S
C5161 C5157 1.495 . S
C5161 H5167 0.959 . S
C5161 H5168 0.961 . S
C5161 H5169 0.960 . S
C5162 C5160 1.381 . S
C5162 C5163 1.394 . S
C5162 H5170 0.930 . S
C5163 C5162 1.394 . S
C5163 C5164 1.383 . S
C5163 H5171 0.929 . S
C5164 C5163 1.383 . S
C5164 C5165 1.377 . S
C5165 H5149 0.930 . S
C5165 C5164 1.377 . S
C5165 C5166 1.379 . S
C5166 H5150 0.931 . S
C5166 C5160 1.383 . S
C5166 C5165 1.379 . S
H5167 C5161 0.959 . S
H5168 C5161 0.961 . S
H5169 C5161 0.960 . S
H5170 C5162 0.930 . S
H5171 C5163 0.929 . S
H5172 C5180 0.929 . S
H5173 C5182 0.930 . S
H5174 C5184 0.930 . S
H5175 C5187 0.929 . S
H5176 C5190 0.930 . S
H5177 C5192 0.960 . S
H5178 C5192 0.960 . S
H5179 C5192 0.960 . S
C5180 H5172 0.929 . S
C5180 C5181 1.377 . S
C5180 C5182 1.384 . S
C5181 C5180 1.377 . S
C5181 C5187 1.390 . S
C5182 H5173 0.930 . S
C5182 C5180 1.384 . S
C5182 C5183 1.372 . S
C5183 C5182 1.372 . S
C5183 C5184 1.400 . S
C5183 C5188 1.490 . S
C5184 H5174 0.930 . S
C5184 C5183 1.400 . S
C5184 C5187 1.386 . S
H5185 C5201 0.930 . S
H5186 C5202 0.931 . S
C5187 H5175 0.929 . S
C5187 C5181 1.390 . S
C5187 C5184 1.386 . S
C5188 C5183 1.490 . S
C5188 C5190 1.395 . S
C5188 C5191 1.403 . S
H5189 C5195 0.930 . S
C5190 H5176 0.930 . S
C5190 C5188 1.395 . S
C5190 C5193 1.403 . S
C5191 C5188 1.403 . S
C5191 C5192 1.524 . S
C5191 C5195 1.400 . S
C5192 H5177 0.960 . S
C5192 H5178 0.960 . S
C5192 H5179 0.960 . S
C5192 C5191 1.524 . S
C5193 C5190 1.403 . S
C5193 C5194 1.392 . S
C5193 C5197 1.495 . S
C5194 C5193 1.392 . S
C5194 C5195 1.385 . S
C5194 C5196 1.478 . S
C5195 H5189 0.930 . S
C5195 C5191 1.400 . S
C5195 C5194 1.385 . S
C5196 C5194 1.478 . S
C5196 C5198 1.381 . S
C5196 C5202 1.383 . S
C5197 C5193 1.495 . S
C5197 H5203 0.959 . S
C5197 H5204 0.961 . S
C5197 H5205 0.960 . S
C5198 C5196 1.381 . S
C5198 C5199 1.394 . S
C5198 H5206 0.930 . S
C5199 C5198 1.394 . S
C5199 C5200 1.383 . S
C5199 H5207 0.929 . S
C5200 C5199 1.383 . S
C5200 C5201 1.377 . S
C5201 H5185 0.930 . S
C5201 C5200 1.377 . S
C5201 C5202 1.379 . S
C5202 H5186 0.931 . S
C5202 C5196 1.383 . S
C5202 C5201 1.379 . S
H5203 C5197 0.959 . S
H5204 C5197 0.961 . S
H5205 C5197 0.960 . S
H5206 C5198 0.930 . S
H5207 C5199 0.929 . S
H5208 C5216 0.929 . S
H5209 C5218 0.930 . S
H5210 C5220 0.930 . S
H5211 C5223 0.929 . S
H5212 C5226 0.930 . S
H5213 C5228 0.960 . S
H5214 C5228 0.960 . S
H5215 C5228 0.960 . S
C5216 H5208 0.929 . S
C5216 C5217 1.377 . S
C5216 C5218 1.384 . S
C5217 C5216 1.377 . S
C5217 C5223 1.390 . S
C5218 H5209 0.930 . S
C5218 C5216 1.384 . S
C5218 C5219 1.372 . S
C5219 C5218 1.372 . S
C5219 C5220 1.400 . S
C5219 C5224 1.490 . S
C5220 H5210 0.930 . S
C5220 C5219 1.400 . S
C5220 C5223 1.386 . S
H5221 C5237 0.886 1_545 S
H5222 C5238 0.931 . S
C5223 H5211 0.929 . S
C5223 C5217 1.390 . S
C5223 C5220 1.386 . S
C5224 C5219 1.490 . S
C5224 C5226 1.395 . S
C5224 C5227 1.403 . S
H5225 C5231 0.930 . S
C5226 H5212 0.930 . S
C5226 C5224 1.395 . S
C5226 C5229 1.403 . S
C5227 C5224 1.403 . S
C5227 C5228 1.524 . S
C5227 C5231 1.400 . S
C5228 H5213 0.960 . S
C5228 H5214 0.960 . S
C5228 H5215 0.960 . S
C5228 C5227 1.524 . S
C5229 C5226 1.403 . S
C5229 C5230 1.392 . S
C5229 C5233 1.495 . S
C5230 C5229 1.392 . S
C5230 C5231 1.385 . S
C5230 C5232 1.478 . S
C5231 H5225 0.930 . S
C5231 C5227 1.400 . S
C5231 C5230 1.385 . S
C5232 C5230 1.478 . S
C5232 C5234 1.381 . S
C5232 C5238 1.383 . S
C5233 C5229 1.495 . S
C5233 H5239 0.959 . S
C5233 H5240 0.961 . S
C5233 H5241 0.960 . S
C5234 C5232 1.381 . S
C5234 C5235 1.394 . S
C5234 H5242 0.930 . S
C5235 C5234 1.394 . S
C5235 C5236 1.383 . S
C5235 H5243 0.929 . S
C5236 C5235 1.383 . S
C5236 C5237 1.377 . S
C5237 H5221 0.886 1_565 S
C5237 C5236 1.377 . S
C5237 C5238 1.379 . S
C5238 H5222 0.931 . S
C5238 C5232 1.383 . S
C5238 C5237 1.379 . S
H5239 C5233 0.959 . S
H5240 C5233 0.961 . S
H5241 C5233 0.960 . S
H5242 C5234 0.930 . S
H5243 C5235 0.929 . S
H5244 C5252 0.929 . S
H5245 C5254 0.930 . S
H5246 C5256 0.931 . S
H5247 C5259 0.929 . S
H5248 C5262 0.930 . S
H5249 C5264 0.960 . S
H5250 C5264 0.960 . S
H5251 C5264 0.960 . S
C5252 H5244 0.929 . S
C5252 C5253 1.377 . S
C5252 C5254 1.384 1_565 S
C5253 C5252 1.377 . S
C5253 C5259 1.390 . S
C5254 H5245 0.930 . S
C5254 C5252 1.384 1_545 S
C5254 C5255 1.372 . S
C5255 C5254 1.372 . S
C5255 C5256 1.400 1_545 S
C5255 C5260 1.490 . S
C5256 H5246 0.931 . S
C5256 C5255 1.400 1_565 S
C5256 C5259 1.386 . S
H5257 C5273 0.930 . S
H5258 C5274 0.931 . S
C5259 H5247 0.929 . S
C5259 C5253 1.390 . S
C5259 C5256 1.386 . S
C5260 C5255 1.490 . S
C5260 C5262 1.395 . S
C5260 C5263 1.403 . S
H5261 C5267 0.930 . S
C5262 H5248 0.930 . S
C5262 C5260 1.395 . S
C5262 C5265 1.403 . S
C5263 C5260 1.403 . S
C5263 C5264 1.524 . S
C5263 C5267 1.400 . S
C5264 H5249 0.960 . S
C5264 H5250 0.960 . S
C5264 H5251 0.960 . S
C5264 C5263 1.524 . S
C5265 C5262 1.403 . S
C5265 C5266 1.392 . S
C5265 C5269 1.495 . S
C5266 C5265 1.392 . S
C5266 C5267 1.385 . S
C5266 C5268 1.478 . S
C5267 H5261 0.930 . S
C5267 C5263 1.400 . S
C5267 C5266 1.385 . S
C5268 C5266 1.478 . S
C5268 C5270 1.381 . S
C5268 C5274 1.383 . S
C5269 C5265 1.495 . S
C5269 H5275 0.959 . S
C5269 H5276 0.961 . S
C5269 H5277 0.960 . S
C5270 C5268 1.381 . S
C5270 C5271 1.394 . S
C5270 H5278 0.930 . S
C5271 C5270 1.394 . S
C5271 C5272 1.383 . S
C5271 H5279 0.929 . S
C5272 C5271 1.383 . S
C5272 C5273 1.377 . S
C5273 H5257 0.930 . S
C5273 C5272 1.377 . S
C5273 C5274 1.379 . S
C5274 H5258 0.931 . S
C5274 C5268 1.383 . S
C5274 C5273 1.379 . S
H5275 C5269 0.959 . S
H5276 C5269 0.961 . S
H5277 C5269 0.960 . S
H5278 C5270 0.930 . S
H5279 C5271 0.929 . S
H5280 C5288 0.929 . S
H5281 C5290 0.930 . S
H5282 C5292 0.930 . S
H5283 C5295 0.929 . S
H5284 C5298 0.930 . S
H5285 C5300 0.960 . S
H5286 C5300 0.960 . S
H5287 C5300 0.960 . S
C5288 H5280 0.929 . S
C5288 C5289 1.377 . S
C5288 C5290 1.384 . S
C5289 C5288 1.377 . S
C5289 C5295 1.390 . S
C5290 H5281 0.930 . S
C5290 C5288 1.384 . S
C5290 C5291 1.372 . S
C5291 C5290 1.372 . S
C5291 C5292 1.400 . S
C5291 C5296 1.490 . S
C5292 H5282 0.930 . S
C5292 C5291 1.400 . S
C5292 C5295 1.386 . S
H5293 C5309 0.930 . S
H5294 C5310 0.931 . S
C5295 H5283 0.929 . S
C5295 C5289 1.390 . S
C5295 C5292 1.386 . S
C5296 C5291 1.490 . S
C5296 C5298 1.395 . S
C5296 C5299 1.403 . S
H5297 C5303 0.930 . S
C5298 H5284 0.930 . S
C5298 C5296 1.395 . S
C5298 C5301 1.403 . S
C5299 C5296 1.403 . S
C5299 C5300 1.524 . S
C5299 C5303 1.400 . S
C5300 H5285 0.960 . S
C5300 H5286 0.960 . S
C5300 H5287 0.960 . S
C5300 C5299 1.524 . S
C5301 C5298 1.403 . S
C5301 C5302 1.392 . S
C5301 C5305 1.495 . S
C5302 C5301 1.392 . S
C5302 C5303 1.385 . S
C5302 C5304 1.478 . S
C5303 H5297 0.930 . S
C5303 C5299 1.400 . S
C5303 C5302 1.385 . S
C5304 C5302 1.478 . S
C5304 C5306 1.381 . S
C5304 C5310 1.383 . S
C5305 C5301 1.495 . S
C5305 H5311 0.959 . S
C5305 H5312 0.961 . S
C5305 H5313 0.960 . S
C5306 C5304 1.381 . S
C5306 C5307 1.394 . S
C5306 H5314 0.930 . S
C5307 C5306 1.394 . S
C5307 C5308 1.383 . S
C5307 H5315 0.929 . S
C5308 C5307 1.383 . S
C5308 C5309 1.377 . S
C5309 H5293 0.930 . S
C5309 C5308 1.377 . S
C5309 C5310 1.379 . S
C5310 H5294 0.931 . S
C5310 C5304 1.383 . S
C5310 C5309 1.379 . S
H5311 C5305 0.959 . S
H5312 C5305 0.961 . S
H5313 C5305 0.960 . S
H5314 C5306 0.930 . S
H5315 C5307 0.929 . S
H5316 C5324 0.929 . S
H5317 C5326 0.930 . S
H5318 C5328 0.930 . S
H5319 C5331 0.929 . S
H5320 C5334 0.930 . S
H5321 C5336 0.960 . S
H5322 C5336 0.960 . S
H5323 C5336 0.960 . S
C5324 H5316 0.929 . S
C5324 C5325 1.377 . S
C5324 C5326 1.384 . S
C5325 C5324 1.377 . S
C5325 C5331 1.390 . S
C5326 H5317 0.930 . S
C5326 C5324 1.384 . S
C5326 C5327 1.372 . S
C5327 C5326 1.372 . S
C5327 C5328 1.400 . S
C5327 C5332 1.490 . S
C5328 H5318 0.930 . S
C5328 C5327 1.400 . S
C5328 C5331 1.386 . S
H5329 C5345 0.930 . S
H5330 C5346 0.931 . S
C5331 H5319 0.929 . S
C5331 C5325 1.390 . S
C5331 C5328 1.386 . S
C5332 C5327 1.490 . S
C5332 C5334 1.395 . S
C5332 C5335 1.403 . S
H5333 C5339 0.930 . S
C5334 H5320 0.930 . S
C5334 C5332 1.395 . S
C5334 C5337 1.403 . S
C5335 C5332 1.403 . S
C5335 C5336 1.524 . S
C5335 C5339 1.400 . S
C5336 H5321 0.960 . S
C5336 H5322 0.960 . S
C5336 H5323 0.960 . S
C5336 C5335 1.524 . S
C5337 C5334 1.403 . S
C5337 C5338 1.392 . S
C5337 C5341 1.495 . S
C5338 C5337 1.392 . S
C5338 C5339 1.385 . S
C5338 C5340 1.478 . S
C5339 H5333 0.930 . S
C5339 C5335 1.400 . S
C5339 C5338 1.385 . S
C5340 C5338 1.478 . S
C5340 C5342 1.381 . S
C5340 C5346 1.383 . S
C5341 C5337 1.495 . S
C5341 H5347 0.959 . S
C5341 H5348 0.961 . S
C5341 H5349 0.960 . S
C5342 C5340 1.381 . S
C5342 C5343 1.394 . S
C5342 H5350 0.930 . S
C5343 C5342 1.394 . S
C5343 C5344 1.383 . S
C5343 H5351 0.929 . S
C5344 C5343 1.383 . S
C5344 C5345 1.377 . S
C5345 H5329 0.930 . S
C5345 C5344 1.377 . S
C5345 C5346 1.379 . S
C5346 H5330 0.931 . S
C5346 C5340 1.383 . S
C5346 C5345 1.379 . S
H5347 C5341 0.959 . S
H5348 C5341 0.961 . S
H5349 C5341 0.960 . S
H5350 C5342 0.930 . S
H5351 C5343 0.929 . S
H5352 C5360 0.929 . S
H5353 C5362 0.930 . S
H5354 C5364 0.930 . S
H5355 C5367 0.929 . S
H5356 C5370 0.930 . S
H5357 C5372 0.960 . S
H5358 C5372 0.960 . S
H5359 C5372 0.960 . S
C5360 H5352 0.929 . S
C5360 C5361 1.377 . S
C5360 C5362 1.384 . S
C5361 C5360 1.377 . S
C5361 C5367 1.390 . S
C5362 H5353 0.930 . S
C5362 C5360 1.384 . S
C5362 C5363 1.372 . S
C5363 C5362 1.372 . S
C5363 C5364 1.400 . S
C5363 C5368 1.490 . S
C5364 H5354 0.930 . S
C5364 C5363 1.400 . S
C5364 C5367 1.386 . S
H5365 C5381 0.930 . S
H5366 C5382 0.931 . S
C5367 H5355 0.929 . S
C5367 C5361 1.390 . S
C5367 C5364 1.386 . S
C5368 C5363 1.490 . S
C5368 C5370 1.395 . S
C5368 C5371 1.403 . S
H5369 C5375 0.930 . S
C5370 H5356 0.930 . S
C5370 C5368 1.395 . S
C5370 C5373 1.403 . S
C5371 C5368 1.403 . S
C5371 C5372 1.524 . S
C5371 C5375 1.400 . S
C5372 H5357 0.960 . S
C5372 H5358 0.960 . S
C5372 H5359 0.960 . S
C5372 C5371 1.524 . S
C5373 C5370 1.403 . S
C5373 C5374 1.392 . S
C5373 C5377 1.495 . S
C5374 C5373 1.392 . S
C5374 C5375 1.385 . S
C5374 C5376 1.478 . S
C5375 H5369 0.930 . S
C5375 C5371 1.400 . S
C5375 C5374 1.385 . S
C5376 C5374 1.478 . S
C5376 C5378 1.381 . S
C5376 C5382 1.383 . S
C5377 C5373 1.495 . S
C5377 H5383 0.959 . S
C5377 H5384 0.961 . S
C5377 H5385 0.960 . S
C5378 C5376 1.381 . S
C5378 C5379 1.394 . S
C5378 H5386 0.930 . S
C5379 C5378 1.394 . S
C5379 C5380 1.383 . S
C5379 H5387 0.929 . S
C5380 C5379 1.383 . S
C5380 C5381 1.377 . S
C5381 H5365 0.930 . S
C5381 C5380 1.377 . S
C5381 C5382 1.379 . S
C5382 H5366 0.931 . S
C5382 C5376 1.383 . S
C5382 C5381 1.379 . S
H5383 C5377 0.959 . S
H5384 C5377 0.961 . S
H5385 C5377 0.960 . S
H5386 C5378 0.930 . S
H5387 C5379 0.929 . S
H5388 C5396 0.929 . S
H5389 C5398 0.930 . S
H5390 C5400 0.930 . S
H5391 C5403 0.929 . S
H5392 C5406 0.930 . S
H5393 C5408 0.960 . S
H5394 C5408 0.960 . S
H5395 C5408 0.960 . S
C5396 H5388 0.929 . S
C5396 C5397 1.377 . S
C5396 C5398 1.384 . S
C5397 C5396 1.377 . S
C5397 C5403 1.390 . S
C5398 H5389 0.930 . S
C5398 C5396 1.384 . S
C5398 C5399 1.372 . S
C5399 C5398 1.372 . S
C5399 C5400 1.400 . S
C5399 C5404 1.490 . S
C5400 H5390 0.930 . S
C5400 C5399 1.400 . S
C5400 C5403 1.386 . S
H5401 C5417 0.930 1_455 S
H5402 C5418 0.931 . S
C5403 H5391 0.929 . S
C5403 C5397 1.390 . S
C5403 C5400 1.386 . S
C5404 C5399 1.490 . S
C5404 C5406 1.395 . S
C5404 C5407 1.403 . S
H5405 C5411 0.930 . S
C5406 H5392 0.930 . S
C5406 C5404 1.395 . S
C5406 C5409 1.403 . S
C5407 C5404 1.403 . S
C5407 C5408 1.524 . S
C5407 C5411 1.400 . S
C5408 H5393 0.960 . S
C5408 H5394 0.960 . S
C5408 H5395 0.960 . S
C5408 C5407 1.524 . S
C5409 C5406 1.403 . S
C5409 C5410 1.392 . S
C5409 C5413 1.495 . S
C5410 C5409 1.392 . S
C5410 C5411 1.385 . S
C5410 C5412 1.478 . S
C5411 H5405 0.930 . S
C5411 C5407 1.400 . S
C5411 C5410 1.385 . S
C5412 C5410 1.478 . S
C5412 C5414 1.381 . S
C5412 C5418 1.383 . S
C5413 C5409 1.495 . S
C5413 H5419 0.959 . S
C5413 H5420 0.961 . S
C5413 H5421 0.960 . S
C5414 C5412 1.381 . S
C5414 C5415 1.394 . S
C5414 H5422 0.930 . S
C5415 C5414 1.394 . S
C5415 C5416 1.383 . S
C5415 H5423 0.929 . S
C5416 C5415 1.383 . S
C5416 C5417 1.377 . S
C5417 H5401 0.930 1_655 S
C5417 C5416 1.377 . S
C5417 C5418 1.379 . S
C5418 H5402 0.931 . S
C5418 C5412 1.383 . S
C5418 C5417 1.379 . S
H5419 C5413 0.959 . S
H5420 C5413 0.961 . S
H5421 C5413 0.960 . S
H5422 C5414 0.930 . S
H5423 C5415 0.929 . S
H5424 C5432 0.929 . S
H5425 C5434 0.930 . S
H5426 C5436 0.930 . S
H5427 C5439 0.929 . S
H5428 C5442 0.930 . S
H5429 C5444 0.960 . S
H5430 C5444 0.960 . S
H5431 C5444 0.960 . S
C5432 H5424 0.929 . S
C5432 C5433 1.377 . S
C5432 C5434 1.384 . S
C5433 C5432 1.377 . S
C5433 C5439 1.390 . S
C5434 H5425 0.930 . S
C5434 C5432 1.384 . S
C5434 C5435 1.372 . S
C5435 C5434 1.372 . S
C5435 C5436 1.400 . S
C5435 C5440 1.490 . S
C5436 H5426 0.930 . S
C5436 C5435 1.400 . S
C5436 C5439 1.386 . S
H5437 C5453 0.930 . S
H5438 C5454 0.931 . S
C5439 H5427 0.929 . S
C5439 C5433 1.390 . S
C5439 C5436 1.386 . S
C5440 C5435 1.490 . S
C5440 C5442 1.395 . S
C5440 C5443 1.403 . S
H5441 C5447 0.930 . S
C5442 H5428 0.930 . S
C5442 C5440 1.395 . S
C5442 C5445 1.403 . S
C5443 C5440 1.403 . S
C5443 C5444 1.524 . S
C5443 C5447 1.400 . S
C5444 H5429 0.960 . S
C5444 H5430 0.960 . S
C5444 H5431 0.960 . S
C5444 C5443 1.524 . S
C5445 C5442 1.403 . S
C5445 C5446 1.392 . S
C5445 C5449 1.495 . S
C5446 C5445 1.392 . S
C5446 C5447 1.385 . S
C5446 C5448 1.478 . S
C5447 H5441 0.930 . S
C5447 C5443 1.400 . S
C5447 C5446 1.385 . S
C5448 C5446 1.478 . S
C5448 C5450 1.381 . S
C5448 C5454 1.383 . S
C5449 C5445 1.495 . S
C5449 H5455 0.959 . S
C5449 H5456 0.961 . S
C5449 H5457 0.960 . S
C5450 C5448 1.381 . S
C5450 C5451 1.394 . S
C5450 H5458 0.930 . S
C5451 C5450 1.394 . S
C5451 C5452 1.383 . S
C5451 H5459 0.929 . S
C5452 C5451 1.383 . S
C5452 C5453 1.377 . S
C5453 H5437 0.930 . S
C5453 C5452 1.377 . S
C5453 C5454 1.379 . S
C5454 H5438 0.931 . S
C5454 C5448 1.383 . S
C5454 C5453 1.379 . S
H5455 C5449 0.959 . S
H5456 C5449 0.961 . S
H5457 C5449 0.960 . S
H5458 C5450 0.930 . S
H5459 C5451 0.929 . S
H5460 C5468 0.929 1_455 S
H5461 C5470 0.953 . S
H5462 C5472 0.930 . S
H5463 C5475 0.929 . S
H5464 C5478 0.930 . S
H5465 C5480 0.960 . S
H5466 C5480 0.960 . S
H5467 C5480 0.960 . S
C5468 H5460 0.929 1_655 S
C5468 C5469 1.377 . S
C5468 C5470 1.384 . S
C5469 C5468 1.377 . S
C5469 C5475 1.390 . S
C5470 H5461 0.953 . S
C5470 C5468 1.384 . S
C5470 C5471 1.372 . S
C5471 C5470 1.372 . S
C5471 C5472 1.400 . S
C5471 C5476 1.490 . S
C5472 H5462 0.930 . S
C5472 C5471 1.400 . S
C5472 C5475 1.386 . S
H5473 C5489 0.930 . S
H5474 C5490 0.931 . S
C5475 H5463 0.929 . S
C5475 C5469 1.390 . S
C5475 C5472 1.386 . S
C5476 C5471 1.490 . S
C5476 C5478 1.395 . S
C5476 C5479 1.403 . S
H5477 C5483 0.930 . S
C5478 H5464 0.930 . S
C5478 C5476 1.395 . S
C5478 C5481 1.403 . S
C5479 C5476 1.403 . S
C5479 C5480 1.524 . S
C5479 C5483 1.400 . S
C5480 H5465 0.960 . S
C5480 H5466 0.960 . S
C5480 H5467 0.960 . S
C5480 C5479 1.524 . S
C5481 C5478 1.403 . S
C5481 C5482 1.392 . S
C5481 C5485 1.495 . S
C5482 C5481 1.392 . S
C5482 C5483 1.385 . S
C5482 C5484 1.478 . S
C5483 H5477 0.930 . S
C5483 C5479 1.400 . S
C5483 C5482 1.385 . S
C5484 C5482 1.478 . S
C5484 C5486 1.381 . S
C5484 C5490 1.383 . S
C5485 C5481 1.495 . S
C5485 H5491 0.959 . S
C5485 H5492 0.961 . S
C5485 H5493 0.960 . S
C5486 C5484 1.381 . S
C5486 C5487 1.394 . S
C5486 H5494 0.930 . S
C5487 C5486 1.394 . S
C5487 C5488 1.383 . S
C5487 H5495 0.929 . S
C5488 C5487 1.383 . S
C5488 C5489 1.377 . S
C5489 H5473 0.930 . S
C5489 C5488 1.377 . S
C5489 C5490 1.379 . S
C5490 H5474 0.931 . S
C5490 C5484 1.383 . S
C5490 C5489 1.379 . S
H5491 C5485 0.959 . S
H5492 C5485 0.961 . S
H5493 C5485 0.960 . S
H5494 C5486 0.930 . S
H5495 C5487 0.929 . S
H5496 C5504 0.929 . S
H5497 C5506 0.930 . S
H5498 C5508 0.930 . S
H5499 C5511 0.929 . S
H5500 C5514 0.930 . S
H5501 C5516 0.960 . S
H5502 C5516 0.960 . S
H5503 C5516 0.960 . S
C5504 H5496 0.929 . S
C5504 C5505 1.377 . S
C5504 C5506 1.384 . S
C5505 C5504 1.377 . S
C5505 C5511 1.390 . S
C5506 H5497 0.930 . S
C5506 C5504 1.384 . S
C5506 C5507 1.372 . S
C5507 C5506 1.372 . S
C5507 C5508 1.400 . S
C5507 C5512 1.490 . S
C5508 H5498 0.930 . S
C5508 C5507 1.400 . S
C5508 C5511 1.386 . S
H5509 C5525 0.930 . S
H5510 C5526 0.931 . S
C5511 H5499 0.929 . S
C5511 C5505 1.390 . S
C5511 C5508 1.386 . S
C5512 C5507 1.490 . S
C5512 C5514 1.395 . S
C5512 C5515 1.403 . S
H5513 C5519 0.930 . S
C5514 H5500 0.930 . S
C5514 C5512 1.395 . S
C5514 C5517 1.403 . S
C5515 C5512 1.403 . S
C5515 C5516 1.524 . S
C5515 C5519 1.400 . S
C5516 H5501 0.960 . S
C5516 H5502 0.960 . S
C5516 H5503 0.960 . S
C5516 C5515 1.524 . S
C5517 C5514 1.403 . S
C5517 C5518 1.392 . S
C5517 C5521 1.495 . S
C5518 C5517 1.392 . S
C5518 C5519 1.385 . S
C5518 C5520 1.478 . S
C5519 H5513 0.930 . S
C5519 C5515 1.400 . S
C5519 C5518 1.385 . S
C5520 C5518 1.478 . S
C5520 C5522 1.381 . S
C5520 C5526 1.383 . S
C5521 C5517 1.495 . S
C5521 H5527 0.959 . S
C5521 H5528 0.961 . S
C5521 H5529 0.960 . S
C5522 C5520 1.381 . S
C5522 C5523 1.394 . S
C5522 H5530 0.930 . S
C5523 C5522 1.394 . S
C5523 C5524 1.383 . S
C5523 H5531 0.929 . S
C5524 C5523 1.383 . S
C5524 C5525 1.377 . S
C5525 H5509 0.930 . S
C5525 C5524 1.377 . S
C5525 C5526 1.379 . S
C5526 H5510 0.931 . S
C5526 C5520 1.383 . S
C5526 C5525 1.379 . S
H5527 C5521 0.959 . S
H5528 C5521 0.961 . S
H5529 C5521 0.960 . S
H5530 C5522 0.930 . S
H5531 C5523 0.929 . S
H5532 C5540 0.929 . S
H5533 C5542 0.930 . S
H5534 C5544 0.930 . S
H5535 C5547 0.929 . S
H5536 C5550 0.930 . S
H5537 C5552 0.960 . S
H5538 C5552 0.960 . S
H5539 C5552 0.960 . S
C5540 H5532 0.929 . S
C5540 C5541 1.377 . S
C5540 C5542 1.384 . S
C5541 C5540 1.377 . S
C5541 C5547 1.390 . S
C5542 H5533 0.930 . S
C5542 C5540 1.384 . S
C5542 C5543 1.372 . S
C5543 C5542 1.372 . S
C5543 C5544 1.400 . S
C5543 C5548 1.490 . S
C5544 H5534 0.930 . S
C5544 C5543 1.400 . S
C5544 C5547 1.386 . S
H5545 C5561 0.930 . S
H5546 C5562 0.931 . S
C5547 H5535 0.929 . S
C5547 C5541 1.390 . S
C5547 C5544 1.386 . S
C5548 C5543 1.490 . S
C5548 C5550 1.395 . S
C5548 C5551 1.403 . S
H5549 C5555 0.930 . S
C5550 H5536 0.930 . S
C5550 C5548 1.395 . S
C5550 C5553 1.403 . S
C5551 C5548 1.403 . S
C5551 C5552 1.524 . S
C5551 C5555 1.400 . S
C5552 H5537 0.960 . S
C5552 H5538 0.960 . S
C5552 H5539 0.960 . S
C5552 C5551 1.524 . S
C5553 C5550 1.403 . S
C5553 C5554 1.392 . S
C5553 C5557 1.495 . S
C5554 C5553 1.392 . S
C5554 C5555 1.385 . S
C5554 C5556 1.478 . S
C5555 H5549 0.930 . S
C5555 C5551 1.400 . S
C5555 C5554 1.385 . S
C5556 C5554 1.478 . S
C5556 C5558 1.381 . S
C5556 C5562 1.383 . S
C5557 C5553 1.495 . S
C5557 H5563 0.959 . S
C5557 H5564 0.961 . S
C5557 H5565 0.960 . S
C5558 C5556 1.381 . S
C5558 C5559 1.394 . S
C5558 H5566 0.930 . S
C5559 C5558 1.394 . S
C5559 C5560 1.383 . S
C5559 H5567 0.929 . S
C5560 C5559 1.383 . S
C5560 C5561 1.377 . S
C5561 H5545 0.930 . S
C5561 C5560 1.377 . S
C5561 C5562 1.379 . S
C5562 H5546 0.931 . S
C5562 C5556 1.383 . S
C5562 C5561 1.379 . S
H5563 C5557 0.959 . S
H5564 C5557 0.961 . S
H5565 C5557 0.960 . S
H5566 C5558 0.930 . S
H5567 C5559 0.929 . S
H5568 C5576 0.929 . S
H5569 C5578 0.930 . S
H5570 C5580 0.930 . S
H5571 C5583 0.929 . S
H5572 C5586 0.930 . S
H5573 C5588 0.960 . S
H5574 C5588 0.960 . S
H5575 C5588 0.960 . S
C5576 H5568 0.929 . S
C5576 C5577 1.377 . S
C5576 C5578 1.384 . S
C5577 C5576 1.377 . S
C5577 C5583 1.390 . S
C5578 H5569 0.930 . S
C5578 C5576 1.384 . S
C5578 C5579 1.372 . S
C5579 C5578 1.372 . S
C5579 C5580 1.400 . S
C5579 C5584 1.490 . S
C5580 H5570 0.930 . S
C5580 C5579 1.400 . S
C5580 C5583 1.386 . S
H5581 C5597 0.930 . S
H5582 C5598 0.931 . S
C5583 H5571 0.929 . S
C5583 C5577 1.390 . S
C5583 C5580 1.386 . S
C5584 C5579 1.490 . S
C5584 C5586 1.395 . S
C5584 C5587 1.403 . S
H5585 C5591 0.930 . S
C5586 H5572 0.930 . S
C5586 C5584 1.395 . S
C5586 C5589 1.403 . S
C5587 C5584 1.403 . S
C5587 C5588 1.524 . S
C5587 C5591 1.400 . S
C5588 H5573 0.960 . S
C5588 H5574 0.960 . S
C5588 H5575 0.960 . S
C5588 C5587 1.524 . S
C5589 C5586 1.403 . S
C5589 C5590 1.392 . S
C5589 C5593 1.495 . S
C5590 C5589 1.392 . S
C5590 C5591 1.385 . S
C5590 C5592 1.478 . S
C5591 H5585 0.930 . S
C5591 C5587 1.400 . S
C5591 C5590 1.385 . S
C5592 C5590 1.478 . S
C5592 C5594 1.381 . S
C5592 C5598 1.383 . S
C5593 C5589 1.495 . S
C5593 H5599 0.959 . S
C5593 H5600 0.961 . S
C5593 H5601 0.960 . S
C5594 C5592 1.381 . S
C5594 C5595 1.394 . S
C5594 H5602 0.930 . S
C5595 C5594 1.394 . S
C5595 C5596 1.383 . S
C5595 H5603 0.929 . S
C5596 C5595 1.383 . S
C5596 C5597 1.377 . S
C5597 H5581 0.930 . S
C5597 C5596 1.377 . S
C5597 C5598 1.379 . S
C5598 H5582 0.931 . S
C5598 C5592 1.383 . S
C5598 C5597 1.379 . S
H5599 C5593 0.959 . S
H5600 C5593 0.961 . S
H5601 C5593 0.960 . S
H5602 C5594 0.930 . S
H5603 C5595 0.929 . S
H5604 C5612 0.929 . S
H5605 C5614 0.930 . S
H5606 C5616 0.930 . S
H5607 C5619 0.929 . S
H5608 C5622 0.930 . S
H5609 C5624 0.960 . S
H5610 C5624 0.960 . S
H5611 C5624 0.960 . S
C5612 H5604 0.929 . S
C5612 C5613 1.377 . S
C5612 C5614 1.384 . S
C5613 C5612 1.377 . S
C5613 C5619 1.390 . S
C5614 H5605 0.930 . S
C5614 C5612 1.384 . S
C5614 C5615 1.372 . S
C5615 C5614 1.372 . S
C5615 C5616 1.400 . S
C5615 C5620 1.490 . S
C5616 H5606 0.930 . S
C5616 C5615 1.400 . S
C5616 C5619 1.386 . S
H5617 C5633 0.930 . S
H5618 C5634 0.912 1_554 S
C5619 H5607 0.929 . S
C5619 C5613 1.390 . S
C5619 C5616 1.386 . S
C5620 C5615 1.490 . S
C5620 C5622 1.395 . S
C5620 C5623 1.403 . S
H5621 C5627 0.930 . S
C5622 H5608 0.930 . S
C5622 C5620 1.395 . S
C5622 C5625 1.403 . S
C5623 C5620 1.403 . S
C5623 C5624 1.524 . S
C5623 C5627 1.400 . S
C5624 H5609 0.960 . S
C5624 H5610 0.960 . S
C5624 H5611 0.960 . S
C5624 C5623 1.524 . S
C5625 C5622 1.403 . S
C5625 C5626 1.392 . S
C5625 C5629 1.495 . S
C5626 C5625 1.392 . S
C5626 C5627 1.385 . S
C5626 C5628 1.478 . S
C5627 H5621 0.930 . S
C5627 C5623 1.400 . S
C5627 C5626 1.385 . S
C5628 C5626 1.478 . S
C5628 C5630 1.381 . S
C5628 C5634 1.383 . S
C5629 C5625 1.495 . S
C5629 H5635 0.959 . S
C5629 H5636 0.961 . S
C5629 H5637 0.960 . S
C5630 C5628 1.381 . S
C5630 C5631 1.394 . S
C5630 H5638 0.930 . S
C5631 C5630 1.394 . S
C5631 C5632 1.418 . S
C5631 H5639 0.929 . S
C5632 C5631 1.418 . S
C5632 C5633 1.363 1_556 S
C5633 H5617 0.930 . S
C5633 C5632 1.363 1_554 S
C5633 C5634 1.379 1_554 S
C5634 H5618 0.912 1_556 S
C5634 C5628 1.383 . S
C5634 C5633 1.379 1_556 S
H5635 C5629 0.959 . S
H5636 C5629 0.961 . S
H5637 C5629 0.960 . S
H5638 C5630 0.930 . S
H5639 C5631 0.929 . S
H5640 C5648 0.929 . S
H5641 C5650 0.930 . S
H5642 C5652 0.930 . S
H5643 C5655 0.929 . S
H5644 C5658 0.930 . S
H5645 C5660 0.960 . S
H5646 C5660 0.960 . S
H5647 C5660 0.960 . S
C5648 H5640 0.929 . S
C5648 C5649 1.377 . S
C5648 C5650 1.384 . S
C5649 C5648 1.377 . S
C5649 C5655 1.390 . S
C5650 H5641 0.930 . S
C5650 C5648 1.384 . S
C5650 C5651 1.372 . S
C5651 C5650 1.372 . S
C5651 C5652 1.400 . S
C5651 C5656 1.490 . S
C5652 H5642 0.930 . S
C5652 C5651 1.400 . S
C5652 C5655 1.386 . S
H5653 C5669 0.930 . S
H5654 C5670 0.931 . S
C5655 H5643 0.929 . S
C5655 C5649 1.390 . S
C5655 C5652 1.386 . S
C5656 C5651 1.490 . S
C5656 C5658 1.395 . S
C5656 C5659 1.403 . S
H5657 C5663 0.930 . S
C5658 H5644 0.930 . S
C5658 C5656 1.395 . S
C5658 C5661 1.403 . S
C5659 C5656 1.403 . S
C5659 C5660 1.524 . S
C5659 C5663 1.400 . S
C5660 H5645 0.960 . S
C5660 H5646 0.960 . S
C5660 H5647 0.960 . S
C5660 C5659 1.524 . S
C5661 C5658 1.403 . S
C5661 C5662 1.392 . S
C5661 C5665 1.495 . S
C5662 C5661 1.392 . S
C5662 C5663 1.385 . S
C5662 C5664 1.478 . S
C5663 H5657 0.930 . S
C5663 C5659 1.400 . S
C5663 C5662 1.385 . S
C5664 C5662 1.478 . S
C5664 C5666 1.381 . S
C5664 C5670 1.383 . S
C5665 C5661 1.495 . S
C5665 H5671 0.959 . S
C5665 H5672 0.961 . S
C5665 H5673 0.960 . S
C5666 C5664 1.381 . S
C5666 C5667 1.394 . S
C5666 H5674 0.930 . S
C5667 C5666 1.394 . S
C5667 C5668 1.383 . S
C5667 H5675 0.929 . S
C5668 C5667 1.383 . S
C5668 C5669 1.377 . S
C5669 H5653 0.930 . S
C5669 C5668 1.377 . S
C5669 C5670 1.379 . S
C5670 H5654 0.931 . S
C5670 C5664 1.383 . S
C5670 C5669 1.379 . S
H5671 C5665 0.959 . S
H5672 C5665 0.961 . S
H5673 C5665 0.960 . S
H5674 C5666 0.930 . S
H5675 C5667 0.929 . S
H5676 C5684 0.929 . S
H5677 C5686 0.930 . S
H5678 C5688 0.930 . S
H5679 C5691 0.929 . S
H5680 C5694 0.930 . S
H5681 C5696 0.960 . S
H5682 C5696 0.960 . S
H5683 C5696 0.960 . S
C5684 H5676 0.929 . S
C5684 C5685 1.377 . S
C5684 C5686 1.384 . S
C5685 C5684 1.377 . S
C5685 C5691 1.390 . S
C5686 H5677 0.930 . S
C5686 C5684 1.384 . S
C5686 C5687 1.372 . S
C5687 C5686 1.372 . S
C5687 C5688 1.400 . S
C5687 C5692 1.490 . S
C5688 H5678 0.930 . S
C5688 C5687 1.400 . S
C5688 C5691 1.386 . S
H5689 C5705 0.930 . S
H5690 C5706 0.931 . S
C5691 H5679 0.929 . S
C5691 C5685 1.390 . S
C5691 C5688 1.386 . S
C5692 C5687 1.490 . S
C5692 C5694 1.395 . S
C5692 C5695 1.403 . S
H5693 C5699 0.930 . S
C5694 H5680 0.930 . S
C5694 C5692 1.395 . S
C5694 C5697 1.403 . S
C5695 C5692 1.403 . S
C5695 C5696 1.524 . S
C5695 C5699 1.400 . S
C5696 H5681 0.960 . S
C5696 H5682 0.960 . S
C5696 H5683 0.960 . S
C5696 C5695 1.524 . S
C5697 C5694 1.403 . S
C5697 C5698 1.392 . S
C5697 C5701 1.495 . S
C5698 C5697 1.392 . S
C5698 C5699 1.385 . S
C5698 C5700 1.478 . S
C5699 H5693 0.930 . S
C5699 C5695 1.400 . S
C5699 C5698 1.385 . S
C5700 C5698 1.478 . S
C5700 C5702 1.381 . S
C5700 C5706 1.383 . S
C5701 C5697 1.495 . S
C5701 H5707 0.959 . S
C5701 H5708 0.961 . S
C5701 H5709 0.960 . S
C5702 C5700 1.381 . S
C5702 C5703 1.394 . S
C5702 H5710 0.930 . S
C5703 C5702 1.394 . S
C5703 C5704 1.383 . S
C5703 H5711 0.929 . S
C5704 C5703 1.383 . S
C5704 C5705 1.377 . S
C5705 H5689 0.930 . S
C5705 C5704 1.377 . S
C5705 C5706 1.379 . S
C5706 H5690 0.931 . S
C5706 C5700 1.383 . S
C5706 C5705 1.379 . S
H5707 C5701 0.959 . S
H5708 C5701 0.961 . S
H5709 C5701 0.960 . S
H5710 C5702 0.930 . S
H5711 C5703 0.929 . S
H5712 C5720 0.929 . S
H5713 C5722 0.930 . S
H5714 C5724 0.930 . S
H5715 C5727 0.929 . S
H5716 C5730 0.930 . S
H5717 C5732 0.960 . S
H5718 C5732 0.960 . S
H5719 C5732 0.960 . S
C5720 H5712 0.929 . S
C5720 C5721 1.377 . S
C5720 C5722 1.384 . S
C5721 C5720 1.377 . S
C5721 C5727 1.390 . S
C5722 H5713 0.930 . S
C5722 C5720 1.384 . S
C5722 C5723 1.372 . S
C5723 C5722 1.372 . S
C5723 C5724 1.400 . S
C5723 C5728 1.490 . S
C5724 H5714 0.930 . S
C5724 C5723 1.400 . S
C5724 C5727 1.386 . S
H5725 C5741 0.930 . S
H5726 C5742 0.931 . S
C5727 H5715 0.929 . S
C5727 C5721 1.390 . S
C5727 C5724 1.386 . S
C5728 C5723 1.490 . S
C5728 C5730 1.395 . S
C5728 C5731 1.403 . S
H5729 C5735 0.930 . S
C5730 H5716 0.930 . S
C5730 C5728 1.395 . S
C5730 C5733 1.403 . S
C5731 C5728 1.403 . S
C5731 C5732 1.524 . S
C5731 C5735 1.400 . S
C5732 H5717 0.960 . S
C5732 H5718 0.960 . S
C5732 H5719 0.960 . S
C5732 C5731 1.524 . S
C5733 C5730 1.403 . S
C5733 C5734 1.392 . S
C5733 C5737 1.495 . S
C5734 C5733 1.392 . S
C5734 C5735 1.385 . S
C5734 C5736 1.478 . S
C5735 H5729 0.930 . S
C5735 C5731 1.400 . S
C5735 C5734 1.385 . S
C5736 C5734 1.478 . S
C5736 C5738 1.381 . S
C5736 C5742 1.383 . S
C5737 C5733 1.495 . S
C5737 H5743 0.959 . S
C5737 H5744 0.961 . S
C5737 H5745 0.960 . S
C5738 C5736 1.381 . S
C5738 C5739 1.394 . S
C5738 H5746 0.930 . S
C5739 C5738 1.394 . S
C5739 C5740 1.383 . S
C5739 H5747 0.929 . S
C5740 C5739 1.383 . S
C5740 C5741 1.377 . S
C5741 H5725 0.930 . S
C5741 C5740 1.377 . S
C5741 C5742 1.379 . S
C5742 H5726 0.931 . S
C5742 C5736 1.383 . S
C5742 C5741 1.379 . S
H5743 C5737 0.959 . S
H5744 C5737 0.961 . S
H5745 C5737 0.960 . S
H5746 C5738 0.930 . S
H5747 C5739 0.929 . S
H5748 C5756 0.929 . S
H5749 C5758 0.930 . S
H5750 C5760 0.930 . S
H5751 C5763 0.929 . S
H5752 C5766 0.930 . S
H5753 C5768 0.960 . S
H5754 C5768 0.960 . S
H5755 C5768 0.960 . S
C5756 H5748 0.929 . S
C5756 C5757 1.377 . S
C5756 C5758 1.384 . S
C5757 C5756 1.377 . S
C5757 C5763 1.390 . S
C5758 H5749 0.930 . S
C5758 C5756 1.384 . S
C5758 C5759 1.372 . S
C5759 C5758 1.372 . S
C5759 C5760 1.400 . S
C5759 C5764 1.490 . S
C5760 H5750 0.930 . S
C5760 C5759 1.400 . S
C5760 C5763 1.386 . S
H5761 C5777 0.930 . S
H5762 C5778 0.931 . S
C5763 H5751 0.929 . S
C5763 C5757 1.390 . S
C5763 C5760 1.386 . S
C5764 C5759 1.490 . S
C5764 C5766 1.395 . S
C5764 C5767 1.403 . S
H5765 C5771 0.930 . S
C5766 H5752 0.930 . S
C5766 C5764 1.395 . S
C5766 C5769 1.403 . S
C5767 C5764 1.403 . S
C5767 C5768 1.524 . S
C5767 C5771 1.400 . S
C5768 H5753 0.960 . S
C5768 H5754 0.960 . S
C5768 H5755 0.960 . S
C5768 C5767 1.524 . S
C5769 C5766 1.403 . S
C5769 C5770 1.392 . S
C5769 C5773 1.495 . S
C5770 C5769 1.392 . S
C5770 C5771 1.385 . S
C5770 C5772 1.478 . S
C5771 H5765 0.930 . S
C5771 C5767 1.400 . S
C5771 C5770 1.385 . S
C5772 C5770 1.478 . S
C5772 C5774 1.381 . S
C5772 C5778 1.383 . S
C5773 C5769 1.495 . S
C5773 H5779 0.959 . S
C5773 H5780 0.961 . S
C5773 H5781 0.960 . S
C5774 C5772 1.381 . S
C5774 C5775 1.394 . S
C5774 H5782 0.930 . S
C5775 C5774 1.394 . S
C5775 C5776 1.383 . S
C5775 H5783 0.929 . S
C5776 C5775 1.383 . S
C5776 C5777 1.377 . S
C5777 H5761 0.930 . S
C5777 C5776 1.377 . S
C5777 C5778 1.379 . S
C5778 H5762 0.931 . S
C5778 C5772 1.383 . S
C5778 C5777 1.379 . S
H5779 C5773 0.959 . S
H5780 C5773 0.961 . S
H5781 C5773 0.960 . S
H5782 C5774 0.930 . S
H5783 C5775 0.929 . S
H5784 C5792 0.929 . S
H5785 C5794 0.930 . S
H5786 C5796 0.930 . S
H5787 C5799 0.929 . S
H5788 C5802 0.930 . S
H5789 C5804 0.960 . S
H5790 C5804 0.960 . S
H5791 C5804 0.960 . S
C5792 H5784 0.929 . S
C5792 C5793 1.377 . S
C5792 C5794 1.384 . S
C5793 C5792 1.377 . S
C5793 C5799 1.390 . S
C5794 H5785 0.930 . S
C5794 C5792 1.384 . S
C5794 C5795 1.372 . S
C5795 C5794 1.372 . S
C5795 C5796 1.400 . S
C5795 C5800 1.490 . S
C5796 H5786 0.930 . S
C5796 C5795 1.400 . S
C5796 C5799 1.386 . S
H5797 C5813 0.930 . S
H5798 C5814 0.931 . S
C5799 H5787 0.929 . S
C5799 C5793 1.390 . S
C5799 C5796 1.386 . S
C5800 C5795 1.490 . S
C5800 C5802 1.395 . S
C5800 C5803 1.403 . S
H5801 C5807 0.930 . S
C5802 H5788 0.930 . S
C5802 C5800 1.395 . S
C5802 C5805 1.403 . S
C5803 C5800 1.403 . S
C5803 C5804 1.524 . S
C5803 C5807 1.400 . S
C5804 H5789 0.960 . S
C5804 H5790 0.960 . S
C5804 H5791 0.960 . S
C5804 C5803 1.524 . S
C5805 C5802 1.403 . S
C5805 C5806 1.392 . S
C5805 C5809 1.495 . S
C5806 C5805 1.392 . S
C5806 C5807 1.385 . S
C5806 C5808 1.478 . S
C5807 H5801 0.930 . S
C5807 C5803 1.400 . S
C5807 C5806 1.385 . S
C5808 C5806 1.478 . S
C5808 C5810 1.381 . S
C5808 C5814 1.383 . S
C5809 C5805 1.495 . S
C5809 H5815 0.959 . S
C5809 H5816 0.961 . S
C5809 H5817 0.960 . S
C5810 C5808 1.381 . S
C5810 C5811 1.394 . S
C5810 H5818 0.930 . S
C5811 C5810 1.394 . S
C5811 C5812 1.383 . S
C5811 H5819 0.929 . S
C5812 C5811 1.383 . S
C5812 C5813 1.377 . S
C5813 H5797 0.930 . S
C5813 C5812 1.377 . S
C5813 C5814 1.379 . S
C5814 H5798 0.931 . S
C5814 C5808 1.383 . S
C5814 C5813 1.379 . S
H5815 C5809 0.959 . S
H5816 C5809 0.961 . S
H5817 C5809 0.960 . S
H5818 C5810 0.930 . S
H5819 C5811 0.929 . S
H5820 C5828 0.929 . S
H5821 C5830 0.930 . S
H5822 C5832 0.930 . S
H5823 C5835 0.929 . S
H5824 C5838 0.930 . S
H5825 C5840 0.960 . S
H5826 C5840 0.960 . S
H5827 C5840 0.960 . S
C5828 H5820 0.929 . S
C5828 C5829 1.377 . S
C5828 C5830 1.384 . S
C5829 C5828 1.377 . S
C5829 C5835 1.390 . S
C5830 H5821 0.930 . S
C5830 C5828 1.384 . S
C5830 C5831 1.372 . S
C5831 C5830 1.372 . S
C5831 C5832 1.400 . S
C5831 C5836 1.490 . S
C5832 H5822 0.930 . S
C5832 C5831 1.400 . S
C5832 C5835 1.386 . S
H5833 C5849 0.930 . S
H5834 C5850 0.931 . S
C5835 H5823 0.929 . S
C5835 C5829 1.390 . S
C5835 C5832 1.386 . S
C5836 C5831 1.490 . S
C5836 C5838 1.395 . S
C5836 C5839 1.403 . S
H5837 C5843 0.930 . S
C5838 H5824 0.930 . S
C5838 C5836 1.395 . S
C5838 C5841 1.403 . S
C5839 C5836 1.403 . S
C5839 C5840 1.524 . S
C5839 C5843 1.400 . S
C5840 H5825 0.960 . S
C5840 H5826 0.960 . S
C5840 H5827 0.960 . S
C5840 C5839 1.524 . S
C5841 C5838 1.403 . S
C5841 C5842 1.392 . S
C5841 C5845 1.495 . S
C5842 C5841 1.392 . S
C5842 C5843 1.385 . S
C5842 C5844 1.478 . S
C5843 H5837 0.930 . S
C5843 C5839 1.400 . S
C5843 C5842 1.385 . S
C5844 C5842 1.478 . S
C5844 C5846 1.381 . S
C5844 C5850 1.383 . S
C5845 C5841 1.495 . S
C5845 H5851 0.959 . S
C5845 H5852 0.961 . S
C5845 H5853 0.960 . S
C5846 C5844 1.381 . S
C5846 C5847 1.394 . S
C5846 H5854 0.930 . S
C5847 C5846 1.394 . S
C5847 C5848 1.383 . S
C5847 H5855 0.929 . S
C5848 C5847 1.383 . S
C5848 C5849 1.377 . S
C5849 H5833 0.930 . S
C5849 C5848 1.377 . S
C5849 C5850 1.379 . S
C5850 H5834 0.931 . S
C5850 C5844 1.383 . S
C5850 C5849 1.379 . S
H5851 C5845 0.959 . S
H5852 C5845 0.961 . S
H5853 C5845 0.960 . S
H5854 C5846 0.930 . S
H5855 C5847 0.929 . S
H5856 C5864 0.929 . S
H5857 C5866 0.930 . S
H5858 C5868 0.930 . S
H5859 C5871 0.929 . S
H5860 C5874 0.930 . S
H5861 C5876 0.960 . S
H5862 C5876 0.960 . S
H5863 C5876 0.960 . S
C5864 H5856 0.929 . S
C5864 C5865 1.377 . S
C5864 C5866 1.384 . S
C5865 C5864 1.377 . S
C5865 C5871 1.390 . S
C5866 H5857 0.930 . S
C5866 C5864 1.384 . S
C5866 C5867 1.372 . S
C5867 C5866 1.372 . S
C5867 C5868 1.400 . S
C5867 C5872 1.490 . S
C5868 H5858 0.930 . S
C5868 C5867 1.400 . S
C5868 C5871 1.386 . S
H5869 C5885 0.930 . S
H5870 C5886 0.931 . S
C5871 H5859 0.929 . S
C5871 C5865 1.390 . S
C5871 C5868 1.386 . S
C5872 C5867 1.490 . S
C5872 C5874 1.395 . S
C5872 C5875 1.403 . S
H5873 C5879 0.930 . S
C5874 H5860 0.930 . S
C5874 C5872 1.395 . S
C5874 C5877 1.403 . S
C5875 C5872 1.403 . S
C5875 C5876 1.524 . S
C5875 C5879 1.400 . S
C5876 H5861 0.960 . S
C5876 H5862 0.960 . S
C5876 H5863 0.960 . S
C5876 C5875 1.524 . S
C5877 C5874 1.403 . S
C5877 C5878 1.392 . S
C5877 C5881 1.495 . S
C5878 C5877 1.392 . S
C5878 C5879 1.385 . S
C5878 C5880 1.478 . S
C5879 H5873 0.930 . S
C5879 C5875 1.400 . S
C5879 C5878 1.385 . S
C5880 C5878 1.478 . S
C5880 C5882 1.381 . S
C5880 C5886 1.383 . S
C5881 C5877 1.495 . S
C5881 H5887 0.959 . S
C5881 H5888 0.961 . S
C5881 H5889 0.960 . S
C5882 C5880 1.381 . S
C5882 C5883 1.394 . S
C5882 H5890 0.930 . S
C5883 C5882 1.394 . S
C5883 C5884 1.383 . S
C5883 H5891 0.929 . S
C5884 C5883 1.383 . S
C5884 C5885 1.377 . S
C5885 H5869 0.930 . S
C5885 C5884 1.377 . S
C5885 C5886 1.379 . S
C5886 H5870 0.931 . S
C5886 C5880 1.383 . S
C5886 C5885 1.379 . S
H5887 C5881 0.959 . S
H5888 C5881 0.961 . S
H5889 C5881 0.960 . S
H5890 C5882 0.930 . S
H5891 C5883 0.929 . S
H5892 C5900 0.929 . S
H5893 C5902 0.930 . S
H5894 C5904 0.930 . S
H5895 C5907 0.929 . S
H5896 C5910 0.930 . S
H5897 C5912 0.960 . S
H5898 C5912 0.960 . S
H5899 C5912 0.960 . S
C5900 H5892 0.929 . S
C5900 C5901 1.377 . S
C5900 C5902 1.384 . S
C5901 C5900 1.377 . S
C5901 C5907 1.390 . S
C5902 H5893 0.930 . S
C5902 C5900 1.384 . S
C5902 C5903 1.372 . S
C5903 C5902 1.372 . S
C5903 C5904 1.400 . S
C5903 C5908 1.490 . S
C5904 H5894 0.930 . S
C5904 C5903 1.400 . S
C5904 C5907 1.386 . S
H5905 C5921 0.930 . S
H5906 C5922 0.931 . S
C5907 H5895 0.929 . S
C5907 C5901 1.390 . S
C5907 C5904 1.386 . S
C5908 C5903 1.490 . S
C5908 C5910 1.395 . S
C5908 C5911 1.403 . S
H5909 C5915 0.930 . S
C5910 H5896 0.930 . S
C5910 C5908 1.395 . S
C5910 C5913 1.403 . S
C5911 C5908 1.403 . S
C5911 C5912 1.524 . S
C5911 C5915 1.400 . S
C5912 H5897 0.960 . S
C5912 H5898 0.960 . S
C5912 H5899 0.960 . S
C5912 C5911 1.524 . S
C5913 C5910 1.403 . S
C5913 C5914 1.392 . S
C5913 C5917 1.495 . S
C5914 C5913 1.392 . S
C5914 C5915 1.385 . S
C5914 C5916 1.478 . S
C5915 H5909 0.930 . S
C5915 C5911 1.400 . S
C5915 C5914 1.385 . S
C5916 C5914 1.478 . S
C5916 C5918 1.381 . S
C5916 C5922 1.383 . S
C5917 C5913 1.495 . S
C5917 H5923 0.959 . S
C5917 H5924 0.961 . S
C5917 H5925 0.960 . S
C5918 C5916 1.381 . S
C5918 C5919 1.394 . S
C5918 H5926 0.930 . S
C5919 C5918 1.394 . S
C5919 C5920 1.383 . S
C5919 H5927 0.929 . S
C5920 C5919 1.383 . S
C5920 C5921 1.377 . S
C5921 H5905 0.930 . S
C5921 C5920 1.377 . S
C5921 C5922 1.379 . S
C5922 H5906 0.931 . S
C5922 C5916 1.383 . S
C5922 C5921 1.379 . S
H5923 C5917 0.959 . S
H5924 C5917 0.961 . S
H5925 C5917 0.960 . S
H5926 C5918 0.930 . S
H5927 C5919 0.929 . S
H5928 C5936 0.929 . S
H5929 C5938 0.930 . S
H5930 C5940 0.930 . S
H5931 C5943 0.929 . S
H5932 C5946 0.930 . S
H5933 C5948 0.960 . S
H5934 C5948 0.960 . S
H5935 C5948 0.960 . S
C5936 H5928 0.929 . S
C5936 C5937 1.377 . S
C5936 C5938 1.384 . S
C5937 C5936 1.377 . S
C5937 C5943 1.390 . S
C5938 H5929 0.930 . S
C5938 C5936 1.384 . S
C5938 C5939 1.372 . S
C5939 C5938 1.372 . S
C5939 C5940 1.400 . S
C5939 C5944 1.490 . S
C5940 H5930 0.930 . S
C5940 C5939 1.400 . S
C5940 C5943 1.386 . S
H5941 C5957 0.930 . S
H5942 C5958 0.931 . S
C5943 H5931 0.929 . S
C5943 C5937 1.390 . S
C5943 C5940 1.386 . S
C5944 C5939 1.490 . S
C5944 C5946 1.395 . S
C5944 C5947 1.403 . S
H5945 C5951 0.930 . S
C5946 H5932 0.930 . S
C5946 C5944 1.395 . S
C5946 C5949 1.403 . S
C5947 C5944 1.403 . S
C5947 C5948 1.524 . S
C5947 C5951 1.400 . S
C5948 H5933 0.960 . S
C5948 H5934 0.960 . S
C5948 H5935 0.960 . S
C5948 C5947 1.524 . S
C5949 C5946 1.403 . S
C5949 C5950 1.392 . S
C5949 C5953 1.495 . S
C5950 C5949 1.392 . S
C5950 C5951 1.385 . S
C5950 C5952 1.478 . S
C5951 H5945 0.930 . S
C5951 C5947 1.400 . S
C5951 C5950 1.385 . S
C5952 C5950 1.478 . S
C5952 C5954 1.381 . S
C5952 C5958 1.383 . S
C5953 C5949 1.495 . S
C5953 H5959 0.959 . S
C5953 H5960 0.961 . S
C5953 H5961 0.960 . S
C5954 C5952 1.381 . S
C5954 C5955 1.394 1_565 S
C5954 H5962 0.928 1_565 S
C5955 C5954 1.394 1_545 S
C5955 C5956 1.383 . S
C5955 H5963 0.929 . S
C5956 C5955 1.383 . S
C5956 C5957 1.377 1_545 S
C5957 H5941 0.930 . S
C5957 C5956 1.377 1_565 S
C5957 C5958 1.379 . S
C5958 H5942 0.931 . S
C5958 C5952 1.383 . S
C5958 C5957 1.379 . S
H5959 C5953 0.959 . S
H5960 C5953 0.961 . S
H5961 C5953 0.960 . S
H5962 C5954 0.928 1_545 S
H5963 C5955 0.929 . S
H5964 C5972 0.929 . S
H5965 C5974 0.930 . S
H5966 C5976 0.930 . S
H5967 C5979 0.929 . S
H5968 C5982 0.930 . S
H5969 C5984 0.960 . S
H5970 C5984 0.960 . S
H5971 C5984 0.960 . S
C5972 H5964 0.929 . S
C5972 C5973 1.377 . S
C5972 C5974 1.384 . S
C5973 C5972 1.377 . S
C5973 C5979 1.390 . S
C5974 H5965 0.930 . S
C5974 C5972 1.384 . S
C5974 C5975 1.372 . S
C5975 C5974 1.372 . S
C5975 C5976 1.400 . S
C5975 C5980 1.490 . S
C5976 H5966 0.930 . S
C5976 C5975 1.400 . S
C5976 C5979 1.386 . S
H5977 C5993 0.930 . S
H5978 C5994 0.931 . S
C5979 H5967 0.929 . S
C5979 C5973 1.390 . S
C5979 C5976 1.386 . S
C5980 C5975 1.490 . S
C5980 C5982 1.395 . S
C5980 C5983 1.403 . S
H5981 C5987 0.930 . S
C5982 H5968 0.930 . S
C5982 C5980 1.395 . S
C5982 C5985 1.403 . S
C5983 C5980 1.403 . S
C5983 C5984 1.524 . S
C5983 C5987 1.400 . S
C5984 H5969 0.960 . S
C5984 H5970 0.960 . S
C5984 H5971 0.960 . S
C5984 C5983 1.524 . S
C5985 C5982 1.403 . S
C5985 C5986 1.392 . S
C5985 C5989 1.495 . S
C5986 C5985 1.392 . S
C5986 C5987 1.385 . S
C5986 C5988 1.478 . S
C5987 H5981 0.930 . S
C5987 C5983 1.400 . S
C5987 C5986 1.385 . S
C5988 C5986 1.478 . S
C5988 C5990 1.381 . S
C5988 C5994 1.383 . S
C5989 C5985 1.495 . S
C5989 H5995 0.959 . S
C5989 H5996 0.961 . S
C5989 H5997 0.960 . S
C5990 C5988 1.381 . S
C5990 C5991 1.394 . S
C5990 H5998 0.930 . S
C5991 C5990 1.394 . S
C5991 C5992 1.383 . S
C5991 H5999 0.929 . S
C5992 C5991 1.383 . S
C5992 C5993 1.377 . S
C5993 H5977 0.930 . S
C5993 C5992 1.377 . S
C5993 C5994 1.379 . S
C5994 H5978 0.931 . S
C5994 C5988 1.383 . S
C5994 C5993 1.379 . S
H5995 C5989 0.959 . S
H5996 C5989 0.961 . S
H5997 C5989 0.960 . S
H5998 C5990 0.930 . S
H5999 C5991 0.929 . S
H6000 C6008 0.929 . S
H6001 C6010 0.930 . S
H6002 C6012 0.930 . S
H6003 C6015 0.929 . S
H6004 C6018 0.930 . S
H6005 C6020 0.960 . S
H6006 C6020 0.960 . S
H6007 C6020 0.960 . S
C6008 H6000 0.929 . S
C6008 C6009 1.377 . S
C6008 C6010 1.384 . S
C6009 C6008 1.377 . S
C6009 C6015 1.390 . S
C6010 H6001 0.930 . S
C6010 C6008 1.384 . S
C6010 C6011 1.372 . S
C6011 C6010 1.372 . S
C6011 C6012 1.400 . S
C6011 C6016 1.490 . S
C6012 H6002 0.930 . S
C6012 C6011 1.400 . S
C6012 C6015 1.386 . S
H6013 C6029 0.930 . S
H6014 C6030 0.931 . S
C6015 H6003 0.929 . S
C6015 C6009 1.390 . S
C6015 C6012 1.386 . S
C6016 C6011 1.490 . S
C6016 C6018 1.395 . S
C6016 C6019 1.403 . S
H6017 C6023 0.930 . S
C6018 H6004 0.930 . S
C6018 C6016 1.395 . S
C6018 C6021 1.403 . S
C6019 C6016 1.403 . S
C6019 C6020 1.524 . S
C6019 C6023 1.400 . S
C6020 H6005 0.960 . S
C6020 H6006 0.960 . S
C6020 H6007 0.960 . S
C6020 C6019 1.524 . S
C6021 C6018 1.403 . S
C6021 C6022 1.392 . S
C6021 C6025 1.495 . S
C6022 C6021 1.392 . S
C6022 C6023 1.385 . S
C6022 C6024 1.478 . S
C6023 H6017 0.930 . S
C6023 C6019 1.400 . S
C6023 C6022 1.385 . S
C6024 C6022 1.478 . S
C6024 C6026 1.381 . S
C6024 C6030 1.383 . S
C6025 C6021 1.495 . S
C6025 H6031 0.959 . S
C6025 H6032 0.961 . S
C6025 H6033 0.960 . S
C6026 C6024 1.381 . S
C6026 C6027 1.394 . S
C6026 H6034 0.930 . S
C6027 C6026 1.394 . S
C6027 C6028 1.383 . S
C6027 H6035 0.929 . S
C6028 C6027 1.383 . S
C6028 C6029 1.377 . S
C6029 H6013 0.930 . S
C6029 C6028 1.377 . S
C6029 C6030 1.379 . S
C6030 H6014 0.931 . S
C6030 C6024 1.383 . S
C6030 C6029 1.379 . S
H6031 C6025 0.959 . S
H6032 C6025 0.961 . S
H6033 C6025 0.960 . S
H6034 C6026 0.930 . S
H6035 C6027 0.929 . S
H6036 C6044 0.929 . S
H6037 C6046 0.930 . S
H6038 C6048 0.930 . S
H6039 C6051 0.929 . S
H6040 C6054 0.930 . S
H6041 C6056 0.960 . S
H6042 C6056 0.960 . S
H6043 C6056 0.960 . S
C6044 H6036 0.929 . S
C6044 C6045 1.377 . S
C6044 C6046 1.384 . S
C6045 C6044 1.377 . S
C6045 C6051 1.390 . S
C6046 H6037 0.930 . S
C6046 C6044 1.384 . S
C6046 C6047 1.372 . S
C6047 C6046 1.372 . S
C6047 C6048 1.400 . S
C6047 C6052 1.490 . S
C6048 H6038 0.930 . S
C6048 C6047 1.400 . S
C6048 C6051 1.386 . S
H6049 C6065 0.930 . S
H6050 C6066 0.931 . S
C6051 H6039 0.929 . S
C6051 C6045 1.390 . S
C6051 C6048 1.386 . S
C6052 C6047 1.490 . S
C6052 C6054 1.395 . S
C6052 C6055 1.403 . S
H6053 C6059 0.930 . S
C6054 H6040 0.930 . S
C6054 C6052 1.395 . S
C6054 C6057 1.403 . S
C6055 C6052 1.403 . S
C6055 C6056 1.524 . S
C6055 C6059 1.400 . S
C6056 H6041 0.960 . S
C6056 H6042 0.960 . S
C6056 H6043 0.960 . S
C6056 C6055 1.524 . S
C6057 C6054 1.403 . S
C6057 C6058 1.392 . S
C6057 C6061 1.495 . S
C6058 C6057 1.392 . S
C6058 C6059 1.385 . S
C6058 C6060 1.478 . S
C6059 H6053 0.930 . S
C6059 C6055 1.400 . S
C6059 C6058 1.385 . S
C6060 C6058 1.478 . S
C6060 C6062 1.381 . S
C6060 C6066 1.383 . S
C6061 C6057 1.495 . S
C6061 H6067 0.959 . S
C6061 H6068 0.961 . S
C6061 H6069 0.960 . S
C6062 C6060 1.381 . S
C6062 C6063 1.394 . S
C6062 H6070 0.930 . S
C6063 C6062 1.394 . S
C6063 C6064 1.383 . S
C6063 H6071 0.929 . S
C6064 C6063 1.383 . S
C6064 C6065 1.377 . S
C6065 H6049 0.930 . S
C6065 C6064 1.377 . S
C6065 C6066 1.379 . S
C6066 H6050 0.931 . S
C6066 C6060 1.383 . S
C6066 C6065 1.379 . S
H6067 C6061 0.959 . S
H6068 C6061 0.961 . S
H6069 C6061 0.960 . S
H6070 C6062 0.930 . S
H6071 C6063 0.929 . S
H6072 C6080 0.929 1_565 S
H6073 C6082 0.930 . S
H6074 C6084 0.930 . S
H6075 C6087 0.929 . S
H6076 C6090 0.930 . S
H6077 C6092 0.960 . S
H6078 C6092 0.960 . S
H6079 C6092 0.960 . S
C6080 H6072 0.929 1_545 S
C6080 C6081 1.377 . S
C6080 C6082 1.384 . S
C6081 C6080 1.377 . S
C6081 C6087 1.390 . S
C6082 H6073 0.930 . S
C6082 C6080 1.384 . S
C6082 C6083 1.372 . S
C6083 C6082 1.372 . S
C6083 C6084 1.400 . S
C6083 C6088 1.490 . S
C6084 H6074 0.930 . S
C6084 C6083 1.400 . S
C6084 C6087 1.386 . S
H6085 C6101 0.930 . S
H6086 C6102 0.931 . S
C6087 H6075 0.929 . S
C6087 C6081 1.390 . S
C6087 C6084 1.386 . S
C6088 C6083 1.490 . S
C6088 C6090 1.395 . S
C6088 C6091 1.403 . S
H6089 C6095 0.930 . S
C6090 H6076 0.930 . S
C6090 C6088 1.395 . S
C6090 C6093 1.403 . S
C6091 C6088 1.403 . S
C6091 C6092 1.524 . S
C6091 C6095 1.400 . S
C6092 H6077 0.960 . S
C6092 H6078 0.960 . S
C6092 H6079 0.960 . S
C6092 C6091 1.524 . S
C6093 C6090 1.403 . S
C6093 C6094 1.392 . S
C6093 C6097 1.495 . S
C6094 C6093 1.392 . S
C6094 C6095 1.385 . S
C6094 C6096 1.478 . S
C6095 H6089 0.930 . S
C6095 C6091 1.400 . S
C6095 C6094 1.385 . S
C6096 C6094 1.478 . S
C6096 C6098 1.381 . S
C6096 C6102 1.383 . S
C6097 C6093 1.495 . S
C6097 H6103 0.959 . S
C6097 H6104 0.961 . S
C6097 H6105 0.960 . S
C6098 C6096 1.381 . S
C6098 C6099 1.394 . S
C6098 H6106 0.930 . S
C6099 C6098 1.394 . S
C6099 C6100 1.383 . S
C6099 H6107 0.929 . S
C6100 C6099 1.383 . S
C6100 C6101 1.377 . S
C6101 H6085 0.930 . S
C6101 C6100 1.377 . S
C6101 C6102 1.379 . S
C6102 H6086 0.931 . S
C6102 C6096 1.383 . S
C6102 C6101 1.379 . S
H6103 C6097 0.959 . S
H6104 C6097 0.961 . S
H6105 C6097 0.960 . S
H6106 C6098 0.930 . S
H6107 C6099 0.929 . S
H6108 C6116 0.929 . S
H6109 C6118 0.930 . S
H6110 C6120 0.930 . S
H6111 C6123 0.929 . S
H6112 C6126 0.930 . S
H6113 C6128 0.960 . S
H6114 C6128 0.960 . S
H6115 C6128 0.960 1_545 S
C6116 H6108 0.929 . S
C6116 C6117 1.377 1_565 S
C6116 C6118 1.384 . S
C6117 C6116 1.377 1_545 S
C6117 C6123 1.390 . S
C6118 H6109 0.930 . S
C6118 C6116 1.384 . S
C6118 C6119 1.372 . S
C6119 C6118 1.372 . S
C6119 C6120 1.400 1_565 S
C6119 C6124 1.490 . S
C6120 H6110 0.930 . S
C6120 C6119 1.400 1_545 S
C6120 C6123 1.386 . S
H6121 C6137 0.930 . S
H6122 C6138 0.931 . S
C6123 H6111 0.929 . S
C6123 C6117 1.390 . S
C6123 C6120 1.386 . S
C6124 C6119 1.490 . S
C6124 C6126 1.395 . S
C6124 C6127 1.403 . S
H6125 C6131 0.930 . S
C6126 H6112 0.930 . S
C6126 C6124 1.395 . S
C6126 C6129 1.403 . S
C6127 C6124 1.403 . S
C6127 C6128 1.524 . S
C6127 C6131 1.400 . S
C6128 H6113 0.960 . S
C6128 H6114 0.960 . S
C6128 H6115 0.960 1_565 S
C6128 C6127 1.524 . S
C6129 C6126 1.403 . S
C6129 C6130 1.392 . S
C6129 C6133 1.495 . S
C6130 C6129 1.392 . S
C6130 C6131 1.385 . S
C6130 C6132 1.478 . S
C6131 H6125 0.930 . S
C6131 C6127 1.400 . S
C6131 C6130 1.385 . S
C6132 C6130 1.478 . S
C6132 C6134 1.381 . S
C6132 C6138 1.383 . S
C6133 C6129 1.495 . S
C6133 H6139 0.959 . S
C6133 H6140 0.961 . S
C6133 H6141 0.960 . S
C6134 C6132 1.381 . S
C6134 C6135 1.394 . S
C6134 H6142 0.930 . S
C6135 C6134 1.394 . S
C6135 C6136 1.383 . S
C6135 H6143 0.929 . S
C6136 C6135 1.383 . S
C6136 C6137 1.377 . S
C6137 H6121 0.930 . S
C6137 C6136 1.377 . S
C6137 C6138 1.379 . S
C6138 H6122 0.931 . S
C6138 C6132 1.383 . S
C6138 C6137 1.379 . S
H6139 C6133 0.959 . S
H6140 C6133 0.961 . S
H6141 C6133 0.960 . S
H6142 C6134 0.930 . S
H6143 C6135 0.929 . S
C969 C8 2.109 . S
C988 C99 2.070 . S
C1005 C39 2.465 . S
C1024 C109 2.240 . S
C1041 C139 1.859 . S
C1060 C49 1.710 . S
C1077 C159 1.403 . S
C1096 C69 1.303 . S
C1113 C179 1.918 . S
C1132 C199 1.892 . S
C1149 C189 1.741 . S
C1168 C219 1.847 . S
C1185 C229 1.592 . S
C1204 C209 1.603 1_545 S
C1221 C239 1.813 . S
C1240 C169 1.692 . S
C1257 C249 2.138 . S
C1276 C79 2.271 . S
C1293 C149 1.257 . S
C1312 C679 1.375 . S
C1329 C89 1.620 . S
C1348 C269 1.575 . S
C1365 C119 1.376 . S
C1384 C689 1.220 . S
C1401 C29 2.134 . S
C1420 C299 2.274 . S
C1437 C639 1.817 . S
C1456 C2 1.763 . S
C1473 C602 1.757 . S
C1492 C59 1.831 . S
C1509 C398 2.057 . S
C1528 C309 2.101 . S
C1545 C338 2.468 . S
C1564 C408 2.257 . S
C1581 C348 1.755 . S
C1600 C438 1.862 . S
C1617 C368 1.292 . S
C1636 C458 1.379 . S
C1653 C498 1.914 . S
C1672 C478 1.902 . S
C1689 C488 1.750 . S
C1708 C518 1.876 . S
C1725 C528 1.583 . S
C1744 C508 1.616 1_565 S
C1761 C468 1.708 . S
C1780 C538 1.833 . S
C1797 C378 2.289 . S
C1816 C548 2.108 . S
C1833 C858 1.381 . S
C1852 C448 1.304 . S
C1869 C568 1.631 . S
C1888 C388 1.635 . S
C1905 C418 1.381 . S
C1924 C868 1.304 . S
C1941 C598 2.293 . S
C1960 C328 2.126 . S
C1977 C301 1.749 . S
C1996 C818 1.788 . S
C2013 C358 1.808 . S
C2032 C781 1.728 . S
C2049 C659 2.060 . S
C2068 C608 2.106 . S
C2085 C669 2.255 . S
C2104 C259 2.451 . S
C2121 C629 1.747 . S
C2140 C279 1.871 . S
C2157 C699 1.383 . S
C2176 C289 1.246 . S
C2193 C719 1.921 . S
C2212 C739 1.904 . S
C2229 C729 1.754 . S
C2248 C759 1.876 . S
C2265 C769 1.576 . S
C2284 C749 1.543 . S
C2301 C709 1.717 . S
C2320 C779 1.828 . S
C2337 C129 1.610 . S
C2356 C649 1.651 . S
C2373 C838 2.053 . S
C2392 C789 2.117 . S
C2409 C848 2.261 . S
C2428 C558 2.445 . S
C2445 C578 1.858 . S
C2464 C808 1.743 . S
C2481 C878 1.383 . S
C2500 C588 1.243 . S
C2517 C898 1.921 . S
C2536 C918 1.890 . S
C2553 C908 1.749 . S
C2572 C938 1.836 . S
C2589 C928 1.575 . S
C2608 C948 1.583 . S
C2625 C958 1.818 . S
C2644 C888 1.736 . S
C2661 C828 1.621 . S
C2680 C428 1.614 . S
C2697 C9 0.483 . S
C2716 C321 0.161 . S
C2733 C802 0.607 . S
C2752 C38 0.600 . S
C2769 C48 0.150 . S
C2788 C362 0.220 . S
C2805 C68 0.774 . S
C2824 C799 0.786 . S
C2841 C98 1.139 . S
C2860 C441 1.160 . S
C2877 C108 0.739 . S
C2896 C821 0.731 . S
C2913 C138 1.066 . S
C2932 C402 1.097 . S
C2949 C561 0.734 . S
C2968 C158 0.782 . S
C2985 C178 0.653 . S
C3004 C798 0.637 . S
C3021 C188 0.206 . S
C3040 C322 0.440 . S
C3057 C208 0.418 . S
C3076 C801 0.414 . S
C3093 C361 0.939 . S
C3112 C238 0.894 . S
C3129 C822 0.964 . S
C3148 C228 0.998 . S
C3165 C401 0.276 . S
C3184 C168 0.361 . S
C3201 C198 0.704 . S
C3220 C562 0.651 . S
C3237 C442 1.177 . S
C3256 C218 1.179 . S
C3273 C882 0.341 . S
C3292 C248 0.298 . S
C3309 C521 0.581 . S
C3328 C148 0.585 . S
C3345 C88 0.371 . S
C3364 C881 0.376 . S
C3381 C118 0.542 . S
C3400 C482 0.538 . S
C3417 C268 0.953 . S
C3436 C502 0.895 . S
C3453 C921 0.650 . S
C3472 C298 0.681 . S
C3489 C1 0.404 . S
C3508 C942 0.456 . S
C3525 C58 0.401 . S
C3544 C901 0.384 . S
C3561 C22 0.276 . S
C3580 C308 0.516 . S
C3597 C339 0.610 . S
C3616 C621 0.577 . S
C3633 C349 0.128 . S
C3652 C61 0.265 . S
C3669 C369 0.773 . S
C3688 C618 0.774 . S
C3705 C142 1.171 . S
C3724 C399 1.128 . S
C3741 C642 0.737 . S
C3760 C409 0.751 . S
C3777 C101 1.062 . S
C3796 C439 1.081 . S
C3813 C459 0.732 . S
C3832 C262 0.744 . S
C3849 C479 0.658 . S
C3868 C619 0.639 . S
C3885 C21 0.436 . S
C3904 C489 0.274 . S
C3921 C509 0.424 . S
C3940 C622 0.455 . S
C3957 C62 0.935 . S
C3976 C539 0.935 . S
C3993 C641 0.965 . S
C4012 C529 1.001 . S
C4029 C469 0.273 . S
C4048 C102 0.279 . S
C4065 C499 0.697 . S
C4084 C261 0.678 . S
C4101 C141 1.189 . S
C4120 C519 1.217 . S
C4137 C549 0.286 . S
C4156 C701 0.387 . S
C4173 C222 0.580 . S
C4192 C449 0.559 . S
C4209 C702 0.373 . S
C4228 C389 0.351 . S
C4245 C419 0.564 . S
C4264 C181 0.576 . S
C4281 C569 0.950 . S
C4300 C201 0.889 . S
C4317 C742 0.651 . S
C4336 C599 0.627 . S
C4353 C302 0.425 . S
C4372 C761 0.470 . S
C4389 C722 0.399 . S
C4408 C359 0.422 . S
C4425 C541 0.273 . S
C4444 C609 0.376 . S
C4461 C258 0.613 . S
C4480 C342 0.651 . S
C4497 C582 0.307 . S
C4516 C628 0.098 . S
C4533 C288 0.774 . S
C4552 C319 0.788 1_455 S
C4569 C658 1.148 . S
C4588 C861 1.172 . S
C4605 C381 0.735 . S
C4624 C668 0.751 . S
C4641 C278 1.062 . S
C4660 C842 1.073 . S
C4677 C421 0.733 . S
C4696 C698 0.782 . S
C4713 C718 0.650 . S
C4732 C318 0.635 . S
C4749 C728 0.209 . S
C4768 C542 0.419 . S
C4785 C748 0.433 . S
C4804 C341 0.444 . S
C4821 C581 0.940 . S
C4840 C778 0.956 . S
C4857 C382 0.965 . S
C4876 C768 0.997 . S
C4893 C708 0.298 . S
C4912 C841 0.323 . S
C4929 C422 0.704 . S
C4948 C738 0.736 . S
C4965 C758 1.183 . S
C4984 C862 1.183 . S
C5001 C28 0.279 . S
C5020 C462 0.309 . S
C5037 C941 0.579 . S
C5056 C688 0.560 . S
C5073 C648 0.376 . S
C5092 C461 0.407 . S
C5109 C678 0.555 . S
C5128 C902 0.560 . S
C5145 C922 0.926 . S
C5164 C128 0.945 . S
C5181 C501 0.648 . S
C5200 C78 0.688 . S
C5217 C601 0.405 . S
C5236 C522 0.452 . S
C5253 C481 0.384 . S
C5272 C638 0.440 . S
C5289 C242 0.246 . S
C5308 C788 0.555 . S
C5325 C559 0.630 . S
C5344 C41 0.648 . S
C5361 C281 0.267 . S
C5380 C809 0.211 . S
C5397 C589 0.784 . S
C5416 C18 0.787 1_655 S
C5433 C839 1.139 . S
C5452 C682 1.171 . S
C5469 C82 0.740 . S
C5488 C849 0.735 . S
C5505 C661 1.058 . S
C5524 C579 1.051 . S
C5541 C122 0.734 . S
C5560 C879 0.759 . S
C5577 C19 0.635 . S
C5596 C899 0.613 . S
C5613 C909 0.208 . S
C5632 C241 0.385 1_556 S
C5649 C42 0.420 . S
C5668 C929 0.465 . S
C5685 C282 0.936 . S
C5704 C959 0.931 . S
C5721 C81 0.974 . S
C5740 C949 1.010 . S
C5757 C662 0.250 . S
C5776 C889 0.356 . S
C5793 C919 0.696 . S
C5812 C121 0.673 . S
C5829 C681 1.185 . S
C5848 C939 1.205 . S
C5865 C161 0.366 . S
C5884 C329 0.286 . S
C5901 C869 0.582 . S
C5920 C762 0.588 . S
C5937 C829 0.362 . S
C5956 C162 0.377 . S
C5973 C721 0.540 . S
C5992 C859 0.598 . S
C6009 C429 0.952 . S
C6028 C741 0.916 . S
C6045 C379 0.667 . S
C6064 C202 0.640 . S
C6081 C221 0.431 . S
C6100 C782 0.428 . S
C6117 C182 0.390 . S
C6136 C819 0.426 . S
