# Generated by pormake.
# Topology unm, (4)-cn, num edge types: 1
# Building blocks:
#     Node 0, Type 0, BuildingBlock: UXUYUI_clean_sbu_0, # of connection points: 4
#     Node 1, Type 0, BuildingBlock: UXUYUI_clean_sbu_0, # of connection points: 4
#     Node 2, Type 0, BuildingBlock: UXUYUI_clean_sbu_0, # of connection points: 4
#     Node 3, Type 0, BuildingBlock: UXUYUI_clean_sbu_0, # of connection points: 4
#     Node 4, Type 0, BuildingBlock: UXUYUI_clean_sbu_0, # of connection points: 4
#     Node 5, Type 0, BuildingBlock: UXUYUI_clean_sbu_0, # of connection points: 4
#     Node 6, Type 0, BuildingBlock: UXUYUI_clean_sbu_0, # of connection points: 4
#     Node 7, Type 0, BuildingBlock: UXUYUI_clean_sbu_0, # of connection points: 4
#     Edge 8, Type (0, 0), BuildingBlock: XIVTED_clean_linker_0, # of connection points: 2
#     Edge 9, Type (0, 0), BuildingBlock: XIVTED_clean_linker_0, # of connection points: 2
#     Edge 10, Type (0, 0), BuildingBlock: XIVTED_clean_linker_0, # of connection points: 2
#     Edge 11, Type (0, 0), BuildingBlock: XIVTED_clean_linker_0, # of connection points: 2
#     Edge 12, Type (0, 0), BuildingBlock: XIVTED_clean_linker_0, # of connection points: 2
#     Edge 13, Type (0, 0), BuildingBlock: XIVTED_clean_linker_0, # of connection points: 2
#     Edge 14, Type (0, 0), BuildingBlock: XIVTED_clean_linker_0, # of connection points: 2
#     Edge 15, Type (0, 0), BuildingBlock: XIVTED_clean_linker_0, # of connection points: 2
#     Edge 16, Type (0, 0), BuildingBlock: XIVTED_clean_linker_0, # of connection points: 2
#     Edge 17, Type (0, 0), BuildingBlock: XIVTED_clean_linker_0, # of connection points: 2
#     Edge 18, Type (0, 0), BuildingBlock: XIVTED_clean_linker_0, # of connection points: 2
#     Edge 19, Type (0, 0), BuildingBlock: XIVTED_clean_linker_0, # of connection points: 2
#     Edge 20, Type (0, 0), BuildingBlock: XIVTED_clean_linker_0, # of connection points: 2
#     Edge 21, Type (0, 0), BuildingBlock: XIVTED_clean_linker_0, # of connection points: 2
#     Edge 22, Type (0, 0), BuildingBlock: XIVTED_clean_linker_0, # of connection points: 2
#     Edge 23, Type (0, 0), BuildingBlock: XIVTED_clean_linker_0, # of connection points: 2
# Relax obj value: 0.260
# Max RMSD: 0.186
# Mean RMSD: 0.185
data_MOF--net-unm--node1-UXUYUI_clean_sbu_0--edge1-XIVTED_clean_linker_0
_symmetry_space_group_name_H-M    P1
_symmetry_Int_Tables_number       1
_symmetry_cell_setting            triclinic
loop_
_symmetry_equiv_pos_as_xyz
'x, y, z'
_cell_length_a     38.104504
_cell_length_b     37.981481
_cell_length_c     62.403393
_cell_angle_alpha  89.995894
_cell_angle_beta   90.001976
_cell_angle_gamma 90.006225
loop_
_atom_site_label
_atom_site_type_symbol
_atom_site_fract_x
_atom_site_fract_y
_atom_site_fract_z
_atom_type_partial_charge
Li0 Li 0.05594 0.26335 0.14799 0.0
Li1 Li 0.09239 0.23096 0.17556 0.0
Li2 Li 0.06632 0.20034 0.14262 0.0
Li3 Li 0.0296 0.22066 0.17166 0.0
C4 C 0.11916 0.25773 0.12895 0.0
N5 N 0.1536 0.29659 0.09799 0.0
C6 C 0.14737 0.27932 0.13461 0.0
C7 C 0.10865 0.25567 0.10754 0.0
C8 C 0.16439 0.29884 0.11872 0.0
C9 C 0.12635 0.27556 0.09212 0.0
C10 C 0.03571 0.27727 0.19647 0.0
C11 C 0.02295 0.27768 0.23429 0.0
N12 N 0.99546 0.29971 0.23061 0.0
C13 C 0.00757 0.30016 0.19305 0.0
C14 C 0.04368 0.26607 0.21723 0.0
C15 C 0.98743 0.31111 0.21053 0.0
C16 C 0.0193 0.31353 0.1238 0.0
N17 N 0.04912 0.30788 0.13521 0.0
C18 C 0.06476 0.36858 0.13257 0.0
C19 C 0.07191 0.33442 0.13958 0.0
C20 C 0.0337 0.37541 0.12113 0.0
C21 C 0.01124 0.34715 0.11635 0.0
H22 H 0.00099 0.29227 0.12123 0.0
H23 H 0.09486 0.32933 0.14929 0.0
C24 C 0.14908 0.20845 0.20243 0.0
N25 N 0.13231 0.23639 0.19346 0.0
C26 C 0.17953 0.21368 0.21457 0.0
C27 C 0.17481 0.27619 0.20784 0.0
C28 C 0.14424 0.26982 0.19614 0.0
C29 C 0.19297 0.2479 0.21714 0.0
H30 H 0.13913 0.18211 0.19989 0.0
H31 H 0.13025 0.29151 0.18883 0.0
C32 C 0.00064 0.21393 0.12487 0.0
N33 N 0.95821 0.18764 0.09268 0.0
C34 C 0.97409 0.18975 0.12969 0.0
C35 C 0.00549 0.22479 0.10366 0.0
C36 C 0.95292 0.1768 0.1132 0.0
C37 C 0.98383 0.21115 0.08762 0.0
C38 C 0.0523 0.15596 0.18273 0.0
C39 C 0.02827 0.13569 0.17117 0.0
C40 C 0.06026 0.14705 0.2039 0.0
C41 C 0.01212 0.10701 0.18114 0.0
C42 C 0.0436 0.11813 0.21329 0.0
N43 N 0.02004 0.09891 0.20182 0.0
C44 C 0.11246 0.1664 0.11492 0.0
C45 C 0.05355 0.14988 0.10852 0.0
C46 C 0.12319 0.15004 0.096 0.0
N47 N 0.07793 0.16744 0.12031 0.0
C48 C 0.06297 0.13385 0.0892 0.0
C49 C 0.09807 0.13499 0.08223 0.0
H50 H 0.13153 0.17991 0.12477 0.0
H51 H 0.02647 0.14968 0.11341 0.0
C52 C 0.95852 0.23153 0.17783 0.0
N53 N 0.98642 0.21569 0.1874 0.0
C54 C 0.92636 0.23393 0.18834 0.0
C55 C 0.95203 0.20429 0.21878 0.0
C56 C 0.98381 0.20224 0.20756 0.0
C57 C 0.92279 0.22045 0.20916 0.0
H58 H 0.96161 0.24359 0.16226 0.0
H59 H 0.00664 0.19128 0.21532 0.0
O60 O 0.10188 0.23873 0.14431 0.0
O61 O 0.05498 0.26532 0.17951 0.0
O62 O 0.02145 0.2272 0.14084 0.0
O63 O 0.06823 0.18418 0.17326 0.0
H64 H 0.15598 0.2811 0.15108 0.0
H65 H 0.08712 0.23882 0.10287 0.0
H66 H 0.18617 0.31578 0.12288 0.0
H67 H 0.11844 0.27425 0.07549 0.0
H68 H 0.02861 0.26904 0.25045 0.0
H69 H 0.00108 0.30896 0.17703 0.0
H70 H 0.06536 0.24824 0.22008 0.0
H71 H 0.96535 0.32857 0.20813 0.0
H72 H 0.08248 0.38962 0.13705 0.0
H73 H 0.98713 0.35111 0.10748 0.0
H74 H 0.19294 0.19116 0.22137 0.0
H75 H 0.1841 0.30298 0.20965 0.0
H76 H 0.97007 0.18072 0.14594 0.0
H77 H 0.02574 0.24356 0.0996 0.0
H78 H 0.93238 0.158 0.1167 0.0
H79 H 0.98738 0.21927 0.07115 0.0
H80 H 0.02214 0.14208 0.15471 0.0
H81 H 0.07883 0.16252 0.21305 0.0
H82 H 0.99333 0.09117 0.17243 0.0
H83 H 0.04932 0.11102 0.22971 0.0
H84 H 0.15078 0.15044 0.09189 0.0
H85 H 0.04249 0.1225 0.07937 0.0
H86 H 0.90489 0.24748 0.18051 0.0
H87 H 0.95049 0.19374 0.23487 0.0
Li88 Li 0.29464 0.57195 0.64074 0.0
Li89 Li 0.275 0.60495 0.67384 0.0
Li90 Li 0.28328 0.53807 0.67378 0.0
Li91 Li 0.23567 0.56569 0.6544 0.0
C92 C 0.35443 0.5724 0.66609 0.0
N93 N 0.42544 0.56499 0.65854 0.0
C94 C 0.37688 0.6012 0.66857 0.0
C95 C 0.36804 0.53982 0.65989 0.0
C96 C 0.41274 0.59692 0.66466 0.0
C97 C 0.40403 0.53661 0.6561 0.0
C98 C 0.2306 0.62706 0.63556 0.0
C99 C 0.17973 0.66415 0.64001 0.0
N100 N 0.1724 0.66059 0.61879 0.0
C101 C 0.22262 0.62385 0.61379 0.0
C102 C 0.20902 0.6474 0.64879 0.0
C103 C 0.19305 0.64096 0.60562 0.0
C104 C 0.29782 0.56268 0.59762 0.0
N105 N 0.3182 0.57483 0.61388 0.0
C106 C 0.36201 0.59374 0.58892 0.0
C107 C 0.35 0.58989 0.61002 0.0
C108 C 0.34069 0.5826 0.57183 0.0
C109 C 0.30853 0.56633 0.57642 0.0
H110 H 0.27255 0.55107 0.60115 0.0
H111 H 0.36548 0.59998 0.62315 0.0
C112 C 0.26893 0.64699 0.71106 0.0
N113 N 0.2767 0.64754 0.68981 0.0
C114 C 0.26346 0.67848 0.72216 0.0
C115 C 0.2759 0.71046 0.68954 0.0
C116 C 0.28106 0.67835 0.67907 0.0
C117 C 0.2661 0.7108 0.71127 0.0
H118 H 0.26555 0.62205 0.71917 0.0
H119 H 0.28679 0.67794 0.66209 0.0
C120 C 0.27038 0.49489 0.63752 0.0
N121 N 0.2769 0.42592 0.62398 0.0
C122 C 0.24382 0.47052 0.64187 0.0
C123 C 0.30013 0.48423 0.6261 0.0
C124 C 0.24766 0.43576 0.63495 0.0
C125 C 0.30295 0.44923 0.61943 0.0
C126 C 0.21444 0.55692 0.6958 0.0
C127 C 0.20329 0.52196 0.69425 0.0
C128 C 0.19477 0.58096 0.70778 0.0
C129 C 0.17247 0.51165 0.70461 0.0
C130 C 0.16408 0.56962 0.7179 0.0
N131 N 0.15365 0.53549 0.71611 0.0
C132 C 0.2828 0.5007 0.71254 0.0
C133 C 0.30485 0.46696 0.68366 0.0
C134 C 0.28063 0.47069 0.72542 0.0
N135 N 0.29328 0.4981 0.69177 0.0
C136 C 0.30284 0.43621 0.6959 0.0
C137 C 0.2893 0.43757 0.71685 0.0
H138 H 0.27417 0.52581 0.71877 0.0
H139 H 0.31397 0.4654 0.66736 0.0
C140 C 0.18381 0.53775 0.62772 0.0
N141 N 0.18869 0.55904 0.64497 0.0
C142 C 0.15 0.52953 0.62082 0.0
C143 C 0.1269 0.56709 0.64874 0.0
C144 C 0.16116 0.57452 0.6551 0.0
C145 C 0.121 0.54373 0.63166 0.0
H146 H 0.20621 0.52674 0.61949 0.0
H147 H 0.1657 0.59229 0.6683 0.0
O148 O 0.31927 0.57619 0.66967 0.0
O149 O 0.25897 0.60986 0.64398 0.0
O150 O 0.26704 0.52911 0.64409 0.0
O151 O 0.24449 0.56755 0.68569 0.0
H152 H 0.36666 0.62661 0.67337 0.0
H153 H 0.35097 0.51732 0.65793 0.0
H154 H 0.43045 0.61898 0.66646 0.0
H155 H 0.41493 0.51157 0.65121 0.0
H156 H 0.16269 0.67978 0.65009 0.0
H157 H 0.23894 0.60818 0.60332 0.0
H158 H 0.21439 0.64967 0.66575 0.0
H159 H 0.1865 0.63861 0.58882 0.0
H160 H 0.38686 0.6067 0.58595 0.0
H161 H 0.29148 0.55716 0.5637 0.0
H162 H 0.25652 0.6775 0.73898 0.0
H163 H 0.27788 0.73464 0.68043 0.0
H164 H 0.22042 0.47834 0.65043 0.0
H165 H 0.32102 0.50263 0.62262 0.0
H166 H 0.22735 0.41661 0.63826 0.0
H167 H 0.3259 0.44059 0.61069 0.0
H168 H 0.21829 0.50301 0.68516 0.0
H169 H 0.20284 0.60819 0.70901 0.0
H170 H 0.16352 0.48468 0.70351 0.0
H171 H 0.14849 0.58797 0.72712 0.0
H172 H 0.27105 0.47331 0.74167 0.0
H173 H 0.30993 0.41144 0.6885 0.0
H174 H 0.14658 0.51197 0.60731 0.0
H175 H 0.1053 0.57856 0.65759 0.0
Li176 Li 0.90788 0.7732 0.176 0.0
Li177 Li 0.94481 0.73979 0.14999 0.0
Li178 Li 0.96937 0.7845 0.17161 0.0
Li179 Li 0.93212 0.80168 0.14287 0.0
C180 C 0.96224 0.73546 0.20118 0.0
N181 N 0.99494 0.72725 0.2404 0.0
C182 C 0.98965 0.71131 0.20351 0.0
C183 C 0.95138 0.75534 0.21883 0.0
C184 C 0.00591 0.70762 0.22345 0.0
C185 C 0.9682 0.75076 0.23853 0.0
C186 C 0.8712 0.73779 0.14406 0.0
C187 C 0.8158 0.7185 0.12947 0.0
N188 N 0.81673 0.68977 0.14246 0.0
C189 C 0.87167 0.70795 0.15718 0.0
C190 C 0.84309 0.74306 0.13003 0.0
C191 C 0.84387 0.68403 0.15617 0.0
C192 C 0.84058 0.79238 0.19185 0.0
N193 N 0.86725 0.76882 0.19376 0.0
C194 C 0.83324 0.73354 0.21775 0.0
C195 C 0.86421 0.73991 0.20647 0.0
C196 C 0.80493 0.75705 0.21589 0.0
C197 C 0.80902 0.78701 0.20287 0.0
H198 H 0.84353 0.81487 0.18136 0.0
H199 H 0.88542 0.72107 0.20729 0.0
C200 C 0.98618 0.68156 0.14258 0.0
N201 N 0.95453 0.69544 0.13728 0.0
C202 C 0.99577 0.6483 0.13523 0.0
C203 C 0.94078 0.64503 0.116 0.0
C204 C 0.93232 0.67848 0.12369 0.0
C205 C 0.97261 0.62927 0.1221 0.0
H206 H 0.00382 0.69628 0.15276 0.0
H207 H 0.90795 0.69066 0.11891 0.0
C208 C 0.94611 0.84876 0.18154 0.0
N209 N 0.97861 0.90649 0.19964 0.0
C210 C 0.97253 0.86645 0.17036 0.0
C211 C 0.93594 0.86053 0.20182 0.0
C212 C 0.98874 0.89554 0.17983 0.0
C213 C 0.95276 0.88977 0.21072 0.0
C214 C 0.98554 0.77202 0.11953 0.0
C215 C 0.01961 0.77802 0.11207 0.0
C216 C 0.95949 0.76129 0.10514 0.0
C217 C 0.02705 0.77323 0.09034 0.0
C218 C 0.96798 0.75682 0.08354 0.0
N219 N 0.0013 0.76283 0.07664 0.0
C220 C 0.04102 0.77741 0.17678 0.0
C221 C 0.01597 0.80818 0.20603 0.0
C222 C 0.07349 0.77623 0.18706 0.0
N223 N 0.01296 0.79288 0.18639 0.0
C224 C 0.04802 0.80741 0.21698 0.0
C225 C 0.07721 0.7908 0.2076 0.0
H226 H 0.03777 0.76446 0.1615 0.0
H227 H 0.99323 0.81946 0.21371 0.0
C228 C 0.88724 0.83496 0.1141 0.0
N229 N 0.92149 0.83305 0.11996 0.0
C230 C 0.87795 0.84952 0.09438 0.0
C231 C 0.93912 0.86254 0.08787 0.0
C232 C 0.94722 0.8478 0.1078 0.0
C233 C 0.90423 0.8621 0.08056 0.0
H234 H 0.86734 0.82334 0.12421 0.0
H235 H 0.9743 0.84592 0.11285 0.0
O236 O 0.94652 0.74017 0.18166 0.0
O237 O 0.89788 0.76189 0.14498 0.0
O238 O 0.93004 0.8202 0.17259 0.0
O239 O 0.97802 0.77692 0.14079 0.0
H240 H 0.9984 0.69564 0.19009 0.0
H241 H 0.93065 0.77462 0.21725 0.0
H242 H 0.02728 0.68916 0.22545 0.0
H243 H 0.9602 0.76614 0.25227 0.0
H244 H 0.79387 0.72229 0.1187 0.0
H245 H 0.89335 0.70312 0.16795 0.0
H246 H 0.84233 0.76582 0.11963 0.0
H247 H 0.84391 0.66088 0.16627 0.0
H248 H 0.83113 0.70977 0.22724 0.0
H249 H 0.78802 0.80599 0.20109 0.0
H250 H 0.02052 0.63715 0.1404 0.0
H251 H 0.92252 0.63152 0.10554 0.0
H252 H 0.98063 0.85759 0.15463 0.0
H253 H 0.91543 0.84708 0.21061 0.0
H254 H 0.0094 0.9094 0.17144 0.0
H255 H 0.94531 0.89913 0.22644 0.0
H256 H 0.04007 0.78645 0.12295 0.0
H257 H 0.93293 0.75667 0.11046 0.0
H258 H 0.0533 0.77784 0.08436 0.0
H259 H 0.94805 0.74863 0.07224 0.0
H260 H 0.09501 0.76255 0.17937 0.0
H261 H 0.04974 0.81906 0.23278 0.0
H262 H 0.85063 0.84939 0.08958 0.0
H263 H 0.96022 0.87186 0.07772 0.0
Li264 Li 0.71325 0.46289 0.67494 0.0
Li265 Li 0.75955 0.43882 0.65501 0.0
Li266 Li 0.6995 0.43512 0.64079 0.0
Li267 Li 0.72033 0.39864 0.67373 0.0
C268 C 0.72535 0.51224 0.64423 0.0
N269 N 0.7191 0.58456 0.64134 0.0
C270 C 0.75086 0.53406 0.65334 0.0
C271 C 0.69691 0.52719 0.63339 0.0
C272 C 0.74713 0.57056 0.65181 0.0
C273 C 0.69419 0.56382 0.63215 0.0
C274 C 0.78448 0.43426 0.69522 0.0
C275 C 0.83332 0.40408 0.7116 0.0
N276 N 0.85072 0.43523 0.71328 0.0
C277 C 0.80277 0.466 0.69724 0.0
C278 C 0.7998 0.40304 0.70254 0.0
C279 C 0.83626 0.46592 0.70635 0.0
C280 C 0.72107 0.50353 0.71229 0.0
N281 N 0.70266 0.50201 0.69366 0.0
C282 C 0.68207 0.56091 0.69885 0.0
C283 C 0.68186 0.52927 0.68741 0.0
C284 C 0.70326 0.56416 0.71718 0.0
C285 C 0.72178 0.53446 0.72435 0.0
H286 H 0.73673 0.48131 0.71729 0.0
H287 H 0.66656 0.52723 0.67291 0.0
C288 C 0.81036 0.47216 0.63002 0.0
N289 N 0.80636 0.44638 0.64493 0.0
C290 C 0.84371 0.48167 0.62293 0.0
C291 C 0.86823 0.43636 0.64562 0.0
C292 C 0.83437 0.42771 0.65223 0.0
C293 C 0.87325 0.46425 0.63115 0.0
H294 H 0.78766 0.48578 0.62382 0.0
H295 H 0.83062 0.4065 0.66347 0.0
C296 C 0.64869 0.44296 0.67947 0.0
N297 N 0.59582 0.47789 0.70098 0.0
C298 C 0.64574 0.43986 0.70171 0.0
C299 C 0.6247 0.46362 0.66813 0.0
C300 C 0.61885 0.45781 0.7123 0.0
C301 C 0.59814 0.4811 0.67931 0.0
C302 C 0.76242 0.38092 0.63228 0.0
C303 C 0.76803 0.38898 0.6107 0.0
C304 C 0.78505 0.35759 0.64273 0.0
C305 C 0.79629 0.37362 0.59993 0.0
C306 C 0.81297 0.34272 0.6314 0.0
N307 N 0.81799 0.35099 0.61042 0.0
C308 C 0.69227 0.4515 0.59819 0.0
C309 C 0.64535 0.41596 0.61066 0.0
C310 C 0.6804 0.44868 0.57717 0.0
N311 N 0.67519 0.43465 0.61431 0.0
C312 C 0.6323 0.41264 0.58976 0.0
C313 C 0.65058 0.42833 0.57266 0.0
H314 H 0.71613 0.4659 0.60157 0.0
H315 H 0.63256 0.40248 0.62379 0.0
C316 C 0.71881 0.35473 0.7102 0.0
N317 N 0.71766 0.35478 0.68844 0.0
C318 C 0.72327 0.32315 0.72137 0.0
C319 C 0.7233 0.2921 0.68756 0.0
C320 C 0.71872 0.32428 0.67706 0.0
C321 C 0.7266 0.29132 0.71001 0.0
H322 H 0.71799 0.37943 0.71883 0.0
H323 H 0.71776 0.32511 0.65975 0.0
O324 O 0.72844 0.47643 0.64565 0.0
O325 O 0.75154 0.43385 0.68647 0.0
O326 O 0.67522 0.42623 0.66886 0.0
O327 O 0.73528 0.39621 0.64321 0.0
H328 H 0.77323 0.52292 0.66155 0.0
H329 H 0.67686 0.51072 0.62631 0.0
H330 H 0.76653 0.58775 0.65893 0.0
H331 H 0.67218 0.57576 0.62396 0.0
H332 H 0.84556 0.38009 0.71721 0.0
H333 H 0.79126 0.49042 0.69183 0.0
H334 H 0.78628 0.37818 0.70096 0.0
H335 H 0.85075 0.49028 0.70792 0.0
H336 H 0.66678 0.58296 0.69303 0.0
H337 H 0.73838 0.53571 0.73842 0.0
H338 H 0.84636 0.50277 0.61137 0.0
H339 H 0.89026 0.42223 0.65241 0.0
H340 H 0.66425 0.42404 0.71068 0.0
H341 H 0.62681 0.46636 0.65091 0.0
H342 H 0.61634 0.45584 0.72952 0.0
H343 H 0.57947 0.49733 0.67077 0.0
H344 H 0.75092 0.40707 0.60237 0.0
H345 H 0.78155 0.35156 0.65953 0.0
H346 H 0.801 0.37972 0.58324 0.0
H347 H 0.8308 0.32479 0.63933 0.0
H348 H 0.69502 0.46142 0.56446 0.0
H349 H 0.60935 0.39651 0.58686 0.0
H350 H 0.72494 0.3238 0.73868 0.0
H351 H 0.72595 0.26837 0.67809 0.0
Li352 Li 0.5294 0.28267 0.33033 0.0
Li353 Li 0.5668 0.30049 0.35873 0.0
Li354 Li 0.59185 0.27724 0.32566 0.0
Li355 Li 0.55946 0.23847 0.35056 0.0
C356 C 0.54771 0.35358 0.33076 0.0
N357 N 0.51393 0.41779 0.3337 0.0
C358 C 0.51727 0.35692 0.3431 0.0
C359 C 0.56094 0.3829 0.3199 0.0
C360 C 0.50059 0.3896 0.34439 0.0
C361 C 0.54349 0.41513 0.32159 0.0
C362 C 0.51595 0.26378 0.38181 0.0
C363 C 0.53434 0.24742 0.41744 0.0
N364 N 0.5003 0.2481 0.42397 0.0
C365 C 0.48116 0.26421 0.38886 0.0
C366 C 0.5428 0.25521 0.39618 0.0
C367 C 0.47378 0.25625 0.41025 0.0
C368 C 0.4611 0.26357 0.32223 0.0
N369 N 0.48504 0.28828 0.31643 0.0
C370 C 0.44533 0.31195 0.29048 0.0
C371 C 0.47783 0.31246 0.30098 0.0
C372 C 0.42026 0.28612 0.29583 0.0
C373 C 0.42861 0.26186 0.31206 0.0
H374 H 0.4678 0.24438 0.33437 0.0
H375 H 0.4975 0.3316 0.29648 0.0
C376 C 0.60899 0.34032 0.38622 0.0
N377 N 0.57506 0.33181 0.38208 0.0
C378 C 0.61791 0.3572 0.40532 0.0
C379 C 0.55657 0.35771 0.41512 0.0
C380 C 0.54879 0.34144 0.39561 0.0
C381 C 0.59171 0.36479 0.42055 0.0
H382 H 0.62931 0.33262 0.37506 0.0
H383 H 0.52192 0.33472 0.39189 0.0
C384 C 0.53973 0.23624 0.29989 0.0
N385 N 0.50469 0.22752 0.2615 0.0
C386 C 0.51781 0.20717 0.29683 0.0
C387 C 0.54405 0.26073 0.28337 0.0
C388 C 0.50025 0.20328 0.27731 0.0
C389 C 0.52607 0.25588 0.26409 0.0
C390 C 0.63307 0.24338 0.35593 0.0
C391 C 0.63511 0.21444 0.34212 0.0
C392 C 0.66123 0.25104 0.36949 0.0
C393 C 0.66534 0.19366 0.34212 0.0
C394 C 0.691 0.22958 0.36904 0.0
N395 N 0.69244 0.2016 0.35547 0.0
C396 C 0.65898 0.29958 0.3113 0.0
C397 C 0.63504 0.25087 0.29261 0.0
C398 C 0.6908 0.29594 0.30031 0.0
N399 N 0.63205 0.277 0.30739 0.0
C400 C 0.66624 0.24634 0.28125 0.0
C401 C 0.69488 0.26872 0.28522 0.0
H402 H 0.65615 0.31963 0.32349 0.0
H403 H 0.61377 0.23245 0.29033 0.0
C404 C 0.5226 0.1775 0.35708 0.0
N405 N 0.55376 0.19271 0.3621 0.0
C406 C 0.5149 0.1436 0.36413 0.0
C407 C 0.57112 0.14198 0.38209 0.0
C408 C 0.57758 0.17617 0.37485 0.0
C409 C 0.53956 0.12521 0.37652 0.0
H410 H 0.5038 0.19176 0.34744 0.0
H411 H 0.60158 0.18933 0.37938 0.0
O412 O 0.56471 0.32195 0.32918 0.0
O413 O 0.52335 0.27141 0.36085 0.0
O414 O 0.55628 0.24123 0.31911 0.0
O415 O 0.60414 0.26472 0.35585 0.0
H416 H 0.50646 0.3346 0.35155 0.0
H417 H 0.58448 0.38074 0.31028 0.0
H418 H 0.47701 0.39253 0.35388 0.0
H419 H 0.55344 0.43804 0.31327 0.0
H420 H 0.55484 0.24084 0.42873 0.0
H421 H 0.4601 0.27069 0.37791 0.0
H422 H 0.56989 0.25469 0.39107 0.0
H423 H 0.44696 0.25654 0.41594 0.0
H424 H 0.44005 0.33145 0.27825 0.0
H425 H 0.41071 0.24095 0.31648 0.0
H426 H 0.64525 0.36312 0.40839 0.0
H427 H 0.53538 0.36278 0.42623 0.0
H428 H 0.51426 0.18789 0.30938 0.0
H429 H 0.56073 0.28353 0.28556 0.0
H430 H 0.48307 0.181 0.27475 0.0
H431 H 0.52897 0.27475 0.25123 0.0
H432 H 0.61358 0.20803 0.33153 0.0
H433 H 0.66012 0.27337 0.38024 0.0
H434 H 0.66727 0.17123 0.33151 0.0
H435 H 0.713 0.23522 0.37945 0.0
H436 H 0.71209 0.31393 0.30379 0.0
H437 H 0.66834 0.22455 0.27013 0.0
H438 H 0.49036 0.13154 0.35935 0.0
H439 H 0.59055 0.12879 0.39189 0.0
Li440 Li 0.21968 0.10366 0.82676 0.0
Li441 Li 0.20338 0.06994 0.86012 0.0
Li442 Li 0.26063 0.06362 0.84382 0.0
Li443 Li 0.2106 0.03823 0.82588 0.0
C444 C 0.26887 0.12216 0.86454 0.0
N445 N 0.32981 0.1503 0.88135 0.0
C446 C 0.27618 0.11878 0.88638 0.0
C447 C 0.29241 0.14011 0.85128 0.0
C448 C 0.30716 0.13313 0.89457 0.0
C449 C 0.32311 0.15407 0.86007 0.0
C450 C 0.14256 0.0605 0.83513 0.0
C451 C 0.10566 0.01505 0.85001 0.0
N452 N 0.07754 0.02918 0.83969 0.0
C453 C 0.11332 0.07456 0.82468 0.0
C454 C 0.13874 0.0305 0.84791 0.0
C455 C 0.08066 0.05834 0.82719 0.0
C456 C 0.21639 0.14793 0.79007 0.0
N457 N 0.21639 0.14727 0.81186 0.0
C458 C 0.22243 0.20986 0.8133 0.0
C459 C 0.21844 0.17741 0.82354 0.0
C460 C 0.22461 0.21122 0.79085 0.0
C461 C 0.22077 0.1798 0.77917 0.0
H462 H 0.21489 0.1235 0.7812 0.0
H463 H 0.2186 0.17606 0.84085 0.0
C464 C 0.20191 0.05737 0.90336 0.0
N465 N 0.18187 0.07139 0.88751 0.0
C466 C 0.19163 0.06036 0.92469 0.0
C467 C 0.13908 0.09048 0.91302 0.0
C468 C 0.15068 0.08733 0.8918 0.0
C469 C 0.1602 0.07765 0.92976 0.0
H470 H 0.22665 0.045 0.89943 0.0
H471 H 0.13541 0.09851 0.87887 0.0
C472 C 0.27519 0.06623 0.79852 0.0
N473 N 0.32922 0.06493 0.76892 0.0
C474 C 0.28686 0.0342 0.79004 0.0
C475 C 0.29097 0.09761 0.79179 0.0
C476 C 0.31423 0.0341 0.77515 0.0
C477 C 0.31824 0.09639 0.77685 0.0
C478 C 0.24163 0.99321 0.85716 0.0
C479 C 0.26742 0.98 0.84344 0.0
C480 C 0.22837 0.97192 0.87354 0.0
C481 C 0.27947 0.94559 0.84625 0.0
C482 C 0.24107 0.93761 0.87582 0.0
N483 N 0.26613 0.92527 0.86225 0.0
C484 C 0.31292 0.04003 0.87167 0.0
C485 C 0.3356 0.05901 0.83825 0.0
C486 C 0.34582 0.02741 0.87781 0.0
N487 N 0.30819 0.05442 0.8519 0.0
C488 C 0.36872 0.04629 0.84356 0.0
C489 C 0.37375 0.0295 0.86331 0.0
H490 H 0.29074 0.03704 0.88233 0.0
H491 H 0.33184 0.07151 0.82299 0.0
C492 C 0.20338 0.00095 0.78721 0.0
N493 N 0.19758 0.99864 0.80865 0.0
C494 C 0.2043 0.97053 0.77464 0.0
C495 C 0.18984 0.93631 0.80606 0.0
C496 C 0.18915 0.96742 0.81801 0.0
C497 C 0.19902 0.93745 0.78424 0.0
H498 H 0.20979 0.02614 0.78014 0.0
H499 H 0.18422 0.96621 0.83503 0.0
O500 O 0.23921 0.1074 0.85606 0.0
O501 O 0.17468 0.07612 0.83276 0.0
O502 O 0.2481 0.06695 0.81296 0.0
O503 O 0.22924 0.02677 0.85466 0.0
H504 H 0.25826 0.10505 0.89689 0.0
H505 H 0.28718 0.14293 0.83435 0.0
H506 H 0.31324 0.13055 0.91143 0.0
H507 H 0.34164 0.16784 0.84996 0.0
H508 H 0.10233 0.99185 0.85985 0.0
H509 H 0.11587 0.09777 0.81473 0.0
H510 H 0.16099 0.01927 0.85619 0.0
H511 H 0.0578 0.06895 0.81919 0.0
H512 H 0.22554 0.23341 0.82291 0.0
H513 H 0.22195 0.17978 0.76183 0.0
H514 H 0.20848 0.04994 0.93715 0.0
H515 H 0.11477 0.1042 0.91637 0.0
H516 H 0.27498 0.00961 0.79482 0.0
H517 H 0.28269 0.12264 0.79823 0.0
H518 H 0.32351 0.00948 0.76852 0.0
H519 H 0.33074 0.12047 0.77161 0.0
H520 H 0.27817 0.99624 0.83086 0.0
H521 H 0.20831 0.98173 0.88427 0.0
H522 H 0.29945 0.93506 0.83574 0.0
H523 H 0.23097 0.9208 0.88838 0.0
H524 H 0.34898 0.01459 0.8932 0.0
H525 H 0.39002 0.04869 0.83215 0.0
H526 H 0.21065 0.97277 0.75778 0.0
H527 H 0.18559 0.9115 0.8142 0.0
Li528 Li 0.46979 0.71446 0.32745 0.0
Li529 Li 0.43333 0.69757 0.35688 0.0
Li530 Li 0.40858 0.72711 0.32307 0.0
Li531 Li 0.44794 0.75991 0.34925 0.0
C532 C 0.44566 0.65186 0.31679 0.0
N533 N 0.47797 0.59619 0.29633 0.0
C534 C 0.47191 0.63277 0.32725 0.0
C535 C 0.43553 0.64249 0.29604 0.0
C536 C 0.48803 0.60477 0.31658 0.0
C537 C 0.45226 0.61427 0.28594 0.0
C538 C 0.48896 0.72456 0.37942 0.0
C539 C 0.47507 0.74243 0.41554 0.0
N540 N 0.50698 0.73069 0.42218 0.0
C541 C 0.52166 0.71273 0.3866 0.0
C542 C 0.46551 0.73957 0.39401 0.0
C543 C 0.53027 0.71605 0.40828 0.0
C544 C 0.5422 0.71407 0.32235 0.0
N545 N 0.51239 0.70446 0.31192 0.0
C546 C 0.54489 0.6945 0.27965 0.0
C547 C 0.51324 0.69413 0.29104 0.0
C548 C 0.57588 0.70559 0.28987 0.0
C549 C 0.5743 0.71469 0.31166 0.0
H550 H 0.54079 0.7233 0.33869 0.0
H551 H 0.48915 0.68763 0.28283 0.0
C552 C 0.3872 0.66361 0.38505 0.0
N553 N 0.42167 0.66657 0.37984 0.0
C554 C 0.37731 0.64823 0.40444 0.0
C555 C 0.43847 0.63714 0.4121 0.0
C556 C 0.44709 0.65216 0.39235 0.0
C557 C 0.40321 0.63621 0.41878 0.0
H558 H 0.36748 0.67495 0.37466 0.0
H559 H 0.47429 0.65413 0.38763 0.0
C560 C 0.46987 0.76987 0.30175 0.0
N561 N 0.51564 0.7894 0.26953 0.0
C562 C 0.50006 0.7892 0.30661 0.0
C563 C 0.46279 0.76073 0.28049 0.0
C564 C 0.52294 0.7987 0.2901 0.0
C565 C 0.48627 0.77085 0.26442 0.0
C566 C 0.37489 0.75855 0.36307 0.0
C567 C 0.35618 0.78233 0.35034 0.0
C568 C 0.36617 0.75494 0.38473 0.0
C569 C 0.32935 0.80234 0.35952 0.0
C570 C 0.33916 0.77542 0.39332 0.0
N571 N 0.32146 0.7985 0.38064 0.0
C572 C 0.34041 0.70949 0.30844 0.0
C573 C 0.36583 0.75934 0.29168 0.0
C574 C 0.309 0.71474 0.29727 0.0
N575 N 0.36788 0.73182 0.30555 0.0
C576 C 0.33503 0.76551 0.28016 0.0
C577 C 0.30591 0.74328 0.28302 0.0
H578 H 0.34267 0.68805 0.31978 0.0
H579 H 0.3877 0.77729 0.29015 0.0
C580 C 0.49219 0.81031 0.368 0.0
N581 N 0.45887 0.80508 0.36086 0.0
C582 C 0.50279 0.84334 0.37519 0.0
C583 C 0.44487 0.86553 0.36709 0.0
C584 C 0.43529 0.83188 0.36026 0.0
C585 C 0.47919 0.8717 0.37449 0.0
H586 H 0.51102 0.78908 0.36751 0.0
H587 H 0.40948 0.8276 0.35372 0.0
O588 O 0.4297 0.6794 0.32692 0.0
O589 O 0.48006 0.72095 0.35826 0.0
O590 O 0.44759 0.75963 0.31777 0.0
O591 O 0.40075 0.73812 0.35421 0.0
H592 H 0.47991 0.63974 0.34335 0.0
H593 H 0.41513 0.65702 0.28781 0.0
H594 H 0.50856 0.58987 0.3244 0.0
H595 H 0.44485 0.60679 0.26984 0.0
H596 H 0.45712 0.75401 0.42697 0.0
H597 H 0.5401 0.7008 0.37559 0.0
H598 H 0.44033 0.74915 0.38876 0.0
H599 H 0.55544 0.7069 0.41405 0.0
H600 H 0.54491 0.68716 0.26289 0.0
H601 H 0.59729 0.72408 0.32011 0.0
H602 H 0.34971 0.64707 0.40847 0.0
H603 H 0.45947 0.6283 0.42246 0.0
H604 H 0.50601 0.79635 0.32298 0.0
H605 H 0.43978 0.74539 0.27647 0.0
H606 H 0.54657 0.81338 0.29365 0.0
H607 H 0.48127 0.76371 0.24792 0.0
H608 H 0.3627 0.78583 0.33364 0.0
H609 H 0.38001 0.73648 0.39487 0.0
H610 H 0.31485 0.82098 0.34986 0.0
H611 H 0.33223 0.7729 0.41006 0.0
H612 H 0.28736 0.69676 0.29984 0.0
H613 H 0.33367 0.78817 0.26966 0.0
H614 H 0.52945 0.84673 0.38083 0.0
H615 H 0.42603 0.88674 0.3657 0.0
Li616 Li 0.78427 0.96504 0.82864 0.0
Li617 Li 0.73515 0.93393 0.84689 0.0
Li618 Li 0.79383 0.92622 0.85826 0.0
Li619 Li 0.77619 0.89914 0.82541 0.0
C620 C 0.78453 0.98836 0.87412 0.0
N621 N 0.82181 0.02122 0.90645 0.0
C622 C 0.76999 0.99164 0.89459 0.0
C623 C 0.81802 0.0019 0.87011 0.0
C624 C 0.78928 0.00827 0.91072 0.0
C625 C 0.83642 0.01845 0.88664 0.0
C626 C 0.72335 0.96195 0.80535 0.0
C627 C 0.69508 0.98405 0.77346 0.0
N628 N 0.68318 0.01227 0.78473 0.0
C629 C 0.71083 0.99125 0.8166 0.0
C630 C 0.71546 0.95838 0.78358 0.0
C631 C 0.69056 0.01635 0.8059 0.0
C632 C 0.79936 0.00624 0.79169 0.0
N633 N 0.79291 0.00762 0.81311 0.0
C634 C 0.78413 0.06987 0.81135 0.0
C635 C 0.78567 0.03864 0.82305 0.0
C636 C 0.78934 0.06918 0.78908 0.0
C637 C 0.79761 0.0369 0.77927 0.0
H638 H 0.80392 0.98106 0.78408 0.0
H639 H 0.77888 0.03896 0.83984 0.0
C640 C 0.6789 0.94273 0.87613 0.0
N641 N 0.68721 0.93652 0.85529 0.0
C642 C 0.64383 0.94634 0.88231 0.0
C643 C 0.62667 0.93522 0.84563 0.0
C644 C 0.66191 0.93197 0.8402 0.0
C645 C 0.61724 0.94295 0.86687 0.0
H646 H 0.69948 0.94501 0.88792 0.0
H647 H 0.66899 0.92623 0.82382 0.0
C648 C 0.85402 0.92052 0.83551 0.0
N649 N 0.92314 0.9074 0.84618 0.0
C650 C 0.86401 0.88723 0.84283 0.0
C651 C 0.87919 0.94705 0.8334 0.0
C652 C 0.89908 0.88115 0.84822 0.0
C653 C 0.91401 0.93992 0.83892 0.0
C654 C 0.73446 0.86221 0.85368 0.0
C655 C 0.73382 0.83691 0.86995 0.0
C656 C 0.71116 0.85929 0.83647 0.0
C657 C 0.70975 0.80923 0.86877 0.0
C658 C 0.68752 0.83121 0.83585 0.0
N659 N 0.68729 0.80697 0.85189 0.0
C660 C 0.79612 0.90416 0.89977 0.0
C661 C 0.8514 0.92793 0.89022 0.0
C662 C 0.80763 0.89779 0.92055 0.0
N663 N 0.81799 0.91853 0.88497 0.0
C664 C 0.86411 0.92201 0.91099 0.0
C665 C 0.84212 0.90645 0.92641 0.0
H666 H 0.76925 0.89837 0.89552 0.0
H667 H 0.86804 0.9406 0.87855 0.0
C668 C 0.76345 0.85889 0.7878 0.0
N669 N 0.77799 0.8581 0.80768 0.0
C670 C 0.75747 0.8276 0.77659 0.0
C671 C 0.78313 0.79542 0.80608 0.0
C672 C 0.78848 0.8273 0.81674 0.0
C673 C 0.76651 0.79515 0.78596 0.0
H674 H 0.7548 0.88363 0.78114 0.0
H675 H 0.79922 0.82728 0.83277 0.0
O676 O 0.76658 0.97128 0.85818 0.0
O677 O 0.74436 0.93766 0.81533 0.0
O678 O 0.81996 0.92691 0.82991 0.0
O679 O 0.75826 0.88922 0.85457 0.0
H680 H 0.74421 0.98137 0.89808 0.0
H681 H 0.82985 0.99928 0.85445 0.0
H682 H 0.77839 0.01084 0.92666 0.0
H683 H 0.86241 0.02889 0.88375 0.0
H684 H 0.68885 0.9816 0.75662 0.0
H685 H 0.71685 0.99479 0.83338 0.0
H686 H 0.72515 0.9362 0.7745 0.0
H687 H 0.68082 0.03914 0.81442 0.0
H688 H 0.77689 0.09398 0.81949 0.0
H689 H 0.80176 0.03524 0.76214 0.0
H690 H 0.63761 0.95179 0.89891 0.0
H691 H 0.6071 0.93279 0.83313 0.0
H692 H 0.84482 0.86646 0.84457 0.0
H693 H 0.8719 0.97285 0.82751 0.0
H694 H 0.90716 0.85559 0.85405 0.0
H695 H 0.93378 0.96022 0.83743 0.0
H696 H 0.75185 0.83852 0.88331 0.0
H697 H 0.71151 0.87827 0.82358 0.0
H698 H 0.70898 0.78949 0.88126 0.0
H699 H 0.66942 0.82864 0.82258 0.0
H700 H 0.78939 0.88677 0.93205 0.0
H701 H 0.89083 0.92931 0.91488 0.0
H702 H 0.74425 0.82877 0.76125 0.0
H703 H 0.79105 0.77118 0.81382 0.0
H704 H 0.06937 0.08142 0.05761 0.0
H705 H 0.20227 0.10584 0.96041 0.0
H706 H 0.14896 0.16254 0.05592 0.0
H707 H 0.09782 0.0652 0.9506 0.0
H708 H 0.18773 0.11762 0.99788 0.0
H709 H 0.08374 0.06653 0.02045 0.0
C710 C 0.08983 0.09612 0.04958 0.0
C711 C 0.10796 0.12333 0.06018 0.0
C712 C 0.16799 0.10608 0.98755 0.0
C713 C 0.12493 0.1057 0.01778 0.0
C714 C 0.17631 0.09919 0.96623 0.0
C715 C 0.15119 0.08449 0.95246 0.0
C716 C 0.13444 0.09776 0.99529 0.0
C717 C 0.11781 0.07673 0.96073 0.0
C718 C 0.09804 0.08746 0.02838 0.0
C719 C 0.1347 0.14084 0.04884 0.0
N720 N 0.11041 0.08327 0.98171 0.0
N721 N 0.1424 0.13164 0.02836 0.0
H722 H 0.29981 0.61259 0.54119 0.0
H723 H 0.43435 0.58598 0.44477 0.0
H724 H 0.40323 0.56951 0.55124 0.0
H725 H 0.35096 0.66313 0.44424 0.0
H726 H 0.42022 0.57271 0.48221 0.0
H727 H 0.31479 0.624 0.5038 0.0
C728 C 0.32567 0.6054 0.53545 0.0
C729 C 0.35031 0.58998 0.54927 0.0
C730 C 0.40505 0.59244 0.47377 0.0
C731 C 0.36763 0.60292 0.50645 0.0
C732 C 0.4131 0.60014 0.4524 0.0
C733 C 0.39377 0.62569 0.4411 0.0
C734 C 0.37722 0.61006 0.48385 0.0
C735 C 0.36616 0.64265 0.45192 0.0
C736 C 0.33426 0.61207 0.51415 0.0
C737 C 0.38359 0.58158 0.54109 0.0
N738 N 0.35871 0.63447 0.47259 0.0
N739 N 0.39126 0.58795 0.52012 0.0
H740 H 0.92944 0.91661 0.05558 0.0
H741 H 0.82937 0.84812 0.9507 0.0
H742 H 0.8605 0.82648 0.05369 0.0
H743 H 0.8828 0.94827 0.9527 0.0
H744 H 0.84509 0.83823 0.98798 0.0
H745 H 0.91666 0.9275 0.01754 0.0
C746 C 0.91156 0.89923 0.04721 0.0
C747 C 0.89574 0.8708 0.05792 0.0
C748 C 0.85346 0.86241 0.98033 0.0
C749 C 0.8813 0.88289 0.0145 0.0
C750 C 0.8444 0.86812 0.95901 0.0
C751 C 0.85439 0.89928 0.9486 0.0
C752 C 0.87284 0.88796 0.99148 0.0
C753 C 0.87464 0.92382 0.96007 0.0
C754 C 0.90424 0.90549 0.02555 0.0
C755 C 0.87276 0.84914 0.04629 0.0
N756 N 0.88307 0.91772 0.98097 0.0
N757 N 0.86636 0.85558 0.02528 0.0
H758 H 0.65031 0.34804 0.44405 0.0
H759 H 0.58524 0.43137 0.55388 0.0
H760 H 0.55459 0.40883 0.44776 0.0
H761 H 0.69382 0.40834 0.54023 0.0
H762 H 0.57068 0.41818 0.51628 0.0
H763 H 0.66435 0.36553 0.48046 0.0
C764 C 0.63241 0.36553 0.45229 0.0
C765 C 0.60124 0.37712 0.44252 0.0
C766 C 0.59769 0.41628 0.52156 0.0
C767 C 0.61684 0.39628 0.48484 0.0
C768 C 0.60594 0.42358 0.54297 0.0
C769 C 0.64079 0.42112 0.55009 0.0
C770 C 0.6244 0.4058 0.5074 0.0
C771 C 0.66669 0.411 0.53534 0.0
C772 C 0.64038 0.37525 0.47325 0.0
C773 C 0.57869 0.3988 0.45458 0.0
N774 N 0.65794 0.40351 0.51477 0.0
N775 N 0.58682 0.40749 0.47516 0.0
H776 H 0.21237 0.22128 0.25619 0.0
H777 H 0.40652 0.2992 0.25317 0.0
H778 H 0.24891 0.28859 0.20519 0.0
H779 H 0.35575 0.26657 0.31181 0.0
H780 H 0.35096 0.29131 0.23421 0.0
H781 H 0.26725 0.23219 0.2756 0.0
C782 C 0.23201 0.23825 0.24907 0.0
C783 C 0.22609 0.25412 0.22909 0.0
C784 C 0.35204 0.28604 0.25125 0.0
C785 C 0.28887 0.26663 0.25112 0.0
C786 C 0.38373 0.29077 0.26216 0.0
C787 C 0.38611 0.28343 0.2842 0.0
C788 C 0.32254 0.27344 0.26235 0.0
C789 C 0.35559 0.27187 0.29478 0.0
C790 C 0.26319 0.24466 0.26019 0.0
C791 C 0.2523 0.27612 0.22065 0.0
N792 N 0.32523 0.267 0.28374 0.0
N793 N 0.28264 0.28156 0.23164 0.0
H794 H 0.29845 0.77524 0.70768 0.0
H795 H 0.16368 0.87416 0.78595 0.0
H796 H 0.21202 0.7233 0.7393 0.0
H797 H 0.25198 0.92494 0.75554 0.0
H798 H 0.17986 0.819 0.76826 0.0
H799 H 0.28085 0.83067 0.72441 0.0
C800 C 0.27575 0.77547 0.71812 0.0
C801 C 0.25677 0.74446 0.7221 0.0
C802 C 0.19557 0.84228 0.76537 0.0
C803 C 0.23646 0.80796 0.74141 0.0
C804 C 0.18637 0.87379 0.7755 0.0
C805 C 0.2064 0.90437 0.77223 0.0
C806 C 0.22511 0.84122 0.7519 0.0
C807 C 0.23535 0.90229 0.75831 0.0
C808 C 0.26576 0.80714 0.72773 0.0
C809 C 0.2278 0.74637 0.736 0.0
N810 N 0.24387 0.8713 0.74875 0.0
N811 N 0.21852 0.77754 0.7451 0.0
H812 H 0.5849 0.73248 0.2494 0.0
H813 H 0.79486 0.73009 0.25625 0.0
H814 H 0.64294 0.69001 0.30288 0.0
H815 H 0.73778 0.76657 0.20077 0.0
H816 H 0.7393 0.71543 0.27351 0.0
H817 H 0.64034 0.74443 0.23103 0.0
C818 C 0.60926 0.72519 0.25716 0.0
C819 C 0.6092 0.7102 0.27775 0.0
C820 C 0.73888 0.72665 0.25756 0.0
C821 C 0.67287 0.7245 0.25695 0.0
C822 C 0.77066 0.73494 0.24764 0.0
C823 C 0.77111 0.74955 0.22697 0.0
C824 C 0.70714 0.73299 0.24678 0.0
C825 C 0.73878 0.75578 0.21681 0.0
C826 C 0.64094 0.73233 0.24674 0.0
C827 C 0.64168 0.70198 0.28715 0.0
N828 N 0.70814 0.74743 0.2268 0.0
N829 N 0.67212 0.70933 0.27673 0.0
H830 H 0.70317 0.22402 0.7016 0.0
H831 H 0.81148 0.1363 0.79781 0.0
H832 H 0.77121 0.28228 0.74409 0.0
H833 H 0.75303 0.07599 0.75136 0.0
H834 H 0.79667 0.1901 0.77833 0.0
H835 H 0.72049 0.16959 0.71969 0.0
C836 C 0.72178 0.22543 0.71469 0.0
C837 C 0.73559 0.25796 0.72134 0.0
C838 C 0.78725 0.1651 0.77229 0.0
C839 C 0.75539 0.1956 0.74223 0.0
C840 C 0.79567 0.13438 0.78344 0.0
C841 C 0.78347 0.10159 0.77622 0.0
C842 C 0.76619 0.16317 0.75384 0.0
C843 C 0.76333 0.10065 0.75737 0.0
C844 C 0.73159 0.1943 0.72505 0.0
C845 C 0.7593 0.25803 0.73861 0.0
N846 N 0.75512 0.131 0.74692 0.0
N847 N 0.76839 0.22742 0.74842 0.0
H848 H 0.76135 0.27311 0.30217 0.0
H849 H 0.85607 0.21215 0.19366 0.0
H850 H 0.70644 0.24978 0.24336 0.0
H851 H 0.91261 0.23928 0.25126 0.0
H852 H 0.80095 0.22415 0.21216 0.0
H853 H 0.81695 0.26024 0.2842 0.0
C854 C 0.76096 0.26562 0.28543 0.0
C855 C 0.72907 0.26257 0.27428 0.0
C856 C 0.82537 0.2274 0.22082 0.0
C857 C 0.79269 0.2472 0.25369 0.0
C858 C 0.85689 0.22061 0.21023 0.0
C859 C 0.88908 0.22486 0.22088 0.0
C860 C 0.82585 0.23862 0.24226 0.0
C861 C 0.88844 0.23533 0.24247 0.0
C862 C 0.79273 0.25798 0.27523 0.0
C863 C 0.73026 0.2521 0.2527 0.0
N864 N 0.85735 0.24202 0.25241 0.0
N865 N 0.76147 0.2448 0.24315 0.0
H866 H 0.32687 0.37541 0.71737 0.0
H867 H 0.19687 0.27677 0.79826 0.0
H868 H 0.23385 0.42387 0.74375 0.0
H869 H 0.27225 0.22234 0.75874 0.0
H870 H 0.21361 0.33229 0.78109 0.0
H871 H 0.31089 0.32036 0.73516 0.0
C872 C 0.30313 0.3746 0.72689 0.0
C873 C 0.28173 0.40455 0.72897 0.0
C874 C 0.22639 0.30817 0.77612 0.0
C875 C 0.26351 0.34151 0.74962 0.0
C876 C 0.2169 0.27651 0.78594 0.0
C877 C 0.23307 0.24486 0.77985 0.0
C878 C 0.25257 0.30829 0.76026 0.0
C879 C 0.25876 0.24604 0.76372 0.0
C880 C 0.29408 0.34313 0.73709 0.0
C881 C 0.25159 0.40184 0.7419 0.0
N882 N 0.26784 0.27724 0.75457 0.0
N883 N 0.24341 0.37094 0.75169 0.0
H884 H 0.29637 0.76497 0.24145 0.0
H885 H 0.0866 0.77408 0.25001 0.0
H886 H 0.23874 0.73854 0.29878 0.0
H887 H 0.14441 0.7974 0.19226 0.0
H888 H 0.14208 0.76334 0.26861 0.0
H889 H 0.24103 0.77862 0.22352 0.0
C890 C 0.27209 0.76212 0.25031 0.0
C891 C 0.27229 0.75055 0.27168 0.0
C892 C 0.14265 0.77094 0.25189 0.0
C893 C 0.20864 0.76602 0.25116 0.0
C894 C 0.11097 0.77739 0.2413 0.0
C895 C 0.1108 0.78667 0.21951 0.0
C896 C 0.17448 0.77383 0.24065 0.0
C897 C 0.14323 0.78991 0.20898 0.0
C898 C 0.24045 0.76981 0.24002 0.0
C899 C 0.23989 0.74691 0.28222 0.0
N900 N 0.17368 0.78346 0.21962 0.0
N901 N 0.20943 0.75467 0.27188 0.0
H902 H 0.70572 0.57906 0.76022 0.0
H903 H 0.76752 0.77854 0.74297 0.0
H904 H 0.71398 0.62808 0.69806 0.0
H905 H 0.74259 0.73448 0.80492 0.0
H906 H 0.74942 0.72326 0.72623 0.0
H907 H 0.72035 0.63545 0.77696 0.0
C908 C 0.7104 0.60175 0.75011 0.0
C909 C 0.70856 0.59885 0.72771 0.0
C910 C 0.74792 0.72571 0.74349 0.0
C911 C 0.7256 0.66346 0.74674 0.0
C912 C 0.75819 0.75733 0.75308 0.0
C913 C 0.75679 0.76128 0.77545 0.0
C914 C 0.73623 0.69767 0.75633 0.0
C915 C 0.74484 0.73257 0.78768 0.0
C916 C 0.71871 0.63395 0.75966 0.0
C917 C 0.71466 0.6292 0.71539 0.0
N918 N 0.7351 0.70205 0.77797 0.0
N919 N 0.72314 0.66014 0.72505 0.0
H920 H 0.03572 0.60129 0.10937 0.0
H921 H 0.96798 0.40431 0.12329 0.0
H922 H 0.92789 0.57303 0.12179 0.0
H923 H 0.07535 0.43051 0.10787 0.0
H924 H 0.95181 0.46566 0.11843 0.0
H925 H 0.04978 0.53894 0.1047 0.0
C926 C 0.01495 0.58199 0.11093 0.0
C927 C 0.98066 0.59235 0.11621 0.0
C928 C 0.97886 0.458 0.11587 0.0
C929 C 0.99653 0.52104 0.11089 0.0
C930 C 0.98812 0.42281 0.11848 0.0
C931 C 0.02318 0.41213 0.11607 0.0
C932 C 0.00485 0.48294 0.11101 0.0
C933 C 0.04813 0.43763 0.11026 0.0
C934 C 0.02296 0.54643 0.10819 0.0
C935 C 0.95464 0.5663 0.11764 0.0
N936 N 0.03854 0.47191 0.10812 0.0
N937 N 0.96321 0.53185 0.11524 0.0
H938 H 0.89617 0.53218 0.62754 0.0
H939 H 0.09794 0.47747 0.62192 0.0
H940 H 0.93209 0.42462 0.6231 0.0
H941 H 0.06175 0.58451 0.62917 0.0
H942 H 0.03735 0.4584 0.6169 0.0
H943 H 0.95634 0.55235 0.62271 0.0
C944 C 0.91663 0.51278 0.62518 0.0
C945 C 0.9091 0.47662 0.62589 0.0
C946 C 0.04268 0.48612 0.61937 0.0
C947 C 0.97824 0.49958 0.62077 0.0
C948 C 0.07729 0.49707 0.62209 0.0
C949 C 0.08487 0.53261 0.62617 0.0
C950 C 0.01541 0.51086 0.62079 0.0
C951 C 0.05702 0.55676 0.62647 0.0
C952 C 0.95105 0.52433 0.62258 0.0
C953 C 0.9368 0.45272 0.62305 0.0
N954 N 0.02348 0.54539 0.624 0.0
N955 N 0.9702 0.46463 0.62078 0.0
H956 H 0.47903 0.09578 0.39199 0.0
H957 H 0.54306 0.90183 0.36598 0.0
H958 H 0.58515 0.06996 0.37371 0.0
H959 H 0.4424 0.92453 0.39467 0.0
H960 H 0.56044 0.96265 0.37173 0.0
H961 H 0.46637 0.03301 0.39603 0.0
C962 C 0.49975 0.07686 0.38906 0.0
C963 C 0.53306 0.08799 0.38227 0.0
C964 C 0.53469 0.95428 0.37701 0.0
C965 C 0.51878 0.01627 0.38672 0.0
C966 C 0.52476 0.91939 0.37385 0.0
C967 C 0.49106 0.90794 0.37974 0.0
C968 C 0.51065 0.97817 0.38587 0.0
C969 C 0.46836 0.93229 0.38948 0.0
C970 C 0.49257 0.04108 0.39143 0.0
C971 C 0.55914 0.06251 0.37901 0.0
N972 N 0.47844 0.96635 0.39204 0.0
N973 N 0.5513 0.02779 0.38098 0.0
H974 H 0.40278 0.97669 0.84051 0.0
H975 H 0.58989 0.99459 0.89267 0.0
H976 H 0.42012 0.04195 0.89599 0.0
H977 H 0.55961 0.90639 0.85315 0.0
H978 H 0.52803 0.01098 0.89602 0.0
H979 H 0.46022 0.94966 0.84589 0.0
C980 C 0.41881 0.98509 0.85392 0.0
C981 C 0.40721 0.01167 0.86772 0.0
C982 C 0.53493 0.98769 0.88694 0.0
C983 C 0.47289 0.98125 0.87394 0.0
C984 C 0.5702 0.97822 0.88509 0.0
C985 C 0.57994 0.94946 0.87226 0.0
C986 C 0.50942 0.96846 0.87569 0.0
C987 C 0.55334 0.92933 0.86271 0.0
C988 C 0.45143 0.96958 0.85708 0.0
C989 C 0.42849 0.02155 0.885 0.0
N990 N 0.51935 0.93953 0.86434 0.0
N991 N 0.46072 0.00668 0.88747 0.0
loop_
_geom_bond_atom_site_label_1
_geom_bond_atom_site_label_2
_geom_bond_distance
_geom_bond_site_symmetry_2
_ccdc_geom_bond_type
Li0 N17 1.990 . S
Li0 O60 1.956 . S
Li0 O61 1.970 . S
Li0 O62 1.961 . S
Li1 N25 1.990 . S
Li1 O60 1.970 . S
Li1 O61 1.956 . S
Li1 O63 1.961 . S
Li2 N47 1.990 . S
Li2 O60 1.961 . S
Li2 O62 1.956 . S
Li2 O63 1.970 . S
Li3 N53 1.990 1_455 S
Li3 O61 1.961 . S
Li3 O62 1.970 . S
Li3 O63 1.956 . S
C4 C6 1.348 . S
C4 C7 1.356 . S
C4 O60 1.325 . S
N5 C8 1.314 . S
N5 C9 1.279 . S
C6 C4 1.348 . S
C6 C8 1.353 . S
C6 H64 0.929 . S
C7 C4 1.356 . S
C7 C9 1.358 . S
C7 H65 0.930 . S
C8 N5 1.314 . S
C8 C6 1.353 . S
C8 H66 0.930 . S
C9 N5 1.279 . S
C9 C7 1.358 . S
C9 H67 0.930 . S
C10 C13 1.348 . S
C10 C14 1.356 . S
C10 O61 1.325 . S
C11 N12 1.279 . S
C11 C14 1.358 . S
C11 H68 0.930 . S
N12 C11 1.279 . S
N12 C15 1.314 . S
C13 C10 1.348 . S
C13 C15 1.353 . S
C13 H69 0.929 . S
C14 C10 1.356 . S
C14 C11 1.358 . S
C14 H70 0.930 . S
C15 N12 1.314 . S
C15 C13 1.353 . S
C15 H71 0.930 . S
C16 N17 1.314 . S
C16 C21 1.353 . S
C16 H22 0.930 . S
N17 Li0 1.990 . S
N17 C16 1.314 . S
N17 C19 1.279 . S
C18 C19 1.358 . S
C18 C20 1.356 . S
C18 H72 0.930 . S
C19 N17 1.279 . S
C19 C18 1.358 . S
C19 H23 0.930 . S
C20 C18 1.356 . S
C20 C21 1.348 . S
C21 C16 1.353 . S
C21 C20 1.348 . S
C21 H73 0.929 1_455 S
H22 C16 0.930 . S
H23 C19 0.930 . S
C24 N25 1.314 . S
C24 C26 1.353 . S
C24 H30 0.930 . S
N25 Li1 1.990 . S
N25 C24 1.314 . S
N25 C28 1.279 . S
C26 C24 1.353 . S
C26 C29 1.348 . S
C26 H74 0.929 . S
C27 C28 1.358 . S
C27 C29 1.356 . S
C27 H75 0.930 . S
C28 N25 1.279 . S
C28 C27 1.358 . S
C28 H31 0.930 . S
C29 C26 1.348 . S
C29 C27 1.356 . S
H30 C24 0.930 . S
H31 C28 0.930 . S
C32 C34 1.348 . S
C32 C35 1.356 . S
C32 O62 1.325 1_655 S
N33 C36 1.314 . S
N33 C37 1.279 . S
C34 C32 1.348 . S
C34 C36 1.353 . S
C34 H76 0.929 . S
C35 C32 1.356 . S
C35 C37 1.358 . S
C35 H77 0.930 1_655 S
C36 N33 1.314 . S
C36 C34 1.353 . S
C36 H78 0.930 . S
C37 N33 1.279 . S
C37 C35 1.358 . S
C37 H79 0.930 . S
C38 C39 1.348 . S
C38 C40 1.356 . S
C38 O63 1.325 . S
C39 C38 1.348 . S
C39 C41 1.353 . S
C39 H80 0.929 . S
C40 C38 1.356 . S
C40 C42 1.358 . S
C40 H81 0.930 . S
C41 C39 1.353 . S
C41 N43 1.314 . S
C41 H82 0.930 . S
C42 C40 1.358 . S
C42 N43 1.279 . S
C42 H83 0.930 . S
N43 C41 1.314 . S
N43 C42 1.279 . S
C44 C46 1.353 . S
C44 N47 1.314 . S
C44 H50 0.930 . S
C45 N47 1.279 . S
C45 C48 1.358 . S
C45 H51 0.930 . S
C46 C44 1.353 . S
C46 C49 1.348 . S
C46 H84 0.929 . S
N47 Li2 1.990 . S
N47 C44 1.314 . S
N47 C45 1.279 . S
C48 C45 1.358 . S
C48 C49 1.356 . S
C48 H85 0.930 . S
C49 C46 1.348 . S
C49 C48 1.356 . S
H50 C44 0.930 . S
H51 C45 0.930 . S
C52 N53 1.314 . S
C52 C54 1.353 . S
C52 H58 0.930 . S
N53 Li3 1.990 1_655 S
N53 C52 1.314 . S
N53 C56 1.279 . S
C54 C52 1.353 . S
C54 C57 1.348 . S
C54 H86 0.929 . S
C55 C56 1.358 . S
C55 C57 1.356 . S
C55 H87 0.930 . S
C56 N53 1.279 . S
C56 C55 1.358 . S
C56 H59 0.930 . S
C57 C54 1.348 . S
C57 C55 1.356 . S
H58 C52 0.930 . S
H59 C56 0.930 . S
O60 Li0 1.956 . S
O60 Li1 1.970 . S
O60 Li2 1.961 . S
O60 C4 1.325 . S
O61 Li0 1.970 . S
O61 Li1 1.956 . S
O61 Li3 1.961 . S
O61 C10 1.325 . S
O62 Li0 1.961 . S
O62 Li2 1.956 . S
O62 Li3 1.970 . S
O62 C32 1.325 1_455 S
O63 Li1 1.961 . S
O63 Li2 1.970 . S
O63 Li3 1.956 . S
O63 C38 1.325 . S
H64 C6 0.929 . S
H65 C7 0.930 . S
H66 C8 0.930 . S
H67 C9 0.930 . S
H68 C11 0.930 . S
H69 C13 0.929 . S
H70 C14 0.930 . S
H71 C15 0.930 . S
H72 C18 0.930 . S
H73 C21 0.929 1_655 S
H74 C26 0.929 . S
H75 C27 0.930 . S
H76 C34 0.929 . S
H77 C35 0.930 1_455 S
H78 C36 0.930 . S
H79 C37 0.930 . S
H80 C39 0.929 . S
H81 C40 0.930 . S
H82 C41 0.930 . S
H83 C42 0.930 . S
H84 C46 0.929 . S
H85 C48 0.930 . S
H86 C54 0.929 . S
H87 C55 0.930 . S
Li88 N105 1.990 . S
Li88 O148 1.956 . S
Li88 O149 1.970 . S
Li88 O150 1.961 . S
Li89 N113 1.990 . S
Li89 O148 1.970 . S
Li89 O149 1.956 . S
Li89 O151 1.961 . S
Li90 N135 1.990 . S
Li90 O148 1.961 . S
Li90 O150 1.956 . S
Li90 O151 1.970 . S
Li91 N141 1.990 . S
Li91 O149 1.961 . S
Li91 O150 1.970 . S
Li91 O151 1.956 . S
C92 C94 1.348 . S
C92 C95 1.356 . S
C92 O148 1.325 . S
N93 C96 1.314 . S
N93 C97 1.279 . S
C94 C92 1.348 . S
C94 C96 1.353 . S
C94 H152 0.929 . S
C95 C92 1.356 . S
C95 C97 1.358 . S
C95 H153 0.930 . S
C96 N93 1.314 . S
C96 C94 1.353 . S
C96 H154 0.930 . S
C97 N93 1.279 . S
C97 C95 1.358 . S
C97 H155 0.930 . S
C98 C101 1.348 . S
C98 C102 1.356 . S
C98 O149 1.325 . S
C99 N100 1.279 . S
C99 C102 1.358 . S
C99 H156 0.930 . S
N100 C99 1.279 . S
N100 C103 1.314 . S
C101 C98 1.348 . S
C101 C103 1.353 . S
C101 H157 0.929 . S
C102 C98 1.356 . S
C102 C99 1.358 . S
C102 H158 0.930 . S
C103 N100 1.314 . S
C103 C101 1.353 . S
C103 H159 0.930 . S
C104 N105 1.314 . S
C104 C109 1.353 . S
C104 H110 0.930 . S
N105 Li88 1.990 . S
N105 C104 1.314 . S
N105 C107 1.279 . S
C106 C107 1.358 . S
C106 C108 1.356 . S
C106 H160 0.930 . S
C107 N105 1.279 . S
C107 C106 1.358 . S
C107 H111 0.930 . S
C108 C106 1.356 . S
C108 C109 1.348 . S
C109 C104 1.353 . S
C109 C108 1.348 . S
C109 H161 0.929 . S
H110 C104 0.930 . S
H111 C107 0.930 . S
C112 N113 1.314 . S
C112 C114 1.353 . S
C112 H118 0.930 . S
N113 Li89 1.990 . S
N113 C112 1.314 . S
N113 C116 1.279 . S
C114 C112 1.353 . S
C114 C117 1.348 . S
C114 H162 0.929 . S
C115 C116 1.358 . S
C115 C117 1.356 . S
C115 H163 0.930 . S
C116 N113 1.279 . S
C116 C115 1.358 . S
C116 H119 0.930 . S
C117 C114 1.348 . S
C117 C115 1.356 . S
H118 C112 0.930 . S
H119 C116 0.930 . S
C120 C122 1.348 . S
C120 C123 1.356 . S
C120 O150 1.325 . S
N121 C124 1.314 . S
N121 C125 1.279 . S
C122 C120 1.348 . S
C122 C124 1.353 . S
C122 H164 0.929 . S
C123 C120 1.356 . S
C123 C125 1.358 . S
C123 H165 0.930 . S
C124 N121 1.314 . S
C124 C122 1.353 . S
C124 H166 0.930 . S
C125 N121 1.279 . S
C125 C123 1.358 . S
C125 H167 0.930 . S
C126 C127 1.348 . S
C126 C128 1.356 . S
C126 O151 1.325 . S
C127 C126 1.348 . S
C127 C129 1.353 . S
C127 H168 0.929 . S
C128 C126 1.356 . S
C128 C130 1.358 . S
C128 H169 0.930 . S
C129 C127 1.353 . S
C129 N131 1.314 . S
C129 H170 0.930 . S
C130 C128 1.358 . S
C130 N131 1.279 . S
C130 H171 0.930 . S
N131 C129 1.314 . S
N131 C130 1.279 . S
C132 C134 1.353 . S
C132 N135 1.314 . S
C132 H138 0.930 . S
C133 N135 1.279 . S
C133 C136 1.358 . S
C133 H139 0.930 . S
C134 C132 1.353 . S
C134 C137 1.348 . S
C134 H172 0.929 . S
N135 Li90 1.990 . S
N135 C132 1.314 . S
N135 C133 1.279 . S
C136 C133 1.358 . S
C136 C137 1.356 . S
C136 H173 0.930 . S
C137 C134 1.348 . S
C137 C136 1.356 . S
H138 C132 0.930 . S
H139 C133 0.930 . S
C140 N141 1.314 . S
C140 C142 1.353 . S
C140 H146 0.930 . S
N141 Li91 1.990 . S
N141 C140 1.314 . S
N141 C144 1.279 . S
C142 C140 1.353 . S
C142 C145 1.348 . S
C142 H174 0.929 . S
C143 C144 1.358 . S
C143 C145 1.356 . S
C143 H175 0.930 . S
C144 N141 1.279 . S
C144 C143 1.358 . S
C144 H147 0.930 . S
C145 C142 1.348 . S
C145 C143 1.356 . S
H146 C140 0.930 . S
H147 C144 0.930 . S
O148 Li88 1.956 . S
O148 Li89 1.970 . S
O148 Li90 1.961 . S
O148 C92 1.325 . S
O149 Li88 1.970 . S
O149 Li89 1.956 . S
O149 Li91 1.961 . S
O149 C98 1.325 . S
O150 Li88 1.961 . S
O150 Li90 1.956 . S
O150 Li91 1.970 . S
O150 C120 1.325 . S
O151 Li89 1.961 . S
O151 Li90 1.970 . S
O151 Li91 1.956 . S
O151 C126 1.325 . S
H152 C94 0.929 . S
H153 C95 0.930 . S
H154 C96 0.930 . S
H155 C97 0.930 . S
H156 C99 0.930 . S
H157 C101 0.929 . S
H158 C102 0.930 . S
H159 C103 0.930 . S
H160 C106 0.930 . S
H161 C109 0.929 . S
H162 C114 0.929 . S
H163 C115 0.930 . S
H164 C122 0.929 . S
H165 C123 0.930 . S
H166 C124 0.930 . S
H167 C125 0.930 . S
H168 C127 0.929 . S
H169 C128 0.930 . S
H170 C129 0.930 . S
H171 C130 0.930 . S
H172 C134 0.929 . S
H173 C136 0.930 . S
H174 C142 0.929 . S
H175 C143 0.930 . S
Li176 N193 1.990 . S
Li176 O236 1.956 . S
Li176 O237 1.970 . S
Li176 O238 1.961 . S
Li177 N201 1.990 . S
Li177 O236 1.970 . S
Li177 O237 1.956 . S
Li177 O239 1.961 . S
Li178 N223 1.990 1_655 S
Li178 O236 1.961 . S
Li178 O238 1.956 . S
Li178 O239 1.970 . S
Li179 N229 1.990 . S
Li179 O237 1.961 . S
Li179 O238 1.970 . S
Li179 O239 1.956 . S
C180 C182 1.348 . S
C180 C183 1.356 . S
C180 O236 1.325 . S
N181 C184 1.314 . S
N181 C185 1.279 . S
C182 C180 1.348 . S
C182 C184 1.353 . S
C182 H240 0.929 . S
C183 C180 1.356 . S
C183 C185 1.358 . S
C183 H241 0.930 . S
C184 N181 1.314 . S
C184 C182 1.353 . S
C184 H242 0.930 . S
C185 N181 1.279 . S
C185 C183 1.358 . S
C185 H243 0.930 . S
C186 C189 1.348 . S
C186 C190 1.356 . S
C186 O237 1.325 . S
C187 N188 1.279 . S
C187 C190 1.358 . S
C187 H244 0.930 . S
N188 C187 1.279 . S
N188 C191 1.314 . S
C189 C186 1.348 . S
C189 C191 1.353 . S
C189 H245 0.929 . S
C190 C186 1.356 . S
C190 C187 1.358 . S
C190 H246 0.930 . S
C191 N188 1.314 . S
C191 C189 1.353 . S
C191 H247 0.930 . S
C192 N193 1.314 . S
C192 C197 1.353 . S
C192 H198 0.930 . S
N193 Li176 1.990 . S
N193 C192 1.314 . S
N193 C195 1.279 . S
C194 C195 1.358 . S
C194 C196 1.356 . S
C194 H248 0.930 . S
C195 N193 1.279 . S
C195 C194 1.358 . S
C195 H199 0.930 . S
C196 C194 1.356 . S
C196 C197 1.348 . S
C197 C192 1.353 . S
C197 C196 1.348 . S
C197 H249 0.929 . S
H198 C192 0.930 . S
H199 C195 0.930 . S
C200 N201 1.314 . S
C200 C202 1.353 . S
C200 H206 0.930 . S
N201 Li177 1.990 . S
N201 C200 1.314 . S
N201 C204 1.279 . S
C202 C200 1.353 . S
C202 C205 1.348 . S
C202 H250 0.929 1_655 S
C203 C204 1.358 . S
C203 C205 1.356 . S
C203 H251 0.930 . S
C204 N201 1.279 . S
C204 C203 1.358 . S
C204 H207 0.930 . S
C205 C202 1.348 . S
C205 C203 1.356 . S
H206 C200 0.930 . S
H207 C204 0.930 . S
C208 C210 1.348 . S
C208 C211 1.356 . S
C208 O238 1.325 . S
N209 C212 1.314 . S
N209 C213 1.279 . S
C210 C208 1.348 . S
C210 C212 1.353 . S
C210 H252 0.929 . S
C211 C208 1.356 . S
C211 C213 1.358 . S
C211 H253 0.930 . S
C212 N209 1.314 . S
C212 C210 1.353 . S
C212 H254 0.930 . S
C213 N209 1.279 . S
C213 C211 1.358 . S
C213 H255 0.930 . S
C214 C215 1.348 . S
C214 C216 1.356 . S
C214 O239 1.325 1_455 S
C215 C214 1.348 . S
C215 C217 1.353 . S
C215 H256 0.929 . S
C216 C214 1.356 . S
C216 C218 1.358 . S
C216 H257 0.930 1_455 S
C217 C215 1.353 . S
C217 N219 1.314 . S
C217 H258 0.930 . S
C218 C216 1.358 . S
C218 N219 1.279 . S
C218 H259 0.930 . S
N219 C217 1.314 . S
N219 C218 1.279 . S
C220 C222 1.353 . S
C220 N223 1.314 . S
C220 H226 0.930 . S
C221 N223 1.279 . S
C221 C224 1.358 . S
C221 H227 0.930 . S
C222 C220 1.353 . S
C222 C225 1.348 . S
C222 H260 0.929 . S
N223 Li178 1.990 1_455 S
N223 C220 1.314 . S
N223 C221 1.279 . S
C224 C221 1.358 . S
C224 C225 1.356 . S
C224 H261 0.930 . S
C225 C222 1.348 . S
C225 C224 1.356 . S
H226 C220 0.930 . S
H227 C221 0.930 . S
C228 N229 1.314 . S
C228 C230 1.353 . S
C228 H234 0.930 . S
N229 Li179 1.990 . S
N229 C228 1.314 . S
N229 C232 1.279 . S
C230 C228 1.353 . S
C230 C233 1.348 . S
C230 H262 0.929 . S
C231 C232 1.358 . S
C231 C233 1.356 . S
C231 H263 0.930 . S
C232 N229 1.279 . S
C232 C231 1.358 . S
C232 H235 0.930 . S
C233 C230 1.348 . S
C233 C231 1.356 . S
H234 C228 0.930 . S
H235 C232 0.930 . S
O236 Li176 1.956 . S
O236 Li177 1.970 . S
O236 Li178 1.961 . S
O236 C180 1.325 . S
O237 Li176 1.970 . S
O237 Li177 1.956 . S
O237 Li179 1.961 . S
O237 C186 1.325 . S
O238 Li176 1.961 . S
O238 Li178 1.956 . S
O238 Li179 1.970 . S
O238 C208 1.325 . S
O239 Li177 1.961 . S
O239 Li178 1.970 . S
O239 Li179 1.956 . S
O239 C214 1.325 1_655 S
H240 C182 0.929 . S
H241 C183 0.930 . S
H242 C184 0.930 . S
H243 C185 0.930 . S
H244 C187 0.930 . S
H245 C189 0.929 . S
H246 C190 0.930 . S
H247 C191 0.930 . S
H248 C194 0.930 . S
H249 C197 0.929 . S
H250 C202 0.929 1_455 S
H251 C203 0.930 . S
H252 C210 0.929 . S
H253 C211 0.930 . S
H254 C212 0.930 . S
H255 C213 0.930 . S
H256 C215 0.929 . S
H257 C216 0.930 1_655 S
H258 C217 0.930 . S
H259 C218 0.930 . S
H260 C222 0.929 . S
H261 C224 0.930 . S
H262 C230 0.929 . S
H263 C231 0.930 . S
Li264 N281 1.990 . S
Li264 O324 1.956 . S
Li264 O325 1.970 . S
Li264 O326 1.961 . S
Li265 N289 1.990 . S
Li265 O324 1.970 . S
Li265 O325 1.956 . S
Li265 O327 1.961 . S
Li266 N311 1.990 . S
Li266 O324 1.961 . S
Li266 O326 1.956 . S
Li266 O327 1.970 . S
Li267 N317 1.990 . S
Li267 O325 1.961 . S
Li267 O326 1.970 . S
Li267 O327 1.956 . S
C268 C270 1.348 . S
C268 C271 1.356 . S
C268 O324 1.325 . S
N269 C272 1.314 . S
N269 C273 1.279 . S
C270 C268 1.348 . S
C270 C272 1.353 . S
C270 H328 0.929 . S
C271 C268 1.356 . S
C271 C273 1.358 . S
C271 H329 0.930 . S
C272 N269 1.314 . S
C272 C270 1.353 . S
C272 H330 0.930 . S
C273 N269 1.279 . S
C273 C271 1.358 . S
C273 H331 0.930 . S
C274 C277 1.348 . S
C274 C278 1.356 . S
C274 O325 1.325 . S
C275 N276 1.279 . S
C275 C278 1.358 . S
C275 H332 0.930 . S
N276 C275 1.279 . S
N276 C279 1.314 . S
C277 C274 1.348 . S
C277 C279 1.353 . S
C277 H333 0.929 . S
C278 C274 1.356 . S
C278 C275 1.358 . S
C278 H334 0.930 . S
C279 N276 1.314 . S
C279 C277 1.353 . S
C279 H335 0.930 . S
C280 N281 1.314 . S
C280 C285 1.353 . S
C280 H286 0.930 . S
N281 Li264 1.990 . S
N281 C280 1.314 . S
N281 C283 1.279 . S
C282 C283 1.358 . S
C282 C284 1.356 . S
C282 H336 0.930 . S
C283 N281 1.279 . S
C283 C282 1.358 . S
C283 H287 0.930 . S
C284 C282 1.356 . S
C284 C285 1.348 . S
C285 C280 1.353 . S
C285 C284 1.348 . S
C285 H337 0.929 . S
H286 C280 0.930 . S
H287 C283 0.930 . S
C288 N289 1.314 . S
C288 C290 1.353 . S
C288 H294 0.930 . S
N289 Li265 1.990 . S
N289 C288 1.314 . S
N289 C292 1.279 . S
C290 C288 1.353 . S
C290 C293 1.348 . S
C290 H338 0.929 . S
C291 C292 1.358 . S
C291 C293 1.356 . S
C291 H339 0.930 . S
C292 N289 1.279 . S
C292 C291 1.358 . S
C292 H295 0.930 . S
C293 C290 1.348 . S
C293 C291 1.356 . S
H294 C288 0.930 . S
H295 C292 0.930 . S
C296 C298 1.348 . S
C296 C299 1.356 . S
C296 O326 1.325 . S
N297 C300 1.314 . S
N297 C301 1.279 . S
C298 C296 1.348 . S
C298 C300 1.353 . S
C298 H340 0.929 . S
C299 C296 1.356 . S
C299 C301 1.358 . S
C299 H341 0.930 . S
C300 N297 1.314 . S
C300 C298 1.353 . S
C300 H342 0.930 . S
C301 N297 1.279 . S
C301 C299 1.358 . S
C301 H343 0.930 . S
C302 C303 1.348 . S
C302 C304 1.356 . S
C302 O327 1.325 . S
C303 C302 1.348 . S
C303 C305 1.353 . S
C303 H344 0.929 . S
C304 C302 1.356 . S
C304 C306 1.358 . S
C304 H345 0.930 . S
C305 C303 1.353 . S
C305 N307 1.314 . S
C305 H346 0.930 . S
C306 C304 1.358 . S
C306 N307 1.279 . S
C306 H347 0.930 . S
N307 C305 1.314 . S
N307 C306 1.279 . S
C308 C310 1.353 . S
C308 N311 1.314 . S
C308 H314 0.930 . S
C309 N311 1.279 . S
C309 C312 1.358 . S
C309 H315 0.930 . S
C310 C308 1.353 . S
C310 C313 1.348 . S
C310 H348 0.929 . S
N311 Li266 1.990 . S
N311 C308 1.314 . S
N311 C309 1.279 . S
C312 C309 1.358 . S
C312 C313 1.356 . S
C312 H349 0.930 . S
C313 C310 1.348 . S
C313 C312 1.356 . S
H314 C308 0.930 . S
H315 C309 0.930 . S
C316 N317 1.314 . S
C316 C318 1.353 . S
C316 H322 0.930 . S
N317 Li267 1.990 . S
N317 C316 1.314 . S
N317 C320 1.279 . S
C318 C316 1.353 . S
C318 C321 1.348 . S
C318 H350 0.929 . S
C319 C320 1.358 . S
C319 C321 1.356 . S
C319 H351 0.930 . S
C320 N317 1.279 . S
C320 C319 1.358 . S
C320 H323 0.930 . S
C321 C318 1.348 . S
C321 C319 1.356 . S
H322 C316 0.930 . S
H323 C320 0.930 . S
O324 Li264 1.956 . S
O324 Li265 1.970 . S
O324 Li266 1.961 . S
O324 C268 1.325 . S
O325 Li264 1.970 . S
O325 Li265 1.956 . S
O325 Li267 1.961 . S
O325 C274 1.325 . S
O326 Li264 1.961 . S
O326 Li266 1.956 . S
O326 Li267 1.970 . S
O326 C296 1.325 . S
O327 Li265 1.961 . S
O327 Li266 1.970 . S
O327 Li267 1.956 . S
O327 C302 1.325 . S
H328 C270 0.929 . S
H329 C271 0.930 . S
H330 C272 0.930 . S
H331 C273 0.930 . S
H332 C275 0.930 . S
H333 C277 0.929 . S
H334 C278 0.930 . S
H335 C279 0.930 . S
H336 C282 0.930 . S
H337 C285 0.929 . S
H338 C290 0.929 . S
H339 C291 0.930 . S
H340 C298 0.929 . S
H341 C299 0.930 . S
H342 C300 0.930 . S
H343 C301 0.930 . S
H344 C303 0.929 . S
H345 C304 0.930 . S
H346 C305 0.930 . S
H347 C306 0.930 . S
H348 C310 0.929 . S
H349 C312 0.930 . S
H350 C318 0.929 . S
H351 C319 0.930 . S
Li352 N369 1.990 . S
Li352 O412 1.956 . S
Li352 O413 1.970 . S
Li352 O414 1.961 . S
Li353 N377 1.990 . S
Li353 O412 1.970 . S
Li353 O413 1.956 . S
Li353 O415 1.961 . S
Li354 N399 1.990 . S
Li354 O412 1.961 . S
Li354 O414 1.956 . S
Li354 O415 1.970 . S
Li355 N405 1.990 . S
Li355 O413 1.961 . S
Li355 O414 1.970 . S
Li355 O415 1.956 . S
C356 C358 1.348 . S
C356 C359 1.356 . S
C356 O412 1.325 . S
N357 C360 1.314 . S
N357 C361 1.279 . S
C358 C356 1.348 . S
C358 C360 1.353 . S
C358 H416 0.929 . S
C359 C356 1.356 . S
C359 C361 1.358 . S
C359 H417 0.930 . S
C360 N357 1.314 . S
C360 C358 1.353 . S
C360 H418 0.930 . S
C361 N357 1.279 . S
C361 C359 1.358 . S
C361 H419 0.930 . S
C362 C365 1.348 . S
C362 C366 1.356 . S
C362 O413 1.325 . S
C363 N364 1.279 . S
C363 C366 1.358 . S
C363 H420 0.930 . S
N364 C363 1.279 . S
N364 C367 1.314 . S
C365 C362 1.348 . S
C365 C367 1.353 . S
C365 H421 0.929 . S
C366 C362 1.356 . S
C366 C363 1.358 . S
C366 H422 0.930 . S
C367 N364 1.314 . S
C367 C365 1.353 . S
C367 H423 0.930 . S
C368 N369 1.314 . S
C368 C373 1.353 . S
C368 H374 0.930 . S
N369 Li352 1.990 . S
N369 C368 1.314 . S
N369 C371 1.279 . S
C370 C371 1.358 . S
C370 C372 1.356 . S
C370 H424 0.930 . S
C371 N369 1.279 . S
C371 C370 1.358 . S
C371 H375 0.930 . S
C372 C370 1.356 . S
C372 C373 1.348 . S
C373 C368 1.353 . S
C373 C372 1.348 . S
C373 H425 0.929 . S
H374 C368 0.930 . S
H375 C371 0.930 . S
C376 N377 1.314 . S
C376 C378 1.353 . S
C376 H382 0.930 . S
N377 Li353 1.990 . S
N377 C376 1.314 . S
N377 C380 1.279 . S
C378 C376 1.353 . S
C378 C381 1.348 . S
C378 H426 0.929 . S
C379 C380 1.358 . S
C379 C381 1.356 . S
C379 H427 0.930 . S
C380 N377 1.279 . S
C380 C379 1.358 . S
C380 H383 0.930 . S
C381 C378 1.348 . S
C381 C379 1.356 . S
H382 C376 0.930 . S
H383 C380 0.930 . S
C384 C386 1.348 . S
C384 C387 1.356 . S
C384 O414 1.325 . S
N385 C388 1.314 . S
N385 C389 1.279 . S
C386 C384 1.348 . S
C386 C388 1.353 . S
C386 H428 0.929 . S
C387 C384 1.356 . S
C387 C389 1.358 . S
C387 H429 0.930 . S
C388 N385 1.314 . S
C388 C386 1.353 . S
C388 H430 0.930 . S
C389 N385 1.279 . S
C389 C387 1.358 . S
C389 H431 0.930 . S
C390 C391 1.348 . S
C390 C392 1.356 . S
C390 O415 1.325 . S
C391 C390 1.348 . S
C391 C393 1.353 . S
C391 H432 0.929 . S
C392 C390 1.356 . S
C392 C394 1.358 . S
C392 H433 0.930 . S
C393 C391 1.353 . S
C393 N395 1.314 . S
C393 H434 0.930 . S
C394 C392 1.358 . S
C394 N395 1.279 . S
C394 H435 0.930 . S
N395 C393 1.314 . S
N395 C394 1.279 . S
C396 C398 1.353 . S
C396 N399 1.314 . S
C396 H402 0.930 . S
C397 N399 1.279 . S
C397 C400 1.358 . S
C397 H403 0.930 . S
C398 C396 1.353 . S
C398 C401 1.348 . S
C398 H436 0.929 . S
N399 Li354 1.990 . S
N399 C396 1.314 . S
N399 C397 1.279 . S
C400 C397 1.358 . S
C400 C401 1.356 . S
C400 H437 0.930 . S
C401 C398 1.348 . S
C401 C400 1.356 . S
H402 C396 0.930 . S
H403 C397 0.930 . S
C404 N405 1.314 . S
C404 C406 1.353 . S
C404 H410 0.930 . S
N405 Li355 1.990 . S
N405 C404 1.314 . S
N405 C408 1.279 . S
C406 C404 1.353 . S
C406 C409 1.348 . S
C406 H438 0.929 . S
C407 C408 1.358 . S
C407 C409 1.356 . S
C407 H439 0.930 . S
C408 N405 1.279 . S
C408 C407 1.358 . S
C408 H411 0.930 . S
C409 C406 1.348 . S
C409 C407 1.356 . S
H410 C404 0.930 . S
H411 C408 0.930 . S
O412 Li352 1.956 . S
O412 Li353 1.970 . S
O412 Li354 1.961 . S
O412 C356 1.325 . S
O413 Li352 1.970 . S
O413 Li353 1.956 . S
O413 Li355 1.961 . S
O413 C362 1.325 . S
O414 Li352 1.961 . S
O414 Li354 1.956 . S
O414 Li355 1.970 . S
O414 C384 1.325 . S
O415 Li353 1.961 . S
O415 Li354 1.970 . S
O415 Li355 1.956 . S
O415 C390 1.325 . S
H416 C358 0.929 . S
H417 C359 0.930 . S
H418 C360 0.930 . S
H419 C361 0.930 . S
H420 C363 0.930 . S
H421 C365 0.929 . S
H422 C366 0.930 . S
H423 C367 0.930 . S
H424 C370 0.930 . S
H425 C373 0.929 . S
H426 C378 0.929 . S
H427 C379 0.930 . S
H428 C386 0.929 . S
H429 C387 0.930 . S
H430 C388 0.930 . S
H431 C389 0.930 . S
H432 C391 0.929 . S
H433 C392 0.930 . S
H434 C393 0.930 . S
H435 C394 0.930 . S
H436 C398 0.929 . S
H437 C400 0.930 . S
H438 C406 0.929 . S
H439 C407 0.930 . S
Li440 N457 1.990 . S
Li440 O500 1.956 . S
Li440 O501 1.970 . S
Li440 O502 1.961 . S
Li441 N465 1.990 . S
Li441 O500 1.970 . S
Li441 O501 1.956 . S
Li441 O503 1.961 . S
Li442 N487 1.990 . S
Li442 O500 1.961 . S
Li442 O502 1.956 . S
Li442 O503 1.970 . S
Li443 N493 1.990 1_545 S
Li443 O501 1.961 . S
Li443 O502 1.970 . S
Li443 O503 1.956 . S
C444 C446 1.348 . S
C444 C447 1.356 . S
C444 O500 1.325 . S
N445 C448 1.314 . S
N445 C449 1.279 . S
C446 C444 1.348 . S
C446 C448 1.353 . S
C446 H504 0.929 . S
C447 C444 1.356 . S
C447 C449 1.358 . S
C447 H505 0.930 . S
C448 N445 1.314 . S
C448 C446 1.353 . S
C448 H506 0.930 . S
C449 N445 1.279 . S
C449 C447 1.358 . S
C449 H507 0.930 . S
C450 C453 1.348 . S
C450 C454 1.356 . S
C450 O501 1.325 . S
C451 N452 1.279 . S
C451 C454 1.358 . S
C451 H508 0.930 . S
N452 C451 1.279 . S
N452 C455 1.314 . S
C453 C450 1.348 . S
C453 C455 1.353 . S
C453 H509 0.929 . S
C454 C450 1.356 . S
C454 C451 1.358 . S
C454 H510 0.930 . S
C455 N452 1.314 . S
C455 C453 1.353 . S
C455 H511 0.930 . S
C456 N457 1.314 . S
C456 C461 1.353 . S
C456 H462 0.930 . S
N457 Li440 1.990 . S
N457 C456 1.314 . S
N457 C459 1.279 . S
C458 C459 1.358 . S
C458 C460 1.356 . S
C458 H512 0.930 . S
C459 N457 1.279 . S
C459 C458 1.358 . S
C459 H463 0.930 . S
C460 C458 1.356 . S
C460 C461 1.348 . S
C461 C456 1.353 . S
C461 C460 1.348 . S
C461 H513 0.929 . S
H462 C456 0.930 . S
H463 C459 0.930 . S
C464 N465 1.314 . S
C464 C466 1.353 . S
C464 H470 0.930 . S
N465 Li441 1.990 . S
N465 C464 1.314 . S
N465 C468 1.279 . S
C466 C464 1.353 . S
C466 C469 1.348 . S
C466 H514 0.929 . S
C467 C468 1.358 . S
C467 C469 1.356 . S
C467 H515 0.930 . S
C468 N465 1.279 . S
C468 C467 1.358 . S
C468 H471 0.930 . S
C469 C466 1.348 . S
C469 C467 1.356 . S
H470 C464 0.930 . S
H471 C468 0.930 . S
C472 C474 1.348 . S
C472 C475 1.356 . S
C472 O502 1.325 . S
N473 C476 1.314 . S
N473 C477 1.279 . S
C474 C472 1.348 . S
C474 C476 1.353 . S
C474 H516 0.934 . S
C475 C472 1.356 . S
C475 C477 1.358 . S
C475 H517 0.930 . S
C476 N473 1.314 . S
C476 C474 1.353 . S
C476 H518 0.930 1_545 S
C477 N473 1.279 . S
C477 C475 1.358 . S
C477 H519 0.930 . S
C478 C479 1.348 . S
C478 C480 1.356 . S
C478 O503 1.325 1_565 S
C479 C478 1.348 . S
C479 C481 1.353 . S
C479 H520 0.929 . S
C480 C478 1.356 . S
C480 C482 1.358 . S
C480 H521 0.930 . S
C481 C479 1.353 . S
C481 N483 1.314 . S
C481 H522 0.930 . S
C482 C480 1.358 . S
C482 N483 1.279 . S
C482 H523 0.930 . S
N483 C481 1.314 . S
N483 C482 1.279 . S
C484 C486 1.353 . S
C484 N487 1.314 . S
C484 H490 0.930 . S
C485 N487 1.279 . S
C485 C488 1.358 . S
C485 H491 0.930 . S
C486 C484 1.353 . S
C486 C489 1.348 . S
C486 H524 0.929 . S
N487 Li442 1.990 . S
N487 C484 1.314 . S
N487 C485 1.279 . S
C488 C485 1.358 . S
C488 C489 1.356 . S
C488 H525 0.930 . S
C489 C486 1.348 . S
C489 C488 1.356 . S
H490 C484 0.930 . S
H491 C485 0.930 . S
C492 N493 1.314 . S
C492 C494 1.353 . S
C492 H498 0.930 1_565 S
N493 Li443 1.990 1_565 S
N493 C492 1.314 . S
N493 C496 1.279 . S
C494 C492 1.353 . S
C494 C497 1.348 . S
C494 H526 0.929 . S
C495 C496 1.358 . S
C495 C497 1.356 . S
C495 H527 0.930 . S
C496 N493 1.279 . S
C496 C495 1.358 . S
C496 H499 0.930 . S
C497 C494 1.348 . S
C497 C495 1.356 . S
H498 C492 0.930 1_545 S
H499 C496 0.930 . S
O500 Li440 1.956 . S
O500 Li441 1.970 . S
O500 Li442 1.961 . S
O500 C444 1.325 . S
O501 Li440 1.970 . S
O501 Li441 1.956 . S
O501 Li443 1.961 . S
O501 C450 1.325 . S
O502 Li440 1.961 . S
O502 Li442 1.956 . S
O502 Li443 1.970 . S
O502 C472 1.325 . S
O503 Li441 1.961 . S
O503 Li442 1.970 . S
O503 Li443 1.956 . S
O503 C478 1.325 1_545 S
H504 C446 0.929 . S
H505 C447 0.930 . S
H506 C448 0.930 . S
H507 C449 0.930 . S
H508 C451 0.930 . S
H509 C453 0.929 . S
H510 C454 0.930 . S
H511 C455 0.930 . S
H512 C458 0.930 . S
H513 C461 0.929 . S
H514 C466 0.929 . S
H515 C467 0.930 . S
H516 C474 0.934 . S
H517 C475 0.930 . S
H518 C476 0.930 1_565 S
H519 C477 0.930 . S
H520 C479 0.929 . S
H521 C480 0.930 . S
H522 C481 0.930 . S
H523 C482 0.930 . S
H524 C486 0.929 . S
H525 C488 0.930 . S
H526 C494 0.929 . S
H527 C495 0.930 . S
Li528 N545 1.990 . S
Li528 O588 1.956 . S
Li528 O589 1.970 . S
Li528 O590 1.961 . S
Li529 N553 1.990 . S
Li529 O588 1.970 . S
Li529 O589 1.956 . S
Li529 O591 1.961 . S
Li530 N575 1.990 . S
Li530 O588 1.961 . S
Li530 O590 1.956 . S
Li530 O591 1.970 . S
Li531 N581 1.990 . S
Li531 O589 1.961 . S
Li531 O590 1.970 . S
Li531 O591 1.956 . S
C532 C534 1.348 . S
C532 C535 1.356 . S
C532 O588 1.325 . S
N533 C536 1.314 . S
N533 C537 1.279 . S
C534 C532 1.348 . S
C534 C536 1.353 . S
C534 H592 0.929 . S
C535 C532 1.356 . S
C535 C537 1.358 . S
C535 H593 0.930 . S
C536 N533 1.314 . S
C536 C534 1.353 . S
C536 H594 0.930 . S
C537 N533 1.279 . S
C537 C535 1.358 . S
C537 H595 0.930 . S
C538 C541 1.348 . S
C538 C542 1.356 . S
C538 O589 1.325 . S
C539 N540 1.279 . S
C539 C542 1.358 . S
C539 H596 0.930 . S
N540 C539 1.279 . S
N540 C543 1.314 . S
C541 C538 1.348 . S
C541 C543 1.353 . S
C541 H597 0.929 . S
C542 C538 1.356 . S
C542 C539 1.358 . S
C542 H598 0.930 . S
C543 N540 1.314 . S
C543 C541 1.353 . S
C543 H599 0.930 . S
C544 N545 1.314 . S
C544 C549 1.353 . S
C544 H550 0.930 . S
N545 Li528 1.990 . S
N545 C544 1.314 . S
N545 C547 1.279 . S
C546 C547 1.358 . S
C546 C548 1.356 . S
C546 H600 0.930 . S
C547 N545 1.279 . S
C547 C546 1.358 . S
C547 H551 0.930 . S
C548 C546 1.356 . S
C548 C549 1.348 . S
C549 C544 1.353 . S
C549 C548 1.348 . S
C549 H601 0.929 . S
H550 C544 0.930 . S
H551 C547 0.930 . S
C552 N553 1.314 . S
C552 C554 1.353 . S
C552 H558 0.930 . S
N553 Li529 1.990 . S
N553 C552 1.314 . S
N553 C556 1.279 . S
C554 C552 1.353 . S
C554 C557 1.348 . S
C554 H602 0.929 . S
C555 C556 1.358 . S
C555 C557 1.356 . S
C555 H603 0.930 . S
C556 N553 1.279 . S
C556 C555 1.358 . S
C556 H559 0.930 . S
C557 C554 1.348 . S
C557 C555 1.356 . S
H558 C552 0.930 . S
H559 C556 0.930 . S
C560 C562 1.348 . S
C560 C563 1.356 . S
C560 O590 1.325 . S
N561 C564 1.314 . S
N561 C565 1.279 . S
C562 C560 1.348 . S
C562 C564 1.353 . S
C562 H604 0.929 . S
C563 C560 1.356 . S
C563 C565 1.358 . S
C563 H605 0.930 . S
C564 N561 1.314 . S
C564 C562 1.353 . S
C564 H606 0.930 . S
C565 N561 1.279 . S
C565 C563 1.358 . S
C565 H607 0.930 . S
C566 C567 1.348 . S
C566 C568 1.356 . S
C566 O591 1.325 . S
C567 C566 1.348 . S
C567 C569 1.353 . S
C567 H608 0.929 . S
C568 C566 1.356 . S
C568 C570 1.358 . S
C568 H609 0.930 . S
C569 C567 1.353 . S
C569 N571 1.314 . S
C569 H610 0.930 . S
C570 C568 1.358 . S
C570 N571 1.279 . S
C570 H611 0.930 . S
N571 C569 1.314 . S
N571 C570 1.279 . S
C572 C574 1.353 . S
C572 N575 1.314 . S
C572 H578 0.930 . S
C573 N575 1.279 . S
C573 C576 1.358 . S
C573 H579 0.930 . S
C574 C572 1.353 . S
C574 C577 1.348 . S
C574 H612 0.929 . S
N575 Li530 1.990 . S
N575 C572 1.314 . S
N575 C573 1.279 . S
C576 C573 1.358 . S
C576 C577 1.356 . S
C576 H613 0.930 . S
C577 C574 1.348 . S
C577 C576 1.356 . S
H578 C572 0.930 . S
H579 C573 0.930 . S
C580 N581 1.314 . S
C580 C582 1.353 . S
C580 H586 0.930 . S
N581 Li531 1.990 . S
N581 C580 1.314 . S
N581 C584 1.279 . S
C582 C580 1.353 . S
C582 C585 1.348 . S
C582 H614 0.929 . S
C583 C584 1.358 . S
C583 C585 1.356 . S
C583 H615 0.930 . S
C584 N581 1.279 . S
C584 C583 1.358 . S
C584 H587 0.930 . S
C585 C582 1.348 . S
C585 C583 1.356 . S
H586 C580 0.930 . S
H587 C584 0.930 . S
O588 Li528 1.956 . S
O588 Li529 1.970 . S
O588 Li530 1.961 . S
O588 C532 1.325 . S
O589 Li528 1.970 . S
O589 Li529 1.956 . S
O589 Li531 1.961 . S
O589 C538 1.325 . S
O590 Li528 1.961 . S
O590 Li530 1.956 . S
O590 Li531 1.970 . S
O590 C560 1.325 . S
O591 Li529 1.961 . S
O591 Li530 1.970 . S
O591 Li531 1.956 . S
O591 C566 1.325 . S
H592 C534 0.929 . S
H593 C535 0.930 . S
H594 C536 0.930 . S
H595 C537 0.930 . S
H596 C539 0.930 . S
H597 C541 0.929 . S
H598 C542 0.930 . S
H599 C543 0.930 . S
H600 C546 0.930 . S
H601 C549 0.929 . S
H602 C554 0.929 . S
H603 C555 0.930 . S
H604 C562 0.929 . S
H605 C563 0.930 . S
H606 C564 0.930 . S
H607 C565 0.930 . S
H608 C567 0.929 . S
H609 C568 0.930 . S
H610 C569 0.930 . S
H611 C570 0.930 . S
H612 C574 0.929 . S
H613 C576 0.930 . S
H614 C582 0.929 . S
H615 C583 0.930 . S
Li616 N633 1.990 1_565 S
Li616 O676 1.956 . S
Li616 O677 1.970 . S
Li616 O678 1.961 . S
Li617 N641 1.990 . S
Li617 O676 1.970 . S
Li617 O677 1.956 . S
Li617 O679 1.961 . S
Li618 N663 1.990 . S
Li618 O676 1.961 . S
Li618 O678 1.956 . S
Li618 O679 1.970 . S
Li619 N669 1.990 . S
Li619 O677 1.961 . S
Li619 O678 1.970 . S
Li619 O679 1.956 . S
C620 C622 1.348 . S
C620 C623 1.356 . S
C620 O676 1.325 1_545 S
N621 C624 1.314 . S
N621 C625 1.279 . S
C622 C620 1.348 . S
C622 C624 1.353 . S
C622 H680 0.929 . S
C623 C620 1.356 . S
C623 C625 1.358 . S
C623 H681 0.930 . S
C624 N621 1.314 . S
C624 C622 1.353 . S
C624 H682 0.930 . S
C625 N621 1.279 . S
C625 C623 1.358 . S
C625 H683 0.930 . S
C626 C629 1.348 . S
C626 C630 1.356 . S
C626 O677 1.325 . S
C627 N628 1.279 . S
C627 C630 1.358 . S
C627 H684 0.930 . S
N628 C627 1.279 . S
N628 C631 1.314 . S
C629 C626 1.348 . S
C629 C631 1.353 . S
C629 H685 0.934 . S
C630 C626 1.356 . S
C630 C627 1.358 . S
C630 H686 0.930 . S
C631 N628 1.314 . S
C631 C629 1.353 . S
C631 H687 0.930 1_565 S
C632 N633 1.314 . S
C632 C637 1.353 . S
C632 H638 0.930 1_545 S
N633 Li616 1.990 1_545 S
N633 C632 1.314 . S
N633 C635 1.279 . S
C634 C635 1.358 . S
C634 C636 1.356 . S
C634 H688 0.930 . S
C635 N633 1.279 . S
C635 C634 1.358 . S
C635 H639 0.930 . S
C636 C634 1.356 . S
C636 C637 1.348 . S
C637 C632 1.353 . S
C637 C636 1.348 . S
C637 H689 0.929 . S
H638 C632 0.930 1_565 S
H639 C635 0.930 . S
C640 N641 1.314 . S
C640 C642 1.353 . S
C640 H646 0.930 . S
N641 Li617 1.990 . S
N641 C640 1.314 . S
N641 C644 1.279 . S
C642 C640 1.353 . S
C642 C645 1.348 . S
C642 H690 0.929 . S
C643 C644 1.358 . S
C643 C645 1.356 . S
C643 H691 0.930 . S
C644 N641 1.279 . S
C644 C643 1.358 . S
C644 H647 0.930 . S
C645 C642 1.348 . S
C645 C643 1.356 . S
H646 C640 0.930 . S
H647 C644 0.930 . S
C648 C650 1.348 . S
C648 C651 1.356 . S
C648 O678 1.325 . S
N649 C652 1.314 . S
N649 C653 1.279 . S
C650 C648 1.348 . S
C650 C652 1.353 . S
C650 H692 0.929 . S
C651 C648 1.356 . S
C651 C653 1.358 . S
C651 H693 0.930 . S
C652 N649 1.314 . S
C652 C650 1.353 . S
C652 H694 0.930 . S
C653 N649 1.279 . S
C653 C651 1.358 . S
C653 H695 0.930 . S
C654 C655 1.348 . S
C654 C656 1.356 . S
C654 O679 1.325 . S
C655 C654 1.348 . S
C655 C657 1.353 . S
C655 H696 0.929 . S
C656 C654 1.356 . S
C656 C658 1.358 . S
C656 H697 0.930 . S
C657 C655 1.353 . S
C657 N659 1.314 . S
C657 H698 0.930 . S
C658 C656 1.358 . S
C658 N659 1.279 . S
C658 H699 0.930 . S
N659 C657 1.314 . S
N659 C658 1.279 . S
C660 C662 1.353 . S
C660 N663 1.314 . S
C660 H666 0.930 . S
C661 N663 1.279 . S
C661 C664 1.358 . S
C661 H667 0.930 . S
C662 C660 1.353 . S
C662 C665 1.348 . S
C662 H700 0.929 . S
N663 Li618 1.990 . S
N663 C660 1.314 . S
N663 C661 1.279 . S
C664 C661 1.358 . S
C664 C665 1.356 . S
C664 H701 0.930 . S
C665 C662 1.348 . S
C665 C664 1.356 . S
H666 C660 0.930 . S
H667 C661 0.930 . S
C668 N669 1.314 . S
C668 C670 1.353 . S
C668 H674 0.930 . S
N669 Li619 1.990 . S
N669 C668 1.314 . S
N669 C672 1.279 . S
C670 C668 1.353 . S
C670 C673 1.348 . S
C670 H702 0.929 . S
C671 C672 1.358 . S
C671 C673 1.356 . S
C671 H703 0.930 . S
C672 N669 1.279 . S
C672 C671 1.358 . S
C672 H675 0.930 . S
C673 C670 1.348 . S
C673 C671 1.356 . S
H674 C668 0.930 . S
H675 C672 0.930 . S
O676 Li616 1.956 . S
O676 Li617 1.970 . S
O676 Li618 1.961 . S
O676 C620 1.325 1_565 S
O677 Li616 1.970 . S
O677 Li617 1.956 . S
O677 Li619 1.961 . S
O677 C626 1.325 . S
O678 Li616 1.961 . S
O678 Li618 1.956 . S
O678 Li619 1.970 . S
O678 C648 1.325 . S
O679 Li617 1.961 . S
O679 Li618 1.970 . S
O679 Li619 1.956 . S
O679 C654 1.325 . S
H680 C622 0.929 . S
H681 C623 0.930 . S
H682 C624 0.930 . S
H683 C625 0.930 . S
H684 C627 0.930 . S
H685 C629 0.934 . S
H686 C630 0.930 . S
H687 C631 0.930 1_545 S
H688 C634 0.930 . S
H689 C637 0.929 . S
H690 C642 0.929 . S
H691 C643 0.930 . S
H692 C650 0.929 . S
H693 C651 0.930 . S
H694 C652 0.930 . S
H695 C653 0.930 . S
H696 C655 0.929 . S
H697 C656 0.930 . S
H698 C657 0.930 . S
H699 C658 0.930 . S
H700 C662 0.929 . S
H701 C664 0.930 . S
H702 C670 0.929 . S
H703 C671 0.930 . S
H704 C710 0.930 . S
H705 C714 0.930 . S
H706 C719 0.929 . S
H707 C717 0.929 . S
H708 C712 0.929 . S
H709 C718 0.929 . S
C710 H704 0.930 . S
C710 C711 1.367 . S
C710 C718 1.378 . S
C711 C710 1.367 . S
C711 C719 1.433 . S
C712 H708 0.929 . S
C712 C714 1.378 . S
C712 C716 1.350 . S
C713 C716 1.463 1_554 S
C713 C718 1.350 . S
C713 N721 1.427 . S
C714 H705 0.930 . S
C714 C712 1.378 . S
C714 C715 1.367 . S
C715 C714 1.367 . S
C715 C717 1.433 . S
C716 C712 1.350 . S
C716 C713 1.463 1_556 S
C716 N720 1.427 . S
C717 H707 0.929 . S
C717 C715 1.433 . S
C717 N720 1.384 . S
C718 H709 0.929 . S
C718 C710 1.378 . S
C718 C713 1.350 . S
C719 H706 0.929 . S
C719 C711 1.433 . S
C719 N721 1.384 . S
N720 C716 1.427 . S
N720 C717 1.384 . S
N721 C713 1.427 . S
N721 C719 1.384 . S
H722 C728 0.930 . S
H723 C732 0.930 . S
H724 C737 0.929 . S
H725 C735 0.929 . S
H726 C730 0.929 . S
H727 C736 0.929 . S
C728 H722 0.930 . S
C728 C729 1.367 . S
C728 C736 1.378 . S
C729 C728 1.367 . S
C729 C737 1.433 . S
C730 H726 0.929 . S
C730 C732 1.378 . S
C730 C734 1.350 . S
C731 C734 1.463 . S
C731 C736 1.350 . S
C731 N739 1.427 . S
C732 H723 0.930 . S
C732 C730 1.378 . S
C732 C733 1.367 . S
C733 C732 1.367 . S
C733 C735 1.433 . S
C734 C730 1.350 . S
C734 C731 1.463 . S
C734 N738 1.427 . S
C735 H725 0.929 . S
C735 C733 1.433 . S
C735 N738 1.384 . S
C736 H727 0.929 . S
C736 C728 1.378 . S
C736 C731 1.350 . S
C737 H724 0.929 . S
C737 C729 1.433 . S
C737 N739 1.384 . S
N738 C734 1.427 . S
N738 C735 1.384 . S
N739 C731 1.427 . S
N739 C737 1.384 . S
H740 C746 0.930 . S
H741 C750 0.930 . S
H742 C755 0.929 . S
H743 C753 0.929 . S
H744 C748 0.929 . S
H745 C754 0.929 . S
C746 H740 0.930 . S
C746 C747 1.367 . S
C746 C754 1.378 . S
C747 C746 1.367 . S
C747 C755 1.433 . S
C748 H744 0.929 . S
C748 C750 1.378 . S
C748 C752 1.350 . S
C749 C752 1.463 1_554 S
C749 C754 1.350 . S
C749 N757 1.427 . S
C750 H741 0.930 . S
C750 C748 1.378 . S
C750 C751 1.367 . S
C751 C750 1.367 . S
C751 C753 1.433 . S
C752 C748 1.350 . S
C752 C749 1.463 1_556 S
C752 N756 1.427 . S
C753 H743 0.929 . S
C753 C751 1.433 . S
C753 N756 1.384 . S
C754 H745 0.929 . S
C754 C746 1.378 . S
C754 C749 1.350 . S
C755 H742 0.929 . S
C755 C747 1.433 . S
C755 N757 1.384 . S
N756 C752 1.427 . S
N756 C753 1.384 . S
N757 C749 1.427 . S
N757 C755 1.384 . S
H758 C764 0.930 . S
H759 C768 0.930 . S
H760 C773 0.929 . S
H761 C771 0.929 . S
H762 C766 0.929 . S
H763 C772 0.929 . S
C764 H758 0.930 . S
C764 C765 1.367 . S
C764 C772 1.378 . S
C765 C764 1.367 . S
C765 C773 1.433 . S
C766 H762 0.929 . S
C766 C768 1.378 . S
C766 C770 1.350 . S
C767 C770 1.463 . S
C767 C772 1.350 . S
C767 N775 1.427 . S
C768 H759 0.930 . S
C768 C766 1.378 . S
C768 C769 1.367 . S
C769 C768 1.367 . S
C769 C771 1.433 . S
C770 C766 1.350 . S
C770 C767 1.463 . S
C770 N774 1.427 . S
C771 H761 0.929 . S
C771 C769 1.433 . S
C771 N774 1.384 . S
C772 H763 0.929 . S
C772 C764 1.378 . S
C772 C767 1.350 . S
C773 H760 0.929 . S
C773 C765 1.433 . S
C773 N775 1.384 . S
N774 C770 1.427 . S
N774 C771 1.384 . S
N775 C767 1.427 . S
N775 C773 1.384 . S
H776 C782 0.930 . S
H777 C786 0.930 . S
H778 C791 0.929 . S
H779 C789 0.929 . S
H780 C784 0.929 . S
H781 C790 0.929 . S
C782 H776 0.930 . S
C782 C783 1.367 . S
C782 C790 1.378 . S
C783 C782 1.367 . S
C783 C791 1.433 . S
C784 H780 0.929 . S
C784 C786 1.378 . S
C784 C788 1.350 . S
C785 C788 1.463 . S
C785 C790 1.350 . S
C785 N793 1.427 . S
C786 H777 0.930 . S
C786 C784 1.378 . S
C786 C787 1.367 . S
C787 C786 1.367 . S
C787 C789 1.433 . S
C788 C784 1.350 . S
C788 C785 1.463 . S
C788 N792 1.427 . S
C789 H779 0.929 . S
C789 C787 1.433 . S
C789 N792 1.384 . S
C790 H781 0.929 . S
C790 C782 1.378 . S
C790 C785 1.350 . S
C791 H778 0.929 . S
C791 C783 1.433 . S
C791 N793 1.384 . S
N792 C788 1.427 . S
N792 C789 1.384 . S
N793 C785 1.427 . S
N793 C791 1.384 . S
H794 C800 0.930 . S
H795 C804 0.930 . S
H796 C809 0.929 . S
H797 C807 0.929 . S
H798 C802 0.929 . S
H799 C808 0.929 . S
C800 H794 0.930 . S
C800 C801 1.367 . S
C800 C808 1.378 . S
C801 C800 1.367 . S
C801 C809 1.433 . S
C802 H798 0.929 . S
C802 C804 1.378 . S
C802 C806 1.350 . S
C803 C806 1.463 . S
C803 C808 1.350 . S
C803 N811 1.427 . S
C804 H795 0.930 . S
C804 C802 1.378 . S
C804 C805 1.367 . S
C805 C804 1.367 . S
C805 C807 1.433 . S
C806 C802 1.350 . S
C806 C803 1.463 . S
C806 N810 1.427 . S
C807 H797 0.929 . S
C807 C805 1.433 . S
C807 N810 1.384 . S
C808 H799 0.929 . S
C808 C800 1.378 . S
C808 C803 1.350 . S
C809 H796 0.929 . S
C809 C801 1.433 . S
C809 N811 1.384 . S
N810 C806 1.427 . S
N810 C807 1.384 . S
N811 C803 1.427 . S
N811 C809 1.384 . S
H812 C818 0.930 . S
H813 C822 0.930 . S
H814 C827 0.929 . S
H815 C825 0.929 . S
H816 C820 0.929 . S
H817 C826 0.929 . S
C818 H812 0.930 . S
C818 C819 1.367 . S
C818 C826 1.378 . S
C819 C818 1.367 . S
C819 C827 1.433 . S
C820 H816 0.929 . S
C820 C822 1.378 . S
C820 C824 1.350 . S
C821 C824 1.463 . S
C821 C826 1.350 . S
C821 N829 1.427 . S
C822 H813 0.930 . S
C822 C820 1.378 . S
C822 C823 1.367 . S
C823 C822 1.367 . S
C823 C825 1.433 . S
C824 C820 1.350 . S
C824 C821 1.463 . S
C824 N828 1.427 . S
C825 H815 0.929 . S
C825 C823 1.433 . S
C825 N828 1.384 . S
C826 H817 0.929 . S
C826 C818 1.378 . S
C826 C821 1.350 . S
C827 H814 0.929 . S
C827 C819 1.433 . S
C827 N829 1.384 . S
N828 C824 1.427 . S
N828 C825 1.384 . S
N829 C821 1.427 . S
N829 C827 1.384 . S
H830 C836 0.930 . S
H831 C840 0.930 . S
H832 C845 0.929 . S
H833 C843 0.929 . S
H834 C838 0.929 . S
H835 C844 0.929 . S
C836 H830 0.930 . S
C836 C837 1.367 . S
C836 C844 1.378 . S
C837 C836 1.367 . S
C837 C845 1.433 . S
C838 H834 0.929 . S
C838 C840 1.378 . S
C838 C842 1.350 . S
C839 C842 1.463 . S
C839 C844 1.350 . S
C839 N847 1.427 . S
C840 H831 0.930 . S
C840 C838 1.378 . S
C840 C841 1.367 . S
C841 C840 1.367 . S
C841 C843 1.433 . S
C842 C838 1.350 . S
C842 C839 1.463 . S
C842 N846 1.427 . S
C843 H833 0.929 . S
C843 C841 1.433 . S
C843 N846 1.384 . S
C844 H835 0.929 . S
C844 C836 1.378 . S
C844 C839 1.350 . S
C845 H832 0.929 . S
C845 C837 1.433 . S
C845 N847 1.384 . S
N846 C842 1.427 . S
N846 C843 1.384 . S
N847 C839 1.427 . S
N847 C845 1.384 . S
H848 C854 0.930 . S
H849 C858 0.930 . S
H850 C863 0.929 . S
H851 C861 0.929 . S
H852 C856 0.929 . S
H853 C862 0.929 . S
C854 H848 0.930 . S
C854 C855 1.367 . S
C854 C862 1.378 . S
C855 C854 1.367 . S
C855 C863 1.433 . S
C856 H852 0.929 . S
C856 C858 1.378 . S
C856 C860 1.350 . S
C857 C860 1.463 . S
C857 C862 1.350 . S
C857 N865 1.427 . S
C858 H849 0.930 . S
C858 C856 1.378 . S
C858 C859 1.367 . S
C859 C858 1.367 . S
C859 C861 1.433 . S
C860 C856 1.350 . S
C860 C857 1.463 . S
C860 N864 1.427 . S
C861 H851 0.929 . S
C861 C859 1.433 . S
C861 N864 1.384 . S
C862 H853 0.929 . S
C862 C854 1.378 . S
C862 C857 1.350 . S
C863 H850 0.929 . S
C863 C855 1.433 . S
C863 N865 1.384 . S
N864 C860 1.427 . S
N864 C861 1.384 . S
N865 C857 1.427 . S
N865 C863 1.384 . S
H866 C872 0.930 . S
H867 C876 0.930 . S
H868 C881 0.929 . S
H869 C879 0.929 . S
H870 C874 0.929 . S
H871 C880 0.929 . S
C872 H866 0.930 . S
C872 C873 1.367 . S
C872 C880 1.378 . S
C873 C872 1.367 . S
C873 C881 1.433 . S
C874 H870 0.929 . S
C874 C876 1.378 . S
C874 C878 1.350 . S
C875 C878 1.463 . S
C875 C880 1.350 . S
C875 N883 1.427 . S
C876 H867 0.930 . S
C876 C874 1.378 . S
C876 C877 1.367 . S
C877 C876 1.367 . S
C877 C879 1.433 . S
C878 C874 1.350 . S
C878 C875 1.463 . S
C878 N882 1.427 . S
C879 H869 0.929 . S
C879 C877 1.433 . S
C879 N882 1.384 . S
C880 H871 0.929 . S
C880 C872 1.378 . S
C880 C875 1.350 . S
C881 H868 0.929 . S
C881 C873 1.433 . S
C881 N883 1.384 . S
N882 C878 1.427 . S
N882 C879 1.384 . S
N883 C875 1.427 . S
N883 C881 1.384 . S
H884 C890 0.930 . S
H885 C894 0.930 . S
H886 C899 0.929 . S
H887 C897 0.929 . S
H888 C892 0.929 . S
H889 C898 0.929 . S
C890 H884 0.930 . S
C890 C891 1.367 . S
C890 C898 1.378 . S
C891 C890 1.367 . S
C891 C899 1.433 . S
C892 H888 0.929 . S
C892 C894 1.378 . S
C892 C896 1.350 . S
C893 C896 1.463 . S
C893 C898 1.350 . S
C893 N901 1.427 . S
C894 H885 0.930 . S
C894 C892 1.378 . S
C894 C895 1.367 . S
C895 C894 1.367 . S
C895 C897 1.433 . S
C896 C892 1.350 . S
C896 C893 1.463 . S
C896 N900 1.427 . S
C897 H887 0.929 . S
C897 C895 1.433 . S
C897 N900 1.384 . S
C898 H889 0.929 . S
C898 C890 1.378 . S
C898 C893 1.350 . S
C899 H886 0.929 . S
C899 C891 1.433 . S
C899 N901 1.384 . S
N900 C896 1.427 . S
N900 C897 1.384 . S
N901 C893 1.427 . S
N901 C899 1.384 . S
H902 C908 0.930 . S
H903 C912 0.930 . S
H904 C917 0.929 . S
H905 C915 0.929 . S
H906 C910 0.929 . S
H907 C916 0.929 . S
C908 H902 0.930 . S
C908 C909 1.367 . S
C908 C916 1.378 . S
C909 C908 1.367 . S
C909 C917 1.433 . S
C910 H906 0.929 . S
C910 C912 1.378 . S
C910 C914 1.350 . S
C911 C914 1.463 . S
C911 C916 1.350 . S
C911 N919 1.427 . S
C912 H903 0.930 . S
C912 C910 1.378 . S
C912 C913 1.367 . S
C913 C912 1.367 . S
C913 C915 1.433 . S
C914 C910 1.350 . S
C914 C911 1.463 . S
C914 N918 1.427 . S
C915 H905 0.929 . S
C915 C913 1.433 . S
C915 N918 1.384 . S
C916 H907 0.929 . S
C916 C908 1.378 . S
C916 C911 1.350 . S
C917 H904 0.929 . S
C917 C909 1.433 . S
C917 N919 1.384 . S
N918 C914 1.427 . S
N918 C915 1.384 . S
N919 C911 1.427 . S
N919 C917 1.384 . S
H920 C926 0.930 . S
H921 C930 0.930 . S
H922 C935 0.929 . S
H923 C933 0.929 . S
H924 C928 0.929 . S
H925 C934 0.929 . S
C926 H920 0.930 . S
C926 C927 1.367 . S
C926 C934 1.378 1_655 S
C927 C926 1.367 . S
C927 C935 1.433 . S
C928 H924 0.929 . S
C928 C930 1.378 1_655 S
C928 C932 1.350 1_655 S
C929 C932 1.463 1_655 S
C929 C934 1.350 1_655 S
C929 N937 1.427 . S
C930 H921 0.930 . S
C930 C928 1.378 1_455 S
C930 C931 1.367 . S
C931 C930 1.367 . S
C931 C933 1.433 . S
C932 C928 1.350 1_455 S
C932 C929 1.463 1_455 S
C932 N936 1.427 . S
C933 H923 0.929 . S
C933 C931 1.433 . S
C933 N936 1.384 . S
C934 H925 0.929 . S
C934 C926 1.378 1_455 S
C934 C929 1.350 1_455 S
C935 H922 0.929 . S
C935 C927 1.433 . S
C935 N937 1.384 . S
N936 C932 1.427 . S
N936 C933 1.384 . S
N937 C929 1.427 . S
N937 C935 1.384 . S
H938 C944 0.930 . S
H939 C948 0.930 . S
H940 C953 0.929 . S
H941 C951 0.929 . S
H942 C946 0.929 . S
H943 C952 0.929 . S
C944 H938 0.930 . S
C944 C945 1.367 . S
C944 C952 1.378 . S
C945 C944 1.367 . S
C945 C953 1.433 . S
C946 H942 0.929 . S
C946 C948 1.378 . S
C946 C950 1.350 . S
C947 C950 1.463 1_655 S
C947 C952 1.350 . S
C947 N955 1.427 . S
C948 H939 0.930 . S
C948 C946 1.378 . S
C948 C949 1.367 . S
C949 C948 1.367 . S
C949 C951 1.433 . S
C950 C946 1.350 . S
C950 C947 1.463 1_455 S
C950 N954 1.427 . S
C951 H941 0.929 . S
C951 C949 1.433 . S
C951 N954 1.384 . S
C952 H943 0.929 . S
C952 C944 1.378 . S
C952 C947 1.350 . S
C953 H940 0.929 . S
C953 C945 1.433 . S
C953 N955 1.384 . S
N954 C950 1.427 . S
N954 C951 1.384 . S
N955 C947 1.427 . S
N955 C953 1.384 . S
H956 C962 0.930 . S
H957 C966 0.930 . S
H958 C971 0.929 . S
H959 C969 0.929 . S
H960 C964 0.929 . S
H961 C970 0.929 . S
C962 H956 0.930 . S
C962 C963 1.367 . S
C962 C970 1.378 . S
C963 C962 1.367 . S
C963 C971 1.433 . S
C964 H960 0.929 . S
C964 C966 1.378 . S
C964 C968 1.350 . S
C965 C968 1.463 1_545 S
C965 C970 1.350 . S
C965 N973 1.427 . S
C966 H957 0.930 . S
C966 C964 1.378 . S
C966 C967 1.367 . S
C967 C966 1.367 . S
C967 C969 1.433 . S
C968 C964 1.350 . S
C968 C965 1.463 1_565 S
C968 N972 1.427 . S
C969 H959 0.929 . S
C969 C967 1.433 . S
C969 N972 1.384 . S
C970 H961 0.929 . S
C970 C962 1.378 . S
C970 C965 1.350 . S
C971 H958 0.929 . S
C971 C963 1.433 . S
C971 N973 1.384 . S
N972 C968 1.427 . S
N972 C969 1.384 . S
N973 C965 1.427 . S
N973 C971 1.384 . S
H974 C980 0.930 . S
H975 C984 0.930 . S
H976 C989 0.929 . S
H977 C987 0.929 . S
H978 C982 0.929 1_545 S
H979 C988 0.929 1_565 S
C980 H974 0.930 . S
C980 C981 1.367 . S
C980 C988 1.378 . S
C981 C980 1.367 . S
C981 C989 1.433 . S
C982 H978 0.929 1_565 S
C982 C984 1.378 . S
C982 C986 1.350 . S
C983 C986 1.463 1_545 S
C983 C988 1.350 . S
C983 N991 1.427 . S
C984 H975 0.930 . S
C984 C982 1.378 . S
C984 C985 1.367 . S
C985 C984 1.367 . S
C985 C987 1.433 . S
C986 C982 1.350 . S
C986 C983 1.463 1_565 S
C986 N990 1.427 . S
C987 H977 0.929 . S
C987 C985 1.433 . S
C987 N990 1.384 . S
C988 H979 0.929 1_545 S
C988 C980 1.378 . S
C988 C983 1.350 . S
C989 H976 0.929 . S
C989 C981 1.433 . S
C989 N991 1.384 . S
N990 C986 1.427 . S
N990 C987 1.384 . S
N991 C983 1.427 . S
N991 C989 1.384 . S
C711 C49 1.310 . S
C715 C469 1.307 . S
C729 C108 1.308 . S
C733 C557 1.310 . S
C747 C233 1.310 . S
C751 C665 1.306 . S
C765 C381 1.303 . S
C769 C313 1.312 . S
C783 C29 1.909 . S
C787 C372 1.836 . S
C801 C117 1.909 . S
C805 C497 1.847 . S
C819 C548 1.831 . S
C823 C196 1.906 . S
C837 C321 1.903 . S
C841 C636 1.840 . S
C855 C401 1.900 . S
C859 C57 1.824 . S
C873 C137 1.848 . S
C877 C460 1.910 . S
C891 C577 1.902 . S
C895 C225 1.825 . S
C909 C284 1.847 . S
C913 C673 1.910 . S
C927 C205 0.249 . S
C931 C20 0.234 . S
C945 C293 0.240 . S
C949 C145 0.267 . S
C963 C409 0.248 . S
C967 C585 0.234 . S
C981 C489 0.240 . S
C985 C645 0.268 . S
