# Generated by pormake.
# Topology ske, (6)-cn, num edge types: 1
# Building blocks:
#     Node 0, Type 0, BuildingBlock: MIFKUJ_clean_sbu_0, # of connection points: 6
#     Node 1, Type 0, BuildingBlock: MIFKUJ_clean_sbu_0, # of connection points: 6
#     Node 2, Type 0, BuildingBlock: MIFKUJ_clean_sbu_0, # of connection points: 6
#     Node 3, Type 0, BuildingBlock: MIFKUJ_clean_sbu_0, # of connection points: 6
#     Node 4, Type 0, BuildingBlock: MIFKUJ_clean_sbu_0, # of connection points: 6
#     Node 5, Type 0, BuildingBlock: MIFKUJ_clean_sbu_0, # of connection points: 6
#     Node 6, Type 0, BuildingBlock: MIFKUJ_clean_sbu_0, # of connection points: 6
#     Node 7, Type 0, BuildingBlock: MIFKUJ_clean_sbu_0, # of connection points: 6
#     Edge 8, Type (0, 0), BuildingBlock: OJICUG_clean_linker_0, # of connection points: 2
#     Edge 9, Type (0, 0), BuildingBlock: OJICUG_clean_linker_0, # of connection points: 2
#     Edge 10, Type (0, 0), BuildingBlock: OJICUG_clean_linker_0, # of connection points: 2
#     Edge 11, Type (0, 0), BuildingBlock: OJICUG_clean_linker_0, # of connection points: 2
#     Edge 12, Type (0, 0), BuildingBlock: OJICUG_clean_linker_0, # of connection points: 2
#     Edge 13, Type (0, 0), BuildingBlock: OJICUG_clean_linker_0, # of connection points: 2
#     Edge 14, Type (0, 0), BuildingBlock: OJICUG_clean_linker_0, # of connection points: 2
#     Edge 15, Type (0, 0), BuildingBlock: OJICUG_clean_linker_0, # of connection points: 2
#     Edge 16, Type (0, 0), BuildingBlock: OJICUG_clean_linker_0, # of connection points: 2
#     Edge 17, Type (0, 0), BuildingBlock: OJICUG_clean_linker_0, # of connection points: 2
#     Edge 18, Type (0, 0), BuildingBlock: OJICUG_clean_linker_0, # of connection points: 2
#     Edge 19, Type (0, 0), BuildingBlock: OJICUG_clean_linker_0, # of connection points: 2
#     Edge 20, Type (0, 0), BuildingBlock: OJICUG_clean_linker_0, # of connection points: 2
#     Edge 21, Type (0, 0), BuildingBlock: OJICUG_clean_linker_0, # of connection points: 2
#     Edge 22, Type (0, 0), BuildingBlock: OJICUG_clean_linker_0, # of connection points: 2
#     Edge 23, Type (0, 0), BuildingBlock: OJICUG_clean_linker_0, # of connection points: 2
#     Edge 24, Type (0, 0), BuildingBlock: OJICUG_clean_linker_0, # of connection points: 2
#     Edge 25, Type (0, 0), BuildingBlock: OJICUG_clean_linker_0, # of connection points: 2
#     Edge 26, Type (0, 0), BuildingBlock: OJICUG_clean_linker_0, # of connection points: 2
#     Edge 27, Type (0, 0), BuildingBlock: OJICUG_clean_linker_0, # of connection points: 2
#     Edge 28, Type (0, 0), BuildingBlock: OJICUG_clean_linker_0, # of connection points: 2
#     Edge 29, Type (0, 0), BuildingBlock: OJICUG_clean_linker_0, # of connection points: 2
#     Edge 30, Type (0, 0), BuildingBlock: OJICUG_clean_linker_0, # of connection points: 2
#     Edge 31, Type (0, 0), BuildingBlock: OJICUG_clean_linker_0, # of connection points: 2
# Relax obj value: 0.143
# Max RMSD: 0.179
# Mean RMSD: 0.158
data_MOF--net-ske--node1-MIFKUJ_clean_sbu_0--edge1-OJICUG_clean_linker_0
_symmetry_space_group_name_H-M    P1
_symmetry_Int_Tables_number       1
_symmetry_cell_setting            triclinic
loop_
_symmetry_equiv_pos_as_xyz
'x, y, z'
_cell_length_a     56.316366
_cell_length_b     19.865952
_cell_length_c     13.355208
_cell_angle_alpha  91.5646
_cell_angle_beta   89.944942
_cell_angle_gamma 84.012889
loop_
_atom_site_label
_atom_site_type_symbol
_atom_site_fract_x
_atom_site_fract_y
_atom_site_fract_z
_atom_type_partial_charge
Zn0 Zn 0.15317 0.22958 0.6375 0.0
Zn1 Zn 0.09911 0.25152 0.45297 0.0
C2 C 0.13943 0.27685 0.83997 0.0
O3 O 0.15453 0.32153 0.82356 0.0
C4 C 0.10544 0.24041 0.24301 0.0
O5 O 0.0948 0.18624 0.26159 0.0
O6 O 0.18804 0.22596 0.67279 0.0
O7 O 0.14725 0.14248 0.56354 0.0
O8 O 0.11472 0.15701 0.46813 0.0
C9 C 0.20129 0.17214 0.69182 0.0
O10 O 0.19226 0.11377 0.68753 0.0
O11 O 0.13525 0.23495 0.76991 0.0
C12 C 0.0499 0.28961 0.39998 0.0
O13 O 0.0597 0.33211 0.34311 0.0
O14 O 0.06325 0.24975 0.45384 0.0
O15 O 0.10758 0.31539 0.56233 0.0
O16 O 0.14655 0.31434 0.55983 0.0
O17 O 0.10947 0.2803 0.31586 0.0
C18 C 0.13213 0.11938 0.50422 0.0
C19 C 0.126 0.34406 0.543 0.0
Zn20 Zn 0.90091 0.25587 0.47442 0.0
Zn21 Zn 0.84592 0.24966 0.6635 0.0
C22 C 0.89334 0.24861 0.2677 0.0
O23 O 0.90767 0.19344 0.28378 0.0
C24 C 0.85549 0.29254 0.86901 0.0
O25 O 0.83895 0.34248 0.85171 0.0
O26 O 0.93691 0.25515 0.47151 0.0
O27 O 0.88716 0.31154 0.58914 0.0
O28 O 0.84873 0.33676 0.59545 0.0
C29 C 0.94693 0.29418 0.41457 0.0
O30 O 0.93358 0.33626 0.35863 0.0
O31 O 0.88725 0.28835 0.34173 0.0
C32 C 0.80083 0.21108 0.74307 0.0
O33 O 0.81407 0.16396 0.79083 0.0
O34 O 0.81072 0.2495 0.68512 0.0
O35 O 0.85918 0.16371 0.5858 0.0
O36 O 0.89168 0.16126 0.48815 0.0
O37 O 0.86154 0.24919 0.7993 0.0
C38 C 0.86903 0.35207 0.56979 0.0
C39 C 0.87502 0.13216 0.52824 0.0
Zn40 Zn 0.15395 0.73292 0.38309 0.0
Zn41 Zn 0.09684 0.74018 0.57903 0.0
C42 C 0.14456 0.72728 0.18068 0.0
O43 O 0.15798 0.67028 0.19568 0.0
C44 C 0.1081 0.78067 0.78374 0.0
O45 O 0.09987 0.84189 0.75722 0.0
O46 O 0.18977 0.72635 0.37273 0.0
O47 O 0.14117 0.78835 0.50404 0.0
O48 O 0.10393 0.8292 0.52828 0.0
C49 C 0.20016 0.76472 0.31635 0.0
O50 O 0.18734 0.81367 0.27065 0.0
O51 O 0.13972 0.76808 0.25454 0.0
C52 C 0.04818 0.73387 0.64455 0.0
O53 O 0.05789 0.73714 0.73368 0.0
O54 O 0.06146 0.73254 0.56731 0.0
O55 O 0.11611 0.66802 0.49906 0.0
O56 O 0.14536 0.63759 0.39404 0.0
O57 O 0.10804 0.73152 0.72086 0.0
C58 C 0.12463 0.83638 0.4952 0.0
C59 C 0.12834 0.62202 0.44825 0.0
Zn60 Zn 0.84517 0.74259 0.32837 0.0
Zn61 Zn 0.89925 0.74732 0.51219 0.0
C62 C 0.85325 0.78418 0.12324 0.0
O63 O 0.83718 0.83512 0.14579 0.0
C64 C 0.8856 0.7306 0.71375 0.0
O65 O 0.89672 0.67077 0.69035 0.0
O66 O 0.80984 0.73871 0.30716 0.0
O67 O 0.85808 0.6548 0.39256 0.0
O68 O 0.89148 0.65284 0.48257 0.0
C69 C 0.80188 0.68329 0.28086 0.0
O70 O 0.81691 0.62845 0.2691 0.0
O71 O 0.85977 0.74168 0.19002 0.0
C72 C 0.9454 0.75912 0.60733 0.0
O73 O 0.93227 0.78152 0.68486 0.0
O74 O 0.93528 0.74358 0.52598 0.0
O75 O 0.88833 0.81089 0.40373 0.0
O76 O 0.84934 0.83008 0.40393 0.0
O77 O 0.88367 0.77556 0.64713 0.0
C78 C 0.87484 0.62316 0.44211 0.0
C79 C 0.86958 0.85025 0.42241 0.0
Zn80 Zn 0.65351 0.73061 0.14161 0.0
Zn81 Zn 0.59926 0.75256 0.95429 0.0
C82 C 0.63892 0.77644 0.34237 0.0
O83 O 0.65126 0.82711 0.32251 0.0
C84 C 0.60647 0.7377 0.74611 0.0
O85 O 0.59666 0.6824 0.7663 0.0
O86 O 0.68862 0.72731 0.17282 0.0
O87 O 0.64764 0.64396 0.06542 0.0
O88 O 0.61486 0.65861 0.97189 0.0
C89 C 0.70157 0.67345 0.19449 0.0
O90 O 0.692 0.61593 0.19553 0.0
O91 O 0.63675 0.73103 0.27497 0.0
C92 C 0.55038 0.79104 0.89913 0.0
O93 O 0.56053 0.83263 0.84191 0.0
O94 O 0.56342 0.75093 0.9538 0.0
O95 O 0.60663 0.81965 0.06026 0.0
O96 O 0.64557 0.81946 0.07463 0.0
O97 O 0.6097 0.77949 0.81741 0.0
C98 C 0.63231 0.62085 0.00718 0.0
C99 C 0.62535 0.84911 0.05169 0.0
Zn100 Zn 0.40233 0.74618 0.95096 0.0
Zn101 Zn 0.34575 0.74423 0.1438 0.0
C102 C 0.39477 0.70939 0.74181 0.0
O103 O 0.4049 0.64942 0.76569 0.0
C104 C 0.35738 0.76036 0.34552 0.0
O105 O 0.34295 0.81552 0.33071 0.0
O106 O 0.43697 0.76255 0.96795 0.0
O107 O 0.37903 0.80614 0.02788 0.0
O108 O 0.34907 0.84344 0.12127 0.0
C109 C 0.44756 0.79206 0.90017 0.0
O110 O 0.43521 0.81643 0.82347 0.0
O111 O 0.39232 0.75658 0.80813 0.0
C112 C 0.30084 0.70667 0.22601 0.0
O113 O 0.3144 0.66275 0.27824 0.0
O114 O 0.31041 0.74222 0.16275 0.0
O115 O 0.35827 0.68051 0.02604 0.0
O116 O 0.39673 0.65384 0.99585 0.0
O117 O 0.36204 0.71849 0.27278 0.0
C118 C 0.36605 0.85599 0.06526 0.0
C119 C 0.37668 0.63693 0.02548 0.0
Zn120 Zn 0.65296 0.23033 0.88013 0.0
Zn121 Zn 0.59597 0.24203 0.07801 0.0
C122 C 0.64403 0.22413 0.67757 0.0
O123 O 0.65726 0.16687 0.69285 0.0
C124 C 0.60774 0.27935 0.28151 0.0
O125 O 0.59991 0.34094 0.25523 0.0
O126 O 0.68872 0.2235 0.87137 0.0
O127 O 0.64031 0.28893 1.00047 0.0
O128 O 0.6034 0.33172 0.03053 0.0
C129 C 0.69933 0.26303 0.81788 0.0
O130 O 0.68669 0.31274 0.77304 0.0
O131 O 0.63914 0.26499 0.75124 0.0
C132 C 0.5476 0.23495 0.14185 0.0
O133 O 0.55766 0.23699 0.23037 0.0
O134 O 0.56063 0.23404 0.06391 0.0
O135 O 0.61639 0.17656 0.99396 0.0
O136 O 0.64442 0.13416 0.89237 0.0
O137 O 0.60725 0.23041 0.21866 0.0
C138 C 0.62394 0.3379 0.9943 0.0
C139 C 0.62727 0.12532 0.95018 0.0
Zn140 Zn 0.34286 0.25066 0.84296 0.0
Zn141 Zn 0.39764 0.25607 0.02913 0.0
C142 C 0.35202 0.29287 0.63994 0.0
O143 O 0.33596 0.34391 0.66225 0.0
C144 C 0.38491 0.24015 0.23157 0.0
O145 O 0.39561 0.17988 0.20766 0.0
O146 O 0.30792 0.24347 0.8182 0.0
O147 O 0.3564 0.16487 0.91195 0.0
O148 O 0.38971 0.16117 0.00336 0.0
C149 C 0.30066 0.18733 0.79082 0.0
O150 O 0.31619 0.13341 0.78086 0.0
O151 O 0.35818 0.24979 0.70633 0.0
C152 C 0.4446 0.26612 0.11555 0.0
O153 O 0.43212 0.28516 0.1963 0.0
O154 O 0.43378 0.25356 0.03465 0.0
O155 O 0.38437 0.31601 0.92122 0.0
O156 O 0.3457 0.33912 0.91726 0.0
O157 O 0.3831 0.28523 0.1652 0.0
C158 C 0.37273 0.13268 0.96333 0.0
C159 C 0.36597 0.35619 0.94249 0.0
C160 C 0.24245 0.1164 0.72565 0.0
C161 C 0.22665 0.17568 0.71856 0.0
H162 H 0.27823 0.07355 0.75365 0.0
C163 C 0.23533 0.2387 0.73691 0.0
H164 H 0.23633 0.06708 0.71193 0.0
C165 C 0.25928 0.24239 0.7615 0.0
C166 C 0.27515 0.18319 0.76751 0.0
H167 H 0.22363 0.28536 0.73243 0.0
H168 H 0.26539 0.29178 0.77476 0.0
C169 C 0.26647 0.12013 0.74942 0.0
C170 C 0.73859 0.19303 0.84037 0.0
C171 C 0.72536 0.25004 0.80039 0.0
H172 H 0.77278 0.13554 0.85303 0.0
C173 C 0.73711 0.29331 0.74056 0.0
H174 H 0.73003 0.15836 0.88621 0.0
C175 C 0.76152 0.27999 0.72114 0.0
C176 C 0.7748 0.22318 0.76134 0.0
H177 H 0.72745 0.33753 0.70838 0.0
H178 H 0.77001 0.31471 0.6751 0.0
C179 C 0.76307 0.17976 0.8211 0.0
C180 C 0.26364 0.67917 0.31278 0.0
C181 C 0.27496 0.72014 0.24757 0.0
H182 H 0.23116 0.6612 0.3861 0.0
C183 C 0.26154 0.77634 0.20638 0.0
H184 H 0.27347 0.63557 0.34584 0.0
C185 C 0.23738 0.79138 0.23007 0.0
C186 C 0.22603 0.75044 0.29517 0.0
H187 H 0.26974 0.80933 0.15649 0.0
H188 H 0.2276 0.83506 0.19696 0.0
C189 C 0.23941 0.69409 0.33622 0.0
C190 C 0.74252 0.61584 0.22653 0.0
C191 C 0.72716 0.67585 0.2182 0.0
H192 H 0.77816 0.57111 0.25244 0.0
C193 C 0.73651 0.73835 0.23236 0.0
H194 H 0.73589 0.56688 0.21608 0.0
C195 C 0.76069 0.74078 0.25403 0.0
C196 C 0.77612 0.68078 0.26103 0.0
H197 H 0.72514 0.78556 0.22688 0.0
H198 H 0.76734 0.78975 0.26409 0.0
C199 C 0.76676 0.61828 0.24721 0.0
C200 C 0.14999 0.9309 0.52014 0.0
C201 C 0.13018 0.90526 0.47504 0.0
H202 H 0.16613 0.01968 0.56577 0.0
C203 C 0.11325 0.94927 0.426 0.0
H204 H 0.16323 0.89769 0.55876 0.0
C205 C 0.11496 0.01873 0.42908 0.0
C206 C 0.13339 0.04555 0.48322 0.0
H207 H 0.09794 0.93028 0.39011 0.0
H208 H 0.10094 0.05154 0.39436 0.0
C209 C 0.15151 0.00075 0.52481 0.0
C210 C 0.85104 0.45553 0.48493 0.0
C211 C 0.87136 0.41697 0.5216 0.0
H212 H 0.83627 0.55087 0.4298 0.0
C213 C 0.89342 0.44396 0.52055 0.0
H214 H 0.83383 0.43571 0.48385 0.0
C215 C 0.89477 0.51028 0.49062 0.0
C216 C 0.87415 0.5503 0.45959 0.0
H217 H 0.90941 0.41519 0.54772 0.0
H218 H 0.91182 0.5309 0.4948 0.0
C219 C 0.85246 0.52143 0.45357 0.0
C220 C 0.89268 0.95065 0.44165 0.0
C221 C 0.87133 0.92117 0.4554 0.0
H222 H 0.9105 0.0405 0.4527 0.0
C223 C 0.8515 0.9608 0.49746 0.0
H224 H 0.90828 0.9214 0.40949 0.0
C225 C 0.85286 0.02893 0.52355 0.0
C226 C 0.87397 0.05906 0.5065 0.0
H227 H 0.83487 0.93927 0.50966 0.0
H228 H 0.83719 0.05836 0.55481 0.0
C229 C 0.89392 0.019 0.46605 0.0
C230 C 0.13909 0.49926 0.40796 0.0
C231 C 0.1249 0.55027 0.46194 0.0
H232 H 0.15049 0.39319 0.39215 0.0
C233 C 0.10899 0.53185 0.53518 0.0
H234 H 0.15124 0.51177 0.35005 0.0
C235 C 0.10833 0.46385 0.55785 0.0
C236 C 0.12379 0.41371 0.50858 0.0
H237 H 0.09779 0.57 0.57795 0.0
H238 H 0.09675 0.45085 0.61763 0.0
C239 C 0.1387 0.43154 0.43187 0.0
C240 C 0.61502 0.52079 0.93066 0.0
C241 C 0.6334 0.54699 0.98596 0.0
H242 H 0.59783 0.433 0.88965 0.0
C243 C 0.65126 0.50156 0.02808 0.0
H244 H 0.60118 0.55403 0.89559 0.0
C245 C 0.64954 0.43175 0.02238 0.0
C246 C 0.6298 0.40675 0.97567 0.0
H247 H 0.66582 0.51999 0.07008 0.0
H248 H 0.66257 0.39804 0.06128 0.0
C249 C 0.61312 0.45143 0.92655 0.0
C250 C 0.39052 0.94896 0.02213 0.0
C251 C 0.36809 0.92529 0.03323 0.0
H252 H 0.40958 0.03442 0.99307 0.0
C253 C 0.34735 0.96876 0.01515 0.0
H254 H 0.40672 0.916 0.03532 0.0
C255 C 0.34896 0.03542 0.98794 0.0
C256 C 0.37132 0.06033 0.98142 0.0
H257 H 0.32987 0.95114 0.02209 0.0
H258 H 0.33266 0.06815 0.97567 0.0
C259 C 0.39212 0.01645 0.9981 0.0
C260 C 0.39109 0.44716 0.99716 0.0
C261 C 0.36837 0.42589 0.98043 0.0
H262 H 0.4115 0.53047 0.02578 0.0
C263 C 0.34816 0.47336 0.9926 0.0
H264 H 0.40702 0.41169 0.99023 0.0
C265 C 0.35071 0.5416 0.01353 0.0
C266 C 0.37355 0.56374 0.02199 0.0
H267 H 0.33036 0.45841 0.98174 0.0
H268 H 0.33483 0.57737 0.01797 0.0
C269 C 0.39365 0.51533 0.01756 0.0
C270 C 0.63198 0.0351 0.07394 0.0
C271 C 0.62365 0.05708 0.98029 0.0
H272 H 0.6395 0.95035 0.16911 0.0
C273 C 0.61436 0.01151 0.91269 0.0
H274 H 0.63935 0.06983 0.12652 0.0
C275 C 0.61379 0.94393 0.93816 0.0
C276 C 0.62336 0.92117 0.02965 0.0
H277 H 0.60802 0.02789 0.83983 0.0
H278 H 0.60688 0.90897 0.88477 0.0
C279 C 0.63218 0.96718 0.09793 0.0
C280 C 0.12548 0.30841 0.11725 0.0
C281 C 0.11307 0.25272 0.13921 0.0
H282 H 0.14341 0.36007 0.00544 0.0
C283 C 0.10843 0.20717 0.06088 0.0
H284 H 0.12929 0.34457 0.17573 0.0
C285 C 0.11641 0.21615 0.96349 0.0
C286 C 0.12932 0.27081 0.94175 0.0
H287 H 0.09889 0.16375 0.07486 0.0
H288 H 0.11287 0.17925 0.90567 0.0
C289 C 0.13355 0.3173 0.01957 0.0
C290 C 0.89065 0.21556 0.08665 0.0
C291 C 0.88421 0.2623 0.16542 0.0
H292 H 0.88678 0.18849 0.93213 0.0
C293 C 0.86879 0.32064 0.1453 0.0
H294 H 0.90249 0.17007 0.09931 0.0
C295 C 0.85971 0.33127 0.04863 0.0
C296 C 0.86591 0.28381 0.97032 0.0
H297 H 0.86355 0.35774 0.2043 0.0
H298 H 0.84766 0.37629 0.03558 0.0
C299 C 0.88164 0.22618 0.99044 0.0
C300 C 0.13744 0.69124 0.00435 0.0
C301 C 0.13515 0.74217 0.07973 0.0
H302 H 0.13064 0.66336 0.85256 0.0
C303 C 0.12385 0.80644 0.05732 0.0
H304 H 0.14598 0.64111 0.01922 0.0
C305 C 0.11512 0.81942 0.96089 0.0
C306 C 0.11735 0.76815 0.88575 0.0
H307 H 0.12188 0.84671 0.11399 0.0
H308 H 0.10653 0.86939 0.94544 0.0
C309 C 0.12858 0.70398 0.90868 0.0
C310 C 0.86442 0.808 0.84591 0.0
C311 C 0.87731 0.74581 0.81822 0.0
H312 H 0.8467 0.86915 0.96424 0.0
C313 C 0.88268 0.69756 0.89218 0.0
H314 H 0.86008 0.84633 0.79082 0.0
C315 C 0.8753 0.71082 0.99117 0.0
C316 C 0.86214 0.77249 0.01894 0.0
H317 H 0.89266 0.64919 0.87384 0.0
H318 H 0.87963 0.67207 0.04566 0.0
C319 C 0.85681 0.82109 0.94528 0.0
C320 C 0.63139 0.81893 0.51984 0.0
C321 C 0.62943 0.76888 0.44455 0.0
H322 H 0.62562 0.84861 0.67434 0.0
C323 C 0.61927 0.70975 0.46895 0.0
H324 H 0.63911 0.86514 0.50348 0.0
C325 C 0.61165 0.70026 0.56655 0.0
C326 C 0.61394 0.74966 0.64229 0.0
H327 H 0.61756 0.67004 0.41302 0.0
H328 H 0.60422 0.65359 0.58273 0.0
C329 C 0.62371 0.80943 0.61777 0.0
C330 C 0.37355 0.78542 0.61737 0.0
C331 C 0.38573 0.72221 0.63953 0.0
H332 H 0.35509 0.84684 0.50747 0.0
C333 C 0.38885 0.67167 0.56361 0.0
H334 H 0.37082 0.82553 0.6741 0.0
C335 C 0.37987 0.68409 0.4675 0.0
C336 C 0.36749 0.74713 0.44588 0.0
H337 H 0.39814 0.62246 0.57839 0.0
H338 H 0.3824 0.64409 0.41055 0.0
C339 C 0.36448 0.79765 0.52175 0.0
C340 C 0.62805 0.20176 0.40555 0.0
C341 C 0.61702 0.26627 0.38312 0.0
H342 H 0.64527 0.1382 0.51575 0.0
C343 C 0.615 0.31739 0.45839 0.0
H344 H 0.62995 0.16128 0.34917 0.0
C345 C 0.62371 0.30394 0.55461 0.0
C346 C 0.63476 0.23935 0.57664 0.0
H347 H 0.60657 0.36759 0.44324 0.0
H348 H 0.62188 0.34412 0.61146 0.0
C349 C 0.6369 0.18856 0.50108 0.0
C350 C 0.3819 0.2069 0.40964 0.0
C351 C 0.37671 0.2554 0.33596 0.0
H352 H 0.37851 0.18095 0.5627 0.0
C353 C 0.36389 0.31769 0.36364 0.0
H354 H 0.39182 0.15846 0.39121 0.0
C355 C 0.35611 0.33056 0.46277 0.0
C356 C 0.36121 0.28162 0.53612 0.0
H357 H 0.35967 0.35618 0.30865 0.0
H358 H 0.34602 0.37864 0.48175 0.0
C359 C 0.37435 0.21993 0.50841 0.0
C360 C 0.00912 0.32937 0.33673 0.0
C361 C 0.0236 0.28938 0.40263 0.0
H362 H 0.97367 0.36212 0.28862 0.0
C363 C 0.01267 0.25012 0.47173 0.0
H364 H 0.01695 0.35988 0.28211 0.0
C365 C 0.98779 0.25145 0.47555 0.0
C366 C 0.9733 0.29202 0.4103 0.0
H367 H 0.02331 0.21879 0.52362 0.0
H368 H 0.97991 0.22102 0.53016 0.0
C369 C 0.98427 0.33068 0.34052 0.0
C370 C 0.98634 0.73954 0.53067 0.0
C371 C 0.97171 0.75067 0.61607 0.0
H372 H 0.02202 0.7256 0.47247 0.0
C373 C 0.98245 0.75366 0.7108 0.0
H374 H 0.97858 0.73686 0.45667 0.0
C375 C 0.00726 0.7466 0.71996 0.0
C376 C 0.02193 0.73696 0.63453 0.0
H377 H 0.97169 0.76148 0.77821 0.0
H378 H 0.01491 0.74972 0.79412 0.0
C379 C 0.01121 0.73304 0.53977 0.0
C380 C 0.51259 0.75895 0.97587 0.0
C381 C 0.52407 0.79174 0.90057 0.0
H382 H 0.4794 0.73423 0.03593 0.0
C383 C 0.51015 0.82589 0.82675 0.0
H384 H 0.52282 0.73247 0.03411 0.0
C385 C 0.48531 0.82674 0.82759 0.0
C386 C 0.47379 0.79387 0.90271 0.0
H387 H 0.51845 0.85144 0.76748 0.0
H388 H 0.47517 0.85282 0.76876 0.0
C389 C 0.4877 0.76027 0.9772 0.0
C390 C 0.48503 0.24726 0.03359 0.0
C391 C 0.47097 0.25663 0.12084 0.0
H392 H 0.52038 0.23304 0.97151 0.0
C393 C 0.48231 0.25624 0.21451 0.0
H394 H 0.4768 0.24712 0.96034 0.0
C395 C 0.50714 0.24754 0.22096 0.0
C396 C 0.52128 0.23956 0.13387 0.0
H397 H 0.472 0.26259 0.28327 0.0
H398 H 0.51524 0.24804 0.29449 0.0
C399 C 0.50998 0.23907 0.04002 0.0
loop_
_geom_bond_atom_site_label_1
_geom_bond_atom_site_label_2
_geom_bond_distance
_geom_bond_site_symmetry_2
_ccdc_geom_bond_type
Zn0 O6 1.969 . S
Zn0 O7 1.965 . S
Zn0 O11 2.024 . S
Zn0 O16 1.969 . S
Zn1 O8 1.969 . S
Zn1 O14 1.969 . S
Zn1 O15 1.965 . S
Zn1 O17 2.024 . S
C2 O3 1.229 . S
C2 O11 1.058 . S
O3 C2 1.229 . S
C4 O5 1.229 . S
C4 O17 1.058 . S
O5 C4 1.229 . S
O6 Zn0 1.969 . S
O6 C9 1.267 . S
O7 Zn0 1.965 . S
O7 C18 1.260 . S
O8 Zn1 1.969 . S
O8 C18 1.258 . S
C9 O6 1.267 . S
C9 O10 1.228 . S
O10 C9 1.228 . S
O11 Zn0 2.024 . S
O11 C2 1.058 . S
C12 O13 1.228 . S
C12 O14 1.267 . S
O13 C12 1.228 . S
O14 Zn1 1.969 . S
O14 C12 1.267 . S
O15 Zn1 1.965 . S
O15 C19 1.260 . S
O16 Zn0 1.969 . S
O16 C19 1.258 . S
O17 Zn1 2.024 . S
O17 C4 1.058 . S
C18 O7 1.260 . S
C18 O8 1.258 . S
C19 O15 1.260 . S
C19 O16 1.258 . S
Zn20 O26 1.969 . S
Zn20 O27 1.965 . S
Zn20 O31 2.024 . S
Zn20 O36 1.969 . S
Zn21 O28 1.969 . S
Zn21 O34 1.969 . S
Zn21 O35 1.965 . S
Zn21 O37 2.024 . S
C22 O23 1.229 . S
C22 O31 1.058 . S
O23 C22 1.229 . S
C24 O25 1.229 . S
C24 O37 1.058 . S
O25 C24 1.229 . S
O26 Zn20 1.969 . S
O26 C29 1.267 . S
O27 Zn20 1.965 . S
O27 C38 1.260 . S
O28 Zn21 1.969 . S
O28 C38 1.258 . S
C29 O26 1.267 . S
C29 O30 1.228 . S
O30 C29 1.228 . S
O31 Zn20 2.024 . S
O31 C22 1.058 . S
C32 O33 1.228 . S
C32 O34 1.267 . S
O33 C32 1.228 . S
O34 Zn21 1.969 . S
O34 C32 1.267 . S
O35 Zn21 1.965 . S
O35 C39 1.260 . S
O36 Zn20 1.969 . S
O36 C39 1.258 . S
O37 Zn21 2.024 . S
O37 C24 1.058 . S
C38 O27 1.260 . S
C38 O28 1.258 . S
C39 O35 1.260 . S
C39 O36 1.258 . S
Zn40 O46 1.969 . S
Zn40 O47 1.965 . S
Zn40 O51 2.024 . S
Zn40 O56 1.969 . S
Zn41 O48 1.969 . S
Zn41 O54 1.969 . S
Zn41 O55 1.965 . S
Zn41 O57 2.024 . S
C42 O43 1.229 . S
C42 O51 1.058 . S
O43 C42 1.229 . S
C44 O45 1.229 . S
C44 O57 1.058 . S
O45 C44 1.229 . S
O46 Zn40 1.969 . S
O46 C49 1.267 . S
O47 Zn40 1.965 . S
O47 C58 1.260 . S
O48 Zn41 1.969 . S
O48 C58 1.258 . S
C49 O46 1.267 . S
C49 O50 1.228 . S
O50 C49 1.228 . S
O51 Zn40 2.024 . S
O51 C42 1.058 . S
C52 O53 1.228 . S
C52 O54 1.267 . S
O53 C52 1.228 . S
O54 Zn41 1.969 . S
O54 C52 1.267 . S
O55 Zn41 1.965 . S
O55 C59 1.260 . S
O56 Zn40 1.969 . S
O56 C59 1.258 . S
O57 Zn41 2.024 . S
O57 C44 1.058 . S
C58 O47 1.260 . S
C58 O48 1.258 . S
C59 O55 1.260 . S
C59 O56 1.258 . S
Zn60 O66 1.969 . S
Zn60 O67 1.965 . S
Zn60 O71 2.024 . S
Zn60 O76 1.969 . S
Zn61 O68 1.969 . S
Zn61 O74 1.969 . S
Zn61 O75 1.965 . S
Zn61 O77 2.024 . S
C62 O63 1.229 . S
C62 O71 1.058 . S
O63 C62 1.229 . S
C64 O65 1.229 . S
C64 O77 1.058 . S
O65 C64 1.229 . S
O66 Zn60 1.969 . S
O66 C69 1.267 . S
O67 Zn60 1.965 . S
O67 C78 1.260 . S
O68 Zn61 1.969 . S
O68 C78 1.258 . S
C69 O66 1.267 . S
C69 O70 1.228 . S
O70 C69 1.228 . S
O71 Zn60 2.024 . S
O71 C62 1.058 . S
C72 O73 1.228 . S
C72 O74 1.267 . S
O73 C72 1.228 . S
O74 Zn61 1.969 . S
O74 C72 1.267 . S
O75 Zn61 1.965 . S
O75 C79 1.260 . S
O76 Zn60 1.969 . S
O76 C79 1.258 . S
O77 Zn61 2.024 . S
O77 C64 1.058 . S
C78 O67 1.260 . S
C78 O68 1.258 . S
C79 O75 1.260 . S
C79 O76 1.258 . S
Zn80 O86 1.969 . S
Zn80 O87 1.965 . S
Zn80 O91 2.024 . S
Zn80 O96 1.969 . S
Zn81 O88 1.969 . S
Zn81 O94 1.969 . S
Zn81 O95 1.965 1_556 S
Zn81 O97 2.024 . S
C82 O83 1.229 . S
C82 O91 1.058 . S
O83 C82 1.229 . S
C84 O85 1.229 . S
C84 O97 1.058 . S
O85 C84 1.229 . S
O86 Zn80 1.969 . S
O86 C89 1.267 . S
O87 Zn80 1.965 . S
O87 C98 1.260 1_554 S
O88 Zn81 1.969 . S
O88 C98 1.258 . S
C89 O86 1.267 . S
C89 O90 1.228 . S
O90 C89 1.228 . S
O91 Zn80 2.024 . S
O91 C82 1.058 . S
C92 O93 1.228 . S
C92 O94 1.267 . S
O93 C92 1.228 . S
O94 Zn81 1.969 . S
O94 C92 1.267 . S
O95 Zn81 1.965 1_554 S
O95 C99 1.260 . S
O96 Zn80 1.969 . S
O96 C99 1.258 . S
O97 Zn81 2.024 . S
O97 C84 1.058 . S
C98 O87 1.260 1_556 S
C98 O88 1.258 . S
C99 O95 1.260 . S
C99 O96 1.258 . S
Zn100 O106 1.969 . S
Zn100 O107 1.965 1_556 S
Zn100 O111 2.024 . S
Zn100 O116 1.969 . S
Zn101 O108 1.969 . S
Zn101 O114 1.969 . S
Zn101 O115 1.965 . S
Zn101 O117 2.024 . S
C102 O103 1.229 . S
C102 O111 1.058 . S
O103 C102 1.229 . S
C104 O105 1.229 . S
C104 O117 1.058 . S
O105 C104 1.229 . S
O106 Zn100 1.969 . S
O106 C109 1.267 . S
O107 Zn100 1.965 1_554 S
O107 C118 1.260 . S
O108 Zn101 1.969 . S
O108 C118 1.258 . S
C109 O106 1.267 . S
C109 O110 1.228 . S
O110 C109 1.228 . S
O111 Zn100 2.024 . S
O111 C102 1.058 . S
C112 O113 1.228 . S
C112 O114 1.267 . S
O113 C112 1.228 . S
O114 Zn101 1.969 . S
O114 C112 1.267 . S
O115 Zn101 1.965 . S
O115 C119 1.260 1_554 S
O116 Zn100 1.969 . S
O116 C119 1.258 . S
O117 Zn101 2.024 . S
O117 C104 1.058 . S
C118 O107 1.260 . S
C118 O108 1.258 . S
C119 O115 1.260 1_556 S
C119 O116 1.258 . S
Zn120 O126 1.969 . S
Zn120 O127 1.965 . S
Zn120 O131 2.024 . S
Zn120 O136 1.969 . S
Zn121 O128 1.969 . S
Zn121 O134 1.969 . S
Zn121 O135 1.965 1_554 S
Zn121 O137 2.024 . S
C122 O123 1.229 . S
C122 O131 1.058 . S
O123 C122 1.229 . S
C124 O125 1.229 . S
C124 O137 1.058 . S
O125 C124 1.229 . S
O126 Zn120 1.969 . S
O126 C129 1.267 . S
O127 Zn120 1.965 . S
O127 C138 1.260 1_556 S
O128 Zn121 1.969 . S
O128 C138 1.258 . S
C129 O126 1.267 . S
C129 O130 1.228 . S
O130 C129 1.228 . S
O131 Zn120 2.024 . S
O131 C122 1.058 . S
C132 O133 1.228 . S
C132 O134 1.267 . S
O133 C132 1.228 . S
O134 Zn121 1.969 . S
O134 C132 1.267 . S
O135 Zn121 1.965 1_556 S
O135 C139 1.260 . S
O136 Zn120 1.969 . S
O136 C139 1.258 . S
O137 Zn121 2.024 . S
O137 C124 1.058 . S
C138 O127 1.260 1_554 S
C138 O128 1.258 . S
C139 O135 1.260 . S
C139 O136 1.258 . S
Zn140 O146 1.969 . S
Zn140 O147 1.965 . S
Zn140 O151 2.024 . S
Zn140 O156 1.969 . S
Zn141 O148 1.969 . S
Zn141 O154 1.969 . S
Zn141 O155 1.965 1_554 S
Zn141 O157 2.024 . S
C142 O143 1.229 . S
C142 O151 1.058 . S
O143 C142 1.229 . S
C144 O145 1.229 . S
C144 O157 1.058 . S
O145 C144 1.229 . S
O146 Zn140 1.969 . S
O146 C149 1.267 . S
O147 Zn140 1.965 . S
O147 C158 1.260 1_556 S
O148 Zn141 1.969 . S
O148 C158 1.258 . S
C149 O146 1.267 . S
C149 O150 1.228 . S
O150 C149 1.228 . S
O151 Zn140 2.024 . S
O151 C142 1.058 . S
C152 O153 1.228 . S
C152 O154 1.267 . S
O153 C152 1.228 . S
O154 Zn141 1.969 . S
O154 C152 1.267 . S
O155 Zn141 1.965 1_556 S
O155 C159 1.260 . S
O156 Zn140 1.969 . S
O156 C159 1.258 . S
O157 Zn141 2.024 . S
O157 C144 1.058 . S
C158 O147 1.260 1_554 S
C158 O148 1.258 . S
C159 O155 1.260 . S
C159 O156 1.258 . S
C160 C161 1.387 . S
C160 H164 0.950 . S
C160 C169 1.390 . S
C161 C160 1.387 . S
C161 C163 1.387 . S
H162 C169 0.950 . S
C163 C161 1.387 . S
C163 C165 1.390 . S
C163 H167 0.950 . S
H164 C160 0.950 . S
C165 C163 1.390 . S
C165 C166 1.387 . S
C165 H168 0.950 . S
C166 C165 1.387 . S
C166 C169 1.387 . S
H167 C163 0.950 . S
H168 C165 0.950 . S
C169 C160 1.390 . S
C169 H162 0.950 . S
C169 C166 1.387 . S
C170 C171 1.387 . S
C170 H174 0.950 . S
C170 C179 1.390 . S
C171 C170 1.387 . S
C171 C173 1.387 . S
H172 C179 0.950 . S
C173 C171 1.387 . S
C173 C175 1.390 . S
C173 H177 0.950 . S
H174 C170 0.950 . S
C175 C173 1.390 . S
C175 C176 1.387 . S
C175 H178 0.950 . S
C176 C175 1.387 . S
C176 C179 1.387 . S
H177 C173 0.950 . S
H178 C175 0.950 . S
C179 C170 1.390 . S
C179 H172 0.950 . S
C179 C176 1.387 . S
C180 C181 1.387 . S
C180 H184 0.950 . S
C180 C189 1.390 . S
C181 C180 1.387 . S
C181 C183 1.387 . S
H182 C189 0.950 . S
C183 C181 1.387 . S
C183 C185 1.390 . S
C183 H187 0.950 . S
H184 C180 0.950 . S
C185 C183 1.390 . S
C185 C186 1.387 . S
C185 H188 0.950 . S
C186 C185 1.387 . S
C186 C189 1.387 . S
H187 C183 0.950 . S
H188 C185 0.950 . S
C189 C180 1.390 . S
C189 H182 0.950 . S
C189 C186 1.387 . S
C190 C191 1.387 . S
C190 H194 0.950 . S
C190 C199 1.390 . S
C191 C190 1.387 . S
C191 C193 1.387 . S
H192 C199 0.950 . S
C193 C191 1.387 . S
C193 C195 1.390 . S
C193 H197 0.950 . S
H194 C190 0.950 . S
C195 C193 1.390 . S
C195 C196 1.387 . S
C195 H198 0.950 . S
C196 C195 1.387 . S
C196 C199 1.387 . S
H197 C193 0.950 . S
H198 C195 0.950 . S
C199 C190 1.390 . S
C199 H192 0.950 . S
C199 C196 1.387 . S
C200 C201 1.387 . S
C200 H204 0.950 . S
C200 C209 1.390 1_565 S
C201 C200 1.387 . S
C201 C203 1.387 . S
H202 C209 0.950 . S
C203 C201 1.387 . S
C203 C205 1.390 1_565 S
C203 H207 0.950 . S
H204 C200 0.950 . S
C205 C203 1.390 1_545 S
C205 C206 1.387 . S
C205 H208 0.950 . S
C206 C205 1.387 . S
C206 C209 1.387 . S
H207 C203 0.950 . S
H208 C205 0.950 . S
C209 C200 1.390 1_545 S
C209 H202 0.950 . S
C209 C206 1.387 . S
C210 C211 1.387 . S
C210 H214 0.950 . S
C210 C219 1.390 . S
C211 C210 1.387 . S
C211 C213 1.387 . S
H212 C219 0.950 . S
C213 C211 1.387 . S
C213 C215 1.390 . S
C213 H217 0.950 . S
H214 C210 0.950 . S
C215 C213 1.390 . S
C215 C216 1.387 . S
C215 H218 0.950 . S
C216 C215 1.387 . S
C216 C219 1.387 . S
H217 C213 0.950 . S
H218 C215 0.950 . S
C219 C210 1.390 . S
C219 H212 0.950 . S
C219 C216 1.387 . S
C220 C221 1.387 . S
C220 H224 0.950 . S
C220 C229 1.390 1_565 S
C221 C220 1.387 . S
C221 C223 1.387 . S
H222 C229 0.950 . S
C223 C221 1.387 . S
C223 C225 1.390 1_565 S
C223 H227 0.950 . S
H224 C220 0.950 . S
C225 C223 1.390 1_545 S
C225 C226 1.387 . S
C225 H228 0.950 . S
C226 C225 1.387 . S
C226 C229 1.387 . S
H227 C223 0.950 . S
H228 C225 0.950 . S
C229 C220 1.390 1_545 S
C229 H222 0.950 . S
C229 C226 1.387 . S
C230 C231 1.387 . S
C230 H234 0.950 . S
C230 C239 1.390 . S
C231 C230 1.387 . S
C231 C233 1.387 . S
H232 C239 0.950 . S
C233 C231 1.387 . S
C233 C235 1.390 . S
C233 H237 0.950 . S
H234 C230 0.950 . S
C235 C233 1.390 . S
C235 C236 1.387 . S
C235 H238 0.950 . S
C236 C235 1.387 . S
C236 C239 1.387 . S
H237 C233 0.950 . S
H238 C235 0.950 . S
C239 C230 1.390 . S
C239 H232 0.950 . S
C239 C236 1.387 . S
C240 C241 1.387 1_556 S
C240 H244 0.950 . S
C240 C249 1.390 . S
C241 C240 1.387 1_554 S
C241 C243 1.387 . S
H242 C249 0.950 . S
C243 C241 1.387 . S
C243 C245 1.390 . S
C243 H247 0.950 . S
H244 C240 0.950 . S
C245 C243 1.390 . S
C245 C246 1.387 1_554 S
C245 H248 0.950 . S
C246 C245 1.387 1_556 S
C246 C249 1.387 . S
H247 C243 0.950 . S
H248 C245 0.950 . S
C249 C240 1.390 . S
C249 H242 0.950 . S
C249 C246 1.387 . S
C250 C251 1.387 . S
C250 H254 0.950 . S
C250 C259 1.390 1_565 S
C251 C250 1.387 . S
C251 C253 1.387 1_554 S
H252 C259 0.950 . S
C253 C251 1.387 1_556 S
C253 C255 1.390 1_565 S
C253 H257 0.950 . S
H254 C250 0.950 . S
C255 C253 1.390 1_545 S
C255 C256 1.387 . S
C255 H258 0.950 . S
C256 C255 1.387 . S
C256 C259 1.387 1_556 S
H257 C253 0.950 . S
H258 C255 0.950 . S
C259 C250 1.390 1_545 S
C259 H252 0.950 . S
C259 C256 1.387 1_554 S
C260 C261 1.387 1_554 S
C260 H264 0.950 . S
C260 C269 1.390 . S
C261 C260 1.387 1_556 S
C261 C263 1.387 . S
H262 C269 0.950 . S
C263 C261 1.387 . S
C263 C265 1.390 . S
C263 H267 0.950 . S
H264 C260 0.950 . S
C265 C263 1.390 . S
C265 C266 1.387 1_556 S
C265 H268 0.950 . S
C266 C265 1.387 1_554 S
C266 C269 1.387 . S
H267 C263 0.950 . S
H268 C265 0.950 . S
C269 C260 1.390 . S
C269 H262 0.950 . S
C269 C266 1.387 . S
C270 C271 1.387 1_554 S
C270 H274 0.950 . S
C270 C279 1.390 1_545 S
C271 C270 1.387 1_556 S
C271 C273 1.387 . S
H272 C279 0.950 . S
C273 C271 1.387 . S
C273 C275 1.390 1_545 S
C273 H277 0.950 . S
H274 C270 0.950 . S
C275 C273 1.390 1_565 S
C275 C276 1.387 1_556 S
C275 H278 0.950 . S
C276 C275 1.387 1_554 S
C276 C279 1.387 . S
H277 C273 0.950 . S
H278 C275 0.950 . S
C279 C270 1.390 1_565 S
C279 H272 0.950 . S
C279 C276 1.387 . S
C280 C281 1.387 . S
C280 H284 0.950 . S
C280 C289 1.390 1_554 S
C281 C280 1.387 . S
C281 C283 1.387 . S
H282 C289 0.950 . S
C283 C281 1.387 . S
C283 C285 1.390 1_554 S
C283 H287 0.950 . S
H284 C280 0.950 . S
C285 C283 1.390 1_556 S
C285 C286 1.387 . S
C285 H288 0.950 . S
C286 C285 1.387 . S
C286 C289 1.387 . S
H287 C283 0.950 . S
H288 C285 0.950 . S
C289 C280 1.390 1_556 S
C289 H282 0.950 . S
C289 C286 1.387 . S
C290 C291 1.387 . S
C290 H294 0.950 . S
C290 C299 1.390 1_554 S
C291 C290 1.387 . S
C291 C293 1.387 . S
H292 C299 0.950 . S
C293 C291 1.387 . S
C293 C295 1.390 1_554 S
C293 H297 0.950 . S
H294 C290 0.950 . S
C295 C293 1.390 1_556 S
C295 C296 1.387 . S
C295 H298 0.950 . S
C296 C295 1.387 . S
C296 C299 1.387 . S
H297 C293 0.950 . S
H298 C295 0.950 . S
C299 C290 1.390 1_556 S
C299 H292 0.950 . S
C299 C296 1.387 . S
C300 C301 1.387 . S
C300 H304 0.950 . S
C300 C309 1.390 1_554 S
C301 C300 1.387 . S
C301 C303 1.387 . S
H302 C309 0.950 . S
C303 C301 1.387 . S
C303 C305 1.390 1_554 S
C303 H307 0.950 . S
H304 C300 0.950 . S
C305 C303 1.390 1_556 S
C305 C306 1.387 . S
C305 H308 0.950 . S
C306 C305 1.387 . S
C306 C309 1.387 . S
H307 C303 0.950 . S
H308 C305 0.950 . S
C309 C300 1.390 1_556 S
C309 H302 0.950 . S
C309 C306 1.387 . S
C310 C311 1.387 . S
C310 H314 0.950 . S
C310 C319 1.390 1_556 S
C311 C310 1.387 . S
C311 C313 1.387 . S
H312 C319 0.950 . S
C313 C311 1.387 . S
C313 C315 1.390 1_556 S
C313 H317 0.950 . S
H314 C310 0.950 . S
C315 C313 1.390 1_554 S
C315 C316 1.387 . S
C315 H318 0.950 . S
C316 C315 1.387 . S
C316 C319 1.387 . S
H317 C313 0.950 . S
H318 C315 0.950 . S
C319 C310 1.390 1_554 S
C319 H312 0.950 . S
C319 C316 1.387 . S
C320 C321 1.387 . S
C320 H324 0.950 . S
C320 C329 1.390 . S
C321 C320 1.387 . S
C321 C323 1.387 . S
H322 C329 0.950 . S
C323 C321 1.387 . S
C323 C325 1.390 . S
C323 H327 0.950 . S
H324 C320 0.950 . S
C325 C323 1.390 . S
C325 C326 1.387 . S
C325 H328 0.950 . S
C326 C325 1.387 . S
C326 C329 1.387 . S
H327 C323 0.950 . S
H328 C325 0.950 . S
C329 C320 1.390 . S
C329 H322 0.950 . S
C329 C326 1.387 . S
C330 C331 1.387 . S
C330 H334 0.950 . S
C330 C339 1.390 . S
C331 C330 1.387 . S
C331 C333 1.387 . S
H332 C339 0.950 . S
C333 C331 1.387 . S
C333 C335 1.390 . S
C333 H337 0.950 . S
H334 C330 0.950 . S
C335 C333 1.390 . S
C335 C336 1.387 . S
C335 H338 0.950 . S
C336 C335 1.387 . S
C336 C339 1.387 . S
H337 C333 0.950 . S
H338 C335 0.950 . S
C339 C330 1.390 . S
C339 H332 0.950 . S
C339 C336 1.387 . S
C340 C341 1.387 . S
C340 H344 0.950 . S
C340 C349 1.390 . S
C341 C340 1.387 . S
C341 C343 1.387 . S
H342 C349 0.950 . S
C343 C341 1.387 . S
C343 C345 1.390 . S
C343 H347 0.950 . S
H344 C340 0.950 . S
C345 C343 1.390 . S
C345 C346 1.387 . S
C345 H348 0.950 . S
C346 C345 1.387 . S
C346 C349 1.387 . S
H347 C343 0.950 . S
H348 C345 0.950 . S
C349 C340 1.390 . S
C349 H342 0.950 . S
C349 C346 1.387 . S
C350 C351 1.387 . S
C350 H354 0.950 . S
C350 C359 1.390 . S
C351 C350 1.387 . S
C351 C353 1.387 . S
H352 C359 0.950 . S
C353 C351 1.387 . S
C353 C355 1.390 . S
C353 H357 0.950 . S
H354 C350 0.950 . S
C355 C353 1.390 . S
C355 C356 1.387 . S
C355 H358 0.950 . S
C356 C355 1.387 . S
C356 C359 1.387 . S
H357 C353 0.950 . S
H358 C355 0.950 . S
C359 C350 1.390 . S
C359 H352 0.950 . S
C359 C356 1.387 . S
C360 C361 1.387 . S
C360 H364 0.950 . S
C360 C369 1.390 1_455 S
C361 C360 1.387 . S
C361 C363 1.387 . S
H362 C369 0.950 . S
C363 C361 1.387 . S
C363 C365 1.390 1_455 S
C363 H367 0.950 . S
H364 C360 0.950 . S
C365 C363 1.390 1_655 S
C365 C366 1.387 . S
C365 H368 0.950 . S
C366 C365 1.387 . S
C366 C369 1.387 . S
H367 C363 0.950 . S
H368 C365 0.950 . S
C369 C360 1.390 1_655 S
C369 H362 0.950 . S
C369 C366 1.387 . S
C370 C371 1.387 . S
C370 H374 0.950 . S
C370 C379 1.390 1_655 S
C371 C370 1.387 . S
C371 C373 1.387 . S
H372 C379 0.950 . S
C373 C371 1.387 . S
C373 C375 1.390 1_655 S
C373 H377 0.950 . S
H374 C370 0.950 . S
C375 C373 1.390 1_455 S
C375 C376 1.387 . S
C375 H378 0.950 . S
C376 C375 1.387 . S
C376 C379 1.387 . S
H377 C373 0.950 . S
H378 C375 0.950 . S
C379 C370 1.390 1_455 S
C379 H372 0.950 . S
C379 C376 1.387 . S
C380 C381 1.387 . S
C380 H384 0.950 1_556 S
C380 C389 1.390 . S
C381 C380 1.387 . S
C381 C383 1.387 . S
H382 C389 0.950 1_554 S
C383 C381 1.387 . S
C383 C385 1.390 . S
C383 H387 0.950 . S
H384 C380 0.950 1_554 S
C385 C383 1.390 . S
C385 C386 1.387 . S
C385 H388 0.950 . S
C386 C385 1.387 . S
C386 C389 1.387 . S
H387 C383 0.950 . S
H388 C385 0.950 . S
C389 C380 1.390 . S
C389 H382 0.950 1_556 S
C389 C386 1.387 . S
C390 C391 1.387 . S
C390 H394 0.950 1_554 S
C390 C399 1.390 . S
C391 C390 1.387 . S
C391 C393 1.387 . S
H392 C399 0.950 1_556 S
C393 C391 1.387 . S
C393 C395 1.390 . S
C393 H397 0.950 . S
H394 C390 0.950 1_556 S
C395 C393 1.390 . S
C395 C396 1.387 . S
C395 H398 0.950 . S
C396 C395 1.387 . S
C396 C399 1.387 . S
H397 C393 0.950 . S
H398 C395 0.950 . S
C399 C390 1.390 . S
C399 H392 0.950 1_554 S
C399 C396 1.387 . S
C161 C9 1.637 . S
C166 C149 1.631 . S
C171 C129 1.619 . S
C176 C32 1.619 . S
C181 C112 1.619 . S
C186 C49 1.619 . S
C191 C89 1.637 . S
C196 C69 1.630 . S
C201 C58 1.479 . S
C206 C18 1.471 . S
C211 C38 1.259 . S
C216 C78 1.239 . S
C221 C79 1.730 . S
C226 C39 1.718 . S
C231 C59 1.517 . S
C236 C19 1.508 . S
C241 C98 1.470 1_554 S
C246 C138 1.480 1_556 S
C251 C118 1.257 . S
C256 C158 1.242 1_556 S
C261 C159 1.730 . S
C266 C119 1.717 1_554 S
C271 C139 1.516 . S
C276 C99 1.508 . S
C281 C4 1.529 . S
C286 C2 1.529 . S
C291 C22 1.525 . S
C296 C24 1.525 . S
C301 C42 1.523 . S
C306 C44 1.523 . S
C311 C64 1.520 . S
C316 C62 1.520 . S
C321 C82 1.529 . S
C326 C84 1.529 . S
C331 C102 1.527 . S
C336 C104 1.527 . S
C341 C124 1.523 . S
C346 C122 1.523 . S
C351 C144 1.522 . S
C356 C142 1.522 . S
C361 C12 1.921 . S
C366 C29 1.915 . S
C371 C72 1.899 . S
C376 C52 1.899 . S
C381 C92 1.921 . S
C386 C109 1.915 . S
C391 C152 1.899 . S
C396 C132 1.899 . S
