# Generated by pormake.
# Topology irl, (4)-cn, num edge types: 1
# Building blocks:
#     Node 0, Type 0, BuildingBlock: ICAMEG_clean_sbu_1, # of connection points: 4
#     Node 1, Type 0, BuildingBlock: ICAMEG_clean_sbu_1, # of connection points: 4
#     Node 2, Type 0, BuildingBlock: ICAMEG_clean_sbu_1, # of connection points: 4
#     Node 3, Type 0, BuildingBlock: ICAMEG_clean_sbu_1, # of connection points: 4
#     Node 4, Type 0, BuildingBlock: ICAMEG_clean_sbu_1, # of connection points: 4
#     Node 5, Type 0, BuildingBlock: ICAMEG_clean_sbu_1, # of connection points: 4
#     Node 6, Type 0, BuildingBlock: ICAMEG_clean_sbu_1, # of connection points: 4
#     Node 7, Type 0, BuildingBlock: ICAMEG_clean_sbu_1, # of connection points: 4
#     Edge 8, Type (0, 0), BuildingBlock: UVAHIK_clean_linker_0, # of connection points: 2
#     Edge 9, Type (0, 0), BuildingBlock: UVAHIK_clean_linker_0, # of connection points: 2
#     Edge 10, Type (0, 0), BuildingBlock: UVAHIK_clean_linker_0, # of connection points: 2
#     Edge 11, Type (0, 0), BuildingBlock: UVAHIK_clean_linker_0, # of connection points: 2
#     Edge 12, Type (0, 0), BuildingBlock: UVAHIK_clean_linker_0, # of connection points: 2
#     Edge 13, Type (0, 0), BuildingBlock: UVAHIK_clean_linker_0, # of connection points: 2
#     Edge 14, Type (0, 0), BuildingBlock: UVAHIK_clean_linker_0, # of connection points: 2
#     Edge 15, Type (0, 0), BuildingBlock: UVAHIK_clean_linker_0, # of connection points: 2
#     Edge 16, Type (0, 0), BuildingBlock: UVAHIK_clean_linker_0, # of connection points: 2
#     Edge 17, Type (0, 0), BuildingBlock: UVAHIK_clean_linker_0, # of connection points: 2
#     Edge 18, Type (0, 0), BuildingBlock: UVAHIK_clean_linker_0, # of connection points: 2
#     Edge 19, Type (0, 0), BuildingBlock: UVAHIK_clean_linker_0, # of connection points: 2
#     Edge 20, Type (0, 0), BuildingBlock: UVAHIK_clean_linker_0, # of connection points: 2
#     Edge 21, Type (0, 0), BuildingBlock: UVAHIK_clean_linker_0, # of connection points: 2
#     Edge 22, Type (0, 0), BuildingBlock: UVAHIK_clean_linker_0, # of connection points: 2
#     Edge 23, Type (0, 0), BuildingBlock: UVAHIK_clean_linker_0, # of connection points: 2
# Relax obj value: 0.025
# Max RMSD: 0.078
# Mean RMSD: 0.078
data_MOF--net-irl--node1-ICAMEG_clean_sbu_1--edge1-UVAHIK_clean_linker_0
_symmetry_space_group_name_H-M    P1
_symmetry_Int_Tables_number       1
_symmetry_cell_setting            triclinic
loop_
_symmetry_equiv_pos_as_xyz
'x, y, z'
_cell_length_a     43.748327
_cell_length_b     63.620315
_cell_length_c     39.078406
_cell_angle_alpha  89.994347
_cell_angle_beta   89.98834
_cell_angle_gamma 90.022189
loop_
_atom_site_label
_atom_site_type_symbol
_atom_site_fract_x
_atom_site_fract_y
_atom_site_fract_z
_atom_type_partial_charge
Co0 Co 0.02271 0.15251 0.02651 0.0
Co1 Co 0.09422 0.13466 0.04981 0.0
O2 O 0.06706 0.15129 0.02081 0.0
C3 C 0.03071 0.1385 0.95538 0.0
O4 O 0.05035 0.12474 0.96732 0.0
C5 C 0.11992 0.17739 0.05422 0.0
O6 O 0.09208 0.1843 0.05976 0.0
O7 O 0.07554 0.14655 0.09197 0.0
O8 O 0.02694 0.15363 0.07735 0.0
H9 H 0.12017 0.08727 0.14846 0.0
H10 H 0.05348 0.18277 0.98025 0.0
O11 O 0.01755 0.1513 0.97567 0.0
H12 H 0.00265 0.22617 0.06795 0.0
H13 H 0.91676 0.17701 0.99601 0.0
H14 H 0.97795 0.13238 0.07316 0.0
H15 H 0.99812 0.18754 0.06921 0.0
H16 H 0.97286 0.1753 0.99011 0.0
O17 O 0.12473 0.1579 0.0494 0.0
H18 H 0.08593 0.10793 0.11127 0.0
H19 H 0.16143 0.12686 0.05026 0.0
H20 H 0.92194 0.13377 0.08017 0.0
H21 H 0.05841 0.22137 0.97786 0.0
H22 H 0.89096 0.15621 0.04142 0.0
H23 H 0.03295 0.24334 0.02201 0.0
O24 O 0.01976 0.1213 0.02842 0.0
H25 H 0.13955 0.13841 0.93182 0.0
H26 H 0.10919 0.09126 0.02608 0.0
H27 H 0.13064 0.07618 0.97315 0.0
H28 H 0.14601 0.09982 0.92556 0.0
H29 H 0.11775 0.15283 0.9851 0.0
H30 H 0.19653 0.10655 0.08695 0.0
H31 H 0.17591 0.0865 0.13638 0.0
O32 O 0.06458 0.111 0.05083 0.0
C33 C 0.04831 0.15207 0.09942 0.0
C34 C 0.12942 0.09588 0.12693 0.0
C35 C 0.17228 0.10673 0.09243 0.0
N36 N 0.12164 0.11843 0.07846 0.0
C37 C 0.11014 0.10756 0.10573 0.0
C38 C 0.15231 0.11823 0.07179 0.0
C39 C 0.1607 0.09547 0.12016 0.0
C40 C 0.0421 0.19224 -0.00065 0.0
N41 N 0.02542 0.18292 0.02473 0.0
C42 C 0.04507 0.21408 -0.00204 0.0
C43 C 0.03082 0.22639 0.02276 0.0
C44 C 0.01383 0.21677 0.04856 0.0
C45 C 0.0114 0.19488 0.04918 0.0
C46 C 0.93002 0.16721 0.0131 0.0
C47 C 0.96463 0.14228 0.05633 0.0
C48 C 0.96177 0.16614 0.00983 0.0
N49 N 0.97866 0.15389 0.03146 0.0
C50 C 0.93292 0.14296 0.06037 0.0
C51 C 0.91556 0.15554 0.03859 0.0
C52 C 0.03754 0.10724 0.04043 0.0
C53 C 0.13302 0.12796 0.95242 0.0
C54 C 0.11577 0.10166 0.00547 0.0
C55 C 0.12796 0.09302 0.97558 0.0
C56 C 0.1366 0.1063 0.9489 0.0
N57 N 0.11235 0.12292 0.00873 0.0
C58 C 0.12079 0.13603 0.9827 0.0
Co59 Co 0.97344 0.84303 0.02254 0.0
Co60 Co 0.90313 0.8598 0.05149 0.0
O61 O 0.92884 0.84368 0.02017 0.0
C62 C 0.96107 0.85653 0.95181 0.0
O63 O 0.94194 0.8703 0.96472 0.0
C64 C 0.87834 0.81682 0.05634 0.0
O65 O 0.90649 0.81004 0.06001 0.0
O66 O 0.92436 0.84764 0.09189 0.0
O67 O 0.97236 0.84206 0.0736 0.0
H68 H 0.88208 0.90596 0.15311 0.0
H69 H 0.9408 0.81216 0.97907 0.0
O70 O 0.97552 0.84403 0.97146 0.0
H71 H 0.99821 0.76983 0.06298 0.0
H72 H 0.07804 0.81992 0.98427 0.0
H73 H 0.02028 0.86401 0.06545 0.0
H74 H 0.00165 0.80853 0.06354 0.0
H75 H 0.02168 0.82075 0.9827 0.0
O76 O 0.87303 0.83633 0.05253 0.0
H77 H 0.91447 0.88599 0.11295 0.0
H78 H 0.83595 0.86702 0.05699 0.0
H79 H 0.07662 0.86351 0.06813 0.0
H80 H 0.9369 0.77349 0.97741 0.0
H81 H 0.10587 0.84134 0.02732 0.0
H82 H 0.96568 0.75206 0.01965 0.0
O83 O 0.97551 0.87428 0.02395 0.0
H84 H 0.85116 0.85691 0.93694 0.0
H85 H 0.8861 0.90331 0.03015 0.0
H86 H 0.86133 0.91876 0.97937 0.0
H87 H 0.84363 0.8955 0.93232 0.0
H88 H 0.8763 0.84213 0.98805 0.0
H89 H 0.80268 0.88665 0.0967 0.0
H90 H 0.82576 0.90637 0.1451 0.0
O91 O 0.93239 0.88371 0.05107 0.0
C92 C 0.95227 0.84286 0.09722 0.0
C93 C 0.87176 0.89749 0.13206 0.0
C94 C 0.8272 0.88663 0.10042 0.0
N95 N 0.87713 0.87551 0.0825 0.0
C96 C 0.88999 0.8862 0.10918 0.0
C97 C 0.84614 0.87551 0.07806 0.0
C98 C 0.84016 0.89769 0.12756 0.0
C99 C 0.95361 0.80293 -0.00267 0.0
N100 N 0.97153 0.81258 0.02126 0.0
C101 C 0.95122 0.78105 -0.00365 0.0
C102 C 0.96733 0.76904 0.02009 0.0
C103 C 0.98558 0.779 0.04442 0.0
C104 C 0.98738 0.80091 0.04466 0.0
C105 C 0.06555 0.82961 0.00223 0.0
C106 C 0.03286 0.85423 0.04776 0.0
C107 C 0.03364 0.83017 0.00142 0.0
N108 N 0.01772 0.84228 0.02415 0.0
C109 C 0.06475 0.85405 0.04933 0.0
C110 C 0.08115 0.84162 0.0264 0.0
C111 C 0.95836 0.88797 0.03807 0.0
C112 C 0.85869 0.8672 0.95731 0.0
C113 C 0.87853 0.89308 0.00976 0.0
C114 C 0.86446 0.90192 0.9811 0.0
C115 C 0.85451 0.88886 0.95472 0.0
N116 N 0.88252 0.87182 0.01213 0.0
C117 C 0.87282 0.85891 0.98638 0.0
Co118 Co 0.02398 0.84155 0.52147 0.0
Co119 Co 0.09492 0.85949 0.49611 0.0
O120 O 0.06847 0.84276 0.52579 0.0
C121 C 0.0337 0.85519 0.59254 0.0
O122 O 0.05313 0.86899 0.58026 0.0
C123 C 0.12036 0.81674 0.49087 0.0
O124 O 0.09234 0.80984 0.48647 0.0
O125 O 0.07517 0.84776 0.45446 0.0
O126 O 0.02691 0.8407 0.47049 0.0
H127 H 0.11834 0.90733 0.39722 0.0
H128 H 0.05582 0.81105 0.56633 0.0
O129 O 0.02009 0.8425 0.57246 0.0
H130 H 0.00286 0.76812 0.4796 0.0
H131 H 0.91882 0.81689 0.55499 0.0
H132 H 0.9781 0.86198 0.47663 0.0
H133 H 0.9983 0.80675 0.47907 0.0
H134 H 0.97504 0.81854 0.55908 0.0
O135 O 0.12538 0.83624 0.49527 0.0
H136 H 0.08507 0.88651 0.43529 0.0
H137 H 0.16212 0.86726 0.49347 0.0
H138 H 0.92192 0.86066 0.47142 0.0
H139 H 0.06082 0.77244 0.56797 0.0
H140 H 0.89191 0.83799 0.5108 0.0
H141 H 0.03429 0.75071 0.52431 0.0
O142 O 0.02106 0.87278 0.5201 0.0
H143 H 0.14334 0.85525 0.61247 0.0
H144 H 0.11062 0.90279 0.51978 0.0
H145 H 0.13355 0.91765 0.5721 0.0
H146 H 0.15012 0.89381 0.61889 0.0
H147 H 0.12005 0.84106 0.55983 0.0
H148 H 0.19627 0.88774 0.45587 0.0
H149 H 0.17438 0.90803 0.40741 0.0
O150 O 0.06531 0.88316 0.49634 0.0
C151 C 0.04775 0.84231 0.4478 0.0
C152 C 0.12814 0.89861 0.41831 0.0
C153 C 0.17188 0.88759 0.4512 0.0
N154 N 0.12161 0.87583 0.46673 0.0
C155 C 0.10941 0.88684 0.44001 0.0
C156 C 0.15244 0.87599 0.47237 0.0
C157 C 0.15958 0.89898 0.42403 0.0
C158 C 0.04398 0.80168 0.54745 0.0
N159 N 0.02669 0.81113 0.52274 0.0
C160 C 0.04699 0.77984 0.54842 0.0
C161 C 0.03213 0.76766 0.52388 0.0
C162 C 0.01452 0.77741 0.49877 0.0
C163 C 0.01207 0.7993 0.49856 0.0
C164 C 0.93165 0.82679 0.53763 0.0
C165 C 0.96519 0.85198 0.4937 0.0
C166 C 0.96347 0.82783 0.53988 0.0
N167 N 0.97982 0.84021 0.51791 0.0
C168 C 0.93339 0.85134 0.4907 0.0
C169 C 0.91656 0.83863 0.51283 0.0
C170 C 0.03858 0.88689 0.50773 0.0
C171 C 0.1363 0.86579 0.59222 0.0
C172 C 0.11771 0.89231 0.54005 0.0
C173 C 0.13074 0.90081 0.56959 0.0
C174 C 0.14005 0.88743 0.59582 0.0
N175 N 0.11413 0.87106 0.53669 0.0
C176 C 0.12322 0.85784 0.5623 0.0
Co177 Co 0.97398 0.15103 0.52533 0.0
Co178 Co 0.90439 0.13398 0.49468 0.0
O179 O 0.92934 0.15026 0.52654 0.0
C180 C 0.96002 0.13773 0.59578 0.0
O181 O 0.94124 0.12388 0.58241 0.0
C182 C 0.8795 0.17689 0.48919 0.0
O183 O 0.90769 0.18374 0.48624 0.0
O184 O 0.92639 0.14614 0.45482 0.0
O185 O 0.97402 0.15183 0.47422 0.0
H186 H 0.88584 0.08749 0.39285 0.0
H187 H 0.94026 0.18196 0.56764 0.0
O188 O 0.97491 0.15019 0.57648 0.0
H189 H -0.00075 0.22415 0.48485 0.0
H190 H 0.07758 0.17455 0.56626 0.0
H191 H 0.02185 0.13002 0.48393 0.0
H192 H 0.00291 0.18546 0.48478 0.0
H193 H 0.0212 0.17357 0.56627 0.0
O194 O 0.87419 0.15735 0.49274 0.0
H195 H 0.91721 0.10768 0.43373 0.0
H196 H 0.83738 0.12655 0.4874 0.0
H197 H 0.07823 0.13065 0.48281 0.0
H198 H 0.93611 0.22062 0.56878 0.0
H199 H 0.10647 0.15304 0.52421 0.0
H200 H 0.96568 0.24198 0.5271 0.0
O201 O 0.97621 0.11978 0.52428 0.0
H202 H 0.84993 0.13693 0.60779 0.0
H203 H 0.88712 0.09046 0.51579 0.0
H204 H 0.86132 0.07503 0.56597 0.0
H205 H 0.84249 0.09833 0.6124 0.0
H206 H 0.87612 0.15169 0.5573 0.0
H207 H 0.80511 0.1067 0.44694 0.0
H208 H 0.82936 0.08692 0.39933 0.0
O209 O 0.93377 0.11016 0.49603 0.0
C210 C 0.95438 0.15097 0.45013 0.0
C211 C 0.87501 0.09599 0.41355 0.0
C212 C 0.8297 0.10679 0.44389 0.0
N213 N 0.87916 0.11812 0.46308 0.0
C214 C 0.89266 0.1074 0.43683 0.0
C215 C 0.84808 0.11803 0.46667 0.0
C216 C 0.84332 0.09569 0.41719 0.0
C217 C 0.95342 0.19116 0.54964 0.0
N218 N 0.9719 0.18147 0.52628 0.0
C219 C 0.95088 0.21304 0.55031 0.0
C220 C 0.96744 0.22501 0.52688 0.0
C221 C 0.98627 0.21501 0.50316 0.0
C222 C 0.98819 0.1931 0.50319 0.0
C223 C 0.06554 0.16476 0.54805 0.0
C224 C 0.03399 0.1399 0.50187 0.0
C225 C 0.03363 0.16412 0.54798 0.0
N226 N 0.01828 0.15189 0.52492 0.0
C227 C 0.0659 0.14015 0.50118 0.0
C228 C 0.08173 0.1527 0.52444 0.0
C229 C 0.95943 0.106 0.50983 0.0
C230 C 0.85796 0.12662 0.58768 0.0
C231 C 0.87907 0.1007 0.53592 0.0
C232 C 0.86441 0.09188 0.56424 0.0
C233 C 0.85383 0.10496 0.59027 0.0
N234 N 0.88301 0.12197 0.53355 0.0
C235 C 0.87268 0.1349 0.55896 0.0
Co236 Co 0.52463 0.65206 0.02719 0.0
Co237 Co 0.59519 0.6339 0.05333 0.0
O238 O 0.56916 0.6508 0.02348 0.0
C239 C 0.53512 0.63866 0.95615 0.0
O240 O 0.55439 0.62481 0.96858 0.0
C241 C 0.62065 0.6766 0.05949 0.0
O242 O 0.5926 0.68347 0.06364 0.0
O243 O 0.57498 0.64544 0.09483 0.0
O244 O 0.52695 0.65272 0.07823 0.0
H245 H 0.61727 0.58553 0.15191 0.0
H246 H 0.55714 0.68267 0.98309 0.0
O247 O 0.52132 0.6513 0.97615 0.0
H248 H 0.50339 0.72538 0.0695 0.0
H249 H 0.41999 0.67703 0.9924 0.0
H250 H 0.47812 0.63154 0.07115 0.0
H251 H 0.49862 0.68675 0.06957 0.0
H252 H 0.47625 0.6753 0.98912 0.0
O253 O 0.62571 0.65712 0.05491 0.0
H254 H 0.58452 0.60658 0.11363 0.0
H255 H 0.66233 0.62606 0.05687 0.0
H256 H 0.42189 0.63292 0.07554 0.0
H257 H 0.56235 0.72128 0.98192 0.0
H258 H 0.39245 0.6558 0.03596 0.0
H259 H 0.53542 0.74289 0.02542 0.0
O260 O 0.52155 0.62085 0.0282 0.0
H261 H 0.64507 0.63866 0.93777 0.0
H262 H 0.61104 0.5907 0.02933 0.0
H263 H 0.63458 0.57608 0.97718 0.0
H264 H 0.65181 0.60013 0.93095 0.0
H265 H 0.62116 0.65262 0.99023 0.0
H266 H 0.69596 0.60536 0.0947 0.0
H267 H 0.67342 0.58484 0.14254 0.0
O268 O 0.5655 0.61026 0.05235 0.0
C269 C 0.54752 0.65094 0.10118 0.0
C270 C 0.62735 0.59435 0.13108 0.0
C271 C 0.67152 0.60551 0.099 0.0
N272 N 0.62148 0.61738 0.08288 0.0
C273 C 0.60892 0.60625 0.10927 0.0
C274 C 0.65238 0.61723 0.0777 0.0
C275 C 0.65886 0.59399 0.12583 0.0
C276 C 0.54512 0.69199 0.00189 0.0
N277 N 0.52749 0.68248 0.02626 0.0
C278 C 0.54826 0.71384 0.00119 0.0
C279 C 0.53318 0.72595 0.02564 0.0
C280 C 0.51522 0.71613 0.05039 0.0
C281 C 0.51266 0.69425 0.05035 0.0
C282 C 0.43256 0.66704 0.00984 0.0
C283 C 0.46547 0.64163 0.05399 0.0
C284 C 0.46441 0.66597 0.00805 0.0
N285 N 0.48044 0.65347 0.03013 0.0
C286 C 0.43364 0.6423 0.05653 0.0
C287 C 0.41713 0.65513 0.03429 0.0
C288 C 0.53887 0.60664 0.04059 0.0
C289 C 0.63774 0.62803 0.95777 0.0
C290 C 0.61842 0.60127 0.00931 0.0
C291 C 0.63179 0.5929 0.97986 0.0
C292 C 0.64147 0.6064 0.95395 0.0
N293 N 0.61486 0.62251 0.01289 0.0
C294 C 0.62431 0.63584 0.98759 0.0
Co295 Co 0.4728 0.34266 0.02435 0.0
Co296 Co 0.40277 0.35989 0.05359 0.0
O297 O 0.42816 0.34332 0.02254 0.0
C298 C 0.45983 0.35543 0.95339 0.0
O299 O 0.44069 0.36926 0.96614 0.0
C300 C 0.37825 0.31693 0.06024 0.0
O301 O 0.40651 0.31023 0.06321 0.0
O302 O 0.42451 0.3484 0.09416 0.0
O303 O 0.47223 0.34226 0.07545 0.0
H304 H 0.38286 0.40774 0.15341 0.0
H305 H 0.43971 0.31135 0.98217 0.0
O306 O 0.47441 0.34311 0.97321 0.0
H307 H 0.49768 0.2699 0.06676 0.0
H308 H 0.57696 0.31898 0.98552 0.0
H309 H 0.5201 0.36409 0.06601 0.0
H310 H 0.50129 0.30858 0.06606 0.0
H311 H 0.52059 0.31985 0.98463 0.0
O312 O 0.37277 0.3364 0.05615 0.0
H313 H 0.41479 0.38712 0.11366 0.0
H314 H 0.33563 0.36709 0.05987 0.0
H315 H 0.57647 0.36356 0.06799 0.0
H316 H 0.43562 0.27267 0.98178 0.0
H317 H 0.60527 0.34088 0.02754 0.0
H318 H 0.46467 0.25169 0.02438 0.0
O319 O 0.47496 0.37392 0.02478 0.0
H320 H 0.34932 0.35503 0.94007 0.0
H321 H 0.38528 0.40301 0.03064 0.0
H322 H 0.35976 0.41758 0.97964 0.0
H323 H 0.34154 0.39352 0.93392 0.0
H324 H 0.37521 0.34114 0.99137 0.0
H325 H 0.30281 0.38735 0.0992 0.0
H326 H 0.32644 0.40793 0.14629 0.0
O327 O 0.43193 0.38382 0.05163 0.0
C328 C 0.45241 0.34353 0.0993 0.0
C329 C 0.3723 0.39889 0.13292 0.0
C330 C 0.32737 0.38742 0.10252 0.0
N331 N 0.37711 0.37606 0.08432 0.0
C332 C 0.39027 0.38723 0.11029 0.0
C333 C 0.34606 0.37595 0.08038 0.0
C334 C 0.34065 0.39897 0.12893 0.0
C335 C 0.45265 0.30231 0.00056 0.0
N336 N 0.47081 0.3122 0.024 0.0
C337 C 0.45014 0.28042 0.00032 0.0
C338 C 0.46642 0.26866 0.02425 0.0
C339 C 0.48492 0.27887 0.04806 0.0
C340 C 0.48682 0.30078 0.04758 0.0
C341 C 0.56467 0.32889 0.00333 0.0
C342 C 0.53249 0.35408 0.04847 0.0
C343 C 0.53276 0.32948 0.0029 0.0
N344 N 0.51709 0.34188 0.02544 0.0
C345 C 0.56439 0.35389 0.04965 0.0
C346 C 0.58054 0.34118 0.02692 0.0
C347 C 0.45785 0.38785 0.03833 0.0
C348 C 0.35707 0.36567 0.95986 0.0
C349 C 0.37749 0.39244 0.01083 0.0
C350 C 0.36299 0.40078 0.98204 0.0
C351 C 0.35276 0.38727 0.95641 0.0
N352 N 0.38161 0.37123 0.01405 0.0
C353 C 0.37163 0.35789 0.98903 0.0
Co354 Co 0.52508 0.34175 0.52337 0.0
Co355 Co 0.59607 0.35952 0.49807 0.0
O356 O 0.56953 0.34295 0.52788 0.0
C357 C 0.53447 0.3554 0.59455 0.0
O358 O 0.55385 0.3693 0.58242 0.0
C359 C 0.62165 0.31682 0.49338 0.0
O360 O 0.59368 0.30991 0.48865 0.0
O361 O 0.57657 0.3475 0.4565 0.0
O362 O 0.52815 0.34086 0.47238 0.0
H363 H 0.61997 0.40661 0.39835 0.0
H364 H 0.55677 0.31128 0.56842 0.0
O365 O 0.521 0.34272 0.57433 0.0
H366 H 0.50405 0.26828 0.48159 0.0
H367 H 0.41979 0.31713 0.5565 0.0
H368 H 0.47934 0.36215 0.47829 0.0
H369 H 0.49951 0.30692 0.48095 0.0
H370 H 0.476 0.31877 0.56082 0.0
O371 O 0.62662 0.33632 0.49787 0.0
H372 H 0.58652 0.38602 0.43657 0.0
H373 H 0.66324 0.36743 0.49585 0.0
H374 H 0.42319 0.36084 0.47287 0.0
H375 H 0.56173 0.27267 0.57018 0.0
H376 H 0.39303 0.3382 0.51216 0.0
H377 H 0.53532 0.25091 0.52647 0.0
O378 O 0.52219 0.37297 0.52185 0.0
H379 H 0.64396 0.35618 0.6148 0.0
H380 H 0.61139 0.40301 0.52108 0.0
H381 H 0.634 0.41828 0.57327 0.0
H382 H 0.65049 0.3948 0.62057 0.0
H383 H 0.62098 0.34158 0.56227 0.0
H384 H 0.69756 0.38768 0.45811 0.0
H385 H 0.67592 0.40752 0.40903 0.0
O386 O 0.56634 0.38313 0.49759 0.0
C387 C 0.54909 0.34225 0.44975 0.0
C388 C 0.62966 0.39809 0.41972 0.0
C389 C 0.67321 0.38744 0.45324 0.0
N390 N 0.62288 0.3757 0.46859 0.0
C391 C 0.61083 0.38646 0.44151 0.0
C392 C 0.65368 0.37598 0.47449 0.0
C393 C 0.66106 0.39858 0.42571 0.0
C394 C 0.54498 0.3019 0.54952 0.0
N395 N 0.52776 0.31133 0.52472 0.0
C396 C 0.54797 0.28005 0.55056 0.0
C397 C 0.53318 0.26785 0.526 0.0
C398 C 0.51565 0.27759 0.50079 0.0
C399 C 0.51322 0.29948 0.50051 0.0
C400 C 0.43268 0.32702 0.53918 0.0
C401 C 0.46638 0.35217 0.49534 0.0
C402 C 0.4645 0.32804 0.54155 0.0
N403 N 0.48093 0.34041 0.51963 0.0
C404 C 0.43459 0.35154 0.49221 0.0
C405 C 0.41768 0.33884 0.51429 0.0
C406 C 0.53963 0.38695 0.50896 0.0
C407 C 0.63694 0.36657 0.59432 0.0
C408 C 0.61845 0.39269 0.54158 0.0
C409 C 0.6313 0.40143 0.57104 0.0
C410 C 0.64056 0.38824 0.59756 0.0
N411 N 0.61501 0.37141 0.53857 0.0
C412 C 0.62405 0.35838 0.56446 0.0
Co413 Co 0.47348 0.65023 0.52621 0.0
Co414 Co 0.4028 0.63367 0.49812 0.0
O415 O 0.42891 0.64965 0.52922 0.0
C416 C 0.46187 0.63665 0.59707 0.0
O417 O 0.44258 0.62289 0.58441 0.0
C418 C 0.37805 0.67668 0.49408 0.0
O419 O 0.40617 0.68345 0.49001 0.0
O420 O 0.42358 0.64599 0.45752 0.0
O421 O 0.47183 0.65128 0.47519 0.0
H422 H 0.38038 0.58799 0.39628 0.0
H423 H 0.44148 0.68109 0.57028 0.0
O424 O 0.47613 0.64915 0.57725 0.0
H425 H 0.49816 0.72345 0.48572 0.0
H426 H 0.57862 0.67311 0.56303 0.0
H427 H 0.51973 0.62924 0.48252 0.0
H428 H 0.50139 0.68475 0.48495 0.0
H429 H 0.52228 0.67236 0.56543 0.0
O430 O 0.37274 0.65716 0.49781 0.0
H431 H 0.4133 0.60778 0.43614 0.0
H432 H 0.33555 0.62648 0.49365 0.0
H433 H 0.57603 0.62966 0.47901 0.0
H434 H 0.43779 0.71977 0.57215 0.0
H435 H 0.60586 0.65171 0.51947 0.0
H436 H 0.4662 0.74121 0.52959 0.0
O437 O 0.47539 0.61898 0.52462 0.0
H438 H 0.35221 0.63611 0.6135 0.0
H439 H 0.38598 0.59008 0.51927 0.0
H440 H 0.3618 0.57443 0.57027 0.0
H441 H 0.3447 0.5975 0.61782 0.0
H442 H 0.37675 0.6511 0.56216 0.0
H443 H 0.30175 0.60703 0.45427 0.0
H444 H 0.32417 0.58754 0.40525 0.0
O445 O 0.43202 0.60976 0.49779 0.0
C446 C 0.45148 0.65064 0.45183 0.0
C447 C 0.37035 0.59637 0.41762 0.0
C448 C 0.32621 0.60707 0.45014 0.0
N449 N 0.37639 0.61811 0.46735 0.0
C450 C 0.38888 0.60755 0.44032 0.0
C451 C 0.34546 0.61809 0.47231 0.0
C452 C 0.33881 0.59613 0.42264 0.0
C453 C 0.45413 0.69033 0.55188 0.0
N454 N 0.47173 0.68068 0.52764 0.0
C455 C 0.45186 0.71221 0.55298 0.0
C456 C 0.46777 0.72423 0.52905 0.0
C457 C 0.48569 0.71428 0.50442 0.0
C458 C 0.48737 0.69236 0.50406 0.0
C459 C 0.56588 0.66347 0.54521 0.0
C460 C 0.53255 0.63898 0.50008 0.0
C461 C 0.53398 0.66295 0.5465 0.0
N462 N 0.51775 0.6509 0.52395 0.0
C463 C 0.56443 0.6391 0.49803 0.0
C464 C 0.58115 0.65147 0.52076 0.0
C465 C 0.45808 0.6054 0.51044 0.0
C466 C 0.35949 0.6259 0.5929 0.0
C467 C 0.37867 0.60023 0.53988 0.0
C468 C 0.36493 0.59127 0.56867 0.0
C469 C 0.35532 0.60423 0.59533 0.0
N470 N 0.38265 0.6215 0.53767 0.0
C471 C 0.37327 0.6343 0.5637 0.0
C472 C 0.95208 0.92485 0.05857 0.0
C473 C 0.96804 0.91022 0.03838 0.0
C474 C 0.9596 0.94611 0.05754 0.0
C475 C 0.96687 0.99113 0.0354 0.0
H476 H 0.05145 0.00917 0.03297 0.0
C477 C 0.00206 0.07849 0.02148 0.0
C478 C 0.02735 0.08511 0.04087 0.0
C479 C 0.99431 0.05719 0.0199 0.0
C480 C 0.0277 0.00439 0.03389 0.0
H481 H 0.00477 0.90645 0.00158 0.0
H482 H 0.01769 0.94377 -0.00057 0.0
H483 H 0.03957 0.97179 0.03317 0.0
H484 H 0.06355 0.07464 0.0749 0.0
H485 H 0.04957 0.03779 0.07281 0.0
H486 H 0.95504 0.02372 0.03743 0.0
C487 C -0.00045 0.93868 0.01638 0.0
C488 C 0.0209 0.98296 0.03353 0.0
C489 C 0.99213 0.91731 0.01756 0.0
C490 C 0.04411 0.07008 0.05941 0.0
C491 C 0.03626 0.0489 0.05801 0.0
C492 C 0.97368 0.01256 0.03594 0.0
C493 C 0.98314 0.95333 0.03612 0.0
C494 C 0.99042 0.97608 0.03468 0.0
C495 C 0.0116 0.04214 0.03783 0.0
C496 C 0.00419 0.01943 0.03558 0.0
H497 H 0.93356 0.91994 0.07516 0.0
H498 H 0.94699 0.95688 0.07369 0.0
H499 H 0.94311 0.98636 0.03571 0.0
H500 H 0.98879 0.08967 0.00677 0.0
H501 H 0.97528 0.05246 0.00394 0.0
C502 C 0.00333 0.91547 0.52782 0.0
C503 C 0.02848 0.90904 0.50804 0.0
C504 C 0.99562 0.93677 0.53 0.0
C505 C 0.97481 0.98144 0.51451 0.0
H506 H 0.04057 0.02235 0.51758 0.0
C507 C 0.95341 0.06894 0.49009 0.0
C508 C 0.96912 0.08376 0.51019 0.0
C509 C 0.96088 0.0477 0.49177 0.0
C510 C 0.02193 0.01115 0.51715 0.0
H511 H 0.06453 0.91985 0.47404 0.0
H512 H 0.05064 0.95666 0.47722 0.0
H513 H 0.05256 0.98499 0.51787 0.0
H514 H 0.00532 0.08786 0.54754 0.0
H515 H 0.01819 0.05056 0.55076 0.0
H516 H 0.94416 0.0076 0.51442 0.0
C517 C 0.03739 0.94542 0.49183 0.0
C518 C 0.0288 0.98973 0.51687 0.0
C519 C 0.04518 0.92424 0.4898 0.0
C520 C 0.99289 0.07686 0.5316 0.0
C521 C 0.00028 0.0555 0.53342 0.0
C522 C 0.96793 0.00286 0.51495 0.0
C523 C 0.01282 0.95198 0.51232 0.0
C524 C 0.00534 0.97465 0.51497 0.0
C525 C 0.98412 0.04068 0.51374 0.0
C526 C 0.99144 0.01795 0.5157 0.0
H527 H 0.9901 0.90416 0.54231 0.0
H528 H 0.97665 0.94135 0.54616 0.0
H529 H 0.95621 0.97024 0.51288 0.0
H530 H 0.93514 0.07369 0.47307 0.0
H531 H 0.94849 0.03678 0.47566 0.0
C532 C 0.50378 0.57822 0.01951 0.0
C533 C 0.52864 0.58452 0.03986 0.0
C534 C 0.49593 0.55697 0.01702 0.0
C535 C 0.47434 0.51239 0.03184 0.0
H536 H 0.53962 0.47112 0.03065 0.0
C537 C 0.45146 0.42512 0.0568 0.0
C538 C 0.46754 0.41009 0.03752 0.0
C539 C 0.4591 0.44633 0.05484 0.0
C540 C 0.52112 0.48243 0.03052 0.0
H541 H 0.56402 0.5735 0.07451 0.0
H542 H 0.54985 0.53675 0.07083 0.0
H543 H 0.55209 0.50841 0.03041 0.0
H544 H 0.50451 0.40558 0.00125 0.0
H545 H 0.51767 0.44283 -0.0025 0.0
H546 H 0.44336 0.4864 0.0313 0.0
C547 C 0.53696 0.54807 0.056 0.0
C548 C 0.52825 0.5038 0.03085 0.0
C549 C 0.54491 0.56921 0.05833 0.0
C550 C 0.49179 0.41675 0.01657 0.0
C551 C 0.49934 0.43808 0.01445 0.0
C552 C 0.4672 0.49101 0.03133 0.0
C553 C 0.51267 0.54165 0.03497 0.0
C554 C 0.50495 0.51901 0.03213 0.0
C555 C 0.48288 0.45311 0.03338 0.0
C556 C 0.49052 0.47578 0.03127 0.0
H557 H 0.4909 0.58962 0.00482 0.0
H558 H 0.47719 0.5525 0.00044 0.0
H559 H 0.45585 0.52369 0.03296 0.0
H560 H 0.4328 0.42056 0.07345 0.0
H561 H 0.44644 0.45741 0.07038 0.0
C562 C 0.50488 0.41596 0.5285 0.0
C563 C 0.5292 0.40901 0.5079 0.0
C564 C 0.49665 0.43721 0.52878 0.0
C565 C 0.50116 0.48538 0.4777 0.0
H566 H 0.49164 0.51452 0.56427 0.0
C567 C 0.45238 0.56893 0.48792 0.0
C568 C 0.46785 0.58319 0.50929 0.0
C569 C 0.46025 0.54774 0.48772 0.0
C570 C 0.49442 0.50657 0.53995 0.0
H571 H 0.56344 0.41879 0.47086 0.0
H572 H 0.54881 0.4556 0.47116 0.0
H573 H 0.50325 0.47685 0.56386 0.0
H574 H 0.50386 0.58635 0.54712 0.0
H575 H 0.51756 0.54903 0.54681 0.0
H576 H 0.49244 0.51501 0.45374 0.0
C577 C 0.53619 0.44469 0.4871 0.0
C578 C 0.50069 0.48503 0.53972 0.0
C579 C 0.54462 0.4236 0.48708 0.0
C580 C 0.4916 0.57577 0.53028 0.0
C581 C 0.49928 0.55443 0.53032 0.0
C582 C 0.49462 0.50682 0.47793 0.0
C583 C 0.51232 0.45174 0.50812 0.0
C584 C 0.50425 0.47429 0.50857 0.0
C585 C 0.4836 0.54025 0.50905 0.0
C586 C 0.49126 0.51762 0.50904 0.0
H587 H 0.49265 0.40511 0.5449 0.0
H588 H 0.47799 0.44227 0.54503 0.0
H589 H 0.50366 0.47743 0.45334 0.0
H590 H 0.43398 0.57409 0.47139 0.0
H591 H 0.44762 0.53711 0.4713 0.0
C592 C 0.06343 0.15602 0.16109 0.0
C593 C 0.04064 0.15618 0.13573 0.0
C594 C 0.05573 0.1586 0.19556 0.0
C595 C 0.99241 0.17534 0.25332 0.0
H596 H 0.03301 0.13869 0.31826 0.0
C597 C 0.94423 0.15571 0.38736 0.0
C598 C 0.96503 0.15511 0.41478 0.0
C599 C 0.95462 0.15847 0.35384 0.0
C600 C 0.02174 0.14923 0.30052 0.0
H601 H 0.99188 0.15969 0.12681 0.0
H602 H 0.9785 0.16361 0.18667 0.0
H603 H 0.04938 0.13886 0.25873 0.0
H604 H 0.01309 0.15749 0.42839 0.0
H605 H 0.03105 0.16212 0.3699 0.0
H606 H 0.96407 0.1851 0.29515 0.0
C607 C 0.0024 0.16191 0.18001 0.0
C608 C 0.03118 0.14939 0.26639 0.0
C609 C 0.01009 0.1595 0.14558 0.0
C610 C 0.99639 0.15778 0.40794 0.0
C611 C 0.00675 0.16036 0.37442 0.0
C612 C 0.9828 0.17503 0.28743 0.0
C613 C 0.02506 0.16126 0.20548 0.0
C614 C 0.01643 0.16229 0.24227 0.0
C615 C 0.98602 0.16052 0.34701 0.0
C616 C 0.9972 0.16183 0.31128 0.0
H617 H 0.08721 0.15366 0.15442 0.0
H618 H 0.07383 0.15837 0.21445 0.0
H619 H 0.9809 0.18575 0.23559 0.0
H620 H 0.91994 0.15373 0.39167 0.0
H621 H 0.93815 0.15835 0.33314 0.0
C622 C 0.06158 0.83807 0.38583 0.0
C623 C 0.03923 0.83836 0.41168 0.0
C624 C 0.05319 0.8356 0.35156 0.0
C625 C 0.98837 0.81996 0.29511 0.0
H626 H 0.03013 0.85528 0.22911 0.0
C627 C 0.94129 0.83882 0.16 0.0
C628 C 0.96235 0.83878 0.1328 0.0
C629 C 0.95129 0.83629 0.19373 0.0
C630 C 0.0185 0.84513 0.24716 0.0
H631 H 0.99053 0.83578 0.42171 0.0
H632 H 0.97594 0.83208 0.36212 0.0
H633 H 0.04676 0.85532 0.2885 0.0
H634 H 0.01042 0.83539 0.11981 0.0
H635 H 0.02768 0.83112 0.17857 0.0
H636 H 0.95946 0.81036 0.25365 0.0
C637 C 1e-05 0.83333 0.36827 0.0
C638 C 0.02809 0.84508 0.28122 0.0
C639 C 0.00839 0.83562 0.40252 0.0
C640 C 0.99352 0.83562 0.14007 0.0
C641 C 0.0035 0.83325 0.17375 0.0
C642 C 0.9786 0.82017 0.26105 0.0
C643 C 0.02225 0.83354 0.3423 0.0
C644 C 0.01303 0.8326 0.30569 0.0
C645 C 0.98255 0.83381 0.20095 0.0
C646 C 0.99348 0.83284 0.2368 0.0
H647 H 0.08556 0.83996 0.39197 0.0
H648 H 0.07098 0.83544 0.33229 0.0
H649 H 0.97656 0.8099 0.31314 0.0
H650 H 0.91712 0.84119 0.15536 0.0
H651 H 0.93467 0.83693 0.21425 0.0
C652 C 0.04084 0.86896 0.65209 0.0
C653 C 0.02657 0.85484 0.62952 0.0
C654 C 0.03327 0.86903 0.68684 0.0
C655 C -0.00092 0.87419 0.75416 0.0
H656 H 0.98784 0.82134 0.802 0.0
C657 C 0.952 0.86989 0.89228 0.0
C658 C 0.96688 0.85589 0.91455 0.0
C659 C 0.95844 0.86965 0.85723 0.0
C660 C 0.99104 0.83623 0.78905 0.0
H661 H 0.99331 0.82961 0.62578 0.0
H662 H 0.98002 0.82984 0.68625 0.0
H663 H 0.00196 0.82116 0.74168 0.0
H664 H -2e-05 0.83052 0.91743 0.0
H665 H 0.0113 0.83024 0.85652 0.0
H666 H 0.98876 0.88925 0.80177 0.0
C667 C 0.99727 0.84072 0.67719 0.0
C668 C 0.99883 0.83613 0.7544 0.0
C669 C 0.00481 0.84066 0.64248 0.0
C670 C 0.98804 0.8415 0.90099 0.0
C671 C 0.99443 0.84125 0.86602 0.0
C672 C 0.99123 0.87429 0.78882 0.0
C673 C 0.01132 0.85495 0.69975 0.0
C674 C 0.00302 0.8551 0.73658 0.0
C675 C 0.97982 0.85537 0.84375 0.0
C676 C 0.98724 0.85531 0.80668 0.0
H677 H 0.05778 0.88004 0.64294 0.0
H678 H 0.0448 0.87999 0.70367 0.0
H679 H 0.0018 0.88907 0.74104 0.0
H680 H 0.9355 0.88112 0.90191 0.0
H681 H 0.94653 0.88055 0.84064 0.0
C682 C 0.00097 0.15288 0.90595 0.0
C683 C 0.02301 0.13879 0.91855 0.0
C684 C 0.99312 0.15287 0.87133 0.0
C685 C 0.99439 0.15781 0.79413 0.0
H686 H 0.98511 0.10489 0.74598 0.0
C687 C 0.98568 0.15293 0.64732 0.0
C688 C 0.96496 0.13843 0.63319 0.0
C689 C 0.99136 0.15316 0.68244 0.0
C690 C 0.98733 0.11979 0.75915 0.0
H691 H 0.0543 0.11376 0.9046 0.0
H692 H 0.04077 0.11389 0.84405 0.0
H693 H 0.99776 0.10482 0.80679 0.0
H694 H 0.93355 0.11305 0.64499 0.0
H695 H 0.94336 0.11358 0.7065 0.0
H696 H 0.98362 0.17279 0.74662 0.0
C697 C 0.02926 0.12475 0.86108 0.0
C698 C 0.99495 0.11975 0.79387 0.0
C699 C 0.03715 0.12476 0.89573 0.0
C700 C 0.94973 0.12435 0.65505 0.0
C701 C 0.95547 0.12458 0.69026 0.0
C702 C 0.98682 0.15785 0.75942 0.0
C703 C 0.00711 0.13877 0.84851 0.0
C704 C 0.99868 0.13877 0.81171 0.0
C705 C 0.97647 0.13892 0.7043 0.0
C706 C 0.98336 0.13884 0.74149 0.0
H707 H 0.98956 0.16385 0.92286 0.0
H708 H 0.97571 0.1637 0.86253 0.0
H709 H 0.99735 0.17273 0.80706 0.0
H710 H 0.99785 0.16398 0.63121 0.0
H711 H 0.00795 0.16423 0.69238 0.0
C712 C 0.56077 0.65511 0.1633 0.0
C713 C 0.53864 0.65476 0.13722 0.0
C714 C 0.55208 0.65749 0.19749 0.0
C715 C 0.48674 0.67278 0.25341 0.0
H716 H 0.52868 0.63785 0.31977 0.0
C717 C 0.44008 0.65442 0.38908 0.0
C718 C 0.46129 0.65468 0.41614 0.0
C719 C 0.4499 0.65682 0.35524 0.0
C720 C 0.51698 0.64789 0.30161 0.0
H721 H 0.49 0.6571 0.12672 0.0
H722 H 0.47489 0.66063 0.18621 0.0
H723 H 0.5454 0.6377 0.26042 0.0
H724 H 0.50941 0.65835 0.42872 0.0
H725 H 0.52632 0.66238 0.36982 0.0
H726 H 0.4577 0.6824 0.29477 0.0
C727 C 0.49901 0.6595 0.18028 0.0
C728 C 0.52663 0.64788 0.26758 0.0
C729 C 0.5077 0.65732 0.14609 0.0
C730 C 0.4924 0.65794 0.4086 0.0
C731 C 0.50218 0.66017 0.37482 0.0
C732 C 0.47691 0.67264 0.28746 0.0
C733 C 0.52105 0.65937 0.20646 0.0
C734 C 0.51156 0.66025 0.24299 0.0
C735 C 0.4811 0.65936 0.34778 0.0
C736 C 0.4919 0.66014 0.31186 0.0
H737 H 0.58483 0.65336 0.15738 0.0
H738 H 0.56972 0.65772 0.21692 0.0
H739 H 0.4749 0.68275 0.23528 0.0
H740 H 0.41597 0.65197 0.39393 0.0
H741 H 0.43318 0.65599 0.33484 0.0
C742 C 0.56286 0.33828 0.38769 0.0
C743 C 0.54056 0.33838 0.4136 0.0
C744 C 0.55442 0.33602 0.3534 0.0
C745 C 0.48953 0.3206 0.29687 0.0
H746 H 0.53093 0.3564 0.23126 0.0
C747 C 0.44184 0.3398 0.16222 0.0
C748 C 0.46277 0.33977 0.13488 0.0
C749 C 0.45202 0.33734 0.19589 0.0
C750 C 0.51939 0.34612 0.2492 0.0
H751 H 0.49188 0.33564 0.42367 0.0
H752 H 0.47721 0.33227 0.36407 0.0
H753 H 0.54776 0.3561 0.29061 0.0
H754 H 0.51081 0.33663 0.12163 0.0
H755 H 0.52839 0.33251 0.18032 0.0
H756 H 0.46053 0.31119 0.25538 0.0
C757 C 0.50128 0.33353 0.37018 0.0
C758 C 0.5291 0.34587 0.28323 0.0
C759 C 0.50972 0.33563 0.40446 0.0
C760 C 0.49401 0.33682 0.14199 0.0
C761 C 0.50417 0.33454 0.17564 0.0
C762 C 0.47964 0.321 0.26286 0.0
C763 C 0.52347 0.33395 0.34417 0.0
C764 C 0.51417 0.33322 0.30757 0.0
C765 C 0.48333 0.33498 0.20295 0.0
C766 C 0.49439 0.33385 0.23875 0.0
H767 H 0.58685 0.34021 0.39381 0.0
H768 H 0.57217 0.33602 0.33408 0.0
H769 H 0.47782 0.3104 0.31478 0.0
H770 H 0.41763 0.34201 0.1577 0.0
H771 H 0.43548 0.3379 0.2165 0.0
C772 C 0.45108 0.36877 0.89379 0.0
C773 C 0.46574 0.35471 0.91615 0.0
C774 C 0.45782 0.3686 0.85881 0.0
C775 C 0.49132 0.3735 0.79093 0.0
H776 H 0.50236 0.3206 0.7432 0.0
C777 C 0.54147 0.3689 0.65431 0.0
C778 C 0.52727 0.35488 0.63151 0.0
C779 C 0.53385 0.36877 0.68906 0.0
C780 C 0.49916 0.3355 0.75609 0.0
H781 H 0.49867 0.32925 0.91921 0.0
H782 H 0.5105 0.32908 0.85841 0.0
H783 H 0.48775 0.32049 0.80339 0.0
H784 H 0.49409 0.32962 0.62738 0.0
H785 H 0.4807 0.32952 0.6878 0.0
H786 H 0.50228 0.38851 0.74345 0.0
C787 C 0.49359 0.3401 0.8678 0.0
C788 C 0.49108 0.33544 0.79067 0.0
C789 C 0.4869 0.34028 0.90271 0.0
C790 C 0.50554 0.3406 0.64425 0.0
C791 C 0.49795 0.34047 0.67894 0.0
C792 C 0.49945 0.37356 0.75634 0.0
C793 C 0.47928 0.35433 0.84547 0.0
C794 C 0.48713 0.35443 0.8085 0.0
C795 C 0.51192 0.35459 0.70173 0.0
C796 C 0.50348 0.35456 0.73854 0.0
H797 H 0.43458 0.38003 0.90331 0.0
H798 H 0.44612 0.37958 0.84218 0.0
H799 H 0.48876 0.3884 0.80403 0.0
H800 H 0.5584 0.38005 0.64534 0.0
H801 H 0.54532 0.37966 0.70606 0.0
C802 C 0.50666 0.65325 0.90597 0.0
C803 C 0.52826 0.63903 0.91911 0.0
C804 C 0.49927 0.65315 0.87123 0.0
C805 C 0.50095 0.65748 0.79398 0.0
H806 H 0.49045 0.60421 0.74717 0.0
C807 C 0.48939 0.65167 0.64752 0.0
C808 C 0.46803 0.63731 0.63425 0.0
C809 C 0.49604 0.65198 0.68243 0.0
C810 C 0.49304 0.61921 0.75996 0.0
H811 H 0.55939 0.61374 0.90596 0.0
H812 H 0.54666 0.61371 0.84516 0.0
H813 H 0.50363 0.60458 0.80785 0.0
H814 H 0.43659 0.61218 0.64735 0.0
H815 H 0.44807 0.61286 0.7085 0.0
H816 H 0.48991 0.67212 0.74629 0.0
C817 C 0.53513 0.62474 0.86188 0.0
C818 C 0.50097 0.61942 0.7946 0.0
C819 C 0.54256 0.62485 0.89667 0.0
C820 C 0.45324 0.62339 0.65675 0.0
C821 C 0.45993 0.6237 0.69174 0.0
C822 C 0.49307 0.65727 0.75936 0.0
C823 C 0.51331 0.63883 0.84881 0.0
C824 C 0.50504 0.63857 0.81198 0.0
C825 C 0.48148 0.63796 0.70492 0.0
C826 C 0.4891 0.63814 0.74194 0.0
H827 H 0.49514 0.66435 0.92257 0.0
H828 H 0.48211 0.66404 0.86205 0.0
H829 H 0.50417 0.67249 0.80656 0.0
H830 H 0.50127 0.66259 0.6309 0.0
H831 H 0.51304 0.66298 0.69169 0.0
C832 C 0.35714 0.28026 0.05982 0.0
C833 C 0.35235 0.30208 0.06116 0.0
C834 C 0.33224 0.26646 0.05974 0.0
C835 C 0.25067 0.26308 0.0825 0.0
H836 H 0.24871 0.2176 0.01651 0.0
C837 C 0.14203 0.21369 0.05832 0.0
C838 C 0.14622 0.19194 0.05439 0.0
C839 C 0.16725 0.2272 0.05909 0.0
C840 C 0.24905 0.23008 0.03535 0.0
H841 H 0.31776 0.32652 0.06391 0.0
H842 H 0.27461 0.30251 0.06373 0.0
H843 H 0.29334 0.24052 0.01934 0.0
H844 H 0.18014 0.1673 0.04808 0.0
H845 H 0.22386 0.19073 0.04995 0.0
H846 H 0.20648 0.25263 0.09865 0.0
C847 C 0.2975 0.29604 0.06296 0.0
C848 C 0.27463 0.24317 0.03698 0.0
C849 C 0.32228 0.30979 0.06283 0.0
C850 C 0.17605 0.184 0.05103 0.0
C851 C 0.20118 0.19744 0.05189 0.0
C852 C 0.22515 0.24994 0.08097 0.0
C853 C 0.30219 0.27425 0.06128 0.0
C854 C 0.27563 0.25984 0.06048 0.0
C855 C 0.1971 0.21918 0.05598 0.0
C856 C 0.22403 0.23333 0.05732 0.0
H857 H 0.38005 0.27386 0.05847 0.0
H858 H 0.33649 0.2497 0.05867 0.0
H859 H 0.251 0.27567 0.10115 0.0
H860 H 0.11932 0.2203 0.06081 0.0
H861 H 0.16337 0.24392 0.06185 0.0
C862 C 0.64225 0.71312 0.06044 0.0
C863 C 0.64679 0.69127 0.06001 0.0
C864 C 0.6673 0.72678 0.06042 0.0
C865 C 0.74943 0.72913 0.08067 0.0
H866 H 0.74967 0.77706 0.0194 0.0
C867 C 0.85698 0.78022 0.05847 0.0
C868 C 0.85231 0.80204 0.05674 0.0
C869 C 0.83201 0.76648 0.05881 0.0
C870 C 0.74983 0.76387 0.03692 0.0
H871 H 0.68113 0.6666 0.05944 0.0
H872 H 0.72457 0.69039 0.05933 0.0
H873 H 0.70527 0.75392 0.02112 0.0
H874 H 0.81781 0.82655 0.05421 0.0
H875 H 0.77458 0.80271 0.05532 0.0
H876 H 0.7939 0.73913 0.09664 0.0
C877 C 0.70175 0.69698 0.05995 0.0
C878 C 0.72438 0.75065 0.03791 0.0
C879 C 0.67681 0.68336 0.05978 0.0
C880 C 0.82226 0.80982 0.05539 0.0
C881 C 0.79741 0.79614 0.05581 0.0
C882 C 0.77484 0.7424 0.07977 0.0
C883 C 0.69728 0.71881 0.06019 0.0
C884 C 0.72395 0.73314 0.05977 0.0
C885 C 0.80196 0.77432 0.05745 0.0
C886 C 0.7753 0.75993 0.05791 0.0
H887 H 0.6194 0.71967 0.06058 0.0
H888 H 0.66322 0.74357 0.06087 0.0
H889 H 0.74956 0.71587 0.09805 0.0
H890 H 0.87986 0.77375 0.0594 0.0
H891 H 0.83624 0.74972 0.05972 0.0
C892 C 0.17651 0.81004 0.49097 0.0
C893 C 0.14651 0.80209 0.49071 0.0
C894 C 0.20147 0.79645 0.49101 0.0
C895 C 0.22423 0.7429 0.5135 0.0
H896 H 0.29355 0.75425 0.45435 0.0
C897 C 0.322 0.68369 0.49584 0.0
C898 C 0.35205 0.69147 0.49407 0.0
C899 C 0.29717 0.69738 0.49563 0.0
C900 C 0.27455 0.75103 0.47135 0.0
H901 H 0.11915 0.77366 0.49036 0.0
H902 H 0.16301 0.74981 0.49047 0.0
H903 H 0.24921 0.77747 0.45292 0.0
H904 H 0.37962 0.71974 0.49095 0.0
H905 H 0.33603 0.74378 0.49101 0.0
H906 H 0.24959 0.71657 0.53217 0.0
C907 C 0.16706 0.7666 0.49077 0.0
C908 C 0.24914 0.76428 0.47044 0.0
C909 C 0.14199 0.78024 0.49051 0.0
C910 C 0.35673 0.71328 0.4922 0.0
C911 C 0.33178 0.72702 0.49207 0.0
C912 C 0.24969 0.7297 0.51452 0.0
C913 C 0.19703 0.77461 0.49096 0.0
C914 C 0.22372 0.76032 0.49148 0.0
C915 C 0.30174 0.71919 0.49379 0.0
C916 C 0.27509 0.73359 0.49338 0.0
H917 H 0.18082 0.8268 0.49114 0.0
H918 H 0.22429 0.80306 0.49161 0.0
H919 H 0.20516 0.73967 0.53039 0.0
H920 H 0.31754 0.66697 0.49715 0.0
H921 H 0.27433 0.69082 0.4964 0.0
C922 C 0.67782 0.31014 0.49445 0.0
C923 C 0.64784 0.3022 0.49297 0.0
C924 C 0.70281 0.29658 0.49371 0.0
C925 C 0.72547 0.24222 0.51104 0.0
H926 H 0.79521 0.25584 0.45381 0.0
C927 C 0.82342 0.1838 0.48894 0.0
C928 C 0.85347 0.19164 0.48888 0.0
C929 C 0.79856 0.19746 0.48923 0.0
C930 C 0.77609 0.25197 0.47024 0.0
H931 H 0.62056 0.27379 0.48981 0.0
H932 H 0.66446 0.25 0.4885 0.0
H933 H 0.75091 0.27912 0.45445 0.0
H934 H 0.88102 0.21999 0.48904 0.0
H935 H 0.83737 0.24397 0.48995 0.0
H936 H 0.75066 0.21518 0.52706 0.0
C937 C 0.66847 0.26677 0.49037 0.0
C938 C 0.7507 0.26525 0.47054 0.0
C939 C 0.64338 0.28037 0.49095 0.0
C940 C 0.85813 0.21348 0.48893 0.0
C941 C 0.83315 0.2272 0.48932 0.0
C942 C 0.75089 0.22898 0.51084 0.0
C943 C 0.69842 0.27477 0.49161 0.0
C944 C 0.72513 0.2605 0.49092 0.0
C945 C 0.8031 0.2193 0.48962 0.0
C946 C 0.77644 0.23367 0.49036 0.0
H947 H 0.68209 0.32688 0.49609 0.0
H948 H 0.7256 0.30318 0.49518 0.0
H949 H 0.70629 0.23835 0.5274 0.0
H950 H 0.81898 0.16705 0.48869 0.0
H951 H 0.77573 0.19088 0.48882 0.0
loop_
_geom_bond_atom_site_label_1
_geom_bond_atom_site_label_2
_geom_bond_distance
_geom_bond_site_symmetry_2
_ccdc_geom_bond_type
Co0 O2 2.143 . S
Co0 O8 2.074 . S
Co0 O11 2.093 1_554 S
Co0 O24 2.097 . S
Co0 N41 2.151 1_455 S
Co0 N49 2.214 1_455 S
Co1 O2 2.160 . S
Co1 O7 2.058 . S
Co1 O17 2.057 . S
Co1 O32 2.037 . S
Co1 N36 2.145 . S
Co1 N57 2.257 . S
O2 Co0 2.143 . S
O2 Co1 2.160 . S
C3 O4 1.278 . S
C3 O11 1.224 . S
O4 C3 1.278 . S
C5 O6 1.245 . S
C5 O17 1.232 . S
O6 C5 1.245 . S
O7 Co1 2.058 . S
O7 C33 1.269 . S
O8 Co0 2.074 . S
O8 C33 1.257 . S
H9 C34 0.930 . S
H10 C40 0.930 1_556 S
O11 Co0 2.093 1_556 S
O11 C3 1.224 . S
H12 C44 0.929 . S
H13 C46 0.930 . S
H14 C47 0.930 . S
H15 C45 0.929 . S
H16 C48 0.928 . S
O17 Co1 2.057 . S
O17 C5 1.232 . S
H18 C37 0.929 . S
H19 C38 0.929 . S
H20 C50 0.931 . S
H21 C42 0.929 1_556 S
H22 C51 0.930 . S
H23 C43 0.931 . S
O24 Co0 2.097 . S
O24 C52 1.214 . S
H25 C53 0.929 . S
H26 C54 0.929 . S
H27 C55 0.930 . S
H28 C56 0.929 . S
H29 C58 0.930 . S
H30 C35 0.930 . S
H31 C39 0.930 . S
O32 Co1 2.037 . S
O32 C52 1.234 . S
C33 O7 1.269 . S
C33 O8 1.257 . S
C34 H9 0.930 . S
C34 C37 1.388 . S
C34 C39 1.418 . S
C35 H30 0.930 . S
C35 C38 1.404 . S
C35 C39 1.353 . S
N36 Co1 2.145 . S
N36 C37 1.397 . S
N36 C38 1.334 . S
C37 H18 0.929 . S
C37 C34 1.388 . S
C37 N36 1.397 . S
C38 H19 0.929 . S
C38 C35 1.404 . S
C38 N36 1.334 . S
C39 H31 0.930 . S
C39 C34 1.418 . S
C39 C35 1.353 . S
C40 H10 0.930 1_554 S
C40 N41 1.330 1_455 S
C40 C42 1.446 1_455 S
N41 Co0 2.151 1_655 S
N41 C40 1.330 1_655 S
N41 C45 1.418 . S
C42 H21 0.929 1_554 S
C42 C40 1.446 1_655 S
C42 C43 1.332 . S
C43 H23 0.931 . S
C43 C42 1.332 . S
C43 C44 1.267 . S
C44 H12 0.929 . S
C44 C43 1.267 . S
C44 C45 1.251 . S
C45 H15 0.929 . S
C45 N41 1.418 . S
C45 C44 1.251 . S
C46 H13 0.930 . S
C46 C48 1.406 . S
C46 C51 1.261 . S
C47 H14 0.930 . S
C47 N49 1.325 . S
C47 C50 1.357 . S
C48 H16 0.928 . S
C48 C46 1.406 . S
C48 N49 1.261 . S
N49 Co0 2.214 1_655 S
N49 C47 1.325 . S
N49 C48 1.261 . S
C50 H20 0.931 . S
C50 C47 1.357 . S
C50 C51 1.312 . S
C51 H22 0.930 . S
C51 C46 1.261 . S
C51 C50 1.312 . S
C52 O24 1.214 . S
C52 O32 1.234 . S
C53 H25 0.929 . S
C53 C56 1.391 . S
C53 C58 1.391 . S
C54 H26 0.929 . S
C54 C55 1.390 1_554 S
C54 N57 1.391 . S
C55 H27 0.930 . S
C55 C54 1.390 1_556 S
C55 C56 1.392 . S
C56 H28 0.929 . S
C56 C53 1.391 . S
C56 C55 1.392 . S
N57 Co1 2.257 . S
N57 C54 1.391 . S
N57 C58 1.388 1_554 S
C58 H29 0.930 . S
C58 C53 1.391 . S
C58 N57 1.388 1_556 S
Co59 O61 2.143 . S
Co59 O67 2.074 . S
Co59 O70 2.093 1_554 S
Co59 O83 2.097 . S
Co59 N100 2.151 1_655 S
Co59 N108 2.214 1_655 S
Co60 O61 2.160 . S
Co60 O66 2.058 . S
Co60 O76 2.057 . S
Co60 O91 2.037 . S
Co60 N95 2.145 . S
Co60 N116 2.257 . S
O61 Co59 2.143 . S
O61 Co60 2.160 . S
C62 O63 1.278 . S
C62 O70 1.224 . S
O63 C62 1.278 . S
C64 O65 1.245 . S
C64 O76 1.232 . S
O65 C64 1.245 . S
O66 Co60 2.058 . S
O66 C92 1.269 . S
O67 Co59 2.074 . S
O67 C92 1.257 . S
H68 C93 0.930 . S
H69 C99 0.930 1_556 S
O70 Co59 2.093 1_556 S
O70 C62 1.224 . S
H71 C103 0.929 . S
H72 C105 0.930 . S
H73 C106 0.930 . S
H74 C104 0.929 . S
H75 C107 0.928 . S
O76 Co60 2.057 . S
O76 C64 1.232 . S
H77 C96 0.929 . S
H78 C97 0.929 . S
H79 C109 0.931 . S
H80 C101 0.929 1_556 S
H81 C110 0.930 . S
H82 C102 0.931 . S
O83 Co59 2.097 . S
O83 C111 1.214 . S
H84 C112 0.929 . S
H85 C113 0.929 . S
H86 C114 0.930 . S
H87 C115 0.929 . S
H88 C117 0.930 . S
H89 C94 0.930 . S
H90 C98 0.930 . S
O91 Co60 2.037 . S
O91 C111 1.234 . S
C92 O66 1.269 . S
C92 O67 1.257 . S
C93 H68 0.930 . S
C93 C96 1.388 . S
C93 C98 1.418 . S
C94 H89 0.930 . S
C94 C97 1.404 . S
C94 C98 1.353 . S
N95 Co60 2.145 . S
N95 C96 1.397 . S
N95 C97 1.334 . S
C96 H77 0.929 . S
C96 C93 1.388 . S
C96 N95 1.397 . S
C97 H78 0.929 . S
C97 C94 1.404 . S
C97 N95 1.334 . S
C98 H90 0.930 . S
C98 C93 1.418 . S
C98 C94 1.353 . S
C99 H69 0.930 1_554 S
C99 N100 1.330 1_655 S
C99 C101 1.446 1_655 S
N100 Co59 2.151 1_455 S
N100 C99 1.330 1_455 S
N100 C104 1.418 . S
C101 H80 0.929 1_554 S
C101 C99 1.446 1_455 S
C101 C102 1.332 . S
C102 H82 0.931 . S
C102 C101 1.332 . S
C102 C103 1.267 . S
C103 H71 0.929 . S
C103 C102 1.267 . S
C103 C104 1.251 . S
C104 H74 0.929 . S
C104 N100 1.418 . S
C104 C103 1.251 . S
C105 H72 0.930 . S
C105 C107 1.406 . S
C105 C110 1.261 . S
C106 H73 0.930 . S
C106 N108 1.325 . S
C106 C109 1.357 . S
C107 H75 0.928 . S
C107 C105 1.406 . S
C107 N108 1.261 . S
N108 Co59 2.214 1_455 S
N108 C106 1.325 . S
N108 C107 1.261 . S
C109 H79 0.931 . S
C109 C106 1.357 . S
C109 C110 1.312 . S
C110 H81 0.930 . S
C110 C105 1.261 . S
C110 C109 1.312 . S
C111 O83 1.214 . S
C111 O91 1.234 . S
C112 H84 0.929 . S
C112 C115 1.391 . S
C112 C117 1.391 . S
C113 H85 0.929 . S
C113 C114 1.390 1_554 S
C113 N116 1.391 . S
C114 H86 0.930 . S
C114 C113 1.390 1_556 S
C114 C115 1.392 . S
C115 H87 0.929 . S
C115 C112 1.391 . S
C115 C114 1.392 . S
N116 Co60 2.257 . S
N116 C113 1.391 . S
N116 C117 1.388 1_554 S
C117 H88 0.930 . S
C117 C112 1.391 . S
C117 N116 1.388 1_556 S
Co118 O120 2.143 . S
Co118 O126 2.074 . S
Co118 O129 2.093 . S
Co118 O142 2.097 . S
Co118 N159 2.151 1_455 S
Co118 N167 2.214 1_455 S
Co119 O120 2.160 . S
Co119 O125 2.058 . S
Co119 O135 2.057 . S
Co119 O150 2.037 . S
Co119 N154 2.145 . S
Co119 N175 2.257 . S
O120 Co118 2.143 . S
O120 Co119 2.160 . S
C121 O122 1.278 . S
C121 O129 1.224 . S
O122 C121 1.278 . S
C123 O124 1.245 . S
C123 O135 1.232 . S
O124 C123 1.245 . S
O125 Co119 2.058 . S
O125 C151 1.269 . S
O126 Co118 2.074 . S
O126 C151 1.257 . S
H127 C152 0.930 . S
H128 C158 0.930 . S
O129 Co118 2.093 . S
O129 C121 1.224 . S
H130 C162 0.929 . S
H131 C164 0.930 . S
H132 C165 0.930 . S
H133 C163 0.929 . S
H134 C166 0.928 . S
O135 Co119 2.057 . S
O135 C123 1.232 . S
H136 C155 0.929 . S
H137 C156 0.929 . S
H138 C168 0.931 . S
H139 C160 0.929 . S
H140 C169 0.930 . S
H141 C161 0.931 . S
O142 Co118 2.097 . S
O142 C170 1.214 . S
H143 C171 0.929 . S
H144 C172 0.929 . S
H145 C173 0.930 . S
H146 C174 0.929 . S
H147 C176 0.930 . S
H148 C153 0.930 . S
H149 C157 0.930 . S
O150 Co119 2.037 . S
O150 C170 1.234 . S
C151 O125 1.269 . S
C151 O126 1.257 . S
C152 H127 0.930 . S
C152 C155 1.388 . S
C152 C157 1.418 . S
C153 H148 0.930 . S
C153 C156 1.404 . S
C153 C157 1.353 . S
N154 Co119 2.145 . S
N154 C155 1.397 . S
N154 C156 1.334 . S
C155 H136 0.929 . S
C155 C152 1.388 . S
C155 N154 1.397 . S
C156 H137 0.929 . S
C156 C153 1.404 . S
C156 N154 1.334 . S
C157 H149 0.930 . S
C157 C152 1.418 . S
C157 C153 1.353 . S
C158 H128 0.930 . S
C158 N159 1.330 1_455 S
C158 C160 1.446 1_455 S
N159 Co118 2.151 1_655 S
N159 C158 1.330 1_655 S
N159 C163 1.418 . S
C160 H139 0.929 . S
C160 C158 1.446 1_655 S
C160 C161 1.332 . S
C161 H141 0.931 . S
C161 C160 1.332 . S
C161 C162 1.267 . S
C162 H130 0.929 . S
C162 C161 1.267 . S
C162 C163 1.251 . S
C163 H133 0.929 . S
C163 N159 1.418 . S
C163 C162 1.251 . S
C164 H131 0.930 . S
C164 C166 1.406 . S
C164 C169 1.261 . S
C165 H132 0.930 . S
C165 N167 1.325 . S
C165 C168 1.357 . S
C166 H134 0.928 . S
C166 C164 1.406 . S
C166 N167 1.261 . S
N167 Co118 2.214 1_655 S
N167 C165 1.325 . S
N167 C166 1.261 . S
C168 H138 0.931 . S
C168 C165 1.357 . S
C168 C169 1.312 . S
C169 H140 0.930 . S
C169 C164 1.261 . S
C169 C168 1.312 . S
C170 O142 1.214 . S
C170 O150 1.234 . S
C171 H143 0.929 . S
C171 C174 1.391 . S
C171 C176 1.391 . S
C172 H144 0.929 . S
C172 C173 1.390 . S
C172 N175 1.391 . S
C173 H145 0.930 . S
C173 C172 1.390 . S
C173 C174 1.392 . S
C174 H146 0.929 . S
C174 C171 1.391 . S
C174 C173 1.392 . S
N175 Co119 2.257 . S
N175 C172 1.391 . S
N175 C176 1.388 . S
C176 H147 0.930 . S
C176 C171 1.391 . S
C176 N175 1.388 . S
Co177 O179 2.143 . S
Co177 O185 2.074 . S
Co177 O188 2.093 . S
Co177 O201 2.097 . S
Co177 N218 2.151 1_655 S
Co177 N226 2.214 1_655 S
Co178 O179 2.160 . S
Co178 O184 2.058 . S
Co178 O194 2.057 . S
Co178 O209 2.037 . S
Co178 N213 2.145 . S
Co178 N234 2.257 . S
O179 Co177 2.143 . S
O179 Co178 2.160 . S
C180 O181 1.278 . S
C180 O188 1.224 . S
O181 C180 1.278 . S
C182 O183 1.245 . S
C182 O194 1.232 . S
O183 C182 1.245 . S
O184 Co178 2.058 . S
O184 C210 1.269 . S
O185 Co177 2.074 . S
O185 C210 1.257 . S
H186 C211 0.930 . S
H187 C217 0.930 . S
O188 Co177 2.093 . S
O188 C180 1.224 . S
H189 C221 0.929 . S
H190 C223 0.930 . S
H191 C224 0.930 . S
H192 C222 0.929 . S
H193 C225 0.928 . S
O194 Co178 2.057 . S
O194 C182 1.232 . S
H195 C214 0.929 . S
H196 C215 0.929 . S
H197 C227 0.931 . S
H198 C219 0.929 . S
H199 C228 0.930 . S
H200 C220 0.931 . S
O201 Co177 2.097 . S
O201 C229 1.214 . S
H202 C230 0.929 . S
H203 C231 0.929 . S
H204 C232 0.930 . S
H205 C233 0.929 . S
H206 C235 0.930 . S
H207 C212 0.930 . S
H208 C216 0.930 . S
O209 Co178 2.037 . S
O209 C229 1.234 . S
C210 O184 1.269 . S
C210 O185 1.257 . S
C211 H186 0.930 . S
C211 C214 1.388 . S
C211 C216 1.418 . S
C212 H207 0.930 . S
C212 C215 1.404 . S
C212 C216 1.353 . S
N213 Co178 2.145 . S
N213 C214 1.397 . S
N213 C215 1.334 . S
C214 H195 0.929 . S
C214 C211 1.388 . S
C214 N213 1.397 . S
C215 H196 0.929 . S
C215 C212 1.404 . S
C215 N213 1.334 . S
C216 H208 0.930 . S
C216 C211 1.418 . S
C216 C212 1.353 . S
C217 H187 0.930 . S
C217 N218 1.330 1_655 S
C217 C219 1.446 1_655 S
N218 Co177 2.151 1_455 S
N218 C217 1.330 1_455 S
N218 C222 1.418 . S
C219 H198 0.929 . S
C219 C217 1.446 1_455 S
C219 C220 1.332 . S
C220 H200 0.931 . S
C220 C219 1.332 . S
C220 C221 1.267 . S
C221 H189 0.929 . S
C221 C220 1.267 . S
C221 C222 1.251 . S
C222 H192 0.929 . S
C222 N218 1.418 . S
C222 C221 1.251 . S
C223 H190 0.930 . S
C223 C225 1.406 . S
C223 C228 1.261 . S
C224 H191 0.930 . S
C224 N226 1.325 . S
C224 C227 1.357 . S
C225 H193 0.928 . S
C225 C223 1.406 . S
C225 N226 1.261 . S
N226 Co177 2.214 1_455 S
N226 C224 1.325 . S
N226 C225 1.261 . S
C227 H197 0.931 . S
C227 C224 1.357 . S
C227 C228 1.312 . S
C228 H199 0.930 . S
C228 C223 1.261 . S
C228 C227 1.312 . S
C229 O201 1.214 . S
C229 O209 1.234 . S
C230 H202 0.929 . S
C230 C233 1.391 . S
C230 C235 1.391 . S
C231 H203 0.929 . S
C231 C232 1.390 . S
C231 N234 1.391 . S
C232 H204 0.930 . S
C232 C231 1.390 . S
C232 C233 1.392 . S
C233 H205 0.929 . S
C233 C230 1.391 . S
C233 C232 1.392 . S
N234 Co178 2.257 . S
N234 C231 1.391 . S
N234 C235 1.388 . S
C235 H206 0.930 . S
C235 C230 1.391 . S
C235 N234 1.388 . S
Co236 O238 2.143 . S
Co236 O244 2.074 . S
Co236 O247 2.093 1_554 S
Co236 O260 2.097 . S
Co236 N277 2.151 . S
Co236 N285 2.214 . S
Co237 O238 2.160 . S
Co237 O243 2.058 . S
Co237 O253 2.057 . S
Co237 O268 2.037 . S
Co237 N272 2.145 . S
Co237 N293 2.257 . S
O238 Co236 2.143 . S
O238 Co237 2.160 . S
C239 O240 1.278 . S
C239 O247 1.224 . S
O240 C239 1.278 . S
C241 O242 1.245 . S
C241 O253 1.232 . S
O242 C241 1.245 . S
O243 Co237 2.058 . S
O243 C269 1.269 . S
O244 Co236 2.074 . S
O244 C269 1.257 . S
H245 C270 0.930 . S
H246 C276 0.930 1_556 S
O247 Co236 2.093 1_556 S
O247 C239 1.224 . S
H248 C280 0.929 . S
H249 C282 0.930 . S
H250 C283 0.930 . S
H251 C281 0.929 . S
H252 C284 0.928 . S
O253 Co237 2.057 . S
O253 C241 1.232 . S
H254 C273 0.929 . S
H255 C274 0.929 . S
H256 C286 0.931 . S
H257 C278 0.929 1_556 S
H258 C287 0.930 . S
H259 C279 0.931 . S
O260 Co236 2.097 . S
O260 C288 1.214 . S
H261 C289 0.929 . S
H262 C290 0.929 . S
H263 C291 0.930 . S
H264 C292 0.929 . S
H265 C294 0.930 . S
H266 C271 0.930 . S
H267 C275 0.930 . S
O268 Co237 2.037 . S
O268 C288 1.234 . S
C269 O243 1.269 . S
C269 O244 1.257 . S
C270 H245 0.930 . S
C270 C273 1.388 . S
C270 C275 1.418 . S
C271 H266 0.930 . S
C271 C274 1.404 . S
C271 C275 1.353 . S
N272 Co237 2.145 . S
N272 C273 1.397 . S
N272 C274 1.334 . S
C273 H254 0.929 . S
C273 C270 1.388 . S
C273 N272 1.397 . S
C274 H255 0.929 . S
C274 C271 1.404 . S
C274 N272 1.334 . S
C275 H267 0.930 . S
C275 C270 1.418 . S
C275 C271 1.353 . S
C276 H246 0.930 1_554 S
C276 N277 1.330 . S
C276 C278 1.446 . S
N277 Co236 2.151 . S
N277 C276 1.330 . S
N277 C281 1.418 . S
C278 H257 0.929 1_554 S
C278 C276 1.446 . S
C278 C279 1.332 . S
C279 H259 0.931 . S
C279 C278 1.332 . S
C279 C280 1.267 . S
C280 H248 0.929 . S
C280 C279 1.267 . S
C280 C281 1.251 . S
C281 H251 0.929 . S
C281 N277 1.418 . S
C281 C280 1.251 . S
C282 H249 0.930 . S
C282 C284 1.406 . S
C282 C287 1.261 . S
C283 H250 0.930 . S
C283 N285 1.325 . S
C283 C286 1.357 . S
C284 H252 0.928 . S
C284 C282 1.406 . S
C284 N285 1.261 . S
N285 Co236 2.214 . S
N285 C283 1.325 . S
N285 C284 1.261 . S
C286 H256 0.931 . S
C286 C283 1.357 . S
C286 C287 1.312 . S
C287 H258 0.930 . S
C287 C282 1.261 . S
C287 C286 1.312 . S
C288 O260 1.214 . S
C288 O268 1.234 . S
C289 H261 0.929 . S
C289 C292 1.391 . S
C289 C294 1.391 . S
C290 H262 0.929 . S
C290 C291 1.390 1_554 S
C290 N293 1.391 . S
C291 H263 0.930 . S
C291 C290 1.390 1_556 S
C291 C292 1.392 . S
C292 H264 0.929 . S
C292 C289 1.391 . S
C292 C291 1.392 . S
N293 Co237 2.257 . S
N293 C290 1.391 . S
N293 C294 1.388 1_554 S
C294 H265 0.930 . S
C294 C289 1.391 . S
C294 N293 1.388 1_556 S
Co295 O297 2.143 . S
Co295 O303 2.074 . S
Co295 O306 2.093 1_554 S
Co295 O319 2.097 . S
Co295 N336 2.151 . S
Co295 N344 2.214 . S
Co296 O297 2.160 . S
Co296 O302 2.058 . S
Co296 O312 2.057 . S
Co296 O327 2.037 . S
Co296 N331 2.145 . S
Co296 N352 2.257 . S
O297 Co295 2.143 . S
O297 Co296 2.160 . S
C298 O299 1.278 . S
C298 O306 1.224 . S
O299 C298 1.278 . S
C300 O301 1.245 . S
C300 O312 1.232 . S
O301 C300 1.245 . S
O302 Co296 2.058 . S
O302 C328 1.269 . S
O303 Co295 2.074 . S
O303 C328 1.257 . S
H304 C329 0.930 . S
H305 C335 0.930 1_556 S
O306 Co295 2.093 1_556 S
O306 C298 1.224 . S
H307 C339 0.929 . S
H308 C341 0.930 . S
H309 C342 0.930 . S
H310 C340 0.929 . S
H311 C343 0.928 . S
O312 Co296 2.057 . S
O312 C300 1.232 . S
H313 C332 0.929 . S
H314 C333 0.929 . S
H315 C345 0.931 . S
H316 C337 0.929 1_556 S
H317 C346 0.930 . S
H318 C338 0.931 . S
O319 Co295 2.097 . S
O319 C347 1.214 . S
H320 C348 0.929 . S
H321 C349 0.929 . S
H322 C350 0.930 . S
H323 C351 0.929 . S
H324 C353 0.930 . S
H325 C330 0.930 . S
H326 C334 0.930 . S
O327 Co296 2.037 . S
O327 C347 1.234 . S
C328 O302 1.269 . S
C328 O303 1.257 . S
C329 H304 0.930 . S
C329 C332 1.388 . S
C329 C334 1.418 . S
C330 H325 0.930 . S
C330 C333 1.404 . S
C330 C334 1.353 . S
N331 Co296 2.145 . S
N331 C332 1.397 . S
N331 C333 1.334 . S
C332 H313 0.929 . S
C332 C329 1.388 . S
C332 N331 1.397 . S
C333 H314 0.929 . S
C333 C330 1.404 . S
C333 N331 1.334 . S
C334 H326 0.930 . S
C334 C329 1.418 . S
C334 C330 1.353 . S
C335 H305 0.930 1_554 S
C335 N336 1.330 . S
C335 C337 1.446 . S
N336 Co295 2.151 . S
N336 C335 1.330 . S
N336 C340 1.418 . S
C337 H316 0.929 1_554 S
C337 C335 1.446 . S
C337 C338 1.332 . S
C338 H318 0.931 . S
C338 C337 1.332 . S
C338 C339 1.267 . S
C339 H307 0.929 . S
C339 C338 1.267 . S
C339 C340 1.251 . S
C340 H310 0.929 . S
C340 N336 1.418 . S
C340 C339 1.251 . S
C341 H308 0.930 . S
C341 C343 1.406 . S
C341 C346 1.261 . S
C342 H309 0.930 . S
C342 N344 1.325 . S
C342 C345 1.357 . S
C343 H311 0.928 . S
C343 C341 1.406 . S
C343 N344 1.261 . S
N344 Co295 2.214 . S
N344 C342 1.325 . S
N344 C343 1.261 . S
C345 H315 0.931 . S
C345 C342 1.357 . S
C345 C346 1.312 . S
C346 H317 0.930 . S
C346 C341 1.261 . S
C346 C345 1.312 . S
C347 O319 1.214 . S
C347 O327 1.234 . S
C348 H320 0.929 . S
C348 C351 1.391 . S
C348 C353 1.391 . S
C349 H321 0.929 . S
C349 C350 1.390 1_554 S
C349 N352 1.391 . S
C350 H322 0.930 . S
C350 C349 1.390 1_556 S
C350 C351 1.392 . S
C351 H323 0.929 . S
C351 C348 1.391 . S
C351 C350 1.392 . S
N352 Co296 2.257 . S
N352 C349 1.391 . S
N352 C353 1.388 1_554 S
C353 H324 0.930 . S
C353 C348 1.391 . S
C353 N352 1.388 1_556 S
Co354 O356 2.143 . S
Co354 O362 2.074 . S
Co354 O365 2.093 . S
Co354 O378 2.097 . S
Co354 N395 2.151 . S
Co354 N403 2.214 . S
Co355 O356 2.160 . S
Co355 O361 2.058 . S
Co355 O371 2.057 . S
Co355 O386 2.037 . S
Co355 N390 2.145 . S
Co355 N411 2.257 . S
O356 Co354 2.143 . S
O356 Co355 2.160 . S
C357 O358 1.278 . S
C357 O365 1.224 . S
O358 C357 1.278 . S
C359 O360 1.245 . S
C359 O371 1.232 . S
O360 C359 1.245 . S
O361 Co355 2.058 . S
O361 C387 1.269 . S
O362 Co354 2.074 . S
O362 C387 1.257 . S
H363 C388 0.930 . S
H364 C394 0.930 . S
O365 Co354 2.093 . S
O365 C357 1.224 . S
H366 C398 0.929 . S
H367 C400 0.930 . S
H368 C401 0.930 . S
H369 C399 0.929 . S
H370 C402 0.928 . S
O371 Co355 2.057 . S
O371 C359 1.232 . S
H372 C391 0.929 . S
H373 C392 0.929 . S
H374 C404 0.931 . S
H375 C396 0.929 . S
H376 C405 0.930 . S
H377 C397 0.931 . S
O378 Co354 2.097 . S
O378 C406 1.214 . S
H379 C407 0.929 . S
H380 C408 0.929 . S
H381 C409 0.930 . S
H382 C410 0.929 . S
H383 C412 0.930 . S
H384 C389 0.930 . S
H385 C393 0.930 . S
O386 Co355 2.037 . S
O386 C406 1.234 . S
C387 O361 1.269 . S
C387 O362 1.257 . S
C388 H363 0.930 . S
C388 C391 1.388 . S
C388 C393 1.418 . S
C389 H384 0.930 . S
C389 C392 1.404 . S
C389 C393 1.353 . S
N390 Co355 2.145 . S
N390 C391 1.397 . S
N390 C392 1.334 . S
C391 H372 0.929 . S
C391 C388 1.388 . S
C391 N390 1.397 . S
C392 H373 0.929 . S
C392 C389 1.404 . S
C392 N390 1.334 . S
C393 H385 0.930 . S
C393 C388 1.418 . S
C393 C389 1.353 . S
C394 H364 0.930 . S
C394 N395 1.330 . S
C394 C396 1.446 . S
N395 Co354 2.151 . S
N395 C394 1.330 . S
N395 C399 1.418 . S
C396 H375 0.929 . S
C396 C394 1.446 . S
C396 C397 1.332 . S
C397 H377 0.931 . S
C397 C396 1.332 . S
C397 C398 1.267 . S
C398 H366 0.929 . S
C398 C397 1.267 . S
C398 C399 1.251 . S
C399 H369 0.929 . S
C399 N395 1.418 . S
C399 C398 1.251 . S
C400 H367 0.930 . S
C400 C402 1.406 . S
C400 C405 1.261 . S
C401 H368 0.930 . S
C401 N403 1.325 . S
C401 C404 1.357 . S
C402 H370 0.928 . S
C402 C400 1.406 . S
C402 N403 1.261 . S
N403 Co354 2.214 . S
N403 C401 1.325 . S
N403 C402 1.261 . S
C404 H374 0.931 . S
C404 C401 1.357 . S
C404 C405 1.312 . S
C405 H376 0.930 . S
C405 C400 1.261 . S
C405 C404 1.312 . S
C406 O378 1.214 . S
C406 O386 1.234 . S
C407 H379 0.929 . S
C407 C410 1.391 . S
C407 C412 1.391 . S
C408 H380 0.929 . S
C408 C409 1.390 . S
C408 N411 1.391 . S
C409 H381 0.930 . S
C409 C408 1.390 . S
C409 C410 1.392 . S
C410 H382 0.929 . S
C410 C407 1.391 . S
C410 C409 1.392 . S
N411 Co355 2.257 . S
N411 C408 1.391 . S
N411 C412 1.388 . S
C412 H383 0.930 . S
C412 C407 1.391 . S
C412 N411 1.388 . S
Co413 O415 2.143 . S
Co413 O421 2.074 . S
Co413 O424 2.093 . S
Co413 O437 2.097 . S
Co413 N454 2.151 . S
Co413 N462 2.214 . S
Co414 O415 2.160 . S
Co414 O420 2.058 . S
Co414 O430 2.057 . S
Co414 O445 2.037 . S
Co414 N449 2.145 . S
Co414 N470 2.257 . S
O415 Co413 2.143 . S
O415 Co414 2.160 . S
C416 O417 1.278 . S
C416 O424 1.224 . S
O417 C416 1.278 . S
C418 O419 1.245 . S
C418 O430 1.232 . S
O419 C418 1.245 . S
O420 Co414 2.058 . S
O420 C446 1.269 . S
O421 Co413 2.074 . S
O421 C446 1.257 . S
H422 C447 0.930 . S
H423 C453 0.930 . S
O424 Co413 2.093 . S
O424 C416 1.224 . S
H425 C457 0.929 . S
H426 C459 0.930 . S
H427 C460 0.930 . S
H428 C458 0.929 . S
H429 C461 0.928 . S
O430 Co414 2.057 . S
O430 C418 1.232 . S
H431 C450 0.929 . S
H432 C451 0.929 . S
H433 C463 0.931 . S
H434 C455 0.929 . S
H435 C464 0.930 . S
H436 C456 0.931 . S
O437 Co413 2.097 . S
O437 C465 1.214 . S
H438 C466 0.929 . S
H439 C467 0.929 . S
H440 C468 0.930 . S
H441 C469 0.929 . S
H442 C471 0.930 . S
H443 C448 0.930 . S
H444 C452 0.930 . S
O445 Co414 2.037 . S
O445 C465 1.234 . S
C446 O420 1.269 . S
C446 O421 1.257 . S
C447 H422 0.930 . S
C447 C450 1.388 . S
C447 C452 1.418 . S
C448 H443 0.930 . S
C448 C451 1.404 . S
C448 C452 1.353 . S
N449 Co414 2.145 . S
N449 C450 1.397 . S
N449 C451 1.334 . S
C450 H431 0.929 . S
C450 C447 1.388 . S
C450 N449 1.397 . S
C451 H432 0.929 . S
C451 C448 1.404 . S
C451 N449 1.334 . S
C452 H444 0.930 . S
C452 C447 1.418 . S
C452 C448 1.353 . S
C453 H423 0.930 . S
C453 N454 1.330 . S
C453 C455 1.446 . S
N454 Co413 2.151 . S
N454 C453 1.330 . S
N454 C458 1.418 . S
C455 H434 0.929 . S
C455 C453 1.446 . S
C455 C456 1.332 . S
C456 H436 0.931 . S
C456 C455 1.332 . S
C456 C457 1.267 . S
C457 H425 0.929 . S
C457 C456 1.267 . S
C457 C458 1.251 . S
C458 H428 0.929 . S
C458 N454 1.418 . S
C458 C457 1.251 . S
C459 H426 0.930 . S
C459 C461 1.406 . S
C459 C464 1.261 . S
C460 H427 0.930 . S
C460 N462 1.325 . S
C460 C463 1.357 . S
C461 H429 0.928 . S
C461 C459 1.406 . S
C461 N462 1.261 . S
N462 Co413 2.214 . S
N462 C460 1.325 . S
N462 C461 1.261 . S
C463 H433 0.931 . S
C463 C460 1.357 . S
C463 C464 1.312 . S
C464 H435 0.930 . S
C464 C459 1.261 . S
C464 C463 1.312 . S
C465 O437 1.214 . S
C465 O445 1.234 . S
C466 H438 0.929 . S
C466 C469 1.391 . S
C466 C471 1.391 . S
C467 H439 0.929 . S
C467 C468 1.390 . S
C467 N470 1.391 . S
C468 H440 0.930 . S
C468 C467 1.390 . S
C468 C469 1.392 . S
C469 H441 0.929 . S
C469 C466 1.391 . S
C469 C468 1.392 . S
N470 Co414 2.257 . S
N470 C467 1.391 . S
N470 C471 1.388 . S
C471 H442 0.930 . S
C471 C466 1.391 . S
C471 N470 1.388 . S
C472 C473 1.349 . S
C472 C474 1.327 . S
C472 H497 0.950 . S
C473 C472 1.349 . S
C473 C489 1.349 . S
C474 C472 1.327 . S
C474 C493 1.429 . S
C474 H498 0.950 1_655 S
C475 C492 1.574 1_565 S
C475 C494 1.368 . S
C475 H499 0.949 . S
H476 C480 0.949 . S
C477 C478 1.349 . S
C477 C479 1.327 . S
C477 H500 0.950 . S
C478 C477 1.349 . S
C478 C490 1.349 . S
C479 C477 1.327 . S
C479 C495 1.429 . S
C479 H501 0.950 1_455 S
C480 H476 0.949 . S
C480 C488 1.574 1_545 S
C480 C496 1.368 . S
H481 C489 0.950 . S
H482 C487 0.950 . S
H483 C488 0.949 . S
H484 C490 0.950 . S
H485 C491 0.950 . S
H486 C492 0.949 . S
C487 H482 0.950 . S
C487 C489 1.327 . S
C487 C493 1.429 . S
C488 C480 1.574 1_565 S
C488 H483 0.949 . S
C488 C494 1.368 1_455 S
C489 C473 1.349 . S
C489 H481 0.950 . S
C489 C487 1.327 . S
C490 C478 1.349 . S
C490 H484 0.950 . S
C490 C491 1.327 . S
C491 H485 0.950 . S
C491 C490 1.327 . S
C491 C495 1.429 . S
C492 C475 1.574 1_545 S
C492 H486 0.949 . S
C492 C496 1.368 1_655 S
C493 C474 1.429 . S
C493 C487 1.429 . S
C493 C494 1.523 . S
C494 C475 1.368 . S
C494 C488 1.368 1_655 S
C494 C493 1.523 . S
C495 C479 1.429 . S
C495 C491 1.429 . S
C495 C496 1.523 . S
C496 C480 1.368 . S
C496 C492 1.368 1_455 S
C496 C495 1.523 . S
H497 C472 0.950 . S
H498 C474 0.950 1_455 S
H499 C475 0.949 . S
H500 C477 0.950 . S
H501 C479 0.950 1_655 S
C502 C503 1.349 . S
C502 C504 1.327 . S
C502 H527 0.950 . S
C503 C502 1.349 . S
C503 C519 1.349 . S
C504 C502 1.327 . S
C504 C523 1.429 . S
C504 H528 0.950 . S
C505 C522 1.574 1_565 S
C505 C524 1.368 1_655 S
C505 H529 0.949 . S
H506 C510 0.949 . S
C507 C508 1.349 . S
C507 C509 1.327 . S
C507 H530 0.950 . S
C508 C507 1.349 . S
C508 C520 1.349 . S
C509 C507 1.327 . S
C509 C525 1.429 . S
C509 H531 0.950 . S
C510 H506 0.949 . S
C510 C518 1.574 1_545 S
C510 C526 1.368 1_455 S
H511 C519 0.950 . S
H512 C517 0.950 1_655 S
H513 C518 0.949 . S
H514 C520 0.950 . S
H515 C521 0.950 1_455 S
H516 C522 0.949 . S
C517 H512 0.950 1_455 S
C517 C519 1.327 . S
C517 C523 1.429 . S
C518 C510 1.574 1_565 S
C518 H513 0.949 . S
C518 C524 1.368 . S
C519 C503 1.349 . S
C519 H511 0.950 . S
C519 C517 1.327 . S
C520 C508 1.349 . S
C520 H514 0.950 . S
C520 C521 1.327 . S
C521 H515 0.950 1_655 S
C521 C520 1.327 . S
C521 C525 1.429 . S
C522 C505 1.574 1_545 S
C522 H516 0.949 . S
C522 C526 1.368 . S
C523 C504 1.429 . S
C523 C517 1.429 . S
C523 C524 1.523 . S
C524 C505 1.368 1_455 S
C524 C518 1.368 . S
C524 C523 1.523 . S
C525 C509 1.429 . S
C525 C521 1.429 . S
C525 C526 1.523 . S
C526 C510 1.368 1_655 S
C526 C522 1.368 . S
C526 C525 1.523 . S
H527 C502 0.950 . S
H528 C504 0.950 . S
H529 C505 0.949 . S
H530 C507 0.950 . S
H531 C509 0.950 . S
C532 C533 1.349 . S
C532 C534 1.327 . S
C532 H557 0.950 . S
C533 C532 1.349 . S
C533 C549 1.349 . S
C534 C532 1.327 . S
C534 C553 1.429 . S
C534 H558 0.950 . S
C535 C552 1.574 . S
C535 C554 1.368 . S
C535 H559 0.949 . S
H536 C540 0.949 . S
C537 C538 1.349 . S
C537 C539 1.327 . S
C537 H560 0.950 . S
C538 C537 1.349 . S
C538 C550 1.349 . S
C539 C537 1.327 . S
C539 C555 1.429 . S
C539 H561 0.950 . S
C540 H536 0.949 . S
C540 C548 1.574 . S
C540 C556 1.368 . S
H541 C549 0.950 . S
H542 C547 0.950 . S
H543 C548 0.949 . S
H544 C550 0.950 . S
H545 C551 0.950 . S
H546 C552 0.949 . S
C547 H542 0.950 . S
C547 C549 1.327 . S
C547 C553 1.429 . S
C548 C540 1.574 . S
C548 H543 0.949 . S
C548 C554 1.368 . S
C549 C533 1.349 . S
C549 H541 0.950 . S
C549 C547 1.327 . S
C550 C538 1.349 . S
C550 H544 0.950 . S
C550 C551 1.327 . S
C551 H545 0.950 . S
C551 C550 1.327 . S
C551 C555 1.429 . S
C552 C535 1.574 . S
C552 H546 0.949 . S
C552 C556 1.368 . S
C553 C534 1.429 . S
C553 C547 1.429 . S
C553 C554 1.523 . S
C554 C535 1.368 . S
C554 C548 1.368 . S
C554 C553 1.523 . S
C555 C539 1.429 . S
C555 C551 1.429 . S
C555 C556 1.523 . S
C556 C540 1.368 . S
C556 C552 1.368 . S
C556 C555 1.523 . S
H557 C532 0.950 . S
H558 C534 0.950 . S
H559 C535 0.949 . S
H560 C537 0.950 . S
H561 C539 0.950 . S
C562 C563 1.349 . S
C562 C564 1.327 . S
C562 H587 0.950 . S
C563 C562 1.349 . S
C563 C579 1.349 . S
C564 C562 1.327 . S
C564 C583 1.429 . S
C564 H588 0.950 . S
C565 C582 1.574 . S
C565 C584 1.368 . S
C565 H589 0.949 . S
H566 C570 0.949 . S
C567 C568 1.349 . S
C567 C569 1.327 . S
C567 H590 0.950 . S
C568 C567 1.349 . S
C568 C580 1.349 . S
C569 C567 1.327 . S
C569 C585 1.429 . S
C569 H591 0.950 . S
C570 H566 0.949 . S
C570 C578 1.574 . S
C570 C586 1.368 . S
H571 C579 0.950 . S
H572 C577 0.950 . S
H573 C578 0.949 . S
H574 C580 0.950 . S
H575 C581 0.950 . S
H576 C582 0.949 . S
C577 H572 0.950 . S
C577 C579 1.327 . S
C577 C583 1.429 . S
C578 C570 1.574 . S
C578 H573 0.949 . S
C578 C584 1.368 . S
C579 C563 1.349 . S
C579 H571 0.950 . S
C579 C577 1.327 . S
C580 C568 1.349 . S
C580 H574 0.950 . S
C580 C581 1.327 . S
C581 H575 0.950 . S
C581 C580 1.327 . S
C581 C585 1.429 . S
C582 C565 1.574 . S
C582 H576 0.949 . S
C582 C586 1.368 . S
C583 C564 1.429 . S
C583 C577 1.429 . S
C583 C584 1.523 . S
C584 C565 1.368 . S
C584 C578 1.368 . S
C584 C583 1.523 . S
C585 C569 1.429 . S
C585 C581 1.429 . S
C585 C586 1.523 . S
C586 C570 1.368 . S
C586 C582 1.368 . S
C586 C585 1.523 . S
H587 C562 0.950 . S
H588 C564 0.950 . S
H589 C565 0.949 . S
H590 C567 0.950 . S
H591 C569 0.950 . S
C592 C593 1.349 . S
C592 C594 1.327 . S
C592 H617 0.950 . S
C593 C592 1.349 . S
C593 C609 1.349 . S
C594 C592 1.327 . S
C594 C613 1.429 . S
C594 H618 0.950 . S
C595 C612 1.574 . S
C595 C614 1.368 1_655 S
C595 H619 0.949 . S
H596 C600 0.949 . S
C597 C598 1.349 . S
C597 C599 1.327 . S
C597 H620 0.950 . S
C598 C597 1.349 . S
C598 C610 1.349 . S
C599 C597 1.327 . S
C599 C615 1.429 . S
C599 H621 0.950 . S
C600 H596 0.949 . S
C600 C608 1.574 . S
C600 C616 1.368 1_455 S
H601 C609 0.947 1_655 S
H602 C607 0.950 1_655 S
H603 C608 0.949 . S
H604 C610 0.946 1_455 S
H605 C611 0.950 1_455 S
H606 C612 0.949 . S
C607 H602 0.950 1_455 S
C607 C609 1.327 . S
C607 C613 1.429 . S
C608 C600 1.574 . S
C608 H603 0.949 . S
C608 C614 1.368 . S
C609 C593 1.349 . S
C609 H601 0.947 1_455 S
C609 C607 1.327 . S
C610 C598 1.349 . S
C610 H604 0.946 1_655 S
C610 C611 1.327 . S
C611 H605 0.950 1_655 S
C611 C610 1.327 . S
C611 C615 1.429 . S
C612 C595 1.574 . S
C612 H606 0.949 . S
C612 C616 1.368 . S
C613 C594 1.429 . S
C613 C607 1.429 . S
C613 C614 1.523 . S
C614 C595 1.368 1_455 S
C614 C608 1.368 . S
C614 C613 1.523 . S
C615 C599 1.429 . S
C615 C611 1.429 . S
C615 C616 1.523 . S
C616 C600 1.368 1_655 S
C616 C612 1.368 . S
C616 C615 1.523 . S
H617 C592 0.950 . S
H618 C594 0.950 . S
H619 C595 0.949 . S
H620 C597 0.950 . S
H621 C599 0.950 . S
C622 C623 1.349 . S
C622 C624 1.327 . S
C622 H647 0.950 . S
C623 C622 1.349 . S
C623 C639 1.349 . S
C624 C622 1.327 . S
C624 C643 1.429 . S
C624 H648 0.950 . S
C625 C642 1.574 . S
C625 C644 1.368 1_655 S
C625 H649 0.949 . S
H626 C630 0.949 . S
C627 C628 1.349 . S
C627 C629 1.327 . S
C627 H650 0.950 . S
C628 C627 1.349 . S
C628 C640 1.349 . S
C629 C627 1.327 . S
C629 C645 1.429 . S
C629 H651 0.950 . S
C630 H626 0.949 . S
C630 C638 1.574 . S
C630 C646 1.368 1_455 S
H631 C639 0.946 1_655 S
H632 C637 0.950 1_655 S
H633 C638 0.949 . S
H634 C640 0.947 1_455 S
H635 C641 0.950 1_455 S
H636 C642 0.949 . S
C637 H632 0.950 1_455 S
C637 C639 1.327 . S
C637 C643 1.429 . S
C638 C630 1.574 . S
C638 H633 0.949 . S
C638 C644 1.368 . S
C639 C623 1.349 . S
C639 H631 0.946 1_455 S
C639 C637 1.327 . S
C640 C628 1.349 . S
C640 H634 0.947 1_655 S
C640 C641 1.327 . S
C641 H635 0.950 1_655 S
C641 C640 1.327 . S
C641 C645 1.429 . S
C642 C625 1.574 . S
C642 H636 0.949 . S
C642 C646 1.368 . S
C643 C624 1.429 . S
C643 C637 1.429 . S
C643 C644 1.523 . S
C644 C625 1.368 1_455 S
C644 C638 1.368 . S
C644 C643 1.523 . S
C645 C629 1.429 . S
C645 C641 1.429 . S
C645 C646 1.523 . S
C646 C630 1.368 1_655 S
C646 C642 1.368 . S
C646 C645 1.523 . S
H647 C622 0.950 . S
H648 C624 0.950 . S
H649 C625 0.949 . S
H650 C627 0.950 . S
H651 C629 0.950 . S
C652 C653 1.349 . S
C652 C654 1.327 . S
C652 H677 0.950 . S
C653 C652 1.349 . S
C653 C669 1.349 . S
C654 C652 1.327 . S
C654 C673 1.429 . S
C654 H678 0.950 . S
C655 C672 1.574 . S
C655 C674 1.368 1_655 S
C655 H679 0.949 . S
H656 C660 0.949 . S
C657 C658 1.349 . S
C657 C659 1.327 . S
C657 H680 0.950 . S
C658 C657 1.349 . S
C658 C670 1.349 . S
C659 C657 1.327 . S
C659 C675 1.429 . S
C659 H681 0.950 . S
C660 H656 0.949 . S
C660 C668 1.574 . S
C660 C676 1.368 1_455 S
H661 C669 0.950 1_655 S
H662 C667 0.950 . S
H663 C668 0.949 . S
H664 C670 0.950 1_455 S
H665 C671 0.950 . S
H666 C672 0.949 . S
C667 H662 0.950 . S
C667 C669 1.327 1_655 S
C667 C673 1.429 1_655 S
C668 C660 1.574 . S
C668 H663 0.949 . S
C668 C674 1.368 . S
C669 C653 1.349 . S
C669 H661 0.950 1_455 S
C669 C667 1.327 1_455 S
C670 C658 1.349 . S
C670 H664 0.950 1_655 S
C670 C671 1.327 1_655 S
C671 H665 0.950 . S
C671 C670 1.327 1_455 S
C671 C675 1.429 1_455 S
C672 C655 1.574 . S
C672 H666 0.949 . S
C672 C676 1.368 . S
C673 C654 1.429 . S
C673 C667 1.429 1_455 S
C673 C674 1.523 . S
C674 C655 1.368 1_455 S
C674 C668 1.368 . S
C674 C673 1.523 . S
C675 C659 1.429 . S
C675 C671 1.429 1_655 S
C675 C676 1.523 . S
C676 C660 1.368 1_655 S
C676 C672 1.368 . S
C676 C675 1.523 . S
H677 C652 0.950 . S
H678 C654 0.950 . S
H679 C655 0.949 . S
H680 C657 0.950 . S
H681 C659 0.950 . S
C682 C683 1.349 . S
C682 C684 1.327 1_455 S
C682 H707 0.950 1_455 S
C683 C682 1.349 . S
C683 C699 1.349 . S
C684 C682 1.327 1_655 S
C684 C703 1.429 1_655 S
C684 H708 0.950 . S
C685 C702 1.574 . S
C685 C704 1.368 . S
C685 H709 0.949 . S
H686 C690 0.949 . S
C687 C688 1.349 . S
C687 C689 1.327 1_655 S
C687 H710 0.950 1_655 S
C688 C687 1.349 . S
C688 C700 1.349 . S
C689 C687 1.327 1_455 S
C689 C705 1.429 1_455 S
C689 H711 0.950 . S
C690 H686 0.949 . S
C690 C698 1.574 . S
C690 C706 1.368 . S
H691 C699 0.950 . S
H692 C697 0.950 . S
H693 C698 0.949 . S
H694 C700 0.950 . S
H695 C701 0.950 . S
H696 C702 0.949 . S
C697 H692 0.950 . S
C697 C699 1.327 . S
C697 C703 1.429 . S
C698 C690 1.574 . S
C698 H693 0.949 . S
C698 C704 1.368 1_655 S
C699 C683 1.349 . S
C699 H691 0.950 . S
C699 C697 1.327 . S
C700 C688 1.349 . S
C700 H694 0.950 . S
C700 C701 1.327 . S
C701 H695 0.950 . S
C701 C700 1.327 . S
C701 C705 1.429 . S
C702 C685 1.574 . S
C702 H696 0.949 . S
C702 C706 1.368 1_455 S
C703 C684 1.429 1_455 S
C703 C697 1.429 . S
C703 C704 1.523 . S
C704 C685 1.368 . S
C704 C698 1.368 1_455 S
C704 C703 1.523 . S
C705 C689 1.429 1_655 S
C705 C701 1.429 . S
C705 C706 1.523 . S
C706 C690 1.368 . S
C706 C702 1.368 1_655 S
C706 C705 1.523 . S
H707 C682 0.950 1_655 S
H708 C684 0.950 . S
H709 C685 0.949 . S
H710 C687 0.950 1_455 S
H711 C689 0.950 . S
C712 C713 1.349 . S
C712 C714 1.327 . S
C712 H737 0.950 . S
C713 C712 1.349 . S
C713 C729 1.349 . S
C714 C712 1.327 . S
C714 C733 1.429 . S
C714 H738 0.950 . S
C715 C732 1.574 . S
C715 C734 1.368 . S
C715 H739 0.949 . S
H716 C720 0.949 . S
C717 C718 1.349 . S
C717 C719 1.327 . S
C717 H740 0.950 . S
C718 C717 1.349 . S
C718 C730 1.349 . S
C719 C717 1.327 . S
C719 C735 1.429 . S
C719 H741 0.950 . S
C720 H716 0.949 . S
C720 C728 1.574 . S
C720 C736 1.368 . S
H721 C729 0.950 . S
H722 C727 0.950 . S
H723 C728 0.949 . S
H724 C730 0.950 . S
H725 C731 0.950 . S
H726 C732 0.949 . S
C727 H722 0.950 . S
C727 C729 1.327 . S
C727 C733 1.429 . S
C728 C720 1.574 . S
C728 H723 0.949 . S
C728 C734 1.368 . S
C729 C713 1.349 . S
C729 H721 0.950 . S
C729 C727 1.327 . S
C730 C718 1.349 . S
C730 H724 0.950 . S
C730 C731 1.327 . S
C731 H725 0.950 . S
C731 C730 1.327 . S
C731 C735 1.429 . S
C732 C715 1.574 . S
C732 H726 0.949 . S
C732 C736 1.368 . S
C733 C714 1.429 . S
C733 C727 1.429 . S
C733 C734 1.523 . S
C734 C715 1.368 . S
C734 C728 1.368 . S
C734 C733 1.523 . S
C735 C719 1.429 . S
C735 C731 1.429 . S
C735 C736 1.523 . S
C736 C720 1.368 . S
C736 C732 1.368 . S
C736 C735 1.523 . S
H737 C712 0.950 . S
H738 C714 0.950 . S
H739 C715 0.949 . S
H740 C717 0.950 . S
H741 C719 0.950 . S
C742 C743 1.349 . S
C742 C744 1.327 . S
C742 H767 0.950 . S
C743 C742 1.349 . S
C743 C759 1.349 . S
C744 C742 1.327 . S
C744 C763 1.429 . S
C744 H768 0.950 . S
C745 C762 1.574 . S
C745 C764 1.368 . S
C745 H769 0.949 . S
H746 C750 0.949 . S
C747 C748 1.349 . S
C747 C749 1.327 . S
C747 H770 0.950 . S
C748 C747 1.349 . S
C748 C760 1.349 . S
C749 C747 1.327 . S
C749 C765 1.429 . S
C749 H771 0.950 . S
C750 H746 0.949 . S
C750 C758 1.574 . S
C750 C766 1.368 . S
H751 C759 0.950 . S
H752 C757 0.950 . S
H753 C758 0.949 . S
H754 C760 0.950 . S
H755 C761 0.950 . S
H756 C762 0.949 . S
C757 H752 0.950 . S
C757 C759 1.327 . S
C757 C763 1.429 . S
C758 C750 1.574 . S
C758 H753 0.949 . S
C758 C764 1.368 . S
C759 C743 1.349 . S
C759 H751 0.950 . S
C759 C757 1.327 . S
C760 C748 1.349 . S
C760 H754 0.950 . S
C760 C761 1.327 . S
C761 H755 0.950 . S
C761 C760 1.327 . S
C761 C765 1.429 . S
C762 C745 1.574 . S
C762 H756 0.949 . S
C762 C766 1.368 . S
C763 C744 1.429 . S
C763 C757 1.429 . S
C763 C764 1.523 . S
C764 C745 1.368 . S
C764 C758 1.368 . S
C764 C763 1.523 . S
C765 C749 1.429 . S
C765 C761 1.429 . S
C765 C766 1.523 . S
C766 C750 1.368 . S
C766 C762 1.368 . S
C766 C765 1.523 . S
H767 C742 0.950 . S
H768 C744 0.950 . S
H769 C745 0.949 . S
H770 C747 0.950 . S
H771 C749 0.950 . S
C772 C773 1.349 . S
C772 C774 1.327 . S
C772 H797 0.950 . S
C773 C772 1.349 . S
C773 C789 1.349 . S
C774 C772 1.327 . S
C774 C793 1.429 . S
C774 H798 0.950 . S
C775 C792 1.574 . S
C775 C794 1.368 . S
C775 H799 0.949 . S
H776 C780 0.949 . S
C777 C778 1.349 . S
C777 C779 1.327 . S
C777 H800 0.950 . S
C778 C777 1.349 . S
C778 C790 1.349 . S
C779 C777 1.327 . S
C779 C795 1.429 . S
C779 H801 0.950 . S
C780 H776 0.949 . S
C780 C788 1.574 . S
C780 C796 1.368 . S
H781 C789 0.950 . S
H782 C787 0.950 . S
H783 C788 0.949 . S
H784 C790 0.950 . S
H785 C791 0.950 . S
H786 C792 0.949 . S
C787 H782 0.950 . S
C787 C789 1.327 . S
C787 C793 1.429 . S
C788 C780 1.574 . S
C788 H783 0.949 . S
C788 C794 1.368 . S
C789 C773 1.349 . S
C789 H781 0.950 . S
C789 C787 1.327 . S
C790 C778 1.349 . S
C790 H784 0.950 . S
C790 C791 1.327 . S
C791 H785 0.950 . S
C791 C790 1.327 . S
C791 C795 1.429 . S
C792 C775 1.574 . S
C792 H786 0.949 . S
C792 C796 1.368 . S
C793 C774 1.429 . S
C793 C787 1.429 . S
C793 C794 1.523 . S
C794 C775 1.368 . S
C794 C788 1.368 . S
C794 C793 1.523 . S
C795 C779 1.429 . S
C795 C791 1.429 . S
C795 C796 1.523 . S
C796 C780 1.368 . S
C796 C792 1.368 . S
C796 C795 1.523 . S
H797 C772 0.950 . S
H798 C774 0.950 . S
H799 C775 0.949 . S
H800 C777 0.950 . S
H801 C779 0.950 . S
C802 C803 1.349 . S
C802 C804 1.327 . S
C802 H827 0.950 . S
C803 C802 1.349 . S
C803 C819 1.349 . S
C804 C802 1.327 . S
C804 C823 1.429 . S
C804 H828 0.950 . S
C805 C822 1.574 . S
C805 C824 1.368 . S
C805 H829 0.949 . S
H806 C810 0.949 . S
C807 C808 1.349 . S
C807 C809 1.327 . S
C807 H830 0.950 . S
C808 C807 1.349 . S
C808 C820 1.349 . S
C809 C807 1.327 . S
C809 C825 1.429 . S
C809 H831 0.950 . S
C810 H806 0.949 . S
C810 C818 1.574 . S
C810 C826 1.368 . S
H811 C819 0.950 . S
H812 C817 0.950 . S
H813 C818 0.949 . S
H814 C820 0.950 . S
H815 C821 0.950 . S
H816 C822 0.949 . S
C817 H812 0.950 . S
C817 C819 1.327 . S
C817 C823 1.429 . S
C818 C810 1.574 . S
C818 H813 0.949 . S
C818 C824 1.368 . S
C819 C803 1.349 . S
C819 H811 0.950 . S
C819 C817 1.327 . S
C820 C808 1.349 . S
C820 H814 0.950 . S
C820 C821 1.327 . S
C821 H815 0.950 . S
C821 C820 1.327 . S
C821 C825 1.429 . S
C822 C805 1.574 . S
C822 H816 0.949 . S
C822 C826 1.368 . S
C823 C804 1.429 . S
C823 C817 1.429 . S
C823 C824 1.523 . S
C824 C805 1.368 . S
C824 C818 1.368 . S
C824 C823 1.523 . S
C825 C809 1.429 . S
C825 C821 1.429 . S
C825 C826 1.523 . S
C826 C810 1.368 . S
C826 C822 1.368 . S
C826 C825 1.523 . S
H827 C802 0.950 . S
H828 C804 0.950 . S
H829 C805 0.949 . S
H830 C807 0.950 . S
H831 C809 0.950 . S
C832 C833 1.349 . S
C832 C834 1.327 . S
C832 H857 0.950 . S
C833 C832 1.349 . S
C833 C849 1.349 . S
C834 C832 1.327 . S
C834 C853 1.429 . S
C834 H858 0.950 . S
C835 C852 1.574 . S
C835 C854 1.368 . S
C835 H859 0.949 . S
H836 C840 0.949 . S
C837 C838 1.349 . S
C837 C839 1.327 . S
C837 H860 0.950 . S
C838 C837 1.349 . S
C838 C850 1.349 . S
C839 C837 1.327 . S
C839 C855 1.429 . S
C839 H861 0.950 . S
C840 H836 0.949 . S
C840 C848 1.574 . S
C840 C856 1.368 . S
H841 C849 0.950 . S
H842 C847 0.950 . S
H843 C848 0.949 . S
H844 C850 0.950 . S
H845 C851 0.950 . S
H846 C852 0.949 . S
C847 H842 0.950 . S
C847 C849 1.327 . S
C847 C853 1.429 . S
C848 C840 1.574 . S
C848 H843 0.949 . S
C848 C854 1.368 . S
C849 C833 1.349 . S
C849 H841 0.950 . S
C849 C847 1.327 . S
C850 C838 1.349 . S
C850 H844 0.950 . S
C850 C851 1.327 . S
C851 H845 0.950 . S
C851 C850 1.327 . S
C851 C855 1.429 . S
C852 C835 1.574 . S
C852 H846 0.949 . S
C852 C856 1.368 . S
C853 C834 1.429 . S
C853 C847 1.429 . S
C853 C854 1.523 . S
C854 C835 1.368 . S
C854 C848 1.368 . S
C854 C853 1.523 . S
C855 C839 1.429 . S
C855 C851 1.429 . S
C855 C856 1.523 . S
C856 C840 1.368 . S
C856 C852 1.368 . S
C856 C855 1.523 . S
H857 C832 0.950 . S
H858 C834 0.950 . S
H859 C835 0.949 . S
H860 C837 0.950 . S
H861 C839 0.950 . S
C862 C863 1.349 . S
C862 C864 1.327 . S
C862 H887 0.950 . S
C863 C862 1.349 . S
C863 C879 1.349 . S
C864 C862 1.327 . S
C864 C883 1.429 . S
C864 H888 0.950 . S
C865 C882 1.574 . S
C865 C884 1.368 . S
C865 H889 0.949 . S
H866 C870 0.949 . S
C867 C868 1.349 . S
C867 C869 1.327 . S
C867 H890 0.950 . S
C868 C867 1.349 . S
C868 C880 1.349 . S
C869 C867 1.327 . S
C869 C885 1.429 . S
C869 H891 0.950 . S
C870 H866 0.949 . S
C870 C878 1.574 . S
C870 C886 1.368 . S
H871 C879 0.950 . S
H872 C877 0.950 . S
H873 C878 0.949 . S
H874 C880 0.950 . S
H875 C881 0.950 . S
H876 C882 0.949 . S
C877 H872 0.950 . S
C877 C879 1.327 . S
C877 C883 1.429 . S
C878 C870 1.574 . S
C878 H873 0.949 . S
C878 C884 1.368 . S
C879 C863 1.349 . S
C879 H871 0.950 . S
C879 C877 1.327 . S
C880 C868 1.349 . S
C880 H874 0.950 . S
C880 C881 1.327 . S
C881 H875 0.950 . S
C881 C880 1.327 . S
C881 C885 1.429 . S
C882 C865 1.574 . S
C882 H876 0.949 . S
C882 C886 1.368 . S
C883 C864 1.429 . S
C883 C877 1.429 . S
C883 C884 1.523 . S
C884 C865 1.368 . S
C884 C878 1.368 . S
C884 C883 1.523 . S
C885 C869 1.429 . S
C885 C881 1.429 . S
C885 C886 1.523 . S
C886 C870 1.368 . S
C886 C882 1.368 . S
C886 C885 1.523 . S
H887 C862 0.950 . S
H888 C864 0.950 . S
H889 C865 0.949 . S
H890 C867 0.950 . S
H891 C869 0.950 . S
C892 C893 1.349 . S
C892 C894 1.327 . S
C892 H917 0.950 . S
C893 C892 1.349 . S
C893 C909 1.349 . S
C894 C892 1.327 . S
C894 C913 1.429 . S
C894 H918 0.950 . S
C895 C912 1.574 . S
C895 C914 1.368 . S
C895 H919 0.949 . S
H896 C900 0.949 . S
C897 C898 1.349 . S
C897 C899 1.327 . S
C897 H920 0.950 . S
C898 C897 1.349 . S
C898 C910 1.349 . S
C899 C897 1.327 . S
C899 C915 1.429 . S
C899 H921 0.950 . S
C900 H896 0.949 . S
C900 C908 1.574 . S
C900 C916 1.368 . S
H901 C909 0.950 . S
H902 C907 0.950 . S
H903 C908 0.949 . S
H904 C910 0.950 . S
H905 C911 0.950 . S
H906 C912 0.949 . S
C907 H902 0.950 . S
C907 C909 1.327 . S
C907 C913 1.429 . S
C908 C900 1.574 . S
C908 H903 0.949 . S
C908 C914 1.368 . S
C909 C893 1.349 . S
C909 H901 0.950 . S
C909 C907 1.327 . S
C910 C898 1.349 . S
C910 H904 0.950 . S
C910 C911 1.327 . S
C911 H905 0.950 . S
C911 C910 1.327 . S
C911 C915 1.429 . S
C912 C895 1.574 . S
C912 H906 0.949 . S
C912 C916 1.368 . S
C913 C894 1.429 . S
C913 C907 1.429 . S
C913 C914 1.523 . S
C914 C895 1.368 . S
C914 C908 1.368 . S
C914 C913 1.523 . S
C915 C899 1.429 . S
C915 C911 1.429 . S
C915 C916 1.523 . S
C916 C900 1.368 . S
C916 C912 1.368 . S
C916 C915 1.523 . S
H917 C892 0.950 . S
H918 C894 0.950 . S
H919 C895 0.949 . S
H920 C897 0.950 . S
H921 C899 0.950 . S
C922 C923 1.349 . S
C922 C924 1.327 . S
C922 H947 0.950 . S
C923 C922 1.349 . S
C923 C939 1.349 . S
C924 C922 1.327 . S
C924 C943 1.429 . S
C924 H948 0.950 . S
C925 C942 1.574 . S
C925 C944 1.368 . S
C925 H949 0.949 . S
H926 C930 0.949 . S
C927 C928 1.349 . S
C927 C929 1.327 . S
C927 H950 0.950 . S
C928 C927 1.349 . S
C928 C940 1.349 . S
C929 C927 1.327 . S
C929 C945 1.429 . S
C929 H951 0.950 . S
C930 H926 0.949 . S
C930 C938 1.574 . S
C930 C946 1.368 . S
H931 C939 0.950 . S
H932 C937 0.950 . S
H933 C938 0.949 . S
H934 C940 0.950 . S
H935 C941 0.950 . S
H936 C942 0.949 . S
C937 H932 0.950 . S
C937 C939 1.327 . S
C937 C943 1.429 . S
C938 C930 1.574 . S
C938 H933 0.949 . S
C938 C944 1.368 . S
C939 C923 1.349 . S
C939 H931 0.950 . S
C939 C937 1.327 . S
C940 C928 1.349 . S
C940 H934 0.950 . S
C940 C941 1.327 . S
C941 H935 0.950 . S
C941 C940 1.327 . S
C941 C945 1.429 . S
C942 C925 1.574 . S
C942 H936 0.949 . S
C942 C946 1.368 . S
C943 C924 1.429 . S
C943 C937 1.429 . S
C943 C944 1.523 . S
C944 C925 1.368 . S
C944 C938 1.368 . S
C944 C943 1.523 . S
C945 C929 1.429 . S
C945 C941 1.429 . S
C945 C946 1.523 . S
C946 C930 1.368 . S
C946 C942 1.368 . S
C946 C945 1.523 . S
H947 C922 0.950 . S
H948 C924 0.950 . S
H949 C925 0.949 . S
H950 C927 0.950 . S
H951 C929 0.950 . S
C473 C111 1.515 . S
C478 C52 1.515 . S
C503 C170 1.515 . S
C508 C229 1.515 . S
C533 C288 1.515 . S
C538 C347 1.515 . S
C563 C406 1.515 . S
C568 C465 1.515 . S
C593 C33 1.291 . S
C598 C210 1.291 . S
C623 C151 1.291 . S
C628 C92 1.291 . S
C653 C121 1.360 . S
C658 C62 1.360 . S
C683 C3 1.360 . S
C688 C180 1.360 . S
C713 C269 1.291 . S
C718 C446 1.291 . S
C743 C387 1.291 . S
C748 C328 1.291 . S
C773 C298 1.360 . S
C778 C357 1.360 . S
C803 C239 1.360 . S
C808 C416 1.360 . S
C833 C300 1.514 . S
C838 C5 1.514 . S
C863 C241 1.514 . S
C868 C64 1.514 . S
C893 C123 1.513 . S
C898 C418 1.513 . S
C923 C359 1.513 . S
C928 C182 1.513 . S
