# Generated by pormake.
# Topology sma, (6)-cn, num edge types: 1
# Building blocks:
#     Node 0, Type 0, BuildingBlock: BETDIP_clean_sbu_0, # of connection points: 6
#     Node 1, Type 0, BuildingBlock: BETDIP_clean_sbu_0, # of connection points: 6
#     Node 2, Type 0, BuildingBlock: BETDIP_clean_sbu_0, # of connection points: 6
#     Edge 3, Type (0, 0), BuildingBlock: MIFKUJ_clean_linker_0, # of connection points: 2
#     Edge 4, Type (0, 0), BuildingBlock: MIFKUJ_clean_linker_0, # of connection points: 2
#     Edge 5, Type (0, 0), BuildingBlock: MIFKUJ_clean_linker_0, # of connection points: 2
#     Edge 6, Type (0, 0), BuildingBlock: MIFKUJ_clean_linker_0, # of connection points: 2
#     Edge 7, Type (0, 0), BuildingBlock: MIFKUJ_clean_linker_0, # of connection points: 2
#     Edge 8, Type (0, 0), BuildingBlock: MIFKUJ_clean_linker_0, # of connection points: 2
#     Edge 9, Type (0, 0), BuildingBlock: MIFKUJ_clean_linker_0, # of connection points: 2
#     Edge 10, Type (0, 0), BuildingBlock: MIFKUJ_clean_linker_0, # of connection points: 2
#     Edge 11, Type (0, 0), BuildingBlock: MIFKUJ_clean_linker_0, # of connection points: 2
# Relax obj value: 0.088
# Max RMSD: 0.185
# Mean RMSD: 0.185
data_MOF--net-sma--node1-BETDIP_clean_sbu_0--edge1-MIFKUJ_clean_linker_0
_symmetry_space_group_name_H-M    P1
_symmetry_Int_Tables_number       1
_symmetry_cell_setting            triclinic
loop_
_symmetry_equiv_pos_as_xyz
'x, y, z'
_cell_length_a     48.209768
_cell_length_b     48.267195
_cell_length_c     17.455479
_cell_angle_alpha  90.628576
_cell_angle_beta   90.123487
_cell_angle_gamma 119.97143
loop_
_atom_site_label
_atom_site_type_symbol
_atom_site_fract_x
_atom_site_fract_y
_atom_site_fract_z
_atom_type_partial_charge
Tb0 Tb 0.0672 0.56625 0.14079 0.0
Tb1 Tb 1.02782 0.49656 0.08954 0.0
C2 C 0.10008 0.61612 0.22095 0.0
C3 C 0.1332 0.64186 0.23731 0.0
C4 C 0.13811 0.66481 0.29365 0.0
C5 C 0.16864 0.69101 0.30732 0.0
C6 C 0.19514 0.69499 0.26487 0.0
C7 C 0.19031 0.67142 0.20955 0.0
C8 C 0.15955 0.64512 0.19564 0.0
C9 C 0.06194 0.55737 -0.00819 0.0
C10 C 0.10203 0.52525 0.10417 0.0
C11 C 0.98729 0.44164 0.03966 0.0
C12 C 0.95931 0.41385 0.07478 0.0
C13 C 0.92939 0.39966 0.03753 0.0
C14 C 0.90235 0.37426 0.07105 0.0
C15 C 0.9046 0.3623 0.14263 0.0
C16 C 0.93465 0.37647 0.17973 0.0
C17 C 0.96164 0.40204 0.14644 0.0
C18 C 1.03029 0.50701 0.23897 0.0
C19 C 0.99696 0.54117 0.08744 0.0
O20 O 0.0916 0.58724 0.24429 0.0
O21 O 0.08857 0.61598 0.15288 0.0
O22 O 0.06366 0.53953 0.04079 0.0
O23 O 0.06741 0.58379 0.02515 0.0
O24 O 0.1029 0.54982 0.14214 0.0
O25 O 0.07559 0.50385 0.06751 0.0
O26 O 0.98461 0.467 0.03011 0.0
O27 O 1.01575 0.44906 0.0652 0.0
O28 O 1.02856 0.52392 0.18769 0.0
O29 O 1.0293 0.48249 0.20657 0.0
O30 O 0.99862 0.51727 0.05435 0.0
O31 O 1.01913 0.56066 0.1375 0.0
H32 H 0.11812 0.66273 0.32649 0.0
H33 H 0.17146 0.70826 0.3513 0.0
H34 H 0.21013 0.67376 0.17558 0.0
H35 H 0.15624 0.6277 0.15164 0.0
H36 H 0.92687 0.40838 -0.0175 0.0
H37 H 0.87971 0.36378 0.04043 0.0
H38 H 0.93722 0.36821 0.2353 0.0
H39 H 0.98425 0.41271 0.17724 0.0
Tb40 Tb 0.57144 1.02234 0.47047 0.0
Tb41 Tb 0.53732 0.05823 0.42206 0.0
C42 C 0.58859 0.9891 0.5461 0.0
C43 C 0.58013 0.95516 0.55674 0.0
C44 C 0.56413 0.93861 0.623 0.0
C45 C 0.55929 0.90793 0.63736 0.0
C46 C 0.57062 0.89314 0.58615 0.0
C47 C 0.58597 0.90945 0.51907 0.0
C48 C 0.59071 0.94 0.50463 0.0
C49 C 0.57089 1.03085 0.32346 0.0
C50 C 0.49586 0.98356 0.42819 0.0
C51 C 0.51973 0.09557 0.36975 0.0
C52 C 0.5249 0.12688 0.39741 0.0
C53 C 0.5086 0.1408 0.36298 0.0
C54 C 0.51155 0.16928 0.39273 0.0
C55 C 0.53077 0.1844 0.45796 0.0
C56 C 0.54746 0.17048 0.4915 0.0
C57 C 0.54453 0.14205 0.4616 0.0
C58 C 0.54458 0.0548 0.57148 0.0
C59 C 0.61405 0.09483 0.4324 0.0
O60 O 0.56886 0.99821 0.57256 0.0
O61 O 0.60069 1.00197 0.47996 0.0
O62 O 0.54874 1.02548 0.36924 0.0
O63 O 0.59263 1.02715 0.35804 0.0
O64 O 0.52046 0.98386 0.46393 0.0
O65 O 0.49881 1.00973 0.39641 0.0
O66 O 0.54503 0.09481 0.34562 0.0
O67 O 0.50209 0.07148 0.41403 0.0
O68 O 0.56395 0.05847 0.51998 0.0
O69 O 0.52033 0.05463 0.53987 0.0
O70 O 0.58791 0.09337 0.4033 0.0
O71 O 0.61261 0.07108 0.47332 0.0
H72 H 0.55604 0.94969 0.66484 0.0
H73 H 0.54765 0.89628 0.68996 0.0
H74 H 0.5946 0.89868 0.47775 0.0
H75 H 0.60335 0.95199 0.45322 0.0
H76 H 0.49322 0.1294 0.31364 0.0
H77 H 0.49872 0.17944 0.36455 0.0
H78 H 0.56214 0.18107 0.54223 0.0
H79 H 0.55708 0.13152 0.48957 0.0
Tb80 Tb 0.51938 0.51783 0.78787 0.0
Tb81 Tb 0.5908 0.55161 0.75356 0.0
C82 C 0.46676 0.49983 0.85418 0.0
C83 C 0.44263 0.50968 0.87113 0.0
C84 C 0.43838 0.51694 0.94691 0.0
C85 C 0.41291 0.5219 0.96579 0.0
C86 C 0.39081 0.5194 0.90943 0.0
C87 C 0.39567 0.51311 0.83319 0.0
C88 C 0.4212 0.5083 0.81427 0.0
C89 C 0.53344 0.51792 0.64396 0.0
C90 C 0.55765 0.59321 0.75215 0.0
C91 C 0.64751 0.57023 0.71337 0.0
C92 C 0.67407 0.56654 0.74553 0.0
C93 C 0.67233 0.53657 0.74892 0.0
C94 C 0.69726 0.53371 0.78241 0.0
C95 C 0.72441 0.56066 0.81371 0.0
C96 C 0.72618 0.59059 0.80956 0.0
C97 C 0.70142 0.59349 0.77564 0.0
C98 C 0.57503 0.54386 0.90035 0.0
C99 C 0.5502 0.47486 0.75712 0.0
O100 O 0.49464 0.51518 0.88942 0.0
O101 O 0.46933 0.49271 0.78287 0.0
O102 O 0.54863 0.54039 0.69139 0.0
O103 O 0.50702 0.49617 0.67428 0.0
O104 O 0.53266 0.56894 0.78556 0.0
O105 O 0.58119 0.58975 0.72332 0.0
O106 O 0.62262 0.54481 0.68408 0.0
O107 O 0.63911 0.58754 0.75476 0.0
O108 O 0.56112 0.52485 0.84606 0.0
O109 O 0.60007 0.56819 0.87314 0.0
O110 O 0.57656 0.50107 0.73567 0.0
O111 O 0.52588 0.47602 0.78968 0.0
H112 H 0.45415 0.5177 -0.00776 0.0
H113 H 0.40978 0.52638 0.02518 0.0
H114 H 0.37941 0.51145 0.7881 0.0
H115 H 0.42353 0.50259 0.75531 0.0
H116 H 0.65161 0.51527 0.72642 0.0
H117 H 0.69501 0.51026 0.78501 0.0
H118 H 0.74693 0.61193 0.83187 0.0
H119 H 0.70356 0.61691 0.7735 0.0
H120 H 0.11051 0.48289 0.01611 0.0
H121 H 0.16015 0.48316 -0.01118 0.0
H122 H 0.21196 0.56571 0.13695 0.0
H123 H 0.16221 0.5661 0.16323 0.0
H124 H 0.24431 0.57355 0.00891 0.0
H125 H 0.19517 0.48936 0.19062 0.0
H126 H 0.15188 0.43968 0.24545 0.0
H127 H 0.1504 0.38708 0.04398 0.0
H128 H 0.1934 0.43654 -0.01253 0.0
H129 H 0.38687 0.56156 0.01022 0.0
H130 H 0.33895 0.56357 0.04792 0.0
H131 H 0.28155 0.48451 0.89443 0.0
H132 H 0.32913 0.48198 0.85763 0.0
H133 H 0.25334 0.47601 0.03233 0.0
H134 H 0.30116 0.56048 0.84933 0.0
H135 H 0.34422 0.61017 0.79399 0.0
H136 H 0.34825 0.66223 -0.00125 0.0
H137 H 0.3055 0.61272 0.05578 0.0
C138 C 0.13232 0.50098 0.04354 0.0
C139 C 0.13218 0.52437 0.09226 0.0
C140 C 0.16082 0.50105 0.02805 0.0
C141 C 0.18992 0.52419 0.06157 0.0
C142 C 0.18988 0.54754 0.11046 0.0
C143 C 0.16133 0.5476 0.12572 0.0
C144 C 0.22034 0.52434 0.04391 0.0
C145 C 0.24644 0.55235 0.01538 0.0
C146 C 0.22309 0.49656 0.05056 0.0
C147 C 0.19734 0.46672 0.08456 0.0
C148 C 0.18547 0.46724 0.15778 0.0
C149 C 0.161 0.43911 0.1892 0.0
C150 C 0.14835 0.41026 0.14816 0.0
C151 C 0.1602 0.40946 0.07568 0.0
C152 C 0.18465 0.43753 0.04397 0.0
C153 C 0.36404 0.54457 -0.01543 0.0
C154 C 0.36196 0.52169 0.93059 0.0
C155 C 0.33666 0.54589 0.00579 0.0
C156 C 0.30657 0.52433 0.97367 0.0
C157 C 0.30444 0.50145 0.91996 0.0
C158 C 0.33178 0.50023 0.89842 0.0
C159 C 0.27716 0.52511 -0.00314 0.0
C160 C 0.25126 0.49726 0.0264 0.0
C161 C 0.27464 0.55304 -0.00873 0.0
C162 C 0.30039 0.58282 0.95717 0.0
C163 C 0.31144 0.58246 0.88285 0.0
C164 C 0.33574 0.61061 0.85111 0.0
C165 C 0.34903 0.63932 0.89292 0.0
C166 C 0.33798 0.63996 0.96649 0.0
C167 C 0.3137 0.61187 -0.00147 0.0
H168 H 0.36784 0.66109 0.86824 0.0
H169 H 0.12941 0.38851 0.17257 0.0
H170 H 0.67471 0.10349 0.45141 0.0
H171 H 0.72541 0.14889 0.40893 0.0
H172 H 0.675 0.19634 0.33117 0.0
H173 H 0.62453 0.15109 0.37175 0.0
H174 H 0.7138 0.19894 0.22461 0.0
H175 H 0.72431 0.22029 0.49649 0.0
H176 H 0.72579 0.2077 0.63247 0.0
H177 H 0.80513 0.193 0.5883 0.0
H178 H 0.80384 0.2051 0.45178 0.0
H179 H 0.84359 0.35286 0.14903 0.0
H180 H 0.79609 0.30804 0.20464 0.0
H181 H 0.8523 0.26546 0.27301 0.0
H182 H 0.90006 0.31047 0.21803 0.0
H183 H 0.81194 0.25889 0.38407 0.0
H184 H 0.80197 0.23833 0.11313 0.0
H185 H 0.80037 0.25052 -0.0231 0.0
H186 H 0.71958 0.26303 0.0193 0.0
H187 H 0.72097 0.25134 0.15605 0.0
C188 C 0.67451 0.12381 0.42629 0.0
C189 C 0.64546 0.12354 0.41516 0.0
C190 C 0.70357 0.14983 0.40202 0.0
C191 C 0.70423 0.17629 0.36695 0.0
C192 C 0.67528 0.17628 0.35763 0.0
C193 C 0.64634 0.15031 0.38127 0.0
C194 C 0.73459 0.20343 0.33664 0.0
C195 C 0.73509 0.21228 0.25999 0.0
C196 C 0.76284 0.22037 0.38165 0.0
C197 C 0.76376 0.21328 0.46377 0.0
C198 C 0.74192 0.21414 0.51567 0.0
C199 C 0.74275 0.20714 0.59285 0.0
C200 C 0.76548 0.19947 0.61897 0.0
C201 C 0.7875 0.1989 0.56797 0.0
C202 C 0.78675 0.20585 0.4907 0.0
C203 C 0.84586 0.33388 0.17546 0.0
C204 C 0.87569 0.33522 0.17834 0.0
C205 C 0.81862 0.30821 0.2074 0.0
C206 C 0.82033 0.28293 0.24209 0.0
C207 C 0.85023 0.28455 0.24659 0.0
C208 C 0.87757 0.31037 0.21511 0.0
C209 C 0.79089 0.25468 0.2725 0.0
C210 C 0.79062 0.24553 0.34886 0.0
C211 C 0.76276 0.23738 0.22727 0.0
C212 C 0.76177 0.24425 0.14497 0.0
C213 C 0.78401 0.2439 0.0935 0.0
C214 C 0.78312 0.25069 0.01619 0.0
C215 C 0.75994 0.25763 -0.01049 0.0
C216 C 0.73754 0.2577 0.04007 0.0
C217 C 0.73835 0.25097 0.11747 0.0
H218 H 0.75929 0.26288 0.92962 0.0
H219 H 0.76608 0.19405 0.67874 0.0
H220 H 0.51914 0.8399 0.64705 0.0
H221 H 0.51474 0.78833 0.67612 0.0
H222 H 0.61083 0.82306 0.59484 0.0
H223 H 0.61527 0.87444 0.56524 0.0
H224 H 0.57369 0.76452 0.54317 0.0
H225 H 0.59157 0.81621 0.79053 0.0
H226 H 0.5804 0.84322 0.89677 0.0
H227 H 0.48711 0.76083 0.92352 0.0
H228 H 0.49758 0.73347 0.81673 0.0
H229 H 0.6063 0.64902 0.69562 0.0
H230 H 0.60628 0.69853 0.66948 0.0
H231 H 0.50948 0.65662 0.75186 0.0
H232 H 0.50955 0.60699 0.77987 0.0
H233 H 0.54365 0.71694 0.8013 0.0
H234 H 0.5267 0.66438 0.55721 0.0
H235 H 0.53811 0.63732 0.45155 0.0
H236 H 0.62965 0.72134 0.41836 0.0
H237 H 0.61897 0.74877 0.52457 0.0
C238 C 0.53941 0.83664 0.6358 0.0
C239 C 0.56756 0.86144 0.60369 0.0
C240 C 0.53688 0.80708 0.65252 0.0
C241 C 0.56258 0.80173 0.63856 0.0
C242 C 0.59058 0.8264 0.60602 0.0
C243 C 0.59306 0.85583 0.58888 0.0
C244 C 0.56046 0.77054 0.6573 0.0
C245 C 0.56747 0.75436 0.59992 0.0
C246 C 0.55149 0.75659 0.7307 0.0
C247 C 0.54524 0.77293 0.79516 0.0
C248 C 0.56859 0.80394 0.81873 0.0
C249 C 0.5624 0.8193 0.87909 0.0
C250 C 0.53303 0.80379 0.91673 0.0
C251 C 0.50983 0.77284 0.89423 0.0
C252 C 0.51589 0.75738 0.83384 0.0
C253 C 0.58496 0.65023 0.70841 0.0
C254 C 0.55784 0.6238 0.73943 0.0
C255 C 0.58494 0.67862 0.69301 0.0
C256 C 0.55766 0.68127 0.70718 0.0
C257 C 0.53079 0.65522 0.73998 0.0
C258 C 0.53086 0.62679 0.7559 0.0
C259 C 0.55728 0.71117 0.68742 0.0
C260 C 0.54974 0.72705 0.74449 0.0
C261 C 0.56577 0.72487 0.61369 0.0
C262 C 0.57213 0.70854 0.54929 0.0
C263 C 0.54935 0.67702 0.5277 0.0
C264 C 0.55568 0.66162 0.46768 0.0
C265 C 0.58462 0.67757 0.42838 0.0
C266 C 0.60725 0.709 0.4489 0.0
C267 C 0.60106 0.7245 0.50895 0.0
H268 H 0.58948 0.6656 0.38195 0.0
H269 H 0.52828 0.81572 0.96345 0.0
H270 H 0.75732 0.5891 0.94678 0.0
H271 H 0.80228 0.58623 0.00334 0.0
H272 H 0.79673 0.52303 0.81983 0.0
H273 H 0.75159 0.52563 0.76334 0.0
H274 H 0.80687 0.50286 0.95226 0.0
H275 H 0.85384 0.60448 0.82465 0.0
H276 H 0.86112 0.65773 0.79727 0.0
H277 H 0.88768 0.68643 0.03209 0.0
H278 H 0.88015 0.63318 0.06107 0.0
H279 H 0.95758 0.51554 0.9637 0.0
H280 H 0.91117 0.51996 0.92861 0.0
H281 H 0.92687 0.58071 0.12606 0.0
H282 H 0.9743 0.57683 0.16128 0.0
H283 H 0.91029 0.60241 0.00114 0.0
H284 H 0.86778 0.50204 0.12619 0.0
H285 H 0.86213 0.44932 0.15178 0.0
H286 H 0.82762 0.41823 0.92213 0.0
H287 H 0.83352 0.47094 0.89474 0.0
C288 C 0.76576 0.5747 0.91823 0.0
C289 C 0.75097 0.55782 0.85003 0.0
C290 C 0.7915 0.57306 0.95072 0.0
C291 C 0.80337 0.55482 0.91535 0.0
C292 C 0.78812 0.5373 0.84833 0.0
C293 C 0.76224 0.53877 0.81607 0.0
C294 C 0.83191 0.55428 0.94721 0.0
C295 C 0.82953 0.52464 0.96228 0.0
C296 C 0.86136 0.58269 0.96267 0.0
C297 C 0.8661 0.61475 0.94519 0.0
C298 C 0.86102 0.62208 0.87055 0.0
C299 C 0.86522 0.65227 0.85473 0.0
C300 C 0.87476 0.67542 0.91295 0.0
C301 C 0.88023 0.66846 -0.01292 0.0
C302 C 0.87602 0.63829 0.00323 0.0
C303 C 0.95125 0.52982 0.00015 0.0
C304 C 0.96949 0.54549 0.06609 0.0
C305 C 0.92454 0.53225 -0.02008 0.0
C306 C 0.91495 0.55004 0.02554 0.0
C307 C 0.93362 0.56661 0.09025 0.0
C308 C 0.9607 0.56437 0.11038 0.0
C309 C 0.88536 0.55099 0.00485 0.0
C310 C 0.88752 0.58066 -0.00807 0.0
C311 C 0.85568 0.52261 -0.00857 0.0
C312 C 0.85129 0.49055 0.00827 0.0
C313 C 0.85911 0.48401 0.08102 0.0
C314 C 0.85587 0.45413 0.09585 0.0
C315 C 0.84459 0.43046 0.03858 0.0
C316 C 0.83637 0.43659 0.96644 0.0
C317 C 0.83961 0.46646 0.95126 0.0
H318 H 0.84217 0.40737 0.05012 0.0
H319 H 0.878 0.69877 0.90059 0.0
H320 H 0.43698 0.97479 0.39024 0.0
H321 H 0.38744 0.92437 0.36475 0.0
H322 H 0.43643 0.87202 0.40949 0.0
H323 H 0.48613 0.92246 0.43659 0.0
H324 H 0.39705 0.85299 0.26947 0.0
H325 H 0.38955 0.86921 0.53915 0.0
H326 H 0.39082 0.89993 0.65421 0.0
H327 H 0.31344 0.90975 0.56294 0.0
H328 H 0.31203 0.87948 0.44673 0.0
H329 H 0.25418 0.69901 0.27274 0.0
H330 H 0.30625 0.74651 0.30033 0.0
H331 H 0.26099 0.80416 0.31343 0.0
H332 H 0.2091 0.75691 0.28655 0.0
H333 H 0.30039 0.81926 0.42811 0.0
H334 H 0.30806 0.80644 0.15834 0.0
H335 H 0.30673 0.77846 0.03816 0.0
H336 H 0.3829 0.76496 0.12197 0.0
H337 H 0.3844 0.79251 0.24317 0.0
C338 C 0.43725 0.95257 0.39502 0.0
C339 C 0.46556 0.95272 0.41569 0.0
C340 C 0.40887 0.92375 0.38044 0.0
C341 C 0.40819 0.89439 0.38518 0.0
C342 C 0.43641 0.89438 0.40536 0.0
C343 C 0.46474 0.92324 0.4213 0.0
C344 C 0.37788 0.86384 0.36917 0.0
C345 C 0.37603 0.84526 0.30481 0.0
C346 C 0.3502 0.85426 0.41398 0.0
C347 C 0.3509 0.87234 0.48392 0.0
C348 C 0.373 0.87816 0.5433 0.0
C349 C 0.3737 0.89544 0.60879 0.0
C350 C 0.35228 0.90685 0.6158 0.0
C351 C 0.33005 0.90093 0.55739 0.0
C352 C 0.32926 0.88369 0.49173 0.0
C353 C 0.25538 0.72187 0.28069 0.0
C354 C 0.22732 0.724 0.27786 0.0
C355 C 0.28523 0.74908 0.29648 0.0
C356 C 0.28777 0.77915 0.30878 0.0
C357 C 0.25981 0.78132 0.30484 0.0
C358 C 0.23005 0.75418 0.28955 0.0
C359 C 0.31924 0.80827 0.32769 0.0
C360 C 0.32136 0.82671 0.39274 0.0
C361 C 0.34701 0.81792 0.2828 0.0
C362 C 0.34607 0.8012 0.21021 0.0
C363 C 0.32433 0.79725 0.15144 0.0
C364 C 0.32359 0.78152 0.08307 0.0
C365 C 0.34465 0.76985 0.07253 0.0
C366 C 0.36656 0.77396 0.13028 0.0
C367 C 0.36738 0.78964 0.19881 0.0
H368 H 0.34405 0.75769 0.01955 0.0
H369 H 0.35286 0.92022 0.66656 0.0
H370 H 0.59862 0.4612 0.74876 0.0
H371 H 0.59552 0.41146 0.70535 0.0
H372 H 0.49329 0.36863 0.67479 0.0
H373 H 0.4962 0.41794 0.72274 0.0
H374 H 0.5039 0.32553 0.72434 0.0
H375 H 0.55272 0.40062 0.51605 0.0
H376 H 0.59302 0.45076 0.45563 0.0
H377 H 0.66806 0.43356 0.52839 0.0
H378 H 0.62832 0.38316 0.58827 0.0
H379 H 0.48281 0.19921 0.47283 0.0
H380 H 0.48627 0.24756 0.52817 0.0
H381 H 0.58649 0.28495 0.57798 0.0
H382 H 0.58351 0.23713 0.52018 0.0
H383 H 0.57752 0.33044 0.52012 0.0
H384 H 0.52865 0.25381 0.71966 0.0
H385 H 0.48875 0.20278 0.77655 0.0
H386 H 0.41379 0.22287 0.72122 0.0
H387 H 0.4532 0.27385 0.66305 0.0
C388 C 0.57542 0.44103 0.73369 0.0
C389 C 0.54765 0.44351 0.73922 0.0
C390 C 0.57369 0.41263 0.70784 0.0
C391 C 0.54429 0.38632 0.68413 0.0
C392 C 0.51635 0.38847 0.69213 0.0
C393 C 0.51798 0.41666 0.71988 0.0
C394 C 0.54263 0.35673 0.65084 0.0
C395 C 0.51973 0.32669 0.67886 0.0
C396 C 0.56375 0.35788 0.59277 0.0
C397 C 0.58759 0.38828 0.55717 0.0
C398 C 0.57783 0.40763 0.51947 0.0
C399 C 0.60054 0.43605 0.48528 0.0
C400 C 0.63302 0.44544 0.48876 0.0
C401 C 0.64289 0.4263 0.52589 0.0
C402 C 0.6203 0.39774 0.55963 0.0
C403 C 0.50572 0.21781 0.49479 0.0
C404 C 0.53288 0.21409 0.49181 0.0
C405 C 0.50756 0.24537 0.52739 0.0
C406 C 0.53655 0.26988 0.55842 0.0
C407 C 0.56378 0.2664 0.55488 0.0
C408 C 0.56197 0.23885 0.52226 0.0
C409 C 0.53865 0.29936 0.59317 0.0
C410 C 0.56165 0.32934 0.56546 0.0
C411 C 0.51758 0.29813 0.6513 0.0
C412 C 0.49385 0.2675 0.68633 0.0
C413 C 0.50362 0.24723 0.71908 0.0
C414 C 0.4811 0.21833 0.75166 0.0
C415 C 0.44874 0.20955 0.75232 0.0
C416 C 0.43886 0.22968 0.72057 0.0
C417 C 0.46128 0.25859 0.68786 0.0
H418 H 0.43134 0.18717 0.77758 0.0
H419 H 0.65052 0.46749 0.46236 0.0
H420 H 1.03092 0.49634 0.94042 0.0
H421 H 0.99884 0.47549 0.82448 0.0
H422 H 1.0285 0.57199 0.75502 0.0
H423 H 0.0558 0.59232 0.87863 0.0
H424 H 0.97344 0.5349 0.69512 0.0
H425 H 0.07249 0.52943 0.71353 0.0
H426 H 0.1073 0.51148 0.77265 0.0
H427 H 1.0333 0.41351 0.74265 0.0
H428 H 0.99799 0.43095 0.68399 0.0
H429 H 1.03517 0.55575 0.32729 0.0
H430 H 1.01515 0.55197 0.45755 0.0
H431 H 0.97115 0.44906 0.44524 0.0
H432 H 0.99256 0.45293 0.31701 0.0
H433 H 1.01356 0.47278 0.55239 0.0
H434 H 0.92555 0.48486 0.4841 0.0
H435 H 0.89633 0.50729 0.417 0.0
H436 H 0.95497 0.59802 0.52928 0.0
H437 H 0.98494 0.57637 0.59613 0.0
C438 C 1.02946 0.51293 0.90185 0.0
C439 C 1.04541 0.5458 0.91836 0.0
C440 C 1.01147 0.50106 0.83518 0.0
C441 C 1.01207 0.52222 0.78006 0.0
C442 C 1.02767 0.55518 0.79685 0.0
C443 C 1.0438 0.56687 0.86647 0.0
C444 C 1.00079 0.51074 0.70138 0.0
C445 C 0.98209 0.52129 0.66349 0.0
C446 C 1.01111 0.49191 0.66118 0.0
C447 C 1.03253 0.48148 0.69534 0.0
C448 C 0.06367 0.50408 0.71979 0.0
C449 C 0.08345 0.494 0.75322 0.0
C450 C 0.07247 0.46138 0.76164 0.0
C451 C 1.04174 0.43876 0.73629 0.0
C452 C 1.02184 0.44872 0.70294 0.0
C453 C 1.02104 0.53241 0.35258 0.0
C454 C 1.01642 0.50479 0.31423 0.0
C455 C 1.00894 0.53016 0.42601 0.0
C456 C 0.99147 0.50016 0.46064 0.0
C457 C 0.98453 0.47236 0.41927 0.0
C458 C 0.99726 0.47468 0.34682 0.0
C459 C 0.98791 0.49867 0.54427 0.0
C460 C 1.00372 0.48541 0.58377 0.0
C461 C 0.97573 0.51575 0.58468 0.0
C462 C 0.95754 0.52891 0.54523 0.0
C463 C 0.93236 0.50964 0.49425 0.0
C464 C 0.91564 0.52223 0.45624 0.0
C465 C 0.92378 0.55405 0.46888 0.0
C466 C 0.94865 0.57335 0.51965 0.0
C467 C 0.96546 0.5609 0.55778 0.0
H468 H 0.91083 0.56376 0.43934 0.0
H469 H 0.08781 0.45363 0.78764 0.0
H470 H 0.6285 0.07017 0.25992 0.0
H471 H 0.63848 0.09967 0.14065 0.0
H472 H 0.53671 0.06185 0.11175 0.0
H473 H 0.52693 1.03365 0.23259 0.0
H474 H 0.62038 0.07109 0.01189 0.0
H475 H 0.51798 0.10412 0.00054 0.0
H476 H 0.49553 0.12846 0.08696 0.0
H477 H 0.58295 0.17344 0.21813 0.0
H478 H 0.60632 0.15005 0.13151 0.0
H479 H 0.50693 0.04459 0.69511 0.0
H480 H 0.52473 0.06361 0.82665 0.0
H481 H 0.62306 0.11321 0.75222 0.0
H482 H 0.60552 0.09302 0.62196 0.0
H483 H 0.56055 0.12086 0.90435 0.0
H484 H 0.66668 0.10163 0.88315 0.0
H485 H 0.68787 0.07474 0.80045 0.0
H486 H 0.59205 1.00062 0.7458 0.0
H487 H 0.57037 1.02691 0.82882 0.0
C488 C 0.60837 0.06853 0.22821 0.0
C489 C 0.57689 0.04921 0.25364 0.0
C490 C 0.61413 0.08565 0.16086 0.0
C491 C 0.58842 0.08322 0.11773 0.0
C492 C 0.55702 0.0648 0.14503 0.0
C493 C 0.55134 0.0482 0.21313 0.0
C494 C 0.59336 0.09459 0.03827 0.0
C495 C 0.60834 0.08314 -0.01121 0.0
C496 C 0.5776 0.11021 0.00816 0.0
C497 C 0.56397 0.12526 0.05916 0.0
C498 C 0.53263 0.11952 0.04713 0.0
C499 C 0.5197 0.1331 0.09637 0.0
C500 C 0.53782 0.15251 0.15791 0.0
C501 C 0.56895 0.15842 0.17037 0.0
C502 C 0.58205 0.145 0.12118 0.0
C503 C 0.53229 0.05955 0.70724 0.0
C504 C 0.55492 0.06664 0.64962 0.0
C505 C 0.5424 0.07082 0.78174 0.0
C506 C 0.5752 0.08961 0.79886 0.0
C507 C 0.59769 0.09845 0.74008 0.0
C508 C 0.58765 0.08659 0.66611 0.0
C509 C 0.58569 0.09546 0.87949 0.0
C510 C 0.57381 0.11028 0.92848 0.0
C511 C 0.60431 0.08294 0.90974 0.0
C512 C 0.61698 0.06642 0.86134 0.0
C513 C 0.65019 0.07954 0.85364 0.0
C514 C 0.66227 0.06442 0.80671 0.0
C515 C 0.64131 0.03605 0.76766 0.0
C516 C 0.60824 1.02263 0.77587 0.0
C517 C 0.59606 0.03762 0.82285 0.0
H518 H 0.65069 1.02443 0.73118 0.0
H519 H 0.52776 0.16301 0.19588 0.0
H520 H 0.57999 0.56137 0.55303 0.0
H521 H 0.59805 0.55013 0.43176 0.0
H522 H 0.53978 0.44871 0.47084 0.0
H523 H 0.52031 0.45993 0.58931 0.0
H524 H 0.62378 0.51738 0.36259 0.0
H525 H 0.50077 0.41452 0.31525 0.0
H526 H 0.4465 0.38896 0.37037 0.0
H527 H 0.46054 0.48119 0.43571 0.0
H528 H 0.51479 0.5072 0.38048 0.0
H529 H 0.5432 0.48249 0.94857 0.0
H530 H 0.54682 0.46294 0.07423 0.0
H531 H 0.60908 0.56016 0.15255 0.0
H532 H 0.60678 0.5797 0.02544 0.0
H533 H 0.52619 0.47174 0.19863 0.0
H534 H 0.6582 0.56687 0.29063 0.0
H535 H 0.71157 0.59352 0.23159 0.0
H536 H 0.68011 0.51722 0.06555 0.0
H537 H 0.62669 0.48974 0.12435 0.0
C538 C 0.57148 0.53676 0.53583 0.0
C539 C 0.54795 0.51151 0.57798 0.0
C540 C 0.58216 0.53031 0.4675 0.0
C541 C 0.5697 0.49856 0.44179 0.0
C542 C 0.54922 0.47334 0.48913 0.0
C543 C 0.53785 0.47978 0.55614 0.0
C544 C 0.57226 0.49269 0.35989 0.0
C545 C 0.60261 0.5071 0.32617 0.0
C546 C 0.54449 0.47788 0.31292 0.0
C547 C 0.51174 0.46266 0.34444 0.0
C548 C 0.49215 0.42927 0.34114 0.0
C549 C 0.46146 0.41473 0.37246 0.0
C550 C 0.45011 0.43344 0.40669 0.0
C551 C 0.46937 0.46673 0.4093 0.0
C552 C 0.50005 0.48138 0.37796 0.0
C553 C 0.55772 0.49968 -0.00737 0.0
C554 C 0.57463 0.53262 -0.02205 0.0
C555 C 0.56003 0.48844 0.064 0.0
C556 C 0.57886 0.51 0.12206 0.0
C557 C 0.59533 0.543 0.10771 0.0
C558 C 0.59351 0.55421 0.0358 0.0
C559 C 0.57785 0.49865 0.20058 0.0
C560 C 0.54766 0.48073 0.23378 0.0
C561 C 0.60582 0.51011 0.24637 0.0
C562 C 0.6383 0.52621 0.21203 0.0
C563 C 0.6627 0.55554 0.24207 0.0
C564 C 0.69297 0.57087 0.20846 0.0
C565 C 0.69922 0.55709 0.14482 0.0
C566 C 0.67522 0.5279 0.11478 0.0
C567 C 0.64493 0.51245 0.14821 0.0
H568 H 0.72264 0.56903 0.11878 0.0
H569 H 0.42638 0.42214 0.43106 0.0
loop_
_geom_bond_atom_site_label_1
_geom_bond_atom_site_label_2
_geom_bond_distance
_geom_bond_site_symmetry_2
_ccdc_geom_bond_type
Tb0 C2 2.809 . S
Tb0 O20 2.484 . S
Tb0 O21 2.440 . S
Tb0 O22 2.658 1_455 S
Tb0 O23 2.409 . S
Tb0 O24 2.378 . S
Tb0 O28 2.325 . S
Tb0 O31 2.341 1_455 S
Tb1 C11 2.809 . S
Tb1 O22 2.325 . S
Tb1 O25 2.341 1_655 S
Tb1 O26 2.484 . S
Tb1 O27 2.440 . S
Tb1 O28 2.658 1_655 S
Tb1 O29 2.409 . S
Tb1 O30 2.378 . S
C2 Tb0 2.809 . S
C2 C3 1.514 . S
C2 O20 1.248 . S
C2 O21 1.266 . S
C3 C2 1.514 . S
C3 C4 1.359 . S
C3 C8 1.348 . S
C4 C3 1.359 . S
C4 C5 1.380 . S
C4 H32 0.929 . S
C5 C4 1.380 . S
C5 C6 1.347 . S
C5 H33 0.931 . S
C6 C5 1.347 . S
C6 C7 1.369 . S
C7 C6 1.369 . S
C7 C8 1.408 . S
C7 H34 0.930 . S
C8 C3 1.348 . S
C8 C7 1.408 . S
C8 H35 0.930 . S
C9 O22 1.281 1_455 S
C9 O23 1.254 . S
C10 O24 1.236 . S
C10 O25 1.266 . S
C11 Tb1 2.809 . S
C11 C12 1.514 . S
C11 O26 1.248 . S
C11 O27 1.266 . S
C12 C11 1.514 . S
C12 C13 1.359 . S
C12 C17 1.348 . S
C13 C12 1.359 . S
C13 C14 1.380 . S
C13 H36 0.929 . S
C14 C13 1.380 . S
C14 C15 1.347 . S
C14 H37 0.931 . S
C15 C14 1.347 . S
C15 C16 1.369 . S
C16 C15 1.369 . S
C16 C17 1.408 . S
C16 H38 0.930 . S
C17 C12 1.348 . S
C17 C16 1.408 . S
C17 H39 0.930 . S
C18 O28 1.281 . S
C18 O29 1.253 1_455 S
C19 O30 1.236 . S
C19 O31 1.266 . S
O20 Tb0 2.484 . S
O20 C2 1.248 . S
O21 Tb0 2.440 . S
O21 C2 1.266 . S
O22 Tb0 2.658 1_655 S
O22 Tb1 2.325 . S
O22 C9 1.281 1_655 S
O23 Tb0 2.409 . S
O23 C9 1.254 . S
O24 Tb0 2.378 . S
O24 C10 1.236 . S
O25 Tb1 2.341 1_455 S
O25 C10 1.266 . S
O26 Tb1 2.484 . S
O26 C11 1.248 . S
O27 Tb1 2.440 . S
O27 C11 1.266 . S
O28 Tb0 2.325 . S
O28 Tb1 2.658 1_455 S
O28 C18 1.281 . S
O29 Tb1 2.409 . S
O29 C18 1.253 1_655 S
O30 Tb1 2.378 . S
O30 C19 1.236 . S
O31 Tb0 2.341 1_655 S
O31 C19 1.266 . S
H32 C4 0.929 . S
H33 C5 0.931 . S
H34 C7 0.930 . S
H35 C8 0.930 . S
H36 C13 0.929 . S
H37 C14 0.931 . S
H38 C16 0.930 . S
H39 C17 0.930 . S
Tb40 C42 2.809 . S
Tb40 O60 2.484 . S
Tb40 O61 2.440 . S
Tb40 O62 2.658 1_565 S
Tb40 O63 2.409 . S
Tb40 O64 2.378 . S
Tb40 O68 2.325 . S
Tb40 O71 2.341 1_565 S
Tb41 C51 2.809 . S
Tb41 O62 2.325 . S
Tb41 O65 2.341 1_545 S
Tb41 O66 2.484 . S
Tb41 O67 2.440 . S
Tb41 O68 2.658 1_545 S
Tb41 O69 2.409 . S
Tb41 O70 2.378 . S
C42 Tb40 2.809 . S
C42 C43 1.514 . S
C42 O60 1.248 . S
C42 O61 1.266 . S
C43 C42 1.514 . S
C43 C44 1.359 . S
C43 C48 1.348 . S
C44 C43 1.359 . S
C44 C45 1.380 . S
C44 H72 0.929 . S
C45 C44 1.380 . S
C45 C46 1.347 . S
C45 H73 0.931 . S
C46 C45 1.347 . S
C46 C47 1.369 . S
C47 C46 1.369 . S
C47 C48 1.408 . S
C47 H74 0.930 . S
C48 C43 1.348 . S
C48 C47 1.408 . S
C48 H75 0.930 . S
C49 O62 1.283 1_565 S
C49 O63 1.250 . S
C50 O64 1.236 . S
C50 O65 1.266 . S
C51 Tb41 2.809 . S
C51 C52 1.514 . S
C51 O66 1.248 . S
C51 O67 1.266 . S
C52 C51 1.514 . S
C52 C53 1.359 . S
C52 C57 1.348 . S
C53 C52 1.359 . S
C53 C54 1.380 . S
C53 H76 0.929 . S
C54 C53 1.380 . S
C54 C55 1.347 . S
C54 H77 0.931 . S
C55 C54 1.347 . S
C55 C56 1.369 . S
C56 C55 1.369 . S
C56 C57 1.408 . S
C56 H78 0.930 . S
C57 C52 1.348 . S
C57 C56 1.408 . S
C57 H79 0.930 . S
C58 O68 1.281 1_545 S
C58 O69 1.254 . S
C59 O70 1.236 . S
C59 O71 1.266 . S
O60 Tb40 2.484 . S
O60 C42 1.248 . S
O61 Tb40 2.440 . S
O61 C42 1.266 . S
O62 Tb40 2.658 1_545 S
O62 Tb41 2.325 . S
O62 C49 1.283 1_545 S
O63 Tb40 2.409 . S
O63 C49 1.250 . S
O64 Tb40 2.378 . S
O64 C50 1.236 . S
O65 Tb41 2.341 1_565 S
O65 C50 1.266 . S
O66 Tb41 2.484 . S
O66 C51 1.248 . S
O67 Tb41 2.440 . S
O67 C51 1.266 . S
O68 Tb40 2.325 . S
O68 Tb41 2.658 1_565 S
O68 C58 1.281 1_565 S
O69 Tb41 2.409 . S
O69 C58 1.254 . S
O70 Tb41 2.378 . S
O70 C59 1.236 . S
O71 Tb40 2.341 1_545 S
O71 C59 1.266 . S
H72 C44 0.929 . S
H73 C45 0.931 . S
H74 C47 0.930 . S
H75 C48 0.930 . S
H76 C53 0.929 . S
H77 C54 0.931 . S
H78 C56 0.930 . S
H79 C57 0.930 . S
Tb80 C82 2.809 . S
Tb80 O100 2.484 . S
Tb80 O101 2.440 . S
Tb80 O102 2.658 . S
Tb80 O103 2.409 . S
Tb80 O104 2.378 . S
Tb80 O108 2.325 . S
Tb80 O111 2.341 . S
Tb81 C91 2.809 . S
Tb81 O102 2.325 . S
Tb81 O105 2.341 . S
Tb81 O106 2.484 . S
Tb81 O107 2.440 . S
Tb81 O108 2.658 . S
Tb81 O109 2.409 . S
Tb81 O110 2.378 . S
C82 Tb80 2.809 . S
C82 C83 1.514 . S
C82 O100 1.248 . S
C82 O101 1.266 . S
C83 C82 1.514 . S
C83 C84 1.359 . S
C83 C88 1.348 . S
C84 C83 1.359 . S
C84 C85 1.380 . S
C84 H112 0.929 . S
C85 C84 1.380 . S
C85 C86 1.347 . S
C85 H113 0.931 . S
C86 C85 1.347 . S
C86 C87 1.369 . S
C87 C86 1.369 . S
C87 C88 1.408 . S
C87 H114 0.930 . S
C88 C83 1.348 . S
C88 C87 1.408 . S
C88 H115 0.930 . S
C89 O102 1.281 . S
C89 O103 1.254 . S
C90 O104 1.236 . S
C90 O105 1.266 . S
C91 Tb81 2.809 . S
C91 C92 1.514 . S
C91 O106 1.248 . S
C91 O107 1.266 . S
C92 C91 1.514 . S
C92 C93 1.359 . S
C92 C97 1.348 . S
C93 C92 1.359 . S
C93 C94 1.380 . S
C93 H116 0.929 . S
C94 C93 1.380 . S
C94 C95 1.347 . S
C94 H117 0.931 . S
C95 C94 1.347 . S
C95 C96 1.369 . S
C96 C95 1.369 . S
C96 C97 1.408 . S
C96 H118 0.930 . S
C97 C92 1.348 . S
C97 C96 1.408 . S
C97 H119 0.930 . S
C98 O108 1.281 . S
C98 O109 1.254 . S
C99 O110 1.236 . S
C99 O111 1.266 . S
O100 Tb80 2.484 . S
O100 C82 1.248 . S
O101 Tb80 2.440 . S
O101 C82 1.266 . S
O102 Tb80 2.658 . S
O102 Tb81 2.325 . S
O102 C89 1.281 . S
O103 Tb80 2.409 . S
O103 C89 1.254 . S
O104 Tb80 2.378 . S
O104 C90 1.236 . S
O105 Tb81 2.341 . S
O105 C90 1.266 . S
O106 Tb81 2.484 . S
O106 C91 1.248 . S
O107 Tb81 2.440 . S
O107 C91 1.266 . S
O108 Tb80 2.325 . S
O108 Tb81 2.658 . S
O108 C98 1.281 . S
O109 Tb81 2.409 . S
O109 C98 1.254 . S
O110 Tb81 2.378 . S
O110 C99 1.236 . S
O111 Tb80 2.341 . S
O111 C99 1.266 . S
H112 C84 0.929 . S
H113 C85 0.931 . S
H114 C87 0.930 . S
H115 C88 0.930 . S
H116 C93 0.929 . S
H117 C94 0.931 . S
H118 C96 0.930 . S
H119 C97 0.930 . S
H120 C138 0.951 . S
H121 C140 0.951 1_556 S
H122 C142 0.950 . S
H123 C143 0.950 . S
H124 C145 0.950 . S
H125 C148 0.950 . S
H126 C149 0.950 . S
H127 C151 0.950 1_556 S
H128 C152 0.950 . S
H129 C153 0.951 . S
H130 C155 0.951 1_554 S
H131 C157 0.950 . S
H132 C158 0.950 . S
H133 C160 0.950 . S
H134 C163 0.950 . S
H135 C164 0.950 . S
H136 C166 0.950 . S
H137 C167 0.950 . S
C138 H120 0.951 . S
C138 C139 1.366 . S
C138 C140 1.388 . S
C139 C138 1.366 . S
C139 C143 1.385 . S
C140 H121 0.951 1_554 S
C140 C138 1.388 . S
C140 C141 1.366 . S
C141 C140 1.366 . S
C141 C142 1.414 . S
C141 C144 1.499 . S
C142 H122 0.950 . S
C142 C141 1.414 . S
C142 C143 1.374 . S
C143 H123 0.950 . S
C143 C139 1.385 . S
C143 C142 1.374 . S
C144 C141 1.499 . S
C144 C145 1.373 . S
C144 C146 1.389 . S
C145 H124 0.950 . S
C145 C144 1.373 . S
C145 C161 1.375 1_554 S
C146 C144 1.389 . S
C146 C147 1.524 . S
C146 C160 1.377 1_554 S
C147 C146 1.524 . S
C147 C148 1.397 . S
C147 C152 1.363 1_554 S
C148 H125 0.950 . S
C148 C147 1.397 . S
C148 C149 1.334 . S
C149 H126 0.950 . S
C149 C148 1.334 . S
C149 C150 1.287 . S
C150 C149 1.287 . S
C150 C151 1.524 . S
C150 H169 0.913 . S
C151 H127 0.950 1_554 S
C151 C150 1.524 . S
C151 C152 1.415 1_554 S
C152 H128 0.950 . S
C152 C147 1.363 1_556 S
C152 C151 1.415 1_556 S
C153 H129 0.951 . S
C153 C154 1.366 . S
C153 C155 1.388 . S
C154 C153 1.366 . S
C154 C158 1.385 . S
C155 H130 0.951 1_556 S
C155 C153 1.388 . S
C155 C156 1.366 . S
C156 C155 1.366 . S
C156 C157 1.414 . S
C156 C159 1.499 . S
C157 H131 0.950 . S
C157 C156 1.414 . S
C157 C158 1.374 . S
C158 H132 0.950 . S
C158 C154 1.385 . S
C158 C157 1.374 . S
C159 C156 1.499 . S
C159 C160 1.373 . S
C159 C161 1.390 . S
C160 H133 0.950 . S
C160 C146 1.377 1_556 S
C160 C159 1.373 . S
C161 C145 1.375 1_556 S
C161 C159 1.390 . S
C161 C162 1.525 . S
C162 C161 1.525 . S
C162 C163 1.397 . S
C162 C167 1.363 1_556 S
C163 H134 0.950 . S
C163 C162 1.397 . S
C163 C164 1.334 . S
C164 H135 0.950 . S
C164 C163 1.334 . S
C164 C165 1.287 . S
C165 C164 1.287 . S
C165 C166 1.524 1_556 S
C165 H168 0.999 . S
C166 H136 0.950 . S
C166 C165 1.524 1_554 S
C166 C167 1.415 . S
C167 H137 0.950 . S
C167 C162 1.363 1_554 S
C167 C166 1.415 . S
H168 C165 0.999 . S
H169 C150 0.913 . S
H170 C188 0.951 . S
H171 C190 0.951 . S
H172 C192 0.950 . S
H173 C193 0.950 . S
H174 C195 0.950 . S
H175 C198 0.950 . S
H176 C199 0.950 . S
H177 C201 0.950 . S
H178 C202 0.950 . S
H179 C203 0.951 . S
H180 C205 0.951 . S
H181 C207 0.950 . S
H182 C208 0.950 . S
H183 C210 0.950 . S
H184 C213 0.950 . S
H185 C214 0.950 1_556 S
H186 C216 0.950 . S
H187 C217 0.950 . S
C188 H170 0.951 . S
C188 C189 1.366 . S
C188 C190 1.388 . S
C189 C188 1.366 . S
C189 C193 1.385 . S
C190 H171 0.951 . S
C190 C188 1.388 . S
C190 C191 1.366 . S
C191 C190 1.366 . S
C191 C192 1.414 . S
C191 C194 1.499 . S
C192 H172 0.950 . S
C192 C191 1.414 . S
C192 C193 1.374 . S
C193 H173 0.950 . S
C193 C189 1.385 . S
C193 C192 1.374 . S
C194 C191 1.499 . S
C194 C195 1.373 . S
C194 C196 1.389 . S
C195 H174 0.950 . S
C195 C194 1.373 . S
C195 C211 1.377 . S
C196 C194 1.389 . S
C196 C197 1.524 . S
C196 C210 1.377 . S
C197 C196 1.524 . S
C197 C198 1.397 . S
C197 C202 1.363 . S
C198 H175 0.950 . S
C198 C197 1.397 . S
C198 C199 1.334 . S
C199 H176 0.950 . S
C199 C198 1.334 . S
C199 C200 1.287 . S
C200 C199 1.287 . S
C200 C201 1.524 . S
C200 H219 0.913 . S
C201 H177 0.950 . S
C201 C200 1.524 . S
C201 C202 1.415 . S
C202 H178 0.950 . S
C202 C197 1.363 . S
C202 C201 1.415 . S
C203 H179 0.951 . S
C203 C204 1.366 . S
C203 C205 1.388 . S
C204 C203 1.366 . S
C204 C208 1.385 . S
C205 H180 0.951 . S
C205 C203 1.388 . S
C205 C206 1.366 . S
C206 C205 1.366 . S
C206 C207 1.414 . S
C206 C209 1.499 . S
C207 H181 0.950 . S
C207 C206 1.414 . S
C207 C208 1.374 . S
C208 H182 0.950 . S
C208 C204 1.385 . S
C208 C207 1.374 . S
C209 C206 1.499 . S
C209 C210 1.373 . S
C209 C211 1.389 . S
C210 H183 0.950 . S
C210 C196 1.377 . S
C210 C209 1.373 . S
C211 C195 1.377 . S
C211 C209 1.389 . S
C211 C212 1.524 . S
C212 C211 1.524 . S
C212 C213 1.397 . S
C212 C217 1.363 . S
C213 H184 0.950 . S
C213 C212 1.397 . S
C213 C214 1.334 . S
C214 H185 0.950 1_554 S
C214 C213 1.334 . S
C214 C215 1.287 1_554 S
C215 C214 1.287 1_556 S
C215 C216 1.524 1_556 S
C215 H218 0.999 . S
C216 H186 0.950 . S
C216 C215 1.524 1_554 S
C216 C217 1.415 . S
C217 H187 0.950 . S
C217 C212 1.363 . S
C217 C216 1.415 . S
H218 C215 0.999 . S
H219 C200 0.913 . S
H220 C238 0.951 . S
H221 C240 0.951 . S
H222 C242 0.950 . S
H223 C243 0.950 . S
H224 C245 0.950 . S
H225 C248 0.950 . S
H226 C249 0.950 . S
H227 C251 0.950 . S
H228 C252 0.950 . S
H229 C253 0.951 . S
H230 C255 0.951 . S
H231 C257 0.950 . S
H232 C258 0.950 . S
H233 C260 0.950 . S
H234 C263 0.950 . S
H235 C264 0.950 . S
H236 C266 0.950 . S
H237 C267 0.950 . S
C238 H220 0.951 . S
C238 C239 1.366 . S
C238 C240 1.388 . S
C239 C238 1.366 . S
C239 C243 1.385 . S
C240 H221 0.951 . S
C240 C238 1.388 . S
C240 C241 1.366 . S
C241 C240 1.366 . S
C241 C242 1.414 . S
C241 C244 1.499 . S
C242 H222 0.950 . S
C242 C241 1.414 . S
C242 C243 1.374 . S
C243 H223 0.950 . S
C243 C239 1.385 . S
C243 C242 1.374 . S
C244 C241 1.499 . S
C244 C245 1.373 . S
C244 C246 1.389 . S
C245 H224 0.950 . S
C245 C244 1.373 . S
C245 C261 1.377 . S
C246 C244 1.389 . S
C246 C247 1.524 . S
C246 C260 1.377 . S
C247 C246 1.524 . S
C247 C248 1.397 . S
C247 C252 1.363 . S
C248 H225 0.950 . S
C248 C247 1.397 . S
C248 C249 1.334 . S
C249 H226 0.950 . S
C249 C248 1.334 . S
C249 C250 1.287 . S
C250 C249 1.287 . S
C250 C251 1.524 . S
C250 H269 0.913 . S
C251 H227 0.950 . S
C251 C250 1.524 . S
C251 C252 1.415 . S
C252 H228 0.950 . S
C252 C247 1.363 . S
C252 C251 1.415 . S
C253 H229 0.951 . S
C253 C254 1.366 . S
C253 C255 1.388 . S
C254 C253 1.366 . S
C254 C258 1.385 . S
C255 H230 0.951 . S
C255 C253 1.388 . S
C255 C256 1.366 . S
C256 C255 1.366 . S
C256 C257 1.414 . S
C256 C259 1.499 . S
C257 H231 0.950 . S
C257 C256 1.414 . S
C257 C258 1.374 . S
C258 H232 0.950 . S
C258 C254 1.385 . S
C258 C257 1.374 . S
C259 C256 1.499 . S
C259 C260 1.373 . S
C259 C261 1.389 . S
C260 H233 0.950 . S
C260 C246 1.377 . S
C260 C259 1.373 . S
C261 C245 1.377 . S
C261 C259 1.389 . S
C261 C262 1.524 . S
C262 C261 1.524 . S
C262 C263 1.397 . S
C262 C267 1.363 . S
C263 H234 0.950 . S
C263 C262 1.397 . S
C263 C264 1.334 . S
C264 H235 0.950 . S
C264 C263 1.334 . S
C264 C265 1.287 . S
C265 C264 1.287 . S
C265 C266 1.524 . S
C265 H268 0.999 . S
C266 H236 0.950 . S
C266 C265 1.524 . S
C266 C267 1.415 . S
C267 H237 0.950 . S
C267 C262 1.363 . S
C267 C266 1.415 . S
H268 C265 0.999 . S
H269 C250 0.913 . S
H270 C288 0.951 . S
H271 C290 0.951 1_554 S
H272 C292 0.950 . S
H273 C293 0.950 . S
H274 C295 0.950 . S
H275 C298 0.950 . S
H276 C299 0.950 . S
H277 C301 0.950 . S
H278 C302 0.950 . S
H279 C303 0.951 . S
H280 C305 0.951 1_556 S
H281 C307 0.950 . S
H282 C308 0.950 . S
H283 C310 0.950 . S
H284 C313 0.950 . S
H285 C314 0.950 1_554 S
H286 C316 0.950 . S
H287 C317 0.950 . S
C288 H270 0.951 . S
C288 C289 1.366 . S
C288 C290 1.388 . S
C289 C288 1.366 . S
C289 C293 1.385 . S
C290 H271 0.951 1_556 S
C290 C288 1.388 . S
C290 C291 1.366 . S
C291 C290 1.366 . S
C291 C292 1.414 . S
C291 C294 1.499 . S
C292 H272 0.950 . S
C292 C291 1.414 . S
C292 C293 1.374 . S
C293 H273 0.950 . S
C293 C289 1.385 . S
C293 C292 1.374 . S
C294 C291 1.499 . S
C294 C295 1.373 . S
C294 C296 1.389 1_556 S
C295 H274 0.950 . S
C295 C294 1.373 . S
C295 C311 1.377 . S
C296 C294 1.389 1_554 S
C296 C297 1.524 . S
C296 C310 1.377 . S
C297 C296 1.524 . S
C297 C298 1.397 1_554 S
C297 C302 1.363 . S
C298 H275 0.950 . S
C298 C297 1.397 1_556 S
C298 C299 1.334 . S
C299 H276 0.950 . S
C299 C298 1.334 . S
C299 C300 1.287 1_556 S
C300 C299 1.287 1_554 S
C300 C301 1.524 . S
C300 H319 0.913 . S
C301 H277 0.950 . S
C301 C300 1.524 . S
C301 C302 1.415 . S
C302 H278 0.950 . S
C302 C297 1.363 . S
C302 C301 1.415 . S
C303 H279 0.951 . S
C303 C304 1.366 . S
C303 C305 1.388 . S
C304 C303 1.366 . S
C304 C308 1.385 . S
C305 H280 0.951 1_554 S
C305 C303 1.388 . S
C305 C306 1.366 . S
C306 C305 1.366 . S
C306 C307 1.414 . S
C306 C309 1.499 . S
C307 H281 0.950 . S
C307 C306 1.414 . S
C307 C308 1.374 . S
C308 H282 0.950 . S
C308 C304 1.385 . S
C308 C307 1.374 . S
C309 C306 1.499 . S
C309 C310 1.373 . S
C309 C311 1.389 1_554 S
C310 H283 0.950 . S
C310 C296 1.377 . S
C310 C309 1.373 . S
C311 C295 1.377 . S
C311 C309 1.389 1_556 S
C311 C312 1.524 . S
C312 C311 1.524 . S
C312 C313 1.397 1_556 S
C312 C317 1.363 . S
C313 H284 0.950 . S
C313 C312 1.397 1_554 S
C313 C314 1.334 1_554 S
C314 H285 0.950 1_556 S
C314 C313 1.334 1_556 S
C314 C315 1.287 . S
C315 C314 1.287 . S
C315 C316 1.524 . S
C315 H318 0.999 . S
C316 H286 0.950 . S
C316 C315 1.524 . S
C316 C317 1.415 . S
C317 H287 0.950 . S
C317 C312 1.363 . S
C317 C316 1.415 . S
H318 C315 0.999 . S
H319 C300 0.913 . S
H320 C338 0.951 . S
H321 C340 0.951 . S
H322 C342 0.950 . S
H323 C343 0.950 . S
H324 C345 0.950 . S
H325 C348 0.950 . S
H326 C349 0.950 . S
H327 C351 0.950 . S
H328 C352 0.950 . S
H329 C353 0.951 . S
H330 C355 0.951 . S
H331 C357 0.950 . S
H332 C358 0.950 . S
H333 C360 0.950 . S
H334 C363 0.950 . S
H335 C364 0.950 . S
H336 C366 0.950 . S
H337 C367 0.950 . S
C338 H320 0.951 . S
C338 C339 1.366 . S
C338 C340 1.388 . S
C339 C338 1.366 . S
C339 C343 1.385 . S
C340 H321 0.951 . S
C340 C338 1.388 . S
C340 C341 1.366 . S
C341 C340 1.366 . S
C341 C342 1.414 . S
C341 C344 1.499 . S
C342 H322 0.950 . S
C342 C341 1.414 . S
C342 C343 1.374 . S
C343 H323 0.950 . S
C343 C339 1.385 . S
C343 C342 1.374 . S
C344 C341 1.499 . S
C344 C345 1.373 . S
C344 C346 1.389 . S
C345 H324 0.950 . S
C345 C344 1.373 . S
C345 C361 1.377 . S
C346 C344 1.389 . S
C346 C347 1.524 . S
C346 C360 1.377 . S
C347 C346 1.524 . S
C347 C348 1.397 . S
C347 C352 1.363 . S
C348 H325 0.950 . S
C348 C347 1.397 . S
C348 C349 1.334 . S
C349 H326 0.950 . S
C349 C348 1.334 . S
C349 C350 1.287 . S
C350 C349 1.287 . S
C350 C351 1.524 . S
C350 H369 0.913 . S
C351 H327 0.950 . S
C351 C350 1.524 . S
C351 C352 1.415 . S
C352 H328 0.950 . S
C352 C347 1.363 . S
C352 C351 1.415 . S
C353 H329 0.951 . S
C353 C354 1.366 . S
C353 C355 1.388 . S
C354 C353 1.366 . S
C354 C358 1.385 . S
C355 H330 0.951 . S
C355 C353 1.388 . S
C355 C356 1.366 . S
C356 C355 1.366 . S
C356 C357 1.414 . S
C356 C359 1.499 . S
C357 H331 0.950 . S
C357 C356 1.414 . S
C357 C358 1.374 . S
C358 H332 0.950 . S
C358 C354 1.385 . S
C358 C357 1.374 . S
C359 C356 1.499 . S
C359 C360 1.373 . S
C359 C361 1.389 . S
C360 H333 0.950 . S
C360 C346 1.377 . S
C360 C359 1.373 . S
C361 C345 1.377 . S
C361 C359 1.389 . S
C361 C362 1.524 . S
C362 C361 1.524 . S
C362 C363 1.397 . S
C362 C367 1.363 . S
C363 H334 0.950 . S
C363 C362 1.397 . S
C363 C364 1.334 . S
C364 H335 0.950 . S
C364 C363 1.334 . S
C364 C365 1.287 . S
C365 C364 1.287 . S
C365 C366 1.524 . S
C365 H368 0.999 1_554 S
C366 H336 0.950 . S
C366 C365 1.524 . S
C366 C367 1.415 . S
C367 H337 0.950 . S
C367 C362 1.363 . S
C367 C366 1.415 . S
H368 C365 0.999 1_556 S
H369 C350 0.913 . S
H370 C388 0.951 . S
H371 C390 0.951 . S
H372 C392 0.950 . S
H373 C393 0.950 . S
H374 C395 0.950 . S
H375 C398 0.950 . S
H376 C399 0.950 . S
H377 C401 0.950 . S
H378 C402 0.950 . S
H379 C403 0.951 . S
H380 C405 0.951 . S
H381 C407 0.950 . S
H382 C408 0.950 . S
H383 C410 0.950 . S
H384 C413 0.950 . S
H385 C414 0.950 . S
H386 C416 0.950 . S
H387 C417 0.950 . S
C388 H370 0.951 . S
C388 C389 1.366 . S
C388 C390 1.388 . S
C389 C388 1.366 . S
C389 C393 1.385 . S
C390 H371 0.951 . S
C390 C388 1.388 . S
C390 C391 1.366 . S
C391 C390 1.366 . S
C391 C392 1.414 . S
C391 C394 1.499 . S
C392 H372 0.950 . S
C392 C391 1.414 . S
C392 C393 1.374 . S
C393 H373 0.950 . S
C393 C389 1.385 . S
C393 C392 1.374 . S
C394 C391 1.499 . S
C394 C395 1.373 . S
C394 C396 1.389 . S
C395 H374 0.950 . S
C395 C394 1.373 . S
C395 C411 1.377 . S
C396 C394 1.389 . S
C396 C397 1.524 . S
C396 C410 1.377 . S
C397 C396 1.524 . S
C397 C398 1.397 . S
C397 C402 1.363 . S
C398 H375 0.950 . S
C398 C397 1.397 . S
C398 C399 1.334 . S
C399 H376 0.950 . S
C399 C398 1.334 . S
C399 C400 1.287 . S
C400 C399 1.287 . S
C400 C401 1.524 . S
C400 H419 0.913 . S
C401 H377 0.950 . S
C401 C400 1.524 . S
C401 C402 1.415 . S
C402 H378 0.950 . S
C402 C397 1.363 . S
C402 C401 1.415 . S
C403 H379 0.951 . S
C403 C404 1.366 . S
C403 C405 1.388 . S
C404 C403 1.366 . S
C404 C408 1.385 . S
C405 H380 0.951 . S
C405 C403 1.388 . S
C405 C406 1.366 . S
C406 C405 1.366 . S
C406 C407 1.414 . S
C406 C409 1.499 . S
C407 H381 0.950 . S
C407 C406 1.414 . S
C407 C408 1.374 . S
C408 H382 0.950 . S
C408 C404 1.385 . S
C408 C407 1.374 . S
C409 C406 1.499 . S
C409 C410 1.373 . S
C409 C411 1.389 . S
C410 H383 0.950 . S
C410 C396 1.377 . S
C410 C409 1.373 . S
C411 C395 1.377 . S
C411 C409 1.389 . S
C411 C412 1.524 . S
C412 C411 1.524 . S
C412 C413 1.397 . S
C412 C417 1.363 . S
C413 H384 0.950 . S
C413 C412 1.397 . S
C413 C414 1.334 . S
C414 H385 0.950 . S
C414 C413 1.334 . S
C414 C415 1.287 . S
C415 C414 1.287 . S
C415 C416 1.524 . S
C415 H418 0.999 . S
C416 H386 0.950 . S
C416 C415 1.524 . S
C416 C417 1.415 . S
C417 H387 0.950 . S
C417 C412 1.363 . S
C417 C416 1.415 . S
H418 C415 0.999 . S
H419 C400 0.913 . S
H420 C438 0.951 . S
H421 C440 0.951 . S
H422 C442 0.950 . S
H423 C443 0.950 . S
H424 C445 0.950 . S
H425 C448 0.950 . S
H426 C449 0.950 . S
H427 C451 0.950 . S
H428 C452 0.950 . S
H429 C453 0.951 . S
H430 C455 0.951 . S
H431 C457 0.950 . S
H432 C458 0.950 . S
H433 C460 0.950 . S
H434 C463 0.950 . S
H435 C464 0.950 . S
H436 C466 0.950 . S
H437 C467 0.950 . S
C438 H420 0.951 . S
C438 C439 1.366 1_556 S
C438 C440 1.388 . S
C439 C438 1.366 1_554 S
C439 C443 1.385 1_654 S
C440 H421 0.951 . S
C440 C438 1.388 . S
C440 C441 1.357 1_655 S
C441 C440 1.357 1_455 S
C441 C442 1.422 . S
C441 C444 1.499 . S
C442 H422 0.950 . S
C442 C441 1.422 . S
C442 C443 1.374 . S
C443 H423 0.950 . S
C443 C439 1.385 1_456 S
C443 C442 1.374 . S
C444 C441 1.499 . S
C444 C445 1.373 . S
C444 C446 1.389 1_455 S
C445 H424 0.950 . S
C445 C444 1.373 . S
C445 C461 1.377 . S
C446 C444 1.389 1_655 S
C446 C447 1.524 . S
C446 C460 1.377 . S
C447 C446 1.524 . S
C447 C448 1.397 1_655 S
C447 C452 1.363 . S
C448 H425 0.950 . S
C448 C447 1.397 1_455 S
C448 C449 1.334 . S
C449 H426 0.950 . S
C449 C448 1.334 . S
C449 C450 1.287 . S
C450 C449 1.287 . S
C450 C451 1.524 1_455 S
C450 H469 0.913 . S
C451 H427 0.950 . S
C451 C450 1.524 1_655 S
C451 C452 1.415 . S
C452 H428 0.950 . S
C452 C447 1.363 . S
C452 C451 1.415 . S
C453 H429 0.951 . S
C453 C454 1.366 . S
C453 C455 1.388 . S
C454 C453 1.366 . S
C454 C458 1.385 1_455 S
C455 H430 0.951 . S
C455 C453 1.388 . S
C455 C456 1.366 . S
C456 C455 1.366 . S
C456 C457 1.414 1_455 S
C456 C459 1.499 1_455 S
C457 H431 0.950 . S
C457 C456 1.414 1_655 S
C457 C458 1.374 . S
C458 H432 0.950 . S
C458 C454 1.385 1_655 S
C458 C457 1.374 . S
C459 C456 1.499 1_655 S
C459 C460 1.374 . S
C459 C461 1.389 1_655 S
C460 H433 0.950 . S
C460 C446 1.377 . S
C460 C459 1.374 . S
C461 C445 1.377 . S
C461 C459 1.389 1_455 S
C461 C462 1.524 . S
C462 C461 1.524 . S
C462 C463 1.397 1_455 S
C462 C467 1.363 . S
C463 H434 0.950 . S
C463 C462 1.397 1_655 S
C463 C464 1.334 . S
C464 H435 0.950 . S
C464 C463 1.334 . S
C464 C465 1.291 . S
C465 C464 1.291 . S
C465 C466 1.512 1_655 S
C465 H468 1.006 . S
C466 H436 0.950 . S
C466 C465 1.512 1_455 S
C466 C467 1.415 . S
C467 H437 0.950 . S
C467 C462 1.363 . S
C467 C466 1.415 . S
H468 C465 1.006 . S
H469 C450 0.913 . S
H470 C488 0.951 . S
H471 C490 0.951 . S
H472 C492 0.950 . S
H473 C493 0.950 . S
H474 C495 0.964 . S
H475 C498 0.950 . S
H476 C499 0.950 . S
H477 C501 0.950 . S
H478 C502 0.950 . S
H479 C503 0.951 . S
H480 C505 0.951 . S
H481 C507 0.950 . S
H482 C508 0.950 . S
H483 C510 0.950 . S
H484 C513 0.950 . S
H485 C514 0.950 . S
H486 C516 0.950 . S
H487 C517 0.950 . S
C488 H470 0.951 . S
C488 C489 1.366 . S
C488 C490 1.388 . S
C489 C488 1.366 . S
C489 C493 1.385 1_545 S
C490 H471 0.951 . S
C490 C488 1.388 . S
C490 C491 1.366 . S
C491 C490 1.366 . S
C491 C492 1.414 1_545 S
C491 C494 1.498 1_545 S
C492 H472 0.950 . S
C492 C491 1.414 1_565 S
C492 C493 1.374 . S
C493 H473 0.950 . S
C493 C489 1.385 1_565 S
C493 C492 1.374 . S
C494 C491 1.498 1_565 S
C494 C495 1.366 . S
C494 C496 1.365 1_565 S
C495 H474 0.964 . S
C495 C494 1.366 . S
C495 C511 1.377 1_564 S
C496 C494 1.365 1_545 S
C496 C497 1.543 1_545 S
C496 C510 1.378 1_554 S
C497 C496 1.543 1_565 S
C497 C498 1.397 . S
C497 C502 1.363 1_565 S
C498 H475 0.950 . S
C498 C497 1.397 . S
C498 C499 1.334 . S
C499 H476 0.950 . S
C499 C498 1.334 . S
C499 C500 1.287 . S
C500 C499 1.287 . S
C500 C501 1.524 1_565 S
C500 H519 0.913 . S
C501 H477 0.950 . S
C501 C500 1.524 1_545 S
C501 C502 1.415 . S
C502 H478 0.950 . S
C502 C497 1.363 1_545 S
C502 C501 1.415 . S
C503 H479 0.951 . S
C503 C504 1.366 . S
C503 C505 1.388 . S
C504 C503 1.366 . S
C504 C508 1.385 1_565 S
C505 H480 0.951 . S
C505 C503 1.388 . S
C505 C506 1.350 1_565 S
C506 C505 1.350 1_545 S
C506 C507 1.429 . S
C506 C509 1.500 . S
C507 H481 0.950 . S
C507 C506 1.429 . S
C507 C508 1.374 . S
C508 H482 0.950 . S
C508 C504 1.385 1_545 S
C508 C507 1.374 . S
C509 C506 1.500 . S
C509 C510 1.373 . S
C509 C511 1.404 . S
C510 H483 0.950 . S
C510 C496 1.378 1_556 S
C510 C509 1.373 . S
C511 C495 1.377 1_546 S
C511 C509 1.404 . S
C511 C512 1.512 . S
C512 C511 1.512 . S
C512 C513 1.397 . S
C512 C517 1.363 1_545 S
C513 H484 0.950 . S
C513 C512 1.397 . S
C513 C514 1.334 . S
C514 H485 0.950 . S
C514 C513 1.334 . S
C514 C515 1.287 . S
C515 C514 1.287 . S
C515 C516 1.524 1_545 S
C515 H518 0.999 . S
C516 H486 0.950 . S
C516 C515 1.524 1_565 S
C516 C517 1.415 . S
C517 H487 0.950 . S
C517 C512 1.363 1_565 S
C517 C516 1.415 . S
H518 C515 0.999 . S
H519 C500 0.913 . S
H520 C538 0.951 . S
H521 C540 0.951 . S
H522 C542 0.950 . S
H523 C543 0.950 . S
H524 C545 0.950 . S
H525 C548 0.950 . S
H526 C549 0.950 . S
H527 C551 0.950 . S
H528 C552 0.950 . S
H529 C553 0.951 . S
H530 C555 0.951 . S
H531 C557 0.950 . S
H532 C558 0.950 . S
H533 C560 0.950 . S
H534 C563 0.950 . S
H535 C564 0.950 . S
H536 C566 0.950 . S
H537 C567 0.950 . S
C538 H520 0.951 . S
C538 C539 1.366 . S
C538 C540 1.388 . S
C539 C538 1.366 . S
C539 C543 1.385 . S
C540 H521 0.951 . S
C540 C538 1.388 . S
C540 C541 1.366 . S
C541 C540 1.366 . S
C541 C542 1.414 . S
C541 C544 1.499 . S
C542 H522 0.950 . S
C542 C541 1.414 . S
C542 C543 1.374 . S
C543 H523 0.950 . S
C543 C539 1.385 . S
C543 C542 1.374 . S
C544 C541 1.499 . S
C544 C545 1.373 . S
C544 C546 1.389 . S
C545 H524 0.950 . S
C545 C544 1.373 . S
C545 C561 1.377 . S
C546 C544 1.389 . S
C546 C547 1.524 . S
C546 C560 1.377 . S
C547 C546 1.524 . S
C547 C548 1.397 . S
C547 C552 1.363 . S
C548 H525 0.950 . S
C548 C547 1.397 . S
C548 C549 1.334 . S
C549 H526 0.950 . S
C549 C548 1.334 . S
C549 C550 1.287 . S
C550 C549 1.287 . S
C550 C551 1.524 . S
C550 H569 0.913 . S
C551 H527 0.950 . S
C551 C550 1.524 . S
C551 C552 1.415 . S
C552 H528 0.950 . S
C552 C547 1.363 . S
C552 C551 1.415 . S
C553 H529 0.951 . S
C553 C554 1.366 1_554 S
C553 C555 1.388 . S
C554 C553 1.366 1_556 S
C554 C558 1.385 1_556 S
C555 H530 0.951 . S
C555 C553 1.388 . S
C555 C556 1.366 . S
C556 C555 1.366 . S
C556 C557 1.414 . S
C556 C559 1.499 . S
C557 H531 0.950 . S
C557 C556 1.414 . S
C557 C558 1.374 . S
C558 H532 0.950 . S
C558 C554 1.385 1_554 S
C558 C557 1.374 . S
C559 C556 1.499 . S
C559 C560 1.373 . S
C559 C561 1.389 . S
C560 H533 0.950 . S
C560 C546 1.377 . S
C560 C559 1.373 . S
C561 C545 1.377 . S
C561 C559 1.389 . S
C561 C562 1.524 . S
C562 C561 1.524 . S
C562 C563 1.397 . S
C562 C567 1.363 . S
C563 H534 0.950 . S
C563 C562 1.397 . S
C563 C564 1.334 . S
C564 H535 0.950 . S
C564 C563 1.334 . S
C564 C565 1.287 . S
C565 C564 1.287 . S
C565 C566 1.524 . S
C565 H568 0.999 . S
C566 H536 0.950 . S
C566 C565 1.524 . S
C566 C567 1.415 . S
C567 H537 0.950 . S
C567 C562 1.363 . S
C567 C566 1.415 . S
H568 C565 0.999 . S
H569 C550 0.913 . S
C139 C10 1.981 . S
C154 C86 2.034 . S
C189 C59 2.280 . S
C204 C15 2.225 . S
C239 C46 2.034 . S
C254 C90 1.981 . S
C289 C95 2.226 . S
C304 C19 2.280 . S
C339 C50 1.980 . S
C354 C6 2.033 . S
C389 C99 2.280 . S
C404 C55 2.226 . S
C439 C9 0.421 1_655 S
C454 C18 0.420 . S
C489 C49 0.424 1_545 S
C504 C58 0.421 1_565 S
C539 C89 0.424 . S
C554 C98 0.424 . S
