# Generated by pormake.
# Topology rho, (4)-cn, num edge types: 1
# Building blocks:
#     Node 0, Type 0, BuildingBlock: NAHDIM_clean_sbu_0, # of connection points: 4
#     Node 1, Type 0, BuildingBlock: NAHDIM_clean_sbu_0, # of connection points: 4
#     Node 2, Type 0, BuildingBlock: NAHDIM_clean_sbu_0, # of connection points: 4
#     Node 3, Type 0, BuildingBlock: NAHDIM_clean_sbu_0, # of connection points: 4
#     Node 4, Type 0, BuildingBlock: NAHDIM_clean_sbu_0, # of connection points: 4
#     Node 5, Type 0, BuildingBlock: NAHDIM_clean_sbu_0, # of connection points: 4
#     Node 6, Type 0, BuildingBlock: NAHDIM_clean_sbu_0, # of connection points: 4
#     Node 7, Type 0, BuildingBlock: NAHDIM_clean_sbu_0, # of connection points: 4
#     Node 8, Type 0, BuildingBlock: NAHDIM_clean_sbu_0, # of connection points: 4
#     Node 9, Type 0, BuildingBlock: NAHDIM_clean_sbu_0, # of connection points: 4
#     Node 10, Type 0, BuildingBlock: NAHDIM_clean_sbu_0, # of connection points: 4
#     Node 11, Type 0, BuildingBlock: NAHDIM_clean_sbu_0, # of connection points: 4
#     Node 12, Type 0, BuildingBlock: NAHDIM_clean_sbu_0, # of connection points: 4
#     Node 13, Type 0, BuildingBlock: NAHDIM_clean_sbu_0, # of connection points: 4
#     Node 14, Type 0, BuildingBlock: NAHDIM_clean_sbu_0, # of connection points: 4
#     Node 15, Type 0, BuildingBlock: NAHDIM_clean_sbu_0, # of connection points: 4
#     Node 16, Type 0, BuildingBlock: NAHDIM_clean_sbu_0, # of connection points: 4
#     Node 17, Type 0, BuildingBlock: NAHDIM_clean_sbu_0, # of connection points: 4
#     Node 18, Type 0, BuildingBlock: NAHDIM_clean_sbu_0, # of connection points: 4
#     Node 19, Type 0, BuildingBlock: NAHDIM_clean_sbu_0, # of connection points: 4
#     Node 20, Type 0, BuildingBlock: NAHDIM_clean_sbu_0, # of connection points: 4
#     Node 21, Type 0, BuildingBlock: NAHDIM_clean_sbu_0, # of connection points: 4
#     Node 22, Type 0, BuildingBlock: NAHDIM_clean_sbu_0, # of connection points: 4
#     Node 23, Type 0, BuildingBlock: NAHDIM_clean_sbu_0, # of connection points: 4
#     Node 24, Type 0, BuildingBlock: NAHDIM_clean_sbu_0, # of connection points: 4
#     Node 25, Type 0, BuildingBlock: NAHDIM_clean_sbu_0, # of connection points: 4
#     Node 26, Type 0, BuildingBlock: NAHDIM_clean_sbu_0, # of connection points: 4
#     Node 27, Type 0, BuildingBlock: NAHDIM_clean_sbu_0, # of connection points: 4
#     Node 28, Type 0, BuildingBlock: NAHDIM_clean_sbu_0, # of connection points: 4
#     Node 29, Type 0, BuildingBlock: NAHDIM_clean_sbu_0, # of connection points: 4
#     Node 30, Type 0, BuildingBlock: NAHDIM_clean_sbu_0, # of connection points: 4
#     Node 31, Type 0, BuildingBlock: NAHDIM_clean_sbu_0, # of connection points: 4
#     Node 32, Type 0, BuildingBlock: NAHDIM_clean_sbu_0, # of connection points: 4
#     Node 33, Type 0, BuildingBlock: NAHDIM_clean_sbu_0, # of connection points: 4
#     Node 34, Type 0, BuildingBlock: NAHDIM_clean_sbu_0, # of connection points: 4
#     Node 35, Type 0, BuildingBlock: NAHDIM_clean_sbu_0, # of connection points: 4
#     Node 36, Type 0, BuildingBlock: NAHDIM_clean_sbu_0, # of connection points: 4
#     Node 37, Type 0, BuildingBlock: NAHDIM_clean_sbu_0, # of connection points: 4
#     Node 38, Type 0, BuildingBlock: NAHDIM_clean_sbu_0, # of connection points: 4
#     Node 39, Type 0, BuildingBlock: NAHDIM_clean_sbu_0, # of connection points: 4
#     Node 40, Type 0, BuildingBlock: NAHDIM_clean_sbu_0, # of connection points: 4
#     Node 41, Type 0, BuildingBlock: NAHDIM_clean_sbu_0, # of connection points: 4
#     Node 42, Type 0, BuildingBlock: NAHDIM_clean_sbu_0, # of connection points: 4
#     Node 43, Type 0, BuildingBlock: NAHDIM_clean_sbu_0, # of connection points: 4
#     Node 44, Type 0, BuildingBlock: NAHDIM_clean_sbu_0, # of connection points: 4
#     Node 45, Type 0, BuildingBlock: NAHDIM_clean_sbu_0, # of connection points: 4
#     Node 46, Type 0, BuildingBlock: NAHDIM_clean_sbu_0, # of connection points: 4
#     Node 47, Type 0, BuildingBlock: NAHDIM_clean_sbu_0, # of connection points: 4
#     Edge 48, Type (0, 0), BuildingBlock: AJUNOK_clean_linker_0, # of connection points: 2
#     Edge 49, Type (0, 0), BuildingBlock: AJUNOK_clean_linker_0, # of connection points: 2
#     Edge 50, Type (0, 0), BuildingBlock: AJUNOK_clean_linker_0, # of connection points: 2
#     Edge 51, Type (0, 0), BuildingBlock: AJUNOK_clean_linker_0, # of connection points: 2
#     Edge 52, Type (0, 0), BuildingBlock: AJUNOK_clean_linker_0, # of connection points: 2
#     Edge 53, Type (0, 0), BuildingBlock: AJUNOK_clean_linker_0, # of connection points: 2
#     Edge 54, Type (0, 0), BuildingBlock: AJUNOK_clean_linker_0, # of connection points: 2
#     Edge 55, Type (0, 0), BuildingBlock: AJUNOK_clean_linker_0, # of connection points: 2
#     Edge 56, Type (0, 0), BuildingBlock: AJUNOK_clean_linker_0, # of connection points: 2
#     Edge 57, Type (0, 0), BuildingBlock: AJUNOK_clean_linker_0, # of connection points: 2
#     Edge 58, Type (0, 0), BuildingBlock: AJUNOK_clean_linker_0, # of connection points: 2
#     Edge 59, Type (0, 0), BuildingBlock: AJUNOK_clean_linker_0, # of connection points: 2
#     Edge 60, Type (0, 0), BuildingBlock: AJUNOK_clean_linker_0, # of connection points: 2
#     Edge 61, Type (0, 0), BuildingBlock: AJUNOK_clean_linker_0, # of connection points: 2
#     Edge 62, Type (0, 0), BuildingBlock: AJUNOK_clean_linker_0, # of connection points: 2
#     Edge 63, Type (0, 0), BuildingBlock: AJUNOK_clean_linker_0, # of connection points: 2
#     Edge 64, Type (0, 0), BuildingBlock: AJUNOK_clean_linker_0, # of connection points: 2
#     Edge 65, Type (0, 0), BuildingBlock: AJUNOK_clean_linker_0, # of connection points: 2
#     Edge 66, Type (0, 0), BuildingBlock: AJUNOK_clean_linker_0, # of connection points: 2
#     Edge 67, Type (0, 0), BuildingBlock: AJUNOK_clean_linker_0, # of connection points: 2
#     Edge 68, Type (0, 0), BuildingBlock: AJUNOK_clean_linker_0, # of connection points: 2
#     Edge 69, Type (0, 0), BuildingBlock: AJUNOK_clean_linker_0, # of connection points: 2
#     Edge 70, Type (0, 0), BuildingBlock: AJUNOK_clean_linker_0, # of connection points: 2
#     Edge 71, Type (0, 0), BuildingBlock: AJUNOK_clean_linker_0, # of connection points: 2
#     Edge 72, Type (0, 0), BuildingBlock: AJUNOK_clean_linker_0, # of connection points: 2
#     Edge 73, Type (0, 0), BuildingBlock: AJUNOK_clean_linker_0, # of connection points: 2
#     Edge 74, Type (0, 0), BuildingBlock: AJUNOK_clean_linker_0, # of connection points: 2
#     Edge 75, Type (0, 0), BuildingBlock: AJUNOK_clean_linker_0, # of connection points: 2
#     Edge 76, Type (0, 0), BuildingBlock: AJUNOK_clean_linker_0, # of connection points: 2
#     Edge 77, Type (0, 0), BuildingBlock: AJUNOK_clean_linker_0, # of connection points: 2
#     Edge 78, Type (0, 0), BuildingBlock: AJUNOK_clean_linker_0, # of connection points: 2
#     Edge 79, Type (0, 0), BuildingBlock: AJUNOK_clean_linker_0, # of connection points: 2
#     Edge 80, Type (0, 0), BuildingBlock: AJUNOK_clean_linker_0, # of connection points: 2
#     Edge 81, Type (0, 0), BuildingBlock: AJUNOK_clean_linker_0, # of connection points: 2
#     Edge 82, Type (0, 0), BuildingBlock: AJUNOK_clean_linker_0, # of connection points: 2
#     Edge 83, Type (0, 0), BuildingBlock: AJUNOK_clean_linker_0, # of connection points: 2
#     Edge 84, Type (0, 0), BuildingBlock: AJUNOK_clean_linker_0, # of connection points: 2
#     Edge 85, Type (0, 0), BuildingBlock: AJUNOK_clean_linker_0, # of connection points: 2
#     Edge 86, Type (0, 0), BuildingBlock: AJUNOK_clean_linker_0, # of connection points: 2
#     Edge 87, Type (0, 0), BuildingBlock: AJUNOK_clean_linker_0, # of connection points: 2
#     Edge 88, Type (0, 0), BuildingBlock: AJUNOK_clean_linker_0, # of connection points: 2
#     Edge 89, Type (0, 0), BuildingBlock: AJUNOK_clean_linker_0, # of connection points: 2
#     Edge 90, Type (0, 0), BuildingBlock: AJUNOK_clean_linker_0, # of connection points: 2
#     Edge 91, Type (0, 0), BuildingBlock: AJUNOK_clean_linker_0, # of connection points: 2
#     Edge 92, Type (0, 0), BuildingBlock: AJUNOK_clean_linker_0, # of connection points: 2
#     Edge 93, Type (0, 0), BuildingBlock: AJUNOK_clean_linker_0, # of connection points: 2
#     Edge 94, Type (0, 0), BuildingBlock: AJUNOK_clean_linker_0, # of connection points: 2
#     Edge 95, Type (0, 0), BuildingBlock: AJUNOK_clean_linker_0, # of connection points: 2
#     Edge 96, Type (0, 0), BuildingBlock: AJUNOK_clean_linker_0, # of connection points: 2
#     Edge 97, Type (0, 0), BuildingBlock: AJUNOK_clean_linker_0, # of connection points: 2
#     Edge 98, Type (0, 0), BuildingBlock: AJUNOK_clean_linker_0, # of connection points: 2
#     Edge 99, Type (0, 0), BuildingBlock: AJUNOK_clean_linker_0, # of connection points: 2
#     Edge 100, Type (0, 0), BuildingBlock: AJUNOK_clean_linker_0, # of connection points: 2
#     Edge 101, Type (0, 0), BuildingBlock: AJUNOK_clean_linker_0, # of connection points: 2
#     Edge 102, Type (0, 0), BuildingBlock: AJUNOK_clean_linker_0, # of connection points: 2
#     Edge 103, Type (0, 0), BuildingBlock: AJUNOK_clean_linker_0, # of connection points: 2
#     Edge 104, Type (0, 0), BuildingBlock: AJUNOK_clean_linker_0, # of connection points: 2
#     Edge 105, Type (0, 0), BuildingBlock: AJUNOK_clean_linker_0, # of connection points: 2
#     Edge 106, Type (0, 0), BuildingBlock: AJUNOK_clean_linker_0, # of connection points: 2
#     Edge 107, Type (0, 0), BuildingBlock: AJUNOK_clean_linker_0, # of connection points: 2
#     Edge 108, Type (0, 0), BuildingBlock: AJUNOK_clean_linker_0, # of connection points: 2
#     Edge 109, Type (0, 0), BuildingBlock: AJUNOK_clean_linker_0, # of connection points: 2
#     Edge 110, Type (0, 0), BuildingBlock: AJUNOK_clean_linker_0, # of connection points: 2
#     Edge 111, Type (0, 0), BuildingBlock: AJUNOK_clean_linker_0, # of connection points: 2
#     Edge 112, Type (0, 0), BuildingBlock: AJUNOK_clean_linker_0, # of connection points: 2
#     Edge 113, Type (0, 0), BuildingBlock: AJUNOK_clean_linker_0, # of connection points: 2
#     Edge 114, Type (0, 0), BuildingBlock: AJUNOK_clean_linker_0, # of connection points: 2
#     Edge 115, Type (0, 0), BuildingBlock: AJUNOK_clean_linker_0, # of connection points: 2
#     Edge 116, Type (0, 0), BuildingBlock: AJUNOK_clean_linker_0, # of connection points: 2
#     Edge 117, Type (0, 0), BuildingBlock: AJUNOK_clean_linker_0, # of connection points: 2
#     Edge 118, Type (0, 0), BuildingBlock: AJUNOK_clean_linker_0, # of connection points: 2
#     Edge 119, Type (0, 0), BuildingBlock: AJUNOK_clean_linker_0, # of connection points: 2
#     Edge 120, Type (0, 0), BuildingBlock: AJUNOK_clean_linker_0, # of connection points: 2
#     Edge 121, Type (0, 0), BuildingBlock: AJUNOK_clean_linker_0, # of connection points: 2
#     Edge 122, Type (0, 0), BuildingBlock: AJUNOK_clean_linker_0, # of connection points: 2
#     Edge 123, Type (0, 0), BuildingBlock: AJUNOK_clean_linker_0, # of connection points: 2
#     Edge 124, Type (0, 0), BuildingBlock: AJUNOK_clean_linker_0, # of connection points: 2
#     Edge 125, Type (0, 0), BuildingBlock: AJUNOK_clean_linker_0, # of connection points: 2
#     Edge 126, Type (0, 0), BuildingBlock: AJUNOK_clean_linker_0, # of connection points: 2
#     Edge 127, Type (0, 0), BuildingBlock: AJUNOK_clean_linker_0, # of connection points: 2
#     Edge 128, Type (0, 0), BuildingBlock: AJUNOK_clean_linker_0, # of connection points: 2
#     Edge 129, Type (0, 0), BuildingBlock: AJUNOK_clean_linker_0, # of connection points: 2
#     Edge 130, Type (0, 0), BuildingBlock: AJUNOK_clean_linker_0, # of connection points: 2
#     Edge 131, Type (0, 0), BuildingBlock: AJUNOK_clean_linker_0, # of connection points: 2
#     Edge 132, Type (0, 0), BuildingBlock: AJUNOK_clean_linker_0, # of connection points: 2
#     Edge 133, Type (0, 0), BuildingBlock: AJUNOK_clean_linker_0, # of connection points: 2
#     Edge 134, Type (0, 0), BuildingBlock: AJUNOK_clean_linker_0, # of connection points: 2
#     Edge 135, Type (0, 0), BuildingBlock: AJUNOK_clean_linker_0, # of connection points: 2
#     Edge 136, Type (0, 0), BuildingBlock: AJUNOK_clean_linker_0, # of connection points: 2
#     Edge 137, Type (0, 0), BuildingBlock: AJUNOK_clean_linker_0, # of connection points: 2
#     Edge 138, Type (0, 0), BuildingBlock: AJUNOK_clean_linker_0, # of connection points: 2
#     Edge 139, Type (0, 0), BuildingBlock: AJUNOK_clean_linker_0, # of connection points: 2
#     Edge 140, Type (0, 0), BuildingBlock: AJUNOK_clean_linker_0, # of connection points: 2
#     Edge 141, Type (0, 0), BuildingBlock: AJUNOK_clean_linker_0, # of connection points: 2
#     Edge 142, Type (0, 0), BuildingBlock: AJUNOK_clean_linker_0, # of connection points: 2
#     Edge 143, Type (0, 0), BuildingBlock: AJUNOK_clean_linker_0, # of connection points: 2
# Relax obj value: 0.179
# Max RMSD: 0.215
# Mean RMSD: 0.203
data_MOF--net-rho--node1-NAHDIM_clean_sbu_0--edge1-AJUNOK_clean_linker_0
_symmetry_space_group_name_H-M    P1
_symmetry_Int_Tables_number       1
_symmetry_cell_setting            triclinic
loop_
_symmetry_equiv_pos_as_xyz
'x, y, z'
_cell_length_a     52.559466
_cell_length_b     52.801556
_cell_length_c     52.682113
_cell_angle_alpha  90.428178
_cell_angle_beta   90.644865
_cell_angle_gamma 92.04363
loop_
_atom_site_label
_atom_site_type_symbol
_atom_site_fract_x
_atom_site_fract_y
_atom_site_fract_z
_atom_type_partial_charge
C0 C 0.14513 0.23024 0.38824 0.0
O1 O 0.15399 0.25331 0.39343 0.0
O2 O 0.10426 0.28259 0.36807 0.0
Zn3 Zn 0.09889 0.25525 0.39383 0.0
O4 O 0.10707 0.26787 0.42897 0.0
C5 C 0.04593 0.24944 0.3774 0.0
O6 O 0.05334 0.26371 0.35835 0.0
O7 O 0.12121 0.22625 0.38665 0.0
C8 C 0.09224 0.28249 0.44038 0.0
O9 O 0.07229 0.29069 0.42809 0.0
C10 C 0.11696 0.30319 0.37204 0.0
O11 O 0.12791 0.30726 0.39429 0.0
O12 O 0.06224 0.24314 0.39393 0.0
C13 C 0.7125 0.11539 0.35419 0.0
O14 O 0.73063 0.13278 0.35091 0.0
O15 O 0.77677 0.11516 0.37398 0.0
Zn16 Zn 0.74928 0.09174 0.38728 0.0
O17 O 0.75731 0.05521 0.38212 0.0
C18 C 0.75983 0.11159 0.43808 0.0
O19 O 0.77963 0.12269 0.42727 0.0
O20 O 0.71644 0.09698 0.3689 0.0
C21 C 0.7665 0.04212 0.39993 0.0
O22 O 0.77288 0.05336 0.42151 0.0
C23 C 0.8 0.10953 0.37263 0.0
O24 O 0.80668 0.08676 0.37931 0.0
O25 O 0.74433 0.09814 0.42456 0.0
C26 C 0.85684 0.78728 0.3786 0.0
O27 O 0.86165 0.77442 0.35787 0.0
O28 O 0.88659 0.72836 0.37434 0.0
Zn29 Zn 0.89127 0.75294 0.40323 0.0
O30 O 0.88411 0.73691 0.43683 0.0
C31 C 0.94168 0.76598 0.38506 0.0
O32 O 0.93197 0.75829 0.36312 0.0
O33 O 0.86769 0.78149 0.3993 0.0
C34 C 0.90057 0.72373 0.44792 0.0
O35 O 0.92167 0.7188 0.43599 0.0
C36 C 0.875 0.70688 0.3752 0.0
O37 O 0.86478 0.69933 0.39661 0.0
O38 O 0.92751 0.76609 0.4044 0.0
C39 C 0.2811 0.87007 0.35198 0.0
O40 O 0.26893 0.84901 0.35855 0.0
O41 O 0.21408 0.86817 0.36688 0.0
Zn42 Zn 0.23984 0.89537 0.37721 0.0
O43 O 0.22803 0.93044 0.36996 0.0
C44 C 0.22981 0.88294 0.42908 0.0
O45 O 0.20832 0.87419 0.41884 0.0
O46 O 0.27214 0.89122 0.35824 0.0
C47 C 0.214 0.9423 0.38515 0.0
O48 O 0.20519 0.9306 0.4053 0.0
C49 C 0.19202 0.8719 0.35787 0.0
O50 O 0.18549 0.89517 0.35308 0.0
O51 O 0.24674 0.89273 0.41478 0.0
C52 C 0.10176 0.73441 0.65283 0.0
O53 O 0.09294 0.75563 0.66177 0.0
O54 O 0.12199 0.79292 0.6178 0.0
Zn55 Zn 0.09829 0.76333 0.60868 0.0
O56 O 0.06216 0.77127 0.61679 0.0
C57 C 0.10895 0.77301 0.55643 0.0
O58 O 0.11456 0.79557 0.56602 0.0
O59 O 0.10646 0.73284 0.62928 0.0
C60 C 0.04689 0.78223 0.60201 0.0
O61 O 0.05493 0.78999 0.57977 0.0
C62 C 0.14242 0.79146 0.63075 0.0
O63 O 0.14833 0.76958 0.64047 0.0
O64 O 0.10131 0.75549 0.57124 0.0
C65 C 0.20405 0.13503 0.623 0.0
O66 O 0.21535 0.12737 0.64379 0.0
O67 O 0.26773 0.11343 0.62482 0.0
Zn68 Zn 0.24185 0.1057 0.59728 0.0
O69 O 0.25561 0.1116 0.56229 0.0
C70 C 0.24137 0.05358 0.61345 0.0
O71 O 0.25944 0.06229 0.62893 0.0
O72 O 0.21206 0.12774 0.60158 0.0
C73 C 0.26825 0.09481 0.55114 0.0
O74 O 0.27423 0.07442 0.56372 0.0
C75 C 0.29122 0.11867 0.62166 0.0
O76 O 0.29998 0.12075 0.59848 0.0
O77 O 0.23039 0.06893 0.59886 0.0
C78 C 0.87071 0.26736 0.64009 0.0
O79 O 0.87408 0.24489 0.64985 0.0
O80 O 0.86383 0.20981 0.60851 0.0
Zn81 Zn 0.8855 0.23966 0.59773 0.0
O82 O 0.92219 0.2353 0.60706 0.0
C83 C 0.8624 0.23439 0.54806 0.0
O84 O 0.84432 0.22279 0.56103 0.0
O85 O 0.87415 0.27032 0.61645 0.0
C86 C 0.9378 0.22523 0.59215 0.0
O87 O 0.92955 0.21656 0.56999 0.0
C88 C 0.87143 0.18827 0.61518 0.0
O89 O 0.89593 0.18423 0.61586 0.0
O90 O 0.88173 0.2439 0.55989 0.0
C91 C 0.75504 0.83705 0.60962 0.0
O92 O 0.73149 0.82909 0.60489 0.0
O93 O 0.70587 0.88323 0.63068 0.0
Zn94 Zn 0.73189 0.88422 0.60311 0.0
O95 O 0.71652 0.87478 0.56923 0.0
C96 C 0.74532 0.93623 0.61708 0.0
O97 O 0.73638 0.92953 0.63932 0.0
O98 O 0.76005 0.86074 0.61053 0.0
C99 C 0.7017 0.88982 0.55826 0.0
O100 O 0.695 0.91027 0.57051 0.0
C101 C 0.68458 0.87114 0.62912 0.0
O102 O 0.67902 0.85778 0.60854 0.0
O103 O 0.74596 0.91975 0.59947 0.0
C104 C 0.35006 0.10673 0.28097 0.0
O105 O 0.34104 0.09998 0.25848 0.0
O106 O 0.38764 0.13034 0.22624 0.0
Zn107 Zn 0.39491 0.10444 0.2528 0.0
O108 O 0.38666 0.06942 0.23956 0.0
C109 C 0.44792 0.12154 0.25206 0.0
O110 O 0.43911 0.13974 0.23796 0.0
O111 O 0.37395 0.11033 0.28372 0.0
C112 C 0.40061 0.05984 0.22274 0.0
O113 O 0.41937 0.07378 0.21328 0.0
C114 C 0.37265 0.12646 0.20742 0.0
O115 O 0.36046 0.10441 0.20502 0.0
O116 O 0.43232 0.1053 0.26139 0.0
C117 C 0.84698 0.36085 0.29035 0.0
O118 O 0.82998 0.36167 0.27193 0.0
O119 O 0.86476 0.37853 0.22524 0.0
Zn120 Zn 0.88206 0.39041 0.25742 0.0
O121 O 0.91904 0.38315 0.25591 0.0
C122 C 0.87599 0.44089 0.2407 0.0
O123 O 0.87632 0.42902 0.21871 0.0
O124 O 0.86859 0.372 0.28776 0.0
C125 C 0.93301 0.38683 0.2367 0.0
O126 O 0.92317 0.39649 0.21605 0.0
C127 C 0.85826 0.35629 0.21779 0.0
O128 O 0.862 0.33684 0.2326 0.0
O129 O 0.87812 0.42811 0.26092 0.0
C130 C 0.61599 0.85078 0.21045 0.0
O131 O 0.61187 0.84112 0.23299 0.0
O132 O 0.62841 0.88746 0.26781 0.0
Zn133 Zn 0.60572 0.89518 0.23818 0.0
O134 O 0.56909 0.88707 0.24596 0.0
C135 C 0.63048 0.94448 0.23356 0.0
O136 O 0.65064 0.9321 0.24042 0.0
O137 O 0.61501 0.87462 0.2078 0.0
C138 C 0.55639 0.90214 0.25931 0.0
O139 O 0.56798 0.92252 0.26896 0.0
C140 C 0.62153 0.87487 0.28715 0.0
O141 O 0.59803 0.86565 0.28831 0.0
O142 O 0.60934 0.93232 0.23072 0.0
C143 C 0.13785 0.6097 0.22178 0.0
O144 O 0.14227 0.60882 0.24634 0.0
O145 O 0.09303 0.62434 0.26798 0.0
Zn146 Zn 0.08963 0.59768 0.24071 0.0
O147 O 0.09613 0.56295 0.25384 0.0
C148 C 0.04058 0.61686 0.22813 0.0
O149 O 0.05154 0.63831 0.23593 0.0
O150 O 0.1152 0.60558 0.21371 0.0
C151 C 0.07971 0.55108 0.26718 0.0
O152 O 0.05912 0.56269 0.27392 0.0
C153 C 0.10092 0.62181 0.29066 0.0
O154 O 0.10803 0.59951 0.29834 0.0
O155 O 0.05376 0.59718 0.22715 0.0
C156 C 0.38759 0.83265 0.76195 0.0
O157 O 0.39312 0.82787 0.73818 0.0
O158 O 0.36982 0.87051 0.71069 0.0
Zn159 Zn 0.39096 0.88099 0.74131 0.0
O160 O 0.42835 0.88186 0.73379 0.0
C161 C 0.36321 0.92767 0.74444 0.0
O162 O 0.3469 0.91569 0.72911 0.0
O163 O 0.38504 0.85554 0.76876 0.0
C164 C 0.43935 0.90184 0.72532 0.0
O165 O 0.42558 0.92142 0.71997 0.0
C166 C 0.37712 0.87316 0.68793 0.0
O167 O 0.40005 0.88269 0.68356 0.0
O168 O 0.38229 0.91604 0.75276 0.0
C169 C 0.14006 0.3763 0.77966 0.0
O170 O 0.15213 0.37319 0.75823 0.0
O171 O 0.10985 0.36435 0.7195 0.0
Zn172 Zn 0.10077 0.39057 0.74534 0.0
O173 O 0.11215 0.4257 0.73497 0.0
C174 C 0.04862 0.38063 0.73116 0.0
O175 O 0.05937 0.37359 0.70997 0.0
O176 O 0.11723 0.38337 0.77887 0.0
C177 C 0.10148 0.43779 0.71726 0.0
O178 O 0.08284 0.42659 0.70415 0.0
C179 C 0.12485 0.36769 0.70099 0.0
O180 O 0.13702 0.38967 0.69851 0.0
O181 O 0.06268 0.38898 0.74937 0.0
C182 C 0.62038 0.13677 0.68843 0.0
O183 O 0.62068 0.15537 0.70515 0.0
O184 O 0.59662 0.13828 0.75047 0.0
Zn185 Zn 0.59082 0.10911 0.72624 0.0
O186 O 0.60574 0.07734 0.7395 0.0
C187 C 0.53723 0.11919 0.7255 0.0
O188 O 0.54562 0.14211 0.73187 0.0
O189 O 0.60796 0.11632 0.69321 0.0
C190 C 0.59446 0.0638 0.75603 0.0
O191 O 0.57321 0.07169 0.76578 0.0
C192 C 0.6096 0.13789 0.77092 0.0
O193 O 0.62045 0.1169 0.77764 0.0
O194 O 0.55325 0.10227 0.7212 0.0
C195 C 0.8931 0.63242 0.70882 0.0
O196 O 0.90391 0.64089 0.72999 0.0
O197 O 0.87429 0.5936 0.76545 0.0
Zn198 Zn 0.89672 0.58669 0.73578 0.0
O199 O 0.93345 0.59338 0.74506 0.0
C200 C 0.87352 0.53618 0.73022 0.0
O201 O 0.85393 0.54636 0.7411 0.0
O202 O 0.88765 0.60889 0.70665 0.0
C203 C 0.94516 0.57777 0.75874 0.0
O204 O 0.93259 0.55777 0.76745 0.0
C205 C 0.88112 0.60793 0.78398 0.0
O206 O 0.90393 0.61893 0.78398 0.0
O207 O 0.89308 0.55011 0.72553 0.0
C208 C 0.28905 0.36314 0.1292 0.0
O209 O 0.27369 0.3656 0.14849 0.0
O210 O 0.23072 0.39433 0.13259 0.0
Zn211 Zn 0.25497 0.39724 0.10358 0.0
O212 O 0.23813 0.38741 0.07044 0.0
C213 C 0.26895 0.44822 0.1198 0.0
O214 O 0.26495 0.43876 0.14245 0.0
O215 O 0.28472 0.3751 0.10886 0.0
C216 C 0.22218 0.40179 0.06015 0.0
O217 O 0.21546 0.42211 0.07256 0.0
C218 C 0.20873 0.38361 0.13167 0.0
O219 O 0.2005 0.37309 0.11031 0.0
O220 O 0.26676 0.43363 0.10056 0.0
C221 C 0.21291 0.60138 0.85097 0.0
O222 O 0.23517 0.595 0.84236 0.0
O223 O 0.27097 0.61436 0.8823 0.0
Zn224 Zn 0.24094 0.59351 0.8947 0.0
O225 O 0.24596 0.55674 0.88752 0.0
C226 C 0.24936 0.61632 0.94417 0.0
O227 O 0.26431 0.63178 0.93122 0.0
O228 O 0.20996 0.60282 0.87483 0.0
C229 C 0.25641 0.54208 0.90316 0.0
O230 O 0.26474 0.55126 0.92509 0.0
C231 C 0.29291 0.60581 0.87853 0.0
O232 O 0.29679 0.58174 0.88262 0.0
O233 O 0.2367 0.59885 0.93241 0.0
C234 C 0.34409 0.26121 0.9003 0.0
O235 O 0.33679 0.23727 0.90253 0.0
O236 O 0.38528 0.21321 0.87675 0.0
Zn237 Zn 0.39091 0.23818 0.90522 0.0
O238 O 0.38355 0.22338 0.93934 0.0
C239 C 0.44034 0.25247 0.8854 0.0
O240 O 0.42914 0.24732 0.86346 0.0
O241 O 0.36775 0.26693 0.90039 0.0
C242 C 0.39941 0.20968 0.95069 0.0
O243 O 0.41991 0.20311 0.9386 0.0
C244 C 0.37466 0.19131 0.87826 0.0
O245 O 0.36629 0.18329 0.90029 0.0
O246 O 0.42738 0.2506 0.90555 0.0
C247 C 0.78551 0.36179 0.87141 0.0
O248 O 0.76788 0.344 0.87522 0.0
O249 O 0.72027 0.37386 0.88456 0.0
Zn250 Zn 0.75046 0.39521 0.89629 0.0
O251 O 0.74585 0.43172 0.88751 0.0
C252 C 0.74897 0.3701 0.94425 0.0
O253 O 0.74094 0.35097 0.92985 0.0
O254 O 0.78185 0.38425 0.87894 0.0
C255 C 0.73794 0.44785 0.90331 0.0
O256 O 0.73181 0.44034 0.92622 0.0
C257 C 0.69797 0.3796 0.891 0.0
O258 O 0.69501 0.40046 0.9042 0.0
O259 O 0.7547 0.39119 0.93393 0.0
C260 C 0.6559 0.72451 0.88353 0.0
O261 O 0.66023 0.74911 0.88543 0.0
O262 O 0.60593 0.76755 0.867 0.0
Zn263 Zn 0.60633 0.74057 0.8936 0.0
O264 O 0.6132 0.75528 0.92826 0.0
C265 C 0.557 0.72156 0.87565 0.0
O266 O 0.56574 0.72894 0.85355 0.0
O267 O 0.63323 0.71576 0.88595 0.0
C268 C 0.59668 0.76888 0.93858 0.0
O269 O 0.57643 0.77466 0.92528 0.0
C270 C 0.61514 0.78996 0.86991 0.0
O271 O 0.62623 0.79645 0.89158 0.0
O272 O 0.57158 0.72357 0.89501 0.0
C273 C 0.71067 0.62612 0.1143 0.0
O274 O 0.72237 0.6195 0.13527 0.0
O275 O 0.77581 0.61078 0.1186 0.0
Zn276 Zn 0.75244 0.60214 0.08937 0.0
O277 O 0.76787 0.6118 0.05609 0.0
C278 C 0.74613 0.55123 0.10858 0.0
O279 O 0.75139 0.56242 0.13047 0.0
O280 O 0.72009 0.62047 0.093 0.0
C281 C 0.78486 0.59862 0.04601 0.0
O282 O 0.79348 0.57921 0.05852 0.0
C283 C 0.79541 0.6255 0.11815 0.0
O284 O 0.80199 0.63645 0.09677 0.0
O285 O 0.74497 0.56463 0.0887 0.0
C286 C 0.38682 0.78787 0.13342 0.0
O287 O 0.39191 0.76651 0.14476 0.0
O288 O 0.36872 0.72812 0.10844 0.0
Zn289 Zn 0.39266 0.75444 0.09349 0.0
O290 O 0.42898 0.74724 0.1021 0.0
C291 C 0.37733 0.73563 0.04435 0.0
O292 O 0.36887 0.71676 0.05836 0.0
O293 O 0.38544 0.78801 0.10934 0.0
C294 C 0.44216 0.73247 0.08891 0.0
O295 O 0.43149 0.72068 0.06928 0.0
C296 C 0.37535 0.70739 0.11816 0.0
O297 O 0.39963 0.70244 0.11965 0.0
O298 O 0.38822 0.75475 0.05524 0.0
C299 C 0.64008 0.20779 0.12116 0.0
O300 O 0.6574 0.22626 0.11962 0.0
O301 O 0.62968 0.27152 0.10549 0.0
Zn302 Zn 0.60694 0.24217 0.09462 0.0
O303 O 0.57119 0.24735 0.106 0.0
C304 C 0.62931 0.2387 0.04543 0.0
O305 O 0.65043 0.24094 0.05895 0.0
O306 O 0.61826 0.21054 0.11116 0.0
C307 C 0.55417 0.25639 0.09177 0.0
O308 O 0.56021 0.26339 0.06866 0.0
C309 C 0.62375 0.2942 0.10129 0.0
O310 O 0.60192 0.29845 0.09 0.0
O311 O 0.60811 0.23843 0.05679 0.0
C312 C 0.83904 0.76816 0.60903 0.0
O313 O 0.83531 0.74374 0.60492 0.0
O314 O 0.88902 0.72589 0.62923 0.0
Zn315 Zn 0.88921 0.75284 0.60259 0.0
O316 O 0.88301 0.73794 0.5679 0.0
C317 C 0.9387 0.77052 0.62117 0.0
O318 O 0.93016 0.76141 0.64271 0.0
O319 O 0.86175 0.77729 0.60945 0.0
C320 C 0.89981 0.72492 0.5573 0.0
O321 O 0.92063 0.71998 0.57011 0.0
C322 C 0.87987 0.70348 0.62609 0.0
O323 O 0.86931 0.69702 0.60416 0.0
O324 O 0.9239 0.7701 0.60192 0.0
C325 C 0.29548 0.86556 0.61417 0.0
O326 O 0.27833 0.84685 0.61322 0.0
O327 O 0.2276 0.87574 0.60242 0.0
Zn328 Zn 0.25715 0.89672 0.58941 0.0
O329 O 0.25283 0.93304 0.59878 0.0
C330 C 0.23749 0.88783 0.53932 0.0
O331 O 0.21639 0.88433 0.55216 0.0
O332 O 0.29031 0.88693 0.60493 0.0
C333 C 0.23287 0.9452 0.59432 0.0
O334 O 0.21332 0.93356 0.583 0.0
C335 C 0.22343 0.86803 0.6248 0.0
O336 O 0.24011 0.87321 0.64302 0.0
O337 O 0.25806 0.89335 0.55135 0.0
C338 C 0.12719 0.21163 0.62157 0.0
O339 O 0.11932 0.22332 0.64197 0.0
O340 O 0.10342 0.27479 0.62131 0.0
Zn341 Zn 0.09785 0.24851 0.59406 0.0
O342 O 0.10626 0.2629 0.56006 0.0
C343 C 0.04666 0.23703 0.61174 0.0
O344 O 0.05629 0.2441 0.63391 0.0
O345 O 0.12003 0.21912 0.59986 0.0
C346 C 0.09207 0.27894 0.54973 0.0
O347 O 0.07256 0.28713 0.5624 0.0
C348 C 0.12241 0.29037 0.62162 0.0
O349 O 0.13924 0.2893 0.60344 0.0
O350 O 0.06111 0.23687 0.59259 0.0
C351 C 0.70321 0.12802 0.61876 0.0
O352 O 0.72089 0.146 0.6161 0.0
O353 O 0.76956 0.11702 0.61245 0.0
Zn354 Zn 0.74104 0.09493 0.59816 0.0
O355 O 0.74543 0.05861 0.60761 0.0
C356 C 0.754 0.11405 0.54829 0.0
O357 O 0.76954 0.12946 0.56123 0.0
O358 O 0.70787 0.10547 0.61225 0.0
C359 C 0.7563 0.0432 0.59303 0.0
O360 O 0.76575 0.05152 0.57154 0.0
C361 C 0.79208 0.10961 0.61569 0.0
O362 O 0.79688 0.08577 0.61118 0.0
O363 O 0.74002 0.09806 0.56013 0.0
C364 C 0.85058 0.27947 0.36182 0.0
O365 O 0.83488 0.25957 0.36041 0.0
O366 O 0.86484 0.21563 0.37479 0.0
Zn367 Zn 0.88467 0.24594 0.3886 0.0
O368 O 0.92178 0.24407 0.38023 0.0
C369 C 0.86179 0.23698 0.43745 0.0
O370 O 0.84379 0.22575 0.4235 0.0
O371 O 0.87194 0.27765 0.37307 0.0
C372 C 0.93749 0.23429 0.39546 0.0
O373 O 0.92902 0.22453 0.41675 0.0
C374 C 0.87338 0.19344 0.37448 0.0
O375 O 0.89675 0.19001 0.38246 0.0
O376 O 0.88082 0.24744 0.42653 0.0
C377 C 0.77304 0.85603 0.37998 0.0
O378 O 0.76134 0.86233 0.35891 0.0
O379 O 0.71021 0.88035 0.37559 0.0
Zn380 Zn 0.73393 0.88408 0.40548 0.0
O381 O 0.71742 0.87486 0.43839 0.0
C382 C 0.75281 0.93313 0.38915 0.0
O383 O 0.75157 0.92242 0.36656 0.0
O384 O 0.76424 0.86286 0.4012 0.0
C385 C 0.70246 0.88992 0.44901 0.0
O386 O 0.69611 0.91047 0.43689 0.0
C387 C 0.68871 0.86863 0.37532 0.0
O388 O 0.68055 0.85757 0.3961 0.0
O389 O 0.74617 0.92027 0.40838 0.0
C390 C 0.1007 0.71167 0.35544 0.0
O391 O 0.09358 0.73288 0.34507 0.0
O392 O 0.12343 0.77142 0.38242 0.0
Zn393 Zn 0.09923 0.74477 0.39635 0.0
O394 O 0.06302 0.75317 0.38866 0.0
C395 C 0.11265 0.76209 0.44644 0.0
O396 O 0.11997 0.78217 0.43349 0.0
O397 O 0.10529 0.71153 0.37916 0.0
C398 C 0.05092 0.76935 0.40123 0.0
O399 O 0.06266 0.78203 0.41971 0.0
C400 C 0.11692 0.78953 0.36826 0.0
O401 O 0.093 0.79095 0.36114 0.0
O402 O 0.10359 0.74276 0.43445 0.0
C403 C 0.21633 0.14839 0.38887 0.0
O404 O 0.24078 0.15413 0.3913 0.0
O405 O 0.26122 0.10322 0.36742 0.0
Zn406 Zn 0.23602 0.10024 0.39558 0.0
O407 O 0.25172 0.10746 0.42989 0.0
C408 C 0.2188 0.05151 0.3756 0.0
O409 O 0.22489 0.06192 0.35382 0.0
O410 O 0.20895 0.12526 0.38979 0.0
C411 C 0.26434 0.09096 0.44149 0.0
O412 O 0.26875 0.06949 0.42985 0.0
C413 C 0.28454 0.11016 0.36928 0.0
O414 O 0.29426 0.11617 0.3917 0.0
O415 O 0.22118 0.06469 0.3958 0.0
C416 C 0.60075 0.86053 0.78696 0.0
O417 O 0.59031 0.85173 0.76575 0.0
O418 O 0.61975 0.89848 0.72993 0.0
Zn419 Zn 0.59679 0.90562 0.75922 0.0
O420 O 0.56039 0.89797 0.74925 0.0
C421 C 0.61714 0.9575 0.76171 0.0
O422 O 0.6365 0.94816 0.74968 0.0
O423 O 0.60583 0.88415 0.78896 0.0
C424 C 0.54948 0.91251 0.73376 0.0
O425 O 0.56277 0.93148 0.72392 0.0
C426 C 0.61331 0.88335 0.71192 0.0
O427 O 0.59081 0.87173 0.71234 0.0
O428 O 0.59903 0.94257 0.76847 0.0
C429 C 0.10598 0.64522 0.71662 0.0
O430 O 0.1024 0.64669 0.74122 0.0
O431 O 0.12921 0.59919 0.75837 0.0
Zn432 Zn 0.10206 0.59533 0.73144 0.0
O433 O 0.06709 0.59879 0.74552 0.0
C434 C 0.12165 0.5463 0.71908 0.0
O435 O 0.14199 0.55545 0.73119 0.0
O436 O 0.10719 0.62339 0.70646 0.0
C437 C 0.05535 0.58055 0.75639 0.0
O438 O 0.06724 0.55942 0.76026 0.0
C439 C 0.12615 0.60401 0.78176 0.0
O440 O 0.10304 0.60661 0.79043 0.0
O441 O 0.10301 0.56059 0.71555 0.0
C442 C 0.37295 0.12985 0.78611 0.0
O443 O 0.37948 0.14094 0.76478 0.0
O444 O 0.35543 0.09859 0.726 0.0
Zn445 Zn 0.37941 0.08856 0.75392 0.0
O446 O 0.41523 0.1001 0.74599 0.0
C447 C 0.35802 0.03729 0.75266 0.0
O448 O 0.33752 0.04849 0.74468 0.0
O449 O 0.3705 0.10586 0.78639 0.0
C450 C 0.43062 0.08686 0.73365 0.0
O451 O 0.42301 0.0643 0.72531 0.0
C452 C 0.36269 0.10937 0.7057 0.0
O453 O 0.38706 0.1145 0.70241 0.0
O454 O 0.37789 0.05075 0.75805 0.0
C455 C 0.86133 0.35255 0.79418 0.0
O456 O 0.86074 0.33311 0.77846 0.0
O457 O 0.87466 0.35191 0.72918 0.0
Zn458 Zn 0.88708 0.37944 0.75319 0.0
O459 O 0.87561 0.41372 0.74261 0.0
C460 C 0.93799 0.37243 0.73626 0.0
O461 O 0.92551 0.36379 0.71608 0.0
O462 O 0.87227 0.37324 0.7875 0.0
C463 C 0.88803 0.42794 0.72747 0.0
O464 O 0.90857 0.41942 0.71685 0.0
C465 C 0.86761 0.35505 0.70633 0.0
O466 O 0.86741 0.37807 0.69708 0.0
O467 O 0.92545 0.38007 0.75516 0.0
C468 C 0.64008 0.13036 0.19758 0.0
O469 O 0.65764 0.12859 0.21535 0.0
O470 O 0.63053 0.1143 0.26153 0.0
Zn471 Zn 0.6074 0.1029 0.23295 0.0
O472 O 0.57162 0.11288 0.23993 0.0
C473 C 0.63042 0.05472 0.23021 0.0
O474 O 0.65115 0.06909 0.23336 0.0
O475 O 0.61816 0.12014 0.201 0.0
C476 C 0.55519 0.09829 0.25037 0.0
O477 O 0.56179 0.07563 0.25749 0.0
C478 C 0.62779 0.10451 0.2833 0.0
O479 O 0.60904 0.08782 0.28671 0.0
O480 O 0.60904 0.06518 0.22892 0.0
C481 C 0.87733 0.64474 0.28367 0.0
O482 O 0.8847 0.65556 0.26247 0.0
O483 O 0.85781 0.61272 0.2243 0.0
Zn484 Zn 0.88206 0.60264 0.25178 0.0
O485 O 0.91813 0.61224 0.24275 0.0
C486 C 0.87099 0.55076 0.23848 0.0
O487 O 0.86423 0.56134 0.21706 0.0
O488 O 0.8741 0.62082 0.284 0.0
C489 C 0.93111 0.59952 0.22734 0.0
O490 O 0.9206 0.5793 0.2163 0.0
C491 C 0.86385 0.62614 0.20524 0.0
O492 O 0.88736 0.63515 0.20323 0.0
O493 O 0.87907 0.56486 0.25671 0.0
C494 C 0.36537 0.87474 0.28156 0.0
O495 O 0.37318 0.85499 0.26893 0.0
O496 O 0.3909 0.87628 0.21955 0.0
Zn497 Zn 0.39585 0.90388 0.24563 0.0
O498 O 0.38731 0.938 0.23231 0.0
C499 C 0.44646 0.8868 0.25637 0.0
O500 O 0.4364 0.86466 0.24939 0.0
O501 O 0.37322 0.89678 0.27515 0.0
C502 C 0.40291 0.95071 0.21878 0.0
O503 O 0.424 0.9402 0.21166 0.0
C504 C 0.38431 0.87869 0.19645 0.0
O505 O 0.3796 0.90129 0.18772 0.0
O506 O 0.43246 0.90589 0.25685 0.0
C507 C 0.14028 0.39184 0.2172 0.0
O508 O 0.14836 0.39898 0.23991 0.0
O509 O 0.10325 0.37188 0.27145 0.0
Zn510 Zn 0.09406 0.395 0.243 0.0
O511 O 0.09858 0.43157 0.25325 0.0
C512 C 0.04218 0.37742 0.24856 0.0
O513 O 0.05159 0.36838 0.26968 0.0
O514 O 0.1165 0.38846 0.2134 0.0
C515 C 0.08349 0.4415 0.26883 0.0
O516 O 0.06585 0.42702 0.27945 0.0
C517 C 0.11469 0.37842 0.29196 0.0
O518 O 0.1224 0.40215 0.29528 0.0
O519 O 0.0571 0.38901 0.23338 0.0
C520 C 0.73852 0.65411 0.88207 0.0
O521 O 0.76236 0.66196 0.88514 0.0
O522 O 0.78782 0.60822 0.86427 0.0
Zn523 Zn 0.76116 0.60707 0.89122 0.0
O524 O 0.77549 0.61653 0.92549 0.0
C525 C 0.74914 0.55452 0.87769 0.0
O526 O 0.75941 0.56073 0.85588 0.0
O527 O 0.73313 0.63051 0.88317 0.0
C528 C 0.78985 0.60137 0.93692 0.0
O529 O 0.79707 0.58108 0.92474 0.0
C530 C 0.80945 0.61959 0.86651 0.0
O531 O 0.8151 0.63217 0.88754 0.0
O532 O 0.74714 0.57147 0.89468 0.0
C533 C 0.78781 0.358 0.13368 0.0
O534 O 0.76942 0.34066 0.13081 0.0
O535 O 0.72456 0.36863 0.11407 0.0
Zn536 Zn 0.75491 0.38998 0.10393 0.0
O537 O 0.74977 0.42678 0.11167 0.0
C538 C 0.75201 0.36592 0.05457 0.0
O539 O 0.74167 0.34708 0.06744 0.0
O540 O 0.78557 0.37952 0.12343 0.0
C541 C 0.74199 0.44173 0.09471 0.0
O542 O 0.73625 0.43259 0.07202 0.0
C543 C 0.70223 0.37384 0.10692 0.0
O544 O 0.69892 0.39469 0.09403 0.0
O545 O 0.76006 0.38571 0.06646 0.0
C546 C 0.63137 0.69958 0.11645 0.0
O547 O 0.62481 0.71031 0.13787 0.0
O548 O 0.61115 0.7633 0.1221 0.0
Zn549 Zn 0.60349 0.73979 0.09267 0.0
O550 O 0.61141 0.75566 0.05908 0.0
C551 C 0.55105 0.73454 0.10934 0.0
O552 O 0.55995 0.74558 0.1302 0.0
O553 O 0.62418 0.70896 0.09556 0.0
C554 C 0.59529 0.76938 0.04814 0.0
O555 O 0.57463 0.77516 0.0604 0.0
C556 C 0.61745 0.78665 0.1204 0.0
O557 O 0.61973 0.79688 0.09785 0.0
O558 O 0.56634 0.72965 0.09163 0.0
C559 C 0.22183 0.61414 0.15101 0.0
O560 O 0.24533 0.61266 0.1595 0.0
O561 O 0.27584 0.63179 0.11637 0.0
Zn562 Zn 0.24865 0.6057 0.10668 0.0
O563 O 0.25917 0.5706 0.11535 0.0
C564 C 0.25702 0.61883 0.0545 0.0
O565 O 0.27788 0.62932 0.06449 0.0
O566 O 0.21769 0.61209 0.12727 0.0
C567 C 0.2702 0.55616 0.0999 0.0
O568 O 0.27602 0.56465 0.07725 0.0
C569 C 0.2981 0.62698 0.12411 0.0
O570 O 0.3044 0.60328 0.1267 0.0
O571 O 0.24107 0.60773 0.06902 0.0
C572 C 0.36233 0.28333 0.1291 0.0
O573 O 0.36451 0.26841 0.14879 0.0
O574 O 0.38801 0.22137 0.1307 0.0
Zn575 Zn 0.39396 0.24702 0.10339 0.0
O576 O 0.38519 0.23197 0.06929 0.0
C577 C 0.44719 0.25113 0.11887 0.0
O578 O 0.43916 0.23921 0.13921 0.0
O579 O 0.37325 0.2777 0.10854 0.0
C580 C 0.39898 0.21494 0.06014 0.0
O581 O 0.4174 0.2062 0.07428 0.0
C582 C 0.37111 0.20361 0.12915 0.0
O583 O 0.35612 0.20214 0.10903 0.0
O584 O 0.43108 0.25711 0.102 0.0
C585 C 0.26622 0.33677 0.901 0.0
O586 O 0.24219 0.32895 0.90072 0.0
O587 O 0.21817 0.375 0.87691 0.0
Zn588 Zn 0.24181 0.38268 0.90629 0.0
O589 O 0.22598 0.3767 0.94033 0.0
C590 C 0.25096 0.43319 0.88633 0.0
O591 O 0.24185 0.42301 0.86514 0.0
O592 O 0.27145 0.36033 0.90327 0.0
C593 C 0.21421 0.39438 0.95108 0.0
O594 O 0.20996 0.41505 0.93822 0.0
C595 C 0.19424 0.37742 0.87645 0.0
O596 O 0.18282 0.385 0.89705 0.0
O597 O 0.25355 0.41922 0.90563 0.0
C598 C 0.60734 0.22358 0.84067 0.0
O599 O 0.59946 0.24578 0.83351 0.0
O600 O 0.62419 0.27895 0.8796 0.0
Zn601 Zn 0.60179 0.24846 0.88696 0.0
O602 O 0.56493 0.25523 0.88032 0.0
C603 C 0.62766 0.24197 0.93499 0.0
O604 O 0.64775 0.24935 0.92202 0.0
O605 O 0.61085 0.21977 0.8642 0.0
C606 C 0.55022 0.26178 0.89797 0.0
O607 O 0.5597 0.26552 0.92093 0.0
C608 C 0.61796 0.30113 0.88587 0.0
O609 O 0.59572 0.30421 0.89633 0.0
O610 O 0.60628 0.23944 0.92361 0.0
C611 C 0.39103 0.75319 0.8376 0.0
O612 O 0.39561 0.72976 0.83103 0.0
O613 O 0.37246 0.70136 0.87362 0.0
Zn614 Zn 0.3974 0.7294 0.88365 0.0
O615 O 0.43346 0.72008 0.87704 0.0
C616 C 0.38215 0.72163 0.93498 0.0
O617 O 0.37531 0.69949 0.92515 0.0
O618 O 0.39048 0.75877 0.86109 0.0
C619 C 0.44853 0.71146 0.8936 0.0
O620 O 0.44016 0.70715 0.91663 0.0
C621 C 0.37751 0.67822 0.87057 0.0
O622 O 0.4011 0.67122 0.87344 0.0
O623 O 0.39266 0.73825 0.92079 0.0
C624 C 0.10722 0.33471 0.30852 0.0
C625 C 0.11731 0.3595 0.31242 0.0
C626 C 0.10767 0.31669 0.32777 0.0
C627 C 0.1183 0.32256 0.35181 0.0
H628 H 0.09842 0.32915 0.29054 0.0
H629 H 0.09927 0.29804 0.32373 0.0
S630 S 0.14849 0.38437 0.37158 0.0
N631 N 0.13919 0.38876 0.34195 0.0
N632 N 0.14009 0.35475 0.37823 0.0
C633 C 0.12911 0.34707 0.35586 0.0
C634 C 0.1286 0.36555 0.33617 0.0
C635 C 0.68872 0.12893 0.31562 0.0
C636 C 0.68909 0.11513 0.33832 0.0
C637 C 0.66829 0.12614 0.29843 0.0
C638 C 0.64736 0.10956 0.30334 0.0
H639 H 0.70481 0.14114 0.31048 0.0
H640 H 0.6694 0.13647 0.28076 0.0
S641 S 0.63745 0.07197 0.36195 0.0
N642 N 0.66558 0.08636 0.36614 0.0
N643 N 0.62712 0.08119 0.33392 0.0
C644 C 0.64676 0.09689 0.32675 0.0
C645 C 0.66764 0.09965 0.34421 0.0
C646 C 0.88212 0.70081 0.32888 0.0
C647 C 0.87382 0.69063 0.35212 0.0
C648 C 0.88256 0.68593 0.30687 0.0
C649 C 0.87486 0.66016 0.30708 0.0
H650 H 0.8886 0.72046 0.32763 0.0
H651 H 0.8895 0.69471 0.28964 0.0
S652 S 0.85028 0.62446 0.36271 0.0
N653 N 0.85677 0.65332 0.37382 0.0
N654 N 0.85767 0.62524 0.33234 0.0
C655 C 0.86593 0.64979 0.33003 0.0
C656 C 0.86538 0.66505 0.35254 0.0
C657 C 0.33783 0.89381 0.31425 0.0
C658 C 0.34567 0.87203 0.3014 0.0
C659 C 0.31752 0.8927 0.3311 0.0
C660 C 0.3041 0.86974 0.33595 0.0
H661 H 0.34702 0.91214 0.31085 0.0
H662 H 0.312 0.91021 0.33998 0.0
S663 S 0.31834 0.80671 0.30896 0.0
N664 N 0.33946 0.82638 0.29596 0.0
N665 N 0.30117 0.82429 0.32778 0.0
C666 C 0.31241 0.84754 0.32416 0.0
C667 C 0.3332 0.84868 0.30687 0.0
C668 C 0.1086 0.66653 0.67436 0.0
C669 C 0.10679 0.66844 0.70094 0.0
C670 C 0.10766 0.68804 0.659 0.0
C671 C 0.10474 0.7123 0.66959 0.0
H672 H 0.11029 0.64823 0.66523 0.0
H673 H 0.10858 0.68548 0.63862 0.0
S674 S 0.10129 0.72799 0.73827 0.0
N675 N 0.10356 0.69691 0.73729 0.0
N676 N 0.10168 0.7372 0.70841 0.0
C677 C 0.10373 0.71461 0.69617 0.0
C678 C 0.10479 0.69274 0.71184 0.0
C679 C 0.3354 0.12097 0.64 0.0
C680 C 0.30894 0.11915 0.6438 0.0
C681 C 0.35263 0.11863 0.66027 0.0
C682 C 0.3441 0.11423 0.68513 0.0
H683 H 0.34297 0.1235 0.62112 0.0
H684 H 0.3728 0.11944 0.65621 0.0
S685 S 0.27678 0.11092 0.70585 0.0
N686 N 0.27505 0.11493 0.67486 0.0
N687 N 0.30744 0.11036 0.71281 0.0
C688 C 0.31771 0.11353 0.68942 0.0
C689 C 0.30015 0.11605 0.66882 0.0
C690 C 0.86795 0.31413 0.64701 0.0
C691 C 0.86605 0.28939 0.65678 0.0
C692 C 0.86699 0.33539 0.66301 0.0
C693 C 0.86416 0.33269 0.68938 0.0
H694 H 0.87123 0.31719 0.62699 0.0
H695 H 0.86971 0.35399 0.65474 0.0
S696 S 0.85423 0.27221 0.72399 0.0
N697 N 0.85817 0.26355 0.69417 0.0
N698 N 0.85644 0.30346 0.72416 0.0
C699 C 0.86055 0.30813 0.69916 0.0
C700 C 0.86147 0.28649 0.68289 0.0
C701 C 0.67216 0.88896 0.67105 0.0
C702 C 0.66608 0.87315 0.65006 0.0
C703 C 0.65504 0.89197 0.69088 0.0
C704 C 0.63104 0.87927 0.69066 0.0
H705 H 0.69028 0.89937 0.6722 0.0
H706 H 0.66073 0.90451 0.70645 0.0
S707 S 0.60586 0.83517 0.64035 0.0
N708 N 0.63439 0.84427 0.63042 0.0
N709 N 0.60216 0.84989 0.66774 0.0
C710 C 0.62472 0.86317 0.66991 0.0
C711 C 0.64223 0.86012 0.64962 0.0
C712 C 0.34305 0.11299 0.32754 0.0
C713 C 0.33285 0.10883 0.30297 0.0
C714 C 0.3273 0.11381 0.34881 0.0
C715 C 0.3007 0.11049 0.34637 0.0
H716 H 0.36344 0.11525 0.33051 0.0
H717 H 0.33613 0.11666 0.36733 0.0
S718 S 0.26421 0.10076 0.28601 0.0
N719 N 0.29428 0.10259 0.27733 0.0
N720 N 0.26473 0.10413 0.31716 0.0
C721 C 0.29018 0.10694 0.32182 0.0
C722 C 0.30623 0.10612 0.30018 0.0
C723 C 0.82887 0.30106 0.32588 0.0
C724 C 0.84564 0.30246 0.34691 0.0
C725 C 0.82783 0.32101 0.30849 0.0
C726 C 0.84354 0.34298 0.3116 0.0
H727 H 0.81765 0.28386 0.32188 0.0
H728 H 0.81595 0.31843 0.29167 0.0
S729 S 0.88648 0.35818 0.36642 0.0
N730 N 0.87516 0.32922 0.372 0.0
N731 N 0.87322 0.36662 0.33937 0.0
C732 C 0.85855 0.34553 0.33379 0.0
C733 C 0.85961 0.32529 0.35144 0.0
C734 C 0.64683 0.86026 0.35309 0.0
C735 C 0.67246 0.86882 0.35212 0.0
C736 C 0.63066 0.86178 0.33185 0.0
C737 C 0.63947 0.87191 0.30878 0.0
H738 H 0.63897 0.8528 0.37054 0.0
H739 H 0.61096 0.85542 0.33376 0.0
S740 S 0.70561 0.89496 0.29558 0.0
N741 N 0.70633 0.88635 0.32561 0.0
N742 N 0.67602 0.88921 0.28582 0.0
C743 C 0.66529 0.87978 0.3073 0.0
C744 C 0.68175 0.87824 0.32891 0.0
C745 C 0.09533 0.66791 0.29826 0.0
C746 C 0.10189 0.64419 0.30789 0.0
C747 C 0.0954 0.68947 0.31376 0.0
C748 C 0.10197 0.68838 0.33966 0.0
H749 H 0.08992 0.66996 0.2785 0.0
H750 H 0.08998 0.70713 0.30525 0.0
S751 S 0.12125 0.63104 0.37438 0.0
N752 N 0.11562 0.62094 0.34505 0.0
N753 N 0.11571 0.66163 0.3743 0.0
C754 C 0.10888 0.66487 0.34961 0.0
C755 C 0.10885 0.64278 0.33372 0.0
C756 C 0.33713 0.85214 0.67091 0.0
C757 C 0.35871 0.86813 0.6669 0.0
C758 C 0.31747 0.84984 0.65277 0.0
C759 C 0.31852 0.86382 0.6302 0.0
H760 H 0.33499 0.84196 0.68858 0.0
H761 H 0.30069 0.83828 0.6572 0.0
S762 S 0.37199 0.90602 0.60918 0.0
N763 N 0.38099 0.89622 0.63747 0.0
N764 N 0.34375 0.89227 0.60364 0.0
C765 C 0.34059 0.87869 0.62527 0.0
C766 C 0.3608 0.88073 0.64355 0.0
C767 C 0.1091 0.32654 0.68209 0.0
C768 C 0.12624 0.34761 0.68126 0.0
C769 C 0.10837 0.30809 0.66293 0.0
C770 C 0.12485 0.30973 0.64212 0.0
H771 H 0.09563 0.32445 0.69741 0.0
H772 H 0.0945 0.29251 0.66442 0.0
S773 S 0.17448 0.36028 0.63155 0.0
N774 N 0.16095 0.3685 0.65837 0.0
N775 N 0.15966 0.33364 0.6223 0.0
C776 C 0.14266 0.33028 0.64134 0.0
C777 C 0.14332 0.34925 0.66089 0.0
C778 C 0.67899 0.15329 0.65 0.0
C779 C 0.67961 0.1329 0.63271 0.0
C780 C 0.65874 0.15548 0.66688 0.0
C781 C 0.63841 0.13738 0.66701 0.0
H782 H 0.69492 0.16682 0.65159 0.0
H783 H 0.65986 0.17062 0.68087 0.0
S784 S 0.62851 0.08359 0.62174 0.0
N785 N 0.65637 0.09658 0.61405 0.0
N786 N 0.61828 0.10073 0.64562 0.0
C787 C 0.63773 0.11826 0.64823 0.0
C788 C 0.65836 0.116 0.63113 0.0
C789 C 0.89334 0.69267 0.67017 0.0
C790 C 0.88197 0.68491 0.64694 0.0
C791 C 0.89648 0.67563 0.69005 0.0
C792 C 0.88845 0.65003 0.68759 0.0
H793 H 0.90012 0.7121 0.67309 0.0
H794 H 0.90558 0.68265 0.70739 0.0
S795 S 0.85675 0.62006 0.63098 0.0
N796 N 0.86202 0.6499 0.62283 0.0
N797 N 0.86797 0.6178 0.66023 0.0
C798 C 0.87668 0.642 0.66461 0.0
C799 C 0.87344 0.65944 0.6443 0.0
C800 C 0.31047 0.32694 0.14991 0.0
C801 C 0.30964 0.34468 0.13013 0.0
C802 C 0.32813 0.30765 0.14988 0.0
C803 C 0.34563 0.30535 0.13005 0.0
H804 H 0.29687 0.3274 0.16519 0.0
H805 H 0.32746 0.29401 0.16512 0.0
S806 S 0.35356 0.34892 0.07544 0.0
N807 N 0.32949 0.36008 0.09138 0.0
N808 N 0.36259 0.3239 0.09131 0.0
C809 C 0.34583 0.3237 0.11079 0.0
C810 C 0.32788 0.34334 0.11084 0.0
C811 C 0.3602 0.63374 0.87486 0.0
C812 C 0.3563 0.6591 0.86833 0.0
C813 C 0.33965 0.61624 0.87695 0.0
C814 C 0.31448 0.62348 0.87259 0.0
H815 H 0.37909 0.62758 0.87961 0.0
H816 H 0.3435 0.59723 0.88314 0.0
S817 S 0.29452 0.68649 0.85062 0.0
N818 N 0.32568 0.68973 0.85433 0.0
N819 N 0.28713 0.65691 0.8583 0.0
C820 C 0.31051 0.64832 0.86431 0.0
C821 C 0.3314 0.6661 0.86215 0.0
C822 C 0.28014 0.29212 0.89947 0.0
C823 C 0.28665 0.31819 0.89964 0.0
C824 C 0.29886 0.27396 0.89925 0.0
C825 C 0.32491 0.28107 0.89914 0.0
H826 H 0.26039 0.28554 0.89985 0.0
H827 H 0.29274 0.25416 0.89946 0.0
S828 S 0.35216 0.34695 0.89827 0.0
N829 N 0.32107 0.35029 0.89878 0.0
N830 N 0.35629 0.31612 0.89834 0.0
C831 C 0.33175 0.3071 0.89875 0.0
C832 C 0.31263 0.32565 0.89902 0.0
C833 C 0.66187 0.31778 0.87643 0.0
C834 C 0.63696 0.32249 0.8843 0.0
C835 C 0.68115 0.3367 0.87762 0.0
C836 C 0.67638 0.36116 0.88677 0.0
H837 H 0.66684 0.29906 0.87006 0.0
H838 H 0.70016 0.33173 0.87217 0.0
S839 S 0.61368 0.38434 0.90655 0.0
N840 N 0.608 0.3542 0.89924 0.0
N841 N 0.64431 0.38981 0.9015 0.0
C842 C 0.65126 0.36659 0.89336 0.0
C843 C 0.63155 0.34727 0.89212 0.0
C844 C 0.69229 0.66376 0.88111 0.0
C845 C 0.71788 0.67245 0.87997 0.0
C846 C 0.6724 0.6807 0.88152 0.0
C847 C 0.67724 0.70707 0.88078 0.0
H848 H 0.68749 0.6437 0.88236 0.0
H849 H 0.65311 0.67299 0.88304 0.0
S850 S 0.74078 0.7396 0.8752 0.0
N851 N 0.74689 0.70919 0.87628 0.0
N852 N 0.70954 0.74103 0.87702 0.0
C853 C 0.70269 0.71602 0.87858 0.0
C854 C 0.72298 0.69873 0.87818 0.0
C855 C 0.6636 0.67331 0.13828 0.0
C856 C 0.64921 0.6785 0.11637 0.0
C857 C 0.68279 0.65555 0.13776 0.0
C858 C 0.68828 0.64233 0.1153 0.0
H859 H 0.66075 0.68373 0.15576 0.0
H860 H 0.69401 0.65292 0.15485 0.0
S861 S 0.65346 0.64613 0.05379 0.0
N862 N 0.63987 0.6669 0.07234 0.0
N863 N 0.67587 0.6336 0.07135 0.0
C864 C 0.67301 0.64625 0.09367 0.0
C865 C 0.6535 0.6643 0.0942 0.0
C866 C 0.36233 0.66198 0.12513 0.0
C867 C 0.3557 0.68753 0.12387 0.0
C868 C 0.3436 0.64248 0.12652 0.0
C869 C 0.31757 0.64783 0.12671 0.0
H870 H 0.38204 0.65685 0.12383 0.0
H871 H 0.34959 0.62307 0.12626 0.0
S872 S 0.29045 0.71182 0.12827 0.0
N873 N 0.32147 0.71728 0.12616 0.0
N874 N 0.28631 0.6807 0.1288 0.0
C875 C 0.31079 0.67338 0.12728 0.0
C876 C 0.32984 0.69321 0.12585 0.0
C877 C 0.65776 0.35844 0.09677 0.0
C878 C 0.68112 0.35467 0.10924 0.0
C879 C 0.63882 0.33914 0.09531 0.0
C880 C 0.64251 0.3153 0.10622 0.0
H881 H 0.65437 0.37607 0.08713 0.0
H882 H 0.6216 0.34268 0.08463 0.0
S883 S 0.69871 0.29694 0.14433 0.0
N884 N 0.70572 0.32616 0.13519 0.0
N885 N 0.67016 0.28991 0.13237 0.0
C886 C 0.66511 0.31179 0.12015 0.0
C887 C 0.68439 0.33148 0.1217 0.0
C888 C 0.59799 0.81739 0.80592 0.0
C889 C 0.60556 0.84312 0.80832 0.0
C890 C 0.60143 0.80047 0.82584 0.0
C891 C 0.61264 0.80847 0.84906 0.0
H892 H 0.58907 0.81017 0.78857 0.0
H893 H 0.59502 0.78092 0.82294 0.0
S894 S 0.63653 0.87379 0.86495 0.0
N895 N 0.62534 0.87578 0.83566 0.0
N896 N 0.63183 0.8439 0.87315 0.0
C897 C 0.62067 0.8341 0.85167 0.0
C898 C 0.61712 0.85142 0.83131 0.0
C899 C 0.16611 0.60414 0.84232 0.0
C900 C 0.19119 0.60445 0.83321 0.0
C901 C 0.14517 0.60465 0.82561 0.0
C902 C 0.14853 0.60547 0.79916 0.0
H903 H 0.16252 0.60277 0.86248 0.0
H904 H 0.12622 0.6037 0.8335 0.0
S905 S 0.21043 0.60958 0.76576 0.0
N906 N 0.21824 0.60777 0.7961 0.0
N907 N 0.17903 0.60872 0.76477 0.0
C908 C 0.17356 0.60687 0.78987 0.0
C909 C 0.19484 0.60636 0.80686 0.0
C910 C 0.37792 0.17107 0.80928 0.0
C911 C 0.37117 0.14507 0.80976 0.0
C912 C 0.37855 0.18576 0.83145 0.0
C913 C 0.37234 0.17518 0.85513 0.0
H914 H 0.38333 0.18019 0.7917 0.0
H915 H 0.38427 0.20561 0.82994 0.0
S916 S 0.35187 0.10826 0.86663 0.0
N917 N 0.35702 0.10947 0.8358 0.0
N918 N 0.35814 0.13721 0.87758 0.0
C919 C 0.36478 0.14935 0.85586 0.0
C920 C 0.36423 0.13428 0.83317 0.0
C921 C 0.82518 0.33407 0.81926 0.0
C922 C 0.84531 0.35221 0.81711 0.0
C923 C 0.80665 0.33637 0.83799 0.0
C924 C 0.80761 0.3569 0.85519 0.0
H925 H 0.82281 0.31879 0.8055 0.0
H926 H 0.79072 0.32278 0.838 0.0
S927 S 0.8593 0.40646 0.8609 0.0
N928 N 0.86721 0.38913 0.8362 0.0
N929 N 0.83241 0.39347 0.87133 0.0
C930 C 0.82883 0.37389 0.85462 0.0
C931 C 0.84769 0.37153 0.8356 0.0
C932 C 0.62548 0.16571 0.1375 0.0
C933 C 0.64395 0.18566 0.1377 0.0
C934 C 0.62546 0.14696 0.15603 0.0
C935 C 0.64393 0.1473 0.17557 0.0
H936 H 0.61011 0.16515 0.1236 0.0
H937 H 0.61009 0.13272 0.15565 0.0
S938 S 0.69894 0.19306 0.18232 0.0
N939 N 0.68309 0.20291 0.15725 0.0
N940 N 0.68308 0.16751 0.1922 0.0
C941 C 0.66381 0.16587 0.17478 0.0
C942 C 0.66381 0.18509 0.15582 0.0
C943 C 0.85369 0.63741 0.16027 0.0
C944 C 0.84533 0.62887 0.18412 0.0
C945 C 0.83717 0.63721 0.13918 0.0
C946 C 0.8117 0.62842 0.14116 0.0
H947 H 0.87338 0.64345 0.15757 0.0
H948 H 0.84472 0.6431 0.12102 0.0
S949 S 0.77938 0.60746 0.20013 0.0
N950 N 0.80913 0.61387 0.20902 0.0
N951 N 0.77819 0.61347 0.16946 0.0
C952 C 0.80273 0.62117 0.1652 0.0
C953 C 0.8195 0.6214 0.18665 0.0
C954 C 0.38729 0.8102 0.17522 0.0
C955 C 0.38437 0.81134 0.1487 0.0
C956 C 0.38672 0.832 0.19035 0.0
C957 C 0.38315 0.85598 0.17967 0.0
H958 H 0.39046 0.79234 0.18453 0.0
H959 H 0.38944 0.82994 0.21064 0.0
S960 S 0.37315 0.86928 0.11123 0.0
N961 N 0.37672 0.83836 0.11236 0.0
N962 N 0.37562 0.87948 0.14089 0.0
C963 C 0.37949 0.85741 0.15321 0.0
C964 C 0.38011 0.83508 0.13771 0.0
C965 C 0.16585 0.37837 0.15148 0.0
C966 C 0.19202 0.38443 0.15412 0.0
C967 C 0.14937 0.38052 0.17204 0.0
C968 C 0.15841 0.38868 0.19612 0.0
H969 H 0.15785 0.37242 0.13327 0.0
H970 H 0.12931 0.376 0.16889 0.0
S971 S 0.22571 0.40527 0.21347 0.0
N972 N 0.22648 0.39781 0.18303 0.0
N973 N 0.19558 0.40179 0.22162 0.0
C974 C 0.18469 0.39414 0.19919 0.0
C975 C 0.20146 0.39204 0.17822 0.0
C976 C 0.82165 0.60311 0.82398 0.0
C977 C 0.82814 0.6177 0.84573 0.0
C978 C 0.83887 0.60023 0.80423 0.0
C979 C 0.86338 0.61184 0.80526 0.0
H980 H 0.80311 0.59359 0.82215 0.0
H981 H 0.83282 0.58867 0.78804 0.0
S982 S 0.88985 0.65242 0.85781 0.0
N983 N 0.86082 0.6442 0.86701 0.0
N984 N 0.89323 0.6388 0.8298 0.0
C985 C 0.87014 0.62668 0.82679 0.0
C986 C 0.85253 0.62961 0.84701 0.0
C987 C 0.38655 0.81776 0.80694 0.0
C988 C 0.3864 0.81198 0.78082 0.0
C989 C 0.38744 0.79862 0.82518 0.0
C990 C 0.38818 0.77293 0.81801 0.0
H991 H 0.38662 0.83728 0.81344 0.0
H992 H 0.38813 0.80411 0.84503 0.0
S993 S 0.38557 0.74753 0.75202 0.0
N994 N 0.38523 0.77856 0.74871 0.0
N995 N 0.38688 0.74263 0.78289 0.0
C996 C 0.38707 0.76682 0.79194 0.0
C997 C 0.38619 0.78632 0.77338 0.0
C998 C 0.15482 0.38242 0.85018 0.0
C999 C 0.17998 0.37437 0.8521 0.0
C1000 C 0.14181 0.3822 0.82682 0.0
C1001 C 0.15344 0.37395 0.80442 0.0
H1002 H 0.14527 0.38968 0.86668 0.0
H1003 H 0.12272 0.38928 0.82629 0.0
S1004 S 0.21805 0.34817 0.79964 0.0
N1005 N 0.21531 0.35584 0.82988 0.0
N1006 N 0.19088 0.35552 0.78605 0.0
C1007 C 0.17818 0.36475 0.80626 0.0
C1008 C 0.19143 0.36493 0.83006 0.0
C1009 C 0.61836 0.15817 0.81333 0.0
C1010 C 0.61095 0.1605 0.78775 0.0
C1011 C 0.61777 0.17882 0.83014 0.0
C1012 C 0.60989 0.20268 0.82199 0.0
H1013 H 0.62399 0.14007 0.82068 0.0
H1014 H 0.62306 0.17587 0.8498 0.0
S1015 S 0.5909 0.21935 0.75621 0.0
N1016 N 0.59714 0.18899 0.75462 0.0
N1017 N 0.59611 0.22778 0.78609 0.0
C1018 C 0.60341 0.20552 0.79619 0.0
C1019 C 0.6039 0.18445 0.77911 0.0
C1020 C 0.82361 0.33518 0.19152 0.0
C1021 C 0.84371 0.35335 0.19379 0.0
C1022 C 0.80639 0.3357 0.17098 0.0
C1023 C 0.80881 0.35437 0.15211 0.0
H1024 H 0.82019 0.32153 0.20645 0.0
H1025 H 0.79028 0.32232 0.17076 0.0
S1026 S 0.86147 0.40276 0.14689 0.0
N1027 N 0.86737 0.38798 0.1737 0.0
N1028 N 0.83522 0.38892 0.13511 0.0
C1029 C 0.8302 0.37116 0.1531 0.0
C1030 C 0.8476 0.37066 0.17397 0.0
C1031 C 0.61946 0.84459 0.16348 0.0
C1032 C 0.61907 0.83411 0.18798 0.0
C1033 C 0.61983 0.82914 0.14176 0.0
C1034 C 0.61978 0.80259 0.14365 0.0
H1035 H 0.61874 0.86489 0.16093 0.0
H1036 H 0.61934 0.83814 0.12336 0.0
S1037 S 0.62188 0.7657 0.20337 0.0
N1038 N 0.62088 0.79551 0.21284 0.0
N1039 N 0.62154 0.76652 0.17207 0.0
C1040 C 0.6206 0.79188 0.16804 0.0
C1041 C 0.62026 0.80762 0.19017 0.0
C1042 C 0.15508 0.60905 0.17767 0.0
C1043 C 0.15916 0.61335 0.20382 0.0
C1044 C 0.17533 0.61019 0.16058 0.0
C1045 C 0.20045 0.61564 0.16899 0.0
H1046 H 0.13621 0.60406 0.17034 0.0
H1047 H 0.17129 0.60599 0.14076 0.0
S1048 S 0.22094 0.63136 0.23512 0.0
N1049 N 0.18999 0.62543 0.23698 0.0
N1050 N 0.22796 0.62753 0.20491 0.0
C1051 C 0.20464 0.6211 0.19492 0.0
C1052 C 0.18403 0.61997 0.21231 0.0
C1053 C 0.38538 0.18711 0.17099 0.0
C1054 C 0.36961 0.1842 0.14933 0.0
C1055 C 0.38576 0.16859 0.18978 0.0
C1056 C 0.37042 0.14626 0.18777 0.0
H1057 H 0.3979 0.20372 0.17341 0.0
H1058 H 0.39859 0.17173 0.20582 0.0
S1059 S 0.32463 0.12988 0.13548 0.0
N1060 N 0.33741 0.15763 0.12742 0.0
N1061 N 0.33813 0.12272 0.16281 0.0
C1062 C 0.35404 0.14331 0.16653 0.0
C1063 C 0.35361 0.16229 0.14733 0.0
C1064 C 0.82156 0.81146 0.61294 0.0
C1065 C 0.81719 0.78505 0.61122 0.0
C1066 C 0.80134 0.82802 0.61313 0.0
C1067 C 0.77587 0.81889 0.61158 0.0
H1068 H 0.84079 0.81954 0.61362 0.0
H1069 H 0.80584 0.84819 0.61392 0.0
S1070 S 0.75395 0.75125 0.60888 0.0
N1071 N 0.78531 0.75044 0.6095 0.0
N1072 N 0.74735 0.78156 0.60983 0.0
C1073 C 0.77116 0.79248 0.61075 0.0
C1074 C 0.79178 0.77558 0.61057 0.0
C1075 C 0.86263 0.14702 0.37689 0.0
C1076 C 0.8558 0.1714 0.36934 0.0
C1077 C 0.84484 0.12662 0.37638 0.0
C1078 C 0.81957 0.12985 0.36832 0.0
H1079 H 0.88147 0.14387 0.3845 0.0
H1080 H 0.85065 0.10857 0.38366 0.0
S1081 S 0.79339 0.18869 0.34202 0.0
N1082 N 0.823 0.19675 0.35018 0.0
N1083 N 0.7896 0.15843 0.34924 0.0
C1084 C 0.81307 0.15362 0.35878 0.0
C1085 C 0.83117 0.17439 0.35929 0.0
C1086 C 0.80099 0.82598 0.35744 0.0
C1087 C 0.79573 0.84026 0.37928 0.0
C1088 C 0.82129 0.80946 0.35709 0.0
C1089 C 0.83714 0.80668 0.37854 0.0
H1090 H 0.78892 0.82697 0.3407 0.0
H1091 H 0.8241 0.7983 0.34008 0.0
S1092 S 0.8333 0.84223 0.43946 0.0
N1093 N 0.80935 0.85222 0.42216 0.0
N1094 N 0.84746 0.82136 0.42151 0.0
C1095 C 0.83277 0.82177 0.40011 0.0
C1096 C 0.81208 0.83849 0.40048 0.0
C1097 C 0.16168 0.80682 0.36853 0.0
C1098 C 0.13594 0.80993 0.36211 0.0
C1099 C 0.1798 0.82661 0.36586 0.0
C1100 C 0.17298 0.85047 0.35678 0.0
H1101 H 0.1679 0.78914 0.37638 0.0
H1102 H 0.19917 0.82331 0.37188 0.0
S1103 S 0.1086 0.86768 0.33459 0.0
N1104 N 0.10488 0.83809 0.34416 0.0
N1105 N 0.13901 0.87541 0.33923 0.0
C1106 C 0.14757 0.85348 0.34896 0.0
C1107 C 0.12905 0.8332 0.3516 0.0
C1108 C 0.20624 0.19423 0.38955 0.0
C1109 C 0.19775 0.16878 0.3868 0.0
C1110 C 0.18913 0.21392 0.38936 0.0
C1111 C 0.16278 0.20903 0.38635 0.0
H1112 H 0.22627 0.19908 0.39241 0.0
H1113 H 0.19669 0.23312 0.39206 0.0
S1114 S 0.1308 0.14575 0.37652 0.0
N1115 N 0.16128 0.13979 0.3796 0.0
N1116 N 0.12908 0.17681 0.37919 0.0
C1117 C 0.15404 0.1837 0.38274 0.0
C1118 C 0.17152 0.1636 0.383 0.0
C1119 C 0.17117 0.16019 0.6012 0.0
C1120 C 0.1832 0.15322 0.62396 0.0
C1121 C 0.15273 0.17858 0.60086 0.0
C1122 C 0.14542 0.19089 0.62326 0.0
H1123 H 0.17628 0.15169 0.58327 0.0
H1124 H 0.14446 0.18341 0.58268 0.0
S1125 S 0.16992 0.17855 0.68824 0.0
N1126 N 0.18562 0.15926 0.6698 0.0
N1127 N 0.15084 0.19394 0.66916 0.0
C1128 C 0.15666 0.18358 0.64635 0.0
C1129 C 0.17555 0.16474 0.6467 0.0
C1130 C 0.80728 0.15451 0.62151 0.0
C1131 C 0.81305 0.12873 0.62001 0.0
C1132 C 0.82645 0.17348 0.62121 0.0
C1133 C 0.85226 0.16756 0.61949 0.0
H1134 H 0.78771 0.16026 0.62185 0.0
H1135 H 0.82081 0.19302 0.62144 0.0
S1136 S 0.87787 0.10294 0.61897 0.0
N1137 N 0.84667 0.09816 0.61962 0.0
N1138 N 0.88282 0.134 0.61908 0.0
C1139 C 0.8585 0.14187 0.61986 0.0
C1140 C 0.83887 0.12242 0.6201 0.0
C1141 C 0.20274 0.83061 0.64599 0.0
C1142 C 0.20107 0.85103 0.6292 0.0
C1143 C 0.18314 0.81193 0.64718 0.0
C1144 C 0.16105 0.81324 0.63189 0.0
H1145 H 0.21984 0.82831 0.65729 0.0
H1146 H 0.18574 0.79594 0.65959 0.0
S1147 S 0.14616 0.86522 0.5875 0.0
N1148 N 0.17478 0.873 0.59887 0.0
N1149 N 0.13773 0.83834 0.60138 0.0
C1150 C 0.1585 0.83461 0.61633 0.0
C1151 C 0.17858 0.85338 0.61489 0.0
C1152 C 0.07406 0.29488 0.48211 0.0
C1153 C 0.09478 0.28622 0.4682 0.0
C1154 C 0.07402 0.29402 0.50869 0.0
C1155 C 0.09469 0.28445 0.52234 0.0
H1156 H 0.05711 0.30107 0.47245 0.0
H1157 H 0.05704 0.29958 0.51843 0.0
S1158 S 0.15567 0.26425 0.49515 0.0
N1159 N 0.13806 0.27132 0.47023 0.0
N1160 N 0.13795 0.26967 0.52015 0.0
C1161 C 0.11641 0.27778 0.50877 0.0
C1162 C 0.11646 0.27868 0.48171 0.0
C1163 C 0.77363 0.12753 0.50735 0.0
C1164 C 0.754 0.11431 0.52017 0.0
C1165 C 0.77503 0.12693 0.48083 0.0
C1166 C 0.75679 0.11319 0.466 0.0
H1167 H 0.78843 0.13803 0.51785 0.0
H1168 H 0.79084 0.13702 0.47197 0.0
S1169 S 0.7004 0.07684 0.49023 0.0
N1170 N 0.7151 0.08812 0.51597 0.0
N1171 N 0.71764 0.08705 0.46615 0.0
C1172 C 0.73659 0.10048 0.47854 0.0
C1173 C 0.73523 0.10102 0.50559 0.0
C1174 C 0.92013 0.71286 0.48972 0.0
C1175 C 0.89835 0.7188 0.47549 0.0
C1176 C 0.91997 0.71323 0.51631 0.0
C1177 C 0.89802 0.71956 0.52967 0.0
H1178 H 0.93792 0.70933 0.48036 0.0
H1179 H 0.93762 0.70993 0.52635 0.0
S1180 S 0.83458 0.73145 0.50137 0.0
N1181 N 0.85319 0.7274 0.47674 0.0
N1182 N 0.85288 0.7281 0.5267 0.0
C1183 C 0.87551 0.72331 0.51569 0.0
C1184 C 0.87567 0.72293 0.48861 0.0
C1185 C 0.21242 0.87594 0.47242 0.0
C1186 C 0.23311 0.88321 0.45707 0.0
C1187 C 0.21422 0.87726 0.49889 0.0
C1188 C 0.23683 0.8858 0.51123 0.0
H1189 H 0.19441 0.86951 0.46398 0.0
H1190 H 0.19756 0.87168 0.50972 0.0
S1191 S 0.29709 0.90601 0.47989 0.0
N1192 N 0.27734 0.89851 0.4562 0.0
N1193 N 0.28076 0.90093 0.50605 0.0
C1194 C 0.25793 0.89262 0.49618 0.0
C1195 C 0.25606 0.89136 0.46911 0.0
C1196 C 0.12122 0.78809 0.51337 0.0
C1197 C 0.11082 0.76868 0.52865 0.0
C1198 C 0.12227 0.7854 0.48698 0.0
C1199 C 0.11292 0.7632 0.47462 0.0
H1200 H 0.12843 0.80575 0.52176 0.0
H1201 H 0.13016 0.80115 0.47621 0.0
S1202 S 0.08474 0.70614 0.50593 0.0
N1203 N 0.09173 0.72601 0.52954 0.0
N1204 N 0.09366 0.72096 0.47984 0.0
C1205 C 0.103 0.74332 0.48967 0.0
C1206 C 0.10196 0.74606 0.51668 0.0
C1207 C 0.2773 0.07301 0.48329 0.0
C1208 C 0.26991 0.09402 0.46905 0.0
C1209 C 0.27828 0.07396 0.50987 0.0
C1210 C 0.27189 0.09595 0.52328 0.0
H1211 H 0.28112 0.05521 0.47397 0.0
H1212 H 0.2828 0.05684 0.51992 0.0
S1213 S 0.25598 0.15764 0.49485 0.0
N1214 N 0.25954 0.13858 0.47027 0.0
N1215 N 0.26134 0.14034 0.5202 0.0
C1216 C 0.26647 0.11773 0.50923 0.0
C1217 C 0.2655 0.11677 0.48214 0.0
C1218 C 0.87924 0.25001 0.50658 0.0
C1219 C 0.86095 0.23544 0.51992 0.0
C1220 C 0.87908 0.25062 0.48001 0.0
C1221 C 0.86064 0.23668 0.4656 0.0
H1222 H 0.89398 0.26096 0.51669 0.0
H1223 H 0.89373 0.26203 0.47075 0.0
S1224 S 0.8085 0.19531 0.49124 0.0
N1225 N 0.82377 0.20666 0.51663 0.0
N1226 N 0.8235 0.20781 0.46673 0.0
C1227 C 0.84205 0.22219 0.47866 0.0
C1228 C 0.8422 0.22157 0.50579 0.0
C1229 C 0.68833 0.90807 0.49024 0.0
C1230 C 0.69697 0.88721 0.47642 0.0
C1231 C 0.68817 0.90805 0.51683 0.0
C1232 C 0.69664 0.88717 0.53061 0.0
H1233 H 0.68309 0.9252 0.4806 0.0
H1234 H 0.68281 0.92516 0.52656 0.0
S1235 S 0.71589 0.82578 0.50338 0.0
N1236 N 0.71034 0.84359 0.47844 0.0
N1237 N 0.71004 0.84357 0.5284 0.0
C1238 C 0.70303 0.8653 0.517 0.0
C1239 C 0.70319 0.86532 0.48991 0.0
C1240 C 0.48444 0.09485 0.2641 0.0
C1241 C 0.47569 0.11761 0.254 0.0
C1242 C 0.51024 0.08915 0.26347 0.0
C1243 C 0.52842 0.10598 0.2528 0.0
H1244 H 0.47119 0.08084 0.27186 0.0
H1245 H 0.5158 0.07106 0.2709 0.0
S1246 S 0.51582 0.16935 0.22607 0.0
N1247 N 0.48758 0.15798 0.23467 0.0
N1248 N 0.53606 0.14733 0.23352 0.0
C1249 C 0.52012 0.12936 0.24367 0.0
C1250 C 0.49379 0.13515 0.24426 0.0
C1251 C 0.86599 0.50789 0.21849 0.0
C1252 C 0.87104 0.52275 0.24036 0.0
C1253 C 0.86734 0.48151 0.219 0.0
C1254 C 0.87364 0.46877 0.24144 0.0
H1255 H 0.86136 0.51666 0.20058 0.0
H1256 H 0.86356 0.47108 0.20149 0.0
S1257 S 0.8874 0.49867 0.30435 0.0
N1258 N 0.88176 0.52267 0.28545 0.0
N1259 N 0.88418 0.47296 0.28641 0.0
C1260 C 0.87813 0.48328 0.26367 0.0
C1261 C 0.87687 0.51027 0.26312 0.0
C1262 C 0.51701 0.87474 0.25317 0.0
C1263 C 0.52849 0.8978 0.26171 0.0
C1264 C 0.49051 0.87096 0.25259 0.0
C1265 C 0.47436 0.89016 0.26035 0.0
H1266 H 0.52854 0.85961 0.24625 0.0
H1267 H 0.48267 0.85314 0.24511 0.0
S1268 S 0.49476 0.95321 0.28669 0.0
N1269 N 0.52161 0.93948 0.27993 0.0
N1270 N 0.4718 0.93242 0.27875 0.0
C1271 C 0.48557 0.9129 0.27006 0.0
C1272 C 0.51261 0.9167 0.27078 0.0
C1273 C 0.10227 0.5108 0.26025 0.0
C1274 C 0.0821 0.5235 0.27147 0.0
C1275 C 0.10313 0.48436 0.26057 0.0
C1276 C 0.08392 0.46944 0.27221 0.0
H1277 H 0.11708 0.52123 0.2502 0.0
H1278 H 0.1186 0.47556 0.25081 0.0
S1279 S 0.02877 0.4935 0.30739 0.0
N1280 N 0.04378 0.51925 0.29685 0.0
N1281 N 0.04543 0.4695 0.29751 0.0
C1282 C 0.06452 0.48193 0.28497 0.0
C1283 C 0.0636 0.50895 0.28458 0.0
C1284 C 0.48198 0.88489 0.73564 0.0
C1285 C 0.46754 0.90387 0.72445 0.0
C1286 C 0.5085 0.88754 0.73781 0.0
C1287 C 0.52175 0.9092 0.72873 0.0
H1288 H 0.47273 0.86815 0.7436 0.0
H1289 H 0.5186 0.87267 0.74722 0.0
S1290 S 0.49313 0.9633 0.69553 0.0
N1291 N 0.46864 0.94428 0.70247 0.0
N1292 N 0.51852 0.94922 0.70645 0.0
C1293 C 0.50769 0.92779 0.71637 0.0
C1294 C 0.4806 0.92514 0.71427 0.0
C1295 C 0.12996 0.47579 0.72613 0.0
C1296 C 0.10822 0.46507 0.71377 0.0
C1297 C 0.13502 0.502 0.72633 0.0
C1298 C 0.11842 0.51863 0.71437 0.0
H1299 H 0.14281 0.46395 0.73652 0.0
H1300 H 0.15143 0.50928 0.73706 0.0
S1301 S 0.06068 0.50003 0.67643 0.0
N1302 N 0.07136 0.47298 0.68697 0.0
N1303 N 0.08077 0.52229 0.68751 0.0
C1304 C 0.09749 0.50808 0.70054 0.0
C1305 C 0.09243 0.4813 0.70018 0.0
C1306 C 0.47554 0.07965 0.72105 0.0
C1307 C 0.45724 0.09627 0.72991 0.0
C1308 C 0.50117 0.08747 0.71904 0.0
C1309 C 0.5096 0.11229 0.72569 0.0
H1310 H 0.4702 0.06019 0.71617 0.0
H1311 H 0.51455 0.07371 0.71265 0.0
S1312 S 0.4689 0.16387 0.74807 0.0
N1313 N 0.44905 0.13921 0.74402 0.0
N1314 N 0.49718 0.15391 0.74021 0.0
C1315 C 0.49133 0.12941 0.73373 0.0
C1316 C 0.4652 0.1214 0.73586 0.0
C1317 C 0.8959 0.49821 0.71468 0.0
C1318 C 0.87455 0.50836 0.72644 0.0
C1319 C 0.89937 0.47207 0.7139 0.0
C1320 C 0.88172 0.45496 0.72496 0.0
H1321 H 0.91059 0.51057 0.70673 0.0
H1322 H 0.91665 0.4654 0.70551 0.0
S1323 S 0.82082 0.47143 0.75504 0.0
N1324 N 0.83413 0.49898 0.74711 0.0
N1325 N 0.8407 0.44982 0.74569 0.0
C1326 C 0.85946 0.46469 0.73537 0.0
C1327 C 0.85587 0.49138 0.73608 0.0
C1328 C 0.27747 0.51147 0.08674 0.0
C1329 C 0.27332 0.52913 0.10623 0.0
C1330 C 0.27708 0.48542 0.09156 0.0
C1331 C 0.27269 0.47594 0.11611 0.0
H1332 H 0.28001 0.51767 0.06735 0.0
H1333 H 0.27946 0.4726 0.07568 0.0
S1334 S 0.26405 0.51452 0.17443 0.0
N1335 N 0.26709 0.53551 0.15151 0.0
N1336 N 0.26644 0.48656 0.16061 0.0
C1337 C 0.27003 0.49349 0.13608 0.0
C1338 C 0.2703 0.52006 0.13113 0.0
C1339 C 0.26381 0.49773 0.91682 0.0
C1340 C 0.25745 0.51461 0.89745 0.0
C1341 C 0.2626 0.4715 0.9127 0.0
C1342 C 0.25503 0.46103 0.88901 0.0
H1343 H 0.26903 0.50471 0.93562 0.0
H1344 H 0.26694 0.45935 0.92854 0.0
S1345 S 0.23914 0.49719 0.83108 0.0
N1346 N 0.24532 0.51911 0.853 0.0
N1347 N 0.24305 0.46981 0.84526 0.0
C1348 C 0.24982 0.47775 0.86907 0.0
C1349 C 0.251 0.50451 0.8733 0.0
C1350 C 0.47956 0.26306 0.91112 0.0
C1351 C 0.46824 0.25771 0.88724 0.0
C1352 C 0.50602 0.26536 0.91416 0.0
C1353 C 0.52234 0.26233 0.89346 0.0
H1354 H 0.46796 0.26484 0.92786 0.0
H1355 H 0.51368 0.26875 0.9331 0.0
S1356 S 0.50239 0.25066 0.82638 0.0
N1357 N 0.47543 0.25134 0.8421 0.0
N1358 N 0.5252 0.25564 0.84781 0.0
C1359 C 0.51129 0.25818 0.86922 0.0
C1360 C 0.48426 0.25588 0.86612 0.0
C1361 C 0.74955 0.50849 0.86632 0.0
C1362 C 0.74315 0.52755 0.88366 0.0
C1363 C 0.74699 0.48281 0.87257 0.0
C1364 C 0.7379 0.47506 0.89644 0.0
H1365 H 0.75739 0.51337 0.84799 0.0
H1366 H 0.75289 0.46898 0.85874 0.0
S1367 S 0.71584 0.51737 0.94771 0.0
N1368 N 0.72533 0.53682 0.92506 0.0
N1369 N 0.72053 0.48857 0.93678 0.0
C1370 C 0.73024 0.49386 0.91353 0.0
C1371 C 0.73286 0.52007 0.90715 0.0
C1372 C 0.49381 0.7084 0.90796 0.0
C1373 C 0.47602 0.70998 0.88795 0.0
C1374 C 0.52001 0.71085 0.90359 0.0
C1375 C 0.52954 0.71493 0.879 0.0
H1376 H 0.4875 0.70639 0.92737 0.0
H1377 H 0.5328 0.71057 0.91984 0.0
S1378 S 0.49103 0.71651 0.81952 0.0
N1379 N 0.46984 0.71293 0.84221 0.0
N1380 N 0.51907 0.71752 0.83398 0.0
C1381 C 0.51202 0.71479 0.85858 0.0
C1382 C 0.48529 0.71234 0.86306 0.0
C1383 C 0.73554 0.51202 0.08324 0.0
C1384 C 0.74332 0.52324 0.10651 0.0
C1385 C 0.7345 0.4857 0.07992 0.0
C1386 C 0.74128 0.46939 0.09969 0.0
H1387 H 0.73056 0.52366 0.06721 0.0
H1388 H 0.72881 0.47816 0.06146 0.0
S1389 S 0.76174 0.48902 0.16489 0.0
N1390 N 0.75695 0.5159 0.15008 0.0
N1391 N 0.75503 0.46638 0.14384 0.0
C1392 C 0.74838 0.48028 0.12334 0.0
C1393 C 0.74938 0.50718 0.12675 0.0
C1394 C 0.50627 0.74206 0.12202 0.0
C1395 C 0.52321 0.73099 0.10508 0.0
C1396 C 0.48006 0.74172 0.11697 0.0
C1397 C 0.46964 0.73018 0.09483 0.0
H1398 H 0.51332 0.75185 0.13896 0.0
H1399 H 0.46798 0.75114 0.13033 0.0
S1400 S 0.50548 0.6962 0.04553 0.0
N1401 N 0.52747 0.70644 0.06613 0.0
N1402 N 0.4782 0.70577 0.05668 0.0
C1403 C 0.4862 0.71794 0.07831 0.0
C1404 C 0.51296 0.71837 0.08341 0.0
C1405 C 0.5085 0.26562 0.0837 0.0
C1406 C 0.52741 0.25715 0.10037 0.0
C1407 C 0.48278 0.26448 0.09029 0.0
C1408 C 0.4748 0.25478 0.11384 0.0
H1409 H 0.51346 0.27265 0.06507 0.0
H1410 H 0.469 0.27063 0.07641 0.0
S1411 S 0.51695 0.23229 0.16541 0.0
N1412 N 0.53653 0.24034 0.14233 0.0
N1413 N 0.48816 0.23817 0.15467 0.0
C1414 C 0.49359 0.24725 0.13119 0.0
C1415 C 0.51987 0.24843 0.12448 0.0
C1416 C 0.61813 0.76464 0.00716 0.0
C1417 C 0.59755 0.77435 0.02055 0.0
C1418 C 0.61844 0.76447 0.98061 0.0
C1419 C 0.59819 0.774 0.9663 0.0
H1420 H 0.63361 0.75589 0.01716 0.0
H1421 H 0.63415 0.75562 0.97132 0.0
S1422 S 0.54207 0.80588 0.99216 0.0
N1423 N 0.55808 0.79697 0.0175 0.0
N1424 N 0.55867 0.79666 0.96755 0.0
C1425 C 0.57856 0.78577 0.97942 0.0
C1426 C 0.57824 0.78594 0.00654 0.0
C1427 C 0.26788 0.63327 0.98498 0.0
C1428 C 0.24934 0.61783 0.97232 0.0
C1429 C 0.26981 0.63376 0.01149 0.0
C1430 C 0.25317 0.61896 0.02655 0.0
H1431 H 0.28152 0.6447 0.97438 0.0
H1432 H 0.28475 0.64566 0.02018 0.0
S1433 S 0.20015 0.57643 0.00287 0.0
N1434 N 0.2132 0.58817 0.97693 0.0
N1435 N 0.21673 0.58918 0.02682 0.0
C1436 C 0.23399 0.604 0.01421 0.0
C1437 C 0.23212 0.60339 0.98711 0.0
C1438 C 0.37715 0.21854 0.01808 0.0
C1439 C 0.39698 0.20863 0.03268 0.0
C1440 C 0.3772 0.21717 0.99157 0.0
C1441 C 0.39715 0.20592 0.97848 0.0
H1442 H 0.36199 0.22853 0.0271 0.0
H1443 H 0.36208 0.22622 0.9813 0.0
S1444 S 0.45128 0.17308 0.00789 0.0
N1445 N 0.43536 0.18411 0.03218 0.0
N1446 N 0.43548 0.18161 0.98226 0.0
C1447 C 0.41597 0.19401 0.99286 0.0
C1448 C 0.41588 0.19534 0.01997 0.0
C1449 C 0.76443 0.38541 0.01325 0.0
C1450 C 0.75234 0.36533 0.02642 0.0
C1451 C 0.76353 0.38653 0.98674 0.0
C1452 C 0.75058 0.36758 0.97221 0.0
H1453 H 0.77443 0.40068 0.02348 0.0
H1454 H 0.77294 0.40255 0.9776 0.0
S1455 S 0.71584 0.31079 -0.0027 0.0
N1456 N 0.72713 0.32584 0.02281 0.0
N1457 N 0.72551 0.32794 0.97294 0.0
C1458 C 0.73877 0.34712 0.98504 0.0
C1459 C 0.73964 0.34599 0.01213 0.0
C1460 C 0.60642 0.23682 0.97689 0.0
C1461 C 0.62907 0.23922 0.96298 0.0
C1462 C 0.60681 0.2362 0.00342 0.0
C1463 C 0.62987 0.23786 0.01727 0.0
H1464 H 0.58807 0.23601 0.96729 0.0
H1465 H 0.58875 0.23483 0.01311 0.0
S1466 S 0.69472 0.24224 0.98991 0.0
N1467 N 0.67537 0.24179 0.965 0.0
N1468 N 0.67614 0.24055 0.01494 0.0
C1469 C 0.65277 0.23943 0.00361 0.0
C1470 C 0.65235 0.24014 0.97648 0.0
C1471 C 0.80136 0.58216 0.00501 0.0
C1472 C 0.79101 0.60214 0.01887 0.0
C1473 C 0.80262 0.58286 0.97848 0.0
C1474 C 0.79362 0.60359 0.96479 0.0
H1475 H 0.80715 0.56515 0.01452 0.0
H1476 H 0.80934 0.56635 0.96864 0.0
S1477 S 0.76983 0.66301 0.99253 0.0
N1478 N 0.77528 0.64489 0.01726 0.0
N1479 N 0.77771 0.64627 0.96741 0.0
C1480 C 0.78544 0.62468 0.97859 0.0
C1481 C 0.7841 0.62393 0.00561 0.0
C1482 C 0.39297 0.74614 0.97486 0.0
C1483 C 0.37893 0.72638 0.96251 0.0
C1484 C 0.39174 0.74956 0.00126 0.0
C1485 C 0.37639 0.73338 0.01628 0.0
H1486 H 0.40562 0.75861 0.9642 0.0
H1487 H 0.40351 0.76454 0.00999 0.0
S1488 S 0.33339 0.68073 0.99274 0.0
N1489 N 0.34744 0.69182 0.96706 0.0
N1490 N 0.34509 0.69825 0.01648 0.0
C1491 C 0.36137 0.71427 0.00399 0.0
C1492 C 0.36265 0.71077 0.97717 0.0
C1493 C 0.22401 0.37675 0.01983 0.0
C1494 C 0.215 0.39784 0.03304 0.0
C1495 C 0.22192 0.37484 0.99339 0.0
C1496 C 0.21081 0.39399 0.979 0.0
H1497 H 0.23393 0.36213 0.02982 0.0
H1498 H 0.23043 0.35889 0.98412 0.0
S1499 S 0.17976 0.45066 0.00474 0.0
N1500 N 0.19118 0.43645 0.03001 0.0
N1501 N 0.1873 0.43287 0.98025 0.0
C1502 C 0.19966 0.41403 0.99212 0.0
C1503 C 0.20174 0.41596 0.01914 0.0
C1504 C 0.01371 0.55964 0.76811 0.0
C1505 C 0.02757 0.58165 0.76081 0.0
C1506 C 0.98705 0.55896 0.76864 0.0
C1507 C 0.97319 0.58021 0.76179 0.0
H1508 H 0.02341 0.54242 0.77246 0.0
H1509 H 0.97728 0.54123 0.77335 0.0
S1510 S 0.00036 0.64371 0.74511 0.0
N1511 N 0.0254 0.62619 0.74948 0.0
N1512 N 0.97533 0.62478 0.75034 0.0
C1513 C 0.98681 0.60284 0.75607 0.0
C1514 C 0.01397 0.60359 0.75563 0.0
C1515 C 0.34019 0.96808 0.7395 0.0
C1516 C 0.36112 0.95526 0.74934 0.0
C1517 C 0.33896 0.99449 0.74144 0.0
C1518 C 0.35867 0.00922 0.75317 0.0
H1519 H 0.32485 0.95774 0.72964 0.0
H1520 H 0.32274 0.00344 0.73295 0.0
S1521 S 0.4167 0.98482 0.78402 0.0
N1522 N 0.40129 0.95929 0.77282 0.0
N1523 N 0.39898 0.00885 0.77635 0.0
C1524 C 0.37925 -0.00341 0.764 0.0
C1525 C 0.38045 0.96966 0.76214 0.0
C1526 C 0.00579 0.36821 0.71331 0.0
C1527 C 0.02053 0.37863 0.73351 0.0
C1528 C 0.97925 0.36609 0.7146 0.0
C1529 C 0.96621 0.37433 0.73615 0.0
H1530 H 0.01475 0.3616 0.69619 0.0
H1531 H 0.96893 0.35801 0.69839 0.0
S1532 S -0.00419 0.40286 0.79451 0.0
N1533 N 0.02009 0.39715 0.77597 0.0
N1534 N 0.97012 0.39319 0.77839 0.0
C1535 C 0.98067 0.38467 0.75664 0.0
C1536 C 0.00781 0.38682 0.75533 0.0
C1537 C 0.59181 0.99461 0.77443 0.0
C1538 C 0.61413 0.98529 0.76378 0.0
C1539 C 0.58631 0.02031 0.77311 0.0
C1540 C 0.60286 0.03777 0.76102 0.0
H1541 H 0.57784 0.98183 0.78298 0.0
H1542 H 0.56834 0.02623 0.7806 0.0
S1543 S 0.66575 0.02394 0.73367 0.0
N1544 N 0.65434 -0.00381 0.74338 0.0
N1545 N 0.64399 0.04451 0.74089 0.0
C1546 C 0.6261 0.02908 0.75188 0.0
C1547 C 0.63174 0.00285 0.75328 0.0
C1548 C 0.97761 0.39364 0.2214 0.0
C1549 C 0.96054 0.38194 0.23842 0.0
C1550 C 0.00396 0.3913 0.22424 0.0
C1551 C 0.01425 0.37706 0.24414 0.0
H1552 H 0.97066 0.40546 0.20629 0.0
H1553 H 0.01634 0.40142 0.21118 0.0
S1554 S 0.97743 0.33985 0.29174 0.0
N1555 N 0.95561 0.35361 0.2744 0.0
N1556 N 0.00504 0.34909 0.27968 0.0
C1557 C -0.00271 0.36415 0.26047 0.0
C1558 C 0.97047 0.36663 0.25763 0.0
C1559 C 0.6091 0.01185 0.22547 0.0
C1560 C 0.63157 0.02667 0.22959 0.0
C1561 C 0.60914 0.98537 0.22618 0.0
C1562 C 0.63164 0.97249 0.23112 0.0
H1563 H 0.59114 0.02073 0.22197 0.0
H1564 H 0.59118 0.97498 0.22327 0.0
S1565 S 0.69595 0.00232 0.24208 0.0
N1566 N 0.67723 0.02642 0.23792 0.0
N1567 N 0.67729 0.97662 0.23929 0.0
C1568 C 0.65441 0.98702 0.23469 0.0
C1569 C 0.65438 0.01407 0.23391 0.0
C1570 C 0.00134 0.59122 0.21597 0.0
C1571 C 0.01256 0.61445 0.22442 0.0
C1572 C 0.97489 0.58699 0.21579 0.0
C1573 C 0.95859 0.60574 0.22427 0.0
H1574 H 0.0131 0.57578 0.21023 0.0
H1575 H 0.96729 0.56847 0.21003 0.0
S1576 S 0.9779 0.671 0.24514 0.0
N1577 N 0.00498 0.65737 0.23908 0.0
N1578 N 0.95528 0.64929 0.2389 0.0
C1579 C 0.96938 0.62955 0.23138 0.0
C1580 C -0.00365 0.63395 0.23138 0.0
C1581 C 0.4195 0.01998 0.20709 0.0
C1582 C 0.39861 0.03227 0.21736 0.0
C1583 C 0.42005 0.99349 0.20611 0.0
C1584 C 0.39969 0.97827 0.2153 0.0
H1585 H 0.43622 0.0308 0.20103 0.0
H1586 H 0.43715 0.98497 0.1993 0.0
S1587 S 0.33842 0.00129 0.2394 0.0
N1588 N 0.35557 0.02734 0.23355 0.0
N1589 N 0.35648 0.97756 0.23161 0.0
C1590 C 0.37777 0.99036 0.2236 0.0
C1591 C 0.37727 0.01735 0.22467 0.0
C1592 C 0.74729 0.00782 0.62324 0.0
C1593 C 0.75647 0.01592 0.59953 0.0
C1594 C 0.74482 0.98206 0.62914 0.0
C1595 C 0.7513 0.96328 0.61153 0.0
H1596 H 0.74134 0.02145 0.63725 0.0
H1597 H 0.73693 0.97689 0.64737 0.0
S1598 S 0.77856 0.9744 0.54762 0.0
N1599 N 0.77384 0.00304 0.55897 0.0
N1600 N 0.76916 0.95461 0.57002 0.0
C1601 C 0.76162 0.97109 0.58816 0.0
C1602 C 0.76422 -0.00261 0.58218 0.0
C1603 C 0.76151 0.00276 0.37344 0.0
C1604 C 0.76658 0.01416 0.39731 0.0
C1605 C 0.75815 0.97645 0.37082 0.0
C1606 C 0.75949 0.96049 0.39199 0.0
H1607 H 0.75941 0.01429 0.35667 0.0
H1608 H 0.7535 0.96871 0.35217 0.0
S1609 S 0.77496 0.98042 0.45831 0.0
N1610 N 0.77484 0.00714 0.44225 0.0
N1611 N 0.76836 0.95771 0.43731 0.0
C1612 C 0.76577 0.97147 0.41578 0.0
C1613 C 0.7694 -0.00172 0.41843 0.0
C1614 C 0.98601 0.76127 0.36968 0.0
C1615 C 0.96951 0.77052 0.38813 0.0
C1616 C 0.01238 0.76186 0.37373 0.0
C1617 C 0.02335 0.77197 0.39628 0.0
H1618 H 0.9785 0.75247 0.35239 0.0
H1619 H 0.02419 0.75369 0.35931 0.0
S1620 S 0.9887 0.80136 0.44932 0.0
N1621 N 0.96615 0.79209 0.42889 0.0
N1622 N 0.01577 0.79337 0.43643 0.0
C1623 C 0.00721 0.78267 0.41425 0.0
C1624 C 0.98028 0.78187 0.41021 0.0
C1625 C 0.21992 0.00799 0.35684 0.0
C1626 C 0.21335 0.02383 0.37714 0.0
C1627 C 0.21885 0.98158 0.35921 0.0
C1628 C 0.21095 0.96992 0.38188 0.0
H1629 H 0.22714 0.01599 0.33935 0.0
H1630 H 0.22515 0.97027 0.34338 0.0
S1631 S 0.18822 0.00288 0.43944 0.0
N1632 N 0.19614 0.02595 0.41976 0.0
N1633 N 0.19394 0.97631 0.42417 0.0
C1634 C 0.20263 0.9855 0.40172 0.0
C1635 C 0.2039 0.01244 0.39937 0.0
C1636 C 0.00023 0.25362 0.36491 0.0
C1637 C 0.01848 0.24308 0.38105 0.0
C1638 C 0.97413 0.25003 0.36931 0.0
C1639 C 0.96515 0.23576 0.39005 0.0
H1640 H 0.00607 0.26535 0.34908 0.0
H1641 H 0.96094 0.25912 0.35666 0.0
S1642 S 0.00498 0.20192 0.43657 0.0
N1643 N 0.02566 0.21613 0.41758 0.0
N1644 N 0.97663 0.20942 0.42583 0.0
C1645 C 0.98315 0.22421 0.40575 0.0
C1646 C 0.00977 0.22785 0.40125 0.0
C1647 C 0.25375 0.00922 0.62164 0.0
C1648 C 0.23666 0.02587 0.61047 0.0
C1649 C 0.25185 0.98316 0.61682 0.0
C1650 C 0.23264 0.97254 0.60078 0.0
H1651 H 0.26935 0.01639 0.63358 0.0
H1652 H 0.26593 0.97131 0.6254 0.0
S1653 S 0.18152 0.00754 0.56874 0.0
N1654 N 0.19873 0.02967 0.58401 0.0
N1655 N 0.19506 0.98053 0.57506 0.0
C1656 C 0.21463 0.98877 0.59044 0.0
C1657 C 0.21668 0.01545 0.59523 0.0
C1658 C 0.98313 0.22094 0.57952 0.0
C1659 C 0.96536 0.22573 0.59857 0.0
C1660 C 0.00933 0.22387 0.58425 0.0
C1661 C 0.01892 0.2316 0.60827 0.0
H1662 H 0.97681 0.21566 0.56051 0.0
H1663 H 0.02213 0.22062 0.56868 0.0
S1664 S 0.98042 0.24394 0.66546 0.0
N1665 N 0.9592 0.23669 0.643 0.0
N1666 N 0.00846 0.24216 0.65191 0.0
C1667 C 0.00139 0.23529 0.62786 0.0
C1668 C 0.97464 0.23239 0.623 0.0
C1669 C 0.00138 0.78735 0.5893 0.0
C1670 C 0.01952 0.78296 0.60845 0.0
C1671 C 0.97525 0.78452 0.59397 0.0
C1672 C 0.96615 0.77729 0.61801 0.0
H1673 H 0.00734 0.79192 0.57021 0.0
H1674 H 0.96214 0.7871 0.57826 0.0
S1675 S 0.0058 0.76724 0.67565 0.0
N1676 N 0.02655 0.77372 0.65313 0.0
N1677 N 0.97749 0.76848 0.66193 0.0
C1678 C 0.98407 0.7745 0.63778 0.0
C1679 C 0.01071 0.7773 0.63299 0.0
loop_
_geom_bond_atom_site_label_1
_geom_bond_atom_site_label_2
_geom_bond_distance
_geom_bond_site_symmetry_2
_ccdc_geom_bond_type
C0 O1 1.160 . S
C0 O7 1.185 . S
O1 C0 1.160 . S
O2 Zn3 1.899 . S
O2 C10 1.284 . S
Zn3 O2 1.899 . S
Zn3 O4 2.032 . S
Zn3 O7 2.086 . S
Zn3 O12 1.977 . S
O4 Zn3 2.032 . S
O4 C8 1.278 . S
C5 O6 1.203 . S
C5 O12 1.267 . S
O6 C5 1.203 . S
O7 C0 1.185 . S
O7 Zn3 2.086 . S
C8 O4 1.278 . S
C8 O9 1.211 . S
O9 C8 1.211 . S
C10 O2 1.284 . S
C10 O11 1.273 . S
O11 C10 1.273 . S
O12 Zn3 1.977 . S
O12 C5 1.267 . S
C13 O14 1.160 . S
C13 O20 1.185 . S
O14 C13 1.160 . S
O15 Zn16 1.899 . S
O15 C23 1.284 . S
Zn16 O15 1.899 . S
Zn16 O17 2.032 . S
Zn16 O20 2.086 . S
Zn16 O25 1.977 . S
O17 Zn16 2.032 . S
O17 C21 1.278 . S
C18 O19 1.203 . S
C18 O25 1.267 . S
O19 C18 1.203 . S
O20 C13 1.185 . S
O20 Zn16 2.086 . S
C21 O17 1.278 . S
C21 O22 1.211 . S
O22 C21 1.211 . S
C23 O15 1.284 . S
C23 O24 1.273 . S
O24 C23 1.273 . S
O25 Zn16 1.977 . S
O25 C18 1.267 . S
C26 O27 1.160 . S
C26 O33 1.185 . S
O27 C26 1.160 . S
O28 Zn29 1.899 . S
O28 C36 1.284 . S
Zn29 O28 1.899 . S
Zn29 O30 2.032 . S
Zn29 O33 2.086 . S
Zn29 O38 1.977 . S
O30 Zn29 2.032 . S
O30 C34 1.278 . S
C31 O32 1.203 . S
C31 O38 1.267 . S
O32 C31 1.203 . S
O33 C26 1.185 . S
O33 Zn29 2.086 . S
C34 O30 1.278 . S
C34 O35 1.211 . S
O35 C34 1.211 . S
C36 O28 1.284 . S
C36 O37 1.273 . S
O37 C36 1.273 . S
O38 Zn29 1.977 . S
O38 C31 1.267 . S
C39 O40 1.160 . S
C39 O46 1.185 . S
O40 C39 1.160 . S
O41 Zn42 1.899 . S
O41 C49 1.284 . S
Zn42 O41 1.899 . S
Zn42 O43 2.032 . S
Zn42 O46 2.086 . S
Zn42 O51 1.977 . S
O43 Zn42 2.032 . S
O43 C47 1.278 . S
C44 O45 1.203 . S
C44 O51 1.267 . S
O45 C44 1.203 . S
O46 C39 1.185 . S
O46 Zn42 2.086 . S
C47 O43 1.278 . S
C47 O48 1.211 . S
O48 C47 1.211 . S
C49 O41 1.284 . S
C49 O50 1.273 . S
O50 C49 1.273 . S
O51 Zn42 1.977 . S
O51 C44 1.267 . S
C52 O53 1.160 . S
C52 O59 1.185 . S
O53 C52 1.160 . S
O54 Zn55 1.899 . S
O54 C62 1.284 . S
Zn55 O54 1.899 . S
Zn55 O56 2.032 . S
Zn55 O59 2.086 . S
Zn55 O64 1.977 . S
O56 Zn55 2.032 . S
O56 C60 1.278 . S
C57 O58 1.203 . S
C57 O64 1.267 . S
O58 C57 1.203 . S
O59 C52 1.185 . S
O59 Zn55 2.086 . S
C60 O56 1.278 . S
C60 O61 1.211 . S
O61 C60 1.211 . S
C62 O54 1.284 . S
C62 O63 1.273 . S
O63 C62 1.273 . S
O64 Zn55 1.977 . S
O64 C57 1.267 . S
C65 O66 1.160 . S
C65 O72 1.185 . S
O66 C65 1.160 . S
O67 Zn68 1.899 . S
O67 C75 1.284 . S
Zn68 O67 1.899 . S
Zn68 O69 2.032 . S
Zn68 O72 2.086 . S
Zn68 O77 1.977 . S
O69 Zn68 2.032 . S
O69 C73 1.278 . S
C70 O71 1.203 . S
C70 O77 1.267 . S
O71 C70 1.203 . S
O72 C65 1.185 . S
O72 Zn68 2.086 . S
C73 O69 1.278 . S
C73 O74 1.211 . S
O74 C73 1.211 . S
C75 O67 1.284 . S
C75 O76 1.273 . S
O76 C75 1.273 . S
O77 Zn68 1.977 . S
O77 C70 1.267 . S
C78 O79 1.160 . S
C78 O85 1.185 . S
O79 C78 1.160 . S
O80 Zn81 1.899 . S
O80 C88 1.284 . S
Zn81 O80 1.899 . S
Zn81 O82 2.032 . S
Zn81 O85 2.086 . S
Zn81 O90 1.977 . S
O82 Zn81 2.032 . S
O82 C86 1.278 . S
C83 O84 1.203 . S
C83 O90 1.267 . S
O84 C83 1.203 . S
O85 C78 1.185 . S
O85 Zn81 2.086 . S
C86 O82 1.278 . S
C86 O87 1.211 . S
O87 C86 1.211 . S
C88 O80 1.284 . S
C88 O89 1.273 . S
O89 C88 1.273 . S
O90 Zn81 1.977 . S
O90 C83 1.267 . S
C91 O92 1.160 . S
C91 O98 1.185 . S
O92 C91 1.160 . S
O93 Zn94 1.899 . S
O93 C101 1.284 . S
Zn94 O93 1.899 . S
Zn94 O95 2.032 . S
Zn94 O98 2.086 . S
Zn94 O103 1.977 . S
O95 Zn94 2.032 . S
O95 C99 1.278 . S
C96 O97 1.203 . S
C96 O103 1.267 . S
O97 C96 1.203 . S
O98 C91 1.185 . S
O98 Zn94 2.086 . S
C99 O95 1.278 . S
C99 O100 1.211 . S
O100 C99 1.211 . S
C101 O93 1.284 . S
C101 O102 1.273 . S
O102 C101 1.273 . S
O103 Zn94 1.977 . S
O103 C96 1.267 . S
C104 O105 1.160 . S
C104 O111 1.185 . S
O105 C104 1.160 . S
O106 Zn107 1.899 . S
O106 C114 1.284 . S
Zn107 O106 1.899 . S
Zn107 O108 2.032 . S
Zn107 O111 2.086 . S
Zn107 O116 1.977 . S
O108 Zn107 2.032 . S
O108 C112 1.278 . S
C109 O110 1.203 . S
C109 O116 1.267 . S
O110 C109 1.203 . S
O111 C104 1.185 . S
O111 Zn107 2.086 . S
C112 O108 1.278 . S
C112 O113 1.211 . S
O113 C112 1.211 . S
C114 O106 1.284 . S
C114 O115 1.273 . S
O115 C114 1.273 . S
O116 Zn107 1.977 . S
O116 C109 1.267 . S
C117 O118 1.160 . S
C117 O124 1.185 . S
O118 C117 1.160 . S
O119 Zn120 1.899 . S
O119 C127 1.284 . S
Zn120 O119 1.899 . S
Zn120 O121 2.032 . S
Zn120 O124 2.086 . S
Zn120 O129 1.977 . S
O121 Zn120 2.032 . S
O121 C125 1.278 . S
C122 O123 1.203 . S
C122 O129 1.267 . S
O123 C122 1.203 . S
O124 C117 1.185 . S
O124 Zn120 2.086 . S
C125 O121 1.278 . S
C125 O126 1.211 . S
O126 C125 1.211 . S
C127 O119 1.284 . S
C127 O128 1.273 . S
O128 C127 1.273 . S
O129 Zn120 1.977 . S
O129 C122 1.267 . S
C130 O131 1.160 . S
C130 O137 1.185 . S
O131 C130 1.160 . S
O132 Zn133 1.899 . S
O132 C140 1.284 . S
Zn133 O132 1.899 . S
Zn133 O134 2.032 . S
Zn133 O137 2.086 . S
Zn133 O142 1.977 . S
O134 Zn133 2.032 . S
O134 C138 1.278 . S
C135 O136 1.203 . S
C135 O142 1.267 . S
O136 C135 1.203 . S
O137 C130 1.185 . S
O137 Zn133 2.086 . S
C138 O134 1.278 . S
C138 O139 1.211 . S
O139 C138 1.211 . S
C140 O132 1.284 . S
C140 O141 1.273 . S
O141 C140 1.273 . S
O142 Zn133 1.977 . S
O142 C135 1.267 . S
C143 O144 1.160 . S
C143 O150 1.185 . S
O144 C143 1.160 . S
O145 Zn146 1.899 . S
O145 C153 1.284 . S
Zn146 O145 1.899 . S
Zn146 O147 2.032 . S
Zn146 O150 2.086 . S
Zn146 O155 1.977 . S
O147 Zn146 2.032 . S
O147 C151 1.278 . S
C148 O149 1.203 . S
C148 O155 1.267 . S
O149 C148 1.203 . S
O150 C143 1.185 . S
O150 Zn146 2.086 . S
C151 O147 1.278 . S
C151 O152 1.211 . S
O152 C151 1.211 . S
C153 O145 1.284 . S
C153 O154 1.273 . S
O154 C153 1.273 . S
O155 Zn146 1.977 . S
O155 C148 1.267 . S
C156 O157 1.160 . S
C156 O163 1.185 . S
O157 C156 1.160 . S
O158 Zn159 1.899 . S
O158 C166 1.284 . S
Zn159 O158 1.899 . S
Zn159 O160 2.032 . S
Zn159 O163 2.086 . S
Zn159 O168 1.977 . S
O160 Zn159 2.032 . S
O160 C164 1.278 . S
C161 O162 1.203 . S
C161 O168 1.267 . S
O162 C161 1.203 . S
O163 C156 1.185 . S
O163 Zn159 2.086 . S
C164 O160 1.278 . S
C164 O165 1.211 . S
O165 C164 1.211 . S
C166 O158 1.284 . S
C166 O167 1.273 . S
O167 C166 1.273 . S
O168 Zn159 1.977 . S
O168 C161 1.267 . S
C169 O170 1.160 . S
C169 O176 1.185 . S
O170 C169 1.160 . S
O171 Zn172 1.899 . S
O171 C179 1.284 . S
Zn172 O171 1.899 . S
Zn172 O173 2.032 . S
Zn172 O176 2.086 . S
Zn172 O181 1.977 . S
O173 Zn172 2.032 . S
O173 C177 1.278 . S
C174 O175 1.203 . S
C174 O181 1.267 . S
O175 C174 1.203 . S
O176 C169 1.185 . S
O176 Zn172 2.086 . S
C177 O173 1.278 . S
C177 O178 1.211 . S
O178 C177 1.211 . S
C179 O171 1.284 . S
C179 O180 1.273 . S
O180 C179 1.273 . S
O181 Zn172 1.977 . S
O181 C174 1.267 . S
C182 O183 1.160 . S
C182 O189 1.185 . S
O183 C182 1.160 . S
O184 Zn185 1.899 . S
O184 C192 1.284 . S
Zn185 O184 1.899 . S
Zn185 O186 2.032 . S
Zn185 O189 2.086 . S
Zn185 O194 1.977 . S
O186 Zn185 2.032 . S
O186 C190 1.278 . S
C187 O188 1.203 . S
C187 O194 1.267 . S
O188 C187 1.203 . S
O189 C182 1.185 . S
O189 Zn185 2.086 . S
C190 O186 1.278 . S
C190 O191 1.211 . S
O191 C190 1.211 . S
C192 O184 1.284 . S
C192 O193 1.273 . S
O193 C192 1.273 . S
O194 Zn185 1.977 . S
O194 C187 1.267 . S
C195 O196 1.160 . S
C195 O202 1.185 . S
O196 C195 1.160 . S
O197 Zn198 1.899 . S
O197 C205 1.284 . S
Zn198 O197 1.899 . S
Zn198 O199 2.032 . S
Zn198 O202 2.086 . S
Zn198 O207 1.977 . S
O199 Zn198 2.032 . S
O199 C203 1.278 . S
C200 O201 1.203 . S
C200 O207 1.267 . S
O201 C200 1.203 . S
O202 C195 1.185 . S
O202 Zn198 2.086 . S
C203 O199 1.278 . S
C203 O204 1.211 . S
O204 C203 1.211 . S
C205 O197 1.284 . S
C205 O206 1.273 . S
O206 C205 1.273 . S
O207 Zn198 1.977 . S
O207 C200 1.267 . S
C208 O209 1.160 . S
C208 O215 1.185 . S
O209 C208 1.160 . S
O210 Zn211 1.899 . S
O210 C218 1.284 . S
Zn211 O210 1.899 . S
Zn211 O212 2.032 . S
Zn211 O215 2.086 . S
Zn211 O220 1.977 . S
O212 Zn211 2.032 . S
O212 C216 1.278 . S
C213 O214 1.203 . S
C213 O220 1.267 . S
O214 C213 1.203 . S
O215 C208 1.185 . S
O215 Zn211 2.086 . S
C216 O212 1.278 . S
C216 O217 1.211 . S
O217 C216 1.211 . S
C218 O210 1.284 . S
C218 O219 1.273 . S
O219 C218 1.273 . S
O220 Zn211 1.977 . S
O220 C213 1.267 . S
C221 O222 1.160 . S
C221 O228 1.185 . S
O222 C221 1.160 . S
O223 Zn224 1.899 . S
O223 C231 1.284 . S
Zn224 O223 1.899 . S
Zn224 O225 2.032 . S
Zn224 O228 2.086 . S
Zn224 O233 1.977 . S
O225 Zn224 2.032 . S
O225 C229 1.278 . S
C226 O227 1.203 . S
C226 O233 1.267 . S
O227 C226 1.203 . S
O228 C221 1.185 . S
O228 Zn224 2.086 . S
C229 O225 1.278 . S
C229 O230 1.211 . S
O230 C229 1.211 . S
C231 O223 1.284 . S
C231 O232 1.273 . S
O232 C231 1.273 . S
O233 Zn224 1.977 . S
O233 C226 1.267 . S
C234 O235 1.160 . S
C234 O241 1.185 . S
O235 C234 1.160 . S
O236 Zn237 1.899 . S
O236 C244 1.284 . S
Zn237 O236 1.899 . S
Zn237 O238 2.032 . S
Zn237 O241 2.086 . S
Zn237 O246 1.977 . S
O238 Zn237 2.032 . S
O238 C242 1.278 . S
C239 O240 1.203 . S
C239 O246 1.267 . S
O240 C239 1.203 . S
O241 C234 1.185 . S
O241 Zn237 2.086 . S
C242 O238 1.278 . S
C242 O243 1.211 . S
O243 C242 1.211 . S
C244 O236 1.284 . S
C244 O245 1.273 . S
O245 C244 1.273 . S
O246 Zn237 1.977 . S
O246 C239 1.267 . S
C247 O248 1.160 . S
C247 O254 1.185 . S
O248 C247 1.160 . S
O249 Zn250 1.899 . S
O249 C257 1.284 . S
Zn250 O249 1.899 . S
Zn250 O251 2.032 . S
Zn250 O254 2.086 . S
Zn250 O259 1.977 . S
O251 Zn250 2.032 . S
O251 C255 1.278 . S
C252 O253 1.203 . S
C252 O259 1.267 . S
O253 C252 1.203 . S
O254 C247 1.185 . S
O254 Zn250 2.086 . S
C255 O251 1.278 . S
C255 O256 1.211 . S
O256 C255 1.211 . S
C257 O249 1.284 . S
C257 O258 1.273 . S
O258 C257 1.273 . S
O259 Zn250 1.977 . S
O259 C252 1.267 . S
C260 O261 1.160 . S
C260 O267 1.185 . S
O261 C260 1.160 . S
O262 Zn263 1.899 . S
O262 C270 1.284 . S
Zn263 O262 1.899 . S
Zn263 O264 2.032 . S
Zn263 O267 2.086 . S
Zn263 O272 1.977 . S
O264 Zn263 2.032 . S
O264 C268 1.278 . S
C265 O266 1.203 . S
C265 O272 1.267 . S
O266 C265 1.203 . S
O267 C260 1.185 . S
O267 Zn263 2.086 . S
C268 O264 1.278 . S
C268 O269 1.211 . S
O269 C268 1.211 . S
C270 O262 1.284 . S
C270 O271 1.273 . S
O271 C270 1.273 . S
O272 Zn263 1.977 . S
O272 C265 1.267 . S
C273 O274 1.160 . S
C273 O280 1.185 . S
O274 C273 1.160 . S
O275 Zn276 1.899 . S
O275 C283 1.284 . S
Zn276 O275 1.899 . S
Zn276 O277 2.032 . S
Zn276 O280 2.086 . S
Zn276 O285 1.977 . S
O277 Zn276 2.032 . S
O277 C281 1.278 . S
C278 O279 1.203 . S
C278 O285 1.267 . S
O279 C278 1.203 . S
O280 C273 1.185 . S
O280 Zn276 2.086 . S
C281 O277 1.278 . S
C281 O282 1.211 . S
O282 C281 1.211 . S
C283 O275 1.284 . S
C283 O284 1.273 . S
O284 C283 1.273 . S
O285 Zn276 1.977 . S
O285 C278 1.267 . S
C286 O287 1.160 . S
C286 O293 1.185 . S
O287 C286 1.160 . S
O288 Zn289 1.899 . S
O288 C296 1.284 . S
Zn289 O288 1.899 . S
Zn289 O290 2.032 . S
Zn289 O293 2.086 . S
Zn289 O298 1.977 . S
O290 Zn289 2.032 . S
O290 C294 1.278 . S
C291 O292 1.203 . S
C291 O298 1.267 . S
O292 C291 1.203 . S
O293 C286 1.185 . S
O293 Zn289 2.086 . S
C294 O290 1.278 . S
C294 O295 1.211 . S
O295 C294 1.211 . S
C296 O288 1.284 . S
C296 O297 1.273 . S
O297 C296 1.273 . S
O298 Zn289 1.977 . S
O298 C291 1.267 . S
C299 O300 1.160 . S
C299 O306 1.185 . S
O300 C299 1.160 . S
O301 Zn302 1.899 . S
O301 C309 1.284 . S
Zn302 O301 1.899 . S
Zn302 O303 2.032 . S
Zn302 O306 2.086 . S
Zn302 O311 1.977 . S
O303 Zn302 2.032 . S
O303 C307 1.278 . S
C304 O305 1.203 . S
C304 O311 1.267 . S
O305 C304 1.203 . S
O306 C299 1.185 . S
O306 Zn302 2.086 . S
C307 O303 1.278 . S
C307 O308 1.211 . S
O308 C307 1.211 . S
C309 O301 1.284 . S
C309 O310 1.273 . S
O310 C309 1.273 . S
O311 Zn302 1.977 . S
O311 C304 1.267 . S
C312 O313 1.160 . S
C312 O319 1.185 . S
O313 C312 1.160 . S
O314 Zn315 1.899 . S
O314 C322 1.284 . S
Zn315 O314 1.899 . S
Zn315 O316 2.032 . S
Zn315 O319 2.086 . S
Zn315 O324 1.977 . S
O316 Zn315 2.032 . S
O316 C320 1.278 . S
C317 O318 1.203 . S
C317 O324 1.267 . S
O318 C317 1.203 . S
O319 C312 1.185 . S
O319 Zn315 2.086 . S
C320 O316 1.278 . S
C320 O321 1.211 . S
O321 C320 1.211 . S
C322 O314 1.284 . S
C322 O323 1.273 . S
O323 C322 1.273 . S
O324 Zn315 1.977 . S
O324 C317 1.267 . S
C325 O326 1.160 . S
C325 O332 1.185 . S
O326 C325 1.160 . S
O327 Zn328 1.899 . S
O327 C335 1.284 . S
Zn328 O327 1.899 . S
Zn328 O329 2.032 . S
Zn328 O332 2.086 . S
Zn328 O337 1.977 . S
O329 Zn328 2.032 . S
O329 C333 1.278 . S
C330 O331 1.203 . S
C330 O337 1.267 . S
O331 C330 1.203 . S
O332 C325 1.185 . S
O332 Zn328 2.086 . S
C333 O329 1.278 . S
C333 O334 1.211 . S
O334 C333 1.211 . S
C335 O327 1.284 . S
C335 O336 1.273 . S
O336 C335 1.273 . S
O337 Zn328 1.977 . S
O337 C330 1.267 . S
C338 O339 1.160 . S
C338 O345 1.185 . S
O339 C338 1.160 . S
O340 Zn341 1.899 . S
O340 C348 1.284 . S
Zn341 O340 1.899 . S
Zn341 O342 2.032 . S
Zn341 O345 2.086 . S
Zn341 O350 1.977 . S
O342 Zn341 2.032 . S
O342 C346 1.278 . S
C343 O344 1.203 . S
C343 O350 1.267 . S
O344 C343 1.203 . S
O345 C338 1.185 . S
O345 Zn341 2.086 . S
C346 O342 1.278 . S
C346 O347 1.211 . S
O347 C346 1.211 . S
C348 O340 1.284 . S
C348 O349 1.273 . S
O349 C348 1.273 . S
O350 Zn341 1.977 . S
O350 C343 1.267 . S
C351 O352 1.160 . S
C351 O358 1.185 . S
O352 C351 1.160 . S
O353 Zn354 1.899 . S
O353 C361 1.284 . S
Zn354 O353 1.899 . S
Zn354 O355 2.032 . S
Zn354 O358 2.086 . S
Zn354 O363 1.977 . S
O355 Zn354 2.032 . S
O355 C359 1.278 . S
C356 O357 1.203 . S
C356 O363 1.267 . S
O357 C356 1.203 . S
O358 C351 1.185 . S
O358 Zn354 2.086 . S
C359 O355 1.278 . S
C359 O360 1.211 . S
O360 C359 1.211 . S
C361 O353 1.284 . S
C361 O362 1.273 . S
O362 C361 1.273 . S
O363 Zn354 1.977 . S
O363 C356 1.267 . S
C364 O365 1.160 . S
C364 O371 1.185 . S
O365 C364 1.160 . S
O366 Zn367 1.899 . S
O366 C374 1.284 . S
Zn367 O366 1.899 . S
Zn367 O368 2.032 . S
Zn367 O371 2.086 . S
Zn367 O376 1.977 . S
O368 Zn367 2.032 . S
O368 C372 1.278 . S
C369 O370 1.203 . S
C369 O376 1.267 . S
O370 C369 1.203 . S
O371 C364 1.185 . S
O371 Zn367 2.086 . S
C372 O368 1.278 . S
C372 O373 1.211 . S
O373 C372 1.211 . S
C374 O366 1.284 . S
C374 O375 1.273 . S
O375 C374 1.273 . S
O376 Zn367 1.977 . S
O376 C369 1.267 . S
C377 O378 1.160 . S
C377 O384 1.185 . S
O378 C377 1.160 . S
O379 Zn380 1.899 . S
O379 C387 1.284 . S
Zn380 O379 1.899 . S
Zn380 O381 2.032 . S
Zn380 O384 2.086 . S
Zn380 O389 1.977 . S
O381 Zn380 2.032 . S
O381 C385 1.278 . S
C382 O383 1.203 . S
C382 O389 1.267 . S
O383 C382 1.203 . S
O384 C377 1.185 . S
O384 Zn380 2.086 . S
C385 O381 1.278 . S
C385 O386 1.211 . S
O386 C385 1.211 . S
C387 O379 1.284 . S
C387 O388 1.273 . S
O388 C387 1.273 . S
O389 Zn380 1.977 . S
O389 C382 1.267 . S
C390 O391 1.160 . S
C390 O397 1.185 . S
O391 C390 1.160 . S
O392 Zn393 1.899 . S
O392 C400 1.284 . S
Zn393 O392 1.899 . S
Zn393 O394 2.032 . S
Zn393 O397 2.086 . S
Zn393 O402 1.977 . S
O394 Zn393 2.032 . S
O394 C398 1.278 . S
C395 O396 1.203 . S
C395 O402 1.267 . S
O396 C395 1.203 . S
O397 C390 1.185 . S
O397 Zn393 2.086 . S
C398 O394 1.278 . S
C398 O399 1.211 . S
O399 C398 1.211 . S
C400 O392 1.284 . S
C400 O401 1.273 . S
O401 C400 1.273 . S
O402 Zn393 1.977 . S
O402 C395 1.267 . S
C403 O404 1.160 . S
C403 O410 1.185 . S
O404 C403 1.160 . S
O405 Zn406 1.899 . S
O405 C413 1.284 . S
Zn406 O405 1.899 . S
Zn406 O407 2.032 . S
Zn406 O410 2.086 . S
Zn406 O415 1.977 . S
O407 Zn406 2.032 . S
O407 C411 1.278 . S
C408 O409 1.203 . S
C408 O415 1.267 . S
O409 C408 1.203 . S
O410 C403 1.185 . S
O410 Zn406 2.086 . S
C411 O407 1.278 . S
C411 O412 1.211 . S
O412 C411 1.211 . S
C413 O405 1.284 . S
C413 O414 1.273 . S
O414 C413 1.273 . S
O415 Zn406 1.977 . S
O415 C408 1.267 . S
C416 O417 1.160 . S
C416 O423 1.185 . S
O417 C416 1.160 . S
O418 Zn419 1.899 . S
O418 C426 1.284 . S
Zn419 O418 1.899 . S
Zn419 O420 2.032 . S
Zn419 O423 2.086 . S
Zn419 O428 1.977 . S
O420 Zn419 2.032 . S
O420 C424 1.278 . S
C421 O422 1.203 . S
C421 O428 1.267 . S
O422 C421 1.203 . S
O423 C416 1.185 . S
O423 Zn419 2.086 . S
C424 O420 1.278 . S
C424 O425 1.211 . S
O425 C424 1.211 . S
C426 O418 1.284 . S
C426 O427 1.273 . S
O427 C426 1.273 . S
O428 Zn419 1.977 . S
O428 C421 1.267 . S
C429 O430 1.160 . S
C429 O436 1.185 . S
O430 C429 1.160 . S
O431 Zn432 1.899 . S
O431 C439 1.284 . S
Zn432 O431 1.899 . S
Zn432 O433 2.032 . S
Zn432 O436 2.086 . S
Zn432 O441 1.977 . S
O433 Zn432 2.032 . S
O433 C437 1.278 . S
C434 O435 1.203 . S
C434 O441 1.267 . S
O435 C434 1.203 . S
O436 C429 1.185 . S
O436 Zn432 2.086 . S
C437 O433 1.278 . S
C437 O438 1.211 . S
O438 C437 1.211 . S
C439 O431 1.284 . S
C439 O440 1.273 . S
O440 C439 1.273 . S
O441 Zn432 1.977 . S
O441 C434 1.267 . S
C442 O443 1.160 . S
C442 O449 1.185 . S
O443 C442 1.160 . S
O444 Zn445 1.899 . S
O444 C452 1.284 . S
Zn445 O444 1.899 . S
Zn445 O446 2.032 . S
Zn445 O449 2.086 . S
Zn445 O454 1.977 . S
O446 Zn445 2.032 . S
O446 C450 1.278 . S
C447 O448 1.203 . S
C447 O454 1.267 . S
O448 C447 1.203 . S
O449 C442 1.185 . S
O449 Zn445 2.086 . S
C450 O446 1.278 . S
C450 O451 1.211 . S
O451 C450 1.211 . S
C452 O444 1.284 . S
C452 O453 1.273 . S
O453 C452 1.273 . S
O454 Zn445 1.977 . S
O454 C447 1.267 . S
C455 O456 1.160 . S
C455 O462 1.185 . S
O456 C455 1.160 . S
O457 Zn458 1.899 . S
O457 C465 1.284 . S
Zn458 O457 1.899 . S
Zn458 O459 2.032 . S
Zn458 O462 2.086 . S
Zn458 O467 1.977 . S
O459 Zn458 2.032 . S
O459 C463 1.278 . S
C460 O461 1.203 . S
C460 O467 1.267 . S
O461 C460 1.203 . S
O462 C455 1.185 . S
O462 Zn458 2.086 . S
C463 O459 1.278 . S
C463 O464 1.211 . S
O464 C463 1.211 . S
C465 O457 1.284 . S
C465 O466 1.273 . S
O466 C465 1.273 . S
O467 Zn458 1.977 . S
O467 C460 1.267 . S
C468 O469 1.160 . S
C468 O475 1.185 . S
O469 C468 1.160 . S
O470 Zn471 1.899 . S
O470 C478 1.284 . S
Zn471 O470 1.899 . S
Zn471 O472 2.032 . S
Zn471 O475 2.086 . S
Zn471 O480 1.977 . S
O472 Zn471 2.032 . S
O472 C476 1.278 . S
C473 O474 1.203 . S
C473 O480 1.267 . S
O474 C473 1.203 . S
O475 C468 1.185 . S
O475 Zn471 2.086 . S
C476 O472 1.278 . S
C476 O477 1.211 . S
O477 C476 1.211 . S
C478 O470 1.284 . S
C478 O479 1.273 . S
O479 C478 1.273 . S
O480 Zn471 1.977 . S
O480 C473 1.267 . S
C481 O482 1.160 . S
C481 O488 1.185 . S
O482 C481 1.160 . S
O483 Zn484 1.899 . S
O483 C491 1.284 . S
Zn484 O483 1.899 . S
Zn484 O485 2.032 . S
Zn484 O488 2.086 . S
Zn484 O493 1.977 . S
O485 Zn484 2.032 . S
O485 C489 1.278 . S
C486 O487 1.203 . S
C486 O493 1.267 . S
O487 C486 1.203 . S
O488 C481 1.185 . S
O488 Zn484 2.086 . S
C489 O485 1.278 . S
C489 O490 1.211 . S
O490 C489 1.211 . S
C491 O483 1.284 . S
C491 O492 1.273 . S
O492 C491 1.273 . S
O493 Zn484 1.977 . S
O493 C486 1.267 . S
C494 O495 1.160 . S
C494 O501 1.185 . S
O495 C494 1.160 . S
O496 Zn497 1.899 . S
O496 C504 1.284 . S
Zn497 O496 1.899 . S
Zn497 O498 2.032 . S
Zn497 O501 2.086 . S
Zn497 O506 1.977 . S
O498 Zn497 2.032 . S
O498 C502 1.278 . S
C499 O500 1.203 . S
C499 O506 1.267 . S
O500 C499 1.203 . S
O501 C494 1.185 . S
O501 Zn497 2.086 . S
C502 O498 1.278 . S
C502 O503 1.211 . S
O503 C502 1.211 . S
C504 O496 1.284 . S
C504 O505 1.273 . S
O505 C504 1.273 . S
O506 Zn497 1.977 . S
O506 C499 1.267 . S
C507 O508 1.160 . S
C507 O514 1.185 . S
O508 C507 1.160 . S
O509 Zn510 1.899 . S
O509 C517 1.284 . S
Zn510 O509 1.899 . S
Zn510 O511 2.032 . S
Zn510 O514 2.086 . S
Zn510 O519 1.977 . S
O511 Zn510 2.032 . S
O511 C515 1.278 . S
C512 O513 1.203 . S
C512 O519 1.267 . S
O513 C512 1.203 . S
O514 C507 1.185 . S
O514 Zn510 2.086 . S
C515 O511 1.278 . S
C515 O516 1.211 . S
O516 C515 1.211 . S
C517 O509 1.284 . S
C517 O518 1.273 . S
O518 C517 1.273 . S
O519 Zn510 1.977 . S
O519 C512 1.267 . S
C520 O521 1.160 . S
C520 O527 1.185 . S
O521 C520 1.160 . S
O522 Zn523 1.899 . S
O522 C530 1.284 . S
Zn523 O522 1.899 . S
Zn523 O524 2.032 . S
Zn523 O527 2.086 . S
Zn523 O532 1.977 . S
O524 Zn523 2.032 . S
O524 C528 1.278 . S
C525 O526 1.203 . S
C525 O532 1.267 . S
O526 C525 1.203 . S
O527 C520 1.185 . S
O527 Zn523 2.086 . S
C528 O524 1.278 . S
C528 O529 1.211 . S
O529 C528 1.211 . S
C530 O522 1.284 . S
C530 O531 1.273 . S
O531 C530 1.273 . S
O532 Zn523 1.977 . S
O532 C525 1.267 . S
C533 O534 1.160 . S
C533 O540 1.185 . S
O534 C533 1.160 . S
O535 Zn536 1.899 . S
O535 C543 1.284 . S
Zn536 O535 1.899 . S
Zn536 O537 2.032 . S
Zn536 O540 2.086 . S
Zn536 O545 1.977 . S
O537 Zn536 2.032 . S
O537 C541 1.278 . S
C538 O539 1.203 . S
C538 O545 1.267 . S
O539 C538 1.203 . S
O540 C533 1.185 . S
O540 Zn536 2.086 . S
C541 O537 1.278 . S
C541 O542 1.211 . S
O542 C541 1.211 . S
C543 O535 1.284 . S
C543 O544 1.273 . S
O544 C543 1.273 . S
O545 Zn536 1.977 . S
O545 C538 1.267 . S
C546 O547 1.160 . S
C546 O553 1.185 . S
O547 C546 1.160 . S
O548 Zn549 1.899 . S
O548 C556 1.284 . S
Zn549 O548 1.899 . S
Zn549 O550 2.032 . S
Zn549 O553 2.086 . S
Zn549 O558 1.977 . S
O550 Zn549 2.032 . S
O550 C554 1.278 . S
C551 O552 1.203 . S
C551 O558 1.267 . S
O552 C551 1.203 . S
O553 C546 1.185 . S
O553 Zn549 2.086 . S
C554 O550 1.278 . S
C554 O555 1.211 . S
O555 C554 1.211 . S
C556 O548 1.284 . S
C556 O557 1.273 . S
O557 C556 1.273 . S
O558 Zn549 1.977 . S
O558 C551 1.267 . S
C559 O560 1.160 . S
C559 O566 1.185 . S
O560 C559 1.160 . S
O561 Zn562 1.899 . S
O561 C569 1.284 . S
Zn562 O561 1.899 . S
Zn562 O563 2.032 . S
Zn562 O566 2.086 . S
Zn562 O571 1.977 . S
O563 Zn562 2.032 . S
O563 C567 1.278 . S
C564 O565 1.203 . S
C564 O571 1.267 . S
O565 C564 1.203 . S
O566 C559 1.185 . S
O566 Zn562 2.086 . S
C567 O563 1.278 . S
C567 O568 1.211 . S
O568 C567 1.211 . S
C569 O561 1.284 . S
C569 O570 1.273 . S
O570 C569 1.273 . S
O571 Zn562 1.977 . S
O571 C564 1.267 . S
C572 O573 1.160 . S
C572 O579 1.185 . S
O573 C572 1.160 . S
O574 Zn575 1.899 . S
O574 C582 1.284 . S
Zn575 O574 1.899 . S
Zn575 O576 2.032 . S
Zn575 O579 2.086 . S
Zn575 O584 1.977 . S
O576 Zn575 2.032 . S
O576 C580 1.278 . S
C577 O578 1.203 . S
C577 O584 1.267 . S
O578 C577 1.203 . S
O579 C572 1.185 . S
O579 Zn575 2.086 . S
C580 O576 1.278 . S
C580 O581 1.211 . S
O581 C580 1.211 . S
C582 O574 1.284 . S
C582 O583 1.273 . S
O583 C582 1.273 . S
O584 Zn575 1.977 . S
O584 C577 1.267 . S
C585 O586 1.160 . S
C585 O592 1.185 . S
O586 C585 1.160 . S
O587 Zn588 1.899 . S
O587 C595 1.284 . S
Zn588 O587 1.899 . S
Zn588 O589 2.032 . S
Zn588 O592 2.086 . S
Zn588 O597 1.977 . S
O589 Zn588 2.032 . S
O589 C593 1.278 . S
C590 O591 1.203 . S
C590 O597 1.267 . S
O591 C590 1.203 . S
O592 C585 1.185 . S
O592 Zn588 2.086 . S
C593 O589 1.278 . S
C593 O594 1.211 . S
O594 C593 1.211 . S
C595 O587 1.284 . S
C595 O596 1.273 . S
O596 C595 1.273 . S
O597 Zn588 1.977 . S
O597 C590 1.267 . S
C598 O599 1.160 . S
C598 O605 1.185 . S
O599 C598 1.160 . S
O600 Zn601 1.899 . S
O600 C608 1.284 . S
Zn601 O600 1.899 . S
Zn601 O602 2.032 . S
Zn601 O605 2.086 . S
Zn601 O610 1.977 . S
O602 Zn601 2.032 . S
O602 C606 1.278 . S
C603 O604 1.203 . S
C603 O610 1.267 . S
O604 C603 1.203 . S
O605 C598 1.185 . S
O605 Zn601 2.086 . S
C606 O602 1.278 . S
C606 O607 1.211 . S
O607 C606 1.211 . S
C608 O600 1.284 . S
C608 O609 1.273 . S
O609 C608 1.273 . S
O610 Zn601 1.977 . S
O610 C603 1.267 . S
C611 O612 1.160 . S
C611 O618 1.185 . S
O612 C611 1.160 . S
O613 Zn614 1.899 . S
O613 C621 1.284 . S
Zn614 O613 1.899 . S
Zn614 O615 2.032 . S
Zn614 O618 2.086 . S
Zn614 O623 1.977 . S
O615 Zn614 2.032 . S
O615 C619 1.278 . S
C616 O617 1.203 . S
C616 O623 1.267 . S
O617 C616 1.203 . S
O618 C611 1.185 . S
O618 Zn614 2.086 . S
C619 O615 1.278 . S
C619 O620 1.211 . S
O620 C619 1.211 . S
C621 O613 1.284 . S
C621 O622 1.273 . S
O622 C621 1.273 . S
O623 Zn614 1.977 . S
O623 C616 1.267 . S
C624 C625 1.369 . S
C624 C626 1.419 . S
C624 H628 0.930 . S
C625 C624 1.369 . S
C625 C634 1.429 . S
C626 C624 1.419 . S
C626 C627 1.363 . S
C626 H629 0.929 . S
C627 C626 1.363 . S
C627 C633 1.428 . S
H628 C624 0.930 . S
H629 C626 0.929 . S
S630 N631 1.613 . S
S630 N632 1.610 . S
N631 S630 1.613 . S
N631 C634 1.350 . S
N632 S630 1.610 . S
N632 C633 1.351 . S
C633 C627 1.428 . S
C633 N632 1.351 . S
C633 C634 1.434 . S
C634 C625 1.429 . S
C634 N631 1.350 . S
C634 C633 1.434 . S
C635 C636 1.369 . S
C635 C637 1.419 . S
C635 H639 0.930 . S
C636 C635 1.369 . S
C636 C645 1.429 . S
C637 C635 1.419 . S
C637 C638 1.363 . S
C637 H640 0.929 . S
C638 C637 1.363 . S
C638 C644 1.428 . S
H639 C635 0.930 . S
H640 C637 0.929 . S
S641 N642 1.613 . S
S641 N643 1.610 . S
N642 S641 1.613 . S
N642 C645 1.350 . S
N643 S641 1.610 . S
N643 C644 1.351 . S
C644 C638 1.428 . S
C644 N643 1.351 . S
C644 C645 1.434 . S
C645 C636 1.429 . S
C645 N642 1.350 . S
C645 C644 1.434 . S
C646 C647 1.369 . S
C646 C648 1.419 . S
C646 H650 0.930 . S
C647 C646 1.369 . S
C647 C656 1.429 . S
C648 C646 1.419 . S
C648 C649 1.363 . S
C648 H651 0.929 . S
C649 C648 1.363 . S
C649 C655 1.428 . S
H650 C646 0.930 . S
H651 C648 0.929 . S
S652 N653 1.613 . S
S652 N654 1.610 . S
N653 S652 1.613 . S
N653 C656 1.350 . S
N654 S652 1.610 . S
N654 C655 1.351 . S
C655 C649 1.428 . S
C655 N654 1.351 . S
C655 C656 1.434 . S
C656 C647 1.429 . S
C656 N653 1.350 . S
C656 C655 1.434 . S
C657 C658 1.369 . S
C657 C659 1.419 . S
C657 H661 0.930 . S
C658 C657 1.369 . S
C658 C667 1.429 . S
C659 C657 1.419 . S
C659 C660 1.363 . S
C659 H662 0.929 . S
C660 C659 1.363 . S
C660 C666 1.428 . S
H661 C657 0.930 . S
H662 C659 0.929 . S
S663 N664 1.613 . S
S663 N665 1.610 . S
N664 S663 1.613 . S
N664 C667 1.350 . S
N665 S663 1.610 . S
N665 C666 1.351 . S
C666 C660 1.428 . S
C666 N665 1.351 . S
C666 C667 1.434 . S
C667 C658 1.429 . S
C667 N664 1.350 . S
C667 C666 1.434 . S
C668 C669 1.369 . S
C668 C670 1.419 . S
C668 H672 0.930 . S
C669 C668 1.369 . S
C669 C678 1.429 . S
C670 C668 1.419 . S
C670 C671 1.363 . S
C670 H673 0.929 . S
C671 C670 1.363 . S
C671 C677 1.428 . S
H672 C668 0.930 . S
H673 C670 0.929 . S
S674 N675 1.613 . S
S674 N676 1.610 . S
N675 S674 1.613 . S
N675 C678 1.350 . S
N676 S674 1.610 . S
N676 C677 1.351 . S
C677 C671 1.428 . S
C677 N676 1.351 . S
C677 C678 1.434 . S
C678 C669 1.429 . S
C678 N675 1.350 . S
C678 C677 1.434 . S
C679 C680 1.369 . S
C679 C681 1.419 . S
C679 H683 0.930 . S
C680 C679 1.369 . S
C680 C689 1.429 . S
C681 C679 1.419 . S
C681 C682 1.363 . S
C681 H684 0.929 . S
C682 C681 1.363 . S
C682 C688 1.428 . S
H683 C679 0.930 . S
H684 C681 0.929 . S
S685 N686 1.613 . S
S685 N687 1.610 . S
N686 S685 1.613 . S
N686 C689 1.350 . S
N687 S685 1.610 . S
N687 C688 1.351 . S
C688 C682 1.428 . S
C688 N687 1.351 . S
C688 C689 1.434 . S
C689 C680 1.429 . S
C689 N686 1.350 . S
C689 C688 1.434 . S
C690 C691 1.369 . S
C690 C692 1.419 . S
C690 H694 0.930 . S
C691 C690 1.369 . S
C691 C700 1.429 . S
C692 C690 1.419 . S
C692 C693 1.363 . S
C692 H695 0.929 . S
C693 C692 1.363 . S
C693 C699 1.428 . S
H694 C690 0.930 . S
H695 C692 0.929 . S
S696 N697 1.613 . S
S696 N698 1.610 . S
N697 S696 1.613 . S
N697 C700 1.350 . S
N698 S696 1.610 . S
N698 C699 1.351 . S
C699 C693 1.428 . S
C699 N698 1.351 . S
C699 C700 1.434 . S
C700 C691 1.429 . S
C700 N697 1.350 . S
C700 C699 1.434 . S
C701 C702 1.369 . S
C701 C703 1.419 . S
C701 H705 0.930 . S
C702 C701 1.369 . S
C702 C711 1.429 . S
C703 C701 1.419 . S
C703 C704 1.363 . S
C703 H706 0.929 . S
C704 C703 1.363 . S
C704 C710 1.428 . S
H705 C701 0.930 . S
H706 C703 0.929 . S
S707 N708 1.613 . S
S707 N709 1.610 . S
N708 S707 1.613 . S
N708 C711 1.350 . S
N709 S707 1.610 . S
N709 C710 1.351 . S
C710 C704 1.428 . S
C710 N709 1.351 . S
C710 C711 1.434 . S
C711 C702 1.429 . S
C711 N708 1.350 . S
C711 C710 1.434 . S
C712 C713 1.369 . S
C712 C714 1.419 . S
C712 H716 0.930 . S
C713 C712 1.369 . S
C713 C722 1.429 . S
C714 C712 1.419 . S
C714 C715 1.363 . S
C714 H717 0.929 . S
C715 C714 1.363 . S
C715 C721 1.428 . S
H716 C712 0.930 . S
H717 C714 0.929 . S
S718 N719 1.613 . S
S718 N720 1.610 . S
N719 S718 1.613 . S
N719 C722 1.350 . S
N720 S718 1.610 . S
N720 C721 1.351 . S
C721 C715 1.428 . S
C721 N720 1.351 . S
C721 C722 1.434 . S
C722 C713 1.429 . S
C722 N719 1.350 . S
C722 C721 1.434 . S
C723 C724 1.369 . S
C723 C725 1.419 . S
C723 H727 0.930 . S
C724 C723 1.369 . S
C724 C733 1.429 . S
C725 C723 1.419 . S
C725 C726 1.363 . S
C725 H728 0.929 . S
C726 C725 1.363 . S
C726 C732 1.428 . S
H727 C723 0.930 . S
H728 C725 0.929 . S
S729 N730 1.613 . S
S729 N731 1.610 . S
N730 S729 1.613 . S
N730 C733 1.350 . S
N731 S729 1.610 . S
N731 C732 1.351 . S
C732 C726 1.428 . S
C732 N731 1.351 . S
C732 C733 1.434 . S
C733 C724 1.429 . S
C733 N730 1.350 . S
C733 C732 1.434 . S
C734 C735 1.369 . S
C734 C736 1.419 . S
C734 H738 0.930 . S
C735 C734 1.369 . S
C735 C744 1.429 . S
C736 C734 1.419 . S
C736 C737 1.363 . S
C736 H739 0.929 . S
C737 C736 1.363 . S
C737 C743 1.428 . S
H738 C734 0.930 . S
H739 C736 0.929 . S
S740 N741 1.613 . S
S740 N742 1.610 . S
N741 S740 1.613 . S
N741 C744 1.350 . S
N742 S740 1.610 . S
N742 C743 1.351 . S
C743 C737 1.428 . S
C743 N742 1.351 . S
C743 C744 1.434 . S
C744 C735 1.429 . S
C744 N741 1.350 . S
C744 C743 1.434 . S
C745 C746 1.369 . S
C745 C747 1.419 . S
C745 H749 0.930 . S
C746 C745 1.369 . S
C746 C755 1.429 . S
C747 C745 1.419 . S
C747 C748 1.363 . S
C747 H750 0.929 . S
C748 C747 1.363 . S
C748 C754 1.428 . S
H749 C745 0.930 . S
H750 C747 0.929 . S
S751 N752 1.613 . S
S751 N753 1.610 . S
N752 S751 1.613 . S
N752 C755 1.350 . S
N753 S751 1.610 . S
N753 C754 1.351 . S
C754 C748 1.428 . S
C754 N753 1.351 . S
C754 C755 1.434 . S
C755 C746 1.429 . S
C755 N752 1.350 . S
C755 C754 1.434 . S
C756 C757 1.369 . S
C756 C758 1.419 . S
C756 H760 0.930 . S
C757 C756 1.369 . S
C757 C766 1.429 . S
C758 C756 1.419 . S
C758 C759 1.363 . S
C758 H761 0.929 . S
C759 C758 1.363 . S
C759 C765 1.428 . S
H760 C756 0.930 . S
H761 C758 0.929 . S
S762 N763 1.613 . S
S762 N764 1.610 . S
N763 S762 1.613 . S
N763 C766 1.350 . S
N764 S762 1.610 . S
N764 C765 1.351 . S
C765 C759 1.428 . S
C765 N764 1.351 . S
C765 C766 1.434 . S
C766 C757 1.429 . S
C766 N763 1.350 . S
C766 C765 1.434 . S
C767 C768 1.369 . S
C767 C769 1.419 . S
C767 H771 0.930 . S
C768 C767 1.369 . S
C768 C777 1.429 . S
C769 C767 1.419 . S
C769 C770 1.363 . S
C769 H772 0.929 . S
C770 C769 1.363 . S
C770 C776 1.428 . S
H771 C767 0.930 . S
H772 C769 0.929 . S
S773 N774 1.613 . S
S773 N775 1.610 . S
N774 S773 1.613 . S
N774 C777 1.350 . S
N775 S773 1.610 . S
N775 C776 1.351 . S
C776 C770 1.428 . S
C776 N775 1.351 . S
C776 C777 1.434 . S
C777 C768 1.429 . S
C777 N774 1.350 . S
C777 C776 1.434 . S
C778 C779 1.369 . S
C778 C780 1.419 . S
C778 H782 0.930 . S
C779 C778 1.369 . S
C779 C788 1.429 . S
C780 C778 1.419 . S
C780 C781 1.363 . S
C780 H783 0.929 . S
C781 C780 1.363 . S
C781 C787 1.428 . S
H782 C778 0.930 . S
H783 C780 0.929 . S
S784 N785 1.613 . S
S784 N786 1.610 . S
N785 S784 1.613 . S
N785 C788 1.350 . S
N786 S784 1.610 . S
N786 C787 1.351 . S
C787 C781 1.428 . S
C787 N786 1.351 . S
C787 C788 1.434 . S
C788 C779 1.429 . S
C788 N785 1.350 . S
C788 C787 1.434 . S
C789 C790 1.369 . S
C789 C791 1.419 . S
C789 H793 0.930 . S
C790 C789 1.369 . S
C790 C799 1.429 . S
C791 C789 1.419 . S
C791 C792 1.363 . S
C791 H794 0.929 . S
C792 C791 1.363 . S
C792 C798 1.428 . S
H793 C789 0.930 . S
H794 C791 0.929 . S
S795 N796 1.613 . S
S795 N797 1.610 . S
N796 S795 1.613 . S
N796 C799 1.350 . S
N797 S795 1.610 . S
N797 C798 1.351 . S
C798 C792 1.428 . S
C798 N797 1.351 . S
C798 C799 1.434 . S
C799 C790 1.429 . S
C799 N796 1.350 . S
C799 C798 1.434 . S
C800 C801 1.369 . S
C800 C802 1.419 . S
C800 H804 0.930 . S
C801 C800 1.369 . S
C801 C810 1.429 . S
C802 C800 1.419 . S
C802 C803 1.363 . S
C802 H805 0.929 . S
C803 C802 1.363 . S
C803 C809 1.428 . S
H804 C800 0.930 . S
H805 C802 0.929 . S
S806 N807 1.613 . S
S806 N808 1.610 . S
N807 S806 1.613 . S
N807 C810 1.350 . S
N808 S806 1.610 . S
N808 C809 1.351 . S
C809 C803 1.428 . S
C809 N808 1.351 . S
C809 C810 1.434 . S
C810 C801 1.429 . S
C810 N807 1.350 . S
C810 C809 1.434 . S
C811 C812 1.369 . S
C811 C813 1.419 . S
C811 H815 0.930 . S
C812 C811 1.369 . S
C812 C821 1.429 . S
C813 C811 1.419 . S
C813 C814 1.363 . S
C813 H816 0.929 . S
C814 C813 1.363 . S
C814 C820 1.428 . S
H815 C811 0.930 . S
H816 C813 0.929 . S
S817 N818 1.613 . S
S817 N819 1.610 . S
N818 S817 1.613 . S
N818 C821 1.350 . S
N819 S817 1.610 . S
N819 C820 1.351 . S
C820 C814 1.428 . S
C820 N819 1.351 . S
C820 C821 1.434 . S
C821 C812 1.429 . S
C821 N818 1.350 . S
C821 C820 1.434 . S
C822 C823 1.369 . S
C822 C824 1.419 . S
C822 H826 0.930 . S
C823 C822 1.369 . S
C823 C832 1.429 . S
C824 C822 1.419 . S
C824 C825 1.363 . S
C824 H827 0.929 . S
C825 C824 1.363 . S
C825 C831 1.428 . S
H826 C822 0.930 . S
H827 C824 0.929 . S
S828 N829 1.613 . S
S828 N830 1.610 . S
N829 S828 1.613 . S
N829 C832 1.350 . S
N830 S828 1.610 . S
N830 C831 1.351 . S
C831 C825 1.428 . S
C831 N830 1.351 . S
C831 C832 1.434 . S
C832 C823 1.429 . S
C832 N829 1.350 . S
C832 C831 1.434 . S
C833 C834 1.369 . S
C833 C835 1.419 . S
C833 H837 0.930 . S
C834 C833 1.369 . S
C834 C843 1.429 . S
C835 C833 1.419 . S
C835 C836 1.363 . S
C835 H838 0.929 . S
C836 C835 1.363 . S
C836 C842 1.428 . S
H837 C833 0.930 . S
H838 C835 0.929 . S
S839 N840 1.613 . S
S839 N841 1.610 . S
N840 S839 1.613 . S
N840 C843 1.350 . S
N841 S839 1.610 . S
N841 C842 1.351 . S
C842 C836 1.428 . S
C842 N841 1.351 . S
C842 C843 1.434 . S
C843 C834 1.429 . S
C843 N840 1.350 . S
C843 C842 1.434 . S
C844 C845 1.369 . S
C844 C846 1.419 . S
C844 H848 0.930 . S
C845 C844 1.369 . S
C845 C854 1.429 . S
C846 C844 1.419 . S
C846 C847 1.363 . S
C846 H849 0.929 . S
C847 C846 1.363 . S
C847 C853 1.428 . S
H848 C844 0.930 . S
H849 C846 0.929 . S
S850 N851 1.613 . S
S850 N852 1.610 . S
N851 S850 1.613 . S
N851 C854 1.350 . S
N852 S850 1.610 . S
N852 C853 1.351 . S
C853 C847 1.428 . S
C853 N852 1.351 . S
C853 C854 1.434 . S
C854 C845 1.429 . S
C854 N851 1.350 . S
C854 C853 1.434 . S
C855 C856 1.369 . S
C855 C857 1.419 . S
C855 H859 0.930 . S
C856 C855 1.369 . S
C856 C865 1.429 . S
C857 C855 1.419 . S
C857 C858 1.363 . S
C857 H860 0.929 . S
C858 C857 1.363 . S
C858 C864 1.428 . S
H859 C855 0.930 . S
H860 C857 0.929 . S
S861 N862 1.613 . S
S861 N863 1.610 . S
N862 S861 1.613 . S
N862 C865 1.350 . S
N863 S861 1.610 . S
N863 C864 1.351 . S
C864 C858 1.428 . S
C864 N863 1.351 . S
C864 C865 1.434 . S
C865 C856 1.429 . S
C865 N862 1.350 . S
C865 C864 1.434 . S
C866 C867 1.369 . S
C866 C868 1.419 . S
C866 H870 0.930 . S
C867 C866 1.369 . S
C867 C876 1.429 . S
C868 C866 1.419 . S
C868 C869 1.363 . S
C868 H871 0.929 . S
C869 C868 1.363 . S
C869 C875 1.428 . S
H870 C866 0.930 . S
H871 C868 0.929 . S
S872 N873 1.613 . S
S872 N874 1.610 . S
N873 S872 1.613 . S
N873 C876 1.350 . S
N874 S872 1.610 . S
N874 C875 1.351 . S
C875 C869 1.428 . S
C875 N874 1.351 . S
C875 C876 1.434 . S
C876 C867 1.429 . S
C876 N873 1.350 . S
C876 C875 1.434 . S
C877 C878 1.369 . S
C877 C879 1.419 . S
C877 H881 0.930 . S
C878 C877 1.369 . S
C878 C887 1.429 . S
C879 C877 1.419 . S
C879 C880 1.363 . S
C879 H882 0.929 . S
C880 C879 1.363 . S
C880 C886 1.428 . S
H881 C877 0.930 . S
H882 C879 0.929 . S
S883 N884 1.613 . S
S883 N885 1.610 . S
N884 S883 1.613 . S
N884 C887 1.350 . S
N885 S883 1.610 . S
N885 C886 1.351 . S
C886 C880 1.428 . S
C886 N885 1.351 . S
C886 C887 1.434 . S
C887 C878 1.429 . S
C887 N884 1.350 . S
C887 C886 1.434 . S
C888 C889 1.369 . S
C888 C890 1.419 . S
C888 H892 0.930 . S
C889 C888 1.369 . S
C889 C898 1.429 . S
C890 C888 1.419 . S
C890 C891 1.363 . S
C890 H893 0.929 . S
C891 C890 1.363 . S
C891 C897 1.428 . S
H892 C888 0.930 . S
H893 C890 0.929 . S
S894 N895 1.613 . S
S894 N896 1.610 . S
N895 S894 1.613 . S
N895 C898 1.350 . S
N896 S894 1.610 . S
N896 C897 1.351 . S
C897 C891 1.428 . S
C897 N896 1.351 . S
C897 C898 1.434 . S
C898 C889 1.429 . S
C898 N895 1.350 . S
C898 C897 1.434 . S
C899 C900 1.369 . S
C899 C901 1.419 . S
C899 H903 0.930 . S
C900 C899 1.369 . S
C900 C909 1.429 . S
C901 C899 1.419 . S
C901 C902 1.363 . S
C901 H904 0.929 . S
C902 C901 1.363 . S
C902 C908 1.428 . S
H903 C899 0.930 . S
H904 C901 0.929 . S
S905 N906 1.613 . S
S905 N907 1.610 . S
N906 S905 1.613 . S
N906 C909 1.350 . S
N907 S905 1.610 . S
N907 C908 1.351 . S
C908 C902 1.428 . S
C908 N907 1.351 . S
C908 C909 1.434 . S
C909 C900 1.429 . S
C909 N906 1.350 . S
C909 C908 1.434 . S
C910 C911 1.369 . S
C910 C912 1.419 . S
C910 H914 0.930 . S
C911 C910 1.369 . S
C911 C920 1.429 . S
C912 C910 1.419 . S
C912 C913 1.363 . S
C912 H915 0.929 . S
C913 C912 1.363 . S
C913 C919 1.428 . S
H914 C910 0.930 . S
H915 C912 0.929 . S
S916 N917 1.613 . S
S916 N918 1.610 . S
N917 S916 1.613 . S
N917 C920 1.350 . S
N918 S916 1.610 . S
N918 C919 1.351 . S
C919 C913 1.428 . S
C919 N918 1.351 . S
C919 C920 1.434 . S
C920 C911 1.429 . S
C920 N917 1.350 . S
C920 C919 1.434 . S
C921 C922 1.369 . S
C921 C923 1.419 . S
C921 H925 0.930 . S
C922 C921 1.369 . S
C922 C931 1.429 . S
C923 C921 1.419 . S
C923 C924 1.363 . S
C923 H926 0.929 . S
C924 C923 1.363 . S
C924 C930 1.428 . S
H925 C921 0.930 . S
H926 C923 0.929 . S
S927 N928 1.613 . S
S927 N929 1.610 . S
N928 S927 1.613 . S
N928 C931 1.350 . S
N929 S927 1.610 . S
N929 C930 1.351 . S
C930 C924 1.428 . S
C930 N929 1.351 . S
C930 C931 1.434 . S
C931 C922 1.429 . S
C931 N928 1.350 . S
C931 C930 1.434 . S
C932 C933 1.369 . S
C932 C934 1.419 . S
C932 H936 0.930 . S
C933 C932 1.369 . S
C933 C942 1.429 . S
C934 C932 1.419 . S
C934 C935 1.363 . S
C934 H937 0.929 . S
C935 C934 1.363 . S
C935 C941 1.428 . S
H936 C932 0.930 . S
H937 C934 0.929 . S
S938 N939 1.613 . S
S938 N940 1.610 . S
N939 S938 1.613 . S
N939 C942 1.350 . S
N940 S938 1.610 . S
N940 C941 1.351 . S
C941 C935 1.428 . S
C941 N940 1.351 . S
C941 C942 1.434 . S
C942 C933 1.429 . S
C942 N939 1.350 . S
C942 C941 1.434 . S
C943 C944 1.369 . S
C943 C945 1.419 . S
C943 H947 0.930 . S
C944 C943 1.369 . S
C944 C953 1.429 . S
C945 C943 1.419 . S
C945 C946 1.363 . S
C945 H948 0.929 . S
C946 C945 1.363 . S
C946 C952 1.428 . S
H947 C943 0.930 . S
H948 C945 0.929 . S
S949 N950 1.613 . S
S949 N951 1.610 . S
N950 S949 1.613 . S
N950 C953 1.350 . S
N951 S949 1.610 . S
N951 C952 1.351 . S
C952 C946 1.428 . S
C952 N951 1.351 . S
C952 C953 1.434 . S
C953 C944 1.429 . S
C953 N950 1.350 . S
C953 C952 1.434 . S
C954 C955 1.369 . S
C954 C956 1.419 . S
C954 H958 0.930 . S
C955 C954 1.369 . S
C955 C964 1.429 . S
C956 C954 1.419 . S
C956 C957 1.363 . S
C956 H959 0.929 . S
C957 C956 1.363 . S
C957 C963 1.428 . S
H958 C954 0.930 . S
H959 C956 0.929 . S
S960 N961 1.613 . S
S960 N962 1.610 . S
N961 S960 1.613 . S
N961 C964 1.350 . S
N962 S960 1.610 . S
N962 C963 1.351 . S
C963 C957 1.428 . S
C963 N962 1.351 . S
C963 C964 1.434 . S
C964 C955 1.429 . S
C964 N961 1.350 . S
C964 C963 1.434 . S
C965 C966 1.369 . S
C965 C967 1.419 . S
C965 H969 0.930 . S
C966 C965 1.369 . S
C966 C975 1.429 . S
C967 C965 1.419 . S
C967 C968 1.363 . S
C967 H970 0.929 . S
C968 C967 1.363 . S
C968 C974 1.428 . S
H969 C965 0.930 . S
H970 C967 0.929 . S
S971 N972 1.613 . S
S971 N973 1.610 . S
N972 S971 1.613 . S
N972 C975 1.350 . S
N973 S971 1.610 . S
N973 C974 1.351 . S
C974 C968 1.428 . S
C974 N973 1.351 . S
C974 C975 1.434 . S
C975 C966 1.429 . S
C975 N972 1.350 . S
C975 C974 1.434 . S
C976 C977 1.369 . S
C976 C978 1.419 . S
C976 H980 0.930 . S
C977 C976 1.369 . S
C977 C986 1.429 . S
C978 C976 1.419 . S
C978 C979 1.363 . S
C978 H981 0.929 . S
C979 C978 1.363 . S
C979 C985 1.428 . S
H980 C976 0.930 . S
H981 C978 0.929 . S
S982 N983 1.613 . S
S982 N984 1.610 . S
N983 S982 1.613 . S
N983 C986 1.350 . S
N984 S982 1.610 . S
N984 C985 1.351 . S
C985 C979 1.428 . S
C985 N984 1.351 . S
C985 C986 1.434 . S
C986 C977 1.429 . S
C986 N983 1.350 . S
C986 C985 1.434 . S
C987 C988 1.369 . S
C987 C989 1.419 . S
C987 H991 0.930 . S
C988 C987 1.369 . S
C988 C997 1.429 . S
C989 C987 1.419 . S
C989 C990 1.363 . S
C989 H992 0.929 . S
C990 C989 1.363 . S
C990 C996 1.428 . S
H991 C987 0.930 . S
H992 C989 0.929 . S
S993 N994 1.613 . S
S993 N995 1.610 . S
N994 S993 1.613 . S
N994 C997 1.350 . S
N995 S993 1.610 . S
N995 C996 1.351 . S
C996 C990 1.428 . S
C996 N995 1.351 . S
C996 C997 1.434 . S
C997 C988 1.429 . S
C997 N994 1.350 . S
C997 C996 1.434 . S
C998 C999 1.369 . S
C998 C1000 1.419 . S
C998 H1002 0.930 . S
C999 C998 1.369 . S
C999 C1008 1.429 . S
C1000 C998 1.419 . S
C1000 C1001 1.363 . S
C1000 H1003 0.929 . S
C1001 C1000 1.363 . S
C1001 C1007 1.428 . S
H1002 C998 0.930 . S
H1003 C1000 0.929 . S
S1004 N1005 1.613 . S
S1004 N1006 1.610 . S
N1005 S1004 1.613 . S
N1005 C1008 1.350 . S
N1006 S1004 1.610 . S
N1006 C1007 1.351 . S
C1007 C1001 1.428 . S
C1007 N1006 1.351 . S
C1007 C1008 1.434 . S
C1008 C999 1.429 . S
C1008 N1005 1.350 . S
C1008 C1007 1.434 . S
C1009 C1010 1.369 . S
C1009 C1011 1.419 . S
C1009 H1013 0.930 . S
C1010 C1009 1.369 . S
C1010 C1019 1.429 . S
C1011 C1009 1.419 . S
C1011 C1012 1.363 . S
C1011 H1014 0.929 . S
C1012 C1011 1.363 . S
C1012 C1018 1.428 . S
H1013 C1009 0.930 . S
H1014 C1011 0.929 . S
S1015 N1016 1.613 . S
S1015 N1017 1.610 . S
N1016 S1015 1.613 . S
N1016 C1019 1.350 . S
N1017 S1015 1.610 . S
N1017 C1018 1.351 . S
C1018 C1012 1.428 . S
C1018 N1017 1.351 . S
C1018 C1019 1.434 . S
C1019 C1010 1.429 . S
C1019 N1016 1.350 . S
C1019 C1018 1.434 . S
C1020 C1021 1.369 . S
C1020 C1022 1.419 . S
C1020 H1024 0.930 . S
C1021 C1020 1.369 . S
C1021 C1030 1.429 . S
C1022 C1020 1.419 . S
C1022 C1023 1.363 . S
C1022 H1025 0.929 . S
C1023 C1022 1.363 . S
C1023 C1029 1.428 . S
H1024 C1020 0.930 . S
H1025 C1022 0.929 . S
S1026 N1027 1.613 . S
S1026 N1028 1.610 . S
N1027 S1026 1.613 . S
N1027 C1030 1.350 . S
N1028 S1026 1.610 . S
N1028 C1029 1.351 . S
C1029 C1023 1.428 . S
C1029 N1028 1.351 . S
C1029 C1030 1.434 . S
C1030 C1021 1.429 . S
C1030 N1027 1.350 . S
C1030 C1029 1.434 . S
C1031 C1032 1.369 . S
C1031 C1033 1.419 . S
C1031 H1035 0.930 . S
C1032 C1031 1.369 . S
C1032 C1041 1.429 . S
C1033 C1031 1.419 . S
C1033 C1034 1.363 . S
C1033 H1036 0.929 . S
C1034 C1033 1.363 . S
C1034 C1040 1.428 . S
H1035 C1031 0.930 . S
H1036 C1033 0.929 . S
S1037 N1038 1.613 . S
S1037 N1039 1.610 . S
N1038 S1037 1.613 . S
N1038 C1041 1.350 . S
N1039 S1037 1.610 . S
N1039 C1040 1.351 . S
C1040 C1034 1.428 . S
C1040 N1039 1.351 . S
C1040 C1041 1.434 . S
C1041 C1032 1.429 . S
C1041 N1038 1.350 . S
C1041 C1040 1.434 . S
C1042 C1043 1.369 . S
C1042 C1044 1.419 . S
C1042 H1046 0.930 . S
C1043 C1042 1.369 . S
C1043 C1052 1.429 . S
C1044 C1042 1.419 . S
C1044 C1045 1.363 . S
C1044 H1047 0.929 . S
C1045 C1044 1.363 . S
C1045 C1051 1.428 . S
H1046 C1042 0.930 . S
H1047 C1044 0.929 . S
S1048 N1049 1.613 . S
S1048 N1050 1.610 . S
N1049 S1048 1.613 . S
N1049 C1052 1.350 . S
N1050 S1048 1.610 . S
N1050 C1051 1.351 . S
C1051 C1045 1.428 . S
C1051 N1050 1.351 . S
C1051 C1052 1.434 . S
C1052 C1043 1.429 . S
C1052 N1049 1.350 . S
C1052 C1051 1.434 . S
C1053 C1054 1.369 . S
C1053 C1055 1.419 . S
C1053 H1057 0.930 . S
C1054 C1053 1.369 . S
C1054 C1063 1.429 . S
C1055 C1053 1.419 . S
C1055 C1056 1.363 . S
C1055 H1058 0.929 . S
C1056 C1055 1.363 . S
C1056 C1062 1.428 . S
H1057 C1053 0.930 . S
H1058 C1055 0.929 . S
S1059 N1060 1.613 . S
S1059 N1061 1.610 . S
N1060 S1059 1.613 . S
N1060 C1063 1.350 . S
N1061 S1059 1.610 . S
N1061 C1062 1.351 . S
C1062 C1056 1.428 . S
C1062 N1061 1.351 . S
C1062 C1063 1.434 . S
C1063 C1054 1.429 . S
C1063 N1060 1.350 . S
C1063 C1062 1.434 . S
C1064 C1065 1.369 . S
C1064 C1066 1.419 . S
C1064 H1068 0.930 . S
C1065 C1064 1.369 . S
C1065 C1074 1.429 . S
C1066 C1064 1.419 . S
C1066 C1067 1.363 . S
C1066 H1069 0.929 . S
C1067 C1066 1.363 . S
C1067 C1073 1.428 . S
H1068 C1064 0.930 . S
H1069 C1066 0.929 . S
S1070 N1071 1.613 . S
S1070 N1072 1.610 . S
N1071 S1070 1.613 . S
N1071 C1074 1.350 . S
N1072 S1070 1.610 . S
N1072 C1073 1.351 . S
C1073 C1067 1.428 . S
C1073 N1072 1.351 . S
C1073 C1074 1.434 . S
C1074 C1065 1.429 . S
C1074 N1071 1.350 . S
C1074 C1073 1.434 . S
C1075 C1076 1.369 . S
C1075 C1077 1.419 . S
C1075 H1079 0.930 . S
C1076 C1075 1.369 . S
C1076 C1085 1.429 . S
C1077 C1075 1.419 . S
C1077 C1078 1.363 . S
C1077 H1080 0.929 . S
C1078 C1077 1.363 . S
C1078 C1084 1.428 . S
H1079 C1075 0.930 . S
H1080 C1077 0.929 . S
S1081 N1082 1.613 . S
S1081 N1083 1.610 . S
N1082 S1081 1.613 . S
N1082 C1085 1.350 . S
N1083 S1081 1.610 . S
N1083 C1084 1.351 . S
C1084 C1078 1.428 . S
C1084 N1083 1.351 . S
C1084 C1085 1.434 . S
C1085 C1076 1.429 . S
C1085 N1082 1.350 . S
C1085 C1084 1.434 . S
C1086 C1087 1.369 . S
C1086 C1088 1.419 . S
C1086 H1090 0.930 . S
C1087 C1086 1.369 . S
C1087 C1096 1.429 . S
C1088 C1086 1.419 . S
C1088 C1089 1.363 . S
C1088 H1091 0.929 . S
C1089 C1088 1.363 . S
C1089 C1095 1.428 . S
H1090 C1086 0.930 . S
H1091 C1088 0.929 . S
S1092 N1093 1.613 . S
S1092 N1094 1.610 . S
N1093 S1092 1.613 . S
N1093 C1096 1.350 . S
N1094 S1092 1.610 . S
N1094 C1095 1.351 . S
C1095 C1089 1.428 . S
C1095 N1094 1.351 . S
C1095 C1096 1.434 . S
C1096 C1087 1.429 . S
C1096 N1093 1.350 . S
C1096 C1095 1.434 . S
C1097 C1098 1.369 . S
C1097 C1099 1.419 . S
C1097 H1101 0.930 . S
C1098 C1097 1.369 . S
C1098 C1107 1.429 . S
C1099 C1097 1.419 . S
C1099 C1100 1.363 . S
C1099 H1102 0.929 . S
C1100 C1099 1.363 . S
C1100 C1106 1.428 . S
H1101 C1097 0.930 . S
H1102 C1099 0.929 . S
S1103 N1104 1.613 . S
S1103 N1105 1.610 . S
N1104 S1103 1.613 . S
N1104 C1107 1.350 . S
N1105 S1103 1.610 . S
N1105 C1106 1.351 . S
C1106 C1100 1.428 . S
C1106 N1105 1.351 . S
C1106 C1107 1.434 . S
C1107 C1098 1.429 . S
C1107 N1104 1.350 . S
C1107 C1106 1.434 . S
C1108 C1109 1.369 . S
C1108 C1110 1.419 . S
C1108 H1112 0.930 . S
C1109 C1108 1.369 . S
C1109 C1118 1.429 . S
C1110 C1108 1.419 . S
C1110 C1111 1.363 . S
C1110 H1113 0.929 . S
C1111 C1110 1.363 . S
C1111 C1117 1.428 . S
H1112 C1108 0.930 . S
H1113 C1110 0.929 . S
S1114 N1115 1.613 . S
S1114 N1116 1.610 . S
N1115 S1114 1.613 . S
N1115 C1118 1.350 . S
N1116 S1114 1.610 . S
N1116 C1117 1.351 . S
C1117 C1111 1.428 . S
C1117 N1116 1.351 . S
C1117 C1118 1.434 . S
C1118 C1109 1.429 . S
C1118 N1115 1.350 . S
C1118 C1117 1.434 . S
C1119 C1120 1.369 . S
C1119 C1121 1.419 . S
C1119 H1123 0.930 . S
C1120 C1119 1.369 . S
C1120 C1129 1.429 . S
C1121 C1119 1.419 . S
C1121 C1122 1.363 . S
C1121 H1124 0.929 . S
C1122 C1121 1.363 . S
C1122 C1128 1.428 . S
H1123 C1119 0.930 . S
H1124 C1121 0.929 . S
S1125 N1126 1.613 . S
S1125 N1127 1.610 . S
N1126 S1125 1.613 . S
N1126 C1129 1.350 . S
N1127 S1125 1.610 . S
N1127 C1128 1.351 . S
C1128 C1122 1.428 . S
C1128 N1127 1.351 . S
C1128 C1129 1.434 . S
C1129 C1120 1.429 . S
C1129 N1126 1.350 . S
C1129 C1128 1.434 . S
C1130 C1131 1.369 . S
C1130 C1132 1.419 . S
C1130 H1134 0.930 . S
C1131 C1130 1.369 . S
C1131 C1140 1.429 . S
C1132 C1130 1.419 . S
C1132 C1133 1.363 . S
C1132 H1135 0.929 . S
C1133 C1132 1.363 . S
C1133 C1139 1.428 . S
H1134 C1130 0.930 . S
H1135 C1132 0.929 . S
S1136 N1137 1.613 . S
S1136 N1138 1.610 . S
N1137 S1136 1.613 . S
N1137 C1140 1.350 . S
N1138 S1136 1.610 . S
N1138 C1139 1.351 . S
C1139 C1133 1.428 . S
C1139 N1138 1.351 . S
C1139 C1140 1.434 . S
C1140 C1131 1.429 . S
C1140 N1137 1.350 . S
C1140 C1139 1.434 . S
C1141 C1142 1.369 . S
C1141 C1143 1.419 . S
C1141 H1145 0.930 . S
C1142 C1141 1.369 . S
C1142 C1151 1.429 . S
C1143 C1141 1.419 . S
C1143 C1144 1.363 . S
C1143 H1146 0.929 . S
C1144 C1143 1.363 . S
C1144 C1150 1.428 . S
H1145 C1141 0.930 . S
H1146 C1143 0.929 . S
S1147 N1148 1.613 . S
S1147 N1149 1.610 . S
N1148 S1147 1.613 . S
N1148 C1151 1.350 . S
N1149 S1147 1.610 . S
N1149 C1150 1.351 . S
C1150 C1144 1.428 . S
C1150 N1149 1.351 . S
C1150 C1151 1.434 . S
C1151 C1142 1.429 . S
C1151 N1148 1.350 . S
C1151 C1150 1.434 . S
C1152 C1153 1.369 . S
C1152 C1154 1.419 . S
C1152 H1156 0.930 . S
C1153 C1152 1.369 . S
C1153 C1162 1.429 . S
C1154 C1152 1.419 . S
C1154 C1155 1.363 . S
C1154 H1157 0.929 . S
C1155 C1154 1.363 . S
C1155 C1161 1.428 . S
H1156 C1152 0.930 . S
H1157 C1154 0.929 . S
S1158 N1159 1.613 . S
S1158 N1160 1.610 . S
N1159 S1158 1.613 . S
N1159 C1162 1.350 . S
N1160 S1158 1.610 . S
N1160 C1161 1.351 . S
C1161 C1155 1.428 . S
C1161 N1160 1.351 . S
C1161 C1162 1.434 . S
C1162 C1153 1.429 . S
C1162 N1159 1.350 . S
C1162 C1161 1.434 . S
C1163 C1164 1.369 . S
C1163 C1165 1.419 . S
C1163 H1167 0.930 . S
C1164 C1163 1.369 . S
C1164 C1173 1.429 . S
C1165 C1163 1.419 . S
C1165 C1166 1.363 . S
C1165 H1168 0.929 . S
C1166 C1165 1.363 . S
C1166 C1172 1.428 . S
H1167 C1163 0.930 . S
H1168 C1165 0.929 . S
S1169 N1170 1.613 . S
S1169 N1171 1.610 . S
N1170 S1169 1.613 . S
N1170 C1173 1.350 . S
N1171 S1169 1.610 . S
N1171 C1172 1.351 . S
C1172 C1166 1.428 . S
C1172 N1171 1.351 . S
C1172 C1173 1.434 . S
C1173 C1164 1.429 . S
C1173 N1170 1.350 . S
C1173 C1172 1.434 . S
C1174 C1175 1.369 . S
C1174 C1176 1.419 . S
C1174 H1178 0.930 . S
C1175 C1174 1.369 . S
C1175 C1184 1.429 . S
C1176 C1174 1.419 . S
C1176 C1177 1.363 . S
C1176 H1179 0.929 . S
C1177 C1176 1.363 . S
C1177 C1183 1.428 . S
H1178 C1174 0.930 . S
H1179 C1176 0.929 . S
S1180 N1181 1.613 . S
S1180 N1182 1.610 . S
N1181 S1180 1.613 . S
N1181 C1184 1.350 . S
N1182 S1180 1.610 . S
N1182 C1183 1.351 . S
C1183 C1177 1.428 . S
C1183 N1182 1.351 . S
C1183 C1184 1.434 . S
C1184 C1175 1.429 . S
C1184 N1181 1.350 . S
C1184 C1183 1.434 . S
C1185 C1186 1.369 . S
C1185 C1187 1.419 . S
C1185 H1189 0.930 . S
C1186 C1185 1.369 . S
C1186 C1195 1.429 . S
C1187 C1185 1.419 . S
C1187 C1188 1.363 . S
C1187 H1190 0.929 . S
C1188 C1187 1.363 . S
C1188 C1194 1.428 . S
H1189 C1185 0.930 . S
H1190 C1187 0.929 . S
S1191 N1192 1.613 . S
S1191 N1193 1.610 . S
N1192 S1191 1.613 . S
N1192 C1195 1.350 . S
N1193 S1191 1.610 . S
N1193 C1194 1.351 . S
C1194 C1188 1.428 . S
C1194 N1193 1.351 . S
C1194 C1195 1.434 . S
C1195 C1186 1.429 . S
C1195 N1192 1.350 . S
C1195 C1194 1.434 . S
C1196 C1197 1.369 . S
C1196 C1198 1.419 . S
C1196 H1200 0.930 . S
C1197 C1196 1.369 . S
C1197 C1206 1.429 . S
C1198 C1196 1.419 . S
C1198 C1199 1.363 . S
C1198 H1201 0.929 . S
C1199 C1198 1.363 . S
C1199 C1205 1.428 . S
H1200 C1196 0.930 . S
H1201 C1198 0.929 . S
S1202 N1203 1.613 . S
S1202 N1204 1.610 . S
N1203 S1202 1.613 . S
N1203 C1206 1.350 . S
N1204 S1202 1.610 . S
N1204 C1205 1.351 . S
C1205 C1199 1.428 . S
C1205 N1204 1.351 . S
C1205 C1206 1.434 . S
C1206 C1197 1.429 . S
C1206 N1203 1.350 . S
C1206 C1205 1.434 . S
C1207 C1208 1.369 . S
C1207 C1209 1.419 . S
C1207 H1211 0.930 . S
C1208 C1207 1.369 . S
C1208 C1217 1.429 . S
C1209 C1207 1.419 . S
C1209 C1210 1.363 . S
C1209 H1212 0.929 . S
C1210 C1209 1.363 . S
C1210 C1216 1.428 . S
H1211 C1207 0.930 . S
H1212 C1209 0.929 . S
S1213 N1214 1.613 . S
S1213 N1215 1.610 . S
N1214 S1213 1.613 . S
N1214 C1217 1.350 . S
N1215 S1213 1.610 . S
N1215 C1216 1.351 . S
C1216 C1210 1.428 . S
C1216 N1215 1.351 . S
C1216 C1217 1.434 . S
C1217 C1208 1.429 . S
C1217 N1214 1.350 . S
C1217 C1216 1.434 . S
C1218 C1219 1.369 . S
C1218 C1220 1.419 . S
C1218 H1222 0.930 . S
C1219 C1218 1.369 . S
C1219 C1228 1.429 . S
C1220 C1218 1.419 . S
C1220 C1221 1.363 . S
C1220 H1223 0.929 . S
C1221 C1220 1.363 . S
C1221 C1227 1.428 . S
H1222 C1218 0.930 . S
H1223 C1220 0.929 . S
S1224 N1225 1.613 . S
S1224 N1226 1.610 . S
N1225 S1224 1.613 . S
N1225 C1228 1.350 . S
N1226 S1224 1.610 . S
N1226 C1227 1.351 . S
C1227 C1221 1.428 . S
C1227 N1226 1.351 . S
C1227 C1228 1.434 . S
C1228 C1219 1.429 . S
C1228 N1225 1.350 . S
C1228 C1227 1.434 . S
C1229 C1230 1.369 . S
C1229 C1231 1.419 . S
C1229 H1233 0.930 . S
C1230 C1229 1.369 . S
C1230 C1239 1.429 . S
C1231 C1229 1.419 . S
C1231 C1232 1.363 . S
C1231 H1234 0.929 . S
C1232 C1231 1.363 . S
C1232 C1238 1.428 . S
H1233 C1229 0.930 . S
H1234 C1231 0.929 . S
S1235 N1236 1.613 . S
S1235 N1237 1.610 . S
N1236 S1235 1.613 . S
N1236 C1239 1.350 . S
N1237 S1235 1.610 . S
N1237 C1238 1.351 . S
C1238 C1232 1.428 . S
C1238 N1237 1.351 . S
C1238 C1239 1.434 . S
C1239 C1230 1.429 . S
C1239 N1236 1.350 . S
C1239 C1238 1.434 . S
C1240 C1241 1.369 . S
C1240 C1242 1.419 . S
C1240 H1244 0.930 . S
C1241 C1240 1.369 . S
C1241 C1250 1.429 . S
C1242 C1240 1.419 . S
C1242 C1243 1.363 . S
C1242 H1245 0.929 . S
C1243 C1242 1.363 . S
C1243 C1249 1.428 . S
H1244 C1240 0.930 . S
H1245 C1242 0.929 . S
S1246 N1247 1.613 . S
S1246 N1248 1.610 . S
N1247 S1246 1.613 . S
N1247 C1250 1.350 . S
N1248 S1246 1.610 . S
N1248 C1249 1.351 . S
C1249 C1243 1.428 . S
C1249 N1248 1.351 . S
C1249 C1250 1.434 . S
C1250 C1241 1.429 . S
C1250 N1247 1.350 . S
C1250 C1249 1.434 . S
C1251 C1252 1.369 . S
C1251 C1253 1.419 . S
C1251 H1255 0.930 . S
C1252 C1251 1.369 . S
C1252 C1261 1.429 . S
C1253 C1251 1.419 . S
C1253 C1254 1.363 . S
C1253 H1256 0.929 . S
C1254 C1253 1.363 . S
C1254 C1260 1.428 . S
H1255 C1251 0.930 . S
H1256 C1253 0.929 . S
S1257 N1258 1.613 . S
S1257 N1259 1.610 . S
N1258 S1257 1.613 . S
N1258 C1261 1.350 . S
N1259 S1257 1.610 . S
N1259 C1260 1.351 . S
C1260 C1254 1.428 . S
C1260 N1259 1.351 . S
C1260 C1261 1.434 . S
C1261 C1252 1.429 . S
C1261 N1258 1.350 . S
C1261 C1260 1.434 . S
C1262 C1263 1.369 . S
C1262 C1264 1.419 . S
C1262 H1266 0.930 . S
C1263 C1262 1.369 . S
C1263 C1272 1.429 . S
C1264 C1262 1.419 . S
C1264 C1265 1.363 . S
C1264 H1267 0.929 . S
C1265 C1264 1.363 . S
C1265 C1271 1.428 . S
H1266 C1262 0.930 . S
H1267 C1264 0.929 . S
S1268 N1269 1.613 . S
S1268 N1270 1.610 . S
N1269 S1268 1.613 . S
N1269 C1272 1.350 . S
N1270 S1268 1.610 . S
N1270 C1271 1.351 . S
C1271 C1265 1.428 . S
C1271 N1270 1.351 . S
C1271 C1272 1.434 . S
C1272 C1263 1.429 . S
C1272 N1269 1.350 . S
C1272 C1271 1.434 . S
C1273 C1274 1.369 . S
C1273 C1275 1.419 . S
C1273 H1277 0.930 . S
C1274 C1273 1.369 . S
C1274 C1283 1.429 . S
C1275 C1273 1.419 . S
C1275 C1276 1.363 . S
C1275 H1278 0.929 . S
C1276 C1275 1.363 . S
C1276 C1282 1.428 . S
H1277 C1273 0.930 . S
H1278 C1275 0.929 . S
S1279 N1280 1.613 . S
S1279 N1281 1.610 . S
N1280 S1279 1.613 . S
N1280 C1283 1.350 . S
N1281 S1279 1.610 . S
N1281 C1282 1.351 . S
C1282 C1276 1.428 . S
C1282 N1281 1.351 . S
C1282 C1283 1.434 . S
C1283 C1274 1.429 . S
C1283 N1280 1.350 . S
C1283 C1282 1.434 . S
C1284 C1285 1.369 . S
C1284 C1286 1.419 . S
C1284 H1288 0.930 . S
C1285 C1284 1.369 . S
C1285 C1294 1.429 . S
C1286 C1284 1.419 . S
C1286 C1287 1.363 . S
C1286 H1289 0.929 . S
C1287 C1286 1.363 . S
C1287 C1293 1.428 . S
H1288 C1284 0.930 . S
H1289 C1286 0.929 . S
S1290 N1291 1.613 . S
S1290 N1292 1.610 . S
N1291 S1290 1.613 . S
N1291 C1294 1.350 . S
N1292 S1290 1.610 . S
N1292 C1293 1.351 . S
C1293 C1287 1.428 . S
C1293 N1292 1.351 . S
C1293 C1294 1.434 . S
C1294 C1285 1.429 . S
C1294 N1291 1.350 . S
C1294 C1293 1.434 . S
C1295 C1296 1.369 . S
C1295 C1297 1.419 . S
C1295 H1299 0.930 . S
C1296 C1295 1.369 . S
C1296 C1305 1.429 . S
C1297 C1295 1.419 . S
C1297 C1298 1.363 . S
C1297 H1300 0.929 . S
C1298 C1297 1.363 . S
C1298 C1304 1.428 . S
H1299 C1295 0.930 . S
H1300 C1297 0.929 . S
S1301 N1302 1.613 . S
S1301 N1303 1.610 . S
N1302 S1301 1.613 . S
N1302 C1305 1.350 . S
N1303 S1301 1.610 . S
N1303 C1304 1.351 . S
C1304 C1298 1.428 . S
C1304 N1303 1.351 . S
C1304 C1305 1.434 . S
C1305 C1296 1.429 . S
C1305 N1302 1.350 . S
C1305 C1304 1.434 . S
C1306 C1307 1.369 . S
C1306 C1308 1.419 . S
C1306 H1310 0.930 . S
C1307 C1306 1.369 . S
C1307 C1316 1.429 . S
C1308 C1306 1.419 . S
C1308 C1309 1.363 . S
C1308 H1311 0.929 . S
C1309 C1308 1.363 . S
C1309 C1315 1.428 . S
H1310 C1306 0.930 . S
H1311 C1308 0.929 . S
S1312 N1313 1.613 . S
S1312 N1314 1.610 . S
N1313 S1312 1.613 . S
N1313 C1316 1.350 . S
N1314 S1312 1.610 . S
N1314 C1315 1.351 . S
C1315 C1309 1.428 . S
C1315 N1314 1.351 . S
C1315 C1316 1.434 . S
C1316 C1307 1.429 . S
C1316 N1313 1.350 . S
C1316 C1315 1.434 . S
C1317 C1318 1.369 . S
C1317 C1319 1.419 . S
C1317 H1321 0.930 . S
C1318 C1317 1.369 . S
C1318 C1327 1.429 . S
C1319 C1317 1.419 . S
C1319 C1320 1.363 . S
C1319 H1322 0.929 . S
C1320 C1319 1.363 . S
C1320 C1326 1.428 . S
H1321 C1317 0.930 . S
H1322 C1319 0.929 . S
S1323 N1324 1.613 . S
S1323 N1325 1.610 . S
N1324 S1323 1.613 . S
N1324 C1327 1.350 . S
N1325 S1323 1.610 . S
N1325 C1326 1.351 . S
C1326 C1320 1.428 . S
C1326 N1325 1.351 . S
C1326 C1327 1.434 . S
C1327 C1318 1.429 . S
C1327 N1324 1.350 . S
C1327 C1326 1.434 . S
C1328 C1329 1.369 . S
C1328 C1330 1.419 . S
C1328 H1332 0.930 . S
C1329 C1328 1.369 . S
C1329 C1338 1.429 . S
C1330 C1328 1.419 . S
C1330 C1331 1.363 . S
C1330 H1333 0.929 . S
C1331 C1330 1.363 . S
C1331 C1337 1.428 . S
H1332 C1328 0.930 . S
H1333 C1330 0.929 . S
S1334 N1335 1.613 . S
S1334 N1336 1.610 . S
N1335 S1334 1.613 . S
N1335 C1338 1.350 . S
N1336 S1334 1.610 . S
N1336 C1337 1.351 . S
C1337 C1331 1.428 . S
C1337 N1336 1.351 . S
C1337 C1338 1.434 . S
C1338 C1329 1.429 . S
C1338 N1335 1.350 . S
C1338 C1337 1.434 . S
C1339 C1340 1.369 . S
C1339 C1341 1.419 . S
C1339 H1343 0.930 . S
C1340 C1339 1.369 . S
C1340 C1349 1.429 . S
C1341 C1339 1.419 . S
C1341 C1342 1.363 . S
C1341 H1344 0.929 . S
C1342 C1341 1.363 . S
C1342 C1348 1.428 . S
H1343 C1339 0.930 . S
H1344 C1341 0.929 . S
S1345 N1346 1.613 . S
S1345 N1347 1.610 . S
N1346 S1345 1.613 . S
N1346 C1349 1.350 . S
N1347 S1345 1.610 . S
N1347 C1348 1.351 . S
C1348 C1342 1.428 . S
C1348 N1347 1.351 . S
C1348 C1349 1.434 . S
C1349 C1340 1.429 . S
C1349 N1346 1.350 . S
C1349 C1348 1.434 . S
C1350 C1351 1.369 . S
C1350 C1352 1.419 . S
C1350 H1354 0.930 . S
C1351 C1350 1.369 . S
C1351 C1360 1.429 . S
C1352 C1350 1.419 . S
C1352 C1353 1.363 . S
C1352 H1355 0.929 . S
C1353 C1352 1.363 . S
C1353 C1359 1.428 . S
H1354 C1350 0.930 . S
H1355 C1352 0.929 . S
S1356 N1357 1.613 . S
S1356 N1358 1.610 . S
N1357 S1356 1.613 . S
N1357 C1360 1.350 . S
N1358 S1356 1.610 . S
N1358 C1359 1.351 . S
C1359 C1353 1.428 . S
C1359 N1358 1.351 . S
C1359 C1360 1.434 . S
C1360 C1351 1.429 . S
C1360 N1357 1.350 . S
C1360 C1359 1.434 . S
C1361 C1362 1.369 . S
C1361 C1363 1.419 . S
C1361 H1365 0.930 . S
C1362 C1361 1.369 . S
C1362 C1371 1.429 . S
C1363 C1361 1.419 . S
C1363 C1364 1.363 . S
C1363 H1366 0.929 . S
C1364 C1363 1.363 . S
C1364 C1370 1.428 . S
H1365 C1361 0.930 . S
H1366 C1363 0.929 . S
S1367 N1368 1.613 . S
S1367 N1369 1.610 . S
N1368 S1367 1.613 . S
N1368 C1371 1.350 . S
N1369 S1367 1.610 . S
N1369 C1370 1.351 . S
C1370 C1364 1.428 . S
C1370 N1369 1.351 . S
C1370 C1371 1.434 . S
C1371 C1362 1.429 . S
C1371 N1368 1.350 . S
C1371 C1370 1.434 . S
C1372 C1373 1.369 . S
C1372 C1374 1.419 . S
C1372 H1376 0.930 . S
C1373 C1372 1.369 . S
C1373 C1382 1.429 . S
C1374 C1372 1.419 . S
C1374 C1375 1.363 . S
C1374 H1377 0.929 . S
C1375 C1374 1.363 . S
C1375 C1381 1.428 . S
H1376 C1372 0.930 . S
H1377 C1374 0.929 . S
S1378 N1379 1.613 . S
S1378 N1380 1.610 . S
N1379 S1378 1.613 . S
N1379 C1382 1.350 . S
N1380 S1378 1.610 . S
N1380 C1381 1.351 . S
C1381 C1375 1.428 . S
C1381 N1380 1.351 . S
C1381 C1382 1.434 . S
C1382 C1373 1.429 . S
C1382 N1379 1.350 . S
C1382 C1381 1.434 . S
C1383 C1384 1.369 . S
C1383 C1385 1.419 . S
C1383 H1387 0.930 . S
C1384 C1383 1.369 . S
C1384 C1393 1.429 . S
C1385 C1383 1.419 . S
C1385 C1386 1.363 . S
C1385 H1388 0.929 . S
C1386 C1385 1.363 . S
C1386 C1392 1.428 . S
H1387 C1383 0.930 . S
H1388 C1385 0.929 . S
S1389 N1390 1.613 . S
S1389 N1391 1.610 . S
N1390 S1389 1.613 . S
N1390 C1393 1.350 . S
N1391 S1389 1.610 . S
N1391 C1392 1.351 . S
C1392 C1386 1.428 . S
C1392 N1391 1.351 . S
C1392 C1393 1.434 . S
C1393 C1384 1.429 . S
C1393 N1390 1.350 . S
C1393 C1392 1.434 . S
C1394 C1395 1.369 . S
C1394 C1396 1.419 . S
C1394 H1398 0.930 . S
C1395 C1394 1.369 . S
C1395 C1404 1.429 . S
C1396 C1394 1.419 . S
C1396 C1397 1.363 . S
C1396 H1399 0.929 . S
C1397 C1396 1.363 . S
C1397 C1403 1.428 . S
H1398 C1394 0.930 . S
H1399 C1396 0.929 . S
S1400 N1401 1.613 . S
S1400 N1402 1.610 . S
N1401 S1400 1.613 . S
N1401 C1404 1.350 . S
N1402 S1400 1.610 . S
N1402 C1403 1.351 . S
C1403 C1397 1.428 . S
C1403 N1402 1.351 . S
C1403 C1404 1.434 . S
C1404 C1395 1.429 . S
C1404 N1401 1.350 . S
C1404 C1403 1.434 . S
C1405 C1406 1.369 . S
C1405 C1407 1.419 . S
C1405 H1409 0.930 . S
C1406 C1405 1.369 . S
C1406 C1415 1.429 . S
C1407 C1405 1.419 . S
C1407 C1408 1.363 . S
C1407 H1410 0.929 . S
C1408 C1407 1.363 . S
C1408 C1414 1.428 . S
H1409 C1405 0.930 . S
H1410 C1407 0.929 . S
S1411 N1412 1.613 . S
S1411 N1413 1.610 . S
N1412 S1411 1.613 . S
N1412 C1415 1.350 . S
N1413 S1411 1.610 . S
N1413 C1414 1.351 . S
C1414 C1408 1.428 . S
C1414 N1413 1.351 . S
C1414 C1415 1.434 . S
C1415 C1406 1.429 . S
C1415 N1412 1.350 . S
C1415 C1414 1.434 . S
C1416 C1417 1.369 . S
C1416 C1418 1.419 1_554 S
C1416 H1420 0.930 . S
C1417 C1416 1.369 . S
C1417 C1426 1.429 . S
C1418 C1416 1.419 1_556 S
C1418 C1419 1.363 . S
C1418 H1421 0.929 . S
C1419 C1418 1.363 . S
C1419 C1425 1.428 . S
H1420 C1416 0.930 . S
H1421 C1418 0.929 . S
S1422 N1423 1.613 1_556 S
S1422 N1424 1.610 . S
N1423 S1422 1.613 1_554 S
N1423 C1426 1.350 . S
N1424 S1422 1.610 . S
N1424 C1425 1.351 . S
C1425 C1419 1.428 . S
C1425 N1424 1.351 . S
C1425 C1426 1.434 1_556 S
C1426 C1417 1.429 . S
C1426 N1423 1.350 . S
C1426 C1425 1.434 1_554 S
C1427 C1428 1.369 . S
C1427 C1429 1.419 1_556 S
C1427 H1431 0.930 . S
C1428 C1427 1.369 . S
C1428 C1437 1.429 . S
C1429 C1427 1.419 1_554 S
C1429 C1430 1.363 . S
C1429 H1432 0.929 . S
C1430 C1429 1.363 . S
C1430 C1436 1.428 . S
H1431 C1427 0.930 . S
H1432 C1429 0.929 . S
S1433 N1434 1.613 1_554 S
S1433 N1435 1.610 . S
N1434 S1433 1.613 1_556 S
N1434 C1437 1.350 . S
N1435 S1433 1.610 . S
N1435 C1436 1.351 . S
C1436 C1430 1.428 . S
C1436 N1435 1.351 . S
C1436 C1437 1.434 1_554 S
C1437 C1428 1.429 . S
C1437 N1434 1.350 . S
C1437 C1436 1.434 1_556 S
C1438 C1439 1.369 . S
C1438 C1440 1.419 1_554 S
C1438 H1442 0.930 . S
C1439 C1438 1.369 . S
C1439 C1448 1.429 . S
C1440 C1438 1.419 1_556 S
C1440 C1441 1.363 . S
C1440 H1443 0.929 . S
C1441 C1440 1.363 . S
C1441 C1447 1.428 . S
H1442 C1438 0.930 . S
H1443 C1440 0.929 . S
S1444 N1445 1.613 . S
S1444 N1446 1.610 1_554 S
N1445 S1444 1.613 . S
N1445 C1448 1.350 . S
N1446 S1444 1.610 1_556 S
N1446 C1447 1.351 . S
C1447 C1441 1.428 . S
C1447 N1446 1.351 . S
C1447 C1448 1.434 1_556 S
C1448 C1439 1.429 . S
C1448 N1445 1.350 . S
C1448 C1447 1.434 1_554 S
C1449 C1450 1.369 . S
C1449 C1451 1.419 1_554 S
C1449 H1453 0.930 . S
C1450 C1449 1.369 . S
C1450 C1459 1.429 . S
C1451 C1449 1.419 1_556 S
C1451 C1452 1.363 . S
C1451 H1454 0.929 . S
C1452 C1451 1.363 . S
C1452 C1458 1.428 . S
H1453 C1449 0.930 . S
H1454 C1451 0.929 . S
S1455 N1456 1.613 . S
S1455 N1457 1.610 1_554 S
N1456 S1455 1.613 . S
N1456 C1459 1.350 . S
N1457 S1455 1.610 1_556 S
N1457 C1458 1.351 . S
C1458 C1452 1.428 . S
C1458 N1457 1.351 . S
C1458 C1459 1.434 1_556 S
C1459 C1450 1.429 . S
C1459 N1456 1.350 . S
C1459 C1458 1.434 1_554 S
C1460 C1461 1.369 . S
C1460 C1462 1.419 1_556 S
C1460 H1464 0.930 . S
C1461 C1460 1.369 . S
C1461 C1470 1.429 . S
C1462 C1460 1.419 1_554 S
C1462 C1463 1.363 . S
C1462 H1465 0.929 . S
C1463 C1462 1.363 . S
C1463 C1469 1.428 . S
H1464 C1460 0.930 . S
H1465 C1462 0.929 . S
S1466 N1467 1.613 . S
S1466 N1468 1.610 1_556 S
N1467 S1466 1.613 . S
N1467 C1470 1.350 . S
N1468 S1466 1.610 1_554 S
N1468 C1469 1.351 . S
C1469 C1463 1.428 . S
C1469 N1468 1.351 . S
C1469 C1470 1.434 1_554 S
C1470 C1461 1.429 . S
C1470 N1467 1.350 . S
C1470 C1469 1.434 1_556 S
C1471 C1472 1.369 . S
C1471 C1473 1.419 1_554 S
C1471 H1475 0.930 . S
C1472 C1471 1.369 . S
C1472 C1481 1.429 . S
C1473 C1471 1.419 1_556 S
C1473 C1474 1.363 . S
C1473 H1476 0.929 . S
C1474 C1473 1.363 . S
C1474 C1480 1.428 . S
H1475 C1471 0.930 . S
H1476 C1473 0.929 . S
S1477 N1478 1.613 1_556 S
S1477 N1479 1.610 . S
N1478 S1477 1.613 1_554 S
N1478 C1481 1.350 . S
N1479 S1477 1.610 . S
N1479 C1480 1.351 . S
C1480 C1474 1.428 . S
C1480 N1479 1.351 . S
C1480 C1481 1.434 1_556 S
C1481 C1472 1.429 . S
C1481 N1478 1.350 . S
C1481 C1480 1.434 1_554 S
C1482 C1483 1.369 . S
C1482 C1484 1.419 1_556 S
C1482 H1486 0.930 . S
C1483 C1482 1.369 . S
C1483 C1492 1.429 . S
C1484 C1482 1.419 1_554 S
C1484 C1485 1.363 . S
C1484 H1487 0.929 . S
C1485 C1484 1.363 . S
C1485 C1491 1.428 . S
H1486 C1482 0.930 . S
H1487 C1484 0.929 . S
S1488 N1489 1.613 1_554 S
S1488 N1490 1.610 . S
N1489 S1488 1.613 1_556 S
N1489 C1492 1.350 . S
N1490 S1488 1.610 . S
N1490 C1491 1.351 . S
C1491 C1485 1.428 . S
C1491 N1490 1.351 . S
C1491 C1492 1.434 1_554 S
C1492 C1483 1.429 . S
C1492 N1489 1.350 . S
C1492 C1491 1.434 1_556 S
C1493 C1494 1.369 . S
C1493 C1495 1.419 1_554 S
C1493 H1497 0.930 . S
C1494 C1493 1.369 . S
C1494 C1503 1.429 . S
C1495 C1493 1.419 1_556 S
C1495 C1496 1.363 . S
C1495 H1498 0.929 . S
C1496 C1495 1.363 . S
C1496 C1502 1.428 . S
H1497 C1493 0.930 . S
H1498 C1495 0.929 . S
S1499 N1500 1.613 . S
S1499 N1501 1.610 1_554 S
N1500 S1499 1.613 . S
N1500 C1503 1.350 . S
N1501 S1499 1.610 1_556 S
N1501 C1502 1.351 . S
C1502 C1496 1.428 . S
C1502 N1501 1.351 . S
C1502 C1503 1.434 1_556 S
C1503 C1494 1.429 . S
C1503 N1500 1.350 . S
C1503 C1502 1.434 1_554 S
C1504 C1505 1.369 . S
C1504 C1506 1.419 1_455 S
C1504 H1508 0.930 . S
C1505 C1504 1.369 . S
C1505 C1514 1.429 . S
C1506 C1504 1.419 1_655 S
C1506 C1507 1.363 . S
C1506 H1509 0.929 . S
C1507 C1506 1.363 . S
C1507 C1513 1.428 . S
H1508 C1504 0.930 . S
H1509 C1506 0.929 . S
S1510 N1511 1.613 . S
S1510 N1512 1.610 1_455 S
N1511 S1510 1.613 . S
N1511 C1514 1.350 . S
N1512 S1510 1.610 1_655 S
N1512 C1513 1.351 . S
C1513 C1507 1.428 . S
C1513 N1512 1.351 . S
C1513 C1514 1.434 1_655 S
C1514 C1505 1.429 . S
C1514 N1511 1.350 . S
C1514 C1513 1.434 1_455 S
C1515 C1516 1.369 . S
C1515 C1517 1.419 1_565 S
C1515 H1519 0.930 . S
C1516 C1515 1.369 . S
C1516 C1525 1.429 . S
C1517 C1515 1.419 1_545 S
C1517 C1518 1.363 . S
C1517 H1520 0.929 . S
C1518 C1517 1.363 . S
C1518 C1524 1.428 . S
H1519 C1515 0.930 . S
H1520 C1517 0.929 . S
S1521 N1522 1.613 1_545 S
S1521 N1523 1.610 . S
N1522 S1521 1.613 1_565 S
N1522 C1525 1.350 . S
N1523 S1521 1.610 . S
N1523 C1524 1.351 . S
C1524 C1518 1.428 . S
C1524 N1523 1.351 . S
C1524 C1525 1.434 1_545 S
C1525 C1516 1.429 . S
C1525 N1522 1.350 . S
C1525 C1524 1.434 1_565 S
C1526 C1527 1.369 . S
C1526 C1528 1.419 1_455 S
C1526 H1530 0.930 . S
C1527 C1526 1.369 . S
C1527 C1536 1.429 . S
C1528 C1526 1.419 1_655 S
C1528 C1529 1.363 . S
C1528 H1531 0.929 . S
C1529 C1528 1.363 . S
C1529 C1535 1.428 . S
H1530 C1526 0.930 . S
H1531 C1528 0.929 . S
S1532 N1533 1.613 1_655 S
S1532 N1534 1.610 . S
N1533 S1532 1.613 1_455 S
N1533 C1536 1.350 . S
N1534 S1532 1.610 . S
N1534 C1535 1.351 . S
C1535 C1529 1.428 . S
C1535 N1534 1.351 . S
C1535 C1536 1.434 1_655 S
C1536 C1527 1.429 . S
C1536 N1533 1.350 . S
C1536 C1535 1.434 1_455 S
C1537 C1538 1.369 . S
C1537 C1539 1.419 1_565 S
C1537 H1541 0.930 . S
C1538 C1537 1.369 . S
C1538 C1547 1.429 . S
C1539 C1537 1.419 1_545 S
C1539 C1540 1.363 . S
C1539 H1542 0.929 . S
C1540 C1539 1.363 . S
C1540 C1546 1.428 . S
H1541 C1537 0.930 . S
H1542 C1539 0.929 . S
S1543 N1544 1.613 1_545 S
S1543 N1545 1.610 . S
N1544 S1543 1.613 1_565 S
N1544 C1547 1.350 . S
N1545 S1543 1.610 . S
N1545 C1546 1.351 . S
C1546 C1540 1.428 . S
C1546 N1545 1.351 . S
C1546 C1547 1.434 1_545 S
C1547 C1538 1.429 . S
C1547 N1544 1.350 . S
C1547 C1546 1.434 1_565 S
C1548 C1549 1.369 . S
C1548 C1550 1.419 1_655 S
C1548 H1552 0.930 . S
C1549 C1548 1.369 . S
C1549 C1558 1.429 . S
C1550 C1548 1.419 1_455 S
C1550 C1551 1.363 . S
C1550 H1553 0.929 . S
C1551 C1550 1.363 . S
C1551 C1557 1.428 . S
H1552 C1548 0.930 . S
H1553 C1550 0.929 . S
S1554 N1555 1.613 . S
S1554 N1556 1.610 1_655 S
N1555 S1554 1.613 . S
N1555 C1558 1.350 . S
N1556 S1554 1.610 1_455 S
N1556 C1557 1.351 . S
C1557 C1551 1.428 . S
C1557 N1556 1.351 . S
C1557 C1558 1.434 1_455 S
C1558 C1549 1.429 . S
C1558 N1555 1.350 . S
C1558 C1557 1.434 1_655 S
C1559 C1560 1.369 . S
C1559 C1561 1.419 1_545 S
C1559 H1563 0.930 . S
C1560 C1559 1.369 . S
C1560 C1569 1.429 . S
C1561 C1559 1.419 1_565 S
C1561 C1562 1.363 . S
C1561 H1564 0.929 . S
C1562 C1561 1.363 . S
C1562 C1568 1.428 . S
H1563 C1559 0.930 . S
H1564 C1561 0.929 . S
S1565 N1566 1.613 . S
S1565 N1567 1.610 1_545 S
N1566 S1565 1.613 . S
N1566 C1569 1.350 . S
N1567 S1565 1.610 1_565 S
N1567 C1568 1.351 . S
C1568 C1562 1.428 . S
C1568 N1567 1.351 . S
C1568 C1569 1.434 1_565 S
C1569 C1560 1.429 . S
C1569 N1566 1.350 . S
C1569 C1568 1.434 1_545 S
C1570 C1571 1.369 . S
C1570 C1572 1.419 1_455 S
C1570 H1574 0.930 . S
C1571 C1570 1.369 . S
C1571 C1580 1.429 . S
C1572 C1570 1.419 1_655 S
C1572 C1573 1.363 . S
C1572 H1575 0.929 . S
C1573 C1572 1.363 . S
C1573 C1579 1.428 . S
H1574 C1570 0.930 . S
H1575 C1572 0.929 . S
S1576 N1577 1.613 1_655 S
S1576 N1578 1.610 . S
N1577 S1576 1.613 1_455 S
N1577 C1580 1.350 . S
N1578 S1576 1.610 . S
N1578 C1579 1.351 . S
C1579 C1573 1.428 . S
C1579 N1578 1.351 . S
C1579 C1580 1.434 1_655 S
C1580 C1571 1.429 . S
C1580 N1577 1.350 . S
C1580 C1579 1.434 1_455 S
C1581 C1582 1.369 . S
C1581 C1583 1.419 1_545 S
C1581 H1585 0.930 . S
C1582 C1581 1.369 . S
C1582 C1591 1.429 . S
C1583 C1581 1.419 1_565 S
C1583 C1584 1.363 . S
C1583 H1586 0.929 . S
C1584 C1583 1.363 . S
C1584 C1590 1.428 . S
H1585 C1581 0.930 . S
H1586 C1583 0.929 . S
S1587 N1588 1.613 1_565 S
S1587 N1589 1.610 . S
N1588 S1587 1.613 1_545 S
N1588 C1591 1.350 . S
N1589 S1587 1.610 . S
N1589 C1590 1.351 . S
C1590 C1584 1.428 . S
C1590 N1589 1.351 . S
C1590 C1591 1.434 1_565 S
C1591 C1582 1.429 . S
C1591 N1588 1.350 . S
C1591 C1590 1.434 1_545 S
C1592 C1593 1.369 . S
C1592 C1594 1.419 1_545 S
C1592 H1596 0.930 . S
C1593 C1592 1.369 . S
C1593 C1602 1.429 . S
C1594 C1592 1.419 1_565 S
C1594 C1595 1.363 . S
C1594 H1597 0.929 . S
C1595 C1594 1.363 . S
C1595 C1601 1.428 . S
H1596 C1592 0.930 . S
H1597 C1594 0.929 . S
S1598 N1599 1.613 . S
S1598 N1600 1.610 1_545 S
N1599 S1598 1.613 . S
N1599 C1602 1.350 . S
N1600 S1598 1.610 1_565 S
N1600 C1601 1.351 . S
C1601 C1595 1.428 . S
C1601 N1600 1.351 . S
C1601 C1602 1.434 1_565 S
C1602 C1593 1.429 . S
C1602 N1599 1.350 . S
C1602 C1601 1.434 1_545 S
C1603 C1604 1.369 . S
C1603 C1605 1.419 1_545 S
C1603 H1607 0.930 . S
C1604 C1603 1.369 . S
C1604 C1613 1.429 . S
C1605 C1603 1.419 1_565 S
C1605 C1606 1.363 . S
C1605 H1608 0.929 . S
C1606 C1605 1.363 . S
C1606 C1612 1.428 . S
H1607 C1603 0.930 . S
H1608 C1605 0.929 . S
S1609 N1610 1.613 . S
S1609 N1611 1.610 1_545 S
N1610 S1609 1.613 . S
N1610 C1613 1.350 . S
N1611 S1609 1.610 1_565 S
N1611 C1612 1.351 . S
C1612 C1606 1.428 . S
C1612 N1611 1.351 . S
C1612 C1613 1.434 1_565 S
C1613 C1604 1.429 . S
C1613 N1610 1.350 . S
C1613 C1612 1.434 1_545 S
C1614 C1615 1.369 . S
C1614 C1616 1.419 1_655 S
C1614 H1618 0.930 . S
C1615 C1614 1.369 . S
C1615 C1624 1.429 . S
C1616 C1614 1.419 1_455 S
C1616 C1617 1.363 . S
C1616 H1619 0.929 . S
C1617 C1616 1.363 . S
C1617 C1623 1.428 . S
H1618 C1614 0.930 . S
H1619 C1616 0.929 . S
S1620 N1621 1.613 1_455 S
S1620 N1622 1.610 . S
N1621 S1620 1.613 1_655 S
N1621 C1624 1.350 . S
N1622 S1620 1.610 . S
N1622 C1623 1.351 . S
C1623 C1617 1.428 . S
C1623 N1622 1.351 . S
C1623 C1624 1.434 1_455 S
C1624 C1615 1.429 . S
C1624 N1621 1.350 . S
C1624 C1623 1.434 1_655 S
C1625 C1626 1.369 . S
C1625 C1627 1.419 1_545 S
C1625 H1629 0.930 . S
C1626 C1625 1.369 . S
C1626 C1635 1.429 . S
C1627 C1625 1.419 1_565 S
C1627 C1628 1.363 . S
C1627 H1630 0.929 . S
C1628 C1627 1.363 . S
C1628 C1634 1.428 . S
H1629 C1625 0.930 . S
H1630 C1627 0.929 . S
S1631 N1632 1.613 1_565 S
S1631 N1633 1.610 . S
N1632 S1631 1.613 1_545 S
N1632 C1635 1.350 . S
N1633 S1631 1.610 . S
N1633 C1634 1.351 . S
C1634 C1628 1.428 . S
C1634 N1633 1.351 . S
C1634 C1635 1.434 1_565 S
C1635 C1626 1.429 . S
C1635 N1632 1.350 . S
C1635 C1634 1.434 1_545 S
C1636 C1637 1.369 . S
C1636 C1638 1.419 1_455 S
C1636 H1640 0.930 . S
C1637 C1636 1.369 . S
C1637 C1646 1.429 . S
C1638 C1636 1.419 1_655 S
C1638 C1639 1.363 . S
C1638 H1641 0.929 . S
C1639 C1638 1.363 . S
C1639 C1645 1.428 . S
H1640 C1636 0.930 . S
H1641 C1638 0.929 . S
S1642 N1643 1.613 . S
S1642 N1644 1.610 1_455 S
N1643 S1642 1.613 . S
N1643 C1646 1.350 . S
N1644 S1642 1.610 1_655 S
N1644 C1645 1.351 . S
C1645 C1639 1.428 . S
C1645 N1644 1.351 . S
C1645 C1646 1.434 1_655 S
C1646 C1637 1.429 . S
C1646 N1643 1.350 . S
C1646 C1645 1.434 1_455 S
C1647 C1648 1.369 . S
C1647 C1649 1.419 1_545 S
C1647 H1651 0.930 . S
C1648 C1647 1.369 . S
C1648 C1657 1.429 . S
C1649 C1647 1.419 1_565 S
C1649 C1650 1.363 . S
C1649 H1652 0.929 . S
C1650 C1649 1.363 . S
C1650 C1656 1.428 . S
H1651 C1647 0.930 . S
H1652 C1649 0.929 . S
S1653 N1654 1.613 1_565 S
S1653 N1655 1.610 . S
N1654 S1653 1.613 1_545 S
N1654 C1657 1.350 . S
N1655 S1653 1.610 . S
N1655 C1656 1.351 . S
C1656 C1650 1.428 . S
C1656 N1655 1.351 . S
C1656 C1657 1.434 1_565 S
C1657 C1648 1.429 . S
C1657 N1654 1.350 . S
C1657 C1656 1.434 1_545 S
C1658 C1659 1.369 . S
C1658 C1660 1.419 1_655 S
C1658 H1662 0.930 . S
C1659 C1658 1.369 . S
C1659 C1668 1.429 . S
C1660 C1658 1.419 1_455 S
C1660 C1661 1.363 . S
C1660 H1663 0.929 . S
C1661 C1660 1.363 . S
C1661 C1667 1.428 . S
H1662 C1658 0.930 . S
H1663 C1660 0.929 . S
S1664 N1665 1.613 . S
S1664 N1666 1.610 1_655 S
N1665 S1664 1.613 . S
N1665 C1668 1.350 . S
N1666 S1664 1.610 1_455 S
N1666 C1667 1.351 . S
C1667 C1661 1.428 . S
C1667 N1666 1.351 . S
C1667 C1668 1.434 1_455 S
C1668 C1659 1.429 . S
C1668 N1665 1.350 . S
C1668 C1667 1.434 1_655 S
C1669 C1670 1.369 . S
C1669 C1671 1.419 1_455 S
C1669 H1673 0.930 . S
C1670 C1669 1.369 . S
C1670 C1679 1.429 . S
C1671 C1669 1.419 1_655 S
C1671 C1672 1.363 . S
C1671 H1674 0.929 . S
C1672 C1671 1.363 . S
C1672 C1678 1.428 . S
H1673 C1669 0.930 . S
H1674 C1671 0.929 . S
S1675 N1676 1.613 . S
S1675 N1677 1.610 1_455 S
N1676 S1675 1.613 . S
N1676 C1679 1.350 . S
N1677 S1675 1.610 1_655 S
N1677 C1678 1.351 . S
C1678 C1672 1.428 . S
C1678 N1677 1.351 . S
C1678 C1679 1.434 1_655 S
C1679 C1670 1.429 . S
C1679 N1676 1.350 . S
C1679 C1678 1.434 1_455 S
C625 C517 1.441 . S
C627 C10 1.442 . S
C636 C13 1.151 . S
C638 C478 1.160 . S
C647 C36 1.312 . S
C649 C481 1.305 . S
C658 C494 1.219 . S
C660 C39 1.236 . S
C669 C429 1.217 . S
C671 C52 1.238 . S
C680 C75 1.347 . S
C682 C452 1.340 . S
C691 C78 1.167 . S
C693 C465 1.178 . S
C702 C101 1.430 . S
C704 C426 1.428 . S
C713 C104 1.383 . S
C715 C413 1.401 . S
C724 C364 1.146 . S
C726 C117 1.139 . S
C735 C387 1.349 . S
C737 C140 1.341 . S
C746 C153 1.268 . S
C748 C390 1.263 . S
C757 C166 1.203 . S
C759 C325 1.196 . S
C768 C179 1.347 . S
C770 C348 1.353 . S
C779 C351 1.168 . S
C781 C182 1.152 . S
C790 C322 1.395 . S
C792 C195 1.382 . S
C801 C208 1.336 . S
C803 C572 1.344 . S
C812 C621 1.229 . S
C814 C231 1.227 . S
C823 C585 1.258 . S
C825 C234 1.264 . S
C834 C608 1.193 . S
C836 C257 1.196 . S
C845 C520 1.355 . S
C847 C260 1.344 . S
C856 C546 1.319 . S
C858 C273 1.328 . S
C867 C296 1.240 . S
C869 C569 1.240 . S
C878 C543 1.190 . S
C880 C309 1.191 . S
C889 C416 1.395 . S
C891 C270 1.408 . S
C900 C221 1.248 . S
C902 C439 1.265 . S
C911 C442 1.305 . S
C913 C244 1.311 . S
C922 C455 1.129 . S
C924 C247 1.131 . S
C933 C299 1.129 . S
C935 C468 1.123 . S
C944 C491 1.341 . S
C946 C283 1.350 . S
C955 C286 1.272 . S
C957 C504 1.279 . S
C966 C218 1.396 . S
C968 C507 1.378 . S
C977 C530 1.445 . S
C979 C205 1.443 . S
C988 C156 1.198 . S
C990 C611 1.203 . S
C999 C595 1.307 . S
C1001 C169 1.300 . S
C1010 C192 1.243 . S
C1012 C598 1.229 . S
C1021 C127 1.171 . S
C1023 C533 1.161 . S
C1032 C130 1.302 . S
C1034 C556 1.314 . S
C1043 C143 1.208 . S
C1045 C559 1.225 . S
C1054 C582 1.436 . S
C1056 C114 1.435 . S
C1065 C312 1.334 . S
C1067 C91 1.344 . S
C1076 C374 1.192 . S
C1078 C23 1.191 . S
C1087 C377 1.313 . S
C1089 C26 1.302 . S
C1098 C400 1.238 . S
C1100 C49 1.239 . S
C1109 C403 1.344 . S
C1111 C0 1.352 . S
C1120 C65 1.352 . S
C1122 C338 1.357 . S
C1131 C361 1.205 . S
C1133 C88 1.206 . S
C1142 C335 1.233 . S
C1144 C62 1.232 . S
C1153 C8 1.417 . S
C1155 C346 1.416 . S
C1164 C356 1.242 . S
C1166 C18 1.224 . S
C1175 C34 1.400 . S
C1177 C320 1.402 . S
C1186 C44 1.267 . S
C1188 C330 1.254 . S
C1197 C57 1.271 . S
C1199 C395 1.258 . S
C1208 C411 1.426 . S
C1210 C73 1.413 . S
C1219 C83 1.230 . S
C1221 C369 1.245 . S
C1230 C385 1.408 . S
C1232 C99 1.413 . S
C1241 C109 1.328 . S
C1243 C476 1.331 . S
C1252 C486 1.252 . S
C1254 C122 1.249 . S
C1263 C138 1.313 . S
C1265 C499 1.331 . S
C1274 C151 1.404 . S
C1276 C515 1.393 . S
C1285 C164 1.357 . S
C1287 C424 1.365 . S
C1296 C177 1.306 . S
C1298 C434 1.319 . S
C1307 C450 1.280 . S
C1309 C187 1.276 . S
C1318 C200 1.330 . S
C1320 C463 1.325 . S
C1329 C567 1.315 . S
C1331 C213 1.327 . S
C1340 C229 1.294 . S
C1342 C590 1.307 . S
C1351 C239 1.309 . S
C1353 C606 1.285 . S
C1362 C525 1.376 . S
C1364 C255 1.332 . S
C1373 C619 1.304 . S
C1375 C265 1.329 . S
C1384 C278 1.359 . S
C1386 C541 1.323 . S
C1395 C551 1.317 . S
C1397 C294 1.308 . S
C1406 C307 1.314 . S
C1408 C577 1.349 . S
C1417 C554 1.400 . S
C1419 C268 1.400 . S
C1428 C226 1.245 . S
C1430 C564 1.263 . S
C1439 C580 1.387 . S
C1441 C242 1.394 . S
C1450 C538 1.217 . S
C1452 C252 1.239 . S
C1461 C603 1.227 . S
C1463 C304 1.246 . S
C1472 C281 1.414 . S
C1474 C528 1.416 . S
C1483 C616 1.268 . S
C1485 C291 1.253 . S
C1494 C216 1.397 . S
C1496 C593 1.392 . S
C1505 C437 1.413 . S
C1507 C203 1.402 . S
C1516 C161 1.292 . S
C1518 C447 1.285 . S
C1527 C174 1.256 . S
C1529 C460 1.254 . S
C1538 C421 1.358 . S
C1540 C190 1.374 . S
C1549 C125 1.329 . S
C1551 C512 1.333 . S
C1560 C473 1.242 . S
C1562 C135 1.245 . S
C1571 C148 1.321 . S
C1573 C489 1.315 . S
C1582 C112 1.399 . S
C1584 C502 1.408 . S
C1593 C359 1.323 . S
C1595 C96 1.365 . S
C1604 C21 1.318 . S
C1606 C382 1.360 . S
C1615 C31 1.317 . S
C1617 C398 1.302 . S
C1626 C408 1.348 . S
C1628 C47 1.317 . S
C1637 C5 1.370 . S
C1639 C372 1.327 . S
C1648 C70 1.366 . S
C1650 C333 1.346 . S
C1659 C86 1.329 . S
C1661 C343 1.364 . S
C1670 C60 1.303 . S
C1672 C317 1.324 . S
