# Generated by pormake.
# Topology wni, (7)-cn, num edge types: 1
# Building blocks:
#     Node 0, Type 0, BuildingBlock: NUHQUE_clean_sbu_2, # of connection points: 7
#     Node 1, Type 0, BuildingBlock: NUHQUE_clean_sbu_2, # of connection points: 7
#     Node 2, Type 0, BuildingBlock: NUHQUE_clean_sbu_2, # of connection points: 7
#     Node 3, Type 0, BuildingBlock: NUHQUE_clean_sbu_2, # of connection points: 7
#     Node 4, Type 0, BuildingBlock: NUHQUE_clean_sbu_2, # of connection points: 7
#     Node 5, Type 0, BuildingBlock: NUHQUE_clean_sbu_2, # of connection points: 7
#     Edge 6, Type (0, 0), BuildingBlock: CIFDUS_clean_linker_0, # of connection points: 2
#     Edge 7, Type (0, 0), BuildingBlock: CIFDUS_clean_linker_0, # of connection points: 2
#     Edge 8, Type (0, 0), BuildingBlock: CIFDUS_clean_linker_0, # of connection points: 2
#     Edge 9, Type (0, 0), BuildingBlock: CIFDUS_clean_linker_0, # of connection points: 2
#     Edge 10, Type (0, 0), BuildingBlock: CIFDUS_clean_linker_0, # of connection points: 2
#     Edge 11, Type (0, 0), BuildingBlock: CIFDUS_clean_linker_0, # of connection points: 2
#     Edge 12, Type (0, 0), BuildingBlock: CIFDUS_clean_linker_0, # of connection points: 2
#     Edge 13, Type (0, 0), BuildingBlock: CIFDUS_clean_linker_0, # of connection points: 2
#     Edge 14, Type (0, 0), BuildingBlock: CIFDUS_clean_linker_0, # of connection points: 2
#     Edge 15, Type (0, 0), BuildingBlock: CIFDUS_clean_linker_0, # of connection points: 2
#     Edge 16, Type (0, 0), BuildingBlock: CIFDUS_clean_linker_0, # of connection points: 2
#     Edge 17, Type (0, 0), BuildingBlock: CIFDUS_clean_linker_0, # of connection points: 2
#     Edge 18, Type (0, 0), BuildingBlock: CIFDUS_clean_linker_0, # of connection points: 2
#     Edge 19, Type (0, 0), BuildingBlock: CIFDUS_clean_linker_0, # of connection points: 2
#     Edge 20, Type (0, 0), BuildingBlock: CIFDUS_clean_linker_0, # of connection points: 2
#     Edge 21, Type (0, 0), BuildingBlock: CIFDUS_clean_linker_0, # of connection points: 2
#     Edge 22, Type (0, 0), BuildingBlock: CIFDUS_clean_linker_0, # of connection points: 2
#     Edge 23, Type (0, 0), BuildingBlock: CIFDUS_clean_linker_0, # of connection points: 2
#     Edge 24, Type (0, 0), BuildingBlock: CIFDUS_clean_linker_0, # of connection points: 2
#     Edge 25, Type (0, 0), BuildingBlock: CIFDUS_clean_linker_0, # of connection points: 2
#     Edge 26, Type (0, 0), BuildingBlock: CIFDUS_clean_linker_0, # of connection points: 2
# Relax obj value: 0.278
# Max RMSD: 0.306
# Mean RMSD: 0.306
data_MOF--net-wni--node1-NUHQUE_clean_sbu_2--edge1-CIFDUS_clean_linker_0
_symmetry_space_group_name_H-M    P1
_symmetry_Int_Tables_number       1
_symmetry_cell_setting            triclinic
loop_
_symmetry_equiv_pos_as_xyz
'x, y, z'
_cell_length_a     31.427082
_cell_length_b     31.387884
_cell_length_c     27.470304
_cell_angle_alpha  89.827061
_cell_angle_beta   90.306047
_cell_angle_gamma 119.77726
loop_
_atom_site_label
_atom_site_type_symbol
_atom_site_fract_x
_atom_site_fract_y
_atom_site_fract_z
_atom_type_partial_charge
O0 O 0.32068 0.53265 0.01676 0.0
Tb1 Tb 0.30191 0.48421 0.07898 0.0
Eu2 Eu 0.19426 0.40034 0.13752 0.0
C3 C 0.32737 0.51989 0.97318 0.0
O4 O 0.31566 0.47416 0.9648 0.0
C5 C 0.25746 0.37228 0.07334 0.0
O6 O 0.14126 0.36854 0.20039 0.0
C7 C 0.14942 0.41023 0.06224 0.0
C8 C 0.12451 0.39635 0.21799 0.0
O9 O 0.13876 0.43905 0.1972 0.0
C10 C 0.25756 0.51255 0.1652 0.0
C11 C 0.11316 0.42381 0.04531 0.0
C12 C 0.09771 0.41417 0.99667 0.0
C13 C 0.06299 0.4258 0.97854 0.0
C14 C 0.04491 0.44873 0.00917 0.0
C15 C 0.05867 0.45773 0.05869 0.0
C16 C 0.09318 0.44486 0.07642 0.0
O17 O 0.26348 0.4105 0.0479 0.0
O18 O 0.23828 0.36451 0.11715 0.0
O19 O 0.38126 0.51626 0.07422 0.0
O20 O 0.34555 0.47838 0.13884 0.0
C21 C 0.38781 0.50285 0.11706 0.0
O22 O 0.23972 0.46788 0.18229 0.0
O23 O 0.27175 0.5228 0.11967 0.0
O24 O 0.13274 0.36902 0.08683 0.0
O25 O 0.19176 0.44552 0.07838 0.0
H26 H 0.11208 0.39668 0.97308 0.0
H27 H 1.02044 0.46006 0.99351 0.0
H28 H 0.10416 0.45036 0.11425 0.0
O29 O 0.52221 0.79319 0.67605 0.0
Tb30 Tb 0.56519 0.81931 0.74237 0.0
Eu31 Eu 0.64986 0.80163 0.80763 0.0
C32 C 0.53622 0.81833 0.63521 0.0
O33 O 0.5807 0.85621 0.632 0.0
C34 C 0.67521 0.89095 0.74154 0.0
O35 O 0.68864 0.78853 0.87039 0.0
C36 C 0.6468 0.74918 0.73334 0.0
C37 C 0.6673 0.74484 0.89084 0.0
O38 O 0.62459 0.71112 0.87376 0.0
C39 C 0.53609 0.74707 0.82981 0.0
C40 C 0.63891 0.70158 0.71573 0.0
C41 C 0.64786 0.69839 0.66631 0.0
C42 C 0.64372 0.65524 0.64724 0.0
C43 C 0.6294 0.61469 0.67779 0.0
C44 C 0.62081 0.61695 0.72767 0.0
C45 C 0.62526 0.66081 0.7466 0.0
O46 O 0.63984 0.85733 0.71451 0.0
O47 O 0.68069 0.88068 0.78674 0.0
O48 O 0.52655 0.86091 0.73901 0.0
O49 O 0.57342 0.87194 0.79934 0.0
C50 C 0.54397 0.88503 0.77927 0.0
O51 O 0.57976 0.7736 0.84933 0.0
O52 O 0.5279 0.75071 0.78336 0.0
O53 O 0.68686 0.77638 0.7587 0.0
O54 O 0.6086 0.75181 0.74833 0.0
H55 H 0.65937 0.7301 0.64286 0.0
H56 H 0.62463 0.58088 0.66223 0.0
H57 H 0.61935 0.66367 0.78498 0.0
O58 O 0.24946 0.72013 0.35782 0.0
Tb59 Tb 0.22931 0.75494 0.41409 0.0
Eu60 Eu 0.25253 0.86147 0.47104 0.0
C61 C 0.2444 0.72507 0.31097 0.0
O62 O 0.22958 0.75533 0.2959 0.0
C63 C 0.16113 0.79813 0.40667 0.0
O64 O 0.26462 0.91189 0.53455 0.0
C65 C 0.3027 0.91187 0.39636 0.0
C66 C 0.30921 0.93699 0.55273 0.0
O67 O 0.34413 0.93137 0.53303 0.0
C68 C 0.31176 0.806 0.48994 0.0
C69 C 0.3506 0.94703 0.37567 0.0
C70 C 0.35262 0.95431 0.32521 0.0
C71 C 0.39608 0.98912 0.30275 0.0
C72 C 0.43797 1.01618 0.33162 0.0
C73 C 0.43697 1.0098 0.38242 0.0
C74 C 0.39282 0.97459 0.40444 0.0
O75 O 0.1924 0.79114 0.38104 0.0
O76 O 0.17279 0.81583 0.45112 0.0
O77 O 0.17128 0.67906 0.42546 0.0
O78 O 0.20055 0.72625 0.48664 0.0
C79 C 0.16922 0.68189 0.47246 0.0
O80 O 0.28619 0.82319 0.51144 0.0
O81 O 0.30355 0.79171 0.44421 0.0
O82 O 0.2833 0.92845 0.4281 0.0
O83 O 0.29384 0.86711 0.40543 0.0
H84 H 0.31996 0.93277 0.30339 0.0
H85 H 0.47164 0.04311 0.3144 0.0
H86 H 0.39094 0.96949 0.44354 0.0
O87 O 0.5446 0.31416 0.99147 0.0
Tb88 Tb 0.49265 0.29007 0.93188 0.0
Eu89 Eu 0.41635 0.18565 0.86391 0.0
C90 C 0.5395 0.33343 0.03183 0.0
O91 O 0.49834 0.33337 0.04018 0.0
C92 C 0.38128 0.24264 0.92883 0.0
O93 O 0.38855 0.13773 0.79674 0.0
C94 C 0.41827 0.13344 0.93666 0.0
C95 C 0.41678 0.1214 0.77936 0.0
O96 O 0.45851 0.13435 0.8017 0.0
C97 C 0.5306 0.24546 0.85454 0.0
C98 C 0.43783 0.10189 0.95328 0.0
C99 C 0.43426 0.09029 0.00298 0.0
C100 C 0.45299 0.06117 0.02144 0.0
C101 C 0.47546 0.04379 0.9894 0.0
C102 C 0.48015 0.05556 0.93965 0.0
C103 C 0.46072 0.08441 0.92147 0.0
O104 O 0.41725 0.24636 0.95653 0.0
O105 O 0.37714 0.22683 0.88375 0.0
O106 O 0.50363 0.36454 0.93251 0.0
O107 O 0.50235 0.33149 0.86455 0.0
C108 C 0.50726 0.37087 0.88563 0.0
O109 O 0.49018 0.23173 0.82955 0.0
O110 O 0.53345 0.25728 0.90074 0.0
O111 O 0.38396 0.11602 0.90293 0.0
O112 O 0.45 0.18023 0.93139 0.0
H113 H 0.41745 0.10467 0.02743 0.0
H114 H 0.48852 1.01988 0.00309 0.0
H115 H 0.46398 0.09367 0.8832 0.0
O116 O 0.7346 0.23987 0.63874 0.0
Tb117 Tb 0.7633 0.20995 0.58572 0.0
Eu118 Eu 0.8771 0.23425 0.5342 0.0
C119 C 0.71944 0.22037 0.68197 0.0
O120 O 0.72708 0.18486 0.69674 0.0
C121 C 0.80853 0.14428 0.59646 0.0
O122 O 0.93019 0.24762 0.47303 0.0
C123 C 0.92213 0.28792 0.60966 0.0
C124 C 0.95267 0.29155 0.45309 0.0
O125 O 0.94456 0.3256 0.47104 0.0
C126 C 0.81866 0.28887 0.50498 0.0
C127 C 0.95754 0.33783 0.62636 0.0
C128 C 0.97167 0.34428 0.67549 0.0
C129 C 1.00537 0.39083 0.69328 0.0
C130 C 1.02355 0.43133 0.66198 0.0
C131 C 1.01135 0.42596 0.61201 0.0
C132 C 0.97784 0.3784 0.59454 0.0
O133 O 0.80344 0.17785 0.62009 0.0
O134 O 0.82987 0.15487 0.55373 0.0
O135 O 0.68864 0.14768 0.58606 0.0
O136 O 0.72456 0.1743 0.51818 0.0
C137 C 0.68415 0.14188 0.53918 0.0
O138 O 0.83804 0.26322 0.48821 0.0
O139 O 0.79895 0.28092 0.54862 0.0
O140 O 0.93938 0.26457 0.58402 0.0
O141 O 0.87911 0.28013 0.59451 0.0
H142 H 0.95713 0.31283 0.69971 0.0
H143 H 0.04705 0.46722 0.67751 0.0
H144 H 0.96785 0.3724 0.55646 0.0
O145 O 0.83857 0.51752 0.32421 0.0
Tb146 Tb 0.844 0.56591 0.2655 0.0
Eu147 Eu 0.81195 0.64055 0.20308 0.0
C148 C 0.80801 0.50472 0.36089 0.0
O149 O 0.77914 0.52361 0.36533 0.0
C150 C 0.90669 0.67665 0.26448 0.0
O151 O 0.79066 0.66639 0.13497 0.0
C152 C 0.76325 0.64686 0.27614 0.0
C153 C 0.74488 0.63973 0.12015 0.0
O154 O 0.71559 0.60022 0.14514 0.0
C155 C 0.75187 0.5253 0.20203 0.0
C156 C 0.7136 0.63168 0.29377 0.0
C157 C 0.70902 0.64455 0.34141 0.0
C158 C 0.66289 0.6314 0.36056 0.0
C159 C 0.62106 0.60495 0.33154 0.0
C160 C 0.62458 0.59078 0.28387 0.0
C161 C 0.67134 0.60465 0.26491 0.0
O162 O 0.87653 0.64044 0.29273 0.0
O163 O 0.89319 0.67913 0.21957 0.0
O164 O 0.86456 0.56097 0.19032 0.0
O165 O 0.90611 0.55546 0.24857 0.0
C166 C 0.90126 0.55447 0.20158 0.0
O167 O 0.77685 0.56358 0.17385 0.0
O168 O 0.7665 0.52409 0.24665 0.0
O169 O 0.78038 0.67921 0.24067 0.0
O170 O 0.77537 0.61257 0.27252 0.0
H171 H 0.74161 0.66519 0.36361 0.0
H172 H 0.58543 0.59499 0.34643 0.0
H173 H 0.67475 0.59392 0.22841 0.0
H174 H 0.60761 0.60473 0.18893 0.0
H175 H 0.53842 0.51265 0.31373 0.0
H176 H 0.45919 0.4753 0.27237 0.0
H177 H 0.40793 0.47431 0.2038 0.0
H178 H 0.47693 0.565 0.07827 0.0
H179 H 0.55751 0.59671 0.11636 0.0
C180 C 0.57538 0.57577 0.20663 0.0
C181 C 0.57883 0.56231 0.25477 0.0
C182 C 0.52963 0.55448 0.18267 0.0
C183 C 0.53662 0.52458 0.27712 0.0
C184 C 0.49122 0.50311 0.25348 0.0
C185 C 0.44068 0.50064 0.18469 0.0
C186 C 0.43645 0.51775 0.13865 0.0
C187 C 0.48699 0.51879 0.20684 0.0
C188 C 0.47921 0.5515 0.11398 0.0
C189 C 0.52534 0.56974 0.13575 0.0
H190 H 0.58775 0.94929 0.85366 0.0
H191 H 0.46952 0.89943 0.7495 0.0
H192 H 0.44225 0.95267 0.78611 0.0
H193 H 0.4475 1.00762 0.85292 0.0
H194 H 0.56689 0.05839 0.9559 0.0
H195 H 0.59865 1.01151 0.91424 0.0
C196 C 0.55624 0.9504 0.83888 0.0
C197 C 0.53021 0.92001 0.79956 0.0
C198 C 0.54095 0.98134 0.85991 0.0
C199 C 0.48989 0.92226 0.78014 0.0
C200 C 0.47427 0.9527 0.80102 0.0
C201 C 0.48109 1.00931 0.86543 0.0
C202 C 0.50435 0.03576 0.90785 0.0
C203 C 0.49893 0.98172 0.84157 0.0
C204 C 0.54788 0.0376 0.92373 0.0
C205 C 0.56601 1.0107 0.90005 0.0
H206 H 0.08242 0.59836 0.4556 0.0
H207 H 0.1988 0.66959 0.56121 0.0
H208 H 0.16222 0.59553 0.61136 0.0
H209 H 0.10044 0.51038 0.62275 0.0
H210 H 0.97543 0.44232 0.52536 0.0
H211 H 1.01362 0.51449 0.47308 0.0
C212 C 0.09925 0.59764 0.48994 0.0
C213 C 0.14318 0.63915 0.50484 0.0
C214 C 0.07717 0.55531 0.51939 0.0
C215 C 0.16474 0.63816 0.54933 0.0
C216 C 0.14406 0.59572 0.57777 0.0
C217 C 0.08004 0.51121 0.59125 0.0
C218 C 1.03432 0.47009 0.57905 0.0
C219 C 0.10051 0.55403 0.56296 0.0
C220 C 1.01086 0.47238 0.53599 0.0
C221 C 1.03243 0.51414 0.50614 0.0
H222 H 0.55284 0.57718 0.80146 0.0
H223 H 0.66132 0.55795 0.72388 0.0
H224 H 0.63311 0.47896 0.76288 0.0
H225 H 0.57578 0.41327 0.81648 0.0
H226 H 0.4739 0.43481 0.90242 0.0
H227 H 0.50102 0.51457 0.86288 0.0
C228 C 0.57081 0.55609 0.79375 0.0
C229 C 0.60818 0.57303 0.75852 0.0
C230 C 0.55508 0.51066 0.81731 0.0
C231 C 0.63133 0.54522 0.74947 0.0
C232 C 0.61536 0.49997 0.77188 0.0
C233 C 0.55937 0.4354 0.82621 0.0
C234 C 0.52226 0.41807 0.86124 0.0
C235 C 0.57664 0.48184 0.80501 0.0
C236 C 0.50218 0.44745 0.87489 0.0
C237 C 0.51782 0.49304 0.85248 0.0
H238 H 0.47528 0.98388 0.45997 0.0
H239 H 0.50099 0.10742 0.36994 0.0
H240 H 0.58118 0.15699 0.40697 0.0
H241 H 0.64541 0.16556 0.46358 0.0
H242 H 0.61743 0.04718 0.56142 0.0
H243 H 0.53716 0.99529 0.52284 0.0
C244 C 0.49811 1.02183 0.44901 0.0
C245 C 0.48245 0.04125 0.4111 0.0
C246 C 0.54421 0.05093 0.47142 0.0
C247 C 0.51258 0.09078 0.39775 0.0
C248 C 0.55853 0.11939 0.41905 0.0
C249 C 0.62185 0.12818 0.47596 0.0
C250 C 0.63743 0.10957 0.51425 0.0
C251 C 0.5751 0.09965 0.45525 0.0
C252 C 0.60618 0.06179 0.53134 0.0
C253 C 0.56028 0.03232 0.5095 0.0
H254 H 0.96836 0.4514 0.04996 0.0
H255 H 0.09771 0.51449 0.14182 0.0
H256 H 0.06049 0.5494 0.194 0.0
H257 H 0.99094 0.5626 0.21361 0.0
H258 H 0.86821 0.50936 0.11451 0.0
H259 H 0.90477 0.47253 0.06341 0.0
C260 C 0.9897 0.47402 0.08026 0.0
C261 C 0.03639 0.47997 0.09109 0.0
C262 C 0.96942 0.49651 0.10866 0.0
C263 C 0.06146 0.50791 0.13244 0.0
C264 C 0.04043 0.52862 0.16221 0.0
C265 C 0.97266 0.54347 0.18043 0.0
C266 C 0.92696 0.53855 0.16776 0.0
C267 C 0.99444 0.52322 0.15063 0.0
C268 C 0.90358 0.51391 0.12473 0.0
C269 C 0.92429 0.49252 0.09576 0.0
H270 H 0.35741 0.24657 0.0227 0.0
H271 H 0.33568 0.2827 0.8765 0.0
H272 H 0.29367 0.32477 0.90822 0.0
H273 H 0.26843 0.3563 0.97806 0.0
H274 H 0.28664 0.31641 0.12394 0.0
H275 H 0.3244 0.27052 0.09185 0.0
C276 C 0.34291 0.26314 0.99777 0.0
C277 C 0.34987 0.2618 0.94736 0.0
C278 C 0.31843 0.28681 0.01626 0.0
C279 C 0.33055 0.28302 0.91544 0.0
C280 C 0.30682 0.30735 0.93359 0.0
C281 C 0.28025 0.33714 0.00276 0.0
C282 C 0.2751 0.34007 0.05335 0.0
C283 C 0.30136 0.31025 0.98399 0.0
C284 C 0.29006 0.31463 0.08488 0.0
C285 C 0.31186 0.28856 0.06656 0.0
H286 H 0.793 0.11682 0.69137 0.0
H287 H 0.77466 0.05901 0.54579 0.0
H288 H 0.73226 0.97523 0.5778 0.0
H289 H 0.69738 0.91837 0.64708 0.0
H290 H 0.72028 0.97625 0.79301 0.0
H291 H 0.76419 0.05999 0.7611 0.0
C292 C 0.77998 0.08583 0.66675 0.0
C293 C 0.78668 0.09399 0.61632 0.0
C294 C 0.75644 0.03782 0.68548 0.0
C295 C 0.77012 0.05362 0.58479 0.0
C296 C 0.74569 1.00572 0.60305 0.0
C297 C 0.71232 0.94936 0.67185 0.0
C298 C 0.70544 0.94121 0.72227 0.0
C299 C 0.73822 0.99738 0.65329 0.0
C300 C 0.72534 0.98161 0.75405 0.0
C301 C 0.75024 0.02949 0.73582 0.0
H302 H 0.93626 0.70364 0.35734 0.0
H303 H 0.99089 0.72076 0.2108 0.0
H304 H 0.07531 0.76215 0.24178 0.0
H305 H 0.13301 0.78696 0.31137 0.0
H306 H 0.07769 0.77243 0.4575 0.0
H307 H 0.99414 0.73676 0.42588 0.0
C308 C 0.96672 0.71711 0.33215 0.0
C309 C 0.95745 0.70891 0.28191 0.0
C310 C 1.01497 0.74093 0.35022 0.0
C311 C 0.99715 0.72689 0.24961 0.0
C312 C 0.04537 0.75019 0.26736 0.0
C313 C 0.10267 0.77642 0.33621 0.0
C314 C 0.11149 0.78188 0.38677 0.0
C315 C 0.05466 0.7564 0.31769 0.0
C316 C 0.07193 0.76865 0.41848 0.0
C317 C 1.0241 0.74807 0.40042 0.0
H318 H 0.99196 0.37416 0.39853 0.0
H319 H 0.98518 0.23383 0.41009 0.0
H320 H 0.03766 0.25325 0.33823 0.0
H321 H 0.08589 0.31091 0.27175 0.0
H322 H 0.08977 0.45021 0.26163 0.0
H323 H 0.0381 0.43018 0.33299 0.0
C324 C 1.00199 0.34773 0.38556 0.0
C325 C 0.98477 0.30267 0.4099 0.0
C326 C 1.03171 0.35895 0.34421 0.0
C327 C 0.99795 0.26884 0.39214 0.0
C328 C 1.02797 0.27995 0.35101 0.0
C329 C 0.07533 0.33677 0.28517 0.0
C330 C 0.09194 0.38206 0.26117 0.0
C331 C 0.04511 0.32497 0.32664 0.0
C332 C 0.07775 0.41509 0.27912 0.0
C333 C 0.04812 0.40375 0.32011 0.0
H334 H 0.62694 0.66165 0.94476 0.0
H335 H 0.7588 0.8021 0.93102 0.0
H336 H 0.7954 0.782 1.00005 0.0
H337 H 0.78937 0.72415 0.06513 0.0
H338 H 0.65556 0.58491 0.07817 0.0
H339 H 0.62062 0.60502 0.0088 0.0
C340 C 0.66375 0.68797 0.95669 0.0
C341 C 0.69005 0.73331 0.93262 0.0
C342 C 0.68434 0.67634 0.99646 0.0
C343 C 0.73765 0.76693 0.94889 0.0
C344 C 0.75864 0.75542 0.98836 0.0
C345 C 0.75269 0.69821 0.05261 0.0
C346 C 0.72533 0.65302 0.07692 0.0
C347 C 0.73229 0.71018 0.01254 0.0
C348 C 0.67764 0.61995 0.06034 0.0
C349 C 0.65747 0.63138 0.02054 0.0
H350 H 0.3283 0.07431 0.73072 0.0
H351 H 0.47495 0.09526 0.73051 0.0
H352 H 0.45461 0.04098 0.66089 0.0
H353 H 0.39583 0.98692 0.60046 0.0
H354 H 0.24827 0.96298 0.59961 0.0
H355 H 0.26832 1.01885 0.66897 0.0
C356 C 0.35578 0.06711 0.71525 0.0
C357 C 0.40311 0.08901 0.73598 0.0
C358 C 0.34372 0.03518 0.67501 0.0
C359 C 0.43819 0.07899 0.71558 0.0
C360 C 0.42666 0.04787 0.67562 0.0
C361 C 0.36792 0.99385 0.61528 0.0
C362 C 0.3206 0.97074 0.59473 0.0
C363 C 0.37959 0.02566 0.65515 0.0
C364 C 0.285 0.98021 0.61469 0.0
C365 C 0.29647 1.01222 0.65437 0.0
H366 H 0.39163 0.6146 0.9932 0.0
H367 H 0.33202 0.5117 0.87428 0.0
H368 H 0.38907 0.57478 0.81789 0.0
H369 H 0.45996 0.65776 0.80395 0.0
H370 H 0.52359 0.75645 0.92567 0.0
H371 H 0.46082 0.69646 0.97953 0.0
C372 C 0.39045 0.60612 0.95479 0.0
C373 C 0.3574 0.55872 0.93778 0.0
C374 C 0.42446 0.64175 0.92324 0.0
C375 C 0.35708 0.54805 0.88812 0.0
C376 C 0.38976 0.58402 0.85597 0.0
C377 C 0.45958 0.66616 0.84216 0.0
C378 C 0.49614 0.71137 0.86092 0.0
C379 C 0.42422 0.63078 0.87331 0.0
C380 C 0.49588 0.72174 0.91055 0.0
C381 C 0.45999 0.68753 0.94132 0.0
H382 H 0.40458 0.82819 0.46583 0.0
H383 H 0.29729 0.76847 0.5804 0.0
H384 H 0.3559 0.76098 0.63327 0.0
H385 H 0.43889 0.77732 0.64929 0.0
H386 H 0.55006 0.84549 0.5391 0.0
H387 H 0.48884 0.84338 0.48188 0.0
C388 C 0.39414 0.81302 0.50217 0.0
C389 C 0.34693 0.79884 0.51942 0.0
C390 C 0.42872 0.81048 0.53308 0.0
C391 C 0.33367 0.77985 0.56667 0.0
C392 C 0.36707 0.77548 0.59683 0.0
C393 C 0.44964 0.79086 0.61246 0.0
C394 C 0.49883 0.81117 0.59829 0.0
C395 C 0.41489 0.79147 0.58074 0.0
C396 C 0.51231 0.8295 0.55075 0.0
C397 C 0.47738 0.82847 0.51814 0.0
H398 H 0.25987 0.59816 0.14042 0.0
H399 H 0.25902 0.51218 0.2638 0.0
H400 H 0.25768 0.57181 0.31924 0.0
H401 H 0.25345 0.64604 0.33304 0.0
H402 H 0.24952 0.73101 0.21109 0.0
H403 H 0.25628 0.67425 0.15474 0.0
C404 C 0.2599 0.59285 0.17945 0.0
C405 C 0.25966 0.55085 0.19794 0.0
C406 C 0.2581 0.62694 0.21136 0.0
C407 C 0.25907 0.54409 0.24858 0.0
C408 C 0.25833 0.57819 0.28037 0.0
C409 C 0.2545 0.65257 0.29415 0.0
C410 C 0.25112 0.69283 0.27633 0.0
C411 C 0.25736 0.61942 0.26219 0.0
C412 C 0.25204 0.70027 0.22577 0.0
C413 C 0.25587 0.66781 0.19356 0.0
H414 H 0.54399 0.36788 0.12436 0.0
H415 H 0.63402 0.36526 0.00736 0.0
H416 H 0.70765 0.42223 0.05135 0.0
H417 H 0.74672 0.47834 0.11951 0.0
H418 H 0.65942 0.47957 0.23912 0.0
H419 H 0.58447 0.41744 0.19805 0.0
C420 C 0.57976 0.37934 0.1089 0.0
C421 C 0.58336 0.36267 0.06243 0.0
C422 C 0.62242 0.412 0.13473 0.0
C423 C 0.63 0.37744 0.04302 0.0
C424 C 0.6723 0.41025 0.06803 0.0
C425 C 0.71124 0.46425 0.13679 0.0
C426 C 0.70804 0.48306 0.18186 0.0
C427 C 0.66891 0.42851 0.11333 0.0
C428 C 0.66232 0.4649 0.20442 0.0
C429 C 0.61963 0.42976 0.18082 0.0
H430 H 0.6976 0.2068 0.77893 0.0
H431 H 0.66761 0.26157 0.64634 0.0
H432 H 0.60724 0.2749 0.68829 0.0
H433 H 0.55965 0.26712 0.76136 0.0
H434 H 0.59209 0.21756 0.89565 0.0
H435 H 0.65483 0.20622 0.85456 0.0
C436 C 0.67814 0.22207 0.75946 0.0
C437 C 0.68692 0.2329 0.70958 0.0
C438 C 0.64376 0.2304 0.78403 0.0
C439 C 0.66175 0.25307 0.68481 0.0
C440 C 0.62697 0.26052 0.70868 0.0
C441 C 0.5808 0.25421 0.78161 0.0
C442 C 0.57134 0.24295 0.83119 0.0
C443 C 0.61722 0.24871 0.75804 0.0
C444 C 0.59912 0.22672 0.85738 0.0
C445 C 0.63476 0.22002 0.83388 0.0
H446 H 0.77556 0.34523 0.5204 0.0
H447 H 0.8672 0.32205 0.41941 0.0
H448 H 0.87285 0.38742 0.36787 0.0
H449 H 0.85149 0.44999 0.35024 0.0
H450 H 0.75778 0.47356 0.44756 0.0
H451 H 0.75323 0.40907 0.50172 0.0
C452 C 0.79679 0.35457 0.48715 0.0
C453 C 0.82105 0.32872 0.47407 0.0
C454 C 0.79951 0.39216 0.45694 0.0
C455 C 0.8482 0.34118 0.43067 0.0
C456 C 0.8515 0.37866 0.40099 0.0
C457 C 0.83015 0.44139 0.38338 0.0
C458 C 0.80514 0.46672 0.3949 0.0
C459 C 0.82728 0.40422 0.4137 0.0
C460 C 0.7774 0.45459 0.43784 0.0
C461 C 0.7748 0.41775 0.46877 0.0
H462 H 0.9514 0.36287 0.77639 0.0
H463 H 0.09998 0.4348 0.72374 0.0
H464 H 0.13125 0.4502 0.80731 0.0
H465 H 0.11637 0.44586 0.89551 0.0
H466 H 0.96792 0.37753 0.94828 0.0
H467 H 0.93651 0.35811 0.86486 0.0
C468 C 0.99055 0.38151 0.78343 0.0
C469 C 1.02339 0.3977 0.7442 0.0
C470 C 1.00827 0.39114 0.83158 0.0
C471 C 0.07409 0.42229 0.75354 0.0
C472 C 0.09196 0.43105 0.80124 0.0
C473 C 0.07718 0.42639 0.88863 0.0
C474 C 0.0445 0.41318 0.92783 0.0
C475 C 0.05942 0.41606 0.84056 0.0
C476 C 0.99377 0.38843 0.91853 0.0
C477 C 0.97579 0.37719 0.87091 0.0
H478 H 0.6105 0.68069 0.56686 0.0
H479 H 0.70351 0.62305 0.61258 0.0
H480 H 0.71991 0.61322 0.52775 0.0
H481 H 0.70447 0.61702 0.44076 0.0
H482 H 0.60962 0.67223 0.39438 0.0
H483 H 0.59728 0.68716 0.47918 0.0
C484 C 0.63475 0.66652 0.55807 0.0
C485 C 0.65558 0.65236 0.59571 0.0
C486 C 0.64345 0.66031 0.5092 0.0
C487 C 0.68665 0.63364 0.58407 0.0
C488 C 0.69612 0.62813 0.53565 0.0
C489 C 0.68167 0.63297 0.44926 0.0
C490 C 0.65799 0.64353 0.41155 0.0
C491 C 0.67425 0.64076 0.49795 0.0
C492 C 0.62791 0.66347 0.42296 0.0
C493 C 0.62094 0.67209 0.47136 0.0
H494 H 0.37563 0.03587 0.08239 0.0
H495 H 0.52288 0.0587 0.07888 0.0
H496 H 0.51679 0.03513 0.1642 0.0
H497 H 0.47015 1.00838 0.23971 0.0
H498 H 0.32553 0.99208 0.24585 0.0
H499 H 0.32986 1.01189 0.15941 0.0
C500 C 0.4066 0.03626 0.10044 0.0
C501 C 0.44951 0.04876 0.07407 0.0
C502 C 0.40319 0.02335 0.14986 0.0
C503 C 0.48906 0.0484 0.09796 0.0
C504 C 0.48573 0.03516 0.14686 0.0
C505 C 0.43972 1.00968 0.22241 0.0
C506 C 0.39765 0.99881 0.2495 0.0
C507 C 0.443 1.02254 0.17312 0.0
C508 C 0.35814 0.99952 0.22591 0.0
C509 C 0.36075 1.01136 0.17651 0.0
loop_
_geom_bond_atom_site_label_1
_geom_bond_atom_site_label_2
_geom_bond_distance
_geom_bond_site_symmetry_2
_ccdc_geom_bond_type
O0 Tb1 2.292 1_556 S
O0 C3 1.255 . S
Tb1 O0 2.292 1_554 S
Tb1 O17 2.326 . S
Tb1 O19 2.500 . S
Tb1 O20 2.473 . S
Tb1 O23 2.324 . S
Eu2 O6 2.292 . S
Eu2 C7 2.852 . S
Eu2 O18 2.324 . S
Eu2 O22 2.326 . S
Eu2 O24 2.500 . S
Eu2 O25 2.473 . S
C3 O0 1.255 . S
C3 O4 1.247 . S
O4 C3 1.247 . S
C5 O17 1.242 . S
C5 O18 1.258 . S
O6 Eu2 2.292 . S
O6 C8 1.255 . S
C7 Eu2 2.852 . S
C7 C11 1.503 . S
C7 O24 1.273 . S
C7 O25 1.257 . S
C8 O6 1.255 . S
C8 O9 1.247 . S
O9 C8 1.247 . S
C10 O22 1.242 . S
C10 O23 1.258 . S
C11 C7 1.503 . S
C11 C12 1.379 1_554 S
C11 C16 1.392 . S
C12 C11 1.379 1_556 S
C12 C13 1.404 . S
C12 H26 0.929 . S
C13 C12 1.404 . S
C13 C14 1.389 . S
C14 C13 1.389 . S
C14 C15 1.399 1_456 S
C14 H27 0.931 1_455 S
C15 C14 1.399 1_654 S
C15 C16 1.390 1_655 S
C16 C11 1.392 . S
C16 C15 1.390 1_455 S
C16 H28 0.929 . S
O17 Tb1 2.326 . S
O17 C5 1.242 . S
O18 Eu2 2.324 . S
O18 C5 1.258 . S
O19 Tb1 2.500 . S
O19 C21 1.273 . S
O20 Tb1 2.473 . S
O20 C21 1.257 . S
C21 O19 1.273 . S
C21 O20 1.257 . S
O22 Eu2 2.326 . S
O22 C10 1.242 . S
O23 Tb1 2.324 . S
O23 C10 1.258 . S
O24 Eu2 2.500 . S
O24 C7 1.273 . S
O25 Eu2 2.473 . S
O25 C7 1.257 . S
H26 C12 0.929 . S
H27 C14 0.931 1_655 S
H28 C16 0.929 . S
O29 Tb30 2.292 . S
O29 C32 1.255 . S
Tb30 O29 2.292 . S
Tb30 O46 2.326 . S
Tb30 O48 2.500 . S
Tb30 O49 2.473 . S
Tb30 O52 2.324 . S
Eu31 O35 2.292 . S
Eu31 C36 2.852 . S
Eu31 O47 2.324 . S
Eu31 O51 2.326 . S
Eu31 O53 2.500 . S
Eu31 O54 2.473 . S
C32 O29 1.255 . S
C32 O33 1.247 . S
O33 C32 1.247 . S
C34 O46 1.242 . S
C34 O47 1.258 . S
O35 Eu31 2.292 . S
O35 C37 1.255 . S
C36 Eu31 2.852 . S
C36 C40 1.503 . S
C36 O53 1.273 . S
C36 O54 1.257 . S
C37 O35 1.255 . S
C37 O38 1.247 . S
O38 C37 1.247 . S
C39 O51 1.242 . S
C39 O52 1.258 . S
C40 C36 1.503 . S
C40 C41 1.379 . S
C40 C45 1.392 . S
C41 C40 1.379 . S
C41 C42 1.404 . S
C41 H55 0.929 . S
C42 C41 1.404 . S
C42 C43 1.389 . S
C43 C42 1.389 . S
C43 C44 1.399 . S
C43 H56 0.931 . S
C44 C43 1.399 . S
C44 C45 1.390 . S
C45 C40 1.392 . S
C45 C44 1.390 . S
C45 H57 0.929 . S
O46 Tb30 2.326 . S
O46 C34 1.242 . S
O47 Eu31 2.324 . S
O47 C34 1.258 . S
O48 Tb30 2.500 . S
O48 C50 1.273 . S
O49 Tb30 2.473 . S
O49 C50 1.257 . S
C50 O48 1.273 . S
C50 O49 1.257 . S
O51 Eu31 2.326 . S
O51 C39 1.242 . S
O52 Tb30 2.324 . S
O52 C39 1.258 . S
O53 Eu31 2.500 . S
O53 C36 1.273 . S
O54 Eu31 2.473 . S
O54 C36 1.257 . S
H55 C41 0.929 . S
H56 C43 0.931 . S
H57 C45 0.929 . S
O58 Tb59 2.292 . S
O58 C61 1.255 . S
Tb59 O58 2.292 . S
Tb59 O75 2.326 . S
Tb59 O77 2.500 . S
Tb59 O78 2.473 . S
Tb59 O81 2.324 . S
Eu60 O64 2.292 . S
Eu60 C65 2.852 . S
Eu60 O76 2.324 . S
Eu60 O80 2.326 . S
Eu60 O82 2.500 . S
Eu60 O83 2.473 . S
C61 O58 1.255 . S
C61 O62 1.247 . S
O62 C61 1.247 . S
C63 O75 1.242 . S
C63 O76 1.258 . S
O64 Eu60 2.292 . S
O64 C66 1.255 . S
C65 Eu60 2.852 . S
C65 C69 1.503 . S
C65 O82 1.273 . S
C65 O83 1.257 . S
C66 O64 1.255 . S
C66 O67 1.247 . S
O67 C66 1.247 . S
C68 O80 1.242 . S
C68 O81 1.258 . S
C69 C65 1.503 . S
C69 C70 1.379 . S
C69 C74 1.392 . S
C70 C69 1.379 . S
C70 C71 1.404 . S
C70 H84 0.929 . S
C71 C70 1.404 . S
C71 C72 1.389 . S
C72 C71 1.389 . S
C72 C73 1.399 1_565 S
C72 H85 0.931 1_565 S
C73 C72 1.399 1_545 S
C73 C74 1.390 1_545 S
C74 C69 1.392 . S
C74 C73 1.390 1_565 S
C74 H86 0.929 . S
O75 Tb59 2.326 . S
O75 C63 1.242 . S
O76 Eu60 2.324 . S
O76 C63 1.258 . S
O77 Tb59 2.500 . S
O77 C79 1.273 . S
O78 Tb59 2.473 . S
O78 C79 1.257 . S
C79 O77 1.273 . S
C79 O78 1.257 . S
O80 Eu60 2.326 . S
O80 C68 1.242 . S
O81 Tb59 2.324 . S
O81 C68 1.258 . S
O82 Eu60 2.500 . S
O82 C65 1.273 . S
O83 Eu60 2.473 . S
O83 C65 1.257 . S
H84 C70 0.929 . S
H85 C72 0.931 1_545 S
H86 C74 0.929 . S
O87 Tb88 2.292 1_554 S
O87 C90 1.255 . S
Tb88 O87 2.292 1_556 S
Tb88 O104 2.326 . S
Tb88 O106 2.500 . S
Tb88 O107 2.473 . S
Tb88 O110 2.324 . S
Eu89 O93 2.292 . S
Eu89 C94 2.852 . S
Eu89 O105 2.324 . S
Eu89 O109 2.326 . S
Eu89 O111 2.500 . S
Eu89 O112 2.473 . S
C90 O87 1.255 . S
C90 O91 1.247 . S
O91 C90 1.247 . S
C92 O104 1.242 . S
C92 O105 1.258 . S
O93 Eu89 2.292 . S
O93 C95 1.255 . S
C94 Eu89 2.852 . S
C94 C98 1.503 . S
C94 O111 1.273 . S
C94 O112 1.257 . S
C95 O93 1.255 . S
C95 O96 1.247 . S
O96 C95 1.247 . S
C97 O109 1.242 . S
C97 O110 1.258 . S
C98 C94 1.503 . S
C98 C99 1.379 1_556 S
C98 C103 1.392 . S
C99 C98 1.379 1_554 S
C99 C100 1.404 . S
C99 H113 0.929 . S
C100 C99 1.404 . S
C100 C101 1.389 . S
C101 C100 1.389 . S
C101 C102 1.399 1_544 S
C101 H114 0.931 1_545 S
C102 C101 1.399 1_566 S
C102 C103 1.390 1_565 S
C103 C98 1.392 . S
C103 C102 1.390 1_545 S
C103 H115 0.929 . S
O104 Tb88 2.326 . S
O104 C92 1.242 . S
O105 Eu89 2.324 . S
O105 C92 1.258 . S
O106 Tb88 2.500 . S
O106 C108 1.273 . S
O107 Tb88 2.473 . S
O107 C108 1.257 . S
C108 O106 1.273 . S
C108 O107 1.257 . S
O109 Eu89 2.326 . S
O109 C97 1.242 . S
O110 Tb88 2.324 . S
O110 C97 1.258 . S
O111 Eu89 2.500 . S
O111 C94 1.273 . S
O112 Eu89 2.473 . S
O112 C94 1.257 . S
H113 C99 0.929 . S
H114 C101 0.931 1_565 S
H115 C103 0.929 . S
O116 Tb117 2.292 . S
O116 C119 1.255 . S
Tb117 O116 2.292 . S
Tb117 O133 2.326 . S
Tb117 O135 2.500 . S
Tb117 O136 2.473 . S
Tb117 O139 2.324 . S
Eu118 O122 2.292 . S
Eu118 C123 2.852 . S
Eu118 O134 2.324 . S
Eu118 O138 2.326 . S
Eu118 O140 2.500 . S
Eu118 O141 2.473 . S
C119 O116 1.255 . S
C119 O120 1.247 . S
O120 C119 1.247 . S
C121 O133 1.242 . S
C121 O134 1.258 . S
O122 Eu118 2.292 . S
O122 C124 1.255 . S
C123 Eu118 2.852 . S
C123 C127 1.503 . S
C123 O140 1.273 . S
C123 O141 1.257 . S
C124 O122 1.255 . S
C124 O125 1.247 . S
O125 C124 1.247 . S
C126 O138 1.242 . S
C126 O139 1.258 . S
C127 C123 1.503 . S
C127 C128 1.379 . S
C127 C132 1.392 . S
C128 C127 1.379 . S
C128 C129 1.404 . S
C128 H142 0.929 . S
C129 C128 1.404 . S
C129 C130 1.389 . S
C130 C129 1.389 . S
C130 C131 1.399 1_655 S
C130 H143 0.931 1_655 S
C131 C130 1.399 1_455 S
C131 C132 1.390 1_455 S
C132 C127 1.392 . S
C132 C131 1.390 1_655 S
C132 H144 0.929 . S
O133 Tb117 2.326 . S
O133 C121 1.242 . S
O134 Eu118 2.324 . S
O134 C121 1.258 . S
O135 Tb117 2.500 . S
O135 C137 1.273 . S
O136 Tb117 2.473 . S
O136 C137 1.257 . S
C137 O135 1.273 . S
C137 O136 1.257 . S
O138 Eu118 2.326 . S
O138 C126 1.242 . S
O139 Tb117 2.324 . S
O139 C126 1.258 . S
O140 Eu118 2.500 . S
O140 C123 1.273 . S
O141 Eu118 2.473 . S
O141 C123 1.257 . S
H142 C128 0.929 . S
H143 C130 0.931 1_455 S
H144 C132 0.929 . S
O145 Tb146 2.292 . S
O145 C148 1.255 . S
Tb146 O145 2.292 . S
Tb146 O162 2.326 . S
Tb146 O164 2.500 . S
Tb146 O165 2.473 . S
Tb146 O168 2.324 . S
Eu147 O151 2.292 . S
Eu147 C152 2.852 . S
Eu147 O163 2.324 . S
Eu147 O167 2.326 . S
Eu147 O169 2.500 . S
Eu147 O170 2.473 . S
C148 O145 1.255 . S
C148 O149 1.247 . S
O149 C148 1.247 . S
C150 O162 1.242 . S
C150 O163 1.258 . S
O151 Eu147 2.292 . S
O151 C153 1.255 . S
C152 Eu147 2.852 . S
C152 C156 1.503 . S
C152 O169 1.273 . S
C152 O170 1.257 . S
C153 O151 1.255 . S
C153 O154 1.247 . S
O154 C153 1.247 . S
C155 O167 1.242 . S
C155 O168 1.258 . S
C156 C152 1.503 . S
C156 C157 1.379 . S
C156 C161 1.392 . S
C157 C156 1.379 . S
C157 C158 1.404 . S
C157 H171 0.929 . S
C158 C157 1.404 . S
C158 C159 1.389 . S
C159 C158 1.389 . S
C159 C160 1.399 . S
C159 H172 0.931 . S
C160 C159 1.399 . S
C160 C161 1.390 . S
C161 C156 1.392 . S
C161 C160 1.390 . S
C161 H173 0.929 . S
O162 Tb146 2.326 . S
O162 C150 1.242 . S
O163 Eu147 2.324 . S
O163 C150 1.258 . S
O164 Tb146 2.500 . S
O164 C166 1.273 . S
O165 Tb146 2.473 . S
O165 C166 1.257 . S
C166 O164 1.273 . S
C166 O165 1.257 . S
O167 Eu147 2.326 . S
O167 C155 1.242 . S
O168 Tb146 2.324 . S
O168 C155 1.258 . S
O169 Eu147 2.500 . S
O169 C152 1.273 . S
O170 Eu147 2.473 . S
O170 C152 1.257 . S
H171 C157 0.929 . S
H172 C159 0.931 . S
H173 C161 0.929 . S
H174 C180 0.930 . S
H175 C183 0.930 . S
H176 C184 0.930 . S
H177 C185 0.930 . S
H178 C188 0.930 . S
H179 C189 0.930 . S
C180 H174 0.930 . S
C180 C181 1.355 . S
C180 C182 1.415 . S
C181 C180 1.355 . S
C181 C183 1.419 . S
C182 C180 1.415 . S
C182 C187 1.425 . S
C182 C189 1.409 . S
C183 H175 0.930 . S
C183 C181 1.419 . S
C183 C184 1.362 . S
C184 H176 0.930 . S
C184 C183 1.362 . S
C184 C187 1.409 . S
C185 H177 0.930 . S
C185 C186 1.355 . S
C185 C187 1.415 . S
C186 C185 1.355 . S
C186 C188 1.419 . S
C187 C182 1.425 . S
C187 C184 1.409 . S
C187 C185 1.415 . S
C188 H178 0.930 . S
C188 C186 1.419 . S
C188 C189 1.362 . S
C189 H179 0.930 . S
C189 C182 1.409 . S
C189 C188 1.362 . S
H190 C196 0.930 . S
H191 C199 0.930 . S
H192 C200 0.930 . S
H193 C201 0.930 . S
H194 C204 0.930 1_545 S
H195 C205 0.930 . S
C196 H190 0.930 . S
C196 C197 1.355 . S
C196 C198 1.415 . S
C197 C196 1.355 . S
C197 C199 1.419 . S
C198 C196 1.415 . S
C198 C203 1.425 . S
C198 C205 1.409 . S
C199 H191 0.930 . S
C199 C197 1.419 . S
C199 C200 1.362 . S
C200 H192 0.930 . S
C200 C199 1.362 . S
C200 C203 1.409 . S
C201 H193 0.930 . S
C201 C202 1.355 . S
C201 C203 1.415 . S
C202 C201 1.355 . S
C202 C204 1.419 . S
C203 C198 1.425 . S
C203 C200 1.409 . S
C203 C201 1.415 . S
C204 H194 0.930 1_565 S
C204 C202 1.419 . S
C204 C205 1.362 . S
C205 H195 0.930 . S
C205 C198 1.409 . S
C205 C204 1.362 . S
H206 C212 0.930 . S
H207 C215 0.930 . S
H208 C216 0.930 . S
H209 C217 0.930 . S
H210 C220 0.930 . S
H211 C221 0.930 . S
C212 H206 0.930 . S
C212 C213 1.355 . S
C212 C214 1.415 . S
C213 C212 1.355 . S
C213 C215 1.419 . S
C214 C212 1.415 . S
C214 C219 1.425 . S
C214 C221 1.409 . S
C215 H207 0.930 . S
C215 C213 1.419 . S
C215 C216 1.362 . S
C216 H208 0.930 . S
C216 C215 1.362 . S
C216 C219 1.409 . S
C217 H209 0.930 . S
C217 C218 1.355 . S
C217 C219 1.415 . S
C218 C217 1.355 . S
C218 C220 1.419 . S
C219 C214 1.425 . S
C219 C216 1.409 . S
C219 C217 1.415 . S
C220 H210 0.930 . S
C220 C218 1.419 . S
C220 C221 1.362 . S
C221 H211 0.930 . S
C221 C214 1.409 . S
C221 C220 1.362 . S
H222 C228 0.930 . S
H223 C231 0.930 . S
H224 C232 0.930 . S
H225 C233 0.930 . S
H226 C236 0.930 . S
H227 C237 0.930 . S
C228 H222 0.930 . S
C228 C229 1.355 . S
C228 C230 1.415 . S
C229 C228 1.355 . S
C229 C231 1.419 . S
C230 C228 1.415 . S
C230 C235 1.425 . S
C230 C237 1.409 . S
C231 H223 0.930 . S
C231 C229 1.419 . S
C231 C232 1.362 . S
C232 H224 0.930 . S
C232 C231 1.362 . S
C232 C235 1.409 . S
C233 H225 0.930 . S
C233 C234 1.355 . S
C233 C235 1.415 . S
C234 C233 1.355 . S
C234 C236 1.419 . S
C235 C230 1.425 . S
C235 C232 1.409 . S
C235 C233 1.415 . S
C236 H226 0.930 . S
C236 C234 1.419 . S
C236 C237 1.362 . S
C237 H227 0.930 . S
C237 C230 1.409 . S
C237 C236 1.362 . S
H238 C244 0.930 . S
H239 C247 0.930 . S
H240 C248 0.930 . S
H241 C249 0.930 . S
H242 C252 0.930 . S
H243 C253 0.930 . S
C244 H238 0.930 . S
C244 C245 1.355 . S
C244 C246 1.415 . S
C245 C244 1.355 . S
C245 C247 1.419 . S
C246 C244 1.415 . S
C246 C251 1.425 . S
C246 C253 1.409 . S
C247 H239 0.930 . S
C247 C245 1.419 . S
C247 C248 1.362 . S
C248 H240 0.930 . S
C248 C247 1.362 . S
C248 C251 1.409 . S
C249 H241 0.930 . S
C249 C250 1.355 . S
C249 C251 1.415 . S
C250 C249 1.355 . S
C250 C252 1.419 . S
C251 C246 1.425 . S
C251 C248 1.409 . S
C251 C249 1.415 . S
C252 H242 0.930 . S
C252 C250 1.419 . S
C252 C253 1.362 . S
C253 H243 0.930 . S
C253 C246 1.409 . S
C253 C252 1.362 . S
H254 C260 0.930 . S
H255 C263 0.930 1_455 S
H256 C264 0.930 1_455 S
H257 C265 0.930 . S
H258 C268 0.930 . S
H259 C269 0.930 . S
C260 H254 0.930 . S
C260 C261 1.355 . S
C260 C262 1.415 . S
C261 C260 1.355 . S
C261 C263 1.419 . S
C262 C260 1.415 . S
C262 C267 1.425 . S
C262 C269 1.409 . S
C263 H255 0.930 1_655 S
C263 C261 1.419 . S
C263 C264 1.362 . S
C264 H256 0.930 1_655 S
C264 C263 1.362 . S
C264 C267 1.409 . S
C265 H257 0.930 . S
C265 C266 1.355 . S
C265 C267 1.415 . S
C266 C265 1.355 . S
C266 C268 1.419 . S
C267 C262 1.425 . S
C267 C264 1.409 . S
C267 C265 1.415 . S
C268 H258 0.930 . S
C268 C266 1.419 . S
C268 C269 1.362 . S
C269 H259 0.930 . S
C269 C262 1.409 . S
C269 C268 1.362 . S
H270 C276 0.930 . S
H271 C279 0.930 . S
H272 C280 0.930 . S
H273 C281 0.930 . S
H274 C284 0.930 . S
H275 C285 0.930 . S
C276 H270 0.930 . S
C276 C277 1.355 . S
C276 C278 1.415 . S
C277 C276 1.355 . S
C277 C279 1.419 1_556 S
C278 C276 1.415 . S
C278 C283 1.425 1_556 S
C278 C285 1.409 . S
C279 H271 0.930 . S
C279 C277 1.419 1_554 S
C279 C280 1.362 . S
C280 H272 0.930 . S
C280 C279 1.362 . S
C280 C283 1.409 . S
C281 H273 0.930 . S
C281 C282 1.355 . S
C281 C283 1.415 . S
C282 C281 1.355 . S
C282 C284 1.419 1_554 S
C283 C278 1.425 1_554 S
C283 C280 1.409 . S
C283 C281 1.415 . S
C284 H274 0.930 . S
C284 C282 1.419 1_556 S
C284 C285 1.362 . S
C285 H275 0.930 . S
C285 C278 1.409 . S
C285 C284 1.362 . S
H286 C292 0.930 . S
H287 C295 0.930 . S
H288 C296 0.930 . S
H289 C297 0.930 . S
H290 C300 0.930 . S
H291 C301 0.930 . S
C292 H286 0.930 . S
C292 C293 1.355 . S
C292 C294 1.415 . S
C293 C292 1.355 . S
C293 C295 1.419 . S
C294 C292 1.415 . S
C294 C299 1.425 1_545 S
C294 C301 1.409 1_545 S
C295 H287 0.930 . S
C295 C293 1.419 . S
C295 C296 1.362 . S
C296 H288 0.930 . S
C296 C295 1.362 . S
C296 C299 1.409 1_545 S
C297 H289 0.930 . S
C297 C298 1.355 . S
C297 C299 1.415 . S
C298 C297 1.355 . S
C298 C300 1.419 . S
C299 C294 1.425 1_565 S
C299 C296 1.409 1_565 S
C299 C297 1.415 . S
C300 H290 0.930 . S
C300 C298 1.419 . S
C300 C301 1.362 . S
C301 H291 0.930 . S
C301 C294 1.409 1_565 S
C301 C300 1.362 . S
H302 C308 0.930 . S
H303 C311 0.930 . S
H304 C312 0.930 . S
H305 C313 0.930 . S
H306 C316 0.930 . S
H307 C317 0.930 . S
C308 H302 0.930 . S
C308 C309 1.355 . S
C308 C310 1.415 . S
C309 C308 1.355 . S
C309 C311 1.419 . S
C310 C308 1.415 . S
C310 C315 1.425 1_655 S
C310 C317 1.409 1_655 S
C311 H303 0.930 . S
C311 C309 1.419 . S
C311 C312 1.362 . S
C312 H304 0.930 . S
C312 C311 1.362 . S
C312 C315 1.409 1_655 S
C313 H305 0.930 . S
C313 C314 1.355 . S
C313 C315 1.415 . S
C314 C313 1.355 . S
C314 C316 1.419 . S
C315 C310 1.425 1_455 S
C315 C312 1.409 1_455 S
C315 C313 1.415 . S
C316 H306 0.930 . S
C316 C314 1.419 . S
C316 C317 1.362 . S
C317 H307 0.930 . S
C317 C310 1.409 1_455 S
C317 C316 1.362 . S
H318 C324 0.930 . S
H319 C327 0.930 . S
H320 C328 0.930 . S
H321 C329 0.930 . S
H322 C332 0.930 . S
H323 C333 0.930 . S
C324 H318 0.930 . S
C324 C325 1.355 . S
C324 C326 1.415 . S
C325 C324 1.355 . S
C325 C327 1.419 . S
C326 C324 1.415 . S
C326 C331 1.425 1_655 S
C326 C333 1.409 1_655 S
C327 H319 0.930 . S
C327 C325 1.419 . S
C327 C328 1.362 . S
C328 H320 0.930 . S
C328 C327 1.362 . S
C328 C331 1.409 1_655 S
C329 H321 0.930 . S
C329 C330 1.355 . S
C329 C331 1.415 . S
C330 C329 1.355 . S
C330 C332 1.419 . S
C331 C326 1.425 1_455 S
C331 C328 1.409 1_455 S
C331 C329 1.415 . S
C332 H322 0.930 . S
C332 C330 1.419 . S
C332 C333 1.362 . S
C333 H323 0.930 . S
C333 C326 1.409 1_455 S
C333 C332 1.362 . S
H334 C340 0.930 . S
H335 C343 0.930 . S
H336 C344 0.930 . S
H337 C345 0.930 . S
H338 C348 0.930 . S
H339 C349 0.930 . S
C340 H334 0.930 . S
C340 C341 1.355 . S
C340 C342 1.415 . S
C341 C340 1.355 . S
C341 C343 1.419 . S
C342 C340 1.415 . S
C342 C347 1.425 1_556 S
C342 C349 1.409 1_556 S
C343 H335 0.930 . S
C343 C341 1.419 . S
C343 C344 1.362 . S
C344 H336 0.930 . S
C344 C343 1.362 . S
C344 C347 1.409 1_556 S
C345 H337 0.930 . S
C345 C346 1.355 . S
C345 C347 1.415 . S
C346 C345 1.355 . S
C346 C348 1.419 . S
C347 C342 1.425 1_554 S
C347 C344 1.409 1_554 S
C347 C345 1.415 . S
C348 H338 0.930 . S
C348 C346 1.419 . S
C348 C349 1.362 . S
C349 H339 0.930 . S
C349 C342 1.409 1_554 S
C349 C348 1.362 . S
H350 C356 0.930 . S
H351 C359 0.930 . S
H352 C360 0.930 . S
H353 C361 0.930 . S
H354 C364 0.930 . S
H355 C365 0.930 . S
C356 H350 0.930 . S
C356 C357 1.355 . S
C356 C358 1.415 1_545 S
C357 C356 1.355 . S
C357 C359 1.419 . S
C358 C356 1.415 1_565 S
C358 C363 1.425 1_565 S
C358 C365 1.409 . S
C359 H351 0.930 . S
C359 C357 1.419 . S
C359 C360 1.362 . S
C360 H352 0.930 . S
C360 C359 1.362 . S
C360 C363 1.409 . S
C361 H353 0.930 . S
C361 C362 1.355 . S
C361 C363 1.415 1_565 S
C362 C361 1.355 . S
C362 C364 1.419 . S
C363 C358 1.425 1_545 S
C363 C360 1.409 . S
C363 C361 1.415 1_545 S
C364 H354 0.930 . S
C364 C362 1.419 . S
C364 C365 1.362 . S
C365 H355 0.930 . S
C365 C358 1.409 . S
C365 C364 1.362 . S
H366 C372 0.930 . S
H367 C375 0.930 . S
H368 C376 0.930 . S
H369 C377 0.930 . S
H370 C380 0.930 . S
H371 C381 0.930 . S
C372 H366 0.930 . S
C372 C373 1.355 . S
C372 C374 1.415 . S
C373 C372 1.355 . S
C373 C375 1.419 . S
C374 C372 1.415 . S
C374 C379 1.425 . S
C374 C381 1.409 . S
C375 H367 0.930 . S
C375 C373 1.419 . S
C375 C376 1.362 . S
C376 H368 0.930 . S
C376 C375 1.362 . S
C376 C379 1.409 . S
C377 H369 0.930 . S
C377 C378 1.355 . S
C377 C379 1.415 . S
C378 C377 1.355 . S
C378 C380 1.419 . S
C379 C374 1.425 . S
C379 C376 1.409 . S
C379 C377 1.415 . S
C380 H370 0.930 . S
C380 C378 1.419 . S
C380 C381 1.362 . S
C381 H371 0.930 . S
C381 C374 1.409 . S
C381 C380 1.362 . S
H382 C388 0.930 . S
H383 C391 0.930 . S
H384 C392 0.930 . S
H385 C393 0.930 . S
H386 C396 0.930 . S
H387 C397 0.930 . S
C388 H382 0.930 . S
C388 C389 1.355 . S
C388 C390 1.415 . S
C389 C388 1.355 . S
C389 C391 1.419 . S
C390 C388 1.415 . S
C390 C395 1.425 . S
C390 C397 1.409 . S
C391 H383 0.930 . S
C391 C389 1.419 . S
C391 C392 1.362 . S
C392 H384 0.930 . S
C392 C391 1.362 . S
C392 C395 1.409 . S
C393 H385 0.930 . S
C393 C394 1.355 . S
C393 C395 1.415 . S
C394 C393 1.355 . S
C394 C396 1.419 . S
C395 C390 1.425 . S
C395 C392 1.409 . S
C395 C393 1.415 . S
C396 H386 0.930 . S
C396 C394 1.419 . S
C396 C397 1.362 . S
C397 H387 0.930 . S
C397 C390 1.409 . S
C397 C396 1.362 . S
H398 C404 0.930 . S
H399 C407 0.930 . S
H400 C408 0.930 . S
H401 C409 0.930 . S
H402 C412 0.930 . S
H403 C413 0.930 . S
C404 H398 0.930 . S
C404 C405 1.355 . S
C404 C406 1.415 . S
C405 C404 1.355 . S
C405 C407 1.419 . S
C406 C404 1.415 . S
C406 C411 1.425 . S
C406 C413 1.409 . S
C407 H399 0.930 . S
C407 C405 1.419 . S
C407 C408 1.362 . S
C408 H400 0.930 . S
C408 C407 1.362 . S
C408 C411 1.409 . S
C409 H401 0.930 . S
C409 C410 1.355 . S
C409 C411 1.415 . S
C410 C409 1.355 . S
C410 C412 1.419 . S
C411 C406 1.425 . S
C411 C408 1.409 . S
C411 C409 1.415 . S
C412 H402 0.930 . S
C412 C410 1.419 . S
C412 C413 1.362 . S
C413 H403 0.930 . S
C413 C406 1.409 . S
C413 C412 1.362 . S
H414 C420 0.930 . S
H415 C423 0.930 . S
H416 C424 0.930 . S
H417 C425 0.930 . S
H418 C428 0.930 . S
H419 C429 0.930 . S
C420 H414 0.930 . S
C420 C421 1.355 . S
C420 C422 1.415 . S
C421 C420 1.355 . S
C421 C423 1.419 . S
C422 C420 1.415 . S
C422 C427 1.425 . S
C422 C429 1.409 . S
C423 H415 0.930 . S
C423 C421 1.419 . S
C423 C424 1.362 . S
C424 H416 0.930 . S
C424 C423 1.362 . S
C424 C427 1.409 . S
C425 H417 0.930 . S
C425 C426 1.355 . S
C425 C427 1.415 . S
C426 C425 1.355 . S
C426 C428 1.419 . S
C427 C422 1.425 . S
C427 C424 1.409 . S
C427 C425 1.415 . S
C428 H418 0.930 . S
C428 C426 1.419 . S
C428 C429 1.362 . S
C429 H419 0.930 . S
C429 C422 1.409 . S
C429 C428 1.362 . S
H430 C436 0.930 . S
H431 C439 0.930 . S
H432 C440 0.930 . S
H433 C441 0.930 . S
H434 C444 0.930 . S
H435 C445 0.930 . S
C436 H430 0.930 . S
C436 C437 1.355 . S
C436 C438 1.415 . S
C437 C436 1.355 . S
C437 C439 1.419 . S
C438 C436 1.415 . S
C438 C443 1.425 . S
C438 C445 1.409 . S
C439 H431 0.930 . S
C439 C437 1.419 . S
C439 C440 1.362 . S
C440 H432 0.930 . S
C440 C439 1.362 . S
C440 C443 1.409 . S
C441 H433 0.930 . S
C441 C442 1.355 . S
C441 C443 1.415 . S
C442 C441 1.355 . S
C442 C444 1.419 . S
C443 C438 1.425 . S
C443 C440 1.409 . S
C443 C441 1.415 . S
C444 H434 0.930 . S
C444 C442 1.419 . S
C444 C445 1.362 . S
C445 H435 0.930 . S
C445 C438 1.409 . S
C445 C444 1.362 . S
H446 C452 0.930 . S
H447 C455 0.930 . S
H448 C456 0.930 . S
H449 C457 0.930 . S
H450 C460 0.930 . S
H451 C461 0.930 . S
C452 H446 0.930 . S
C452 C453 1.355 . S
C452 C454 1.415 . S
C453 C452 1.355 . S
C453 C455 1.419 . S
C454 C452 1.415 . S
C454 C459 1.425 . S
C454 C461 1.409 . S
C455 H447 0.930 . S
C455 C453 1.419 . S
C455 C456 1.362 . S
C456 H448 0.930 . S
C456 C455 1.362 . S
C456 C459 1.409 . S
C457 H449 0.930 . S
C457 C458 1.355 . S
C457 C459 1.415 . S
C458 C457 1.355 . S
C458 C460 1.419 . S
C459 C454 1.425 . S
C459 C456 1.409 . S
C459 C457 1.415 . S
C460 H450 0.930 . S
C460 C458 1.419 . S
C460 C461 1.362 . S
C461 H451 0.930 . S
C461 C454 1.409 . S
C461 C460 1.362 . S
H462 C468 0.930 . S
H463 C471 0.930 . S
H464 C472 0.930 . S
H465 C473 0.930 . S
H466 C476 0.930 . S
H467 C477 0.930 . S
C468 H462 0.930 . S
C468 C469 1.355 . S
C468 C470 1.415 . S
C469 C468 1.355 . S
C469 C471 1.419 1_655 S
C470 C468 1.415 . S
C470 C475 1.425 1_655 S
C470 C477 1.409 . S
C471 H463 0.930 . S
C471 C469 1.419 1_455 S
C471 C472 1.362 . S
C472 H464 0.930 . S
C472 C471 1.362 . S
C472 C475 1.409 . S
C473 H465 0.930 . S
C473 C474 1.355 . S
C473 C475 1.415 . S
C474 C473 1.355 . S
C474 C476 1.419 1_455 S
C475 C470 1.425 1_455 S
C475 C472 1.409 . S
C475 C473 1.415 . S
C476 H466 0.930 . S
C476 C474 1.419 1_655 S
C476 C477 1.362 . S
C477 H467 0.930 . S
C477 C470 1.409 . S
C477 C476 1.362 . S
H478 C484 0.930 . S
H479 C487 0.930 . S
H480 C488 0.930 . S
H481 C489 0.930 . S
H482 C492 0.930 . S
H483 C493 0.930 . S
C484 H478 0.930 . S
C484 C485 1.355 . S
C484 C486 1.415 . S
C485 C484 1.355 . S
C485 C487 1.419 . S
C486 C484 1.415 . S
C486 C491 1.425 . S
C486 C493 1.409 . S
C487 H479 0.930 . S
C487 C485 1.419 . S
C487 C488 1.362 . S
C488 H480 0.930 . S
C488 C487 1.362 . S
C488 C491 1.409 . S
C489 H481 0.930 . S
C489 C490 1.355 . S
C489 C491 1.415 . S
C490 C489 1.355 . S
C490 C492 1.419 . S
C491 C486 1.425 . S
C491 C488 1.409 . S
C491 C489 1.415 . S
C492 H482 0.930 . S
C492 C490 1.419 . S
C492 C493 1.362 . S
C493 H483 0.930 . S
C493 C486 1.409 . S
C493 C492 1.362 . S
H494 C500 0.930 . S
H495 C503 0.930 . S
H496 C504 0.930 1_565 S
H497 C505 0.930 . S
H498 C508 0.930 . S
H499 C509 0.930 1_545 S
C500 H494 0.930 . S
C500 C501 1.355 . S
C500 C502 1.415 . S
C501 C500 1.355 . S
C501 C503 1.419 . S
C502 C500 1.415 . S
C502 C507 1.425 1_545 S
C502 C509 1.409 1_545 S
C503 H495 0.930 . S
C503 C501 1.419 . S
C503 C504 1.362 . S
C504 H496 0.930 1_545 S
C504 C503 1.362 . S
C504 C507 1.409 1_545 S
C505 H497 0.930 . S
C505 C506 1.355 . S
C505 C507 1.415 . S
C506 C505 1.355 . S
C506 C508 1.419 . S
C507 C502 1.425 1_565 S
C507 C504 1.409 1_565 S
C507 C505 1.415 . S
C508 H498 0.930 . S
C508 C506 1.419 . S
C508 C509 1.362 . S
C509 H499 0.930 1_565 S
C509 C502 1.409 1_565 S
C509 C508 1.362 . S
C181 C160 1.574 . S
C186 C21 1.517 . S
C197 C50 1.504 . S
C202 C102 1.545 . S
C213 C79 1.555 . S
C218 C131 1.563 . S
C229 C44 1.590 . S
C234 C108 1.541 . S
C245 C73 1.596 . S
C250 C137 1.557 . S
C261 C15 1.551 . S
C266 C166 1.501 . S
C277 C92 2.457 . S
C282 C5 2.459 . S
C293 C121 2.458 . S
C298 C34 2.460 . S
C309 C150 2.467 . S
C314 C63 2.466 . S
C325 C124 2.110 . S
C330 C8 2.133 . S
C341 C37 2.115 . S
C346 C153 2.137 . S
C357 C95 2.140 . S
C362 C66 2.124 . S
C373 C3 1.270 . S
C378 C39 1.360 . S
C389 C68 1.312 . S
C394 C32 1.320 . S
C405 C10 1.333 . S
C410 C61 1.316 . S
C421 C90 1.246 . S
C426 C155 1.315 . S
C437 C119 1.237 . S
C442 C97 1.319 . S
C453 C126 1.339 . S
C458 C148 1.310 . S
C469 C129 1.422 . S
C474 C13 1.405 . S
C485 C42 1.405 . S
C490 C158 1.411 . S
C501 C100 1.486 . S
C506 C71 1.453 . S
