# Generated by pormake.
# Topology wkj, (6)-cn, num edge types: 1
# Building blocks:
#     Node 0, Type 0, BuildingBlock: FUNLAD_clean_sbu_0, # of connection points: 6
#     Node 1, Type 0, BuildingBlock: FUNLAD_clean_sbu_0, # of connection points: 6
#     Node 2, Type 0, BuildingBlock: FUNLAD_clean_sbu_0, # of connection points: 6
#     Node 3, Type 0, BuildingBlock: FUNLAD_clean_sbu_0, # of connection points: 6
#     Node 4, Type 0, BuildingBlock: FUNLAD_clean_sbu_0, # of connection points: 6
#     Node 5, Type 0, BuildingBlock: FUNLAD_clean_sbu_0, # of connection points: 6
#     Node 6, Type 0, BuildingBlock: FUNLAD_clean_sbu_0, # of connection points: 6
#     Node 7, Type 0, BuildingBlock: FUNLAD_clean_sbu_0, # of connection points: 6
#     Node 8, Type 0, BuildingBlock: FUNLAD_clean_sbu_0, # of connection points: 6
#     Node 9, Type 0, BuildingBlock: FUNLAD_clean_sbu_0, # of connection points: 6
#     Node 10, Type 0, BuildingBlock: FUNLAD_clean_sbu_0, # of connection points: 6
#     Node 11, Type 0, BuildingBlock: FUNLAD_clean_sbu_0, # of connection points: 6
#     Edge 12, Type (0, 0), BuildingBlock: CIFDUS_clean_linker_0, # of connection points: 2
#     Edge 13, Type (0, 0), BuildingBlock: CIFDUS_clean_linker_0, # of connection points: 2
#     Edge 14, Type (0, 0), BuildingBlock: CIFDUS_clean_linker_0, # of connection points: 2
#     Edge 15, Type (0, 0), BuildingBlock: CIFDUS_clean_linker_0, # of connection points: 2
#     Edge 16, Type (0, 0), BuildingBlock: CIFDUS_clean_linker_0, # of connection points: 2
#     Edge 17, Type (0, 0), BuildingBlock: CIFDUS_clean_linker_0, # of connection points: 2
#     Edge 18, Type (0, 0), BuildingBlock: CIFDUS_clean_linker_0, # of connection points: 2
#     Edge 19, Type (0, 0), BuildingBlock: CIFDUS_clean_linker_0, # of connection points: 2
#     Edge 20, Type (0, 0), BuildingBlock: CIFDUS_clean_linker_0, # of connection points: 2
#     Edge 21, Type (0, 0), BuildingBlock: CIFDUS_clean_linker_0, # of connection points: 2
#     Edge 22, Type (0, 0), BuildingBlock: CIFDUS_clean_linker_0, # of connection points: 2
#     Edge 23, Type (0, 0), BuildingBlock: CIFDUS_clean_linker_0, # of connection points: 2
#     Edge 24, Type (0, 0), BuildingBlock: CIFDUS_clean_linker_0, # of connection points: 2
#     Edge 25, Type (0, 0), BuildingBlock: CIFDUS_clean_linker_0, # of connection points: 2
#     Edge 26, Type (0, 0), BuildingBlock: CIFDUS_clean_linker_0, # of connection points: 2
#     Edge 27, Type (0, 0), BuildingBlock: CIFDUS_clean_linker_0, # of connection points: 2
#     Edge 28, Type (0, 0), BuildingBlock: CIFDUS_clean_linker_0, # of connection points: 2
#     Edge 29, Type (0, 0), BuildingBlock: CIFDUS_clean_linker_0, # of connection points: 2
#     Edge 30, Type (0, 0), BuildingBlock: CIFDUS_clean_linker_0, # of connection points: 2
#     Edge 31, Type (0, 0), BuildingBlock: CIFDUS_clean_linker_0, # of connection points: 2
#     Edge 32, Type (0, 0), BuildingBlock: CIFDUS_clean_linker_0, # of connection points: 2
#     Edge 33, Type (0, 0), BuildingBlock: CIFDUS_clean_linker_0, # of connection points: 2
#     Edge 34, Type (0, 0), BuildingBlock: CIFDUS_clean_linker_0, # of connection points: 2
#     Edge 35, Type (0, 0), BuildingBlock: CIFDUS_clean_linker_0, # of connection points: 2
#     Edge 36, Type (0, 0), BuildingBlock: CIFDUS_clean_linker_0, # of connection points: 2
#     Edge 37, Type (0, 0), BuildingBlock: CIFDUS_clean_linker_0, # of connection points: 2
#     Edge 38, Type (0, 0), BuildingBlock: CIFDUS_clean_linker_0, # of connection points: 2
#     Edge 39, Type (0, 0), BuildingBlock: CIFDUS_clean_linker_0, # of connection points: 2
#     Edge 40, Type (0, 0), BuildingBlock: CIFDUS_clean_linker_0, # of connection points: 2
#     Edge 41, Type (0, 0), BuildingBlock: CIFDUS_clean_linker_0, # of connection points: 2
#     Edge 42, Type (0, 0), BuildingBlock: CIFDUS_clean_linker_0, # of connection points: 2
#     Edge 43, Type (0, 0), BuildingBlock: CIFDUS_clean_linker_0, # of connection points: 2
#     Edge 44, Type (0, 0), BuildingBlock: CIFDUS_clean_linker_0, # of connection points: 2
#     Edge 45, Type (0, 0), BuildingBlock: CIFDUS_clean_linker_0, # of connection points: 2
#     Edge 46, Type (0, 0), BuildingBlock: CIFDUS_clean_linker_0, # of connection points: 2
#     Edge 47, Type (0, 0), BuildingBlock: CIFDUS_clean_linker_0, # of connection points: 2
# Relax obj value: 1.343
# Max RMSD: 0.252
# Mean RMSD: 0.252
data_MOF--net-wkj--node1-FUNLAD_clean_sbu_0--edge1-CIFDUS_clean_linker_0
_symmetry_space_group_name_H-M    P1
_symmetry_Int_Tables_number       1
_symmetry_cell_setting            triclinic
loop_
_symmetry_equiv_pos_as_xyz
'x, y, z'
_cell_length_a     61.898462
_cell_length_b     61.946359
_cell_length_c     18.39275
_cell_angle_alpha  90.081359
_cell_angle_beta   89.927208
_cell_angle_gamma 120.13247
loop_
_atom_site_label
_atom_site_type_symbol
_atom_site_fract_x
_atom_site_fract_y
_atom_site_fract_z
_atom_type_partial_charge
C0 C 0.51622 0.10002 0.19816 0.0
N1 N 0.48244 0.13969 0.29138 0.0
C2 C 0.50426 0.16163 0.28075 0.0
C3 C 0.50424 0.18401 0.26591 0.0
C4 C 0.48158 0.18422 0.26204 0.0
C5 C 0.45943 0.16128 0.27409 0.0
C6 C 0.46026 0.13937 0.2883 0.0
Zn7 Zn 0.48173 0.10488 0.30082 0.0
C8 C 0.4448 0.0672 0.19664 0.0
N9 N 0.47575 0.03271 0.31107 0.0
C10 C 0.49101 0.02889 0.35582 0.0
C11 C 0.4661 1.01827 0.25031 0.0
C12 C 0.47816 1.00649 0.22086 0.0
C13 C 0.50059 1.01164 0.2534 0.0
C14 C 0.50287 1.01649 0.32854 0.0
Zn15 Zn 0.47848 0.06736 0.31173 0.0
O16 O 0.51272 0.11732 0.22278 0.0
C17 C 0.51757 0.10403 0.41367 0.0
O18 O 0.50369 0.07821 0.22451 0.0
H19 H 0.45214 1.01898 0.21734 0.0
H20 H 0.52181 0.1618 0.28238 0.0
H21 H 0.49751 0.03899 0.40627 0.0
O22 O 0.50856 0.11772 0.39317 0.0
O23 O 0.509 0.08245 0.38589 0.0
H24 H 0.44298 0.12188 0.29508 0.0
O25 O 0.45381 0.05598 0.39363 0.0
O26 O 0.44909 0.08867 0.37924 0.0
O27 O 0.44884 0.05369 0.23922 0.0
O28 O 0.45641 0.0907 0.20738 0.0
C29 C 0.44222 0.06735 0.40865 0.0
H30 H 0.52191 0.20104 0.2579 0.0
H31 H 0.44137 0.16002 0.27068 0.0
H32 H 0.47392 0.99987 0.16526 0.0
H33 H 0.51867 1.018 0.3583 0.0
C34 C 0.4444 0.51589 0.54049 0.0
N35 N 0.36697 0.47609 0.60598 0.0
C36 C 0.3679 0.49853 0.60964 0.0
C37 C 0.34682 0.50062 0.5931 0.0
C38 C 0.32413 0.47949 0.57184 0.0
C39 C 0.32364 0.45647 0.56962 0.0
C40 C 0.34521 0.4552 0.58676 0.0
Zn41 Zn 0.40026 0.47479 0.62563 0.0
C42 C 0.40878 0.4432 0.514 0.0
N43 N 0.46782 0.47259 0.661 0.0
C44 C 0.46988 0.46525 0.72943 0.0
C45 C 0.48812 0.48388 0.61674 0.0
C46 C 0.51191 0.49304 0.64636 0.0
C47 C 0.51409 0.49214 0.72221 0.0
C48 C 0.49339 0.47403 0.76017 0.0
Zn49 Zn 0.43634 0.47439 0.63753 0.0
O50 O 0.42091 0.50596 0.55132 0.0
C51 C 0.43116 0.50614 0.75302 0.0
O52 O 0.45643 0.50711 0.5732 0.0
H53 H 0.4862 0.48878 0.56167 0.0
H54 H 0.38519 0.51505 0.62471 0.0
H55 H 0.45376 0.45571 0.76431 0.0
O56 O 0.41097 0.50101 0.71967 0.0
O57 O 0.4439 0.49668 0.73045 0.0
H58 H 0.34459 0.43746 0.58351 0.0
O59 O 0.4161 0.4424 0.6967 0.0
O60 O 0.3809 0.44276 0.70022 0.0
O61 O 0.42935 0.45233 0.54781 0.0
O62 O 0.39248 0.44907 0.53325 0.0
C63 C 0.39369 0.43254 0.71746 0.0
H64 H 0.34839 0.51878 0.59728 0.0
H65 H 0.30693 0.43959 0.55293 0.0
H66 H 0.52788 0.5057 0.61405 0.0
H67 H 0.49488 0.47116 0.81741 0.0
C68 C 0.94192 0.42294 0.78818 0.0
N69 N 0.90635 0.35656 0.92194 0.0
C70 C 0.88439 0.35528 0.90323 0.0
C71 C 0.86205 0.33212 0.89724 0.0
C72 C 0.86184 0.30963 0.9109 0.0
C73 C 0.88477 0.31161 0.93113 0.0
C74 C 0.90672 0.33514 0.93606 0.0
Zn75 Zn 0.94023 0.3918 0.9198 0.0
C76 C 0.98163 0.39085 0.83732 0.0
N77 N 1.00825 0.46232 0.90207 0.0
C78 C 1.00941 0.48337 0.87589 0.0
C79 C 0.02933 0.46302 0.92745 0.0
C80 C 0.05023 0.48598 0.94527 0.0
C81 C 0.04748 0.50712 0.94216 0.0
C82 C 0.03063 0.5064 0.88941 0.0
Zn83 Zn 0.97486 0.42982 0.91062 0.0
O84 O 0.92771 0.40196 0.81898 0.0
C85 C 0.93597 0.43372 0.9986 0.0
O86 O 0.96294 0.43782 0.81561 0.0
H87 H 1.02904 0.44598 0.94182 0.0
H88 H 0.88418 0.37229 0.89174 0.0
H89 H 0.99327 0.48265 0.85086 0.0
O90 O 0.92387 0.41008 0.9871 0.0
O91 O 0.95779 0.44678 0.97162 0.0
H92 H 0.9242 0.33618 0.94988 0.0
O93 O 0.98742 0.42184 1.00561 0.0
O94 O 0.95532 0.38405 0.01975 0.0
O95 O 0.99119 0.41363 0.85349 0.0
O96 O 0.95894 0.37564 0.8546 0.0
C97 C 0.9769 0.40147 0.04027 0.0
H98 H 0.84503 0.33193 0.88247 0.0
H99 H 0.88597 0.29504 0.94146 0.0
H100 H 0.0647 0.48606 0.97855 0.0
H101 H 0.02991 0.52295 0.87545 0.0
C102 C 0.54478 0.94004 0.12512 0.0
N103 N 0.56563 0.89709 0.26568 0.0
C104 C 0.54773 0.87775 0.22573 0.0
C105 C 0.54824 0.85538 0.21593 0.0
C106 C 0.56716 0.85219 0.24807 0.0
C107 C 0.58437 0.87192 0.29288 0.0
C108 C 0.5835 0.89413 0.30002 0.0
Zn109 Zn 0.57081 0.93412 0.25716 0.0
C110 C 0.61741 0.96765 0.17747 0.0
N111 N 0.58835 1.00938 0.22393 0.0
C112 C 0.59903 1.01705 0.15695 0.0
C113 C 0.59124 0.02633 0.27553 0.0
C114 C 0.60298 0.0517 0.25789 0.0
C115 C 0.61165 0.05964 0.18597 0.0
C116 C 0.6125 0.04219 0.13918 0.0
Zn117 Zn 0.57649 0.97273 0.24664 0.0
O118 O 0.54665 0.9232 0.1598 0.0
C119 C 0.53001 0.94291 0.32939 0.0
O120 O 0.55689 0.96237 0.14772 0.0
H121 H 0.58405 0.02017 0.32983 0.0
H122 H 0.53356 0.87989 0.19796 0.0
H123 H 0.59744 1.00362 0.1166 0.0
O124 O 0.53705 0.92656 0.32441 0.0
O125 O 0.54328 0.96426 0.29962 0.0
H126 H 0.59799 0.90944 0.33064 0.0
O127 O 0.59549 0.9837 0.34196 0.0
O128 O 0.59501 0.94831 0.35721 0.0
O129 O 0.60868 0.98079 0.1994 0.0
O130 O 0.60469 0.94418 0.18794 0.0
C131 C 0.60224 0.97075 0.3778 0.0
H132 H 0.53446 0.84126 0.18046 0.0
H133 H 0.59897 0.87066 0.32139 0.0
H134 H 0.60291 0.06436 0.29835 0.0
H135 H 0.61981 0.04736 0.08446 0.0
C136 C 0.62067 0.53062 0.44982 0.0
N137 N 0.68954 0.55993 0.5792 0.0
C138 C 0.69014 0.53912 0.55764 0.0
C139 C 0.71313 0.53976 0.54716 0.0
C140 C 0.736 0.56212 0.55792 0.0
C141 C 0.73463 0.5829 0.58312 0.0
C142 C 0.71139 0.58143 0.59324 0.0
Zn143 Zn 0.65636 0.56265 0.57542 0.0
C144 C 0.66334 0.60308 0.47596 0.0
N145 N 0.59315 0.57319 0.55232 0.0
C146 C 0.56826 0.55691 0.55613 0.0
C147 C 0.60212 0.59839 0.55419 0.0
C148 C 0.58673 0.60787 0.57253 0.0
C149 C 0.56231 0.59121 0.59378 0.0
C150 C 0.55211 0.56571 0.57498 0.0
Zn151 Zn 0.6203 0.56324 0.56169 0.0
O152 O 0.64211 0.53754 0.47835 0.0
C153 C 0.61128 0.522 0.66368 0.0
O154 O 0.60702 0.53872 0.47533 0.0
H155 H 0.62187 0.61151 0.55193 0.0
H156 H 0.67283 0.52219 0.54537 0.0
H157 H 0.56139 0.53711 0.5524 0.0
O158 O 0.6344 0.53035 0.64809 0.0
O159 O 0.59998 0.53252 0.63556 0.0
H160 H 0.71093 0.59799 0.60933 0.0
O161 O 0.63277 0.58767 0.64882 0.0
O162 O 0.6673 0.58763 0.67295 0.0
O163 O 0.64034 0.59195 0.49003 0.0
O164 O 0.67678 0.59508 0.50369 0.0
C165 C 0.65198 0.59524 0.68774 0.0
H166 H 0.71293 0.5232 0.52739 0.0
H167 H 0.75149 0.6005 0.59361 0.0
H168 H 0.59521 0.62757 0.5852 0.0
H169 H 0.53295 0.55212 0.5883 0.0
C170 C 0.11646 0.60363 0.87131 0.0
N171 N 0.15529 0.68167 0.94355 0.0
C172 C 0.17692 0.681 0.94902 0.0
C173 C 0.20037 0.70265 0.93817 0.0
C174 C 0.20211 0.72569 0.92105 0.0
C175 C 0.1794 0.72574 0.91517 0.0
C176 C 0.1563 0.70364 0.92675 0.0
Zn177 Zn 0.12008 0.64815 0.95992 0.0
C178 C 0.08065 0.64046 0.84502 0.0
N179 N 0.05051 0.58249 0.98971 0.0
C180 C 0.02924 0.56435 0.92257 0.0
C181 C 0.04586 0.58208 0.08292 0.0
C182 C 1.01367 0.56123 0.12465 0.0
C183 C 0.98525 0.53971 0.05363 0.0
C184 C 0.99495 0.54089 0.94741 0.0
Zn185 Zn 0.08412 0.6117 0.96634 0.0
O186 O 0.13088 0.62682 0.88612 0.0
C187 C 0.12013 0.61479 0.08197 0.0
O188 O 0.09472 0.59198 0.89901 0.0
H189 H 0.06066 0.59524 0.11772 0.0
H190 H 0.17607 0.66354 0.96171 0.0
H191 H 0.03485 0.56739 0.86609 0.0
O192 O 0.13452 0.63669 0.05619 0.0
O193 O 0.09882 0.60153 0.05383 0.0
H194 H 0.13913 0.70413 0.92239 0.0
O195 O 0.07286 0.63097 0.03105 0.0
O196 O 0.10669 0.66746 0.03496 0.0
O197 O 0.06886 0.62025 0.87997 0.0
O198 O 0.10306 0.65644 0.8641 0.0
C199 C 0.0839 0.65314 0.05327 0.0
H200 H 0.21702 0.70117 0.94233 0.0
H201 H 0.1794 0.74283 0.90297 0.0
H202 H 1.00971 0.56383 0.18002 0.0
H203 H 0.98099 0.53188 0.90546 0.0
C204 C 0.94685 0.5198 0.50502 0.0
N205 N 0.90907 0.55963 0.44104 0.0
C206 C 0.88749 0.53711 0.43911 0.0
C207 C 0.86429 0.53497 0.4558 0.0
C208 C 0.86267 0.55613 0.47576 0.0
C209 C 0.88528 0.57924 0.47665 0.0
C210 C 0.90819 0.58056 0.45919 0.0
Zn211 Zn 0.94341 0.5604 0.41742 0.0
C212 C 0.98613 0.59315 0.52161 0.0
N213 N 1.01354 0.56121 0.37532 0.0
C214 C 1.02098 0.54674 0.41061 0.0
C215 C 1.02811 0.57647 0.32011 0.0
C216 C 0.04631 0.57268 0.28761 0.0
C217 C 0.04829 0.55231 0.30998 0.0
C218 C 0.03988 0.54335 0.3806 0.0
Zn219 Zn 0.979 0.55844 0.40042 0.0
O220 O 0.93364 0.53007 0.49404 0.0
C221 C 0.9376 0.52338 0.2975 0.0
O222 O 0.96759 0.528 0.4719 0.0
H223 H 1.02449 0.58997 0.29493 0.0
H224 H 0.88819 0.52052 0.42488 0.0
H225 H 1.01102 0.53612 0.458 0.0
O226 O 0.92528 0.5321 0.32993 0.0
O227 O 0.96049 0.53198 0.31422 0.0
H228 H 0.92533 0.5984 0.46097 0.0
O229 O 0.9887 0.58794 0.33305 0.0
O230 O 0.95547 0.59164 0.33797 0.0
O231 O 0.99648 0.58348 0.48495 0.0
O232 O 0.96361 0.58735 0.50658 0.0
C233 C 0.97754 0.59926 0.31402 0.0
H234 H 0.8477 0.51672 0.45246 0.0
H235 H 0.88546 0.59618 0.49223 0.0
H236 H 0.05467 0.58199 0.23708 0.0
H237 H 0.04303 0.5291 0.40306 0.0
C238 C 0.45536 0.94808 0.82436 0.0
N239 N 0.37363 0.90109 0.78577 0.0
C240 C 0.36722 0.8927 0.85557 0.0
C241 C 0.34469 0.87028 0.87097 0.0
C242 C 0.32816 0.85623 0.81435 0.0
C243 C 0.33571 0.86515 0.74299 0.0
C244 C 0.35832 0.88741 0.73001 0.0
Zn245 Zn 0.40548 0.93636 0.75672 0.0
C246 C 0.41415 0.97897 0.86143 0.0
N247 N 0.4654 1.00827 0.68586 0.0
C248 C 0.48895 0.01998 0.71357 0.0
C249 C 0.46098 1.01472 0.61862 0.0
C250 C 0.48066 0.02959 0.57224 0.0
C251 C 0.50489 0.0365 0.59375 0.0
C252 C 0.50922 0.03503 0.66829 0.0
Zn253 Zn 0.43734 0.97465 0.72848 0.0
O254 O 0.43205 0.93143 0.8271 0.0
C255 C 0.43151 0.93411 0.62157 0.0
O256 O 0.46223 0.96704 0.78357 0.0
H257 H 0.44254 1.00571 0.59534 0.0
H258 H 0.37927 0.90365 0.89981 0.0
H259 H 0.49233 1.01528 0.76734 0.0
O260 O 0.41495 0.91918 0.66637 0.0
O261 O 0.44173 0.95744 0.63288 0.0
H262 H 0.36338 0.89403 0.67479 0.0
O263 O 0.41275 0.982 0.68066 0.0
O264 O 0.38099 0.94415 0.68352 0.0
O265 O 0.4331 0.99142 0.82092 0.0
O266 O 0.39899 0.95586 0.84728 0.0
C267 C 0.39043 0.96698 0.66469 0.0
H268 H 0.33988 0.86449 0.92699 0.0
H269 H 0.32412 0.85504 0.69696 0.0
H270 H 0.47649 0.03092 0.5159 0.0
H271 H 0.52791 0.04112 0.68775 0.0
C272 C 0.52583 0.43539 0.16091 0.0
N273 N 0.48806 0.35765 0.09531 0.0
C274 C 0.51062 0.35873 0.09662 0.0
C275 C 0.5124 0.33748 0.11374 0.0
C276 C 0.49082 0.31446 0.13016 0.0
C277 C 0.4678 0.31396 0.12823 0.0
C278 C 0.46684 0.33566 0.11075 0.0
Zn279 Zn 0.48583 0.39056 0.07545 0.0
C280 C 0.45353 0.39732 0.18931 0.0
N281 N 0.4795 0.45619 0.04308 0.0
C282 C 0.49125 0.47705 0.08508 0.0
C283 C 0.46938 0.45695 0.97771 0.0
C284 C 0.47561 0.47985 0.94649 0.0
C285 C 0.49447 0.50137 0.97949 0.0
C286 C 0.49798 0.50026 0.05462 0.0
Zn287 Zn 0.48349 0.42571 0.06551 0.0
O288 O 0.51654 0.41199 0.15004 0.0
C289 C 0.51605 0.42253 0.94769 0.0
O290 O 0.5165 0.44697 0.12843 0.0
H291 H 0.45932 0.44045 0.94464 0.0
H292 H 0.52743 0.37624 0.08525 0.0
H293 H 0.49819 0.47619 0.13827 0.0
O294 O 0.51242 0.40278 0.98101 0.0
O295 O 0.5053 0.434 0.97098 0.0
H296 H 0.44899 0.33488 0.11008 0.0
O297 O 0.45135 0.40417 1.00819 0.0
O298 O 0.45411 0.37039 1.00022 0.0
O299 O 0.46193 0.41795 0.15645 0.0
O300 O 0.45992 0.38159 0.16822 0.0
C301 C 0.44264 0.38215 0.98524 0.0
H302 H 0.53073 0.33931 0.11534 0.0
H303 H 0.4505 0.29686 0.1393 0.0
H304 H 0.47038 0.48037 0.89073 0.0
H305 H 0.51108 0.51689 0.08391 0.0
C306 C 0.10902 0.50533 0.58736 0.0
N307 N 0.14746 0.47458 0.46158 0.0
C308 C 0.16899 0.49551 0.48217 0.0
C309 C 0.19119 0.49482 0.49412 0.0
C310 C 0.19146 0.47231 0.48564 0.0
C311 C 0.16917 0.45134 0.46154 0.0
C312 C 0.14751 0.45286 0.45003 0.0
Zn313 Zn 0.11221 0.47298 0.46118 0.0
C314 C 0.07591 0.43272 0.55873 0.0
N315 N 0.03988 0.46592 0.47788 0.0
C316 C 0.03251 0.48311 0.4738 0.0
C317 C 1.02293 0.44109 0.46842 0.0
C318 C 0.99972 0.43355 0.43757 0.0
C319 C 0.99441 0.45189 0.41561 0.0
C320 C 1.00892 0.47609 0.44527 0.0
Zn321 Zn 0.07668 0.47444 0.47447 0.0
O322 O 0.12286 0.4976 0.5589 0.0
C323 C 0.11102 0.51494 0.37271 0.0
O324 O 0.08753 0.49835 0.56131 0.0
H325 H 1.0285 0.42723 0.47325 0.0
H326 H 0.16881 0.51263 0.4922 0.0
H327 H 0.04581 0.5025 0.48454 0.0
O328 O 0.12486 0.50567 0.38907 0.0
O329 O 0.08916 0.50543 0.40041 0.0
H330 H 0.13038 0.43625 0.4344 0.0
O331 O 0.06537 0.45043 0.38665 0.0
O332 O 0.09917 0.44889 0.36324 0.0
O333 O 0.0655 0.44528 0.54565 0.0
O334 O 0.09719 0.43943 0.5308 0.0
C335 C 0.07651 0.44223 0.34811 0.0
H336 H 0.20766 0.51153 0.513 0.0
H337 H 0.16826 0.43362 0.45272 0.0
H338 H 0.98878 0.41461 0.41733 0.0
H339 H 1.00468 0.49059 0.43221 0.0
C340 C 0.61054 0.09724 0.91015 0.0
N341 N 0.68521 0.13592 0.81031 0.0
C342 C 0.695 0.1448 0.87756 0.0
C343 C 0.71732 0.16787 0.88599 0.0
C344 C 0.73007 0.18241 0.82479 0.0
C345 C 0.71954 0.17261 0.756 0.0
C346 C 0.69721 0.14945 0.75001 0.0
Zn347 Zn 0.65145 0.10074 0.80141 0.0
C348 C 0.65066 0.0615 0.90152 0.0
N349 N 0.58431 0.02943 0.7945 0.0
C350 C 0.56159 0.02506 0.7723 0.0
C351 C 0.59102 1.01164 0.78597 0.0
C352 C 0.57795 0.9918 0.73837 0.0
C353 C 0.55704 0.98965 0.70359 0.0
C354 C 0.547 1.00441 0.72824 0.0
Zn355 Zn 0.61409 0.06515 0.80376 0.0
O356 O 0.63347 0.1111 0.89085 0.0
C357 C 0.61265 0.10121 0.69764 0.0
O358 O 0.59771 0.07567 0.88219 0.0
H359 H 0.60893 1.01508 0.8043 0.0
H360 H 0.68544 0.13401 0.92525 0.0
H361 H 0.5564 0.03918 0.78001 0.0
O362 O 0.63512 0.11506 0.72034 0.0
O363 O 0.59964 0.0792 0.72283 0.0
H364 H 0.68949 0.14228 0.69679 0.0
O365 O 0.63022 0.05455 0.72359 0.0
O366 O 0.6664 0.0885 0.7108 0.0
O367 O 0.6281 0.0516 0.88209 0.0
O368 O 0.6662 0.08344 0.87888 0.0
C369 C 0.65112 0.06596 0.69234 0.0
H370 H 0.72421 0.17442 0.94032 0.0
H371 H 0.72858 0.18262 0.70671 0.0
H372 H 0.58615 0.98078 0.72092 0.0
H373 H 0.53049 1.00286 0.70302 0.0
C374 C 0.53961 0.60893 0.24904 0.0
N375 N 0.56596 0.67763 0.12472 0.0
C376 C 0.54372 0.67493 0.14701 0.0
C377 C 0.54092 0.69585 0.15946 0.0
C378 C 0.56107 0.72034 0.14849 0.0
C379 C 0.58367 0.72248 0.12365 0.0
C380 C 0.58575 0.701 0.11257 0.0
Zn381 Zn 0.57056 0.64558 0.12371 0.0
C382 C 0.6121 0.65228 0.21778 0.0
N383 N 0.58123 0.5822 0.1375 0.0
C384 C 0.56476 0.5573 0.13732 0.0
C385 C 0.60629 0.59095 0.13004 0.0
C386 C 0.61506 0.57517 0.10893 0.0
C387 C 0.59768 0.55057 0.09111 0.0
C388 C 0.5729 0.54077 0.11676 0.0
Zn389 Zn 0.57133 0.60946 0.13324 0.0
O390 O 0.54587 0.6302 0.22078 0.0
C391 C 0.52941 0.60097 0.03605 0.0
O392 O 0.54813 0.59575 0.22275 0.0
H393 H 0.61952 0.61069 0.13053 0.0
H394 H 0.52814 0.65645 0.15758 0.0
H395 H 0.5451 0.55058 0.14558 0.0
O396 O 0.53824 0.6241 0.05172 0.0
O397 O 0.53969 0.5893 0.06298 0.0
H398 H 0.60348 0.70313 0.09589 0.0
O399 O 0.59439 0.62251 0.04337 0.0
O400 O 0.59531 0.65788 0.02546 0.0
O401 O 0.60127 0.62949 0.20107 0.0
O402 O 0.60323 0.66563 0.1949 0.0
C403 C 0.60227 0.64231 1.00704 0.0
H404 H 0.52315 0.69265 0.17984 0.0
H405 H 0.5998 0.74059 0.11294 0.0
H406 H 0.63432 0.58336 0.09134 0.0
H407 H 0.55887 0.5215 0.10646 0.0
H408 H 0.51137 0.22338 0.16877 0.0
H409 H 0.44995 0.19903 0.31926 0.0
H410 H 0.44715 0.23606 0.29206 0.0
H411 H 0.46199 0.27583 0.226 0.0
H412 H 0.52321 0.30014 0.07471 0.0
H413 H 0.52637 0.26338 0.10297 0.0
C414 C 0.49748 0.22618 0.19627 0.0
C415 C 0.48079 0.20789 0.24597 0.0
C416 C 0.49592 0.24783 0.18038 0.0
C417 C 0.46282 0.21219 0.27989 0.0
C418 C 0.46127 0.2336 0.26462 0.0
C419 C 0.47594 0.27312 0.1985 0.0
C420 C 0.49239 0.29129 0.14812 0.0
C421 C 0.47761 0.25156 0.21467 0.0
C422 C 0.51048 0.2871 0.11454 0.0
C423 C 0.51223 0.26581 0.13037 0.0
H424 H 0.27365 0.44562 0.59207 0.0
H425 H 0.3233 0.51847 0.50211 0.0
H426 H 0.28765 0.523 0.46946 0.0
H427 H 0.2419 0.50637 0.46477 0.0
H428 H 0.19238 0.43323 0.55296 0.0
H429 H 0.22806 0.42878 0.58581 0.0
C430 C 0.27682 0.46245 0.56475 0.0
C431 C 0.30161 0.48173 0.55066 0.0
C432 C 0.25598 0.46494 0.54505 0.0
C433 C 0.30479 0.50342 0.51566 0.0
C434 C 0.28425 0.506 0.49622 0.0
C435 C 0.23883 0.48948 0.49149 0.0
C436 C 0.21407 0.47012 0.50546 0.0
C437 C 0.25969 0.48694 0.51075 0.0
C438 C 0.2109 0.44835 0.5398 0.0
C439 C 0.23144 0.44581 0.55928 0.0
H440 H 0.82307 0.29404 0.81172 0.0
H441 H 0.84647 0.2678 0.99597 0.0
H442 H 0.80875 0.22696 0.98601 0.0
H443 H 0.76875 0.19804 0.92491 0.0
H444 H 0.74509 0.22464 0.74198 0.0
H445 H 0.78285 0.26535 0.75179 0.0
C446 C 0.81992 0.27953 0.85027 0.0
C447 C 0.83808 0.28444 0.90452 0.0
C448 C 0.79792 0.25577 0.84435 0.0
C449 C 0.83338 0.26488 0.95287 0.0
C450 C 0.81157 0.24137 0.9475 0.0
C451 C 0.77164 0.21272 0.88737 0.0
C452 C 0.75368 0.20772 0.83232 0.0
C453 C 0.79365 0.2365 0.8934 0.0
C454 C 0.75841 0.22732 0.78411 0.0
C455 C 0.78009 0.25088 0.78999 0.0
H456 H 0.59714 0.76826 0.19228 0.0
H457 H 0.51877 0.72472 0.13827 0.0
H458 H 0.51353 0.76014 0.16702 0.0
H459 H 0.53073 0.80373 0.20795 0.0
H460 H 0.60997 0.84842 0.25013 0.0
H461 H 0.61482 0.81259 0.2261 0.0
C462 C 0.57889 0.76639 0.18566 0.0
C463 C 0.55839 0.74313 0.16353 0.0
C464 C 0.57594 0.78728 0.20093 0.0
C465 C 0.53497 0.74172 0.15679 0.0
C466 C 0.53191 0.76224 0.17273 0.0
C467 C 0.54921 0.80598 0.21133 0.0
C468 C 0.56979 0.82937 0.23247 0.0
C469 C 0.55222 0.78517 0.19509 0.0
C470 C 0.59337 0.83098 0.23667 0.0
C471 C 0.59634 0.81035 0.22187 0.0
H472 H 0.75243 0.52815 0.57869 0.0
H473 H 0.77648 0.60156 0.49271 0.0
H474 H 0.81695 0.60643 0.46132 0.0
H475 H 0.84594 0.58991 0.45568 0.0
H476 H 0.82243 0.51694 0.54473 0.0
H477 H 0.78192 0.51197 0.57549 0.0
C478 C 0.76644 0.5452 0.55283 0.0
C479 C 0.76102 0.56449 0.53896 0.0
C480 C 0.79009 0.54803 0.53463 0.0
C481 C 0.77985 0.58646 0.5057 0.0
C482 C 0.80315 0.58925 0.48709 0.0
C483 C 0.83216 0.57296 0.48243 0.0
C484 C 0.83773 0.55377 0.49657 0.0
C485 C 0.8086 0.57021 0.50128 0.0
C486 C 0.81901 0.53195 0.53093 0.0
C487 C 0.79565 0.52909 0.54935 0.0
H488 H 0.31486 0.81774 0.9143 0.0
H489 H 0.28363 0.84247 0.74651 0.0
H490 H 0.24284 0.80536 0.76406 0.0
H491 H 0.21545 0.76511 0.82538 0.0
H492 H 0.24631 0.74019 0.99376 0.0
H493 H 0.2871 0.77752 0.97724 0.0
C494 C 0.29914 0.81515 0.8818 0.0
C495 C 0.30284 0.83321 0.82844 0.0
C496 C 0.27532 0.79338 0.89197 0.0
C497 C 0.2819 0.82902 0.78698 0.0
C498 C 0.25832 0.8077 0.79728 0.0
C499 C 0.23096 0.76783 0.8591 0.0
C500 C 0.22731 0.74931 0.91071 0.0
C501 C 0.25473 0.78962 0.84935 0.0
C502 C 0.24817 0.75352 0.9527 0.0
C503 C 0.27169 0.77513 0.94363 0.0
H504 H 0.56107 0.07902 0.92116 0.0
H505 H 0.6308 0.13428 0.01627 0.0
H506 H 0.60775 0.14312 0.10982 0.0
H507 H 0.56709 0.13093 0.17322 0.0
H508 H 0.49858 0.07401 0.07598 0.0
H509 H 0.52176 0.07008 0.97496 0.0
C510 C 0.57139 0.09322 0.96186 0.0
C511 C 0.5977 0.10563 0.96227 0.0
C512 C 0.55808 0.09787 0.01546 0.0
C513 C 0.61058 0.12432 0.01473 0.0
C514 C 0.59735 0.12932 0.06837 0.0
C515 C 0.55732 0.11834 0.12856 0.0
C516 C 0.53108 0.10291 0.13173 0.0
C517 C 0.57101 0.11569 0.07057 0.0
C518 C 0.5187 0.08617 0.07451 0.0
C519 C 0.53196 0.08381 0.01684 0.0
H520 H 0.48891 0.5804 0.25567 0.0
H521 H 0.5552 0.61451 0.38808 0.0
H522 H 0.53089 0.59026 0.49303 0.0
H523 H 0.49245 0.55455 0.54231 0.0
H524 H 0.42548 0.52139 0.41248 0.0
H525 H 0.44837 0.54952 0.31171 0.0
C526 C 0.49781 0.58299 0.30824 0.0
C527 C 0.52373 0.59946 0.31459 0.0
C528 C 0.48381 0.56847 0.36833 0.0
C529 C 0.53522 0.60226 0.38232 0.0
C530 C 0.52143 0.58806 0.44206 0.0
C531 C 0.48277 0.55384 0.49246 0.0
C532 C 0.45733 0.53574 0.48475 0.0
C533 C 0.49596 0.57038 0.43507 0.0
C534 C 0.44502 0.53516 0.41994 0.0
C535 C 0.45815 0.55118 0.36208 0.0
H536 H 0.9166 0.44778 0.77566 0.0
H537 H 0.95597 0.41925 0.65218 0.0
H538 H 0.95991 0.44617 0.54976 0.0
H539 H 0.95748 0.48217 0.50284 0.0
H540 H 0.91789 0.51077 0.6259 0.0
H541 H 0.90862 0.47958 0.72069 0.0
C542 C 0.92494 0.44664 0.72493 0.0
C543 C 0.93537 0.43107 0.72056 0.0
C544 C 0.92775 0.46277 0.66703 0.0
C545 C 0.94712 0.4305 0.65579 0.0
C546 C 0.94976 0.44624 0.59775 0.0
C547 C 0.94656 0.48136 0.55003 0.0
C548 C 0.93872 0.49903 0.5579 0.0
C549 C 0.94104 0.46317 0.60393 0.0
C550 C 0.92424 0.49748 0.6187 0.0
C551 C 0.91895 0.47965 0.67299 0.0
H552 H 0.4514 0.9113 0.92086 0.0
H553 H 0.50415 0.98374 0.83313 0.0
H554 H 0.53645 0.98632 0.91228 0.0
H555 H 0.54963 0.97016 1.01299 0.0
H556 H 0.49898 0.89776 0.10239 0.0
H557 H 0.46648 0.89292 0.01616 0.0
C558 C 0.47 0.9275 0.91861 0.0
C559 C 0.47494 0.94734 0.87074 0.0
C560 C 0.4891 0.92897 0.96489 0.0
C561 C 0.4994 0.96811 0.8689 0.0
C562 C 0.51811 0.96972 0.9145 0.0
C563 C 0.53164 0.95306 1.01275 0.0
C564 C 0.52683 0.93434 0.06407 0.0
C565 C 0.51312 0.95052 0.96348 0.0
C566 C 0.50336 0.91234 0.0629 0.0
C567 C 0.48465 0.90972 0.01401 0.0
H568 H 0.56957 0.48023 0.15408 0.0
H569 H 0.52355 0.41969 0.299 0.0
H570 H 0.55054 0.44282 0.40136 0.0
H571 H 0.58495 0.48201 0.45173 0.0
H572 H 0.6326 0.54177 0.30717 0.0
H573 H 0.60794 0.51712 0.20241 0.0
C574 C 0.56585 0.47196 0.20785 0.0
C575 C 0.54464 0.44826 0.21904 0.0
C576 C 0.58188 0.4852 0.2664 0.0
C577 C 0.53993 0.43775 0.28894 0.0
C578 C 0.5553 0.45103 0.34756 0.0
C579 C 0.59045 0.4892 0.39695 0.0
C580 C 0.61083 0.51344 0.38688 0.0
C581 C 0.57609 0.47493 0.33723 0.0
C582 C 0.61735 0.52292 0.31596 0.0
C583 C 0.60303 0.50894 0.25622 0.0
H584 H 0.10199 0.55464 0.87436 0.0
H585 H 0.14665 0.62184 0.75097 0.0
H586 H 0.1517 0.59734 0.65428 0.0
H587 H 0.13827 0.55587 0.59802 0.0
H588 H 0.09337 0.48923 0.72306 0.0
H589 H 0.09385 0.51434 0.82637 0.0
C590 C 0.11325 0.564 0.8269 0.0
C591 C 0.12375 0.59 0.81946 0.0
C592 C 0.116 0.54981 0.77181 0.0
C593 C 0.13845 0.60188 0.75805 0.0
C594 C 0.1412 0.58783 0.70257 0.0
C595 C 0.1295 0.54702 0.64902 0.0
C596 C 0.1162 0.52079 0.65373 0.0
C597 C 0.12944 0.56167 0.70789 0.0
C598 C 0.10416 0.5094 0.71903 0.0
C599 C 0.10419 0.52374 0.77774 0.0
H600 H 0.43145 0.02851 0.87906 0.0
H601 H 0.38997 0.95783 0.98939 0.0
H602 H 0.39145 0.97958 0.10231 0.0
H603 H 0.41015 1.01867 0.17289 0.0
H604 H 0.45273 0.08928 0.06299 0.0
H605 H 0.44437 0.06761 0.94616 0.0
C606 C 0.42237 1.01783 0.92756 0.0
C607 C 0.41098 0.99156 0.92612 0.0
C608 C 0.42341 0.03049 0.99225 0.0
C609 C 0.39894 0.97801 0.98903 0.0
C610 C 0.39987 0.99047 0.05367 0.0
C611 C 0.4169 0.02939 0.12306 0.0
C612 C 0.43223 0.05561 0.12686 0.0
C613 C 0.41278 1.01671 0.05642 0.0
C614 C 0.44074 0.06918 0.06181 0.0
C615 C 0.43631 0.05672 0.99502 0.0
H616 H 0.4172 0.40879 0.20327 0.0
H617 H 0.45649 0.3791 0.32191 0.0
H618 H 0.44145 0.38689 0.4369 0.0
H619 H 0.42462 0.41005 0.50195 0.0
H620 H 0.38675 0.44127 0.38317 0.0
H621 H 0.39321 0.42449 0.26952 0.0
C622 C 0.42173 0.40324 0.25435 0.0
C623 C 0.4381 0.39361 0.25451 0.0
C624 C 0.41358 0.40843 0.3199 0.0
C625 C 0.4438 0.38636 0.32057 0.0
C626 C 0.43546 0.39114 0.38624 0.0
C627 C 0.41715 0.41254 0.45134 0.0
C628 C 0.40556 0.42719 0.45047 0.0
C629 C 0.42146 0.40334 0.38643 0.0
C630 C 0.39569 0.43007 0.38507 0.0
C631 C 0.39963 0.42069 0.3201 0.0
H632 H 0.08102 0.42286 0.69995 0.0
H633 H 0.03507 0.3918 0.51011 0.0
H634 H 0.99804 0.36921 0.58597 0.0
H635 H 0.9783 0.36971 0.70334 0.0
H636 H 1.02467 0.39852 0.89365 0.0
H637 H 0.0618 0.40967 0.82154 0.0
C638 C 0.06322 0.40976 0.67548 0.0
C639 C 0.06071 0.4094 0.59961 0.0
C640 C 0.04183 0.39691 0.71976 0.0
C641 C 0.03744 0.39247 0.56861 0.0
C642 C 1.0161 0.37985 0.61203 0.0
C643 C 0.9963 0.3769 0.72968 0.0
C644 C 0.99879 0.3837 0.8034 0.0
C645 C 1.01784 0.38351 0.68745 0.0
C646 C 1.02233 0.39323 0.83673 0.0
C647 C 0.04369 0.39997 0.7953 0.0
H648 H 0.62534 0.96176 0.03368 0.0
H649 H 0.66057 1.007 0.22223 0.0
H650 H 0.67808 0.04469 0.1487 0.0
H651 H 0.67204 0.0643 0.037 0.0
H652 H 0.64507 1.0193 0.84354 0.0
H653 H 0.63588 0.98207 0.91218 0.0
C654 C 0.6384 0.9796 0.05796 0.0
C655 C 0.64056 0.98156 0.13405 0.0
C656 C 0.64888 1.00143 0.01477 0.0
C657 C 0.65813 1.00493 0.16377 0.0
C658 C 0.66766 0.02672 0.12198 0.0
C659 C 0.66546 0.04667 1.00906 0.0
C660 C 0.65787 0.04432 0.93603 0.0
C661 C 0.66151 0.02526 0.04821 0.0
C662 C 0.64976 0.0213 0.90071 0.0
C663 C 0.64462 0.99994 0.93982 0.0
H664 H 0.65966 0.64393 0.49424 0.0
H665 H 0.68469 0.60812 0.34259 0.0
H666 H 0.67731 0.62929 0.24154 0.0
H667 H 0.65177 0.64664 0.19746 0.0
H668 H 0.61948 0.67533 0.3497 0.0
H669 H 0.64208 0.66919 0.44933 0.0
C670 C 0.66466 0.6418 0.43922 0.0
C671 C 0.67248 0.62436 0.42555 0.0
C672 C 0.65835 0.65239 0.38143 0.0
C673 C 0.67893 0.62163 0.35445 0.0
C674 C 0.67418 0.63337 0.2966 0.0
C675 C 0.65067 0.65265 0.2521 0.0
C676 C 0.63382 0.66117 0.26662 0.0
C677 C 0.66214 0.64718 0.30935 0.0
C678 C 0.63248 0.66896 0.33719 0.0
C679 C 0.64506 0.66497 0.39429 0.0
H680 H 0.03215 0.62758 0.83206 0.0
H681 H 0.10054 0.657 0.70944 0.0
H682 H 0.07682 0.64787 0.59569 0.0
H683 H 0.03613 0.6248 0.53237 0.0
H684 H 0.96777 0.59539 0.65533 0.0
H685 H 0.99192 0.61158 0.76775 0.0
C686 C 0.04195 0.63279 0.7804 0.0
C687 C 0.06813 0.64295 0.7792 0.0
C688 C 1.02809 0.6271 0.71538 0.0
C689 C 0.08053 0.6495 0.71199 0.0
C690 C 0.06688 0.64394 0.64692 0.0
C691 C 1.02652 0.62256 0.58359 0.0
C692 C 1.00011 0.6087 0.5855 0.0
C693 C 0.04059 0.63176 0.64803 0.0
C694 C 0.98797 0.60607 0.65215 0.0
C695 C 1.00183 0.61513 0.71656 0.0
H696 H 0.53692 0.05923 0.28138 0.0
H697 H 0.51283 1.0006 0.12038 0.0
H698 H 0.54989 0.02744 0.04692 0.0
H699 H 0.59326 0.06202 0.04869 0.0
H700 H 0.62103 0.10866 0.23411 0.0
H701 H 0.57835 0.09681 0.27117 0.0
C702 C 0.53967 0.05196 0.23074 0.0
C703 C 0.52296 0.02719 0.20856 0.0
C704 C 0.56132 0.06676 0.1915 0.0
C705 C 0.52613 1.01908 0.14008 0.0
C706 C 0.54696 0.03458 0.09755 0.0
C707 C 0.58974 0.0694 0.09798 0.0
C708 C 0.60849 0.0799 0.15165 0.0
C709 C 0.56536 0.05769 0.12533 0.0
C710 C 0.60556 0.09582 0.20028 0.0
C711 C 0.58115 0.08846 0.22287 0.0
H712 H 0.49429 0.51989 0.75443 0.0
H713 H 0.56387 0.52007 0.76079 0.0
H714 H 0.58691 0.5657 0.76432 0.0
H715 H 0.58666 0.60221 0.72041 0.0
H716 H 0.51835 0.59202 0.63224 0.0
H717 H 0.49465 0.55717 0.71445 0.0
C718 C 0.51445 0.53001 0.76038 0.0
C719 C 0.52754 0.51688 0.75666 0.0
C720 C 0.52731 0.55571 0.74995 0.0
C721 C 0.55359 0.52988 0.76252 0.0
C722 C 0.56666 0.55595 0.76432 0.0
C723 C 0.56641 0.59277 0.72184 0.0
C724 C 0.55406 0.59667 0.66358 0.0
C725 C 0.55374 0.56891 0.75227 0.0
C726 C 0.52836 0.58747 0.67187 0.0
C727 C 0.51482 0.567 0.71777 0.0
H728 H 0.06093 0.55341 0.97823 0.0
H729 H 0.03164 0.48321 0.07404 0.0
H730 H 0.99344 0.4819 0.10955 0.0
H731 H 0.96542 0.50091 0.10366 0.0
H732 H 0.9755 0.57797 0.03436 0.0
H733 H 1.01581 0.57044 0.01617 0.0
C734 C 0.04516 0.54034 1.01063 0.0
C735 C 0.04535 0.51764 1.01316 0.0
C736 C 1.02319 0.54319 0.031 0.0
C737 C 0.03014 0.49963 0.06414 0.0
C738 C 1.0082 0.49841 0.08361 0.0
C739 C 0.97883 0.51902 0.07687 0.0
C740 C 0.96785 0.53927 0.06601 0.0
C741 C 1.00477 0.51801 0.06489 0.0
C742 C 0.98392 0.5663 0.03755 0.0
C743 C 1.01172 0.5777 1.01375 0.0
H744 H 1.01799 0.44873 0.29821 0.0
H745 H 0.95419 0.45458 0.35935 0.0
H746 H 0.96783 0.49006 0.27753 0.0
H747 H 1.00437 0.52759 0.2464 0.0
H748 H 0.07505 0.53074 0.25711 0.0
H749 H 0.05421 0.48525 0.24844 0.0
C750 C 1.00628 0.45694 0.29004 0.0
C751 C 0.98655 0.45088 0.33934 0.0
C752 C 1.01707 0.48043 0.25719 0.0
C753 C 0.97026 0.45985 0.32476 0.0
C754 C 0.97838 0.48056 0.2794 0.0
C755 C 1.01528 0.51834 0.24287 0.0
C756 C 0.04111 0.53223 0.2559 0.0
C757 C 1.00303 0.49266 0.25399 0.0
C758 C 0.05516 0.52031 0.24942 0.0
C759 C 0.04304 0.49423 0.24597 0.0
H760 H 0.48984 0.99307 0.5294 0.0
H761 H 0.55385 0.06604 0.55251 0.0
H762 H 0.58159 0.04906 0.54003 0.0
H763 H 0.58496 1.01465 0.58925 0.0
H764 H 0.51785 0.94718 0.64413 0.0
H765 H 0.49414 0.95869 0.5669 0.0
C766 C 0.50996 1.00531 0.52792 0.0
C767 C 0.51995 0.03082 0.54312 0.0
C768 C 0.52508 0.99485 0.539 0.0
C769 C 0.54587 0.04659 0.53997 0.0
C770 C 0.56162 0.03653 0.5351 0.0
C771 C 0.56533 1.00163 0.57865 0.0
C772 C 0.55243 0.98153 0.62706 0.0
C773 C 0.55128 1.01067 0.54402 0.0
C774 C 0.52786 0.96357 0.61015 0.0
C775 C 0.5141 0.97034 0.56552 0.0
H776 H 0.60397 0.57451 0.96491 0.0
H777 H 0.5965 0.50643 0.04647 0.0
H778 H 0.55957 0.48253 0.97185 0.0
H779 H 0.52165 0.48172 0.93759 0.0
H780 H 0.52084 0.55069 0.93547 0.0
H781 H 0.56637 0.57418 0.92798 0.0
C782 C 0.59466 0.55427 0.96353 0.0
C783 C 0.60037 0.54202 0.0182 0.0
C784 C 0.57019 0.54132 0.93739 0.0
C785 C 0.59092 0.51633 1.00947 0.0
C786 C 0.56932 0.50264 0.96784 0.0
C787 C 0.53144 0.50184 0.93165 0.0
C788 C 0.51809 0.51462 0.93865 0.0
C789 C 0.55729 0.51495 0.93951 0.0
C790 C 0.53078 0.54063 0.93207 0.0
C791 C 0.55683 0.55395 0.92809 0.0
H792 H 0.38944 1.00943 0.68205 0.0
H793 H 0.36958 0.94915 0.53122 0.0
H794 H 0.37851 0.97779 0.42942 0.0
H795 H 0.40457 0.021 0.38705 0.0
H796 H 0.43216 0.08179 0.53999 0.0
H797 H 0.40766 0.05245 0.63699 0.0
C798 C 0.38565 1.00232 0.62678 0.0
C799 C 0.37919 0.97721 0.61424 0.0
C800 C 0.39337 1.01947 0.56887 0.0
C801 C 0.37438 0.96821 0.54264 0.0
C802 C 0.38019 0.98484 0.48432 0.0
C803 C 0.40421 0.02794 0.44101 0.0
C804 C 0.42015 0.05356 0.45643 0.0
C805 C 0.39159 1.01071 0.49713 0.0
C806 C 0.41985 0.06233 0.52648 0.0
C807 C 0.40613 0.0454 0.58214 0.0
H808 H 0.40214 0.38701 0.99902 0.0
H809 H 0.43802 0.36056 0.85207 0.0
H810 H 0.41752 0.36782 0.74895 0.0
H811 H 0.40063 0.39343 0.70158 0.0
H812 H 0.37038 0.42561 0.84897 0.0
H813 H 0.37662 0.4039 0.95083 0.0
C814 C 0.4044 0.38162 0.94461 0.0
C815 C 0.42179 0.37353 0.93293 0.0
C816 C 0.39399 0.38759 0.88554 0.0
C817 C 0.42465 0.36662 0.86254 0.0
C818 C 0.41328 0.37128 0.80344 0.0
C819 C 0.39423 0.39463 0.75561 0.0
C820 C 0.38527 0.41127 0.76804 0.0
C821 C 0.39951 0.38348 0.81418 0.0
C822 C 0.3771 0.41281 0.83795 0.0
C823 C 0.38115 0.40073 0.89637 0.0
H824 H 1.02624 0.41778 0.04326 0.0
H825 H 0.96001 0.38112 0.1761 0.0
H826 H 0.98597 0.38663 0.28333 0.0
H827 H 1.02762 0.40757 0.34094 0.0
H828 H 0.09377 0.44604 0.20848 0.0
H829 H 0.06776 0.43347 0.09867 0.0
C830 C 1.01743 0.41048 0.09547 0.0
C831 C 0.99118 0.39915 0.10186 0.0
C832 C 0.03253 0.41405 0.15664 0.0
C833 C 0.98004 0.38967 0.16959 0.0
C834 C 0.99495 0.39301 0.23089 0.0
C835 C 0.0364 0.41243 0.28778 0.0
C836 C 0.06269 0.42767 0.28289 0.0
C837 C 1.02123 0.40588 0.22534 0.0
C838 C 0.07375 0.434 0.21382 0.0
C839 C 0.05879 0.42715 0.15114 0.0
H840 H 0.63587 1.01692 0.68673 0.0
H841 H 0.67257 0.08423 0.55885 0.0
H842 H 0.66423 0.05913 0.44809 0.0
H843 H 0.63924 1.01848 0.38724 0.0
H844 H 0.59946 0.95132 0.51454 0.0
H845 H 0.61649 0.97583 0.62637 0.0
C846 C 0.64278 0.02613 0.63477 0.0
C847 C 0.65478 0.05249 0.63098 0.0
C848 C 0.63691 1.01151 0.57134 0.0
C849 C 0.66364 0.06412 0.56349 0.0
C850 C 0.65848 0.04969 0.50008 0.0
C851 C 0.63491 1.00908 0.43947 0.0
C852 C 0.618 0.98306 0.44267 0.0
C853 C 0.64408 0.02344 0.50321 0.0
C854 C 0.61257 0.97116 0.51048 0.0
C855 C 0.62209 0.98528 0.57439 0.0
H856 H 0.63668 0.62786 0.99733 0.0
H857 H 0.60144 0.65993 0.86984 0.0
H858 H 0.61776 0.6514 0.75827 0.0
H859 H 0.63609 0.62869 0.69723 0.0
H860 H 0.66946 0.59478 0.82512 0.0
H861 H 0.66012 0.61043 0.93655 0.0
C862 C 0.63318 0.6337 0.94522 0.0
C863 C 0.61785 0.64465 0.94216 0.0
C864 C 0.64204 0.62805 0.88144 0.0
C865 C 0.61344 0.65193 0.87416 0.0
C866 C 0.62253 0.64671 0.81028 0.0
C867 C 0.64202 0.62534 0.74941 0.0
C868 C 0.65354 0.61051 0.75262 0.0
C869 C 0.63602 0.63392 0.81322 0.0
C870 C 0.66097 0.60634 0.8207 0.0
C871 C 0.65532 0.61506 0.8845 0.0
H872 H 0.03688 0.64353 0.03474 0.0
H873 H 0.0971 0.6735 0.18984 0.0
H874 H 0.06712 0.66446 0.28866 0.0
H875 H 1.0237 0.63842 0.33148 0.0
H876 H 0.96365 0.60413 0.17648 0.0
H877 H 0.99336 0.62494 0.07702 0.0
C878 C 0.04356 0.64927 0.08987 0.0
C879 C 0.06931 0.65937 0.10479 0.0
C880 C 1.02601 0.64267 0.14657 0.0
C881 C 0.07761 0.66624 0.17652 0.0
C882 C 0.06032 0.66057 0.2332 0.0
C883 C 1.01695 0.63661 0.27611 0.0
C884 C 0.99136 0.61993 0.26155 0.0
C885 C 0.03443 0.64747 0.21913 0.0
C886 C 0.98299 0.61724 0.1895 0.0
C887 C 1.00015 0.62877 0.13249 0.0
H888 H 0.56403 0.10937 0.40542 0.0
H889 H 0.51305 0.114 0.55541 0.0
H890 H 0.53949 0.11625 0.65778 0.0
H891 H 0.57407 0.11077 0.70536 0.0
H892 H 0.62595 0.10791 0.55505 0.0
H893 H 0.60278 0.11169 0.45245 0.0
C894 C 0.55921 0.11179 0.46038 0.0
C895 C 0.5366 0.11165 0.4727 0.0
C896 C 0.57482 0.1135 0.51904 0.0
C897 C 0.53043 0.11437 0.54431 0.0
C898 C 0.5455 0.11547 0.60297 0.0
C899 C 0.58073 0.11181 0.6502 0.0
C900 C 0.60187 0.10925 0.63796 0.0
C901 C 0.56731 0.1142 0.59127 0.0
C902 C 0.61004 0.11025 0.56608 0.0
C903 C 0.59668 0.1123 0.50729 0.0
H904 H 0.4582 0.55709 0.76156 0.0
H905 H 0.42743 0.49047 0.89169 0.0
H906 H 0.45343 0.5145 0.99468 0.0
H907 H 0.48958 0.55326 0.04188 0.0
H908 H 0.52224 0.61958 0.90971 0.0
H909 H 0.49151 0.59711 0.81384 0.0
C910 C 0.45665 0.54805 0.8133 0.0
C911 C 0.44043 0.52205 0.81931 0.0
C912 C 0.47271 0.5619 0.87148 0.0
C913 C 0.43918 0.51051 0.88614 0.0
C914 C 0.45442 0.52422 0.94475 0.0
C915 C 0.48963 0.56291 0.99267 0.0
C916 C 0.50839 0.58808 0.98291 0.0
C917 C 0.47195 0.54973 0.93725 0.0
C918 C 0.5081 0.60028 0.91879 0.0
C919 C 0.49054 0.58736 0.8637 0.0
H920 H 0.9234 0.42781 0.14367 0.0
H921 H 0.92572 0.46943 0.9537 0.0
H922 H 0.91843 0.49779 0.02904 0.0
H923 H 0.92429 0.51774 0.15163 0.0
H924 H 0.92282 0.47646 0.34122 0.0
H925 H 0.91685 0.44153 0.26489 0.0
C926 C 0.92162 0.44268 0.11865 0.0
C927 C 0.92542 0.44661 0.04299 0.0
C928 C 0.91855 0.45975 0.16305 0.0
C929 C 0.92305 0.46604 1.01168 0.0
C930 C 0.91889 0.48234 0.05499 0.0
C931 C 0.92184 0.50077 0.17616 0.0
C932 C 0.92501 0.50015 0.25199 0.0
C933 C 0.9186 0.48058 0.13134 0.0
C934 C 0.92096 0.47767 0.28299 0.0
C935 C 0.91776 0.45769 0.23914 0.0
H936 H 0.50349 0.90961 0.44219 0.0
H937 H 0.5033 0.96568 0.30357 0.0
H938 H 0.46916 0.9641 0.37305 0.0
H939 H 0.44409 0.95234 0.48442 0.0
H940 H 0.44439 0.89771 0.628 0.0
H941 H 0.4729 0.89281 0.54563 0.0
C942 C 0.4956 0.92103 0.42624 0.0
C943 C 0.50652 0.93809 0.36797 0.0
C944 C 0.47573 0.92028 0.46756 0.0
C945 C 0.49586 0.95275 0.34872 0.0
C946 C 0.47612 0.95181 0.38832 0.0
C947 C 0.44961 0.93864 0.49629 0.0
C948 C 0.44201 0.92541 0.56244 0.0
C949 C 0.46649 0.93637 0.44935 0.0
C950 C 0.44964 0.90793 0.57722 0.0
C951 C 0.46625 0.90534 0.53028 0.0
H952 H 0.56186 0.48538 0.66383 0.0
H953 H 0.63023 0.51103 0.78369 0.0
H954 H 0.60763 0.4795 0.87756 0.0
H955 H 0.56732 0.44716 0.93239 0.0
H956 H 0.49912 0.4231 0.81333 0.0
H957 H 0.52269 0.44999 0.71152 0.0
C958 C 0.57191 0.48384 0.70996 0.0
C959 C 0.59779 0.50087 0.71666 0.0
C960 C 0.55872 0.46554 0.76399 0.0
C961 C 0.61039 0.49834 0.77682 0.0
C962 C 0.5974 0.48026 0.8308 0.0
C963 C 0.55775 0.44719 0.88307 0.0
C964 C 0.53141 0.43261 0.88019 0.0
C965 C 0.57143 0.46399 0.82581 0.0
C966 C 0.51933 0.43363 0.81666 0.0
C967 C 0.5328 0.44946 0.75885 0.0
H968 H 0.1189 0.56303 0.37962 0.0
H969 H 0.11885 0.50905 0.23153 0.0
H970 H 0.12438 0.53636 0.1286 0.0
H971 H 0.12492 0.5737 0.07911 0.0
H972 H 0.12687 0.62892 0.22533 0.0
H973 H 0.12541 0.60356 0.32996 0.0
C974 C 0.12073 0.55758 0.32495 0.0
C975 C 0.11853 0.53395 0.31343 0.0
C976 C 0.12433 0.57373 0.26547 0.0
C977 C 0.12075 0.52714 0.2421 0.0
C978 C 0.12378 0.54275 0.18305 0.0
C979 C 0.12601 0.58065 0.13396 0.0
C980 C 0.12668 0.60359 0.14415 0.0
C981 C 0.12513 0.56587 0.19381 0.0
C982 C 0.12718 0.61183 0.21571 0.0
C983 C 0.12598 0.59708 0.27563 0.0
loop_
_geom_bond_atom_site_label_1
_geom_bond_atom_site_label_2
_geom_bond_distance
_geom_bond_site_symmetry_2
_ccdc_geom_bond_type
C0 O16 1.251 . S
C0 O18 1.254 . S
N1 C2 1.333 . S
N1 C6 1.307 . S
N1 Zn7 2.020 . S
C2 N1 1.333 . S
C2 C3 1.379 . S
C2 H20 0.952 . S
C3 C2 1.379 . S
C3 C4 1.390 . S
C3 H30 0.949 . S
C4 C3 1.390 . S
C4 C5 1.357 . S
C5 C4 1.357 . S
C5 C6 1.370 . S
C5 H31 0.950 . S
C6 N1 1.307 . S
C6 C5 1.370 . S
C6 H24 0.948 . S
Zn7 N1 2.020 . S
Zn7 O16 2.039 . S
Zn7 O22 2.034 . S
Zn7 O26 2.025 . S
Zn7 O28 2.024 . S
C8 O27 1.246 . S
C8 O28 1.249 . S
N9 C10 1.307 . S
N9 C11 1.333 . S
N9 Zn15 2.020 . S
C10 N9 1.307 . S
C10 C14 1.370 . S
C10 H21 0.948 . S
C11 N9 1.333 . S
C11 C12 1.379 1_545 S
C11 H19 0.952 . S
C12 C11 1.379 1_565 S
C12 C13 1.390 . S
C12 H32 0.949 . S
C13 C12 1.390 . S
C13 C14 1.357 1_565 S
C14 C10 1.370 . S
C14 C13 1.357 1_545 S
C14 H33 0.950 . S
Zn15 N9 2.020 . S
Zn15 O18 2.025 . S
Zn15 O23 2.024 . S
Zn15 O25 2.039 . S
Zn15 O27 2.034 . S
O16 C0 1.251 . S
O16 Zn7 2.039 . S
C17 O22 1.246 . S
C17 O23 1.249 . S
O18 C0 1.254 . S
O18 Zn15 2.025 . S
H19 C11 0.952 . S
H20 C2 0.952 . S
H21 C10 0.948 . S
O22 Zn7 2.034 . S
O22 C17 1.246 . S
O23 Zn15 2.024 . S
O23 C17 1.249 . S
H24 C6 0.948 . S
O25 Zn15 2.039 . S
O25 C29 1.251 . S
O26 Zn7 2.025 . S
O26 C29 1.254 . S
O27 C8 1.246 . S
O27 Zn15 2.034 . S
O28 Zn7 2.024 . S
O28 C8 1.249 . S
C29 O25 1.251 . S
C29 O26 1.254 . S
H30 C3 0.949 . S
H31 C5 0.950 . S
H32 C12 0.949 . S
H33 C14 0.950 . S
C34 O50 1.251 . S
C34 O52 1.254 . S
N35 C36 1.333 . S
N35 C40 1.307 . S
N35 Zn41 2.020 . S
C36 N35 1.333 . S
C36 C37 1.379 . S
C36 H54 0.952 . S
C37 C36 1.379 . S
C37 C38 1.390 . S
C37 H64 0.949 . S
C38 C37 1.390 . S
C38 C39 1.357 . S
C39 C38 1.357 . S
C39 C40 1.370 . S
C39 H65 0.950 . S
C40 N35 1.307 . S
C40 C39 1.370 . S
C40 H58 0.948 . S
Zn41 N35 2.020 . S
Zn41 O50 2.039 . S
Zn41 O56 2.034 . S
Zn41 O60 2.025 . S
Zn41 O62 2.024 . S
C42 O61 1.246 . S
C42 O62 1.249 . S
N43 C44 1.307 . S
N43 C45 1.333 . S
N43 Zn49 2.020 . S
C44 N43 1.307 . S
C44 C48 1.370 . S
C44 H55 0.948 . S
C45 N43 1.333 . S
C45 C46 1.379 . S
C45 H53 0.952 . S
C46 C45 1.379 . S
C46 C47 1.390 . S
C46 H66 0.949 . S
C47 C46 1.390 . S
C47 C48 1.357 . S
C48 C44 1.370 . S
C48 C47 1.357 . S
C48 H67 0.950 . S
Zn49 N43 2.020 . S
Zn49 O52 2.025 . S
Zn49 O57 2.024 . S
Zn49 O59 2.039 . S
Zn49 O61 2.034 . S
O50 C34 1.251 . S
O50 Zn41 2.039 . S
C51 O56 1.246 . S
C51 O57 1.249 . S
O52 C34 1.254 . S
O52 Zn49 2.025 . S
H53 C45 0.952 . S
H54 C36 0.952 . S
H55 C44 0.948 . S
O56 Zn41 2.034 . S
O56 C51 1.246 . S
O57 Zn49 2.024 . S
O57 C51 1.249 . S
H58 C40 0.948 . S
O59 Zn49 2.039 . S
O59 C63 1.251 . S
O60 Zn41 2.025 . S
O60 C63 1.254 . S
O61 C42 1.246 . S
O61 Zn49 2.034 . S
O62 Zn41 2.024 . S
O62 C42 1.249 . S
C63 O59 1.251 . S
C63 O60 1.254 . S
H64 C37 0.949 . S
H65 C39 0.950 . S
H66 C46 0.949 . S
H67 C48 0.950 . S
C68 O84 1.251 . S
C68 O86 1.254 . S
N69 C70 1.333 . S
N69 C74 1.307 . S
N69 Zn75 2.020 . S
C70 N69 1.333 . S
C70 C71 1.379 . S
C70 H88 0.952 . S
C71 C70 1.379 . S
C71 C72 1.390 . S
C71 H98 0.949 . S
C72 C71 1.390 . S
C72 C73 1.357 . S
C73 C72 1.357 . S
C73 C74 1.370 . S
C73 H99 0.950 . S
C74 N69 1.307 . S
C74 C73 1.370 . S
C74 H92 0.948 . S
Zn75 N69 2.020 . S
Zn75 O84 2.039 . S
Zn75 O90 2.034 . S
Zn75 O94 2.026 . S
Zn75 O96 2.024 . S
C76 O95 1.246 . S
C76 O96 1.249 . S
N77 C78 1.307 . S
N77 C79 1.333 . S
N77 Zn83 2.020 . S
C78 N77 1.307 . S
C78 C82 1.370 . S
C78 H89 0.948 . S
C79 N77 1.333 . S
C79 C80 1.379 1_655 S
C79 H87 0.952 . S
C80 C79 1.379 1_455 S
C80 C81 1.390 . S
C80 H100 0.949 . S
C81 C80 1.390 . S
C81 C82 1.357 1_455 S
C82 C78 1.370 . S
C82 C81 1.357 1_655 S
C82 H101 0.950 . S
Zn83 N77 2.020 . S
Zn83 O86 2.025 . S
Zn83 O91 2.024 1_556 S
Zn83 O93 2.039 1_556 S
Zn83 O95 2.034 . S
O84 C68 1.251 . S
O84 Zn75 2.039 . S
C85 O90 1.246 1_554 S
C85 O91 1.249 . S
O86 C68 1.254 . S
O86 Zn83 2.025 . S
H87 C79 0.952 . S
H88 C70 0.952 . S
H89 C78 0.948 . S
O90 Zn75 2.034 . S
O90 C85 1.246 1_556 S
O91 Zn83 2.024 1_554 S
O91 C85 1.249 . S
H92 C74 0.948 . S
O93 Zn83 2.039 1_554 S
O93 C97 1.251 . S
O94 Zn75 2.026 . S
O94 C97 1.253 1_556 S
O95 C76 1.246 . S
O95 Zn83 2.034 . S
O96 Zn75 2.024 . S
O96 C76 1.249 . S
C97 O93 1.251 . S
C97 O94 1.253 1_554 S
H98 C71 0.949 . S
H99 C73 0.950 . S
H100 C80 0.949 . S
H101 C82 0.950 . S
C102 O118 1.251 . S
C102 O120 1.254 . S
N103 C104 1.333 . S
N103 C108 1.307 . S
N103 Zn109 2.020 . S
C104 N103 1.333 . S
C104 C105 1.379 . S
C104 H122 0.952 . S
C105 C104 1.379 . S
C105 C106 1.390 . S
C105 H132 0.949 . S
C106 C105 1.390 . S
C106 C107 1.357 . S
C107 C106 1.357 . S
C107 C108 1.370 . S
C107 H133 0.950 . S
C108 N103 1.307 . S
C108 C107 1.370 . S
C108 H126 0.948 . S
Zn109 N103 2.020 . S
Zn109 O118 2.039 . S
Zn109 O124 2.034 . S
Zn109 O128 2.025 . S
Zn109 O130 2.024 . S
C110 O129 1.246 . S
C110 O130 1.249 . S
N111 C112 1.307 . S
N111 C113 1.333 . S
N111 Zn117 2.020 . S
C112 N111 1.307 . S
C112 C116 1.370 . S
C112 H123 0.948 . S
C113 N111 1.333 . S
C113 C114 1.379 1_565 S
C113 H121 0.952 . S
C114 C113 1.379 1_545 S
C114 C115 1.390 . S
C114 H134 0.949 . S
C115 C114 1.390 . S
C115 C116 1.357 1_545 S
C116 C112 1.370 . S
C116 C115 1.357 1_565 S
C116 H135 0.950 . S
Zn117 N111 2.020 . S
Zn117 O120 2.025 . S
Zn117 O125 2.024 . S
Zn117 O127 2.039 . S
Zn117 O129 2.034 . S
O118 C102 1.251 . S
O118 Zn109 2.039 . S
C119 O124 1.246 . S
C119 O125 1.249 . S
O120 C102 1.254 . S
O120 Zn117 2.025 . S
H121 C113 0.952 . S
H122 C104 0.952 . S
H123 C112 0.948 . S
O124 Zn109 2.034 . S
O124 C119 1.246 . S
O125 Zn117 2.024 . S
O125 C119 1.249 . S
H126 C108 0.948 . S
O127 Zn117 2.039 . S
O127 C131 1.251 . S
O128 Zn109 2.025 . S
O128 C131 1.254 . S
O129 C110 1.246 . S
O129 Zn117 2.034 . S
O130 Zn109 2.024 . S
O130 C110 1.249 . S
C131 O127 1.251 . S
C131 O128 1.254 . S
H132 C105 0.949 . S
H133 C107 0.950 . S
H134 C114 0.949 . S
H135 C116 0.950 . S
C136 O152 1.251 . S
C136 O154 1.254 . S
N137 C138 1.333 . S
N137 C142 1.307 . S
N137 Zn143 2.020 . S
C138 N137 1.333 . S
C138 C139 1.379 . S
C138 H156 0.952 . S
C139 C138 1.379 . S
C139 C140 1.390 . S
C139 H166 0.949 . S
C140 C139 1.390 . S
C140 C141 1.357 . S
C141 C140 1.357 . S
C141 C142 1.370 . S
C141 H167 0.950 . S
C142 N137 1.307 . S
C142 C141 1.370 . S
C142 H160 0.948 . S
Zn143 N137 2.020 . S
Zn143 O152 2.039 . S
Zn143 O158 2.034 . S
Zn143 O162 2.025 . S
Zn143 O164 2.024 . S
C144 O163 1.246 . S
C144 O164 1.249 . S
N145 C146 1.307 . S
N145 C147 1.333 . S
N145 Zn151 2.020 . S
C146 N145 1.307 . S
C146 C150 1.370 . S
C146 H157 0.948 . S
C147 N145 1.333 . S
C147 C148 1.379 . S
C147 H155 0.952 . S
C148 C147 1.379 . S
C148 C149 1.390 . S
C148 H168 0.949 . S
C149 C148 1.390 . S
C149 C150 1.357 . S
C150 C146 1.370 . S
C150 C149 1.357 . S
C150 H169 0.950 . S
Zn151 N145 2.020 . S
Zn151 O154 2.025 . S
Zn151 O159 2.024 . S
Zn151 O161 2.039 . S
Zn151 O163 2.034 . S
O152 C136 1.251 . S
O152 Zn143 2.039 . S
C153 O158 1.246 . S
C153 O159 1.249 . S
O154 C136 1.254 . S
O154 Zn151 2.025 . S
H155 C147 0.952 . S
H156 C138 0.952 . S
H157 C146 0.948 . S
O158 Zn143 2.034 . S
O158 C153 1.246 . S
O159 Zn151 2.024 . S
O159 C153 1.249 . S
H160 C142 0.948 . S
O161 Zn151 2.039 . S
O161 C165 1.251 . S
O162 Zn143 2.025 . S
O162 C165 1.254 . S
O163 C144 1.246 . S
O163 Zn151 2.034 . S
O164 Zn143 2.024 . S
O164 C144 1.249 . S
C165 O161 1.251 . S
C165 O162 1.254 . S
H166 C139 0.949 . S
H167 C141 0.950 . S
H168 C148 0.949 . S
H169 C150 0.950 . S
C170 O186 1.251 . S
C170 O188 1.254 . S
N171 C172 1.333 . S
N171 C176 1.307 . S
N171 Zn177 2.020 . S
C172 N171 1.333 . S
C172 C173 1.379 . S
C172 H190 0.952 . S
C173 C172 1.379 . S
C173 C174 1.390 . S
C173 H200 0.949 . S
C174 C173 1.390 . S
C174 C175 1.357 . S
C175 C174 1.357 . S
C175 C176 1.370 . S
C175 H201 0.950 . S
C176 N171 1.307 . S
C176 C175 1.370 . S
C176 H194 0.948 . S
Zn177 N171 2.020 . S
Zn177 O186 2.039 . S
Zn177 O192 2.034 . S
Zn177 O196 2.026 . S
Zn177 O198 2.024 . S
C178 O197 1.246 . S
C178 O198 1.249 . S
N179 C180 1.307 . S
N179 C181 1.333 . S
N179 Zn185 2.020 . S
C180 N179 1.307 . S
C180 C184 1.370 . S
C180 H191 0.948 . S
C181 N179 1.333 . S
C181 C182 1.379 1_455 S
C181 H189 0.952 . S
C182 C181 1.379 1_655 S
C182 C183 1.390 . S
C182 H202 0.949 . S
C183 C182 1.390 . S
C183 C184 1.357 1_655 S
C184 C180 1.370 . S
C184 C183 1.357 1_455 S
C184 H203 0.950 . S
Zn185 N179 2.020 . S
Zn185 O188 2.025 . S
Zn185 O193 2.024 1_556 S
Zn185 O195 2.039 1_556 S
Zn185 O197 2.034 . S
O186 C170 1.251 . S
O186 Zn177 2.039 . S
C187 O192 1.246 1_554 S
C187 O193 1.249 . S
O188 C170 1.254 . S
O188 Zn185 2.025 . S
H189 C181 0.952 . S
H190 C172 0.952 . S
H191 C180 0.948 . S
O192 Zn177 2.034 . S
O192 C187 1.246 1_556 S
O193 Zn185 2.024 1_554 S
O193 C187 1.249 . S
H194 C176 0.948 . S
O195 Zn185 2.039 1_554 S
O195 C199 1.251 . S
O196 Zn177 2.026 . S
O196 C199 1.253 1_556 S
O197 C178 1.246 . S
O197 Zn185 2.034 . S
O198 Zn177 2.024 . S
O198 C178 1.249 . S
C199 O195 1.251 . S
C199 O196 1.253 1_554 S
H200 C173 0.949 . S
H201 C175 0.950 . S
H202 C182 0.949 . S
H203 C184 0.950 . S
C204 O220 1.251 . S
C204 O222 1.254 . S
N205 C206 1.333 . S
N205 C210 1.307 . S
N205 Zn211 2.020 . S
C206 N205 1.333 . S
C206 C207 1.379 . S
C206 H224 0.952 . S
C207 C206 1.379 . S
C207 C208 1.390 . S
C207 H234 0.949 . S
C208 C207 1.390 . S
C208 C209 1.357 . S
C209 C208 1.357 . S
C209 C210 1.370 . S
C209 H235 0.950 . S
C210 N205 1.307 . S
C210 C209 1.370 . S
C210 H228 0.948 . S
Zn211 N205 2.020 . S
Zn211 O220 2.039 . S
Zn211 O226 2.034 . S
Zn211 O230 2.025 . S
Zn211 O232 2.024 . S
C212 O231 1.246 . S
C212 O232 1.249 . S
N213 C214 1.307 . S
N213 C215 1.333 . S
N213 Zn219 2.020 . S
C214 N213 1.307 . S
C214 C218 1.370 . S
C214 H225 0.948 . S
C215 N213 1.333 . S
C215 C216 1.379 1_655 S
C215 H223 0.952 . S
C216 C215 1.379 1_455 S
C216 C217 1.390 . S
C216 H236 0.949 . S
C217 C216 1.390 . S
C217 C218 1.357 1_455 S
C218 C214 1.370 . S
C218 C217 1.357 1_655 S
C218 H237 0.950 . S
Zn219 N213 2.020 . S
Zn219 O222 2.025 . S
Zn219 O227 2.024 . S
Zn219 O229 2.039 . S
Zn219 O231 2.034 . S
O220 C204 1.251 . S
O220 Zn211 2.039 . S
C221 O226 1.246 . S
C221 O227 1.249 . S
O222 C204 1.254 . S
O222 Zn219 2.025 . S
H223 C215 0.952 . S
H224 C206 0.952 . S
H225 C214 0.948 . S
O226 Zn211 2.034 . S
O226 C221 1.246 . S
O227 Zn219 2.024 . S
O227 C221 1.249 . S
H228 C210 0.948 . S
O229 Zn219 2.039 . S
O229 C233 1.251 . S
O230 Zn211 2.025 . S
O230 C233 1.254 . S
O231 C212 1.246 . S
O231 Zn219 2.034 . S
O232 Zn211 2.024 . S
O232 C212 1.249 . S
C233 O229 1.251 . S
C233 O230 1.254 . S
H234 C207 0.949 . S
H235 C209 0.950 . S
H236 C216 0.949 . S
H237 C218 0.950 . S
C238 O254 1.251 . S
C238 O256 1.254 . S
N239 C240 1.333 . S
N239 C244 1.307 . S
N239 Zn245 2.020 . S
C240 N239 1.333 . S
C240 C241 1.379 . S
C240 H258 0.952 . S
C241 C240 1.379 . S
C241 C242 1.390 . S
C241 H268 0.949 . S
C242 C241 1.390 . S
C242 C243 1.357 . S
C243 C242 1.357 . S
C243 C244 1.370 . S
C243 H269 0.950 . S
C244 N239 1.307 . S
C244 C243 1.370 . S
C244 H262 0.948 . S
Zn245 N239 2.020 . S
Zn245 O254 2.039 . S
Zn245 O260 2.034 . S
Zn245 O264 2.025 . S
Zn245 O266 2.024 . S
C246 O265 1.246 . S
C246 O266 1.249 . S
N247 C248 1.307 . S
N247 C249 1.333 . S
N247 Zn253 2.020 . S
C248 N247 1.307 . S
C248 C252 1.370 . S
C248 H259 0.948 . S
C249 N247 1.333 . S
C249 C250 1.379 1_565 S
C249 H257 0.952 . S
C250 C249 1.379 1_545 S
C250 C251 1.390 . S
C250 H270 0.949 . S
C251 C250 1.390 . S
C251 C252 1.357 1_545 S
C252 C248 1.370 . S
C252 C251 1.357 1_565 S
C252 H271 0.950 . S
Zn253 N247 2.020 . S
Zn253 O256 2.025 . S
Zn253 O261 2.024 . S
Zn253 O263 2.039 . S
Zn253 O265 2.034 . S
O254 C238 1.251 . S
O254 Zn245 2.039 . S
C255 O260 1.246 . S
C255 O261 1.249 . S
O256 C238 1.254 . S
O256 Zn253 2.025 . S
H257 C249 0.952 . S
H258 C240 0.952 . S
H259 C248 0.948 . S
O260 Zn245 2.034 . S
O260 C255 1.246 . S
O261 Zn253 2.024 . S
O261 C255 1.249 . S
H262 C244 0.948 . S
O263 Zn253 2.039 . S
O263 C267 1.251 . S
O264 Zn245 2.025 . S
O264 C267 1.254 . S
O265 C246 1.246 . S
O265 Zn253 2.034 . S
O266 Zn245 2.024 . S
O266 C246 1.249 . S
C267 O263 1.251 . S
C267 O264 1.254 . S
H268 C241 0.949 . S
H269 C243 0.950 . S
H270 C250 0.949 . S
H271 C252 0.950 . S
C272 O288 1.251 . S
C272 O290 1.254 . S
N273 C274 1.333 . S
N273 C278 1.307 . S
N273 Zn279 2.020 . S
C274 N273 1.333 . S
C274 C275 1.379 . S
C274 H292 0.952 . S
C275 C274 1.379 . S
C275 C276 1.390 . S
C275 H302 0.949 . S
C276 C275 1.390 . S
C276 C277 1.357 . S
C277 C276 1.357 . S
C277 C278 1.370 . S
C277 H303 0.950 . S
C278 N273 1.307 . S
C278 C277 1.370 . S
C278 H296 0.948 . S
Zn279 N273 2.020 . S
Zn279 O288 2.039 . S
Zn279 O294 2.034 . S
Zn279 O298 2.026 . S
Zn279 O300 2.024 . S
C280 O299 1.246 . S
C280 O300 1.249 . S
N281 C282 1.307 . S
N281 C283 1.333 . S
N281 Zn287 2.020 . S
C282 N281 1.307 . S
C282 C286 1.370 . S
C282 H293 0.948 . S
C283 N281 1.333 . S
C283 C284 1.379 . S
C283 H291 0.952 . S
C284 C283 1.379 . S
C284 C285 1.390 . S
C284 H304 0.949 . S
C285 C284 1.390 . S
C285 C286 1.357 . S
C286 C282 1.370 . S
C286 C285 1.357 . S
C286 H305 0.950 . S
Zn287 N281 2.020 . S
Zn287 O290 2.025 . S
Zn287 O295 2.024 1_554 S
Zn287 O297 2.039 1_554 S
Zn287 O299 2.034 . S
O288 C272 1.251 . S
O288 Zn279 2.039 . S
C289 O294 1.246 1_556 S
C289 O295 1.249 . S
O290 C272 1.254 . S
O290 Zn287 2.025 . S
H291 C283 0.952 . S
H292 C274 0.952 . S
H293 C282 0.948 . S
O294 Zn279 2.034 . S
O294 C289 1.246 1_554 S
O295 Zn287 2.024 1_556 S
O295 C289 1.249 . S
H296 C278 0.948 . S
O297 Zn287 2.039 1_556 S
O297 C301 1.251 . S
O298 Zn279 2.026 . S
O298 C301 1.254 1_554 S
O299 C280 1.246 . S
O299 Zn287 2.034 . S
O300 Zn279 2.024 . S
O300 C280 1.249 . S
C301 O297 1.251 . S
C301 O298 1.254 1_556 S
H302 C275 0.949 . S
H303 C277 0.950 . S
H304 C284 0.949 . S
H305 C286 0.950 . S
C306 O322 1.251 . S
C306 O324 1.254 . S
N307 C308 1.333 . S
N307 C312 1.307 . S
N307 Zn313 2.020 . S
C308 N307 1.333 . S
C308 C309 1.379 . S
C308 H326 0.952 . S
C309 C308 1.379 . S
C309 C310 1.390 . S
C309 H336 0.949 . S
C310 C309 1.390 . S
C310 C311 1.357 . S
C311 C310 1.357 . S
C311 C312 1.370 . S
C311 H337 0.950 . S
C312 N307 1.307 . S
C312 C311 1.370 . S
C312 H330 0.948 . S
Zn313 N307 2.020 . S
Zn313 O322 2.039 . S
Zn313 O328 2.034 . S
Zn313 O332 2.025 . S
Zn313 O334 2.024 . S
C314 O333 1.246 . S
C314 O334 1.249 . S
N315 C316 1.307 . S
N315 C317 1.333 . S
N315 Zn321 2.020 . S
C316 N315 1.307 . S
C316 C320 1.370 . S
C316 H327 0.948 . S
C317 N315 1.333 . S
C317 C318 1.379 1_455 S
C317 H325 0.952 . S
C318 C317 1.379 1_655 S
C318 C319 1.390 . S
C318 H338 0.949 . S
C319 C318 1.390 . S
C319 C320 1.357 1_655 S
C320 C316 1.370 . S
C320 C319 1.357 1_455 S
C320 H339 0.950 . S
Zn321 N315 2.020 . S
Zn321 O324 2.025 . S
Zn321 O329 2.024 . S
Zn321 O331 2.039 . S
Zn321 O333 2.034 . S
O322 C306 1.251 . S
O322 Zn313 2.039 . S
C323 O328 1.246 . S
C323 O329 1.249 . S
O324 C306 1.254 . S
O324 Zn321 2.025 . S
H325 C317 0.952 . S
H326 C308 0.952 . S
H327 C316 0.948 . S
O328 Zn313 2.034 . S
O328 C323 1.246 . S
O329 Zn321 2.024 . S
O329 C323 1.249 . S
H330 C312 0.948 . S
O331 Zn321 2.039 . S
O331 C335 1.251 . S
O332 Zn313 2.025 . S
O332 C335 1.254 . S
O333 C314 1.246 . S
O333 Zn321 2.034 . S
O334 Zn313 2.024 . S
O334 C314 1.249 . S
C335 O331 1.251 . S
C335 O332 1.254 . S
H336 C309 0.949 . S
H337 C311 0.950 . S
H338 C318 0.949 . S
H339 C320 0.950 . S
C340 O356 1.251 . S
C340 O358 1.254 . S
N341 C342 1.333 . S
N341 C346 1.307 . S
N341 Zn347 2.020 . S
C342 N341 1.333 . S
C342 C343 1.379 . S
C342 H360 0.952 . S
C343 C342 1.379 . S
C343 C344 1.390 . S
C343 H370 0.949 . S
C344 C343 1.390 . S
C344 C345 1.357 . S
C345 C344 1.357 . S
C345 C346 1.370 . S
C345 H371 0.950 . S
C346 N341 1.307 . S
C346 C345 1.370 . S
C346 H364 0.948 . S
Zn347 N341 2.020 . S
Zn347 O356 2.039 . S
Zn347 O362 2.034 . S
Zn347 O366 2.025 . S
Zn347 O368 2.024 . S
C348 O367 1.246 . S
C348 O368 1.249 . S
N349 C350 1.307 . S
N349 C351 1.333 . S
N349 Zn355 2.020 . S
C350 N349 1.307 . S
C350 C354 1.370 . S
C350 H361 0.948 . S
C351 N349 1.333 . S
C351 C352 1.379 1_545 S
C351 H359 0.952 . S
C352 C351 1.379 1_565 S
C352 C353 1.390 . S
C352 H372 0.949 . S
C353 C352 1.390 . S
C353 C354 1.357 1_565 S
C354 C350 1.370 . S
C354 C353 1.357 1_545 S
C354 H373 0.950 . S
Zn355 N349 2.020 . S
Zn355 O358 2.025 . S
Zn355 O363 2.024 . S
Zn355 O365 2.039 . S
Zn355 O367 2.034 . S
O356 C340 1.251 . S
O356 Zn347 2.039 . S
C357 O362 1.246 . S
C357 O363 1.249 . S
O358 C340 1.254 . S
O358 Zn355 2.025 . S
H359 C351 0.952 . S
H360 C342 0.952 . S
H361 C350 0.948 . S
O362 Zn347 2.034 . S
O362 C357 1.246 . S
O363 Zn355 2.024 . S
O363 C357 1.249 . S
H364 C346 0.948 . S
O365 Zn355 2.039 . S
O365 C369 1.251 . S
O366 Zn347 2.025 . S
O366 C369 1.254 . S
O367 C348 1.246 . S
O367 Zn355 2.034 . S
O368 Zn347 2.024 . S
O368 C348 1.249 . S
C369 O365 1.251 . S
C369 O366 1.254 . S
H370 C343 0.949 . S
H371 C345 0.950 . S
H372 C352 0.949 . S
H373 C354 0.950 . S
C374 O390 1.251 . S
C374 O392 1.254 . S
N375 C376 1.333 . S
N375 C380 1.307 . S
N375 Zn381 2.020 . S
C376 N375 1.333 . S
C376 C377 1.379 . S
C376 H394 0.952 . S
C377 C376 1.379 . S
C377 C378 1.390 . S
C377 H404 0.949 . S
C378 C377 1.390 . S
C378 C379 1.357 . S
C379 C378 1.357 . S
C379 C380 1.370 . S
C379 H405 0.950 . S
C380 N375 1.307 . S
C380 C379 1.370 . S
C380 H398 0.948 . S
Zn381 N375 2.020 . S
Zn381 O390 2.039 . S
Zn381 O396 2.034 . S
Zn381 O400 2.026 . S
Zn381 O402 2.024 . S
C382 O401 1.246 . S
C382 O402 1.249 . S
N383 C384 1.307 . S
N383 C385 1.333 . S
N383 Zn389 2.020 . S
C384 N383 1.307 . S
C384 C388 1.370 . S
C384 H395 0.948 . S
C385 N383 1.333 . S
C385 C386 1.379 . S
C385 H393 0.952 . S
C386 C385 1.379 . S
C386 C387 1.390 . S
C386 H406 0.949 . S
C387 C386 1.390 . S
C387 C388 1.357 . S
C388 C384 1.370 . S
C388 C387 1.357 . S
C388 H407 0.950 . S
Zn389 N383 2.020 . S
Zn389 O392 2.025 . S
Zn389 O397 2.024 1_554 S
Zn389 O399 2.039 1_554 S
Zn389 O401 2.034 . S
O390 C374 1.251 . S
O390 Zn381 2.039 . S
C391 O396 1.246 1_556 S
C391 O397 1.249 . S
O392 C374 1.254 . S
O392 Zn389 2.025 . S
H393 C385 0.952 . S
H394 C376 0.952 . S
H395 C384 0.948 . S
O396 Zn381 2.034 . S
O396 C391 1.246 1_554 S
O397 Zn389 2.024 1_556 S
O397 C391 1.249 . S
H398 C380 0.948 . S
O399 Zn389 2.039 1_556 S
O399 C403 1.251 . S
O400 Zn381 2.026 . S
O400 C403 1.254 1_554 S
O401 C382 1.246 . S
O401 Zn389 2.034 . S
O402 Zn381 2.024 . S
O402 C382 1.249 . S
C403 O399 1.251 . S
C403 O400 1.254 1_556 S
H404 C377 0.949 . S
H405 C379 0.950 . S
H406 C386 0.949 . S
H407 C388 0.950 . S
H408 C414 0.930 . S
H409 C417 0.930 . S
H410 C418 0.930 . S
H411 C419 0.930 . S
H412 C422 0.930 . S
H413 C423 0.930 . S
C414 H408 0.930 . S
C414 C415 1.355 . S
C414 C416 1.415 . S
C415 C414 1.355 . S
C415 C417 1.419 . S
C416 C414 1.415 . S
C416 C421 1.425 . S
C416 C423 1.409 . S
C417 H409 0.930 . S
C417 C415 1.419 . S
C417 C418 1.362 . S
C418 H410 0.930 . S
C418 C417 1.362 . S
C418 C421 1.409 . S
C419 H411 0.930 . S
C419 C420 1.355 . S
C419 C421 1.415 . S
C420 C419 1.355 . S
C420 C422 1.419 . S
C421 C416 1.425 . S
C421 C418 1.409 . S
C421 C419 1.415 . S
C422 H412 0.930 . S
C422 C420 1.419 . S
C422 C423 1.362 . S
C423 H413 0.930 . S
C423 C416 1.409 . S
C423 C422 1.362 . S
H424 C430 0.930 . S
H425 C433 0.930 . S
H426 C434 0.930 . S
H427 C435 0.930 . S
H428 C438 0.930 . S
H429 C439 0.930 . S
C430 H424 0.930 . S
C430 C431 1.355 . S
C430 C432 1.415 . S
C431 C430 1.355 . S
C431 C433 1.419 . S
C432 C430 1.415 . S
C432 C437 1.425 . S
C432 C439 1.409 . S
C433 H425 0.930 . S
C433 C431 1.419 . S
C433 C434 1.362 . S
C434 H426 0.930 . S
C434 C433 1.362 . S
C434 C437 1.409 . S
C435 H427 0.930 . S
C435 C436 1.355 . S
C435 C437 1.415 . S
C436 C435 1.355 . S
C436 C438 1.419 . S
C437 C432 1.425 . S
C437 C434 1.409 . S
C437 C435 1.415 . S
C438 H428 0.930 . S
C438 C436 1.419 . S
C438 C439 1.362 . S
C439 H429 0.930 . S
C439 C432 1.409 . S
C439 C438 1.362 . S
H440 C446 0.930 . S
H441 C449 0.930 . S
H442 C450 0.930 . S
H443 C451 0.930 . S
H444 C454 0.930 . S
H445 C455 0.930 . S
C446 H440 0.930 . S
C446 C447 1.355 . S
C446 C448 1.415 . S
C447 C446 1.355 . S
C447 C449 1.419 . S
C448 C446 1.415 . S
C448 C453 1.425 . S
C448 C455 1.409 . S
C449 H441 0.930 . S
C449 C447 1.419 . S
C449 C450 1.362 . S
C450 H442 0.930 . S
C450 C449 1.362 . S
C450 C453 1.409 . S
C451 H443 0.930 . S
C451 C452 1.355 . S
C451 C453 1.415 . S
C452 C451 1.355 . S
C452 C454 1.419 . S
C453 C448 1.425 . S
C453 C450 1.409 . S
C453 C451 1.415 . S
C454 H444 0.930 . S
C454 C452 1.419 . S
C454 C455 1.362 . S
C455 H445 0.930 . S
C455 C448 1.409 . S
C455 C454 1.362 . S
H456 C462 0.930 . S
H457 C465 0.930 . S
H458 C466 0.930 . S
H459 C467 0.930 . S
H460 C470 0.930 . S
H461 C471 0.930 . S
C462 H456 0.930 . S
C462 C463 1.355 . S
C462 C464 1.415 . S
C463 C462 1.355 . S
C463 C465 1.419 . S
C464 C462 1.415 . S
C464 C469 1.425 . S
C464 C471 1.409 . S
C465 H457 0.930 . S
C465 C463 1.419 . S
C465 C466 1.362 . S
C466 H458 0.930 . S
C466 C465 1.362 . S
C466 C469 1.409 . S
C467 H459 0.930 . S
C467 C468 1.355 . S
C467 C469 1.415 . S
C468 C467 1.355 . S
C468 C470 1.419 . S
C469 C464 1.425 . S
C469 C466 1.409 . S
C469 C467 1.415 . S
C470 H460 0.930 . S
C470 C468 1.419 . S
C470 C471 1.362 . S
C471 H461 0.930 . S
C471 C464 1.409 . S
C471 C470 1.362 . S
H472 C478 0.930 . S
H473 C481 0.930 . S
H474 C482 0.930 . S
H475 C483 0.930 . S
H476 C486 0.930 . S
H477 C487 0.930 . S
C478 H472 0.930 . S
C478 C479 1.355 . S
C478 C480 1.415 . S
C479 C478 1.355 . S
C479 C481 1.419 . S
C480 C478 1.415 . S
C480 C485 1.425 . S
C480 C487 1.409 . S
C481 H473 0.930 . S
C481 C479 1.419 . S
C481 C482 1.362 . S
C482 H474 0.930 . S
C482 C481 1.362 . S
C482 C485 1.409 . S
C483 H475 0.930 . S
C483 C484 1.355 . S
C483 C485 1.415 . S
C484 C483 1.355 . S
C484 C486 1.419 . S
C485 C480 1.425 . S
C485 C482 1.409 . S
C485 C483 1.415 . S
C486 H476 0.930 . S
C486 C484 1.419 . S
C486 C487 1.362 . S
C487 H477 0.930 . S
C487 C480 1.409 . S
C487 C486 1.362 . S
H488 C494 0.930 . S
H489 C497 0.930 . S
H490 C498 0.930 . S
H491 C499 0.930 . S
H492 C502 0.930 . S
H493 C503 0.930 . S
C494 H488 0.930 . S
C494 C495 1.355 . S
C494 C496 1.415 . S
C495 C494 1.355 . S
C495 C497 1.419 . S
C496 C494 1.415 . S
C496 C501 1.425 . S
C496 C503 1.409 . S
C497 H489 0.930 . S
C497 C495 1.419 . S
C497 C498 1.362 . S
C498 H490 0.930 . S
C498 C497 1.362 . S
C498 C501 1.409 . S
C499 H491 0.930 . S
C499 C500 1.355 . S
C499 C501 1.415 . S
C500 C499 1.355 . S
C500 C502 1.419 . S
C501 C496 1.425 . S
C501 C498 1.409 . S
C501 C499 1.415 . S
C502 H492 0.930 . S
C502 C500 1.419 . S
C502 C503 1.362 . S
C503 H493 0.930 . S
C503 C496 1.409 . S
C503 C502 1.362 . S
H504 C510 0.930 . S
H505 C513 0.928 1_554 S
H506 C514 0.930 . S
H507 C515 0.930 . S
H508 C518 0.929 1_556 S
H509 C519 0.930 . S
C510 H504 0.930 . S
C510 C511 1.355 . S
C510 C512 1.415 . S
C511 C510 1.355 . S
C511 C513 1.419 . S
C512 C510 1.415 . S
C512 C517 1.425 1_556 S
C512 C519 1.409 . S
C513 H505 0.928 1_556 S
C513 C511 1.419 . S
C513 C514 1.362 1_556 S
C514 H506 0.930 . S
C514 C513 1.362 1_554 S
C514 C517 1.409 . S
C515 H507 0.930 . S
C515 C516 1.355 . S
C515 C517 1.415 . S
C516 C515 1.355 . S
C516 C518 1.419 . S
C517 C512 1.425 1_554 S
C517 C514 1.409 . S
C517 C515 1.415 . S
C518 H508 0.929 1_554 S
C518 C516 1.419 . S
C518 C519 1.362 1_554 S
C519 H509 0.930 . S
C519 C512 1.409 . S
C519 C518 1.362 1_556 S
H520 C526 0.930 . S
H521 C529 0.930 . S
H522 C530 0.930 . S
H523 C531 0.930 . S
H524 C534 0.930 . S
H525 C535 0.930 . S
C526 H520 0.930 . S
C526 C527 1.355 . S
C526 C528 1.415 . S
C527 C526 1.355 . S
C527 C529 1.419 . S
C528 C526 1.415 . S
C528 C533 1.425 . S
C528 C535 1.409 . S
C529 H521 0.930 . S
C529 C527 1.419 . S
C529 C530 1.362 . S
C530 H522 0.930 . S
C530 C529 1.362 . S
C530 C533 1.409 . S
C531 H523 0.930 . S
C531 C532 1.355 . S
C531 C533 1.415 . S
C532 C531 1.355 . S
C532 C534 1.419 . S
C533 C528 1.425 . S
C533 C530 1.409 . S
C533 C531 1.415 . S
C534 H524 0.930 . S
C534 C532 1.419 . S
C534 C535 1.362 . S
C535 H525 0.930 . S
C535 C528 1.409 . S
C535 C534 1.362 . S
H536 C542 0.930 . S
H537 C545 0.930 . S
H538 C546 0.930 . S
H539 C547 0.930 . S
H540 C550 0.930 . S
H541 C551 0.930 . S
C542 H536 0.930 . S
C542 C543 1.355 . S
C542 C544 1.415 . S
C543 C542 1.355 . S
C543 C545 1.419 . S
C544 C542 1.415 . S
C544 C549 1.425 . S
C544 C551 1.409 . S
C545 H537 0.930 . S
C545 C543 1.419 . S
C545 C546 1.362 . S
C546 H538 0.930 . S
C546 C545 1.362 . S
C546 C549 1.409 . S
C547 H539 0.930 . S
C547 C548 1.355 . S
C547 C549 1.415 . S
C548 C547 1.355 . S
C548 C550 1.419 . S
C549 C544 1.425 . S
C549 C546 1.409 . S
C549 C547 1.415 . S
C550 H540 0.930 . S
C550 C548 1.419 . S
C550 C551 1.362 . S
C551 H541 0.930 . S
C551 C544 1.409 . S
C551 C550 1.362 . S
H552 C558 0.930 1_554 S
H553 C561 0.930 . S
H554 C562 0.930 . S
H555 C563 0.930 1_556 S
H556 C566 0.930 . S
H557 C567 0.930 . S
C558 H552 0.930 1_556 S
C558 C559 1.355 . S
C558 C560 1.415 1_556 S
C559 C558 1.355 . S
C559 C561 1.419 . S
C560 C558 1.415 1_554 S
C560 C565 1.425 1_554 S
C560 C567 1.409 . S
C561 H553 0.930 . S
C561 C559 1.419 . S
C561 C562 1.362 . S
C562 H554 0.930 . S
C562 C561 1.362 . S
C562 C565 1.409 . S
C563 H555 0.930 1_554 S
C563 C564 1.355 . S
C563 C565 1.415 1_554 S
C564 C563 1.355 . S
C564 C566 1.419 . S
C565 C560 1.425 1_556 S
C565 C562 1.409 . S
C565 C563 1.415 1_556 S
C566 H556 0.930 . S
C566 C564 1.419 . S
C566 C567 1.362 . S
C567 H557 0.930 . S
C567 C560 1.409 . S
C567 C566 1.362 . S
H568 C574 0.930 . S
H569 C577 0.930 . S
H570 C578 0.930 . S
H571 C579 0.930 . S
H572 C582 0.930 . S
H573 C583 0.930 . S
C574 H568 0.930 . S
C574 C575 1.355 . S
C574 C576 1.415 . S
C575 C574 1.355 . S
C575 C577 1.419 . S
C576 C574 1.415 . S
C576 C581 1.425 . S
C576 C583 1.409 . S
C577 H569 0.930 . S
C577 C575 1.419 . S
C577 C578 1.362 . S
C578 H570 0.930 . S
C578 C577 1.362 . S
C578 C581 1.409 . S
C579 H571 0.930 . S
C579 C580 1.355 . S
C579 C581 1.415 . S
C580 C579 1.355 . S
C580 C582 1.419 . S
C581 C576 1.425 . S
C581 C578 1.409 . S
C581 C579 1.415 . S
C582 H572 0.930 . S
C582 C580 1.419 . S
C582 C583 1.362 . S
C583 H573 0.930 . S
C583 C576 1.409 . S
C583 C582 1.362 . S
H584 C590 0.930 . S
H585 C593 0.930 . S
H586 C594 0.930 . S
H587 C595 0.930 . S
H588 C598 0.930 . S
H589 C599 0.930 . S
C590 H584 0.930 . S
C590 C591 1.355 . S
C590 C592 1.415 . S
C591 C590 1.355 . S
C591 C593 1.419 . S
C592 C590 1.415 . S
C592 C597 1.425 . S
C592 C599 1.409 . S
C593 H585 0.930 . S
C593 C591 1.419 . S
C593 C594 1.362 . S
C594 H586 0.930 . S
C594 C593 1.362 . S
C594 C597 1.409 . S
C595 H587 0.930 . S
C595 C596 1.355 . S
C595 C597 1.415 . S
C596 C595 1.355 . S
C596 C598 1.419 . S
C597 C592 1.425 . S
C597 C594 1.409 . S
C597 C595 1.415 . S
C598 H588 0.930 . S
C598 C596 1.419 . S
C598 C599 1.362 . S
C599 H589 0.930 . S
C599 C592 1.409 . S
C599 C598 1.362 . S
H600 C606 0.930 . S
H601 C609 0.930 . S
H602 C610 0.930 . S
H603 C611 0.930 . S
H604 C614 0.930 . S
H605 C615 0.930 . S
C606 H600 0.930 . S
C606 C607 1.355 . S
C606 C608 1.415 1_565 S
C607 C606 1.355 . S
C607 C609 1.419 . S
C608 C606 1.415 1_545 S
C608 C613 1.425 1_546 S
C608 C615 1.409 . S
C609 H601 0.930 . S
C609 C607 1.419 . S
C609 C610 1.362 1_556 S
C610 H602 0.930 . S
C610 C609 1.362 1_554 S
C610 C613 1.409 . S
C611 H603 0.930 . S
C611 C612 1.355 . S
C611 C613 1.415 1_545 S
C612 C611 1.355 . S
C612 C614 1.419 . S
C613 C608 1.425 1_564 S
C613 C610 1.409 . S
C613 C611 1.415 1_565 S
C614 H604 0.930 . S
C614 C612 1.419 . S
C614 C615 1.362 1_554 S
C615 H605 0.930 . S
C615 C608 1.409 . S
C615 C614 1.362 1_556 S
H616 C622 0.930 . S
H617 C625 0.930 . S
H618 C626 0.930 . S
H619 C627 0.930 . S
H620 C630 0.930 . S
H621 C631 0.930 . S
C622 H616 0.930 . S
C622 C623 1.355 . S
C622 C624 1.415 . S
C623 C622 1.355 . S
C623 C625 1.419 . S
C624 C622 1.415 . S
C624 C629 1.425 . S
C624 C631 1.409 . S
C625 H617 0.930 . S
C625 C623 1.419 . S
C625 C626 1.362 . S
C626 H618 0.930 . S
C626 C625 1.362 . S
C626 C629 1.409 . S
C627 H619 0.930 . S
C627 C628 1.355 . S
C627 C629 1.415 . S
C628 C627 1.355 . S
C628 C630 1.419 . S
C629 C624 1.425 . S
C629 C626 1.409 . S
C629 C627 1.415 . S
C630 H620 0.930 . S
C630 C628 1.419 . S
C630 C631 1.362 . S
C631 H621 0.930 . S
C631 C624 1.409 . S
C631 C630 1.362 . S
H632 C638 0.930 . S
H633 C641 0.930 . S
H634 C642 0.930 . S
H635 C643 0.930 . S
H636 C646 0.930 . S
H637 C647 0.930 . S
C638 H632 0.930 . S
C638 C639 1.355 . S
C638 C640 1.415 . S
C639 C638 1.355 . S
C639 C641 1.419 . S
C640 C638 1.415 . S
C640 C645 1.425 1_455 S
C640 C647 1.409 . S
C641 H633 0.930 . S
C641 C639 1.419 . S
C641 C642 1.362 1_455 S
C642 H634 0.930 . S
C642 C641 1.362 1_655 S
C642 C645 1.409 . S
C643 H635 0.930 . S
C643 C644 1.355 . S
C643 C645 1.415 . S
C644 C643 1.355 . S
C644 C646 1.419 . S
C645 C640 1.425 1_655 S
C645 C642 1.409 . S
C645 C643 1.415 . S
C646 H636 0.930 . S
C646 C644 1.419 . S
C646 C647 1.362 1_655 S
C647 H637 0.930 . S
C647 C640 1.409 . S
C647 C646 1.362 1_455 S
H648 C654 0.930 1_556 S
H649 C657 0.930 . S
H650 C658 0.930 . S
H651 C659 0.930 1_554 S
H652 C662 0.930 . S
H653 C663 0.930 . S
C654 H648 0.930 1_554 S
C654 C655 1.355 . S
C654 C656 1.415 1_554 S
C655 C654 1.355 . S
C655 C657 1.419 . S
C656 C654 1.415 1_556 S
C656 C661 1.425 1_566 S
C656 C663 1.409 . S
C657 H649 0.930 . S
C657 C655 1.419 . S
C657 C658 1.362 1_565 S
C658 H650 0.930 . S
C658 C657 1.362 1_545 S
C658 C661 1.409 . S
C659 H651 0.930 1_556 S
C659 C660 1.355 . S
C659 C661 1.415 1_556 S
C660 C659 1.355 . S
C660 C662 1.419 . S
C661 C656 1.425 1_544 S
C661 C658 1.409 . S
C661 C659 1.415 1_554 S
C662 H652 0.930 . S
C662 C660 1.419 . S
C662 C663 1.362 1_545 S
C663 H653 0.930 . S
C663 C656 1.409 . S
C663 C662 1.362 1_565 S
H664 C670 0.930 . S
H665 C673 0.930 . S
H666 C674 0.930 . S
H667 C675 0.930 . S
H668 C678 0.930 . S
H669 C679 0.930 . S
C670 H664 0.930 . S
C670 C671 1.355 . S
C670 C672 1.415 . S
C671 C670 1.355 . S
C671 C673 1.419 . S
C672 C670 1.415 . S
C672 C677 1.425 . S
C672 C679 1.409 . S
C673 H665 0.930 . S
C673 C671 1.419 . S
C673 C674 1.362 . S
C674 H666 0.930 . S
C674 C673 1.362 . S
C674 C677 1.409 . S
C675 H667 0.930 . S
C675 C676 1.355 . S
C675 C677 1.415 . S
C676 C675 1.355 . S
C676 C678 1.419 . S
C677 C672 1.425 . S
C677 C674 1.409 . S
C677 C675 1.415 . S
C678 H668 0.930 . S
C678 C676 1.419 . S
C678 C679 1.362 . S
C679 H669 0.930 . S
C679 C672 1.409 . S
C679 C678 1.362 . S
H680 C686 0.930 . S
H681 C689 0.930 . S
H682 C690 0.930 . S
H683 C691 0.930 . S
H684 C694 0.930 . S
H685 C695 0.930 . S
C686 H680 0.930 . S
C686 C687 1.355 . S
C686 C688 1.415 . S
C687 C686 1.355 . S
C687 C689 1.419 . S
C688 C686 1.415 . S
C688 C693 1.425 1_455 S
C688 C695 1.409 . S
C689 H681 0.930 . S
C689 C687 1.419 . S
C689 C690 1.362 1_455 S
C690 H682 0.930 . S
C690 C689 1.362 1_655 S
C690 C693 1.409 . S
C691 H683 0.930 . S
C691 C692 1.355 . S
C691 C693 1.415 . S
C692 C691 1.355 . S
C692 C694 1.419 . S
C693 C688 1.425 1_655 S
C693 C690 1.409 . S
C693 C691 1.415 . S
C694 H684 0.930 . S
C694 C692 1.419 . S
C694 C695 1.362 1_655 S
C695 H685 0.930 . S
C695 C688 1.409 . S
C695 C694 1.362 1_455 S
H696 C702 0.930 . S
H697 C705 0.930 . S
H698 C706 0.956 . S
H699 C707 0.930 . S
H700 C710 0.930 . S
H701 C711 0.956 . S
C702 H696 0.930 . S
C702 C703 1.355 . S
C702 C704 1.415 . S
C703 C702 1.355 . S
C703 C705 1.419 . S
C704 C702 1.415 . S
C704 C709 1.425 1_565 S
C704 C711 1.409 1_565 S
C705 H697 0.930 . S
C705 C703 1.419 . S
C705 C706 1.362 . S
C706 H698 0.956 . S
C706 C705 1.362 . S
C706 C709 1.409 1_565 S
C707 H699 0.930 . S
C707 C708 1.355 . S
C707 C709 1.415 . S
C708 C707 1.355 . S
C708 C710 1.419 . S
C709 C704 1.425 1_545 S
C709 C706 1.409 1_545 S
C709 C707 1.415 . S
C710 H700 0.930 . S
C710 C708 1.419 . S
C710 C711 1.362 . S
C711 H701 0.956 . S
C711 C704 1.409 1_545 S
C711 C710 1.362 . S
H712 C718 0.930 . S
H713 C721 0.930 . S
H714 C722 0.930 . S
H715 C723 0.930 . S
H716 C726 0.930 . S
H717 C727 0.930 . S
C718 H712 0.930 . S
C718 C719 1.355 . S
C718 C720 1.415 . S
C719 C718 1.355 . S
C719 C721 1.419 . S
C720 C718 1.415 . S
C720 C725 1.425 . S
C720 C727 1.409 . S
C721 H713 0.930 . S
C721 C719 1.419 . S
C721 C722 1.362 . S
C722 H714 0.930 . S
C722 C721 1.362 . S
C722 C725 1.409 . S
C723 H715 0.930 . S
C723 C724 1.355 . S
C723 C725 1.415 . S
C724 C723 1.355 . S
C724 C726 1.419 . S
C725 C720 1.425 . S
C725 C722 1.409 . S
C725 C723 1.415 . S
C726 H716 0.930 . S
C726 C724 1.419 . S
C726 C727 1.362 . S
C727 H717 0.930 . S
C727 C720 1.409 . S
C727 C726 1.362 . S
H728 C734 0.930 . S
H729 C737 0.930 . S
H730 C738 0.935 . S
H731 C739 0.930 . S
H732 C742 0.930 . S
H733 C743 0.935 . S
C734 H728 0.930 . S
C734 C735 1.355 . S
C734 C736 1.415 . S
C735 C734 1.355 . S
C735 C737 1.419 . S
C736 C734 1.415 . S
C736 C741 1.425 1_455 S
C736 C743 1.425 . S
C737 H729 0.930 . S
C737 C735 1.419 . S
C737 C738 1.342 1_455 S
C738 H730 0.935 . S
C738 C737 1.342 1_655 S
C738 C741 1.425 . S
C739 H731 0.930 . S
C739 C740 1.355 . S
C739 C741 1.415 . S
C740 C739 1.355 . S
C740 C742 1.419 . S
C741 C736 1.425 1_655 S
C741 C738 1.425 . S
C741 C739 1.415 . S
C742 H732 0.930 . S
C742 C740 1.419 . S
C742 C743 1.343 1_655 S
C743 H733 0.935 . S
C743 C736 1.425 . S
C743 C742 1.343 1_455 S
H744 C750 0.930 . S
H745 C753 0.930 . S
H746 C754 0.930 . S
H747 C755 0.930 . S
H748 C758 0.930 . S
H749 C759 0.930 . S
C750 H744 0.930 . S
C750 C751 1.355 . S
C750 C752 1.395 1_655 S
C751 C750 1.355 . S
C751 C753 1.419 . S
C752 C750 1.395 1_455 S
C752 C757 1.381 1_455 S
C752 C759 1.451 . S
C753 H745 0.930 . S
C753 C751 1.419 . S
C753 C754 1.362 . S
C754 H746 0.930 . S
C754 C753 1.362 . S
C754 C757 1.451 . S
C755 H747 0.930 . S
C755 C756 1.355 . S
C755 C757 1.395 1_455 S
C756 C755 1.355 . S
C756 C758 1.419 . S
C757 C752 1.381 1_655 S
C757 C754 1.451 . S
C757 C755 1.395 1_655 S
C758 H748 0.930 . S
C758 C756 1.419 . S
C758 C759 1.362 . S
C759 H749 0.930 . S
C759 C752 1.451 . S
C759 C758 1.362 . S
H760 C766 0.930 . S
H761 C769 0.930 . S
H762 C770 0.930 . S
H763 C771 0.930 . S
H764 C774 0.930 . S
H765 C775 0.930 . S
C766 H760 0.930 . S
C766 C767 1.355 . S
C766 C768 1.376 1_545 S
C767 C766 1.355 . S
C767 C769 1.419 . S
C768 C766 1.376 1_565 S
C768 C773 1.461 1_565 S
C768 C775 1.432 . S
C769 H761 0.930 . S
C769 C767 1.419 . S
C769 C770 1.362 . S
C770 H762 0.930 . S
C770 C769 1.362 . S
C770 C773 1.432 . S
C771 H763 0.930 . S
C771 C772 1.355 . S
C771 C773 1.376 1_565 S
C772 C771 1.355 . S
C772 C774 1.419 . S
C773 C768 1.461 1_545 S
C773 C770 1.432 . S
C773 C771 1.376 1_545 S
C774 H764 0.930 . S
C774 C772 1.419 . S
C774 C775 1.362 . S
C775 H765 0.930 . S
C775 C768 1.432 . S
C775 C774 1.362 . S
H776 C782 0.930 . S
H777 C785 0.930 . S
H778 C786 0.930 . S
H779 C787 0.930 . S
H780 C790 0.930 . S
H781 C791 0.930 . S
C782 H776 0.930 . S
C782 C783 1.355 . S
C782 C784 1.415 . S
C783 C782 1.355 . S
C783 C785 1.419 . S
C784 C782 1.415 . S
C784 C789 1.425 . S
C784 C791 1.409 . S
C785 H777 0.930 . S
C785 C783 1.419 . S
C785 C786 1.362 . S
C786 H778 0.930 . S
C786 C785 1.362 . S
C786 C789 1.409 . S
C787 H779 0.930 . S
C787 C788 1.355 . S
C787 C789 1.415 . S
C788 C787 1.355 . S
C788 C790 1.419 . S
C789 C784 1.425 . S
C789 C786 1.409 . S
C789 C787 1.415 . S
C790 H780 0.930 . S
C790 C788 1.419 . S
C790 C791 1.362 . S
C791 H781 0.930 . S
C791 C784 1.409 . S
C791 C790 1.362 . S
H792 C798 0.930 . S
H793 C801 0.930 . S
H794 C802 0.930 . S
H795 C803 0.930 . S
H796 C806 0.930 . S
H797 C807 0.930 . S
C798 H792 0.930 . S
C798 C799 1.355 . S
C798 C800 1.415 . S
C799 C798 1.355 . S
C799 C801 1.419 . S
C800 C798 1.415 . S
C800 C805 1.425 1_565 S
C800 C807 1.409 1_565 S
C801 H793 0.930 . S
C801 C799 1.419 . S
C801 C802 1.362 . S
C802 H794 0.930 . S
C802 C801 1.362 . S
C802 C805 1.409 1_565 S
C803 H795 0.930 . S
C803 C804 1.355 . S
C803 C805 1.415 . S
C804 C803 1.355 . S
C804 C806 1.419 . S
C805 C800 1.425 1_545 S
C805 C802 1.409 1_545 S
C805 C803 1.415 . S
C806 H796 0.930 . S
C806 C804 1.419 . S
C806 C807 1.362 . S
C807 H797 0.930 . S
C807 C800 1.409 1_545 S
C807 C806 1.362 . S
H808 C814 0.930 . S
H809 C817 0.930 . S
H810 C818 0.930 . S
H811 C819 0.930 . S
H812 C822 0.930 . S
H813 C823 0.930 . S
C814 H808 0.930 . S
C814 C815 1.355 . S
C814 C816 1.415 . S
C815 C814 1.355 . S
C815 C817 1.419 . S
C816 C814 1.415 . S
C816 C821 1.425 . S
C816 C823 1.409 . S
C817 H809 0.930 . S
C817 C815 1.419 . S
C817 C818 1.362 . S
C818 H810 0.930 . S
C818 C817 1.362 . S
C818 C821 1.409 . S
C819 H811 0.930 . S
C819 C820 1.355 . S
C819 C821 1.415 . S
C820 C819 1.355 . S
C820 C822 1.419 . S
C821 C816 1.425 . S
C821 C818 1.409 . S
C821 C819 1.415 . S
C822 H812 0.930 . S
C822 C820 1.419 . S
C822 C823 1.362 . S
C823 H813 0.930 . S
C823 C816 1.409 . S
C823 C822 1.362 . S
H824 C830 0.930 . S
H825 C833 0.930 . S
H826 C834 0.930 . S
H827 C835 0.930 . S
H828 C838 0.930 . S
H829 C839 0.930 . S
C830 H824 0.930 . S
C830 C831 1.355 . S
C830 C832 1.415 . S
C831 C830 1.355 . S
C831 C833 1.419 . S
C832 C830 1.415 . S
C832 C837 1.425 1_655 S
C832 C839 1.409 1_655 S
C833 H825 0.930 . S
C833 C831 1.419 . S
C833 C834 1.362 . S
C834 H826 0.930 . S
C834 C833 1.362 . S
C834 C837 1.409 1_655 S
C835 H827 0.930 . S
C835 C836 1.355 . S
C835 C837 1.415 . S
C836 C835 1.355 . S
C836 C838 1.419 . S
C837 C832 1.425 1_455 S
C837 C834 1.409 1_455 S
C837 C835 1.415 . S
C838 H828 0.930 . S
C838 C836 1.419 . S
C838 C839 1.362 . S
C839 H829 0.930 . S
C839 C832 1.409 1_455 S
C839 C838 1.362 . S
H840 C846 0.930 . S
H841 C849 0.930 . S
H842 C850 0.930 . S
H843 C851 0.930 . S
H844 C854 0.930 . S
H845 C855 0.930 . S
C846 H840 0.930 . S
C846 C847 1.355 . S
C846 C848 1.415 1_545 S
C847 C846 1.355 . S
C847 C849 1.419 . S
C848 C846 1.415 1_565 S
C848 C853 1.425 1_565 S
C848 C855 1.409 . S
C849 H841 0.930 . S
C849 C847 1.419 . S
C849 C850 1.362 . S
C850 H842 0.930 . S
C850 C849 1.362 . S
C850 C853 1.409 . S
C851 H843 0.930 . S
C851 C852 1.355 . S
C851 C853 1.415 1_565 S
C852 C851 1.355 . S
C852 C854 1.419 . S
C853 C848 1.425 1_545 S
C853 C850 1.409 . S
C853 C851 1.415 1_545 S
C854 H844 0.930 . S
C854 C852 1.419 . S
C854 C855 1.362 . S
C855 H845 0.930 . S
C855 C848 1.409 . S
C855 C854 1.362 . S
H856 C862 0.930 . S
H857 C865 0.930 . S
H858 C866 0.930 . S
H859 C867 0.930 . S
H860 C870 0.930 . S
H861 C871 0.930 . S
C862 H856 0.930 . S
C862 C863 1.355 . S
C862 C864 1.415 . S
C863 C862 1.355 . S
C863 C865 1.419 . S
C864 C862 1.415 . S
C864 C869 1.425 . S
C864 C871 1.409 . S
C865 H857 0.930 . S
C865 C863 1.419 . S
C865 C866 1.362 . S
C866 H858 0.930 . S
C866 C865 1.362 . S
C866 C869 1.409 . S
C867 H859 0.930 . S
C867 C868 1.355 . S
C867 C869 1.415 . S
C868 C867 1.355 . S
C868 C870 1.419 . S
C869 C864 1.425 . S
C869 C866 1.409 . S
C869 C867 1.415 . S
C870 H860 0.930 . S
C870 C868 1.419 . S
C870 C871 1.362 . S
C871 H861 0.930 . S
C871 C864 1.409 . S
C871 C870 1.362 . S
H872 C878 0.930 . S
H873 C881 0.930 . S
H874 C882 0.930 . S
H875 C883 0.930 . S
H876 C886 0.930 . S
H877 C887 0.930 . S
C878 H872 0.930 . S
C878 C879 1.355 . S
C878 C880 1.392 1_455 S
C879 C878 1.355 . S
C879 C881 1.419 . S
C880 C878 1.392 1_655 S
C880 C885 1.396 1_655 S
C880 C887 1.447 . S
C881 H873 0.930 . S
C881 C879 1.419 . S
C881 C882 1.362 . S
C882 H874 0.930 . S
C882 C881 1.362 . S
C882 C885 1.447 . S
C883 H875 0.930 . S
C883 C884 1.355 . S
C883 C885 1.392 1_655 S
C884 C883 1.355 . S
C884 C886 1.419 . S
C885 C880 1.396 1_455 S
C885 C882 1.447 . S
C885 C883 1.392 1_455 S
C886 H876 0.930 . S
C886 C884 1.419 . S
C886 C887 1.362 . S
C887 H877 0.930 . S
C887 C880 1.447 . S
C887 C886 1.362 . S
H888 C894 0.930 . S
H889 C897 0.930 . S
H890 C898 0.930 . S
H891 C899 0.930 . S
H892 C902 0.930 . S
H893 C903 0.930 . S
C894 H888 0.930 . S
C894 C895 1.355 . S
C894 C896 1.415 . S
C895 C894 1.355 . S
C895 C897 1.419 . S
C896 C894 1.415 . S
C896 C901 1.425 . S
C896 C903 1.409 . S
C897 H889 0.930 . S
C897 C895 1.419 . S
C897 C898 1.362 . S
C898 H890 0.930 . S
C898 C897 1.362 . S
C898 C901 1.409 . S
C899 H891 0.930 . S
C899 C900 1.355 . S
C899 C901 1.415 . S
C900 C899 1.355 . S
C900 C902 1.419 . S
C901 C896 1.425 . S
C901 C898 1.409 . S
C901 C899 1.415 . S
C902 H892 0.930 . S
C902 C900 1.419 . S
C902 C903 1.362 . S
C903 H893 0.930 . S
C903 C896 1.409 . S
C903 C902 1.362 . S
H904 C910 0.930 . S
H905 C913 0.930 . S
H906 C914 0.930 . S
H907 C915 0.930 . S
H908 C918 0.930 . S
H909 C919 0.930 . S
C910 H904 0.930 . S
C910 C911 1.355 . S
C910 C912 1.415 . S
C911 C910 1.355 . S
C911 C913 1.419 . S
C912 C910 1.415 . S
C912 C917 1.425 . S
C912 C919 1.409 . S
C913 H905 0.930 . S
C913 C911 1.419 . S
C913 C914 1.362 . S
C914 H906 0.930 . S
C914 C913 1.362 . S
C914 C917 1.409 . S
C915 H907 0.930 . S
C915 C916 1.355 . S
C915 C917 1.415 . S
C916 C915 1.355 . S
C916 C918 1.419 . S
C917 C912 1.425 . S
C917 C914 1.409 . S
C917 C915 1.415 . S
C918 H908 0.930 . S
C918 C916 1.419 . S
C918 C919 1.362 . S
C919 H909 0.930 . S
C919 C912 1.409 . S
C919 C918 1.362 . S
H920 C926 0.930 . S
H921 C929 0.930 . S
H922 C930 0.930 . S
H923 C931 0.930 . S
H924 C934 0.930 . S
H925 C935 0.930 . S
C926 H920 0.930 . S
C926 C927 1.355 . S
C926 C928 1.415 . S
C927 C926 1.355 . S
C927 C929 1.419 . S
C928 C926 1.415 . S
C928 C933 1.425 . S
C928 C935 1.409 . S
C929 H921 0.930 . S
C929 C927 1.419 . S
C929 C930 1.362 . S
C930 H922 0.930 . S
C930 C929 1.362 . S
C930 C933 1.409 . S
C931 H923 0.930 . S
C931 C932 1.355 . S
C931 C933 1.415 . S
C932 C931 1.355 . S
C932 C934 1.419 . S
C933 C928 1.425 . S
C933 C930 1.409 . S
C933 C931 1.415 . S
C934 H924 0.930 . S
C934 C932 1.419 . S
C934 C935 1.362 . S
C935 H925 0.930 . S
C935 C928 1.409 . S
C935 C934 1.362 . S
H936 C942 0.930 . S
H937 C945 0.930 . S
H938 C946 0.930 . S
H939 C947 0.930 . S
H940 C950 0.930 . S
H941 C951 0.930 . S
C942 H936 0.930 . S
C942 C943 1.355 . S
C942 C944 1.415 . S
C943 C942 1.355 . S
C943 C945 1.419 . S
C944 C942 1.415 . S
C944 C949 1.425 . S
C944 C951 1.409 . S
C945 H937 0.930 . S
C945 C943 1.419 . S
C945 C946 1.362 . S
C946 H938 0.930 . S
C946 C945 1.362 . S
C946 C949 1.409 . S
C947 H939 0.930 . S
C947 C948 1.355 . S
C947 C949 1.415 . S
C948 C947 1.355 . S
C948 C950 1.419 . S
C949 C944 1.425 . S
C949 C946 1.409 . S
C949 C947 1.415 . S
C950 H940 0.930 . S
C950 C948 1.419 . S
C950 C951 1.362 . S
C951 H941 0.930 . S
C951 C944 1.409 . S
C951 C950 1.362 . S
H952 C958 0.930 . S
H953 C961 0.930 . S
H954 C962 0.930 . S
H955 C963 0.930 . S
H956 C966 0.930 . S
H957 C967 0.930 . S
C958 H952 0.930 . S
C958 C959 1.355 . S
C958 C960 1.415 . S
C959 C958 1.355 . S
C959 C961 1.419 . S
C960 C958 1.415 . S
C960 C965 1.425 . S
C960 C967 1.409 . S
C961 H953 0.930 . S
C961 C959 1.419 . S
C961 C962 1.362 . S
C962 H954 0.930 . S
C962 C961 1.362 . S
C962 C965 1.409 . S
C963 H955 0.930 . S
C963 C964 1.355 . S
C963 C965 1.415 . S
C964 C963 1.355 . S
C964 C966 1.419 . S
C965 C960 1.425 . S
C965 C962 1.409 . S
C965 C963 1.415 . S
C966 H956 0.930 . S
C966 C964 1.419 . S
C966 C967 1.362 . S
C967 H957 0.930 . S
C967 C960 1.409 . S
C967 C966 1.362 . S
H968 C974 0.930 . S
H969 C977 0.930 . S
H970 C978 0.930 . S
H971 C979 0.930 . S
H972 C982 0.930 . S
H973 C983 0.930 . S
C974 H968 0.930 . S
C974 C975 1.355 . S
C974 C976 1.415 . S
C975 C974 1.355 . S
C975 C977 1.419 . S
C976 C974 1.415 . S
C976 C981 1.425 . S
C976 C983 1.409 . S
C977 H969 0.930 . S
C977 C975 1.419 . S
C977 C978 1.362 . S
C978 H970 0.930 . S
C978 C977 1.362 . S
C978 C981 1.409 . S
C979 H971 0.930 . S
C979 C980 1.355 . S
C979 C981 1.415 . S
C980 C979 1.355 . S
C980 C982 1.419 . S
C981 C976 1.425 . S
C981 C978 1.409 . S
C981 C979 1.415 . S
C982 H972 0.930 . S
C982 C980 1.419 . S
C982 C983 1.362 . S
C983 H973 0.930 . S
C983 C976 1.409 . S
C983 C982 1.362 . S
C415 C4 1.392 . S
C420 C276 1.392 . S
C431 C38 1.352 . S
C436 C310 1.353 . S
C447 C72 1.387 . S
C452 C344 1.392 . S
C463 C378 1.357 . S
C468 C106 1.367 . S
C479 C140 1.357 . S
C484 C208 1.352 . S
C495 C242 1.385 . S
C500 C174 1.374 . S
C511 C340 2.072 . S
C516 C0 2.056 . S
C527 C374 2.037 . S
C532 C34 2.076 . S
C543 C68 2.075 . S
C548 C204 2.049 . S
C559 C238 2.035 . S
C564 C102 2.041 . S
C575 C272 2.035 . S
C580 C136 2.075 . S
C591 C170 2.052 . S
C596 C306 2.074 . S
C607 C246 2.060 . S
C612 C8 2.037 . S
C623 C280 2.051 . S
C628 C42 2.013 . S
C639 C314 2.014 . S
C644 C76 2.025 . S
C655 C110 2.035 . S
C660 C348 2.010 . S
C671 C144 2.014 . S
C676 C382 2.053 . S
C687 C178 2.048 . S
C692 C212 2.011 . S
C703 C13 1.960 . S
C708 C115 1.973 . S
C719 C47 2.023 . S
C724 C149 2.010 . S
C735 C81 1.956 . S
C740 C183 1.950 . S
C751 C319 2.032 . S
C756 C217 2.035 . S
C767 C251 2.033 . S
C772 C353 2.035 . S
C783 C387 2.022 . S
C788 C285 2.031 . S
C799 C267 1.900 . S
C804 C29 1.846 . S
C815 C301 1.892 . S
C820 C63 1.898 . S
C831 C97 1.860 . S
C836 C335 1.907 . S
C847 C369 1.908 . S
C852 C131 1.865 . S
C863 C403 1.868 . S
C868 C165 1.908 . S
C879 C199 1.878 . S
C884 C233 1.906 . S
C895 C17 1.925 . S
C900 C357 1.878 . S
C911 C51 1.931 . S
C916 C391 1.933 . S
C927 C85 1.875 . S
C932 C221 1.897 . S
C943 C119 1.874 . S
C948 C255 1.915 . S
C959 C153 1.941 . S
C964 C289 1.903 . S
C975 C323 1.939 . S
C980 C187 1.896 . S
