# Generated by pormake.
# Topology irl, (4)-cn, num edge types: 1
# Building blocks:
#     Node 0, Type 0, BuildingBlock: CEKHIL_clean_sbu_0, # of connection points: 4
#     Node 1, Type 0, BuildingBlock: CEKHIL_clean_sbu_0, # of connection points: 4
#     Node 2, Type 0, BuildingBlock: CEKHIL_clean_sbu_0, # of connection points: 4
#     Node 3, Type 0, BuildingBlock: CEKHIL_clean_sbu_0, # of connection points: 4
#     Node 4, Type 0, BuildingBlock: CEKHIL_clean_sbu_0, # of connection points: 4
#     Node 5, Type 0, BuildingBlock: CEKHIL_clean_sbu_0, # of connection points: 4
#     Node 6, Type 0, BuildingBlock: CEKHIL_clean_sbu_0, # of connection points: 4
#     Node 7, Type 0, BuildingBlock: CEKHIL_clean_sbu_0, # of connection points: 4
#     Edge 8, Type (0, 0), BuildingBlock: UVAHIK_clean_linker_0, # of connection points: 2
#     Edge 9, Type (0, 0), BuildingBlock: UVAHIK_clean_linker_0, # of connection points: 2
#     Edge 10, Type (0, 0), BuildingBlock: UVAHIK_clean_linker_0, # of connection points: 2
#     Edge 11, Type (0, 0), BuildingBlock: UVAHIK_clean_linker_0, # of connection points: 2
#     Edge 12, Type (0, 0), BuildingBlock: UVAHIK_clean_linker_0, # of connection points: 2
#     Edge 13, Type (0, 0), BuildingBlock: UVAHIK_clean_linker_0, # of connection points: 2
#     Edge 14, Type (0, 0), BuildingBlock: UVAHIK_clean_linker_0, # of connection points: 2
#     Edge 15, Type (0, 0), BuildingBlock: UVAHIK_clean_linker_0, # of connection points: 2
#     Edge 16, Type (0, 0), BuildingBlock: UVAHIK_clean_linker_0, # of connection points: 2
#     Edge 17, Type (0, 0), BuildingBlock: UVAHIK_clean_linker_0, # of connection points: 2
#     Edge 18, Type (0, 0), BuildingBlock: UVAHIK_clean_linker_0, # of connection points: 2
#     Edge 19, Type (0, 0), BuildingBlock: UVAHIK_clean_linker_0, # of connection points: 2
#     Edge 20, Type (0, 0), BuildingBlock: UVAHIK_clean_linker_0, # of connection points: 2
#     Edge 21, Type (0, 0), BuildingBlock: UVAHIK_clean_linker_0, # of connection points: 2
#     Edge 22, Type (0, 0), BuildingBlock: UVAHIK_clean_linker_0, # of connection points: 2
#     Edge 23, Type (0, 0), BuildingBlock: UVAHIK_clean_linker_0, # of connection points: 2
# Relax obj value: 0.066
# Max RMSD: 0.130
# Mean RMSD: 0.130
data_MOF--net-irl--node1-CEKHIL_clean_sbu_0--edge1-UVAHIK_clean_linker_0
_symmetry_space_group_name_H-M    P1
_symmetry_Int_Tables_number       1
_symmetry_cell_setting            triclinic
loop_
_symmetry_equiv_pos_as_xyz
'x, y, z'
_cell_length_a     42.120152
_cell_length_b     58.890086
_cell_length_c     36.246797
_cell_angle_alpha  89.886268
_cell_angle_beta   90.065993
_cell_angle_gamma 90.008924
loop_
_atom_site_label
_atom_site_type_symbol
_atom_site_fract_x
_atom_site_fract_y
_atom_site_fract_z
_atom_type_partial_charge
Co0 Co 0.06628 0.16554 -0.00811 0.0
O1 O 0.08915 0.19365 -0.00848 0.0
O2 O 0.10743 0.16162 0.01554 0.0
C3 C 0.05069 0.16675 0.93269 0.0
O4 O 0.04858 0.13315 -0.00427 0.0
Co5 Co 0.99336 0.16777 0.97999 0.0
O6 O 0.99773 0.13437 0.97645 0.0
C7 C 0.01988 0.18144 0.05131 0.0
C8 C 0.11181 0.18313 0.00863 0.0
C9 C 0.0222 0.12332 0.9869 0.0
O10 O 0.04704 0.17409 0.04058 0.0
O11 O 0.99541 0.18196 0.03036 0.0
O12 O 0.07884 0.15943 0.9413 0.0
O13 O 0.03448 0.17539 0.95949 0.0
Co14 Co 0.93291 0.8382 0.98966 0.0
O15 O 0.91003 0.8101 0.98868 0.0
O16 O 0.89259 0.8415 0.0153 0.0
C17 C 0.94631 0.83852 0.92966 0.0
O18 O 0.95078 0.87047 -0.00539 0.0
Co19 Co 0.00533 0.836 0.97425 0.0
O20 O 0.00169 0.86951 0.9754 0.0
C21 C 0.98135 0.82075 0.04596 0.0
C22 C 0.88794 0.82019 0.00728 0.0
C23 C 0.97738 0.88032 0.9868 0.0
O24 O 0.95392 0.82854 0.03699 0.0
O25 O 0.00487 0.82039 0.02363 0.0
O26 O 0.91853 0.84557 0.94006 0.0
O27 O 0.96345 0.82917 0.95514 0.0
Co28 Co 0.0634 0.83899 0.49236 0.0
O29 O 0.08499 0.81042 0.49459 0.0
O30 O 0.10481 0.84144 0.4688 0.0
C31 C 0.04757 0.83957 0.55151 0.0
O32 O 0.047 0.87161 0.48639 0.0
Co33 Co 0.99036 0.83803 0.50341 0.0
O34 O 0.99519 0.87145 0.50216 0.0
C35 C 0.01683 0.82239 0.43334 0.0
C36 C 0.10809 0.81998 0.47688 0.0
C37 C 0.02038 0.88186 0.49242 0.0
O38 O 0.04405 0.82971 0.44398 0.0
O39 O 0.99224 0.82255 0.45405 0.0
O40 O 0.07603 0.84606 0.54262 0.0
O41 O 0.03113 0.83054 0.52518 0.0
Co42 Co 0.93256 0.16699 0.49568 0.0
O43 O 0.90986 0.19515 0.49452 0.0
O44 O 0.8924 0.16314 0.46981 0.0
C45 C 0.94555 0.16823 0.55574 0.0
O46 O 0.95028 0.13457 0.49303 0.0
Co47 Co 0.0049 0.16903 0.51224 0.0
O48 O 0.00016 0.13562 0.51553 0.0
C49 C 0.98171 0.18281 0.43923 0.0
C50 C 0.88781 0.18465 0.47641 0.0
C51 C 0.97617 0.12466 0.50351 0.0
O52 O 0.95404 0.17543 0.44812 0.0
O53 O 0.00502 0.18342 0.4619 0.0
O54 O 0.91778 0.16094 0.54559 0.0
O55 O 0.96292 0.17678 0.52982 0.0
Co56 Co 0.56342 0.66526 -0.00722 0.0
O57 O 0.585 0.69381 0.9902 0.0
O58 O 0.60518 0.66279 0.01563 0.0
C59 C 0.54677 0.66471 0.93387 0.0
O60 O 0.54706 0.63264 -0.00101 0.0
Co61 Co 0.49025 0.66626 0.9829 0.0
O62 O 0.49499 0.63283 0.9842 0.0
C63 C 0.51772 0.68186 0.05254 0.0
C64 C 0.60836 0.68425 0.00748 0.0
C65 C 0.52032 0.6224 -0.00652 0.0
O66 O 0.54477 0.67451 0.04148 0.0
O67 O 0.49287 0.68176 0.03219 0.0
O68 O 0.57533 0.65819 0.94233 0.0
O69 O 0.5307 0.67374 0.96047 0.0
Co70 Co 0.43477 0.3367 0.98784 0.0
O71 O 0.41315 0.30813 0.98852 0.0
O72 O 0.39462 0.33957 0.01409 0.0
C73 C 0.44743 0.33625 0.92767 0.0
O74 O 0.45157 0.36936 0.99111 0.0
Co75 Co 0.50707 0.3356 0.97116 0.0
O76 O 0.5014 0.36896 0.96849 0.0
C77 C 0.48451 0.32091 0.04381 0.0
C78 C 0.39094 0.318 0.0072 0.0
C79 C 0.47722 0.3796 0.98073 0.0
O80 O 0.45675 0.32819 0.0351 0.0
O81 O 0.50777 0.32067 0.02111 0.0
O82 O 0.41948 0.34294 0.93815 0.0
O83 O 0.46518 0.32771 0.95329 0.0
Co84 Co 0.56413 0.33974 0.49027 0.0
O85 O 0.58563 0.31119 0.4932 0.0
O86 O 0.60583 0.34204 0.46729 0.0
C87 C 0.54768 0.34054 0.54917 0.0
O88 O 0.54781 0.37234 0.48365 0.0
Co89 Co 0.49103 0.33878 0.50015 0.0
O90 O 0.49582 0.37221 0.49862 0.0
C91 C 0.51834 0.32274 0.43082 0.0
C92 C 0.60894 0.32061 0.47568 0.0
C93 C 0.52111 0.3826 0.48916 0.0
O94 O 0.54537 0.33024 0.44175 0.0
O95 O 0.49351 0.32294 0.45114 0.0
O96 O 0.5762 0.34706 0.54057 0.0
O97 O 0.53152 0.3314 0.5227 0.0
Co98 Co 0.43265 0.66744 0.49543 0.0
O99 O 0.40966 0.6955 0.49515 0.0
O100 O 0.39277 0.6638 0.46892 0.0
C101 C 0.44507 0.66773 0.55572 0.0
O102 O 0.45068 0.63516 0.49165 0.0
Co103 Co 0.50478 0.6696 0.51268 0.0
O104 O 0.50044 0.63612 0.51449 0.0
C105 C 0.48211 0.68417 0.43989 0.0
C106 C 0.38789 0.68517 0.47632 0.0
C107 C 0.47662 0.62523 0.50188 0.0
O108 O 0.45441 0.6767 0.44843 0.0
O109 O 0.50533 0.68451 0.4627 0.0
O110 O 0.41748 0.66052 0.54484 0.0
O111 O 0.46262 0.67682 0.53042 0.0
C112 C 0.95484 0.92002 0.99081 0.0
C113 C 0.98099 0.90522 -0.00845 0.0
C114 C 0.95942 0.94362 -0.00729 0.0
C115 C 0.02221 0.98732 0.97787 0.0
H116 H 0.96353 0.0269 0.02902 0.0
C117 C 0.04515 0.08405 -0.003 0.0
C118 C 0.01899 0.0982 0.98962 0.0
C119 C 0.04125 0.0604 -0.00079 0.0
C120 C 0.98008 0.01606 0.01448 0.0
H121 H 0.03231 0.9036 -0.0031 0.0
H122 H 0.04008 0.94424 0.00122 0.0
H123 H 0.95445 0.98598 0.02925 0.0
H124 H 0.96813 0.09834 0.97901 0.0
H125 H 0.96161 0.05758 0.98282 0.0
H126 H 0.04785 0.01745 0.96322 0.0
C127 C 0.01613 0.93789 -0.00216 0.0
C128 C 0.97478 0.9926 0.01447 0.0
C129 C 0.0116 0.91448 -0.00443 0.0
C130 C 0.98894 0.08812 0.98475 0.0
C131 C 0.98505 0.06466 0.98722 0.0
C132 C 0.0276 0.01076 0.97809 0.0
C133 C 0.99023 0.95285 -0.00424 0.0
C134 C 0.99571 0.9779 -0.00396 0.0
C135 C 0.01108 0.05048 -0.00554 0.0
C136 C 0.00649 0.02543 -0.00383 0.0
H137 H 0.93098 0.91343 0.98766 0.0
H138 H 0.93889 0.95462 0.99078 0.0
H139 H 0.03855 0.97664 0.96277 0.0
H140 H 0.0686 0.0912 0.0009 0.0
H141 H 0.06176 0.04989 0.00499 0.0
C142 C 0.988 0.91635 0.47931 0.0
C143 C 0.01777 0.90682 0.48772 0.0
C144 C 0.98387 0.93982 0.47804 0.0
C145 C 0.02666 0.99492 0.47368 0.0
H146 H 0.94818 0.01788 0.51545 0.0
C147 C 0.00869 0.08924 0.50952 0.0
C148 C 0.97948 0.09956 0.50055 0.0
C149 C 0.0129 0.06586 0.50601 0.0
C150 C 0.97002 0.01175 0.50325 0.0
H151 H 0.06686 0.91454 0.50023 0.0
H152 H 0.05956 0.95586 0.49886 0.0
H153 H 0.9575 0.97711 0.51307 0.0
H154 H 0.93164 0.09301 0.48114 0.0
H155 H 0.93901 0.05186 0.47522 0.0
H156 H 0.03937 0.02972 0.46466 0.0
C157 C 0.03945 0.94505 0.49272 0.0
C158 C 0.97542 0.98833 0.50183 0.0
C159 C 0.04368 0.92139 0.49358 0.0
C160 C 0.95442 0.08569 0.48831 0.0
C161 C 0.95862 0.06212 0.48501 0.0
C162 C 0.02133 0.01837 0.47531 0.0
C163 C 0.00929 0.95454 0.4856 0.0
C164 C 0.00381 0.97958 0.48702 0.0
C165 C 0.98803 0.052 0.49359 0.0
C166 C 0.99298 0.02705 0.49023 0.0
H167 H 0.96762 0.90561 0.47399 0.0
H168 H 0.96056 0.94642 0.47137 0.0
H169 H 0.04856 0.98885 0.46159 0.0
H170 H 0.02862 0.09923 0.51918 0.0
H171 H 0.03564 0.0586 0.51349 0.0
C172 C 0.48812 0.58794 0.00738 0.0
C173 C 0.51773 0.59745 -0.00174 0.0
C174 C 0.48396 0.56447 0.00874 0.0
C175 C 0.5268 0.50934 0.01181 0.0
H176 H 0.44754 0.48639 0.97185 0.0
C177 C 0.50895 0.41535 0.97442 0.0
C178 C 0.48012 0.40471 0.98402 0.0
C179 C 0.5129 0.43872 0.97835 0.0
C180 C 0.46959 0.49252 0.98355 0.0
H181 H 0.56654 0.58969 0.98454 0.0
H182 H 0.55917 0.54839 0.98604 0.0
H183 H 0.45674 0.52718 0.97449 0.0
H184 H 0.43265 0.41072 0.00493 0.0
H185 H 0.43957 0.45188 0.01156 0.0
H186 H 0.53985 0.47454 0.02001 0.0
C187 C 0.53921 0.5592 -0.00731 0.0
C188 C 0.47494 0.51595 0.98512 0.0
C189 C 0.54348 0.58286 -0.00825 0.0
C190 C 0.45514 0.41828 -0.00274 0.0
C191 C 0.45908 0.44186 0.00098 0.0
C192 C 0.52153 0.4859 0.01002 0.0
C193 C 0.50918 0.54973 0.00055 0.0
C194 C 0.50364 0.5247 -0.00078 0.0
C195 C 0.48816 0.45228 -0.00816 0.0
C196 C 0.49292 0.47721 -0.00431 0.0
H197 H 0.46788 0.5987 0.0132 0.0
H198 H 0.46077 0.5579 0.01597 0.0
H199 H 0.54894 0.5154 0.02337 0.0
H200 H 0.5288 0.40562 0.96395 0.0
H201 H 0.53536 0.44622 0.97038 0.0
C202 C 0.54446 0.42212 0.49007 0.0
C203 C 0.51854 0.40754 0.48424 0.0
C204 C 0.54025 0.44578 0.48905 0.0
C205 C 0.47627 0.48903 0.49818 0.0
H206 H 0.54005 0.53045 0.4607 0.0
C207 C 0.45503 0.58634 0.48585 0.0
C208 C 0.48014 0.60019 0.49805 0.0
C209 C 0.45931 0.56282 0.48206 0.0
C210 C 0.52206 0.51909 0.47144 0.0
H211 H 0.46842 0.40634 0.47035 0.0
H212 H 0.4614 0.44714 0.46751 0.0
H213 H 0.54926 0.48957 0.45756 0.0
H214 H 0.52949 0.59987 0.51586 0.0
H215 H 0.53665 0.5593 0.50937 0.0
H216 H 0.4491 0.51855 0.51203 0.0
C217 C 0.4847 0.44054 0.47426 0.0
C218 C 0.5274 0.49565 0.46976 0.0
C219 C 0.48881 0.41707 0.47567 0.0
C220 C 0.50951 0.5899 0.50632 0.0
C221 C 0.5138 0.56656 0.50232 0.0
C222 C 0.47087 0.51244 0.49967 0.0
C223 C 0.5101 0.45526 0.48181 0.0
C224 C 0.50461 0.48029 0.48321 0.0
C225 C 0.48884 0.5527 0.49009 0.0
C226 C 0.49378 0.52776 0.48655 0.0
H227 H 0.56762 0.41528 0.49683 0.0
H228 H 0.56035 0.4566 0.49517 0.0
H229 H 0.45841 0.47779 0.5095 0.0
H230 H 0.43213 0.59365 0.4792 0.0
H231 H 0.43964 0.55258 0.47241 0.0
C232 C 0.04431 0.19259 0.11149 0.0
C233 C 0.0169 0.18866 0.09023 0.0
C234 C 0.04194 0.19732 0.14906 0.0
C235 C 0.98557 0.21303 0.22355 0.0
H236 H 0.04385 0.17859 0.28482 0.0
C237 C 0.96129 0.19064 0.37556 0.0
C238 C 0.98695 0.1898 0.40042 0.0
C239 C 0.96637 0.19516 0.33823 0.0
C240 C 0.02778 0.18869 0.26819 0.0
H241 H 0.96544 0.1876 0.09151 0.0
H242 H 0.96133 0.19538 0.15738 0.0
H243 H 0.04993 0.17801 0.21823 0.0
H244 H 0.03792 0.19419 0.4057 0.0
H245 H 0.04671 0.20214 0.34042 0.0
H246 H 0.96282 0.22305 0.27379 0.0
C247 C 0.98465 0.19512 0.14484 0.0
C248 C 0.03125 0.18837 0.22994 0.0
C249 C 0.987 0.19054 0.1071 0.0
C250 C 0.01765 0.19455 0.38731 0.0
C251 C 0.02272 0.19902 0.34989 0.0
C252 C 0.98205 0.21331 0.2619 0.0
C253 C 0.01215 0.19808 0.16639 0.0
C254 C 0.00991 0.20024 0.20712 0.0
C255 C 0.9972 0.19892 0.32485 0.0
C256 C 0.00283 0.20084 0.28457 0.0
H257 H 0.06772 0.19163 0.09924 0.0
H258 H 0.06355 0.19998 0.1647 0.0
H259 H 0.96904 0.22263 0.20676 0.0
H260 H 0.93728 0.18723 0.38468 0.0
H261 H 0.94624 0.19474 0.31962 0.0
C262 C 0.04133 0.80973 0.37408 0.0
C263 C 0.0139 0.81451 0.39473 0.0
C264 C 0.03915 0.80457 0.33661 0.0
C265 C 0.98287 0.78953 0.26138 0.0
H266 H 0.04306 0.8225 0.20063 0.0
C267 C 0.96032 0.81243 0.10917 0.0
C268 C 0.98613 0.81313 0.08458 0.0
C269 C 0.96505 0.80756 0.14646 0.0
C270 C 0.02645 0.81278 0.2171 0.0
H271 H 0.96253 0.81657 0.39258 0.0
H272 H 0.95874 0.80805 0.3269 0.0
H273 H 0.04867 0.82313 0.26726 0.0
H274 H 0.03698 0.80796 0.07971 0.0
H275 H 0.04516 0.79934 0.1449 0.0
H276 H 0.96005 0.77987 0.21093 0.0
C277 C 0.98194 0.80797 0.33982 0.0
C278 C 0.02965 0.81314 0.25539 0.0
C279 C 0.9841 0.81298 0.37745 0.0
C280 C 0.01659 0.80775 0.09789 0.0
C281 C 0.02132 0.80291 0.13528 0.0
C282 C 0.97963 0.78921 0.22298 0.0
C283 C 0.00951 0.80424 0.3188 0.0
C284 C 0.00761 0.80185 0.27805 0.0
C285 C 0.99569 0.80326 0.16011 0.0
C286 C 0.00107 0.80118 0.20046 0.0
H287 H 0.06466 0.81038 0.38667 0.0
H288 H 0.06079 0.8013 0.32142 0.0
H289 H 0.96578 0.78037 0.27803 0.0
H290 H 0.93647 0.81632 0.09989 0.0
H291 H 0.94484 0.8082 0.16487 0.0
C292 C 0.05747 0.84516 0.61855 0.0
C293 C 0.03588 0.84137 0.5897 0.0
C294 C 0.04704 0.8461 0.65501 0.0
C295 C 0.97889 0.82993 0.71446 0.0
H296 H 0.02203 0.86849 0.78526 0.0
C297 C 0.93423 0.84448 0.86309 0.0
C298 C 0.9567 0.84031 0.89097 0.0
C299 C 0.94352 0.84549 0.8262 0.0
C300 C 0.00991 0.85759 0.76574 0.0
H301 H 0.98634 0.83622 0.57605 0.0
H302 H 0.96775 0.83877 0.6397 0.0
H303 H 0.03777 0.86958 0.72055 0.0
H304 H 0.00655 0.83446 0.90238 0.0
H305 H 0.02298 0.83679 0.83758 0.0
H306 H 0.95044 0.81851 0.75983 0.0
C307 C 0.99294 0.8403 0.63437 0.0
C308 C 0.01896 0.8581 0.72869 0.0
C309 C 0.00351 0.83898 0.59786 0.0
C310 C 0.98876 0.83761 0.88138 0.0
C311 C 0.99816 0.83904 0.84445 0.0
C312 C 0.96949 0.82974 0.75139 0.0
C313 C 0.01463 0.84366 0.66349 0.0
C314 C 0.00382 0.84407 0.70259 0.0
C315 C 0.97553 0.84276 0.81656 0.0
C316 C 0.98512 0.8434 0.77737 0.0
H317 H 0.08263 0.84691 0.61309 0.0
H318 H 0.06458 0.84823 0.67657 0.0
H319 H 0.96703 0.81858 0.69544 0.0
H320 H 0.90934 0.84661 0.8697 0.0
H321 H 0.92571 0.84853 0.80517 0.0
C322 C 0.06003 0.16214 0.86538 0.0
C323 C 0.03875 0.16573 0.89454 0.0
C324 C 0.04922 0.16166 0.82902 0.0
C325 C 0.98063 0.17843 0.77056 0.0
H326 H 0.02198 0.13926 0.69934 0.0
C327 C 0.93378 0.16343 0.62263 0.0
C328 C 0.95608 0.16703 0.59444 0.0
C329 C 0.9434 0.16277 0.65946 0.0
C330 C 0.01037 0.15033 0.71898 0.0
H331 H 0.98942 0.17116 0.90884 0.0
H332 H 0.97019 0.16942 0.84535 0.0
H333 H 0.03871 0.13823 0.76374 0.0
H334 H 0.00593 0.17235 0.5824 0.0
H335 H 0.02291 0.17063 0.64702 0.0
H336 H 0.9517 0.18996 0.7256 0.0
C337 C 0.99541 0.16766 0.85037 0.0
C338 C 0.01999 0.14986 0.75583 0.0
C339 C 0.00635 0.16852 0.88678 0.0
C340 C 0.98826 0.16962 0.60363 0.0
C341 C 0.99797 0.16854 0.64048 0.0
C342 C 0.97067 0.1786 0.7338 0.0
C343 C 0.01676 0.16436 0.82098 0.0
C344 C 0.00548 0.16409 0.78206 0.0
C345 C 0.97557 0.16529 0.66867 0.0
C346 C 0.98566 0.16471 0.70768 0.0
H347 H 0.0852 0.16012 0.87056 0.0
H348 H 0.06651 0.15958 0.8072 0.0
H349 H 0.96926 0.18992 0.78972 0.0
H350 H 0.9088 0.16142 0.61629 0.0
H351 H 0.92576 0.1601 0.68076 0.0
C352 C 0.48564 0.6918 0.10861 0.0
C353 C 0.51529 0.68969 0.09124 0.0
C354 C 0.48382 0.69682 0.14625 0.0
C355 C 0.53143 0.69061 0.23065 0.0
H356 H 0.46343 0.72549 0.27497 0.0
C357 C 0.51822 0.69619 0.38822 0.0
C358 C 0.48746 0.69155 0.40127 0.0
C359 C 0.52333 0.70089 0.35086 0.0
C360 C 0.48256 0.7157 0.26296 0.0
H361 H 0.56623 0.69273 0.09922 0.0
H362 H 0.56298 0.70178 0.16453 0.0
H363 H 0.46913 0.72489 0.20789 0.0
H364 H 0.43775 0.68949 0.38551 0.0
H365 H 0.44678 0.69737 0.32061 0.0
H366 H 0.54438 0.6809 0.28545 0.0
C367 C 0.54116 0.69899 0.14935 0.0
C368 C 0.48579 0.71533 0.22457 0.0
C369 C 0.54299 0.69386 0.11186 0.0
C370 C 0.46182 0.69279 0.37644 0.0
C371 C 0.46693 0.69753 0.3392 0.0
C372 C 0.52824 0.69102 0.26894 0.0
C373 C 0.51161 0.69995 0.16722 0.0
C374 C 0.50991 0.70242 0.20796 0.0
C375 C 0.4978 0.70114 0.32582 0.0
C376 C 0.5034 0.70319 0.28552 0.0
H377 H 0.46386 0.6887 0.09353 0.0
H378 H 0.46067 0.69723 0.15921 0.0
H379 H 0.54998 0.68019 0.2188 0.0
H380 H 0.53849 0.69552 0.4066 0.0
H381 H 0.54737 0.70389 0.34143 0.0
C382 C 0.4864 0.31268 0.37461 0.0
C383 C 0.51598 0.31461 0.3923 0.0
C384 C 0.48477 0.30752 0.33701 0.0
C385 C 0.53309 0.31337 0.25337 0.0
H386 H 0.46499 0.27901 0.208 0.0
C387 C 0.52048 0.30876 0.09562 0.0
C388 C 0.48979 0.31351 0.08243 0.0
C389 C 0.52545 0.30382 0.13294 0.0
C390 C 0.48415 0.28865 0.2203 0.0
H391 H 0.56691 0.31098 0.38504 0.0
H392 H 0.56396 0.30168 0.31981 0.0
H393 H 0.47024 0.27939 0.27515 0.0
H394 H 0.44003 0.31556 0.09788 0.0
H395 H 0.4488 0.30734 0.16269 0.0
H396 H 0.54648 0.32322 0.19882 0.0
C397 C 0.54208 0.30474 0.33468 0.0
C398 C 0.48712 0.28889 0.25872 0.0
C399 C 0.54374 0.31002 0.37212 0.0
C400 C 0.46405 0.31218 0.10706 0.0
C401 C 0.46902 0.30723 0.14426 0.0
C402 C 0.53014 0.31311 0.21504 0.0
C403 C 0.51266 0.30404 0.31644 0.0
C404 C 0.51127 0.30162 0.2757 0.0
C405 C 0.49983 0.30346 0.15779 0.0
C406 C 0.50525 0.30115 0.19809 0.0
H407 H 0.46459 0.3161 0.38938 0.0
H408 H 0.46173 0.3073 0.32373 0.0
H409 H 0.55167 0.32365 0.26551 0.0
H410 H 0.54081 0.30947 0.07739 0.0
H411 H 0.54944 0.30071 0.14249 0.0
C412 C 0.43499 0.34129 0.86097 0.0
C413 C 0.4576 0.33789 0.8889 0.0
C414 C 0.44423 0.34224 0.82404 0.0
C415 C 0.51129 0.32714 0.76224 0.0
H416 H 0.46688 0.36627 0.6931 0.0
C417 C 0.55743 0.34605 0.61624 0.0
C418 C 0.53594 0.3419 0.58737 0.0
C419 C 0.54712 0.34615 0.65275 0.0
C420 C 0.4793 0.35518 0.71215 0.0
H421 H 0.50767 0.33344 0.90043 0.0
H422 H 0.52413 0.33604 0.8361 0.0
H423 H 0.45122 0.36596 0.75794 0.0
H424 H 0.48666 0.33534 0.57382 0.0
H425 H 0.46839 0.33604 0.63812 0.0
H426 H 0.54002 0.31701 0.71643 0.0
C427 C 0.49908 0.33721 0.84245 0.0
C428 C 0.47031 0.35489 0.74925 0.0
C429 C 0.48973 0.33587 0.87937 0.0
C430 C 0.50371 0.33848 0.59561 0.0
C431 C 0.49327 0.33897 0.63224 0.0
C432 C 0.52059 0.32773 0.72532 0.0
C433 C 0.4764 0.3402 0.81424 0.0
C434 C 0.48617 0.34082 0.77479 0.0
C435 C 0.51503 0.34247 0.6611 0.0
C436 C 0.50466 0.34173 0.69999 0.0
H437 H 0.40999 0.34277 0.86756 0.0
H438 H 0.426 0.34414 0.80318 0.0
H439 H 0.52361 0.3157 0.78078 0.0
H440 H 0.58242 0.34875 0.61072 0.0
H441 H 0.56426 0.34908 0.67455 0.0
C442 C 0.55589 0.65911 0.86673 0.0
C443 C 0.53465 0.66305 0.89581 0.0
C444 C 0.54511 0.65834 0.83038 0.0
C445 C 0.47691 0.67535 0.77154 0.0
H446 H 0.51897 0.6366 0.70026 0.0
C447 C 0.4323 0.66207 0.62218 0.0
C448 C 0.45506 0.666 0.59459 0.0
C449 C 0.44132 0.66089 0.65919 0.0
C450 C 0.50715 0.64755 0.71992 0.0
H451 H 0.48535 0.66866 0.90997 0.0
H452 H 0.46612 0.66643 0.84646 0.0
H453 H 0.5348 0.635 0.76494 0.0
H454 H 0.50511 0.67134 0.58381 0.0
H455 H 0.52104 0.66869 0.64876 0.0
H456 H 0.44868 0.68734 0.72628 0.0
C457 C 0.49132 0.66463 0.85155 0.0
C458 C 0.51625 0.64675 0.75695 0.0
C459 C 0.50225 0.66577 0.88798 0.0
C460 C 0.4871 0.66837 0.60458 0.0
C461 C 0.49621 0.66676 0.6416 0.0
C462 C 0.46745 0.67584 0.7346 0.0
C463 C 0.51268 0.66109 0.82223 0.0
C464 C 0.50156 0.66088 0.78321 0.0
C465 C 0.47333 0.66319 0.6692 0.0
C466 C 0.48274 0.66214 0.70844 0.0
H467 H 0.58107 0.65711 0.87193 0.0
H468 H 0.56243 0.65608 0.80865 0.0
H469 H 0.46539 0.68676 0.7907 0.0
H470 H 0.40741 0.66021 0.61524 0.0
H471 H 0.42331 0.65799 0.67999 0.0
C472 C 0.36663 0.28113 0.02447 0.0
C473 C 0.36324 0.30466 0.01963 0.0
C474 C 0.34032 0.26749 0.03171 0.0
C475 C 0.25452 0.26816 0.05671 0.0
H476 H 0.25379 0.2119 0.00118 0.0
C477 C 0.14052 0.21948 0.0192 0.0
C478 C 0.14086 0.1956 0.01936 0.0
C479 C 0.16809 0.23181 0.02642 0.0
C480 C 0.25381 0.22731 0.01744 0.0
H481 H 0.32992 0.33262 0.02024 0.0
H482 H 0.28335 0.30864 0.03178 0.0
H483 H 0.30072 0.23583 0.00018 0.0
H484 H 0.17016 0.16589 0.02845 0.0
H485 H 0.21886 0.18757 0.04067 0.0
H486 H 0.20688 0.25987 0.07264 0.0
C487 C 0.30654 0.30074 0.03063 0.0
C488 C 0.28077 0.2411 0.01691 0.0
C489 C 0.33314 0.31451 0.02391 0.0
C490 C 0.16923 0.18427 0.02807 0.0
C491 C 0.19706 0.19667 0.03491 0.0
C492 C 0.2274 0.2544 0.05703 0.0
C493 C 0.30975 0.27696 0.03365 0.0
C494 C 0.28143 0.26183 0.03624 0.0
C495 C 0.19682 0.22059 0.03367 0.0
C496 C 0.22663 0.23395 0.037 0.0
H497 H 0.38968 0.27311 0.02195 0.0
H498 H 0.34391 0.24939 0.03499 0.0
H499 H 0.25431 0.28381 0.07236 0.0
H500 H 0.11897 0.22874 0.01284 0.0
H501 H 0.16713 0.25016 0.02483 0.0
C502 C 0.6335 0.72152 0.02045 0.0
C503 C 0.63655 0.69784 0.01754 0.0
C504 C 0.65999 0.73517 0.02666 0.0
C505 C 0.74547 0.73443 0.0533 0.0
H506 H 0.74706 0.79039 -0.00335 0.0
C507 C 0.85974 0.78363 0.01784 0.0
C508 C 0.85911 0.8075 0.01808 0.0
C509 C 0.83224 0.7711 0.02452 0.0
C510 C 0.74679 0.77505 0.01318 0.0
H511 H 0.66958 0.66974 0.02017 0.0
H512 H 0.71646 0.69372 0.02983 0.0
H513 H 0.70025 0.76634 -0.00523 0.0
H514 H 0.82938 0.837 0.0268 0.0
H515 H 0.78078 0.81497 0.03799 0.0
H516 H 0.79279 0.7429 0.07035 0.0
C517 C 0.69338 0.70173 0.028 0.0
C518 C 0.7199 0.76119 0.01215 0.0
C519 C 0.6666 0.68796 0.02232 0.0
C520 C 0.83053 0.81863 0.02643 0.0
C521 C 0.80277 0.80603 0.03265 0.0
C522 C 0.77254 0.74824 0.05405 0.0
C523 C 0.69044 0.72558 0.02948 0.0
C524 C 0.7189 0.7406 0.03199 0.0
C525 C 0.80329 0.78213 0.03123 0.0
C526 C 0.77357 0.7686 0.03372 0.0
H527 H 0.61053 0.72961 0.01754 0.0
H528 H 0.65656 0.75335 0.02876 0.0
H529 H 0.74542 0.71891 0.06937 0.0
H530 H 0.88147 0.77455 0.01174 0.0
H531 H 0.83341 0.75276 0.02287 0.0
C532 C 0.13304 0.78271 0.46352 0.0
C533 C 0.13612 0.80639 0.46631 0.0
C534 C 0.15944 0.76908 0.45682 0.0
C535 C 0.24455 0.76986 0.42876 0.0
H536 H 0.24714 0.71418 0.48611 0.0
C537 C 0.35948 0.72147 0.46431 0.0
C538 C 0.35904 0.6976 0.46479 0.0
C539 C 0.33185 0.73379 0.45727 0.0
C540 C 0.24658 0.72943 0.46936 0.0
H541 H 0.16906 0.83452 0.46291 0.0
H542 H 0.2158 0.81057 0.45242 0.0
H543 H 0.2002 0.73806 0.48827 0.0
H544 H 0.32958 0.66787 0.45685 0.0
H545 H 0.28077 0.68953 0.44503 0.0
H546 H 0.29173 0.76147 0.41123 0.0
C547 C 0.19276 0.80255 0.45471 0.0
C548 C 0.21961 0.7432 0.47056 0.0
C549 C 0.16606 0.8163 0.46088 0.0
C550 C 0.33058 0.68625 0.45667 0.0
C551 C 0.30269 0.69864 0.45009 0.0
C552 C 0.27169 0.75614 0.42783 0.0
C553 C 0.18982 0.77869 0.45338 0.0
C554 C 0.21827 0.7637 0.45051 0.0
C555 C 0.30298 0.72255 0.45093 0.0
C556 C 0.2731 0.73588 0.44843 0.0
H557 H 0.11013 0.77461 0.46691 0.0
H558 H 0.15601 0.75089 0.45487 0.0
H559 H 0.24422 0.78531 0.41252 0.0
H560 H 0.38113 0.73071 0.47021 0.0
H561 H 0.33285 0.75215 0.45846 0.0
C562 C 0.63373 0.28315 0.4634 0.0
C563 C 0.63693 0.30686 0.46552 0.0
C564 C 0.66003 0.26938 0.45702 0.0
C565 C 0.74486 0.26952 0.4282 0.0
H566 H 0.74753 0.21455 0.48734 0.0
C567 C 0.85969 0.22091 0.46331 0.0
C568 C 0.85898 0.19706 0.46479 0.0
C569 C 0.83212 0.2333 0.4563 0.0
C570 C 0.74693 0.22959 0.47009 0.0
H571 H 0.67001 0.33486 0.46124 0.0
H572 H 0.7166 0.31066 0.45122 0.0
H573 H 0.70085 0.23871 0.48937 0.0
H574 H 0.82907 0.1674 0.45863 0.0
H575 H 0.78036 0.18918 0.44681 0.0
H576 H 0.79174 0.26065 0.41021 0.0
C577 C 0.69352 0.30273 0.45385 0.0
C578 C 0.72013 0.24352 0.47123 0.0
C579 C 0.66691 0.31662 0.45975 0.0
C580 C 0.83027 0.18577 0.45766 0.0
C581 C 0.80244 0.19823 0.45109 0.0
C582 C 0.77184 0.25564 0.4273 0.0
C583 C 0.69045 0.27887 0.45318 0.0
C584 C 0.71877 0.26376 0.45052 0.0
C585 C 0.80303 0.22215 0.45097 0.0
C586 C 0.77327 0.23563 0.44853 0.0
H587 H 0.61079 0.27514 0.46706 0.0
H588 H 0.65651 0.25119 0.45559 0.0
H589 H 0.74449 0.28477 0.41147 0.0
H590 H 0.88153 0.23011 0.46844 0.0
H591 H 0.83335 0.25167 0.45675 0.0
loop_
_geom_bond_atom_site_label_1
_geom_bond_atom_site_label_2
_geom_bond_distance
_geom_bond_site_symmetry_2
_ccdc_geom_bond_type
Co0 O1 2.216 . S
Co0 O2 2.091 1_556 S
Co0 O4 2.004 . S
Co0 O10 2.021 1_556 S
Co0 O12 2.137 . S
Co0 O13 2.244 . S
O1 Co0 2.216 . S
O1 C8 1.244 1_556 S
O2 Co0 2.091 1_554 S
O2 C8 1.262 . S
C3 O12 1.247 . S
C3 O13 1.272 . S
O4 Co0 2.004 . S
O4 C9 1.264 . S
Co5 O6 2.061 1_655 S
Co5 O11 2.052 . S
Co5 O13 2.135 1_654 S
O6 Co5 2.061 1_455 S
O6 C9 1.232 1_554 S
C7 O10 1.238 . S
C7 O11 1.241 1_455 S
C8 O1 1.244 1_554 S
C8 O2 1.262 . S
C9 O4 1.264 . S
C9 O6 1.232 1_556 S
O10 Co0 2.021 1_554 S
O10 C7 1.238 . S
O11 Co5 2.052 . S
O11 C7 1.241 1_655 S
O12 Co0 2.137 . S
O12 C3 1.247 . S
O13 Co0 2.244 . S
O13 C3 1.272 . S
O13 Co5 2.135 1_456 S
Co14 O15 2.216 . S
Co14 O16 2.091 1_556 S
Co14 O18 2.004 . S
Co14 O24 2.021 1_556 S
Co14 O26 2.137 . S
Co14 O27 2.244 . S
O15 Co14 2.216 . S
O15 C22 1.244 1_556 S
O16 Co14 2.091 1_554 S
O16 C22 1.262 . S
C17 O26 1.247 . S
C17 O27 1.272 . S
O18 Co14 2.004 . S
O18 C23 1.264 . S
Co19 O20 2.061 1_455 S
Co19 O25 2.052 . S
Co19 O27 2.135 1_454 S
O20 Co19 2.061 1_655 S
O20 C23 1.232 1_554 S
C21 O24 1.238 . S
C21 O25 1.241 1_655 S
C22 O15 1.244 1_554 S
C22 O16 1.262 . S
C23 O18 1.264 . S
C23 O20 1.232 1_556 S
O24 Co14 2.021 1_554 S
O24 C21 1.238 . S
O25 Co19 2.052 . S
O25 C21 1.241 1_455 S
O26 Co14 2.137 . S
O26 C17 1.247 . S
O27 Co14 2.244 . S
O27 C17 1.272 . S
O27 Co19 2.135 1_656 S
Co28 O29 2.216 . S
Co28 O30 2.091 . S
Co28 O32 2.004 . S
Co28 O38 2.021 . S
Co28 O40 2.137 . S
Co28 O41 2.244 . S
O29 Co28 2.216 . S
O29 C36 1.247 . S
O30 Co28 2.091 . S
O30 C36 1.261 . S
C31 O40 1.247 . S
C31 O41 1.272 . S
O32 Co28 2.004 . S
O32 C37 1.259 . S
Co33 O34 2.061 1_655 S
Co33 O39 2.052 . S
Co33 O41 2.135 1_655 S
O34 Co33 2.061 1_455 S
O34 C37 1.235 . S
C35 O38 1.238 . S
C35 O39 1.241 1_455 S
C36 O29 1.247 . S
C36 O30 1.261 . S
C37 O32 1.259 . S
C37 O34 1.235 . S
O38 Co28 2.021 . S
O38 C35 1.238 . S
O39 Co33 2.052 . S
O39 C35 1.241 1_655 S
O40 Co28 2.137 . S
O40 C31 1.247 . S
O41 Co28 2.244 . S
O41 C31 1.272 . S
O41 Co33 2.135 1_455 S
Co42 O43 2.216 . S
Co42 O44 2.091 . S
Co42 O46 2.004 . S
Co42 O52 2.021 . S
Co42 O54 2.137 . S
Co42 O55 2.244 . S
O43 Co42 2.216 . S
O43 C50 1.247 . S
O44 Co42 2.091 . S
O44 C50 1.261 . S
C45 O54 1.247 . S
C45 O55 1.272 . S
O46 Co42 2.004 . S
O46 C51 1.259 . S
Co47 O48 2.061 1_455 S
Co47 O53 2.052 . S
Co47 O55 2.135 1_455 S
O48 Co47 2.061 1_655 S
O48 C51 1.235 . S
C49 O52 1.238 . S
C49 O53 1.241 1_655 S
C50 O43 1.247 . S
C50 O44 1.261 . S
C51 O46 1.259 . S
C51 O48 1.235 . S
O52 Co42 2.021 . S
O52 C49 1.238 . S
O53 Co47 2.052 . S
O53 C49 1.241 1_455 S
O54 Co42 2.137 . S
O54 C45 1.247 . S
O55 Co42 2.244 . S
O55 C45 1.272 . S
O55 Co47 2.135 1_655 S
Co56 O57 2.216 . S
Co56 O58 2.091 1_556 S
Co56 O60 2.004 . S
Co56 O66 2.021 1_556 S
Co56 O68 2.137 . S
Co56 O69 2.244 . S
O57 Co56 2.216 . S
O57 C64 1.244 1_556 S
O58 Co56 2.091 1_554 S
O58 C64 1.262 . S
C59 O68 1.247 . S
C59 O69 1.272 . S
O60 Co56 2.004 . S
O60 C65 1.264 . S
Co61 O62 2.061 . S
Co61 O67 2.052 . S
Co61 O69 2.135 1_554 S
O62 Co61 2.061 . S
O62 C65 1.232 1_554 S
C63 O66 1.238 . S
C63 O67 1.241 . S
C64 O57 1.244 1_554 S
C64 O58 1.262 . S
C65 O60 1.264 . S
C65 O62 1.232 1_556 S
O66 Co56 2.021 1_554 S
O66 C63 1.238 . S
O67 Co61 2.052 . S
O67 C63 1.241 . S
O68 Co56 2.137 . S
O68 C59 1.247 . S
O69 Co56 2.244 . S
O69 C59 1.272 . S
O69 Co61 2.135 1_556 S
Co70 O71 2.216 . S
Co70 O72 2.091 1_556 S
Co70 O74 2.004 . S
Co70 O80 2.021 1_556 S
Co70 O82 2.137 . S
Co70 O83 2.244 . S
O71 Co70 2.216 . S
O71 C78 1.244 1_556 S
O72 Co70 2.091 1_554 S
O72 C78 1.262 . S
C73 O82 1.247 . S
C73 O83 1.272 . S
O74 Co70 2.004 . S
O74 C79 1.264 . S
Co75 O76 2.061 . S
Co75 O81 2.052 . S
Co75 O83 2.135 1_554 S
O76 Co75 2.061 . S
O76 C79 1.232 1_554 S
C77 O80 1.238 . S
C77 O81 1.241 . S
C78 O71 1.244 1_554 S
C78 O72 1.262 . S
C79 O74 1.264 . S
C79 O76 1.232 1_556 S
O80 Co70 2.021 1_554 S
O80 C77 1.238 . S
O81 Co75 2.052 . S
O81 C77 1.241 . S
O82 Co70 2.137 . S
O82 C73 1.247 . S
O83 Co70 2.244 . S
O83 C73 1.272 . S
O83 Co75 2.135 1_556 S
Co84 O85 2.216 . S
Co84 O86 2.091 . S
Co84 O88 2.004 . S
Co84 O94 2.021 . S
Co84 O96 2.137 . S
Co84 O97 2.244 . S
O85 Co84 2.216 . S
O85 C92 1.247 . S
O86 Co84 2.091 . S
O86 C92 1.261 . S
C87 O96 1.247 . S
C87 O97 1.272 . S
O88 Co84 2.004 . S
O88 C93 1.259 . S
Co89 O90 2.061 . S
Co89 O95 2.052 . S
Co89 O97 2.135 . S
O90 Co89 2.061 . S
O90 C93 1.235 . S
C91 O94 1.238 . S
C91 O95 1.241 . S
C92 O85 1.247 . S
C92 O86 1.261 . S
C93 O88 1.259 . S
C93 O90 1.235 . S
O94 Co84 2.021 . S
O94 C91 1.238 . S
O95 Co89 2.052 . S
O95 C91 1.241 . S
O96 Co84 2.137 . S
O96 C87 1.247 . S
O97 Co84 2.244 . S
O97 C87 1.272 . S
O97 Co89 2.135 . S
Co98 O99 2.216 . S
Co98 O100 2.091 . S
Co98 O102 2.004 . S
Co98 O108 2.021 . S
Co98 O110 2.137 . S
Co98 O111 2.244 . S
O99 Co98 2.216 . S
O99 C106 1.247 . S
O100 Co98 2.091 . S
O100 C106 1.261 . S
C101 O110 1.247 . S
C101 O111 1.272 . S
O102 Co98 2.004 . S
O102 C107 1.259 . S
Co103 O104 2.061 . S
Co103 O109 2.052 . S
Co103 O111 2.135 . S
O104 Co103 2.061 . S
O104 C107 1.235 . S
C105 O108 1.238 . S
C105 O109 1.241 . S
C106 O99 1.247 . S
C106 O100 1.261 . S
C107 O102 1.259 . S
C107 O104 1.235 . S
O108 Co98 2.021 . S
O108 C105 1.238 . S
O109 Co103 2.052 . S
O109 C105 1.241 . S
O110 Co98 2.137 . S
O110 C101 1.247 . S
O111 Co98 2.244 . S
O111 C101 1.272 . S
O111 Co103 2.135 . S
C112 C113 1.348 . S
C112 C114 1.327 . S
C112 H137 0.950 . S
C113 C112 1.348 . S
C113 C129 1.350 1_556 S
C114 C112 1.327 . S
C114 C133 1.428 . S
C114 H138 0.950 . S
C115 C132 1.574 1_565 S
C115 C134 1.369 1_454 S
C115 H139 0.949 . S
H116 C120 0.949 . S
C117 C118 1.350 1_554 S
C117 C119 1.327 . S
C117 H140 0.950 . S
C118 C117 1.350 1_556 S
C118 C130 1.348 . S
C119 C117 1.327 . S
C119 C135 1.430 1_554 S
C119 H141 0.950 . S
C120 H116 0.949 . S
C120 C128 1.574 1_545 S
C120 C136 1.367 1_655 S
H121 C129 0.950 . S
H122 C127 0.950 1_455 S
H123 C128 0.949 . S
H124 C130 0.950 . S
H125 C131 0.950 1_655 S
H126 C132 0.949 . S
C127 H122 0.950 1_655 S
C127 C129 1.327 . S
C127 C133 1.430 1_554 S
C128 C120 1.574 1_565 S
C128 H123 0.949 . S
C128 C134 1.367 . S
C129 C113 1.350 1_554 S
C129 H121 0.950 . S
C129 C127 1.327 . S
C130 C118 1.348 . S
C130 H124 0.950 . S
C130 C131 1.327 . S
C131 H125 0.950 1_455 S
C131 C130 1.327 . S
C131 C135 1.428 . S
C132 C115 1.574 1_545 S
C132 H126 0.949 . S
C132 C136 1.369 1_554 S
C133 C114 1.428 . S
C133 C127 1.430 1_556 S
C133 C134 1.523 . S
C134 C115 1.369 1_656 S
C134 C128 1.367 . S
C134 C133 1.523 . S
C135 C119 1.430 1_556 S
C135 C131 1.428 . S
C135 C136 1.523 . S
C136 C120 1.367 1_455 S
C136 C132 1.369 1_556 S
C136 C135 1.523 . S
H137 C112 0.950 . S
H138 C114 0.950 . S
H139 C115 0.949 . S
H140 C117 0.950 . S
H141 C119 0.950 . S
C142 C143 1.349 . S
C142 C144 1.327 . S
C142 H167 0.950 . S
C143 C142 1.349 . S
C143 C159 1.349 . S
C144 C142 1.327 . S
C144 C163 1.429 . S
C144 H168 0.950 1_455 S
C145 C162 1.574 1_565 S
C145 C164 1.368 . S
C145 H169 0.949 . S
H146 C150 0.949 . S
C147 C148 1.349 . S
C147 C149 1.327 . S
C147 H170 0.950 . S
C148 C147 1.349 . S
C148 C160 1.349 . S
C149 C147 1.327 . S
C149 C165 1.429 . S
C149 H171 0.950 1_655 S
C150 H146 0.949 . S
C150 C158 1.574 1_545 S
C150 C166 1.368 . S
H151 C159 0.950 . S
H152 C157 0.950 . S
H153 C158 0.949 . S
H154 C160 0.950 . S
H155 C161 0.950 . S
H156 C162 0.949 . S
C157 H152 0.950 . S
C157 C159 1.327 . S
C157 C163 1.429 . S
C158 C150 1.574 1_565 S
C158 H153 0.949 . S
C158 C164 1.368 1_655 S
C159 C143 1.349 . S
C159 H151 0.950 . S
C159 C157 1.327 . S
C160 C148 1.349 . S
C160 H154 0.950 . S
C160 C161 1.327 . S
C161 H155 0.950 . S
C161 C160 1.327 . S
C161 C165 1.429 . S
C162 C145 1.574 1_545 S
C162 H156 0.949 . S
C162 C166 1.368 1_455 S
C163 C144 1.429 . S
C163 C157 1.429 . S
C163 C164 1.523 . S
C164 C145 1.368 . S
C164 C158 1.368 1_455 S
C164 C163 1.523 . S
C165 C149 1.429 . S
C165 C161 1.429 . S
C165 C166 1.523 . S
C166 C150 1.368 . S
C166 C162 1.368 1_655 S
C166 C165 1.523 . S
H167 C142 0.950 . S
H168 C144 0.950 1_655 S
H169 C145 0.949 . S
H170 C147 0.950 . S
H171 C149 0.950 1_455 S
C172 C173 1.350 1_554 S
C172 C174 1.327 . S
C172 H197 0.950 . S
C173 C172 1.350 1_556 S
C173 C189 1.348 . S
C174 C172 1.327 . S
C174 C193 1.429 1_554 S
C174 H198 0.950 . S
C175 C192 1.574 . S
C175 C194 1.367 . S
C175 H199 0.949 . S
H176 C180 0.949 . S
C177 C178 1.348 . S
C177 C179 1.327 . S
C177 H200 0.950 . S
C178 C177 1.348 . S
C178 C190 1.350 1_556 S
C179 C177 1.327 . S
C179 C195 1.428 . S
C179 H201 0.950 . S
C180 H176 0.949 . S
C180 C188 1.574 . S
C180 C196 1.369 1_554 S
H181 C189 0.950 . S
H182 C187 0.950 . S
H183 C188 0.949 . S
H184 C190 0.950 . S
H185 C191 0.950 . S
H186 C192 0.949 . S
C187 H182 0.950 . S
C187 C189 1.327 . S
C187 C193 1.428 . S
C188 C180 1.574 . S
C188 H183 0.949 . S
C188 C194 1.369 1_554 S
C189 C173 1.348 . S
C189 H181 0.950 . S
C189 C187 1.327 . S
C190 C178 1.350 1_554 S
C190 H184 0.950 . S
C190 C191 1.327 . S
C191 H185 0.950 . S
C191 C190 1.327 . S
C191 C195 1.429 1_554 S
C192 C175 1.574 . S
C192 H186 0.949 . S
C192 C196 1.367 . S
C193 C174 1.429 1_556 S
C193 C187 1.428 . S
C193 C194 1.523 . S
C194 C175 1.367 . S
C194 C188 1.369 1_556 S
C194 C193 1.523 . S
C195 C179 1.428 . S
C195 C191 1.429 1_556 S
C195 C196 1.523 . S
C196 C180 1.369 1_556 S
C196 C192 1.367 . S
C196 C195 1.523 . S
H197 C172 0.950 . S
H198 C174 0.950 . S
H199 C175 0.949 . S
H200 C177 0.950 . S
H201 C179 0.950 . S
C202 C203 1.349 . S
C202 C204 1.327 . S
C202 H227 0.950 . S
C203 C202 1.349 . S
C203 C219 1.349 . S
C204 C202 1.327 . S
C204 C223 1.429 . S
C204 H228 0.950 . S
C205 C222 1.574 . S
C205 C224 1.368 . S
C205 H229 0.949 . S
H206 C210 0.949 . S
C207 C208 1.349 . S
C207 C209 1.327 . S
C207 H230 0.950 . S
C208 C207 1.349 . S
C208 C220 1.349 . S
C209 C207 1.327 . S
C209 C225 1.429 . S
C209 H231 0.950 . S
C210 H206 0.949 . S
C210 C218 1.574 . S
C210 C226 1.368 . S
H211 C219 0.950 . S
H212 C217 0.950 . S
H213 C218 0.949 . S
H214 C220 0.950 . S
H215 C221 0.950 . S
H216 C222 0.949 . S
C217 H212 0.950 . S
C217 C219 1.327 . S
C217 C223 1.429 . S
C218 C210 1.574 . S
C218 H213 0.949 . S
C218 C224 1.368 . S
C219 C203 1.349 . S
C219 H211 0.950 . S
C219 C217 1.327 . S
C220 C208 1.349 . S
C220 H214 0.950 . S
C220 C221 1.327 . S
C221 H215 0.950 . S
C221 C220 1.327 . S
C221 C225 1.429 . S
C222 C205 1.574 . S
C222 H216 0.949 . S
C222 C226 1.368 . S
C223 C204 1.429 . S
C223 C217 1.429 . S
C223 C224 1.523 . S
C224 C205 1.368 . S
C224 C218 1.368 . S
C224 C223 1.523 . S
C225 C209 1.429 . S
C225 C221 1.429 . S
C225 C226 1.523 . S
C226 C210 1.368 . S
C226 C222 1.368 . S
C226 C225 1.523 . S
H227 C202 0.950 . S
H228 C204 0.950 . S
H229 C205 0.949 . S
H230 C207 0.950 . S
H231 C209 0.950 . S
C232 C233 1.349 . S
C232 C234 1.327 . S
C232 H257 0.950 . S
C233 C232 1.349 . S
C233 C249 1.359 . S
C234 C232 1.327 . S
C234 C253 1.429 . S
C234 H258 0.950 . S
C235 C252 1.574 . S
C235 C254 1.368 1_655 S
C235 H259 0.949 . S
H236 C240 0.949 . S
C237 C238 1.349 . S
C237 C239 1.327 . S
C237 H260 0.950 . S
C238 C237 1.349 . S
C238 C250 1.359 . S
C239 C237 1.327 . S
C239 C255 1.429 . S
C239 H261 0.950 . S
C240 H236 0.949 . S
C240 C248 1.574 . S
C240 C256 1.368 1_455 S
H241 C249 0.943 1_655 S
H242 C247 0.950 . S
H243 C248 0.949 . S
H244 C250 0.943 1_455 S
H245 C251 0.950 . S
H246 C252 0.949 . S
C247 H242 0.950 . S
C247 C249 1.325 1_655 S
C247 C253 1.429 1_655 S
C248 C240 1.574 . S
C248 H243 0.949 . S
C248 C254 1.368 . S
C249 C233 1.359 . S
C249 H241 0.943 1_455 S
C249 C247 1.325 1_455 S
C250 C238 1.359 . S
C250 H244 0.943 1_655 S
C250 C251 1.325 1_655 S
C251 H245 0.950 . S
C251 C250 1.325 1_455 S
C251 C255 1.429 1_455 S
C252 C235 1.574 . S
C252 H246 0.949 . S
C252 C256 1.368 . S
C253 C234 1.429 . S
C253 C247 1.429 1_455 S
C253 C254 1.523 . S
C254 C235 1.368 1_455 S
C254 C248 1.368 . S
C254 C253 1.523 . S
C255 C239 1.429 . S
C255 C251 1.429 1_655 S
C255 C256 1.523 . S
C256 C240 1.368 1_655 S
C256 C252 1.368 . S
C256 C255 1.523 . S
H257 C232 0.950 . S
H258 C234 0.950 . S
H259 C235 0.949 . S
H260 C237 0.950 . S
H261 C239 0.950 . S
C262 C263 1.349 . S
C262 C264 1.327 . S
C262 H287 0.950 . S
C263 C262 1.349 . S
C263 C279 1.359 . S
C264 C262 1.327 . S
C264 C283 1.429 . S
C264 H288 0.950 . S
C265 C282 1.574 . S
C265 C284 1.368 1_655 S
C265 H289 0.949 . S
H266 C270 0.949 . S
C267 C268 1.349 . S
C267 C269 1.327 . S
C267 H290 0.950 . S
C268 C267 1.349 . S
C268 C280 1.359 . S
C269 C267 1.327 . S
C269 C285 1.429 . S
C269 H291 0.950 . S
C270 H266 0.949 . S
C270 C278 1.574 . S
C270 C286 1.368 1_455 S
H271 C279 0.943 1_655 S
H272 C277 0.950 . S
H273 C278 0.949 . S
H274 C280 0.943 1_455 S
H275 C281 0.950 . S
H276 C282 0.949 . S
C277 H272 0.950 . S
C277 C279 1.325 1_655 S
C277 C283 1.429 1_655 S
C278 C270 1.574 . S
C278 H273 0.949 . S
C278 C284 1.368 . S
C279 C263 1.359 . S
C279 H271 0.943 1_455 S
C279 C277 1.325 1_455 S
C280 C268 1.359 . S
C280 H274 0.943 1_655 S
C280 C281 1.325 1_655 S
C281 H275 0.950 . S
C281 C280 1.325 1_455 S
C281 C285 1.429 1_455 S
C282 C265 1.574 . S
C282 H276 0.949 . S
C282 C286 1.368 . S
C283 C264 1.429 . S
C283 C277 1.429 1_455 S
C283 C284 1.523 . S
C284 C265 1.368 1_455 S
C284 C278 1.368 . S
C284 C283 1.523 . S
C285 C269 1.429 . S
C285 C281 1.429 1_655 S
C285 C286 1.523 . S
C286 C270 1.368 1_655 S
C286 C282 1.368 . S
C286 C285 1.523 . S
H287 C262 0.950 . S
H288 C264 0.950 . S
H289 C265 0.949 . S
H290 C267 0.950 . S
H291 C269 0.950 . S
C292 C293 1.349 . S
C292 C294 1.327 . S
C292 H317 0.950 . S
C293 C292 1.349 . S
C293 C309 1.337 1_455 S
C294 C292 1.327 . S
C294 C313 1.429 . S
C294 H318 0.950 . S
C295 C312 1.574 . S
C295 C314 1.368 1_655 S
C295 H319 0.949 . S
H296 C300 0.949 . S
C297 C298 1.349 . S
C297 C299 1.327 . S
C297 H320 0.950 . S
C298 C297 1.349 . S
C298 C310 1.338 1_655 S
C299 C297 1.327 . S
C299 C315 1.429 . S
C299 H321 0.950 . S
C300 H296 0.949 . S
C300 C308 1.574 . S
C300 C316 1.368 1_455 S
H301 C309 0.959 . S
H302 C307 0.950 . S
H303 C308 0.949 . S
H304 C310 0.959 . S
H305 C311 0.950 . S
H306 C312 0.949 . S
C307 H302 0.950 . S
C307 C309 1.330 . S
C307 C313 1.429 1_655 S
C308 C300 1.574 . S
C308 H303 0.949 . S
C308 C314 1.368 . S
C309 C293 1.337 1_655 S
C309 H301 0.959 . S
C309 C307 1.330 . S
C310 C298 1.338 1_455 S
C310 H304 0.959 . S
C310 C311 1.330 . S
C311 H305 0.950 . S
C311 C310 1.330 . S
C311 C315 1.429 1_455 S
C312 C295 1.574 . S
C312 H306 0.949 . S
C312 C316 1.368 . S
C313 C294 1.429 . S
C313 C307 1.429 1_455 S
C313 C314 1.523 . S
C314 C295 1.368 1_455 S
C314 C308 1.368 . S
C314 C313 1.523 . S
C315 C299 1.429 . S
C315 C311 1.429 1_655 S
C315 C316 1.523 . S
C316 C300 1.368 1_655 S
C316 C312 1.368 . S
C316 C315 1.523 . S
H317 C292 0.950 . S
H318 C294 0.950 . S
H319 C295 0.949 . S
H320 C297 0.950 . S
H321 C299 0.950 . S
C322 C323 1.349 . S
C322 C324 1.327 . S
C322 H347 0.950 . S
C323 C322 1.349 . S
C323 C339 1.338 1_455 S
C324 C322 1.327 . S
C324 C343 1.429 . S
C324 H348 0.950 . S
C325 C342 1.574 . S
C325 C344 1.368 1_655 S
C325 H349 0.949 . S
H326 C330 0.949 . S
C327 C328 1.349 . S
C327 C329 1.327 . S
C327 H350 0.950 . S
C328 C327 1.349 . S
C328 C340 1.337 1_655 S
C329 C327 1.327 . S
C329 C345 1.429 . S
C329 H351 0.950 . S
C330 H326 0.949 . S
C330 C338 1.574 . S
C330 C346 1.368 1_455 S
H331 C339 0.959 . S
H332 C337 0.950 . S
H333 C338 0.949 . S
H334 C340 0.959 . S
H335 C341 0.950 . S
H336 C342 0.949 . S
C337 H332 0.950 . S
C337 C339 1.330 . S
C337 C343 1.429 1_655 S
C338 C330 1.574 . S
C338 H333 0.949 . S
C338 C344 1.368 . S
C339 C323 1.338 1_655 S
C339 H331 0.959 . S
C339 C337 1.330 . S
C340 C328 1.337 1_455 S
C340 H334 0.959 . S
C340 C341 1.330 . S
C341 H335 0.950 . S
C341 C340 1.330 . S
C341 C345 1.429 1_455 S
C342 C325 1.574 . S
C342 H336 0.949 . S
C342 C346 1.368 . S
C343 C324 1.429 . S
C343 C337 1.429 1_455 S
C343 C344 1.523 . S
C344 C325 1.368 1_455 S
C344 C338 1.368 . S
C344 C343 1.523 . S
C345 C329 1.429 . S
C345 C341 1.429 1_655 S
C345 C346 1.523 . S
C346 C330 1.368 1_655 S
C346 C342 1.368 . S
C346 C345 1.523 . S
H347 C322 0.950 . S
H348 C324 0.950 . S
H349 C325 0.949 . S
H350 C327 0.950 . S
H351 C329 0.950 . S
C352 C353 1.349 . S
C352 C354 1.327 . S
C352 H377 0.950 . S
C353 C352 1.349 . S
C353 C369 1.349 . S
C354 C352 1.327 . S
C354 C373 1.429 . S
C354 H378 0.950 . S
C355 C372 1.574 . S
C355 C374 1.368 . S
C355 H379 0.949 . S
H356 C360 0.949 . S
C357 C358 1.349 . S
C357 C359 1.327 . S
C357 H380 0.950 . S
C358 C357 1.349 . S
C358 C370 1.349 . S
C359 C357 1.327 . S
C359 C375 1.429 . S
C359 H381 0.950 . S
C360 H356 0.949 . S
C360 C368 1.574 . S
C360 C376 1.368 . S
H361 C369 0.950 . S
H362 C367 0.950 . S
H363 C368 0.949 . S
H364 C370 0.950 . S
H365 C371 0.950 . S
H366 C372 0.949 . S
C367 H362 0.950 . S
C367 C369 1.327 . S
C367 C373 1.429 . S
C368 C360 1.574 . S
C368 H363 0.949 . S
C368 C374 1.368 . S
C369 C353 1.349 . S
C369 H361 0.950 . S
C369 C367 1.327 . S
C370 C358 1.349 . S
C370 H364 0.950 . S
C370 C371 1.327 . S
C371 H365 0.950 . S
C371 C370 1.327 . S
C371 C375 1.429 . S
C372 C355 1.574 . S
C372 H366 0.949 . S
C372 C376 1.368 . S
C373 C354 1.429 . S
C373 C367 1.429 . S
C373 C374 1.523 . S
C374 C355 1.368 . S
C374 C368 1.368 . S
C374 C373 1.523 . S
C375 C359 1.429 . S
C375 C371 1.429 . S
C375 C376 1.523 . S
C376 C360 1.368 . S
C376 C372 1.368 . S
C376 C375 1.523 . S
H377 C352 0.950 . S
H378 C354 0.950 . S
H379 C355 0.949 . S
H380 C357 0.950 . S
H381 C359 0.950 . S
C382 C383 1.349 . S
C382 C384 1.327 . S
C382 H407 0.950 . S
C383 C382 1.349 . S
C383 C399 1.349 . S
C384 C382 1.327 . S
C384 C403 1.429 . S
C384 H408 0.950 . S
C385 C402 1.574 . S
C385 C404 1.368 . S
C385 H409 0.949 . S
H386 C390 0.949 . S
C387 C388 1.349 . S
C387 C389 1.327 . S
C387 H410 0.950 . S
C388 C387 1.349 . S
C388 C400 1.349 . S
C389 C387 1.327 . S
C389 C405 1.429 . S
C389 H411 0.950 . S
C390 H386 0.949 . S
C390 C398 1.574 . S
C390 C406 1.368 . S
H391 C399 0.950 . S
H392 C397 0.950 . S
H393 C398 0.949 . S
H394 C400 0.950 . S
H395 C401 0.950 . S
H396 C402 0.949 . S
C397 H392 0.950 . S
C397 C399 1.327 . S
C397 C403 1.429 . S
C398 C390 1.574 . S
C398 H393 0.949 . S
C398 C404 1.368 . S
C399 C383 1.349 . S
C399 H391 0.950 . S
C399 C397 1.327 . S
C400 C388 1.349 . S
C400 H394 0.950 . S
C400 C401 1.327 . S
C401 H395 0.950 . S
C401 C400 1.327 . S
C401 C405 1.429 . S
C402 C385 1.574 . S
C402 H396 0.949 . S
C402 C406 1.368 . S
C403 C384 1.429 . S
C403 C397 1.429 . S
C403 C404 1.523 . S
C404 C385 1.368 . S
C404 C398 1.368 . S
C404 C403 1.523 . S
C405 C389 1.429 . S
C405 C401 1.429 . S
C405 C406 1.523 . S
C406 C390 1.368 . S
C406 C402 1.368 . S
C406 C405 1.523 . S
H407 C382 0.950 . S
H408 C384 0.950 . S
H409 C385 0.949 . S
H410 C387 0.950 . S
H411 C389 0.950 . S
C412 C413 1.349 . S
C412 C414 1.327 . S
C412 H437 0.950 . S
C413 C412 1.349 . S
C413 C429 1.349 . S
C414 C412 1.327 . S
C414 C433 1.429 . S
C414 H438 0.950 . S
C415 C432 1.574 . S
C415 C434 1.368 . S
C415 H439 0.949 . S
H416 C420 0.949 . S
C417 C418 1.349 . S
C417 C419 1.327 . S
C417 H440 0.950 . S
C418 C417 1.349 . S
C418 C430 1.349 . S
C419 C417 1.327 . S
C419 C435 1.429 . S
C419 H441 0.950 . S
C420 H416 0.949 . S
C420 C428 1.574 . S
C420 C436 1.368 . S
H421 C429 0.950 . S
H422 C427 0.950 . S
H423 C428 0.949 . S
H424 C430 0.950 . S
H425 C431 0.950 . S
H426 C432 0.949 . S
C427 H422 0.950 . S
C427 C429 1.327 . S
C427 C433 1.429 . S
C428 C420 1.574 . S
C428 H423 0.949 . S
C428 C434 1.368 . S
C429 C413 1.349 . S
C429 H421 0.950 . S
C429 C427 1.327 . S
C430 C418 1.349 . S
C430 H424 0.950 . S
C430 C431 1.327 . S
C431 H425 0.950 . S
C431 C430 1.327 . S
C431 C435 1.429 . S
C432 C415 1.574 . S
C432 H426 0.949 . S
C432 C436 1.368 . S
C433 C414 1.429 . S
C433 C427 1.429 . S
C433 C434 1.523 . S
C434 C415 1.368 . S
C434 C428 1.368 . S
C434 C433 1.523 . S
C435 C419 1.429 . S
C435 C431 1.429 . S
C435 C436 1.523 . S
C436 C420 1.368 . S
C436 C432 1.368 . S
C436 C435 1.523 . S
H437 C412 0.950 . S
H438 C414 0.950 . S
H439 C415 0.949 . S
H440 C417 0.950 . S
H441 C419 0.950 . S
C442 C443 1.349 . S
C442 C444 1.327 . S
C442 H467 0.950 . S
C443 C442 1.349 . S
C443 C459 1.349 . S
C444 C442 1.327 . S
C444 C463 1.429 . S
C444 H468 0.950 . S
C445 C462 1.574 . S
C445 C464 1.368 . S
C445 H469 0.949 . S
H446 C450 0.949 . S
C447 C448 1.349 . S
C447 C449 1.327 . S
C447 H470 0.950 . S
C448 C447 1.349 . S
C448 C460 1.349 . S
C449 C447 1.327 . S
C449 C465 1.429 . S
C449 H471 0.950 . S
C450 H446 0.949 . S
C450 C458 1.574 . S
C450 C466 1.368 . S
H451 C459 0.950 . S
H452 C457 0.950 . S
H453 C458 0.949 . S
H454 C460 0.950 . S
H455 C461 0.950 . S
H456 C462 0.949 . S
C457 H452 0.950 . S
C457 C459 1.327 . S
C457 C463 1.429 . S
C458 C450 1.574 . S
C458 H453 0.949 . S
C458 C464 1.368 . S
C459 C443 1.349 . S
C459 H451 0.950 . S
C459 C457 1.327 . S
C460 C448 1.349 . S
C460 H454 0.950 . S
C460 C461 1.327 . S
C461 H455 0.950 . S
C461 C460 1.327 . S
C461 C465 1.429 . S
C462 C445 1.574 . S
C462 H456 0.949 . S
C462 C466 1.368 . S
C463 C444 1.429 . S
C463 C457 1.429 . S
C463 C464 1.523 . S
C464 C445 1.368 . S
C464 C458 1.368 . S
C464 C463 1.523 . S
C465 C449 1.429 . S
C465 C461 1.429 . S
C465 C466 1.523 . S
C466 C450 1.368 . S
C466 C462 1.368 . S
C466 C465 1.523 . S
H467 C442 0.950 . S
H468 C444 0.950 . S
H469 C445 0.949 . S
H470 C447 0.950 . S
H471 C449 0.950 . S
C472 C473 1.349 1_556 S
C472 C474 1.327 . S
C472 H497 0.950 . S
C473 C472 1.349 1_554 S
C473 C489 1.349 . S
C474 C472 1.327 . S
C474 C493 1.429 1_556 S
C474 H498 0.950 . S
C475 C492 1.574 . S
C475 C494 1.368 . S
C475 H499 0.949 . S
H476 C480 0.949 . S
C477 C478 1.349 . S
C477 C479 1.327 . S
C477 H500 0.950 . S
C478 C477 1.349 . S
C478 C490 1.349 1_554 S
C479 C477 1.327 . S
C479 C495 1.429 . S
C479 H501 0.950 . S
C480 H476 0.949 . S
C480 C488 1.574 . S
C480 C496 1.368 1_556 S
H481 C489 0.950 . S
H482 C487 0.950 . S
H483 C488 0.949 . S
H484 C490 0.950 . S
H485 C491 0.950 . S
H486 C492 0.949 . S
C487 H482 0.950 . S
C487 C489 1.327 . S
C487 C493 1.429 . S
C488 C480 1.574 . S
C488 H483 0.949 . S
C488 C494 1.368 1_556 S
C489 C473 1.349 . S
C489 H481 0.950 . S
C489 C487 1.327 . S
C490 C478 1.349 1_556 S
C490 H484 0.950 . S
C490 C491 1.327 . S
C491 H485 0.950 . S
C491 C490 1.327 . S
C491 C495 1.429 1_556 S
C492 C475 1.574 . S
C492 H486 0.949 . S
C492 C496 1.368 . S
C493 C474 1.429 1_554 S
C493 C487 1.429 . S
C493 C494 1.523 . S
C494 C475 1.368 . S
C494 C488 1.368 1_554 S
C494 C493 1.523 . S
C495 C479 1.429 . S
C495 C491 1.429 1_554 S
C495 C496 1.523 . S
C496 C480 1.368 1_554 S
C496 C492 1.368 . S
C496 C495 1.523 . S
H497 C472 0.950 . S
H498 C474 0.950 . S
H499 C475 0.949 . S
H500 C477 0.950 . S
H501 C479 0.950 . S
C502 C503 1.349 1_556 S
C502 C504 1.327 . S
C502 H527 0.950 . S
C503 C502 1.349 1_554 S
C503 C519 1.349 . S
C504 C502 1.327 . S
C504 C523 1.429 1_556 S
C504 H528 0.950 . S
C505 C522 1.574 . S
C505 C524 1.368 . S
C505 H529 0.949 . S
H506 C510 0.949 . S
C507 C508 1.349 . S
C507 C509 1.327 . S
C507 H530 0.950 . S
C508 C507 1.349 . S
C508 C520 1.349 1_554 S
C509 C507 1.327 . S
C509 C525 1.429 . S
C509 H531 0.950 . S
C510 H506 0.949 . S
C510 C518 1.574 . S
C510 C526 1.368 1_556 S
H511 C519 0.950 . S
H512 C517 0.950 . S
H513 C518 0.949 . S
H514 C520 0.950 . S
H515 C521 0.950 . S
H516 C522 0.949 . S
C517 H512 0.950 . S
C517 C519 1.327 . S
C517 C523 1.429 . S
C518 C510 1.574 . S
C518 H513 0.949 . S
C518 C524 1.368 1_556 S
C519 C503 1.349 . S
C519 H511 0.950 . S
C519 C517 1.327 . S
C520 C508 1.349 1_556 S
C520 H514 0.950 . S
C520 C521 1.327 . S
C521 H515 0.950 . S
C521 C520 1.327 . S
C521 C525 1.429 1_556 S
C522 C505 1.574 . S
C522 H516 0.949 . S
C522 C526 1.368 . S
C523 C504 1.429 1_554 S
C523 C517 1.429 . S
C523 C524 1.523 . S
C524 C505 1.368 . S
C524 C518 1.368 1_554 S
C524 C523 1.523 . S
C525 C509 1.429 . S
C525 C521 1.429 1_554 S
C525 C526 1.523 . S
C526 C510 1.368 1_554 S
C526 C522 1.368 . S
C526 C525 1.523 . S
H527 C502 0.950 . S
H528 C504 0.950 . S
H529 C505 0.949 . S
H530 C507 0.950 . S
H531 C509 0.950 . S
C532 C533 1.349 . S
C532 C534 1.327 . S
C532 H557 0.950 . S
C533 C532 1.349 . S
C533 C549 1.349 . S
C534 C532 1.327 . S
C534 C553 1.429 . S
C534 H558 0.950 . S
C535 C552 1.574 . S
C535 C554 1.368 . S
C535 H559 0.949 . S
H536 C540 0.949 . S
C537 C538 1.349 . S
C537 C539 1.327 . S
C537 H560 0.950 . S
C538 C537 1.349 . S
C538 C550 1.349 . S
C539 C537 1.327 . S
C539 C555 1.429 . S
C539 H561 0.950 . S
C540 H536 0.949 . S
C540 C548 1.574 . S
C540 C556 1.368 . S
H541 C549 0.950 . S
H542 C547 0.950 . S
H543 C548 0.949 . S
H544 C550 0.950 . S
H545 C551 0.950 . S
H546 C552 0.949 . S
C547 H542 0.950 . S
C547 C549 1.327 . S
C547 C553 1.429 . S
C548 C540 1.574 . S
C548 H543 0.949 . S
C548 C554 1.368 . S
C549 C533 1.349 . S
C549 H541 0.950 . S
C549 C547 1.327 . S
C550 C538 1.349 . S
C550 H544 0.950 . S
C550 C551 1.327 . S
C551 H545 0.950 . S
C551 C550 1.327 . S
C551 C555 1.429 . S
C552 C535 1.574 . S
C552 H546 0.949 . S
C552 C556 1.368 . S
C553 C534 1.429 . S
C553 C547 1.429 . S
C553 C554 1.523 . S
C554 C535 1.368 . S
C554 C548 1.368 . S
C554 C553 1.523 . S
C555 C539 1.429 . S
C555 C551 1.429 . S
C555 C556 1.523 . S
C556 C540 1.368 . S
C556 C552 1.368 . S
C556 C555 1.523 . S
H557 C532 0.950 . S
H558 C534 0.950 . S
H559 C535 0.949 . S
H560 C537 0.950 . S
H561 C539 0.950 . S
C562 C563 1.349 . S
C562 C564 1.327 . S
C562 H587 0.950 . S
C563 C562 1.349 . S
C563 C579 1.349 . S
C564 C562 1.327 . S
C564 C583 1.429 . S
C564 H588 0.950 . S
C565 C582 1.574 . S
C565 C584 1.368 . S
C565 H589 0.949 . S
H566 C570 0.949 . S
C567 C568 1.349 . S
C567 C569 1.327 . S
C567 H590 0.950 . S
C568 C567 1.349 . S
C568 C580 1.349 . S
C569 C567 1.327 . S
C569 C585 1.429 . S
C569 H591 0.950 . S
C570 H566 0.949 . S
C570 C578 1.574 . S
C570 C586 1.368 . S
H571 C579 0.950 . S
H572 C577 0.950 . S
H573 C578 0.949 . S
H574 C580 0.950 . S
H575 C581 0.950 . S
H576 C582 0.949 . S
C577 H572 0.950 . S
C577 C579 1.327 . S
C577 C583 1.429 . S
C578 C570 1.574 . S
C578 H573 0.949 . S
C578 C584 1.368 . S
C579 C563 1.349 . S
C579 H571 0.950 . S
C579 C577 1.327 . S
C580 C568 1.349 . S
C580 H574 0.950 . S
C580 C581 1.327 . S
C581 H575 0.950 . S
C581 C580 1.327 . S
C581 C585 1.429 . S
C582 C565 1.574 . S
C582 H576 0.949 . S
C582 C586 1.368 . S
C583 C564 1.429 . S
C583 C577 1.429 . S
C583 C584 1.523 . S
C584 C565 1.368 . S
C584 C578 1.368 . S
C584 C583 1.523 . S
C585 C569 1.429 . S
C585 C581 1.429 . S
C585 C586 1.523 . S
C586 C570 1.368 . S
C586 C582 1.368 . S
C586 C585 1.523 . S
H587 C562 0.950 . S
H588 C564 0.950 . S
H589 C565 0.949 . S
H590 C567 0.950 . S
H591 C569 0.950 . S
C113 C23 1.484 . S
C118 C9 1.484 . S
C143 C37 1.484 . S
C148 C51 1.484 . S
C173 C65 1.484 . S
C178 C79 1.484 . S
C203 C93 1.484 . S
C208 C107 1.484 . S
C233 C7 1.160 . S
C238 C49 1.160 . S
C263 C35 1.160 . S
C268 C21 1.160 . S
C293 C31 1.155 . S
C298 C17 1.155 . S
C323 C3 1.155 . S
C328 C45 1.155 . S
C353 C63 1.160 . S
C358 C105 1.160 . S
C383 C91 1.160 . S
C388 C77 1.160 . S
C413 C73 1.155 . S
C418 C87 1.155 . S
C443 C59 1.155 . S
C448 C101 1.155 . S
C473 C78 1.510 . S
C478 C8 1.510 . S
C503 C64 1.510 . S
C508 C22 1.510 . S
C533 C36 1.509 . S
C538 C106 1.509 . S
C563 C92 1.509 . S
C568 C50 1.509 . S
