# Generated by pormake.
# Topology wkj, (6)-cn, num edge types: 1
# Building blocks:
#     Node 0, Type 0, BuildingBlock: CIFDUS_clean_sbu_1, # of connection points: 6
#     Node 1, Type 0, BuildingBlock: CIFDUS_clean_sbu_1, # of connection points: 6
#     Node 2, Type 0, BuildingBlock: CIFDUS_clean_sbu_1, # of connection points: 6
#     Node 3, Type 0, BuildingBlock: CIFDUS_clean_sbu_1, # of connection points: 6
#     Node 4, Type 0, BuildingBlock: CIFDUS_clean_sbu_1, # of connection points: 6
#     Node 5, Type 0, BuildingBlock: CIFDUS_clean_sbu_1, # of connection points: 6
#     Node 6, Type 0, BuildingBlock: CIFDUS_clean_sbu_1, # of connection points: 6
#     Node 7, Type 0, BuildingBlock: CIFDUS_clean_sbu_1, # of connection points: 6
#     Node 8, Type 0, BuildingBlock: CIFDUS_clean_sbu_1, # of connection points: 6
#     Node 9, Type 0, BuildingBlock: CIFDUS_clean_sbu_1, # of connection points: 6
#     Node 10, Type 0, BuildingBlock: CIFDUS_clean_sbu_1, # of connection points: 6
#     Node 11, Type 0, BuildingBlock: CIFDUS_clean_sbu_1, # of connection points: 6
#     Edge 12, Type (0, 0), BuildingBlock: EZIPEK_clean_linker_0, # of connection points: 2
#     Edge 13, Type (0, 0), BuildingBlock: EZIPEK_clean_linker_0, # of connection points: 2
#     Edge 14, Type (0, 0), BuildingBlock: EZIPEK_clean_linker_0, # of connection points: 2
#     Edge 15, Type (0, 0), BuildingBlock: EZIPEK_clean_linker_0, # of connection points: 2
#     Edge 16, Type (0, 0), BuildingBlock: EZIPEK_clean_linker_0, # of connection points: 2
#     Edge 17, Type (0, 0), BuildingBlock: EZIPEK_clean_linker_0, # of connection points: 2
#     Edge 18, Type (0, 0), BuildingBlock: EZIPEK_clean_linker_0, # of connection points: 2
#     Edge 19, Type (0, 0), BuildingBlock: EZIPEK_clean_linker_0, # of connection points: 2
#     Edge 20, Type (0, 0), BuildingBlock: EZIPEK_clean_linker_0, # of connection points: 2
#     Edge 21, Type (0, 0), BuildingBlock: EZIPEK_clean_linker_0, # of connection points: 2
#     Edge 22, Type (0, 0), BuildingBlock: EZIPEK_clean_linker_0, # of connection points: 2
#     Edge 23, Type (0, 0), BuildingBlock: EZIPEK_clean_linker_0, # of connection points: 2
#     Edge 24, Type (0, 0), BuildingBlock: EZIPEK_clean_linker_0, # of connection points: 2
#     Edge 25, Type (0, 0), BuildingBlock: EZIPEK_clean_linker_0, # of connection points: 2
#     Edge 26, Type (0, 0), BuildingBlock: EZIPEK_clean_linker_0, # of connection points: 2
#     Edge 27, Type (0, 0), BuildingBlock: EZIPEK_clean_linker_0, # of connection points: 2
#     Edge 28, Type (0, 0), BuildingBlock: EZIPEK_clean_linker_0, # of connection points: 2
#     Edge 29, Type (0, 0), BuildingBlock: EZIPEK_clean_linker_0, # of connection points: 2
#     Edge 30, Type (0, 0), BuildingBlock: EZIPEK_clean_linker_0, # of connection points: 2
#     Edge 31, Type (0, 0), BuildingBlock: EZIPEK_clean_linker_0, # of connection points: 2
#     Edge 32, Type (0, 0), BuildingBlock: EZIPEK_clean_linker_0, # of connection points: 2
#     Edge 33, Type (0, 0), BuildingBlock: EZIPEK_clean_linker_0, # of connection points: 2
#     Edge 34, Type (0, 0), BuildingBlock: EZIPEK_clean_linker_0, # of connection points: 2
#     Edge 35, Type (0, 0), BuildingBlock: EZIPEK_clean_linker_0, # of connection points: 2
#     Edge 36, Type (0, 0), BuildingBlock: EZIPEK_clean_linker_0, # of connection points: 2
#     Edge 37, Type (0, 0), BuildingBlock: EZIPEK_clean_linker_0, # of connection points: 2
#     Edge 38, Type (0, 0), BuildingBlock: EZIPEK_clean_linker_0, # of connection points: 2
#     Edge 39, Type (0, 0), BuildingBlock: EZIPEK_clean_linker_0, # of connection points: 2
#     Edge 40, Type (0, 0), BuildingBlock: EZIPEK_clean_linker_0, # of connection points: 2
#     Edge 41, Type (0, 0), BuildingBlock: EZIPEK_clean_linker_0, # of connection points: 2
#     Edge 42, Type (0, 0), BuildingBlock: EZIPEK_clean_linker_0, # of connection points: 2
#     Edge 43, Type (0, 0), BuildingBlock: EZIPEK_clean_linker_0, # of connection points: 2
#     Edge 44, Type (0, 0), BuildingBlock: EZIPEK_clean_linker_0, # of connection points: 2
#     Edge 45, Type (0, 0), BuildingBlock: EZIPEK_clean_linker_0, # of connection points: 2
#     Edge 46, Type (0, 0), BuildingBlock: EZIPEK_clean_linker_0, # of connection points: 2
#     Edge 47, Type (0, 0), BuildingBlock: EZIPEK_clean_linker_0, # of connection points: 2
# Relax obj value: 0.526
# Max RMSD: 0.243
# Mean RMSD: 0.243
data_MOF--net-wkj--node1-CIFDUS_clean_sbu_1--edge1-EZIPEK_clean_linker_0
_symmetry_space_group_name_H-M    P1
_symmetry_Int_Tables_number       1
_symmetry_cell_setting            triclinic
loop_
_symmetry_equiv_pos_as_xyz
'x, y, z'
_cell_length_a     38.417953
_cell_length_b     38.388902
_cell_length_c     17.813635
_cell_angle_alpha  89.683865
_cell_angle_beta   89.87119
_cell_angle_gamma 119.97937
loop_
_atom_site_label
_atom_site_type_symbol
_atom_site_fract_x
_atom_site_fract_y
_atom_site_fract_z
_atom_type_partial_charge
O0 O 0.5142 0.1186 0.3585 0.0
Mn1 Mn 0.46953 0.10379 0.27549 0.0
O2 O 0.52167 0.17005 0.42737 0.0
Mn3 Mn 0.47147 0.15894 0.39868 0.0
O4 O 0.42395 0.08355 0.18911 0.0
O5 O 0.47525 0.0568 0.25583 0.0
Mn6 Mn 0.48152 0.0492 0.16166 0.0
O7 O 0.51639 0.13793 0.19232 0.0
O8 O 0.43498 0.04109 0.11737 0.0
O9 O 0.42403 0.07003 0.35838 0.0
O10 O 0.43023 0.11469 0.44523 0.0
O11 O 0.48328 0.00902 0.21387 0.0
O12 O 0.52792 0.093 0.13183 0.0
C13 C 0.45927 0.18377 0.30682 0.0
C14 C 0.53215 0.14473 0.41043 0.0
C15 C 0.41467 0.05795 0.1341 0.0
C16 C 0.47673 0.02515 0.27152 0.0
C17 C 0.53673 0.12882 0.14518 0.0
C18 C 0.41261 0.079 0.42067 0.0
O19 O 0.46417 0.15269 0.30031 0.0
O20 O 0.46336 0.19959 0.37265 0.0
O21 O 0.3718 0.51636 0.69903 0.0
Mn22 Mn 0.35504 0.47182 0.61617 0.0
O23 O 0.31706 0.50874 0.75722 0.0
Mn24 Mn 0.28816 0.45672 0.72445 0.0
O25 O 0.34282 0.42861 0.52989 0.0
O26 O 0.41177 0.48646 0.61177 0.0
Mn27 Mn 0.43425 0.49979 0.52371 0.0
O28 O 0.36469 0.51499 0.5281 0.0
O29 O 0.4026 0.45412 0.46754 0.0
O30 O 0.34848 0.43115 0.70284 0.0
O31 O 0.29684 0.42015 0.77663 0.0
O32 O 0.47179 0.49951 0.58901 0.0
O33 O 0.43031 0.54402 0.49759 0.0
C34 C 0.25733 0.44431 0.62556 0.0
C35 C 0.35469 0.52747 0.74803 0.0
C36 C 0.36562 0.42743 0.47677 0.0
C37 C 0.44254 0.48588 0.63701 0.0
C38 C 0.3963 0.54193 0.49144 0.0
C39 C 0.32579 0.41454 0.76037 0.0
O40 O 0.29546 0.45513 0.62588 0.0
O41 O 0.2391 0.44053 0.68903 0.0
O42 O 0.84723 0.38776 0.02988 0.0
Mn43 Mn 0.87039 0.36657 0.9461 0.0
O44 O 0.79623 0.33645 0.08827 0.0
Mn45 Mn 0.81549 0.30326 0.05914 0.0
O46 O 0.89851 0.35025 0.85994 0.0
O47 O 0.91361 0.42219 0.93548 0.0
Mn48 Mn 0.92224 0.44234 0.84528 0.0
O49 O 0.83593 0.37689 0.86024 0.0
O50 O 0.93488 0.40832 0.793 0.0
O51 O 0.90423 0.35828 0.03195 0.0
O52 O 0.86044 0.30927 0.10844 0.0
O53 O 0.96011 0.48156 0.90712 0.0
O54 O 0.87537 0.44068 0.81936 0.0
C55 C 0.79763 0.27105 0.96118 0.0
C56 C 0.8187 0.37386 0.07874 0.0
C57 C 0.92321 0.37122 0.80585 0.0
C58 C 0.94465 0.45375 0.95806 0.0
C59 C 0.84172 0.40827 0.8209 0.0
C60 C 0.89617 0.336 0.09147 0.0
O61 O 0.82569 0.30867 0.96136 0.0
O62 O 0.78047 0.25431 1.0244 0.0
O63 O 0.4702 0.85964 0.37977 0.0
Mn64 Mn 0.51427 0.88036 0.29313 0.0
O65 O 0.47443 0.81418 0.45153 0.0
Mn66 Mn 0.52283 0.82722 0.40828 0.0
O67 O 0.56045 0.90759 0.206 0.0
O68 O 0.50536 0.92573 0.28424 0.0
Mn69 Mn 0.50715 0.93919 0.18745 0.0
O70 O 0.46787 0.84884 0.21047 0.0
O71 O 0.56221 0.9661 0.18197 0.0
O72 O 0.55876 0.91381 0.37398 0.0
O73 O 0.56586 0.87146 0.44931 0.0
O74 O 0.46293 0.93771 0.23334 0.0
O75 O 0.48889 0.89664 0.12262 0.0
C76 C 0.52875 0.80177 0.31195 0.0
C77 C 0.45841 0.83515 0.43597 0.0
C78 C 0.57772 0.9436 0.17529 0.0
C79 C 0.47249 0.9257 0.29301 0.0
C80 C 0.46504 0.86114 0.14385 0.0
C81 C 0.57636 0.90705 0.42916 0.0
O82 O 0.52295 0.83247 0.30869 0.0
O83 O 0.53033 0.78735 0.37711 0.0
O84 O 0.58328 0.44968 0.70034 0.0
Mn85 Mn 0.59783 0.49196 0.61344 0.0
O86 O 0.63867 0.45655 0.75082 0.0
Mn87 Mn 0.66337 0.50907 0.71952 0.0
O88 O 0.6063 0.53357 0.52377 0.0
O89 O 0.53973 0.47236 0.61109 0.0
Mn90 Mn 0.5204 0.46424 0.51927 0.0
O91 O 0.59163 0.44762 0.53295 0.0
O92 O 0.54311 0.51713 0.48859 0.0
O93 O 0.60365 0.53602 0.69178 0.0
O94 O 0.65117 0.5432 0.77143 0.0
O95 O 0.47938 0.43024 0.58364 0.0
O96 O 0.53791 0.43594 0.46379 0.0
C97 C 0.69735 0.52612 0.62443 0.0
C98 C 0.60101 0.43783 0.74583 0.0
C99 C 0.58122 0.54047 0.48582 0.0
C100 C 0.50645 0.44313 0.63553 0.0
C101 C 0.56673 0.42994 0.47828 0.0
C102 C 0.6263 0.55352 0.74888 0.0
O103 O 0.65863 0.51282 0.62039 0.0
O104 O 0.71392 0.52952 0.68936 0.0
O105 O 0.12142 0.59844 1.02249 0.0
Mn106 Mn 0.09572 0.61908 0.94211 0.0
O107 O 0.1613 0.64841 0.09641 0.0
Mn108 Mn 0.14462 0.68032 0.05082 0.0
O109 O 0.06297 0.63233 0.85748 0.0
O110 O 0.05376 0.56241 0.93647 0.0
Mn111 Mn 0.04094 0.54597 0.84282 0.0
O112 O 0.1306 0.60965 0.85691 0.0
O113 O 0.01183 0.57103 0.8239 0.0
O114 O 0.06019 0.62503 0.02938 0.0
O115 O 0.10072 0.67974 0.09354 0.0
O116 O 0.03575 0.50327 0.90001 0.0
O117 O 0.0845 0.56357 0.78025 0.0
C118 C 0.16919 0.71763 0.96163 0.0
C119 C 0.14487 0.61195 0.07885 0.0
C120 C 0.02893 0.60941 0.82279 0.0
C121 C 0.05025 0.52856 0.95458 0.0
C122 C 0.1207 0.58711 0.79759 0.0
C123 C 0.06619 0.64979 0.08366 0.0
O124 O 0.14046 0.67993 0.95052 0.0
O125 O 0.18501 0.72773 0.02778 0.0
O126 O 0.85553 0.49553 0.34895 0.0
Mn127 Mn 0.88681 0.53542 0.43523 0.0
O128 O 0.83672 0.52842 0.26833 0.0
Mn129 Mn 0.85728 0.57596 0.3232 0.0
O130 O 0.92124 0.57566 0.52485 0.0
O131 O 0.91971 0.51007 0.44443 0.0
Mn132 Mn 0.92922 0.50208 0.53761 0.0
O133 O 0.84466 0.49399 0.51696 0.0
O134 O 0.96428 0.55475 0.56205 0.0
O135 O 0.92973 0.57371 0.35264 0.0
O136 O 0.90992 0.61391 0.30232 0.0
O137 O 0.9299 0.46299 0.47834 0.0
O138 O 0.88307 0.48034 0.59366 0.0
C139 C 0.82634 0.57323 0.42246 0.0
C140 C 0.8395 0.49769 0.28705 0.0
C141 C 0.95173 0.57991 0.56453 0.0
C142 C 0.9189 0.47793 0.4243 0.0
C143 C 0.84943 0.47629 0.57534 0.0
C144 C 0.93542 0.60235 0.30675 0.0
O145 O 0.85261 0.56143 0.41883 0.0
O146 O 0.8226 0.59033 0.36254 0.0
O147 O 0.3735 0.88334 0.70735 0.0
Mn148 Mn 0.35404 0.91396 0.77982 0.0
O149 O 0.32707 0.85353 0.62075 0.0
Mn150 Mn 0.29574 0.87205 0.66295 0.0
O151 O 0.33859 0.94819 0.85483 0.0
O152 O 0.4107 0.95469 0.7893 0.0
Mn153 Mn 0.42475 0.96555 0.88492 0.0
O154 O 0.3612 0.88065 0.87304 0.0
O155 O 0.38587 0.96667 0.94325 0.0
O156 O 0.35415 0.95085 0.69015 0.0
O157 O 0.30043 0.91738 0.61986 0.0
O158 O 0.45101 0.01307 0.82884 0.0
O159 O 0.4265 0.91932 0.9058 0.0
C160 C 0.25582 0.84268 0.74893 0.0
C161 C 0.36007 0.86072 0.64933 0.0
C162 C 0.35441 0.9652 0.91828 0.0
C163 C 0.43056 -0.00799 0.77233 0.0
C164 C 0.39331 0.88595 0.90906 0.0
C165 C 0.33228 0.94934 0.63454 0.0
O166 O 0.29351 0.86995 0.76449 0.0
O167 O 0.24587 0.83477 0.67909 0.0
O168 O 0.48529 0.35856 1.01365 0.0
Mn169 Mn 0.44656 0.35494 0.09955 0.0
O170 O 0.45051 0.30662 0.93662 0.0
Mn171 Mn 0.40279 0.28282 0.99174 0.0
O172 O 0.40741 0.35319 0.1885 0.0
O173 O 0.47639 0.41378 0.10498 0.0
Mn174 Mn 0.48505 0.43227 0.19696 0.0
O175 O 0.48596 0.3514 0.18084 0.0
O176 O 0.43334 0.41785 0.22546 0.0
O177 O 0.4082 0.36055 1.02026 0.0
O178 O 0.36814 0.30112 0.96846 0.0
O179 O 0.52266 0.47205 0.13454 0.0
O180 O 0.50661 0.40704 0.25123 0.0
C181 C 0.40547 0.25776 0.09729 0.0
C182 C 0.48315 0.33786 0.9554 0.0
C183 C 0.40541 0.38104 0.22687 0.0
C184 C 0.50762 0.4456 0.08166 0.0
C185 C 0.50642 0.37472 0.23587 0.0
C186 C 0.37751 0.3374 0.97941 0.0
O187 O 0.41662 0.29513 0.08656 0.0
O188 O 0.38785 0.23486 0.04043 0.0
O189 O 0.10812 0.48948 0.34771 0.0
Mn190 Mn 0.07451 0.44798 0.43197 0.0
O191 O 0.12789 0.45855 0.26652 0.0
Mn192 Mn 0.10599 0.4101 0.31932 0.0
O193 O 0.0387 0.40684 0.51918 0.0
O194 O 0.04205 0.47424 0.44059 0.0
Mn195 Mn 0.03801 0.48909 0.53055 0.0
O196 O 0.11559 0.48825 0.51752 0.0
O197 O 0.0144 0.44104 0.58445 0.0
O198 O 0.03288 0.41043 0.34759 0.0
O199 O 0.05458 0.37249 0.2938 0.0
O200 O 0.00745 0.5021 0.46936 0.0
O201 O 0.08922 0.52625 0.55552 0.0
C202 C 0.13451 0.4092 0.41871 0.0
C203 C 0.12709 0.48978 0.28771 0.0
C204 C 0.01721 0.40965 0.57299 0.0
C205 C 0.0167 0.48426 0.41834 0.0
C206 C 0.11759 0.51841 0.5553 0.0
C207 C 0.02796 0.38233 0.30171 0.0
O208 O 0.10897 0.42205 0.41608 0.0
O209 O 0.13931 0.39396 0.35749 0.0
O210 O 0.61362 0.10364 0.69569 0.0
Mn211 Mn 0.62902 0.0765 0.78298 0.0
O212 O 0.66493 0.13159 0.61269 0.0
Mn213 Mn 0.69596 0.1136 0.66088 0.0
O214 O 0.64299 0.04605 0.87148 0.0
O215 O 0.57201 0.03996 0.80172 0.0
Mn216 Mn 0.55686 0.02826 0.89469 0.0
O217 O 0.62755 0.11699 0.86484 0.0
O218 O 0.58348 0.00301 0.92732 0.0
O219 O 0.62597 0.03469 0.70146 0.0
O220 O 0.6836 0.06244 0.63547 0.0
O221 O 0.51112 0.00234 0.83658 0.0
O222 O 0.57207 0.07805 0.93619 0.0
C223 C 0.72441 0.14354 0.75997 0.0
C224 C 0.62977 0.12282 0.63395 0.0
C225 C 0.62092 0.01677 0.91847 0.0
C226 C 0.53547 0.02113 0.7817 0.0
C227 C 0.60231 0.11214 0.91862 0.0
C228 C 0.64881 0.03314 0.64979 0.0
O229 O 0.68753 0.11445 0.75816 0.0
O230 O 0.74466 0.15062 0.69801 0.0
O231 O 0.47581 0.61059 1.00567 0.0
Mn232 Mn 0.51522 0.61628 0.09247 0.0
O233 O 0.5046 0.66804 0.9387 0.0
Mn234 Mn 0.55384 0.68992 0.98604 0.0
O235 O 0.55384 0.61976 0.1816 0.0
O236 O 0.48947 0.55761 0.09604 0.0
Mn237 Mn 0.47235 0.53505 0.18323 0.0
O238 O 0.47386 0.61446 0.17802 0.0
O239 O 0.5184 0.55944 0.24184 0.0
O240 O 0.55359 0.61455 1.00896 0.0
O241 O 0.58825 0.67355 0.94957 0.0
O242 O 0.46573 0.49494 0.11689 0.0
O243 O 0.43433 0.54878 0.20722 0.0
C244 C 0.55667 0.71496 0.09107 0.0
C245 C 0.47577 0.63257 0.95055 0.0
C246 C 0.5495 0.59436 0.23449 0.0
C247 C 0.48442 0.52454 0.07015 0.0
C248 C 0.44324 0.58534 0.21371 0.0
C249 C 0.58033 0.63771 0.961 0.0
O250 O 0.54266 0.6768 0.08205 0.0
O251 O 0.57248 0.73782 0.03256 0.0
C252 C 0.47423 0.23063 0.20125 0.0
C253 C 0.44541 0.19896 0.24609 0.0
C254 C 0.39312 0.21334 0.20644 0.0
C255 C 0.42111 0.24296 0.15674 0.0
N256 N 0.48661 0.27529 0.09702 0.0
N257 N 0.37683 0.15537 0.2851 0.0
C258 C 0.46133 0.25062 0.15172 0.0
C259 C 0.40456 0.1888 0.2467 0.0
N260 N 0.51406 0.2422 0.20737 0.0
N261 N 0.35597 0.20938 0.21587 0.0
H262 H 0.38453 0.1366 0.31449 0.0
H263 H 0.34599 0.14424 0.28256 0.0
H264 H 0.34722 0.22762 0.18756 0.0
H265 H 0.33528 0.19074 0.25618 0.0
H266 H 0.53707 0.26865 0.18382 0.0
H267 H 0.52432 0.22645 0.23977 0.0
H268 H 0.51434 0.27798 0.08444 0.0
H269 H 0.47852 0.291 0.06058 0.0
C270 C 0.22952 0.46917 0.52949 0.0
C271 C 0.23386 0.43713 0.55784 0.0
C272 C 0.16867 0.38795 0.50846 0.0
C273 C 0.16472 0.41978 0.47713 0.0
N274 N 0.19495 0.49041 0.44418 0.0
N275 N 0.21342 0.36706 0.56211 0.0
C276 C 0.19606 0.46043 0.48392 0.0
C277 C 0.20529 0.39675 0.54277 0.0
N278 N 0.25666 0.50786 0.54874 0.0
N279 N 0.13693 0.34947 0.50666 0.0
H280 H 0.24061 0.37344 0.58679 0.0
H281 H 0.19528 0.33702 0.54757 0.0
H282 H 0.10927 0.34238 0.48332 0.0
H283 H 0.13669 0.3253 0.53392 0.0
H284 H 0.25224 0.53213 0.53873 0.0
H285 H 0.28298 0.51532 0.57797 0.0
H286 H 0.21922 0.51959 0.43997 0.0
H287 H 0.17076 0.48576 0.41118 0.0
C288 C 0.79978 0.21848 0.88977 0.0
C289 C 0.78575 0.24605 0.8951 0.0
C290 C 0.72851 0.20431 0.81605 0.0
C291 C 0.74027 0.17455 0.81722 0.0
N292 N 0.78383 0.1505 0.86032 0.0
N293 N 0.73801 0.26707 0.86632 0.0
C294 C 0.77513 0.18091 0.8555 0.0
C295 C 0.75069 0.23973 0.8582 0.0
N296 N 0.83666 0.22858 0.9181 0.0
N297 N 0.69709 0.19931 0.77264 0.0
H298 H 0.7555 0.29468 0.89266 0.0
H299 H 0.70994 0.26205 0.84958 0.0
H300 H 0.6784 0.17274 0.74479 0.0
H301 H 0.69036 0.22195 0.76169 0.0
H302 H 0.85028 0.21118 0.91161 0.0
H303 H 0.85523 0.25651 0.94263 0.0
H304 H 0.80709 0.15193 0.89245 0.0
H305 H 0.76543 0.12225 0.8369 0.0
C306 C 0.50839 0.72752 0.16036 0.0
C307 C 0.54728 0.73185 0.15537 0.0
C308 C 0.57483 0.79038 0.23603 0.0
C309 C 0.53556 0.78391 0.24633 0.0
N310 N 0.46414 0.7449 0.22669 0.0
N311 N 0.61593 0.76234 0.19573 0.0
C312 C 0.50203 0.75219 0.21055 0.0
C313 C 0.58007 0.76181 0.19566 0.0
N314 N 0.47803 0.70097 0.11527 0.0
N315 N 0.60694 0.82415 0.26444 0.0
H316 H 0.62003 0.74093 0.16728 0.0
H317 H 0.64022 0.78142 0.22903 0.0
H318 H 0.60366 0.84594 0.29333 0.0
H319 H 0.63674 0.83241 0.25368 0.0
H320 H 0.45069 0.70021 0.10963 0.0
H321 H 0.48074 0.68078 0.08043 0.0
H322 H 0.43811 0.71903 0.21022 0.0
H323 H 0.45873 0.76399 0.26003 0.0
C324 C 0.75205 0.57828 0.55002 0.0
C325 C 0.72351 0.5371 0.55907 0.0
C326 C 0.76357 0.51852 0.48058 0.0
C327 C 0.79457 0.55955 0.47929 0.0
N328 N 0.82083 0.62797 0.51909 0.0
N329 N 0.70219 0.4673 0.53957 0.0
C330 C 0.78946 0.58934 0.51584 0.0
C331 C 0.7291 0.50697 0.52567 0.0
N332 N 0.74304 0.60654 0.57459 0.0
N333 N 0.76598 0.49097 0.436 0.0
H334 H 0.67524 0.45785 0.56851 0.0
H335 H 0.70747 0.44401 0.52567 0.0
H336 H 0.79092 0.49783 0.40295 0.0
H337 H 0.74212 0.46195 0.42777 0.0
H338 H 0.76117 0.63726 0.56463 0.0
H339 H 0.71531 0.59864 0.59909 0.0
H340 H 0.8202 0.6505 0.55028 0.0
H341 H 0.84898 0.63663 0.49577 0.0
C342 C 0.23158 0.82229 0.88403 0.0
C343 C 0.2255 0.8163 0.80609 0.0
C344 C 0.17633 0.74567 0.82739 0.0
C345 C 0.18274 0.75107 0.90574 0.0
N346 N 0.19713 0.80112 1.00241 0.0
N347 N 0.17123 0.77956 0.71794 0.0
C348 C 0.20468 0.79141 0.9329 0.0
C349 C 0.19124 0.78031 0.78159 0.0
N350 N 0.26111 0.85746 0.91241 0.0
N351 N 0.15753 0.70878 0.79495 0.0
H352 H 0.1769 0.80582 0.68984 0.0
H353 H 0.14497 0.75393 0.70129 0.0
H354 H 0.14651 0.68189 0.82412 0.0
H355 H 0.15588 0.70559 0.7367 0.0
H356 H 0.26995 0.85984 0.96838 0.0
H357 H 0.27576 0.88367 0.88055 0.0
H358 H 0.21121 0.83062 1.0219 0.0
H359 H 0.17258 0.78099 0.03504 0.0
C360 C 0.62435 0.15082 0.03833 0.0
C361 C 0.60639 0.14595 0.96697 0.0
C362 C 0.55759 0.16262 1.02171 0.0
C363 C 0.56957 0.15801 0.09447 0.0
N364 N 0.62293 0.16435 0.17206 0.0
N365 N 0.56855 0.1643 0.88625 0.0
C366 C 0.60682 0.15905 0.10213 0.0
C367 C 0.57753 0.15831 0.95733 0.0
N368 N 0.65601 0.14435 0.04519 0.0
N369 N 0.52455 0.16688 1.01504 0.0
H370 H 0.58438 0.16228 0.84031 0.0
H371 H 0.54876 0.17456 0.87362 0.0
H372 H 0.51055 0.17051 0.06233 0.0
H373 H 0.51089 0.16612 0.96422 0.0
H374 H 0.66897 0.14383 0.09608 0.0
H375 H 0.66915 0.13932 0.99813 0.0
H376 H 0.65055 0.16662 0.18334 0.0
H377 H 0.60895 0.16905 0.2182 0.0
C378 C 0.44238 0.61794 0.33688 0.0
C379 C 0.42079 0.59162 0.2775 0.0
C380 C 0.36706 0.54878 0.3683 0.0
C381 C 0.39473 0.56729 0.42753 0.0
N382 N 0.4523 0.62696 0.47237 0.0
N383 N 0.35681 0.54027 0.23278 0.0
C384 C 0.42992 0.60504 0.41285 0.0
C385 C 0.38063 0.56029 0.2923 0.0
N386 N 0.47469 0.65462 0.32039 0.0
N387 N 0.32846 0.52016 0.38491 0.0
H388 H 0.36618 0.54987 0.17764 0.0
H389 H 0.32859 0.51468 0.23733 0.0
H390 H 0.31789 0.51372 0.44004 0.0
H391 H 0.30607 0.50558 0.34513 0.0
H392 H 0.49155 0.67623 0.36016 0.0
H393 H 0.48232 0.66475 0.26524 0.0
H394 H 0.48017 0.653 0.46779 0.0
H395 H 0.44226 0.61828 0.52753 0.0
C396 C 0.80851 0.38754 0.69492 0.0
C397 C 0.81283 0.40803 0.76324 0.0
C398 C 0.80978 0.46214 0.69275 0.0
C399 C 0.81624 0.44697 0.62545 0.0
N400 N 0.80803 0.38994 0.55744 0.0
N401 N 0.80107 0.45538 0.82882 0.0
C402 C 0.8096 0.40707 0.62518 0.0
C403 C 0.80699 0.44186 0.76221 0.0
N404 N 0.80607 0.35086 0.69727 0.0
N405 N 0.8098 0.49766 0.68986 0.0
H406 H 0.79815 0.43966 0.87846 0.0
H407 H 0.7963 0.47963 0.83443 0.0
H408 H 0.81135 0.51171 0.63852 0.0
H409 H 0.80822 0.51291 0.73662 0.0
H410 H 0.80476 0.33436 0.65022 0.0
H411 H 0.80386 0.33624 0.7481 0.0
H412 H 0.80413 0.36134 0.5505 0.0
H413 H 0.80933 0.40481 0.50725 0.0
C414 C 0.41615 0.83859 0.95666 0.0
C415 C 0.39254 0.85711 0.96848 0.0
C416 C 0.39762 0.84887 0.10536 0.0
C417 C 0.42923 0.84047 0.09294 0.0
N418 N 0.46497 0.82174 1.00748 0.0
N419 N 0.35698 0.87606 0.05502 0.0
C420 C 0.43636 0.83237 1.01859 0.0
C421 C 0.38114 0.85992 0.0433 0.0
N422 N 0.4196 0.82773 0.88555 0.0
N423 N 0.38518 0.84837 0.17734 0.0
H424 H 0.34358 0.88291 1.01083 0.0
H425 H 0.35114 0.88373 0.10761 0.0
H426 H 0.39742 0.8407 0.22243 0.0
H427 H 0.36093 0.85204 0.19165 0.0
H428 H 0.43468 0.8124 0.87189 0.0
H429 H 0.40346 0.83074 0.84145 0.0
H430 H 0.47568 0.81974 0.95491 0.0
H431 H 0.47876 0.81599 0.05263 0.0
C432 C 0.57346 0.39808 0.28891 0.0
C433 C 0.5326 0.36706 0.28717 0.0
C434 C 0.53387 0.36184 0.42413 0.0
C435 C 0.5687 0.40067 0.42583 0.0
N436 N 0.62743 0.451 0.36256 0.0
N437 N 0.47787 0.31168 0.34982 0.0
C438 C 0.59118 0.41641 0.35895 0.0
C439 C 0.51474 0.34546 0.35394 0.0
N440 N 0.59343 0.41193 0.22239 0.0
N441 N 0.51775 0.34282 0.49061 0.0
H442 H 0.46453 0.30005 0.29801 0.0
H443 H 0.46082 0.29552 0.39617 0.0
H444 H 0.53171 0.35571 0.54122 0.0
H445 H 0.49281 0.31414 0.49543 0.0
H446 H 0.6236 0.43384 0.21776 0.0
H447 H 0.57947 0.39888 0.17173 0.0
H448 H 0.64438 0.46684 0.31586 0.0
H449 H 0.64019 0.46382 0.41412 0.0
C450 C 0.16416 0.60419 0.68283 0.0
C451 C 0.14955 0.58114 0.74938 0.0
C452 C 0.14652 0.52327 0.68262 0.0
C453 C 0.14879 0.54249 0.61337 0.0
N454 N 0.17221 0.60452 0.54665 0.0
N455 N 0.1367 0.52214 0.81842 0.0
C456 C 0.16312 0.58461 0.6138 0.0
C457 C 0.14538 0.54212 0.75129 0.0
N458 N 0.1772 0.64427 0.68621 0.0
N459 N 0.14339 0.48631 0.68165 0.0
H460 H 0.13661 0.53621 0.86843 0.0
H461 H 0.12932 0.49226 0.8247 0.0
H462 H 0.14469 0.47318 0.63131 0.0
H463 H 0.14271 0.47037 0.72955 0.0
H464 H 0.18847 0.66401 0.64074 0.0
H465 H 0.1792 0.65787 0.73777 0.0
H466 H 0.18013 0.63452 0.53995 0.0
H467 H 0.17185 0.59001 0.49702 0.0
C468 C 0.32754 0.97934 0.0334 0.0
C469 C 0.34385 -0.00767 0.9607 0.0
C470 C 0.3865 0.06075 1.01054 0.0
C471 C 0.37884 0.04461 0.08432 0.0
N472 N 0.33577 -0.00851 0.16815 0.0
N473 N 0.38013 0.04738 0.8757 0.0
C474 C 0.34619 0.00507 0.09623 0.0
C475 C 0.36941 0.03423 0.94787 0.0
N476 N 0.29555 0.94154 0.04151 0.0
N477 N 0.41264 0.10091 1.00143 0.0
H478 H 0.36767 0.02772 0.83066 0.0
H479 H 0.40059 0.07687 0.8603 0.0
H480 H 0.42513 0.11966 0.04775 0.0
H481 H 0.42035 0.1158 0.9499 0.0
H482 H 0.28087 0.92922 0.09215 0.0
H483 H 0.28194 0.924 0.99442 0.0
H484 H 0.31496 0.96199 0.18295 0.0
H485 H 0.349 0.01084 0.21324 0.0
C486 C 0.3509 0.39124 0.28039 0.0
C487 C 0.3738 0.37158 0.28578 0.0
C488 C 0.36249 0.36646 0.42243 0.0
C489 C 0.35033 0.39564 0.41787 0.0
N490 N 0.32662 0.43137 0.3431 0.0
N491 N 0.39771 0.3361 0.3624 0.0
C492 C 0.34141 0.40565 0.34671 0.0
C493 C 0.3774 0.35674 0.35688 0.0
N494 N 0.33921 0.39669 0.21129 0.0
N495 N 0.36049 0.34904 0.49028 0.0
H496 H 0.40748 0.32728 0.31533 0.0
H497 H 0.4059 0.32885 0.41329 0.0
H498 H 0.34774 0.35511 0.53658 0.0
H499 H 0.36696 0.32599 0.49834 0.0
H500 H 0.32099 0.40922 0.20227 0.0
H501 H 0.34459 0.38436 0.16378 0.0
H502 H 0.32377 0.44416 0.29349 0.0
H503 H 0.31812 0.44057 0.39149 0.0
C504 C 0.00863 0.37939 0.70106 0.0
C505 C -0.0066 0.37617 0.62757 0.0
C506 C 0.92478 0.34477 0.6791 0.0
C507 C 0.9407 0.35399 0.75251 0.0
N508 N -0.00649 0.36164 0.83333 0.0
N509 N 0.93731 0.34039 0.54633 0.0
C510 C 0.98135 0.36479 0.76325 0.0
C511 C 0.95134 0.35316 0.61671 0.0
N512 N 0.0492 0.39891 0.71132 0.0
N513 N 0.88476 0.3307 0.66927 0.0
H514 H 0.95722 0.34535 0.50229 0.0
H515 H 0.90704 0.32186 0.53378 0.0
H516 H 0.86518 0.32321 0.71504 0.0
H517 H 0.87151 0.32751 0.61695 0.0
H518 H 0.0627 0.4066 0.76387 0.0
H519 H 0.06916 0.40833 0.66586 0.0
H520 H 0.02234 0.36718 0.84547 0.0
H521 H 0.97271 0.34907 0.87722 0.0
C522 C 0.60255 0.93573 0.04706 0.0
C523 C 0.60987 0.95779 0.11475 0.0
C524 C 0.65142 0.02092 0.04336 0.0
C525 C 0.63701 -0.00035 0.97546 0.0
N526 N 0.61361 0.93755 0.91144 0.0
N527 N 0.65404 0.01849 0.17987 0.0
C528 C 0.61826 0.95709 0.97756 0.0
C529 C 0.63927 -0.00052 0.11338 0.0
N530 N 0.57839 0.89493 0.04836 0.0
N531 N 0.67361 0.06188 0.04047 0.0
H532 H 0.64539 0.00266 0.23054 0.0
H533 H 0.67687 0.04828 0.1845 0.0
H534 H 0.68358 0.07734 0.98945 0.0
H535 H 0.68153 0.0803 0.08734 0.0
H536 H 0.56725 0.87744 1.00047 0.0
H537 H 0.56961 0.87835 0.09816 0.0
H538 H 0.60219 0.9067 0.90712 0.0
H539 H 0.62453 0.95358 0.86116 0.0
C540 C 0.57805 0.59948 0.4334 0.0
C541 C 0.59464 0.57366 0.42853 0.0
C542 C 0.60516 0.58856 0.29309 0.0
C543 C 0.57936 0.60484 0.29606 0.0
N544 N 0.54814 0.63409 0.36798 0.0
N545 N 0.62863 0.54733 0.35416 0.0
C546 C 0.56919 0.6141 0.36646 0.0
C547 C 0.61083 0.57039 0.35877 0.0
N548 N 0.56908 0.60813 0.50238 0.0
N549 N 0.62355 0.59023 0.22665 0.0
H550 H 0.63465 0.53511 0.40138 0.0
H551 H 0.63644 0.53942 0.30368 0.0
H552 H 0.62053 0.60536 0.18047 0.0
H553 H 0.64454 0.58088 0.21979 0.0
H554 H 0.55889 0.62824 0.51199 0.0
H555 H 0.57449 0.59651 0.55092 0.0
H556 H 0.53554 0.63859 0.41606 0.0
H557 H 0.54312 0.64603 0.31906 0.0
C558 C 0.96699 0.60509 0.76671 0.0
C559 C 0.00973 0.62493 0.76811 0.0
C560 C 0.0112 0.63464 0.63146 0.0
C561 C 0.96889 0.6088 0.62865 0.0
N562 N 0.90568 0.58149 0.69355 0.0
N563 N 0.07042 0.67406 0.70816 0.0
C564 C 0.9465 0.59878 0.69663 0.0
C565 C 0.03113 0.64517 0.70238 0.0
N566 N 0.94637 0.58983 0.83238 0.0
N567 N 0.03233 0.64702 0.56575 0.0
H568 H 0.08361 0.68381 0.76054 0.0
H569 H 0.08785 0.69133 0.66302 0.0
H570 H 0.01782 0.64113 0.51408 0.0
H571 H 0.06356 0.66183 0.56241 0.0
H572 H 0.91539 0.5711 0.83621 0.0
H573 H 0.96125 0.59566 0.88374 0.0
H574 H 0.8872 0.57469 0.74051 0.0
H575 H 0.89055 0.57712 0.6429 0.0
C576 C 0.49573 0.00206 0.3831 0.0
C577 C 0.46458 0.00331 0.3428 0.0
C578 C 0.42228 0.93115 0.36194 0.0
C579 C 0.45845 0.9308 0.36767 0.0
N580 N 0.51557 0.95864 0.44787 0.0
N581 N 0.39535 0.97009 0.30488 0.0
C582 C 0.48937 0.96378 0.40479 0.0
C583 C 0.42559 0.96854 0.34157 0.0
N584 N 0.53285 0.03538 0.38652 0.0
N585 N 0.3873 0.89551 0.35828 0.0
H586 H 0.39905 -0.0027 0.28451 0.0
H587 H 0.36807 0.94475 0.29171 0.0
H588 H 0.3873 0.8685 0.36509 0.0
H589 H 0.35929 0.893 0.35081 0.0
H590 H 0.558 0.03471 0.40627 0.0
H591 H 0.53813 0.06309 0.36573 0.0
H592 H 0.53957 0.98214 0.47559 0.0
H593 H 0.51096 0.92988 0.45821 0.0
C594 C 0.42767 0.42154 0.70023 0.0
C595 C 0.4436 0.46414 0.70449 0.0
C596 C 0.50462 0.47012 0.75694 0.0
C597 C 0.49452 0.43494 0.71688 0.0
N598 N 0.44046 0.36729 0.73362 0.0
N599 N 0.48717 0.52261 0.77531 0.0
C600 C 0.45336 0.40694 0.72343 0.0
C601 C 0.47852 0.48625 0.74817 0.0
N602 N 0.39547 0.3978 0.65689 0.0
N603 N 0.53739 0.4865 0.80189 0.0
H604 H 0.46778 0.53394 0.76628 0.0
H605 H 0.51144 0.53921 0.81011 0.0
H606 H 0.55464 0.47265 0.80852 0.0
H607 H 0.54562 0.5117 0.83487 0.0
H608 H 0.3861 0.36756 0.64795 0.0
H609 H 0.38159 0.40953 0.62367 0.0
H610 H 0.40998 0.34587 0.7377 0.0
H611 H 0.46095 0.35742 0.74296 0.0
C612 C 0.97728 0.49104 0.0683 0.0
C613 C 0.96759 0.45651 1.02569 0.0
C614 C 0.03787 0.47409 0.03401 0.0
C615 C 0.04597 0.51381 0.03356 0.0
N616 N 0.03212 0.55405 0.11555 0.0
N617 N -0.0105 0.4122 0.97577 0.0
C618 C 0.01861 0.52001 0.07539 0.0
C619 C -0.00258 0.44488 1.01724 0.0
N620 N 0.94753 0.49848 0.08908 0.0
N621 N 0.06916 0.46729 0.02619 0.0
H622 H 0.96132 0.39369 0.95295 0.0
H623 H 0.01154 0.40546 0.95996 0.0
H624 H 0.0987 0.49105 0.02887 0.0
H625 H 0.06585 0.43906 1.01799 0.0
H626 H 0.95287 0.52622 0.10855 0.0
H627 H 0.91736 0.4766 0.08222 0.0
H628 H 0.01327 0.56152 0.14406 0.0
H629 H 0.06282 0.57379 0.12086 0.0
C630 C -0.0101 0.49947 0.30983 0.0
C631 C -0.00839 0.4689 0.35131 0.0
C632 C 0.91862 0.4295 0.34396 0.0
C633 C 0.91991 0.46649 0.34491 0.0
N634 N 0.94573 0.52296 0.26234 0.0
N635 N 0.95477 0.4014 0.4029 0.0
C636 C 0.95183 0.49682 0.30341 0.0
C637 C 0.95544 0.4311 0.36014 0.0
N638 N 0.02468 0.53302 0.2894 0.0
N639 N 0.88318 0.39528 0.35603 0.0
H640 H 0.98056 0.40402 0.42696 0.0
H641 H 0.92785 0.3759 0.41852 0.0
H642 H 0.85589 0.39506 0.35634 0.0
H643 H 0.85589 0.39506 0.35634 0.0
H644 H 0.02596 0.55938 0.2708 0.0
H645 H 0.05228 0.53418 0.29561 0.0
H646 H 0.96837 0.54674 0.23246 0.0
H647 H 0.91699 0.51889 0.25671 0.0
C648 C 0.45647 0.98501 0.65366 0.0
C649 C 0.44257 0.00728 0.69361 0.0
C650 C 0.51014 0.05952 0.71379 0.0
C651 C 0.52038 0.02859 0.71208 0.0
N652 N 0.51107 0.97008 0.64718 0.0
N653 N 0.45743 0.07567 0.68856 0.0
C654 C 0.49634 -0.0059 0.66889 0.0
C655 C 0.47038 0.04871 0.69315 0.0
N656 N 0.43232 0.95659 0.60383 0.0
N657 N 0.53443 0.09512 0.74804 0.0
H658 H 0.42697 0.06596 0.68276 0.0
H659 H 0.47701 0.10665 0.68637 0.0
H660 H 0.56154 0.10126 0.772 0.0
H661 H 0.52624 0.1169 0.75658 0.0
H662 H 0.44205 0.94105 0.56999 0.0
H663 H 0.40337 0.95117 0.59352 0.0
H664 H 0.4945 0.9443 0.61572 0.0
H665 H 0.54049 0.97742 0.65999 0.0
C666 C 0.54575 0.52748 1.01692 0.0
C667 C 0.50586 0.52039 1.00534 0.0
C668 C 0.48737 0.45461 0.95688 0.0
C669 C 0.51899 0.45742 1.00113 0.0
N670 N 0.59025 0.5002 1.00087 0.0
N671 N 0.45022 0.48868 0.92208 0.0
C672 C 0.55308 0.49592 0.99776 0.0
C673 C 0.48071 0.48794 0.9588 0.0
N674 N 0.57143 0.55636 0.06455 0.0
N675 N 0.46525 0.42146 0.91471 0.0
H676 H 0.44568 0.51326 0.92707 0.0
H677 H 0.43225 0.46692 0.88363 0.0
H678 H 0.47276 0.39895 0.91156 0.0
H679 H 0.44126 0.41734 0.88155 0.0
H680 H 0.59852 0.55865 0.08091 0.0
H681 H 0.56348 0.57459 0.09375 0.0
H682 H 0.61635 0.52834 0.99902 0.0
H683 H 0.59359 0.47493 1.00282 0.0
C684 C 0.35724 0.0222 0.60144 0.0
C685 C 0.34732 0.98302 0.57886 0.0
C686 C 0.35983 0.00663 0.44811 0.0
C687 C 0.38134 0.04674 0.47211 0.0
N688 N 0.3853 0.09263 0.56933 0.0
N689 N 0.34072 0.93817 0.4775 0.0
C690 C 0.37555 0.0547 0.54837 0.0
C691 C 0.34855 0.97513 0.50118 0.0
N692 N 0.34685 0.02775 0.67202 0.0
N693 N 0.34656 -0.00134 0.37615 0.0
H694 H 0.33646 0.91496 0.51375 0.0
H695 H 0.34231 0.93202 0.42127 0.0
H696 H 0.35141 0.02179 0.33903 0.0
H697 H 0.32647 0.96969 0.35766 0.0
H698 H 0.35012 0.05475 0.69122 0.0
H699 H 0.33218 0.00423 0.71058 0.0
H700 H 0.38962 0.10226 0.62476 0.0
H701 H 0.38625 0.11375 0.53112 0.0
C702 C 0.36305 0.39412 0.94549 0.0
C703 C 0.35601 0.35445 0.93354 0.0
C704 C 0.32819 0.35399 0.80867 0.0
C705 C 0.33758 0.39423 0.81821 0.0
N706 N 0.35832 0.4513 0.89877 0.0
N707 N 0.30979 0.29174 0.87279 0.0
C708 C 0.35296 0.41369 0.88802 0.0
C709 C 0.33226 0.33275 0.87049 0.0
N710 N 0.37875 0.41283 1.01207 0.0
N711 N 0.31451 0.33558 0.74111 0.0
H712 H 0.30483 0.27532 0.92234 0.0
H713 H 0.29032 0.27476 0.83003 0.0
H714 H 0.30958 0.3497 0.69548 0.0
H715 H 0.31147 0.30767 0.7288 0.0
H716 H 0.38917 0.44305 1.02255 0.0
H717 H 0.3802 0.39751 0.05909 0.0
H718 H 0.3644 0.46574 0.95025 0.0
H719 H 0.3569 0.46862 0.855 0.0
C720 C 0.96673 0.34948 0.11904 0.0
C721 C 0.92899 0.34261 0.14562 0.0
C722 C 0.95364 0.34469 0.27393 0.0
C723 C -0.0064 0.36504 0.24753 0.0
N724 N 0.03851 0.38403 0.14027 0.0
N725 N 0.88719 0.33431 0.25484 0.0
C726 C 0.00034 0.36637 0.16852 0.0
C727 C 0.92235 0.33985 0.22503 0.0
N728 N 0.96983 0.33757 0.04851 0.0
N729 N 0.94537 0.32798 0.34402 0.0
H730 H 0.86591 0.33739 0.22401 0.0
H731 H 0.88124 0.33112 0.31226 0.0
H732 H 0.96796 0.32993 0.3792 0.0
H733 H 0.91618 0.30901 0.36344 0.0
H734 H -0.00451 0.33785 0.02866 0.0
H735 H 0.94517 0.32334 1.01283 0.0
H736 H 0.04475 0.38413 0.08351 0.0
H737 H 0.06408 0.40071 0.17257 0.0
C738 C 0.62826 0.01059 0.51678 0.0
C739 C 0.63188 0.0006 0.59268 0.0
C740 C 0.61433 0.93289 0.55248 0.0
C741 C 0.60454 0.94097 0.4796 0.0
N742 N 0.622 -0.00792 0.38558 0.0
N743 N 0.6252 0.95121 0.68397 0.0
C744 C 0.61714 0.98125 0.45966 0.0
C745 C 0.62382 0.96138 0.61091 0.0
N746 N 0.63389 0.04777 0.49948 0.0
N747 N 0.6193 0.90042 0.56374 0.0
H748 H 0.63356 0.97179 0.72766 0.0
H749 H 0.615 0.92173 0.7017 0.0
H750 H 0.62063 0.8835 0.51943 0.0
H751 H 0.62897 0.89447 0.61426 0.0
H752 H 0.62686 0.05532 0.44775 0.0
H753 H 0.64241 0.0704 0.53874 0.0
H754 H 0.63422 0.02156 0.36629 0.0
H755 H 0.61927 0.9721 0.34357 0.0
C756 C 0.62871 0.61491 0.9198 0.0
C757 C 0.59535 0.61989 0.90437 0.0
C758 C 0.59305 0.59584 0.77555 0.0
C759 C 0.6214 0.584 0.79531 0.0
N760 N 0.68206 0.60638 0.86747 0.0
N761 N 0.54591 0.61645 0.81707 0.0
C762 C 0.6439 0.60019 0.86248 0.0
C763 C 0.57793 0.61121 0.83169 0.0
N764 N 0.64603 0.62439 0.98909 0.0
N765 N 0.58367 0.59611 0.70191 0.0
H766 H 0.53309 0.62611 0.85746 0.0
H767 H 0.52962 0.6079 0.76744 0.0
H768 H 0.60012 0.59236 0.65945 0.0
H769 H 0.56487 0.60635 0.68228 0.0
H770 H 0.66718 0.61677 1.00699 0.0
H771 H 0.63689 0.6371 0.03087 0.0
H772 H 0.70098 0.62043 0.91268 0.0
H773 H 0.69733 0.60388 0.82124 0.0
C774 C -0.00671 0.62805 0.11717 0.0
C775 C 0.03341 0.64185 0.14092 0.0
C776 C 0.00925 0.63112 0.27353 0.0
C777 C 0.96952 0.61851 0.24987 0.0
N778 N 0.92586 0.61329 0.14621 0.0
N779 N 0.08005 0.66678 0.24707 0.0
C780 C 0.96221 0.61953 0.17107 0.0
C781 C 0.04158 0.6465 0.22031 0.0
N782 N -0.01567 0.62292 0.04238 0.0
N783 N 0.01659 0.62828 0.34773 0.0
H784 H 0.10616 0.6773 0.21585 0.0
H785 H 0.08669 0.67647 0.3024 0.0
H786 H -0.00423 0.62263 0.39025 0.0
H787 H 0.04283 0.62953 0.36675 0.0
H788 H 0.95516 0.60562 1.0223 0.0
H789 H 0.00599 0.63494 1.00001 0.0
H790 H 0.92138 0.62057 0.09204 0.0
H791 H 0.90016 0.60282 0.17895 0.0
C792 C 0.54322 0.10238 0.50432 0.0
C793 C 0.55844 0.13938 0.46491 0.0
C794 C 0.61769 0.16828 0.54708 0.0
C795 C 0.60463 0.12958 0.57864 0.0
N796 N 0.56127 0.05795 0.56564 0.0
N797 N 0.613 0.20674 0.44258 0.0
C798 C 0.5692 0.09611 0.55122 0.0
C799 C 0.59656 0.17223 0.48461 0.0
N800 N 0.50356 0.07356 0.49995 0.0
N801 N 0.64954 0.20128 0.57783 0.0
H802 H 0.59854 0.2102 0.396 0.0
H803 H 0.64226 0.23034 0.4497 0.0
H804 H 0.66525 0.19933 0.62378 0.0
H805 H 0.65805 0.23066 0.56212 0.0
H806 H 0.49086 0.04751 0.53285 0.0
H807 H 0.48257 0.07711 0.46904 0.0
H808 H 0.53768 0.03307 0.54008 0.0
H809 H 0.57974 0.05128 0.59802 0.0
C810 C 0.37369 0.55759 0.87917 0.0
C811 C 0.38018 0.56097 0.79971 0.0
C812 C 0.44676 0.61996 0.81725 0.0
C813 C 0.44131 0.61486 0.89699 0.0
N814 N 0.39348 0.59167 0.99874 0.0
N815 N 0.41466 0.60485 0.69536 0.0
C816 C 0.40266 0.58788 0.92615 0.0
C817 C 0.41411 0.59528 0.76958 0.0
N818 N 0.34163 0.52475 0.9113 0.0
N819 N 0.483 0.64653 0.78556 0.0
H820 H 0.39054 0.58797 0.65967 0.0
H821 H 0.43664 0.63184 0.67158 0.0
H822 H 0.50767 0.66838 0.81413 0.0
H823 H 0.4894 0.64577 0.72892 0.0
H824 H 0.33927 0.51915 0.96893 0.0
H825 H 0.31886 0.50107 0.88206 0.0
H826 H 0.36458 0.57529 1.02124 0.0
H827 H 0.4137 0.61475 0.03341 0.0
C828 C 0.80537 0.39367 0.20872 0.0
C829 C 0.81536 0.40259 0.13074 0.0
C830 C 0.83981 0.47357 0.15535 0.0
C831 C 0.82746 0.46463 0.23171 0.0
N832 N 0.78671 0.41407 0.32359 0.0
N833 N 0.82661 0.44872 0.02876 0.0
C834 C 0.80613 0.42391 0.25582 0.0
C835 C 0.82727 0.44176 0.10376 0.0
N836 N 0.7979 0.35793 0.24 0.0
N837 N 0.86615 0.51192 0.13239 0.0
H838 H 0.81536 0.42546 0.98992 0.0
H839 H 0.83236 0.4764 1.00706 0.0
H840 H 0.88003 0.53576 0.16933 0.0
H841 H 0.87832 0.51894 0.07834 0.0
H842 H 0.79219 0.35131 0.29698 0.0
H843 H 0.80158 0.3362 0.21273 0.0
H844 H 0.76741 0.3845 0.34074 0.0
H845 H 0.78625 0.43541 0.35884 0.0
C846 C 0.39042 0.81785 0.48698 0.0
C847 C 0.43258 0.83805 0.4952 0.0
C848 C 0.42592 0.86038 0.62178 0.0
C849 C 0.38439 0.84554 0.60779 0.0
N850 N 0.32628 0.79037 0.5505 0.0
N851 N 0.49116 0.87481 0.57303 0.0
C852 C 0.36624 0.81841 0.547 0.0
C853 C 0.45049 0.85789 0.56389 0.0
N854 N 0.37339 0.79818 0.42176 0.0
N855 N 0.44116 0.87416 0.69153 0.0
H856 H 0.51015 0.87437 0.53187 0.0
H857 H 0.50715 0.8908 0.61975 0.0
H858 H 0.42318 0.87084 0.73761 0.0
H859 H 0.47069 0.88439 0.70736 0.0
H860 H 0.34315 0.78679 0.40918 0.0
H861 H 0.39016 0.79612 0.37761 0.0
H862 H 0.31181 0.76771 0.51106 0.0
H863 H 0.30905 0.78609 0.59869 0.0
C864 C 0.54292 0.36938 0.7759 0.0
C865 C 0.57656 0.40554 0.80116 0.0
C866 C 0.55744 0.38291 0.93185 0.0
C867 C 0.51955 0.35271 0.90571 0.0
N868 N 0.48914 0.3027 0.8093 0.0
N869 N 0.61964 0.44442 0.90434 0.0
C870 C 0.51587 0.3413 0.8294 0.0
C871 C 0.58559 0.41122 0.87954 0.0
N872 N 0.53688 0.36191 0.7008 0.0
N873 N 0.56597 0.38398 1.00655 0.0
H874 H 0.63642 0.47039 0.87261 0.0
H875 H 0.63083 0.44782 0.95843 0.0
H876 H 0.54726 0.36067 0.04308 0.0
H877 H 0.59241 0.40531 0.03173 0.0
H878 H 0.51018 0.33918 0.67841 0.0
H879 H 0.55846 0.37936 0.66056 0.0
H880 H 0.48643 0.29185 0.75496 0.0
H881 H 0.4742 0.27982 0.84891 0.0
C882 C 0.15689 0.52633 0.16168 0.0
C883 C 0.145 0.5267 0.23775 0.0
C884 C 0.13803 0.58506 0.21012 0.0
C885 C 0.14708 0.58355 0.13313 0.0
N886 N 0.17519 0.55981 0.03937 0.0
N887 N 0.14945 0.57117 0.33688 0.0
C888 C 0.15945 0.55615 0.10982 0.0
C889 C 0.14368 0.56086 0.26289 0.0
N890 N 0.16696 0.49856 0.13932 0.0
N891 N 0.12164 0.60767 0.23299 0.0
H892 H 0.15822 0.55645 0.37535 0.0
H893 H 0.15139 0.59754 0.35703 0.0
H894 H 0.11354 0.62327 0.19576 0.0
H895 H 0.11161 0.60686 0.28776 0.0
H896 H 0.16796 0.49137 0.0834 0.0
H897 H 0.17659 0.48429 0.17688 0.0
H898 H 0.1881 0.54325 1.02031 0.0
H899 H 0.17792 0.58166 1.00097 0.0
loop_
_geom_bond_atom_site_label_1
_geom_bond_atom_site_label_2
_geom_bond_distance
_geom_bond_site_symmetry_2
_ccdc_geom_bond_type
O0 Mn1 2.163 . S
O0 C14 1.244 . S
Mn1 O0 2.163 . S
Mn1 O4 2.160 . S
Mn1 O5 2.221 . S
Mn1 O7 2.163 . S
Mn1 O9 2.160 . S
Mn1 O19 2.221 . S
O2 Mn3 2.087 . S
O2 C14 1.256 . S
Mn3 O2 2.087 . S
Mn3 O10 2.089 . S
Mn3 O19 2.290 . S
Mn3 O20 2.251 . S
O4 Mn1 2.160 . S
O4 C15 1.239 . S
O5 Mn1 2.221 . S
O5 Mn6 2.290 . S
O5 C16 1.278 . S
Mn6 O5 2.290 . S
Mn6 O8 2.089 . S
Mn6 O11 2.251 . S
Mn6 O12 2.087 . S
O7 Mn1 2.163 . S
O7 C17 1.244 . S
O8 Mn6 2.089 . S
O8 C15 1.256 . S
O9 Mn1 2.160 . S
O9 C18 1.239 . S
O10 Mn3 2.089 . S
O10 C18 1.256 . S
O11 Mn6 2.251 . S
O11 C16 1.241 . S
O12 Mn6 2.087 . S
O12 C17 1.256 . S
C13 O19 1.278 . S
C13 O20 1.241 . S
C14 O0 1.244 . S
C14 O2 1.256 . S
C15 O4 1.239 . S
C15 O8 1.256 . S
C16 O5 1.278 . S
C16 O11 1.241 . S
C17 O7 1.244 . S
C17 O12 1.256 . S
C18 O9 1.239 . S
C18 O10 1.256 . S
O19 Mn1 2.221 . S
O19 Mn3 2.290 . S
O19 C13 1.278 . S
O20 Mn3 2.251 . S
O20 C13 1.241 . S
O21 Mn22 2.163 . S
O21 C35 1.244 . S
Mn22 O21 2.163 . S
Mn22 O25 2.160 . S
Mn22 O26 2.221 . S
Mn22 O28 2.163 . S
Mn22 O30 2.160 . S
Mn22 O40 2.221 . S
O23 Mn24 2.087 . S
O23 C35 1.256 . S
Mn24 O23 2.087 . S
Mn24 O31 2.089 . S
Mn24 O40 2.290 . S
Mn24 O41 2.251 . S
O25 Mn22 2.160 . S
O25 C36 1.239 . S
O26 Mn22 2.221 . S
O26 Mn27 2.290 . S
O26 C37 1.278 . S
Mn27 O26 2.290 . S
Mn27 O29 2.089 . S
Mn27 O32 2.251 . S
Mn27 O33 2.087 . S
O28 Mn22 2.163 . S
O28 C38 1.244 . S
O29 Mn27 2.089 . S
O29 C36 1.256 . S
O30 Mn22 2.160 . S
O30 C39 1.239 . S
O31 Mn24 2.089 . S
O31 C39 1.256 . S
O32 Mn27 2.251 . S
O32 C37 1.241 . S
O33 Mn27 2.087 . S
O33 C38 1.256 . S
C34 O40 1.278 . S
C34 O41 1.241 . S
C35 O21 1.244 . S
C35 O23 1.256 . S
C36 O25 1.239 . S
C36 O29 1.256 . S
C37 O26 1.278 . S
C37 O32 1.241 . S
C38 O28 1.244 . S
C38 O33 1.256 . S
C39 O30 1.239 . S
C39 O31 1.256 . S
O40 Mn22 2.221 . S
O40 Mn24 2.290 . S
O40 C34 1.278 . S
O41 Mn24 2.251 . S
O41 C34 1.241 . S
O42 Mn43 2.163 1_554 S
O42 C56 1.244 . S
Mn43 O42 2.163 1_556 S
Mn43 O46 2.160 . S
Mn43 O47 2.221 . S
Mn43 O49 2.163 . S
Mn43 O51 2.161 . S
Mn43 O61 2.221 . S
O44 Mn45 2.087 . S
O44 C56 1.256 . S
Mn45 O44 2.087 . S
Mn45 O52 2.089 . S
Mn45 O61 2.290 1_554 S
Mn45 O62 2.251 1_554 S
O46 Mn43 2.160 . S
O46 C57 1.239 . S
O47 Mn43 2.221 . S
O47 Mn48 2.290 . S
O47 C58 1.278 . S
Mn48 O47 2.290 . S
Mn48 O50 2.089 . S
Mn48 O53 2.251 . S
Mn48 O54 2.087 . S
O49 Mn43 2.163 . S
O49 C59 1.244 . S
O50 Mn48 2.089 . S
O50 C57 1.256 . S
O51 Mn43 2.161 . S
O51 C60 1.237 1_556 S
O52 Mn45 2.089 . S
O52 C60 1.256 . S
O53 Mn48 2.251 . S
O53 C58 1.241 . S
O54 Mn48 2.087 . S
O54 C59 1.256 . S
C55 O61 1.278 . S
C55 O62 1.241 . S
C56 O42 1.244 . S
C56 O44 1.256 . S
C57 O46 1.239 . S
C57 O50 1.256 . S
C58 O47 1.278 . S
C58 O53 1.241 . S
C59 O49 1.244 . S
C59 O54 1.256 . S
C60 O51 1.237 1_554 S
C60 O52 1.256 . S
O61 Mn43 2.221 . S
O61 Mn45 2.290 1_556 S
O61 C55 1.278 . S
O62 Mn45 2.251 1_556 S
O62 C55 1.241 . S
O63 Mn64 2.163 . S
O63 C77 1.244 . S
Mn64 O63 2.163 . S
Mn64 O67 2.160 . S
Mn64 O68 2.221 . S
Mn64 O70 2.163 . S
Mn64 O72 2.160 . S
Mn64 O82 2.221 . S
O65 Mn66 2.087 . S
O65 C77 1.256 . S
Mn66 O65 2.087 . S
Mn66 O73 2.089 . S
Mn66 O82 2.290 . S
Mn66 O83 2.251 . S
O67 Mn64 2.160 . S
O67 C78 1.239 . S
O68 Mn64 2.221 . S
O68 Mn69 2.290 . S
O68 C79 1.278 . S
Mn69 O68 2.290 . S
Mn69 O71 2.089 . S
Mn69 O74 2.251 . S
Mn69 O75 2.087 . S
O70 Mn64 2.163 . S
O70 C80 1.244 . S
O71 Mn69 2.089 . S
O71 C78 1.256 . S
O72 Mn64 2.160 . S
O72 C81 1.239 . S
O73 Mn66 2.089 . S
O73 C81 1.256 . S
O74 Mn69 2.251 . S
O74 C79 1.241 . S
O75 Mn69 2.087 . S
O75 C80 1.256 . S
C76 O82 1.278 . S
C76 O83 1.241 . S
C77 O63 1.244 . S
C77 O65 1.256 . S
C78 O67 1.239 . S
C78 O71 1.256 . S
C79 O68 1.278 . S
C79 O74 1.241 . S
C80 O70 1.244 . S
C80 O75 1.256 . S
C81 O72 1.239 . S
C81 O73 1.256 . S
O82 Mn64 2.221 . S
O82 Mn66 2.290 . S
O82 C76 1.278 . S
O83 Mn66 2.251 . S
O83 C76 1.241 . S
O84 Mn85 2.163 . S
O84 C98 1.244 . S
Mn85 O84 2.163 . S
Mn85 O88 2.160 . S
Mn85 O89 2.221 . S
Mn85 O91 2.163 . S
Mn85 O93 2.160 . S
Mn85 O103 2.221 . S
O86 Mn87 2.087 . S
O86 C98 1.256 . S
Mn87 O86 2.087 . S
Mn87 O94 2.089 . S
Mn87 O103 2.290 . S
Mn87 O104 2.251 . S
O88 Mn85 2.160 . S
O88 C99 1.239 . S
O89 Mn85 2.221 . S
O89 Mn90 2.290 . S
O89 C100 1.278 . S
Mn90 O89 2.290 . S
Mn90 O92 2.089 . S
Mn90 O95 2.251 . S
Mn90 O96 2.087 . S
O91 Mn85 2.163 . S
O91 C101 1.244 . S
O92 Mn90 2.089 . S
O92 C99 1.256 . S
O93 Mn85 2.160 . S
O93 C102 1.239 . S
O94 Mn87 2.089 . S
O94 C102 1.256 . S
O95 Mn90 2.251 . S
O95 C100 1.241 . S
O96 Mn90 2.087 . S
O96 C101 1.256 . S
C97 O103 1.278 . S
C97 O104 1.241 . S
C98 O84 1.244 . S
C98 O86 1.256 . S
C99 O88 1.239 . S
C99 O92 1.256 . S
C100 O89 1.278 . S
C100 O95 1.241 . S
C101 O91 1.244 . S
C101 O96 1.256 . S
C102 O93 1.239 . S
C102 O94 1.256 . S
O103 Mn85 2.221 . S
O103 Mn87 2.290 . S
O103 C97 1.278 . S
O104 Mn87 2.251 . S
O104 C97 1.241 . S
O105 Mn106 2.163 1_554 S
O105 C119 1.244 . S
Mn106 O105 2.163 1_556 S
Mn106 O109 2.160 . S
Mn106 O110 2.221 . S
Mn106 O112 2.163 . S
Mn106 O114 2.161 . S
Mn106 O124 2.221 . S
O107 Mn108 2.087 . S
O107 C119 1.256 . S
Mn108 O107 2.087 . S
Mn108 O115 2.089 . S
Mn108 O124 2.290 1_554 S
Mn108 O125 2.251 1_554 S
O109 Mn106 2.160 . S
O109 C120 1.239 . S
O110 Mn106 2.221 . S
O110 Mn111 2.290 . S
O110 C121 1.278 . S
Mn111 O110 2.290 . S
Mn111 O113 2.089 . S
Mn111 O116 2.251 . S
Mn111 O117 2.087 . S
O112 Mn106 2.163 . S
O112 C122 1.244 . S
O113 Mn111 2.089 . S
O113 C120 1.256 . S
O114 Mn106 2.161 . S
O114 C123 1.237 1_556 S
O115 Mn108 2.089 . S
O115 C123 1.256 . S
O116 Mn111 2.251 . S
O116 C121 1.241 . S
O117 Mn111 2.087 . S
O117 C122 1.256 . S
C118 O124 1.278 . S
C118 O125 1.241 . S
C119 O105 1.244 . S
C119 O107 1.256 . S
C120 O109 1.239 . S
C120 O113 1.256 . S
C121 O110 1.278 . S
C121 O116 1.241 . S
C122 O112 1.244 . S
C122 O117 1.256 . S
C123 O114 1.237 1_554 S
C123 O115 1.256 . S
O124 Mn106 2.221 . S
O124 Mn108 2.290 1_556 S
O124 C118 1.278 . S
O125 Mn108 2.251 1_556 S
O125 C118 1.241 . S
O126 Mn127 2.163 . S
O126 C140 1.244 . S
Mn127 O126 2.163 . S
Mn127 O130 2.160 . S
Mn127 O131 2.221 . S
Mn127 O133 2.163 . S
Mn127 O135 2.160 . S
Mn127 O145 2.221 . S
O128 Mn129 2.087 . S
O128 C140 1.256 . S
Mn129 O128 2.087 . S
Mn129 O136 2.089 . S
Mn129 O145 2.290 . S
Mn129 O146 2.251 . S
O130 Mn127 2.160 . S
O130 C141 1.239 . S
O131 Mn127 2.221 . S
O131 Mn132 2.290 . S
O131 C142 1.278 . S
Mn132 O131 2.290 . S
Mn132 O134 2.089 . S
Mn132 O137 2.251 . S
Mn132 O138 2.087 . S
O133 Mn127 2.163 . S
O133 C143 1.244 . S
O134 Mn132 2.089 . S
O134 C141 1.256 . S
O135 Mn127 2.160 . S
O135 C144 1.239 . S
O136 Mn129 2.089 . S
O136 C144 1.256 . S
O137 Mn132 2.251 . S
O137 C142 1.241 . S
O138 Mn132 2.087 . S
O138 C143 1.256 . S
C139 O145 1.278 . S
C139 O146 1.241 . S
C140 O126 1.244 . S
C140 O128 1.256 . S
C141 O130 1.239 . S
C141 O134 1.256 . S
C142 O131 1.278 . S
C142 O137 1.241 . S
C143 O133 1.244 . S
C143 O138 1.256 . S
C144 O135 1.239 . S
C144 O136 1.256 . S
O145 Mn127 2.221 . S
O145 Mn129 2.290 . S
O145 C139 1.278 . S
O146 Mn129 2.251 . S
O146 C139 1.241 . S
O147 Mn148 2.163 . S
O147 C161 1.244 . S
Mn148 O147 2.163 . S
Mn148 O151 2.160 . S
Mn148 O152 2.221 . S
Mn148 O154 2.163 . S
Mn148 O156 2.160 . S
Mn148 O166 2.221 . S
O149 Mn150 2.087 . S
O149 C161 1.256 . S
Mn150 O149 2.087 . S
Mn150 O157 2.089 . S
Mn150 O166 2.290 . S
Mn150 O167 2.251 . S
O151 Mn148 2.160 . S
O151 C162 1.239 . S
O152 Mn148 2.221 . S
O152 Mn153 2.290 . S
O152 C163 1.278 . S
Mn153 O152 2.290 . S
Mn153 O155 2.089 . S
Mn153 O158 2.251 . S
Mn153 O159 2.087 . S
O154 Mn148 2.163 . S
O154 C164 1.244 . S
O155 Mn153 2.089 . S
O155 C162 1.256 . S
O156 Mn148 2.160 . S
O156 C165 1.239 . S
O157 Mn150 2.089 . S
O157 C165 1.256 . S
O158 Mn153 2.251 . S
O158 C163 1.241 . S
O159 Mn153 2.087 . S
O159 C164 1.256 . S
C160 O166 1.278 . S
C160 O167 1.241 . S
C161 O147 1.244 . S
C161 O149 1.256 . S
C162 O151 1.239 . S
C162 O155 1.256 . S
C163 O152 1.278 . S
C163 O158 1.241 . S
C164 O154 1.244 . S
C164 O159 1.256 . S
C165 O156 1.239 . S
C165 O157 1.256 . S
O166 Mn148 2.221 . S
O166 Mn150 2.290 . S
O166 C160 1.278 . S
O167 Mn150 2.251 . S
O167 C160 1.241 . S
O168 Mn169 2.163 1_556 S
O168 C182 1.244 . S
Mn169 O168 2.163 1_554 S
Mn169 O172 2.160 . S
Mn169 O173 2.221 . S
Mn169 O175 2.163 . S
Mn169 O177 2.161 . S
Mn169 O187 2.221 . S
O170 Mn171 2.087 . S
O170 C182 1.256 . S
Mn171 O170 2.087 . S
Mn171 O178 2.089 . S
Mn171 O187 2.290 1_556 S
Mn171 O188 2.251 1_556 S
O172 Mn169 2.160 . S
O172 C183 1.239 . S
O173 Mn169 2.221 . S
O173 Mn174 2.290 . S
O173 C184 1.278 . S
Mn174 O173 2.290 . S
Mn174 O176 2.089 . S
Mn174 O179 2.251 . S
Mn174 O180 2.087 . S
O175 Mn169 2.163 . S
O175 C185 1.244 . S
O176 Mn174 2.089 . S
O176 C183 1.256 . S
O177 Mn169 2.161 . S
O177 C186 1.238 1_554 S
O178 Mn171 2.089 . S
O178 C186 1.256 . S
O179 Mn174 2.251 . S
O179 C184 1.241 . S
O180 Mn174 2.087 . S
O180 C185 1.256 . S
C181 O187 1.278 . S
C181 O188 1.241 . S
C182 O168 1.244 . S
C182 O170 1.256 . S
C183 O172 1.239 . S
C183 O176 1.256 . S
C184 O173 1.278 . S
C184 O179 1.241 . S
C185 O175 1.244 . S
C185 O180 1.256 . S
C186 O177 1.238 1_556 S
C186 O178 1.256 . S
O187 Mn169 2.221 . S
O187 Mn171 2.290 1_554 S
O187 C181 1.278 . S
O188 Mn171 2.251 1_554 S
O188 C181 1.241 . S
O189 Mn190 2.163 . S
O189 C203 1.244 . S
Mn190 O189 2.163 . S
Mn190 O193 2.160 . S
Mn190 O194 2.221 . S
Mn190 O196 2.163 . S
Mn190 O198 2.160 . S
Mn190 O208 2.221 . S
O191 Mn192 2.087 . S
O191 C203 1.256 . S
Mn192 O191 2.087 . S
Mn192 O199 2.089 . S
Mn192 O208 2.290 . S
Mn192 O209 2.251 . S
O193 Mn190 2.160 . S
O193 C204 1.239 . S
O194 Mn190 2.221 . S
O194 Mn195 2.290 . S
O194 C205 1.278 . S
Mn195 O194 2.290 . S
Mn195 O197 2.089 . S
Mn195 O200 2.251 . S
Mn195 O201 2.087 . S
O196 Mn190 2.163 . S
O196 C206 1.244 . S
O197 Mn195 2.089 . S
O197 C204 1.256 . S
O198 Mn190 2.160 . S
O198 C207 1.239 . S
O199 Mn192 2.089 . S
O199 C207 1.256 . S
O200 Mn195 2.251 . S
O200 C205 1.241 . S
O201 Mn195 2.087 . S
O201 C206 1.256 . S
C202 O208 1.278 . S
C202 O209 1.241 . S
C203 O189 1.244 . S
C203 O191 1.256 . S
C204 O193 1.239 . S
C204 O197 1.256 . S
C205 O194 1.278 . S
C205 O200 1.241 . S
C206 O196 1.244 . S
C206 O201 1.256 . S
C207 O198 1.239 . S
C207 O199 1.256 . S
O208 Mn190 2.221 . S
O208 Mn192 2.290 . S
O208 C202 1.278 . S
O209 Mn192 2.251 . S
O209 C202 1.241 . S
O210 Mn211 2.163 . S
O210 C224 1.244 . S
Mn211 O210 2.163 . S
Mn211 O214 2.160 . S
Mn211 O215 2.221 . S
Mn211 O217 2.163 . S
Mn211 O219 2.160 . S
Mn211 O229 2.221 . S
O212 Mn213 2.087 . S
O212 C224 1.256 . S
Mn213 O212 2.087 . S
Mn213 O220 2.089 . S
Mn213 O229 2.290 . S
Mn213 O230 2.251 . S
O214 Mn211 2.160 . S
O214 C225 1.239 . S
O215 Mn211 2.221 . S
O215 Mn216 2.290 . S
O215 C226 1.278 . S
Mn216 O215 2.290 . S
Mn216 O218 2.089 . S
Mn216 O221 2.251 . S
Mn216 O222 2.087 . S
O217 Mn211 2.163 . S
O217 C227 1.244 . S
O218 Mn216 2.089 . S
O218 C225 1.256 . S
O219 Mn211 2.160 . S
O219 C228 1.239 . S
O220 Mn213 2.089 . S
O220 C228 1.256 . S
O221 Mn216 2.251 . S
O221 C226 1.241 . S
O222 Mn216 2.087 . S
O222 C227 1.256 . S
C223 O229 1.278 . S
C223 O230 1.241 . S
C224 O210 1.244 . S
C224 O212 1.256 . S
C225 O214 1.239 . S
C225 O218 1.256 . S
C226 O215 1.278 . S
C226 O221 1.241 . S
C227 O217 1.244 . S
C227 O222 1.256 . S
C228 O219 1.239 . S
C228 O220 1.256 . S
O229 Mn211 2.221 . S
O229 Mn213 2.290 . S
O229 C223 1.278 . S
O230 Mn213 2.251 . S
O230 C223 1.241 . S
O231 Mn232 2.163 1_556 S
O231 C245 1.244 . S
Mn232 O231 2.163 1_554 S
Mn232 O235 2.160 . S
Mn232 O236 2.221 . S
Mn232 O238 2.163 . S
Mn232 O240 2.161 . S
Mn232 O250 2.221 . S
O233 Mn234 2.087 . S
O233 C245 1.256 . S
Mn234 O233 2.087 . S
Mn234 O241 2.089 . S
Mn234 O250 2.290 1_556 S
Mn234 O251 2.251 1_556 S
O235 Mn232 2.160 . S
O235 C246 1.239 . S
O236 Mn232 2.221 . S
O236 Mn237 2.290 . S
O236 C247 1.278 . S
Mn237 O236 2.290 . S
Mn237 O239 2.089 . S
Mn237 O242 2.251 . S
Mn237 O243 2.087 . S
O238 Mn232 2.163 . S
O238 C248 1.244 . S
O239 Mn237 2.089 . S
O239 C246 1.256 . S
O240 Mn232 2.161 . S
O240 C249 1.238 1_554 S
O241 Mn234 2.089 . S
O241 C249 1.256 . S
O242 Mn237 2.251 . S
O242 C247 1.241 . S
O243 Mn237 2.087 . S
O243 C248 1.256 . S
C244 O250 1.278 . S
C244 O251 1.241 . S
C245 O231 1.244 . S
C245 O233 1.256 . S
C246 O235 1.239 . S
C246 O239 1.256 . S
C247 O236 1.278 . S
C247 O242 1.241 . S
C248 O238 1.244 . S
C248 O243 1.256 . S
C249 O240 1.238 1_556 S
C249 O241 1.256 . S
O250 Mn232 2.221 . S
O250 Mn234 2.290 1_554 S
O250 C244 1.278 . S
O251 Mn234 2.251 1_554 S
O251 C244 1.241 . S
C252 C253 1.363 . S
C252 C258 1.379 . S
C252 N260 1.356 . S
C253 C252 1.363 . S
C253 C259 1.363 . S
C254 C255 1.363 . S
C254 C259 1.379 . S
C254 N261 1.356 . S
C255 C254 1.363 . S
C255 C258 1.363 . S
N256 C258 1.356 . S
N256 H268 0.984 . S
N256 H269 0.985 . S
N257 C259 1.356 . S
N257 H262 0.984 . S
N257 H263 0.985 . S
C258 C252 1.379 . S
C258 C255 1.363 . S
C258 N256 1.356 . S
C259 C253 1.363 . S
C259 C254 1.379 . S
C259 N257 1.356 . S
N260 C252 1.356 . S
N260 H266 0.984 . S
N260 H267 0.984 . S
N261 C254 1.356 . S
N261 H264 0.984 . S
N261 H265 0.985 . S
H262 N257 0.984 . S
H263 N257 0.985 . S
H264 N261 0.984 . S
H265 N261 0.985 . S
H266 N260 0.984 . S
H267 N260 0.984 . S
H268 N256 0.984 . S
H269 N256 0.985 . S
C270 C271 1.363 . S
C270 C276 1.379 . S
C270 N278 1.356 . S
C271 C270 1.363 . S
C271 C277 1.363 . S
C272 C273 1.363 . S
C272 C277 1.379 . S
C272 N279 1.356 . S
C273 C272 1.363 . S
C273 C276 1.363 . S
N274 C276 1.356 . S
N274 H286 0.984 . S
N274 H287 0.985 . S
N275 C277 1.356 . S
N275 H280 0.984 . S
N275 H281 0.985 . S
C276 C270 1.379 . S
C276 C273 1.363 . S
C276 N274 1.356 . S
C277 C271 1.363 . S
C277 C272 1.379 . S
C277 N275 1.356 . S
N278 C270 1.356 . S
N278 H284 0.984 . S
N278 H285 0.984 . S
N279 C272 1.356 . S
N279 H282 0.984 . S
N279 H283 0.985 . S
H280 N275 0.984 . S
H281 N275 0.985 . S
H282 N279 0.984 . S
H283 N279 0.985 . S
H284 N278 0.984 . S
H285 N278 0.984 . S
H286 N274 0.984 . S
H287 N274 0.985 . S
C288 C289 1.363 . S
C288 C294 1.379 . S
C288 N296 1.356 . S
C289 C288 1.363 . S
C289 C295 1.363 . S
C290 C291 1.363 . S
C290 C295 1.379 . S
C290 N297 1.356 . S
C291 C290 1.363 . S
C291 C294 1.363 . S
N292 C294 1.356 . S
N292 H304 0.984 . S
N292 H305 0.985 . S
N293 C295 1.356 . S
N293 H298 0.984 . S
N293 H299 0.985 . S
C294 C288 1.379 . S
C294 C291 1.363 . S
C294 N292 1.356 . S
C295 C289 1.363 . S
C295 C290 1.379 . S
C295 N293 1.356 . S
N296 C288 1.356 . S
N296 H302 0.984 . S
N296 H303 0.984 . S
N297 C290 1.356 . S
N297 H300 0.984 . S
N297 H301 0.985 . S
H298 N293 0.984 . S
H299 N293 0.985 . S
H300 N297 0.984 . S
H301 N297 0.985 . S
H302 N296 0.984 . S
H303 N296 0.984 . S
H304 N292 0.984 . S
H305 N292 0.985 . S
C306 C307 1.363 . S
C306 C312 1.379 . S
C306 N314 1.356 . S
C307 C306 1.363 . S
C307 C313 1.363 . S
C308 C309 1.363 . S
C308 C313 1.379 . S
C308 N315 1.356 . S
C309 C308 1.363 . S
C309 C312 1.363 . S
N310 C312 1.356 . S
N310 H322 0.984 . S
N310 H323 0.985 . S
N311 C313 1.356 . S
N311 H316 0.984 . S
N311 H317 0.985 . S
C312 C306 1.379 . S
C312 C309 1.363 . S
C312 N310 1.356 . S
C313 C307 1.363 . S
C313 C308 1.379 . S
C313 N311 1.356 . S
N314 C306 1.356 . S
N314 H320 0.984 . S
N314 H321 0.984 . S
N315 C308 1.356 . S
N315 H318 0.984 . S
N315 H319 0.985 . S
H316 N311 0.984 . S
H317 N311 0.985 . S
H318 N315 0.984 . S
H319 N315 0.985 . S
H320 N314 0.984 . S
H321 N314 0.984 . S
H322 N310 0.984 . S
H323 N310 0.985 . S
C324 C325 1.363 . S
C324 C330 1.379 . S
C324 N332 1.356 . S
C325 C324 1.363 . S
C325 C331 1.363 . S
C326 C327 1.363 . S
C326 C331 1.379 . S
C326 N333 1.356 . S
C327 C326 1.363 . S
C327 C330 1.363 . S
N328 C330 1.356 . S
N328 H340 0.984 . S
N328 H341 0.985 . S
N329 C331 1.356 . S
N329 H334 0.984 . S
N329 H335 0.985 . S
C330 C324 1.379 . S
C330 C327 1.363 . S
C330 N328 1.356 . S
C331 C325 1.363 . S
C331 C326 1.379 . S
C331 N329 1.356 . S
N332 C324 1.356 . S
N332 H338 0.984 . S
N332 H339 0.984 . S
N333 C326 1.356 . S
N333 H336 0.984 . S
N333 H337 0.985 . S
H334 N329 0.984 . S
H335 N329 0.985 . S
H336 N333 0.984 . S
H337 N333 0.985 . S
H338 N332 0.984 . S
H339 N332 0.984 . S
H340 N328 0.984 . S
H341 N328 0.985 . S
C342 C343 1.363 . S
C342 C348 1.379 . S
C342 N350 1.356 . S
C343 C342 1.363 . S
C343 C349 1.363 . S
C344 C345 1.363 . S
C344 C349 1.379 . S
C344 N351 1.356 . S
C345 C344 1.363 . S
C345 C348 1.363 . S
N346 C348 1.356 . S
N346 H358 0.984 1_556 S
N346 H359 0.985 . S
N347 C349 1.356 . S
N347 H352 0.984 . S
N347 H353 0.985 . S
C348 C342 1.379 . S
C348 C345 1.363 . S
C348 N346 1.356 . S
C349 C343 1.363 . S
C349 C344 1.379 . S
C349 N347 1.356 . S
N350 C342 1.356 . S
N350 H356 0.984 . S
N350 H357 0.984 . S
N351 C344 1.356 . S
N351 H354 0.984 . S
N351 H355 0.985 . S
H352 N347 0.984 . S
H353 N347 0.985 . S
H354 N351 0.984 . S
H355 N351 0.985 . S
H356 N350 0.984 . S
H357 N350 0.984 . S
H358 N346 0.984 1_554 S
H359 N346 0.985 . S
C360 C361 1.363 . S
C360 C366 1.379 1_556 S
C360 N368 1.356 . S
C361 C360 1.363 . S
C361 C367 1.363 . S
C362 C363 1.363 . S
C362 C367 1.379 1_554 S
C362 N369 1.356 . S
C363 C362 1.363 . S
C363 C366 1.363 . S
N364 C366 1.356 . S
N364 H376 0.984 . S
N364 H377 0.985 . S
N365 C367 1.356 . S
N365 H370 0.984 . S
N365 H371 0.985 . S
C366 C360 1.379 1_554 S
C366 C363 1.363 . S
C366 N364 1.356 . S
C367 C361 1.363 . S
C367 C362 1.379 1_556 S
C367 N365 1.356 . S
N368 C360 1.356 . S
N368 H374 0.984 . S
N368 H375 0.984 . S
N369 C362 1.356 . S
N369 H372 0.984 . S
N369 H373 0.985 . S
H370 N365 0.984 . S
H371 N365 0.985 . S
H372 N369 0.984 . S
H373 N369 0.985 . S
H374 N368 0.984 . S
H375 N368 0.984 . S
H376 N364 0.984 . S
H377 N364 0.985 . S
C378 C379 1.363 . S
C378 C384 1.379 . S
C378 N386 1.356 . S
C379 C378 1.363 . S
C379 C385 1.363 . S
C380 C381 1.363 . S
C380 C385 1.379 . S
C380 N387 1.356 . S
C381 C380 1.363 . S
C381 C384 1.363 . S
N382 C384 1.356 . S
N382 H394 0.984 . S
N382 H395 0.985 . S
N383 C385 1.356 . S
N383 H388 0.984 . S
N383 H389 0.985 . S
C384 C378 1.379 . S
C384 C381 1.363 . S
C384 N382 1.356 . S
C385 C379 1.363 . S
C385 C380 1.379 . S
C385 N383 1.356 . S
N386 C378 1.356 . S
N386 H392 0.984 . S
N386 H393 0.984 . S
N387 C380 1.356 . S
N387 H390 0.984 . S
N387 H391 0.985 . S
H388 N383 0.984 . S
H389 N383 0.985 . S
H390 N387 0.984 . S
H391 N387 0.985 . S
H392 N386 0.984 . S
H393 N386 0.984 . S
H394 N382 0.984 . S
H395 N382 0.985 . S
C396 C397 1.363 . S
C396 C402 1.379 . S
C396 N404 1.356 . S
C397 C396 1.363 . S
C397 C403 1.363 . S
C398 C399 1.363 . S
C398 C403 1.379 . S
C398 N405 1.356 . S
C399 C398 1.363 . S
C399 C402 1.363 . S
N400 C402 1.356 . S
N400 H412 0.984 . S
N400 H413 0.985 . S
N401 C403 1.356 . S
N401 H406 0.984 . S
N401 H407 0.985 . S
C402 C396 1.379 . S
C402 C399 1.363 . S
C402 N400 1.356 . S
C403 C397 1.363 . S
C403 C398 1.379 . S
C403 N401 1.356 . S
N404 C396 1.356 . S
N404 H410 0.984 . S
N404 H411 0.984 . S
N405 C398 1.356 . S
N405 H408 0.984 . S
N405 H409 0.985 . S
H406 N401 0.984 . S
H407 N401 0.985 . S
H408 N405 0.984 . S
H409 N405 0.985 . S
H410 N404 0.984 . S
H411 N404 0.984 . S
H412 N400 0.984 . S
H413 N400 0.985 . S
C414 C415 1.363 . S
C414 C420 1.379 1_556 S
C414 N422 1.356 . S
C415 C414 1.363 . S
C415 C421 1.363 . S
C416 C417 1.363 . S
C416 C421 1.379 1_554 S
C416 N423 1.356 . S
C417 C416 1.363 . S
C417 C420 1.363 . S
N418 C420 1.356 . S
N418 H430 0.984 . S
N418 H431 0.985 . S
N419 C421 1.356 . S
N419 H424 0.984 . S
N419 H425 0.985 . S
C420 C414 1.379 1_554 S
C420 C417 1.363 . S
C420 N418 1.356 . S
C421 C415 1.363 . S
C421 C416 1.379 1_556 S
C421 N419 1.356 . S
N422 C414 1.356 . S
N422 H428 0.984 . S
N422 H429 0.984 . S
N423 C416 1.356 . S
N423 H426 0.984 . S
N423 H427 0.985 . S
H424 N419 0.984 . S
H425 N419 0.985 . S
H426 N423 0.984 . S
H427 N423 0.985 . S
H428 N422 0.984 . S
H429 N422 0.984 . S
H430 N418 0.984 . S
H431 N418 0.985 . S
C432 C433 1.363 . S
C432 C438 1.379 . S
C432 N440 1.356 . S
C433 C432 1.363 . S
C433 C439 1.363 . S
C434 C435 1.363 . S
C434 C439 1.379 . S
C434 N441 1.356 . S
C435 C434 1.363 . S
C435 C438 1.363 . S
N436 C438 1.356 . S
N436 H448 0.984 . S
N436 H449 0.985 . S
N437 C439 1.356 . S
N437 H442 0.984 . S
N437 H443 0.985 . S
C438 C432 1.379 . S
C438 C435 1.363 . S
C438 N436 1.356 . S
C439 C433 1.363 . S
C439 C434 1.379 . S
C439 N437 1.356 . S
N440 C432 1.356 . S
N440 H446 0.984 . S
N440 H447 0.984 . S
N441 C434 1.356 . S
N441 H444 0.984 . S
N441 H445 0.985 . S
H442 N437 0.984 . S
H443 N437 0.985 . S
H444 N441 0.984 . S
H445 N441 0.985 . S
H446 N440 0.984 . S
H447 N440 0.984 . S
H448 N436 0.984 . S
H449 N436 0.985 . S
C450 C451 1.363 . S
C450 C456 1.379 . S
C450 N458 1.356 . S
C451 C450 1.363 . S
C451 C457 1.363 . S
C452 C453 1.363 . S
C452 C457 1.379 . S
C452 N459 1.356 . S
C453 C452 1.363 . S
C453 C456 1.363 . S
N454 C456 1.356 . S
N454 H466 0.984 . S
N454 H467 0.985 . S
N455 C457 1.356 . S
N455 H460 0.984 . S
N455 H461 0.985 . S
C456 C450 1.379 . S
C456 C453 1.363 . S
C456 N454 1.356 . S
C457 C451 1.363 . S
C457 C452 1.379 . S
C457 N455 1.356 . S
N458 C450 1.356 . S
N458 H464 0.984 . S
N458 H465 0.984 . S
N459 C452 1.356 . S
N459 H462 0.984 . S
N459 H463 0.985 . S
H460 N455 0.984 . S
H461 N455 0.985 . S
H462 N459 0.984 . S
H463 N459 0.985 . S
H464 N458 0.984 . S
H465 N458 0.984 . S
H466 N454 0.984 . S
H467 N454 0.985 . S
C468 C469 1.363 . S
C468 C474 1.379 1_556 S
C468 N476 1.356 . S
C469 C468 1.363 . S
C469 C475 1.363 1_565 S
C470 C471 1.363 . S
C470 C475 1.379 1_554 S
C470 N477 1.356 . S
C471 C470 1.363 . S
C471 C474 1.363 1_545 S
N472 C474 1.356 1_545 S
N472 H484 0.984 1_545 S
N472 H485 0.985 . S
N473 C475 1.356 1_565 S
N473 H478 0.984 . S
N473 H479 0.985 1_565 S
C474 C468 1.379 1_554 S
C474 C471 1.363 1_565 S
C474 N472 1.356 1_565 S
C475 C469 1.363 1_545 S
C475 C470 1.379 1_556 S
C475 N473 1.356 1_545 S
N476 C468 1.356 . S
N476 H482 0.984 . S
N476 H483 0.984 . S
N477 C470 1.356 . S
N477 H480 0.984 . S
N477 H481 0.985 . S
H478 N473 0.984 . S
H479 N473 0.985 1_545 S
H480 N477 0.984 . S
H481 N477 0.985 . S
H482 N476 0.984 . S
H483 N476 0.984 . S
H484 N472 0.984 1_565 S
H485 N472 0.985 . S
C486 C487 1.363 . S
C486 C492 1.379 . S
C486 N494 1.356 . S
C487 C486 1.363 . S
C487 C493 1.363 . S
C488 C489 1.363 . S
C488 C493 1.379 . S
C488 N495 1.356 . S
C489 C488 1.363 . S
C489 C492 1.363 . S
N490 C492 1.356 . S
N490 H502 0.984 . S
N490 H503 0.985 . S
N491 C493 1.356 . S
N491 H496 0.984 . S
N491 H497 0.985 . S
C492 C486 1.379 . S
C492 C489 1.363 . S
C492 N490 1.356 . S
C493 C487 1.363 . S
C493 C488 1.379 . S
C493 N491 1.356 . S
N494 C486 1.356 . S
N494 H500 0.984 . S
N494 H501 0.984 . S
N495 C488 1.356 . S
N495 H498 0.984 . S
N495 H499 0.985 . S
H496 N491 0.984 . S
H497 N491 0.985 . S
H498 N495 0.984 . S
H499 N495 0.985 . S
H500 N494 0.984 . S
H501 N494 0.984 . S
H502 N490 0.984 . S
H503 N490 0.985 . S
C504 C505 1.363 . S
C504 C510 1.379 . S
C504 N512 1.356 . S
C505 C504 1.363 . S
C505 C511 1.363 1_455 S
C506 C507 1.363 . S
C506 C511 1.379 . S
C506 N513 1.356 . S
C507 C506 1.363 . S
C507 C510 1.363 1_655 S
N508 C510 1.356 . S
N508 H520 0.984 . S
N508 H521 0.985 1_455 S
N509 C511 1.356 . S
N509 H514 0.984 1_655 S
N509 H515 0.985 . S
C510 C504 1.379 . S
C510 C507 1.363 1_455 S
C510 N508 1.356 . S
C511 C505 1.363 1_655 S
C511 C506 1.379 . S
C511 N509 1.356 . S
N512 C504 1.356 . S
N512 H518 0.984 . S
N512 H519 0.984 . S
N513 C506 1.356 . S
N513 H516 0.984 . S
N513 H517 0.985 . S
H514 N509 0.984 1_455 S
H515 N509 0.985 . S
H516 N513 0.984 . S
H517 N513 0.985 . S
H518 N512 0.984 . S
H519 N512 0.984 . S
H520 N508 0.984 . S
H521 N508 0.985 1_655 S
C522 C523 1.363 1_556 S
C522 C528 1.379 . S
C522 N530 1.356 1_556 S
C523 C522 1.363 1_554 S
C523 C529 1.363 1_565 S
C524 C525 1.363 1_554 S
C524 C529 1.379 . S
C524 N531 1.356 1_554 S
C525 C524 1.363 1_556 S
C525 C528 1.363 1_545 S
N526 C528 1.356 . S
N526 H538 0.984 . S
N526 H539 0.985 1_565 S
N527 C529 1.356 . S
N527 H532 0.984 1_545 S
N527 H533 0.985 . S
C528 C522 1.379 . S
C528 C525 1.363 1_565 S
C528 N526 1.356 . S
C529 C523 1.363 1_545 S
C529 C524 1.379 . S
C529 N527 1.356 . S
N530 C522 1.356 1_554 S
N530 H536 0.984 1_554 S
N530 H537 0.984 . S
N531 C524 1.356 1_556 S
N531 H534 0.984 . S
N531 H535 0.985 1_556 S
H532 N527 0.984 1_565 S
H533 N527 0.985 . S
H534 N531 0.984 . S
H535 N531 0.985 1_554 S
H536 N530 0.984 1_556 S
H537 N530 0.984 . S
H538 N526 0.984 . S
H539 N526 0.985 1_545 S
C540 C541 1.363 . S
C540 C546 1.379 . S
C540 N548 1.356 . S
C541 C540 1.363 . S
C541 C547 1.363 . S
C542 C543 1.363 . S
C542 C547 1.379 . S
C542 N549 1.356 . S
C543 C542 1.363 . S
C543 C546 1.363 . S
N544 C546 1.356 . S
N544 H556 0.984 . S
N544 H557 0.985 . S
N545 C547 1.356 . S
N545 H550 0.984 . S
N545 H551 0.985 . S
C546 C540 1.379 . S
C546 C543 1.363 . S
C546 N544 1.356 . S
C547 C541 1.363 . S
C547 C542 1.379 . S
C547 N545 1.356 . S
N548 C540 1.356 . S
N548 H554 0.984 . S
N548 H555 0.984 . S
N549 C542 1.356 . S
N549 H552 0.984 . S
N549 H553 0.985 . S
H550 N545 0.984 . S
H551 N545 0.985 . S
H552 N549 0.984 . S
H553 N549 0.985 . S
H554 N548 0.984 . S
H555 N548 0.984 . S
H556 N544 0.984 . S
H557 N544 0.985 . S
C558 C559 1.363 1_655 S
C558 C564 1.379 . S
C558 N566 1.356 . S
C559 C558 1.363 1_455 S
C559 C565 1.363 . S
C560 C561 1.363 1_455 S
C560 C565 1.379 . S
C560 N567 1.356 . S
C561 C560 1.363 1_655 S
C561 C564 1.363 . S
N562 C564 1.356 . S
N562 H574 0.984 . S
N562 H575 0.985 . S
N563 C565 1.356 . S
N563 H568 0.984 . S
N563 H569 0.985 . S
C564 C558 1.379 . S
C564 C561 1.363 . S
C564 N562 1.356 . S
C565 C559 1.363 . S
C565 C560 1.379 . S
C565 N563 1.356 . S
N566 C558 1.356 . S
N566 H572 0.984 . S
N566 H573 0.984 1_655 S
N567 C560 1.356 . S
N567 H570 0.984 1_455 S
N567 H571 0.985 . S
H568 N563 0.984 . S
H569 N563 0.985 . S
H570 N567 0.984 1_655 S
H571 N567 0.985 . S
H572 N566 0.984 . S
H573 N566 0.984 1_455 S
H574 N562 0.984 . S
H575 N562 0.985 . S
C576 C577 1.363 . S
C576 C582 1.382 . S
C576 N584 1.356 . S
C577 C576 1.363 . S
C577 C583 1.361 1_545 S
C578 C579 1.363 . S
C578 C583 1.382 . S
C578 N585 1.356 . S
C579 C578 1.363 . S
C579 C582 1.361 1_565 S
N580 C582 1.354 1_565 S
N580 H592 0.984 1_565 S
N580 H593 0.985 . S
N581 C583 1.354 1_545 S
N581 H586 0.984 . S
N581 H587 0.985 1_545 S
C582 C576 1.382 . S
C582 C579 1.361 1_545 S
C582 N580 1.354 1_545 S
C583 C577 1.361 1_565 S
C583 C578 1.382 . S
C583 N581 1.354 1_565 S
N584 C576 1.356 . S
N584 H590 0.984 . S
N584 H591 0.984 . S
N585 C578 1.356 . S
N585 H588 0.984 . S
N585 H589 0.985 . S
H586 N581 0.984 . S
H587 N581 0.985 1_565 S
H588 N585 0.984 . S
H589 N585 0.985 . S
H590 N584 0.984 . S
H591 N584 0.984 . S
H592 N580 0.984 1_545 S
H593 N580 0.985 . S
C594 C595 1.363 . S
C594 C600 1.379 . S
C594 N602 1.356 . S
C595 C594 1.363 . S
C595 C601 1.363 . S
C596 C597 1.363 . S
C596 C601 1.379 . S
C596 N603 1.356 . S
C597 C596 1.363 . S
C597 C600 1.363 . S
N598 C600 1.356 . S
N598 H610 0.984 . S
N598 H611 0.985 . S
N599 C601 1.356 . S
N599 H604 0.984 . S
N599 H605 0.985 . S
C600 C594 1.379 . S
C600 C597 1.363 . S
C600 N598 1.356 . S
C601 C595 1.363 . S
C601 C596 1.379 . S
C601 N599 1.356 . S
N602 C594 1.356 . S
N602 H608 0.984 . S
N602 H609 0.984 . S
N603 C596 1.356 . S
N603 H606 0.984 . S
N603 H607 0.985 . S
H604 N599 0.984 . S
H605 N599 0.985 . S
H606 N603 0.984 . S
H607 N603 0.985 . S
H608 N602 0.984 . S
H609 N602 0.984 . S
H610 N598 0.984 . S
H611 N598 0.985 . S
C612 C613 1.363 1_554 S
C612 C618 1.379 . S
C612 N620 1.356 . S
C613 C612 1.363 1_556 S
C613 C619 1.361 1_655 S
C614 C615 1.363 . S
C614 C619 1.379 . S
C614 N621 1.356 . S
C615 C614 1.363 . S
C615 C618 1.361 1_456 S
N616 C618 1.357 1_455 S
N616 H628 0.984 1_455 S
N616 H629 0.985 . S
N617 C619 1.357 1_655 S
N617 H622 0.984 . S
N617 H623 0.985 1_655 S
C618 C612 1.379 . S
C618 C615 1.361 1_654 S
C618 N616 1.357 1_655 S
C619 C613 1.361 1_455 S
C619 C614 1.379 . S
C619 N617 1.357 1_455 S
N620 C612 1.356 . S
N620 H626 0.984 . S
N620 H627 0.984 . S
N621 C614 1.356 . S
N621 H624 0.984 . S
N621 H625 0.985 . S
H622 N617 0.984 . S
H623 N617 0.985 1_455 S
H624 N621 0.984 . S
H625 N621 0.985 . S
H626 N620 0.984 . S
H627 N620 0.984 . S
H628 N616 0.984 1_655 S
H629 N616 0.985 . S
C630 C631 1.363 . S
C630 C636 1.382 . S
C630 N638 1.356 . S
C631 C630 1.363 . S
C631 C637 1.361 1_455 S
C632 C633 1.363 . S
C632 C637 1.382 . S
C632 N639 1.356 . S
C633 C632 1.363 . S
C633 C636 1.361 1_655 S
N634 C636 1.354 1_655 S
N634 H646 0.984 1_655 S
N634 H647 0.985 . S
N635 C637 1.354 1_455 S
N635 H640 0.984 . S
N635 H641 0.985 1_455 S
C636 C630 1.382 . S
C636 C633 1.361 1_455 S
C636 N634 1.354 1_455 S
C637 C631 1.361 1_655 S
C637 C632 1.382 . S
C637 N635 1.354 1_655 S
N638 C630 1.356 . S
N638 H644 0.984 . S
N638 H645 0.984 . S
N639 C632 1.356 . S
N639 H642 0.984 . S
N639 H643 0.985 . S
H640 N635 0.984 . S
H641 N635 0.985 1_655 S
H642 N639 0.984 . S
H643 N639 0.985 . S
H644 N638 0.984 . S
H645 N638 0.984 . S
H646 N634 0.984 1_455 S
H647 N634 0.985 . S
C648 C649 1.363 . S
C648 C654 1.379 . S
C648 N656 1.356 . S
C649 C648 1.363 . S
C649 C655 1.361 1_565 S
C650 C651 1.363 . S
C650 C655 1.379 . S
C650 N657 1.356 . S
C651 C650 1.363 . S
C651 C654 1.361 1_545 S
N652 C654 1.357 1_545 S
N652 H664 0.984 1_545 S
N652 H665 0.985 . S
N653 C655 1.357 1_565 S
N653 H658 0.984 . S
N653 H659 0.985 1_565 S
C654 C648 1.379 . S
C654 C651 1.361 1_565 S
C654 N652 1.357 1_565 S
C655 C649 1.361 1_545 S
C655 C650 1.379 . S
C655 N653 1.357 1_545 S
N656 C648 1.356 . S
N656 H662 0.984 . S
N656 H663 0.984 . S
N657 C650 1.356 . S
N657 H660 0.984 . S
N657 H661 0.985 . S
H658 N653 0.984 . S
H659 N653 0.985 1_545 S
H660 N657 0.984 . S
H661 N657 0.985 . S
H662 N656 0.984 . S
H663 N656 0.984 . S
H664 N652 0.984 1_565 S
H665 N652 0.985 . S
C666 C667 1.363 . S
C666 C672 1.379 . S
C666 N674 1.356 . S
C667 C666 1.363 . S
C667 C673 1.363 1_554 S
C668 C669 1.363 1_556 S
C668 C673 1.379 . S
C668 N675 1.356 . S
C669 C668 1.363 1_554 S
C669 C672 1.363 . S
N670 C672 1.356 . S
N670 H682 0.984 . S
N670 H683 0.985 . S
N671 C673 1.356 . S
N671 H676 0.984 . S
N671 H677 0.985 . S
C672 C666 1.379 . S
C672 C669 1.363 . S
C672 N670 1.356 . S
C673 C667 1.363 1_556 S
C673 C668 1.379 . S
C673 N671 1.356 . S
N674 C666 1.356 . S
N674 H680 0.984 . S
N674 H681 0.984 . S
N675 C668 1.356 . S
N675 H678 0.984 . S
N675 H679 0.985 . S
H676 N671 0.984 . S
H677 N671 0.985 . S
H678 N675 0.984 . S
H679 N675 0.985 . S
H680 N674 0.984 . S
H681 N674 0.984 . S
H682 N670 0.984 . S
H683 N670 0.985 . S
C684 C685 1.363 1_545 S
C684 C690 1.379 . S
C684 N692 1.356 . S
C685 C684 1.363 1_565 S
C685 C691 1.363 . S
C686 C687 1.363 1_565 S
C686 C691 1.379 . S
C686 N693 1.356 . S
C687 C686 1.363 1_545 S
C687 C690 1.363 . S
N688 C690 1.356 . S
N688 H700 0.984 . S
N688 H701 0.985 . S
N689 C691 1.356 . S
N689 H694 0.984 . S
N689 H695 0.985 . S
C690 C684 1.379 . S
C690 C687 1.363 . S
C690 N688 1.356 . S
C691 C685 1.363 . S
C691 C686 1.379 . S
C691 N689 1.356 . S
N692 C684 1.356 . S
N692 H698 0.984 . S
N692 H699 0.984 1_545 S
N693 C686 1.356 . S
N693 H696 0.984 1_565 S
N693 H697 0.985 . S
H694 N689 0.984 . S
H695 N689 0.985 . S
H696 N693 0.984 1_545 S
H697 N693 0.985 . S
H698 N692 0.984 . S
H699 N692 0.984 1_565 S
H700 N688 0.984 . S
H701 N688 0.985 . S
C702 C703 1.363 . S
C702 C708 1.379 . S
C702 N710 1.356 . S
C703 C702 1.363 . S
C703 C709 1.363 . S
C704 C705 1.363 . S
C704 C709 1.379 . S
C704 N711 1.356 . S
C705 C704 1.363 . S
C705 C708 1.363 . S
N706 C708 1.356 . S
N706 H718 0.984 . S
N706 H719 0.985 . S
N707 C709 1.356 . S
N707 H712 0.984 . S
N707 H713 0.985 . S
C708 C702 1.379 . S
C708 C705 1.363 . S
C708 N706 1.356 . S
C709 C703 1.363 . S
C709 C704 1.379 . S
C709 N707 1.356 . S
N710 C702 1.356 . S
N710 H716 0.984 . S
N710 H717 0.984 . S
N711 C704 1.356 . S
N711 H714 0.984 . S
N711 H715 0.985 . S
H712 N707 0.984 . S
H713 N707 0.985 . S
H714 N711 0.984 . S
H715 N711 0.985 . S
H716 N710 0.984 . S
H717 N710 0.984 . S
H718 N706 0.984 . S
H719 N706 0.985 . S
C720 C721 1.363 1_455 S
C720 C726 1.379 . S
C720 N728 1.356 . S
C721 C720 1.363 1_655 S
C721 C727 1.363 . S
C722 C723 1.363 1_655 S
C722 C727 1.379 . S
C722 N729 1.356 . S
C723 C722 1.363 1_455 S
C723 C726 1.363 . S
N724 C726 1.356 . S
N724 H736 0.984 . S
N724 H737 0.985 . S
N725 C727 1.356 . S
N725 H730 0.984 . S
N725 H731 0.985 . S
C726 C720 1.379 . S
C726 C723 1.363 . S
C726 N724 1.356 . S
C727 C721 1.363 . S
C727 C722 1.379 . S
C727 N725 1.356 . S
N728 C720 1.356 . S
N728 H734 0.984 . S
N728 H735 0.984 1_455 S
N729 C722 1.356 . S
N729 H732 0.984 1_655 S
N729 H733 0.985 . S
H730 N725 0.984 . S
H731 N725 0.985 . S
H732 N729 0.984 1_455 S
H733 N729 0.985 . S
H734 N728 0.984 . S
H735 N728 0.984 1_655 S
H736 N724 0.984 . S
H737 N724 0.985 . S
C738 C739 1.363 . S
C738 C744 1.379 . S
C738 N746 1.356 . S
C739 C738 1.363 . S
C739 C745 1.363 1_545 S
C740 C741 1.363 . S
C740 C745 1.379 . S
C740 N747 1.356 . S
C741 C740 1.363 . S
C741 C744 1.363 1_565 S
N742 C744 1.356 . S
N742 H754 0.984 . S
N742 H755 0.985 1_545 S
N743 C745 1.356 . S
N743 H748 0.984 1_565 S
N743 H749 0.985 . S
C744 C738 1.379 . S
C744 C741 1.363 1_545 S
C744 N742 1.356 . S
C745 C739 1.363 1_565 S
C745 C740 1.379 . S
C745 N743 1.356 . S
N746 C738 1.356 . S
N746 H752 0.984 . S
N746 H753 0.984 . S
N747 C740 1.356 . S
N747 H750 0.984 . S
N747 H751 0.985 . S
H748 N743 0.984 1_545 S
H749 N743 0.985 . S
H750 N747 0.984 . S
H751 N747 0.985 . S
H752 N746 0.984 . S
H753 N746 0.984 . S
H754 N742 0.984 . S
H755 N742 0.985 1_565 S
C756 C757 1.363 . S
C756 C762 1.379 . S
C756 N764 1.356 . S
C757 C756 1.363 . S
C757 C763 1.363 . S
C758 C759 1.363 . S
C758 C763 1.379 . S
C758 N765 1.356 . S
C759 C758 1.363 . S
C759 C762 1.363 . S
N760 C762 1.356 . S
N760 H772 0.984 . S
N760 H773 0.985 . S
N761 C763 1.356 . S
N761 H766 0.984 . S
N761 H767 0.985 . S
C762 C756 1.379 . S
C762 C759 1.363 . S
C762 N760 1.356 . S
C763 C757 1.363 . S
C763 C758 1.379 . S
C763 N761 1.356 . S
N764 C756 1.356 . S
N764 H770 0.984 . S
N764 H771 0.984 . S
N765 C758 1.356 . S
N765 H768 0.984 . S
N765 H769 0.985 . S
H766 N761 0.984 . S
H767 N761 0.985 . S
H768 N765 0.984 . S
H769 N765 0.985 . S
H770 N764 0.984 . S
H771 N764 0.984 . S
H772 N760 0.984 . S
H773 N760 0.985 . S
C774 C775 1.363 1_655 S
C774 C780 1.379 . S
C774 N782 1.356 . S
C775 C774 1.363 1_455 S
C775 C781 1.363 . S
C776 C777 1.363 1_455 S
C776 C781 1.379 . S
C776 N783 1.356 . S
C777 C776 1.363 1_655 S
C777 C780 1.363 . S
N778 C780 1.356 . S
N778 H790 0.984 . S
N778 H791 0.985 . S
N779 C781 1.356 . S
N779 H784 0.984 . S
N779 H785 0.985 . S
C780 C774 1.379 . S
C780 C777 1.363 . S
C780 N778 1.356 . S
C781 C775 1.363 . S
C781 C776 1.379 . S
C781 N779 1.356 . S
N782 C774 1.356 . S
N782 H788 0.990 . S
N782 H789 0.984 1_654 S
N783 C776 1.356 . S
N783 H786 0.984 1_455 S
N783 H787 0.985 . S
H784 N779 0.984 . S
H785 N779 0.985 . S
H786 N783 0.984 1_655 S
H787 N783 0.985 . S
H788 N782 0.990 . S
H789 N782 0.984 1_456 S
H790 N778 0.984 . S
H791 N778 0.985 . S
C792 C793 1.363 . S
C792 C798 1.379 . S
C792 N800 1.356 . S
C793 C792 1.363 . S
C793 C799 1.363 . S
C794 C795 1.363 . S
C794 C799 1.379 . S
C794 N801 1.356 . S
C795 C794 1.363 . S
C795 C798 1.363 . S
N796 C798 1.356 . S
N796 H808 0.984 . S
N796 H809 0.985 . S
N797 C799 1.356 . S
N797 H802 0.984 . S
N797 H803 0.985 . S
C798 C792 1.379 . S
C798 C795 1.363 . S
C798 N796 1.356 . S
C799 C793 1.363 . S
C799 C794 1.379 . S
C799 N797 1.356 . S
N800 C792 1.356 . S
N800 H806 0.984 . S
N800 H807 0.984 . S
N801 C794 1.356 . S
N801 H804 0.984 . S
N801 H805 0.985 . S
H802 N797 0.984 . S
H803 N797 0.985 . S
H804 N801 0.984 . S
H805 N801 0.985 . S
H806 N800 0.984 . S
H807 N800 0.984 . S
H808 N796 0.984 . S
H809 N796 0.985 . S
C810 C811 1.363 . S
C810 C816 1.379 . S
C810 N818 1.356 . S
C811 C810 1.363 . S
C811 C817 1.363 . S
C812 C813 1.363 . S
C812 C817 1.379 . S
C812 N819 1.356 . S
C813 C812 1.363 . S
C813 C816 1.363 . S
N814 C816 1.356 . S
N814 H826 0.984 . S
N814 H827 0.985 1_556 S
N815 C817 1.356 . S
N815 H820 0.984 . S
N815 H821 0.985 . S
C816 C810 1.379 . S
C816 C813 1.363 . S
C816 N814 1.356 . S
C817 C811 1.363 . S
C817 C812 1.379 . S
C817 N815 1.356 . S
N818 C810 1.356 . S
N818 H824 0.984 . S
N818 H825 0.984 . S
N819 C812 1.356 . S
N819 H822 0.984 . S
N819 H823 0.985 . S
H820 N815 0.984 . S
H821 N815 0.985 . S
H822 N819 0.984 . S
H823 N819 0.985 . S
H824 N818 0.984 . S
H825 N818 0.984 . S
H826 N814 0.984 . S
H827 N814 0.985 1_554 S
C828 C829 1.363 . S
C828 C834 1.379 . S
C828 N836 1.356 . S
C829 C828 1.363 . S
C829 C835 1.363 . S
C830 C831 1.363 . S
C830 C835 1.379 . S
C830 N837 1.356 . S
C831 C830 1.363 . S
C831 C834 1.363 . S
N832 C834 1.356 . S
N832 H844 0.984 . S
N832 H845 0.985 . S
N833 C835 1.356 . S
N833 H838 0.984 . S
N833 H839 0.985 . S
C834 C828 1.379 . S
C834 C831 1.363 . S
C834 N832 1.356 . S
C835 C829 1.363 . S
C835 C830 1.379 . S
C835 N833 1.356 . S
N836 C828 1.356 . S
N836 H842 0.984 . S
N836 H843 0.984 . S
N837 C830 1.356 . S
N837 H840 0.984 . S
N837 H841 0.985 . S
H838 N833 0.984 . S
H839 N833 0.985 . S
H840 N837 0.984 . S
H841 N837 0.985 . S
H842 N836 0.984 . S
H843 N836 0.984 . S
H844 N832 0.984 . S
H845 N832 0.985 . S
C846 C847 1.363 . S
C846 C852 1.379 . S
C846 N854 1.356 . S
C847 C846 1.363 . S
C847 C853 1.363 . S
C848 C849 1.363 . S
C848 C853 1.379 . S
C848 N855 1.356 . S
C849 C848 1.363 . S
C849 C852 1.363 . S
N850 C852 1.356 . S
N850 H862 0.984 . S
N850 H863 0.985 . S
N851 C853 1.356 . S
N851 H856 0.984 . S
N851 H857 0.985 . S
C852 C846 1.379 . S
C852 C849 1.363 . S
C852 N850 1.356 . S
C853 C847 1.363 . S
C853 C848 1.379 . S
C853 N851 1.356 . S
N854 C846 1.356 . S
N854 H860 0.984 . S
N854 H861 0.984 . S
N855 C848 1.356 . S
N855 H858 0.984 . S
N855 H859 0.985 . S
H856 N851 0.984 . S
H857 N851 0.985 . S
H858 N855 0.984 . S
H859 N855 0.985 . S
H860 N854 0.984 . S
H861 N854 0.984 . S
H862 N850 0.984 . S
H863 N850 0.985 . S
C864 C865 1.363 . S
C864 C870 1.379 . S
C864 N872 1.356 . S
C865 C864 1.363 . S
C865 C871 1.363 . S
C866 C867 1.363 . S
C866 C871 1.379 . S
C866 N873 1.356 . S
C867 C866 1.363 . S
C867 C870 1.363 . S
N868 C870 1.356 . S
N868 H880 0.984 . S
N868 H881 0.985 . S
N869 C871 1.356 . S
N869 H874 0.984 . S
N869 H875 0.985 . S
C870 C864 1.379 . S
C870 C867 1.363 . S
C870 N868 1.356 . S
C871 C865 1.363 . S
C871 C866 1.379 . S
C871 N869 1.356 . S
N872 C864 1.356 . S
N872 H878 0.984 . S
N872 H879 0.984 . S
N873 C866 1.356 . S
N873 H876 0.984 1_556 S
N873 H877 0.985 . S
H874 N869 0.984 . S
H875 N869 0.985 . S
H876 N873 0.984 1_554 S
H877 N873 0.985 . S
H878 N872 0.984 . S
H879 N872 0.984 . S
H880 N868 0.984 . S
H881 N868 0.985 . S
C882 C883 1.363 . S
C882 C888 1.379 . S
C882 N890 1.356 . S
C883 C882 1.363 . S
C883 C889 1.363 . S
C884 C885 1.363 . S
C884 C889 1.379 . S
C884 N891 1.356 . S
C885 C884 1.363 . S
C885 C888 1.363 . S
N886 C888 1.356 . S
N886 H898 0.984 . S
N886 H899 0.985 . S
N887 C889 1.356 . S
N887 H892 0.984 . S
N887 H893 0.985 . S
C888 C882 1.379 . S
C888 C885 1.363 . S
C888 N886 1.356 . S
C889 C883 1.363 . S
C889 C884 1.379 . S
C889 N887 1.356 . S
N890 C882 1.356 . S
N890 H896 0.984 . S
N890 H897 0.984 . S
N891 C884 1.356 . S
N891 H894 0.984 . S
N891 H895 0.985 . S
H892 N887 0.984 . S
H893 N887 0.985 . S
H894 N891 0.984 . S
H895 N891 0.985 . S
H896 N890 0.984 . S
H897 N890 0.984 . S
H898 N886 0.984 . S
H899 N886 0.985 . S
C253 C13 1.116 . S
C255 C181 1.116 . S
C271 C34 1.116 . S
C273 C202 1.116 . S
C289 C55 1.116 . S
C291 C223 1.116 . S
C307 C244 1.116 . S
C309 C76 1.116 . S
C325 C97 1.116 . S
C327 C139 1.116 . S
C343 C160 1.116 . S
C345 C118 1.116 . S
C361 C227 1.577 . S
C363 C17 1.577 . S
C379 C248 1.577 . S
C381 C38 1.577 . S
C397 C59 1.577 . S
C399 C143 1.577 . S
C415 C164 1.577 . S
C417 C80 1.577 . S
C433 C185 1.577 . S
C435 C101 1.577 . S
C451 C122 1.577 . S
C453 C206 1.577 . S
C469 C162 1.408 . S
C471 C15 1.408 . S
C487 C183 1.408 . S
C489 C36 1.408 . S
C505 C204 1.408 . S
C507 C57 1.408 . S
C523 C78 1.408 . S
C525 C225 1.408 . S
C541 C99 1.408 . S
C543 C246 1.408 . S
C559 C120 1.408 . S
C561 C141 1.408 . S
C577 C16 0.742 . S
C579 C79 0.742 . S
C595 C37 0.742 . S
C597 C100 0.742 . S
C613 C58 0.742 . S
C615 C121 0.742 . S
C631 C205 0.742 . S
C633 C142 0.742 . S
C649 C163 0.742 . S
C651 C226 0.742 . S
C667 C247 0.742 . S
C669 C184 0.742 . S
C685 C165 1.442 . S
C687 C18 1.442 . S
C703 C186 1.442 . S
C705 C39 1.442 . S
C721 C60 1.442 . S
C723 C207 1.442 . S
C739 C228 1.442 . S
C741 C81 1.442 . S
C757 C249 1.442 . S
C759 C102 1.442 . S
C775 C123 1.442 . S
C777 C144 1.442 . S
C793 C14 1.554 . S
C795 C224 1.554 . S
C811 C35 1.553 . S
C813 C245 1.553 . S
C829 C56 1.553 . S
C831 C140 1.553 . S
C847 C77 1.553 . S
C849 C161 1.553 . S
C865 C98 1.553 . S
C867 C182 1.553 . S
C883 C203 1.553 . S
C885 C119 1.553 . S
