# Generated by pormake.
# Topology svj, (7)-cn, num edge types: 1
# Building blocks:
#     Node 0, Type 0, BuildingBlock: HICVOG_clean_sbu_0, # of connection points: 7
#     Node 1, Type 0, BuildingBlock: HICVOG_clean_sbu_0, # of connection points: 7
#     Node 2, Type 0, BuildingBlock: HICVOG_clean_sbu_0, # of connection points: 7
#     Node 3, Type 0, BuildingBlock: HICVOG_clean_sbu_0, # of connection points: 7
#     Node 4, Type 0, BuildingBlock: HICVOG_clean_sbu_0, # of connection points: 7
#     Node 5, Type 0, BuildingBlock: HICVOG_clean_sbu_0, # of connection points: 7
#     Edge 6, Type (0, 0), BuildingBlock: TEMPAE_clean_linker_10, # of connection points: 2
#     Edge 7, Type (0, 0), BuildingBlock: TEMPAE_clean_linker_10, # of connection points: 2
#     Edge 8, Type (0, 0), BuildingBlock: TEMPAE_clean_linker_10, # of connection points: 2
#     Edge 9, Type (0, 0), BuildingBlock: TEMPAE_clean_linker_10, # of connection points: 2
#     Edge 10, Type (0, 0), BuildingBlock: TEMPAE_clean_linker_10, # of connection points: 2
#     Edge 11, Type (0, 0), BuildingBlock: TEMPAE_clean_linker_10, # of connection points: 2
#     Edge 12, Type (0, 0), BuildingBlock: TEMPAE_clean_linker_10, # of connection points: 2
#     Edge 13, Type (0, 0), BuildingBlock: TEMPAE_clean_linker_10, # of connection points: 2
#     Edge 14, Type (0, 0), BuildingBlock: TEMPAE_clean_linker_10, # of connection points: 2
#     Edge 15, Type (0, 0), BuildingBlock: TEMPAE_clean_linker_10, # of connection points: 2
#     Edge 16, Type (0, 0), BuildingBlock: TEMPAE_clean_linker_10, # of connection points: 2
#     Edge 17, Type (0, 0), BuildingBlock: TEMPAE_clean_linker_10, # of connection points: 2
#     Edge 18, Type (0, 0), BuildingBlock: TEMPAE_clean_linker_10, # of connection points: 2
#     Edge 19, Type (0, 0), BuildingBlock: TEMPAE_clean_linker_10, # of connection points: 2
#     Edge 20, Type (0, 0), BuildingBlock: TEMPAE_clean_linker_10, # of connection points: 2
#     Edge 21, Type (0, 0), BuildingBlock: TEMPAE_clean_linker_10, # of connection points: 2
#     Edge 22, Type (0, 0), BuildingBlock: TEMPAE_clean_linker_10, # of connection points: 2
#     Edge 23, Type (0, 0), BuildingBlock: TEMPAE_clean_linker_10, # of connection points: 2
#     Edge 24, Type (0, 0), BuildingBlock: TEMPAE_clean_linker_10, # of connection points: 2
#     Edge 25, Type (0, 0), BuildingBlock: TEMPAE_clean_linker_10, # of connection points: 2
#     Edge 26, Type (0, 0), BuildingBlock: TEMPAE_clean_linker_10, # of connection points: 2
# Relax obj value: 0.274
# Max RMSD: 0.258
# Mean RMSD: 0.241
data_MOF--net-svj--node1-HICVOG_clean_sbu_0--edge1-TEMPAE_clean_linker_10
_symmetry_space_group_name_H-M    P1
_symmetry_Int_Tables_number       1
_symmetry_cell_setting            triclinic
loop_
_symmetry_equiv_pos_as_xyz
'x, y, z'
_cell_length_a     41.27657
_cell_length_b     41.352595
_cell_length_c     20.591874
_cell_angle_alpha  90.006851
_cell_angle_beta   89.852642
_cell_angle_gamma 119.85306
loop_
_atom_site_label
_atom_site_type_symbol
_atom_site_fract_x
_atom_site_fract_y
_atom_site_fract_z
_atom_type_partial_charge
Zn0 Zn 0.20111 0.4443 0.96534 0.0
C1 C 0.11451 0.44234 0.05257 0.0
N2 N 0.12171 0.46968 0.00979 0.0
C3 C 0.15476 0.47732 0.98427 0.0
N4 N 0.16708 0.45553 0.01033 0.0
N5 N 0.14232 0.43408 0.05442 0.0
C6 C 0.07563 0.34563 0.10154 0.0
O7 O 0.08869 0.35068 0.04195 0.0
O8 O 0.24541 0.48996 0.9268 0.0
Zn9 Zn 0.14962 0.40541 0.1217 0.0
N10 N 0.17272 0.41053 0.89646 0.0
C11 C 0.125 0.3495 0.86787 0.0
C12 C 0.14791 0.37502 0.91444 0.0
C13 C 0.17614 0.42158 0.83339 0.0
N14 N 0.12817 0.36045 0.80494 0.0
C15 C 0.15334 0.3958 0.78597 0.0
O16 O 0.18564 0.38564 0.10261 0.0
C17 C 0.21374 0.39498 0.06533 0.0
O18 O 0.22108 0.41762 0.01843 0.0
H19 H 0.14588 0.3668 0.96477 0.0
H20 H 0.19585 0.45021 0.82077 0.0
C21 C 0.16326 0.42791 0.25676 0.0
C22 C 0.17898 0.45435 0.30695 0.0
C23 C 0.21143 0.5018 0.22839 0.0
C24 C 0.19612 0.4755 0.17897 0.0
N25 N 0.17195 0.43925 0.19394 0.0
N26 N 0.20246 0.49069 0.29102 0.0
H27 H 0.14379 0.39889 0.2672 0.0
C28 C 0.26804 0.51557 0.96439 0.0
O29 O 0.26174 0.51214 0.02723 0.0
O30 O 0.09773 0.36452 0.14713 0.0
H31 H 0.20303 0.48394 0.12891 0.0
H32 H 0.10486 0.3212 0.88154 0.0
H33 H 0.23032 0.53084 0.21712 0.0
Zn34 Zn 0.65455 0.11598 0.27111 0.0
C35 C 0.71895 0.21782 0.22106 0.0
N36 N 0.69349 0.22347 0.25213 0.0
C37 C 0.66395 0.1889 0.25775 0.0
N38 N 0.6714 0.16344 0.23138 0.0
N39 N 0.70535 0.18159 0.20614 0.0
C40 C 0.79579 0.18794 0.15138 0.0
O41 O 0.78078 0.15872 0.1899 0.0
O42 O 0.59849 0.08859 0.28408 0.0
Zn43 Zn 0.71861 0.16373 0.12865 0.0
N44 N 0.68459 0.12418 0.34873 0.0
C45 C 0.74512 0.13658 0.38036 0.0
C46 C 0.71866 0.12898 0.33256 0.0
C47 C 0.67586 0.12694 0.41179 0.0
N48 N 0.73669 0.13948 0.44286 0.0
C49 C 0.70289 0.13498 0.46072 0.0
O50 O 0.7037 0.10811 0.13104 0.0
C51 C 0.68258 0.0798 0.16615 0.0
O52 O 0.66516 0.08251 0.21497 0.0
H53 H 0.72534 0.12732 0.28237 0.0
H54 H 0.6489 0.12395 0.42316 0.0
C55 C 0.69774 0.1643 0.99195 0.0
C56 C 0.67825 0.17076 0.94174 0.0
C57 C 0.65036 0.19129 0.02054 0.0
C58 C 0.66967 0.18507 0.06952 0.0
N59 N 0.69306 0.17175 0.05489 0.0
N60 N 0.65515 0.18413 0.95822 0.0
H61 H 0.71681 0.15417 0.98136 0.0
C62 C 0.58292 0.07563 0.2296 0.0
O63 O 0.604 0.08403 0.17742 0.0
O64 O 0.77451 0.19537 0.11778 0.0
H65 H 0.66589 0.19108 0.11881 0.0
H66 H 0.77232 0.1405 0.36791 0.0
H67 H 0.63175 0.20188 0.0319 0.0
Zn68 Zn 0.60601 0.74074 0.12109 0.0
C69 C 0.53704 0.67204 0.98307 0.0
N70 N 0.54887 0.6492 0.00569 0.0
C71 C 0.57587 0.67062 0.04778 0.0
N72 N 0.58023 0.70517 0.05188 0.0
N73 N 0.55664 0.70625 0.00973 0.0
C74 C 0.51287 0.77585 0.93184 0.0
O75 O 0.5454 0.80656 0.92808 0.0
O76 O 0.64769 0.73127 0.14866 0.0
Zn77 Zn 0.5618 0.75053 0.96994 0.0
N78 N 0.56976 0.72849 0.19052 0.0
C79 C 0.50576 0.70282 0.21966 0.0
C80 C 0.53351 0.71422 0.17244 0.0
C81 C 0.57956 0.73275 0.25436 0.0
N82 N 0.51538 0.70658 0.28327 0.0
C83 C 0.55159 0.7215 0.30232 0.0
O84 O 0.59002 0.79751 0.02295 0.0
C85 C 0.61444 0.81371 0.06699 0.0
O86 O 0.62591 0.79593 0.10183 0.0
H87 H 0.5261 0.7113 0.12167 0.0
H88 H 0.60858 0.7439 0.26735 0.0
C89 C 0.58095 0.75213 0.83201 0.0
C90 C 0.60634 0.75626 0.7824 0.0
C91 C 0.65423 0.77439 0.86111 0.0
C92 C 0.62904 0.77 0.90995 0.0
N93 N 0.59297 0.75876 0.8947 0.0
N94 N 0.64229 0.76721 0.79877 0.0
H95 H 0.55196 0.74277 0.82133 0.0
C96 C 0.66882 0.73176 0.10309 0.0
O97 O 0.6653 0.74302 0.04522 0.0
O98 O 0.51183 0.74552 0.94659 0.0
H99 H 0.63792 0.77494 0.96007 0.0
H100 H 0.47678 0.69102 0.20593 0.0
H101 H 0.68297 0.78305 0.87265 0.0
Zn102 Zn 0.89295 0.5312 0.25919 0.0
C103 C 0.79499 0.49013 0.17401 0.0
N104 N 0.79048 0.45722 0.19425 0.0
C105 C 0.82487 0.46617 0.21415 0.0
N106 N 0.84914 0.50286 0.2073 0.0
N107 N 0.83065 0.51794 0.18059 0.0
C108 C 0.82705 0.60873 0.13774 0.0
O109 O 0.85464 0.62194 0.1796 0.0
O110 O 0.92005 0.50162 0.2738 0.0
Zn111 Zn 0.85487 0.55906 0.11961 0.0
N112 N 0.8755 0.5461 0.33488 0.0
C113 C 0.84729 0.58252 0.36175 0.0
C114 C 0.86046 0.5673 0.31584 0.0
C115 C 0.87804 0.5395 0.39904 0.0
N116 N 0.85021 0.57653 0.42548 0.0
C117 C 0.86523 0.55554 0.44592 0.0
O118 O 0.90636 0.60126 0.14533 0.0
C119 C 0.93348 0.60583 0.18102 0.0
O120 O 0.9304 0.58072 0.22026 0.0
H121 H 0.85927 0.57285 0.26495 0.0
H122 H 0.89079 0.52319 0.41321 0.0
C123 C 0.86058 0.54362 0.97956 0.0
C124 C 0.87395 0.52917 0.93076 0.0
C125 C 0.89507 0.50331 0.01169 0.0
C126 C 0.88289 0.51843 0.05951 0.0
N127 N 0.86561 0.53798 0.04317 0.0
N128 N 0.89065 0.5093 0.94865 0.0
H129 H 0.84797 0.56033 0.96729 0.0
C130 C 0.94265 0.50724 0.22718 0.0
O131 O 0.94483 0.52929 0.17952 0.0
O132 O 0.82109 0.58084 0.10292 0.0
H133 H 0.88823 0.51545 0.1095 0.0
H134 H 0.83532 0.59943 0.34697 0.0
H135 H 0.90879 0.48772 0.02452 0.0
Zn136 Zn 0.27377 0.86723 0.13853 0.0
C137 C 0.33314 0.85186 0.9989 0.0
N138 N 0.36166 0.88026 0.03013 0.0
C139 C 0.34392 0.89056 0.07302 0.0
N140 N 0.30655 0.86914 0.06958 0.0
N141 N 0.29985 0.84503 0.02235 0.0
C142 C 0.23532 0.74037 0.98651 0.0
O143 O 0.22504 0.74565 0.04412 0.0
O144 O 0.28911 0.92087 0.16076 0.0
Zn145 Zn 0.25369 0.81515 0.97962 0.0
N146 N 0.28563 0.84501 0.21033 0.0
C147 C 0.30556 0.80285 0.24515 0.0
C148 C 0.29511 0.81872 0.1957 0.0
C149 C 0.28491 0.85523 0.27283 0.0
N150 N 0.30514 0.81318 0.30752 0.0
C151 C 0.29471 0.83871 0.32306 0.0
O152 O 0.20917 0.80148 0.03554 0.0
C153 C 0.19611 0.80869 0.08588 0.0
O154 O 0.21722 0.83428 0.12546 0.0
H155 H 0.2951 0.81053 0.14584 0.0
H156 H 0.27713 0.87615 0.28298 0.0
C157 C 0.26017 0.84134 0.84758 0.0
C158 C 0.25987 0.86549 0.79978 0.0
C159 C 0.24232 0.89522 0.87988 0.0
C160 C 0.24232 0.87102 0.92687 0.0
N161 N 0.25144 0.84482 0.90991 0.0
N162 N 0.25114 0.89196 0.81763 0.0
H163 H 0.26794 0.82058 0.83595 0.0
C164 C 0.2915 0.94265 0.11502 0.0
O165 O 0.28093 0.92882 0.05648 0.0
O166 O 0.25026 0.76749 0.94686 0.0
H167 H 0.23548 0.87326 0.97677 0.0
H168 H 0.31375 0.78234 0.23415 0.0
H169 H 0.23542 0.91645 0.89271 0.0
Zn170 Zn 0.46709 0.30002 0.13081 0.0
C171 C 0.54903 0.36219 0.25112 0.0
N172 N 0.55633 0.33397 0.24881 0.0
C173 C 0.52568 0.30635 0.22068 0.0
N174 N 0.50103 0.31744 0.20446 0.0
N175 N 0.5152 0.352 0.22581 0.0
C176 C 0.50952 0.43879 0.23347 0.0
O177 O 0.49268 0.41926 0.18154 0.0
O178 O 0.44373 0.24398 0.12698 0.0
Zn179 Zn 0.48303 0.36593 0.26918 0.0
N180 N 0.49787 0.32226 0.05249 0.0
C181 C 0.55936 0.35747 0.0084 0.0
C182 C 0.53555 0.34218 0.06138 0.0
C183 C 0.48308 0.31801 0.99166 0.0
N184 N 0.54475 0.35254 0.94804 0.0
C185 C 0.50725 0.33345 0.93778 0.0
O186 O 0.43764 0.3535 0.21579 0.0
C187 C 0.41751 0.33496 0.16798 0.0
O188 O 0.42552 0.31408 0.1337 0.0
H189 H 0.54746 0.34622 0.10909 0.0
H190 H 0.45311 0.30216 0.98518 0.0
C191 C 0.46947 0.34406 0.4103 0.0
C192 C 0.45231 0.31575 0.45823 0.0
C193 C 0.42501 0.27059 0.37408 0.0
C194 C 0.44178 0.29838 0.32764 0.0
N195 N 0.46371 0.33442 0.34611 0.0
N196 N 0.43069 0.2799 0.43766 0.0
H197 H 0.48666 0.37308 0.42312 0.0
C198 C 0.41377 0.22268 0.15773 0.0
O199 O 0.39708 0.2375 0.19059 0.0
O200 O 0.51067 0.42186 0.28428 0.0
H201 H 0.43739 0.29137 0.2767 0.0
H202 H 0.58931 0.373 0.01513 0.0
H203 H 0.40759 0.24178 0.35983 0.0
C204 C 0.3571 0.31548 0.10803 0.0
C205 C 0.38472 0.33935 0.15181 0.0
C206 C 0.32643 0.32032 0.09306 0.0
C207 C 0.32355 0.34995 0.12191 0.0
C208 C 0.35124 0.37392 0.1663 0.0
C209 C 0.38122 0.36825 0.18083 0.0
C210 C 0.29734 0.29403 0.04582 0.0
C211 C 0.34975 0.40624 0.1975 0.0
C212 C 0.2722 0.39329 0.03877 0.0
C213 C 0.23981 0.38039 0.07708 0.0
C214 C 0.29883 0.38242 0.0513 0.0
C215 C 0.29306 0.3577 0.10323 0.0
C216 C 0.25982 0.34338 0.14064 0.0
C217 C 0.23367 0.355 0.12734 0.0
C218 C 0.33399 0.39878 0.01058 0.0
C219 C 0.25249 0.31674 0.19613 0.0
H220 H 0.3594 0.293 0.08556 0.0
H221 H 0.4024 0.3871 0.21442 0.0
H222 H 0.26912 0.28177 0.06796 0.0
H223 H 0.29739 0.3096 1.00192 0.0
H224 H 0.3023 0.27107 0.03062 0.0
H225 H 0.37293 0.4217 0.23236 0.0
H226 H 0.35128 0.42598 0.15949 0.0
H227 H 0.32286 0.3961 0.2236 0.0
H228 H 0.27742 0.41284 0.99966 0.0
H229 H 0.20876 0.34468 0.15709 0.0
H230 H 0.33844 0.37628 0.99107 0.0
H231 H 0.35848 0.4169 0.04125 0.0
H232 H 0.33313 0.41563 0.96929 0.0
H233 H 0.25639 0.29331 0.17993 0.0
H234 H 0.22383 0.30521 0.21626 0.0
H235 H 0.27285 0.3314 0.23561 0.0
C236 C 0.01189 0.29828 0.06413 0.0
C237 C 0.03495 0.32193 0.11332 0.0
C238 C 0.97303 0.27721 0.07231 0.0
C239 C 0.95666 0.27996 0.13103 0.0
C240 C 0.97973 0.30385 0.18095 0.0
C241 C 0.01865 0.32448 0.1716 0.0
C242 C 0.94945 0.25206 0.0179 0.0
C243 C 0.96332 0.3075 0.24426 0.0
C244 C 0.85298 0.24834 0.12295 0.0
C245 C 0.8369 0.21204 0.14803 0.0
C246 C 0.89197 0.27123 0.11911 0.0
C247 C 0.9154 0.25731 0.14004 0.0
C248 C 0.89927 0.22091 0.16637 0.0
C249 C 0.86023 0.19882 0.17045 0.0
C250 C 0.9081 0.31019 0.09221 0.0
C251 C 0.92322 0.20492 0.18876 0.0
H252 H 0.02421 0.29627 0.01884 0.0
H253 H 0.03623 0.34309 0.20952 0.0
H254 H 0.93321 0.22286 0.03548 0.0
H255 H 0.92908 0.26044 1.00158 0.0
H256 H 0.96652 0.25289 0.97546 0.0
H257 H 0.98459 0.32969 0.27574 0.0
H258 H 0.9405 0.31369 0.23504 0.0
H259 H 0.95092 0.28068 0.27105 0.0
H260 H 0.8351 0.25896 0.10658 0.0
H261 H 0.84798 0.17082 0.19004 0.0
H262 H 0.92487 0.31329 0.04805 0.0
H263 H 0.92718 0.33061 0.12836 0.0
H264 H 0.88616 0.3172 0.07965 0.0
H265 H 0.93928 0.20307 0.14704 0.0
H266 H 0.90641 0.1767 0.2104 0.0
H267 H 0.94375 0.22356 0.22526 0.0
C268 C 0.61259 0.87252 0.04609 0.0
C269 C 0.62914 0.85432 0.0779 0.0
C270 C 0.62434 0.91021 0.05775 0.0
C271 C 0.65364 0.93064 0.1022 0.0
C272 C 0.67128 0.91289 0.13319 0.0
C273 C 0.65874 0.87492 0.12092 0.0
C274 C 0.60435 0.92775 0.02417 0.0
C275 C 0.70269 0.93372 0.18078 0.0
C276 C 0.69658 0.03665 0.09976 0.0
C277 C 0.67691 0.04214 0.15029 0.0
C278 C 0.69013 1.00066 0.08452 0.0
C279 C 0.66325 0.96942 0.12033 0.0
C280 C 0.64373 0.9749 0.17178 0.0
C281 C 0.65082 0.011 0.18613 0.0
C282 C 0.7116 0.99595 0.02944 0.0
C283 C 0.61457 0.94247 0.2109 0.0
H284 H 0.58963 0.85708 0.01302 0.0
H285 H 0.67187 0.86131 0.14563 0.0
H286 H 0.58957 0.93545 0.06072 0.0
H287 H 0.62476 0.95374 0.999 0.0
H288 H 0.58361 0.90874 0.98813 0.0
H289 H 0.71566 0.91705 0.19644 0.0
H290 H 0.72459 0.96017 0.15886 0.0
H291 H 0.69192 0.94111 0.2244 0.0
H292 H 0.71684 0.06042 0.07186 0.0
H293 H 0.6353 0.01464 0.22523 0.0
H294 H 0.69206 0.97921 0.99017 0.0
H295 H 0.72554 0.98047 0.04643 0.0
H296 H 0.73306 0.02311 0.00882 0.0
H297 H 0.59136 0.92333 0.17873 0.0
H298 H 0.60279 0.95157 0.25084 0.0
H299 H 0.6268 0.92632 0.23218 0.0
C300 C 0.76664 0.60589 0.10883 0.0
C301 C 0.80307 0.6259 0.13327 0.0
C302 C 0.74356 0.62194 0.10691 0.0
C303 C 0.75758 0.65912 0.12846 0.0
C304 C 0.79435 0.67935 0.15314 0.0
C305 C 0.81649 0.66239 0.15577 0.0
C306 C 0.70415 0.59911 0.08212 0.0
C307 C 0.81057 0.71916 0.17588 0.0
C308 C 0.71548 0.71535 0.06025 0.0
C309 C 0.69268 0.71458 0.11159 0.0
C310 C 0.73637 0.69713 0.065 0.0
C311 C 0.73454 0.67757 0.12255 0.0
C312 C 0.71166 0.6767 0.17472 0.0
C313 C 0.69098 0.69521 0.16865 0.0
C314 C 0.76048 0.69884 0.00831 0.0
C315 C 0.70928 0.65649 0.23712 0.0
H316 H 0.75594 0.57747 0.09234 0.0
H317 H 0.84465 0.67802 0.17471 0.0
H318 H 0.68429 0.59833 0.11927 0.0
H319 H 0.70051 0.61237 0.03802 0.0
H320 H 0.69681 0.57005 0.07021 0.0
H321 H 0.83935 0.73074 0.19518 0.0
H322 H 0.81128 0.73697 0.13498 0.0
H323 H 0.79266 0.72089 0.21439 0.0
H324 H 0.71685 0.73004 0.01582 0.0
H325 H 0.67312 0.69408 0.2083 0.0
H326 H 0.75184 0.67023 0.99122 0.0
H327 H 0.79007 0.71174 0.0238 0.0
H328 H 0.75875 0.71513 0.9669 0.0
H329 H 0.70283 0.62756 0.22679 0.0
H330 H 0.68778 0.65562 0.27077 0.0
H331 H 0.73669 0.67068 0.26206 0.0
C332 C 0.13434 0.75281 0.06094 0.0
C333 C 0.15567 0.7841 0.10035 0.0
C334 C 0.09725 0.72675 0.0764 0.0
C335 C 0.08053 0.73211 0.13233 0.0
C336 C 0.10122 0.76434 0.17105 0.0
C337 C 0.13867 0.78987 0.15486 0.0
C338 C 0.07647 0.6926 0.03412 0.0
C339 C 0.08416 0.77122 0.2306 0.0
C340 C 0.97473 0.67053 0.13683 0.0
C341 C 0.97047 0.64023 0.17412 0.0
C342 C 0.01025 0.70173 0.12581 0.0
C343 C 0.04232 0.70245 0.15198 0.0
C344 C 0.03804 0.67258 0.19159 0.0
C345 C 1.00225 0.64202 0.20243 0.0
C346 C 0.0136 0.73321 0.08394 0.0
C347 C 0.07146 0.67192 0.21979 0.0
H348 H 0.14698 0.74785 0.01871 0.0
H349 H 0.15478 0.81392 0.18556 0.0
H350 H 0.06947 0.6672 0.06275 0.0
H351 H 0.04979 0.69003 0.01729 0.0
H352 H 0.09299 0.6933 0.99093 0.0
H353 H 0.10255 0.7992 0.25191 0.0
H354 H 0.05683 0.76874 0.21848 0.0
H355 H 0.07888 0.74979 0.26793 0.0
H356 H 0.95037 0.6696 0.11515 0.0
H357 H 0.99942 0.61883 0.23132 0.0
H358 H 0.02686 0.73333 0.03694 0.0
H359 H 0.03176 0.76045 0.10769 0.0
H360 H 0.98598 0.73066 0.07391 0.0
H361 H 0.08844 0.66979 0.17993 0.0
H362 H 0.06326 0.6481 0.25353 0.0
H363 H 0.08954 0.6982 0.24628 0.0
C364 C 0.3301 1.00015 0.182 0.0
C365 C 0.30974 0.98357 0.12527 0.0
C366 C 0.34915 0.03914 0.19001 0.0
C367 C 0.34756 0.06204 0.14042 0.0
C368 C 0.32715 0.04541 0.08307 0.0
C369 C 0.30863 0.0065 0.07614 0.0
C370 C 0.37135 0.05585 0.25115 0.0
C371 C 0.32495 0.06881 0.0288 0.0
C372 C 0.36158 0.15798 0.18019 0.0
C373 C 0.39766 0.18166 0.15611 0.0
C374 C 0.34542 0.11905 0.17685 0.0
C375 C 0.36583 0.1033 0.14899 0.0
C376 C 0.40268 0.12714 0.12608 0.0
C377 C 0.41815 0.16598 0.13013 0.0
C378 C 0.30609 0.09473 0.20181 0.0
C379 C 0.42602 0.11191 0.0975 0.0
H380 H 0.33175 0.98273 0.21967 0.0
H381 H 0.29323 0.99401 0.03195 0.0
H382 H 0.40139 0.07323 0.23872 0.0
H383 H 0.36251 0.07436 0.27465 0.0
H384 H 0.36811 0.0342 0.28664 0.0
H385 H 0.30824 0.05165 0.98705 0.0
H386 H 0.31222 0.08521 0.04703 0.0
H387 H 0.35349 0.08894 0.01131 0.0
H388 H 0.34561 0.16985 0.2007 0.0
H389 H 0.44635 0.18409 0.11262 0.0
H390 H 0.30546 0.07464 0.2382 0.0
H391 H 0.28758 0.07827 0.16122 0.0
H392 H 0.29454 0.11124 0.22449 0.0
H393 H 0.43591 0.10105 0.13739 0.0
H394 H 0.45095 0.13367 0.0713 0.0
H395 H 0.40941 0.08872 0.06345 0.0
C396 C 0.12348 0.39064 0.6784 0.0
C397 C 0.15593 0.40586 0.71633 0.0
C398 C 0.12522 0.39822 0.61164 0.0
C399 C 0.16037 0.42094 0.58185 0.0
C400 C 0.19327 0.43644 0.61991 0.0
C401 C 0.19063 0.42891 0.68682 0.0
C402 C 0.08949 0.38175 0.57295 0.0
C403 C 0.23132 0.46035 0.58972 0.0
C404 C 0.17008 0.41162 0.40011 0.0
C405 C 0.17117 0.44392 0.37634 0.0
C406 C 0.16623 0.4036 0.4669 0.0
C407 C 0.16285 0.4282 0.5107 0.0
C408 C 0.16281 0.46024 0.48667 0.0
C409 C 0.16738 0.46791 0.41984 0.0
C410 C 0.16693 0.36943 0.49078 0.0
C411 C 0.15855 0.48674 0.53164 0.0
H412 H 0.09659 0.37287 0.7011 0.0
H413 H 0.21588 0.44015 0.7156 0.0
H414 H 0.0872 0.40423 0.54771 0.0
H415 H 0.08977 0.36283 0.53504 0.0
H416 H 0.06432 0.36581 0.60389 0.0
H417 H 0.25415 0.47036 0.62605 0.0
H418 H 0.23636 0.44424 0.55189 0.0
H419 H 0.23257 0.4849 0.56547 0.0
H420 H 0.17367 0.39334 0.3668 0.0
H421 H 0.16808 0.49284 0.40151 0.0
H422 H 0.14134 0.35144 0.51937 0.0
H423 H 0.19114 0.37791 0.52355 0.0
H424 H 0.16894 0.35273 0.45035 0.0
H425 H 0.13292 0.4713 0.56159 0.0
H426 H 0.15696 0.50923 0.50483 0.0
H427 H 0.18258 0.49976 0.56544 0.0
C428 C 0.72791 0.16376 0.56872 0.0
C429 C 0.69693 0.13984 0.53062 0.0
C430 C 0.7245 0.16758 0.63565 0.0
C431 C 0.6892 0.14685 0.66595 0.0
C432 C 0.65765 0.12275 0.62798 0.0
C433 C 0.66184 0.11957 0.56069 0.0
C434 C 0.7588 0.19396 0.67392 0.0
C435 C 0.61954 0.10013 0.65861 0.0
C436 C 0.68947 0.13643 0.85025 0.0
C437 C 0.68215 0.16443 0.87154 0.0
C438 C 0.6911 0.12983 0.78347 0.0
C439 C 0.68539 0.15177 0.73691 0.0
C440 C 0.67798 0.17997 0.75816 0.0
C441 C 0.67639 0.18586 0.82489 0.0
C442 C 0.69898 0.09941 0.76267 0.0
C443 C 0.67215 0.20431 0.71035 0.0
H444 H 0.75512 0.17976 0.54604 0.0
H445 H 0.63785 0.10051 0.53214 0.0
H446 H 0.75457 0.21586 0.69687 0.0
H447 H 0.76356 0.17865 0.71357 0.0
H448 H 0.78433 0.20772 0.64318 0.0
H449 H 0.59791 0.08235 0.62271 0.0
H450 H 0.62054 0.08202 0.69737 0.0
H451 H 0.61101 0.11896 0.68182 0.0
H452 H 0.69316 0.11912 0.88555 0.0
H453 H 0.67085 0.20767 0.84058 0.0
H454 H 0.72527 0.11159 0.73407 0.0
H455 H 0.67627 0.07929 0.7307 0.0
H456 H 0.70161 0.08403 0.80468 0.0
H457 H 0.69768 0.22032 0.68042 0.0
H458 H 0.66555 0.22431 0.73474 0.0
H459 H 0.64901 0.18678 0.67674 0.0
C460 C 0.5713 0.75915 0.68497 0.0
C461 C 0.59527 0.74832 0.71333 0.0
C462 C 0.56359 0.75437 0.61808 0.0
C463 C 0.57982 0.73789 0.57907 0.0
C464 C 0.60319 0.72599 0.60793 0.0
C465 C 0.6109 0.73169 0.67453 0.0
C466 C 0.53891 0.76784 0.58884 0.0
C467 C 0.62041 0.70762 0.56834 0.0
C468 C 0.53563 0.6975 0.4157 0.0
C469 C 0.56015 0.72525 0.37264 0.0
C470 C 0.54184 0.70109 0.48294 0.0
C471 C 0.57294 0.7336 0.50783 0.0
C472 C 0.59779 0.76177 0.46459 0.0
C473 C 0.59125 0.75714 0.3974 0.0
C474 C 0.51515 0.6701 0.52732 0.0
C475 C 0.63099 0.79705 0.48939 0.0
H476 H 0.55962 0.77255 0.71455 0.0
H477 H 0.6293 0.72309 0.69639 0.0
H478 H 0.55491 0.78973 0.55208 0.0
H479 H 0.51496 0.74461 0.56347 0.0
H480 H 0.52794 0.77945 0.62595 0.0
H481 H 0.63651 0.6984 0.59876 0.0
H482 H 0.59831 0.68305 0.54231 0.0
H483 H 0.63942 0.72735 0.53106 0.0
H484 H 0.51161 0.67276 0.39665 0.0
H485 H 0.60988 0.779 0.36443 0.0
H486 H 0.50205 0.68082 0.56182 0.0
H487 H 0.5306 0.65967 0.55658 0.0
H488 H 0.4927 0.64634 0.50011 0.0
H489 H 0.62146 0.81155 0.52316 0.0
H490 H 0.6473 0.81652 0.44949 0.0
H491 H 0.64977 0.79016 0.51713 0.0
C492 C 0.90402 0.54476 0.82234 0.0
C493 C 0.87269 0.53627 0.8608 0.0
C494 C 0.90315 0.54807 0.75482 0.0
C495 C 0.86985 0.54206 0.72475 0.0
C496 C 0.83815 0.53389 0.76335 0.0
C497 C 0.84004 0.5314 0.83125 0.0
C498 C 0.93782 0.55771 0.71566 0.0
C499 C 0.80207 0.52698 0.73276 0.0
C500 C 0.87779 0.58264 0.55666 0.0
C501 C 0.86851 0.55179 0.51665 0.0
C502 C 0.87833 0.57982 0.62435 0.0
C503 C 0.8687 0.54508 0.65294 0.0
C504 C 0.85937 0.51376 0.61285 0.0
C505 C 0.85967 0.51756 0.54493 0.0
C506 C 0.88929 0.61406 0.66524 0.0
C507 C 0.84861 0.47619 0.64177 0.0
H508 H 0.92935 0.54867 0.84527 0.0
H509 H 0.81565 0.52428 0.8609 0.0
H510 H 0.93202 0.53484 0.6812 0.0
H511 H 0.94612 0.58321 0.68643 0.0
H512 H 0.96175 0.56248 0.74678 0.0
H513 H 0.77998 0.52089 0.76947 0.0
H514 H 0.80684 0.55166 0.70402 0.0
H515 H 0.79181 0.50309 0.69871 0.0
H516 H 0.88475 0.60919 0.53482 0.0
H517 H 0.85185 0.49353 0.51415 0.0
H518 H 0.91388 0.62014 0.69552 0.0
H519 H 0.86617 0.60903 0.6988 0.0
H520 H 0.89624 0.63905 0.6353 0.0
H521 H 0.87202 0.47814 0.67114 0.0
H522 H 0.84125 0.45443 0.60404 0.0
H523 H 0.82438 0.46724 0.67493 0.0
C524 C 0.31988 0.84925 0.43563 0.0
C525 C 0.29287 0.84728 0.3922 0.0
C526 C 0.31703 0.85414 0.50239 0.0
C527 C 0.28597 0.85628 0.52628 0.0
C528 C 0.25888 0.85485 0.4825 0.0
C529 C 0.26279 0.85061 0.41584 0.0
C530 C 0.34682 0.85626 0.54747 0.0
C531 C 0.2251 0.85651 0.5063 0.0
C532 C 0.2558 0.82816 0.70116 0.0
C533 C 0.26857 0.86291 0.7309 0.0
C534 C 0.26162 0.82563 0.63463 0.0
C535 C 0.28104 0.85865 0.59728 0.0
C536 C 0.29478 0.89382 0.62741 0.0
C537 C 0.28804 0.8955 0.69377 0.0
C538 C 0.24608 0.7876 0.60397 0.0
C539 C 0.31616 0.92963 0.58938 0.0
H540 H 0.3432 0.84676 0.41733 0.0
H541 H 0.24146 0.84837 0.38257 0.0
H542 H 0.35794 0.88171 0.5779 0.0
H543 H 0.33458 0.83195 0.58083 0.0
H544 H 0.3704 0.85661 0.52071 0.0
H545 H 0.20716 0.85607 0.46579 0.0
H546 H 0.20812 0.83241 0.53869 0.0
H547 H 0.23394 0.88217 0.53523 0.0
H548 H 0.24011 0.80286 0.72935 0.0
H549 H 0.29805 0.9224 0.71673 0.0
H550 H 0.26877 0.7851 0.57975 0.0
H551 H 0.22546 0.78392 0.56605 0.0
H552 H 0.23222 0.76469 0.64 0.0
H553 H 0.34025 0.93025 0.56416 0.0
H554 H 0.32666 0.95469 0.62078 0.0
H555 H 0.29792 0.93117 0.55149 0.0
C556 C 0.43227 0.29381 0.57231 0.0
C557 C 0.45678 0.32243 0.53006 0.0
C558 C 0.43762 0.29633 0.63974 0.0
C559 C 0.46788 0.32865 0.66666 0.0
C560 C 0.49155 0.35865 0.62518 0.0
C561 C 0.486 0.3551 0.5574 0.0
C562 C 0.41199 0.2634 0.68177 0.0
C563 C 0.52375 0.39393 0.6522 0.0
C564 C 0.46852 0.34045 0.8509 0.0
C565 C 0.49387 0.32906 0.87 0.0
C566 C 0.46012 0.34107 0.78474 0.0
C567 C 0.47685 0.32923 0.73706 0.0
C568 C 0.50162 0.3167 0.7567 0.0
C569 C 0.5102 0.3173 0.8227 0.0
C570 C 0.43419 0.35532 0.76569 0.0
C571 C 0.51926 0.3028 0.70794 0.0
H572 H 0.40918 0.26856 0.55266 0.0
H573 H 0.50546 0.37748 0.5263 0.0
H574 H 0.42801 0.25106 0.70333 0.0
H575 H 0.40073 0.27243 0.72249 0.0
H576 H 0.38819 0.24136 0.65401 0.0
H577 H 0.53637 0.41645 0.6152 0.0
H578 H 0.51437 0.40405 0.69418 0.0
H579 H 0.54569 0.38811 0.66997 0.0
H580 H 0.45649 0.35028 0.8874 0.0
H581 H 0.52995 0.30867 0.83752 0.0
H582 H 0.41021 0.33377 0.73774 0.0
H583 H 0.44917 0.38 0.73356 0.0
H584 H 0.4233 0.3633 0.80852 0.0
H585 H 0.49723 0.27947 0.67942 0.0
H586 H 0.53702 0.29297 0.7314 0.0
H587 H 0.53674 0.32537 0.67321 0.0
C588 C 0.19592 0.67189 0.99351 0.0
C589 C 0.22775 0.70282 0.96833 0.0
C590 C 0.18877 0.63567 0.98145 0.0
C591 C 0.21463 0.63022 0.94432 0.0
C592 C 0.24642 0.66137 0.9171 0.0
C593 C 0.25245 0.69749 0.92893 0.0
C594 C 0.15426 0.6033 0.01103 0.0
C595 C 0.27498 0.6568 0.87849 0.0
C596 C 0.20649 0.54068 1.0026 0.0
C597 C 0.17992 0.51504 0.95961 0.0
C598 C 0.22181 0.57908 0.99353 0.0
C599 C 0.20956 0.59208 0.94073 0.0
C600 C 0.1854 0.56645 0.89368 0.0
C601 C 0.17041 0.52799 0.90415 0.0
C602 C 0.24717 0.60532 0.04529 0.0
C603 C 0.17201 0.57929 0.83642 0.0
H604 H 0.17661 0.67606 0.02334 0.0
H605 H 0.2772 0.72153 0.90971 0.0
H606 H 0.13804 0.5823 0.97329 0.0
H607 H 0.16253 0.58938 0.04822 0.0
H608 H 0.13572 0.61222 0.03448 0.0
H609 H 0.2929 0.68194 0.84881 0.0
H610 H 0.2932 0.65224 0.91235 0.0
H611 H 0.26134 0.6322 0.846 0.0
H612 H 0.21228 0.53073 0.04729 0.0
H613 H 0.14909 0.50809 0.87185 0.0
H614 H 0.23146 0.61523 0.07524 0.0
H615 H 0.27111 0.63014 0.0229 0.0
H616 H 0.25806 0.59158 0.07802 0.0
H617 H 0.15002 0.58546 0.85281 0.0
H618 H 0.16004 0.55764 0.79797 0.0
H619 H 0.19517 0.60527 0.81536 0.0
C620 C 0.55537 0.27527 0.16562 0.0
C621 C 0.52478 0.27171 0.20095 0.0
C622 C 0.56691 0.24877 0.17141 0.0
C623 C 0.54713 0.21783 0.21348 0.0
C624 C 0.5127 0.21108 0.24062 0.0
C625 C 0.50211 0.23854 0.23485 0.0
C626 C 0.60312 0.2567 0.13935 0.0
C627 C 0.4891 0.17698 0.28137 0.0
C628 C 0.59925 0.16437 0.21517 0.0
C629 C 0.62602 0.1841 0.26319 0.0
C630 C 0.56943 0.17099 0.20392 0.0
C631 C 0.5673 0.19906 0.23988 0.0
C632 C 0.59169 0.21575 0.29335 0.0
C633 C 0.62064 0.20793 0.3044 0.0
C634 C 0.54294 0.15079 0.14889 0.0
C635 C 0.59027 0.24541 0.33404 0.0
H636 H 0.57285 0.30097 0.13935 0.0
H637 H 0.47836 0.23571 0.26226 0.0
H638 H 0.62511 0.26479 0.17683 0.0
H639 H 0.59979 0.23144 0.11458 0.0
H640 H 0.61291 0.27962 0.10315 0.0
H641 H 0.45921 0.16936 0.27976 0.0
H642 H 0.4917 0.15282 0.26479 0.0
H643 H 0.49845 0.1829 0.33262 0.0
H644 H 0.60368 0.14679 0.18166 0.0
H645 H 0.64134 0.22333 0.34138 0.0
H646 H 0.55573 0.16519 0.10248 0.0
H647 H 0.51582 0.14996 0.15512 0.0
H648 H 0.53773 0.12177 0.145 0.0
H649 H 0.59982 0.27106 0.30449 0.0
H650 H 0.60832 0.25265 0.37771 0.0
H651 H 0.56124 0.236 0.35001 0.0
C652 C 0.32608 0.53732 0.89947 0.0
C653 C 0.304 0.54576 0.9399 0.0
C654 C 0.36416 0.56316 0.89046 0.0
C655 C 0.37992 0.59846 0.92119 0.0
C656 C 0.35625 0.60877 0.95408 0.0
C657 C 0.31872 0.58188 0.96462 0.0
C658 C 0.38825 0.55068 0.85566 0.0
C659 C 0.37142 0.64669 0.98487 0.0
C660 C 0.47114 0.62887 0.00733 0.0
C661 C 0.49742 0.65572 0.96521 0.0
C662 C 0.43312 0.61029 0.99304 0.0
C663 C 0.42066 0.61918 0.93532 0.0
C664 C 0.44698 0.64695 0.89286 0.0
C665 C 0.48539 0.66482 0.90816 0.0
C666 C 0.40639 0.58074 0.03982 0.0
C667 C 0.43471 0.65721 0.83106 0.0
H668 H 0.3146 0.50933 0.88022 0.0
H669 H 0.30146 0.58851 0.99514 0.0
H670 H 0.41011 0.57359 0.82615 0.0
H671 H 0.40251 0.54236 0.89211 0.0
H672 H 0.37143 0.5264 0.82358 0.0
H673 H 0.34907 0.65389 0.99214 0.0
H674 H 0.38336 0.64664 0.03307 0.0
H675 H 0.39399 0.66863 0.95474 0.0
H676 H 0.4805 0.62208 0.05184 0.0
H677 H 0.50584 0.68532 0.87538 0.0
H678 H 0.42104 0.57605 0.08079 0.0
H679 H 0.38957 0.55388 0.01406 0.0
H680 H 0.38676 0.58909 0.06029 0.0
H681 H 0.42621 0.63446 0.79511 0.0
H682 H 0.45745 0.68326 0.80924 0.0
H683 H 0.4101 0.66069 0.8402 0.0
C684 C 0.85721 0.43058 0.18895 0.0
C685 C 0.83401 0.437 0.23047 0.0
C686 C 0.85322 0.39478 0.18401 0.0
C687 C 0.82477 0.365 0.22021 0.0
C688 C 0.80535 0.37295 0.26891 0.0
C689 C 0.81015 0.40888 0.27316 0.0
C690 C 0.87658 0.38817 0.13524 0.0
C691 C 0.77574 0.34252 0.31074 0.0
C692 C 0.75074 0.27416 0.15405 0.0
C693 C 0.75378 0.24953 0.19666 0.0
C694 C 0.77761 0.31215 0.15374 0.0
C695 C 0.80812 0.32562 0.19749 0.0
C696 C 0.81455 0.29969 0.23194 0.0
C697 C 0.78685 0.26173 0.23189 0.0
C698 C 0.76997 0.33836 0.11414 0.0
C699 C 0.84806 0.31219 0.27523 0.0
H700 H 0.87554 0.45224 0.15542 0.0
H701 H 0.79225 0.41395 0.30522 0.0
H702 H 0.86095 0.37805 0.08907 0.0
H703 H 0.90319 0.41426 0.12483 0.0
H704 H 0.88301 0.36665 0.15295 0.0
H705 H 0.76619 0.35393 0.35059 0.0
H706 H 0.75119 0.32403 0.28042 0.0
H707 H 0.78653 0.32521 0.33245 0.0
H708 H 0.7251 0.26458 0.12679 0.0
H709 H 0.78931 0.24257 0.26472 0.0
H710 H 0.79585 0.35992 0.09022 0.0
H711 H 0.75974 0.35282 0.14664 0.0
H712 H 0.74852 0.32337 0.07623 0.0
H713 H 0.85822 0.29187 0.27315 0.0
H714 H 0.83989 0.31327 0.32622 0.0
H715 H 0.87124 0.34017 0.26152 0.0
C716 C 0.44631 0.7516 0.89805 0.0
C717 C 0.47845 0.77826 0.93018 0.0
C718 C 0.41412 0.75516 0.89515 0.0
C719 C 0.41374 0.78511 0.92804 0.0
C720 C 0.44593 0.81123 0.96266 0.0
C721 C 0.47805 0.80793 0.96191 0.0
C722 C 0.38105 0.72678 0.8568 0.0
C723 C 0.44664 0.84283 1.00088 0.0
C724 C 0.36187 0.83687 0.90677 0.0
C725 C 0.33929 0.82496 0.96224 0.0
C726 C 0.38191 0.81924 0.8876 0.0
C727 C 0.38067 0.79057 0.92702 0.0
C728 C 0.35368 0.77503 0.97721 0.0
C729 C 0.33313 0.79249 0.99422 0.0
C730 C 0.40802 0.83443 0.8302 0.0
C731 C 0.35003 0.7432 0.01833 0.0
H732 H 0.44673 0.72866 0.87361 0.0
H733 H 0.5028 0.82825 0.98759 0.0
H734 H 0.36448 0.70177 0.88745 0.0
H735 H 0.36258 0.73757 0.84066 0.0
H736 H 0.39045 0.71762 0.81347 0.0
H737 H 0.44533 0.86307 0.9672 0.0
H738 H 0.42203 0.83205 0.03367 0.0
H739 H 0.47231 0.85803 0.03068 0.0
H740 H 0.3665 0.86195 0.88193 0.0
H741 H 0.31571 0.78342 0.0374 0.0
H742 H 0.40939 0.81165 0.80406 0.0
H743 H 0.43655 0.85456 0.84739 0.0
H744 H 0.39908 0.84918 0.79582 0.0
H745 H 0.34767 0.72034 0.98698 0.0
H746 H 0.32522 0.7319 0.05083 0.0
H747 H 0.37542 0.75295 0.04863 0.0
C748 C 0.73229 0.46452 0.12762 0.0
C749 C 0.76217 0.49414 0.15961 0.0
C750 C 0.69543 0.45586 0.13971 0.0
C751 C 0.68847 0.47801 0.184 0.0
C752 C 0.71892 0.5119 0.20665 0.0
C753 C 0.75569 0.51928 0.19526 0.0
C754 C 0.66411 0.41987 0.11256 0.0
C755 C 0.71288 0.53823 0.24885 0.0
C756 C 0.58419 0.42659 0.20464 0.0
C757 C 0.58051 0.401 0.25297 0.0
C758 C 0.61951 0.45682 0.18834 0.0
C759 C 0.65174 0.46007 0.21867 0.0
C760 C 0.6474 0.43741 0.27348 0.0
C761 C 0.61172 0.40845 0.29034 0.0
C762 C 0.62248 0.48258 0.13397 0.0
C763 C 0.68072 0.44014 0.30876 0.0
H764 H 0.73743 0.44532 0.09948 0.0
H765 H 0.77873 0.54233 0.22015 0.0
H766 H 0.65081 0.39921 0.15233 0.0
H767 H 0.64234 0.42458 0.09059 0.0
H768 H 0.67412 0.40758 0.07501 0.0
H769 H 0.73526 0.5675 0.24043 0.0
H770 H 0.68535 0.53596 0.23958 0.0
H771 H 0.71408 0.53164 0.30069 0.0
H772 H 0.56037 0.42093 0.17483 0.0
H773 H 0.60887 0.3889 0.3281 0.0
H774 H 0.62493 0.47096 0.08688 0.0
H775 H 0.6474 0.51065 0.13983 0.0
H776 H 0.59711 0.48541 0.13189 0.0
H777 H 0.69601 0.43088 0.2762 0.0
H778 H 0.67249 0.42263 0.3533 0.0
H779 H 0.70027 0.4694 0.32276 0.0
C780 C 0.99957 0.50805 0.188 0.0
C781 C 0.96618 0.4896 0.22336 0.0
C782 C 0.02043 0.49077 0.17352 0.0
C783 C 1.00771 0.45381 0.19509 0.0
C784 C 0.975 0.43561 0.23406 0.0
C785 C 0.95448 0.45378 0.24777 0.0
C786 C 0.05524 0.51172 0.13225 0.0
C787 C 0.9605 0.39642 0.25839 0.0
C788 C 0.04713 0.41631 0.07241 0.0
C789 C 0.08286 0.42942 0.0982 0.0
C790 C 0.01929 0.41842 0.10829 0.0
C791 C 0.02773 0.4344 0.17116 0.0
C792 C 0.06172 0.44198 0.20089 0.0
C793 C 0.08926 0.44007 0.16349 0.0
C794 C 0.98331 0.40923 0.07463 0.0
C795 C 0.07122 0.45734 0.26888 0.0
H796 H 1.00896 0.53595 0.16974 0.0
H797 H 0.92848 0.43931 0.27475 0.0
H798 H 0.07969 0.51341 0.15765 0.0
H799 H 0.05179 0.49672 0.08582 0.0
H800 H 0.06158 0.54055 0.12073 0.0
H801 H 0.94326 0.37651 0.22 0.0
H802 H 0.9837 0.39117 0.27014 0.0
H803 H 0.94261 0.39066 0.30212 0.0
H804 H 0.04214 0.40801 0.0218 0.0
H805 H 0.11694 0.45108 0.18327 0.0
H806 H 0.98644 0.43487 0.05145 0.0
H807 H 0.95971 0.3989 0.10943 0.0
H808 H 0.9764 0.38797 0.03612 0.0
H809 H 0.08195 0.48784 0.26757 0.0
H810 H 0.09315 0.45258 0.2905 0.0
H811 H 0.0461 0.44445 0.30058 0.0
C812 C 0.53019 0.02408 0.17207 0.0
C813 C 0.54248 0.04956 0.22346 0.0
C814 C 0.49227 0.99928 0.16227 0.0
C815 C 0.46558 1.00025 0.20443 0.0
C816 C 0.47769 0.02597 0.25666 0.0
C817 C 0.51626 0.05011 0.26619 0.0
C818 C 0.48089 0.97226 0.106 0.0
C819 C 0.45021 0.02799 0.30253 0.0
C820 C 0.37793 0.95627 0.10714 0.0
C821 C 0.36438 0.91882 0.12257 0.0
C822 C 0.40796 0.98446 0.14155 0.0
C823 C 0.42535 0.9746 0.19076 0.0
C824 C 0.40853 0.93708 0.21184 0.0
C825 C 0.37841 0.90942 0.17666 0.0
C826 C 0.42414 0.02422 0.11921 0.0
C827 C 0.42542 0.92548 0.26544 0.0
H828 H 0.55042 0.0233 0.13935 0.0
H829 H 0.5258 0.06991 0.30592 0.0
H830 H 0.46392 0.94319 0.12379 0.0
H831 H 0.46345 0.97753 0.07145 0.0
H832 H 0.50531 0.97458 0.07904 0.0
H833 H 0.46275 0.05528 0.32791 0.0
H834 H 0.42473 0.02343 0.2767 0.0
H835 H 0.44154 0.00577 0.33974 0.0
H836 H 0.3673 0.96337 0.0646 0.0
H837 H 0.36834 0.88033 0.1877 0.0
H838 H 0.44825 0.03154 0.08652 0.0
H839 H 0.43435 0.04352 0.16121 0.0
H840 H 0.4032 0.02829 0.09215 0.0
H841 H 0.44956 0.92368 0.24583 0.0
H842 H 0.40492 0.89779 0.2857 0.0
H843 H 0.43579 0.94631 0.30521 0.0
C844 C 0.56336 0.50315 0.25244 0.0
C845 C 0.52707 0.47959 0.22972 0.0
C846 C 0.58233 0.54138 0.23649 0.0
C847 C 0.56425 0.55596 0.1976 0.0
C848 C 0.52665 0.53238 0.17846 0.0
C849 C 0.50873 0.49455 0.19447 0.0
C850 C 0.62229 0.56532 0.25769 0.0
C851 C 0.50579 0.5465 0.13768 0.0
C852 C 0.58104 0.65122 0.15989 0.0
C853 C 0.58986 0.65315 0.09385 0.0
C854 C 0.57903 0.62252 0.19917 0.0
C855 C 0.58451 0.59448 0.17061 0.0
C856 C 0.59891 0.59961 0.10658 0.0
C857 C 0.60142 0.62903 0.06891 0.0
C858 C 0.56532 0.61913 0.26813 0.0
C859 C 0.60544 0.5707 0.07389 0.0
H860 H 0.57767 0.49136 0.27908 0.0
H861 H 0.48054 0.4762 0.17731 0.0
H862 H 0.64107 0.56716 0.21751 0.0
H863 H 0.62845 0.59399 0.26951 0.0
H864 H 0.62875 0.55327 0.30061 0.0
H865 H 0.47627 0.52474 0.12922 0.0
H866 H 0.50597 0.57058 0.16175 0.0
H867 H 0.51972 0.55615 0.08978 0.0
H868 H 0.57143 0.66916 0.1792 0.0
H869 H 0.60834 0.63054 0.01773 0.0
H870 H 0.57181 0.64671 0.28795 0.0
H871 H 0.57797 0.60675 0.29992 0.0
H872 H 0.53456 0.60058 0.26933 0.0
H873 H 0.61602 0.55769 0.10864 0.0
H874 H 0.62552 0.58296 0.03292 0.0
H875 H 0.57857 0.54833 0.05413 0.0
loop_
_geom_bond_atom_site_label_1
_geom_bond_atom_site_label_2
_geom_bond_distance
_geom_bond_site_symmetry_2
_ccdc_geom_bond_type
Zn0 N4 2.020 1_556 S
Zn0 O8 2.019 . S
Zn0 N10 2.119 . S
Zn0 O18 1.975 1_556 S
C1 N2 1.334 . S
C1 N5 1.336 . S
N2 C1 1.334 . S
N2 C3 1.334 . S
C3 N2 1.334 . S
C3 N4 1.336 . S
N4 Zn0 2.020 1_554 S
N4 C3 1.336 . S
N4 N5 1.354 . S
N5 C1 1.336 . S
N5 N4 1.354 . S
N5 Zn9 2.020 . S
C6 O7 1.244 . S
C6 O30 1.257 . S
O7 C6 1.244 . S
O8 Zn0 2.019 . S
O8 C28 1.257 1_556 S
Zn9 N5 2.020 . S
Zn9 O16 1.975 . S
Zn9 N25 2.119 . S
Zn9 O30 2.019 . S
N10 Zn0 2.119 . S
N10 C12 1.334 . S
N10 C13 1.328 . S
C11 C12 1.391 . S
C11 N14 1.329 . S
C11 H32 0.930 . S
C12 N10 1.334 . S
C12 C11 1.391 . S
C12 H19 0.930 . S
C13 N10 1.328 . S
C13 C15 1.392 . S
C13 H20 0.930 . S
N14 C11 1.329 . S
N14 C15 1.331 . S
C15 C13 1.392 . S
C15 N14 1.331 . S
O16 Zn9 1.975 . S
O16 C17 1.252 . S
C17 O16 1.252 . S
C17 O18 1.252 . S
O18 Zn0 1.975 1_554 S
O18 C17 1.252 . S
H19 C12 0.930 . S
H20 C13 0.930 . S
C21 C22 1.392 . S
C21 N25 1.328 . S
C21 H27 0.930 . S
C22 C21 1.392 . S
C22 N26 1.331 . S
C23 C24 1.391 . S
C23 N26 1.329 . S
C23 H33 0.930 . S
C24 C23 1.391 . S
C24 N25 1.334 . S
C24 H31 0.930 . S
N25 Zn9 2.119 . S
N25 C21 1.328 . S
N25 C24 1.334 . S
N26 C22 1.331 . S
N26 C23 1.329 . S
H27 C21 0.930 . S
C28 O8 1.257 1_554 S
C28 O29 1.244 . S
O29 C28 1.244 . S
O30 C6 1.257 . S
O30 Zn9 2.019 . S
H31 C24 0.930 . S
H32 C11 0.930 . S
H33 C23 0.930 . S
Zn34 N38 2.020 . S
Zn34 O42 2.019 . S
Zn34 N44 2.119 . S
Zn34 O52 1.975 . S
C35 N36 1.334 . S
C35 N39 1.336 . S
N36 C35 1.334 . S
N36 C37 1.334 . S
C37 N36 1.334 . S
C37 N38 1.336 . S
N38 Zn34 2.020 . S
N38 C37 1.336 . S
N38 N39 1.354 . S
N39 C35 1.336 . S
N39 N38 1.354 . S
N39 Zn43 2.020 . S
C40 O41 1.244 . S
C40 O64 1.257 . S
O41 C40 1.244 . S
O42 Zn34 2.019 . S
O42 C62 1.257 . S
Zn43 N39 2.020 . S
Zn43 O50 1.975 . S
Zn43 N59 2.119 . S
Zn43 O64 2.019 . S
N44 Zn34 2.119 . S
N44 C46 1.334 . S
N44 C47 1.328 . S
C45 C46 1.391 . S
C45 N48 1.329 . S
C45 H66 0.930 . S
C46 N44 1.334 . S
C46 C45 1.391 . S
C46 H53 0.930 . S
C47 N44 1.328 . S
C47 C49 1.392 . S
C47 H54 0.930 . S
N48 C45 1.329 . S
N48 C49 1.331 . S
C49 C47 1.392 . S
C49 N48 1.331 . S
O50 Zn43 1.975 . S
O50 C51 1.252 . S
C51 O50 1.252 . S
C51 O52 1.252 . S
O52 Zn34 1.975 . S
O52 C51 1.252 . S
H53 C46 0.930 . S
H54 C47 0.930 . S
C55 C56 1.392 . S
C55 N59 1.328 1_556 S
C55 H61 0.930 . S
C56 C55 1.392 . S
C56 N60 1.331 . S
C57 C58 1.391 1_556 S
C57 N60 1.329 . S
C57 H67 0.930 . S
C58 C57 1.391 1_554 S
C58 N59 1.334 . S
C58 H65 0.930 . S
N59 Zn43 2.119 . S
N59 C55 1.328 1_554 S
N59 C58 1.334 . S
N60 C56 1.331 . S
N60 C57 1.329 . S
H61 C55 0.930 . S
C62 O42 1.257 . S
C62 O63 1.244 . S
O63 C62 1.244 . S
O64 C40 1.257 . S
O64 Zn43 2.019 . S
H65 C58 0.930 . S
H66 C45 0.930 . S
H67 C57 0.930 . S
Zn68 N72 2.020 . S
Zn68 O76 2.019 . S
Zn68 N78 2.119 . S
Zn68 O86 1.975 . S
C69 N70 1.334 . S
C69 N73 1.336 . S
N70 C69 1.334 . S
N70 C71 1.334 . S
C71 N70 1.334 . S
C71 N72 1.336 . S
N72 Zn68 2.020 . S
N72 C71 1.336 . S
N72 N73 1.354 . S
N73 C69 1.336 . S
N73 N72 1.354 . S
N73 Zn77 2.020 1_554 S
C74 O75 1.244 . S
C74 O98 1.257 1_554 S
O75 C74 1.244 . S
O76 Zn68 2.019 . S
O76 C96 1.257 . S
Zn77 N73 2.020 1_556 S
Zn77 O84 1.975 1_556 S
Zn77 N93 2.119 . S
Zn77 O98 2.019 . S
N78 Zn68 2.119 . S
N78 C80 1.334 . S
N78 C81 1.328 . S
C79 C80 1.391 . S
C79 N82 1.329 . S
C79 H100 0.930 . S
C80 N78 1.334 . S
C80 C79 1.391 . S
C80 H87 0.930 . S
C81 N78 1.328 . S
C81 C83 1.392 . S
C81 H88 0.930 . S
N82 C79 1.329 . S
N82 C83 1.331 . S
C83 C81 1.392 . S
C83 N82 1.331 . S
O84 Zn77 1.975 1_554 S
O84 C85 1.252 . S
C85 O84 1.252 . S
C85 O86 1.252 . S
O86 Zn68 1.975 . S
O86 C85 1.252 . S
H87 C80 0.930 . S
H88 C81 0.930 . S
C89 C90 1.392 . S
C89 N93 1.328 . S
C89 H95 0.930 . S
C90 C89 1.392 . S
C90 N94 1.331 . S
C91 C92 1.391 . S
C91 N94 1.329 . S
C91 H101 0.930 . S
C92 C91 1.391 . S
C92 N93 1.334 . S
C92 H99 0.930 . S
N93 Zn77 2.119 . S
N93 C89 1.328 . S
N93 C92 1.334 . S
N94 C90 1.331 . S
N94 C91 1.329 . S
H95 C89 0.930 . S
C96 O76 1.257 . S
C96 O97 1.244 . S
O97 C96 1.244 . S
O98 C74 1.257 1_556 S
O98 Zn77 2.019 . S
H99 C92 0.930 . S
H100 C79 0.930 . S
H101 C91 0.930 . S
Zn102 N106 2.020 . S
Zn102 O110 2.019 . S
Zn102 N112 2.119 . S
Zn102 O120 1.975 . S
C103 N104 1.334 . S
C103 N107 1.336 . S
N104 C103 1.334 . S
N104 C105 1.334 . S
C105 N104 1.334 . S
C105 N106 1.336 . S
N106 Zn102 2.020 . S
N106 C105 1.336 . S
N106 N107 1.354 . S
N107 C103 1.336 . S
N107 N106 1.354 . S
N107 Zn111 2.020 . S
C108 O109 1.244 . S
C108 O132 1.257 . S
O109 C108 1.244 . S
O110 Zn102 2.019 . S
O110 C130 1.257 . S
Zn111 N107 2.020 . S
Zn111 O118 1.975 . S
Zn111 N127 2.119 . S
Zn111 O132 2.019 . S
N112 Zn102 2.119 . S
N112 C114 1.334 . S
N112 C115 1.328 . S
C113 C114 1.391 . S
C113 N116 1.329 . S
C113 H134 0.930 . S
C114 N112 1.334 . S
C114 C113 1.391 . S
C114 H121 0.930 . S
C115 N112 1.328 . S
C115 C117 1.392 . S
C115 H122 0.930 . S
N116 C113 1.329 . S
N116 C117 1.331 . S
C117 C115 1.392 . S
C117 N116 1.331 . S
O118 Zn111 1.975 . S
O118 C119 1.252 . S
C119 O118 1.252 . S
C119 O120 1.252 . S
O120 Zn102 1.975 . S
O120 C119 1.252 . S
H121 C114 0.930 . S
H122 C115 0.930 . S
C123 C124 1.392 . S
C123 N127 1.328 1_556 S
C123 H129 0.930 . S
C124 C123 1.392 . S
C124 N128 1.331 . S
C125 C126 1.391 1_556 S
C125 N128 1.329 . S
C125 H135 0.930 . S
C126 C125 1.391 1_554 S
C126 N127 1.334 . S
C126 H133 0.930 . S
N127 Zn111 2.119 . S
N127 C123 1.328 1_554 S
N127 C126 1.334 . S
N128 C124 1.331 . S
N128 C125 1.329 . S
H129 C123 0.930 . S
C130 O110 1.257 . S
C130 O131 1.244 . S
O131 C130 1.244 . S
O132 C108 1.257 . S
O132 Zn111 2.019 . S
H133 C126 0.930 . S
H134 C113 0.930 . S
H135 C125 0.930 . S
Zn136 N140 2.020 . S
Zn136 O144 2.019 . S
Zn136 N146 2.119 . S
Zn136 O154 1.975 . S
C137 N138 1.334 . S
C137 N141 1.336 . S
N138 C137 1.334 . S
N138 C139 1.334 . S
C139 N138 1.334 . S
C139 N140 1.336 . S
N140 Zn136 2.020 . S
N140 C139 1.336 . S
N140 N141 1.354 . S
N141 C137 1.336 . S
N141 N140 1.354 . S
N141 Zn145 2.020 1_554 S
C142 O143 1.244 . S
C142 O166 1.257 1_554 S
O143 C142 1.244 . S
O144 Zn136 2.019 . S
O144 C164 1.257 . S
Zn145 N141 2.020 1_556 S
Zn145 O152 1.975 1_556 S
Zn145 N161 2.119 . S
Zn145 O166 2.019 . S
N146 Zn136 2.119 . S
N146 C148 1.334 . S
N146 C149 1.328 . S
C147 C148 1.391 . S
C147 N150 1.329 . S
C147 H168 0.930 . S
C148 N146 1.334 . S
C148 C147 1.391 . S
C148 H155 0.930 . S
C149 N146 1.328 . S
C149 C151 1.392 . S
C149 H156 0.930 . S
N150 C147 1.329 . S
N150 C151 1.331 . S
C151 C149 1.392 . S
C151 N150 1.331 . S
O152 Zn145 1.975 1_554 S
O152 C153 1.252 . S
C153 O152 1.252 . S
C153 O154 1.252 . S
O154 Zn136 1.975 . S
O154 C153 1.252 . S
H155 C148 0.930 . S
H156 C149 0.930 . S
C157 C158 1.392 . S
C157 N161 1.328 . S
C157 H163 0.930 . S
C158 C157 1.392 . S
C158 N162 1.331 . S
C159 C160 1.391 . S
C159 N162 1.329 . S
C159 H169 0.930 . S
C160 C159 1.391 . S
C160 N161 1.334 . S
C160 H167 0.930 . S
N161 Zn145 2.119 . S
N161 C157 1.328 . S
N161 C160 1.334 . S
N162 C158 1.331 . S
N162 C159 1.329 . S
H163 C157 0.930 . S
C164 O144 1.257 . S
C164 O165 1.244 . S
O165 C164 1.244 . S
O166 C142 1.257 1_556 S
O166 Zn145 2.019 . S
H167 C160 0.930 . S
H168 C147 0.930 . S
H169 C159 0.930 . S
Zn170 N174 2.020 . S
Zn170 O178 2.019 . S
Zn170 N180 2.119 . S
Zn170 O188 1.975 . S
C171 N172 1.334 . S
C171 N175 1.336 . S
N172 C171 1.334 . S
N172 C173 1.334 . S
C173 N172 1.334 . S
C173 N174 1.336 . S
N174 Zn170 2.020 . S
N174 C173 1.336 . S
N174 N175 1.354 . S
N175 C171 1.336 . S
N175 N174 1.354 . S
N175 Zn179 2.020 . S
C176 O177 1.244 . S
C176 O200 1.257 . S
O177 C176 1.244 . S
O178 Zn170 2.019 . S
O178 C198 1.257 . S
Zn179 N175 2.020 . S
Zn179 O186 1.975 . S
Zn179 N195 2.119 . S
Zn179 O200 2.019 . S
N180 Zn170 2.119 . S
N180 C182 1.334 . S
N180 C183 1.328 1_554 S
C181 C182 1.391 1_556 S
C181 N184 1.329 . S
C181 H202 0.930 . S
C182 N180 1.334 . S
C182 C181 1.391 1_554 S
C182 H189 0.930 . S
C183 N180 1.328 1_556 S
C183 C185 1.392 . S
C183 H190 0.930 . S
N184 C181 1.329 . S
N184 C185 1.331 . S
C185 C183 1.392 . S
C185 N184 1.331 . S
O186 Zn179 1.975 . S
O186 C187 1.252 . S
C187 O186 1.252 . S
C187 O188 1.252 . S
O188 Zn170 1.975 . S
O188 C187 1.252 . S
H189 C182 0.930 . S
H190 C183 0.930 . S
C191 C192 1.392 . S
C191 N195 1.328 . S
C191 H197 0.930 . S
C192 C191 1.392 . S
C192 N196 1.331 . S
C193 C194 1.391 . S
C193 N196 1.329 . S
C193 H203 0.930 . S
C194 C193 1.391 . S
C194 N195 1.334 . S
C194 H201 0.930 . S
N195 Zn179 2.119 . S
N195 C191 1.328 . S
N195 C194 1.334 . S
N196 C192 1.331 . S
N196 C193 1.329 . S
H197 C191 0.930 . S
C198 O178 1.257 . S
C198 O199 1.244 . S
O199 C198 1.244 . S
O200 C176 1.257 . S
O200 Zn179 2.019 . S
H201 C194 0.930 . S
H202 C181 0.930 . S
H203 C193 0.930 . S
C204 C205 1.391 . S
C204 C206 1.394 . S
C204 H220 0.931 . S
C205 C204 1.391 . S
C205 C209 1.376 . S
C206 C204 1.394 . S
C206 C207 1.369 . S
C206 C210 1.531 . S
C207 C206 1.369 . S
C207 C208 1.410 . S
C207 C215 1.503 . S
C208 C207 1.410 . S
C208 C209 1.392 . S
C208 C211 1.511 . S
C209 C205 1.376 . S
C209 C208 1.392 . S
C209 H221 0.929 . S
C210 C206 1.531 . S
C210 H222 0.960 1_554 S
C210 H223 0.962 . S
C210 H224 0.960 1_554 S
C211 C208 1.511 . S
C211 H225 0.961 . S
C211 H226 0.961 . S
C211 H227 0.961 . S
C212 C213 1.370 . S
C212 C214 1.363 . S
C212 H228 0.931 . S
C213 C212 1.370 . S
C213 C217 1.408 . S
C214 C212 1.363 . S
C214 C215 1.370 . S
C214 C218 1.524 . S
C215 C207 1.503 . S
C215 C214 1.370 . S
C215 C216 1.403 . S
C216 C215 1.403 . S
C216 C217 1.404 . S
C216 C219 1.539 . S
C217 C213 1.408 . S
C217 C216 1.404 . S
C217 H229 0.930 . S
C218 C214 1.524 . S
C218 H230 0.956 . S
C218 H231 0.961 . S
C218 H232 0.961 . S
C219 C216 1.539 . S
C219 H233 0.958 . S
C219 H234 0.961 . S
C219 H235 0.960 . S
H220 C204 0.931 . S
H221 C209 0.929 . S
H222 C210 0.960 1_556 S
H223 C210 0.962 . S
H224 C210 0.960 1_556 S
H225 C211 0.961 . S
H226 C211 0.961 . S
H227 C211 0.961 . S
H228 C212 0.931 . S
H229 C217 0.930 . S
H230 C218 0.956 . S
H231 C218 0.961 . S
H232 C218 0.961 . S
H233 C219 0.958 . S
H234 C219 0.961 . S
H235 C219 0.960 . S
C236 C237 1.391 . S
C236 C238 1.394 1_455 S
C236 H252 0.931 . S
C237 C236 1.391 . S
C237 C241 1.376 . S
C238 C236 1.394 1_655 S
C238 C239 1.369 . S
C238 C242 1.531 . S
C239 C238 1.369 . S
C239 C240 1.410 . S
C239 C247 1.503 . S
C240 C239 1.410 . S
C240 C241 1.392 1_655 S
C240 C243 1.511 . S
C241 C237 1.376 . S
C241 C240 1.392 1_455 S
C241 H253 0.929 . S
C242 C238 1.531 . S
C242 H254 0.960 . S
C242 H255 0.962 . S
C242 H256 0.960 . S
C243 C240 1.511 . S
C243 H257 0.961 . S
C243 H258 0.961 . S
C243 H259 0.961 . S
C244 C245 1.370 . S
C244 C246 1.363 . S
C244 H260 0.931 . S
C245 C244 1.370 . S
C245 C249 1.408 . S
C246 C244 1.363 . S
C246 C247 1.370 . S
C246 C250 1.524 . S
C247 C239 1.503 . S
C247 C246 1.370 . S
C247 C248 1.403 . S
C248 C247 1.403 . S
C248 C249 1.404 . S
C248 C251 1.539 . S
C249 C245 1.408 . S
C249 C248 1.404 . S
C249 H261 0.930 . S
C250 C246 1.524 . S
C250 H262 0.956 . S
C250 H263 0.961 . S
C250 H264 0.961 1_554 S
C251 C248 1.539 . S
C251 H265 0.958 . S
C251 H266 0.961 . S
C251 H267 0.960 . S
H252 C236 0.931 . S
H253 C241 0.929 . S
H254 C242 0.960 . S
H255 C242 0.962 . S
H256 C242 0.960 . S
H257 C243 0.961 . S
H258 C243 0.961 . S
H259 C243 0.961 . S
H260 C244 0.931 . S
H261 C249 0.930 . S
H262 C250 0.956 . S
H263 C250 0.961 . S
H264 C250 0.961 1_556 S
H265 C251 0.958 . S
H266 C251 0.961 . S
H267 C251 0.960 . S
C268 C269 1.391 . S
C268 C270 1.394 . S
C268 H284 0.931 . S
C269 C268 1.391 . S
C269 C273 1.376 . S
C270 C268 1.394 . S
C270 C271 1.369 . S
C270 C274 1.531 . S
C271 C270 1.369 . S
C271 C272 1.410 . S
C271 C279 1.503 . S
C272 C271 1.410 . S
C272 C273 1.392 . S
C272 C275 1.511 . S
C273 C269 1.376 . S
C273 C272 1.392 . S
C273 H285 0.929 . S
C274 C270 1.531 . S
C274 H286 0.960 . S
C274 H287 0.962 . S
C274 H288 0.960 . S
C275 C272 1.511 . S
C275 H289 0.961 . S
C275 H290 0.961 . S
C275 H291 0.961 . S
C276 C277 1.370 . S
C276 C278 1.363 1_545 S
C276 H292 0.931 . S
C277 C276 1.370 . S
C277 C281 1.408 . S
C278 C276 1.363 1_565 S
C278 C279 1.370 . S
C278 C282 1.524 . S
C279 C271 1.503 . S
C279 C278 1.370 . S
C279 C280 1.403 . S
C280 C279 1.403 . S
C280 C281 1.404 1_565 S
C280 C283 1.539 . S
C281 C277 1.408 . S
C281 C280 1.404 1_545 S
C281 H293 0.930 . S
C282 C278 1.524 . S
C282 H294 0.956 . S
C282 H295 0.961 . S
C282 H296 0.951 1_554 S
C283 C280 1.539 . S
C283 H297 0.958 . S
C283 H298 0.961 . S
C283 H299 0.960 . S
H284 C268 0.931 . S
H285 C273 0.929 . S
H286 C274 0.960 . S
H287 C274 0.962 . S
H288 C274 0.960 . S
H289 C275 0.961 . S
H290 C275 0.961 . S
H291 C275 0.961 . S
H292 C276 0.931 . S
H293 C281 0.930 . S
H294 C282 0.956 . S
H295 C282 0.961 . S
H296 C282 0.951 1_556 S
H297 C283 0.958 . S
H298 C283 0.961 . S
H299 C283 0.960 . S
C300 C301 1.391 . S
C300 C302 1.394 . S
C300 H316 0.931 . S
C301 C300 1.391 . S
C301 C305 1.376 . S
C302 C300 1.394 . S
C302 C303 1.369 . S
C302 C306 1.531 . S
C303 C302 1.369 . S
C303 C304 1.410 . S
C303 C311 1.503 . S
C304 C303 1.410 . S
C304 C305 1.392 . S
C304 C307 1.511 . S
C305 C301 1.376 . S
C305 C304 1.392 . S
C305 H317 0.929 . S
C306 C302 1.531 . S
C306 H318 0.960 . S
C306 H319 0.962 . S
C306 H320 0.960 . S
C307 C304 1.511 . S
C307 H321 0.961 . S
C307 H322 0.961 . S
C307 H323 0.961 . S
C308 C309 1.370 . S
C308 C310 1.363 . S
C308 H324 0.931 . S
C309 C308 1.370 . S
C309 C313 1.408 . S
C310 C308 1.363 . S
C310 C311 1.370 . S
C310 C314 1.524 . S
C311 C303 1.503 . S
C311 C310 1.370 . S
C311 C312 1.403 . S
C312 C311 1.403 . S
C312 C313 1.404 . S
C312 C315 1.539 . S
C313 C309 1.408 . S
C313 C312 1.404 . S
C313 H325 0.930 . S
C314 C310 1.524 . S
C314 H326 0.956 . S
C314 H327 0.961 . S
C314 H328 0.961 1_554 S
C315 C312 1.539 . S
C315 H329 0.958 . S
C315 H330 0.961 . S
C315 H331 0.960 . S
H316 C300 0.931 . S
H317 C305 0.929 . S
H318 C306 0.960 . S
H319 C306 0.962 . S
H320 C306 0.960 . S
H321 C307 0.961 . S
H322 C307 0.961 . S
H323 C307 0.961 . S
H324 C308 0.931 . S
H325 C313 0.930 . S
H326 C314 0.956 . S
H327 C314 0.961 . S
H328 C314 0.961 1_556 S
H329 C315 0.958 . S
H330 C315 0.961 . S
H331 C315 0.960 . S
C332 C333 1.391 . S
C332 C334 1.394 . S
C332 H348 0.931 . S
C333 C332 1.391 . S
C333 C337 1.376 . S
C334 C332 1.394 . S
C334 C335 1.369 . S
C334 C338 1.531 . S
C335 C334 1.369 . S
C335 C336 1.410 . S
C335 C343 1.503 . S
C336 C335 1.410 . S
C336 C337 1.392 . S
C336 C339 1.511 . S
C337 C333 1.376 . S
C337 C336 1.392 . S
C337 H349 0.929 . S
C338 C334 1.531 . S
C338 H350 0.960 . S
C338 H351 0.962 . S
C338 H352 0.960 . S
C339 C336 1.511 . S
C339 H353 0.961 . S
C339 H354 0.961 . S
C339 H355 0.961 . S
C340 C341 1.370 . S
C340 C342 1.363 1_655 S
C340 H356 0.931 . S
C341 C340 1.370 . S
C341 C345 1.408 . S
C342 C340 1.363 1_455 S
C342 C343 1.370 . S
C342 C346 1.524 . S
C343 C335 1.503 . S
C343 C342 1.370 . S
C343 C344 1.403 . S
C344 C343 1.403 . S
C344 C345 1.404 1_455 S
C344 C347 1.539 . S
C345 C341 1.408 . S
C345 C344 1.404 1_655 S
C345 H357 0.930 . S
C346 C342 1.524 . S
C346 H358 0.956 . S
C346 H359 0.961 . S
C346 H360 0.961 . S
C347 C344 1.539 . S
C347 H361 0.958 . S
C347 H362 0.961 . S
C347 H363 0.960 . S
H348 C332 0.931 . S
H349 C337 0.929 . S
H350 C338 0.960 . S
H351 C338 0.962 . S
H352 C338 0.960 . S
H353 C339 0.961 . S
H354 C339 0.961 . S
H355 C339 0.961 . S
H356 C340 0.931 . S
H357 C345 0.930 . S
H358 C346 0.956 . S
H359 C346 0.961 . S
H360 C346 0.961 . S
H361 C347 0.958 . S
H362 C347 0.961 . S
H363 C347 0.960 . S
C364 C365 1.391 . S
C364 C366 1.394 1_565 S
C364 H380 0.931 . S
C365 C364 1.391 . S
C365 C369 1.376 . S
C366 C364 1.394 1_545 S
C366 C367 1.369 . S
C366 C370 1.531 . S
C367 C366 1.369 . S
C367 C368 1.410 . S
C367 C375 1.503 . S
C368 C367 1.410 . S
C368 C369 1.392 1_545 S
C368 C371 1.500 1_554 S
C369 C365 1.376 . S
C369 C368 1.392 1_565 S
C369 H381 0.929 . S
C370 C366 1.531 . S
C370 H382 0.960 . S
C370 H383 0.962 . S
C370 H384 0.960 . S
C371 C368 1.500 1_556 S
C371 H385 0.973 . S
C371 H386 0.959 1_556 S
C371 H387 0.962 . S
C372 C373 1.370 . S
C372 C374 1.363 . S
C372 H388 0.931 . S
C373 C372 1.370 . S
C373 C377 1.408 . S
C374 C372 1.363 . S
C374 C375 1.370 . S
C374 C378 1.524 . S
C375 C367 1.503 . S
C375 C374 1.370 . S
C375 C376 1.403 . S
C376 C375 1.403 . S
C376 C377 1.404 . S
C376 C379 1.539 . S
C377 C373 1.408 . S
C377 C376 1.404 . S
C377 H389 0.930 . S
C378 C374 1.524 . S
C378 H390 0.956 . S
C378 H391 0.961 . S
C378 H392 0.961 . S
C379 C376 1.539 . S
C379 H393 0.958 . S
C379 H394 0.961 . S
C379 H395 0.960 . S
H380 C364 0.931 . S
H381 C369 0.929 . S
H382 C370 0.960 . S
H383 C370 0.962 . S
H384 C370 0.960 . S
H385 C371 0.973 . S
H386 C371 0.959 1_554 S
H387 C371 0.962 . S
H388 C372 0.931 . S
H389 C377 0.930 . S
H390 C378 0.956 . S
H391 C378 0.961 . S
H392 C378 0.961 . S
H393 C379 0.958 . S
H394 C379 0.961 . S
H395 C379 0.960 . S
C396 C397 1.391 . S
C396 C398 1.394 . S
C396 H412 0.931 . S
C397 C396 1.391 . S
C397 C401 1.376 . S
C398 C396 1.394 . S
C398 C399 1.369 . S
C398 C402 1.531 . S
C399 C398 1.369 . S
C399 C400 1.410 . S
C399 C407 1.503 . S
C400 C399 1.410 . S
C400 C401 1.392 . S
C400 C403 1.511 . S
C401 C397 1.376 . S
C401 C400 1.392 . S
C401 H413 0.929 . S
C402 C398 1.531 . S
C402 H414 0.960 . S
C402 H415 0.962 . S
C402 H416 0.960 . S
C403 C400 1.511 . S
C403 H417 0.961 . S
C403 H418 0.961 . S
C403 H419 0.961 . S
C404 C405 1.370 . S
C404 C406 1.363 . S
C404 H420 0.931 . S
C405 C404 1.370 . S
C405 C409 1.408 . S
C406 C404 1.363 . S
C406 C407 1.370 . S
C406 C410 1.524 . S
C407 C399 1.503 . S
C407 C406 1.370 . S
C407 C408 1.403 . S
C408 C407 1.403 . S
C408 C409 1.404 . S
C408 C411 1.539 . S
C409 C405 1.408 . S
C409 C408 1.404 . S
C409 H421 0.930 . S
C410 C406 1.524 . S
C410 H422 0.956 . S
C410 H423 0.961 . S
C410 H424 0.961 . S
C411 C408 1.539 . S
C411 H425 0.958 . S
C411 H426 0.961 . S
C411 H427 0.960 . S
H412 C396 0.931 . S
H413 C401 0.929 . S
H414 C402 0.960 . S
H415 C402 0.962 . S
H416 C402 0.960 . S
H417 C403 0.961 . S
H418 C403 0.961 . S
H419 C403 0.961 . S
H420 C404 0.931 . S
H421 C409 0.930 . S
H422 C410 0.956 . S
H423 C410 0.961 . S
H424 C410 0.961 . S
H425 C411 0.958 . S
H426 C411 0.961 . S
H427 C411 0.960 . S
C428 C429 1.391 . S
C428 C430 1.394 . S
C428 H444 0.931 . S
C429 C428 1.391 . S
C429 C433 1.376 . S
C430 C428 1.394 . S
C430 C431 1.369 . S
C430 C434 1.531 . S
C431 C430 1.369 . S
C431 C432 1.410 . S
C431 C439 1.503 . S
C432 C431 1.410 . S
C432 C433 1.392 . S
C432 C435 1.511 . S
C433 C429 1.376 . S
C433 C432 1.392 . S
C433 H445 0.929 . S
C434 C430 1.531 . S
C434 H446 0.960 . S
C434 H447 0.962 . S
C434 H448 0.960 . S
C435 C432 1.511 . S
C435 H449 0.961 . S
C435 H450 0.961 . S
C435 H451 0.961 . S
C436 C437 1.370 . S
C436 C438 1.363 . S
C436 H452 0.931 . S
C437 C436 1.370 . S
C437 C441 1.408 . S
C438 C436 1.363 . S
C438 C439 1.370 . S
C438 C442 1.524 . S
C439 C431 1.503 . S
C439 C438 1.370 . S
C439 C440 1.403 . S
C440 C439 1.403 . S
C440 C441 1.404 . S
C440 C443 1.539 . S
C441 C437 1.408 . S
C441 C440 1.404 . S
C441 H453 0.930 . S
C442 C438 1.524 . S
C442 H454 0.956 . S
C442 H455 0.961 . S
C442 H456 0.961 . S
C443 C440 1.539 . S
C443 H457 0.958 . S
C443 H458 0.961 . S
C443 H459 0.960 . S
H444 C428 0.931 . S
H445 C433 0.929 . S
H446 C434 0.960 . S
H447 C434 0.962 . S
H448 C434 0.960 . S
H449 C435 0.961 . S
H450 C435 0.961 . S
H451 C435 0.961 . S
H452 C436 0.931 . S
H453 C441 0.930 . S
H454 C442 0.956 . S
H455 C442 0.961 . S
H456 C442 0.961 . S
H457 C443 0.958 . S
H458 C443 0.961 . S
H459 C443 0.960 . S
C460 C461 1.391 . S
C460 C462 1.394 . S
C460 H476 0.931 . S
C461 C460 1.391 . S
C461 C465 1.376 . S
C462 C460 1.394 . S
C462 C463 1.369 . S
C462 C466 1.531 . S
C463 C462 1.369 . S
C463 C464 1.410 . S
C463 C471 1.503 . S
C464 C463 1.410 . S
C464 C465 1.392 . S
C464 C467 1.511 . S
C465 C461 1.376 . S
C465 C464 1.392 . S
C465 H477 0.929 . S
C466 C462 1.531 . S
C466 H478 0.960 . S
C466 H479 0.962 . S
C466 H480 0.960 . S
C467 C464 1.511 . S
C467 H481 0.961 . S
C467 H482 0.961 . S
C467 H483 0.961 . S
C468 C469 1.370 . S
C468 C470 1.363 . S
C468 H484 0.931 . S
C469 C468 1.370 . S
C469 C473 1.408 . S
C470 C468 1.363 . S
C470 C471 1.370 . S
C470 C474 1.524 . S
C471 C463 1.503 . S
C471 C470 1.370 . S
C471 C472 1.403 . S
C472 C471 1.403 . S
C472 C473 1.404 . S
C472 C475 1.539 . S
C473 C469 1.408 . S
C473 C472 1.404 . S
C473 H485 0.930 . S
C474 C470 1.524 . S
C474 H486 0.956 . S
C474 H487 0.961 . S
C474 H488 0.961 . S
C475 C472 1.539 . S
C475 H489 0.958 . S
C475 H490 0.961 . S
C475 H491 0.960 . S
H476 C460 0.931 . S
H477 C465 0.929 . S
H478 C466 0.960 . S
H479 C466 0.962 . S
H480 C466 0.960 . S
H481 C467 0.961 . S
H482 C467 0.961 . S
H483 C467 0.961 . S
H484 C468 0.931 . S
H485 C473 0.930 . S
H486 C474 0.956 . S
H487 C474 0.961 . S
H488 C474 0.961 . S
H489 C475 0.958 . S
H490 C475 0.961 . S
H491 C475 0.960 . S
C492 C493 1.391 . S
C492 C494 1.394 . S
C492 H508 0.931 . S
C493 C492 1.391 . S
C493 C497 1.376 . S
C494 C492 1.394 . S
C494 C495 1.369 . S
C494 C498 1.531 . S
C495 C494 1.369 . S
C495 C496 1.410 . S
C495 C503 1.503 . S
C496 C495 1.410 . S
C496 C497 1.392 . S
C496 C499 1.511 . S
C497 C493 1.376 . S
C497 C496 1.392 . S
C497 H509 0.929 . S
C498 C494 1.531 . S
C498 H510 0.960 . S
C498 H511 0.962 . S
C498 H512 0.960 . S
C499 C496 1.511 . S
C499 H513 0.961 . S
C499 H514 0.961 . S
C499 H515 0.961 . S
C500 C501 1.370 . S
C500 C502 1.363 . S
C500 H516 0.931 . S
C501 C500 1.370 . S
C501 C505 1.408 . S
C502 C500 1.363 . S
C502 C503 1.370 . S
C502 C506 1.524 . S
C503 C495 1.503 . S
C503 C502 1.370 . S
C503 C504 1.403 . S
C504 C503 1.403 . S
C504 C505 1.404 . S
C504 C507 1.539 . S
C505 C501 1.408 . S
C505 C504 1.404 . S
C505 H517 0.930 . S
C506 C502 1.524 . S
C506 H518 0.956 . S
C506 H519 0.961 . S
C506 H520 0.961 . S
C507 C504 1.539 . S
C507 H521 0.958 . S
C507 H522 0.961 . S
C507 H523 0.960 . S
H508 C492 0.931 . S
H509 C497 0.929 . S
H510 C498 0.960 . S
H511 C498 0.962 . S
H512 C498 0.960 . S
H513 C499 0.961 . S
H514 C499 0.961 . S
H515 C499 0.961 . S
H516 C500 0.931 . S
H517 C505 0.930 . S
H518 C506 0.956 . S
H519 C506 0.961 . S
H520 C506 0.961 . S
H521 C507 0.958 . S
H522 C507 0.961 . S
H523 C507 0.960 . S
C524 C525 1.391 . S
C524 C526 1.394 . S
C524 H540 0.931 . S
C525 C524 1.391 . S
C525 C529 1.376 . S
C526 C524 1.394 . S
C526 C527 1.369 . S
C526 C530 1.531 . S
C527 C526 1.369 . S
C527 C528 1.410 . S
C527 C535 1.503 . S
C528 C527 1.410 . S
C528 C529 1.392 . S
C528 C531 1.511 . S
C529 C525 1.376 . S
C529 C528 1.392 . S
C529 H541 0.929 . S
C530 C526 1.531 . S
C530 H542 0.960 . S
C530 H543 0.962 . S
C530 H544 0.960 . S
C531 C528 1.511 . S
C531 H545 0.961 . S
C531 H546 0.961 . S
C531 H547 0.961 . S
C532 C533 1.370 . S
C532 C534 1.363 . S
C532 H548 0.931 . S
C533 C532 1.370 . S
C533 C537 1.408 . S
C534 C532 1.363 . S
C534 C535 1.370 . S
C534 C538 1.524 . S
C535 C527 1.503 . S
C535 C534 1.370 . S
C535 C536 1.403 . S
C536 C535 1.403 . S
C536 C537 1.404 . S
C536 C539 1.539 . S
C537 C533 1.408 . S
C537 C536 1.404 . S
C537 H549 0.930 . S
C538 C534 1.524 . S
C538 H550 0.956 . S
C538 H551 0.961 . S
C538 H552 0.961 . S
C539 C536 1.539 . S
C539 H553 0.958 . S
C539 H554 0.961 . S
C539 H555 0.960 . S
H540 C524 0.931 . S
H541 C529 0.929 . S
H542 C530 0.960 . S
H543 C530 0.962 . S
H544 C530 0.960 . S
H545 C531 0.961 . S
H546 C531 0.961 . S
H547 C531 0.961 . S
H548 C532 0.931 . S
H549 C537 0.930 . S
H550 C538 0.956 . S
H551 C538 0.961 . S
H552 C538 0.961 . S
H553 C539 0.958 . S
H554 C539 0.961 . S
H555 C539 0.960 . S
C556 C557 1.391 . S
C556 C558 1.394 . S
C556 H572 0.931 . S
C557 C556 1.391 . S
C557 C561 1.376 . S
C558 C556 1.394 . S
C558 C559 1.369 . S
C558 C562 1.531 . S
C559 C558 1.369 . S
C559 C560 1.410 . S
C559 C567 1.503 . S
C560 C559 1.410 . S
C560 C561 1.392 . S
C560 C563 1.511 . S
C561 C557 1.376 . S
C561 C560 1.392 . S
C561 H573 0.929 . S
C562 C558 1.531 . S
C562 H574 0.960 . S
C562 H575 0.962 . S
C562 H576 0.960 . S
C563 C560 1.511 . S
C563 H577 0.961 . S
C563 H578 0.961 . S
C563 H579 0.961 . S
C564 C565 1.370 . S
C564 C566 1.363 . S
C564 H580 0.931 . S
C565 C564 1.370 . S
C565 C569 1.408 . S
C566 C564 1.363 . S
C566 C567 1.370 . S
C566 C570 1.524 . S
C567 C559 1.503 . S
C567 C566 1.370 . S
C567 C568 1.403 . S
C568 C567 1.403 . S
C568 C569 1.404 . S
C568 C571 1.539 . S
C569 C565 1.408 . S
C569 C568 1.404 . S
C569 H581 0.930 . S
C570 C566 1.524 . S
C570 H582 0.956 . S
C570 H583 0.961 . S
C570 H584 0.961 . S
C571 C568 1.539 . S
C571 H585 0.958 . S
C571 H586 0.961 . S
C571 H587 0.960 . S
H572 C556 0.931 . S
H573 C561 0.929 . S
H574 C562 0.960 . S
H575 C562 0.962 . S
H576 C562 0.960 . S
H577 C563 0.961 . S
H578 C563 0.961 . S
H579 C563 0.961 . S
H580 C564 0.931 . S
H581 C569 0.930 . S
H582 C570 0.956 . S
H583 C570 0.961 . S
H584 C570 0.961 . S
H585 C571 0.958 . S
H586 C571 0.961 . S
H587 C571 0.960 . S
C588 C589 1.385 1_554 S
C588 C590 1.394 . S
C588 H604 0.931 . S
C589 C588 1.385 1_556 S
C589 C593 1.382 . S
C590 C588 1.394 . S
C590 C591 1.369 1_554 S
C590 C594 1.531 . S
C591 C590 1.369 1_556 S
C591 C592 1.410 . S
C591 C599 1.503 . S
C592 C591 1.410 . S
C592 C593 1.392 . S
C592 C595 1.511 . S
C593 C589 1.382 . S
C593 C592 1.392 . S
C593 H605 0.929 . S
C594 C590 1.531 . S
C594 H606 0.960 . S
C594 H607 0.962 . S
C594 H608 0.960 . S
C595 C592 1.511 . S
C595 H609 0.961 . S
C595 H610 0.961 . S
C595 H611 0.961 . S
C596 C597 1.370 1_554 S
C596 C598 1.363 . S
C596 H612 0.931 . S
C597 C596 1.370 1_556 S
C597 C601 1.408 . S
C598 C596 1.363 . S
C598 C599 1.370 1_554 S
C598 C602 1.524 . S
C599 C591 1.503 . S
C599 C598 1.370 1_556 S
C599 C600 1.403 . S
C600 C599 1.403 . S
C600 C601 1.404 . S
C600 C603 1.539 . S
C601 C597 1.408 . S
C601 C600 1.404 . S
C601 H613 0.930 . S
C602 C598 1.524 . S
C602 H614 0.956 . S
C602 H615 0.961 . S
C602 H616 0.961 . S
C603 C600 1.539 . S
C603 H617 0.958 . S
C603 H618 0.961 . S
C603 H619 0.960 . S
H604 C588 0.931 . S
H605 C593 0.929 . S
H606 C594 0.960 . S
H607 C594 0.962 . S
H608 C594 0.960 . S
H609 C595 0.961 . S
H610 C595 0.961 . S
H611 C595 0.961 . S
H612 C596 0.931 . S
H613 C601 0.930 . S
H614 C602 0.956 . S
H615 C602 0.961 . S
H616 C602 0.961 . S
H617 C603 0.958 . S
H618 C603 0.961 . S
H619 C603 0.960 . S
C620 C621 1.391 . S
C620 C622 1.394 . S
C620 H636 0.931 . S
C621 C620 1.391 . S
C621 C625 1.376 . S
C622 C620 1.394 . S
C622 C623 1.369 . S
C622 C626 1.531 . S
C623 C622 1.369 . S
C623 C624 1.410 . S
C623 C631 1.503 . S
C624 C623 1.410 . S
C624 C625 1.392 . S
C624 C627 1.511 . S
C625 C621 1.376 . S
C625 C624 1.392 . S
C625 H637 0.929 . S
C626 C622 1.531 . S
C626 H638 0.960 . S
C626 H639 0.962 . S
C626 H640 0.960 . S
C627 C624 1.511 . S
C627 H641 0.961 . S
C627 H642 0.961 . S
C627 H643 0.961 . S
C628 C629 1.370 . S
C628 C630 1.363 . S
C628 H644 0.931 . S
C629 C628 1.370 . S
C629 C633 1.408 . S
C630 C628 1.363 . S
C630 C631 1.370 . S
C630 C634 1.524 . S
C631 C623 1.503 . S
C631 C630 1.370 . S
C631 C632 1.403 . S
C632 C631 1.403 . S
C632 C633 1.404 . S
C632 C635 1.539 . S
C633 C629 1.408 . S
C633 C632 1.404 . S
C633 H645 0.930 . S
C634 C630 1.524 . S
C634 H646 0.956 . S
C634 H647 0.961 . S
C634 H648 0.961 . S
C635 C632 1.539 . S
C635 H649 0.958 . S
C635 H650 0.961 . S
C635 H651 0.960 . S
H636 C620 0.931 . S
H637 C625 0.929 . S
H638 C626 0.960 . S
H639 C626 0.962 . S
H640 C626 0.960 . S
H641 C627 0.961 . S
H642 C627 0.961 . S
H643 C627 0.961 . S
H644 C628 0.931 . S
H645 C633 0.930 . S
H646 C634 0.956 . S
H647 C634 0.961 . S
H648 C634 0.961 . S
H649 C635 0.958 . S
H650 C635 0.961 . S
H651 C635 0.960 . S
C652 C653 1.399 . S
C652 C654 1.394 . S
C652 H668 0.931 . S
C653 C652 1.399 . S
C653 C657 1.368 1_556 S
C654 C652 1.394 . S
C654 C655 1.369 . S
C654 C658 1.531 . S
C655 C654 1.369 . S
C655 C656 1.410 1_556 S
C655 C663 1.503 . S
C656 C655 1.410 1_554 S
C656 C657 1.392 . S
C656 C659 1.511 . S
C657 C653 1.368 1_554 S
C657 C656 1.392 . S
C657 H669 0.929 . S
C658 C654 1.531 . S
C658 H670 0.960 . S
C658 H671 0.962 . S
C658 H672 0.960 . S
C659 C656 1.511 . S
C659 H673 0.961 . S
C659 H674 0.961 . S
C659 H675 0.961 . S
C660 C661 1.370 1_554 S
C660 C662 1.363 . S
C660 H676 0.931 . S
C661 C660 1.370 1_556 S
C661 C665 1.408 . S
C662 C660 1.363 . S
C662 C663 1.370 1_554 S
C662 C666 1.524 . S
C663 C655 1.503 . S
C663 C662 1.370 1_556 S
C663 C664 1.403 . S
C664 C663 1.403 . S
C664 C665 1.404 . S
C664 C667 1.539 . S
C665 C661 1.408 . S
C665 C664 1.404 . S
C665 H677 0.930 . S
C666 C662 1.524 . S
C666 H678 0.956 . S
C666 H679 0.961 . S
C666 H680 0.961 . S
C667 C664 1.539 . S
C667 H681 0.958 . S
C667 H682 0.961 . S
C667 H683 0.960 . S
H668 C652 0.931 . S
H669 C657 0.929 . S
H670 C658 0.960 . S
H671 C658 0.962 . S
H672 C658 0.960 . S
H673 C659 0.961 . S
H674 C659 0.961 . S
H675 C659 0.961 . S
H676 C660 0.931 . S
H677 C665 0.930 . S
H678 C666 0.956 . S
H679 C666 0.961 . S
H680 C666 0.961 . S
H681 C667 0.958 . S
H682 C667 0.961 . S
H683 C667 0.960 . S
C684 C685 1.391 . S
C684 C686 1.394 . S
C684 H700 0.931 . S
C685 C684 1.391 . S
C685 C689 1.376 . S
C686 C684 1.394 . S
C686 C687 1.369 . S
C686 C690 1.531 . S
C687 C686 1.369 . S
C687 C688 1.410 . S
C687 C695 1.503 . S
C688 C687 1.410 . S
C688 C689 1.392 . S
C688 C691 1.511 . S
C689 C685 1.376 . S
C689 C688 1.392 . S
C689 H701 0.929 . S
C690 C686 1.531 . S
C690 H702 0.960 . S
C690 H703 0.962 . S
C690 H704 0.960 . S
C691 C688 1.511 . S
C691 H705 0.961 . S
C691 H706 0.961 . S
C691 H707 0.961 . S
C692 C693 1.370 . S
C692 C694 1.363 . S
C692 H708 0.931 . S
C693 C692 1.370 . S
C693 C697 1.408 . S
C694 C692 1.363 . S
C694 C695 1.370 . S
C694 C698 1.524 . S
C695 C687 1.503 . S
C695 C694 1.370 . S
C695 C696 1.403 . S
C696 C695 1.403 . S
C696 C697 1.404 . S
C696 C699 1.539 . S
C697 C693 1.408 . S
C697 C696 1.404 . S
C697 H709 0.930 . S
C698 C694 1.524 . S
C698 H710 0.956 . S
C698 H711 0.961 . S
C698 H712 0.961 . S
C699 C696 1.539 . S
C699 H713 0.958 . S
C699 H714 0.961 . S
C699 H715 0.960 . S
H700 C684 0.931 . S
H701 C689 0.929 . S
H702 C690 0.960 . S
H703 C690 0.962 . S
H704 C690 0.960 . S
H705 C691 0.961 . S
H706 C691 0.961 . S
H707 C691 0.961 . S
H708 C692 0.931 . S
H709 C697 0.930 . S
H710 C698 0.956 . S
H711 C698 0.961 . S
H712 C698 0.961 . S
H713 C699 0.958 . S
H714 C699 0.961 . S
H715 C699 0.960 . S
C716 C717 1.391 . S
C716 C718 1.394 . S
C716 H732 0.931 1_554 S
C717 C716 1.391 . S
C717 C721 1.376 . S
C718 C716 1.394 . S
C718 C719 1.369 . S
C718 C722 1.531 . S
C719 C718 1.369 . S
C719 C720 1.410 . S
C719 C727 1.503 . S
C720 C719 1.410 . S
C720 C721 1.392 . S
C720 C723 1.511 . S
C721 C717 1.376 . S
C721 C720 1.392 . S
C721 H733 0.929 . S
C722 C718 1.531 . S
C722 H734 0.960 . S
C722 H735 0.961 1_554 S
C722 H736 0.961 . S
C723 C720 1.511 . S
C723 H737 0.961 . S
C723 H738 0.961 . S
C723 H739 0.961 . S
C724 C725 1.368 1_556 S
C724 C726 1.363 . S
C724 H740 0.931 . S
C725 C724 1.368 1_554 S
C725 C729 1.410 . S
C726 C724 1.363 . S
C726 C727 1.370 1_556 S
C726 C730 1.524 . S
C727 C719 1.503 . S
C727 C726 1.370 1_554 S
C727 C728 1.403 . S
C728 C727 1.403 . S
C728 C729 1.404 . S
C728 C731 1.539 . S
C729 C725 1.410 . S
C729 C728 1.404 . S
C729 H741 0.930 . S
C730 C726 1.524 . S
C730 H742 0.956 . S
C730 H743 0.961 . S
C730 H744 0.961 . S
C731 C728 1.539 . S
C731 H745 0.958 . S
C731 H746 0.961 . S
C731 H747 0.960 . S
H732 C716 0.931 1_556 S
H733 C721 0.929 . S
H734 C722 0.960 . S
H735 C722 0.961 1_556 S
H736 C722 0.961 . S
H737 C723 0.961 . S
H738 C723 0.961 . S
H739 C723 0.961 . S
H740 C724 0.931 . S
H741 C729 0.930 . S
H742 C730 0.956 . S
H743 C730 0.961 . S
H744 C730 0.961 . S
H745 C731 0.958 . S
H746 C731 0.961 . S
H747 C731 0.960 . S
C748 C749 1.391 . S
C748 C750 1.394 . S
C748 H764 0.931 . S
C749 C748 1.391 . S
C749 C753 1.376 . S
C750 C748 1.394 . S
C750 C751 1.369 . S
C750 C754 1.531 . S
C751 C750 1.369 . S
C751 C752 1.410 . S
C751 C759 1.503 . S
C752 C751 1.410 . S
C752 C753 1.392 . S
C752 C755 1.511 . S
C753 C749 1.376 . S
C753 C752 1.392 . S
C753 H765 0.929 . S
C754 C750 1.531 . S
C754 H766 0.960 . S
C754 H767 0.962 . S
C754 H768 0.960 . S
C755 C752 1.511 . S
C755 H769 0.961 . S
C755 H770 0.961 . S
C755 H771 0.961 . S
C756 C757 1.370 . S
C756 C758 1.363 . S
C756 H772 0.931 . S
C757 C756 1.370 . S
C757 C761 1.408 . S
C758 C756 1.363 . S
C758 C759 1.370 . S
C758 C762 1.524 . S
C759 C751 1.503 . S
C759 C758 1.370 . S
C759 C760 1.403 . S
C760 C759 1.403 . S
C760 C761 1.404 . S
C760 C763 1.539 . S
C761 C757 1.408 . S
C761 C760 1.404 . S
C761 H773 0.930 . S
C762 C758 1.524 . S
C762 H774 0.956 . S
C762 H775 0.961 . S
C762 H776 0.961 . S
C763 C760 1.539 . S
C763 H777 0.958 . S
C763 H778 0.961 . S
C763 H779 0.960 . S
H764 C748 0.931 . S
H765 C753 0.929 . S
H766 C754 0.960 . S
H767 C754 0.962 . S
H768 C754 0.960 . S
H769 C755 0.961 . S
H770 C755 0.961 . S
H771 C755 0.961 . S
H772 C756 0.931 . S
H773 C761 0.930 . S
H774 C762 0.956 . S
H775 C762 0.961 . S
H776 C762 0.961 . S
H777 C763 0.958 . S
H778 C763 0.961 . S
H779 C763 0.960 . S
C780 C781 1.391 1_455 S
C780 C782 1.394 . S
C780 H796 0.931 . S
C781 C780 1.391 1_655 S
C781 C785 1.376 . S
C782 C780 1.394 . S
C782 C783 1.369 . S
C782 C786 1.531 . S
C783 C782 1.369 . S
C783 C784 1.410 1_455 S
C783 C791 1.503 . S
C784 C783 1.410 1_655 S
C784 C785 1.392 . S
C784 C787 1.511 . S
C785 C781 1.376 . S
C785 C784 1.392 . S
C785 H797 0.929 . S
C786 C782 1.531 . S
C786 H798 0.960 . S
C786 H799 0.962 . S
C786 H800 0.960 . S
C787 C784 1.511 . S
C787 H801 0.961 . S
C787 H802 0.961 . S
C787 H803 0.961 . S
C788 C789 1.370 . S
C788 C790 1.363 . S
C788 H804 0.931 . S
C789 C788 1.370 . S
C789 C793 1.408 . S
C790 C788 1.363 . S
C790 C791 1.370 . S
C790 C794 1.524 . S
C791 C783 1.503 . S
C791 C790 1.370 . S
C791 C792 1.403 . S
C792 C791 1.403 . S
C792 C793 1.404 . S
C792 C795 1.539 . S
C793 C789 1.408 . S
C793 C792 1.404 . S
C793 H805 0.930 . S
C794 C790 1.524 . S
C794 H806 0.956 . S
C794 H807 0.961 . S
C794 H808 0.961 . S
C795 C792 1.539 . S
C795 H809 0.958 . S
C795 H810 0.961 . S
C795 H811 0.960 1_455 S
H796 C780 0.931 . S
H797 C785 0.929 . S
H798 C786 0.960 . S
H799 C786 0.962 . S
H800 C786 0.960 . S
H801 C787 0.961 . S
H802 C787 0.961 . S
H803 C787 0.961 . S
H804 C788 0.931 . S
H805 C793 0.930 . S
H806 C794 0.956 . S
H807 C794 0.961 . S
H808 C794 0.961 . S
H809 C795 0.958 . S
H810 C795 0.961 . S
H811 C795 0.960 1_655 S
C812 C813 1.391 . S
C812 C814 1.394 . S
C812 H828 0.931 . S
C813 C812 1.391 . S
C813 C817 1.376 1_545 S
C814 C812 1.394 . S
C814 C815 1.369 1_545 S
C814 C818 1.531 . S
C815 C814 1.369 1_565 S
C815 C816 1.410 . S
C815 C823 1.503 . S
C816 C815 1.410 . S
C816 C817 1.392 . S
C816 C819 1.511 . S
C817 C813 1.376 1_565 S
C817 C816 1.392 . S
C817 H829 0.929 . S
C818 C814 1.531 . S
C818 H830 0.960 1_545 S
C818 H831 0.962 . S
C818 H832 0.960 . S
C819 C816 1.511 . S
C819 H833 0.961 . S
C819 H834 0.961 . S
C819 H835 0.961 . S
C820 C821 1.370 . S
C820 C822 1.363 . S
C820 H836 0.931 . S
C821 C820 1.370 . S
C821 C825 1.408 . S
C822 C820 1.363 . S
C822 C823 1.370 . S
C822 C826 1.524 . S
C823 C815 1.503 . S
C823 C822 1.370 . S
C823 C824 1.403 . S
C824 C823 1.403 . S
C824 C825 1.404 . S
C824 C827 1.539 . S
C825 C821 1.408 . S
C825 C824 1.404 . S
C825 H837 0.930 . S
C826 C822 1.524 . S
C826 H838 0.956 1_565 S
C826 H839 0.961 . S
C826 H840 0.961 . S
C827 C824 1.539 . S
C827 H841 0.958 . S
C827 H842 0.961 . S
C827 H843 0.960 . S
H828 C812 0.931 . S
H829 C817 0.929 . S
H830 C818 0.960 1_565 S
H831 C818 0.962 . S
H832 C818 0.960 . S
H833 C819 0.961 . S
H834 C819 0.961 . S
H835 C819 0.961 . S
H836 C820 0.931 . S
H837 C825 0.930 . S
H838 C826 0.956 1_545 S
H839 C826 0.961 . S
H840 C826 0.961 . S
H841 C827 0.958 . S
H842 C827 0.961 . S
H843 C827 0.960 . S
C844 C845 1.391 . S
C844 C846 1.394 . S
C844 H860 0.931 . S
C845 C844 1.391 . S
C845 C849 1.376 . S
C846 C844 1.394 . S
C846 C847 1.369 . S
C846 C850 1.531 . S
C847 C846 1.369 . S
C847 C848 1.410 . S
C847 C855 1.503 . S
C848 C847 1.410 . S
C848 C849 1.392 . S
C848 C851 1.511 . S
C849 C845 1.376 . S
C849 C848 1.392 . S
C849 H861 0.929 . S
C850 C846 1.531 . S
C850 H862 0.960 . S
C850 H863 0.962 . S
C850 H864 0.960 . S
C851 C848 1.511 . S
C851 H865 0.961 . S
C851 H866 0.961 . S
C851 H867 0.961 . S
C852 C853 1.370 . S
C852 C854 1.363 . S
C852 H868 0.931 . S
C853 C852 1.370 . S
C853 C857 1.408 . S
C854 C852 1.363 . S
C854 C855 1.370 . S
C854 C858 1.524 . S
C855 C847 1.503 . S
C855 C854 1.370 . S
C855 C856 1.403 . S
C856 C855 1.403 . S
C856 C857 1.404 . S
C856 C859 1.539 . S
C857 C853 1.408 . S
C857 C856 1.404 . S
C857 H869 0.930 . S
C858 C854 1.524 . S
C858 H870 0.956 . S
C858 H871 0.961 . S
C858 H872 0.961 . S
C859 C856 1.539 . S
C859 H873 0.958 . S
C859 H874 0.961 . S
C859 H875 0.960 . S
H860 C844 0.931 . S
H861 C849 0.929 . S
H862 C850 0.960 . S
H863 C850 0.962 . S
H864 C850 0.960 . S
H865 C851 0.961 . S
H866 C851 0.961 . S
H867 C851 0.961 . S
H868 C852 0.931 . S
H869 C857 0.930 . S
H870 C858 0.956 . S
H871 C858 0.961 . S
H872 C858 0.961 . S
H873 C859 0.958 . S
H874 C859 0.961 . S
H875 C859 0.960 . S
C205 C187 1.483 . S
C213 C17 1.453 . S
C237 C6 1.169 . S
C245 C40 1.194 . S
C269 C85 1.437 . S
C277 C51 1.486 . S
C301 C108 1.195 . S
C309 C96 1.171 . S
C333 C153 1.440 . S
C341 C119 1.486 . S
C365 C164 1.136 . S
C373 C198 1.189 . S
C397 C15 1.684 . S
C405 C22 1.641 . S
C429 C49 1.816 . S
C437 C56 1.807 . S
C461 C90 1.656 . S
C469 C83 1.660 . S
C493 C124 1.801 . S
C501 C117 1.810 . S
C525 C151 1.697 . S
C533 C158 1.638 . S
C557 C192 1.777 . S
C565 C185 1.823 . S
C589 C142 1.421 1_556 S
C597 C3 1.267 1_556 S
C621 C173 1.880 . S
C629 C37 1.874 . S
C653 C28 1.404 1_556 S
C661 C69 1.292 1_556 S
C685 C105 1.898 . S
C693 C35 1.864 . S
C717 C74 1.405 . S
C725 C137 1.256 . S
C749 C103 1.864 . S
C757 C171 1.876 . S
C781 C130 1.446 . S
C789 C1 1.346 . S
C813 C62 1.418 . S
C821 C139 1.305 . S
C845 C176 1.439 . S
C853 C71 1.347 . S
