# Generated by pormake.
# Topology hal, (4)-cn, num edge types: 1
# Building blocks:
#     Node 0, Type 0, BuildingBlock: CEKHIL_clean_sbu_0, # of connection points: 4
#     Node 1, Type 0, BuildingBlock: CEKHIL_clean_sbu_0, # of connection points: 4
#     Node 2, Type 0, BuildingBlock: CEKHIL_clean_sbu_0, # of connection points: 4
#     Node 3, Type 0, BuildingBlock: CEKHIL_clean_sbu_0, # of connection points: 4
#     Node 4, Type 0, BuildingBlock: CEKHIL_clean_sbu_0, # of connection points: 4
#     Node 5, Type 0, BuildingBlock: CEKHIL_clean_sbu_0, # of connection points: 4
#     Node 6, Type 0, BuildingBlock: CEKHIL_clean_sbu_0, # of connection points: 4
#     Node 7, Type 0, BuildingBlock: CEKHIL_clean_sbu_0, # of connection points: 4
#     Node 8, Type 0, BuildingBlock: CEKHIL_clean_sbu_0, # of connection points: 4
#     Node 9, Type 0, BuildingBlock: CEKHIL_clean_sbu_0, # of connection points: 4
#     Node 10, Type 0, BuildingBlock: CEKHIL_clean_sbu_0, # of connection points: 4
#     Node 11, Type 0, BuildingBlock: CEKHIL_clean_sbu_0, # of connection points: 4
#     Node 12, Type 0, BuildingBlock: CEKHIL_clean_sbu_0, # of connection points: 4
#     Node 13, Type 0, BuildingBlock: CEKHIL_clean_sbu_0, # of connection points: 4
#     Node 14, Type 0, BuildingBlock: CEKHIL_clean_sbu_0, # of connection points: 4
#     Node 15, Type 0, BuildingBlock: CEKHIL_clean_sbu_0, # of connection points: 4
#     Node 16, Type 0, BuildingBlock: CEKHIL_clean_sbu_0, # of connection points: 4
#     Node 17, Type 0, BuildingBlock: CEKHIL_clean_sbu_0, # of connection points: 4
#     Node 18, Type 0, BuildingBlock: CEKHIL_clean_sbu_0, # of connection points: 4
#     Node 19, Type 0, BuildingBlock: CEKHIL_clean_sbu_0, # of connection points: 4
#     Node 20, Type 0, BuildingBlock: CEKHIL_clean_sbu_0, # of connection points: 4
#     Node 21, Type 0, BuildingBlock: CEKHIL_clean_sbu_0, # of connection points: 4
#     Node 22, Type 0, BuildingBlock: CEKHIL_clean_sbu_0, # of connection points: 4
#     Node 23, Type 0, BuildingBlock: CEKHIL_clean_sbu_0, # of connection points: 4
#     Node 24, Type 0, BuildingBlock: CEKHIL_clean_sbu_0, # of connection points: 4
#     Node 25, Type 0, BuildingBlock: CEKHIL_clean_sbu_0, # of connection points: 4
#     Node 26, Type 0, BuildingBlock: CEKHIL_clean_sbu_0, # of connection points: 4
#     Node 27, Type 0, BuildingBlock: CEKHIL_clean_sbu_0, # of connection points: 4
#     Node 28, Type 0, BuildingBlock: CEKHIL_clean_sbu_0, # of connection points: 4
#     Node 29, Type 0, BuildingBlock: CEKHIL_clean_sbu_0, # of connection points: 4
#     Node 30, Type 0, BuildingBlock: CEKHIL_clean_sbu_0, # of connection points: 4
#     Node 31, Type 0, BuildingBlock: CEKHIL_clean_sbu_0, # of connection points: 4
#     Node 32, Type 0, BuildingBlock: CEKHIL_clean_sbu_0, # of connection points: 4
#     Node 33, Type 0, BuildingBlock: CEKHIL_clean_sbu_0, # of connection points: 4
#     Node 34, Type 0, BuildingBlock: CEKHIL_clean_sbu_0, # of connection points: 4
#     Node 35, Type 0, BuildingBlock: CEKHIL_clean_sbu_0, # of connection points: 4
#     Node 36, Type 0, BuildingBlock: CEKHIL_clean_sbu_0, # of connection points: 4
#     Node 37, Type 0, BuildingBlock: CEKHIL_clean_sbu_0, # of connection points: 4
#     Node 38, Type 0, BuildingBlock: CEKHIL_clean_sbu_0, # of connection points: 4
#     Node 39, Type 0, BuildingBlock: CEKHIL_clean_sbu_0, # of connection points: 4
#     Node 40, Type 0, BuildingBlock: CEKHIL_clean_sbu_0, # of connection points: 4
#     Node 41, Type 0, BuildingBlock: CEKHIL_clean_sbu_0, # of connection points: 4
#     Node 42, Type 0, BuildingBlock: CEKHIL_clean_sbu_0, # of connection points: 4
#     Node 43, Type 0, BuildingBlock: CEKHIL_clean_sbu_0, # of connection points: 4
#     Node 44, Type 0, BuildingBlock: CEKHIL_clean_sbu_0, # of connection points: 4
#     Node 45, Type 0, BuildingBlock: CEKHIL_clean_sbu_0, # of connection points: 4
#     Node 46, Type 0, BuildingBlock: CEKHIL_clean_sbu_0, # of connection points: 4
#     Node 47, Type 0, BuildingBlock: CEKHIL_clean_sbu_0, # of connection points: 4
#     Node 48, Type 0, BuildingBlock: CEKHIL_clean_sbu_0, # of connection points: 4
#     Node 49, Type 0, BuildingBlock: CEKHIL_clean_sbu_0, # of connection points: 4
#     Node 50, Type 0, BuildingBlock: CEKHIL_clean_sbu_0, # of connection points: 4
#     Node 51, Type 0, BuildingBlock: CEKHIL_clean_sbu_0, # of connection points: 4
#     Node 52, Type 0, BuildingBlock: CEKHIL_clean_sbu_0, # of connection points: 4
#     Node 53, Type 0, BuildingBlock: CEKHIL_clean_sbu_0, # of connection points: 4
#     Node 54, Type 0, BuildingBlock: CEKHIL_clean_sbu_0, # of connection points: 4
#     Node 55, Type 0, BuildingBlock: CEKHIL_clean_sbu_0, # of connection points: 4
#     Node 56, Type 0, BuildingBlock: CEKHIL_clean_sbu_0, # of connection points: 4
#     Node 57, Type 0, BuildingBlock: CEKHIL_clean_sbu_0, # of connection points: 4
#     Node 58, Type 0, BuildingBlock: CEKHIL_clean_sbu_0, # of connection points: 4
#     Node 59, Type 0, BuildingBlock: CEKHIL_clean_sbu_0, # of connection points: 4
#     Node 60, Type 0, BuildingBlock: CEKHIL_clean_sbu_0, # of connection points: 4
#     Node 61, Type 0, BuildingBlock: CEKHIL_clean_sbu_0, # of connection points: 4
#     Node 62, Type 0, BuildingBlock: CEKHIL_clean_sbu_0, # of connection points: 4
#     Node 63, Type 0, BuildingBlock: CEKHIL_clean_sbu_0, # of connection points: 4
#     Node 64, Type 0, BuildingBlock: CEKHIL_clean_sbu_0, # of connection points: 4
#     Node 65, Type 0, BuildingBlock: CEKHIL_clean_sbu_0, # of connection points: 4
#     Node 66, Type 0, BuildingBlock: CEKHIL_clean_sbu_0, # of connection points: 4
#     Node 67, Type 0, BuildingBlock: CEKHIL_clean_sbu_0, # of connection points: 4
#     Node 68, Type 0, BuildingBlock: CEKHIL_clean_sbu_0, # of connection points: 4
#     Node 69, Type 0, BuildingBlock: CEKHIL_clean_sbu_0, # of connection points: 4
#     Node 70, Type 0, BuildingBlock: CEKHIL_clean_sbu_0, # of connection points: 4
#     Node 71, Type 0, BuildingBlock: CEKHIL_clean_sbu_0, # of connection points: 4
#     Node 72, Type 0, BuildingBlock: CEKHIL_clean_sbu_0, # of connection points: 4
#     Node 73, Type 0, BuildingBlock: CEKHIL_clean_sbu_0, # of connection points: 4
#     Node 74, Type 0, BuildingBlock: CEKHIL_clean_sbu_0, # of connection points: 4
#     Node 75, Type 0, BuildingBlock: CEKHIL_clean_sbu_0, # of connection points: 4
#     Node 76, Type 0, BuildingBlock: CEKHIL_clean_sbu_0, # of connection points: 4
#     Node 77, Type 0, BuildingBlock: CEKHIL_clean_sbu_0, # of connection points: 4
#     Node 78, Type 0, BuildingBlock: CEKHIL_clean_sbu_0, # of connection points: 4
#     Node 79, Type 0, BuildingBlock: CEKHIL_clean_sbu_0, # of connection points: 4
#     Node 80, Type 0, BuildingBlock: CEKHIL_clean_sbu_0, # of connection points: 4
#     Node 81, Type 0, BuildingBlock: CEKHIL_clean_sbu_0, # of connection points: 4
#     Node 82, Type 0, BuildingBlock: CEKHIL_clean_sbu_0, # of connection points: 4
#     Node 83, Type 0, BuildingBlock: CEKHIL_clean_sbu_0, # of connection points: 4
#     Node 84, Type 0, BuildingBlock: CEKHIL_clean_sbu_0, # of connection points: 4
#     Node 85, Type 0, BuildingBlock: CEKHIL_clean_sbu_0, # of connection points: 4
#     Node 86, Type 0, BuildingBlock: CEKHIL_clean_sbu_0, # of connection points: 4
#     Node 87, Type 0, BuildingBlock: CEKHIL_clean_sbu_0, # of connection points: 4
#     Node 88, Type 0, BuildingBlock: CEKHIL_clean_sbu_0, # of connection points: 4
#     Node 89, Type 0, BuildingBlock: CEKHIL_clean_sbu_0, # of connection points: 4
#     Node 90, Type 0, BuildingBlock: CEKHIL_clean_sbu_0, # of connection points: 4
#     Node 91, Type 0, BuildingBlock: CEKHIL_clean_sbu_0, # of connection points: 4
#     Node 92, Type 0, BuildingBlock: CEKHIL_clean_sbu_0, # of connection points: 4
#     Node 93, Type 0, BuildingBlock: CEKHIL_clean_sbu_0, # of connection points: 4
#     Node 94, Type 0, BuildingBlock: CEKHIL_clean_sbu_0, # of connection points: 4
#     Node 95, Type 0, BuildingBlock: CEKHIL_clean_sbu_0, # of connection points: 4
#     Edge 96, Type (0, 0), BuildingBlock: AJUNOK_clean_linker_0, # of connection points: 2
#     Edge 97, Type (0, 0), BuildingBlock: AJUNOK_clean_linker_0, # of connection points: 2
#     Edge 98, Type (0, 0), BuildingBlock: AJUNOK_clean_linker_0, # of connection points: 2
#     Edge 99, Type (0, 0), BuildingBlock: AJUNOK_clean_linker_0, # of connection points: 2
#     Edge 100, Type (0, 0), BuildingBlock: AJUNOK_clean_linker_0, # of connection points: 2
#     Edge 101, Type (0, 0), BuildingBlock: AJUNOK_clean_linker_0, # of connection points: 2
#     Edge 102, Type (0, 0), BuildingBlock: AJUNOK_clean_linker_0, # of connection points: 2
#     Edge 103, Type (0, 0), BuildingBlock: AJUNOK_clean_linker_0, # of connection points: 2
#     Edge 104, Type (0, 0), BuildingBlock: AJUNOK_clean_linker_0, # of connection points: 2
#     Edge 105, Type (0, 0), BuildingBlock: AJUNOK_clean_linker_0, # of connection points: 2
#     Edge 106, Type (0, 0), BuildingBlock: AJUNOK_clean_linker_0, # of connection points: 2
#     Edge 107, Type (0, 0), BuildingBlock: AJUNOK_clean_linker_0, # of connection points: 2
#     Edge 108, Type (0, 0), BuildingBlock: AJUNOK_clean_linker_0, # of connection points: 2
#     Edge 109, Type (0, 0), BuildingBlock: AJUNOK_clean_linker_0, # of connection points: 2
#     Edge 110, Type (0, 0), BuildingBlock: AJUNOK_clean_linker_0, # of connection points: 2
#     Edge 111, Type (0, 0), BuildingBlock: AJUNOK_clean_linker_0, # of connection points: 2
#     Edge 112, Type (0, 0), BuildingBlock: AJUNOK_clean_linker_0, # of connection points: 2
#     Edge 113, Type (0, 0), BuildingBlock: AJUNOK_clean_linker_0, # of connection points: 2
#     Edge 114, Type (0, 0), BuildingBlock: AJUNOK_clean_linker_0, # of connection points: 2
#     Edge 115, Type (0, 0), BuildingBlock: AJUNOK_clean_linker_0, # of connection points: 2
#     Edge 116, Type (0, 0), BuildingBlock: AJUNOK_clean_linker_0, # of connection points: 2
#     Edge 117, Type (0, 0), BuildingBlock: AJUNOK_clean_linker_0, # of connection points: 2
#     Edge 118, Type (0, 0), BuildingBlock: AJUNOK_clean_linker_0, # of connection points: 2
#     Edge 119, Type (0, 0), BuildingBlock: AJUNOK_clean_linker_0, # of connection points: 2
#     Edge 120, Type (0, 0), BuildingBlock: AJUNOK_clean_linker_0, # of connection points: 2
#     Edge 121, Type (0, 0), BuildingBlock: AJUNOK_clean_linker_0, # of connection points: 2
#     Edge 122, Type (0, 0), BuildingBlock: AJUNOK_clean_linker_0, # of connection points: 2
#     Edge 123, Type (0, 0), BuildingBlock: AJUNOK_clean_linker_0, # of connection points: 2
#     Edge 124, Type (0, 0), BuildingBlock: AJUNOK_clean_linker_0, # of connection points: 2
#     Edge 125, Type (0, 0), BuildingBlock: AJUNOK_clean_linker_0, # of connection points: 2
#     Edge 126, Type (0, 0), BuildingBlock: AJUNOK_clean_linker_0, # of connection points: 2
#     Edge 127, Type (0, 0), BuildingBlock: AJUNOK_clean_linker_0, # of connection points: 2
#     Edge 128, Type (0, 0), BuildingBlock: AJUNOK_clean_linker_0, # of connection points: 2
#     Edge 129, Type (0, 0), BuildingBlock: AJUNOK_clean_linker_0, # of connection points: 2
#     Edge 130, Type (0, 0), BuildingBlock: AJUNOK_clean_linker_0, # of connection points: 2
#     Edge 131, Type (0, 0), BuildingBlock: AJUNOK_clean_linker_0, # of connection points: 2
#     Edge 132, Type (0, 0), BuildingBlock: AJUNOK_clean_linker_0, # of connection points: 2
#     Edge 133, Type (0, 0), BuildingBlock: AJUNOK_clean_linker_0, # of connection points: 2
#     Edge 134, Type (0, 0), BuildingBlock: AJUNOK_clean_linker_0, # of connection points: 2
#     Edge 135, Type (0, 0), BuildingBlock: AJUNOK_clean_linker_0, # of connection points: 2
#     Edge 136, Type (0, 0), BuildingBlock: AJUNOK_clean_linker_0, # of connection points: 2
#     Edge 137, Type (0, 0), BuildingBlock: AJUNOK_clean_linker_0, # of connection points: 2
#     Edge 138, Type (0, 0), BuildingBlock: AJUNOK_clean_linker_0, # of connection points: 2
#     Edge 139, Type (0, 0), BuildingBlock: AJUNOK_clean_linker_0, # of connection points: 2
#     Edge 140, Type (0, 0), BuildingBlock: AJUNOK_clean_linker_0, # of connection points: 2
#     Edge 141, Type (0, 0), BuildingBlock: AJUNOK_clean_linker_0, # of connection points: 2
#     Edge 142, Type (0, 0), BuildingBlock: AJUNOK_clean_linker_0, # of connection points: 2
#     Edge 143, Type (0, 0), BuildingBlock: AJUNOK_clean_linker_0, # of connection points: 2
#     Edge 144, Type (0, 0), BuildingBlock: AJUNOK_clean_linker_0, # of connection points: 2
#     Edge 145, Type (0, 0), BuildingBlock: AJUNOK_clean_linker_0, # of connection points: 2
#     Edge 146, Type (0, 0), BuildingBlock: AJUNOK_clean_linker_0, # of connection points: 2
#     Edge 147, Type (0, 0), BuildingBlock: AJUNOK_clean_linker_0, # of connection points: 2
#     Edge 148, Type (0, 0), BuildingBlock: AJUNOK_clean_linker_0, # of connection points: 2
#     Edge 149, Type (0, 0), BuildingBlock: AJUNOK_clean_linker_0, # of connection points: 2
#     Edge 150, Type (0, 0), BuildingBlock: AJUNOK_clean_linker_0, # of connection points: 2
#     Edge 151, Type (0, 0), BuildingBlock: AJUNOK_clean_linker_0, # of connection points: 2
#     Edge 152, Type (0, 0), BuildingBlock: AJUNOK_clean_linker_0, # of connection points: 2
#     Edge 153, Type (0, 0), BuildingBlock: AJUNOK_clean_linker_0, # of connection points: 2
#     Edge 154, Type (0, 0), BuildingBlock: AJUNOK_clean_linker_0, # of connection points: 2
#     Edge 155, Type (0, 0), BuildingBlock: AJUNOK_clean_linker_0, # of connection points: 2
#     Edge 156, Type (0, 0), BuildingBlock: AJUNOK_clean_linker_0, # of connection points: 2
#     Edge 157, Type (0, 0), BuildingBlock: AJUNOK_clean_linker_0, # of connection points: 2
#     Edge 158, Type (0, 0), BuildingBlock: AJUNOK_clean_linker_0, # of connection points: 2
#     Edge 159, Type (0, 0), BuildingBlock: AJUNOK_clean_linker_0, # of connection points: 2
#     Edge 160, Type (0, 0), BuildingBlock: AJUNOK_clean_linker_0, # of connection points: 2
#     Edge 161, Type (0, 0), BuildingBlock: AJUNOK_clean_linker_0, # of connection points: 2
#     Edge 162, Type (0, 0), BuildingBlock: AJUNOK_clean_linker_0, # of connection points: 2
#     Edge 163, Type (0, 0), BuildingBlock: AJUNOK_clean_linker_0, # of connection points: 2
#     Edge 164, Type (0, 0), BuildingBlock: AJUNOK_clean_linker_0, # of connection points: 2
#     Edge 165, Type (0, 0), BuildingBlock: AJUNOK_clean_linker_0, # of connection points: 2
#     Edge 166, Type (0, 0), BuildingBlock: AJUNOK_clean_linker_0, # of connection points: 2
#     Edge 167, Type (0, 0), BuildingBlock: AJUNOK_clean_linker_0, # of connection points: 2
#     Edge 168, Type (0, 0), BuildingBlock: AJUNOK_clean_linker_0, # of connection points: 2
#     Edge 169, Type (0, 0), BuildingBlock: AJUNOK_clean_linker_0, # of connection points: 2
#     Edge 170, Type (0, 0), BuildingBlock: AJUNOK_clean_linker_0, # of connection points: 2
#     Edge 171, Type (0, 0), BuildingBlock: AJUNOK_clean_linker_0, # of connection points: 2
#     Edge 172, Type (0, 0), BuildingBlock: AJUNOK_clean_linker_0, # of connection points: 2
#     Edge 173, Type (0, 0), BuildingBlock: AJUNOK_clean_linker_0, # of connection points: 2
#     Edge 174, Type (0, 0), BuildingBlock: AJUNOK_clean_linker_0, # of connection points: 2
#     Edge 175, Type (0, 0), BuildingBlock: AJUNOK_clean_linker_0, # of connection points: 2
#     Edge 176, Type (0, 0), BuildingBlock: AJUNOK_clean_linker_0, # of connection points: 2
#     Edge 177, Type (0, 0), BuildingBlock: AJUNOK_clean_linker_0, # of connection points: 2
#     Edge 178, Type (0, 0), BuildingBlock: AJUNOK_clean_linker_0, # of connection points: 2
#     Edge 179, Type (0, 0), BuildingBlock: AJUNOK_clean_linker_0, # of connection points: 2
#     Edge 180, Type (0, 0), BuildingBlock: AJUNOK_clean_linker_0, # of connection points: 2
#     Edge 181, Type (0, 0), BuildingBlock: AJUNOK_clean_linker_0, # of connection points: 2
#     Edge 182, Type (0, 0), BuildingBlock: AJUNOK_clean_linker_0, # of connection points: 2
#     Edge 183, Type (0, 0), BuildingBlock: AJUNOK_clean_linker_0, # of connection points: 2
#     Edge 184, Type (0, 0), BuildingBlock: AJUNOK_clean_linker_0, # of connection points: 2
#     Edge 185, Type (0, 0), BuildingBlock: AJUNOK_clean_linker_0, # of connection points: 2
#     Edge 186, Type (0, 0), BuildingBlock: AJUNOK_clean_linker_0, # of connection points: 2
#     Edge 187, Type (0, 0), BuildingBlock: AJUNOK_clean_linker_0, # of connection points: 2
#     Edge 188, Type (0, 0), BuildingBlock: AJUNOK_clean_linker_0, # of connection points: 2
#     Edge 189, Type (0, 0), BuildingBlock: AJUNOK_clean_linker_0, # of connection points: 2
#     Edge 190, Type (0, 0), BuildingBlock: AJUNOK_clean_linker_0, # of connection points: 2
#     Edge 191, Type (0, 0), BuildingBlock: AJUNOK_clean_linker_0, # of connection points: 2
#     Edge 192, Type (0, 0), BuildingBlock: AJUNOK_clean_linker_0, # of connection points: 2
#     Edge 193, Type (0, 0), BuildingBlock: AJUNOK_clean_linker_0, # of connection points: 2
#     Edge 194, Type (0, 0), BuildingBlock: AJUNOK_clean_linker_0, # of connection points: 2
#     Edge 195, Type (0, 0), BuildingBlock: AJUNOK_clean_linker_0, # of connection points: 2
#     Edge 196, Type (0, 0), BuildingBlock: AJUNOK_clean_linker_0, # of connection points: 2
#     Edge 197, Type (0, 0), BuildingBlock: AJUNOK_clean_linker_0, # of connection points: 2
#     Edge 198, Type (0, 0), BuildingBlock: AJUNOK_clean_linker_0, # of connection points: 2
#     Edge 199, Type (0, 0), BuildingBlock: AJUNOK_clean_linker_0, # of connection points: 2
#     Edge 200, Type (0, 0), BuildingBlock: AJUNOK_clean_linker_0, # of connection points: 2
#     Edge 201, Type (0, 0), BuildingBlock: AJUNOK_clean_linker_0, # of connection points: 2
#     Edge 202, Type (0, 0), BuildingBlock: AJUNOK_clean_linker_0, # of connection points: 2
#     Edge 203, Type (0, 0), BuildingBlock: AJUNOK_clean_linker_0, # of connection points: 2
#     Edge 204, Type (0, 0), BuildingBlock: AJUNOK_clean_linker_0, # of connection points: 2
#     Edge 205, Type (0, 0), BuildingBlock: AJUNOK_clean_linker_0, # of connection points: 2
#     Edge 206, Type (0, 0), BuildingBlock: AJUNOK_clean_linker_0, # of connection points: 2
#     Edge 207, Type (0, 0), BuildingBlock: AJUNOK_clean_linker_0, # of connection points: 2
#     Edge 208, Type (0, 0), BuildingBlock: AJUNOK_clean_linker_0, # of connection points: 2
#     Edge 209, Type (0, 0), BuildingBlock: AJUNOK_clean_linker_0, # of connection points: 2
#     Edge 210, Type (0, 0), BuildingBlock: AJUNOK_clean_linker_0, # of connection points: 2
#     Edge 211, Type (0, 0), BuildingBlock: AJUNOK_clean_linker_0, # of connection points: 2
#     Edge 212, Type (0, 0), BuildingBlock: AJUNOK_clean_linker_0, # of connection points: 2
#     Edge 213, Type (0, 0), BuildingBlock: AJUNOK_clean_linker_0, # of connection points: 2
#     Edge 214, Type (0, 0), BuildingBlock: AJUNOK_clean_linker_0, # of connection points: 2
#     Edge 215, Type (0, 0), BuildingBlock: AJUNOK_clean_linker_0, # of connection points: 2
#     Edge 216, Type (0, 0), BuildingBlock: AJUNOK_clean_linker_0, # of connection points: 2
#     Edge 217, Type (0, 0), BuildingBlock: AJUNOK_clean_linker_0, # of connection points: 2
#     Edge 218, Type (0, 0), BuildingBlock: AJUNOK_clean_linker_0, # of connection points: 2
#     Edge 219, Type (0, 0), BuildingBlock: AJUNOK_clean_linker_0, # of connection points: 2
#     Edge 220, Type (0, 0), BuildingBlock: AJUNOK_clean_linker_0, # of connection points: 2
#     Edge 221, Type (0, 0), BuildingBlock: AJUNOK_clean_linker_0, # of connection points: 2
#     Edge 222, Type (0, 0), BuildingBlock: AJUNOK_clean_linker_0, # of connection points: 2
#     Edge 223, Type (0, 0), BuildingBlock: AJUNOK_clean_linker_0, # of connection points: 2
#     Edge 224, Type (0, 0), BuildingBlock: AJUNOK_clean_linker_0, # of connection points: 2
#     Edge 225, Type (0, 0), BuildingBlock: AJUNOK_clean_linker_0, # of connection points: 2
#     Edge 226, Type (0, 0), BuildingBlock: AJUNOK_clean_linker_0, # of connection points: 2
#     Edge 227, Type (0, 0), BuildingBlock: AJUNOK_clean_linker_0, # of connection points: 2
#     Edge 228, Type (0, 0), BuildingBlock: AJUNOK_clean_linker_0, # of connection points: 2
#     Edge 229, Type (0, 0), BuildingBlock: AJUNOK_clean_linker_0, # of connection points: 2
#     Edge 230, Type (0, 0), BuildingBlock: AJUNOK_clean_linker_0, # of connection points: 2
#     Edge 231, Type (0, 0), BuildingBlock: AJUNOK_clean_linker_0, # of connection points: 2
#     Edge 232, Type (0, 0), BuildingBlock: AJUNOK_clean_linker_0, # of connection points: 2
#     Edge 233, Type (0, 0), BuildingBlock: AJUNOK_clean_linker_0, # of connection points: 2
#     Edge 234, Type (0, 0), BuildingBlock: AJUNOK_clean_linker_0, # of connection points: 2
#     Edge 235, Type (0, 0), BuildingBlock: AJUNOK_clean_linker_0, # of connection points: 2
#     Edge 236, Type (0, 0), BuildingBlock: AJUNOK_clean_linker_0, # of connection points: 2
#     Edge 237, Type (0, 0), BuildingBlock: AJUNOK_clean_linker_0, # of connection points: 2
#     Edge 238, Type (0, 0), BuildingBlock: AJUNOK_clean_linker_0, # of connection points: 2
#     Edge 239, Type (0, 0), BuildingBlock: AJUNOK_clean_linker_0, # of connection points: 2
#     Edge 240, Type (0, 0), BuildingBlock: AJUNOK_clean_linker_0, # of connection points: 2
#     Edge 241, Type (0, 0), BuildingBlock: AJUNOK_clean_linker_0, # of connection points: 2
#     Edge 242, Type (0, 0), BuildingBlock: AJUNOK_clean_linker_0, # of connection points: 2
#     Edge 243, Type (0, 0), BuildingBlock: AJUNOK_clean_linker_0, # of connection points: 2
#     Edge 244, Type (0, 0), BuildingBlock: AJUNOK_clean_linker_0, # of connection points: 2
#     Edge 245, Type (0, 0), BuildingBlock: AJUNOK_clean_linker_0, # of connection points: 2
#     Edge 246, Type (0, 0), BuildingBlock: AJUNOK_clean_linker_0, # of connection points: 2
#     Edge 247, Type (0, 0), BuildingBlock: AJUNOK_clean_linker_0, # of connection points: 2
#     Edge 248, Type (0, 0), BuildingBlock: AJUNOK_clean_linker_0, # of connection points: 2
#     Edge 249, Type (0, 0), BuildingBlock: AJUNOK_clean_linker_0, # of connection points: 2
#     Edge 250, Type (0, 0), BuildingBlock: AJUNOK_clean_linker_0, # of connection points: 2
#     Edge 251, Type (0, 0), BuildingBlock: AJUNOK_clean_linker_0, # of connection points: 2
#     Edge 252, Type (0, 0), BuildingBlock: AJUNOK_clean_linker_0, # of connection points: 2
#     Edge 253, Type (0, 0), BuildingBlock: AJUNOK_clean_linker_0, # of connection points: 2
#     Edge 254, Type (0, 0), BuildingBlock: AJUNOK_clean_linker_0, # of connection points: 2
#     Edge 255, Type (0, 0), BuildingBlock: AJUNOK_clean_linker_0, # of connection points: 2
#     Edge 256, Type (0, 0), BuildingBlock: AJUNOK_clean_linker_0, # of connection points: 2
#     Edge 257, Type (0, 0), BuildingBlock: AJUNOK_clean_linker_0, # of connection points: 2
#     Edge 258, Type (0, 0), BuildingBlock: AJUNOK_clean_linker_0, # of connection points: 2
#     Edge 259, Type (0, 0), BuildingBlock: AJUNOK_clean_linker_0, # of connection points: 2
#     Edge 260, Type (0, 0), BuildingBlock: AJUNOK_clean_linker_0, # of connection points: 2
#     Edge 261, Type (0, 0), BuildingBlock: AJUNOK_clean_linker_0, # of connection points: 2
#     Edge 262, Type (0, 0), BuildingBlock: AJUNOK_clean_linker_0, # of connection points: 2
#     Edge 263, Type (0, 0), BuildingBlock: AJUNOK_clean_linker_0, # of connection points: 2
#     Edge 264, Type (0, 0), BuildingBlock: AJUNOK_clean_linker_0, # of connection points: 2
#     Edge 265, Type (0, 0), BuildingBlock: AJUNOK_clean_linker_0, # of connection points: 2
#     Edge 266, Type (0, 0), BuildingBlock: AJUNOK_clean_linker_0, # of connection points: 2
#     Edge 267, Type (0, 0), BuildingBlock: AJUNOK_clean_linker_0, # of connection points: 2
#     Edge 268, Type (0, 0), BuildingBlock: AJUNOK_clean_linker_0, # of connection points: 2
#     Edge 269, Type (0, 0), BuildingBlock: AJUNOK_clean_linker_0, # of connection points: 2
#     Edge 270, Type (0, 0), BuildingBlock: AJUNOK_clean_linker_0, # of connection points: 2
#     Edge 271, Type (0, 0), BuildingBlock: AJUNOK_clean_linker_0, # of connection points: 2
#     Edge 272, Type (0, 0), BuildingBlock: AJUNOK_clean_linker_0, # of connection points: 2
#     Edge 273, Type (0, 0), BuildingBlock: AJUNOK_clean_linker_0, # of connection points: 2
#     Edge 274, Type (0, 0), BuildingBlock: AJUNOK_clean_linker_0, # of connection points: 2
#     Edge 275, Type (0, 0), BuildingBlock: AJUNOK_clean_linker_0, # of connection points: 2
#     Edge 276, Type (0, 0), BuildingBlock: AJUNOK_clean_linker_0, # of connection points: 2
#     Edge 277, Type (0, 0), BuildingBlock: AJUNOK_clean_linker_0, # of connection points: 2
#     Edge 278, Type (0, 0), BuildingBlock: AJUNOK_clean_linker_0, # of connection points: 2
#     Edge 279, Type (0, 0), BuildingBlock: AJUNOK_clean_linker_0, # of connection points: 2
#     Edge 280, Type (0, 0), BuildingBlock: AJUNOK_clean_linker_0, # of connection points: 2
#     Edge 281, Type (0, 0), BuildingBlock: AJUNOK_clean_linker_0, # of connection points: 2
#     Edge 282, Type (0, 0), BuildingBlock: AJUNOK_clean_linker_0, # of connection points: 2
#     Edge 283, Type (0, 0), BuildingBlock: AJUNOK_clean_linker_0, # of connection points: 2
#     Edge 284, Type (0, 0), BuildingBlock: AJUNOK_clean_linker_0, # of connection points: 2
#     Edge 285, Type (0, 0), BuildingBlock: AJUNOK_clean_linker_0, # of connection points: 2
#     Edge 286, Type (0, 0), BuildingBlock: AJUNOK_clean_linker_0, # of connection points: 2
#     Edge 287, Type (0, 0), BuildingBlock: AJUNOK_clean_linker_0, # of connection points: 2
# Relax obj value: 0.330
# Max RMSD: 0.266
# Mean RMSD: 0.266
data_MOF--net-hal--node1-CEKHIL_clean_sbu_0--edge1-AJUNOK_clean_linker_0
_symmetry_space_group_name_H-M    P1
_symmetry_Int_Tables_number       1
_symmetry_cell_setting            triclinic
loop_
_symmetry_equiv_pos_as_xyz
'x, y, z'
_cell_length_a     66.02873
_cell_length_b     65.945426
_cell_length_c     66.015189
_cell_angle_alpha  90.067949
_cell_angle_beta   90.025912
_cell_angle_gamma 90.029656
loop_
_atom_site_label
_atom_site_type_symbol
_atom_site_fract_x
_atom_site_fract_y
_atom_site_fract_z
_atom_type_partial_charge
Co0 Co 0.06851 0.18843 0.31097 0.0
O1 O 0.04407 0.20172 0.32068 0.0
O2 O 0.04628 0.17015 0.30952 0.0
C3 C 0.09126 0.19797 0.33485 0.0
O4 O 0.08901 0.16807 0.30088 0.0
Co5 Co 0.10669 0.20961 0.2953 0.0
O6 O 0.11821 0.18216 0.29095 0.0
C7 C 0.06793 0.21625 0.27606 0.0
C8 C 0.03495 0.18474 0.31602 0.0
C9 C 0.10714 0.16671 0.29421 0.0
O10 O 0.06226 0.1989 0.28285 0.0
O11 O 0.08434 0.22472 0.28176 0.0
O12 O 0.07835 0.18345 0.33853 0.0
O13 O 0.08819 0.20771 0.3182 0.0
Co14 Co 0.79573 0.07356 0.31459 0.0
O15 O 0.78279 0.04885 0.32395 0.0
O16 O 0.81238 0.05068 0.30827 0.0
C17 C 0.79082 0.09367 0.34187 0.0
O18 O 0.81531 0.09461 0.3039 0.0
Co19 Co 0.77406 0.11478 0.30801 0.0
O20 O 0.80215 0.12589 0.30662 0.0
C21 C 0.76447 0.07971 0.28223 0.0
C22 C 0.79844 0.03949 0.31635 0.0
C23 C 0.81705 0.11396 0.30383 0.0
O24 O 0.78103 0.07099 0.28777 0.0
O25 O 0.75799 0.09618 0.29015 0.0
O26 O 0.80528 0.08021 0.342 0.0
O27 O 0.77867 0.09256 0.32667 0.0
Co28 Co 0.91732 0.80153 0.30266 0.0
O29 O 0.9426 0.78835 0.30979 0.0
O30 O 0.93957 0.81897 0.29641 0.0
C31 C 0.89894 0.7943 0.33055 0.0
O32 O 0.89557 0.82174 0.29471 0.0
Co33 Co 0.8761 0.78012 0.29623 0.0
O34 O 0.86452 0.80797 0.29656 0.0
C35 C 0.91049 0.77159 0.26958 0.0
C36 C 0.95133 0.80471 0.30292 0.0
C37 C 0.87622 0.82324 0.29499 0.0
O38 O 0.91872 0.78851 0.27485 0.0
O39 O 0.89454 0.76453 0.27796 0.0
O40 O 0.91223 0.80894 0.33098 0.0
O41 O 0.89909 0.78339 0.31437 0.0
Co42 Co 0.19174 0.91888 0.31102 0.0
O43 O 0.20445 0.94445 0.3179 0.0
O44 O 0.17357 0.94054 0.30517 0.0
C45 C 0.1998 0.9004 0.33848 0.0
O46 O 0.17235 0.89648 0.30323 0.0
Co47 Co 0.21477 0.87858 0.30388 0.0
O48 O 0.18738 0.86594 0.30256 0.0
C49 C 0.22021 0.91294 0.27643 0.0
C50 C 0.1878 0.95268 0.31114 0.0
C51 C 0.17167 0.87712 0.30183 0.0
O52 O 0.20356 0.9207 0.28288 0.0
O53 O 0.22851 0.89742 0.28449 0.0
O54 O 0.18499 0.91345 0.33935 0.0
O55 O 0.21065 0.90122 0.3223 0.0
Co56 Co 0.06996 0.79458 0.67864 0.0
O57 O 0.04401 0.78575 0.66832 0.0
O58 O 0.04873 0.81034 0.69069 0.0
C59 C 0.0871 0.7951 0.64887 0.0
O60 O 0.09299 0.80932 0.69264 0.0
Co61 Co 0.11073 0.77152 0.67576 0.0
O62 O 0.12202 0.79955 0.67839 0.0
C63 C 0.07791 0.75682 0.70271 0.0
C64 C 0.03617 0.79947 0.68021 0.0
C65 C 0.11134 0.81282 0.68747 0.0
O66 O 0.06824 0.77369 0.70086 0.0
O67 O 0.09404 0.75272 0.69273 0.0
O68 O 0.07541 0.81026 0.65382 0.0
O69 O 0.08668 0.78003 0.66118 0.0
Co70 Co 0.18589 0.06929 0.68166 0.0
O71 O 0.19372 0.04315 0.6713 0.0
O72 O 0.16788 0.04892 0.69202 0.0
C73 C 0.18844 0.08682 0.65236 0.0
O74 O 0.17184 0.09322 0.69474 0.0
Co75 Co 0.21284 0.10782 0.68132 0.0
O76 O 0.18593 0.12167 0.68276 0.0
C77 C 0.22198 0.07397 0.70918 0.0
C78 C 0.17849 0.03606 0.68163 0.0
C79 C 0.17106 0.11216 0.69053 0.0
O80 O 0.20457 0.06589 0.70561 0.0
O81 O 0.22865 0.08961 0.69982 0.0
O82 O 0.17241 0.07589 0.65598 0.0
O83 O 0.20274 0.08516 0.66552 0.0
Co84 Co 0.91885 0.19258 0.68628 0.0
O85 O 0.94417 0.20454 0.67798 0.0
O86 O 0.94079 0.17509 0.69378 0.0
C87 C 0.90138 0.19878 0.6575 0.0
O88 O 0.89637 0.17412 0.69629 0.0
Co89 Co 0.87769 0.21486 0.68968 0.0
O90 O 0.8668 0.18682 0.68572 0.0
C91 C 0.91131 0.22405 0.71798 0.0
C92 C 0.95268 0.18855 0.68581 0.0
C93 C 0.87781 0.17189 0.69104 0.0
O94 O 0.92054 0.2076 0.7129 0.0
O95 O 0.89511 0.23029 0.70932 0.0
O96 O 0.91353 0.18322 0.65848 0.0
O97 O 0.90152 0.21041 0.67312 0.0
Co98 Co 0.79879 0.91976 0.67447 0.0
O99 O 0.78595 0.94448 0.66491 0.0
O100 O 0.81581 0.94241 0.68008 0.0
C101 C 0.79332 0.89896 0.64784 0.0
O102 O 0.81849 0.89908 0.68523 0.0
Co103 Co 0.77757 0.87865 0.68263 0.0
O104 O 0.80541 0.86773 0.68688 0.0
C105 C 0.76785 0.9145 0.70696 0.0
C106 C 0.80191 0.9537 0.67215 0.0
C107 C 0.82028 0.87999 0.68804 0.0
O108 O 0.78457 0.92291 0.70144 0.0
O109 O 0.76119 0.89805 0.69915 0.0
O110 O 0.80776 0.91244 0.64707 0.0
O111 O 0.78145 0.90045 0.66322 0.0
Co112 Co 0.30981 0.07584 0.1896 0.0
O113 O 0.31973 0.04938 0.19764 0.0
O114 O 0.29815 0.05529 0.17268 0.0
C115 C 0.33961 0.09297 0.1904 0.0
O116 O 0.29641 0.09942 0.17533 0.0
Co117 Co 0.31197 0.11586 0.21404 0.0
O118 O 0.31065 0.12806 0.1863 0.0
C119 C 0.28366 0.08324 0.2263 0.0
C120 C 0.3083 0.0422 0.18318 0.0
C121 C 0.30196 0.11778 0.17247 0.0
O122 O 0.28675 0.07364 0.20956 0.0
O123 O 0.29338 0.09928 0.23138 0.0
O124 O 0.33508 0.08157 0.1749 0.0
O125 O 0.32695 0.0921 0.20521 0.0
Co126 Co 0.91745 0.31124 0.18548 0.0
O127 O 0.94302 0.31725 0.19808 0.0
O128 O 0.93899 0.30163 0.16858 0.0
C129 C 0.90224 0.34138 0.19091 0.0
O130 O 0.89477 0.303 0.16664 0.0
Co131 Co 0.87583 0.31157 0.20716 0.0
O132 O 0.86518 0.31418 0.1789 0.0
C133 C 0.90655 0.28038 0.21676 0.0
C134 C 0.95118 0.3083 0.18248 0.0
C135 C 0.87618 0.30801 0.16429 0.0
O136 O 0.91644 0.28466 0.20051 0.0
O137 O 0.8912 0.29053 0.22289 0.0
O138 O 0.9147 0.33927 0.17572 0.0
O139 O 0.90101 0.32603 0.20281 0.0
Co140 Co 0.67559 0.91441 0.18879 0.0
O141 O 0.66486 0.93911 0.20063 0.0
O142 O 0.68435 0.93724 0.17339 0.0
C143 C 0.64756 0.89485 0.18981 0.0
O144 O 0.68858 0.89374 0.17038 0.0
Co145 Co 0.67916 0.87289 0.21013 0.0
O146 O 0.6871 0.86225 0.18297 0.0
C147 C 0.70365 0.90743 0.22383 0.0
C148 C 0.67462 0.94846 0.18621 0.0
C149 C 0.69095 0.87457 0.16862 0.0
O150 O 0.70018 0.91654 0.20694 0.0
O151 O 0.69474 0.89097 0.22891 0.0
O152 O 0.64982 0.90821 0.17545 0.0
O153 O 0.66105 0.8953 0.20389 0.0
Co154 Co 0.07121 0.67398 0.1906 0.0
O155 O 0.04588 0.66556 0.20294 0.0
O156 O 0.04915 0.68029 0.17298 0.0
C157 C 0.09084 0.64654 0.19675 0.0
O158 O 0.09272 0.68358 0.17128 0.0
Co159 Co 0.11198 0.68099 0.21278 0.0
O160 O 0.12377 0.68322 0.18508 0.0
C161 C 0.07719 0.70725 0.22092 0.0
C162 C 0.03729 0.67289 0.18669 0.0
C163 C 0.11198 0.68484 0.16991 0.0
O164 O 0.06882 0.70137 0.20428 0.0
O165 O 0.0932 0.69912 0.22814 0.0
O166 O 0.07755 0.64615 0.18213 0.0
O167 O 0.08974 0.66213 0.20847 0.0
Co168 Co 0.30377 0.91078 0.79805 0.0
O169 O 0.31349 0.93506 0.78458 0.0
O170 O 0.29968 0.93356 0.81521 0.0
C171 C 0.3296 0.88936 0.79132 0.0
O172 O 0.2935 0.89061 0.81845 0.0
Co173 Co 0.29264 0.8702 0.77765 0.0
O174 O 0.2896 0.85938 0.80564 0.0
C175 C 0.26952 0.90696 0.76886 0.0
C176 C 0.30731 0.94446 0.80086 0.0
C177 C 0.28991 0.8717 0.82051 0.0
O178 O 0.27619 0.91491 0.78537 0.0
O179 O 0.27604 0.8901 0.76188 0.0
O180 O 0.33133 0.90293 0.80561 0.0
O181 O 0.31356 0.8909 0.78028 0.0
Co182 Co 0.0773 0.31834 0.79715 0.0
O183 O 0.05131 0.32725 0.78657 0.0
O184 O 0.05645 0.3119 0.81597 0.0
C185 C 0.0969 0.34553 0.79042 0.0
O186 O 0.09971 0.30791 0.81481 0.0
Co187 Co 0.11669 0.31137 0.77267 0.0
O188 O 0.12991 0.30631 0.79944 0.0
C189 C 0.08129 0.28523 0.76641 0.0
C190 C 0.04375 0.31939 0.80309 0.0
C191 C 0.11878 0.30484 0.81513 0.0
O192 O 0.07375 0.29126 0.78333 0.0
O193 O 0.09699 0.29321 0.75837 0.0
O194 O 0.08462 0.34575 0.80591 0.0
O195 O 0.09483 0.33033 0.77835 0.0
Co196 Co 0.6764 0.07296 0.79388 0.0
O197 O 0.66935 0.04782 0.78014 0.0
O198 O 0.68099 0.0506 0.81153 0.0
C199 C 0.64967 0.09257 0.78494 0.0
O200 O 0.6841 0.09393 0.81474 0.0
Co201 Co 0.6854 0.1145 0.77413 0.0
O202 O 0.68591 0.12546 0.80223 0.0
C203 C 0.71174 0.07951 0.76674 0.0
C204 C 0.67523 0.03898 0.79685 0.0
C205 C 0.68596 0.11307 0.817 0.0
O206 O 0.70489 0.07081 0.7828 0.0
O207 O 0.70423 0.09582 0.7595 0.0
O208 O 0.64781 0.0792 0.7994 0.0
O209 O 0.66653 0.09187 0.77526 0.0
Co210 Co 0.91925 0.68091 0.80264 0.0
O211 O 0.94499 0.67539 0.79007 0.0
O212 O 0.94033 0.69444 0.81741 0.0
C213 C 0.9072 0.64879 0.80104 0.0
O214 O 0.89651 0.68959 0.82138 0.0
Co215 Co 0.87681 0.67381 0.78423 0.0
O216 O 0.86858 0.67226 0.81332 0.0
C217 C 0.90307 0.7074 0.76944 0.0
C218 C 0.95273 0.6867 0.80431 0.0
C219 C 0.87944 0.68172 0.82618 0.0
O220 O 0.91533 0.70512 0.78446 0.0
O221 O 0.88795 0.69562 0.76626 0.0
O222 O 0.91936 0.65405 0.8157 0.0
O223 O 0.90371 0.66262 0.78781 0.0
Co224 Co 0.18923 0.30705 0.06971 0.0
O225 O 0.20036 0.31778 0.04487 0.0
O226 O 0.17227 0.29953 0.04752 0.0
C227 C 0.1922 0.33434 0.09004 0.0
O228 O 0.17165 0.29444 0.09121 0.0
Co229 Co 0.21323 0.3018 0.10976 0.0
O230 O 0.18576 0.29819 0.1219 0.0
C231 C 0.22294 0.27685 0.07421 0.0
C232 C 0.18503 0.30898 0.036 0.0
C233 C 0.17057 0.29446 0.11056 0.0
O234 O 0.20582 0.28155 0.06619 0.0
O235 O 0.22963 0.285 0.09049 0.0
O236 O 0.17746 0.33331 0.07695 0.0
O237 O 0.20584 0.32048 0.08828 0.0
Co238 Co 0.1897 0.67632 0.91684 0.0
O239 O 0.19878 0.66546 0.94257 0.0
O240 O 0.17405 0.68777 0.93828 0.0
C241 C 0.18859 0.64759 0.89846 0.0
O242 O 0.17428 0.6903 0.89454 0.0
Co243 Co 0.21382 0.67552 0.87668 0.0
O244 O 0.18768 0.68397 0.86399 0.0
C245 C 0.22746 0.70116 0.91047 0.0
C246 C 0.18504 0.6772 0.9506 0.0
C247 C 0.1734 0.69056 0.87519 0.0
O248 O 0.21011 0.69897 0.91909 0.0
O249 O 0.23259 0.69143 0.8945 0.0
O250 O 0.17388 0.65193 0.91089 0.0
O251 O 0.20414 0.65936 0.89934 0.0
Co252 Co 0.30944 0.18282 0.91483 0.0
O253 O 0.32094 0.19295 0.93974 0.0
O254 O 0.30193 0.16535 0.9367 0.0
C255 C 0.33696 0.18659 0.89477 0.0
O256 O 0.29564 0.16635 0.89296 0.0
Co257 Co 0.30466 0.2069 0.87482 0.0
O258 O 0.30462 0.17899 0.86287 0.0
C259 C 0.27988 0.21696 0.91074 0.0
C260 C 0.312 0.17757 0.94833 0.0
C261 C 0.29885 0.16431 0.87397 0.0
O262 O 0.28458 0.20001 0.91917 0.0
O263 O 0.28761 0.22311 0.89406 0.0
O264 O 0.33555 0.17097 0.90679 0.0
O265 O 0.32285 0.19987 0.89679 0.0
Co266 Co 0.79927 0.31192 0.91566 0.0
O267 O 0.785 0.31906 0.94023 0.0
O268 O 0.81463 0.30339 0.93869 0.0
C269 C 0.79507 0.34124 0.89849 0.0
O270 O 0.8197 0.30271 0.89467 0.0
Co271 Co 0.78035 0.31009 0.87268 0.0
O272 O 0.80924 0.31243 0.86389 0.0
C273 C 0.76885 0.28035 0.904 0.0
C274 C 0.80005 0.31053 0.94974 0.0
C275 C 0.82316 0.3069 0.87605 0.0
O276 O 0.78436 0.28523 0.91479 0.0
O277 O 0.76367 0.28972 0.88784 0.0
O278 O 0.8092 0.33988 0.91221 0.0
O279 O 0.78315 0.32586 0.89732 0.0
Co280 Co 0.68637 0.79918 0.91431 0.0
O281 O 0.6784 0.78689 0.93968 0.0
O282 O 0.69533 0.81574 0.93648 0.0
C283 C 0.65707 0.79491 0.897 0.0
O284 O 0.69632 0.81797 0.89218 0.0
Co285 Co 0.68827 0.77717 0.87281 0.0
O286 O 0.68707 0.80545 0.86196 0.0
C287 C 0.71675 0.76659 0.90558 0.0
C288 C 0.68741 0.80222 0.94831 0.0
C289 C 0.69248 0.82014 0.87328 0.0
O290 O 0.71251 0.78325 0.91486 0.0
O291 O 0.70747 0.76062 0.88962 0.0
O292 O 0.65886 0.80979 0.90991 0.0
O293 O 0.672 0.78239 0.89672 0.0
Co294 Co 0.79384 0.68037 0.0772 0.0
O295 O 0.78399 0.66938 0.05185 0.0
O296 O 0.80939 0.69107 0.05517 0.0
C297 C 0.79366 0.65103 0.09495 0.0
O298 O 0.80994 0.69439 0.09945 0.0
Co299 Co 0.77315 0.67987 0.11914 0.0
O300 O 0.80188 0.67985 0.1287 0.0
C301 C 0.75694 0.70543 0.08576 0.0
C302 C 0.79813 0.68019 0.04331 0.0
C303 C 0.81497 0.6878 0.11701 0.0
O304 O 0.77338 0.70317 0.0754 0.0
O305 O 0.7538 0.69637 0.10263 0.0
O306 O 0.80864 0.65507 0.08274 0.0
O307 O 0.77922 0.66411 0.09494 0.0
Co308 Co 0.31043 0.79712 0.07294 0.0
O309 O 0.31844 0.78409 0.04789 0.0
O310 O 0.30314 0.81389 0.05051 0.0
C311 C 0.33892 0.79117 0.09103 0.0
O312 O 0.30072 0.81687 0.09443 0.0
Co313 Co 0.30623 0.77658 0.11489 0.0
O314 O 0.30735 0.80494 0.12551 0.0
C315 C 0.27877 0.76608 0.08116 0.0
C316 C 0.3106 0.79988 0.03896 0.0
C317 C 0.30296 0.81942 0.11354 0.0
O318 O 0.28357 0.78252 0.07181 0.0
O319 O 0.28748 0.76018 0.09744 0.0
O320 O 0.33839 0.80612 0.07811 0.0
O321 O 0.32314 0.77978 0.09108 0.0
Co322 Co 0.6751 0.18709 0.06792 0.0
O323 O 0.66848 0.20173 0.04341 0.0
O324 O 0.6816 0.17083 0.04476 0.0
C325 C 0.64684 0.19376 0.08585 0.0
O326 O 0.68288 0.16603 0.08885 0.0
Co327 Co 0.67981 0.20696 0.11045 0.0
O328 O 0.68246 0.17866 0.12046 0.0
C329 C 0.71085 0.21329 0.07914 0.0
C330 C 0.67532 0.18588 0.03381 0.0
C331 C 0.68421 0.16392 0.1081 0.0
O332 O 0.70317 0.19933 0.06786 0.0
O333 O 0.70278 0.21966 0.09554 0.0
O334 O 0.64673 0.17944 0.07224 0.0
O335 O 0.66297 0.20464 0.08651 0.0
Co336 Co 0.91555 0.81445 0.69415 0.0
O337 O 0.94154 0.82003 0.70691 0.0
O338 O 0.93696 0.80569 0.67691 0.0
C339 C 0.89906 0.84389 0.69979 0.0
O340 O 0.8933 0.80709 0.67449 0.0
Co341 Co 0.87354 0.81299 0.7153 0.0
O342 O 0.86213 0.81068 0.68752 0.0
C343 C 0.90285 0.78001 0.72163 0.0
C344 C 0.94942 0.81164 0.69081 0.0
C345 C 0.87401 0.80738 0.6727 0.0
O346 O 0.91459 0.78692 0.70768 0.0
O347 O 0.88688 0.78904 0.72778 0.0
O348 O 0.91257 0.84269 0.68545 0.0
O349 O 0.89831 0.82848 0.71172 0.0
Co350 Co 0.16791 0.91555 0.69008 0.0
O351 O 0.15736 0.94036 0.70199 0.0
O352 O 0.17455 0.93795 0.6733 0.0
C353 C 0.14082 0.89504 0.69376 0.0
O354 O 0.18018 0.89484 0.67126 0.0
Co355 Co 0.17469 0.87472 0.71178 0.0
O356 O 0.1827 0.86381 0.68471 0.0
C357 C 0.1986 0.91045 0.72298 0.0
C358 C 0.16549 0.94938 0.68637 0.0
C359 C 0.18445 0.876 0.66985 0.0
O360 O 0.19382 0.91894 0.70608 0.0
O361 O 0.1904 0.89402 0.72917 0.0
O362 O 0.14143 0.90815 0.67902 0.0
O363 O 0.15529 0.89637 0.70677 0.0
Co364 Co 0.07382 0.17812 0.69435 0.0
O365 O 0.04841 0.1693 0.7061 0.0
O366 O 0.05197 0.18617 0.67731 0.0
C367 C 0.09258 0.14997 0.69822 0.0
O368 O 0.09577 0.18885 0.67611 0.0
Co369 Co 0.11429 0.18237 0.71771 0.0
O370 O 0.12649 0.18771 0.69056 0.0
C371 C 0.08051 0.20983 0.72643 0.0
C372 C 0.03997 0.17816 0.69058 0.0
C373 C 0.11503 0.19067 0.6753 0.0
O374 O 0.07188 0.20443 0.70981 0.0
O375 O 0.09629 0.20107 0.73348 0.0
O376 O 0.07953 0.15118 0.68345 0.0
O377 O 0.09181 0.16438 0.71139 0.0
Co378 Co 0.81165 0.07484 0.68584 0.0
O379 O 0.82082 0.04873 0.69558 0.0
O380 O 0.80204 0.05384 0.66825 0.0
C381 C 0.84062 0.0927 0.68925 0.0
O382 O 0.80012 0.09784 0.66933 0.0
Co383 Co 0.81003 0.11444 0.71101 0.0
O384 O 0.8056 0.12788 0.68427 0.0
C385 C 0.78331 0.08019 0.72093 0.0
C386 C 0.81086 0.04111 0.68028 0.0
C387 C 0.80078 0.11723 0.66888 0.0
O388 O 0.7866 0.07247 0.70329 0.0
O389 O 0.79284 0.09571 0.72763 0.0
O390 O 0.83807 0.08087 0.67362 0.0
O391 O 0.82678 0.09161 0.70292 0.0
Co392 Co 0.91427 0.18007 0.29936 0.0
O393 O 0.93995 0.17053 0.28887 0.0
O394 O 0.9358 0.18926 0.31652 0.0
C395 C 0.89588 0.1513 0.29608 0.0
O396 O 0.89196 0.19156 0.3167 0.0
Co397 Co 0.87372 0.18223 0.27566 0.0
O398 O 0.86142 0.18548 0.30311 0.0
C399 C 0.90744 0.20942 0.26526 0.0
C400 C 0.94798 0.17996 0.3043 0.0
C401 C 0.87268 0.19036 0.31801 0.0
O402 O 0.91621 0.20546 0.28226 0.0
O403 O 0.89164 0.20012 0.25898 0.0
O404 O 0.90839 0.15338 0.31124 0.0
O405 O 0.89679 0.16539 0.28267 0.0
Co406 Co 0.80564 0.91781 0.30418 0.0
O407 O 0.8133 0.94372 0.29273 0.0
O408 O 0.79807 0.9393 0.32227 0.0
C409 C 0.83441 0.90032 0.29741 0.0
O410 O 0.7962 0.89484 0.32225 0.0
Co411 Co 0.80223 0.87719 0.28053 0.0
O412 O 0.80536 0.86529 0.30817 0.0
C413 C 0.77281 0.91024 0.27368 0.0
C414 C 0.8053 0.95174 0.30892 0.0
C415 C 0.80035 0.87591 0.3235 0.0
O416 O 0.77861 0.91944 0.28989 0.0
O417 O 0.78139 0.89433 0.26664 0.0
O418 O 0.83365 0.91246 0.31299 0.0
O419 O 0.81879 0.90088 0.28578 0.0
Co420 Co 0.07309 0.81111 0.29781 0.0
O421 O 0.04875 0.82057 0.28453 0.0
O422 O 0.04992 0.80426 0.31386 0.0
C423 C 0.09318 0.83845 0.29407 0.0
O424 O 0.09405 0.80024 0.31738 0.0
Co425 Co 0.11411 0.80486 0.27574 0.0
O426 O 0.12518 0.8014 0.30363 0.0
C427 C 0.079 0.77975 0.26554 0.0
C428 C 0.03906 0.8125 0.29973 0.0
C429 C 0.11337 0.799 0.31871 0.0
O430 O 0.07083 0.78458 0.28258 0.0
O431 O 0.09521 0.78803 0.25894 0.0
O432 O 0.07935 0.83828 0.30817 0.0
O433 O 0.09222 0.82367 0.28134 0.0
Co434 Co 0.17794 0.07386 0.30121 0.0
O435 O 0.17248 0.04873 0.28725 0.0
O436 O 0.18401 0.05151 0.3187 0.0
C437 C 0.14965 0.09068 0.29187 0.0
O438 O 0.18442 0.09596 0.32168 0.0
Co439 Co 0.18284 0.11581 0.28044 0.0
O440 O 0.17806 0.12657 0.30827 0.0
C441 C 0.21319 0.08341 0.27467 0.0
C442 C 0.17868 0.03988 0.30376 0.0
C443 C 0.18119 0.11506 0.32343 0.0
O444 O 0.20637 0.07366 0.29009 0.0
O445 O 0.20485 0.09936 0.26747 0.0
O446 O 0.14899 0.07781 0.30684 0.0
O447 O 0.1666 0.09141 0.28235 0.0
Co448 Co 0.68926 0.91825 0.80907 0.0
O449 O 0.70016 0.94441 0.81699 0.0
O450 O 0.67108 0.93925 0.80105 0.0
C451 C 0.69513 0.90006 0.83743 0.0
O452 O 0.67142 0.89546 0.79936 0.0
Co453 Co 0.71356 0.8783 0.80486 0.0
O454 O 0.68639 0.86513 0.80261 0.0
C455 C 0.72174 0.91295 0.77818 0.0
C456 C 0.68411 0.95201 0.80827 0.0
C457 C 0.67079 0.87608 0.79957 0.0
O458 O 0.70423 0.92036 0.78248 0.0
O459 O 0.72914 0.89745 0.78716 0.0
O460 O 0.6797 0.9124 0.83664 0.0
O461 O 0.70743 0.90121 0.82238 0.0
Co462 Co 0.07348 0.69111 0.81295 0.0
O463 O 0.05033 0.70864 0.81815 0.0
O464 O 0.04944 0.67546 0.81272 0.0
C465 C 0.09557 0.70215 0.83666 0.0
O466 O 0.09182 0.6671 0.80805 0.0
Co467 Co 0.11591 0.70472 0.79829 0.0
O468 O 0.12383 0.67586 0.80087 0.0
C469 C 0.08052 0.70872 0.77175 0.0
C470 C 0.03961 0.69218 0.81547 0.0
C471 C 0.11032 0.66262 0.80456 0.0
O472 O 0.07019 0.6968 0.78313 0.0
O473 O 0.09823 0.71513 0.77616 0.0
O474 O 0.08077 0.69003 0.84163 0.0
O475 O 0.09483 0.70907 0.81843 0.0
Co476 Co 0.30094 0.06555 0.81171 0.0
O477 O 0.28892 0.04021 0.82006 0.0
O478 O 0.31805 0.04362 0.80372 0.0
C479 C 0.29627 0.08389 0.84011 0.0
O480 O 0.3195 0.08747 0.80147 0.0
Co481 Co 0.27797 0.10631 0.80784 0.0
O482 O 0.30519 0.11828 0.80243 0.0
C483 C 0.26876 0.0724 0.7806 0.0
C484 C 0.30454 0.03169 0.81145 0.0
C485 C 0.32043 0.10674 0.79969 0.0
O486 O 0.28569 0.06393 0.78526 0.0
O487 O 0.26183 0.088 0.78979 0.0
O488 O 0.31129 0.0711 0.83897 0.0
O489 O 0.28364 0.08333 0.8253 0.0
Co490 Co 0.92296 0.30817 0.81632 0.0
O491 O 0.94838 0.29671 0.82533 0.0
O492 O 0.94492 0.32492 0.80749 0.0
C493 C 0.9046 0.30482 0.84497 0.0
O494 O 0.90099 0.32625 0.80516 0.0
Co495 Co 0.8823 0.28481 0.81372 0.0
O496 O 0.87031 0.31175 0.80709 0.0
C497 C 0.91627 0.27392 0.78733 0.0
C498 C 0.9569 0.31192 0.816 0.0
C499 C 0.8817 0.32695 0.80353 0.0
O500 O 0.92451 0.29133 0.7907 0.0
O501 O 0.90078 0.26751 0.79702 0.0
O502 O 0.91727 0.31988 0.84311 0.0
O503 O 0.90529 0.29151 0.83077 0.0
Co504 Co 0.6876 0.06987 0.17784 0.0
O505 O 0.69945 0.04391 0.171 0.0
O506 O 0.66991 0.04848 0.18623 0.0
C507 C 0.69327 0.08691 0.14873 0.0
O508 O 0.66894 0.09278 0.18613 0.0
Co509 Co 0.71133 0.11021 0.18093 0.0
O510 O 0.68409 0.12306 0.18253 0.0
C511 C 0.71926 0.07746 0.20963 0.0
C512 C 0.68335 0.03599 0.17927 0.0
C513 C 0.66843 0.11219 0.18552 0.0
O514 O 0.70213 0.06932 0.20492 0.0
O515 O 0.72676 0.09251 0.20003 0.0
O516 O 0.67835 0.07401 0.14989 0.0
O517 O 0.70547 0.08682 0.16398 0.0
Co518 Co 0.91621 0.68439 0.17439 0.0
O519 O 0.94203 0.69514 0.16497 0.0
O520 O 0.93778 0.66755 0.1835 0.0
C521 C 0.89743 0.68735 0.14582 0.0
O522 O 0.89456 0.66648 0.18625 0.0
Co523 Co 0.87523 0.70657 0.17752 0.0
O524 O 0.86341 0.67963 0.18473 0.0
C525 C 0.90986 0.71934 0.20239 0.0
C526 C 0.95013 0.68002 0.17487 0.0
C527 C 0.8754 0.66493 0.18829 0.0
O528 O 0.91833 0.70198 0.19945 0.0
O529 O 0.89384 0.72489 0.19301 0.0
O530 O 0.90999 0.67222 0.14791 0.0
O531 O 0.89819 0.70082 0.15989 0.0
Co532 Co 0.29618 0.92097 0.17258 0.0
O533 O 0.28523 0.94612 0.16195 0.0
O534 O 0.31254 0.94328 0.1812 0.0
C535 C 0.29467 0.90103 0.14487 0.0
O536 O 0.31352 0.89944 0.1856 0.0
Co537 Co 0.27272 0.88036 0.17599 0.0
O538 O 0.29977 0.86852 0.18258 0.0
C539 C 0.26197 0.91468 0.20218 0.0
C540 C 0.30007 0.95497 0.17158 0.0
C541 C 0.31461 0.88012 0.18694 0.0
O542 O 0.27862 0.92367 0.19745 0.0
O543 O 0.25579 0.89848 0.19346 0.0
O544 O 0.30917 0.91431 0.14677 0.0
O545 O 0.28038 0.90238 0.15808 0.0
Co546 Co 0.0713 0.29382 0.1763 0.0
O547 O 0.04667 0.28109 0.16639 0.0
O548 O 0.04907 0.31119 0.18141 0.0
C549 C 0.0926 0.28794 0.15041 0.0
O550 O 0.09199 0.31339 0.18739 0.0
Co551 Co 0.1111 0.27202 0.18685 0.0
O552 O 0.12259 0.2995 0.192 0.0
C553 C 0.0735 0.26208 0.20773 0.0
C554 C 0.03772 0.29708 0.17391 0.0
C555 C 0.11079 0.31477 0.19176 0.0
O556 O 0.0669 0.27981 0.2031 0.0
O557 O 0.09007 0.25506 0.20061 0.0
O558 O 0.07924 0.30246 0.14914 0.0
O559 O 0.09072 0.27611 0.16583 0.0
Co560 Co 0.81684 0.68472 0.92253 0.0
O561 O 0.82314 0.6976 0.94817 0.0
O562 O 0.8066 0.66865 0.94432 0.0
C563 C 0.84691 0.68826 0.90668 0.0
O564 O 0.80832 0.66527 0.90034 0.0
Co565 Co 0.81722 0.70634 0.88091 0.0
O566 O 0.81242 0.67877 0.86944 0.0
C567 C 0.78724 0.7174 0.91163 0.0
C568 C 0.81355 0.68243 0.95646 0.0
C569 C 0.80839 0.66383 0.88099 0.0
O570 O 0.79065 0.70064 0.92106 0.0
O571 O 0.79803 0.72358 0.8968 0.0
O572 O 0.84433 0.67376 0.91986 0.0
O573 O 0.83236 0.70115 0.90555 0.0
Co574 Co 0.80736 0.29721 0.071 0.0
O575 O 0.81657 0.2865 0.0453 0.0
O576 O 0.7944 0.31138 0.04932 0.0
C577 C 0.83752 0.29944 0.08678 0.0
O578 O 0.79493 0.31412 0.09335 0.0
Co579 Co 0.81197 0.27609 0.11265 0.0
O580 O 0.80519 0.30329 0.12386 0.0
C581 C 0.78309 0.26007 0.08248 0.0
C582 C 0.80451 0.29982 0.0371 0.0
C583 C 0.79724 0.31667 0.11245 0.0
O584 O 0.78487 0.27637 0.07182 0.0
O585 O 0.79392 0.25659 0.09815 0.0
O586 O 0.83203 0.3135 0.07406 0.0
O587 O 0.8257 0.28397 0.0879 0.0
Co588 Co 0.68565 0.8109 0.06981 0.0
O589 O 0.70395 0.81517 0.04712 0.0
O590 O 0.671 0.80909 0.045 0.0
C591 C 0.69697 0.83606 0.09038 0.0
O592 O 0.66089 0.80661 0.08758 0.0
Co593 Co 0.69646 0.80077 0.11432 0.0
O594 O 0.66875 0.81097 0.12023 0.0
C595 C 0.70225 0.77036 0.08163 0.0
C596 C 0.68807 0.81192 0.0358 0.0
C597 C 0.65584 0.81031 0.10595 0.0
O598 O 0.69215 0.78103 0.06882 0.0
O599 O 0.70636 0.77615 0.09968 0.0
O600 O 0.68449 0.8402 0.07561 0.0
O601 O 0.70295 0.81757 0.09111 0.0
Co602 Co 0.17614 0.68694 0.07198 0.0
O603 O 0.16813 0.70016 0.04711 0.0
O604 O 0.18329 0.67029 0.04934 0.0
C605 C 0.14802 0.6921 0.09059 0.0
O606 O 0.18567 0.66722 0.09344 0.0
Co607 Co 0.18067 0.70838 0.11365 0.0
O608 O 0.18097 0.68017 0.12457 0.0
C609 C 0.20817 0.71796 0.07999 0.0
C610 C 0.17587 0.68445 0.03794 0.0
C611 C 0.18442 0.66532 0.11271 0.0
O612 O 0.2031 0.70144 0.07087 0.0
O613 O 0.19938 0.72443 0.096 0.0
O614 O 0.14839 0.67762 0.07713 0.0
O615 O 0.16336 0.70411 0.0903 0.0
Co616 Co 0.30167 0.17441 0.06935 0.0
O617 O 0.29046 0.1631 0.0446 0.0
O618 O 0.31895 0.18063 0.0472 0.0
C619 C 0.29772 0.14781 0.09041 0.0
O620 O 0.31982 0.18737 0.09004 0.0
Co621 Co 0.279 0.18179 0.10967 0.0
O622 O 0.30638 0.18766 0.12115 0.0
C623 C 0.26907 0.20574 0.0735 0.0
C624 C 0.3062 0.17117 0.03572 0.0
C625 C 0.32129 0.19004 0.10912 0.0
O626 O 0.28574 0.2002 0.06503 0.0
O627 O 0.26262 0.19822 0.09013 0.0
O628 O 0.31275 0.14817 0.07763 0.0
O629 O 0.28465 0.16214 0.08843 0.0
Co630 Co 0.17819 0.29604 0.91509 0.0
O631 O 0.16896 0.28505 0.94067 0.0
O632 O 0.18531 0.31411 0.93646 0.0
C633 C 0.15086 0.29101 0.89541 0.0
O634 O 0.18899 0.31384 0.89276 0.0
Co635 Co 0.18421 0.27134 0.87563 0.0
O636 O 0.1881 0.29825 0.8625 0.0
C637 C 0.20949 0.26361 0.91112 0.0
C638 C 0.1772 0.30116 0.94873 0.0
C639 C 0.19048 0.31399 0.87345 0.0
O640 O 0.20465 0.28108 0.91832 0.0
O641 O 0.20103 0.25588 0.89551 0.0
O642 O 0.15118 0.30596 0.90837 0.0
O643 O 0.16541 0.27814 0.89725 0.0
Co644 Co 0.68757 0.1792 0.9123 0.0
O645 O 0.6992 0.17154 0.93807 0.0
O646 O 0.67061 0.1886 0.93392 0.0
C647 C 0.69205 0.1495 0.8958 0.0
O648 O 0.66953 0.18909 0.88945 0.0
Co649 Co 0.71023 0.17961 0.87112 0.0
O650 O 0.68215 0.17832 0.85984 0.0
C651 C 0.72025 0.20929 0.90316 0.0
C652 C 0.68374 0.18071 0.94622 0.0
C653 C 0.66748 0.18468 0.87064 0.0
O654 O 0.7037 0.2052 0.91264 0.0
O655 O 0.72632 0.19956 0.88751 0.0
O656 O 0.67676 0.1517 0.90811 0.0
O657 O 0.70463 0.16435 0.89554 0.0
Co658 Co 0.2988 0.80918 0.91798 0.0
O659 O 0.28568 0.81458 0.94363 0.0
O660 O 0.31747 0.80449 0.93959 0.0
C661 C 0.28795 0.83622 0.90013 0.0
O662 O 0.31869 0.80319 0.89545 0.0
Co663 Co 0.27654 0.80138 0.87722 0.0
O664 O 0.30395 0.80275 0.86477 0.0
C665 C 0.27312 0.77277 0.91111 0.0
C666 C 0.30279 0.80901 0.9518 0.0
C667 C 0.31958 0.80254 0.87608 0.0
O668 O 0.28914 0.78019 0.91937 0.0
O669 O 0.2645 0.78056 0.89562 0.0
O670 O 0.303 0.83819 0.91281 0.0
O671 O 0.27886 0.81901 0.90067 0.0
Co672 Co 0.80422 0.57063 0.80814 0.0
O673 O 0.78724 0.54721 0.81331 0.0
O674 O 0.8185 0.54646 0.80111 0.0
C675 C 0.7981 0.58865 0.83674 0.0
O676 O 0.82741 0.58965 0.80151 0.0
Co677 Co 0.78925 0.61493 0.8037 0.0
O678 O 0.81837 0.62179 0.80793 0.0
C679 C 0.77721 0.5834 0.77455 0.0
C680 C 0.80227 0.5366 0.80605 0.0
C681 C 0.83178 0.60827 0.80488 0.0
O682 O 0.79232 0.57236 0.78003 0.0
O683 O 0.7723 0.5999 0.78347 0.0
O684 O 0.81099 0.57366 0.83711 0.0
O685 O 0.78824 0.59054 0.82007 0.0
Co686 Co 0.19701 0.41343 0.80749 0.0
O687 O 0.2041 0.43812 0.82188 0.0
O688 O 0.17937 0.43471 0.79945 0.0
C689 C 0.19856 0.39191 0.83414 0.0
O690 O 0.18349 0.39216 0.78997 0.0
Co691 Co 0.22128 0.37398 0.80226 0.0
O692 O 0.19346 0.36187 0.80059 0.0
C693 C 0.23439 0.41211 0.78211 0.0
C694 C 0.18916 0.44631 0.81185 0.0
C695 C 0.17976 0.37355 0.79376 0.0
O696 O 0.21704 0.42036 0.7855 0.0
O697 O 0.23924 0.39448 0.78865 0.0
O698 O 0.18261 0.40323 0.83135 0.0
O699 O 0.21314 0.39485 0.82154 0.0
Co700 Co 0.18991 0.56736 0.17797 0.0
O701 O 0.20124 0.54212 0.16792 0.0
O702 O 0.17381 0.545 0.18698 0.0
C703 C 0.19215 0.58628 0.14952 0.0
O704 O 0.17175 0.5889 0.19018 0.0
Co705 Co 0.21172 0.60896 0.18045 0.0
O706 O 0.18397 0.62013 0.18451 0.0
C707 C 0.22533 0.57433 0.20516 0.0
C708 C 0.18642 0.53329 0.17758 0.0
C709 C 0.1696 0.6082 0.18937 0.0
O710 O 0.20807 0.56548 0.20269 0.0
O711 O 0.23025 0.59059 0.19581 0.0
O712 O 0.17733 0.57335 0.1516 0.0
O713 O 0.20567 0.58567 0.16347 0.0
Co714 Co 0.7973 0.41581 0.17733 0.0
O715 O 0.78032 0.43899 0.17126 0.0
O716 O 0.81302 0.43991 0.17943 0.0
C717 C 0.78805 0.3944 0.15222 0.0
O718 O 0.82053 0.39691 0.18364 0.0
Co719 Co 0.78128 0.37359 0.19009 0.0
O720 O 0.81012 0.36504 0.18949 0.0
C721 C 0.77467 0.40902 0.21582 0.0
C722 C 0.79654 0.4496 0.17521 0.0
C723 C 0.82406 0.37816 0.18703 0.0
O724 O 0.78912 0.41837 0.20673 0.0
O725 O 0.76775 0.39189 0.21002 0.0
O726 O 0.80073 0.40912 0.14859 0.0
O727 O 0.77965 0.39491 0.16983 0.0
Co728 Co 0.30285 0.57123 0.68747 0.0
O729 O 0.31129 0.54525 0.69795 0.0
O730 O 0.29341 0.55019 0.66981 0.0
C731 C 0.33238 0.58808 0.69215 0.0
O732 O 0.29219 0.59435 0.67046 0.0
Co733 Co 0.3018 0.6118 0.71114 0.0
O734 O 0.3036 0.62362 0.68328 0.0
C735 C 0.27248 0.57912 0.72033 0.0
C736 C 0.30191 0.5377 0.68229 0.0
C737 C 0.29721 0.61298 0.6685 0.0
O738 O 0.27713 0.56977 0.70385 0.0
O739 O 0.28173 0.59499 0.72664 0.0
O740 O 0.33007 0.57626 0.67646 0.0
O741 O 0.31766 0.58783 0.70488 0.0
Co742 Co 0.66831 0.42125 0.69333 0.0
O743 O 0.66638 0.44754 0.70599 0.0
O744 O 0.6823 0.441 0.67719 0.0
C745 C 0.63566 0.41173 0.69716 0.0
O746 O 0.67324 0.3975 0.67442 0.0
Co747 Co 0.65894 0.37994 0.71374 0.0
O748 O 0.65802 0.36922 0.6855 0.0
C749 C 0.69643 0.40259 0.724 0.0
C750 C 0.67709 0.45418 0.69082 0.0
C751 C 0.66686 0.37932 0.67166 0.0
O752 O 0.69356 0.41526 0.70944 0.0
O753 O 0.68375 0.38869 0.72877 0.0
O754 O 0.64074 0.42361 0.68224 0.0
O755 O 0.64993 0.40759 0.70971 0.0
Co756 Co 0.30683 0.42119 0.30324 0.0
O757 O 0.31222 0.4478 0.29243 0.0
O758 O 0.29529 0.44134 0.32076 0.0
C759 C 0.33798 0.40765 0.29888 0.0
O760 O 0.29851 0.39714 0.32037 0.0
Co761 Co 0.31062 0.38076 0.27946 0.0
O762 O 0.31079 0.36837 0.30708 0.0
C763 C 0.27885 0.4107 0.26931 0.0
C764 C 0.30216 0.45459 0.30802 0.0
C765 C 0.30325 0.37837 0.32178 0.0
O766 O 0.28142 0.41975 0.28642 0.0
O767 O 0.29025 0.39627 0.26308 0.0
O768 O 0.33431 0.41908 0.3146 0.0
O769 O 0.32347 0.40636 0.28599 0.0
Co770 Co 0.67435 0.56941 0.30167 0.0
O771 O 0.66623 0.5429 0.2922 0.0
O772 O 0.68447 0.54905 0.3197 0.0
C773 C 0.64464 0.58582 0.29744 0.0
O774 O 0.68506 0.59344 0.31762 0.0
Co775 Co 0.67401 0.60886 0.27621 0.0
O776 O 0.67395 0.62219 0.30344 0.0
C777 C 0.70341 0.57631 0.26737 0.0
C778 C 0.67615 0.53585 0.30775 0.0
C779 C 0.68081 0.61239 0.31857 0.0
O780 O 0.69961 0.56781 0.28452 0.0
O781 O 0.69352 0.59158 0.26064 0.0
O782 O 0.64742 0.57448 0.31337 0.0
O783 O 0.65884 0.58499 0.28415 0.0
Co784 Co 0.18826 0.81184 0.57178 0.0
O785 O 0.20141 0.81951 0.54659 0.0
O786 O 0.17083 0.80609 0.54957 0.0
C787 C 0.1955 0.83929 0.59107 0.0
O788 O 0.16799 0.80297 0.5929 0.0
Co789 Co 0.20863 0.8047 0.61332 0.0
O790 O 0.18049 0.80595 0.62431 0.0
C791 C 0.21734 0.778 0.57867 0.0
C792 C 0.18504 0.81262 0.53783 0.0
C793 C 0.16572 0.80376 0.6121 0.0
O794 O 0.20108 0.78406 0.56978 0.0
O795 O 0.22398 0.78582 0.59512 0.0
O796 O 0.18092 0.84006 0.57774 0.0
O797 O 0.20631 0.82309 0.59046 0.0
Co798 Co 0.18503 0.18409 0.41897 0.0
O799 O 0.19453 0.17408 0.44475 0.0
O800 O 0.1689 0.19538 0.44034 0.0
C801 C 0.18516 0.15476 0.40132 0.0
O802 O 0.1692 0.19672 0.39605 0.0
Co803 Co 0.20998 0.18283 0.37921 0.0
O804 O 0.18316 0.18815 0.36627 0.0
C805 C 0.22201 0.21026 0.41218 0.0
C806 C 0.18029 0.18522 0.45269 0.0
C807 C 0.1684 0.19489 0.37675 0.0
O808 O 0.2046 0.20773 0.42065 0.0
O809 O 0.22782 0.20011 0.39671 0.0
O810 O 0.17026 0.1588 0.41361 0.0
O811 O 0.20019 0.1672 0.40209 0.0
Co812 Co 0.3126 0.69024 0.41557 0.0
O813 O 0.32419 0.69895 0.44102 0.0
O814 O 0.30227 0.6738 0.43716 0.0
C815 C 0.34057 0.68998 0.39608 0.0
O816 O 0.29815 0.67548 0.39304 0.0
Co817 Co 0.31196 0.71645 0.37655 0.0
O818 O 0.30458 0.69032 0.36315 0.0
C819 C 0.28609 0.72738 0.41103 0.0
C820 C 0.31316 0.68481 0.44928 0.0
C821 C 0.29824 0.67538 0.37364 0.0
O822 O 0.28957 0.71002 0.41918 0.0
O823 O 0.29526 0.73365 0.39516 0.0
O824 O 0.33695 0.67496 0.40836 0.0
O825 O 0.3288 0.70545 0.39801 0.0
Co826 Co 0.80536 0.807 0.41822 0.0
O827 O 0.79354 0.81463 0.44382 0.0
O828 O 0.82258 0.7982 0.43988 0.0
C829 C 0.80053 0.83617 0.40115 0.0
O830 O 0.82362 0.79761 0.39551 0.0
Co831 Co 0.78129 0.80475 0.37791 0.0
O832 O 0.80853 0.80164 0.36528 0.0
C833 C 0.77267 0.77645 0.41106 0.0
C834 C 0.80912 0.80572 0.45206 0.0
C835 C 0.8241 0.79801 0.37612 0.0
O836 O 0.78995 0.78053 0.4191 0.0
O837 O 0.76548 0.7861 0.39589 0.0
O838 O 0.81576 0.83448 0.41362 0.0
O839 O 0.78788 0.82134 0.40129 0.0
Co840 Co 0.66948 0.29758 0.42169 0.0
O841 O 0.6611 0.28531 0.4471 0.0
O842 O 0.67428 0.31595 0.44338 0.0
C843 C 0.64297 0.2898 0.40161 0.0
O844 O 0.67882 0.3169 0.3999 0.0
Co845 Co 0.67851 0.27482 0.38172 0.0
O846 O 0.68196 0.30216 0.36942 0.0
C847 C 0.70383 0.26853 0.41745 0.0
C848 C 0.66731 0.30218 0.45543 0.0
C849 C 0.68207 0.31774 0.38083 0.0
O850 O 0.69734 0.28531 0.42502 0.0
O851 O 0.69617 0.26041 0.40163 0.0
O852 O 0.64159 0.30462 0.41464 0.0
O853 O 0.65893 0.27873 0.40335 0.0
Co854 Co 0.80405 0.18796 0.57356 0.0
O855 O 0.79044 0.181 0.5485 0.0
O856 O 0.82183 0.19252 0.55119 0.0
C857 C 0.79549 0.16101 0.59287 0.0
O858 O 0.8244 0.19555 0.59518 0.0
Co859 Co 0.78237 0.19687 0.6143 0.0
O860 O 0.81008 0.19705 0.62602 0.0
C861 C 0.77756 0.22443 0.57992 0.0
C862 C 0.80715 0.18667 0.53958 0.0
C863 C 0.82552 0.19711 0.61448 0.0
O864 O 0.79315 0.21658 0.57124 0.0
O865 O 0.76965 0.21735 0.59608 0.0
O866 O 0.80986 0.15946 0.57943 0.0
O867 O 0.78526 0.17764 0.59216 0.0
Co868 Co 0.30659 0.2999 0.57431 0.0
O869 O 0.31974 0.29098 0.54977 0.0
O870 O 0.29626 0.31489 0.55168 0.0
C871 C 0.33398 0.30246 0.59443 0.0
O872 O 0.29044 0.31471 0.5958 0.0
Co873 Co 0.30627 0.27535 0.61434 0.0
O874 O 0.29827 0.30194 0.62627 0.0
C875 C 0.28302 0.26095 0.57909 0.0
C876 C 0.30844 0.30425 0.54052 0.0
C877 C 0.29103 0.316 0.61518 0.0
O878 O 0.28508 0.27838 0.57057 0.0
O879 O 0.29203 0.25619 0.59559 0.0
O880 O 0.32978 0.31688 0.58163 0.0
O881 O 0.32305 0.28635 0.59289 0.0
Co882 Co 0.67263 0.69042 0.57044 0.0
O883 O 0.66365 0.70356 0.54575 0.0
O884 O 0.67849 0.6735 0.5477 0.0
C885 C 0.64566 0.69588 0.59064 0.0
O886 O 0.68286 0.67066 0.59132 0.0
Co887 Co 0.67979 0.71205 0.61168 0.0
O888 O 0.68325 0.68407 0.6226 0.0
C889 C 0.70622 0.72041 0.57697 0.0
C890 C 0.67083 0.68763 0.53645 0.0
C891 C 0.6849 0.66908 0.6105 0.0
O892 O 0.69989 0.70424 0.568 0.0
O893 O 0.69834 0.72737 0.59323 0.0
O894 O 0.64511 0.68147 0.5771 0.0
O895 O 0.66101 0.70782 0.58947 0.0
Co896 Co 0.17628 0.4119 0.19002 0.0
O897 O 0.1692 0.4378 0.20213 0.0
O898 O 0.18285 0.43343 0.17181 0.0
C899 C 0.14839 0.39363 0.19779 0.0
O900 O 0.18464 0.38939 0.17094 0.0
Co901 Co 0.18222 0.37127 0.21285 0.0
O902 O 0.1834 0.35865 0.18545 0.0
C903 C 0.20885 0.40608 0.22035 0.0
C904 C 0.17657 0.44584 0.18563 0.0
C905 C 0.18529 0.37001 0.16999 0.0
O906 O 0.20385 0.4137 0.20313 0.0
O907 O 0.20025 0.39046 0.22792 0.0
O908 O 0.14801 0.40631 0.18262 0.0
O909 O 0.16445 0.39442 0.20876 0.0
Co910 Co 0.80903 0.56894 0.1925 0.0
O911 O 0.81456 0.54307 0.20531 0.0
O912 O 0.80228 0.54752 0.17432 0.0
C913 C 0.83727 0.5867 0.20013 0.0
O914 O 0.80217 0.59126 0.17285 0.0
Co915 Co 0.80337 0.6097 0.21498 0.0
O916 O 0.80251 0.622 0.18745 0.0
C917 C 0.77559 0.57599 0.22177 0.0
C918 C 0.80759 0.53516 0.18856 0.0
C919 C 0.80155 0.6106 0.17191 0.0
O920 O 0.78094 0.56836 0.20464 0.0
O921 O 0.78449 0.59122 0.22978 0.0
O922 O 0.83756 0.57324 0.18564 0.0
O923 O 0.82117 0.58652 0.21118 0.0
Co924 Co 0.80635 0.41565 0.79346 0.0
O925 O 0.81088 0.44033 0.77809 0.0
O926 O 0.79712 0.43845 0.80867 0.0
C927 C 0.83648 0.40018 0.78819 0.0
O928 O 0.80024 0.39531 0.81554 0.0
Co929 Co 0.80645 0.37154 0.77714 0.0
O930 O 0.80833 0.36366 0.80613 0.0
C931 C 0.77223 0.39882 0.76791 0.0
C932 C 0.80277 0.44958 0.79358 0.0
C933 C 0.80378 0.37668 0.8196 0.0
O934 O 0.77874 0.41227 0.78053 0.0
O935 O 0.78192 0.3826 0.76355 0.0
O936 O 0.83496 0.41466 0.80157 0.0
O937 O 0.8206 0.39733 0.77726 0.0
Co938 Co 0.17294 0.56627 0.8029 0.0
O939 O 0.16458 0.54021 0.7928 0.0
O940 O 0.18371 0.54538 0.81999 0.0
C941 C 0.14295 0.58242 0.80016 0.0
O942 O 0.18384 0.58996 0.81912 0.0
Co943 Co 0.17136 0.60618 0.77812 0.0
O944 O 0.17229 0.61891 0.80562 0.0
C945 C 0.20129 0.57453 0.76819 0.0
C946 C 0.17474 0.53268 0.80793 0.0
C947 C 0.17967 0.60891 0.82038 0.0
O948 O 0.19786 0.56551 0.78514 0.0
O949 O 0.19104 0.58972 0.76186 0.0
O950 O 0.14638 0.57063 0.81561 0.0
O951 O 0.15668 0.58212 0.78634 0.0
Co952 Co 0.69351 0.41512 0.31485 0.0
O953 O 0.70311 0.44049 0.32623 0.0
O954 O 0.67703 0.43693 0.30543 0.0
C955 C 0.69468 0.39591 0.34326 0.0
O956 O 0.6776 0.39313 0.30051 0.0
Co957 Co 0.71652 0.37434 0.31295 0.0
O958 O 0.68842 0.36303 0.31154 0.0
C959 C 0.72896 0.40869 0.2869 0.0
C960 C 0.68847 0.4489 0.31597 0.0
C961 C 0.67461 0.37434 0.30426 0.0
O962 O 0.71252 0.4183 0.29112 0.0
O963 O 0.73393 0.3919 0.29529 0.0
O964 O 0.67959 0.40827 0.34022 0.0
O965 O 0.70905 0.39707 0.33013 0.0
Co966 Co 0.2988 0.57375 0.30995 0.0
O967 O 0.27911 0.5533 0.3176 0.0
O968 O 0.31188 0.54814 0.31175 0.0
C969 C 0.29018 0.59851 0.33193 0.0
O970 O 0.32443 0.5894 0.30308 0.0
Co971 Co 0.28845 0.61558 0.2916 0.0
O972 O 0.31768 0.62166 0.29461 0.0
C973 C 0.27873 0.57809 0.26982 0.0
C974 C 0.29427 0.54073 0.31607 0.0
C975 C 0.33005 0.60751 0.29884 0.0
O976 O 0.29162 0.56835 0.28067 0.0
O977 O 0.27392 0.59657 0.27303 0.0
O978 O 0.30132 0.5833 0.33787 0.0
O979 O 0.28302 0.59701 0.31383 0.0
Co980 Co 0.69369 0.5736 0.67597 0.0
O981 O 0.70742 0.54836 0.66931 0.0
O982 O 0.6778 0.55132 0.68497 0.0
C983 C 0.69812 0.59088 0.64685 0.0
O984 O 0.67321 0.59479 0.68444 0.0
Co985 Co 0.71318 0.6162 0.67844 0.0
O986 O 0.68485 0.6265 0.68065 0.0
C987 C 0.72559 0.58369 0.70603 0.0
C988 C 0.69215 0.5397 0.67839 0.0
C989 C 0.67052 0.614 0.68398 0.0
O990 O 0.70874 0.57445 0.70263 0.0
O991 O 0.73116 0.59943 0.69621 0.0
O992 O 0.68399 0.57706 0.64803 0.0
O993 O 0.71011 0.59178 0.66215 0.0
Co994 Co 0.3036 0.41774 0.67715 0.0
O995 O 0.28493 0.4393 0.67003 0.0
O996 O 0.31814 0.44241 0.67392 0.0
C997 C 0.29171 0.39314 0.65621 0.0
O998 O 0.32864 0.40099 0.68354 0.0
Co999 Co 0.29199 0.37705 0.69698 0.0
O1000 O 0.32127 0.37092 0.69752 0.0
C1001 C 0.28502 0.41551 0.71787 0.0
C1002 C 0.30084 0.45104 0.67064 0.0
C1003 C 0.33397 0.38397 0.69119 0.0
O1004 O 0.29829 0.42422 0.7066 0.0
O1005 O 0.27877 0.39743 0.71489 0.0
O1006 O 0.30378 0.4072 0.64932 0.0
O1007 O 0.2861 0.39544 0.67474 0.0
Co1008 Co 0.80938 0.19522 0.41822 0.0
O1009 O 0.81946 0.20857 0.44239 0.0
O1010 O 0.80372 0.1788 0.44133 0.0
C1011 C 0.83577 0.19989 0.39712 0.0
O1012 O 0.79831 0.1752 0.39781 0.0
Co1013 Co 0.80055 0.2164 0.37737 0.0
O1014 O 0.79783 0.18832 0.36645 0.0
C1015 C 0.77708 0.22657 0.41354 0.0
C1016 C 0.81205 0.19298 0.45203 0.0
C1017 C 0.79653 0.17336 0.37858 0.0
O1018 O 0.7826 0.20968 0.42158 0.0
O1019 O 0.78438 0.23312 0.39685 0.0
O1020 O 0.83653 0.18579 0.41093 0.0
O1021 O 0.8206 0.21209 0.39853 0.0
Co1022 Co 0.81125 0.79589 0.57354 0.0
O1023 O 0.82096 0.78226 0.54936 0.0
O1024 O 0.80476 0.81168 0.55032 0.0
C1025 C 0.83838 0.79259 0.59394 0.0
O1026 O 0.8003 0.81613 0.59376 0.0
Co1027 Co 0.80424 0.7756 0.61514 0.0
O1028 O 0.80127 0.80388 0.62544 0.0
C1029 C 0.77933 0.76422 0.58028 0.0
C1030 C 0.81323 0.79761 0.53959 0.0
C1031 C 0.79919 0.81846 0.61298 0.0
O1032 O 0.78466 0.78071 0.57132 0.0
O1033 O 0.78718 0.7583 0.59696 0.0
O1034 O 0.83831 0.80627 0.5797 0.0
O1035 O 0.82356 0.77986 0.5933 0.0
Co1036 Co 0.68585 0.31245 0.57549 0.0
O1037 O 0.69112 0.32485 0.5496 0.0
O1038 O 0.67103 0.2984 0.55477 0.0
C1039 C 0.68064 0.3408 0.59391 0.0
O1040 O 0.67513 0.29609 0.59896 0.0
Co1041 Co 0.71245 0.31829 0.61374 0.0
O1042 O 0.68712 0.30955 0.62772 0.0
C1043 C 0.72722 0.29264 0.5803 0.0
C1044 C 0.67893 0.3112 0.54214 0.0
C1045 C 0.67379 0.29947 0.61802 0.0
O1046 O 0.7097 0.29357 0.57176 0.0
O1047 O 0.73177 0.30282 0.59619 0.0
O1048 O 0.66628 0.33363 0.58243 0.0
O1049 O 0.69803 0.33203 0.59203 0.0
Co1050 Co 0.1759 0.18953 0.57404 0.0
O1051 O 0.16837 0.20539 0.55049 0.0
O1052 O 0.17691 0.17291 0.5504 0.0
C1053 C 0.15169 0.19928 0.59608 0.0
O1054 O 0.18327 0.16716 0.59373 0.0
Co1055 Co 0.19 0.20752 0.61516 0.0
O1056 O 0.18895 0.17918 0.6251 0.0
C1057 C 0.21496 0.21213 0.57876 0.0
C1058 C 0.17187 0.18887 0.54017 0.0
C1059 C 0.18659 0.16458 0.61269 0.0
O1060 O 0.20505 0.19793 0.56981 0.0
O1061 O 0.21002 0.21947 0.59597 0.0
O1062 O 0.14762 0.18597 0.58204 0.0
O1063 O 0.16908 0.20798 0.59447 0.0
Co1064 Co 0.29756 0.67645 0.57031 0.0
O1065 O 0.28689 0.66774 0.54427 0.0
O1066 O 0.31531 0.68486 0.54912 0.0
C1067 C 0.29298 0.64789 0.58849 0.0
O1068 O 0.31534 0.687 0.59289 0.0
Co1069 Co 0.27378 0.67949 0.61068 0.0
O1070 O 0.30103 0.68272 0.6234 0.0
C1071 C 0.26434 0.70677 0.57675 0.0
C1072 C 0.3028 0.67656 0.5365 0.0
C1073 C 0.31626 0.68673 0.61224 0.0
O1074 O 0.28145 0.70253 0.56834 0.0
O1075 O 0.25763 0.69746 0.59236 0.0
O1076 O 0.30831 0.64934 0.57612 0.0
O1077 O 0.28008 0.66245 0.58751 0.0
Co1078 Co 0.17983 0.80145 0.41663 0.0
O1079 O 0.17141 0.78861 0.44154 0.0
O1080 O 0.18534 0.81914 0.43893 0.0
C1081 C 0.15284 0.79426 0.39685 0.0
O1082 O 0.18928 0.82084 0.39506 0.0
Co1083 Co 0.18787 0.77871 0.37622 0.0
O1084 O 0.19115 0.80627 0.36435 0.0
C1085 C 0.21401 0.77223 0.41149 0.0
C1086 C 0.17823 0.80492 0.45042 0.0
C1087 C 0.19195 0.82174 0.3759 0.0
O1088 O 0.20751 0.78876 0.4195 0.0
O1089 O 0.20638 0.7644 0.39549 0.0
O1090 O 0.1519 0.80909 0.40991 0.0
O1091 O 0.16876 0.7831 0.39815 0.0
Co1092 Co 0.68628 0.6803 0.41543 0.0
O1093 O 0.69462 0.66953 0.4414 0.0
O1094 O 0.6695 0.69119 0.43641 0.0
C1095 C 0.68652 0.6516 0.39685 0.0
O1096 O 0.67155 0.694 0.39251 0.0
Co1097 Co 0.71228 0.68004 0.37634 0.0
O1098 O 0.68658 0.68814 0.36261 0.0
C1099 C 0.72349 0.70642 0.41042 0.0
C1100 C 0.68025 0.68074 0.44906 0.0
C1101 C 0.67165 0.69439 0.37313 0.0
O1102 O 0.70598 0.70355 0.41852 0.0
O1103 O 0.72969 0.69666 0.39487 0.0
O1104 O 0.67128 0.65556 0.40874 0.0
O1105 O 0.70178 0.66368 0.39844 0.0
Co1106 Co 0.30205 0.31305 0.41888 0.0
O1107 O 0.28927 0.32082 0.44411 0.0
O1108 O 0.31899 0.30556 0.44111 0.0
C1109 C 0.2968 0.34152 0.40079 0.0
O1110 O 0.32156 0.30391 0.39702 0.0
Co1111 Co 0.27963 0.30875 0.37786 0.0
O1112 O 0.30737 0.30636 0.36622 0.0
C1113 C 0.27094 0.28079 0.41125 0.0
C1114 C 0.30507 0.31284 0.45287 0.0
C1115 C 0.32272 0.30374 0.37765 0.0
O1116 O 0.28763 0.28595 0.41997 0.0
O1117 O 0.26396 0.28977 0.39558 0.0
O1118 O 0.3115 0.34075 0.41395 0.0
O1119 O 0.2846 0.3263 0.40095 0.0
Co1120 Co 0.56878 0.18897 0.80566 0.0
O1121 O 0.5439 0.19978 0.81673 0.0
O1122 O 0.5464 0.17315 0.79637 0.0
C1123 C 0.58825 0.18982 0.83373 0.0
O1124 O 0.59008 0.17161 0.79213 0.0
Co1125 Co 0.60949 0.2119 0.80287 0.0
O1126 O 0.62112 0.18477 0.79621 0.0
C1127 C 0.57373 0.22592 0.78028 0.0
C1128 C 0.5349 0.1855 0.80639 0.0
C1129 C 0.60939 0.17019 0.7914 0.0
O1130 O 0.56592 0.20809 0.78187 0.0
O1131 O 0.59013 0.23099 0.7893 0.0
O1132 O 0.57544 0.17501 0.83103 0.0
O1133 O 0.58731 0.20425 0.82067 0.0
Co1134 Co 0.41665 0.79809 0.80941 0.0
O1135 O 0.4426 0.7886 0.8192 0.0
O1136 O 0.43785 0.81515 0.79923 0.0
C1137 C 0.39833 0.79643 0.83813 0.0
O1138 O 0.39341 0.81401 0.79731 0.0
Co1139 Co 0.37754 0.77194 0.80876 0.0
O1140 O 0.36379 0.79827 0.80318 0.0
C1141 C 0.4116 0.76171 0.78225 0.0
C1142 C 0.4504 0.80347 0.8088 0.0
C1143 C 0.374 0.81376 0.7978 0.0
O1144 O 0.41903 0.77958 0.78502 0.0
O1145 O 0.39638 0.75498 0.79214 0.0
O1146 O 0.4107 0.81157 0.83523 0.0
O1147 O 0.39982 0.78187 0.8252 0.0
Co1148 Co 0.5663 0.80151 0.17604 0.0
O1149 O 0.53907 0.79506 0.16799 0.0
O1150 O 0.54748 0.8166 0.19246 0.0
C1151 C 0.57926 0.80514 0.14452 0.0
O1152 O 0.59187 0.81356 0.1881 0.0
Co1153 Co 0.60424 0.77629 0.16517 0.0
O1154 O 0.61803 0.80292 0.16949 0.0
C1155 C 0.57547 0.76112 0.196 0.0
C1156 C 0.53339 0.80775 0.18198 0.0
C1157 C 0.60979 0.81604 0.18105 0.0
O1158 O 0.56624 0.77836 0.19611 0.0
O1159 O 0.58999 0.75702 0.18381 0.0
O1160 O 0.56925 0.81997 0.15287 0.0
O1161 O 0.57961 0.78852 0.15476 0.0
Co1162 Co 0.41884 0.19334 0.17461 0.0
O1163 O 0.44404 0.20628 0.1666 0.0
O1164 O 0.44101 0.17604 0.18079 0.0
C1165 C 0.39964 0.19972 0.14709 0.0
O1166 O 0.3976 0.17322 0.18374 0.0
Co1167 Co 0.3775 0.21415 0.1814 0.0
O1168 O 0.36623 0.18614 0.18236 0.0
C1169 C 0.4125 0.22414 0.2068 0.0
C1170 C 0.45278 0.19001 0.17374 0.0
C1171 C 0.37833 0.17124 0.18416 0.0
O1172 O 0.42082 0.20714 0.20195 0.0
O1173 O 0.39632 0.23069 0.19844 0.0
O1174 O 0.41301 0.18516 0.14666 0.0
O1175 O 0.40023 0.21109 0.16292 0.0
Co1176 Co 0.4206 0.31248 0.6855 0.0
O1177 O 0.44825 0.3152 0.69449 0.0
O1178 O 0.43828 0.30017 0.66598 0.0
C1179 C 0.40994 0.34446 0.69205 0.0
O1180 O 0.39467 0.30696 0.67013 0.0
Co1181 Co 0.38281 0.31823 0.71283 0.0
O1182 O 0.36773 0.31951 0.68662 0.0
C1183 C 0.41011 0.2833 0.71861 0.0
C1184 C 0.45289 0.30537 0.67801 0.0
C1185 C 0.37599 0.31217 0.67079 0.0
O1186 O 0.41822 0.28637 0.70113 0.0
O1187 O 0.39737 0.29546 0.72673 0.0
O1188 O 0.42003 0.34062 0.67551 0.0
O1189 O 0.40859 0.32951 0.70445 0.0
Co1190 Co 0.57057 0.67589 0.68951 0.0
O1191 O 0.54483 0.66615 0.69999 0.0
O1192 O 0.549 0.68454 0.67228 0.0
C1193 C 0.58988 0.64771 0.69273 0.0
O1194 O 0.59274 0.68788 0.67219 0.0
Co1195 Co 0.61085 0.67943 0.71336 0.0
O1196 O 0.62329 0.68219 0.68591 0.0
C1197 C 0.57631 0.70555 0.72363 0.0
C1198 C 0.5367 0.6757 0.68469 0.0
C1199 C 0.61205 0.68696 0.67098 0.0
O1200 O 0.5679 0.7013 0.70652 0.0
O1201 O 0.59232 0.69672 0.73001 0.0
O1202 O 0.57712 0.64931 0.67773 0.0
O1203 O 0.58843 0.66171 0.70626 0.0
Co1204 Co 0.57244 0.31701 0.29922 0.0
O1205 O 0.54833 0.32735 0.28609 0.0
O1206 O 0.54923 0.31042 0.31508 0.0
C1207 C 0.59305 0.34406 0.296 0.0
O1208 O 0.59245 0.30506 0.31881 0.0
Co1209 Co 0.61408 0.31021 0.27877 0.0
O1210 O 0.62404 0.30342 0.30651 0.0
C1211 C 0.57891 0.28569 0.26714 0.0
C1212 C 0.53852 0.31922 0.30121 0.0
C1213 C 0.61134 0.30149 0.32091 0.0
O1214 O 0.56981 0.29082 0.28359 0.0
O1215 O 0.59555 0.29369 0.2613 0.0
O1216 O 0.57935 0.34371 0.31022 0.0
O1217 O 0.59218 0.32943 0.28312 0.0
Co1218 Co 0.42021 0.67718 0.29961 0.0
O1219 O 0.44691 0.6705 0.29016 0.0
O1220 O 0.43995 0.69057 0.31634 0.0
C1221 C 0.40694 0.64562 0.29765 0.0
O1222 O 0.3956 0.68693 0.31509 0.0
Co1223 Co 0.38069 0.67144 0.27509 0.0
O1224 O 0.36804 0.67157 0.30264 0.0
C1225 C 0.40969 0.70396 0.26415 0.0
C1226 C 0.45337 0.68221 0.30468 0.0
C1227 C 0.3773 0.68071 0.31692 0.0
O1228 O 0.4194 0.70121 0.28083 0.0
O1229 O 0.39493 0.69265 0.25851 0.0
O1230 O 0.41781 0.6508 0.31332 0.0
O1231 O 0.40592 0.65898 0.28351 0.0
Co1232 Co 0.41318 0.81425 0.19381 0.0
O1233 O 0.43711 0.82309 0.2087 0.0
O1234 O 0.43647 0.81104 0.17737 0.0
C1235 C 0.39158 0.83991 0.20049 0.0
O1236 O 0.39375 0.80479 0.1722 0.0
Co1237 Co 0.37188 0.80258 0.2125 0.0
O1238 O 0.36257 0.79864 0.18412 0.0
C1239 C 0.40735 0.77727 0.21985 0.0
C1240 C 0.44703 0.81792 0.19237 0.0
C1241 C 0.37519 0.79994 0.1696 0.0
O1242 O 0.41668 0.78591 0.20509 0.0
O1243 O 0.39027 0.78325 0.22664 0.0
O1244 O 0.40589 0.84213 0.1871 0.0
O1245 O 0.3926 0.82353 0.21113 0.0
Co1246 Co 0.57383 0.18449 0.18648 0.0
O1247 O 0.54866 0.17445 0.19748 0.0
O1248 O 0.55184 0.19306 0.16966 0.0
C1249 C 0.59244 0.15584 0.18983 0.0
O1250 O 0.59576 0.19697 0.16923 0.0
Co1251 Co 0.61492 0.18743 0.20895 0.0
O1252 O 0.62564 0.18596 0.18061 0.0
C1253 C 0.58114 0.21498 0.21949 0.0
C1254 C 0.54009 0.18371 0.18228 0.0
C1255 C 0.6143 0.19226 0.16635 0.0
O1256 O 0.57141 0.20981 0.2034 0.0
O1257 O 0.59774 0.20666 0.22512 0.0
O1258 O 0.57997 0.15783 0.17465 0.0
O1259 O 0.59179 0.17022 0.20302 0.0
Co1260 Co 0.4139 0.17696 0.79321 0.0
O1261 O 0.43947 0.17058 0.78023 0.0
O1262 O 0.43566 0.18486 0.81041 0.0
C1263 C 0.39655 0.14813 0.78721 0.0
O1264 O 0.39207 0.18465 0.81316 0.0
Co1265 Co 0.37236 0.18101 0.77202 0.0
O1266 O 0.36093 0.18148 0.79994 0.0
C1267 C 0.40513 0.20941 0.76296 0.0
C1268 C 0.44774 0.17849 0.79638 0.0
C1269 C 0.37281 0.18394 0.81494 0.0
O1270 O 0.41392 0.20443 0.77964 0.0
O1271 O 0.3895 0.20024 0.75611 0.0
O1272 O 0.41011 0.14876 0.80157 0.0
O1273 O 0.39607 0.16381 0.77559 0.0
Co1274 Co 0.57202 0.81003 0.80036 0.0
O1275 O 0.54744 0.81864 0.7868 0.0
O1276 O 0.54911 0.80498 0.81738 0.0
C1277 C 0.59237 0.83669 0.7939 0.0
O1278 O 0.59323 0.8006 0.82051 0.0
Co1279 Co 0.61259 0.80125 0.77838 0.0
O1280 O 0.62408 0.79935 0.80618 0.0
C1281 C 0.57678 0.77647 0.7704 0.0
C1282 C 0.53798 0.81212 0.80287 0.0
C1283 C 0.61254 0.79875 0.82162 0.0
O1284 O 0.56912 0.78234 0.78736 0.0
O1285 O 0.59294 0.78409 0.76296 0.0
O1286 O 0.57877 0.8379 0.80817 0.0
O1287 O 0.59107 0.82086 0.78254 0.0
Co1288 Co 0.57388 0.69356 0.30666 0.0
O1289 O 0.5501 0.70986 0.31321 0.0
O1290 O 0.55046 0.67706 0.30605 0.0
C1291 C 0.59554 0.70414 0.33093 0.0
O1292 O 0.59278 0.67024 0.30077 0.0
Co1293 Co 0.61599 0.70841 0.29274 0.0
O1294 O 0.62489 0.67982 0.29549 0.0
C1295 C 0.58073 0.71291 0.26601 0.0
C1296 C 0.54004 0.69298 0.31062 0.0
C1297 C 0.61152 0.6662 0.29815 0.0
O1298 O 0.57033 0.70068 0.27706 0.0
O1299 O 0.59844 0.71918 0.27065 0.0
O1300 O 0.58116 0.69128 0.33518 0.0
O1301 O 0.59479 0.71184 0.313 0.0
Co1302 Co 0.41701 0.30835 0.30464 0.0
O1303 O 0.44224 0.29636 0.31373 0.0
O1304 O 0.43908 0.32568 0.29771 0.0
C1305 C 0.3981 0.3024 0.33271 0.0
O1306 O 0.39558 0.32729 0.29362 0.0
Co1307 Co 0.37547 0.28764 0.29913 0.0
O1308 O 0.36512 0.3159 0.30274 0.0
C1309 C 0.4104 0.27641 0.27347 0.0
C1310 C 0.45088 0.31224 0.30568 0.0
C1311 C 0.37706 0.33036 0.29831 0.0
O1312 O 0.41953 0.29304 0.2782 0.0
O1313 O 0.39358 0.27091 0.28138 0.0
O1314 O 0.41066 0.31769 0.33229 0.0
O1315 O 0.39864 0.29082 0.31704 0.0
Co1316 Co 0.41517 0.6858 0.67704 0.0
O1317 O 0.44006 0.69911 0.66892 0.0
O1318 O 0.43777 0.66834 0.68211 0.0
C1319 C 0.39514 0.69322 0.65026 0.0
O1320 O 0.39378 0.66576 0.68606 0.0
Co1321 Co 0.37442 0.70773 0.68549 0.0
O1322 O 0.36283 0.6799 0.68676 0.0
C1323 C 0.40992 0.71506 0.7111 0.0
C1324 C 0.4492 0.68282 0.67541 0.0
C1325 C 0.37449 0.66454 0.68762 0.0
O1326 O 0.4179 0.69836 0.70489 0.0
O1327 O 0.39383 0.72259 0.70343 0.0
O1328 O 0.40842 0.67862 0.64894 0.0
O1329 O 0.39644 0.70409 0.66638 0.0
Co1330 Co 0.56985 0.30171 0.67852 0.0
O1331 O 0.55064 0.28138 0.6692 0.0
O1332 O 0.54425 0.31408 0.67433 0.0
C1333 C 0.5964 0.29374 0.65848 0.0
O1334 O 0.58367 0.32801 0.68658 0.0
Co1335 Co 0.61058 0.2938 0.69992 0.0
O1336 O 0.61482 0.32346 0.69926 0.0
C1337 C 0.5723 0.28173 0.71875 0.0
C1338 C 0.53771 0.29635 0.66917 0.0
C1339 C 0.60047 0.33487 0.69341 0.0
O1340 O 0.56253 0.29415 0.70732 0.0
O1341 O 0.59115 0.278 0.71671 0.0
O1342 O 0.58142 0.3045 0.65143 0.0
O1343 O 0.59397 0.28677 0.67655 0.0
C1344 C 0.065 0.22846 0.22221 0.0
C1345 C 0.06332 0.24973 0.22331 0.0
C1346 C 0.06242 0.21641 0.23945 0.0
C1347 C 0.05841 0.2254 0.25826 0.0
H1348 H 0.07031 0.22126 0.20843 0.0
H1349 H 0.0664 0.20049 0.23857 0.0
S1350 S 0.04684 0.27951 0.26789 0.0
N1351 N 0.05272 0.27861 0.24358 0.0
N1352 N 0.04841 0.25593 0.27622 0.0
C1353 C 0.05353 0.24614 0.25884 0.0
C1354 C 0.05591 0.2584 0.24123 0.0
C1355 C 0.75157 0.07067 0.2277 0.0
C1356 C 0.73023 0.07119 0.22805 0.0
C1357 C 0.76288 0.07096 0.24569 0.0
C1358 C 0.75314 0.07221 0.26452 0.0
H1359 H 0.75958 0.07151 0.2134 0.0
H1360 H 0.77922 0.07218 0.24475 0.0
S1361 S 0.69778 0.0708 0.27375 0.0
N1362 N 0.69992 0.07021 0.24882 0.0
N1363 N 0.72116 0.07137 0.28268 0.0
C1364 C 0.73189 0.07087 0.26512 0.0
C1365 C 0.7204 0.07016 0.24683 0.0
C1366 C 0.91455 0.75422 0.216 0.0
C1367 C 0.9171 0.73313 0.21849 0.0
C1368 C 0.91517 0.76746 0.23262 0.0
C1369 C 0.91818 0.75994 0.25223 0.0
H1370 H 0.91048 0.76035 0.20133 0.0
H1371 H 0.91124 0.78325 0.23036 0.0
S1372 S 0.92921 0.70672 0.26644 0.0
N1373 N 0.92578 0.7059 0.24166 0.0
N1374 N 0.92649 0.73075 0.27301 0.0
C1375 C 0.92286 0.73928 0.25464 0.0
C1376 C 0.9225 0.72584 0.23769 0.0
C1377 C 0.22948 0.91831 0.22089 0.0
C1378 C 0.25063 0.92113 0.22029 0.0
C1379 C 0.219 0.91813 0.23934 0.0
C1380 C 0.22947 0.92041 0.25768 0.0
H1381 H 0.22123 0.91473 0.20715 0.0
H1382 H 0.20305 0.91425 0.23934 0.0
S1383 S 0.28409 0.93142 0.26418 0.0
N1384 N 0.28107 0.9291 0.23945 0.0
N1385 N 0.26141 0.92811 0.2742 0.0
C1386 C 0.25018 0.92514 0.25718 0.0
C1387 C 0.26079 0.92573 0.23841 0.0
C1388 C 0.08058 0.70983 0.7347 0.0
C1389 C 0.0719 0.71638 0.75289 0.0
C1390 C 0.08038 0.72229 0.71761 0.0
C1391 C 0.07186 0.7419 0.71834 0.0
H1392 H 0.08932 0.69593 0.73424 0.0
H1393 H 0.08855 0.71717 0.70433 0.0
S1394 S 0.0432 0.76381 0.76143 0.0
N1395 N 0.05144 0.74174 0.7699 0.0
N1396 N 0.05111 0.76547 0.73775 0.0
C1397 C 0.06081 0.74743 0.73571 0.0
C1398 C 0.0609 0.73456 0.75308 0.0
C1399 C 0.23632 0.06485 0.7633 0.0
C1400 C 0.25759 0.06591 0.76248 0.0
C1401 C 0.22468 0.06508 0.74556 0.0
C1402 C 0.23402 0.06693 0.72655 0.0
H1403 H 0.2286 0.06531 0.77777 0.0
H1404 H 0.20834 0.06579 0.74686 0.0
S1405 S 0.2892 0.06703 0.71622 0.0
N1406 N 0.28754 0.06603 0.74117 0.0
N1407 N 0.26566 0.06714 0.70774 0.0
C1408 C 0.25527 0.06613 0.72548 0.0
C1409 C 0.2671 0.06543 0.74352 0.0
C1410 C 0.91858 0.25771 0.73322 0.0
C1411 C 0.91883 0.23642 0.73499 0.0
C1412 C 0.9205 0.2702 0.7503 0.0
C1413 C 0.92228 0.26172 0.76969 0.0
H1414 H 0.91557 0.26473 0.7187 0.0
H1415 H 0.91856 0.28641 0.74852 0.0
S1416 S 0.92676 0.20709 0.78208 0.0
N1417 N 0.92376 0.20756 0.75724 0.0
N1418 N 0.92668 0.23103 0.78953 0.0
C1419 C 0.92437 0.24057 0.77144 0.0
C1420 C 0.92284 0.22788 0.754 0.0
C1421 C 0.72373 0.92178 0.7417 0.0
C1422 C 0.7332 0.92064 0.76068 0.0
C1423 C 0.73532 0.9222 0.72393 0.0
C1424 C 0.75664 0.92197 0.7247 0.0
H1425 H 0.70744 0.92023 0.74047 0.0
H1426 H 0.72759 0.92097 0.7095 0.0
S1427 S 0.78836 0.92336 0.77088 0.0
N1428 N 0.76485 0.92239 0.77942 0.0
N1429 N 0.7866 0.92373 0.74592 0.0
C1430 C 0.76615 0.9234 0.74361 0.0
C1431 C 0.75439 0.92256 0.76169 0.0
C1432 C 0.26786 0.08227 0.26054 0.0
C1433 C 0.26689 0.07713 0.23982 0.0
C1434 C 0.25051 0.08201 0.27274 0.0
C1435 C 0.2317 0.07663 0.26453 0.0
H1436 H 0.28185 0.08789 0.26706 0.0
H1437 H 0.25151 0.08771 0.2881 0.0
S1438 S 0.22147 0.05879 0.21231 0.0
N1439 N 0.24598 0.06387 0.2125 0.0
N1440 N 0.21328 0.06374 0.23543 0.0
C1441 C 0.23082 0.06964 0.24447 0.0
C1442 C 0.2485 0.06969 0.23208 0.0
C1443 C 0.9118 0.26387 0.25015 0.0
C1444 C 0.91226 0.26254 0.22887 0.0
C1445 C 0.91272 0.24644 0.26222 0.0
C1446 C 0.91365 0.22715 0.25332 0.0
H1447 H 0.90961 0.27842 0.25749 0.0
H1448 H 0.91086 0.24798 0.27846 0.0
S1449 S 0.91772 0.21566 0.19848 0.0
N1450 N 0.91609 0.24064 0.19953 0.0
N1451 N 0.91705 0.20772 0.22221 0.0
C1452 C 0.91565 0.22571 0.23216 0.0
C1453 C 0.91517 0.24349 0.2199 0.0
C1454 C 0.71854 0.91044 0.25835 0.0
C1455 C 0.71994 0.91457 0.23744 0.0
C1456 C 0.73557 0.91164 0.27095 0.0
C1457 C 0.75452 0.91686 0.26297 0.0
H1458 H 0.7045 0.90485 0.26475 0.0
H1459 H 0.73428 0.90661 0.28651 0.0
S1460 S 0.76567 0.93234 0.21023 0.0
N1461 N 0.74125 0.92689 0.21006 0.0
N1462 N 0.77341 0.92864 0.23374 0.0
C1463 C 0.75575 0.92291 0.24263 0.0
C1464 C 0.73836 0.92198 0.22983 0.0
C1465 C 0.06879 0.72539 0.25268 0.0
C1466 C 0.0701 0.7256 0.23139 0.0
C1467 C 0.0692 0.74347 0.26386 0.0
C1468 C 0.07144 0.76218 0.25404 0.0
H1469 H 0.0691 0.71112 0.26078 0.0
H1470 H 0.06984 0.74261 0.28024 0.0
S1471 S 0.07207 0.771 0.19858 0.0
N1472 N 0.07072 0.74609 0.2009 0.0
N1473 N 0.07209 0.78013 0.2219 0.0
C1474 C 0.07074 0.76268 0.23275 0.0
C1475 C 0.06988 0.74431 0.22138 0.0
C1476 C 0.21533 0.91643 0.75611 0.0
C1477 C 0.21611 0.91765 0.73481 0.0
C1478 C 0.2331 0.91571 0.7677 0.0
C1479 C 0.25211 0.91586 0.75825 0.0
H1480 H 0.20094 0.91422 0.76369 0.0
H1481 H 0.23193 0.91285 0.78382 0.0
S1482 S 0.26232 0.92266 0.7035 0.0
N1483 N 0.23736 0.92223 0.70516 0.0
N1484 N 0.27083 0.92029 0.72692 0.0
C1485 C 0.25308 0.91931 0.73728 0.0
C1486 C 0.23499 0.92043 0.72552 0.0
C1487 C 0.07508 0.22961 0.75802 0.0
C1488 C 0.074 0.22851 0.73675 0.0
C1489 C 0.0748 0.24835 0.76803 0.0
C1490 C 0.0739 0.26648 0.75698 0.0
H1491 H 0.07759 0.21601 0.76686 0.0
H1492 H 0.07734 0.24869 0.78425 0.0
S1493 S 0.06767 0.27167 0.70145 0.0
N1494 N 0.0691 0.24696 0.70528 0.0
N1495 N 0.06933 0.28227 0.72408 0.0
C1496 C 0.07092 0.26551 0.73594 0.0
C1497 C 0.07074 0.24643 0.72579 0.0
C1498 C 0.74728 0.06968 0.72387 0.0
C1499 C 0.76609 0.07302 0.7332 0.0
C1500 C 0.72945 0.06942 0.73537 0.0
C1501 C 0.72999 0.07196 0.75653 0.0
H1502 H 0.74608 0.06932 0.7075 0.0
H1503 H 0.71505 0.06892 0.72751 0.0
S1504 S 0.77577 0.0769 0.78844 0.0
N1505 N 0.78452 0.0758 0.76502 0.0
N1506 N 0.7509 0.07487 0.7866 0.0
C1507 C 0.74882 0.07283 0.76622 0.0
C1508 C 0.76696 0.07348 0.75452 0.0
C1509 C 0.89052 0.74577 0.72884 0.0
C1510 C 0.9063 0.75989 0.73031 0.0
C1511 C 0.89021 0.72851 0.74097 0.0
C1512 C 0.90555 0.72476 0.75534 0.0
H1513 H 0.87775 0.74863 0.71893 0.0
H1514 H 0.87723 0.71855 0.73958 0.0
S1515 S 0.95156 0.75629 0.76319 0.0
N1516 N 0.93857 0.76852 0.74563 0.0
N1517 N 0.93819 0.73584 0.76872 0.0
C1518 C 0.92217 0.73822 0.75603 0.0
C1519 C 0.92249 0.75586 0.74343 0.0
C1520 C 0.22494 0.24037 0.06557 0.0
C1521 C 0.23441 0.2594 0.06645 0.0
C1522 C 0.23651 0.22256 0.0655 0.0
C1523 C 0.25782 0.22335 0.0658 0.0
H1524 H 0.20865 0.23917 0.06711 0.0
H1525 H 0.22878 0.20814 0.06694 0.0
S1526 S 0.28955 0.26958 0.06394 0.0
N1527 N 0.26604 0.27814 0.06469 0.0
N1528 N 0.28779 0.24458 0.06386 0.0
C1529 C 0.26734 0.24226 0.06411 0.0
C1530 C 0.25559 0.26038 0.06466 0.0
C1531 C 0.23254 0.73593 0.92421 0.0
C1532 C 0.24101 0.71771 0.91711 0.0
C1533 C 0.24403 0.75377 0.9246 0.0
C1534 C 0.26439 0.75377 0.91844 0.0
H1535 H 0.21651 0.73691 0.92755 0.0
H1536 H 0.23648 0.76795 0.92806 0.0
S1537 S 0.29476 0.70931 0.90295 0.0
N1538 N 0.27183 0.70012 0.90699 0.0
N1539 N 0.29339 0.7338 0.90806 0.0
C1540 C 0.27366 0.7353 0.91373 0.0
C1541 C 0.26195 0.71716 0.913 0.0
C1542 C 0.22629 0.23152 0.9208 0.0
C1543 C 0.22725 0.25275 0.91894 0.0
C1544 C 0.24396 0.21978 0.92092 0.0
C1545 C 0.26297 0.229 0.9187 0.0
H1546 H 0.21178 0.22384 0.9204 0.0
H1547 H 0.24257 0.20341 0.9205 0.0
S1548 S 0.27367 0.28415 0.91725 0.0
N1549 N 0.24871 0.28264 0.91822 0.0
N1550 N 0.282 0.26054 0.91782 0.0
C1551 C 0.26419 0.25028 0.91912 0.0
C1552 C 0.24624 0.26222 0.91943 0.0
C1553 C 0.72342 0.24629 0.90909 0.0
C1554 C 0.73236 0.22701 0.90909 0.0
C1555 C 0.73549 0.26378 0.90894 0.0
C1556 C 0.75676 0.26244 0.90933 0.0
H1557 H 0.70717 0.24787 0.9075 0.0
H1558 H 0.72818 0.2784 0.90741 0.0
S1559 S 0.78722 0.21545 0.91218 0.0
N1560 N 0.7635 0.20749 0.91131 0.0
N1561 N 0.78614 0.24048 0.91178 0.0
C1562 C 0.76576 0.24331 0.91117 0.0
C1563 C 0.75353 0.22551 0.91083 0.0
C1564 C 0.77041 0.75072 0.91643 0.0
C1565 C 0.76899 0.72941 0.91607 0.0
C1566 C 0.75308 0.76291 0.91492 0.0
C1567 C 0.73389 0.7541 0.91247 0.0
H1568 H 0.78512 0.75801 0.91666 0.0
H1569 H 0.75488 0.77921 0.91404 0.0
S1570 S 0.72186 0.69916 0.91305 0.0
N1571 N 0.74675 0.70011 0.91538 0.0
N1572 N 0.71416 0.72297 0.91188 0.0
C1573 C 0.73214 0.73286 0.91354 0.0
C1574 C 0.74973 0.72049 0.91556 0.0
C1575 C 0.70742 0.73389 0.08657 0.0
C1576 C 0.71184 0.75134 0.07535 0.0
C1577 C 0.72155 0.71823 0.08822 0.0
C1578 C 0.74082 0.71964 0.07906 0.0
H1579 H 0.69376 0.73317 0.09564 0.0
H1580 H 0.71782 0.70562 0.09804 0.0
S1581 S 0.75787 0.76071 0.04473 0.0
N1582 N 0.73515 0.76796 0.05233 0.0
N1583 N 0.76204 0.73851 0.05555 0.0
C1584 C 0.74443 0.73598 0.06586 0.0
C1585 C 0.72983 0.75188 0.06403 0.0
C1586 C 0.24232 0.7628 0.0725 0.0
C1587 C 0.26149 0.75382 0.07424 0.0
C1588 C 0.22481 0.75077 0.07235 0.0
C1589 C 0.22605 0.72947 0.07342 0.0
H1590 H 0.24074 0.77914 0.07318 0.0
H1591 H 0.21019 0.7582 0.07285 0.0
S1592 S 0.2729 0.69877 0.0747 0.0
N1593 N 0.28091 0.72252 0.07462 0.0
N1594 N 0.24792 0.69993 0.07372 0.0
C1595 C 0.24517 0.72034 0.07297 0.0
C1596 C 0.26297 0.73255 0.07356 0.0
C1597 C 0.75088 0.25067 0.06446 0.0
C1598 C 0.76667 0.24536 0.07782 0.0
C1599 C 0.73323 0.23885 0.06312 0.0
C1600 C 0.73104 0.22125 0.07483 0.0
H1601 H 0.7515 0.26474 0.05603 0.0
H1602 H 0.72069 0.2443 0.05406 0.0
S1603 S 0.76868 0.1989 0.10977 0.0
N1604 N 0.77965 0.21964 0.1011 0.0
N1605 N 0.74635 0.1979 0.09857 0.0
C1606 C 0.74723 0.21484 0.08686 0.0
C1607 C 0.76514 0.22675 0.08832 0.0
C1608 C 0.73064 0.57662 0.7426 0.0
C1609 C 0.73865 0.57753 0.72296 0.0
C1610 C 0.74351 0.57685 0.75948 0.0
C1611 C 0.7647 0.57748 0.75715 0.0
H1612 H 0.71443 0.57752 0.74497 0.0
H1613 H 0.73685 0.5778 0.77445 0.0
S1614 S 0.79302 0.57678 0.70886 0.0
N1615 N 0.76894 0.57685 0.70202 0.0
N1616 N 0.79309 0.57665 0.73389 0.0
C1617 C 0.77287 0.57638 0.73764 0.0
C1618 C 0.7598 0.57658 0.72046 0.0
C1619 C 0.24227 0.42998 0.74982 0.0
C1620 C 0.24899 0.42193 0.76832 0.0
C1621 C 0.25567 0.43186 0.73344 0.0
C1622 C 0.27605 0.42587 0.73528 0.0
H1623 H 0.22625 0.43244 0.7472 0.0
H1624 H 0.24947 0.43534 0.71864 0.0
S1625 S 0.30207 0.40988 0.78217 0.0
N1626 N 0.27812 0.41259 0.78888 0.0
N1627 N 0.30314 0.41605 0.75795 0.0
C1628 C 0.28349 0.42112 0.75452 0.0
C1629 C 0.26993 0.41908 0.77114 0.0
C1630 C 0.26078 0.57127 0.21723 0.0
C1631 C 0.24006 0.56719 0.22047 0.0
C1632 C 0.27452 0.57182 0.23336 0.0
C1633 C 0.26802 0.56801 0.25317 0.0
H1634 H 0.26606 0.576 0.20242 0.0
H1635 H 0.28974 0.57734 0.23061 0.0
S1636 S 0.21664 0.55214 0.26913 0.0
N1637 N 0.21458 0.55584 0.24446 0.0
N1638 N 0.24057 0.55677 0.27486 0.0
C1639 C 0.24806 0.56128 0.25623 0.0
C1640 C 0.23399 0.56079 0.2398 0.0
C1641 C 0.77461 0.41123 0.25298 0.0
C1642 C 0.76598 0.41715 0.23452 0.0
C1643 C 0.76287 0.41056 0.27062 0.0
C1644 C 0.74217 0.41578 0.27028 0.0
H1645 H 0.78983 0.40512 0.25337 0.0
H1646 H 0.76964 0.40434 0.28421 0.0
S1647 S 0.7138 0.4359 0.22624 0.0
N1648 N 0.73665 0.43101 0.2173 0.0
N1649 N 0.71454 0.43009 0.25056 0.0
C1650 C 0.73412 0.42405 0.25241 0.0
C1651 C 0.74608 0.42458 0.23442 0.0
C1652 C 0.256 0.57303 0.7536 0.0
C1653 C 0.25493 0.57235 0.73231 0.0
C1654 C 0.23852 0.57132 0.76549 0.0
C1655 C 0.21942 0.56937 0.75638 0.0
H1656 H 0.27031 0.57603 0.76107 0.0
H1657 H 0.23978 0.57334 0.78173 0.0
S1658 S 0.20878 0.56413 0.70149 0.0
N1659 N 0.2336 0.56706 0.70278 0.0
N1660 N 0.20055 0.56465 0.72513 0.0
C1661 C 0.21832 0.56711 0.73524 0.0
C1662 C 0.23617 0.56836 0.72316 0.0
C1663 C 0.72309 0.38439 0.74296 0.0
C1664 C 0.71564 0.40285 0.73543 0.0
C1665 C 0.74107 0.38356 0.75395 0.0
C1666 C 0.75232 0.40117 0.75808 0.0
H1667 H 0.71516 0.37029 0.74007 0.0
H1668 H 0.74627 0.36886 0.75911 0.0
S1669 S 0.73899 0.45352 0.74263 0.0
N1670 N 0.7205 0.43936 0.73334 0.0
N1671 N 0.75455 0.43778 0.75434 0.0
C1672 C 0.74489 0.41988 0.75113 0.0
C1673 C 0.72654 0.42071 0.73961 0.0
C1674 C 0.2456 0.41296 0.22302 0.0
C1675 C 0.22625 0.41405 0.23164 0.0
C1676 C 0.26286 0.4136 0.23533 0.0
C1677 C 0.26123 0.41564 0.25654 0.0
H1678 H 0.24736 0.40972 0.20702 0.0
H1679 H 0.27751 0.41117 0.22835 0.0
S1680 S 0.21388 0.4228 0.2857 0.0
N1681 N 0.20633 0.41988 0.26201 0.0
N1682 N 0.23886 0.42162 0.28514 0.0
C1683 C 0.24204 0.41899 0.26498 0.0
C1684 C 0.22447 0.418 0.25248 0.0
C1685 C 0.7384 0.57178 0.22257 0.0
C1686 C 0.75719 0.56897 0.23201 0.0
C1687 C 0.72059 0.57233 0.23406 0.0
C1688 C 0.72105 0.56983 0.25527 0.0
H1689 H 0.73764 0.5755 0.2066 0.0
H1690 H 0.70654 0.57613 0.22648 0.0
S1691 S 0.7663 0.55812 0.28632 0.0
N1692 N 0.77514 0.5609 0.26308 0.0
N1693 N 0.74155 0.5614 0.28468 0.0
C1694 C 0.73951 0.56469 0.26447 0.0
C1695 C 0.75766 0.56446 0.2528 0.0
C1696 C 0.21928 0.74116 0.57139 0.0
C1697 C 0.2285 0.7603 0.57101 0.0
C1698 C 0.23109 0.7235 0.57111 0.0
C1699 C 0.25241 0.72448 0.57013 0.0
H1700 H 0.20311 0.73984 0.57387 0.0
H1701 H 0.22359 0.70903 0.57322 0.0
S1702 S 0.28329 0.77107 0.56516 0.0
N1703 N 0.25974 0.77933 0.56699 0.0
N1704 N 0.2819 0.74606 0.56592 0.0
C1705 C 0.26154 0.74347 0.56743 0.0
C1706 C 0.24956 0.76145 0.56808 0.0
C1707 C 0.22639 0.2467 0.42083 0.0
C1708 C 0.23502 0.22741 0.41834 0.0
C1709 C 0.23853 0.26415 0.4204 0.0
C1710 C 0.25967 0.26279 0.41806 0.0
H1711 H 0.21008 0.24848 0.4212 0.0
H1712 H 0.23121 0.27885 0.42053 0.0
S1713 S 0.28984 0.21564 0.41473 0.0
N1714 N 0.26611 0.20777 0.41606 0.0
N1715 N 0.28892 0.24065 0.41591 0.0
C1716 C 0.26864 0.24354 0.41778 0.0
C1717 C 0.25628 0.22579 0.41775 0.0
C1718 C 0.25115 0.77218 0.41548 0.0
C1719 C 0.23252 0.76265 0.41908 0.0
C1720 C 0.26908 0.76085 0.41492 0.0
C1721 C 0.26886 0.73973 0.41817 0.0
H1722 H 0.25163 0.78799 0.41106 0.0
H1723 H 0.28293 0.76839 0.41037 0.0
S1724 S 0.22416 0.70871 0.43213 0.0
N1725 N 0.21504 0.73178 0.42871 0.0
N1726 N 0.24881 0.71047 0.42827 0.0
C1727 C 0.25061 0.73058 0.42422 0.0
C1728 C 0.23235 0.74208 0.42444 0.0
C1729 C 0.76977 0.7393 0.41595 0.0
C1730 C 0.76112 0.75864 0.41774 0.0
C1731 C 0.75748 0.72198 0.41551 0.0
C1732 C 0.73626 0.72349 0.41722 0.0
H1733 H 0.78583 0.73769 0.41296 0.0
H1734 H 0.76449 0.70745 0.41239 0.0
S1735 S 0.70692 0.77057 0.426 0.0
N1736 N 0.73064 0.77827 0.42388 0.0
N1737 N 0.70755 0.74563 0.42369 0.0
C1738 C 0.72776 0.74256 0.42133 0.0
C1739 C 0.74023 0.76021 0.42137 0.0
C1740 C 0.72335 0.23815 0.42738 0.0
C1741 C 0.72269 0.25932 0.42474 0.0
C1742 C 0.74172 0.22757 0.42625 0.0
C1743 C 0.7598 0.23788 0.42193 0.0
H1744 H 0.7094 0.22956 0.42849 0.0
H1745 H 0.7414 0.21115 0.42659 0.0
S1746 S 0.76648 0.29353 0.41745 0.0
N1747 N 0.74189 0.29044 0.42082 0.0
N1748 N 0.77644 0.27056 0.41815 0.0
C1749 C 0.75958 0.25921 0.42147 0.0
C1750 C 0.74095 0.26997 0.42305 0.0
C1751 C 0.7752 0.26165 0.57994 0.0
C1752 C 0.76842 0.24309 0.57214 0.0
C1753 C 0.76232 0.27851 0.58052 0.0
C1754 C 0.74217 0.27726 0.57347 0.0
H1755 H 0.78976 0.2626 0.58746 0.0
H1756 H 0.76768 0.29207 0.58809 0.0
S1757 S 0.71892 0.23286 0.54782 0.0
N1758 N 0.74175 0.22504 0.55444 0.0
N1759 N 0.71745 0.25675 0.55521 0.0
C1760 C 0.73617 0.25942 0.56336 0.0
C1761 C 0.74932 0.24226 0.56287 0.0
C1762 C 0.25199 0.21323 0.57711 0.0
C1763 C 0.23343 0.22046 0.56982 0.0
C1764 C 0.26895 0.22593 0.57782 0.0
C1765 C 0.26778 0.2463 0.57146 0.0
H1766 H 0.25282 0.19853 0.58438 0.0
H1767 H 0.2825 0.22029 0.58518 0.0
S1768 S 0.22363 0.27056 0.54661 0.0
N1769 N 0.2156 0.24763 0.55272 0.0
N1770 N 0.24755 0.27165 0.55388 0.0
C1771 C 0.25006 0.2527 0.5615 0.0
C1772 C 0.23279 0.23969 0.56081 0.0
C1773 C 0.7435 0.76241 0.56877 0.0
C1774 C 0.76186 0.75248 0.5728 0.0
C1775 C 0.72529 0.75147 0.56791 0.0
C1776 C 0.72505 0.73029 0.57044 0.0
H1777 H 0.74291 0.77882 0.56826 0.0
H1778 H 0.71118 0.75978 0.56681 0.0
S1779 S 0.76949 0.697 0.57795 0.0
N1780 N 0.77905 0.72014 0.57695 0.0
N1781 N 0.74483 0.69961 0.57467 0.0
C1782 C 0.74352 0.72003 0.57227 0.0
C1783 C 0.76198 0.73115 0.57363 0.0
C1784 C 0.55945 0.23511 0.74645 0.0
C1785 C 0.56505 0.24095 0.76614 0.0
C1786 C 0.55811 0.24959 0.73092 0.0
C1787 C 0.56212 0.27022 0.73476 0.0
H1788 H 0.55837 0.21919 0.74253 0.0
H1789 H 0.55642 0.24431 0.71546 0.0
S1790 S 0.57191 0.29362 0.78471 0.0
N1791 N 0.57038 0.26907 0.78943 0.0
N1792 N 0.56796 0.29611 0.76013 0.0
C1793 C 0.56475 0.27644 0.75484 0.0
C1794 C 0.56624 0.2618 0.77061 0.0
C1795 C 0.42041 0.74674 0.72822 0.0
C1796 C 0.41791 0.72557 0.72903 0.0
C1797 C 0.42092 0.75843 0.74595 0.0
C1798 C 0.4184 0.74927 0.76496 0.0
H1799 H 0.42032 0.75447 0.71374 0.0
H1800 H 0.42116 0.7748 0.74459 0.0
S1801 S 0.41498 0.69408 0.77526 0.0
N1802 N 0.41597 0.69568 0.75031 0.0
N1803 N 0.41642 0.71761 0.78375 0.0
C1804 C 0.41802 0.72794 0.76603 0.0
C1805 C 0.4179 0.71605 0.74797 0.0
C1806 C 0.56287 0.74016 0.24777 0.0
C1807 C 0.57227 0.72107 0.24721 0.0
C1808 C 0.56212 0.75245 0.23045 0.0
C1809 C 0.57103 0.74608 0.21214 0.0
H1810 H 0.55778 0.7464 0.26208 0.0
H1811 H 0.55614 0.76767 0.23197 0.0
S1812 S 0.59364 0.6954 0.20223 0.0
N1813 N 0.58785 0.69505 0.22656 0.0
N1814 N 0.5862 0.71776 0.19378 0.0
C1815 C 0.57837 0.726 0.21096 0.0
C1816 C 0.5791 0.71359 0.22861 0.0
C1817 C 0.42132 0.27069 0.23789 0.0
C1818 C 0.41847 0.26309 0.2575 0.0
C1819 C 0.42192 0.25746 0.22125 0.0
C1820 C 0.42008 0.23633 0.22384 0.0
H1821 H 0.42096 0.28689 0.23517 0.0
H1822 H 0.422 0.26389 0.20615 0.0
S1823 S 0.41652 0.20896 0.27255 0.0
N1824 N 0.41687 0.23319 0.27895 0.0
N1825 N 0.41841 0.20838 0.2476 0.0
C1826 C 0.41978 0.22852 0.24353 0.0
C1827 C 0.41883 0.24195 0.26043 0.0
C1828 C 0.41365 0.24609 0.76179 0.0
C1829 C 0.41176 0.22745 0.75173 0.0
C1830 C 0.41454 0.26423 0.7508 0.0
C1831 C 0.41401 0.2642 0.72946 0.0
H1832 H 0.41283 0.24679 0.77817 0.0
H1833 H 0.41459 0.27844 0.75907 0.0
S1834 S 0.41236 0.21898 0.69618 0.0
N1835 N 0.4116 0.20973 0.71942 0.0
N1836 N 0.41387 0.24385 0.69876 0.0
C1837 C 0.41405 0.24553 0.71928 0.0
C1838 C 0.41273 0.22711 0.73045 0.0
C1839 C 0.57075 0.7219 0.75711 0.0
C1840 C 0.56909 0.72284 0.73584 0.0
C1841 C 0.57041 0.73956 0.76895 0.0
C1842 C 0.56871 0.75864 0.75978 0.0
H1843 H 0.57395 0.70759 0.76449 0.0
H1844 H 0.57364 0.73839 0.785 0.0
S1845 S 0.56034 0.76904 0.70527 0.0
N1846 N 0.56256 0.74413 0.70656 0.0
N1847 N 0.5625 0.77741 0.72877 0.0
C1848 C 0.5649 0.75961 0.73886 0.0
C1849 C 0.56489 0.74163 0.72685 0.0
C1850 C 0.57495 0.2312 0.25285 0.0
C1851 C 0.5741 0.23233 0.23158 0.0
C1852 C 0.57376 0.24873 0.26478 0.0
C1853 C 0.57215 0.26788 0.2557 0.0
H1854 H 0.57792 0.21683 0.26023 0.0
H1855 H 0.57613 0.24745 0.28097 0.0
S1856 S 0.5666 0.27869 0.20093 0.0
N1857 N 0.56893 0.25377 0.20215 0.0
N1858 N 0.5675 0.2869 0.22458 0.0
C1859 C 0.56955 0.26904 0.23463 0.0
C1860 C 0.57029 0.25116 0.22252 0.0
C1861 C 0.40785 0.74004 0.21976 0.0
C1862 C 0.41488 0.75819 0.22829 0.0
C1863 C 0.40769 0.72211 0.23106 0.0
C1864 C 0.41449 0.72176 0.25131 0.0
H1865 H 0.40083 0.74007 0.20492 0.0
H1866 H 0.40101 0.70873 0.22425 0.0
S1867 S 0.4375 0.76494 0.27917 0.0
N1868 N 0.43099 0.77454 0.257 0.0
N1869 N 0.43115 0.74072 0.27829 0.0
C1870 C 0.42347 0.73945 0.25924 0.0
C1871 C 0.42345 0.75775 0.24771 0.0
C1872 C 0.11186 0.13123 0.30629 0.0
C1873 C 0.1157 0.14625 0.29163 0.0
C1874 C 0.12166 0.11238 0.30552 0.0
C1875 C 0.13541 0.1079 0.28991 0.0
H1876 H 0.10208 0.13448 0.31907 0.0
H1877 H 0.11938 0.10181 0.31785 0.0
S1878 S 0.14684 0.1405 0.24541 0.0
N1879 N 0.13169 0.15444 0.25963 0.0
N1880 N 0.14947 0.11877 0.25751 0.0
C1881 C 0.13772 0.12212 0.27409 0.0
C1882 C 0.12811 0.14142 0.27517 0.0
C1883 C 0.85078 0.12316 0.31794 0.0
C1884 C 0.83748 0.1224 0.30131 0.0
C1885 C 0.8704 0.13118 0.31595 0.0
C1886 C 0.87728 0.1387 0.29724 0.0
H1887 H 0.84583 0.11787 0.33266 0.0
H1888 H 0.87987 0.1322 0.32929 0.0
S1889 S 0.84883 0.13742 0.24861 0.0
N1890 N 0.83288 0.12793 0.26537 0.0
N1891 N 0.86972 0.14279 0.2613 0.0
C1892 C 0.86436 0.13686 0.28027 0.0
C1893 C 0.84442 0.12883 0.2824 0.0
C1894 C 0.85538 0.85021 0.27887 0.0
C1895 C 0.8674 0.84372 0.29505 0.0
C1896 C 0.84615 0.86933 0.27925 0.0
C1897 C 0.84809 0.88245 0.29609 0.0
H1898 H 0.85293 0.84038 0.26594 0.0
H1899 H 0.83669 0.87346 0.26649 0.0
S1900 S 0.87878 0.87232 0.34206 0.0
N1901 N 0.88177 0.85186 0.32792 0.0
N1902 N 0.86384 0.88761 0.32903 0.0
C1903 C 0.86072 0.87631 0.3121 0.0
C1904 C 0.87042 0.85692 0.31151 0.0
C1905 C 0.14676 0.85591 0.28309 0.0
C1906 C 0.15157 0.86772 0.30004 0.0
C1907 C 0.12738 0.84756 0.28086 0.0
C1908 C 0.11226 0.85025 0.29576 0.0
H1909 H 0.15797 0.8533 0.27139 0.0
H1910 H 0.12443 0.83851 0.26747 0.0
S1911 S 0.11785 0.87993 0.34321 0.0
N1912 N 0.14001 0.88214 0.33183 0.0
N1913 N 0.10374 0.86577 0.32812 0.0
C1914 C 0.11696 0.86224 0.31275 0.0
C1915 C 0.13661 0.87108 0.31479 0.0
C1916 C 0.12983 0.84277 0.67407 0.0
C1917 C 0.11912 0.83367 0.69001 0.0
C1918 C 0.1348 0.86339 0.67451 0.0
C1919 C 0.13054 0.87536 0.69156 0.0
H1920 H 0.1342 0.834 0.661 0.0
H1921 H 0.14291 0.86974 0.66182 0.0
S1922 S 0.10372 0.85867 0.73791 0.0
N1923 N 0.10403 0.83832 0.72328 0.0
N1924 N 0.11558 0.87664 0.72511 0.0
C1925 C 0.12028 0.8664 0.70787 0.0
C1926 C 0.11412 0.84565 0.70692 0.0
C1927 C 0.14141 0.13013 0.67604 0.0
C1928 C 0.15147 0.1224 0.69311 0.0
C1929 C 0.12161 0.13766 0.6775 0.0
C1930 C 0.11152 0.13831 0.69624 0.0
H1931 H 0.14876 0.13005 0.6614 0.0
H1932 H 0.11449 0.14372 0.66403 0.0
S1933 S 0.13156 0.12017 0.74545 0.0
N1934 N 0.1499 0.11535 0.72913 0.0
N1935 N 0.11316 0.13082 0.73224 0.0
C1936 C 0.12154 0.13078 0.71344 0.0
C1937 C 0.14141 0.12248 0.71179 0.0
C1938 C 0.85342 0.1236 0.6716 0.0
C1939 C 0.85351 0.111 0.68876 0.0
C1940 C 0.86091 0.14352 0.67262 0.0
C1941 C 0.86935 0.15121 0.69062 0.0
H1942 H 0.84649 0.1185 0.65765 0.0
H1943 H 0.86006 0.15296 0.65924 0.0
S1944 S 0.87457 0.12381 0.73926 0.0
N1945 N 0.86323 0.10742 0.72407 0.0
N1946 N 0.87849 0.14439 0.72556 0.0
C1947 C 0.8705 0.13843 0.70754 0.0
C1948 C 0.8623 0.11842 0.7067 0.0
C1949 C 0.84556 0.8618 0.70927 0.0
C1950 C 0.84085 0.87221 0.69145 0.0
C1951 C 0.86518 0.85448 0.71262 0.0
C1952 C 0.8806 0.85662 0.69792 0.0
H1953 H 0.83402 0.85928 0.72066 0.0
H1954 H 0.86798 0.84622 0.72651 0.0
S1955 S 0.8759 0.88452 0.64938 0.0
N1956 N 0.85318 0.88606 0.6597 0.0
N1957 N 0.88991 0.87149 0.66551 0.0
C1958 C 0.8762 0.86791 0.68042 0.0
C1959 C 0.8563 0.87579 0.67726 0.0
C1960 C 0.31703 0.13493 0.14254 0.0
C1961 C 0.30009 0.12603 0.15181 0.0
C1962 C 0.31681 0.14011 0.12196 0.0
C1963 C 0.29923 0.13764 0.11022 0.0
H1964 H 0.33068 0.13761 0.15116 0.0
H1965 H 0.33019 0.14696 0.1155 0.0
S1966 S 0.25053 0.11575 0.12754 0.0
N1967 N 0.26538 0.11456 0.14766 0.0
N1968 N 0.26428 0.1262 0.10942 0.0
C1969 C 0.28205 0.1291 0.1194 0.0
C1970 C 0.28261 0.12289 0.1401 0.0
C1971 C 0.84905 0.32123 0.11541 0.0
C1972 C 0.85117 0.30335 0.10398 0.0
C1973 C 0.85681 0.32252 0.13519 0.0
C1974 C 0.86755 0.30626 0.14379 0.0
H1975 H 0.84019 0.33374 0.10963 0.0
H1976 H 0.85429 0.33626 0.14381 0.0
S1977 S 0.87904 0.25705 0.11924 0.0
N1978 N 0.86562 0.26955 0.10223 0.0
N1979 N 0.88126 0.27245 0.13886 0.0
C1980 C 0.8709 0.28887 0.132 0.0
C1981 C 0.8625 0.28733 0.11218 0.0
C1982 C 0.68449 0.87434 0.1314 0.0
C1983 C 0.69529 0.86666 0.14816 0.0
C1984 C 0.68603 0.86532 0.11218 0.0
C1985 C 0.69885 0.84864 0.10898 0.0
H1986 H 0.67385 0.88668 0.13341 0.0
H1987 H 0.67637 0.87079 0.10011 0.0
S1988 S 0.73354 0.82577 0.14714 0.0
N1989 N 0.72089 0.84319 0.15989 0.0
N1990 N 0.72509 0.82704 0.12363 0.0
C1991 C 0.71119 0.84216 0.12528 0.0
C1992 C 0.70904 0.85091 0.14493 0.0
C1993 C 0.13111 0.70415 0.14391 0.0
C1994 C 0.12037 0.68677 0.14946 0.0
C1995 C 0.13848 0.70636 0.12417 0.0
C1996 C 0.13589 0.69099 0.10944 0.0
H1997 H 0.13376 0.71613 0.15485 0.0
H1998 H 0.14696 0.71998 0.12068 0.0
S1999 S 0.10758 0.64294 0.11665 0.0
N2000 N 0.10621 0.65448 0.13883 0.0
N2001 N 0.12071 0.65823 0.1018 0.0
C2002 C 0.12449 0.6738 0.11474 0.0
C2003 C 0.11667 0.67176 0.13479 0.0
C2004 C 0.30213 0.86126 0.87545 0.0
C2005 C 0.28615 0.84859 0.88151 0.0
C2006 C 0.30294 0.869 0.85569 0.0
C2007 C 0.28794 0.86411 0.84132 0.0
H2008 H 0.31462 0.86438 0.88563 0.0
H2009 H 0.31583 0.8782 0.85137 0.0
S2010 S 0.24118 0.83468 0.85046 0.0
N2011 N 0.2534 0.83407 0.87229 0.0
N2012 N 0.2556 0.84799 0.83495 0.0
C2013 C 0.27132 0.85254 0.84744 0.0
C2014 C 0.2702 0.84504 0.86765 0.0
C2015 C 0.13125 0.31154 0.87043 0.0
C2016 C 0.14053 0.29308 0.87557 0.0
C2017 C 0.12473 0.31529 0.85061 0.0
C2018 C 0.12765 0.30095 0.83512 0.0
H2019 H 0.12946 0.32343 0.88161 0.0
H2020 H 0.11739 0.32959 0.84738 0.0
S2021 S 0.14844 0.24926 0.84091 0.0
N2022 N 0.15 0.25928 0.86381 0.0
N2023 N 0.13857 0.26702 0.82633 0.0
C2024 C 0.13621 0.28222 0.84004 0.0
C2025 C 0.14238 0.2781 0.86035 0.0
C2026 C 0.67303 0.12808 0.87079 0.0
C2027 C 0.69152 0.1359 0.87795 0.0
C2028 C 0.6714 0.12039 0.85099 0.0
C2029 C 0.6881 0.12064 0.83777 0.0
H2030 H 0.65949 0.12907 0.87999 0.0
H2031 H 0.65682 0.11501 0.84569 0.0
S2032 S 0.74057 0.13558 0.85031 0.0
N2033 N 0.72756 0.14024 0.87116 0.0
N2034 N 0.72407 0.1265 0.83383 0.0
C2035 C 0.70688 0.12694 0.84515 0.0
C2036 C 0.70871 0.13432 0.86534 0.0
C2037 C 0.86528 0.66634 0.85769 0.0
C2038 C 0.87261 0.6835 0.84741 0.0
C2039 C 0.85955 0.66738 0.8781 0.0
C2040 C 0.8598 0.68588 0.88862 0.0
H2041 H 0.86375 0.65204 0.84992 0.0
H2042 H 0.85346 0.65396 0.88518 0.0
S2043 S 0.87824 0.73513 0.86885 0.0
N2044 N 0.88119 0.71924 0.84971 0.0
N2045 N 0.8686 0.72162 0.88757 0.0
C2046 C 0.86756 0.70305 0.87869 0.0
C2047 C 0.87429 0.70179 0.85818 0.0
C2048 C 0.14797 0.28001 0.13715 0.0
C2049 C 0.15038 0.2917 0.11965 0.0
C2050 C 0.12893 0.27793 0.14623 0.0
C2051 C 0.11177 0.28826 0.13871 0.0
H2052 H 0.16085 0.27232 0.14381 0.0
H2053 H 0.12793 0.2685 0.15954 0.0
S2054 S 0.11011 0.32011 0.09254 0.0
N2055 N 0.13396 0.31277 0.09425 0.0
N2056 N 0.09839 0.30983 0.11209 0.0
C2057 C 0.11396 0.29971 0.12097 0.0
C2058 C 0.13322 0.30125 0.11129 0.0
C2059 C 0.13596 0.68752 0.87461 0.0
C2060 C 0.15368 0.69585 0.86617 0.0
C2061 C 0.117 0.69051 0.8656 0.0
C2062 C 0.11497 0.70241 0.84809 0.0
H2063 H 0.13685 0.67782 0.88782 0.0
H2064 H 0.10401 0.68282 0.87202 0.0
S2065 S 0.15643 0.73095 0.82264 0.0
N2066 N 0.16794 0.71816 0.84079 0.0
N2067 N 0.13215 0.72526 0.82459 0.0
C2068 C 0.13244 0.71227 0.84054 0.0
C2069 C 0.15186 0.70856 0.84935 0.0
C2070 C 0.31537 0.13453 0.85804 0.0
C2071 C 0.29771 0.14372 0.86555 0.0
C2072 C 0.31533 0.11423 0.85176 0.0
C2073 C 0.29744 0.10271 0.85206 0.0
H2074 H 0.32932 0.14306 0.85712 0.0
H2075 H 0.32912 0.1079 0.8456 0.0
S2076 S 0.24733 0.11973 0.87083 0.0
N2077 N 0.26222 0.13962 0.87407 0.0
N2078 N 0.26169 0.10184 0.86077 0.0
C2079 C 0.27974 0.1117 0.85976 0.0
C2080 C 0.27998 0.13213 0.86686 0.0
C2081 C 0.85352 0.32385 0.86149 0.0
C2082 C 0.84432 0.30622 0.86907 0.0
C2083 C 0.87402 0.32398 0.85591 0.0
C2084 C 0.88573 0.30622 0.85685 0.0
H2085 H 0.84479 0.33758 0.85978 0.0
H2086 H 0.88034 0.3377 0.84965 0.0
S2087 S 0.86869 0.25618 0.87595 0.0
N2088 N 0.84859 0.2709 0.87833 0.0
N2089 N 0.8867 0.27063 0.86627 0.0
C2090 C 0.87673 0.28858 0.86472 0.0
C2091 C 0.8561 0.28868 0.87116 0.0
C2092 C 0.67596 0.85259 0.86351 0.0
C2093 C 0.6936 0.84073 0.86486 0.0
C2094 C 0.67668 0.87257 0.85616 0.0
C2095 C 0.69505 0.88119 0.84966 0.0
H2096 H 0.6615 0.84632 0.86804 0.0
H2097 H 0.66266 0.88094 0.85479 0.0
S2098 S 0.74567 0.85667 0.85187 0.0
N2099 N 0.72998 0.83925 0.86063 0.0
N2100 N 0.73151 0.87658 0.84641 0.0
C2101 C 0.71289 0.86961 0.85174 0.0
C2102 C 0.71212 0.8494 0.8594 0.0
C2103 C 0.84469 0.67067 0.13282 0.0
C2104 C 0.83662 0.68772 0.1229 0.0
C2105 C 0.86531 0.66949 0.13776 0.0
C2106 C 0.87842 0.68583 0.13411 0.0
H2107 H 0.83496 0.65819 0.13699 0.0
H2108 H 0.87063 0.65628 0.14581 0.0
S2109 S 0.86505 0.73388 0.10826 0.0
N2110 N 0.84369 0.72081 0.10842 0.0
N2111 N 0.88206 0.71946 0.11963 0.0
C2112 C 0.87066 0.70287 0.12394 0.0
C2113 C 0.84985 0.70365 0.11796 0.0
C2114 C 0.28029 0.86983 0.12907 0.0
C2115 C 0.29747 0.88146 0.13419 0.0
C2116 C 0.2821 0.84965 0.12248 0.0
C2117 C 0.30111 0.84023 0.12143 0.0
H2118 H 0.26526 0.87626 0.13055 0.0
H2119 H 0.26855 0.84127 0.11852 0.0
S2120 S 0.3508 0.86387 0.13252 0.0
N2121 N 0.3342 0.88209 0.13686 0.0
N2122 N 0.33742 0.84399 0.12528 0.0
C2123 C 0.31838 0.85168 0.12618 0.0
C2124 C 0.31663 0.87237 0.13234 0.0
C2125 C 0.70317 0.14024 0.13027 0.0
C2126 C 0.68762 0.14342 0.11622 0.0
C2127 C 0.70596 0.12124 0.13921 0.0
C2128 C 0.69262 0.10496 0.1353 0.0
H2129 H 0.71319 0.15257 0.13447 0.0
H2130 H 0.71823 0.11968 0.14994 0.0
S2131 S 0.65105 0.10505 0.09749 0.0
N2132 N 0.66033 0.1283 0.09664 0.0
N2133 N 0.66459 0.09284 0.11463 0.0
C2134 C 0.67765 0.10769 0.12039 0.0
C2135 C 0.67533 0.12691 0.11066 0.0
C2136 C 0.12213 0.63297 0.78506 0.0
C2137 C 0.1157 0.64111 0.80353 0.0
C2138 C 0.12855 0.61286 0.78379 0.0
C2139 C 0.12959 0.60041 0.80112 0.0
H2140 H 0.12259 0.64235 0.7716 0.0
H2141 H 0.13412 0.60751 0.7693 0.0
S2142 S 0.11159 0.6142 0.85255 0.0
N2143 N 0.10795 0.63489 0.83892 0.0
N2144 N 0.1213 0.59718 0.83691 0.0
C2145 C 0.12171 0.60799 0.81942 0.0
C2146 C 0.11456 0.62841 0.82054 0.0
C2147 C 0.88322 0.62768 0.82124 0.0
C2148 C 0.89233 0.63212 0.80254 0.0
C2149 C 0.86368 0.61918 0.822 0.0
C2150 C 0.85316 0.61436 0.80411 0.0
H2151 H 0.89029 0.63262 0.8352 0.0
H2152 H 0.85638 0.61723 0.83657 0.0
S2153 S 0.87259 0.61819 0.75175 0.0
N2154 N 0.89087 0.6277 0.76598 0.0
N2155 N 0.85454 0.61115 0.76758 0.0
C2156 C 0.86315 0.61631 0.78556 0.0
C2157 C 0.88278 0.62521 0.78474 0.0
C2158 C 0.85835 0.34759 0.78246 0.0
C2159 C 0.87247 0.34656 0.79821 0.0
C2160 C 0.8484 0.36577 0.77807 0.0
C2161 C 0.85126 0.38332 0.79006 0.0
H2162 H 0.85485 0.33422 0.77357 0.0
H2163 H 0.83759 0.36566 0.76575 0.0
S2164 S 0.88893 0.389 0.83132 0.0
N2165 N 0.89128 0.36518 0.82389 0.0
N2166 N 0.87104 0.39895 0.81693 0.0
C2167 C 0.86627 0.38276 0.80512 0.0
C2168 C 0.87715 0.36442 0.80895 0.0
C2169 C 0.1474 0.36373 0.81013 0.0
C2170 C 0.15862 0.36662 0.79229 0.0
C2171 C 0.12676 0.35875 0.80947 0.0
C2172 C 0.11676 0.35592 0.7909 0.0
H2173 H 0.15458 0.36549 0.82472 0.0
H2174 H 0.11887 0.3562 0.82359 0.0
S2175 S 0.13912 0.36324 0.73985 0.0
N2176 N 0.158 0.36801 0.7556 0.0
N2177 N 0.11943 0.35744 0.75418 0.0
C2178 C 0.12773 0.35934 0.77292 0.0
C2179 C 0.14862 0.36497 0.77366 0.0
C2180 C 0.11505 0.35034 0.18009 0.0
C2181 C 0.11901 0.3353 0.19468 0.0
C2182 C 0.12339 0.36984 0.18183 0.0
C2183 C 0.13578 0.37499 0.19836 0.0
H2184 H 0.10607 0.34676 0.16681 0.0
H2185 H 0.12084 0.38059 0.16971 0.0
S2186 S 0.14717 0.34198 0.24263 0.0
N2187 N 0.13392 0.32735 0.22722 0.0
N2188 N 0.14884 0.3642 0.23125 0.0
C2189 C 0.13838 0.36047 0.2139 0.0
C2190 C 0.13029 0.34051 0.21182 0.0
C2191 C 0.14534 0.6312 0.20711 0.0
C2192 C 0.14906 0.61644 0.19233 0.0
C2193 C 0.12598 0.63965 0.20934 0.0
C2194 C 0.10985 0.6344 0.19624 0.0
H2195 H 0.15744 0.63623 0.21699 0.0
H2196 H 0.12394 0.6509 0.22109 0.0
S2197 S 0.11191 0.5954 0.15577 0.0
N2198 N 0.13498 0.59561 0.16543 0.0
N2199 N 0.09893 0.61248 0.16867 0.0
C2200 C 0.11334 0.61915 0.18177 0.0
C2201 C 0.1329 0.61002 0.18 0.0
C2202 C 0.84427 0.62243 0.21112 0.0
C2203 C 0.84981 0.60544 0.19926 0.0
C2204 C 0.85242 0.64172 0.20746 0.0
C2205 C 0.86731 0.64452 0.19266 0.0
H2206 H 0.83294 0.62112 0.22284 0.0
H2207 H 0.84707 0.65449 0.2163 0.0
S2208 S 0.89008 0.60456 0.16017 0.0
N2209 N 0.8727 0.5925 0.17351 0.0
N2210 N 0.88928 0.62839 0.16781 0.0
C2211 C 0.87439 0.62739 0.18199 0.0
C2212 C 0.86545 0.60792 0.18509 0.0
C2213 C 0.8578 0.3715 0.17145 0.0
C2214 C 0.84524 0.37177 0.18865 0.0
C2215 C 0.87751 0.3635 0.17249 0.0
C2216 C 0.88515 0.35584 0.19085 0.0
H2217 H 0.85197 0.37645 0.15693 0.0
H2218 H 0.88611 0.36191 0.15862 0.0
S2219 S 0.85932 0.35719 0.24082 0.0
N2220 N 0.84247 0.36642 0.22481 0.0
N2221 N 0.87963 0.35208 0.22714 0.0
C2222 C 0.87328 0.358 0.20847 0.0
C2223 C 0.85321 0.3657 0.20727 0.0
C2224 C 0.31251 0.63146 0.61651 0.0
C2225 C 0.29379 0.6359 0.6074 0.0
C2226 C 0.31352 0.62472 0.63666 0.0
C2227 C 0.29583 0.62179 0.64814 0.0
H2228 H 0.32649 0.634 0.60837 0.0
H2229 H 0.3282 0.62168 0.64324 0.0
S2230 S 0.24309 0.6292 0.63082 0.0
N2231 N 0.25711 0.63573 0.61115 0.0
N2232 N 0.25916 0.62229 0.64871 0.0
C2233 C 0.27705 0.62515 0.63895 0.0
C2234 C 0.27599 0.63236 0.61863 0.0
C2235 C 0.85235 0.7874 0.64932 0.0
C2236 C 0.8656 0.80365 0.65246 0.0
C2237 C 0.84488 0.78311 0.62995 0.0
C2238 C 0.8497 0.79544 0.61315 0.0
H2239 H 0.84795 0.77778 0.66187 0.0
H2240 H 0.83478 0.77029 0.62836 0.0
S2241 S 0.88513 0.83912 0.61359 0.0
N2242 N 0.88465 0.83125 0.63733 0.0
N2243 N 0.86972 0.82392 0.60098 0.0
C2244 C 0.86347 0.81145 0.6161 0.0
C2245 C 0.87155 0.81543 0.63577 0.0
C2246 C 0.65774 0.35057 0.62257 0.0
C2247 C 0.67629 0.35287 0.61231 0.0
C2248 C 0.65491 0.3587 0.64206 0.0
C2249 C 0.67027 0.37001 0.65158 0.0
H2250 H 0.64565 0.34171 0.61592 0.0
H2251 H 0.64059 0.35623 0.64963 0.0
S2252 S 0.72116 0.38131 0.6307 0.0
N2253 N 0.71003 0.36757 0.61297 0.0
N2254 N 0.70437 0.38363 0.64908 0.0
C2255 C 0.68857 0.37304 0.64116 0.0
C2256 C 0.69164 0.36432 0.62163 0.0
C2257 C 0.12506 0.1855 0.61918 0.0
C2258 C 0.14075 0.19947 0.61573 0.0
C2259 C 0.11664 0.18313 0.6385 0.0
C2260 C 0.1239 0.19429 0.65517 0.0
H2261 H 0.11961 0.17586 0.60705 0.0
H2262 H 0.10475 0.17199 0.64051 0.0
S2263 S 0.16268 0.23474 0.65397 0.0
N2264 N 0.16138 0.22653 0.63036 0.0
N2265 N 0.1463 0.22094 0.66688 0.0
C2266 C 0.139 0.20879 0.65192 0.0
C2267 C 0.14719 0.21171 0.63212 0.0
C2268 C 0.31709 0.35568 0.37243 0.0
C2269 C 0.29828 0.35367 0.38211 0.0
C2270 C 0.3184 0.36265 0.35244 0.0
C2271 C 0.30107 0.36882 0.34179 0.0
H2272 H 0.3308 0.35094 0.37996 0.0
H2273 H 0.33311 0.36336 0.34544 0.0
S2274 S 0.24834 0.36799 0.36078 0.0
N2275 N 0.26189 0.35866 0.37964 0.0
N2276 N 0.26464 0.37352 0.34262 0.0
C2277 C 0.28225 0.36778 0.35156 0.0
C2278 C 0.2808 0.35983 0.37162 0.0
C2279 C 0.11911 0.81176 0.35368 0.0
C2280 C 0.12215 0.79658 0.33902 0.0
C2281 C 0.12823 0.8105 0.37285 0.0
C2282 C 0.14045 0.79384 0.37807 0.0
H2283 H 0.11017 0.82505 0.35004 0.0
H2284 H 0.12628 0.82301 0.38332 0.0
S2285 S 0.1507 0.74884 0.34559 0.0
N2286 N 0.13679 0.76385 0.33121 0.0
N2287 N 0.15327 0.76078 0.36744 0.0
C2288 C 0.14258 0.778 0.36378 0.0
C2289 C 0.13364 0.77957 0.34416 0.0
C2290 C 0.66667 0.6342 0.34602 0.0
C2291 C 0.68277 0.62252 0.33842 0.0
C2292 C 0.66721 0.64215 0.36575 0.0
C2293 C 0.68429 0.63948 0.37818 0.0
H2294 H 0.65345 0.63698 0.33676 0.0
H2295 H 0.65456 0.65119 0.37093 0.0
S2296 S 0.73064 0.61059 0.36517 0.0
N2297 N 0.71606 0.60831 0.34495 0.0
N2298 N 0.71777 0.62463 0.38143 0.0
C2299 C 0.70056 0.62802 0.37066 0.0
C2300 C 0.69966 0.61923 0.35092 0.0
C2301 C 0.84928 0.20804 0.34182 0.0
C2302 C 0.86384 0.19307 0.33826 0.0
C2303 C 0.84132 0.21093 0.36129 0.0
C2304 C 0.84701 0.1984 0.3777 0.0
H2305 H 0.84422 0.21772 0.32958 0.0
H2306 H 0.83026 0.22285 0.36327 0.0
S2307 S 0.88551 0.15751 0.37596 0.0
N2308 N 0.88472 0.16639 0.3526 0.0
N2309 N 0.86889 0.17098 0.38895 0.0
C2310 C 0.86191 0.1836 0.37428 0.0
C2311 C 0.87046 0.1811 0.35458 0.0
C2312 C 0.13257 0.81846 0.62275 0.0
C2313 C 0.14506 0.80141 0.61996 0.0
C2314 C 0.11277 0.81638 0.6304 0.0
C2315 C 0.10496 0.79717 0.63537 0.0
H2316 H 0.13839 0.8335 0.61966 0.0
H2317 H 0.10413 0.82996 0.63367 0.0
S2318 S 0.13053 0.7477 0.62657 0.0
N2319 N 0.14749 0.7648 0.6198 0.0
N2320 N 0.11036 0.76062 0.63378 0.0
C2321 C 0.11683 0.77996 0.63078 0.0
C2322 C 0.13692 0.78215 0.62323 0.0
C2323 C 0.13097 0.19046 0.37579 0.0
C2324 C 0.14866 0.19835 0.36689 0.0
C2325 C 0.11235 0.19089 0.36557 0.0
C2326 C 0.11052 0.2001 0.34647 0.0
H2327 H 0.13171 0.18292 0.39035 0.0
H2328 H 0.09941 0.1836 0.37252 0.0
S2329 S 0.15184 0.2269 0.31887 0.0
N2330 N 0.16303 0.21735 0.33907 0.0
N2331 N 0.12777 0.22042 0.32079 0.0
C2332 C 0.12785 0.20979 0.33836 0.0
C2333 C 0.14701 0.20834 0.34832 0.0
C2334 C 0.29835 0.61919 0.36254 0.0
C2335 C 0.28948 0.61796 0.34325 0.0
C2336 C 0.30016 0.6378 0.37259 0.0
C2337 C 0.2936 0.65597 0.36355 0.0
H2338 H 0.30443 0.60578 0.36977 0.0
H2339 H 0.30766 0.63804 0.38719 0.0
S2340 S 0.26703 0.66097 0.31447 0.0
N2341 N 0.27173 0.63647 0.31659 0.0
N2342 N 0.27651 0.67156 0.33506 0.0
C2343 C 0.28402 0.65497 0.34467 0.0
C2344 C 0.28156 0.63592 0.33465 0.0
C2345 C 0.84583 0.78304 0.3492 0.0
C2346 C 0.84392 0.79562 0.36616 0.0
C2347 C 0.86421 0.78167 0.33875 0.0
C2348 C 0.8811 0.79367 0.34421 0.0
H2349 H 0.83302 0.77421 0.34394 0.0
H2350 H 0.86484 0.77155 0.32589 0.0
S2351 S 0.88409 0.828 0.3886 0.0
N2352 N 0.86081 0.81888 0.38928 0.0
N2353 N 0.89495 0.81755 0.36862 0.0
C2354 C 0.87953 0.80585 0.36159 0.0
C2355 C 0.86101 0.80657 0.37277 0.0
C2356 C 0.67064 0.35277 0.37275 0.0
C2357 C 0.68583 0.33785 0.37209 0.0
C2358 C 0.67394 0.37214 0.36455 0.0
C2359 C 0.69265 0.37726 0.35573 0.0
H2360 H 0.65593 0.34922 0.37909 0.0
H2361 H 0.66147 0.38281 0.36435 0.0
S2362 S 0.73839 0.34433 0.35399 0.0
N2363 N 0.72071 0.32988 0.36418 0.0
N2364 N 0.72748 0.36643 0.34964 0.0
C2365 C 0.70842 0.36279 0.3565 0.0
C2366 C 0.70484 0.34299 0.36438 0.0
C2367 C 0.87819 0.18285 0.63187 0.0
C2368 C 0.88397 0.19985 0.64338 0.0
C2369 C 0.85935 0.18229 0.62198 0.0
C2370 C 0.84571 0.19858 0.62359 0.0
H2371 H 0.88776 0.16953 0.63131 0.0
H2372 H 0.85506 0.16871 0.61377 0.0
S2373 S 0.85456 0.24762 0.64923 0.0
N2374 N 0.87537 0.23441 0.65349 0.0
N2375 N 0.83973 0.23271 0.63566 0.0
C2376 C 0.85164 0.21598 0.63407 0.0
C2377 C 0.8709 0.21681 0.64371 0.0
C2378 C 0.29154 0.35381 0.61418 0.0
C2379 C 0.28639 0.33586 0.62453 0.0
C2380 C 0.29237 0.37253 0.62429 0.0
C2381 C 0.28744 0.37406 0.64494 0.0
H2382 H 0.29661 0.35321 0.59858 0.0
H2383 H 0.2978 0.38566 0.61609 0.0
S2384 S 0.26745 0.3323 0.67716 0.0
N2385 N 0.27309 0.32124 0.65545 0.0
N2386 N 0.27296 0.35652 0.67409 0.0
C2387 C 0.27983 0.35658 0.65471 0.0
C2388 C 0.27973 0.33743 0.6446 0.0
C2389 C 0.6779 0.61386 0.62431 0.0
C2390 C 0.6963 0.60915 0.63392 0.0
C2391 C 0.67432 0.6334 0.61666 0.0
C2392 C 0.68899 0.64878 0.61853 0.0
H2393 H 0.66588 0.60273 0.62349 0.0
H2394 H 0.6598 0.63668 0.60975 0.0
S2395 S 0.7409 0.64334 0.63869 0.0
N2396 N 0.73048 0.6208 0.64191 0.0
N2397 N 0.72326 0.65757 0.62813 0.0
C2398 C 0.70783 0.64398 0.62681 0.0
C2399 C 0.71166 0.62409 0.63424 0.0
C2400 C 0.62144 0.11448 0.79802 0.0
C2401 C 0.63698 0.11119 0.78385 0.0
C2402 C 0.61185 0.13342 0.79952 0.0
C2403 C 0.618 0.14994 0.7875 0.0
H2404 H 0.6171 0.10261 0.80848 0.0
H2405 H 0.60013 0.13538 0.81083 0.0
S2406 S 0.65493 0.14848 0.74549 0.0
N2407 N 0.65529 0.12531 0.75495 0.0
N2408 N 0.63855 0.1613 0.75938 0.0
C2409 C 0.63259 0.14665 0.77255 0.0
C2410 C 0.64172 0.12715 0.77032 0.0
C2411 C 0.36125 0.13949 0.77663 0.0
C2412 C 0.37847 0.13482 0.78845 0.0
C2413 C 0.34244 0.1305 0.78044 0.0
C2414 C 0.34041 0.11564 0.79539 0.0
H2415 H 0.36198 0.15077 0.76479 0.0
H2416 H 0.32944 0.13517 0.77159 0.0
S2417 S 0.38139 0.09483 0.82776 0.0
N2418 N 0.39258 0.11268 0.81426 0.0
N2419 N 0.35752 0.09455 0.8203 0.0
C2420 C 0.3578 0.1094 0.80605 0.0
C2421 C 0.3768 0.11919 0.80276 0.0
C2422 C 0.36867 0.84997 0.80654 0.0
C2423 C 0.36344 0.83313 0.79454 0.0
C2424 C 0.35805 0.86831 0.805 0.0
C2425 C 0.34215 0.87063 0.791 0.0
H2426 H 0.38066 0.84875 0.81767 0.0
H2427 H 0.3621 0.88059 0.81513 0.0
S2428 S 0.32467 0.83154 0.75417 0.0
N2429 N 0.34245 0.82003 0.76746 0.0
N2430 N 0.3233 0.85482 0.76332 0.0
C2431 C 0.33763 0.85412 0.77807 0.0
C2432 C 0.34805 0.83525 0.78018 0.0
C2433 C 0.64706 0.85129 0.78362 0.0
C2434 C 0.65065 0.86665 0.7978 0.0
C2435 C 0.62774 0.84267 0.78166 0.0
C2436 C 0.61154 0.84848 0.7944 0.0
H2437 H 0.65915 0.8461 0.77381 0.0
H2438 H 0.62574 0.83102 0.77029 0.0
S2439 S 0.61339 0.8887 0.83365 0.0
N2440 N 0.63647 0.88825 0.82406 0.0
N2441 N 0.6005 0.87116 0.82126 0.0
C2442 C 0.61497 0.8641 0.80845 0.0
C2443 C 0.63448 0.87333 0.80998 0.0
C2444 C 0.64041 0.86341 0.17044 0.0
C2445 C 0.63585 0.87607 0.18691 0.0
C2446 C 0.63325 0.84343 0.16965 0.0
C2447 C 0.61991 0.83585 0.18442 0.0
H2448 H 0.65031 0.86864 0.15852 0.0
H2449 H 0.63803 0.83396 0.15721 0.0
S2450 S 0.60346 0.86308 0.23081 0.0
N2451 N 0.6183 0.87942 0.219 0.0
N2452 N 0.60275 0.84263 0.21633 0.0
C2453 C 0.61495 0.84854 0.20086 0.0
C2454 C 0.6233 0.86849 0.20228 0.0
C2455 C 0.62496 0.14388 0.20496 0.0
C2456 C 0.61042 0.14228 0.18932 0.0
C2457 C 0.64378 0.13418 0.20365 0.0
C2458 C 0.64853 0.12203 0.18695 0.0
H2459 H 0.62213 0.15328 0.21812 0.0
H2460 H 0.6547 0.13625 0.21574 0.0
S2461 S 0.61572 0.11137 0.14265 0.0
N2462 N 0.60204 0.12672 0.15695 0.0
N2463 N 0.63725 0.1079 0.15491 0.0
C2464 C 0.63395 0.11942 0.17166 0.0
C2465 C 0.61488 0.12961 0.17277 0.0
C2466 C 0.35435 0.12412 0.2059 0.0
C2467 C 0.35312 0.11097 0.18901 0.0
C2468 C 0.36247 0.14366 0.20425 0.0
C2469 C 0.3702 0.15058 0.1858 0.0
H2470 H 0.34806 0.11971 0.22039 0.0
H2471 H 0.36248 0.1535 0.21741 0.0
S2472 S 0.37358 0.12163 0.13779 0.0
N2473 N 0.36227 0.10591 0.15366 0.0
N2474 N 0.37823 0.14251 0.15084 0.0
C2475 C 0.37059 0.13724 0.1692 0.0
C2476 C 0.36199 0.11738 0.17075 0.0
C2477 C 0.35422 0.84342 0.20652 0.0
C2478 C 0.37253 0.85182 0.19936 0.0
C2479 C 0.33553 0.85269 0.20265 0.0
C2480 C 0.33447 0.8712 0.19229 0.0
H2481 H 0.35408 0.82922 0.2146 0.0
H2482 H 0.32181 0.84525 0.20773 0.0
S2483 S 0.37811 0.90107 0.17294 0.0
N2484 N 0.38846 0.88053 0.18278 0.0
N2485 N 0.3535 0.89867 0.17658 0.0
C2486 C 0.35275 0.88054 0.18633 0.0
C2487 C 0.37172 0.87071 0.18964 0.0
C2488 C 0.78442 0.15479 0.62868 0.0
C2489 C 0.79491 0.14805 0.61127 0.0
C2490 C 0.78628 0.1448 0.64733 0.0
C2491 C 0.79786 0.12711 0.64904 0.0
H2492 H 0.77515 0.16827 0.62821 0.0
H2493 H 0.77861 0.15096 0.66047 0.0
S2494 S 0.8262 0.10151 0.60771 0.0
N2495 N 0.81624 0.12173 0.59684 0.0
N2496 N 0.81864 0.10217 0.63153 0.0
C2497 C 0.8073 0.11937 0.63152 0.0
C2498 C 0.80604 0.12998 0.61271 0.0
C2499 C 0.36469 0.29133 0.64147 0.0
C2500 C 0.3642 0.30985 0.65199 0.0
C2501 C 0.35528 0.28927 0.62254 0.0
C2502 C 0.34588 0.30589 0.61306 0.0
H2503 H 0.37226 0.27832 0.648 0.0
H2504 H 0.3554 0.27455 0.61524 0.0
S2505 S 0.34142 0.35784 0.63405 0.0
N2506 N 0.35347 0.34496 0.65176 0.0
N2507 N 0.33722 0.34162 0.61544 0.0
C2508 C 0.34579 0.32462 0.62322 0.0
C2509 C 0.35456 0.32645 0.6429 0.0
C2510 C 0.17899 0.86483 0.61384 0.0
C2511 C 0.19518 0.85158 0.60996 0.0
C2512 C 0.17617 0.87326 0.63315 0.0
C2513 C 0.189 0.86817 0.64943 0.0
H2514 H 0.16796 0.86812 0.60216 0.0
H2515 H 0.16334 0.8832 0.63553 0.0
S2516 S 0.2358 0.83759 0.64651 0.0
N2517 N 0.22636 0.83682 0.62335 0.0
N2518 N 0.21983 0.85137 0.65996 0.0
C2519 C 0.20586 0.85599 0.64557 0.0
C2520 C 0.20928 0.84807 0.62572 0.0
C2521 C 0.62081 0.67325 0.63714 0.0
C2522 C 0.62092 0.68962 0.6508 0.0
C2523 C 0.62766 0.67558 0.61716 0.0
C2524 C 0.63476 0.69444 0.61019 0.0
H2525 H 0.61545 0.65852 0.64198 0.0
H2526 H 0.62806 0.66238 0.60739 0.0
S2527 S 0.63636 0.74235 0.63987 0.0
N2528 N 0.6274 0.72539 0.65593 0.0
N2529 N 0.64032 0.73005 0.61842 0.0
C2530 C 0.63427 0.71107 0.62367 0.0
C2531 C 0.62735 0.7086 0.64398 0.0
C2532 C 0.81877 0.85132 0.3718 0.0
C2533 C 0.80095 0.84954 0.38329 0.0
C2534 C 0.81832 0.8594 0.35215 0.0
C2535 C 0.80016 0.86659 0.3437 0.0
H2536 H 0.83292 0.84544 0.37754 0.0
H2537 H 0.83223 0.86 0.34352 0.0
S2538 S 0.74973 0.86686 0.3681 0.0
N2539 N 0.76479 0.85618 0.385 0.0
N2540 N 0.76426 0.87262 0.34857 0.0
C2541 C 0.78247 0.86587 0.35537 0.0
C2542 C 0.78279 0.85705 0.37508 0.0
C2543 C 0.61269 0.31013 0.35747 0.0
C2544 C 0.6184 0.29712 0.34157 0.0
C2545 C 0.61968 0.30703 0.37725 0.0
C2546 C 0.63211 0.2904 0.38194 0.0
H2547 H 0.60324 0.32321 0.3545 0.0
H2548 H 0.61589 0.31814 0.38873 0.0
S2549 S 0.64737 0.24942 0.34626 0.0
N2550 N 0.63497 0.26581 0.33199 0.0
N2551 N 0.64688 0.25882 0.36946 0.0
C2552 C 0.63634 0.27624 0.3664 0.0
C2553 C 0.62985 0.27991 0.34611 0.0
C2554 C 0.2 0.12577 0.35426 0.0
C2555 C 0.18158 0.12391 0.34387 0.0
C2556 C 0.20074 0.13466 0.37355 0.0
C2557 C 0.18304 0.14152 0.38331 0.0
H2558 H 0.21397 0.12089 0.34719 0.0
H2559 H 0.21541 0.13676 0.38062 0.0
S2560 S 0.13076 0.13785 0.36302 0.0
N2561 N 0.14514 0.12832 0.34491 0.0
N2562 N 0.14633 0.14426 0.38156 0.0
C2563 C 0.16437 0.13859 0.37347 0.0
C2564 C 0.16371 0.13002 0.35359 0.0
C2565 C 0.34993 0.66895 0.36599 0.0
C2566 C 0.35174 0.68721 0.3769 0.0
C2567 C 0.35728 0.66731 0.3461 0.0
C2568 C 0.36736 0.68358 0.33675 0.0
H2569 H 0.34208 0.65612 0.37254 0.0
H2570 H 0.35535 0.6531 0.33815 0.0
S2571 S 0.37611 0.73451 0.35886 0.0
N2572 N 0.36387 0.72198 0.37672 0.0
N2573 N 0.37882 0.71844 0.33985 0.0
C2574 C 0.36956 0.70176 0.34762 0.0
C2575 C 0.3615 0.70366 0.36757 0.0
C2576 C 0.61752 0.29818 0.62747 0.0
C2577 C 0.61617 0.29238 0.64789 0.0
C2578 C 0.63625 0.29904 0.61758 0.0
C2579 C 0.65439 0.29477 0.62793 0.0
H2580 H 0.60407 0.30252 0.61914 0.0
H2581 H 0.63659 0.30423 0.60202 0.0
S2582 S 0.65925 0.27646 0.68061 0.0
N2583 N 0.63469 0.27971 0.6773 0.0
N2584 N 0.66994 0.28304 0.659 0.0
C2585 C 0.65331 0.2882 0.64802 0.0
C2586 C 0.63417 0.28655 0.65792 0.0
C2587 C 0.61584 0.69342 0.36093 0.0
C2588 C 0.61449 0.70483 0.34303 0.0
C2589 C 0.63435 0.69094 0.37093 0.0
C2590 C 0.65233 0.69932 0.36314 0.0
H2591 H 0.60264 0.68576 0.36697 0.0
H2592 H 0.63471 0.68157 0.3844 0.0
S2593 S 0.65677 0.73321 0.31879 0.0
N2594 N 0.63249 0.72725 0.31973 0.0
N2595 N 0.66753 0.72111 0.33785 0.0
C2596 C 0.65118 0.71154 0.34589 0.0
C2597 C 0.63217 0.71472 0.33605 0.0
C2598 C 0.77804 0.14719 0.35852 0.0
C2599 C 0.79472 0.15268 0.37039 0.0
C2600 C 0.77638 0.12754 0.3506 0.0
C2601 C 0.79163 0.11283 0.35373 0.0
H2602 H 0.76622 0.15813 0.35537 0.0
H2603 H 0.76325 0.12411 0.34138 0.0
S2604 S 0.8384 0.12013 0.38403 0.0
N2605 N 0.82652 0.14212 0.38553 0.0
N2606 N 0.82383 0.10535 0.37001 0.0
C2607 C 0.80824 0.11815 0.36595 0.0
C2608 C 0.8097 0.13807 0.37436 0.0
C2609 C 0.36408 0.28825 0.34134 0.0
C2610 C 0.3803 0.3013 0.34647 0.0
C2611 C 0.34559 0.28896 0.35163 0.0
C2612 C 0.34294 0.30179 0.36829 0.0
H2613 H 0.36524 0.27784 0.32875 0.0
H2614 H 0.33325 0.27944 0.34644 0.0
S2615 S 0.3816 0.33613 0.39052 0.0
N2616 N 0.39293 0.32612 0.37057 0.0
N2617 N 0.35877 0.3259 0.39131 0.0
C2618 C 0.35953 0.31355 0.37485 0.0
C2619 C 0.37809 0.31363 0.36366 0.0
C2620 C 0.18265 0.87657 0.36245 0.0
C2621 C 0.19965 0.88151 0.3506 0.0
C2622 C 0.18041 0.85713 0.37071 0.0
C2623 C 0.19491 0.84194 0.36714 0.0
H2624 H 0.17063 0.88749 0.36473 0.0
H2625 H 0.16693 0.85377 0.37945 0.0
S2626 S 0.24341 0.84767 0.3398 0.0
N2627 N 0.23245 0.8701 0.33793 0.0
N2628 N 0.22754 0.83336 0.35279 0.0
C2629 C 0.21231 0.8468 0.35615 0.0
C2630 C 0.21489 0.86669 0.34812 0.0
C2631 C 0.3517 0.67506 0.61718 0.0
C2632 C 0.3364 0.68929 0.62142 0.0
C2633 C 0.37106 0.67684 0.62577 0.0
C2634 C 0.37596 0.69326 0.63845 0.0
H2635 H 0.34855 0.66223 0.60744 0.0
H2636 H 0.38203 0.66497 0.62289 0.0
S2637 S 0.34195 0.73645 0.6512 0.0
N2638 N 0.32771 0.72116 0.6374 0.0
N2639 N 0.36437 0.72545 0.65262 0.0
C2640 C 0.36105 0.70834 0.64162 0.0
C2641 C 0.34118 0.70611 0.63336 0.0
C2642 C 0.7813 0.84454 0.63362 0.0
C2643 C 0.79721 0.83931 0.62067 0.0
C2644 C 0.77952 0.86433 0.64113 0.0
C2645 C 0.79399 0.87946 0.63654 0.0
H2646 H 0.77014 0.83329 0.63793 0.0
H2647 H 0.76693 0.86756 0.65112 0.0
S2648 S 0.83837 0.87308 0.60273 0.0
N2649 N 0.82727 0.85063 0.60275 0.0
N2650 N 0.82447 0.88768 0.61757 0.0
C2651 C 0.80978 0.87442 0.6232 0.0
C2652 C 0.81129 0.85434 0.61517 0.0
C2653 C 0.20498 0.13662 0.62965 0.0
C2654 C 0.18731 0.14375 0.62041 0.0
C2655 C 0.20558 0.11731 0.63834 0.0
C2656 C 0.18829 0.10471 0.63875 0.0
H2657 H 0.21834 0.14615 0.63043 0.0
H2658 H 0.2195 0.11269 0.64568 0.0
S2659 S 0.13863 0.11633 0.61518 0.0
N2660 N 0.15259 0.13661 0.61065 0.0
N2661 N 0.15336 0.10045 0.62774 0.0
C2662 C 0.17078 0.11137 0.62863 0.0
C2663 C 0.17035 0.13095 0.61937 0.0
C2664 C 0.62484 0.6362 0.28005 0.0
C2665 C 0.61744 0.6448 0.29792 0.0
C2666 C 0.63134 0.61606 0.27965 0.0
C2667 C 0.63148 0.60402 0.29734 0.0
H2668 H 0.62591 0.64521 0.26637 0.0
H2669 H 0.63759 0.61032 0.26559 0.0
S2670 S 0.61098 0.61918 0.34741 0.0
N2671 N 0.60801 0.63949 0.33307 0.0
N2672 N 0.62146 0.60177 0.33274 0.0
C2673 C 0.62276 0.6121 0.31501 0.0
C2674 C 0.61556 0.63255 0.31521 0.0
C2675 C 0.38154 0.62489 0.31674 0.0
C2676 C 0.39106 0.62981 0.29833 0.0
C2677 C 0.36209 0.61615 0.31689 0.0
C2678 C 0.35179 0.61218 0.29867 0.0
H2679 H 0.38822 0.62951 0.33101 0.0
H2680 H 0.35451 0.61389 0.33126 0.0
S2681 S 0.37196 0.61793 0.24677 0.0
N2682 N 0.39018 0.62658 0.26161 0.0
N2683 N 0.35355 0.61067 0.26206 0.0
C2684 C 0.36197 0.61503 0.28034 0.0
C2685 C 0.38173 0.62363 0.28015 0.0
C2686 C 0.36585 0.36136 0.31669 0.0
C2687 C 0.36959 0.35133 0.29826 0.0
C2688 C 0.35804 0.3812 0.317 0.0
C2689 C 0.35317 0.39121 0.29888 0.0
H2690 H 0.36852 0.35363 0.33093 0.0
H2691 H 0.35432 0.38806 0.33144 0.0
S2692 S 0.36382 0.37273 0.24684 0.0
N2693 N 0.37101 0.3539 0.26168 0.0
N2694 N 0.35553 0.39077 0.26211 0.0
C2695 C 0.35857 0.38191 0.28044 0.0
C2696 C 0.36687 0.36198 0.28016 0.0
C2697 C 0.64358 0.35836 0.31829 0.0
C2698 C 0.65394 0.36646 0.30157 0.0
C2699 C 0.62309 0.35294 0.31689 0.0
C2700 C 0.61253 0.35466 0.29851 0.0
H2701 H 0.65126 0.35645 0.33261 0.0
H2702 H 0.61578 0.34647 0.33003 0.0
S2703 S 0.63283 0.3751 0.25034 0.0
N2704 N 0.65199 0.37682 0.26636 0.0
N2705 N 0.61388 0.36505 0.26324 0.0
C2706 C 0.62273 0.36275 0.28168 0.0
C2707 C 0.64336 0.36903 0.28333 0.0
C2708 C 0.60636 0.36809 0.67646 0.0
C2709 C 0.60339 0.35691 0.69433 0.0
C2710 C 0.61411 0.38794 0.67722 0.0
C2711 C 0.61888 0.397 0.69594 0.0
H2712 H 0.60441 0.36085 0.66184 0.0
H2713 H 0.61855 0.39517 0.66318 0.0
S2714 S 0.60849 0.37568 0.74687 0.0
N2715 N 0.60207 0.35739 0.731 0.0
N2716 N 0.61591 0.39486 0.7326 0.0
C2717 C 0.61307 0.3869 0.71381 0.0
C2718 C 0.60567 0.36667 0.71299 0.0
C2719 C 0.64393 0.63184 0.70395 0.0
C2720 C 0.64963 0.62146 0.68638 0.0
C2721 C 0.62401 0.63873 0.70647 0.0
C2722 C 0.6092 0.63617 0.69119 0.0
H2723 H 0.65492 0.63463 0.71583 0.0
H2724 H 0.62046 0.64682 0.7203 0.0
S2725 S 0.61648 0.60805 0.64305 0.0
N2726 N 0.6388 0.60704 0.65432 0.0
N2727 N 0.60158 0.62095 0.65848 0.0
C2728 C 0.61462 0.62499 0.67388 0.0
C2729 C 0.63482 0.6175 0.67159 0.0
C2730 C 0.36594 0.6307 0.67322 0.0
C2731 C 0.36559 0.64426 0.68968 0.0
C2732 C 0.35649 0.61165 0.67449 0.0
C2733 C 0.34651 0.6056 0.69231 0.0
H2734 H 0.37291 0.63518 0.65905 0.0
H2735 H 0.35612 0.60211 0.66113 0.0
S2736 S 0.34469 0.63457 0.74067 0.0
N2737 N 0.35666 0.64974 0.72481 0.0
N2738 N 0.33947 0.6138 0.72767 0.0
C2739 C 0.34754 0.61856 0.70934 0.0
C2740 C 0.35685 0.638 0.70788 0.0
C2741 C 0.36859 0.38049 0.67597 0.0
C2742 C 0.35571 0.37923 0.6929 0.0
C2743 C 0.38766 0.37094 0.6761 0.0
C2744 C 0.39459 0.3608 0.69353 0.0
H2745 H 0.36315 0.38714 0.66201 0.0
H2746 H 0.39611 0.37003 0.66208 0.0
S2747 S 0.36951 0.36057 0.74389 0.0
N2748 N 0.35298 0.37157 0.72869 0.0
N2749 N 0.38943 0.35542 0.72969 0.0
C2750 C 0.38322 0.36281 0.71149 0.0
C2751 C 0.36355 0.37156 0.71102 0.0
C2752 C 0.78146 0.6286 0.14599 0.0
C2753 C 0.79972 0.61964 0.15176 0.0
C2754 C 0.77925 0.63702 0.12672 0.0
C2755 C 0.79545 0.63741 0.11273 0.0
H2756 H 0.76884 0.62916 0.15646 0.0
H2757 H 0.7649 0.64414 0.12318 0.0
S2758 S 0.84589 0.61395 0.1204 0.0
N2759 N 0.8337 0.6097 0.14183 0.0
N2760 N 0.82991 0.62641 0.10569 0.0
C2761 C 0.8135 0.62747 0.11804 0.0
C2762 C 0.81558 0.61848 0.13762 0.0
C2763 C 0.36434 0.80794 0.11387 0.0
C2764 C 0.35226 0.79105 0.1091 0.0
C2765 C 0.37242 0.81037 0.13342 0.0
C2766 C 0.36837 0.79614 0.14876 0.0
H2767 H 0.36651 0.81995 0.10291 0.0
H2768 H 0.38093 0.824 0.13685 0.0
S2769 S 0.34236 0.74686 0.14269 0.0
N2770 N 0.34054 0.75775 0.12026 0.0
N2771 N 0.35475 0.76311 0.15715 0.0
C2772 C 0.35797 0.7784 0.14373 0.0
C2773 C 0.35027 0.77559 0.12378 0.0
C2774 C 0.20522 0.35304 0.14281 0.0
C2775 C 0.1868 0.36093 0.14972 0.0
C2776 C 0.20702 0.34551 0.12301 0.0
C2777 C 0.19043 0.3455 0.1095 0.0
H2778 H 0.21831 0.35279 0.15271 0.0
H2779 H 0.22147 0.33925 0.11842 0.0
S2780 S 0.13888 0.36486 0.12081 0.0
N2781 N 0.15181 0.36881 0.14187 0.0
N2782 N 0.15496 0.35439 0.10475 0.0
C2783 C 0.17198 0.35373 0.11629 0.0
C2784 C 0.17024 0.36146 0.13642 0.0
C2785 C 0.62773 0.17488 0.13585 0.0
C2786 C 0.62188 0.19295 0.14549 0.0
C2787 C 0.63356 0.1748 0.11543 0.0
C2788 C 0.63437 0.19292 0.10427 0.0
H2789 H 0.62781 0.16073 0.14414 0.0
H2790 H 0.63868 0.16073 0.10876 0.0
S2791 S 0.6194 0.24397 0.12238 0.0
N2792 N 0.61564 0.22903 0.1421 0.0
N2793 N 0.62804 0.2292 0.10408 0.0
C2794 C 0.628 0.21096 0.11364 0.0
C2795 C 0.62142 0.21091 0.13419 0.0
C2796 C 0.78314 0.36081 0.84642 0.0
C2797 C 0.80126 0.37007 0.84061 0.0
C2798 C 0.78063 0.35353 0.86612 0.0
C2799 C 0.79637 0.35471 0.88056 0.0
H2800 H 0.771 0.35879 0.83555 0.0
H2801 H 0.76659 0.34578 0.86964 0.0
S2802 S 0.84562 0.38079 0.87327 0.0
N2803 N 0.83417 0.38273 0.85109 0.0
N2804 N 0.82982 0.3683 0.88816 0.0
C2805 C 0.81404 0.36537 0.87528 0.0
C2806 C 0.81644 0.37312 0.8552 0.0
C2807 C 0.64397 0.77928 0.86521 0.0
C2808 C 0.64282 0.79515 0.87956 0.0
C2809 C 0.63392 0.78039 0.84657 0.0
C2810 C 0.62178 0.7971 0.84183 0.0
H2811 H 0.65342 0.76615 0.86798 0.0
H2812 H 0.63584 0.76821 0.83572 0.0
S2813 S 0.61224 0.84201 0.87424 0.0
N2814 N 0.62766 0.82774 0.88784 0.0
N2815 N 0.60818 0.82945 0.85296 0.0
C2816 C 0.61952 0.81259 0.8563 0.0
C2817 C 0.63011 0.81168 0.87519 0.0
C2818 C 0.16794 0.63834 0.86822 0.0
C2819 C 0.18544 0.63543 0.87999 0.0
C2820 C 0.16663 0.63053 0.84848 0.0
C2821 C 0.18237 0.61879 0.84024 0.0
H2822 H 0.15559 0.64748 0.87391 0.0
H2823 H 0.15313 0.63352 0.83971 0.0
S2824 S 0.23106 0.60626 0.86514 0.0
N2825 N 0.21889 0.62027 0.88196 0.0
N2826 N 0.21574 0.60426 0.84545 0.0
C2827 C 0.19965 0.61525 0.85209 0.0
C2828 C 0.20133 0.62386 0.87184 0.0
C2829 C 0.34643 0.20269 0.86199 0.0
C2830 C 0.3489 0.18644 0.87572 0.0
C2831 C 0.35386 0.20168 0.84216 0.0
C2832 C 0.36458 0.18466 0.83555 0.0
H2833 H 0.33802 0.21611 0.86628 0.0
H2834 H 0.35124 0.21428 0.83198 0.0
S2835 S 0.37738 0.13904 0.86566 0.0
N2836 N 0.36416 0.15336 0.88139 0.0
N2837 N 0.3788 0.15186 0.84422 0.0
C2838 C 0.36827 0.16882 0.84928 0.0
C2839 C 0.36039 0.16966 0.86941 0.0
C2840 C 0.60573 0.82687 0.12824 0.0
C2841 C 0.59507 0.8084 0.12899 0.0
C2842 C 0.62515 0.82782 0.11953 0.0
C2843 C 0.6342 0.81044 0.11119 0.0
H2844 H 0.6 0.84009 0.13613 0.0
H2845 H 0.63362 0.84187 0.12045 0.0
S2846 S 0.6106 0.75993 0.10503 0.0
N2847 N 0.59353 0.77341 0.11741 0.0
N2848 N 0.62986 0.77539 0.10099 0.0
C2849 C 0.62272 0.79267 0.10965 0.0
C2850 C 0.60311 0.79162 0.11856 0.0
C2851 C 0.63844 0.16938 0.85188 0.0
C2852 C 0.64705 0.18623 0.86172 0.0
C2853 C 0.61851 0.16998 0.84451 0.0
C2854 C 0.60685 0.18772 0.84595 0.0
H2855 H 0.64708 0.15561 0.84998 0.0
H2856 H 0.61259 0.1568 0.83677 0.0
S2857 S 0.62236 0.23587 0.87052 0.0
N2858 N 0.64214 0.22079 0.87337 0.0
N2859 N 0.60522 0.22246 0.85812 0.0
C2860 C 0.61526 0.20462 0.85586 0.0
C2861 C 0.63524 0.20375 0.86407 0.0
C2862 C 0.78751 0.62377 0.84587 0.0
C2863 C 0.7989 0.60631 0.85077 0.0
C2864 C 0.79059 0.64225 0.8558 0.0
C2865 C 0.80431 0.6438 0.87185 0.0
H2866 H 0.77661 0.62354 0.83363 0.0
H2867 H 0.78222 0.65546 0.85079 0.0
S2868 S 0.83518 0.60202 0.8934 0.0
N2869 N 0.82316 0.59146 0.87412 0.0
N2870 N 0.8275 0.62585 0.89417 0.0
C2871 C 0.81445 0.62613 0.87827 0.0
C2872 C 0.81203 0.60743 0.86747 0.0
C2873 C 0.3469 0.78287 0.85944 0.0
C2874 C 0.33975 0.80141 0.86685 0.0
C2875 C 0.36645 0.78127 0.85141 0.0
C2876 C 0.37946 0.79823 0.85021 0.0
H2877 H 0.33735 0.76952 0.85992 0.0
H2878 H 0.37118 0.76666 0.84557 0.0
S2879 S 0.36758 0.85016 0.86838 0.0
N2880 N 0.34697 0.83688 0.87342 0.0
N2881 N 0.38367 0.83412 0.85785 0.0
C2882 C 0.37253 0.8168 0.85809 0.0
C2883 C 0.35264 0.81833 0.86647 0.0
C2884 C 0.18022 0.36779 0.85703 0.0
C2885 C 0.19783 0.37294 0.84624 0.0
C2886 C 0.178 0.34854 0.86574 0.0
C2887 C 0.19325 0.3338 0.86383 0.0
H2888 H 0.1678 0.37844 0.85824 0.0
H2889 H 0.16411 0.34503 0.87373 0.0
S2890 S 0.24352 0.34037 0.84021 0.0
N2891 N 0.23198 0.3623 0.83668 0.0
N2892 N 0.22714 0.32592 0.8524 0.0
C2893 C 0.21124 0.33891 0.85403 0.0
C2894 C 0.21376 0.3586 0.8455 0.0
C2895 C 0.36418 0.2113 0.1406 0.0
C2896 C 0.38084 0.19916 0.13477 0.0
C2897 C 0.34487 0.20827 0.13239 0.0
C2898 C 0.34175 0.19383 0.11718 0.0
H2899 H 0.36575 0.2228 0.15217 0.0
H2900 H 0.33233 0.2173 0.13794 0.0
S2901 S 0.38084 0.1608 0.09372 0.0
N2902 N 0.39319 0.17355 0.11138 0.0
N2903 N 0.35722 0.16895 0.09472 0.0
C2904 C 0.35856 0.18285 0.10988 0.0
C2905 C 0.37806 0.18532 0.11887 0.0
C2906 C 0.78002 0.35743 0.14889 0.0
C2907 C 0.78783 0.37535 0.14016 0.0
C2908 C 0.78279 0.33847 0.13973 0.0
C2909 C 0.79248 0.33681 0.12096 0.0
H2910 H 0.77232 0.35777 0.1633 0.0
H2911 H 0.77745 0.32501 0.14748 0.0
S2912 S 0.81289 0.37913 0.09006 0.0
N2913 N 0.80421 0.39022 0.11076 0.0
N2914 N 0.80813 0.35471 0.09281 0.0
C2915 C 0.7989 0.35468 0.11121 0.0
C2916 C 0.79683 0.37393 0.12095 0.0
C2917 C 0.17181 0.61222 0.13045 0.0
C2918 C 0.1907 0.6049 0.13702 0.0
C2919 C 0.16987 0.63195 0.12265 0.0
C2920 C 0.18674 0.64488 0.12115 0.0
H2921 H 0.15834 0.60302 0.13207 0.0
H2922 H 0.15506 0.63724 0.11805 0.0
S2923 S 0.23979 0.63244 0.13391 0.0
N2924 N 0.22691 0.61176 0.1397 0.0
N2925 N 0.22297 0.64874 0.12514 0.0
C2926 C 0.20577 0.63751 0.12667 0.0
C2927 C 0.20783 0.6175 0.13453 0.0
C2928 C 0.97902 0.19822 0.3158 0.0
C2929 C 0.96999 0.18052 0.30797 0.0
C2930 C -1e-05 0.19933 0.31917 0.0
C2931 C 0.01258 0.18261 0.31521 0.0
H2932 H 0.96988 0.21152 0.31883 0.0
H2933 H 0.00638 0.21352 0.32442 0.0
S2934 S -0.00438 0.13179 0.29726 0.0
N2935 N 0.97473 0.14549 0.29793 0.0
N2936 N 0.01394 0.14706 0.30485 0.0
C2937 C 0.00344 0.16444 0.30838 0.0
C2938 C 0.9822 0.16353 0.30455 0.0
C2939 C 0.81358 0.00818 0.3015 0.0
C2940 C 0.80013 0.01709 0.31549 0.0
C2941 C 0.81521 0.98709 0.29954 0.0
C2942 C 0.80368 0.97401 0.31172 0.0
H2943 H 0.82274 0.01757 0.29164 0.0
H2944 H 0.8256 0.98103 0.28838 0.0
S2945 S 0.76668 0.9896 0.35122 0.0
N2946 N 0.77531 0.01119 0.34197 0.0
N2947 N 0.77854 0.97151 0.33862 0.0
C2948 C 0.7904 0.98269 0.32606 0.0
C2949 C 0.78856 0.00423 0.32784 0.0
C2950 C 0.00737 0.79668 0.31297 0.0
C2951 C 0.01669 0.8113 0.3005 0.0
C2952 C 0.98625 0.7945 0.31357 0.0
C2953 C 0.97363 0.80708 0.30197 0.0
H2954 H 0.01646 0.78657 0.32215 0.0
H2955 H 0.97981 0.78297 0.3233 0.0
S2956 S 0.99045 0.84796 0.26703 0.0
N2957 N 0.01167 0.83859 0.27634 0.0
N2958 N 0.97201 0.8348 0.27762 0.0
C2959 C 0.98275 0.82191 0.28956 0.0
C2960 C 0.00427 0.82393 0.28877 0.0
C2961 C 0.1962 0.98815 0.32163 0.0
C2962 C 0.1853 0.97483 0.30912 0.0
C2963 C 0.1937 0.00919 0.31994 0.0
C2964 C 0.18056 0.01763 0.3054 0.0
H2965 H 0.20653 0.9823 0.33295 0.0
H2966 H 0.20237 0.01891 0.32996 0.0
S2967 S 0.14904 0.98922 0.26854 0.0
N2968 N 0.16106 0.97152 0.28149 0.0
N2969 N 0.15671 0.01103 0.27813 0.0
C2970 C 0.16977 0.00447 0.29264 0.0
C2971 C 0.17205 0.98307 0.29455 0.0
C2972 C 0.98562 0.81963 0.69926 0.0
C2973 C 0.97145 0.8082 0.68825 0.0
C2974 C 0.0065 0.81681 0.69638 0.0
C2975 C 0.01399 0.80232 0.68251 0.0
H2976 H 0.98059 0.83101 0.70998 0.0
H2977 H 0.01683 0.82607 0.70516 0.0
S2978 S 0.98304 0.76767 0.6508 0.0
N2979 N 0.96633 0.78128 0.66347 0.0
N2980 N 0.00543 0.776 0.65817 0.0
C2981 C -6e-05 0.79061 0.67164 0.0
C2982 C 0.97872 0.79354 0.67448 0.0
C2983 C 0.16124 0.98452 0.70033 0.0
C2984 C 0.16631 0.97171 0.68408 0.0
C2985 C 0.16471 0.0055 0.69921 0.0
C2986 C 0.17359 0.01426 0.68192 0.0
H2987 H 0.15521 0.97828 0.71425 0.0
H2988 H 0.16109 0.01479 0.71226 0.0
S2989 S 0.18684 0.98791 0.63416 0.0
N2990 N 0.17846 0.9698 0.64922 0.0
N2991 N 0.1854 0.00902 0.64752 0.0
C2992 C 0.17781 0.00181 0.66526 0.0
C2993 C 0.17403 0.98058 0.66622 0.0
C2994 C 0.98357 0.17169 0.69971 0.0
C2995 C 0.9749 0.18581 0.68626 0.0
C2996 C 0.00462 0.16914 0.70095 0.0
C2997 C 0.01774 0.18041 0.68857 0.0
H2998 H 0.97406 0.16275 0.70965 0.0
H2999 H 0.01061 0.15831 0.71172 0.0
S3000 S 0.00258 0.21885 0.65026 0.0
N3001 N 0.981 0.21087 0.66002 0.0
N3002 N 0.02047 0.20601 0.66208 0.0
C3003 C 0.00922 0.19433 0.67477 0.0
C3004 C 0.98782 0.19707 0.6737 0.0
C3005 C 0.81915 0.98453 0.68556 0.0
C3006 C 0.80408 0.97605 0.67297 0.0
C3007 C 0.82133 0.00553 0.68771 0.0
C3008 C 0.80872 0.01896 0.67714 0.0
H3009 H 0.8292 0.97488 0.69422 0.0
H3010 H 0.83297 0.01123 0.69778 0.0
S3011 S 0.7673 0.00465 0.64168 0.0
N3012 N 0.77658 0.98276 0.64949 0.0
N3013 N 0.78077 0.02232 0.65321 0.0
C3014 C 0.79381 0.01074 0.66416 0.0
C3015 C 0.79145 0.98928 0.66216 0.0
C3016 C 0.31753 0.98547 0.18568 0.0
C3017 C 0.30235 0.97733 0.17301 0.0
C3018 C 0.31946 0.00641 0.18872 0.0
C3019 C 0.30639 0.02014 0.1791 0.0
H3020 H 0.3279 0.9756 0.19369 0.0
H3021 H 0.33122 0.01182 0.19881 0.0
S3022 S 0.26458 0.00682 0.14371 0.0
N3023 N 0.27435 0.98476 0.15031 0.0
N3024 N 0.27799 0.02415 0.15582 0.0
C3025 C 0.29141 0.01228 0.16598 0.0
C3026 C 0.28938 0.99089 0.16299 0.0
C3027 C 0.98139 0.29593 0.16318 0.0
C3028 C 0.97327 0.30509 0.18074 0.0
C3029 C 0.00229 0.29266 0.16112 0.0
C3030 C 0.01568 0.29867 0.17646 0.0
H3031 H 0.97158 0.29137 0.15084 0.0
H3032 H 0.00802 0.28595 0.14728 0.0
S3033 S 0.00218 0.32127 0.22619 0.0
N3034 N 0.98035 0.31871 0.21428 0.0
N3035 N 0.01949 0.31267 0.21036 0.0
C3036 C 0.00775 0.30727 0.19429 0.0
C3037 C 0.98656 0.31048 0.19644 0.0
C3038 C 0.69052 0.97948 0.17168 0.0
C3039 C 0.67594 0.97083 0.18466 0.0
C3040 C 0.69284 0.00051 0.17006 0.0
C3041 C 0.6805 0.01379 0.18118 0.0
H3042 H 0.7005 0.96995 0.16279 0.0
H3043 H 0.70435 0.00637 0.15995 0.0
S3044 S 0.6398 -0.00105 0.21717 0.0
N3045 N 0.64889 0.9772 0.20876 0.0
N3046 N 0.65301 0.0168 0.20564 0.0
C3047 C 0.66569 0.00538 0.19411 0.0
C3048 C 0.66348 0.98389 0.19589 0.0
C3049 C 0.986 0.6893 0.16644 0.0
C3050 C 0.97232 0.6775 0.17763 0.0
C3051 C 0.00696 0.68746 0.1694 0.0
C3052 C 0.01506 0.67396 0.18387 0.0
H3053 H 0.98052 0.70005 0.15533 0.0
H3054 H 0.01687 0.69697 0.16043 0.0
S3055 S 0.98581 0.63937 0.21697 0.0
N3056 N 0.96848 0.65148 0.20364 0.0
N3057 N 0.0078 0.6484 0.20924 0.0
C3058 C 0.0016 0.66204 0.19512 0.0
C3059 C 0.98026 0.6637 0.19197 0.0
C3060 C 0.29179 0.97585 0.81438 0.0
C3061 C 0.30731 0.96667 0.803 0.0
C3062 C 0.29118 -0.00317 0.81727 0.0
C3063 C 0.30623 0.00943 0.80912 0.0
H3064 H 0.27979 0.96675 0.82091 0.0
H3065 H 0.27872 0.00318 0.82585 0.0
S3066 S 0.35096 0.99257 0.77926 0.0
N3067 N 0.33845 0.97145 0.78416 0.0
N3068 N 0.33773 0.01101 0.78981 0.0
C3069 C 0.32214 0.00036 0.79802 0.0
C3070 C 0.32254 0.97894 0.79485 0.0
C3071 C 0.98712 0.32903 0.80083 0.0
C3072 C 0.97915 0.31396 0.81375 0.0
C3073 C 0.00801 0.33073 0.79734 0.0
C3074 C 0.02173 0.31763 0.80688 0.0
H3075 H 0.97714 0.33947 0.79304 0.0
H3076 H 0.01341 0.34244 0.78719 0.0
S3077 S 0.0088 0.27553 0.84203 0.0
N3078 N 0.98675 0.28566 0.83602 0.0
N3079 N 0.02594 0.28892 0.82971 0.0
C3080 C 0.01401 0.30262 0.82 0.0
C3081 C 0.99275 0.30077 0.82338 0.0
C3082 C 0.69307 0.98798 0.81624 0.0
C3083 C 0.68122 0.9741 0.80533 0.0
C3084 C 0.69083 0.00889 0.81335 0.0
C3085 C 0.6769 0.01675 0.79919 0.0
H3086 H 0.70412 0.9827 0.82715 0.0
H3087 H 0.70034 0.01898 0.82216 0.0
S3088 S 0.64224 0.98691 0.76666 0.0
N3089 N 0.65485 0.96974 0.77977 0.0
N3090 N 0.65106 0.0091 0.77421 0.0
C3091 C 0.66504 0.00311 0.78807 0.0
C3092 C 0.66707 0.98176 0.7912 0.0
C3093 C 0.00848 0.67507 0.80333 0.0
C3094 C 0.01737 0.69203 0.81288 0.0
C3095 C 0.98766 0.67389 0.80002 0.0
C3096 C 0.97476 0.68945 0.80644 0.0
H3097 H 0.01768 0.66248 0.79818 0.0
H3098 H 0.9816 0.6604 0.79285 0.0
S3099 S 0.99017 0.73767 0.83109 0.0
N3100 N 0.01165 0.72527 0.82776 0.0
N3101 N 0.97214 0.72281 0.82202 0.0
C3102 C 0.9833 0.70669 0.81574 0.0
C3103 C 0.00471 0.70806 0.81882 0.0
C3104 C 0.16903 0.29421 0.00511 0.0
C3105 C 0.1826 0.30829 0.01375 0.0
C3106 C 0.16716 0.29214 0.98408 0.0
C3107 C 0.17859 0.30425 0.97089 0.0
H3108 H 0.16005 0.28433 0.01463 0.0
H3109 H 0.15679 0.28086 0.97816 0.0
S3110 S 0.21558 0.34415 0.98583 0.0
N3111 N 0.20718 0.33498 0.00751 0.0
N3112 N 0.20358 0.33136 0.96798 0.0
C3113 C 0.19185 0.31879 0.97933 0.0
C3114 C 0.19389 0.32073 0.00076 0.0
C3115 C 0.18675 0.66575 0.00685 0.0
C3116 C 0.17728 0.68282 0.01559 0.0
C3117 C 0.18929 0.66403 0.98585 0.0
C3118 C 0.18227 0.67921 0.97275 0.0
H3119 H 0.19246 0.65361 0.0163 0.0
H3120 H 0.1967 0.65066 0.97985 0.0
S3121 S 0.15678 0.72717 0.98781 0.0
N3122 N 0.16109 0.71533 0.0094 0.0
N3123 N 0.1657 0.71209 0.96995 0.0
C3124 C 0.17268 0.69633 0.98123 0.0
C3125 C 0.17022 0.69814 0.00264 0.0
C3126 C 0.2946 0.16204 0.00075 0.0
C3127 C 0.30904 0.17116 0.01346 0.0
C3128 C 0.29608 0.16367 0.97964 0.0
C3129 C 0.31192 0.17468 0.97049 0.0
H3130 H 0.2818 0.15399 0.00712 0.0
H3131 H 0.28433 0.1568 0.97046 0.0
S3132 S 0.35484 0.19955 -0.00321 0.0
N3133 N 0.34076 0.19015 0.01517 0.0
N3134 N 0.34313 0.19344 0.97555 0.0
C3135 C 0.32686 0.1832 0.98293 0.0
C3136 C 0.32554 0.18136 0.0044 0.0
C3137 C 0.81746 0.29414 0.00201 0.0
C3138 C 0.8026 0.30221 0.01489 0.0
C3139 C 0.8165 0.29709 0.98103 0.0
C3140 C 0.80053 0.30808 0.97205 0.0
H3141 H 0.83015 0.28576 0.00817 0.0
H3142 H 0.82844 0.29065 0.9718 0.0
S3143 S 0.75711 0.33136 -0.00092 0.0
N3144 N 0.77096 0.32105 0.01716 0.0
N3145 N 0.76913 0.32647 0.97771 0.0
C3146 C 0.78535 0.31593 0.98473 0.0
C3147 C 0.78639 0.31302 0.00615 0.0
C3148 C 0.67387 0.79517 0.9828 0.0
C3149 C 0.68856 0.80441 0.97058 0.0
C3150 C 0.67397 0.79784 0.00382 0.0
C3151 C 0.689 0.80953 0.01353 0.0
H3152 H 0.66191 0.78615 0.97606 0.0
H3153 H 0.66215 0.79054 0.01255 0.0
S3154 S 0.73168 0.83595 0.98846 0.0
N3155 N 0.71903 0.82524 0.96968 0.0
N3156 N 0.71942 0.8298 0.00938 0.0
C3157 C 0.70415 0.8184 0.00158 0.0
C3158 C 0.70385 0.81598 0.98005 0.0
C3159 C 0.81454 0.69503 0.01261 0.0
C3160 C 0.80163 0.68031 0.02114 0.0
C3161 C 0.81843 0.69555 0.99175 0.0
C3162 C 0.80971 0.68126 0.97858 0.0
H3163 H 0.82166 0.7064 0.0221 0.0
H3164 H 0.82834 0.70727 0.98594 0.0
S3165 S 0.77508 0.63927 0.99331 0.0
N3166 N 0.78029 0.65096 0.01481 0.0
N3167 N 0.78763 0.65173 0.97566 0.0
C3168 C 0.79687 0.66632 0.98693 0.0
C3169 C 0.7928 0.66591 0.00818 0.0
C3170 C 0.29267 0.81732 0.9873 0.0
C3171 C 0.30526 0.80663 0.97392 0.0
C3172 C 0.29473 0.81511 0.0083 0.0
C3173 C 0.30917 0.80182 0.0167 0.0
H3174 H 0.28126 0.82761 0.98153 0.0
H3175 H 0.2847 0.82374 0.01801 0.0
S3176 S 0.34549 0.76989 0.98815 0.0
N3177 N 0.33261 0.78207 0.97051 0.0
N3178 N 0.33614 0.77769 0.01001 0.0
C3179 C 0.32172 0.79087 0.0035 0.0
C3180 C 0.31986 0.79335 0.9821 0.0
C3181 C 0.69022 0.17095 0.00246 0.0
C3182 C 0.67693 0.18502 0.01146 0.0
C3183 C 0.69245 0.16978 0.98139 0.0
C3184 C 0.68123 0.18241 0.96846 0.0
H3185 H 0.6992 0.16085 0.01176 0.0
H3186 H 0.70292 0.15875 0.97521 0.0
S3187 S 0.64424 0.22178 0.98437 0.0
N3188 N 0.65243 0.2119 0.00583 0.0
N3189 N 0.65631 0.20955 0.9662 0.0
C3190 C 0.66779 0.19651 0.97724 0.0
C3191 C 0.66573 0.19787 -0.00125 0.0
C3192 C 0.8155 0.5053 0.78944 0.0
C3193 C 0.801 0.51451 0.80217 0.0
C3194 C 0.81535 0.48437 0.78576 0.0
C3195 C 0.80087 0.47184 0.79493 0.0
H3196 H 0.82726 0.51428 0.78234 0.0
H3197 H 0.82714 0.47789 0.77636 0.0
S3198 S 0.75848 0.48845 0.82796 0.0
N3199 N 0.77086 0.50956 0.8227 0.0
N3200 N 0.77073 0.47015 0.81607 0.0
C3201 C 0.78582 0.48089 0.80707 0.0
C3202 C 0.78584 0.50225 0.81062 0.0
C3203 C 0.19414 0.50288 0.82077 0.0
C3204 C 0.17699 0.51063 0.81075 0.0
C3205 C 0.19765 0.48194 0.82189 0.0
C3206 C 0.18403 0.46809 0.81316 0.0
H3207 H 0.20536 0.51306 0.82711 0.0
H3208 H 0.21147 0.47665 0.82898 0.0
S3209 S 0.13512 0.48072 0.78821 0.0
N3210 N 0.14519 0.5029 0.79394 0.0
N3211 N 0.15145 0.4636 0.7963 0.0
C3212 C 0.16615 0.47568 0.80423 0.0
C3213 C 0.16273 0.49695 0.80294 0.0
C3214 C 0.16845 0.4816 0.19553 0.0
C3215 C 0.17895 0.46805 0.18294 0.0
C3216 C 0.17085 0.50263 0.19343 0.0
C3217 C 0.18408 0.51095 0.17885 0.0
H3218 H 0.15824 0.47597 0.20707 0.0
H3219 H 0.16241 0.5124 0.20355 0.0
S3220 S 0.2153 0.48201 0.14222 0.0
N3221 N 0.20315 0.46448 0.15528 0.0
N3222 N 0.20777 0.50395 0.15161 0.0
C3223 C 0.19471 0.49759 0.16619 0.0
C3224 C 0.1921 0.47616 0.16815 0.0
C3225 C 0.80539 0.50508 0.16589 0.0
C3226 C 0.80447 0.51322 0.18563 0.0
C3227 C 0.80157 0.48449 0.16225 0.0
C3228 C 0.79618 0.47157 0.17817 0.0
H3229 H 0.8095 0.51463 0.15318 0.0
H3230 H 0.80339 0.47856 0.14705 0.0
S3231 S 0.79024 0.48539 0.23224 0.0
N3232 N 0.79693 0.50679 0.22108 0.0
N3233 N 0.78947 0.46808 0.21413 0.0
C3234 C 0.79467 0.47952 0.19783 0.0
C3235 C 0.79887 0.50039 0.20162 0.0
C3236 C 0.31855 0.50537 0.6732 0.0
C3237 C 0.30094 0.51585 0.67854 0.0
C3238 C 0.31795 0.48454 0.66926 0.0
C3239 C 0.29976 0.47342 0.67085 0.0
H3240 H 0.33288 0.51331 0.67209 0.0
H3241 H 0.33205 0.477 0.66556 0.0
S3242 S 0.2494 0.49447 0.68419 0.0
N3243 N 0.26474 0.51427 0.68463 0.0
N3244 N 0.26359 0.47482 0.67787 0.0
C3245 C 0.2819 0.48397 0.6757 0.0
C3246 C 0.28252 0.50529 0.67944 0.0
C3247 C 0.69577 0.50349 0.66748 0.0
C3248 C 0.69105 0.51778 0.68249 0.0
C3249 C 0.69164 0.48281 0.67052 0.0
C3250 C 0.68282 0.4758 0.6887 0.0
H3251 H 0.70178 0.50839 0.65303 0.0
H3252 H 0.69485 0.47236 0.65827 0.0
S3253 S 0.67085 0.50716 0.73383 0.0
N3254 N 0.67929 0.52349 0.7169 0.0
N3255 N 0.67174 0.48475 0.72269 0.0
C3256 C 0.67923 0.48992 0.70423 0.0
C3257 C 0.68331 0.51089 0.70109 0.0
C3258 C 0.29544 0.48877 0.2937 0.0
C3259 C 0.29797 0.47636 0.31077 0.0
C3260 C 0.29225 0.50963 0.29582 0.0
C3261 C 0.29164 0.51875 0.31503 0.0
H3262 H 0.29625 0.48238 0.27859 0.0
H3263 H 0.29128 0.51887 0.28228 0.0
S3264 S 0.29721 0.49303 0.36447 0.0
N3265 N 0.29901 0.47459 0.3476 0.0
N3266 N 0.29361 0.51408 0.3514 0.0
C3267 C 0.29356 0.50654 0.33224 0.0
C3268 C 0.29655 0.48521 0.33014 0.0
C3269 C 0.66818 0.49989 0.29902 0.0
C3270 C 0.67881 0.51379 0.31113 0.0
C3271 C 0.67121 0.479 0.30107 0.0
C3272 C 0.68513 0.47111 0.3152 0.0
H3273 H 0.65753 0.50514 0.2877 0.0
H3274 H 0.66275 0.46899 0.29116 0.0
S3275 S 0.7163 0.50102 0.35118 0.0
N3276 N 0.70342 0.51818 0.33833 0.0
N3277 N 0.70918 0.47884 0.34199 0.0
C3278 C 0.69563 0.48479 0.32769 0.0
C3279 C 0.69244 0.50614 0.32571 0.0
C3280 C 0.19469 0.81884 0.48146 0.0
C3281 C 0.17926 0.80698 0.47265 0.0
C3282 C 0.19652 0.82067 0.50255 0.0
C3283 C 0.18275 0.811 0.51555 0.0
H3284 H 0.2057 0.82648 0.472 0.0
H3285 H 0.20878 0.82972 0.50866 0.0
S3286 S 0.13902 0.77896 0.49983 0.0
N3287 N 0.14975 0.78585 0.47834 0.0
N3288 N 0.15273 0.78949 0.51791 0.0
C3289 C 0.16699 0.79938 0.50683 0.0
C3290 C 0.16538 0.79729 0.48539 0.0
C3291 C 0.18222 0.16984 0.48703 0.0
C3292 C 0.17718 0.18645 0.4748 0.0
C3293 C 0.17965 0.17065 0.50804 0.0
C3294 C 0.1723 0.18824 0.51773 0.0
H3295 H 0.18814 0.15606 0.48032 0.0
H3296 H 0.18394 0.15743 0.51676 0.0
S3297 S 0.15695 0.23596 0.49232 0.0
N3298 N 0.16422 0.22096 0.47364 0.0
N3299 N 0.15983 0.22265 0.5133 0.0
C3300 C 0.16701 0.20493 0.50562 0.0
C3301 C 0.16935 0.20399 0.48411 0.0
C3302 C 0.2937 0.66771 0.50067 0.0
C3303 C 0.30638 0.67798 0.51435 0.0
C3304 C 0.29639 0.66962 0.47968 0.0
C3305 C 0.31176 0.68202 0.47153 0.0
H3306 H 0.28147 0.65826 0.50618 0.0
H3307 H 0.28601 0.66161 0.46979 0.0
S3308 S 0.34969 0.71147 0.50077 0.0
N3309 N 0.33549 0.70048 0.51815 0.0
N3310 N 0.34031 0.70411 0.47879 0.0
C3311 C 0.32481 0.69205 0.485 0.0
C3312 C 0.32218 0.69002 0.50638 0.0
C3313 C 0.79985 0.81325 0.50808 0.0
C3314 C 0.81299 0.79914 0.51724 0.0
C3315 C 0.7988 0.81529 0.48704 0.0
C3316 C 0.81102 0.8035 0.47427 0.0
H3317 H 0.79004 0.82273 0.5172 0.0
H3318 H 0.78833 0.82627 0.48078 0.0
S3319 S 0.84815 0.76442 0.49055 0.0
N3320 N 0.83853 0.77317 0.51193 0.0
N3321 N 0.83679 0.77712 0.47224 0.0
C3322 C 0.82439 0.7894 0.48317 0.0
C3323 C 0.82529 0.78717 0.50469 0.0
C3324 C 0.66723 0.29147 0.51195 0.0
C3325 C 0.67461 0.30975 0.52022 0.0
C3326 C 0.66417 0.28927 0.49102 0.0
C3327 C 0.66821 0.30533 0.47765 0.0
H3328 H 0.66436 0.27853 0.52162 0.0
H3329 H 0.65915 0.27472 0.48527 0.0
S3330 S 0.68536 0.35715 0.49207 0.0
N3331 N 0.6843 0.34465 0.51368 0.0
N3332 N 0.67829 0.3408 0.47451 0.0
C3333 C 0.67466 0.32402 0.48591 0.0
C3334 C 0.67795 0.32615 0.50715 0.0
C3335 C 0.79375 0.18456 0.48373 0.0
C3336 C 0.81144 0.19174 0.47427 0.0
C3337 C 0.79254 0.18276 0.50483 0.0
C3338 C 0.80912 0.18775 0.51723 0.0
H3339 H 0.78061 0.18056 0.47474 0.0
H3340 H 0.77846 0.17754 0.51143 0.0
S3341 S 0.85954 0.20565 0.49946 0.0
N3342 N 0.84611 0.20304 0.47851 0.0
N3343 N 0.84428 0.19922 0.51819 0.0
C3344 C 0.82712 0.19452 0.50782 0.0
C3345 C 0.82816 0.19667 0.48632 0.0
C3346 C 0.29348 0.32179 0.48784 0.0
C3347 C 0.30685 0.31112 0.47518 0.0
C3348 C 0.29442 0.31974 0.50895 0.0
C3349 C 0.30864 0.30679 0.51822 0.0
H3350 H 0.28213 0.33175 0.48143 0.0
H3351 H 0.28366 0.32818 0.51801 0.0
S3352 S 0.34728 0.27562 0.49184 0.0
N3353 N 0.33502 0.28731 0.47347 0.0
N3354 N 0.33663 0.2834 0.51308 0.0
C3355 C 0.32226 0.29621 0.50575 0.0
C3356 C 0.3214 0.29839 0.48426 0.0
C3357 C 0.68631 0.66875 0.48443 0.0
C3358 C 0.6767 0.6823 0.47118 0.0
C3359 C 0.68384 0.6704 0.50543 0.0
C3360 C 0.67183 0.68581 0.51409 0.0
H3361 H 0.69594 0.65681 0.47859 0.0
H3362 H 0.69181 0.65966 0.51494 0.0
S3363 S 0.64279 0.72482 0.48603 0.0
N3364 N 0.65409 0.71138 0.46821 0.0
N3365 N 0.64971 0.71453 0.50773 0.0
C3366 C 0.66185 0.6993 0.50104 0.0
C3367 C 0.66421 0.69752 0.47959 0.0
C3368 C 0.50416 0.1694 0.79129 0.0
C3369 C 0.5126 0.18385 0.80464 0.0
C3370 C 0.48319 0.16793 0.7884 0.0
C3371 C 0.46986 0.18067 0.79894 0.0
H3372 H 0.5138 0.15919 0.7828 0.0
H3373 H 0.47739 0.15656 0.77805 0.0
S3374 S 0.4841 0.22146 0.83517 0.0
N3375 N 0.5059 0.21145 0.82813 0.0
N3376 N 0.4665 0.2086 0.82289 0.0
C3377 C 0.47805 0.19522 0.81231 0.0
C3378 C 0.49942 0.19683 0.81513 0.0
C3379 C 0.50661 0.80002 0.82017 0.0
C3380 C 0.51557 0.81124 0.80437 0.0
C3381 C 0.48557 0.79766 0.82153 0.0
C3382 C 0.47258 0.80666 0.80731 0.0
H3383 H 0.51592 0.7926 0.83146 0.0
H3384 H 0.47946 0.78869 0.83383 0.0
S3385 S 0.48821 0.83804 0.76326 0.0
N3386 N 0.50972 0.83171 0.77433 0.0
N3387 N 0.47013 0.82755 0.777 0.0
C3388 C 0.48126 0.81827 0.79163 0.0
C3389 C 0.50275 0.82049 0.79012 0.0
C3390 C 0.49858 0.81157 0.16874 0.0
C3391 C 0.5118 0.81226 0.18531 0.0
C3392 C 0.47784 0.81465 0.17127 0.0
C3393 C 0.46936 0.81817 0.19054 0.0
H3394 H 0.50427 0.80848 0.15366 0.0
H3395 H 0.46834 0.81366 0.15792 0.0
S3396 S 0.49778 0.82215 0.23884 0.0
N3397 N 0.51537 0.81767 0.2216 0.0
N3398 N 0.47602 0.82294 0.22647 0.0
C3399 C 0.4825 0.8196 0.20723 0.0
C3400 C 0.50382 0.81673 0.20458 0.0
C3401 C 0.50908 0.20091 0.16927 0.0
C3402 C 0.51792 0.18452 0.1797 0.0
C3403 C 0.48801 0.20252 0.16713 0.0
C3404 C 0.47506 0.18763 0.17509 0.0
H3405 H 0.51848 0.21286 0.16307 0.0
H3406 H 0.48187 0.2156 0.15936 0.0
S3407 S 0.49094 0.14081 0.20228 0.0
N3408 N 0.51234 0.15268 0.19718 0.0
N3409 N 0.47283 0.15528 0.19294 0.0
C3410 C 0.48383 0.17081 0.18504 0.0
C3411 C 0.50524 0.16937 0.18742 0.0
C3412 C 0.48447 0.28592 0.68454 0.0
C3413 C 0.4739 0.30036 0.67303 0.0
C3414 C 0.50518 0.28249 0.68126 0.0
C3415 C 0.51584 0.29372 0.66667 0.0
H3416 H 0.47686 0.27784 0.69662 0.0
H3417 H 0.51323 0.27237 0.69138 0.0
S3418 S 0.49446 0.33197 0.6316 0.0
N3419 N 0.47494 0.32453 0.64539 0.0
N3420 N 0.51408 0.31875 0.63977 0.0
C3421 C 0.50509 0.30729 0.65431 0.0
C3422 C 0.484 0.31047 0.65738 0.0
C3423 C 0.50123 0.66379 0.69115 0.0
C3424 C 0.51449 0.6775 0.68177 0.0
C3425 C 0.48019 0.66543 0.68856 0.0
C3426 C 0.47157 0.68104 0.67676 0.0
H3427 H 0.5071 0.65164 0.70048 0.0
H3428 H 0.47062 0.65452 0.69621 0.0
S3429 S 0.49976 0.72105 0.64919 0.0
N3430 N 0.51751 0.7073 0.66017 0.0
N3431 N 0.47804 0.71045 0.65562 0.0
C3432 C 0.48467 0.69486 0.66731 0.0
C3433 C 0.50611 0.69306 0.66974 0.0
C3434 C 0.48579 0.30264 0.31667 0.0
C3435 C 0.47314 0.31476 0.30467 0.0
C3436 C 0.50688 0.30456 0.31563 0.0
C3437 C 0.51617 0.31847 0.30234 0.0
H3438 H 0.47939 0.29158 0.32696 0.0
H3439 H 0.51596 0.29474 0.32513 0.0
S3440 S 0.48983 0.35399 0.26779 0.0
N3441 N 0.47142 0.34149 0.2792 0.0
N3442 N 0.5111 0.34479 0.27716 0.0
C3443 C 0.50373 0.33077 0.29032 0.0
C3444 C 0.48221 0.329 0.29152 0.0
C3445 C 0.48827 0.66912 0.30663 0.0
C3446 C 0.47509 0.68564 0.30785 0.0
C3447 C 0.50911 0.6718 0.30857 0.0
C3448 C 0.51771 0.69121 0.31131 0.0
H3449 H 0.48243 0.65396 0.30409 0.0
H3450 H 0.51856 0.65843 0.30736 0.0
S3451 S 0.48925 0.73949 0.31568 0.0
N3452 N 0.47155 0.72203 0.31257 0.0
N3453 N 0.51111 0.72727 0.31557 0.0
C3454 C 0.50459 0.70791 0.31299 0.0
C3455 C 0.48316 0.70506 0.31139 0.0
loop_
_geom_bond_atom_site_label_1
_geom_bond_atom_site_label_2
_geom_bond_distance
_geom_bond_site_symmetry_2
_ccdc_geom_bond_type
Co0 O1 2.216 . S
Co0 O2 2.091 . S
Co0 O4 2.004 . S
Co0 O10 2.021 . S
Co0 O12 2.137 . S
Co0 O13 2.244 . S
O1 Co0 2.216 . S
O1 C8 1.247 . S
O2 Co0 2.091 . S
O2 C8 1.261 . S
C3 O12 1.247 . S
C3 O13 1.272 . S
O4 Co0 2.004 . S
O4 C9 1.259 . S
Co5 O6 2.061 . S
Co5 O11 2.052 . S
Co5 O13 2.135 . S
O6 Co5 2.061 . S
O6 C9 1.235 . S
C7 O10 1.238 . S
C7 O11 1.241 . S
C8 O1 1.247 . S
C8 O2 1.261 . S
C9 O4 1.259 . S
C9 O6 1.235 . S
O10 Co0 2.021 . S
O10 C7 1.238 . S
O11 Co5 2.052 . S
O11 C7 1.241 . S
O12 Co0 2.137 . S
O12 C3 1.247 . S
O13 Co0 2.244 . S
O13 C3 1.272 . S
O13 Co5 2.135 . S
Co14 O15 2.216 . S
Co14 O16 2.091 . S
Co14 O18 2.004 . S
Co14 O24 2.021 . S
Co14 O26 2.137 . S
Co14 O27 2.244 . S
O15 Co14 2.216 . S
O15 C22 1.247 . S
O16 Co14 2.091 . S
O16 C22 1.261 . S
C17 O26 1.247 . S
C17 O27 1.272 . S
O18 Co14 2.004 . S
O18 C23 1.259 . S
Co19 O20 2.061 . S
Co19 O25 2.052 . S
Co19 O27 2.135 . S
O20 Co19 2.061 . S
O20 C23 1.235 . S
C21 O24 1.238 . S
C21 O25 1.241 . S
C22 O15 1.247 . S
C22 O16 1.261 . S
C23 O18 1.259 . S
C23 O20 1.235 . S
O24 Co14 2.021 . S
O24 C21 1.238 . S
O25 Co19 2.052 . S
O25 C21 1.241 . S
O26 Co14 2.137 . S
O26 C17 1.247 . S
O27 Co14 2.244 . S
O27 C17 1.272 . S
O27 Co19 2.135 . S
Co28 O29 2.216 . S
Co28 O30 2.091 . S
Co28 O32 2.004 . S
Co28 O38 2.021 . S
Co28 O40 2.137 . S
Co28 O41 2.244 . S
O29 Co28 2.216 . S
O29 C36 1.247 . S
O30 Co28 2.091 . S
O30 C36 1.261 . S
C31 O40 1.247 . S
C31 O41 1.272 . S
O32 Co28 2.004 . S
O32 C37 1.259 . S
Co33 O34 2.061 . S
Co33 O39 2.052 . S
Co33 O41 2.135 . S
O34 Co33 2.061 . S
O34 C37 1.235 . S
C35 O38 1.238 . S
C35 O39 1.241 . S
C36 O29 1.247 . S
C36 O30 1.261 . S
C37 O32 1.259 . S
C37 O34 1.235 . S
O38 Co28 2.021 . S
O38 C35 1.238 . S
O39 Co33 2.052 . S
O39 C35 1.241 . S
O40 Co28 2.137 . S
O40 C31 1.247 . S
O41 Co28 2.244 . S
O41 C31 1.272 . S
O41 Co33 2.135 . S
Co42 O43 2.216 . S
Co42 O44 2.091 . S
Co42 O46 2.004 . S
Co42 O52 2.021 . S
Co42 O54 2.137 . S
Co42 O55 2.244 . S
O43 Co42 2.216 . S
O43 C50 1.247 . S
O44 Co42 2.091 . S
O44 C50 1.261 . S
C45 O54 1.247 . S
C45 O55 1.272 . S
O46 Co42 2.004 . S
O46 C51 1.259 . S
Co47 O48 2.061 . S
Co47 O53 2.052 . S
Co47 O55 2.135 . S
O48 Co47 2.061 . S
O48 C51 1.235 . S
C49 O52 1.238 . S
C49 O53 1.241 . S
C50 O43 1.247 . S
C50 O44 1.261 . S
C51 O46 1.259 . S
C51 O48 1.235 . S
O52 Co42 2.021 . S
O52 C49 1.238 . S
O53 Co47 2.052 . S
O53 C49 1.241 . S
O54 Co42 2.137 . S
O54 C45 1.247 . S
O55 Co42 2.244 . S
O55 C45 1.272 . S
O55 Co47 2.135 . S
Co56 O57 2.216 . S
Co56 O58 2.091 . S
Co56 O60 2.004 . S
Co56 O66 2.021 . S
Co56 O68 2.137 . S
Co56 O69 2.244 . S
O57 Co56 2.216 . S
O57 C64 1.247 . S
O58 Co56 2.091 . S
O58 C64 1.261 . S
C59 O68 1.247 . S
C59 O69 1.272 . S
O60 Co56 2.004 . S
O60 C65 1.259 . S
Co61 O62 2.061 . S
Co61 O67 2.052 . S
Co61 O69 2.135 . S
O62 Co61 2.061 . S
O62 C65 1.235 . S
C63 O66 1.238 . S
C63 O67 1.241 . S
C64 O57 1.247 . S
C64 O58 1.261 . S
C65 O60 1.259 . S
C65 O62 1.235 . S
O66 Co56 2.021 . S
O66 C63 1.238 . S
O67 Co61 2.052 . S
O67 C63 1.241 . S
O68 Co56 2.137 . S
O68 C59 1.247 . S
O69 Co56 2.244 . S
O69 C59 1.272 . S
O69 Co61 2.135 . S
Co70 O71 2.216 . S
Co70 O72 2.091 . S
Co70 O74 2.004 . S
Co70 O80 2.021 . S
Co70 O82 2.137 . S
Co70 O83 2.244 . S
O71 Co70 2.216 . S
O71 C78 1.247 . S
O72 Co70 2.091 . S
O72 C78 1.261 . S
C73 O82 1.247 . S
C73 O83 1.272 . S
O74 Co70 2.004 . S
O74 C79 1.259 . S
Co75 O76 2.061 . S
Co75 O81 2.052 . S
Co75 O83 2.135 . S
O76 Co75 2.061 . S
O76 C79 1.235 . S
C77 O80 1.238 . S
C77 O81 1.241 . S
C78 O71 1.247 . S
C78 O72 1.261 . S
C79 O74 1.259 . S
C79 O76 1.235 . S
O80 Co70 2.021 . S
O80 C77 1.238 . S
O81 Co75 2.052 . S
O81 C77 1.241 . S
O82 Co70 2.137 . S
O82 C73 1.247 . S
O83 Co70 2.244 . S
O83 C73 1.272 . S
O83 Co75 2.135 . S
Co84 O85 2.216 . S
Co84 O86 2.091 . S
Co84 O88 2.004 . S
Co84 O94 2.021 . S
Co84 O96 2.137 . S
Co84 O97 2.244 . S
O85 Co84 2.216 . S
O85 C92 1.247 . S
O86 Co84 2.091 . S
O86 C92 1.261 . S
C87 O96 1.247 . S
C87 O97 1.272 . S
O88 Co84 2.004 . S
O88 C93 1.259 . S
Co89 O90 2.061 . S
Co89 O95 2.052 . S
Co89 O97 2.135 . S
O90 Co89 2.061 . S
O90 C93 1.235 . S
C91 O94 1.238 . S
C91 O95 1.241 . S
C92 O85 1.247 . S
C92 O86 1.261 . S
C93 O88 1.259 . S
C93 O90 1.235 . S
O94 Co84 2.021 . S
O94 C91 1.238 . S
O95 Co89 2.052 . S
O95 C91 1.241 . S
O96 Co84 2.137 . S
O96 C87 1.247 . S
O97 Co84 2.244 . S
O97 C87 1.272 . S
O97 Co89 2.135 . S
Co98 O99 2.216 . S
Co98 O100 2.091 . S
Co98 O102 2.004 . S
Co98 O108 2.021 . S
Co98 O110 2.137 . S
Co98 O111 2.244 . S
O99 Co98 2.216 . S
O99 C106 1.247 . S
O100 Co98 2.091 . S
O100 C106 1.261 . S
C101 O110 1.247 . S
C101 O111 1.272 . S
O102 Co98 2.004 . S
O102 C107 1.259 . S
Co103 O104 2.061 . S
Co103 O109 2.052 . S
Co103 O111 2.135 . S
O104 Co103 2.061 . S
O104 C107 1.235 . S
C105 O108 1.238 . S
C105 O109 1.241 . S
C106 O99 1.247 . S
C106 O100 1.261 . S
C107 O102 1.259 . S
C107 O104 1.235 . S
O108 Co98 2.021 . S
O108 C105 1.238 . S
O109 Co103 2.052 . S
O109 C105 1.241 . S
O110 Co98 2.137 . S
O110 C101 1.247 . S
O111 Co98 2.244 . S
O111 C101 1.272 . S
O111 Co103 2.135 . S
Co112 O113 2.216 . S
Co112 O114 2.091 . S
Co112 O116 2.004 . S
Co112 O122 2.021 . S
Co112 O124 2.137 . S
Co112 O125 2.244 . S
O113 Co112 2.216 . S
O113 C120 1.247 . S
O114 Co112 2.091 . S
O114 C120 1.261 . S
C115 O124 1.247 . S
C115 O125 1.272 . S
O116 Co112 2.004 . S
O116 C121 1.259 . S
Co117 O118 2.061 . S
Co117 O123 2.052 . S
Co117 O125 2.135 . S
O118 Co117 2.061 . S
O118 C121 1.235 . S
C119 O122 1.238 . S
C119 O123 1.241 . S
C120 O113 1.247 . S
C120 O114 1.261 . S
C121 O116 1.259 . S
C121 O118 1.235 . S
O122 Co112 2.021 . S
O122 C119 1.238 . S
O123 Co117 2.052 . S
O123 C119 1.241 . S
O124 Co112 2.137 . S
O124 C115 1.247 . S
O125 Co112 2.244 . S
O125 C115 1.272 . S
O125 Co117 2.135 . S
Co126 O127 2.216 . S
Co126 O128 2.091 . S
Co126 O130 2.004 . S
Co126 O136 2.021 . S
Co126 O138 2.137 . S
Co126 O139 2.244 . S
O127 Co126 2.216 . S
O127 C134 1.247 . S
O128 Co126 2.091 . S
O128 C134 1.261 . S
C129 O138 1.247 . S
C129 O139 1.272 . S
O130 Co126 2.004 . S
O130 C135 1.259 . S
Co131 O132 2.061 . S
Co131 O137 2.052 . S
Co131 O139 2.135 . S
O132 Co131 2.061 . S
O132 C135 1.235 . S
C133 O136 1.238 . S
C133 O137 1.241 . S
C134 O127 1.247 . S
C134 O128 1.261 . S
C135 O130 1.259 . S
C135 O132 1.235 . S
O136 Co126 2.021 . S
O136 C133 1.238 . S
O137 Co131 2.052 . S
O137 C133 1.241 . S
O138 Co126 2.137 . S
O138 C129 1.247 . S
O139 Co126 2.244 . S
O139 C129 1.272 . S
O139 Co131 2.135 . S
Co140 O141 2.216 . S
Co140 O142 2.091 . S
Co140 O144 2.004 . S
Co140 O150 2.021 . S
Co140 O152 2.137 . S
Co140 O153 2.244 . S
O141 Co140 2.216 . S
O141 C148 1.247 . S
O142 Co140 2.091 . S
O142 C148 1.261 . S
C143 O152 1.247 . S
C143 O153 1.272 . S
O144 Co140 2.004 . S
O144 C149 1.259 . S
Co145 O146 2.061 . S
Co145 O151 2.052 . S
Co145 O153 2.135 . S
O146 Co145 2.061 . S
O146 C149 1.235 . S
C147 O150 1.238 . S
C147 O151 1.241 . S
C148 O141 1.247 . S
C148 O142 1.261 . S
C149 O144 1.259 . S
C149 O146 1.235 . S
O150 Co140 2.021 . S
O150 C147 1.238 . S
O151 Co145 2.052 . S
O151 C147 1.241 . S
O152 Co140 2.137 . S
O152 C143 1.247 . S
O153 Co140 2.244 . S
O153 C143 1.272 . S
O153 Co145 2.135 . S
Co154 O155 2.216 . S
Co154 O156 2.091 . S
Co154 O158 2.004 . S
Co154 O164 2.021 . S
Co154 O166 2.137 . S
Co154 O167 2.244 . S
O155 Co154 2.216 . S
O155 C162 1.247 . S
O156 Co154 2.091 . S
O156 C162 1.261 . S
C157 O166 1.247 . S
C157 O167 1.272 . S
O158 Co154 2.004 . S
O158 C163 1.259 . S
Co159 O160 2.061 . S
Co159 O165 2.052 . S
Co159 O167 2.135 . S
O160 Co159 2.061 . S
O160 C163 1.235 . S
C161 O164 1.238 . S
C161 O165 1.241 . S
C162 O155 1.247 . S
C162 O156 1.261 . S
C163 O158 1.259 . S
C163 O160 1.235 . S
O164 Co154 2.021 . S
O164 C161 1.238 . S
O165 Co159 2.052 . S
O165 C161 1.241 . S
O166 Co154 2.137 . S
O166 C157 1.247 . S
O167 Co154 2.244 . S
O167 C157 1.272 . S
O167 Co159 2.135 . S
Co168 O169 2.216 . S
Co168 O170 2.091 . S
Co168 O172 2.004 . S
Co168 O178 2.021 . S
Co168 O180 2.137 . S
Co168 O181 2.244 . S
O169 Co168 2.216 . S
O169 C176 1.247 . S
O170 Co168 2.091 . S
O170 C176 1.261 . S
C171 O180 1.247 . S
C171 O181 1.272 . S
O172 Co168 2.004 . S
O172 C177 1.259 . S
Co173 O174 2.061 . S
Co173 O179 2.052 . S
Co173 O181 2.135 . S
O174 Co173 2.061 . S
O174 C177 1.235 . S
C175 O178 1.238 . S
C175 O179 1.241 . S
C176 O169 1.247 . S
C176 O170 1.261 . S
C177 O172 1.259 . S
C177 O174 1.235 . S
O178 Co168 2.021 . S
O178 C175 1.238 . S
O179 Co173 2.052 . S
O179 C175 1.241 . S
O180 Co168 2.137 . S
O180 C171 1.247 . S
O181 Co168 2.244 . S
O181 C171 1.272 . S
O181 Co173 2.135 . S
Co182 O183 2.216 . S
Co182 O184 2.091 . S
Co182 O186 2.004 . S
Co182 O192 2.021 . S
Co182 O194 2.137 . S
Co182 O195 2.244 . S
O183 Co182 2.216 . S
O183 C190 1.247 . S
O184 Co182 2.091 . S
O184 C190 1.261 . S
C185 O194 1.247 . S
C185 O195 1.272 . S
O186 Co182 2.004 . S
O186 C191 1.259 . S
Co187 O188 2.061 . S
Co187 O193 2.052 . S
Co187 O195 2.135 . S
O188 Co187 2.061 . S
O188 C191 1.235 . S
C189 O192 1.238 . S
C189 O193 1.241 . S
C190 O183 1.247 . S
C190 O184 1.261 . S
C191 O186 1.259 . S
C191 O188 1.235 . S
O192 Co182 2.021 . S
O192 C189 1.238 . S
O193 Co187 2.052 . S
O193 C189 1.241 . S
O194 Co182 2.137 . S
O194 C185 1.247 . S
O195 Co182 2.244 . S
O195 C185 1.272 . S
O195 Co187 2.135 . S
Co196 O197 2.216 . S
Co196 O198 2.091 . S
Co196 O200 2.004 . S
Co196 O206 2.021 . S
Co196 O208 2.137 . S
Co196 O209 2.244 . S
O197 Co196 2.216 . S
O197 C204 1.247 . S
O198 Co196 2.091 . S
O198 C204 1.261 . S
C199 O208 1.247 . S
C199 O209 1.272 . S
O200 Co196 2.004 . S
O200 C205 1.259 . S
Co201 O202 2.061 . S
Co201 O207 2.052 . S
Co201 O209 2.135 . S
O202 Co201 2.061 . S
O202 C205 1.235 . S
C203 O206 1.238 . S
C203 O207 1.241 . S
C204 O197 1.247 . S
C204 O198 1.261 . S
C205 O200 1.259 . S
C205 O202 1.235 . S
O206 Co196 2.021 . S
O206 C203 1.238 . S
O207 Co201 2.052 . S
O207 C203 1.241 . S
O208 Co196 2.137 . S
O208 C199 1.247 . S
O209 Co196 2.244 . S
O209 C199 1.272 . S
O209 Co201 2.135 . S
Co210 O211 2.216 . S
Co210 O212 2.091 . S
Co210 O214 2.004 . S
Co210 O220 2.021 . S
Co210 O222 2.137 . S
Co210 O223 2.244 . S
O211 Co210 2.216 . S
O211 C218 1.247 . S
O212 Co210 2.091 . S
O212 C218 1.261 . S
C213 O222 1.247 . S
C213 O223 1.272 . S
O214 Co210 2.004 . S
O214 C219 1.259 . S
Co215 O216 2.061 . S
Co215 O221 2.052 . S
Co215 O223 2.135 . S
O216 Co215 2.061 . S
O216 C219 1.235 . S
C217 O220 1.238 . S
C217 O221 1.241 . S
C218 O211 1.247 . S
C218 O212 1.261 . S
C219 O214 1.259 . S
C219 O216 1.235 . S
O220 Co210 2.021 . S
O220 C217 1.238 . S
O221 Co215 2.052 . S
O221 C217 1.241 . S
O222 Co210 2.137 . S
O222 C213 1.247 . S
O223 Co210 2.244 . S
O223 C213 1.272 . S
O223 Co215 2.135 . S
Co224 O225 2.216 . S
Co224 O226 2.091 . S
Co224 O228 2.004 . S
Co224 O234 2.021 . S
Co224 O236 2.137 . S
Co224 O237 2.244 . S
O225 Co224 2.216 . S
O225 C232 1.247 . S
O226 Co224 2.091 . S
O226 C232 1.261 . S
C227 O236 1.247 . S
C227 O237 1.272 . S
O228 Co224 2.004 . S
O228 C233 1.259 . S
Co229 O230 2.061 . S
Co229 O235 2.052 . S
Co229 O237 2.135 . S
O230 Co229 2.061 . S
O230 C233 1.235 . S
C231 O234 1.238 . S
C231 O235 1.241 . S
C232 O225 1.247 . S
C232 O226 1.261 . S
C233 O228 1.259 . S
C233 O230 1.235 . S
O234 Co224 2.021 . S
O234 C231 1.238 . S
O235 Co229 2.052 . S
O235 C231 1.241 . S
O236 Co224 2.137 . S
O236 C227 1.247 . S
O237 Co224 2.244 . S
O237 C227 1.272 . S
O237 Co229 2.135 . S
Co238 O239 2.216 . S
Co238 O240 2.091 . S
Co238 O242 2.004 . S
Co238 O248 2.021 . S
Co238 O250 2.137 . S
Co238 O251 2.244 . S
O239 Co238 2.216 . S
O239 C246 1.247 . S
O240 Co238 2.091 . S
O240 C246 1.261 . S
C241 O250 1.247 . S
C241 O251 1.272 . S
O242 Co238 2.004 . S
O242 C247 1.259 . S
Co243 O244 2.061 . S
Co243 O249 2.052 . S
Co243 O251 2.135 . S
O244 Co243 2.061 . S
O244 C247 1.235 . S
C245 O248 1.238 . S
C245 O249 1.241 . S
C246 O239 1.247 . S
C246 O240 1.261 . S
C247 O242 1.259 . S
C247 O244 1.235 . S
O248 Co238 2.021 . S
O248 C245 1.238 . S
O249 Co243 2.052 . S
O249 C245 1.241 . S
O250 Co238 2.137 . S
O250 C241 1.247 . S
O251 Co238 2.244 . S
O251 C241 1.272 . S
O251 Co243 2.135 . S
Co252 O253 2.216 . S
Co252 O254 2.091 . S
Co252 O256 2.004 . S
Co252 O262 2.021 . S
Co252 O264 2.137 . S
Co252 O265 2.244 . S
O253 Co252 2.216 . S
O253 C260 1.247 . S
O254 Co252 2.091 . S
O254 C260 1.261 . S
C255 O264 1.247 . S
C255 O265 1.272 . S
O256 Co252 2.004 . S
O256 C261 1.259 . S
Co257 O258 2.061 . S
Co257 O263 2.052 . S
Co257 O265 2.135 . S
O258 Co257 2.061 . S
O258 C261 1.235 . S
C259 O262 1.238 . S
C259 O263 1.241 . S
C260 O253 1.247 . S
C260 O254 1.261 . S
C261 O256 1.259 . S
C261 O258 1.235 . S
O262 Co252 2.021 . S
O262 C259 1.238 . S
O263 Co257 2.052 . S
O263 C259 1.241 . S
O264 Co252 2.137 . S
O264 C255 1.247 . S
O265 Co252 2.244 . S
O265 C255 1.272 . S
O265 Co257 2.135 . S
Co266 O267 2.216 . S
Co266 O268 2.091 . S
Co266 O270 2.004 . S
Co266 O276 2.021 . S
Co266 O278 2.137 . S
Co266 O279 2.244 . S
O267 Co266 2.216 . S
O267 C274 1.247 . S
O268 Co266 2.091 . S
O268 C274 1.261 . S
C269 O278 1.247 . S
C269 O279 1.272 . S
O270 Co266 2.004 . S
O270 C275 1.259 . S
Co271 O272 2.061 . S
Co271 O277 2.052 . S
Co271 O279 2.135 . S
O272 Co271 2.061 . S
O272 C275 1.235 . S
C273 O276 1.238 . S
C273 O277 1.241 . S
C274 O267 1.247 . S
C274 O268 1.261 . S
C275 O270 1.259 . S
C275 O272 1.235 . S
O276 Co266 2.021 . S
O276 C273 1.238 . S
O277 Co271 2.052 . S
O277 C273 1.241 . S
O278 Co266 2.137 . S
O278 C269 1.247 . S
O279 Co266 2.244 . S
O279 C269 1.272 . S
O279 Co271 2.135 . S
Co280 O281 2.216 . S
Co280 O282 2.091 . S
Co280 O284 2.004 . S
Co280 O290 2.021 . S
Co280 O292 2.137 . S
Co280 O293 2.244 . S
O281 Co280 2.216 . S
O281 C288 1.247 . S
O282 Co280 2.091 . S
O282 C288 1.261 . S
C283 O292 1.247 . S
C283 O293 1.272 . S
O284 Co280 2.004 . S
O284 C289 1.259 . S
Co285 O286 2.061 . S
Co285 O291 2.052 . S
Co285 O293 2.135 . S
O286 Co285 2.061 . S
O286 C289 1.235 . S
C287 O290 1.238 . S
C287 O291 1.241 . S
C288 O281 1.247 . S
C288 O282 1.261 . S
C289 O284 1.259 . S
C289 O286 1.235 . S
O290 Co280 2.021 . S
O290 C287 1.238 . S
O291 Co285 2.052 . S
O291 C287 1.241 . S
O292 Co280 2.137 . S
O292 C283 1.247 . S
O293 Co280 2.244 . S
O293 C283 1.272 . S
O293 Co285 2.135 . S
Co294 O295 2.216 . S
Co294 O296 2.091 . S
Co294 O298 2.004 . S
Co294 O304 2.021 . S
Co294 O306 2.137 . S
Co294 O307 2.244 . S
O295 Co294 2.216 . S
O295 C302 1.247 . S
O296 Co294 2.091 . S
O296 C302 1.261 . S
C297 O306 1.247 . S
C297 O307 1.272 . S
O298 Co294 2.004 . S
O298 C303 1.259 . S
Co299 O300 2.061 . S
Co299 O305 2.052 . S
Co299 O307 2.135 . S
O300 Co299 2.061 . S
O300 C303 1.235 . S
C301 O304 1.238 . S
C301 O305 1.241 . S
C302 O295 1.247 . S
C302 O296 1.261 . S
C303 O298 1.259 . S
C303 O300 1.235 . S
O304 Co294 2.021 . S
O304 C301 1.238 . S
O305 Co299 2.052 . S
O305 C301 1.241 . S
O306 Co294 2.137 . S
O306 C297 1.247 . S
O307 Co294 2.244 . S
O307 C297 1.272 . S
O307 Co299 2.135 . S
Co308 O309 2.216 . S
Co308 O310 2.091 . S
Co308 O312 2.004 . S
Co308 O318 2.021 . S
Co308 O320 2.137 . S
Co308 O321 2.244 . S
O309 Co308 2.216 . S
O309 C316 1.247 . S
O310 Co308 2.091 . S
O310 C316 1.261 . S
C311 O320 1.247 . S
C311 O321 1.272 . S
O312 Co308 2.004 . S
O312 C317 1.259 . S
Co313 O314 2.061 . S
Co313 O319 2.052 . S
Co313 O321 2.135 . S
O314 Co313 2.061 . S
O314 C317 1.235 . S
C315 O318 1.238 . S
C315 O319 1.241 . S
C316 O309 1.247 . S
C316 O310 1.261 . S
C317 O312 1.259 . S
C317 O314 1.235 . S
O318 Co308 2.021 . S
O318 C315 1.238 . S
O319 Co313 2.052 . S
O319 C315 1.241 . S
O320 Co308 2.137 . S
O320 C311 1.247 . S
O321 Co308 2.244 . S
O321 C311 1.272 . S
O321 Co313 2.135 . S
Co322 O323 2.216 . S
Co322 O324 2.091 . S
Co322 O326 2.004 . S
Co322 O332 2.021 . S
Co322 O334 2.137 . S
Co322 O335 2.244 . S
O323 Co322 2.216 . S
O323 C330 1.247 . S
O324 Co322 2.091 . S
O324 C330 1.261 . S
C325 O334 1.247 . S
C325 O335 1.272 . S
O326 Co322 2.004 . S
O326 C331 1.259 . S
Co327 O328 2.061 . S
Co327 O333 2.052 . S
Co327 O335 2.135 . S
O328 Co327 2.061 . S
O328 C331 1.235 . S
C329 O332 1.238 . S
C329 O333 1.241 . S
C330 O323 1.247 . S
C330 O324 1.261 . S
C331 O326 1.259 . S
C331 O328 1.235 . S
O332 Co322 2.021 . S
O332 C329 1.238 . S
O333 Co327 2.052 . S
O333 C329 1.241 . S
O334 Co322 2.137 . S
O334 C325 1.247 . S
O335 Co322 2.244 . S
O335 C325 1.272 . S
O335 Co327 2.135 . S
Co336 O337 2.216 . S
Co336 O338 2.091 . S
Co336 O340 2.004 . S
Co336 O346 2.021 . S
Co336 O348 2.137 . S
Co336 O349 2.244 . S
O337 Co336 2.216 . S
O337 C344 1.247 . S
O338 Co336 2.091 . S
O338 C344 1.261 . S
C339 O348 1.247 . S
C339 O349 1.272 . S
O340 Co336 2.004 . S
O340 C345 1.259 . S
Co341 O342 2.061 . S
Co341 O347 2.052 . S
Co341 O349 2.135 . S
O342 Co341 2.061 . S
O342 C345 1.235 . S
C343 O346 1.238 . S
C343 O347 1.241 . S
C344 O337 1.247 . S
C344 O338 1.261 . S
C345 O340 1.259 . S
C345 O342 1.235 . S
O346 Co336 2.021 . S
O346 C343 1.238 . S
O347 Co341 2.052 . S
O347 C343 1.241 . S
O348 Co336 2.137 . S
O348 C339 1.247 . S
O349 Co336 2.244 . S
O349 C339 1.272 . S
O349 Co341 2.135 . S
Co350 O351 2.216 . S
Co350 O352 2.091 . S
Co350 O354 2.004 . S
Co350 O360 2.021 . S
Co350 O362 2.137 . S
Co350 O363 2.244 . S
O351 Co350 2.216 . S
O351 C358 1.247 . S
O352 Co350 2.091 . S
O352 C358 1.261 . S
C353 O362 1.247 . S
C353 O363 1.272 . S
O354 Co350 2.004 . S
O354 C359 1.259 . S
Co355 O356 2.061 . S
Co355 O361 2.052 . S
Co355 O363 2.135 . S
O356 Co355 2.061 . S
O356 C359 1.235 . S
C357 O360 1.238 . S
C357 O361 1.241 . S
C358 O351 1.247 . S
C358 O352 1.261 . S
C359 O354 1.259 . S
C359 O356 1.235 . S
O360 Co350 2.021 . S
O360 C357 1.238 . S
O361 Co355 2.052 . S
O361 C357 1.241 . S
O362 Co350 2.137 . S
O362 C353 1.247 . S
O363 Co350 2.244 . S
O363 C353 1.272 . S
O363 Co355 2.135 . S
Co364 O365 2.216 . S
Co364 O366 2.091 . S
Co364 O368 2.004 . S
Co364 O374 2.021 . S
Co364 O376 2.137 . S
Co364 O377 2.244 . S
O365 Co364 2.216 . S
O365 C372 1.247 . S
O366 Co364 2.091 . S
O366 C372 1.261 . S
C367 O376 1.247 . S
C367 O377 1.272 . S
O368 Co364 2.004 . S
O368 C373 1.259 . S
Co369 O370 2.061 . S
Co369 O375 2.052 . S
Co369 O377 2.135 . S
O370 Co369 2.061 . S
O370 C373 1.235 . S
C371 O374 1.238 . S
C371 O375 1.241 . S
C372 O365 1.247 . S
C372 O366 1.261 . S
C373 O368 1.259 . S
C373 O370 1.235 . S
O374 Co364 2.021 . S
O374 C371 1.238 . S
O375 Co369 2.052 . S
O375 C371 1.241 . S
O376 Co364 2.137 . S
O376 C367 1.247 . S
O377 Co364 2.244 . S
O377 C367 1.272 . S
O377 Co369 2.135 . S
Co378 O379 2.216 . S
Co378 O380 2.091 . S
Co378 O382 2.004 . S
Co378 O388 2.021 . S
Co378 O390 2.137 . S
Co378 O391 2.244 . S
O379 Co378 2.216 . S
O379 C386 1.247 . S
O380 Co378 2.091 . S
O380 C386 1.261 . S
C381 O390 1.247 . S
C381 O391 1.272 . S
O382 Co378 2.004 . S
O382 C387 1.259 . S
Co383 O384 2.061 . S
Co383 O389 2.052 . S
Co383 O391 2.135 . S
O384 Co383 2.061 . S
O384 C387 1.235 . S
C385 O388 1.238 . S
C385 O389 1.241 . S
C386 O379 1.247 . S
C386 O380 1.261 . S
C387 O382 1.259 . S
C387 O384 1.235 . S
O388 Co378 2.021 . S
O388 C385 1.238 . S
O389 Co383 2.052 . S
O389 C385 1.241 . S
O390 Co378 2.137 . S
O390 C381 1.247 . S
O391 Co378 2.244 . S
O391 C381 1.272 . S
O391 Co383 2.135 . S
Co392 O393 2.216 . S
Co392 O394 2.091 . S
Co392 O396 2.004 . S
Co392 O402 2.021 . S
Co392 O404 2.137 . S
Co392 O405 2.244 . S
O393 Co392 2.216 . S
O393 C400 1.247 . S
O394 Co392 2.091 . S
O394 C400 1.261 . S
C395 O404 1.247 . S
C395 O405 1.272 . S
O396 Co392 2.004 . S
O396 C401 1.259 . S
Co397 O398 2.061 . S
Co397 O403 2.052 . S
Co397 O405 2.135 . S
O398 Co397 2.061 . S
O398 C401 1.235 . S
C399 O402 1.238 . S
C399 O403 1.241 . S
C400 O393 1.247 . S
C400 O394 1.261 . S
C401 O396 1.259 . S
C401 O398 1.235 . S
O402 Co392 2.021 . S
O402 C399 1.238 . S
O403 Co397 2.052 . S
O403 C399 1.241 . S
O404 Co392 2.137 . S
O404 C395 1.247 . S
O405 Co392 2.244 . S
O405 C395 1.272 . S
O405 Co397 2.135 . S
Co406 O407 2.216 . S
Co406 O408 2.091 . S
Co406 O410 2.004 . S
Co406 O416 2.021 . S
Co406 O418 2.137 . S
Co406 O419 2.244 . S
O407 Co406 2.216 . S
O407 C414 1.247 . S
O408 Co406 2.091 . S
O408 C414 1.261 . S
C409 O418 1.247 . S
C409 O419 1.272 . S
O410 Co406 2.004 . S
O410 C415 1.259 . S
Co411 O412 2.061 . S
Co411 O417 2.052 . S
Co411 O419 2.135 . S
O412 Co411 2.061 . S
O412 C415 1.235 . S
C413 O416 1.238 . S
C413 O417 1.241 . S
C414 O407 1.247 . S
C414 O408 1.261 . S
C415 O410 1.259 . S
C415 O412 1.235 . S
O416 Co406 2.021 . S
O416 C413 1.238 . S
O417 Co411 2.052 . S
O417 C413 1.241 . S
O418 Co406 2.137 . S
O418 C409 1.247 . S
O419 Co406 2.244 . S
O419 C409 1.272 . S
O419 Co411 2.135 . S
Co420 O421 2.216 . S
Co420 O422 2.091 . S
Co420 O424 2.004 . S
Co420 O430 2.021 . S
Co420 O432 2.137 . S
Co420 O433 2.244 . S
O421 Co420 2.216 . S
O421 C428 1.247 . S
O422 Co420 2.091 . S
O422 C428 1.261 . S
C423 O432 1.247 . S
C423 O433 1.272 . S
O424 Co420 2.004 . S
O424 C429 1.259 . S
Co425 O426 2.061 . S
Co425 O431 2.052 . S
Co425 O433 2.135 . S
O426 Co425 2.061 . S
O426 C429 1.235 . S
C427 O430 1.238 . S
C427 O431 1.241 . S
C428 O421 1.247 . S
C428 O422 1.261 . S
C429 O424 1.259 . S
C429 O426 1.235 . S
O430 Co420 2.021 . S
O430 C427 1.238 . S
O431 Co425 2.052 . S
O431 C427 1.241 . S
O432 Co420 2.137 . S
O432 C423 1.247 . S
O433 Co420 2.244 . S
O433 C423 1.272 . S
O433 Co425 2.135 . S
Co434 O435 2.216 . S
Co434 O436 2.091 . S
Co434 O438 2.004 . S
Co434 O444 2.021 . S
Co434 O446 2.137 . S
Co434 O447 2.244 . S
O435 Co434 2.216 . S
O435 C442 1.247 . S
O436 Co434 2.091 . S
O436 C442 1.261 . S
C437 O446 1.247 . S
C437 O447 1.272 . S
O438 Co434 2.004 . S
O438 C443 1.259 . S
Co439 O440 2.061 . S
Co439 O445 2.052 . S
Co439 O447 2.135 . S
O440 Co439 2.061 . S
O440 C443 1.235 . S
C441 O444 1.238 . S
C441 O445 1.241 . S
C442 O435 1.247 . S
C442 O436 1.261 . S
C443 O438 1.259 . S
C443 O440 1.235 . S
O444 Co434 2.021 . S
O444 C441 1.238 . S
O445 Co439 2.052 . S
O445 C441 1.241 . S
O446 Co434 2.137 . S
O446 C437 1.247 . S
O447 Co434 2.244 . S
O447 C437 1.272 . S
O447 Co439 2.135 . S
Co448 O449 2.216 . S
Co448 O450 2.091 . S
Co448 O452 2.004 . S
Co448 O458 2.021 . S
Co448 O460 2.137 . S
Co448 O461 2.244 . S
O449 Co448 2.216 . S
O449 C456 1.247 . S
O450 Co448 2.091 . S
O450 C456 1.261 . S
C451 O460 1.247 . S
C451 O461 1.272 . S
O452 Co448 2.004 . S
O452 C457 1.259 . S
Co453 O454 2.061 . S
Co453 O459 2.052 . S
Co453 O461 2.135 . S
O454 Co453 2.061 . S
O454 C457 1.235 . S
C455 O458 1.238 . S
C455 O459 1.241 . S
C456 O449 1.247 . S
C456 O450 1.261 . S
C457 O452 1.259 . S
C457 O454 1.235 . S
O458 Co448 2.021 . S
O458 C455 1.238 . S
O459 Co453 2.052 . S
O459 C455 1.241 . S
O460 Co448 2.137 . S
O460 C451 1.247 . S
O461 Co448 2.244 . S
O461 C451 1.272 . S
O461 Co453 2.135 . S
Co462 O463 2.216 . S
Co462 O464 2.091 . S
Co462 O466 2.004 . S
Co462 O472 2.021 . S
Co462 O474 2.137 . S
Co462 O475 2.244 . S
O463 Co462 2.216 . S
O463 C470 1.247 . S
O464 Co462 2.091 . S
O464 C470 1.261 . S
C465 O474 1.247 . S
C465 O475 1.272 . S
O466 Co462 2.004 . S
O466 C471 1.259 . S
Co467 O468 2.061 . S
Co467 O473 2.052 . S
Co467 O475 2.135 . S
O468 Co467 2.061 . S
O468 C471 1.235 . S
C469 O472 1.238 . S
C469 O473 1.241 . S
C470 O463 1.247 . S
C470 O464 1.261 . S
C471 O466 1.259 . S
C471 O468 1.235 . S
O472 Co462 2.021 . S
O472 C469 1.238 . S
O473 Co467 2.052 . S
O473 C469 1.241 . S
O474 Co462 2.137 . S
O474 C465 1.247 . S
O475 Co462 2.244 . S
O475 C465 1.272 . S
O475 Co467 2.135 . S
Co476 O477 2.216 . S
Co476 O478 2.091 . S
Co476 O480 2.004 . S
Co476 O486 2.021 . S
Co476 O488 2.137 . S
Co476 O489 2.244 . S
O477 Co476 2.216 . S
O477 C484 1.247 . S
O478 Co476 2.091 . S
O478 C484 1.261 . S
C479 O488 1.247 . S
C479 O489 1.272 . S
O480 Co476 2.004 . S
O480 C485 1.259 . S
Co481 O482 2.061 . S
Co481 O487 2.052 . S
Co481 O489 2.135 . S
O482 Co481 2.061 . S
O482 C485 1.235 . S
C483 O486 1.238 . S
C483 O487 1.241 . S
C484 O477 1.247 . S
C484 O478 1.261 . S
C485 O480 1.259 . S
C485 O482 1.235 . S
O486 Co476 2.021 . S
O486 C483 1.238 . S
O487 Co481 2.052 . S
O487 C483 1.241 . S
O488 Co476 2.137 . S
O488 C479 1.247 . S
O489 Co476 2.244 . S
O489 C479 1.272 . S
O489 Co481 2.135 . S
Co490 O491 2.216 . S
Co490 O492 2.091 . S
Co490 O494 2.004 . S
Co490 O500 2.021 . S
Co490 O502 2.137 . S
Co490 O503 2.244 . S
O491 Co490 2.216 . S
O491 C498 1.247 . S
O492 Co490 2.091 . S
O492 C498 1.261 . S
C493 O502 1.247 . S
C493 O503 1.272 . S
O494 Co490 2.004 . S
O494 C499 1.259 . S
Co495 O496 2.061 . S
Co495 O501 2.052 . S
Co495 O503 2.135 . S
O496 Co495 2.061 . S
O496 C499 1.235 . S
C497 O500 1.238 . S
C497 O501 1.241 . S
C498 O491 1.247 . S
C498 O492 1.261 . S
C499 O494 1.259 . S
C499 O496 1.235 . S
O500 Co490 2.021 . S
O500 C497 1.238 . S
O501 Co495 2.052 . S
O501 C497 1.241 . S
O502 Co490 2.137 . S
O502 C493 1.247 . S
O503 Co490 2.244 . S
O503 C493 1.272 . S
O503 Co495 2.135 . S
Co504 O505 2.216 . S
Co504 O506 2.091 . S
Co504 O508 2.004 . S
Co504 O514 2.021 . S
Co504 O516 2.137 . S
Co504 O517 2.244 . S
O505 Co504 2.216 . S
O505 C512 1.247 . S
O506 Co504 2.091 . S
O506 C512 1.261 . S
C507 O516 1.247 . S
C507 O517 1.272 . S
O508 Co504 2.004 . S
O508 C513 1.259 . S
Co509 O510 2.061 . S
Co509 O515 2.052 . S
Co509 O517 2.135 . S
O510 Co509 2.061 . S
O510 C513 1.235 . S
C511 O514 1.238 . S
C511 O515 1.241 . S
C512 O505 1.247 . S
C512 O506 1.261 . S
C513 O508 1.259 . S
C513 O510 1.235 . S
O514 Co504 2.021 . S
O514 C511 1.238 . S
O515 Co509 2.052 . S
O515 C511 1.241 . S
O516 Co504 2.137 . S
O516 C507 1.247 . S
O517 Co504 2.244 . S
O517 C507 1.272 . S
O517 Co509 2.135 . S
Co518 O519 2.216 . S
Co518 O520 2.091 . S
Co518 O522 2.004 . S
Co518 O528 2.021 . S
Co518 O530 2.137 . S
Co518 O531 2.244 . S
O519 Co518 2.216 . S
O519 C526 1.247 . S
O520 Co518 2.091 . S
O520 C526 1.261 . S
C521 O530 1.247 . S
C521 O531 1.272 . S
O522 Co518 2.004 . S
O522 C527 1.259 . S
Co523 O524 2.061 . S
Co523 O529 2.052 . S
Co523 O531 2.135 . S
O524 Co523 2.061 . S
O524 C527 1.235 . S
C525 O528 1.238 . S
C525 O529 1.241 . S
C526 O519 1.247 . S
C526 O520 1.261 . S
C527 O522 1.259 . S
C527 O524 1.235 . S
O528 Co518 2.021 . S
O528 C525 1.238 . S
O529 Co523 2.052 . S
O529 C525 1.241 . S
O530 Co518 2.137 . S
O530 C521 1.247 . S
O531 Co518 2.244 . S
O531 C521 1.272 . S
O531 Co523 2.135 . S
Co532 O533 2.216 . S
Co532 O534 2.091 . S
Co532 O536 2.004 . S
Co532 O542 2.021 . S
Co532 O544 2.137 . S
Co532 O545 2.244 . S
O533 Co532 2.216 . S
O533 C540 1.247 . S
O534 Co532 2.091 . S
O534 C540 1.261 . S
C535 O544 1.247 . S
C535 O545 1.272 . S
O536 Co532 2.004 . S
O536 C541 1.259 . S
Co537 O538 2.061 . S
Co537 O543 2.052 . S
Co537 O545 2.135 . S
O538 Co537 2.061 . S
O538 C541 1.235 . S
C539 O542 1.238 . S
C539 O543 1.241 . S
C540 O533 1.247 . S
C540 O534 1.261 . S
C541 O536 1.259 . S
C541 O538 1.235 . S
O542 Co532 2.021 . S
O542 C539 1.238 . S
O543 Co537 2.052 . S
O543 C539 1.241 . S
O544 Co532 2.137 . S
O544 C535 1.247 . S
O545 Co532 2.244 . S
O545 C535 1.272 . S
O545 Co537 2.135 . S
Co546 O547 2.216 . S
Co546 O548 2.091 . S
Co546 O550 2.004 . S
Co546 O556 2.021 . S
Co546 O558 2.137 . S
Co546 O559 2.244 . S
O547 Co546 2.216 . S
O547 C554 1.247 . S
O548 Co546 2.091 . S
O548 C554 1.261 . S
C549 O558 1.247 . S
C549 O559 1.272 . S
O550 Co546 2.004 . S
O550 C555 1.259 . S
Co551 O552 2.061 . S
Co551 O557 2.052 . S
Co551 O559 2.135 . S
O552 Co551 2.061 . S
O552 C555 1.235 . S
C553 O556 1.238 . S
C553 O557 1.241 . S
C554 O547 1.247 . S
C554 O548 1.261 . S
C555 O550 1.259 . S
C555 O552 1.235 . S
O556 Co546 2.021 . S
O556 C553 1.238 . S
O557 Co551 2.052 . S
O557 C553 1.241 . S
O558 Co546 2.137 . S
O558 C549 1.247 . S
O559 Co546 2.244 . S
O559 C549 1.272 . S
O559 Co551 2.135 . S
Co560 O561 2.216 . S
Co560 O562 2.091 . S
Co560 O564 2.004 . S
Co560 O570 2.021 . S
Co560 O572 2.137 . S
Co560 O573 2.244 . S
O561 Co560 2.216 . S
O561 C568 1.247 . S
O562 Co560 2.091 . S
O562 C568 1.261 . S
C563 O572 1.247 . S
C563 O573 1.272 . S
O564 Co560 2.004 . S
O564 C569 1.259 . S
Co565 O566 2.061 . S
Co565 O571 2.052 . S
Co565 O573 2.135 . S
O566 Co565 2.061 . S
O566 C569 1.235 . S
C567 O570 1.238 . S
C567 O571 1.241 . S
C568 O561 1.247 . S
C568 O562 1.261 . S
C569 O564 1.259 . S
C569 O566 1.235 . S
O570 Co560 2.021 . S
O570 C567 1.238 . S
O571 Co565 2.052 . S
O571 C567 1.241 . S
O572 Co560 2.137 . S
O572 C563 1.247 . S
O573 Co560 2.244 . S
O573 C563 1.272 . S
O573 Co565 2.135 . S
Co574 O575 2.216 . S
Co574 O576 2.091 . S
Co574 O578 2.004 . S
Co574 O584 2.021 . S
Co574 O586 2.137 . S
Co574 O587 2.244 . S
O575 Co574 2.216 . S
O575 C582 1.247 . S
O576 Co574 2.091 . S
O576 C582 1.261 . S
C577 O586 1.247 . S
C577 O587 1.272 . S
O578 Co574 2.004 . S
O578 C583 1.259 . S
Co579 O580 2.061 . S
Co579 O585 2.052 . S
Co579 O587 2.135 . S
O580 Co579 2.061 . S
O580 C583 1.235 . S
C581 O584 1.238 . S
C581 O585 1.241 . S
C582 O575 1.247 . S
C582 O576 1.261 . S
C583 O578 1.259 . S
C583 O580 1.235 . S
O584 Co574 2.021 . S
O584 C581 1.238 . S
O585 Co579 2.052 . S
O585 C581 1.241 . S
O586 Co574 2.137 . S
O586 C577 1.247 . S
O587 Co574 2.244 . S
O587 C577 1.272 . S
O587 Co579 2.135 . S
Co588 O589 2.216 . S
Co588 O590 2.091 . S
Co588 O592 2.004 . S
Co588 O598 2.021 . S
Co588 O600 2.137 . S
Co588 O601 2.244 . S
O589 Co588 2.216 . S
O589 C596 1.247 . S
O590 Co588 2.091 . S
O590 C596 1.261 . S
C591 O600 1.247 . S
C591 O601 1.272 . S
O592 Co588 2.004 . S
O592 C597 1.259 . S
Co593 O594 2.061 . S
Co593 O599 2.052 . S
Co593 O601 2.135 . S
O594 Co593 2.061 . S
O594 C597 1.235 . S
C595 O598 1.238 . S
C595 O599 1.241 . S
C596 O589 1.247 . S
C596 O590 1.261 . S
C597 O592 1.259 . S
C597 O594 1.235 . S
O598 Co588 2.021 . S
O598 C595 1.238 . S
O599 Co593 2.052 . S
O599 C595 1.241 . S
O600 Co588 2.137 . S
O600 C591 1.247 . S
O601 Co588 2.244 . S
O601 C591 1.272 . S
O601 Co593 2.135 . S
Co602 O603 2.216 . S
Co602 O604 2.091 . S
Co602 O606 2.004 . S
Co602 O612 2.021 . S
Co602 O614 2.137 . S
Co602 O615 2.244 . S
O603 Co602 2.216 . S
O603 C610 1.247 . S
O604 Co602 2.091 . S
O604 C610 1.261 . S
C605 O614 1.247 . S
C605 O615 1.272 . S
O606 Co602 2.004 . S
O606 C611 1.259 . S
Co607 O608 2.061 . S
Co607 O613 2.052 . S
Co607 O615 2.135 . S
O608 Co607 2.061 . S
O608 C611 1.235 . S
C609 O612 1.238 . S
C609 O613 1.241 . S
C610 O603 1.247 . S
C610 O604 1.261 . S
C611 O606 1.259 . S
C611 O608 1.235 . S
O612 Co602 2.021 . S
O612 C609 1.238 . S
O613 Co607 2.052 . S
O613 C609 1.241 . S
O614 Co602 2.137 . S
O614 C605 1.247 . S
O615 Co602 2.244 . S
O615 C605 1.272 . S
O615 Co607 2.135 . S
Co616 O617 2.216 . S
Co616 O618 2.091 . S
Co616 O620 2.004 . S
Co616 O626 2.021 . S
Co616 O628 2.137 . S
Co616 O629 2.244 . S
O617 Co616 2.216 . S
O617 C624 1.247 . S
O618 Co616 2.091 . S
O618 C624 1.261 . S
C619 O628 1.247 . S
C619 O629 1.272 . S
O620 Co616 2.004 . S
O620 C625 1.259 . S
Co621 O622 2.061 . S
Co621 O627 2.052 . S
Co621 O629 2.135 . S
O622 Co621 2.061 . S
O622 C625 1.235 . S
C623 O626 1.238 . S
C623 O627 1.241 . S
C624 O617 1.247 . S
C624 O618 1.261 . S
C625 O620 1.259 . S
C625 O622 1.235 . S
O626 Co616 2.021 . S
O626 C623 1.238 . S
O627 Co621 2.052 . S
O627 C623 1.241 . S
O628 Co616 2.137 . S
O628 C619 1.247 . S
O629 Co616 2.244 . S
O629 C619 1.272 . S
O629 Co621 2.135 . S
Co630 O631 2.216 . S
Co630 O632 2.091 . S
Co630 O634 2.004 . S
Co630 O640 2.021 . S
Co630 O642 2.137 . S
Co630 O643 2.244 . S
O631 Co630 2.216 . S
O631 C638 1.247 . S
O632 Co630 2.091 . S
O632 C638 1.261 . S
C633 O642 1.247 . S
C633 O643 1.272 . S
O634 Co630 2.004 . S
O634 C639 1.259 . S
Co635 O636 2.061 . S
Co635 O641 2.052 . S
Co635 O643 2.135 . S
O636 Co635 2.061 . S
O636 C639 1.235 . S
C637 O640 1.238 . S
C637 O641 1.241 . S
C638 O631 1.247 . S
C638 O632 1.261 . S
C639 O634 1.259 . S
C639 O636 1.235 . S
O640 Co630 2.021 . S
O640 C637 1.238 . S
O641 Co635 2.052 . S
O641 C637 1.241 . S
O642 Co630 2.137 . S
O642 C633 1.247 . S
O643 Co630 2.244 . S
O643 C633 1.272 . S
O643 Co635 2.135 . S
Co644 O645 2.216 . S
Co644 O646 2.091 . S
Co644 O648 2.004 . S
Co644 O654 2.021 . S
Co644 O656 2.137 . S
Co644 O657 2.244 . S
O645 Co644 2.216 . S
O645 C652 1.247 . S
O646 Co644 2.091 . S
O646 C652 1.261 . S
C647 O656 1.247 . S
C647 O657 1.272 . S
O648 Co644 2.004 . S
O648 C653 1.259 . S
Co649 O650 2.061 . S
Co649 O655 2.052 . S
Co649 O657 2.135 . S
O650 Co649 2.061 . S
O650 C653 1.235 . S
C651 O654 1.238 . S
C651 O655 1.241 . S
C652 O645 1.247 . S
C652 O646 1.261 . S
C653 O648 1.259 . S
C653 O650 1.235 . S
O654 Co644 2.021 . S
O654 C651 1.238 . S
O655 Co649 2.052 . S
O655 C651 1.241 . S
O656 Co644 2.137 . S
O656 C647 1.247 . S
O657 Co644 2.244 . S
O657 C647 1.272 . S
O657 Co649 2.135 . S
Co658 O659 2.216 . S
Co658 O660 2.091 . S
Co658 O662 2.004 . S
Co658 O668 2.021 . S
Co658 O670 2.137 . S
Co658 O671 2.244 . S
O659 Co658 2.216 . S
O659 C666 1.247 . S
O660 Co658 2.091 . S
O660 C666 1.261 . S
C661 O670 1.247 . S
C661 O671 1.272 . S
O662 Co658 2.004 . S
O662 C667 1.259 . S
Co663 O664 2.061 . S
Co663 O669 2.052 . S
Co663 O671 2.135 . S
O664 Co663 2.061 . S
O664 C667 1.235 . S
C665 O668 1.238 . S
C665 O669 1.241 . S
C666 O659 1.247 . S
C666 O660 1.261 . S
C667 O662 1.259 . S
C667 O664 1.235 . S
O668 Co658 2.021 . S
O668 C665 1.238 . S
O669 Co663 2.052 . S
O669 C665 1.241 . S
O670 Co658 2.137 . S
O670 C661 1.247 . S
O671 Co658 2.244 . S
O671 C661 1.272 . S
O671 Co663 2.135 . S
Co672 O673 2.216 . S
Co672 O674 2.091 . S
Co672 O676 2.004 . S
Co672 O682 2.021 . S
Co672 O684 2.137 . S
Co672 O685 2.244 . S
O673 Co672 2.216 . S
O673 C680 1.247 . S
O674 Co672 2.091 . S
O674 C680 1.261 . S
C675 O684 1.247 . S
C675 O685 1.272 . S
O676 Co672 2.004 . S
O676 C681 1.259 . S
Co677 O678 2.061 . S
Co677 O683 2.052 . S
Co677 O685 2.135 . S
O678 Co677 2.061 . S
O678 C681 1.235 . S
C679 O682 1.238 . S
C679 O683 1.241 . S
C680 O673 1.247 . S
C680 O674 1.261 . S
C681 O676 1.259 . S
C681 O678 1.235 . S
O682 Co672 2.021 . S
O682 C679 1.238 . S
O683 Co677 2.052 . S
O683 C679 1.241 . S
O684 Co672 2.137 . S
O684 C675 1.247 . S
O685 Co672 2.244 . S
O685 C675 1.272 . S
O685 Co677 2.135 . S
Co686 O687 2.216 . S
Co686 O688 2.091 . S
Co686 O690 2.004 . S
Co686 O696 2.021 . S
Co686 O698 2.137 . S
Co686 O699 2.244 . S
O687 Co686 2.216 . S
O687 C694 1.247 . S
O688 Co686 2.091 . S
O688 C694 1.261 . S
C689 O698 1.247 . S
C689 O699 1.272 . S
O690 Co686 2.004 . S
O690 C695 1.259 . S
Co691 O692 2.061 . S
Co691 O697 2.052 . S
Co691 O699 2.135 . S
O692 Co691 2.061 . S
O692 C695 1.235 . S
C693 O696 1.238 . S
C693 O697 1.241 . S
C694 O687 1.247 . S
C694 O688 1.261 . S
C695 O690 1.259 . S
C695 O692 1.235 . S
O696 Co686 2.021 . S
O696 C693 1.238 . S
O697 Co691 2.052 . S
O697 C693 1.241 . S
O698 Co686 2.137 . S
O698 C689 1.247 . S
O699 Co686 2.244 . S
O699 C689 1.272 . S
O699 Co691 2.135 . S
Co700 O701 2.216 . S
Co700 O702 2.091 . S
Co700 O704 2.004 . S
Co700 O710 2.021 . S
Co700 O712 2.137 . S
Co700 O713 2.244 . S
O701 Co700 2.216 . S
O701 C708 1.247 . S
O702 Co700 2.091 . S
O702 C708 1.261 . S
C703 O712 1.247 . S
C703 O713 1.272 . S
O704 Co700 2.004 . S
O704 C709 1.259 . S
Co705 O706 2.061 . S
Co705 O711 2.052 . S
Co705 O713 2.135 . S
O706 Co705 2.061 . S
O706 C709 1.235 . S
C707 O710 1.238 . S
C707 O711 1.241 . S
C708 O701 1.247 . S
C708 O702 1.261 . S
C709 O704 1.259 . S
C709 O706 1.235 . S
O710 Co700 2.021 . S
O710 C707 1.238 . S
O711 Co705 2.052 . S
O711 C707 1.241 . S
O712 Co700 2.137 . S
O712 C703 1.247 . S
O713 Co700 2.244 . S
O713 C703 1.272 . S
O713 Co705 2.135 . S
Co714 O715 2.216 . S
Co714 O716 2.091 . S
Co714 O718 2.004 . S
Co714 O724 2.021 . S
Co714 O726 2.137 . S
Co714 O727 2.244 . S
O715 Co714 2.216 . S
O715 C722 1.247 . S
O716 Co714 2.091 . S
O716 C722 1.261 . S
C717 O726 1.247 . S
C717 O727 1.272 . S
O718 Co714 2.004 . S
O718 C723 1.259 . S
Co719 O720 2.061 . S
Co719 O725 2.052 . S
Co719 O727 2.135 . S
O720 Co719 2.061 . S
O720 C723 1.235 . S
C721 O724 1.238 . S
C721 O725 1.241 . S
C722 O715 1.247 . S
C722 O716 1.261 . S
C723 O718 1.259 . S
C723 O720 1.235 . S
O724 Co714 2.021 . S
O724 C721 1.238 . S
O725 Co719 2.052 . S
O725 C721 1.241 . S
O726 Co714 2.137 . S
O726 C717 1.247 . S
O727 Co714 2.244 . S
O727 C717 1.272 . S
O727 Co719 2.135 . S
Co728 O729 2.216 . S
Co728 O730 2.091 . S
Co728 O732 2.004 . S
Co728 O738 2.021 . S
Co728 O740 2.137 . S
Co728 O741 2.244 . S
O729 Co728 2.216 . S
O729 C736 1.247 . S
O730 Co728 2.091 . S
O730 C736 1.261 . S
C731 O740 1.247 . S
C731 O741 1.272 . S
O732 Co728 2.004 . S
O732 C737 1.259 . S
Co733 O734 2.061 . S
Co733 O739 2.052 . S
Co733 O741 2.135 . S
O734 Co733 2.061 . S
O734 C737 1.235 . S
C735 O738 1.238 . S
C735 O739 1.241 . S
C736 O729 1.247 . S
C736 O730 1.261 . S
C737 O732 1.259 . S
C737 O734 1.235 . S
O738 Co728 2.021 . S
O738 C735 1.238 . S
O739 Co733 2.052 . S
O739 C735 1.241 . S
O740 Co728 2.137 . S
O740 C731 1.247 . S
O741 Co728 2.244 . S
O741 C731 1.272 . S
O741 Co733 2.135 . S
Co742 O743 2.216 . S
Co742 O744 2.091 . S
Co742 O746 2.004 . S
Co742 O752 2.021 . S
Co742 O754 2.137 . S
Co742 O755 2.244 . S
O743 Co742 2.216 . S
O743 C750 1.247 . S
O744 Co742 2.091 . S
O744 C750 1.261 . S
C745 O754 1.247 . S
C745 O755 1.272 . S
O746 Co742 2.004 . S
O746 C751 1.259 . S
Co747 O748 2.061 . S
Co747 O753 2.052 . S
Co747 O755 2.135 . S
O748 Co747 2.061 . S
O748 C751 1.235 . S
C749 O752 1.238 . S
C749 O753 1.241 . S
C750 O743 1.247 . S
C750 O744 1.261 . S
C751 O746 1.259 . S
C751 O748 1.235 . S
O752 Co742 2.021 . S
O752 C749 1.238 . S
O753 Co747 2.052 . S
O753 C749 1.241 . S
O754 Co742 2.137 . S
O754 C745 1.247 . S
O755 Co742 2.244 . S
O755 C745 1.272 . S
O755 Co747 2.135 . S
Co756 O757 2.216 . S
Co756 O758 2.091 . S
Co756 O760 2.004 . S
Co756 O766 2.021 . S
Co756 O768 2.137 . S
Co756 O769 2.244 . S
O757 Co756 2.216 . S
O757 C764 1.247 . S
O758 Co756 2.091 . S
O758 C764 1.261 . S
C759 O768 1.247 . S
C759 O769 1.272 . S
O760 Co756 2.004 . S
O760 C765 1.259 . S
Co761 O762 2.061 . S
Co761 O767 2.052 . S
Co761 O769 2.135 . S
O762 Co761 2.061 . S
O762 C765 1.235 . S
C763 O766 1.238 . S
C763 O767 1.241 . S
C764 O757 1.247 . S
C764 O758 1.261 . S
C765 O760 1.259 . S
C765 O762 1.235 . S
O766 Co756 2.021 . S
O766 C763 1.238 . S
O767 Co761 2.052 . S
O767 C763 1.241 . S
O768 Co756 2.137 . S
O768 C759 1.247 . S
O769 Co756 2.244 . S
O769 C759 1.272 . S
O769 Co761 2.135 . S
Co770 O771 2.216 . S
Co770 O772 2.091 . S
Co770 O774 2.004 . S
Co770 O780 2.021 . S
Co770 O782 2.137 . S
Co770 O783 2.244 . S
O771 Co770 2.216 . S
O771 C778 1.247 . S
O772 Co770 2.091 . S
O772 C778 1.261 . S
C773 O782 1.247 . S
C773 O783 1.272 . S
O774 Co770 2.004 . S
O774 C779 1.259 . S
Co775 O776 2.061 . S
Co775 O781 2.052 . S
Co775 O783 2.135 . S
O776 Co775 2.061 . S
O776 C779 1.235 . S
C777 O780 1.238 . S
C777 O781 1.241 . S
C778 O771 1.247 . S
C778 O772 1.261 . S
C779 O774 1.259 . S
C779 O776 1.235 . S
O780 Co770 2.021 . S
O780 C777 1.238 . S
O781 Co775 2.052 . S
O781 C777 1.241 . S
O782 Co770 2.137 . S
O782 C773 1.247 . S
O783 Co770 2.244 . S
O783 C773 1.272 . S
O783 Co775 2.135 . S
Co784 O785 2.216 . S
Co784 O786 2.091 . S
Co784 O788 2.004 . S
Co784 O794 2.021 . S
Co784 O796 2.137 . S
Co784 O797 2.244 . S
O785 Co784 2.216 . S
O785 C792 1.247 . S
O786 Co784 2.091 . S
O786 C792 1.261 . S
C787 O796 1.247 . S
C787 O797 1.272 . S
O788 Co784 2.004 . S
O788 C793 1.259 . S
Co789 O790 2.061 . S
Co789 O795 2.052 . S
Co789 O797 2.135 . S
O790 Co789 2.061 . S
O790 C793 1.235 . S
C791 O794 1.238 . S
C791 O795 1.241 . S
C792 O785 1.247 . S
C792 O786 1.261 . S
C793 O788 1.259 . S
C793 O790 1.235 . S
O794 Co784 2.021 . S
O794 C791 1.238 . S
O795 Co789 2.052 . S
O795 C791 1.241 . S
O796 Co784 2.137 . S
O796 C787 1.247 . S
O797 Co784 2.244 . S
O797 C787 1.272 . S
O797 Co789 2.135 . S
Co798 O799 2.216 . S
Co798 O800 2.091 . S
Co798 O802 2.004 . S
Co798 O808 2.021 . S
Co798 O810 2.137 . S
Co798 O811 2.244 . S
O799 Co798 2.216 . S
O799 C806 1.247 . S
O800 Co798 2.091 . S
O800 C806 1.261 . S
C801 O810 1.247 . S
C801 O811 1.272 . S
O802 Co798 2.004 . S
O802 C807 1.259 . S
Co803 O804 2.061 . S
Co803 O809 2.052 . S
Co803 O811 2.135 . S
O804 Co803 2.061 . S
O804 C807 1.235 . S
C805 O808 1.238 . S
C805 O809 1.241 . S
C806 O799 1.247 . S
C806 O800 1.261 . S
C807 O802 1.259 . S
C807 O804 1.235 . S
O808 Co798 2.021 . S
O808 C805 1.238 . S
O809 Co803 2.052 . S
O809 C805 1.241 . S
O810 Co798 2.137 . S
O810 C801 1.247 . S
O811 Co798 2.244 . S
O811 C801 1.272 . S
O811 Co803 2.135 . S
Co812 O813 2.216 . S
Co812 O814 2.091 . S
Co812 O816 2.004 . S
Co812 O822 2.021 . S
Co812 O824 2.137 . S
Co812 O825 2.244 . S
O813 Co812 2.216 . S
O813 C820 1.247 . S
O814 Co812 2.091 . S
O814 C820 1.261 . S
C815 O824 1.247 . S
C815 O825 1.272 . S
O816 Co812 2.004 . S
O816 C821 1.259 . S
Co817 O818 2.061 . S
Co817 O823 2.052 . S
Co817 O825 2.135 . S
O818 Co817 2.061 . S
O818 C821 1.235 . S
C819 O822 1.238 . S
C819 O823 1.241 . S
C820 O813 1.247 . S
C820 O814 1.261 . S
C821 O816 1.259 . S
C821 O818 1.235 . S
O822 Co812 2.021 . S
O822 C819 1.238 . S
O823 Co817 2.052 . S
O823 C819 1.241 . S
O824 Co812 2.137 . S
O824 C815 1.247 . S
O825 Co812 2.244 . S
O825 C815 1.272 . S
O825 Co817 2.135 . S
Co826 O827 2.216 . S
Co826 O828 2.091 . S
Co826 O830 2.004 . S
Co826 O836 2.021 . S
Co826 O838 2.137 . S
Co826 O839 2.244 . S
O827 Co826 2.216 . S
O827 C834 1.247 . S
O828 Co826 2.091 . S
O828 C834 1.261 . S
C829 O838 1.247 . S
C829 O839 1.272 . S
O830 Co826 2.004 . S
O830 C835 1.259 . S
Co831 O832 2.061 . S
Co831 O837 2.052 . S
Co831 O839 2.135 . S
O832 Co831 2.061 . S
O832 C835 1.235 . S
C833 O836 1.238 . S
C833 O837 1.241 . S
C834 O827 1.247 . S
C834 O828 1.261 . S
C835 O830 1.259 . S
C835 O832 1.235 . S
O836 Co826 2.021 . S
O836 C833 1.238 . S
O837 Co831 2.052 . S
O837 C833 1.241 . S
O838 Co826 2.137 . S
O838 C829 1.247 . S
O839 Co826 2.244 . S
O839 C829 1.272 . S
O839 Co831 2.135 . S
Co840 O841 2.216 . S
Co840 O842 2.091 . S
Co840 O844 2.004 . S
Co840 O850 2.021 . S
Co840 O852 2.137 . S
Co840 O853 2.244 . S
O841 Co840 2.216 . S
O841 C848 1.247 . S
O842 Co840 2.091 . S
O842 C848 1.261 . S
C843 O852 1.247 . S
C843 O853 1.272 . S
O844 Co840 2.004 . S
O844 C849 1.259 . S
Co845 O846 2.061 . S
Co845 O851 2.052 . S
Co845 O853 2.135 . S
O846 Co845 2.061 . S
O846 C849 1.235 . S
C847 O850 1.238 . S
C847 O851 1.241 . S
C848 O841 1.247 . S
C848 O842 1.261 . S
C849 O844 1.259 . S
C849 O846 1.235 . S
O850 Co840 2.021 . S
O850 C847 1.238 . S
O851 Co845 2.052 . S
O851 C847 1.241 . S
O852 Co840 2.137 . S
O852 C843 1.247 . S
O853 Co840 2.244 . S
O853 C843 1.272 . S
O853 Co845 2.135 . S
Co854 O855 2.216 . S
Co854 O856 2.091 . S
Co854 O858 2.004 . S
Co854 O864 2.021 . S
Co854 O866 2.137 . S
Co854 O867 2.244 . S
O855 Co854 2.216 . S
O855 C862 1.247 . S
O856 Co854 2.091 . S
O856 C862 1.261 . S
C857 O866 1.247 . S
C857 O867 1.272 . S
O858 Co854 2.004 . S
O858 C863 1.259 . S
Co859 O860 2.061 . S
Co859 O865 2.052 . S
Co859 O867 2.135 . S
O860 Co859 2.061 . S
O860 C863 1.235 . S
C861 O864 1.238 . S
C861 O865 1.241 . S
C862 O855 1.247 . S
C862 O856 1.261 . S
C863 O858 1.259 . S
C863 O860 1.235 . S
O864 Co854 2.021 . S
O864 C861 1.238 . S
O865 Co859 2.052 . S
O865 C861 1.241 . S
O866 Co854 2.137 . S
O866 C857 1.247 . S
O867 Co854 2.244 . S
O867 C857 1.272 . S
O867 Co859 2.135 . S
Co868 O869 2.216 . S
Co868 O870 2.091 . S
Co868 O872 2.004 . S
Co868 O878 2.021 . S
Co868 O880 2.137 . S
Co868 O881 2.244 . S
O869 Co868 2.216 . S
O869 C876 1.247 . S
O870 Co868 2.091 . S
O870 C876 1.261 . S
C871 O880 1.247 . S
C871 O881 1.272 . S
O872 Co868 2.004 . S
O872 C877 1.259 . S
Co873 O874 2.061 . S
Co873 O879 2.052 . S
Co873 O881 2.135 . S
O874 Co873 2.061 . S
O874 C877 1.235 . S
C875 O878 1.238 . S
C875 O879 1.241 . S
C876 O869 1.247 . S
C876 O870 1.261 . S
C877 O872 1.259 . S
C877 O874 1.235 . S
O878 Co868 2.021 . S
O878 C875 1.238 . S
O879 Co873 2.052 . S
O879 C875 1.241 . S
O880 Co868 2.137 . S
O880 C871 1.247 . S
O881 Co868 2.244 . S
O881 C871 1.272 . S
O881 Co873 2.135 . S
Co882 O883 2.216 . S
Co882 O884 2.091 . S
Co882 O886 2.004 . S
Co882 O892 2.021 . S
Co882 O894 2.137 . S
Co882 O895 2.244 . S
O883 Co882 2.216 . S
O883 C890 1.247 . S
O884 Co882 2.091 . S
O884 C890 1.261 . S
C885 O894 1.247 . S
C885 O895 1.272 . S
O886 Co882 2.004 . S
O886 C891 1.259 . S
Co887 O888 2.061 . S
Co887 O893 2.052 . S
Co887 O895 2.135 . S
O888 Co887 2.061 . S
O888 C891 1.235 . S
C889 O892 1.238 . S
C889 O893 1.241 . S
C890 O883 1.247 . S
C890 O884 1.261 . S
C891 O886 1.259 . S
C891 O888 1.235 . S
O892 Co882 2.021 . S
O892 C889 1.238 . S
O893 Co887 2.052 . S
O893 C889 1.241 . S
O894 Co882 2.137 . S
O894 C885 1.247 . S
O895 Co882 2.244 . S
O895 C885 1.272 . S
O895 Co887 2.135 . S
Co896 O897 2.216 . S
Co896 O898 2.091 . S
Co896 O900 2.004 . S
Co896 O906 2.021 . S
Co896 O908 2.137 . S
Co896 O909 2.244 . S
O897 Co896 2.216 . S
O897 C904 1.247 . S
O898 Co896 2.091 . S
O898 C904 1.261 . S
C899 O908 1.247 . S
C899 O909 1.272 . S
O900 Co896 2.004 . S
O900 C905 1.259 . S
Co901 O902 2.061 . S
Co901 O907 2.052 . S
Co901 O909 2.135 . S
O902 Co901 2.061 . S
O902 C905 1.235 . S
C903 O906 1.238 . S
C903 O907 1.241 . S
C904 O897 1.247 . S
C904 O898 1.261 . S
C905 O900 1.259 . S
C905 O902 1.235 . S
O906 Co896 2.021 . S
O906 C903 1.238 . S
O907 Co901 2.052 . S
O907 C903 1.241 . S
O908 Co896 2.137 . S
O908 C899 1.247 . S
O909 Co896 2.244 . S
O909 C899 1.272 . S
O909 Co901 2.135 . S
Co910 O911 2.216 . S
Co910 O912 2.091 . S
Co910 O914 2.004 . S
Co910 O920 2.021 . S
Co910 O922 2.137 . S
Co910 O923 2.244 . S
O911 Co910 2.216 . S
O911 C918 1.247 . S
O912 Co910 2.091 . S
O912 C918 1.261 . S
C913 O922 1.247 . S
C913 O923 1.272 . S
O914 Co910 2.004 . S
O914 C919 1.259 . S
Co915 O916 2.061 . S
Co915 O921 2.052 . S
Co915 O923 2.135 . S
O916 Co915 2.061 . S
O916 C919 1.235 . S
C917 O920 1.238 . S
C917 O921 1.241 . S
C918 O911 1.247 . S
C918 O912 1.261 . S
C919 O914 1.259 . S
C919 O916 1.235 . S
O920 Co910 2.021 . S
O920 C917 1.238 . S
O921 Co915 2.052 . S
O921 C917 1.241 . S
O922 Co910 2.137 . S
O922 C913 1.247 . S
O923 Co910 2.244 . S
O923 C913 1.272 . S
O923 Co915 2.135 . S
Co924 O925 2.216 . S
Co924 O926 2.091 . S
Co924 O928 2.004 . S
Co924 O934 2.021 . S
Co924 O936 2.137 . S
Co924 O937 2.244 . S
O925 Co924 2.216 . S
O925 C932 1.247 . S
O926 Co924 2.091 . S
O926 C932 1.261 . S
C927 O936 1.247 . S
C927 O937 1.272 . S
O928 Co924 2.004 . S
O928 C933 1.259 . S
Co929 O930 2.061 . S
Co929 O935 2.052 . S
Co929 O937 2.135 . S
O930 Co929 2.061 . S
O930 C933 1.235 . S
C931 O934 1.238 . S
C931 O935 1.241 . S
C932 O925 1.247 . S
C932 O926 1.261 . S
C933 O928 1.259 . S
C933 O930 1.235 . S
O934 Co924 2.021 . S
O934 C931 1.238 . S
O935 Co929 2.052 . S
O935 C931 1.241 . S
O936 Co924 2.137 . S
O936 C927 1.247 . S
O937 Co924 2.244 . S
O937 C927 1.272 . S
O937 Co929 2.135 . S
Co938 O939 2.216 . S
Co938 O940 2.091 . S
Co938 O942 2.004 . S
Co938 O948 2.021 . S
Co938 O950 2.137 . S
Co938 O951 2.244 . S
O939 Co938 2.216 . S
O939 C946 1.247 . S
O940 Co938 2.091 . S
O940 C946 1.261 . S
C941 O950 1.247 . S
C941 O951 1.272 . S
O942 Co938 2.004 . S
O942 C947 1.259 . S
Co943 O944 2.061 . S
Co943 O949 2.052 . S
Co943 O951 2.135 . S
O944 Co943 2.061 . S
O944 C947 1.235 . S
C945 O948 1.238 . S
C945 O949 1.241 . S
C946 O939 1.247 . S
C946 O940 1.261 . S
C947 O942 1.259 . S
C947 O944 1.235 . S
O948 Co938 2.021 . S
O948 C945 1.238 . S
O949 Co943 2.052 . S
O949 C945 1.241 . S
O950 Co938 2.137 . S
O950 C941 1.247 . S
O951 Co938 2.244 . S
O951 C941 1.272 . S
O951 Co943 2.135 . S
Co952 O953 2.216 . S
Co952 O954 2.091 . S
Co952 O956 2.004 . S
Co952 O962 2.021 . S
Co952 O964 2.137 . S
Co952 O965 2.244 . S
O953 Co952 2.216 . S
O953 C960 1.247 . S
O954 Co952 2.091 . S
O954 C960 1.261 . S
C955 O964 1.247 . S
C955 O965 1.272 . S
O956 Co952 2.004 . S
O956 C961 1.259 . S
Co957 O958 2.061 . S
Co957 O963 2.052 . S
Co957 O965 2.135 . S
O958 Co957 2.061 . S
O958 C961 1.235 . S
C959 O962 1.238 . S
C959 O963 1.241 . S
C960 O953 1.247 . S
C960 O954 1.261 . S
C961 O956 1.259 . S
C961 O958 1.235 . S
O962 Co952 2.021 . S
O962 C959 1.238 . S
O963 Co957 2.052 . S
O963 C959 1.241 . S
O964 Co952 2.137 . S
O964 C955 1.247 . S
O965 Co952 2.244 . S
O965 C955 1.272 . S
O965 Co957 2.135 . S
Co966 O967 2.216 . S
Co966 O968 2.091 . S
Co966 O970 2.004 . S
Co966 O976 2.021 . S
Co966 O978 2.137 . S
Co966 O979 2.244 . S
O967 Co966 2.216 . S
O967 C974 1.247 . S
O968 Co966 2.091 . S
O968 C974 1.261 . S
C969 O978 1.247 . S
C969 O979 1.272 . S
O970 Co966 2.004 . S
O970 C975 1.259 . S
Co971 O972 2.061 . S
Co971 O977 2.052 . S
Co971 O979 2.135 . S
O972 Co971 2.061 . S
O972 C975 1.235 . S
C973 O976 1.238 . S
C973 O977 1.241 . S
C974 O967 1.247 . S
C974 O968 1.261 . S
C975 O970 1.259 . S
C975 O972 1.235 . S
O976 Co966 2.021 . S
O976 C973 1.238 . S
O977 Co971 2.052 . S
O977 C973 1.241 . S
O978 Co966 2.137 . S
O978 C969 1.247 . S
O979 Co966 2.244 . S
O979 C969 1.272 . S
O979 Co971 2.135 . S
Co980 O981 2.216 . S
Co980 O982 2.091 . S
Co980 O984 2.004 . S
Co980 O990 2.021 . S
Co980 O992 2.137 . S
Co980 O993 2.244 . S
O981 Co980 2.216 . S
O981 C988 1.247 . S
O982 Co980 2.091 . S
O982 C988 1.261 . S
C983 O992 1.247 . S
C983 O993 1.272 . S
O984 Co980 2.004 . S
O984 C989 1.259 . S
Co985 O986 2.061 . S
Co985 O991 2.052 . S
Co985 O993 2.135 . S
O986 Co985 2.061 . S
O986 C989 1.235 . S
C987 O990 1.238 . S
C987 O991 1.241 . S
C988 O981 1.247 . S
C988 O982 1.261 . S
C989 O984 1.259 . S
C989 O986 1.235 . S
O990 Co980 2.021 . S
O990 C987 1.238 . S
O991 Co985 2.052 . S
O991 C987 1.241 . S
O992 Co980 2.137 . S
O992 C983 1.247 . S
O993 Co980 2.244 . S
O993 C983 1.272 . S
O993 Co985 2.135 . S
Co994 O995 2.216 . S
Co994 O996 2.091 . S
Co994 O998 2.004 . S
Co994 O1004 2.021 . S
Co994 O1006 2.137 . S
Co994 O1007 2.244 . S
O995 Co994 2.216 . S
O995 C1002 1.247 . S
O996 Co994 2.091 . S
O996 C1002 1.261 . S
C997 O1006 1.247 . S
C997 O1007 1.272 . S
O998 Co994 2.004 . S
O998 C1003 1.259 . S
Co999 O1000 2.061 . S
Co999 O1005 2.052 . S
Co999 O1007 2.135 . S
O1000 Co999 2.061 . S
O1000 C1003 1.235 . S
C1001 O1004 1.238 . S
C1001 O1005 1.241 . S
C1002 O995 1.247 . S
C1002 O996 1.261 . S
C1003 O998 1.259 . S
C1003 O1000 1.235 . S
O1004 Co994 2.021 . S
O1004 C1001 1.238 . S
O1005 Co999 2.052 . S
O1005 C1001 1.241 . S
O1006 Co994 2.137 . S
O1006 C997 1.247 . S
O1007 Co994 2.244 . S
O1007 C997 1.272 . S
O1007 Co999 2.135 . S
Co1008 O1009 2.216 . S
Co1008 O1010 2.091 . S
Co1008 O1012 2.004 . S
Co1008 O1018 2.021 . S
Co1008 O1020 2.137 . S
Co1008 O1021 2.244 . S
O1009 Co1008 2.216 . S
O1009 C1016 1.247 . S
O1010 Co1008 2.091 . S
O1010 C1016 1.261 . S
C1011 O1020 1.247 . S
C1011 O1021 1.272 . S
O1012 Co1008 2.004 . S
O1012 C1017 1.259 . S
Co1013 O1014 2.061 . S
Co1013 O1019 2.052 . S
Co1013 O1021 2.135 . S
O1014 Co1013 2.061 . S
O1014 C1017 1.235 . S
C1015 O1018 1.238 . S
C1015 O1019 1.241 . S
C1016 O1009 1.247 . S
C1016 O1010 1.261 . S
C1017 O1012 1.259 . S
C1017 O1014 1.235 . S
O1018 Co1008 2.021 . S
O1018 C1015 1.238 . S
O1019 Co1013 2.052 . S
O1019 C1015 1.241 . S
O1020 Co1008 2.137 . S
O1020 C1011 1.247 . S
O1021 Co1008 2.244 . S
O1021 C1011 1.272 . S
O1021 Co1013 2.135 . S
Co1022 O1023 2.216 . S
Co1022 O1024 2.091 . S
Co1022 O1026 2.004 . S
Co1022 O1032 2.021 . S
Co1022 O1034 2.137 . S
Co1022 O1035 2.244 . S
O1023 Co1022 2.216 . S
O1023 C1030 1.247 . S
O1024 Co1022 2.091 . S
O1024 C1030 1.261 . S
C1025 O1034 1.247 . S
C1025 O1035 1.272 . S
O1026 Co1022 2.004 . S
O1026 C1031 1.259 . S
Co1027 O1028 2.061 . S
Co1027 O1033 2.052 . S
Co1027 O1035 2.135 . S
O1028 Co1027 2.061 . S
O1028 C1031 1.235 . S
C1029 O1032 1.238 . S
C1029 O1033 1.241 . S
C1030 O1023 1.247 . S
C1030 O1024 1.261 . S
C1031 O1026 1.259 . S
C1031 O1028 1.235 . S
O1032 Co1022 2.021 . S
O1032 C1029 1.238 . S
O1033 Co1027 2.052 . S
O1033 C1029 1.241 . S
O1034 Co1022 2.137 . S
O1034 C1025 1.247 . S
O1035 Co1022 2.244 . S
O1035 C1025 1.272 . S
O1035 Co1027 2.135 . S
Co1036 O1037 2.216 . S
Co1036 O1038 2.091 . S
Co1036 O1040 2.004 . S
Co1036 O1046 2.021 . S
Co1036 O1048 2.137 . S
Co1036 O1049 2.244 . S
O1037 Co1036 2.216 . S
O1037 C1044 1.247 . S
O1038 Co1036 2.091 . S
O1038 C1044 1.261 . S
C1039 O1048 1.247 . S
C1039 O1049 1.272 . S
O1040 Co1036 2.004 . S
O1040 C1045 1.259 . S
Co1041 O1042 2.061 . S
Co1041 O1047 2.052 . S
Co1041 O1049 2.135 . S
O1042 Co1041 2.061 . S
O1042 C1045 1.235 . S
C1043 O1046 1.238 . S
C1043 O1047 1.241 . S
C1044 O1037 1.247 . S
C1044 O1038 1.261 . S
C1045 O1040 1.259 . S
C1045 O1042 1.235 . S
O1046 Co1036 2.021 . S
O1046 C1043 1.238 . S
O1047 Co1041 2.052 . S
O1047 C1043 1.241 . S
O1048 Co1036 2.137 . S
O1048 C1039 1.247 . S
O1049 Co1036 2.244 . S
O1049 C1039 1.272 . S
O1049 Co1041 2.135 . S
Co1050 O1051 2.216 . S
Co1050 O1052 2.091 . S
Co1050 O1054 2.004 . S
Co1050 O1060 2.021 . S
Co1050 O1062 2.137 . S
Co1050 O1063 2.244 . S
O1051 Co1050 2.216 . S
O1051 C1058 1.247 . S
O1052 Co1050 2.091 . S
O1052 C1058 1.261 . S
C1053 O1062 1.247 . S
C1053 O1063 1.272 . S
O1054 Co1050 2.004 . S
O1054 C1059 1.259 . S
Co1055 O1056 2.061 . S
Co1055 O1061 2.052 . S
Co1055 O1063 2.135 . S
O1056 Co1055 2.061 . S
O1056 C1059 1.235 . S
C1057 O1060 1.238 . S
C1057 O1061 1.241 . S
C1058 O1051 1.247 . S
C1058 O1052 1.261 . S
C1059 O1054 1.259 . S
C1059 O1056 1.235 . S
O1060 Co1050 2.021 . S
O1060 C1057 1.238 . S
O1061 Co1055 2.052 . S
O1061 C1057 1.241 . S
O1062 Co1050 2.137 . S
O1062 C1053 1.247 . S
O1063 Co1050 2.244 . S
O1063 C1053 1.272 . S
O1063 Co1055 2.135 . S
Co1064 O1065 2.216 . S
Co1064 O1066 2.091 . S
Co1064 O1068 2.004 . S
Co1064 O1074 2.021 . S
Co1064 O1076 2.137 . S
Co1064 O1077 2.244 . S
O1065 Co1064 2.216 . S
O1065 C1072 1.247 . S
O1066 Co1064 2.091 . S
O1066 C1072 1.261 . S
C1067 O1076 1.247 . S
C1067 O1077 1.272 . S
O1068 Co1064 2.004 . S
O1068 C1073 1.259 . S
Co1069 O1070 2.061 . S
Co1069 O1075 2.052 . S
Co1069 O1077 2.135 . S
O1070 Co1069 2.061 . S
O1070 C1073 1.235 . S
C1071 O1074 1.238 . S
C1071 O1075 1.241 . S
C1072 O1065 1.247 . S
C1072 O1066 1.261 . S
C1073 O1068 1.259 . S
C1073 O1070 1.235 . S
O1074 Co1064 2.021 . S
O1074 C1071 1.238 . S
O1075 Co1069 2.052 . S
O1075 C1071 1.241 . S
O1076 Co1064 2.137 . S
O1076 C1067 1.247 . S
O1077 Co1064 2.244 . S
O1077 C1067 1.272 . S
O1077 Co1069 2.135 . S
Co1078 O1079 2.216 . S
Co1078 O1080 2.091 . S
Co1078 O1082 2.004 . S
Co1078 O1088 2.021 . S
Co1078 O1090 2.137 . S
Co1078 O1091 2.244 . S
O1079 Co1078 2.216 . S
O1079 C1086 1.247 . S
O1080 Co1078 2.091 . S
O1080 C1086 1.261 . S
C1081 O1090 1.247 . S
C1081 O1091 1.272 . S
O1082 Co1078 2.004 . S
O1082 C1087 1.259 . S
Co1083 O1084 2.061 . S
Co1083 O1089 2.052 . S
Co1083 O1091 2.135 . S
O1084 Co1083 2.061 . S
O1084 C1087 1.235 . S
C1085 O1088 1.238 . S
C1085 O1089 1.241 . S
C1086 O1079 1.247 . S
C1086 O1080 1.261 . S
C1087 O1082 1.259 . S
C1087 O1084 1.235 . S
O1088 Co1078 2.021 . S
O1088 C1085 1.238 . S
O1089 Co1083 2.052 . S
O1089 C1085 1.241 . S
O1090 Co1078 2.137 . S
O1090 C1081 1.247 . S
O1091 Co1078 2.244 . S
O1091 C1081 1.272 . S
O1091 Co1083 2.135 . S
Co1092 O1093 2.216 . S
Co1092 O1094 2.091 . S
Co1092 O1096 2.004 . S
Co1092 O1102 2.021 . S
Co1092 O1104 2.137 . S
Co1092 O1105 2.244 . S
O1093 Co1092 2.216 . S
O1093 C1100 1.247 . S
O1094 Co1092 2.091 . S
O1094 C1100 1.261 . S
C1095 O1104 1.247 . S
C1095 O1105 1.272 . S
O1096 Co1092 2.004 . S
O1096 C1101 1.259 . S
Co1097 O1098 2.061 . S
Co1097 O1103 2.052 . S
Co1097 O1105 2.135 . S
O1098 Co1097 2.061 . S
O1098 C1101 1.235 . S
C1099 O1102 1.238 . S
C1099 O1103 1.241 . S
C1100 O1093 1.247 . S
C1100 O1094 1.261 . S
C1101 O1096 1.259 . S
C1101 O1098 1.235 . S
O1102 Co1092 2.021 . S
O1102 C1099 1.238 . S
O1103 Co1097 2.052 . S
O1103 C1099 1.241 . S
O1104 Co1092 2.137 . S
O1104 C1095 1.247 . S
O1105 Co1092 2.244 . S
O1105 C1095 1.272 . S
O1105 Co1097 2.135 . S
Co1106 O1107 2.216 . S
Co1106 O1108 2.091 . S
Co1106 O1110 2.004 . S
Co1106 O1116 2.021 . S
Co1106 O1118 2.137 . S
Co1106 O1119 2.244 . S
O1107 Co1106 2.216 . S
O1107 C1114 1.247 . S
O1108 Co1106 2.091 . S
O1108 C1114 1.261 . S
C1109 O1118 1.247 . S
C1109 O1119 1.272 . S
O1110 Co1106 2.004 . S
O1110 C1115 1.259 . S
Co1111 O1112 2.061 . S
Co1111 O1117 2.052 . S
Co1111 O1119 2.135 . S
O1112 Co1111 2.061 . S
O1112 C1115 1.235 . S
C1113 O1116 1.238 . S
C1113 O1117 1.241 . S
C1114 O1107 1.247 . S
C1114 O1108 1.261 . S
C1115 O1110 1.259 . S
C1115 O1112 1.235 . S
O1116 Co1106 2.021 . S
O1116 C1113 1.238 . S
O1117 Co1111 2.052 . S
O1117 C1113 1.241 . S
O1118 Co1106 2.137 . S
O1118 C1109 1.247 . S
O1119 Co1106 2.244 . S
O1119 C1109 1.272 . S
O1119 Co1111 2.135 . S
Co1120 O1121 2.216 . S
Co1120 O1122 2.091 . S
Co1120 O1124 2.004 . S
Co1120 O1130 2.021 . S
Co1120 O1132 2.137 . S
Co1120 O1133 2.244 . S
O1121 Co1120 2.216 . S
O1121 C1128 1.247 . S
O1122 Co1120 2.091 . S
O1122 C1128 1.261 . S
C1123 O1132 1.247 . S
C1123 O1133 1.272 . S
O1124 Co1120 2.004 . S
O1124 C1129 1.259 . S
Co1125 O1126 2.061 . S
Co1125 O1131 2.052 . S
Co1125 O1133 2.135 . S
O1126 Co1125 2.061 . S
O1126 C1129 1.235 . S
C1127 O1130 1.238 . S
C1127 O1131 1.241 . S
C1128 O1121 1.247 . S
C1128 O1122 1.261 . S
C1129 O1124 1.259 . S
C1129 O1126 1.235 . S
O1130 Co1120 2.021 . S
O1130 C1127 1.238 . S
O1131 Co1125 2.052 . S
O1131 C1127 1.241 . S
O1132 Co1120 2.137 . S
O1132 C1123 1.247 . S
O1133 Co1120 2.244 . S
O1133 C1123 1.272 . S
O1133 Co1125 2.135 . S
Co1134 O1135 2.216 . S
Co1134 O1136 2.091 . S
Co1134 O1138 2.004 . S
Co1134 O1144 2.021 . S
Co1134 O1146 2.137 . S
Co1134 O1147 2.244 . S
O1135 Co1134 2.216 . S
O1135 C1142 1.247 . S
O1136 Co1134 2.091 . S
O1136 C1142 1.261 . S
C1137 O1146 1.247 . S
C1137 O1147 1.272 . S
O1138 Co1134 2.004 . S
O1138 C1143 1.259 . S
Co1139 O1140 2.061 . S
Co1139 O1145 2.052 . S
Co1139 O1147 2.135 . S
O1140 Co1139 2.061 . S
O1140 C1143 1.235 . S
C1141 O1144 1.238 . S
C1141 O1145 1.241 . S
C1142 O1135 1.247 . S
C1142 O1136 1.261 . S
C1143 O1138 1.259 . S
C1143 O1140 1.235 . S
O1144 Co1134 2.021 . S
O1144 C1141 1.238 . S
O1145 Co1139 2.052 . S
O1145 C1141 1.241 . S
O1146 Co1134 2.137 . S
O1146 C1137 1.247 . S
O1147 Co1134 2.244 . S
O1147 C1137 1.272 . S
O1147 Co1139 2.135 . S
Co1148 O1149 2.216 . S
Co1148 O1150 2.091 . S
Co1148 O1152 2.004 . S
Co1148 O1158 2.021 . S
Co1148 O1160 2.137 . S
Co1148 O1161 2.244 . S
O1149 Co1148 2.216 . S
O1149 C1156 1.247 . S
O1150 Co1148 2.091 . S
O1150 C1156 1.261 . S
C1151 O1160 1.247 . S
C1151 O1161 1.272 . S
O1152 Co1148 2.004 . S
O1152 C1157 1.259 . S
Co1153 O1154 2.061 . S
Co1153 O1159 2.052 . S
Co1153 O1161 2.135 . S
O1154 Co1153 2.061 . S
O1154 C1157 1.235 . S
C1155 O1158 1.238 . S
C1155 O1159 1.241 . S
C1156 O1149 1.247 . S
C1156 O1150 1.261 . S
C1157 O1152 1.259 . S
C1157 O1154 1.235 . S
O1158 Co1148 2.021 . S
O1158 C1155 1.238 . S
O1159 Co1153 2.052 . S
O1159 C1155 1.241 . S
O1160 Co1148 2.137 . S
O1160 C1151 1.247 . S
O1161 Co1148 2.244 . S
O1161 C1151 1.272 . S
O1161 Co1153 2.135 . S
Co1162 O1163 2.216 . S
Co1162 O1164 2.091 . S
Co1162 O1166 2.004 . S
Co1162 O1172 2.021 . S
Co1162 O1174 2.137 . S
Co1162 O1175 2.244 . S
O1163 Co1162 2.216 . S
O1163 C1170 1.247 . S
O1164 Co1162 2.091 . S
O1164 C1170 1.261 . S
C1165 O1174 1.247 . S
C1165 O1175 1.272 . S
O1166 Co1162 2.004 . S
O1166 C1171 1.259 . S
Co1167 O1168 2.061 . S
Co1167 O1173 2.052 . S
Co1167 O1175 2.135 . S
O1168 Co1167 2.061 . S
O1168 C1171 1.235 . S
C1169 O1172 1.238 . S
C1169 O1173 1.241 . S
C1170 O1163 1.247 . S
C1170 O1164 1.261 . S
C1171 O1166 1.259 . S
C1171 O1168 1.235 . S
O1172 Co1162 2.021 . S
O1172 C1169 1.238 . S
O1173 Co1167 2.052 . S
O1173 C1169 1.241 . S
O1174 Co1162 2.137 . S
O1174 C1165 1.247 . S
O1175 Co1162 2.244 . S
O1175 C1165 1.272 . S
O1175 Co1167 2.135 . S
Co1176 O1177 2.216 . S
Co1176 O1178 2.091 . S
Co1176 O1180 2.004 . S
Co1176 O1186 2.021 . S
Co1176 O1188 2.137 . S
Co1176 O1189 2.244 . S
O1177 Co1176 2.216 . S
O1177 C1184 1.247 . S
O1178 Co1176 2.091 . S
O1178 C1184 1.261 . S
C1179 O1188 1.247 . S
C1179 O1189 1.272 . S
O1180 Co1176 2.004 . S
O1180 C1185 1.259 . S
Co1181 O1182 2.061 . S
Co1181 O1187 2.052 . S
Co1181 O1189 2.135 . S
O1182 Co1181 2.061 . S
O1182 C1185 1.235 . S
C1183 O1186 1.238 . S
C1183 O1187 1.241 . S
C1184 O1177 1.247 . S
C1184 O1178 1.261 . S
C1185 O1180 1.259 . S
C1185 O1182 1.235 . S
O1186 Co1176 2.021 . S
O1186 C1183 1.238 . S
O1187 Co1181 2.052 . S
O1187 C1183 1.241 . S
O1188 Co1176 2.137 . S
O1188 C1179 1.247 . S
O1189 Co1176 2.244 . S
O1189 C1179 1.272 . S
O1189 Co1181 2.135 . S
Co1190 O1191 2.216 . S
Co1190 O1192 2.091 . S
Co1190 O1194 2.004 . S
Co1190 O1200 2.021 . S
Co1190 O1202 2.137 . S
Co1190 O1203 2.244 . S
O1191 Co1190 2.216 . S
O1191 C1198 1.247 . S
O1192 Co1190 2.091 . S
O1192 C1198 1.261 . S
C1193 O1202 1.247 . S
C1193 O1203 1.272 . S
O1194 Co1190 2.004 . S
O1194 C1199 1.259 . S
Co1195 O1196 2.061 . S
Co1195 O1201 2.052 . S
Co1195 O1203 2.135 . S
O1196 Co1195 2.061 . S
O1196 C1199 1.235 . S
C1197 O1200 1.238 . S
C1197 O1201 1.241 . S
C1198 O1191 1.247 . S
C1198 O1192 1.261 . S
C1199 O1194 1.259 . S
C1199 O1196 1.235 . S
O1200 Co1190 2.021 . S
O1200 C1197 1.238 . S
O1201 Co1195 2.052 . S
O1201 C1197 1.241 . S
O1202 Co1190 2.137 . S
O1202 C1193 1.247 . S
O1203 Co1190 2.244 . S
O1203 C1193 1.272 . S
O1203 Co1195 2.135 . S
Co1204 O1205 2.216 . S
Co1204 O1206 2.091 . S
Co1204 O1208 2.004 . S
Co1204 O1214 2.021 . S
Co1204 O1216 2.137 . S
Co1204 O1217 2.244 . S
O1205 Co1204 2.216 . S
O1205 C1212 1.247 . S
O1206 Co1204 2.091 . S
O1206 C1212 1.261 . S
C1207 O1216 1.247 . S
C1207 O1217 1.272 . S
O1208 Co1204 2.004 . S
O1208 C1213 1.259 . S
Co1209 O1210 2.061 . S
Co1209 O1215 2.052 . S
Co1209 O1217 2.135 . S
O1210 Co1209 2.061 . S
O1210 C1213 1.235 . S
C1211 O1214 1.238 . S
C1211 O1215 1.241 . S
C1212 O1205 1.247 . S
C1212 O1206 1.261 . S
C1213 O1208 1.259 . S
C1213 O1210 1.235 . S
O1214 Co1204 2.021 . S
O1214 C1211 1.238 . S
O1215 Co1209 2.052 . S
O1215 C1211 1.241 . S
O1216 Co1204 2.137 . S
O1216 C1207 1.247 . S
O1217 Co1204 2.244 . S
O1217 C1207 1.272 . S
O1217 Co1209 2.135 . S
Co1218 O1219 2.216 . S
Co1218 O1220 2.091 . S
Co1218 O1222 2.004 . S
Co1218 O1228 2.021 . S
Co1218 O1230 2.137 . S
Co1218 O1231 2.244 . S
O1219 Co1218 2.216 . S
O1219 C1226 1.247 . S
O1220 Co1218 2.091 . S
O1220 C1226 1.261 . S
C1221 O1230 1.247 . S
C1221 O1231 1.272 . S
O1222 Co1218 2.004 . S
O1222 C1227 1.259 . S
Co1223 O1224 2.061 . S
Co1223 O1229 2.052 . S
Co1223 O1231 2.135 . S
O1224 Co1223 2.061 . S
O1224 C1227 1.235 . S
C1225 O1228 1.238 . S
C1225 O1229 1.241 . S
C1226 O1219 1.247 . S
C1226 O1220 1.261 . S
C1227 O1222 1.259 . S
C1227 O1224 1.235 . S
O1228 Co1218 2.021 . S
O1228 C1225 1.238 . S
O1229 Co1223 2.052 . S
O1229 C1225 1.241 . S
O1230 Co1218 2.137 . S
O1230 C1221 1.247 . S
O1231 Co1218 2.244 . S
O1231 C1221 1.272 . S
O1231 Co1223 2.135 . S
Co1232 O1233 2.216 . S
Co1232 O1234 2.091 . S
Co1232 O1236 2.004 . S
Co1232 O1242 2.021 . S
Co1232 O1244 2.137 . S
Co1232 O1245 2.244 . S
O1233 Co1232 2.216 . S
O1233 C1240 1.247 . S
O1234 Co1232 2.091 . S
O1234 C1240 1.261 . S
C1235 O1244 1.247 . S
C1235 O1245 1.272 . S
O1236 Co1232 2.004 . S
O1236 C1241 1.259 . S
Co1237 O1238 2.061 . S
Co1237 O1243 2.052 . S
Co1237 O1245 2.135 . S
O1238 Co1237 2.061 . S
O1238 C1241 1.235 . S
C1239 O1242 1.238 . S
C1239 O1243 1.241 . S
C1240 O1233 1.247 . S
C1240 O1234 1.261 . S
C1241 O1236 1.259 . S
C1241 O1238 1.235 . S
O1242 Co1232 2.021 . S
O1242 C1239 1.238 . S
O1243 Co1237 2.052 . S
O1243 C1239 1.241 . S
O1244 Co1232 2.137 . S
O1244 C1235 1.247 . S
O1245 Co1232 2.244 . S
O1245 C1235 1.272 . S
O1245 Co1237 2.135 . S
Co1246 O1247 2.216 . S
Co1246 O1248 2.091 . S
Co1246 O1250 2.004 . S
Co1246 O1256 2.021 . S
Co1246 O1258 2.137 . S
Co1246 O1259 2.244 . S
O1247 Co1246 2.216 . S
O1247 C1254 1.247 . S
O1248 Co1246 2.091 . S
O1248 C1254 1.261 . S
C1249 O1258 1.247 . S
C1249 O1259 1.272 . S
O1250 Co1246 2.004 . S
O1250 C1255 1.259 . S
Co1251 O1252 2.061 . S
Co1251 O1257 2.052 . S
Co1251 O1259 2.135 . S
O1252 Co1251 2.061 . S
O1252 C1255 1.235 . S
C1253 O1256 1.238 . S
C1253 O1257 1.241 . S
C1254 O1247 1.247 . S
C1254 O1248 1.261 . S
C1255 O1250 1.259 . S
C1255 O1252 1.235 . S
O1256 Co1246 2.021 . S
O1256 C1253 1.238 . S
O1257 Co1251 2.052 . S
O1257 C1253 1.241 . S
O1258 Co1246 2.137 . S
O1258 C1249 1.247 . S
O1259 Co1246 2.244 . S
O1259 C1249 1.272 . S
O1259 Co1251 2.135 . S
Co1260 O1261 2.216 . S
Co1260 O1262 2.091 . S
Co1260 O1264 2.004 . S
Co1260 O1270 2.021 . S
Co1260 O1272 2.137 . S
Co1260 O1273 2.244 . S
O1261 Co1260 2.216 . S
O1261 C1268 1.247 . S
O1262 Co1260 2.091 . S
O1262 C1268 1.261 . S
C1263 O1272 1.247 . S
C1263 O1273 1.272 . S
O1264 Co1260 2.004 . S
O1264 C1269 1.259 . S
Co1265 O1266 2.061 . S
Co1265 O1271 2.052 . S
Co1265 O1273 2.135 . S
O1266 Co1265 2.061 . S
O1266 C1269 1.235 . S
C1267 O1270 1.238 . S
C1267 O1271 1.241 . S
C1268 O1261 1.247 . S
C1268 O1262 1.261 . S
C1269 O1264 1.259 . S
C1269 O1266 1.235 . S
O1270 Co1260 2.021 . S
O1270 C1267 1.238 . S
O1271 Co1265 2.052 . S
O1271 C1267 1.241 . S
O1272 Co1260 2.137 . S
O1272 C1263 1.247 . S
O1273 Co1260 2.244 . S
O1273 C1263 1.272 . S
O1273 Co1265 2.135 . S
Co1274 O1275 2.216 . S
Co1274 O1276 2.091 . S
Co1274 O1278 2.004 . S
Co1274 O1284 2.021 . S
Co1274 O1286 2.137 . S
Co1274 O1287 2.244 . S
O1275 Co1274 2.216 . S
O1275 C1282 1.247 . S
O1276 Co1274 2.091 . S
O1276 C1282 1.261 . S
C1277 O1286 1.247 . S
C1277 O1287 1.272 . S
O1278 Co1274 2.004 . S
O1278 C1283 1.259 . S
Co1279 O1280 2.061 . S
Co1279 O1285 2.052 . S
Co1279 O1287 2.135 . S
O1280 Co1279 2.061 . S
O1280 C1283 1.235 . S
C1281 O1284 1.238 . S
C1281 O1285 1.241 . S
C1282 O1275 1.247 . S
C1282 O1276 1.261 . S
C1283 O1278 1.259 . S
C1283 O1280 1.235 . S
O1284 Co1274 2.021 . S
O1284 C1281 1.238 . S
O1285 Co1279 2.052 . S
O1285 C1281 1.241 . S
O1286 Co1274 2.137 . S
O1286 C1277 1.247 . S
O1287 Co1274 2.244 . S
O1287 C1277 1.272 . S
O1287 Co1279 2.135 . S
Co1288 O1289 2.216 . S
Co1288 O1290 2.091 . S
Co1288 O1292 2.004 . S
Co1288 O1298 2.021 . S
Co1288 O1300 2.137 . S
Co1288 O1301 2.244 . S
O1289 Co1288 2.216 . S
O1289 C1296 1.247 . S
O1290 Co1288 2.091 . S
O1290 C1296 1.261 . S
C1291 O1300 1.247 . S
C1291 O1301 1.272 . S
O1292 Co1288 2.004 . S
O1292 C1297 1.259 . S
Co1293 O1294 2.061 . S
Co1293 O1299 2.052 . S
Co1293 O1301 2.135 . S
O1294 Co1293 2.061 . S
O1294 C1297 1.235 . S
C1295 O1298 1.238 . S
C1295 O1299 1.241 . S
C1296 O1289 1.247 . S
C1296 O1290 1.261 . S
C1297 O1292 1.259 . S
C1297 O1294 1.235 . S
O1298 Co1288 2.021 . S
O1298 C1295 1.238 . S
O1299 Co1293 2.052 . S
O1299 C1295 1.241 . S
O1300 Co1288 2.137 . S
O1300 C1291 1.247 . S
O1301 Co1288 2.244 . S
O1301 C1291 1.272 . S
O1301 Co1293 2.135 . S
Co1302 O1303 2.216 . S
Co1302 O1304 2.091 . S
Co1302 O1306 2.004 . S
Co1302 O1312 2.021 . S
Co1302 O1314 2.137 . S
Co1302 O1315 2.244 . S
O1303 Co1302 2.216 . S
O1303 C1310 1.247 . S
O1304 Co1302 2.091 . S
O1304 C1310 1.261 . S
C1305 O1314 1.247 . S
C1305 O1315 1.272 . S
O1306 Co1302 2.004 . S
O1306 C1311 1.259 . S
Co1307 O1308 2.061 . S
Co1307 O1313 2.052 . S
Co1307 O1315 2.135 . S
O1308 Co1307 2.061 . S
O1308 C1311 1.235 . S
C1309 O1312 1.238 . S
C1309 O1313 1.241 . S
C1310 O1303 1.247 . S
C1310 O1304 1.261 . S
C1311 O1306 1.259 . S
C1311 O1308 1.235 . S
O1312 Co1302 2.021 . S
O1312 C1309 1.238 . S
O1313 Co1307 2.052 . S
O1313 C1309 1.241 . S
O1314 Co1302 2.137 . S
O1314 C1305 1.247 . S
O1315 Co1302 2.244 . S
O1315 C1305 1.272 . S
O1315 Co1307 2.135 . S
Co1316 O1317 2.216 . S
Co1316 O1318 2.091 . S
Co1316 O1320 2.004 . S
Co1316 O1326 2.021 . S
Co1316 O1328 2.137 . S
Co1316 O1329 2.244 . S
O1317 Co1316 2.216 . S
O1317 C1324 1.247 . S
O1318 Co1316 2.091 . S
O1318 C1324 1.261 . S
C1319 O1328 1.247 . S
C1319 O1329 1.272 . S
O1320 Co1316 2.004 . S
O1320 C1325 1.259 . S
Co1321 O1322 2.061 . S
Co1321 O1327 2.052 . S
Co1321 O1329 2.135 . S
O1322 Co1321 2.061 . S
O1322 C1325 1.235 . S
C1323 O1326 1.238 . S
C1323 O1327 1.241 . S
C1324 O1317 1.247 . S
C1324 O1318 1.261 . S
C1325 O1320 1.259 . S
C1325 O1322 1.235 . S
O1326 Co1316 2.021 . S
O1326 C1323 1.238 . S
O1327 Co1321 2.052 . S
O1327 C1323 1.241 . S
O1328 Co1316 2.137 . S
O1328 C1319 1.247 . S
O1329 Co1316 2.244 . S
O1329 C1319 1.272 . S
O1329 Co1321 2.135 . S
Co1330 O1331 2.216 . S
Co1330 O1332 2.091 . S
Co1330 O1334 2.004 . S
Co1330 O1340 2.021 . S
Co1330 O1342 2.137 . S
Co1330 O1343 2.244 . S
O1331 Co1330 2.216 . S
O1331 C1338 1.247 . S
O1332 Co1330 2.091 . S
O1332 C1338 1.261 . S
C1333 O1342 1.247 . S
C1333 O1343 1.272 . S
O1334 Co1330 2.004 . S
O1334 C1339 1.259 . S
Co1335 O1336 2.061 . S
Co1335 O1341 2.052 . S
Co1335 O1343 2.135 . S
O1336 Co1335 2.061 . S
O1336 C1339 1.235 . S
C1337 O1340 1.238 . S
C1337 O1341 1.241 . S
C1338 O1331 1.247 . S
C1338 O1332 1.261 . S
C1339 O1334 1.259 . S
C1339 O1336 1.235 . S
O1340 Co1330 2.021 . S
O1340 C1337 1.238 . S
O1341 Co1335 2.052 . S
O1341 C1337 1.241 . S
O1342 Co1330 2.137 . S
O1342 C1333 1.247 . S
O1343 Co1330 2.244 . S
O1343 C1333 1.272 . S
O1343 Co1335 2.135 . S
C1344 C1345 1.369 . S
C1344 C1346 1.419 . S
C1344 H1348 0.930 . S
C1345 C1344 1.369 . S
C1345 C1354 1.429 . S
C1346 C1344 1.419 . S
C1346 C1347 1.363 . S
C1346 H1349 0.929 . S
C1347 C1346 1.363 . S
C1347 C1353 1.428 . S
H1348 C1344 0.930 . S
H1349 C1346 0.929 . S
S1350 N1351 1.613 . S
S1350 N1352 1.610 . S
N1351 S1350 1.613 . S
N1351 C1354 1.350 . S
N1352 S1350 1.610 . S
N1352 C1353 1.351 . S
C1353 C1347 1.428 . S
C1353 N1352 1.351 . S
C1353 C1354 1.434 . S
C1354 C1345 1.429 . S
C1354 N1351 1.350 . S
C1354 C1353 1.434 . S
C1355 C1356 1.369 . S
C1355 C1357 1.419 . S
C1355 H1359 0.930 . S
C1356 C1355 1.369 . S
C1356 C1365 1.429 . S
C1357 C1355 1.419 . S
C1357 C1358 1.363 . S
C1357 H1360 0.929 . S
C1358 C1357 1.363 . S
C1358 C1364 1.428 . S
H1359 C1355 0.930 . S
H1360 C1357 0.929 . S
S1361 N1362 1.613 . S
S1361 N1363 1.610 . S
N1362 S1361 1.613 . S
N1362 C1365 1.350 . S
N1363 S1361 1.610 . S
N1363 C1364 1.351 . S
C1364 C1358 1.428 . S
C1364 N1363 1.351 . S
C1364 C1365 1.434 . S
C1365 C1356 1.429 . S
C1365 N1362 1.350 . S
C1365 C1364 1.434 . S
C1366 C1367 1.369 . S
C1366 C1368 1.419 . S
C1366 H1370 0.930 . S
C1367 C1366 1.369 . S
C1367 C1376 1.429 . S
C1368 C1366 1.419 . S
C1368 C1369 1.363 . S
C1368 H1371 0.929 . S
C1369 C1368 1.363 . S
C1369 C1375 1.428 . S
H1370 C1366 0.930 . S
H1371 C1368 0.929 . S
S1372 N1373 1.613 . S
S1372 N1374 1.610 . S
N1373 S1372 1.613 . S
N1373 C1376 1.350 . S
N1374 S1372 1.610 . S
N1374 C1375 1.351 . S
C1375 C1369 1.428 . S
C1375 N1374 1.351 . S
C1375 C1376 1.434 . S
C1376 C1367 1.429 . S
C1376 N1373 1.350 . S
C1376 C1375 1.434 . S
C1377 C1378 1.369 . S
C1377 C1379 1.419 . S
C1377 H1381 0.930 . S
C1378 C1377 1.369 . S
C1378 C1387 1.429 . S
C1379 C1377 1.419 . S
C1379 C1380 1.363 . S
C1379 H1382 0.929 . S
C1380 C1379 1.363 . S
C1380 C1386 1.428 . S
H1381 C1377 0.930 . S
H1382 C1379 0.929 . S
S1383 N1384 1.613 . S
S1383 N1385 1.610 . S
N1384 S1383 1.613 . S
N1384 C1387 1.350 . S
N1385 S1383 1.610 . S
N1385 C1386 1.351 . S
C1386 C1380 1.428 . S
C1386 N1385 1.351 . S
C1386 C1387 1.434 . S
C1387 C1378 1.429 . S
C1387 N1384 1.350 . S
C1387 C1386 1.434 . S
C1388 C1389 1.369 . S
C1388 C1390 1.419 . S
C1388 H1392 0.930 . S
C1389 C1388 1.369 . S
C1389 C1398 1.429 . S
C1390 C1388 1.419 . S
C1390 C1391 1.363 . S
C1390 H1393 0.929 . S
C1391 C1390 1.363 . S
C1391 C1397 1.428 . S
H1392 C1388 0.930 . S
H1393 C1390 0.929 . S
S1394 N1395 1.613 . S
S1394 N1396 1.610 . S
N1395 S1394 1.613 . S
N1395 C1398 1.350 . S
N1396 S1394 1.610 . S
N1396 C1397 1.351 . S
C1397 C1391 1.428 . S
C1397 N1396 1.351 . S
C1397 C1398 1.434 . S
C1398 C1389 1.429 . S
C1398 N1395 1.350 . S
C1398 C1397 1.434 . S
C1399 C1400 1.369 . S
C1399 C1401 1.419 . S
C1399 H1403 0.930 . S
C1400 C1399 1.369 . S
C1400 C1409 1.429 . S
C1401 C1399 1.419 . S
C1401 C1402 1.363 . S
C1401 H1404 0.929 . S
C1402 C1401 1.363 . S
C1402 C1408 1.428 . S
H1403 C1399 0.930 . S
H1404 C1401 0.929 . S
S1405 N1406 1.613 . S
S1405 N1407 1.610 . S
N1406 S1405 1.613 . S
N1406 C1409 1.350 . S
N1407 S1405 1.610 . S
N1407 C1408 1.351 . S
C1408 C1402 1.428 . S
C1408 N1407 1.351 . S
C1408 C1409 1.434 . S
C1409 C1400 1.429 . S
C1409 N1406 1.350 . S
C1409 C1408 1.434 . S
C1410 C1411 1.369 . S
C1410 C1412 1.419 . S
C1410 H1414 0.930 . S
C1411 C1410 1.369 . S
C1411 C1420 1.429 . S
C1412 C1410 1.419 . S
C1412 C1413 1.363 . S
C1412 H1415 0.929 . S
C1413 C1412 1.363 . S
C1413 C1419 1.428 . S
H1414 C1410 0.930 . S
H1415 C1412 0.929 . S
S1416 N1417 1.613 . S
S1416 N1418 1.610 . S
N1417 S1416 1.613 . S
N1417 C1420 1.350 . S
N1418 S1416 1.610 . S
N1418 C1419 1.351 . S
C1419 C1413 1.428 . S
C1419 N1418 1.351 . S
C1419 C1420 1.434 . S
C1420 C1411 1.429 . S
C1420 N1417 1.350 . S
C1420 C1419 1.434 . S
C1421 C1422 1.369 . S
C1421 C1423 1.419 . S
C1421 H1425 0.930 . S
C1422 C1421 1.369 . S
C1422 C1431 1.429 . S
C1423 C1421 1.419 . S
C1423 C1424 1.363 . S
C1423 H1426 0.929 . S
C1424 C1423 1.363 . S
C1424 C1430 1.428 . S
H1425 C1421 0.930 . S
H1426 C1423 0.929 . S
S1427 N1428 1.613 . S
S1427 N1429 1.610 . S
N1428 S1427 1.613 . S
N1428 C1431 1.350 . S
N1429 S1427 1.610 . S
N1429 C1430 1.351 . S
C1430 C1424 1.428 . S
C1430 N1429 1.351 . S
C1430 C1431 1.434 . S
C1431 C1422 1.429 . S
C1431 N1428 1.350 . S
C1431 C1430 1.434 . S
C1432 C1433 1.369 . S
C1432 C1434 1.419 . S
C1432 H1436 0.930 . S
C1433 C1432 1.369 . S
C1433 C1442 1.429 . S
C1434 C1432 1.419 . S
C1434 C1435 1.363 . S
C1434 H1437 0.929 . S
C1435 C1434 1.363 . S
C1435 C1441 1.428 . S
H1436 C1432 0.930 . S
H1437 C1434 0.929 . S
S1438 N1439 1.613 . S
S1438 N1440 1.610 . S
N1439 S1438 1.613 . S
N1439 C1442 1.350 . S
N1440 S1438 1.610 . S
N1440 C1441 1.351 . S
C1441 C1435 1.428 . S
C1441 N1440 1.351 . S
C1441 C1442 1.434 . S
C1442 C1433 1.429 . S
C1442 N1439 1.350 . S
C1442 C1441 1.434 . S
C1443 C1444 1.369 . S
C1443 C1445 1.419 . S
C1443 H1447 0.930 . S
C1444 C1443 1.369 . S
C1444 C1453 1.429 . S
C1445 C1443 1.419 . S
C1445 C1446 1.363 . S
C1445 H1448 0.929 . S
C1446 C1445 1.363 . S
C1446 C1452 1.428 . S
H1447 C1443 0.930 . S
H1448 C1445 0.929 . S
S1449 N1450 1.613 . S
S1449 N1451 1.610 . S
N1450 S1449 1.613 . S
N1450 C1453 1.350 . S
N1451 S1449 1.610 . S
N1451 C1452 1.351 . S
C1452 C1446 1.428 . S
C1452 N1451 1.351 . S
C1452 C1453 1.434 . S
C1453 C1444 1.429 . S
C1453 N1450 1.350 . S
C1453 C1452 1.434 . S
C1454 C1455 1.369 . S
C1454 C1456 1.419 . S
C1454 H1458 0.930 . S
C1455 C1454 1.369 . S
C1455 C1464 1.429 . S
C1456 C1454 1.419 . S
C1456 C1457 1.363 . S
C1456 H1459 0.929 . S
C1457 C1456 1.363 . S
C1457 C1463 1.428 . S
H1458 C1454 0.930 . S
H1459 C1456 0.929 . S
S1460 N1461 1.613 . S
S1460 N1462 1.610 . S
N1461 S1460 1.613 . S
N1461 C1464 1.350 . S
N1462 S1460 1.610 . S
N1462 C1463 1.351 . S
C1463 C1457 1.428 . S
C1463 N1462 1.351 . S
C1463 C1464 1.434 . S
C1464 C1455 1.429 . S
C1464 N1461 1.350 . S
C1464 C1463 1.434 . S
C1465 C1466 1.369 . S
C1465 C1467 1.419 . S
C1465 H1469 0.930 . S
C1466 C1465 1.369 . S
C1466 C1475 1.429 . S
C1467 C1465 1.419 . S
C1467 C1468 1.363 . S
C1467 H1470 0.929 . S
C1468 C1467 1.363 . S
C1468 C1474 1.428 . S
H1469 C1465 0.930 . S
H1470 C1467 0.929 . S
S1471 N1472 1.613 . S
S1471 N1473 1.610 . S
N1472 S1471 1.613 . S
N1472 C1475 1.350 . S
N1473 S1471 1.610 . S
N1473 C1474 1.351 . S
C1474 C1468 1.428 . S
C1474 N1473 1.351 . S
C1474 C1475 1.434 . S
C1475 C1466 1.429 . S
C1475 N1472 1.350 . S
C1475 C1474 1.434 . S
C1476 C1477 1.369 . S
C1476 C1478 1.419 . S
C1476 H1480 0.930 . S
C1477 C1476 1.369 . S
C1477 C1486 1.429 . S
C1478 C1476 1.419 . S
C1478 C1479 1.363 . S
C1478 H1481 0.929 . S
C1479 C1478 1.363 . S
C1479 C1485 1.428 . S
H1480 C1476 0.930 . S
H1481 C1478 0.929 . S
S1482 N1483 1.613 . S
S1482 N1484 1.610 . S
N1483 S1482 1.613 . S
N1483 C1486 1.350 . S
N1484 S1482 1.610 . S
N1484 C1485 1.351 . S
C1485 C1479 1.428 . S
C1485 N1484 1.351 . S
C1485 C1486 1.434 . S
C1486 C1477 1.429 . S
C1486 N1483 1.350 . S
C1486 C1485 1.434 . S
C1487 C1488 1.369 . S
C1487 C1489 1.419 . S
C1487 H1491 0.930 . S
C1488 C1487 1.369 . S
C1488 C1497 1.429 . S
C1489 C1487 1.419 . S
C1489 C1490 1.363 . S
C1489 H1492 0.929 . S
C1490 C1489 1.363 . S
C1490 C1496 1.428 . S
H1491 C1487 0.930 . S
H1492 C1489 0.929 . S
S1493 N1494 1.613 . S
S1493 N1495 1.610 . S
N1494 S1493 1.613 . S
N1494 C1497 1.350 . S
N1495 S1493 1.610 . S
N1495 C1496 1.351 . S
C1496 C1490 1.428 . S
C1496 N1495 1.351 . S
C1496 C1497 1.434 . S
C1497 C1488 1.429 . S
C1497 N1494 1.350 . S
C1497 C1496 1.434 . S
C1498 C1499 1.369 . S
C1498 C1500 1.419 . S
C1498 H1502 0.930 . S
C1499 C1498 1.369 . S
C1499 C1508 1.429 . S
C1500 C1498 1.419 . S
C1500 C1501 1.363 . S
C1500 H1503 0.929 . S
C1501 C1500 1.363 . S
C1501 C1507 1.428 . S
H1502 C1498 0.930 . S
H1503 C1500 0.929 . S
S1504 N1505 1.613 . S
S1504 N1506 1.610 . S
N1505 S1504 1.613 . S
N1505 C1508 1.350 . S
N1506 S1504 1.610 . S
N1506 C1507 1.351 . S
C1507 C1501 1.428 . S
C1507 N1506 1.351 . S
C1507 C1508 1.434 . S
C1508 C1499 1.429 . S
C1508 N1505 1.350 . S
C1508 C1507 1.434 . S
C1509 C1510 1.369 . S
C1509 C1511 1.419 . S
C1509 H1513 0.930 . S
C1510 C1509 1.369 . S
C1510 C1519 1.429 . S
C1511 C1509 1.419 . S
C1511 C1512 1.363 . S
C1511 H1514 0.929 . S
C1512 C1511 1.363 . S
C1512 C1518 1.428 . S
H1513 C1509 0.930 . S
H1514 C1511 0.929 . S
S1515 N1516 1.613 . S
S1515 N1517 1.610 . S
N1516 S1515 1.613 . S
N1516 C1519 1.350 . S
N1517 S1515 1.610 . S
N1517 C1518 1.351 . S
C1518 C1512 1.428 . S
C1518 N1517 1.351 . S
C1518 C1519 1.434 . S
C1519 C1510 1.429 . S
C1519 N1516 1.350 . S
C1519 C1518 1.434 . S
C1520 C1521 1.369 . S
C1520 C1522 1.419 . S
C1520 H1524 0.930 . S
C1521 C1520 1.369 . S
C1521 C1530 1.429 . S
C1522 C1520 1.419 . S
C1522 C1523 1.363 . S
C1522 H1525 0.929 . S
C1523 C1522 1.363 . S
C1523 C1529 1.428 . S
H1524 C1520 0.930 . S
H1525 C1522 0.929 . S
S1526 N1527 1.613 . S
S1526 N1528 1.610 . S
N1527 S1526 1.613 . S
N1527 C1530 1.350 . S
N1528 S1526 1.610 . S
N1528 C1529 1.351 . S
C1529 C1523 1.428 . S
C1529 N1528 1.351 . S
C1529 C1530 1.434 . S
C1530 C1521 1.429 . S
C1530 N1527 1.350 . S
C1530 C1529 1.434 . S
C1531 C1532 1.369 . S
C1531 C1533 1.419 . S
C1531 H1535 0.930 . S
C1532 C1531 1.369 . S
C1532 C1541 1.429 . S
C1533 C1531 1.419 . S
C1533 C1534 1.363 . S
C1533 H1536 0.929 . S
C1534 C1533 1.363 . S
C1534 C1540 1.428 . S
H1535 C1531 0.930 . S
H1536 C1533 0.929 . S
S1537 N1538 1.613 . S
S1537 N1539 1.610 . S
N1538 S1537 1.613 . S
N1538 C1541 1.350 . S
N1539 S1537 1.610 . S
N1539 C1540 1.351 . S
C1540 C1534 1.428 . S
C1540 N1539 1.351 . S
C1540 C1541 1.434 . S
C1541 C1532 1.429 . S
C1541 N1538 1.350 . S
C1541 C1540 1.434 . S
C1542 C1543 1.369 . S
C1542 C1544 1.419 . S
C1542 H1546 0.930 . S
C1543 C1542 1.369 . S
C1543 C1552 1.429 . S
C1544 C1542 1.419 . S
C1544 C1545 1.363 . S
C1544 H1547 0.929 . S
C1545 C1544 1.363 . S
C1545 C1551 1.428 . S
H1546 C1542 0.930 . S
H1547 C1544 0.929 . S
S1548 N1549 1.613 . S
S1548 N1550 1.610 . S
N1549 S1548 1.613 . S
N1549 C1552 1.350 . S
N1550 S1548 1.610 . S
N1550 C1551 1.351 . S
C1551 C1545 1.428 . S
C1551 N1550 1.351 . S
C1551 C1552 1.434 . S
C1552 C1543 1.429 . S
C1552 N1549 1.350 . S
C1552 C1551 1.434 . S
C1553 C1554 1.369 . S
C1553 C1555 1.419 . S
C1553 H1557 0.930 . S
C1554 C1553 1.369 . S
C1554 C1563 1.429 . S
C1555 C1553 1.419 . S
C1555 C1556 1.363 . S
C1555 H1558 0.929 . S
C1556 C1555 1.363 . S
C1556 C1562 1.428 . S
H1557 C1553 0.930 . S
H1558 C1555 0.929 . S
S1559 N1560 1.613 . S
S1559 N1561 1.610 . S
N1560 S1559 1.613 . S
N1560 C1563 1.350 . S
N1561 S1559 1.610 . S
N1561 C1562 1.351 . S
C1562 C1556 1.428 . S
C1562 N1561 1.351 . S
C1562 C1563 1.434 . S
C1563 C1554 1.429 . S
C1563 N1560 1.350 . S
C1563 C1562 1.434 . S
C1564 C1565 1.369 . S
C1564 C1566 1.419 . S
C1564 H1568 0.930 . S
C1565 C1564 1.369 . S
C1565 C1574 1.429 . S
C1566 C1564 1.419 . S
C1566 C1567 1.363 . S
C1566 H1569 0.929 . S
C1567 C1566 1.363 . S
C1567 C1573 1.428 . S
H1568 C1564 0.930 . S
H1569 C1566 0.929 . S
S1570 N1571 1.613 . S
S1570 N1572 1.610 . S
N1571 S1570 1.613 . S
N1571 C1574 1.350 . S
N1572 S1570 1.610 . S
N1572 C1573 1.351 . S
C1573 C1567 1.428 . S
C1573 N1572 1.351 . S
C1573 C1574 1.434 . S
C1574 C1565 1.429 . S
C1574 N1571 1.350 . S
C1574 C1573 1.434 . S
C1575 C1576 1.369 . S
C1575 C1577 1.419 . S
C1575 H1579 0.930 . S
C1576 C1575 1.369 . S
C1576 C1585 1.429 . S
C1577 C1575 1.419 . S
C1577 C1578 1.363 . S
C1577 H1580 0.929 . S
C1578 C1577 1.363 . S
C1578 C1584 1.428 . S
H1579 C1575 0.930 . S
H1580 C1577 0.929 . S
S1581 N1582 1.613 . S
S1581 N1583 1.610 . S
N1582 S1581 1.613 . S
N1582 C1585 1.350 . S
N1583 S1581 1.610 . S
N1583 C1584 1.351 . S
C1584 C1578 1.428 . S
C1584 N1583 1.351 . S
C1584 C1585 1.434 . S
C1585 C1576 1.429 . S
C1585 N1582 1.350 . S
C1585 C1584 1.434 . S
C1586 C1587 1.369 . S
C1586 C1588 1.419 . S
C1586 H1590 0.930 . S
C1587 C1586 1.369 . S
C1587 C1596 1.429 . S
C1588 C1586 1.419 . S
C1588 C1589 1.363 . S
C1588 H1591 0.929 . S
C1589 C1588 1.363 . S
C1589 C1595 1.428 . S
H1590 C1586 0.930 . S
H1591 C1588 0.929 . S
S1592 N1593 1.613 . S
S1592 N1594 1.610 . S
N1593 S1592 1.613 . S
N1593 C1596 1.350 . S
N1594 S1592 1.610 . S
N1594 C1595 1.351 . S
C1595 C1589 1.428 . S
C1595 N1594 1.351 . S
C1595 C1596 1.434 . S
C1596 C1587 1.429 . S
C1596 N1593 1.350 . S
C1596 C1595 1.434 . S
C1597 C1598 1.369 . S
C1597 C1599 1.419 . S
C1597 H1601 0.930 . S
C1598 C1597 1.369 . S
C1598 C1607 1.429 . S
C1599 C1597 1.419 . S
C1599 C1600 1.363 . S
C1599 H1602 0.929 . S
C1600 C1599 1.363 . S
C1600 C1606 1.428 . S
H1601 C1597 0.930 . S
H1602 C1599 0.929 . S
S1603 N1604 1.613 . S
S1603 N1605 1.610 . S
N1604 S1603 1.613 . S
N1604 C1607 1.350 . S
N1605 S1603 1.610 . S
N1605 C1606 1.351 . S
C1606 C1600 1.428 . S
C1606 N1605 1.351 . S
C1606 C1607 1.434 . S
C1607 C1598 1.429 . S
C1607 N1604 1.350 . S
C1607 C1606 1.434 . S
C1608 C1609 1.369 . S
C1608 C1610 1.419 . S
C1608 H1612 0.930 . S
C1609 C1608 1.369 . S
C1609 C1618 1.429 . S
C1610 C1608 1.419 . S
C1610 C1611 1.363 . S
C1610 H1613 0.929 . S
C1611 C1610 1.363 . S
C1611 C1617 1.428 . S
H1612 C1608 0.930 . S
H1613 C1610 0.929 . S
S1614 N1615 1.613 . S
S1614 N1616 1.610 . S
N1615 S1614 1.613 . S
N1615 C1618 1.350 . S
N1616 S1614 1.610 . S
N1616 C1617 1.351 . S
C1617 C1611 1.428 . S
C1617 N1616 1.351 . S
C1617 C1618 1.434 . S
C1618 C1609 1.429 . S
C1618 N1615 1.350 . S
C1618 C1617 1.434 . S
C1619 C1620 1.369 . S
C1619 C1621 1.419 . S
C1619 H1623 0.930 . S
C1620 C1619 1.369 . S
C1620 C1629 1.429 . S
C1621 C1619 1.419 . S
C1621 C1622 1.363 . S
C1621 H1624 0.929 . S
C1622 C1621 1.363 . S
C1622 C1628 1.428 . S
H1623 C1619 0.930 . S
H1624 C1621 0.929 . S
S1625 N1626 1.613 . S
S1625 N1627 1.610 . S
N1626 S1625 1.613 . S
N1626 C1629 1.350 . S
N1627 S1625 1.610 . S
N1627 C1628 1.351 . S
C1628 C1622 1.428 . S
C1628 N1627 1.351 . S
C1628 C1629 1.434 . S
C1629 C1620 1.429 . S
C1629 N1626 1.350 . S
C1629 C1628 1.434 . S
C1630 C1631 1.369 . S
C1630 C1632 1.419 . S
C1630 H1634 0.930 . S
C1631 C1630 1.369 . S
C1631 C1640 1.429 . S
C1632 C1630 1.419 . S
C1632 C1633 1.363 . S
C1632 H1635 0.929 . S
C1633 C1632 1.363 . S
C1633 C1639 1.428 . S
H1634 C1630 0.930 . S
H1635 C1632 0.929 . S
S1636 N1637 1.613 . S
S1636 N1638 1.610 . S
N1637 S1636 1.613 . S
N1637 C1640 1.350 . S
N1638 S1636 1.610 . S
N1638 C1639 1.351 . S
C1639 C1633 1.428 . S
C1639 N1638 1.351 . S
C1639 C1640 1.434 . S
C1640 C1631 1.429 . S
C1640 N1637 1.350 . S
C1640 C1639 1.434 . S
C1641 C1642 1.369 . S
C1641 C1643 1.419 . S
C1641 H1645 0.930 . S
C1642 C1641 1.369 . S
C1642 C1651 1.429 . S
C1643 C1641 1.419 . S
C1643 C1644 1.363 . S
C1643 H1646 0.929 . S
C1644 C1643 1.363 . S
C1644 C1650 1.428 . S
H1645 C1641 0.930 . S
H1646 C1643 0.929 . S
S1647 N1648 1.613 . S
S1647 N1649 1.610 . S
N1648 S1647 1.613 . S
N1648 C1651 1.350 . S
N1649 S1647 1.610 . S
N1649 C1650 1.351 . S
C1650 C1644 1.428 . S
C1650 N1649 1.351 . S
C1650 C1651 1.434 . S
C1651 C1642 1.429 . S
C1651 N1648 1.350 . S
C1651 C1650 1.434 . S
C1652 C1653 1.369 . S
C1652 C1654 1.419 . S
C1652 H1656 0.930 . S
C1653 C1652 1.369 . S
C1653 C1662 1.429 . S
C1654 C1652 1.419 . S
C1654 C1655 1.363 . S
C1654 H1657 0.929 . S
C1655 C1654 1.363 . S
C1655 C1661 1.428 . S
H1656 C1652 0.930 . S
H1657 C1654 0.929 . S
S1658 N1659 1.613 . S
S1658 N1660 1.610 . S
N1659 S1658 1.613 . S
N1659 C1662 1.350 . S
N1660 S1658 1.610 . S
N1660 C1661 1.351 . S
C1661 C1655 1.428 . S
C1661 N1660 1.351 . S
C1661 C1662 1.434 . S
C1662 C1653 1.429 . S
C1662 N1659 1.350 . S
C1662 C1661 1.434 . S
C1663 C1664 1.369 . S
C1663 C1665 1.419 . S
C1663 H1667 0.930 . S
C1664 C1663 1.369 . S
C1664 C1673 1.429 . S
C1665 C1663 1.419 . S
C1665 C1666 1.363 . S
C1665 H1668 0.929 . S
C1666 C1665 1.363 . S
C1666 C1672 1.428 . S
H1667 C1663 0.930 . S
H1668 C1665 0.929 . S
S1669 N1670 1.613 . S
S1669 N1671 1.610 . S
N1670 S1669 1.613 . S
N1670 C1673 1.350 . S
N1671 S1669 1.610 . S
N1671 C1672 1.351 . S
C1672 C1666 1.428 . S
C1672 N1671 1.351 . S
C1672 C1673 1.434 . S
C1673 C1664 1.429 . S
C1673 N1670 1.350 . S
C1673 C1672 1.434 . S
C1674 C1675 1.369 . S
C1674 C1676 1.419 . S
C1674 H1678 0.930 . S
C1675 C1674 1.369 . S
C1675 C1684 1.429 . S
C1676 C1674 1.419 . S
C1676 C1677 1.363 . S
C1676 H1679 0.929 . S
C1677 C1676 1.363 . S
C1677 C1683 1.428 . S
H1678 C1674 0.930 . S
H1679 C1676 0.929 . S
S1680 N1681 1.613 . S
S1680 N1682 1.610 . S
N1681 S1680 1.613 . S
N1681 C1684 1.350 . S
N1682 S1680 1.610 . S
N1682 C1683 1.351 . S
C1683 C1677 1.428 . S
C1683 N1682 1.351 . S
C1683 C1684 1.434 . S
C1684 C1675 1.429 . S
C1684 N1681 1.350 . S
C1684 C1683 1.434 . S
C1685 C1686 1.369 . S
C1685 C1687 1.419 . S
C1685 H1689 0.930 . S
C1686 C1685 1.369 . S
C1686 C1695 1.429 . S
C1687 C1685 1.419 . S
C1687 C1688 1.363 . S
C1687 H1690 0.929 . S
C1688 C1687 1.363 . S
C1688 C1694 1.428 . S
H1689 C1685 0.930 . S
H1690 C1687 0.929 . S
S1691 N1692 1.613 . S
S1691 N1693 1.610 . S
N1692 S1691 1.613 . S
N1692 C1695 1.350 . S
N1693 S1691 1.610 . S
N1693 C1694 1.351 . S
C1694 C1688 1.428 . S
C1694 N1693 1.351 . S
C1694 C1695 1.434 . S
C1695 C1686 1.429 . S
C1695 N1692 1.350 . S
C1695 C1694 1.434 . S
C1696 C1697 1.369 . S
C1696 C1698 1.419 . S
C1696 H1700 0.930 . S
C1697 C1696 1.369 . S
C1697 C1706 1.429 . S
C1698 C1696 1.419 . S
C1698 C1699 1.363 . S
C1698 H1701 0.929 . S
C1699 C1698 1.363 . S
C1699 C1705 1.428 . S
H1700 C1696 0.930 . S
H1701 C1698 0.929 . S
S1702 N1703 1.613 . S
S1702 N1704 1.610 . S
N1703 S1702 1.613 . S
N1703 C1706 1.350 . S
N1704 S1702 1.610 . S
N1704 C1705 1.351 . S
C1705 C1699 1.428 . S
C1705 N1704 1.351 . S
C1705 C1706 1.434 . S
C1706 C1697 1.429 . S
C1706 N1703 1.350 . S
C1706 C1705 1.434 . S
C1707 C1708 1.369 . S
C1707 C1709 1.419 . S
C1707 H1711 0.930 . S
C1708 C1707 1.369 . S
C1708 C1717 1.429 . S
C1709 C1707 1.419 . S
C1709 C1710 1.363 . S
C1709 H1712 0.929 . S
C1710 C1709 1.363 . S
C1710 C1716 1.428 . S
H1711 C1707 0.930 . S
H1712 C1709 0.929 . S
S1713 N1714 1.613 . S
S1713 N1715 1.610 . S
N1714 S1713 1.613 . S
N1714 C1717 1.350 . S
N1715 S1713 1.610 . S
N1715 C1716 1.351 . S
C1716 C1710 1.428 . S
C1716 N1715 1.351 . S
C1716 C1717 1.434 . S
C1717 C1708 1.429 . S
C1717 N1714 1.350 . S
C1717 C1716 1.434 . S
C1718 C1719 1.369 . S
C1718 C1720 1.419 . S
C1718 H1722 0.930 . S
C1719 C1718 1.369 . S
C1719 C1728 1.429 . S
C1720 C1718 1.419 . S
C1720 C1721 1.363 . S
C1720 H1723 0.929 . S
C1721 C1720 1.363 . S
C1721 C1727 1.428 . S
H1722 C1718 0.930 . S
H1723 C1720 0.929 . S
S1724 N1725 1.613 . S
S1724 N1726 1.610 . S
N1725 S1724 1.613 . S
N1725 C1728 1.350 . S
N1726 S1724 1.610 . S
N1726 C1727 1.351 . S
C1727 C1721 1.428 . S
C1727 N1726 1.351 . S
C1727 C1728 1.434 . S
C1728 C1719 1.429 . S
C1728 N1725 1.350 . S
C1728 C1727 1.434 . S
C1729 C1730 1.369 . S
C1729 C1731 1.419 . S
C1729 H1733 0.930 . S
C1730 C1729 1.369 . S
C1730 C1739 1.429 . S
C1731 C1729 1.419 . S
C1731 C1732 1.363 . S
C1731 H1734 0.929 . S
C1732 C1731 1.363 . S
C1732 C1738 1.428 . S
H1733 C1729 0.930 . S
H1734 C1731 0.929 . S
S1735 N1736 1.613 . S
S1735 N1737 1.610 . S
N1736 S1735 1.613 . S
N1736 C1739 1.350 . S
N1737 S1735 1.610 . S
N1737 C1738 1.351 . S
C1738 C1732 1.428 . S
C1738 N1737 1.351 . S
C1738 C1739 1.434 . S
C1739 C1730 1.429 . S
C1739 N1736 1.350 . S
C1739 C1738 1.434 . S
C1740 C1741 1.369 . S
C1740 C1742 1.419 . S
C1740 H1744 0.930 . S
C1741 C1740 1.369 . S
C1741 C1750 1.429 . S
C1742 C1740 1.419 . S
C1742 C1743 1.363 . S
C1742 H1745 0.929 . S
C1743 C1742 1.363 . S
C1743 C1749 1.428 . S
H1744 C1740 0.930 . S
H1745 C1742 0.929 . S
S1746 N1747 1.613 . S
S1746 N1748 1.610 . S
N1747 S1746 1.613 . S
N1747 C1750 1.350 . S
N1748 S1746 1.610 . S
N1748 C1749 1.351 . S
C1749 C1743 1.428 . S
C1749 N1748 1.351 . S
C1749 C1750 1.434 . S
C1750 C1741 1.429 . S
C1750 N1747 1.350 . S
C1750 C1749 1.434 . S
C1751 C1752 1.369 . S
C1751 C1753 1.419 . S
C1751 H1755 0.930 . S
C1752 C1751 1.369 . S
C1752 C1761 1.429 . S
C1753 C1751 1.419 . S
C1753 C1754 1.363 . S
C1753 H1756 0.929 . S
C1754 C1753 1.363 . S
C1754 C1760 1.428 . S
H1755 C1751 0.930 . S
H1756 C1753 0.929 . S
S1757 N1758 1.613 . S
S1757 N1759 1.610 . S
N1758 S1757 1.613 . S
N1758 C1761 1.350 . S
N1759 S1757 1.610 . S
N1759 C1760 1.351 . S
C1760 C1754 1.428 . S
C1760 N1759 1.351 . S
C1760 C1761 1.434 . S
C1761 C1752 1.429 . S
C1761 N1758 1.350 . S
C1761 C1760 1.434 . S
C1762 C1763 1.369 . S
C1762 C1764 1.419 . S
C1762 H1766 0.930 . S
C1763 C1762 1.369 . S
C1763 C1772 1.429 . S
C1764 C1762 1.419 . S
C1764 C1765 1.363 . S
C1764 H1767 0.929 . S
C1765 C1764 1.363 . S
C1765 C1771 1.428 . S
H1766 C1762 0.930 . S
H1767 C1764 0.929 . S
S1768 N1769 1.613 . S
S1768 N1770 1.610 . S
N1769 S1768 1.613 . S
N1769 C1772 1.350 . S
N1770 S1768 1.610 . S
N1770 C1771 1.351 . S
C1771 C1765 1.428 . S
C1771 N1770 1.351 . S
C1771 C1772 1.434 . S
C1772 C1763 1.429 . S
C1772 N1769 1.350 . S
C1772 C1771 1.434 . S
C1773 C1774 1.369 . S
C1773 C1775 1.419 . S
C1773 H1777 0.930 . S
C1774 C1773 1.369 . S
C1774 C1783 1.429 . S
C1775 C1773 1.419 . S
C1775 C1776 1.363 . S
C1775 H1778 0.929 . S
C1776 C1775 1.363 . S
C1776 C1782 1.428 . S
H1777 C1773 0.930 . S
H1778 C1775 0.929 . S
S1779 N1780 1.613 . S
S1779 N1781 1.610 . S
N1780 S1779 1.613 . S
N1780 C1783 1.350 . S
N1781 S1779 1.610 . S
N1781 C1782 1.351 . S
C1782 C1776 1.428 . S
C1782 N1781 1.351 . S
C1782 C1783 1.434 . S
C1783 C1774 1.429 . S
C1783 N1780 1.350 . S
C1783 C1782 1.434 . S
C1784 C1785 1.369 . S
C1784 C1786 1.419 . S
C1784 H1788 0.930 . S
C1785 C1784 1.369 . S
C1785 C1794 1.429 . S
C1786 C1784 1.419 . S
C1786 C1787 1.363 . S
C1786 H1789 0.929 . S
C1787 C1786 1.363 . S
C1787 C1793 1.428 . S
H1788 C1784 0.930 . S
H1789 C1786 0.929 . S
S1790 N1791 1.613 . S
S1790 N1792 1.610 . S
N1791 S1790 1.613 . S
N1791 C1794 1.350 . S
N1792 S1790 1.610 . S
N1792 C1793 1.351 . S
C1793 C1787 1.428 . S
C1793 N1792 1.351 . S
C1793 C1794 1.434 . S
C1794 C1785 1.429 . S
C1794 N1791 1.350 . S
C1794 C1793 1.434 . S
C1795 C1796 1.369 . S
C1795 C1797 1.419 . S
C1795 H1799 0.930 . S
C1796 C1795 1.369 . S
C1796 C1805 1.429 . S
C1797 C1795 1.419 . S
C1797 C1798 1.363 . S
C1797 H1800 0.929 . S
C1798 C1797 1.363 . S
C1798 C1804 1.428 . S
H1799 C1795 0.930 . S
H1800 C1797 0.929 . S
S1801 N1802 1.613 . S
S1801 N1803 1.610 . S
N1802 S1801 1.613 . S
N1802 C1805 1.350 . S
N1803 S1801 1.610 . S
N1803 C1804 1.351 . S
C1804 C1798 1.428 . S
C1804 N1803 1.351 . S
C1804 C1805 1.434 . S
C1805 C1796 1.429 . S
C1805 N1802 1.350 . S
C1805 C1804 1.434 . S
C1806 C1807 1.369 . S
C1806 C1808 1.419 . S
C1806 H1810 0.930 . S
C1807 C1806 1.369 . S
C1807 C1816 1.429 . S
C1808 C1806 1.419 . S
C1808 C1809 1.363 . S
C1808 H1811 0.929 . S
C1809 C1808 1.363 . S
C1809 C1815 1.428 . S
H1810 C1806 0.930 . S
H1811 C1808 0.929 . S
S1812 N1813 1.613 . S
S1812 N1814 1.610 . S
N1813 S1812 1.613 . S
N1813 C1816 1.350 . S
N1814 S1812 1.610 . S
N1814 C1815 1.351 . S
C1815 C1809 1.428 . S
C1815 N1814 1.351 . S
C1815 C1816 1.434 . S
C1816 C1807 1.429 . S
C1816 N1813 1.350 . S
C1816 C1815 1.434 . S
C1817 C1818 1.369 . S
C1817 C1819 1.419 . S
C1817 H1821 0.930 . S
C1818 C1817 1.369 . S
C1818 C1827 1.429 . S
C1819 C1817 1.419 . S
C1819 C1820 1.363 . S
C1819 H1822 0.929 . S
C1820 C1819 1.363 . S
C1820 C1826 1.428 . S
H1821 C1817 0.930 . S
H1822 C1819 0.929 . S
S1823 N1824 1.613 . S
S1823 N1825 1.610 . S
N1824 S1823 1.613 . S
N1824 C1827 1.350 . S
N1825 S1823 1.610 . S
N1825 C1826 1.351 . S
C1826 C1820 1.428 . S
C1826 N1825 1.351 . S
C1826 C1827 1.434 . S
C1827 C1818 1.429 . S
C1827 N1824 1.350 . S
C1827 C1826 1.434 . S
C1828 C1829 1.369 . S
C1828 C1830 1.419 . S
C1828 H1832 0.930 . S
C1829 C1828 1.369 . S
C1829 C1838 1.429 . S
C1830 C1828 1.419 . S
C1830 C1831 1.363 . S
C1830 H1833 0.929 . S
C1831 C1830 1.363 . S
C1831 C1837 1.428 . S
H1832 C1828 0.930 . S
H1833 C1830 0.929 . S
S1834 N1835 1.613 . S
S1834 N1836 1.610 . S
N1835 S1834 1.613 . S
N1835 C1838 1.350 . S
N1836 S1834 1.610 . S
N1836 C1837 1.351 . S
C1837 C1831 1.428 . S
C1837 N1836 1.351 . S
C1837 C1838 1.434 . S
C1838 C1829 1.429 . S
C1838 N1835 1.350 . S
C1838 C1837 1.434 . S
C1839 C1840 1.369 . S
C1839 C1841 1.419 . S
C1839 H1843 0.930 . S
C1840 C1839 1.369 . S
C1840 C1849 1.429 . S
C1841 C1839 1.419 . S
C1841 C1842 1.363 . S
C1841 H1844 0.929 . S
C1842 C1841 1.363 . S
C1842 C1848 1.428 . S
H1843 C1839 0.930 . S
H1844 C1841 0.929 . S
S1845 N1846 1.613 . S
S1845 N1847 1.610 . S
N1846 S1845 1.613 . S
N1846 C1849 1.350 . S
N1847 S1845 1.610 . S
N1847 C1848 1.351 . S
C1848 C1842 1.428 . S
C1848 N1847 1.351 . S
C1848 C1849 1.434 . S
C1849 C1840 1.429 . S
C1849 N1846 1.350 . S
C1849 C1848 1.434 . S
C1850 C1851 1.369 . S
C1850 C1852 1.419 . S
C1850 H1854 0.930 . S
C1851 C1850 1.369 . S
C1851 C1860 1.429 . S
C1852 C1850 1.419 . S
C1852 C1853 1.363 . S
C1852 H1855 0.929 . S
C1853 C1852 1.363 . S
C1853 C1859 1.428 . S
H1854 C1850 0.930 . S
H1855 C1852 0.929 . S
S1856 N1857 1.613 . S
S1856 N1858 1.610 . S
N1857 S1856 1.613 . S
N1857 C1860 1.350 . S
N1858 S1856 1.610 . S
N1858 C1859 1.351 . S
C1859 C1853 1.428 . S
C1859 N1858 1.351 . S
C1859 C1860 1.434 . S
C1860 C1851 1.429 . S
C1860 N1857 1.350 . S
C1860 C1859 1.434 . S
C1861 C1862 1.369 . S
C1861 C1863 1.419 . S
C1861 H1865 0.930 . S
C1862 C1861 1.369 . S
C1862 C1871 1.429 . S
C1863 C1861 1.419 . S
C1863 C1864 1.363 . S
C1863 H1866 0.929 . S
C1864 C1863 1.363 . S
C1864 C1870 1.428 . S
H1865 C1861 0.930 . S
H1866 C1863 0.929 . S
S1867 N1868 1.613 . S
S1867 N1869 1.610 . S
N1868 S1867 1.613 . S
N1868 C1871 1.350 . S
N1869 S1867 1.610 . S
N1869 C1870 1.351 . S
C1870 C1864 1.428 . S
C1870 N1869 1.351 . S
C1870 C1871 1.434 . S
C1871 C1862 1.429 . S
C1871 N1868 1.350 . S
C1871 C1870 1.434 . S
C1872 C1873 1.369 . S
C1872 C1874 1.419 . S
C1872 H1876 0.930 . S
C1873 C1872 1.369 . S
C1873 C1882 1.429 . S
C1874 C1872 1.419 . S
C1874 C1875 1.363 . S
C1874 H1877 0.929 . S
C1875 C1874 1.363 . S
C1875 C1881 1.428 . S
H1876 C1872 0.930 . S
H1877 C1874 0.929 . S
S1878 N1879 1.613 . S
S1878 N1880 1.610 . S
N1879 S1878 1.613 . S
N1879 C1882 1.350 . S
N1880 S1878 1.610 . S
N1880 C1881 1.351 . S
C1881 C1875 1.428 . S
C1881 N1880 1.351 . S
C1881 C1882 1.434 . S
C1882 C1873 1.429 . S
C1882 N1879 1.350 . S
C1882 C1881 1.434 . S
C1883 C1884 1.369 . S
C1883 C1885 1.419 . S
C1883 H1887 0.930 . S
C1884 C1883 1.369 . S
C1884 C1893 1.429 . S
C1885 C1883 1.419 . S
C1885 C1886 1.363 . S
C1885 H1888 0.929 . S
C1886 C1885 1.363 . S
C1886 C1892 1.428 . S
H1887 C1883 0.930 . S
H1888 C1885 0.929 . S
S1889 N1890 1.613 . S
S1889 N1891 1.610 . S
N1890 S1889 1.613 . S
N1890 C1893 1.350 . S
N1891 S1889 1.610 . S
N1891 C1892 1.351 . S
C1892 C1886 1.428 . S
C1892 N1891 1.351 . S
C1892 C1893 1.434 . S
C1893 C1884 1.429 . S
C1893 N1890 1.350 . S
C1893 C1892 1.434 . S
C1894 C1895 1.369 . S
C1894 C1896 1.419 . S
C1894 H1898 0.930 . S
C1895 C1894 1.369 . S
C1895 C1904 1.429 . S
C1896 C1894 1.419 . S
C1896 C1897 1.363 . S
C1896 H1899 0.929 . S
C1897 C1896 1.363 . S
C1897 C1903 1.428 . S
H1898 C1894 0.930 . S
H1899 C1896 0.929 . S
S1900 N1901 1.613 . S
S1900 N1902 1.610 . S
N1901 S1900 1.613 . S
N1901 C1904 1.350 . S
N1902 S1900 1.610 . S
N1902 C1903 1.351 . S
C1903 C1897 1.428 . S
C1903 N1902 1.351 . S
C1903 C1904 1.434 . S
C1904 C1895 1.429 . S
C1904 N1901 1.350 . S
C1904 C1903 1.434 . S
C1905 C1906 1.369 . S
C1905 C1907 1.419 . S
C1905 H1909 0.930 . S
C1906 C1905 1.369 . S
C1906 C1915 1.429 . S
C1907 C1905 1.419 . S
C1907 C1908 1.363 . S
C1907 H1910 0.929 . S
C1908 C1907 1.363 . S
C1908 C1914 1.428 . S
H1909 C1905 0.930 . S
H1910 C1907 0.929 . S
S1911 N1912 1.613 . S
S1911 N1913 1.610 . S
N1912 S1911 1.613 . S
N1912 C1915 1.350 . S
N1913 S1911 1.610 . S
N1913 C1914 1.351 . S
C1914 C1908 1.428 . S
C1914 N1913 1.351 . S
C1914 C1915 1.434 . S
C1915 C1906 1.429 . S
C1915 N1912 1.350 . S
C1915 C1914 1.434 . S
C1916 C1917 1.369 . S
C1916 C1918 1.419 . S
C1916 H1920 0.930 . S
C1917 C1916 1.369 . S
C1917 C1926 1.429 . S
C1918 C1916 1.419 . S
C1918 C1919 1.363 . S
C1918 H1921 0.929 . S
C1919 C1918 1.363 . S
C1919 C1925 1.428 . S
H1920 C1916 0.930 . S
H1921 C1918 0.929 . S
S1922 N1923 1.613 . S
S1922 N1924 1.610 . S
N1923 S1922 1.613 . S
N1923 C1926 1.350 . S
N1924 S1922 1.610 . S
N1924 C1925 1.351 . S
C1925 C1919 1.428 . S
C1925 N1924 1.351 . S
C1925 C1926 1.434 . S
C1926 C1917 1.429 . S
C1926 N1923 1.350 . S
C1926 C1925 1.434 . S
C1927 C1928 1.369 . S
C1927 C1929 1.419 . S
C1927 H1931 0.930 . S
C1928 C1927 1.369 . S
C1928 C1937 1.429 . S
C1929 C1927 1.419 . S
C1929 C1930 1.363 . S
C1929 H1932 0.929 . S
C1930 C1929 1.363 . S
C1930 C1936 1.428 . S
H1931 C1927 0.930 . S
H1932 C1929 0.929 . S
S1933 N1934 1.613 . S
S1933 N1935 1.610 . S
N1934 S1933 1.613 . S
N1934 C1937 1.350 . S
N1935 S1933 1.610 . S
N1935 C1936 1.351 . S
C1936 C1930 1.428 . S
C1936 N1935 1.351 . S
C1936 C1937 1.434 . S
C1937 C1928 1.429 . S
C1937 N1934 1.350 . S
C1937 C1936 1.434 . S
C1938 C1939 1.369 . S
C1938 C1940 1.419 . S
C1938 H1942 0.930 . S
C1939 C1938 1.369 . S
C1939 C1948 1.429 . S
C1940 C1938 1.419 . S
C1940 C1941 1.363 . S
C1940 H1943 0.929 . S
C1941 C1940 1.363 . S
C1941 C1947 1.428 . S
H1942 C1938 0.930 . S
H1943 C1940 0.929 . S
S1944 N1945 1.613 . S
S1944 N1946 1.610 . S
N1945 S1944 1.613 . S
N1945 C1948 1.350 . S
N1946 S1944 1.610 . S
N1946 C1947 1.351 . S
C1947 C1941 1.428 . S
C1947 N1946 1.351 . S
C1947 C1948 1.434 . S
C1948 C1939 1.429 . S
C1948 N1945 1.350 . S
C1948 C1947 1.434 . S
C1949 C1950 1.369 . S
C1949 C1951 1.419 . S
C1949 H1953 0.930 . S
C1950 C1949 1.369 . S
C1950 C1959 1.429 . S
C1951 C1949 1.419 . S
C1951 C1952 1.363 . S
C1951 H1954 0.929 . S
C1952 C1951 1.363 . S
C1952 C1958 1.428 . S
H1953 C1949 0.930 . S
H1954 C1951 0.929 . S
S1955 N1956 1.613 . S
S1955 N1957 1.610 . S
N1956 S1955 1.613 . S
N1956 C1959 1.350 . S
N1957 S1955 1.610 . S
N1957 C1958 1.351 . S
C1958 C1952 1.428 . S
C1958 N1957 1.351 . S
C1958 C1959 1.434 . S
C1959 C1950 1.429 . S
C1959 N1956 1.350 . S
C1959 C1958 1.434 . S
C1960 C1961 1.369 . S
C1960 C1962 1.419 . S
C1960 H1964 0.930 . S
C1961 C1960 1.369 . S
C1961 C1970 1.429 . S
C1962 C1960 1.419 . S
C1962 C1963 1.363 . S
C1962 H1965 0.929 . S
C1963 C1962 1.363 . S
C1963 C1969 1.428 . S
H1964 C1960 0.930 . S
H1965 C1962 0.929 . S
S1966 N1967 1.613 . S
S1966 N1968 1.610 . S
N1967 S1966 1.613 . S
N1967 C1970 1.350 . S
N1968 S1966 1.610 . S
N1968 C1969 1.351 . S
C1969 C1963 1.428 . S
C1969 N1968 1.351 . S
C1969 C1970 1.434 . S
C1970 C1961 1.429 . S
C1970 N1967 1.350 . S
C1970 C1969 1.434 . S
C1971 C1972 1.369 . S
C1971 C1973 1.419 . S
C1971 H1975 0.930 . S
C1972 C1971 1.369 . S
C1972 C1981 1.429 . S
C1973 C1971 1.419 . S
C1973 C1974 1.363 . S
C1973 H1976 0.929 . S
C1974 C1973 1.363 . S
C1974 C1980 1.428 . S
H1975 C1971 0.930 . S
H1976 C1973 0.929 . S
S1977 N1978 1.613 . S
S1977 N1979 1.610 . S
N1978 S1977 1.613 . S
N1978 C1981 1.350 . S
N1979 S1977 1.610 . S
N1979 C1980 1.351 . S
C1980 C1974 1.428 . S
C1980 N1979 1.351 . S
C1980 C1981 1.434 . S
C1981 C1972 1.429 . S
C1981 N1978 1.350 . S
C1981 C1980 1.434 . S
C1982 C1983 1.369 . S
C1982 C1984 1.419 . S
C1982 H1986 0.930 . S
C1983 C1982 1.369 . S
C1983 C1992 1.429 . S
C1984 C1982 1.419 . S
C1984 C1985 1.363 . S
C1984 H1987 0.929 . S
C1985 C1984 1.363 . S
C1985 C1991 1.428 . S
H1986 C1982 0.930 . S
H1987 C1984 0.929 . S
S1988 N1989 1.613 . S
S1988 N1990 1.610 . S
N1989 S1988 1.613 . S
N1989 C1992 1.350 . S
N1990 S1988 1.610 . S
N1990 C1991 1.351 . S
C1991 C1985 1.428 . S
C1991 N1990 1.351 . S
C1991 C1992 1.434 . S
C1992 C1983 1.429 . S
C1992 N1989 1.350 . S
C1992 C1991 1.434 . S
C1993 C1994 1.369 . S
C1993 C1995 1.419 . S
C1993 H1997 0.930 . S
C1994 C1993 1.369 . S
C1994 C2003 1.429 . S
C1995 C1993 1.419 . S
C1995 C1996 1.363 . S
C1995 H1998 0.929 . S
C1996 C1995 1.363 . S
C1996 C2002 1.428 . S
H1997 C1993 0.930 . S
H1998 C1995 0.929 . S
S1999 N2000 1.613 . S
S1999 N2001 1.610 . S
N2000 S1999 1.613 . S
N2000 C2003 1.350 . S
N2001 S1999 1.610 . S
N2001 C2002 1.351 . S
C2002 C1996 1.428 . S
C2002 N2001 1.351 . S
C2002 C2003 1.434 . S
C2003 C1994 1.429 . S
C2003 N2000 1.350 . S
C2003 C2002 1.434 . S
C2004 C2005 1.369 . S
C2004 C2006 1.419 . S
C2004 H2008 0.930 . S
C2005 C2004 1.369 . S
C2005 C2014 1.429 . S
C2006 C2004 1.419 . S
C2006 C2007 1.363 . S
C2006 H2009 0.929 . S
C2007 C2006 1.363 . S
C2007 C2013 1.428 . S
H2008 C2004 0.930 . S
H2009 C2006 0.929 . S
S2010 N2011 1.613 . S
S2010 N2012 1.610 . S
N2011 S2010 1.613 . S
N2011 C2014 1.350 . S
N2012 S2010 1.610 . S
N2012 C2013 1.351 . S
C2013 C2007 1.428 . S
C2013 N2012 1.351 . S
C2013 C2014 1.434 . S
C2014 C2005 1.429 . S
C2014 N2011 1.350 . S
C2014 C2013 1.434 . S
C2015 C2016 1.369 . S
C2015 C2017 1.419 . S
C2015 H2019 0.930 . S
C2016 C2015 1.369 . S
C2016 C2025 1.429 . S
C2017 C2015 1.419 . S
C2017 C2018 1.363 . S
C2017 H2020 0.929 . S
C2018 C2017 1.363 . S
C2018 C2024 1.428 . S
H2019 C2015 0.930 . S
H2020 C2017 0.929 . S
S2021 N2022 1.613 . S
S2021 N2023 1.610 . S
N2022 S2021 1.613 . S
N2022 C2025 1.350 . S
N2023 S2021 1.610 . S
N2023 C2024 1.351 . S
C2024 C2018 1.428 . S
C2024 N2023 1.351 . S
C2024 C2025 1.434 . S
C2025 C2016 1.429 . S
C2025 N2022 1.350 . S
C2025 C2024 1.434 . S
C2026 C2027 1.369 . S
C2026 C2028 1.419 . S
C2026 H2030 0.930 . S
C2027 C2026 1.369 . S
C2027 C2036 1.429 . S
C2028 C2026 1.419 . S
C2028 C2029 1.363 . S
C2028 H2031 0.929 . S
C2029 C2028 1.363 . S
C2029 C2035 1.428 . S
H2030 C2026 0.930 . S
H2031 C2028 0.929 . S
S2032 N2033 1.613 . S
S2032 N2034 1.610 . S
N2033 S2032 1.613 . S
N2033 C2036 1.350 . S
N2034 S2032 1.610 . S
N2034 C2035 1.351 . S
C2035 C2029 1.428 . S
C2035 N2034 1.351 . S
C2035 C2036 1.434 . S
C2036 C2027 1.429 . S
C2036 N2033 1.350 . S
C2036 C2035 1.434 . S
C2037 C2038 1.369 . S
C2037 C2039 1.419 . S
C2037 H2041 0.930 . S
C2038 C2037 1.369 . S
C2038 C2047 1.429 . S
C2039 C2037 1.419 . S
C2039 C2040 1.363 . S
C2039 H2042 0.929 . S
C2040 C2039 1.363 . S
C2040 C2046 1.428 . S
H2041 C2037 0.930 . S
H2042 C2039 0.929 . S
S2043 N2044 1.613 . S
S2043 N2045 1.610 . S
N2044 S2043 1.613 . S
N2044 C2047 1.350 . S
N2045 S2043 1.610 . S
N2045 C2046 1.351 . S
C2046 C2040 1.428 . S
C2046 N2045 1.351 . S
C2046 C2047 1.434 . S
C2047 C2038 1.429 . S
C2047 N2044 1.350 . S
C2047 C2046 1.434 . S
C2048 C2049 1.369 . S
C2048 C2050 1.419 . S
C2048 H2052 0.930 . S
C2049 C2048 1.369 . S
C2049 C2058 1.429 . S
C2050 C2048 1.419 . S
C2050 C2051 1.363 . S
C2050 H2053 0.929 . S
C2051 C2050 1.363 . S
C2051 C2057 1.428 . S
H2052 C2048 0.930 . S
H2053 C2050 0.929 . S
S2054 N2055 1.613 . S
S2054 N2056 1.610 . S
N2055 S2054 1.613 . S
N2055 C2058 1.350 . S
N2056 S2054 1.610 . S
N2056 C2057 1.351 . S
C2057 C2051 1.428 . S
C2057 N2056 1.351 . S
C2057 C2058 1.434 . S
C2058 C2049 1.429 . S
C2058 N2055 1.350 . S
C2058 C2057 1.434 . S
C2059 C2060 1.369 . S
C2059 C2061 1.419 . S
C2059 H2063 0.930 . S
C2060 C2059 1.369 . S
C2060 C2069 1.429 . S
C2061 C2059 1.419 . S
C2061 C2062 1.363 . S
C2061 H2064 0.929 . S
C2062 C2061 1.363 . S
C2062 C2068 1.428 . S
H2063 C2059 0.930 . S
H2064 C2061 0.929 . S
S2065 N2066 1.613 . S
S2065 N2067 1.610 . S
N2066 S2065 1.613 . S
N2066 C2069 1.350 . S
N2067 S2065 1.610 . S
N2067 C2068 1.351 . S
C2068 C2062 1.428 . S
C2068 N2067 1.351 . S
C2068 C2069 1.434 . S
C2069 C2060 1.429 . S
C2069 N2066 1.350 . S
C2069 C2068 1.434 . S
C2070 C2071 1.369 . S
C2070 C2072 1.419 . S
C2070 H2074 0.930 . S
C2071 C2070 1.369 . S
C2071 C2080 1.429 . S
C2072 C2070 1.419 . S
C2072 C2073 1.363 . S
C2072 H2075 0.929 . S
C2073 C2072 1.363 . S
C2073 C2079 1.428 . S
H2074 C2070 0.930 . S
H2075 C2072 0.929 . S
S2076 N2077 1.613 . S
S2076 N2078 1.610 . S
N2077 S2076 1.613 . S
N2077 C2080 1.350 . S
N2078 S2076 1.610 . S
N2078 C2079 1.351 . S
C2079 C2073 1.428 . S
C2079 N2078 1.351 . S
C2079 C2080 1.434 . S
C2080 C2071 1.429 . S
C2080 N2077 1.350 . S
C2080 C2079 1.434 . S
C2081 C2082 1.369 . S
C2081 C2083 1.419 . S
C2081 H2085 0.930 . S
C2082 C2081 1.369 . S
C2082 C2091 1.429 . S
C2083 C2081 1.419 . S
C2083 C2084 1.363 . S
C2083 H2086 0.929 . S
C2084 C2083 1.363 . S
C2084 C2090 1.428 . S
H2085 C2081 0.930 . S
H2086 C2083 0.929 . S
S2087 N2088 1.613 . S
S2087 N2089 1.610 . S
N2088 S2087 1.613 . S
N2088 C2091 1.350 . S
N2089 S2087 1.610 . S
N2089 C2090 1.351 . S
C2090 C2084 1.428 . S
C2090 N2089 1.351 . S
C2090 C2091 1.434 . S
C2091 C2082 1.429 . S
C2091 N2088 1.350 . S
C2091 C2090 1.434 . S
C2092 C2093 1.369 . S
C2092 C2094 1.419 . S
C2092 H2096 0.930 . S
C2093 C2092 1.369 . S
C2093 C2102 1.429 . S
C2094 C2092 1.419 . S
C2094 C2095 1.363 . S
C2094 H2097 0.929 . S
C2095 C2094 1.363 . S
C2095 C2101 1.428 . S
H2096 C2092 0.930 . S
H2097 C2094 0.929 . S
S2098 N2099 1.613 . S
S2098 N2100 1.610 . S
N2099 S2098 1.613 . S
N2099 C2102 1.350 . S
N2100 S2098 1.610 . S
N2100 C2101 1.351 . S
C2101 C2095 1.428 . S
C2101 N2100 1.351 . S
C2101 C2102 1.434 . S
C2102 C2093 1.429 . S
C2102 N2099 1.350 . S
C2102 C2101 1.434 . S
C2103 C2104 1.369 . S
C2103 C2105 1.419 . S
C2103 H2107 0.930 . S
C2104 C2103 1.369 . S
C2104 C2113 1.429 . S
C2105 C2103 1.419 . S
C2105 C2106 1.363 . S
C2105 H2108 0.929 . S
C2106 C2105 1.363 . S
C2106 C2112 1.428 . S
H2107 C2103 0.930 . S
H2108 C2105 0.929 . S
S2109 N2110 1.613 . S
S2109 N2111 1.610 . S
N2110 S2109 1.613 . S
N2110 C2113 1.350 . S
N2111 S2109 1.610 . S
N2111 C2112 1.351 . S
C2112 C2106 1.428 . S
C2112 N2111 1.351 . S
C2112 C2113 1.434 . S
C2113 C2104 1.429 . S
C2113 N2110 1.350 . S
C2113 C2112 1.434 . S
C2114 C2115 1.369 . S
C2114 C2116 1.419 . S
C2114 H2118 0.930 . S
C2115 C2114 1.369 . S
C2115 C2124 1.429 . S
C2116 C2114 1.419 . S
C2116 C2117 1.363 . S
C2116 H2119 0.929 . S
C2117 C2116 1.363 . S
C2117 C2123 1.428 . S
H2118 C2114 0.930 . S
H2119 C2116 0.929 . S
S2120 N2121 1.613 . S
S2120 N2122 1.610 . S
N2121 S2120 1.613 . S
N2121 C2124 1.350 . S
N2122 S2120 1.610 . S
N2122 C2123 1.351 . S
C2123 C2117 1.428 . S
C2123 N2122 1.351 . S
C2123 C2124 1.434 . S
C2124 C2115 1.429 . S
C2124 N2121 1.350 . S
C2124 C2123 1.434 . S
C2125 C2126 1.369 . S
C2125 C2127 1.419 . S
C2125 H2129 0.930 . S
C2126 C2125 1.369 . S
C2126 C2135 1.429 . S
C2127 C2125 1.419 . S
C2127 C2128 1.363 . S
C2127 H2130 0.929 . S
C2128 C2127 1.363 . S
C2128 C2134 1.428 . S
H2129 C2125 0.930 . S
H2130 C2127 0.929 . S
S2131 N2132 1.613 . S
S2131 N2133 1.610 . S
N2132 S2131 1.613 . S
N2132 C2135 1.350 . S
N2133 S2131 1.610 . S
N2133 C2134 1.351 . S
C2134 C2128 1.428 . S
C2134 N2133 1.351 . S
C2134 C2135 1.434 . S
C2135 C2126 1.429 . S
C2135 N2132 1.350 . S
C2135 C2134 1.434 . S
C2136 C2137 1.369 . S
C2136 C2138 1.419 . S
C2136 H2140 0.930 . S
C2137 C2136 1.369 . S
C2137 C2146 1.429 . S
C2138 C2136 1.419 . S
C2138 C2139 1.363 . S
C2138 H2141 0.929 . S
C2139 C2138 1.363 . S
C2139 C2145 1.428 . S
H2140 C2136 0.930 . S
H2141 C2138 0.929 . S
S2142 N2143 1.613 . S
S2142 N2144 1.610 . S
N2143 S2142 1.613 . S
N2143 C2146 1.350 . S
N2144 S2142 1.610 . S
N2144 C2145 1.351 . S
C2145 C2139 1.428 . S
C2145 N2144 1.351 . S
C2145 C2146 1.434 . S
C2146 C2137 1.429 . S
C2146 N2143 1.350 . S
C2146 C2145 1.434 . S
C2147 C2148 1.369 . S
C2147 C2149 1.419 . S
C2147 H2151 0.930 . S
C2148 C2147 1.369 . S
C2148 C2157 1.429 . S
C2149 C2147 1.419 . S
C2149 C2150 1.363 . S
C2149 H2152 0.929 . S
C2150 C2149 1.363 . S
C2150 C2156 1.428 . S
H2151 C2147 0.930 . S
H2152 C2149 0.929 . S
S2153 N2154 1.613 . S
S2153 N2155 1.610 . S
N2154 S2153 1.613 . S
N2154 C2157 1.350 . S
N2155 S2153 1.610 . S
N2155 C2156 1.351 . S
C2156 C2150 1.428 . S
C2156 N2155 1.351 . S
C2156 C2157 1.434 . S
C2157 C2148 1.429 . S
C2157 N2154 1.350 . S
C2157 C2156 1.434 . S
C2158 C2159 1.369 . S
C2158 C2160 1.419 . S
C2158 H2162 0.930 . S
C2159 C2158 1.369 . S
C2159 C2168 1.429 . S
C2160 C2158 1.419 . S
C2160 C2161 1.363 . S
C2160 H2163 0.929 . S
C2161 C2160 1.363 . S
C2161 C2167 1.428 . S
H2162 C2158 0.930 . S
H2163 C2160 0.929 . S
S2164 N2165 1.613 . S
S2164 N2166 1.610 . S
N2165 S2164 1.613 . S
N2165 C2168 1.350 . S
N2166 S2164 1.610 . S
N2166 C2167 1.351 . S
C2167 C2161 1.428 . S
C2167 N2166 1.351 . S
C2167 C2168 1.434 . S
C2168 C2159 1.429 . S
C2168 N2165 1.350 . S
C2168 C2167 1.434 . S
C2169 C2170 1.369 . S
C2169 C2171 1.419 . S
C2169 H2173 0.930 . S
C2170 C2169 1.369 . S
C2170 C2179 1.429 . S
C2171 C2169 1.419 . S
C2171 C2172 1.363 . S
C2171 H2174 0.929 . S
C2172 C2171 1.363 . S
C2172 C2178 1.428 . S
H2173 C2169 0.930 . S
H2174 C2171 0.929 . S
S2175 N2176 1.613 . S
S2175 N2177 1.610 . S
N2176 S2175 1.613 . S
N2176 C2179 1.350 . S
N2177 S2175 1.610 . S
N2177 C2178 1.351 . S
C2178 C2172 1.428 . S
C2178 N2177 1.351 . S
C2178 C2179 1.434 . S
C2179 C2170 1.429 . S
C2179 N2176 1.350 . S
C2179 C2178 1.434 . S
C2180 C2181 1.369 . S
C2180 C2182 1.419 . S
C2180 H2184 0.930 . S
C2181 C2180 1.369 . S
C2181 C2190 1.429 . S
C2182 C2180 1.419 . S
C2182 C2183 1.363 . S
C2182 H2185 0.929 . S
C2183 C2182 1.363 . S
C2183 C2189 1.428 . S
H2184 C2180 0.930 . S
H2185 C2182 0.929 . S
S2186 N2187 1.613 . S
S2186 N2188 1.610 . S
N2187 S2186 1.613 . S
N2187 C2190 1.350 . S
N2188 S2186 1.610 . S
N2188 C2189 1.351 . S
C2189 C2183 1.428 . S
C2189 N2188 1.351 . S
C2189 C2190 1.434 . S
C2190 C2181 1.429 . S
C2190 N2187 1.350 . S
C2190 C2189 1.434 . S
C2191 C2192 1.369 . S
C2191 C2193 1.419 . S
C2191 H2195 0.930 . S
C2192 C2191 1.369 . S
C2192 C2201 1.429 . S
C2193 C2191 1.419 . S
C2193 C2194 1.363 . S
C2193 H2196 0.929 . S
C2194 C2193 1.363 . S
C2194 C2200 1.428 . S
H2195 C2191 0.930 . S
H2196 C2193 0.929 . S
S2197 N2198 1.613 . S
S2197 N2199 1.610 . S
N2198 S2197 1.613 . S
N2198 C2201 1.350 . S
N2199 S2197 1.610 . S
N2199 C2200 1.351 . S
C2200 C2194 1.428 . S
C2200 N2199 1.351 . S
C2200 C2201 1.434 . S
C2201 C2192 1.429 . S
C2201 N2198 1.350 . S
C2201 C2200 1.434 . S
C2202 C2203 1.369 . S
C2202 C2204 1.419 . S
C2202 H2206 0.930 . S
C2203 C2202 1.369 . S
C2203 C2212 1.429 . S
C2204 C2202 1.419 . S
C2204 C2205 1.363 . S
C2204 H2207 0.929 . S
C2205 C2204 1.363 . S
C2205 C2211 1.428 . S
H2206 C2202 0.930 . S
H2207 C2204 0.929 . S
S2208 N2209 1.613 . S
S2208 N2210 1.610 . S
N2209 S2208 1.613 . S
N2209 C2212 1.350 . S
N2210 S2208 1.610 . S
N2210 C2211 1.351 . S
C2211 C2205 1.428 . S
C2211 N2210 1.351 . S
C2211 C2212 1.434 . S
C2212 C2203 1.429 . S
C2212 N2209 1.350 . S
C2212 C2211 1.434 . S
C2213 C2214 1.369 . S
C2213 C2215 1.419 . S
C2213 H2217 0.930 . S
C2214 C2213 1.369 . S
C2214 C2223 1.429 . S
C2215 C2213 1.419 . S
C2215 C2216 1.363 . S
C2215 H2218 0.929 . S
C2216 C2215 1.363 . S
C2216 C2222 1.428 . S
H2217 C2213 0.930 . S
H2218 C2215 0.929 . S
S2219 N2220 1.613 . S
S2219 N2221 1.610 . S
N2220 S2219 1.613 . S
N2220 C2223 1.350 . S
N2221 S2219 1.610 . S
N2221 C2222 1.351 . S
C2222 C2216 1.428 . S
C2222 N2221 1.351 . S
C2222 C2223 1.434 . S
C2223 C2214 1.429 . S
C2223 N2220 1.350 . S
C2223 C2222 1.434 . S
C2224 C2225 1.369 . S
C2224 C2226 1.419 . S
C2224 H2228 0.930 . S
C2225 C2224 1.369 . S
C2225 C2234 1.429 . S
C2226 C2224 1.419 . S
C2226 C2227 1.363 . S
C2226 H2229 0.929 . S
C2227 C2226 1.363 . S
C2227 C2233 1.428 . S
H2228 C2224 0.930 . S
H2229 C2226 0.929 . S
S2230 N2231 1.613 . S
S2230 N2232 1.610 . S
N2231 S2230 1.613 . S
N2231 C2234 1.350 . S
N2232 S2230 1.610 . S
N2232 C2233 1.351 . S
C2233 C2227 1.428 . S
C2233 N2232 1.351 . S
C2233 C2234 1.434 . S
C2234 C2225 1.429 . S
C2234 N2231 1.350 . S
C2234 C2233 1.434 . S
C2235 C2236 1.369 . S
C2235 C2237 1.419 . S
C2235 H2239 0.930 . S
C2236 C2235 1.369 . S
C2236 C2245 1.429 . S
C2237 C2235 1.419 . S
C2237 C2238 1.363 . S
C2237 H2240 0.929 . S
C2238 C2237 1.363 . S
C2238 C2244 1.428 . S
H2239 C2235 0.930 . S
H2240 C2237 0.929 . S
S2241 N2242 1.613 . S
S2241 N2243 1.610 . S
N2242 S2241 1.613 . S
N2242 C2245 1.350 . S
N2243 S2241 1.610 . S
N2243 C2244 1.351 . S
C2244 C2238 1.428 . S
C2244 N2243 1.351 . S
C2244 C2245 1.434 . S
C2245 C2236 1.429 . S
C2245 N2242 1.350 . S
C2245 C2244 1.434 . S
C2246 C2247 1.369 . S
C2246 C2248 1.419 . S
C2246 H2250 0.930 . S
C2247 C2246 1.369 . S
C2247 C2256 1.429 . S
C2248 C2246 1.419 . S
C2248 C2249 1.363 . S
C2248 H2251 0.929 . S
C2249 C2248 1.363 . S
C2249 C2255 1.428 . S
H2250 C2246 0.930 . S
H2251 C2248 0.929 . S
S2252 N2253 1.613 . S
S2252 N2254 1.610 . S
N2253 S2252 1.613 . S
N2253 C2256 1.350 . S
N2254 S2252 1.610 . S
N2254 C2255 1.351 . S
C2255 C2249 1.428 . S
C2255 N2254 1.351 . S
C2255 C2256 1.434 . S
C2256 C2247 1.429 . S
C2256 N2253 1.350 . S
C2256 C2255 1.434 . S
C2257 C2258 1.369 . S
C2257 C2259 1.419 . S
C2257 H2261 0.930 . S
C2258 C2257 1.369 . S
C2258 C2267 1.429 . S
C2259 C2257 1.419 . S
C2259 C2260 1.363 . S
C2259 H2262 0.929 . S
C2260 C2259 1.363 . S
C2260 C2266 1.428 . S
H2261 C2257 0.930 . S
H2262 C2259 0.929 . S
S2263 N2264 1.613 . S
S2263 N2265 1.610 . S
N2264 S2263 1.613 . S
N2264 C2267 1.350 . S
N2265 S2263 1.610 . S
N2265 C2266 1.351 . S
C2266 C2260 1.428 . S
C2266 N2265 1.351 . S
C2266 C2267 1.434 . S
C2267 C2258 1.429 . S
C2267 N2264 1.350 . S
C2267 C2266 1.434 . S
C2268 C2269 1.369 . S
C2268 C2270 1.419 . S
C2268 H2272 0.930 . S
C2269 C2268 1.369 . S
C2269 C2278 1.429 . S
C2270 C2268 1.419 . S
C2270 C2271 1.363 . S
C2270 H2273 0.929 . S
C2271 C2270 1.363 . S
C2271 C2277 1.428 . S
H2272 C2268 0.930 . S
H2273 C2270 0.929 . S
S2274 N2275 1.613 . S
S2274 N2276 1.610 . S
N2275 S2274 1.613 . S
N2275 C2278 1.350 . S
N2276 S2274 1.610 . S
N2276 C2277 1.351 . S
C2277 C2271 1.428 . S
C2277 N2276 1.351 . S
C2277 C2278 1.434 . S
C2278 C2269 1.429 . S
C2278 N2275 1.350 . S
C2278 C2277 1.434 . S
C2279 C2280 1.369 . S
C2279 C2281 1.419 . S
C2279 H2283 0.930 . S
C2280 C2279 1.369 . S
C2280 C2289 1.429 . S
C2281 C2279 1.419 . S
C2281 C2282 1.363 . S
C2281 H2284 0.929 . S
C2282 C2281 1.363 . S
C2282 C2288 1.428 . S
H2283 C2279 0.930 . S
H2284 C2281 0.929 . S
S2285 N2286 1.613 . S
S2285 N2287 1.610 . S
N2286 S2285 1.613 . S
N2286 C2289 1.350 . S
N2287 S2285 1.610 . S
N2287 C2288 1.351 . S
C2288 C2282 1.428 . S
C2288 N2287 1.351 . S
C2288 C2289 1.434 . S
C2289 C2280 1.429 . S
C2289 N2286 1.350 . S
C2289 C2288 1.434 . S
C2290 C2291 1.369 . S
C2290 C2292 1.419 . S
C2290 H2294 0.930 . S
C2291 C2290 1.369 . S
C2291 C2300 1.429 . S
C2292 C2290 1.419 . S
C2292 C2293 1.363 . S
C2292 H2295 0.929 . S
C2293 C2292 1.363 . S
C2293 C2299 1.428 . S
H2294 C2290 0.930 . S
H2295 C2292 0.929 . S
S2296 N2297 1.613 . S
S2296 N2298 1.610 . S
N2297 S2296 1.613 . S
N2297 C2300 1.350 . S
N2298 S2296 1.610 . S
N2298 C2299 1.351 . S
C2299 C2293 1.428 . S
C2299 N2298 1.351 . S
C2299 C2300 1.434 . S
C2300 C2291 1.429 . S
C2300 N2297 1.350 . S
C2300 C2299 1.434 . S
C2301 C2302 1.369 . S
C2301 C2303 1.419 . S
C2301 H2305 0.930 . S
C2302 C2301 1.369 . S
C2302 C2311 1.429 . S
C2303 C2301 1.419 . S
C2303 C2304 1.363 . S
C2303 H2306 0.929 . S
C2304 C2303 1.363 . S
C2304 C2310 1.428 . S
H2305 C2301 0.930 . S
H2306 C2303 0.929 . S
S2307 N2308 1.613 . S
S2307 N2309 1.610 . S
N2308 S2307 1.613 . S
N2308 C2311 1.350 . S
N2309 S2307 1.610 . S
N2309 C2310 1.351 . S
C2310 C2304 1.428 . S
C2310 N2309 1.351 . S
C2310 C2311 1.434 . S
C2311 C2302 1.429 . S
C2311 N2308 1.350 . S
C2311 C2310 1.434 . S
C2312 C2313 1.369 . S
C2312 C2314 1.419 . S
C2312 H2316 0.930 . S
C2313 C2312 1.369 . S
C2313 C2322 1.429 . S
C2314 C2312 1.419 . S
C2314 C2315 1.363 . S
C2314 H2317 0.929 . S
C2315 C2314 1.363 . S
C2315 C2321 1.428 . S
H2316 C2312 0.930 . S
H2317 C2314 0.929 . S
S2318 N2319 1.613 . S
S2318 N2320 1.610 . S
N2319 S2318 1.613 . S
N2319 C2322 1.350 . S
N2320 S2318 1.610 . S
N2320 C2321 1.351 . S
C2321 C2315 1.428 . S
C2321 N2320 1.351 . S
C2321 C2322 1.434 . S
C2322 C2313 1.429 . S
C2322 N2319 1.350 . S
C2322 C2321 1.434 . S
C2323 C2324 1.369 . S
C2323 C2325 1.419 . S
C2323 H2327 0.930 . S
C2324 C2323 1.369 . S
C2324 C2333 1.429 . S
C2325 C2323 1.419 . S
C2325 C2326 1.363 . S
C2325 H2328 0.929 . S
C2326 C2325 1.363 . S
C2326 C2332 1.428 . S
H2327 C2323 0.930 . S
H2328 C2325 0.929 . S
S2329 N2330 1.613 . S
S2329 N2331 1.610 . S
N2330 S2329 1.613 . S
N2330 C2333 1.350 . S
N2331 S2329 1.610 . S
N2331 C2332 1.351 . S
C2332 C2326 1.428 . S
C2332 N2331 1.351 . S
C2332 C2333 1.434 . S
C2333 C2324 1.429 . S
C2333 N2330 1.350 . S
C2333 C2332 1.434 . S
C2334 C2335 1.369 . S
C2334 C2336 1.419 . S
C2334 H2338 0.930 . S
C2335 C2334 1.369 . S
C2335 C2344 1.429 . S
C2336 C2334 1.419 . S
C2336 C2337 1.363 . S
C2336 H2339 0.929 . S
C2337 C2336 1.363 . S
C2337 C2343 1.428 . S
H2338 C2334 0.930 . S
H2339 C2336 0.929 . S
S2340 N2341 1.613 . S
S2340 N2342 1.610 . S
N2341 S2340 1.613 . S
N2341 C2344 1.350 . S
N2342 S2340 1.610 . S
N2342 C2343 1.351 . S
C2343 C2337 1.428 . S
C2343 N2342 1.351 . S
C2343 C2344 1.434 . S
C2344 C2335 1.429 . S
C2344 N2341 1.350 . S
C2344 C2343 1.434 . S
C2345 C2346 1.369 . S
C2345 C2347 1.419 . S
C2345 H2349 0.930 . S
C2346 C2345 1.369 . S
C2346 C2355 1.429 . S
C2347 C2345 1.419 . S
C2347 C2348 1.363 . S
C2347 H2350 0.929 . S
C2348 C2347 1.363 . S
C2348 C2354 1.428 . S
H2349 C2345 0.930 . S
H2350 C2347 0.929 . S
S2351 N2352 1.613 . S
S2351 N2353 1.610 . S
N2352 S2351 1.613 . S
N2352 C2355 1.350 . S
N2353 S2351 1.610 . S
N2353 C2354 1.351 . S
C2354 C2348 1.428 . S
C2354 N2353 1.351 . S
C2354 C2355 1.434 . S
C2355 C2346 1.429 . S
C2355 N2352 1.350 . S
C2355 C2354 1.434 . S
C2356 C2357 1.369 . S
C2356 C2358 1.419 . S
C2356 H2360 0.930 . S
C2357 C2356 1.369 . S
C2357 C2366 1.429 . S
C2358 C2356 1.419 . S
C2358 C2359 1.363 . S
C2358 H2361 0.929 . S
C2359 C2358 1.363 . S
C2359 C2365 1.428 . S
H2360 C2356 0.930 . S
H2361 C2358 0.929 . S
S2362 N2363 1.613 . S
S2362 N2364 1.610 . S
N2363 S2362 1.613 . S
N2363 C2366 1.350 . S
N2364 S2362 1.610 . S
N2364 C2365 1.351 . S
C2365 C2359 1.428 . S
C2365 N2364 1.351 . S
C2365 C2366 1.434 . S
C2366 C2357 1.429 . S
C2366 N2363 1.350 . S
C2366 C2365 1.434 . S
C2367 C2368 1.369 . S
C2367 C2369 1.419 . S
C2367 H2371 0.930 . S
C2368 C2367 1.369 . S
C2368 C2377 1.429 . S
C2369 C2367 1.419 . S
C2369 C2370 1.363 . S
C2369 H2372 0.929 . S
C2370 C2369 1.363 . S
C2370 C2376 1.428 . S
H2371 C2367 0.930 . S
H2372 C2369 0.929 . S
S2373 N2374 1.613 . S
S2373 N2375 1.610 . S
N2374 S2373 1.613 . S
N2374 C2377 1.350 . S
N2375 S2373 1.610 . S
N2375 C2376 1.351 . S
C2376 C2370 1.428 . S
C2376 N2375 1.351 . S
C2376 C2377 1.434 . S
C2377 C2368 1.429 . S
C2377 N2374 1.350 . S
C2377 C2376 1.434 . S
C2378 C2379 1.369 . S
C2378 C2380 1.419 . S
C2378 H2382 0.930 . S
C2379 C2378 1.369 . S
C2379 C2388 1.429 . S
C2380 C2378 1.419 . S
C2380 C2381 1.363 . S
C2380 H2383 0.929 . S
C2381 C2380 1.363 . S
C2381 C2387 1.428 . S
H2382 C2378 0.930 . S
H2383 C2380 0.929 . S
S2384 N2385 1.613 . S
S2384 N2386 1.610 . S
N2385 S2384 1.613 . S
N2385 C2388 1.350 . S
N2386 S2384 1.610 . S
N2386 C2387 1.351 . S
C2387 C2381 1.428 . S
C2387 N2386 1.351 . S
C2387 C2388 1.434 . S
C2388 C2379 1.429 . S
C2388 N2385 1.350 . S
C2388 C2387 1.434 . S
C2389 C2390 1.369 . S
C2389 C2391 1.419 . S
C2389 H2393 0.930 . S
C2390 C2389 1.369 . S
C2390 C2399 1.429 . S
C2391 C2389 1.419 . S
C2391 C2392 1.363 . S
C2391 H2394 0.929 . S
C2392 C2391 1.363 . S
C2392 C2398 1.428 . S
H2393 C2389 0.930 . S
H2394 C2391 0.929 . S
S2395 N2396 1.613 . S
S2395 N2397 1.610 . S
N2396 S2395 1.613 . S
N2396 C2399 1.350 . S
N2397 S2395 1.610 . S
N2397 C2398 1.351 . S
C2398 C2392 1.428 . S
C2398 N2397 1.351 . S
C2398 C2399 1.434 . S
C2399 C2390 1.429 . S
C2399 N2396 1.350 . S
C2399 C2398 1.434 . S
C2400 C2401 1.369 . S
C2400 C2402 1.419 . S
C2400 H2404 0.930 . S
C2401 C2400 1.369 . S
C2401 C2410 1.429 . S
C2402 C2400 1.419 . S
C2402 C2403 1.363 . S
C2402 H2405 0.929 . S
C2403 C2402 1.363 . S
C2403 C2409 1.428 . S
H2404 C2400 0.930 . S
H2405 C2402 0.929 . S
S2406 N2407 1.613 . S
S2406 N2408 1.610 . S
N2407 S2406 1.613 . S
N2407 C2410 1.350 . S
N2408 S2406 1.610 . S
N2408 C2409 1.351 . S
C2409 C2403 1.428 . S
C2409 N2408 1.351 . S
C2409 C2410 1.434 . S
C2410 C2401 1.429 . S
C2410 N2407 1.350 . S
C2410 C2409 1.434 . S
C2411 C2412 1.369 . S
C2411 C2413 1.419 . S
C2411 H2415 0.930 . S
C2412 C2411 1.369 . S
C2412 C2421 1.429 . S
C2413 C2411 1.419 . S
C2413 C2414 1.363 . S
C2413 H2416 0.929 . S
C2414 C2413 1.363 . S
C2414 C2420 1.428 . S
H2415 C2411 0.930 . S
H2416 C2413 0.929 . S
S2417 N2418 1.613 . S
S2417 N2419 1.610 . S
N2418 S2417 1.613 . S
N2418 C2421 1.350 . S
N2419 S2417 1.610 . S
N2419 C2420 1.351 . S
C2420 C2414 1.428 . S
C2420 N2419 1.351 . S
C2420 C2421 1.434 . S
C2421 C2412 1.429 . S
C2421 N2418 1.350 . S
C2421 C2420 1.434 . S
C2422 C2423 1.369 . S
C2422 C2424 1.419 . S
C2422 H2426 0.930 . S
C2423 C2422 1.369 . S
C2423 C2432 1.429 . S
C2424 C2422 1.419 . S
C2424 C2425 1.363 . S
C2424 H2427 0.929 . S
C2425 C2424 1.363 . S
C2425 C2431 1.428 . S
H2426 C2422 0.930 . S
H2427 C2424 0.929 . S
S2428 N2429 1.613 . S
S2428 N2430 1.610 . S
N2429 S2428 1.613 . S
N2429 C2432 1.350 . S
N2430 S2428 1.610 . S
N2430 C2431 1.351 . S
C2431 C2425 1.428 . S
C2431 N2430 1.351 . S
C2431 C2432 1.434 . S
C2432 C2423 1.429 . S
C2432 N2429 1.350 . S
C2432 C2431 1.434 . S
C2433 C2434 1.369 . S
C2433 C2435 1.419 . S
C2433 H2437 0.930 . S
C2434 C2433 1.369 . S
C2434 C2443 1.429 . S
C2435 C2433 1.419 . S
C2435 C2436 1.363 . S
C2435 H2438 0.929 . S
C2436 C2435 1.363 . S
C2436 C2442 1.428 . S
H2437 C2433 0.930 . S
H2438 C2435 0.929 . S
S2439 N2440 1.613 . S
S2439 N2441 1.610 . S
N2440 S2439 1.613 . S
N2440 C2443 1.350 . S
N2441 S2439 1.610 . S
N2441 C2442 1.351 . S
C2442 C2436 1.428 . S
C2442 N2441 1.351 . S
C2442 C2443 1.434 . S
C2443 C2434 1.429 . S
C2443 N2440 1.350 . S
C2443 C2442 1.434 . S
C2444 C2445 1.369 . S
C2444 C2446 1.419 . S
C2444 H2448 0.930 . S
C2445 C2444 1.369 . S
C2445 C2454 1.429 . S
C2446 C2444 1.419 . S
C2446 C2447 1.363 . S
C2446 H2449 0.929 . S
C2447 C2446 1.363 . S
C2447 C2453 1.428 . S
H2448 C2444 0.930 . S
H2449 C2446 0.929 . S
S2450 N2451 1.613 . S
S2450 N2452 1.610 . S
N2451 S2450 1.613 . S
N2451 C2454 1.350 . S
N2452 S2450 1.610 . S
N2452 C2453 1.351 . S
C2453 C2447 1.428 . S
C2453 N2452 1.351 . S
C2453 C2454 1.434 . S
C2454 C2445 1.429 . S
C2454 N2451 1.350 . S
C2454 C2453 1.434 . S
C2455 C2456 1.369 . S
C2455 C2457 1.419 . S
C2455 H2459 0.930 . S
C2456 C2455 1.369 . S
C2456 C2465 1.429 . S
C2457 C2455 1.419 . S
C2457 C2458 1.363 . S
C2457 H2460 0.929 . S
C2458 C2457 1.363 . S
C2458 C2464 1.428 . S
H2459 C2455 0.930 . S
H2460 C2457 0.929 . S
S2461 N2462 1.613 . S
S2461 N2463 1.610 . S
N2462 S2461 1.613 . S
N2462 C2465 1.350 . S
N2463 S2461 1.610 . S
N2463 C2464 1.351 . S
C2464 C2458 1.428 . S
C2464 N2463 1.351 . S
C2464 C2465 1.434 . S
C2465 C2456 1.429 . S
C2465 N2462 1.350 . S
C2465 C2464 1.434 . S
C2466 C2467 1.369 . S
C2466 C2468 1.419 . S
C2466 H2470 0.930 . S
C2467 C2466 1.369 . S
C2467 C2476 1.429 . S
C2468 C2466 1.419 . S
C2468 C2469 1.363 . S
C2468 H2471 0.929 . S
C2469 C2468 1.363 . S
C2469 C2475 1.428 . S
H2470 C2466 0.930 . S
H2471 C2468 0.929 . S
S2472 N2473 1.613 . S
S2472 N2474 1.610 . S
N2473 S2472 1.613 . S
N2473 C2476 1.350 . S
N2474 S2472 1.610 . S
N2474 C2475 1.351 . S
C2475 C2469 1.428 . S
C2475 N2474 1.351 . S
C2475 C2476 1.434 . S
C2476 C2467 1.429 . S
C2476 N2473 1.350 . S
C2476 C2475 1.434 . S
C2477 C2478 1.369 . S
C2477 C2479 1.419 . S
C2477 H2481 0.930 . S
C2478 C2477 1.369 . S
C2478 C2487 1.429 . S
C2479 C2477 1.419 . S
C2479 C2480 1.363 . S
C2479 H2482 0.929 . S
C2480 C2479 1.363 . S
C2480 C2486 1.428 . S
H2481 C2477 0.930 . S
H2482 C2479 0.929 . S
S2483 N2484 1.613 . S
S2483 N2485 1.610 . S
N2484 S2483 1.613 . S
N2484 C2487 1.350 . S
N2485 S2483 1.610 . S
N2485 C2486 1.351 . S
C2486 C2480 1.428 . S
C2486 N2485 1.351 . S
C2486 C2487 1.434 . S
C2487 C2478 1.429 . S
C2487 N2484 1.350 . S
C2487 C2486 1.434 . S
C2488 C2489 1.369 . S
C2488 C2490 1.419 . S
C2488 H2492 0.930 . S
C2489 C2488 1.369 . S
C2489 C2498 1.429 . S
C2490 C2488 1.419 . S
C2490 C2491 1.363 . S
C2490 H2493 0.929 . S
C2491 C2490 1.363 . S
C2491 C2497 1.428 . S
H2492 C2488 0.930 . S
H2493 C2490 0.929 . S
S2494 N2495 1.613 . S
S2494 N2496 1.610 . S
N2495 S2494 1.613 . S
N2495 C2498 1.350 . S
N2496 S2494 1.610 . S
N2496 C2497 1.351 . S
C2497 C2491 1.428 . S
C2497 N2496 1.351 . S
C2497 C2498 1.434 . S
C2498 C2489 1.429 . S
C2498 N2495 1.350 . S
C2498 C2497 1.434 . S
C2499 C2500 1.369 . S
C2499 C2501 1.419 . S
C2499 H2503 0.930 . S
C2500 C2499 1.369 . S
C2500 C2509 1.429 . S
C2501 C2499 1.419 . S
C2501 C2502 1.363 . S
C2501 H2504 0.929 . S
C2502 C2501 1.363 . S
C2502 C2508 1.428 . S
H2503 C2499 0.930 . S
H2504 C2501 0.929 . S
S2505 N2506 1.613 . S
S2505 N2507 1.610 . S
N2506 S2505 1.613 . S
N2506 C2509 1.350 . S
N2507 S2505 1.610 . S
N2507 C2508 1.351 . S
C2508 C2502 1.428 . S
C2508 N2507 1.351 . S
C2508 C2509 1.434 . S
C2509 C2500 1.429 . S
C2509 N2506 1.350 . S
C2509 C2508 1.434 . S
C2510 C2511 1.369 . S
C2510 C2512 1.419 . S
C2510 H2514 0.930 . S
C2511 C2510 1.369 . S
C2511 C2520 1.429 . S
C2512 C2510 1.419 . S
C2512 C2513 1.363 . S
C2512 H2515 0.929 . S
C2513 C2512 1.363 . S
C2513 C2519 1.428 . S
H2514 C2510 0.930 . S
H2515 C2512 0.929 . S
S2516 N2517 1.613 . S
S2516 N2518 1.610 . S
N2517 S2516 1.613 . S
N2517 C2520 1.350 . S
N2518 S2516 1.610 . S
N2518 C2519 1.351 . S
C2519 C2513 1.428 . S
C2519 N2518 1.351 . S
C2519 C2520 1.434 . S
C2520 C2511 1.429 . S
C2520 N2517 1.350 . S
C2520 C2519 1.434 . S
C2521 C2522 1.369 . S
C2521 C2523 1.419 . S
C2521 H2525 0.930 . S
C2522 C2521 1.369 . S
C2522 C2531 1.429 . S
C2523 C2521 1.419 . S
C2523 C2524 1.363 . S
C2523 H2526 0.929 . S
C2524 C2523 1.363 . S
C2524 C2530 1.428 . S
H2525 C2521 0.930 . S
H2526 C2523 0.929 . S
S2527 N2528 1.613 . S
S2527 N2529 1.610 . S
N2528 S2527 1.613 . S
N2528 C2531 1.350 . S
N2529 S2527 1.610 . S
N2529 C2530 1.351 . S
C2530 C2524 1.428 . S
C2530 N2529 1.351 . S
C2530 C2531 1.434 . S
C2531 C2522 1.429 . S
C2531 N2528 1.350 . S
C2531 C2530 1.434 . S
C2532 C2533 1.369 . S
C2532 C2534 1.419 . S
C2532 H2536 0.930 . S
C2533 C2532 1.369 . S
C2533 C2542 1.429 . S
C2534 C2532 1.419 . S
C2534 C2535 1.363 . S
C2534 H2537 0.929 . S
C2535 C2534 1.363 . S
C2535 C2541 1.428 . S
H2536 C2532 0.930 . S
H2537 C2534 0.929 . S
S2538 N2539 1.613 . S
S2538 N2540 1.610 . S
N2539 S2538 1.613 . S
N2539 C2542 1.350 . S
N2540 S2538 1.610 . S
N2540 C2541 1.351 . S
C2541 C2535 1.428 . S
C2541 N2540 1.351 . S
C2541 C2542 1.434 . S
C2542 C2533 1.429 . S
C2542 N2539 1.350 . S
C2542 C2541 1.434 . S
C2543 C2544 1.369 . S
C2543 C2545 1.419 . S
C2543 H2547 0.930 . S
C2544 C2543 1.369 . S
C2544 C2553 1.429 . S
C2545 C2543 1.419 . S
C2545 C2546 1.363 . S
C2545 H2548 0.929 . S
C2546 C2545 1.363 . S
C2546 C2552 1.428 . S
H2547 C2543 0.930 . S
H2548 C2545 0.929 . S
S2549 N2550 1.613 . S
S2549 N2551 1.610 . S
N2550 S2549 1.613 . S
N2550 C2553 1.350 . S
N2551 S2549 1.610 . S
N2551 C2552 1.351 . S
C2552 C2546 1.428 . S
C2552 N2551 1.351 . S
C2552 C2553 1.434 . S
C2553 C2544 1.429 . S
C2553 N2550 1.350 . S
C2553 C2552 1.434 . S
C2554 C2555 1.369 . S
C2554 C2556 1.419 . S
C2554 H2558 0.930 . S
C2555 C2554 1.369 . S
C2555 C2564 1.429 . S
C2556 C2554 1.419 . S
C2556 C2557 1.363 . S
C2556 H2559 0.929 . S
C2557 C2556 1.363 . S
C2557 C2563 1.428 . S
H2558 C2554 0.930 . S
H2559 C2556 0.929 . S
S2560 N2561 1.613 . S
S2560 N2562 1.610 . S
N2561 S2560 1.613 . S
N2561 C2564 1.350 . S
N2562 S2560 1.610 . S
N2562 C2563 1.351 . S
C2563 C2557 1.428 . S
C2563 N2562 1.351 . S
C2563 C2564 1.434 . S
C2564 C2555 1.429 . S
C2564 N2561 1.350 . S
C2564 C2563 1.434 . S
C2565 C2566 1.369 . S
C2565 C2567 1.419 . S
C2565 H2569 0.930 . S
C2566 C2565 1.369 . S
C2566 C2575 1.429 . S
C2567 C2565 1.419 . S
C2567 C2568 1.363 . S
C2567 H2570 0.929 . S
C2568 C2567 1.363 . S
C2568 C2574 1.428 . S
H2569 C2565 0.930 . S
H2570 C2567 0.929 . S
S2571 N2572 1.613 . S
S2571 N2573 1.610 . S
N2572 S2571 1.613 . S
N2572 C2575 1.350 . S
N2573 S2571 1.610 . S
N2573 C2574 1.351 . S
C2574 C2568 1.428 . S
C2574 N2573 1.351 . S
C2574 C2575 1.434 . S
C2575 C2566 1.429 . S
C2575 N2572 1.350 . S
C2575 C2574 1.434 . S
C2576 C2577 1.369 . S
C2576 C2578 1.419 . S
C2576 H2580 0.930 . S
C2577 C2576 1.369 . S
C2577 C2586 1.429 . S
C2578 C2576 1.419 . S
C2578 C2579 1.363 . S
C2578 H2581 0.929 . S
C2579 C2578 1.363 . S
C2579 C2585 1.428 . S
H2580 C2576 0.930 . S
H2581 C2578 0.929 . S
S2582 N2583 1.613 . S
S2582 N2584 1.610 . S
N2583 S2582 1.613 . S
N2583 C2586 1.350 . S
N2584 S2582 1.610 . S
N2584 C2585 1.351 . S
C2585 C2579 1.428 . S
C2585 N2584 1.351 . S
C2585 C2586 1.434 . S
C2586 C2577 1.429 . S
C2586 N2583 1.350 . S
C2586 C2585 1.434 . S
C2587 C2588 1.369 . S
C2587 C2589 1.419 . S
C2587 H2591 0.930 . S
C2588 C2587 1.369 . S
C2588 C2597 1.429 . S
C2589 C2587 1.419 . S
C2589 C2590 1.363 . S
C2589 H2592 0.929 . S
C2590 C2589 1.363 . S
C2590 C2596 1.428 . S
H2591 C2587 0.930 . S
H2592 C2589 0.929 . S
S2593 N2594 1.613 . S
S2593 N2595 1.610 . S
N2594 S2593 1.613 . S
N2594 C2597 1.350 . S
N2595 S2593 1.610 . S
N2595 C2596 1.351 . S
C2596 C2590 1.428 . S
C2596 N2595 1.351 . S
C2596 C2597 1.434 . S
C2597 C2588 1.429 . S
C2597 N2594 1.350 . S
C2597 C2596 1.434 . S
C2598 C2599 1.369 . S
C2598 C2600 1.419 . S
C2598 H2602 0.930 . S
C2599 C2598 1.369 . S
C2599 C2608 1.429 . S
C2600 C2598 1.419 . S
C2600 C2601 1.363 . S
C2600 H2603 0.929 . S
C2601 C2600 1.363 . S
C2601 C2607 1.428 . S
H2602 C2598 0.930 . S
H2603 C2600 0.929 . S
S2604 N2605 1.613 . S
S2604 N2606 1.610 . S
N2605 S2604 1.613 . S
N2605 C2608 1.350 . S
N2606 S2604 1.610 . S
N2606 C2607 1.351 . S
C2607 C2601 1.428 . S
C2607 N2606 1.351 . S
C2607 C2608 1.434 . S
C2608 C2599 1.429 . S
C2608 N2605 1.350 . S
C2608 C2607 1.434 . S
C2609 C2610 1.369 . S
C2609 C2611 1.419 . S
C2609 H2613 0.930 . S
C2610 C2609 1.369 . S
C2610 C2619 1.429 . S
C2611 C2609 1.419 . S
C2611 C2612 1.363 . S
C2611 H2614 0.929 . S
C2612 C2611 1.363 . S
C2612 C2618 1.428 . S
H2613 C2609 0.930 . S
H2614 C2611 0.929 . S
S2615 N2616 1.613 . S
S2615 N2617 1.610 . S
N2616 S2615 1.613 . S
N2616 C2619 1.350 . S
N2617 S2615 1.610 . S
N2617 C2618 1.351 . S
C2618 C2612 1.428 . S
C2618 N2617 1.351 . S
C2618 C2619 1.434 . S
C2619 C2610 1.429 . S
C2619 N2616 1.350 . S
C2619 C2618 1.434 . S
C2620 C2621 1.369 . S
C2620 C2622 1.419 . S
C2620 H2624 0.930 . S
C2621 C2620 1.369 . S
C2621 C2630 1.429 . S
C2622 C2620 1.419 . S
C2622 C2623 1.363 . S
C2622 H2625 0.929 . S
C2623 C2622 1.363 . S
C2623 C2629 1.428 . S
H2624 C2620 0.930 . S
H2625 C2622 0.929 . S
S2626 N2627 1.613 . S
S2626 N2628 1.610 . S
N2627 S2626 1.613 . S
N2627 C2630 1.350 . S
N2628 S2626 1.610 . S
N2628 C2629 1.351 . S
C2629 C2623 1.428 . S
C2629 N2628 1.351 . S
C2629 C2630 1.434 . S
C2630 C2621 1.429 . S
C2630 N2627 1.350 . S
C2630 C2629 1.434 . S
C2631 C2632 1.369 . S
C2631 C2633 1.419 . S
C2631 H2635 0.930 . S
C2632 C2631 1.369 . S
C2632 C2641 1.429 . S
C2633 C2631 1.419 . S
C2633 C2634 1.363 . S
C2633 H2636 0.929 . S
C2634 C2633 1.363 . S
C2634 C2640 1.428 . S
H2635 C2631 0.930 . S
H2636 C2633 0.929 . S
S2637 N2638 1.613 . S
S2637 N2639 1.610 . S
N2638 S2637 1.613 . S
N2638 C2641 1.350 . S
N2639 S2637 1.610 . S
N2639 C2640 1.351 . S
C2640 C2634 1.428 . S
C2640 N2639 1.351 . S
C2640 C2641 1.434 . S
C2641 C2632 1.429 . S
C2641 N2638 1.350 . S
C2641 C2640 1.434 . S
C2642 C2643 1.369 . S
C2642 C2644 1.419 . S
C2642 H2646 0.930 . S
C2643 C2642 1.369 . S
C2643 C2652 1.429 . S
C2644 C2642 1.419 . S
C2644 C2645 1.363 . S
C2644 H2647 0.929 . S
C2645 C2644 1.363 . S
C2645 C2651 1.428 . S
H2646 C2642 0.930 . S
H2647 C2644 0.929 . S
S2648 N2649 1.613 . S
S2648 N2650 1.610 . S
N2649 S2648 1.613 . S
N2649 C2652 1.350 . S
N2650 S2648 1.610 . S
N2650 C2651 1.351 . S
C2651 C2645 1.428 . S
C2651 N2650 1.351 . S
C2651 C2652 1.434 . S
C2652 C2643 1.429 . S
C2652 N2649 1.350 . S
C2652 C2651 1.434 . S
C2653 C2654 1.369 . S
C2653 C2655 1.419 . S
C2653 H2657 0.930 . S
C2654 C2653 1.369 . S
C2654 C2663 1.429 . S
C2655 C2653 1.419 . S
C2655 C2656 1.363 . S
C2655 H2658 0.929 . S
C2656 C2655 1.363 . S
C2656 C2662 1.428 . S
H2657 C2653 0.930 . S
H2658 C2655 0.929 . S
S2659 N2660 1.613 . S
S2659 N2661 1.610 . S
N2660 S2659 1.613 . S
N2660 C2663 1.350 . S
N2661 S2659 1.610 . S
N2661 C2662 1.351 . S
C2662 C2656 1.428 . S
C2662 N2661 1.351 . S
C2662 C2663 1.434 . S
C2663 C2654 1.429 . S
C2663 N2660 1.350 . S
C2663 C2662 1.434 . S
C2664 C2665 1.369 . S
C2664 C2666 1.419 . S
C2664 H2668 0.930 . S
C2665 C2664 1.369 . S
C2665 C2674 1.429 . S
C2666 C2664 1.419 . S
C2666 C2667 1.363 . S
C2666 H2669 0.929 . S
C2667 C2666 1.363 . S
C2667 C2673 1.428 . S
H2668 C2664 0.930 . S
H2669 C2666 0.929 . S
S2670 N2671 1.613 . S
S2670 N2672 1.610 . S
N2671 S2670 1.613 . S
N2671 C2674 1.350 . S
N2672 S2670 1.610 . S
N2672 C2673 1.351 . S
C2673 C2667 1.428 . S
C2673 N2672 1.351 . S
C2673 C2674 1.434 . S
C2674 C2665 1.429 . S
C2674 N2671 1.350 . S
C2674 C2673 1.434 . S
C2675 C2676 1.369 . S
C2675 C2677 1.419 . S
C2675 H2679 0.930 . S
C2676 C2675 1.369 . S
C2676 C2685 1.429 . S
C2677 C2675 1.419 . S
C2677 C2678 1.363 . S
C2677 H2680 0.929 . S
C2678 C2677 1.363 . S
C2678 C2684 1.428 . S
H2679 C2675 0.930 . S
H2680 C2677 0.929 . S
S2681 N2682 1.613 . S
S2681 N2683 1.610 . S
N2682 S2681 1.613 . S
N2682 C2685 1.350 . S
N2683 S2681 1.610 . S
N2683 C2684 1.351 . S
C2684 C2678 1.428 . S
C2684 N2683 1.351 . S
C2684 C2685 1.434 . S
C2685 C2676 1.429 . S
C2685 N2682 1.350 . S
C2685 C2684 1.434 . S
C2686 C2687 1.369 . S
C2686 C2688 1.419 . S
C2686 H2690 0.930 . S
C2687 C2686 1.369 . S
C2687 C2696 1.429 . S
C2688 C2686 1.419 . S
C2688 C2689 1.363 . S
C2688 H2691 0.929 . S
C2689 C2688 1.363 . S
C2689 C2695 1.428 . S
H2690 C2686 0.930 . S
H2691 C2688 0.929 . S
S2692 N2693 1.613 . S
S2692 N2694 1.610 . S
N2693 S2692 1.613 . S
N2693 C2696 1.350 . S
N2694 S2692 1.610 . S
N2694 C2695 1.351 . S
C2695 C2689 1.428 . S
C2695 N2694 1.351 . S
C2695 C2696 1.434 . S
C2696 C2687 1.429 . S
C2696 N2693 1.350 . S
C2696 C2695 1.434 . S
C2697 C2698 1.369 . S
C2697 C2699 1.419 . S
C2697 H2701 0.930 . S
C2698 C2697 1.369 . S
C2698 C2707 1.429 . S
C2699 C2697 1.419 . S
C2699 C2700 1.363 . S
C2699 H2702 0.929 . S
C2700 C2699 1.363 . S
C2700 C2706 1.428 . S
H2701 C2697 0.930 . S
H2702 C2699 0.929 . S
S2703 N2704 1.613 . S
S2703 N2705 1.610 . S
N2704 S2703 1.613 . S
N2704 C2707 1.350 . S
N2705 S2703 1.610 . S
N2705 C2706 1.351 . S
C2706 C2700 1.428 . S
C2706 N2705 1.351 . S
C2706 C2707 1.434 . S
C2707 C2698 1.429 . S
C2707 N2704 1.350 . S
C2707 C2706 1.434 . S
C2708 C2709 1.369 . S
C2708 C2710 1.419 . S
C2708 H2712 0.930 . S
C2709 C2708 1.369 . S
C2709 C2718 1.429 . S
C2710 C2708 1.419 . S
C2710 C2711 1.363 . S
C2710 H2713 0.929 . S
C2711 C2710 1.363 . S
C2711 C2717 1.428 . S
H2712 C2708 0.930 . S
H2713 C2710 0.929 . S
S2714 N2715 1.613 . S
S2714 N2716 1.610 . S
N2715 S2714 1.613 . S
N2715 C2718 1.350 . S
N2716 S2714 1.610 . S
N2716 C2717 1.351 . S
C2717 C2711 1.428 . S
C2717 N2716 1.351 . S
C2717 C2718 1.434 . S
C2718 C2709 1.429 . S
C2718 N2715 1.350 . S
C2718 C2717 1.434 . S
C2719 C2720 1.369 . S
C2719 C2721 1.419 . S
C2719 H2723 0.930 . S
C2720 C2719 1.369 . S
C2720 C2729 1.429 . S
C2721 C2719 1.419 . S
C2721 C2722 1.363 . S
C2721 H2724 0.929 . S
C2722 C2721 1.363 . S
C2722 C2728 1.428 . S
H2723 C2719 0.930 . S
H2724 C2721 0.929 . S
S2725 N2726 1.613 . S
S2725 N2727 1.610 . S
N2726 S2725 1.613 . S
N2726 C2729 1.350 . S
N2727 S2725 1.610 . S
N2727 C2728 1.351 . S
C2728 C2722 1.428 . S
C2728 N2727 1.351 . S
C2728 C2729 1.434 . S
C2729 C2720 1.429 . S
C2729 N2726 1.350 . S
C2729 C2728 1.434 . S
C2730 C2731 1.369 . S
C2730 C2732 1.419 . S
C2730 H2734 0.930 . S
C2731 C2730 1.369 . S
C2731 C2740 1.429 . S
C2732 C2730 1.419 . S
C2732 C2733 1.363 . S
C2732 H2735 0.929 . S
C2733 C2732 1.363 . S
C2733 C2739 1.428 . S
H2734 C2730 0.930 . S
H2735 C2732 0.929 . S
S2736 N2737 1.613 . S
S2736 N2738 1.610 . S
N2737 S2736 1.613 . S
N2737 C2740 1.350 . S
N2738 S2736 1.610 . S
N2738 C2739 1.351 . S
C2739 C2733 1.428 . S
C2739 N2738 1.351 . S
C2739 C2740 1.434 . S
C2740 C2731 1.429 . S
C2740 N2737 1.350 . S
C2740 C2739 1.434 . S
C2741 C2742 1.369 . S
C2741 C2743 1.419 . S
C2741 H2745 0.930 . S
C2742 C2741 1.369 . S
C2742 C2751 1.429 . S
C2743 C2741 1.419 . S
C2743 C2744 1.363 . S
C2743 H2746 0.929 . S
C2744 C2743 1.363 . S
C2744 C2750 1.428 . S
H2745 C2741 0.930 . S
H2746 C2743 0.929 . S
S2747 N2748 1.613 . S
S2747 N2749 1.610 . S
N2748 S2747 1.613 . S
N2748 C2751 1.350 . S
N2749 S2747 1.610 . S
N2749 C2750 1.351 . S
C2750 C2744 1.428 . S
C2750 N2749 1.351 . S
C2750 C2751 1.434 . S
C2751 C2742 1.429 . S
C2751 N2748 1.350 . S
C2751 C2750 1.434 . S
C2752 C2753 1.369 . S
C2752 C2754 1.419 . S
C2752 H2756 0.930 . S
C2753 C2752 1.369 . S
C2753 C2762 1.429 . S
C2754 C2752 1.419 . S
C2754 C2755 1.363 . S
C2754 H2757 0.929 . S
C2755 C2754 1.363 . S
C2755 C2761 1.428 . S
H2756 C2752 0.930 . S
H2757 C2754 0.929 . S
S2758 N2759 1.613 . S
S2758 N2760 1.610 . S
N2759 S2758 1.613 . S
N2759 C2762 1.350 . S
N2760 S2758 1.610 . S
N2760 C2761 1.351 . S
C2761 C2755 1.428 . S
C2761 N2760 1.351 . S
C2761 C2762 1.434 . S
C2762 C2753 1.429 . S
C2762 N2759 1.350 . S
C2762 C2761 1.434 . S
C2763 C2764 1.369 . S
C2763 C2765 1.419 . S
C2763 H2767 0.930 . S
C2764 C2763 1.369 . S
C2764 C2773 1.429 . S
C2765 C2763 1.419 . S
C2765 C2766 1.363 . S
C2765 H2768 0.929 . S
C2766 C2765 1.363 . S
C2766 C2772 1.428 . S
H2767 C2763 0.930 . S
H2768 C2765 0.929 . S
S2769 N2770 1.613 . S
S2769 N2771 1.610 . S
N2770 S2769 1.613 . S
N2770 C2773 1.350 . S
N2771 S2769 1.610 . S
N2771 C2772 1.351 . S
C2772 C2766 1.428 . S
C2772 N2771 1.351 . S
C2772 C2773 1.434 . S
C2773 C2764 1.429 . S
C2773 N2770 1.350 . S
C2773 C2772 1.434 . S
C2774 C2775 1.369 . S
C2774 C2776 1.419 . S
C2774 H2778 0.930 . S
C2775 C2774 1.369 . S
C2775 C2784 1.429 . S
C2776 C2774 1.419 . S
C2776 C2777 1.363 . S
C2776 H2779 0.929 . S
C2777 C2776 1.363 . S
C2777 C2783 1.428 . S
H2778 C2774 0.930 . S
H2779 C2776 0.929 . S
S2780 N2781 1.613 . S
S2780 N2782 1.610 . S
N2781 S2780 1.613 . S
N2781 C2784 1.350 . S
N2782 S2780 1.610 . S
N2782 C2783 1.351 . S
C2783 C2777 1.428 . S
C2783 N2782 1.351 . S
C2783 C2784 1.434 . S
C2784 C2775 1.429 . S
C2784 N2781 1.350 . S
C2784 C2783 1.434 . S
C2785 C2786 1.369 . S
C2785 C2787 1.419 . S
C2785 H2789 0.930 . S
C2786 C2785 1.369 . S
C2786 C2795 1.429 . S
C2787 C2785 1.419 . S
C2787 C2788 1.363 . S
C2787 H2790 0.929 . S
C2788 C2787 1.363 . S
C2788 C2794 1.428 . S
H2789 C2785 0.930 . S
H2790 C2787 0.929 . S
S2791 N2792 1.613 . S
S2791 N2793 1.610 . S
N2792 S2791 1.613 . S
N2792 C2795 1.350 . S
N2793 S2791 1.610 . S
N2793 C2794 1.351 . S
C2794 C2788 1.428 . S
C2794 N2793 1.351 . S
C2794 C2795 1.434 . S
C2795 C2786 1.429 . S
C2795 N2792 1.350 . S
C2795 C2794 1.434 . S
C2796 C2797 1.369 . S
C2796 C2798 1.419 . S
C2796 H2800 0.930 . S
C2797 C2796 1.369 . S
C2797 C2806 1.429 . S
C2798 C2796 1.419 . S
C2798 C2799 1.363 . S
C2798 H2801 0.929 . S
C2799 C2798 1.363 . S
C2799 C2805 1.428 . S
H2800 C2796 0.930 . S
H2801 C2798 0.929 . S
S2802 N2803 1.613 . S
S2802 N2804 1.610 . S
N2803 S2802 1.613 . S
N2803 C2806 1.350 . S
N2804 S2802 1.610 . S
N2804 C2805 1.351 . S
C2805 C2799 1.428 . S
C2805 N2804 1.351 . S
C2805 C2806 1.434 . S
C2806 C2797 1.429 . S
C2806 N2803 1.350 . S
C2806 C2805 1.434 . S
C2807 C2808 1.369 . S
C2807 C2809 1.419 . S
C2807 H2811 0.930 . S
C2808 C2807 1.369 . S
C2808 C2817 1.429 . S
C2809 C2807 1.419 . S
C2809 C2810 1.363 . S
C2809 H2812 0.929 . S
C2810 C2809 1.363 . S
C2810 C2816 1.428 . S
H2811 C2807 0.930 . S
H2812 C2809 0.929 . S
S2813 N2814 1.613 . S
S2813 N2815 1.610 . S
N2814 S2813 1.613 . S
N2814 C2817 1.350 . S
N2815 S2813 1.610 . S
N2815 C2816 1.351 . S
C2816 C2810 1.428 . S
C2816 N2815 1.351 . S
C2816 C2817 1.434 . S
C2817 C2808 1.429 . S
C2817 N2814 1.350 . S
C2817 C2816 1.434 . S
C2818 C2819 1.369 . S
C2818 C2820 1.419 . S
C2818 H2822 0.930 . S
C2819 C2818 1.369 . S
C2819 C2828 1.429 . S
C2820 C2818 1.419 . S
C2820 C2821 1.363 . S
C2820 H2823 0.929 . S
C2821 C2820 1.363 . S
C2821 C2827 1.428 . S
H2822 C2818 0.930 . S
H2823 C2820 0.929 . S
S2824 N2825 1.613 . S
S2824 N2826 1.610 . S
N2825 S2824 1.613 . S
N2825 C2828 1.350 . S
N2826 S2824 1.610 . S
N2826 C2827 1.351 . S
C2827 C2821 1.428 . S
C2827 N2826 1.351 . S
C2827 C2828 1.434 . S
C2828 C2819 1.429 . S
C2828 N2825 1.350 . S
C2828 C2827 1.434 . S
C2829 C2830 1.369 . S
C2829 C2831 1.419 . S
C2829 H2833 0.930 . S
C2830 C2829 1.369 . S
C2830 C2839 1.429 . S
C2831 C2829 1.419 . S
C2831 C2832 1.363 . S
C2831 H2834 0.929 . S
C2832 C2831 1.363 . S
C2832 C2838 1.428 . S
H2833 C2829 0.930 . S
H2834 C2831 0.929 . S
S2835 N2836 1.613 . S
S2835 N2837 1.610 . S
N2836 S2835 1.613 . S
N2836 C2839 1.350 . S
N2837 S2835 1.610 . S
N2837 C2838 1.351 . S
C2838 C2832 1.428 . S
C2838 N2837 1.351 . S
C2838 C2839 1.434 . S
C2839 C2830 1.429 . S
C2839 N2836 1.350 . S
C2839 C2838 1.434 . S
C2840 C2841 1.369 . S
C2840 C2842 1.419 . S
C2840 H2844 0.930 . S
C2841 C2840 1.369 . S
C2841 C2850 1.429 . S
C2842 C2840 1.419 . S
C2842 C2843 1.363 . S
C2842 H2845 0.929 . S
C2843 C2842 1.363 . S
C2843 C2849 1.428 . S
H2844 C2840 0.930 . S
H2845 C2842 0.929 . S
S2846 N2847 1.613 . S
S2846 N2848 1.610 . S
N2847 S2846 1.613 . S
N2847 C2850 1.350 . S
N2848 S2846 1.610 . S
N2848 C2849 1.351 . S
C2849 C2843 1.428 . S
C2849 N2848 1.351 . S
C2849 C2850 1.434 . S
C2850 C2841 1.429 . S
C2850 N2847 1.350 . S
C2850 C2849 1.434 . S
C2851 C2852 1.369 . S
C2851 C2853 1.419 . S
C2851 H2855 0.930 . S
C2852 C2851 1.369 . S
C2852 C2861 1.429 . S
C2853 C2851 1.419 . S
C2853 C2854 1.363 . S
C2853 H2856 0.929 . S
C2854 C2853 1.363 . S
C2854 C2860 1.428 . S
H2855 C2851 0.930 . S
H2856 C2853 0.929 . S
S2857 N2858 1.613 . S
S2857 N2859 1.610 . S
N2858 S2857 1.613 . S
N2858 C2861 1.350 . S
N2859 S2857 1.610 . S
N2859 C2860 1.351 . S
C2860 C2854 1.428 . S
C2860 N2859 1.351 . S
C2860 C2861 1.434 . S
C2861 C2852 1.429 . S
C2861 N2858 1.350 . S
C2861 C2860 1.434 . S
C2862 C2863 1.369 . S
C2862 C2864 1.419 . S
C2862 H2866 0.930 . S
C2863 C2862 1.369 . S
C2863 C2872 1.429 . S
C2864 C2862 1.419 . S
C2864 C2865 1.363 . S
C2864 H2867 0.929 . S
C2865 C2864 1.363 . S
C2865 C2871 1.428 . S
H2866 C2862 0.930 . S
H2867 C2864 0.929 . S
S2868 N2869 1.613 . S
S2868 N2870 1.610 . S
N2869 S2868 1.613 . S
N2869 C2872 1.350 . S
N2870 S2868 1.610 . S
N2870 C2871 1.351 . S
C2871 C2865 1.428 . S
C2871 N2870 1.351 . S
C2871 C2872 1.434 . S
C2872 C2863 1.429 . S
C2872 N2869 1.350 . S
C2872 C2871 1.434 . S
C2873 C2874 1.369 . S
C2873 C2875 1.419 . S
C2873 H2877 0.930 . S
C2874 C2873 1.369 . S
C2874 C2883 1.429 . S
C2875 C2873 1.419 . S
C2875 C2876 1.363 . S
C2875 H2878 0.929 . S
C2876 C2875 1.363 . S
C2876 C2882 1.428 . S
H2877 C2873 0.930 . S
H2878 C2875 0.929 . S
S2879 N2880 1.613 . S
S2879 N2881 1.610 . S
N2880 S2879 1.613 . S
N2880 C2883 1.350 . S
N2881 S2879 1.610 . S
N2881 C2882 1.351 . S
C2882 C2876 1.428 . S
C2882 N2881 1.351 . S
C2882 C2883 1.434 . S
C2883 C2874 1.429 . S
C2883 N2880 1.350 . S
C2883 C2882 1.434 . S
C2884 C2885 1.369 . S
C2884 C2886 1.419 . S
C2884 H2888 0.930 . S
C2885 C2884 1.369 . S
C2885 C2894 1.429 . S
C2886 C2884 1.419 . S
C2886 C2887 1.363 . S
C2886 H2889 0.929 . S
C2887 C2886 1.363 . S
C2887 C2893 1.428 . S
H2888 C2884 0.930 . S
H2889 C2886 0.929 . S
S2890 N2891 1.613 . S
S2890 N2892 1.610 . S
N2891 S2890 1.613 . S
N2891 C2894 1.350 . S
N2892 S2890 1.610 . S
N2892 C2893 1.351 . S
C2893 C2887 1.428 . S
C2893 N2892 1.351 . S
C2893 C2894 1.434 . S
C2894 C2885 1.429 . S
C2894 N2891 1.350 . S
C2894 C2893 1.434 . S
C2895 C2896 1.369 . S
C2895 C2897 1.419 . S
C2895 H2899 0.930 . S
C2896 C2895 1.369 . S
C2896 C2905 1.429 . S
C2897 C2895 1.419 . S
C2897 C2898 1.363 . S
C2897 H2900 0.929 . S
C2898 C2897 1.363 . S
C2898 C2904 1.428 . S
H2899 C2895 0.930 . S
H2900 C2897 0.929 . S
S2901 N2902 1.613 . S
S2901 N2903 1.610 . S
N2902 S2901 1.613 . S
N2902 C2905 1.350 . S
N2903 S2901 1.610 . S
N2903 C2904 1.351 . S
C2904 C2898 1.428 . S
C2904 N2903 1.351 . S
C2904 C2905 1.434 . S
C2905 C2896 1.429 . S
C2905 N2902 1.350 . S
C2905 C2904 1.434 . S
C2906 C2907 1.369 . S
C2906 C2908 1.419 . S
C2906 H2910 0.930 . S
C2907 C2906 1.369 . S
C2907 C2916 1.429 . S
C2908 C2906 1.419 . S
C2908 C2909 1.363 . S
C2908 H2911 0.929 . S
C2909 C2908 1.363 . S
C2909 C2915 1.428 . S
H2910 C2906 0.930 . S
H2911 C2908 0.929 . S
S2912 N2913 1.613 . S
S2912 N2914 1.610 . S
N2913 S2912 1.613 . S
N2913 C2916 1.350 . S
N2914 S2912 1.610 . S
N2914 C2915 1.351 . S
C2915 C2909 1.428 . S
C2915 N2914 1.351 . S
C2915 C2916 1.434 . S
C2916 C2907 1.429 . S
C2916 N2913 1.350 . S
C2916 C2915 1.434 . S
C2917 C2918 1.369 . S
C2917 C2919 1.419 . S
C2917 H2921 0.930 . S
C2918 C2917 1.369 . S
C2918 C2927 1.429 . S
C2919 C2917 1.419 . S
C2919 C2920 1.363 . S
C2919 H2922 0.929 . S
C2920 C2919 1.363 . S
C2920 C2926 1.428 . S
H2921 C2917 0.930 . S
H2922 C2919 0.929 . S
S2923 N2924 1.613 . S
S2923 N2925 1.610 . S
N2924 S2923 1.613 . S
N2924 C2927 1.350 . S
N2925 S2923 1.610 . S
N2925 C2926 1.351 . S
C2926 C2920 1.428 . S
C2926 N2925 1.351 . S
C2926 C2927 1.434 . S
C2927 C2918 1.429 . S
C2927 N2924 1.350 . S
C2927 C2926 1.434 . S
C2928 C2929 1.369 . S
C2928 C2930 1.419 1_655 S
C2928 H2932 0.930 . S
C2929 C2928 1.369 . S
C2929 C2938 1.429 . S
C2930 C2928 1.419 1_455 S
C2930 C2931 1.363 . S
C2930 H2933 0.929 . S
C2931 C2930 1.363 . S
C2931 C2937 1.428 . S
H2932 C2928 0.930 . S
H2933 C2930 0.929 . S
S2934 N2935 1.613 1_455 S
S2934 N2936 1.610 . S
N2935 S2934 1.613 1_655 S
N2935 C2938 1.350 . S
N2936 S2934 1.610 . S
N2936 C2937 1.351 . S
C2937 C2931 1.428 . S
C2937 N2936 1.351 . S
C2937 C2938 1.434 1_455 S
C2938 C2929 1.429 . S
C2938 N2935 1.350 . S
C2938 C2937 1.434 1_655 S
C2939 C2940 1.369 . S
C2939 C2941 1.419 1_545 S
C2939 H2943 0.930 . S
C2940 C2939 1.369 . S
C2940 C2949 1.429 . S
C2941 C2939 1.419 1_565 S
C2941 C2942 1.363 . S
C2941 H2944 0.929 . S
C2942 C2941 1.363 . S
C2942 C2948 1.428 . S
H2943 C2939 0.930 . S
H2944 C2941 0.929 . S
S2945 N2946 1.613 1_565 S
S2945 N2947 1.610 . S
N2946 S2945 1.613 1_545 S
N2946 C2949 1.350 . S
N2947 S2945 1.610 . S
N2947 C2948 1.351 . S
C2948 C2942 1.428 . S
C2948 N2947 1.351 . S
C2948 C2949 1.434 1_565 S
C2949 C2940 1.429 . S
C2949 N2946 1.350 . S
C2949 C2948 1.434 1_545 S
C2950 C2951 1.369 . S
C2950 C2952 1.419 1_455 S
C2950 H2954 0.930 . S
C2951 C2950 1.369 . S
C2951 C2960 1.429 . S
C2952 C2950 1.419 1_655 S
C2952 C2953 1.363 . S
C2952 H2955 0.929 . S
C2953 C2952 1.363 . S
C2953 C2959 1.428 . S
H2954 C2950 0.930 . S
H2955 C2952 0.929 . S
S2956 N2957 1.613 1_655 S
S2956 N2958 1.610 . S
N2957 S2956 1.613 1_455 S
N2957 C2960 1.350 . S
N2958 S2956 1.610 . S
N2958 C2959 1.351 . S
C2959 C2953 1.428 . S
C2959 N2958 1.351 . S
C2959 C2960 1.434 1_655 S
C2960 C2951 1.429 . S
C2960 N2957 1.350 . S
C2960 C2959 1.434 1_455 S
C2961 C2962 1.369 . S
C2961 C2963 1.419 1_565 S
C2961 H2965 0.930 . S
C2962 C2961 1.369 . S
C2962 C2971 1.429 . S
C2963 C2961 1.419 1_545 S
C2963 C2964 1.363 . S
C2963 H2966 0.929 . S
C2964 C2963 1.363 . S
C2964 C2970 1.428 . S
H2965 C2961 0.930 . S
H2966 C2963 0.929 . S
S2967 N2968 1.613 . S
S2967 N2969 1.610 1_565 S
N2968 S2967 1.613 . S
N2968 C2971 1.350 . S
N2969 S2967 1.610 1_545 S
N2969 C2970 1.351 . S
C2970 C2964 1.428 . S
C2970 N2969 1.351 . S
C2970 C2971 1.434 1_545 S
C2971 C2962 1.429 . S
C2971 N2968 1.350 . S
C2971 C2970 1.434 1_565 S
C2972 C2973 1.369 . S
C2972 C2974 1.419 1_655 S
C2972 H2976 0.930 . S
C2973 C2972 1.369 . S
C2973 C2982 1.429 . S
C2974 C2972 1.419 1_455 S
C2974 C2975 1.363 . S
C2974 H2977 0.929 . S
C2975 C2974 1.363 . S
C2975 C2981 1.428 . S
H2976 C2972 0.930 . S
H2977 C2974 0.929 . S
S2978 N2979 1.613 . S
S2978 N2980 1.610 1_655 S
N2979 S2978 1.613 . S
N2979 C2982 1.350 . S
N2980 S2978 1.610 1_455 S
N2980 C2981 1.351 . S
C2981 C2975 1.428 . S
C2981 N2980 1.351 . S
C2981 C2982 1.434 1_455 S
C2982 C2973 1.429 . S
C2982 N2979 1.350 . S
C2982 C2981 1.434 1_655 S
C2983 C2984 1.369 . S
C2983 C2985 1.419 1_565 S
C2983 H2987 0.930 . S
C2984 C2983 1.369 . S
C2984 C2993 1.429 . S
C2985 C2983 1.419 1_545 S
C2985 C2986 1.363 . S
C2985 H2988 0.929 . S
C2986 C2985 1.363 . S
C2986 C2992 1.428 . S
H2987 C2983 0.930 . S
H2988 C2985 0.929 . S
S2989 N2990 1.613 . S
S2989 N2991 1.610 1_565 S
N2990 S2989 1.613 . S
N2990 C2993 1.350 . S
N2991 S2989 1.610 1_545 S
N2991 C2992 1.351 . S
C2992 C2986 1.428 . S
C2992 N2991 1.351 . S
C2992 C2993 1.434 1_545 S
C2993 C2984 1.429 . S
C2993 N2990 1.350 . S
C2993 C2992 1.434 1_565 S
C2994 C2995 1.369 . S
C2994 C2996 1.419 1_655 S
C2994 H2998 0.930 . S
C2995 C2994 1.369 . S
C2995 C3004 1.429 . S
C2996 C2994 1.419 1_455 S
C2996 C2997 1.363 . S
C2996 H2999 0.929 . S
C2997 C2996 1.363 . S
C2997 C3003 1.428 . S
H2998 C2994 0.930 . S
H2999 C2996 0.929 . S
S3000 N3001 1.613 1_455 S
S3000 N3002 1.610 . S
N3001 S3000 1.613 1_655 S
N3001 C3004 1.350 . S
N3002 S3000 1.610 . S
N3002 C3003 1.351 . S
C3003 C2997 1.428 . S
C3003 N3002 1.351 . S
C3003 C3004 1.434 1_455 S
C3004 C2995 1.429 . S
C3004 N3001 1.350 . S
C3004 C3003 1.434 1_655 S
C3005 C3006 1.369 . S
C3005 C3007 1.419 1_565 S
C3005 H3009 0.930 . S
C3006 C3005 1.369 . S
C3006 C3015 1.429 . S
C3007 C3005 1.419 1_545 S
C3007 C3008 1.363 . S
C3007 H3010 0.929 . S
C3008 C3007 1.363 . S
C3008 C3014 1.428 . S
H3009 C3005 0.930 . S
H3010 C3007 0.929 . S
S3011 N3012 1.613 1_545 S
S3011 N3013 1.610 . S
N3012 S3011 1.613 1_565 S
N3012 C3015 1.350 . S
N3013 S3011 1.610 . S
N3013 C3014 1.351 . S
C3014 C3008 1.428 . S
C3014 N3013 1.351 . S
C3014 C3015 1.434 1_545 S
C3015 C3006 1.429 . S
C3015 N3012 1.350 . S
C3015 C3014 1.434 1_565 S
C3016 C3017 1.369 . S
C3016 C3018 1.419 1_565 S
C3016 H3020 0.930 . S
C3017 C3016 1.369 . S
C3017 C3026 1.429 . S
C3018 C3016 1.419 1_545 S
C3018 C3019 1.363 . S
C3018 H3021 0.929 . S
C3019 C3018 1.363 . S
C3019 C3025 1.428 . S
H3020 C3016 0.930 . S
H3021 C3018 0.929 . S
S3022 N3023 1.613 1_545 S
S3022 N3024 1.610 . S
N3023 S3022 1.613 1_565 S
N3023 C3026 1.350 . S
N3024 S3022 1.610 . S
N3024 C3025 1.351 . S
C3025 C3019 1.428 . S
C3025 N3024 1.351 . S
C3025 C3026 1.434 1_545 S
C3026 C3017 1.429 . S
C3026 N3023 1.350 . S
C3026 C3025 1.434 1_565 S
C3027 C3028 1.369 . S
C3027 C3029 1.419 1_655 S
C3027 H3031 0.930 . S
C3028 C3027 1.369 . S
C3028 C3037 1.429 . S
C3029 C3027 1.419 1_455 S
C3029 C3030 1.363 . S
C3029 H3032 0.929 . S
C3030 C3029 1.363 . S
C3030 C3036 1.428 . S
H3031 C3027 0.930 . S
H3032 C3029 0.929 . S
S3033 N3034 1.613 1_455 S
S3033 N3035 1.610 . S
N3034 S3033 1.613 1_655 S
N3034 C3037 1.350 . S
N3035 S3033 1.610 . S
N3035 C3036 1.351 . S
C3036 C3030 1.428 . S
C3036 N3035 1.351 . S
C3036 C3037 1.434 1_455 S
C3037 C3028 1.429 . S
C3037 N3034 1.350 . S
C3037 C3036 1.434 1_655 S
C3038 C3039 1.369 . S
C3038 C3040 1.419 1_565 S
C3038 H3042 0.930 . S
C3039 C3038 1.369 . S
C3039 C3048 1.429 . S
C3040 C3038 1.419 1_545 S
C3040 C3041 1.363 . S
C3040 H3043 0.929 . S
C3041 C3040 1.363 . S
C3041 C3047 1.428 . S
H3042 C3038 0.930 . S
H3043 C3040 0.929 . S
S3044 N3045 1.613 1_545 S
S3044 N3046 1.610 . S
N3045 S3044 1.613 1_565 S
N3045 C3048 1.350 . S
N3046 S3044 1.610 . S
N3046 C3047 1.351 . S
C3047 C3041 1.428 . S
C3047 N3046 1.351 . S
C3047 C3048 1.434 1_545 S
C3048 C3039 1.429 . S
C3048 N3045 1.350 . S
C3048 C3047 1.434 1_565 S
C3049 C3050 1.369 . S
C3049 C3051 1.419 1_655 S
C3049 H3053 0.930 . S
C3050 C3049 1.369 . S
C3050 C3059 1.429 . S
C3051 C3049 1.419 1_455 S
C3051 C3052 1.363 . S
C3051 H3054 0.929 . S
C3052 C3051 1.363 . S
C3052 C3058 1.428 . S
H3053 C3049 0.930 . S
H3054 C3051 0.929 . S
S3055 N3056 1.613 . S
S3055 N3057 1.610 1_655 S
N3056 S3055 1.613 . S
N3056 C3059 1.350 . S
N3057 S3055 1.610 1_455 S
N3057 C3058 1.351 . S
C3058 C3052 1.428 . S
C3058 N3057 1.351 . S
C3058 C3059 1.434 1_455 S
C3059 C3050 1.429 . S
C3059 N3056 1.350 . S
C3059 C3058 1.434 1_655 S
C3060 C3061 1.369 . S
C3060 C3062 1.419 1_565 S
C3060 H3064 0.930 . S
C3061 C3060 1.369 . S
C3061 C3070 1.429 . S
C3062 C3060 1.419 1_545 S
C3062 C3063 1.363 . S
C3062 H3065 0.929 . S
C3063 C3062 1.363 . S
C3063 C3069 1.428 . S
H3064 C3060 0.930 . S
H3065 C3062 0.929 . S
S3066 N3067 1.613 1_545 S
S3066 N3068 1.610 . S
N3067 S3066 1.613 1_565 S
N3067 C3070 1.350 . S
N3068 S3066 1.610 . S
N3068 C3069 1.351 . S
C3069 C3063 1.428 . S
C3069 N3068 1.351 . S
C3069 C3070 1.434 1_545 S
C3070 C3061 1.429 . S
C3070 N3067 1.350 . S
C3070 C3069 1.434 1_565 S
C3071 C3072 1.369 . S
C3071 C3073 1.419 1_655 S
C3071 H3075 0.930 . S
C3072 C3071 1.369 . S
C3072 C3081 1.429 . S
C3073 C3071 1.419 1_455 S
C3073 C3074 1.363 . S
C3073 H3076 0.929 . S
C3074 C3073 1.363 . S
C3074 C3080 1.428 . S
H3075 C3071 0.930 . S
H3076 C3073 0.929 . S
S3077 N3078 1.613 1_455 S
S3077 N3079 1.610 . S
N3078 S3077 1.613 1_655 S
N3078 C3081 1.350 . S
N3079 S3077 1.610 . S
N3079 C3080 1.351 . S
C3080 C3074 1.428 . S
C3080 N3079 1.351 . S
C3080 C3081 1.434 1_455 S
C3081 C3072 1.429 . S
C3081 N3078 1.350 . S
C3081 C3080 1.434 1_655 S
C3082 C3083 1.369 . S
C3082 C3084 1.419 1_565 S
C3082 H3086 0.930 . S
C3083 C3082 1.369 . S
C3083 C3092 1.429 . S
C3084 C3082 1.419 1_545 S
C3084 C3085 1.363 . S
C3084 H3087 0.929 . S
C3085 C3084 1.363 . S
C3085 C3091 1.428 . S
H3086 C3082 0.930 . S
H3087 C3084 0.929 . S
S3088 N3089 1.613 . S
S3088 N3090 1.610 1_565 S
N3089 S3088 1.613 . S
N3089 C3092 1.350 . S
N3090 S3088 1.610 1_545 S
N3090 C3091 1.351 . S
C3091 C3085 1.428 . S
C3091 N3090 1.351 . S
C3091 C3092 1.434 1_545 S
C3092 C3083 1.429 . S
C3092 N3089 1.350 . S
C3092 C3091 1.434 1_565 S
C3093 C3094 1.369 . S
C3093 C3095 1.419 1_455 S
C3093 H3097 0.930 . S
C3094 C3093 1.369 . S
C3094 C3103 1.429 . S
C3095 C3093 1.419 1_655 S
C3095 C3096 1.363 . S
C3095 H3098 0.929 . S
C3096 C3095 1.363 . S
C3096 C3102 1.428 . S
H3097 C3093 0.930 . S
H3098 C3095 0.929 . S
S3099 N3100 1.613 1_655 S
S3099 N3101 1.610 . S
N3100 S3099 1.613 1_455 S
N3100 C3103 1.350 . S
N3101 S3099 1.610 . S
N3101 C3102 1.351 . S
C3102 C3096 1.428 . S
C3102 N3101 1.351 . S
C3102 C3103 1.434 1_655 S
C3103 C3094 1.429 . S
C3103 N3100 1.350 . S
C3103 C3102 1.434 1_455 S
C3104 C3105 1.369 . S
C3104 C3106 1.419 1_554 S
C3104 H3108 0.930 . S
C3105 C3104 1.369 . S
C3105 C3114 1.429 . S
C3106 C3104 1.419 1_556 S
C3106 C3107 1.363 . S
C3106 H3109 0.929 . S
C3107 C3106 1.363 . S
C3107 C3113 1.428 . S
H3108 C3104 0.930 . S
H3109 C3106 0.929 . S
S3110 N3111 1.613 1_556 S
S3110 N3112 1.610 . S
N3111 S3110 1.613 1_554 S
N3111 C3114 1.350 . S
N3112 S3110 1.610 . S
N3112 C3113 1.351 . S
C3113 C3107 1.428 . S
C3113 N3112 1.351 . S
C3113 C3114 1.434 1_556 S
C3114 C3105 1.429 . S
C3114 N3111 1.350 . S
C3114 C3113 1.434 1_554 S
C3115 C3116 1.369 . S
C3115 C3117 1.419 1_554 S
C3115 H3119 0.930 . S
C3116 C3115 1.369 . S
C3116 C3125 1.429 . S
C3117 C3115 1.419 1_556 S
C3117 C3118 1.363 . S
C3117 H3120 0.929 . S
C3118 C3117 1.363 . S
C3118 C3124 1.428 . S
H3119 C3115 0.930 . S
H3120 C3117 0.929 . S
S3121 N3122 1.612 . S
S3121 N3123 1.612 1_554 S
N3122 S3121 1.612 . S
N3122 C3125 1.350 . S
N3123 S3121 1.612 1_556 S
N3123 C3124 1.351 . S
C3124 C3118 1.428 . S
C3124 N3123 1.351 . S
C3124 C3125 1.434 1_556 S
C3125 C3116 1.429 . S
C3125 N3122 1.350 . S
C3125 C3124 1.434 1_554 S
C3126 C3127 1.369 . S
C3126 C3128 1.419 1_554 S
C3126 H3130 0.930 . S
C3127 C3126 1.369 . S
C3127 C3136 1.429 . S
C3128 C3126 1.419 1_556 S
C3128 C3129 1.363 . S
C3128 H3131 0.929 . S
C3129 C3128 1.363 . S
C3129 C3135 1.428 . S
H3130 C3126 0.930 . S
H3131 C3128 0.929 . S
S3132 N3133 1.613 . S
S3132 N3134 1.610 1_554 S
N3133 S3132 1.613 . S
N3133 C3136 1.350 . S
N3134 S3132 1.610 1_556 S
N3134 C3135 1.351 . S
C3135 C3129 1.428 . S
C3135 N3134 1.351 . S
C3135 C3136 1.434 1_556 S
C3136 C3127 1.429 . S
C3136 N3133 1.350 . S
C3136 C3135 1.434 1_554 S
C3137 C3138 1.369 . S
C3137 C3139 1.419 1_554 S
C3137 H3141 0.930 . S
C3138 C3137 1.369 . S
C3138 C3147 1.429 . S
C3139 C3137 1.419 1_556 S
C3139 C3140 1.363 . S
C3139 H3142 0.929 . S
C3140 C3139 1.363 . S
C3140 C3146 1.428 . S
H3141 C3137 0.930 . S
H3142 C3139 0.929 . S
S3143 N3144 1.613 . S
S3143 N3145 1.610 1_554 S
N3144 S3143 1.613 . S
N3144 C3147 1.350 . S
N3145 S3143 1.610 1_556 S
N3145 C3146 1.351 . S
C3146 C3140 1.428 . S
C3146 N3145 1.351 . S
C3146 C3147 1.434 1_556 S
C3147 C3138 1.429 . S
C3147 N3144 1.350 . S
C3147 C3146 1.434 1_554 S
C3148 C3149 1.369 . S
C3148 C3150 1.419 1_556 S
C3148 H3152 0.930 . S
C3149 C3148 1.369 . S
C3149 C3158 1.429 . S
C3150 C3148 1.419 1_554 S
C3150 C3151 1.363 . S
C3150 H3153 0.929 . S
C3151 C3150 1.363 . S
C3151 C3157 1.428 . S
H3152 C3148 0.930 . S
H3153 C3150 0.929 . S
S3154 N3155 1.613 . S
S3154 N3156 1.610 1_556 S
N3155 S3154 1.613 . S
N3155 C3158 1.350 . S
N3156 S3154 1.610 1_554 S
N3156 C3157 1.351 . S
C3157 C3151 1.428 . S
C3157 N3156 1.351 . S
C3157 C3158 1.434 1_554 S
C3158 C3149 1.429 . S
C3158 N3155 1.350 . S
C3158 C3157 1.434 1_556 S
C3159 C3160 1.369 . S
C3159 C3161 1.419 1_554 S
C3159 H3163 0.930 . S
C3160 C3159 1.369 . S
C3160 C3169 1.429 . S
C3161 C3159 1.419 1_556 S
C3161 C3162 1.363 . S
C3161 H3164 0.929 . S
C3162 C3161 1.363 . S
C3162 C3168 1.428 . S
H3163 C3159 0.930 . S
H3164 C3161 0.929 . S
S3165 N3166 1.613 1_556 S
S3165 N3167 1.610 . S
N3166 S3165 1.613 1_554 S
N3166 C3169 1.350 . S
N3167 S3165 1.610 . S
N3167 C3168 1.351 . S
C3168 C3162 1.428 . S
C3168 N3167 1.351 . S
C3168 C3169 1.434 1_556 S
C3169 C3160 1.429 . S
C3169 N3166 1.350 . S
C3169 C3168 1.434 1_554 S
C3170 C3171 1.369 . S
C3170 C3172 1.419 1_556 S
C3170 H3174 0.930 . S
C3171 C3170 1.369 . S
C3171 C3180 1.429 . S
C3172 C3170 1.419 1_554 S
C3172 C3173 1.363 . S
C3172 H3175 0.929 . S
C3173 C3172 1.363 . S
C3173 C3179 1.428 . S
H3174 C3170 0.930 . S
H3175 C3172 0.929 . S
S3176 N3177 1.613 . S
S3176 N3178 1.610 1_556 S
N3177 S3176 1.613 . S
N3177 C3180 1.350 . S
N3178 S3176 1.610 1_554 S
N3178 C3179 1.351 . S
C3179 C3173 1.428 . S
C3179 N3178 1.351 . S
C3179 C3180 1.434 1_554 S
C3180 C3171 1.429 . S
C3180 N3177 1.350 . S
C3180 C3179 1.434 1_556 S
C3181 C3182 1.369 . S
C3181 C3183 1.419 1_554 S
C3181 H3185 0.930 . S
C3182 C3181 1.369 . S
C3182 C3191 1.429 . S
C3183 C3181 1.419 1_556 S
C3183 C3184 1.363 . S
C3183 H3186 0.929 . S
C3184 C3183 1.363 . S
C3184 C3190 1.428 . S
H3185 C3181 0.930 . S
H3186 C3183 0.929 . S
S3187 N3188 1.613 1_556 S
S3187 N3189 1.610 . S
N3188 S3187 1.613 1_554 S
N3188 C3191 1.350 . S
N3189 S3187 1.610 . S
N3189 C3190 1.351 . S
C3190 C3184 1.428 . S
C3190 N3189 1.351 . S
C3190 C3191 1.434 1_556 S
C3191 C3182 1.429 . S
C3191 N3188 1.350 . S
C3191 C3190 1.434 1_554 S
C3192 C3193 1.369 . S
C3192 C3194 1.419 . S
C3192 H3196 0.930 . S
C3193 C3192 1.369 . S
C3193 C3202 1.429 . S
C3194 C3192 1.419 . S
C3194 C3195 1.363 . S
C3194 H3197 0.929 . S
C3195 C3194 1.363 . S
C3195 C3201 1.428 . S
H3196 C3192 0.930 . S
H3197 C3194 0.929 . S
S3198 N3199 1.613 . S
S3198 N3200 1.610 . S
N3199 S3198 1.613 . S
N3199 C3202 1.350 . S
N3200 S3198 1.610 . S
N3200 C3201 1.351 . S
C3201 C3195 1.428 . S
C3201 N3200 1.351 . S
C3201 C3202 1.434 . S
C3202 C3193 1.429 . S
C3202 N3199 1.350 . S
C3202 C3201 1.434 . S
C3203 C3204 1.369 . S
C3203 C3205 1.419 . S
C3203 H3207 0.930 . S
C3204 C3203 1.369 . S
C3204 C3213 1.429 . S
C3205 C3203 1.419 . S
C3205 C3206 1.363 . S
C3205 H3208 0.929 . S
C3206 C3205 1.363 . S
C3206 C3212 1.428 . S
H3207 C3203 0.930 . S
H3208 C3205 0.929 . S
S3209 N3210 1.613 . S
S3209 N3211 1.610 . S
N3210 S3209 1.613 . S
N3210 C3213 1.350 . S
N3211 S3209 1.610 . S
N3211 C3212 1.351 . S
C3212 C3206 1.428 . S
C3212 N3211 1.351 . S
C3212 C3213 1.434 . S
C3213 C3204 1.429 . S
C3213 N3210 1.350 . S
C3213 C3212 1.434 . S
C3214 C3215 1.369 . S
C3214 C3216 1.419 . S
C3214 H3218 0.930 . S
C3215 C3214 1.369 . S
C3215 C3224 1.429 . S
C3216 C3214 1.419 . S
C3216 C3217 1.363 . S
C3216 H3219 0.929 . S
C3217 C3216 1.363 . S
C3217 C3223 1.428 . S
H3218 C3214 0.930 . S
H3219 C3216 0.929 . S
S3220 N3221 1.613 . S
S3220 N3222 1.610 . S
N3221 S3220 1.613 . S
N3221 C3224 1.350 . S
N3222 S3220 1.610 . S
N3222 C3223 1.351 . S
C3223 C3217 1.428 . S
C3223 N3222 1.351 . S
C3223 C3224 1.434 . S
C3224 C3215 1.429 . S
C3224 N3221 1.350 . S
C3224 C3223 1.434 . S
C3225 C3226 1.369 . S
C3225 C3227 1.419 . S
C3225 H3229 0.930 . S
C3226 C3225 1.369 . S
C3226 C3235 1.429 . S
C3227 C3225 1.419 . S
C3227 C3228 1.363 . S
C3227 H3230 0.929 . S
C3228 C3227 1.363 . S
C3228 C3234 1.428 . S
H3229 C3225 0.930 . S
H3230 C3227 0.929 . S
S3231 N3232 1.613 . S
S3231 N3233 1.610 . S
N3232 S3231 1.613 . S
N3232 C3235 1.350 . S
N3233 S3231 1.610 . S
N3233 C3234 1.351 . S
C3234 C3228 1.428 . S
C3234 N3233 1.351 . S
C3234 C3235 1.434 . S
C3235 C3226 1.429 . S
C3235 N3232 1.350 . S
C3235 C3234 1.434 . S
C3236 C3237 1.369 . S
C3236 C3238 1.419 . S
C3236 H3240 0.930 . S
C3237 C3236 1.369 . S
C3237 C3246 1.429 . S
C3238 C3236 1.419 . S
C3238 C3239 1.363 . S
C3238 H3241 0.929 . S
C3239 C3238 1.363 . S
C3239 C3245 1.428 . S
H3240 C3236 0.930 . S
H3241 C3238 0.929 . S
S3242 N3243 1.613 . S
S3242 N3244 1.610 . S
N3243 S3242 1.613 . S
N3243 C3246 1.350 . S
N3244 S3242 1.610 . S
N3244 C3245 1.351 . S
C3245 C3239 1.428 . S
C3245 N3244 1.351 . S
C3245 C3246 1.434 . S
C3246 C3237 1.429 . S
C3246 N3243 1.350 . S
C3246 C3245 1.434 . S
C3247 C3248 1.369 . S
C3247 C3249 1.419 . S
C3247 H3251 0.930 . S
C3248 C3247 1.369 . S
C3248 C3257 1.429 . S
C3249 C3247 1.419 . S
C3249 C3250 1.363 . S
C3249 H3252 0.929 . S
C3250 C3249 1.363 . S
C3250 C3256 1.428 . S
H3251 C3247 0.930 . S
H3252 C3249 0.929 . S
S3253 N3254 1.613 . S
S3253 N3255 1.610 . S
N3254 S3253 1.613 . S
N3254 C3257 1.350 . S
N3255 S3253 1.610 . S
N3255 C3256 1.351 . S
C3256 C3250 1.428 . S
C3256 N3255 1.351 . S
C3256 C3257 1.434 . S
C3257 C3248 1.429 . S
C3257 N3254 1.350 . S
C3257 C3256 1.434 . S
C3258 C3259 1.369 . S
C3258 C3260 1.419 . S
C3258 H3262 0.930 . S
C3259 C3258 1.369 . S
C3259 C3268 1.429 . S
C3260 C3258 1.419 . S
C3260 C3261 1.363 . S
C3260 H3263 0.929 . S
C3261 C3260 1.363 . S
C3261 C3267 1.428 . S
H3262 C3258 0.930 . S
H3263 C3260 0.929 . S
S3264 N3265 1.613 . S
S3264 N3266 1.610 . S
N3265 S3264 1.613 . S
N3265 C3268 1.350 . S
N3266 S3264 1.610 . S
N3266 C3267 1.351 . S
C3267 C3261 1.428 . S
C3267 N3266 1.351 . S
C3267 C3268 1.434 . S
C3268 C3259 1.429 . S
C3268 N3265 1.350 . S
C3268 C3267 1.434 . S
C3269 C3270 1.369 . S
C3269 C3271 1.419 . S
C3269 H3273 0.930 . S
C3270 C3269 1.369 . S
C3270 C3279 1.429 . S
C3271 C3269 1.419 . S
C3271 C3272 1.363 . S
C3271 H3274 0.929 . S
C3272 C3271 1.363 . S
C3272 C3278 1.428 . S
H3273 C3269 0.930 . S
H3274 C3271 0.929 . S
S3275 N3276 1.613 . S
S3275 N3277 1.610 . S
N3276 S3275 1.613 . S
N3276 C3279 1.350 . S
N3277 S3275 1.610 . S
N3277 C3278 1.351 . S
C3278 C3272 1.428 . S
C3278 N3277 1.351 . S
C3278 C3279 1.434 . S
C3279 C3270 1.429 . S
C3279 N3276 1.350 . S
C3279 C3278 1.434 . S
C3280 C3281 1.369 . S
C3280 C3282 1.419 . S
C3280 H3284 0.930 . S
C3281 C3280 1.369 . S
C3281 C3290 1.429 . S
C3282 C3280 1.419 . S
C3282 C3283 1.363 . S
C3282 H3285 0.929 . S
C3283 C3282 1.363 . S
C3283 C3289 1.428 . S
H3284 C3280 0.930 . S
H3285 C3282 0.929 . S
S3286 N3287 1.613 . S
S3286 N3288 1.610 . S
N3287 S3286 1.613 . S
N3287 C3290 1.350 . S
N3288 S3286 1.610 . S
N3288 C3289 1.351 . S
C3289 C3283 1.428 . S
C3289 N3288 1.351 . S
C3289 C3290 1.434 . S
C3290 C3281 1.429 . S
C3290 N3287 1.350 . S
C3290 C3289 1.434 . S
C3291 C3292 1.369 . S
C3291 C3293 1.419 . S
C3291 H3295 0.930 . S
C3292 C3291 1.369 . S
C3292 C3301 1.429 . S
C3293 C3291 1.419 . S
C3293 C3294 1.363 . S
C3293 H3296 0.929 . S
C3294 C3293 1.363 . S
C3294 C3300 1.428 . S
H3295 C3291 0.930 . S
H3296 C3293 0.929 . S
S3297 N3298 1.613 . S
S3297 N3299 1.610 . S
N3298 S3297 1.613 . S
N3298 C3301 1.350 . S
N3299 S3297 1.610 . S
N3299 C3300 1.351 . S
C3300 C3294 1.428 . S
C3300 N3299 1.351 . S
C3300 C3301 1.434 . S
C3301 C3292 1.429 . S
C3301 N3298 1.350 . S
C3301 C3300 1.434 . S
C3302 C3303 1.369 . S
C3302 C3304 1.419 . S
C3302 H3306 0.930 . S
C3303 C3302 1.369 . S
C3303 C3312 1.429 . S
C3304 C3302 1.419 . S
C3304 C3305 1.363 . S
C3304 H3307 0.929 . S
C3305 C3304 1.363 . S
C3305 C3311 1.428 . S
H3306 C3302 0.930 . S
H3307 C3304 0.929 . S
S3308 N3309 1.613 . S
S3308 N3310 1.610 . S
N3309 S3308 1.613 . S
N3309 C3312 1.350 . S
N3310 S3308 1.610 . S
N3310 C3311 1.351 . S
C3311 C3305 1.428 . S
C3311 N3310 1.351 . S
C3311 C3312 1.434 . S
C3312 C3303 1.429 . S
C3312 N3309 1.350 . S
C3312 C3311 1.434 . S
C3313 C3314 1.369 . S
C3313 C3315 1.419 . S
C3313 H3317 0.930 . S
C3314 C3313 1.369 . S
C3314 C3323 1.429 . S
C3315 C3313 1.419 . S
C3315 C3316 1.363 . S
C3315 H3318 0.929 . S
C3316 C3315 1.363 . S
C3316 C3322 1.428 . S
H3317 C3313 0.930 . S
H3318 C3315 0.929 . S
S3319 N3320 1.613 . S
S3319 N3321 1.610 . S
N3320 S3319 1.613 . S
N3320 C3323 1.350 . S
N3321 S3319 1.610 . S
N3321 C3322 1.351 . S
C3322 C3316 1.428 . S
C3322 N3321 1.351 . S
C3322 C3323 1.434 . S
C3323 C3314 1.429 . S
C3323 N3320 1.350 . S
C3323 C3322 1.434 . S
C3324 C3325 1.369 . S
C3324 C3326 1.419 . S
C3324 H3328 0.930 . S
C3325 C3324 1.369 . S
C3325 C3334 1.429 . S
C3326 C3324 1.419 . S
C3326 C3327 1.363 . S
C3326 H3329 0.929 . S
C3327 C3326 1.363 . S
C3327 C3333 1.428 . S
H3328 C3324 0.930 . S
H3329 C3326 0.929 . S
S3330 N3331 1.613 . S
S3330 N3332 1.610 . S
N3331 S3330 1.613 . S
N3331 C3334 1.350 . S
N3332 S3330 1.610 . S
N3332 C3333 1.351 . S
C3333 C3327 1.428 . S
C3333 N3332 1.351 . S
C3333 C3334 1.434 . S
C3334 C3325 1.429 . S
C3334 N3331 1.350 . S
C3334 C3333 1.434 . S
C3335 C3336 1.369 . S
C3335 C3337 1.419 . S
C3335 H3339 0.930 . S
C3336 C3335 1.369 . S
C3336 C3345 1.429 . S
C3337 C3335 1.419 . S
C3337 C3338 1.363 . S
C3337 H3340 0.929 . S
C3338 C3337 1.363 . S
C3338 C3344 1.428 . S
H3339 C3335 0.930 . S
H3340 C3337 0.929 . S
S3341 N3342 1.613 . S
S3341 N3343 1.610 . S
N3342 S3341 1.613 . S
N3342 C3345 1.350 . S
N3343 S3341 1.610 . S
N3343 C3344 1.351 . S
C3344 C3338 1.428 . S
C3344 N3343 1.351 . S
C3344 C3345 1.434 . S
C3345 C3336 1.429 . S
C3345 N3342 1.350 . S
C3345 C3344 1.434 . S
C3346 C3347 1.369 . S
C3346 C3348 1.419 . S
C3346 H3350 0.930 . S
C3347 C3346 1.369 . S
C3347 C3356 1.429 . S
C3348 C3346 1.419 . S
C3348 C3349 1.363 . S
C3348 H3351 0.929 . S
C3349 C3348 1.363 . S
C3349 C3355 1.428 . S
H3350 C3346 0.930 . S
H3351 C3348 0.929 . S
S3352 N3353 1.613 . S
S3352 N3354 1.610 . S
N3353 S3352 1.613 . S
N3353 C3356 1.350 . S
N3354 S3352 1.610 . S
N3354 C3355 1.351 . S
C3355 C3349 1.428 . S
C3355 N3354 1.351 . S
C3355 C3356 1.434 . S
C3356 C3347 1.429 . S
C3356 N3353 1.350 . S
C3356 C3355 1.434 . S
C3357 C3358 1.369 . S
C3357 C3359 1.419 . S
C3357 H3361 0.930 . S
C3358 C3357 1.369 . S
C3358 C3367 1.429 . S
C3359 C3357 1.419 . S
C3359 C3360 1.363 . S
C3359 H3362 0.929 . S
C3360 C3359 1.363 . S
C3360 C3366 1.428 . S
H3361 C3357 0.930 . S
H3362 C3359 0.929 . S
S3363 N3364 1.613 . S
S3363 N3365 1.610 . S
N3364 S3363 1.613 . S
N3364 C3367 1.350 . S
N3365 S3363 1.610 . S
N3365 C3366 1.351 . S
C3366 C3360 1.428 . S
C3366 N3365 1.351 . S
C3366 C3367 1.434 . S
C3367 C3358 1.429 . S
C3367 N3364 1.350 . S
C3367 C3366 1.434 . S
C3368 C3369 1.369 . S
C3368 C3370 1.419 . S
C3368 H3372 0.930 . S
C3369 C3368 1.369 . S
C3369 C3378 1.429 . S
C3370 C3368 1.419 . S
C3370 C3371 1.363 . S
C3370 H3373 0.929 . S
C3371 C3370 1.363 . S
C3371 C3377 1.428 . S
H3372 C3368 0.930 . S
H3373 C3370 0.929 . S
S3374 N3375 1.613 . S
S3374 N3376 1.610 . S
N3375 S3374 1.613 . S
N3375 C3378 1.350 . S
N3376 S3374 1.610 . S
N3376 C3377 1.351 . S
C3377 C3371 1.428 . S
C3377 N3376 1.351 . S
C3377 C3378 1.434 . S
C3378 C3369 1.429 . S
C3378 N3375 1.350 . S
C3378 C3377 1.434 . S
C3379 C3380 1.369 . S
C3379 C3381 1.419 . S
C3379 H3383 0.930 . S
C3380 C3379 1.369 . S
C3380 C3389 1.429 . S
C3381 C3379 1.419 . S
C3381 C3382 1.363 . S
C3381 H3384 0.929 . S
C3382 C3381 1.363 . S
C3382 C3388 1.428 . S
H3383 C3379 0.930 . S
H3384 C3381 0.929 . S
S3385 N3386 1.613 . S
S3385 N3387 1.610 . S
N3386 S3385 1.613 . S
N3386 C3389 1.350 . S
N3387 S3385 1.610 . S
N3387 C3388 1.351 . S
C3388 C3382 1.428 . S
C3388 N3387 1.351 . S
C3388 C3389 1.434 . S
C3389 C3380 1.429 . S
C3389 N3386 1.350 . S
C3389 C3388 1.434 . S
C3390 C3391 1.369 . S
C3390 C3392 1.419 . S
C3390 H3394 0.930 . S
C3391 C3390 1.369 . S
C3391 C3400 1.429 . S
C3392 C3390 1.419 . S
C3392 C3393 1.363 . S
C3392 H3395 0.929 . S
C3393 C3392 1.363 . S
C3393 C3399 1.428 . S
H3394 C3390 0.930 . S
H3395 C3392 0.929 . S
S3396 N3397 1.613 . S
S3396 N3398 1.610 . S
N3397 S3396 1.613 . S
N3397 C3400 1.350 . S
N3398 S3396 1.610 . S
N3398 C3399 1.351 . S
C3399 C3393 1.428 . S
C3399 N3398 1.351 . S
C3399 C3400 1.434 . S
C3400 C3391 1.429 . S
C3400 N3397 1.350 . S
C3400 C3399 1.434 . S
C3401 C3402 1.369 . S
C3401 C3403 1.419 . S
C3401 H3405 0.930 . S
C3402 C3401 1.369 . S
C3402 C3411 1.429 . S
C3403 C3401 1.419 . S
C3403 C3404 1.363 . S
C3403 H3406 0.929 . S
C3404 C3403 1.363 . S
C3404 C3410 1.428 . S
H3405 C3401 0.930 . S
H3406 C3403 0.929 . S
S3407 N3408 1.613 . S
S3407 N3409 1.610 . S
N3408 S3407 1.613 . S
N3408 C3411 1.350 . S
N3409 S3407 1.610 . S
N3409 C3410 1.351 . S
C3410 C3404 1.428 . S
C3410 N3409 1.351 . S
C3410 C3411 1.434 . S
C3411 C3402 1.429 . S
C3411 N3408 1.350 . S
C3411 C3410 1.434 . S
C3412 C3413 1.369 . S
C3412 C3414 1.419 . S
C3412 H3416 0.930 . S
C3413 C3412 1.369 . S
C3413 C3422 1.429 . S
C3414 C3412 1.419 . S
C3414 C3415 1.363 . S
C3414 H3417 0.929 . S
C3415 C3414 1.363 . S
C3415 C3421 1.428 . S
H3416 C3412 0.930 . S
H3417 C3414 0.929 . S
S3418 N3419 1.613 . S
S3418 N3420 1.610 . S
N3419 S3418 1.613 . S
N3419 C3422 1.350 . S
N3420 S3418 1.610 . S
N3420 C3421 1.351 . S
C3421 C3415 1.428 . S
C3421 N3420 1.351 . S
C3421 C3422 1.434 . S
C3422 C3413 1.429 . S
C3422 N3419 1.350 . S
C3422 C3421 1.434 . S
C3423 C3424 1.369 . S
C3423 C3425 1.419 . S
C3423 H3427 0.930 . S
C3424 C3423 1.369 . S
C3424 C3433 1.429 . S
C3425 C3423 1.419 . S
C3425 C3426 1.363 . S
C3425 H3428 0.929 . S
C3426 C3425 1.363 . S
C3426 C3432 1.428 . S
H3427 C3423 0.930 . S
H3428 C3425 0.929 . S
S3429 N3430 1.613 . S
S3429 N3431 1.610 . S
N3430 S3429 1.613 . S
N3430 C3433 1.350 . S
N3431 S3429 1.610 . S
N3431 C3432 1.351 . S
C3432 C3426 1.428 . S
C3432 N3431 1.351 . S
C3432 C3433 1.434 . S
C3433 C3424 1.429 . S
C3433 N3430 1.350 . S
C3433 C3432 1.434 . S
C3434 C3435 1.369 . S
C3434 C3436 1.419 . S
C3434 H3438 0.930 . S
C3435 C3434 1.369 . S
C3435 C3444 1.429 . S
C3436 C3434 1.419 . S
C3436 C3437 1.363 . S
C3436 H3439 0.929 . S
C3437 C3436 1.363 . S
C3437 C3443 1.428 . S
H3438 C3434 0.930 . S
H3439 C3436 0.929 . S
S3440 N3441 1.613 . S
S3440 N3442 1.610 . S
N3441 S3440 1.613 . S
N3441 C3444 1.350 . S
N3442 S3440 1.610 . S
N3442 C3443 1.351 . S
C3443 C3437 1.428 . S
C3443 N3442 1.351 . S
C3443 C3444 1.434 . S
C3444 C3435 1.429 . S
C3444 N3441 1.350 . S
C3444 C3443 1.434 . S
C3445 C3446 1.369 . S
C3445 C3447 1.419 . S
C3445 H3449 0.930 . S
C3446 C3445 1.369 . S
C3446 C3455 1.429 . S
C3447 C3445 1.419 . S
C3447 C3448 1.363 . S
C3447 H3450 0.929 . S
C3448 C3447 1.363 . S
C3448 C3454 1.428 . S
H3449 C3445 0.930 . S
H3450 C3447 0.929 . S
S3451 N3452 1.613 . S
S3451 N3453 1.610 . S
N3452 S3451 1.613 . S
N3452 C3455 1.350 . S
N3453 S3451 1.610 . S
N3453 C3454 1.351 . S
C3454 C3448 1.428 . S
C3454 N3453 1.351 . S
C3454 C3455 1.434 . S
C3455 C3446 1.429 . S
C3455 N3452 1.350 . S
C3455 C3454 1.434 . S
C1345 C553 1.514 . S
C1347 C7 1.509 . S
C1356 C511 1.513 . S
C1358 C21 1.506 . S
C1367 C525 1.513 . S
C1369 C35 1.507 . S
C1378 C539 1.507 . S
C1380 C49 1.506 . S
C1389 C469 1.504 . S
C1391 C63 1.511 . S
C1400 C483 1.509 . S
C1402 C77 1.506 . S
C1411 C91 1.514 . S
C1413 C497 1.508 . S
C1422 C455 1.505 . S
C1424 C105 1.512 . S
C1433 C119 1.514 . S
C1435 C441 1.507 . S
C1444 C133 1.513 . S
C1446 C399 1.506 . S
C1455 C147 1.514 . S
C1457 C413 1.509 . S
C1466 C161 1.509 . S
C1468 C427 1.506 . S
C1477 C357 1.514 . S
C1479 C175 1.510 . S
C1488 C371 1.512 . S
C1490 C189 1.506 . S
C1499 C385 1.506 . S
C1501 C203 1.513 . S
C1510 C343 1.513 . S
C1512 C217 1.511 . S
C1521 C231 1.509 . S
C1523 C623 1.513 . S
C1532 C245 1.505 . S
C1534 C665 1.512 . S
C1543 C637 1.514 . S
C1545 C259 1.508 . S
C1554 C651 1.505 . S
C1556 C273 1.511 . S
C1565 C567 1.507 . S
C1567 C287 1.506 . S
C1576 C595 1.512 . S
C1578 C301 1.512 . S
C1587 C315 1.504 . S
C1589 C609 1.511 . S
C1598 C581 1.505 . S
C1600 C329 1.508 . S
C1609 C987 1.505 . S
C1611 C679 1.512 . S
C1620 C693 1.508 . S
C1622 C1001 1.513 . S
C1631 C707 1.509 . S
C1633 C973 1.506 . S
C1642 C721 1.507 . S
C1644 C959 1.513 . S
C1653 C735 1.514 . S
C1655 C945 1.509 . S
C1664 C749 1.514 . S
C1666 C931 1.510 . S
C1675 C903 1.504 . S
C1677 C763 1.511 . S
C1686 C917 1.509 . S
C1688 C777 1.513 . S
C1697 C791 1.506 . S
C1699 C1071 1.513 . S
C1708 C805 1.508 . S
C1710 C1113 1.513 . S
C1719 C1085 1.505 . S
C1721 C819 1.512 . S
C1730 C833 1.506 . S
C1732 C1099 1.512 . S
C1741 C847 1.510 . S
C1743 C1015 1.505 . S
C1752 C861 1.504 . S
C1754 C1043 1.511 . S
C1763 C1057 1.506 . S
C1765 C875 1.512 . S
C1774 C1029 1.505 . S
C1776 C889 1.508 . S
C1785 C1127 1.505 . S
C1787 C1337 1.512 . S
C1796 C1323 1.513 . S
C1798 C1141 1.507 . S
C1807 C1295 1.505 . S
C1809 C1155 1.508 . S
C1818 C1309 1.504 . S
C1820 C1169 1.511 . S
C1829 C1267 1.505 . S
C1831 C1183 1.508 . S
C1840 C1197 1.510 . S
C1842 C1281 1.505 . S
C1851 C1253 1.513 . S
C1853 C1211 1.506 . S
C1862 C1239 1.513 . S
C1864 C1225 1.511 . S
C1873 C9 1.164 . S
C1875 C437 1.188 . S
C1884 C23 1.162 . S
C1886 C395 1.186 . S
C1895 C37 1.153 . S
C1897 C409 1.191 . S
C1906 C51 1.154 . S
C1908 C423 1.191 . S
C1917 C65 1.158 . S
C1919 C353 1.192 . S
C1928 C79 1.160 . S
C1930 C367 1.185 . S
C1939 C381 1.189 . S
C1941 C93 1.162 . S
C1950 C107 1.150 . S
C1952 C339 1.189 . S
C1961 C121 1.159 . S
C1963 C619 1.192 . S
C1972 C577 1.186 . S
C1974 C135 1.161 . S
C1983 C149 1.159 . S
C1985 C591 1.185 . S
C1994 C163 1.150 . S
C1996 C605 1.189 . S
C2005 C661 1.184 . S
C2007 C177 1.159 . S
C2016 C633 1.183 . S
C2018 C191 1.158 . S
C2027 C647 1.188 . S
C2029 C205 1.162 . S
C2038 C219 1.159 . S
C2040 C563 1.192 . S
C2049 C233 1.153 . S
C2051 C549 1.191 . S
C2060 C247 1.152 . S
C2062 C465 1.185 . S
C2071 C261 1.159 . S
C2073 C479 1.192 . S
C2082 C275 1.162 . S
C2084 C493 1.191 . S
C2093 C289 1.159 . S
C2095 C451 1.185 . S
C2104 C303 1.159 . S
C2106 C521 1.192 . S
C2115 C535 1.188 . S
C2117 C317 1.151 . S
C2126 C331 1.150 . S
C2128 C507 1.187 . S
C2137 C471 1.151 . S
C2139 C941 1.186 . S
C2148 C213 1.184 . S
C2150 C681 1.160 . S
C2159 C499 1.150 . S
C2161 C927 1.189 . S
C2170 C695 1.161 . S
C2172 C185 1.191 . S
C2181 C555 1.162 . S
C2183 C899 1.186 . S
C2192 C709 1.156 . S
C2194 C157 1.192 . S
C2203 C913 1.192 . S
C2205 C527 1.153 . S
C2214 C723 1.163 . S
C2216 C129 1.187 . S
C2225 C1067 1.183 . S
C2227 C737 1.157 . S
C2236 C345 1.150 . S
C2238 C1025 1.187 . S
C2247 C1039 1.189 . S
C2249 C751 1.162 . S
C2258 C1053 1.185 . S
C2260 C373 1.152 . S
C2269 C1109 1.190 . S
C2271 C765 1.162 . S
C2280 C429 1.160 . S
C2282 C1081 1.185 . S
C2291 C779 1.161 . S
C2293 C1095 1.191 . S
C2302 C401 1.155 . S
C2304 C1011 1.192 . S
C2313 C793 1.160 . S
C2315 C59 1.192 . S
C2324 C807 1.155 . S
C2326 C3 1.184 . S
C2335 C969 1.185 . S
C2337 C821 1.152 . S
C2346 C835 1.151 . S
C2348 C31 1.190 . S
C2357 C849 1.164 . S
C2359 C955 1.188 . S
C2368 C87 1.184 . S
C2370 C863 1.153 . S
C2379 C877 1.163 . S
C2381 C997 1.187 . S
C2390 C983 1.185 . S
C2392 C891 1.161 . S
C2401 C199 1.185 . S
C2403 C1129 1.160 . S
C2412 C1263 1.193 . S
C2414 C485 1.155 . S
C2423 C1143 1.158 . S
C2425 C171 1.184 . S
C2434 C457 1.154 . S
C2436 C1277 1.191 . S
C2445 C143 1.193 . S
C2447 C1157 1.160 . S
C2456 C1249 1.193 . S
C2458 C513 1.159 . S
C2467 C115 1.189 . S
C2469 C1171 1.151 . S
C2478 C1235 1.192 . S
C2480 C541 1.161 . S
C2489 C857 1.190 . S
C2491 C387 1.152 . S
C2500 C1185 1.154 . S
C2502 C871 1.184 . S
C2511 C787 1.185 . S
C2513 C359 1.161 . S
C2522 C1199 1.159 . S
C2524 C885 1.184 . S
C2533 C829 1.191 . S
C2535 C415 1.161 . S
C2544 C1213 1.161 . S
C2546 C843 1.186 . S
C2555 C443 1.152 . S
C2557 C801 1.185 . S
C2566 C815 1.183 . S
C2568 C1227 1.157 . S
C2577 C1333 1.184 . S
C2579 C1045 1.152 . S
C2588 C1291 1.185 . S
C2590 C1101 1.152 . S
C2599 C1017 1.156 . S
C2601 C17 1.192 . S
C2610 C1305 1.193 . S
C2612 C1115 1.156 . S
C2621 C45 1.183 . S
C2623 C1087 1.156 . S
C2632 C1073 1.161 . S
C2634 C1319 1.186 . S
C2643 C1031 1.150 . S
C2645 C101 1.188 . S
C2654 C1059 1.151 . S
C2656 C73 1.185 . S
C2665 C1297 1.150 . S
C2667 C773 1.187 . S
C2676 C1221 1.188 . S
C2678 C975 1.162 . S
C2687 C1311 1.160 . S
C2689 C759 1.192 . S
C2698 C961 1.158 . S
C2700 C1207 1.192 . S
C2709 C1339 1.162 . S
C2711 C745 1.186 . S
C2720 C989 1.150 . S
C2722 C1193 1.188 . S
C2731 C1325 1.161 . S
C2733 C731 1.185 . S
C2742 C1003 1.160 . S
C2744 C1179 1.185 . S
C2753 C919 1.151 . S
C2755 C297 1.190 . S
C2764 C311 1.184 . S
C2766 C1241 1.159 . S
C2775 C905 1.157 . S
C2777 C227 1.184 . S
C2786 C1255 1.158 . S
C2788 C325 1.192 . S
C2797 C933 1.150 . S
C2799 C269 1.186 . S
C2808 C283 1.193 . S
C2810 C1283 1.156 . S
C2819 C241 1.191 . S
C2821 C947 1.161 . S
C2830 C255 1.193 . S
C2832 C1269 1.156 . S
C2841 C1151 1.191 . S
C2843 C597 1.161 . S
C2852 C653 1.158 . S
C2854 C1123 1.192 . S
C2863 C675 1.193 . S
C2865 C569 1.158 . S
C2874 C667 1.150 . S
C2876 C1137 1.189 . S
C2885 C689 1.183 . S
C2887 C639 1.157 . S
C2896 C1165 1.193 . S
C2898 C625 1.155 . S
C2907 C717 1.193 . S
C2909 C583 1.159 . S
C2918 C703 1.185 . S
C2920 C611 1.160 . S
C2929 C400 1.290 . S
C2931 C8 1.288 . S
C2940 C22 1.289 . S
C2942 C414 1.288 . S
C2951 C428 1.290 . S
C2953 C36 1.288 . S
C2962 C50 1.286 . S
C2964 C442 1.290 . S
C2973 C344 1.288 . S
C2975 C64 1.289 . S
C2984 C358 1.287 . S
C2986 C78 1.290 . S
C2995 C92 1.291 . S
C2997 C372 1.287 . S
C3006 C106 1.291 . S
C3008 C386 1.287 . S
C3017 C540 1.291 . S
C3019 C120 1.287 . S
C3028 C134 1.290 . S
C3030 C554 1.287 . S
C3039 C148 1.291 . S
C3041 C512 1.287 . S
C3050 C526 1.286 . S
C3052 C162 1.290 . S
C3061 C176 1.289 . S
C3063 C484 1.289 . S
C3072 C498 1.290 . S
C3074 C190 1.287 . S
C3083 C456 1.287 . S
C3085 C204 1.290 . S
C3094 C470 1.291 . S
C3096 C218 1.287 . S
C3105 C232 1.291 . S
C3107 C638 1.287 . S
C3116 C610 1.289 . S
C3118 C246 1.288 . S
C3127 C624 1.286 . S
C3129 C260 1.290 . S
C3138 C582 1.288 . S
C3140 C274 1.289 . S
C3149 C288 1.286 . S
C3151 C596 1.290 . S
C3160 C302 1.291 . S
C3162 C568 1.287 . S
C3171 C666 1.286 . S
C3173 C316 1.290 . S
C3182 C330 1.289 . S
C3184 C652 1.289 . S
C3193 C680 1.291 . S
C3195 C932 1.287 . S
C3204 C946 1.289 . S
C3206 C694 1.288 . S
C3215 C904 1.286 . S
C3217 C708 1.290 . S
C3226 C918 1.290 . S
C3228 C722 1.287 . S
C3237 C736 1.289 . S
C3239 C1002 1.288 . S
C3248 C988 1.288 . S
C3250 C750 1.288 . S
C3259 C764 1.287 . S
C3261 C974 1.290 . S
C3270 C778 1.286 . S
C3272 C960 1.290 . S
C3281 C1086 1.289 . S
C3283 C792 1.289 . S
C3292 C806 1.287 . S
C3294 C1058 1.289 . S
C3303 C1072 1.287 . S
C3305 C820 1.290 . S
C3314 C1030 1.291 . S
C3316 C834 1.287 . S
C3325 C1044 1.291 . S
C3327 C848 1.287 . S
C3336 C1016 1.288 . S
C3338 C862 1.289 . S
C3347 C1114 1.287 . S
C3349 C876 1.289 . S
C3358 C1100 1.286 . S
C3360 C890 1.290 . S
C3369 C1128 1.291 . S
C3371 C1268 1.287 . S
C3380 C1282 1.291 . S
C3382 C1142 1.287 . S
C3391 C1156 1.288 . S
C3393 C1240 1.288 . S
C3402 C1254 1.289 . S
C3404 C1170 1.289 . S
C3413 C1184 1.288 . S
C3415 C1338 1.289 . S
C3424 C1198 1.286 . S
C3426 C1324 1.290 . S
C3435 C1310 1.286 . S
C3437 C1212 1.290 . S
C3446 C1226 1.288 . S
C3448 C1296 1.289 . S
