# Generated by pormake.
# Topology fnk, (5)-cn, num edge types: 1
# Building blocks:
#     Node 0, Type 0, BuildingBlock: XOMCOT_clean_sbu_0, # of connection points: 5
#     Node 1, Type 0, BuildingBlock: XOMCOT_clean_sbu_0, # of connection points: 5
#     Node 2, Type 0, BuildingBlock: XOMCOT_clean_sbu_0, # of connection points: 5
#     Node 3, Type 0, BuildingBlock: XOMCOT_clean_sbu_0, # of connection points: 5
#     Node 4, Type 0, BuildingBlock: XOMCOT_clean_sbu_0, # of connection points: 5
#     Node 5, Type 0, BuildingBlock: XOMCOT_clean_sbu_0, # of connection points: 5
#     Node 6, Type 0, BuildingBlock: XOMCOT_clean_sbu_0, # of connection points: 5
#     Node 7, Type 0, BuildingBlock: XOMCOT_clean_sbu_0, # of connection points: 5
#     Node 8, Type 0, BuildingBlock: XOMCOT_clean_sbu_0, # of connection points: 5
#     Node 9, Type 0, BuildingBlock: XOMCOT_clean_sbu_0, # of connection points: 5
#     Node 10, Type 0, BuildingBlock: XOMCOT_clean_sbu_0, # of connection points: 5
#     Node 11, Type 0, BuildingBlock: XOMCOT_clean_sbu_0, # of connection points: 5
#     Node 12, Type 0, BuildingBlock: XOMCOT_clean_sbu_0, # of connection points: 5
#     Node 13, Type 0, BuildingBlock: XOMCOT_clean_sbu_0, # of connection points: 5
#     Node 14, Type 0, BuildingBlock: XOMCOT_clean_sbu_0, # of connection points: 5
#     Node 15, Type 0, BuildingBlock: XOMCOT_clean_sbu_0, # of connection points: 5
#     Edge 16, Type (0, 0), BuildingBlock: OJICUG_clean_linker_0, # of connection points: 2
#     Edge 17, Type (0, 0), BuildingBlock: OJICUG_clean_linker_0, # of connection points: 2
#     Edge 18, Type (0, 0), BuildingBlock: OJICUG_clean_linker_0, # of connection points: 2
#     Edge 19, Type (0, 0), BuildingBlock: OJICUG_clean_linker_0, # of connection points: 2
#     Edge 20, Type (0, 0), BuildingBlock: OJICUG_clean_linker_0, # of connection points: 2
#     Edge 21, Type (0, 0), BuildingBlock: OJICUG_clean_linker_0, # of connection points: 2
#     Edge 22, Type (0, 0), BuildingBlock: OJICUG_clean_linker_0, # of connection points: 2
#     Edge 23, Type (0, 0), BuildingBlock: OJICUG_clean_linker_0, # of connection points: 2
#     Edge 24, Type (0, 0), BuildingBlock: OJICUG_clean_linker_0, # of connection points: 2
#     Edge 25, Type (0, 0), BuildingBlock: OJICUG_clean_linker_0, # of connection points: 2
#     Edge 26, Type (0, 0), BuildingBlock: OJICUG_clean_linker_0, # of connection points: 2
#     Edge 27, Type (0, 0), BuildingBlock: OJICUG_clean_linker_0, # of connection points: 2
#     Edge 28, Type (0, 0), BuildingBlock: OJICUG_clean_linker_0, # of connection points: 2
#     Edge 29, Type (0, 0), BuildingBlock: OJICUG_clean_linker_0, # of connection points: 2
#     Edge 30, Type (0, 0), BuildingBlock: OJICUG_clean_linker_0, # of connection points: 2
#     Edge 31, Type (0, 0), BuildingBlock: OJICUG_clean_linker_0, # of connection points: 2
#     Edge 32, Type (0, 0), BuildingBlock: OJICUG_clean_linker_0, # of connection points: 2
#     Edge 33, Type (0, 0), BuildingBlock: OJICUG_clean_linker_0, # of connection points: 2
#     Edge 34, Type (0, 0), BuildingBlock: OJICUG_clean_linker_0, # of connection points: 2
#     Edge 35, Type (0, 0), BuildingBlock: OJICUG_clean_linker_0, # of connection points: 2
#     Edge 36, Type (0, 0), BuildingBlock: OJICUG_clean_linker_0, # of connection points: 2
#     Edge 37, Type (0, 0), BuildingBlock: OJICUG_clean_linker_0, # of connection points: 2
#     Edge 38, Type (0, 0), BuildingBlock: OJICUG_clean_linker_0, # of connection points: 2
#     Edge 39, Type (0, 0), BuildingBlock: OJICUG_clean_linker_0, # of connection points: 2
#     Edge 40, Type (0, 0), BuildingBlock: OJICUG_clean_linker_0, # of connection points: 2
#     Edge 41, Type (0, 0), BuildingBlock: OJICUG_clean_linker_0, # of connection points: 2
#     Edge 42, Type (0, 0), BuildingBlock: OJICUG_clean_linker_0, # of connection points: 2
#     Edge 43, Type (0, 0), BuildingBlock: OJICUG_clean_linker_0, # of connection points: 2
#     Edge 44, Type (0, 0), BuildingBlock: OJICUG_clean_linker_0, # of connection points: 2
#     Edge 45, Type (0, 0), BuildingBlock: OJICUG_clean_linker_0, # of connection points: 2
#     Edge 46, Type (0, 0), BuildingBlock: OJICUG_clean_linker_0, # of connection points: 2
#     Edge 47, Type (0, 0), BuildingBlock: OJICUG_clean_linker_0, # of connection points: 2
#     Edge 48, Type (0, 0), BuildingBlock: OJICUG_clean_linker_0, # of connection points: 2
#     Edge 49, Type (0, 0), BuildingBlock: OJICUG_clean_linker_0, # of connection points: 2
#     Edge 50, Type (0, 0), BuildingBlock: OJICUG_clean_linker_0, # of connection points: 2
#     Edge 51, Type (0, 0), BuildingBlock: OJICUG_clean_linker_0, # of connection points: 2
#     Edge 52, Type (0, 0), BuildingBlock: OJICUG_clean_linker_0, # of connection points: 2
#     Edge 53, Type (0, 0), BuildingBlock: OJICUG_clean_linker_0, # of connection points: 2
#     Edge 54, Type (0, 0), BuildingBlock: OJICUG_clean_linker_0, # of connection points: 2
#     Edge 55, Type (0, 0), BuildingBlock: OJICUG_clean_linker_0, # of connection points: 2
# Relax obj value: 0.400
# Max RMSD: 0.223
# Mean RMSD: 0.216
data_MOF--net-fnk--node1-XOMCOT_clean_sbu_0--edge1-OJICUG_clean_linker_0
_symmetry_space_group_name_H-M    P1
_symmetry_Int_Tables_number       1
_symmetry_cell_setting            triclinic
loop_
_symmetry_equiv_pos_as_xyz
'x, y, z'
_cell_length_a     36.158979
_cell_length_b     35.866155
_cell_length_c     37.650254
_cell_angle_alpha  90.090212
_cell_angle_beta   89.726411
_cell_angle_gamma 89.874041
loop_
_atom_site_label
_atom_site_type_symbol
_atom_site_fract_x
_atom_site_fract_y
_atom_site_fract_z
_atom_type_partial_charge
Co0 Co 0.10668 0.36895 0.22302 0.0
C1 C 0.16425 0.31434 0.24714 0.0
C2 C 0.1537 0.35804 0.28464 0.0
C3 C 0.17962 0.33443 0.2988 0.0
N4 N 0.1446 0.346 0.2519 0.0
N5 N 0.18627 0.30686 0.27521 0.0
H6 H 0.16157 0.29621 0.22457 0.0
H7 H 0.14184 0.38219 0.29766 0.0
C8 C 0.15686 0.43391 0.24222 0.0
O9 O 0.18684 0.41564 0.23269 0.0
N10 N 0.06846 0.39232 0.1956 0.0
C11 C 0.05359 0.38033 0.16491 0.0
C12 C 0.02887 0.40687 0.15324 0.0
C13 C 0.05255 0.42539 0.2025 0.0
N14 N 0.02839 0.43511 0.17698 0.0
C15 C 0.14208 0.33426 0.16298 0.0
C16 C 0.15274 0.39943 0.1255 0.0
C17 C 0.15716 0.36535 0.10731 0.0
C18 C 0.15353 0.33252 0.12746 0.0
C19 C 0.14294 0.39992 0.1615 0.0
N20 N 0.13681 0.3676 0.17978 0.0
H21 H 0.13415 0.30862 0.17568 0.0
H22 H 0.13627 0.42652 0.17332 0.0
H23 H 0.06072 0.35449 0.15167 0.0
H24 H 0.05933 0.44246 0.22525 0.0
O25 O 0.08036 0.32194 0.21829 0.0
O26 O 0.07248 0.36298 0.26177 0.0
O27 O 0.1249 0.41965 0.23774 0.0
C28 C 0.06239 0.332 0.24686 0.0
H29 H 0.19249 0.33755 0.3245 0.0
H30 H 0.01257 0.40549 0.12925 0.0
H31 H 0.15393 0.42585 0.1118 0.0
H32 H 0.15725 0.30527 0.11568 0.0
Co33 Co 0.61102 0.11065 0.21292 0.0
C34 C 0.66146 0.17084 0.23704 0.0
C35 C 0.63063 0.14768 0.28036 0.0
C36 C 0.65366 0.175 0.29344 0.0
N37 N 0.63542 0.14522 0.24488 0.0
N38 N 0.67303 0.18956 0.26607 0.0
H39 H 0.67223 0.17559 0.21079 0.0
H40 H 0.61142 0.13108 0.2957 0.0
C41 C 0.55215 0.16666 0.23628 0.0
O42 O 0.57601 0.19366 0.24135 0.0
N43 N 0.58765 0.07621 0.18095 0.0
C44 C 0.60412 0.05473 0.15599 0.0
C45 C 0.57726 0.03447 0.13871 0.0
C46 C 0.55136 0.06933 0.17823 0.0
N47 N 0.54423 0.04427 0.15255 0.0
C48 C 0.6593 0.13364 0.15704 0.0
C49 C 0.60464 0.16407 0.11501 0.0
C50 C 0.63924 0.15611 0.09978 0.0
C51 C 0.66727 0.14236 0.12166 0.0
C52 C 0.598 0.15568 0.15076 0.0
N53 N 0.62478 0.13939 0.17104 0.0
H54 H 0.68036 0.12002 0.17261 0.0
H55 H 0.57025 0.15913 0.16083 0.0
H56 H 0.63359 0.05347 0.15106 0.0
H57 H 0.53054 0.08101 0.19568 0.0
O58 O 0.65319 0.07687 0.21624 0.0
O59 O 0.60387 0.07608 0.25122 0.0
O60 O 0.56187 0.13665 0.22037 0.0
C61 C 0.63521 0.06111 0.24228 0.0
H62 H 0.65555 0.18366 0.3209 0.0
H63 H 0.58163 0.01365 0.11826 0.0
H64 H 0.58222 0.17458 0.09885 0.0
H65 H 0.69424 0.13544 0.11082 0.0
Co66 Co 0.86998 0.63876 0.21771 0.0
C67 C 0.81143 0.69177 0.24327 0.0
C68 C 0.83176 0.65492 0.28363 0.0
C69 C 0.80711 0.67907 0.29908 0.0
N70 N 0.83455 0.66277 0.2487 0.0
N71 N 0.79444 0.70221 0.27377 0.0
H72 H 0.80759 0.70554 0.21806 0.0
H73 H 0.84689 0.63309 0.29706 0.0
C74 C 0.81622 0.57682 0.23891 0.0
O75 O 0.788 0.5997 0.24221 0.0
N76 N 0.90602 0.61404 0.1884 0.0
C77 C 0.91998 0.62374 0.15648 0.0
C78 C 0.94497 0.59665 0.14601 0.0
C79 C 0.92286 0.58206 0.19718 0.0
N80 N 0.94665 0.57063 0.17183 0.0
C81 C 0.84344 0.68058 0.15848 0.0
C82 C 0.81662 0.62012 0.1213 0.0
C83 C 0.82418 0.65308 0.10255 0.0
C84 C 0.83591 0.68419 0.12217 0.0
C85 C 0.82532 0.61742 0.15734 0.0
N86 N 0.84013 0.64697 0.17526 0.0
H87 H 0.85542 0.70406 0.17218 0.0
H88 H 0.82326 0.59033 0.16939 0.0
H89 H 0.9127 0.64859 0.14189 0.0
H90 H 0.91742 0.56732 0.22168 0.0
O91 O 0.90033 0.68353 0.21673 0.0
O92 O 0.9045 0.63809 0.25637 0.0
O93 O 0.84762 0.58855 0.22806 0.0
C94 C 0.91668 0.66971 0.2445 0.0
H95 H 0.79874 0.67933 0.32673 0.0
H96 H 0.96095 0.59637 0.12163 0.0
H97 H 0.80637 0.59558 0.10781 0.0
H98 H 0.84224 0.71035 0.10924 0.0
Co99 Co 0.36698 0.88639 0.23366 0.0
C100 C 0.4024 0.94099 0.18701 0.0
C101 C 0.37921 0.96677 0.23357 0.0
C102 C 0.39746 0.99346 0.21427 0.0
N103 N 0.38206 0.93412 0.21624 0.0
N104 N 0.41229 0.97715 0.18514 0.0
H105 H 0.41193 0.91948 0.16895 0.0
H106 H 0.3678 0.97023 0.2599 0.0
C107 C 0.30985 0.91445 0.28125 0.0
O108 O 0.32418 0.89228 0.30531 0.0
N109 N 0.35108 0.83836 0.25134 0.0
C110 C 0.37042 0.81311 0.2703 0.0
C111 C 0.34698 0.78487 0.2805 0.0
C112 C 0.31635 0.8249 0.24995 0.0
N113 N 0.31302 0.79243 0.26777 0.0
C114 C 0.36675 0.84874 0.16692 0.0
C115 C 0.31145 0.89054 0.13572 0.0
C116 C 0.33226 0.86622 0.11402 0.0
C117 C 0.3598 0.84461 0.13062 0.0
C118 C 0.32014 0.89472 0.17172 0.0
N119 N 0.34797 0.87442 0.18674 0.0
H120 H 0.38877 0.83268 0.17878 0.0
H121 H 0.30548 0.91563 0.18689 0.0
H122 H 0.39935 0.81502 0.27702 0.0
H123 H 0.29369 0.83932 0.23722 0.0
O124 O 0.41772 0.86907 0.22811 0.0
O125 O 0.39482 0.89545 0.27667 0.0
O126 O 0.319 0.9098 0.2488 0.0
C127 C 0.4234 0.88195 0.25995 0.0
H128 H 0.40281 0.02172 0.223 0.0
H129 H 0.35438 0.76062 0.29602 0.0
H130 H 0.28917 0.90719 0.12505 0.0
H131 H 0.37736 0.8258 0.11568 0.0
Co132 Co 0.10241 0.63987 0.33151 0.0
C133 C 0.16683 0.68926 0.3116 0.0
C134 C 0.14334 0.65948 0.26772 0.0
C135 C 0.17137 0.68138 0.25501 0.0
N136 N 0.14013 0.66444 0.30316 0.0
N137 N 0.18608 0.70011 0.2825 0.0
H138 H 0.1722 0.69944 0.33804 0.0
H139 H 0.12671 0.64068 0.25204 0.0
C140 C 0.15728 0.5785 0.31113 0.0
O141 O 0.18533 0.60158 0.30893 0.0
N142 N 0.06433 0.61462 0.35785 0.0
C143 C 0.04854 0.6236 0.38921 0.0
C144 C 0.02278 0.59655 0.3975 0.0
C145 C 0.04773 0.58312 0.34718 0.0
N146 N 0.02239 0.57129 0.37087 0.0
C147 C 0.12725 0.68213 0.3912 0.0
C148 C 0.14699 0.62163 0.43232 0.0
C149 C 0.14312 0.6566 0.44891 0.0
C150 C 0.13449 0.6873 0.42738 0.0
C151 C 0.13975 0.61768 0.39597 0.0
N152 N 0.12895 0.64755 0.376 0.0
H153 H 0.11799 0.70576 0.37586 0.0
H154 H 0.13957 0.58992 0.38493 0.0
H155 H 0.05532 0.64784 0.40498 0.0
H156 H 0.05456 0.56887 0.32267 0.0
O157 O 0.07186 0.68458 0.33138 0.0
O158 O 0.07056 0.63978 0.29078 0.0
O159 O 0.12566 0.58978 0.32194 0.0
C160 C 0.05728 0.6711 0.30253 0.0
H161 H 0.18077 0.68282 0.2277 0.0
H162 H 0.00558 0.59566 0.42108 0.0
H163 H 0.15299 0.59687 0.44767 0.0
H164 H 0.13182 0.71499 0.4386 0.0
Co165 Co 0.35433 0.11044 0.34377 0.0
C166 C 0.30123 0.16993 0.31977 0.0
C167 C 0.33588 0.14823 0.27827 0.0
C168 C 0.31318 0.17486 0.26397 0.0
N169 N 0.32866 0.14522 0.31328 0.0
N170 N 0.29126 0.18851 0.29002 0.0
H171 H 0.28848 0.17419 0.34533 0.0
H172 H 0.35673 0.13234 0.26413 0.0
C173 C 0.41424 0.16324 0.31662 0.0
O174 O 0.39357 0.19291 0.32192 0.0
N175 N 0.38078 0.07537 0.3728 0.0
C176 C 0.37098 0.06149 0.40472 0.0
C177 C 0.40048 0.04152 0.41803 0.0
C178 C 0.41547 0.06344 0.36689 0.0
N179 N 0.4284 0.04299 0.39414 0.0
C180 C 0.31825 0.14439 0.40309 0.0
C181 C 0.38242 0.16177 0.43889 0.0
C182 C 0.34895 0.16078 0.45789 0.0
C183 C 0.31639 0.15383 0.43911 0.0
C184 C 0.38298 0.15314 0.40254 0.0
N185 N 0.3513 0.14302 0.38532 0.0
H186 H 0.29335 0.1344 0.39062 0.0
H187 H 0.40952 0.15035 0.38958 0.0
H188 H 0.34481 0.0666 0.41789 0.0
H189 H 0.43149 0.07089 0.34367 0.0
O190 O 0.30943 0.08159 0.35113 0.0
O191 O 0.34967 0.07308 0.30728 0.0
O192 O 0.4031 0.1311 0.32649 0.0
C193 C 0.31948 0.06266 0.32318 0.0
H194 H 0.31347 0.18387 0.23657 0.0
H195 H 0.40138 0.02738 0.44338 0.0
H196 H 0.40827 0.16679 0.45249 0.0
H197 H 0.29006 0.15213 0.45286 0.0
Co198 Co 0.86987 0.36363 0.31385 0.0
C199 C 0.80862 0.31095 0.29541 0.0
C200 C 0.82388 0.34719 0.25263 0.0
C201 C 0.79533 0.32495 0.24154 0.0
N202 N 0.83202 0.33873 0.2865 0.0
N203 N 0.78558 0.302 0.26843 0.0
H204 H 0.80851 0.29732 0.32079 0.0
H205 H 0.83752 0.36857 0.23717 0.0
C206 C 0.81667 0.42632 0.29402 0.0
O207 O 0.78709 0.40668 0.30174 0.0
N208 N 0.90767 0.38892 0.34042 0.0
C209 C 0.92399 0.37697 0.37043 0.0
C210 C 0.94707 0.40461 0.38259 0.0
C211 C 0.9212 0.42326 0.33443 0.0
N212 N 0.94516 0.43365 0.35994 0.0
C213 C 0.8413 0.32774 0.37587 0.0
C214 C 0.82077 0.39232 0.41083 0.0
C215 C 0.82305 0.35905 0.4302 0.0
C216 C 0.8319 0.32618 0.4119 0.0
C217 C 0.83035 0.39269 0.37485 0.0
N218 N 0.84116 0.36076 0.35778 0.0
H219 H 0.85186 0.30275 0.36343 0.0
H220 H 0.83261 0.41943 0.36211 0.0
H221 H 0.91892 0.35034 0.38294 0.0
H222 H 0.91286 0.44072 0.31246 0.0
O223 O 0.89868 0.3179 0.3176 0.0
O224 O 0.90326 0.35918 0.27414 0.0
O225 O 0.84901 0.41335 0.2996 0.0
C226 C 0.91537 0.32876 0.28868 0.0
H227 H 0.78268 0.32621 0.21562 0.0
H228 H 0.96391 0.40343 0.40626 0.0
H229 H 0.81424 0.41843 0.42395 0.0
H230 H 0.83485 0.29999 0.42589 0.0
Co231 Co 0.62376 0.88925 0.35286 0.0
C232 C 0.57301 0.94195 0.3888 0.0
C233 C 0.62817 0.9632 0.3898 0.0
C234 C 0.60459 0.99003 0.40337 0.0
N235 N 0.60806 0.93331 0.37953 0.0
N236 N 0.57006 0.97626 0.40277 0.0
H237 H 0.5491 0.92509 0.383 0.0
H238 H 0.65738 0.96693 0.38496 0.0
C239 C 0.69076 0.93593 0.32277 0.0
O240 O 0.72694 0.93681 0.32594 0.0
N241 N 0.63951 0.84492 0.32721 0.0
C242 C 0.61868 0.82097 0.30808 0.0
C243 C 0.64131 0.79472 0.29271 0.0
C244 C 0.67451 0.8323 0.3236 0.0
N245 N 0.67633 0.80194 0.30241 0.0
C246 C 0.62574 0.83808 0.41102 0.0
C247 C 0.67513 0.87833 0.45171 0.0
C248 C 0.65578 0.84889 0.4678 0.0
C249 C 0.63215 0.82751 0.44626 0.0
C250 C 0.66852 0.88742 0.41628 0.0
N251 N 0.64262 0.86867 0.39697 0.0
H252 H 0.60583 0.82274 0.39548 0.0
H253 H 0.68266 0.91121 0.40539 0.0
H254 H 0.58901 0.82183 0.30528 0.0
H255 H 0.69821 0.84518 0.33599 0.0
O256 O 0.57367 0.87026 0.35512 0.0
O257 O 0.59569 0.90487 0.31135 0.0
O258 O 0.67369 0.91198 0.34205 0.0
C259 C 0.56772 0.88723 0.32518 0.0
H260 H 0.61173 0.01849 0.41002 0.0
H261 H 0.63258 0.77153 0.27635 0.0
H262 H 0.69357 0.89598 0.46675 0.0
H263 H 0.61751 0.80364 0.45678 0.0
Co264 Co 0.86872 0.60601 0.83722 0.0
C265 C 0.8201 0.66728 0.81201 0.0
C266 C 0.84554 0.63827 0.76847 0.0
C267 C 0.82223 0.6652 0.75502 0.0
N268 N 0.8441 0.63947 0.80431 0.0
N269 N 0.80641 0.6834 0.78252 0.0
H270 H 0.81207 0.67541 0.83853 0.0
H271 H 0.86218 0.61907 0.75301 0.0
C272 C 0.9268 0.66277 0.81413 0.0
O273 O 0.90202 0.68808 0.80594 0.0
N274 N 0.89191 0.57273 0.87042 0.0
C275 C 0.87489 0.55123 0.8949 0.0
C276 C 0.90142 0.53222 0.91384 0.0
C277 C 0.92824 0.5671 0.87508 0.0
N278 N 0.9348 0.54276 0.9015 0.0
C279 C 0.8184 0.62794 0.89188 0.0
C280 C 0.86998 0.66385 0.93365 0.0
C281 C 0.83592 0.65384 0.94864 0.0
C282 C 0.80947 0.6369 0.92705 0.0
C283 C 0.87796 0.65417 0.89837 0.0
N284 N 0.85278 0.63518 0.87831 0.0
H285 H 0.79848 0.61271 0.87633 0.0
H286 H 0.90557 0.65911 0.88858 0.0
H287 H 0.84528 0.54916 0.89846 0.0
H288 H 0.94957 0.57923 0.8586 0.0
O289 O 0.82762 0.57098 0.83288 0.0
O290 O 0.87815 0.57075 0.79964 0.0
O291 O 0.91743 0.63318 0.83086 0.0
C292 C 0.84692 0.55516 0.80766 0.0
H293 H 0.8174 0.67099 0.72722 0.0
H294 H 0.89665 0.51176 0.93447 0.0
H295 H 0.89129 0.67636 0.94988 0.0
H296 H 0.78303 0.62838 0.93794 0.0
Co297 Co 0.3752 0.87273 0.84147 0.0
C298 C 0.31708 0.8187 0.81789 0.0
C299 C 0.32599 0.86342 0.78128 0.0
C300 C 0.30003 0.83992 0.76717 0.0
N301 N 0.33613 0.85069 0.81348 0.0
N302 N 0.29444 0.81171 0.79018 0.0
H303 H 0.32079 0.79987 0.83978 0.0
H304 H 0.33738 0.88781 0.76845 0.0
C305 C 0.32578 0.93933 0.82384 0.0
O306 O 0.29529 0.92203 0.83325 0.0
N307 N 0.41456 0.8954 0.86777 0.0
C308 C 0.42977 0.88433 0.89862 0.0
C309 C 0.45558 0.91056 0.90866 0.0
C310 C 0.43137 0.92744 0.85917 0.0
N311 N 0.4564 0.93752 0.8837 0.0
C312 C 0.34139 0.83765 0.90183 0.0
C313 C 0.33209 0.90227 0.94075 0.0
C314 C 0.32801 0.8679 0.95838 0.0
C315 C 0.33094 0.8354 0.93757 0.0
C316 C 0.34094 0.90331 0.9045 0.0
N317 N 0.34644 0.87122 0.88553 0.0
H318 H 0.34873 0.81215 0.88844 0.0
H319 H 0.3473 0.93003 0.8929 0.0
H320 H 0.42216 0.85942 0.91304 0.0
H321 H 0.4246 0.94359 0.83584 0.0
O322 O 0.40118 0.82531 0.84484 0.0
O323 O 0.40797 0.86668 0.80159 0.0
O324 O 0.3573 0.92391 0.82799 0.0
C325 C 0.41819 0.83539 0.81579 0.0
H326 H 0.28654 0.84342 0.74181 0.0
H327 H 0.47235 0.90985 0.93239 0.0
H328 H 0.33129 0.92844 0.95501 0.0
H329 H 0.32738 0.80799 0.94897 0.0
Co330 Co 0.11922 0.38793 0.83217 0.0
C331 C 0.08141 0.4426 0.87756 0.0
C332 C 0.10575 0.46802 0.83151 0.0
C333 C 0.08626 0.49469 0.84982 0.0
N334 N 0.10297 0.4356 0.84913 0.0
N335 N 0.07062 0.47862 0.87859 0.0
H336 H 0.07152 0.42116 0.89542 0.0
H337 H 0.11775 0.47121 0.80542 0.0
C338 C 0.17608 0.41675 0.78481 0.0
O339 O 0.16226 0.39422 0.76075 0.0
N340 N 0.1362 0.33995 0.81487 0.0
C341 C 0.11676 0.3134 0.7977 0.0
C342 C 0.14058 0.28554 0.78712 0.0
C343 C 0.17142 0.32754 0.81493 0.0
N344 N 0.1749 0.29458 0.79785 0.0
C345 C 0.11998 0.35009 0.89852 0.0
C346 C 0.17404 0.39268 0.93056 0.0
C347 C 0.15408 0.36726 0.95172 0.0
C348 C 0.12709 0.3454 0.93469 0.0
C349 C 0.16516 0.39737 0.89465 0.0
N350 N 0.13802 0.37656 0.87923 0.0
H351 H 0.09853 0.3336 0.88632 0.0
H352 H 0.1792 0.41888 0.87981 0.0
H353 H 0.08743 0.31404 0.79255 0.0
H354 H 0.19422 0.34297 0.82622 0.0
O355 O 0.06883 0.36967 0.83746 0.0
O356 O 0.0916 0.39597 0.78893 0.0
O357 O 0.16683 0.41218 0.81725 0.0
C358 C 0.06324 0.38182 0.80539 0.0
H359 H 0.0805 0.5226 0.84038 0.0
H360 H 0.13319 0.26049 0.77276 0.0
H361 H 0.19583 0.40967 0.94157 0.0
H362 H 0.11009 0.32583 0.94918 0.0
Co363 Co 0.61817 0.13522 0.83221 0.0
C364 C 0.68066 0.18326 0.80668 0.0
C365 C 0.65706 0.14881 0.76605 0.0
C366 C 0.68312 0.17131 0.75059 0.0
N367 N 0.65522 0.1564 0.80114 0.0
N368 N 0.69779 0.19284 0.77615 0.0
H369 H 0.68618 0.19633 0.8319 0.0
H370 H 0.64009 0.12856 0.75246 0.0
C371 C 0.66879 0.06997 0.81275 0.0
O372 O 0.69837 0.09112 0.81152 0.0
N373 N 0.58053 0.1135 0.86171 0.0
C374 C 0.5671 0.12521 0.89328 0.0
C375 C 0.54171 0.09934 0.90519 0.0
C376 C 0.56288 0.0816 0.85446 0.0
N377 N 0.53923 0.07206 0.88059 0.0
C378 C 0.64911 0.17614 0.88989 0.0
C379 C 0.66293 0.11403 0.93109 0.0
C380 C 0.66055 0.149 0.9475 0.0
C381 C 0.65567 0.18054 0.92626 0.0
C382 C 0.65696 0.11087 0.89456 0.0
N383 N 0.64821 0.1415 0.87466 0.0
H384 H 0.64083 0.20035 0.87486 0.0
H385 H 0.65475 0.08318 0.88365 0.0
H386 H 0.57545 0.15037 0.90688 0.0
H387 H 0.56788 0.06537 0.83072 0.0
O388 O 0.59088 0.18201 0.83318 0.0
O389 O 0.58364 0.13677 0.79361 0.0
O390 O 0.6375 0.08357 0.822 0.0
C391 C 0.57346 0.16917 0.80557 0.0
H392 H 0.69085 0.17182 0.72278 0.0
H393 H 0.52628 0.10057 0.92987 0.0
H394 H 0.66632 0.089 0.94683 0.0
H395 H 0.65315 0.20796 0.93815 0.0
Co396 Co 0.86913 0.38017 0.70163 0.0
C397 C 0.91909 0.44149 0.68123 0.0
C398 C 0.86604 0.44825 0.65711 0.0
C399 C 0.88854 0.47729 0.64623 0.0
N400 N 0.88534 0.42604 0.67937 0.0
N401 N 0.92157 0.47268 0.66189 0.0
H402 H 0.94185 0.43083 0.69657 0.0
H403 H 0.83764 0.44367 0.64936 0.0
C404 C 0.79902 0.42681 0.72599 0.0
O405 O 0.76318 0.42658 0.72035 0.0
N406 N 0.85288 0.33355 0.72255 0.0
C407 C 0.87421 0.30396 0.73132 0.0
C408 C 0.85235 0.27692 0.74628 0.0
C409 C 0.81818 0.32365 0.73186 0.0
N410 N 0.81726 0.28937 0.74648 0.0
C411 C 0.88375 0.36064 0.63014 0.0
C412 C 0.81124 0.35276 0.6083 0.0
C413 C 0.83951 0.35425 0.58271 0.0
C414 C 0.87618 0.35676 0.59414 0.0
C415 C 0.82003 0.35703 0.64436 0.0
N416 N 0.85585 0.36253 0.65459 0.0
H417 H 0.91206 0.365 0.63809 0.0
H418 H 0.79783 0.35773 0.66361 0.0
H419 H 0.90365 0.30155 0.72692 0.0
H420 H 0.79392 0.34079 0.72794 0.0
O421 O 0.91974 0.36279 0.70276 0.0
O422 O 0.89231 0.39312 0.74676 0.0
O423 O 0.81802 0.40218 0.70899 0.0
C424 C 0.92192 0.37667 0.73457 0.0
H425 H 0.88107 0.5003 0.62911 0.0
H426 H 0.86128 0.24964 0.75512 0.0
H427 H 0.78256 0.35054 0.60041 0.0
H428 H 0.89882 0.35743 0.57519 0.0
Co429 Co 0.60945 0.85827 0.7382 0.0
C430 C 0.67242 0.80691 0.75494 0.0
C431 C 0.65185 0.83609 0.80068 0.0
C432 C 0.68043 0.81334 0.81111 0.0
N433 N 0.6467 0.83204 0.76547 0.0
N434 N 0.6934 0.79497 0.78231 0.0
H435 H 0.67643 0.79789 0.72791 0.0
H436 H 0.63599 0.85451 0.8177 0.0
C437 C 0.66543 0.91869 0.75802 0.0
O438 O 0.69429 0.89655 0.75552 0.0
N439 N 0.57237 0.88476 0.71169 0.0
C440 C 0.555 0.87338 0.68203 0.0
C441 C 0.53222 0.90173 0.6706 0.0
C442 C 0.55973 0.9194 0.71824 0.0
N443 N 0.53534 0.93059 0.69343 0.0
C444 C 0.63257 0.81737 0.67717 0.0
C445 C 0.6606 0.87712 0.63954 0.0
C446 C 0.65442 0.84334 0.62178 0.0
C447 C 0.64132 0.81294 0.64129 0.0
C448 C 0.65097 0.88058 0.67548 0.0
N449 N 0.6365 0.85104 0.69377 0.0
H450 H 0.62061 0.79405 0.69115 0.0
H451 H 0.65242 0.90784 0.68743 0.0
H452 H 0.55886 0.84655 0.6694 0.0
H453 H 0.56884 0.9364 0.74025 0.0
O454 O 0.57791 0.81436 0.73733 0.0
O455 O 0.57697 0.85806 0.77889 0.0
O456 O 0.63324 0.90738 0.74953 0.0
C457 C 0.56288 0.82763 0.7662 0.0
H458 H 0.69043 0.81025 0.83798 0.0
H459 H 0.51462 0.90106 0.64744 0.0
H460 H 0.67005 0.90145 0.62513 0.0
H461 H 0.63618 0.78639 0.62849 0.0
Co462 Co 0.13258 0.61231 0.71841 0.0
C463 C 0.18382 0.67255 0.74369 0.0
C464 C 0.14855 0.65051 0.78441 0.0
C465 C 0.17031 0.67761 0.79919 0.0
N466 N 0.1568 0.64739 0.7496 0.0
N467 N 0.19258 0.69147 0.77361 0.0
H468 H 0.19708 0.67696 0.71841 0.0
H469 H 0.1276 0.63442 0.79806 0.0
C470 C 0.07048 0.66457 0.74367 0.0
O471 O 0.09061 0.69477 0.74001 0.0
N472 N 0.10739 0.5771 0.68871 0.0
C473 C 0.11696 0.56403 0.65636 0.0
C474 C 0.08746 0.54414 0.64293 0.0
C475 C 0.07301 0.56476 0.69476 0.0
N476 N 0.0599 0.54492 0.66724 0.0
C477 C 0.17084 0.64529 0.66021 0.0
C478 C 0.10836 0.66378 0.62217 0.0
C479 C 0.14245 0.66173 0.60408 0.0
C480 C 0.17414 0.65434 0.62425 0.0
C481 C 0.10632 0.65517 0.65851 0.0
N482 N 0.13717 0.64453 0.67682 0.0
H483 H 0.19522 0.63542 0.67372 0.0
H484 H 0.0793 0.65293 0.67058 0.0
H485 H 0.14287 0.5697 0.64297 0.0
H486 H 0.0573 0.5716 0.71837 0.0
O487 O 0.17782 0.58324 0.71292 0.0
O488 O 0.13589 0.57526 0.75528 0.0
O489 O 0.08295 0.63287 0.73378 0.0
C490 C 0.16669 0.56459 0.74059 0.0
H491 H 0.16912 0.68684 0.82653 0.0
H492 H 0.0863 0.53056 0.61728 0.0
H493 H 0.08293 0.6689 0.60791 0.0
H494 H 0.20124 0.65318 0.61194 0.0
Co495 Co 0.38419 0.14176 0.72853 0.0
C496 C 0.32074 0.19216 0.74998 0.0
C497 C 0.34656 0.16388 0.79349 0.0
C498 C 0.3191 0.18622 0.80689 0.0
N499 N 0.34801 0.16767 0.75784 0.0
N500 N 0.30293 0.20401 0.77962 0.0
H501 H 0.3138 0.20127 0.72355 0.0
H502 H 0.36397 0.14552 0.80888 0.0
C503 C 0.32917 0.08221 0.75191 0.0
O504 O 0.30139 0.10583 0.75288 0.0
N505 N 0.42088 0.11523 0.70121 0.0
C506 C 0.43573 0.12375 0.66935 0.0
C507 C 0.46033 0.09587 0.66003 0.0
C508 C 0.43699 0.08317 0.71118 0.0
N509 N 0.46101 0.07053 0.6865 0.0
C510 C 0.3562 0.18221 0.6691 0.0
C511 C 0.33952 0.11983 0.62917 0.0
C512 C 0.34263 0.15437 0.612 0.0
C513 C 0.34925 0.18609 0.63272 0.0
C514 C 0.3458 0.11726 0.66577 0.0
N515 N 0.35565 0.14799 0.68506 0.0
H516 H 0.36508 0.20644 0.68382 0.0
H517 H 0.34676 0.08986 0.6775 0.0
H518 H 0.42896 0.14819 0.6539 0.0
H519 H 0.43072 0.0691 0.73585 0.0
O520 O 0.41482 0.18615 0.72579 0.0
O521 O 0.41806 0.14288 0.76768 0.0
O522 O 0.36098 0.0924 0.74073 0.0
C523 C 0.43081 0.17362 0.75431 0.0
H524 H 0.31099 0.1885 0.83453 0.0
H525 H 0.47653 0.09444 0.63582 0.0
H526 H 0.33447 0.09465 0.61405 0.0
H527 H 0.35217 0.21322 0.62045 0.0
C528 C 0.979 0.52181 0.20542 0.0
C529 C 0.9684 0.5371 0.17268 0.0
H530 H 0.00546 0.47704 0.23246 0.0
C531 C 0.97796 0.51834 0.14117 0.0
H532 H 0.9725 0.5358 0.23016 0.0
C533 C -0.00263 0.48463 0.14248 0.0
C534 C 0.00767 0.46928 0.17532 0.0
H535 H 0.96986 0.52934 0.11561 0.0
H536 H 0.00464 0.47083 0.11784 0.0
C537 C -0.00172 0.48826 0.20673 0.0
C538 C 0.47685 0.04816 0.1506 0.0
C539 C 0.50919 0.02671 0.14759 0.0
H540 H 0.41941 0.04846 0.16428 0.0
C541 C 0.50676 0.98773 0.14793 0.0
H542 H 0.47824 0.07831 0.14984 0.0
C543 C 0.47326 0.97066 0.15645 0.0
C544 C 0.44199 0.99254 0.16454 0.0
H545 H 0.53144 0.97073 0.14571 0.0
H546 H 0.47306 0.9408 0.16051 0.0
C547 C 0.44339 0.03115 0.15893 0.0
C548 C 0.9728 0.48932 0.33224 0.0
C549 C 0.96376 0.46892 0.36286 0.0
H550 H -0.00194 0.53823 0.31088 0.0
C551 C 0.973 0.48353 0.39633 0.0
H552 H 0.96623 0.47872 0.30609 0.0
C553 C 0.99135 0.51765 0.39908 0.0
C554 C 0.00107 0.53761 0.3684 0.0
H555 H 0.96591 0.46868 0.42041 0.0
H556 H -0.00123 0.52792 0.42513 0.0
C557 C 0.99131 0.52325 0.33498 0.0
C558 C 0.51673 0.00545 0.43257 0.0
C559 C 0.53658 -0.00271 0.40151 0.0
H560 H 0.46618 0.02681 0.45464 0.0
C561 C 0.52099 0.00491 0.36836 0.0
H562 H 0.52837 -0.00099 0.45829 0.0
C563 C 0.4856 0.01981 0.36607 0.0
C564 C 0.46506 0.02764 0.39699 0.0
H565 H 0.5359 -0.00204 0.34419 0.0
H566 H 0.47402 0.02414 0.33996 0.0
C567 C 0.48111 0.02066 0.43036 0.0
C568 C 0.97374 0.48756 0.90985 0.0
C569 C 0.97005 0.52644 0.90879 0.0
H570 H 0.00966 0.44123 0.9009 0.0
C571 C 0.00181 0.54874 0.9072 0.0
H572 H 0.94952 0.4699 0.91107 0.0
C573 C 0.03631 0.53244 0.90169 0.0
C574 C 0.03933 0.4937 0.89729 0.0
H575 H -0.00057 0.57884 0.90696 0.0
H576 H 0.06004 0.55026 0.89737 0.0
C577 C 0.00827 0.47119 0.90405 0.0
C578 C 0.48879 0.98832 0.91517 0.0
C579 C 0.47793 0.97112 0.88334 0.0
H580 H 0.51682 0.0344 0.93926 0.0
C581 C 0.48709 0.98798 0.85086 0.0
H582 H 0.48174 0.97614 0.94059 0.0
C583 C 0.50646 0.02138 0.85012 0.0
C584 C 0.51746 0.03864 0.88184 0.0
H585 H 0.4795 0.97524 0.82586 0.0
H586 H 0.51267 0.03375 0.82459 0.0
C587 C 0.50834 0.0219 0.91443 0.0
C588 C 0.97141 0.50604 0.63061 0.0
C589 C 0.95302 0.49662 0.66217 0.0
H590 H 0.0207 0.52894 0.60741 0.0
C591 C 0.96914 0.50508 0.69491 0.0
H592 H 0.95941 0.49912 0.60515 0.0
C593 C 0.00399 0.52088 0.69635 0.0
C594 C 0.02346 0.52921 0.665 0.0
H595 H 0.95532 0.49767 0.71949 0.0
H596 H 0.01611 0.52522 0.72223 0.0
C597 C 0.00659 0.52229 0.632 0.0
C598 C 0.49191 0.0211 0.72085 0.0
C599 C 0.48137 0.03608 0.68794 0.0
H600 H 0.51692 0.97563 0.74841 0.0
C601 C 0.48946 0.01609 0.65675 0.0
H602 H 0.48641 0.03604 0.74532 0.0
C603 C 0.50709 0.98143 0.65852 0.0
C604 C 0.51723 0.96627 0.69148 0.0
H605 H 0.48138 0.02681 0.63107 0.0
H606 H 0.51299 0.96661 0.63407 0.0
C607 C 0.50969 0.98662 0.7226 0.0
C608 C 0.22524 0.26609 0.31285 0.0
C609 C 0.21167 0.27603 0.27919 0.0
H610 H 0.2614 0.23123 0.34273 0.0
C611 C 0.22399 0.25581 0.24937 0.0
H612 H 0.21611 0.28049 0.33657 0.0
C613 C 0.24942 0.22679 0.25305 0.0
C614 C 0.26366 0.21742 0.28659 0.0
H615 H 0.21458 0.26268 0.22296 0.0
H616 H 0.25788 0.21183 0.22942 0.0
C617 C 0.25101 0.2373 0.31648 0.0
C618 C 0.73817 0.26501 0.23655 0.0
C619 C 0.75672 0.274 0.26821 0.0
H620 H 0.69677 0.2326 0.21116 0.0
C621 C 0.74637 0.25504 0.29949 0.0
H622 H 0.74491 0.27852 0.21175 0.0
C623 C 0.71886 0.22765 0.29891 0.0
C624 C 0.70069 0.21859 0.26713 0.0
H625 H 0.75935 0.26109 0.32462 0.0
H626 H 0.71231 0.21326 0.32336 0.0
C627 C 0.7105 0.238 0.23608 0.0
C628 C 0.71056 0.76145 0.26064 0.0
C629 C 0.70842 0.78016 0.29344 0.0
H630 H 0.74029 0.72203 0.22845 0.0
C631 C 0.73693 0.77546 0.31817 0.0
H632 H 0.68915 0.76504 0.24094 0.0
C633 C 0.76598 0.7509 0.31104 0.0
C634 C 0.76726 0.73094 0.27891 0.0
H635 H 0.7359 0.78945 0.34365 0.0
H636 H 0.78706 0.74682 0.33099 0.0
C637 C 0.73991 0.7372 0.25333 0.0
C638 C 0.22154 0.7477 0.24997 0.0
C639 C 0.21671 0.72551 0.28036 0.0
H640 H 0.25605 0.7863 0.22212 0.0
C641 C 0.2433 0.72689 0.30735 0.0
H642 H 0.20124 0.74744 0.22893 0.0
C643 C 0.27482 0.74908 0.30339 0.0
C644 C 0.28001 0.77063 0.27257 0.0
H645 H 0.2403 0.7099 0.33093 0.0
H646 H 0.29515 0.74934 0.32439 0.0
C647 C 0.25275 0.77014 0.24618 0.0
C648 C 0.74965 0.76682 0.8084 0.0
C649 C 0.72302 0.76786 0.78129 0.0
H650 H 0.79726 0.73953 0.82972 0.0
C651 C 0.72545 0.74146 0.75365 0.0
H652 H 0.74929 0.7871 0.82968 0.0
C653 C 0.75332 0.71433 0.75356 0.0
C654 C 0.7792 0.71278 0.78121 0.0
H655 H 0.7053 0.74101 0.73253 0.0
H656 H 0.75387 0.69382 0.73244 0.0
C657 C 0.77728 0.73957 0.80841 0.0
C658 C 0.23309 0.73036 0.81126 0.0
C659 C 0.21935 0.72094 0.77753 0.0
H660 H 0.26693 0.76676 0.84187 0.0
C661 C 0.23166 0.7413 0.7479 0.0
H662 H 0.2248 0.71503 0.83468 0.0
C663 C 0.25666 0.77058 0.75196 0.0
C664 C 0.26977 0.7805 0.7858 0.0
H665 H 0.22157 0.7352 0.72154 0.0
H666 H 0.26559 0.78536 0.72845 0.0
C667 C 0.2578 0.75985 0.81536 0.0
C668 C 0.26831 0.25231 0.81238 0.0
C669 C 0.27205 0.22916 0.78242 0.0
H670 H 0.23436 0.29125 0.84079 0.0
C671 C 0.24415 0.22927 0.75665 0.0
H672 H 0.28962 0.25303 0.83246 0.0
C673 C 0.21241 0.25108 0.7615 0.0
C674 C 0.20827 0.27349 0.79197 0.0
H675 H 0.2463 0.21154 0.73344 0.0
H676 H 0.19104 0.25029 0.74149 0.0
C677 C 0.23684 0.27438 0.81703 0.0
C678 C 0.75391 0.26841 0.73468 0.0
C679 C 0.78525 0.26832 0.75645 0.0
H680 H 0.70123 0.24368 0.72398 0.0
C681 C 0.7861 0.2452 0.78651 0.0
H682 H 0.75286 0.28584 0.71125 0.0
C683 C 0.75641 0.22164 0.79409 0.0
C684 C 0.72599 0.2203 0.77119 0.0
H685 H 0.81004 0.24493 0.80366 0.0
H686 H 0.7579 0.20321 0.81679 0.0
C687 C 0.72465 0.24425 0.74178 0.0
C688 C 0.17409 0.39518 0.04806 0.0
C689 C 0.16115 0.36413 0.06738 0.0
H690 H 0.18066 0.42149 0.99778 0.0
C691 C 0.1493 0.33284 0.04775 0.0
H692 H 0.18472 0.41956 0.06145 0.0
C693 C 0.14918 0.33309 1.01058 0.0
C694 C 0.1594 0.36516 0.99137 0.0
H695 H 0.13865 0.30821 0.06069 0.0
H696 H 0.14015 0.30807 0.99716 0.0
C697 C 0.17259 0.39596 1.01087 0.0
C698 C 0.62536 0.13419 1.00253 0.0
C699 C 0.65589 0.15161 0.98652 0.0
H700 H 0.59596 0.12268 0.05073 0.0
C701 C 0.68045 0.17206 1.00775 0.0
H702 H 0.60581 0.11865 0.9866 0.0
C703 C 0.67504 0.17404 0.04468 0.0
C704 C 0.64437 0.15658 0.06063 0.0
H705 H 0.70402 0.18593 0.99586 0.0
H706 H 0.6947 0.18923 0.06076 0.0
C707 C 0.6195 0.13688 0.03911 0.0
C708 C 0.83813 0.62162 1.00678 0.0
C709 C 0.83084 0.65424 0.98764 0.0
H710 H 0.84266 0.59582 0.05745 0.0
C711 C 0.81984 0.6865 1.00601 0.0
H712 H 0.84696 0.59651 0.99307 0.0
C713 C 0.81643 0.68607 0.04322 0.0
C714 C 0.82434 0.65343 0.06271 0.0
H715 H 0.81405 0.71196 0.99163 0.0
H716 H 0.80777 0.71134 0.05665 0.0
C717 C 0.83518 0.62123 0.04376 0.0
C718 C 0.33755 0.83437 1.01708 0.0
C719 C 0.32487 0.86591 0.99832 0.0
H720 H 0.34764 0.80858 0.06702 0.0
C721 C 0.3117 0.89638 1.01846 0.0
H722 H 0.34855 0.81024 1.00341 0.0
C723 C 0.3134 0.89626 0.05565 0.0
C724 C 0.32714 0.86512 0.07431 0.0
H725 H 0.30062 0.92094 1.00569 0.0
H726 H 0.30497 0.92136 0.06944 0.0
C727 C 0.33799 0.83374 0.05425 0.0
C728 C 0.12089 0.68444 0.5071 0.0
C729 C 0.1451 0.66034 0.48855 0.0
H730 H 0.10141 0.70443 0.55755 0.0
C731 C 0.16962 0.63829 0.50845 0.0
H732 H 0.10116 0.70151 0.49291 0.0
C733 C 0.16926 0.63949 0.54564 0.0
C734 C 0.14455 0.663 0.56427 0.0
H735 H 0.18893 0.61966 0.49532 0.0
H736 H 0.18768 0.62092 0.55974 0.0
C737 C 0.12065 0.68577 0.54437 0.0
C738 C 0.32349 0.18394 0.51655 0.0
C739 C 0.34841 0.16122 0.49745 0.0
H740 H 0.30241 0.2 0.56792 0.0
C741 C 0.37106 0.13636 0.51633 0.0
H742 H 0.30554 0.20316 0.50264 0.0
C743 C 0.36856 0.13385 0.55335 0.0
C744 C 0.34378 0.15657 0.57251 0.0
H745 H 0.39009 0.11809 0.50234 0.0
H746 H 0.38635 0.11434 0.5671 0.0
C747 C 0.3216 0.18204 0.55379 0.0
C748 C 0.84289 0.38732 0.48766 0.0
C749 C 0.82273 0.35969 0.46972 0.0
H750 H 0.8637 0.40708 0.53726 0.0
C751 C 0.8058 0.33121 0.48971 0.0
H752 H 0.85685 0.40927 0.47315 0.0
C753 C 0.80982 0.32999 0.52677 0.0
C754 C 0.83141 0.35681 0.54424 0.0
H755 H 0.79008 0.30956 0.47661 0.0
H756 H 0.79732 0.30737 0.54156 0.0
C757 C 0.84723 0.38583 0.52438 0.0
C758 C 0.62598 0.83091 0.52598 0.0
C759 C 0.65746 0.8432 0.50719 0.0
H760 H 0.6007 0.82114 0.57664 0.0
C761 C 0.68911 0.85315 0.52686 0.0
H762 H 0.60071 0.82381 0.5123 0.0
C763 C 0.68855 0.85266 0.56409 0.0
C764 C 0.65674 0.84121 0.58249 0.0
H765 H 0.71423 0.86196 0.51362 0.0
H766 H 0.71287 0.86148 0.57851 0.0
C767 C 0.62578 0.82963 0.56306 0.0
C768 C 0.19108 0.52765 0.27713 0.0
C769 C 0.15995 0.54001 0.29654 0.0
H770 H 0.21477 0.48421 0.24458 0.0
C771 C 0.1292 0.51625 0.29923 0.0
H772 H 0.21522 0.54526 0.27447 0.0
C773 C 0.1287 0.48204 0.28172 0.0
C774 C 0.15914 0.47007 0.26133 0.0
H775 H 0.10488 0.52436 0.31424 0.0
H776 H 0.10411 0.46499 0.28412 0.0
C777 C 0.19076 0.49282 0.25985 0.0
C778 C 0.49632 0.13383 0.26009 0.0
C779 C 0.51548 0.16745 0.25462 0.0
H780 H 0.45038 0.1062 0.28394 0.0
C781 C 0.50076 0.20034 0.26963 0.0
H782 H 0.50688 0.10776 0.24964 0.0
C783 C 0.46772 0.19943 0.28961 0.0
C784 C 0.44921 0.1655 0.29561 0.0
H785 H 0.51492 0.22667 0.26621 0.0
H786 H 0.45703 0.22513 0.30083 0.0
C787 C 0.46394 0.13284 0.28036 0.0
C788 C 0.84411 0.47742 0.25823 0.0
C789 C 0.81385 0.46381 0.27776 0.0
H790 H 0.86799 0.52264 0.22995 0.0
C791 C 0.78249 0.4867 0.28203 0.0
H792 H 0.86846 0.46034 0.25381 0.0
C793 C 0.78236 0.52325 0.26844 0.0
C794 C 0.81342 0.53718 0.25006 0.0
H795 H 0.7587 0.47687 0.29684 0.0
H796 H 0.75847 0.54085 0.27321 0.0
C797 C 0.8438 0.51335 0.24442 0.0
C798 C 0.49909 0.88073 0.32894 0.0
C799 C 0.531 0.88592 0.30808 0.0
H800 H 0.43998 0.87602 0.33002 0.0
C801 C 0.52735 0.88916 0.27108 0.0
H802 H 0.50106 0.8782 0.35753 0.0
C803 C 0.49241 0.88674 0.25523 0.0
C804 C 0.4605 0.88215 0.27624 0.0
H805 H 0.55153 0.89303 0.25439 0.0
H806 H 0.49024 0.88934 0.22664 0.0
C807 C 0.46415 0.87946 0.31323 0.0
C808 C 0.86086 0.50058 0.76855 0.0
C809 C 0.83528 0.52051 0.78944 0.0
H810 H 0.87051 0.45544 0.73387 0.0
C811 C 0.79905 0.50703 0.79221 0.0
H812 H 0.8893 0.50978 0.7663 0.0
C813 C 0.78829 0.47543 0.77289 0.0
C814 C 0.81352 0.45622 0.75056 0.0
H815 H 0.77874 0.52148 0.80841 0.0
H816 H 0.75971 0.46665 0.77482 0.0
C817 C 0.85012 0.46882 0.74972 0.0
C818 C 0.4972 0.81204 0.75542 0.0
C819 C 0.52667 0.81493 0.7794 0.0
H820 H 0.43848 0.81652 0.74854 0.0
C821 C 0.51913 0.81551 0.816 0.0
H822 H 0.50235 0.81232 0.72704 0.0
C823 C 0.48257 0.8165 0.82834 0.0
C824 C 0.45322 0.81835 0.80412 0.0
H825 H 0.54146 0.81831 0.83491 0.0
H826 H 0.47753 0.82031 0.85651 0.0
C827 C 0.46068 0.81446 0.76768 0.0
C828 C 0.19037 0.4633 0.73708 0.0
C829 C 0.18901 0.45427 0.77346 0.0
H830 H 0.18522 0.50647 0.69802 0.0
C831 C 0.19104 0.48347 0.79844 0.0
H832 H 0.18953 0.44159 0.71707 0.0
C833 C 0.18723 0.52053 0.78747 0.0
C834 C 0.18368 0.52904 0.75131 0.0
H835 H 0.19078 0.47766 0.82666 0.0
H836 H 0.1841 0.54219 0.80736 0.0
C837 C 0.18797 0.50051 0.72609 0.0
C838 C 0.49629 0.18898 0.7431 0.0
C839 C 0.46636 0.18796 0.76691 0.0
H840 H 0.55508 0.18352 0.73723 0.0
C841 C 0.47299 0.19007 0.80355 0.0
H842 H 0.49174 0.18657 0.71476 0.0
C843 C 0.50922 0.18962 0.81634 0.0
C844 C 0.53898 0.18569 0.7926 0.0
H845 H 0.4502 0.18869 0.8223 0.0
H846 H 0.51362 0.18775 0.84474 0.0
C847 C 0.53247 0.18715 0.75592 0.0
C848 C 0.63753 0.00908 0.80213 0.0
C849 C 0.6701 0.03034 0.80097 0.0
H850 H 0.61077 0.95797 0.78978 0.0
C851 C 0.70237 0.01383 0.78677 0.0
H852 H 0.61219 0.02035 0.81314 0.0
C853 C 0.70159 0.97716 0.77327 0.0
C854 C 0.6684 0.95673 0.77335 0.0
H855 H 0.72797 0.02939 0.7855 0.0
H856 H 0.72656 0.96522 0.76202 0.0
C857 C 0.63666 0.97307 0.78844 0.0
C858 C 0.97886 0.69822 0.78394 0.0
C859 C 0.96484 0.66499 0.7987 0.0
H860 H 0.02342 0.72452 0.75524 0.0
C861 C 0.9863 0.63239 0.79565 0.0
H862 H 0.96298 0.72381 0.78558 0.0
C863 C 0.02022 0.63266 0.77777 0.0
C864 C 0.03419 0.66562 0.76263 0.0
H865 H 0.97642 0.60611 0.80605 0.0
H866 H 0.03554 0.60674 0.77587 0.0
C867 C 0.0134 0.69862 0.76643 0.0
C868 C 0.29395 0.03309 0.78664 0.0
C869 C 0.32579 0.04441 0.76781 0.0
H870 H 0.2687 0.99083 0.8193 0.0
C871 C 0.35635 0.02017 0.76664 0.0
H872 H 0.26991 0.05109 0.78814 0.0
C873 C 0.35588 0.98643 0.78481 0.0
C874 C 0.32464 0.97537 0.80447 0.0
H875 H 0.38123 0.02747 0.75219 0.0
H876 H 0.38033 0.96895 0.78336 0.0
C877 C 0.29331 -0.00129 0.80465 0.0
C878 C 0.95942 0.38106 0.79066 0.0
C879 C 0.95763 0.37693 0.7536 0.0
H880 H -0.00537 0.38493 0.83642 0.0
C881 C 0.99072 0.37374 0.73406 0.0
H882 H 0.93434 0.38363 0.80632 0.0
C883 C 0.02491 0.3754 0.75102 0.0
C884 C 0.02682 0.3792 0.78802 0.0
H885 H 0.99026 0.3708 0.70542 0.0
H886 H 0.04992 0.37345 0.73514 0.0
C887 C -0.00619 0.38164 0.80783 0.0
C888 C 0.29373 0.98071 0.26711 0.0
C889 C 0.29664 0.95198 0.29243 0.0
H890 H 0.30013 0.03923 0.25723 0.0
C891 C 0.2961 0.96163 0.3287 0.0
H892 H 0.29331 0.97439 0.23897 0.0
C893 C 0.2986 -0.00097 0.33911 0.0
C894 C 0.30216 0.02707 0.3134 0.0
H895 H 0.29761 0.94029 0.34897 0.0
H896 H 0.30209 0.0055 0.36702 0.0
C897 C 0.29761 0.01794 0.27748 0.0
C898 C -0.00131 0.3133 0.23128 0.0
C899 C 0.02661 0.31557 0.25698 0.0
H900 H 0.94033 0.31593 0.22149 0.0
C901 C 0.01699 0.3128 0.29305 0.0
H902 H 0.00539 0.31616 0.20333 0.0
C903 C 0.97978 0.31133 0.30338 0.0
C904 C 0.95178 0.31409 0.2778 0.0
H905 H 0.03804 0.31511 0.31331 0.0
H906 H 0.97305 0.31265 0.33144 0.0
C907 C 0.96146 0.31327 0.24165 0.0
C908 C 0.63754 0.97749 0.30329 0.0
C909 C 0.67355 0.96383 0.29849 0.0
H910 H 0.59739 0.01883 0.28993 0.0
C911 C 0.69612 0.98125 0.27269 0.0
H912 H 0.61912 0.96567 0.32232 0.0
C913 C 0.68367 0.01239 0.25377 0.0
C914 C 0.64835 0.02701 0.26032 0.0
H915 H 0.72409 0.97155 0.26783 0.0
H916 H 0.70207 0.02557 0.23482 0.0
C917 C 0.62512 0.00867 0.28464 0.0
C918 C 0.98242 0.68605 0.23612 0.0
C919 C 0.95137 0.68465 0.25852 0.0
H920 H 0.04158 0.68268 0.23306 0.0
C921 C 0.95608 0.68753 0.2954 0.0
H922 H 0.97935 0.683 0.20764 0.0
C923 C 0.9916 0.68862 0.30987 0.0
C924 C 0.02266 0.68541 0.28761 0.0
H925 H 0.93242 0.68582 0.31309 0.0
H926 H -0.00538 0.68754 0.33848 0.0
C927 C 0.01794 0.68577 0.25062 0.0
loop_
_geom_bond_atom_site_label_1
_geom_bond_atom_site_label_2
_geom_bond_distance
_geom_bond_site_symmetry_2
_ccdc_geom_bond_type
Co0 N4 2.148 . S
Co0 N10 2.128 . S
Co0 N20 2.194 . S
Co0 O25 2.351 . S
Co0 O26 2.155 . S
Co0 O27 2.096 . S
C1 N4 1.301 . S
C1 N5 1.328 . S
C1 H6 0.930 . S
C2 C3 1.333 . S
C2 N4 1.317 . S
C2 H7 0.930 . S
C3 C2 1.333 . S
C3 N5 1.350 . S
C3 H29 0.931 . S
N4 Co0 2.148 . S
N4 C1 1.301 . S
N4 C2 1.317 . S
N5 C1 1.328 . S
N5 C3 1.350 . S
H6 C1 0.930 . S
H7 C2 0.930 . S
C8 O9 1.224 . S
C8 O27 1.247 . S
O9 C8 1.224 . S
N10 Co0 2.128 . S
N10 C11 1.355 . S
N10 C13 1.311 . S
C11 N10 1.355 . S
C11 C12 1.363 . S
C11 H23 0.929 . S
C12 C11 1.363 . S
C12 N14 1.375 . S
C12 H30 0.950 . S
C13 N10 1.311 . S
C13 N14 1.347 . S
C13 H24 0.929 . S
N14 C12 1.375 . S
N14 C13 1.347 . S
C15 C18 1.365 . S
C15 N20 1.328 . S
C15 H21 0.929 . S
C16 C17 1.362 . S
C16 C19 1.378 . S
C16 H31 0.929 . S
C17 C16 1.362 . S
C17 C18 1.366 . S
C18 C15 1.365 . S
C18 C17 1.366 . S
C18 H32 0.930 . S
C19 C16 1.378 . S
C19 N20 1.315 . S
C19 H22 0.930 . S
N20 Co0 2.194 . S
N20 C15 1.328 . S
N20 C19 1.315 . S
H21 C15 0.929 . S
H22 C19 0.930 . S
H23 C11 0.929 . S
H24 C13 0.929 . S
O25 Co0 2.351 . S
O25 C28 1.244 . S
O26 Co0 2.155 . S
O26 C28 1.240 . S
O27 Co0 2.096 . S
O27 C8 1.247 . S
C28 O25 1.244 . S
C28 O26 1.240 . S
H29 C3 0.931 . S
H30 C12 0.950 . S
H31 C16 0.929 . S
H32 C18 0.930 . S
Co33 N37 2.148 . S
Co33 N43 2.128 . S
Co33 N53 2.194 . S
Co33 O58 2.351 . S
Co33 O59 2.155 . S
Co33 O60 2.096 . S
C34 N37 1.301 . S
C34 N38 1.328 . S
C34 H39 0.930 . S
C35 C36 1.333 . S
C35 N37 1.317 . S
C35 H40 0.930 . S
C36 C35 1.333 . S
C36 N38 1.350 . S
C36 H62 0.931 . S
N37 Co33 2.148 . S
N37 C34 1.301 . S
N37 C35 1.317 . S
N38 C34 1.328 . S
N38 C36 1.350 . S
H39 C34 0.930 . S
H40 C35 0.930 . S
C41 O42 1.224 . S
C41 O60 1.247 . S
O42 C41 1.224 . S
N43 Co33 2.128 . S
N43 C44 1.355 . S
N43 C46 1.311 . S
C44 N43 1.355 . S
C44 C45 1.363 . S
C44 H56 0.929 . S
C45 C44 1.363 . S
C45 N47 1.375 . S
C45 H63 0.931 . S
C46 N43 1.311 . S
C46 N47 1.347 . S
C46 H57 0.929 . S
N47 C45 1.375 . S
N47 C46 1.347 . S
C48 C51 1.365 . S
C48 N53 1.328 . S
C48 H54 0.929 . S
C49 C50 1.362 . S
C49 C52 1.378 . S
C49 H64 0.929 . S
C50 C49 1.362 . S
C50 C51 1.366 . S
C51 C48 1.365 . S
C51 C50 1.366 . S
C51 H65 0.930 . S
C52 C49 1.378 . S
C52 N53 1.315 . S
C52 H55 0.930 . S
N53 Co33 2.194 . S
N53 C48 1.328 . S
N53 C52 1.315 . S
H54 C48 0.929 . S
H55 C52 0.930 . S
H56 C44 0.929 . S
H57 C46 0.929 . S
O58 Co33 2.351 . S
O58 C61 1.244 . S
O59 Co33 2.155 . S
O59 C61 1.240 . S
O60 Co33 2.096 . S
O60 C41 1.247 . S
C61 O58 1.244 . S
C61 O59 1.240 . S
H62 C36 0.931 . S
H63 C45 0.931 . S
H64 C49 0.929 . S
H65 C51 0.930 . S
Co66 N70 2.148 . S
Co66 N76 2.128 . S
Co66 N86 2.194 . S
Co66 O91 2.351 . S
Co66 O92 2.155 . S
Co66 O93 2.096 . S
C67 N70 1.301 . S
C67 N71 1.328 . S
C67 H72 0.930 . S
C68 C69 1.333 . S
C68 N70 1.317 . S
C68 H73 0.930 . S
C69 C68 1.333 . S
C69 N71 1.350 . S
C69 H95 0.931 . S
N70 Co66 2.148 . S
N70 C67 1.301 . S
N70 C68 1.317 . S
N71 C67 1.328 . S
N71 C69 1.350 . S
H72 C67 0.930 . S
H73 C68 0.930 . S
C74 O75 1.224 . S
C74 O93 1.247 . S
O75 C74 1.224 . S
N76 Co66 2.128 . S
N76 C77 1.355 . S
N76 C79 1.311 . S
C77 N76 1.355 . S
C77 C78 1.363 . S
C77 H89 0.929 . S
C78 C77 1.363 . S
C78 N80 1.375 . S
C78 H96 0.933 . S
C79 N76 1.311 . S
C79 N80 1.347 . S
C79 H90 0.929 . S
N80 C78 1.375 . S
N80 C79 1.347 . S
C81 C84 1.365 . S
C81 N86 1.328 . S
C81 H87 0.929 . S
C82 C83 1.362 . S
C82 C85 1.378 . S
C82 H97 0.929 . S
C83 C82 1.362 . S
C83 C84 1.366 . S
C84 C81 1.365 . S
C84 C83 1.366 . S
C84 H98 0.930 . S
C85 C82 1.378 . S
C85 N86 1.315 . S
C85 H88 0.930 . S
N86 Co66 2.194 . S
N86 C81 1.328 . S
N86 C85 1.315 . S
H87 C81 0.929 . S
H88 C85 0.930 . S
H89 C77 0.929 . S
H90 C79 0.929 . S
O91 Co66 2.351 . S
O91 C94 1.244 . S
O92 Co66 2.155 . S
O92 C94 1.240 . S
O93 Co66 2.096 . S
O93 C74 1.247 . S
C94 O91 1.244 . S
C94 O92 1.240 . S
H95 C69 0.931 . S
H96 C78 0.933 . S
H97 C82 0.929 . S
H98 C84 0.930 . S
Co99 N103 2.148 . S
Co99 N109 2.128 . S
Co99 N119 2.194 . S
Co99 O124 2.351 . S
Co99 O125 2.155 . S
Co99 O126 2.096 . S
C100 N103 1.301 . S
C100 N104 1.328 . S
C100 H105 0.930 . S
C101 C102 1.333 1_565 S
C101 N103 1.317 . S
C101 H106 0.930 . S
C102 C101 1.333 1_545 S
C102 N104 1.350 1_545 S
C102 H128 0.931 . S
N103 Co99 2.148 . S
N103 C100 1.301 . S
N103 C101 1.317 . S
N104 C100 1.328 . S
N104 C102 1.350 1_565 S
H105 C100 0.930 . S
H106 C101 0.930 . S
C107 O108 1.224 . S
C107 O126 1.247 . S
O108 C107 1.224 . S
N109 Co99 2.128 . S
N109 C110 1.355 . S
N109 C112 1.311 . S
C110 N109 1.355 . S
C110 C111 1.363 . S
C110 H122 0.929 . S
C111 C110 1.363 . S
C111 N113 1.375 . S
C111 H129 0.931 . S
C112 N109 1.311 . S
C112 N113 1.347 . S
C112 H123 0.929 . S
N113 C111 1.375 . S
N113 C112 1.347 . S
C114 C117 1.365 . S
C114 N119 1.328 . S
C114 H120 0.929 . S
C115 C116 1.362 . S
C115 C118 1.378 . S
C115 H130 0.929 . S
C116 C115 1.362 . S
C116 C117 1.366 . S
C117 C114 1.365 . S
C117 C116 1.366 . S
C117 H131 0.930 . S
C118 C115 1.378 . S
C118 N119 1.315 . S
C118 H121 0.930 . S
N119 Co99 2.194 . S
N119 C114 1.328 . S
N119 C118 1.315 . S
H120 C114 0.929 . S
H121 C118 0.930 . S
H122 C110 0.929 . S
H123 C112 0.929 . S
O124 Co99 2.351 . S
O124 C127 1.244 . S
O125 Co99 2.155 . S
O125 C127 1.240 . S
O126 Co99 2.096 . S
O126 C107 1.247 . S
C127 O124 1.244 . S
C127 O125 1.240 . S
H128 C102 0.931 . S
H129 C111 0.931 . S
H130 C115 0.929 . S
H131 C117 0.930 . S
Co132 N136 2.148 . S
Co132 N142 2.128 . S
Co132 N152 2.194 . S
Co132 O157 2.351 . S
Co132 O158 2.155 . S
Co132 O159 2.096 . S
C133 N136 1.301 . S
C133 N137 1.328 . S
C133 H138 0.930 . S
C134 C135 1.333 . S
C134 N136 1.317 . S
C134 H139 0.930 . S
C135 C134 1.333 . S
C135 N137 1.350 . S
C135 H161 0.931 . S
N136 Co132 2.148 . S
N136 C133 1.301 . S
N136 C134 1.317 . S
N137 C133 1.328 . S
N137 C135 1.350 . S
H138 C133 0.930 . S
H139 C134 0.930 . S
C140 O141 1.224 . S
C140 O159 1.247 . S
O141 C140 1.224 . S
N142 Co132 2.128 . S
N142 C143 1.355 . S
N142 C145 1.311 . S
C143 N142 1.355 . S
C143 C144 1.363 . S
C143 H155 0.929 . S
C144 C143 1.363 . S
C144 N146 1.375 . S
C144 H162 0.933 . S
C145 N142 1.311 . S
C145 N146 1.347 . S
C145 H156 0.929 . S
N146 C144 1.375 . S
N146 C145 1.347 . S
C147 C150 1.365 . S
C147 N152 1.328 . S
C147 H153 0.929 . S
C148 C149 1.362 . S
C148 C151 1.378 . S
C148 H163 0.929 . S
C149 C148 1.362 . S
C149 C150 1.366 . S
C150 C147 1.365 . S
C150 C149 1.366 . S
C150 H164 0.930 . S
C151 C148 1.378 . S
C151 N152 1.315 . S
C151 H154 0.930 . S
N152 Co132 2.194 . S
N152 C147 1.328 . S
N152 C151 1.315 . S
H153 C147 0.929 . S
H154 C151 0.930 . S
H155 C143 0.929 . S
H156 C145 0.929 . S
O157 Co132 2.351 . S
O157 C160 1.244 . S
O158 Co132 2.155 . S
O158 C160 1.240 . S
O159 Co132 2.096 . S
O159 C140 1.247 . S
C160 O157 1.244 . S
C160 O158 1.240 . S
H161 C135 0.931 . S
H162 C144 0.933 . S
H163 C148 0.929 . S
H164 C150 0.930 . S
Co165 N169 2.148 . S
Co165 N175 2.128 . S
Co165 N185 2.194 . S
Co165 O190 2.351 . S
Co165 O191 2.155 . S
Co165 O192 2.096 . S
C166 N169 1.301 . S
C166 N170 1.328 . S
C166 H171 0.930 . S
C167 C168 1.333 . S
C167 N169 1.317 . S
C167 H172 0.930 . S
C168 C167 1.333 . S
C168 N170 1.350 . S
C168 H194 0.931 . S
N169 Co165 2.148 . S
N169 C166 1.301 . S
N169 C167 1.317 . S
N170 C166 1.328 . S
N170 C168 1.350 . S
H171 C166 0.930 . S
H172 C167 0.930 . S
C173 O174 1.224 . S
C173 O192 1.247 . S
O174 C173 1.224 . S
N175 Co165 2.128 . S
N175 C176 1.355 . S
N175 C178 1.311 . S
C176 N175 1.355 . S
C176 C177 1.363 . S
C176 H188 0.929 . S
C177 C176 1.363 . S
C177 N179 1.375 . S
C177 H195 0.931 . S
C178 N175 1.311 . S
C178 N179 1.347 . S
C178 H189 0.929 . S
N179 C177 1.375 . S
N179 C178 1.347 . S
C180 C183 1.365 . S
C180 N185 1.328 . S
C180 H186 0.929 . S
C181 C182 1.362 . S
C181 C184 1.378 . S
C181 H196 0.929 . S
C182 C181 1.362 . S
C182 C183 1.366 . S
C183 C180 1.365 . S
C183 C182 1.366 . S
C183 H197 0.930 . S
C184 C181 1.378 . S
C184 N185 1.315 . S
C184 H187 0.930 . S
N185 Co165 2.194 . S
N185 C180 1.328 . S
N185 C184 1.315 . S
H186 C180 0.929 . S
H187 C184 0.930 . S
H188 C176 0.929 . S
H189 C178 0.929 . S
O190 Co165 2.351 . S
O190 C193 1.244 . S
O191 Co165 2.155 . S
O191 C193 1.240 . S
O192 Co165 2.096 . S
O192 C173 1.247 . S
C193 O190 1.244 . S
C193 O191 1.240 . S
H194 C168 0.931 . S
H195 C177 0.931 . S
H196 C181 0.929 . S
H197 C183 0.930 . S
Co198 N202 2.148 . S
Co198 N208 2.128 . S
Co198 N218 2.194 . S
Co198 O223 2.351 . S
Co198 O224 2.155 . S
Co198 O225 2.096 . S
C199 N202 1.301 . S
C199 N203 1.328 . S
C199 H204 0.930 . S
C200 C201 1.333 . S
C200 N202 1.317 . S
C200 H205 0.930 . S
C201 C200 1.333 . S
C201 N203 1.350 . S
C201 H227 0.931 . S
N202 Co198 2.148 . S
N202 C199 1.301 . S
N202 C200 1.317 . S
N203 C199 1.328 . S
N203 C201 1.350 . S
H204 C199 0.930 . S
H205 C200 0.930 . S
C206 O207 1.224 . S
C206 O225 1.247 . S
O207 C206 1.224 . S
N208 Co198 2.128 . S
N208 C209 1.355 . S
N208 C211 1.311 . S
C209 N208 1.355 . S
C209 C210 1.363 . S
C209 H221 0.929 . S
C210 C209 1.363 . S
C210 N212 1.375 . S
C210 H228 0.950 . S
C211 N208 1.311 . S
C211 N212 1.347 . S
C211 H222 0.929 . S
N212 C210 1.375 . S
N212 C211 1.347 . S
C213 C216 1.365 . S
C213 N218 1.328 . S
C213 H219 0.929 . S
C214 C215 1.362 . S
C214 C217 1.378 . S
C214 H229 0.929 . S
C215 C214 1.362 . S
C215 C216 1.366 . S
C216 C213 1.365 . S
C216 C215 1.366 . S
C216 H230 0.930 . S
C217 C214 1.378 . S
C217 N218 1.315 . S
C217 H220 0.930 . S
N218 Co198 2.194 . S
N218 C213 1.328 . S
N218 C217 1.315 . S
H219 C213 0.929 . S
H220 C217 0.930 . S
H221 C209 0.929 . S
H222 C211 0.929 . S
O223 Co198 2.351 . S
O223 C226 1.244 . S
O224 Co198 2.155 . S
O224 C226 1.240 . S
O225 Co198 2.096 . S
O225 C206 1.247 . S
C226 O223 1.244 . S
C226 O224 1.240 . S
H227 C201 0.931 . S
H228 C210 0.950 . S
H229 C214 0.929 . S
H230 C216 0.930 . S
Co231 N235 2.148 . S
Co231 N241 2.128 . S
Co231 N251 2.194 . S
Co231 O256 2.351 . S
Co231 O257 2.155 . S
Co231 O258 2.096 . S
C232 N235 1.301 . S
C232 N236 1.328 . S
C232 H237 0.930 . S
C233 C234 1.333 1_565 S
C233 N235 1.317 . S
C233 H238 0.930 . S
C234 C233 1.333 1_545 S
C234 N236 1.350 1_545 S
C234 H260 0.931 . S
N235 Co231 2.148 . S
N235 C232 1.301 . S
N235 C233 1.317 . S
N236 C232 1.328 . S
N236 C234 1.350 1_565 S
H237 C232 0.930 . S
H238 C233 0.930 . S
C239 O240 1.224 . S
C239 O258 1.247 . S
O240 C239 1.224 . S
N241 Co231 2.128 . S
N241 C242 1.355 . S
N241 C244 1.311 . S
C242 N241 1.355 . S
C242 C243 1.363 . S
C242 H254 0.929 . S
C243 C242 1.363 . S
C243 N245 1.375 . S
C243 H261 0.931 . S
C244 N241 1.311 . S
C244 N245 1.347 . S
C244 H255 0.929 . S
N245 C243 1.375 . S
N245 C244 1.347 . S
C246 C249 1.365 . S
C246 N251 1.328 . S
C246 H252 0.929 . S
C247 C248 1.362 . S
C247 C250 1.378 . S
C247 H262 0.929 . S
C248 C247 1.362 . S
C248 C249 1.366 . S
C249 C246 1.365 . S
C249 C248 1.366 . S
C249 H263 0.930 . S
C250 C247 1.378 . S
C250 N251 1.315 . S
C250 H253 0.930 . S
N251 Co231 2.194 . S
N251 C246 1.328 . S
N251 C250 1.315 . S
H252 C246 0.929 . S
H253 C250 0.930 . S
H254 C242 0.929 . S
H255 C244 0.929 . S
O256 Co231 2.351 . S
O256 C259 1.244 . S
O257 Co231 2.155 . S
O257 C259 1.240 . S
O258 Co231 2.096 . S
O258 C239 1.247 . S
C259 O256 1.244 . S
C259 O257 1.240 . S
H260 C234 0.931 . S
H261 C243 0.931 . S
H262 C247 0.929 . S
H263 C249 0.930 . S
Co264 N268 2.148 . S
Co264 N274 2.128 . S
Co264 N284 2.194 . S
Co264 O289 2.351 . S
Co264 O290 2.155 . S
Co264 O291 2.096 . S
C265 N268 1.301 . S
C265 N269 1.328 . S
C265 H270 0.930 . S
C266 C267 1.333 . S
C266 N268 1.317 . S
C266 H271 0.930 . S
C267 C266 1.333 . S
C267 N269 1.350 . S
C267 H293 0.931 . S
N268 Co264 2.148 . S
N268 C265 1.301 . S
N268 C266 1.317 . S
N269 C265 1.328 . S
N269 C267 1.350 . S
H270 C265 0.930 . S
H271 C266 0.930 . S
C272 O273 1.224 . S
C272 O291 1.247 . S
O273 C272 1.224 . S
N274 Co264 2.128 . S
N274 C275 1.355 . S
N274 C277 1.311 . S
C275 N274 1.355 . S
C275 C276 1.363 . S
C275 H287 0.929 . S
C276 C275 1.363 . S
C276 N278 1.375 . S
C276 H294 0.931 . S
C277 N274 1.311 . S
C277 N278 1.347 . S
C277 H288 0.929 . S
N278 C276 1.375 . S
N278 C277 1.347 . S
C279 C282 1.365 . S
C279 N284 1.328 . S
C279 H285 0.929 . S
C280 C281 1.362 . S
C280 C283 1.378 . S
C280 H295 0.929 . S
C281 C280 1.362 . S
C281 C282 1.366 . S
C282 C279 1.365 . S
C282 C281 1.366 . S
C282 H296 0.930 . S
C283 C280 1.378 . S
C283 N284 1.315 . S
C283 H286 0.930 . S
N284 Co264 2.194 . S
N284 C279 1.328 . S
N284 C283 1.315 . S
H285 C279 0.929 . S
H286 C283 0.930 . S
H287 C275 0.929 . S
H288 C277 0.929 . S
O289 Co264 2.351 . S
O289 C292 1.244 . S
O290 Co264 2.155 . S
O290 C292 1.240 . S
O291 Co264 2.096 . S
O291 C272 1.247 . S
C292 O289 1.244 . S
C292 O290 1.240 . S
H293 C267 0.931 . S
H294 C276 0.931 . S
H295 C280 0.929 . S
H296 C282 0.930 . S
Co297 N301 2.148 . S
Co297 N307 2.128 . S
Co297 N317 2.194 . S
Co297 O322 2.351 . S
Co297 O323 2.155 . S
Co297 O324 2.096 . S
C298 N301 1.301 . S
C298 N302 1.328 . S
C298 H303 0.930 . S
C299 C300 1.333 . S
C299 N301 1.317 . S
C299 H304 0.930 . S
C300 C299 1.333 . S
C300 N302 1.350 . S
C300 H326 0.931 . S
N301 Co297 2.148 . S
N301 C298 1.301 . S
N301 C299 1.317 . S
N302 C298 1.328 . S
N302 C300 1.350 . S
H303 C298 0.930 . S
H304 C299 0.930 . S
C305 O306 1.224 . S
C305 O324 1.247 . S
O306 C305 1.224 . S
N307 Co297 2.128 . S
N307 C308 1.355 . S
N307 C310 1.311 . S
C308 N307 1.355 . S
C308 C309 1.363 . S
C308 H320 0.929 . S
C309 C308 1.363 . S
C309 N311 1.375 . S
C309 H327 0.931 . S
C310 N307 1.311 . S
C310 N311 1.347 . S
C310 H321 0.929 . S
N311 C309 1.375 . S
N311 C310 1.347 . S
C312 C315 1.365 . S
C312 N317 1.328 . S
C312 H318 0.929 . S
C313 C314 1.362 . S
C313 C316 1.378 . S
C313 H328 0.929 . S
C314 C313 1.362 . S
C314 C315 1.366 . S
C315 C312 1.365 . S
C315 C314 1.366 . S
C315 H329 0.930 . S
C316 C313 1.378 . S
C316 N317 1.315 . S
C316 H319 0.930 . S
N317 Co297 2.194 . S
N317 C312 1.328 . S
N317 C316 1.315 . S
H318 C312 0.929 . S
H319 C316 0.930 . S
H320 C308 0.929 . S
H321 C310 0.929 . S
O322 Co297 2.351 . S
O322 C325 1.244 . S
O323 Co297 2.155 . S
O323 C325 1.240 . S
O324 Co297 2.096 . S
O324 C305 1.247 . S
C325 O322 1.244 . S
C325 O323 1.240 . S
H326 C300 0.931 . S
H327 C309 0.931 . S
H328 C313 0.929 . S
H329 C315 0.930 . S
Co330 N334 2.148 . S
Co330 N340 2.128 . S
Co330 N350 2.194 . S
Co330 O355 2.351 . S
Co330 O356 2.155 . S
Co330 O357 2.096 . S
C331 N334 1.301 . S
C331 N335 1.328 . S
C331 H336 0.930 . S
C332 C333 1.333 . S
C332 N334 1.317 . S
C332 H337 0.930 . S
C333 C332 1.333 . S
C333 N335 1.350 . S
C333 H359 0.931 . S
N334 Co330 2.148 . S
N334 C331 1.301 . S
N334 C332 1.317 . S
N335 C331 1.328 . S
N335 C333 1.350 . S
H336 C331 0.930 . S
H337 C332 0.930 . S
C338 O339 1.224 . S
C338 O357 1.247 . S
O339 C338 1.224 . S
N340 Co330 2.128 . S
N340 C341 1.355 . S
N340 C343 1.311 . S
C341 N340 1.355 . S
C341 C342 1.363 . S
C341 H353 0.929 . S
C342 C341 1.363 . S
C342 N344 1.375 . S
C342 H360 0.931 . S
C343 N340 1.311 . S
C343 N344 1.347 . S
C343 H354 0.929 . S
N344 C342 1.375 . S
N344 C343 1.347 . S
C345 C348 1.365 . S
C345 N350 1.328 . S
C345 H351 0.929 . S
C346 C347 1.362 . S
C346 C349 1.378 . S
C346 H361 0.929 . S
C347 C346 1.362 . S
C347 C348 1.366 . S
C348 C345 1.365 . S
C348 C347 1.366 . S
C348 H362 0.930 . S
C349 C346 1.378 . S
C349 N350 1.315 . S
C349 H352 0.930 . S
N350 Co330 2.194 . S
N350 C345 1.328 . S
N350 C349 1.315 . S
H351 C345 0.929 . S
H352 C349 0.930 . S
H353 C341 0.929 . S
H354 C343 0.929 . S
O355 Co330 2.351 . S
O355 C358 1.244 . S
O356 Co330 2.155 . S
O356 C358 1.240 . S
O357 Co330 2.096 . S
O357 C338 1.247 . S
C358 O355 1.244 . S
C358 O356 1.240 . S
H359 C333 0.931 . S
H360 C342 0.931 . S
H361 C346 0.929 . S
H362 C348 0.930 . S
Co363 N367 2.148 . S
Co363 N373 2.128 . S
Co363 N383 2.194 . S
Co363 O388 2.351 . S
Co363 O389 2.155 . S
Co363 O390 2.096 . S
C364 N367 1.301 . S
C364 N368 1.328 . S
C364 H369 0.930 . S
C365 C366 1.333 . S
C365 N367 1.317 . S
C365 H370 0.930 . S
C366 C365 1.333 . S
C366 N368 1.350 . S
C366 H392 0.931 . S
N367 Co363 2.148 . S
N367 C364 1.301 . S
N367 C365 1.317 . S
N368 C364 1.328 . S
N368 C366 1.350 . S
H369 C364 0.930 . S
H370 C365 0.930 . S
C371 O372 1.224 . S
C371 O390 1.247 . S
O372 C371 1.224 . S
N373 Co363 2.128 . S
N373 C374 1.355 . S
N373 C376 1.311 . S
C374 N373 1.355 . S
C374 C375 1.363 . S
C374 H386 0.929 . S
C375 C374 1.363 . S
C375 N377 1.375 . S
C375 H393 0.931 . S
C376 N373 1.311 . S
C376 N377 1.347 . S
C376 H387 0.929 . S
N377 C375 1.375 . S
N377 C376 1.347 . S
C378 C381 1.365 . S
C378 N383 1.328 . S
C378 H384 0.929 . S
C379 C380 1.362 . S
C379 C382 1.378 . S
C379 H394 0.929 . S
C380 C379 1.362 . S
C380 C381 1.366 . S
C381 C378 1.365 . S
C381 C380 1.366 . S
C381 H395 0.930 . S
C382 C379 1.378 . S
C382 N383 1.315 . S
C382 H385 0.930 . S
N383 Co363 2.194 . S
N383 C378 1.328 . S
N383 C382 1.315 . S
H384 C378 0.929 . S
H385 C382 0.930 . S
H386 C374 0.929 . S
H387 C376 0.929 . S
O388 Co363 2.351 . S
O388 C391 1.244 . S
O389 Co363 2.155 . S
O389 C391 1.240 . S
O390 Co363 2.096 . S
O390 C371 1.247 . S
C391 O388 1.244 . S
C391 O389 1.240 . S
H392 C366 0.931 . S
H393 C375 0.931 . S
H394 C379 0.929 . S
H395 C381 0.930 . S
Co396 N400 2.148 . S
Co396 N406 2.128 . S
Co396 N416 2.194 . S
Co396 O421 2.351 . S
Co396 O422 2.155 . S
Co396 O423 2.096 . S
C397 N400 1.301 . S
C397 N401 1.328 . S
C397 H402 0.930 . S
C398 C399 1.333 . S
C398 N400 1.317 . S
C398 H403 0.930 . S
C399 C398 1.333 . S
C399 N401 1.350 . S
C399 H425 0.931 . S
N400 Co396 2.148 . S
N400 C397 1.301 . S
N400 C398 1.317 . S
N401 C397 1.328 . S
N401 C399 1.350 . S
H402 C397 0.930 . S
H403 C398 0.930 . S
C404 O405 1.224 . S
C404 O423 1.247 . S
O405 C404 1.224 . S
N406 Co396 2.128 . S
N406 C407 1.355 . S
N406 C409 1.311 . S
C407 N406 1.355 . S
C407 C408 1.363 . S
C407 H419 0.929 . S
C408 C407 1.363 . S
C408 N410 1.375 . S
C408 H426 0.931 . S
C409 N406 1.311 . S
C409 N410 1.347 . S
C409 H420 0.929 . S
N410 C408 1.375 . S
N410 C409 1.347 . S
C411 C414 1.365 . S
C411 N416 1.328 . S
C411 H417 0.929 . S
C412 C413 1.362 . S
C412 C415 1.378 . S
C412 H427 0.929 . S
C413 C412 1.362 . S
C413 C414 1.366 . S
C414 C411 1.365 . S
C414 C413 1.366 . S
C414 H428 0.930 . S
C415 C412 1.378 . S
C415 N416 1.315 . S
C415 H418 0.930 . S
N416 Co396 2.194 . S
N416 C411 1.328 . S
N416 C415 1.315 . S
H417 C411 0.929 . S
H418 C415 0.930 . S
H419 C407 0.929 . S
H420 C409 0.929 . S
O421 Co396 2.351 . S
O421 C424 1.244 . S
O422 Co396 2.155 . S
O422 C424 1.240 . S
O423 Co396 2.096 . S
O423 C404 1.247 . S
C424 O421 1.244 . S
C424 O422 1.240 . S
H425 C399 0.931 . S
H426 C408 0.931 . S
H427 C412 0.929 . S
H428 C414 0.930 . S
Co429 N433 2.148 . S
Co429 N439 2.128 . S
Co429 N449 2.194 . S
Co429 O454 2.351 . S
Co429 O455 2.155 . S
Co429 O456 2.096 . S
C430 N433 1.301 . S
C430 N434 1.328 . S
C430 H435 0.930 . S
C431 C432 1.333 . S
C431 N433 1.317 . S
C431 H436 0.930 . S
C432 C431 1.333 . S
C432 N434 1.350 . S
C432 H458 0.931 . S
N433 Co429 2.148 . S
N433 C430 1.301 . S
N433 C431 1.317 . S
N434 C430 1.328 . S
N434 C432 1.350 . S
H435 C430 0.930 . S
H436 C431 0.930 . S
C437 O438 1.224 . S
C437 O456 1.247 . S
O438 C437 1.224 . S
N439 Co429 2.128 . S
N439 C440 1.355 . S
N439 C442 1.311 . S
C440 N439 1.355 . S
C440 C441 1.363 . S
C440 H452 0.929 . S
C441 C440 1.363 . S
C441 N443 1.375 . S
C441 H459 0.931 . S
C442 N439 1.311 . S
C442 N443 1.347 . S
C442 H453 0.929 . S
N443 C441 1.375 . S
N443 C442 1.347 . S
C444 C447 1.365 . S
C444 N449 1.328 . S
C444 H450 0.929 . S
C445 C446 1.362 . S
C445 C448 1.378 . S
C445 H460 0.929 . S
C446 C445 1.362 . S
C446 C447 1.366 . S
C447 C444 1.365 . S
C447 C446 1.366 . S
C447 H461 0.930 . S
C448 C445 1.378 . S
C448 N449 1.315 . S
C448 H451 0.930 . S
N449 Co429 2.194 . S
N449 C444 1.328 . S
N449 C448 1.315 . S
H450 C444 0.929 . S
H451 C448 0.930 . S
H452 C440 0.929 . S
H453 C442 0.929 . S
O454 Co429 2.351 . S
O454 C457 1.244 . S
O455 Co429 2.155 . S
O455 C457 1.240 . S
O456 Co429 2.096 . S
O456 C437 1.247 . S
C457 O454 1.244 . S
C457 O455 1.240 . S
H458 C432 0.931 . S
H459 C441 0.931 . S
H460 C445 0.929 . S
H461 C447 0.930 . S
Co462 N466 2.148 . S
Co462 N472 2.128 . S
Co462 N482 2.194 . S
Co462 O487 2.351 . S
Co462 O488 2.155 . S
Co462 O489 2.096 . S
C463 N466 1.301 . S
C463 N467 1.328 . S
C463 H468 0.930 . S
C464 C465 1.333 . S
C464 N466 1.317 . S
C464 H469 0.930 . S
C465 C464 1.333 . S
C465 N467 1.350 . S
C465 H491 0.931 . S
N466 Co462 2.148 . S
N466 C463 1.301 . S
N466 C464 1.317 . S
N467 C463 1.328 . S
N467 C465 1.350 . S
H468 C463 0.930 . S
H469 C464 0.930 . S
C470 O471 1.224 . S
C470 O489 1.247 . S
O471 C470 1.224 . S
N472 Co462 2.128 . S
N472 C473 1.355 . S
N472 C475 1.311 . S
C473 N472 1.355 . S
C473 C474 1.363 . S
C473 H485 0.929 . S
C474 C473 1.363 . S
C474 N476 1.375 . S
C474 H492 0.931 . S
C475 N472 1.311 . S
C475 N476 1.347 . S
C475 H486 0.929 . S
N476 C474 1.375 . S
N476 C475 1.347 . S
C477 C480 1.365 . S
C477 N482 1.328 . S
C477 H483 0.929 . S
C478 C479 1.362 . S
C478 C481 1.378 . S
C478 H493 0.929 . S
C479 C478 1.362 . S
C479 C480 1.366 . S
C480 C477 1.365 . S
C480 C479 1.366 . S
C480 H494 0.930 . S
C481 C478 1.378 . S
C481 N482 1.315 . S
C481 H484 0.930 . S
N482 Co462 2.194 . S
N482 C477 1.328 . S
N482 C481 1.315 . S
H483 C477 0.929 . S
H484 C481 0.930 . S
H485 C473 0.929 . S
H486 C475 0.929 . S
O487 Co462 2.351 . S
O487 C490 1.244 . S
O488 Co462 2.155 . S
O488 C490 1.240 . S
O489 Co462 2.096 . S
O489 C470 1.247 . S
C490 O487 1.244 . S
C490 O488 1.240 . S
H491 C465 0.931 . S
H492 C474 0.931 . S
H493 C478 0.929 . S
H494 C480 0.930 . S
Co495 N499 2.148 . S
Co495 N505 2.128 . S
Co495 N515 2.194 . S
Co495 O520 2.351 . S
Co495 O521 2.155 . S
Co495 O522 2.096 . S
C496 N499 1.301 . S
C496 N500 1.328 . S
C496 H501 0.930 . S
C497 C498 1.333 . S
C497 N499 1.317 . S
C497 H502 0.930 . S
C498 C497 1.333 . S
C498 N500 1.350 . S
C498 H524 0.931 . S
N499 Co495 2.148 . S
N499 C496 1.301 . S
N499 C497 1.317 . S
N500 C496 1.328 . S
N500 C498 1.350 . S
H501 C496 0.930 . S
H502 C497 0.930 . S
C503 O504 1.224 . S
C503 O522 1.247 . S
O504 C503 1.224 . S
N505 Co495 2.128 . S
N505 C506 1.355 . S
N505 C508 1.311 . S
C506 N505 1.355 . S
C506 C507 1.363 . S
C506 H518 0.929 . S
C507 C506 1.363 . S
C507 N509 1.375 . S
C507 H525 0.931 . S
C508 N505 1.311 . S
C508 N509 1.347 . S
C508 H519 0.929 . S
N509 C507 1.375 . S
N509 C508 1.347 . S
C510 C513 1.365 . S
C510 N515 1.328 . S
C510 H516 0.929 . S
C511 C512 1.362 . S
C511 C514 1.378 . S
C511 H526 0.929 . S
C512 C511 1.362 . S
C512 C513 1.366 . S
C513 C510 1.365 . S
C513 C512 1.366 . S
C513 H527 0.930 . S
C514 C511 1.378 . S
C514 N515 1.315 . S
C514 H517 0.930 . S
N515 Co495 2.194 . S
N515 C510 1.328 . S
N515 C514 1.315 . S
H516 C510 0.929 . S
H517 C514 0.930 . S
H518 C506 0.929 . S
H519 C508 0.929 . S
O520 Co495 2.351 . S
O520 C523 1.244 . S
O521 Co495 2.155 . S
O521 C523 1.240 . S
O522 Co495 2.096 . S
O522 C503 1.247 . S
C523 O520 1.244 . S
C523 O521 1.240 . S
H524 C498 0.931 . S
H525 C507 0.931 . S
H526 C511 0.929 . S
H527 C513 0.930 . S
C528 C529 1.387 . S
C528 H532 0.950 . S
C528 C537 1.390 1_655 S
C529 C528 1.387 . S
C529 C531 1.387 . S
H530 C537 0.950 . S
C531 C529 1.387 . S
C531 C533 1.390 1_655 S
C531 H535 0.950 . S
H532 C528 0.950 . S
C533 C531 1.390 1_455 S
C533 C534 1.387 . S
C533 H536 0.950 . S
C534 C533 1.387 . S
C534 C537 1.387 . S
H535 C531 0.950 . S
H536 C533 0.950 . S
C537 C528 1.390 1_455 S
C537 H530 0.950 . S
C537 C534 1.387 . S
C538 C539 1.387 . S
C538 H542 0.950 . S
C538 C547 1.392 . S
C539 C538 1.387 . S
C539 C541 1.387 . S
H540 C547 0.949 1_565 S
C541 C539 1.387 . S
C541 C543 1.390 1_545 S
C541 H545 0.950 . S
H542 C538 0.950 . S
C543 C541 1.390 1_565 S
C543 C544 1.387 . S
C543 H546 0.950 . S
C544 C543 1.387 . S
C544 C547 1.386 1_565 S
H545 C541 0.950 . S
H546 C543 0.950 . S
C547 C538 1.392 . S
C547 H540 0.949 1_545 S
C547 C544 1.386 1_545 S
C548 C549 1.387 . S
C548 H552 0.950 . S
C548 C557 1.390 1_655 S
C549 C548 1.387 . S
C549 C551 1.387 . S
H550 C557 0.950 . S
C551 C549 1.387 . S
C551 C553 1.390 1_655 S
C551 H555 0.950 . S
H552 C548 0.950 . S
C553 C551 1.390 1_455 S
C553 C554 1.387 . S
C553 H556 0.950 . S
C554 C553 1.387 . S
C554 C557 1.387 . S
H555 C551 0.950 . S
H556 C553 0.950 . S
C557 C548 1.390 1_455 S
C557 H550 0.950 . S
C557 C554 1.387 . S
C558 C559 1.389 1_545 S
C558 H562 0.950 1_545 S
C558 C567 1.389 . S
C559 C558 1.389 1_565 S
C559 C561 1.387 . S
H560 C567 0.950 . S
C561 C559 1.387 . S
C561 C563 1.390 1_565 S
C561 H565 0.950 . S
H562 C558 0.950 1_565 S
C563 C561 1.390 1_545 S
C563 C564 1.387 . S
C563 H566 0.950 . S
C564 C563 1.387 . S
C564 C567 1.387 . S
H565 C561 0.950 . S
H566 C563 0.950 . S
C567 C558 1.389 . S
C567 H560 0.950 . S
C567 C564 1.387 . S
C568 C569 1.387 . S
C568 H572 0.950 . S
C568 C577 1.390 1_655 S
C569 C568 1.387 . S
C569 C571 1.387 . S
H570 C577 0.950 . S
C571 C569 1.387 . S
C571 C573 1.390 1_655 S
C571 H575 0.950 . S
H572 C568 0.950 . S
C573 C571 1.390 1_455 S
C573 C574 1.387 . S
C573 H576 0.950 . S
C574 C573 1.387 . S
C574 C577 1.387 . S
H575 C571 0.950 . S
H576 C573 0.950 . S
C577 C568 1.390 1_455 S
C577 H570 0.950 . S
C577 C574 1.387 . S
C578 C579 1.387 . S
C578 H582 0.950 . S
C578 C587 1.390 1_565 S
C579 C578 1.387 . S
C579 C581 1.387 . S
H580 C587 0.950 . S
C581 C579 1.387 . S
C581 C583 1.390 1_565 S
C581 H585 0.950 . S
H582 C578 0.950 . S
C583 C581 1.390 1_545 S
C583 C584 1.387 . S
C583 H586 0.950 . S
C584 C583 1.387 . S
C584 C587 1.387 . S
H585 C581 0.950 . S
H586 C583 0.950 . S
C587 C578 1.390 1_545 S
C587 H580 0.950 . S
C587 C584 1.387 . S
C588 C589 1.387 . S
C588 H592 0.950 . S
C588 C597 1.390 1_655 S
C589 C588 1.387 . S
C589 C591 1.387 . S
H590 C597 0.950 . S
C591 C589 1.387 . S
C591 C593 1.390 1_655 S
C591 H595 0.950 . S
H592 C588 0.950 . S
C593 C591 1.390 1_455 S
C593 C594 1.387 . S
C593 H596 0.950 . S
C594 C593 1.387 . S
C594 C597 1.387 . S
H595 C591 0.950 . S
H596 C593 0.950 . S
C597 C588 1.390 1_455 S
C597 H590 0.950 . S
C597 C594 1.387 . S
C598 C599 1.387 . S
C598 H602 0.950 . S
C598 C607 1.390 1_545 S
C599 C598 1.387 . S
C599 C601 1.387 . S
H600 C607 0.950 . S
C601 C599 1.387 . S
C601 C603 1.390 1_545 S
C601 H605 0.950 . S
H602 C598 0.950 . S
C603 C601 1.390 1_565 S
C603 C604 1.387 . S
C603 H606 0.950 . S
C604 C603 1.387 . S
C604 C607 1.387 . S
H605 C601 0.950 . S
H606 C603 0.950 . S
C607 C598 1.390 1_565 S
C607 H600 0.950 . S
C607 C604 1.387 . S
C608 C609 1.387 . S
C608 H612 0.950 . S
C608 C617 1.390 . S
C609 C608 1.387 . S
C609 C611 1.387 . S
H610 C617 0.950 . S
C611 C609 1.387 . S
C611 C613 1.390 . S
C611 H615 0.950 . S
H612 C608 0.950 . S
C613 C611 1.390 . S
C613 C614 1.387 . S
C613 H616 0.950 . S
C614 C613 1.387 . S
C614 C617 1.387 . S
H615 C611 0.950 . S
H616 C613 0.950 . S
C617 C608 1.390 . S
C617 H610 0.950 . S
C617 C614 1.387 . S
C618 C619 1.387 . S
C618 H622 0.950 . S
C618 C627 1.390 . S
C619 C618 1.387 . S
C619 C621 1.387 . S
H620 C627 0.950 . S
C621 C619 1.387 . S
C621 C623 1.390 . S
C621 H625 0.950 . S
H622 C618 0.950 . S
C623 C621 1.390 . S
C623 C624 1.387 . S
C623 H626 0.950 . S
C624 C623 1.387 . S
C624 C627 1.387 . S
H625 C621 0.950 . S
H626 C623 0.950 . S
C627 C618 1.390 . S
C627 H620 0.950 . S
C627 C624 1.387 . S
C628 C629 1.387 . S
C628 H632 0.950 . S
C628 C637 1.390 . S
C629 C628 1.387 . S
C629 C631 1.387 . S
H630 C637 0.950 . S
C631 C629 1.387 . S
C631 C633 1.390 . S
C631 H635 0.950 . S
H632 C628 0.950 . S
C633 C631 1.390 . S
C633 C634 1.387 . S
C633 H636 0.950 . S
C634 C633 1.387 . S
C634 C637 1.387 . S
H635 C631 0.950 . S
H636 C633 0.950 . S
C637 C628 1.390 . S
C637 H630 0.950 . S
C637 C634 1.387 . S
C638 C639 1.387 . S
C638 H642 0.950 . S
C638 C647 1.390 . S
C639 C638 1.387 . S
C639 C641 1.387 . S
H640 C647 0.950 . S
C641 C639 1.387 . S
C641 C643 1.390 . S
C641 H645 0.950 . S
H642 C638 0.950 . S
C643 C641 1.390 . S
C643 C644 1.387 . S
C643 H646 0.950 . S
C644 C643 1.387 . S
C644 C647 1.387 . S
H645 C641 0.950 . S
H646 C643 0.950 . S
C647 C638 1.390 . S
C647 H640 0.950 . S
C647 C644 1.387 . S
C648 C649 1.387 . S
C648 H652 0.950 . S
C648 C657 1.390 . S
C649 C648 1.387 . S
C649 C651 1.387 . S
H650 C657 0.950 . S
C651 C649 1.387 . S
C651 C653 1.390 . S
C651 H655 0.950 . S
H652 C648 0.950 . S
C653 C651 1.390 . S
C653 C654 1.387 . S
C653 H656 0.950 . S
C654 C653 1.387 . S
C654 C657 1.387 . S
H655 C651 0.950 . S
H656 C653 0.950 . S
C657 C648 1.390 . S
C657 H650 0.950 . S
C657 C654 1.387 . S
C658 C659 1.387 . S
C658 H662 0.950 . S
C658 C667 1.390 . S
C659 C658 1.387 . S
C659 C661 1.387 . S
H660 C667 0.950 . S
C661 C659 1.387 . S
C661 C663 1.390 . S
C661 H665 0.950 . S
H662 C658 0.950 . S
C663 C661 1.390 . S
C663 C664 1.387 . S
C663 H666 0.950 . S
C664 C663 1.387 . S
C664 C667 1.387 . S
H665 C661 0.950 . S
H666 C663 0.950 . S
C667 C658 1.390 . S
C667 H660 0.950 . S
C667 C664 1.387 . S
C668 C669 1.387 . S
C668 H672 0.950 . S
C668 C677 1.390 . S
C669 C668 1.387 . S
C669 C671 1.387 . S
H670 C677 0.950 . S
C671 C669 1.387 . S
C671 C673 1.390 . S
C671 H675 0.950 . S
H672 C668 0.950 . S
C673 C671 1.390 . S
C673 C674 1.387 . S
C673 H676 0.950 . S
C674 C673 1.387 . S
C674 C677 1.387 . S
H675 C671 0.950 . S
H676 C673 0.950 . S
C677 C668 1.390 . S
C677 H670 0.950 . S
C677 C674 1.387 . S
C678 C679 1.387 . S
C678 H682 0.950 . S
C678 C687 1.390 . S
C679 C678 1.387 . S
C679 C681 1.387 . S
H680 C687 0.950 . S
C681 C679 1.387 . S
C681 C683 1.390 . S
C681 H685 0.950 . S
H682 C678 0.950 . S
C683 C681 1.390 . S
C683 C684 1.387 . S
C683 H686 0.950 . S
C684 C683 1.387 . S
C684 C687 1.387 . S
H685 C681 0.950 . S
H686 C683 0.950 . S
C687 C678 1.390 . S
C687 H680 0.950 . S
C687 C684 1.387 . S
C688 C689 1.387 . S
C688 H692 0.950 . S
C688 C697 1.390 1_554 S
C689 C688 1.387 . S
C689 C691 1.387 . S
H690 C697 0.950 . S
C691 C689 1.387 . S
C691 C693 1.390 1_554 S
C691 H695 0.950 . S
H692 C688 0.950 . S
C693 C691 1.390 1_556 S
C693 C694 1.387 . S
C693 H696 0.950 . S
C694 C693 1.387 . S
C694 C697 1.387 . S
H695 C691 0.950 . S
H696 C693 0.950 . S
C697 C688 1.390 1_556 S
C697 H690 0.950 . S
C697 C694 1.387 . S
C698 C699 1.387 . S
C698 H702 0.950 . S
C698 C707 1.390 1_556 S
C699 C698 1.387 . S
C699 C701 1.387 . S
H700 C707 0.950 . S
C701 C699 1.387 . S
C701 C703 1.390 1_556 S
C701 H705 0.950 . S
H702 C698 0.950 . S
C703 C701 1.390 1_554 S
C703 C704 1.387 . S
C703 H706 0.950 . S
C704 C703 1.387 . S
C704 C707 1.387 . S
H705 C701 0.950 . S
H706 C703 0.950 . S
C707 C698 1.390 1_554 S
C707 H700 0.950 . S
C707 C704 1.387 . S
C708 C709 1.387 . S
C708 H712 0.950 . S
C708 C717 1.390 1_556 S
C709 C708 1.387 . S
C709 C711 1.387 . S
H710 C717 0.950 . S
C711 C709 1.387 . S
C711 C713 1.390 1_556 S
C711 H715 0.950 . S
H712 C708 0.950 . S
C713 C711 1.390 1_554 S
C713 C714 1.387 . S
C713 H716 0.950 . S
C714 C713 1.387 . S
C714 C717 1.387 . S
H715 C711 0.950 . S
H716 C713 0.950 . S
C717 C708 1.390 1_554 S
C717 H710 0.950 . S
C717 C714 1.387 . S
C718 C719 1.387 . S
C718 H722 0.950 . S
C718 C727 1.390 1_556 S
C719 C718 1.387 . S
C719 C721 1.387 . S
H720 C727 0.950 . S
C721 C719 1.387 . S
C721 C723 1.390 1_556 S
C721 H725 0.950 . S
H722 C718 0.950 . S
C723 C721 1.390 1_554 S
C723 C724 1.387 . S
C723 H726 0.950 . S
C724 C723 1.387 . S
C724 C727 1.387 . S
H725 C721 0.950 . S
H726 C723 0.950 . S
C727 C718 1.390 1_554 S
C727 H720 0.950 . S
C727 C724 1.387 . S
C728 C729 1.387 . S
C728 H732 0.950 . S
C728 C737 1.390 . S
C729 C728 1.387 . S
C729 C731 1.387 . S
H730 C737 0.950 . S
C731 C729 1.387 . S
C731 C733 1.390 . S
C731 H735 0.950 . S
H732 C728 0.950 . S
C733 C731 1.390 . S
C733 C734 1.387 . S
C733 H736 0.950 . S
C734 C733 1.387 . S
C734 C737 1.387 . S
H735 C731 0.950 . S
H736 C733 0.950 . S
C737 C728 1.390 . S
C737 H730 0.950 . S
C737 C734 1.387 . S
C738 C739 1.387 . S
C738 H742 0.950 . S
C738 C747 1.390 . S
C739 C738 1.387 . S
C739 C741 1.387 . S
H740 C747 0.950 . S
C741 C739 1.387 . S
C741 C743 1.390 . S
C741 H745 0.950 . S
H742 C738 0.950 . S
C743 C741 1.390 . S
C743 C744 1.387 . S
C743 H746 0.950 . S
C744 C743 1.387 . S
C744 C747 1.387 . S
H745 C741 0.950 . S
H746 C743 0.950 . S
C747 C738 1.390 . S
C747 H740 0.950 . S
C747 C744 1.387 . S
C748 C749 1.387 . S
C748 H752 0.950 . S
C748 C757 1.390 . S
C749 C748 1.387 . S
C749 C751 1.387 . S
H750 C757 0.950 . S
C751 C749 1.387 . S
C751 C753 1.390 . S
C751 H755 0.950 . S
H752 C748 0.950 . S
C753 C751 1.390 . S
C753 C754 1.387 . S
C753 H756 0.950 . S
C754 C753 1.387 . S
C754 C757 1.387 . S
H755 C751 0.950 . S
H756 C753 0.950 . S
C757 C748 1.390 . S
C757 H750 0.950 . S
C757 C754 1.387 . S
C758 C759 1.387 . S
C758 H762 0.950 . S
C758 C767 1.390 . S
C759 C758 1.387 . S
C759 C761 1.387 . S
H760 C767 0.950 . S
C761 C759 1.387 . S
C761 C763 1.390 . S
C761 H765 0.950 . S
H762 C758 0.950 . S
C763 C761 1.390 . S
C763 C764 1.387 . S
C763 H766 0.950 . S
C764 C763 1.387 . S
C764 C767 1.387 . S
H765 C761 0.950 . S
H766 C763 0.950 . S
C767 C758 1.390 . S
C767 H760 0.950 . S
C767 C764 1.387 . S
C768 C769 1.387 . S
C768 H772 0.950 . S
C768 C777 1.390 . S
C769 C768 1.387 . S
C769 C771 1.387 . S
H770 C777 0.950 . S
C771 C769 1.387 . S
C771 C773 1.390 . S
C771 H775 0.950 . S
H772 C768 0.950 . S
C773 C771 1.390 . S
C773 C774 1.387 . S
C773 H776 0.950 . S
C774 C773 1.387 . S
C774 C777 1.387 . S
H775 C771 0.950 . S
H776 C773 0.950 . S
C777 C768 1.390 . S
C777 H770 0.950 . S
C777 C774 1.387 . S
C778 C779 1.387 . S
C778 H782 0.950 . S
C778 C787 1.390 . S
C779 C778 1.387 . S
C779 C781 1.387 . S
H780 C787 0.950 . S
C781 C779 1.387 . S
C781 C783 1.390 . S
C781 H785 0.950 . S
H782 C778 0.950 . S
C783 C781 1.390 . S
C783 C784 1.387 . S
C783 H786 0.950 . S
C784 C783 1.387 . S
C784 C787 1.387 . S
H785 C781 0.950 . S
H786 C783 0.950 . S
C787 C778 1.390 . S
C787 H780 0.950 . S
C787 C784 1.387 . S
C788 C789 1.387 . S
C788 H792 0.950 . S
C788 C797 1.390 . S
C789 C788 1.387 . S
C789 C791 1.387 . S
H790 C797 0.950 . S
C791 C789 1.387 . S
C791 C793 1.390 . S
C791 H795 0.950 . S
H792 C788 0.950 . S
C793 C791 1.390 . S
C793 C794 1.387 . S
C793 H796 0.950 . S
C794 C793 1.387 . S
C794 C797 1.387 . S
H795 C791 0.950 . S
H796 C793 0.950 . S
C797 C788 1.390 . S
C797 H790 0.950 . S
C797 C794 1.387 . S
C798 C799 1.387 . S
C798 H802 0.950 . S
C798 C807 1.390 . S
C799 C798 1.387 . S
C799 C801 1.387 . S
H800 C807 0.950 . S
C801 C799 1.387 . S
C801 C803 1.390 . S
C801 H805 0.950 . S
H802 C798 0.950 . S
C803 C801 1.390 . S
C803 C804 1.387 . S
C803 H806 0.950 . S
C804 C803 1.387 . S
C804 C807 1.387 . S
H805 C801 0.950 . S
H806 C803 0.950 . S
C807 C798 1.390 . S
C807 H800 0.950 . S
C807 C804 1.387 . S
C808 C809 1.387 . S
C808 H812 0.950 . S
C808 C817 1.390 . S
C809 C808 1.387 . S
C809 C811 1.387 . S
H810 C817 0.950 . S
C811 C809 1.387 . S
C811 C813 1.390 . S
C811 H815 0.950 . S
H812 C808 0.950 . S
C813 C811 1.390 . S
C813 C814 1.387 . S
C813 H816 0.950 . S
C814 C813 1.387 . S
C814 C817 1.387 . S
H815 C811 0.950 . S
H816 C813 0.950 . S
C817 C808 1.390 . S
C817 H810 0.950 . S
C817 C814 1.387 . S
C818 C819 1.387 . S
C818 H822 0.950 . S
C818 C827 1.390 . S
C819 C818 1.387 . S
C819 C821 1.387 . S
H820 C827 0.950 . S
C821 C819 1.387 . S
C821 C823 1.390 . S
C821 H825 0.950 . S
H822 C818 0.950 . S
C823 C821 1.390 . S
C823 C824 1.387 . S
C823 H826 0.950 . S
C824 C823 1.387 . S
C824 C827 1.387 . S
H825 C821 0.950 . S
H826 C823 0.950 . S
C827 C818 1.390 . S
C827 H820 0.950 . S
C827 C824 1.387 . S
C828 C829 1.387 . S
C828 H832 0.950 . S
C828 C837 1.390 . S
C829 C828 1.387 . S
C829 C831 1.387 . S
H830 C837 0.950 . S
C831 C829 1.387 . S
C831 C833 1.390 . S
C831 H835 0.950 . S
H832 C828 0.950 . S
C833 C831 1.390 . S
C833 C834 1.387 . S
C833 H836 0.950 . S
C834 C833 1.387 . S
C834 C837 1.387 . S
H835 C831 0.950 . S
H836 C833 0.950 . S
C837 C828 1.390 . S
C837 H830 0.950 . S
C837 C834 1.387 . S
C838 C839 1.387 . S
C838 H842 0.950 . S
C838 C847 1.390 . S
C839 C838 1.387 . S
C839 C841 1.387 . S
H840 C847 0.950 . S
C841 C839 1.387 . S
C841 C843 1.390 . S
C841 H845 0.950 . S
H842 C838 0.950 . S
C843 C841 1.390 . S
C843 C844 1.387 . S
C843 H846 0.950 . S
C844 C843 1.387 . S
C844 C847 1.387 . S
H845 C841 0.950 . S
H846 C843 0.950 . S
C847 C838 1.390 . S
C847 H840 0.950 . S
C847 C844 1.387 . S
C848 C849 1.387 . S
C848 H852 0.950 . S
C848 C857 1.390 1_545 S
C849 C848 1.387 . S
C849 C851 1.387 . S
H850 C857 0.950 . S
C851 C849 1.387 . S
C851 C853 1.390 1_545 S
C851 H855 0.950 . S
H852 C848 0.950 . S
C853 C851 1.390 1_565 S
C853 C854 1.387 . S
C853 H856 0.950 . S
C854 C853 1.387 . S
C854 C857 1.387 . S
H855 C851 0.950 . S
H856 C853 0.950 . S
C857 C848 1.390 1_565 S
C857 H850 0.950 . S
C857 C854 1.387 . S
C858 C859 1.387 . S
C858 H862 0.950 . S
C858 C867 1.390 1_655 S
C859 C858 1.387 . S
C859 C861 1.387 . S
H860 C867 0.950 . S
C861 C859 1.387 . S
C861 C863 1.390 1_655 S
C861 H865 0.950 . S
H862 C858 0.950 . S
C863 C861 1.390 1_455 S
C863 C864 1.387 . S
C863 H866 0.950 . S
C864 C863 1.387 . S
C864 C867 1.387 . S
H865 C861 0.950 . S
H866 C863 0.950 . S
C867 C858 1.390 1_455 S
C867 H860 0.950 . S
C867 C864 1.387 . S
C868 C869 1.387 . S
C868 H872 0.950 . S
C868 C877 1.390 1_545 S
C869 C868 1.387 . S
C869 C871 1.387 . S
H870 C877 0.950 . S
C871 C869 1.387 . S
C871 C873 1.390 1_545 S
C871 H875 0.950 . S
H872 C868 0.950 . S
C873 C871 1.390 1_565 S
C873 C874 1.387 . S
C873 H876 0.950 . S
C874 C873 1.387 . S
C874 C877 1.387 . S
H875 C871 0.950 . S
H876 C873 0.950 . S
C877 C868 1.390 1_565 S
C877 H870 0.950 . S
C877 C874 1.387 . S
C878 C879 1.387 . S
C878 H882 0.950 . S
C878 C887 1.390 1_655 S
C879 C878 1.387 . S
C879 C881 1.387 . S
H880 C887 0.950 . S
C881 C879 1.387 . S
C881 C883 1.390 1_655 S
C881 H885 0.950 . S
H882 C878 0.950 . S
C883 C881 1.390 1_455 S
C883 C884 1.387 . S
C883 H886 0.950 . S
C884 C883 1.387 . S
C884 C887 1.387 . S
H885 C881 0.950 . S
H886 C883 0.950 . S
C887 C878 1.390 1_455 S
C887 H880 0.950 . S
C887 C884 1.387 . S
C888 C889 1.387 1_545 S
C888 H892 0.950 . S
C888 C897 1.390 . S
C889 C888 1.387 1_565 S
C889 C891 1.387 . S
H890 C897 0.950 . S
C891 C889 1.387 . S
C891 C893 1.396 . S
C891 H895 0.950 . S
H892 C888 0.950 . S
C893 C891 1.396 . S
C893 C894 1.381 1_565 S
C893 H896 0.950 . S
C894 C893 1.381 1_545 S
C894 C897 1.387 . S
H895 C891 0.950 . S
H896 C893 0.950 . S
C897 C888 1.390 . S
C897 H890 0.950 . S
C897 C894 1.387 . S
C898 C899 1.387 . S
C898 H902 0.950 . S
C898 C907 1.390 1_455 S
C899 C898 1.387 . S
C899 C901 1.387 . S
H900 C907 0.950 . S
C901 C899 1.387 . S
C901 C903 1.390 1_455 S
C901 H905 0.950 . S
H902 C898 0.950 . S
C903 C901 1.390 1_655 S
C903 C904 1.387 . S
C903 H906 0.950 . S
C904 C903 1.387 . S
C904 C907 1.387 . S
H905 C901 0.950 . S
H906 C903 0.950 . S
C907 C898 1.390 1_655 S
C907 H900 0.950 . S
C907 C904 1.387 . S
C908 C909 1.387 . S
C908 H912 0.950 . S
C908 C917 1.390 1_565 S
C909 C908 1.387 . S
C909 C911 1.387 . S
H910 C917 0.950 . S
C911 C909 1.387 . S
C911 C913 1.390 1_565 S
C911 H915 0.950 . S
H912 C908 0.950 . S
C913 C911 1.390 1_545 S
C913 C914 1.387 . S
C913 H916 0.950 . S
C914 C913 1.387 . S
C914 C917 1.387 . S
H915 C911 0.950 . S
H916 C913 0.950 . S
C917 C908 1.390 1_545 S
C917 H910 0.950 . S
C917 C914 1.387 . S
C918 C919 1.387 . S
C918 H922 0.950 . S
C918 C927 1.390 1_655 S
C919 C918 1.387 . S
C919 C921 1.387 . S
H920 C927 0.950 . S
C921 C919 1.387 . S
C921 C923 1.390 1_655 S
C921 H925 0.950 . S
H922 C918 0.950 . S
C923 C921 1.390 1_455 S
C923 C924 1.387 . S
C923 H926 0.950 . S
C924 C923 1.387 . S
C924 C927 1.387 . S
H925 C921 0.950 . S
H926 C923 0.950 . S
C927 C918 1.390 1_455 S
C927 H920 0.950 . S
C927 C924 1.387 . S
C529 N80 0.682 . S
C534 N14 0.682 . S
C539 N47 0.686 . S
C544 N104 0.695 . S
C549 N212 0.682 . S
C554 N146 0.682 . S
C559 N236 0.695 . S
C564 N179 0.686 . S
C569 N278 0.684 . S
C574 N335 0.692 . S
C579 N311 0.684 . S
C584 N377 0.684 . S
C589 N401 0.694 . S
C594 N476 0.686 . S
C599 N509 0.682 . S
C604 N443 0.682 . S
C609 N5 1.413 . S
C614 N170 1.404 . S
C619 N203 1.415 . S
C624 N38 1.406 . S
C629 N245 1.436 . S
C634 N71 1.387 . S
C639 N137 1.386 . S
C644 N113 1.439 . S
C649 N434 1.416 . S
C654 N269 1.406 . S
C659 N467 1.403 . S
C664 N302 1.417 . S
C669 N500 1.385 . S
C674 N344 1.437 . S
C679 N410 1.439 . S
C684 N368 1.386 . S
C689 C17 1.524 . S
C694 C347 1.502 . S
C699 C380 1.544 . S
C704 C50 1.548 . S
C709 C281 1.548 . S
C714 C83 1.544 . S
C719 C314 1.525 . S
C724 C116 1.500 . S
C729 C149 1.545 . S
C734 C479 1.547 . S
C739 C182 1.547 . S
C744 C512 1.543 . S
C749 C215 1.525 . S
C754 C413 1.501 . S
C759 C248 1.501 . S
C764 C446 1.526 . S
C769 C140 1.632 . S
C774 C8 1.625 . S
C779 C41 1.716 . S
C784 C173 1.716 . S
C789 C206 1.625 . S
C794 C74 1.632 . S
C799 C259 1.578 . S
C804 C127 1.578 . S
C809 C292 1.148 . S
C814 C404 1.182 . S
C819 C457 1.081 . S
C824 C325 1.081 . S
C829 C338 1.184 . S
C834 C490 1.145 . S
C839 C523 1.118 . S
C844 C391 1.118 . S
C849 C371 1.632 . S
C854 C437 1.625 . S
C859 C272 1.716 . S
C864 C470 1.716 . S
C869 C503 1.632 . S
C874 C305 1.625 . S
C879 C424 1.578 . S
C884 C358 1.578 . S
C889 C107 1.180 . S
C894 C193 1.150 . S
C899 C28 1.081 . S
C904 C226 1.081 . S
C909 C239 1.182 . S
C914 C61 1.147 . S
C919 C94 1.118 . S
C924 C160 1.118 . S
