# Generated by pormake.
# Topology snl, (6)-cn, num edge types: 1
# Building blocks:
#     Node 0, Type 0, BuildingBlock: PAMTUU_clean_sbu_0, # of connection points: 6
#     Node 1, Type 0, BuildingBlock: PAMTUU_clean_sbu_0, # of connection points: 6
#     Node 2, Type 0, BuildingBlock: PAMTUU_clean_sbu_0, # of connection points: 6
#     Node 3, Type 0, BuildingBlock: PAMTUU_clean_sbu_0, # of connection points: 6
#     Node 4, Type 0, BuildingBlock: PAMTUU_clean_sbu_0, # of connection points: 6
#     Node 5, Type 0, BuildingBlock: PAMTUU_clean_sbu_0, # of connection points: 6
#     Node 6, Type 0, BuildingBlock: PAMTUU_clean_sbu_0, # of connection points: 6
#     Node 7, Type 0, BuildingBlock: PAMTUU_clean_sbu_0, # of connection points: 6
#     Node 8, Type 0, BuildingBlock: PAMTUU_clean_sbu_0, # of connection points: 6
#     Node 9, Type 0, BuildingBlock: PAMTUU_clean_sbu_0, # of connection points: 6
#     Node 10, Type 0, BuildingBlock: PAMTUU_clean_sbu_0, # of connection points: 6
#     Node 11, Type 0, BuildingBlock: PAMTUU_clean_sbu_0, # of connection points: 6
#     Node 12, Type 0, BuildingBlock: PAMTUU_clean_sbu_0, # of connection points: 6
#     Node 13, Type 0, BuildingBlock: PAMTUU_clean_sbu_0, # of connection points: 6
#     Node 14, Type 0, BuildingBlock: PAMTUU_clean_sbu_0, # of connection points: 6
#     Node 15, Type 0, BuildingBlock: PAMTUU_clean_sbu_0, # of connection points: 6
#     Edge 16, Type (0, 0), BuildingBlock: OJICUG_clean_linker_0, # of connection points: 2
#     Edge 17, Type (0, 0), BuildingBlock: OJICUG_clean_linker_0, # of connection points: 2
#     Edge 18, Type (0, 0), BuildingBlock: OJICUG_clean_linker_0, # of connection points: 2
#     Edge 19, Type (0, 0), BuildingBlock: OJICUG_clean_linker_0, # of connection points: 2
#     Edge 20, Type (0, 0), BuildingBlock: OJICUG_clean_linker_0, # of connection points: 2
#     Edge 21, Type (0, 0), BuildingBlock: OJICUG_clean_linker_0, # of connection points: 2
#     Edge 22, Type (0, 0), BuildingBlock: OJICUG_clean_linker_0, # of connection points: 2
#     Edge 23, Type (0, 0), BuildingBlock: OJICUG_clean_linker_0, # of connection points: 2
#     Edge 24, Type (0, 0), BuildingBlock: OJICUG_clean_linker_0, # of connection points: 2
#     Edge 25, Type (0, 0), BuildingBlock: OJICUG_clean_linker_0, # of connection points: 2
#     Edge 26, Type (0, 0), BuildingBlock: OJICUG_clean_linker_0, # of connection points: 2
#     Edge 27, Type (0, 0), BuildingBlock: OJICUG_clean_linker_0, # of connection points: 2
#     Edge 28, Type (0, 0), BuildingBlock: OJICUG_clean_linker_0, # of connection points: 2
#     Edge 29, Type (0, 0), BuildingBlock: OJICUG_clean_linker_0, # of connection points: 2
#     Edge 30, Type (0, 0), BuildingBlock: OJICUG_clean_linker_0, # of connection points: 2
#     Edge 31, Type (0, 0), BuildingBlock: OJICUG_clean_linker_0, # of connection points: 2
#     Edge 32, Type (0, 0), BuildingBlock: OJICUG_clean_linker_0, # of connection points: 2
#     Edge 33, Type (0, 0), BuildingBlock: OJICUG_clean_linker_0, # of connection points: 2
#     Edge 34, Type (0, 0), BuildingBlock: OJICUG_clean_linker_0, # of connection points: 2
#     Edge 35, Type (0, 0), BuildingBlock: OJICUG_clean_linker_0, # of connection points: 2
#     Edge 36, Type (0, 0), BuildingBlock: OJICUG_clean_linker_0, # of connection points: 2
#     Edge 37, Type (0, 0), BuildingBlock: OJICUG_clean_linker_0, # of connection points: 2
#     Edge 38, Type (0, 0), BuildingBlock: OJICUG_clean_linker_0, # of connection points: 2
#     Edge 39, Type (0, 0), BuildingBlock: OJICUG_clean_linker_0, # of connection points: 2
#     Edge 40, Type (0, 0), BuildingBlock: OJICUG_clean_linker_0, # of connection points: 2
#     Edge 41, Type (0, 0), BuildingBlock: OJICUG_clean_linker_0, # of connection points: 2
#     Edge 42, Type (0, 0), BuildingBlock: OJICUG_clean_linker_0, # of connection points: 2
#     Edge 43, Type (0, 0), BuildingBlock: OJICUG_clean_linker_0, # of connection points: 2
#     Edge 44, Type (0, 0), BuildingBlock: OJICUG_clean_linker_0, # of connection points: 2
#     Edge 45, Type (0, 0), BuildingBlock: OJICUG_clean_linker_0, # of connection points: 2
#     Edge 46, Type (0, 0), BuildingBlock: OJICUG_clean_linker_0, # of connection points: 2
#     Edge 47, Type (0, 0), BuildingBlock: OJICUG_clean_linker_0, # of connection points: 2
#     Edge 48, Type (0, 0), BuildingBlock: OJICUG_clean_linker_0, # of connection points: 2
#     Edge 49, Type (0, 0), BuildingBlock: OJICUG_clean_linker_0, # of connection points: 2
#     Edge 50, Type (0, 0), BuildingBlock: OJICUG_clean_linker_0, # of connection points: 2
#     Edge 51, Type (0, 0), BuildingBlock: OJICUG_clean_linker_0, # of connection points: 2
#     Edge 52, Type (0, 0), BuildingBlock: OJICUG_clean_linker_0, # of connection points: 2
#     Edge 53, Type (0, 0), BuildingBlock: OJICUG_clean_linker_0, # of connection points: 2
#     Edge 54, Type (0, 0), BuildingBlock: OJICUG_clean_linker_0, # of connection points: 2
#     Edge 55, Type (0, 0), BuildingBlock: OJICUG_clean_linker_0, # of connection points: 2
#     Edge 56, Type (0, 0), BuildingBlock: OJICUG_clean_linker_0, # of connection points: 2
#     Edge 57, Type (0, 0), BuildingBlock: OJICUG_clean_linker_0, # of connection points: 2
#     Edge 58, Type (0, 0), BuildingBlock: OJICUG_clean_linker_0, # of connection points: 2
#     Edge 59, Type (0, 0), BuildingBlock: OJICUG_clean_linker_0, # of connection points: 2
#     Edge 60, Type (0, 0), BuildingBlock: OJICUG_clean_linker_0, # of connection points: 2
#     Edge 61, Type (0, 0), BuildingBlock: OJICUG_clean_linker_0, # of connection points: 2
#     Edge 62, Type (0, 0), BuildingBlock: OJICUG_clean_linker_0, # of connection points: 2
#     Edge 63, Type (0, 0), BuildingBlock: OJICUG_clean_linker_0, # of connection points: 2
# Relax obj value: 0.165
# Max RMSD: 0.251
# Mean RMSD: 0.231
data_MOF--net-snl--node1-PAMTUU_clean_sbu_0--edge1-OJICUG_clean_linker_0
_symmetry_space_group_name_H-M    P1
_symmetry_Int_Tables_number       1
_symmetry_cell_setting            triclinic
loop_
_symmetry_equiv_pos_as_xyz
'x, y, z'
_cell_length_a     40.772904
_cell_length_b     41.048982
_cell_length_c     21.436125
_cell_angle_alpha  96.212326
_cell_angle_beta   92.170403
_cell_angle_gamma 90.169079
loop_
_atom_site_label
_atom_site_type_symbol
_atom_site_fract_x
_atom_site_fract_y
_atom_site_fract_z
_atom_type_partial_charge
Tb0 Tb 0.12031 0.62625 0.22552 0.0
Tb1 Tb 0.15503 0.63602 0.09342 0.0
C2 C 0.13929 0.56971 0.12524 0.0
C3 C 0.10225 0.62009 0.39416 0.0
C4 C 0.11669 0.62946 0.52503 0.0
C5 C 0.08532 0.61878 0.50137 0.0
C6 C 0.07823 0.61413 0.43663 0.0
C7 C 0.13344 0.63118 0.41722 0.0
C8 C 0.14062 0.6358 0.48204 0.0
C9 C 0.09441 0.61426 0.3262 0.0
O10 O 0.17241 0.6253 0.25043 0.0
O11 O 0.19593 0.64402 0.16419 0.0
O12 O 0.13803 0.68397 0.1286 0.0
O13 O 0.13615 0.67809 0.23416 0.0
O14 O 0.1684 0.61088 1.00815 0.0
O15 O 0.17852 0.66264 1.02862 0.0
O16 O 0.10175 0.62805 0.0708 0.0
O17 O 0.08167 0.64442 0.16791 0.0
O18 O 0.11402 0.58224 0.15551 0.0
O19 O 0.16467 0.5887 0.12375 0.0
C20 C 0.19783 0.6362 0.22267 0.0
O21 O 0.08796 0.6401 0.29767 0.0
O22 O 0.11347 0.59399 0.29365 0.0
C23 C 0.13807 0.69658 0.18756 0.0
C24 C 0.16782 0.64173 0.92181 0.0
C25 C 0.14904 0.64237 0.79357 0.0
C26 C 0.18147 0.65005 0.81517 0.0
C27 C 0.19075 0.64964 0.87863 0.0
C28 C 0.13513 0.63527 0.90107 0.0
C29 C 0.12585 0.63554 0.83754 0.0
C30 C 0.17911 0.63723 0.98649 0.0
C31 C 0.07732 0.63776 0.10713 0.0
H32 H 0.06612 0.61417 0.5329 0.0
H33 H 0.05395 0.60573 0.4197 0.0
H34 H 0.15227 0.63595 0.38506 0.0
H35 H 0.16512 0.64369 0.49837 0.0
H36 H 0.20003 0.65512 0.78264 0.0
H37 H 0.21614 0.65447 0.89364 0.0
H38 H 0.11701 0.6291 0.93364 0.0
H39 H 0.10057 0.62999 0.82271 0.0
Tb40 Tb 0.62239 0.89819 0.33501 0.0
Tb41 Tb 0.66037 0.89 0.47148 0.0
C42 C 0.64121 0.95568 0.43744 0.0
C43 C 0.60451 0.90283 0.16274 0.0
C44 C 0.62079 0.89558 0.03438 0.0
C45 C 0.58987 0.90757 0.05291 0.0
C46 C 0.58189 0.91118 0.11631 0.0
C47 C 0.63518 0.89044 0.14475 0.0
C48 C 0.64327 0.88686 0.0813 0.0
C49 C 0.596 0.90796 0.22956 0.0
O50 O 0.6742 0.90102 0.31613 0.0
O51 O 0.69929 0.88059 0.4023 0.0
O52 O 0.63809 0.84306 0.43963 0.0
O53 O 0.6364 0.8461 0.33306 0.0
O54 O 0.6758 0.91589 0.55712 0.0
O55 O 0.68467 0.864 0.53947 0.0
O56 O 0.60783 0.89799 0.4913 0.0
O57 O 0.5837 0.88376 0.39274 0.0
O58 O 0.61625 0.94261 0.40275 0.0
O59 O 0.66729 0.93778 0.44157 0.0
C60 C 0.69998 0.88915 0.34432 0.0
O61 O 0.59114 0.88175 0.25742 0.0
O62 O 0.61356 0.9297 0.26526 0.0
C63 C 0.63588 0.82889 0.38171 0.0
C64 C 0.67457 0.88588 0.64482 0.0
C65 C 0.65567 0.88562 0.7709 0.0
C66 C 0.68757 0.87643 0.75333 0.0
C67 C 0.69691 0.87668 0.69105 0.0
C68 C 0.64238 0.89402 0.66161 0.0
C69 C 0.63307 0.89395 0.72391 0.0
C70 C 0.68593 0.88969 0.58113 0.0
C71 C 0.58188 0.88966 0.45392 0.0
H72 H 0.57166 0.91402 1.01836 0.0
H73 H 0.55802 0.92069 0.12912 0.0
H74 H 0.65294 0.88387 0.17992 0.0
H75 H 0.66742 0.8779 0.06927 0.0
H76 H 0.70573 0.87016 0.78815 0.0
H77 H 0.72192 0.87053 0.67933 0.0
H78 H 0.62464 0.9012 0.62684 0.0
H79 H 0.60817 0.90067 0.73537 0.0
Tb80 Tb 0.36018 0.38596 0.57759 0.0
Tb81 Tb 0.39147 0.41194 0.71961 0.0
C82 C 0.31673 0.39361 0.69882 0.0
C83 C 0.34473 0.37917 0.40149 0.0
C84 C 0.35781 0.39298 0.27745 0.0
C85 C 0.33582 0.36777 0.28804 0.0
C86 C 0.32942 0.36099 0.34918 0.0
C87 C 0.36642 0.40462 0.39161 0.0
C88 C 0.37283 0.41151 0.33029 0.0
C89 C 0.33836 0.37042 0.46537 0.0
O90 O 0.35319 0.43808 0.59711 0.0
O91 O 0.39958 0.45068 0.65634 0.0
O92 O 0.43224 0.39213 0.66638 0.0
O93 O 0.4124 0.39788 0.56611 0.0
O94 O 0.39117 0.44827 0.79722 0.0
O95 O 0.42327 0.40682 0.79747 0.0
O96 O 0.3799 0.35958 0.72273 0.0
O97 O 0.37798 0.34254 0.61645 0.0
O98 O 0.32155 0.37654 0.6438 0.0
O99 O 0.33859 0.4149 0.72471 0.0
C100 C 0.37759 0.45819 0.61338 0.0
O101 O 0.36168 0.35499 0.49277 0.0
O102 O 0.32553 0.39283 0.50461 0.0
C103 C 0.4368 0.39289 0.60626 0.0
C104 C 0.40205 0.4275 0.89527 0.0
C105 C 0.38622 0.41731 1.02004 0.0
C106 C 0.40798 0.44256 1.00848 0.0
C107 C 0.41576 0.44755 0.94693 0.0
C108 C 0.38002 0.40255 0.90622 0.0
C109 C 0.37217 0.39754 0.96777 0.0
C110 C 0.41165 0.43234 0.83073 0.0
C111 C 0.3808 0.33625 0.67524 0.0
H112 H 0.3233 0.3533 0.24899 0.0
H113 H 0.31254 0.34128 0.35557 0.0
H114 H 0.37864 0.41894 0.43127 0.0
H115 H 0.39011 0.4309 0.3243 0.0
H116 H 0.41968 0.45809 0.04708 0.0
H117 H 0.4329 0.4669 0.93973 0.0
H118 H 0.36908 0.38675 0.86714 0.0
H119 H 0.35492 0.37821 0.97428 0.0
Tb120 Tb 0.86752 0.14222 0.9908 0.0
Tb121 Tb 0.89217 0.11163 0.85006 0.0
C122 C 0.81867 0.1309 0.8698 0.0
C123 C 0.85506 0.15239 0.16525 0.0
C124 C 0.86442 0.13606 0.29004 0.0
C125 C 0.84054 0.15899 0.27508 0.0
C126 C 0.83591 0.16699 0.21344 0.0
C127 C 0.87877 0.12928 0.17953 0.0
C128 C 0.88331 0.1211 0.24123 0.0
C129 C 0.85029 0.16213 0.10101 0.0
O130 O 0.85915 0.0901 0.98191 0.0
O131 O 0.89954 0.0732 0.91528 0.0
O132 O 0.93575 0.13061 0.90164 0.0
O133 O 0.91965 0.12849 1.00277 0.0
O134 O 0.88711 0.07531 0.77269 0.0
O135 O 0.92365 0.11334 0.77511 0.0
O136 O 0.88061 0.16352 0.84089 0.0
O137 O 0.88149 0.1844 0.94559 0.0
O138 O 0.82606 0.14911 0.92342 0.0
O139 O 0.83917 0.1092 0.84475 0.0
C140 C 0.88095 0.0684 0.96294 0.0
O141 O 0.87619 0.1726 0.07529 0.0
O142 O 0.83269 0.14249 0.06108 0.0
C143 C 0.94274 0.12992 0.96154 0.0
C144 C 0.9002 0.0942 0.67555 0.0
C145 C 0.88644 0.10649 0.54931 0.0
C146 C 0.90958 0.0827 0.56374 0.0
C147 C 0.91632 0.07665 0.62607 0.0
C148 C 0.87685 0.11768 0.66171 0.0
C149 C 0.86995 0.12369 0.59932 0.0
C150 C 0.90922 0.08883 0.74119 0.0
C151 C 0.88097 0.18843 0.88559 0.0
H152 H 0.82519 0.17066 0.31101 0.0
H153 H 0.81743 0.18482 0.20348 0.0
H154 H 0.89399 0.11785 0.14313 0.0
H155 H 0.90214 0.10359 0.25094 0.0
H156 H 0.92319 0.06926 0.52704 0.0
H157 H 0.93463 0.05859 0.63572 0.0
H158 H 0.86424 0.13166 0.69923 0.0
H159 H 0.85164 0.14182 0.59036 0.0
Tb160 Tb 0.12114 0.39851 0.83414 0.0
Tb161 Tb 0.15853 0.38895 0.97046 0.0
C162 C 0.14054 0.45527 0.93749 0.0
C163 C 0.10392 0.40302 0.66202 0.0
C164 C 0.12062 0.39386 0.53407 0.0
C165 C 0.0911 0.40928 0.55208 0.0
C166 C 0.08291 0.41386 0.61535 0.0
C167 C 0.1332 0.3873 0.64445 0.0
C168 C 0.14155 0.38287 0.58119 0.0
C169 C 0.09521 0.40878 0.72863 0.0
O170 O 0.17303 0.40114 0.81602 0.0
O171 O 0.19752 0.37958 0.90152 0.0
O172 O 0.13581 0.34239 0.93706 0.0
O173 O 0.13492 0.34636 0.83082 0.0
O174 O 0.17413 0.41412 0.05664 0.0
O175 O 0.18241 0.36216 0.03775 0.0
O176 O 0.10604 0.39727 0.99017 0.0
O177 O 0.08214 0.38406 0.8911 0.0
O178 O 0.11545 0.44271 0.90251 0.0
O179 O 0.16627 0.43692 0.94193 0.0
C180 C 0.19857 0.38874 0.84405 0.0
O181 O 0.08948 0.38285 0.7568 0.0
O182 O 0.11326 0.43014 0.76422 0.0
C183 C 0.1338 0.32873 0.87876 0.0
C184 C 0.1728 0.38354 0.14367 0.0
C185 C 0.15498 0.38258 0.27033 0.0
C186 C 0.18586 0.37116 0.25043 0.0
C187 C 0.19466 0.37175 0.18792 0.0
C188 C 0.14155 0.39394 0.16262 0.0
C189 C 0.13277 0.39353 0.22517 0.0
C190 C 0.18396 0.38763 0.07994 0.0
C191 C 0.08015 0.38945 0.95231 0.0
H192 H 0.07457 0.41844 0.51739 0.0
H193 H 0.06022 0.42611 0.62789 0.0
H194 H 0.14957 0.37852 0.67975 0.0
H195 H 0.16427 0.37055 0.56914 0.0
H196 H 0.20344 0.36197 0.28326 0.0
H197 H 0.21891 0.36364 0.17447 0.0
H198 H 0.12423 0.4033 0.12948 0.0
H199 H 0.10895 0.40288 0.23846 0.0
Tb200 Tb 0.89094 0.91116 0.21971 0.0
Tb201 Tb 0.86211 0.88285 0.07635 0.0
C202 C 0.8822 0.95639 0.10751 0.0
C203 C 0.89911 0.92527 0.39583 0.0
C204 C 0.88361 0.91347 0.51978 0.0
C205 C 0.8975 0.94356 0.50788 0.0
C206 C 0.9052 0.94932 0.4467 0.0
C207 C 0.88451 0.8955 0.4071 0.0
C208 C 0.87695 0.88964 0.46831 0.0
C209 C 0.90913 0.93117 0.33207 0.0
O210 O 0.83829 0.91635 0.21944 0.0
O211 O 0.82278 0.87545 0.14291 0.0
O212 O 0.88173 0.84108 0.11828 0.0
O213 O 0.87859 0.85901 0.22338 0.0
O214 O 0.82628 0.88515 1.00349 0.0
O215 O 0.86587 0.85069 0.99347 0.0
O216 O 0.9145 0.89422 0.06626 0.0
O217 O 0.9331 0.89257 0.16895 0.0
O218 O 0.89965 0.95043 0.15842 0.0
O219 O 0.86023 0.93559 0.08086 0.0
C220 C 0.81702 0.89406 0.19578 0.0
O221 O 0.92216 0.90655 0.2985 0.0
O222 O 0.88848 0.94675 0.29834 0.0
C223 C 0.88222 0.83533 0.17737 0.0
C224 C 0.84652 0.8722 0.90089 0.0
C225 C 0.85807 0.88655 0.7766 0.0
C226 C 0.84583 0.85569 0.78809 0.0
C227 C 0.84019 0.84864 0.84937 0.0
C228 C 0.8585 0.90314 0.89 0.0
C229 C 0.86417 0.91026 0.82858 0.0
C230 C 0.8411 0.86362 0.96526 0.0
C231 C 0.93843 0.89158 0.10871 0.0
H232 H 0.90326 0.96242 0.54609 0.0
H233 H 0.91643 0.97247 0.43926 0.0
H234 H 0.87927 0.8766 0.36865 0.0
H235 H 0.86578 0.8664 0.47526 0.0
H236 H 0.84028 0.83693 0.7496 0.0
H237 H 0.83092 0.82462 0.85653 0.0
H238 H 0.86367 0.9217 0.929 0.0
H239 H 0.87391 0.93416 0.82203 0.0
Tb240 Tb 0.3694 0.64107 0.49003 0.0
Tb241 Tb 0.39435 0.61099 0.35042 0.0
C242 C 0.32113 0.63219 0.36884 0.0
C243 C 0.35667 0.65057 0.66483 0.0
C244 C 0.36664 0.63458 0.78986 0.0
C245 C 0.34685 0.66126 0.77658 0.0
C246 C 0.34199 0.66912 0.71491 0.0
C247 C 0.37613 0.62366 0.67732 0.0
C248 C 0.38102 0.61572 0.73918 0.0
C249 C 0.3518 0.66021 0.60052 0.0
O250 O 0.35901 0.58923 0.47671 0.0
O251 O 0.40186 0.57296 0.41649 0.0
O252 O 0.43714 0.63198 0.40188 0.0
O253 O 0.42152 0.6272 0.50229 0.0
O254 O 0.38887 0.57465 0.27311 0.0
O255 O 0.42621 0.61189 0.27579 0.0
O256 O 0.38417 0.66322 0.3419 0.0
O257 O 0.38654 0.68299 0.44705 0.0
O258 O 0.32878 0.65016 0.42258 0.0
O259 O 0.34129 0.61016 0.34361 0.0
C260 C 0.381 0.56734 0.45994 0.0
O261 O 0.37752 0.67121 0.57512 0.0
O262 O 0.33469 0.64031 0.56031 0.0
C263 C 0.44437 0.63141 0.46174 0.0
C264 C 0.40239 0.59332 0.17605 0.0
C265 C 0.38887 0.60554 0.04965 0.0
C266 C 0.40905 0.57929 0.06379 0.0
C267 C 0.41572 0.5733 0.12622 0.0
C268 C 0.3818 0.61919 0.16244 0.0
C269 C 0.3751 0.62523 0.09999 0.0
C270 C 0.41128 0.58773 0.24169 0.0
C271 C 0.38727 0.68764 0.38739 0.0
H272 H 0.33486 0.67603 0.81386 0.0
H273 H 0.32678 0.68991 0.70636 0.0
H274 H 0.38775 0.609 0.63934 0.0
H275 H 0.39664 0.5952 0.74738 0.0
H276 H 0.42044 0.56381 1.0267 0.0
H277 H 0.43178 0.55328 0.13562 0.0
H278 H 0.37121 0.63496 0.20015 0.0
H279 H 0.35904 0.64533 0.09121 0.0
Tb280 Tb 0.61843 0.12718 0.72416 0.0
Tb281 Tb 0.65343 0.13573 0.59199 0.0
C282 C 0.63789 0.06988 0.62566 0.0
C283 C 0.60033 0.12184 0.8931 0.0
C284 C 0.61503 0.1309 1.02393 0.0
C285 C 0.58305 0.12237 1.00051 0.0
C286 C 0.57583 0.11787 0.93579 0.0
C287 C 0.63216 0.13081 0.91593 0.0
C288 C 0.63946 0.13528 0.98072 0.0
C289 C 0.59232 0.11603 0.82516 0.0
O290 O 0.67036 0.12608 0.74985 0.0
O291 O 0.69429 0.14373 0.66305 0.0
O292 O 0.63607 0.1838 0.62514 0.0
O293 O 0.63448 0.17903 0.73107 0.0
O294 O 0.6659 0.11012 0.50656 0.0
O295 O 0.67796 0.16151 0.52723 0.0
O296 O 0.60011 0.12768 0.56933 0.0
O297 O 0.57985 0.14489 0.66591 0.0
O298 O 0.61243 0.08265 0.65506 0.0
O299 O 0.66323 0.08889 0.62408 0.0
C300 C 0.69596 0.13638 0.7219 0.0
O301 O 0.58639 0.14191 0.79644 0.0
O302 O 0.6109 0.09528 0.79259 0.0
C303 C 0.63634 0.19705 0.68369 0.0
C304 C 0.66665 0.14102 0.42038 0.0
C305 C 0.64793 0.14246 0.29227 0.0
C306 C 0.68077 0.1481 0.31341 0.0
C307 C 0.69001 0.1473 0.37679 0.0
C308 C 0.63364 0.13657 0.4001 0.0
C309 C 0.62437 0.13725 0.33665 0.0
C310 C 0.67765 0.13608 0.48501 0.0
C311 C 0.5756 0.13773 0.60525 0.0
H312 H 0.56349 0.1193 0.0322 0.0
H313 H 0.55107 0.11111 0.91905 0.0
H314 H 0.65141 0.13399 0.88364 0.0
H315 H 0.66442 0.14148 0.99687 0.0
H316 H 0.69962 0.15186 0.28059 0.0
H317 H 0.71565 0.15055 0.39143 0.0
H318 H 0.61518 0.13167 0.433 0.0
H319 H 0.5988 0.13329 0.3222 0.0
Tb320 Tb 0.86529 0.3893 0.96891 0.0
Tb321 Tb 0.90046 0.39786 0.83668 0.0
C322 C 0.88222 0.32795 0.87653 0.0
C323 C 0.85212 0.38408 0.14053 0.0
C324 C 0.8709 0.38274 0.26864 0.0
C325 C 0.83813 0.37666 0.24742 0.0
C326 C 0.82886 0.37742 0.18403 0.0
C327 C 0.88509 0.38896 0.16089 0.0
C328 C 0.89437 0.38833 0.22435 0.0
C329 C 0.84106 0.38896 0.07589 0.0
O330 O 0.91861 0.39688 0.9917 0.0
O331 O 0.93884 0.37983 0.895 0.0
O332 O 0.90714 0.44213 0.90612 0.0
O333 O 0.8563 0.43644 0.93741 0.0
O334 O 0.93238 0.38297 0.7643 0.0
O335 O 0.90827 0.42981 0.76842 0.0
O336 O 0.84849 0.39981 0.81152 0.0
O337 O 0.82435 0.38203 0.89799 0.0
O338 O 0.88206 0.34105 0.93518 0.0
O339 O 0.88432 0.34607 0.82935 0.0
C340 C 0.94306 0.38679 0.95573 0.0
O341 O 0.85272 0.41493 0.05426 0.0
O342 O 0.84078 0.36353 0.0337 0.0
C343 C 0.88192 0.4551 0.93596 0.0
C344 C 0.91865 0.40328 0.6678 0.0
C345 C 0.90387 0.39436 0.53698 0.0
C346 C 0.93572 0.40345 0.56039 0.0
C347 C 0.94298 0.40788 0.6251 0.0
C348 C 0.88696 0.39377 0.64498 0.0
C349 C 0.87962 0.38938 0.5802 0.0
C350 C 0.92669 0.40894 0.73574 0.0
C351 C 0.82274 0.38976 0.83941 0.0
H352 H 0.81935 0.37259 0.28019 0.0
H353 H 0.80326 0.37383 0.16933 0.0
H354 H 0.90347 0.39415 0.12807 0.0
H355 H 0.91989 0.39263 0.23886 0.0
H356 H 0.95517 0.40698 0.5287 0.0
H357 H 0.96764 0.41506 0.64183 0.0
H358 H 0.86787 0.39008 0.67729 0.0
H359 H 0.85476 0.38274 0.56407 0.0
Tb360 Tb 0.35987 0.13474 0.59091 0.0
Tb361 Tb 0.39756 0.1265 0.72742 0.0
C362 C 0.38423 0.19585 0.68076 0.0
C363 C 0.34524 0.13932 0.41763 0.0
C364 C 0.36402 0.13985 0.29157 0.0
C365 C 0.33139 0.14628 0.30829 0.0
C366 C 0.32213 0.14593 0.37057 0.0
C367 C 0.37805 0.13393 0.40172 0.0
C368 C 0.38732 0.13416 0.33941 0.0
C369 C 0.33422 0.1351 0.48132 0.0
O370 O 0.41251 0.12694 0.57139 0.0
O371 O 0.43643 0.14095 0.6702 0.0
O372 O 0.40356 0.08205 0.6597 0.0
O373 O 0.35259 0.08689 0.6204 0.0
O374 O 0.4288 0.1428 0.80516 0.0
O375 O 0.40609 0.09496 0.79716 0.0
O376 O 0.34577 0.12397 0.74633 0.0
O377 O 0.32085 0.14426 0.65987 0.0
O378 O 0.3821 0.18169 0.62282 0.0
O379 O 0.38364 0.17862 0.72937 0.0
C380 C 0.4384 0.13519 0.60903 0.0
O381 O 0.34492 0.10898 0.50484 0.0
O382 O 0.33523 0.16068 0.52327 0.0
C383 C 0.37858 0.06893 0.62516 0.0
C384 C 0.41498 0.1219 0.89973 0.0
C385 C 0.39878 0.12955 1.0281 0.0
C386 C 0.43083 0.12106 1.01024 0.0
C387 C 0.43879 0.11728 0.94683 0.0
C388 C 0.38309 0.13073 0.91706 0.0
C389 C 0.37506 0.13455 0.98052 0.0
C390 C 0.42366 0.11665 0.83301 0.0
C391 C 0.32007 0.13587 0.71795 0.0
H392 H 0.31269 0.15044 0.27286 0.0
H393 H 0.29664 0.14989 0.38165 0.0
H394 H 0.39635 0.12874 0.43719 0.0
H395 H 0.41274 0.12961 0.32863 0.0
H396 H 0.44991 0.1175 0.04532 0.0
H397 H 0.46359 0.11054 0.93453 0.0
H398 H 0.36434 0.13427 0.88141 0.0
H399 H 0.35006 0.14072 0.99214 0.0
Tb400 Tb 0.62865 0.61278 0.34287 0.0
Tb401 Tb 0.65981 0.63892 0.48552 0.0
C402 C 0.58323 0.63161 0.45646 0.0
C403 C 0.61695 0.59675 0.16698 0.0
C404 C 0.63258 0.60583 0.04173 0.0
C405 C 0.59972 0.60325 0.05877 0.0
C406 C 0.59204 0.59886 0.12058 0.0
C407 C 0.64982 0.59906 0.15023 0.0
C408 C 0.65755 0.60368 0.08844 0.0
C409 C 0.60797 0.59244 0.23219 0.0
O410 O 0.63997 0.6652 0.34008 0.0
O411 O 0.64207 0.68229 0.44643 0.0
O412 O 0.69881 0.64782 0.41984 0.0
O413 O 0.68153 0.61085 0.33639 0.0
O414 O 0.65807 0.66968 0.5703 0.0
O415 O 0.69475 0.63225 0.55839 0.0
O416 O 0.66568 0.58665 0.46801 0.0
O417 O 0.62043 0.57384 0.40551 0.0
O418 O 0.58783 0.63248 0.39637 0.0
O419 O 0.60763 0.62699 0.4968 0.0
C420 C 0.63918 0.68853 0.38761 0.0
O421 O 0.62831 0.57632 0.26574 0.0
O422 O 0.59664 0.61818 0.26518 0.0
C423 C 0.70354 0.63146 0.36411 0.0
C424 C 0.6742 0.64407 0.66088 0.0
C425 C 0.66155 0.62893 0.78435 0.0
C426 C 0.69371 0.63549 0.76688 0.0
C427 C 0.6999 0.64302 0.70605 0.0
C428 C 0.64216 0.63678 0.67741 0.0
C429 C 0.63591 0.62943 0.73835 0.0
C430 C 0.68113 0.65396 0.59794 0.0
C431 C 0.64099 0.56698 0.45137 0.0
H432 H 0.5798 0.60521 1.02454 0.0
H433 H 0.56651 0.59723 0.13224 0.0
H434 H 0.66954 0.5972 0.18485 0.0
H435 H 0.68313 0.60514 0.0771 0.0
H436 H 0.71427 0.63474 0.80016 0.0
H437 H 0.72485 0.64836 0.69445 0.0
H438 H 0.62182 0.63729 0.64353 0.0
H439 H 0.61077 0.62493 0.74971 0.0
Tb440 Tb 0.12811 0.91223 0.21245 0.0
Tb441 Tb 0.15278 0.88183 0.07195 0.0
C442 C 0.07794 0.88878 0.10382 0.0
C443 C 0.11845 0.93013 0.38639 0.0
C444 C 0.131 0.91803 0.51303 0.0
C445 C 0.1079 0.94165 0.49773 0.0
C446 C 0.10176 0.94763 0.43518 0.0
C447 C 0.1417 0.9067 0.40118 0.0
C448 C 0.148 0.9008 0.46383 0.0
C449 C 0.11048 0.93584 0.3205 0.0
O450 O 0.14005 0.86068 0.2233 0.0
O451 O 0.14171 0.83929 0.11882 0.0
O452 O 0.19476 0.8752 0.13819 0.0
O453 O 0.18114 0.91339 0.2198 0.0
O454 O 0.14358 0.85153 0.98749 0.0
O455 O 0.18686 0.88201 1.00046 0.0
O456 O 0.1612 0.93385 0.08118 0.0
O457 O 0.11997 0.94998 0.14609 0.0
O458 O 0.08626 0.88808 0.16313 0.0
O459 O 0.09999 0.89384 0.06231 0.0
C460 C 0.14117 0.83565 0.179 0.0
O461 O 0.13361 0.94837 0.28998 0.0
O462 O 0.09537 0.912 0.2859 0.0
C463 C 0.20186 0.89242 0.19303 0.0
C464 C 0.16371 0.87203 0.89689 0.0
C465 C 0.15355 0.8889 0.77249 0.0
C466 C 0.17755 0.86589 0.78666 0.0
C467 C 0.18256 0.85764 0.84806 0.0
C468 C 0.13977 0.89505 0.88342 0.0
C469 C 0.1348 0.90347 0.82197 0.0
C470 C 0.16912 0.86226 0.96099 0.0
C471 C 0.13901 0.95522 0.09937 0.0
H472 H 0.09466 0.95572 0.53421 0.0
H473 H 0.08371 0.96581 0.42486 0.0
H474 H 0.15465 0.89269 0.36419 0.0
H475 H 0.16567 0.88219 0.47356 0.0
H476 H 0.19213 0.85367 0.75006 0.0
H477 H 0.20106 0.8397 0.8573 0.0
H478 H 0.12485 0.90642 0.92037 0.0
H479 H 0.1164 0.92158 0.8134 0.0
Tb480 Tb 0.86172 0.63537 0.09277 0.0
Tb481 Tb 0.89935 0.62572 0.22864 0.0
C482 C 0.88599 0.69552 0.18452 0.0
C483 C 0.84752 0.63995 0.91954 0.0
C484 C 0.86604 0.63938 0.79309 0.0
C485 C 0.8351 0.65114 0.81175 0.0
C486 C 0.82592 0.65128 0.87424 0.0
C487 C 0.87885 0.62927 0.90162 0.0
C488 C 0.88796 0.6289 0.83912 0.0
C489 C 0.83606 0.63662 0.9834 0.0
O490 O 0.91424 0.62735 0.07265 0.0
O491 O 0.9382 0.64048 0.17168 0.0
O492 O 0.90557 0.58172 0.15993 0.0
O493 O 0.85463 0.58723 0.12099 0.0
O494 O 0.93048 0.64193 0.30646 0.0
O495 O 0.90799 0.59401 0.29822 0.0
O496 O 0.8475 0.62146 0.24574 0.0
O497 O 0.82311 0.64501 0.16262 0.0
O498 O 0.88434 0.68192 0.1262 0.0
O499 O 0.88486 0.67774 0.23228 0.0
C500 C 0.94015 0.63521 0.11045 0.0
O501 O 0.84516 0.61007 1.00731 0.0
O502 O 0.83832 0.66226 1.02509 0.0
C503 C 0.88055 0.56909 0.1248 0.0
C504 C 0.91693 0.62077 0.40092 0.0
C505 C 0.90045 0.62819 0.52923 0.0
C506 C 0.92959 0.61236 0.50991 0.0
C507 C 0.93762 0.60861 0.44656 0.0
C508 C 0.88816 0.63711 0.41968 0.0
C509 C 0.87991 0.64068 0.48307 0.0
C510 C 0.92551 0.61569 0.33414 0.0
C511 C 0.82202 0.63478 0.21927 0.0
H512 H 0.81749 0.65915 0.77761 0.0
H513 H 0.80155 0.65941 0.88681 0.0
H514 H 0.89603 0.62043 0.93563 0.0
H515 H 0.91214 0.62015 0.82673 0.0
H516 H 0.94644 0.603 0.5438 0.0
H517 H 0.96007 0.5961 0.43318 0.0
H518 H 0.87203 0.64693 0.3852 0.0
H519 H 0.85714 0.65273 0.4956 0.0
Tb520 Tb 0.15822 0.14292 0.98671 0.0
Tb521 Tb 0.13103 0.11242 0.84275 0.0
C522 C 0.13561 0.18894 0.88606 0.0
C523 C 0.17507 0.15428 0.16123 0.0
C524 C 0.16493 0.13876 0.28531 0.0
C525 C 0.1781 0.16937 0.27457 0.0
C526 C 0.18305 0.177 0.21334 0.0
C527 C 0.16207 0.12366 0.17144 0.0
C528 C 0.15706 0.11598 0.2327 0.0
C529 C 0.17988 0.16321 0.09688 0.0
O530 O 0.106 0.13163 0.99791 0.0
O531 O 0.08673 0.12195 0.8941 0.0
O532 O 0.12424 0.07224 0.90256 0.0
O533 O 0.15869 0.09034 0.98741 0.0
O534 O 0.10083 0.11688 0.76253 0.0
O535 O 0.13546 0.07744 0.76375 0.0
O536 O 0.18358 0.10721 0.84706 0.0
O537 O 0.19706 0.1506 0.91911 0.0
O538 O 0.1359 0.18335 0.9451 0.0
O539 O 0.14062 0.16535 0.84054 0.0
C540 C 0.08191 0.12662 0.95478 0.0
O541 O 0.19491 0.14199 0.05839 0.0
O542 O 0.15459 0.17551 0.06911 0.0
C543 C 0.13928 0.06805 0.95704 0.0
C544 C 0.12483 0.09856 0.66585 0.0
C545 C 0.14024 0.11051 0.54187 0.0
C546 C 0.12542 0.0808 0.55355 0.0
C547 C 0.11779 0.07497 0.61467 0.0
C548 C 0.14031 0.12795 0.65494 0.0
C549 C 0.1479 0.13386 0.59372 0.0
C550 C 0.11465 0.09254 0.72944 0.0
C551 C 0.20384 0.13084 0.86826 0.0
H552 H 0.18403 0.18778 0.31347 0.0
H553 H 0.19294 0.20085 0.20668 0.0
H554 H 0.15576 0.1057 0.13201 0.0
H555 H 0.14727 0.09202 0.2388 0.0
H556 H 0.1197 0.0619 0.5154 0.0
H557 H 0.10602 0.05205 0.62188 0.0
H558 H 0.14607 0.14656 0.69364 0.0
H559 H 0.15901 0.15714 0.58695 0.0
Tb560 Tb 0.62468 0.41251 0.71194 0.0
Tb561 Tb 0.65103 0.38469 0.57128 0.0
C562 C 0.5757 0.39014 0.60023 0.0
C563 C 0.6147 0.42914 0.8857 0.0
C564 C 0.62904 0.41774 1.01207 0.0
C565 C 0.60554 0.44113 0.99745 0.0
C566 C 0.59848 0.44673 0.935 0.0
C567 C 0.63843 0.40606 0.89978 0.0
C568 C 0.64556 0.40044 0.96227 0.0
C569 C 0.60579 0.43436 0.82002 0.0
O570 O 0.63816 0.36118 0.72086 0.0
O571 O 0.63953 0.3414 0.61571 0.0
O572 O 0.69292 0.37924 0.63829 0.0
O573 O 0.6776 0.41577 0.72109 0.0
O574 O 0.64352 0.35412 0.48671 0.0
O575 O 0.68572 0.38608 0.50122 0.0
O576 O 0.65618 0.43719 0.57879 0.0
O577 O 0.61577 0.45109 0.64793 0.0
O578 O 0.58336 0.38885 0.6597 0.0
O579 O 0.59814 0.39568 0.55979 0.0
C580 C 0.63938 0.33675 0.67545 0.0
O581 O 0.62763 0.44881 0.78949 0.0
O582 O 0.59249 0.40943 0.78543 0.0
C583 C 0.69926 0.3961 0.69374 0.0
C584 C 0.66384 0.37505 0.39696 0.0
C585 C 0.65331 0.39042 0.27188 0.0
C586 C 0.67642 0.36664 0.28628 0.0
C587 C 0.68157 0.35907 0.34804 0.0
C588 C 0.64107 0.39914 0.38335 0.0
C589 C 0.63588 0.40679 0.32145 0.0
C590 C 0.66901 0.36565 0.46126 0.0
C591 C 0.63423 0.45781 0.60138 0.0
H592 H 0.59197 0.45463 0.03416 0.0
H593 H 0.57995 0.46454 0.92513 0.0
H594 H 0.65124 0.39219 0.86239 0.0
H595 H 0.66412 0.38259 0.97153 0.0
H596 H 0.69074 0.35392 0.2498 0.0
H597 H 0.69936 0.3405 0.35755 0.0
H598 H 0.62707 0.41173 0.42047 0.0
H599 H 0.61769 0.42501 0.31228 0.0
Tb600 Tb 0.36706 0.88657 0.46963 0.0
Tb601 Tb 0.40151 0.89787 0.33782 0.0
C602 C 0.39005 0.82719 0.37878 0.0
C603 C 0.35356 0.87914 0.64043 0.0
C604 C 0.37211 0.8788 0.76889 0.0
C605 C 0.33937 0.87256 0.74759 0.0
C606 C 0.33022 0.87282 0.68403 0.0
C607 C 0.3865 0.8841 0.66087 0.0
C608 C 0.39568 0.88396 0.72449 0.0
C609 C 0.34254 0.884 0.57577 0.0
O610 O 0.41997 0.8962 0.49373 0.0
O611 O 0.44142 0.88288 0.39636 0.0
O612 O 0.40684 0.94208 0.4076 0.0
O613 O 0.35666 0.93417 0.44102 0.0
O614 O 0.43355 0.88405 0.26509 0.0
O615 O 0.40774 0.92999 0.26919 0.0
O616 O 0.34947 0.89868 0.31359 0.0
O617 O 0.32688 0.87694 0.39755 0.0
O618 O 0.38921 0.84042 0.43722 0.0
O619 O 0.38803 0.84528 0.33133 0.0
C620 C 0.44502 0.88856 0.45747 0.0
O621 O 0.35313 0.91073 0.55534 0.0
O622 O 0.34359 0.85893 0.53288 0.0
C623 C 0.38157 0.95375 0.43903 0.0
C624 C 0.41877 0.90374 0.16851 0.0
C625 C 0.40428 0.89353 0.03765 0.0
C626 C 0.43612 0.90266 0.06104 0.0
C627 C 0.44324 0.90771 0.12575 0.0
C628 C 0.38707 0.89426 0.14572 0.0
C629 C 0.37987 0.88922 0.08092 0.0
C630 C 0.42678 0.90977 0.23644 0.0
C631 C 0.32456 0.88611 0.34006 0.0
H632 H 0.32052 0.86882 0.7804 0.0
H633 H 0.30463 0.86922 0.66928 0.0
H634 H 0.40492 0.88908 0.62797 0.0
H635 H 0.42117 0.88836 0.73906 0.0
H636 H 0.45568 0.90569 1.02932 0.0
H637 H 0.46792 0.91484 0.14245 0.0
H638 H 0.36786 0.89105 0.17806 0.0
H639 H 0.35501 0.88258 0.0648 0.0
C640 C 0.11985 0.61402 0.69715 0.0
C641 C 0.13991 0.63991 0.72514 0.0
H642 H 0.09742 0.59005 0.61258 0.0
C643 C 0.15201 0.66262 0.68684 0.0
H644 H 0.11062 0.59571 0.72492 0.0
C645 C 0.14436 0.65941 0.62218 0.0
C646 C 0.12448 0.63336 0.5941 0.0
H647 H 0.16722 0.68306 0.70694 0.0
H648 H 0.15379 0.67756 0.59429 0.0
C649 C 0.11228 0.61077 0.63256 0.0
C650 C 0.6486 0.86643 0.94049 0.0
C651 C 0.62959 0.8927 0.96667 0.0
H652 H 0.67129 0.84328 0.85864 0.0
C653 C 0.61913 0.9164 0.92753 0.0
H654 H 0.65674 0.84742 0.96866 0.0
C655 C 0.62734 0.9139 0.86429 0.0
C656 C 0.64637 0.8877 0.83816 0.0
H657 H 0.60506 0.93736 0.94598 0.0
H658 H 0.6193 0.93298 0.83617 0.0
C659 C 0.65692 0.864 0.8772 0.0
C660 C 0.3695 0.43156 0.19583 0.0
C661 C 0.36522 0.39943 0.21164 0.0
H662 H 0.37865 0.4625 0.1238 0.0
C663 C 0.36795 0.37334 0.1637 0.0
H664 H 0.36717 0.45236 0.23098 0.0
C665 C 0.3746 0.37915 0.10208 0.0
C666 C 0.37875 0.41126 0.08609 0.0
H667 H 0.36548 0.34821 0.17394 0.0
H668 H 0.37709 0.35827 0.06716 0.0
C669 C 0.37611 0.43739 0.13406 0.0
C670 C 0.88083 0.08887 0.43222 0.0
C671 C 0.88023 0.11386 0.48277 0.0
H672 H 0.87611 0.07606 0.33253 0.0
C673 C 0.87426 0.14614 0.46899 0.0
H674 H 0.88481 0.06363 0.44066 0.0
C675 C 0.86908 0.15322 0.40684 0.0
C676 C 0.86983 0.12828 0.35637 0.0
H677 H 0.87423 0.16622 0.50616 0.0
H678 H 0.8651 0.17845 0.39831 0.0
C679 C 0.8758 0.09599 0.36998 0.0
C680 C 0.17028 0.39257 0.38641 0.0
C681 C 0.14639 0.38416 0.33806 0.0
H682 H 0.18099 0.40246 0.48534 0.0
C683 C 0.11407 0.37819 0.35515 0.0
H684 H 0.19529 0.39796 0.37546 0.0
C685 C 0.10582 0.38103 0.41843 0.0
C686 C 0.12966 0.38977 0.46662 0.0
H687 H 0.09506 0.37109 0.31961 0.0
H688 H 0.08073 0.3761 0.42961 0.0
C689 C 0.16206 0.39524 0.44969 0.0
C690 C 0.87723 0.86927 0.66699 0.0
C691 C 0.86466 0.89368 0.71086 0.0
H692 H 0.89331 0.85631 0.5736 0.0
C693 C 0.85838 0.92478 0.69106 0.0
H694 H 0.88306 0.84522 0.68046 0.0
C695 C 0.86439 0.93119 0.62941 0.0
C696 C 0.87681 0.90669 0.58556 0.0
H697 H 0.84826 0.94411 0.72291 0.0
H698 H 0.85881 0.95527 0.61584 0.0
C699 C 0.88314 0.87565 0.6054 0.0
C700 C 0.37634 0.65229 0.90586 0.0
C701 C 0.37241 0.62692 0.85632 0.0
H702 H 0.38497 0.66565 1.00448 0.0
C703 C 0.37391 0.59433 0.8711 0.0
H704 H 0.376 0.67769 0.89651 0.0
C705 C 0.37905 0.58738 0.93346 0.0
C706 C 0.38288 0.61281 0.98299 0.0
H707 H 0.37057 0.5741 0.83456 0.0
H708 H 0.37954 0.562 0.9429 0.0
C709 C 0.38147 0.64536 0.9681 0.0
C710 C 0.64454 0.15923 0.12067 0.0
C711 C 0.62292 0.13454 0.09298 0.0
H712 H 0.66891 0.18151 0.20505 0.0
C713 C 0.60911 0.11301 0.13177 0.0
H714 H 0.65526 0.17656 0.09252 0.0
C715 C 0.61683 0.11595 0.1963 0.0
C716 C 0.63865 0.14044 0.22392 0.0
H717 H 0.59285 0.09333 0.11208 0.0
H718 H 0.60632 0.09842 0.22431 0.0
C719 C 0.65232 0.16212 0.18528 0.0
C720 C 0.8669 0.36285 0.37551 0.0
C721 C 0.88018 0.38481 0.337 0.0
H722 H 0.86431 0.34817 0.46816 0.0
C723 C 0.9016 0.40962 0.36474 0.0
H724 H 0.85061 0.34322 0.35564 0.0
C725 C 0.90934 0.41258 0.42927 0.0
C726 C 0.89594 0.39075 0.46794 0.0
H727 H 0.9118 0.42737 0.33682 0.0
H728 H 0.92529 0.4325 0.44904 0.0
C729 C 0.8747 0.36575 0.44012 0.0
C730 C 0.3603 0.15963 0.18368 0.0
C731 C 0.3734 0.13783 0.22435 0.0
H732 H 0.35831 0.17459 0.09082 0.0
C733 C 0.39504 0.11346 0.19985 0.0
H734 H 0.34389 0.17896 0.20092 0.0
C735 C 0.40324 0.11088 0.13661 0.0
C736 C 0.39012 0.13262 0.09583 0.0
H737 H 0.40514 0.0958 0.22923 0.0
H738 H 0.41942 0.09132 0.11941 0.0
C739 C 0.36855 0.15708 0.12036 0.0
C740 C 0.6658 0.63283 0.96388 0.0
C741 C 0.64063 0.61104 0.97575 0.0
H742 H 0.69161 0.65611 0.89548 0.0
C743 C 0.62285 0.59468 0.92397 0.0
H744 H 0.67976 0.64623 1.0024 0.0
C745 C 0.62982 0.60014 0.86229 0.0
C746 C 0.6547 0.62229 0.85032 0.0
H747 H 0.60366 0.5773 0.93103 0.0
H748 H 0.61581 0.58667 0.82394 0.0
C749 C 0.67265 0.63844 0.90222 0.0
C750 C 0.16877 0.90544 0.6036 0.0
C751 C 0.1369 0.91111 0.57978 0.0
H752 H 0.19915 0.89495 0.68256 0.0
C753 C 0.11062 0.90991 0.62029 0.0
H754 H 0.18969 0.90665 0.57425 0.0
C755 C 0.11601 0.903 0.68253 0.0
C756 C 0.14787 0.89716 0.70636 0.0
H757 H 0.08567 0.91365 0.60351 0.0
H758 H 0.09499 0.90152 0.71152 0.0
C759 C 0.17418 0.89867 0.66593 0.0
C760 C 0.89102 0.60891 0.69814 0.0
C761 C 0.87498 0.63687 0.72564 0.0
H762 H 0.91071 0.58382 0.61535 0.0
C763 C 0.86717 0.66197 0.68788 0.0
H764 H 0.89685 0.5888 0.72533 0.0
C765 C 0.87542 0.65927 0.62452 0.0
C766 C 0.89151 0.63128 0.59694 0.0
H767 H 0.85509 0.68398 0.70756 0.0
H768 H 0.8696 0.67943 0.59748 0.0
C769 C 0.89904 0.6061 0.63481 0.0
C770 C 0.1752 0.13484 0.46273 0.0
C771 C 0.147 0.11729 0.47596 0.0
H772 H 0.20329 0.15479 0.39311 0.0
C773 C 0.12503 0.10653 0.42551 0.0
H774 H 0.19303 0.1431 0.49983 0.0
C775 C 0.13097 0.1132 0.36406 0.0
C776 C 0.15904 0.13094 0.3509 0.0
H777 H 0.10274 0.09348 0.43356 0.0
H778 H 0.11308 0.10504 0.32701 0.0
C779 C 0.18112 0.14155 0.40124 0.0
C780 C 0.64688 0.37221 0.15564 0.0
C781 C 0.6472 0.39763 0.20537 0.0
H782 H 0.64054 0.35839 0.0567 0.0
C783 C 0.64166 0.42984 0.19082 0.0
H784 H 0.65043 0.34702 0.16488 0.0
C785 C 0.63602 0.4364 0.12841 0.0
C786 C 0.63569 0.41094 0.07869 0.0
H787 H 0.64217 0.45013 0.2276 0.0
H788 H 0.63233 0.46156 0.11911 0.0
C789 C 0.64123 0.37875 0.09333 0.0
C790 C 0.37531 0.86392 0.94153 0.0
C791 C 0.39654 0.88912 0.96854 0.0
H792 H 0.35143 0.84049 0.8576 0.0
C793 C 0.41016 0.91035 0.92896 0.0
H794 H 0.36475 0.84679 0.9703 0.0
C795 C 0.40264 0.90664 0.86434 0.0
C796 C 0.38122 0.88163 0.83739 0.0
H797 H 0.42613 0.9304 0.94808 0.0
H798 H 0.41299 0.92397 0.83571 0.0
C799 C 0.36772 0.86025 0.87682 0.0
C800 C 0.12308 0.75327 0.23834 0.0
C801 C 0.14287 0.73266 0.19883 0.0
H802 H 0.10695 0.80292 0.26372 0.0
C803 C 0.16515 0.74702 0.16144 0.0
H804 H 0.10554 0.7428 0.26737 0.0
C805 C 0.16598 0.78079 0.15944 0.0
C806 C 0.14452 0.80141 0.19471 0.0
H807 H 0.181 0.73187 0.13104 0.0
H808 H 0.18243 0.79069 0.12755 0.0
C809 C 0.12389 0.78759 0.23627 0.0
C810 C 0.53084 0.8581 0.46402 0.0
C811 C 0.54862 0.88742 0.47884 0.0
H812 H 0.48346 0.83539 0.44861 0.0
C813 C 0.53167 0.91581 0.50163 0.0
H814 H 0.54322 0.83602 0.4454 0.0
C815 C 0.49712 0.91546 0.50338 0.0
C816 C 0.47923 0.88669 0.48264 0.0
H817 H 0.54472 0.9389 0.51191 0.0
H818 H 0.48437 0.93835 0.5145 0.0
C819 C 0.49659 0.85772 0.46611 0.0
C820 C 0.37287 0.2869 0.73623 0.0
C821 C 0.38575 0.30123 0.68543 0.0
H822 H 0.36219 0.2418 0.77527 0.0
C823 C 0.40157 0.2809 0.63903 0.0
H824 H 0.36057 0.30194 0.77277 0.0
C825 C 0.40256 0.2471 0.64053 0.0
C826 C 0.38776 0.23223 0.68846 0.0
H827 H 0.41241 0.29107 0.59993 0.0
H828 H 0.41408 0.23238 0.60247 0.0
C829 C 0.37383 0.25253 0.7377 0.0
C830 C 0.99712 0.15062 1.01131 0.0
C831 C 0.97794 0.12541 0.97812 0.0
H832 H 0.04592 0.17063 1.03108 0.0
C833 C 0.9939 0.09853 0.94674 0.0
H834 H 0.9854 0.17198 0.03465 0.0
C835 C 0.02806 0.09793 0.9441 0.0
C836 C 0.04729 0.12413 0.97303 0.0
H837 H 0.97975 0.07898 0.92014 0.0
H838 H 0.03938 0.0778 0.91594 0.0
C839 C 0.03169 0.14989 1.00908 0.0
C840 C 0.1119 0.27779 0.91447 0.0
C841 C 0.12949 0.2925 0.86979 0.0
H842 H 0.09951 0.23389 0.95323 0.0
C843 C 0.14564 0.27214 0.8236 0.0
H844 H 0.09876 0.29266 0.9501 0.0
C845 C 0.14616 0.23781 0.82548 0.0
C846 C 0.1305 0.2236 0.87356 0.0
H847 H 0.1595 0.28282 0.78869 0.0
H848 H 0.16037 0.22275 0.79192 0.0
C849 C 0.11236 0.24398 0.91627 0.0
C850 C 0.02445 0.90685 0.0543 0.0
C851 C 0.04237 0.88437 0.08711 0.0
H852 H 0.97661 0.92676 0.03462 0.0
C853 C 0.02501 0.86114 0.11669 0.0
H854 H 0.03721 0.92536 0.03195 0.0
C855 C 0.99086 0.86206 0.11853 0.0
C856 C 0.97294 0.88614 0.0906 0.0
H857 H 0.03807 0.84353 0.14236 0.0
H858 H 0.97854 0.84507 0.14534 0.0
C859 C 0.98983 0.9077 0.05597 0.0
C860 C 0.41242 0.74251 0.4166 0.0
C861 C 0.39244 0.72211 0.374 0.0
H862 H 0.42781 0.79121 0.45002 0.0
C863 C 0.37517 0.73622 0.32554 0.0
H864 H 0.42646 0.73244 0.45388 0.0
C865 C 0.37599 0.77054 0.32326 0.0
C866 C 0.39411 0.79097 0.36937 0.0
H867 H 0.35949 0.72111 0.29214 0.0
H868 H 0.36084 0.78118 0.28825 0.0
C869 C 0.41324 0.77629 0.41433 0.0
C870 C 0.52349 0.16804 0.59861 0.0
C871 C 0.54115 0.13939 0.58089 0.0
H872 H 0.47668 0.18911 0.61992 0.0
C873 C 0.52351 0.11064 0.55883 0.0
H874 H 0.5364 0.19037 0.61693 0.0
C875 C 0.48894 0.10992 0.56055 0.0
C876 C 0.47171 0.13794 0.58444 0.0
H877 H 0.53647 0.08798 0.54662 0.0
H878 H 0.47609 0.08678 0.54923 0.0
C879 C 0.48925 0.1673 0.60052 0.0
C880 C 0.85689 0.24344 0.90865 0.0
C881 C 0.87733 0.22287 0.87089 0.0
H882 H 0.84207 0.29222 0.93851 0.0
C883 C 0.8964 0.2368 0.82695 0.0
H884 H 0.84155 0.23349 0.94232 0.0
C885 C 0.89671 0.27116 0.82473 0.0
C886 C 0.87796 0.29172 0.86642 0.0
H887 H 0.91248 0.22153 0.7974 0.0
H888 H 0.91304 0.28168 0.79351 0.0
C889 C 0.8572 0.2772 0.90645 0.0
C890 C 0.6462 0.77218 0.32491 0.0
C891 C 0.6323 0.79252 0.3741 0.0
H892 H 0.65944 0.72275 0.29 0.0
C893 C 0.61748 0.77771 0.42209 0.0
H894 H 0.65786 0.78287 0.28731 0.0
C895 C 0.61846 0.74391 0.42371 0.0
C896 C 0.63425 0.72355 0.37735 0.0
H897 H 0.60598 0.79247 0.46012 0.0
H898 H 0.60762 0.73378 0.46285 0.0
C899 C 0.64715 0.73782 0.3265 0.0
C900 C 0.87311 0.7519 0.23959 0.0
C901 C 0.88971 0.73181 0.19361 0.0
H902 H 0.85758 0.80107 0.27111 0.0
C903 C 0.90708 0.74682 0.14902 0.0
H904 H 0.8594 0.74099 0.27441 0.0
C905 C 0.906 0.7806 0.14707 0.0
C906 C 0.88748 0.80066 0.18961 0.0
H907 H 0.92054 0.73218 0.11355 0.0
H908 H 0.91877 0.79091 0.11026 0.0
C909 C 0.87202 0.78622 0.23763 0.0
C910 C 0.66127 0.24745 0.65201 0.0
C911 C 0.64103 0.23324 0.69337 0.0
H912 H 0.67699 0.29091 0.61542 0.0
C913 C 0.62333 0.25408 0.73641 0.0
H914 H 0.67566 0.23222 0.61895 0.0
C915 C 0.62413 0.28843 0.73435 0.0
C916 C 0.64262 0.30211 0.68924 0.0
H917 H 0.60746 0.2438 0.76873 0.0
H918 H 0.60884 0.30395 0.76515 0.0
C919 C 0.66205 0.28121 0.64998 0.0
C920 C 0.99505 0.41371 1.00271 0.0
C921 C 0.97746 0.38501 0.98011 0.0
H922 H 0.04244 0.43761 1.01276 0.0
C923 C 0.99514 0.35643 0.96202 0.0
H924 H 0.98206 0.43632 1.01524 0.0
C925 C 0.02937 0.35721 0.96022 0.0
C926 C 0.04686 0.38656 0.97679 0.0
H927 H 0.98225 0.33414 0.94332 0.0
H928 H 0.04197 0.33549 0.94052 0.0
C929 C 0.02961 0.41448 1.00107 0.0
C930 C 0.49647 0.66161 0.45641 0.0
C931 C 0.47958 0.63619 0.48063 0.0
H932 H 0.54262 0.68017 0.43109 0.0
C933 C 0.4979 0.61206 0.50811 0.0
H934 H 0.48301 0.68038 0.43455 0.0
C935 C 0.53251 0.61201 0.50626 0.0
C936 C 0.54895 0.63597 0.4766 0.0
H937 H 0.48549 0.59181 0.5259 0.0
H938 H 0.54604 0.5918 0.52299 0.0
C939 C 0.53063 0.66145 0.45427 0.0
C940 C 0.4879 0.41089 0.55534 0.0
C941 C 0.47096 0.38767 0.586 0.0
H942 H 0.53533 0.42976 0.53464 0.0
C943 C 0.48877 0.36209 0.60931 0.0
H944 H 0.47479 0.43115 0.53781 0.0
C945 C 0.52292 0.36123 0.60728 0.0
C946 C 0.54033 0.38595 0.582 0.0
H947 H 0.47639 0.34389 0.6332 0.0
H948 H 0.53596 0.34246 0.6299 0.0
C949 C 0.5225 0.41005 0.5534 0.0
C950 C 0.02524 0.66819 0.10151 0.0
C951 C 0.04288 0.63964 0.08296 0.0
H952 H 0.97842 0.68913 0.12315 0.0
C953 C 0.02525 0.61105 0.05986 0.0
H954 H 0.03816 0.69039 0.1206 0.0
C955 C 0.99067 0.61032 0.06136 0.0
C956 C 0.97345 0.63818 0.08601 0.0
H957 H 0.0382 0.58846 0.04697 0.0
H958 H 0.97781 0.58724 0.04925 0.0
C959 C 0.991 0.66745 0.10313 0.0
C960 C 0.1082 0.52558 0.05219 0.0
C961 C 0.13779 0.53915 0.08008 0.0
H962 H 0.08551 0.48884 0.98403 0.0
C963 C 0.16745 0.52539 0.05888 0.0
H964 H 0.08489 0.53587 0.06656 0.0
C965 C 0.16782 0.49915 1.01162 0.0
C966 C 0.13854 0.4855 0.98318 0.0
H967 H 0.19076 0.53517 0.07865 0.0
H968 H 0.19139 0.48941 0.99745 0.0
C969 C 0.10857 0.49904 1.00408 0.0
C970 C 0.72893 0.87808 0.242 0.0
C971 C 0.73075 0.88646 0.30781 0.0
H972 H 0.75432 0.8731 0.15501 0.0
C973 C 0.76158 0.89508 0.33623 0.0
H974 H 0.70566 0.87095 0.21853 0.0
C975 C 0.78933 0.89692 0.29955 0.0
C976 C 0.78733 0.88949 0.23346 0.0
H977 H 0.76399 0.9018 0.38647 0.0
H978 H 0.8125 0.90457 0.32315 0.0
C979 C 0.75686 0.87916 0.20541 0.0
C980 C 0.41041 0.49942 0.55878 0.0
C981 C 0.38023 0.48744 0.57753 0.0
H982 H 0.43466 0.53341 0.50483 0.0
C983 C 0.35117 0.50079 0.55396 0.0
H984 H 0.43327 0.48921 0.57485 0.0
C985 C 0.35196 0.52549 0.51391 0.0
C986 C 0.38182 0.53755 0.49466 0.0
H987 H 0.32747 0.49204 0.56653 0.0
H988 H 0.32886 0.53541 0.49819 0.0
C989 C 0.41119 0.52416 0.51745 0.0
C990 C 0.78685 0.12908 0.76658 0.0
C991 C 0.7874 0.13536 0.83276 0.0
H992 H 0.75817 0.12533 0.67974 0.0
C993 C 0.75792 0.14438 0.8615 0.0
H994 H 0.80913 0.12231 0.74261 0.0
C995 C 0.72847 0.14545 0.82518 0.0
C996 C 0.72788 0.13844 0.75909 0.0
H997 H 0.75738 0.14944 0.9121 0.0
H998 H 0.706 0.15151 0.84902 0.0
C999 C 0.75764 0.131 0.73024 0.0
C1000 C 0.85347 0.52589 0.04892 0.0
C1001 C 0.88268 0.53908 0.07852 0.0
H1002 H 0.83064 0.49042 0.98073 0.0
C1003 C 0.91267 0.52525 0.05837 0.0
H1004 H 0.82988 0.53583 0.06243 0.0
C1005 C 0.91312 0.49881 1.00999 0.0
C1006 C 0.88358 0.4857 0.98103 0.0
H1007 H 0.93569 0.53509 0.07932 0.0
H1008 H 0.93641 0.48822 0.99634 0.0
C1009 C 0.85392 0.49982 1.00134 0.0
C1010 C 0.26337 0.14755 0.85687 0.0
C1011 C 0.23317 0.13572 0.8298 0.0
H1012 H 0.31429 0.15687 0.8426 0.0
C1013 C 0.23117 0.12687 0.76407 0.0
H1014 H 0.26589 0.15469 0.90697 0.0
C1015 C 0.25872 0.12876 0.72687 0.0
C1016 C 0.28934 0.13883 0.75447 0.0
H1017 H 0.20819 0.11801 0.74123 0.0
H1018 H 0.25636 0.12087 0.67702 0.0
C1019 C 0.29114 0.14866 0.81983 0.0
C1020 C 0.61797 0.51093 0.4689 0.0
C1021 C 0.63514 0.53983 0.49138 0.0
H1022 H 0.60403 0.46223 0.48691 0.0
C1023 C 0.648 0.54277 0.55399 0.0
H1024 H 0.6077 0.50776 0.42128 0.0
C1025 C 0.64519 0.51713 0.59193 0.0
C1026 C 0.62951 0.4877 0.56847 0.0
H1027 H 0.66097 0.56482 0.57359 0.0
H1028 H 0.6568 0.51972 0.63852 0.0
C1029 C 0.61563 0.48499 0.50675 0.0
C1030 C 0.26275 0.88982 0.33212 0.0
C1031 C 0.29265 0.88374 0.30293 0.0
H1032 H 0.21109 0.89776 0.32027 0.0
C1033 C 0.29219 0.87826 0.23664 0.0
H1034 H 0.26213 0.89431 0.3828 0.0
C1035 C 0.26275 0.87966 0.20046 0.0
C1036 C 0.23312 0.88747 0.22965 0.0
H1037 H 0.31478 0.87326 0.21256 0.0
H1038 H 0.26341 0.87588 0.14973 0.0
C1039 C 0.23351 0.89204 0.296 0.0
C1040 C 0.60841 0.99925 0.50312 0.0
C1041 C 0.63863 0.98565 0.48373 0.0
H1042 H 0.584 0.03615 0.56433 0.0
C1043 C 0.66757 0.99912 0.51398 0.0
H1044 H 0.58557 0.98923 0.48165 0.0
C1045 C 0.66664 0.02524 0.5614 0.0
C1046 C 0.63673 0.03914 0.58091 0.0
H1047 H 0.69133 0.98937 0.50107 0.0
H1048 H 0.68972 0.03489 0.58249 0.0
C1049 C 0.60747 0.02573 0.55134 0.0
C1050 C 0.22784 0.37936 0.74187 0.0
C1051 C 0.22948 0.38613 0.80803 0.0
H1052 H 0.25369 0.37557 0.65547 0.0
C1053 C 0.26037 0.39313 0.83758 0.0
H1054 H 0.2045 0.37363 0.71745 0.0
C1055 C 0.28845 0.39496 0.80179 0.0
C1056 C 0.28669 0.38902 0.73547 0.0
H1057 H 0.26264 0.39863 0.88813 0.0
H1058 H 0.31165 0.40146 0.82628 0.0
C1059 C 0.25608 0.38035 0.70613 0.0
C1060 C 0.89767 0.98264 1.01203 0.0
C1061 C 0.88785 0.98611 0.07491 0.0
H1062 H 0.90398 1.00566 0.92732 0.0
C1063 C 0.87803 0.01708 0.10119 0.0
H1064 H 0.90505 0.95887 0.99031 0.0
C1065 C 0.87661 0.04354 0.06471 0.0
C1066 C 0.88545 0.04002 1.0011 0.0
H1067 H 0.86977 0.02045 0.14888 0.0
H1068 H 0.86782 0.0668 0.08624 0.0
C1069 C 0.89696 1.00937 0.97578 0.0
C1070 C 0.23043 0.64445 0.32596 0.0
C1071 C 0.22981 0.63867 0.25969 0.0
H1072 H 0.25954 0.64786 0.41258 0.0
C1073 C 0.25976 0.6332 0.23025 0.0
H1074 H 0.20784 0.64902 0.35029 0.0
C1075 C 0.28921 0.63189 0.26611 0.0
C1076 C 0.28977 0.63683 0.3324 0.0
H1077 H 0.2603 0.6286 0.17958 0.0
H1078 H 0.31169 0.62655 0.24172 0.0
C1079 C 0.26007 0.64397 0.36184 0.0
C1080 C 0.35265 0.99761 0.50539 0.0
C1081 C 0.38252 0.98452 0.48375 0.0
H1082 H 0.32821 0.0333 0.56672 0.0
C1083 C 0.41191 0.99894 0.51084 0.0
H1084 H 0.32949 0.98718 0.48626 0.0
C1085 C 0.41116 0.02564 0.55859 0.0
C1086 C 0.38101 0.03855 0.57989 0.0
H1087 H 0.43538 0.98918 0.49617 0.0
H1088 H 0.43408 0.03648 0.57801 0.0
C1089 C 0.35192 0.02407 0.55223 0.0
C1090 C 0.79346 0.63831 0.32252 0.0
C1091 C 0.79134 0.63747 0.25628 0.0
H1092 H 0.76791 0.63795 0.40868 0.0
C1093 C 0.75992 0.63732 0.22708 0.0
H1094 H 0.81716 0.63866 0.34699 0.0
C1095 C 0.73166 0.63635 0.26272 0.0
C1096 C 0.73389 0.6362 0.32867 0.0
H1097 H 0.75714 0.63672 0.17652 0.0
H1098 H 0.70786 0.63546 0.23848 0.0
C1099 C 0.76519 0.63808 0.35825 0.0
C1100 C 0.1427 1.00708 0.96209 0.0
C1101 C 0.13375 0.03817 0.98926 0.0
H1102 H 0.15182 0.95699 0.97597 0.0
C1103 C 0.12396 0.04147 0.05217 0.0
H1104 H 0.15076 1.00378 0.91426 0.0
C1105 C 0.124 0.0145 0.0877 0.0
C1106 C 0.13478 0.98373 0.06161 0.0
H1107 H 0.11699 0.06526 0.07443 0.0
H1108 H 0.11709 0.01809 0.13623 0.0
C1109 C 0.14353 0.98035 0.99796 0.0
C1110 C 0.76036 0.3842 0.70054 0.0
C1111 C 0.73084 0.39208 0.73011 0.0
H1112 H 0.81239 0.37755 0.71179 0.0
C1113 C 0.73156 0.39703 0.79645 0.0
H1114 H 0.76079 0.38012 0.6498 0.0
C1115 C 0.76096 0.39486 0.83213 0.0
C1116 C 0.79072 0.38842 0.80255 0.0
H1117 H 0.70925 0.40279 0.82109 0.0
H1118 H 0.76053 0.39939 0.88282 0.0
C1119 C 0.78996 0.38283 0.73625 0.0
loop_
_geom_bond_atom_site_label_1
_geom_bond_atom_site_label_2
_geom_bond_distance
_geom_bond_site_symmetry_2
_ccdc_geom_bond_type
Tb0 C9 2.764 . S
Tb0 O10 2.325 . S
Tb0 O13 2.303 . S
Tb0 O17 2.322 . S
Tb0 O18 2.349 . S
Tb0 O21 2.415 . S
Tb0 O22 2.399 . S
Tb1 O11 2.322 . S
Tb1 O12 2.349 . S
Tb1 O14 2.415 1_554 S
Tb1 O15 2.399 1_554 S
Tb1 O16 2.325 . S
Tb1 O19 2.303 . S
Tb1 C30 2.764 1_554 S
C2 O18 1.261 . S
C2 O19 1.257 . S
C3 C6 1.358 . S
C3 C7 1.332 . S
C3 C9 1.504 . S
C4 C5 1.373 . S
C4 C8 1.308 . S
C5 C4 1.373 . S
C5 C6 1.429 . S
C5 H32 0.932 . S
C6 C3 1.358 . S
C6 C5 1.429 . S
C6 H33 0.930 . S
C7 C3 1.332 . S
C7 C8 1.394 . S
C7 H34 0.932 . S
C8 C4 1.308 . S
C8 C7 1.394 . S
C8 H35 0.929 . S
C9 Tb0 2.764 . S
C9 C3 1.504 . S
C9 O21 1.239 . S
C9 O22 1.263 . S
O10 Tb0 2.325 . S
O10 C20 1.236 . S
O11 Tb1 2.322 . S
O11 C20 1.257 . S
O12 Tb1 2.349 . S
O12 C23 1.261 . S
O13 Tb0 2.303 . S
O13 C23 1.257 . S
O14 Tb1 2.415 1_556 S
O14 C30 1.239 . S
O15 Tb1 2.399 1_556 S
O15 C30 1.263 . S
O16 Tb1 2.325 . S
O16 C31 1.236 . S
O17 Tb0 2.322 . S
O17 C31 1.257 . S
O18 Tb0 2.349 . S
O18 C2 1.261 . S
O19 Tb1 2.303 . S
O19 C2 1.257 . S
C20 O10 1.236 . S
C20 O11 1.257 . S
O21 Tb0 2.415 . S
O21 C9 1.239 . S
O22 Tb0 2.399 . S
O22 C9 1.263 . S
C23 O12 1.261 . S
C23 O13 1.257 . S
C24 C27 1.358 . S
C24 C28 1.332 . S
C24 C30 1.504 . S
C25 C26 1.373 . S
C25 C29 1.308 . S
C26 C25 1.373 . S
C26 C27 1.429 . S
C26 H36 0.932 . S
C27 C24 1.358 . S
C27 C26 1.429 . S
C27 H37 0.930 . S
C28 C24 1.332 . S
C28 C29 1.394 . S
C28 H38 0.932 . S
C29 C25 1.308 . S
C29 C28 1.394 . S
C29 H39 0.929 . S
C30 Tb1 2.764 1_556 S
C30 O14 1.239 . S
C30 O15 1.263 . S
C30 C24 1.504 . S
C31 O16 1.236 . S
C31 O17 1.257 . S
H32 C5 0.932 . S
H33 C6 0.930 . S
H34 C7 0.932 . S
H35 C8 0.929 . S
H36 C26 0.932 . S
H37 C27 0.930 . S
H38 C28 0.932 . S
H39 C29 0.929 . S
Tb40 C49 2.764 . S
Tb40 O50 2.325 . S
Tb40 O53 2.303 . S
Tb40 O57 2.322 . S
Tb40 O58 2.349 . S
Tb40 O61 2.415 . S
Tb40 O62 2.399 . S
Tb41 O51 2.322 . S
Tb41 O52 2.349 . S
Tb41 O54 2.415 . S
Tb41 O55 2.399 . S
Tb41 O56 2.325 . S
Tb41 O59 2.303 . S
Tb41 C70 2.764 . S
C42 O58 1.261 . S
C42 O59 1.257 . S
C43 C46 1.358 . S
C43 C47 1.332 . S
C43 C49 1.504 . S
C44 C45 1.373 . S
C44 C48 1.308 . S
C45 C44 1.373 . S
C45 C46 1.429 . S
C45 H72 0.932 . S
C46 C43 1.358 . S
C46 C45 1.429 . S
C46 H73 0.930 . S
C47 C43 1.332 . S
C47 C48 1.394 . S
C47 H74 0.932 . S
C48 C44 1.308 . S
C48 C47 1.394 . S
C48 H75 0.929 . S
C49 Tb40 2.764 . S
C49 C43 1.504 . S
C49 O61 1.239 . S
C49 O62 1.263 . S
O50 Tb40 2.325 . S
O50 C60 1.236 . S
O51 Tb41 2.322 . S
O51 C60 1.257 . S
O52 Tb41 2.349 . S
O52 C63 1.261 . S
O53 Tb40 2.303 . S
O53 C63 1.257 . S
O54 Tb41 2.415 . S
O54 C70 1.239 . S
O55 Tb41 2.399 . S
O55 C70 1.263 . S
O56 Tb41 2.325 . S
O56 C71 1.236 . S
O57 Tb40 2.322 . S
O57 C71 1.257 . S
O58 Tb40 2.349 . S
O58 C42 1.261 . S
O59 Tb41 2.303 . S
O59 C42 1.257 . S
C60 O50 1.236 . S
C60 O51 1.257 . S
O61 Tb40 2.415 . S
O61 C49 1.239 . S
O62 Tb40 2.399 . S
O62 C49 1.263 . S
C63 O52 1.261 . S
C63 O53 1.257 . S
C64 C67 1.358 . S
C64 C68 1.332 . S
C64 C70 1.504 . S
C65 C66 1.373 . S
C65 C69 1.308 . S
C66 C65 1.373 . S
C66 C67 1.429 . S
C66 H76 0.932 . S
C67 C64 1.358 . S
C67 C66 1.429 . S
C67 H77 0.930 . S
C68 C64 1.332 . S
C68 C69 1.394 . S
C68 H78 0.932 . S
C69 C65 1.308 . S
C69 C68 1.394 . S
C69 H79 0.929 . S
C70 Tb41 2.764 . S
C70 O54 1.239 . S
C70 O55 1.263 . S
C70 C64 1.504 . S
C71 O56 1.236 . S
C71 O57 1.257 . S
H72 C45 0.932 . S
H73 C46 0.930 . S
H74 C47 0.932 . S
H75 C48 0.929 . S
H76 C66 0.932 . S
H77 C67 0.930 . S
H78 C68 0.932 . S
H79 C69 0.929 . S
Tb80 C89 2.764 . S
Tb80 O90 2.325 . S
Tb80 O93 2.303 . S
Tb80 O97 2.322 . S
Tb80 O98 2.349 . S
Tb80 O101 2.415 . S
Tb80 O102 2.399 . S
Tb81 O91 2.322 . S
Tb81 O92 2.349 . S
Tb81 O94 2.415 . S
Tb81 O95 2.399 . S
Tb81 O96 2.325 . S
Tb81 O99 2.303 . S
Tb81 C110 2.764 . S
C82 O98 1.261 . S
C82 O99 1.257 . S
C83 C86 1.358 . S
C83 C87 1.332 . S
C83 C89 1.504 . S
C84 C85 1.373 . S
C84 C88 1.308 . S
C85 C84 1.373 . S
C85 C86 1.429 . S
C85 H112 0.932 . S
C86 C83 1.358 . S
C86 C85 1.429 . S
C86 H113 0.930 . S
C87 C83 1.332 . S
C87 C88 1.394 . S
C87 H114 0.932 . S
C88 C84 1.308 . S
C88 C87 1.394 . S
C88 H115 0.929 . S
C89 Tb80 2.764 . S
C89 C83 1.504 . S
C89 O101 1.239 . S
C89 O102 1.263 . S
O90 Tb80 2.325 . S
O90 C100 1.236 . S
O91 Tb81 2.322 . S
O91 C100 1.257 . S
O92 Tb81 2.349 . S
O92 C103 1.261 . S
O93 Tb80 2.303 . S
O93 C103 1.257 . S
O94 Tb81 2.415 . S
O94 C110 1.239 . S
O95 Tb81 2.399 . S
O95 C110 1.263 . S
O96 Tb81 2.325 . S
O96 C111 1.236 . S
O97 Tb80 2.322 . S
O97 C111 1.257 . S
O98 Tb80 2.349 . S
O98 C82 1.261 . S
O99 Tb81 2.303 . S
O99 C82 1.257 . S
C100 O90 1.236 . S
C100 O91 1.257 . S
O101 Tb80 2.415 . S
O101 C89 1.239 . S
O102 Tb80 2.399 . S
O102 C89 1.263 . S
C103 O92 1.261 . S
C103 O93 1.257 . S
C104 C107 1.358 . S
C104 C108 1.332 . S
C104 C110 1.504 . S
C105 C106 1.373 1_554 S
C105 C109 1.308 1_554 S
C106 C105 1.373 1_556 S
C106 C107 1.429 . S
C106 H116 0.932 1_556 S
C107 C104 1.358 . S
C107 C106 1.429 . S
C107 H117 0.930 . S
C108 C104 1.332 . S
C108 C109 1.394 . S
C108 H118 0.932 . S
C109 C105 1.308 1_556 S
C109 C108 1.394 . S
C109 H119 0.929 . S
C110 Tb81 2.764 . S
C110 O94 1.239 . S
C110 O95 1.263 . S
C110 C104 1.504 . S
C111 O96 1.236 . S
C111 O97 1.257 . S
H112 C85 0.932 . S
H113 C86 0.930 . S
H114 C87 0.932 . S
H115 C88 0.929 . S
H116 C106 0.932 1_554 S
H117 C107 0.930 . S
H118 C108 0.932 . S
H119 C109 0.929 . S
Tb120 C129 2.767 . S
Tb120 O130 2.325 1_554 S
Tb120 O133 2.302 1_554 S
Tb120 O137 2.320 1_554 S
Tb120 O138 2.348 1_554 S
Tb120 O141 2.418 . S
Tb120 O142 2.402 . S
Tb121 O131 2.322 . S
Tb121 O132 2.349 . S
Tb121 O134 2.415 . S
Tb121 O135 2.399 . S
Tb121 O136 2.325 . S
Tb121 O139 2.303 . S
Tb121 C150 2.764 . S
C122 O138 1.261 . S
C122 O139 1.257 . S
C123 C126 1.358 . S
C123 C127 1.332 . S
C123 C129 1.504 . S
C124 C125 1.373 . S
C124 C128 1.308 . S
C125 C124 1.373 . S
C125 C126 1.429 . S
C125 H152 0.932 . S
C126 C123 1.358 . S
C126 C125 1.429 . S
C126 H153 0.930 . S
C127 C123 1.332 . S
C127 C128 1.394 . S
C127 H154 0.932 . S
C128 C124 1.308 . S
C128 C127 1.394 . S
C128 H155 0.929 . S
C129 Tb120 2.767 . S
C129 C123 1.504 . S
C129 O141 1.239 . S
C129 O142 1.263 . S
O130 Tb120 2.325 1_556 S
O130 C140 1.236 . S
O131 Tb121 2.322 . S
O131 C140 1.257 . S
O132 Tb121 2.349 . S
O132 C143 1.261 . S
O133 Tb120 2.302 1_556 S
O133 C143 1.257 . S
O134 Tb121 2.415 . S
O134 C150 1.239 . S
O135 Tb121 2.399 . S
O135 C150 1.263 . S
O136 Tb121 2.325 . S
O136 C151 1.236 . S
O137 Tb120 2.320 1_556 S
O137 C151 1.257 . S
O138 Tb120 2.348 1_556 S
O138 C122 1.261 . S
O139 Tb121 2.303 . S
O139 C122 1.257 . S
C140 O130 1.236 . S
C140 O131 1.257 . S
O141 Tb120 2.418 . S
O141 C129 1.239 . S
O142 Tb120 2.402 . S
O142 C129 1.263 . S
C143 O132 1.261 . S
C143 O133 1.257 . S
C144 C147 1.358 . S
C144 C148 1.332 . S
C144 C150 1.504 . S
C145 C146 1.373 . S
C145 C149 1.308 . S
C146 C145 1.373 . S
C146 C147 1.429 . S
C146 H156 0.932 . S
C147 C144 1.358 . S
C147 C146 1.429 . S
C147 H157 0.930 . S
C148 C144 1.332 . S
C148 C149 1.394 . S
C148 H158 0.932 . S
C149 C145 1.308 . S
C149 C148 1.394 . S
C149 H159 0.929 . S
C150 Tb121 2.764 . S
C150 O134 1.239 . S
C150 O135 1.263 . S
C150 C144 1.504 . S
C151 O136 1.236 . S
C151 O137 1.257 . S
H152 C125 0.932 . S
H153 C126 0.930 . S
H154 C127 0.932 . S
H155 C128 0.929 . S
H156 C146 0.932 . S
H157 C147 0.930 . S
H158 C148 0.932 . S
H159 C149 0.929 . S
Tb160 C169 2.764 . S
Tb160 O170 2.325 . S
Tb160 O173 2.303 . S
Tb160 O177 2.322 . S
Tb160 O178 2.349 . S
Tb160 O181 2.415 . S
Tb160 O182 2.399 . S
Tb161 O171 2.322 . S
Tb161 O172 2.349 . S
Tb161 O174 2.415 1_556 S
Tb161 O175 2.399 1_556 S
Tb161 O176 2.325 . S
Tb161 O179 2.303 . S
Tb161 C190 2.764 1_556 S
C162 O178 1.261 . S
C162 O179 1.257 . S
C163 C166 1.358 . S
C163 C167 1.332 . S
C163 C169 1.504 . S
C164 C165 1.373 . S
C164 C168 1.308 . S
C165 C164 1.373 . S
C165 C166 1.429 . S
C165 H192 0.932 . S
C166 C163 1.358 . S
C166 C165 1.429 . S
C166 H193 0.930 . S
C167 C163 1.332 . S
C167 C168 1.394 . S
C167 H194 0.932 . S
C168 C164 1.308 . S
C168 C167 1.394 . S
C168 H195 0.929 . S
C169 Tb160 2.764 . S
C169 C163 1.504 . S
C169 O181 1.239 . S
C169 O182 1.263 . S
O170 Tb160 2.325 . S
O170 C180 1.236 . S
O171 Tb161 2.322 . S
O171 C180 1.257 . S
O172 Tb161 2.349 . S
O172 C183 1.261 . S
O173 Tb160 2.303 . S
O173 C183 1.257 . S
O174 Tb161 2.415 1_554 S
O174 C190 1.239 . S
O175 Tb161 2.399 1_554 S
O175 C190 1.263 . S
O176 Tb161 2.325 . S
O176 C191 1.236 . S
O177 Tb160 2.322 . S
O177 C191 1.257 . S
O178 Tb160 2.349 . S
O178 C162 1.261 . S
O179 Tb161 2.303 . S
O179 C162 1.257 . S
C180 O170 1.236 . S
C180 O171 1.257 . S
O181 Tb160 2.415 . S
O181 C169 1.239 . S
O182 Tb160 2.399 . S
O182 C169 1.263 . S
C183 O172 1.261 . S
C183 O173 1.257 . S
C184 C187 1.358 . S
C184 C188 1.332 . S
C184 C190 1.504 . S
C185 C186 1.373 . S
C185 C189 1.308 . S
C186 C185 1.373 . S
C186 C187 1.429 . S
C186 H196 0.932 . S
C187 C184 1.358 . S
C187 C186 1.429 . S
C187 H197 0.930 . S
C188 C184 1.332 . S
C188 C189 1.394 . S
C188 H198 0.932 . S
C189 C185 1.308 . S
C189 C188 1.394 . S
C189 H199 0.929 . S
C190 Tb161 2.764 1_554 S
C190 O174 1.239 . S
C190 O175 1.263 . S
C190 C184 1.504 . S
C191 O176 1.236 . S
C191 O177 1.257 . S
H192 C165 0.932 . S
H193 C166 0.930 . S
H194 C167 0.932 . S
H195 C168 0.929 . S
H196 C186 0.932 . S
H197 C187 0.930 . S
H198 C188 0.932 . S
H199 C189 0.929 . S
Tb200 C209 2.764 . S
Tb200 O210 2.325 . S
Tb200 O213 2.303 . S
Tb200 O217 2.322 . S
Tb200 O218 2.349 . S
Tb200 O221 2.415 . S
Tb200 O222 2.399 . S
Tb201 O211 2.322 . S
Tb201 O212 2.349 . S
Tb201 O214 2.415 1_554 S
Tb201 O215 2.399 1_554 S
Tb201 O216 2.325 . S
Tb201 O219 2.303 . S
Tb201 C230 2.764 1_554 S
C202 O218 1.261 . S
C202 O219 1.257 . S
C203 C206 1.358 . S
C203 C207 1.332 . S
C203 C209 1.504 . S
C204 C205 1.373 . S
C204 C208 1.308 . S
C205 C204 1.373 . S
C205 C206 1.429 . S
C205 H232 0.932 . S
C206 C203 1.358 . S
C206 C205 1.429 . S
C206 H233 0.930 . S
C207 C203 1.332 . S
C207 C208 1.394 . S
C207 H234 0.932 . S
C208 C204 1.308 . S
C208 C207 1.394 . S
C208 H235 0.929 . S
C209 Tb200 2.764 . S
C209 C203 1.504 . S
C209 O221 1.239 . S
C209 O222 1.263 . S
O210 Tb200 2.325 . S
O210 C220 1.236 . S
O211 Tb201 2.322 . S
O211 C220 1.257 . S
O212 Tb201 2.349 . S
O212 C223 1.261 . S
O213 Tb200 2.303 . S
O213 C223 1.257 . S
O214 Tb201 2.415 1_556 S
O214 C230 1.239 . S
O215 Tb201 2.399 1_556 S
O215 C230 1.263 . S
O216 Tb201 2.325 . S
O216 C231 1.236 . S
O217 Tb200 2.322 . S
O217 C231 1.257 . S
O218 Tb200 2.349 . S
O218 C202 1.261 . S
O219 Tb201 2.303 . S
O219 C202 1.257 . S
C220 O210 1.236 . S
C220 O211 1.257 . S
O221 Tb200 2.415 . S
O221 C209 1.239 . S
O222 Tb200 2.399 . S
O222 C209 1.263 . S
C223 O212 1.261 . S
C223 O213 1.257 . S
C224 C227 1.358 . S
C224 C228 1.332 . S
C224 C230 1.504 . S
C225 C226 1.373 . S
C225 C229 1.308 . S
C226 C225 1.373 . S
C226 C227 1.429 . S
C226 H236 0.932 . S
C227 C224 1.358 . S
C227 C226 1.429 . S
C227 H237 0.930 . S
C228 C224 1.332 . S
C228 C229 1.394 . S
C228 H238 0.932 . S
C229 C225 1.308 . S
C229 C228 1.394 . S
C229 H239 0.929 . S
C230 Tb201 2.764 1_556 S
C230 O214 1.239 . S
C230 O215 1.263 . S
C230 C224 1.504 . S
C231 O216 1.236 . S
C231 O217 1.257 . S
H232 C205 0.932 . S
H233 C206 0.930 . S
H234 C207 0.932 . S
H235 C208 0.929 . S
H236 C226 0.932 . S
H237 C227 0.930 . S
H238 C228 0.932 . S
H239 C229 0.929 . S
Tb240 C249 2.764 . S
Tb240 O250 2.325 . S
Tb240 O253 2.303 . S
Tb240 O257 2.322 . S
Tb240 O258 2.349 . S
Tb240 O261 2.415 . S
Tb240 O262 2.399 . S
Tb241 O251 2.322 . S
Tb241 O252 2.349 . S
Tb241 O254 2.415 . S
Tb241 O255 2.399 . S
Tb241 O256 2.325 . S
Tb241 O259 2.303 . S
Tb241 C270 2.764 . S
C242 O258 1.261 . S
C242 O259 1.257 . S
C243 C246 1.358 . S
C243 C247 1.332 . S
C243 C249 1.504 . S
C244 C245 1.373 . S
C244 C248 1.308 . S
C245 C244 1.373 . S
C245 C246 1.429 . S
C245 H272 0.932 . S
C246 C243 1.358 . S
C246 C245 1.429 . S
C246 H273 0.930 . S
C247 C243 1.332 . S
C247 C248 1.394 . S
C247 H274 0.932 . S
C248 C244 1.308 . S
C248 C247 1.394 . S
C248 H275 0.929 . S
C249 Tb240 2.764 . S
C249 C243 1.504 . S
C249 O261 1.239 . S
C249 O262 1.263 . S
O250 Tb240 2.325 . S
O250 C260 1.236 . S
O251 Tb241 2.322 . S
O251 C260 1.257 . S
O252 Tb241 2.349 . S
O252 C263 1.261 . S
O253 Tb240 2.303 . S
O253 C263 1.257 . S
O254 Tb241 2.415 . S
O254 C270 1.239 . S
O255 Tb241 2.399 . S
O255 C270 1.263 . S
O256 Tb241 2.325 . S
O256 C271 1.236 . S
O257 Tb240 2.322 . S
O257 C271 1.257 . S
O258 Tb240 2.349 . S
O258 C242 1.261 . S
O259 Tb241 2.303 . S
O259 C242 1.257 . S
C260 O250 1.236 . S
C260 O251 1.257 . S
O261 Tb240 2.415 . S
O261 C249 1.239 . S
O262 Tb240 2.399 . S
O262 C249 1.263 . S
C263 O252 1.261 . S
C263 O253 1.257 . S
C264 C267 1.358 . S
C264 C268 1.332 . S
C264 C270 1.504 . S
C265 C266 1.373 1_556 S
C265 C269 1.308 1_556 S
C266 C265 1.373 1_554 S
C266 C267 1.429 . S
C266 H276 0.932 1_554 S
C267 C264 1.358 . S
C267 C266 1.429 . S
C267 H277 0.930 . S
C268 C264 1.332 . S
C268 C269 1.394 . S
C268 H278 0.932 . S
C269 C265 1.308 1_554 S
C269 C268 1.394 . S
C269 H279 0.929 . S
C270 Tb241 2.764 . S
C270 O254 1.239 . S
C270 O255 1.263 . S
C270 C264 1.504 . S
C271 O256 1.236 . S
C271 O257 1.257 . S
H272 C245 0.932 . S
H273 C246 0.930 . S
H274 C247 0.932 . S
H275 C248 0.929 . S
H276 C266 0.932 1_556 S
H277 C267 0.930 . S
H278 C268 0.932 . S
H279 C269 0.929 . S
Tb280 C289 2.764 . S
Tb280 O290 2.325 . S
Tb280 O293 2.303 . S
Tb280 O297 2.322 . S
Tb280 O298 2.349 . S
Tb280 O301 2.415 . S
Tb280 O302 2.399 . S
Tb281 O291 2.322 . S
Tb281 O292 2.349 . S
Tb281 O294 2.415 . S
Tb281 O295 2.399 . S
Tb281 O296 2.325 . S
Tb281 O299 2.303 . S
Tb281 C310 2.764 . S
C282 O298 1.261 . S
C282 O299 1.257 . S
C283 C286 1.358 . S
C283 C287 1.332 . S
C283 C289 1.504 . S
C284 C285 1.373 1_554 S
C284 C288 1.308 1_554 S
C285 C284 1.373 1_556 S
C285 C286 1.429 . S
C285 H312 0.932 1_556 S
C286 C283 1.358 . S
C286 C285 1.429 . S
C286 H313 0.930 . S
C287 C283 1.332 . S
C287 C288 1.394 . S
C287 H314 0.932 . S
C288 C284 1.308 1_556 S
C288 C287 1.394 . S
C288 H315 0.929 1_556 S
C289 Tb280 2.764 . S
C289 C283 1.504 . S
C289 O301 1.239 . S
C289 O302 1.263 . S
O290 Tb280 2.325 . S
O290 C300 1.236 . S
O291 Tb281 2.322 . S
O291 C300 1.257 . S
O292 Tb281 2.349 . S
O292 C303 1.261 . S
O293 Tb280 2.303 . S
O293 C303 1.257 . S
O294 Tb281 2.415 . S
O294 C310 1.239 . S
O295 Tb281 2.399 . S
O295 C310 1.263 . S
O296 Tb281 2.325 . S
O296 C311 1.236 . S
O297 Tb280 2.322 . S
O297 C311 1.257 . S
O298 Tb280 2.349 . S
O298 C282 1.261 . S
O299 Tb281 2.303 . S
O299 C282 1.257 . S
C300 O290 1.236 . S
C300 O291 1.257 . S
O301 Tb280 2.415 . S
O301 C289 1.239 . S
O302 Tb280 2.399 . S
O302 C289 1.263 . S
C303 O292 1.261 . S
C303 O293 1.257 . S
C304 C307 1.358 . S
C304 C308 1.332 . S
C304 C310 1.504 . S
C305 C306 1.373 . S
C305 C309 1.308 . S
C306 C305 1.373 . S
C306 C307 1.429 . S
C306 H316 0.932 . S
C307 C304 1.358 . S
C307 C306 1.429 . S
C307 H317 0.930 . S
C308 C304 1.332 . S
C308 C309 1.394 . S
C308 H318 0.932 . S
C309 C305 1.308 . S
C309 C308 1.394 . S
C309 H319 0.929 . S
C310 Tb281 2.764 . S
C310 O294 1.239 . S
C310 O295 1.263 . S
C310 C304 1.504 . S
C311 O296 1.236 . S
C311 O297 1.257 . S
H312 C285 0.932 1_554 S
H313 C286 0.930 . S
H314 C287 0.932 . S
H315 C288 0.929 1_554 S
H316 C306 0.932 . S
H317 C307 0.930 . S
H318 C308 0.932 . S
H319 C309 0.929 . S
Tb320 C329 2.764 1_556 S
Tb320 O330 2.325 . S
Tb320 O333 2.303 . S
Tb320 O337 2.322 . S
Tb320 O338 2.349 . S
Tb320 O341 2.415 1_556 S
Tb320 O342 2.399 1_556 S
Tb321 O331 2.322 . S
Tb321 O332 2.349 . S
Tb321 O334 2.415 . S
Tb321 O335 2.399 . S
Tb321 O336 2.325 . S
Tb321 O339 2.303 . S
Tb321 C350 2.764 . S
C322 O338 1.261 . S
C322 O339 1.257 . S
C323 C326 1.358 . S
C323 C327 1.332 . S
C323 C329 1.504 . S
C324 C325 1.373 . S
C324 C328 1.308 . S
C325 C324 1.373 . S
C325 C326 1.429 . S
C325 H352 0.932 . S
C326 C323 1.358 . S
C326 C325 1.429 . S
C326 H353 0.930 . S
C327 C323 1.332 . S
C327 C328 1.394 . S
C327 H354 0.932 . S
C328 C324 1.308 . S
C328 C327 1.394 . S
C328 H355 0.929 . S
C329 Tb320 2.764 1_554 S
C329 C323 1.504 . S
C329 O341 1.239 . S
C329 O342 1.263 . S
O330 Tb320 2.325 . S
O330 C340 1.236 . S
O331 Tb321 2.322 . S
O331 C340 1.257 . S
O332 Tb321 2.349 . S
O332 C343 1.261 . S
O333 Tb320 2.303 . S
O333 C343 1.257 . S
O334 Tb321 2.415 . S
O334 C350 1.239 . S
O335 Tb321 2.399 . S
O335 C350 1.263 . S
O336 Tb321 2.325 . S
O336 C351 1.236 . S
O337 Tb320 2.322 . S
O337 C351 1.257 . S
O338 Tb320 2.349 . S
O338 C322 1.261 . S
O339 Tb321 2.303 . S
O339 C322 1.257 . S
C340 O330 1.236 . S
C340 O331 1.257 . S
O341 Tb320 2.415 1_554 S
O341 C329 1.239 . S
O342 Tb320 2.399 1_554 S
O342 C329 1.263 . S
C343 O332 1.261 . S
C343 O333 1.257 . S
C344 C347 1.358 . S
C344 C348 1.332 . S
C344 C350 1.504 . S
C345 C346 1.373 . S
C345 C349 1.308 . S
C346 C345 1.373 . S
C346 C347 1.429 . S
C346 H356 0.932 . S
C347 C344 1.358 . S
C347 C346 1.429 . S
C347 H357 0.930 . S
C348 C344 1.332 . S
C348 C349 1.394 . S
C348 H358 0.932 . S
C349 C345 1.308 . S
C349 C348 1.394 . S
C349 H359 0.929 . S
C350 Tb321 2.764 . S
C350 O334 1.239 . S
C350 O335 1.263 . S
C350 C344 1.504 . S
C351 O336 1.236 . S
C351 O337 1.257 . S
H352 C325 0.932 . S
H353 C326 0.930 . S
H354 C327 0.932 . S
H355 C328 0.929 . S
H356 C346 0.932 . S
H357 C347 0.930 . S
H358 C348 0.932 . S
H359 C349 0.929 . S
Tb360 C369 2.764 . S
Tb360 O370 2.325 . S
Tb360 O373 2.303 . S
Tb360 O377 2.322 . S
Tb360 O378 2.349 . S
Tb360 O381 2.415 . S
Tb360 O382 2.399 . S
Tb361 O371 2.322 . S
Tb361 O372 2.349 . S
Tb361 O374 2.415 . S
Tb361 O375 2.399 . S
Tb361 O376 2.325 . S
Tb361 O379 2.303 . S
Tb361 C390 2.764 . S
C362 O378 1.261 . S
C362 O379 1.257 . S
C363 C366 1.358 . S
C363 C367 1.332 . S
C363 C369 1.504 . S
C364 C365 1.373 . S
C364 C368 1.308 . S
C365 C364 1.373 . S
C365 C366 1.429 . S
C365 H392 0.932 . S
C366 C363 1.358 . S
C366 C365 1.429 . S
C366 H393 0.930 . S
C367 C363 1.332 . S
C367 C368 1.394 . S
C367 H394 0.932 . S
C368 C364 1.308 . S
C368 C367 1.394 . S
C368 H395 0.929 . S
C369 Tb360 2.764 . S
C369 C363 1.504 . S
C369 O381 1.239 . S
C369 O382 1.263 . S
O370 Tb360 2.325 . S
O370 C380 1.236 . S
O371 Tb361 2.322 . S
O371 C380 1.257 . S
O372 Tb361 2.349 . S
O372 C383 1.261 . S
O373 Tb360 2.303 . S
O373 C383 1.257 . S
O374 Tb361 2.415 . S
O374 C390 1.239 . S
O375 Tb361 2.399 . S
O375 C390 1.263 . S
O376 Tb361 2.325 . S
O376 C391 1.236 . S
O377 Tb360 2.322 . S
O377 C391 1.257 . S
O378 Tb360 2.349 . S
O378 C362 1.261 . S
O379 Tb361 2.303 . S
O379 C362 1.257 . S
C380 O370 1.236 . S
C380 O371 1.257 . S
O381 Tb360 2.415 . S
O381 C369 1.239 . S
O382 Tb360 2.399 . S
O382 C369 1.263 . S
C383 O372 1.261 . S
C383 O373 1.257 . S
C384 C387 1.358 . S
C384 C388 1.332 . S
C384 C390 1.504 . S
C385 C386 1.373 . S
C385 C389 1.308 . S
C386 C385 1.373 . S
C386 C387 1.429 . S
C386 H396 0.932 . S
C387 C384 1.358 . S
C387 C386 1.429 . S
C387 H397 0.930 . S
C388 C384 1.332 . S
C388 C389 1.394 . S
C388 H398 0.932 . S
C389 C385 1.308 . S
C389 C388 1.394 . S
C389 H399 0.929 . S
C390 Tb361 2.764 . S
C390 O374 1.239 . S
C390 O375 1.263 . S
C390 C384 1.504 . S
C391 O376 1.236 . S
C391 O377 1.257 . S
H392 C365 0.932 . S
H393 C366 0.930 . S
H394 C367 0.932 . S
H395 C368 0.929 . S
H396 C386 0.932 . S
H397 C387 0.930 . S
H398 C388 0.932 . S
H399 C389 0.929 . S
Tb400 C409 2.764 . S
Tb400 O410 2.325 . S
Tb400 O413 2.303 . S
Tb400 O417 2.322 . S
Tb400 O418 2.349 . S
Tb400 O421 2.415 . S
Tb400 O422 2.399 . S
Tb401 O411 2.322 . S
Tb401 O412 2.349 . S
Tb401 O414 2.415 . S
Tb401 O415 2.399 . S
Tb401 O416 2.325 . S
Tb401 O419 2.303 . S
Tb401 C430 2.764 . S
C402 O418 1.261 . S
C402 O419 1.257 . S
C403 C406 1.358 . S
C403 C407 1.332 . S
C403 C409 1.504 . S
C404 C405 1.373 1_556 S
C404 C408 1.308 1_556 S
C405 C404 1.373 1_554 S
C405 C406 1.429 . S
C405 H432 0.932 1_554 S
C406 C403 1.358 . S
C406 C405 1.429 . S
C406 H433 0.930 . S
C407 C403 1.332 . S
C407 C408 1.394 . S
C407 H434 0.932 . S
C408 C404 1.308 1_554 S
C408 C407 1.394 . S
C408 H435 0.929 . S
C409 Tb400 2.764 . S
C409 C403 1.504 . S
C409 O421 1.239 . S
C409 O422 1.263 . S
O410 Tb400 2.325 . S
O410 C420 1.236 . S
O411 Tb401 2.322 . S
O411 C420 1.257 . S
O412 Tb401 2.349 . S
O412 C423 1.261 . S
O413 Tb400 2.303 . S
O413 C423 1.257 . S
O414 Tb401 2.415 . S
O414 C430 1.239 . S
O415 Tb401 2.399 . S
O415 C430 1.263 . S
O416 Tb401 2.325 . S
O416 C431 1.236 . S
O417 Tb400 2.322 . S
O417 C431 1.257 . S
O418 Tb400 2.349 . S
O418 C402 1.261 . S
O419 Tb401 2.303 . S
O419 C402 1.257 . S
C420 O410 1.236 . S
C420 O411 1.257 . S
O421 Tb400 2.415 . S
O421 C409 1.239 . S
O422 Tb400 2.399 . S
O422 C409 1.263 . S
C423 O412 1.261 . S
C423 O413 1.257 . S
C424 C427 1.358 . S
C424 C428 1.332 . S
C424 C430 1.504 . S
C425 C426 1.373 . S
C425 C429 1.308 . S
C426 C425 1.373 . S
C426 C427 1.429 . S
C426 H436 0.932 . S
C427 C424 1.358 . S
C427 C426 1.429 . S
C427 H437 0.930 . S
C428 C424 1.332 . S
C428 C429 1.394 . S
C428 H438 0.932 . S
C429 C425 1.308 . S
C429 C428 1.394 . S
C429 H439 0.929 . S
C430 Tb401 2.764 . S
C430 O414 1.239 . S
C430 O415 1.263 . S
C430 C424 1.504 . S
C431 O416 1.236 . S
C431 O417 1.257 . S
H432 C405 0.932 1_556 S
H433 C406 0.930 . S
H434 C407 0.932 . S
H435 C408 0.929 . S
H436 C426 0.932 . S
H437 C427 0.930 . S
H438 C428 0.932 . S
H439 C429 0.929 . S
Tb440 C449 2.764 . S
Tb440 O450 2.325 . S
Tb440 O453 2.303 . S
Tb440 O457 2.322 . S
Tb440 O458 2.349 . S
Tb440 O461 2.415 . S
Tb440 O462 2.399 . S
Tb441 O451 2.320 1_556 S
Tb441 O452 2.348 1_556 S
Tb441 O454 2.418 . S
Tb441 O455 2.402 . S
Tb441 O456 2.325 1_556 S
Tb441 O459 2.302 1_556 S
Tb441 C470 2.767 . S
C442 O458 1.261 . S
C442 O459 1.257 . S
C443 C446 1.358 . S
C443 C447 1.332 . S
C443 C449 1.504 . S
C444 C445 1.373 . S
C444 C448 1.308 . S
C445 C444 1.373 . S
C445 C446 1.429 . S
C445 H472 0.932 . S
C446 C443 1.358 . S
C446 C445 1.429 . S
C446 H473 0.930 . S
C447 C443 1.332 . S
C447 C448 1.394 . S
C447 H474 0.932 . S
C448 C444 1.308 . S
C448 C447 1.394 . S
C448 H475 0.929 . S
C449 Tb440 2.764 . S
C449 C443 1.504 . S
C449 O461 1.239 . S
C449 O462 1.263 . S
O450 Tb440 2.325 . S
O450 C460 1.236 . S
O451 Tb441 2.320 1_554 S
O451 C460 1.257 . S
O452 Tb441 2.348 1_554 S
O452 C463 1.261 . S
O453 Tb440 2.303 . S
O453 C463 1.257 . S
O454 Tb441 2.418 . S
O454 C470 1.239 . S
O455 Tb441 2.402 . S
O455 C470 1.263 . S
O456 Tb441 2.325 1_554 S
O456 C471 1.236 . S
O457 Tb440 2.322 . S
O457 C471 1.257 . S
O458 Tb440 2.349 . S
O458 C442 1.261 . S
O459 Tb441 2.302 1_554 S
O459 C442 1.257 . S
C460 O450 1.236 . S
C460 O451 1.257 . S
O461 Tb440 2.415 . S
O461 C449 1.239 . S
O462 Tb440 2.399 . S
O462 C449 1.263 . S
C463 O452 1.261 . S
C463 O453 1.257 . S
C464 C467 1.358 . S
C464 C468 1.332 . S
C464 C470 1.504 . S
C465 C466 1.373 . S
C465 C469 1.308 . S
C466 C465 1.373 . S
C466 C467 1.429 . S
C466 H476 0.932 . S
C467 C464 1.358 . S
C467 C466 1.429 . S
C467 H477 0.930 . S
C468 C464 1.332 . S
C468 C469 1.394 . S
C468 H478 0.932 . S
C469 C465 1.308 . S
C469 C468 1.394 . S
C469 H479 0.929 . S
C470 Tb441 2.767 . S
C470 O454 1.239 . S
C470 O455 1.263 . S
C470 C464 1.504 . S
C471 O456 1.236 . S
C471 O457 1.257 . S
H472 C445 0.932 . S
H473 C446 0.930 . S
H474 C447 0.932 . S
H475 C448 0.929 . S
H476 C466 0.932 . S
H477 C467 0.930 . S
H478 C468 0.932 . S
H479 C469 0.929 . S
Tb480 C489 2.764 1_554 S
Tb480 O490 2.325 . S
Tb480 O493 2.303 . S
Tb480 O497 2.322 . S
Tb480 O498 2.349 . S
Tb480 O501 2.415 1_554 S
Tb480 O502 2.399 1_554 S
Tb481 O491 2.322 . S
Tb481 O492 2.349 . S
Tb481 O494 2.415 . S
Tb481 O495 2.399 . S
Tb481 O496 2.325 . S
Tb481 O499 2.303 . S
Tb481 C510 2.764 . S
C482 O498 1.261 . S
C482 O499 1.257 . S
C483 C486 1.358 . S
C483 C487 1.332 . S
C483 C489 1.504 . S
C484 C485 1.373 . S
C484 C488 1.308 . S
C485 C484 1.373 . S
C485 C486 1.429 . S
C485 H512 0.932 . S
C486 C483 1.358 . S
C486 C485 1.429 . S
C486 H513 0.930 . S
C487 C483 1.332 . S
C487 C488 1.394 . S
C487 H514 0.932 . S
C488 C484 1.308 . S
C488 C487 1.394 . S
C488 H515 0.929 . S
C489 Tb480 2.764 1_556 S
C489 C483 1.504 . S
C489 O501 1.239 . S
C489 O502 1.263 . S
O490 Tb480 2.325 . S
O490 C500 1.236 . S
O491 Tb481 2.322 . S
O491 C500 1.257 . S
O492 Tb481 2.349 . S
O492 C503 1.261 . S
O493 Tb480 2.303 . S
O493 C503 1.257 . S
O494 Tb481 2.415 . S
O494 C510 1.239 . S
O495 Tb481 2.399 . S
O495 C510 1.263 . S
O496 Tb481 2.325 . S
O496 C511 1.236 . S
O497 Tb480 2.322 . S
O497 C511 1.257 . S
O498 Tb480 2.349 . S
O498 C482 1.261 . S
O499 Tb481 2.303 . S
O499 C482 1.257 . S
C500 O490 1.236 . S
C500 O491 1.257 . S
O501 Tb480 2.415 1_556 S
O501 C489 1.239 . S
O502 Tb480 2.399 1_556 S
O502 C489 1.263 . S
C503 O492 1.261 . S
C503 O493 1.257 . S
C504 C507 1.358 . S
C504 C508 1.332 . S
C504 C510 1.504 . S
C505 C506 1.373 . S
C505 C509 1.308 . S
C506 C505 1.373 . S
C506 C507 1.429 . S
C506 H516 0.932 . S
C507 C504 1.358 . S
C507 C506 1.429 . S
C507 H517 0.930 . S
C508 C504 1.332 . S
C508 C509 1.394 . S
C508 H518 0.932 . S
C509 C505 1.308 . S
C509 C508 1.394 . S
C509 H519 0.929 . S
C510 Tb481 2.764 . S
C510 O494 1.239 . S
C510 O495 1.263 . S
C510 C504 1.504 . S
C511 O496 1.236 . S
C511 O497 1.257 . S
H512 C485 0.932 . S
H513 C486 0.930 . S
H514 C487 0.932 . S
H515 C488 0.929 . S
H516 C506 0.932 . S
H517 C507 0.930 . S
H518 C508 0.932 . S
H519 C509 0.929 . S
Tb520 C529 2.764 1_556 S
Tb520 O530 2.325 . S
Tb520 O533 2.303 . S
Tb520 O537 2.322 . S
Tb520 O538 2.349 . S
Tb520 O541 2.415 1_556 S
Tb520 O542 2.399 1_556 S
Tb521 O531 2.322 . S
Tb521 O532 2.349 . S
Tb521 O534 2.415 . S
Tb521 O535 2.399 . S
Tb521 O536 2.325 . S
Tb521 O539 2.303 . S
Tb521 C550 2.764 . S
C522 O538 1.261 . S
C522 O539 1.257 . S
C523 C526 1.358 . S
C523 C527 1.332 . S
C523 C529 1.504 . S
C524 C525 1.373 . S
C524 C528 1.308 . S
C525 C524 1.373 . S
C525 C526 1.429 . S
C525 H552 0.932 . S
C526 C523 1.358 . S
C526 C525 1.429 . S
C526 H553 0.930 . S
C527 C523 1.332 . S
C527 C528 1.394 . S
C527 H554 0.932 . S
C528 C524 1.308 . S
C528 C527 1.394 . S
C528 H555 0.929 . S
C529 Tb520 2.764 1_554 S
C529 C523 1.504 . S
C529 O541 1.239 . S
C529 O542 1.263 . S
O530 Tb520 2.325 . S
O530 C540 1.236 . S
O531 Tb521 2.322 . S
O531 C540 1.257 . S
O532 Tb521 2.349 . S
O532 C543 1.261 . S
O533 Tb520 2.303 . S
O533 C543 1.257 . S
O534 Tb521 2.415 . S
O534 C550 1.239 . S
O535 Tb521 2.399 . S
O535 C550 1.263 . S
O536 Tb521 2.325 . S
O536 C551 1.236 . S
O537 Tb520 2.322 . S
O537 C551 1.257 . S
O538 Tb520 2.349 . S
O538 C522 1.261 . S
O539 Tb521 2.303 . S
O539 C522 1.257 . S
C540 O530 1.236 . S
C540 O531 1.257 . S
O541 Tb520 2.415 1_554 S
O541 C529 1.239 . S
O542 Tb520 2.399 1_554 S
O542 C529 1.263 . S
C543 O532 1.261 . S
C543 O533 1.257 . S
C544 C547 1.358 . S
C544 C548 1.332 . S
C544 C550 1.504 . S
C545 C546 1.373 . S
C545 C549 1.308 . S
C546 C545 1.373 . S
C546 C547 1.429 . S
C546 H556 0.932 . S
C547 C544 1.358 . S
C547 C546 1.429 . S
C547 H557 0.930 . S
C548 C544 1.332 . S
C548 C549 1.394 . S
C548 H558 0.932 . S
C549 C545 1.308 . S
C549 C548 1.394 . S
C549 H559 0.929 . S
C550 Tb521 2.764 . S
C550 O534 1.239 . S
C550 O535 1.263 . S
C550 C544 1.504 . S
C551 O536 1.236 . S
C551 O537 1.257 . S
H552 C525 0.932 . S
H553 C526 0.930 . S
H554 C527 0.932 . S
H555 C528 0.929 . S
H556 C546 0.932 . S
H557 C547 0.930 . S
H558 C548 0.932 . S
H559 C549 0.929 . S
Tb560 C569 2.764 . S
Tb560 O570 2.325 . S
Tb560 O573 2.303 . S
Tb560 O577 2.322 . S
Tb560 O578 2.349 . S
Tb560 O581 2.415 . S
Tb560 O582 2.399 . S
Tb561 O571 2.322 . S
Tb561 O572 2.349 . S
Tb561 O574 2.415 . S
Tb561 O575 2.399 . S
Tb561 O576 2.325 . S
Tb561 O579 2.303 . S
Tb561 C590 2.764 . S
C562 O578 1.261 . S
C562 O579 1.257 . S
C563 C566 1.358 . S
C563 C567 1.332 . S
C563 C569 1.504 . S
C564 C565 1.373 1_554 S
C564 C568 1.308 1_554 S
C565 C564 1.373 1_556 S
C565 C566 1.429 . S
C565 H592 0.932 1_556 S
C566 C563 1.358 . S
C566 C565 1.429 . S
C566 H593 0.930 . S
C567 C563 1.332 . S
C567 C568 1.394 . S
C567 H594 0.932 . S
C568 C564 1.308 1_556 S
C568 C567 1.394 . S
C568 H595 0.929 . S
C569 Tb560 2.764 . S
C569 C563 1.504 . S
C569 O581 1.239 . S
C569 O582 1.263 . S
O570 Tb560 2.325 . S
O570 C580 1.236 . S
O571 Tb561 2.322 . S
O571 C580 1.257 . S
O572 Tb561 2.349 . S
O572 C583 1.261 . S
O573 Tb560 2.303 . S
O573 C583 1.257 . S
O574 Tb561 2.415 . S
O574 C590 1.239 . S
O575 Tb561 2.399 . S
O575 C590 1.263 . S
O576 Tb561 2.325 . S
O576 C591 1.236 . S
O577 Tb560 2.322 . S
O577 C591 1.257 . S
O578 Tb560 2.349 . S
O578 C562 1.261 . S
O579 Tb561 2.303 . S
O579 C562 1.257 . S
C580 O570 1.236 . S
C580 O571 1.257 . S
O581 Tb560 2.415 . S
O581 C569 1.239 . S
O582 Tb560 2.399 . S
O582 C569 1.263 . S
C583 O572 1.261 . S
C583 O573 1.257 . S
C584 C587 1.358 . S
C584 C588 1.332 . S
C584 C590 1.504 . S
C585 C586 1.373 . S
C585 C589 1.308 . S
C586 C585 1.373 . S
C586 C587 1.429 . S
C586 H596 0.932 . S
C587 C584 1.358 . S
C587 C586 1.429 . S
C587 H597 0.930 . S
C588 C584 1.332 . S
C588 C589 1.394 . S
C588 H598 0.932 . S
C589 C585 1.308 . S
C589 C588 1.394 . S
C589 H599 0.929 . S
C590 Tb561 2.764 . S
C590 O574 1.239 . S
C590 O575 1.263 . S
C590 C584 1.504 . S
C591 O576 1.236 . S
C591 O577 1.257 . S
H592 C565 0.932 1_554 S
H593 C566 0.930 . S
H594 C567 0.932 . S
H595 C568 0.929 . S
H596 C586 0.932 . S
H597 C587 0.930 . S
H598 C588 0.932 . S
H599 C589 0.929 . S
Tb600 C609 2.764 . S
Tb600 O610 2.325 . S
Tb600 O613 2.303 . S
Tb600 O617 2.322 . S
Tb600 O618 2.349 . S
Tb600 O621 2.415 . S
Tb600 O622 2.399 . S
Tb601 O611 2.322 . S
Tb601 O612 2.349 . S
Tb601 O614 2.415 . S
Tb601 O615 2.399 . S
Tb601 O616 2.325 . S
Tb601 O619 2.303 . S
Tb601 C630 2.764 . S
C602 O618 1.261 . S
C602 O619 1.257 . S
C603 C606 1.358 . S
C603 C607 1.332 . S
C603 C609 1.504 . S
C604 C605 1.373 . S
C604 C608 1.308 . S
C605 C604 1.373 . S
C605 C606 1.429 . S
C605 H632 0.932 . S
C606 C603 1.358 . S
C606 C605 1.429 . S
C606 H633 0.930 . S
C607 C603 1.332 . S
C607 C608 1.394 . S
C607 H634 0.932 . S
C608 C604 1.308 . S
C608 C607 1.394 . S
C608 H635 0.929 . S
C609 Tb600 2.764 . S
C609 C603 1.504 . S
C609 O621 1.239 . S
C609 O622 1.263 . S
O610 Tb600 2.325 . S
O610 C620 1.236 . S
O611 Tb601 2.322 . S
O611 C620 1.257 . S
O612 Tb601 2.349 . S
O612 C623 1.261 . S
O613 Tb600 2.303 . S
O613 C623 1.257 . S
O614 Tb601 2.415 . S
O614 C630 1.239 . S
O615 Tb601 2.399 . S
O615 C630 1.263 . S
O616 Tb601 2.325 . S
O616 C631 1.236 . S
O617 Tb600 2.322 . S
O617 C631 1.257 . S
O618 Tb600 2.349 . S
O618 C602 1.261 . S
O619 Tb601 2.303 . S
O619 C602 1.257 . S
C620 O610 1.236 . S
C620 O611 1.257 . S
O621 Tb600 2.415 . S
O621 C609 1.239 . S
O622 Tb600 2.399 . S
O622 C609 1.263 . S
C623 O612 1.261 . S
C623 O613 1.257 . S
C624 C627 1.358 . S
C624 C628 1.332 . S
C624 C630 1.504 . S
C625 C626 1.373 1_556 S
C625 C629 1.308 1_556 S
C626 C625 1.373 1_554 S
C626 C627 1.429 . S
C626 H636 0.932 1_554 S
C627 C624 1.358 . S
C627 C626 1.429 . S
C627 H637 0.930 . S
C628 C624 1.332 . S
C628 C629 1.394 . S
C628 H638 0.932 . S
C629 C625 1.308 1_554 S
C629 C628 1.394 . S
C629 H639 0.929 1_554 S
C630 Tb601 2.764 . S
C630 O614 1.239 . S
C630 O615 1.263 . S
C630 C624 1.504 . S
C631 O616 1.236 . S
C631 O617 1.257 . S
H632 C605 0.932 . S
H633 C606 0.930 . S
H634 C607 0.932 . S
H635 C608 0.929 . S
H636 C626 0.932 1_556 S
H637 C627 0.930 . S
H638 C628 0.932 . S
H639 C629 0.929 1_556 S
C640 C641 1.387 . S
C640 H644 0.950 . S
C640 C649 1.390 . S
C641 C640 1.387 . S
C641 C643 1.387 . S
H642 C649 0.950 . S
C643 C641 1.387 . S
C643 C645 1.390 . S
C643 H647 0.950 . S
H644 C640 0.950 . S
C645 C643 1.390 . S
C645 C646 1.387 . S
C645 H648 0.950 . S
C646 C645 1.387 . S
C646 C649 1.387 . S
H647 C643 0.950 . S
H648 C645 0.950 . S
C649 C640 1.390 . S
C649 H642 0.950 . S
C649 C646 1.387 . S
C650 C651 1.387 . S
C650 H654 0.950 . S
C650 C659 1.390 . S
C651 C650 1.387 . S
C651 C653 1.387 . S
H652 C659 0.950 . S
C653 C651 1.387 . S
C653 C655 1.390 . S
C653 H657 0.950 . S
H654 C650 0.950 . S
C655 C653 1.390 . S
C655 C656 1.387 . S
C655 H658 0.950 . S
C656 C655 1.387 . S
C656 C659 1.387 . S
H657 C653 0.950 . S
H658 C655 0.950 . S
C659 C650 1.390 . S
C659 H652 0.950 . S
C659 C656 1.387 . S
C660 C661 1.387 . S
C660 H664 0.950 . S
C660 C669 1.390 . S
C661 C660 1.387 . S
C661 C663 1.387 . S
H662 C669 0.950 . S
C663 C661 1.387 . S
C663 C665 1.390 . S
C663 H667 0.950 . S
H664 C660 0.950 . S
C665 C663 1.390 . S
C665 C666 1.387 . S
C665 H668 0.950 . S
C666 C665 1.387 . S
C666 C669 1.387 . S
H667 C663 0.950 . S
H668 C665 0.950 . S
C669 C660 1.390 . S
C669 H662 0.950 . S
C669 C666 1.387 . S
C670 C671 1.387 . S
C670 H674 0.950 . S
C670 C679 1.390 . S
C671 C670 1.387 . S
C671 C673 1.387 . S
H672 C679 0.950 . S
C673 C671 1.387 . S
C673 C675 1.390 . S
C673 H677 0.950 . S
H674 C670 0.950 . S
C675 C673 1.390 . S
C675 C676 1.387 . S
C675 H678 0.950 . S
C676 C675 1.387 . S
C676 C679 1.387 . S
H677 C673 0.950 . S
H678 C675 0.950 . S
C679 C670 1.390 . S
C679 H672 0.950 . S
C679 C676 1.387 . S
C680 C681 1.387 . S
C680 H684 0.950 . S
C680 C689 1.390 . S
C681 C680 1.387 . S
C681 C683 1.387 . S
H682 C689 0.950 . S
C683 C681 1.387 . S
C683 C685 1.390 . S
C683 H687 0.950 . S
H684 C680 0.950 . S
C685 C683 1.390 . S
C685 C686 1.387 . S
C685 H688 0.950 . S
C686 C685 1.387 . S
C686 C689 1.387 . S
H687 C683 0.950 . S
H688 C685 0.950 . S
C689 C680 1.390 . S
C689 H682 0.950 . S
C689 C686 1.387 . S
C690 C691 1.387 . S
C690 H694 0.950 . S
C690 C699 1.390 . S
C691 C690 1.387 . S
C691 C693 1.387 . S
H692 C699 0.950 . S
C693 C691 1.387 . S
C693 C695 1.390 . S
C693 H697 0.950 . S
H694 C690 0.950 . S
C695 C693 1.390 . S
C695 C696 1.387 . S
C695 H698 0.950 . S
C696 C695 1.387 . S
C696 C699 1.387 . S
H697 C693 0.950 . S
H698 C695 0.950 . S
C699 C690 1.390 . S
C699 H692 0.950 . S
C699 C696 1.387 . S
C700 C701 1.387 . S
C700 H704 0.950 . S
C700 C709 1.390 . S
C701 C700 1.387 . S
C701 C703 1.387 . S
H702 C709 0.950 . S
C703 C701 1.387 . S
C703 C705 1.390 . S
C703 H707 0.950 . S
H704 C700 0.950 . S
C705 C703 1.390 . S
C705 C706 1.387 . S
C705 H708 0.950 . S
C706 C705 1.387 . S
C706 C709 1.387 . S
H707 C703 0.950 . S
H708 C705 0.950 . S
C709 C700 1.390 . S
C709 H702 0.950 . S
C709 C706 1.387 . S
C710 C711 1.387 . S
C710 H714 0.950 . S
C710 C719 1.390 . S
C711 C710 1.387 . S
C711 C713 1.387 . S
H712 C719 0.950 . S
C713 C711 1.387 . S
C713 C715 1.390 . S
C713 H717 0.950 . S
H714 C710 0.950 . S
C715 C713 1.390 . S
C715 C716 1.387 . S
C715 H718 0.950 . S
C716 C715 1.387 . S
C716 C719 1.387 . S
H717 C713 0.950 . S
H718 C715 0.950 . S
C719 C710 1.390 . S
C719 H712 0.950 . S
C719 C716 1.387 . S
C720 C721 1.387 . S
C720 H724 0.950 . S
C720 C729 1.390 . S
C721 C720 1.387 . S
C721 C723 1.387 . S
H722 C729 0.950 . S
C723 C721 1.387 . S
C723 C725 1.390 . S
C723 H727 0.950 . S
H724 C720 0.950 . S
C725 C723 1.390 . S
C725 C726 1.387 . S
C725 H728 0.950 . S
C726 C725 1.387 . S
C726 C729 1.387 . S
H727 C723 0.950 . S
H728 C725 0.950 . S
C729 C720 1.390 . S
C729 H722 0.950 . S
C729 C726 1.387 . S
C730 C731 1.387 . S
C730 H734 0.950 . S
C730 C739 1.390 . S
C731 C730 1.387 . S
C731 C733 1.387 . S
H732 C739 0.950 . S
C733 C731 1.387 . S
C733 C735 1.390 . S
C733 H737 0.950 . S
H734 C730 0.950 . S
C735 C733 1.390 . S
C735 C736 1.387 . S
C735 H738 0.950 . S
C736 C735 1.387 . S
C736 C739 1.387 . S
H737 C733 0.950 . S
H738 C735 0.950 . S
C739 C730 1.390 . S
C739 H732 0.950 . S
C739 C736 1.387 . S
C740 C741 1.387 . S
C740 H744 0.950 . S
C740 C749 1.390 . S
C741 C740 1.387 . S
C741 C743 1.387 . S
H742 C749 0.950 . S
C743 C741 1.387 . S
C743 C745 1.390 . S
C743 H747 0.950 . S
H744 C740 0.950 . S
C745 C743 1.390 . S
C745 C746 1.387 . S
C745 H748 0.950 . S
C746 C745 1.387 . S
C746 C749 1.387 . S
H747 C743 0.950 . S
H748 C745 0.950 . S
C749 C740 1.390 . S
C749 H742 0.950 . S
C749 C746 1.387 . S
C750 C751 1.387 . S
C750 H754 0.950 . S
C750 C759 1.390 . S
C751 C750 1.387 . S
C751 C753 1.387 . S
H752 C759 0.950 . S
C753 C751 1.387 . S
C753 C755 1.390 . S
C753 H757 0.950 . S
H754 C750 0.950 . S
C755 C753 1.390 . S
C755 C756 1.387 . S
C755 H758 0.950 . S
C756 C755 1.387 . S
C756 C759 1.387 . S
H757 C753 0.950 . S
H758 C755 0.950 . S
C759 C750 1.390 . S
C759 H752 0.950 . S
C759 C756 1.387 . S
C760 C761 1.387 . S
C760 H764 0.950 . S
C760 C769 1.390 . S
C761 C760 1.387 . S
C761 C763 1.387 . S
H762 C769 0.950 . S
C763 C761 1.387 . S
C763 C765 1.390 . S
C763 H767 0.950 . S
H764 C760 0.950 . S
C765 C763 1.390 . S
C765 C766 1.387 . S
C765 H768 0.950 . S
C766 C765 1.387 . S
C766 C769 1.387 . S
H767 C763 0.950 . S
H768 C765 0.950 . S
C769 C760 1.390 . S
C769 H762 0.950 . S
C769 C766 1.387 . S
C770 C771 1.387 . S
C770 H774 0.950 . S
C770 C779 1.390 . S
C771 C770 1.387 . S
C771 C773 1.387 . S
H772 C779 0.950 . S
C773 C771 1.387 . S
C773 C775 1.390 . S
C773 H777 0.950 . S
H774 C770 0.950 . S
C775 C773 1.390 . S
C775 C776 1.387 . S
C775 H778 0.950 . S
C776 C775 1.387 . S
C776 C779 1.387 . S
H777 C773 0.950 . S
H778 C775 0.950 . S
C779 C770 1.390 . S
C779 H772 0.950 . S
C779 C776 1.387 . S
C780 C781 1.387 . S
C780 H784 0.950 . S
C780 C789 1.390 . S
C781 C780 1.387 . S
C781 C783 1.387 . S
H782 C789 0.950 . S
C783 C781 1.387 . S
C783 C785 1.390 . S
C783 H787 0.950 . S
H784 C780 0.950 . S
C785 C783 1.390 . S
C785 C786 1.387 . S
C785 H788 0.950 . S
C786 C785 1.387 . S
C786 C789 1.387 . S
H787 C783 0.950 . S
H788 C785 0.950 . S
C789 C780 1.390 . S
C789 H782 0.950 . S
C789 C786 1.387 . S
C790 C791 1.387 . S
C790 H794 0.950 . S
C790 C799 1.390 . S
C791 C790 1.387 . S
C791 C793 1.387 . S
H792 C799 0.950 . S
C793 C791 1.387 . S
C793 C795 1.390 . S
C793 H797 0.950 . S
H794 C790 0.950 . S
C795 C793 1.390 . S
C795 C796 1.387 . S
C795 H798 0.950 . S
C796 C795 1.387 . S
C796 C799 1.387 . S
H797 C793 0.950 . S
H798 C795 0.950 . S
C799 C790 1.390 . S
C799 H792 0.950 . S
C799 C796 1.387 . S
C800 C801 1.387 . S
C800 H804 0.950 . S
C800 C809 1.390 . S
C801 C800 1.387 . S
C801 C803 1.387 . S
H802 C809 0.950 . S
C803 C801 1.387 . S
C803 C805 1.390 . S
C803 H807 0.950 . S
H804 C800 0.950 . S
C805 C803 1.390 . S
C805 C806 1.387 . S
C805 H808 0.950 . S
C806 C805 1.387 . S
C806 C809 1.387 . S
H807 C803 0.950 . S
H808 C805 0.950 . S
C809 C800 1.390 . S
C809 H802 0.950 . S
C809 C806 1.387 . S
C810 C811 1.387 . S
C810 H814 0.950 . S
C810 C819 1.390 . S
C811 C810 1.387 . S
C811 C813 1.387 . S
H812 C819 0.950 . S
C813 C811 1.387 . S
C813 C815 1.390 . S
C813 H817 0.950 . S
H814 C810 0.950 . S
C815 C813 1.390 . S
C815 C816 1.387 . S
C815 H818 0.950 . S
C816 C815 1.387 . S
C816 C819 1.387 . S
H817 C813 0.950 . S
H818 C815 0.950 . S
C819 C810 1.390 . S
C819 H812 0.950 . S
C819 C816 1.387 . S
C820 C821 1.387 . S
C820 H824 0.950 . S
C820 C829 1.390 . S
C821 C820 1.387 . S
C821 C823 1.387 . S
H822 C829 0.950 . S
C823 C821 1.387 . S
C823 C825 1.390 . S
C823 H827 0.950 . S
H824 C820 0.950 . S
C825 C823 1.390 . S
C825 C826 1.387 . S
C825 H828 0.950 . S
C826 C825 1.387 . S
C826 C829 1.387 . S
H827 C823 0.950 . S
H828 C825 0.950 . S
C829 C820 1.390 . S
C829 H822 0.950 . S
C829 C826 1.387 . S
C830 C831 1.387 . S
C830 H834 0.950 . S
C830 C839 1.390 1_655 S
C831 C830 1.387 . S
C831 C833 1.387 . S
H832 C839 0.950 . S
C833 C831 1.387 . S
C833 C835 1.390 1_655 S
C833 H837 0.950 . S
H834 C830 0.950 . S
C835 C833 1.390 1_455 S
C835 C836 1.387 . S
C835 H838 0.950 . S
C836 C835 1.387 . S
C836 C839 1.387 . S
H837 C833 0.950 . S
H838 C835 0.950 . S
C839 C830 1.390 1_455 S
C839 H832 0.950 . S
C839 C836 1.387 . S
C840 C841 1.387 . S
C840 H844 0.950 . S
C840 C849 1.390 . S
C841 C840 1.387 . S
C841 C843 1.387 . S
H842 C849 0.950 . S
C843 C841 1.387 . S
C843 C845 1.390 . S
C843 H847 0.950 . S
H844 C840 0.950 . S
C845 C843 1.390 . S
C845 C846 1.387 . S
C845 H848 0.950 . S
C846 C845 1.387 . S
C846 C849 1.387 . S
H847 C843 0.950 . S
H848 C845 0.950 . S
C849 C840 1.390 . S
C849 H842 0.950 . S
C849 C846 1.387 . S
C850 C851 1.387 . S
C850 H854 0.950 . S
C850 C859 1.390 1_455 S
C851 C850 1.387 . S
C851 C853 1.387 . S
H852 C859 0.950 . S
C853 C851 1.387 . S
C853 C855 1.390 1_455 S
C853 H857 0.950 . S
H854 C850 0.950 . S
C855 C853 1.390 1_655 S
C855 C856 1.387 . S
C855 H858 0.950 . S
C856 C855 1.387 . S
C856 C859 1.387 . S
H857 C853 0.950 . S
H858 C855 0.950 . S
C859 C850 1.390 1_655 S
C859 H852 0.950 . S
C859 C856 1.387 . S
C860 C861 1.387 . S
C860 H864 0.950 . S
C860 C869 1.390 . S
C861 C860 1.387 . S
C861 C863 1.387 . S
H862 C869 0.950 . S
C863 C861 1.387 . S
C863 C865 1.390 . S
C863 H867 0.950 . S
H864 C860 0.950 . S
C865 C863 1.390 . S
C865 C866 1.387 . S
C865 H868 0.950 . S
C866 C865 1.387 . S
C866 C869 1.387 . S
H867 C863 0.950 . S
H868 C865 0.950 . S
C869 C860 1.390 . S
C869 H862 0.950 . S
C869 C866 1.387 . S
C870 C871 1.387 . S
C870 H874 0.950 . S
C870 C879 1.390 . S
C871 C870 1.387 . S
C871 C873 1.387 . S
H872 C879 0.950 . S
C873 C871 1.387 . S
C873 C875 1.390 . S
C873 H877 0.950 . S
H874 C870 0.950 . S
C875 C873 1.390 . S
C875 C876 1.387 . S
C875 H878 0.950 . S
C876 C875 1.387 . S
C876 C879 1.387 . S
H877 C873 0.950 . S
H878 C875 0.950 . S
C879 C870 1.390 . S
C879 H872 0.950 . S
C879 C876 1.387 . S
C880 C881 1.387 . S
C880 H884 0.950 . S
C880 C889 1.390 . S
C881 C880 1.387 . S
C881 C883 1.387 . S
H882 C889 0.950 . S
C883 C881 1.387 . S
C883 C885 1.390 . S
C883 H887 0.950 . S
H884 C880 0.950 . S
C885 C883 1.390 . S
C885 C886 1.387 . S
C885 H888 0.950 . S
C886 C885 1.387 . S
C886 C889 1.387 . S
H887 C883 0.950 . S
H888 C885 0.950 . S
C889 C880 1.390 . S
C889 H882 0.950 . S
C889 C886 1.387 . S
C890 C891 1.387 . S
C890 H894 0.950 . S
C890 C899 1.390 . S
C891 C890 1.387 . S
C891 C893 1.387 . S
H892 C899 0.950 . S
C893 C891 1.387 . S
C893 C895 1.390 . S
C893 H897 0.950 . S
H894 C890 0.950 . S
C895 C893 1.390 . S
C895 C896 1.387 . S
C895 H898 0.950 . S
C896 C895 1.387 . S
C896 C899 1.387 . S
H897 C893 0.950 . S
H898 C895 0.950 . S
C899 C890 1.390 . S
C899 H892 0.950 . S
C899 C896 1.387 . S
C900 C901 1.387 . S
C900 H904 0.950 . S
C900 C909 1.390 . S
C901 C900 1.387 . S
C901 C903 1.387 . S
H902 C909 0.950 . S
C903 C901 1.387 . S
C903 C905 1.390 . S
C903 H907 0.950 . S
H904 C900 0.950 . S
C905 C903 1.390 . S
C905 C906 1.387 . S
C905 H908 0.950 . S
C906 C905 1.387 . S
C906 C909 1.387 . S
H907 C903 0.950 . S
H908 C905 0.950 . S
C909 C900 1.390 . S
C909 H902 0.950 . S
C909 C906 1.387 . S
C910 C911 1.387 . S
C910 H914 0.950 . S
C910 C919 1.390 . S
C911 C910 1.387 . S
C911 C913 1.387 . S
H912 C919 0.950 . S
C913 C911 1.387 . S
C913 C915 1.390 . S
C913 H917 0.950 . S
H914 C910 0.950 . S
C915 C913 1.390 . S
C915 C916 1.387 . S
C915 H918 0.950 . S
C916 C915 1.387 . S
C916 C919 1.387 . S
H917 C913 0.950 . S
H918 C915 0.950 . S
C919 C910 1.390 . S
C919 H912 0.950 . S
C919 C916 1.387 . S
C920 C921 1.387 . S
C920 H924 0.950 . S
C920 C929 1.390 1_655 S
C921 C920 1.387 . S
C921 C923 1.387 1_556 S
H922 C929 0.950 . S
C923 C921 1.387 1_554 S
C923 C925 1.390 1_655 S
C923 H927 0.950 . S
H924 C920 0.950 . S
C925 C923 1.390 1_455 S
C925 C926 1.387 1_554 S
C925 H928 0.950 . S
C926 C925 1.387 1_556 S
C926 C929 1.387 . S
H927 C923 0.950 . S
H928 C925 0.950 . S
C929 C920 1.390 1_455 S
C929 H922 0.950 . S
C929 C926 1.387 . S
C930 C931 1.387 . S
C930 H934 0.950 . S
C930 C939 1.390 . S
C931 C930 1.387 . S
C931 C933 1.387 . S
H932 C939 0.950 . S
C933 C931 1.387 . S
C933 C935 1.390 . S
C933 H937 0.950 . S
H934 C930 0.950 . S
C935 C933 1.390 . S
C935 C936 1.387 . S
C935 H938 0.950 . S
C936 C935 1.387 . S
C936 C939 1.387 . S
H937 C933 0.950 . S
H938 C935 0.950 . S
C939 C930 1.390 . S
C939 H932 0.950 . S
C939 C936 1.387 . S
C940 C941 1.387 . S
C940 H944 0.950 . S
C940 C949 1.390 . S
C941 C940 1.387 . S
C941 C943 1.387 . S
H942 C949 0.950 . S
C943 C941 1.387 . S
C943 C945 1.390 . S
C943 H947 0.950 . S
H944 C940 0.950 . S
C945 C943 1.390 . S
C945 C946 1.387 . S
C945 H948 0.950 . S
C946 C945 1.387 . S
C946 C949 1.387 . S
H947 C943 0.950 . S
H948 C945 0.950 . S
C949 C940 1.390 . S
C949 H942 0.950 . S
C949 C946 1.387 . S
C950 C951 1.387 1_556 S
C950 H954 0.950 . S
C950 C959 1.390 1_455 S
C951 C950 1.387 1_554 S
C951 C953 1.387 . S
H952 C959 0.950 . S
C953 C951 1.387 . S
C953 C955 1.390 1_455 S
C953 H957 0.950 . S
H954 C950 0.950 . S
C955 C953 1.390 1_655 S
C955 C956 1.387 . S
C955 H958 0.950 . S
C956 C955 1.387 . S
C956 C959 1.387 1_554 S
H957 C953 0.950 . S
H958 C955 0.950 . S
C959 C950 1.390 1_655 S
C959 H952 0.950 . S
C959 C956 1.387 1_556 S
C960 C961 1.387 . S
C960 H964 0.950 . S
C960 C969 1.390 1_554 S
C961 C960 1.387 . S
C961 C963 1.387 . S
H962 C969 0.950 . S
C963 C961 1.387 . S
C963 C965 1.390 1_554 S
C963 H967 0.950 . S
H964 C960 0.950 . S
C965 C963 1.390 1_556 S
C965 C966 1.387 . S
C965 H968 0.950 . S
C966 C965 1.387 . S
C966 C969 1.387 . S
H967 C963 0.950 . S
H968 C965 0.950 . S
C969 C960 1.390 1_556 S
C969 H962 0.950 . S
C969 C966 1.387 . S
C970 C971 1.387 . S
C970 H974 0.950 . S
C970 C979 1.390 . S
C971 C970 1.387 . S
C971 C973 1.387 . S
H972 C979 0.950 . S
C973 C971 1.387 . S
C973 C975 1.390 . S
C973 H977 0.950 . S
H974 C970 0.950 . S
C975 C973 1.390 . S
C975 C976 1.387 . S
C975 H978 0.950 . S
C976 C975 1.387 . S
C976 C979 1.387 . S
H977 C973 0.950 . S
H978 C975 0.950 . S
C979 C970 1.390 . S
C979 H972 0.950 . S
C979 C976 1.387 . S
C980 C981 1.387 . S
C980 H984 0.950 . S
C980 C989 1.390 . S
C981 C980 1.387 . S
C981 C983 1.387 . S
H982 C989 0.950 . S
C983 C981 1.387 . S
C983 C985 1.390 . S
C983 H987 0.950 . S
H984 C980 0.950 . S
C985 C983 1.390 . S
C985 C986 1.387 . S
C985 H988 0.950 . S
C986 C985 1.387 . S
C986 C989 1.387 . S
H987 C983 0.950 . S
H988 C985 0.950 . S
C989 C980 1.390 . S
C989 H982 0.950 . S
C989 C986 1.387 . S
C990 C991 1.387 . S
C990 H994 0.950 . S
C990 C999 1.390 . S
C991 C990 1.387 . S
C991 C993 1.387 . S
H992 C999 0.950 . S
C993 C991 1.387 . S
C993 C995 1.390 . S
C993 H997 0.950 . S
H994 C990 0.950 . S
C995 C993 1.390 . S
C995 C996 1.387 . S
C995 H998 0.950 . S
C996 C995 1.387 . S
C996 C999 1.387 . S
H997 C993 0.950 . S
H998 C995 0.950 . S
C999 C990 1.390 . S
C999 H992 0.950 . S
C999 C996 1.387 . S
C1000 C1001 1.387 . S
C1000 H1004 0.950 . S
C1000 C1009 1.390 . S
C1001 C1000 1.387 . S
C1001 C1003 1.387 1_554 S
H1002 C1009 0.950 . S
C1003 C1001 1.387 1_556 S
C1003 C1005 1.390 . S
C1003 H1007 0.950 . S
H1004 C1000 0.950 . S
C1005 C1003 1.390 . S
C1005 C1006 1.387 . S
C1005 H1008 0.950 . S
C1006 C1005 1.387 . S
C1006 C1009 1.387 1_556 S
H1007 C1003 0.950 . S
H1008 C1005 0.950 . S
C1009 C1000 1.390 . S
C1009 H1002 0.950 . S
C1009 C1006 1.387 1_554 S
C1010 C1011 1.387 . S
C1010 H1014 0.950 . S
C1010 C1019 1.390 . S
C1011 C1010 1.387 . S
C1011 C1013 1.387 . S
H1012 C1019 0.950 . S
C1013 C1011 1.387 . S
C1013 C1015 1.390 . S
C1013 H1017 0.950 . S
H1014 C1010 0.950 . S
C1015 C1013 1.390 . S
C1015 C1016 1.387 . S
C1015 H1018 0.950 . S
C1016 C1015 1.387 . S
C1016 C1019 1.387 . S
H1017 C1013 0.950 . S
H1018 C1015 0.950 . S
C1019 C1010 1.390 . S
C1019 H1012 0.950 . S
C1019 C1016 1.387 . S
C1020 C1021 1.387 . S
C1020 H1024 0.950 . S
C1020 C1029 1.390 . S
C1021 C1020 1.387 . S
C1021 C1023 1.387 . S
H1022 C1029 0.950 . S
C1023 C1021 1.387 . S
C1023 C1025 1.390 . S
C1023 H1027 0.950 . S
H1024 C1020 0.950 . S
C1025 C1023 1.390 . S
C1025 C1026 1.387 . S
C1025 H1028 0.950 . S
C1026 C1025 1.387 . S
C1026 C1029 1.387 . S
H1027 C1023 0.950 . S
H1028 C1025 0.950 . S
C1029 C1020 1.390 . S
C1029 H1022 0.950 . S
C1029 C1026 1.387 . S
C1030 C1031 1.387 . S
C1030 H1034 0.950 . S
C1030 C1039 1.390 . S
C1031 C1030 1.387 . S
C1031 C1033 1.387 . S
H1032 C1039 0.950 . S
C1033 C1031 1.387 . S
C1033 C1035 1.390 . S
C1033 H1037 0.950 . S
H1034 C1030 0.950 . S
C1035 C1033 1.390 . S
C1035 C1036 1.387 . S
C1035 H1038 0.950 . S
C1036 C1035 1.387 . S
C1036 C1039 1.387 . S
H1037 C1033 0.950 . S
H1038 C1035 0.950 . S
C1039 C1030 1.390 . S
C1039 H1032 0.950 . S
C1039 C1036 1.387 . S
C1040 C1041 1.387 . S
C1040 H1044 0.950 . S
C1040 C1049 1.390 1_565 S
C1041 C1040 1.387 . S
C1041 C1043 1.387 . S
H1042 C1049 0.950 . S
C1043 C1041 1.387 . S
C1043 C1045 1.390 1_565 S
C1043 H1047 0.950 . S
H1044 C1040 0.950 . S
C1045 C1043 1.390 1_545 S
C1045 C1046 1.387 . S
C1045 H1048 0.950 . S
C1046 C1045 1.387 . S
C1046 C1049 1.387 . S
H1047 C1043 0.950 . S
H1048 C1045 0.950 . S
C1049 C1040 1.390 1_545 S
C1049 H1042 0.950 . S
C1049 C1046 1.387 . S
C1050 C1051 1.387 . S
C1050 H1054 0.950 . S
C1050 C1059 1.390 . S
C1051 C1050 1.387 . S
C1051 C1053 1.387 . S
H1052 C1059 0.950 . S
C1053 C1051 1.387 . S
C1053 C1055 1.390 . S
C1053 H1057 0.950 . S
H1054 C1050 0.950 . S
C1055 C1053 1.390 . S
C1055 C1056 1.387 . S
C1055 H1058 0.950 . S
C1056 C1055 1.387 . S
C1056 C1059 1.387 . S
H1057 C1053 0.950 . S
H1058 C1055 0.950 . S
C1059 C1050 1.390 . S
C1059 H1052 0.950 . S
C1059 C1056 1.387 . S
C1060 C1061 1.387 . S
C1060 H1064 0.950 . S
C1060 C1069 1.390 1_565 S
C1061 C1060 1.387 . S
C1061 C1063 1.387 . S
H1062 C1069 0.950 1_556 S
C1063 C1061 1.387 . S
C1063 C1065 1.390 1_565 S
C1063 H1067 0.950 . S
H1064 C1060 0.950 . S
C1065 C1063 1.390 1_545 S
C1065 C1066 1.387 1_554 S
C1065 H1068 0.950 . S
C1066 C1065 1.387 1_556 S
C1066 C1069 1.387 1_556 S
H1067 C1063 0.950 . S
H1068 C1065 0.950 . S
C1069 C1060 1.390 1_545 S
C1069 H1062 0.950 1_554 S
C1069 C1066 1.387 1_554 S
C1070 C1071 1.387 . S
C1070 H1074 0.950 . S
C1070 C1079 1.390 . S
C1071 C1070 1.387 . S
C1071 C1073 1.387 . S
H1072 C1079 0.950 . S
C1073 C1071 1.387 . S
C1073 C1075 1.390 . S
C1073 H1077 0.950 . S
H1074 C1070 0.950 . S
C1075 C1073 1.390 . S
C1075 C1076 1.387 . S
C1075 H1078 0.950 . S
C1076 C1075 1.387 . S
C1076 C1079 1.387 . S
H1077 C1073 0.950 . S
H1078 C1075 0.950 . S
C1079 C1070 1.390 . S
C1079 H1072 0.950 . S
C1079 C1076 1.387 . S
C1080 C1081 1.387 . S
C1080 H1084 0.950 . S
C1080 C1089 1.390 1_565 S
C1081 C1080 1.387 . S
C1081 C1083 1.387 . S
H1082 C1089 0.950 . S
C1083 C1081 1.387 . S
C1083 C1085 1.390 1_565 S
C1083 H1087 0.950 . S
H1084 C1080 0.950 . S
C1085 C1083 1.390 1_545 S
C1085 C1086 1.387 . S
C1085 H1088 0.950 . S
C1086 C1085 1.387 . S
C1086 C1089 1.387 . S
H1087 C1083 0.950 . S
H1088 C1085 0.950 . S
C1089 C1080 1.390 1_545 S
C1089 H1082 0.950 . S
C1089 C1086 1.387 . S
C1090 C1091 1.387 . S
C1090 H1094 0.950 . S
C1090 C1099 1.390 . S
C1091 C1090 1.387 . S
C1091 C1093 1.387 . S
H1092 C1099 0.950 . S
C1093 C1091 1.387 . S
C1093 C1095 1.390 . S
C1093 H1097 0.950 . S
H1094 C1090 0.950 . S
C1095 C1093 1.390 . S
C1095 C1096 1.387 . S
C1095 H1098 0.950 . S
C1096 C1095 1.387 . S
C1096 C1099 1.387 . S
H1097 C1093 0.950 . S
H1098 C1095 0.950 . S
C1099 C1090 1.390 . S
C1099 H1092 0.950 . S
C1099 C1096 1.387 . S
C1100 C1101 1.387 1_565 S
C1100 H1104 0.950 . S
C1100 C1109 1.390 . S
C1101 C1100 1.387 1_545 S
C1101 C1103 1.387 . S
H1102 C1109 0.950 . S
C1103 C1101 1.387 . S
C1103 C1105 1.390 1_546 S
C1103 H1107 0.950 . S
H1104 C1100 0.950 . S
C1105 C1103 1.390 1_564 S
C1105 C1106 1.387 . S
C1105 H1108 0.950 . S
C1106 C1105 1.387 . S
C1106 C1109 1.387 1_554 S
H1107 C1103 0.950 . S
H1108 C1105 0.950 . S
C1109 C1100 1.390 . S
C1109 H1102 0.950 . S
C1109 C1106 1.387 1_556 S
C1110 C1111 1.387 . S
C1110 H1114 0.950 . S
C1110 C1119 1.390 . S
C1111 C1110 1.387 . S
C1111 C1113 1.387 . S
H1112 C1119 0.950 . S
C1113 C1111 1.387 . S
C1113 C1115 1.390 . S
C1113 H1117 0.950 . S
H1114 C1110 0.950 . S
C1115 C1113 1.390 . S
C1115 C1116 1.387 . S
C1115 H1118 0.950 . S
C1116 C1115 1.387 . S
C1116 C1119 1.387 . S
H1117 C1113 0.950 . S
H1118 C1115 0.950 . S
C1119 C1110 1.390 . S
C1119 H1112 0.950 . S
C1119 C1116 1.387 . S
C641 C25 1.690 . S
C646 C4 1.690 . S
C651 C44 1.570 1_556 S
C656 C65 1.570 . S
C661 C84 1.559 . S
C666 C105 1.559 . S
C671 C145 1.460 . S
C676 C124 1.460 . S
C681 C185 1.520 . S
C686 C164 1.520 . S
C691 C225 1.545 . S
C696 C204 1.545 . S
C701 C244 1.442 . S
C706 C265 1.442 . S
C711 C284 1.564 . S
C716 C305 1.564 . S
C721 C324 1.690 . S
C726 C345 1.690 . S
C731 C364 1.567 . S
C736 C385 1.567 1_554 S
C741 C404 1.559 . S
C746 C425 1.559 . S
C751 C444 1.460 . S
C756 C465 1.460 . S
C761 C484 1.520 . S
C766 C505 1.520 . S
C771 C545 1.544 . S
C776 C524 1.544 . S
C781 C585 1.443 . S
C786 C564 1.443 . S
C791 C625 1.561 . S
C796 C604 1.561 . S
C801 C23 1.565 . S
C806 C460 1.668 . S
C811 C71 1.782 . S
C816 C620 1.805 . S
C821 C111 1.729 . S
C826 C362 1.711 . S
C831 C143 1.759 . S
C836 C540 1.842 . S
C841 C183 1.595 . S
C846 C522 1.641 . S
C851 C442 1.759 . S
C856 C231 1.842 . S
C861 C271 1.720 . S
C866 C602 1.661 . S
C871 C311 1.803 . S
C876 C380 1.785 . S
C881 C151 1.669 . S
C886 C322 1.564 . S
C891 C63 1.713 . S
C896 C420 1.727 . S
C901 C482 1.595 . S
C906 C223 1.641 . S
C911 C303 1.661 . S
C916 C580 1.719 . S
C921 C340 1.772 . S
C926 C191 1.784 . S
C931 C263 1.686 . S
C936 C402 1.699 . S
C941 C103 1.700 . S
C946 C562 1.685 . S
C951 C31 1.772 . S
C956 C500 1.784 . S
C961 C2 1.599 . S
C966 C162 1.599 . S
C971 C60 1.811 . S
C976 C220 1.825 . S
C981 C100 1.979 . S
C986 C260 1.978 . S
C991 C122 1.927 . S
C996 C300 1.893 . S
C1001 C503 1.599 . S
C1006 C343 1.599 . S
C1011 C551 1.824 . S
C1016 C391 1.810 . S
C1021 C431 1.977 . S
C1026 C591 1.977 . S
C1031 C631 1.895 . S
C1036 C463 1.928 . S
C1041 C42 1.723 . S
C1046 C282 1.723 . S
C1051 C180 2.005 . S
C1056 C82 2.050 . S
C1061 C202 1.904 . S
C1066 C140 1.881 . S
C1071 C20 1.744 . S
C1076 C242 1.777 . S
C1081 C623 1.723 . S
C1086 C383 1.723 . S
C1091 C511 2.003 . S
C1096 C423 2.049 . S
C1101 C543 1.904 . S
C1106 C471 1.882 . S
C1111 C583 1.776 . S
C1116 C351 1.742 . S
