# Generated by pormake.
# Topology vmg, (6)-cn, num edge types: 1
# Building blocks:
#     Node 0, Type 0, BuildingBlock: VOLQOD_clean_sbu_1, # of connection points: 6
#     Node 1, Type 0, BuildingBlock: VOLQOD_clean_sbu_1, # of connection points: 6
#     Node 2, Type 0, BuildingBlock: VOLQOD_clean_sbu_1, # of connection points: 6
#     Node 3, Type 0, BuildingBlock: VOLQOD_clean_sbu_1, # of connection points: 6
#     Node 4, Type 0, BuildingBlock: VOLQOD_clean_sbu_1, # of connection points: 6
#     Node 5, Type 0, BuildingBlock: VOLQOD_clean_sbu_1, # of connection points: 6
#     Node 6, Type 0, BuildingBlock: VOLQOD_clean_sbu_1, # of connection points: 6
#     Node 7, Type 0, BuildingBlock: VOLQOD_clean_sbu_1, # of connection points: 6
#     Edge 8, Type (0, 0), BuildingBlock: XUDNAN_clean_linker_2, # of connection points: 2
#     Edge 9, Type (0, 0), BuildingBlock: XUDNAN_clean_linker_2, # of connection points: 2
#     Edge 10, Type (0, 0), BuildingBlock: XUDNAN_clean_linker_2, # of connection points: 2
#     Edge 11, Type (0, 0), BuildingBlock: XUDNAN_clean_linker_2, # of connection points: 2
#     Edge 12, Type (0, 0), BuildingBlock: XUDNAN_clean_linker_2, # of connection points: 2
#     Edge 13, Type (0, 0), BuildingBlock: XUDNAN_clean_linker_2, # of connection points: 2
#     Edge 14, Type (0, 0), BuildingBlock: XUDNAN_clean_linker_2, # of connection points: 2
#     Edge 15, Type (0, 0), BuildingBlock: XUDNAN_clean_linker_2, # of connection points: 2
#     Edge 16, Type (0, 0), BuildingBlock: XUDNAN_clean_linker_2, # of connection points: 2
#     Edge 17, Type (0, 0), BuildingBlock: XUDNAN_clean_linker_2, # of connection points: 2
#     Edge 18, Type (0, 0), BuildingBlock: XUDNAN_clean_linker_2, # of connection points: 2
#     Edge 19, Type (0, 0), BuildingBlock: XUDNAN_clean_linker_2, # of connection points: 2
#     Edge 20, Type (0, 0), BuildingBlock: XUDNAN_clean_linker_2, # of connection points: 2
#     Edge 21, Type (0, 0), BuildingBlock: XUDNAN_clean_linker_2, # of connection points: 2
#     Edge 22, Type (0, 0), BuildingBlock: XUDNAN_clean_linker_2, # of connection points: 2
#     Edge 23, Type (0, 0), BuildingBlock: XUDNAN_clean_linker_2, # of connection points: 2
#     Edge 24, Type (0, 0), BuildingBlock: XUDNAN_clean_linker_2, # of connection points: 2
#     Edge 25, Type (0, 0), BuildingBlock: XUDNAN_clean_linker_2, # of connection points: 2
#     Edge 26, Type (0, 0), BuildingBlock: XUDNAN_clean_linker_2, # of connection points: 2
#     Edge 27, Type (0, 0), BuildingBlock: XUDNAN_clean_linker_2, # of connection points: 2
#     Edge 28, Type (0, 0), BuildingBlock: XUDNAN_clean_linker_2, # of connection points: 2
#     Edge 29, Type (0, 0), BuildingBlock: XUDNAN_clean_linker_2, # of connection points: 2
#     Edge 30, Type (0, 0), BuildingBlock: XUDNAN_clean_linker_2, # of connection points: 2
#     Edge 31, Type (0, 0), BuildingBlock: XUDNAN_clean_linker_2, # of connection points: 2
# Relax obj value: 0.364
# Max RMSD: 0.272
# Mean RMSD: 0.272
data_MOF--net-vmg--node1-VOLQOD_clean_sbu_1--edge1-XUDNAN_clean_linker_2
_symmetry_space_group_name_H-M    P1
_symmetry_Int_Tables_number       1
_symmetry_cell_setting            triclinic
loop_
_symmetry_equiv_pos_as_xyz
'x, y, z'
_cell_length_a     28.624645
_cell_length_b     47.397563
_cell_length_c     27.723391
_cell_angle_alpha  90.095679
_cell_angle_beta   97.130004
_cell_angle_gamma 89.837904
loop_
_atom_site_label
_atom_site_type_symbol
_atom_site_fract_x
_atom_site_fract_y
_atom_site_fract_z
_atom_type_partial_charge
O0 O 0.15298 0.44805 0.13232 0.0
Zn1 Zn 0.22281 0.44314 0.14564 0.0
O2 O 0.23691 0.40418 0.138 0.0
Zn3 Zn 0.25262 0.38689 0.20116 0.0
Zn4 Zn 0.18305 0.3864 0.10186 0.0
Zn5 Zn 0.28784 0.40173 0.0995 0.0
O6 O 0.31741 0.36884 0.20303 0.0
O7 O 0.34652 0.39087 0.14189 0.0
O8 O 0.24771 0.45726 0.21304 0.0
O9 O 0.25918 0.41686 0.25375 0.0
O10 O 0.1999 0.36033 0.21595 0.0
O11 O 0.14984 0.36469 0.14837 0.0
O12 O 0.20268 0.35786 0.05342 0.0
O13 O 0.24707 0.46584 0.09279 0.0
O14 O 0.27788 0.36925 0.05529 0.0
O15 O 0.29153 0.43598 0.0568 0.0
C16 C 0.12538 0.438 0.09681 0.0
C17 C 0.35153 0.37474 0.17904 0.0
C18 C 0.16005 0.35521 0.19128 0.0
C19 C 0.25839 0.44373 0.25266 0.0
C20 C 0.24322 0.35365 0.04017 0.0
C21 C 0.27203 0.46006 0.05906 0.0
O22 O 0.13623 0.41599 0.07392 0.0
O23 O 0.83596 0.449 0.37019 0.0
Zn24 Zn 0.77224 0.43195 0.35147 0.0
O25 O 0.77777 0.39193 0.36329 0.0
Zn26 Zn 0.77096 0.37057 0.30385 0.0
Zn27 Zn 0.83579 0.38304 0.40253 0.0
Zn28 Zn 0.72928 0.38137 0.40047 0.0
O29 O 0.71003 0.34824 0.29802 0.0
O30 O 0.67363 0.36915 0.35511 0.0
O31 O 0.75024 0.44028 0.27935 0.0
O32 O 0.75998 0.39763 0.24848 0.0
O33 O 0.83092 0.34818 0.29557 0.0
O34 O 0.87663 0.36207 0.36211 0.0
O35 O 0.82693 0.35506 0.45522 0.0
O36 O 0.7333 0.45019 0.4001 0.0
O37 O 0.74999 0.34801 0.4404 0.0
O38 O 0.7163 0.41336 0.44433 0.0
C39 C 0.86894 0.44252 0.40365 0.0
C40 C 0.67272 0.35346 0.31757 0.0
C41 C 0.87066 0.34845 0.32231 0.0
C42 C 0.7501 0.42372 0.2428 0.0
C43 C 0.79032 0.34092 0.46127 0.0
C44 C 0.71831 0.43991 0.43791 0.0
O45 O 0.87043 0.41852 0.42464 0.0
O46 O 0.84342 0.53333 0.88739 0.0
Zn47 Zn 0.77634 0.54121 0.85552 0.0
O48 O 0.76304 0.58112 0.86276 0.0
Zn49 Zn 0.74945 0.60049 0.80239 0.0
Zn50 Zn 0.81491 0.59978 0.89881 0.0
Zn51 Zn 0.71046 0.58531 0.89812 0.0
O52 O 0.68692 0.62075 0.79985 0.0
O53 O 0.6531 0.59485 0.85275 0.0
O54 O 0.7622 0.52946 0.78295 0.0
O55 O 0.74185 0.5713 0.7504 0.0
O56 O 0.80394 0.62547 0.78817 0.0
O57 O 0.8551 0.61756 0.8537 0.0
O58 O 0.79325 0.63113 0.94021 0.0
O59 O 0.7386 0.51823 0.89935 0.0
O60 O 0.71871 0.61898 0.94073 0.0
O61 O 0.70337 0.55128 0.93907 0.0
C62 C 0.86407 0.54569 0.92524 0.0
C63 C 0.65053 0.61323 0.81897 0.0
C64 C 0.84504 0.62812 0.81153 0.0
C65 C 0.74781 0.54483 0.74601 0.0
C66 C 0.75274 0.63565 0.95316 0.0
C67 C 0.71535 0.52569 0.93376 0.0
O68 O 0.85273 0.57057 0.93706 0.0
O69 O 0.14473 0.54855 0.59818 0.0
Zn70 Zn 0.21041 0.5556 0.63276 0.0
O71 O 0.22217 0.59617 0.63045 0.0
Zn72 Zn 0.22715 0.61386 0.69331 0.0
Zn73 Zn 0.17304 0.61503 0.58908 0.0
Zn74 Zn 0.27964 0.60209 0.60395 0.0
O75 O 0.28974 0.63381 0.70941 0.0
O76 O 0.33042 0.61292 0.65558 0.0
O77 O 0.21868 0.54153 0.70456 0.0
O78 O 0.22718 0.58333 0.7413 0.0
O79 O 0.16977 0.63773 0.70228 0.0
O80 O 0.12918 0.63427 0.62898 0.0
O81 O 0.19829 0.64532 0.54861 0.0
O82 O 0.25113 0.53454 0.58841 0.0
O83 O 0.27443 0.6354 0.56074 0.0
O84 O 0.29586 0.56891 0.56518 0.0
C85 C 0.12292 0.56153 0.56165 0.0
C86 C 0.32837 0.62852 0.69266 0.0
C87 C 0.1327 0.64257 0.6729 0.0
C88 C 0.22412 0.55663 0.74326 0.0
C89 C 0.24057 0.65075 0.54209 0.0
C90 C 0.28175 0.54345 0.56227 0.0
O91 O 0.13463 0.58629 0.54992 0.0
O92 O 0.66551 0.94838 0.10095 0.0
Zn93 Zn 0.73365 0.936 0.12039 0.0
O94 O 0.73537 0.89497 0.12094 0.0
Zn95 Zn 0.74635 0.87879 0.18468 0.0
Zn96 Zn 0.67679 0.88164 0.09029 0.0
Zn97 Zn 0.78239 0.88064 0.08458 0.0
O98 O 0.80439 0.85347 0.19141 0.0
O99 O 0.83904 0.87042 0.13003 0.0
O100 O 0.76008 0.95117 0.18872 0.0
O101 O 0.76507 0.91054 0.22936 0.0
O102 O 0.68632 0.86187 0.20622 0.0
O103 O 0.63664 0.87114 0.14022 0.0
O104 O 0.6837 0.84673 0.05174 0.0
O105 O 0.76856 0.94969 0.06462 0.0
O106 O 0.7609 0.84447 0.05105 0.0
O107 O 0.79649 0.90978 0.03649 0.0
C108 C 0.63538 0.93676 0.06918 0.0
C109 C 0.84086 0.85654 0.16955 0.0
C110 C 0.64448 0.86274 0.18392 0.0
C111 C 0.7702 0.93718 0.2282 0.0
C112 C 0.72004 0.83391 0.04089 0.0
C113 C 0.78954 0.93634 0.03333 0.0
O114 O 0.64153 0.91199 0.0533 0.0
O115 O 0.31964 0.9662 0.41257 0.0
Zn116 Zn 0.25504 0.95142 0.38639 0.0
O117 O 0.2564 0.91072 0.3804 0.0
Zn118 Zn 0.25043 0.89874 0.31297 0.0
Zn119 Zn 0.3142 0.89778 0.41504 0.0
Zn120 Zn 0.20776 0.89452 0.41323 0.0
O121 O 0.19164 0.87405 0.29885 0.0
O122 O 0.15564 0.88174 0.36477 0.0
O123 O 0.23256 0.96927 0.32101 0.0
O124 O 0.23768 0.9331 0.27048 0.0
O125 O 0.31201 0.87999 0.29717 0.0
O126 O 0.35653 0.88517 0.36836 0.0
O127 O 0.30701 0.86318 0.454 0.0
O128 O 0.21564 0.96242 0.43941 0.0
O129 O 0.22965 0.85886 0.44697 0.0
O130 O 0.18779 0.9216 0.46268 0.0
C131 C 0.34785 0.95464 0.44601 0.0
C132 C 0.15605 0.87154 0.32228 0.0
C133 C 0.35148 0.87748 0.3241 0.0
C134 C 0.22956 0.95911 0.27801 0.0
C135 C 0.27057 0.84939 0.46114 0.0
C136 C 0.19353 0.94811 0.46825 0.0
O137 O 0.34563 0.92846 0.45549 0.0
O138 O 0.32657 0.03918 0.91103 0.0
Zn139 Zn 0.26397 0.05563 0.88604 0.0
O140 O 0.27144 0.09588 0.8798 0.0
Zn141 Zn 0.26133 0.1076 0.81222 0.0
Zn142 Zn 0.33329 0.10753 0.90878 0.0
Zn143 Zn 0.22607 0.11347 0.91532 0.0
O144 O 0.20223 0.13183 0.79999 0.0
O145 O 0.17173 0.12659 0.86964 0.0
O146 O 0.23869 0.03778 0.8212 0.0
O147 O 0.24573 0.07341 0.77048 0.0
O148 O 0.32083 0.12526 0.79073 0.0
O149 O 0.37193 0.11732 0.85644 0.0
O150 O 0.33003 0.14375 0.94723 0.0
O151 O 0.22499 0.04588 0.93994 0.0
O152 O 0.25285 0.14798 0.94711 0.0
O153 O 0.20606 0.088 0.96655 0.0
C154 C 0.36188 0.04903 0.9384 0.0
C155 C 0.16863 0.13512 0.82585 0.0
C156 C 0.36292 0.1253 0.8125 0.0
C157 C 0.23569 0.04776 0.77815 0.0
C158 C 0.29425 0.15751 0.95757 0.0
C159 C 0.20719 0.06127 0.97075 0.0
O160 O 0.36713 0.07546 0.94604 0.0
O161 O 0.66743 0.039 0.60095 0.0
Zn162 Zn 0.73598 0.04546 0.61799 0.0
O163 O 0.74357 0.08543 0.61921 0.0
Zn164 Zn 0.75111 0.09898 0.68559 0.0
Zn165 Zn 0.69069 0.10373 0.58117 0.0
Zn166 Zn 0.79862 0.0928 0.5896 0.0
O167 O 0.81216 0.12112 0.69698 0.0
O168 O 0.85181 0.10181 0.64075 0.0
O169 O 0.75834 0.02838 0.68377 0.0
O170 O 0.76007 0.06604 0.73194 0.0
O171 O 0.69243 0.12059 0.70038 0.0
O172 O 0.65264 0.12329 0.62648 0.0
O173 O 0.71188 0.13477 0.53777 0.0
O174 O 0.76815 0.02745 0.56459 0.0
O175 O 0.78895 0.12771 0.55222 0.0
O176 O 0.81156 0.06261 0.54176 0.0
C177 C 0.63687 0.05086 0.5701 0.0
C178 C 0.85054 0.1169 0.67878 0.0
C179 C 0.65615 0.12829 0.67183 0.0
C180 C 0.76421 0.03953 0.72601 0.0
C181 C 0.75401 0.14204 0.53315 0.0
C182 C 0.79615 0.0375 0.53675 0.0
O183 O 0.64497 0.07432 0.55002 0.0
H184 H 0.58785 0.35542 0.35304 0.0
H185 H 0.65294 0.33267 0.22503 0.0
H186 H 0.57441 0.32808 0.17811 0.0
H187 H 0.47789 0.31019 0.3234 0.0
H188 H 0.4421 0.33687 0.34738 0.0
H189 H 0.50249 0.33201 0.37348 0.0
H190 H 0.51851 0.38487 0.35881 0.0
H191 H 0.45867 0.38984 0.33204 0.0
H192 H 0.50629 0.39903 0.29821 0.0
H193 H 0.49241 0.33692 0.14136 0.0
H194 H 0.41095 0.35383 0.11896 0.0
H195 H 0.39741 0.3687 0.27088 0.0
C196 C 0.58556 0.34845 0.3156 0.0
C197 C 0.62652 0.34443 0.29269 0.0
C198 C 0.62209 0.33566 0.2435 0.0
C199 C 0.57758 0.333 0.21651 0.0
C200 C 0.53795 0.3386 0.23955 0.0
C201 C 0.54142 0.34552 0.28831 0.0
C202 C 0.49389 0.35348 0.30309 0.0
C203 C 0.47816 0.33184 0.33896 0.0
C204 C 0.49442 0.38358 0.32424 0.0
C205 C 0.4637 0.35177 0.25437 0.0
C206 C 0.48972 0.3428 0.21831 0.0
C207 C 0.47126 0.34306 0.16941 0.0
C208 C 0.42521 0.35291 0.157 0.0
C209 C 0.3981 0.36214 0.19337 0.0
C210 C 0.41719 0.36098 0.24267 0.0
H211 H 0.56626 0.60229 0.85176 0.0
H212 H 0.63005 0.65223 0.7463 0.0
H213 H 0.55162 0.67016 0.71342 0.0
H214 H 0.47352 0.57903 0.77507 0.0
H215 H 0.43097 0.58005 0.81785 0.0
H216 H 0.49234 0.57592 0.83937 0.0
H217 H 0.48859 0.61986 0.89463 0.0
H218 H 0.42697 0.62422 0.87284 0.0
H219 H 0.46734 0.65294 0.86827 0.0
H220 H 0.4675 0.67528 0.68232 0.0
H221 H 0.38372 0.66595 0.65394 0.0
H222 H 0.37361 0.61428 0.78068 0.0
C223 C 0.56395 0.61753 0.82251 0.0
C224 C 0.60429 0.62584 0.80158 0.0
C225 C 0.59965 0.64557 0.76298 0.0
C226 C 0.55528 0.65607 0.74433 0.0
C227 C 0.51608 0.64694 0.76514 0.0
C228 C 0.52002 0.62823 0.8036 0.0
C229 C 0.47221 0.6189 0.81539 0.0
C230 C 0.46698 0.58658 0.81164 0.0
C231 C 0.46326 0.62963 0.86578 0.0
C232 C 0.44077 0.63383 0.77548 0.0
C233 C 0.46675 0.65048 0.74763 0.0
C234 C 0.44653 0.66316 0.70471 0.0
C235 C 0.39906 0.65781 0.68888 0.0
C236 C 0.37256 0.64017 0.71614 0.0
C237 C 0.39303 0.62884 0.76066 0.0
H238 H 0.11438 0.87428 0.22819 0.0
H239 H 0.10037 0.83753 0.36863 0.0
H240 H 0.02092 0.82065 0.33776 0.0
H241 H 0.00695 0.90291 0.21105 0.0
H242 H 0.99459 0.89719 0.14643 0.0
H243 H 0.05445 0.89954 0.17434 0.0
H244 H 0.07269 0.85057 0.1393 0.0
H245 H 0.01266 0.84813 0.11083 0.0
H246 H 0.03721 0.82059 0.1511 0.0
H247 H 0.93894 0.81671 0.29867 0.0
H248 H 0.86048 0.82608 0.25393 0.0
H249 H 0.92646 0.86556 0.13848 0.0
C250 C 0.09527 0.86154 0.25151 0.0
C251 C 0.11337 0.85689 0.30045 0.0
C252 C 0.08695 0.84113 0.33084 0.0
C253 C 0.04195 0.83131 0.31356 0.0
C254 C 0.02391 0.83738 0.26574 0.0
C255 C 0.04988 0.8519 0.23489 0.0
C256 C 0.01978 0.85953 0.18789 0.0
C257 C 0.01889 0.89168 0.1795 0.0
C258 C 0.03659 0.84375 0.14472 0.0
C259 C 0.97241 0.84869 0.19854 0.0
C260 C 0.97575 0.83532 0.24306 0.0
C261 C 0.93594 0.82646 0.26314 0.0
C262 C 0.89147 0.83198 0.23757 0.0
C263 C 0.88726 0.84647 0.19264 0.0
C264 C 0.92842 0.85406 0.17239 0.0
H265 H 0.12691 0.12596 0.73365 0.0
H266 H 0.10588 0.16598 0.86994 0.0
H267 H 0.02185 0.1731 0.84017 0.0
H268 H 0.03217 0.1672 0.65227 0.0
H269 H 0.01614 0.13587 0.61719 0.0
H270 H 0.07636 0.14117 0.64335 0.0
H271 H 0.07532 0.09268 0.68612 0.0
H272 H 0.01509 0.08743 0.6611 0.0
H273 H 0.0314 0.08591 0.72597 0.0
H274 H 0.93899 0.1669 0.80362 0.0
H275 H 0.86362 0.14937 0.76154 0.0
H276 H 0.93812 0.1121 0.64978 0.0
C277 C 0.10504 0.13755 0.75607 0.0
C278 C 0.12271 0.14582 0.80367 0.0
C279 C 0.09285 0.15978 0.83309 0.0
C280 C 0.04515 0.16397 0.81645 0.0
C281 C 0.02801 0.15408 0.77033 0.0
C282 C 0.05715 0.14147 0.74021 0.0
C283 C 0.02895 0.12876 0.6957 0.0
C284 C 0.039 0.14418 0.64938 0.0
C285 C 0.03825 0.09682 0.69208 0.0
C286 C 0.97949 0.13472 0.70695 0.0
C287 C 0.97965 0.14991 0.74953 0.0
C288 C 0.9383 0.1556 0.76959 0.0
C289 C 0.89569 0.14538 0.74561 0.0
C290 C 0.8949 0.12936 0.70235 0.0
C291 C 0.93738 0.12448 0.68255 0.0
H292 H 0.19256 0.30453 0.03352 0.0
H293 H 0.31917 0.34318 0.99245 0.0
H294 H 0.34799 0.29651 0.97018 0.0
H295 H 0.24622 0.24547 0.08884 0.0
H296 H 0.20035 0.22081 0.06772 0.0
H297 H 0.18622 0.25747 0.07512 0.0
H298 H 0.14863 0.26052 0.98523 0.0
H299 H 0.1611 0.22359 0.97802 0.0
H300 H 0.18205 0.24912 0.9377 0.0
H301 H 0.36708 0.24525 0.96105 0.0
H302 H 0.36822 0.1934 0.95112 0.0
H303 H 0.22955 0.18863 0.99878 0.0
C304 C 0.2255 0.30333 0.01816 0.0
C305 C 0.25359 0.32747 0.01471 0.0
C306 C 0.29703 0.32491 0.99537 0.0
C307 C 0.3139 0.29849 0.98293 0.0
C308 C 0.28672 0.2749 0.98967 0.0
C309 C 0.24293 0.27709 0.00562 0.0
C310 C 0.22137 0.24836 0.01087 0.0
C311 C 0.21307 0.24272 0.06378 0.0
C312 C 0.17559 0.24521 0.97586 0.0
C313 C 0.26014 0.22974 0.99602 0.0
C314 C 0.29768 0.24539 0.98424 0.0
C315 C 0.33771 0.23272 0.96975 0.0
C316 C 0.33833 0.20327 0.96484 0.0
C317 C 0.29899 0.18703 0.97415 0.0
C318 C 0.26018 0.20048 0.9914 0.0
H319 H 0.72124 0.30727 0.49011 0.0
H320 H 0.87103 0.30974 0.47773 0.0
H321 H 0.87586 0.25837 0.49029 0.0
H322 H 0.72927 0.25069 0.58411 0.0
H323 H 0.67393 0.23559 0.55858 0.0
H324 H 0.68368 0.27295 0.55365 0.0
H325 H 0.66272 0.26903 0.46022 0.0
H326 H 0.65464 0.2315 0.46465 0.0
H327 H 0.69579 0.24526 0.42648 0.0
H328 H 0.86263 0.20689 0.49188 0.0
H329 H 0.83685 0.15832 0.50387 0.0
H330 H 0.69604 0.18871 0.51911 0.0
C331 C 0.75535 0.29714 0.49158 0.0
C332 C 0.79573 0.3125 0.48277 0.0
C333 C 0.83969 0.29849 0.48475 0.0
C334 C 0.8427 0.26925 0.49126 0.0
C335 C 0.80164 0.25453 0.49656 0.0
C336 C 0.75912 0.268 0.49855 0.0
C337 C 0.72033 0.24706 0.50459 0.0
C338 C 0.70066 0.25185 0.55313 0.0
C339 C 0.68107 0.2483 0.4614 0.0
C340 C 0.74765 0.21965 0.50475 0.0
C341 C 0.7943 0.22456 0.49934 0.0
C342 C 0.82644 0.20276 0.4971 0.0
C343 C 0.81125 0.17522 0.50355 0.0
C344 C 0.7645 0.16974 0.51292 0.0
C345 C 0.73185 0.19219 0.51174 0.0
H346 H 0.78895 0.79919 0.01262 0.0
H347 H 0.64053 0.80163 0.03176 0.0
H348 H 0.6351 0.75049 0.01714 0.0
H349 H 0.77665 0.7465 0.91534 0.0
H350 H 0.83222 0.72995 0.93634 0.0
H351 H 0.82389 0.76701 0.94691 0.0
H352 H 0.84799 0.75899 0.03913 0.0
H353 H 0.85524 0.72177 0.02896 0.0
H354 H 0.81611 0.73375 0.07093 0.0
H355 H 0.64644 0.69918 0.00643 0.0
H356 H 0.67016 0.65132 0.98528 0.0
H357 H 0.81071 0.68182 0.97025 0.0
C358 C 0.75512 0.78907 0.01295 0.0
C359 C 0.71523 0.80445 0.02356 0.0
C360 C 0.6716 0.79037 0.02364 0.0
C361 C 0.6682 0.76127 0.01579 0.0
C362 C 0.70857 0.7466 0.00743 0.0
C363 C 0.75093 0.76002 0.00478 0.0
C364 C 0.78863 0.73923 0.99406 0.0
C365 C 0.80637 0.74608 0.94526 0.0
C366 C 0.8294 0.7384 0.03577 0.0
C367 C 0.76075 0.71205 0.99132 0.0
C368 C 0.71485 0.71682 0.99985 0.0
C369 C 0.68217 0.69515 0.99927 0.0
C370 C 0.69615 0.66799 0.98747 0.0
C371 C 0.74228 0.66279 0.97583 0.0
C372 C 0.77532 0.68503 0.97922 0.0
H373 H 0.18138 0.69553 0.5174 0.0
H374 H 0.32636 0.66756 0.51953 0.0
H375 H 0.3498 0.71587 0.50119 0.0
H376 H 0.18405 0.74796 0.41842 0.0
H377 H 0.14671 0.77216 0.44626 0.0
H378 H 0.14079 0.73472 0.45463 0.0
H379 H 0.15295 0.74226 0.54798 0.0
H380 H 0.16031 0.7796 0.53994 0.0
H381 H 0.20558 0.75953 0.57581 0.0
H382 H 0.35929 0.76758 0.4921 0.0
H383 H 0.35211 0.81881 0.47834 0.0
H384 H 0.20089 0.81318 0.48097 0.0
C385 C 0.21779 0.69935 0.51256 0.0
C386 C 0.25203 0.67777 0.52008 0.0
C387 C 0.29946 0.68376 0.51401 0.0
C388 C 0.31323 0.71116 0.50384 0.0
C389 C 0.27909 0.73222 0.49934 0.0
C390 C 0.23218 0.7266 0.50228 0.0
C391 C 0.20283 0.75327 0.49707 0.0
C392 C 0.16646 0.75195 0.45137 0.0
C393 C 0.17903 0.75899 0.54294 0.0
C394 C 0.24078 0.77476 0.49158 0.0
C395 C 0.28451 0.76217 0.49332 0.0
C396 C 0.32517 0.77771 0.49006 0.0
C397 C 0.32074 0.80684 0.48272 0.0
C398 C 0.2759 0.82001 0.47842 0.0
C399 C 0.23565 0.80376 0.48411 0.0
H400 H 0.91791 0.49937 0.90614 0.0
H401 H 0.89052 0.55787 0.02028 0.0
H402 H 0.94938 0.53361 0.07763 0.0
H403 H 0.93967 0.43684 0.98405 0.0
H404 H 0.98685 0.424 0.95244 0.0
H405 H 0.93968 0.44442 0.92034 0.0
H406 H 0.00023 0.4799 0.89363 0.0
H407 H 0.04751 0.45952 0.92542 0.0
H408 H 0.04176 0.49646 0.93914 0.0
H409 H 0.01281 0.50554 0.12163 0.0
H410 H 0.08152 0.47597 0.14956 0.0
H411 H 0.07027 0.43524 0.00808 0.0
C412 C 0.92408 0.50684 0.94332 0.0
C413 C 0.89968 0.53054 0.95867 0.0
C414 C 0.90903 0.53991 0.00749 0.0
C415 C 0.94214 0.52615 0.04055 0.0
C416 C 0.96579 0.50306 0.02432 0.0
C417 C 0.95756 0.49346 0.97692 0.0
C418 C 0.99034 0.46921 0.9686 0.0
C419 C 0.96246 0.44201 0.95559 0.0
C420 C 0.02182 0.47674 0.92938 0.0
C421 C 0.01864 0.46715 0.01849 0.0
C422 C 0.00334 0.48671 0.05006 0.0
C423 C 0.02501 0.48996 0.09747 0.0
C424 C 0.0641 0.47312 0.11291 0.0
C425 C 0.08121 0.45331 0.08101 0.0
C426 C 0.05759 0.44995 0.03345 0.0
H427 H 0.09186 0.50693 0.56795 0.0
H428 H 0.06413 0.58499 0.48722 0.0
H429 H 0.9981 0.56235 0.43651 0.0
H430 H 0.06481 0.46007 0.46488 0.0
H431 H 0.03761 0.43387 0.49925 0.0
H432 H 0.08368 0.45593 0.52896 0.0
H433 H 0.02859 0.4721 0.59127 0.0
H434 H 0.98241 0.45004 0.56192 0.0
H435 H 0.97196 0.48719 0.56972 0.0
H436 H 0.93442 0.53212 0.39584 0.0
H437 H 0.87568 0.49592 0.368 0.0
H438 H 0.9445 0.43729 0.47469 0.0
C439 C 0.07193 0.51927 0.53963 0.0
C440 C 0.08319 0.54775 0.53166 0.0
C441 C 0.05628 0.56313 0.49406 0.0
C442 C 0.01871 0.55048 0.46496 0.0
C443 C 0.00859 0.52242 0.47376 0.0
C444 C 0.03433 0.50696 0.51008 0.0
C445 C 0.01556 0.47722 0.51218 0.0
C446 C 0.05262 0.45549 0.50062 0.0
C447 C -0.00139 0.47131 0.56171 0.0
C448 C 0.97476 0.47862 0.47191 0.0
C449 C 0.97164 0.50483 0.45006 0.0
C450 C 0.93649 0.51144 0.41249 0.0
C451 C 0.90329 0.49071 0.39697 0.0
C452 C 0.90542 0.46374 0.41915 0.0
C453 C 0.94192 0.45766 0.4569 0.0
H454 H 0.61518 0.99339 0.05492 0.0
H455 H 0.55227 0.91 0.04992 0.0
H456 H 0.47485 0.93057 0.02175 0.0
H457 H 0.51354 0.03183 0.09315 0.0
H458 H 0.52101 0.06184 0.055 0.0
H459 H 0.57141 0.04114 0.07925 0.0
H460 H 0.59273 0.03308 0.99209 0.0
H461 H 0.54241 0.0537 0.96761 0.0
H462 H 0.54943 0.01814 0.94647 0.0
H463 H 0.40634 0.95851 0.9895 0.0
H464 H 0.34846 0.99318 0.95325 0.0
H465 H 0.45367 0.05934 0.97718 0.0
C466 C 0.58487 0.97966 0.04848 0.0
C467 C 0.58953 0.95017 0.05433 0.0
C468 C 0.54941 0.93265 0.04507 0.0
C469 C 0.50525 0.94411 0.02941 0.0
C470 C 0.50179 0.97313 0.02302 0.0
C471 C 0.54028 0.99078 0.03211 0.0
C472 C 0.52677 0.02104 0.01909 0.0
C473 C 0.53358 0.04008 0.06433 0.0
C474 C 0.55448 0.03213 0.97893 0.0
C475 C 0.47499 0.01737 1.00062 0.0
C476 C 0.46149 0.98955 0.00371 0.0
C477 C 0.41622 0.98044 0.98715 0.0
C478 C 0.38369 0.00028 0.96638 0.0
C479 C 0.39661 0.02892 0.96234 0.0
C480 C 0.44274 0.03762 0.98023 0.0
H481 H 0.39857 -0.00097 0.41606 0.0
H482 H 0.37949 0.94714 0.54091 0.0
H483 H 0.44661 0.97062 0.58854 0.0
H484 H 0.51975 0.9949 0.42975 0.0
H485 H 0.53078 0.03055 0.41176 0.0
H486 H 0.4762 0.01364 0.38929 0.0
H487 H 0.42936 0.05446 0.42309 0.0
H488 H 0.48389 0.07172 0.44529 0.0
H489 H 0.44148 0.06405 0.48636 0.0
H490 H 0.52014 0.99376 0.61871 0.0
H491 H 0.59693 0.01724 0.63203 0.0
H492 H 0.57119 0.05504 0.4885 0.0
C493 C 0.40781 0.99334 0.45387 0.0
C494 C 0.38401 0.97145 0.47509 0.0
C495 C 0.39754 0.96387 0.52415 0.0
C496 C 0.43536 0.97718 0.55154 0.0
C497 C 0.45924 -0.00201 0.52925 0.0
C498 C 0.44604 0.00628 0.48171 0.0
C499 C 0.48093 0.0272 0.46544 0.0
C500 C 0.50322 0.01588 0.42147 0.0
C501 C 0.45751 0.05608 0.4544 0.0
C502 C 0.51657 0.02842 0.51066 0.0
C503 C 0.50279 0.01162 0.54706 0.0
C504 C 0.53106 0.00739 0.59091 0.0
C505 C 0.57481 0.02061 0.59789 0.0
C506 C 0.58995 0.03789 0.56122 0.0
C507 C 0.56015 0.04218 0.51728 0.0
H508 H 0.06802 0.34959 0.15326 0.0
H509 H 0.16535 0.3309 0.28214 0.0
H510 H 0.09845 0.31621 0.32457 0.0
H511 H 0.98893 0.38326 0.21092 0.0
H512 H 0.93693 0.37139 0.17304 0.0
H513 H 0.99213 0.37286 0.14882 0.0
H514 H 0.98489 0.31994 0.12553 0.0
H515 H 0.92926 0.31831 0.14964 0.0
H516 H 0.976 0.2942 0.17128 0.0
H517 H 0.02188 0.3131 0.35755 0.0
H518 H 0.94292 0.3237 0.37958 0.0
H519 H 0.89463 0.34535 0.22989 0.0
C520 C 0.07565 0.34137 0.18981 0.0
C521 C 0.12213 0.34121 0.21425 0.0
C522 C 0.1302 0.331 0.2625 0.0
C523 C 0.09236 0.32249 0.2868 0.0
C524 C 0.04677 0.32414 0.26225 0.0
C525 C 0.03834 0.33319 0.21462 0.0
C526 C 0.98617 0.33745 0.19878 0.0
C527 C 0.97546 0.36804 0.18195 0.0
C528 C 0.96801 0.3162 0.15895 0.0
C529 C 0.96661 0.33111 0.24584 0.0
C530 C 0.00204 0.32267 0.2816 0.0
C531 C 0.99373 0.31895 0.3296 0.0
C532 C 0.94877 0.32508 0.34178 0.0
C533 C 0.91266 0.335 0.30623 0.0
C534 C 0.9212 0.33693 0.25735 0.0
H535 H 0.10965 0.64003 0.76546 0.0
H536 H 0.05815 0.66875 0.62013 0.0
H537 H 0.97947 0.67654 0.64523 0.0
H538 H 0.0176 0.59953 0.77959 0.0
H539 H 0.01498 0.6062 0.84323 0.0
H540 H 0.06971 0.61013 0.81866 0.0
H541 H 0.07682 0.66168 0.84984 0.0
H542 H 0.0222 0.65781 0.87529 0.0
H543 H 0.02915 0.68613 0.83347 0.0
H544 H 0.90383 0.67134 0.68013 0.0
H545 H 0.83821 0.65529 0.72323 0.0
H546 H 0.93866 0.62994 0.84592 0.0
C547 C 0.08243 0.6493 0.73966 0.0
C548 C 0.09009 0.65406 0.69103 0.0
C549 C 0.0531 0.66516 0.65771 0.0
C550 C 0.00828 0.66972 0.67167 0.0
C551 C 0.00107 0.66326 0.71919 0.0
C552 C 0.03734 0.65369 0.75296 0.0
C553 C 0.01905 0.64444 0.79937 0.0
C554 C 0.03103 0.61324 0.81082 0.0
C555 C 0.03792 0.66367 0.84202 0.0
C556 C 0.9667 0.64874 0.78538 0.0
C557 C 0.95703 0.66015 0.73939 0.0
C558 C 0.91096 0.66311 0.7167 0.0
C559 C 0.87389 0.65381 0.74136 0.0
C560 C 0.88316 0.6415 0.78809 0.0
C561 C 0.9302 0.63968 0.81061 0.0
H562 H 0.37888 0.88278 0.23254 0.0
H563 H 0.41983 0.84626 0.37491 0.0
H564 H 0.49699 0.83317 0.35103 0.0
H565 H 0.44624 0.83137 0.1626 0.0
H566 H 0.46225 0.85877 0.12277 0.0
H567 H 0.40716 0.86085 0.14785 0.0
H568 H 0.4302 0.91031 0.18287 0.0
H569 H 0.48533 0.90825 0.15828 0.0
H570 H 0.48474 0.91453 0.22235 0.0
H571 H 0.57367 0.8309 0.31725 0.0
H572 H 0.64305 0.83749 0.27331 0.0
H573 H 0.5524 0.87451 0.1525 0.0
C574 C 0.40349 0.8711 0.25788 0.0
C575 C 0.39336 0.8654 0.30541 0.0
C576 C 0.42695 0.85083 0.33824 0.0
C577 C 0.47086 0.84321 0.32501 0.0
C578 C 0.48071 0.85014 0.27865 0.0
C579 C 0.44785 0.86343 0.24528 0.0
C580 C 0.4691 0.87083 0.19955 0.0
C581 C 0.44474 0.85447 0.15559 0.0
C582 C 0.46724 0.90287 0.19026 0.0
C583 C 0.51922 0.86063 0.21336 0.0
C584 C 0.52515 0.8485 0.2589 0.0
C585 C 0.56933 0.83978 0.28103 0.0
C586 C 0.60857 0.84369 0.25596 0.0
C587 C 0.60324 0.85621 0.20931 0.0
C588 C 0.55773 0.86434 0.18772 0.0
H589 H 0.62997 0.12057 0.76287 0.0
H590 H 0.58508 0.15925 0.62303 0.0
H591 H 0.5062 0.16747 0.64725 0.0
H592 H 0.53043 0.08289 0.76943 0.0
H593 H 0.52817 0.0869 0.83377 0.0
H594 H 0.58368 0.08906 0.81004 0.0
H595 H 0.59865 0.1385 0.84877 0.0
H596 H 0.5434 0.1363 0.87346 0.0
H597 H 0.55505 0.16589 0.83601 0.0
H598 H 0.42872 0.16376 0.68055 0.0
H599 H 0.36067 0.15209 0.72392 0.0
H600 H 0.45639 0.11661 0.84222 0.0
C601 C 0.6042 0.1319 0.73823 0.0
C602 C 0.61382 0.13944 0.69122 0.0
C603 C 0.57858 0.15339 0.65936 0.0
C604 C 0.53359 0.15816 0.67276 0.0
C605 C 0.5244 0.1491 0.71837 0.0
C606 C 0.55896 0.13674 0.75102 0.0
C607 C 0.53878 0.1265 0.79583 0.0
C608 C 0.54567 0.09445 0.80262 0.0
C609 C 0.56024 0.14278 0.8412 0.0
C610 C 0.48734 0.13402 0.78234 0.0
C611 C 0.47971 0.14724 0.73775 0.0
C612 C 0.43438 0.154 0.71607 0.0
C613 C 0.39591 0.14715 0.74078 0.0
C614 C 0.40308 0.13369 0.78666 0.0
C615 C 0.44957 0.12736 0.8076 0.0
H616 H 0.29339 0.44949 0.9661 0.0
H617 H 0.24576 0.51534 0.05786 0.0
H618 H 0.22778 0.54584 0.98631 0.0
H619 H 0.34582 0.49794 0.88175 0.0
H620 H 0.32746 0.47623 0.82942 0.0
H621 H 0.3408 0.46028 0.88852 0.0
H622 H 0.25822 0.43729 0.87858 0.0
H623 H 0.24418 0.45366 0.81997 0.0
H624 H 0.20663 0.45933 0.86671 0.0
H625 H 0.20733 0.56723 0.90628 0.0
H626 H 0.1955 0.58225 0.82121 0.0
H627 H 0.25739 0.50383 0.77768 0.0
C628 C 0.28053 0.47064 0.97134 0.0
C629 C 0.27113 0.48003 0.01782 0.0
C630 C 0.25338 0.50766 0.02285 0.0
C631 C 0.24282 0.52512 0.98233 0.0
C632 C 0.25048 0.51479 0.93694 0.0
C633 C 0.26977 0.48849 0.93105 0.0
C634 C 0.27323 0.48259 0.87759 0.0
C635 C 0.3249 0.47905 0.8688 0.0
C636 C 0.24381 0.45668 0.85968 0.0
C637 C 0.25206 0.50954 0.85447 0.0
C638 C 0.23914 0.52761 0.88977 0.0
C639 C 0.21798 0.55351 0.87835 0.0
C640 C 0.21133 0.56178 0.82974 0.0
C641 C 0.22595 0.54437 0.79266 0.0
C642 C 0.24572 0.51754 0.8051 0.0
H643 H 0.72793 0.42742 0.53509 0.0
H644 H 0.69459 0.49593 0.43281 0.0
H645 H 0.69379 0.52922 0.50141 0.0
H646 H 0.66015 0.45351 0.63193 0.0
H647 H 0.70466 0.44225 0.67982 0.0
H648 H 0.69632 0.42319 0.6231 0.0
H649 H 0.7844 0.43019 0.61367 0.0
H650 H 0.79295 0.44956 0.66997 0.0
H651 H 0.8083 0.46538 0.615 0.0
H652 H 0.70278 0.5554 0.57951 0.0
H653 H 0.72028 0.57366 0.66236 0.0
H654 H 0.75128 0.48865 0.71606 0.0
C655 C 0.71898 0.44928 0.52712 0.0
C656 C 0.71048 0.45904 0.4785 0.0
C657 C 0.70063 0.48797 0.46966 0.0
C658 C 0.70016 0.507 0.50841 0.0
C659 C 0.70999 0.49682 0.55579 0.0
C660 C 0.7191 0.46865 0.56541 0.0
C661 C 0.73239 0.46368 0.61956 0.0
C662 C 0.69621 0.44452 0.6398 0.0
C663 C 0.78248 0.45148 0.63015 0.0
C664 C 0.72998 0.49357 0.63885 0.0
C665 C 0.71654 0.51219 0.60129 0.0
C666 C 0.71295 0.541 0.60924 0.0
C667 C 0.72318 0.55114 0.65674 0.0
C668 C 0.73724 0.53265 0.69625 0.0
C669 C 0.74057 0.50337 0.68693 0.0
H670 H 0.73196 0.47865 0.2108 0.0
H671 H 0.74181 0.39238 0.15956 0.0
H672 H 0.72584 0.40868 0.07519 0.0
H673 H 0.6376 0.5012 0.11547 0.0
H674 H 0.66237 0.53583 0.11035 0.0
H675 H 0.6711 0.51738 0.16758 0.0
H676 H 0.76148 0.52261 0.16998 0.0
H677 H 0.75296 0.5412 0.11302 0.0
H678 H 0.78968 0.51014 0.11929 0.0
H679 H 0.71643 0.43422 0.99612 0.0
H680 H 0.71381 0.46793 0.92785 0.0
H681 H 0.70655 0.53742 0.0288 0.0
C682 C 0.73015 0.46317 0.18188 0.0
C683 C 0.73823 0.43421 0.1922 0.0
C684 C 0.7359 0.4147 0.15301 0.0
C685 C 0.72661 0.4237 0.10472 0.0
C686 C 0.71929 0.45231 0.09578 0.0
C687 C 0.72071 0.47179 0.13314 0.0
C688 C 0.7139 0.50148 0.11315 0.0
C689 C 0.66853 0.51475 0.12749 0.0
C690 C 0.75708 0.51993 0.12985 0.0
C691 C 0.70955 0.49559 0.05893 0.0
C692 C 0.71254 0.46706 0.04972 0.0
C693 C 0.71316 0.4566 0.00272 0.0
C694 C 0.71163 0.47587 0.96416 0.0
C695 C 0.70912 0.50524 0.97279 0.0
C696 C 0.70708 0.51506 0.02077 0.0
H697 H 0.22568 0.43653 0.3406 0.0
H698 H 0.32133 0.48658 0.26657 0.0
H699 H 0.34625 0.51257 0.3429 0.0
H700 H 0.18613 0.49419 0.40727 0.0
H701 H 0.17956 0.47385 0.46088 0.0
H702 H 0.17379 0.45695 0.40231 0.0
H703 H 0.23864 0.42107 0.43473 0.0
H704 H 0.24504 0.43821 0.49327 0.0
H705 H 0.2955 0.43374 0.46101 0.0
H706 H 0.35943 0.53367 0.4257 0.0
H707 H 0.35044 0.55473 0.50509 0.0
H708 H 0.24129 0.49384 0.52487 0.0
C709 C 0.25228 0.45275 0.34086 0.0
C710 C 0.27216 0.45945 0.29812 0.0
C711 C 0.30592 0.4812 0.29912 0.0
C712 C 0.32053 0.49585 0.34234 0.0
C713 C 0.30041 0.48876 0.384 0.0
C714 C 0.26629 0.46815 0.38346 0.0
C715 C 0.24654 0.46695 0.4318 0.0
C716 C 0.19337 0.47338 0.42516 0.0
C717 C 0.25707 0.43828 0.45667 0.0
C718 C 0.27442 0.4904 0.45931 0.0
C719 C 0.30612 0.50213 0.43137 0.0
C720 C 0.33477 0.52467 0.44795 0.0
C721 C 0.32945 0.53643 0.4933 0.0
C722 C 0.29506 0.52605 0.52143 0.0
C723 C 0.26834 0.50207 0.50474 0.0
H724 H 0.76215 0.98955 1.00054 0.0
H725 H 0.83998 0.91537 0.96377 0.0
H726 H 0.84568 0.9351 0.88272 0.0
H727 H 0.694 -0.00305 0.88922 0.0
H728 H 0.69499 0.03495 0.88728 0.0
H729 H 0.7018 0.01703 0.94491 0.0
H730 H 0.78082 0.04278 0.96999 0.0
H731 H 0.77392 0.06115 0.91266 0.0
H732 H 0.82659 0.04096 0.93089 0.0
H733 H 0.8332 0.9592 0.8022 0.0
H734 H 0.81135 0.98923 0.73007 0.0
H735 H 0.74496 0.04892 0.81918 0.0
C736 C 0.78165 0.97784 0.97603 0.0
C737 C 0.8006 0.95087 0.98873 0.0
C738 C 0.82512 0.93606 0.95509 0.0
C739 C 0.82854 0.94707 0.90882 0.0
C740 C 0.8078 0.97311 0.89675 0.0
C741 C 0.78563 0.98861 0.92961 0.0
C742 C 0.76431 0.01543 0.90646 0.0
C743 C 0.7106 0.01611 0.90701 0.0
C744 C 0.78783 0.04163 0.93149 0.0
C745 C 0.77688 0.01212 0.85519 0.0
C746 C 0.80188 0.98752 0.85039 0.0
C747 C 0.81447 0.97882 0.80568 0.0
C748 C 0.80162 -0.00412 0.76487 0.0
C749 C 0.77688 0.02148 0.76915 0.0
C750 C 0.76459 0.02968 0.81502 0.0
H751 H 0.24376 0.05835 0.6826 0.0
H752 H 0.19211 -0.00397 0.77748 0.0
H753 H 0.16568 0.96626 0.70588 0.0
H754 H 0.15214 0.0498 0.57947 0.0
H755 H 0.19291 0.05393 0.53539 0.0
H756 H 0.2038 0.0714 0.59347 0.0
H757 H 0.286 0.04763 0.60935 0.0
H758 H 0.27558 0.03044 0.55116 0.0
H759 H 0.29048 0.00977 0.60542 0.0
H760 H 0.1489 0.94225 0.62408 0.0
H761 H 0.15048 0.92384 0.54103 0.0
H762 H 0.2141 0.00198 0.50046 0.0
C763 C 0.22635 0.03861 0.68842 0.0
C764 C 0.21973 0.02961 0.73571 0.0
C765 C 0.19756 0.00337 0.74164 0.0
C766 C 0.18211 0.98644 0.70114 0.0
C767 C 0.18916 -0.00398 0.65503 0.0
C768 C 0.21112 0.02141 0.6486 0.0
C769 C 0.21797 0.02596 0.5959 0.0
C770 C 0.19003 0.05181 0.57482 0.0
C771 C 0.27062 0.02858 0.59014 0.0
C772 C 0.19729 -0.00113 0.57367 0.0
C773 C 0.18015 0.98207 0.60818 0.0
C774 C 0.16184 0.95534 0.59671 0.0
C775 C 0.16275 0.9451 0.54928 0.0
C776 C 0.1823 0.96144 0.51395 0.0
C777 C 0.1983 0.98905 0.5262 0.0
H778 H 0.23938 0.94823 0.1827 0.0
H779 H 0.191 0.01231 0.27715 0.0
H780 H 0.17063 0.04339 0.20606 0.0
H781 H 0.29462 0.99495 0.10964 0.0
H782 H 0.2794 0.97539 0.05413 0.0
H783 H 0.28556 0.95736 0.11161 0.0
H784 H 0.20108 0.93743 0.09166 0.0
H785 H 0.19453 0.95565 0.03419 0.0
H786 H 0.15243 0.96136 0.0765 0.0
H787 H 0.16001 0.06849 0.12544 0.0
H788 H 0.1661 0.08715 0.04348 0.0
H789 H 0.22242 0.0067 0.00216 0.0
C790 C 0.22386 0.96863 0.18846 0.0
C791 C 0.21649 0.97775 0.23554 0.0
C792 C 0.19694 0.00484 0.24147 0.0
C793 C 0.18497 0.02257 0.20126 0.0
C794 C 0.19282 0.01291 0.15539 0.0
C795 C 0.21211 0.98664 0.14887 0.0
C796 C 0.2205 0.9821 0.09653 0.0
C797 C 0.27313 0.97717 0.09278 0.0
C798 C 0.19032 0.95769 0.07336 0.0
C799 C 0.20379 0.01017 0.07472 0.0
C800 C 0.1873 0.0275 0.10908 0.0
C801 C 0.17243 0.05502 0.09814 0.0
C802 C 0.17595 0.06541 0.05137 0.0
C803 C 0.19457 0.0484 0.01614 0.0
C804 C 0.20736 0.02016 0.02784 0.0
H805 H 0.77708 0.05164 0.4413 0.0
H806 H 0.83496 0.98503 0.53777 0.0
H807 H 0.84474 0.95491 0.46662 0.0
H808 H 0.70729 0.00696 0.36276 0.0
H809 H 0.71356 0.02606 0.30777 0.0
H810 H 0.71907 0.04432 0.36512 0.0
H811 H 0.80154 0.06229 0.35063 0.0
H812 H 0.79626 0.04408 0.29305 0.0
H813 H 0.84608 0.0373 0.33804 0.0
H814 H 0.84264 0.9311 0.38718 0.0
H815 H 0.82183 0.9123 0.30497 0.0
H816 H 0.75909 0.99278 0.25789 0.0
C817 C 0.79319 0.03101 0.4471 0.0
C818 C 0.80657 0.02073 0.49467 0.0
C819 C 0.82544 0.99328 0.50145 0.0
C820 C 0.8312 0.97616 0.46131 0.0
C821 C 0.8171 0.98671 0.41477 0.0
C822 C 0.79802 0.01338 0.40735 0.0
C823 C 0.78011 0.01811 0.354 0.0
C824 C 0.72685 0.02421 0.34703 0.0
C825 C 0.80765 0.04186 0.33267 0.0
C826 C 0.7911 0.98967 0.33273 0.0
C827 C 0.81341 0.97223 0.36848 0.0
C828 C 0.82541 0.94457 0.35886 0.0
C829 C 0.81318 0.93409 0.3119 0.0
C830 C 0.78849 0.951 0.27484 0.0
C831 C 0.77838 0.97945 0.28518 0.0
loop_
_geom_bond_atom_site_label_1
_geom_bond_atom_site_label_2
_geom_bond_distance
_geom_bond_site_symmetry_2
_ccdc_geom_bond_type
O0 Zn1 1.953 . S
O0 C16 1.225 . S
Zn1 O0 1.953 . S
Zn1 O2 1.949 . S
Zn1 O8 1.919 . S
Zn1 O13 1.924 . S
O2 Zn1 1.949 . S
O2 Zn3 1.923 . S
O2 Zn4 1.950 . S
O2 Zn5 1.945 . S
Zn3 O2 1.923 . S
Zn3 O6 1.933 . S
Zn3 O9 1.941 . S
Zn3 O10 1.965 . S
Zn4 O2 1.950 . S
Zn4 O11 1.938 . S
Zn4 O12 1.906 . S
Zn4 O22 1.953 . S
Zn5 O2 1.945 . S
Zn5 O7 1.932 . S
Zn5 O14 1.977 . S
Zn5 O15 1.910 . S
O6 Zn3 1.933 . S
O6 C17 1.226 . S
O7 Zn5 1.932 . S
O7 C17 1.307 . S
O8 Zn1 1.919 . S
O8 C19 1.253 . S
O9 Zn3 1.941 . S
O9 C19 1.283 . S
O10 Zn3 1.965 . S
O10 C18 1.303 . S
O11 Zn4 1.938 . S
O11 C18 1.247 . S
O12 Zn4 1.906 . S
O12 C20 1.304 . S
O13 Zn1 1.924 . S
O13 C21 1.311 . S
O14 Zn5 1.977 . S
O14 C20 1.272 . S
O15 Zn5 1.910 . S
O15 C21 1.231 . S
C16 O0 1.225 . S
C16 O22 1.298 . S
C17 O6 1.226 . S
C17 O7 1.307 . S
C18 O10 1.303 . S
C18 O11 1.247 . S
C19 O8 1.253 . S
C19 O9 1.283 . S
C20 O12 1.304 . S
C20 O14 1.272 . S
C21 O13 1.311 . S
C21 O15 1.231 . S
O22 Zn4 1.953 . S
O22 C16 1.298 . S
O23 Zn24 1.953 . S
O23 C39 1.225 . S
Zn24 O23 1.953 . S
Zn24 O25 1.949 . S
Zn24 O31 1.919 . S
Zn24 O36 1.924 . S
O25 Zn24 1.949 . S
O25 Zn26 1.923 . S
O25 Zn27 1.950 . S
O25 Zn28 1.945 . S
Zn26 O25 1.923 . S
Zn26 O29 1.933 . S
Zn26 O32 1.941 . S
Zn26 O33 1.965 . S
Zn27 O25 1.950 . S
Zn27 O34 1.938 . S
Zn27 O35 1.906 . S
Zn27 O45 1.953 . S
Zn28 O25 1.945 . S
Zn28 O30 1.932 . S
Zn28 O37 1.977 . S
Zn28 O38 1.910 . S
O29 Zn26 1.933 . S
O29 C40 1.226 . S
O30 Zn28 1.932 . S
O30 C40 1.307 . S
O31 Zn24 1.919 . S
O31 C42 1.253 . S
O32 Zn26 1.941 . S
O32 C42 1.283 . S
O33 Zn26 1.965 . S
O33 C41 1.303 . S
O34 Zn27 1.938 . S
O34 C41 1.247 . S
O35 Zn27 1.906 . S
O35 C43 1.304 . S
O36 Zn24 1.924 . S
O36 C44 1.311 . S
O37 Zn28 1.977 . S
O37 C43 1.272 . S
O38 Zn28 1.910 . S
O38 C44 1.231 . S
C39 O23 1.225 . S
C39 O45 1.298 . S
C40 O29 1.226 . S
C40 O30 1.307 . S
C41 O33 1.303 . S
C41 O34 1.247 . S
C42 O31 1.253 . S
C42 O32 1.283 . S
C43 O35 1.304 . S
C43 O37 1.272 . S
C44 O36 1.311 . S
C44 O38 1.231 . S
O45 Zn27 1.953 . S
O45 C39 1.298 . S
O46 Zn47 1.953 . S
O46 C62 1.225 . S
Zn47 O46 1.953 . S
Zn47 O48 1.949 . S
Zn47 O54 1.919 . S
Zn47 O59 1.924 . S
O48 Zn47 1.949 . S
O48 Zn49 1.923 . S
O48 Zn50 1.950 . S
O48 Zn51 1.945 . S
Zn49 O48 1.923 . S
Zn49 O52 1.933 . S
Zn49 O55 1.941 . S
Zn49 O56 1.965 . S
Zn50 O48 1.950 . S
Zn50 O57 1.938 . S
Zn50 O58 1.906 . S
Zn50 O68 1.953 . S
Zn51 O48 1.945 . S
Zn51 O53 1.932 . S
Zn51 O60 1.977 . S
Zn51 O61 1.910 . S
O52 Zn49 1.933 . S
O52 C63 1.226 . S
O53 Zn51 1.932 . S
O53 C63 1.307 . S
O54 Zn47 1.919 . S
O54 C65 1.253 . S
O55 Zn49 1.941 . S
O55 C65 1.283 . S
O56 Zn49 1.965 . S
O56 C64 1.303 . S
O57 Zn50 1.938 . S
O57 C64 1.247 . S
O58 Zn50 1.906 . S
O58 C66 1.304 . S
O59 Zn47 1.924 . S
O59 C67 1.311 . S
O60 Zn51 1.977 . S
O60 C66 1.272 . S
O61 Zn51 1.910 . S
O61 C67 1.231 . S
C62 O46 1.225 . S
C62 O68 1.298 . S
C63 O52 1.226 . S
C63 O53 1.307 . S
C64 O56 1.303 . S
C64 O57 1.247 . S
C65 O54 1.253 . S
C65 O55 1.283 . S
C66 O58 1.304 . S
C66 O60 1.272 . S
C67 O59 1.311 . S
C67 O61 1.231 . S
O68 Zn50 1.953 . S
O68 C62 1.298 . S
O69 Zn70 1.953 . S
O69 C85 1.225 . S
Zn70 O69 1.953 . S
Zn70 O71 1.949 . S
Zn70 O77 1.919 . S
Zn70 O82 1.924 . S
O71 Zn70 1.949 . S
O71 Zn72 1.923 . S
O71 Zn73 1.950 . S
O71 Zn74 1.945 . S
Zn72 O71 1.923 . S
Zn72 O75 1.933 . S
Zn72 O78 1.941 . S
Zn72 O79 1.965 . S
Zn73 O71 1.950 . S
Zn73 O80 1.938 . S
Zn73 O81 1.906 . S
Zn73 O91 1.953 . S
Zn74 O71 1.945 . S
Zn74 O76 1.932 . S
Zn74 O83 1.977 . S
Zn74 O84 1.910 . S
O75 Zn72 1.933 . S
O75 C86 1.226 . S
O76 Zn74 1.932 . S
O76 C86 1.307 . S
O77 Zn70 1.919 . S
O77 C88 1.253 . S
O78 Zn72 1.941 . S
O78 C88 1.283 . S
O79 Zn72 1.965 . S
O79 C87 1.303 . S
O80 Zn73 1.938 . S
O80 C87 1.247 . S
O81 Zn73 1.906 . S
O81 C89 1.304 . S
O82 Zn70 1.924 . S
O82 C90 1.311 . S
O83 Zn74 1.977 . S
O83 C89 1.272 . S
O84 Zn74 1.910 . S
O84 C90 1.231 . S
C85 O69 1.225 . S
C85 O91 1.298 . S
C86 O75 1.226 . S
C86 O76 1.307 . S
C87 O79 1.303 . S
C87 O80 1.247 . S
C88 O77 1.253 . S
C88 O78 1.283 . S
C89 O81 1.304 . S
C89 O83 1.272 . S
C90 O82 1.311 . S
C90 O84 1.231 . S
O91 Zn73 1.953 . S
O91 C85 1.298 . S
O92 Zn93 1.953 . S
O92 C108 1.225 . S
Zn93 O92 1.953 . S
Zn93 O94 1.949 . S
Zn93 O100 1.919 . S
Zn93 O105 1.924 . S
O94 Zn93 1.949 . S
O94 Zn95 1.923 . S
O94 Zn96 1.950 . S
O94 Zn97 1.945 . S
Zn95 O94 1.923 . S
Zn95 O98 1.933 . S
Zn95 O101 1.941 . S
Zn95 O102 1.965 . S
Zn96 O94 1.950 . S
Zn96 O103 1.938 . S
Zn96 O104 1.906 . S
Zn96 O114 1.953 . S
Zn97 O94 1.945 . S
Zn97 O99 1.932 . S
Zn97 O106 1.977 . S
Zn97 O107 1.910 . S
O98 Zn95 1.933 . S
O98 C109 1.226 . S
O99 Zn97 1.932 . S
O99 C109 1.307 . S
O100 Zn93 1.919 . S
O100 C111 1.253 . S
O101 Zn95 1.941 . S
O101 C111 1.283 . S
O102 Zn95 1.965 . S
O102 C110 1.303 . S
O103 Zn96 1.938 . S
O103 C110 1.247 . S
O104 Zn96 1.906 . S
O104 C112 1.304 . S
O105 Zn93 1.924 . S
O105 C113 1.311 . S
O106 Zn97 1.977 . S
O106 C112 1.272 . S
O107 Zn97 1.910 . S
O107 C113 1.231 . S
C108 O92 1.225 . S
C108 O114 1.298 . S
C109 O98 1.226 . S
C109 O99 1.307 . S
C110 O102 1.303 . S
C110 O103 1.247 . S
C111 O100 1.253 . S
C111 O101 1.283 . S
C112 O104 1.304 . S
C112 O106 1.272 . S
C113 O105 1.311 . S
C113 O107 1.231 . S
O114 Zn96 1.953 . S
O114 C108 1.298 . S
O115 Zn116 1.953 . S
O115 C131 1.225 . S
Zn116 O115 1.953 . S
Zn116 O117 1.949 . S
Zn116 O123 1.919 . S
Zn116 O128 1.924 . S
O117 Zn116 1.949 . S
O117 Zn118 1.923 . S
O117 Zn119 1.950 . S
O117 Zn120 1.945 . S
Zn118 O117 1.923 . S
Zn118 O121 1.933 . S
Zn118 O124 1.941 . S
Zn118 O125 1.965 . S
Zn119 O117 1.950 . S
Zn119 O126 1.938 . S
Zn119 O127 1.906 . S
Zn119 O137 1.953 . S
Zn120 O117 1.945 . S
Zn120 O122 1.932 . S
Zn120 O129 1.977 . S
Zn120 O130 1.910 . S
O121 Zn118 1.933 . S
O121 C132 1.226 . S
O122 Zn120 1.932 . S
O122 C132 1.307 . S
O123 Zn116 1.919 . S
O123 C134 1.253 . S
O124 Zn118 1.941 . S
O124 C134 1.283 . S
O125 Zn118 1.965 . S
O125 C133 1.303 . S
O126 Zn119 1.938 . S
O126 C133 1.247 . S
O127 Zn119 1.906 . S
O127 C135 1.304 . S
O128 Zn116 1.924 . S
O128 C136 1.311 . S
O129 Zn120 1.977 . S
O129 C135 1.272 . S
O130 Zn120 1.910 . S
O130 C136 1.231 . S
C131 O115 1.225 . S
C131 O137 1.298 . S
C132 O121 1.226 . S
C132 O122 1.307 . S
C133 O125 1.303 . S
C133 O126 1.247 . S
C134 O123 1.253 . S
C134 O124 1.283 . S
C135 O127 1.304 . S
C135 O129 1.272 . S
C136 O128 1.311 . S
C136 O130 1.231 . S
O137 Zn119 1.953 . S
O137 C131 1.298 . S
O138 Zn139 1.953 . S
O138 C154 1.225 . S
Zn139 O138 1.953 . S
Zn139 O140 1.949 . S
Zn139 O146 1.919 . S
Zn139 O151 1.924 . S
O140 Zn139 1.949 . S
O140 Zn141 1.923 . S
O140 Zn142 1.950 . S
O140 Zn143 1.945 . S
Zn141 O140 1.923 . S
Zn141 O144 1.933 . S
Zn141 O147 1.941 . S
Zn141 O148 1.965 . S
Zn142 O140 1.950 . S
Zn142 O149 1.938 . S
Zn142 O150 1.906 . S
Zn142 O160 1.953 . S
Zn143 O140 1.945 . S
Zn143 O145 1.932 . S
Zn143 O152 1.977 . S
Zn143 O153 1.910 . S
O144 Zn141 1.933 . S
O144 C155 1.226 . S
O145 Zn143 1.932 . S
O145 C155 1.307 . S
O146 Zn139 1.919 . S
O146 C157 1.253 . S
O147 Zn141 1.941 . S
O147 C157 1.283 . S
O148 Zn141 1.965 . S
O148 C156 1.303 . S
O149 Zn142 1.938 . S
O149 C156 1.247 . S
O150 Zn142 1.906 . S
O150 C158 1.304 . S
O151 Zn139 1.924 . S
O151 C159 1.311 . S
O152 Zn143 1.977 . S
O152 C158 1.272 . S
O153 Zn143 1.910 . S
O153 C159 1.231 . S
C154 O138 1.225 . S
C154 O160 1.298 . S
C155 O144 1.226 . S
C155 O145 1.307 . S
C156 O148 1.303 . S
C156 O149 1.247 . S
C157 O146 1.253 . S
C157 O147 1.283 . S
C158 O150 1.304 . S
C158 O152 1.272 . S
C159 O151 1.311 . S
C159 O153 1.231 . S
O160 Zn142 1.953 . S
O160 C154 1.298 . S
O161 Zn162 1.953 . S
O161 C177 1.225 . S
Zn162 O161 1.953 . S
Zn162 O163 1.949 . S
Zn162 O169 1.919 . S
Zn162 O174 1.924 . S
O163 Zn162 1.949 . S
O163 Zn164 1.923 . S
O163 Zn165 1.950 . S
O163 Zn166 1.945 . S
Zn164 O163 1.923 . S
Zn164 O167 1.933 . S
Zn164 O170 1.941 . S
Zn164 O171 1.965 . S
Zn165 O163 1.950 . S
Zn165 O172 1.938 . S
Zn165 O173 1.906 . S
Zn165 O183 1.953 . S
Zn166 O163 1.945 . S
Zn166 O168 1.932 . S
Zn166 O175 1.977 . S
Zn166 O176 1.910 . S
O167 Zn164 1.933 . S
O167 C178 1.226 . S
O168 Zn166 1.932 . S
O168 C178 1.307 . S
O169 Zn162 1.919 . S
O169 C180 1.253 . S
O170 Zn164 1.941 . S
O170 C180 1.283 . S
O171 Zn164 1.965 . S
O171 C179 1.303 . S
O172 Zn165 1.938 . S
O172 C179 1.247 . S
O173 Zn165 1.906 . S
O173 C181 1.304 . S
O174 Zn162 1.924 . S
O174 C182 1.311 . S
O175 Zn166 1.977 . S
O175 C181 1.272 . S
O176 Zn166 1.910 . S
O176 C182 1.231 . S
C177 O161 1.225 . S
C177 O183 1.298 . S
C178 O167 1.226 . S
C178 O168 1.307 . S
C179 O171 1.303 . S
C179 O172 1.247 . S
C180 O169 1.253 . S
C180 O170 1.283 . S
C181 O173 1.304 . S
C181 O175 1.272 . S
C182 O174 1.311 . S
C182 O176 1.231 . S
O183 Zn165 1.953 . S
O183 C177 1.298 . S
H184 C196 0.930 . S
H185 C198 0.930 . S
H186 C199 0.930 . S
H187 C203 0.959 . S
H188 C203 0.959 . S
H189 C203 0.961 . S
H190 C204 0.960 . S
H191 C204 0.961 . S
H192 C204 0.959 . S
H193 C207 0.929 . S
H194 C208 0.931 . S
H195 C210 0.930 . S
C196 H184 0.930 . S
C196 C197 1.399 . S
C196 C201 1.399 . S
C197 C196 1.399 . S
C197 C198 1.376 . S
C198 H185 0.930 . S
C198 C197 1.376 . S
C198 C199 1.388 . S
C199 H186 0.930 . S
C199 C198 1.388 . S
C199 C200 1.390 . S
C200 C199 1.390 . S
C200 C201 1.394 . S
C200 C206 1.465 . S
C201 C196 1.399 . S
C201 C200 1.394 . S
C201 C202 1.516 . S
C202 C201 1.516 . S
C202 C203 1.502 . S
C202 C204 1.561 . S
C202 C205 1.526 . S
C203 H187 0.959 . S
C203 H188 0.959 . S
C203 H189 0.961 . S
C203 C202 1.502 . S
C204 H190 0.960 . S
C204 H191 0.961 . S
C204 H192 0.959 . S
C204 C202 1.561 . S
C205 C202 1.526 . S
C205 C206 1.396 . S
C205 C210 1.390 . S
C206 C200 1.465 . S
C206 C205 1.396 . S
C206 C207 1.399 . S
C207 H193 0.929 . S
C207 C206 1.399 . S
C207 C208 1.385 . S
C208 H194 0.931 . S
C208 C207 1.385 . S
C208 C209 1.389 . S
C209 C208 1.389 . S
C209 C210 1.387 . S
C210 H195 0.930 . S
C210 C205 1.390 . S
C210 C209 1.387 . S
H211 C223 0.930 . S
H212 C225 0.930 . S
H213 C226 0.930 . S
H214 C230 0.959 . S
H215 C230 0.959 . S
H216 C230 0.961 . S
H217 C231 0.960 . S
H218 C231 0.961 . S
H219 C231 0.959 . S
H220 C234 0.929 . S
H221 C235 0.931 . S
H222 C237 0.930 . S
C223 H211 0.930 . S
C223 C224 1.399 . S
C223 C228 1.399 . S
C224 C223 1.399 . S
C224 C225 1.376 . S
C225 H212 0.930 . S
C225 C224 1.376 . S
C225 C226 1.388 . S
C226 H213 0.930 . S
C226 C225 1.388 . S
C226 C227 1.390 . S
C227 C226 1.390 . S
C227 C228 1.394 . S
C227 C233 1.465 . S
C228 C223 1.399 . S
C228 C227 1.394 . S
C228 C229 1.516 . S
C229 C228 1.516 . S
C229 C230 1.502 . S
C229 C231 1.561 . S
C229 C232 1.526 . S
C230 H214 0.959 . S
C230 H215 0.959 . S
C230 H216 0.961 . S
C230 C229 1.502 . S
C231 H217 0.960 . S
C231 H218 0.961 . S
C231 H219 0.959 . S
C231 C229 1.561 . S
C232 C229 1.526 . S
C232 C233 1.396 . S
C232 C237 1.390 . S
C233 C227 1.465 . S
C233 C232 1.396 . S
C233 C234 1.399 . S
C234 H220 0.929 . S
C234 C233 1.399 . S
C234 C235 1.385 . S
C235 H221 0.931 . S
C235 C234 1.385 . S
C235 C236 1.389 . S
C236 C235 1.389 . S
C236 C237 1.387 . S
C237 H222 0.930 . S
C237 C232 1.390 . S
C237 C236 1.387 . S
H238 C250 0.930 . S
H239 C252 0.930 . S
H240 C253 0.930 . S
H241 C257 0.959 . S
H242 C257 0.959 1_655 S
H243 C257 0.961 . S
H244 C258 0.960 1_455 S
H245 C258 0.961 . S
H246 C258 0.959 . S
H247 C261 0.929 . S
H248 C262 0.931 . S
H249 C264 0.930 . S
C250 H238 0.930 . S
C250 C251 1.399 . S
C250 C255 1.399 . S
C251 C250 1.399 . S
C251 C252 1.376 . S
C252 H239 0.930 . S
C252 C251 1.376 . S
C252 C253 1.388 . S
C253 H240 0.930 . S
C253 C252 1.388 . S
C253 C254 1.390 . S
C254 C253 1.390 . S
C254 C255 1.394 . S
C254 C260 1.465 1_455 S
C255 C250 1.399 . S
C255 C254 1.394 . S
C255 C256 1.508 1_455 S
C256 C255 1.508 1_655 S
C256 C257 1.499 1_655 S
C256 C258 1.565 . S
C256 C259 1.534 . S
C257 H241 0.959 . S
C257 H242 0.959 1_455 S
C257 H243 0.961 . S
C257 C256 1.499 1_455 S
C258 H244 0.960 1_655 S
C258 H245 0.961 . S
C258 H246 0.959 . S
C258 C256 1.565 . S
C259 C256 1.534 . S
C259 C260 1.396 . S
C259 C264 1.390 . S
C260 C254 1.465 1_655 S
C260 C259 1.396 . S
C260 C261 1.399 . S
C261 H247 0.929 . S
C261 C260 1.399 . S
C261 C262 1.385 . S
C262 H248 0.931 . S
C262 C261 1.385 . S
C262 C263 1.389 . S
C263 C262 1.389 . S
C263 C264 1.387 . S
C264 H249 0.930 . S
C264 C259 1.390 . S
C264 C263 1.387 . S
H265 C277 0.930 . S
H266 C279 0.930 . S
H267 C280 0.930 . S
H268 C284 0.959 . S
H269 C284 0.959 1_655 S
H270 C284 0.961 . S
H271 C285 0.960 1_455 S
H272 C285 0.961 . S
H273 C285 0.959 . S
H274 C288 0.929 . S
H275 C289 0.931 . S
H276 C291 0.930 . S
C277 H265 0.930 . S
C277 C278 1.399 . S
C277 C282 1.399 . S
C278 C277 1.399 . S
C278 C279 1.376 . S
C279 H266 0.930 . S
C279 C278 1.376 . S
C279 C280 1.388 . S
C280 H267 0.930 . S
C280 C279 1.388 . S
C280 C281 1.390 . S
C281 C280 1.390 . S
C281 C282 1.394 . S
C281 C287 1.465 1_455 S
C282 C277 1.399 . S
C282 C281 1.394 . S
C282 C283 1.516 . S
C283 C282 1.516 . S
C283 C284 1.502 . S
C283 C285 1.561 1_455 S
C283 C286 1.526 1_455 S
C284 H268 0.959 . S
C284 H269 0.959 1_455 S
C284 H270 0.961 . S
C284 C283 1.502 . S
C285 H271 0.960 1_655 S
C285 H272 0.961 . S
C285 H273 0.959 . S
C285 C283 1.561 1_655 S
C286 C283 1.526 1_655 S
C286 C287 1.396 . S
C286 C291 1.390 . S
C287 C281 1.465 1_655 S
C287 C286 1.396 . S
C287 C288 1.399 . S
C288 H274 0.929 . S
C288 C287 1.399 . S
C288 C289 1.385 . S
C289 H275 0.931 . S
C289 C288 1.385 . S
C289 C290 1.389 . S
C290 C289 1.389 . S
C290 C291 1.387 . S
C291 H276 0.930 . S
C291 C286 1.390 . S
C291 C290 1.387 . S
H292 C304 0.930 . S
H293 C306 0.930 . S
H294 C307 0.930 . S
H295 C311 0.959 . S
H296 C311 0.959 . S
H297 C311 0.961 . S
H298 C312 0.960 . S
H299 C312 0.961 . S
H300 C312 0.959 . S
H301 C315 0.929 . S
H302 C316 0.931 . S
H303 C318 0.930 . S
C304 H292 0.930 . S
C304 C305 1.399 1_556 S
C304 C309 1.399 . S
C305 C304 1.399 1_554 S
C305 C306 1.376 . S
C306 H293 0.930 . S
C306 C305 1.376 . S
C306 C307 1.388 . S
C307 H294 0.930 . S
C307 C306 1.388 . S
C307 C308 1.390 . S
C308 C307 1.390 . S
C308 C309 1.394 1_554 S
C308 C314 1.465 . S
C309 C304 1.399 . S
C309 C308 1.394 1_556 S
C309 C310 1.516 . S
C310 C309 1.516 . S
C310 C311 1.502 . S
C310 C312 1.561 . S
C310 C313 1.526 . S
C311 H295 0.959 . S
C311 H296 0.959 . S
C311 H297 0.961 . S
C311 C310 1.502 . S
C312 H298 0.960 . S
C312 H299 0.961 . S
C312 H300 0.959 . S
C312 C310 1.561 . S
C313 C310 1.526 . S
C313 C314 1.396 1_556 S
C313 C318 1.390 . S
C314 C308 1.465 . S
C314 C313 1.396 1_554 S
C314 C315 1.399 . S
C315 H301 0.929 . S
C315 C314 1.399 . S
C315 C316 1.385 . S
C316 H302 0.931 . S
C316 C315 1.385 . S
C316 C317 1.389 1_554 S
C317 C316 1.389 1_556 S
C317 C318 1.387 . S
C318 H303 0.930 . S
C318 C313 1.390 . S
C318 C317 1.387 . S
H319 C331 0.930 . S
H320 C333 0.930 . S
H321 C334 0.930 . S
H322 C338 0.959 . S
H323 C338 0.959 . S
H324 C338 0.961 . S
H325 C339 0.960 . S
H326 C339 0.961 . S
H327 C339 0.959 . S
H328 C342 0.929 . S
H329 C343 0.931 . S
H330 C345 0.930 . S
C331 H319 0.930 . S
C331 C332 1.399 . S
C331 C336 1.399 . S
C332 C331 1.399 . S
C332 C333 1.376 . S
C333 H320 0.930 . S
C333 C332 1.376 . S
C333 C334 1.388 . S
C334 H321 0.930 . S
C334 C333 1.388 . S
C334 C335 1.390 . S
C335 C334 1.390 . S
C335 C336 1.394 . S
C335 C341 1.465 . S
C336 C331 1.399 . S
C336 C335 1.394 . S
C336 C337 1.516 . S
C337 C336 1.516 . S
C337 C338 1.502 . S
C337 C339 1.561 . S
C337 C340 1.526 . S
C338 H322 0.959 . S
C338 H323 0.959 . S
C338 H324 0.961 . S
C338 C337 1.502 . S
C339 H325 0.960 . S
C339 H326 0.961 . S
C339 H327 0.959 . S
C339 C337 1.561 . S
C340 C337 1.526 . S
C340 C341 1.396 . S
C340 C345 1.390 . S
C341 C335 1.465 . S
C341 C340 1.396 . S
C341 C342 1.399 . S
C342 H328 0.929 . S
C342 C341 1.399 . S
C342 C343 1.385 . S
C343 H329 0.931 . S
C343 C342 1.385 . S
C343 C344 1.389 . S
C344 C343 1.389 . S
C344 C345 1.387 . S
C345 H330 0.930 . S
C345 C340 1.390 . S
C345 C344 1.387 . S
H346 C358 0.930 . S
H347 C360 0.930 . S
H348 C361 0.930 . S
H349 C365 0.959 . S
H350 C365 0.959 . S
H351 C365 0.961 . S
H352 C366 0.960 . S
H353 C366 0.961 . S
H354 C366 0.959 . S
H355 C369 0.929 . S
H356 C370 0.931 . S
H357 C372 0.930 . S
C358 H346 0.930 . S
C358 C359 1.399 . S
C358 C363 1.399 . S
C359 C358 1.399 . S
C359 C360 1.376 1_554 S
C360 H347 0.930 . S
C360 C359 1.376 1_556 S
C360 C361 1.388 . S
C361 H348 0.930 . S
C361 C360 1.388 . S
C361 C362 1.390 . S
C362 C361 1.390 . S
C362 C363 1.394 1_556 S
C362 C368 1.465 . S
C363 C358 1.399 . S
C363 C362 1.394 1_554 S
C363 C364 1.516 . S
C364 C363 1.516 . S
C364 C365 1.502 . S
C364 C366 1.561 . S
C364 C367 1.526 . S
C365 H349 0.959 . S
C365 H350 0.959 . S
C365 H351 0.961 . S
C365 C364 1.502 . S
C366 H352 0.960 . S
C366 H353 0.961 . S
C366 H354 0.959 . S
C366 C364 1.561 . S
C367 C364 1.526 . S
C367 C368 1.396 1_554 S
C367 C372 1.390 . S
C368 C362 1.465 . S
C368 C367 1.396 1_556 S
C368 C369 1.399 . S
C369 H355 0.929 . S
C369 C368 1.399 . S
C369 C370 1.385 . S
C370 H356 0.931 . S
C370 C369 1.385 . S
C370 C371 1.389 . S
C371 C370 1.389 . S
C371 C372 1.387 1_556 S
C372 H357 0.930 . S
C372 C367 1.390 . S
C372 C371 1.387 1_554 S
H373 C385 0.930 . S
H374 C387 0.930 . S
H375 C388 0.930 . S
H376 C392 0.959 . S
H377 C392 0.959 . S
H378 C392 0.961 . S
H379 C393 0.960 . S
H380 C393 0.961 . S
H381 C393 0.959 . S
H382 C396 0.929 . S
H383 C397 0.931 . S
H384 C399 0.930 . S
C385 H373 0.930 . S
C385 C386 1.399 . S
C385 C390 1.399 . S
C386 C385 1.399 . S
C386 C387 1.376 . S
C387 H374 0.930 . S
C387 C386 1.376 . S
C387 C388 1.388 . S
C388 H375 0.930 . S
C388 C387 1.388 . S
C388 C389 1.390 . S
C389 C388 1.390 . S
C389 C390 1.394 . S
C389 C395 1.465 . S
C390 C385 1.399 . S
C390 C389 1.394 . S
C390 C391 1.516 . S
C391 C390 1.516 . S
C391 C392 1.502 . S
C391 C393 1.561 . S
C391 C394 1.526 . S
C392 H376 0.959 . S
C392 H377 0.959 . S
C392 H378 0.961 . S
C392 C391 1.502 . S
C393 H379 0.960 . S
C393 H380 0.961 . S
C393 H381 0.959 . S
C393 C391 1.561 . S
C394 C391 1.526 . S
C394 C395 1.396 . S
C394 C399 1.390 . S
C395 C389 1.465 . S
C395 C394 1.396 . S
C395 C396 1.399 . S
C396 H382 0.929 . S
C396 C395 1.399 . S
C396 C397 1.385 . S
C397 H383 0.931 . S
C397 C396 1.385 . S
C397 C398 1.389 . S
C398 C397 1.389 . S
C398 C399 1.387 . S
C399 H384 0.930 . S
C399 C394 1.390 . S
C399 C398 1.387 . S
H400 C412 0.930 . S
H401 C414 0.930 . S
H402 C415 0.930 . S
H403 C419 0.959 . S
H404 C419 0.959 1_455 S
H405 C419 0.961 . S
H406 C420 0.960 . S
H407 C420 0.961 . S
H408 C420 0.959 . S
H409 C423 0.929 . S
H410 C424 0.931 . S
H411 C426 0.930 . S
C412 H400 0.930 . S
C412 C413 1.399 . S
C412 C417 1.399 . S
C413 C412 1.399 . S
C413 C414 1.376 1_556 S
C414 H401 0.930 . S
C414 C413 1.376 1_554 S
C414 C415 1.388 . S
C415 H402 0.930 . S
C415 C414 1.388 . S
C415 C416 1.390 . S
C416 C415 1.390 . S
C416 C417 1.394 1_554 S
C416 C422 1.465 1_655 S
C417 C412 1.399 . S
C417 C416 1.394 1_556 S
C417 C418 1.516 1_655 S
C418 C417 1.516 1_455 S
C418 C419 1.502 1_455 S
C418 C420 1.561 . S
C418 C421 1.526 . S
C419 H403 0.959 . S
C419 H404 0.959 1_655 S
C419 H405 0.961 . S
C419 C418 1.502 1_655 S
C420 H406 0.960 . S
C420 H407 0.961 . S
C420 H408 0.959 . S
C420 C418 1.561 . S
C421 C418 1.526 . S
C421 C422 1.396 1_556 S
C421 C426 1.390 . S
C422 C416 1.465 1_455 S
C422 C421 1.396 1_554 S
C422 C423 1.399 . S
C423 H409 0.929 . S
C423 C422 1.399 . S
C423 C424 1.385 . S
C424 H410 0.931 . S
C424 C423 1.385 . S
C424 C425 1.389 . S
C425 C424 1.389 . S
C425 C426 1.387 1_554 S
C426 H411 0.930 . S
C426 C421 1.390 . S
C426 C425 1.387 1_556 S
H427 C439 0.930 . S
H428 C441 0.930 . S
H429 C442 0.930 . S
H430 C446 0.959 . S
H431 C446 0.959 . S
H432 C446 0.961 1_455 S
H433 C447 0.960 . S
H434 C447 0.961 . S
H435 C447 0.959 . S
H436 C450 0.929 . S
H437 C451 0.931 . S
H438 C453 0.930 . S
C439 H427 0.930 . S
C439 C440 1.399 . S
C439 C444 1.399 . S
C440 C439 1.399 . S
C440 C441 1.376 . S
C441 H428 0.930 . S
C441 C440 1.376 . S
C441 C442 1.388 . S
C442 H429 0.930 . S
C442 C441 1.388 . S
C442 C443 1.390 . S
C443 C442 1.390 . S
C443 C444 1.394 . S
C443 C449 1.465 1_455 S
C444 C439 1.399 . S
C444 C443 1.394 . S
C444 C445 1.516 . S
C445 C444 1.516 . S
C445 C446 1.502 1_455 S
C445 C447 1.561 . S
C445 C448 1.526 1_455 S
C446 H430 0.959 . S
C446 H431 0.959 . S
C446 H432 0.961 1_655 S
C446 C445 1.502 1_655 S
C447 H433 0.960 . S
C447 H434 0.961 . S
C447 H435 0.959 . S
C447 C445 1.561 . S
C448 C445 1.526 1_655 S
C448 C449 1.396 . S
C448 C453 1.390 . S
C449 C443 1.465 1_655 S
C449 C448 1.396 . S
C449 C450 1.399 . S
C450 H436 0.929 . S
C450 C449 1.399 . S
C450 C451 1.385 . S
C451 H437 0.931 . S
C451 C450 1.385 . S
C451 C452 1.389 . S
C452 C451 1.389 . S
C452 C453 1.387 . S
C453 H438 0.930 . S
C453 C448 1.390 . S
C453 C452 1.387 . S
H454 C466 0.930 . S
H455 C468 0.930 . S
H456 C469 0.930 . S
H457 C473 0.959 . S
H458 C473 0.959 . S
H459 C473 0.961 . S
H460 C474 0.960 . S
H461 C474 0.961 . S
H462 C474 0.959 . S
H463 C477 0.963 . S
H464 C478 0.931 . S
H465 C480 0.930 . S
C466 H454 0.930 . S
C466 C467 1.399 . S
C466 C471 1.399 . S
C467 C466 1.399 . S
C467 C468 1.376 . S
C468 H455 0.930 . S
C468 C467 1.376 . S
C468 C469 1.388 1_554 S
C469 H456 0.930 . S
C469 C468 1.388 1_556 S
C469 C470 1.390 . S
C470 C469 1.390 . S
C470 C471 1.394 1_556 S
C470 C476 1.437 1_565 S
C471 C466 1.399 . S
C471 C470 1.394 1_554 S
C471 C472 1.516 1_565 S
C472 C471 1.516 1_545 S
C472 C473 1.502 . S
C472 C474 1.561 1_554 S
C472 C475 1.526 1_554 S
C473 H457 0.959 . S
C473 H458 0.959 . S
C473 H459 0.961 . S
C473 C472 1.502 . S
C474 H460 0.960 . S
C474 H461 0.961 . S
C474 H462 0.959 . S
C474 C472 1.561 1_556 S
C475 C472 1.526 1_556 S
C475 C476 1.432 . S
C475 C480 1.390 . S
C476 C470 1.437 1_545 S
C476 C475 1.432 . S
C476 C477 1.396 1_545 S
C477 H463 0.963 . S
C477 C476 1.396 1_565 S
C477 C478 1.354 1_565 S
C478 H464 0.931 . S
C478 C477 1.354 1_545 S
C478 C479 1.389 . S
C479 C478 1.389 . S
C479 C480 1.387 . S
C480 H465 0.930 . S
C480 C475 1.390 . S
C480 C479 1.387 . S
H481 C493 0.930 . S
H482 C495 0.930 . S
H483 C496 0.930 . S
H484 C500 0.959 . S
H485 C500 0.959 . S
H486 C500 0.961 . S
H487 C501 0.960 . S
H488 C501 0.961 . S
H489 C501 0.959 . S
H490 C504 0.929 . S
H491 C505 0.931 . S
H492 C507 0.930 . S
C493 H481 0.930 . S
C493 C494 1.399 . S
C493 C498 1.399 . S
C494 C493 1.399 . S
C494 C495 1.376 . S
C495 H482 0.930 . S
C495 C494 1.376 . S
C495 C496 1.388 . S
C496 H483 0.930 . S
C496 C495 1.388 . S
C496 C497 1.390 . S
C497 C496 1.390 . S
C497 C498 1.394 . S
C497 C503 1.465 1_565 S
C498 C493 1.399 . S
C498 C497 1.394 . S
C498 C499 1.516 . S
C499 C498 1.516 . S
C499 C500 1.502 . S
C499 C501 1.561 1_565 S
C499 C502 1.526 1_565 S
C500 H484 0.959 . S
C500 H485 0.959 . S
C500 H486 0.961 . S
C500 C499 1.502 . S
C501 H487 0.960 . S
C501 H488 0.961 . S
C501 H489 0.959 . S
C501 C499 1.561 1_545 S
C502 C499 1.526 1_545 S
C502 C503 1.396 . S
C502 C507 1.390 . S
C503 C497 1.465 1_545 S
C503 C502 1.396 . S
C503 C504 1.399 . S
C504 H490 0.929 . S
C504 C503 1.399 . S
C504 C505 1.385 . S
C505 H491 0.931 . S
C505 C504 1.385 . S
C505 C506 1.389 . S
C506 C505 1.389 . S
C506 C507 1.387 . S
C507 H492 0.930 . S
C507 C502 1.390 . S
C507 C506 1.387 . S
H508 C520 0.930 . S
H509 C522 0.930 . S
H510 C523 0.930 . S
H511 C527 0.959 . S
H512 C527 0.959 . S
H513 C527 0.961 . S
H514 C528 0.960 1_455 S
H515 C528 0.961 . S
H516 C528 0.959 1_455 S
H517 C531 0.929 . S
H518 C532 0.931 . S
H519 C534 0.930 . S
C520 H508 0.930 . S
C520 C521 1.399 . S
C520 C525 1.399 . S
C521 C520 1.399 . S
C521 C522 1.376 . S
C522 H509 0.930 . S
C522 C521 1.376 . S
C522 C523 1.388 . S
C523 H510 0.930 . S
C523 C522 1.388 . S
C523 C524 1.390 . S
C524 C523 1.390 . S
C524 C525 1.394 . S
C524 C530 1.465 1_455 S
C525 C520 1.399 . S
C525 C524 1.394 . S
C525 C526 1.516 1_455 S
C526 C525 1.516 1_655 S
C526 C527 1.502 . S
C526 C528 1.561 . S
C526 C529 1.526 . S
C527 H511 0.959 . S
C527 H512 0.959 . S
C527 H513 0.961 . S
C527 C526 1.502 . S
C528 H514 0.960 1_655 S
C528 H515 0.961 . S
C528 H516 0.959 1_655 S
C528 C526 1.561 . S
C529 C526 1.526 . S
C529 C530 1.396 . S
C529 C534 1.390 . S
C530 C524 1.465 1_655 S
C530 C529 1.396 . S
C530 C531 1.399 . S
C531 H517 0.929 . S
C531 C530 1.399 . S
C531 C532 1.385 . S
C532 H518 0.931 . S
C532 C531 1.385 . S
C532 C533 1.389 . S
C533 C532 1.389 . S
C533 C534 1.387 . S
C534 H519 0.930 . S
C534 C529 1.390 . S
C534 C533 1.387 . S
H535 C547 0.930 . S
H536 C549 0.930 . S
H537 C550 0.930 . S
H538 C554 0.959 . S
H539 C554 0.959 1_655 S
H540 C554 0.961 . S
H541 C555 0.960 1_455 S
H542 C555 0.961 . S
H543 C555 0.959 . S
H544 C558 0.929 . S
H545 C559 0.931 . S
H546 C561 0.930 . S
C547 H535 0.930 . S
C547 C548 1.399 . S
C547 C552 1.399 . S
C548 C547 1.399 . S
C548 C549 1.376 . S
C549 H536 0.930 . S
C549 C548 1.376 . S
C549 C550 1.388 . S
C550 H537 0.930 . S
C550 C549 1.388 . S
C550 C551 1.390 . S
C551 C550 1.390 . S
C551 C552 1.394 . S
C551 C557 1.465 1_455 S
C552 C547 1.399 . S
C552 C551 1.394 . S
C552 C553 1.516 . S
C553 C552 1.516 . S
C553 C554 1.502 . S
C553 C555 1.561 1_455 S
C553 C556 1.526 1_455 S
C554 H538 0.959 . S
C554 H539 0.959 1_455 S
C554 H540 0.961 . S
C554 C553 1.502 . S
C555 H541 0.960 1_655 S
C555 H542 0.961 . S
C555 H543 0.959 . S
C555 C553 1.561 1_655 S
C556 C553 1.526 1_655 S
C556 C557 1.396 . S
C556 C561 1.390 . S
C557 C551 1.465 1_655 S
C557 C556 1.396 . S
C557 C558 1.399 . S
C558 H544 0.929 . S
C558 C557 1.399 . S
C558 C559 1.385 . S
C559 H545 0.931 . S
C559 C558 1.385 . S
C559 C560 1.389 . S
C560 C559 1.389 . S
C560 C561 1.387 . S
C561 H546 0.930 . S
C561 C556 1.390 . S
C561 C560 1.387 . S
H562 C574 0.930 . S
H563 C576 0.930 . S
H564 C577 0.930 . S
H565 C581 0.959 . S
H566 C581 0.959 . S
H567 C581 0.961 . S
H568 C582 0.960 . S
H569 C582 0.961 . S
H570 C582 0.959 . S
H571 C585 0.929 . S
H572 C586 0.931 . S
H573 C588 0.930 . S
C574 H562 0.930 . S
C574 C575 1.399 . S
C574 C579 1.399 . S
C575 C574 1.399 . S
C575 C576 1.376 . S
C576 H563 0.930 . S
C576 C575 1.376 . S
C576 C577 1.388 . S
C577 H564 0.930 . S
C577 C576 1.388 . S
C577 C578 1.390 . S
C578 C577 1.390 . S
C578 C579 1.394 . S
C578 C584 1.465 . S
C579 C574 1.399 . S
C579 C578 1.394 . S
C579 C580 1.516 . S
C580 C579 1.516 . S
C580 C581 1.502 . S
C580 C582 1.561 . S
C580 C583 1.526 . S
C581 H565 0.959 . S
C581 H566 0.959 . S
C581 H567 0.961 . S
C581 C580 1.502 . S
C582 H568 0.960 . S
C582 H569 0.961 . S
C582 H570 0.959 . S
C582 C580 1.561 . S
C583 C580 1.526 . S
C583 C584 1.396 . S
C583 C588 1.390 . S
C584 C578 1.465 . S
C584 C583 1.396 . S
C584 C585 1.399 . S
C585 H571 0.929 . S
C585 C584 1.399 . S
C585 C586 1.385 . S
C586 H572 0.931 . S
C586 C585 1.385 . S
C586 C587 1.389 . S
C587 C586 1.389 . S
C587 C588 1.387 . S
C588 H573 0.930 . S
C588 C583 1.390 . S
C588 C587 1.387 . S
H589 C601 0.930 . S
H590 C603 0.930 . S
H591 C604 0.930 . S
H592 C608 0.959 . S
H593 C608 0.959 . S
H594 C608 0.961 . S
H595 C609 0.960 . S
H596 C609 0.961 . S
H597 C609 0.959 . S
H598 C612 0.929 . S
H599 C613 0.931 . S
H600 C615 0.930 . S
C601 H589 0.930 . S
C601 C602 1.399 . S
C601 C606 1.399 . S
C602 C601 1.399 . S
C602 C603 1.376 . S
C603 H590 0.930 . S
C603 C602 1.376 . S
C603 C604 1.388 . S
C604 H591 0.930 . S
C604 C603 1.388 . S
C604 C605 1.390 . S
C605 C604 1.390 . S
C605 C606 1.394 . S
C605 C611 1.465 . S
C606 C601 1.399 . S
C606 C605 1.394 . S
C606 C607 1.516 . S
C607 C606 1.516 . S
C607 C608 1.502 . S
C607 C609 1.561 . S
C607 C610 1.526 . S
C608 H592 0.959 . S
C608 H593 0.959 . S
C608 H594 0.961 . S
C608 C607 1.502 . S
C609 H595 0.960 . S
C609 H596 0.961 . S
C609 H597 0.959 . S
C609 C607 1.561 . S
C610 C607 1.526 . S
C610 C611 1.396 . S
C610 C615 1.390 . S
C611 C605 1.465 . S
C611 C610 1.396 . S
C611 C612 1.399 . S
C612 H598 0.929 . S
C612 C611 1.399 . S
C612 C613 1.385 . S
C613 H599 0.931 . S
C613 C612 1.385 . S
C613 C614 1.389 . S
C614 C613 1.389 . S
C614 C615 1.387 . S
C615 H600 0.930 . S
C615 C610 1.390 . S
C615 C614 1.387 . S
H616 C628 0.930 . S
H617 C630 0.930 1_554 S
H618 C631 0.930 . S
H619 C635 0.959 . S
H620 C635 0.959 . S
H621 C635 0.961 . S
H622 C636 0.960 . S
H623 C636 0.961 . S
H624 C636 0.959 . S
H625 C639 0.929 . S
H626 C640 0.931 . S
H627 C642 0.930 . S
C628 H616 0.930 . S
C628 C629 1.399 . S
C628 C633 1.399 . S
C629 C628 1.399 . S
C629 C630 1.376 . S
C630 H617 0.930 1_556 S
C630 C629 1.376 . S
C630 C631 1.388 . S
C631 H618 0.930 . S
C631 C630 1.388 . S
C631 C632 1.390 . S
C632 C631 1.390 . S
C632 C633 1.394 . S
C632 C638 1.465 . S
C633 C628 1.399 . S
C633 C632 1.394 . S
C633 C634 1.516 . S
C634 C633 1.516 . S
C634 C635 1.502 . S
C634 C636 1.561 . S
C634 C637 1.526 . S
C635 H619 0.959 . S
C635 H620 0.959 . S
C635 H621 0.961 . S
C635 C634 1.502 . S
C636 H622 0.960 . S
C636 H623 0.961 . S
C636 H624 0.959 . S
C636 C634 1.561 . S
C637 C634 1.526 . S
C637 C638 1.396 . S
C637 C642 1.390 . S
C638 C632 1.465 . S
C638 C637 1.396 . S
C638 C639 1.399 . S
C639 H625 0.929 . S
C639 C638 1.399 . S
C639 C640 1.385 . S
C640 H626 0.931 . S
C640 C639 1.385 . S
C640 C641 1.389 . S
C641 C640 1.389 . S
C641 C642 1.387 . S
C642 H627 0.930 . S
C642 C637 1.390 . S
C642 C641 1.387 . S
H643 C655 0.930 . S
H644 C657 0.930 . S
H645 C658 0.930 . S
H646 C662 0.959 . S
H647 C662 0.959 . S
H648 C662 0.961 . S
H649 C663 0.960 . S
H650 C663 0.961 . S
H651 C663 0.959 . S
H652 C666 0.929 . S
H653 C667 0.931 . S
H654 C669 0.930 . S
C655 H643 0.930 . S
C655 C656 1.399 . S
C655 C660 1.399 . S
C656 C655 1.399 . S
C656 C657 1.376 . S
C657 H644 0.930 . S
C657 C656 1.376 . S
C657 C658 1.388 . S
C658 H645 0.930 . S
C658 C657 1.388 . S
C658 C659 1.390 . S
C659 C658 1.390 . S
C659 C660 1.394 . S
C659 C665 1.465 . S
C660 C655 1.399 . S
C660 C659 1.394 . S
C660 C661 1.516 . S
C661 C660 1.516 . S
C661 C662 1.502 . S
C661 C663 1.561 . S
C661 C664 1.526 . S
C662 H646 0.959 . S
C662 H647 0.959 . S
C662 H648 0.961 . S
C662 C661 1.502 . S
C663 H649 0.960 . S
C663 H650 0.961 . S
C663 H651 0.959 . S
C663 C661 1.561 . S
C664 C661 1.526 . S
C664 C665 1.396 . S
C664 C669 1.390 . S
C665 C659 1.465 . S
C665 C664 1.396 . S
C665 C666 1.399 . S
C666 H652 0.929 . S
C666 C665 1.399 . S
C666 C667 1.385 . S
C667 H653 0.931 . S
C667 C666 1.385 . S
C667 C668 1.389 . S
C668 C667 1.389 . S
C668 C669 1.387 . S
C669 H654 0.930 . S
C669 C664 1.390 . S
C669 C668 1.387 . S
H670 C682 0.930 . S
H671 C684 0.930 . S
H672 C685 0.930 . S
H673 C689 0.959 . S
H674 C689 0.959 . S
H675 C689 0.961 . S
H676 C690 0.960 . S
H677 C690 0.961 . S
H678 C690 0.959 . S
H679 C693 0.929 . S
H680 C694 0.931 1_556 S
H681 C696 0.930 . S
C682 H670 0.930 . S
C682 C683 1.399 . S
C682 C687 1.399 . S
C683 C682 1.399 . S
C683 C684 1.376 . S
C684 H671 0.930 . S
C684 C683 1.376 . S
C684 C685 1.388 . S
C685 H672 0.930 . S
C685 C684 1.388 . S
C685 C686 1.390 . S
C686 C685 1.390 . S
C686 C687 1.394 . S
C686 C692 1.465 . S
C687 C682 1.399 . S
C687 C686 1.394 . S
C687 C688 1.516 . S
C688 C687 1.516 . S
C688 C689 1.502 . S
C688 C690 1.561 . S
C688 C691 1.526 . S
C689 H673 0.959 . S
C689 H674 0.959 . S
C689 H675 0.961 . S
C689 C688 1.502 . S
C690 H676 0.960 . S
C690 H677 0.961 . S
C690 H678 0.959 . S
C690 C688 1.561 . S
C691 C688 1.526 . S
C691 C692 1.396 . S
C691 C696 1.390 . S
C692 C686 1.465 . S
C692 C691 1.396 . S
C692 C693 1.399 . S
C693 H679 0.929 . S
C693 C692 1.399 . S
C693 C694 1.385 . S
C694 H680 0.931 1_554 S
C694 C693 1.385 . S
C694 C695 1.389 . S
C695 C694 1.389 . S
C695 C696 1.387 . S
C696 H681 0.930 . S
C696 C691 1.390 . S
C696 C695 1.387 . S
H697 C709 0.930 . S
H698 C711 0.930 . S
H699 C712 0.930 . S
H700 C716 0.959 . S
H701 C716 0.959 . S
H702 C716 0.961 . S
H703 C717 0.960 . S
H704 C717 0.961 . S
H705 C717 0.959 . S
H706 C720 0.929 . S
H707 C721 0.931 . S
H708 C723 0.930 . S
C709 H697 0.930 . S
C709 C710 1.399 . S
C709 C714 1.399 . S
C710 C709 1.399 . S
C710 C711 1.376 . S
C711 H698 0.930 . S
C711 C710 1.376 . S
C711 C712 1.388 . S
C712 H699 0.930 . S
C712 C711 1.388 . S
C712 C713 1.390 . S
C713 C712 1.390 . S
C713 C714 1.394 . S
C713 C719 1.465 . S
C714 C709 1.399 . S
C714 C713 1.394 . S
C714 C715 1.516 . S
C715 C714 1.516 . S
C715 C716 1.502 . S
C715 C717 1.561 . S
C715 C718 1.526 . S
C716 H700 0.959 . S
C716 H701 0.959 . S
C716 H702 0.961 . S
C716 C715 1.502 . S
C717 H703 0.960 . S
C717 H704 0.961 . S
C717 H705 0.959 . S
C717 C715 1.561 . S
C718 C715 1.526 . S
C718 C719 1.396 . S
C718 C723 1.390 . S
C719 C713 1.465 . S
C719 C718 1.396 . S
C719 C720 1.399 . S
C720 H706 0.929 . S
C720 C719 1.399 . S
C720 C721 1.385 . S
C721 H707 0.931 . S
C721 C720 1.385 . S
C721 C722 1.389 . S
C722 C721 1.389 . S
C722 C723 1.387 . S
C723 H708 0.930 . S
C723 C718 1.390 . S
C723 C722 1.387 . S
H724 C736 0.909 1_545 S
H725 C738 0.930 . S
H726 C739 0.930 . S
H727 C743 0.959 . S
H728 C743 0.959 . S
H729 C743 0.961 . S
H730 C744 0.960 . S
H731 C744 0.961 . S
H732 C744 0.959 . S
H733 C747 0.929 . S
H734 C748 0.931 . S
H735 C750 0.930 . S
C736 H724 0.909 1_565 S
C736 C737 1.399 . S
C736 C741 1.399 . S
C737 C736 1.399 . S
C737 C738 1.376 . S
C738 H725 0.930 . S
C738 C737 1.376 . S
C738 C739 1.388 . S
C739 H726 0.930 . S
C739 C738 1.388 . S
C739 C740 1.390 . S
C740 C739 1.390 . S
C740 C741 1.394 . S
C740 C746 1.465 . S
C741 C736 1.399 . S
C741 C740 1.394 . S
C741 C742 1.516 1_565 S
C742 C741 1.516 1_545 S
C742 C743 1.502 . S
C742 C744 1.561 . S
C742 C745 1.526 . S
C743 H727 0.959 . S
C743 H728 0.959 . S
C743 H729 0.961 . S
C743 C742 1.502 . S
C744 H730 0.960 . S
C744 H731 0.961 . S
C744 H732 0.959 . S
C744 C742 1.561 . S
C745 C742 1.526 . S
C745 C746 1.396 1_545 S
C745 C750 1.390 . S
C746 C740 1.465 . S
C746 C745 1.396 1_565 S
C746 C747 1.399 . S
C747 H733 0.929 . S
C747 C746 1.399 . S
C747 C748 1.385 . S
C748 H734 0.931 . S
C748 C747 1.385 . S
C748 C749 1.389 1_565 S
C749 C748 1.389 1_545 S
C749 C750 1.387 . S
C750 H735 0.930 . S
C750 C745 1.390 . S
C750 C749 1.387 . S
H751 C763 0.930 . S
H752 C765 0.930 . S
H753 C766 0.930 . S
H754 C770 0.959 . S
H755 C770 0.959 . S
H756 C770 0.961 . S
H757 C771 0.960 . S
H758 C771 0.961 . S
H759 C771 0.959 . S
H760 C774 0.929 . S
H761 C775 0.931 . S
H762 C777 0.930 . S
C763 H751 0.930 . S
C763 C764 1.399 . S
C763 C768 1.399 . S
C764 C763 1.399 . S
C764 C765 1.376 1_545 S
C765 H752 0.930 . S
C765 C764 1.376 1_565 S
C765 C766 1.388 . S
C766 H753 0.930 . S
C766 C765 1.388 . S
C766 C767 1.390 . S
C767 C766 1.390 . S
C767 C768 1.394 1_565 S
C767 C773 1.465 . S
C768 C763 1.399 . S
C768 C767 1.394 1_545 S
C768 C769 1.516 . S
C769 C768 1.516 . S
C769 C770 1.502 . S
C769 C771 1.561 . S
C769 C772 1.526 1_545 S
C770 H754 0.959 . S
C770 H755 0.959 . S
C770 H756 0.961 . S
C770 C769 1.502 . S
C771 H757 0.960 . S
C771 H758 0.961 . S
C771 H759 0.959 . S
C771 C769 1.561 . S
C772 C769 1.526 1_565 S
C772 C773 1.396 . S
C772 C777 1.390 . S
C773 C767 1.465 . S
C773 C772 1.396 . S
C773 C774 1.399 . S
C774 H760 0.929 . S
C774 C773 1.399 . S
C774 C775 1.385 . S
C775 H761 0.931 . S
C775 C774 1.385 . S
C775 C776 1.389 . S
C776 C775 1.389 . S
C776 C777 1.387 . S
C777 H762 0.930 . S
C777 C772 1.390 . S
C777 C776 1.387 . S
H778 C790 0.930 . S
H779 C792 0.930 . S
H780 C793 0.930 . S
H781 C797 0.959 . S
H782 C797 0.959 . S
H783 C797 0.961 . S
H784 C798 0.960 . S
H785 C798 0.961 . S
H786 C798 0.959 . S
H787 C801 0.929 . S
H788 C802 0.931 . S
H789 C804 0.930 1_565 S
C790 H778 0.930 . S
C790 C791 1.399 . S
C790 C795 1.399 . S
C791 C790 1.399 . S
C791 C792 1.376 1_565 S
C792 H779 0.930 . S
C792 C791 1.376 1_545 S
C792 C793 1.388 . S
C793 H780 0.930 . S
C793 C792 1.388 . S
C793 C794 1.390 . S
C794 C793 1.390 . S
C794 C795 1.394 1_545 S
C794 C800 1.465 . S
C795 C790 1.399 . S
C795 C794 1.394 1_565 S
C795 C796 1.516 . S
C796 C795 1.516 . S
C796 C797 1.502 . S
C796 C798 1.561 . S
C796 C799 1.526 1_565 S
C797 H781 0.959 . S
C797 H782 0.959 . S
C797 H783 0.961 . S
C797 C796 1.502 . S
C798 H784 0.960 . S
C798 H785 0.961 . S
C798 H786 0.959 . S
C798 C796 1.561 . S
C799 C796 1.526 1_545 S
C799 C800 1.396 . S
C799 C804 1.390 . S
C800 C794 1.465 . S
C800 C799 1.396 . S
C800 C801 1.399 . S
C801 H787 0.929 . S
C801 C800 1.399 . S
C801 C802 1.385 . S
C802 H788 0.931 . S
C802 C801 1.385 . S
C802 C803 1.389 . S
C803 C802 1.389 . S
C803 C804 1.387 . S
C804 H789 0.930 1_545 S
C804 C799 1.390 . S
C804 C803 1.387 . S
H805 C817 0.930 . S
H806 C819 0.930 1_565 S
H807 C820 0.930 . S
H808 C824 0.959 . S
H809 C824 0.959 . S
H810 C824 0.961 . S
H811 C825 0.960 . S
H812 C825 0.961 . S
H813 C825 0.959 . S
H814 C828 0.929 . S
H815 C829 0.931 . S
H816 C831 0.930 . S
C817 H805 0.930 . S
C817 C818 1.399 . S
C817 C822 1.399 . S
C818 C817 1.399 . S
C818 C819 1.376 . S
C819 H806 0.930 1_545 S
C819 C818 1.376 . S
C819 C820 1.388 1_545 S
C820 H807 0.930 . S
C820 C819 1.388 1_565 S
C820 C821 1.390 1_565 S
C821 C820 1.390 1_545 S
C821 C822 1.394 . S
C821 C827 1.465 1_545 S
C822 C817 1.399 . S
C822 C821 1.394 . S
C822 C823 1.516 . S
C823 C822 1.516 . S
C823 C824 1.502 . S
C823 C825 1.561 . S
C823 C826 1.526 . S
C824 H808 0.959 . S
C824 H809 0.959 . S
C824 H810 0.961 . S
C824 C823 1.502 . S
C825 H811 0.960 . S
C825 H812 0.961 . S
C825 H813 0.959 . S
C825 C823 1.561 . S
C826 C823 1.526 . S
C826 C827 1.396 1_545 S
C826 C831 1.390 . S
C827 C821 1.465 1_565 S
C827 C826 1.396 1_565 S
C827 C828 1.399 . S
C828 H814 0.929 . S
C828 C827 1.399 . S
C828 C829 1.385 . S
C829 H815 0.931 . S
C829 C828 1.385 . S
C829 C830 1.389 . S
C830 C829 1.389 . S
C830 C831 1.387 1_565 S
C831 H816 0.930 . S
C831 C826 1.390 . S
C831 C830 1.387 1_545 S
C197 C40 1.405 . S
C209 C17 1.410 . S
C224 C63 1.445 . S
C236 C86 1.442 . S
C251 C132 1.404 . S
C263 C109 1.409 . S
C278 C155 1.432 . S
C290 C178 1.447 . S
C305 C20 1.371 . S
C317 C158 1.357 . S
C332 C43 1.356 . S
C344 C181 1.371 . S
C359 C112 1.356 . S
C371 C66 1.371 . S
C386 C89 1.364 . S
C398 C135 1.366 . S
C413 C62 1.192 . S
C425 C16 1.142 . S
C440 C85 1.127 . S
C452 C39 1.183 . S
C467 C108 1.205 . S
C479 C154 1.114 . S
C494 C131 1.139 . S
C506 C177 1.169 . S
C521 C18 1.330 . S
C533 C41 1.283 . S
C548 C87 1.287 . S
C560 C64 1.312 . S
C575 C133 1.284 . S
C587 C110 1.325 . S
C602 C179 1.286 . S
C614 C156 1.313 . S
C629 C21 1.532 1_556 S
C641 C88 1.420 . S
C656 C44 1.545 . S
C668 C65 1.454 . S
C683 C42 1.419 . S
C695 C67 1.539 1_554 S
C710 C19 1.507 . S
C722 C90 1.543 . S
C737 C113 1.542 1_556 S
C749 C180 1.506 . S
C764 C157 1.453 . S
C776 C136 1.529 . S
C791 C134 1.507 . S
C803 C159 1.536 1_554 S
C818 C182 1.548 . S
C830 C111 1.446 . S
