# Generated by pormake.
# Topology umx, (4)-cn, num edge types: 1
# Building blocks:
#     Node 0, Type 0, BuildingBlock: QUQFOY_clean_sbu_1, # of connection points: 4
#     Node 1, Type 0, BuildingBlock: QUQFOY_clean_sbu_1, # of connection points: 4
#     Node 2, Type 0, BuildingBlock: QUQFOY_clean_sbu_1, # of connection points: 4
#     Node 3, Type 0, BuildingBlock: QUQFOY_clean_sbu_1, # of connection points: 4
#     Node 4, Type 0, BuildingBlock: QUQFOY_clean_sbu_1, # of connection points: 4
#     Node 5, Type 0, BuildingBlock: QUQFOY_clean_sbu_1, # of connection points: 4
#     Node 6, Type 0, BuildingBlock: QUQFOY_clean_sbu_1, # of connection points: 4
#     Node 7, Type 0, BuildingBlock: QUQFOY_clean_sbu_1, # of connection points: 4
#     Edge 8, Type (0, 0), BuildingBlock: XUDNAN_clean_linker_2, # of connection points: 2
#     Edge 9, Type (0, 0), BuildingBlock: XUDNAN_clean_linker_2, # of connection points: 2
#     Edge 10, Type (0, 0), BuildingBlock: XUDNAN_clean_linker_2, # of connection points: 2
#     Edge 11, Type (0, 0), BuildingBlock: XUDNAN_clean_linker_2, # of connection points: 2
#     Edge 12, Type (0, 0), BuildingBlock: XUDNAN_clean_linker_2, # of connection points: 2
#     Edge 13, Type (0, 0), BuildingBlock: XUDNAN_clean_linker_2, # of connection points: 2
#     Edge 14, Type (0, 0), BuildingBlock: XUDNAN_clean_linker_2, # of connection points: 2
#     Edge 15, Type (0, 0), BuildingBlock: XUDNAN_clean_linker_2, # of connection points: 2
#     Edge 16, Type (0, 0), BuildingBlock: XUDNAN_clean_linker_2, # of connection points: 2
#     Edge 17, Type (0, 0), BuildingBlock: XUDNAN_clean_linker_2, # of connection points: 2
#     Edge 18, Type (0, 0), BuildingBlock: XUDNAN_clean_linker_2, # of connection points: 2
#     Edge 19, Type (0, 0), BuildingBlock: XUDNAN_clean_linker_2, # of connection points: 2
#     Edge 20, Type (0, 0), BuildingBlock: XUDNAN_clean_linker_2, # of connection points: 2
#     Edge 21, Type (0, 0), BuildingBlock: XUDNAN_clean_linker_2, # of connection points: 2
#     Edge 22, Type (0, 0), BuildingBlock: XUDNAN_clean_linker_2, # of connection points: 2
#     Edge 23, Type (0, 0), BuildingBlock: XUDNAN_clean_linker_2, # of connection points: 2
# Relax obj value: 0.071
# Max RMSD: 0.141
# Mean RMSD: 0.140
data_MOF--net-umx--node1-QUQFOY_clean_sbu_1--edge1-XUDNAN_clean_linker_2
_symmetry_space_group_name_H-M    P1
_symmetry_Int_Tables_number       1
_symmetry_cell_setting            triclinic
loop_
_symmetry_equiv_pos_as_xyz
'x, y, z'
_cell_length_a     40.250566
_cell_length_b     40.137892
_cell_length_c     28.604248
_cell_angle_alpha  90.007429
_cell_angle_beta   90.152359
_cell_angle_gamma 90.008732
loop_
_atom_site_label
_atom_site_type_symbol
_atom_site_fract_x
_atom_site_fract_y
_atom_site_fract_z
_atom_type_partial_charge
O0 O 0.20205 0.45224 0.12331 0.0
Cd1 Cd 0.18238 0.43645 0.06056 0.0
Cd2 Cd 0.20787 0.49468 0.03404 0.0
O3 O 0.23154 0.495 0.09836 0.0
O4 O 0.17824 0.38744 0.07062 0.0
O5 O 0.21353 0.40969 0.02032 0.0
C6 C 0.20281 0.38365 0.0422 0.0
C7 C 0.23344 0.50305 0.96196 0.0
C8 C 0.22292 0.47534 0.13099 0.0
C9 C 0.13335 0.48857 0.03413 0.0
O10 O 0.15856 0.50764 0.03421 0.0
O11 O 0.13704 0.45727 0.0398 0.0
O12 O 0.22988 0.52716 0.99139 0.0
O13 O 0.22454 0.47352 0.97492 0.0
O14 O 0.58607 0.20276 0.6304 0.0
Cd15 Cd 0.60086 0.18878 0.56424 0.0
Cd16 Cd 0.53691 0.20056 0.54668 0.0
O17 O 0.5373 0.22398 0.6115 0.0
O18 O 0.65055 0.18953 0.56696 0.0
O19 O 0.62095 0.22585 0.52622 0.0
C20 C 0.64954 0.21597 0.54142 0.0
C21 C 0.52421 0.22455 0.47448 0.0
C22 C 0.56007 0.21882 0.64166 0.0
C23 C 0.55761 0.1302 0.5397 0.0
O24 O 0.53311 0.14944 0.54702 0.0
O25 O 0.58709 0.14181 0.53979 0.0
O26 O 0.50122 0.21809 0.50459 0.0
O27 O 0.55475 0.21961 0.48684 0.0
O28 O 0.81235 0.56544 0.10812 0.0
Cd29 Cd 0.83404 0.59038 0.05287 0.0
Cd30 Cd 0.8284 0.527 0.01871 0.0
O31 O 0.80455 0.51485 0.07986 0.0
O32 O 0.83198 0.63694 0.07734 0.0
O33 O 0.80413 0.62068 1.01482 0.0
C34 C 0.8105 0.6436 0.04524 0.0
C35 C 0.80339 0.5259 0.94555 0.0
C36 C 0.80163 0.53587 0.11275 0.0
C37 C 0.89733 0.55347 0.02788 0.0
O38 O 0.87936 0.52791 0.02093 0.0
O39 O 0.88403 0.5814 0.03792 0.0
O40 O 0.81411 0.49887 0.96498 0.0
O41 O 0.80572 0.55345 0.96882 0.0
O42 O 0.45049 0.82429 0.61422 0.0
Cd43 Cd 0.43227 0.84711 0.55505 0.0
Cd44 Cd 0.48997 0.82162 0.52221 0.0
O45 O 0.49366 0.79709 0.58572 0.0
O46 O 0.38388 0.85124 0.56971 0.0
O47 O 0.40341 0.81812 0.51446 0.0
C48 C 0.3786 0.82799 0.53941 0.0
C49 C 0.48891 0.79682 0.4487 0.0
C50 C 0.47436 0.80393 0.61953 0.0
C51 C 0.48339 0.89664 0.52579 0.0
O52 O 0.50207 0.87129 0.52158 0.0
O53 O 0.45278 0.89302 0.53602 0.0
O54 O 0.51657 0.80046 0.47116 0.0
O55 O 0.46174 0.80522 0.46955 0.0
O56 O 0.21094 0.57049 0.45476 0.0
Cd57 Cd 0.19023 0.59758 0.50876 0.0
Cd58 Cd 0.19767 0.53769 0.55173 0.0
O59 O 0.22204 0.52347 0.4915 0.0
O60 O 0.19707 0.64489 0.4886 0.0
O61 O 0.21912 0.62373 0.55311 0.0
C62 C 0.21569 0.64861 0.52494 0.0
C63 C 0.22182 0.53468 0.62585 0.0
C64 C 0.22291 0.54118 0.45464 0.0
C65 C 0.12774 0.5623 0.53739 0.0
O66 O 0.14646 0.53813 0.54886 0.0
O67 O 0.14023 0.58959 0.52292 0.0
O68 O 0.21044 0.50836 0.60537 0.0
O69 O 0.22059 0.56256 0.60329 0.0
O70 O 0.45937 0.21744 0.96142 0.0
Cd71 Cd 0.43069 0.19283 1.00934 0.0
Cd72 Cd 0.48762 0.19681 0.06019 0.0
O73 O 0.50594 0.22184 1.0017 0.0
O74 O 0.38451 0.20194 0.98644 0.0
O75 O 0.40266 0.21739 0.05633 0.0
C76 C 0.37925 0.21718 0.02537 0.0
C77 C 0.48993 0.21811 0.13646 0.0
C78 C 0.48953 0.22649 0.96409 0.0
C79 C 0.4642 0.12818 0.03188 0.0
O80 O 0.48555 0.14553 0.0539 0.0
O81 O 0.43947 0.14195 1.01182 0.0
O82 O 0.51608 0.20632 0.11632 0.0
O83 O 0.46271 0.2191 0.11243 0.0
O84 O 0.82963 0.45568 0.44114 0.0
Cd85 Cd 0.84757 0.43752 0.50348 0.0
Cd86 Cd 0.81938 0.49173 0.53662 0.0
O87 O 0.79431 0.49077 0.47337 0.0
O88 O 0.84882 0.38773 0.49918 0.0
O89 O 0.81233 0.41578 0.54182 0.0
C90 C 0.82256 0.3877 0.52511 0.0
C91 C 0.79401 0.49982 0.60909 0.0
C92 C 0.80548 0.47593 0.43735 0.0
C93 C 0.89399 0.48985 0.53449 0.0
O94 O 0.86793 0.50772 0.53483 0.0
O95 O 0.89165 0.45851 0.52816 0.0
O96 O 0.79637 0.52377 0.5792 0.0
O97 O 0.80423 0.47068 0.5966 0.0
O98 O 0.56658 0.81545 0.94198 0.0
Cd99 Cd 0.58969 0.8396 0.99602 0.0
Cd100 Cd 0.5312 0.8282 0.03938 0.0
O101 O 0.52027 0.80218 0.97833 0.0
O102 O 0.63784 0.83262 0.98294 0.0
O103 O 0.61258 0.81315 0.04618 0.0
C104 C 0.639 0.81511 0.02073 0.0
C105 C 0.5182 0.80545 0.1125 0.0
C106 C 0.53829 0.80154 0.94184 0.0
C107 C 0.55019 0.89993 0.01948 0.0
O108 O 0.52879 0.87963 0.03543 0.0
O109 O 0.57754 0.88954 1.00263 0.0
O110 O 0.49541 0.8156 0.08419 0.0
O111 O 0.5487 0.80726 0.09878 0.0
H112 H 0.22956 0.53397 0.17842 0.0
H113 H 0.24084 0.42714 0.19264 0.0
H114 H 0.25183 0.43386 0.27715 0.0
H115 H 0.28985 0.55991 0.2732 0.0
H116 H 0.26284 0.5931 0.29202 0.0
H117 H 0.26351 0.5808 0.23139 0.0
H118 H 0.19987 0.57122 0.23367 0.0
H119 H 0.19902 0.58326 0.29414 0.0
H120 H 0.18273 0.54331 0.2767 0.0
H121 H 0.25354 0.45105 0.36093 0.0
H122 H 0.24296 0.47689 0.43775 0.0
H123 H 0.22798 0.57245 0.36977 0.0
C124 C 0.23577 0.51224 0.19911 0.0
C125 C 0.23513 0.48012 0.17913 0.0
C126 C 0.24174 0.45198 0.20742 0.0
C127 C 0.24811 0.45558 0.25535 0.0
C128 C 0.24748 0.4875 0.27451 0.0
C129 C 0.24146 0.51538 0.24728 0.0
C130 C 0.2372 0.54616 0.27735 0.0
C131 C 0.26502 0.57149 0.26793 0.0
C132 C 0.20266 0.56188 0.27003 0.0
C133 C 0.24056 0.53103 0.32566 0.0
C134 C 0.24723 0.49732 0.32327 0.0
C135 C 0.24888 0.47755 0.3633 0.0
C136 C 0.2428 0.49245 0.40683 0.0
C137 C 0.23469 0.52673 0.40993 0.0
C138 C 0.23444 0.54627 0.36876 0.0
H139 H 0.50199 0.23104 0.68887 0.0
H140 H 0.60906 0.2296 0.70607 0.0
H141 H 0.60261 0.24094 0.79034 0.0
H142 H 0.48351 0.29515 0.78061 0.0
H143 H 0.4467 0.2733 0.79916 0.0
H144 H 0.4598 0.27111 0.73901 0.0
H145 H 0.46053 0.20662 0.74382 0.0
H146 H 0.44742 0.20864 0.80374 0.0
H147 H 0.4849 0.18659 0.7887 0.0
H148 H 0.58451 0.245 0.87417 0.0
H149 H 0.55617 0.23866 0.95021 0.0
H150 H 0.46097 0.23718 0.87853 0.0
C151 C 0.52407 0.23419 0.71012 0.0
C152 C 0.55603 0.22977 0.69081 0.0
C153 C 0.58432 0.23302 0.72007 0.0
C154 C 0.58092 0.23965 0.76798 0.0
C155 C 0.54904 0.243 0.78625 0.0
C156 C 0.52109 0.24044 0.75818 0.0
C157 C 0.48968 0.24107 0.78721 0.0
C158 C 0.46869 0.27201 0.77581 0.0
C159 C 0.46947 0.20882 0.78047 0.0
C160 C 0.50435 0.24322 0.83597 0.0
C161 C 0.5386 0.24493 0.83473 0.0
C162 C 0.55766 0.24428 0.87559 0.0
C163 C 0.54133 0.24075 0.91871 0.0
C164 C 0.50631 0.23758 0.92058 0.0
C165 C 0.48773 0.23996 0.87858 0.0
H166 H 0.82062 0.44565 0.35434 0.0
H167 H 0.76149 0.52541 0.41395 0.0
H168 H 0.74611 0.54394 0.33457 0.0
H169 H 0.85505 0.49078 0.26658 0.0
H170 H 0.85459 0.45834 0.223 0.0
H171 H 0.85592 0.4476 0.28392 0.0
H172 H 0.80288 0.41165 0.27396 0.0
H173 H 0.80142 0.42225 0.21273 0.0
H174 H 0.7659 0.43004 0.24938 0.0
H175 H 0.74626 0.5602 0.25066 0.0
H176 H 0.75987 0.57138 0.16794 0.0
H177 H 0.81616 0.47954 0.16168 0.0
C178 C 0.80368 0.46645 0.35078 0.0
C179 C 0.79226 0.48407 0.3904 0.0
C180 C 0.77043 0.5114 0.38418 0.0
C181 C 0.76147 0.52206 0.33919 0.0
C182 C 0.77406 0.50478 0.30084 0.0
C183 C 0.79432 0.47724 0.30618 0.0
C184 C 0.80716 0.46502 0.25948 0.0
C185 C 0.84543 0.46549 0.2582 0.0
C186 C 0.79351 0.43017 0.24823 0.0
C187 C 0.79241 0.49105 0.22724 0.0
C188 C 0.77307 0.51354 0.25176 0.0
C189 C 0.7604 0.5422 0.23079 0.0
C190 C 0.76829 0.54839 0.18391 0.0
C191 C 0.78832 0.52587 0.15847 0.0
C192 C 0.79973 0.49642 0.18002 0.0
H193 H 0.57055 0.79765 0.85801 0.0
H194 H 0.47573 0.77709 0.92393 0.0
H195 H 0.45123 0.76534 0.84647 0.0
H196 H 0.54014 0.84251 0.76795 0.0
H197 H 0.56878 0.82803 0.72408 0.0
H198 H 0.58073 0.82758 0.78459 0.0
H199 H 0.59346 0.76442 0.77937 0.0
H200 H 0.58172 0.76468 0.71848 0.0
H201 H 0.56191 0.73622 0.75839 0.0
H202 H 0.43453 0.76743 0.7627 0.0
H203 H 0.42742 0.78087 0.67903 0.0
H204 H 0.53323 0.79822 0.66659 0.0
C205 C 0.54491 0.78955 0.85642 0.0
C206 C 0.52509 0.78819 0.89717 0.0
C207 C 0.4915 0.77806 0.89335 0.0
C208 C 0.47738 0.77129 0.84944 0.0
C209 C 0.49729 0.77428 0.8098 0.0
C210 C 0.5305 0.78272 0.81295 0.0
C211 C 0.54554 0.78811 0.765 0.0
C212 C 0.5596 0.82366 0.76015 0.0
C213 C 0.57224 0.76178 0.75471 0.0
C214 C 0.51521 0.78309 0.73439 0.0
C215 C 0.48772 0.77468 0.76092 0.0
C216 C 0.45602 0.77295 0.7414 0.0
C217 C 0.45219 0.78071 0.69394 0.0
C218 C 0.47991 0.78982 0.66643 0.0
C219 C 0.5119 0.79011 0.6866 0.0
H220 H 0.80093 0.45902 0.68516 0.0
H221 H 0.76518 0.55655 0.6433 0.0
H222 H 0.7566 0.57134 0.72617 0.0
H223 H 0.74662 0.44892 0.79062 0.0
H224 H 0.77955 0.4291 0.82315 0.0
H225 H 0.77722 0.42414 0.76058 0.0
H226 H 0.83753 0.44607 0.75309 0.0
H227 H 0.83997 0.45134 0.8154 0.0
H228 H 0.84801 0.4862 0.77735 0.0
H229 H 0.75981 0.57848 0.81322 0.0
H230 H 0.77362 0.57693 0.89742 0.0
H231 H 0.80721 0.47476 0.88255 0.0
C232 C 0.79021 0.48307 0.69332 0.0
C233 C 0.78343 0.50652 0.65772 0.0
C234 C 0.77032 0.53808 0.66996 0.0
C235 C 0.76531 0.5467 0.71696 0.0
C236 C 0.77337 0.52342 0.75133 0.0
C237 C 0.78526 0.49211 0.74006 0.0
C238 C 0.79528 0.47295 0.78349 0.0
C239 C 0.77335 0.44194 0.78983 0.0
C240 C 0.83239 0.46362 0.78223 0.0
C241 C 0.78826 0.49876 0.82079 0.0
C242 C 0.77525 0.52756 0.80163 0.0
C243 C 0.76935 0.55582 0.82875 0.0
C244 C 0.77736 0.55475 0.87653 0.0
C245 C 0.79121 0.52564 0.89667 0.0
C246 C 0.79607 0.49717 0.86843 0.0
H247 H 0.55865 0.80182 0.18986 0.0
H248 H 0.45736 0.78525 0.14314 0.0
H249 H 0.44051 0.77326 0.22425 0.0
H250 H 0.55888 0.73912 0.28681 0.0
H251 H 0.58305 0.76588 0.32439 0.0
H252 H 0.58839 0.76782 0.26189 0.0
H253 H 0.57605 0.83117 0.26358 0.0
H254 H 0.57065 0.82941 0.3259 0.0
H255 H 0.53791 0.84576 0.28941 0.0
H256 H 0.43299 0.77034 0.31068 0.0
H257 H 0.43529 0.77757 0.39633 0.0
H258 H 0.54133 0.79597 0.3878 0.0
C259 C 0.53316 0.79465 0.19656 0.0
C260 C 0.50937 0.79413 0.16013 0.0
C261 C 0.47604 0.78562 0.17047 0.0
C262 C 0.46625 0.77864 0.21643 0.0
C263 C 0.49008 0.7802 0.25176 0.0
C264 C 0.5229 0.78788 0.24242 0.0
C265 C 0.54278 0.79131 0.28727 0.0
C266 C 0.56988 0.76442 0.29025 0.0
C267 C 0.5577 0.8265 0.29179 0.0
C268 C 0.5158 0.7854 0.32324 0.0
C269 C 0.48568 0.77859 0.30199 0.0
C270 C 0.45655 0.77501 0.32777 0.0
C271 C 0.45809 0.7792 0.37642 0.0
C272 C 0.48853 0.78694 0.39882 0.0
C273 C 0.51784 0.78928 0.37184 0.0
H274 H 0.22429 0.46354 0.88484 0.0
H275 H 0.26359 0.55924 0.92868 0.0
H276 H 0.27142 0.57513 0.84609 0.0
H277 H 0.27669 0.45356 0.77737 0.0
H278 H 0.24271 0.43535 0.7451 0.0
H279 H 0.24571 0.42926 0.80741 0.0
H280 H 0.18627 0.45294 0.81723 0.0
H281 H 0.18318 0.45938 0.75519 0.0
H282 H 0.17676 0.49379 0.79464 0.0
H283 H 0.26752 0.58377 0.75948 0.0
H284 H 0.25317 0.58398 0.67546 0.0
H285 H 0.21618 0.48279 0.68765 0.0
C286 C 0.23567 0.48735 0.87709 0.0
C287 C 0.2437 0.51001 0.91324 0.0
C288 C 0.25752 0.54137 0.9016 0.0
C289 C 0.2621 0.55061 0.85475 0.0
C290 C 0.25281 0.52819 0.81988 0.0
C291 C 0.24014 0.49707 0.83046 0.0
C292 C 0.22894 0.47899 0.78662 0.0
C293 C 0.24977 0.44742 0.77866 0.0
C294 C 0.19158 0.47082 0.78856 0.0
C295 C 0.23629 0.50521 0.74995 0.0
C296 C 0.25042 0.53325 0.76977 0.0
C297 C 0.25706 0.56171 0.74343 0.0
C298 C 0.24873 0.56163 0.69573 0.0
C299 C 0.23382 0.53332 0.67485 0.0
C300 C 0.22809 0.50462 0.70234 0.0
H301 H 0.56265 0.21825 0.39594 0.0
H302 H 0.46518 0.24979 0.44268 0.0
H303 H 0.44763 0.25733 0.36052 0.0
H304 H 0.56773 0.27254 0.29056 0.0
H305 H 0.58778 0.24049 0.25667 0.0
H306 H 0.59419 0.24245 0.319 0.0
H307 H 0.57451 0.18124 0.32663 0.0
H308 H 0.56783 0.17915 0.26451 0.0
H309 H 0.53432 0.16957 0.30396 0.0
H310 H 0.43877 0.25571 0.27335 0.0
H311 H 0.43919 0.24459 0.1884 0.0
H312 H 0.54208 0.21294 0.19829 0.0
C313 C 0.53797 0.22777 0.38893 0.0
C314 C 0.51542 0.23389 0.4258 0.0
C315 C 0.48297 0.24525 0.41506 0.0
C316 C 0.47279 0.24963 0.36846 0.0
C317 C 0.4953 0.24248 0.33288 0.0
C318 C 0.52728 0.2319 0.34256 0.0
C319 C 0.5456 0.2229 0.29803 0.0
C320 C 0.5756 0.24598 0.29063 0.0
C321 C 0.55617 0.18604 0.29833 0.0
C322 C 0.51872 0.22936 0.2619 0.0
C323 C 0.49002 0.24101 0.28265 0.0
C324 C 0.46126 0.24701 0.25667 0.0
C325 C 0.46173 0.24058 0.20839 0.0
C326 C 0.4907 0.22808 0.18649 0.0
C327 C 0.51964 0.22289 0.21375 0.0
H328 H 0.93428 0.49595 0.02932 0.0
H329 H 0.94337 0.60361 0.0216 0.0
H330 H 1.00448 0.59813 0.01905 0.0
H331 H 1.00366 0.48333 0.10524 0.0
H332 H 0.01644 0.44486 0.07821 0.0
H333 H 0.97339 0.45704 0.07686 0.0
H334 H 0.9732 0.45244 0.98653 0.0
H335 H 0.01627 0.44025 0.98757 0.0
H336 H 1.00332 0.47556 0.95311 0.0
H337 H 0.06416 0.58119 1.01843 0.0
H338 H 0.11898 0.55453 0.02322 0.0
H339 H 0.07177 0.45744 0.03371 0.0
C340 C 0.94908 0.51839 0.02663 0.0
C341 C 0.93399 0.55026 0.02534 0.0
C342 C 0.95432 0.57898 0.02258 0.0
C343 C 0.98905 0.57609 0.02098 0.0
C344 C 1.00307 0.54434 0.0225 0.0
C345 C 0.98379 0.51598 0.0255 0.0
C346 C 1.0052 0.48492 0.02862 0.0
C347 C 0.99932 0.46646 0.07499 0.0
C348 C 0.99913 0.46194 0.98644 0.0
C349 C 0.03961 0.50026 0.02704 0.0
C350 C 0.03769 0.53455 0.02316 0.0
C351 C 0.06598 0.55438 0.02145 0.0
C352 C 0.09707 0.53888 0.0242 0.0
C353 C 0.09986 0.50377 0.02892 0.0
C354 C 0.07059 0.48426 0.03003 0.0
H355 H 0.45584 0.9585 0.54516 0.0
H356 H 0.54555 0.91078 0.49393 0.0
H357 H 0.57315 0.96524 0.48933 0.0
H358 H 0.46325 0.03426 0.47348 0.0
H359 H 0.44802 0.06113 0.51913 0.0
H360 H 0.43425 0.01846 0.516 0.0
H361 H 0.45379 1.00902 0.60135 0.0
H362 H 0.46775 0.05158 0.60465 0.0
H363 H 0.49625 0.01808 0.61708 0.0
H364 H 0.59272 0.02391 0.49492 0.0
H365 H 0.60207 0.08401 0.50753 0.0
H366 H 0.49991 0.09475 0.55367 0.0
C367 C 0.48111 0.95958 0.53237 0.0
C368 C 0.49844 0.9302 0.51999 0.0
C369 C 0.53165 0.93277 0.5038 0.0
C370 C 0.54763 0.96366 0.50096 0.0
C371 C 0.53015 0.99199 0.51417 0.0
C372 C 0.49757 0.99038 0.52924 0.0
C373 C 0.48495 0.02471 0.54259 0.0
C374 C 0.4559 0.03526 0.5109 0.0
C375 C 0.47511 0.0259 0.5945 0.0
C376 C 0.51568 0.0456 0.53328 0.0
C377 C 0.54142 0.02618 0.51686 0.0
C378 C 0.57267 0.0395 0.50735 0.0
C379 C 0.57778 0.07365 0.51478 0.0
C380 C 0.55174 0.09419 0.53139 0.0
C381 C 0.52026 0.07984 0.54052 0.0
H382 H 0.09257 0.50381 0.54241 0.0
H383 H 0.0802 0.6112 0.5369 0.0
H384 H 0.01925 0.60402 0.53933 0.0
H385 H 0.02447 0.48454 0.46715 0.0
H386 H 1.01255 0.44744 0.49841 0.0
H387 H 0.05519 0.46101 0.49912 0.0
H388 H 0.05448 0.46186 0.58967 0.0
H389 H 1.0118 0.44831 0.58926 0.0
H390 H 0.02331 0.48594 0.61964 0.0
H391 H 0.96002 0.58531 0.54155 0.0
H392 H 0.90608 0.55667 0.5388 0.0
H393 H 0.95642 0.46091 0.53979 0.0
C394 C 0.07707 0.52586 0.54221 0.0
C395 C 0.09119 0.55814 0.53983 0.0
C396 C 0.06998 0.58628 0.5388 0.0
C397 C 0.03535 0.58243 0.54031 0.0
C398 C 0.02229 0.55029 0.54248 0.0
C399 C 0.04244 0.52247 0.54312 0.0
C400 C 0.02201 0.49067 0.54327 0.0
C401 C 0.02897 0.46969 0.49937 0.0
C402 C 0.02828 0.47051 0.58814 0.0
C403 C 0.98715 0.50497 0.5424 0.0
C404 C 0.98798 0.53941 0.54243 0.0
C405 C 0.95907 0.55836 0.54151 0.0
C406 C 0.92849 0.54176 0.54001 0.0
C407 C 0.92686 0.50643 0.53902 0.0
C408 C 0.95673 0.48788 0.54054 0.0
H409 H 0.53639 0.94635 0.08732 0.0
H410 H 0.54033 0.93135 0.93743 0.0
H411 H 0.5151 0.98687 0.9249 0.0
H412 H 0.46027 0.99114 0.09265 0.0
H413 H 0.47378 0.02047 0.13647 0.0
H414 H 0.49188 0.97945 0.13429 0.0
H415 H 0.55076 1.00506 0.12751 0.0
H416 H 0.53289 0.04613 0.13067 0.0
H417 H 0.55911 0.03505 0.08211 0.0
H418 H 0.48466 0.04125 0.92903 0.0
H419 H 0.46245 0.09702 0.94812 0.0
H420 H 0.48449 0.08042 0.09472 0.0
C421 C 0.53239 0.95516 0.05196 0.0
C422 C 0.54031 0.93491 1.01319 0.0
C423 C 0.5347 0.94686 0.96738 0.0
C424 C 0.52011 0.97814 0.96001 0.0
C425 C 0.51194 0.99736 0.99889 0.0
C426 C 0.5188 0.98686 0.04393 0.0
C427 C 0.50916 1.01328 0.07935 0.0
C428 C 0.48217 1.0003 0.11265 0.0
C429 C 0.53981 0.02562 0.1065 0.0
C430 C 0.49555 0.04009 0.04717 0.0
C431 C 0.49661 0.02995 1.00101 0.0
C432 C 0.48409 0.04967 0.96496 0.0
C433 C 0.4712 0.08111 0.97616 0.0
C434 C 0.47172 0.09282 0.0228 0.0
C435 C 0.48379 0.07193 0.05879 0.0
H436 H 0.24999 0.3635 0.97835 0.0
H437 H 0.1986 0.33224 0.10412 0.0
H438 H 0.23627 0.28413 0.11126 0.0
H439 H 0.26606 0.27721 0.93417 0.0
H440 H 0.30603 0.28873 0.91094 0.0
H441 H 0.27303 0.31902 0.91336 0.0
H442 H 0.31131 0.35866 0.96048 0.0
H443 H 0.34424 0.32838 0.95877 0.0
H444 H 0.32993 0.34419 1.01416 0.0
H445 H 0.28525 0.24512 0.11226 0.0
H446 H 0.33678 0.21246 0.09932 0.0
H447 H 0.35297 0.26491 0.96904 0.0
C448 C 0.24609 0.34602 1.00663 0.0
C449 C 0.22126 0.35167 0.0406 0.0
C450 C 0.2172 0.32835 0.07739 0.0
C451 C 0.23862 0.30098 0.08193 0.0
C452 C 0.26355 0.29674 0.0488 0.0
C453 C 0.26684 0.31808 1.01113 0.0
C454 C 0.29621 0.30824 0.98102 0.0
C455 C 0.28463 0.29766 0.93196 0.0
C456 C 0.32193 0.33655 0.97849 0.0
C457 C 0.30948 0.27876 1.00848 0.0
C458 C 0.29048 0.27272 0.04774 0.0
C459 C 0.29978 0.24895 0.08094 0.0
C460 C 0.32906 0.23066 0.07352 0.0
C461 C 0.34817 0.23579 0.0328 0.0
C462 C 0.33813 0.25996 0.99981 0.0
H463 H 0.7555 0.38352 0.53597 0.0
H464 H 0.84426 0.32295 0.52421 0.0
H465 H 0.80961 0.27189 0.526 0.0
H466 H 0.70796 0.32876 0.61127 0.0
H467 H 0.66931 0.33727 0.58163 0.0
H468 H 0.70148 0.36843 0.58314 0.0
H469 H 0.70013 0.37156 0.49266 0.0
H470 H 0.66829 0.34006 0.49083 0.0
H471 H 0.70639 0.33415 0.45892 0.0
H472 H 0.76474 0.22748 0.53052 0.0
H473 H 0.71342 0.1935 0.53434 0.0
H474 H 0.65413 0.28364 0.53495 0.0
C475 C 0.76769 0.35948 0.53474 0.0
C476 C 0.80259 0.35706 0.53087 0.0
C477 C 0.81758 0.32524 0.52776 0.0
C478 C 0.79809 0.29618 0.52862 0.0
C479 C 0.76364 0.29946 0.53162 0.0
C480 C 0.74859 0.33034 0.53433 0.0
C481 C 0.71108 0.32724 0.53473 0.0
C482 C 0.69661 0.34125 0.58041 0.0
C483 C 0.69557 0.34426 0.49172 0.0
C484 C 0.70729 0.28975 0.5322 0.0
C485 C 0.73789 0.27412 0.53092 0.0
C486 C 0.74067 0.23948 0.53095 0.0
C487 C 0.71144 0.22039 0.533 0.0
C488 C 0.6799 0.23597 0.534 0.0
C489 C 0.6779 0.27108 0.53296 0.0
H490 H 0.77154 0.67167 0.97615 0.0
H491 H 0.80473 0.68579 0.11929 0.0
H492 H 0.76669 0.73349 0.1275 0.0
H493 H 0.76241 0.7619 0.94956 0.0
H494 H 0.72628 0.75511 0.91342 0.0
H495 H 0.75783 0.72339 0.91775 0.0
H496 H 0.71327 0.68069 0.94369 0.0
H497 H 0.68167 0.71228 0.93982 0.0
H498 H 0.68768 0.68981 0.99373 0.0
H499 H 0.71915 0.7741 0.12405 0.0
H500 H 0.67083 0.81007 0.10495 0.0
H501 H 0.67253 0.774 0.96224 0.0
C502 C 0.77128 0.68525 1.00886 0.0
C503 C 0.79115 0.67498 0.04704 0.0
C504 C 0.78996 0.6933 0.08939 0.0
C505 C 0.76831 0.72039 0.09452 0.0
C506 C 0.74847 0.72941 0.05665 0.0
C507 C 0.7503 0.71291 1.01427 0.0
C508 C 0.72589 0.72741 0.97934 0.0
C509 C 0.74421 0.74288 0.93755 0.0
C510 C 0.70064 0.70097 0.96322 0.0
C511 C 0.70949 0.75396 1.00911 0.0
C512 C 0.72263 0.75449 0.05378 0.0
C513 C 0.70926 0.77461 0.08884 0.0
C514 C 0.68184 0.79483 0.07784 0.0
C515 C 0.66873 0.79528 0.03199 0.0
C516 C 0.6829 0.77481 0.99721 0.0
H517 H 0.35645 0.78269 0.47411 0.0
H518 H 0.32949 0.83022 0.60491 0.0
H519 H 0.28237 0.79146 0.61323 0.0
H520 H 0.26904 0.76556 0.43525 0.0
H521 H 0.28063 0.72637 0.40919 0.0
H522 H 0.31002 0.76024 0.41109 0.0
H523 H 0.3523 0.72189 0.4532 0.0
H524 H 0.32295 0.6881 0.45213 0.0
H525 H 0.34053 0.70165 0.50694 0.0
H526 H 0.24457 0.74149 0.61432 0.0
H527 H 0.2129 0.68924 0.60118 0.0
H528 H 0.26049 0.67731 0.46661 0.0
C529 C 0.34003 0.78559 0.50377 0.0
C530 C 0.34666 0.80958 0.53879 0.0
C531 C 0.32479 0.8123 0.57737 0.0
C532 C 0.29801 0.79025 0.58257 0.0
C533 C 0.29293 0.76606 0.54837 0.0
C534 C 0.31276 0.76417 0.50905 0.0
C535 C 0.30255 0.73517 0.47822 0.0
C536 C 0.28979 0.74759 0.43062 0.0
C537 C 0.3313 0.71024 0.4723 0.0
C538 C 0.27466 0.72043 0.5071 0.0
C539 C 0.26967 0.73845 0.54767 0.0
C540 C 0.24756 0.72773 0.58207 0.0
C541 C 0.22985 0.69804 0.57453 0.0
C542 C 0.23392 0.67992 0.5326 0.0
C543 C 0.25641 0.69136 0.49842 0.0
loop_
_geom_bond_atom_site_label_1
_geom_bond_atom_site_label_2
_geom_bond_distance
_geom_bond_site_symmetry_2
_ccdc_geom_bond_type
O0 Cd1 2.223 . S
O0 C8 1.315 . S
Cd1 O0 2.223 . S
Cd1 O4 2.297 . S
Cd1 O5 2.439 . S
Cd1 O11 2.240 . S
Cd2 O3 2.240 . S
Cd2 O10 2.223 . S
Cd2 O12 2.297 1_554 S
Cd2 O13 2.439 1_554 S
O3 Cd2 2.240 . S
O3 C8 1.279 . S
O4 Cd1 2.297 . S
O4 C6 1.247 . S
O5 Cd1 2.439 . S
O5 C6 1.208 . S
C6 O4 1.247 . S
C6 O5 1.208 . S
C7 O12 1.247 . S
C7 O13 1.208 . S
C8 O0 1.315 . S
C8 O3 1.279 . S
C9 O10 1.315 . S
C9 O11 1.279 . S
O10 Cd2 2.223 . S
O10 C9 1.315 . S
O11 Cd1 2.240 . S
O11 C9 1.279 . S
O12 Cd2 2.297 1_556 S
O12 C7 1.247 . S
O13 Cd2 2.439 1_556 S
O13 C7 1.208 . S
O14 Cd15 2.223 . S
O14 C22 1.315 . S
Cd15 O14 2.223 . S
Cd15 O18 2.297 . S
Cd15 O19 2.439 . S
Cd15 O25 2.240 . S
Cd16 O17 2.240 . S
Cd16 O24 2.223 . S
Cd16 O26 2.297 . S
Cd16 O27 2.439 . S
O17 Cd16 2.240 . S
O17 C22 1.279 . S
O18 Cd15 2.297 . S
O18 C20 1.247 . S
O19 Cd15 2.439 . S
O19 C20 1.208 . S
C20 O18 1.247 . S
C20 O19 1.208 . S
C21 O26 1.247 . S
C21 O27 1.208 . S
C22 O14 1.315 . S
C22 O17 1.279 . S
C23 O24 1.315 . S
C23 O25 1.279 . S
O24 Cd16 2.223 . S
O24 C23 1.315 . S
O25 Cd15 2.240 . S
O25 C23 1.279 . S
O26 Cd16 2.297 . S
O26 C21 1.247 . S
O27 Cd16 2.439 . S
O27 C21 1.208 . S
O28 Cd29 2.223 . S
O28 C36 1.315 . S
Cd29 O28 2.223 . S
Cd29 O32 2.297 . S
Cd29 O33 2.439 . S
Cd29 O39 2.240 . S
Cd30 O31 2.240 . S
Cd30 O38 2.223 . S
Cd30 O40 2.297 1_554 S
Cd30 O41 2.439 1_554 S
O31 Cd30 2.240 . S
O31 C36 1.279 . S
O32 Cd29 2.297 . S
O32 C34 1.247 . S
O33 Cd29 2.439 . S
O33 C34 1.208 . S
C34 O32 1.247 . S
C34 O33 1.208 . S
C35 O40 1.247 . S
C35 O41 1.208 . S
C36 O28 1.315 . S
C36 O31 1.279 . S
C37 O38 1.315 . S
C37 O39 1.279 . S
O38 Cd30 2.223 . S
O38 C37 1.315 . S
O39 Cd29 2.240 . S
O39 C37 1.279 . S
O40 Cd30 2.297 1_556 S
O40 C35 1.247 . S
O41 Cd30 2.439 1_556 S
O41 C35 1.208 . S
O42 Cd43 2.223 . S
O42 C50 1.315 . S
Cd43 O42 2.223 . S
Cd43 O46 2.297 . S
Cd43 O47 2.439 . S
Cd43 O53 2.240 . S
Cd44 O45 2.240 . S
Cd44 O52 2.223 . S
Cd44 O54 2.297 . S
Cd44 O55 2.439 . S
O45 Cd44 2.240 . S
O45 C50 1.279 . S
O46 Cd43 2.297 . S
O46 C48 1.247 . S
O47 Cd43 2.439 . S
O47 C48 1.208 . S
C48 O46 1.247 . S
C48 O47 1.208 . S
C49 O54 1.247 . S
C49 O55 1.208 . S
C50 O42 1.315 . S
C50 O45 1.279 . S
C51 O52 1.315 . S
C51 O53 1.279 . S
O52 Cd44 2.223 . S
O52 C51 1.315 . S
O53 Cd43 2.240 . S
O53 C51 1.279 . S
O54 Cd44 2.297 . S
O54 C49 1.247 . S
O55 Cd44 2.439 . S
O55 C49 1.208 . S
O56 Cd57 2.223 . S
O56 C64 1.315 . S
Cd57 O56 2.223 . S
Cd57 O60 2.297 . S
Cd57 O61 2.439 . S
Cd57 O67 2.240 . S
Cd58 O59 2.240 . S
Cd58 O66 2.223 . S
Cd58 O68 2.297 . S
Cd58 O69 2.439 . S
O59 Cd58 2.240 . S
O59 C64 1.279 . S
O60 Cd57 2.297 . S
O60 C62 1.247 . S
O61 Cd57 2.439 . S
O61 C62 1.208 . S
C62 O60 1.247 . S
C62 O61 1.208 . S
C63 O68 1.247 . S
C63 O69 1.208 . S
C64 O56 1.315 . S
C64 O59 1.279 . S
C65 O66 1.315 . S
C65 O67 1.279 . S
O66 Cd58 2.223 . S
O66 C65 1.315 . S
O67 Cd57 2.240 . S
O67 C65 1.279 . S
O68 Cd58 2.297 . S
O68 C63 1.247 . S
O69 Cd58 2.439 . S
O69 C63 1.208 . S
O70 Cd71 2.223 . S
O70 C78 1.315 . S
Cd71 O70 2.223 . S
Cd71 O74 2.297 . S
Cd71 O75 2.439 1_556 S
Cd71 O81 2.240 1_556 S
Cd72 O73 2.240 1_554 S
Cd72 O80 2.223 . S
Cd72 O82 2.297 . S
Cd72 O83 2.439 . S
O73 Cd72 2.240 1_556 S
O73 C78 1.279 . S
O74 Cd71 2.297 . S
O74 C76 1.247 . S
O75 Cd71 2.439 1_554 S
O75 C76 1.208 1_554 S
C76 O74 1.247 . S
C76 O75 1.208 1_556 S
C77 O82 1.247 . S
C77 O83 1.208 . S
C78 O70 1.315 . S
C78 O73 1.279 . S
C79 O80 1.315 . S
C79 O81 1.279 . S
O80 Cd72 2.223 . S
O80 C79 1.315 . S
O81 Cd71 2.240 1_554 S
O81 C79 1.279 . S
O82 Cd72 2.297 . S
O82 C77 1.247 . S
O83 Cd72 2.439 . S
O83 C77 1.208 . S
O84 Cd85 2.223 . S
O84 C92 1.315 . S
Cd85 O84 2.223 . S
Cd85 O88 2.297 . S
Cd85 O89 2.439 . S
Cd85 O95 2.240 . S
Cd86 O87 2.240 . S
Cd86 O94 2.223 . S
Cd86 O96 2.297 . S
Cd86 O97 2.439 . S
O87 Cd86 2.240 . S
O87 C92 1.279 . S
O88 Cd85 2.297 . S
O88 C90 1.247 . S
O89 Cd85 2.439 . S
O89 C90 1.208 . S
C90 O88 1.247 . S
C90 O89 1.208 . S
C91 O96 1.247 . S
C91 O97 1.208 . S
C92 O84 1.315 . S
C92 O87 1.279 . S
C93 O94 1.315 . S
C93 O95 1.279 . S
O94 Cd86 2.223 . S
O94 C93 1.315 . S
O95 Cd85 2.240 . S
O95 C93 1.279 . S
O96 Cd86 2.297 . S
O96 C91 1.247 . S
O97 Cd86 2.439 . S
O97 C91 1.208 . S
O98 Cd99 2.223 . S
O98 C106 1.315 . S
Cd99 O98 2.223 . S
Cd99 O102 2.297 . S
Cd99 O103 2.439 1_556 S
Cd99 O109 2.240 1_556 S
Cd100 O101 2.240 1_554 S
Cd100 O108 2.223 . S
Cd100 O110 2.297 . S
Cd100 O111 2.439 . S
O101 Cd100 2.240 1_556 S
O101 C106 1.279 . S
O102 Cd99 2.297 . S
O102 C104 1.247 . S
O103 Cd99 2.439 1_554 S
O103 C104 1.208 1_554 S
C104 O102 1.247 . S
C104 O103 1.208 1_556 S
C105 O110 1.247 . S
C105 O111 1.208 . S
C106 O98 1.315 . S
C106 O101 1.279 . S
C107 O108 1.315 . S
C107 O109 1.279 . S
O108 Cd100 2.223 . S
O108 C107 1.315 . S
O109 Cd99 2.240 1_554 S
O109 C107 1.279 . S
O110 Cd100 2.297 . S
O110 C105 1.247 . S
O111 Cd100 2.439 . S
O111 C105 1.208 . S
H112 C124 0.930 . S
H113 C126 0.930 . S
H114 C127 0.930 . S
H115 C131 0.959 . S
H116 C131 0.959 . S
H117 C131 0.961 . S
H118 C132 0.960 . S
H119 C132 0.961 . S
H120 C132 0.959 . S
H121 C135 0.929 . S
H122 C136 0.931 . S
H123 C138 0.930 . S
C124 H112 0.930 . S
C124 C125 1.399 . S
C124 C129 1.399 . S
C125 C124 1.399 . S
C125 C126 1.376 . S
C126 H113 0.930 . S
C126 C125 1.376 . S
C126 C127 1.388 . S
C127 H114 0.930 . S
C127 C126 1.388 . S
C127 C128 1.390 . S
C128 C127 1.390 . S
C128 C129 1.394 . S
C128 C134 1.465 . S
C129 C124 1.399 . S
C129 C128 1.394 . S
C129 C130 1.516 . S
C130 C129 1.516 . S
C130 C131 1.502 . S
C130 C132 1.561 . S
C130 C133 1.526 . S
C131 H115 0.959 . S
C131 H116 0.959 . S
C131 H117 0.961 . S
C131 C130 1.502 . S
C132 H118 0.960 . S
C132 H119 0.961 . S
C132 H120 0.959 . S
C132 C130 1.561 . S
C133 C130 1.526 . S
C133 C134 1.396 . S
C133 C138 1.390 . S
C134 C128 1.465 . S
C134 C133 1.396 . S
C134 C135 1.399 . S
C135 H121 0.929 . S
C135 C134 1.399 . S
C135 C136 1.385 . S
C136 H122 0.931 . S
C136 C135 1.385 . S
C136 C137 1.389 . S
C137 C136 1.389 . S
C137 C138 1.387 . S
C138 H123 0.930 . S
C138 C133 1.390 . S
C138 C137 1.387 . S
H139 C151 0.930 . S
H140 C153 0.930 . S
H141 C154 0.930 . S
H142 C158 0.959 . S
H143 C158 0.959 . S
H144 C158 0.961 . S
H145 C159 0.960 . S
H146 C159 0.961 . S
H147 C159 0.959 . S
H148 C162 0.929 . S
H149 C163 0.931 . S
H150 C165 0.930 . S
C151 H139 0.930 . S
C151 C152 1.399 . S
C151 C156 1.399 . S
C152 C151 1.399 . S
C152 C153 1.376 . S
C153 H140 0.930 . S
C153 C152 1.376 . S
C153 C154 1.388 . S
C154 H141 0.930 . S
C154 C153 1.388 . S
C154 C155 1.390 . S
C155 C154 1.390 . S
C155 C156 1.394 . S
C155 C161 1.465 . S
C156 C151 1.399 . S
C156 C155 1.394 . S
C156 C157 1.516 . S
C157 C156 1.516 . S
C157 C158 1.502 . S
C157 C159 1.561 . S
C157 C160 1.526 . S
C158 H142 0.959 . S
C158 H143 0.959 . S
C158 H144 0.961 . S
C158 C157 1.502 . S
C159 H145 0.960 . S
C159 H146 0.961 . S
C159 H147 0.959 . S
C159 C157 1.561 . S
C160 C157 1.526 . S
C160 C161 1.396 . S
C160 C165 1.390 . S
C161 C155 1.465 . S
C161 C160 1.396 . S
C161 C162 1.399 . S
C162 H148 0.929 . S
C162 C161 1.399 . S
C162 C163 1.385 . S
C163 H149 0.931 . S
C163 C162 1.385 . S
C163 C164 1.389 . S
C164 C163 1.389 . S
C164 C165 1.387 . S
C165 H150 0.930 . S
C165 C160 1.390 . S
C165 C164 1.387 . S
H166 C178 0.930 . S
H167 C180 0.930 . S
H168 C181 0.930 . S
H169 C185 0.959 . S
H170 C185 0.959 . S
H171 C185 0.961 . S
H172 C186 0.960 . S
H173 C186 0.961 . S
H174 C186 0.959 . S
H175 C189 0.929 . S
H176 C190 0.931 . S
H177 C192 0.930 . S
C178 H166 0.930 . S
C178 C179 1.399 . S
C178 C183 1.399 . S
C179 C178 1.399 . S
C179 C180 1.376 . S
C180 H167 0.930 . S
C180 C179 1.376 . S
C180 C181 1.388 . S
C181 H168 0.930 . S
C181 C180 1.388 . S
C181 C182 1.390 . S
C182 C181 1.390 . S
C182 C183 1.394 . S
C182 C188 1.465 . S
C183 C178 1.399 . S
C183 C182 1.394 . S
C183 C184 1.516 . S
C184 C183 1.516 . S
C184 C185 1.502 . S
C184 C186 1.561 . S
C184 C187 1.526 . S
C185 H169 0.959 . S
C185 H170 0.959 . S
C185 H171 0.961 . S
C185 C184 1.502 . S
C186 H172 0.960 . S
C186 H173 0.961 . S
C186 H174 0.959 . S
C186 C184 1.561 . S
C187 C184 1.526 . S
C187 C188 1.396 . S
C187 C192 1.390 . S
C188 C182 1.465 . S
C188 C187 1.396 . S
C188 C189 1.399 . S
C189 H175 0.929 . S
C189 C188 1.399 . S
C189 C190 1.385 . S
C190 H176 0.931 . S
C190 C189 1.385 . S
C190 C191 1.389 . S
C191 C190 1.389 . S
C191 C192 1.387 . S
C192 H177 0.930 . S
C192 C187 1.390 . S
C192 C191 1.387 . S
H193 C205 0.930 . S
H194 C207 0.930 . S
H195 C208 0.930 . S
H196 C212 0.959 . S
H197 C212 0.959 . S
H198 C212 0.961 . S
H199 C213 0.960 . S
H200 C213 0.961 . S
H201 C213 0.959 . S
H202 C216 0.929 . S
H203 C217 0.931 . S
H204 C219 0.930 . S
C205 H193 0.930 . S
C205 C206 1.399 . S
C205 C210 1.399 . S
C206 C205 1.399 . S
C206 C207 1.376 . S
C207 H194 0.930 . S
C207 C206 1.376 . S
C207 C208 1.388 . S
C208 H195 0.930 . S
C208 C207 1.388 . S
C208 C209 1.390 . S
C209 C208 1.390 . S
C209 C210 1.394 . S
C209 C215 1.465 . S
C210 C205 1.399 . S
C210 C209 1.394 . S
C210 C211 1.516 . S
C211 C210 1.516 . S
C211 C212 1.502 . S
C211 C213 1.561 . S
C211 C214 1.526 . S
C212 H196 0.959 . S
C212 H197 0.959 . S
C212 H198 0.961 . S
C212 C211 1.502 . S
C213 H199 0.960 . S
C213 H200 0.961 . S
C213 H201 0.959 . S
C213 C211 1.561 . S
C214 C211 1.526 . S
C214 C215 1.396 . S
C214 C219 1.390 . S
C215 C209 1.465 . S
C215 C214 1.396 . S
C215 C216 1.399 . S
C216 H202 0.929 . S
C216 C215 1.399 . S
C216 C217 1.385 . S
C217 H203 0.931 . S
C217 C216 1.385 . S
C217 C218 1.389 . S
C218 C217 1.389 . S
C218 C219 1.387 . S
C219 H204 0.930 . S
C219 C214 1.390 . S
C219 C218 1.387 . S
H220 C232 0.930 . S
H221 C234 0.930 . S
H222 C235 0.930 . S
H223 C239 0.959 . S
H224 C239 0.959 . S
H225 C239 0.961 . S
H226 C240 0.960 . S
H227 C240 0.961 . S
H228 C240 0.959 . S
H229 C243 0.929 . S
H230 C244 0.931 . S
H231 C246 0.930 . S
C232 H220 0.930 . S
C232 C233 1.399 . S
C232 C237 1.399 . S
C233 C232 1.399 . S
C233 C234 1.376 . S
C234 H221 0.930 . S
C234 C233 1.376 . S
C234 C235 1.388 . S
C235 H222 0.930 . S
C235 C234 1.388 . S
C235 C236 1.390 . S
C236 C235 1.390 . S
C236 C237 1.394 . S
C236 C242 1.465 . S
C237 C232 1.399 . S
C237 C236 1.394 . S
C237 C238 1.516 . S
C238 C237 1.516 . S
C238 C239 1.502 . S
C238 C240 1.561 . S
C238 C241 1.526 . S
C239 H223 0.959 . S
C239 H224 0.959 . S
C239 H225 0.961 . S
C239 C238 1.502 . S
C240 H226 0.960 . S
C240 H227 0.961 . S
C240 H228 0.959 . S
C240 C238 1.561 . S
C241 C238 1.526 . S
C241 C242 1.396 . S
C241 C246 1.390 . S
C242 C236 1.465 . S
C242 C241 1.396 . S
C242 C243 1.399 . S
C243 H229 0.929 . S
C243 C242 1.399 . S
C243 C244 1.385 . S
C244 H230 0.931 . S
C244 C243 1.385 . S
C244 C245 1.389 . S
C245 C244 1.389 . S
C245 C246 1.387 . S
C246 H231 0.930 . S
C246 C241 1.390 . S
C246 C245 1.387 . S
H247 C259 0.930 . S
H248 C261 0.930 . S
H249 C262 0.930 . S
H250 C266 0.959 . S
H251 C266 0.959 . S
H252 C266 0.961 . S
H253 C267 0.960 . S
H254 C267 0.961 . S
H255 C267 0.959 . S
H256 C270 0.929 . S
H257 C271 0.931 . S
H258 C273 0.930 . S
C259 H247 0.930 . S
C259 C260 1.399 . S
C259 C264 1.399 . S
C260 C259 1.399 . S
C260 C261 1.376 . S
C261 H248 0.930 . S
C261 C260 1.376 . S
C261 C262 1.388 . S
C262 H249 0.930 . S
C262 C261 1.388 . S
C262 C263 1.390 . S
C263 C262 1.390 . S
C263 C264 1.394 . S
C263 C269 1.465 . S
C264 C259 1.399 . S
C264 C263 1.394 . S
C264 C265 1.516 . S
C265 C264 1.516 . S
C265 C266 1.502 . S
C265 C267 1.561 . S
C265 C268 1.526 . S
C266 H250 0.959 . S
C266 H251 0.959 . S
C266 H252 0.961 . S
C266 C265 1.502 . S
C267 H253 0.960 . S
C267 H254 0.961 . S
C267 H255 0.959 . S
C267 C265 1.561 . S
C268 C265 1.526 . S
C268 C269 1.396 . S
C268 C273 1.390 . S
C269 C263 1.465 . S
C269 C268 1.396 . S
C269 C270 1.399 . S
C270 H256 0.929 . S
C270 C269 1.399 . S
C270 C271 1.385 . S
C271 H257 0.931 . S
C271 C270 1.385 . S
C271 C272 1.389 . S
C272 C271 1.389 . S
C272 C273 1.387 . S
C273 H258 0.930 . S
C273 C268 1.390 . S
C273 C272 1.387 . S
H274 C286 0.930 . S
H275 C288 0.930 . S
H276 C289 0.930 . S
H277 C293 0.959 . S
H278 C293 0.959 . S
H279 C293 0.961 . S
H280 C294 0.960 . S
H281 C294 0.961 . S
H282 C294 0.959 . S
H283 C297 0.929 . S
H284 C298 0.931 . S
H285 C300 0.930 . S
C286 H274 0.930 . S
C286 C287 1.399 . S
C286 C291 1.399 . S
C287 C286 1.399 . S
C287 C288 1.376 . S
C288 H275 0.930 . S
C288 C287 1.376 . S
C288 C289 1.388 . S
C289 H276 0.930 . S
C289 C288 1.388 . S
C289 C290 1.390 . S
C290 C289 1.390 . S
C290 C291 1.394 . S
C290 C296 1.465 . S
C291 C286 1.399 . S
C291 C290 1.394 . S
C291 C292 1.516 . S
C292 C291 1.516 . S
C292 C293 1.502 . S
C292 C294 1.561 . S
C292 C295 1.526 . S
C293 H277 0.959 . S
C293 H278 0.959 . S
C293 H279 0.961 . S
C293 C292 1.502 . S
C294 H280 0.960 . S
C294 H281 0.961 . S
C294 H282 0.959 . S
C294 C292 1.561 . S
C295 C292 1.526 . S
C295 C296 1.396 . S
C295 C300 1.390 . S
C296 C290 1.465 . S
C296 C295 1.396 . S
C296 C297 1.399 . S
C297 H283 0.929 . S
C297 C296 1.399 . S
C297 C298 1.385 . S
C298 H284 0.931 . S
C298 C297 1.385 . S
C298 C299 1.389 . S
C299 C298 1.389 . S
C299 C300 1.387 . S
C300 H285 0.930 . S
C300 C295 1.390 . S
C300 C299 1.387 . S
H301 C313 0.930 . S
H302 C315 0.930 . S
H303 C316 0.930 . S
H304 C320 0.959 . S
H305 C320 0.959 . S
H306 C320 0.961 . S
H307 C321 0.960 . S
H308 C321 0.961 . S
H309 C321 0.959 . S
H310 C324 0.929 . S
H311 C325 0.931 . S
H312 C327 0.930 . S
C313 H301 0.930 . S
C313 C314 1.399 . S
C313 C318 1.399 . S
C314 C313 1.399 . S
C314 C315 1.376 . S
C315 H302 0.930 . S
C315 C314 1.376 . S
C315 C316 1.388 . S
C316 H303 0.930 . S
C316 C315 1.388 . S
C316 C317 1.390 . S
C317 C316 1.390 . S
C317 C318 1.394 . S
C317 C323 1.465 . S
C318 C313 1.399 . S
C318 C317 1.394 . S
C318 C319 1.516 . S
C319 C318 1.516 . S
C319 C320 1.502 . S
C319 C321 1.561 . S
C319 C322 1.526 . S
C320 H304 0.959 . S
C320 H305 0.959 . S
C320 H306 0.961 . S
C320 C319 1.502 . S
C321 H307 0.960 . S
C321 H308 0.961 . S
C321 H309 0.959 . S
C321 C319 1.561 . S
C322 C319 1.526 . S
C322 C323 1.396 . S
C322 C327 1.390 . S
C323 C317 1.465 . S
C323 C322 1.396 . S
C323 C324 1.399 . S
C324 H310 0.929 . S
C324 C323 1.399 . S
C324 C325 1.385 . S
C325 H311 0.931 . S
C325 C324 1.385 . S
C325 C326 1.389 . S
C326 C325 1.389 . S
C326 C327 1.387 . S
C327 H312 0.930 . S
C327 C322 1.390 . S
C327 C326 1.387 . S
H328 C340 0.930 . S
H329 C342 0.930 . S
H330 C343 0.930 . S
H331 C347 0.945 1_455 S
H332 C347 0.942 1_455 S
H333 C347 0.987 . S
H334 C348 0.960 . S
H335 C348 0.961 . S
H336 C348 0.959 . S
H337 C351 0.929 . S
H338 C352 0.931 . S
H339 C354 0.930 . S
C340 H328 0.930 . S
C340 C341 1.399 . S
C340 C345 1.399 . S
C341 C340 1.399 . S
C341 C342 1.376 1_554 S
C342 H329 0.930 . S
C342 C341 1.376 1_556 S
C342 C343 1.388 . S
C343 H330 0.930 . S
C343 C342 1.388 . S
C343 C344 1.390 1_556 S
C344 C343 1.390 1_554 S
C344 C345 1.394 . S
C344 C350 1.465 1_655 S
C345 C340 1.399 . S
C345 C344 1.394 . S
C345 C346 1.516 . S
C346 C345 1.516 . S
C346 C347 1.508 . S
C346 C348 1.561 . S
C346 C349 1.526 1_655 S
C347 H331 0.945 1_655 S
C347 H332 0.942 1_655 S
C347 H333 0.987 . S
C347 C346 1.508 . S
C348 H334 0.960 . S
C348 H335 0.961 . S
C348 H336 0.959 . S
C348 C346 1.561 . S
C349 C346 1.526 1_455 S
C349 C350 1.396 . S
C349 C354 1.390 . S
C350 C344 1.465 1_455 S
C350 C349 1.396 . S
C350 C351 1.399 1_554 S
C351 H337 0.929 . S
C351 C350 1.399 1_556 S
C351 C352 1.385 . S
C352 H338 0.931 . S
C352 C351 1.385 . S
C352 C353 1.389 1_556 S
C353 C352 1.389 1_554 S
C353 C354 1.387 . S
C354 H339 0.930 . S
C354 C349 1.390 . S
C354 C353 1.387 . S
H355 C367 0.930 . S
H356 C369 0.930 . S
H357 C370 0.930 . S
H358 C374 0.959 . S
H359 C374 0.959 . S
H360 C374 0.961 . S
H361 C375 0.960 1_565 S
H362 C375 0.961 . S
H363 C375 0.959 1_565 S
H364 C378 0.929 . S
H365 C379 0.931 . S
H366 C381 0.930 . S
C367 H355 0.930 . S
C367 C368 1.399 . S
C367 C372 1.399 . S
C368 C367 1.399 . S
C368 C369 1.376 . S
C369 H356 0.930 . S
C369 C368 1.376 . S
C369 C370 1.388 . S
C370 H357 0.930 . S
C370 C369 1.388 . S
C370 C371 1.390 . S
C371 C370 1.390 . S
C371 C372 1.394 . S
C371 C377 1.465 1_565 S
C372 C367 1.399 . S
C372 C371 1.394 . S
C372 C373 1.516 1_565 S
C373 C372 1.516 1_545 S
C373 C374 1.502 . S
C373 C375 1.561 . S
C373 C376 1.526 . S
C374 H358 0.959 . S
C374 H359 0.959 . S
C374 H360 0.961 . S
C374 C373 1.502 . S
C375 H361 0.960 1_545 S
C375 H362 0.961 . S
C375 H363 0.959 1_545 S
C375 C373 1.561 . S
C376 C373 1.526 . S
C376 C377 1.396 . S
C376 C381 1.390 . S
C377 C371 1.465 1_545 S
C377 C376 1.396 . S
C377 C378 1.399 . S
C378 H364 0.929 . S
C378 C377 1.399 . S
C378 C379 1.385 . S
C379 H365 0.931 . S
C379 C378 1.385 . S
C379 C380 1.389 . S
C380 C379 1.389 . S
C380 C381 1.387 . S
C381 H366 0.930 . S
C381 C376 1.390 . S
C381 C380 1.387 . S
H382 C394 0.930 . S
H383 C396 0.930 . S
H384 C397 0.930 . S
H385 C401 0.959 . S
H386 C401 0.959 1_655 S
H387 C401 0.961 . S
H388 C402 0.960 1_455 S
H389 C402 0.961 . S
H390 C402 0.959 . S
H391 C405 0.929 . S
H392 C406 0.931 . S
H393 C408 0.930 . S
C394 H382 0.930 . S
C394 C395 1.399 . S
C394 C399 1.399 . S
C395 C394 1.399 . S
C395 C396 1.376 . S
C396 H383 0.930 . S
C396 C395 1.376 . S
C396 C397 1.388 . S
C397 H384 0.930 . S
C397 C396 1.388 . S
C397 C398 1.390 . S
C398 C397 1.390 . S
C398 C399 1.394 . S
C398 C404 1.465 1_455 S
C399 C394 1.399 . S
C399 C398 1.394 . S
C399 C400 1.516 . S
C400 C399 1.516 . S
C400 C401 1.502 . S
C400 C402 1.561 1_455 S
C400 C403 1.526 1_455 S
C401 H385 0.959 . S
C401 H386 0.959 1_455 S
C401 H387 0.961 . S
C401 C400 1.502 . S
C402 H388 0.960 1_655 S
C402 H389 0.961 . S
C402 H390 0.959 . S
C402 C400 1.561 1_655 S
C403 C400 1.526 1_655 S
C403 C404 1.396 . S
C403 C408 1.390 . S
C404 C398 1.465 1_655 S
C404 C403 1.396 . S
C404 C405 1.399 . S
C405 H391 0.929 . S
C405 C404 1.399 . S
C405 C406 1.385 . S
C406 H392 0.931 . S
C406 C405 1.385 . S
C406 C407 1.389 . S
C407 C406 1.389 . S
C407 C408 1.387 . S
C408 H393 0.930 . S
C408 C403 1.390 . S
C408 C407 1.387 . S
H409 C421 0.930 . S
H410 C423 0.930 . S
H411 C424 0.930 . S
H412 C428 0.959 . S
H413 C428 0.959 . S
H414 C428 0.961 . S
H415 C429 0.960 1_565 S
H416 C429 0.961 . S
H417 C429 0.959 . S
H418 C432 0.929 . S
H419 C433 0.931 . S
H420 C435 0.930 . S
C421 H409 0.930 . S
C421 C422 1.399 1_554 S
C421 C426 1.399 . S
C422 C421 1.399 1_556 S
C422 C423 1.376 . S
C423 H410 0.930 . S
C423 C422 1.376 . S
C423 C424 1.388 . S
C424 H411 0.930 . S
C424 C423 1.388 . S
C424 C425 1.390 . S
C425 C424 1.390 . S
C425 C426 1.394 1_556 S
C425 C431 1.465 1_565 S
C426 C421 1.399 . S
C426 C425 1.394 1_554 S
C426 C427 1.516 . S
C427 C426 1.516 . S
C427 C428 1.502 . S
C427 C429 1.561 1_565 S
C427 C430 1.526 1_565 S
C428 H412 0.959 . S
C428 H413 0.959 . S
C428 H414 0.961 . S
C428 C427 1.502 . S
C429 H415 0.960 1_545 S
C429 H416 0.961 . S
C429 H417 0.959 . S
C429 C427 1.561 1_545 S
C430 C427 1.526 1_545 S
C430 C431 1.396 1_554 S
C430 C435 1.390 . S
C431 C425 1.465 1_545 S
C431 C430 1.396 1_556 S
C431 C432 1.399 . S
C432 H418 0.929 . S
C432 C431 1.399 . S
C432 C433 1.385 . S
C433 H419 0.931 . S
C433 C432 1.385 . S
C433 C434 1.389 . S
C434 C433 1.389 . S
C434 C435 1.387 1_556 S
C435 H420 0.930 . S
C435 C430 1.390 . S
C435 C434 1.387 1_554 S
H436 C448 0.930 . S
H437 C450 0.930 . S
H438 C451 0.930 . S
H439 C455 0.959 . S
H440 C455 0.959 . S
H441 C455 0.961 . S
H442 C456 0.960 . S
H443 C456 0.961 . S
H444 C456 0.959 . S
H445 C459 0.929 . S
H446 C460 0.931 . S
H447 C462 0.930 . S
C448 H436 0.930 . S
C448 C449 1.399 1_556 S
C448 C453 1.399 . S
C449 C448 1.399 1_554 S
C449 C450 1.376 . S
C450 H437 0.930 . S
C450 C449 1.376 . S
C450 C451 1.388 . S
C451 H438 0.930 . S
C451 C450 1.388 . S
C451 C452 1.390 . S
C452 C451 1.390 . S
C452 C453 1.394 1_554 S
C452 C458 1.465 . S
C453 C448 1.399 . S
C453 C452 1.394 1_556 S
C453 C454 1.516 . S
C454 C453 1.516 . S
C454 C455 1.502 . S
C454 C456 1.561 . S
C454 C457 1.526 . S
C455 H439 0.959 . S
C455 H440 0.959 . S
C455 H441 0.961 . S
C455 C454 1.502 . S
C456 H442 0.960 . S
C456 H443 0.961 . S
C456 H444 0.959 . S
C456 C454 1.561 . S
C457 C454 1.526 . S
C457 C458 1.396 1_556 S
C457 C462 1.390 . S
C458 C452 1.465 . S
C458 C457 1.396 1_554 S
C458 C459 1.399 . S
C459 H445 0.929 . S
C459 C458 1.399 . S
C459 C460 1.385 . S
C460 H446 0.931 . S
C460 C459 1.385 . S
C460 C461 1.376 1_554 S
C461 C460 1.376 1_556 S
C461 C462 1.395 . S
C462 H447 0.930 . S
C462 C457 1.390 . S
C462 C461 1.395 . S
H463 C475 0.930 . S
H464 C477 0.930 . S
H465 C478 0.930 . S
H466 C482 0.959 . S
H467 C482 0.959 . S
H468 C482 0.961 . S
H469 C483 0.960 . S
H470 C483 0.961 . S
H471 C483 0.959 . S
H472 C486 0.929 . S
H473 C487 0.931 . S
H474 C489 0.930 . S
C475 H463 0.930 . S
C475 C476 1.399 . S
C475 C480 1.399 . S
C476 C475 1.399 . S
C476 C477 1.376 . S
C477 H464 0.930 . S
C477 C476 1.376 . S
C477 C478 1.388 . S
C478 H465 0.930 . S
C478 C477 1.388 . S
C478 C479 1.390 . S
C479 C478 1.390 . S
C479 C480 1.394 . S
C479 C485 1.465 . S
C480 C475 1.399 . S
C480 C479 1.394 . S
C480 C481 1.516 . S
C481 C480 1.516 . S
C481 C482 1.502 . S
C481 C483 1.561 . S
C481 C484 1.526 . S
C482 H466 0.959 . S
C482 H467 0.959 . S
C482 H468 0.961 . S
C482 C481 1.502 . S
C483 H469 0.960 . S
C483 H470 0.961 . S
C483 H471 0.959 . S
C483 C481 1.561 . S
C484 C481 1.526 . S
C484 C485 1.396 . S
C484 C489 1.390 . S
C485 C479 1.465 . S
C485 C484 1.396 . S
C485 C486 1.399 . S
C486 H472 0.929 . S
C486 C485 1.399 . S
C486 C487 1.385 . S
C487 H473 0.931 . S
C487 C486 1.385 . S
C487 C488 1.389 . S
C488 C487 1.389 . S
C488 C489 1.387 . S
C489 H474 0.930 . S
C489 C484 1.390 . S
C489 C488 1.387 . S
H490 C502 0.936 . S
H491 C504 0.930 . S
H492 C505 0.930 . S
H493 C509 0.959 . S
H494 C509 0.959 . S
H495 C509 0.961 . S
H496 C510 0.960 . S
H497 C510 0.961 . S
H498 C510 0.959 . S
H499 C513 0.929 . S
H500 C514 0.931 . S
H501 C516 0.930 . S
C502 H490 0.936 . S
C502 C503 1.393 1_556 S
C502 C507 1.399 1_556 S
C503 C502 1.393 1_554 S
C503 C504 1.376 . S
C504 H491 0.930 . S
C504 C503 1.376 . S
C504 C505 1.388 . S
C505 H492 0.930 . S
C505 C504 1.388 . S
C505 C506 1.390 . S
C506 C505 1.390 . S
C506 C507 1.394 . S
C506 C512 1.465 . S
C507 C502 1.399 1_554 S
C507 C506 1.394 . S
C507 C508 1.516 1_554 S
C508 C507 1.516 1_556 S
C508 C509 1.502 . S
C508 C510 1.561 . S
C508 C511 1.526 . S
C509 H493 0.959 . S
C509 H494 0.959 . S
C509 H495 0.961 . S
C509 C508 1.502 . S
C510 H496 0.960 . S
C510 H497 0.961 . S
C510 H498 0.959 . S
C510 C508 1.561 . S
C511 C508 1.526 . S
C511 C512 1.396 1_556 S
C511 C516 1.390 . S
C512 C506 1.465 . S
C512 C511 1.396 1_554 S
C512 C513 1.399 . S
C513 H499 0.929 . S
C513 C512 1.399 . S
C513 C514 1.385 . S
C514 H500 0.931 . S
C514 C513 1.385 . S
C514 C515 1.373 1_554 S
C515 C514 1.373 1_556 S
C515 C516 1.397 . S
C516 H501 0.930 . S
C516 C511 1.390 . S
C516 C515 1.397 . S
H517 C529 0.930 . S
H518 C531 0.930 . S
H519 C532 0.930 . S
H520 C536 0.959 . S
H521 C536 0.959 . S
H522 C536 0.961 . S
H523 C537 0.960 . S
H524 C537 0.961 . S
H525 C537 0.959 . S
H526 C540 0.929 . S
H527 C541 0.931 . S
H528 C543 0.930 . S
C529 H517 0.930 . S
C529 C530 1.399 . S
C529 C534 1.399 . S
C530 C529 1.399 . S
C530 C531 1.376 . S
C531 H518 0.930 . S
C531 C530 1.376 . S
C531 C532 1.388 . S
C532 H519 0.930 . S
C532 C531 1.388 . S
C532 C533 1.390 . S
C533 C532 1.390 . S
C533 C534 1.394 . S
C533 C539 1.465 . S
C534 C529 1.399 . S
C534 C533 1.394 . S
C534 C535 1.516 . S
C535 C534 1.516 . S
C535 C536 1.502 . S
C535 C537 1.561 . S
C535 C538 1.526 . S
C536 H520 0.959 . S
C536 H521 0.959 . S
C536 H522 0.961 . S
C536 C535 1.502 . S
C537 H523 0.960 . S
C537 H524 0.961 . S
C537 H525 0.959 . S
C537 C535 1.561 . S
C538 C535 1.526 . S
C538 C539 1.396 . S
C538 C543 1.390 . S
C539 C533 1.465 . S
C539 C538 1.396 . S
C539 C540 1.399 . S
C540 H526 0.929 . S
C540 C539 1.399 . S
C540 C541 1.385 . S
C541 H527 0.931 . S
C541 C540 1.385 . S
C541 C542 1.389 . S
C542 C541 1.389 . S
C542 C543 1.387 . S
C543 H528 0.930 . S
C543 C538 1.390 . S
C543 C542 1.387 . S
C125 C8 1.669 . S
C137 C64 1.713 . S
C152 C22 1.704 . S
C164 C78 1.677 . S
C179 C92 1.718 . S
C191 C36 1.673 . S
C206 C106 1.710 . S
C218 C50 1.672 . S
C233 C91 1.031 . S
C245 C35 1.056 . S
C260 C105 1.043 . S
C272 C49 1.037 . S
C287 C7 1.032 . S
C299 C63 1.061 . S
C314 C21 1.046 . S
C326 C77 1.064 . S
C341 C37 1.261 . S
C353 C9 1.253 . S
C368 C51 1.230 . S
C380 C23 1.305 . S
C395 C65 1.325 . S
C407 C93 1.284 . S
C422 C107 1.330 1_556 S
C434 C79 1.270 1_556 S
C449 C6 1.470 . S
C461 C76 1.459 . S
C476 C90 1.459 . S
C488 C20 1.446 . S
C503 C34 1.464 . S
C515 C104 1.454 . S
C530 C48 1.471 . S
C542 C62 1.458 . S
