# Generated by pormake.
# Topology ukt, (4)-cn, num edge types: 1
# Building blocks:
#     Node 0, Type 0, BuildingBlock: TATPOV_clean_sbu_0, # of connection points: 4
#     Node 1, Type 0, BuildingBlock: TATPOV_clean_sbu_0, # of connection points: 4
#     Node 2, Type 0, BuildingBlock: TATPOV_clean_sbu_0, # of connection points: 4
#     Node 3, Type 0, BuildingBlock: TATPOV_clean_sbu_0, # of connection points: 4
#     Node 4, Type 0, BuildingBlock: TATPOV_clean_sbu_0, # of connection points: 4
#     Node 5, Type 0, BuildingBlock: TATPOV_clean_sbu_0, # of connection points: 4
#     Node 6, Type 0, BuildingBlock: TATPOV_clean_sbu_0, # of connection points: 4
#     Node 7, Type 0, BuildingBlock: TATPOV_clean_sbu_0, # of connection points: 4
#     Node 8, Type 0, BuildingBlock: TATPOV_clean_sbu_0, # of connection points: 4
#     Node 9, Type 0, BuildingBlock: TATPOV_clean_sbu_0, # of connection points: 4
#     Node 10, Type 0, BuildingBlock: TATPOV_clean_sbu_0, # of connection points: 4
#     Node 11, Type 0, BuildingBlock: TATPOV_clean_sbu_0, # of connection points: 4
#     Node 12, Type 0, BuildingBlock: TATPOV_clean_sbu_0, # of connection points: 4
#     Node 13, Type 0, BuildingBlock: TATPOV_clean_sbu_0, # of connection points: 4
#     Node 14, Type 0, BuildingBlock: TATPOV_clean_sbu_0, # of connection points: 4
#     Node 15, Type 0, BuildingBlock: TATPOV_clean_sbu_0, # of connection points: 4
#     Edge 16, Type (0, 0), BuildingBlock: XUDNAN_clean_linker_2, # of connection points: 2
#     Edge 17, Type (0, 0), BuildingBlock: XUDNAN_clean_linker_2, # of connection points: 2
#     Edge 18, Type (0, 0), BuildingBlock: XUDNAN_clean_linker_2, # of connection points: 2
#     Edge 19, Type (0, 0), BuildingBlock: XUDNAN_clean_linker_2, # of connection points: 2
#     Edge 20, Type (0, 0), BuildingBlock: XUDNAN_clean_linker_2, # of connection points: 2
#     Edge 21, Type (0, 0), BuildingBlock: XUDNAN_clean_linker_2, # of connection points: 2
#     Edge 22, Type (0, 0), BuildingBlock: XUDNAN_clean_linker_2, # of connection points: 2
#     Edge 23, Type (0, 0), BuildingBlock: XUDNAN_clean_linker_2, # of connection points: 2
#     Edge 24, Type (0, 0), BuildingBlock: XUDNAN_clean_linker_2, # of connection points: 2
#     Edge 25, Type (0, 0), BuildingBlock: XUDNAN_clean_linker_2, # of connection points: 2
#     Edge 26, Type (0, 0), BuildingBlock: XUDNAN_clean_linker_2, # of connection points: 2
#     Edge 27, Type (0, 0), BuildingBlock: XUDNAN_clean_linker_2, # of connection points: 2
#     Edge 28, Type (0, 0), BuildingBlock: XUDNAN_clean_linker_2, # of connection points: 2
#     Edge 29, Type (0, 0), BuildingBlock: XUDNAN_clean_linker_2, # of connection points: 2
#     Edge 30, Type (0, 0), BuildingBlock: XUDNAN_clean_linker_2, # of connection points: 2
#     Edge 31, Type (0, 0), BuildingBlock: XUDNAN_clean_linker_2, # of connection points: 2
#     Edge 32, Type (0, 0), BuildingBlock: XUDNAN_clean_linker_2, # of connection points: 2
#     Edge 33, Type (0, 0), BuildingBlock: XUDNAN_clean_linker_2, # of connection points: 2
#     Edge 34, Type (0, 0), BuildingBlock: XUDNAN_clean_linker_2, # of connection points: 2
#     Edge 35, Type (0, 0), BuildingBlock: XUDNAN_clean_linker_2, # of connection points: 2
#     Edge 36, Type (0, 0), BuildingBlock: XUDNAN_clean_linker_2, # of connection points: 2
#     Edge 37, Type (0, 0), BuildingBlock: XUDNAN_clean_linker_2, # of connection points: 2
#     Edge 38, Type (0, 0), BuildingBlock: XUDNAN_clean_linker_2, # of connection points: 2
#     Edge 39, Type (0, 0), BuildingBlock: XUDNAN_clean_linker_2, # of connection points: 2
#     Edge 40, Type (0, 0), BuildingBlock: XUDNAN_clean_linker_2, # of connection points: 2
#     Edge 41, Type (0, 0), BuildingBlock: XUDNAN_clean_linker_2, # of connection points: 2
#     Edge 42, Type (0, 0), BuildingBlock: XUDNAN_clean_linker_2, # of connection points: 2
#     Edge 43, Type (0, 0), BuildingBlock: XUDNAN_clean_linker_2, # of connection points: 2
#     Edge 44, Type (0, 0), BuildingBlock: XUDNAN_clean_linker_2, # of connection points: 2
#     Edge 45, Type (0, 0), BuildingBlock: XUDNAN_clean_linker_2, # of connection points: 2
#     Edge 46, Type (0, 0), BuildingBlock: XUDNAN_clean_linker_2, # of connection points: 2
#     Edge 47, Type (0, 0), BuildingBlock: XUDNAN_clean_linker_2, # of connection points: 2
# Relax obj value: 0.281
# Max RMSD: 0.177
# Mean RMSD: 0.177
data_MOF--net-ukt--node1-TATPOV_clean_sbu_0--edge1-XUDNAN_clean_linker_2
_symmetry_space_group_name_H-M    P1
_symmetry_Int_Tables_number       1
_symmetry_cell_setting            triclinic
loop_
_symmetry_equiv_pos_as_xyz
'x, y, z'
_cell_length_a     42.761655
_cell_length_b     42.774349
_cell_length_c     35.424995
_cell_angle_alpha  89.871558
_cell_angle_beta   90.025014
_cell_angle_gamma 90.167063
loop_
_atom_site_label
_atom_site_type_symbol
_atom_site_fract_x
_atom_site_fract_y
_atom_site_fract_z
_atom_type_partial_charge
Zn0 Zn 0.59594 0.18406 0.1101 0.0
Zn1 Zn 0.55184 0.15019 0.08065 0.0
O2 O 0.53311 0.16487 0.13128 0.0
O3 O 0.57442 0.18463 0.15956 0.0
O4 O 0.52257 0.11621 0.06471 0.0
O5 O 0.63102 0.15471 0.10226 0.0
O6 O 0.59359 0.1258 0.07813 0.0
C7 C 0.5459 0.17688 0.16025 0.0
C8 C 0.56467 0.21116 0.04389 0.0
O9 O 0.54958 0.18552 0.04192 0.0
O10 O 0.58448 0.21587 0.0699 0.0
C11 C 0.52727 0.10106 0.03446 0.0
O12 O 0.54889 0.11079 0.01081 0.0
C13 C 0.62229 0.12961 0.08676 0.0
Zn14 Zn 0.31116 0.6258 0.11266 0.0
Zn15 Zn 0.35198 0.56067 0.10151 0.0
O16 O 0.33054 0.54179 0.14909 0.0
O17 O 0.30964 0.5863 0.1387 0.0
O18 O 0.38424 0.52986 0.08366 0.0
O19 O 0.35255 0.64645 0.11325 0.0
O20 O 0.37771 0.60198 0.10297 0.0
C21 C 0.3086 0.56069 0.15561 0.0
C22 C 0.30078 0.58492 0.0456 0.0
O23 O 0.31917 0.56413 0.05902 0.0
O24 O 0.29671 0.61134 0.06141 0.0
C25 C 0.37968 0.51029 0.05727 0.0
O26 O 0.35156 0.50743 0.04272 0.0
C27 C 0.37768 0.63175 0.10687 0.0
Zn28 Zn 0.88311 0.31778 0.12867 0.0
Zn29 Zn 0.9221 0.35836 0.10503 0.0
O30 O 0.94144 0.33643 0.15124 0.0
O31 O 0.90103 0.31722 0.18117 0.0
O32 O 0.95099 0.39384 0.09359 0.0
O33 O 0.84554 0.34339 0.1151 0.0
O34 O 0.87955 0.38114 0.10575 0.0
C35 C 0.93016 0.32218 0.17971 0.0
C36 C 0.919 0.29942 0.06241 0.0
O37 O 0.92639 0.32821 0.0608 0.0
O38 O 0.90282 0.28897 0.08965 0.0
C39 C 0.94978 0.40602 0.0609 0.0
O40 O 0.93113 0.39374 0.03541 0.0
C41 C 0.85133 0.3717 0.10747 0.0
Zn42 Zn 0.16033 0.88734 0.13365 0.0
Zn43 Zn 0.13472 0.92975 0.0908 0.0
O44 O 0.14914 0.95587 0.13635 0.0
O45 O 0.16425 0.91879 0.17523 0.0
O46 O 0.10845 0.95571 0.05648 0.0
O47 O 0.12626 0.85524 0.13321 0.0
O48 O 0.10853 0.88911 0.09194 0.0
C49 C 0.16127 0.94755 0.16761 0.0
C50 C 0.19536 0.90435 0.06532 0.0
O51 O 0.17334 0.92366 0.06015 0.0
O52 O 0.19496 0.88563 0.09317 0.0
C53 C 0.08114 0.96479 0.06489 0.0
O54 O 0.07097 0.96148 0.09966 0.0
C55 C 0.1065 0.86259 0.10825 0.0
Zn56 Zn 0.63429 0.34101 0.38222 0.0
Zn57 Zn 0.58489 0.37507 0.39193 0.0
O58 O 0.57016 0.35292 0.34433 0.0
O59 O 0.60836 0.31852 0.34329 0.0
O60 O 0.5517 0.40561 0.40484 0.0
O61 O 0.66301 0.37706 0.36986 0.0
O62 O 0.6235 0.404 0.39192 0.0
C63 C 0.58201 0.32788 0.33149 0.0
C64 C 0.60352 0.32715 0.45098 0.0
O65 O 0.58286 0.34425 0.43569 0.0
O66 O 0.63034 0.32469 0.43611 0.0
C67 C 0.52778 0.39795 0.42395 0.0
O68 O 0.52251 0.3683 0.43139 0.0
C69 C 0.65191 0.4027 0.38129 0.0
Zn70 Zn 0.18059 0.61372 0.38725 0.0
Zn71 Zn 0.13087 0.57891 0.4094 0.0
O72 O 0.13807 0.56044 0.35658 0.0
O73 O 0.17934 0.58858 0.34 0.0
O74 O 0.09078 0.56156 0.42924 0.0
O75 O 0.15739 0.65455 0.39022 0.0
O76 O 0.11965 0.62519 0.4132 0.0
C77 C 0.15943 0.56744 0.33299 0.0
C78 C 0.19094 0.57517 0.45401 0.0
O79 O 0.16328 0.56527 0.44835 0.0
O80 O 0.20286 0.59611 0.4331 0.0
C81 C 0.0863 0.53582 0.44629 0.0
O82 O 0.10903 0.51531 0.44854 0.0
C83 C 0.13049 0.652 0.40468 0.0
Zn84 Zn 0.88986 0.13209 0.33393 0.0
Zn85 Zn 0.93146 0.10816 0.37721 0.0
O86 O 0.95513 0.12544 0.33107 0.0
O87 O 0.91871 0.13694 0.28973 0.0
O88 O 0.96052 0.08017 0.40532 0.0
O89 O 0.85667 0.09887 0.3367 0.0
O90 O 0.89022 0.08305 0.37936 0.0
C91 C 0.94731 0.13614 0.29886 0.0
C92 C 0.90719 0.16757 0.40343 0.0
O93 O 0.92575 0.14522 0.41034 0.0
O94 O 0.89005 0.16704 0.37409 0.0
C95 C 0.97964 0.08991 0.4301 0.0
O96 O 0.98339 0.12012 0.43499 0.0
C97 C 0.8635 0.08074 0.36364 0.0
Zn98 Zn 0.31101 0.88707 0.37005 0.0
Zn99 Zn 0.35908 0.92153 0.39337 0.0
O100 O 0.34202 0.94682 0.34786 0.0
O101 O 0.30749 0.91394 0.32408 0.0
O102 O 0.40063 0.93999 0.40682 0.0
O103 O 0.33444 0.84629 0.36811 0.0
O104 O 0.37271 0.87579 0.38913 0.0
C105 C 0.32214 0.93963 0.32249 0.0
C106 C 0.30396 0.91744 0.44456 0.0
O107 O 0.33186 0.927 0.43971 0.0
O108 O 0.29032 0.90135 0.41931 0.0
C109 C 0.40606 0.96202 0.42985 0.0
O110 O 0.3826 0.97743 0.44476 0.0
C111 C 0.36225 0.84904 0.37971 0.0
Zn112 Zn 0.40727 0.80977 0.87145 0.0
Zn113 Zn 0.44117 0.84885 0.90558 0.0
O114 O 0.4649 0.83525 0.85762 0.0
O115 O 0.42582 0.82206 0.82138 0.0
O116 O 0.46554 0.88424 0.92841 0.0
O117 O 0.36717 0.82857 0.88882 0.0
O118 O 0.39702 0.86816 0.90485 0.0
C119 C 0.45477 0.82687 0.82543 0.0
C120 C 0.43944 0.78428 0.93582 0.0
O121 O 0.44347 0.81305 0.94351 0.0
O122 O 0.42772 0.77627 0.90441 0.0
C123 C 0.45839 0.89062 0.96234 0.0
O124 O 0.43822 0.8726 0.98007 0.0
C125 C 0.36993 0.85614 0.90111 0.0
Zn126 Zn 0.71045 0.405 0.90191 0.0
Zn127 Zn 0.63992 0.46458 0.90829 0.0
O128 O 0.65562 0.47362 0.85291 0.0
O129 O 0.68662 0.44328 0.88324 0.0
O130 O 0.59547 0.47727 0.91663 0.0
O131 O 0.67308 0.37613 0.91127 0.0
O132 O 0.63777 0.41503 0.91497 0.0
C133 C 0.67857 0.455 0.85195 0.0
C134 C 0.69128 0.46391 0.95108 0.0
O135 O 0.66867 0.48291 0.95145 0.0
O136 O 0.69223 0.44587 0.92278 0.0
C137 C 0.58639 0.47446 0.95063 0.0
O138 O 0.60685 0.46703 0.9768 0.0
C139 C 0.64502 0.38583 0.91654 0.0
Zn140 Zn 0.09747 0.67521 0.86282 0.0
Zn141 Zn 0.06344 0.63364 0.89684 0.0
O142 O 0.03631 0.64603 0.85084 0.0
O143 O 0.07093 0.67153 0.81672 0.0
O144 O 0.04008 0.59953 0.92362 0.0
O145 O 0.1366 0.65052 0.86758 0.0
O146 O 0.10698 0.61317 0.89087 0.0
C147 C 0.04375 0.66023 0.82049 0.0
C148 C 0.07226 0.69719 0.93304 0.0
O149 O 0.06323 0.66893 0.93544 0.0
O150 O 0.08626 0.70669 0.90363 0.0
C151 C 0.04838 0.59468 0.95759 0.0
O152 O 0.07057 0.61208 0.97238 0.0
C153 C 0.13379 0.62314 0.88064 0.0
Zn154 Zn 0.82508 0.11565 0.86858 0.0
Zn155 Zn 0.85658 0.07205 0.90249 0.0
O156 O 0.83337 0.05218 0.85773 0.0
O157 O 0.82165 0.09112 0.82018 0.0
O158 O 0.88708 0.04102 0.92214 0.0
O159 O 0.85708 0.14987 0.87641 0.0
O160 O 0.884 0.11151 0.90128 0.0
C161 C 0.82134 0.0621 0.82712 0.0
C162 C 0.79795 0.08826 0.93865 0.0
O163 O 0.82415 0.07493 0.94324 0.0
O164 O 0.79268 0.10493 0.90965 0.0
C165 C 0.90725 0.02731 0.90186 0.0
O166 O 0.90624 0.0305 0.86499 0.0
C167 C 0.88179 0.14021 0.89214 0.0
Zn168 Zn 0.38359 0.67003 0.62518 0.0
Zn169 Zn 0.42145 0.62887 0.59651 0.0
O170 O 0.44728 0.6513 0.6374 0.0
O171 O 0.41165 0.67645 0.67005 0.0
O172 O 0.44643 0.59161 0.5822 0.0
O173 O 0.34619 0.64125 0.62704 0.0
O174 O 0.3796 0.60669 0.60609 0.0
C175 C 0.43977 0.6682 0.66545 0.0
C176 C 0.40727 0.68355 0.54857 0.0
O177 O 0.41876 0.65622 0.54991 0.0
O178 O 0.39303 0.6948 0.57688 0.0
C179 C 0.46255 0.58868 0.55239 0.0
O180 O 0.46668 0.61291 0.53007 0.0
C181 C 0.35202 0.61367 0.61644 0.0
Zn182 Zn 0.81151 0.38785 0.58249 0.0
Zn183 Zn 0.8577 0.41742 0.58593 0.0
O184 O 0.83919 0.41978 0.64016 0.0
O185 O 0.81286 0.37591 0.63643 0.0
O186 O 0.89802 0.44114 0.58512 0.0
O187 O 0.82767 0.35794 0.54463 0.0
O188 O 0.87237 0.37389 0.56799 0.0
C189 C 0.8232 0.39824 0.65605 0.0
C190 C 0.80129 0.44245 0.54523 0.0
O191 O 0.83101 0.44061 0.54592 0.0
O192 O 0.78543 0.42413 0.56574 0.0
C193 C 0.89894 0.47077 0.58436 0.0
O194 O 0.87289 0.48655 0.58892 0.0
C195 C 0.85685 0.35453 0.54812 0.0
Zn196 Zn 0.12076 0.83029 0.65056 0.0
Zn197 Zn 0.08261 0.87106 0.62407 0.0
O198 O 0.05853 0.84675 0.66538 0.0
O199 O 0.0949 0.82109 0.69613 0.0
O200 O 0.05825 0.90963 0.61281 0.0
O201 O 0.15996 0.85657 0.65203 0.0
O202 O 0.12692 0.88946 0.62649 0.0
C203 C 0.06646 0.82837 0.69198 0.0
C204 C 0.09282 0.81742 0.57518 0.0
O205 O 0.08086 0.84448 0.57736 0.0
O206 O 0.1092 0.80657 0.6021 0.0
C207 C 0.03761 0.91109 0.58715 0.0
O208 O 0.02891 0.88536 0.56985 0.0
C209 C 0.15464 0.88269 0.63663 0.0
Zn210 Zn 0.68265 0.10812 0.61167 0.0
Zn211 Zn 0.6369 0.07351 0.58608 0.0
O212 O 0.64799 0.05156 0.63654 0.0
O213 O 0.68203 0.08498 0.66021 0.0
O214 O 0.60014 0.04966 0.56604 0.0
O215 O 0.65873 0.14769 0.60591 0.0
O216 O 0.61942 0.11863 0.58672 0.0
C217 C 0.66606 0.0602 0.66315 0.0
C218 C 0.69919 0.07468 0.54438 0.0
O219 O 0.67062 0.06624 0.54568 0.0
O220 O 0.71033 0.09224 0.56982 0.0
C221 C 0.60291 0.02229 0.5527 0.0
O222 O 0.63035 0.00856 0.55371 0.0
C223 C 0.63082 0.14544 0.59445 0.0
H224 H 0.59601 0.21758 0.9786 0.0
H225 H 0.52706 0.26159 0.04985 0.0
H226 H 0.53242 0.31068 0.01336 0.0
H227 H 0.64637 0.27473 0.97918 0.0
H228 H 0.66015 0.27238 0.93119 0.0
H229 H 0.64372 0.23847 0.95347 0.0
H230 H 0.60295 0.23308 0.89976 0.0
H231 H 0.61963 0.2669 0.87677 0.0
H232 H 0.57848 0.26586 0.88771 0.0
H233 H 0.5538 0.35708 0.97975 0.0
H234 H 0.58956 0.39668 0.95291 0.0
H235 H 0.64629 0.32285 0.90493 0.0
C236 C 0.58072 0.23707 0.98475 0.0
C237 C 0.56033 0.23583 0.01583 0.0
C238 C 0.54192 0.26205 0.02509 0.0
C239 C 0.5449 0.28996 0.00456 0.0
C240 C 0.56639 0.29107 0.97495 0.0
C241 C 0.58371 0.26511 0.9647 0.0
C242 C 0.60901 0.27365 0.93661 0.0
C243 C 0.64171 0.26427 0.95102 0.0
C244 C 0.60209 0.25901 0.89791 0.0
C245 C 0.60509 0.30875 0.93532 0.0
C246 C 0.57966 0.31828 0.95641 0.0
C247 C 0.57327 0.34985 0.96236 0.0
C248 C 0.59379 0.3722 0.94711 0.0
C249 C 0.62074 0.36277 0.92695 0.0
C250 C 0.6258 0.3307 0.92011 0.0
H251 H 0.19171 0.64724 0.88904 0.0
H252 H 0.13934 0.56076 0.8995 0.0
H253 H 0.1844 0.53652 0.9322 0.0
H254 H 0.27389 0.6153 0.88625 0.0
H255 H 0.28713 0.64644 0.91658 0.0
H256 H 0.25573 0.65325 0.88363 0.0
H257 H 0.22063 0.6722 0.93874 0.0
H258 H 0.25162 0.66513 0.97171 0.0
H259 H 0.21411 0.64667 0.97856 0.0
H260 H 0.23068 0.52561 0.97492 0.0
H261 H 0.27056 0.53067 0.02555 0.0
H262 H 0.28914 0.62583 0.9901 0.0
C263 C 0.1902 0.6227 0.89642 0.0
C264 C 0.16225 0.60571 0.89118 0.0
C265 C 0.16076 0.57405 0.9028 0.0
C266 C 0.18628 0.56011 0.92131 0.0
C267 C 0.21289 0.57825 0.92813 0.0
C268 C 0.21488 0.60896 0.91589 0.0
C269 C 0.24235 0.62584 0.9333 0.0
C270 C 0.26619 0.63577 0.90312 0.0
C271 C 0.23151 0.65408 0.95697 0.0
C272 C 0.25515 0.60021 0.958 0.0
C273 C 0.23851 0.57262 0.95416 0.0
C274 C 0.24431 0.54686 0.97746 0.0
C275 C 0.26698 0.54986 0.00602 0.0
C276 C 0.2828 0.57861 0.01123 0.0
C277 C 0.27751 0.60352 0.98619 0.0
H278 H 0.88233 0.20395 0.88351 0.0
H279 H 0.93187 0.12767 0.93763 0.0
H280 H 0.95796 0.16502 0.97969 0.0
H281 H 0.9492 0.26651 0.90114 0.0
H282 H 0.91982 0.29603 0.90824 0.0
H283 H 0.91345 0.26535 0.8742 0.0
H284 H 0.86133 0.25134 0.9074 0.0
H285 H 0.86773 0.2813 0.94179 0.0
H286 H 0.86161 0.24147 0.95695 0.0
H287 H 0.96354 0.2054 0.02795 0.0
H288 H 0.95412 0.24797 0.07344 0.0
H289 H 0.90483 0.30043 0.98765 0.0
C290 C 0.89994 0.19534 0.90284 0.0
C291 C 0.90478 0.16288 0.90747 0.0
C292 C 0.92768 0.1524 0.93346 0.0
C293 C 0.94276 0.17353 0.95752 0.0
C294 C 0.93547 0.20516 0.95448 0.0
C295 C 0.91546 0.21628 0.92686 0.0
C296 C 0.90814 0.25058 0.93304 0.0
C297 C 0.92358 0.27081 0.90233 0.0
C298 C 0.87262 0.25646 0.93495 0.0
C299 C 0.9238 0.2558 0.97087 0.0
C300 C 0.94027 0.22955 0.98218 0.0
C301 C 0.95208 0.22661 0.01873 0.0
C302 C 0.94647 0.25074 0.04445 0.0
C303 C 0.92953 0.27753 0.03339 0.0
C304 C 0.91892 0.28058 0.99597 0.0
H305 H 0.31524 0.82901 0.92239 0.0
H306 H 0.36376 0.91823 0.91938 0.0
H307 H 0.32152 0.94168 0.95767 0.0
H308 H 0.23374 0.85938 0.92392 0.0
H309 H 0.22153 0.82931 0.95648 0.0
H310 H 0.2522 0.82156 0.92293 0.0
H311 H 0.28871 0.80515 0.97796 0.0
H312 H 0.25848 0.81348 0.0117 0.0
H313 H 0.2961 0.83227 0.01585 0.0
H314 H 0.27596 0.95402 0.00047 0.0
H315 H 0.23173 0.95377 0.04576 0.0
H316 H 0.2171 0.855 0.02532 0.0
C317 C 0.31649 0.85377 0.92856 0.0
C318 C 0.3425 0.87196 0.91742 0.0
C319 C 0.34379 0.90401 0.92724 0.0
C320 C 0.31994 0.91749 0.94898 0.0
C321 C 0.29524 0.89848 0.96078 0.0
C322 C 0.29337 0.86731 0.95082 0.0
C323 C 0.26653 0.85095 0.97048 0.0
C324 C 0.24205 0.83964 0.94174 0.0
C325 C 0.27817 0.82388 0.99547 0.0
C326 C 0.25407 0.87752 0.99395 0.0
C327 C 0.27042 0.90496 0.98732 0.0
C328 C 0.26296 0.9327 0.00575 0.0
C329 C 0.238 0.93235 0.03138 0.0
C330 C 0.22158 0.90429 0.03891 0.0
C331 C 0.22973 0.87658 0.02016 0.0
H332 H 0.63786 0.31261 0.51311 0.0
H333 H 0.55035 0.29285 0.45646 0.0
H334 H 0.54128 0.24796 0.49909 0.0
H335 H 0.66434 0.24193 0.52184 0.0
H336 H 0.68066 0.24443 0.56868 0.0
H337 H 0.67606 0.2792 0.54104 0.0
H338 H 0.64286 0.30417 0.59418 0.0
H339 H 0.64752 0.26928 0.62232 0.0
H340 H 0.60894 0.28382 0.61194 0.0
H341 H 0.54935 0.19826 0.53475 0.0
H342 H 0.57191 0.1508 0.5636 0.0
H343 H 0.65156 0.20519 0.60186 0.0
C344 C 0.61617 0.2996 0.51101 0.0
C345 C 0.59474 0.30602 0.48193 0.0
C346 C 0.56678 0.28842 0.47914 0.0
C347 C 0.56143 0.26293 0.50323 0.0
C348 C 0.58374 0.25619 0.53076 0.0
C349 C 0.61009 0.27469 0.53559 0.0
C350 C 0.6321 0.26069 0.56436 0.0
C351 C 0.6652 0.25628 0.54796 0.0
C352 C 0.63289 0.28068 0.60034 0.0
C353 C 0.61589 0.22978 0.57159 0.0
C354 C 0.58758 0.22789 0.55286 0.0
C355 C 0.57088 0.19984 0.55071 0.0
C356 C 0.58393 0.17293 0.56708 0.0
C357 C 0.61347 0.1743 0.58508 0.0
C358 C 0.62874 0.20344 0.58878 0.0
H359 H 0.28945 0.62461 0.62336 0.0
H360 H 0.35599 0.55466 0.58686 0.0
H361 H 0.31425 0.52742 0.55227 0.0
H362 H 0.21561 0.56937 0.62146 0.0
H363 H 0.19248 0.60156 0.60427 0.0
H364 H 0.22379 0.60856 0.63736 0.0
H365 H 0.24789 0.6489 0.59105 0.0
H366 H 0.2172 0.64176 0.55783 0.0
H367 H 0.25738 0.63688 0.54363 0.0
H368 H 0.27209 0.51849 0.50617 0.0
H369 H 0.23216 0.52706 0.45664 0.0
H370 H 0.19196 0.60177 0.52242 0.0
C371 C 0.29484 0.6026 0.60985 0.0
C372 C 0.32599 0.59192 0.60768 0.0
C373 C 0.33229 0.56334 0.58907 0.0
C374 C 0.30863 0.54759 0.56933 0.0
C375 C 0.27864 0.56031 0.56914 0.0
C376 C 0.27145 0.58678 0.58984 0.0
C377 C 0.23932 0.59905 0.57969 0.0
C378 C 0.21644 0.59434 0.61266 0.0
C379 C 0.24058 0.63365 0.56728 0.0
C380 C 0.23118 0.57766 0.54718 0.0
C381 C 0.25356 0.55467 0.5424 0.0
C382 C 0.25371 0.53543 0.51057 0.0
C383 C 0.23106 0.54043 0.48255 0.0
C384 C 0.20879 0.56443 0.48669 0.0
C385 C 0.2082 0.58251 0.51975 0.0
H386 H 0.83359 0.32075 0.4901 0.0
H387 H 0.91406 0.32822 0.56426 0.0
H388 H 0.93671 0.2808 0.53482 0.0
H389 H 0.82641 0.23886 0.49202 0.0
H390 H 0.81516 0.23575 0.44313 0.0
H391 H 0.80634 0.27071 0.46914 0.0
H392 H 0.83572 0.30416 0.41918 0.0
H393 H 0.84441 0.26931 0.39282 0.0
H394 H 0.87567 0.29486 0.4076 0.0
H395 H 0.94826 0.23037 0.4993 0.0
H396 H 0.94987 0.18394 0.45779 0.0
H397 H 0.86198 0.21207 0.40682 0.0
C398 C 0.85607 0.31257 0.50012 0.0
C399 C 0.87204 0.32791 0.52955 0.0
C400 C 0.90153 0.31671 0.54162 0.0
C401 C 0.91446 0.28982 0.52518 0.0
C402 C 0.89768 0.27491 0.49658 0.0
C403 C 0.8693 0.2862 0.48393 0.0
C404 C 0.85564 0.26617 0.45304 0.0
C405 C 0.82403 0.25204 0.46508 0.0
C406 C 0.85271 0.28474 0.41597 0.0
C407 C 0.88058 0.24149 0.45039 0.0
C408 C 0.90461 0.24672 0.47577 0.0
C409 C 0.92972 0.22623 0.4791 0.0
C410 C 0.93033 0.1999 0.45557 0.0
C411 C 0.90609 0.19458 0.42901 0.0
C412 C 0.88098 0.21568 0.42658 0.0
H413 H 0.15413 0.91416 0.57078 0.0
H414 H 0.2148 0.88841 0.66365 0.0
H415 H 0.26071 0.90628 0.62676 0.0
H416 H 0.19773 0.87942 0.5063 0.0
H417 H 0.19068 0.90636 0.46805 0.0
H418 H 0.16238 0.90229 0.50508 0.0
H419 H 0.16534 0.96171 0.51871 0.0
H420 H 0.19343 0.96615 0.48111 0.0
H421 H 0.20271 0.97977 0.52792 0.0
H422 H 0.30021 0.91809 0.57588 0.0
H423 H 0.32922 0.91774 0.51538 0.0
H424 H 0.24213 0.92889 0.45439 0.0
C425 C 0.17688 0.91391 0.58423 0.0
C426 C 0.1809 0.90075 0.62047 0.0
C427 C 0.21123 0.89913 0.63627 0.0
C428 C 0.23738 0.90924 0.61547 0.0
C429 C 0.23275 0.92043 0.57881 0.0
C430 C 0.20312 0.9227 0.56334 0.0
C431 C 0.2044 0.92882 0.52127 0.0
C432 C 0.18784 0.90266 0.49891 0.0
C433 C 0.19066 0.96104 0.5117 0.0
C434 C 0.23933 0.92832 0.51508 0.0
C435 C 0.2554 0.92464 0.5487 0.0
C436 C 0.28786 0.92147 0.54952 0.0
C437 C 0.30415 0.9213 0.51509 0.0
C438 C 0.28775 0.92325 0.48048 0.0
C439 C 0.25511 0.9275 0.4806 0.0
H440 H 0.42262 0.7861 0.00941 0.0
H441 H 0.46668 0.72756 0.92546 0.0
H442 H 0.46855 0.68389 0.97125 0.0
H443 H 0.45777 0.74909 0.09793 0.0
H444 H 0.42082 0.75192 0.12215 0.0
H445 H 0.4317 0.78105 0.08765 0.0
H446 H 0.38022 0.77056 0.05106 0.0
H447 H 0.36925 0.74173 0.08541 0.0
H448 H 0.37117 0.73127 0.03619 0.0
H449 H 0.45722 0.64462 0.02062 0.0
H450 H 0.42671 0.61146 0.06388 0.0
H451 H 0.38716 0.69439 0.11522 0.0
C452 C 0.43401 0.7645 0.00148 0.0
C453 C 0.44534 0.76022 0.96454 0.0
C454 C 0.45849 0.73126 0.95404 0.0
C455 C 0.45983 0.70648 0.97994 0.0
C456 C 0.44757 0.71099 0.01601 0.0
C457 C 0.43463 0.73928 0.02668 0.0
C458 C 0.41705 0.73627 0.0636 0.0
C459 C 0.43279 0.75574 0.09467 0.0
C460 C 0.3824 0.74546 0.05874 0.0
C461 C 0.42077 0.7016 0.07105 0.0
C462 C 0.43943 0.68767 0.04407 0.0
C463 C 0.44315 0.65531 0.04241 0.0
C464 C 0.42583 0.63659 0.06737 0.0
C465 C 0.40451 0.65033 0.09295 0.0
C466 C 0.4036 0.68325 0.09633 0.0
H467 H 0.70632 0.40771 0.97879 0.0
H468 H 0.7227 0.50671 0.99511 0.0
H469 H 0.76324 0.49436 0.04335 0.0
H470 H 0.7176 0.3835 0.07773 0.0
H471 H 0.73616 0.34753 0.06382 0.0
H472 H 0.70678 0.36489 0.03399 0.0
H473 H 0.74569 0.3651 0.97791 0.0
H474 H 0.77518 0.34785 0.00743 0.0
H475 H 0.7831 0.38411 0.98322 0.0
H476 H 0.8078 0.46976 0.0818 0.0
H477 H 0.84819 0.43592 0.11114 0.0
H478 H 0.79816 0.35378 0.07236 0.0
C479 C 0.71798 0.42681 0.99317 0.0
C480 C 0.71164 0.45809 0.98361 0.0
C481 C 0.72723 0.48259 0.00263 0.0
C482 C 0.75025 0.47574 0.02984 0.0
C483 C 0.75658 0.44437 0.03797 0.0
C484 C 0.74034 0.4204 0.02058 0.0
C485 C 0.75218 0.38867 0.0324 0.0
C486 C 0.72666 0.37006 0.05324 0.0
C487 C 0.76479 0.37038 -0.00178 0.0
C488 C 0.77819 0.39832 0.05872 0.0
C489 C 0.78068 0.43049 0.06148 0.0
C490 C 0.80547 0.44458 0.08074 0.0
C491 C 0.82829 0.42524 0.09724 0.0
C492 C 0.82578 0.39229 0.09479 0.0
C493 C 0.80008 0.37886 0.07587 0.0
H494 H 0.07375 0.76095 0.93145 0.0
H495 H 0.06052 0.68194 0.0068 0.0
H496 H 0.05775 0.71799 0.06111 0.0
H497 H 0.12364 0.80232 0.98773 0.0
H498 H 0.10869 0.84041 0.97569 0.0
H499 H 0.10473 0.80873 0.94289 0.0
H500 H 0.04474 0.8175 0.94098 0.0
H501 H 0.04856 0.84913 0.97425 0.0
H502 H 0.02267 0.81685 0.98433 0.0
H503 H 0.06654 0.76144 0.10749 0.0
H504 H 0.08506 0.80851 0.14133 0.0
H505 H 0.08766 0.85951 0.03549 0.0
C506 C 0.06957 0.75128 0.95928 0.0
C507 C 0.06737 0.71871 0.96498 0.0
C508 C 0.06208 0.70689 0.00181 0.0
C509 C 0.06036 0.72718 0.0328 0.0
C510 C 0.06324 0.75922 0.0263 0.0
C511 C 0.0673 0.7712 0.99034 0.0
C512 C 0.07249 0.80616 0.99108 0.0
C513 C 0.10427 0.81489 0.97333 0.0
C514 C 0.04549 0.82342 0.9715 0.0
C515 C 0.07226 0.81182 0.0332 0.0
C516 C 0.06663 0.78454 0.05314 0.0
C517 C 0.06994 0.78316 0.0923 0.0
C518 C 0.08039 0.81 0.11133 0.0
C519 C 0.08712 0.83781 0.09114 0.0
C520 C 0.08159 0.83896 0.05189 0.0
H521 H 0.68477 0.13048 0.10192 0.0
H522 H 0.61372 0.08014 0.03896 0.0
H523 H 0.65483 0.05396 0.00232 0.0
H524 H 0.72757 0.15133 0.03153 0.0
H525 H 0.76598 0.14671 0.05177 0.0
H526 H 0.73305 0.15321 0.08197 0.0
H527 H 0.74496 0.10241 0.11908 0.0
H528 H 0.77862 0.09601 0.08943 0.0
H529 H 0.74917 0.06602 0.09406 0.0
H530 H 0.70004 0.04622 0.96126 0.0
H531 H 0.74721 0.05346 0.92231 0.0
H532 H 0.79029 0.10792 0.01111 0.0
C533 C 0.67794 0.11282 0.08166 0.0
C534 C 0.64611 0.10745 0.07313 0.0
C535 C 0.63797 0.08452 0.04611 0.0
C536 C 0.66121 0.06946 0.02519 0.0
C537 C 0.69239 0.0771 0.03225 0.0
C538 C 0.7009 0.09764 0.06057 0.0
C539 C 0.73541 0.10574 0.05852 0.0
C540 C 0.74077 0.14134 0.05574 0.0
C541 C 0.75308 0.0917 0.09228 0.0
C542 C 0.74414 0.08932 0.0223 0.0
C543 C 0.71923 0.07211 0.00829 0.0
C544 C 0.72004 0.0586 0.97258 0.0
C545 C 0.74673 0.06312 0.95048 0.0
C546 C 0.77211 0.08098 0.96415 0.0
C547 C 0.77126 0.09355 0.00075 0.0
H548 H 0.41961 0.74543 0.54447 0.0
H549 H 0.40009 0.66419 0.47558 0.0
H550 H 0.39617 0.69816 0.41897 0.0
H551 H 0.36775 0.79433 0.5056 0.0
H552 H 0.39147 0.8292 0.50754 0.0
H553 H 0.39842 0.79796 0.54029 0.0
H554 H 0.45628 0.79522 0.51871 0.0
H555 H 0.44945 0.8266 0.48567 0.0
H556 H 0.46524 0.79 0.46941 0.0
H557 H 0.38144 0.74199 0.37484 0.0
H558 H 0.36239 0.79121 0.34597 0.0
H559 H 0.39823 0.84314 0.44154 0.0
C560 C 0.41545 0.7348 0.5172 0.0
C561 C 0.40998 0.70245 0.51408 0.0
C562 C 0.40449 0.68905 0.47824 0.0
C563 C 0.4023 0.70813 0.44604 0.0
C564 C 0.40677 0.74029 0.45021 0.0
C565 C 0.41409 0.75336 0.48482 0.0
C566 C 0.41516 0.78862 0.48275 0.0
C567 C 0.3918 0.80336 0.51066 0.0
C568 C 0.44852 0.80082 0.48952 0.0
C569 C 0.40523 0.79353 0.44223 0.0
C570 C 0.40064 0.76544 0.42371 0.0
C571 C 0.38617 0.76415 0.38839 0.0
C572 C 0.37538 0.79214 0.37219 0.0
C573 C 0.37966 0.82091 0.39111 0.0
C574 C 0.39588 0.8216 0.42574 0.0
H575 H 0.74172 0.46318 0.54681 0.0
H576 H 0.82333 0.45742 0.47511 0.0
H577 H 0.79008 0.46445 0.41906 0.0
H578 H 0.6999 0.41567 0.50262 0.0
H579 H 0.662 0.4337 0.50668 0.0
H580 H 0.69166 0.44256 0.54048 0.0
H581 H 0.68685 0.50157 0.52563 0.0
H582 H 0.65649 0.49298 0.49181 0.0
H583 H 0.69039 0.51524 0.47764 0.0
H584 H 0.74947 0.44938 0.3741 0.0
H585 H 0.70581 0.42021 0.34513 0.0
H586 H 0.64848 0.43904 0.44295 0.0
C587 C 0.75264 0.46541 0.51935 0.0
C588 C 0.78487 0.45961 0.51509 0.0
C589 C 0.79866 0.46213 0.47898 0.0
C590 C 0.77984 0.46605 0.44691 0.0
C591 C 0.74748 0.46819 0.45164 0.0
C592 C 0.73403 0.46911 0.48721 0.0
C593 C 0.69887 0.46504 0.48509 0.0
C594 C 0.68752 0.43761 0.51013 0.0
C595 C 0.68217 0.49554 0.49565 0.0
C596 C 0.69505 0.45799 0.44349 0.0
C597 C 0.7232 0.46076 0.42439 0.0
C598 C 0.72699 0.44861 0.3881 0.0
C599 C 0.70211 0.43198 0.3718 0.0
C600 C 0.67369 0.42805 0.39157 0.0
C601 C 0.66959 0.44288 0.4267 0.0
H602 H 0.09852 0.65756 0.46969 0.0
H603 H 0.12863 0.70987 0.37136 0.0
H604 H 0.11025 0.75882 0.40111 0.0
H605 H 0.03171 0.71024 0.50126 0.0
H606 H 0.04284 0.70502 0.54996 0.0
H607 H 0.04851 0.67375 0.51662 0.0
H608 H 0.10714 0.67149 0.53496 0.0
H609 H 0.10176 0.70282 0.56783 0.0
H610 H 0.13072 0.70637 0.53109 0.0
H611 H 0.09708 0.80236 0.44537 0.0
H612 H 0.09584 0.83655 0.50175 0.0
H613 H 0.08049 0.7555 0.57293 0.0
C614 C 0.09978 0.67915 0.4537 0.0
C615 C 0.11422 0.68008 0.418 0.0
C616 C 0.11708 0.70883 0.39855 0.0
C617 C 0.10657 0.73663 0.41516 0.0
C618 C 0.09371 0.73517 0.45134 0.0
C619 C 0.09043 0.70707 0.47044 0.0
C620 C 0.08229 0.71206 0.51152 0.0
C621 C 0.04937 0.69953 0.52034 0.0
C622 C 0.10696 0.69734 0.53785 0.0
C623 C 0.0832 0.74732 0.5131 0.0
C624 C 0.08851 0.76032 0.47787 0.0
C625 C 0.09242 0.79248 0.47296 0.0
C626 C 0.09174 0.81168 0.505 0.0
C627 C 0.08823 0.79838 0.5413 0.0
C628 C 0.08315 0.76603 0.54526 0.0
H629 H 0.76267 0.0725 0.54467 0.0
H630 H 0.68199 0.05451 0.4737 0.0
H631 H 0.7172 0.04351 0.41985 0.0
H632 H 0.80508 0.11341 0.47998 0.0
H633 H 0.84271 0.0985 0.49406 0.0
H634 H 0.81128 0.09972 0.52756 0.0
H635 H 0.81766 0.04028 0.53981 0.0
H636 H 0.84907 0.03886 0.50594 0.0
H637 H 0.81571 0.01336 0.50079 0.0
H638 H 0.7607 0.04541 0.37163 0.0
H639 H 0.80818 0.05819 0.33463 0.0
H640 H 0.86031 0.0698 0.43861 0.0
C641 C 0.75239 0.06557 0.51801 0.0
C642 C 0.71966 0.06449 0.51321 0.0
C643 C 0.70706 0.05537 0.47795 0.0
C644 C 0.72688 0.04899 0.44729 0.0
C645 C 0.75916 0.05109 0.45274 0.0
C646 C 0.77177 0.05868 0.48749 0.0
C647 C 0.80689 0.06227 0.4855 0.0
C648 C 0.81706 0.09543 0.49745 0.0
C649 C 0.82329 0.03718 0.50943 0.0
C650 C 0.81207 0.05688 0.44381 0.0
C651 C 0.78434 0.0503 0.42528 0.0
C652 C 0.78272 0.04943 0.38592 0.0
C653 C 0.80978 0.05663 0.36509 0.0
C654 C 0.83808 0.06422 0.38372 0.0
C655 C 0.83939 0.06287 0.42351 0.0
H656 H 0.4861 0.9415 0.92837 0.0
H657 H 0.45484 0.90572 0.03685 0.0
H658 H 0.46814 0.95614 0.06647 0.0
H659 H 0.5513 0.98784 0.96329 0.0
H660 H 0.54479 0.01929 0.93027 0.0
H661 H 0.53395 0.97991 0.91789 0.0
H662 H 0.47743 -0.00153 0.90424 0.0
H663 H 0.48798 0.03783 0.91711 0.0
H664 H 0.45589 0.01851 0.94056 0.0
H665 H 0.48175 0.01079 0.08368 0.0
H666 H 0.4999 0.06528 0.08905 0.0
H667 H 0.52342 0.06585 0.96978 0.0
C668 C 0.48253 0.94412 0.95846 0.0
C669 C 0.46947 0.91969 0.98036 0.0
C670 C 0.46475 0.92415 0.01954 0.0
C671 C 0.47216 0.95271 0.03661 0.0
C672 C 0.4842 0.97657 0.01408 0.0
C673 C 0.48966 0.97256 0.97596 0.0
C674 C 0.50231 0.00228 0.95817 0.0
C675 C 0.53504 0.997 0.94144 0.0
C676 C 0.47954 0.01502 0.92825 0.0
C677 C 0.50349 0.02342 0.9924 0.0
C678 C 0.49252 0.00818 0.0242 0.0
C679 C 0.49055 0.02296 0.05906 0.0
C680 C 0.50072 0.054 0.06173 0.0
C681 C 0.51307 0.0698 0.02982 0.0
C682 C 0.51415 0.05433 0.99465 0.0
H683 H 0.44036 0.50937 0.08201 0.0
H684 H 0.38074 0.47931 0.98965 0.0
H685 H 0.42745 0.46408 0.95324 0.0
H686 H 0.49745 0.54399 0.0283 0.0
H687 H 0.53026 0.53186 0.05667 0.0
H688 H 0.49237 0.53626 0.07798 0.0
H689 H 0.49402 0.47906 0.1022 0.0
H690 H 0.53231 0.47467 0.08168 0.0
H691 H 0.50141 0.4478 0.06936 0.0
H692 H 0.48059 0.46019 0.92318 0.0
H693 H 0.53653 0.46082 0.9052 0.0
H694 H 0.56116 0.49123 0.01811 0.0
C695 C 0.43704 0.49883 0.05453 0.0
C696 C 0.40689 0.49568 0.0386 0.0
C697 C 0.40358 0.4819 0.00248 0.0
C698 C 0.42999 0.47325 0.98152 0.0
C699 C 0.45944 0.47806 -0.00264 0.0
C700 C 0.46309 0.48982 0.03341 0.0
C701 C 0.49728 0.49416 0.04322 0.0
C702 C 0.50476 0.52861 0.05205 0.0
C703 C 0.50681 0.47263 0.07606 0.0
C704 C 0.51224 0.48402 0.0066 0.0
C705 C 0.49006 0.47487 0.98044 0.0
C706 C 0.49821 0.46673 0.94365 0.0
C707 C 0.52994 0.46749 0.93358 0.0
C708 C 0.55299 0.47602 0.96034 0.0
C709 C 0.54396 0.48432 -0.00275 0.0
H710 H 0.01583 0.54383 0.93152 0.0
H711 H 0.04978 0.58781 0.03405 0.0
H712 H 0.02842 0.54407 0.07168 0.0
H713 H 0.94411 0.51256 0.96946 0.0
H714 H 0.94658 0.4766 0.9432 0.0
H715 H 0.96384 0.51181 0.92449 0.0
H716 H 0.01721 0.48361 0.91875 0.0
H717 H 0.00015 0.44837 0.9377 0.0
H718 H 0.0341 0.46537 0.95987 0.0
H719 H 0.00462 0.49524 0.09794 0.0
H720 H 0.97824 0.44506 0.11143 0.0
H721 H 0.96004 0.43279 0.99175 0.0
C722 C 0.01849 0.54439 0.96191 0.0
C723 C 0.03436 0.56918 0.97994 0.0
C724 C 0.03777 0.56893 0.01971 0.0
C725 C 0.02572 0.54424 0.04131 0.0
C726 C 0.01057 0.51993 0.02264 0.0
C727 C 0.00688 0.51978 0.98387 0.0
C728 C 0.99032 0.49044 0.97075 0.0
C729 C 0.95937 0.49834 0.95081 0.0
C730 C 0.01172 0.47079 0.94526 0.0
C731 C 0.98478 0.47441 0.00828 0.0
C732 C 0.99687 0.4917 0.03781 0.0
C733 C 0.99501 0.48148 0.07508 0.0
C734 C 0.98011 0.45291 0.08243 0.0
C735 C 0.9671 0.43508 0.05263 0.0
C736 C 0.96965 0.44598 0.01511 0.0
H737 H 0.02941 0.00229 0.06866 0.0
H738 H 0.08296 0.944 0.99239 0.0
H739 H 0.04363 0.9524 0.94244 0.0
H740 H 0.95385 0.97906 0.04087 0.0
H741 H 0.93697 0.01758 0.04313 0.0
H742 H 0.96979 0.00786 0.07269 0.0
H743 H 0.00105 0.05485 0.04559 0.0
H744 H 0.96814 0.06495 0.01627 0.0
H745 H 0.00592 0.05848 0.99523 0.0
H746 H 0.99753 0.96592 0.90128 0.0
H747 H 0.94961 0.9866 0.87093 0.0
H748 H 0.92691 0.0361 0.97416 0.0
C749 C 0.03293 0.99158 0.04132 0.0
C750 C 0.05917 0.97262 0.03428 0.0
C751 C 0.06316 0.95898 -0.00183 0.0
C752 C 0.04087 0.96342 0.9697 0.0
C753 C 0.01502 0.98196 0.97763 0.0
C754 C 0.0112 0.99624 0.01234 0.0
C755 C 0.98173 0.01564 0.01325 0.0
C756 C 0.95926 0.00433 0.04433 0.0
C757 C 0.98969 0.05054 0.01785 0.0
C758 C 0.96895 0.00895 0.97428 0.0
C759 C 0.9886 0.98975 0.95397 0.0
C760 C 0.98195 0.98103 0.91688 0.0
C761 C 0.95471 0.99277 0.89992 0.0
C762 C 0.93446 0.01267 0.92028 0.0
C763 C 0.94165 0.0205 0.95803 0.0
H764 H 0.49764 0.57244 0.49061 0.0
H765 H 0.44653 0.53325 0.58566 0.0
H766 H 0.45498 0.4803 0.56077 0.0
H767 H 0.4697 0.52007 0.42087 0.0
H768 H 0.5065 0.51679 0.3964 0.0
H769 H 0.49736 0.55196 0.42194 0.0
H770 H 0.54823 0.54643 0.46127 0.0
H771 H 0.55783 0.51164 0.43526 0.0
H772 H 0.55578 0.51037 0.48606 0.0
H773 H 0.4664 0.43191 0.52416 0.0
H774 H 0.48695 0.39043 0.48278 0.0
H775 H 0.53135 0.46102 0.4124 0.0
C776 C 0.48852 0.55272 0.5064 0.0
C777 C 0.47129 0.55703 0.53992 0.0
C778 C 0.45983 0.53058 0.55987 0.0
C779 C 0.46431 0.50038 0.54587 0.0
C780 C 0.48052 0.49702 0.51213 0.0
C781 C 0.493 0.52236 0.49302 0.0
C782 C 0.51012 0.51217 0.45781 0.0
C783 C 0.495 0.52608 0.42215 0.0
C784 C 0.54506 0.52064 0.46027 0.0
C785 C 0.50503 0.47721 0.46003 0.0
C786 C 0.48767 0.46898 0.49138 0.0
C787 C 0.48015 0.43799 0.49956 0.0
C788 C 0.4917 0.41463 0.47573 0.0
C789 C 0.51076 0.42251 0.44444 0.0
C790 C 0.51679 0.45426 0.43608 0.0
H791 H 0.06059 0.4811 0.47331 0.0
H792 H 0.0467 0.5816 0.46947 0.0
H793 H -0.00018 0.57609 0.50919 0.0
H794 H 0.97882 0.46182 0.46622 0.0
H795 H 0.98155 0.42831 0.49696 0.0
H796 H 0.01495 0.44037 0.4696 0.0
H797 H 0.04788 0.44397 0.53088 0.0
H798 H 0.01443 0.43234 0.5585 0.0
H799 H 0.03461 0.46833 0.56909 0.0
H800 H 0.95422 0.56009 0.54845 0.0
H801 H 0.90973 0.53378 0.5797 0.0
H802 H 0.95247 0.44368 0.55744 0.0
C803 C 0.0477 0.50189 0.48094 0.0
C804 C 0.05733 0.53174 0.46839 0.0
C805 C 0.03967 0.55843 0.47858 0.0
C806 C 0.01313 0.55562 0.5014 0.0
C807 C 0.00436 0.52594 0.51357 0.0
C808 C 0.0208 0.49948 0.50333 0.0
C809 C 0.00518 0.47021 0.51842 0.0
C810 C 0.99449 0.44894 0.48586 0.0
C811 C 0.02682 0.45269 0.54586 0.0
C812 C 0.97754 0.48444 0.53881 0.0
C813 C 0.97765 0.51663 0.53588 0.0
C814 C 0.95387 0.53488 0.5511 0.0
C815 C 0.92874 0.51975 0.56886 0.0
C816 C 0.92761 0.48672 0.57111 0.0
C817 C 0.95276 0.46899 0.5566 0.0
H818 H -0.00037 0.92336 0.52671 0.0
H819 H 0.05602 0.9686 0.61287 0.0
H820 H 0.04767 0.01953 0.58181 0.0
H821 H 0.0274 0.9666 0.45012 0.0
H822 H 0.99035 0.96924 0.42605 0.0
H823 H -0.00181 0.93661 0.45675 0.0
H824 H 0.94852 0.94889 0.49592 0.0
H825 H 0.94014 0.98118 0.46483 0.0
H826 H 0.94329 0.98757 0.51496 0.0
H827 H 0.03638 0.06495 0.53871 0.0
H828 H 0.01872 0.10225 0.48978 0.0
H829 H 0.97045 0.02672 0.43202 0.0
C830 C 0.00971 0.94403 0.53952 0.0
C831 C 0.02849 0.94197 0.57216 0.0
C832 C 0.04146 0.96959 0.58787 0.0
C833 C 0.03697 -0.00136 0.57038 0.0
C834 C 0.01928 -0.00035 0.53743 0.0
C835 C 0.00545 0.97317 0.52248 0.0
C836 C 0.98819 0.98044 0.4863 0.0
C837 C 0.00187 0.96214 0.45284 0.0
C838 C 0.95295 0.97415 0.49079 0.0
C839 C 0.995 0.01502 0.48286 0.0
C840 C 0.01288 0.02573 0.51263 0.0
C841 C 0.02218 0.0569 0.51537 0.0
C842 C 0.0122 0.07785 0.48735 0.0
C843 C 0.99323 0.06742 0.45709 0.0
C844 C 0.98501 0.03547 0.45469 0.0
H845 H 0.5436 0.04548 0.54421 0.0
H846 H 0.60167 0.96538 0.51741 0.0
H847 H 0.5578 0.94195 0.48193 0.0
H848 H 0.47144 0.00287 0.55709 0.0
H849 H 0.44775 0.03301 0.53599 0.0
H850 H 0.48365 0.04319 0.55961 0.0
H851 H 0.50303 0.07122 0.499 0.0
H852 H 0.46732 0.06085 0.47505 0.0
H853 H 0.5045 0.04993 0.45518 0.0
H854 H 0.50858 0.92829 0.44748 0.0
H855 H 0.45579 0.92299 0.42045 0.0
H856 H 0.4292 0.01147 0.47091 0.0
C857 C 0.54709 0.02291 0.5311 0.0
C858 C 0.57612 0.00728 0.53351 0.0
C859 C 0.57967 0.9778 0.51593 0.0
C860 C 0.55492 0.96434 0.49563 0.0
C861 C 0.52682 0.98064 0.49331 0.0
C862 C 0.52266 0.00913 0.51083 0.0
C863 C 0.49008 0.02177 0.50404 0.0
C864 C 0.47218 0.02541 0.54141 0.0
C865 C 0.49132 0.05278 0.48201 0.0
C866 C 0.47646 0.99579 0.48015 0.0
C867 C 0.49819 0.97248 0.47398 0.0
C868 C 0.49133 0.94631 0.45223 0.0
C869 C 0.46129 0.94363 0.43685 0.0
C870 C 0.43834 0.96683 0.44361 0.0
C871 C 0.4462 0.99334 0.46535 0.0
H872 H 0.58634 0.26528 0.33099 0.0
H873 H 0.53484 0.34194 0.28083 0.0
H874 H 0.50509 0.30398 0.24171 0.0
H875 H 0.59982 0.22479 0.25322 0.0
H876 H 0.59575 0.1866 0.27441 0.0
H877 H 0.60645 0.21924 0.30307 0.0
H878 H 0.55906 0.20721 0.3467 0.0
H879 H 0.54774 0.17496 0.31691 0.0
H880 H 0.5202 0.20563 0.32704 0.0
H881 H 0.48983 0.25953 0.19986 0.0
H882 H 0.49713 0.21667 0.15445 0.0
H883 H 0.55654 0.16858 0.23403 0.0
C884 C 0.56849 0.27411 0.3121 0.0
C885 C 0.56315 0.30644 0.3083 0.0
C886 C 0.53934 0.31715 0.28385 0.0
C887 C 0.5221 0.29573 0.26201 0.0
C888 C 0.52835 0.26381 0.26608 0.0
C889 C 0.55096 0.25316 0.29082 0.0
C890 C 0.55682 0.2186 0.28649 0.0
C891 C 0.59173 0.21197 0.27878 0.0
C892 C 0.54525 0.20054 0.32136 0.0
C893 C 0.53644 0.21188 0.25263 0.0
C894 C 0.51896 0.23783 0.24232 0.0
C895 C 0.50255 0.23882 0.20827 0.0
C896 C 0.50648 0.21413 0.18273 0.0
C897 C 0.52725 0.18948 0.19125 0.0
C898 C 0.53993 0.18693 0.22771 0.0
H899 H 0.19904 0.52039 0.32203 0.0
H900 H 0.13298 0.58073 0.26574 0.0
H901 H 0.15991 0.57202 0.20537 0.0
H902 H 0.2595 0.54982 0.29026 0.0
H903 H 0.28421 0.51648 0.28178 0.0
H904 H 0.2532 0.51364 0.3155 0.0
H905 H 0.22897 0.46642 0.28036 0.0
H906 H 0.26087 0.46814 0.24707 0.0
H907 H 0.22104 0.46925 0.2305 0.0
H908 H 0.20183 0.57361 0.16065 0.0
H909 H 0.25287 0.581 0.13138 0.0
H910 H 0.29566 0.52078 0.21538 0.0
C911 C 0.18891 0.52943 0.29621 0.0
C912 C 0.16353 0.55029 0.29786 0.0
C913 C 0.15165 0.56368 0.26446 0.0
C914 C 0.16704 0.55898 0.23012 0.0
C915 C 0.19404 0.54068 0.22992 0.0
C916 C 0.20448 0.52524 0.2619 0.0
C917 C 0.23745 0.51285 0.25642 0.0
C918 C 0.25987 0.52391 0.28783 0.0
C919 C 0.23706 0.47703 0.25341 0.0
C920 C 0.24546 0.52742 0.21874 0.0
C921 C 0.21956 0.54214 0.20332 0.0
C922 C 0.22185 0.56112 0.17163 0.0
C923 C 0.25118 0.56551 0.15556 0.0
C924 C 0.27819 0.55136 0.17132 0.0
C925 C 0.27522 0.53124 0.20254 0.0
H926 H 0.9385 0.26508 0.1541 0.0
H927 H 0.96333 0.32575 0.24686 0.0
H928 H 0.98795 0.28072 0.27992 0.0
H929 H 0.90935 0.2094 0.20723 0.0
H930 H 0.92077 0.17673 0.17829 0.0
H931 H 0.916 0.21447 0.15731 0.0
H932 H 0.97264 0.21192 0.13155 0.0
H933 H 0.97773 0.17402 0.15309 0.0
H934 H 0.00473 0.20527 0.16356 0.0
H935 H 0.00028 0.22823 0.30715 0.0
H936 H 0.98838 0.17589 0.33197 0.0
H937 H 0.94999 0.14905 0.22373 0.0
C938 C 0.95043 0.26899 0.18068 0.0
C939 C 0.9499 0.29862 0.1978 0.0
C940 C 0.96433 0.30317 0.23314 0.0
C941 C 0.97847 0.27777 0.25182 0.0
C942 C 0.97768 0.24827 0.23465 0.0
C943 C 0.96369 0.24388 0.19983 0.0
C944 C 0.95898 0.20961 0.19102 0.0
C945 C 0.92424 0.20215 0.18308 0.0
C946 C 0.97978 0.19962 0.15784 0.0
C947 C 0.97013 0.19519 0.22759 0.0
C948 C 0.98257 0.21766 0.25149 0.0
C949 C 0.99118 0.21043 0.28842 0.0
C950 C 0.98458 0.18038 0.30221 0.0
C951 C 0.96826 0.15846 0.27957 0.0
C952 C 0.96304 0.16524 0.24117 0.0
H953 H 0.32234 0.93588 0.24662 0.0
H954 H 0.29145 0.99258 0.33999 0.0
H955 H 0.24962 0.01477 0.30036 0.0
H956 H 0.29472 0.99421 0.16557 0.0
H957 H 0.28389 0.96079 0.13747 0.0
H958 H 0.3178 0.95904 0.16768 0.0
H959 H 0.2952 0.90934 0.19936 0.0
H960 H 0.26121 0.91117 0.17014 0.0
H961 H 0.25696 0.91085 0.22076 0.0
H962 H 0.20074 0.01162 0.26255 0.0
H963 H 0.15605 0.99183 0.22455 0.0
H964 H 0.22075 0.94465 0.15057 0.0
C965 C 0.30828 0.95485 0.25749 0.0
C966 C 0.31022 0.963 0.29585 0.0
C967 C 0.29074 0.98676 0.31024 0.0
C968 C 0.26671 -0.00072 0.28794 0.0
C969 C 0.26329 0.98851 0.25101 0.0
C970 C 0.2846 0.9679 0.23522 0.0
C971 C 0.27315 0.95583 0.19755 0.0
C972 C 0.29361 0.96823 0.16515 0.0
C973 C 0.27151 0.91972 0.19701 0.0
C974 C 0.24093 0.97028 0.19646 0.0
C975 C 0.23549 0.98924 0.22735 0.0
C976 C 0.20507 -0.00156 0.23707 0.0
C977 C 0.17976 0.98719 0.21546 0.0
C978 C 0.18538 0.96767 0.18422 0.0
C979 C 0.21628 0.96071 0.17358 0.0
H980 H 0.4675 0.76796 0.83903 0.0
H981 H 0.482 0.84138 0.75705 0.0
H982 H 0.4988 0.80201 0.71011 0.0
H983 H 0.52269 0.70418 0.79864 0.0
H984 H 0.49296 0.67517 0.80772 0.0
H985 H 0.49751 0.70799 0.83917 0.0
H986 H 0.43909 0.72171 0.83 0.0
H987 H 0.4344 0.68941 0.7986 0.0
H988 H 0.42435 0.72824 0.78292 0.0
H989 H 0.50101 0.75563 0.66883 0.0
H990 H 0.47828 0.7108 0.63482 0.0
H991 H 0.4515 0.66835 0.74081 0.0
C992 C 0.47634 0.77569 0.81189 0.0
C993 C 0.47493 0.80749 0.80183 0.0
C994 C 0.48431 0.81714 0.76551 0.0
C995 C 0.49382 0.79484 0.7388 0.0
C996 C 0.49278 0.76312 0.74873 0.0
C997 C 0.48383 0.75361 0.78454 0.0
C998 C 0.47494 0.71931 0.78545 0.0
C999 C 0.49844 0.70055 0.80914 0.0
C1000 C 0.44122 0.71444 0.80003 0.0
C1001 C 0.47785 0.71144 0.74404 0.0
C1002 C 0.4902 0.73636 0.72378 0.0
C1003 C 0.49206 0.73579 0.6845 0.0
C1004 C 0.47924 0.71014 0.66539 0.0
C1005 C 0.46374 0.68613 0.68553 0.0
C1006 C 0.46419 0.68609 0.7252 0.0
H1007 H 0.80649 0.45311 0.69018 0.0
H1008 H 0.8059 0.35228 0.70419 0.0
H1009 H 0.76492 0.35683 0.75257 0.0
H1010 H 0.79041 0.47128 0.79286 0.0
H1011 H 0.76676 0.50451 0.78018 0.0
H1012 H 0.79906 0.49323 0.75061 0.0
H1013 H 0.76088 0.49044 0.69389 0.0
H1014 H 0.72818 0.50003 0.72366 0.0
H1015 H 0.72753 0.46462 0.69618 0.0
H1016 H 0.71907 0.37075 0.79031 0.0
H1017 H 0.68025 0.39482 0.83241 0.0
H1018 H 0.71086 0.48709 0.7972 0.0
C1019 C 0.79884 0.4322 0.70484 0.0
C1020 C 0.80922 0.40232 0.69353 0.0
C1021 C 0.7982 0.37535 0.71262 0.0
C1022 C 0.77468 0.37766 0.73974 0.0
C1023 C 0.76292 0.40716 0.74782 0.0
C1024 C 0.7754 0.4341 0.73231 0.0
C1025 C 0.75798 0.46279 0.74598 0.0
C1026 C 0.77985 0.48421 0.76878 0.0
C1027 C 0.74275 0.4805 0.71294 0.0
C1028 C 0.73348 0.44757 0.77096 0.0
C1029 C 0.73656 0.4154 0.77086 0.0
C1030 C 0.71665 0.39591 0.79114 0.0
C1031 C 0.69443 0.40975 0.81448 0.0
C1032 C 0.69256 0.44264 0.81753 0.0
C1033 C 0.71143 0.46188 0.7945 0.0
H1034 H 0.06111 0.77043 0.66764 0.0
H1035 H 0.02221 0.83494 0.7485 0.0
H1036 H 0.99224 0.79139 0.77782 0.0
H1037 H 0.99274 0.70927 0.668 0.0
H1038 H 0.0211 0.67827 0.66516 0.0
H1039 H 0.02826 0.71495 0.64142 0.0
H1040 H 0.08121 0.72053 0.67632 0.0
H1041 H 0.07441 0.68398 0.6992 0.0
H1042 H 0.08194 0.71839 0.72719 0.0
H1043 H 0.97878 0.741 0.80768 0.0
H1044 H 0.99324 0.69327 0.84192 0.0
H1045 H 0.04363 0.66025 0.74444 0.0
C1046 C 0.04509 0.77539 0.69054 0.0
C1047 C 0.04346 0.80565 0.70583 0.0
C1048 C 0.0232 0.8118 0.73624 0.0
C1049 C 0.00597 0.7872 0.7527 0.0
C1050 C 0.0093 0.75692 0.73815 0.0
C1051 C 0.02849 0.75107 0.7075 0.0
C1052 C 0.03467 0.7165 0.70269 0.0
C1053 C 0.01819 0.70402 0.66722 0.0
C1054 C 0.07012 0.7095 0.70138 0.0
C1055 C 0.01929 0.70397 0.73811 0.0
C1056 C 0.00281 0.72724 0.75671 0.0
C1057 C 0.9909 0.72251 0.79295 0.0
C1058 C -0.00111 0.69498 0.81217 0.0
C1059 C 0.01971 0.67341 0.79558 0.0
C1060 C 0.02719 0.67634 0.75706 0.0
H1061 H 0.71414 0.02173 0.66066 0.0
H1062 H 0.64146 0.05609 0.73389 0.0
H1063 H 0.67296 0.04179 0.78953 0.0
H1064 H 0.75426 0.96318 0.73467 0.0
H1065 H 0.79181 0.97516 0.71657 0.0
H1066 H 0.75884 0.97139 0.68506 0.0
H1067 H 0.76814 0.02819 0.66261 0.0
H1068 H 0.80014 0.0327 0.69459 0.0
H1069 H 0.76768 0.05948 0.69671 0.0
H1070 H 0.71637 0.04142 0.83356 0.0
H1071 H 0.76659 0.05738 0.86126 0.0
H1072 H 0.8149 0.03118 0.75913 0.0
C1073 C 0.70409 0.02372 0.68861 0.0
C1074 C 0.67516 0.03882 0.69339 0.0
C1075 C 0.66305 0.04331 0.72994 0.0
C1076 C 0.68101 0.03539 0.76165 0.0
C1077 C 0.71112 0.02351 0.75609 0.0
C1078 C 0.7225 0.0173 0.72027 0.0
C1079 C 0.75776 0.01308 0.7207 0.0
C1080 C 0.76617 0.97865 0.71385 0.0
C1081 C 0.77434 0.03469 0.69201 0.0
C1082 C 0.76494 0.02221 0.76099 0.0
C1083 C 0.73757 0.02589 0.78152 0.0
C1084 C 0.73785 0.03751 0.81816 0.0
C1085 C 0.76647 0.04652 0.83372 0.0
C1086 C 0.79437 0.04469 0.81251 0.0
C1087 C 0.79384 0.03178 0.77606 0.0
loop_
_geom_bond_atom_site_label_1
_geom_bond_atom_site_label_2
_geom_bond_distance
_geom_bond_site_symmetry_2
_ccdc_geom_bond_type
Zn0 O3 2.031 . S
Zn0 O5 2.049 . S
Zn0 O10 2.067 . S
Zn1 O2 1.962 . S
Zn1 O4 1.986 . S
Zn1 O6 1.996 . S
Zn1 O9 1.943 . S
O2 Zn1 1.962 . S
O2 C7 1.254 . S
O3 Zn0 2.031 . S
O3 C7 1.269 . S
O4 Zn1 1.986 . S
O4 C11 1.262 . S
O5 Zn0 2.049 . S
O5 C13 1.260 . S
O6 Zn1 1.996 . S
O6 C13 1.257 . S
C7 O2 1.254 . S
C7 O3 1.269 . S
C8 O9 1.249 . S
C8 O10 1.270 . S
O9 Zn1 1.943 . S
O9 C8 1.249 . S
O10 Zn0 2.067 . S
O10 C8 1.270 . S
C11 O4 1.262 . S
C11 O12 1.232 . S
O12 C11 1.232 . S
C13 O5 1.260 . S
C13 O6 1.257 . S
Zn14 O17 2.031 . S
Zn14 O19 2.049 . S
Zn14 O24 2.067 . S
Zn15 O16 1.962 . S
Zn15 O18 1.986 . S
Zn15 O20 1.996 . S
Zn15 O23 1.943 . S
O16 Zn15 1.962 . S
O16 C21 1.254 . S
O17 Zn14 2.031 . S
O17 C21 1.269 . S
O18 Zn15 1.986 . S
O18 C25 1.262 . S
O19 Zn14 2.049 . S
O19 C27 1.260 . S
O20 Zn15 1.996 . S
O20 C27 1.257 . S
C21 O16 1.254 . S
C21 O17 1.269 . S
C22 O23 1.249 . S
C22 O24 1.270 . S
O23 Zn15 1.943 . S
O23 C22 1.249 . S
O24 Zn14 2.067 . S
O24 C22 1.270 . S
C25 O18 1.262 . S
C25 O26 1.232 . S
O26 C25 1.232 . S
C27 O19 1.260 . S
C27 O20 1.257 . S
Zn28 O31 2.031 . S
Zn28 O33 2.049 . S
Zn28 O38 2.067 . S
Zn29 O30 1.962 . S
Zn29 O32 1.986 . S
Zn29 O34 1.996 . S
Zn29 O37 1.943 . S
O30 Zn29 1.962 . S
O30 C35 1.254 . S
O31 Zn28 2.031 . S
O31 C35 1.269 . S
O32 Zn29 1.986 . S
O32 C39 1.262 . S
O33 Zn28 2.049 . S
O33 C41 1.260 . S
O34 Zn29 1.996 . S
O34 C41 1.257 . S
C35 O30 1.254 . S
C35 O31 1.269 . S
C36 O37 1.249 . S
C36 O38 1.270 . S
O37 Zn29 1.943 . S
O37 C36 1.249 . S
O38 Zn28 2.067 . S
O38 C36 1.270 . S
C39 O32 1.262 . S
C39 O40 1.232 . S
O40 C39 1.232 . S
C41 O33 1.260 . S
C41 O34 1.257 . S
Zn42 O45 2.031 . S
Zn42 O47 2.049 . S
Zn42 O52 2.067 . S
Zn43 O44 1.962 . S
Zn43 O46 1.986 . S
Zn43 O48 1.996 . S
Zn43 O51 1.943 . S
O44 Zn43 1.962 . S
O44 C49 1.254 . S
O45 Zn42 2.031 . S
O45 C49 1.269 . S
O46 Zn43 1.986 . S
O46 C53 1.262 . S
O47 Zn42 2.049 . S
O47 C55 1.260 . S
O48 Zn43 1.996 . S
O48 C55 1.257 . S
C49 O44 1.254 . S
C49 O45 1.269 . S
C50 O51 1.249 . S
C50 O52 1.270 . S
O51 Zn43 1.943 . S
O51 C50 1.249 . S
O52 Zn42 2.067 . S
O52 C50 1.270 . S
C53 O46 1.262 . S
C53 O54 1.232 . S
O54 C53 1.232 . S
C55 O47 1.260 . S
C55 O48 1.257 . S
Zn56 O59 2.031 . S
Zn56 O61 2.049 . S
Zn56 O66 2.067 . S
Zn57 O58 1.962 . S
Zn57 O60 1.986 . S
Zn57 O62 1.996 . S
Zn57 O65 1.943 . S
O58 Zn57 1.962 . S
O58 C63 1.254 . S
O59 Zn56 2.031 . S
O59 C63 1.269 . S
O60 Zn57 1.986 . S
O60 C67 1.262 . S
O61 Zn56 2.049 . S
O61 C69 1.260 . S
O62 Zn57 1.996 . S
O62 C69 1.257 . S
C63 O58 1.254 . S
C63 O59 1.269 . S
C64 O65 1.249 . S
C64 O66 1.270 . S
O65 Zn57 1.943 . S
O65 C64 1.249 . S
O66 Zn56 2.067 . S
O66 C64 1.270 . S
C67 O60 1.262 . S
C67 O68 1.232 . S
O68 C67 1.232 . S
C69 O61 1.260 . S
C69 O62 1.257 . S
Zn70 O73 2.031 . S
Zn70 O75 2.049 . S
Zn70 O80 2.067 . S
Zn71 O72 1.962 . S
Zn71 O74 1.986 . S
Zn71 O76 1.996 . S
Zn71 O79 1.943 . S
O72 Zn71 1.962 . S
O72 C77 1.254 . S
O73 Zn70 2.031 . S
O73 C77 1.269 . S
O74 Zn71 1.986 . S
O74 C81 1.262 . S
O75 Zn70 2.049 . S
O75 C83 1.260 . S
O76 Zn71 1.996 . S
O76 C83 1.257 . S
C77 O72 1.254 . S
C77 O73 1.269 . S
C78 O79 1.249 . S
C78 O80 1.270 . S
O79 Zn71 1.943 . S
O79 C78 1.249 . S
O80 Zn70 2.067 . S
O80 C78 1.270 . S
C81 O74 1.262 . S
C81 O82 1.232 . S
O82 C81 1.232 . S
C83 O75 1.260 . S
C83 O76 1.257 . S
Zn84 O87 2.031 . S
Zn84 O89 2.049 . S
Zn84 O94 2.067 . S
Zn85 O86 1.962 . S
Zn85 O88 1.986 . S
Zn85 O90 1.996 . S
Zn85 O93 1.943 . S
O86 Zn85 1.962 . S
O86 C91 1.254 . S
O87 Zn84 2.031 . S
O87 C91 1.269 . S
O88 Zn85 1.986 . S
O88 C95 1.262 . S
O89 Zn84 2.049 . S
O89 C97 1.260 . S
O90 Zn85 1.996 . S
O90 C97 1.257 . S
C91 O86 1.254 . S
C91 O87 1.269 . S
C92 O93 1.249 . S
C92 O94 1.270 . S
O93 Zn85 1.943 . S
O93 C92 1.249 . S
O94 Zn84 2.067 . S
O94 C92 1.270 . S
C95 O88 1.262 . S
C95 O96 1.232 . S
O96 C95 1.232 . S
C97 O89 1.260 . S
C97 O90 1.257 . S
Zn98 O101 2.031 . S
Zn98 O103 2.049 . S
Zn98 O108 2.067 . S
Zn99 O100 1.962 . S
Zn99 O102 1.986 . S
Zn99 O104 1.996 . S
Zn99 O107 1.943 . S
O100 Zn99 1.962 . S
O100 C105 1.254 . S
O101 Zn98 2.031 . S
O101 C105 1.269 . S
O102 Zn99 1.986 . S
O102 C109 1.262 . S
O103 Zn98 2.049 . S
O103 C111 1.260 . S
O104 Zn99 1.996 . S
O104 C111 1.257 . S
C105 O100 1.254 . S
C105 O101 1.269 . S
C106 O107 1.249 . S
C106 O108 1.270 . S
O107 Zn99 1.943 . S
O107 C106 1.249 . S
O108 Zn98 2.067 . S
O108 C106 1.270 . S
C109 O102 1.262 . S
C109 O110 1.232 . S
O110 C109 1.232 . S
C111 O103 1.260 . S
C111 O104 1.257 . S
Zn112 O115 2.031 . S
Zn112 O117 2.049 . S
Zn112 O122 2.067 . S
Zn113 O114 1.962 . S
Zn113 O116 1.986 . S
Zn113 O118 1.996 . S
Zn113 O121 1.943 . S
O114 Zn113 1.962 . S
O114 C119 1.254 . S
O115 Zn112 2.031 . S
O115 C119 1.269 . S
O116 Zn113 1.986 . S
O116 C123 1.262 . S
O117 Zn112 2.049 . S
O117 C125 1.260 . S
O118 Zn113 1.996 . S
O118 C125 1.257 . S
C119 O114 1.254 . S
C119 O115 1.269 . S
C120 O121 1.249 . S
C120 O122 1.270 . S
O121 Zn113 1.943 . S
O121 C120 1.249 . S
O122 Zn112 2.067 . S
O122 C120 1.270 . S
C123 O116 1.262 . S
C123 O124 1.232 . S
O124 C123 1.232 . S
C125 O117 1.260 . S
C125 O118 1.257 . S
Zn126 O129 2.031 . S
Zn126 O131 2.049 . S
Zn126 O136 2.067 . S
Zn127 O128 1.962 . S
Zn127 O130 1.986 . S
Zn127 O132 1.996 . S
Zn127 O135 1.943 . S
O128 Zn127 1.962 . S
O128 C133 1.254 . S
O129 Zn126 2.031 . S
O129 C133 1.269 . S
O130 Zn127 1.986 . S
O130 C137 1.262 . S
O131 Zn126 2.049 . S
O131 C139 1.260 . S
O132 Zn127 1.996 . S
O132 C139 1.257 . S
C133 O128 1.254 . S
C133 O129 1.269 . S
C134 O135 1.249 . S
C134 O136 1.270 . S
O135 Zn127 1.943 . S
O135 C134 1.249 . S
O136 Zn126 2.067 . S
O136 C134 1.270 . S
C137 O130 1.262 . S
C137 O138 1.232 . S
O138 C137 1.232 . S
C139 O131 1.260 . S
C139 O132 1.257 . S
Zn140 O143 2.031 . S
Zn140 O145 2.049 . S
Zn140 O150 2.067 . S
Zn141 O142 1.962 . S
Zn141 O144 1.986 . S
Zn141 O146 1.996 . S
Zn141 O149 1.943 . S
O142 Zn141 1.962 . S
O142 C147 1.254 . S
O143 Zn140 2.031 . S
O143 C147 1.269 . S
O144 Zn141 1.986 . S
O144 C151 1.262 . S
O145 Zn140 2.049 . S
O145 C153 1.260 . S
O146 Zn141 1.996 . S
O146 C153 1.257 . S
C147 O142 1.254 . S
C147 O143 1.269 . S
C148 O149 1.249 . S
C148 O150 1.270 . S
O149 Zn141 1.943 . S
O149 C148 1.249 . S
O150 Zn140 2.067 . S
O150 C148 1.270 . S
C151 O144 1.262 . S
C151 O152 1.232 . S
O152 C151 1.232 . S
C153 O145 1.260 . S
C153 O146 1.257 . S
Zn154 O157 2.031 . S
Zn154 O159 2.049 . S
Zn154 O164 2.067 . S
Zn155 O156 1.962 . S
Zn155 O158 1.986 . S
Zn155 O160 1.996 . S
Zn155 O163 1.943 . S
O156 Zn155 1.962 . S
O156 C161 1.254 . S
O157 Zn154 2.031 . S
O157 C161 1.269 . S
O158 Zn155 1.986 . S
O158 C165 1.262 . S
O159 Zn154 2.049 . S
O159 C167 1.260 . S
O160 Zn155 1.996 . S
O160 C167 1.257 . S
C161 O156 1.254 . S
C161 O157 1.269 . S
C162 O163 1.249 . S
C162 O164 1.270 . S
O163 Zn155 1.943 . S
O163 C162 1.249 . S
O164 Zn154 2.067 . S
O164 C162 1.270 . S
C165 O158 1.262 . S
C165 O166 1.232 . S
O166 C165 1.232 . S
C167 O159 1.260 . S
C167 O160 1.257 . S
Zn168 O171 2.031 . S
Zn168 O173 2.049 . S
Zn168 O178 2.067 . S
Zn169 O170 1.962 . S
Zn169 O172 1.986 . S
Zn169 O174 1.996 . S
Zn169 O177 1.943 . S
O170 Zn169 1.962 . S
O170 C175 1.254 . S
O171 Zn168 2.031 . S
O171 C175 1.269 . S
O172 Zn169 1.986 . S
O172 C179 1.262 . S
O173 Zn168 2.049 . S
O173 C181 1.260 . S
O174 Zn169 1.996 . S
O174 C181 1.257 . S
C175 O170 1.254 . S
C175 O171 1.269 . S
C176 O177 1.249 . S
C176 O178 1.270 . S
O177 Zn169 1.943 . S
O177 C176 1.249 . S
O178 Zn168 2.067 . S
O178 C176 1.270 . S
C179 O172 1.262 . S
C179 O180 1.232 . S
O180 C179 1.232 . S
C181 O173 1.260 . S
C181 O174 1.257 . S
Zn182 O185 2.031 . S
Zn182 O187 2.049 . S
Zn182 O192 2.067 . S
Zn183 O184 1.962 . S
Zn183 O186 1.986 . S
Zn183 O188 1.996 . S
Zn183 O191 1.943 . S
O184 Zn183 1.962 . S
O184 C189 1.254 . S
O185 Zn182 2.031 . S
O185 C189 1.269 . S
O186 Zn183 1.986 . S
O186 C193 1.262 . S
O187 Zn182 2.049 . S
O187 C195 1.260 . S
O188 Zn183 1.996 . S
O188 C195 1.257 . S
C189 O184 1.254 . S
C189 O185 1.269 . S
C190 O191 1.249 . S
C190 O192 1.270 . S
O191 Zn183 1.943 . S
O191 C190 1.249 . S
O192 Zn182 2.067 . S
O192 C190 1.270 . S
C193 O186 1.262 . S
C193 O194 1.232 . S
O194 C193 1.232 . S
C195 O187 1.260 . S
C195 O188 1.257 . S
Zn196 O199 2.031 . S
Zn196 O201 2.049 . S
Zn196 O206 2.067 . S
Zn197 O198 1.962 . S
Zn197 O200 1.986 . S
Zn197 O202 1.996 . S
Zn197 O205 1.943 . S
O198 Zn197 1.962 . S
O198 C203 1.254 . S
O199 Zn196 2.031 . S
O199 C203 1.269 . S
O200 Zn197 1.986 . S
O200 C207 1.262 . S
O201 Zn196 2.049 . S
O201 C209 1.260 . S
O202 Zn197 1.996 . S
O202 C209 1.257 . S
C203 O198 1.254 . S
C203 O199 1.269 . S
C204 O205 1.249 . S
C204 O206 1.270 . S
O205 Zn197 1.943 . S
O205 C204 1.249 . S
O206 Zn196 2.067 . S
O206 C204 1.270 . S
C207 O200 1.262 . S
C207 O208 1.232 . S
O208 C207 1.232 . S
C209 O201 1.260 . S
C209 O202 1.257 . S
Zn210 O213 2.031 . S
Zn210 O215 2.049 . S
Zn210 O220 2.067 . S
Zn211 O212 1.962 . S
Zn211 O214 1.986 . S
Zn211 O216 1.996 . S
Zn211 O219 1.943 . S
O212 Zn211 1.962 . S
O212 C217 1.254 . S
O213 Zn210 2.031 . S
O213 C217 1.269 . S
O214 Zn211 1.986 . S
O214 C221 1.262 . S
O215 Zn210 2.049 . S
O215 C223 1.260 . S
O216 Zn211 1.996 . S
O216 C223 1.257 . S
C217 O212 1.254 . S
C217 O213 1.269 . S
C218 O219 1.249 . S
C218 O220 1.270 . S
O219 Zn211 1.943 . S
O219 C218 1.249 . S
O220 Zn210 2.067 . S
O220 C218 1.270 . S
C221 O214 1.262 . S
C221 O222 1.232 . S
O222 C221 1.232 . S
C223 O215 1.260 . S
C223 O216 1.257 . S
H224 C236 0.930 1_556 S
H225 C238 0.930 . S
H226 C239 0.930 . S
H227 C243 0.959 . S
H228 C243 0.959 . S
H229 C243 0.961 . S
H230 C244 0.960 . S
H231 C244 0.961 . S
H232 C244 0.959 . S
H233 C247 0.929 . S
H234 C248 0.931 . S
H235 C250 0.930 . S
C236 H224 0.930 1_554 S
C236 C237 1.399 . S
C236 C241 1.399 1_554 S
C237 C236 1.399 . S
C237 C238 1.376 . S
C238 H225 0.930 . S
C238 C237 1.376 . S
C238 C239 1.388 . S
C239 H226 0.930 . S
C239 C238 1.388 . S
C239 C240 1.390 . S
C240 C239 1.390 . S
C240 C241 1.394 1_554 S
C240 C246 1.465 1_554 S
C241 C236 1.399 1_556 S
C241 C240 1.394 1_556 S
C241 C242 1.516 . S
C242 C241 1.516 . S
C242 C243 1.502 . S
C242 C244 1.561 . S
C242 C245 1.526 . S
C243 H227 0.959 . S
C243 H228 0.959 . S
C243 H229 0.961 . S
C243 C242 1.502 . S
C244 H230 0.960 . S
C244 H231 0.961 . S
C244 H232 0.959 . S
C244 C242 1.561 . S
C245 C242 1.526 . S
C245 C246 1.396 . S
C245 C250 1.390 . S
C246 C240 1.465 1_556 S
C246 C245 1.396 . S
C246 C247 1.399 1_556 S
C247 H233 0.929 . S
C247 C246 1.399 1_554 S
C247 C248 1.385 1_554 S
C248 H234 0.931 . S
C248 C247 1.385 1_556 S
C248 C249 1.389 . S
C249 C248 1.389 . S
C249 C250 1.387 . S
C250 H235 0.930 . S
C250 C245 1.390 . S
C250 C249 1.387 . S
H251 C263 0.930 . S
H252 C265 0.930 . S
H253 C266 0.930 . S
H254 C270 0.959 . S
H255 C270 0.959 . S
H256 C270 0.961 . S
H257 C271 0.960 . S
H258 C271 0.961 . S
H259 C271 0.959 . S
H260 C274 0.934 . S
H261 C275 0.931 . S
H262 C277 0.930 . S
C263 H251 0.930 . S
C263 C264 1.399 . S
C263 C268 1.399 . S
C264 C263 1.399 . S
C264 C265 1.376 . S
C265 H252 0.930 . S
C265 C264 1.376 . S
C265 C266 1.388 . S
C266 H253 0.930 . S
C266 C265 1.388 . S
C266 C267 1.390 . S
C267 C266 1.390 . S
C267 C268 1.394 . S
C267 C273 1.465 1_556 S
C268 C263 1.399 . S
C268 C267 1.394 . S
C268 C269 1.516 1_556 S
C269 C268 1.516 1_554 S
C269 C270 1.502 1_554 S
C269 C271 1.561 . S
C269 C272 1.526 . S
C270 H254 0.959 . S
C270 H255 0.959 . S
C270 H256 0.961 . S
C270 C269 1.502 1_556 S
C271 H257 0.960 . S
C271 H258 0.961 . S
C271 H259 0.959 . S
C271 C269 1.561 . S
C272 C269 1.526 . S
C272 C273 1.396 . S
C272 C277 1.390 . S
C273 C267 1.465 1_554 S
C273 C272 1.396 . S
C273 C274 1.399 . S
C274 H260 0.934 . S
C274 C273 1.399 . S
C274 C275 1.385 . S
C275 H261 0.931 . S
C275 C274 1.385 . S
C275 C276 1.389 . S
C276 C275 1.389 . S
C276 C277 1.387 . S
C277 H262 0.930 . S
C277 C272 1.390 . S
C277 C276 1.387 . S
H278 C290 0.930 . S
H279 C292 0.930 . S
H280 C293 0.945 . S
H281 C297 0.959 . S
H282 C297 0.959 . S
H283 C297 0.961 . S
H284 C298 0.960 . S
H285 C298 0.961 . S
H286 C298 0.959 . S
H287 C301 0.929 . S
H288 C302 0.931 . S
H289 C304 0.930 1_556 S
C290 H278 0.930 . S
C290 C291 1.399 . S
C290 C295 1.399 . S
C291 C290 1.399 . S
C291 C292 1.376 . S
C292 H279 0.930 . S
C292 C291 1.376 . S
C292 C293 1.378 1_556 S
C293 H280 0.945 . S
C293 C292 1.378 1_554 S
C293 C294 1.386 1_554 S
C294 C293 1.386 1_556 S
C294 C295 1.394 . S
C294 C300 1.465 1_556 S
C295 C290 1.399 . S
C295 C294 1.394 . S
C295 C296 1.516 . S
C296 C295 1.516 . S
C296 C297 1.502 . S
C296 C298 1.561 . S
C296 C299 1.526 . S
C297 H281 0.959 . S
C297 H282 0.959 . S
C297 H283 0.961 . S
C297 C296 1.502 . S
C298 H284 0.960 . S
C298 H285 0.961 . S
C298 H286 0.959 . S
C298 C296 1.561 . S
C299 C296 1.526 . S
C299 C300 1.396 1_556 S
C299 C304 1.390 1_556 S
C300 C294 1.465 1_554 S
C300 C299 1.396 1_554 S
C300 C301 1.399 . S
C301 H287 0.929 . S
C301 C300 1.399 . S
C301 C302 1.385 . S
C302 H288 0.931 . S
C302 C301 1.385 . S
C302 C303 1.389 . S
C303 C302 1.389 . S
C303 C304 1.387 . S
C304 H289 0.930 1_554 S
C304 C299 1.390 1_554 S
C304 C303 1.387 . S
H305 C317 0.930 . S
H306 C319 0.930 . S
H307 C320 0.930 . S
H308 C324 0.959 . S
H309 C324 0.959 . S
H310 C324 0.961 . S
H311 C325 0.960 . S
H312 C325 0.961 . S
H313 C325 0.959 . S
H314 C328 0.929 . S
H315 C329 0.931 . S
H316 C331 0.930 . S
C317 H305 0.930 . S
C317 C318 1.399 . S
C317 C322 1.399 . S
C318 C317 1.399 . S
C318 C319 1.376 . S
C319 H306 0.930 . S
C319 C318 1.376 . S
C319 C320 1.388 . S
C320 H307 0.930 . S
C320 C319 1.388 . S
C320 C321 1.390 . S
C321 C320 1.390 . S
C321 C322 1.394 . S
C321 C327 1.465 1_556 S
C322 C317 1.399 . S
C322 C321 1.394 . S
C322 C323 1.516 . S
C323 C322 1.516 . S
C323 C324 1.502 . S
C323 C325 1.561 1_556 S
C323 C326 1.526 1_556 S
C324 H308 0.959 . S
C324 H309 0.959 . S
C324 H310 0.961 . S
C324 C323 1.502 . S
C325 H311 0.960 . S
C325 H312 0.961 . S
C325 H313 0.959 . S
C325 C323 1.561 1_554 S
C326 C323 1.526 1_554 S
C326 C327 1.396 . S
C326 C331 1.390 . S
C327 C321 1.465 1_554 S
C327 C326 1.396 . S
C327 C328 1.399 . S
C328 H314 0.929 . S
C328 C327 1.399 . S
C328 C329 1.385 . S
C329 H315 0.931 . S
C329 C328 1.385 . S
C329 C330 1.389 . S
C330 C329 1.389 . S
C330 C331 1.387 . S
C331 H316 0.930 . S
C331 C326 1.390 . S
C331 C330 1.387 . S
H332 C344 0.930 . S
H333 C346 0.930 . S
H334 C347 0.930 . S
H335 C351 0.959 . S
H336 C351 0.959 . S
H337 C351 0.961 . S
H338 C352 0.960 . S
H339 C352 0.961 . S
H340 C352 0.959 . S
H341 C355 0.929 . S
H342 C356 0.931 . S
H343 C358 0.930 . S
C344 H332 0.930 . S
C344 C345 1.399 . S
C344 C349 1.399 . S
C345 C344 1.399 . S
C345 C346 1.376 . S
C346 H333 0.930 . S
C346 C345 1.376 . S
C346 C347 1.388 . S
C347 H334 0.930 . S
C347 C346 1.388 . S
C347 C348 1.390 . S
C348 C347 1.390 . S
C348 C349 1.394 . S
C348 C354 1.465 . S
C349 C344 1.399 . S
C349 C348 1.394 . S
C349 C350 1.516 . S
C350 C349 1.516 . S
C350 C351 1.502 . S
C350 C352 1.561 . S
C350 C353 1.526 . S
C351 H335 0.959 . S
C351 H336 0.959 . S
C351 H337 0.961 . S
C351 C350 1.502 . S
C352 H338 0.960 . S
C352 H339 0.961 . S
C352 H340 0.959 . S
C352 C350 1.561 . S
C353 C350 1.526 . S
C353 C354 1.396 . S
C353 C358 1.390 . S
C354 C348 1.465 . S
C354 C353 1.396 . S
C354 C355 1.399 . S
C355 H341 0.929 . S
C355 C354 1.399 . S
C355 C356 1.385 . S
C356 H342 0.931 . S
C356 C355 1.385 . S
C356 C357 1.389 . S
C357 C356 1.389 . S
C357 C358 1.387 . S
C358 H343 0.930 . S
C358 C353 1.390 . S
C358 C357 1.387 . S
H359 C371 0.930 . S
H360 C373 0.930 . S
H361 C374 0.930 . S
H362 C378 0.959 . S
H363 C378 0.959 . S
H364 C378 0.961 . S
H365 C379 0.960 . S
H366 C379 0.961 . S
H367 C379 0.959 . S
H368 C382 0.929 . S
H369 C383 0.931 . S
H370 C385 0.930 . S
C371 H359 0.930 . S
C371 C372 1.399 . S
C371 C376 1.399 . S
C372 C371 1.399 . S
C372 C373 1.376 . S
C373 H360 0.930 . S
C373 C372 1.376 . S
C373 C374 1.388 . S
C374 H361 0.930 . S
C374 C373 1.388 . S
C374 C375 1.390 . S
C375 C374 1.390 . S
C375 C376 1.394 . S
C375 C381 1.465 . S
C376 C371 1.399 . S
C376 C375 1.394 . S
C376 C377 1.516 . S
C377 C376 1.516 . S
C377 C378 1.502 . S
C377 C379 1.561 . S
C377 C380 1.526 . S
C378 H362 0.959 . S
C378 H363 0.959 . S
C378 H364 0.961 . S
C378 C377 1.502 . S
C379 H365 0.960 . S
C379 H366 0.961 . S
C379 H367 0.959 . S
C379 C377 1.561 . S
C380 C377 1.526 . S
C380 C381 1.396 . S
C380 C385 1.390 . S
C381 C375 1.465 . S
C381 C380 1.396 . S
C381 C382 1.399 . S
C382 H368 0.929 . S
C382 C381 1.399 . S
C382 C383 1.385 . S
C383 H369 0.931 . S
C383 C382 1.385 . S
C383 C384 1.389 . S
C384 C383 1.389 . S
C384 C385 1.387 . S
C385 H370 0.930 . S
C385 C380 1.390 . S
C385 C384 1.387 . S
H386 C398 0.930 . S
H387 C400 0.930 . S
H388 C401 0.930 . S
H389 C405 0.959 . S
H390 C405 0.959 . S
H391 C405 0.961 . S
H392 C406 0.960 . S
H393 C406 0.961 . S
H394 C406 0.959 . S
H395 C409 0.929 . S
H396 C410 0.931 . S
H397 C412 0.930 . S
C398 H386 0.930 . S
C398 C399 1.399 . S
C398 C403 1.399 . S
C399 C398 1.399 . S
C399 C400 1.376 . S
C400 H387 0.930 . S
C400 C399 1.376 . S
C400 C401 1.388 . S
C401 H388 0.930 . S
C401 C400 1.388 . S
C401 C402 1.390 . S
C402 C401 1.390 . S
C402 C403 1.394 . S
C402 C408 1.465 . S
C403 C398 1.399 . S
C403 C402 1.394 . S
C403 C404 1.516 . S
C404 C403 1.516 . S
C404 C405 1.502 . S
C404 C406 1.561 . S
C404 C407 1.526 . S
C405 H389 0.959 . S
C405 H390 0.959 . S
C405 H391 0.961 . S
C405 C404 1.502 . S
C406 H392 0.960 . S
C406 H393 0.961 . S
C406 H394 0.959 . S
C406 C404 1.561 . S
C407 C404 1.526 . S
C407 C408 1.396 . S
C407 C412 1.390 . S
C408 C402 1.465 . S
C408 C407 1.396 . S
C408 C409 1.399 . S
C409 H395 0.929 . S
C409 C408 1.399 . S
C409 C410 1.385 . S
C410 H396 0.931 . S
C410 C409 1.385 . S
C410 C411 1.389 . S
C411 C410 1.389 . S
C411 C412 1.387 . S
C412 H397 0.930 . S
C412 C407 1.390 . S
C412 C411 1.387 . S
H413 C425 0.930 . S
H414 C427 0.930 . S
H415 C428 0.930 . S
H416 C432 0.959 . S
H417 C432 0.959 . S
H418 C432 0.961 . S
H419 C433 0.960 . S
H420 C433 0.961 . S
H421 C433 0.959 . S
H422 C436 0.929 . S
H423 C437 0.931 . S
H424 C439 0.930 . S
C425 H413 0.930 . S
C425 C426 1.399 . S
C425 C430 1.399 . S
C426 C425 1.399 . S
C426 C427 1.376 . S
C427 H414 0.930 . S
C427 C426 1.376 . S
C427 C428 1.388 . S
C428 H415 0.930 . S
C428 C427 1.388 . S
C428 C429 1.390 . S
C429 C428 1.390 . S
C429 C430 1.394 . S
C429 C435 1.465 . S
C430 C425 1.399 . S
C430 C429 1.394 . S
C430 C431 1.516 . S
C431 C430 1.516 . S
C431 C432 1.502 . S
C431 C433 1.561 . S
C431 C434 1.526 . S
C432 H416 0.959 . S
C432 H417 0.959 . S
C432 H418 0.961 . S
C432 C431 1.502 . S
C433 H419 0.960 . S
C433 H420 0.961 . S
C433 H421 0.959 . S
C433 C431 1.561 . S
C434 C431 1.526 . S
C434 C435 1.396 . S
C434 C439 1.390 . S
C435 C429 1.465 . S
C435 C434 1.396 . S
C435 C436 1.399 . S
C436 H422 0.929 . S
C436 C435 1.399 . S
C436 C437 1.385 . S
C437 H423 0.931 . S
C437 C436 1.385 . S
C437 C438 1.389 . S
C438 C437 1.389 . S
C438 C439 1.387 . S
C439 H424 0.930 . S
C439 C434 1.390 . S
C439 C438 1.387 . S
H440 C452 0.930 1_554 S
H441 C454 0.930 . S
H442 C455 0.930 . S
H443 C459 0.959 . S
H444 C459 0.959 . S
H445 C459 0.961 . S
H446 C460 0.960 . S
H447 C460 0.961 . S
H448 C460 0.959 . S
H449 C463 0.929 . S
H450 C464 0.931 . S
H451 C466 0.930 . S
C452 H440 0.930 1_556 S
C452 C453 1.399 . S
C452 C457 1.399 1_556 S
C453 C452 1.399 . S
C453 C454 1.376 . S
C454 H441 0.930 . S
C454 C453 1.376 . S
C454 C455 1.388 . S
C455 H442 0.930 . S
C455 C454 1.388 . S
C455 C456 1.390 . S
C456 C455 1.390 . S
C456 C457 1.394 1_556 S
C456 C462 1.465 1_556 S
C457 C452 1.399 1_554 S
C457 C456 1.394 1_554 S
C457 C458 1.516 . S
C458 C457 1.516 . S
C458 C459 1.502 . S
C458 C460 1.561 . S
C458 C461 1.526 . S
C459 H443 0.959 . S
C459 H444 0.959 . S
C459 H445 0.961 . S
C459 C458 1.502 . S
C460 H446 0.960 . S
C460 H447 0.961 . S
C460 H448 0.959 . S
C460 C458 1.561 . S
C461 C458 1.526 . S
C461 C462 1.396 . S
C461 C466 1.390 . S
C462 C456 1.465 1_554 S
C462 C461 1.396 . S
C462 C463 1.399 1_554 S
C463 H449 0.929 . S
C463 C462 1.399 1_556 S
C463 C464 1.385 1_556 S
C464 H450 0.931 . S
C464 C463 1.385 1_554 S
C464 C465 1.389 . S
C465 C464 1.389 . S
C465 C466 1.387 . S
C466 H451 0.930 . S
C466 C461 1.390 . S
C466 C465 1.387 . S
H467 C479 0.930 . S
H468 C481 0.930 . S
H469 C482 0.930 . S
H470 C486 0.959 . S
H471 C486 0.959 . S
H472 C486 0.961 . S
H473 C487 0.960 . S
H474 C487 0.961 . S
H475 C487 0.959 . S
H476 C490 0.929 . S
H477 C491 0.931 . S
H478 C493 0.930 . S
C479 H467 0.930 . S
C479 C480 1.399 . S
C479 C484 1.399 . S
C480 C479 1.399 . S
C480 C481 1.376 . S
C481 H468 0.930 . S
C481 C480 1.376 . S
C481 C482 1.388 . S
C482 H469 0.930 . S
C482 C481 1.388 . S
C482 C483 1.390 . S
C483 C482 1.390 . S
C483 C484 1.394 . S
C483 C489 1.465 1_556 S
C484 C479 1.399 . S
C484 C483 1.394 . S
C484 C485 1.516 1_556 S
C485 C484 1.516 1_554 S
C485 C486 1.502 . S
C485 C487 1.561 1_554 S
C485 C488 1.526 . S
C486 H470 0.959 . S
C486 H471 0.959 . S
C486 H472 0.961 . S
C486 C485 1.502 . S
C487 H473 0.960 . S
C487 H474 0.961 . S
C487 H475 0.959 . S
C487 C485 1.561 1_556 S
C488 C485 1.526 . S
C488 C489 1.396 . S
C488 C493 1.390 . S
C489 C483 1.465 1_554 S
C489 C488 1.396 . S
C489 C490 1.399 . S
C490 H476 0.929 . S
C490 C489 1.399 . S
C490 C491 1.385 . S
C491 H477 0.931 . S
C491 C490 1.385 . S
C491 C492 1.389 . S
C492 C491 1.389 . S
C492 C493 1.387 . S
C493 H478 0.930 . S
C493 C488 1.390 . S
C493 C492 1.387 . S
H494 C506 0.930 . S
H495 C508 0.930 . S
H496 C509 0.930 . S
H497 C513 0.959 . S
H498 C513 0.959 . S
H499 C513 0.961 . S
H500 C514 0.960 . S
H501 C514 0.961 . S
H502 C514 0.959 . S
H503 C517 0.929 . S
H504 C518 0.931 . S
H505 C520 0.930 . S
C506 H494 0.930 . S
C506 C507 1.399 . S
C506 C511 1.399 . S
C507 C506 1.399 . S
C507 C508 1.376 1_556 S
C508 H495 0.930 . S
C508 C507 1.376 1_554 S
C508 C509 1.388 . S
C509 H496 0.930 . S
C509 C508 1.388 . S
C509 C510 1.390 . S
C510 C509 1.390 . S
C510 C511 1.394 1_554 S
C510 C516 1.465 . S
C511 C506 1.399 . S
C511 C510 1.394 1_556 S
C511 C512 1.516 . S
C512 C511 1.516 . S
C512 C513 1.502 . S
C512 C514 1.561 . S
C512 C515 1.526 1_556 S
C513 H497 0.959 . S
C513 H498 0.959 . S
C513 H499 0.961 . S
C513 C512 1.502 . S
C514 H500 0.960 . S
C514 H501 0.961 . S
C514 H502 0.959 . S
C514 C512 1.561 . S
C515 C512 1.526 1_554 S
C515 C516 1.396 . S
C515 C520 1.390 . S
C516 C510 1.465 . S
C516 C515 1.396 . S
C516 C517 1.399 . S
C517 H503 0.929 . S
C517 C516 1.399 . S
C517 C518 1.385 . S
C518 H504 0.931 . S
C518 C517 1.385 . S
C518 C519 1.389 . S
C519 C518 1.389 . S
C519 C520 1.387 . S
C520 H505 0.930 . S
C520 C515 1.390 . S
C520 C519 1.387 . S
H521 C533 0.930 . S
H522 C535 0.930 . S
H523 C536 0.930 . S
H524 C540 0.959 . S
H525 C540 0.959 . S
H526 C540 0.961 . S
H527 C541 0.960 . S
H528 C541 0.961 . S
H529 C541 0.959 . S
H530 C544 0.929 . S
H531 C545 0.931 . S
H532 C547 0.930 1_554 S
C533 H521 0.930 . S
C533 C534 1.399 . S
C533 C538 1.399 . S
C534 C533 1.399 . S
C534 C535 1.376 . S
C535 H522 0.930 . S
C535 C534 1.376 . S
C535 C536 1.388 1_554 S
C536 H523 0.930 . S
C536 C535 1.388 1_556 S
C536 C537 1.390 1_556 S
C537 C536 1.390 1_554 S
C537 C538 1.394 . S
C537 C543 1.465 1_554 S
C538 C533 1.399 . S
C538 C537 1.394 . S
C538 C539 1.516 . S
C539 C538 1.516 . S
C539 C540 1.502 . S
C539 C541 1.561 . S
C539 C542 1.526 . S
C540 H524 0.959 . S
C540 H525 0.959 . S
C540 H526 0.961 . S
C540 C539 1.502 . S
C541 H527 0.960 . S
C541 H528 0.961 . S
C541 H529 0.959 . S
C541 C539 1.561 . S
C542 C539 1.526 . S
C542 C543 1.396 1_554 S
C542 C547 1.390 1_554 S
C543 C537 1.465 1_556 S
C543 C542 1.396 1_556 S
C543 C544 1.399 . S
C544 H530 0.929 . S
C544 C543 1.399 . S
C544 C545 1.385 . S
C545 H531 0.931 . S
C545 C544 1.385 . S
C545 C546 1.389 . S
C546 C545 1.389 . S
C546 C547 1.387 . S
C547 H532 0.930 1_556 S
C547 C542 1.390 1_556 S
C547 C546 1.387 . S
H548 C560 0.930 . S
H549 C562 0.930 . S
H550 C563 0.930 . S
H551 C567 0.959 . S
H552 C567 0.959 . S
H553 C567 0.961 . S
H554 C568 0.960 . S
H555 C568 0.961 . S
H556 C568 0.959 . S
H557 C571 0.929 . S
H558 C572 0.931 . S
H559 C574 0.930 . S
C560 H548 0.930 . S
C560 C561 1.399 . S
C560 C565 1.399 . S
C561 C560 1.399 . S
C561 C562 1.376 . S
C562 H549 0.930 . S
C562 C561 1.376 . S
C562 C563 1.388 . S
C563 H550 0.930 . S
C563 C562 1.388 . S
C563 C564 1.390 . S
C564 C563 1.390 . S
C564 C565 1.394 . S
C564 C570 1.465 . S
C565 C560 1.399 . S
C565 C564 1.394 . S
C565 C566 1.516 . S
C566 C565 1.516 . S
C566 C567 1.502 . S
C566 C568 1.561 . S
C566 C569 1.526 . S
C567 H551 0.959 . S
C567 H552 0.959 . S
C567 H553 0.961 . S
C567 C566 1.502 . S
C568 H554 0.960 . S
C568 H555 0.961 . S
C568 H556 0.959 . S
C568 C566 1.561 . S
C569 C566 1.526 . S
C569 C570 1.396 . S
C569 C574 1.390 . S
C570 C564 1.465 . S
C570 C569 1.396 . S
C570 C571 1.399 . S
C571 H557 0.929 . S
C571 C570 1.399 . S
C571 C572 1.385 . S
C572 H558 0.931 . S
C572 C571 1.385 . S
C572 C573 1.389 . S
C573 C572 1.389 . S
C573 C574 1.387 . S
C574 H559 0.930 . S
C574 C569 1.390 . S
C574 C573 1.387 . S
H575 C587 0.930 . S
H576 C589 0.930 . S
H577 C590 0.930 . S
H578 C594 0.959 . S
H579 C594 0.959 . S
H580 C594 0.961 . S
H581 C595 0.960 . S
H582 C595 0.961 . S
H583 C595 0.959 . S
H584 C598 0.929 . S
H585 C599 0.931 . S
H586 C601 0.930 . S
C587 H575 0.930 . S
C587 C588 1.399 . S
C587 C592 1.399 . S
C588 C587 1.399 . S
C588 C589 1.376 . S
C589 H576 0.930 . S
C589 C588 1.376 . S
C589 C590 1.388 . S
C590 H577 0.930 . S
C590 C589 1.388 . S
C590 C591 1.390 . S
C591 C590 1.390 . S
C591 C592 1.394 . S
C591 C597 1.465 . S
C592 C587 1.399 . S
C592 C591 1.394 . S
C592 C593 1.516 . S
C593 C592 1.516 . S
C593 C594 1.502 . S
C593 C595 1.561 . S
C593 C596 1.526 . S
C594 H578 0.959 . S
C594 H579 0.959 . S
C594 H580 0.961 . S
C594 C593 1.502 . S
C595 H581 0.960 . S
C595 H582 0.961 . S
C595 H583 0.959 . S
C595 C593 1.561 . S
C596 C593 1.526 . S
C596 C597 1.396 . S
C596 C601 1.390 . S
C597 C591 1.465 . S
C597 C596 1.396 . S
C597 C598 1.399 . S
C598 H584 0.929 . S
C598 C597 1.399 . S
C598 C599 1.385 . S
C599 H585 0.931 . S
C599 C598 1.385 . S
C599 C600 1.389 . S
C600 C599 1.389 . S
C600 C601 1.387 . S
C601 H586 0.930 . S
C601 C596 1.390 . S
C601 C600 1.387 . S
H602 C614 0.930 . S
H603 C616 0.930 . S
H604 C617 0.930 . S
H605 C621 0.959 . S
H606 C621 0.959 . S
H607 C621 0.961 . S
H608 C622 0.960 . S
H609 C622 0.961 . S
H610 C622 0.959 . S
H611 C625 0.929 . S
H612 C626 0.931 . S
H613 C628 0.930 . S
C614 H602 0.930 . S
C614 C615 1.399 . S
C614 C619 1.399 . S
C615 C614 1.399 . S
C615 C616 1.376 . S
C616 H603 0.930 . S
C616 C615 1.376 . S
C616 C617 1.388 . S
C617 H604 0.930 . S
C617 C616 1.388 . S
C617 C618 1.390 . S
C618 C617 1.390 . S
C618 C619 1.394 . S
C618 C624 1.465 . S
C619 C614 1.399 . S
C619 C618 1.394 . S
C619 C620 1.516 . S
C620 C619 1.516 . S
C620 C621 1.502 . S
C620 C622 1.561 . S
C620 C623 1.526 . S
C621 H605 0.959 . S
C621 H606 0.959 . S
C621 H607 0.961 . S
C621 C620 1.502 . S
C622 H608 0.960 . S
C622 H609 0.961 . S
C622 H610 0.959 . S
C622 C620 1.561 . S
C623 C620 1.526 . S
C623 C624 1.396 . S
C623 C628 1.390 . S
C624 C618 1.465 . S
C624 C623 1.396 . S
C624 C625 1.399 . S
C625 H611 0.929 . S
C625 C624 1.399 . S
C625 C626 1.385 . S
C626 H612 0.931 . S
C626 C625 1.385 . S
C626 C627 1.389 . S
C627 C626 1.389 . S
C627 C628 1.387 . S
C628 H613 0.930 . S
C628 C623 1.390 . S
C628 C627 1.387 . S
H629 C641 0.930 . S
H630 C643 0.930 . S
H631 C644 0.930 . S
H632 C648 0.959 . S
H633 C648 0.959 . S
H634 C648 0.961 . S
H635 C649 0.960 . S
H636 C649 0.961 . S
H637 C649 0.959 . S
H638 C652 0.929 . S
H639 C653 0.931 . S
H640 C655 0.930 . S
C641 H629 0.930 . S
C641 C642 1.399 . S
C641 C646 1.399 . S
C642 C641 1.399 . S
C642 C643 1.376 . S
C643 H630 0.930 . S
C643 C642 1.376 . S
C643 C644 1.388 . S
C644 H631 0.930 . S
C644 C643 1.388 . S
C644 C645 1.390 . S
C645 C644 1.390 . S
C645 C646 1.394 . S
C645 C651 1.465 . S
C646 C641 1.399 . S
C646 C645 1.394 . S
C646 C647 1.516 . S
C647 C646 1.516 . S
C647 C648 1.502 . S
C647 C649 1.561 . S
C647 C650 1.526 . S
C648 H632 0.959 . S
C648 H633 0.959 . S
C648 H634 0.961 . S
C648 C647 1.502 . S
C649 H635 0.960 . S
C649 H636 0.961 . S
C649 H637 0.959 . S
C649 C647 1.561 . S
C650 C647 1.526 . S
C650 C651 1.396 . S
C650 C655 1.390 . S
C651 C645 1.465 . S
C651 C650 1.396 . S
C651 C652 1.399 . S
C652 H638 0.929 . S
C652 C651 1.399 . S
C652 C653 1.385 . S
C653 H639 0.931 . S
C653 C652 1.385 . S
C653 C654 1.389 . S
C654 C653 1.389 . S
C654 C655 1.387 . S
C655 H640 0.930 . S
C655 C650 1.390 . S
C655 C654 1.387 . S
H656 C668 0.930 . S
H657 C670 0.930 1_554 S
H658 C671 0.930 . S
H659 C675 0.959 . S
H660 C675 0.959 . S
H661 C675 0.961 . S
H662 C676 0.960 . S
H663 C676 0.961 . S
H664 C676 0.959 . S
H665 C679 0.929 . S
H666 C680 0.931 . S
H667 C682 0.930 1_556 S
C668 H656 0.930 . S
C668 C669 1.399 . S
C668 C673 1.399 . S
C669 C668 1.399 . S
C669 C670 1.376 . S
C670 H657 0.930 1_556 S
C670 C669 1.376 . S
C670 C671 1.388 1_556 S
C671 H658 0.930 . S
C671 C670 1.388 1_554 S
C671 C672 1.390 . S
C672 C671 1.390 . S
C672 C673 1.394 1_554 S
C672 C678 1.465 1_565 S
C673 C668 1.399 . S
C673 C672 1.394 1_556 S
C673 C674 1.516 1_565 S
C674 C673 1.516 1_545 S
C674 C675 1.502 . S
C674 C676 1.561 . S
C674 C677 1.554 . S
C675 H659 0.959 . S
C675 H660 0.959 . S
C675 H661 0.961 . S
C675 C674 1.502 . S
C676 H662 0.960 . S
C676 H663 0.961 . S
C676 H664 0.959 . S
C676 C674 1.561 . S
C677 C674 1.554 . S
C677 C678 1.376 1_556 S
C677 C682 1.381 1_556 S
C678 C672 1.465 1_545 S
C678 C677 1.376 1_554 S
C678 C679 1.399 . S
C679 H665 0.929 . S
C679 C678 1.399 . S
C679 C680 1.385 . S
C680 H666 0.931 . S
C680 C679 1.385 . S
C680 C681 1.389 . S
C681 C680 1.389 . S
C681 C682 1.387 . S
C682 H667 0.930 1_554 S
C682 C677 1.381 1_554 S
C682 C681 1.387 . S
H683 C695 0.930 . S
H684 C697 0.930 1_556 S
H685 C698 0.930 . S
H686 C702 0.959 . S
H687 C702 0.959 . S
H688 C702 0.961 . S
H689 C703 0.960 . S
H690 C703 0.961 . S
H691 C703 0.959 . S
H692 C706 0.929 . S
H693 C707 0.931 . S
H694 C709 0.930 1_554 S
C695 H683 0.930 . S
C695 C696 1.399 . S
C695 C700 1.399 . S
C696 C695 1.399 . S
C696 C697 1.376 . S
C697 H684 0.930 1_554 S
C697 C696 1.376 . S
C697 C698 1.388 1_554 S
C698 H685 0.930 . S
C698 C697 1.388 1_556 S
C698 C699 1.390 . S
C699 C698 1.390 . S
C699 C700 1.394 1_556 S
C699 C705 1.465 . S
C700 C695 1.399 . S
C700 C699 1.394 1_554 S
C700 C701 1.516 . S
C701 C700 1.516 . S
C701 C702 1.502 . S
C701 C703 1.561 . S
C701 C704 1.535 . S
C702 H686 0.959 . S
C702 H687 0.959 . S
C702 H688 0.961 . S
C702 C701 1.502 . S
C703 H689 0.960 . S
C703 H690 0.961 . S
C703 H691 0.959 . S
C703 C701 1.561 . S
C704 C701 1.535 . S
C704 C705 1.389 1_554 S
C704 C709 1.387 1_554 S
C705 C699 1.465 . S
C705 C704 1.389 1_556 S
C705 C706 1.399 . S
C706 H692 0.929 . S
C706 C705 1.399 . S
C706 C707 1.385 . S
C707 H693 0.931 . S
C707 C706 1.385 . S
C707 C708 1.389 . S
C708 C707 1.389 . S
C708 C709 1.387 . S
C709 H694 0.930 1_556 S
C709 C704 1.387 1_556 S
C709 C708 1.387 . S
H710 C722 0.930 1_655 S
H711 C724 0.930 1_554 S
H712 C725 0.930 . S
H713 C729 0.959 . S
H714 C729 0.959 . S
H715 C729 0.961 . S
H716 C730 0.960 . S
H717 C730 0.961 1_655 S
H718 C730 0.959 . S
H719 C733 0.929 . S
H720 C734 0.927 1_455 S
H721 C736 0.930 1_556 S
C722 H710 0.930 1_455 S
C722 C723 1.399 . S
C722 C727 1.399 . S
C723 C722 1.399 . S
C723 C724 1.376 . S
C724 H711 0.930 1_556 S
C724 C723 1.376 . S
C724 C725 1.388 1_556 S
C725 H712 0.930 . S
C725 C724 1.388 1_554 S
C725 C726 1.390 . S
C726 C725 1.390 . S
C726 C727 1.394 1_554 S
C726 C732 1.465 . S
C727 C722 1.399 . S
C727 C726 1.394 1_556 S
C727 C728 1.516 1_455 S
C728 C727 1.516 1_655 S
C728 C729 1.502 . S
C728 C730 1.561 1_655 S
C728 C731 1.543 . S
C729 H713 0.959 . S
C729 H714 0.959 . S
C729 H715 0.961 . S
C729 C728 1.502 . S
C730 H716 0.960 . S
C730 H717 0.961 1_455 S
C730 H718 0.959 . S
C730 C728 1.561 1_455 S
C731 C728 1.543 . S
C731 C732 1.384 1_656 S
C731 C736 1.384 1_556 S
C732 C726 1.465 . S
C732 C731 1.384 1_454 S
C732 C733 1.399 . S
C733 H719 0.929 . S
C733 C732 1.399 . S
C733 C734 1.376 1_455 S
C734 H720 0.927 1_655 S
C734 C733 1.376 1_655 S
C734 C735 1.403 . S
C735 C734 1.403 . S
C735 C736 1.387 . S
C736 H721 0.930 1_554 S
C736 C731 1.384 1_554 S
C736 C735 1.387 . S
H737 C749 0.930 . S
H738 C751 0.930 . S
H739 C752 0.930 . S
H740 C756 0.959 . S
H741 C756 0.959 . S
H742 C756 0.961 . S
H743 C757 0.960 . S
H744 C757 0.961 1_655 S
H745 C757 0.959 1_556 S
H746 C760 0.929 . S
H747 C761 0.931 . S
H748 C763 0.930 . S
C749 H737 0.930 . S
C749 C750 1.399 1_545 S
C749 C754 1.399 . S
C750 C749 1.399 1_565 S
C750 C751 1.376 . S
C751 H738 0.930 . S
C751 C750 1.376 . S
C751 C752 1.388 1_554 S
C752 H739 0.930 . S
C752 C751 1.388 1_556 S
C752 C753 1.390 . S
C753 C752 1.390 . S
C753 C754 1.394 1_566 S
C753 C759 1.465 1_455 S
C754 C749 1.399 . S
C754 C753 1.394 1_544 S
C754 C755 1.516 1_455 S
C755 C754 1.516 1_655 S
C755 C756 1.502 . S
C755 C757 1.561 1_655 S
C755 C758 1.526 1_554 S
C756 H740 0.959 . S
C756 H741 0.959 . S
C756 H742 0.961 . S
C756 C755 1.502 . S
C757 H743 0.960 . S
C757 H744 0.961 1_455 S
C757 H745 0.959 1_554 S
C757 C755 1.561 1_455 S
C758 C755 1.526 1_556 S
C758 C759 1.396 1_545 S
C758 C763 1.390 . S
C759 C753 1.465 1_655 S
C759 C758 1.396 1_565 S
C759 C760 1.399 . S
C760 H746 0.929 . S
C760 C759 1.399 . S
C760 C761 1.385 . S
C761 H747 0.931 . S
C761 C760 1.385 . S
C761 C762 1.389 1_565 S
C762 C761 1.389 1_545 S
C762 C763 1.387 . S
C763 H748 0.930 . S
C763 C758 1.390 . S
C763 C762 1.387 . S
H764 C776 0.930 . S
H765 C778 0.930 . S
H766 C779 0.930 . S
H767 C783 0.959 . S
H768 C783 0.959 . S
H769 C783 0.961 . S
H770 C784 0.960 . S
H771 C784 0.961 . S
H772 C784 0.959 . S
H773 C787 0.929 . S
H774 C788 0.931 . S
H775 C790 0.930 . S
C776 H764 0.930 . S
C776 C777 1.399 . S
C776 C781 1.399 . S
C777 C776 1.399 . S
C777 C778 1.376 . S
C778 H765 0.930 . S
C778 C777 1.376 . S
C778 C779 1.388 . S
C779 H766 0.930 . S
C779 C778 1.388 . S
C779 C780 1.390 . S
C780 C779 1.390 . S
C780 C781 1.394 . S
C780 C786 1.465 . S
C781 C776 1.399 . S
C781 C780 1.394 . S
C781 C782 1.516 . S
C782 C781 1.516 . S
C782 C783 1.502 . S
C782 C784 1.561 . S
C782 C785 1.526 . S
C783 H767 0.959 . S
C783 H768 0.959 . S
C783 H769 0.961 . S
C783 C782 1.502 . S
C784 H770 0.960 . S
C784 H771 0.961 . S
C784 H772 0.959 . S
C784 C782 1.561 . S
C785 C782 1.526 . S
C785 C786 1.396 . S
C785 C790 1.390 . S
C786 C780 1.465 . S
C786 C785 1.396 . S
C786 C787 1.399 . S
C787 H773 0.929 . S
C787 C786 1.399 . S
C787 C788 1.385 . S
C788 H774 0.931 . S
C788 C787 1.385 . S
C788 C789 1.389 . S
C789 C788 1.389 . S
C789 C790 1.387 . S
C790 H775 0.930 . S
C790 C785 1.390 . S
C790 C789 1.387 . S
H791 C803 0.930 . S
H792 C805 0.930 . S
H793 C806 0.930 . S
H794 C810 0.959 . S
H795 C810 0.959 . S
H796 C810 0.961 . S
H797 C811 0.960 . S
H798 C811 0.961 1_655 S
H799 C811 0.959 . S
H800 C814 0.929 . S
H801 C815 0.931 . S
H802 C817 0.930 . S
C803 H791 0.930 . S
C803 C804 1.399 . S
C803 C808 1.399 . S
C804 C803 1.399 . S
C804 C805 1.376 . S
C805 H792 0.930 . S
C805 C804 1.376 . S
C805 C806 1.388 . S
C806 H793 0.930 . S
C806 C805 1.388 . S
C806 C807 1.390 . S
C807 C806 1.390 . S
C807 C808 1.394 . S
C807 C813 1.465 1_455 S
C808 C803 1.399 . S
C808 C807 1.394 . S
C808 C809 1.516 1_455 S
C809 C808 1.516 1_655 S
C809 C810 1.502 . S
C809 C811 1.561 1_655 S
C809 C812 1.526 . S
C810 H794 0.959 . S
C810 H795 0.959 . S
C810 H796 0.961 . S
C810 C809 1.502 . S
C811 H797 0.960 . S
C811 H798 0.961 1_455 S
C811 H799 0.959 . S
C811 C809 1.561 1_455 S
C812 C809 1.526 . S
C812 C813 1.396 . S
C812 C817 1.390 . S
C813 C807 1.465 1_655 S
C813 C812 1.396 . S
C813 C814 1.399 . S
C814 H800 0.929 . S
C814 C813 1.399 . S
C814 C815 1.385 . S
C815 H801 0.931 . S
C815 C814 1.385 . S
C815 C816 1.389 . S
C816 C815 1.389 . S
C816 C817 1.387 . S
C817 H802 0.930 . S
C817 C812 1.390 . S
C817 C816 1.387 . S
H818 C830 0.930 . S
H819 C832 0.930 . S
H820 C833 0.930 1_545 S
H821 C837 0.959 . S
H822 C837 0.959 . S
H823 C837 0.961 . S
H824 C838 0.960 . S
H825 C838 0.961 . S
H826 C838 0.959 . S
H827 C841 0.929 . S
H828 C842 0.931 . S
H829 C844 0.930 . S
C830 H818 0.930 . S
C830 C831 1.399 1_655 S
C830 C835 1.399 . S
C831 C830 1.399 1_455 S
C831 C832 1.376 . S
C832 H819 0.930 . S
C832 C831 1.376 . S
C832 C833 1.388 . S
C833 H820 0.930 1_565 S
C833 C832 1.388 . S
C833 C834 1.390 . S
C834 C833 1.390 . S
C834 C835 1.394 1_455 S
C834 C840 1.465 1_565 S
C835 C830 1.399 . S
C835 C834 1.394 1_655 S
C835 C836 1.516 . S
C836 C835 1.516 . S
C836 C837 1.502 . S
C836 C838 1.561 . S
C836 C839 1.526 1_565 S
C837 H821 0.959 . S
C837 H822 0.959 . S
C837 H823 0.961 . S
C837 C836 1.502 . S
C838 H824 0.960 . S
C838 H825 0.961 . S
C838 H826 0.959 . S
C838 C836 1.561 . S
C839 C836 1.526 1_545 S
C839 C840 1.396 1_655 S
C839 C844 1.390 . S
C840 C834 1.465 1_545 S
C840 C839 1.396 1_455 S
C840 C841 1.399 . S
C841 H827 0.929 . S
C841 C840 1.399 . S
C841 C842 1.385 . S
C842 H828 0.931 . S
C842 C841 1.385 . S
C842 C843 1.389 1_455 S
C843 C842 1.389 1_655 S
C843 C844 1.387 . S
C844 H829 0.930 . S
C844 C839 1.390 . S
C844 C843 1.387 . S
H845 C857 0.930 . S
H846 C859 0.930 . S
H847 C860 0.930 . S
H848 C864 0.959 . S
H849 C864 0.959 . S
H850 C864 0.961 . S
H851 C865 0.960 . S
H852 C865 0.961 . S
H853 C865 0.959 . S
H854 C868 0.929 . S
H855 C869 0.931 . S
H856 C871 0.930 . S
C857 H845 0.930 . S
C857 C858 1.399 . S
C857 C862 1.399 . S
C858 C857 1.399 . S
C858 C859 1.376 1_545 S
C859 H846 0.930 . S
C859 C858 1.376 1_565 S
C859 C860 1.388 . S
C860 H847 0.930 . S
C860 C859 1.388 . S
C860 C861 1.390 . S
C861 C860 1.390 . S
C861 C862 1.394 1_565 S
C861 C867 1.465 . S
C862 C857 1.399 . S
C862 C861 1.394 1_545 S
C862 C863 1.516 . S
C863 C862 1.516 . S
C863 C864 1.502 . S
C863 C865 1.561 . S
C863 C866 1.526 . S
C864 H848 0.959 . S
C864 H849 0.959 . S
C864 H850 0.961 . S
C864 C863 1.502 . S
C865 H851 0.960 . S
C865 H852 0.961 . S
C865 H853 0.959 . S
C865 C863 1.561 . S
C866 C863 1.526 . S
C866 C867 1.396 1_545 S
C866 C871 1.390 . S
C867 C861 1.465 . S
C867 C866 1.396 1_565 S
C867 C868 1.399 . S
C868 H854 0.929 . S
C868 C867 1.399 . S
C868 C869 1.385 . S
C869 H855 0.931 . S
C869 C868 1.385 . S
C869 C870 1.389 . S
C870 C869 1.389 . S
C870 C871 1.387 1_565 S
C871 H856 0.930 . S
C871 C866 1.390 . S
C871 C870 1.387 1_545 S
H872 C884 0.930 . S
H873 C886 0.930 . S
H874 C887 0.930 . S
H875 C891 0.959 . S
H876 C891 0.959 . S
H877 C891 0.961 . S
H878 C892 0.960 . S
H879 C892 0.961 . S
H880 C892 0.959 . S
H881 C895 0.929 . S
H882 C896 0.931 . S
H883 C898 0.930 . S
C884 H872 0.930 . S
C884 C885 1.399 . S
C884 C889 1.399 . S
C885 C884 1.399 . S
C885 C886 1.376 . S
C886 H873 0.930 . S
C886 C885 1.376 . S
C886 C887 1.388 . S
C887 H874 0.930 . S
C887 C886 1.388 . S
C887 C888 1.390 . S
C888 C887 1.390 . S
C888 C889 1.394 . S
C888 C894 1.465 . S
C889 C884 1.399 . S
C889 C888 1.394 . S
C889 C890 1.516 . S
C890 C889 1.516 . S
C890 C891 1.502 . S
C890 C892 1.561 . S
C890 C893 1.526 . S
C891 H875 0.959 . S
C891 H876 0.959 . S
C891 H877 0.961 . S
C891 C890 1.502 . S
C892 H878 0.960 . S
C892 H879 0.961 . S
C892 H880 0.959 . S
C892 C890 1.561 . S
C893 C890 1.526 . S
C893 C894 1.396 . S
C893 C898 1.390 . S
C894 C888 1.465 . S
C894 C893 1.396 . S
C894 C895 1.399 . S
C895 H881 0.929 . S
C895 C894 1.399 . S
C895 C896 1.385 . S
C896 H882 0.931 . S
C896 C895 1.385 . S
C896 C897 1.389 . S
C897 C896 1.389 . S
C897 C898 1.387 . S
C898 H883 0.930 . S
C898 C893 1.390 . S
C898 C897 1.387 . S
H899 C911 0.930 . S
H900 C913 0.930 . S
H901 C914 0.930 . S
H902 C918 0.959 . S
H903 C918 0.959 . S
H904 C918 0.961 . S
H905 C919 0.960 . S
H906 C919 0.961 . S
H907 C919 0.959 . S
H908 C922 0.929 . S
H909 C923 0.931 . S
H910 C925 0.930 . S
C911 H899 0.930 . S
C911 C912 1.399 . S
C911 C916 1.399 . S
C912 C911 1.399 . S
C912 C913 1.376 . S
C913 H900 0.930 . S
C913 C912 1.376 . S
C913 C914 1.388 . S
C914 H901 0.930 . S
C914 C913 1.388 . S
C914 C915 1.390 . S
C915 C914 1.390 . S
C915 C916 1.394 . S
C915 C921 1.465 . S
C916 C911 1.399 . S
C916 C915 1.394 . S
C916 C917 1.516 . S
C917 C916 1.516 . S
C917 C918 1.502 . S
C917 C919 1.561 . S
C917 C920 1.526 . S
C918 H902 0.959 . S
C918 H903 0.959 . S
C918 H904 0.961 . S
C918 C917 1.502 . S
C919 H905 0.960 . S
C919 H906 0.961 . S
C919 H907 0.959 . S
C919 C917 1.561 . S
C920 C917 1.526 . S
C920 C921 1.396 . S
C920 C925 1.390 . S
C921 C915 1.465 . S
C921 C920 1.396 . S
C921 C922 1.399 . S
C922 H908 0.929 . S
C922 C921 1.399 . S
C922 C923 1.385 . S
C923 H909 0.931 . S
C923 C922 1.385 . S
C923 C924 1.389 . S
C924 C923 1.389 . S
C924 C925 1.387 . S
C925 H910 0.930 . S
C925 C920 1.390 . S
C925 C924 1.387 . S
H926 C938 0.930 . S
H927 C940 0.930 . S
H928 C941 0.930 . S
H929 C945 0.959 . S
H930 C945 0.959 . S
H931 C945 0.961 . S
H932 C946 0.960 . S
H933 C946 0.961 . S
H934 C946 0.959 . S
H935 C949 0.929 . S
H936 C950 0.931 . S
H937 C952 0.930 . S
C938 H926 0.930 . S
C938 C939 1.399 . S
C938 C943 1.399 . S
C939 C938 1.399 . S
C939 C940 1.376 . S
C940 H927 0.930 . S
C940 C939 1.376 . S
C940 C941 1.388 . S
C941 H928 0.930 . S
C941 C940 1.388 . S
C941 C942 1.390 . S
C942 C941 1.390 . S
C942 C943 1.394 . S
C942 C948 1.465 . S
C943 C938 1.399 . S
C943 C942 1.394 . S
C943 C944 1.516 . S
C944 C943 1.516 . S
C944 C945 1.502 . S
C944 C946 1.561 . S
C944 C947 1.526 . S
C945 H929 0.959 . S
C945 H930 0.959 . S
C945 H931 0.961 . S
C945 C944 1.502 . S
C946 H932 0.960 . S
C946 H933 0.961 . S
C946 H934 0.959 . S
C946 C944 1.561 . S
C947 C944 1.526 . S
C947 C948 1.396 . S
C947 C952 1.390 . S
C948 C942 1.465 . S
C948 C947 1.396 . S
C948 C949 1.399 . S
C949 H935 0.929 . S
C949 C948 1.399 . S
C949 C950 1.385 . S
C950 H936 0.931 . S
C950 C949 1.385 . S
C950 C951 1.389 . S
C951 C950 1.389 . S
C951 C952 1.387 . S
C952 H937 0.930 . S
C952 C947 1.390 . S
C952 C951 1.387 . S
H953 C965 0.930 . S
H954 C967 0.930 . S
H955 C968 0.930 . S
H956 C972 0.959 . S
H957 C972 0.959 . S
H958 C972 0.961 . S
H959 C973 0.960 . S
H960 C973 0.961 . S
H961 C973 0.959 . S
H962 C976 0.929 . S
H963 C977 0.931 . S
H964 C979 0.930 . S
C965 H953 0.930 . S
C965 C966 1.399 . S
C965 C970 1.399 . S
C966 C965 1.399 . S
C966 C967 1.376 . S
C967 H954 0.930 . S
C967 C966 1.376 . S
C967 C968 1.388 . S
C968 H955 0.930 . S
C968 C967 1.388 . S
C968 C969 1.390 . S
C969 C968 1.390 . S
C969 C970 1.394 . S
C969 C975 1.465 . S
C970 C965 1.399 . S
C970 C969 1.394 . S
C970 C971 1.516 . S
C971 C970 1.516 . S
C971 C972 1.502 . S
C971 C973 1.561 . S
C971 C974 1.526 . S
C972 H956 0.959 . S
C972 H957 0.959 . S
C972 H958 0.961 . S
C972 C971 1.502 . S
C973 H959 0.960 . S
C973 H960 0.961 . S
C973 H961 0.959 . S
C973 C971 1.561 . S
C974 C971 1.526 . S
C974 C975 1.396 . S
C974 C979 1.390 . S
C975 C969 1.465 . S
C975 C974 1.396 . S
C975 C976 1.399 . S
C976 H962 0.929 . S
C976 C975 1.399 . S
C976 C977 1.385 . S
C977 H963 0.931 . S
C977 C976 1.385 . S
C977 C978 1.389 . S
C978 C977 1.389 . S
C978 C979 1.387 . S
C979 H964 0.930 . S
C979 C974 1.390 . S
C979 C978 1.387 . S
H980 C992 0.930 . S
H981 C994 0.930 . S
H982 C995 0.930 . S
H983 C999 0.959 . S
H984 C999 0.959 . S
H985 C999 0.961 . S
H986 C1000 0.960 . S
H987 C1000 0.961 . S
H988 C1000 0.959 . S
H989 C1003 0.929 . S
H990 C1004 0.931 . S
H991 C1006 0.930 . S
C992 H980 0.930 . S
C992 C993 1.399 . S
C992 C997 1.399 . S
C993 C992 1.399 . S
C993 C994 1.376 . S
C994 H981 0.930 . S
C994 C993 1.376 . S
C994 C995 1.388 . S
C995 H982 0.930 . S
C995 C994 1.388 . S
C995 C996 1.390 . S
C996 C995 1.390 . S
C996 C997 1.394 . S
C996 C1002 1.465 . S
C997 C992 1.399 . S
C997 C996 1.394 . S
C997 C998 1.516 . S
C998 C997 1.516 . S
C998 C999 1.502 . S
C998 C1000 1.561 . S
C998 C1001 1.526 . S
C999 H983 0.959 . S
C999 H984 0.959 . S
C999 H985 0.961 . S
C999 C998 1.502 . S
C1000 H986 0.960 . S
C1000 H987 0.961 . S
C1000 H988 0.959 . S
C1000 C998 1.561 . S
C1001 C998 1.526 . S
C1001 C1002 1.396 . S
C1001 C1006 1.390 . S
C1002 C996 1.465 . S
C1002 C1001 1.396 . S
C1002 C1003 1.399 . S
C1003 H989 0.929 . S
C1003 C1002 1.399 . S
C1003 C1004 1.385 . S
C1004 H990 0.931 . S
C1004 C1003 1.385 . S
C1004 C1005 1.389 . S
C1005 C1004 1.389 . S
C1005 C1006 1.387 . S
C1006 H991 0.930 . S
C1006 C1001 1.390 . S
C1006 C1005 1.387 . S
H1007 C1019 0.930 . S
H1008 C1021 0.930 . S
H1009 C1022 0.930 . S
H1010 C1026 0.959 . S
H1011 C1026 0.959 . S
H1012 C1026 0.961 . S
H1013 C1027 0.960 . S
H1014 C1027 0.961 . S
H1015 C1027 0.959 . S
H1016 C1030 0.929 . S
H1017 C1031 0.931 . S
H1018 C1033 0.930 . S
C1019 H1007 0.930 . S
C1019 C1020 1.399 . S
C1019 C1024 1.399 . S
C1020 C1019 1.399 . S
C1020 C1021 1.376 . S
C1021 H1008 0.930 . S
C1021 C1020 1.376 . S
C1021 C1022 1.388 . S
C1022 H1009 0.930 . S
C1022 C1021 1.388 . S
C1022 C1023 1.390 . S
C1023 C1022 1.390 . S
C1023 C1024 1.394 . S
C1023 C1029 1.465 . S
C1024 C1019 1.399 . S
C1024 C1023 1.394 . S
C1024 C1025 1.516 . S
C1025 C1024 1.516 . S
C1025 C1026 1.502 . S
C1025 C1027 1.561 . S
C1025 C1028 1.526 . S
C1026 H1010 0.959 . S
C1026 H1011 0.959 . S
C1026 H1012 0.961 . S
C1026 C1025 1.502 . S
C1027 H1013 0.960 . S
C1027 H1014 0.961 . S
C1027 H1015 0.959 . S
C1027 C1025 1.561 . S
C1028 C1025 1.526 . S
C1028 C1029 1.396 . S
C1028 C1033 1.390 . S
C1029 C1023 1.465 . S
C1029 C1028 1.396 . S
C1029 C1030 1.399 . S
C1030 H1016 0.929 . S
C1030 C1029 1.399 . S
C1030 C1031 1.385 . S
C1031 H1017 0.931 . S
C1031 C1030 1.385 . S
C1031 C1032 1.389 . S
C1032 C1031 1.389 . S
C1032 C1033 1.387 . S
C1033 H1018 0.930 . S
C1033 C1028 1.390 . S
C1033 C1032 1.387 . S
H1034 C1046 0.930 . S
H1035 C1048 0.930 . S
H1036 C1049 0.930 . S
H1037 C1053 0.959 . S
H1038 C1053 0.959 . S
H1039 C1053 0.961 . S
H1040 C1054 0.960 . S
H1041 C1054 0.961 . S
H1042 C1054 0.959 . S
H1043 C1057 0.929 . S
H1044 C1058 0.931 . S
H1045 C1060 0.930 . S
C1046 H1034 0.930 . S
C1046 C1047 1.399 . S
C1046 C1051 1.399 . S
C1047 C1046 1.399 . S
C1047 C1048 1.376 . S
C1048 H1035 0.930 . S
C1048 C1047 1.376 . S
C1048 C1049 1.388 . S
C1049 H1036 0.930 . S
C1049 C1048 1.388 . S
C1049 C1050 1.390 . S
C1050 C1049 1.390 . S
C1050 C1051 1.394 . S
C1050 C1056 1.465 . S
C1051 C1046 1.399 . S
C1051 C1050 1.394 . S
C1051 C1052 1.516 . S
C1052 C1051 1.516 . S
C1052 C1053 1.502 . S
C1052 C1054 1.561 . S
C1052 C1055 1.526 . S
C1053 H1037 0.959 . S
C1053 H1038 0.959 . S
C1053 H1039 0.961 . S
C1053 C1052 1.502 . S
C1054 H1040 0.960 . S
C1054 H1041 0.961 . S
C1054 H1042 0.959 . S
C1054 C1052 1.561 . S
C1055 C1052 1.526 . S
C1055 C1056 1.396 . S
C1055 C1060 1.390 . S
C1056 C1050 1.465 . S
C1056 C1055 1.396 . S
C1056 C1057 1.399 . S
C1057 H1043 0.929 . S
C1057 C1056 1.399 . S
C1057 C1058 1.385 . S
C1058 H1044 0.931 . S
C1058 C1057 1.385 . S
C1058 C1059 1.389 . S
C1059 C1058 1.389 . S
C1059 C1060 1.387 . S
C1060 H1045 0.930 . S
C1060 C1055 1.390 . S
C1060 C1059 1.387 . S
H1061 C1073 0.930 . S
H1062 C1075 0.930 . S
H1063 C1076 0.930 . S
H1064 C1080 0.959 . S
H1065 C1080 0.938 1_565 S
H1066 C1080 0.961 . S
H1067 C1081 0.960 . S
H1068 C1081 0.961 . S
H1069 C1081 0.959 . S
H1070 C1084 0.929 . S
H1071 C1085 0.931 . S
H1072 C1087 0.930 . S
C1073 H1061 0.930 . S
C1073 C1074 1.399 . S
C1073 C1078 1.399 . S
C1074 C1073 1.399 . S
C1074 C1075 1.376 . S
C1075 H1062 0.930 . S
C1075 C1074 1.376 . S
C1075 C1076 1.388 . S
C1076 H1063 0.930 . S
C1076 C1075 1.388 . S
C1076 C1077 1.390 . S
C1077 C1076 1.390 . S
C1077 C1078 1.394 . S
C1077 C1083 1.465 . S
C1078 C1073 1.399 . S
C1078 C1077 1.394 . S
C1078 C1079 1.516 . S
C1079 C1078 1.516 . S
C1079 C1080 1.502 . S
C1079 C1081 1.561 . S
C1079 C1082 1.526 . S
C1080 H1064 0.959 . S
C1080 H1065 0.938 1_545 S
C1080 H1066 0.961 . S
C1080 C1079 1.502 . S
C1081 H1067 0.960 . S
C1081 H1068 0.961 . S
C1081 H1069 0.959 . S
C1081 C1079 1.561 . S
C1082 C1079 1.526 . S
C1082 C1083 1.396 . S
C1082 C1087 1.390 . S
C1083 C1077 1.465 . S
C1083 C1082 1.396 . S
C1083 C1084 1.399 . S
C1084 H1070 0.929 . S
C1084 C1083 1.399 . S
C1084 C1085 1.385 . S
C1085 H1071 0.931 . S
C1085 C1084 1.385 . S
C1085 C1086 1.389 . S
C1086 C1085 1.389 . S
C1086 C1087 1.387 . S
C1087 H1072 0.930 . S
C1087 C1082 1.390 . S
C1087 C1086 1.387 . S
C237 C8 0.798 . S
C249 C139 0.793 . S
C264 C153 0.812 . S
C276 C22 0.819 . S
C291 C167 0.640 . S
C303 C36 0.632 . S
C318 C125 0.807 . S
C330 C50 0.812 . S
C345 C64 0.814 . S
C357 C223 0.805 . S
C372 C181 0.685 . S
C384 C78 0.677 . S
C399 C195 0.811 . S
C411 C92 0.819 . S
C426 C209 0.692 . S
C438 C106 0.702 . S
C453 C120 0.685 . S
C465 C27 0.752 . S
C480 C134 0.801 . S
C492 C41 0.810 . S
C507 C148 0.786 . S
C519 C55 0.716 . S
C534 C13 0.803 . S
C546 C162 0.762 . S
C561 C176 0.776 . S
C573 C111 0.703 . S
C588 C190 0.718 . S
C600 C69 0.649 . S
C615 C83 0.634 . S
C627 C204 0.698 . S
C642 C218 0.814 . S
C654 C97 0.760 . S
C669 C123 1.413 . S
C681 C11 1.445 . S
C696 C25 1.438 . S
C708 C137 1.436 . S
C723 C151 1.409 . S
C735 C39 1.449 . S
C750 C53 1.421 . S
C762 C165 1.451 . S
C777 C179 1.433 . S
C789 C67 1.440 . S
C804 C81 1.421 . S
C816 C193 1.451 . S
C831 C207 1.418 . S
C843 C95 1.453 . S
C858 C221 1.460 . S
C870 C109 1.405 . S
C885 C63 1.671 . S
C897 C7 1.612 . S
C912 C77 1.642 . S
C924 C21 1.599 . S
C939 C35 1.670 . S
C951 C91 1.618 . S
C966 C105 1.622 . S
C978 C49 1.667 . S
C993 C119 1.643 . S
C1005 C175 1.594 . S
C1020 C189 1.594 . S
C1032 C133 1.629 . S
C1047 C203 1.654 . S
C1059 C147 1.597 . S
C1074 C217 1.599 . S
C1086 C161 1.617 . S
