# Generated by pormake.
# Topology uof, (4)-cn, num edge types: 1
# Building blocks:
#     Node 0, Type 0, BuildingBlock: GALJAG_clean_sbu_0, # of connection points: 4
#     Node 1, Type 0, BuildingBlock: GALJAG_clean_sbu_0, # of connection points: 4
#     Node 2, Type 0, BuildingBlock: GALJAG_clean_sbu_0, # of connection points: 4
#     Node 3, Type 0, BuildingBlock: GALJAG_clean_sbu_0, # of connection points: 4
#     Node 4, Type 0, BuildingBlock: GALJAG_clean_sbu_0, # of connection points: 4
#     Node 5, Type 0, BuildingBlock: GALJAG_clean_sbu_0, # of connection points: 4
#     Node 6, Type 0, BuildingBlock: GALJAG_clean_sbu_0, # of connection points: 4
#     Node 7, Type 0, BuildingBlock: GALJAG_clean_sbu_0, # of connection points: 4
#     Node 8, Type 0, BuildingBlock: GALJAG_clean_sbu_0, # of connection points: 4
#     Node 9, Type 0, BuildingBlock: GALJAG_clean_sbu_0, # of connection points: 4
#     Node 10, Type 0, BuildingBlock: GALJAG_clean_sbu_0, # of connection points: 4
#     Node 11, Type 0, BuildingBlock: GALJAG_clean_sbu_0, # of connection points: 4
#     Edge 12, Type (0, 0), BuildingBlock: OJICUG_clean_linker_0, # of connection points: 2
#     Edge 13, Type (0, 0), BuildingBlock: OJICUG_clean_linker_0, # of connection points: 2
#     Edge 14, Type (0, 0), BuildingBlock: OJICUG_clean_linker_0, # of connection points: 2
#     Edge 15, Type (0, 0), BuildingBlock: OJICUG_clean_linker_0, # of connection points: 2
#     Edge 16, Type (0, 0), BuildingBlock: OJICUG_clean_linker_0, # of connection points: 2
#     Edge 17, Type (0, 0), BuildingBlock: OJICUG_clean_linker_0, # of connection points: 2
#     Edge 18, Type (0, 0), BuildingBlock: OJICUG_clean_linker_0, # of connection points: 2
#     Edge 19, Type (0, 0), BuildingBlock: OJICUG_clean_linker_0, # of connection points: 2
#     Edge 20, Type (0, 0), BuildingBlock: OJICUG_clean_linker_0, # of connection points: 2
#     Edge 21, Type (0, 0), BuildingBlock: OJICUG_clean_linker_0, # of connection points: 2
#     Edge 22, Type (0, 0), BuildingBlock: OJICUG_clean_linker_0, # of connection points: 2
#     Edge 23, Type (0, 0), BuildingBlock: OJICUG_clean_linker_0, # of connection points: 2
#     Edge 24, Type (0, 0), BuildingBlock: OJICUG_clean_linker_0, # of connection points: 2
#     Edge 25, Type (0, 0), BuildingBlock: OJICUG_clean_linker_0, # of connection points: 2
#     Edge 26, Type (0, 0), BuildingBlock: OJICUG_clean_linker_0, # of connection points: 2
#     Edge 27, Type (0, 0), BuildingBlock: OJICUG_clean_linker_0, # of connection points: 2
#     Edge 28, Type (0, 0), BuildingBlock: OJICUG_clean_linker_0, # of connection points: 2
#     Edge 29, Type (0, 0), BuildingBlock: OJICUG_clean_linker_0, # of connection points: 2
#     Edge 30, Type (0, 0), BuildingBlock: OJICUG_clean_linker_0, # of connection points: 2
#     Edge 31, Type (0, 0), BuildingBlock: OJICUG_clean_linker_0, # of connection points: 2
#     Edge 32, Type (0, 0), BuildingBlock: OJICUG_clean_linker_0, # of connection points: 2
#     Edge 33, Type (0, 0), BuildingBlock: OJICUG_clean_linker_0, # of connection points: 2
#     Edge 34, Type (0, 0), BuildingBlock: OJICUG_clean_linker_0, # of connection points: 2
#     Edge 35, Type (0, 0), BuildingBlock: OJICUG_clean_linker_0, # of connection points: 2
# Relax obj value: 0.137
# Max RMSD: 0.110
# Mean RMSD: 0.110
data_MOF--net-uof--node1-GALJAG_clean_sbu_0--edge1-OJICUG_clean_linker_0
_symmetry_space_group_name_H-M    P1
_symmetry_Int_Tables_number       1
_symmetry_cell_setting            triclinic
loop_
_symmetry_equiv_pos_as_xyz
'x, y, z'
_cell_length_a     22.801351
_cell_length_b     22.692476
_cell_length_c     49.081986
_cell_angle_alpha  89.942089
_cell_angle_beta   90.07178
_cell_angle_gamma 120.1535
loop_
_atom_site_label
_atom_site_type_symbol
_atom_site_fract_x
_atom_site_fract_y
_atom_site_fract_z
_atom_type_partial_charge
In0 In 0.23298 0.32317 0.23778 0.0
O1 O 0.32876 0.42679 0.24645 0.0
O2 O 0.33671 0.3599 0.2184 0.0
C3 C 0.12897 0.33595 0.21577 0.0
C4 C 0.23448 0.29548 0.29141 0.0
C5 C 0.21929 0.21572 0.2102 0.0
O6 O 0.18925 0.36915 0.20743 0.0
O7 O 0.12274 0.30359 0.23751 0.0
O8 O 0.22224 0.21846 0.23582 0.0
O9 O 0.2242 0.26747 0.19857 0.0
C10 C 0.36674 0.41527 0.23129 0.0
O11 O 0.19848 0.25017 0.27421 0.0
O12 O 0.26435 0.35564 0.28211 0.0
In13 In 0.92056 0.2319 0.57416 0.0
O14 O 0.89705 0.32018 0.57698 0.0
O15 O 0.99733 0.34338 0.5677 0.0
C16 C 0.81176 0.12741 0.54774 0.0
C17 C 0.9514 0.23055 0.62751 0.0
C18 C 1.00762 0.21705 0.54328 0.0
O19 O 0.84139 0.18836 0.53965 0.0
O20 O 0.83116 0.12016 0.57101 0.0
O21 O 0.99121 0.19104 0.56675 0.0
O22 O 0.98028 0.25065 0.53556 0.0
C23 C 0.95783 0.36585 0.5721 0.0
O24 O 0.98814 0.2324 0.60803 0.0
O25 O 0.89519 0.22473 0.62032 0.0
In26 In 0.69472 0.91429 0.90782 0.0
O27 O 0.76422 0.9483 0.94509 0.0
O28 O 0.65943 0.9109 0.95203 0.0
C29 C 0.80283 1.00539 0.87993 0.0
C30 C 0.60418 0.95763 0.90145 0.0
C31 C 0.68387 0.79968 0.88399 0.0
O32 O 0.80351 1.0002 0.90545 0.0
O33 O 0.74718 0.96569 0.86854 0.0
O34 O 0.65708 0.83211 0.87447 0.0
O35 O 0.70865 0.8193 0.90751 0.0
C36 C 0.71877 0.93977 0.96189 0.0
O37 O 0.66721 0.99543 0.89821 0.0
O38 O 0.58556 0.89623 0.90729 0.0
In39 In 0.7872 0.68697 0.23411 0.0
O40 O 0.75515 0.73968 0.26517 0.0
O41 O 0.80359 0.68707 0.28058 0.0
C42 C 0.80626 0.79509 0.2056 0.0
C43 C 0.65882 0.58015 0.23009 0.0
C44 C 0.89423 0.68044 0.21165 0.0
O45 O 0.83221 0.80089 0.22883 0.0
O46 O 0.77047 0.73504 0.197 0.0
O47 O 0.83439 0.6468 0.2028 0.0
O48 O 0.89883 0.71063 0.23381 0.0
C49 C 0.77564 0.72212 0.28585 0.0
O50 O 0.69878 0.58348 0.24871 0.0
O51 O 0.68508 0.62729 0.21277 0.0
In52 In 0.09784 0.79132 0.57546 0.0
O53 O 0.11956 0.70199 0.57803 0.0
O54 O 0.02019 0.68028 0.56783 0.0
C55 C 0.20891 0.89536 0.55009 0.0
C56 C 0.06735 0.79105 0.62889 0.0
C57 C 0.01382 0.81161 0.54463 0.0
O58 O 0.17941 0.83449 0.54191 0.0
O59 O 0.1879 0.90265 0.57297 0.0
O60 O 0.02787 0.83351 0.56875 0.0
O61 O 0.04165 0.77906 0.53624 0.0
C62 C 0.05895 0.65702 0.57252 0.0
O63 O 0.02986 0.78849 0.60953 0.0
O64 O 0.12394 0.79816 0.62152 0.0
In65 In 0.33157 0.10989 0.90707 0.0
O66 O 0.44081 0.12823 0.90623 0.0
O67 O 0.359 0.0286 0.89783 0.0
C68 C 0.34134 0.22338 0.88249 0.0
C69 C 0.31013 0.08712 0.96139 0.0
C70 C 0.22258 0.01712 0.88003 0.0
O71 O 0.36813 0.19079 0.87318 0.0
O72 O 0.31718 0.2046 0.90613 0.0
O73 O 0.22309 0.02281 0.90555 0.0
O74 O 0.27745 0.05714 0.86824 0.0
C75 C 0.42211 0.06661 0.90079 0.0
O76 O 0.2641 0.07898 0.94492 0.0
O77 O 0.36884 0.1144 0.95104 0.0
In78 In 0.70171 0.7902 0.44931 0.0
O79 O 0.59008 0.70162 0.44668 0.0
O80 O 0.66614 0.6799 0.45949 0.0
C81 C 0.69745 0.89646 0.47408 0.0
C82 C 0.73092 0.78563 0.39595 0.0
C83 C 0.80689 0.81105 0.47968 0.0
O84 O 0.66413 0.83565 0.48226 0.0
O85 O 0.72618 0.90274 0.45137 0.0
O86 O 0.8139 0.83099 0.45528 0.0
O87 O 0.74692 0.78012 0.48857 0.0
C88 C 0.60455 0.65678 0.45394 0.0
O89 O 0.76453 0.78183 0.41555 0.0
O90 O 0.68315 0.79587 0.40298 0.0
In91 In 0.91934 0.69505 0.79147 0.0
O92 O 0.90766 0.59242 0.77738 0.0
O93 O 0.96817 0.64072 0.8122 0.0
C94 C 0.80443 0.68533 0.8139 0.0
C95 C 0.96352 0.73049 0.73954 0.0
C96 C 1.00603 0.80317 0.82051 0.0
O97 O 0.8304 0.65094 0.82216 0.0
O98 O 0.831 0.7179 0.79225 0.0
O99 O 0.98846 0.80894 0.79675 0.0
O100 O 0.98019 0.74318 0.82939 0.0
C101 C 0.94754 0.59258 0.79537 0.0
O102 O 1.00235 0.74992 0.75999 0.0
O103 O 0.9009 0.69356 0.74515 0.0
In104 In 0.23528 0.91386 0.11867 0.0
O105 O 0.3446 0.99459 0.12651 0.0
O106 O 0.3254 0.89418 0.11867 0.0
C107 C 0.13159 0.79928 0.14268 0.0
C108 C 0.23854 0.94464 0.06502 0.0
C109 C 0.22103 1.0039 0.14841 0.0
O110 O 0.19027 0.83306 0.15256 0.0
O111 O 0.12702 0.81764 0.11884 0.0
O112 O 0.20023 0.99024 0.12417 0.0
O113 O 0.24969 0.97274 0.15744 0.0
C114 C 0.36896 0.95594 0.12364 0.0
O115 O 0.20605 0.95739 0.08255 0.0
O116 O 0.26381 0.90981 0.07392 0.0
In117 In 0.3219 0.23071 0.451 0.0
O118 O 0.25226 0.19406 0.41379 0.0
O119 O 0.35825 0.25453 0.4066 0.0
C120 C 0.21801 0.22034 0.47965 0.0
C121 C 0.41474 0.36548 0.45487 0.0
C122 C 0.32813 0.12621 0.47662 0.0
O123 O 0.21509 0.2127 0.45417 0.0
O124 O 0.27366 0.23462 0.49049 0.0
O125 O 0.3588 0.18688 0.48496 0.0
O126 O 0.30143 0.11946 0.45341 0.0
C127 C 0.29897 0.22621 0.39668 0.0
O128 O 0.43211 0.32094 0.45148 0.0
O129 O 0.35173 0.34167 0.45693 0.0
In130 In 0.10329 0.32531 0.78977 0.0
O131 O 0.01963 0.27066 0.75846 0.0
O132 O 0.12071 0.32718 0.74334 0.0
C133 C 0.01762 0.21738 0.81913 0.0
C134 C 0.07458 0.42728 0.79435 0.0
C135 C 0.21882 0.33527 0.81181 0.0
O136 O 0.03392 0.21144 0.79518 0.0
O137 O 0.04419 0.27741 0.828 0.0
O138 O 0.19372 0.37061 0.81983 0.0
O139 O 0.19106 0.30157 0.79051 0.0
C140 C 0.05796 0.29028 0.73789 0.0
O141 O 0.11416 0.42798 0.77614 0.0
O142 O 0.05441 0.37879 0.81101 0.0
In143 In 0.79329 0.10601 0.11963 0.0
O144 O 0.82942 0.07406 0.08196 0.0
O145 O 0.76146 0.11107 0.07557 0.0
C146 C 0.80816 0.01233 0.14667 0.0
C147 C 0.65954 0.06321 0.12529 0.0
C148 C 0.89607 0.21975 0.14443 0.0
O149 O 0.81473 0.01898 0.12121 0.0
O150 O 0.79304 0.05217 0.15844 0.0
O151 O 0.83657 0.18672 0.15357 0.0
O152 O 0.90221 0.20096 0.12089 0.0
C153 C 0.79209 0.08279 0.06538 0.0
O154 O 0.70269 0.12464 0.1197 0.0
O155 O 0.68437 0.02513 0.12879 0.0
C156 C 0.02149 0.30052 0.15195 0.0
C157 C 0.95524 0.26363 0.16244 0.0
H158 H 0.12823 0.35437 0.16062 0.0
C159 C 0.94702 0.26013 0.19098 0.0
H160 H 0.02986 0.30403 0.13015 0.0
C161 C 1.00347 0.2878 0.2085 0.0
C162 C 0.06977 0.32117 0.198 0.0
H163 H 0.89688 0.23183 0.19987 0.0
H164 H 0.99514 0.28001 0.23025 0.0
C165 C 0.07797 0.32956 0.16951 0.0
C166 C 0.73336 1.00164 0.53887 0.0
C167 C 0.77027 0.06882 0.529 0.0
H168 H 0.6796 0.89492 0.5293 0.0
C169 C 0.77537 0.07867 0.50052 0.0
H170 H 0.72871 0.992 0.5606 0.0
C171 C 0.74841 0.02289 0.4825 0.0
C172 C 0.7142 0.95564 0.49242 0.0
H173 H 0.80399 0.12958 0.49211 0.0
H174 H 0.7569 0.03247 0.46084 0.0
C175 C 0.70505 0.9459 0.52083 0.0
C176 C 0.69607 0.75933 0.83773 0.0
C177 C 0.70024 0.75612 0.86632 0.0
H178 H 0.72572 0.73983 0.79875 0.0
C179 C 0.73033 0.72019 0.87716 0.0
H180 H 0.67376 0.78695 0.82856 0.0
C181 C 0.7589 0.69175 0.85991 0.0
C182 C 0.75951 0.69986 0.8314 0.0
H183 H 0.73486 0.71699 0.89901 0.0
H184 H 0.78479 0.66763 0.86906 0.0
C185 C 0.72599 0.73233 0.82054 0.0
C186 C 0.94813 0.68899 0.16588 0.0
C187 C 0.95461 0.69661 0.19443 0.0
H188 H 0.99864 0.71541 0.12703 0.0
C189 C 0.02026 0.72979 0.20562 0.0
H190 H 0.89841 0.66428 0.15647 0.0
C191 C 0.07775 0.7579 0.18871 0.0
C192 C 0.07129 0.75503 0.16008 0.0
H193 H 0.02726 0.73691 0.22745 0.0
H194 H 0.12732 0.78596 0.19813 0.0
C195 C 1.00568 0.71843 0.14891 0.0
C196 C 0.31714 0.07697 0.52364 0.0
C197 C 0.31091 0.06727 0.49517 0.0
H198 H 0.28982 0.03074 0.56333 0.0
C199 C 0.27858 1.00007 0.48523 0.0
H200 H 0.3411 0.12791 0.53211 0.0
C201 C 0.2503 0.94424 0.50324 0.0
C202 C 0.25224 0.95402 0.53168 0.0
H203 H 0.27239 0.99055 0.46351 0.0
H204 H 0.22304 0.89334 0.49475 0.0
C205 C 0.28758 0.02117 0.54163 0.0
C206 C 0.32739 0.26156 0.83597 0.0
C207 C 0.32433 0.26614 0.86454 0.0
H208 H 0.29643 0.27943 0.79691 0.0
C209 C 0.2948 0.30272 0.87519 0.0
H210 H 0.34921 0.23338 0.82695 0.0
C211 C 0.26578 0.33056 0.85779 0.0
C212 C 0.26412 0.32117 0.82934 0.0
H213 H 0.29111 0.30696 0.89702 0.0
H214 H 0.24039 0.35527 0.86682 0.0
C215 C 0.297 0.28794 0.81865 0.0
C216 C 0.54857 0.50604 0.20638 0.0
C217 C 0.58477 0.53287 0.23072 0.0
H218 H 0.45078 0.4465 0.18761 0.0
C219 C 0.5487 0.52186 0.25516 0.0
H220 H 0.57526 0.51477 0.18722 0.0
C221 C 0.47758 0.48585 0.25517 0.0
C222 C 0.44143 0.45846 0.23086 0.0
H223 H 0.57545 0.54328 0.2741 0.0
H224 H 0.45085 0.47828 0.27425 0.0
C225 C 0.47755 0.46779 0.20656 0.0
C226 C 0.96309 0.53596 0.57201 0.0
C227 C 0.03346 0.58261 0.57232 0.0
H228 H 0.88377 0.43096 0.57203 0.0
C229 C 0.07826 0.55726 0.57266 0.0
H230 H 0.92714 0.55391 0.57189 0.0
C231 C 0.05329 0.48688 0.57239 0.0
C232 C 0.98294 0.44019 0.57219 0.0
H233 H 0.13259 0.59177 0.57294 0.0
H234 H 0.08931 0.46901 0.57255 0.0
C235 C 0.93809 0.46551 0.57215 0.0
C236 C 0.44308 0.96819 0.89963 0.0
C237 C 0.46902 0.03915 0.89964 0.0
H238 H 0.46516 0.88668 0.90045 0.0
C239 C 0.53959 0.08276 0.89946 0.0
H240 H 0.38886 0.93312 0.89987 0.0
C241 C 0.58322 0.05601 0.89944 0.0
C242 C 0.55727 0.98506 0.9 0.0
H243 H 0.56113 0.13754 0.89947 0.0
H244 H 0.63744 0.09108 0.89951 0.0
C245 C 0.4867 0.94145 0.90002 0.0
C246 C 0.48516 0.55698 0.45248 0.0
C247 C 0.55518 0.58246 0.45482 0.0
H248 H 0.38592 0.46842 0.45101 0.0
C249 C 0.57863 0.5359 0.45752 0.0
H250 H 0.46554 0.59143 0.45034 0.0
C251 C 0.53327 0.46552 0.45754 0.0
C252 C 0.46327 0.44 0.45528 0.0
H253 H 0.63238 0.55383 0.45925 0.0
H254 H 0.55304 0.43113 0.45938 0.0
C255 C 0.43966 0.48651 0.45291 0.0
C256 C 0.99474 0.52849 0.81945 0.0
C257 C 0.97624 0.54686 0.79495 0.0
H258 H 0.04 0.47567 0.83841 0.0
C259 C 0.99305 0.52814 0.77014 0.0
H260 H 0.9832 0.5431 0.83884 0.0
C261 C 0.02839 0.49229 0.76988 0.0
C262 C 0.04582 0.47297 0.79444 0.0
H263 H 0.98058 0.5429 0.75095 0.0
H264 H 0.04038 0.47801 0.75052 0.0
C265 C 0.02795 0.49074 0.8192 0.0
C266 C 0.46967 0.93879 0.12569 0.0
C267 C 0.44316 0.98277 0.12498 0.0
H268 H 0.55883 0.92987 0.12676 0.0
C269 C 0.48847 0.05366 0.12507 0.0
H270 H 0.43615 0.88405 0.12566 0.0
C271 C 0.55871 0.08 0.12539 0.0
C272 C 0.58525 0.03607 0.12602 0.0
H273 H 0.46967 0.08901 0.12446 0.0
H274 H 0.59219 0.13474 0.12505 0.0
C275 C 0.53995 0.96517 0.1264 0.0
C276 C 0.19947 0.10035 0.15189 0.0
C277 C 0.2153 0.0547 0.16458 0.0
H278 H 0.18874 0.18804 0.15665 0.0
C279 C 0.22837 0.05968 0.19266 0.0
H280 H 0.18909 0.09724 0.13023 0.0
C281 C 0.22743 0.11098 0.20778 0.0
C282 C 0.21434 0.15832 0.19488 0.0
H283 H 0.24022 0.02456 0.20287 0.0
H284 H 0.23893 0.11479 0.22936 0.0
C285 C 0.19946 0.15222 0.16694 0.0
C286 C 0.10671 0.20078 0.53915 0.0
C287 C 0.05802 0.21227 0.5267 0.0
H288 H 0.19691 0.19543 0.53372 0.0
C289 C 0.06005 0.22294 0.49849 0.0
H290 H 0.10597 0.19264 0.56094 0.0
C291 C 0.11121 0.22344 0.48292 0.0
C292 C 0.16153 0.21479 0.49555 0.0
H293 H 0.02255 0.23155 0.48855 0.0
H294 H 0.1126 0.23269 0.46121 0.0
C295 C 0.1587 0.20277 0.52368 0.0
C296 C 0.91848 0.10049 0.82167 0.0
C297 C 0.96741 0.15959 0.83493 0.0
H298 H 0.82653 1.00487 0.82582 0.0
C299 C 0.96486 0.16541 0.86328 0.0
H300 H 0.91967 0.09523 0.79976 0.0
C301 C 0.91247 0.11361 0.87815 0.0
C302 C 0.86143 0.0562 0.86471 0.0
H303 H 1.00254 0.2106 0.87386 0.0
H304 H 0.91047 0.11974 0.89996 0.0
C305 C 0.86525 0.04925 0.83648 0.0
C306 C 0.80414 0.90134 0.14756 0.0
C307 C 0.81393 0.95962 0.16138 0.0
H308 H 0.79334 0.80248 0.15112 0.0
C309 C 0.82612 0.9657 0.18953 0.0
H310 H 0.79471 0.89582 0.12581 0.0
C311 C 0.82671 0.91306 0.20387 0.0
C312 C 0.81353 0.85339 0.19024 0.0
H313 H 0.8343 0.01066 0.20048 0.0
H314 H 0.83473 0.91789 0.22571 0.0
C315 C 0.80317 0.84811 0.16198 0.0
C316 C 0.8608 0.82205 0.52459 0.0
C317 C 0.86366 0.81911 0.49613 0.0
H318 H 0.90816 0.8238 0.56246 0.0
C319 C 0.91889 0.8192 0.48361 0.0
H320 H 0.81854 0.82237 0.53452 0.0
C321 C 0.96902 0.81836 0.49951 0.0
C322 C 0.96516 0.81936 0.528 0.0
H323 H 0.92168 0.81674 0.46163 0.0
H324 H 1.0101 0.81578 0.48959 0.0
C325 C 0.91191 0.82315 0.54047 0.0
C326 C 0.15816 0.97222 0.83704 0.0
C327 C 0.16357 0.96558 0.8652 0.0
H328 H 0.10211 0.92561 0.80069 0.0
C329 C 0.11374 0.90789 0.87892 0.0
H330 H 0.19592 0.01679 0.82617 0.0
C331 C 0.06095 0.85559 0.86436 0.0
C332 C 0.05679 0.86119 0.83606 0.0
H333 H 0.11699 0.902 0.90068 0.0
H334 H 0.0242 0.81025 0.87513 0.0
C335 C 0.10453 0.92049 0.82255 0.0
C336 C 0.32984 0.30225 0.35582 0.0
C337 C 0.28425 0.24072 0.36878 0.0
H338 H 0.34866 0.36885 0.3218 0.0
C339 C 0.22116 0.19791 0.35636 0.0
H340 H 0.37831 0.33694 0.3651 0.0
C341 C 0.20444 0.21589 0.33137 0.0
C342 C 0.24948 0.27816 0.31875 0.0
H343 H 0.18464 0.15061 0.36604 0.0
H344 H 0.156 0.18138 0.32204 0.0
C345 C 0.31233 0.32112 0.33127 0.0
C346 C 0.93434 0.23265 0.67826 0.0
C347 C 0.97681 0.24165 0.65606 0.0
H348 H 0.92664 0.24015 0.72153 0.0
C349 C 0.04607 0.26544 0.66111 0.0
H350 H 0.88097 0.21471 0.67508 0.0
C351 C 0.07255 0.28127 0.68758 0.0
C352 C 0.03023 0.27255 0.70977 0.0
H353 H 0.08043 0.2734 0.64446 0.0
H354 H 0.12618 0.30035 0.69067 0.0
C355 C 0.96066 0.24732 0.70485 0.0
C356 C 0.7126 0.0308 0.02579 0.0
C357 C 0.77549 0.05004 0.03807 0.0
H358 H 0.6443 0.97863 0.99271 0.0
C359 C 0.81831 0.03007 0.02563 0.0
H360 H 0.67786 0.04422 0.03512 0.0
C361 C 0.7992 0.99276 1.00124 0.0
C362 C 0.73596 0.97279 0.98915 0.0
H363 H 0.86665 0.04328 0.03477 0.0
H364 H 0.83397 0.97949 0.99183 0.0
C365 C 0.69279 0.99207 1.00177 0.0
C366 C 0.72217 0.76658 0.31864 0.0
C367 C 0.76578 0.7404 0.3139 0.0
H368 H 0.67637 0.80107 0.34816 0.0
C369 C 0.79899 0.73142 0.33621 0.0
H370 H 0.69565 0.77402 0.30186 0.0
C371 C 0.78871 0.74793 0.36261 0.0
C372 C 0.74418 0.77294 0.36747 0.0
H373 H 0.83296 0.71159 0.3333 0.0
H374 H 0.81488 0.73981 0.37934 0.0
C375 C 0.71107 0.78218 0.34514 0.0
C376 C 0.0857 0.78885 0.67953 0.0
C377 C 0.0426 0.77967 0.6575 0.0
H378 H 0.09453 0.78126 0.72274 0.0
C379 C 0.97342 0.75555 0.66279 0.0
H380 H 0.13904 0.80705 0.67616 0.0
C381 C 0.94762 0.73958 0.68934 0.0
C382 C 0.99056 0.74843 0.71135 0.0
H383 H 0.9386 0.74749 0.64628 0.0
H384 H 0.89403 0.72026 0.69262 0.0
C385 C 0.06005 0.77398 0.70619 0.0
C386 C 0.31578 0.99357 0.02464 0.0
C387 C 0.25497 0.97803 0.03784 0.0
H388 H 0.38219 0.04263 0.99074 0.0
C389 C 0.21402 1.00161 0.0263 0.0
H390 H 0.34907 0.97726 0.03327 0.0
C391 C 0.23272 0.0386 1.00182 0.0
C392 C 0.2939 0.05479 0.98878 0.0
H393 H 0.16731 0.99122 0.03617 0.0
H394 H 0.19925 0.05453 0.99307 0.0
C395 C 0.33538 0.03214 1.00055 0.0
loop_
_geom_bond_atom_site_label_1
_geom_bond_atom_site_label_2
_geom_bond_distance
_geom_bond_site_symmetry_2
_ccdc_geom_bond_type
In0 O1 2.294 . S
In0 O2 2.326 . S
In0 O6 2.266 . S
In0 O7 2.326 . S
In0 O8 2.266 . S
In0 O9 2.326 . S
In0 O11 2.294 . S
In0 O12 2.326 . S
O1 In0 2.294 . S
O1 C10 1.240 . S
O2 In0 2.326 . S
O2 C10 1.252 . S
C3 O6 1.252 . S
C3 O7 1.260 . S
C4 O11 1.240 . S
C4 O12 1.252 . S
C5 O8 1.252 . S
C5 O9 1.260 . S
O6 In0 2.266 . S
O6 C3 1.252 . S
O7 In0 2.326 . S
O7 C3 1.260 . S
O8 In0 2.266 . S
O8 C5 1.252 . S
O9 In0 2.326 . S
O9 C5 1.260 . S
C10 O1 1.240 . S
C10 O2 1.252 . S
O11 In0 2.294 . S
O11 C4 1.240 . S
O12 In0 2.326 . S
O12 C4 1.252 . S
In13 O14 2.294 . S
In13 O15 2.326 1_655 S
In13 O19 2.266 . S
In13 O20 2.326 . S
In13 O21 2.266 1_655 S
In13 O22 2.326 . S
In13 O24 2.294 . S
In13 O25 2.326 . S
O14 In13 2.294 . S
O14 C23 1.240 . S
O15 In13 2.326 1_455 S
O15 C23 1.252 1_455 S
C16 O19 1.252 . S
C16 O20 1.260 . S
C17 O24 1.240 . S
C17 O25 1.252 . S
C18 O21 1.252 . S
C18 O22 1.260 1_455 S
O19 In13 2.266 . S
O19 C16 1.252 . S
O20 In13 2.326 . S
O20 C16 1.260 . S
O21 In13 2.266 1_455 S
O21 C18 1.252 . S
O22 In13 2.326 . S
O22 C18 1.260 1_655 S
C23 O14 1.240 . S
C23 O15 1.252 1_655 S
O24 In13 2.294 . S
O24 C17 1.240 . S
O25 In13 2.326 . S
O25 C17 1.252 . S
In26 O27 2.294 . S
In26 O28 2.326 . S
In26 O32 2.266 1_565 S
In26 O33 2.326 . S
In26 O34 2.266 . S
In26 O35 2.326 . S
In26 O37 2.294 . S
In26 O38 2.326 1_565 S
O27 In26 2.294 . S
O27 C36 1.240 . S
O28 In26 2.326 . S
O28 C36 1.252 . S
C29 O32 1.252 . S
C29 O33 1.260 1_545 S
C30 O37 1.240 . S
C30 O38 1.252 1_565 S
C31 O34 1.252 . S
C31 O35 1.260 . S
O32 In26 2.266 1_545 S
O32 C29 1.252 . S
O33 In26 2.326 . S
O33 C29 1.260 1_565 S
O34 In26 2.266 . S
O34 C31 1.252 . S
O35 In26 2.326 . S
O35 C31 1.260 . S
C36 O27 1.240 . S
C36 O28 1.252 . S
O37 In26 2.294 . S
O37 C30 1.240 . S
O38 In26 2.326 1_545 S
O38 C30 1.252 1_545 S
In39 O40 2.294 . S
In39 O41 2.326 . S
In39 O45 2.266 . S
In39 O46 2.326 . S
In39 O47 2.266 . S
In39 O48 2.326 . S
In39 O50 2.294 . S
In39 O51 2.326 . S
O40 In39 2.294 . S
O40 C49 1.240 . S
O41 In39 2.326 . S
O41 C49 1.252 . S
C42 O45 1.252 . S
C42 O46 1.260 . S
C43 O50 1.240 . S
C43 O51 1.252 . S
C44 O47 1.252 . S
C44 O48 1.260 . S
O45 In39 2.266 . S
O45 C42 1.252 . S
O46 In39 2.326 . S
O46 C42 1.260 . S
O47 In39 2.266 . S
O47 C44 1.252 . S
O48 In39 2.326 . S
O48 C44 1.260 . S
C49 O40 1.240 . S
C49 O41 1.252 . S
O50 In39 2.294 . S
O50 C43 1.240 . S
O51 In39 2.326 . S
O51 C43 1.252 . S
In52 O53 2.294 . S
In52 O54 2.326 1_455 S
In52 O58 2.266 . S
In52 O59 2.326 . S
In52 O60 2.266 1_455 S
In52 O61 2.326 . S
In52 O63 2.294 . S
In52 O64 2.326 . S
O53 In52 2.294 . S
O53 C62 1.240 . S
O54 In52 2.326 1_655 S
O54 C62 1.252 1_655 S
C55 O58 1.252 . S
C55 O59 1.260 . S
C56 O63 1.240 . S
C56 O64 1.252 . S
C57 O60 1.252 . S
C57 O61 1.260 1_655 S
O58 In52 2.266 . S
O58 C55 1.252 . S
O59 In52 2.326 . S
O59 C55 1.260 . S
O60 In52 2.266 1_655 S
O60 C57 1.252 . S
O61 In52 2.326 . S
O61 C57 1.260 1_455 S
C62 O53 1.240 . S
C62 O54 1.252 1_455 S
O63 In52 2.294 . S
O63 C56 1.240 . S
O64 In52 2.326 . S
O64 C56 1.252 . S
In65 O66 2.294 . S
In65 O67 2.326 1_545 S
In65 O71 2.266 . S
In65 O72 2.326 . S
In65 O73 2.266 1_545 S
In65 O74 2.326 . S
In65 O76 2.294 . S
In65 O77 2.326 . S
O66 In65 2.294 . S
O66 C75 1.240 . S
O67 In65 2.326 1_565 S
O67 C75 1.252 1_565 S
C68 O71 1.252 . S
C68 O72 1.260 . S
C69 O76 1.240 . S
C69 O77 1.252 . S
C70 O73 1.252 . S
C70 O74 1.260 1_565 S
O71 In65 2.266 . S
O71 C68 1.252 . S
O72 In65 2.326 . S
O72 C68 1.260 . S
O73 In65 2.266 1_565 S
O73 C70 1.252 . S
O74 In65 2.326 . S
O74 C70 1.260 1_545 S
C75 O66 1.240 . S
C75 O67 1.252 1_545 S
O76 In65 2.294 . S
O76 C69 1.240 . S
O77 In65 2.326 . S
O77 C69 1.252 . S
In78 O79 2.294 . S
In78 O80 2.326 . S
In78 O84 2.266 . S
In78 O85 2.326 . S
In78 O86 2.266 . S
In78 O87 2.326 . S
In78 O89 2.294 . S
In78 O90 2.326 . S
O79 In78 2.294 . S
O79 C88 1.240 . S
O80 In78 2.326 . S
O80 C88 1.252 . S
C81 O84 1.252 . S
C81 O85 1.260 . S
C82 O89 1.240 . S
C82 O90 1.252 . S
C83 O86 1.252 . S
C83 O87 1.260 . S
O84 In78 2.266 . S
O84 C81 1.252 . S
O85 In78 2.326 . S
O85 C81 1.260 . S
O86 In78 2.266 . S
O86 C83 1.252 . S
O87 In78 2.326 . S
O87 C83 1.260 . S
C88 O79 1.240 . S
C88 O80 1.252 . S
O89 In78 2.294 . S
O89 C82 1.240 . S
O90 In78 2.326 . S
O90 C82 1.252 . S
In91 O92 2.294 . S
In91 O93 2.326 1_655 S
In91 O97 2.266 . S
In91 O98 2.326 . S
In91 O99 2.266 1_655 S
In91 O100 2.326 . S
In91 O102 2.294 . S
In91 O103 2.326 . S
O92 In91 2.294 . S
O92 C101 1.240 . S
O93 In91 2.326 1_455 S
O93 C101 1.252 1_455 S
C94 O97 1.252 . S
C94 O98 1.260 . S
C95 O102 1.240 . S
C95 O103 1.252 . S
C96 O99 1.252 . S
C96 O100 1.260 1_455 S
O97 In91 2.266 . S
O97 C94 1.252 . S
O98 In91 2.326 . S
O98 C94 1.260 . S
O99 In91 2.266 1_455 S
O99 C96 1.252 . S
O100 In91 2.326 . S
O100 C96 1.260 1_655 S
C101 O92 1.240 . S
C101 O93 1.252 1_655 S
O102 In91 2.294 . S
O102 C95 1.240 . S
O103 In91 2.326 . S
O103 C95 1.252 . S
In104 O105 2.294 . S
In104 O106 2.326 1_565 S
In104 O110 2.266 . S
In104 O111 2.326 . S
In104 O112 2.266 1_565 S
In104 O113 2.326 . S
In104 O115 2.294 . S
In104 O116 2.326 . S
O105 In104 2.294 . S
O105 C114 1.240 . S
O106 In104 2.326 1_545 S
O106 C114 1.252 1_545 S
C107 O110 1.252 . S
C107 O111 1.260 . S
C108 O115 1.240 . S
C108 O116 1.252 . S
C109 O112 1.252 . S
C109 O113 1.260 1_545 S
O110 In104 2.266 . S
O110 C107 1.252 . S
O111 In104 2.326 . S
O111 C107 1.260 . S
O112 In104 2.266 1_545 S
O112 C109 1.252 . S
O113 In104 2.326 . S
O113 C109 1.260 1_565 S
C114 O105 1.240 . S
C114 O106 1.252 1_565 S
O115 In104 2.294 . S
O115 C108 1.240 . S
O116 In104 2.326 . S
O116 C108 1.252 . S
In117 O118 2.294 . S
In117 O119 2.326 . S
In117 O123 2.266 . S
In117 O124 2.326 . S
In117 O125 2.266 . S
In117 O126 2.326 . S
In117 O128 2.294 . S
In117 O129 2.326 . S
O118 In117 2.294 . S
O118 C127 1.240 . S
O119 In117 2.326 . S
O119 C127 1.252 . S
C120 O123 1.252 . S
C120 O124 1.260 . S
C121 O128 1.240 . S
C121 O129 1.252 . S
C122 O125 1.252 . S
C122 O126 1.260 . S
O123 In117 2.266 . S
O123 C120 1.252 . S
O124 In117 2.326 . S
O124 C120 1.260 . S
O125 In117 2.266 . S
O125 C122 1.252 . S
O126 In117 2.326 . S
O126 C122 1.260 . S
C127 O118 1.240 . S
C127 O119 1.252 . S
O128 In117 2.294 . S
O128 C121 1.240 . S
O129 In117 2.326 . S
O129 C121 1.252 . S
In130 O131 2.294 . S
In130 O132 2.326 . S
In130 O136 2.266 1_455 S
In130 O137 2.326 . S
In130 O138 2.266 . S
In130 O139 2.326 . S
In130 O141 2.294 . S
In130 O142 2.326 1_455 S
O131 In130 2.294 . S
O131 C140 1.240 . S
O132 In130 2.326 . S
O132 C140 1.252 . S
C133 O136 1.252 . S
C133 O137 1.260 1_655 S
C134 O141 1.240 . S
C134 O142 1.252 1_455 S
C135 O138 1.252 . S
C135 O139 1.260 . S
O136 In130 2.266 1_655 S
O136 C133 1.252 . S
O137 In130 2.326 . S
O137 C133 1.260 1_455 S
O138 In130 2.266 . S
O138 C135 1.252 . S
O139 In130 2.326 . S
O139 C135 1.260 . S
C140 O131 1.240 . S
C140 O132 1.252 . S
O141 In130 2.294 . S
O141 C134 1.240 . S
O142 In130 2.326 1_655 S
O142 C134 1.252 1_655 S
In143 O144 2.294 . S
In143 O145 2.326 . S
In143 O149 2.266 1_545 S
In143 O150 2.326 . S
In143 O151 2.266 . S
In143 O152 2.326 . S
In143 O154 2.294 . S
In143 O155 2.326 1_545 S
O144 In143 2.294 . S
O144 C153 1.240 . S
O145 In143 2.326 . S
O145 C153 1.252 . S
C146 O149 1.252 . S
C146 O150 1.260 1_565 S
C147 O154 1.240 . S
C147 O155 1.252 1_545 S
C148 O151 1.252 . S
C148 O152 1.260 . S
O149 In143 2.266 1_565 S
O149 C146 1.252 . S
O150 In143 2.326 . S
O150 C146 1.260 1_545 S
O151 In143 2.266 . S
O151 C148 1.252 . S
O152 In143 2.326 . S
O152 C148 1.260 . S
C153 O144 1.240 . S
C153 O145 1.252 . S
O154 In143 2.294 . S
O154 C147 1.240 . S
O155 In143 2.326 1_565 S
O155 C147 1.252 1_565 S
C156 C157 1.387 . S
C156 H160 0.950 . S
C156 C165 1.390 1_655 S
C157 C156 1.387 . S
C157 C159 1.387 . S
H158 C165 0.950 . S
C159 C157 1.387 . S
C159 C161 1.390 1_655 S
C159 H163 0.950 . S
H160 C156 0.950 . S
C161 C159 1.390 1_455 S
C161 C162 1.387 . S
C161 H164 0.950 . S
C162 C161 1.387 . S
C162 C165 1.387 . S
H163 C159 0.950 . S
H164 C161 0.950 . S
C165 C156 1.390 1_455 S
C165 H158 0.950 . S
C165 C162 1.387 . S
C166 C167 1.387 . S
C166 H170 0.950 . S
C166 C175 1.390 1_545 S
C167 C166 1.387 . S
C167 C169 1.387 . S
H168 C175 0.950 . S
C169 C167 1.387 . S
C169 C171 1.390 1_545 S
C169 H173 0.950 . S
H170 C166 0.950 . S
C171 C169 1.390 1_565 S
C171 C172 1.387 . S
C171 H174 0.950 . S
C172 C171 1.387 . S
C172 C175 1.387 . S
H173 C169 0.950 . S
H174 C171 0.950 . S
C175 C166 1.390 1_565 S
C175 H168 0.950 . S
C175 C172 1.387 . S
C176 C177 1.387 . S
C176 H180 0.950 . S
C176 C185 1.390 . S
C177 C176 1.387 . S
C177 C179 1.387 . S
H178 C185 0.950 . S
C179 C177 1.387 . S
C179 C181 1.390 . S
C179 H183 0.950 . S
H180 C176 0.950 . S
C181 C179 1.390 . S
C181 C182 1.387 . S
C181 H184 0.950 . S
C182 C181 1.387 . S
C182 C185 1.387 . S
H183 C179 0.950 . S
H184 C181 0.950 . S
C185 C176 1.390 . S
C185 H178 0.950 . S
C185 C182 1.387 . S
C186 C187 1.387 . S
C186 H190 0.950 . S
C186 C195 1.390 . S
C187 C186 1.387 . S
C187 C189 1.387 1_655 S
H188 C195 0.950 . S
C189 C187 1.387 1_455 S
C189 C191 1.390 . S
C189 H193 0.950 . S
H190 C186 0.950 . S
C191 C189 1.390 . S
C191 C192 1.387 . S
C191 H194 0.950 . S
C192 C191 1.387 . S
C192 C195 1.387 1_455 S
H193 C189 0.950 . S
H194 C191 0.950 . S
C195 C186 1.390 . S
C195 H188 0.950 . S
C195 C192 1.387 1_655 S
C196 C197 1.387 . S
C196 H200 0.950 . S
C196 C205 1.390 1_545 S
C197 C196 1.387 . S
C197 C199 1.387 . S
H198 C205 0.950 . S
C199 C197 1.387 . S
C199 C201 1.390 1_545 S
C199 H203 0.950 . S
H200 C196 0.950 . S
C201 C199 1.390 1_565 S
C201 C202 1.387 . S
C201 H204 0.950 . S
C202 C201 1.387 . S
C202 C205 1.387 . S
H203 C199 0.950 . S
H204 C201 0.950 . S
C205 C196 1.390 1_565 S
C205 H198 0.950 . S
C205 C202 1.387 . S
C206 C207 1.387 . S
C206 H210 0.950 . S
C206 C215 1.390 . S
C207 C206 1.387 . S
C207 C209 1.387 . S
H208 C215 0.950 . S
C209 C207 1.387 . S
C209 C211 1.390 . S
C209 H213 0.950 . S
H210 C206 0.950 . S
C211 C209 1.390 . S
C211 C212 1.387 . S
C211 H214 0.950 . S
C212 C211 1.387 . S
C212 C215 1.387 . S
H213 C209 0.950 . S
H214 C211 0.950 . S
C215 C206 1.390 . S
C215 H208 0.950 . S
C215 C212 1.387 . S
C216 C217 1.387 . S
C216 H220 0.950 . S
C216 C225 1.390 . S
C217 C216 1.387 . S
C217 C219 1.387 . S
H218 C225 0.950 . S
C219 C217 1.387 . S
C219 C221 1.390 . S
C219 H223 0.950 . S
H220 C216 0.950 . S
C221 C219 1.390 . S
C221 C222 1.387 . S
C221 H224 0.950 . S
C222 C221 1.387 . S
C222 C225 1.387 . S
H223 C219 0.950 . S
H224 C221 0.950 . S
C225 C216 1.390 . S
C225 H218 0.950 . S
C225 C222 1.387 . S
C226 C227 1.387 . S
C226 H230 0.950 . S
C226 C235 1.390 1_455 S
C227 C226 1.387 . S
C227 C229 1.387 . S
H228 C235 0.950 . S
C229 C227 1.387 . S
C229 C231 1.390 1_455 S
C229 H233 0.950 . S
H230 C226 0.950 . S
C231 C229 1.390 1_655 S
C231 C232 1.387 . S
C231 H234 0.950 . S
C232 C231 1.387 . S
C232 C235 1.387 . S
H233 C229 0.950 . S
H234 C231 0.950 . S
C235 C226 1.390 1_655 S
C235 H228 0.950 . S
C235 C232 1.387 . S
C236 C237 1.387 . S
C236 H240 0.950 . S
C236 C245 1.390 1_545 S
C237 C236 1.387 . S
C237 C239 1.387 . S
H238 C245 0.950 . S
C239 C237 1.387 . S
C239 C241 1.390 1_545 S
C239 H243 0.950 . S
H240 C236 0.950 . S
C241 C239 1.390 1_565 S
C241 C242 1.387 . S
C241 H244 0.950 . S
C242 C241 1.387 . S
C242 C245 1.387 . S
H243 C239 0.950 . S
H244 C241 0.950 . S
C245 C236 1.390 1_565 S
C245 H238 0.950 . S
C245 C242 1.387 . S
C246 C247 1.387 . S
C246 H250 0.950 . S
C246 C255 1.390 . S
C247 C246 1.387 . S
C247 C249 1.387 . S
H248 C255 0.950 . S
C249 C247 1.387 . S
C249 C251 1.390 . S
C249 H253 0.950 . S
H250 C246 0.950 . S
C251 C249 1.390 . S
C251 C252 1.387 . S
C251 H254 0.950 . S
C252 C251 1.387 . S
C252 C255 1.387 . S
H253 C249 0.950 . S
H254 C251 0.950 . S
C255 C246 1.390 . S
C255 H248 0.950 . S
C255 C252 1.387 . S
C256 C257 1.387 . S
C256 H260 0.950 . S
C256 C265 1.390 1_655 S
C257 C256 1.387 . S
C257 C259 1.387 . S
H258 C265 0.950 . S
C259 C257 1.387 . S
C259 C261 1.390 1_655 S
C259 H263 0.950 . S
H260 C256 0.950 . S
C261 C259 1.390 1_455 S
C261 C262 1.387 . S
C261 H264 0.950 . S
C262 C261 1.387 . S
C262 C265 1.387 . S
H263 C259 0.950 . S
H264 C261 0.950 . S
C265 C256 1.390 1_455 S
C265 H258 0.950 . S
C265 C262 1.387 . S
C266 C267 1.387 . S
C266 H270 0.950 . S
C266 C275 1.390 1_565 S
C267 C266 1.387 . S
C267 C269 1.387 . S
H268 C275 0.950 . S
C269 C267 1.387 . S
C269 C271 1.390 1_565 S
C269 H273 0.950 . S
H270 C266 0.950 . S
C271 C269 1.390 1_545 S
C271 C272 1.387 . S
C271 H274 0.950 . S
C272 C271 1.387 . S
C272 C275 1.387 . S
H273 C269 0.950 . S
H274 C271 0.950 . S
C275 C266 1.390 1_545 S
C275 H268 0.950 . S
C275 C272 1.387 . S
C276 C277 1.387 . S
C276 H280 0.950 . S
C276 C285 1.390 . S
C277 C276 1.387 . S
C277 C279 1.387 . S
H278 C285 0.950 . S
C279 C277 1.387 . S
C279 C281 1.390 . S
C279 H283 0.950 . S
H280 C276 0.950 . S
C281 C279 1.390 . S
C281 C282 1.387 . S
C281 H284 0.950 . S
C282 C281 1.387 . S
C282 C285 1.387 . S
H283 C279 0.950 . S
H284 C281 0.950 . S
C285 C276 1.390 . S
C285 H278 0.950 . S
C285 C282 1.387 . S
C286 C287 1.387 . S
C286 H290 0.950 . S
C286 C295 1.390 . S
C287 C286 1.387 . S
C287 C289 1.387 . S
H288 C295 0.950 . S
C289 C287 1.387 . S
C289 C291 1.390 . S
C289 H293 0.950 . S
H290 C286 0.950 . S
C291 C289 1.390 . S
C291 C292 1.387 . S
C291 H294 0.950 . S
C292 C291 1.387 . S
C292 C295 1.387 . S
H293 C289 0.950 . S
H294 C291 0.950 . S
C295 C286 1.390 . S
C295 H288 0.950 . S
C295 C292 1.387 . S
C296 C297 1.387 . S
C296 H300 0.950 . S
C296 C305 1.390 . S
C297 C296 1.387 . S
C297 C299 1.387 . S
H298 C305 0.950 . S
C299 C297 1.387 . S
C299 C301 1.390 . S
C299 H303 0.950 . S
H300 C296 0.950 . S
C301 C299 1.390 . S
C301 C302 1.387 . S
C301 H304 0.950 . S
C302 C301 1.387 . S
C302 C305 1.387 . S
H303 C299 0.950 . S
H304 C301 0.950 . S
C305 C296 1.390 . S
C305 H298 0.950 . S
C305 C302 1.387 . S
C306 C307 1.387 . S
C306 H310 0.950 . S
C306 C315 1.390 . S
C307 C306 1.387 . S
C307 C309 1.387 . S
H308 C315 0.950 . S
C309 C307 1.387 . S
C309 C311 1.390 . S
C309 H313 0.950 . S
H310 C306 0.950 . S
C311 C309 1.390 . S
C311 C312 1.387 . S
C311 H314 0.950 . S
C312 C311 1.387 . S
C312 C315 1.387 . S
H313 C309 0.950 . S
H314 C311 0.950 . S
C315 C306 1.390 . S
C315 H308 0.950 . S
C315 C312 1.387 . S
C316 C317 1.387 . S
C316 H320 0.950 . S
C316 C325 1.390 . S
C317 C316 1.387 . S
C317 C319 1.387 . S
H318 C325 0.950 . S
C319 C317 1.387 . S
C319 C321 1.390 . S
C319 H323 0.950 . S
H320 C316 0.950 . S
C321 C319 1.390 . S
C321 C322 1.387 . S
C321 H324 0.950 . S
C322 C321 1.387 . S
C322 C325 1.387 . S
H323 C319 0.950 . S
H324 C321 0.950 . S
C325 C316 1.390 . S
C325 H318 0.950 . S
C325 C322 1.387 . S
C326 C327 1.387 . S
C326 H330 0.950 . S
C326 C335 1.390 . S
C327 C326 1.387 . S
C327 C329 1.387 . S
H328 C335 0.950 . S
C329 C327 1.387 . S
C329 C331 1.390 . S
C329 H333 0.950 . S
H330 C326 0.950 . S
C331 C329 1.390 . S
C331 C332 1.387 . S
C331 H334 0.950 . S
C332 C331 1.387 . S
C332 C335 1.387 . S
H333 C329 0.950 . S
H334 C331 0.950 . S
C335 C326 1.390 . S
C335 H328 0.950 . S
C335 C332 1.387 . S
C336 C337 1.387 . S
C336 H340 0.950 . S
C336 C345 1.390 . S
C337 C336 1.387 . S
C337 C339 1.387 . S
H338 C345 0.950 . S
C339 C337 1.387 . S
C339 C341 1.390 . S
C339 H343 0.950 . S
H340 C336 0.950 . S
C341 C339 1.390 . S
C341 C342 1.387 . S
C341 H344 0.950 . S
C342 C341 1.387 . S
C342 C345 1.387 . S
H343 C339 0.950 . S
H344 C341 0.950 . S
C345 C336 1.390 . S
C345 H338 0.950 . S
C345 C342 1.387 . S
C346 C347 1.387 . S
C346 H350 0.950 . S
C346 C355 1.390 . S
C347 C346 1.387 . S
C347 C349 1.387 1_655 S
H348 C355 0.950 . S
C349 C347 1.387 1_455 S
C349 C351 1.390 . S
C349 H353 0.950 . S
H350 C346 0.950 . S
C351 C349 1.390 . S
C351 C352 1.387 . S
C351 H354 0.950 . S
C352 C351 1.387 . S
C352 C355 1.387 1_455 S
H353 C349 0.950 . S
H354 C351 0.950 . S
C355 C346 1.390 . S
C355 H348 0.950 . S
C355 C352 1.387 1_655 S
C356 C357 1.387 . S
C356 H360 0.950 . S
C356 C365 1.390 1_544 S
C357 C356 1.387 . S
C357 C359 1.387 . S
H358 C365 0.950 . S
C359 C357 1.387 . S
C359 C361 1.390 1_544 S
C359 H363 0.950 . S
H360 C356 0.950 . S
C361 C359 1.390 1_566 S
C361 C362 1.387 . S
C361 H364 0.950 . S
C362 C361 1.387 . S
C362 C365 1.387 . S
H363 C359 0.950 . S
H364 C361 0.950 . S
C365 C356 1.390 1_566 S
C365 H358 0.950 . S
C365 C362 1.387 . S
C366 C367 1.387 . S
C366 H370 0.950 . S
C366 C375 1.390 . S
C367 C366 1.387 . S
C367 C369 1.387 . S
H368 C375 0.950 . S
C369 C367 1.387 . S
C369 C371 1.390 . S
C369 H373 0.950 . S
H370 C366 0.950 . S
C371 C369 1.390 . S
C371 C372 1.387 . S
C371 H374 0.950 . S
C372 C371 1.387 . S
C372 C375 1.387 . S
H373 C369 0.950 . S
H374 C371 0.950 . S
C375 C366 1.390 . S
C375 H368 0.950 . S
C375 C372 1.387 . S
C376 C377 1.387 . S
C376 H380 0.950 . S
C376 C385 1.390 . S
C377 C376 1.387 . S
C377 C379 1.387 1_455 S
H378 C385 0.950 . S
C379 C377 1.387 1_655 S
C379 C381 1.390 . S
C379 H383 0.950 . S
H380 C376 0.950 . S
C381 C379 1.390 . S
C381 C382 1.387 . S
C381 H384 0.950 . S
C382 C381 1.387 . S
C382 C385 1.387 1_655 S
H383 C379 0.950 . S
H384 C381 0.950 . S
C385 C376 1.390 . S
C385 H378 0.950 . S
C385 C382 1.387 1_455 S
C386 C387 1.387 . S
C386 H390 0.950 . S
C386 C395 1.390 1_564 S
C387 C386 1.387 . S
C387 C389 1.387 . S
H388 C395 0.950 . S
C389 C387 1.387 . S
C389 C391 1.390 1_564 S
C389 H393 0.950 . S
H390 C386 0.950 . S
C391 C389 1.390 1_546 S
C391 C392 1.387 . S
C391 H394 0.950 . S
C392 C391 1.387 . S
C392 C395 1.387 . S
H393 C389 0.950 . S
H394 C391 0.950 . S
C395 C386 1.390 1_546 S
C395 H388 0.950 . S
C395 C392 1.387 . S
C157 C148 1.763 . S
C162 C3 1.764 . S
C167 C16 1.764 . S
C172 C81 1.764 . S
C177 C31 1.763 . S
C182 C94 1.762 . S
C187 C44 1.764 . S
C192 C107 1.763 . S
C197 C122 1.762 . S
C202 C55 1.762 . S
C207 C68 1.762 . S
C212 C135 1.762 . S
C217 C43 1.486 . S
C222 C10 1.486 . S
C227 C62 1.488 . S
C232 C23 1.488 . S
C237 C75 1.488 . S
C242 C30 1.488 . S
C247 C88 1.488 . S
C252 C121 1.488 . S
C257 C101 1.486 . S
C262 C134 1.486 . S
C267 C114 1.488 . S
C272 C147 1.488 . S
C277 C109 0.821 . S
C282 C5 0.820 . S
C287 C18 0.818 . S
C292 C120 0.818 . S
C297 C133 0.821 . S
C302 C29 0.820 . S
C307 C146 0.821 . S
C312 C42 0.821 . S
C317 C83 0.821 . S
C322 C57 0.821 . S
C327 C70 0.819 . S
C332 C96 0.819 . S
C337 C127 1.664 . S
C342 C4 1.664 . S
C347 C17 1.666 . S
C352 C140 1.666 . S
C357 C153 1.664 . S
C362 C36 1.664 . S
C367 C49 1.666 . S
C372 C82 1.666 . S
C377 C56 1.664 . S
C382 C95 1.665 . S
C387 C108 1.664 . S
C392 C69 1.664 . S
