# Generated by pormake.
# Topology can, (4)-cn, num edge types: 1
# Building blocks:
#     Node 0, Type 0, BuildingBlock: UXUYUI_clean_sbu_0, # of connection points: 4
#     Node 1, Type 0, BuildingBlock: UXUYUI_clean_sbu_0, # of connection points: 4
#     Node 2, Type 0, BuildingBlock: UXUYUI_clean_sbu_0, # of connection points: 4
#     Node 3, Type 0, BuildingBlock: UXUYUI_clean_sbu_0, # of connection points: 4
#     Node 4, Type 0, BuildingBlock: UXUYUI_clean_sbu_0, # of connection points: 4
#     Node 5, Type 0, BuildingBlock: UXUYUI_clean_sbu_0, # of connection points: 4
#     Node 6, Type 0, BuildingBlock: UXUYUI_clean_sbu_0, # of connection points: 4
#     Node 7, Type 0, BuildingBlock: UXUYUI_clean_sbu_0, # of connection points: 4
#     Node 8, Type 0, BuildingBlock: UXUYUI_clean_sbu_0, # of connection points: 4
#     Node 9, Type 0, BuildingBlock: UXUYUI_clean_sbu_0, # of connection points: 4
#     Node 10, Type 0, BuildingBlock: UXUYUI_clean_sbu_0, # of connection points: 4
#     Node 11, Type 0, BuildingBlock: UXUYUI_clean_sbu_0, # of connection points: 4
#     Edge 12, Type (0, 0), BuildingBlock: MIFKUJ_clean_linker_0, # of connection points: 2
#     Edge 13, Type (0, 0), BuildingBlock: MIFKUJ_clean_linker_0, # of connection points: 2
#     Edge 14, Type (0, 0), BuildingBlock: MIFKUJ_clean_linker_0, # of connection points: 2
#     Edge 15, Type (0, 0), BuildingBlock: MIFKUJ_clean_linker_0, # of connection points: 2
#     Edge 16, Type (0, 0), BuildingBlock: MIFKUJ_clean_linker_0, # of connection points: 2
#     Edge 17, Type (0, 0), BuildingBlock: MIFKUJ_clean_linker_0, # of connection points: 2
#     Edge 18, Type (0, 0), BuildingBlock: MIFKUJ_clean_linker_0, # of connection points: 2
#     Edge 19, Type (0, 0), BuildingBlock: MIFKUJ_clean_linker_0, # of connection points: 2
#     Edge 20, Type (0, 0), BuildingBlock: MIFKUJ_clean_linker_0, # of connection points: 2
#     Edge 21, Type (0, 0), BuildingBlock: MIFKUJ_clean_linker_0, # of connection points: 2
#     Edge 22, Type (0, 0), BuildingBlock: MIFKUJ_clean_linker_0, # of connection points: 2
#     Edge 23, Type (0, 0), BuildingBlock: MIFKUJ_clean_linker_0, # of connection points: 2
#     Edge 24, Type (0, 0), BuildingBlock: MIFKUJ_clean_linker_0, # of connection points: 2
#     Edge 25, Type (0, 0), BuildingBlock: MIFKUJ_clean_linker_0, # of connection points: 2
#     Edge 26, Type (0, 0), BuildingBlock: MIFKUJ_clean_linker_0, # of connection points: 2
#     Edge 27, Type (0, 0), BuildingBlock: MIFKUJ_clean_linker_0, # of connection points: 2
#     Edge 28, Type (0, 0), BuildingBlock: MIFKUJ_clean_linker_0, # of connection points: 2
#     Edge 29, Type (0, 0), BuildingBlock: MIFKUJ_clean_linker_0, # of connection points: 2
#     Edge 30, Type (0, 0), BuildingBlock: MIFKUJ_clean_linker_0, # of connection points: 2
#     Edge 31, Type (0, 0), BuildingBlock: MIFKUJ_clean_linker_0, # of connection points: 2
#     Edge 32, Type (0, 0), BuildingBlock: MIFKUJ_clean_linker_0, # of connection points: 2
#     Edge 33, Type (0, 0), BuildingBlock: MIFKUJ_clean_linker_0, # of connection points: 2
#     Edge 34, Type (0, 0), BuildingBlock: MIFKUJ_clean_linker_0, # of connection points: 2
#     Edge 35, Type (0, 0), BuildingBlock: MIFKUJ_clean_linker_0, # of connection points: 2
# Relax obj value: 0.136
# Max RMSD: 0.111
# Mean RMSD: 0.111
data_MOF--net-can--node1-UXUYUI_clean_sbu_0--edge1-MIFKUJ_clean_linker_0
_symmetry_space_group_name_H-M    P1
_symmetry_Int_Tables_number       1
_symmetry_cell_setting            triclinic
loop_
_symmetry_equiv_pos_as_xyz
'x, y, z'
_cell_length_a     103.49909
_cell_length_b     103.49126
_cell_length_c     45.298886
_cell_angle_alpha  89.998119
_cell_angle_beta   89.999407
_cell_angle_gamma 119.98786
loop_
_atom_site_label
_atom_site_type_symbol
_atom_site_fract_x
_atom_site_fract_y
_atom_site_fract_z
_atom_type_partial_charge
Li0 Li 0.08027 0.42536 0.24968 0.0
Li1 Li 0.06816 0.40228 0.27842 0.0
Li2 Li 0.09113 0.40949 0.25089 0.0
Li3 Li 0.06742 0.40099 0.22562 0.0
C4 C 0.09999 0.42366 0.30212 0.0
N5 N 0.12438 0.4301 0.33704 0.0
C6 C 0.09818 0.41555 0.32798 0.0
C7 C 0.11419 0.43511 0.29413 0.0
C8 C 0.11065 0.41898 0.34533 0.0
C9 C 0.12639 0.43817 0.31203 0.0
C10 C 0.0469 0.40838 0.26693 0.0
C11 C 0.02276 0.39246 0.28879 0.0
N12 N 0.02333 0.40458 0.30178 0.0
C13 C 0.04723 0.42068 0.28047 0.0
C14 C 0.03455 0.39415 0.27103 0.0
C15 C 0.0352 0.41852 0.298 0.0
C16 C 0.07579 0.44829 0.22832 0.0
N17 N 0.084 0.44528 0.24762 0.0
C18 C 0.09658 0.4705 0.26466 0.0
C19 C 0.09424 0.45599 0.26567 0.0
C20 C 0.08827 0.47395 0.24491 0.0
C21 C 0.07781 0.46263 0.22647 0.0
H22 H 0.06752 0.43945 0.21465 0.0
H23 H 0.10046 0.45325 0.28108 0.0
C24 C 0.05117 0.37922 0.32024 0.0
N25 N 0.05786 0.39406 0.31439 0.0
C26 C 0.04349 0.37358 0.34678 0.0
C27 C 0.04984 0.39863 0.36065 0.0
C28 C 0.05748 0.40378 0.33404 0.0
C29 C 0.04271 0.38333 0.3674 0.0
H30 H 0.05182 0.37178 0.30434 0.0
H31 H 0.06303 0.41555 0.32885 0.0
C32 C 0.09262 0.43025 0.19767 0.0
N33 N 0.10294 0.45524 0.16228 0.0
C34 C 0.08379 0.43055 0.17463 0.0
C35 C 0.10672 0.44264 0.20264 0.0
C36 C 0.08921 0.44329 0.15698 0.0
C37 C 0.11173 0.45518 0.18454 0.0
C38 C 0.06782 0.37682 0.23755 0.0
C39 C 0.07769 0.37477 0.21975 0.0
C40 C 0.05267 0.36606 0.23769 0.0
C41 C 0.07219 0.36199 0.20224 0.0
C42 C 0.04761 0.35344 0.21983 0.0
N43 N 0.0574 0.35168 0.20262 0.0
C44 C 0.11211 0.40204 0.27301 0.0
C45 C 0.1187 0.41498 0.22735 0.0
C46 C 0.12544 0.40175 0.2735 0.0
N47 N 0.10916 0.40885 0.25046 0.0
C48 C 0.13205 0.41471 0.22667 0.0
C49 C 0.13559 0.40816 0.25012 0.0
H50 H 0.10411 0.39688 0.29068 0.0
H51 H 0.11593 0.42002 0.20939 0.0
C52 C 0.04148 0.3856 0.18978 0.0
N53 N 0.05641 0.39091 0.19131 0.0
C54 C 0.03376 0.3794 0.16354 0.0
C55 C 0.05694 0.38417 0.14107 0.0
C56 C 0.06416 0.39012 0.16783 0.0
C57 C 0.04157 0.37891 0.13862 0.0
H58 H 0.03563 0.38655 0.20863 0.0
H59 H 0.07606 0.39451 0.16968 0.0
O60 O 0.08794 0.42036 0.28465 0.0
O61 O 0.05868 0.41022 0.2501 0.0
O62 O 0.08739 0.41802 0.21562 0.0
O63 O 0.07291 0.38946 0.2542 0.0
H64 H 0.0873 0.40661 0.33446 0.0
H65 H 0.11581 0.44144 0.27411 0.0
H66 H 0.10942 0.41275 0.36532 0.0
H67 H 0.13745 0.44692 0.30599 0.0
H68 H 0.0132 0.3815 0.29235 0.0
H69 H 0.05672 0.43176 0.27777 0.0
H70 H 0.03419 0.38447 0.26112 0.0
H71 H 0.03533 0.42794 0.30869 0.0
H72 H 0.10479 0.47891 0.27916 0.0
H73 H 0.07098 0.46474 0.21131 0.0
H74 H 0.03836 0.36174 0.35121 0.0
H75 H 0.04936 0.40656 0.37556 0.0
H76 H 0.07278 0.42115 0.17067 0.0
H77 H 0.11366 0.44264 0.22049 0.0
H78 H 0.08247 0.4437 0.13917 0.0
H79 H 0.12258 0.46487 0.18825 0.0
H80 H 0.08943 0.38303 0.21924 0.0
H81 H 0.04487 0.36755 0.25113 0.0
H82 H 0.07968 0.36028 0.18826 0.0
H83 H 0.0359 0.34507 0.21956 0.0
H84 H 0.12771 0.3964 0.29173 0.0
H85 H 0.13962 0.41976 0.20826 0.0
H86 H 0.02194 0.37562 0.16241 0.0
H87 H 0.06332 0.38389 0.12238 0.0
Li88 Li 0.65302 0.07679 0.74904 0.0
Li89 Li 0.66564 0.06448 0.77261 0.0
Li90 Li 0.68061 0.08831 0.74908 0.0
Li91 Li 0.66549 0.06658 0.72079 0.0
C92 C 0.66332 0.082 0.81245 0.0
N93 N 0.65591 0.07682 0.87159 0.0
C94 C 0.64916 0.07065 0.82099 0.0
C95 C 0.67365 0.0908 0.834 0.0
C96 C 0.64564 0.06818 0.85099 0.0
C97 C 0.6697 0.08799 0.86378 0.0
C98 C 0.64008 0.0427 0.73187 0.0
C99 C 0.63697 0.01905 0.71603 0.0
N100 N 0.62523 0.01685 0.69893 0.0
C101 C 0.62792 0.04015 0.71434 0.0
C102 C 0.64461 0.03204 0.73288 0.0
C103 C 0.62059 0.02703 0.69777 0.0
C104 C 0.6291 0.07828 0.72385 0.0
N105 N 0.63688 0.08066 0.74937 0.0
C106 C 0.62134 0.0883 0.7738 0.0
C107 C 0.63347 0.08591 0.77393 0.0
C108 C 0.61285 0.08555 0.74798 0.0
C109 C 0.61698 0.08068 0.72263 0.0
H110 H 0.63231 0.07447 0.70444 0.0
H111 H 0.64014 0.08828 0.79362 0.0
C112 C 0.6761 0.05813 0.82536 0.0
N113 N 0.66462 0.05273 0.80578 0.0
C114 C 0.67461 0.05066 0.85196 0.0
C115 C 0.64982 0.03185 0.8369 0.0
C116 C 0.65171 0.03977 0.81087 0.0
C117 C 0.6612 0.03745 0.85826 0.0
H118 H 0.68615 0.0686 0.82088 0.0
H119 H 0.64264 0.03587 0.79524 0.0
C120 C 0.66782 0.09945 0.70902 0.0
N121 N 0.66924 0.12619 0.69566 0.0
C122 C 0.66727 0.10328 0.67965 0.0
C123 C 0.66905 0.10921 0.73162 0.0
C124 C 0.66802 0.11685 0.67334 0.0
C125 C 0.66976 0.12268 0.7244 0.0
C126 C 0.695 0.07381 0.72907 0.0
C127 C 0.69732 0.08148 0.70241 0.0
C128 C 0.70538 0.06982 0.73854 0.0
C129 C 0.71001 0.08503 0.68568 0.0
C130 C 0.71793 0.07357 0.72117 0.0
N131 N 0.71996 0.08103 0.69532 0.0
C132 C 0.70724 0.11009 0.77592 0.0
C133 C 0.70433 0.11554 0.72638 0.0
C134 C 0.72086 0.12339 0.77804 0.0
N135 N 0.69917 0.10657 0.75055 0.0
C136 C 0.71786 0.12892 0.72751 0.0
C137 C 0.72627 0.13307 0.75367 0.0
H138 H 0.70311 0.10252 0.79446 0.0
H139 H 0.69804 0.11227 0.70607 0.0
C140 C 0.65566 0.05877 0.66285 0.0
N141 N 0.66366 0.05672 0.68424 0.0
C142 C 0.65283 0.05115 0.63613 0.0
C143 C 0.6668 0.03968 0.65368 0.0
C144 C 0.66934 0.04751 0.68015 0.0
C145 C 0.6583 0.04133 0.63138 0.0
H146 H 0.65122 0.06611 0.66687 0.0
H147 H 0.6755 0.04595 0.69773 0.0
O148 O 0.66712 0.08421 0.78317 0.0
O149 O 0.64768 0.05566 0.74762 0.0
O150 O 0.66696 0.08611 0.71534 0.0
O151 O 0.68274 0.07024 0.74609 0.0
H152 H 0.64104 0.06367 0.8046 0.0
H153 H 0.6846 0.09971 0.82786 0.0
H154 H 0.63478 0.05934 0.85789 0.0
H155 H 0.67761 0.09469 0.88069 0.0
H156 H 0.64043 0.01077 0.7164 0.0
H157 H 0.62423 0.04823 0.71338 0.0
H158 H 0.6541 0.03391 0.74612 0.0
H159 H 0.61122 0.02495 0.68396 0.0
H160 H 0.61868 0.09235 0.79363 0.0
H161 H 0.61071 0.07842 0.70229 0.0
H162 H 0.68361 0.05551 0.86787 0.0
H163 H 0.6394 0.02159 0.84047 0.0
H164 H 0.66629 0.09583 0.66191 0.0
H165 H 0.66947 0.10649 0.75449 0.0
H166 H 0.66762 0.11996 0.6507 0.0
H167 H 0.67073 0.13034 0.74166 0.0
H168 H 0.68945 0.08467 0.69462 0.0
H169 H 0.70375 0.06389 0.75915 0.0
H170 H 0.71194 0.09097 0.66502 0.0
H171 H 0.72605 0.07054 0.72825 0.0
H172 H 0.72699 0.12614 0.79863 0.0
H173 H 0.72179 0.13586 0.70796 0.0
H174 H 0.64638 0.0529 0.6194 0.0
H175 H 0.67107 0.03209 0.65103 0.0
Li176 Li 0.59878 0.665 0.27849 0.0
Li177 Li 0.57531 0.65306 0.25112 0.0
Li178 Li 0.59932 0.66492 0.22556 0.0
Li179 Li 0.59044 0.67976 0.25105 0.0
C180 C 0.59362 0.63806 0.26835 0.0
N181 N 0.59915 0.61988 0.30455 0.0
C182 C 0.5821 0.62695 0.28519 0.0
C183 C 0.60793 0.63989 0.26986 0.0
C184 C 0.58513 0.61786 0.30334 0.0
C185 C 0.61051 0.63061 0.28834 0.0
C186 C 0.57727 0.67515 0.30242 0.0
C187 C 0.56255 0.68687 0.31187 0.0
N188 N 0.57136 0.69405 0.33547 0.0
C189 C 0.58616 0.68264 0.3268 0.0
C190 C 0.56533 0.67724 0.29492 0.0
C191 C 0.58299 0.69214 0.34324 0.0
C192 C 0.62301 0.67103 0.317 0.0
N193 N 0.60793 0.66369 0.31386 0.0
C194 C 0.60465 0.65307 0.36197 0.0
C195 C 0.59874 0.65491 0.3357 0.0
C196 C 0.62019 0.66039 0.36584 0.0
C197 C 0.62942 0.66949 0.34295 0.0
H198 H 0.63004 0.67804 0.29937 0.0
H199 H 0.58678 0.64924 0.33255 0.0
C200 C 0.55361 0.62458 0.23277 0.0
N201 N 0.55574 0.63622 0.25004 0.0
C202 C 0.53966 0.61168 0.23146 0.0
C203 C 0.53027 0.62302 0.26556 0.0
C204 C 0.54445 0.6357 0.26632 0.0
C205 C 0.52778 0.61076 0.24812 0.0
H206 H 0.56283 0.62531 0.22018 0.0
H207 H 0.5465 0.64503 0.28016 0.0
C208 C 0.62339 0.69032 0.23666 0.0
N209 N 0.64858 0.70616 0.20231 0.0
C210 C 0.62559 0.70294 0.22112 0.0
C211 C 0.63403 0.6858 0.23484 0.0
C212 C 0.6384 0.71079 0.20387 0.0
C213 C 0.64668 0.69394 0.2173 0.0
C214 C 0.56949 0.659 0.19875 0.0
C215 C 0.56996 0.65007 0.17609 0.0
C216 C 0.55636 0.65936 0.20387 0.0
C217 C 0.55723 0.64161 0.15896 0.0
C218 C 0.54386 0.65071 0.18629 0.0
N219 N 0.54455 0.64208 0.16439 0.0
C220 C 0.61225 0.65262 0.18782 0.0
C221 C 0.61213 0.67396 0.16919 0.0
C222 C 0.61856 0.6512 0.16165 0.0
N223 N 0.60917 0.66385 0.19103 0.0
C224 C 0.61848 0.673 0.1427 0.0
C225 C 0.62163 0.6614 0.13853 0.0
H226 H 0.60945 0.64453 0.20525 0.0
H227 H 0.60931 0.68263 0.1722 0.0
C228 C 0.59905 0.70874 0.27074 0.0
N229 N 0.59046 0.69812 0.2507 0.0
C230 C 0.59912 0.72225 0.27166 0.0
C231 C 0.58183 0.7138 0.2307 0.0
C232 C 0.58204 0.70042 0.23068 0.0
C233 C 0.59039 0.72491 0.25149 0.0
H234 H 0.60577 0.70665 0.28616 0.0
H235 H 0.57554 0.6919 0.21463 0.0
O236 O 0.59097 0.64732 0.25102 0.0
O237 O 0.58036 0.66602 0.28572 0.0
O238 O 0.6108 0.68234 0.25328 0.0
O239 O 0.58172 0.66708 0.21627 0.0
H240 H 0.571 0.62546 0.28458 0.0
H241 H 0.61701 0.64856 0.25726 0.0
H242 H 0.57634 0.60926 0.31659 0.0
H243 H 0.62156 0.63198 0.28988 0.0
H244 H 0.55343 0.68869 0.30617 0.0
H245 H 0.59553 0.68128 0.33278 0.0
H246 H 0.55846 0.67172 0.2759 0.0
H247 H 0.58982 0.69805 0.36208 0.0
H248 H 0.59712 0.64579 0.37885 0.0
H249 H 0.64145 0.67547 0.34518 0.0
H250 H 0.53817 0.60254 0.2175 0.0
H251 H 0.52145 0.62268 0.27901 0.0
H252 H 0.61744 0.70656 0.22212 0.0
H253 H 0.63243 0.67598 0.24646 0.0
H254 H 0.64023 0.72054 0.19164 0.0
H255 H 0.65495 0.6905 0.21552 0.0
H256 H 0.57997 0.64954 0.17195 0.0
H257 H 0.55574 0.66606 0.22154 0.0
H258 H 0.55741 0.6346 0.14142 0.0
H259 H 0.53359 0.6508 0.19015 0.0
H260 H 0.62053 0.64192 0.15921 0.0
H261 H 0.62077 0.68118 0.1256 0.0
H262 H 0.60578 0.73043 0.28824 0.0
H263 H 0.57517 0.71548 0.21436 0.0
Li264 Li 0.921 0.57483 0.74919 0.0
Li265 Li 0.9332 0.59869 0.77556 0.0
Li266 Li 0.91001 0.59126 0.74621 0.0
Li267 Li 0.93416 0.59954 0.7225 0.0
C268 C 0.90143 0.5704 0.79747 0.0
N269 N 0.87837 0.54803 0.82953 0.0
C270 C 0.9035 0.56818 0.82714 0.0
C271 C 0.88755 0.56137 0.78427 0.0
C272 C 0.89174 0.55677 0.84293 0.0
C273 C 0.87605 0.5501 0.80079 0.0
C274 C 0.95499 0.59289 0.76416 0.0
C275 C 0.97986 0.60982 0.78167 0.0
N276 N 0.98 0.59832 0.79591 0.0
C277 C 0.95542 0.58121 0.77873 0.0
C278 C 0.96734 0.60729 0.76539 0.0
C279 C 0.96816 0.58419 0.79475 0.0
C280 C 0.91786 0.54886 0.72291 0.0
N281 N 0.91714 0.55484 0.74915 0.0
C282 C 0.91206 0.53256 0.77462 0.0
C283 C 0.91441 0.54706 0.77479 0.0
C284 C 0.91274 0.52608 0.74784 0.0
C285 C 0.91564 0.53441 0.72172 0.0
H286 H 0.92026 0.55538 0.70292 0.0
H287 H 0.91439 0.55222 0.79548 0.0
C288 C 0.94841 0.62229 0.81691 0.0
N289 N 0.94339 0.60763 0.81124 0.0
C290 C 0.95578 0.62866 0.8434 0.0
C291 C 0.95268 0.60474 0.85752 0.0
C292 C 0.94529 0.59883 0.83094 0.0
C293 C 0.95798 0.61984 0.86418 0.0
H294 H 0.94659 0.62899 0.80098 0.0
H295 H 0.94108 0.58719 0.82593 0.0
C296 C 0.90365 0.57326 0.69368 0.0
N297 N 0.88142 0.55654 0.65335 0.0
C298 C 0.90385 0.57898 0.66563 0.0
C299 C 0.89228 0.5589 0.70098 0.0
C300 C 0.89247 0.5704 0.64562 0.0
C301 C 0.88111 0.55065 0.68036 0.0
C302 C 0.9339 0.62459 0.73567 0.0
C303 C 0.92422 0.62823 0.7212 0.0
C304 C 0.94921 0.63477 0.73588 0.0
C305 C 0.93007 0.64195 0.70676 0.0
C306 C 0.95463 0.64837 0.72113 0.0
N307 N 0.94503 0.65164 0.70698 0.0
C308 C 0.88594 0.59249 0.77138 0.0
C309 C 0.88514 0.59134 0.71913 0.0
C310 C 0.87249 0.59254 0.77222 0.0
N311 N 0.89186 0.59168 0.74513 0.0
C312 C 0.87167 0.59137 0.71892 0.0
C313 C 0.86512 0.59188 0.74574 0.0
H314 H 0.89168 0.59305 0.79172 0.0
H315 H 0.89024 0.59112 0.69853 0.0
C316 C 0.95877 0.60895 0.68448 0.0
N317 N 0.94595 0.60931 0.68866 0.0
C318 C 0.96742 0.61535 0.65931 0.0
C319 C 0.94959 0.62249 0.64329 0.0
C320 C 0.94125 0.61589 0.66871 0.0
C321 C 0.96282 0.62217 0.63818 0.0
H322 H 0.96213 0.60343 0.70043 0.0
H323 H 0.93091 0.61585 0.67232 0.0
O324 O 0.91287 0.58154 0.78173 0.0
O325 O 0.94253 0.59024 0.74875 0.0
O326 O 0.91479 0.58151 0.71346 0.0
O327 O 0.92838 0.61116 0.74975 0.0
H328 H 0.9141 0.57516 0.83786 0.0
H329 H 0.88558 0.56319 0.76166 0.0
H330 H 0.89322 0.55488 0.86585 0.0
H331 H 0.86526 0.54303 0.79081 0.0
H332 H 0.98946 0.62092 0.78299 0.0
H333 H 0.94599 0.57 0.77789 0.0
H334 H 0.96722 0.61642 0.75405 0.0
H335 H 0.96862 0.57528 0.8063 0.0
H336 H 0.91015 0.52663 0.79532 0.0
H337 H 0.91618 0.5298 0.70059 0.0
H338 H 0.95948 0.64028 0.84774 0.0
H339 H 0.95432 0.59755 0.87256 0.0
H340 H 0.91264 0.58998 0.6594 0.0
H341 H 0.89216 0.55405 0.72216 0.0
H342 H 0.89244 0.57476 0.62393 0.0
H343 H 0.87224 0.53954 0.68578 0.0
H344 H 0.91233 0.62052 0.72098 0.0
H345 H 0.95684 0.63217 0.74714 0.0
H346 H 0.92272 0.64489 0.69533 0.0
H347 H 0.96646 0.65631 0.72093 0.0
H348 H 0.86799 0.59324 0.79337 0.0
H349 H 0.86636 0.59079 0.69798 0.0
H350 H 0.97738 0.61458 0.65608 0.0
H351 H 0.94568 0.62774 0.62778 0.0
Li352 Li 0.33224 0.93393 0.28023 0.0
Li353 Li 0.34402 0.92112 0.25354 0.0
Li354 Li 0.33232 0.93273 0.22656 0.0
Li355 Li 0.31738 0.90994 0.25181 0.0
C356 C 0.35993 0.95395 0.23677 0.0
N357 N 0.3795 0.9766 0.19988 0.0
C358 C 0.36894 0.95153 0.21719 0.0
C359 C 0.36087 0.96791 0.23757 0.0
C360 C 0.37876 0.96311 0.19873 0.0
C361 C 0.37084 0.97921 0.21876 0.0
C362 C 0.33661 0.90873 0.30677 0.0
C363 C 0.34415 0.89089 0.32019 0.0
N364 N 0.35086 0.899 0.34483 0.0
C365 C 0.34356 0.91686 0.33227 0.0
C366 C 0.33687 0.8956 0.30072 0.0
C367 C 0.3507 0.91176 0.35122 0.0
C368 C 0.32226 0.9373 0.33574 0.0
N369 N 0.33286 0.94455 0.31474 0.0
C370 C 0.34481 0.96649 0.34455 0.0
C371 C 0.34402 0.95885 0.31862 0.0
C372 C 0.33419 0.95918 0.36685 0.0
C373 C 0.3228 0.94441 0.3623 0.0
H374 H 0.31359 0.92587 0.33206 0.0
H375 H 0.35248 0.96422 0.30188 0.0
C376 C 0.3626 0.91052 0.23165 0.0
N377 N 0.36059 0.91787 0.25446 0.0
C378 C 0.37491 0.90842 0.23125 0.0
C379 C 0.38281 0.92141 0.27792 0.0
C380 C 0.37051 0.92352 0.27712 0.0
C381 C 0.38514 0.91384 0.25468 0.0
H382 H 0.35478 0.90651 0.21349 0.0
H383 H 0.36892 0.92976 0.29446 0.0
C384 C 0.30884 0.93583 0.24196 0.0
N385 N 0.29604 0.95173 0.21989 0.0
C386 C 0.30116 0.93173 0.2151 0.0
C387 C 0.30993 0.94797 0.25768 0.0
C388 C 0.2948 0.93993 0.20428 0.0
C389 C 0.3034 0.95587 0.24613 0.0
C390 C 0.32241 0.90067 0.20304 0.0
C391 C 0.31331 0.9006 0.18016 0.0
C392 C 0.32213 0.88744 0.21065 0.0
C393 C 0.30403 0.88727 0.16535 0.0
C394 C 0.31267 0.87433 0.19536 0.0
N395 N 0.30389 0.87452 0.17322 0.0
C396 C 0.33932 0.93957 0.16697 0.0
C397 C 0.33374 0.95661 0.19066 0.0
C398 C 0.34237 0.94751 0.1406 0.0
N399 N 0.33494 0.9441 0.19126 0.0
C400 C 0.33662 0.96486 0.16465 0.0
C401 C 0.34105 0.96035 0.13921 0.0
H402 H 0.3407 0.9299 0.1682 0.0
H403 H 0.33093 0.96044 0.2105 0.0
C404 C 0.29711 0.88053 0.27122 0.0
N405 N 0.29892 0.89147 0.25221 0.0
C406 C 0.28387 0.8668 0.27127 0.0
C407 C 0.27448 0.87596 0.23254 0.0
C408 C 0.28788 0.88949 0.23331 0.0
C409 C 0.27235 0.86436 0.25165 0.0
H410 H 0.30592 0.88244 0.28641 0.0
H411 H 0.28955 0.89834 0.21849 0.0
O412 O 0.34992 0.94259 0.25438 0.0
O413 O 0.32968 0.91362 0.28779 0.0
O414 O 0.31503 0.92788 0.25315 0.0
O415 O 0.33134 0.91355 0.21826 0.0
H416 H 0.36822 0.94076 0.21591 0.0
H417 H 0.35372 0.9699 0.25199 0.0
H418 H 0.38574 0.96136 0.18338 0.0
H419 H 0.3716 0.99002 0.21899 0.0
H420 H 0.34451 0.88081 0.31566 0.0
H421 H 0.3436 0.92708 0.33728 0.0
H422 H 0.33168 0.88922 0.281 0.0
H423 H 0.35617 0.91798 0.37097 0.0
H424 H 0.35388 0.97781 0.34756 0.0
H425 H 0.31445 0.93845 0.3791 0.0
H426 H 0.37641 0.90259 0.21289 0.0
H427 H 0.39063 0.92598 0.29609 0.0
H428 H 0.30041 0.92256 0.20237 0.0
H429 H 0.31577 0.95127 0.27855 0.0
H430 H 0.28895 0.93696 0.18341 0.0
H431 H 0.30419 0.9653 0.25803 0.0
H432 H 0.31322 0.91067 0.17417 0.0
H433 H 0.32903 0.88726 0.22837 0.0
H434 H 0.29687 0.88704 0.14771 0.0
H435 H 0.31228 0.864 0.20115 0.0
H436 H 0.34572 0.94361 0.12148 0.0
H437 H 0.33577 0.97488 0.16467 0.0
H438 H 0.28261 0.85827 0.28674 0.0
H439 H 0.26598 0.87452 0.21683 0.0
Li440 Li 0.42365 0.34561 0.75378 0.0
Li441 Li 0.39853 0.33319 0.77516 0.0
Li442 Li 0.40829 0.31892 0.75017 0.0
Li443 Li 0.40134 0.33481 0.72249 0.0
C444 C 0.42687 0.33702 0.80683 0.0
N445 N 0.44992 0.35064 0.84703 0.0
C446 C 0.4253 0.34411 0.83172 0.0
C447 C 0.44011 0.33678 0.80248 0.0
C448 C 0.43709 0.35094 0.85178 0.0
C449 C 0.45165 0.34376 0.82302 0.0
C450 C 0.40657 0.36183 0.73569 0.0
C451 C 0.3909 0.3702 0.71325 0.0
N452 N 0.40323 0.38221 0.70197 0.0
C453 C 0.4191 0.37429 0.72398 0.0
C454 C 0.39236 0.35979 0.73043 0.0
C455 C 0.41717 0.38447 0.70697 0.0
C456 C 0.45374 0.36412 0.73691 0.0
N457 N 0.44334 0.36206 0.75752 0.0
C458 C 0.46067 0.38448 0.78234 0.0
C459 C 0.44648 0.37196 0.77984 0.0
C460 C 0.47167 0.38705 0.76119 0.0
C461 C 0.46802 0.37661 0.73829 0.0
H462 H 0.45084 0.35626 0.71899 0.0
H463 H 0.43789 0.37021 0.79554 0.0
C464 C 0.38307 0.32283 0.82918 0.0
N465 N 0.38715 0.33342 0.80787 0.0
C466 C 0.37556 0.32335 0.85436 0.0
C467 C 0.37657 0.34563 0.83511 0.0
C468 C 0.38402 0.34465 0.81029 0.0
C469 C 0.37237 0.33497 0.85774 0.0
H470 H 0.38591 0.31415 0.82685 0.0
H471 H 0.38765 0.35308 0.79332 0.0
C472 C 0.42383 0.32542 0.7008 0.0
N473 N 0.43161 0.30822 0.66674 0.0
C474 C 0.41601 0.3188 0.67484 0.0
C475 C 0.43568 0.3234 0.70932 0.0
C476 C 0.42011 0.31013 0.65793 0.0
C477 C 0.43941 0.31462 0.69185 0.0
C478 C 0.37487 0.30839 0.75902 0.0
C479 C 0.37201 0.29554 0.7745 0.0
C480 C 0.36409 0.31275 0.75825 0.0
C481 C 0.35841 0.28731 0.78919 0.0
C482 C 0.35064 0.30423 0.77328 0.0
N483 N 0.3481 0.2918 0.78831 0.0
C484 C 0.4151 0.29724 0.77113 0.0
C485 C 0.40089 0.2908 0.72704 0.0
C486 C 0.41517 0.28378 0.77059 0.0
N487 N 0.40815 0.30051 0.74941 0.0
C488 C 0.4008 0.27729 0.72544 0.0
C489 C 0.40803 0.27362 0.7474 0.0
H490 H 0.42052 0.30503 0.78898 0.0
H491 H 0.39526 0.29362 0.71031 0.0
C492 C 0.40334 0.34805 0.66748 0.0
N493 N 0.39375 0.3371 0.68595 0.0
C494 C 0.39837 0.35027 0.64037 0.0
C495 C 0.37387 0.3295 0.65125 0.0
C496 C 0.37928 0.32782 0.67839 0.0
C497 C 0.38345 0.34089 0.6318 0.0
H498 H 0.41485 0.35511 0.67392 0.0
H499 H 0.37197 0.31903 0.69331 0.0
O500 O 0.41552 0.33042 0.78675 0.0
O501 O 0.4082 0.35161 0.75201 0.0
O502 O 0.41982 0.33372 0.71794 0.0
O503 O 0.38822 0.31674 0.74495 0.0
H504 H 0.41517 0.34447 0.83539 0.0
H505 H 0.44153 0.3314 0.78328 0.0
H506 H 0.43607 0.35652 0.87107 0.0
H507 H 0.462 0.34374 0.81983 0.0
H508 H 0.37997 0.3687 0.70882 0.0
H509 H 0.43017 0.37604 0.72775 0.0
H510 H 0.38255 0.35015 0.73918 0.0
H511 H 0.42675 0.39413 0.69765 0.0
H512 H 0.46296 0.39207 0.8006 0.0
H513 H 0.47597 0.37824 0.7211 0.0
H514 H 0.37243 0.31484 0.87112 0.0
H515 H 0.37461 0.35494 0.837 0.0
H516 H 0.40678 0.3202 0.66796 0.0
H517 H 0.44183 0.32843 0.72937 0.0
H518 H 0.41411 0.30487 0.63787 0.0
H519 H 0.44849 0.31287 0.69828 0.0
H520 H 0.38026 0.29204 0.7754 0.0
H521 H 0.36616 0.3227 0.74646 0.0
H522 H 0.35606 0.27738 0.80137 0.0
H523 H 0.34223 0.30753 0.77304 0.0
H524 H 0.42059 0.28132 0.78835 0.0
H525 H 0.39529 0.26991 0.70699 0.0
H526 H 0.40615 0.35934 0.62644 0.0
H527 H 0.36237 0.32181 0.64544 0.0
Li528 Li 0.59517 0.93099 0.27333 0.0
Li529 Li 0.58717 0.90757 0.24748 0.0
Li530 Li 0.59504 0.93112 0.21876 0.0
Li531 Li 0.57087 0.91815 0.2449 0.0
C532 C 0.62201 0.93464 0.25197 0.0
N533 N 0.65205 0.95205 0.26456 0.0
C534 C 0.6297 0.92831 0.2654 0.0
C535 C 0.62966 0.94976 0.24452 0.0
C536 C 0.64487 0.93732 0.27172 0.0
C537 C 0.64482 0.9584 0.25117 0.0
C538 C 0.57211 0.89927 0.29854 0.0
C539 C 0.55413 0.87378 0.31058 0.0
N540 N 0.56261 0.87447 0.33413 0.0
C541 C 0.58056 0.8998 0.32305 0.0
C542 C 0.55872 0.88622 0.2924 0.0
C543 C 0.5756 0.88712 0.3407 0.0
C544 C 0.59909 0.95152 0.31716 0.0
N545 N 0.60412 0.94232 0.308 0.0
C546 C 0.62017 0.94877 0.35001 0.0
C547 C 0.61441 0.94075 0.32384 0.0
C548 C 0.61519 0.9584 0.35999 0.0
C549 C 0.60459 0.9598 0.34301 0.0
H550 H 0.59065 0.95231 0.30453 0.0
H551 H 0.61786 0.933 0.31664 0.0
C552 C 0.5807 0.87909 0.22726 0.0
N553 N 0.58768 0.88944 0.24878 0.0
C554 C 0.58073 0.86562 0.22801 0.0
C555 C 0.5954 0.87384 0.27273 0.0
C556 C 0.59506 0.88714 0.27114 0.0
C557 C 0.58811 0.86285 0.25102 0.0
H558 H 0.5752 0.88131 0.20937 0.0
H559 H 0.60063 0.89561 0.28783 0.0
C560 C 0.58897 0.95361 0.24033 0.0
N561 N 0.59433 0.98207 0.22833 0.0
C562 C 0.57777 0.95571 0.22804 0.0
C563 C 0.60281 0.96602 0.24702 0.0
C564 C 0.58072 0.97018 0.22197 0.0
C565 C 0.60533 0.9803 0.24067 0.0
C566 C 0.56637 0.90334 0.19241 0.0
C567 C 0.56702 0.90914 0.16423 0.0
C568 C 0.55377 0.88997 0.20079 0.0
C569 C 0.55495 0.90157 0.14504 0.0
C570 C 0.54193 0.88275 0.18098 0.0
N571 N 0.54275 0.88865 0.15376 0.0
C572 C 0.61673 0.94232 0.17281 0.0
C573 C 0.59829 0.94946 0.17028 0.0
C574 C 0.6234 0.95023 0.14691 0.0
N575 N 0.60447 0.94218 0.184 0.0
C576 C 0.60463 0.95757 0.14459 0.0
C577 C 0.61731 0.95798 0.13239 0.0
H578 H 0.62125 0.93618 0.18384 0.0
H579 H 0.58826 0.94875 0.17897 0.0
C580 C 0.54367 0.91158 0.27112 0.0
N581 N 0.55093 0.91455 0.24483 0.0
C582 C 0.52939 0.90979 0.27275 0.0
C583 C 0.53018 0.91381 0.22008 0.0
C584 C 0.54454 0.9158 0.21959 0.0
C585 C 0.52243 0.91095 0.24699 0.0
H586 H 0.54913 0.91095 0.29097 0.0
H587 H 0.55068 0.91864 0.19911 0.0
O588 O 0.60713 0.92599 0.24578 0.0
O589 O 0.57689 0.91151 0.28077 0.0
O590 O 0.58623 0.9395 0.24642 0.0
O591 O 0.57806 0.91066 0.21154 0.0
H592 H 0.62402 0.9166 0.27103 0.0
H593 H 0.62399 0.95476 0.23344 0.0
H594 H 0.65093 0.93259 0.28229 0.0
H595 H 0.65086 0.97013 0.24558 0.0
H596 H 0.54382 0.86357 0.30599 0.0
H597 H 0.59092 0.90983 0.32819 0.0
H598 H 0.55191 0.88572 0.27385 0.0
H599 H 0.58209 0.88732 0.3596 0.0
H600 H 0.62812 0.94713 0.36265 0.0
H601 H 0.60055 0.9672 0.34963 0.0
H602 H 0.57521 0.85757 0.21052 0.0
H603 H 0.60114 0.87211 0.29096 0.0
H604 H 0.56694 0.94628 0.22298 0.0
H605 H 0.61146 0.96467 0.25741 0.0
H606 H 0.57219 0.97195 0.21223 0.0
H607 H 0.61601 0.98999 0.24569 0.0
H608 H 0.57673 0.91937 0.15723 0.0
H609 H 0.55314 0.88526 0.22238 0.0
H610 H 0.55528 0.90597 0.12321 0.0
H611 H 0.53208 0.87244 0.18725 0.0
H612 H 0.63301 0.95001 0.1381 0.0
H613 H 0.59961 0.96349 0.13445 0.0
H614 H 0.52407 0.90793 0.29412 0.0
H615 H 0.52529 0.91461 0.19953 0.0
Li616 Li 0.66609 0.59826 0.77858 0.0
Li617 Li 0.67944 0.58921 0.75356 0.0
Li618 Li 0.66517 0.59809 0.72515 0.0
Li619 Li 0.6526 0.57344 0.75543 0.0
C620 C 0.68989 0.62362 0.76198 0.0
N621 N 0.70435 0.65197 0.78591 0.0
C622 C 0.6992 0.62676 0.78647 0.0
C623 C 0.68804 0.63495 0.74946 0.0
C624 C 0.70637 0.64114 0.79832 0.0
C625 C 0.69543 0.6492 0.76192 0.0
C626 C 0.6735 0.57391 0.80402 0.0
C627 C 0.67531 0.55251 0.81896 0.0
N628 N 0.68774 0.56159 0.8349 0.0
C629 C 0.68619 0.58302 0.82079 0.0
C630 C 0.66792 0.55852 0.80326 0.0
C631 C 0.69327 0.57659 0.83614 0.0
C632 C 0.66386 0.60177 0.83943 0.0
N633 N 0.6652 0.60859 0.81306 0.0
C634 C 0.66358 0.62836 0.83687 0.0
C635 C 0.66507 0.62165 0.81136 0.0
C636 C 0.66208 0.62151 0.86441 0.0
C637 C 0.66231 0.60805 0.86547 0.0
H638 H 0.66365 0.59124 0.84024 0.0
H639 H 0.66581 0.62673 0.79018 0.0
C640 C 0.71055 0.60176 0.74823 0.0
N641 N 0.69765 0.58862 0.75217 0.0
C642 C 0.72418 0.6021 0.74698 0.0
C643 C 0.71105 0.57535 0.7535 0.0
C644 C 0.69766 0.57552 0.75445 0.0
C645 C 0.72454 0.58878 0.74979 0.0
H646 H 0.71026 0.612 0.74597 0.0
H647 H 0.68728 0.56516 0.75681 0.0
C648 C 0.63972 0.59535 0.76614 0.0
N649 N 0.62367 0.60645 0.79445 0.0
C650 C 0.63108 0.58804 0.7909 0.0
C651 C 0.64012 0.60824 0.75563 0.0
C652 C 0.62309 0.59386 0.80497 0.0
C653 C 0.63192 0.61368 0.77026 0.0
C654 C 0.67345 0.57449 0.70294 0.0
C655 C 0.68498 0.58479 0.68496 0.0
C656 C 0.67038 0.55973 0.70408 0.0
C657 C 0.69337 0.58016 0.66855 0.0
C658 C 0.679 0.55553 0.68729 0.0
N659 N 0.69023 0.56575 0.67005 0.0
C660 C 0.67579 0.61728 0.67548 0.0
C661 C 0.6495 0.60228 0.67941 0.0
C662 C 0.6744 0.62358 0.64925 0.0
N663 N 0.66342 0.60689 0.68993 0.0
C664 C 0.64758 0.60831 0.65335 0.0
C665 C 0.66013 0.61912 0.63791 0.0
H666 H 0.68673 0.62068 0.68439 0.0
H667 H 0.63989 0.59387 0.69127 0.0
C668 C 0.62885 0.54875 0.78336 0.0
N669 N 0.6358 0.55402 0.75701 0.0
C670 C 0.61611 0.53467 0.78511 0.0
C671 C 0.61815 0.53158 0.73269 0.0
C672 C 0.63074 0.54581 0.73189 0.0
C673 C 0.61061 0.52591 0.75952 0.0
H674 H 0.6332 0.55554 0.80298 0.0
H675 H 0.63642 0.55038 0.7112 0.0
O676 O 0.68281 0.60962 0.75002 0.0
O677 O 0.66642 0.58 0.78882 0.0
O678 O 0.64789 0.59002 0.75246 0.0
O679 O 0.66533 0.5789 0.71963 0.0
H680 H 0.70086 0.61816 0.79624 0.0
H681 H 0.68082 0.63271 0.7306 0.0
H682 H 0.71355 0.6437 0.81736 0.0
H683 H 0.69403 0.65805 0.75259 0.0
H684 H 0.67119 0.54063 0.81841 0.0
H685 H 0.69054 0.59492 0.82188 0.0
H686 H 0.65812 0.5513 0.79038 0.0
H687 H 0.70316 0.58351 0.84905 0.0
H688 H 0.66354 0.63877 0.83499 0.0
H689 H 0.66085 0.60219 0.88609 0.0
H690 H 0.73435 0.61271 0.74424 0.0
H691 H 0.71082 0.5648 0.75524 0.0
H692 H 0.63073 0.5781 0.79939 0.0
H693 H 0.64685 0.61411 0.73665 0.0
H694 H 0.61645 0.58839 0.8243 0.0
H695 H 0.63219 0.62369 0.76249 0.0
H696 H 0.68755 0.59628 0.684 0.0
H697 H 0.66158 0.55165 0.71812 0.0
H698 H 0.70239 0.58803 0.65468 0.0
H699 H 0.67682 0.54416 0.68808 0.0
H700 H 0.68435 0.63196 0.63816 0.0
H701 H 0.6364 0.60437 0.64513 0.0
H702 H 0.61068 0.53062 0.80624 0.0
H703 H 0.61414 0.52522 0.71244 0.0
Li704 Li 0.08948 0.67894 0.24684 0.0
Li705 Li 0.06621 0.6641 0.27374 0.0
Li706 Li 0.07807 0.6523 0.2467 0.0
Li707 Li 0.06591 0.66404 0.22069 0.0
C708 C 0.09068 0.65847 0.29864 0.0
N709 N 0.09957 0.64207 0.33248 0.0
C710 C 0.08204 0.65015 0.32265 0.0
C711 C 0.10388 0.65849 0.29192 0.0
C712 C 0.08673 0.64194 0.33949 0.0
C713 C 0.10816 0.6501 0.30925 0.0
C714 C 0.06703 0.68941 0.26257 0.0
C715 C 0.0474 0.69322 0.28139 0.0
N716 N 0.05769 0.70532 0.29669 0.0
C717 C 0.07743 0.70191 0.27838 0.0
C718 C 0.0519 0.68505 0.26394 0.0
C719 C 0.07247 0.7098 0.29553 0.0
C720 C 0.10941 0.70819 0.22758 0.0
N721 N 0.10776 0.69731 0.24661 0.0
C722 C 0.13235 0.7128 0.26548 0.0
C723 C 0.11882 0.69938 0.26552 0.0
C724 C 0.13447 0.72422 0.24587 0.0
C725 C 0.12277 0.72178 0.22675 0.0
H726 H 0.10035 0.70626 0.21299 0.0
H727 H 0.11711 0.69064 0.28077 0.0
C728 C 0.04152 0.65173 0.31271 0.0
N729 N 0.05569 0.66312 0.30883 0.0
C730 C 0.034 0.65039 0.33912 0.0
C731 C 0.05579 0.67263 0.35694 0.0
C732 C 0.06291 0.67347 0.33025 0.0
C733 C 0.04117 0.66087 0.36179 0.0
H734 H 0.03617 0.64346 0.29558 0.0
H735 H 0.07429 0.68225 0.32675 0.0
C736 C 0.09703 0.67454 0.19433 0.0
N737 N 0.12087 0.69381 0.1595 0.0
C738 C 0.09486 0.68194 0.17071 0.0
C739 C 0.11131 0.67687 0.20014 0.0
C740 C 0.10706 0.69164 0.15336 0.0
C741 C 0.12323 0.68669 0.18232 0.0
C742 C 0.04417 0.63677 0.23304 0.0
C743 C 0.0436 0.62467 0.21814 0.0
C744 C 0.03196 0.63905 0.23181 0.0
C745 C 0.03083 0.6151 0.20202 0.0
C746 C 0.01942 0.62926 0.21539 0.0
N747 N 0.01912 0.61759 0.20095 0.0
C748 C 0.07357 0.62443 0.26566 0.0
C749 C 0.09092 0.63532 0.22649 0.0
C750 C 0.07554 0.61204 0.26583 0.0
N751 N 0.08129 0.63576 0.24629 0.0
C752 C 0.09319 0.62312 0.22579 0.0
C753 C 0.08543 0.61126 0.24563 0.0
H754 H 0.0658 0.62499 0.28085 0.0
H755 H 0.09677 0.64441 0.21112 0.0
C756 C 0.04945 0.67212 0.18187 0.0
N757 N 0.05486 0.66271 0.18624 0.0
C758 C 0.04115 0.67079 0.15654 0.0
C759 C 0.04424 0.65015 0.14086 0.0
C760 C 0.05269 0.65206 0.16613 0.0
C761 C 0.03833 0.65956 0.13591 0.0
H762 H 0.05155 0.68064 0.19803 0.0
H763 H 0.05745 0.64499 0.16989 0.0
O764 O 0.08614 0.66635 0.28151 0.0
O765 O 0.07163 0.68139 0.24603 0.0
O766 O 0.08529 0.66524 0.21194 0.0
O767 O 0.05668 0.64642 0.24851 0.0
H768 H 0.07175 0.64992 0.32809 0.0
H769 H 0.11062 0.66472 0.27321 0.0
H770 H 0.08012 0.63541 0.35806 0.0
H771 H 0.11829 0.64993 0.30416 0.0
H772 H 0.03571 0.68992 0.2828 0.0
H773 H 0.08917 0.7054 0.27769 0.0
H774 H 0.04372 0.67538 0.25189 0.0
H775 H 0.08038 0.71946 0.308 0.0
H776 H 0.14096 0.7143 0.28097 0.0
H777 H 0.12396 0.73022 0.21111 0.0
H778 H 0.02287 0.64097 0.34206 0.0
H779 H 0.06171 0.68104 0.37363 0.0
H780 H 0.08391 0.68033 0.16596 0.0
H781 H 0.11322 0.67136 0.21852 0.0
H782 H 0.10556 0.69749 0.13508 0.0
H783 H 0.13435 0.6887 0.18672 0.0
H784 H 0.05296 0.62276 0.21872 0.0
H785 H 0.03225 0.6484 0.24309 0.0
H786 H 0.03026 0.60573 0.19025 0.0
H787 H 0.00994 0.63096 0.21406 0.0
H788 H 0.06915 0.60304 0.28118 0.0
H789 H 0.10099 0.623 0.21 0.0
H790 H 0.03677 0.67826 0.15335 0.0
H791 H 0.04247 0.64152 0.12516 0.0
Li792 Li 0.40995 0.09039 0.75107 0.0
Li793 Li 0.40215 0.06671 0.77657 0.0
Li794 Li 0.42616 0.07916 0.74785 0.0
Li795 Li 0.40179 0.06646 0.72333 0.0
C796 C 0.42953 0.09819 0.80095 0.0
N797 N 0.4481 0.1222 0.83616 0.0
C798 C 0.42577 0.0987 0.8304 0.0
C799 C 0.44284 0.10979 0.78956 0.0
C800 C 0.43527 0.11096 0.8478 0.0
C801 C 0.45206 0.12185 0.80767 0.0
C802 C 0.37708 0.067 0.76557 0.0
C803 C 0.35331 0.04703 0.78227 0.0
N804 N 0.35117 0.05704 0.79789 0.0
C805 C 0.37461 0.07711 0.78157 0.0
C806 C 0.3663 0.05186 0.76569 0.0
C807 C 0.36145 0.07184 0.79784 0.0
C808 C 0.40674 0.11305 0.72467 0.0
N809 N 0.40957 0.10858 0.75092 0.0
C810 C 0.41185 0.13018 0.77496 0.0
C811 C 0.41188 0.11672 0.77594 0.0
C812 C 0.40914 0.13515 0.74809 0.0
C813 C 0.40644 0.12636 0.72274 0.0
H814 H 0.40481 0.10628 0.70518 0.0
H815 H 0.41363 0.11275 0.79672 0.0
C816 C 0.39281 0.04242 0.81523 0.0
N817 N 0.39318 0.05564 0.81157 0.0
C818 C 0.38716 0.03426 0.84118 0.0
C819 C 0.38225 0.05338 0.85917 0.0
C820 C 0.38804 0.06121 0.83284 0.0
C821 C 0.38192 0.03979 0.8637 0.0
H822 H 0.39717 0.03834 0.79825 0.0
H823 H 0.38874 0.07188 0.82964 0.0
C824 C 0.42961 0.09672 0.69681 0.0
N825 N 0.45125 0.11702 0.65912 0.0
C826 C 0.43151 0.09224 0.66879 0.0
C827 C 0.43854 0.11159 0.7054 0.0
C828 C 0.44257 0.10265 0.65014 0.0
C829 C 0.44946 0.12167 0.68611 0.0
C830 C 0.40751 0.04454 0.73705 0.0
C831 C 0.41888 0.04282 0.72438 0.0
C832 C 0.39281 0.0327 0.73627 0.0
C833 C 0.4153 0.02934 0.71069 0.0
C834 C 0.38968 0.0194 0.72233 0.0
N835 N 0.40089 0.01801 0.70991 0.0
C836 C 0.45331 0.08459 0.77275 0.0
C837 C 0.45256 0.08289 0.72056 0.0
C838 C 0.46772 0.0867 0.77316 0.0
N839 N 0.4461 0.08286 0.7467 0.0
C840 C 0.46694 0.08489 0.71993 0.0
C841 C 0.4747 0.08678 0.7465 0.0
H842 H 0.44779 0.08417 0.79329 0.0
H843 H 0.4464 0.08091 0.70025 0.0
C844 C 0.37764 0.05216 0.68312 0.0
N845 N 0.39185 0.05542 0.68894 0.0
C846 C 0.37027 0.04392 0.65799 0.0
C847 C 0.39225 0.04248 0.64562 0.0
C848 C 0.39928 0.05097 0.67059 0.0
C849 C 0.37757 0.03887 0.63912 0.0
H850 H 0.37206 0.05596 0.69797 0.0
H851 H 0.41067 0.05399 0.6754 0.0
O852 O 0.4203 0.08626 0.78362 0.0
O853 O 0.38995 0.07192 0.74975 0.0
O854 O 0.41876 0.08666 0.71527 0.0
O855 O 0.41078 0.05773 0.75023 0.0
H856 H 0.41559 0.08976 0.83969 0.0
H857 H 0.44615 0.10939 0.76713 0.0
H858 H 0.43245 0.11154 0.87057 0.0
H859 H 0.46239 0.13091 0.7991 0.0
H860 H 0.34491 0.03533 0.78271 0.0
H861 H 0.3828 0.08887 0.78164 0.0
H862 H 0.36797 0.04392 0.75318 0.0
H863 H 0.35943 0.07953 0.81048 0.0
H864 H 0.41371 0.13652 0.79509 0.0
H865 H 0.40435 0.12985 0.7016 0.0
H866 H 0.38698 0.02376 0.84365 0.0
H867 H 0.37852 0.05814 0.87613 0.0
H868 H 0.42458 0.08084 0.66159 0.0
H869 H 0.43696 0.1154 0.72658 0.0
H870 H 0.44423 0.0993 0.62849 0.0
H871 H 0.45647 0.1332 0.69253 0.0
H872 H 0.43032 0.05181 0.72499 0.0
H873 H 0.38391 0.03381 0.74613 0.0
H874 H 0.42397 0.02788 0.70065 0.0
H875 H 0.37834 0.01019 0.72137 0.0
H876 H 0.4733 0.08822 0.79416 0.0
H877 H 0.47173 0.08451 0.69891 0.0
H878 H 0.35894 0.04134 0.65356 0.0
H879 H 0.39828 0.03895 0.63129 0.0
Li880 Li 0.33499 0.40069 0.27243 0.0
Li881 Li 0.32018 0.40879 0.24711 0.0
Li882 Li 0.3343 0.3999 0.21934 0.0
Li883 Li 0.34693 0.42385 0.24596 0.0
C884 C 0.30485 0.37883 0.26182 0.0
N885 N 0.27905 0.35972 0.29199 0.0
C886 C 0.30268 0.38217 0.29066 0.0
C887 C 0.2939 0.36579 0.24832 0.0
C888 C 0.28956 0.37236 0.30555 0.0
C889 C 0.28093 0.35627 0.26394 0.0
C890 C 0.33315 0.43112 0.28927 0.0
C891 C 0.33063 0.45246 0.27722 0.0
N892 N 0.33188 0.4561 0.30634 0.0
C893 C 0.33441 0.43507 0.31906 0.0
C894 C 0.33124 0.43988 0.26814 0.0
C895 C 0.33374 0.44774 0.32725 0.0
C896 C 0.34766 0.40105 0.32662 0.0
N897 N 0.33746 0.39158 0.3068 0.0
C898 C 0.33262 0.37052 0.33642 0.0
C899 C 0.33006 0.37655 0.311 0.0
C900 C 0.34315 0.38005 0.35715 0.0
C901 C 0.35077 0.39548 0.35201 0.0
H902 H 0.35348 0.41293 0.32245 0.0
H903 H 0.32228 0.36924 0.29453 0.0
C904 C 0.29565 0.40924 0.22149 0.0
N905 N 0.30201 0.40916 0.24765 0.0
C906 C 0.28225 0.40942 0.22092 0.0
C907 C 0.28212 0.40922 0.27428 0.0
C908 C 0.29561 0.40925 0.27379 0.0
C909 C 0.27524 0.40934 0.24759 0.0
H910 H 0.30101 0.40917 0.20105 0.0
H911 H 0.30094 0.40926 0.29432 0.0
C912 C 0.35859 0.39972 0.25314 0.0
N913 N 0.37097 0.38289 0.27196 0.0
C914 C 0.37248 0.40659 0.26714 0.0
C915 C 0.35102 0.38428 0.24863 0.0
C916 C 0.37855 0.39789 0.27651 0.0
C917 C 0.35746 0.37597 0.25831 0.0
C918 C 0.34011 0.42462 0.18608 0.0
C919 C 0.35444 0.42691 0.18095 0.0
C920 C 0.33325 0.42887 0.16464 0.0
C921 C 0.36164 0.4334 0.15442 0.0
C922 C 0.34084 0.43534 0.1384 0.0
N923 N 0.35475 0.43745 0.13387 0.0
C924 C 0.32195 0.38168 0.16909 0.0
C925 C 0.34793 0.39139 0.17546 0.0
C926 C 0.32215 0.37471 0.14281 0.0
N927 N 0.33473 0.38983 0.1847 0.0
C928 C 0.34863 0.38458 0.14943 0.0
C929 C 0.33564 0.37615 0.13267 0.0
H930 H 0.31164 0.38074 0.17695 0.0
H931 H 0.35797 0.39813 0.18807 0.0
C932 C 0.37439 0.4464 0.26672 0.0
N933 N 0.36351 0.44366 0.24679 0.0
C934 C 0.38717 0.46046 0.26823 0.0
C935 C 0.37703 0.46883 0.22947 0.0
C936 C 0.36443 0.4546 0.22876 0.0
C937 C 0.3887 0.47185 0.24915 0.0
H938 H 0.37311 0.43764 0.28148 0.0
H939 H 0.35545 0.45229 0.21366 0.0
O940 O 0.31753 0.3883 0.2466 0.0
O941 O 0.33382 0.41874 0.28111 0.0
O942 O 0.35219 0.40794 0.24466 0.0
O943 O 0.3327 0.41812 0.21172 0.0
H944 H 0.31102 0.39222 0.30146 0.0
H945 H 0.29541 0.36308 0.22596 0.0
H946 H 0.28774 0.37481 0.32787 0.0
H947 H 0.27235 0.34613 0.25376 0.0
H948 H 0.32915 0.45933 0.2611 0.0
H949 H 0.3359 0.4284 0.33567 0.0
H950 H 0.33021 0.43702 0.24499 0.0
H951 H 0.3347 0.45092 0.35024 0.0
H952 H 0.32666 0.35854 0.33959 0.0
H953 H 0.35893 0.40316 0.36762 0.0
H954 H 0.27754 0.40977 0.1998 0.0
H955 H 0.27708 0.40891 0.2954 0.0
H956 H 0.37851 0.4185 0.27079 0.0
H957 H 0.34015 0.37875 0.2382 0.0
H958 H 0.38927 0.40305 0.28745 0.0
H959 H 0.35168 0.36402 0.25512 0.0
H960 H 0.35999 0.42379 0.19727 0.0
H961 H 0.32218 0.42719 0.16824 0.0
H962 H 0.37272 0.43524 0.15019 0.0
H963 H 0.33565 0.43868 0.12162 0.0
H964 H 0.31187 0.36825 0.13061 0.0
H965 H 0.35931 0.38621 0.14215 0.0
H966 H 0.39572 0.46239 0.28424 0.0
H967 H 0.37774 0.47726 0.21432 0.0
Li968 Li 0.90882 0.31908 0.75418 0.0
Li969 Li 0.9325 0.33472 0.77963 0.0
Li970 Li 0.91928 0.3459 0.75199 0.0
Li971 Li 0.93231 0.33525 0.72504 0.0
C972 C 0.9016 0.32578 0.80765 0.0
N973 N 0.87876 0.31073 0.84777 0.0
C974 C 0.90394 0.31948 0.83293 0.0
C975 C 0.88772 0.32464 0.80303 0.0
C976 C 0.89224 0.31186 0.85289 0.0
C977 C 0.87629 0.31692 0.82348 0.0
C978 C 0.93465 0.3102 0.75721 0.0
C979 C 0.95682 0.30808 0.75608 0.0
N980 N 0.94908 0.29435 0.76872 0.0
C981 C 0.92687 0.29599 0.76984 0.0
C982 C 0.9497 0.31623 0.74997 0.0
C983 C 0.93438 0.28819 0.77562 0.0
C984 C 0.88155 0.29611 0.73152 0.0
N985 N 0.89083 0.30032 0.75522 0.0
C986 C 0.87432 0.27766 0.78038 0.0
C987 C 0.88757 0.29134 0.77924 0.0
C988 C 0.86441 0.27306 0.75636 0.0
C989 C 0.86822 0.28248 0.73162 0.0
H990 H 0.88455 0.30329 0.71242 0.0
H991 H 0.89527 0.29478 0.79754 0.0
C992 C 0.95205 0.35112 0.82496 0.0
N993 N 0.94419 0.33708 0.81385 0.0
C994 C 0.96063 0.3539 0.85042 0.0
C995 C 0.95271 0.32764 0.85287 0.0
C996 C 0.94427 0.32538 0.82733 0.0
C997 C 0.96104 0.34207 0.86475 0.0
H998 H 0.95154 0.36017 0.81414 0.0
H999 H 0.93761 0.31426 0.81866 0.0
C1000 C 0.90366 0.3358 0.70144 0.0
N1001 N 0.88763 0.34503 0.66732 0.0
C1002 C 0.90902 0.34225 0.67378 0.0
C1003 C 0.89004 0.33384 0.71154 0.0
C1004 C 0.90078 0.3469 0.65691 0.0
C1005 C 0.88213 0.33863 0.69404 0.0
C1006 C 0.95541 0.36255 0.74778 0.0
C1007 C 0.95929 0.37649 0.73584 0.0
C1008 C 0.96661 0.3593 0.75494 0.0
C1009 C 0.9743 0.3868 0.73059 0.0
C1010 C 0.98149 0.36991 0.7494 0.0
N1011 N 0.985 0.38332 0.73739 0.0
C1012 C 0.90952 0.36513 0.77496 0.0
C1013 C 0.91956 0.37076 0.72659 0.0
C1014 C 0.90751 0.37751 0.77474 0.0
N1015 N 0.91549 0.36205 0.75111 0.0
C1016 C 0.91758 0.38312 0.72525 0.0
C1017 C 0.91166 0.38678 0.74968 0.0
H1018 H 0.90662 0.35815 0.79438 0.0
H1019 H 0.92455 0.36823 0.70817 0.0
C1020 C 0.94475 0.32613 0.67864 0.0
N1021 N 0.94335 0.33753 0.69 0.0
C1022 C 0.95299 0.32823 0.65282 0.0
C1023 C 0.95787 0.35363 0.65069 0.0
C1024 C 0.9495 0.35101 0.67635 0.0
C1025 C 0.95978 0.34219 0.63869 0.0
H1026 H 0.93947 0.31541 0.68959 0.0
H1027 H 0.9477 0.35968 0.68517 0.0
O1028 O 0.91292 0.33323 0.78781 0.0
O1029 O 0.92744 0.31798 0.75141 0.0
O1030 O 0.91167 0.33136 0.71844 0.0
O1031 O 0.94074 0.35232 0.75299 0.0
H1032 H 0.91464 0.32034 0.83698 0.0
H1033 H 0.88579 0.32968 0.7839 0.0
H1034 H 0.89386 0.30683 0.87243 0.0
H1035 H 0.86546 0.31588 0.82009 0.0
H1036 H 0.96848 0.31264 0.75065 0.0
H1037 H 0.91518 0.29107 0.77527 0.0
H1038 H 0.9558 0.327 0.73941 0.0
H1039 H 0.92851 0.27723 0.78558 0.0
H1040 H 0.87182 0.27085 0.80001 0.0
H1041 H 0.86109 0.27927 0.71235 0.0
H1042 H 0.96662 0.36514 0.85912 0.0
H1043 H 0.95273 0.3182 0.86314 0.0
H1044 H 0.91946 0.34372 0.66546 0.0
H1045 H 0.88563 0.32868 0.73268 0.0
H1046 H 0.90485 0.35199 0.63554 0.0
H1047 H 0.87161 0.33726 0.70168 0.0
H1048 H 0.9508 0.37928 0.73049 0.0
H1049 H 0.96388 0.34878 0.765 0.0
H1050 H 0.97745 0.39757 0.72113 0.0
H1051 H 0.99026 0.36751 0.75478 0.0
H1052 H 0.90314 0.38001 0.79428 0.0
H1053 H 0.92075 0.38976 0.70529 0.0
H1054 H 0.95418 0.31912 0.64422 0.0
H1055 H 0.96258 0.36443 0.64007 0.0
H1056 H 0.01481 0.3539 0.12692 0.0
H1057 H 0.00159 0.34653 0.07951 0.0
H1058 H 0.03774 0.38532 0.0382 0.0
H1059 H 0.05098 0.39273 0.08542 0.0
H1060 H 0.00952 0.38171 0.02669 0.0
H1061 H 0.0343 0.35298 0.02381 0.0
H1062 H 0.04146 0.33508 0.04261 0.0
H1063 H 0.99544 0.30056 0.04399 0.0
H1064 H 0.98798 0.31833 0.02561 0.0
H1065 H 0.98881 0.36547 0.87721 0.0
H1066 H 0.00263 0.37065 0.92351 0.0
H1067 H 0.96717 0.32997 0.96081 0.0
H1068 H 0.95316 0.32477 0.91464 0.0
H1069 H 0.99468 0.33405 0.97487 0.0
H1070 H 0.96966 0.36229 0.97846 0.0
H1071 H 0.96199 0.37994 0.96044 0.0
H1072 H 0.00775 0.41507 0.95903 0.0
H1073 H 0.01571 0.39757 0.97664 0.0
C1074 C 0.01994 0.36078 0.10766 0.0
C1075 C 0.03392 0.37385 0.10978 0.0
C1076 C 0.01243 0.35654 0.08062 0.0
C1077 C 0.01873 0.36537 0.05539 0.0
C1078 C 0.03272 0.37836 0.05743 0.0
C1079 C 0.04031 0.38251 0.08433 0.0
C1080 C 0.01048 0.36141 0.0271 0.0
C1081 C 0.00646 0.37139 0.01512 0.0
C1082 C 0.00612 0.34773 0.01257 0.0
C1083 C 0.01057 0.33703 0.02365 0.0
C1084 C 0.02569 0.34161 0.0284 0.0
C1085 C 0.02981 0.33148 0.03892 0.0
C1086 C 0.01891 0.3167 0.04458 0.0
C1087 C 0.00387 0.31202 0.03965 0.0
C1088 C -0.00031 0.32211 0.02916 0.0
C1089 C 0.98391 0.35765 0.89529 0.0
C1090 C 0.96982 0.34477 0.8923 0.0
C1091 C 0.99184 0.3606 0.9217 0.0
C1092 C 0.98584 0.35078 0.9457 0.0
C1093 C 0.972 0.33768 0.94254 0.0
C1094 C 0.96404 0.33472 0.91611 0.0
C1095 C 0.99384 0.35442 0.97432 0.0
C1096 C 0.99777 0.34437 0.98641 0.0
C1097 C 0.99803 0.36801 0.98912 0.0
C1098 C 0.99329 0.37858 0.97858 0.0
C1099 C 0.9781 0.37375 0.97407 0.0
C1100 C 0.9737 0.38373 0.96397 0.0
C1101 C 0.98438 0.39861 0.95851 0.0
C1102 C 0.99949 0.40354 0.96322 0.0
C1103 C 0.00395 0.3936 0.97328 0.0
H1104 H 0.98095 0.40632 0.95071 0.0
H1105 H 0.02212 0.30887 0.0527 0.0
H1106 H 0.59911 0.96338 0.40174 0.0
H1107 H 0.6082 0.97788 0.44708 0.0
H1108 H 0.65262 0.98632 0.42841 0.0
H1109 H 0.64366 0.97204 0.38244 0.0
H1110 H 0.64399 0.97849 0.48752 0.0
H1111 H 0.64553 0.01322 0.41586 0.0
H1112 H 0.6356 0.02214 0.37625 0.0
H1113 H 0.60144 0.01898 0.43459 0.0
H1114 H 0.61103 0.00981 0.47444 0.0
H1115 H 0.67697 0.03575 0.59768 0.0
H1116 H 0.67107 0.02168 0.55139 0.0
H1117 H 0.62585 0.0132 0.55619 0.0
H1118 H 0.63165 0.02717 0.60236 0.0
H1119 H 0.63714 0.02221 0.50219 0.0
H1120 H 0.63443 0.98617 0.57276 0.0
H1121 H 0.64378 0.97672 0.6125 0.0
H1122 H 0.67962 0.98198 0.55665 0.0
H1123 H 0.67059 0.99167 0.5167 0.0
C1124 C 0.61085 0.96844 0.40704 0.0
C1125 C 0.62069 0.9667 0.38823 0.0
C1126 C 0.61601 0.97665 0.43306 0.0
C1127 C 0.63111 0.98331 0.44087 0.0
C1128 C 0.64092 0.98127 0.4227 0.0
C1129 C 0.63577 0.97308 0.39651 0.0
C1130 C 0.63657 0.9926 0.46784 0.0
C1131 C 0.64274 0.98821 0.4906 0.0
C1132 C 0.63468 0.0051 0.47193 0.0
C1133 C 0.62893 0.01071 0.44807 0.0
C1134 C 0.63583 0.01431 0.42019 0.0
C1135 C 0.63028 0.01943 0.3977 0.0
C1136 C 0.61788 0.02109 0.40288 0.0
C1137 C 0.61103 0.01767 0.4306 0.0
C1138 C 0.61653 0.01253 0.45315 0.0
C1139 C 0.66574 0.03077 0.58898 0.0
C1140 C 0.65479 0.03262 0.60359 0.0
C1141 C 0.66239 0.02275 0.56254 0.0
C1142 C 0.648 0.01633 0.55042 0.0
C1143 C 0.63705 0.01812 0.56506 0.0
C1144 C 0.64039 0.02615 0.59139 0.0
C1145 C 0.64432 0.00797 0.5222 0.0
C1146 C 0.6385 0.01257 0.49911 0.0
C1147 C 0.6465 0.99564 0.51789 0.0
C1148 C 0.65194 0.98981 0.54187 0.0
C1149 C 0.64438 0.98544 0.56905 0.0
C1150 C 0.6496 0.98001 0.59159 0.0
C1151 C 0.66231 0.97879 0.58714 0.0
C1152 C 0.6698 0.98296 0.56009 0.0
C1153 C 0.66463 0.98841 0.53748 0.0
H1154 H 0.66634 0.97458 0.60461 0.0
H1155 H 0.61359 0.02506 0.38544 0.0
H1156 H 0.64272 0.65322 0.12883 0.0
H1157 H 0.65087 0.64848 0.08144 0.0
H1158 H 0.62206 0.66086 0.03585 0.0
H1159 H 0.61342 0.66504 0.08312 0.0
H1160 H 0.61883 0.63553 0.01456 0.0
H1161 H 0.6602 0.68392 0.03686 0.0
H1162 H 0.68065 0.70289 0.06729 0.0
H1163 H 0.70165 0.6761 0.06889 0.0
H1164 H 0.68121 0.65687 0.0388 0.0
H1165 H 0.64496 0.63467 0.87135 0.0
H1166 H 0.63982 0.64385 0.91694 0.0
H1167 H 0.66794 0.6315 0.96522 0.0
H1168 H 0.6737 0.6229 0.91946 0.0
H1169 H 0.67181 0.65773 0.9844 0.0
H1170 H 0.63008 0.60896 0.96449 0.0
H1171 H 0.60964 0.58973 0.93441 0.0
H1172 H 0.58931 0.61706 0.92901 0.0
H1173 H 0.60974 0.63655 0.95873 0.0
C1174 C 0.6381 0.65491 0.10872 0.0
C1175 C 0.62741 0.65951 0.10979 0.0
C1176 C 0.64289 0.65235 0.08163 0.0
C1177 C 0.63719 0.65446 0.05508 0.0
C1178 C 0.62665 0.65921 0.05607 0.0
C1179 C 0.62183 0.66173 0.08312 0.0
C1180 C 0.64164 0.65102 0.02632 0.0
C1181 C 0.63041 0.64059 0.00775 0.0
C1182 C 0.65676 0.65731 0.01779 0.0
C1183 C 0.6691 0.66889 0.03579 0.0
C1184 C 0.66912 0.68202 0.04389 0.0
C1185 C 0.68072 0.69283 0.06105 0.0
C1186 C 0.69242 0.69069 0.07008 0.0
C1187 C 0.69257 0.67774 0.06191 0.0
C1188 C 0.68099 0.66689 0.04477 0.0
C1189 C 0.6503 0.63417 0.89154 0.0
C1190 C 0.65967 0.62795 0.89177 0.0
C1191 C 0.64722 0.63929 0.91765 0.0
C1192 C 0.65329 0.63812 0.94456 0.0
C1193 C 0.66307 0.63243 0.94472 0.0
C1194 C 0.66622 0.62738 0.91859 0.0
C1195 C 0.649 0.64229 0.9727 0.0
C1196 C 0.66024 0.65279 0.99116 0.0
C1197 C 0.63388 0.63603 0.98123 0.0
C1198 C 0.62152 0.62427 0.96358 0.0
C1199 C 0.6213 0.61091 0.95671 0.0
C1200 C 0.60971 0.59996 0.93975 0.0
C1201 C 0.5982 0.60219 0.92974 0.0
C1202 C 0.59824 0.61536 0.93674 0.0
C1203 C 0.60982 0.62635 0.95366 0.0
H1204 H 0.58924 0.5937 0.91661 0.0
H1205 H 0.70139 0.69907 0.08337 0.0
H1206 H 0.05364 0.66598 0.41695 0.0
H1207 H 0.04112 0.66186 0.46449 0.0
H1208 H 0.99914 0.64697 0.42004 0.0
H1209 H 0.01173 0.65177 0.37229 0.0
H1210 H 0.00143 0.66372 0.46662 0.0
H1211 H 0.00862 0.62206 0.44817 0.0
H1212 H 0.02304 0.60964 0.4363 0.0
H1213 H 0.04981 0.62852 0.51391 0.0
H1214 H 0.03567 0.64122 0.52602 0.0
H1215 H 0.95202 0.62045 0.58224 0.0
H1216 H 0.96621 0.62956 0.53648 0.0
H1217 H 0.00732 0.64654 0.58524 0.0
H1218 H 0.99322 0.63774 0.6313 0.0
H1219 H 0.00623 0.62982 0.53756 0.0
H1220 H 0.9975 0.67033 0.55717 0.0
H1221 H 0.98234 0.68199 0.56864 0.0
H1222 H 0.95752 0.66434 0.48846 0.0
H1223 H 0.97239 0.65239 0.47671 0.0
C1224 C 0.0418 0.66211 0.4172 0.0
C1225 C 0.03368 0.65913 0.39073 0.0
C1226 C 0.03462 0.6596 0.44445 0.0
C1227 C 0.01915 0.65386 0.44583 0.0
C1228 C 0.01108 0.65133 0.4195 0.0
C1229 C 0.01827 0.65393 0.39222 0.0
C1230 C 0.0113 0.65001 0.47466 0.0
C1231 C 0.00235 0.6562 0.48202 0.0
C1232 C 0.01273 0.6404 0.49499 0.0
C1233 C 0.02119 0.63271 0.48783 0.0
C1234 C 0.01766 0.62365 0.46259 0.0
C1235 C 0.02577 0.61655 0.45583 0.0
C1236 C 0.03736 0.61833 0.4743 0.0
C1237 C 0.04084 0.62718 0.4996 0.0
C1238 C 0.03278 0.63432 0.50643 0.0
C1239 C 0.96408 0.62638 0.58337 0.0
C1240 C 0.97148 0.62836 0.6105 0.0
C1241 C 0.97218 0.63154 0.55714 0.0
C1242 C 0.98781 0.6388 0.5575 0.0
C1243 C 0.99525 0.64094 0.58451 0.0
C1244 C 0.98717 0.63584 0.61078 0.0
C1245 C 0.99635 0.64352 0.52951 0.0
C1246 C 0.00539 0.63744 0.52228 0.0
C1247 C 0.9949 0.65313 0.50924 0.0
C1248 C 0.98598 0.66035 0.5162 0.0
C1249 C 0.98873 0.66883 0.5421 0.0
C1250 C 0.9802 0.67552 0.54863 0.0
C1251 C 0.96895 0.67388 0.52933 0.0
C1252 C 0.96623 0.66559 0.50341 0.0
C1253 C 0.97471 0.65887 0.49679 0.0
H1254 H 0.96236 0.67907 0.53442 0.0
H1255 H 0.04362 0.61282 0.46903 0.0
H1256 H 0.35758 0.03478 0.89654 0.0
H1257 H 0.3492 0.02135 0.94352 0.0
H1258 H 0.38622 0.01321 0.94202 0.0
H1259 H 0.39461 0.02656 0.89525 0.0
H1260 H 0.36095 0.98847 0.95622 0.0
H1261 H 0.38625 0.04015 0.98635 0.0
H1262 H 0.39099 0.06599 0.98662 0.0
H1263 H 0.34628 0.05056 0.01673 0.0
H1264 H 0.34121 0.02459 0.01626 0.0
H1265 H 0.3646 0.968 0.10225 0.0
H1266 H 0.36996 0.98147 0.05553 0.0
H1267 H 0.33106 0.98608 0.06671 0.0
H1268 H 0.32562 0.97257 0.11369 0.0
H1269 H 0.35474 0.01175 0.04686 0.0
H1270 H 0.32997 0.9602 0.01979 0.0
H1271 H 0.32536 0.93441 0.01992 0.0
H1272 H 0.369 0.94953 0.98395 0.0
H1273 H 0.37396 0.97546 0.98401 0.0
C1274 C 0.36397 0.03021 0.90636 0.0
C1275 C 0.37672 0.03169 0.89215 0.0
C1276 C 0.35917 0.02254 0.93317 0.0
C1277 C 0.36715 0.01636 0.94636 0.0
C1278 C 0.37986 0.01782 0.93217 0.0
C1279 C 0.38461 0.02541 0.90539 0.0
C1280 C 0.36228 0.00825 0.97483 0.0
C1281 C 0.35973 0.99361 0.9761 0.0
C1282 C 0.36025 0.01481 0.00055 0.0
C1283 C 0.36331 0.03041 0.00095 0.0
C1284 C 0.3774 0.04225 0.9928 0.0
C1285 C 0.38014 0.05692 0.99303 0.0
C1286 C 0.36893 0.05991 0.0016 0.0
C1287 C 0.35495 0.04823 0.01004 0.0
C1288 C 0.35213 0.03353 0.00982 0.0
C1289 C 0.35713 0.9718 0.09469 0.0
C1290 C 0.34459 0.96908 0.11147 0.0
C1291 C 0.36022 0.97951 0.06801 0.0
C1292 C 0.35076 0.98455 0.0574 0.0
C1293 C 0.33847 0.98224 0.07447 0.0
C1294 C 0.3354 0.97455 0.10129 0.0
C1295 C 0.35372 0.99209 0.02833 0.0
C1296 C 0.35586 0.00658 0.02693 0.0
C1297 C 0.35538 0.9854 0.00243 0.0
C1298 C 0.35238 0.9698 0.00212 0.0
C1299 C 0.33863 0.95805 0.0121 0.0
C1300 C 0.33594 0.9434 0.01211 0.0
C1301 C 0.34689 0.94034 0.002 0.0
C1302 C 0.36053 0.95192 0.99179 0.0
C1303 C 0.36328 0.96659 0.99176 0.0
H1304 H 0.34479 0.92899 0.00204 0.0
H1305 H 0.37108 0.07127 0.00176 0.0
H1306 H 0.32308 0.36113 0.39751 0.0
H1307 H 0.32843 0.3523 0.44377 0.0
H1308 H 0.37542 0.37642 0.42338 0.0
H1309 H 0.37015 0.38548 0.37742 0.0
H1310 H 0.36301 0.34532 0.44474 0.0
H1311 H 0.36522 0.39223 0.46802 0.0
H1312 H 0.35496 0.4092 0.46956 0.0
H1313 H 0.31805 0.37741 0.52175 0.0
H1314 H 0.32799 0.36015 0.52012 0.0
H1315 H 0.39862 0.34934 0.57921 0.0
H1316 H 0.39017 0.354 0.53241 0.0
H1317 H 0.3472 0.34094 0.57079 0.0
H1318 H 0.35594 0.33729 0.61841 0.0
H1319 H 0.35533 0.36444 0.53972 0.0
H1320 H 0.35308 0.31816 0.52083 0.0
H1321 H 0.36192 0.30004 0.51897 0.0
H1322 H 0.3966 0.32829 0.45853 0.0
H1323 H 0.3881 0.3467 0.46034 0.0
C1324 C 0.33452 0.36441 0.40285 0.0
C1325 C 0.34623 0.37401 0.3841 0.0
C1326 C 0.33755 0.35941 0.4292 0.0
C1327 C 0.35231 0.36376 0.43688 0.0
C1328 C 0.36396 0.37295 0.41773 0.0
C1329 C 0.36096 0.37817 0.39166 0.0
C1330 C 0.35569 0.35925 0.46548 0.0
C1331 C 0.36147 0.34955 0.46556 0.0
C1332 C 0.35317 0.36443 0.49252 0.0
C1333 C 0.34725 0.37483 0.49364 0.0
C1334 C 0.35484 0.3888 0.47958 0.0
C1335 C 0.3491 0.39848 0.48052 0.0
C1336 C 0.33583 0.39437 0.49567 0.0
C1337 C 0.32831 0.38057 0.50998 0.0
C1338 C 0.33399 0.37084 0.50906 0.0
C1339 C 0.38742 0.34761 0.5779 0.0
C1340 C 0.378 0.34298 0.60276 0.0
C1341 C 0.38251 0.35004 0.55089 0.0
C1342 C 0.36794 0.34757 0.54785 0.0
C1343 C 0.35846 0.34285 0.57252 0.0
C1344 C 0.36344 0.34061 0.5997 0.0
C1345 C 0.36287 0.35055 0.51925 0.0
C1346 C 0.35677 0.36 0.51906 0.0
C1347 C 0.36487 0.34493 0.49213 0.0
C1348 C 0.37002 0.33387 0.49092 0.0
C1349 C 0.36266 0.32057 0.50731 0.0
C1350 C 0.3676 0.31023 0.50624 0.0
C1351 C 0.37983 0.31303 0.4887 0.0
C1352 C 0.38713 0.32615 0.47213 0.0
C1353 C 0.38224 0.33653 0.47314 0.0
H1354 H 0.38364 0.30501 0.4879 0.0
H1355 H 0.33141 0.40188 0.49638 0.0
H1356 H 0.95126 0.60651 0.91855 0.0
H1357 H 0.96471 0.61629 0.96467 0.0
H1358 H 0.99507 0.65768 0.92134 0.0
H1359 H 0.98215 0.64761 0.8745 0.0
H1360 H 0.01016 0.64934 0.95404 0.0
H1361 H 0.9681 0.65503 0.97113 0.0
H1362 H 0.94154 0.64788 0.973 0.0
H1363 H 0.93332 0.61415 0.03735 0.0
H1364 H 0.95979 0.62094 0.03556 0.0
H1365 H 0.04198 0.68069 0.09548 0.0
H1366 H 0.0279 0.67685 0.0495 0.0
H1367 H 0.00026 0.63021 0.0707 0.0
H1368 H 0.01441 0.63394 0.11636 0.0
H1369 H 0.98446 0.64504 0.04909 0.0
H1370 H 0.02667 0.63835 0.02591 0.0
H1371 H 0.05349 0.64652 0.02399 0.0
H1372 H 0.0615 0.68416 0.97077 0.0
H1373 H 0.03473 0.67631 0.97277 0.0
C1374 C 0.96086 0.61766 0.91869 0.0
C1375 C 0.96566 0.62623 0.8927 0.0
C1376 C 0.96842 0.62333 0.94526 0.0
C1377 C 0.98077 0.63782 0.94665 0.0
C1378 C 0.98551 0.6465 0.92085 0.0
C1379 C 0.97803 0.64077 0.89413 0.0
C1380 C 0.98916 0.6435 0.97473 0.0
C1381 C 0.00456 0.6487 0.97469 0.0
C1382 C 0.98188 0.64256 0.00181 0.0
C1383 C 0.96593 0.63844 0.00304 0.0
C1384 C 0.96061 0.64601 0.98552 0.0
C1385 C 0.94557 0.64204 0.9866 0.0
C1386 C 0.93575 0.63055 0.00524 0.0
C1387 C 0.94094 0.62304 0.0229 0.0
C1388 C 0.95597 0.62696 0.0219 0.0
C1389 C 0.0328 0.66967 0.09039 0.0
C1390 C 0.02929 0.65758 0.10926 0.0
C1391 C 0.02481 0.6675 0.06419 0.0
C1392 C 0.01309 0.65325 0.05679 0.0
C1393 C 0.00925 0.64128 0.07613 0.0
C1394 C 0.01738 0.6434 0.10203 0.0
C1395 C 0.00525 0.65054 0.02822 0.0
C1396 C 0.99 0.6459 0.02825 0.0
C1397 C 0.01268 0.65219 0.00111 0.0
C1398 C 0.02874 0.65685 -0.0002 0.0
C1399 C 0.03417 0.64845 0.01404 0.0
C1400 C 0.04936 0.653 0.01289 0.0
C1401 C 0.0592 0.66588 0.99735 0.0
C1402 C 0.05387 0.67421 0.98286 0.0
C1403 C 0.03869 0.66971 0.98398 0.0
H1404 H 0.07095 0.66939 0.99648 0.0
H1405 H 0.92411 0.62749 0.00604 0.0
H1406 H 0.33645 0.98629 0.37562 0.0
H1407 H 0.34045 0.99958 0.42248 0.0
H1408 H 0.33977 0.9627 0.46854 0.0
H1409 H 0.33505 0.94915 0.42187 0.0
H1410 H 0.32675 0.97305 0.50109 0.0
H1411 H 0.37306 0.99547 0.44788 0.0
H1412 H 0.38983 0.00768 0.40561 0.0
H1413 H 0.3817 0.04442 0.41165 0.0
H1414 H 0.36472 0.03232 0.45373 0.0
H1415 H 0.37453 0.01219 0.62293 0.0
H1416 H 0.36366 0.99832 0.57714 0.0
H1417 H 0.35339 0.03201 0.54916 0.0
H1418 H 0.36402 0.04581 0.59528 0.0
H1419 H 0.37029 0.02428 0.5076 0.0
H1420 H 0.32566 0.00152 0.56639 0.0
H1421 H 0.31059 0.98876 0.61034 0.0
H1422 H 0.31788 0.95191 0.59562 0.0
H1423 H 0.33319 0.96455 0.55182 0.0
C1424 C 0.33702 0.98101 0.39586 0.0
C1425 C 0.33553 0.96677 0.39526 0.0
C1426 C 0.33937 0.98861 0.42258 0.0
C1427 C 0.34075 0.98229 0.44902 0.0
C1428 C 0.33877 0.96783 0.44848 0.0
C1429 C 0.33609 0.96011 0.42185 0.0
C1430 C 0.34485 0.99092 0.47705 0.0
C1431 C 0.33634 0.98421 0.50249 0.0
C1432 C 0.35724 0.00559 0.47894 0.0
C1433 C 0.36749 0.01291 0.45372 0.0
C1434 C 0.37477 0.0061 0.44005 0.0
C1435 C 0.38432 0.01301 0.41615 0.0
C1436 C 0.38679 0.0268 0.4059 0.0
C1437 C 0.37975 0.03373 0.41958 0.0
C1438 C 0.37017 0.02685 0.44346 0.0
C1439 C 0.36982 0.01654 0.6071 0.0
C1440 C 0.37009 0.03004 0.61249 0.0
C1441 C 0.36358 0.0086 0.5811 0.0
C1442 C 0.35771 0.01415 0.55993 0.0
C1443 C 0.35783 0.02756 0.56536 0.0
C1444 C 0.36383 0.03537 0.59165 0.0
C1445 C 0.35228 0.00634 0.53141 0.0
C1446 C 0.36059 0.01319 0.50597 0.0
C1447 C 0.33994 0.99171 0.5297 0.0
C1448 C 0.33068 0.98405 0.55596 0.0
C1449 C 0.32416 0.99075 0.57267 0.0
C1450 C 0.31556 0.98353 0.59752 0.0
C1451 C 0.31331 0.96955 0.60581 0.0
C1452 C 0.31964 0.96275 0.5892 0.0
C1453 C 0.32827 0.96993 0.56433 0.0
H1454 H 0.30664 0.96398 0.62506 0.0
H1455 H 0.3942 0.03213 0.38739 0.0
H1456 H 0.37814 0.33031 0.91447 0.0
H1457 H 0.36821 0.33457 0.95996 0.0
H1458 H 0.34145 0.3478 0.90932 0.0
H1459 H 0.35121 0.34338 0.86354 0.0
H1460 H 0.35693 0.36774 0.952 0.0
H1461 H 0.32504 0.315 0.94631 0.0
H1462 H 0.31869 0.28879 0.94057 0.0
H1463 H 0.34394 0.29224 0.01835 0.0
H1464 H 0.35062 0.31855 0.02433 0.0
H1465 H 0.32219 0.37557 0.08027 0.0
H1466 H 0.32497 0.36595 0.03276 0.0
H1467 H 0.3538 0.35212 0.07334 0.0
H1468 H 0.35079 0.36136 0.12103 0.0
H1469 H 0.33457 0.33137 0.03404 0.0
H1470 H 0.36848 0.38448 0.03658 0.0
H1471 H 0.37533 0.41085 0.04238 0.0
H1472 H 0.34658 0.40663 0.97018 0.0
H1473 H 0.33939 0.38016 0.96425 0.0
C1474 C 0.3699 0.33381 0.91293 0.0
C1475 C 0.36546 0.3365 0.88532 0.0
C1476 C 0.36425 0.33627 0.939 0.0
C1477 C 0.354 0.34139 0.93803 0.0
C1478 C 0.34936 0.34386 0.91055 0.0
C1479 C 0.35499 0.34138 0.88443 0.0
C1480 C 0.3489 0.34505 0.96576 0.0
C1481 C 0.35175 0.35969 0.9697 0.0
C1482 C 0.34246 0.33464 0.98909 0.0
C1483 C 0.33843 0.3188 0.98563 0.0
C1484 C 0.32934 0.31021 0.96206 0.0
C1485 C 0.32566 0.29532 0.95879 0.0
C1486 C 0.33093 0.28886 0.97905 0.0
C1487 C 0.33987 0.29726 0.00266 0.0
C1488 C 0.34359 0.31216 0.00603 0.0
C1489 C 0.32891 0.37024 0.07918 0.0
C1490 C 0.33637 0.36932 0.10435 0.0
C1491 C 0.33057 0.36485 0.05199 0.0
C1492 C 0.33974 0.35849 0.04948 0.0
C1493 C 0.34671 0.35702 0.07479 0.0
C1494 C 0.34508 0.36243 0.10195 0.0
C1495 C 0.34273 0.35407 0.02028 0.0
C1496 C 0.33954 0.33932 0.01613 0.0
C1497 C 0.3489 0.36438 0.99674 0.0
C1498 C 0.35326 0.3803 0.0002 0.0
C1499 C 0.36352 0.38915 0.02211 0.0
C1500 C 0.36748 0.40411 0.02539 0.0
C1501 C 0.36136 0.4104 0.00672 0.0
C1502 C 0.35129 0.40174 0.98467 0.0
C1503 C 0.34727 0.38676 0.98133 0.0
H1504 H 0.36444 0.42199 0.00929 0.0
H1505 H 0.32807 0.27733 0.97647 0.0
H1506 H 0.98661 0.36652 0.62531 0.0
H1507 H 0.00045 0.37192 0.57901 0.0
H1508 H 0.96694 0.3295 0.54388 0.0
H1509 H 0.95304 0.32397 0.5904 0.0
H1510 H 0.99462 0.3355 0.52844 0.0
H1511 H 0.96691 0.36097 0.52474 0.0
H1512 H 0.95769 0.37741 0.54255 0.0
H1513 H 0.00245 0.41456 0.54359 0.0
H1514 H 0.01196 0.39828 0.52621 0.0
H1515 H 0.01635 0.3573 0.3772 0.0
H1516 H 0.00239 0.34871 0.42347 0.0
H1517 H 0.03609 0.38814 0.46761 0.0
H1518 H 0.05037 0.39659 0.42185 0.0
H1519 H 0.00704 0.38262 0.4768 0.0
H1520 H 0.03444 0.35628 0.48091 0.0
H1521 H 0.04298 0.33945 0.46214 0.0
H1522 H 0.99767 0.30343 0.45847 0.0
H1523 H 0.98884 0.32013 0.47684 0.0
C1524 C 0.98218 0.35834 0.60773 0.0
C1525 C 0.96866 0.34489 0.61135 0.0
C1526 C 0.9901 0.36143 0.5813 0.0
C1527 C 0.98458 0.35123 0.55781 0.0
C1528 C 0.97137 0.33754 0.56171 0.0
C1529 C 0.96346 0.33439 0.58828 0.0
C1530 C 0.99242 0.35514 0.52897 0.0
C1531 C 0.99715 0.34569 0.51692 0.0
C1532 C 0.99584 0.36851 0.51409 0.0
C1533 C 0.99016 0.37837 0.52442 0.0
C1534 C 0.9748 0.37262 0.52898 0.0
C1535 C 0.96952 0.38192 0.53897 0.0
C1536 C 0.97948 0.39701 0.54426 0.0
C1537 C 0.99475 0.40286 0.53951 0.0
C1538 C 9e-05 0.3936 0.52957 0.0
C1539 C 0.02094 0.36402 0.39685 0.0
C1540 C 0.03447 0.37769 0.39571 0.0
C1541 C 0.01291 0.35912 0.42324 0.0
C1542 C 0.01822 0.36781 0.44891 0.0
C1543 C 0.03177 0.38133 0.44796 0.0
C1544 C 0.03986 0.38617 0.42172 0.0
C1545 C 0.00944 0.36312 0.47657 0.0
C1546 C 0.00447 0.37241 0.48831 0.0
C1547 C 0.00568 0.34955 0.49093 0.0
C1548 C 0.01097 0.3395 0.47993 0.0
C1549 C 0.02629 0.34481 0.47584 0.0
C1550 C 0.03118 0.33529 0.46533 0.0
C1551 C 0.02087 0.32039 0.45903 0.0
C1552 C 0.00564 0.31498 0.46331 0.0
C1553 C 0.00069 0.32447 0.47379 0.0
H1554 H 0.02468 0.31303 0.4509 0.0
H1555 H 0.97537 0.40419 0.55199 0.0
H1556 H 0.68129 0.034 0.89251 0.0
H1557 H 0.67694 0.02209 0.94098 0.0
H1558 H 0.63101 0.01156 0.93787 0.0
H1559 H 0.63548 0.02419 0.89062 0.0
H1560 H 0.64154 0.02124 0.98988 0.0
H1561 H 0.64268 0.98535 0.92308 0.0
H1562 H 0.65387 0.97666 0.88552 0.0
H1563 H 0.69027 0.9864 0.94405 0.0
H1564 H 0.67937 0.99533 0.98183 0.0
H1565 H 0.60259 0.96008 0.08411 0.0
H1566 H 0.6133 0.97507 0.03984 0.0
H1567 H 0.65758 0.98918 0.07204 0.0
H1568 H 0.64698 0.9746 0.11724 0.0
H1569 H 0.6518 0.98003 0.00936 0.0
H1570 H 0.64809 0.01318 0.07837 0.0
H1571 H 0.63539 0.02039 0.11542 0.0
H1572 H 0.60226 0.01445 0.05141 0.0
H1573 H 0.61463 0.00698 0.01409 0.0
C1574 C 0.6703 0.02928 0.90229 0.0
C1575 C 0.6587 0.02995 0.88744 0.0
C1576 C 0.66779 0.02233 0.92987 0.0
C1577 C 0.65359 0.01574 0.94294 0.0
C1578 C 0.64206 0.01651 0.92825 0.0
C1579 C 0.64459 0.02358 0.90095 0.0
C1580 C 0.65055 0.00809 0.97198 0.0
C1581 C 0.64373 0.01219 0.994 0.0
C1582 C 0.65378 0.99654 0.97779 0.0
C1583 C 0.66031 0.99117 0.95512 0.0
C1584 C 0.65313 0.98575 0.92784 0.0
C1585 C 0.6594 0.98076 0.90654 0.0
C1586 C 0.67279 0.98103 0.91236 0.0
C1587 C 0.67991 0.98624 0.93954 0.0
C1588 C 0.67369 0.99125 0.96092 0.0
C1589 C 0.61462 0.96647 0.08205 0.0
C1590 C 0.62392 0.9663 0.10452 0.0
C1591 C 0.62071 0.97494 0.0566 0.0
C1592 C 0.63621 0.98331 0.05289 0.0
C1593 C 0.64558 0.98277 0.0746 0.0
C1594 C 0.63949 0.97439 0.10033 0.0
C1595 C 0.64243 0.99294 0.02659 0.0
C1596 C 0.64985 0.98925 0.00524 0.0
C1597 C 0.63961 0.00475 0.02119 0.0
C1598 C 0.63223 0.00942 0.04349 0.0
C1599 C 0.63803 0.01331 0.07225 0.0
C1600 C 0.63091 0.01746 0.09329 0.0
C1601 C 0.61801 0.01785 0.08579 0.0
C1602 C 0.61225 0.01414 0.0572 0.0
C1603 C 0.61932 0.00996 0.03608 0.0
H1604 H 0.61251 0.02107 0.10212 0.0
H1605 H 0.67763 0.97716 0.89584 0.0
H1606 H 0.61063 0.65978 0.42234 0.0
H1607 H 0.62032 0.65506 0.46769 0.0
H1608 H 0.65424 0.65212 0.4177 0.0
H1609 H 0.64427 0.65636 0.372 0.0
H1610 H 0.64088 0.62947 0.45581 0.0
H1611 H 0.66327 0.68236 0.46117 0.0
H1612 H 0.66419 0.70661 0.45991 0.0
H1613 H 0.63441 0.69357 0.53404 0.0
H1614 H 0.63314 0.66913 0.5355 0.0
H1615 H 0.6762 0.62468 0.58679 0.0
H1616 H 0.67231 0.63414 0.5401 0.0
H1617 H 0.6358 0.63708 0.57892 0.0
H1618 H 0.63988 0.62801 0.62585 0.0
H1619 H 0.65338 0.66137 0.54499 0.0
H1620 H 0.62922 0.60773 0.53611 0.0
H1621 H 0.62813 0.58338 0.53716 0.0
H1622 H 0.66145 0.59811 0.4692 0.0
H1623 H 0.66288 0.62264 0.46804 0.0
C1624 C 0.62013 0.65809 0.42097 0.0
C1625 C 0.62665 0.6584 0.39356 0.0
C1626 C 0.62577 0.65556 0.44696 0.0
C1627 C 0.63812 0.6534 0.44613 0.0
C1628 C 0.64475 0.65383 0.41885 0.0
C1629 C 0.63911 0.65636 0.3928 0.0
C1630 C 0.64358 0.64998 0.47365 0.0
C1631 C 0.64391 0.6366 0.47513 0.0
C1632 C 0.64726 0.65915 0.49901 0.0
C1633 C 0.64802 0.67386 0.49829 0.0
C1634 C 0.65683 0.68461 0.47707 0.0
C1635 C 0.65742 0.6984 0.47634 0.0
C1636 C 0.64934 0.70162 0.49684 0.0
C1637 C 0.64066 0.69106 0.51816 0.0
C1638 C 0.64002 0.67724 0.51897 0.0
C1639 C 0.66748 0.62754 0.5855 0.0
C1640 C 0.65828 0.6255 0.60995 0.0
C1641 C 0.66521 0.63284 0.55875 0.0
C1642 C 0.65366 0.63615 0.55597 0.0
C1643 C 0.64475 0.63456 0.58058 0.0
C1644 C 0.647 0.62924 0.60729 0.0
C1645 C 0.65046 0.64078 0.5272 0.0
C1646 C 0.65054 0.65436 0.52552 0.0
C1647 C 0.64717 0.63182 0.50163 0.0
C1648 C 0.64628 0.61707 0.50223 0.0
C1649 C 0.6364 0.60582 0.52157 0.0
C1650 C 0.63571 0.59198 0.52215 0.0
C1651 C 0.64475 0.58922 0.50332 0.0
C1652 C 0.65448 0.60028 0.48381 0.0
C1653 C 0.65523 0.61414 0.48317 0.0
H1654 H 0.64419 0.57849 0.5038 0.0
H1655 H 0.64982 0.7123 0.49625 0.0
H1656 H 0.08805 0.59599 0.29242 0.0
H1657 H 0.09025 0.57354 0.29099 0.0
H1658 H 0.08962 0.57422 0.19578 0.0
H1659 H 0.08702 0.59644 0.19705 0.0
H1660 H 0.07089 0.54674 0.2173 0.0
H1661 H 0.12182 0.58455 0.23241 0.0
H1662 H 0.14266 0.60622 0.25691 0.0
H1663 H 0.13341 0.58129 0.33752 0.0
H1664 H 0.11237 0.55953 0.31361 0.0
H1665 H 0.08963 0.49037 0.19648 0.0
H1666 H 0.09091 0.51461 0.19558 0.0
H1667 H 0.09213 0.51593 0.29077 0.0
H1668 H 0.09088 0.49171 0.29183 0.0
H1669 H 0.11135 0.54285 0.26779 0.0
H1670 H 0.05987 0.50561 0.2538 0.0
H1671 H 0.03881 0.48388 0.22991 0.0
H1672 H 0.04886 0.50778 0.14787 0.0
H1673 H 0.07013 0.5296 0.17119 0.0
C1674 C 0.08834 0.59133 0.27118 0.0
C1675 C 0.08736 0.59799 0.24484 0.0
C1676 C 0.08974 0.57859 0.27039 0.0
C1677 C 0.09025 0.5723 0.24327 0.0
C1678 C 0.08931 0.57893 0.21695 0.0
C1679 C 0.08794 0.59169 0.21771 0.0
C1680 C 0.09122 0.55849 0.24237 0.0
C1681 C 0.07987 0.54596 0.22792 0.0
C1682 C 0.10274 0.55739 0.25686 0.0
C1683 C 0.11543 0.57045 0.27128 0.0
C1684 C 0.12415 0.58372 0.25543 0.0
C1685 C 0.13601 0.59602 0.2692 0.0
C1686 C 0.13933 0.59515 0.29877 0.0
C1687 C 0.13081 0.58196 0.31462 0.0
C1688 C 0.11893 0.56963 0.30096 0.0
C1689 C 0.09016 0.49583 0.21721 0.0
C1690 C 0.09004 0.48908 0.24423 0.0
C1691 C 0.09092 0.50968 0.21666 0.0
C1692 C 0.0914 0.51698 0.24313 0.0
C1693 C 0.09177 0.5105 0.2701 0.0
C1694 C 0.09108 0.49667 0.27066 0.0
C1695 C 0.09101 0.5311 0.24275 0.0
C1696 C 0.10243 0.54367 0.25702 0.0
C1697 C 0.07952 0.53224 0.22818 0.0
C1698 C 0.06668 0.51918 0.21416 0.0
C1699 C 0.05765 0.50619 0.23061 0.0
C1700 C 0.04567 0.49387 0.21718 0.0
C1701 C 0.04252 0.49443 0.18737 0.0
C1702 C 0.05133 0.50735 0.17094 0.0
C1703 C 0.06334 0.5197 0.18426 0.0
H1704 H 0.03324 0.48488 0.17701 0.0
H1705 H 0.14852 0.60468 0.3094 0.0
H1706 H 0.48577 0.07439 0.78515 0.0
H1707 H 0.51035 0.07656 0.78482 0.0
H1708 H 0.52222 0.1043 0.70717 0.0
H1709 H 0.49769 0.10242 0.70761 0.0
H1710 H 0.52932 0.0821 0.70223 0.0
H1711 H 0.5368 0.11991 0.77227 0.0
H1712 H 0.531 0.13015 0.81619 0.0
H1713 H 0.53564 0.09901 0.87148 0.0
H1714 H 0.54126 0.08843 0.82782 0.0
H1715 H 0.60498 0.09946 0.70627 0.0
H1716 H 0.58258 0.10182 0.70541 0.0
H1717 H 0.56823 0.07785 0.78787 0.0
H1718 H 0.59073 0.07578 0.78912 0.0
H1719 H 0.56327 0.10027 0.78869 0.0
H1720 H 0.55368 0.06108 0.71956 0.0
H1721 H 0.55879 0.04993 0.67617 0.0
H1722 H 0.55739 0.08261 0.61991 0.0
H1723 H 0.55247 0.09407 0.66304 0.0
C1724 C 0.49367 0.08116 0.76826 0.0
C1725 C 0.48977 0.0883 0.7465 0.0
C1726 C 0.50771 0.08234 0.76805 0.0
C1727 C 0.51815 0.09071 0.74614 0.0
C1728 C 0.51431 0.09779 0.72427 0.0
C1729 C 0.50027 0.09666 0.72451 0.0
C1730 C 0.53294 0.0917 0.74572 0.0
C1731 C 0.53688 0.08632 0.72091 0.0
C1732 C 0.54261 0.09689 0.77038 0.0
C1733 C 0.53933 0.1033 0.79672 0.0
C1734 C 0.53647 0.11517 0.79376 0.0
C1735 C 0.53324 0.12105 0.81862 0.0
C1736 C 0.53292 0.11521 0.8466 0.0
C1737 C 0.53588 0.10351 0.84979 0.0
C1738 C 0.53911 0.09758 0.82499 0.0
C1739 C 0.59702 0.0947 0.72417 0.0
C1740 C 0.59955 0.0874 0.74771 0.0
C1741 C 0.58423 0.09603 0.72365 0.0
C1742 C 0.5736 0.08982 0.74637 0.0
C1743 C 0.57627 0.08275 0.77012 0.0
C1744 C 0.58913 0.08158 0.77083 0.0
C1745 C 0.55959 0.09047 0.74534 0.0
C1746 C 0.55579 0.09616 0.76989 0.0
C1747 C 0.54998 0.08545 0.72052 0.0
C1748 C 0.55287 0.07852 0.69456 0.0
C1749 C 0.55457 0.06595 0.69796 0.0
C1750 C 0.55742 0.05957 0.67341 0.0
C1751 C 0.55846 0.06558 0.64531 0.0
C1752 C 0.55661 0.07797 0.64169 0.0
C1753 C 0.55378 0.08441 0.66618 0.0
H1754 H 0.56067 0.06063 0.62633 0.0
H1755 H 0.53041 0.11978 0.86582 0.0
H1756 H 0.50017 0.60819 0.24438 0.0
H1757 H 0.47588 0.58522 0.24386 0.0
H1758 H 0.49779 0.55918 0.25106 0.0
H1759 H 0.52205 0.58205 0.25133 0.0
H1760 H 0.47653 0.54762 0.21064 0.0
H1761 H 0.48045 0.56517 0.31067 0.0
H1762 H 0.48394 0.58343 0.34931 0.0
H1763 H 0.44553 0.5848 0.31769 0.0
H1764 H 0.44193 0.56669 0.2786 0.0
H1765 H 0.41744 0.47769 0.25412 0.0
H1766 H 0.44028 0.50193 0.25353 0.0
H1767 H 0.41435 0.52377 0.24289 0.0
H1768 H 0.39135 0.49952 0.24446 0.0
H1769 H 0.43668 0.53817 0.28278 0.0
H1770 H 0.43204 0.51957 0.18432 0.0
H1771 H 0.42849 0.50112 0.14609 0.0
H1772 H 0.46829 0.50168 0.17492 0.0
H1773 H 0.47196 0.51998 0.21362 0.0
C1774 C 0.49978 0.59756 0.24604 0.0
C1775 C 0.51301 0.59691 0.24787 0.0
C1776 C 0.4859 0.58445 0.24575 0.0
C1777 C 0.485 0.57048 0.2477 0.0
C1778 C 0.49821 0.56983 0.24943 0.0
C1779 C 0.51206 0.5829 0.24952 0.0
C1780 C 0.47036 0.55646 0.24766 0.0
C1781 C 0.46788 0.5455 0.22662 0.0
C1782 C 0.4589 0.55386 0.26796 0.0
C1783 C 0.46102 0.5647 0.29153 0.0
C1784 C 0.47282 0.56945 0.31182 0.0
C1785 C 0.4748 0.57976 0.33382 0.0
C1786 C 0.46499 0.5853 0.3359 0.0
C1787 C 0.45314 0.58052 0.31602 0.0
C1788 C 0.45111 0.57022 0.29396 0.0
C1789 C 0.41656 0.48765 0.25203 0.0
C1790 C 0.40256 0.48666 0.24929 0.0
C1791 C 0.42964 0.50149 0.25139 0.0
C1792 C 0.42902 0.51464 0.24774 0.0
C1793 C 0.41508 0.51375 0.24556 0.0
C1794 C 0.40196 0.49988 0.24622 0.0
C1795 C 0.44298 0.52927 0.2461 0.0
C1796 C 0.44531 0.54035 0.26672 0.0
C1797 C 0.45432 0.53199 0.22544 0.0
C1798 C 0.45221 0.52106 0.20203 0.0
C1799 C 0.43998 0.51568 0.18265 0.0
C1800 C 0.43795 0.50526 0.16087 0.0
C1801 C 0.44814 0.50021 0.15812 0.0
C1802 C 0.4604 0.50559 0.17709 0.0
C1803 C 0.46247 0.516 0.19893 0.0
H1804 H 0.44655 0.49213 0.14125 0.0
H1805 H 0.46654 0.59328 0.35295 0.0
H1806 H 0.92938 0.51681 0.71734 0.0
H1807 H 0.92684 0.49206 0.71731 0.0
H1808 H 0.88956 0.47632 0.7772 0.0
H1809 H 0.89214 0.50117 0.7775 0.0
H1810 H 0.90788 0.46698 0.79455 0.0
H1811 H 0.88431 0.46633 0.70394 0.0
H1812 H 0.88158 0.47554 0.65547 0.0
H1813 H 0.91969 0.47387 0.62292 0.0
H1814 H 0.92278 0.46485 0.67134 0.0
H1815 H 0.88948 0.39075 0.77378 0.0
H1816 H 0.88774 0.41349 0.77373 0.0
H1817 H 0.92867 0.43628 0.72404 0.0
H1818 H 0.93083 0.41389 0.72485 0.0
H1819 H 0.90566 0.44052 0.70166 0.0
H1820 H 0.92981 0.44282 0.79456 0.0
H1821 H 0.93187 0.43326 0.84315 0.0
H1822 H 0.8912 0.43111 0.87113 0.0
H1823 H 0.88879 0.44047 0.82251 0.0
C1824 C 0.92052 0.50803 0.73021 0.0
C1825 C 0.9109 0.51092 0.7473 0.0
C1826 C 0.91907 0.49388 0.73018 0.0
C1827 C 0.90787 0.48226 0.74692 0.0
C1828 C 0.89827 0.48511 0.76409 0.0
C1829 C 0.89977 0.49931 0.76428 0.0
C1830 C 0.90651 0.46729 0.74708 0.0
C1831 C 0.9071 0.46107 0.77425 0.0
C1832 C 0.90568 0.45964 0.72059 0.0
C1833 C 0.90385 0.46503 0.69137 0.0
C1834 C 0.89218 0.46803 0.68652 0.0
C1835 C 0.89056 0.4732 0.65904 0.0
C1836 C 0.90047 0.47532 0.63615 0.0
C1837 C 0.91202 0.47224 0.64068 0.0
C1838 C 0.9137 0.46708 0.66813 0.0
C1839 C 0.8982 0.40063 0.7631 0.0
C1840 C 0.91029 0.40043 0.74928 0.0
C1841 C 0.89713 0.41358 0.76295 0.0
C1842 C 0.90808 0.42653 0.74888 0.0
C1843 C 0.92005 0.42635 0.73482 0.0
C1844 C 0.92121 0.41348 0.73519 0.0
C1845 C 0.90726 0.44041 0.74902 0.0
C1846 C 0.90625 0.44639 0.72192 0.0
C1847 C 0.90757 0.44776 0.77555 0.0
C1848 C 0.90903 0.44217 0.80479 0.0
C1849 C 0.92123 0.44018 0.81098 0.0
C1850 C 0.92248 0.43482 0.83854 0.0
C1851 C 0.91164 0.43153 0.86018 0.0
C1852 C 0.89956 0.43364 0.85433 0.0
C1853 C 0.89826 0.43897 0.82677 0.0
H1854 H 0.91263 0.42739 0.88152 0.0
H1855 H 0.8992 0.47932 0.61489 0.0
H1856 H 0.39487 0.90269 0.29843 0.0
H1857 H 0.41715 0.90012 0.29815 0.0
H1858 H 0.42792 0.91904 0.21052 0.0
H1859 H 0.40531 0.92097 0.21033 0.0
H1860 H 0.43333 0.89756 0.21265 0.0
H1861 H 0.44557 0.93935 0.27577 0.0
H1862 H 0.44236 0.95273 0.31762 0.0
H1863 H 0.44525 0.92245 0.37843 0.0
H1864 H 0.44828 0.90876 0.33689 0.0
H1865 H 0.51202 0.92604 0.21372 0.0
H1866 H 0.48755 0.92402 0.21584 0.0
H1867 H 0.47461 0.89201 0.28643 0.0
H1868 H 0.49878 0.89319 0.28344 0.0
H1869 H 0.46982 0.91825 0.29484 0.0
H1870 H 0.45953 0.87783 0.22835 0.0
H1871 H 0.46426 0.86653 0.18476 0.0
H1872 H 0.45946 0.89714 0.12811 0.0
H1873 H 0.45494 0.90878 0.17144 0.0
C1874 C 0.40202 0.90626 0.27914 0.0
C1875 C 0.39845 0.91206 0.25443 0.0
C1876 C 0.41477 0.90486 0.27902 0.0
C1877 C 0.42439 0.90963 0.25451 0.0
C1878 C 0.42069 0.91526 0.22968 0.0
C1879 C 0.40779 0.91638 0.22958 0.0
C1880 C 0.43837 0.90888 0.25466 0.0
C1881 C 0.44134 0.90221 0.23054 0.0
C1882 C 0.44878 0.91471 0.27819 0.0
C1883 C 0.44698 0.92294 0.30321 0.0
C1884 C 0.44541 0.93548 0.29806 0.0
C1885 C 0.44364 0.94313 0.32172 0.0
C1886 C 0.44356 0.93842 0.35066 0.0
C1887 C 0.44529 0.92607 0.356 0.0
C1888 C 0.44704 0.91837 0.33241 0.0
C1889 C 0.50393 0.91829 0.22931 0.0
C1890 C 0.50745 0.90971 0.24829 0.0
C1891 C 0.48998 0.91728 0.23064 0.0
C1892 C 0.47933 0.90786 0.25124 0.0
C1893 C 0.48275 0.89938 0.27044 0.0
C1894 C 0.49662 0.90017 0.26879 0.0
C1895 C 0.46471 0.9071 0.25281 0.0
C1896 C 0.46168 0.91349 0.27718 0.0
C1897 C 0.45441 0.90131 0.22928 0.0
C1898 C 0.45704 0.89427 0.20318 0.0
C1899 C 0.45962 0.88224 0.20663 0.0
C1900 C 0.46224 0.87575 0.18196 0.0
C1901 C 0.4622 0.88114 0.15369 0.0
C1902 C 0.45951 0.89299 0.15003 0.0
C1903 C 0.4569 0.89953 0.17463 0.0
H1904 H 0.46422 0.8761 0.13462 0.0
H1905 H 0.44219 0.94435 0.36896 0.0
H1906 H 0.60607 0.49975 0.73547 0.0
H1907 H 0.58324 0.47537 0.73691 0.0
H1908 H 0.56133 0.49441 0.787 0.0
H1909 H 0.58425 0.51867 0.78628 0.0
H1910 H 0.55423 0.46856 0.809 0.0
H1911 H 0.55545 0.48689 0.71112 0.0
H1912 H 0.56622 0.49694 0.66217 0.0
H1913 H 0.56902 0.4577 0.64384 0.0
H1914 H 0.55845 0.44751 0.69287 0.0
H1915 H 0.47846 0.41519 0.77838 0.0
H1916 H 0.50292 0.43771 0.77988 0.0
H1917 H 0.52323 0.41299 0.74687 0.0
H1918 H 0.49887 0.39016 0.74649 0.0
H1919 H 0.53169 0.44053 0.71658 0.0
H1920 H 0.52854 0.42188 0.81498 0.0
H1921 H 0.51667 0.41224 0.86334 0.0
H1922 H 0.51623 0.45288 0.87979 0.0
H1923 H 0.5279 0.46268 0.8313 0.0
C1924 C 0.59635 0.4987 0.74673 0.0
C1925 C 0.5969 0.51109 0.76069 0.0
C1926 C 0.58331 0.48479 0.74749 0.0
C1927 C 0.57047 0.48309 0.76169 0.0
C1928 C 0.57108 0.49543 0.77595 0.0
C1929 C 0.58418 0.50928 0.77553 0.0
C1930 C 0.55638 0.46849 0.76167 0.0
C1931 C 0.54924 0.46253 0.78873 0.0
C1932 C 0.54998 0.46043 0.7353 0.0
C1933 C 0.55632 0.46652 0.70579 0.0
C1934 C 0.55847 0.48046 0.69674 0.0
C1935 C 0.56452 0.48617 0.66897 0.0
C1936 C 0.56834 0.47798 0.64994 0.0
C1937 C 0.56608 0.46405 0.65862 0.0
C1938 C 0.56006 0.45829 0.68639 0.0
C1939 C 0.48812 0.4144 0.77198 0.0
C1940 C 0.48663 0.40077 0.76244 0.0
C1941 C 0.50209 0.42733 0.77266 0.0
C1942 C 0.51485 0.42696 0.76359 0.0
C1943 C 0.51347 0.41347 0.75388 0.0
C1944 C 0.49952 0.40046 0.75354 0.0
C1945 C 0.52957 0.44078 0.7638 0.0
C1946 C 0.53678 0.44656 0.7368 0.0
C1947 C 0.53592 0.44879 0.79014 0.0
C1948 C 0.52898 0.44296 0.81938 0.0
C1949 C 0.5258 0.42871 0.82879 0.0
C1950 C 0.51913 0.42323 0.85625 0.0
C1951 C 0.51566 0.43193 0.8746 0.0
C1952 C 0.5189 0.44615 0.86554 0.0
C1953 C 0.52556 0.45168 0.83809 0.0
H1954 H 0.5105 0.42767 0.89585 0.0
H1955 H 0.57302 0.48242 0.62844 0.0
H1956 H 0.14735 0.39952 0.20559 0.0
H1957 H 0.17103 0.39949 0.20568 0.0
H1958 H 0.17963 0.41669 0.2946 0.0
H1959 H 0.15588 0.4166 0.29474 0.0
H1960 H 0.2041 0.43201 0.25339 0.0
H1961 H 0.16925 0.38241 0.28766 0.0
H1962 H 0.14634 0.35783 0.28492 0.0
H1963 H 0.16083 0.34902 0.20235 0.0
H1964 H 0.18374 0.37366 0.20438 0.0
H1965 H 0.26586 0.4233 0.28657 0.0
H1966 H 0.24203 0.42265 0.28736 0.0
H1967 H 0.22843 0.39559 0.20858 0.0
H1968 H 0.25181 0.39524 0.20886 0.0
H1969 H 0.2062 0.38531 0.24447 0.0
H1970 H 0.24047 0.43409 0.20823 0.0
H1971 H 0.2632 0.45887 0.2081 0.0
H1972 H 0.24986 0.4697 0.28989 0.0
H1973 H 0.22713 0.44489 0.29071 0.0
C1974 C 0.15432 0.40331 0.22511 0.0
C1975 C 0.14982 0.40804 0.25018 0.0
C1976 C 0.16777 0.40323 0.22518 0.0
C1977 C 0.17701 0.40804 0.25019 0.0
C1978 C 0.17262 0.41292 0.27513 0.0
C1979 C 0.15906 0.41279 0.27524 0.0
C1980 C 0.19131 0.40809 0.2502 0.0
C1981 C 0.20461 0.42181 0.25184 0.0
C1982 C 0.19188 0.39479 0.24723 0.0
C1983 C 0.17813 0.37995 0.24603 0.0
C1984 C 0.16749 0.37529 0.26878 0.0
C1985 C 0.15452 0.36133 0.26738 0.0
C1986 C 0.15211 0.35188 0.24343 0.0
C1987 C 0.1627 0.35636 0.22086 0.0
C1988 C 0.17568 0.37032 0.22214 0.0
C1989 C 0.25775 0.41702 0.26961 0.0
C1990 C 0.26084 0.40933 0.24762 0.0
C1991 C 0.24418 0.41685 0.26984 0.0
C1992 C 0.23351 0.4093 0.24771 0.0
C1993 C 0.23651 0.40157 0.22581 0.0
C1994 C 0.24999 0.40154 0.2258 0.0
C1995 C 0.21915 0.40929 0.24766 0.0
C1996 C 0.20579 0.39556 0.24599 0.0
C1997 C 0.21854 0.42263 0.25014 0.0
C1998 C 0.23217 0.43758 0.24967 0.0
C1999 C 0.24244 0.44171 0.2263 0.0
C2000 C 0.25531 0.45577 0.22608 0.0
C2001 C 0.25799 0.46584 0.24901 0.0
C2002 C 0.24778 0.46188 0.27216 0.0
C2003 C 0.23489 0.44783 0.2725 0.0
H2004 H 0.26797 0.47672 0.2488 0.0
H2005 H 0.14206 0.34108 0.24239 0.0
H2006 H 0.85963 0.24643 0.77894 0.0
H2007 H 0.83626 0.22265 0.7803 0.0
H2008 H 0.81388 0.24275 0.73559 0.0
H2009 H 0.83703 0.26676 0.73544 0.0
H2010 H 0.79717 0.22561 0.77924 0.0
H2011 H 0.82447 0.22015 0.69906 0.0
H2012 H 0.84603 0.22042 0.6752 0.0
H2013 H 0.84253 0.18669 0.73519 0.0
H2014 H 0.82107 0.18636 0.75967 0.0
H2015 H 0.73244 0.16016 0.73171 0.0
H2016 H 0.75607 0.18367 0.73364 0.0
H2017 H 0.77598 0.16213 0.78201 0.0
H2018 H 0.75246 0.13841 0.77936 0.0
H2019 H 0.79408 0.17969 0.7382 0.0
H2020 H 0.76604 0.18472 0.81723 0.0
H2021 H 0.74426 0.18439 0.84011 0.0
H2022 H 0.74894 0.21896 0.78115 0.0
H2023 H 0.77064 0.21935 0.75762 0.0
C2024 C 0.84971 0.24586 0.7697 0.0
C2025 C 0.85023 0.25852 0.75701 0.0
C2026 C 0.83639 0.2322 0.77019 0.0
C2027 C 0.82337 0.23086 0.75767 0.0
C2028 C 0.82381 0.2435 0.74527 0.0
C2029 C 0.8371 0.25719 0.74493 0.0
C2030 C 0.80925 0.21633 0.75763 0.0
C2031 C 0.79646 0.21561 0.76994 0.0
C2032 C 0.80839 0.2032 0.74614 0.0
C2033 C 0.82126 0.20334 0.73138 0.0
C2034 C 0.82837 0.21287 0.70731 0.0
C2035 C 0.84056 0.21302 0.69365 0.0
C2036 C 0.84567 0.20361 0.70372 0.0
C2037 C 0.83858 0.19399 0.72743 0.0
C2038 C 0.82639 0.19381 0.74119 0.0
C2039 C 0.74187 0.16039 0.74258 0.0
C2040 C 0.74057 0.14741 0.7554 0.0
C2041 C 0.75533 0.17387 0.74391 0.0
C2042 C 0.76773 0.17469 0.75827 0.0
C2043 C 0.76652 0.16175 0.77093 0.0
C2044 C 0.75304 0.14824 0.76962 0.0
C2045 C 0.78201 0.18901 0.75963 0.0
C2046 C 0.79482 0.18969 0.74759 0.0
C2047 C 0.78287 0.20212 0.77125 0.0
C2048 C 0.76989 0.20197 0.7855 0.0
C2049 C 0.76236 0.19217 0.809 0.0
C2050 C 0.75004 0.19199 0.82211 0.0
C2051 C 0.7452 0.20163 0.81205 0.0
C2052 C 0.7527 0.2115 0.7889 0.0
C2053 C 0.76502 0.21172 0.77569 0.0
H2054 H 0.73566 0.20146 0.82223 0.0
H2055 H 0.85511 0.20374 0.69312 0.0
H2056 H 0.56648 0.72908 0.24358 0.0
H2057 H 0.56633 0.75261 0.2438 0.0
H2058 H 0.61358 0.77655 0.26162 0.0
H2059 H 0.61392 0.75309 0.2609 0.0
H2060 H 0.59806 0.78587 0.29675 0.0
H2061 H 0.60164 0.77702 0.19382 0.0
H2062 H 0.59421 0.76243 0.14767 0.0
H2063 H 0.55146 0.75973 0.15111 0.0
H2064 H 0.55857 0.77412 0.19754 0.0
H2065 H 0.61166 0.8588 0.26405 0.0
H2066 H 0.61198 0.83534 0.26515 0.0
H2067 H 0.56535 0.81129 0.24158 0.0
H2068 H 0.56497 0.83472 0.24038 0.0
H2069 H 0.5807 0.80199 0.20951 0.0
H2070 H 0.57685 0.81072 0.3122 0.0
H2071 H 0.58398 0.82507 0.35863 0.0
H2072 H 0.62674 0.82778 0.35615 0.0
H2073 H 0.61994 0.81361 0.30945 0.0
C2074 C 0.57688 0.73935 0.24723 0.0
C2075 C 0.59023 0.73919 0.25208 0.0
C2076 C 0.57676 0.75278 0.24747 0.0
C2077 C 0.58997 0.76631 0.25249 0.0
C2078 C 0.60326 0.7662 0.25777 0.0
C2079 C 0.60342 0.75278 0.25745 0.0
C2080 C 0.58991 0.78059 0.25212 0.0
C2081 C 0.59446 0.78952 0.27756 0.0
C2082 C 0.58487 0.78513 0.2273 0.0
C2083 C 0.58059 0.77652 0.19932 0.0
C2084 C 0.59061 0.77321 0.18487 0.0
C2085 C 0.58647 0.76499 0.15864 0.0
C2086 C 0.57236 0.76012 0.14651 0.0
C2087 C 0.56238 0.76349 0.16056 0.0
C2088 C 0.56647 0.77169 0.18682 0.0
C2089 C 0.60144 0.8485 0.25941 0.0
C2090 C 0.58828 0.8486 0.25218 0.0
C2091 C 0.60164 0.8351 0.26002 0.0
C2092 C 0.58865 0.82154 0.25373 0.0
C2093 C 0.57551 0.82162 0.24645 0.0
C2094 C 0.57532 0.83502 0.24571 0.0
C2095 C 0.58882 0.8073 0.25419 0.0
C2096 C 0.5843 0.79837 0.22874 0.0
C2097 C 0.59384 0.80274 0.27905 0.0
C2098 C 0.59794 0.81123 0.30717 0.0
C2099 C 0.58782 0.81448 0.32143 0.0
C2100 C 0.5918 0.82256 0.34781 0.0
C2101 C 0.60582 0.82737 0.36029 0.0
C2102 C 0.61589 0.82407 0.34644 0.0
C2103 C 0.61198 0.816 0.32002 0.0
H2104 H 0.60888 0.83363 0.38072 0.0
H2105 H 0.56917 0.75377 0.12619 0.0
H2106 H 0.84166 0.57667 0.78355 0.0
H2107 H 0.81787 0.5763 0.78405 0.0
H2108 H 0.83187 0.6058 0.70883 0.0
H2109 H 0.85591 0.60666 0.70882 0.0
H2110 H 0.81874 0.61418 0.74994 0.0
H2111 H 0.80758 0.56862 0.70078 0.0
H2112 H 0.80683 0.54456 0.69517 0.0
H2113 H 0.77979 0.52792 0.77309 0.0
H2114 H 0.78055 0.55198 0.7794 0.0
H2115 H 0.74785 0.6041 0.71183 0.0
H2116 H 0.77172 0.60459 0.71102 0.0
H2117 H 0.75761 0.57431 0.78503 0.0
H2118 H 0.73366 0.57369 0.7858 0.0
H2119 H 0.77084 0.56634 0.74432 0.0
H2120 H 0.78205 0.61179 0.79381 0.0
H2121 H 0.78283 0.63585 0.79985 0.0
H2122 H 0.80981 0.6527 0.72191 0.0
H2123 H 0.80902 0.62865 0.71517 0.0
C2124 C 0.83974 0.5832 0.76729 0.0
C2125 C 0.85067 0.59167 0.74609 0.0
C2126 C 0.82608 0.58286 0.76743 0.0
C2127 C 0.82303 0.59087 0.74623 0.0
C2128 C 0.83397 0.59948 0.72529 0.0
C2129 C 0.84765 0.59986 0.72516 0.0
C2130 C 0.80844 0.59031 0.746 0.0
C2131 C 0.80826 0.60374 0.7483 0.0
C2132 C 0.79478 0.57665 0.74457 0.0
C2133 C 0.79424 0.56215 0.74071 0.0
C2134 C 0.80156 0.55987 0.71685 0.0
C2135 C 0.80112 0.54623 0.71352 0.0
C2136 C 0.7933 0.53473 0.7338 0.0
C2137 C 0.78586 0.53684 0.75742 0.0
C2138 C 0.78628 0.55048 0.76086 0.0
C2139 C 0.74988 0.59762 0.72804 0.0
C2140 C 0.73893 0.58891 0.74897 0.0
C2141 C 0.76352 0.59791 0.72755 0.0
C2142 C 0.76652 0.58965 0.74823 0.0
C2143 C 0.75552 0.58077 0.76888 0.0
C2144 C 0.74185 0.5804 0.76926 0.0
C2145 C 0.78112 0.59021 0.74827 0.0
C2146 C 0.78131 0.57678 0.74594 0.0
C2147 C 0.79479 0.60387 0.74974 0.0
C2148 C 0.79535 0.61837 0.75384 0.0
C2149 C 0.78806 0.62059 0.77784 0.0
C2150 C 0.78852 0.63423 0.7814 0.0
C2151 C 0.79634 0.64578 0.76123 0.0
C2152 C 0.80375 0.64373 0.73749 0.0
C2153 C 0.80331 0.6301 0.7338 0.0
H2154 H 0.79668 0.65634 0.76403 0.0
H2155 H 0.79297 0.52418 0.73119 0.0
H2156 H 0.24393 0.85953 0.2463 0.0
H2157 H 0.22068 0.83563 0.24481 0.0
H2158 H 0.24537 0.81247 0.25518 0.0
H2159 H 0.26874 0.83635 0.25562 0.0
H2160 H 0.22425 0.7996 0.21335 0.0
H2161 H 0.22657 0.81625 0.31306 0.0
H2162 H 0.22914 0.83392 0.35226 0.0
H2163 H 0.19017 0.83405 0.3202 0.0
H2164 H 0.18747 0.81654 0.28054 0.0
H2165 H 0.16281 0.72872 0.25028 0.0
H2166 H 0.18623 0.7525 0.25113 0.0
H2167 H 0.16192 0.77605 0.24099 0.0
H2168 H 0.1384 0.75233 0.24118 0.0
H2169 H 0.18295 0.78865 0.28283 0.0
H2170 H 0.18064 0.77198 0.18306 0.0
H2171 H 0.17807 0.75427 0.14395 0.0
H2172 H 0.217 0.75411 0.17619 0.0
H2173 H 0.21969 0.77167 0.21577 0.0
C2174 C 0.24444 0.84936 0.248 0.0
C2175 C 0.25819 0.84985 0.25114 0.0
C2176 C 0.23112 0.83571 0.24744 0.0
C2177 C 0.23129 0.82228 0.25025 0.0
C2178 C 0.24499 0.82271 0.2531 0.0
C2179 C 0.25832 0.83636 0.25362 0.0
C2180 C 0.21715 0.80779 0.25001 0.0
C2181 C 0.21529 0.79711 0.2288 0.0
C2182 C 0.20535 0.8047 0.26975 0.0
C2183 C 0.2069 0.81519 0.29366 0.0
C2184 C 0.21861 0.82014 0.31423 0.0
C2185 C 0.22008 0.83011 0.33656 0.0
C2186 C 0.20985 0.83514 0.33868 0.0
C2187 C 0.1981 0.83017 0.31851 0.0
C2188 C 0.19658 0.8202 0.29612 0.0
C2189 C 0.16243 0.73896 0.24845 0.0
C2190 C 0.14874 0.73863 0.24564 0.0
C2191 C 0.17584 0.75253 0.24864 0.0
C2192 C 0.17583 0.76603 0.24579 0.0
C2193 C 0.16218 0.76575 0.24311 0.0
C2194 C 0.14877 0.75219 0.24296 0.0
C2195 C 0.19003 0.78047 0.24612 0.0
C2196 C 0.1919 0.79113 0.26737 0.0
C2197 C 0.20184 0.78353 0.22643 0.0
C2198 C 0.20028 0.77303 0.20256 0.0
C2199 C 0.18859 0.76808 0.18195 0.0
C2200 C 0.18712 0.75808 0.15967 0.0
C2201 C 0.19734 0.75304 0.15763 0.0
C2202 C 0.20908 0.75801 0.17782 0.0
C2203 C 0.21059 0.768 0.20017 0.0
H2204 H 0.19618 0.7453 0.14037 0.0
H2205 H 0.211 0.84286 0.35598 0.0
H2206 H 0.43072 0.26847 0.76262 0.0
H2207 H 0.43061 0.24487 0.76159 0.0
H2208 H 0.38576 0.2228 0.72698 0.0
H2209 H 0.38544 0.24619 0.72964 0.0
H2210 H 0.38788 0.20618 0.76752 0.0
H2211 H 0.41678 0.23184 0.68277 0.0
H2212 H 0.43678 0.2527 0.65486 0.0
H2213 H 0.46983 0.24988 0.70733 0.0
H2214 H 0.45002 0.22912 0.73586 0.0
H2215 H 0.38852 0.14044 0.72165 0.0
H2216 H 0.38827 0.164 0.7201 0.0
H2217 H 0.42938 0.18554 0.76952 0.0
H2218 H 0.42968 0.16202 0.77116 0.0
H2219 H 0.42879 0.20201 0.71973 0.0
H2220 H 0.39888 0.17626 0.80487 0.0
H2221 H 0.37835 0.15496 0.83087 0.0
H2222 H 0.34644 0.15754 0.77427 0.0
H2223 H 0.36682 0.17873 0.74763 0.0
C2224 C 0.42075 0.25858 0.75512 0.0
C2225 C 0.40809 0.25928 0.74619 0.0
C2226 C 0.42078 0.24511 0.75414 0.0
C2227 C 0.40827 0.23209 0.74373 0.0
C2228 C 0.39559 0.23272 0.73494 0.0
C2229 C 0.39548 0.24615 0.73619 0.0
C2230 C 0.4083 0.21777 0.74257 0.0
C2231 C 0.39671 0.20524 0.75665 0.0
C2232 C 0.41994 0.21656 0.7288 0.0
C2233 C 0.4319 0.22901 0.71164 0.0
C2234 C 0.42831 0.23574 0.68851 0.0
C2235 C 0.43961 0.24753 0.67255 0.0
C2236 C 0.45457 0.25264 0.67936 0.0
C2237 C 0.45824 0.24593 0.7021 0.0
C2238 C 0.44698 0.23414 0.71816 0.0
C2239 C 0.39754 0.15023 0.732 0.0
C2240 C 0.40909 0.14942 0.74661 0.0
C2241 C 0.39735 0.16363 0.73122 0.0
C2242 C 0.40877 0.17645 0.74483 0.0
C2243 C 0.42047 0.17574 0.75893 0.0
C2244 C 0.42057 0.16231 0.76001 0.0
C2245 C 0.40843 0.19057 0.74473 0.0
C2246 C 0.41995 0.20302 0.73044 0.0
C2247 C 0.39665 0.19167 0.75797 0.0
C2248 C 0.38438 0.17898 0.77406 0.0
C2249 C 0.3875 0.1722 0.7978 0.0
C2250 C 0.37589 0.16016 0.81269 0.0
C2251 C 0.3611 0.15487 0.80418 0.0
C2252 C 0.3579 0.16163 0.78081 0.0
C2253 C 0.36947 0.17367 0.76582 0.0
H2254 H 0.35213 0.14555 0.81573 0.0
H2255 H 0.4633 0.26177 0.66698 0.0
loop_
_geom_bond_atom_site_label_1
_geom_bond_atom_site_label_2
_geom_bond_distance
_geom_bond_site_symmetry_2
_ccdc_geom_bond_type
Li0 N17 1.990 . S
Li0 O60 1.956 . S
Li0 O61 1.970 . S
Li0 O62 1.961 . S
Li1 N25 1.990 . S
Li1 O60 1.970 . S
Li1 O61 1.956 . S
Li1 O63 1.961 . S
Li2 N47 1.990 . S
Li2 O60 1.961 . S
Li2 O62 1.956 . S
Li2 O63 1.970 . S
Li3 N53 1.990 . S
Li3 O61 1.961 . S
Li3 O62 1.970 . S
Li3 O63 1.956 . S
C4 C6 1.348 . S
C4 C7 1.356 . S
C4 O60 1.325 . S
N5 C8 1.314 . S
N5 C9 1.279 . S
C6 C4 1.348 . S
C6 C8 1.353 . S
C6 H64 0.929 . S
C7 C4 1.356 . S
C7 C9 1.358 . S
C7 H65 0.930 . S
C8 N5 1.314 . S
C8 C6 1.353 . S
C8 H66 0.930 . S
C9 N5 1.279 . S
C9 C7 1.358 . S
C9 H67 0.930 . S
C10 C13 1.348 . S
C10 C14 1.356 . S
C10 O61 1.325 . S
C11 N12 1.279 . S
C11 C14 1.358 . S
C11 H68 0.930 . S
N12 C11 1.279 . S
N12 C15 1.314 . S
C13 C10 1.348 . S
C13 C15 1.353 . S
C13 H69 0.929 . S
C14 C10 1.356 . S
C14 C11 1.358 . S
C14 H70 0.930 . S
C15 N12 1.314 . S
C15 C13 1.353 . S
C15 H71 0.930 . S
C16 N17 1.314 . S
C16 C21 1.353 . S
C16 H22 0.930 . S
N17 Li0 1.990 . S
N17 C16 1.314 . S
N17 C19 1.279 . S
C18 C19 1.358 . S
C18 C20 1.356 . S
C18 H72 0.930 . S
C19 N17 1.279 . S
C19 C18 1.358 . S
C19 H23 0.930 . S
C20 C18 1.356 . S
C20 C21 1.348 . S
C21 C16 1.353 . S
C21 C20 1.348 . S
C21 H73 0.929 . S
H22 C16 0.930 . S
H23 C19 0.930 . S
C24 N25 1.314 . S
C24 C26 1.353 . S
C24 H30 0.930 . S
N25 Li1 1.990 . S
N25 C24 1.314 . S
N25 C28 1.279 . S
C26 C24 1.353 . S
C26 C29 1.348 . S
C26 H74 0.929 . S
C27 C28 1.358 . S
C27 C29 1.356 . S
C27 H75 0.930 . S
C28 N25 1.279 . S
C28 C27 1.358 . S
C28 H31 0.930 . S
C29 C26 1.348 . S
C29 C27 1.356 . S
H30 C24 0.930 . S
H31 C28 0.930 . S
C32 C34 1.348 . S
C32 C35 1.356 . S
C32 O62 1.325 . S
N33 C36 1.314 . S
N33 C37 1.279 . S
C34 C32 1.348 . S
C34 C36 1.353 . S
C34 H76 0.929 . S
C35 C32 1.356 . S
C35 C37 1.358 . S
C35 H77 0.930 . S
C36 N33 1.314 . S
C36 C34 1.353 . S
C36 H78 0.930 . S
C37 N33 1.279 . S
C37 C35 1.358 . S
C37 H79 0.930 . S
C38 C39 1.348 . S
C38 C40 1.356 . S
C38 O63 1.325 . S
C39 C38 1.348 . S
C39 C41 1.353 . S
C39 H80 0.929 . S
C40 C38 1.356 . S
C40 C42 1.358 . S
C40 H81 0.930 . S
C41 C39 1.353 . S
C41 N43 1.314 . S
C41 H82 0.930 . S
C42 C40 1.358 . S
C42 N43 1.279 . S
C42 H83 0.930 . S
N43 C41 1.314 . S
N43 C42 1.279 . S
C44 C46 1.353 . S
C44 N47 1.314 . S
C44 H50 0.930 . S
C45 N47 1.279 . S
C45 C48 1.358 . S
C45 H51 0.930 . S
C46 C44 1.353 . S
C46 C49 1.348 . S
C46 H84 0.929 . S
N47 Li2 1.990 . S
N47 C44 1.314 . S
N47 C45 1.279 . S
C48 C45 1.358 . S
C48 C49 1.356 . S
C48 H85 0.930 . S
C49 C46 1.348 . S
C49 C48 1.356 . S
H50 C44 0.930 . S
H51 C45 0.930 . S
C52 N53 1.314 . S
C52 C54 1.353 . S
C52 H58 0.930 . S
N53 Li3 1.990 . S
N53 C52 1.314 . S
N53 C56 1.279 . S
C54 C52 1.353 . S
C54 C57 1.348 . S
C54 H86 0.929 . S
C55 C56 1.358 . S
C55 C57 1.356 . S
C55 H87 0.930 . S
C56 N53 1.279 . S
C56 C55 1.358 . S
C56 H59 0.930 . S
C57 C54 1.348 . S
C57 C55 1.356 . S
H58 C52 0.930 . S
H59 C56 0.930 . S
O60 Li0 1.956 . S
O60 Li1 1.970 . S
O60 Li2 1.961 . S
O60 C4 1.325 . S
O61 Li0 1.970 . S
O61 Li1 1.956 . S
O61 Li3 1.961 . S
O61 C10 1.325 . S
O62 Li0 1.961 . S
O62 Li2 1.956 . S
O62 Li3 1.970 . S
O62 C32 1.325 . S
O63 Li1 1.961 . S
O63 Li2 1.970 . S
O63 Li3 1.956 . S
O63 C38 1.325 . S
H64 C6 0.929 . S
H65 C7 0.930 . S
H66 C8 0.930 . S
H67 C9 0.930 . S
H68 C11 0.930 . S
H69 C13 0.929 . S
H70 C14 0.930 . S
H71 C15 0.930 . S
H72 C18 0.930 . S
H73 C21 0.929 . S
H74 C26 0.929 . S
H75 C27 0.930 . S
H76 C34 0.929 . S
H77 C35 0.930 . S
H78 C36 0.930 . S
H79 C37 0.930 . S
H80 C39 0.929 . S
H81 C40 0.930 . S
H82 C41 0.930 . S
H83 C42 0.930 . S
H84 C46 0.929 . S
H85 C48 0.930 . S
H86 C54 0.929 . S
H87 C55 0.930 . S
Li88 N105 1.990 . S
Li88 O148 1.956 . S
Li88 O149 1.970 . S
Li88 O150 1.961 . S
Li89 N113 1.990 . S
Li89 O148 1.970 . S
Li89 O149 1.956 . S
Li89 O151 1.961 . S
Li90 N135 1.990 . S
Li90 O148 1.961 . S
Li90 O150 1.956 . S
Li90 O151 1.970 . S
Li91 N141 1.990 . S
Li91 O149 1.961 . S
Li91 O150 1.970 . S
Li91 O151 1.956 . S
C92 C94 1.348 . S
C92 C95 1.356 . S
C92 O148 1.325 . S
N93 C96 1.314 . S
N93 C97 1.279 . S
C94 C92 1.348 . S
C94 C96 1.353 . S
C94 H152 0.929 . S
C95 C92 1.356 . S
C95 C97 1.358 . S
C95 H153 0.930 . S
C96 N93 1.314 . S
C96 C94 1.353 . S
C96 H154 0.930 . S
C97 N93 1.279 . S
C97 C95 1.358 . S
C97 H155 0.930 . S
C98 C101 1.348 . S
C98 C102 1.356 . S
C98 O149 1.325 . S
C99 N100 1.279 . S
C99 C102 1.358 . S
C99 H156 0.930 . S
N100 C99 1.279 . S
N100 C103 1.314 . S
C101 C98 1.348 . S
C101 C103 1.353 . S
C101 H157 0.929 . S
C102 C98 1.356 . S
C102 C99 1.358 . S
C102 H158 0.930 . S
C103 N100 1.314 . S
C103 C101 1.353 . S
C103 H159 0.930 . S
C104 N105 1.314 . S
C104 C109 1.353 . S
C104 H110 0.930 . S
N105 Li88 1.990 . S
N105 C104 1.314 . S
N105 C107 1.279 . S
C106 C107 1.358 . S
C106 C108 1.356 . S
C106 H160 0.930 . S
C107 N105 1.279 . S
C107 C106 1.358 . S
C107 H111 0.930 . S
C108 C106 1.356 . S
C108 C109 1.348 . S
C109 C104 1.353 . S
C109 C108 1.348 . S
C109 H161 0.929 . S
H110 C104 0.930 . S
H111 C107 0.930 . S
C112 N113 1.314 . S
C112 C114 1.353 . S
C112 H118 0.930 . S
N113 Li89 1.990 . S
N113 C112 1.314 . S
N113 C116 1.279 . S
C114 C112 1.353 . S
C114 C117 1.348 . S
C114 H162 0.929 . S
C115 C116 1.358 . S
C115 C117 1.356 . S
C115 H163 0.930 . S
C116 N113 1.279 . S
C116 C115 1.358 . S
C116 H119 0.930 . S
C117 C114 1.348 . S
C117 C115 1.356 . S
H118 C112 0.930 . S
H119 C116 0.930 . S
C120 C122 1.348 . S
C120 C123 1.356 . S
C120 O150 1.325 . S
N121 C124 1.314 . S
N121 C125 1.279 . S
C122 C120 1.348 . S
C122 C124 1.353 . S
C122 H164 0.929 . S
C123 C120 1.356 . S
C123 C125 1.358 . S
C123 H165 0.930 . S
C124 N121 1.314 . S
C124 C122 1.353 . S
C124 H166 0.930 . S
C125 N121 1.279 . S
C125 C123 1.358 . S
C125 H167 0.930 . S
C126 C127 1.348 . S
C126 C128 1.356 . S
C126 O151 1.325 . S
C127 C126 1.348 . S
C127 C129 1.353 . S
C127 H168 0.929 . S
C128 C126 1.356 . S
C128 C130 1.358 . S
C128 H169 0.930 . S
C129 C127 1.353 . S
C129 N131 1.314 . S
C129 H170 0.930 . S
C130 C128 1.358 . S
C130 N131 1.279 . S
C130 H171 0.930 . S
N131 C129 1.314 . S
N131 C130 1.279 . S
C132 C134 1.353 . S
C132 N135 1.314 . S
C132 H138 0.930 . S
C133 N135 1.279 . S
C133 C136 1.358 . S
C133 H139 0.930 . S
C134 C132 1.353 . S
C134 C137 1.348 . S
C134 H172 0.929 . S
N135 Li90 1.990 . S
N135 C132 1.314 . S
N135 C133 1.279 . S
C136 C133 1.358 . S
C136 C137 1.356 . S
C136 H173 0.930 . S
C137 C134 1.348 . S
C137 C136 1.356 . S
H138 C132 0.930 . S
H139 C133 0.930 . S
C140 N141 1.314 . S
C140 C142 1.353 . S
C140 H146 0.930 . S
N141 Li91 1.990 . S
N141 C140 1.314 . S
N141 C144 1.279 . S
C142 C140 1.353 . S
C142 C145 1.348 . S
C142 H174 0.929 . S
C143 C144 1.358 . S
C143 C145 1.356 . S
C143 H175 0.930 . S
C144 N141 1.279 . S
C144 C143 1.358 . S
C144 H147 0.930 . S
C145 C142 1.348 . S
C145 C143 1.356 . S
H146 C140 0.930 . S
H147 C144 0.930 . S
O148 Li88 1.956 . S
O148 Li89 1.970 . S
O148 Li90 1.961 . S
O148 C92 1.325 . S
O149 Li88 1.970 . S
O149 Li89 1.956 . S
O149 Li91 1.961 . S
O149 C98 1.325 . S
O150 Li88 1.961 . S
O150 Li90 1.956 . S
O150 Li91 1.970 . S
O150 C120 1.325 . S
O151 Li89 1.961 . S
O151 Li90 1.970 . S
O151 Li91 1.956 . S
O151 C126 1.325 . S
H152 C94 0.929 . S
H153 C95 0.930 . S
H154 C96 0.930 . S
H155 C97 0.930 . S
H156 C99 0.930 . S
H157 C101 0.929 . S
H158 C102 0.930 . S
H159 C103 0.930 . S
H160 C106 0.930 . S
H161 C109 0.929 . S
H162 C114 0.929 . S
H163 C115 0.930 . S
H164 C122 0.929 . S
H165 C123 0.930 . S
H166 C124 0.930 . S
H167 C125 0.930 . S
H168 C127 0.929 . S
H169 C128 0.930 . S
H170 C129 0.930 . S
H171 C130 0.930 . S
H172 C134 0.929 . S
H173 C136 0.930 . S
H174 C142 0.929 . S
H175 C143 0.930 . S
Li176 N193 1.990 . S
Li176 O236 1.956 . S
Li176 O237 1.970 . S
Li176 O238 1.961 . S
Li177 N201 1.990 . S
Li177 O236 1.970 . S
Li177 O237 1.956 . S
Li177 O239 1.961 . S
Li178 N223 1.990 . S
Li178 O236 1.961 . S
Li178 O238 1.956 . S
Li178 O239 1.970 . S
Li179 N229 1.990 . S
Li179 O237 1.961 . S
Li179 O238 1.970 . S
Li179 O239 1.956 . S
C180 C182 1.348 . S
C180 C183 1.356 . S
C180 O236 1.325 . S
N181 C184 1.314 . S
N181 C185 1.279 . S
C182 C180 1.348 . S
C182 C184 1.353 . S
C182 H240 0.929 . S
C183 C180 1.356 . S
C183 C185 1.358 . S
C183 H241 0.930 . S
C184 N181 1.314 . S
C184 C182 1.353 . S
C184 H242 0.930 . S
C185 N181 1.279 . S
C185 C183 1.358 . S
C185 H243 0.930 . S
C186 C189 1.348 . S
C186 C190 1.356 . S
C186 O237 1.325 . S
C187 N188 1.279 . S
C187 C190 1.358 . S
C187 H244 0.930 . S
N188 C187 1.279 . S
N188 C191 1.314 . S
C189 C186 1.348 . S
C189 C191 1.353 . S
C189 H245 0.929 . S
C190 C186 1.356 . S
C190 C187 1.358 . S
C190 H246 0.930 . S
C191 N188 1.314 . S
C191 C189 1.353 . S
C191 H247 0.930 . S
C192 N193 1.314 . S
C192 C197 1.353 . S
C192 H198 0.930 . S
N193 Li176 1.990 . S
N193 C192 1.314 . S
N193 C195 1.279 . S
C194 C195 1.358 . S
C194 C196 1.356 . S
C194 H248 0.930 . S
C195 N193 1.279 . S
C195 C194 1.358 . S
C195 H199 0.930 . S
C196 C194 1.356 . S
C196 C197 1.348 . S
C197 C192 1.353 . S
C197 C196 1.348 . S
C197 H249 0.929 . S
H198 C192 0.930 . S
H199 C195 0.930 . S
C200 N201 1.314 . S
C200 C202 1.353 . S
C200 H206 0.930 . S
N201 Li177 1.990 . S
N201 C200 1.314 . S
N201 C204 1.279 . S
C202 C200 1.353 . S
C202 C205 1.348 . S
C202 H250 0.929 . S
C203 C204 1.358 . S
C203 C205 1.356 . S
C203 H251 0.930 . S
C204 N201 1.279 . S
C204 C203 1.358 . S
C204 H207 0.930 . S
C205 C202 1.348 . S
C205 C203 1.356 . S
H206 C200 0.930 . S
H207 C204 0.930 . S
C208 C210 1.348 . S
C208 C211 1.356 . S
C208 O238 1.325 . S
N209 C212 1.314 . S
N209 C213 1.279 . S
C210 C208 1.348 . S
C210 C212 1.353 . S
C210 H252 0.929 . S
C211 C208 1.356 . S
C211 C213 1.358 . S
C211 H253 0.930 . S
C212 N209 1.314 . S
C212 C210 1.353 . S
C212 H254 0.930 . S
C213 N209 1.279 . S
C213 C211 1.358 . S
C213 H255 0.930 . S
C214 C215 1.348 . S
C214 C216 1.356 . S
C214 O239 1.325 . S
C215 C214 1.348 . S
C215 C217 1.353 . S
C215 H256 0.929 . S
C216 C214 1.356 . S
C216 C218 1.358 . S
C216 H257 0.930 . S
C217 C215 1.353 . S
C217 N219 1.314 . S
C217 H258 0.930 . S
C218 C216 1.358 . S
C218 N219 1.279 . S
C218 H259 0.930 . S
N219 C217 1.314 . S
N219 C218 1.279 . S
C220 C222 1.353 . S
C220 N223 1.314 . S
C220 H226 0.930 . S
C221 N223 1.279 . S
C221 C224 1.358 . S
C221 H227 0.930 . S
C222 C220 1.353 . S
C222 C225 1.348 . S
C222 H260 0.929 . S
N223 Li178 1.990 . S
N223 C220 1.314 . S
N223 C221 1.279 . S
C224 C221 1.358 . S
C224 C225 1.356 . S
C224 H261 0.930 . S
C225 C222 1.348 . S
C225 C224 1.356 . S
H226 C220 0.930 . S
H227 C221 0.930 . S
C228 N229 1.314 . S
C228 C230 1.353 . S
C228 H234 0.930 . S
N229 Li179 1.990 . S
N229 C228 1.314 . S
N229 C232 1.279 . S
C230 C228 1.353 . S
C230 C233 1.348 . S
C230 H262 0.929 . S
C231 C232 1.358 . S
C231 C233 1.356 . S
C231 H263 0.930 . S
C232 N229 1.279 . S
C232 C231 1.358 . S
C232 H235 0.930 . S
C233 C230 1.348 . S
C233 C231 1.356 . S
H234 C228 0.930 . S
H235 C232 0.930 . S
O236 Li176 1.956 . S
O236 Li177 1.970 . S
O236 Li178 1.961 . S
O236 C180 1.325 . S
O237 Li176 1.970 . S
O237 Li177 1.956 . S
O237 Li179 1.961 . S
O237 C186 1.325 . S
O238 Li176 1.961 . S
O238 Li178 1.956 . S
O238 Li179 1.970 . S
O238 C208 1.325 . S
O239 Li177 1.961 . S
O239 Li178 1.970 . S
O239 Li179 1.956 . S
O239 C214 1.325 . S
H240 C182 0.929 . S
H241 C183 0.930 . S
H242 C184 0.930 . S
H243 C185 0.930 . S
H244 C187 0.930 . S
H245 C189 0.929 . S
H246 C190 0.930 . S
H247 C191 0.930 . S
H248 C194 0.930 . S
H249 C197 0.929 . S
H250 C202 0.929 . S
H251 C203 0.930 . S
H252 C210 0.929 . S
H253 C211 0.930 . S
H254 C212 0.930 . S
H255 C213 0.930 . S
H256 C215 0.929 . S
H257 C216 0.930 . S
H258 C217 0.930 . S
H259 C218 0.930 . S
H260 C222 0.929 . S
H261 C224 0.930 . S
H262 C230 0.929 . S
H263 C231 0.930 . S
Li264 N281 1.990 . S
Li264 O324 1.956 . S
Li264 O325 1.970 . S
Li264 O326 1.961 . S
Li265 N289 1.990 . S
Li265 O324 1.970 . S
Li265 O325 1.956 . S
Li265 O327 1.961 . S
Li266 N311 1.990 . S
Li266 O324 1.961 . S
Li266 O326 1.956 . S
Li266 O327 1.970 . S
Li267 N317 1.990 . S
Li267 O325 1.961 . S
Li267 O326 1.970 . S
Li267 O327 1.956 . S
C268 C270 1.348 . S
C268 C271 1.356 . S
C268 O324 1.325 . S
N269 C272 1.314 . S
N269 C273 1.279 . S
C270 C268 1.348 . S
C270 C272 1.353 . S
C270 H328 0.929 . S
C271 C268 1.356 . S
C271 C273 1.358 . S
C271 H329 0.930 . S
C272 N269 1.314 . S
C272 C270 1.353 . S
C272 H330 0.930 . S
C273 N269 1.279 . S
C273 C271 1.358 . S
C273 H331 0.930 . S
C274 C277 1.348 . S
C274 C278 1.356 . S
C274 O325 1.325 . S
C275 N276 1.279 . S
C275 C278 1.358 . S
C275 H332 0.930 . S
N276 C275 1.279 . S
N276 C279 1.314 . S
C277 C274 1.348 . S
C277 C279 1.353 . S
C277 H333 0.929 . S
C278 C274 1.356 . S
C278 C275 1.358 . S
C278 H334 0.930 . S
C279 N276 1.314 . S
C279 C277 1.353 . S
C279 H335 0.930 . S
C280 N281 1.314 . S
C280 C285 1.353 . S
C280 H286 0.930 . S
N281 Li264 1.990 . S
N281 C280 1.314 . S
N281 C283 1.279 . S
C282 C283 1.358 . S
C282 C284 1.356 . S
C282 H336 0.930 . S
C283 N281 1.279 . S
C283 C282 1.358 . S
C283 H287 0.930 . S
C284 C282 1.356 . S
C284 C285 1.348 . S
C285 C280 1.353 . S
C285 C284 1.348 . S
C285 H337 0.929 . S
H286 C280 0.930 . S
H287 C283 0.930 . S
C288 N289 1.314 . S
C288 C290 1.353 . S
C288 H294 0.930 . S
N289 Li265 1.990 . S
N289 C288 1.314 . S
N289 C292 1.279 . S
C290 C288 1.353 . S
C290 C293 1.348 . S
C290 H338 0.929 . S
C291 C292 1.358 . S
C291 C293 1.356 . S
C291 H339 0.930 . S
C292 N289 1.279 . S
C292 C291 1.358 . S
C292 H295 0.930 . S
C293 C290 1.348 . S
C293 C291 1.356 . S
H294 C288 0.930 . S
H295 C292 0.930 . S
C296 C298 1.348 . S
C296 C299 1.356 . S
C296 O326 1.325 . S
N297 C300 1.314 . S
N297 C301 1.279 . S
C298 C296 1.348 . S
C298 C300 1.353 . S
C298 H340 0.929 . S
C299 C296 1.356 . S
C299 C301 1.358 . S
C299 H341 0.930 . S
C300 N297 1.314 . S
C300 C298 1.353 . S
C300 H342 0.930 . S
C301 N297 1.279 . S
C301 C299 1.358 . S
C301 H343 0.930 . S
C302 C303 1.348 . S
C302 C304 1.356 . S
C302 O327 1.325 . S
C303 C302 1.348 . S
C303 C305 1.353 . S
C303 H344 0.929 . S
C304 C302 1.356 . S
C304 C306 1.358 . S
C304 H345 0.930 . S
C305 C303 1.353 . S
C305 N307 1.314 . S
C305 H346 0.930 . S
C306 C304 1.358 . S
C306 N307 1.279 . S
C306 H347 0.930 . S
N307 C305 1.314 . S
N307 C306 1.279 . S
C308 C310 1.353 . S
C308 N311 1.314 . S
C308 H314 0.930 . S
C309 N311 1.279 . S
C309 C312 1.358 . S
C309 H315 0.930 . S
C310 C308 1.353 . S
C310 C313 1.348 . S
C310 H348 0.929 . S
N311 Li266 1.990 . S
N311 C308 1.314 . S
N311 C309 1.279 . S
C312 C309 1.358 . S
C312 C313 1.356 . S
C312 H349 0.930 . S
C313 C310 1.348 . S
C313 C312 1.356 . S
H314 C308 0.930 . S
H315 C309 0.930 . S
C316 N317 1.314 . S
C316 C318 1.353 . S
C316 H322 0.930 . S
N317 Li267 1.990 . S
N317 C316 1.314 . S
N317 C320 1.279 . S
C318 C316 1.353 . S
C318 C321 1.348 . S
C318 H350 0.929 . S
C319 C320 1.358 . S
C319 C321 1.356 . S
C319 H351 0.930 . S
C320 N317 1.279 . S
C320 C319 1.358 . S
C320 H323 0.930 . S
C321 C318 1.348 . S
C321 C319 1.356 . S
H322 C316 0.930 . S
H323 C320 0.930 . S
O324 Li264 1.956 . S
O324 Li265 1.970 . S
O324 Li266 1.961 . S
O324 C268 1.325 . S
O325 Li264 1.970 . S
O325 Li265 1.956 . S
O325 Li267 1.961 . S
O325 C274 1.325 . S
O326 Li264 1.961 . S
O326 Li266 1.956 . S
O326 Li267 1.970 . S
O326 C296 1.325 . S
O327 Li265 1.961 . S
O327 Li266 1.970 . S
O327 Li267 1.956 . S
O327 C302 1.325 . S
H328 C270 0.929 . S
H329 C271 0.930 . S
H330 C272 0.930 . S
H331 C273 0.930 . S
H332 C275 0.930 . S
H333 C277 0.929 . S
H334 C278 0.930 . S
H335 C279 0.930 . S
H336 C282 0.930 . S
H337 C285 0.929 . S
H338 C290 0.929 . S
H339 C291 0.930 . S
H340 C298 0.929 . S
H341 C299 0.930 . S
H342 C300 0.930 . S
H343 C301 0.930 . S
H344 C303 0.929 . S
H345 C304 0.930 . S
H346 C305 0.930 . S
H347 C306 0.930 . S
H348 C310 0.929 . S
H349 C312 0.930 . S
H350 C318 0.929 . S
H351 C319 0.930 . S
Li352 N369 1.990 . S
Li352 O412 1.956 . S
Li352 O413 1.970 . S
Li352 O414 1.961 . S
Li353 N377 1.990 . S
Li353 O412 1.970 . S
Li353 O413 1.956 . S
Li353 O415 1.961 . S
Li354 N399 1.990 . S
Li354 O412 1.961 . S
Li354 O414 1.956 . S
Li354 O415 1.970 . S
Li355 N405 1.990 . S
Li355 O413 1.961 . S
Li355 O414 1.970 . S
Li355 O415 1.956 . S
C356 C358 1.348 . S
C356 C359 1.356 . S
C356 O412 1.325 . S
N357 C360 1.314 . S
N357 C361 1.279 . S
C358 C356 1.348 . S
C358 C360 1.353 . S
C358 H416 0.929 . S
C359 C356 1.356 . S
C359 C361 1.358 . S
C359 H417 0.930 . S
C360 N357 1.314 . S
C360 C358 1.353 . S
C360 H418 0.930 . S
C361 N357 1.279 . S
C361 C359 1.358 . S
C361 H419 0.930 . S
C362 C365 1.348 . S
C362 C366 1.356 . S
C362 O413 1.325 . S
C363 N364 1.279 . S
C363 C366 1.358 . S
C363 H420 0.930 . S
N364 C363 1.279 . S
N364 C367 1.314 . S
C365 C362 1.348 . S
C365 C367 1.353 . S
C365 H421 0.929 . S
C366 C362 1.356 . S
C366 C363 1.358 . S
C366 H422 0.930 . S
C367 N364 1.314 . S
C367 C365 1.353 . S
C367 H423 0.930 . S
C368 N369 1.314 . S
C368 C373 1.353 . S
C368 H374 0.930 . S
N369 Li352 1.990 . S
N369 C368 1.314 . S
N369 C371 1.279 . S
C370 C371 1.358 . S
C370 C372 1.356 . S
C370 H424 0.930 . S
C371 N369 1.279 . S
C371 C370 1.358 . S
C371 H375 0.930 . S
C372 C370 1.356 . S
C372 C373 1.348 . S
C373 C368 1.353 . S
C373 C372 1.348 . S
C373 H425 0.929 . S
H374 C368 0.930 . S
H375 C371 0.930 . S
C376 N377 1.314 . S
C376 C378 1.353 . S
C376 H382 0.930 . S
N377 Li353 1.990 . S
N377 C376 1.314 . S
N377 C380 1.279 . S
C378 C376 1.353 . S
C378 C381 1.348 . S
C378 H426 0.929 . S
C379 C380 1.358 . S
C379 C381 1.356 . S
C379 H427 0.930 . S
C380 N377 1.279 . S
C380 C379 1.358 . S
C380 H383 0.930 . S
C381 C378 1.348 . S
C381 C379 1.356 . S
H382 C376 0.930 . S
H383 C380 0.930 . S
C384 C386 1.348 . S
C384 C387 1.356 . S
C384 O414 1.325 . S
N385 C388 1.314 . S
N385 C389 1.279 . S
C386 C384 1.348 . S
C386 C388 1.353 . S
C386 H428 0.929 . S
C387 C384 1.356 . S
C387 C389 1.358 . S
C387 H429 0.930 . S
C388 N385 1.314 . S
C388 C386 1.353 . S
C388 H430 0.930 . S
C389 N385 1.279 . S
C389 C387 1.358 . S
C389 H431 0.930 . S
C390 C391 1.348 . S
C390 C392 1.356 . S
C390 O415 1.325 . S
C391 C390 1.348 . S
C391 C393 1.353 . S
C391 H432 0.929 . S
C392 C390 1.356 . S
C392 C394 1.358 . S
C392 H433 0.930 . S
C393 C391 1.353 . S
C393 N395 1.314 . S
C393 H434 0.930 . S
C394 C392 1.358 . S
C394 N395 1.279 . S
C394 H435 0.930 . S
N395 C393 1.314 . S
N395 C394 1.279 . S
C396 C398 1.353 . S
C396 N399 1.314 . S
C396 H402 0.930 . S
C397 N399 1.279 . S
C397 C400 1.358 . S
C397 H403 0.930 . S
C398 C396 1.353 . S
C398 C401 1.348 . S
C398 H436 0.929 . S
N399 Li354 1.990 . S
N399 C396 1.314 . S
N399 C397 1.279 . S
C400 C397 1.358 . S
C400 C401 1.356 . S
C400 H437 0.930 . S
C401 C398 1.348 . S
C401 C400 1.356 . S
H402 C396 0.930 . S
H403 C397 0.930 . S
C404 N405 1.314 . S
C404 C406 1.353 . S
C404 H410 0.930 . S
N405 Li355 1.990 . S
N405 C404 1.314 . S
N405 C408 1.279 . S
C406 C404 1.353 . S
C406 C409 1.348 . S
C406 H438 0.929 . S
C407 C408 1.358 . S
C407 C409 1.356 . S
C407 H439 0.930 . S
C408 N405 1.279 . S
C408 C407 1.358 . S
C408 H411 0.930 . S
C409 C406 1.348 . S
C409 C407 1.356 . S
H410 C404 0.930 . S
H411 C408 0.930 . S
O412 Li352 1.956 . S
O412 Li353 1.970 . S
O412 Li354 1.961 . S
O412 C356 1.325 . S
O413 Li352 1.970 . S
O413 Li353 1.956 . S
O413 Li355 1.961 . S
O413 C362 1.325 . S
O414 Li352 1.961 . S
O414 Li354 1.956 . S
O414 Li355 1.970 . S
O414 C384 1.325 . S
O415 Li353 1.961 . S
O415 Li354 1.970 . S
O415 Li355 1.956 . S
O415 C390 1.325 . S
H416 C358 0.929 . S
H417 C359 0.930 . S
H418 C360 0.930 . S
H419 C361 0.930 . S
H420 C363 0.930 . S
H421 C365 0.929 . S
H422 C366 0.930 . S
H423 C367 0.930 . S
H424 C370 0.930 . S
H425 C373 0.929 . S
H426 C378 0.929 . S
H427 C379 0.930 . S
H428 C386 0.929 . S
H429 C387 0.930 . S
H430 C388 0.930 . S
H431 C389 0.930 . S
H432 C391 0.929 . S
H433 C392 0.930 . S
H434 C393 0.930 . S
H435 C394 0.930 . S
H436 C398 0.929 . S
H437 C400 0.930 . S
H438 C406 0.929 . S
H439 C407 0.930 . S
Li440 N457 1.990 . S
Li440 O500 1.956 . S
Li440 O501 1.970 . S
Li440 O502 1.961 . S
Li441 N465 1.990 . S
Li441 O500 1.970 . S
Li441 O501 1.956 . S
Li441 O503 1.961 . S
Li442 N487 1.990 . S
Li442 O500 1.961 . S
Li442 O502 1.956 . S
Li442 O503 1.970 . S
Li443 N493 1.990 . S
Li443 O501 1.961 . S
Li443 O502 1.970 . S
Li443 O503 1.956 . S
C444 C446 1.348 . S
C444 C447 1.356 . S
C444 O500 1.325 . S
N445 C448 1.314 . S
N445 C449 1.279 . S
C446 C444 1.348 . S
C446 C448 1.353 . S
C446 H504 0.929 . S
C447 C444 1.356 . S
C447 C449 1.358 . S
C447 H505 0.930 . S
C448 N445 1.314 . S
C448 C446 1.353 . S
C448 H506 0.930 . S
C449 N445 1.279 . S
C449 C447 1.358 . S
C449 H507 0.930 . S
C450 C453 1.348 . S
C450 C454 1.356 . S
C450 O501 1.325 . S
C451 N452 1.279 . S
C451 C454 1.358 . S
C451 H508 0.930 . S
N452 C451 1.279 . S
N452 C455 1.314 . S
C453 C450 1.348 . S
C453 C455 1.353 . S
C453 H509 0.929 . S
C454 C450 1.356 . S
C454 C451 1.358 . S
C454 H510 0.930 . S
C455 N452 1.314 . S
C455 C453 1.353 . S
C455 H511 0.930 . S
C456 N457 1.314 . S
C456 C461 1.353 . S
C456 H462 0.930 . S
N457 Li440 1.990 . S
N457 C456 1.314 . S
N457 C459 1.279 . S
C458 C459 1.358 . S
C458 C460 1.356 . S
C458 H512 0.930 . S
C459 N457 1.279 . S
C459 C458 1.358 . S
C459 H463 0.930 . S
C460 C458 1.356 . S
C460 C461 1.348 . S
C461 C456 1.353 . S
C461 C460 1.348 . S
C461 H513 0.929 . S
H462 C456 0.930 . S
H463 C459 0.930 . S
C464 N465 1.314 . S
C464 C466 1.353 . S
C464 H470 0.930 . S
N465 Li441 1.990 . S
N465 C464 1.314 . S
N465 C468 1.279 . S
C466 C464 1.353 . S
C466 C469 1.348 . S
C466 H514 0.929 . S
C467 C468 1.358 . S
C467 C469 1.356 . S
C467 H515 0.930 . S
C468 N465 1.279 . S
C468 C467 1.358 . S
C468 H471 0.930 . S
C469 C466 1.348 . S
C469 C467 1.356 . S
H470 C464 0.930 . S
H471 C468 0.930 . S
C472 C474 1.348 . S
C472 C475 1.356 . S
C472 O502 1.325 . S
N473 C476 1.314 . S
N473 C477 1.279 . S
C474 C472 1.348 . S
C474 C476 1.353 . S
C474 H516 0.929 . S
C475 C472 1.356 . S
C475 C477 1.358 . S
C475 H517 0.930 . S
C476 N473 1.314 . S
C476 C474 1.353 . S
C476 H518 0.930 . S
C477 N473 1.279 . S
C477 C475 1.358 . S
C477 H519 0.930 . S
C478 C479 1.348 . S
C478 C480 1.356 . S
C478 O503 1.325 . S
C479 C478 1.348 . S
C479 C481 1.353 . S
C479 H520 0.929 . S
C480 C478 1.356 . S
C480 C482 1.358 . S
C480 H521 0.930 . S
C481 C479 1.353 . S
C481 N483 1.314 . S
C481 H522 0.930 . S
C482 C480 1.358 . S
C482 N483 1.279 . S
C482 H523 0.930 . S
N483 C481 1.314 . S
N483 C482 1.279 . S
C484 C486 1.353 . S
C484 N487 1.314 . S
C484 H490 0.930 . S
C485 N487 1.279 . S
C485 C488 1.358 . S
C485 H491 0.930 . S
C486 C484 1.353 . S
C486 C489 1.348 . S
C486 H524 0.929 . S
N487 Li442 1.990 . S
N487 C484 1.314 . S
N487 C485 1.279 . S
C488 C485 1.358 . S
C488 C489 1.356 . S
C488 H525 0.930 . S
C489 C486 1.348 . S
C489 C488 1.356 . S
H490 C484 0.930 . S
H491 C485 0.930 . S
C492 N493 1.314 . S
C492 C494 1.353 . S
C492 H498 0.930 . S
N493 Li443 1.990 . S
N493 C492 1.314 . S
N493 C496 1.279 . S
C494 C492 1.353 . S
C494 C497 1.348 . S
C494 H526 0.929 . S
C495 C496 1.358 . S
C495 C497 1.356 . S
C495 H527 0.930 . S
C496 N493 1.279 . S
C496 C495 1.358 . S
C496 H499 0.930 . S
C497 C494 1.348 . S
C497 C495 1.356 . S
H498 C492 0.930 . S
H499 C496 0.930 . S
O500 Li440 1.956 . S
O500 Li441 1.970 . S
O500 Li442 1.961 . S
O500 C444 1.325 . S
O501 Li440 1.970 . S
O501 Li441 1.956 . S
O501 Li443 1.961 . S
O501 C450 1.325 . S
O502 Li440 1.961 . S
O502 Li442 1.956 . S
O502 Li443 1.970 . S
O502 C472 1.325 . S
O503 Li441 1.961 . S
O503 Li442 1.970 . S
O503 Li443 1.956 . S
O503 C478 1.325 . S
H504 C446 0.929 . S
H505 C447 0.930 . S
H506 C448 0.930 . S
H507 C449 0.930 . S
H508 C451 0.930 . S
H509 C453 0.929 . S
H510 C454 0.930 . S
H511 C455 0.930 . S
H512 C458 0.930 . S
H513 C461 0.929 . S
H514 C466 0.929 . S
H515 C467 0.930 . S
H516 C474 0.929 . S
H517 C475 0.930 . S
H518 C476 0.930 . S
H519 C477 0.930 . S
H520 C479 0.929 . S
H521 C480 0.930 . S
H522 C481 0.930 . S
H523 C482 0.930 . S
H524 C486 0.929 . S
H525 C488 0.930 . S
H526 C494 0.929 . S
H527 C495 0.930 . S
Li528 N545 1.990 . S
Li528 O588 1.956 . S
Li528 O589 1.970 . S
Li528 O590 1.961 . S
Li529 N553 1.990 . S
Li529 O588 1.970 . S
Li529 O589 1.956 . S
Li529 O591 1.961 . S
Li530 N575 1.990 . S
Li530 O588 1.961 . S
Li530 O590 1.956 . S
Li530 O591 1.970 . S
Li531 N581 1.990 . S
Li531 O589 1.961 . S
Li531 O590 1.970 . S
Li531 O591 1.956 . S
C532 C534 1.348 . S
C532 C535 1.356 . S
C532 O588 1.325 . S
N533 C536 1.314 . S
N533 C537 1.279 . S
C534 C532 1.348 . S
C534 C536 1.353 . S
C534 H592 0.929 . S
C535 C532 1.356 . S
C535 C537 1.358 . S
C535 H593 0.930 . S
C536 N533 1.314 . S
C536 C534 1.353 . S
C536 H594 0.930 . S
C537 N533 1.279 . S
C537 C535 1.358 . S
C537 H595 0.930 . S
C538 C541 1.348 . S
C538 C542 1.356 . S
C538 O589 1.325 . S
C539 N540 1.279 . S
C539 C542 1.358 . S
C539 H596 0.930 . S
N540 C539 1.279 . S
N540 C543 1.314 . S
C541 C538 1.348 . S
C541 C543 1.353 . S
C541 H597 0.929 . S
C542 C538 1.356 . S
C542 C539 1.358 . S
C542 H598 0.930 . S
C543 N540 1.314 . S
C543 C541 1.353 . S
C543 H599 0.930 . S
C544 N545 1.314 . S
C544 C549 1.353 . S
C544 H550 0.930 . S
N545 Li528 1.990 . S
N545 C544 1.314 . S
N545 C547 1.279 . S
C546 C547 1.358 . S
C546 C548 1.356 . S
C546 H600 0.930 . S
C547 N545 1.279 . S
C547 C546 1.358 . S
C547 H551 0.930 . S
C548 C546 1.356 . S
C548 C549 1.348 . S
C549 C544 1.353 . S
C549 C548 1.348 . S
C549 H601 0.929 . S
H550 C544 0.930 . S
H551 C547 0.930 . S
C552 N553 1.314 . S
C552 C554 1.353 . S
C552 H558 0.930 . S
N553 Li529 1.990 . S
N553 C552 1.314 . S
N553 C556 1.279 . S
C554 C552 1.353 . S
C554 C557 1.348 . S
C554 H602 0.929 . S
C555 C556 1.358 . S
C555 C557 1.356 . S
C555 H603 0.930 . S
C556 N553 1.279 . S
C556 C555 1.358 . S
C556 H559 0.930 . S
C557 C554 1.348 . S
C557 C555 1.356 . S
H558 C552 0.930 . S
H559 C556 0.930 . S
C560 C562 1.348 . S
C560 C563 1.356 . S
C560 O590 1.325 . S
N561 C564 1.314 . S
N561 C565 1.279 . S
C562 C560 1.348 . S
C562 C564 1.353 . S
C562 H604 0.929 . S
C563 C560 1.356 . S
C563 C565 1.358 . S
C563 H605 0.930 . S
C564 N561 1.314 . S
C564 C562 1.353 . S
C564 H606 0.930 . S
C565 N561 1.279 . S
C565 C563 1.358 . S
C565 H607 0.930 . S
C566 C567 1.348 . S
C566 C568 1.356 . S
C566 O591 1.325 . S
C567 C566 1.348 . S
C567 C569 1.353 . S
C567 H608 0.929 . S
C568 C566 1.356 . S
C568 C570 1.358 . S
C568 H609 0.930 . S
C569 C567 1.353 . S
C569 N571 1.314 . S
C569 H610 0.930 . S
C570 C568 1.358 . S
C570 N571 1.279 . S
C570 H611 0.930 . S
N571 C569 1.314 . S
N571 C570 1.279 . S
C572 C574 1.353 . S
C572 N575 1.314 . S
C572 H578 0.930 . S
C573 N575 1.279 . S
C573 C576 1.358 . S
C573 H579 0.930 . S
C574 C572 1.353 . S
C574 C577 1.348 . S
C574 H612 0.929 . S
N575 Li530 1.990 . S
N575 C572 1.314 . S
N575 C573 1.279 . S
C576 C573 1.358 . S
C576 C577 1.356 . S
C576 H613 0.930 . S
C577 C574 1.348 . S
C577 C576 1.356 . S
H578 C572 0.930 . S
H579 C573 0.930 . S
C580 N581 1.314 . S
C580 C582 1.353 . S
C580 H586 0.930 . S
N581 Li531 1.990 . S
N581 C580 1.314 . S
N581 C584 1.279 . S
C582 C580 1.353 . S
C582 C585 1.348 . S
C582 H614 0.929 . S
C583 C584 1.358 . S
C583 C585 1.356 . S
C583 H615 0.930 . S
C584 N581 1.279 . S
C584 C583 1.358 . S
C584 H587 0.930 . S
C585 C582 1.348 . S
C585 C583 1.356 . S
H586 C580 0.930 . S
H587 C584 0.930 . S
O588 Li528 1.956 . S
O588 Li529 1.970 . S
O588 Li530 1.961 . S
O588 C532 1.325 . S
O589 Li528 1.970 . S
O589 Li529 1.956 . S
O589 Li531 1.961 . S
O589 C538 1.325 . S
O590 Li528 1.961 . S
O590 Li530 1.956 . S
O590 Li531 1.970 . S
O590 C560 1.325 . S
O591 Li529 1.961 . S
O591 Li530 1.970 . S
O591 Li531 1.956 . S
O591 C566 1.325 . S
H592 C534 0.929 . S
H593 C535 0.930 . S
H594 C536 0.930 . S
H595 C537 0.930 . S
H596 C539 0.930 . S
H597 C541 0.929 . S
H598 C542 0.930 . S
H599 C543 0.930 . S
H600 C546 0.930 . S
H601 C549 0.929 . S
H602 C554 0.929 . S
H603 C555 0.930 . S
H604 C562 0.929 . S
H605 C563 0.930 . S
H606 C564 0.930 . S
H607 C565 0.930 . S
H608 C567 0.929 . S
H609 C568 0.930 . S
H610 C569 0.930 . S
H611 C570 0.930 . S
H612 C574 0.929 . S
H613 C576 0.930 . S
H614 C582 0.929 . S
H615 C583 0.930 . S
Li616 N633 1.990 . S
Li616 O676 1.956 . S
Li616 O677 1.970 . S
Li616 O678 1.961 . S
Li617 N641 1.990 . S
Li617 O676 1.970 . S
Li617 O677 1.956 . S
Li617 O679 1.961 . S
Li618 N663 1.990 . S
Li618 O676 1.961 . S
Li618 O678 1.956 . S
Li618 O679 1.970 . S
Li619 N669 1.990 . S
Li619 O677 1.961 . S
Li619 O678 1.970 . S
Li619 O679 1.956 . S
C620 C622 1.348 . S
C620 C623 1.356 . S
C620 O676 1.325 . S
N621 C624 1.314 . S
N621 C625 1.279 . S
C622 C620 1.348 . S
C622 C624 1.353 . S
C622 H680 0.929 . S
C623 C620 1.356 . S
C623 C625 1.358 . S
C623 H681 0.930 . S
C624 N621 1.314 . S
C624 C622 1.353 . S
C624 H682 0.930 . S
C625 N621 1.279 . S
C625 C623 1.358 . S
C625 H683 0.930 . S
C626 C629 1.348 . S
C626 C630 1.356 . S
C626 O677 1.325 . S
C627 N628 1.279 . S
C627 C630 1.358 . S
C627 H684 0.930 . S
N628 C627 1.279 . S
N628 C631 1.314 . S
C629 C626 1.348 . S
C629 C631 1.353 . S
C629 H685 0.929 . S
C630 C626 1.356 . S
C630 C627 1.358 . S
C630 H686 0.930 . S
C631 N628 1.314 . S
C631 C629 1.353 . S
C631 H687 0.930 . S
C632 N633 1.314 . S
C632 C637 1.353 . S
C632 H638 0.930 . S
N633 Li616 1.990 . S
N633 C632 1.314 . S
N633 C635 1.279 . S
C634 C635 1.358 . S
C634 C636 1.356 . S
C634 H688 0.930 . S
C635 N633 1.279 . S
C635 C634 1.358 . S
C635 H639 0.930 . S
C636 C634 1.356 . S
C636 C637 1.348 . S
C637 C632 1.353 . S
C637 C636 1.348 . S
C637 H689 0.929 . S
H638 C632 0.930 . S
H639 C635 0.930 . S
C640 N641 1.314 . S
C640 C642 1.353 . S
C640 H646 0.930 . S
N641 Li617 1.990 . S
N641 C640 1.314 . S
N641 C644 1.279 . S
C642 C640 1.353 . S
C642 C645 1.348 . S
C642 H690 0.929 . S
C643 C644 1.358 . S
C643 C645 1.356 . S
C643 H691 0.930 . S
C644 N641 1.279 . S
C644 C643 1.358 . S
C644 H647 0.930 . S
C645 C642 1.348 . S
C645 C643 1.356 . S
H646 C640 0.930 . S
H647 C644 0.930 . S
C648 C650 1.348 . S
C648 C651 1.356 . S
C648 O678 1.325 . S
N649 C652 1.314 . S
N649 C653 1.279 . S
C650 C648 1.348 . S
C650 C652 1.353 . S
C650 H692 0.929 . S
C651 C648 1.356 . S
C651 C653 1.358 . S
C651 H693 0.930 . S
C652 N649 1.314 . S
C652 C650 1.353 . S
C652 H694 0.930 . S
C653 N649 1.279 . S
C653 C651 1.358 . S
C653 H695 0.930 . S
C654 C655 1.348 . S
C654 C656 1.356 . S
C654 O679 1.325 . S
C655 C654 1.348 . S
C655 C657 1.353 . S
C655 H696 0.929 . S
C656 C654 1.356 . S
C656 C658 1.358 . S
C656 H697 0.930 . S
C657 C655 1.353 . S
C657 N659 1.314 . S
C657 H698 0.930 . S
C658 C656 1.358 . S
C658 N659 1.279 . S
C658 H699 0.930 . S
N659 C657 1.314 . S
N659 C658 1.279 . S
C660 C662 1.353 . S
C660 N663 1.314 . S
C660 H666 0.930 . S
C661 N663 1.279 . S
C661 C664 1.358 . S
C661 H667 0.930 . S
C662 C660 1.353 . S
C662 C665 1.348 . S
C662 H700 0.929 . S
N663 Li618 1.990 . S
N663 C660 1.314 . S
N663 C661 1.279 . S
C664 C661 1.358 . S
C664 C665 1.356 . S
C664 H701 0.930 . S
C665 C662 1.348 . S
C665 C664 1.356 . S
H666 C660 0.930 . S
H667 C661 0.930 . S
C668 N669 1.314 . S
C668 C670 1.353 . S
C668 H674 0.930 . S
N669 Li619 1.990 . S
N669 C668 1.314 . S
N669 C672 1.279 . S
C670 C668 1.353 . S
C670 C673 1.348 . S
C670 H702 0.929 . S
C671 C672 1.358 . S
C671 C673 1.356 . S
C671 H703 0.930 . S
C672 N669 1.279 . S
C672 C671 1.358 . S
C672 H675 0.930 . S
C673 C670 1.348 . S
C673 C671 1.356 . S
H674 C668 0.930 . S
H675 C672 0.930 . S
O676 Li616 1.956 . S
O676 Li617 1.970 . S
O676 Li618 1.961 . S
O676 C620 1.325 . S
O677 Li616 1.970 . S
O677 Li617 1.956 . S
O677 Li619 1.961 . S
O677 C626 1.325 . S
O678 Li616 1.961 . S
O678 Li618 1.956 . S
O678 Li619 1.970 . S
O678 C648 1.325 . S
O679 Li617 1.961 . S
O679 Li618 1.970 . S
O679 Li619 1.956 . S
O679 C654 1.325 . S
H680 C622 0.929 . S
H681 C623 0.930 . S
H682 C624 0.930 . S
H683 C625 0.930 . S
H684 C627 0.930 . S
H685 C629 0.929 . S
H686 C630 0.930 . S
H687 C631 0.930 . S
H688 C634 0.930 . S
H689 C637 0.929 . S
H690 C642 0.929 . S
H691 C643 0.930 . S
H692 C650 0.929 . S
H693 C651 0.930 . S
H694 C652 0.930 . S
H695 C653 0.930 . S
H696 C655 0.929 . S
H697 C656 0.930 . S
H698 C657 0.930 . S
H699 C658 0.930 . S
H700 C662 0.929 . S
H701 C664 0.930 . S
H702 C670 0.929 . S
H703 C671 0.930 . S
Li704 N721 1.990 . S
Li704 O764 1.956 . S
Li704 O765 1.970 . S
Li704 O766 1.961 . S
Li705 N729 1.990 . S
Li705 O764 1.970 . S
Li705 O765 1.956 . S
Li705 O767 1.961 . S
Li706 N751 1.990 . S
Li706 O764 1.961 . S
Li706 O766 1.956 . S
Li706 O767 1.970 . S
Li707 N757 1.990 . S
Li707 O765 1.961 . S
Li707 O766 1.970 . S
Li707 O767 1.956 . S
C708 C710 1.348 . S
C708 C711 1.356 . S
C708 O764 1.325 . S
N709 C712 1.314 . S
N709 C713 1.279 . S
C710 C708 1.348 . S
C710 C712 1.353 . S
C710 H768 0.929 . S
C711 C708 1.356 . S
C711 C713 1.358 . S
C711 H769 0.930 . S
C712 N709 1.314 . S
C712 C710 1.353 . S
C712 H770 0.930 . S
C713 N709 1.279 . S
C713 C711 1.358 . S
C713 H771 0.930 . S
C714 C717 1.348 . S
C714 C718 1.356 . S
C714 O765 1.325 . S
C715 N716 1.279 . S
C715 C718 1.358 . S
C715 H772 0.930 . S
N716 C715 1.279 . S
N716 C719 1.314 . S
C717 C714 1.348 . S
C717 C719 1.353 . S
C717 H773 0.929 . S
C718 C714 1.356 . S
C718 C715 1.358 . S
C718 H774 0.930 . S
C719 N716 1.314 . S
C719 C717 1.353 . S
C719 H775 0.930 . S
C720 N721 1.314 . S
C720 C725 1.353 . S
C720 H726 0.930 . S
N721 Li704 1.990 . S
N721 C720 1.314 . S
N721 C723 1.279 . S
C722 C723 1.358 . S
C722 C724 1.356 . S
C722 H776 0.930 . S
C723 N721 1.279 . S
C723 C722 1.358 . S
C723 H727 0.930 . S
C724 C722 1.356 . S
C724 C725 1.348 . S
C725 C720 1.353 . S
C725 C724 1.348 . S
C725 H777 0.929 . S
H726 C720 0.930 . S
H727 C723 0.930 . S
C728 N729 1.314 . S
C728 C730 1.353 . S
C728 H734 0.930 . S
N729 Li705 1.990 . S
N729 C728 1.314 . S
N729 C732 1.279 . S
C730 C728 1.353 . S
C730 C733 1.348 . S
C730 H778 0.929 . S
C731 C732 1.358 . S
C731 C733 1.356 . S
C731 H779 0.930 . S
C732 N729 1.279 . S
C732 C731 1.358 . S
C732 H735 0.930 . S
C733 C730 1.348 . S
C733 C731 1.356 . S
H734 C728 0.930 . S
H735 C732 0.930 . S
C736 C738 1.348 . S
C736 C739 1.356 . S
C736 O766 1.325 . S
N737 C740 1.314 . S
N737 C741 1.279 . S
C738 C736 1.348 . S
C738 C740 1.353 . S
C738 H780 0.929 . S
C739 C736 1.356 . S
C739 C741 1.358 . S
C739 H781 0.930 . S
C740 N737 1.314 . S
C740 C738 1.353 . S
C740 H782 0.930 . S
C741 N737 1.279 . S
C741 C739 1.358 . S
C741 H783 0.930 . S
C742 C743 1.348 . S
C742 C744 1.356 . S
C742 O767 1.325 . S
C743 C742 1.348 . S
C743 C745 1.353 . S
C743 H784 0.929 . S
C744 C742 1.356 . S
C744 C746 1.358 . S
C744 H785 0.930 . S
C745 C743 1.353 . S
C745 N747 1.314 . S
C745 H786 0.930 . S
C746 C744 1.358 . S
C746 N747 1.279 . S
C746 H787 0.930 . S
N747 C745 1.314 . S
N747 C746 1.279 . S
C748 C750 1.353 . S
C748 N751 1.314 . S
C748 H754 0.930 . S
C749 N751 1.279 . S
C749 C752 1.358 . S
C749 H755 0.930 . S
C750 C748 1.353 . S
C750 C753 1.348 . S
C750 H788 0.929 . S
N751 Li706 1.990 . S
N751 C748 1.314 . S
N751 C749 1.279 . S
C752 C749 1.358 . S
C752 C753 1.356 . S
C752 H789 0.930 . S
C753 C750 1.348 . S
C753 C752 1.356 . S
H754 C748 0.930 . S
H755 C749 0.930 . S
C756 N757 1.314 . S
C756 C758 1.353 . S
C756 H762 0.930 . S
N757 Li707 1.990 . S
N757 C756 1.314 . S
N757 C760 1.279 . S
C758 C756 1.353 . S
C758 C761 1.348 . S
C758 H790 0.929 . S
C759 C760 1.358 . S
C759 C761 1.356 . S
C759 H791 0.930 . S
C760 N757 1.279 . S
C760 C759 1.358 . S
C760 H763 0.930 . S
C761 C758 1.348 . S
C761 C759 1.356 . S
H762 C756 0.930 . S
H763 C760 0.930 . S
O764 Li704 1.956 . S
O764 Li705 1.970 . S
O764 Li706 1.961 . S
O764 C708 1.325 . S
O765 Li704 1.970 . S
O765 Li705 1.956 . S
O765 Li707 1.961 . S
O765 C714 1.325 . S
O766 Li704 1.961 . S
O766 Li706 1.956 . S
O766 Li707 1.970 . S
O766 C736 1.325 . S
O767 Li705 1.961 . S
O767 Li706 1.970 . S
O767 Li707 1.956 . S
O767 C742 1.325 . S
H768 C710 0.929 . S
H769 C711 0.930 . S
H770 C712 0.930 . S
H771 C713 0.930 . S
H772 C715 0.930 . S
H773 C717 0.929 . S
H774 C718 0.930 . S
H775 C719 0.930 . S
H776 C722 0.930 . S
H777 C725 0.929 . S
H778 C730 0.929 . S
H779 C731 0.930 . S
H780 C738 0.929 . S
H781 C739 0.930 . S
H782 C740 0.930 . S
H783 C741 0.930 . S
H784 C743 0.929 . S
H785 C744 0.930 . S
H786 C745 0.930 . S
H787 C746 0.930 . S
H788 C750 0.929 . S
H789 C752 0.930 . S
H790 C758 0.929 . S
H791 C759 0.930 . S
Li792 N809 1.990 . S
Li792 O852 1.956 . S
Li792 O853 1.970 . S
Li792 O854 1.961 . S
Li793 N817 1.990 . S
Li793 O852 1.970 . S
Li793 O853 1.956 . S
Li793 O855 1.961 . S
Li794 N839 1.990 . S
Li794 O852 1.961 . S
Li794 O854 1.956 . S
Li794 O855 1.970 . S
Li795 N845 1.990 . S
Li795 O853 1.961 . S
Li795 O854 1.970 . S
Li795 O855 1.956 . S
C796 C798 1.348 . S
C796 C799 1.356 . S
C796 O852 1.325 . S
N797 C800 1.314 . S
N797 C801 1.279 . S
C798 C796 1.348 . S
C798 C800 1.353 . S
C798 H856 0.929 . S
C799 C796 1.356 . S
C799 C801 1.358 . S
C799 H857 0.930 . S
C800 N797 1.314 . S
C800 C798 1.353 . S
C800 H858 0.930 . S
C801 N797 1.279 . S
C801 C799 1.358 . S
C801 H859 0.930 . S
C802 C805 1.348 . S
C802 C806 1.356 . S
C802 O853 1.325 . S
C803 N804 1.279 . S
C803 C806 1.358 . S
C803 H860 0.930 . S
N804 C803 1.279 . S
N804 C807 1.314 . S
C805 C802 1.348 . S
C805 C807 1.353 . S
C805 H861 0.929 . S
C806 C802 1.356 . S
C806 C803 1.358 . S
C806 H862 0.930 . S
C807 N804 1.314 . S
C807 C805 1.353 . S
C807 H863 0.930 . S
C808 N809 1.314 . S
C808 C813 1.353 . S
C808 H814 0.930 . S
N809 Li792 1.990 . S
N809 C808 1.314 . S
N809 C811 1.279 . S
C810 C811 1.358 . S
C810 C812 1.356 . S
C810 H864 0.930 . S
C811 N809 1.279 . S
C811 C810 1.358 . S
C811 H815 0.930 . S
C812 C810 1.356 . S
C812 C813 1.348 . S
C813 C808 1.353 . S
C813 C812 1.348 . S
C813 H865 0.929 . S
H814 C808 0.930 . S
H815 C811 0.930 . S
C816 N817 1.314 . S
C816 C818 1.353 . S
C816 H822 0.930 . S
N817 Li793 1.990 . S
N817 C816 1.314 . S
N817 C820 1.279 . S
C818 C816 1.353 . S
C818 C821 1.348 . S
C818 H866 0.929 . S
C819 C820 1.358 . S
C819 C821 1.356 . S
C819 H867 0.930 . S
C820 N817 1.279 . S
C820 C819 1.358 . S
C820 H823 0.930 . S
C821 C818 1.348 . S
C821 C819 1.356 . S
H822 C816 0.930 . S
H823 C820 0.930 . S
C824 C826 1.348 . S
C824 C827 1.356 . S
C824 O854 1.325 . S
N825 C828 1.314 . S
N825 C829 1.279 . S
C826 C824 1.348 . S
C826 C828 1.353 . S
C826 H868 0.929 . S
C827 C824 1.356 . S
C827 C829 1.358 . S
C827 H869 0.930 . S
C828 N825 1.314 . S
C828 C826 1.353 . S
C828 H870 0.930 . S
C829 N825 1.279 . S
C829 C827 1.358 . S
C829 H871 0.930 . S
C830 C831 1.348 . S
C830 C832 1.356 . S
C830 O855 1.325 . S
C831 C830 1.348 . S
C831 C833 1.353 . S
C831 H872 0.929 . S
C832 C830 1.356 . S
C832 C834 1.358 . S
C832 H873 0.930 . S
C833 C831 1.353 . S
C833 N835 1.314 . S
C833 H874 0.930 . S
C834 C832 1.358 . S
C834 N835 1.279 . S
C834 H875 0.930 . S
N835 C833 1.314 . S
N835 C834 1.279 . S
C836 C838 1.353 . S
C836 N839 1.314 . S
C836 H842 0.930 . S
C837 N839 1.279 . S
C837 C840 1.358 . S
C837 H843 0.930 . S
C838 C836 1.353 . S
C838 C841 1.348 . S
C838 H876 0.929 . S
N839 Li794 1.990 . S
N839 C836 1.314 . S
N839 C837 1.279 . S
C840 C837 1.358 . S
C840 C841 1.356 . S
C840 H877 0.930 . S
C841 C838 1.348 . S
C841 C840 1.356 . S
H842 C836 0.930 . S
H843 C837 0.930 . S
C844 N845 1.314 . S
C844 C846 1.353 . S
C844 H850 0.930 . S
N845 Li795 1.990 . S
N845 C844 1.314 . S
N845 C848 1.279 . S
C846 C844 1.353 . S
C846 C849 1.348 . S
C846 H878 0.929 . S
C847 C848 1.358 . S
C847 C849 1.356 . S
C847 H879 0.930 . S
C848 N845 1.279 . S
C848 C847 1.358 . S
C848 H851 0.930 . S
C849 C846 1.348 . S
C849 C847 1.356 . S
H850 C844 0.930 . S
H851 C848 0.930 . S
O852 Li792 1.956 . S
O852 Li793 1.970 . S
O852 Li794 1.961 . S
O852 C796 1.325 . S
O853 Li792 1.970 . S
O853 Li793 1.956 . S
O853 Li795 1.961 . S
O853 C802 1.325 . S
O854 Li792 1.961 . S
O854 Li794 1.956 . S
O854 Li795 1.970 . S
O854 C824 1.325 . S
O855 Li793 1.961 . S
O855 Li794 1.970 . S
O855 Li795 1.956 . S
O855 C830 1.325 . S
H856 C798 0.929 . S
H857 C799 0.930 . S
H858 C800 0.930 . S
H859 C801 0.930 . S
H860 C803 0.930 . S
H861 C805 0.929 . S
H862 C806 0.930 . S
H863 C807 0.930 . S
H864 C810 0.930 . S
H865 C813 0.929 . S
H866 C818 0.929 . S
H867 C819 0.930 . S
H868 C826 0.929 . S
H869 C827 0.930 . S
H870 C828 0.930 . S
H871 C829 0.930 . S
H872 C831 0.929 . S
H873 C832 0.930 . S
H874 C833 0.930 . S
H875 C834 0.930 . S
H876 C838 0.929 . S
H877 C840 0.930 . S
H878 C846 0.929 . S
H879 C847 0.930 . S
Li880 N897 1.990 . S
Li880 O940 1.956 . S
Li880 O941 1.970 . S
Li880 O942 1.961 . S
Li881 N905 1.990 . S
Li881 O940 1.970 . S
Li881 O941 1.956 . S
Li881 O943 1.961 . S
Li882 N927 1.990 . S
Li882 O940 1.961 . S
Li882 O942 1.956 . S
Li882 O943 1.970 . S
Li883 N933 1.990 . S
Li883 O941 1.961 . S
Li883 O942 1.970 . S
Li883 O943 1.956 . S
C884 C886 1.348 . S
C884 C887 1.356 . S
C884 O940 1.325 . S
N885 C888 1.314 . S
N885 C889 1.279 . S
C886 C884 1.348 . S
C886 C888 1.353 . S
C886 H944 0.929 . S
C887 C884 1.356 . S
C887 C889 1.358 . S
C887 H945 0.930 . S
C888 N885 1.314 . S
C888 C886 1.353 . S
C888 H946 0.930 . S
C889 N885 1.279 . S
C889 C887 1.358 . S
C889 H947 0.930 . S
C890 C893 1.348 . S
C890 C894 1.356 . S
C890 O941 1.325 . S
C891 N892 1.279 . S
C891 C894 1.358 . S
C891 H948 0.930 . S
N892 C891 1.279 . S
N892 C895 1.314 . S
C893 C890 1.348 . S
C893 C895 1.353 . S
C893 H949 0.929 . S
C894 C890 1.356 . S
C894 C891 1.358 . S
C894 H950 0.930 . S
C895 N892 1.314 . S
C895 C893 1.353 . S
C895 H951 0.930 . S
C896 N897 1.314 . S
C896 C901 1.353 . S
C896 H902 0.930 . S
N897 Li880 1.990 . S
N897 C896 1.314 . S
N897 C899 1.279 . S
C898 C899 1.358 . S
C898 C900 1.356 . S
C898 H952 0.930 . S
C899 N897 1.279 . S
C899 C898 1.358 . S
C899 H903 0.930 . S
C900 C898 1.356 . S
C900 C901 1.348 . S
C901 C896 1.353 . S
C901 C900 1.348 . S
C901 H953 0.929 . S
H902 C896 0.930 . S
H903 C899 0.930 . S
C904 N905 1.314 . S
C904 C906 1.353 . S
C904 H910 0.930 . S
N905 Li881 1.990 . S
N905 C904 1.314 . S
N905 C908 1.279 . S
C906 C904 1.353 . S
C906 C909 1.348 . S
C906 H954 0.929 . S
C907 C908 1.358 . S
C907 C909 1.356 . S
C907 H955 0.930 . S
C908 N905 1.279 . S
C908 C907 1.358 . S
C908 H911 0.930 . S
C909 C906 1.348 . S
C909 C907 1.356 . S
H910 C904 0.930 . S
H911 C908 0.930 . S
C912 C914 1.348 . S
C912 C915 1.356 . S
C912 O942 1.325 . S
N913 C916 1.314 . S
N913 C917 1.279 . S
C914 C912 1.348 . S
C914 C916 1.353 . S
C914 H956 0.929 . S
C915 C912 1.356 . S
C915 C917 1.358 . S
C915 H957 0.930 . S
C916 N913 1.314 . S
C916 C914 1.353 . S
C916 H958 0.930 . S
C917 N913 1.279 . S
C917 C915 1.358 . S
C917 H959 0.930 . S
C918 C919 1.348 . S
C918 C920 1.356 . S
C918 O943 1.325 . S
C919 C918 1.348 . S
C919 C921 1.353 . S
C919 H960 0.929 . S
C920 C918 1.356 . S
C920 C922 1.358 . S
C920 H961 0.930 . S
C921 C919 1.353 . S
C921 N923 1.314 . S
C921 H962 0.930 . S
C922 C920 1.358 . S
C922 N923 1.279 . S
C922 H963 0.930 . S
N923 C921 1.314 . S
N923 C922 1.279 . S
C924 C926 1.353 . S
C924 N927 1.314 . S
C924 H930 0.930 . S
C925 N927 1.279 . S
C925 C928 1.358 . S
C925 H931 0.930 . S
C926 C924 1.353 . S
C926 C929 1.348 . S
C926 H964 0.929 . S
N927 Li882 1.990 . S
N927 C924 1.314 . S
N927 C925 1.279 . S
C928 C925 1.358 . S
C928 C929 1.356 . S
C928 H965 0.930 . S
C929 C926 1.348 . S
C929 C928 1.356 . S
H930 C924 0.930 . S
H931 C925 0.930 . S
C932 N933 1.314 . S
C932 C934 1.353 . S
C932 H938 0.930 . S
N933 Li883 1.990 . S
N933 C932 1.314 . S
N933 C936 1.279 . S
C934 C932 1.353 . S
C934 C937 1.348 . S
C934 H966 0.929 . S
C935 C936 1.358 . S
C935 C937 1.356 . S
C935 H967 0.930 . S
C936 N933 1.279 . S
C936 C935 1.358 . S
C936 H939 0.930 . S
C937 C934 1.348 . S
C937 C935 1.356 . S
H938 C932 0.930 . S
H939 C936 0.930 . S
O940 Li880 1.956 . S
O940 Li881 1.970 . S
O940 Li882 1.961 . S
O940 C884 1.325 . S
O941 Li880 1.970 . S
O941 Li881 1.956 . S
O941 Li883 1.961 . S
O941 C890 1.325 . S
O942 Li880 1.961 . S
O942 Li882 1.956 . S
O942 Li883 1.970 . S
O942 C912 1.325 . S
O943 Li881 1.961 . S
O943 Li882 1.970 . S
O943 Li883 1.956 . S
O943 C918 1.325 . S
H944 C886 0.929 . S
H945 C887 0.930 . S
H946 C888 0.930 . S
H947 C889 0.930 . S
H948 C891 0.930 . S
H949 C893 0.929 . S
H950 C894 0.930 . S
H951 C895 0.930 . S
H952 C898 0.930 . S
H953 C901 0.929 . S
H954 C906 0.929 . S
H955 C907 0.930 . S
H956 C914 0.929 . S
H957 C915 0.930 . S
H958 C916 0.930 . S
H959 C917 0.930 . S
H960 C919 0.929 . S
H961 C920 0.930 . S
H962 C921 0.930 . S
H963 C922 0.930 . S
H964 C926 0.929 . S
H965 C928 0.930 . S
H966 C934 0.929 . S
H967 C935 0.930 . S
Li968 N985 1.990 . S
Li968 O1028 1.956 . S
Li968 O1029 1.970 . S
Li968 O1030 1.961 . S
Li969 N993 1.990 . S
Li969 O1028 1.970 . S
Li969 O1029 1.956 . S
Li969 O1031 1.961 . S
Li970 N1015 1.990 . S
Li970 O1028 1.961 . S
Li970 O1030 1.956 . S
Li970 O1031 1.970 . S
Li971 N1021 1.990 . S
Li971 O1029 1.961 . S
Li971 O1030 1.970 . S
Li971 O1031 1.956 . S
C972 C974 1.348 . S
C972 C975 1.356 . S
C972 O1028 1.325 . S
N973 C976 1.314 . S
N973 C977 1.279 . S
C974 C972 1.348 . S
C974 C976 1.353 . S
C974 H1032 0.929 . S
C975 C972 1.356 . S
C975 C977 1.358 . S
C975 H1033 0.930 . S
C976 N973 1.314 . S
C976 C974 1.353 . S
C976 H1034 0.930 . S
C977 N973 1.279 . S
C977 C975 1.358 . S
C977 H1035 0.930 . S
C978 C981 1.348 . S
C978 C982 1.356 . S
C978 O1029 1.325 . S
C979 N980 1.279 . S
C979 C982 1.358 . S
C979 H1036 0.930 . S
N980 C979 1.279 . S
N980 C983 1.314 . S
C981 C978 1.348 . S
C981 C983 1.353 . S
C981 H1037 0.929 . S
C982 C978 1.356 . S
C982 C979 1.358 . S
C982 H1038 0.930 . S
C983 N980 1.314 . S
C983 C981 1.353 . S
C983 H1039 0.930 . S
C984 N985 1.314 . S
C984 C989 1.353 . S
C984 H990 0.930 . S
N985 Li968 1.990 . S
N985 C984 1.314 . S
N985 C987 1.279 . S
C986 C987 1.358 . S
C986 C988 1.356 . S
C986 H1040 0.930 . S
C987 N985 1.279 . S
C987 C986 1.358 . S
C987 H991 0.930 . S
C988 C986 1.356 . S
C988 C989 1.348 . S
C989 C984 1.353 . S
C989 C988 1.348 . S
C989 H1041 0.929 . S
H990 C984 0.930 . S
H991 C987 0.930 . S
C992 N993 1.314 . S
C992 C994 1.353 . S
C992 H998 0.930 . S
N993 Li969 1.990 . S
N993 C992 1.314 . S
N993 C996 1.279 . S
C994 C992 1.353 . S
C994 C997 1.348 . S
C994 H1042 0.929 . S
C995 C996 1.358 . S
C995 C997 1.356 . S
C995 H1043 0.930 . S
C996 N993 1.279 . S
C996 C995 1.358 . S
C996 H999 0.930 . S
C997 C994 1.348 . S
C997 C995 1.356 . S
H998 C992 0.930 . S
H999 C996 0.930 . S
C1000 C1002 1.348 . S
C1000 C1003 1.356 . S
C1000 O1030 1.325 . S
N1001 C1004 1.314 . S
N1001 C1005 1.279 . S
C1002 C1000 1.348 . S
C1002 C1004 1.353 . S
C1002 H1044 0.929 . S
C1003 C1000 1.356 . S
C1003 C1005 1.358 . S
C1003 H1045 0.930 . S
C1004 N1001 1.314 . S
C1004 C1002 1.353 . S
C1004 H1046 0.930 . S
C1005 N1001 1.279 . S
C1005 C1003 1.358 . S
C1005 H1047 0.930 . S
C1006 C1007 1.348 . S
C1006 C1008 1.356 . S
C1006 O1031 1.325 . S
C1007 C1006 1.348 . S
C1007 C1009 1.353 . S
C1007 H1048 0.929 . S
C1008 C1006 1.356 . S
C1008 C1010 1.358 . S
C1008 H1049 0.930 . S
C1009 C1007 1.353 . S
C1009 N1011 1.314 . S
C1009 H1050 0.930 . S
C1010 C1008 1.358 . S
C1010 N1011 1.279 . S
C1010 H1051 0.930 . S
N1011 C1009 1.314 . S
N1011 C1010 1.279 . S
C1012 C1014 1.353 . S
C1012 N1015 1.314 . S
C1012 H1018 0.930 . S
C1013 N1015 1.279 . S
C1013 C1016 1.358 . S
C1013 H1019 0.930 . S
C1014 C1012 1.353 . S
C1014 C1017 1.348 . S
C1014 H1052 0.929 . S
N1015 Li970 1.990 . S
N1015 C1012 1.314 . S
N1015 C1013 1.279 . S
C1016 C1013 1.358 . S
C1016 C1017 1.356 . S
C1016 H1053 0.930 . S
C1017 C1014 1.348 . S
C1017 C1016 1.356 . S
H1018 C1012 0.930 . S
H1019 C1013 0.930 . S
C1020 N1021 1.314 . S
C1020 C1022 1.353 . S
C1020 H1026 0.930 . S
N1021 Li971 1.990 . S
N1021 C1020 1.314 . S
N1021 C1024 1.279 . S
C1022 C1020 1.353 . S
C1022 C1025 1.348 . S
C1022 H1054 0.929 . S
C1023 C1024 1.358 . S
C1023 C1025 1.356 . S
C1023 H1055 0.930 . S
C1024 N1021 1.279 . S
C1024 C1023 1.358 . S
C1024 H1027 0.930 . S
C1025 C1022 1.348 . S
C1025 C1023 1.356 . S
H1026 C1020 0.930 . S
H1027 C1024 0.930 . S
O1028 Li968 1.956 . S
O1028 Li969 1.970 . S
O1028 Li970 1.961 . S
O1028 C972 1.325 . S
O1029 Li968 1.970 . S
O1029 Li969 1.956 . S
O1029 Li971 1.961 . S
O1029 C978 1.325 . S
O1030 Li968 1.961 . S
O1030 Li970 1.956 . S
O1030 Li971 1.970 . S
O1030 C1000 1.325 . S
O1031 Li969 1.961 . S
O1031 Li970 1.970 . S
O1031 Li971 1.956 . S
O1031 C1006 1.325 . S
H1032 C974 0.929 . S
H1033 C975 0.930 . S
H1034 C976 0.930 . S
H1035 C977 0.930 . S
H1036 C979 0.930 . S
H1037 C981 0.929 . S
H1038 C982 0.930 . S
H1039 C983 0.930 . S
H1040 C986 0.930 . S
H1041 C989 0.929 . S
H1042 C994 0.929 . S
H1043 C995 0.930 . S
H1044 C1002 0.929 . S
H1045 C1003 0.930 . S
H1046 C1004 0.930 . S
H1047 C1005 0.930 . S
H1048 C1007 0.929 . S
H1049 C1008 0.930 . S
H1050 C1009 0.930 . S
H1051 C1010 0.930 . S
H1052 C1014 0.929 . S
H1053 C1016 0.930 . S
H1054 C1022 0.929 . S
H1055 C1023 0.930 . S
H1056 C1074 0.951 . S
H1057 C1076 0.951 . S
H1058 C1078 0.950 . S
H1059 C1079 0.950 . S
H1060 C1081 0.950 . S
H1061 C1084 0.950 . S
H1062 C1085 0.950 . S
H1063 C1087 0.950 . S
H1064 C1088 0.950 1_655 S
H1065 C1089 0.951 . S
H1066 C1091 0.951 . S
H1067 C1093 0.950 . S
H1068 C1094 0.950 . S
H1069 C1096 0.950 . S
H1070 C1099 0.950 . S
H1071 C1100 0.950 . S
H1072 C1102 0.950 . S
H1073 C1103 0.950 1_455 S
C1074 H1056 0.951 . S
C1074 C1075 1.366 . S
C1074 C1076 1.388 . S
C1075 C1074 1.366 . S
C1075 C1079 1.385 . S
C1076 H1057 0.951 . S
C1076 C1074 1.388 . S
C1076 C1077 1.366 . S
C1077 C1076 1.366 . S
C1077 C1078 1.414 . S
C1077 C1080 1.499 . S
C1078 H1058 0.950 . S
C1078 C1077 1.414 . S
C1078 C1079 1.374 . S
C1079 H1059 0.950 . S
C1079 C1075 1.385 . S
C1079 C1078 1.374 . S
C1080 C1077 1.499 . S
C1080 C1081 1.373 . S
C1080 C1082 1.389 . S
C1081 H1060 0.950 . S
C1081 C1080 1.373 . S
C1081 C1097 1.377 1_454 S
C1082 C1080 1.389 . S
C1082 C1083 1.524 . S
C1082 C1096 1.377 1_454 S
C1083 C1082 1.524 . S
C1083 C1084 1.397 . S
C1083 C1088 1.363 . S
C1084 H1061 0.950 . S
C1084 C1083 1.397 . S
C1084 C1085 1.334 . S
C1085 H1062 0.950 . S
C1085 C1084 1.334 . S
C1085 C1086 1.287 . S
C1086 C1085 1.287 . S
C1086 C1087 1.524 . S
C1086 H1105 0.913 . S
C1087 H1063 0.950 . S
C1087 C1086 1.524 . S
C1087 C1088 1.415 . S
C1088 H1064 0.950 1_455 S
C1088 C1083 1.363 . S
C1088 C1087 1.415 . S
C1089 H1065 0.951 . S
C1089 C1090 1.366 . S
C1089 C1091 1.388 . S
C1090 C1089 1.366 . S
C1090 C1094 1.385 . S
C1091 H1066 0.951 . S
C1091 C1089 1.388 . S
C1091 C1092 1.366 . S
C1092 C1091 1.366 . S
C1092 C1093 1.414 . S
C1092 C1095 1.499 . S
C1093 H1067 0.950 . S
C1093 C1092 1.414 . S
C1093 C1094 1.374 . S
C1094 H1068 0.950 . S
C1094 C1090 1.385 . S
C1094 C1093 1.374 . S
C1095 C1092 1.499 . S
C1095 C1096 1.373 . S
C1095 C1097 1.389 . S
C1096 H1069 0.950 . S
C1096 C1082 1.377 1_656 S
C1096 C1095 1.373 . S
C1097 C1081 1.377 1_656 S
C1097 C1095 1.389 . S
C1097 C1098 1.524 . S
C1098 C1097 1.524 . S
C1098 C1099 1.397 . S
C1098 C1103 1.363 . S
C1099 H1070 0.950 . S
C1099 C1098 1.397 . S
C1099 C1100 1.334 . S
C1100 H1071 0.950 . S
C1100 C1099 1.334 . S
C1100 C1101 1.287 . S
C1101 C1100 1.287 . S
C1101 C1102 1.524 . S
C1101 H1104 0.999 . S
C1102 H1072 0.950 . S
C1102 C1101 1.524 . S
C1102 C1103 1.415 . S
C1103 H1073 0.950 1_655 S
C1103 C1098 1.363 . S
C1103 C1102 1.415 . S
H1104 C1101 0.999 . S
H1105 C1086 0.913 . S
H1106 C1124 0.951 . S
H1107 C1126 0.951 . S
H1108 C1128 0.950 . S
H1109 C1129 0.950 . S
H1110 C1131 0.950 . S
H1111 C1134 0.950 . S
H1112 C1135 0.950 . S
H1113 C1137 0.950 . S
H1114 C1138 0.950 . S
H1115 C1139 0.951 . S
H1116 C1141 0.951 . S
H1117 C1143 0.950 . S
H1118 C1144 0.950 . S
H1119 C1146 0.950 . S
H1120 C1149 0.950 . S
H1121 C1150 0.950 . S
H1122 C1152 0.950 . S
H1123 C1153 0.950 . S
C1124 H1106 0.951 . S
C1124 C1125 1.366 . S
C1124 C1126 1.388 . S
C1125 C1124 1.366 . S
C1125 C1129 1.385 . S
C1126 H1107 0.951 . S
C1126 C1124 1.388 . S
C1126 C1127 1.366 . S
C1127 C1126 1.366 . S
C1127 C1128 1.414 . S
C1127 C1130 1.499 . S
C1128 H1108 0.950 . S
C1128 C1127 1.414 . S
C1128 C1129 1.374 . S
C1129 H1109 0.950 . S
C1129 C1125 1.385 . S
C1129 C1128 1.374 . S
C1130 C1127 1.499 . S
C1130 C1131 1.373 . S
C1130 C1132 1.389 1_565 S
C1131 H1110 0.950 . S
C1131 C1130 1.373 . S
C1131 C1147 1.377 . S
C1132 C1130 1.389 1_545 S
C1132 C1133 1.524 . S
C1132 C1146 1.377 . S
C1133 C1132 1.524 . S
C1133 C1134 1.397 . S
C1133 C1138 1.363 . S
C1134 H1111 0.950 . S
C1134 C1133 1.397 . S
C1134 C1135 1.334 . S
C1135 H1112 0.950 . S
C1135 C1134 1.334 . S
C1135 C1136 1.287 . S
C1136 C1135 1.287 . S
C1136 C1137 1.524 . S
C1136 H1155 0.913 . S
C1137 H1113 0.950 . S
C1137 C1136 1.524 . S
C1137 C1138 1.415 . S
C1138 H1114 0.950 . S
C1138 C1133 1.363 . S
C1138 C1137 1.415 . S
C1139 H1115 0.951 . S
C1139 C1140 1.366 . S
C1139 C1141 1.388 . S
C1140 C1139 1.366 . S
C1140 C1144 1.385 . S
C1141 H1116 0.951 . S
C1141 C1139 1.388 . S
C1141 C1142 1.366 . S
C1142 C1141 1.366 . S
C1142 C1143 1.414 . S
C1142 C1145 1.499 . S
C1143 H1117 0.950 . S
C1143 C1142 1.414 . S
C1143 C1144 1.374 . S
C1144 H1118 0.950 . S
C1144 C1140 1.385 . S
C1144 C1143 1.374 . S
C1145 C1142 1.499 . S
C1145 C1146 1.373 . S
C1145 C1147 1.389 1_545 S
C1146 H1119 0.950 . S
C1146 C1132 1.377 . S
C1146 C1145 1.373 . S
C1147 C1131 1.377 . S
C1147 C1145 1.389 1_565 S
C1147 C1148 1.524 . S
C1148 C1147 1.524 . S
C1148 C1149 1.397 . S
C1148 C1153 1.363 . S
C1149 H1120 0.950 . S
C1149 C1148 1.397 . S
C1149 C1150 1.334 . S
C1150 H1121 0.950 . S
C1150 C1149 1.334 . S
C1150 C1151 1.287 . S
C1151 C1150 1.287 . S
C1151 C1152 1.524 . S
C1151 H1154 0.999 . S
C1152 H1122 0.950 . S
C1152 C1151 1.524 . S
C1152 C1153 1.415 . S
C1153 H1123 0.950 . S
C1153 C1148 1.363 . S
C1153 C1152 1.415 . S
H1154 C1151 0.999 . S
H1155 C1136 0.913 . S
H1156 C1174 0.951 . S
H1157 C1176 0.951 . S
H1158 C1178 0.950 . S
H1159 C1179 0.950 . S
H1160 C1181 0.950 . S
H1161 C1184 0.950 . S
H1162 C1185 0.950 . S
H1163 C1187 0.950 . S
H1164 C1188 0.950 . S
H1165 C1189 0.951 . S
H1166 C1191 0.951 . S
H1167 C1193 0.950 . S
H1168 C1194 0.950 . S
H1169 C1196 0.950 . S
H1170 C1199 0.950 . S
H1171 C1200 0.950 . S
H1172 C1202 0.950 . S
H1173 C1203 0.950 . S
C1174 H1156 0.951 . S
C1174 C1175 1.366 . S
C1174 C1176 1.388 . S
C1175 C1174 1.366 . S
C1175 C1179 1.385 . S
C1176 H1157 0.951 . S
C1176 C1174 1.388 . S
C1176 C1177 1.366 . S
C1177 C1176 1.366 . S
C1177 C1178 1.414 . S
C1177 C1180 1.499 . S
C1178 H1158 0.950 . S
C1178 C1177 1.414 . S
C1178 C1179 1.374 . S
C1179 H1159 0.950 . S
C1179 C1175 1.385 . S
C1179 C1178 1.374 . S
C1180 C1177 1.499 . S
C1180 C1181 1.373 . S
C1180 C1182 1.389 . S
C1181 H1160 0.950 . S
C1181 C1180 1.373 . S
C1181 C1197 1.377 1_554 S
C1182 C1180 1.389 . S
C1182 C1183 1.524 . S
C1182 C1196 1.377 1_554 S
C1183 C1182 1.524 . S
C1183 C1184 1.397 . S
C1183 C1188 1.363 . S
C1184 H1161 0.950 . S
C1184 C1183 1.397 . S
C1184 C1185 1.334 . S
C1185 H1162 0.950 . S
C1185 C1184 1.334 . S
C1185 C1186 1.287 . S
C1186 C1185 1.287 . S
C1186 C1187 1.524 . S
C1186 H1205 0.913 . S
C1187 H1163 0.950 . S
C1187 C1186 1.524 . S
C1187 C1188 1.415 . S
C1188 H1164 0.950 . S
C1188 C1183 1.363 . S
C1188 C1187 1.415 . S
C1189 H1165 0.951 . S
C1189 C1190 1.366 . S
C1189 C1191 1.388 . S
C1190 C1189 1.366 . S
C1190 C1194 1.385 . S
C1191 H1166 0.951 . S
C1191 C1189 1.388 . S
C1191 C1192 1.366 . S
C1192 C1191 1.366 . S
C1192 C1193 1.414 . S
C1192 C1195 1.499 . S
C1193 H1167 0.950 . S
C1193 C1192 1.414 . S
C1193 C1194 1.374 . S
C1194 H1168 0.950 . S
C1194 C1190 1.385 . S
C1194 C1193 1.374 . S
C1195 C1192 1.499 . S
C1195 C1196 1.373 . S
C1195 C1197 1.389 . S
C1196 H1169 0.950 . S
C1196 C1182 1.377 1_556 S
C1196 C1195 1.373 . S
C1197 C1181 1.377 1_556 S
C1197 C1195 1.389 . S
C1197 C1198 1.524 . S
C1198 C1197 1.524 . S
C1198 C1199 1.397 . S
C1198 C1203 1.363 . S
C1199 H1170 0.950 . S
C1199 C1198 1.397 . S
C1199 C1200 1.334 . S
C1200 H1171 0.950 . S
C1200 C1199 1.334 . S
C1200 C1201 1.287 . S
C1201 C1200 1.287 . S
C1201 C1202 1.524 . S
C1201 H1204 0.999 . S
C1202 H1172 0.950 . S
C1202 C1201 1.524 . S
C1202 C1203 1.415 . S
C1203 H1173 0.950 . S
C1203 C1198 1.363 . S
C1203 C1202 1.415 . S
H1204 C1201 0.999 . S
H1205 C1186 0.913 . S
H1206 C1224 0.951 . S
H1207 C1226 0.951 . S
H1208 C1228 0.950 1_655 S
H1209 C1229 0.950 . S
H1210 C1231 0.950 . S
H1211 C1234 0.950 . S
H1212 C1235 0.950 . S
H1213 C1237 0.950 . S
H1214 C1238 0.950 . S
H1215 C1239 0.951 . S
H1216 C1241 0.951 . S
H1217 C1243 0.950 1_455 S
H1218 C1244 0.950 . S
H1219 C1246 0.950 . S
H1220 C1249 0.950 . S
H1221 C1250 0.950 . S
H1222 C1252 0.950 . S
H1223 C1253 0.950 . S
C1224 H1206 0.951 . S
C1224 C1225 1.366 . S
C1224 C1226 1.388 . S
C1225 C1224 1.366 . S
C1225 C1229 1.385 . S
C1226 H1207 0.951 . S
C1226 C1224 1.388 . S
C1226 C1227 1.366 . S
C1227 C1226 1.366 . S
C1227 C1228 1.414 . S
C1227 C1230 1.499 . S
C1228 H1208 0.950 1_455 S
C1228 C1227 1.414 . S
C1228 C1229 1.374 . S
C1229 H1209 0.950 . S
C1229 C1225 1.385 . S
C1229 C1228 1.374 . S
C1230 C1227 1.499 . S
C1230 C1231 1.373 1_455 S
C1230 C1232 1.389 . S
C1231 H1210 0.950 . S
C1231 C1230 1.373 1_655 S
C1231 C1247 1.377 . S
C1232 C1230 1.389 . S
C1232 C1233 1.524 . S
C1232 C1246 1.377 . S
C1233 C1232 1.524 . S
C1233 C1234 1.397 . S
C1233 C1238 1.363 . S
C1234 H1211 0.950 . S
C1234 C1233 1.397 . S
C1234 C1235 1.334 . S
C1235 H1212 0.950 . S
C1235 C1234 1.334 . S
C1235 C1236 1.287 . S
C1236 C1235 1.287 . S
C1236 C1237 1.524 . S
C1236 H1255 0.913 . S
C1237 H1213 0.950 . S
C1237 C1236 1.524 . S
C1237 C1238 1.415 . S
C1238 H1214 0.950 . S
C1238 C1233 1.363 . S
C1238 C1237 1.415 . S
C1239 H1215 0.951 . S
C1239 C1240 1.366 . S
C1239 C1241 1.388 . S
C1240 C1239 1.366 . S
C1240 C1244 1.385 . S
C1241 H1216 0.951 . S
C1241 C1239 1.388 . S
C1241 C1242 1.366 . S
C1242 C1241 1.366 . S
C1242 C1243 1.414 . S
C1242 C1245 1.499 . S
C1243 H1217 0.950 1_655 S
C1243 C1242 1.414 . S
C1243 C1244 1.374 . S
C1244 H1218 0.950 . S
C1244 C1240 1.385 . S
C1244 C1243 1.374 . S
C1245 C1242 1.499 . S
C1245 C1246 1.373 1_655 S
C1245 C1247 1.389 . S
C1246 H1219 0.950 . S
C1246 C1232 1.377 . S
C1246 C1245 1.373 1_455 S
C1247 C1231 1.377 . S
C1247 C1245 1.389 . S
C1247 C1248 1.524 . S
C1248 C1247 1.524 . S
C1248 C1249 1.397 . S
C1248 C1253 1.363 . S
C1249 H1220 0.950 . S
C1249 C1248 1.397 . S
C1249 C1250 1.334 . S
C1250 H1221 0.950 . S
C1250 C1249 1.334 . S
C1250 C1251 1.287 . S
C1251 C1250 1.287 . S
C1251 C1252 1.524 . S
C1251 H1254 0.999 . S
C1252 H1222 0.950 . S
C1252 C1251 1.524 . S
C1252 C1253 1.415 . S
C1253 H1223 0.950 . S
C1253 C1248 1.363 . S
C1253 C1252 1.415 . S
H1254 C1251 0.999 . S
H1255 C1236 0.913 . S
H1256 C1274 0.951 . S
H1257 C1276 0.951 . S
H1258 C1278 0.950 . S
H1259 C1279 0.950 . S
H1260 C1281 0.946 . S
H1261 C1284 0.950 . S
H1262 C1285 0.950 . S
H1263 C1287 0.950 . S
H1264 C1288 0.950 . S
H1265 C1289 0.951 . S
H1266 C1291 0.951 . S
H1267 C1293 0.950 . S
H1268 C1294 0.950 . S
H1269 C1296 0.946 . S
H1270 C1299 0.950 . S
H1271 C1300 0.950 . S
H1272 C1302 0.950 . S
H1273 C1303 0.950 . S
C1274 H1256 0.951 . S
C1274 C1275 1.366 . S
C1274 C1276 1.388 . S
C1275 C1274 1.366 . S
C1275 C1279 1.385 . S
C1276 H1257 0.951 . S
C1276 C1274 1.388 . S
C1276 C1277 1.366 . S
C1277 C1276 1.366 . S
C1277 C1278 1.414 . S
C1277 C1280 1.499 . S
C1278 H1258 0.950 . S
C1278 C1277 1.414 . S
C1278 C1279 1.374 . S
C1279 H1259 0.950 . S
C1279 C1275 1.385 . S
C1279 C1278 1.374 . S
C1280 C1277 1.499 . S
C1280 C1281 1.379 1_545 S
C1280 C1282 1.389 . S
C1281 H1260 0.946 . S
C1281 C1280 1.379 1_565 S
C1281 C1297 1.373 1_556 S
C1282 C1280 1.389 . S
C1282 C1283 1.524 . S
C1282 C1296 1.373 1_556 S
C1283 C1282 1.524 . S
C1283 C1284 1.397 . S
C1283 C1288 1.363 . S
C1284 H1261 0.950 . S
C1284 C1283 1.397 . S
C1284 C1285 1.334 . S
C1285 H1262 0.950 . S
C1285 C1284 1.334 . S
C1285 C1286 1.287 . S
C1286 C1285 1.287 . S
C1286 C1287 1.524 . S
C1286 H1305 0.913 . S
C1287 H1263 0.950 . S
C1287 C1286 1.524 . S
C1287 C1288 1.415 . S
C1288 H1264 0.950 . S
C1288 C1283 1.363 . S
C1288 C1287 1.415 . S
C1289 H1265 0.951 . S
C1289 C1290 1.366 . S
C1289 C1291 1.388 . S
C1290 C1289 1.366 . S
C1290 C1294 1.385 . S
C1291 H1266 0.951 . S
C1291 C1289 1.388 . S
C1291 C1292 1.366 . S
C1292 C1291 1.366 . S
C1292 C1293 1.414 . S
C1292 C1295 1.499 . S
C1293 H1267 0.950 . S
C1293 C1292 1.414 . S
C1293 C1294 1.374 . S
C1294 H1268 0.950 . S
C1294 C1290 1.385 . S
C1294 C1293 1.374 . S
C1295 C1292 1.499 . S
C1295 C1296 1.380 1_565 S
C1295 C1297 1.389 . S
C1296 H1269 0.946 . S
C1296 C1282 1.373 1_554 S
C1296 C1295 1.380 1_545 S
C1297 C1281 1.373 1_554 S
C1297 C1295 1.389 . S
C1297 C1298 1.524 . S
C1298 C1297 1.524 . S
C1298 C1299 1.397 . S
C1298 C1303 1.363 . S
C1299 H1270 0.950 . S
C1299 C1298 1.397 . S
C1299 C1300 1.334 . S
C1300 H1271 0.950 . S
C1300 C1299 1.334 . S
C1300 C1301 1.287 . S
C1301 C1300 1.287 . S
C1301 C1302 1.524 . S
C1301 H1304 0.999 . S
C1302 H1272 0.950 . S
C1302 C1301 1.524 . S
C1302 C1303 1.415 . S
C1303 H1273 0.950 . S
C1303 C1298 1.363 . S
C1303 C1302 1.415 . S
H1304 C1301 0.999 . S
H1305 C1286 0.913 . S
H1306 C1324 0.951 . S
H1307 C1326 0.951 . S
H1308 C1328 0.950 . S
H1309 C1329 0.950 . S
H1310 C1331 0.950 . S
H1311 C1334 0.950 . S
H1312 C1335 0.950 . S
H1313 C1337 0.950 . S
H1314 C1338 0.950 . S
H1315 C1339 0.951 . S
H1316 C1341 0.951 . S
H1317 C1343 0.950 . S
H1318 C1344 0.950 . S
H1319 C1346 0.950 . S
H1320 C1349 0.950 . S
H1321 C1350 0.950 . S
H1322 C1352 0.950 . S
H1323 C1353 0.950 . S
C1324 H1306 0.951 . S
C1324 C1325 1.366 . S
C1324 C1326 1.388 . S
C1325 C1324 1.366 . S
C1325 C1329 1.385 . S
C1326 H1307 0.951 . S
C1326 C1324 1.388 . S
C1326 C1327 1.366 . S
C1327 C1326 1.366 . S
C1327 C1328 1.414 . S
C1327 C1330 1.499 . S
C1328 H1308 0.950 . S
C1328 C1327 1.414 . S
C1328 C1329 1.374 . S
C1329 H1309 0.950 . S
C1329 C1325 1.385 . S
C1329 C1328 1.374 . S
C1330 C1327 1.499 . S
C1330 C1331 1.373 . S
C1330 C1332 1.389 . S
C1331 H1310 0.950 . S
C1331 C1330 1.373 . S
C1331 C1347 1.377 . S
C1332 C1330 1.389 . S
C1332 C1333 1.524 . S
C1332 C1346 1.377 . S
C1333 C1332 1.524 . S
C1333 C1334 1.397 . S
C1333 C1338 1.363 . S
C1334 H1311 0.950 . S
C1334 C1333 1.397 . S
C1334 C1335 1.334 . S
C1335 H1312 0.950 . S
C1335 C1334 1.334 . S
C1335 C1336 1.287 . S
C1336 C1335 1.287 . S
C1336 C1337 1.524 . S
C1336 H1355 0.913 . S
C1337 H1313 0.950 . S
C1337 C1336 1.524 . S
C1337 C1338 1.415 . S
C1338 H1314 0.950 . S
C1338 C1333 1.363 . S
C1338 C1337 1.415 . S
C1339 H1315 0.951 . S
C1339 C1340 1.366 . S
C1339 C1341 1.388 . S
C1340 C1339 1.366 . S
C1340 C1344 1.385 . S
C1341 H1316 0.951 . S
C1341 C1339 1.388 . S
C1341 C1342 1.366 . S
C1342 C1341 1.366 . S
C1342 C1343 1.414 . S
C1342 C1345 1.499 . S
C1343 H1317 0.950 . S
C1343 C1342 1.414 . S
C1343 C1344 1.374 . S
C1344 H1318 0.950 . S
C1344 C1340 1.385 . S
C1344 C1343 1.374 . S
C1345 C1342 1.499 . S
C1345 C1346 1.373 . S
C1345 C1347 1.389 . S
C1346 H1319 0.950 . S
C1346 C1332 1.377 . S
C1346 C1345 1.373 . S
C1347 C1331 1.377 . S
C1347 C1345 1.389 . S
C1347 C1348 1.524 . S
C1348 C1347 1.524 . S
C1348 C1349 1.397 . S
C1348 C1353 1.363 . S
C1349 H1320 0.950 . S
C1349 C1348 1.397 . S
C1349 C1350 1.334 . S
C1350 H1321 0.950 . S
C1350 C1349 1.334 . S
C1350 C1351 1.287 . S
C1351 C1350 1.287 . S
C1351 C1352 1.524 . S
C1351 H1354 0.999 . S
C1352 H1322 0.950 . S
C1352 C1351 1.524 . S
C1352 C1353 1.415 . S
C1353 H1323 0.950 . S
C1353 C1348 1.363 . S
C1353 C1352 1.415 . S
H1354 C1351 0.999 . S
H1355 C1336 0.913 . S
H1356 C1374 0.951 . S
H1357 C1376 0.951 . S
H1358 C1378 0.950 1_455 S
H1359 C1379 0.950 . S
H1360 C1381 0.950 . S
H1361 C1384 0.950 . S
H1362 C1385 0.950 . S
H1363 C1387 0.950 . S
H1364 C1388 0.950 . S
H1365 C1389 0.951 . S
H1366 C1391 0.951 . S
H1367 C1393 0.950 1_655 S
H1368 C1394 0.950 . S
H1369 C1396 0.950 . S
H1370 C1399 0.950 . S
H1371 C1400 0.950 . S
H1372 C1402 0.950 . S
H1373 C1403 0.950 . S
C1374 H1356 0.951 . S
C1374 C1375 1.366 . S
C1374 C1376 1.388 . S
C1375 C1374 1.366 . S
C1375 C1379 1.385 . S
C1376 H1357 0.951 . S
C1376 C1374 1.388 . S
C1376 C1377 1.366 . S
C1377 C1376 1.366 . S
C1377 C1378 1.414 . S
C1377 C1380 1.499 . S
C1378 H1358 0.950 1_655 S
C1378 C1377 1.414 . S
C1378 C1379 1.374 . S
C1379 H1359 0.950 . S
C1379 C1375 1.385 . S
C1379 C1378 1.374 . S
C1380 C1377 1.499 . S
C1380 C1381 1.373 1_655 S
C1380 C1382 1.389 . S
C1381 H1360 0.950 . S
C1381 C1380 1.373 1_455 S
C1381 C1397 1.377 1_556 S
C1382 C1380 1.389 . S
C1382 C1383 1.524 . S
C1382 C1396 1.377 1_556 S
C1383 C1382 1.524 . S
C1383 C1384 1.397 . S
C1383 C1388 1.363 1_556 S
C1384 H1361 0.950 . S
C1384 C1383 1.397 . S
C1384 C1385 1.334 . S
C1385 H1362 0.950 . S
C1385 C1384 1.334 . S
C1385 C1386 1.287 . S
C1386 C1385 1.287 . S
C1386 C1387 1.524 1_556 S
C1386 H1405 0.913 . S
C1387 H1363 0.950 . S
C1387 C1386 1.524 1_554 S
C1387 C1388 1.415 . S
C1388 H1364 0.950 . S
C1388 C1383 1.363 1_554 S
C1388 C1387 1.415 . S
C1389 H1365 0.951 . S
C1389 C1390 1.366 . S
C1389 C1391 1.388 . S
C1390 C1389 1.366 . S
C1390 C1394 1.385 . S
C1391 H1366 0.951 . S
C1391 C1389 1.388 . S
C1391 C1392 1.366 . S
C1392 C1391 1.366 . S
C1392 C1393 1.414 . S
C1392 C1395 1.499 . S
C1393 H1367 0.950 1_455 S
C1393 C1392 1.414 . S
C1393 C1394 1.374 . S
C1394 H1368 0.950 . S
C1394 C1390 1.385 . S
C1394 C1393 1.374 . S
C1395 C1392 1.499 . S
C1395 C1396 1.373 1_455 S
C1395 C1397 1.389 . S
C1396 H1369 0.950 . S
C1396 C1382 1.377 1_554 S
C1396 C1395 1.373 1_655 S
C1397 C1381 1.377 1_554 S
C1397 C1395 1.389 . S
C1397 C1398 1.524 . S
C1398 C1397 1.524 . S
C1398 C1399 1.397 . S
C1398 C1403 1.363 1_554 S
C1399 H1370 0.950 . S
C1399 C1398 1.397 . S
C1399 C1400 1.334 . S
C1400 H1371 0.950 . S
C1400 C1399 1.334 . S
C1400 C1401 1.287 . S
C1401 C1400 1.287 . S
C1401 C1402 1.524 1_554 S
C1401 H1404 0.999 . S
C1402 H1372 0.950 . S
C1402 C1401 1.524 1_556 S
C1402 C1403 1.415 . S
C1403 H1373 0.950 . S
C1403 C1398 1.363 1_556 S
C1403 C1402 1.415 . S
H1404 C1401 0.999 . S
H1405 C1386 0.913 . S
H1406 C1424 0.951 . S
H1407 C1426 1.005 . S
H1408 C1428 0.950 . S
H1409 C1429 0.950 . S
H1410 C1431 0.950 . S
H1411 C1434 0.950 1_565 S
H1412 C1435 0.950 . S
H1413 C1437 0.950 . S
H1414 C1438 0.950 . S
H1415 C1439 0.951 . S
H1416 C1441 1.004 . S
H1417 C1443 0.950 . S
H1418 C1444 0.950 . S
H1419 C1446 0.950 . S
H1420 C1449 0.950 1_545 S
H1421 C1450 0.950 . S
H1422 C1452 0.950 . S
H1423 C1453 0.950 . S
C1424 H1406 0.951 . S
C1424 C1425 1.366 . S
C1424 C1426 1.388 . S
C1425 C1424 1.366 . S
C1425 C1429 1.385 . S
C1426 H1407 1.005 . S
C1426 C1424 1.388 . S
C1426 C1427 1.366 . S
C1427 C1426 1.366 . S
C1427 C1428 1.414 . S
C1427 C1430 1.499 . S
C1428 H1408 0.950 . S
C1428 C1427 1.414 . S
C1428 C1429 1.374 . S
C1429 H1409 0.950 . S
C1429 C1425 1.385 . S
C1429 C1428 1.374 . S
C1430 C1427 1.499 . S
C1430 C1431 1.373 . S
C1430 C1432 1.389 1_565 S
C1431 H1410 0.950 . S
C1431 C1430 1.373 . S
C1431 C1447 1.377 . S
C1432 C1430 1.389 1_545 S
C1432 C1433 1.524 . S
C1432 C1446 1.377 . S
C1433 C1432 1.524 . S
C1433 C1434 1.397 . S
C1433 C1438 1.363 . S
C1434 H1411 0.950 1_545 S
C1434 C1433 1.397 . S
C1434 C1435 1.334 . S
C1435 H1412 0.950 . S
C1435 C1434 1.334 . S
C1435 C1436 1.287 . S
C1436 C1435 1.287 . S
C1436 C1437 1.524 . S
C1436 H1455 0.913 . S
C1437 H1413 0.950 . S
C1437 C1436 1.524 . S
C1437 C1438 1.415 . S
C1438 H1414 0.950 . S
C1438 C1433 1.363 . S
C1438 C1437 1.415 . S
C1439 H1415 0.951 . S
C1439 C1440 1.366 . S
C1439 C1441 1.388 . S
C1440 C1439 1.366 . S
C1440 C1444 1.385 . S
C1441 H1416 1.004 . S
C1441 C1439 1.388 . S
C1441 C1442 1.366 . S
C1442 C1441 1.366 . S
C1442 C1443 1.414 . S
C1442 C1445 1.499 . S
C1443 H1417 0.950 . S
C1443 C1442 1.414 . S
C1443 C1444 1.374 . S
C1444 H1418 0.950 . S
C1444 C1440 1.385 . S
C1444 C1443 1.374 . S
C1445 C1442 1.499 . S
C1445 C1446 1.373 . S
C1445 C1447 1.389 1_545 S
C1446 H1419 0.950 . S
C1446 C1432 1.377 . S
C1446 C1445 1.373 . S
C1447 C1431 1.377 . S
C1447 C1445 1.389 1_565 S
C1447 C1448 1.524 . S
C1448 C1447 1.524 . S
C1448 C1449 1.397 . S
C1448 C1453 1.363 . S
C1449 H1420 0.950 1_565 S
C1449 C1448 1.397 . S
C1449 C1450 1.334 . S
C1450 H1421 0.950 . S
C1450 C1449 1.334 . S
C1450 C1451 1.287 . S
C1451 C1450 1.287 . S
C1451 C1452 1.524 . S
C1451 H1454 0.999 . S
C1452 H1422 0.950 . S
C1452 C1451 1.524 . S
C1452 C1453 1.415 . S
C1453 H1423 0.950 . S
C1453 C1448 1.363 . S
C1453 C1452 1.415 . S
H1454 C1451 0.999 . S
H1455 C1436 0.913 . S
H1456 C1474 0.951 . S
H1457 C1476 0.951 . S
H1458 C1478 0.950 . S
H1459 C1479 0.950 . S
H1460 C1481 0.950 . S
H1461 C1484 0.950 . S
H1462 C1485 0.950 . S
H1463 C1487 0.950 . S
H1464 C1488 0.950 . S
H1465 C1489 0.951 . S
H1466 C1491 0.951 . S
H1467 C1493 0.950 . S
H1468 C1494 0.950 . S
H1469 C1496 0.950 . S
H1470 C1499 0.950 . S
H1471 C1500 0.950 . S
H1472 C1502 0.950 . S
H1473 C1503 0.950 . S
C1474 H1456 0.951 . S
C1474 C1475 1.366 . S
C1474 C1476 1.388 . S
C1475 C1474 1.366 . S
C1475 C1479 1.385 . S
C1476 H1457 0.951 . S
C1476 C1474 1.388 . S
C1476 C1477 1.366 . S
C1477 C1476 1.366 . S
C1477 C1478 1.414 . S
C1477 C1480 1.499 . S
C1478 H1458 0.950 . S
C1478 C1477 1.414 . S
C1478 C1479 1.374 . S
C1479 H1459 0.950 . S
C1479 C1475 1.385 . S
C1479 C1478 1.374 . S
C1480 C1477 1.499 . S
C1480 C1481 1.373 . S
C1480 C1482 1.389 . S
C1481 H1460 0.950 . S
C1481 C1480 1.373 . S
C1481 C1497 1.377 1_556 S
C1482 C1480 1.389 . S
C1482 C1483 1.524 . S
C1482 C1496 1.377 1_556 S
C1483 C1482 1.524 . S
C1483 C1484 1.397 . S
C1483 C1488 1.363 1_556 S
C1484 H1461 0.950 . S
C1484 C1483 1.397 . S
C1484 C1485 1.334 . S
C1485 H1462 0.950 . S
C1485 C1484 1.334 . S
C1485 C1486 1.287 . S
C1486 C1485 1.287 . S
C1486 C1487 1.524 1_556 S
C1486 H1505 0.913 . S
C1487 H1463 0.950 . S
C1487 C1486 1.524 1_554 S
C1487 C1488 1.415 . S
C1488 H1464 0.950 . S
C1488 C1483 1.363 1_554 S
C1488 C1487 1.415 . S
C1489 H1465 0.951 . S
C1489 C1490 1.366 . S
C1489 C1491 1.388 . S
C1490 C1489 1.366 . S
C1490 C1494 1.385 . S
C1491 H1466 0.951 . S
C1491 C1489 1.388 . S
C1491 C1492 1.366 . S
C1492 C1491 1.366 . S
C1492 C1493 1.414 . S
C1492 C1495 1.499 . S
C1493 H1467 0.950 . S
C1493 C1492 1.414 . S
C1493 C1494 1.374 . S
C1494 H1468 0.950 . S
C1494 C1490 1.385 . S
C1494 C1493 1.374 . S
C1495 C1492 1.499 . S
C1495 C1496 1.373 . S
C1495 C1497 1.389 . S
C1496 H1469 0.950 . S
C1496 C1482 1.377 1_554 S
C1496 C1495 1.373 . S
C1497 C1481 1.377 1_554 S
C1497 C1495 1.389 . S
C1497 C1498 1.524 . S
C1498 C1497 1.524 . S
C1498 C1499 1.397 . S
C1498 C1503 1.363 1_554 S
C1499 H1470 0.950 . S
C1499 C1498 1.397 . S
C1499 C1500 1.334 . S
C1500 H1471 0.950 . S
C1500 C1499 1.334 . S
C1500 C1501 1.287 . S
C1501 C1500 1.287 . S
C1501 C1502 1.524 1_554 S
C1501 H1504 0.999 . S
C1502 H1472 0.950 . S
C1502 C1501 1.524 1_556 S
C1502 C1503 1.415 . S
C1503 H1473 0.950 . S
C1503 C1498 1.363 1_556 S
C1503 C1502 1.415 . S
H1504 C1501 0.999 . S
H1505 C1486 0.913 . S
H1506 C1524 0.951 . S
H1507 C1526 0.951 . S
H1508 C1528 0.950 . S
H1509 C1529 0.950 . S
H1510 C1531 0.950 . S
H1511 C1534 0.950 . S
H1512 C1535 0.950 . S
H1513 C1537 0.950 . S
H1514 C1538 0.950 1_455 S
H1515 C1539 0.951 . S
H1516 C1541 0.951 . S
H1517 C1543 0.950 . S
H1518 C1544 0.950 . S
H1519 C1546 0.950 . S
H1520 C1549 0.950 . S
H1521 C1550 0.950 . S
H1522 C1552 0.950 . S
H1523 C1553 0.950 1_655 S
C1524 H1506 0.951 . S
C1524 C1525 1.366 . S
C1524 C1526 1.388 . S
C1525 C1524 1.366 . S
C1525 C1529 1.385 . S
C1526 H1507 0.951 . S
C1526 C1524 1.388 . S
C1526 C1527 1.366 . S
C1527 C1526 1.366 . S
C1527 C1528 1.414 . S
C1527 C1530 1.499 . S
C1528 H1508 0.950 . S
C1528 C1527 1.414 . S
C1528 C1529 1.374 . S
C1529 H1509 0.950 . S
C1529 C1525 1.385 . S
C1529 C1528 1.374 . S
C1530 C1527 1.499 . S
C1530 C1531 1.373 . S
C1530 C1532 1.389 . S
C1531 H1510 0.950 . S
C1531 C1530 1.373 . S
C1531 C1547 1.377 1_655 S
C1532 C1530 1.389 . S
C1532 C1533 1.524 . S
C1532 C1546 1.377 1_655 S
C1533 C1532 1.524 . S
C1533 C1534 1.397 . S
C1533 C1538 1.363 . S
C1534 H1511 0.950 . S
C1534 C1533 1.397 . S
C1534 C1535 1.334 . S
C1535 H1512 0.950 . S
C1535 C1534 1.334 . S
C1535 C1536 1.287 . S
C1536 C1535 1.287 . S
C1536 C1537 1.524 . S
C1536 H1555 0.913 . S
C1537 H1513 0.950 . S
C1537 C1536 1.524 . S
C1537 C1538 1.415 . S
C1538 H1514 0.950 1_655 S
C1538 C1533 1.363 . S
C1538 C1537 1.415 . S
C1539 H1515 0.951 . S
C1539 C1540 1.366 . S
C1539 C1541 1.388 . S
C1540 C1539 1.366 . S
C1540 C1544 1.385 . S
C1541 H1516 0.951 . S
C1541 C1539 1.388 . S
C1541 C1542 1.366 . S
C1542 C1541 1.366 . S
C1542 C1543 1.414 . S
C1542 C1545 1.499 . S
C1543 H1517 0.950 . S
C1543 C1542 1.414 . S
C1543 C1544 1.374 . S
C1544 H1518 0.950 . S
C1544 C1540 1.385 . S
C1544 C1543 1.374 . S
C1545 C1542 1.499 . S
C1545 C1546 1.373 . S
C1545 C1547 1.389 . S
C1546 H1519 0.950 . S
C1546 C1532 1.377 1_455 S
C1546 C1545 1.373 . S
C1547 C1531 1.377 1_455 S
C1547 C1545 1.389 . S
C1547 C1548 1.524 . S
C1548 C1547 1.524 . S
C1548 C1549 1.397 . S
C1548 C1553 1.363 . S
C1549 H1520 0.950 . S
C1549 C1548 1.397 . S
C1549 C1550 1.334 . S
C1550 H1521 0.950 . S
C1550 C1549 1.334 . S
C1550 C1551 1.287 . S
C1551 C1550 1.287 . S
C1551 C1552 1.524 . S
C1551 H1554 0.999 . S
C1552 H1522 0.950 . S
C1552 C1551 1.524 . S
C1552 C1553 1.415 . S
C1553 H1523 0.950 1_455 S
C1553 C1548 1.363 . S
C1553 C1552 1.415 . S
H1554 C1551 0.999 . S
H1555 C1536 0.913 . S
H1556 C1574 0.951 . S
H1557 C1576 0.951 . S
H1558 C1578 0.950 . S
H1559 C1579 0.950 . S
H1560 C1581 0.950 . S
H1561 C1584 0.950 . S
H1562 C1585 0.950 . S
H1563 C1587 0.950 . S
H1564 C1588 0.950 . S
H1565 C1589 0.951 . S
H1566 C1591 0.951 . S
H1567 C1593 0.950 . S
H1568 C1594 0.950 . S
H1569 C1596 0.950 . S
H1570 C1599 0.950 . S
H1571 C1600 0.950 . S
H1572 C1602 0.950 . S
H1573 C1603 0.950 . S
C1574 H1556 0.951 . S
C1574 C1575 1.366 . S
C1574 C1576 1.388 . S
C1575 C1574 1.366 . S
C1575 C1579 1.385 . S
C1576 H1557 0.951 . S
C1576 C1574 1.388 . S
C1576 C1577 1.366 . S
C1577 C1576 1.366 . S
C1577 C1578 1.414 . S
C1577 C1580 1.499 . S
C1578 H1558 0.950 . S
C1578 C1577 1.414 . S
C1578 C1579 1.374 . S
C1579 H1559 0.950 . S
C1579 C1575 1.385 . S
C1579 C1578 1.374 . S
C1580 C1577 1.499 . S
C1580 C1581 1.373 . S
C1580 C1582 1.389 1_545 S
C1581 H1560 0.950 . S
C1581 C1580 1.373 . S
C1581 C1597 1.377 1_556 S
C1582 C1580 1.389 1_565 S
C1582 C1583 1.524 . S
C1582 C1596 1.377 1_556 S
C1583 C1582 1.524 . S
C1583 C1584 1.397 . S
C1583 C1588 1.363 . S
C1584 H1561 0.950 . S
C1584 C1583 1.397 . S
C1584 C1585 1.334 . S
C1585 H1562 0.950 . S
C1585 C1584 1.334 . S
C1585 C1586 1.287 . S
C1586 C1585 1.287 . S
C1586 C1587 1.524 . S
C1586 H1605 0.913 . S
C1587 H1563 0.950 . S
C1587 C1586 1.524 . S
C1587 C1588 1.415 . S
C1588 H1564 0.950 . S
C1588 C1583 1.363 . S
C1588 C1587 1.415 . S
C1589 H1565 0.951 . S
C1589 C1590 1.366 . S
C1589 C1591 1.388 . S
C1590 C1589 1.366 . S
C1590 C1594 1.385 . S
C1591 H1566 0.951 . S
C1591 C1589 1.388 . S
C1591 C1592 1.366 . S
C1592 C1591 1.366 . S
C1592 C1593 1.414 . S
C1592 C1595 1.499 . S
C1593 H1567 0.950 . S
C1593 C1592 1.414 . S
C1593 C1594 1.374 . S
C1594 H1568 0.950 . S
C1594 C1590 1.385 . S
C1594 C1593 1.374 . S
C1595 C1592 1.499 . S
C1595 C1596 1.373 . S
C1595 C1597 1.389 1_565 S
C1596 H1569 0.950 . S
C1596 C1582 1.377 1_554 S
C1596 C1595 1.373 . S
C1597 C1581 1.377 1_554 S
C1597 C1595 1.389 1_545 S
C1597 C1598 1.524 . S
C1598 C1597 1.524 . S
C1598 C1599 1.397 . S
C1598 C1603 1.363 . S
C1599 H1570 0.950 . S
C1599 C1598 1.397 . S
C1599 C1600 1.334 . S
C1600 H1571 0.950 . S
C1600 C1599 1.334 . S
C1600 C1601 1.287 . S
C1601 C1600 1.287 . S
C1601 C1602 1.524 . S
C1601 H1604 0.999 . S
C1602 H1572 0.950 . S
C1602 C1601 1.524 . S
C1602 C1603 1.415 . S
C1603 H1573 0.950 . S
C1603 C1598 1.363 . S
C1603 C1602 1.415 . S
H1604 C1601 0.999 . S
H1605 C1586 0.913 . S
H1606 C1624 0.951 . S
H1607 C1626 0.951 . S
H1608 C1628 0.950 . S
H1609 C1629 0.950 . S
H1610 C1631 0.950 . S
H1611 C1634 0.950 . S
H1612 C1635 0.950 . S
H1613 C1637 0.950 . S
H1614 C1638 0.950 . S
H1615 C1639 0.951 . S
H1616 C1641 0.951 . S
H1617 C1643 0.950 . S
H1618 C1644 0.950 . S
H1619 C1646 0.950 . S
H1620 C1649 0.950 . S
H1621 C1650 0.950 . S
H1622 C1652 0.950 . S
H1623 C1653 0.950 . S
C1624 H1606 0.951 . S
C1624 C1625 1.366 . S
C1624 C1626 1.388 . S
C1625 C1624 1.366 . S
C1625 C1629 1.385 . S
C1626 H1607 0.951 . S
C1626 C1624 1.388 . S
C1626 C1627 1.366 . S
C1627 C1626 1.366 . S
C1627 C1628 1.414 . S
C1627 C1630 1.499 . S
C1628 H1608 0.950 . S
C1628 C1627 1.414 . S
C1628 C1629 1.374 . S
C1629 H1609 0.950 . S
C1629 C1625 1.385 . S
C1629 C1628 1.374 . S
C1630 C1627 1.499 . S
C1630 C1631 1.373 . S
C1630 C1632 1.389 . S
C1631 H1610 0.950 . S
C1631 C1630 1.373 . S
C1631 C1647 1.377 . S
C1632 C1630 1.389 . S
C1632 C1633 1.524 . S
C1632 C1646 1.377 . S
C1633 C1632 1.524 . S
C1633 C1634 1.397 . S
C1633 C1638 1.363 . S
C1634 H1611 0.950 . S
C1634 C1633 1.397 . S
C1634 C1635 1.334 . S
C1635 H1612 0.950 . S
C1635 C1634 1.334 . S
C1635 C1636 1.287 . S
C1636 C1635 1.287 . S
C1636 C1637 1.524 . S
C1636 H1655 0.913 . S
C1637 H1613 0.950 . S
C1637 C1636 1.524 . S
C1637 C1638 1.415 . S
C1638 H1614 0.950 . S
C1638 C1633 1.363 . S
C1638 C1637 1.415 . S
C1639 H1615 0.951 . S
C1639 C1640 1.366 . S
C1639 C1641 1.388 . S
C1640 C1639 1.366 . S
C1640 C1644 1.385 . S
C1641 H1616 0.951 . S
C1641 C1639 1.388 . S
C1641 C1642 1.366 . S
C1642 C1641 1.366 . S
C1642 C1643 1.414 . S
C1642 C1645 1.499 . S
C1643 H1617 0.950 . S
C1643 C1642 1.414 . S
C1643 C1644 1.374 . S
C1644 H1618 0.950 . S
C1644 C1640 1.385 . S
C1644 C1643 1.374 . S
C1645 C1642 1.499 . S
C1645 C1646 1.373 . S
C1645 C1647 1.389 . S
C1646 H1619 0.950 . S
C1646 C1632 1.377 . S
C1646 C1645 1.373 . S
C1647 C1631 1.377 . S
C1647 C1645 1.389 . S
C1647 C1648 1.524 . S
C1648 C1647 1.524 . S
C1648 C1649 1.397 . S
C1648 C1653 1.363 . S
C1649 H1620 0.950 . S
C1649 C1648 1.397 . S
C1649 C1650 1.334 . S
C1650 H1621 0.950 . S
C1650 C1649 1.334 . S
C1650 C1651 1.287 . S
C1651 C1650 1.287 . S
C1651 C1652 1.524 . S
C1651 H1654 0.999 . S
C1652 H1622 0.950 . S
C1652 C1651 1.524 . S
C1652 C1653 1.415 . S
C1653 H1623 0.950 . S
C1653 C1648 1.363 . S
C1653 C1652 1.415 . S
H1654 C1651 0.999 . S
H1655 C1636 0.913 . S
H1656 C1674 0.951 . S
H1657 C1676 0.951 . S
H1658 C1678 0.950 . S
H1659 C1679 0.950 . S
H1660 C1681 0.950 . S
H1661 C1684 0.950 . S
H1662 C1685 0.950 . S
H1663 C1687 0.950 . S
H1664 C1688 0.950 . S
H1665 C1689 0.951 . S
H1666 C1691 0.951 . S
H1667 C1693 0.950 . S
H1668 C1694 0.950 . S
H1669 C1696 0.950 . S
H1670 C1699 0.950 . S
H1671 C1700 0.950 . S
H1672 C1702 0.950 . S
H1673 C1703 0.950 . S
C1674 H1656 0.951 . S
C1674 C1675 1.366 . S
C1674 C1676 1.388 . S
C1675 C1674 1.366 . S
C1675 C1679 1.385 . S
C1676 H1657 0.951 . S
C1676 C1674 1.388 . S
C1676 C1677 1.366 . S
C1677 C1676 1.366 . S
C1677 C1678 1.414 . S
C1677 C1680 1.499 . S
C1678 H1658 0.950 . S
C1678 C1677 1.414 . S
C1678 C1679 1.374 . S
C1679 H1659 0.950 . S
C1679 C1675 1.385 . S
C1679 C1678 1.374 . S
C1680 C1677 1.499 . S
C1680 C1681 1.373 . S
C1680 C1682 1.389 . S
C1681 H1660 0.950 . S
C1681 C1680 1.373 . S
C1681 C1697 1.377 . S
C1682 C1680 1.389 . S
C1682 C1683 1.524 . S
C1682 C1696 1.377 . S
C1683 C1682 1.524 . S
C1683 C1684 1.397 . S
C1683 C1688 1.363 . S
C1684 H1661 0.950 . S
C1684 C1683 1.397 . S
C1684 C1685 1.334 . S
C1685 H1662 0.950 . S
C1685 C1684 1.334 . S
C1685 C1686 1.287 . S
C1686 C1685 1.287 . S
C1686 C1687 1.524 . S
C1686 H1705 0.913 . S
C1687 H1663 0.950 . S
C1687 C1686 1.524 . S
C1687 C1688 1.415 . S
C1688 H1664 0.950 . S
C1688 C1683 1.363 . S
C1688 C1687 1.415 . S
C1689 H1665 0.951 . S
C1689 C1690 1.366 . S
C1689 C1691 1.388 . S
C1690 C1689 1.366 . S
C1690 C1694 1.385 . S
C1691 H1666 0.951 . S
C1691 C1689 1.388 . S
C1691 C1692 1.366 . S
C1692 C1691 1.366 . S
C1692 C1693 1.414 . S
C1692 C1695 1.499 . S
C1693 H1667 0.950 . S
C1693 C1692 1.414 . S
C1693 C1694 1.374 . S
C1694 H1668 0.950 . S
C1694 C1690 1.385 . S
C1694 C1693 1.374 . S
C1695 C1692 1.499 . S
C1695 C1696 1.373 . S
C1695 C1697 1.389 . S
C1696 H1669 0.950 . S
C1696 C1682 1.377 . S
C1696 C1695 1.373 . S
C1697 C1681 1.377 . S
C1697 C1695 1.389 . S
C1697 C1698 1.524 . S
C1698 C1697 1.524 . S
C1698 C1699 1.397 . S
C1698 C1703 1.363 . S
C1699 H1670 0.950 . S
C1699 C1698 1.397 . S
C1699 C1700 1.334 . S
C1700 H1671 0.950 . S
C1700 C1699 1.334 . S
C1700 C1701 1.287 . S
C1701 C1700 1.287 . S
C1701 C1702 1.524 . S
C1701 H1704 0.999 . S
C1702 H1672 0.950 . S
C1702 C1701 1.524 . S
C1702 C1703 1.415 . S
C1703 H1673 0.950 . S
C1703 C1698 1.363 . S
C1703 C1702 1.415 . S
H1704 C1701 0.999 . S
H1705 C1686 0.913 . S
H1706 C1724 0.951 . S
H1707 C1726 0.951 . S
H1708 C1728 0.950 . S
H1709 C1729 0.950 . S
H1710 C1731 0.950 . S
H1711 C1734 0.950 . S
H1712 C1735 0.950 . S
H1713 C1737 0.950 . S
H1714 C1738 0.950 . S
H1715 C1739 0.951 . S
H1716 C1741 0.951 . S
H1717 C1743 0.950 . S
H1718 C1744 0.950 . S
H1719 C1746 0.950 . S
H1720 C1749 0.950 . S
H1721 C1750 0.950 . S
H1722 C1752 0.950 . S
H1723 C1753 0.950 . S
C1724 H1706 0.951 . S
C1724 C1725 1.366 . S
C1724 C1726 1.388 . S
C1725 C1724 1.366 . S
C1725 C1729 1.385 . S
C1726 H1707 0.951 . S
C1726 C1724 1.388 . S
C1726 C1727 1.366 . S
C1727 C1726 1.366 . S
C1727 C1728 1.414 . S
C1727 C1730 1.499 . S
C1728 H1708 0.950 . S
C1728 C1727 1.414 . S
C1728 C1729 1.374 . S
C1729 H1709 0.950 . S
C1729 C1725 1.385 . S
C1729 C1728 1.374 . S
C1730 C1727 1.499 . S
C1730 C1731 1.373 . S
C1730 C1732 1.389 . S
C1731 H1710 0.950 . S
C1731 C1730 1.373 . S
C1731 C1747 1.377 . S
C1732 C1730 1.389 . S
C1732 C1733 1.524 . S
C1732 C1746 1.377 . S
C1733 C1732 1.524 . S
C1733 C1734 1.397 . S
C1733 C1738 1.363 . S
C1734 H1711 0.950 . S
C1734 C1733 1.397 . S
C1734 C1735 1.334 . S
C1735 H1712 0.950 . S
C1735 C1734 1.334 . S
C1735 C1736 1.287 . S
C1736 C1735 1.287 . S
C1736 C1737 1.524 . S
C1736 H1755 0.913 . S
C1737 H1713 0.950 . S
C1737 C1736 1.524 . S
C1737 C1738 1.415 . S
C1738 H1714 0.950 . S
C1738 C1733 1.363 . S
C1738 C1737 1.415 . S
C1739 H1715 0.951 . S
C1739 C1740 1.366 . S
C1739 C1741 1.388 . S
C1740 C1739 1.366 . S
C1740 C1744 1.385 . S
C1741 H1716 0.951 . S
C1741 C1739 1.388 . S
C1741 C1742 1.366 . S
C1742 C1741 1.366 . S
C1742 C1743 1.414 . S
C1742 C1745 1.499 . S
C1743 H1717 0.950 . S
C1743 C1742 1.414 . S
C1743 C1744 1.374 . S
C1744 H1718 0.950 . S
C1744 C1740 1.385 . S
C1744 C1743 1.374 . S
C1745 C1742 1.499 . S
C1745 C1746 1.373 . S
C1745 C1747 1.389 . S
C1746 H1719 0.950 . S
C1746 C1732 1.377 . S
C1746 C1745 1.373 . S
C1747 C1731 1.377 . S
C1747 C1745 1.389 . S
C1747 C1748 1.524 . S
C1748 C1747 1.524 . S
C1748 C1749 1.397 . S
C1748 C1753 1.363 . S
C1749 H1720 0.950 . S
C1749 C1748 1.397 . S
C1749 C1750 1.334 . S
C1750 H1721 0.950 . S
C1750 C1749 1.334 . S
C1750 C1751 1.287 . S
C1751 C1750 1.287 . S
C1751 C1752 1.524 . S
C1751 H1754 0.999 . S
C1752 H1722 0.950 . S
C1752 C1751 1.524 . S
C1752 C1753 1.415 . S
C1753 H1723 0.950 . S
C1753 C1748 1.363 . S
C1753 C1752 1.415 . S
H1754 C1751 0.999 . S
H1755 C1736 0.913 . S
H1756 C1774 0.951 . S
H1757 C1776 0.951 . S
H1758 C1778 0.950 . S
H1759 C1779 0.950 . S
H1760 C1781 0.950 . S
H1761 C1784 0.950 . S
H1762 C1785 0.950 . S
H1763 C1787 0.950 . S
H1764 C1788 0.950 . S
H1765 C1789 0.951 . S
H1766 C1791 0.951 . S
H1767 C1793 0.950 . S
H1768 C1794 0.950 . S
H1769 C1796 0.950 . S
H1770 C1799 0.950 . S
H1771 C1800 0.950 . S
H1772 C1802 0.950 . S
H1773 C1803 0.950 . S
C1774 H1756 0.951 . S
C1774 C1775 1.366 . S
C1774 C1776 1.388 . S
C1775 C1774 1.366 . S
C1775 C1779 1.385 . S
C1776 H1757 0.951 . S
C1776 C1774 1.388 . S
C1776 C1777 1.366 . S
C1777 C1776 1.366 . S
C1777 C1778 1.414 . S
C1777 C1780 1.499 . S
C1778 H1758 0.950 . S
C1778 C1777 1.414 . S
C1778 C1779 1.374 . S
C1779 H1759 0.950 . S
C1779 C1775 1.385 . S
C1779 C1778 1.374 . S
C1780 C1777 1.499 . S
C1780 C1781 1.373 . S
C1780 C1782 1.389 . S
C1781 H1760 0.950 . S
C1781 C1780 1.373 . S
C1781 C1797 1.377 . S
C1782 C1780 1.389 . S
C1782 C1783 1.524 . S
C1782 C1796 1.377 . S
C1783 C1782 1.524 . S
C1783 C1784 1.397 . S
C1783 C1788 1.363 . S
C1784 H1761 0.950 . S
C1784 C1783 1.397 . S
C1784 C1785 1.334 . S
C1785 H1762 0.950 . S
C1785 C1784 1.334 . S
C1785 C1786 1.287 . S
C1786 C1785 1.287 . S
C1786 C1787 1.524 . S
C1786 H1805 0.913 . S
C1787 H1763 0.950 . S
C1787 C1786 1.524 . S
C1787 C1788 1.415 . S
C1788 H1764 0.950 . S
C1788 C1783 1.363 . S
C1788 C1787 1.415 . S
C1789 H1765 0.951 . S
C1789 C1790 1.366 . S
C1789 C1791 1.388 . S
C1790 C1789 1.366 . S
C1790 C1794 1.385 . S
C1791 H1766 0.951 . S
C1791 C1789 1.388 . S
C1791 C1792 1.366 . S
C1792 C1791 1.366 . S
C1792 C1793 1.414 . S
C1792 C1795 1.499 . S
C1793 H1767 0.950 . S
C1793 C1792 1.414 . S
C1793 C1794 1.374 . S
C1794 H1768 0.950 . S
C1794 C1790 1.385 . S
C1794 C1793 1.374 . S
C1795 C1792 1.499 . S
C1795 C1796 1.373 . S
C1795 C1797 1.389 . S
C1796 H1769 0.950 . S
C1796 C1782 1.377 . S
C1796 C1795 1.373 . S
C1797 C1781 1.377 . S
C1797 C1795 1.389 . S
C1797 C1798 1.524 . S
C1798 C1797 1.524 . S
C1798 C1799 1.397 . S
C1798 C1803 1.363 . S
C1799 H1770 0.950 . S
C1799 C1798 1.397 . S
C1799 C1800 1.334 . S
C1800 H1771 0.950 . S
C1800 C1799 1.334 . S
C1800 C1801 1.287 . S
C1801 C1800 1.287 . S
C1801 C1802 1.524 . S
C1801 H1804 0.999 . S
C1802 H1772 0.950 . S
C1802 C1801 1.524 . S
C1802 C1803 1.415 . S
C1803 H1773 0.950 . S
C1803 C1798 1.363 . S
C1803 C1802 1.415 . S
H1804 C1801 0.999 . S
H1805 C1786 0.913 . S
H1806 C1824 0.951 . S
H1807 C1826 0.951 . S
H1808 C1828 0.950 . S
H1809 C1829 0.950 . S
H1810 C1831 0.950 . S
H1811 C1834 0.950 . S
H1812 C1835 0.950 . S
H1813 C1837 0.950 . S
H1814 C1838 0.950 . S
H1815 C1839 0.951 . S
H1816 C1841 0.951 . S
H1817 C1843 0.950 . S
H1818 C1844 0.950 . S
H1819 C1846 0.950 . S
H1820 C1849 0.950 . S
H1821 C1850 0.950 . S
H1822 C1852 0.950 . S
H1823 C1853 0.950 . S
C1824 H1806 0.951 . S
C1824 C1825 1.366 . S
C1824 C1826 1.388 . S
C1825 C1824 1.366 . S
C1825 C1829 1.385 . S
C1826 H1807 0.951 . S
C1826 C1824 1.388 . S
C1826 C1827 1.366 . S
C1827 C1826 1.366 . S
C1827 C1828 1.414 . S
C1827 C1830 1.499 . S
C1828 H1808 0.950 . S
C1828 C1827 1.414 . S
C1828 C1829 1.374 . S
C1829 H1809 0.950 . S
C1829 C1825 1.385 . S
C1829 C1828 1.374 . S
C1830 C1827 1.499 . S
C1830 C1831 1.373 . S
C1830 C1832 1.389 . S
C1831 H1810 0.950 . S
C1831 C1830 1.373 . S
C1831 C1847 1.377 . S
C1832 C1830 1.389 . S
C1832 C1833 1.524 . S
C1832 C1846 1.377 . S
C1833 C1832 1.524 . S
C1833 C1834 1.397 . S
C1833 C1838 1.363 . S
C1834 H1811 0.950 . S
C1834 C1833 1.397 . S
C1834 C1835 1.334 . S
C1835 H1812 0.950 . S
C1835 C1834 1.334 . S
C1835 C1836 1.287 . S
C1836 C1835 1.287 . S
C1836 C1837 1.524 . S
C1836 H1855 0.913 . S
C1837 H1813 0.950 . S
C1837 C1836 1.524 . S
C1837 C1838 1.415 . S
C1838 H1814 0.950 . S
C1838 C1833 1.363 . S
C1838 C1837 1.415 . S
C1839 H1815 0.951 . S
C1839 C1840 1.366 . S
C1839 C1841 1.388 . S
C1840 C1839 1.366 . S
C1840 C1844 1.385 . S
C1841 H1816 0.951 . S
C1841 C1839 1.388 . S
C1841 C1842 1.366 . S
C1842 C1841 1.366 . S
C1842 C1843 1.414 . S
C1842 C1845 1.499 . S
C1843 H1817 0.950 . S
C1843 C1842 1.414 . S
C1843 C1844 1.374 . S
C1844 H1818 0.950 . S
C1844 C1840 1.385 . S
C1844 C1843 1.374 . S
C1845 C1842 1.499 . S
C1845 C1846 1.373 . S
C1845 C1847 1.389 . S
C1846 H1819 0.950 . S
C1846 C1832 1.377 . S
C1846 C1845 1.373 . S
C1847 C1831 1.377 . S
C1847 C1845 1.389 . S
C1847 C1848 1.524 . S
C1848 C1847 1.524 . S
C1848 C1849 1.397 . S
C1848 C1853 1.363 . S
C1849 H1820 0.950 . S
C1849 C1848 1.397 . S
C1849 C1850 1.334 . S
C1850 H1821 0.950 . S
C1850 C1849 1.334 . S
C1850 C1851 1.287 . S
C1851 C1850 1.287 . S
C1851 C1852 1.524 . S
C1851 H1854 0.999 . S
C1852 H1822 0.950 . S
C1852 C1851 1.524 . S
C1852 C1853 1.415 . S
C1853 H1823 0.950 . S
C1853 C1848 1.363 . S
C1853 C1852 1.415 . S
H1854 C1851 0.999 . S
H1855 C1836 0.913 . S
H1856 C1874 0.951 . S
H1857 C1876 0.951 . S
H1858 C1878 0.950 . S
H1859 C1879 0.950 . S
H1860 C1881 0.950 . S
H1861 C1884 0.950 . S
H1862 C1885 0.950 . S
H1863 C1887 0.950 . S
H1864 C1888 0.950 . S
H1865 C1889 0.951 . S
H1866 C1891 0.951 . S
H1867 C1893 0.950 . S
H1868 C1894 0.950 . S
H1869 C1896 0.950 . S
H1870 C1899 0.950 . S
H1871 C1900 0.950 . S
H1872 C1902 0.950 . S
H1873 C1903 0.950 . S
C1874 H1856 0.951 . S
C1874 C1875 1.366 . S
C1874 C1876 1.388 . S
C1875 C1874 1.366 . S
C1875 C1879 1.385 . S
C1876 H1857 0.951 . S
C1876 C1874 1.388 . S
C1876 C1877 1.366 . S
C1877 C1876 1.366 . S
C1877 C1878 1.414 . S
C1877 C1880 1.499 . S
C1878 H1858 0.950 . S
C1878 C1877 1.414 . S
C1878 C1879 1.374 . S
C1879 H1859 0.950 . S
C1879 C1875 1.385 . S
C1879 C1878 1.374 . S
C1880 C1877 1.499 . S
C1880 C1881 1.373 . S
C1880 C1882 1.389 . S
C1881 H1860 0.950 . S
C1881 C1880 1.373 . S
C1881 C1897 1.377 . S
C1882 C1880 1.389 . S
C1882 C1883 1.524 . S
C1882 C1896 1.377 . S
C1883 C1882 1.524 . S
C1883 C1884 1.397 . S
C1883 C1888 1.363 . S
C1884 H1861 0.950 . S
C1884 C1883 1.397 . S
C1884 C1885 1.334 . S
C1885 H1862 0.950 . S
C1885 C1884 1.334 . S
C1885 C1886 1.287 . S
C1886 C1885 1.287 . S
C1886 C1887 1.524 . S
C1886 H1905 0.913 . S
C1887 H1863 0.950 . S
C1887 C1886 1.524 . S
C1887 C1888 1.415 . S
C1888 H1864 0.950 . S
C1888 C1883 1.363 . S
C1888 C1887 1.415 . S
C1889 H1865 0.951 . S
C1889 C1890 1.366 . S
C1889 C1891 1.388 . S
C1890 C1889 1.366 . S
C1890 C1894 1.385 . S
C1891 H1866 0.951 . S
C1891 C1889 1.388 . S
C1891 C1892 1.366 . S
C1892 C1891 1.366 . S
C1892 C1893 1.414 . S
C1892 C1895 1.499 . S
C1893 H1867 0.950 . S
C1893 C1892 1.414 . S
C1893 C1894 1.374 . S
C1894 H1868 0.950 . S
C1894 C1890 1.385 . S
C1894 C1893 1.374 . S
C1895 C1892 1.499 . S
C1895 C1896 1.373 . S
C1895 C1897 1.389 . S
C1896 H1869 0.950 . S
C1896 C1882 1.377 . S
C1896 C1895 1.373 . S
C1897 C1881 1.377 . S
C1897 C1895 1.389 . S
C1897 C1898 1.524 . S
C1898 C1897 1.524 . S
C1898 C1899 1.397 . S
C1898 C1903 1.363 . S
C1899 H1870 0.950 . S
C1899 C1898 1.397 . S
C1899 C1900 1.334 . S
C1900 H1871 0.950 . S
C1900 C1899 1.334 . S
C1900 C1901 1.287 . S
C1901 C1900 1.287 . S
C1901 C1902 1.524 . S
C1901 H1904 0.999 . S
C1902 H1872 0.950 . S
C1902 C1901 1.524 . S
C1902 C1903 1.415 . S
C1903 H1873 0.950 . S
C1903 C1898 1.363 . S
C1903 C1902 1.415 . S
H1904 C1901 0.999 . S
H1905 C1886 0.913 . S
H1906 C1924 0.951 . S
H1907 C1926 0.951 . S
H1908 C1928 0.950 . S
H1909 C1929 0.950 . S
H1910 C1931 0.950 . S
H1911 C1934 0.950 . S
H1912 C1935 0.950 . S
H1913 C1937 0.950 . S
H1914 C1938 0.950 . S
H1915 C1939 0.951 . S
H1916 C1941 0.951 . S
H1917 C1943 0.950 . S
H1918 C1944 0.950 . S
H1919 C1946 0.950 . S
H1920 C1949 0.950 . S
H1921 C1950 0.950 . S
H1922 C1952 0.950 . S
H1923 C1953 0.950 . S
C1924 H1906 0.951 . S
C1924 C1925 1.366 . S
C1924 C1926 1.388 . S
C1925 C1924 1.366 . S
C1925 C1929 1.385 . S
C1926 H1907 0.951 . S
C1926 C1924 1.388 . S
C1926 C1927 1.366 . S
C1927 C1926 1.366 . S
C1927 C1928 1.414 . S
C1927 C1930 1.499 . S
C1928 H1908 0.950 . S
C1928 C1927 1.414 . S
C1928 C1929 1.374 . S
C1929 H1909 0.950 . S
C1929 C1925 1.385 . S
C1929 C1928 1.374 . S
C1930 C1927 1.499 . S
C1930 C1931 1.373 . S
C1930 C1932 1.389 . S
C1931 H1910 0.950 . S
C1931 C1930 1.373 . S
C1931 C1947 1.377 . S
C1932 C1930 1.389 . S
C1932 C1933 1.524 . S
C1932 C1946 1.377 . S
C1933 C1932 1.524 . S
C1933 C1934 1.397 . S
C1933 C1938 1.363 . S
C1934 H1911 0.950 . S
C1934 C1933 1.397 . S
C1934 C1935 1.334 . S
C1935 H1912 0.950 . S
C1935 C1934 1.334 . S
C1935 C1936 1.287 . S
C1936 C1935 1.287 . S
C1936 C1937 1.524 . S
C1936 H1955 0.913 . S
C1937 H1913 0.950 . S
C1937 C1936 1.524 . S
C1937 C1938 1.415 . S
C1938 H1914 0.950 . S
C1938 C1933 1.363 . S
C1938 C1937 1.415 . S
C1939 H1915 0.951 . S
C1939 C1940 1.366 . S
C1939 C1941 1.388 . S
C1940 C1939 1.366 . S
C1940 C1944 1.385 . S
C1941 H1916 0.951 . S
C1941 C1939 1.388 . S
C1941 C1942 1.366 . S
C1942 C1941 1.366 . S
C1942 C1943 1.414 . S
C1942 C1945 1.499 . S
C1943 H1917 0.950 . S
C1943 C1942 1.414 . S
C1943 C1944 1.374 . S
C1944 H1918 0.950 . S
C1944 C1940 1.385 . S
C1944 C1943 1.374 . S
C1945 C1942 1.499 . S
C1945 C1946 1.373 . S
C1945 C1947 1.389 . S
C1946 H1919 0.950 . S
C1946 C1932 1.377 . S
C1946 C1945 1.373 . S
C1947 C1931 1.377 . S
C1947 C1945 1.389 . S
C1947 C1948 1.524 . S
C1948 C1947 1.524 . S
C1948 C1949 1.397 . S
C1948 C1953 1.363 . S
C1949 H1920 0.950 . S
C1949 C1948 1.397 . S
C1949 C1950 1.334 . S
C1950 H1921 0.950 . S
C1950 C1949 1.334 . S
C1950 C1951 1.287 . S
C1951 C1950 1.287 . S
C1951 C1952 1.524 . S
C1951 H1954 0.999 . S
C1952 H1922 0.950 . S
C1952 C1951 1.524 . S
C1952 C1953 1.415 . S
C1953 H1923 0.950 . S
C1953 C1948 1.363 . S
C1953 C1952 1.415 . S
H1954 C1951 0.999 . S
H1955 C1936 0.913 . S
H1956 C1974 0.951 . S
H1957 C1976 0.951 . S
H1958 C1978 0.950 . S
H1959 C1979 0.950 . S
H1960 C1981 0.950 . S
H1961 C1984 0.950 . S
H1962 C1985 0.950 . S
H1963 C1987 0.950 . S
H1964 C1988 0.950 . S
H1965 C1989 0.951 . S
H1966 C1991 0.951 . S
H1967 C1993 0.950 . S
H1968 C1994 0.950 . S
H1969 C1996 0.950 . S
H1970 C1999 0.950 . S
H1971 C2000 0.950 . S
H1972 C2002 0.950 . S
H1973 C2003 0.950 . S
C1974 H1956 0.951 . S
C1974 C1975 1.366 . S
C1974 C1976 1.388 . S
C1975 C1974 1.366 . S
C1975 C1979 1.385 . S
C1976 H1957 0.951 . S
C1976 C1974 1.388 . S
C1976 C1977 1.366 . S
C1977 C1976 1.366 . S
C1977 C1978 1.414 . S
C1977 C1980 1.499 . S
C1978 H1958 0.950 . S
C1978 C1977 1.414 . S
C1978 C1979 1.374 . S
C1979 H1959 0.950 . S
C1979 C1975 1.385 . S
C1979 C1978 1.374 . S
C1980 C1977 1.499 . S
C1980 C1981 1.373 . S
C1980 C1982 1.389 . S
C1981 H1960 0.950 . S
C1981 C1980 1.373 . S
C1981 C1997 1.377 . S
C1982 C1980 1.389 . S
C1982 C1983 1.524 . S
C1982 C1996 1.377 . S
C1983 C1982 1.524 . S
C1983 C1984 1.397 . S
C1983 C1988 1.363 . S
C1984 H1961 0.950 . S
C1984 C1983 1.397 . S
C1984 C1985 1.334 . S
C1985 H1962 0.950 . S
C1985 C1984 1.334 . S
C1985 C1986 1.287 . S
C1986 C1985 1.287 . S
C1986 C1987 1.524 . S
C1986 H2005 0.913 . S
C1987 H1963 0.950 . S
C1987 C1986 1.524 . S
C1987 C1988 1.415 . S
C1988 H1964 0.950 . S
C1988 C1983 1.363 . S
C1988 C1987 1.415 . S
C1989 H1965 0.951 . S
C1989 C1990 1.366 . S
C1989 C1991 1.388 . S
C1990 C1989 1.366 . S
C1990 C1994 1.385 . S
C1991 H1966 0.951 . S
C1991 C1989 1.388 . S
C1991 C1992 1.366 . S
C1992 C1991 1.366 . S
C1992 C1993 1.414 . S
C1992 C1995 1.499 . S
C1993 H1967 0.950 . S
C1993 C1992 1.414 . S
C1993 C1994 1.374 . S
C1994 H1968 0.950 . S
C1994 C1990 1.385 . S
C1994 C1993 1.374 . S
C1995 C1992 1.499 . S
C1995 C1996 1.373 . S
C1995 C1997 1.389 . S
C1996 H1969 0.950 . S
C1996 C1982 1.377 . S
C1996 C1995 1.373 . S
C1997 C1981 1.377 . S
C1997 C1995 1.389 . S
C1997 C1998 1.524 . S
C1998 C1997 1.524 . S
C1998 C1999 1.397 . S
C1998 C2003 1.363 . S
C1999 H1970 0.950 . S
C1999 C1998 1.397 . S
C1999 C2000 1.334 . S
C2000 H1971 0.950 . S
C2000 C1999 1.334 . S
C2000 C2001 1.287 . S
C2001 C2000 1.287 . S
C2001 C2002 1.524 . S
C2001 H2004 0.999 . S
C2002 H1972 0.950 . S
C2002 C2001 1.524 . S
C2002 C2003 1.415 . S
C2003 H1973 0.950 . S
C2003 C1998 1.363 . S
C2003 C2002 1.415 . S
H2004 C2001 0.999 . S
H2005 C1986 0.913 . S
H2006 C2024 0.951 . S
H2007 C2026 0.951 . S
H2008 C2028 0.950 . S
H2009 C2029 0.950 . S
H2010 C2031 0.950 . S
H2011 C2034 0.950 . S
H2012 C2035 0.950 . S
H2013 C2037 0.950 . S
H2014 C2038 0.950 . S
H2015 C2039 0.951 . S
H2016 C2041 0.951 . S
H2017 C2043 0.950 . S
H2018 C2044 0.950 . S
H2019 C2046 0.950 . S
H2020 C2049 0.950 . S
H2021 C2050 0.950 . S
H2022 C2052 0.950 . S
H2023 C2053 0.950 . S
C2024 H2006 0.951 . S
C2024 C2025 1.366 . S
C2024 C2026 1.388 . S
C2025 C2024 1.366 . S
C2025 C2029 1.385 . S
C2026 H2007 0.951 . S
C2026 C2024 1.388 . S
C2026 C2027 1.366 . S
C2027 C2026 1.366 . S
C2027 C2028 1.414 . S
C2027 C2030 1.499 . S
C2028 H2008 0.950 . S
C2028 C2027 1.414 . S
C2028 C2029 1.374 . S
C2029 H2009 0.950 . S
C2029 C2025 1.385 . S
C2029 C2028 1.374 . S
C2030 C2027 1.499 . S
C2030 C2031 1.373 . S
C2030 C2032 1.389 . S
C2031 H2010 0.950 . S
C2031 C2030 1.373 . S
C2031 C2047 1.377 . S
C2032 C2030 1.389 . S
C2032 C2033 1.524 . S
C2032 C2046 1.377 . S
C2033 C2032 1.524 . S
C2033 C2034 1.397 . S
C2033 C2038 1.363 . S
C2034 H2011 0.950 . S
C2034 C2033 1.397 . S
C2034 C2035 1.334 . S
C2035 H2012 0.950 . S
C2035 C2034 1.334 . S
C2035 C2036 1.287 . S
C2036 C2035 1.287 . S
C2036 C2037 1.524 . S
C2036 H2055 0.913 . S
C2037 H2013 0.950 . S
C2037 C2036 1.524 . S
C2037 C2038 1.415 . S
C2038 H2014 0.950 . S
C2038 C2033 1.363 . S
C2038 C2037 1.415 . S
C2039 H2015 0.951 . S
C2039 C2040 1.366 . S
C2039 C2041 1.388 . S
C2040 C2039 1.366 . S
C2040 C2044 1.385 . S
C2041 H2016 0.951 . S
C2041 C2039 1.388 . S
C2041 C2042 1.366 . S
C2042 C2041 1.366 . S
C2042 C2043 1.414 . S
C2042 C2045 1.499 . S
C2043 H2017 0.950 . S
C2043 C2042 1.414 . S
C2043 C2044 1.374 . S
C2044 H2018 0.950 . S
C2044 C2040 1.385 . S
C2044 C2043 1.374 . S
C2045 C2042 1.499 . S
C2045 C2046 1.373 . S
C2045 C2047 1.389 . S
C2046 H2019 0.950 . S
C2046 C2032 1.377 . S
C2046 C2045 1.373 . S
C2047 C2031 1.377 . S
C2047 C2045 1.389 . S
C2047 C2048 1.524 . S
C2048 C2047 1.524 . S
C2048 C2049 1.397 . S
C2048 C2053 1.363 . S
C2049 H2020 0.950 . S
C2049 C2048 1.397 . S
C2049 C2050 1.334 . S
C2050 H2021 0.950 . S
C2050 C2049 1.334 . S
C2050 C2051 1.287 . S
C2051 C2050 1.287 . S
C2051 C2052 1.524 . S
C2051 H2054 0.999 . S
C2052 H2022 0.950 . S
C2052 C2051 1.524 . S
C2052 C2053 1.415 . S
C2053 H2023 0.950 . S
C2053 C2048 1.363 . S
C2053 C2052 1.415 . S
H2054 C2051 0.999 . S
H2055 C2036 0.913 . S
H2056 C2074 0.951 . S
H2057 C2076 0.951 . S
H2058 C2078 0.950 . S
H2059 C2079 0.950 . S
H2060 C2081 0.950 . S
H2061 C2084 0.950 . S
H2062 C2085 0.950 . S
H2063 C2087 0.950 . S
H2064 C2088 0.950 . S
H2065 C2089 0.951 . S
H2066 C2091 0.951 . S
H2067 C2093 0.950 . S
H2068 C2094 0.950 . S
H2069 C2096 0.950 . S
H2070 C2099 0.950 . S
H2071 C2100 0.950 . S
H2072 C2102 0.950 . S
H2073 C2103 0.950 . S
C2074 H2056 0.951 . S
C2074 C2075 1.366 . S
C2074 C2076 1.388 . S
C2075 C2074 1.366 . S
C2075 C2079 1.385 . S
C2076 H2057 0.951 . S
C2076 C2074 1.388 . S
C2076 C2077 1.366 . S
C2077 C2076 1.366 . S
C2077 C2078 1.414 . S
C2077 C2080 1.499 . S
C2078 H2058 0.950 . S
C2078 C2077 1.414 . S
C2078 C2079 1.374 . S
C2079 H2059 0.950 . S
C2079 C2075 1.385 . S
C2079 C2078 1.374 . S
C2080 C2077 1.499 . S
C2080 C2081 1.373 . S
C2080 C2082 1.389 . S
C2081 H2060 0.950 . S
C2081 C2080 1.373 . S
C2081 C2097 1.377 . S
C2082 C2080 1.389 . S
C2082 C2083 1.524 . S
C2082 C2096 1.377 . S
C2083 C2082 1.524 . S
C2083 C2084 1.397 . S
C2083 C2088 1.363 . S
C2084 H2061 0.950 . S
C2084 C2083 1.397 . S
C2084 C2085 1.334 . S
C2085 H2062 0.950 . S
C2085 C2084 1.334 . S
C2085 C2086 1.287 . S
C2086 C2085 1.287 . S
C2086 C2087 1.524 . S
C2086 H2105 0.913 . S
C2087 H2063 0.950 . S
C2087 C2086 1.524 . S
C2087 C2088 1.415 . S
C2088 H2064 0.950 . S
C2088 C2083 1.363 . S
C2088 C2087 1.415 . S
C2089 H2065 0.951 . S
C2089 C2090 1.366 . S
C2089 C2091 1.388 . S
C2090 C2089 1.366 . S
C2090 C2094 1.385 . S
C2091 H2066 0.951 . S
C2091 C2089 1.388 . S
C2091 C2092 1.366 . S
C2092 C2091 1.366 . S
C2092 C2093 1.414 . S
C2092 C2095 1.499 . S
C2093 H2067 0.950 . S
C2093 C2092 1.414 . S
C2093 C2094 1.374 . S
C2094 H2068 0.950 . S
C2094 C2090 1.385 . S
C2094 C2093 1.374 . S
C2095 C2092 1.499 . S
C2095 C2096 1.373 . S
C2095 C2097 1.389 . S
C2096 H2069 0.950 . S
C2096 C2082 1.377 . S
C2096 C2095 1.373 . S
C2097 C2081 1.377 . S
C2097 C2095 1.389 . S
C2097 C2098 1.524 . S
C2098 C2097 1.524 . S
C2098 C2099 1.397 . S
C2098 C2103 1.363 . S
C2099 H2070 0.950 . S
C2099 C2098 1.397 . S
C2099 C2100 1.334 . S
C2100 H2071 0.950 . S
C2100 C2099 1.334 . S
C2100 C2101 1.287 . S
C2101 C2100 1.287 . S
C2101 C2102 1.524 . S
C2101 H2104 0.999 . S
C2102 H2072 0.950 . S
C2102 C2101 1.524 . S
C2102 C2103 1.415 . S
C2103 H2073 0.950 . S
C2103 C2098 1.363 . S
C2103 C2102 1.415 . S
H2104 C2101 0.999 . S
H2105 C2086 0.913 . S
H2106 C2124 0.951 . S
H2107 C2126 0.951 . S
H2108 C2128 0.950 . S
H2109 C2129 0.950 . S
H2110 C2131 0.950 . S
H2111 C2134 0.950 . S
H2112 C2135 0.950 . S
H2113 C2137 0.950 . S
H2114 C2138 0.950 . S
H2115 C2139 0.951 . S
H2116 C2141 0.951 . S
H2117 C2143 0.950 . S
H2118 C2144 0.950 . S
H2119 C2146 0.950 . S
H2120 C2149 0.950 . S
H2121 C2150 0.950 . S
H2122 C2152 0.950 . S
H2123 C2153 0.950 . S
C2124 H2106 0.951 . S
C2124 C2125 1.366 . S
C2124 C2126 1.388 . S
C2125 C2124 1.366 . S
C2125 C2129 1.385 . S
C2126 H2107 0.951 . S
C2126 C2124 1.388 . S
C2126 C2127 1.366 . S
C2127 C2126 1.366 . S
C2127 C2128 1.414 . S
C2127 C2130 1.499 . S
C2128 H2108 0.950 . S
C2128 C2127 1.414 . S
C2128 C2129 1.374 . S
C2129 H2109 0.950 . S
C2129 C2125 1.385 . S
C2129 C2128 1.374 . S
C2130 C2127 1.499 . S
C2130 C2131 1.373 . S
C2130 C2132 1.389 . S
C2131 H2110 0.950 . S
C2131 C2130 1.373 . S
C2131 C2147 1.377 . S
C2132 C2130 1.389 . S
C2132 C2133 1.524 . S
C2132 C2146 1.377 . S
C2133 C2132 1.524 . S
C2133 C2134 1.397 . S
C2133 C2138 1.363 . S
C2134 H2111 0.950 . S
C2134 C2133 1.397 . S
C2134 C2135 1.334 . S
C2135 H2112 0.950 . S
C2135 C2134 1.334 . S
C2135 C2136 1.287 . S
C2136 C2135 1.287 . S
C2136 C2137 1.524 . S
C2136 H2155 0.913 . S
C2137 H2113 0.950 . S
C2137 C2136 1.524 . S
C2137 C2138 1.415 . S
C2138 H2114 0.950 . S
C2138 C2133 1.363 . S
C2138 C2137 1.415 . S
C2139 H2115 0.951 . S
C2139 C2140 1.366 . S
C2139 C2141 1.388 . S
C2140 C2139 1.366 . S
C2140 C2144 1.385 . S
C2141 H2116 0.951 . S
C2141 C2139 1.388 . S
C2141 C2142 1.366 . S
C2142 C2141 1.366 . S
C2142 C2143 1.414 . S
C2142 C2145 1.499 . S
C2143 H2117 0.950 . S
C2143 C2142 1.414 . S
C2143 C2144 1.374 . S
C2144 H2118 0.950 . S
C2144 C2140 1.385 . S
C2144 C2143 1.374 . S
C2145 C2142 1.499 . S
C2145 C2146 1.373 . S
C2145 C2147 1.389 . S
C2146 H2119 0.950 . S
C2146 C2132 1.377 . S
C2146 C2145 1.373 . S
C2147 C2131 1.377 . S
C2147 C2145 1.389 . S
C2147 C2148 1.524 . S
C2148 C2147 1.524 . S
C2148 C2149 1.397 . S
C2148 C2153 1.363 . S
C2149 H2120 0.950 . S
C2149 C2148 1.397 . S
C2149 C2150 1.334 . S
C2150 H2121 0.950 . S
C2150 C2149 1.334 . S
C2150 C2151 1.287 . S
C2151 C2150 1.287 . S
C2151 C2152 1.524 . S
C2151 H2154 0.999 . S
C2152 H2122 0.950 . S
C2152 C2151 1.524 . S
C2152 C2153 1.415 . S
C2153 H2123 0.950 . S
C2153 C2148 1.363 . S
C2153 C2152 1.415 . S
H2154 C2151 0.999 . S
H2155 C2136 0.913 . S
H2156 C2174 0.951 . S
H2157 C2176 0.951 . S
H2158 C2178 0.950 . S
H2159 C2179 0.950 . S
H2160 C2181 0.950 . S
H2161 C2184 0.950 . S
H2162 C2185 0.950 . S
H2163 C2187 0.950 . S
H2164 C2188 0.950 . S
H2165 C2189 0.951 . S
H2166 C2191 0.951 . S
H2167 C2193 0.950 . S
H2168 C2194 0.950 . S
H2169 C2196 0.950 . S
H2170 C2199 0.950 . S
H2171 C2200 0.950 . S
H2172 C2202 0.950 . S
H2173 C2203 0.950 . S
C2174 H2156 0.951 . S
C2174 C2175 1.366 . S
C2174 C2176 1.388 . S
C2175 C2174 1.366 . S
C2175 C2179 1.385 . S
C2176 H2157 0.951 . S
C2176 C2174 1.388 . S
C2176 C2177 1.366 . S
C2177 C2176 1.366 . S
C2177 C2178 1.414 . S
C2177 C2180 1.499 . S
C2178 H2158 0.950 . S
C2178 C2177 1.414 . S
C2178 C2179 1.374 . S
C2179 H2159 0.950 . S
C2179 C2175 1.385 . S
C2179 C2178 1.374 . S
C2180 C2177 1.499 . S
C2180 C2181 1.373 . S
C2180 C2182 1.389 . S
C2181 H2160 0.950 . S
C2181 C2180 1.373 . S
C2181 C2197 1.377 . S
C2182 C2180 1.389 . S
C2182 C2183 1.524 . S
C2182 C2196 1.377 . S
C2183 C2182 1.524 . S
C2183 C2184 1.397 . S
C2183 C2188 1.363 . S
C2184 H2161 0.950 . S
C2184 C2183 1.397 . S
C2184 C2185 1.334 . S
C2185 H2162 0.950 . S
C2185 C2184 1.334 . S
C2185 C2186 1.287 . S
C2186 C2185 1.287 . S
C2186 C2187 1.524 . S
C2186 H2205 0.913 . S
C2187 H2163 0.950 . S
C2187 C2186 1.524 . S
C2187 C2188 1.415 . S
C2188 H2164 0.950 . S
C2188 C2183 1.363 . S
C2188 C2187 1.415 . S
C2189 H2165 0.951 . S
C2189 C2190 1.366 . S
C2189 C2191 1.388 . S
C2190 C2189 1.366 . S
C2190 C2194 1.385 . S
C2191 H2166 0.951 . S
C2191 C2189 1.388 . S
C2191 C2192 1.366 . S
C2192 C2191 1.366 . S
C2192 C2193 1.414 . S
C2192 C2195 1.499 . S
C2193 H2167 0.950 . S
C2193 C2192 1.414 . S
C2193 C2194 1.374 . S
C2194 H2168 0.950 . S
C2194 C2190 1.385 . S
C2194 C2193 1.374 . S
C2195 C2192 1.499 . S
C2195 C2196 1.373 . S
C2195 C2197 1.389 . S
C2196 H2169 0.950 . S
C2196 C2182 1.377 . S
C2196 C2195 1.373 . S
C2197 C2181 1.377 . S
C2197 C2195 1.389 . S
C2197 C2198 1.524 . S
C2198 C2197 1.524 . S
C2198 C2199 1.397 . S
C2198 C2203 1.363 . S
C2199 H2170 0.950 . S
C2199 C2198 1.397 . S
C2199 C2200 1.334 . S
C2200 H2171 0.950 . S
C2200 C2199 1.334 . S
C2200 C2201 1.287 . S
C2201 C2200 1.287 . S
C2201 C2202 1.524 . S
C2201 H2204 0.999 . S
C2202 H2172 0.950 . S
C2202 C2201 1.524 . S
C2202 C2203 1.415 . S
C2203 H2173 0.950 . S
C2203 C2198 1.363 . S
C2203 C2202 1.415 . S
H2204 C2201 0.999 . S
H2205 C2186 0.913 . S
H2206 C2224 0.951 . S
H2207 C2226 0.951 . S
H2208 C2228 0.950 . S
H2209 C2229 0.950 . S
H2210 C2231 0.950 . S
H2211 C2234 0.950 . S
H2212 C2235 0.950 . S
H2213 C2237 0.950 . S
H2214 C2238 0.950 . S
H2215 C2239 0.951 . S
H2216 C2241 0.951 . S
H2217 C2243 0.950 . S
H2218 C2244 0.950 . S
H2219 C2246 0.950 . S
H2220 C2249 0.950 . S
H2221 C2250 0.950 . S
H2222 C2252 0.950 . S
H2223 C2253 0.950 . S
C2224 H2206 0.951 . S
C2224 C2225 1.366 . S
C2224 C2226 1.388 . S
C2225 C2224 1.366 . S
C2225 C2229 1.385 . S
C2226 H2207 0.951 . S
C2226 C2224 1.388 . S
C2226 C2227 1.366 . S
C2227 C2226 1.366 . S
C2227 C2228 1.414 . S
C2227 C2230 1.499 . S
C2228 H2208 0.950 . S
C2228 C2227 1.414 . S
C2228 C2229 1.374 . S
C2229 H2209 0.950 . S
C2229 C2225 1.385 . S
C2229 C2228 1.374 . S
C2230 C2227 1.499 . S
C2230 C2231 1.373 . S
C2230 C2232 1.389 . S
C2231 H2210 0.950 . S
C2231 C2230 1.373 . S
C2231 C2247 1.377 . S
C2232 C2230 1.389 . S
C2232 C2233 1.524 . S
C2232 C2246 1.377 . S
C2233 C2232 1.524 . S
C2233 C2234 1.397 . S
C2233 C2238 1.363 . S
C2234 H2211 0.950 . S
C2234 C2233 1.397 . S
C2234 C2235 1.334 . S
C2235 H2212 0.950 . S
C2235 C2234 1.334 . S
C2235 C2236 1.287 . S
C2236 C2235 1.287 . S
C2236 C2237 1.524 . S
C2236 H2255 0.913 . S
C2237 H2213 0.950 . S
C2237 C2236 1.524 . S
C2237 C2238 1.415 . S
C2238 H2214 0.950 . S
C2238 C2233 1.363 . S
C2238 C2237 1.415 . S
C2239 H2215 0.951 . S
C2239 C2240 1.366 . S
C2239 C2241 1.388 . S
C2240 C2239 1.366 . S
C2240 C2244 1.385 . S
C2241 H2216 0.951 . S
C2241 C2239 1.388 . S
C2241 C2242 1.366 . S
C2242 C2241 1.366 . S
C2242 C2243 1.414 . S
C2242 C2245 1.499 . S
C2243 H2217 0.950 . S
C2243 C2242 1.414 . S
C2243 C2244 1.374 . S
C2244 H2218 0.950 . S
C2244 C2240 1.385 . S
C2244 C2243 1.374 . S
C2245 C2242 1.499 . S
C2245 C2246 1.373 . S
C2245 C2247 1.389 . S
C2246 H2219 0.950 . S
C2246 C2232 1.377 . S
C2246 C2245 1.373 . S
C2247 C2231 1.377 . S
C2247 C2245 1.389 . S
C2247 C2248 1.524 . S
C2248 C2247 1.524 . S
C2248 C2249 1.397 . S
C2248 C2253 1.363 . S
C2249 H2220 0.950 . S
C2249 C2248 1.397 . S
C2249 C2250 1.334 . S
C2250 H2221 0.950 . S
C2250 C2249 1.334 . S
C2250 C2251 1.287 . S
C2251 C2250 1.287 . S
C2251 C2252 1.524 . S
C2251 H2254 0.999 . S
C2252 H2222 0.950 . S
C2252 C2251 1.524 . S
C2252 C2253 1.415 . S
C2253 H2223 0.950 . S
C2253 C2248 1.363 . S
C2253 C2252 1.415 . S
H2254 C2251 0.999 . S
H2255 C2236 0.913 . S
C1075 C57 1.406 . S
C1090 C997 1.406 . S
C1125 C548 1.406 . S
C1140 C145 1.406 . S
C1175 C225 1.406 . S
C1190 C636 1.406 . S
C1225 C733 1.406 . S
C1240 C321 1.406 . S
C1275 C821 1.406 . S
C1290 C401 1.406 . S
C1325 C900 1.406 . S
C1340 C497 1.406 . S
C1375 C293 1.407 . S
C1390 C761 1.407 . S
C1425 C372 1.407 . S
C1440 C849 1.407 . S
C1475 C469 1.407 . S
C1490 C929 1.407 . S
C1525 C1025 1.407 . S
C1540 C29 1.407 . S
C1575 C117 1.407 . S
C1590 C577 1.407 . S
C1625 C196 1.407 . S
C1640 C665 1.407 . S
C1675 C753 1.420 . S
C1690 C20 1.420 . S
C1725 C841 1.419 . S
C1740 C108 1.420 . S
C1775 C205 1.420 . S
C1790 C937 1.420 . S
C1825 C284 1.420 . S
C1840 C1017 1.420 . S
C1875 C381 1.420 . S
C1890 C585 1.420 . S
C1925 C673 1.420 . S
C1940 C460 1.420 . S
C1975 C49 0.941 . S
C1990 C909 0.941 . S
C2025 C988 0.940 . S
C2040 C137 0.941 . S
C2075 C233 0.941 . S
C2090 C557 0.941 . S
C2125 C313 0.941 . S
C2140 C645 0.941 . S
C2175 C409 0.940 . S
C2190 C724 0.941 . S
C2225 C489 0.941 . S
C2240 C812 0.941 . S
