# Generated by pormake.
# Topology gsi, (4)-cn, num edge types: 1
# Building blocks:
#     Node 0, Type 0, BuildingBlock: GALJAG_clean_sbu_0, # of connection points: 4
#     Node 1, Type 0, BuildingBlock: GALJAG_clean_sbu_0, # of connection points: 4
#     Node 2, Type 0, BuildingBlock: GALJAG_clean_sbu_0, # of connection points: 4
#     Node 3, Type 0, BuildingBlock: GALJAG_clean_sbu_0, # of connection points: 4
#     Node 4, Type 0, BuildingBlock: GALJAG_clean_sbu_0, # of connection points: 4
#     Node 5, Type 0, BuildingBlock: GALJAG_clean_sbu_0, # of connection points: 4
#     Node 6, Type 0, BuildingBlock: GALJAG_clean_sbu_0, # of connection points: 4
#     Node 7, Type 0, BuildingBlock: GALJAG_clean_sbu_0, # of connection points: 4
#     Node 8, Type 0, BuildingBlock: GALJAG_clean_sbu_0, # of connection points: 4
#     Node 9, Type 0, BuildingBlock: GALJAG_clean_sbu_0, # of connection points: 4
#     Node 10, Type 0, BuildingBlock: GALJAG_clean_sbu_0, # of connection points: 4
#     Node 11, Type 0, BuildingBlock: GALJAG_clean_sbu_0, # of connection points: 4
#     Node 12, Type 0, BuildingBlock: GALJAG_clean_sbu_0, # of connection points: 4
#     Node 13, Type 0, BuildingBlock: GALJAG_clean_sbu_0, # of connection points: 4
#     Node 14, Type 0, BuildingBlock: GALJAG_clean_sbu_0, # of connection points: 4
#     Node 15, Type 0, BuildingBlock: GALJAG_clean_sbu_0, # of connection points: 4
#     Edge 16, Type (0, 0), BuildingBlock: XIVTED_clean_linker_0, # of connection points: 2
#     Edge 17, Type (0, 0), BuildingBlock: XIVTED_clean_linker_0, # of connection points: 2
#     Edge 18, Type (0, 0), BuildingBlock: XIVTED_clean_linker_0, # of connection points: 2
#     Edge 19, Type (0, 0), BuildingBlock: XIVTED_clean_linker_0, # of connection points: 2
#     Edge 20, Type (0, 0), BuildingBlock: XIVTED_clean_linker_0, # of connection points: 2
#     Edge 21, Type (0, 0), BuildingBlock: XIVTED_clean_linker_0, # of connection points: 2
#     Edge 22, Type (0, 0), BuildingBlock: XIVTED_clean_linker_0, # of connection points: 2
#     Edge 23, Type (0, 0), BuildingBlock: XIVTED_clean_linker_0, # of connection points: 2
#     Edge 24, Type (0, 0), BuildingBlock: XIVTED_clean_linker_0, # of connection points: 2
#     Edge 25, Type (0, 0), BuildingBlock: XIVTED_clean_linker_0, # of connection points: 2
#     Edge 26, Type (0, 0), BuildingBlock: XIVTED_clean_linker_0, # of connection points: 2
#     Edge 27, Type (0, 0), BuildingBlock: XIVTED_clean_linker_0, # of connection points: 2
#     Edge 28, Type (0, 0), BuildingBlock: XIVTED_clean_linker_0, # of connection points: 2
#     Edge 29, Type (0, 0), BuildingBlock: XIVTED_clean_linker_0, # of connection points: 2
#     Edge 30, Type (0, 0), BuildingBlock: XIVTED_clean_linker_0, # of connection points: 2
#     Edge 31, Type (0, 0), BuildingBlock: XIVTED_clean_linker_0, # of connection points: 2
#     Edge 32, Type (0, 0), BuildingBlock: XIVTED_clean_linker_0, # of connection points: 2
#     Edge 33, Type (0, 0), BuildingBlock: XIVTED_clean_linker_0, # of connection points: 2
#     Edge 34, Type (0, 0), BuildingBlock: XIVTED_clean_linker_0, # of connection points: 2
#     Edge 35, Type (0, 0), BuildingBlock: XIVTED_clean_linker_0, # of connection points: 2
#     Edge 36, Type (0, 0), BuildingBlock: XIVTED_clean_linker_0, # of connection points: 2
#     Edge 37, Type (0, 0), BuildingBlock: XIVTED_clean_linker_0, # of connection points: 2
#     Edge 38, Type (0, 0), BuildingBlock: XIVTED_clean_linker_0, # of connection points: 2
#     Edge 39, Type (0, 0), BuildingBlock: XIVTED_clean_linker_0, # of connection points: 2
#     Edge 40, Type (0, 0), BuildingBlock: XIVTED_clean_linker_0, # of connection points: 2
#     Edge 41, Type (0, 0), BuildingBlock: XIVTED_clean_linker_0, # of connection points: 2
#     Edge 42, Type (0, 0), BuildingBlock: XIVTED_clean_linker_0, # of connection points: 2
#     Edge 43, Type (0, 0), BuildingBlock: XIVTED_clean_linker_0, # of connection points: 2
#     Edge 44, Type (0, 0), BuildingBlock: XIVTED_clean_linker_0, # of connection points: 2
#     Edge 45, Type (0, 0), BuildingBlock: XIVTED_clean_linker_0, # of connection points: 2
#     Edge 46, Type (0, 0), BuildingBlock: XIVTED_clean_linker_0, # of connection points: 2
#     Edge 47, Type (0, 0), BuildingBlock: XIVTED_clean_linker_0, # of connection points: 2
# Relax obj value: 0.227
# Max RMSD: 0.210
# Mean RMSD: 0.172
data_MOF--net-gsi--node1-GALJAG_clean_sbu_0--edge1-XIVTED_clean_linker_0
_symmetry_space_group_name_H-M    P1
_symmetry_Int_Tables_number       1
_symmetry_cell_setting            triclinic
loop_
_symmetry_equiv_pos_as_xyz
'x, y, z'
_cell_length_a     40.967175
_cell_length_b     39.973765
_cell_length_c     45.345279
_cell_angle_alpha  90.030496
_cell_angle_beta   89.982767
_cell_angle_gamma 105.34395
loop_
_atom_site_label
_atom_site_type_symbol
_atom_site_fract_x
_atom_site_fract_y
_atom_site_fract_z
_atom_type_partial_charge
In0 In 0.13151 0.1448 0.12449 0.0
O1 O 0.17468 0.15316 0.09186 0.0
O2 O 0.12867 0.11625 0.08023 0.0
C3 C 0.17898 0.18743 0.15816 0.0
C4 C 0.08081 0.17445 0.11225 0.0
C5 C 0.11709 0.08885 0.16062 0.0
O6 O 0.18442 0.16213 0.14425 0.0
O7 O 0.15012 0.19223 0.15399 0.0
O8 O 0.119 0.11918 0.16928 0.0
O9 O 0.12044 0.08609 0.13314 0.0
C10 C 0.15899 0.13106 0.07341 0.0
O11 O 0.07708 0.14858 0.12906 0.0
O12 O 0.10965 0.18448 0.10053 0.0
In13 In 0.86521 0.34708 0.1255 0.0
O14 O 0.91951 0.3442 0.13323 0.0
O15 O 0.8923 0.3145 0.098 0.0
C16 C 0.86268 0.403 0.15791 0.0
C17 C 0.8359 0.3605 0.07534 0.0
C18 C 0.83252 0.29769 0.16344 0.0
O19 O 0.88931 0.40193 0.14421 0.0
O20 O 0.83804 0.37684 0.15429 0.0
O21 O 0.82078 0.30152 0.1383 0.0
O22 O 0.8613 0.31768 0.16876 0.0
C23 C 0.91918 0.32251 0.11295 0.0
O24 O 0.82317 0.33498 0.09184 0.0
O25 O 0.86448 0.3791 0.08354 0.0
In26 In 0.17619 0.8711 0.34247 0.0
O27 O 0.11976 0.86358 0.35105 0.0
O28 O 0.14063 0.82137 0.36 0.0
C29 C 0.20452 0.829 0.3111 0.0
C30 C 0.16276 0.91786 0.30464 0.0
C31 C 0.21628 0.89403 0.38981 0.0
O32 O 0.1832 0.81824 0.33129 0.0
O33 O 0.21212 0.86137 0.30686 0.0
O34 O 0.22811 0.891 0.36462 0.0
O35 O 0.18449 0.88721 0.39072 0.0
C36 C 0.11464 0.83257 0.35954 0.0
O37 O 0.1743 0.92622 0.33023 0.0
O38 O 0.15855 0.88632 0.29823 0.0
In39 In 0.82284 0.63131 0.33939 0.0
O40 O 0.85897 0.68451 0.34495 0.0
O41 O 0.87696 0.64122 0.35716 0.0
C42 C 0.79167 0.66941 0.3062 0.0
C43 C 0.83543 0.58149 0.3043 0.0
C44 C 0.78516 0.61153 0.38859 0.0
O45 O 0.80663 0.68017 0.33002 0.0
O46 O 0.79181 0.6389 0.29915 0.0
O47 O 0.81695 0.61775 0.38842 0.0
O48 O 0.77224 0.61376 0.36373 0.0
C49 C 0.88311 0.6738 0.35482 0.0
O50 O 0.81355 0.57484 0.3246 0.0
O51 O 0.8511 0.61306 0.30198 0.0
In52 In 0.36827 0.85038 0.62215 0.0
O53 O 0.42423 0.85067 0.61703 0.0
O54 O 0.38644 0.80449 0.60658 0.0
C55 C 0.36825 0.90782 0.65351 0.0
C56 C 0.34286 0.86429 0.5702 0.0
C57 C 0.33292 0.80652 0.66273 0.0
O58 O 0.39492 0.89784 0.65043 0.0
O59 O 0.34298 0.88999 0.63967 0.0
O60 O 0.32278 0.80721 0.63652 0.0
O61 O 0.36146 0.82701 0.66811 0.0
C62 C 0.41757 0.81934 0.60879 0.0
O63 O 0.32646 0.84243 0.58844 0.0
O64 O 0.37307 0.87874 0.57758 0.0
In65 In 0.86492 0.83968 0.87107 0.0
O66 O 0.89073 0.88954 0.84551 0.0
O67 O 0.83757 0.87717 0.85256 0.0
C68 C 0.9167 0.81112 0.88236 0.0
C69 C 0.8381 0.84793 0.92411 0.0
C70 C 0.82943 0.79733 0.82956 0.0
O71 O 0.92176 0.84305 0.87663 0.0
O72 O 0.886 0.79445 0.88304 0.0
O73 O 0.81842 0.79904 0.85535 0.0
O74 O 0.8589 0.81629 0.8249 0.0
C75 C 0.86319 0.89741 0.84091 0.0
O76 O 0.82694 0.82202 0.90769 0.0
O77 O 0.86404 0.86977 0.91434 0.0
In78 In 0.1433 0.64825 0.86699 0.0
O79 O 0.18535 0.65706 0.90076 0.0
O80 O 0.1383 0.62209 0.91245 0.0
C81 C 0.18146 0.6885 0.82568 0.0
C82 C 0.13862 0.58864 0.83709 0.0
C83 C 0.09491 0.68113 0.87906 0.0
O84 O 0.19088 0.68852 0.85218 0.0
O85 O 0.15232 0.66919 0.82035 0.0
O86 O 0.08808 0.64868 0.87532 0.0
O87 O 0.12593 0.69657 0.87733 0.0
C88 C 0.16862 0.63631 0.91962 0.0
O89 O 0.11448 0.60284 0.83773 0.0
O90 O 0.16371 0.60344 0.85267 0.0
In91 In 0.82415 0.13202 0.66583 0.0
O92 O 0.8609 0.18309 0.65378 0.0
O93 O 0.87343 0.13706 0.64023 0.0
C94 C 0.80017 0.16468 0.70945 0.0
C95 C 0.78333 0.12582 0.61807 0.0
C96 C 0.83482 0.07848 0.69739 0.0
O97 O 0.8308 0.1731 0.70166 0.0
O98 O 0.78174 0.13902 0.69583 0.0
O99 O 0.80684 0.07704 0.68505 0.0
O100 O 0.85735 0.10634 0.69314 0.0
C101 C 0.8817 0.16982 0.6409 0.0
O102 O 0.79791 0.10262 0.6246 0.0
O103 O 0.78896 0.15094 0.63574 0.0
In104 In 0.17221 0.36557 0.64807 0.0
O105 O 0.17767 0.37781 0.5989 0.0
O106 O 0.22262 0.38809 0.62416 0.0
C107 C 0.16424 0.41829 0.68256 0.0
C108 C 0.113 0.32269 0.63054 0.0
C109 C 0.19743 0.32307 0.68217 0.0
O110 O 0.19298 0.41552 0.67478 0.0
O111 O 0.13978 0.3953 0.67219 0.0
O112 O 0.20287 0.32634 0.65482 0.0
O113 O 0.17922 0.34129 0.69246 0.0
C114 C 0.20952 0.38739 0.59898 0.0
O115 O 0.13689 0.31181 0.64084 0.0
O116 O 0.11906 0.35528 0.6288 0.0
In117 In 0.6435 0.15211 0.37274 0.0
O118 O 0.61374 0.10963 0.34166 0.0
O119 O 0.66064 0.10508 0.35889 0.0
C120 C 0.5933 0.18272 0.38374 0.0
C121 C 0.66665 0.1448 0.42738 0.0
C122 C 0.68522 0.18869 0.3314 0.0
O123 O 0.62373 0.19937 0.38001 0.0
O124 O 0.58789 0.15012 0.3823 0.0
O125 O 0.69586 0.18197 0.35624 0.0
O126 O 0.65362 0.17833 0.32809 0.0
C127 C 0.63612 0.0931 0.34171 0.0
O128 O 0.67653 0.17228 0.41249 0.0
O129 O 0.6445 0.12089 0.41495 0.0
In130 In 0.63419 0.64541 0.62569 0.0
O131 O 0.58081 0.64965 0.61387 0.0
O132 O 0.62052 0.696 0.61619 0.0
C133 C 0.61953 0.58425 0.65509 0.0
C134 C 0.66324 0.63381 0.57482 0.0
C135 C 0.67596 0.68209 0.66688 0.0
O136 O 0.60516 0.60778 0.66076 0.0
O137 O 0.63927 0.59056 0.63331 0.0
O138 O 0.68448 0.68205 0.64013 0.0
O139 O 0.64625 0.66455 0.6725 0.0
C140 C 0.58949 0.68233 0.6119 0.0
O141 O 0.67978 0.64913 0.59662 0.0
O142 O 0.63146 0.62461 0.57834 0.0
In143 In 0.66926 0.37248 0.84744 0.0
O144 O 0.63197 0.32455 0.86581 0.0
O145 O 0.61265 0.36674 0.85277 0.0
C146 C 0.69791 0.32691 0.82092 0.0
C147 C 0.66189 0.42026 0.80741 0.0
C148 C 0.70495 0.39322 0.89757 0.0
O149 O 0.66636 0.32172 0.8237 0.0
O150 O 0.71523 0.3555 0.83111 0.0
O151 O 0.71792 0.40003 0.87234 0.0
O152 O 0.67388 0.37789 0.89733 0.0
C153 C 0.60644 0.33631 0.86296 0.0
O154 O 0.66096 0.42536 0.83484 0.0
O155 O 0.66768 0.3919 0.80042 0.0
In156 In 0.32025 0.12528 0.84161 0.0
O157 O 0.35421 0.18033 0.84422 0.0
O158 O 0.37237 0.14012 0.86331 0.0
C159 C 0.28963 0.1634 0.80772 0.0
C160 C 0.3328 0.07389 0.80807 0.0
C161 C 0.28434 0.10265 0.89125 0.0
O162 O 0.28774 0.16296 0.83549 0.0
O163 O 0.3069 0.14449 0.79698 0.0
O164 O 0.2706 0.10166 0.8663 0.0
O165 O 0.31615 0.11314 0.89084 0.0
C166 C 0.37784 0.17206 0.85769 0.0
O167 O 0.30371 0.07266 0.81795 0.0
O168 O 0.35547 0.10031 0.81584 0.0
In169 In 0.36263 0.33838 0.36808 0.0
O170 O 0.32139 0.32665 0.40268 0.0
O171 O 0.36591 0.36671 0.41239 0.0
C172 C 0.32507 0.29717 0.32679 0.0
C173 C 0.36692 0.3971 0.33706 0.0
C174 C 0.41216 0.3083 0.38268 0.0
O175 O 0.31314 0.30259 0.35145 0.0
O176 O 0.3562 0.31138 0.32346 0.0
O177 O 0.41812 0.34034 0.37713 0.0
O178 O 0.38133 0.2919 0.38158 0.0
C179 C 0.3366 0.3499 0.42044 0.0
O180 O 0.38984 0.38134 0.33584 0.0
O181 O 0.34351 0.38439 0.355 0.0
In182 In 0.31732 0.61923 0.15724 0.0
O183 O 0.36491 0.65268 0.1785 0.0
O184 O 0.36119 0.65453 0.13176 0.0
C185 C 0.28789 0.66105 0.18792 0.0
C186 C 0.28143 0.60044 0.10706 0.0
C187 C 0.32553 0.56201 0.18483 0.0
O188 O 0.30063 0.66887 0.16272 0.0
O189 O 0.28929 0.63179 0.19735 0.0
O190 O 0.29875 0.57175 0.18648 0.0
O191 O 0.34765 0.57996 0.1678 0.0
C192 C 0.37823 0.66566 0.15461 0.0
O193 O 0.26778 0.60386 0.13136 0.0
O194 O 0.31302 0.60479 0.10834 0.0
In195 In 0.66937 0.87228 0.15303 0.0
O196 O 0.70877 0.90232 0.11933 0.0
O197 O 0.67701 0.85346 0.10709 0.0
C198 C 0.6693 0.92952 0.18456 0.0
C199 C 0.60283 0.84082 0.15471 0.0
C200 C 0.69924 0.82906 0.18148 0.0
O201 O 0.65047 0.92061 0.16229 0.0
O202 O 0.68907 0.91084 0.18954 0.0
O203 O 0.67288 0.81832 0.16619 0.0
O204 O 0.71087 0.86156 0.18206 0.0
C205 C 0.70116 0.87881 0.10003 0.0
O206 O 0.62231 0.84141 0.17637 0.0
O207 O 0.61674 0.85709 0.13214 0.0
H208 H 0.24514 0.18784 0.16652 0.0
H209 H 0.25615 0.27821 0.32386 0.0
H210 H 0.16608 0.2296 0.20134 0.0
H211 H 0.34546 0.27516 0.27457 0.0
H212 H 0.22125 0.25297 0.28152 0.0
H213 H 0.28154 0.21407 0.20786 0.0
C214 C 0.23562 0.20288 0.18268 0.0
C215 C 0.20263 0.20666 0.18056 0.0
C216 C 0.24849 0.25778 0.28002 0.0
C217 C 0.24365 0.23586 0.22803 0.0
C218 C 0.26836 0.27186 0.30423 0.0
C219 C 0.30369 0.27876 0.30263 0.0
C220 C 0.26405 0.25016 0.25422 0.0
C221 C 0.31827 0.27026 0.27664 0.0
C222 C 0.25633 0.21772 0.20625 0.0
C223 C 0.19143 0.22623 0.2021 0.0
N224 N 0.29836 0.25629 0.2534 0.0
N225 N 0.21179 0.23981 0.22515 0.0
H226 H 0.76657 0.25957 0.16021 0.0
H227 H 0.75431 0.213 0.33236 0.0
H228 H 0.85202 0.28683 0.21939 0.0
H229 H 0.66777 0.19947 0.27495 0.0
H230 H 0.79144 0.23568 0.29055 0.0
H231 H 0.73101 0.2312 0.2011 0.0
C232 C 0.77795 0.2591 0.18171 0.0
C233 C 0.8122 0.27572 0.1865 0.0
C234 C 0.76432 0.22779 0.28714 0.0
C235 C 0.77165 0.24382 0.23343 0.0
C236 C 0.74315 0.21502 0.311 0.0
C237 C 0.70796 0.20456 0.3071 0.0
C238 C 0.75014 0.2299 0.25921 0.0
C239 C 0.69478 0.20745 0.27895 0.0
C240 C 0.7576 0.24314 0.2051 0.0
C241 C 0.82566 0.27442 0.2148 0.0
N242 N 0.71588 0.21979 0.25607 0.0
N243 N 0.80528 0.25897 0.23728 0.0
H244 H 0.25611 0.64868 0.24124 0.0
H245 H 0.24457 0.844 0.26196 0.0
H246 H 0.2893 0.72819 0.17523 0.0
H247 H 0.19529 0.75969 0.31942 0.0
H248 H 0.26467 0.80293 0.23144 0.0
H249 H 0.2364 0.68992 0.27161 0.0
C250 C 0.25908 0.67479 0.23309 0.0
C251 C 0.27427 0.68508 0.2057 0.0
C252 C 0.24947 0.79346 0.25074 0.0
C253 C 0.25212 0.73244 0.24038 0.0
C254 C 0.23815 0.81689 0.26821 0.0
C255 C 0.21825 0.80516 0.29318 0.0
C256 C 0.24096 0.75817 0.25848 0.0
C257 C 0.21054 0.76979 0.3003 0.0
C258 C 0.24787 0.69832 0.25043 0.0
C259 C 0.2776 0.71921 0.1962 0.0
N260 N 0.22193 0.74754 0.28303 0.0
N261 N 0.26672 0.74176 0.21359 0.0
H262 H 0.75294 0.65143 0.2565 0.0
H263 H 0.74998 0.84657 0.22205 0.0
H264 H 0.79718 0.7382 0.31337 0.0
H265 H 0.68212 0.7582 0.18007 0.0
H266 H 0.77236 0.80716 0.25226 0.0
H267 H 0.73067 0.69017 0.22502 0.0
C268 C 0.75785 0.67858 0.26238 0.0
C269 C 0.77685 0.69169 0.28753 0.0
C270 C 0.7526 0.79638 0.23641 0.0
C271 C 0.75195 0.73599 0.25165 0.0
C272 C 0.73995 0.81885 0.21908 0.0
C273 C 0.71417 0.80556 0.19861 0.0
C274 C 0.73954 0.76038 0.23306 0.0
C275 C 0.70199 0.76945 0.19567 0.0
C276 C 0.74517 0.70062 0.24446 0.0
C277 C 0.78256 0.72703 0.2942 0.0
N278 N 0.71482 0.74805 0.21272 0.0
N279 N 0.7703 0.74798 0.27628 0.0
H280 H 0.26938 0.76314 0.65726 0.0
H281 H 0.24624 0.72928 0.83099 0.0
H282 H 0.3478 0.8041 0.72122 0.0
H283 H 0.16758 0.68961 0.76694 0.0
H284 H 0.28413 0.75648 0.79106 0.0
H285 H 0.2323 0.7343 0.69708 0.0
C286 C 0.27889 0.76576 0.67967 0.0
C287 C 0.31163 0.78605 0.68601 0.0
C288 C 0.25855 0.74191 0.78574 0.0
C289 C 0.26931 0.75354 0.73167 0.0
C290 C 0.23689 0.72653 0.80853 0.0
C291 C 0.20375 0.70726 0.80221 0.0
C292 C 0.24696 0.73791 0.75646 0.0
C293 C 0.19294 0.70434 0.77276 0.0
C294 C 0.25768 0.74945 0.7024 0.0
C295 C 0.32269 0.78868 0.7154 0.0
N296 N 0.21452 0.71945 0.75095 0.0
N297 N 0.3015 0.77274 0.73718 0.0
H298 H 0.74208 0.71958 0.66118 0.0
H299 H 0.76549 0.7552 0.83465 0.0
H300 H 0.66306 0.68358 0.72565 0.0
H301 H 0.84488 0.79419 0.7711 0.0
H302 H 0.72855 0.72642 0.79489 0.0
H303 H 0.78089 0.74583 0.70097 0.0
C304 C 0.73289 0.71737 0.68369 0.0
C305 C 0.69934 0.69952 0.69019 0.0
C306 C 0.75409 0.74111 0.7896 0.0
C307 C 0.74348 0.7291 0.73568 0.0
C308 C 0.77523 0.75744 0.81232 0.0
C309 C 0.80821 0.77716 0.8061 0.0
C310 C 0.76599 0.74461 0.76041 0.0
C311 C 0.81957 0.77922 0.7768 0.0
C312 C 0.75504 0.73222 0.70637 0.0
C313 C 0.68872 0.69722 0.71968 0.0
N314 N 0.7984 0.76328 0.75497 0.0
N315 N 0.71073 0.71182 0.74133 0.0
H316 H 0.66533 0.26326 0.79919 0.0
H317 H 0.83445 0.2227 0.7393 0.0
H318 H 0.76506 0.33217 0.81127 0.0
H319 H 0.73443 0.15451 0.7269 0.0
H320 H 0.81011 0.26087 0.76926 0.0
H321 H 0.69066 0.22128 0.77562 0.0
C322 C 0.6926 0.26953 0.79689 0.0
C323 C 0.71315 0.30131 0.807 0.0
C324 C 0.79351 0.23742 0.76021 0.0
C325 C 0.74234 0.25335 0.78011 0.0
C326 C 0.8074 0.21556 0.74319 0.0
C327 C 0.78636 0.18554 0.73047 0.0
C328 C 0.75832 0.22923 0.76444 0.0
C329 C 0.75152 0.17749 0.73622 0.0
C330 C 0.70706 0.24551 0.78349 0.0
C331 C 0.74831 0.30802 0.80363 0.0
N332 N 0.73855 0.19937 0.75261 0.0
N333 N 0.76182 0.28427 0.79034 0.0
H334 H 0.23488 0.27967 0.66414 0.0
H335 H 0.25181 0.20642 0.82606 0.0
H336 H 0.18991 0.31185 0.74158 0.0
H337 H 0.29273 0.1711 0.74784 0.0
H338 H 0.22854 0.24492 0.79553 0.0
H339 H 0.25624 0.2397 0.69452 0.0
C340 C 0.22954 0.27833 0.68757 0.0
C341 C 0.21066 0.2991 0.70041 0.0
C342 C 0.24251 0.22868 0.78502 0.0
C343 C 0.23496 0.2534 0.73531 0.0
C344 C 0.25577 0.20668 0.80243 0.0
C345 C 0.27425 0.18562 0.78942 0.0
C346 C 0.24786 0.22966 0.7544 0.0
C347 C 0.27864 0.18695 0.75874 0.0
C348 C 0.24169 0.25546 0.7049 0.0
C349 C 0.2044 0.29629 0.73083 0.0
N350 N 0.26562 0.2087 0.74227 0.0
N351 N 0.21658 0.27386 0.74728 0.0
H352 H 0.16132 0.9849 0.31514 0.0
H353 H 0.11825 0.02192 0.14847 0.0
H354 H 0.1435 0.90665 0.2471 0.0
H355 H 0.11602 0.09175 0.2206 0.0
H356 H 0.12676 0.97882 0.184 0.0
H357 H 0.14542 0.02474 0.28043 0.0
C358 C 0.15412 0.97615 0.29288 0.0
C359 C 0.15382 0.94251 0.28393 0.0
C360 C 0.12399 0.00343 0.19205 0.0
C361 C 0.13553 0.98781 0.24412 0.0
C362 C 0.11898 0.02794 0.17179 0.0
C363 C 0.11656 0.06047 0.1816 0.0
C364 C 0.12693 0.01171 0.22225 0.0
C365 C 0.11784 0.06701 0.21206 0.0
C366 C 0.14487 -0.0012 0.27311 0.0
C367 C 0.14411 0.93242 0.25488 0.0
N368 N 0.12329 0.04301 0.23126 0.0
N369 N 0.13551 0.95502 0.23596 0.0
H370 H 0.91001 0.46498 0.16945 0.0
H371 H 0.79939 0.51368 0.30021 0.0
H372 H 0.8099 0.40425 0.19349 0.0
H373 H 0.88432 0.58878 0.26182 0.0
H374 H 0.80722 0.47075 0.26447 0.0
H375 H 0.9049 0.50899 0.20592 0.0
C376 C 0.88699 0.461 0.18227 0.0
C377 C 0.86033 0.431 0.17841 0.0
C378 C 0.8242 0.49661 0.26386 0.0
C379 C 0.85453 0.48063 0.22019 0.0
C380 C 0.81981 0.52106 0.28435 0.0
C381 C 0.84114 0.55483 0.28388 0.0
C382 C 0.85026 0.50589 0.24284 0.0
C383 C 0.86723 0.56301 0.26283 0.0
C384 C 0.88409 0.48603 0.20304 0.0
C385 C 0.83107 0.42702 0.19563 0.0
N386 N 0.87108 0.53868 0.24311 0.0
N387 N 0.82904 0.45141 0.2158 0.0
H388 H 0.30914 0.10987 0.94731 0.0
H389 H 0.13001 0.09318 0.02498 0.0
H390 H 0.21537 0.08519 0.89851 0.0
H391 H 0.22634 0.14885 0.06149 0.0
H392 H 0.15959 0.07972 0.98111 0.0
H393 H 0.27753 0.11214 0.99254 0.0
C394 C 0.28182 0.10433 0.94618 0.0
C395 C 0.26487 0.09766 0.91907 0.0
C396 C 0.17414 0.09478 -0.00118 0.0
C397 C 0.22856 0.10062 0.97076 0.0
C398 C 0.15732 0.10247 0.02378 0.0
C399 C 0.17576 0.12239 0.04674 0.0
C400 C 0.20959 0.10665 0.99718 0.0
C401 C 0.2111 0.13369 0.04418 0.0
C402 C 0.26381 0.10587 0.97199 0.0
C403 C 0.22941 0.0906 0.91895 0.0
N404 N 0.22682 0.12562 0.01991 0.0
N405 N 0.21239 0.09256 0.94441 0.0
H406 H 0.76975 0.33284 0.06197 0.0
H407 H 0.77382 0.41881 0.90413 0.0
H408 H 0.85967 0.40686 0.03029 0.0
H409 H 0.6821 0.37567 0.95324 0.0
H410 H 0.80689 0.41479 0.94857 0.0
H411 H 0.73833 0.34653 0.02023 0.0
C412 C 0.78294 0.35195 0.04613 0.0
C413 C 0.81741 0.36865 0.04953 0.0
C414 C 0.77952 0.40675 0.94965 0.0
C415 C 0.78144 0.38454 0.0015 0.0
C416 C 0.76064 0.40914 0.92437 0.0
C417 C 0.72517 0.39729 0.92496 0.0
C418 C 0.76271 0.392 0.97542 0.0
C419 C 0.70938 0.3849 0.95171 0.0
C420 C 0.76489 0.35996 0.02239 0.0
C421 C 0.8331 0.39338 0.0284 0.0
N422 N 0.72825 0.38215 0.97571 0.0
N423 N 0.81503 0.40042 0.00506 0.0
H424 H 0.37304 0.89944 0.52084 0.0
H425 H 0.19483 0.89481 0.44656 0.0
H426 H 0.27567 0.85045 0.5591 0.0
H427 H 0.2851 0.90466 0.39451 0.0
H428 H 0.22759 0.89284 0.49113 0.0
H429 H 0.344 0.91377 0.47688 0.0
C430 C 0.34564 0.89181 0.52 0.0
C431 C 0.32668 0.87347 0.54344 0.0
C432 C 0.24033 0.89582 0.46997 0.0
C433 C 0.2936 0.89034 0.49396 0.0
C434 C 0.22169 0.89718 0.44454 0.0
C435 C 0.2372 0.89948 0.41679 0.0
C436 C 0.27477 0.8969 0.46771 0.0
C437 C 0.27215 0.90261 0.41551 0.0
C438 C 0.32916 0.89999 0.49502 0.0
C439 C 0.29127 0.8643 0.54139 0.0
N440 N 0.28979 0.90091 0.44066 0.0
N441 N 0.27592 0.87291 0.51716 0.0
H442 H 0.73071 0.6429 0.56647 0.0
H443 H 0.7165 0.59926 0.39481 0.0
H444 H 0.63465 0.60807 0.52185 0.0
H445 H 0.80868 0.61412 0.44505 0.0
H446 H 0.68536 0.60046 0.44076 0.0
H447 H 0.75925 0.63174 0.52187 0.0
C448 C 0.7156 0.63287 0.54723 0.0
C449 C 0.68027 0.62659 0.54778 0.0
C450 C 0.71232 0.60302 0.44174 0.0
C451 C 0.71286 0.61372 0.49649 0.0
C452 C 0.73009 0.60224 0.41555 0.0
C453 C 0.76525 0.60682 0.41614 0.0
C454 C 0.72996 0.60876 0.46862 0.0
C455 C 0.78161 0.61061 0.44357 0.0
C456 C 0.73192 0.62633 0.52179 0.0
C457 C 0.66196 0.61337 0.52228 0.0
N458 N 0.76389 0.61187 0.46866 0.0
N459 N 0.67851 0.60759 0.49754 0.0
H460 H 0.93618 0.29071 0.06384 0.0
H461 H 0.03165 0.17686 0.1518 0.0
H462 H 0.96147 0.31106 0.15561 0.0
H463 H 0.0725 0.21773 0.06757 0.0
H464 H 0.99362 0.21497 0.15049 0.0
H465 H 0.9761 0.25417 0.0616 0.0
C466 C 0.9504 0.28778 0.08336 0.0
C467 C 0.94577 0.30403 0.1099 0.0
C468 C 0.01076 0.21531 0.13222 0.0
C469 C 0.99001 0.2616 0.10773 0.0
C470 C 0.03219 0.19342 0.1328 0.0
C471 C 0.05519 0.19422 0.10974 0.0
C472 C 0.01172 0.23745 0.10809 0.0
C473 C 0.05512 0.21646 0.08578 0.0
C474 C 0.97301 0.267 0.08206 0.0
C475 C 0.96456 0.29926 0.13466 0.0
N476 N 0.03348 0.23712 0.08543 0.0
N477 N 0.98545 0.27798 0.13311 0.0
H478 H 0.89982 0.74432 0.35391 0.0
H479 H 0.09739 0.76431 0.37563 0.0
H480 H 0.9418 0.65791 0.37084 0.0
H481 H 0.05442 0.84965 0.3571 0.0
H482 H 0.04028 0.7258 0.37991 0.0
H483 H 0.95574 0.78395 0.3608 0.0
C484 C 0.92082 0.7337 0.35931 0.0
C485 C 0.91629 0.69777 0.36155 0.0
C486 C 0.04333 0.75301 0.37521 0.0
C487 C 0.98048 0.74303 0.36931 0.0
C488 C 0.07591 0.77502 0.37282 0.0
C489 C 0.08057 0.81013 0.36574 0.0
C490 C 0.01526 0.76624 0.37038 0.0
C491 C 0.05192 0.82269 0.36241 0.0
C492 C 0.95276 0.75636 0.36325 0.0
C493 C 0.9443 0.68545 0.36877 0.0
N494 N 0.02048 0.80068 0.36451 0.0
N495 N 0.97533 0.70806 0.37215 0.0
H496 H 0.60246 0.75295 0.61114 0.0
H497 H 0.40776 0.75165 0.59281 0.0
H498 H 0.52119 0.65961 0.60166 0.0
H499 H 0.48659 0.84341 0.61494 0.0
H500 H 0.45005 0.71876 0.58988 0.0
H501 H 0.5615 0.7874 0.60665 0.0
C502 C 0.576 0.73969 0.60787 0.0
C503 C 0.56518 0.70332 0.60691 0.0
C504 C 0.45819 0.74612 0.59521 0.0
C505 C 0.51813 0.74266 0.60181 0.0
C506 C 0.43405 0.76498 0.5968 0.0
C507 C 0.44365 0.80032 0.60429 0.0
C508 C 0.49227 0.76265 0.60111 0.0
C509 C 0.47808 0.8162 0.60917 0.0
C510 C 0.55263 0.7594 0.60538 0.0
C511 C 0.53062 0.68757 0.60262 0.0
N512 N 0.50115 0.7972 0.60764 0.0
N513 N 0.50831 0.70733 0.60034 0.0
H514 H 0.89438 0.07337 0.72169 0.0
H515 H 0.80522 0.91306 0.82437 0.0
H516 H 0.78777 0.02138 0.71818 0.0
H517 H 0.91347 0.94576 0.81192 0.0
H518 H 0.79883 0.95644 0.78875 0.0
H519 H 0.90234 0.02992 0.75708 0.0
C520 C 0.87268 0.05267 0.72823 0.0
C521 C 0.84033 0.05095 0.717 0.0
C522 C 0.82401 0.95423 0.79379 0.0
C523 C 0.84923 0.00152 0.75773 0.0
C524 C 0.82773 0.9296 0.81431 0.0
C525 C 0.85997 0.92579 0.82115 0.0
C526 C 0.85273 0.97553 0.78005 0.0
C527 C 0.88817 0.94788 0.8073 0.0
C528 C 0.87726 0.02792 0.74843 0.0
C529 C 0.81313 0.02363 0.72622 0.0
N530 N 0.88391 0.97188 0.78738 0.0
N531 N 0.81816 0.00014 0.7462 0.0
H532 H 0.19049 0.55874 0.82993 0.0
H533 H 0.10508 0.43293 0.6984 0.0
H534 H 0.09049 0.55443 0.79733 0.0
H535 H 0.21232 0.46207 0.71639 0.0
H536 H 0.09711 0.47275 0.7372 0.0
H537 H 0.19622 0.51738 0.79209 0.0
C538 C 0.16952 0.54875 0.81501 0.0
C539 C 0.13997 0.56013 0.81675 0.0
C540 C 0.12238 0.47054 0.73252 0.0
C541 C 0.14656 0.5129 0.77307 0.0
C542 C 0.12698 0.4479 0.71037 0.0
C543 C 0.15945 0.44428 0.70415 0.0
C544 C 0.1504 0.48931 0.74881 0.0
C545 C 0.18689 0.46418 0.72038 0.0
C546 C 0.17294 0.52532 0.79325 0.0
C547 C 0.11369 0.54631 0.79677 0.0
N548 N 0.18171 0.48567 0.74208 0.0
N549 N 0.11762 0.52344 0.77566 0.0
H550 H 0.76006 0.92556 0.08183 0.0
H551 H 0.78358 0.80272 0.94855 0.0
H552 H 0.68742 0.83046 0.05663 0.0
H553 H 0.85094 0.90479 0.96107 0.0
H554 H 0.75033 0.81227 0.99048 0.0
H555 H 0.79506 0.91926 0.0391 0.0
C556 C 0.7513 0.90365 0.06713 0.0
C557 C 0.72086 0.87844 0.0728 0.0
C558 C 0.77237 0.83269 0.9842 0.0
C559 C 0.76078 0.87081 0.02446 0.0
C560 C 0.79152 0.82715 0.96028 0.0
C561 C 0.82005 0.85303 0.95126 0.0
C562 C 0.78167 0.86439 -0.00058 0.0
C563 C 0.82912 0.88414 0.96737 0.0
C564 C 0.77132 0.89998 0.04289 0.0
C565 C 0.71073 0.85048 0.0532 0.0
N566 N 0.80991 0.88904 0.99071 0.0
N567 N 0.7307 0.84735 0.0301 0.0
H568 H 0.23562 0.6527 0.93289 0.0
H569 H 0.2131 0.58823 0.09869 0.0
H570 H 0.13756 0.60055 0.96824 0.0
H571 H 0.3076 0.60648 0.05141 0.0
H572 H 0.18422 0.5931 0.05218 0.0
H573 H 0.26208 0.63811 0.97746 0.0
C574 C 0.21962 0.63824 0.95012 0.0
C575 C 0.18433 0.62796 0.94696 0.0
C576 C 0.21118 0.59551 0.05196 0.0
C577 C 0.21452 0.61111 0.99812 0.0
C578 C 0.22766 0.59267 0.07845 0.0
C579 C 0.26282 0.59718 0.07889 0.0
C580 C 0.23015 0.60346 0.0259 0.0
C581 C 0.28048 0.60291 0.05208 0.0
C582 C 0.23478 0.62968 0.97547 0.0
C583 C 0.16487 0.60903 0.96989 0.0
N584 N 0.26403 0.60637 0.02674 0.0
N585 N 0.18023 0.60143 0.99468 0.0
H586 H 0.70118 0.19607 0.46372 0.0
H587 H 0.76237 0.07357 0.57693 0.0
H588 H 0.6652 0.08468 0.45724 0.0
H589 H 0.75815 0.1777 0.59781 0.0
H590 H 0.73114 0.07654 0.53098 0.0
H591 H 0.72729 0.18969 0.51102 0.0
C592 C 0.6987 0.17025 0.47235 0.0
C593 C 0.68098 0.14087 0.45664 0.0
C594 C 0.7369 0.09854 0.54584 0.0
C595 C 0.71118 0.13331 0.51059 0.0
C596 C 0.75473 0.09689 0.57195 0.0
C597 C 0.76294 0.12546 0.59113 0.0
C598 C 0.72785 0.12916 0.53883 0.0
C599 C 0.75244 0.15506 0.58367 0.0
C600 C 0.71352 0.16661 0.49937 0.0
C601 C 0.67852 0.10799 0.46882 0.0
N602 N 0.73576 0.15624 0.55805 0.0
N603 N 0.69376 0.10503 0.49502 0.0
H604 H 0.18581 0.37812 0.54264 0.0
H605 H 0.36515 0.39123 0.46721 0.0
H606 H 0.27861 0.40371 0.59284 0.0
H607 H 0.2697 0.3289 0.4339 0.0
H608 H 0.33528 0.40658 0.51017 0.0
H609 H 0.21806 0.37271 0.49846 0.0
C610 C 0.21307 0.38325 0.54427 0.0
C611 C 0.22953 0.39103 0.5715 0.0
C612 C 0.32102 0.38956 0.49338 0.0
C613 C 0.26653 0.3845 0.52106 0.0
C614 C 0.33799 0.38075 0.46898 0.0
C615 C 0.31986 0.35856 0.44713 0.0
C616 C 0.28571 0.3766 0.4955 0.0
C617 C 0.28471 0.34583 0.45035 0.0
C618 C 0.23142 0.37988 0.51909 0.0
C619 C 0.26494 0.39747 0.57227 0.0
N620 N 0.26879 0.35516 0.47397 0.0
N621 N 0.28231 0.39379 0.54742 0.0
H622 H 0.02642 0.65423 0.88533 0.0
H623 H 0.98561 0.83944 0.87948 0.0
H624 H 0.10386 0.75126 0.88232 0.0
H625 H 0.90997 0.74262 0.89308 0.0
H626 H 0.02964 0.80814 0.88171 0.0
H627 H 0.98349 0.68648 0.88934 0.0
C628 C 0.03439 0.68231 0.8857 0.0
C629 C 0.06873 0.70007 0.88341 0.0
C630 C 0.00341 0.79381 0.88442 0.0
C631 C 0.01975 0.73725 0.88777 0.0
C632 C 0.97831 0.81169 0.88318 0.0
C633 C 0.94409 0.79361 0.88599 0.0
C634 C 0.99416 0.75759 0.88832 0.0
C635 C 0.93603 0.75762 0.89072 0.0
C636 C 0.00989 0.70075 0.88799 0.0
C637 C 0.07764 0.73651 0.88401 0.0
N638 N 0.96081 0.74082 0.89155 0.0
N639 N 0.05331 0.75389 0.88594 0.0
H640 H 0.0954 0.25188 0.62931 0.0
H641 H 0.89937 0.23931 0.63075 0.0
H642 H 0.05488 0.33996 0.61586 0.0
H643 H 0.93853 0.14927 0.62705 0.0
H644 H 0.95589 0.2761 0.62033 0.0
H645 H 0.03848 0.21335 0.62376 0.0
C646 C 0.07455 0.26307 0.62482 0.0
C647 C 0.07971 0.29915 0.62342 0.0
C648 C 0.95212 0.24827 0.62135 0.0
C649 C 0.01457 0.25531 0.61731 0.0
C650 C 0.91986 0.22727 0.62734 0.0
C651 C 0.91446 0.19129 0.63011 0.0
C652 C 0.97931 0.23324 0.61861 0.0
C653 C 0.94174 0.17696 0.62524 0.0
C654 C 0.04208 0.24107 0.6216 0.0
C655 C 0.05193 0.31229 0.61734 0.0
N656 N 0.97318 0.19806 0.62019 0.0
N657 N 0.02045 0.29039 0.61491 0.0
H658 H 0.52497 0.15368 0.39002 0.0
H659 H 0.48066 0.33721 0.38489 0.0
H660 H 0.6001 0.25232 0.38687 0.0
H661 H 0.4051 0.23915 0.39156 0.0
H662 H 0.52489 0.30662 0.38884 0.0
H663 H 0.48067 0.18441 0.39368 0.0
C664 C 0.53214 0.18177 0.39031 0.0
C665 C 0.56622 0.20047 0.38797 0.0
C666 C 0.49864 0.29179 0.38966 0.0
C667 C 0.51579 0.23581 0.39202 0.0
C668 C 0.47339 0.30927 0.38746 0.0
C669 C 0.43918 0.29068 0.38775 0.0
C670 C 0.48962 0.25541 0.39203 0.0
C671 C 0.43118 0.2545 0.39114 0.0
C672 C 0.50688 0.19932 0.39238 0.0
C673 C 0.57412 0.23685 0.38849 0.0
N674 N 0.4562 0.23803 0.39294 0.0
N675 N 0.54912 0.2533 0.39029 0.0
H676 H 0.64424 0.52809 0.64564 0.0
H677 H 0.63854 0.47775 0.81629 0.0
H678 H 0.59478 0.5755 0.7114 0.0
H679 H 0.6675 0.4165 0.74765 0.0
H680 H 0.62354 0.51484 0.77841 0.0
H681 H 0.65266 0.48668 0.6826 0.0
C682 C 0.6346 0.52936 0.66774 0.0
C683 C 0.61881 0.55526 0.67548 0.0
C684 C 0.63312 0.49324 0.77166 0.0
C685 C 0.62911 0.50852 0.71811 0.0
C686 C 0.64192 0.47225 0.79327 0.0
C687 C 0.65443 0.44413 0.78509 0.0
C688 C 0.63712 0.48619 0.74169 0.0
C689 C 0.65804 0.43798 0.75494 0.0
C690 C 0.63956 0.50583 0.68889 0.0
C691 C 0.60696 0.55584 0.70448 0.0
N692 N 0.64955 0.45889 0.73436 0.0
N693 N 0.61273 0.5331 0.72485 0.0
H694 H 0.39409 0.06815 0.78803 0.0
H695 H 0.31157 0.92843 0.66527 0.0
H696 H 0.28667 0.0221 0.77949 0.0
H697 H 0.41679 0.94869 0.68983 0.0
H698 H 0.30362 0.96825 0.70349 0.0
H699 H 0.40427 0.02889 0.74963 0.0
C700 C 0.37266 0.04959 0.77823 0.0
C701 C 0.33945 0.04833 0.78694 0.0
C702 C 0.3285 0.96413 0.70053 0.0
C703 C 0.35093 0.00389 0.74277 0.0
C704 C 0.33316 0.94156 0.67853 0.0
C705 C 0.36492 0.93516 0.67438 0.0
C706 C 0.35581 0.98076 0.71852 0.0
C707 C 0.3919 0.95293 0.69229 0.0
C708 C 0.37852 0.02726 0.75632 0.0
C709 C 0.31266 0.02387 0.77351 0.0
N710 N 0.38674 0.97496 0.71366 0.0
N711 N 0.31897 0.00281 0.75195 0.0
H712 H 0.43409 0.16022 0.88345 0.0
H713 H 0.54688 0.35361 0.85436 0.0
H714 H 0.39497 0.2418 0.84755 0.0
H715 H 0.58726 0.27015 0.88422 0.0
H716 H 0.4897 0.31515 0.85847 0.0
H717 H 0.48903 0.20217 0.89046 0.0
C718 C 0.437 0.18704 0.87731 0.0
C719 C 0.41011 0.19753 0.86463 0.0
C720 C 0.51105 0.30534 0.86439 0.0
C721 C 0.47279 0.24557 0.87246 0.0
C722 C 0.54367 0.32731 0.86212 0.0
C723 C 0.57179 0.3149 0.86868 0.0
C724 C 0.5066 0.27073 0.87323 0.0
C725 C 0.56624 0.28067 0.87872 0.0
C726 C 0.46835 0.21096 0.88128 0.0
C727 C 0.41516 0.23259 0.85718 0.0
N728 N 0.53428 0.25967 0.88045 0.0
N729 N 0.44599 0.25531 0.861 0.0
H730 H 0.38288 0.53894 0.18879 0.0
H731 H 0.31917 0.43294 0.33656 0.0
H732 H 0.28343 0.52482 0.22651 0.0
H733 H 0.40809 0.42339 0.28988 0.0
H734 H 0.30955 0.47206 0.29848 0.0
H735 H 0.39533 0.50002 0.22654 0.0
C736 C 0.36353 0.5273 0.20475 0.0
C737 C 0.33207 0.53512 0.20455 0.0
C738 C 0.33128 0.46159 0.29654 0.0
C739 C 0.34636 0.49137 0.24797 0.0
C740 C 0.33696 0.43944 0.31844 0.0
C741 C 0.36442 0.4248 0.31634 0.0
C742 C 0.35324 0.46936 0.27227 0.0
C743 C 0.38663 0.43419 0.29234 0.0
C744 C 0.37072 0.50527 0.22634 0.0
C745 C 0.308 0.51953 0.22582 0.0
N746 N 0.38048 0.45583 0.27109 0.0
N747 N 0.31575 0.49865 0.24675 0.0
H748 H 0.59373 0.07078 0.29463 0.0
H749 H 0.70995 0.95467 0.23121 0.0
H750 H 0.68122 0.05405 0.33902 0.0
H751 H 0.61997 0.96466 0.18663 0.0
H752 H 0.70004 0.99283 0.27005 0.0
H753 H 0.60174 0.03189 0.25496 0.0
C754 C 0.61425 0.05847 0.29627 0.0
C755 C 0.63686 0.06563 0.32013 0.0
C756 C 0.68247 0.98689 0.25175 0.0
C757 C 0.64655 0.02184 0.27471 0.0
C758 C 0.68826 0.96525 0.22943 0.0
C759 C 0.66573 0.95647 0.20567 0.0
C760 C 0.65383 -0.00011 0.25047 0.0
C761 C 0.63803 0.97092 0.20454 0.0
C762 C 0.61898 0.03654 0.27352 0.0
C763 C 0.66319 0.04929 0.32104 0.0
N764 N 0.63273 0.99182 0.22676 0.0
N765 N 0.6674 0.02837 0.2986 0.0
H766 H 0.56635 0.81067 0.20228 0.0
H767 H 0.41142 0.6998 0.10639 0.0
H768 H 0.55914 0.82245 0.1081 0.0
H769 H 0.41804 0.6938 0.20114 0.0
H770 H 0.46445 0.746 0.10624 0.0
H771 H 0.51039 0.76992 0.2022 0.0
C772 C 0.55278 0.8049 0.18159 0.0
C773 C 0.56741 0.81975 0.15513 0.0
C774 C 0.45423 0.7346 0.12704 0.0
C775 C 0.50348 0.7727 0.15476 0.0
C776 C 0.42408 0.70817 0.12713 0.0
C777 C 0.41049 0.69288 0.15381 0.0
C778 C 0.47081 0.74569 0.15384 0.0
C779 C 0.42774 0.70477 0.18006 0.0
C780 C 0.52085 0.78156 0.18153 0.0
C781 C 0.5487 0.81152 0.12899 0.0
N782 N 0.45702 0.7304 0.17939 0.0
N783 N 0.51776 0.78823 0.1294 0.0
loop_
_geom_bond_atom_site_label_1
_geom_bond_atom_site_label_2
_geom_bond_distance
_geom_bond_site_symmetry_2
_ccdc_geom_bond_type
In0 O1 2.294 . S
In0 O2 2.326 . S
In0 O6 2.266 . S
In0 O7 2.326 . S
In0 O8 2.266 . S
In0 O9 2.326 . S
In0 O11 2.294 . S
In0 O12 2.326 . S
O1 In0 2.294 . S
O1 C10 1.240 . S
O2 In0 2.326 . S
O2 C10 1.252 . S
C3 O6 1.252 . S
C3 O7 1.260 . S
C4 O11 1.240 . S
C4 O12 1.252 . S
C5 O8 1.252 . S
C5 O9 1.260 . S
O6 In0 2.266 . S
O6 C3 1.252 . S
O7 In0 2.326 . S
O7 C3 1.260 . S
O8 In0 2.266 . S
O8 C5 1.252 . S
O9 In0 2.326 . S
O9 C5 1.260 . S
C10 O1 1.240 . S
C10 O2 1.252 . S
O11 In0 2.294 . S
O11 C4 1.240 . S
O12 In0 2.326 . S
O12 C4 1.252 . S
In13 O14 2.294 . S
In13 O15 2.326 . S
In13 O19 2.266 . S
In13 O20 2.326 . S
In13 O21 2.266 . S
In13 O22 2.326 . S
In13 O24 2.294 . S
In13 O25 2.326 . S
O14 In13 2.294 . S
O14 C23 1.240 . S
O15 In13 2.326 . S
O15 C23 1.252 . S
C16 O19 1.252 . S
C16 O20 1.260 . S
C17 O24 1.240 . S
C17 O25 1.252 . S
C18 O21 1.252 . S
C18 O22 1.260 . S
O19 In13 2.266 . S
O19 C16 1.252 . S
O20 In13 2.326 . S
O20 C16 1.260 . S
O21 In13 2.266 . S
O21 C18 1.252 . S
O22 In13 2.326 . S
O22 C18 1.260 . S
C23 O14 1.240 . S
C23 O15 1.252 . S
O24 In13 2.294 . S
O24 C17 1.240 . S
O25 In13 2.326 . S
O25 C17 1.252 . S
In26 O27 2.294 . S
In26 O28 2.326 . S
In26 O32 2.266 . S
In26 O33 2.326 . S
In26 O34 2.266 . S
In26 O35 2.326 . S
In26 O37 2.294 . S
In26 O38 2.326 . S
O27 In26 2.294 . S
O27 C36 1.240 . S
O28 In26 2.326 . S
O28 C36 1.252 . S
C29 O32 1.252 . S
C29 O33 1.260 . S
C30 O37 1.240 . S
C30 O38 1.252 . S
C31 O34 1.252 . S
C31 O35 1.260 . S
O32 In26 2.266 . S
O32 C29 1.252 . S
O33 In26 2.326 . S
O33 C29 1.260 . S
O34 In26 2.266 . S
O34 C31 1.252 . S
O35 In26 2.326 . S
O35 C31 1.260 . S
C36 O27 1.240 . S
C36 O28 1.252 . S
O37 In26 2.294 . S
O37 C30 1.240 . S
O38 In26 2.326 . S
O38 C30 1.252 . S
In39 O40 2.294 . S
In39 O41 2.326 . S
In39 O45 2.266 . S
In39 O46 2.326 . S
In39 O47 2.266 . S
In39 O48 2.326 . S
In39 O50 2.294 . S
In39 O51 2.326 . S
O40 In39 2.294 . S
O40 C49 1.240 . S
O41 In39 2.326 . S
O41 C49 1.252 . S
C42 O45 1.252 . S
C42 O46 1.260 . S
C43 O50 1.240 . S
C43 O51 1.252 . S
C44 O47 1.252 . S
C44 O48 1.260 . S
O45 In39 2.266 . S
O45 C42 1.252 . S
O46 In39 2.326 . S
O46 C42 1.260 . S
O47 In39 2.266 . S
O47 C44 1.252 . S
O48 In39 2.326 . S
O48 C44 1.260 . S
C49 O40 1.240 . S
C49 O41 1.252 . S
O50 In39 2.294 . S
O50 C43 1.240 . S
O51 In39 2.326 . S
O51 C43 1.252 . S
In52 O53 2.294 . S
In52 O54 2.326 . S
In52 O58 2.266 . S
In52 O59 2.326 . S
In52 O60 2.266 . S
In52 O61 2.326 . S
In52 O63 2.294 . S
In52 O64 2.326 . S
O53 In52 2.294 . S
O53 C62 1.240 . S
O54 In52 2.326 . S
O54 C62 1.252 . S
C55 O58 1.252 . S
C55 O59 1.260 . S
C56 O63 1.240 . S
C56 O64 1.252 . S
C57 O60 1.252 . S
C57 O61 1.260 . S
O58 In52 2.266 . S
O58 C55 1.252 . S
O59 In52 2.326 . S
O59 C55 1.260 . S
O60 In52 2.266 . S
O60 C57 1.252 . S
O61 In52 2.326 . S
O61 C57 1.260 . S
C62 O53 1.240 . S
C62 O54 1.252 . S
O63 In52 2.294 . S
O63 C56 1.240 . S
O64 In52 2.326 . S
O64 C56 1.252 . S
In65 O66 2.294 . S
In65 O67 2.326 . S
In65 O71 2.266 . S
In65 O72 2.326 . S
In65 O73 2.266 . S
In65 O74 2.326 . S
In65 O76 2.294 . S
In65 O77 2.326 . S
O66 In65 2.294 . S
O66 C75 1.240 . S
O67 In65 2.326 . S
O67 C75 1.252 . S
C68 O71 1.252 . S
C68 O72 1.260 . S
C69 O76 1.240 . S
C69 O77 1.252 . S
C70 O73 1.252 . S
C70 O74 1.260 . S
O71 In65 2.266 . S
O71 C68 1.252 . S
O72 In65 2.326 . S
O72 C68 1.260 . S
O73 In65 2.266 . S
O73 C70 1.252 . S
O74 In65 2.326 . S
O74 C70 1.260 . S
C75 O66 1.240 . S
C75 O67 1.252 . S
O76 In65 2.294 . S
O76 C69 1.240 . S
O77 In65 2.326 . S
O77 C69 1.252 . S
In78 O79 2.294 . S
In78 O80 2.326 . S
In78 O84 2.266 . S
In78 O85 2.326 . S
In78 O86 2.266 . S
In78 O87 2.326 . S
In78 O89 2.294 . S
In78 O90 2.326 . S
O79 In78 2.294 . S
O79 C88 1.240 . S
O80 In78 2.326 . S
O80 C88 1.252 . S
C81 O84 1.252 . S
C81 O85 1.260 . S
C82 O89 1.240 . S
C82 O90 1.252 . S
C83 O86 1.252 . S
C83 O87 1.260 . S
O84 In78 2.266 . S
O84 C81 1.252 . S
O85 In78 2.326 . S
O85 C81 1.260 . S
O86 In78 2.266 . S
O86 C83 1.252 . S
O87 In78 2.326 . S
O87 C83 1.260 . S
C88 O79 1.240 . S
C88 O80 1.252 . S
O89 In78 2.294 . S
O89 C82 1.240 . S
O90 In78 2.326 . S
O90 C82 1.252 . S
In91 O92 2.294 . S
In91 O93 2.326 . S
In91 O97 2.266 . S
In91 O98 2.326 . S
In91 O99 2.266 . S
In91 O100 2.326 . S
In91 O102 2.294 . S
In91 O103 2.326 . S
O92 In91 2.294 . S
O92 C101 1.240 . S
O93 In91 2.326 . S
O93 C101 1.252 . S
C94 O97 1.252 . S
C94 O98 1.260 . S
C95 O102 1.240 . S
C95 O103 1.252 . S
C96 O99 1.252 . S
C96 O100 1.260 . S
O97 In91 2.266 . S
O97 C94 1.252 . S
O98 In91 2.326 . S
O98 C94 1.260 . S
O99 In91 2.266 . S
O99 C96 1.252 . S
O100 In91 2.326 . S
O100 C96 1.260 . S
C101 O92 1.240 . S
C101 O93 1.252 . S
O102 In91 2.294 . S
O102 C95 1.240 . S
O103 In91 2.326 . S
O103 C95 1.252 . S
In104 O105 2.294 . S
In104 O106 2.326 . S
In104 O110 2.266 . S
In104 O111 2.326 . S
In104 O112 2.266 . S
In104 O113 2.326 . S
In104 O115 2.294 . S
In104 O116 2.326 . S
O105 In104 2.294 . S
O105 C114 1.240 . S
O106 In104 2.326 . S
O106 C114 1.252 . S
C107 O110 1.252 . S
C107 O111 1.260 . S
C108 O115 1.240 . S
C108 O116 1.252 . S
C109 O112 1.252 . S
C109 O113 1.260 . S
O110 In104 2.266 . S
O110 C107 1.252 . S
O111 In104 2.326 . S
O111 C107 1.260 . S
O112 In104 2.266 . S
O112 C109 1.252 . S
O113 In104 2.326 . S
O113 C109 1.260 . S
C114 O105 1.240 . S
C114 O106 1.252 . S
O115 In104 2.294 . S
O115 C108 1.240 . S
O116 In104 2.326 . S
O116 C108 1.252 . S
In117 O118 2.294 . S
In117 O119 2.326 . S
In117 O123 2.266 . S
In117 O124 2.326 . S
In117 O125 2.266 . S
In117 O126 2.326 . S
In117 O128 2.294 . S
In117 O129 2.326 . S
O118 In117 2.294 . S
O118 C127 1.240 . S
O119 In117 2.326 . S
O119 C127 1.252 . S
C120 O123 1.252 . S
C120 O124 1.260 . S
C121 O128 1.240 . S
C121 O129 1.252 . S
C122 O125 1.252 . S
C122 O126 1.260 . S
O123 In117 2.266 . S
O123 C120 1.252 . S
O124 In117 2.326 . S
O124 C120 1.260 . S
O125 In117 2.266 . S
O125 C122 1.252 . S
O126 In117 2.326 . S
O126 C122 1.260 . S
C127 O118 1.240 . S
C127 O119 1.252 . S
O128 In117 2.294 . S
O128 C121 1.240 . S
O129 In117 2.326 . S
O129 C121 1.252 . S
In130 O131 2.294 . S
In130 O132 2.326 . S
In130 O136 2.266 . S
In130 O137 2.326 . S
In130 O138 2.266 . S
In130 O139 2.326 . S
In130 O141 2.294 . S
In130 O142 2.326 . S
O131 In130 2.294 . S
O131 C140 1.240 . S
O132 In130 2.326 . S
O132 C140 1.252 . S
C133 O136 1.252 . S
C133 O137 1.260 . S
C134 O141 1.240 . S
C134 O142 1.252 . S
C135 O138 1.252 . S
C135 O139 1.260 . S
O136 In130 2.266 . S
O136 C133 1.252 . S
O137 In130 2.326 . S
O137 C133 1.260 . S
O138 In130 2.266 . S
O138 C135 1.252 . S
O139 In130 2.326 . S
O139 C135 1.260 . S
C140 O131 1.240 . S
C140 O132 1.252 . S
O141 In130 2.294 . S
O141 C134 1.240 . S
O142 In130 2.326 . S
O142 C134 1.252 . S
In143 O144 2.294 . S
In143 O145 2.326 . S
In143 O149 2.266 . S
In143 O150 2.326 . S
In143 O151 2.266 . S
In143 O152 2.326 . S
In143 O154 2.294 . S
In143 O155 2.326 . S
O144 In143 2.294 . S
O144 C153 1.240 . S
O145 In143 2.326 . S
O145 C153 1.252 . S
C146 O149 1.252 . S
C146 O150 1.260 . S
C147 O154 1.240 . S
C147 O155 1.252 . S
C148 O151 1.252 . S
C148 O152 1.260 . S
O149 In143 2.266 . S
O149 C146 1.252 . S
O150 In143 2.326 . S
O150 C146 1.260 . S
O151 In143 2.266 . S
O151 C148 1.252 . S
O152 In143 2.326 . S
O152 C148 1.260 . S
C153 O144 1.240 . S
C153 O145 1.252 . S
O154 In143 2.294 . S
O154 C147 1.240 . S
O155 In143 2.326 . S
O155 C147 1.252 . S
In156 O157 2.294 . S
In156 O158 2.326 . S
In156 O162 2.266 . S
In156 O163 2.326 . S
In156 O164 2.266 . S
In156 O165 2.326 . S
In156 O167 2.294 . S
In156 O168 2.326 . S
O157 In156 2.294 . S
O157 C166 1.240 . S
O158 In156 2.326 . S
O158 C166 1.252 . S
C159 O162 1.252 . S
C159 O163 1.260 . S
C160 O167 1.240 . S
C160 O168 1.252 . S
C161 O164 1.252 . S
C161 O165 1.260 . S
O162 In156 2.266 . S
O162 C159 1.252 . S
O163 In156 2.326 . S
O163 C159 1.260 . S
O164 In156 2.266 . S
O164 C161 1.252 . S
O165 In156 2.326 . S
O165 C161 1.260 . S
C166 O157 1.240 . S
C166 O158 1.252 . S
O167 In156 2.294 . S
O167 C160 1.240 . S
O168 In156 2.326 . S
O168 C160 1.252 . S
In169 O170 2.294 . S
In169 O171 2.326 . S
In169 O175 2.266 . S
In169 O176 2.326 . S
In169 O177 2.266 . S
In169 O178 2.326 . S
In169 O180 2.294 . S
In169 O181 2.326 . S
O170 In169 2.294 . S
O170 C179 1.240 . S
O171 In169 2.326 . S
O171 C179 1.252 . S
C172 O175 1.252 . S
C172 O176 1.260 . S
C173 O180 1.240 . S
C173 O181 1.252 . S
C174 O177 1.252 . S
C174 O178 1.260 . S
O175 In169 2.266 . S
O175 C172 1.252 . S
O176 In169 2.326 . S
O176 C172 1.260 . S
O177 In169 2.266 . S
O177 C174 1.252 . S
O178 In169 2.326 . S
O178 C174 1.260 . S
C179 O170 1.240 . S
C179 O171 1.252 . S
O180 In169 2.294 . S
O180 C173 1.240 . S
O181 In169 2.326 . S
O181 C173 1.252 . S
In182 O183 2.294 . S
In182 O184 2.326 . S
In182 O188 2.266 . S
In182 O189 2.326 . S
In182 O190 2.266 . S
In182 O191 2.326 . S
In182 O193 2.294 . S
In182 O194 2.326 . S
O183 In182 2.294 . S
O183 C192 1.240 . S
O184 In182 2.326 . S
O184 C192 1.252 . S
C185 O188 1.252 . S
C185 O189 1.260 . S
C186 O193 1.240 . S
C186 O194 1.252 . S
C187 O190 1.252 . S
C187 O191 1.260 . S
O188 In182 2.266 . S
O188 C185 1.252 . S
O189 In182 2.326 . S
O189 C185 1.260 . S
O190 In182 2.266 . S
O190 C187 1.252 . S
O191 In182 2.326 . S
O191 C187 1.260 . S
C192 O183 1.240 . S
C192 O184 1.252 . S
O193 In182 2.294 . S
O193 C186 1.240 . S
O194 In182 2.326 . S
O194 C186 1.252 . S
In195 O196 2.294 . S
In195 O197 2.326 . S
In195 O201 2.266 . S
In195 O202 2.326 . S
In195 O203 2.266 . S
In195 O204 2.326 . S
In195 O206 2.294 . S
In195 O207 2.326 . S
O196 In195 2.294 . S
O196 C205 1.240 . S
O197 In195 2.326 . S
O197 C205 1.252 . S
C198 O201 1.252 . S
C198 O202 1.260 . S
C199 O206 1.240 . S
C199 O207 1.252 . S
C200 O203 1.252 . S
C200 O204 1.260 . S
O201 In195 2.266 . S
O201 C198 1.252 . S
O202 In195 2.326 . S
O202 C198 1.260 . S
O203 In195 2.266 . S
O203 C200 1.252 . S
O204 In195 2.326 . S
O204 C200 1.260 . S
C205 O196 1.240 . S
C205 O197 1.252 . S
O206 In195 2.294 . S
O206 C199 1.240 . S
O207 In195 2.326 . S
O207 C199 1.252 . S
H208 C214 0.930 . S
H209 C218 0.930 . S
H210 C223 0.929 . S
H211 C221 0.929 . S
H212 C216 0.929 . S
H213 C222 0.929 . S
C214 H208 0.930 . S
C214 C215 1.367 . S
C214 C222 1.378 . S
C215 C214 1.367 . S
C215 C223 1.433 . S
C216 H212 0.929 . S
C216 C218 1.378 . S
C216 C220 1.350 . S
C217 C220 1.463 . S
C217 C222 1.350 . S
C217 N225 1.427 . S
C218 H209 0.930 . S
C218 C216 1.378 . S
C218 C219 1.367 . S
C219 C218 1.367 . S
C219 C221 1.433 . S
C220 C216 1.350 . S
C220 C217 1.463 . S
C220 N224 1.427 . S
C221 H211 0.929 . S
C221 C219 1.433 . S
C221 N224 1.384 . S
C222 H213 0.929 . S
C222 C214 1.378 . S
C222 C217 1.350 . S
C223 H210 0.929 . S
C223 C215 1.433 . S
C223 N225 1.384 . S
N224 C220 1.427 . S
N224 C221 1.384 . S
N225 C217 1.427 . S
N225 C223 1.384 . S
H226 C232 0.930 . S
H227 C236 0.930 . S
H228 C241 0.929 . S
H229 C239 0.929 . S
H230 C234 0.929 . S
H231 C240 0.929 . S
C232 H226 0.930 . S
C232 C233 1.367 . S
C232 C240 1.378 . S
C233 C232 1.367 . S
C233 C241 1.433 . S
C234 H230 0.929 . S
C234 C236 1.378 . S
C234 C238 1.350 . S
C235 C238 1.463 . S
C235 C240 1.350 . S
C235 N243 1.427 . S
C236 H227 0.930 . S
C236 C234 1.378 . S
C236 C237 1.367 . S
C237 C236 1.367 . S
C237 C239 1.433 . S
C238 C234 1.350 . S
C238 C235 1.463 . S
C238 N242 1.427 . S
C239 H229 0.929 . S
C239 C237 1.433 . S
C239 N242 1.384 . S
C240 H231 0.929 . S
C240 C232 1.378 . S
C240 C235 1.350 . S
C241 H228 0.929 . S
C241 C233 1.433 . S
C241 N243 1.384 . S
N242 C238 1.427 . S
N242 C239 1.384 . S
N243 C235 1.427 . S
N243 C241 1.384 . S
H244 C250 0.930 . S
H245 C254 0.930 . S
H246 C259 0.929 . S
H247 C257 0.929 . S
H248 C252 0.929 . S
H249 C258 0.929 . S
C250 H244 0.930 . S
C250 C251 1.367 . S
C250 C258 1.378 . S
C251 C250 1.367 . S
C251 C259 1.433 . S
C252 H248 0.929 . S
C252 C254 1.378 . S
C252 C256 1.350 . S
C253 C256 1.463 . S
C253 C258 1.350 . S
C253 N261 1.427 . S
C254 H245 0.930 . S
C254 C252 1.378 . S
C254 C255 1.367 . S
C255 C254 1.367 . S
C255 C257 1.433 . S
C256 C252 1.350 . S
C256 C253 1.463 . S
C256 N260 1.427 . S
C257 H247 0.929 . S
C257 C255 1.433 . S
C257 N260 1.384 . S
C258 H249 0.929 . S
C258 C250 1.378 . S
C258 C253 1.350 . S
C259 H246 0.929 . S
C259 C251 1.433 . S
C259 N261 1.384 . S
N260 C256 1.427 . S
N260 C257 1.384 . S
N261 C253 1.427 . S
N261 C259 1.384 . S
H262 C268 0.930 . S
H263 C272 0.930 . S
H264 C277 0.929 . S
H265 C275 0.929 . S
H266 C270 0.929 . S
H267 C276 0.929 . S
C268 H262 0.930 . S
C268 C269 1.367 . S
C268 C276 1.378 . S
C269 C268 1.367 . S
C269 C277 1.433 . S
C270 H266 0.929 . S
C270 C272 1.378 . S
C270 C274 1.350 . S
C271 C274 1.463 . S
C271 C276 1.350 . S
C271 N279 1.427 . S
C272 H263 0.930 . S
C272 C270 1.378 . S
C272 C273 1.367 . S
C273 C272 1.367 . S
C273 C275 1.433 . S
C274 C270 1.350 . S
C274 C271 1.463 . S
C274 N278 1.427 . S
C275 H265 0.929 . S
C275 C273 1.433 . S
C275 N278 1.384 . S
C276 H267 0.929 . S
C276 C268 1.378 . S
C276 C271 1.350 . S
C277 H264 0.929 . S
C277 C269 1.433 . S
C277 N279 1.384 . S
N278 C274 1.427 . S
N278 C275 1.384 . S
N279 C271 1.427 . S
N279 C277 1.384 . S
H280 C286 0.930 . S
H281 C290 0.930 . S
H282 C295 0.929 . S
H283 C293 0.929 . S
H284 C288 0.929 . S
H285 C294 0.929 . S
C286 H280 0.930 . S
C286 C287 1.367 . S
C286 C294 1.378 . S
C287 C286 1.367 . S
C287 C295 1.433 . S
C288 H284 0.929 . S
C288 C290 1.378 . S
C288 C292 1.350 . S
C289 C292 1.463 . S
C289 C294 1.350 . S
C289 N297 1.427 . S
C290 H281 0.930 . S
C290 C288 1.378 . S
C290 C291 1.367 . S
C291 C290 1.367 . S
C291 C293 1.433 . S
C292 C288 1.350 . S
C292 C289 1.463 . S
C292 N296 1.427 . S
C293 H283 0.929 . S
C293 C291 1.433 . S
C293 N296 1.384 . S
C294 H285 0.929 . S
C294 C286 1.378 . S
C294 C289 1.350 . S
C295 H282 0.929 . S
C295 C287 1.433 . S
C295 N297 1.384 . S
N296 C292 1.427 . S
N296 C293 1.384 . S
N297 C289 1.427 . S
N297 C295 1.384 . S
H298 C304 0.930 . S
H299 C308 0.930 . S
H300 C313 0.929 . S
H301 C311 0.929 . S
H302 C306 0.929 . S
H303 C312 0.929 . S
C304 H298 0.930 . S
C304 C305 1.367 . S
C304 C312 1.378 . S
C305 C304 1.367 . S
C305 C313 1.433 . S
C306 H302 0.929 . S
C306 C308 1.378 . S
C306 C310 1.350 . S
C307 C310 1.463 . S
C307 C312 1.350 . S
C307 N315 1.427 . S
C308 H299 0.930 . S
C308 C306 1.378 . S
C308 C309 1.367 . S
C309 C308 1.367 . S
C309 C311 1.433 . S
C310 C306 1.350 . S
C310 C307 1.463 . S
C310 N314 1.427 . S
C311 H301 0.929 . S
C311 C309 1.433 . S
C311 N314 1.384 . S
C312 H303 0.929 . S
C312 C304 1.378 . S
C312 C307 1.350 . S
C313 H300 0.929 . S
C313 C305 1.433 . S
C313 N315 1.384 . S
N314 C310 1.427 . S
N314 C311 1.384 . S
N315 C307 1.427 . S
N315 C313 1.384 . S
H316 C322 0.930 . S
H317 C326 0.930 . S
H318 C331 0.929 . S
H319 C329 0.929 . S
H320 C324 0.929 . S
H321 C330 0.929 . S
C322 H316 0.930 . S
C322 C323 1.367 . S
C322 C330 1.378 . S
C323 C322 1.367 . S
C323 C331 1.433 . S
C324 H320 0.929 . S
C324 C326 1.378 . S
C324 C328 1.350 . S
C325 C328 1.463 . S
C325 C330 1.350 . S
C325 N333 1.427 . S
C326 H317 0.930 . S
C326 C324 1.378 . S
C326 C327 1.367 . S
C327 C326 1.367 . S
C327 C329 1.433 . S
C328 C324 1.350 . S
C328 C325 1.463 . S
C328 N332 1.427 . S
C329 H319 0.929 . S
C329 C327 1.433 . S
C329 N332 1.384 . S
C330 H321 0.929 . S
C330 C322 1.378 . S
C330 C325 1.350 . S
C331 H318 0.929 . S
C331 C323 1.433 . S
C331 N333 1.384 . S
N332 C328 1.427 . S
N332 C329 1.384 . S
N333 C325 1.427 . S
N333 C331 1.384 . S
H334 C340 0.930 . S
H335 C344 0.930 . S
H336 C349 0.929 . S
H337 C347 0.929 . S
H338 C342 0.929 . S
H339 C348 0.929 . S
C340 H334 0.930 . S
C340 C341 1.367 . S
C340 C348 1.378 . S
C341 C340 1.367 . S
C341 C349 1.433 . S
C342 H338 0.929 . S
C342 C344 1.378 . S
C342 C346 1.350 . S
C343 C346 1.463 . S
C343 C348 1.350 . S
C343 N351 1.427 . S
C344 H335 0.930 . S
C344 C342 1.378 . S
C344 C345 1.367 . S
C345 C344 1.367 . S
C345 C347 1.433 . S
C346 C342 1.350 . S
C346 C343 1.463 . S
C346 N350 1.427 . S
C347 H337 0.929 . S
C347 C345 1.433 . S
C347 N350 1.384 . S
C348 H339 0.929 . S
C348 C340 1.378 . S
C348 C343 1.350 . S
C349 H336 0.929 . S
C349 C341 1.433 . S
C349 N351 1.384 . S
N350 C346 1.427 . S
N350 C347 1.384 . S
N351 C343 1.427 . S
N351 C349 1.384 . S
H352 C358 0.930 . S
H353 C362 0.930 . S
H354 C367 0.929 . S
H355 C365 0.929 . S
H356 C360 0.929 . S
H357 C366 0.929 . S
C358 H352 0.930 . S
C358 C359 1.367 . S
C358 C366 1.378 . S
C359 C358 1.367 . S
C359 C367 1.433 . S
C360 H356 0.929 . S
C360 C362 1.378 1_565 S
C360 C364 1.350 . S
C361 C364 1.463 . S
C361 C366 1.350 . S
C361 N369 1.427 . S
C362 H353 0.930 . S
C362 C360 1.378 1_545 S
C362 C363 1.367 . S
C363 C362 1.367 . S
C363 C365 1.433 . S
C364 C360 1.350 . S
C364 C361 1.463 . S
C364 N368 1.427 1_565 S
C365 H355 0.929 . S
C365 C363 1.433 . S
C365 N368 1.384 . S
C366 H357 0.929 . S
C366 C358 1.378 . S
C366 C361 1.350 . S
C367 H354 0.929 . S
C367 C359 1.433 . S
C367 N369 1.384 . S
N368 C364 1.427 1_545 S
N368 C365 1.384 . S
N369 C361 1.427 . S
N369 C367 1.384 . S
H370 C376 0.930 . S
H371 C380 0.930 . S
H372 C385 0.929 . S
H373 C383 0.929 . S
H374 C378 0.929 . S
H375 C384 0.929 . S
C376 H370 0.930 . S
C376 C377 1.367 . S
C376 C384 1.378 . S
C377 C376 1.367 . S
C377 C385 1.433 . S
C378 H374 0.929 . S
C378 C380 1.378 . S
C378 C382 1.350 . S
C379 C382 1.463 . S
C379 C384 1.350 . S
C379 N387 1.427 . S
C380 H371 0.930 . S
C380 C378 1.378 . S
C380 C381 1.367 . S
C381 C380 1.367 . S
C381 C383 1.433 . S
C382 C378 1.350 . S
C382 C379 1.463 . S
C382 N386 1.427 . S
C383 H373 0.929 . S
C383 C381 1.433 . S
C383 N386 1.384 . S
C384 H375 0.929 . S
C384 C376 1.378 . S
C384 C379 1.350 . S
C385 H372 0.929 . S
C385 C377 1.433 . S
C385 N387 1.384 . S
N386 C382 1.427 . S
N386 C383 1.384 . S
N387 C379 1.427 . S
N387 C385 1.384 . S
H388 C394 0.930 . S
H389 C398 0.930 . S
H390 C403 0.929 . S
H391 C401 0.929 . S
H392 C396 0.929 . S
H393 C402 0.929 . S
C394 H388 0.930 . S
C394 C395 1.367 . S
C394 C402 1.378 . S
C395 C394 1.367 . S
C395 C403 1.433 . S
C396 H392 0.929 . S
C396 C398 1.378 . S
C396 C400 1.350 1_554 S
C397 C400 1.463 . S
C397 C402 1.350 . S
C397 N405 1.427 . S
C398 H389 0.930 . S
C398 C396 1.378 . S
C398 C399 1.367 . S
C399 C398 1.367 . S
C399 C401 1.433 . S
C400 C396 1.350 1_556 S
C400 C397 1.463 . S
C400 N404 1.421 1_556 S
C401 H391 0.929 . S
C401 C399 1.433 . S
C401 N404 1.403 . S
C402 H393 0.929 . S
C402 C394 1.378 . S
C402 C397 1.350 . S
C403 H390 0.929 . S
C403 C395 1.433 . S
C403 N405 1.384 . S
N404 C400 1.421 1_554 S
N404 C401 1.403 . S
N405 C397 1.427 . S
N405 C403 1.384 . S
H406 C412 0.930 . S
H407 C416 0.930 . S
H408 C421 0.929 . S
H409 C419 0.929 . S
H410 C414 0.929 . S
H411 C420 0.929 . S
C412 H406 0.930 . S
C412 C413 1.367 . S
C412 C420 1.378 . S
C413 C412 1.367 . S
C413 C421 1.433 . S
C414 H410 0.929 . S
C414 C416 1.378 . S
C414 C418 1.350 . S
C415 C418 1.463 . S
C415 C420 1.350 1_556 S
C415 N423 1.427 . S
C416 H407 0.930 . S
C416 C414 1.378 . S
C416 C417 1.367 . S
C417 C416 1.367 . S
C417 C419 1.433 . S
C418 C414 1.350 . S
C418 C415 1.463 . S
C418 N422 1.427 . S
C419 H409 0.929 . S
C419 C417 1.433 . S
C419 N422 1.384 . S
C420 H411 0.929 . S
C420 C412 1.378 . S
C420 C415 1.350 1_554 S
C421 H408 0.929 . S
C421 C413 1.433 . S
C421 N423 1.384 1_554 S
N422 C418 1.427 . S
N422 C419 1.384 . S
N423 C415 1.427 . S
N423 C421 1.384 1_556 S
H424 C430 0.930 . S
H425 C434 0.930 . S
H426 C439 0.929 . S
H427 C437 0.929 . S
H428 C432 0.929 . S
H429 C438 0.929 . S
C430 H424 0.930 . S
C430 C431 1.367 . S
C430 C438 1.378 . S
C431 C430 1.367 . S
C431 C439 1.433 . S
C432 H428 0.929 . S
C432 C434 1.378 . S
C432 C436 1.350 . S
C433 C436 1.463 . S
C433 C438 1.350 . S
C433 N441 1.427 . S
C434 H425 0.930 . S
C434 C432 1.378 . S
C434 C435 1.367 . S
C435 C434 1.367 . S
C435 C437 1.433 . S
C436 C432 1.350 . S
C436 C433 1.463 . S
C436 N440 1.427 . S
C437 H427 0.929 . S
C437 C435 1.433 . S
C437 N440 1.384 . S
C438 H429 0.929 . S
C438 C430 1.378 . S
C438 C433 1.350 . S
C439 H426 0.929 . S
C439 C431 1.433 . S
C439 N441 1.384 . S
N440 C436 1.427 . S
N440 C437 1.384 . S
N441 C433 1.427 . S
N441 C439 1.384 . S
H442 C448 0.930 . S
H443 C452 0.930 . S
H444 C457 0.929 . S
H445 C455 0.929 . S
H446 C450 0.929 . S
H447 C456 0.929 . S
C448 H442 0.930 . S
C448 C449 1.367 . S
C448 C456 1.378 . S
C449 C448 1.367 . S
C449 C457 1.433 . S
C450 H446 0.929 . S
C450 C452 1.378 . S
C450 C454 1.350 . S
C451 C454 1.463 . S
C451 C456 1.350 . S
C451 N459 1.427 . S
C452 H443 0.930 . S
C452 C450 1.378 . S
C452 C453 1.367 . S
C453 C452 1.367 . S
C453 C455 1.433 . S
C454 C450 1.350 . S
C454 C451 1.463 . S
C454 N458 1.427 . S
C455 H445 0.929 . S
C455 C453 1.433 . S
C455 N458 1.384 . S
C456 H447 0.929 . S
C456 C448 1.378 . S
C456 C451 1.350 . S
C457 H444 0.929 . S
C457 C449 1.433 . S
C457 N459 1.384 . S
N458 C454 1.427 . S
N458 C455 1.384 . S
N459 C451 1.427 . S
N459 C457 1.384 . S
H460 C466 0.930 . S
H461 C470 0.930 . S
H462 C475 0.929 . S
H463 C473 0.929 . S
H464 C468 0.929 . S
H465 C474 0.929 . S
C466 H460 0.930 . S
C466 C467 1.367 . S
C466 C474 1.378 . S
C467 C466 1.367 . S
C467 C475 1.433 . S
C468 H464 0.929 . S
C468 C470 1.378 . S
C468 C472 1.350 . S
C469 C472 1.463 1_655 S
C469 C474 1.350 . S
C469 N477 1.427 . S
C470 H461 0.930 . S
C470 C468 1.378 . S
C470 C471 1.367 . S
C471 C470 1.367 . S
C471 C473 1.433 . S
C472 C468 1.350 . S
C472 C469 1.463 1_455 S
C472 N476 1.427 . S
C473 H463 0.929 . S
C473 C471 1.433 . S
C473 N476 1.384 . S
C474 H465 0.929 . S
C474 C466 1.378 . S
C474 C469 1.350 . S
C475 H462 0.929 . S
C475 C467 1.433 . S
C475 N477 1.384 . S
N476 C472 1.427 . S
N476 C473 1.384 . S
N477 C469 1.427 . S
N477 C475 1.384 . S
H478 C484 0.930 . S
H479 C488 0.930 . S
H480 C493 0.929 . S
H481 C491 0.929 . S
H482 C486 0.929 . S
H483 C492 0.929 . S
C484 H478 0.930 . S
C484 C485 1.367 . S
C484 C492 1.378 . S
C485 C484 1.367 . S
C485 C493 1.433 . S
C486 H482 0.929 . S
C486 C488 1.378 . S
C486 C490 1.350 . S
C487 C490 1.463 1_655 S
C487 C492 1.350 . S
C487 N495 1.427 . S
C488 H479 0.930 . S
C488 C486 1.378 . S
C488 C489 1.367 . S
C489 C488 1.367 . S
C489 C491 1.433 . S
C490 C486 1.350 . S
C490 C487 1.463 1_455 S
C490 N494 1.427 . S
C491 H481 0.929 . S
C491 C489 1.433 . S
C491 N494 1.384 . S
C492 H483 0.929 . S
C492 C484 1.378 . S
C492 C487 1.350 . S
C493 H480 0.929 . S
C493 C485 1.433 . S
C493 N495 1.384 . S
N494 C490 1.427 . S
N494 C491 1.384 . S
N495 C487 1.427 . S
N495 C493 1.384 . S
H496 C502 0.930 . S
H497 C506 0.930 . S
H498 C511 0.929 . S
H499 C509 0.929 . S
H500 C504 0.929 . S
H501 C510 0.929 . S
C502 H496 0.930 . S
C502 C503 1.367 . S
C502 C510 1.378 . S
C503 C502 1.367 . S
C503 C511 1.433 . S
C504 H500 0.929 . S
C504 C506 1.378 . S
C504 C508 1.350 . S
C505 C508 1.463 . S
C505 C510 1.350 . S
C505 N513 1.427 . S
C506 H497 0.930 . S
C506 C504 1.378 . S
C506 C507 1.367 . S
C507 C506 1.367 . S
C507 C509 1.433 . S
C508 C504 1.350 . S
C508 C505 1.463 . S
C508 N512 1.427 . S
C509 H499 0.929 . S
C509 C507 1.433 . S
C509 N512 1.384 . S
C510 H501 0.929 . S
C510 C502 1.378 . S
C510 C505 1.350 . S
C511 H498 0.929 . S
C511 C503 1.433 . S
C511 N513 1.384 . S
N512 C508 1.427 . S
N512 C509 1.384 . S
N513 C505 1.427 . S
N513 C511 1.384 . S
H514 C520 0.930 . S
H515 C524 0.930 . S
H516 C529 0.929 . S
H517 C527 0.929 . S
H518 C522 0.929 . S
H519 C528 0.929 . S
C520 H514 0.930 . S
C520 C521 1.367 . S
C520 C528 1.378 . S
C521 C520 1.367 . S
C521 C529 1.433 . S
C522 H518 0.929 . S
C522 C524 1.378 . S
C522 C526 1.350 . S
C523 C526 1.463 1_545 S
C523 C528 1.350 . S
C523 N531 1.425 1_545 S
C524 H515 0.930 . S
C524 C522 1.378 . S
C524 C525 1.367 . S
C525 C524 1.367 . S
C525 C527 1.433 . S
C526 C522 1.350 . S
C526 C523 1.463 1_565 S
C526 N530 1.427 . S
C527 H517 0.929 . S
C527 C525 1.433 . S
C527 N530 1.384 . S
C528 H519 0.929 . S
C528 C520 1.378 . S
C528 C523 1.350 . S
C529 H516 0.929 . S
C529 C521 1.433 . S
C529 N531 1.377 1_545 S
N530 C526 1.427 . S
N530 C527 1.384 . S
N531 C523 1.425 1_565 S
N531 C529 1.377 1_565 S
H532 C538 0.930 . S
H533 C542 0.930 . S
H534 C547 0.929 . S
H535 C545 0.929 . S
H536 C540 0.929 . S
H537 C546 0.929 . S
C538 H532 0.930 . S
C538 C539 1.367 . S
C538 C546 1.378 . S
C539 C538 1.367 . S
C539 C547 1.433 . S
C540 H536 0.929 . S
C540 C542 1.378 . S
C540 C544 1.350 . S
C541 C544 1.463 . S
C541 C546 1.350 . S
C541 N549 1.427 . S
C542 H533 0.930 . S
C542 C540 1.378 . S
C542 C543 1.367 . S
C543 C542 1.367 . S
C543 C545 1.433 . S
C544 C540 1.350 . S
C544 C541 1.463 . S
C544 N548 1.427 . S
C545 H535 0.929 . S
C545 C543 1.433 . S
C545 N548 1.384 . S
C546 H537 0.929 . S
C546 C538 1.378 . S
C546 C541 1.350 . S
C547 H534 0.929 . S
C547 C539 1.433 . S
C547 N549 1.384 . S
N548 C544 1.427 . S
N548 C545 1.384 . S
N549 C541 1.427 . S
N549 C547 1.384 . S
H550 C556 0.930 . S
H551 C560 0.930 . S
H552 C565 0.929 . S
H553 C563 0.929 . S
H554 C558 0.929 1_554 S
H555 C564 0.929 . S
C556 H550 0.930 . S
C556 C557 1.367 . S
C556 C564 1.378 . S
C557 C556 1.367 . S
C557 C565 1.433 . S
C558 H554 0.929 1_556 S
C558 C560 1.378 . S
C558 C562 1.350 1_556 S
C559 C562 1.463 . S
C559 C564 1.350 . S
C559 N567 1.427 . S
C560 H551 0.930 . S
C560 C558 1.378 . S
C560 C561 1.367 . S
C561 C560 1.367 . S
C561 C563 1.433 . S
C562 C558 1.350 1_554 S
C562 C559 1.463 . S
C562 N566 1.427 1_554 S
C563 H553 0.929 . S
C563 C561 1.433 . S
C563 N566 1.384 . S
C564 H555 0.929 . S
C564 C556 1.378 . S
C564 C559 1.350 . S
C565 H552 0.929 . S
C565 C557 1.433 . S
C565 N567 1.384 . S
N566 C562 1.427 1_556 S
N566 C563 1.384 . S
N567 C559 1.427 . S
N567 C565 1.384 . S
H568 C574 0.930 . S
H569 C578 0.930 . S
H570 C583 0.929 . S
H571 C581 0.929 . S
H572 C576 0.929 . S
H573 C582 0.929 . S
C574 H568 0.930 . S
C574 C575 1.367 . S
C574 C582 1.378 . S
C575 C574 1.367 . S
C575 C583 1.433 . S
C576 H572 0.929 . S
C576 C578 1.378 . S
C576 C580 1.350 . S
C577 C580 1.463 . S
C577 C582 1.350 1_554 S
C577 N585 1.427 1_554 S
C578 H569 0.930 . S
C578 C576 1.378 . S
C578 C579 1.367 . S
C579 C578 1.367 . S
C579 C581 1.433 . S
C580 C576 1.350 . S
C580 C577 1.463 . S
C580 N584 1.427 . S
C581 H571 0.929 . S
C581 C579 1.433 . S
C581 N584 1.384 . S
C582 H573 0.929 . S
C582 C574 1.378 . S
C582 C577 1.350 1_556 S
C583 H570 0.929 . S
C583 C575 1.433 . S
C583 N585 1.384 . S
N584 C580 1.427 . S
N584 C581 1.384 . S
N585 C577 1.427 1_556 S
N585 C583 1.384 . S
H586 C592 0.930 . S
H587 C596 0.930 . S
H588 C601 0.929 . S
H589 C599 0.929 . S
H590 C594 0.929 . S
H591 C600 0.929 . S
C592 H586 0.930 . S
C592 C593 1.367 . S
C592 C600 1.378 . S
C593 C592 1.367 . S
C593 C601 1.433 . S
C594 H590 0.929 . S
C594 C596 1.378 . S
C594 C598 1.350 . S
C595 C598 1.463 . S
C595 C600 1.350 . S
C595 N603 1.427 . S
C596 H587 0.930 . S
C596 C594 1.378 . S
C596 C597 1.367 . S
C597 C596 1.367 . S
C597 C599 1.433 . S
C598 C594 1.350 . S
C598 C595 1.463 . S
C598 N602 1.427 . S
C599 H589 0.929 . S
C599 C597 1.433 . S
C599 N602 1.384 . S
C600 H591 0.929 . S
C600 C592 1.378 . S
C600 C595 1.350 . S
C601 H588 0.929 . S
C601 C593 1.433 . S
C601 N603 1.384 . S
N602 C598 1.427 . S
N602 C599 1.384 . S
N603 C595 1.427 . S
N603 C601 1.384 . S
H604 C610 0.930 . S
H605 C614 0.930 . S
H606 C619 0.929 . S
H607 C617 0.929 . S
H608 C612 0.929 . S
H609 C618 0.929 . S
C610 H604 0.930 . S
C610 C611 1.367 . S
C610 C618 1.378 . S
C611 C610 1.367 . S
C611 C619 1.433 . S
C612 H608 0.929 . S
C612 C614 1.378 . S
C612 C616 1.350 . S
C613 C616 1.463 . S
C613 C618 1.350 . S
C613 N621 1.427 . S
C614 H605 0.930 . S
C614 C612 1.378 . S
C614 C615 1.367 . S
C615 C614 1.367 . S
C615 C617 1.433 . S
C616 C612 1.350 . S
C616 C613 1.463 . S
C616 N620 1.427 . S
C617 H607 0.929 . S
C617 C615 1.433 . S
C617 N620 1.384 . S
C618 H609 0.929 . S
C618 C610 1.378 . S
C618 C613 1.350 . S
C619 H606 0.929 . S
C619 C611 1.433 . S
C619 N621 1.384 . S
N620 C616 1.427 . S
N620 C617 1.384 . S
N621 C613 1.427 . S
N621 C619 1.384 . S
H622 C628 0.930 . S
H623 C632 0.930 . S
H624 C637 0.929 . S
H625 C635 0.929 . S
H626 C630 0.929 . S
H627 C636 0.929 . S
C628 H622 0.930 . S
C628 C629 1.367 . S
C628 C636 1.378 . S
C629 C628 1.367 . S
C629 C637 1.433 . S
C630 H626 0.929 . S
C630 C632 1.378 . S
C630 C634 1.350 . S
C631 C634 1.463 1_455 S
C631 C636 1.350 . S
C631 N639 1.427 . S
C632 H623 0.930 . S
C632 C630 1.378 . S
C632 C633 1.367 . S
C633 C632 1.367 . S
C633 C635 1.433 . S
C634 C630 1.350 . S
C634 C631 1.463 1_655 S
C634 N638 1.427 . S
C635 H625 0.929 . S
C635 C633 1.433 . S
C635 N638 1.384 . S
C636 H627 0.929 . S
C636 C628 1.378 . S
C636 C631 1.350 . S
C637 H624 0.929 . S
C637 C629 1.433 . S
C637 N639 1.384 . S
N638 C634 1.427 . S
N638 C635 1.384 . S
N639 C631 1.427 . S
N639 C637 1.384 . S
H640 C646 0.930 . S
H641 C650 0.930 . S
H642 C655 0.929 . S
H643 C653 0.929 . S
H644 C648 0.929 . S
H645 C654 0.929 . S
C646 H640 0.930 . S
C646 C647 1.367 . S
C646 C654 1.378 . S
C647 C646 1.367 . S
C647 C655 1.433 . S
C648 H644 0.929 . S
C648 C650 1.378 . S
C648 C652 1.350 . S
C649 C652 1.463 1_455 S
C649 C654 1.350 . S
C649 N657 1.427 . S
C650 H641 0.930 . S
C650 C648 1.378 . S
C650 C651 1.367 . S
C651 C650 1.367 . S
C651 C653 1.433 . S
C652 C648 1.350 . S
C652 C649 1.463 1_655 S
C652 N656 1.427 . S
C653 H643 0.929 . S
C653 C651 1.433 . S
C653 N656 1.384 . S
C654 H645 0.929 . S
C654 C646 1.378 . S
C654 C649 1.350 . S
C655 H642 0.929 . S
C655 C647 1.433 . S
C655 N657 1.384 . S
N656 C652 1.427 . S
N656 C653 1.384 . S
N657 C649 1.427 . S
N657 C655 1.384 . S
H658 C664 0.930 . S
H659 C668 0.930 . S
H660 C673 0.929 . S
H661 C671 0.929 . S
H662 C666 0.929 . S
H663 C672 0.929 . S
C664 H658 0.930 . S
C664 C665 1.367 . S
C664 C672 1.378 . S
C665 C664 1.367 . S
C665 C673 1.433 . S
C666 H662 0.929 . S
C666 C668 1.378 . S
C666 C670 1.350 . S
C667 C670 1.463 . S
C667 C672 1.350 . S
C667 N675 1.427 . S
C668 H659 0.930 . S
C668 C666 1.378 . S
C668 C669 1.367 . S
C669 C668 1.367 . S
C669 C671 1.433 . S
C670 C666 1.350 . S
C670 C667 1.463 . S
C670 N674 1.427 . S
C671 H661 0.929 . S
C671 C669 1.433 . S
C671 N674 1.384 . S
C672 H663 0.929 . S
C672 C664 1.378 . S
C672 C667 1.350 . S
C673 H660 0.929 . S
C673 C665 1.433 . S
C673 N675 1.384 . S
N674 C670 1.427 . S
N674 C671 1.384 . S
N675 C667 1.427 . S
N675 C673 1.384 . S
H676 C682 0.930 . S
H677 C686 0.930 . S
H678 C691 0.929 . S
H679 C689 0.929 . S
H680 C684 0.929 . S
H681 C690 0.929 . S
C682 H676 0.930 . S
C682 C683 1.367 . S
C682 C690 1.378 . S
C683 C682 1.367 . S
C683 C691 1.433 . S
C684 H680 0.929 . S
C684 C686 1.378 . S
C684 C688 1.350 . S
C685 C688 1.463 . S
C685 C690 1.350 . S
C685 N693 1.427 . S
C686 H677 0.930 . S
C686 C684 1.378 . S
C686 C687 1.367 . S
C687 C686 1.367 . S
C687 C689 1.433 . S
C688 C684 1.350 . S
C688 C685 1.463 . S
C688 N692 1.427 . S
C689 H679 0.929 . S
C689 C687 1.433 . S
C689 N692 1.384 . S
C690 H681 0.929 . S
C690 C682 1.378 . S
C690 C685 1.350 . S
C691 H678 0.929 . S
C691 C683 1.433 . S
C691 N693 1.384 . S
N692 C688 1.427 . S
N692 C689 1.384 . S
N693 C685 1.427 . S
N693 C691 1.384 . S
H694 C700 0.930 . S
H695 C704 0.930 . S
H696 C709 0.929 . S
H697 C707 0.927 1_545 S
H698 C702 0.929 . S
H699 C708 0.929 . S
C700 H694 0.930 . S
C700 C701 1.367 . S
C700 C708 1.378 . S
C701 C700 1.367 . S
C701 C709 1.433 . S
C702 H698 0.929 . S
C702 C704 1.378 . S
C702 C706 1.350 1_565 S
C703 C706 1.463 . S
C703 C708 1.350 . S
C703 N711 1.427 . S
C704 H695 0.930 . S
C704 C702 1.378 . S
C704 C705 1.367 . S
C705 C704 1.367 . S
C705 C707 1.433 . S
C706 C702 1.350 1_545 S
C706 C703 1.463 . S
C706 N710 1.427 . S
C707 H697 0.927 1_565 S
C707 C705 1.433 . S
C707 N710 1.384 1_565 S
C708 H699 0.929 . S
C708 C700 1.378 . S
C708 C703 1.350 . S
C709 H696 0.929 . S
C709 C701 1.433 . S
C709 N711 1.384 . S
N710 C706 1.427 . S
N710 C707 1.384 1_545 S
N711 C703 1.427 . S
N711 C709 1.384 . S
H712 C718 0.930 . S
H713 C722 0.930 . S
H714 C727 0.929 . S
H715 C725 0.929 . S
H716 C720 0.929 . S
H717 C726 0.929 . S
C718 H712 0.930 . S
C718 C719 1.367 . S
C718 C726 1.378 . S
C719 C718 1.367 . S
C719 C727 1.433 . S
C720 H716 0.929 . S
C720 C722 1.378 . S
C720 C724 1.350 . S
C721 C724 1.463 . S
C721 C726 1.350 . S
C721 N729 1.427 . S
C722 H713 0.930 . S
C722 C720 1.378 . S
C722 C723 1.367 . S
C723 C722 1.367 . S
C723 C725 1.433 . S
C724 C720 1.350 . S
C724 C721 1.463 . S
C724 N728 1.427 . S
C725 H715 0.929 . S
C725 C723 1.433 . S
C725 N728 1.384 . S
C726 H717 0.929 . S
C726 C718 1.378 . S
C726 C721 1.350 . S
C727 H714 0.929 . S
C727 C719 1.433 . S
C727 N729 1.384 . S
N728 C724 1.427 . S
N728 C725 1.384 . S
N729 C721 1.427 . S
N729 C727 1.384 . S
H730 C736 0.930 . S
H731 C740 0.930 . S
H732 C745 0.929 . S
H733 C743 0.929 . S
H734 C738 0.929 . S
H735 C744 0.929 . S
C736 H730 0.930 . S
C736 C737 1.367 . S
C736 C744 1.378 . S
C737 C736 1.367 . S
C737 C745 1.433 . S
C738 H734 0.929 . S
C738 C740 1.378 . S
C738 C742 1.350 . S
C739 C742 1.463 . S
C739 C744 1.350 . S
C739 N747 1.427 . S
C740 H731 0.930 . S
C740 C738 1.378 . S
C740 C741 1.367 . S
C741 C740 1.367 . S
C741 C743 1.433 . S
C742 C738 1.350 . S
C742 C739 1.463 . S
C742 N746 1.427 . S
C743 H733 0.929 . S
C743 C741 1.433 . S
C743 N746 1.384 . S
C744 H735 0.929 . S
C744 C736 1.378 . S
C744 C739 1.350 . S
C745 H732 0.929 . S
C745 C737 1.433 . S
C745 N747 1.384 . S
N746 C742 1.427 . S
N746 C743 1.384 . S
N747 C739 1.427 . S
N747 C745 1.384 . S
H748 C754 0.930 . S
H749 C758 0.930 . S
H750 C763 0.929 . S
H751 C761 0.929 . S
H752 C756 0.929 . S
H753 C762 0.929 . S
C754 H748 0.930 . S
C754 C755 1.367 . S
C754 C762 1.378 . S
C755 C754 1.367 . S
C755 C763 1.433 . S
C756 H752 0.929 . S
C756 C758 1.378 . S
C756 C760 1.350 . S
C757 C760 1.463 1_545 S
C757 C762 1.350 . S
C757 N765 1.427 . S
C758 H749 0.930 . S
C758 C756 1.378 . S
C758 C759 1.367 . S
C759 C758 1.367 . S
C759 C761 1.433 . S
C760 C756 1.350 . S
C760 C757 1.463 1_565 S
C760 N764 1.427 . S
C761 H751 0.929 . S
C761 C759 1.433 . S
C761 N764 1.384 . S
C762 H753 0.929 . S
C762 C754 1.378 . S
C762 C757 1.350 . S
C763 H750 0.929 . S
C763 C755 1.433 . S
C763 N765 1.384 . S
N764 C760 1.427 . S
N764 C761 1.384 . S
N765 C757 1.427 . S
N765 C763 1.384 . S
H766 C772 0.930 . S
H767 C776 0.930 . S
H768 C781 0.929 . S
H769 C779 0.929 . S
H770 C774 0.929 . S
H771 C780 0.929 . S
C772 H766 0.930 . S
C772 C773 1.367 . S
C772 C780 1.378 . S
C773 C772 1.367 . S
C773 C781 1.433 . S
C774 H770 0.929 . S
C774 C776 1.378 . S
C774 C778 1.350 . S
C775 C778 1.463 . S
C775 C780 1.350 . S
C775 N783 1.427 . S
C776 H767 0.930 . S
C776 C774 1.378 . S
C776 C777 1.367 . S
C777 C776 1.367 . S
C777 C779 1.433 . S
C778 C774 1.350 . S
C778 C775 1.463 . S
C778 N782 1.427 . S
C779 H769 0.929 . S
C779 C777 1.433 . S
C779 N782 1.384 . S
C780 H771 0.929 . S
C780 C772 1.378 . S
C780 C775 1.350 . S
C781 H768 0.929 . S
C781 C773 1.433 . S
C781 N783 1.384 . S
N782 C778 1.427 . S
N782 C779 1.384 . S
N783 C775 1.427 . S
N783 C781 1.384 . S
C215 C3 1.220 . S
C219 C172 1.206 . S
C233 C18 1.221 . S
C237 C122 1.213 . S
C251 C185 0.847 . S
C255 C29 0.844 . S
C269 C42 0.849 . S
C273 C200 0.850 . S
C287 C57 1.223 . S
C291 C81 1.216 . S
C305 C135 1.222 . S
C309 C70 1.215 . S
C323 C146 0.830 . S
C327 C94 0.827 . S
C341 C109 0.831 . S
C345 C159 0.837 . S
C359 C30 1.870 . S
C363 C5 1.855 . S
C377 C16 1.855 . S
C381 C43 1.870 . S
C395 C161 1.646 . S
C399 C10 1.617 . S
C413 C17 1.611 . S
C417 C148 1.641 . S
C431 C56 1.620 . S
C435 C31 1.647 . S
C449 C134 1.614 . S
C453 C44 1.644 . S
C467 C23 2.107 . S
C471 C4 2.103 . S
C485 C49 1.037 . S
C489 C36 1.046 . S
C503 C140 2.102 . S
C507 C62 2.106 . S
C521 C96 1.623 . S
C525 C75 1.595 . S
C539 C82 1.600 . S
C543 C107 1.623 . S
C557 C205 1.728 . S
C561 C69 1.714 . S
C575 C88 1.712 . S
C579 C186 1.727 . S
C593 C121 1.714 . S
C597 C95 1.729 . S
C611 C114 1.731 . S
C615 C179 1.719 . S
C629 C83 2.116 . S
C633 C68 2.114 . S
C647 C108 1.131 . S
C651 C101 1.130 . S
C665 C120 2.117 . S
C669 C174 2.115 . S
C683 C133 1.855 . S
C687 C147 1.870 . S
C701 C160 1.869 . S
C705 C55 1.849 . S
C719 C166 1.048 . S
C723 C153 1.042 . S
C737 C187 1.623 . S
C741 C173 1.598 . S
C755 C127 1.596 . S
C759 C198 1.623 . S
C773 C199 1.136 . S
C777 C192 1.144 . S
