# Generated by pormake.
# Topology zni, (4)-cn, num edge types: 1
# Building blocks:
#     Node 0, Type 0, BuildingBlock: GALJAG_clean_sbu_0, # of connection points: 4
#     Node 1, Type 0, BuildingBlock: GALJAG_clean_sbu_0, # of connection points: 4
#     Node 2, Type 0, BuildingBlock: GALJAG_clean_sbu_0, # of connection points: 4
#     Node 3, Type 0, BuildingBlock: GALJAG_clean_sbu_0, # of connection points: 4
#     Node 4, Type 0, BuildingBlock: GALJAG_clean_sbu_0, # of connection points: 4
#     Node 5, Type 0, BuildingBlock: GALJAG_clean_sbu_0, # of connection points: 4
#     Node 6, Type 0, BuildingBlock: GALJAG_clean_sbu_0, # of connection points: 4
#     Node 7, Type 0, BuildingBlock: GALJAG_clean_sbu_0, # of connection points: 4
#     Node 8, Type 0, BuildingBlock: GALJAG_clean_sbu_0, # of connection points: 4
#     Node 9, Type 0, BuildingBlock: GALJAG_clean_sbu_0, # of connection points: 4
#     Node 10, Type 0, BuildingBlock: GALJAG_clean_sbu_0, # of connection points: 4
#     Node 11, Type 0, BuildingBlock: GALJAG_clean_sbu_0, # of connection points: 4
#     Node 12, Type 0, BuildingBlock: GALJAG_clean_sbu_0, # of connection points: 4
#     Node 13, Type 0, BuildingBlock: GALJAG_clean_sbu_0, # of connection points: 4
#     Node 14, Type 0, BuildingBlock: GALJAG_clean_sbu_0, # of connection points: 4
#     Node 15, Type 0, BuildingBlock: GALJAG_clean_sbu_0, # of connection points: 4
#     Node 16, Type 0, BuildingBlock: GALJAG_clean_sbu_0, # of connection points: 4
#     Node 17, Type 0, BuildingBlock: GALJAG_clean_sbu_0, # of connection points: 4
#     Node 18, Type 0, BuildingBlock: GALJAG_clean_sbu_0, # of connection points: 4
#     Node 19, Type 0, BuildingBlock: GALJAG_clean_sbu_0, # of connection points: 4
#     Node 20, Type 0, BuildingBlock: GALJAG_clean_sbu_0, # of connection points: 4
#     Node 21, Type 0, BuildingBlock: GALJAG_clean_sbu_0, # of connection points: 4
#     Node 22, Type 0, BuildingBlock: GALJAG_clean_sbu_0, # of connection points: 4
#     Node 23, Type 0, BuildingBlock: GALJAG_clean_sbu_0, # of connection points: 4
#     Node 24, Type 0, BuildingBlock: GALJAG_clean_sbu_0, # of connection points: 4
#     Node 25, Type 0, BuildingBlock: GALJAG_clean_sbu_0, # of connection points: 4
#     Node 26, Type 0, BuildingBlock: GALJAG_clean_sbu_0, # of connection points: 4
#     Node 27, Type 0, BuildingBlock: GALJAG_clean_sbu_0, # of connection points: 4
#     Node 28, Type 0, BuildingBlock: GALJAG_clean_sbu_0, # of connection points: 4
#     Node 29, Type 0, BuildingBlock: GALJAG_clean_sbu_0, # of connection points: 4
#     Node 30, Type 0, BuildingBlock: GALJAG_clean_sbu_0, # of connection points: 4
#     Node 31, Type 0, BuildingBlock: GALJAG_clean_sbu_0, # of connection points: 4
#     Edge 32, Type (0, 0), BuildingBlock: ZUJKAS_clean_linker_0, # of connection points: 2
#     Edge 33, Type (0, 0), BuildingBlock: ZUJKAS_clean_linker_0, # of connection points: 2
#     Edge 34, Type (0, 0), BuildingBlock: ZUJKAS_clean_linker_0, # of connection points: 2
#     Edge 35, Type (0, 0), BuildingBlock: ZUJKAS_clean_linker_0, # of connection points: 2
#     Edge 36, Type (0, 0), BuildingBlock: ZUJKAS_clean_linker_0, # of connection points: 2
#     Edge 37, Type (0, 0), BuildingBlock: ZUJKAS_clean_linker_0, # of connection points: 2
#     Edge 38, Type (0, 0), BuildingBlock: ZUJKAS_clean_linker_0, # of connection points: 2
#     Edge 39, Type (0, 0), BuildingBlock: ZUJKAS_clean_linker_0, # of connection points: 2
#     Edge 40, Type (0, 0), BuildingBlock: ZUJKAS_clean_linker_0, # of connection points: 2
#     Edge 41, Type (0, 0), BuildingBlock: ZUJKAS_clean_linker_0, # of connection points: 2
#     Edge 42, Type (0, 0), BuildingBlock: ZUJKAS_clean_linker_0, # of connection points: 2
#     Edge 43, Type (0, 0), BuildingBlock: ZUJKAS_clean_linker_0, # of connection points: 2
#     Edge 44, Type (0, 0), BuildingBlock: ZUJKAS_clean_linker_0, # of connection points: 2
#     Edge 45, Type (0, 0), BuildingBlock: ZUJKAS_clean_linker_0, # of connection points: 2
#     Edge 46, Type (0, 0), BuildingBlock: ZUJKAS_clean_linker_0, # of connection points: 2
#     Edge 47, Type (0, 0), BuildingBlock: ZUJKAS_clean_linker_0, # of connection points: 2
#     Edge 48, Type (0, 0), BuildingBlock: ZUJKAS_clean_linker_0, # of connection points: 2
#     Edge 49, Type (0, 0), BuildingBlock: ZUJKAS_clean_linker_0, # of connection points: 2
#     Edge 50, Type (0, 0), BuildingBlock: ZUJKAS_clean_linker_0, # of connection points: 2
#     Edge 51, Type (0, 0), BuildingBlock: ZUJKAS_clean_linker_0, # of connection points: 2
#     Edge 52, Type (0, 0), BuildingBlock: ZUJKAS_clean_linker_0, # of connection points: 2
#     Edge 53, Type (0, 0), BuildingBlock: ZUJKAS_clean_linker_0, # of connection points: 2
#     Edge 54, Type (0, 0), BuildingBlock: ZUJKAS_clean_linker_0, # of connection points: 2
#     Edge 55, Type (0, 0), BuildingBlock: ZUJKAS_clean_linker_0, # of connection points: 2
#     Edge 56, Type (0, 0), BuildingBlock: ZUJKAS_clean_linker_0, # of connection points: 2
#     Edge 57, Type (0, 0), BuildingBlock: ZUJKAS_clean_linker_0, # of connection points: 2
#     Edge 58, Type (0, 0), BuildingBlock: ZUJKAS_clean_linker_0, # of connection points: 2
#     Edge 59, Type (0, 0), BuildingBlock: ZUJKAS_clean_linker_0, # of connection points: 2
#     Edge 60, Type (0, 0), BuildingBlock: ZUJKAS_clean_linker_0, # of connection points: 2
#     Edge 61, Type (0, 0), BuildingBlock: ZUJKAS_clean_linker_0, # of connection points: 2
#     Edge 62, Type (0, 0), BuildingBlock: ZUJKAS_clean_linker_0, # of connection points: 2
#     Edge 63, Type (0, 0), BuildingBlock: ZUJKAS_clean_linker_0, # of connection points: 2
#     Edge 64, Type (0, 0), BuildingBlock: ZUJKAS_clean_linker_0, # of connection points: 2
#     Edge 65, Type (0, 0), BuildingBlock: ZUJKAS_clean_linker_0, # of connection points: 2
#     Edge 66, Type (0, 0), BuildingBlock: ZUJKAS_clean_linker_0, # of connection points: 2
#     Edge 67, Type (0, 0), BuildingBlock: ZUJKAS_clean_linker_0, # of connection points: 2
#     Edge 68, Type (0, 0), BuildingBlock: ZUJKAS_clean_linker_0, # of connection points: 2
#     Edge 69, Type (0, 0), BuildingBlock: ZUJKAS_clean_linker_0, # of connection points: 2
#     Edge 70, Type (0, 0), BuildingBlock: ZUJKAS_clean_linker_0, # of connection points: 2
#     Edge 71, Type (0, 0), BuildingBlock: ZUJKAS_clean_linker_0, # of connection points: 2
#     Edge 72, Type (0, 0), BuildingBlock: ZUJKAS_clean_linker_0, # of connection points: 2
#     Edge 73, Type (0, 0), BuildingBlock: ZUJKAS_clean_linker_0, # of connection points: 2
#     Edge 74, Type (0, 0), BuildingBlock: ZUJKAS_clean_linker_0, # of connection points: 2
#     Edge 75, Type (0, 0), BuildingBlock: ZUJKAS_clean_linker_0, # of connection points: 2
#     Edge 76, Type (0, 0), BuildingBlock: ZUJKAS_clean_linker_0, # of connection points: 2
#     Edge 77, Type (0, 0), BuildingBlock: ZUJKAS_clean_linker_0, # of connection points: 2
#     Edge 78, Type (0, 0), BuildingBlock: ZUJKAS_clean_linker_0, # of connection points: 2
#     Edge 79, Type (0, 0), BuildingBlock: ZUJKAS_clean_linker_0, # of connection points: 2
#     Edge 80, Type (0, 0), BuildingBlock: ZUJKAS_clean_linker_0, # of connection points: 2
#     Edge 81, Type (0, 0), BuildingBlock: ZUJKAS_clean_linker_0, # of connection points: 2
#     Edge 82, Type (0, 0), BuildingBlock: ZUJKAS_clean_linker_0, # of connection points: 2
#     Edge 83, Type (0, 0), BuildingBlock: ZUJKAS_clean_linker_0, # of connection points: 2
#     Edge 84, Type (0, 0), BuildingBlock: ZUJKAS_clean_linker_0, # of connection points: 2
#     Edge 85, Type (0, 0), BuildingBlock: ZUJKAS_clean_linker_0, # of connection points: 2
#     Edge 86, Type (0, 0), BuildingBlock: ZUJKAS_clean_linker_0, # of connection points: 2
#     Edge 87, Type (0, 0), BuildingBlock: ZUJKAS_clean_linker_0, # of connection points: 2
#     Edge 88, Type (0, 0), BuildingBlock: ZUJKAS_clean_linker_0, # of connection points: 2
#     Edge 89, Type (0, 0), BuildingBlock: ZUJKAS_clean_linker_0, # of connection points: 2
#     Edge 90, Type (0, 0), BuildingBlock: ZUJKAS_clean_linker_0, # of connection points: 2
#     Edge 91, Type (0, 0), BuildingBlock: ZUJKAS_clean_linker_0, # of connection points: 2
#     Edge 92, Type (0, 0), BuildingBlock: ZUJKAS_clean_linker_0, # of connection points: 2
#     Edge 93, Type (0, 0), BuildingBlock: ZUJKAS_clean_linker_0, # of connection points: 2
#     Edge 94, Type (0, 0), BuildingBlock: ZUJKAS_clean_linker_0, # of connection points: 2
#     Edge 95, Type (0, 0), BuildingBlock: ZUJKAS_clean_linker_0, # of connection points: 2
# Relax obj value: 0.235
# Max RMSD: 0.125
# Mean RMSD: 0.125
data_MOF--net-zni--node1-GALJAG_clean_sbu_0--edge1-ZUJKAS_clean_linker_0
_symmetry_space_group_name_H-M    P1
_symmetry_Int_Tables_number       1
_symmetry_cell_setting            triclinic
loop_
_symmetry_equiv_pos_as_xyz
'x, y, z'
_cell_length_a     75.985927
_cell_length_b     75.980996
_cell_length_c     39.452828
_cell_angle_alpha  89.987208
_cell_angle_beta   89.999485
_cell_angle_gamma 90.004991
loop_
_atom_site_label
_atom_site_type_symbol
_atom_site_fract_x
_atom_site_fract_y
_atom_site_fract_z
_atom_type_partial_charge
In0 In 0.10778 0.10296 0.38469 0.0
O1 O 0.11983 0.09044 0.33716 0.0
O2 O 0.11233 0.0736 0.37748 0.0
C3 C 0.11641 0.13654 0.36899 0.0
C4 C 0.07248 0.10273 0.37833 0.0
C5 C 0.12034 0.09963 0.44837 0.0
O6 O 0.1276 0.12428 0.36912 0.0
O7 O 0.10098 0.1318 0.37619 0.0
O8 O 0.105 0.09506 0.44007 0.0
O9 O 0.12951 0.10566 0.42441 0.0
C10 C 0.11875 0.0749 0.34819 0.0
O11 O 0.08018 0.10387 0.4066 0.0
O12 O 0.08263 0.10164 0.35302 0.0
In13 In 0.14499 0.85609 0.64737 0.0
O14 O 0.15768 0.86282 0.59643 0.0
O15 O 0.17402 0.86253 0.64003 0.0
C16 C 0.11124 0.86354 0.63154 0.0
C17 C 0.1456 0.82054 0.64815 0.0
C18 C 0.14872 0.87484 0.70485 0.0
O19 O 0.12401 0.87192 0.61895 0.0
O20 O 0.11553 0.85143 0.65175 0.0
O21 O 0.15391 0.85913 0.70207 0.0
O22 O 0.14186 0.8812 0.67844 0.0
C23 C 0.17292 0.86479 0.60848 0.0
O24 O 0.14576 0.82964 0.67487 0.0
O25 O 0.14533 0.82936 0.62107 0.0
In26 In 0.39293 0.90068 0.89683 0.0
O27 O 0.42015 0.89957 0.9207 0.0
O28 O 0.41847 0.89639 0.86729 0.0
C29 C 0.37625 0.91029 0.95436 0.0
C30 C 0.38426 0.92741 0.85498 0.0
C31 C 0.38409 0.86664 0.88784 0.0
O32 O 0.39176 0.91498 0.94754 0.0
O33 O 0.36902 0.90097 0.93192 0.0
O34 O 0.38044 0.87834 0.86619 0.0
O35 O 0.3922 0.87215 0.91364 0.0
C36 C 0.42821 0.89707 0.89318 0.0
O37 O 0.37687 0.91257 0.85321 0.0
O38 O 0.3959 0.92863 0.87757 0.0
In39 In 0.35145 0.14406 0.14609 0.0
O40 O 0.33821 0.13045 0.10116 0.0
O41 O 0.32213 0.14514 0.1349 0.0
C42 C 0.3849 0.13327 0.13616 0.0
C43 C 0.3541 0.17929 0.13767 0.0
C44 C 0.34449 0.12802 0.20543 0.0
O45 O 0.37288 0.13054 0.1147 0.0
O46 O 0.38 0.14136 0.16241 0.0
O47 O 0.34671 0.14441 0.20277 0.0
O48 O 0.34567 0.11959 0.17795 0.0
C49 C 0.32295 0.13569 0.1087 0.0
O50 O 0.3483 0.17237 0.16446 0.0
O51 O 0.35842 0.16846 0.11493 0.0
In52 In 0.10578 0.89425 0.10339 0.0
O53 O 0.07877 0.89297 0.07827 0.0
O54 O 0.0806 0.88601 0.13037 0.0
C55 C 0.11893 0.90625 0.04428 0.0
C56 C 0.11399 0.92076 0.14629 0.0
C57 C 0.11702 0.86096 0.11344 0.0
O58 O 0.10381 0.91042 0.05478 0.0
O59 O 0.12749 0.89633 0.06389 0.0
O60 O 0.11723 0.87231 0.13681 0.0
O61 O 0.1113 0.86647 0.08541 0.0
C62 C 0.07088 0.88792 0.10469 0.0
O63 O 0.12547 0.91031 0.13507 0.0
O64 O 0.09858 0.91765 0.13629 0.0
In65 In 0.34858 0.8562 0.34768 0.0
O66 O 0.33786 0.86618 0.39838 0.0
O67 O 0.31951 0.8595 0.35998 0.0
C68 C 0.38288 0.86461 0.35451 0.0
C69 C 0.34923 0.82068 0.35178 0.0
C70 C 0.34197 0.8744 0.29053 0.0
O71 O 0.37127 0.87008 0.37485 0.0
O72 O 0.37717 0.85493 0.33099 0.0
O73 O 0.33995 0.85796 0.29271 0.0
O74 O 0.34707 0.88178 0.31746 0.0
C75 C 0.32193 0.86499 0.38973 0.0
O76 O 0.34353 0.82876 0.32613 0.0
O77 O 0.35443 0.8305 0.3755 0.0
In78 In 0.39514 0.10179 0.59588 0.0
O79 O 0.42334 0.09818 0.57769 0.0
O80 O 0.41946 0.11124 0.62471 0.0
C81 C 0.38185 0.09266 0.53503 0.0
C82 C 0.38688 0.07388 0.63512 0.0
C83 C 0.3831 0.13484 0.60634 0.0
O84 O 0.39741 0.09803 0.53904 0.0
O85 O 0.37287 0.09179 0.56188 0.0
O86 O 0.38402 0.12362 0.62985 0.0
O87 O 0.38809 0.12933 0.57781 0.0
C88 C 0.43026 0.10576 0.6028 0.0
O89 O 0.377 0.08716 0.6327 0.0
O90 O 0.40086 0.07479 0.61805 0.0
In91 In 0.143 0.14195 0.86212 0.0
O92 O 0.15519 0.13674 0.91426 0.0
O93 O 0.17059 0.13107 0.8709 0.0
C94 C 0.11136 0.1301 0.88394 0.0
C95 C 0.1409 0.1773 0.85715 0.0
C96 C 0.14849 0.13121 0.79789 0.0
O97 O 0.12169 0.1208 0.86655 0.0
O98 O 0.11717 0.14518 0.8911 0.0
O99 O 0.15249 0.14643 0.80808 0.0
O100 O 0.14189 0.12132 0.82021 0.0
C101 C 0.16968 0.13135 0.90273 0.0
O102 O 0.13049 0.16708 0.84188 0.0
O103 O 0.15245 0.16969 0.87491 0.0
In104 In 0.8915 0.89972 0.59387 0.0
O105 O 0.91863 0.89862 0.5692 0.0
O106 O 0.91757 0.89869 0.62288 0.0
C107 C 0.87425 0.9084 0.53666 0.0
C108 C 0.88183 0.92602 0.6358 0.0
C109 C 0.8824 0.86573 0.60295 0.0
O110 O 0.88952 0.91391 0.54334 0.0
O111 O 0.86755 0.89861 0.55903 0.0
O112 O 0.87656 0.8779 0.62165 0.0
O113 O 0.89276 0.87074 0.57992 0.0
C114 C 0.92705 0.89822 0.59668 0.0
O115 O 0.8812 0.91007 0.64462 0.0
O116 O 0.88728 0.9286 0.60607 0.0
In117 In 0.85242 0.14158 0.35002 0.0
O118 O 0.84993 0.16962 0.33027 0.0
O119 O 0.8606 0.16606 0.37962 0.0
C120 C 0.84187 0.12631 0.29193 0.0
C121 C 0.82551 0.13302 0.3915 0.0
C122 C 0.88641 0.13162 0.3553 0.0
O123 O 0.84262 0.14278 0.29568 0.0
O124 O 0.84628 0.1175 0.31768 0.0
O125 O 0.87598 0.13113 0.38022 0.0
O126 O 0.87966 0.13707 0.32807 0.0
C127 C 0.85621 0.1767 0.35654 0.0
O128 O 0.83943 0.124 0.39018 0.0
O129 O 0.82536 0.14628 0.37235 0.0
In130 In 0.60492 0.09957 0.09572 0.0
O131 O 0.61787 0.08755 0.14272 0.0
O132 O 0.60419 0.07056 0.10906 0.0
C133 C 0.6123 0.13393 0.10486 0.0
C134 C 0.56951 0.10111 0.09978 0.0
C135 C 0.62403 0.09242 0.03992 0.0
O136 O 0.61677 0.12231 0.1261 0.0
O137 O 0.60417 0.12818 0.07929 0.0
O138 O 0.60769 0.08963 0.04163 0.0
O139 O 0.6308 0.09861 0.06656 0.0
C140 C 0.61298 0.07207 0.13597 0.0
O141 O 0.57749 0.09784 0.07245 0.0
O142 O 0.57938 0.1035 0.12507 0.0
In143 In 0.64735 0.85488 0.85534 0.0
O144 O 0.64835 0.82794 0.8298 0.0
O145 O 0.65061 0.82876 0.88335 0.0
C146 C 0.65311 0.86938 0.79415 0.0
C147 C 0.67253 0.86767 0.89696 0.0
C148 C 0.61327 0.86238 0.86837 0.0
O149 O 0.66185 0.85641 0.80495 0.0
O150 O 0.64161 0.87515 0.81438 0.0
O151 O 0.62565 0.87246 0.87728 0.0
O152 O 0.61813 0.84859 0.85332 0.0
C153 C 0.65007 0.8194 0.85699 0.0
O154 O 0.65832 0.86128 0.90794 0.0
O155 O 0.67387 0.86787 0.86516 0.0
In156 In 0.89079 0.0996 0.89851 0.0
O157 O 0.88359 0.0888 0.84604 0.0
O158 O 0.88234 0.07149 0.8882 0.0
C159 C 0.88397 0.13393 0.88709 0.0
C160 C 0.92637 0.09839 0.89973 0.0
C161 C 0.87223 0.09298 0.9551 0.0
O162 O 0.8766 0.12184 0.87027 0.0
O163 O 0.89464 0.12865 0.90934 0.0
O164 O 0.8869 0.08588 0.94903 0.0
O165 O 0.8668 0.1034 0.93246 0.0
C166 C 0.88043 0.07346 0.85674 0.0
O167 O 0.91715 0.0989 0.92625 0.0
O168 O 0.91766 0.09826 0.87254 0.0
In169 In 0.65034 0.14305 0.64617 0.0
O170 O 0.65063 0.1707 0.66849 0.0
O171 O 0.64558 0.16808 0.61571 0.0
C172 C 0.65939 0.12697 0.70456 0.0
C173 C 0.67715 0.13339 0.60538 0.0
C174 C 0.61607 0.13545 0.63668 0.0
O175 O 0.66449 0.14226 0.69708 0.0
O176 O 0.64987 0.1197 0.68246 0.0
O177 O 0.62764 0.13191 0.61466 0.0
O178 O 0.62187 0.14269 0.6632 0.0
C179 C 0.64732 0.17828 0.64075 0.0
O180 O 0.66285 0.12496 0.60617 0.0
O181 O 0.67773 0.14653 0.62477 0.0
In182 In 0.60388 0.89523 0.39236 0.0
O183 O 0.57598 0.89774 0.41302 0.0
O184 O 0.57899 0.8924 0.36048 0.0
C185 C 0.62035 0.90027 0.45197 0.0
C186 C 0.61343 0.92326 0.35459 0.0
C187 C 0.61221 0.86117 0.38189 0.0
O188 O 0.60419 0.90338 0.44778 0.0
O189 O 0.62827 0.89476 0.42596 0.0
O190 O 0.62036 0.87357 0.36746 0.0
O191 O 0.59992 0.86599 0.40124 0.0
C192 C 0.56858 0.89489 0.38493 0.0
O193 O 0.6144 0.90771 0.34354 0.0
O194 O 0.60777 0.92456 0.38447 0.0
In195 In 0.85056 0.85228 0.14613 0.0
O196 O 0.8385 0.86683 0.101 0.0
O197 O 0.82165 0.85125 0.13172 0.0
C198 C 0.88488 0.85965 0.13574 0.0
C199 C 0.85234 0.81681 0.1436 0.0
C200 C 0.84299 0.87102 0.20217 0.0
O201 O 0.87337 0.86189 0.11304 0.0
O202 O 0.87902 0.85384 0.16347 0.0
O203 O 0.84055 0.85463 0.20016 0.0
O204 O 0.84914 0.87804 0.17571 0.0
C205 C 0.8231 0.86134 0.10652 0.0
O206 O 0.84938 0.82512 0.17066 0.0
O207 O 0.85419 0.82638 0.11771 0.0
In208 In 0.60705 0.60114 0.8938 0.0
O209 O 0.57905 0.59381 0.90921 0.0
O210 O 0.58242 0.60843 0.86382 0.0
C211 C 0.62046 0.59427 0.95549 0.0
C212 C 0.61607 0.5745 0.85221 0.0
C213 C 0.6184 0.63465 0.88689 0.0
O214 O 0.6045 0.59805 0.95065 0.0
O215 O 0.62982 0.59399 0.92907 0.0
O216 O 0.62603 0.62191 0.87255 0.0
O217 O 0.60525 0.63042 0.90455 0.0
C218 C 0.57185 0.60126 0.88425 0.0
O219 O 0.6161 0.59035 0.84263 0.0
O220 O 0.61163 0.57219 0.88265 0.0
In221 In 0.6492 0.35411 0.14858 0.0
O222 O 0.66319 0.37211 0.11058 0.0
O223 O 0.67646 0.34909 0.12723 0.0
C224 C 0.61583 0.36562 0.13998 0.0
C225 C 0.64538 0.31904 0.14061 0.0
C226 C 0.65865 0.36748 0.20911 0.0
O227 O 0.62673 0.36499 0.11587 0.0
O228 O 0.62184 0.36066 0.16816 0.0
O229 O 0.65397 0.35169 0.20508 0.0
O230 O 0.65867 0.37665 0.18242 0.0
C231 C 0.67687 0.36273 0.10909 0.0
O232 O 0.65265 0.32579 0.16623 0.0
O233 O 0.64012 0.32999 0.11878 0.0
In234 In 0.89286 0.39684 0.39903 0.0
O235 O 0.92027 0.39796 0.42282 0.0
O236 O 0.91864 0.39564 0.36937 0.0
C237 C 0.87599 0.40499 0.45694 0.0
C238 C 0.8823 0.42224 0.35568 0.0
C239 C 0.88484 0.36251 0.39129 0.0
O240 O 0.89097 0.41106 0.44958 0.0
O241 O 0.8694 0.39492 0.43489 0.0
O242 O 0.87743 0.37445 0.37419 0.0
O243 O 0.89615 0.36792 0.41223 0.0
C244 C 0.92841 0.39663 0.39511 0.0
O245 O 0.8834 0.4063 0.34705 0.0
O246 O 0.88638 0.42528 0.38606 0.0
In247 In 0.85248 0.64519 0.64073 0.0
O248 O 0.85018 0.67284 0.66251 0.0
O249 O 0.85397 0.67038 0.60933 0.0
C250 C 0.84557 0.63096 0.70184 0.0
C251 C 0.82656 0.63422 0.59885 0.0
C252 C 0.88675 0.63673 0.63288 0.0
O253 O 0.84044 0.64614 0.6935 0.0
O254 O 0.85415 0.6229 0.6793 0.0
O255 O 0.87449 0.62649 0.62405 0.0
O256 O 0.8817 0.65115 0.64533 0.0
C257 C 0.852 0.68053 0.63438 0.0
O258 O 0.84232 0.63557 0.58922 0.0
O259 O 0.82401 0.63819 0.62941 0.0
In260 In 0.6045 0.39688 0.59654 0.0
O261 O 0.57651 0.40195 0.57778 0.0
O262 O 0.57957 0.38992 0.62593 0.0
C263 C 0.62103 0.40338 0.53764 0.0
C264 C 0.61271 0.42484 0.63545 0.0
C265 C 0.615 0.36324 0.60497 0.0
O266 O 0.60457 0.4015 0.53989 0.0
O267 O 0.62928 0.40204 0.56532 0.0
O268 O 0.61993 0.37542 0.62458 0.0
O269 O 0.60492 0.36809 0.58139 0.0
C270 C 0.56913 0.39547 0.60352 0.0
O271 O 0.61424 0.40923 0.64598 0.0
O272 O 0.60709 0.42625 0.60554 0.0
In273 In 0.85173 0.35502 0.85237 0.0
O274 O 0.83888 0.37169 0.894 0.0
O275 O 0.82369 0.35154 0.87102 0.0
C276 C 0.88587 0.36349 0.86173 0.0
C277 C 0.85449 0.31968 0.85649 0.0
C278 C 0.84351 0.37207 0.79461 0.0
O279 O 0.87462 0.36469 0.8852 0.0
O280 O 0.87986 0.35807 0.83384 0.0
O281 O 0.8423 0.35559 0.79773 0.0
O282 O 0.84865 0.38003 0.82086 0.0
C283 C 0.8243 0.36379 0.89247 0.0
O284 O 0.84934 0.32747 0.83006 0.0
O285 O 0.85817 0.32971 0.88099 0.0
In286 In 0.89422 0.59824 0.09882 0.0
O287 O 0.92114 0.60143 0.07399 0.0
O288 O 0.92057 0.59601 0.12667 0.0
C289 C 0.87598 0.59238 0.04151 0.0
C290 C 0.88459 0.57021 0.1362 0.0
C291 C 0.88605 0.63205 0.11281 0.0
O292 O 0.89181 0.58773 0.04517 0.0
O293 O 0.86919 0.59965 0.06713 0.0
O294 O 0.88128 0.61955 0.13182 0.0
O295 O 0.8949 0.62744 0.08733 0.0
C296 C 0.9298 0.59904 0.10079 0.0
O297 O 0.88411 0.58572 0.14772 0.0
O298 O 0.88984 0.56895 0.10598 0.0
In299 In 0.6468 0.64093 0.34972 0.0
O300 O 0.65979 0.63237 0.39945 0.0
O301 O 0.67617 0.63705 0.35677 0.0
C302 C 0.61317 0.63047 0.3595 0.0
C303 C 0.64618 0.67634 0.35565 0.0
C304 C 0.65318 0.62531 0.28982 0.0
O305 O 0.62587 0.62355 0.3752 0.0
O306 O 0.61746 0.64261 0.33941 0.0
O307 O 0.65241 0.64178 0.29348 0.0
O308 O 0.65075 0.61654 0.31661 0.0
C309 C 0.6752 0.63263 0.38748 0.0
O310 O 0.64954 0.66856 0.32821 0.0
O311 O 0.64327 0.66627 0.38045 0.0
In312 In 0.39545 0.39876 0.09553 0.0
O313 O 0.38219 0.40921 0.14362 0.0
O314 O 0.3923 0.4277 0.10827 0.0
C315 C 0.38701 0.36452 0.10323 0.0
C316 C 0.43084 0.39745 0.10249 0.0
C317 C 0.37914 0.40733 0.03722 0.0
O318 O 0.38144 0.3763 0.12312 0.0
O319 O 0.39675 0.37006 0.07964 0.0
O320 O 0.39454 0.41232 0.0442 0.0
O321 O 0.37185 0.39809 0.05978 0.0
C322 C 0.38451 0.42518 0.13602 0.0
O323 O 0.42334 0.39857 0.07409 0.0
O324 O 0.42051 0.3971 0.12749 0.0
In325 In 0.35296 0.64598 0.85499 0.0
O326 O 0.34137 0.64051 0.90767 0.0
O327 O 0.32634 0.63318 0.86483 0.0
C328 C 0.38686 0.63578 0.86044 0.0
C329 C 0.35243 0.68138 0.86227 0.0
C330 C 0.34637 0.63381 0.79238 0.0
O331 O 0.37474 0.62869 0.87756 0.0
O332 O 0.38185 0.64792 0.84092 0.0
O333 O 0.34288 0.64938 0.80132 0.0
O334 O 0.35308 0.62427 0.81522 0.0
C335 C 0.32732 0.63388 0.8966 0.0
O336 O 0.34445 0.67355 0.83869 0.0
O337 O 0.36044 0.67136 0.88252 0.0
In338 In 0.10788 0.60128 0.60894 0.0
O339 O 0.12654 0.58871 0.64777 0.0
O340 O 0.1067 0.57281 0.62535 0.0
C341 C 0.11716 0.63487 0.62226 0.0
C342 C 0.07255 0.6046 0.61373 0.0
C343 C 0.12192 0.59206 0.54891 0.0
O344 O 0.11602 0.62344 0.64543 0.0
O345 O 0.11375 0.62926 0.59295 0.0
O346 O 0.10644 0.588 0.55738 0.0
O347 O 0.13044 0.60054 0.57096 0.0
C348 C 0.11949 0.57369 0.64558 0.0
O349 O 0.08088 0.60729 0.58661 0.0
O350 O 0.08202 0.60029 0.63862 0.0
In351 In 0.14724 0.3579 0.34296 0.0
O352 O 0.14494 0.33088 0.31804 0.0
O353 O 0.14795 0.33175 0.37149 0.0
C354 C 0.15423 0.37681 0.28681 0.0
C355 C 0.17517 0.36672 0.38129 0.0
C356 C 0.1132 0.36527 0.35641 0.0
O357 O 0.15763 0.36061 0.28922 0.0
O358 O 0.14754 0.38358 0.31301 0.0
O359 O 0.12529 0.36814 0.37766 0.0
O360 O 0.11833 0.35872 0.32879 0.0
C361 C 0.14618 0.32237 0.34537 0.0
O362 O 0.1597 0.37137 0.38883 0.0
O363 O 0.17646 0.35784 0.35441 0.0
In364 In 0.39311 0.60211 0.38562 0.0
O365 O 0.38668 0.58952 0.33439 0.0
O366 O 0.38184 0.57457 0.37877 0.0
C367 C 0.38372 0.63594 0.37523 0.0
C368 C 0.42845 0.59963 0.37902 0.0
C369 C 0.37947 0.59912 0.44814 0.0
O370 O 0.37665 0.62338 0.35924 0.0
O371 O 0.39552 0.63138 0.39588 0.0
O372 O 0.39574 0.59781 0.4422 0.0
O373 O 0.36997 0.6017 0.42234 0.0
C374 C 0.3814 0.5752 0.34691 0.0
O375 O 0.42004 0.59168 0.40191 0.0
O376 O 0.41903 0.60861 0.35919 0.0
In377 In 0.14866 0.64045 0.14545 0.0
O378 O 0.14834 0.66744 0.17064 0.0
O379 O 0.15013 0.66649 0.11686 0.0
C380 C 0.15227 0.6239 0.20551 0.0
C381 C 0.17629 0.63041 0.107 0.0
C382 C 0.11497 0.63299 0.1292 0.0
O383 O 0.15824 0.63914 0.20017 0.0
O384 O 0.14459 0.61699 0.18052 0.0
O385 O 0.12744 0.62249 0.12308 0.0
O386 O 0.11953 0.64721 0.14308 0.0
C387 C 0.14934 0.67592 0.14318 0.0
O388 O 0.16077 0.63078 0.09573 0.0
O389 O 0.17781 0.63499 0.13753 0.0
In390 In 0.10692 0.39754 0.89129 0.0
O391 O 0.12647 0.41077 0.85492 0.0
O392 O 0.10254 0.42394 0.86599 0.0
C393 C 0.1153 0.36355 0.88005 0.0
C394 C 0.07165 0.39369 0.88912 0.0
C395 C 0.12212 0.4079 0.94971 0.0
O396 O 0.11623 0.37505 0.85697 0.0
O397 O 0.11032 0.36928 0.90846 0.0
O398 O 0.10693 0.41282 0.94096 0.0
O399 O 0.1297 0.39787 0.92886 0.0
C400 C 0.11701 0.42421 0.85046 0.0
O401 O 0.07992 0.39638 0.91636 0.0
O402 O 0.08116 0.39298 0.86293 0.0
In403 In 0.34967 0.35489 0.64398 0.0
O404 O 0.34802 0.32745 0.66722 0.0
O405 O 0.35176 0.32924 0.61402 0.0
C406 C 0.34354 0.37324 0.70114 0.0
C407 C 0.32205 0.36404 0.60489 0.0
C408 C 0.38391 0.36262 0.63383 0.0
O409 O 0.34044 0.35699 0.69858 0.0
O410 O 0.34953 0.38034 0.67463 0.0
O411 O 0.37189 0.36853 0.61489 0.0
O412 O 0.37863 0.35281 0.65752 0.0
C413 C 0.35003 0.3194 0.63956 0.0
O414 O 0.33776 0.36613 0.59534 0.0
O415 O 0.32036 0.35742 0.63399 0.0
H416 H 0.13567 0.07407 0.28697 0.0
H417 H 0.14102 0.04821 0.25125 0.0
H418 H 0.1172 0.015 0.32722 0.0
H419 H 0.11241 0.0406 0.36337 0.0
H420 H 0.14577 -0.00059 0.29859 0.0
H421 H 0.10108 0.0259 0.19916 0.0
H422 H 0.11974 0.03948 0.20883 0.0
H423 H 0.10304 0.03591 0.24038 0.0
C424 C 0.13177 0.06121 0.29614 0.0
C425 C 0.12345 0.05935 0.32774 0.0
C426 C 0.13475 0.04648 0.27568 0.0
C427 C 0.12917 0.02974 0.28629 0.0
C428 C 0.12158 0.0278 0.31848 0.0
H429 H 0.09072 0.94177 0.17906 0.0
H430 H 0.09697 0.96802 0.21246 0.0
C431 C 0.11879 0.04245 0.33907 0.0
C432 C 0.13008 0.01433 0.26336 0.0
H433 H 0.1131 0.99792 0.18982 0.0
C434 C 0.13879 0.9991 0.27461 0.0
C435 C 0.12082 0.01396 0.23224 0.0
C436 C 0.11051 0.02961 0.21947 0.0
C437 C 0.13796 0.98331 0.25617 0.0
C438 C 0.12847 0.98291 0.22535 0.0
C439 C 0.12038 0.99832 0.21346 0.0
C440 C 0.12524 0.96636 0.20655 0.0
C441 C 0.14647 0.96701 0.27063 0.0
C442 C 0.1391 0.95659 0.19241 0.0
C443 C 0.13556 0.9414 0.1735 0.0
C444 C 0.11809 0.93595 0.16817 0.0
C445 C 0.10431 0.94567 0.18268 0.0
C446 C 0.10785 0.96069 0.20172 0.0
H447 H 0.15017 0.96873 0.29767 0.0
H448 H 0.13752 0.95552 0.2685 0.0
H449 H 0.15861 0.96401 0.2561 0.0
H450 H 0.1526 0.9609 0.19537 0.0
H451 H 0.14642 0.9342 0.16237 0.0
H452 H 0.17462 0.86588 0.5394 0.0
H453 H 0.20097 0.86953 0.50435 0.0
H454 H 0.23247 0.87617 0.5944 0.0
H455 H 0.20627 0.87213 0.62962 0.0
H456 H 0.22568 0.89657 0.49878 0.0
H457 H 0.25631 0.83498 0.54679 0.0
H458 H 0.23356 0.84041 0.55452 0.0
H459 H 0.25066 0.85063 0.57909 0.0
C460 C 0.18715 0.86821 0.5517 0.0
C461 C 0.18845 0.86852 0.58722 0.0
C462 C 0.20216 0.87033 0.53167 0.0
C463 C 0.21869 0.87279 0.54683 0.0
C464 C 0.21989 0.87388 0.58225 0.0
H465 H 0.3237 0.87373 0.45683 0.0
H466 H 0.29901 0.87804 0.49598 0.0
C467 C 0.20491 0.87165 0.6023 0.0
C468 C 0.23471 0.87358 0.52556 0.0
H469 H 0.27314 0.85202 0.50878 0.0
C470 C 0.23609 0.88688 0.501 0.0
C471 C 0.24825 0.86089 0.52856 0.0
C472 C 0.24712 0.84582 0.55343 0.0
C473 C 0.25068 0.88779 0.47925 0.0
C474 C 0.26407 0.87496 0.48198 0.0
C475 C 0.26286 0.86189 0.50696 0.0
C476 C 0.27893 0.8741 0.45785 0.0
C477 C 0.25167 0.90246 0.45355 0.0
C478 C 0.27575 0.87048 0.42355 0.0
C479 C 0.28978 0.86794 0.40124 0.0
C480 C 0.30722 0.86893 0.41291 0.0
C481 C 0.31039 0.87293 0.44714 0.0
C482 C 0.29633 0.8754 0.46949 0.0
H483 H 0.2431 0.91371 0.46069 0.0
H484 H 0.26539 0.90727 0.45066 0.0
H485 H 0.24717 0.89746 0.42858 0.0
H486 H 0.26242 0.86907 0.41423 0.0
H487 H 0.28694 0.86483 0.37501 0.0
H488 H 0.40759 0.04547 0.64767 0.0
H489 H 0.40078 0.01995 0.68276 0.0
H490 H 0.34945 0.04145 0.7045 0.0
H491 H 0.35638 0.06737 0.66987 0.0
H492 H 0.36538 0.02991 0.76094 0.0
H493 H 0.36979 0.97817 0.6632 0.0
H494 H 0.38934 0.99138 0.66341 0.0
H495 H 0.36851 0.00127 0.65265 0.0
C496 C 0.3948 0.04473 0.65972 0.0
C497 C 0.38249 0.05838 0.65598 0.0
C498 C 0.39086 0.03005 0.67951 0.0
C499 C 0.37444 0.02859 0.69557 0.0
C500 C 0.36212 0.04223 0.692 0.0
H501 H 0.35916 0.9287 0.80512 0.0
H502 H 0.35279 0.95343 0.76696 0.0
C503 C 0.3661 0.05702 0.6723 0.0
C504 C 0.37081 0.01333 0.71786 0.0
H505 H 0.37444 0.96862 0.72125 0.0
C506 C 0.36701 0.01648 0.75213 0.0
C507 C 0.37249 0.99579 0.70626 0.0
C508 C 0.37505 0.99145 0.66927 0.0
C509 C 0.36617 0.00262 0.77556 0.0
C510 C 0.36963 0.98526 0.7645 0.0
C511 C 0.37209 0.98197 0.72983 0.0
C512 C 0.37248 0.97065 0.78873 0.0
C513 C 0.36194 0.00679 0.81205 0.0
C514 C 0.38576 0.97208 0.81326 0.0
C515 C 0.38937 0.95807 0.83498 0.0
C516 C 0.37992 0.94225 0.83234 0.0
C517 C 0.36662 0.94076 0.80774 0.0
C518 C 0.36296 0.95486 0.786 0.0
H519 H 0.3536 0.01876 0.81402 0.0
H520 H 0.35503 0.99568 0.8246 0.0
H521 H 0.37435 0.00943 0.82596 0.0
H522 H 0.39363 0.98392 0.81517 0.0
H523 H 0.39978 0.95958 0.85353 0.0
H524 H 0.17286 0.13668 0.97084 0.0
H525 H 0.1994 0.13307 0.00532 0.0
H526 H 0.22714 0.11257 0.91848 0.0
H527 H 0.20081 0.11658 0.88365 0.0
H528 H 0.22093 0.10469 0.02119 0.0
H529 H 0.25695 0.15477 0.94537 0.0
H530 H 0.23355 0.1514 0.94145 0.0
H531 H 0.24867 0.13656 0.92117 0.0
C532 C 0.18457 0.13124 0.9592 0.0
C533 C 0.18487 0.12712 0.9245 0.0
C534 C 0.1997 0.12917 0.97891 0.0
C535 C 0.21531 0.1229 0.96424 0.0
C536 C 0.21534 0.11782 0.93006 0.0
H537 H 0.32177 0.11872 0.04769 0.0
H538 H 0.29571 0.11318 0.01258 0.0
C539 C 0.20027 0.12004 0.91026 0.0
C540 C 0.23176 0.12258 0.98431 0.0
H541 H 0.2728 0.14069 0.98896 0.0
C542 C 0.23231 0.1125 0.01411 0.0
C543 C 0.24654 0.13284 0.975 0.0
C544 C 0.24642 0.14463 0.94419 0.0
C545 C 0.24728 0.11245 0.03495 0.0
C546 C 0.26193 0.12286 0.0258 0.0
C547 C 0.26153 0.13264 0.99569 0.0
C548 C 0.27741 0.12478 0.04813 0.0
C549 C 0.24731 0.10132 0.06661 0.0
C550 C 0.27567 0.13319 0.07958 0.0
C551 C 0.29048 0.13649 0.09949 0.0
C552 C 0.30728 0.13143 0.08825 0.0
C553 C 0.30897 0.12274 0.05699 0.0
C554 C 0.29413 0.11954 0.03696 0.0
H555 H 0.23715 0.09083 0.06556 0.0
H556 H 0.26039 0.09513 0.07061 0.0
H557 H 0.24445 0.10981 0.08883 0.0
H558 H 0.2629 0.13763 0.0883 0.0
H559 H 0.28879 0.14323 0.12347 0.0
H560 H 0.87264 0.92417 0.70271 0.0
H561 H 0.86746 0.94887 0.74146 0.0
H562 H 0.87606 0.98544 0.65949 0.0
H563 H 0.8811 0.96093 0.62067 0.0
H564 H 0.89265 0.97481 0.75487 0.0
H565 H 0.83136 0.00463 0.70464 0.0
H566 H 0.83812 0.98246 0.69437 0.0
H567 H 0.84792 0.00092 0.67296 0.0
C568 C 0.87316 0.93748 0.69288 0.0
C569 C 0.87731 0.94066 0.65873 0.0
C570 C 0.87018 0.95154 0.715 0.0
C571 C 0.87113 0.96894 0.70318 0.0
C572 C 0.87488 0.9721 0.66893 0.0
H573 H 0.88044 0.07285 0.78743 0.0
H574 H 0.87641 0.04705 0.75088 0.0
C575 C 0.8779 0.95809 0.64686 0.0
C576 C 0.86998 0.98383 0.72716 0.0
H577 H 0.84824 0.02229 0.74293 0.0
C578 C 0.8828 0.98507 0.75261 0.0
C579 C 0.85719 0.99724 0.72384 0.0
C580 C 0.84276 0.99622 0.69767 0.0
C581 C 0.88355 -0.00032 0.7742 0.0
C582 C 0.8709 0.01322 0.77063 0.0
C583 C 0.8579 0.01187 0.74553 0.0
C584 C 0.87136 0.02907 0.79231 0.0
C585 C 0.89827 0.0008 0.79982 0.0
C586 C 0.86928 0.02754 0.82749 0.0
C587 C 0.87168 0.04216 0.84833 0.0
C588 C 0.87602 0.0586 0.83429 0.0
C589 C 0.87716 0.06032 0.7989 0.0
C590 C 0.87485 0.04563 0.77804 0.0
H591 H 0.90913 0.9915 0.7939 0.0
H592 H 0.90376 0.01434 0.80094 0.0
H593 H 0.89308 0.99744 0.82529 0.0
H594 H 0.86626 0.01492 0.83888 0.0
H595 H 0.87054 0.04049 0.87551 0.0
H596 H 0.79639 0.15279 0.40268 0.0
H597 H 0.77128 0.14582 0.43865 0.0
H598 H 0.79486 0.09595 0.46465 0.0
H599 H 0.82043 0.1031 0.42911 0.0
H600 H 0.74778 0.11836 0.43523 0.0
H601 H 0.78477 0.11755 0.55714 0.0
H602 H 0.79423 0.12602 0.51851 0.0
H603 H 0.79225 0.10269 0.52477 0.0
C604 C 0.79628 0.14035 0.4161 0.0
C605 C 0.81041 0.12853 0.41331 0.0
C606 C 0.78188 0.13635 0.43653 0.0
C607 C 0.78127 0.12044 0.45452 0.0
C608 C 0.79522 0.10843 0.45141 0.0
H609 H 0.68051 0.10459 0.56385 0.0
H610 H 0.70572 0.09723 0.52748 0.0
C611 C 0.80977 0.1125 0.43108 0.0
C612 C 0.76603 0.11692 0.47687 0.0
H613 H 0.75411 0.11483 0.56013 0.0
C614 C 0.74912 0.11729 0.46253 0.0
C615 C 0.7679 0.11554 0.51243 0.0
C616 C 0.78573 0.11554 0.5293 0.0
C617 C 0.73399 0.11742 0.48291 0.0
C618 C 0.73589 0.11677 0.51854 0.0
C619 C 0.75276 0.11529 0.53277 0.0
C620 C 0.72089 0.12022 0.54152 0.0
C621 C 0.71622 0.11947 0.46627 0.0
C622 C 0.72128 0.13531 0.56193 0.0
C623 C 0.70708 0.13943 0.58275 0.0
C624 C 0.69215 0.12856 0.58356 0.0
C625 C 0.69181 0.11327 0.56349 0.0
C626 C 0.70615 0.10908 0.54268 0.0
H627 H 0.71733 0.12267 0.43887 0.0
H628 H 0.70876 0.10698 0.46873 0.0
H629 H 0.70851 0.13001 0.47888 0.0
H630 H 0.73251 0.1441 0.56134 0.0
H631 H 0.70776 0.15128 0.59797 0.0
H632 H 0.62359 0.92416 0.28811 0.0
H633 H 0.62767 0.95033 0.25265 0.0
H634 H 0.61671 0.98358 0.3387 0.0
H635 H 0.61245 0.95756 0.37415 0.0
H636 H 0.59594 0.99057 0.28224 0.0
H637 H 0.66674 0.98794 0.24768 0.0
H638 H 0.65489 0.9678 0.24057 0.0
H639 H 0.65769 0.97584 0.28306 0.0
C640 C 0.62233 0.93706 0.29955 0.0
C641 C 0.61762 0.93884 0.33382 0.0
C642 C 0.62478 0.95198 0.27934 0.0
C643 C 0.62267 0.96886 0.29319 0.0
C644 C 0.61848 0.97065 0.32762 0.0
H645 H 0.6317 0.07168 0.19526 0.0
H646 H 0.63551 0.04671 0.23415 0.0
C647 C 0.61603 0.95578 0.3478 0.0
C648 C 0.62305 0.98459 0.27116 0.0
H649 H 0.64881 0.00811 0.21654 0.0
C650 C 0.60755 0.99449 0.26812 0.0
C651 C 0.63825 0.98969 0.25293 0.0
C652 C 0.6554 0.97988 0.25636 0.0
C653 C 0.60669 0.00912 0.24661 0.0
C654 C 0.62168 0.01386 0.22756 0.0
C655 C 0.63734 0.00429 0.23115 0.0
C656 C 0.62092 0.02842 0.20294 0.0
C657 C 0.58971 0.01934 0.24406 0.0
C658 C 0.61174 0.02618 0.17247 0.0
C659 C 0.60956 0.04031 0.15032 0.0
C660 C 0.6165 0.05694 0.15838 0.0
C661 C 0.62617 0.05902 0.1885 0.0
C662 C 0.6284 0.04481 0.21062 0.0
H663 H 0.58032 0.0158 0.26453 0.0
H664 H 0.59234 0.03371 0.24526 0.0
H665 H 0.58338 0.01653 0.21929 0.0
H666 H 0.60593 0.01357 0.16621 0.0
H667 H 0.6021 0.03829 0.12725 0.0
H668 H 0.67509 0.8631 0.96536 0.0
H669 H 0.70105 0.86797 0.0007 0.0
H670 H 0.72891 0.88903 0.91447 0.0
H671 H 0.70313 0.88378 0.87878 0.0
H672 H 0.74687 0.8631 0.94472 0.0
H673 H 0.72462 0.91029 0.04246 0.0
H674 H 0.71017 0.89172 0.03914 0.0
H675 H 0.71248 0.90653 0.00377 0.0
C676 C 0.68663 0.86911 0.95411 0.0
C677 C 0.68714 0.87299 0.91932 0.0
C678 C 0.70141 0.87201 0.97439 0.0
C679 C 0.71685 0.87908 0.96032 0.0
C680 C 0.71711 0.88365 0.92586 0.0
H681 H 0.82306 0.88125 0.04875 0.0
H682 H 0.79779 0.88799 0.01228 0.0
C683 C 0.70238 0.88064 0.90553 0.0
C684 C 0.73327 0.87967 0.98049 0.0
H685 H 0.75045 0.89321 0.05606 0.0
C686 C 0.74778 0.86997 0.96876 0.0
C687 C 0.7344 0.8886 0.01186 0.0
C688 C 0.71963 0.90002 0.02488 0.0
C689 C 0.76308 0.86827 0.9883 0.0
C690 C 0.76393 0.87663 0.02022 0.0
C691 C 0.74968 0.8868 0.03154 0.0
C692 C 0.77901 0.87384 0.0432 0.0
C693 C 0.77791 0.85687 0.97539 0.0
C694 C 0.77665 0.864 0.0729 0.0
C695 C 0.791 0.86011 0.09364 0.0
C696 C 0.80792 0.8661 0.08511 0.0
C697 C 0.81018 0.87638 0.05582 0.0
C698 C 0.7958 0.88023 0.03499 0.0
H699 H 0.77401 0.84908 0.95277 0.0
H700 H 0.78922 0.86534 0.96829 0.0
H701 H 0.78241 0.84767 0.99548 0.0
H702 H 0.76377 0.85896 0.07958 0.0
H703 H 0.78885 0.85223 0.11616 0.0
H704 H 0.61902 0.42575 0.70362 0.0
H705 H 0.62288 0.45196 0.7391 0.0
H706 H 0.61945 0.48493 0.65032 0.0
H707 H 0.61511 0.45891 0.61492 0.0
H708 H 0.64736 0.47909 0.73921 0.0
H709 H 0.58043 0.50419 0.70997 0.0
H710 H 0.58734 0.48218 0.69926 0.0
H711 H 0.59374 0.50049 0.6731 0.0
C712 C 0.61918 0.43859 0.69171 0.0
C713 C 0.61653 0.44035 0.65663 0.0
C714 C 0.62141 0.45353 0.71195 0.0
C715 C 0.62108 0.47037 0.69737 0.0
C716 C 0.6193 0.47207 0.66214 0.0
H717 H 0.62144 0.57567 0.78381 0.0
H718 H 0.62504 0.5506 0.74532 0.0
C719 C 0.61689 0.45719 0.64197 0.0
C720 C 0.62198 0.48621 0.71909 0.0
H721 H 0.59901 0.52297 0.74167 0.0
C722 C 0.63681 0.4887 0.73979 0.0
C723 C 0.60813 0.49866 0.71984 0.0
C724 C 0.59144 0.49621 0.69962 0.0
C725 C 0.6382 0.50344 0.76106 0.0
C726 C 0.62437 0.51586 0.76166 0.0
C727 C 0.60965 0.51345 0.7408 0.0
C728 C 0.62435 0.531 0.78509 0.0
C729 C 0.65444 0.5057 0.78259 0.0
C730 C 0.62286 0.5282 0.82009 0.0
C731 C 0.62069 0.54243 0.84203 0.0
C732 C 0.61996 0.55969 0.82929 0.0
C733 C 0.62199 0.56251 0.79431 0.0
C734 C 0.62406 0.54824 0.77234 0.0
H735 H 0.66551 0.49741 0.77343 0.0
H736 H 0.65873 0.51967 0.78291 0.0
H737 H 0.6514 0.50176 0.80904 0.0
H738 H 0.62275 0.51496 0.8303 0.0
H739 H 0.61915 0.53988 0.86888 0.0
H740 H 0.79286 0.3469 0.89558 0.0
H741 H 0.76796 0.35352 0.93232 0.0
H742 H 0.79625 0.39756 0.9747 0.0
H743 H 0.82154 0.39072 0.9383 0.0
H744 H 0.78179 0.37744 0.02324 0.0
H745 H 0.73127 0.39165 0.92666 0.0
H746 H 0.74158 0.37089 0.91832 0.0
H747 H 0.75445 0.3908 0.91663 0.0
C748 C 0.79375 0.35809 0.91249 0.0
C749 C 0.80912 0.36832 0.91406 0.0
C750 C 0.77943 0.36196 0.93326 0.0
C751 C 0.78008 0.37628 0.95567 0.0
C752 C 0.79541 0.38657 0.95729 0.0
H753 H 0.68198 0.39228 0.07055 0.0
H754 H 0.7077 0.39931 0.03539 0.0
C755 C 0.80983 0.38264 0.93656 0.0
C756 C 0.7652 0.37947 0.9791 0.0
H757 H 0.72038 0.38166 0.98131 0.0
C758 C 0.76839 0.37873 0.0141 0.0
C759 C 0.74775 0.38159 0.96726 0.0
C760 C 0.74359 0.38398 0.93015 0.0
C761 C 0.75448 0.3787 0.03744 0.0
C762 C 0.73695 0.37898 0.02534 0.0
C763 C 0.73382 0.3811 0.99054 0.0
C764 C 0.72179 0.37541 0.04789 0.0
C765 C 0.7587 0.37796 0.07478 0.0
C766 C 0.72111 0.35957 0.06612 0.0
C767 C 0.70655 0.35557 0.08615 0.0
C768 C 0.69225 0.36724 0.08802 0.0
C769 C 0.69284 0.38306 0.06959 0.0
C770 C 0.70751 0.3871 0.04959 0.0
H771 H 0.77166 0.38414 0.08018 0.0
H772 H 0.74847 0.38469 0.09013 0.0
H773 H 0.75945 0.364 0.08293 0.0
H774 H 0.73174 0.35011 0.06438 0.0
H775 H 0.70642 0.34322 0.09988 0.0
H776 H 0.87708 0.45686 0.37018 0.0
H777 H 0.87269 0.48095 0.33001 0.0
H778 H 0.87316 0.44397 0.24711 0.0
H779 H 0.87759 0.41972 0.28722 0.0
H780 H 0.89764 0.4722 0.24201 0.0
H781 H 0.83036 0.49634 0.27096 0.0
H782 H 0.84424 0.49338 0.3074 0.0
H783 H 0.83786 0.47459 0.28263 0.0
C784 C 0.87595 0.45382 0.34344 0.0
C785 C 0.87774 0.43644 0.33177 0.0
C786 C 0.87332 0.46758 0.32057 0.0
C787 C 0.8724 0.46419 0.28569 0.0
C788 C 0.87369 0.44679 0.27401 0.0
H789 H 0.88155 0.53632 0.11468 0.0
H790 H 0.87677 0.5101 0.14941 0.0
C791 C 0.87623 0.43299 0.29691 0.0
C792 C 0.87206 0.47898 0.26139 0.0
H793 H 0.84857 0.51522 0.23764 0.0
C794 C 0.88682 0.48149 0.24066 0.0
C795 C 0.85799 0.49112 0.2601 0.0
C796 C 0.84163 0.48869 0.28124 0.0
C797 C 0.88819 0.49618 0.21936 0.0
C798 C 0.87418 0.50844 0.2182 0.0
C799 C 0.85926 0.50578 0.23856 0.0
C800 C 0.87512 0.52438 0.19677 0.0
C801 C 0.90493 0.4988 0.19935 0.0
C802 C 0.87496 0.54113 0.21174 0.0
C803 C 0.8775 0.55616 0.19191 0.0
C804 C 0.88026 0.55462 0.15682 0.0
C805 C 0.87966 0.53788 0.14173 0.0
C806 C 0.87699 0.5229 0.16152 0.0
H807 H 0.91593 0.49075 0.20951 0.0
H808 H 0.90267 0.49478 0.17267 0.0
H809 H 0.90899 0.51284 0.19947 0.0
H810 H 0.87345 0.54253 0.23892 0.0
H811 H 0.87783 0.56891 0.20417 0.0
H812 H 0.70891 0.62978 0.36505 0.0
H813 H 0.73544 0.62536 0.39895 0.0
H814 H 0.70387 0.62287 0.48972 0.0
H815 H 0.67718 0.62693 0.4558 0.0
H816 H 0.7468 0.64775 0.44793 0.0
H817 H 0.73684 0.58123 0.5024 0.0
H818 H 0.72417 0.58933 0.46695 0.0
H819 H 0.71863 0.59581 0.50948 0.0
C820 C 0.70759 0.62804 0.39218 0.0
C821 C 0.69099 0.62873 0.40784 0.0
C822 C 0.72276 0.6255 0.41149 0.0
C823 C 0.72161 0.62356 0.44677 0.0
C824 C 0.70502 0.62392 0.46243 0.0
H825 H 0.79197 0.63048 0.61509 0.0
H826 H 0.7673 0.62601 0.57631 0.0
C827 C 0.6898 0.62637 0.44308 0.0
C828 C 0.73787 0.62281 0.46735 0.0
H829 H 0.75946 0.59884 0.52759 0.0
C830 C 0.74969 0.63695 0.46502 0.0
C831 C 0.74155 0.60871 0.48967 0.0
C832 C 0.72972 0.59282 0.4921 0.0
C833 C 0.76484 0.63767 0.48522 0.0
C834 C 0.76836 0.62374 0.50797 0.0
C835 C 0.75671 0.60945 0.50998 0.0
C836 C 0.78352 0.62442 0.53137 0.0
C837 C 0.77659 0.65365 0.48297 0.0
C838 C 0.80083 0.6245 0.51895 0.0
C839 C 0.81498 0.6271 0.54104 0.0
C840 C 0.81197 0.6296 0.57585 0.0
C841 C 0.79467 0.62869 0.58835 0.0
C842 C 0.78057 0.62609 0.56628 0.0
H843 H 0.77018 0.66468 0.4692 0.0
H844 H 0.78035 0.65829 0.50867 0.0
H845 H 0.78882 0.65013 0.4692 0.0
H846 H 0.80335 0.62299 0.49208 0.0
H847 H 0.82818 0.62765 0.53076 0.0
H848 H 0.37051 0.42333 0.19983 0.0
H849 H 0.36376 0.44802 0.23777 0.0
H850 H 0.38001 0.48462 0.16026 0.0
H851 H 0.38665 0.46016 0.1223 0.0
H852 H 0.38885 0.47258 0.25888 0.0
H853 H 0.33358 0.50588 0.19364 0.0
H854 H 0.33984 0.48343 0.1846 0.0
H855 H 0.35187 0.50143 0.16615 0.0
C856 C 0.37238 0.43666 0.19076 0.0
C857 C 0.37914 0.43985 0.15818 0.0
C858 C 0.3685 0.45071 0.2124 0.0
C859 C 0.37113 0.46812 0.20159 0.0
C860 C 0.3775 0.4713 0.16881 0.0
H861 H 0.384 0.57172 0.27826 0.0
H862 H 0.37894 0.54506 0.24483 0.0
C863 C 0.38144 0.4573 0.14726 0.0
C864 C 0.36902 0.48295 0.22548 0.0
H865 H 0.34949 0.52313 0.23453 0.0
C866 C 0.38001 0.4835 0.25399 0.0
C867 C 0.35753 0.49717 0.2188 0.0
C868 C 0.34491 0.49692 0.1893 0.0
C869 C 0.38053 0.49832 0.27509 0.0
C870 C 0.36944 0.51281 0.26781 0.0
C871 C 0.35798 0.512 0.23998 0.0
C872 C 0.37048 0.52931 0.28756 0.0
C873 C 0.3936 0.49871 0.30392 0.0
C874 C 0.36685 0.5294 0.32241 0.0
C875 C 0.36987 0.54455 0.34158 0.0
C876 C 0.37637 0.55989 0.32609 0.0
C877 C 0.37905 0.56006 0.29087 0.0
C878 C 0.37614 0.54486 0.27175 0.0
H879 H 0.40372 0.48822 0.30145 0.0
H880 H 0.40037 0.51164 0.3052 0.0
H881 H 0.38655 0.49662 0.32821 0.0
H882 H 0.36213 0.51762 0.33492 0.0
H883 H 0.36752 0.54411 0.36865 0.0
H884 H 0.17638 0.61995 0.04078 0.0
H885 H 0.20209 0.61498 0.00457 0.0
H886 H 0.23638 0.62647 0.08887 0.0
H887 H 0.21082 0.63109 0.12528 0.0
H888 H 0.22635 0.64009 0.98994 0.0
H889 H 0.25952 0.58302 0.04948 0.0
H890 H 0.237 0.58888 0.05883 0.0
H891 H 0.25487 0.60031 0.07913 0.0
C892 C 0.18941 0.62111 0.05169 0.0
C893 C 0.19162 0.62593 0.0858 0.0
C894 C 0.20406 0.61826 0.03103 0.0
C895 C 0.22113 0.62011 0.04417 0.0
C896 C 0.22334 0.62453 0.07842 0.0
H897 H 0.3249 0.63727 0.96539 0.0
H898 H 0.29892 0.63174 0.00069 0.0
C899 C 0.20872 0.62732 0.09912 0.0
C900 C 0.23657 0.61929 0.02137 0.0
H901 H 0.27697 0.60032 0.01109 0.0
C902 C 0.2373 0.6312 0.99424 0.0
C903 C 0.25088 0.60776 0.02723 0.0
C904 C 0.25049 0.59415 0.05506 0.0
C905 C 0.25219 0.63233 0.97345 0.0
C906 C 0.26663 0.62107 0.97973 0.0
C907 C 0.26584 0.60893 0.00647 0.0
C908 C 0.28286 0.62224 0.95928 0.0
C909 C 0.25262 0.64601 0.94569 0.0
C910 C 0.28251 0.61819 0.92463 0.0
C911 C 0.29724 0.62139 0.90445 0.0
C912 C 0.31259 0.6286 0.91869 0.0
C913 C 0.31322 0.63177 0.95375 0.0
C914 C 0.29844 0.62859 0.97392 0.0
H915 H 0.24201 0.65595 0.94867 0.0
H916 H 0.2655 0.65291 0.94529 0.0
H917 H 0.25082 0.63944 0.92081 0.0
H918 H 0.27065 0.61305 0.91303 0.0
H919 H 0.29643 0.61868 0.87754 0.0
H920 H 0.14832 0.42926 0.81718 0.0
H921 H 0.15713 0.45519 0.78397 0.0
H922 H 0.10661 0.47901 0.80351 0.0
H923 H 0.09788 0.4535 0.83684 0.0
H924 H 0.14206 0.46899 0.72667 0.0
H925 H 0.14016 0.51835 0.82905 0.0
H926 H 0.14051 0.49497 0.83741 0.0
H927 H 0.12007 0.50599 0.82803 0.0
C928 C 0.13916 0.44009 0.81444 0.0
C929 C 0.12245 0.43942 0.8297 0.0
C930 C 0.14422 0.45488 0.7956 0.0
C931 C 0.13268 0.46919 0.79203 0.0
C932 C 0.11592 0.46835 0.80681 0.0
H933 H 0.10553 0.54087 0.64435 0.0
H934 H 0.11377 0.51563 0.67878 0.0
C935 C 0.11089 0.45367 0.82559 0.0
C936 C 0.13745 0.4847 0.77126 0.0
H937 H 0.13509 0.5295 0.77198 0.0
C938 C 0.14097 0.48224 0.73669 0.0
C939 C 0.13653 0.50198 0.78448 0.0
C940 C 0.13431 0.50547 0.82188 0.0
C941 C 0.14194 0.49661 0.71445 0.0
C942 C 0.13892 0.51378 0.72711 0.0
C943 C 0.13708 0.51632 0.76215 0.0
C944 C 0.13527 0.52883 0.70431 0.0
C945 C 0.14559 0.4932 0.67745 0.0
C946 C 0.14433 0.54485 0.70778 0.0
C947 C 0.13945 0.55948 0.68831 0.0
C948 C 0.12537 0.55828 0.66533 0.0
C949 C 0.11649 0.54218 0.66172 0.0
C950 C 0.12132 0.52766 0.68114 0.0
H951 H 0.15405 0.4814 0.6742 0.0
H952 H 0.13298 0.49061 0.66416 0.0
H953 H 0.15212 0.50464 0.66523 0.0
H954 H 0.15499 0.54609 0.72586 0.0
H955 H 0.14651 0.57174 0.69162 0.0
H956 H 0.20909 0.35673 0.37066 0.0
H957 H 0.23396 0.35997 0.40947 0.0
H958 H 0.20087 0.38782 0.48017 0.0
H959 H 0.17579 0.38464 0.44142 0.0
H960 H 0.23844 0.40179 0.46653 0.0
H961 H 0.23263 0.33121 0.50269 0.0
H962 H 0.23274 0.33596 0.458 0.0
H963 H 0.21471 0.34333 0.48372 0.0
C964 C 0.20713 0.36373 0.39428 0.0
C965 C 0.19048 0.3703 0.4032 0.0
C966 C 0.22134 0.36556 0.41636 0.0
C967 C 0.21913 0.374 0.44764 0.0
C968 C 0.20275 0.38127 0.45605 0.0
H969 H 0.28741 0.36065 0.62105 0.0
H970 H 0.26205 0.36527 0.58403 0.0
C971 C 0.18847 0.3794 0.43398 0.0
C972 C 0.23364 0.37404 0.47244 0.0
H973 H 0.25723 0.34672 0.52372 0.0
C974 C 0.24256 0.38981 0.47922 0.0
C975 C 0.23875 0.35839 0.48905 0.0
C976 C 0.22917 0.34124 0.48331 0.0
C977 C 0.25683 0.39022 0.50184 0.0
C978 C 0.26225 0.37444 0.51771 0.0
C979 C 0.25306 0.35878 0.51138 0.0
C980 C 0.2775 0.37367 0.5409 0.0
C981 C 0.2659 0.4075 0.50881 0.0
C982 C 0.29457 0.377 0.5289 0.0
C983 C 0.30911 0.37435 0.55 0.0
C984 C 0.30677 0.36822 0.58331 0.0
C985 C 0.28963 0.36534 0.59547 0.0
C986 C 0.27513 0.36799 0.5744 0.0
H987 H 0.25762 0.4189 0.50124 0.0
H988 H 0.26925 0.40875 0.5361 0.0
H989 H 0.27833 0.40809 0.49409 0.0
H990 H 0.29668 0.38107 0.5029 0.0
H991 H 0.32218 0.37663 0.53996 0.0
H992 H 0.14922 0.15128 0.36627 0.0
H993 H 0.1564 0.18268 0.36187 0.0
H994 H 0.10117 0.19499 0.35305 0.0
H995 H 0.0939 0.1638 0.35843 0.0
H996 H 0.15037 0.20763 0.31378 0.0
H997 H 0.11567 0.22529 0.43236 0.0
H998 H 0.12002 0.20278 0.42051 0.0
H999 H 0.10151 0.21435 0.40273 0.0
C1000 C 0.13864 0.1607 0.36322 0.0
C1001 C 0.121 0.15515 0.36306 0.0
C1002 C 0.14275 0.17861 0.36073 0.0
C1003 C 0.12929 0.19119 0.35795 0.0
C1004 C 0.11173 0.18555 0.35617 0.0
H1005 H 0.1363 0.2999 0.29497 0.0
H1006 H 0.13365 0.26787 0.29812 0.0
C1007 C 0.10761 0.16772 0.35901 0.0
C1008 C 0.1335 0.21024 0.35736 0.0
H1009 H 0.12387 0.24914 0.39632 0.0
C1010 C 0.1447 0.21671 0.33196 0.0
C1011 C 0.12641 0.22201 0.38156 0.0
C1012 C 0.11539 0.21574 0.41104 0.0
C1013 C 0.14853 0.23475 0.32945 0.0
C1014 C 0.14057 0.24665 0.35243 0.0
C1015 C 0.12981 0.24007 0.37844 0.0
C1016 C 0.14295 0.26599 0.3499 0.0
C1017 C 0.16123 0.24081 0.30246 0.0
C1018 C 0.14859 0.27566 0.37822 0.0
C1019 C 0.14975 0.294 0.37669 0.0
C1020 C 0.14538 0.30298 0.34673 0.0
C1021 C 0.1399 0.29329 0.31829 0.0
C1022 C 0.13853 0.27497 0.31998 0.0
H1023 H 0.17032 0.23006 0.29483 0.0
H1024 H 0.15373 0.24487 0.27964 0.0
H1025 H 0.16918 0.2522 0.31126 0.0
H1026 H 0.15198 0.26902 0.40163 0.0
H1027 H 0.15403 0.30113 0.39898 0.0
H1028 H 0.94797 0.89668 0.65287 0.0
H1029 H 0.97993 0.89276 0.65479 0.0
H1030 H 0.98179 0.89241 0.54553 0.0
H1031 H 0.94981 0.89616 0.54338 0.0
H1032 H -0.00021 0.86452 0.57528 0.0
H1033 H 0.01922 0.92812 0.63325 0.0
H1034 H 0.00251 0.91656 0.65653 0.0
H1035 H 0.99781 0.92453 0.61459 0.0
C1036 C 0.95521 0.89593 0.62926 0.0
C1037 C 0.94641 0.89674 0.59798 0.0
C1038 C 0.97347 0.8938 0.6304 0.0
C1039 C 0.98323 0.89254 0.60029 0.0
C1040 C 0.97449 0.89346 0.56903 0.0
H1041 H 0.09842 0.89058 0.59293 0.0
H1042 H 0.06744 0.89789 0.58234 0.0
C1043 C 0.95624 0.89561 0.56787 0.0
C1044 C 0.00242 0.88925 0.60146 0.0
H1045 H 0.04117 0.90562 0.63184 0.0
C1046 C 0.00887 0.87357 0.58737 0.0
C1047 C 0.01424 0.90119 0.61686 0.0
C1048 C 0.00815 0.91863 0.63089 0.0
C1049 C 0.02678 0.86922 0.58932 0.0
C1050 C 0.03846 0.88076 0.60616 0.0
C1051 C 0.03213 0.89673 0.61919 0.0
C1052 C 0.05715 0.87615 0.6117 0.0
C1053 C 0.03305 0.85228 0.57343 0.0
C1054 C 0.06154 0.86161 0.63188 0.0
C1055 C 0.07914 0.85743 0.63799 0.0
C1056 C 0.09267 0.86777 0.62409 0.0
C1057 C 0.08826 0.88234 0.60384 0.0
C1058 C 0.07061 0.88655 0.59783 0.0
H1059 H 0.02367 0.8474 0.55399 0.0
H1060 H 0.04617 0.85402 0.56147 0.0
H1061 H 0.03425 0.84205 0.59338 0.0
H1062 H 0.05133 0.85361 0.6433 0.0
H1063 H 0.08213 0.84618 0.65383 0.0
H1064 H 0.36513 0.85155 0.83644 0.0
H1065 H 0.35673 0.82049 0.83086 0.0
H1066 H 0.38386 0.80861 0.92413 0.0
H1067 H 0.39202 0.83952 0.93015 0.0
H1068 H 0.37825 0.79111 0.82639 0.0
H1069 H 0.33568 0.78673 0.94005 0.0
H1070 H 0.34257 0.8075 0.92219 0.0
H1071 H 0.35716 0.79527 0.94932 0.0
C1072 C 0.36922 0.8423 0.8558 0.0
C1073 C 0.37914 0.84796 0.88383 0.0
C1074 C 0.36441 0.8246 0.85259 0.0
C1075 C 0.36937 0.81233 0.87744 0.0
C1076 C 0.3795 0.81793 0.90513 0.0
H1077 H 0.36928 0.70099 0.9102 0.0
H1078 H 0.37199 0.73307 0.91244 0.0
C1079 C 0.38426 0.83559 0.9084 0.0
C1080 C 0.3646 0.79352 0.87398 0.0
H1081 H 0.34497 0.75939 0.91576 0.0
C1082 C 0.37077 0.7842 0.84567 0.0
C1083 C 0.35481 0.78457 0.89917 0.0
C1084 C 0.34702 0.79407 0.92923 0.0
C1085 C 0.36807 0.76599 0.8426 0.0
C1086 C 0.35875 0.75697 0.86832 0.0
C1087 C 0.35218 0.76636 0.89618 0.0
C1088 C 0.35634 0.73766 0.86748 0.0
C1089 C 0.37578 0.75643 0.81254 0.0
C1090 C 0.34634 0.72968 0.84184 0.0
C1091 C 0.34477 0.71136 0.84051 0.0
C1092 C 0.35312 0.70075 0.86489 0.0
C1093 C 0.36273 0.70882 0.89104 0.0
C1094 C 0.36428 0.72713 0.89237 0.0
H1095 H 0.38553 0.76462 0.7987 0.0
H1096 H 0.38227 0.74404 0.82068 0.0
H1097 H 0.36506 0.75295 0.79465 0.0
H1098 H 0.33987 0.73762 0.82275 0.0
H1099 H 0.33721 0.70551 0.82014 0.0
H1100 H 0.39951 0.11863 0.0794 0.0
H1101 H 0.43043 0.11042 0.07072 0.0
H1102 H 0.44268 0.12747 0.17226 0.0
H1103 H 0.41193 0.13566 0.18115 0.0
H1104 H 0.46018 0.13378 0.07699 0.0
H1105 H 0.46403 0.07732 0.16596 0.0
H1106 H 0.4434 0.08573 0.14997 0.0
H1107 H 0.4546 0.09693 0.18378 0.0
C1108 C 0.40879 0.12049 0.09993 0.0
C1109 C 0.40333 0.12775 0.13097 0.0
C1110 C 0.4264 0.11581 0.09493 0.0
C1111 C 0.43874 0.11813 0.12102 0.0
C1112 C 0.43329 0.12529 0.15204 0.0
H1113 H 0.54979 0.10988 0.15497 0.0
H1114 H 0.51781 0.1132 0.15794 0.0
C1115 C 0.41574 0.13005 0.15699 0.0
C1116 C 0.45751 0.1139 0.11549 0.0
H1117 H 0.49127 0.0888 0.14578 0.0
C1118 C 0.46698 0.12381 0.09168 0.0
C1119 C 0.46627 0.10092 0.13483 0.0
C1120 C 0.45655 0.08949 0.15988 0.0
C1121 C 0.48519 0.12156 0.08761 0.0
C1122 C 0.49403 0.10879 0.10743 0.0
C1123 C 0.48445 0.0986 0.13068 0.0
C1124 C 0.51333 0.1063 0.10543 0.0
C1125 C 0.49491 0.13336 0.06318 0.0
C1126 C 0.52137 0.10105 0.07504 0.0
C1127 C 0.53965 0.09923 0.07322 0.0
C1128 C 0.55016 0.10247 0.10187 0.0
C1129 C 0.54203 0.10733 0.13246 0.0
C1130 C 0.52378 0.10921 0.13421 0.0
H1131 H 0.48702 0.14511 0.05612 0.0
H1132 H 0.50759 0.13785 0.07419 0.0
H1133 H 0.49783 0.12591 0.03965 0.0
H1134 H 0.5135 0.09839 0.05273 0.0
H1135 H 0.54555 0.09535 0.04938 0.0
H1136 H 0.14828 0.69674 0.08692 0.0
H1137 H 0.14485 0.72876 0.08474 0.0
H1138 H 0.14496 0.73093 0.19395 0.0
H1139 H 0.14841 0.69889 0.1964 0.0
H1140 H 0.11557 0.74709 0.11626 0.0
H1141 H 0.1807 0.7698 0.16373 0.0
H1142 H 0.17732 0.74803 0.14647 0.0
H1143 H 0.16969 0.75318 0.18835 0.0
C1144 C 0.14779 0.70405 0.11047 0.0
C1145 C 0.14859 0.69533 0.14184 0.0
C1146 C 0.14582 0.72232 0.10917 0.0
C1147 C 0.14482 0.73217 0.13917 0.0
C1148 C 0.14598 0.72356 0.17053 0.0
H1149 H 0.12557 0.84432 0.17286 0.0
H1150 H 0.13248 0.81299 0.18059 0.0
C1151 C 0.14786 0.70526 0.17187 0.0
C1152 C 0.14131 0.75129 0.13752 0.0
H1153 H 0.1592 0.79167 0.15356 0.0
C1154 C 0.1251 0.75686 0.12436 0.0
C1155 C 0.15371 0.76392 0.14853 0.0
C1156 C 0.17141 0.75853 0.16239 0.0
C1157 C 0.12093 0.77478 0.12182 0.0
C1158 C 0.13352 0.78746 0.13194 0.0
C1159 C 0.14962 0.7819 0.14571 0.0
C1160 C 0.13032 0.80654 0.12732 0.0
C1161 C 0.10299 0.77993 0.10872 0.0
C1162 C 0.1273 0.81332 0.09478 0.0
C1163 C 0.12326 0.83107 0.09035 0.0
C1164 C 0.1224 0.84246 0.11836 0.0
C1165 C 0.1261 0.83582 0.15085 0.0
C1166 C 0.13005 0.81797 0.15529 0.0
H1167 H 0.09333 0.76906 0.11166 0.0
H1168 H 0.09789 0.79173 0.12211 0.0
H1169 H 0.10397 0.78307 0.08131 0.0
H1170 H 0.12787 0.80481 0.07278 0.0
H1171 H 0.12066 0.83584 0.06496 0.0
H1172 H 0.54364 0.9014 0.43313 0.0
H1173 H 0.51171 0.89761 0.42796 0.0
H1174 H 0.51804 0.88175 0.32375 0.0
H1175 H 0.54996 0.88554 0.32862 0.0
H1176 H 0.48725 0.91354 0.37658 0.0
H1177 H 0.49119 0.84043 0.37359 0.0
H1178 H 0.50877 0.854 0.38991 0.0
H1179 H 0.50552 0.85205 0.34501 0.0
C1180 C 0.53821 0.89721 0.40906 0.0
C1181 C 0.54928 0.89368 0.38131 0.0
C1182 C 0.52 0.89508 0.40616 0.0
C1183 C 0.51262 0.88924 0.37561 0.0
C1184 C 0.52357 0.88611 0.34764 0.0
H1185 H 0.40924 0.85688 0.31026 0.0
H1186 H 0.4405 0.86391 0.3157 0.0
C1187 C 0.54176 0.88833 0.35044 0.0
C1188 C 0.4935 0.88598 0.37317 0.0
H1189 H 0.46325 0.85313 0.3644 0.0
C1190 C 0.48193 0.90036 0.37402 0.0
C1191 C 0.48672 0.86876 0.36984 0.0
C1192 C 0.49863 0.85286 0.36976 0.0
C1193 C 0.46368 0.89797 0.37081 0.0
C1194 C 0.45687 0.88071 0.36747 0.0
C1195 C 0.46849 0.86635 0.36691 0.0
C1196 C 0.43778 0.87717 0.36395 0.0
C1197 C 0.45192 0.91397 0.37003 0.0
C1198 C 0.42587 0.88222 0.38938 0.0
C1199 C 0.40795 0.87832 0.38622 0.0
C1200 C 0.40171 0.8691 0.35779 0.0
C1201 C 0.41367 0.86399 0.33248 0.0
C1202 C 0.43153 0.86799 0.33554 0.0
H1203 H 0.45939 0.92609 0.36357 0.0
H1204 H 0.4411 0.91231 0.35138 0.0
H1205 H 0.44597 0.91588 0.39545 0.0
H1206 H 0.43046 0.88894 0.41191 0.0
H1207 H 0.39904 0.88231 0.40622 0.0
H1208 H 0.38038 0.16077 0.55905 0.0
H1209 H 0.37227 0.19154 0.56809 0.0
H1210 H 0.36433 0.18116 0.67447 0.0
H1211 H 0.37267 0.1503 0.66571 0.0
H1212 H 0.3411 0.20632 0.59471 0.0
H1213 H 0.39965 0.22223 0.67364 0.0
H1214 H 0.39822 0.20242 0.64855 0.0
H1215 H 0.38659 0.20399 0.68807 0.0
C1216 C 0.37687 0.16501 0.58438 0.0
C1217 C 0.37728 0.15317 0.61174 0.0
C1218 C 0.37221 0.18258 0.58947 0.0
C1219 C 0.36794 0.18866 0.622 0.0
C1220 C 0.36789 0.17678 0.64927 0.0
H1221 H 0.34738 0.29578 0.69143 0.0
H1222 H 0.35002 0.26371 0.6882 0.0
C1223 C 0.37256 0.15916 0.64419 0.0
C1224 C 0.36384 0.20751 0.62719 0.0
H1225 H 0.37907 0.24497 0.66486 0.0
C1226 C 0.34935 0.21478 0.61015 0.0
C1227 C 0.37464 0.21847 0.64737 0.0
C1228 C 0.39074 0.21148 0.66529 0.0
C1229 C 0.34538 0.23277 0.61265 0.0
C1230 C 0.35639 0.24379 0.63225 0.0
C1231 C 0.37066 0.23646 0.64986 0.0
C1232 C 0.35377 0.26309 0.63385 0.0
C1233 C 0.32939 0.2398 0.59445 0.0
C1234 C 0.35509 0.27335 0.60437 0.0
C1235 C 0.35359 0.29165 0.60613 0.0
C1236 C 0.35086 0.30001 0.63746 0.0
C1237 C 0.34944 0.2897 0.66692 0.0
C1238 C 0.35095 0.2714 0.66514 0.0
H1239 H 0.31976 0.22919 0.58883 0.0
H1240 H 0.32274 0.25015 0.60965 0.0
H1241 H 0.33354 0.24571 0.57 0.0
H1242 H 0.35765 0.26723 0.58008 0.0
H1243 H 0.35483 0.29927 0.58304 0.0
H1244 H 0.08706 0.14793 0.92141 0.0
H1245 H 0.05608 0.1403 0.92968 0.0
H1246 H 0.06366 0.09246 0.87266 0.0
H1247 H 0.09472 0.09985 0.86479 0.0
H1248 H 0.03258 0.13667 0.87781 0.0
H1249 H 0.03515 0.07527 0.95368 0.0
H1250 H 0.05377 0.08988 0.94952 0.0
H1251 H 0.04853 0.07462 0.91619 0.0
C1252 C 0.08221 0.13562 0.91121 0.0
C1253 C 0.09329 0.12449 0.89243 0.0
C1254 C 0.06451 0.13129 0.91592 0.0
C1255 C 0.05761 0.11575 0.90205 0.0
C1256 C 0.06878 0.10434 0.88418 0.0
H1257 H 0.94885 0.09846 0.84579 0.0
H1258 H 0.98088 0.10182 0.84699 0.0
C1259 C 0.08651 0.10863 0.87955 0.0
C1260 C 0.03843 0.11235 0.90351 0.0
H1261 H 0.00749 0.08238 0.92835 0.0
C1262 C 0.02709 0.12485 0.88906 0.0
C1263 C 0.0313 0.09697 0.91838 0.0
C1264 C 0.04279 0.08348 0.93562 0.0
C1265 C 0.00883 0.12227 0.88855 0.0
C1266 C 0.00175 0.10662 0.90233 0.0
C1267 C 0.01302 0.09426 0.91742 0.0
C1268 C 0.98261 0.10309 0.90169 0.0
C1269 C 0.99725 0.13643 0.87359 0.0
C1270 C 0.9731 0.10208 0.93208 0.0
C1271 C 0.95481 0.10009 0.93148 0.0
C1272 C 0.94579 0.09901 0.90044 0.0
C1273 C 0.95544 0.09936 0.87007 0.0
C1274 C 0.97371 0.10135 0.8707 0.0
H1275 H 0.00424 0.14925 0.87174 0.0
H1276 H 0.9932 0.13248 0.84767 0.0
H1277 H 0.98517 0.13828 0.88904 0.0
H1278 H 0.97976 0.10333 0.95624 0.0
H1279 H 0.94772 0.09979 0.95529 0.0
H1280 H 0.84471 0.70479 0.68333 0.0
H1281 H 0.84681 0.73686 0.6789 0.0
H1282 H 0.8633 0.73193 0.57469 0.0
H1283 H 0.86073 0.69992 0.57867 0.0
H1284 H 0.87554 0.75621 0.66625 0.0
H1285 H 0.82598 0.76921 0.5665 0.0
H1286 H 0.82751 0.74831 0.58802 0.0
H1287 H 0.84208 0.75337 0.55336 0.0
C1288 C 0.84857 0.71057 0.65936 0.0
C1289 C 0.85249 0.69988 0.63129 0.0
C1290 C 0.84978 0.72888 0.65687 0.0
C1291 C 0.85493 0.73682 0.62631 0.0
C1292 C 0.85883 0.72614 0.59824 0.0
H1293 H 0.89083 0.83827 0.56176 0.0
H1294 H 0.88306 0.80725 0.5691 0.0
C1295 C 0.85748 0.70784 0.60062 0.0
C1296 C 0.85731 0.75616 0.62441 0.0
H1297 H 0.84628 0.7926 0.57835 0.0
C1298 C 0.86896 0.7642 0.64732 0.0
C1299 C 0.84868 0.76658 0.59973 0.0
C1300 C 0.83523 0.75896 0.57575 0.0
C1301 C 0.87267 0.78226 0.64547 0.0
C1302 C 0.86447 0.79252 0.62015 0.0
C1303 C 0.85258 0.78461 0.59764 0.0
C1304 C 0.86869 0.81135 0.61573 0.0
C1305 C 0.88574 0.7902 0.66986 0.0
C1306 C 0.863 0.82388 0.63944 0.0
C1307 C 0.86735 0.84164 0.63526 0.0
C1308 C 0.8775 0.84707 0.60737 0.0
C1309 C 0.88304 0.83447 0.58357 0.0
C1310 C 0.87859 0.81677 0.58765 0.0
H1311 H 0.8927 0.78002 0.685 0.0
H1312 H 0.89564 0.79815 0.6559 0.0
H1313 H 0.87874 0.79913 0.68757 0.0
H1314 H 0.85523 0.8199 0.66115 0.0
H1315 H 0.86288 0.85107 0.65394 0.0
H1316 H 0.91005 0.12931 0.30372 0.0
H1317 H 0.94131 0.12207 0.3074 0.0
H1318 H 0.93656 0.11591 0.41571 0.0
H1319 H 0.9051 0.1228 0.41212 0.0
H1320 H 0.96653 0.14014 0.34197 0.0
H1321 H 0.96281 0.07142 0.38909 0.0
H1322 H 0.94399 0.08283 0.37187 0.0
H1323 H 0.95097 0.08695 0.41469 0.0
C1324 C 0.91562 0.12625 0.3283 0.0
C1325 C 0.90514 0.12659 0.35764 0.0
C1326 C 0.93348 0.12212 0.33035 0.0
C1327 C 0.94122 0.11823 0.36174 0.0
C1328 C 0.93077 0.11848 0.39112 0.0
H1329 H 0.04841 0.10385 0.42946 0.0
H1330 H 0.01645 0.10695 0.4245 0.0
C1331 C 0.91284 0.12253 0.38907 0.0
C1332 C 0.9604 0.11488 0.36379 0.0
H1333 H 0.99115 0.08482 0.38906 0.0
C1334 C 0.97191 0.12799 0.35204 0.0
C1335 C 0.96737 0.09903 0.377 0.0
C1336 C 0.95566 0.08417 0.3886 0.0
C1337 C 0.99021 0.12582 0.35365 0.0
C1338 C 0.99717 0.11003 0.36702 0.0
C1339 C 0.98571 0.0969 0.37878 0.0
C1340 C 0.01637 0.10713 0.36968 0.0
C1341 C 0.00198 0.14058 0.34177 0.0
C1342 C 0.02681 0.10587 0.34045 0.0
C1343 C 0.04507 0.10407 0.34318 0.0
C1344 C 0.05313 0.10351 0.37521 0.0
C1345 C 0.04257 0.10432 0.40443 0.0
C1346 C 0.02433 0.10605 0.40166 0.0
H1347 H 0.99466 0.15315 0.33882 0.0
H1348 H 0.01299 0.14268 0.35983 0.0
H1349 H 0.00772 0.13707 0.31681 0.0
H1350 H 0.02085 0.10645 0.31553 0.0
H1351 H 0.05288 0.10341 0.32024 0.0
H1352 H 0.65541 0.29326 0.18466 0.0
H1353 H 0.65055 0.26155 0.17927 0.0
H1354 H 0.62501 0.26978 0.08293 0.0
H1355 H 0.62965 0.30156 0.08829 0.0
H1356 H 0.60618 0.24801 0.12787 0.0
H1357 H 0.67588 0.22674 0.11632 0.0
H1358 H 0.67125 0.24041 0.15237 0.0
H1359 H 0.66909 0.2493 0.11037 0.0
C1360 C 0.64887 0.28831 0.16222 0.0
C1361 C 0.64295 0.29987 0.13684 0.0
C1362 C 0.64619 0.27019 0.15911 0.0
C1363 C 0.63765 0.26333 0.13049 0.0
C1364 C 0.63172 0.27484 0.10512 0.0
H1365 H 0.60409 0.16072 0.06188 0.0
H1366 H 0.61025 0.19205 0.06913 0.0
C1367 C 0.6344 0.29296 0.1082 0.0
C1368 C 0.63426 0.24421 0.12762 0.0
H1369 H 0.65451 0.2042 0.12216 0.0
C1370 C 0.61673 0.23842 0.1265 0.0
C1371 C 0.64808 0.23176 0.12607 0.0
C1372 C 0.66714 0.23732 0.12605 0.0
C1373 C 0.61263 0.22047 0.12414 0.0
C1374 C 0.62644 0.20803 0.12225 0.0
C1375 C 0.64397 0.21379 0.12367 0.0
C1376 C 0.62294 0.18901 0.11788 0.0
C1377 C 0.59355 0.21495 0.12421 0.0
C1378 C 0.62846 0.17687 0.1425 0.0
C1379 C 0.62504 0.15891 0.13834 0.0
C1380 C 0.61614 0.15283 0.10939 0.0
C1381 C 0.61087 0.16502 0.08458 0.0
C1382 C 0.61429 0.18293 0.08874 0.0
H1383 H 0.58492 0.22536 0.13491 0.0
H1384 H 0.58926 0.21242 0.09777 0.0
H1385 H 0.59165 0.20267 0.13905 0.0
H1386 H 0.63526 0.18132 0.16506 0.0
H1387 H 0.62931 0.1498 0.15781 0.0
H1388 H 0.59923 0.89203 0.89704 0.0
H1389 H 0.56794 0.89909 0.90433 0.0
H1390 H 0.55383 0.84949 0.85865 0.0
H1391 H 0.58494 0.84229 0.85157 0.0
H1392 H 0.54192 0.90168 0.85338 0.0
H1393 H 0.52555 0.84992 0.94743 0.0
H1394 H 0.54791 0.85637 0.93815 0.0
H1395 H 0.53634 0.84171 0.91016 0.0
C1396 C 0.58944 0.88258 0.88882 0.0
C1397 C 0.59451 0.86657 0.8739 0.0
C1398 C 0.57161 0.88665 0.89292 0.0
C1399 C 0.55861 0.8747 0.88243 0.0
C1400 C 0.56366 0.85874 0.8675 0.0
H1401 H 0.44849 0.89086 0.83723 0.0
H1402 H 0.48041 0.88649 0.83525 0.0
C1403 C 0.58144 0.85468 0.86334 0.0
C1404 C 0.53973 0.87908 0.88607 0.0
H1405 H 0.50137 0.86457 0.92128 0.0
C1406 C 0.53305 0.89366 0.86842 0.0
C1407 C 0.52827 0.8687 0.906 0.0
C1408 C 0.53487 0.85339 0.92679 0.0
C1409 C 0.51507 0.89786 0.86943 0.0
C1410 C 0.50349 0.88703 0.88822 0.0
C1411 C 0.51026 0.87274 0.90662 0.0
C1412 C 0.48427 0.89022 0.88914 0.0
C1413 C 0.50864 0.9139 0.85058 0.0
C1414 C 0.47584 0.89343 0.92015 0.0
C1415 C 0.45763 0.8958 0.92138 0.0
C1416 C 0.44751 0.89491 0.89161 0.0
C1417 C 0.45597 0.8917 0.86055 0.0
C1418 C 0.4742 0.88932 0.85935 0.0
H1419 H 0.51954 0.92325 0.84521 0.0
H1420 H 0.50291 0.90975 0.82599 0.0
H1421 H 0.49829 0.92088 0.8652 0.0
H1422 H 0.48337 0.89407 0.94344 0.0
H1423 H 0.45147 0.89823 0.9457 0.0
H1424 H 0.8449 0.29544 0.80891 0.0
H1425 H 0.84887 0.26345 0.81142 0.0
H1426 H 0.87252 0.26837 0.9103 0.0
H1427 H 0.86854 0.30035 0.90811 0.0
H1428 H 0.89188 0.24757 0.8577 0.0
H1429 H 0.82192 0.22773 0.87558 0.0
H1430 H 0.82669 0.2435 0.84276 0.0
H1431 H 0.82981 0.24946 0.88632 0.0
C1432 C 0.85085 0.28969 0.83127 0.0
C1433 C 0.8564 0.30037 0.85835 0.0
C1434 C 0.85304 0.27145 0.83269 0.0
C1435 C 0.86085 0.26362 0.86114 0.0
C1436 C 0.86639 0.27422 0.8882 0.0
H1437 H 0.89595 0.16138 0.92474 0.0
H1438 H 0.89019 0.19266 0.91634 0.0
C1439 C 0.8641 0.29245 0.88692 0.0
C1440 C 0.86385 0.24442 0.86226 0.0
H1441 H 0.84285 0.20497 0.87078 0.0
C1442 C 0.88119 0.23822 0.86051 0.0
C1443 C 0.84981 0.23234 0.86551 0.0
C1444 C 0.83098 0.23849 0.86786 0.0
C1445 C 0.88492 0.22017 0.86209 0.0
C1446 C 0.87094 0.20806 0.86648 0.0
C1447 C 0.85354 0.21427 0.86751 0.0
C1448 C 0.87418 0.18901 0.87151 0.0
C1449 C 0.9038 0.21424 0.85867 0.0
C1450 C 0.86658 0.17651 0.84977 0.0
C1451 C 0.86967 0.15853 0.85478 0.0
C1452 C 0.8804 0.15283 0.88165 0.0
C1453 C 0.88777 0.16538 0.9036 0.0
C1454 C 0.88459 0.18328 0.89872 0.0
H1455 H 0.91187 0.22414 0.84498 0.0
H1456 H 0.90957 0.21253 0.8843 0.0
H1457 H 0.90472 0.20149 0.84501 0.0
H1458 H 0.85838 0.18067 0.82879 0.0
H1459 H 0.86377 0.14914 0.83755 0.0
H1460 H 0.58934 0.14288 0.68024 0.0
H1461 H 0.55798 0.13699 0.67264 0.0
H1462 H 0.56856 0.11383 0.57495 0.0
H1463 H 0.6001 0.11958 0.58247 0.0
H1464 H 0.53615 0.14941 0.61934 0.0
H1465 H 0.53858 0.07629 0.62447 0.0
H1466 H 0.55644 0.08995 0.63929 0.0
H1467 H 0.55328 0.08652 0.59467 0.0
C1468 C 0.58503 0.13646 0.65719 0.0
C1469 C 0.59717 0.13164 0.63197 0.0
C1470 C 0.56711 0.13313 0.65289 0.0
C1471 C 0.561 0.12481 0.62343 0.0
C1472 C 0.57307 0.12 0.59812 0.0
H1473 H 0.45567 0.09556 0.55812 0.0
H1474 H 0.48743 0.10043 0.56244 0.0
C1475 C 0.59104 0.12337 0.60238 0.0
C1476 C 0.54192 0.12167 0.61903 0.0
H1477 H 0.511 0.08925 0.61241 0.0
C1478 C 0.53063 0.13626 0.61784 0.0
C1479 C 0.53482 0.1045 0.61697 0.0
C1480 C 0.54635 0.08837 0.61917 0.0
C1481 C 0.51237 0.13416 0.61446 0.0
C1482 C 0.50523 0.11699 0.61292 0.0
C1483 C 0.51654 0.10239 0.6137 0.0
C1484 C 0.48602 0.11391 0.61066 0.0
C1485 C 0.50093 0.15035 0.61204 0.0
C1486 C 0.47476 0.11964 0.63662 0.0
C1487 C 0.45662 0.11691 0.6342 0.0
C1488 C 0.44946 0.10829 0.60588 0.0
C1489 C 0.4608 0.10228 0.58021 0.0
C1490 C 0.47894 0.10504 0.58264 0.0
H1491 H 0.50864 0.16215 0.60453 0.0
H1492 H 0.49013 0.14841 0.59344 0.0
H1493 H 0.49494 0.15301 0.63717 0.0
H1494 H 0.48002 0.12619 0.6588 0.0
H1495 H 0.44821 0.12158 0.65445 0.0
H1496 H 0.64945 0.70005 0.30427 0.0
H1497 H 0.64591 0.73202 0.30728 0.0
H1498 H 0.63649 0.72835 0.41484 0.0
H1499 H 0.64004 0.69631 0.41208 0.0
H1500 H 0.61486 0.74945 0.33092 0.0
H1501 H 0.67434 0.76773 0.40496 0.0
H1502 H 0.67229 0.74694 0.38307 0.0
H1503 H 0.66126 0.75031 0.42279 0.0
C1504 C 0.6468 0.70606 0.32864 0.0
C1505 C 0.64502 0.6957 0.35797 0.0
C1506 C 0.64477 0.7243 0.33029 0.0
C1507 C 0.64112 0.73251 0.36131 0.0
C1508 C 0.63958 0.72225 0.39075 0.0
H1509 H 0.59446 0.83271 0.40599 0.0
H1510 H 0.60204 0.80165 0.39906 0.0
C1511 C 0.64153 0.70397 0.3891 0.0
C1512 C 0.63787 0.75169 0.36247 0.0
H1513 H 0.65295 0.79017 0.3964 0.0
C1514 C 0.62324 0.75838 0.34505 0.0
C1515 C 0.64894 0.76327 0.38068 0.0
C1516 C 0.66519 0.75679 0.39874 0.0
C1517 C 0.61909 0.77636 0.34612 0.0
C1518 C 0.62981 0.78785 0.36524 0.0
C1519 C 0.64473 0.78126 0.38191 0.0
C1520 C 0.62535 0.80666 0.36914 0.0
C1521 C 0.60325 0.78295 0.32686 0.0
C1522 C 0.63611 0.81971 0.35488 0.0
C1523 C 0.63178 0.8375 0.35867 0.0
C1524 C 0.61674 0.84245 0.37711 0.0
C1525 C 0.6061 0.8293 0.39156 0.0
C1526 C 0.61037 0.81156 0.38757 0.0
H1527 H 0.59871 0.77329 0.30762 0.0
H1528 H 0.5923 0.7853 0.3449 0.0
H1529 H 0.60625 0.7956 0.31398 0.0
H1530 H 0.64777 0.81612 0.34068 0.0
H1531 H 0.64025 0.84737 0.3474 0.0
H1532 H 0.9113 0.85675 0.18193 0.0
H1533 H 0.9427 0.86196 0.1731 0.0
H1534 H 0.93271 0.87536 0.06862 0.0
H1535 H 0.90114 0.8704 0.0774 0.0
H1536 H 0.9648 0.84478 0.12736 0.0
H1537 H 0.96262 0.91676 0.10222 0.0
H1538 H 0.94438 0.90498 0.12082 0.0
H1539 H 0.94845 0.90359 0.07605 0.0
C1540 C 0.91576 0.86092 0.15712 0.0
C1541 C 0.90377 0.86322 0.13036 0.0
C1542 C 0.9337 0.86387 0.15212 0.0
C1543 C 0.93999 0.86923 0.12033 0.0
C1544 C 0.92807 0.87154 0.09351 0.0
H1545 H 0.04725 0.8914 0.05291 0.0
H1546 H 0.01542 0.88622 0.05496 0.0
C1547 C 0.91007 0.86863 0.09852 0.0
C1548 C 0.95912 0.87183 0.11526 0.0
H1549 H 0.99027 0.90277 0.09676 0.0
C1550 C 0.97038 0.85745 0.12064 0.0
C1551 C 0.96632 0.88836 0.10632 0.0
C1552 C 0.95487 0.90437 0.10126 0.0
C1553 C 0.98868 0.85916 0.11745 0.0
C1554 C 0.99591 0.87577 0.1092 0.0
C1555 C 0.98465 0.89007 0.10313 0.0
C1556 C 0.01515 0.87868 0.10783 0.0
C1557 C 0.00011 0.84315 0.1227 0.0
C1558 C 0.02546 0.87634 0.13699 0.0
C1559 C 0.0436 0.87925 0.1359 0.0
C1560 C 0.05172 0.88468 0.10566 0.0
C1561 C 0.04135 0.88716 0.07654 0.0
C1562 C 0.02319 0.88424 0.07766 0.0
H1563 H 0.99252 0.83076 0.11953 0.0
H1564 H 0.01134 0.84306 0.10469 0.0
H1565 H 0.00549 0.84335 0.14885 0.0
H1566 H 0.01945 0.8724 0.1607 0.0
H1567 H 0.05123 0.87735 0.1588 0.0
H1568 H 0.64889 0.79667 0.80347 0.0
H1569 H 0.64662 0.76454 0.80557 0.0
H1570 H 0.64908 0.76617 0.91473 0.0
H1571 H 0.6516 0.79828 0.91286 0.0
H1572 H 0.66935 0.7387 0.88496 0.0
H1573 H 0.60065 0.74062 0.83641 0.0
H1574 H 0.61672 0.75136 0.81019 0.0
H1575 H 0.6119 0.76 0.85153 0.0
C1576 C 0.64912 0.79017 0.8279 0.0
C1577 C 0.65026 0.79998 0.85803 0.0
C1578 C 0.64776 0.77184 0.82905 0.0
C1579 C 0.64741 0.76305 0.86032 0.0
C1580 C 0.64928 0.77275 0.89035 0.0
H1581 H 0.60355 0.66353 0.91568 0.0
H1582 H 0.612 0.69428 0.90818 0.0
C1583 C 0.65067 0.79107 0.88924 0.0
C1584 C 0.64419 0.74386 0.86194 0.0
H1585 H 0.61295 0.71263 0.84633 0.0
C1586 C 0.65708 0.73294 0.87636 0.0
C1587 C 0.62807 0.73648 0.85102 0.0
C1588 C 0.61345 0.74769 0.83667 0.0
C1589 C 0.65421 0.71479 0.88032 0.0
C1590 C 0.63812 0.70743 0.86924 0.0
C1591 C 0.62532 0.71833 0.85457 0.0
C1592 C 0.63375 0.68865 0.8745 0.0
C1593 C 0.66815 0.70372 0.89727 0.0
C1594 C 0.6432 0.67529 0.85799 0.0
C1595 C 0.6384 0.65763 0.86225 0.0
C1596 C 0.62402 0.65314 0.88296 0.0
C1597 C 0.61469 0.66657 0.89957 0.0
C1598 C 0.61948 0.68415 0.8953 0.0
H1599 H 0.67822 0.71192 0.9102 0.0
H1600 H 0.66214 0.6947 0.91615 0.0
H1601 H 0.67488 0.69557 0.87788 0.0
H1602 H 0.65409 0.67853 0.84141 0.0
H1603 H 0.64578 0.64755 0.84906 0.0
H1604 H 0.44977 0.39345 0.16078 0.0
H1605 H 0.48168 0.38997 0.16627 0.0
H1606 H 0.48732 0.39458 0.05786 0.0
H1607 H 0.45545 0.3982 0.05216 0.0
H1608 H 0.50191 0.36303 0.1356 0.0
H1609 H 0.52417 0.42946 0.09511 0.0
H1610 H 0.5018 0.42498 0.108 0.0
H1611 H 0.50924 0.41868 0.06652 0.0
C1612 C 0.45783 0.39389 0.13815 0.0
C1613 C 0.45014 0.39612 0.10605 0.0
C1614 C 0.47603 0.39189 0.14133 0.0
C1615 C 0.48685 0.39224 0.11251 0.0
C1616 C 0.47923 0.39461 0.08046 0.0
H1617 H 0.59885 0.37421 0.08106 0.0
H1618 H 0.56749 0.38098 0.07395 0.0
C1619 C 0.46102 0.39658 0.07724 0.0
C1620 C 0.506 0.38913 0.11587 0.0
H1621 H 0.54631 0.40782 0.10291 0.0
C1622 C 0.51163 0.37284 0.12862 0.0
C1623 C 0.5186 0.40192 0.10644 0.0
C1624 C 0.51321 0.41981 0.0935 0.0
C1625 C 0.52957 0.36892 0.13192 0.0
C1626 C 0.54219 0.38177 0.12287 0.0
C1627 C 0.53658 0.39802 0.10986 0.0
C1628 C 0.56128 0.37862 0.12728 0.0
C1629 C 0.53486 0.35091 0.1445 0.0
C1630 C 0.56819 0.3755 0.15969 0.0
C1631 C 0.58601 0.3716 0.16379 0.0
C1632 C 0.59727 0.3709 0.13557 0.0
C1633 C 0.59046 0.37462 0.10324 0.0
C1634 C 0.57258 0.37849 0.09914 0.0
H1635 H 0.52403 0.34121 0.1416 0.0
H1636 H 0.5466 0.34597 0.1307 0.0
H1637 H 0.5382 0.35174 0.17183 0.0
H1638 H 0.55975 0.37591 0.1818 0.0
H1639 H 0.59091 0.36893 0.18906 0.0
H1640 H 0.87177 0.19476 0.40829 0.0
H1641 H 0.87528 0.22665 0.41356 0.0
H1642 H 0.84845 0.23399 0.31824 0.0
H1643 H 0.84525 0.20207 0.31242 0.0
H1644 H 0.87837 0.25361 0.32264 0.0
H1645 H 0.83811 0.26259 0.43852 0.0
H1646 H 0.85535 0.24669 0.44374 0.0
H1647 H 0.83782 0.2425 0.41415 0.0
C1648 C 0.86655 0.20318 0.38853 0.0
C1649 C 0.85817 0.19595 0.36 0.0
C1650 C 0.86846 0.22139 0.39169 0.0
C1651 C 0.86182 0.2327 0.36661 0.0
C1652 C 0.85356 0.22549 0.33799 0.0
H1653 H 0.8632 0.34723 0.34435 0.0
H1654 H 0.85696 0.31576 0.33732 0.0
C1655 C 0.85174 0.20728 0.33471 0.0
C1656 C 0.86404 0.25201 0.36965 0.0
H1657 H 0.85579 0.28703 0.42154 0.0
C1658 C 0.87329 0.26095 0.34409 0.0
C1659 C 0.85734 0.26156 0.39763 0.0
C1660 C 0.84645 0.25288 0.4249 0.0
C1661 C 0.87648 0.27911 0.34626 0.0
C1662 C 0.87012 0.28854 0.37459 0.0
C1663 C 0.86068 0.27968 0.39992 0.0
C1664 C 0.87362 0.30754 0.37888 0.0
C1665 C 0.88702 0.28802 0.31877 0.0
C1666 C 0.88481 0.31325 0.40487 0.0
C1667 C 0.88842 0.33115 0.40889 0.0
C1668 C 0.88075 0.34364 0.38715 0.0
C1669 C 0.86932 0.33789 0.36141 0.0
C1670 C 0.8658 0.31995 0.35729 0.0
H1671 H 0.89351 0.27838 0.30168 0.0
H1672 H 0.87815 0.29639 0.3033 0.0
H1673 H 0.89725 0.29668 0.33002 0.0
H1674 H 0.89091 0.30383 0.42182 0.0
H1675 H 0.89724 0.33518 0.42901 0.0
H1676 H 0.90111 0.60434 0.62079 0.0
H1677 H 0.93244 0.59668 0.61925 0.0
H1678 H 0.94598 0.65118 0.63556 0.0
H1679 H 0.91479 0.65876 0.63841 0.0
H1680 H 0.95853 0.60624 0.57866 0.0
H1681 H 0.97431 0.62821 0.7087 0.0
H1682 H 0.95198 0.62624 0.69367 0.0
H1683 H 0.96473 0.64565 0.68431 0.0
C1684 C 0.9108 0.61466 0.6241 0.0
C1685 C 0.90555 0.63211 0.63003 0.0
C1686 C 0.92868 0.61027 0.62324 0.0
C1687 C 0.94156 0.62328 0.62813 0.0
C1688 C 0.93629 0.64082 0.63286 0.0
H1689 H 0.05055 0.61991 0.56793 0.0
H1690 H 0.01864 0.62316 0.57186 0.0
C1691 C 0.91846 0.64516 0.63419 0.0
C1692 C 0.96054 0.61867 0.62759 0.0
H1693 H 0.99888 0.62381 0.67152 0.0
C1694 C 0.96733 0.60992 0.59912 0.0
C1695 C 0.97197 0.62309 0.65461 0.0
C1696 C 0.96533 0.63113 0.68719 0.0
C1697 C 0.98534 0.60606 0.59639 0.0
C1698 C 0.99695 0.61162 0.62235 0.0
C1699 C 0.99005 0.61978 0.65136 0.0
C1700 C 0.01632 0.60942 0.61976 0.0
C1701 C 0.99166 0.59589 0.56586 0.0
C1702 C 0.02576 0.60121 0.64599 0.0
C1703 C 0.04408 0.59972 0.64416 0.0
C1704 C 0.05324 0.6063 0.61596 0.0
C1705 C 0.0438 0.61455 0.5898 0.0
C1706 C 0.02553 0.61627 0.59187 0.0
H1707 H 0.98098 0.58764 0.55503 0.0
H1708 H 0.9959 0.60528 0.54592 0.0
H1709 H 0.00295 0.58725 0.5723 0.0
H1710 H 0.01895 0.59593 0.66787 0.0
H1711 H 0.05103 0.59329 0.66468 0.0
H1712 H 0.65284 0.20296 0.68992 0.0
H1713 H 0.6486 0.23487 0.68545 0.0
H1714 H 0.63305 0.22896 0.58098 0.0
H1715 H 0.63729 0.19708 0.58514 0.0
H1716 H 0.66474 0.25947 0.63433 0.0
H1717 H 0.59165 0.25573 0.63082 0.0
H1718 H 0.60516 0.23812 0.64722 0.0
H1719 H 0.6032 0.24131 0.6023 0.0
C1720 C 0.64856 0.20847 0.66598 0.0
C1721 C 0.64531 0.19754 0.63791 0.0
C1722 C 0.64619 0.22667 0.66348 0.0
C1723 C 0.64038 0.23416 0.633 0.0
C1724 C 0.63739 0.22334 0.6048 0.0
H1725 H 0.60853 0.33606 0.56201 0.0
H1726 H 0.61591 0.30506 0.56988 0.0
C1727 C 0.63985 0.20517 0.60721 0.0
C1728 C 0.63717 0.25329 0.63068 0.0
H1729 H 0.60448 0.28354 0.62035 0.0
C1730 C 0.65159 0.26481 0.63147 0.0
C1731 C 0.61999 0.26009 0.62699 0.0
C1732 C 0.60405 0.24823 0.62702 0.0
C1733 C 0.64928 0.28305 0.62756 0.0
C1734 C 0.63207 0.28986 0.62354 0.0
C1735 C 0.61766 0.27829 0.62335 0.0
C1736 C 0.62863 0.30886 0.61842 0.0
C1737 C 0.66531 0.29476 0.62664 0.0
C1738 C 0.63336 0.32131 0.6431 0.0
C1739 C 0.62926 0.33911 0.63853 0.0
C1740 C 0.62017 0.34466 0.60942 0.0
C1741 C 0.61553 0.33218 0.58473 0.0
C1742 C 0.61972 0.31446 0.58919 0.0
H1743 H 0.6775 0.28717 0.62134 0.0
H1744 H 0.66389 0.30518 0.60708 0.0
H1745 H 0.6669 0.30126 0.65164 0.0
H1746 H 0.6399 0.31723 0.66618 0.0
H1747 H 0.6329 0.34845 0.65806 0.0
H1748 H 0.04849 0.39572 0.94189 0.0
H1749 H 0.01652 0.39189 0.93997 0.0
H1750 H 0.01928 0.38266 0.83224 0.0
H1751 H 0.05122 0.38674 0.83385 0.0
H1752 H 0.99276 0.4062 0.85108 0.0
H1753 H 0.99029 0.34521 0.92877 0.0
H1754 H 0.00143 0.36342 0.94832 0.0
H1755 H 0.01049 0.35354 0.9108 0.0
C1756 C 0.04229 0.39285 0.91781 0.0
C1757 C 0.05235 0.39145 0.88803 0.0
C1758 C 0.02404 0.39057 0.9168 0.0
C1759 C 0.01558 0.38673 0.88606 0.0
C1760 C 0.02558 0.38554 0.85624 0.0
H1761 H 0.91158 0.36326 0.81374 0.0
H1762 H 0.94278 0.37002 0.82115 0.0
C1763 C 0.04381 0.38785 0.85721 0.0
C1764 C 0.99628 0.38418 0.88476 0.0
H1765 H 0.96301 0.35769 0.91281 0.0
C1766 C 0.98624 0.39561 0.86458 0.0
C1767 C 0.98783 0.37038 0.90254 0.0
C1768 C 0.99804 0.35732 0.92362 0.0
C1769 C 0.96795 0.39359 0.86163 0.0
C1770 C 0.95956 0.37963 0.87895 0.0
C1771 C 0.96952 0.3684 0.89964 0.0
C1772 C 0.94057 0.37595 0.87462 0.0
C1773 C 0.95775 0.40647 0.84015 0.0
C1774 C 0.92907 0.37672 0.90241 0.0
C1775 C 0.9112 0.37282 0.89828 0.0
C1776 C 0.90464 0.36792 0.86633 0.0
C1777 C 0.91624 0.36707 0.83863 0.0
C1778 C 0.93404 0.37102 0.84276 0.0
H1779 H 0.96517 0.4189 0.83616 0.0
H1780 H 0.95521 0.40051 0.81493 0.0
H1781 H 0.94486 0.40964 0.85194 0.0
H1782 H 0.93392 0.38038 0.92725 0.0
H1783 H 0.90257 0.37353 0.92008 0.0
H1784 H 0.84798 0.79352 0.19568 0.0
H1785 H 0.85281 0.76161 0.19445 0.0
H1786 H 0.86589 0.76464 0.08827 0.0
H1787 H 0.8611 0.79649 0.08922 0.0
H1788 H 0.83652 0.73494 0.14912 0.0
H1789 H 0.90912 0.74067 0.1361 0.0
H1790 H 0.89553 0.75852 0.15121 0.0
H1791 H 0.89647 0.75361 0.10673 0.0
C1792 C 0.8518 0.78737 0.17204 0.0
C1793 C 0.85426 0.79749 0.14257 0.0
C1794 C 0.85453 0.76917 0.1714 0.0
C1795 C 0.85989 0.76089 0.14139 0.0
C1796 C 0.86195 0.77089 0.11177 0.0
H1797 H 0.89106 0.65966 0.07028 0.0
H1798 H 0.88388 0.69051 0.08003 0.0
C1799 C 0.85916 0.78904 0.11233 0.0
C1800 C 0.86366 0.74181 0.14097 0.0
H1801 H 0.89681 0.71229 0.12841 0.0
C1802 C 0.8497 0.72991 0.14489 0.0
C1803 C 0.88089 0.73541 0.1356 0.0
C1804 C 0.89642 0.74767 0.13244 0.0
C1805 C 0.85241 0.71168 0.14207 0.0
C1806 C 0.86961 0.70527 0.13592 0.0
C1807 C 0.88363 0.71722 0.13302 0.0
C1808 C 0.87333 0.68635 0.13035 0.0
C1809 C 0.83675 0.69951 0.1443 0.0
C1810 C 0.86982 0.67372 0.15549 0.0
C1811 C 0.87378 0.65596 0.14983 0.0
C1812 C 0.88154 0.65065 0.11916 0.0
C1813 C 0.88512 0.66335 0.09421 0.0
C1814 C 0.88103 0.681 0.09974 0.0
H1815 H 0.82413 0.7067 0.14102 0.0
H1816 H 0.83755 0.689 0.12481 0.0
H1817 H 0.83657 0.69315 0.16962 0.0
H1818 H 0.86423 0.67762 0.17959 0.0
H1819 H 0.87098 0.64645 0.16957 0.0
H1820 H 0.58463 0.64267 0.32533 0.0
H1821 H 0.55404 0.63331 0.3312 0.0
H1822 H 0.5692 0.59598 0.40818 0.0
H1823 H 0.60002 0.60534 0.40253 0.0
H1824 H 0.54039 0.59776 0.32301 0.0
H1825 H 0.52875 0.62588 0.45152 0.0
H1826 H 0.54684 0.63291 0.4251 0.0
H1827 H 0.54771 0.61197 0.44604 0.0
C1828 C 0.58148 0.6325 0.3436 0.0
C1829 C 0.5947 0.62477 0.36358 0.0
C1830 C 0.56401 0.62715 0.34684 0.0
C1831 C 0.55939 0.61407 0.37025 0.0
C1832 C 0.57252 0.60625 0.39022 0.0
H1833 H 0.45151 0.58209 0.42007 0.0
H1834 H 0.48375 0.58292 0.41789 0.0
C1835 C 0.59009 0.61156 0.38691 0.0
C1836 C 0.54074 0.60872 0.37332 0.0
H1837 H 0.50474 0.61234 0.42454 0.0
C1838 C 0.5326 0.60078 0.34531 0.0
C1839 C 0.53071 0.6126 0.40254 0.0
C1840 C 0.53883 0.6214 0.43304 0.0
C1841 C 0.51454 0.59695 0.34544 0.0
C1842 C 0.50433 0.60156 0.37407 0.0
C1843 C 0.51261 0.60887 0.4026 0.0
C1844 C 0.48489 0.60003 0.37409 0.0
C1845 C 0.50656 0.58811 0.31485 0.0
C1846 C 0.47489 0.60941 0.35026 0.0
C1847 C 0.45653 0.60894 0.3514 0.0
C1848 C 0.44784 0.59919 0.3766 0.0
C1849 C 0.45786 0.58967 0.40029 0.0
C1850 C 0.47625 0.59014 0.39911 0.0
H1851 H 0.51658 0.58053 0.30043 0.0
H1852 H 0.49574 0.57907 0.32225 0.0
H1853 H 0.50109 0.5983 0.29767 0.0
H1854 H 0.48128 0.61746 0.33123 0.0
H1855 H 0.44916 0.6165 0.33295 0.0
H1856 H 0.39557 0.33767 0.06066 0.0
H1857 H 0.38854 0.30646 0.06703 0.0
H1858 H 0.36184 0.31752 0.16114 0.0
H1859 H 0.36852 0.34889 0.15456 0.0
H1860 H 0.3984 0.28422 0.11827 0.0
H1861 H 0.32554 0.28822 0.11053 0.0
H1862 H 0.33967 0.30625 0.09841 0.0
H1863 H 0.33513 0.30208 0.14241 0.0
C1864 C 0.3881 0.33348 0.08261 0.0
C1865 C 0.38254 0.34572 0.10707 0.0
C1866 C 0.3841 0.31565 0.08621 0.0
C1867 C 0.37445 0.30971 0.11429 0.0
C1868 C 0.36895 0.32188 0.13888 0.0
H1869 H 0.34518 0.20497 0.18288 0.0
H1870 H 0.34999 0.23672 0.17733 0.0
C1871 C 0.37288 0.33977 0.13521 0.0
C1872 C 0.3708 0.29066 0.11831 0.0
H1873 H 0.33768 0.26047 0.12521 0.0
C1874 C 0.38513 0.27902 0.11967 0.0
C1875 C 0.35346 0.28393 0.12022 0.0
C1876 C 0.33755 0.29573 0.11752 0.0
C1877 C 0.3826 0.26083 0.12313 0.0
C1878 C 0.36528 0.2541 0.12486 0.0
C1879 C 0.35094 0.26572 0.12383 0.0
C1880 C 0.36183 0.235 0.12758 0.0
C1881 C 0.39848 0.24896 0.12542 0.0
C1882 C 0.36661 0.22361 0.10115 0.0
C1883 C 0.36386 0.2055 0.10421 0.0
C1884 C 0.35625 0.1985 0.13374 0.0
C1885 C 0.35113 0.20999 0.15987 0.0
C1886 C 0.35384 0.22811 0.15675 0.0
H1887 H 0.41063 0.25643 0.13163 0.0
H1888 H 0.3965 0.23861 0.14493 0.0
H1889 H 0.40051 0.24236 0.10064 0.0
H1890 H 0.37255 0.22874 0.07822 0.0
H1891 H 0.36787 0.19697 0.08361 0.0
H1892 H 0.41408 0.64733 0.82166 0.0
H1893 H 0.44506 0.63911 0.82588 0.0
H1894 H 0.43294 0.60441 0.90924 0.0
H1895 H 0.40174 0.61231 0.90467 0.0
H1896 H 0.46676 0.644 0.88032 0.0
H1897 H 0.46253 0.57295 0.84805 0.0
H1898 H 0.44467 0.58809 0.84031 0.0
H1899 H 0.44852 0.57975 0.88229 0.0
C1900 C 0.41797 0.63785 0.84075 0.0
C1901 C 0.4055 0.63044 0.86283 0.0
C1902 C 0.43568 0.63316 0.84311 0.0
C1903 C 0.44127 0.62099 0.86757 0.0
C1904 C 0.42885 0.61354 0.88969 0.0
H1905 H 0.54662 0.58725 0.92551 0.0
H1906 H 0.51469 0.59136 0.92151 0.0
C1907 C 0.41106 0.61815 0.88721 0.0
C1908 C 0.46025 0.61687 0.87076 0.0
H1909 H 0.49037 0.58358 0.86596 0.0
C1910 C 0.47192 0.6308 0.8771 0.0
C1911 C 0.46692 0.59961 0.8667 0.0
C1912 C 0.45506 0.58424 0.85867 0.0
C1913 C 0.4901 0.62796 0.8795 0.0
C1914 C 0.49679 0.61076 0.87504 0.0
C1915 C 0.48514 0.59675 0.86925 0.0
C1916 C 0.5159 0.60721 0.87602 0.0
C1917 C 0.50201 0.64336 0.88713 0.0
C1918 C 0.52703 0.6144 0.85126 0.0
C1919 C 0.54523 0.61207 0.85344 0.0
C1920 C 0.55257 0.60247 0.8804 0.0
C1921 C 0.54133 0.59476 0.90452 0.0
C1922 C 0.52312 0.59707 0.90227 0.0
H1923 H 0.49458 0.65474 0.89754 0.0
H1924 H 0.51241 0.63957 0.90551 0.0
H1925 H 0.50855 0.64767 0.86338 0.0
H1926 H 0.52165 0.62205 0.83054 0.0
H1927 H 0.55355 0.61809 0.8344 0.0
H1928 H 0.12312 0.65128 0.68321 0.0
H1929 H 0.12885 0.68277 0.69257 0.0
H1930 H 0.12708 0.69175 0.5847 0.0
H1931 H 0.12124 0.66059 0.57518 0.0
H1932 H 0.15646 0.70514 0.66609 0.0
H1933 H 0.0901 0.72602 0.6236 0.0
H1934 H 0.09516 0.70356 0.6349 0.0
H1935 H 0.10119 0.71197 0.5939 0.0
C1936 C 0.12401 0.66 0.66155 0.0
C1937 C 0.12158 0.65352 0.62849 0.0
C1938 C 0.12729 0.67793 0.66692 0.0
C1939 C 0.12808 0.68958 0.63934 0.0
C1940 C 0.12618 0.68302 0.60634 0.0
H1941 H 0.14344 0.79851 0.59381 0.0
H1942 H 0.1401 0.76649 0.59443 0.0
C1943 C 0.12291 0.66519 0.60097 0.0
C1944 C 0.13066 0.70869 0.6446 0.0
H1945 H 0.11184 0.74854 0.62799 0.0
C1946 C 0.14665 0.71466 0.65819 0.0
C1947 C 0.11779 0.72103 0.63435 0.0
C1948 C 0.10002 0.71535 0.62117 0.0
C1949 C 0.15041 0.73275 0.66039 0.0
C1950 C 0.13775 0.74504 0.64903 0.0
C1951 C 0.12158 0.73905 0.6364 0.0
C1952 C 0.14109 0.76423 0.64906 0.0
C1953 C 0.16809 0.73857 0.67365 0.0
C1954 C 0.14281 0.77351 0.6796 0.0
C1955 C 0.14469 0.79183 0.67934 0.0
C1956 C 0.14482 0.80111 0.6485 0.0
C1957 C 0.1434 0.79172 0.61795 0.0
C1958 C 0.14149 0.77345 0.61826 0.0
H1959 H 0.17757 0.72747 0.6753 0.0
H1960 H 0.17377 0.74897 0.65716 0.0
H1961 H 0.16643 0.74419 0.69941 0.0
H1962 H 0.14226 0.76665 0.70365 0.0
H1963 H 0.14569 0.79873 0.70327 0.0
H1964 H 0.09823 0.37736 0.41516 0.0
H1965 H 0.06691 0.38324 0.42557 0.0
H1966 H 0.0549 0.36846 0.32259 0.0
H1967 H 0.08594 0.36227 0.31223 0.0
H1968 H 0.04404 0.40654 0.39342 0.0
H1969 H 0.02142 0.33775 0.37711 0.0
H1970 H 0.04432 0.34339 0.38252 0.0
H1971 H 0.034 0.34554 0.34167 0.0
C1972 C 0.08887 0.37532 0.39482 0.0
C1973 C 0.09448 0.36921 0.36298 0.0
C1974 C 0.07103 0.37869 0.40079 0.0
C1975 C 0.05857 0.37595 0.37504 0.0
C1976 C 0.06424 0.37024 0.34305 0.0
H1977 H 0.94834 0.39074 0.33884 0.0
H1978 H 0.98027 0.3867 0.33602 0.0
C1979 C 0.082 0.36679 0.33713 0.0
C1980 C 0.03963 0.37927 0.38118 0.0
H1981 H 0.99916 0.35997 0.37601 0.0
C1982 C 0.03422 0.39633 0.39002 0.0
C1983 C 0.02688 0.36589 0.37686 0.0
C1984 C 0.03194 0.34708 0.36936 0.0
C1985 C 0.01629 0.40051 0.39335 0.0
C1986 C 0.00357 0.38725 0.38788 0.0
C1987 C 0.009 0.37012 0.37986 0.0
C1988 C 0.98449 0.39089 0.38963 0.0
C1989 C 0.01101 0.41916 0.40162 0.0
C1990 C 0.97638 0.39462 0.42073 0.0
C1991 C 0.95814 0.39686 0.42246 0.0
C1992 C 0.94777 0.3954 0.39308 0.0
C1993 C 0.956 0.39197 0.36188 0.0
C1994 C 0.9742 0.38965 0.36022 0.0
H1995 H 0.02226 0.42844 0.39961 0.0
H1996 H 0.00035 0.42363 0.38439 0.0
H1997 H 0.00588 0.41969 0.42793 0.0
H1998 H 0.98411 0.3954 0.44375 0.0
H1999 H 0.95214 0.39944 0.44686 0.0
H2000 H 0.3947 0.66399 0.41233 0.0
H2001 H 0.38585 0.69474 0.40623 0.0
H2002 H 0.35209 0.68079 0.32262 0.0
H2003 H 0.36083 0.6498 0.32866 0.0
H2004 H 0.37668 0.71119 0.31315 0.0
H2005 H 0.33578 0.71534 0.42961 0.0
H2006 H 0.35707 0.70539 0.43494 0.0
H2007 H 0.34085 0.6947 0.40904 0.0
C2008 C 0.38537 0.66743 0.39265 0.0
C2009 C 0.37842 0.6545 0.37099 0.0
C2010 C 0.38027 0.68498 0.38933 0.0
C2011 C 0.36818 0.68993 0.36427 0.0
C2012 C 0.36136 0.67713 0.34227 0.0
H2013 H 0.33669 0.79686 0.30592 0.0
H2014 H 0.33973 0.76478 0.30767 0.0
C2015 C 0.36635 0.65949 0.34574 0.0
C2016 C 0.36312 0.70862 0.36075 0.0
H2017 H 0.34322 0.74237 0.40293 0.0
C2018 C 0.36917 0.71802 0.33248 0.0
C2019 C 0.35342 0.71739 0.38618 0.0
C2020 C 0.34625 0.70771 0.41658 0.0
C2021 C 0.36638 0.73623 0.32964 0.0
C2022 C 0.35692 0.74511 0.35541 0.0
C2023 C 0.35048 0.73555 0.38324 0.0
C2024 C 0.35427 0.76443 0.35484 0.0
C2025 C 0.37428 0.7459 0.29987 0.0
C2026 C 0.36086 0.7748 0.3814 0.0
C2027 C 0.35895 0.79308 0.38069 0.0
C2028 C 0.35041 0.80131 0.35337 0.0
C2029 C 0.34346 0.79088 0.32716 0.0
C2030 C 0.34528 0.77257 0.32801 0.0
H2031 H 0.3847 0.73804 0.28717 0.0
H2032 H 0.36382 0.74862 0.28096 0.0
H2033 H 0.38002 0.75867 0.30794 0.0
H2034 H 0.36778 0.76877 0.40242 0.0
H2035 H 0.36441 0.80078 0.40126 0.0
H2036 H 0.95183 0.58862 0.15164 0.0
H2037 H 0.98378 0.59258 0.15456 0.0
H2038 H 0.98315 0.61755 0.05631 0.0
H2039 H 0.95137 0.61295 0.05266 0.0
H2040 H 0.01055 0.59617 0.06156 0.0
H2041 H 0.0074 0.63831 0.17605 0.0
H2042 H 0.99804 0.61694 0.18277 0.0
H2043 H 0.98799 0.63182 0.15297 0.0
C2044 C 0.95855 0.59487 0.13062 0.0
C2045 C 0.94914 0.6006 0.10204 0.0
C2046 C 0.97677 0.59725 0.13241 0.0
C2047 C 0.9858 0.60576 0.10601 0.0
C2048 C 0.97645 0.61104 0.07706 0.0
H2049 H 0.08735 0.6557 0.1274 0.0
H2050 H 0.05628 0.64865 0.1192 0.0
C2051 C 0.9583 0.60842 0.07502 0.0
C2052 C 0.00494 0.60941 0.10861 0.0
H2053 H 0.03583 0.62958 0.15791 0.0
C2054 C 0.01609 0.60351 0.08258 0.0
C2055 C 0.01211 0.61926 0.13575 0.0
C2056 C 0.00074 0.62711 0.16328 0.0
C2057 C 0.03421 0.60713 0.08299 0.0
C2058 C 0.04146 0.61643 0.11077 0.0
C2059 C 0.03029 0.62233 0.13675 0.0
C2060 C 0.06049 0.62063 0.11323 0.0
C2061 C 0.04526 0.6014 0.05319 0.0
C2062 C 0.07325 0.60725 0.11235 0.0
C2063 C 0.09108 0.61131 0.11643 0.0
C2064 C 0.09638 0.62876 0.12224 0.0
C2065 C 0.08363 0.64212 0.123 0.0
C2066 C 0.06587 0.6381 0.11838 0.0
H2067 H 0.03711 0.59942 0.03012 0.0
H2068 H 0.05566 0.61121 0.04737 0.0
H2069 H 0.05169 0.58868 0.05926 0.0
H2070 H 0.0694 0.59362 0.10933 0.0
H2071 H 0.10064 0.60074 0.11611 0.0
H2072 H 0.118 0.19634 0.81859 0.0
H2073 H 0.11486 0.22837 0.81635 0.0
H2074 H 0.15699 0.23393 0.88885 0.0
H2075 H 0.16042 0.20192 0.89074 0.0
H2076 H 0.10611 0.24993 0.86848 0.0
H2077 H 0.171 0.26938 0.81654 0.0
H2078 H 0.163 0.24701 0.81503 0.0
H2079 H 0.17272 0.25553 0.85325 0.0
C2080 C 0.12672 0.2044 0.83378 0.0
C2081 C 0.13947 0.19665 0.85482 0.0
C2082 C 0.12492 0.22269 0.83245 0.0
C2083 C 0.13587 0.23354 0.85203 0.0
C2084 C 0.14869 0.22583 0.87291 0.0
H2085 H 0.11491 0.3373 0.92688 0.0
H2086 H 0.11998 0.30595 0.91766 0.0
C2087 C 0.15054 0.20754 0.87416 0.0
C2088 C 0.13305 0.25284 0.85243 0.0
H2089 H 0.15378 0.29235 0.84172 0.0
C2090 C 0.11649 0.25919 0.86231 0.0
C2091 C 0.14652 0.26492 0.84393 0.0
C2092 C 0.16426 0.25888 0.83126 0.0
C2093 C 0.1132 0.27729 0.86504 0.0
C2094 C 0.12695 0.28934 0.85832 0.0
C2095 C 0.14333 0.28305 0.84725 0.0
C2096 C 0.12467 0.30848 0.86379 0.0
C2097 C 0.09502 0.28335 0.87511 0.0
C2098 C 0.12623 0.32037 0.83672 0.0
C2099 C 0.12343 0.33838 0.84195 0.0
C2100 C 0.11914 0.34472 0.87438 0.0
C2101 C 0.11806 0.3328 0.90155 0.0
C2102 C 0.12087 0.31487 0.89631 0.0
H2103 H 0.08495 0.27309 0.86994 0.0
H2104 H 0.09484 0.28616 0.90271 0.0
H2105 H 0.09129 0.29556 0.86143 0.0
H2106 H 0.12928 0.31568 0.81146 0.0
H2107 H 0.1244 0.34728 0.82058 0.0
H2108 H 0.41138 0.35218 0.67321 0.0
H2109 H 0.4425 0.35933 0.66609 0.0
H2110 H 0.43019 0.38958 0.57664 0.0
H2111 H 0.39888 0.3827 0.58393 0.0
H2112 H 0.464 0.35161 0.61138 0.0
H2113 H 0.45999 0.42383 0.63256 0.0
H2114 H 0.44229 0.40904 0.64355 0.0
H2115 H 0.44563 0.41545 0.60018 0.0
C2116 C 0.41527 0.36042 0.65208 0.0
C2117 C 0.4027 0.36693 0.62917 0.0
C2118 C 0.43305 0.36448 0.64805 0.0
C2119 C 0.43861 0.37517 0.62112 0.0
C2120 C 0.42612 0.3816 0.598 0.0
H2121 H 0.5441 0.40708 0.55914 0.0
H2122 H 0.5122 0.40252 0.56259 0.0
C2123 C 0.40828 0.37757 0.60206 0.0
C2124 C 0.45758 0.37906 0.6169 0.0
H2125 H 0.48776 0.41239 0.61657 0.0
C2126 C 0.4692 0.3649 0.61252 0.0
C2127 C 0.46428 0.39642 0.61831 0.0
C2128 C 0.45245 0.41208 0.62419 0.0
C2129 C 0.48738 0.3676 0.60954 0.0
C2130 C 0.49411 0.38492 0.61143 0.0
C2131 C 0.4825 0.39913 0.61521 0.0
C2132 C 0.51323 0.38842 0.61018 0.0
C2133 C 0.49926 0.35194 0.60415 0.0
C2134 C 0.52424 0.38232 0.63619 0.0
C2135 C 0.5424 0.38494 0.63436 0.0
C2136 C 0.54984 0.39372 0.60647 0.0
C2137 C 0.53873 0.40021 0.58087 0.0
C2138 C 0.52054 0.39764 0.5828 0.0
H2139 H 0.49182 0.34021 0.59537 0.0
H2140 H 0.50968 0.35499 0.5853 0.0
H2141 H 0.50578 0.34854 0.62845 0.0
H2142 H 0.51878 0.3754 0.65777 0.0
H2143 H 0.55063 0.37984 0.65452 0.0
H2144 H 0.10215 0.08859 0.50387 0.0
H2145 H 0.11084 0.09155 0.5633 0.0
H2146 H 0.16086 0.11308 0.53256 0.0
H2147 H 0.15228 0.11017 0.47288 0.0
H2148 H 0.15958 0.08592 0.59188 0.0
H2149 H 0.11566 0.14437 0.60134 0.0
H2150 H 0.10636 0.12489 0.58258 0.0
H2151 H 0.12384 0.13628 0.56129 0.0
C2152 C 0.11511 0.0937 0.50972 0.0
C2153 C 0.12648 0.09931 0.48381 0.0
C2154 C 0.12004 0.09536 0.54362 0.0
C2155 C 0.13641 0.10263 0.55209 0.0
C2156 C 0.14818 0.10741 0.52634 0.0
H2157 H 0.1605 0.15103 0.74522 0.0
H2158 H 0.16029 0.14333 0.68503 0.0
C2159 C 0.14324 0.10579 0.49236 0.0
C2160 C 0.14048 0.10672 0.58775 0.0
H2161 H 0.12874 0.13431 0.65197 0.0
C2162 C 0.15294 0.09652 0.60511 0.0
C2163 C 0.13189 0.1207 0.60456 0.0
C2164 C 0.11876 0.13232 0.58656 0.0
C2165 C 0.15673 0.09973 0.63941 0.0
C2166 C 0.14774 0.11341 0.65646 0.0
C2167 C 0.13559 0.12382 0.63877 0.0
C2168 C 0.15025 0.11699 0.69293 0.0
C2169 C 0.17034 0.08859 0.65712 0.0
C2170 C 0.14487 0.10464 0.71722 0.0
C2171 C 0.14491 0.10902 0.75161 0.0
C2172 C 0.15027 0.12586 0.76214 0.0
C2173 C 0.15628 0.13797 0.73784 0.0
C2174 C 0.1562 0.13359 0.70349 0.0
H2175 H 0.17899 0.08164 0.63878 0.0
H2176 H 0.17863 0.09676 0.67415 0.0
H2177 H 0.16358 0.07854 0.67285 0.0
H2178 H 0.13993 0.09188 0.70949 0.0
H2179 H 0.14019 0.09944 0.76981 0.0
H2180 H 0.16406 0.86426 0.76382 0.0
H2181 H 0.16164 0.87832 0.81938 0.0
H2182 H 0.13227 0.92104 0.77495 0.0
H2183 H 0.13461 0.90706 0.71912 0.0
H2184 H 0.16963 0.9155 0.84394 0.0
H2185 H 0.09901 0.8954 0.84577 0.0
H2186 H 0.11464 0.88549 0.8171 0.0
H2187 H 0.107 0.90749 0.80967 0.0
C2188 C 0.15734 0.8768 0.76575 0.0
C2189 C 0.14934 0.88448 0.73726 0.0
C2190 C 0.15605 0.88484 0.79744 0.0
C2191 C 0.14668 0.90062 0.80114 0.0
C2192 C 0.13949 0.90882 0.77248 0.0
H2193 H 0.10379 0.92872 -0.00123 0.0
H2194 H 0.11198 0.93274 0.93925 0.0
C2195 C 0.14084 0.90081 0.74069 0.0
C2196 C 0.14289 0.90726 0.8355 0.0
H2197 H 0.11077 0.90687 0.8957 0.0
C2198 C 0.15671 0.91392 0.85523 0.0
C2199 C 0.12598 0.90528 0.8499 0.0
C2200 C 0.11075 0.89796 0.82973 0.0
C2201 C 0.15419 0.9181 0.88955 0.0
C2202 C 0.13754 0.91503 0.90455 0.0
C2203 C 0.12352 0.90925 0.88423 0.0
C2204 C 0.13473 0.91562 0.94172 0.0
C2205 C 0.16944 0.92551 0.90943 0.0
C2206 C 0.14502 0.90501 0.96307 0.0
C2207 C 0.14046 0.90284 0.99707 0.0
C2208 C 0.12533 0.91097 0.01018 0.0
C2209 C 0.1155 0.92225 0.98928 0.0
C2210 C 0.12018 0.92457 0.95531 0.0
H2211 H 0.17829 0.93332 0.89281 0.0
H2212 H 0.16489 0.93399 0.9306 0.0
H2213 H 0.17729 0.9145 0.92007 0.0
H2214 H 0.15599 0.89756 0.95305 0.0
H2215 H 0.14825 0.894 0.01255 0.0
H2216 H 0.34743 0.89435 0.98145 0.0
H2217 H 0.33723 0.89622 0.03995 0.0
H2218 H 0.37619 0.93616 0.0606 0.0
H2219 H 0.38691 0.93378 0.00232 0.0
H2220 H 0.37913 0.91032 0.10322 0.0
H2221 H 0.3088 0.92806 0.09848 0.0
H2222 H 0.3131 0.90967 0.07134 0.0
H2223 H 0.32315 0.93066 0.06233 0.0
C2224 C 0.35352 0.90384 -0.00177 0.0
C2225 C 0.36804 0.91381 0.9875 0.0
C2226 C 0.34756 0.90504 0.03163 0.0
C2227 C 0.35577 0.91651 0.05464 0.0
C2228 C 0.3696 0.92727 0.04327 0.0
H2229 H 0.35089 0.9085 0.2768 0.0
H2230 H 0.35227 0.92249 0.22082 0.0
C2231 C 0.37573 0.92589 0.01001 0.0
C2232 C 0.35186 0.91516 0.09137 0.0
H2233 H 0.31825 0.91165 0.14849 0.0
C2234 C 0.36587 0.91109 0.11325 0.0
C2235 C 0.33455 0.91609 0.1045 0.0
C2236 C 0.3191 0.92155 0.08291 0.0
C2237 C 0.36293 0.90691 0.14733 0.0
C2238 C 0.34553 0.90686 0.15991 0.0
C2239 C 0.33157 0.91167 0.1386 0.0
C2240 C 0.34166 0.90002 0.1941 0.0
C2241 C 0.37834 0.90157 0.16922 0.0
C2242 C 0.33469 0.88304 0.19748 0.0
C2243 C 0.33398 0.875 0.22924 0.0
C2244 C 0.34017 0.88388 0.25811 0.0
C2245 C 0.34609 0.90134 0.25495 0.0
C2246 C 0.34687 0.90935 0.22308 0.0
H2247 H 0.39076 0.90047 0.15451 0.0
H2248 H 0.38028 0.91151 0.18947 0.0
H2249 H 0.37566 0.88873 0.18165 0.0
H2250 H 0.33067 0.87565 0.17529 0.0
H2251 H 0.32927 0.86158 0.23096 0.0
H2252 H 0.34904 0.08012 0.5194 0.0
H2253 H 0.33634 0.07646 0.46264 0.0
H2254 H 0.38527 0.09382 0.41823 0.0
H2255 H 0.39807 0.09693 0.47435 0.0
H2256 H 0.33034 0.10134 0.41872 0.0
H2257 H 0.37425 0.05399 0.35649 0.0
H2258 H 0.37411 0.05685 0.40194 0.0
H2259 H 0.38756 0.07076 0.37537 0.0
C2260 C 0.35715 0.08278 0.49743 0.0
C2261 C 0.37453 0.08881 0.50123 0.0
C2262 C 0.34991 0.08066 0.46507 0.0
C2263 C 0.35995 0.08451 0.43611 0.0
C2264 C 0.37742 0.09017 0.44004 0.0
H2265 H 0.34441 0.14357 0.2673 0.0
H2266 H 0.34325 0.12931 0.32239 0.0
C2267 C 0.38468 0.09215 0.47223 0.0
C2268 C 0.35182 0.08492 0.40197 0.0
H2269 H 0.36216 0.07726 0.31926 0.0
C2270 C 0.33699 0.09563 0.39701 0.0
C2271 C 0.36002 0.07704 0.37358 0.0
C2272 C 0.37473 0.06385 0.37726 0.0
C2273 C 0.33143 0.10025 0.36432 0.0
C2274 C 0.34131 0.09446 0.33606 0.0
C2275 C 0.35484 0.08213 0.34092 0.0
C2276 C 0.33971 0.10298 0.30241 0.0
C2277 C 0.31549 0.11191 0.36055 0.0
C2278 C 0.33847 0.09292 0.27263 0.0
C2279 C 0.33948 0.10108 0.24088 0.0
C2280 C 0.34179 0.1194 0.23851 0.0
C2281 C 0.34252 0.12945 0.26831 0.0
C2282 C 0.34164 0.12131 0.29989 0.0
H2283 H 0.30564 0.10897 0.38059 0.0
H2284 H 0.31949 0.12587 0.36363 0.0
H2285 H 0.30916 0.11029 0.33538 0.0
H2286 H 0.33718 0.07874 0.27397 0.0
H2287 H 0.33889 0.09302 0.21827 0.0
H2288 H 0.85092 0.90546 0.21495 0.0
H2289 H 0.85098 0.9201 0.27033 0.0
H2290 H 0.82964 0.87328 0.31648 0.0
H2291 H 0.82944 0.8586 0.26138 0.0
H2292 H 0.81623 0.90787 0.34266 0.0
H2293 H 0.88928 0.90085 0.33776 0.0
H2294 H 0.87865 0.91189 0.30301 0.0
H2295 H 0.87498 0.88881 0.30958 0.0
C2296 C 0.8459 0.89843 0.23679 0.0
C2297 C 0.84042 0.88081 0.23402 0.0
C2298 C 0.84592 0.90681 0.26832 0.0
C2299 C 0.84047 0.89767 0.29737 0.0
C2300 C 0.83386 0.88053 0.29426 0.0
H2301 H 0.8464 0.89099 0.50911 0.0
H2302 H 0.83593 0.89298 0.45079 0.0
C2303 C 0.83386 0.87214 0.26282 0.0
C2304 C 0.8438 0.90486 0.3315 0.0
H2305 H 0.87694 0.9103 0.38863 0.0
C2306 C 0.8295 0.90873 0.35269 0.0
C2307 C 0.86113 0.90598 0.3443 0.0
C2308 C 0.87695 0.90159 0.32269 0.0
C2309 C 0.83208 0.9132 0.38687 0.0
C2310 C 0.84938 0.91332 0.40018 0.0
C2311 C 0.86368 0.91027 0.37843 0.0
C2312 C 0.85309 0.9146 0.43697 0.0
C2313 C 0.81626 0.91753 0.40838 0.0
C2314 C 0.86619 0.92611 0.44876 0.0
C2315 C 0.8725 0.92468 0.48187 0.0
C2316 C 0.86571 0.91181 0.50381 0.0
C2317 C 0.8518 0.90108 0.49275 0.0
C2318 C 0.84568 0.90234 0.45947 0.0
H2319 H 0.80561 0.92346 0.39283 0.0
H2320 H 0.811 0.90521 0.41963 0.0
H2321 H 0.81966 0.92674 0.42921 0.0
H2322 H 0.87215 0.93562 0.43181 0.0
H2323 H 0.88317 0.93318 0.48986 0.0
H2324 H 0.87723 0.06668 0.00089 0.0
H2325 H 0.86505 0.06479 0.05813 0.0
H2326 H 0.83506 0.11213 0.04011 0.0
H2327 H 0.8466 0.1136 0.98246 0.0
H2328 H 0.8723 0.08829 0.10338 0.0
H2329 H 0.79996 0.08507 0.09401 0.0
H2330 H 0.81409 0.08068 0.05819 0.0
H2331 H 0.80825 0.10297 0.06914 0.0
C2332 C 0.86766 0.07639 0.00889 0.0
C2333 C 0.86293 0.09035 0.98744 0.0
C2334 C 0.86068 0.07528 0.04153 0.0
C2335 C 0.84899 0.08821 0.05339 0.0
C2336 C 0.84363 0.1017 0.03133 0.0
H2337 H 0.83156 0.14267 0.23384 0.0
H2338 H 0.8302 0.12984 0.17707 0.0
C2339 C 0.85039 0.10265 -0.00153 0.0
C2340 C 0.84481 0.08931 0.09001 0.0
H2341 H 0.81167 0.09789 0.14612 0.0
C2342 C 0.85899 0.0899 0.1128 0.0
C2343 C 0.82745 0.09149 0.10234 0.0
C2344 C 0.81159 0.08983 0.07959 0.0
C2345 C 0.85641 0.09366 0.14715 0.0
C2346 C 0.83917 0.09682 0.15906 0.0
C2347 C 0.82487 0.09548 0.13675 0.0
C2348 C 0.83624 0.10341 0.19374 0.0
C2349 C 0.87224 0.09526 0.1701 0.0
C2350 C 0.83945 0.09259 0.22187 0.0
C2351 C 0.84029 0.09989 0.25433 0.0
C2352 C 0.83797 0.11809 0.25895 0.0
C2353 C 0.83353 0.12863 0.23097 0.0
C2354 C 0.83264 0.12132 0.19859 0.0
H2355 H 0.88485 0.09447 0.1559 0.0
H2356 H 0.87188 0.10793 0.1841 0.0
H2357 H 0.87202 0.08446 0.18904 0.0
H2358 H 0.84221 0.07872 0.21848 0.0
H2359 H 0.84364 0.09144 0.2755 0.0
H2360 H 0.64184 0.0997 0.73371 0.0
H2361 H 0.64391 0.08995 0.79257 0.0
H2362 H 0.687 0.12592 0.80925 0.0
H2363 H 0.68441 0.13634 0.7507 0.0
H2364 H 0.66821 0.07589 0.83496 0.0
H2365 H 0.65118 0.14397 0.87545 0.0
H2366 H 0.6505 0.13722 0.83173 0.0
H2367 H 0.67121 0.14221 0.85166 0.0
C2368 C 0.65192 0.10535 0.7498 0.0
C2369 C 0.66274 0.119 0.73795 0.0
C2370 C 0.65313 0.09973 0.78339 0.0
C2371 C 0.66532 0.10753 0.8055 0.0
C2372 C 0.67717 0.1201 0.79286 0.0
H2373 H 0.65739 0.10368 0.0264 0.0
H2374 H 0.67182 0.10463 0.97091 0.0
C2375 C 0.67573 0.12598 0.75942 0.0
C2376 C 0.66427 0.10372 0.84226 0.0
H2377 H 0.65382 0.12275 0.91796 0.0
C2378 C 0.6653 0.08615 0.85321 0.0
C2379 C 0.66038 0.11715 0.86602 0.0
C2380 C 0.65809 0.13617 0.8557 0.0
C2381 C 0.66197 0.0816 0.8871 0.0
C2382 C 0.65754 0.09497 0.91044 0.0
C2383 C 0.65738 0.11258 0.89991 0.0
C2384 C 0.65082 0.09105 0.94472 0.0
C2385 C 0.66276 0.06254 0.89756 0.0
C2386 C 0.6344 0.08284 0.94833 0.0
C2387 C 0.62605 0.08245 0.97982 0.0
C2388 C 0.63403 0.09028 0.00818 0.0
C2389 C 0.65095 0.09754 0.00495 0.0
C2390 C 0.65923 0.09806 0.97335 0.0
H2391 H 0.67096 0.05467 0.87984 0.0
H2392 H 0.66813 0.06117 0.92361 0.0
H2393 H 0.64925 0.05697 0.89737 0.0
H2394 H 0.62755 0.07767 0.9264 0.0
H2395 H 0.61302 0.07674 0.98162 0.0
H2396 H 0.60662 0.91417 0.50979 0.0
H2397 H 0.61939 0.91323 0.56658 0.0
H2398 H 0.66608 0.88856 0.52652 0.0
H2399 H 0.65337 0.88945 0.46945 0.0
H2400 H 0.64881 0.86977 0.57855 0.0
H2401 H 0.6598 0.93921 0.61568 0.0
H2402 H 0.63851 0.93528 0.59742 0.0
H2403 H 0.65792 0.9323 0.57198 0.0
C2404 C 0.61975 0.90887 0.51296 0.0
C2405 C 0.62897 0.90178 0.48529 0.0
C2406 C 0.62709 0.90849 0.54536 0.0
C2407 C 0.64376 0.90103 0.55061 0.0
C2408 C 0.65327 0.89453 0.52284 0.0
H2409 H 0.67916 0.86182 0.74877 0.0
H2410 H 0.68079 0.87108 0.68937 0.0
C2411 C 0.64599 0.89502 0.49034 0.0
C2412 C 0.64997 0.89783 0.58553 0.0
H2413 H 0.65754 0.91822 0.66113 0.0
C2414 C 0.65112 0.88033 0.59654 0.0
C2415 C 0.65283 0.91167 0.60876 0.0
C2416 C 0.65237 0.93068 0.59784 0.0
C2417 C 0.65393 0.87625 0.63074 0.0
C2418 C 0.65615 0.89012 0.65433 0.0
C2419 C 0.65585 0.90763 0.64298 0.0
C2420 C 0.65696 0.88667 0.6912 0.0
C2421 C 0.65335 0.85718 0.64154 0.0
C2422 C 0.64359 0.89317 0.71229 0.0
C2423 C 0.64279 0.88814 0.74626 0.0
C2424 C 0.65529 0.87643 0.75961 0.0
C2425 C 0.66922 0.87069 0.73896 0.0
C2426 C 0.67013 0.8759 0.70505 0.0
H2427 H 0.64775 0.84857 0.6215 0.0
H2428 H 0.66691 0.85257 0.64696 0.0
H2429 H 0.64536 0.85556 0.6649 0.0
H2430 H 0.63333 0.90155 0.7021 0.0
H2431 H 0.63196 0.89284 0.76165 0.0
H2432 H 0.6534 0.58263 0.97263 0.0
H2433 H 0.66527 0.57859 0.02998 0.0
H2434 H 0.61557 0.59526 0.07214 0.0
H2435 H 0.60358 0.59869 0.01542 0.0
H2436 H 0.67061 0.60236 0.07612 0.0
H2437 H 0.62518 0.5542 0.13158 0.0
H2438 H 0.6262 0.55798 0.08643 0.0
H2439 H 0.61232 0.57143 0.11309 0.0
C2440 C 0.64497 0.58514 0.99423 0.0
C2441 C 0.62757 0.59094 0.98964 0.0
C2442 C 0.65174 0.58278 0.02692 0.0
C2443 C 0.64119 0.5862 0.0554 0.0
C2444 C 0.62378 0.59189 0.05066 0.0
H2445 H 0.65459 0.64185 0.22903 0.0
H2446 H 0.65645 0.62854 0.1732 0.0
C2447 C 0.61699 0.59407 0.01816 0.0
C2448 C 0.64865 0.58588 0.0901 0.0
H2449 H 0.63663 0.57663 0.17135 0.0
C2450 C 0.66349 0.59629 0.0969 0.0
C2451 C 0.63985 0.57749 0.11726 0.0
C2452 C 0.62514 0.56448 0.11156 0.0
C2453 C 0.66847 0.60015 0.13028 0.0
C2454 C 0.65797 0.59392 0.15736 0.0
C2455 C 0.64443 0.58185 0.15062 0.0
C2456 C 0.65895 0.60178 0.19168 0.0
C2457 C 0.68451 0.61147 0.13605 0.0
C2458 C 0.65926 0.59118 0.22085 0.0
C2459 C 0.65778 0.5988 0.25302 0.0
C2460 C 0.65597 0.61712 0.2564 0.0
C2461 C 0.65609 0.6277 0.22725 0.0
C2462 C 0.65739 0.6201 0.19525 0.0
H2463 H 0.69474 0.60867 0.11667 0.0
H2464 H 0.68081 0.62553 0.13345 0.0
H2465 H 0.69025 0.60933 0.1616 0.0
H2466 H 0.66024 0.577 0.21868 0.0
H2467 H 0.65772 0.59035 0.27513 0.0
H2468 H 0.65603 0.40959 0.52587 0.0
H2469 H 0.6707 0.41174 0.4706 0.0
H2470 H 0.6207 0.40442 0.42065 0.0
H2471 H 0.60603 0.40287 0.47529 0.0
H2472 H 0.67341 0.38721 0.42495 0.0
H2473 H 0.6402 0.44283 0.3636 0.0
H2474 H 0.63864 0.43907 0.40871 0.0
H2475 H 0.62363 0.42837 0.37982 0.0
C2476 C 0.64817 0.4088 0.50301 0.0
C2477 C 0.6299 0.40607 0.50481 0.0
C2478 C 0.65655 0.41006 0.47151 0.0
C2479 C 0.64677 0.40864 0.44143 0.0
C2480 C 0.62848 0.4062 0.44339 0.0
H2481 H 0.65556 0.35091 0.26969 0.0
H2482 H 0.65839 0.36371 0.32583 0.0
C2483 C 0.62011 0.4051 0.47471 0.0
C2484 C 0.65557 0.40748 0.40799 0.0
H2485 H 0.64876 0.41846 0.32533 0.0
C2486 C 0.66841 0.39442 0.40326 0.0
C2487 C 0.64962 0.41726 0.37971 0.0
C2488 C 0.63742 0.4328 0.38339 0.0
C2489 C 0.67386 0.38953 0.37066 0.0
C2490 C 0.66583 0.3975 0.34219 0.0
C2491 C 0.6546 0.41196 0.34708 0.0
C2492 C 0.6666 0.38942 0.30803 0.0
C2493 C 0.68762 0.37534 0.36713 0.0
C2494 C 0.66992 0.39967 0.27908 0.0
C2495 C 0.66792 0.39242 0.2467 0.0
C2496 C 0.66255 0.37483 0.24286 0.0
C2497 C 0.65982 0.36447 0.27184 0.0
C2498 C 0.66165 0.37174 0.30404 0.0
H2499 H 0.69743 0.37626 0.38794 0.0
H2500 H 0.68123 0.36225 0.36911 0.0
H2501 H 0.69463 0.3762 0.34248 0.0
H2502 H 0.67357 0.41339 0.28153 0.0
H2503 H 0.67011 0.40069 0.22474 0.0
H2504 H 0.83136 0.35771 0.73591 0.0
H2505 H 0.83178 0.37109 0.67957 0.0
H2506 H 0.85042 0.41981 0.72258 0.0
H2507 H 0.85007 0.40651 0.77921 0.0
H2508 H 0.81729 0.40528 0.65027 0.0
H2509 H 0.8904 0.3998 0.65825 0.0
H2510 H 0.87608 0.3877 0.68632 0.0
H2511 H 0.87904 0.41093 0.69204 0.0
C2512 C 0.8352 0.37138 0.73349 0.0
C2513 C 0.84091 0.38101 0.76183 0.0
C2514 C 0.83534 0.37902 0.70134 0.0
C2515 C 0.84126 0.39635 0.69705 0.0
C2516 C 0.84587 0.40638 0.72552 0.0
H2517 H 0.88471 0.42996 0.50355 0.0
H2518 H 0.87361 0.43253 0.56154 0.0
C2519 C 0.84567 0.39876 0.75777 0.0
C2520 C 0.84479 0.40289 0.66252 0.0
H2521 H 0.87837 0.40789 0.60618 0.0
C2522 C 0.83063 0.40616 0.64062 0.0
C2523 C 0.86222 0.40406 0.65024 0.0
C2524 C 0.87787 0.40037 0.67273 0.0
C2525 C 0.83346 0.41013 0.60628 0.0
C2526 C 0.85088 0.41029 0.59353 0.0
C2527 C 0.86502 0.4078 0.61593 0.0
C2528 C 0.8549 0.41118 0.5568 0.0
C2529 C 0.81778 0.41391 0.58403 0.0
C2530 C 0.84776 0.39862 0.53459 0.0
C2531 C 0.85393 0.39728 0.50135 0.0
C2532 C 0.8676 0.40823 0.49002 0.0
C2533 C 0.87421 0.42129 0.51174 0.0
C2534 C 0.86786 0.4228 0.54481 0.0
H2535 H 0.8069 0.41989 0.59891 0.0
H2536 H 0.82123 0.4229 0.56285 0.0
H2537 H 0.81281 0.40137 0.57323 0.0
H2538 H 0.83814 0.38916 0.54344 0.0
H2539 H 0.84868 0.38702 0.48518 0.0
H2540 H 0.88773 0.57663 0.98379 0.0
H2541 H 0.87533 0.57963 0.92688 0.0
H2542 H 0.83158 0.60891 0.96762 0.0
H2543 H 0.84389 0.60598 0.02476 0.0
H2544 H 0.83849 0.57335 0.89637 0.0
H2545 H 0.86177 0.64286 0.90387 0.0
H2546 H 0.86994 0.626 0.93198 0.0
H2547 H 0.84823 0.63473 0.93786 0.0
C2548 C 0.87526 0.58335 0.98075 0.0
C2549 C 0.86689 0.59129 0.00858 0.0
C2550 C 0.86817 0.58498 0.94828 0.0
C2551 C 0.85266 0.5946 0.94321 0.0
C2552 C 0.8436 0.60148 0.97119 0.0
H2553 H 0.82502 0.64449 0.75205 0.0
H2554 H 0.82274 0.63413 0.81059 0.0
C2555 C 0.85066 0.5998 0.00373 0.0
C2556 C 0.84746 0.59947 0.90846 0.0
H2557 H 0.85008 0.6334 0.85225 0.0
C2558 C 0.84077 0.58651 0.88669 0.0
C2559 C 0.85051 0.61666 0.89614 0.0
C2560 C 0.85809 0.63091 0.91847 0.0
C2561 C 0.83727 0.59029 0.85249 0.0
C2562 C 0.84099 0.60733 0.83984 0.0
C2563 C 0.84716 0.62038 0.86201 0.0
C2564 C 0.83995 0.61175 0.80334 0.0
C2565 C 0.82968 0.57602 0.8303 0.0
C2566 C 0.85018 0.60244 0.77973 0.0
C2567 C 0.8514 0.60827 0.74624 0.0
C2568 C 0.84266 0.62366 0.73599 0.0
C2569 C 0.83196 0.63262 0.75932 0.0
C2570 C 0.83061 0.6267 0.79272 0.0
H2571 H 0.82207 0.56634 0.84549 0.0
H2572 H 0.82097 0.58158 0.81041 0.0
H2573 H 0.84059 0.56884 0.81773 0.0
H2574 H 0.85789 0.59116 0.78753 0.0
H2575 H 0.8598 0.60115 0.7288 0.0
H2576 H 0.35341 0.40705 0.71507 0.0
H2577 H 0.35496 0.42095 0.77107 0.0
H2578 H 0.33178 0.37474 0.81616 0.0
H2579 H 0.33013 0.36078 0.76044 0.0
H2580 H 0.32043 0.41005 0.84394 0.0
H2581 H 0.39287 0.39866 0.8365 0.0
H2582 H 0.38255 0.41047 0.80232 0.0
H2583 H 0.37763 0.38761 0.80862 0.0
C2584 C 0.34831 0.40001 0.73683 0.0
C2585 C 0.34188 0.38275 0.73354 0.0
C2586 C 0.34919 0.40797 0.76872 0.0
C2587 C 0.34362 0.39877 0.79761 0.0
C2588 C 0.3361 0.38203 0.79406 0.0
H2589 H 0.35051 0.39114 0.00979 0.0
H2590 H 0.34007 0.39347 0.95147 0.0
C2591 C 0.33526 0.37405 0.76227 0.0
C2592 C 0.34767 0.4054 0.83186 0.0
H2593 H 0.38154 0.40841 0.88807 0.0
C2594 C 0.3338 0.41 0.85358 0.0
C2595 C 0.36513 0.40535 0.84414 0.0
C2596 C 0.38046 0.40019 0.82189 0.0
C2597 C 0.33694 0.4141 0.88777 0.0
C2598 C 0.35431 0.41306 0.90054 0.0
C2599 C 0.36822 0.40924 0.87829 0.0
C2600 C 0.3584 0.41404 0.93722 0.0
C2601 C 0.32159 0.4193 0.90984 0.0
C2602 C 0.37219 0.4248 0.94872 0.0
C2603 C 0.37846 0.42316 0.98183 0.0
C2604 C 0.37095 0.41083 0.00406 0.0
C2605 C 0.35648 0.40082 0.9932 0.0
C2606 C 0.35038 0.40227 0.95993 0.0
H2607 H 0.31118 0.42591 0.89469 0.0
H2608 H 0.31571 0.4073 0.92118 0.0
H2609 H 0.32573 0.42825 0.93061 0.0
H2610 H 0.37863 0.4339 0.9316 0.0
H2611 H 0.38958 0.43111 0.98964 0.0
H2612 H 0.33057 0.65137 0.74049 0.0
H2613 H 0.32989 0.64289 0.68074 0.0
H2614 H 0.35656 0.59437 0.70505 0.0
H2615 H 0.35696 0.60261 0.76494 0.0
H2616 H 0.35987 0.63853 0.64512 0.0
H2617 H 0.31991 0.57772 0.63714 0.0
H2618 H 0.31909 0.59232 0.67325 0.0
H2619 H 0.33662 0.57654 0.66921 0.0
C2620 C 0.33595 0.63872 0.73319 0.0
C2621 C 0.34393 0.62769 0.75726 0.0
C2622 C 0.33551 0.63388 0.69909 0.0
C2623 C 0.34301 0.61793 0.68852 0.0
C2624 C 0.35032 0.60655 0.71275 0.0
H2625 H 0.39762 0.59408 0.50673 0.0
H2626 H 0.38666 0.59755 0.56458 0.0
C2627 C 0.35069 0.61134 0.74691 0.0
C2628 C 0.34543 0.61437 0.65197 0.0
H2629 H 0.33949 0.58341 0.59026 0.0
C2630 C 0.35516 0.62661 0.63303 0.0
C2631 C 0.33923 0.59883 0.63623 0.0
C2632 C 0.32797 0.58568 0.65493 0.0
C2633 C 0.35946 0.6234 0.59913 0.0
C2634 C 0.35407 0.60747 0.58395 0.0
C2635 C 0.34374 0.59552 0.60229 0.0
C2636 C 0.35985 0.60292 0.54942 0.0
C2637 C 0.37006 0.63692 0.57989 0.0
C2638 C 0.3482 0.60429 0.52202 0.0
C2639 C 0.35442 0.60236 0.48887 0.0
C2640 C 0.37236 0.599 0.48288 0.0
C2641 C 0.38376 0.59675 0.51057 0.0
C2642 C 0.37754 0.5987 0.54358 0.0
H2643 H 0.37019 0.64988 0.59296 0.0
H2644 H 0.38385 0.63227 0.57754 0.0
H2645 H 0.36472 0.63872 0.55392 0.0
H2646 H 0.3345 0.60758 0.52621 0.0
H2647 H 0.34534 0.60411 0.46798 0.0
H2648 H 0.15013 0.60765 0.51881 0.0
H2649 H 0.15807 0.60642 0.45881 0.0
H2650 H 0.11746 0.56774 0.44164 0.0
H2651 H 0.10897 0.56947 0.50142 0.0
H2652 H 0.16828 0.58171 0.41246 0.0
H2653 H 0.10175 0.60766 0.38144 0.0
H2654 H 0.1098 0.60636 0.42432 0.0
H2655 H 0.10162 0.58698 0.40337 0.0
C2656 C 0.14308 0.59868 0.50234 0.0
C2657 C 0.12873 0.58889 0.51452 0.0
C2658 C 0.14765 0.59796 0.4681 0.0
C2659 C 0.13805 0.58732 0.44566 0.0
C2660 C 0.1247 0.5764 0.45839 0.0
H2661 H 0.13647 0.59331 0.22484 0.0
H2662 H 0.1349 0.58105 0.28216 0.0
C2663 C 0.11992 0.57733 0.49252 0.0
C2664 C 0.14095 0.58903 0.40872 0.0
H2665 H 0.1209 0.60262 0.33588 0.0
C2666 C 0.1579 0.58613 0.39563 0.0
C2667 C 0.12738 0.59494 0.38688 0.0
C2668 C 0.10916 0.59934 0.39967 0.0
C2669 C 0.16168 0.58923 0.36131 0.0
C2670 C 0.14818 0.59538 0.33978 0.0
C2671 C 0.13115 0.59774 0.35257 0.0
C2672 C 0.15157 0.60097 0.30456 0.0
C2673 C 0.18009 0.58614 0.34836 0.0
C2674 C 0.1616 0.61612 0.2983 0.0
C2675 C 0.16238 0.62325 0.26572 0.0
C2676 C 0.15313 0.61531 0.23896 0.0
C2677 C 0.14373 0.5997 0.24501 0.0
C2678 C 0.14285 0.59265 0.27765 0.0
H2679 H 0.18773 0.57746 0.36559 0.0
H2680 H 0.17981 0.58016 0.32268 0.0
H2681 H 0.18706 0.59895 0.34652 0.0
H2682 H 0.16814 0.6229 0.31892 0.0
H2683 H 0.16974 0.63529 0.26174 0.0
H2684 H 0.14368 0.41042 0.27286 0.0
H2685 H 0.14244 0.42446 0.21695 0.0
H2686 H 0.16756 0.37912 0.17251 0.0
H2687 H 0.16893 0.36503 0.22814 0.0
H2688 H 0.17809 0.41468 0.14531 0.0
H2689 H 0.10593 0.40131 0.14996 0.0
H2690 H 0.11558 0.41341 0.18446 0.0
H2691 H 0.12115 0.39068 0.17847 0.0
C2692 C 0.14929 0.40362 0.25128 0.0
C2693 C 0.15617 0.38653 0.25469 0.0
C2694 C 0.14857 0.41166 0.21944 0.0
C2695 C 0.15476 0.40271 0.19073 0.0
C2696 C 0.16276 0.38621 0.19447 0.0
H2697 H 0.15081 0.39311 0.97957 0.0
H2698 H 0.16033 0.39662 0.03818 0.0
C2699 C 0.16344 0.37815 0.22621 0.0
C2700 C 0.15088 0.40928 0.15633 0.0
H2701 H 0.11758 0.41106 0.09867 0.0
C2702 C 0.16484 0.41422 0.13513 0.0
C2703 C 0.13356 0.40871 0.14335 0.0
C2704 C 0.11814 0.40317 0.16503 0.0
C2705 C 0.16198 0.41807 0.10075 0.0
C2706 C 0.1448 0.41642 0.08725 0.0
C2707 C 0.13075 0.41235 0.10899 0.0
C2708 C 0.14118 0.41679 0.05034 0.0
C2709 C 0.17742 0.4236 0.07922 0.0
C2710 C 0.12721 0.42691 0.03755 0.0
C2711 C 0.12148 0.42461 0.00421 0.0
C2712 C 0.12969 0.4122 0.98308 0.0
C2713 C 0.14429 0.40282 0.99526 0.0
C2714 C 0.14988 0.40497 0.02871 0.0
H2715 H 0.18737 0.43073 0.09461 0.0
H2716 H 0.18388 0.4117 0.06867 0.0
H2717 H 0.17325 0.43218 0.05789 0.0
H2718 H 0.12025 0.43604 0.05383 0.0
H2719 H 0.11023 0.43207 0.99538 0.0
loop_
_geom_bond_atom_site_label_1
_geom_bond_atom_site_label_2
_geom_bond_distance
_geom_bond_site_symmetry_2
_ccdc_geom_bond_type
In0 O1 2.294 . S
In0 O2 2.326 . S
In0 O6 2.266 . S
In0 O7 2.326 . S
In0 O8 2.266 . S
In0 O9 2.326 . S
In0 O11 2.294 . S
In0 O12 2.326 . S
O1 In0 2.294 . S
O1 C10 1.240 . S
O2 In0 2.326 . S
O2 C10 1.252 . S
C3 O6 1.252 . S
C3 O7 1.260 . S
C4 O11 1.240 . S
C4 O12 1.252 . S
C5 O8 1.252 . S
C5 O9 1.260 . S
O6 In0 2.266 . S
O6 C3 1.252 . S
O7 In0 2.326 . S
O7 C3 1.260 . S
O8 In0 2.266 . S
O8 C5 1.252 . S
O9 In0 2.326 . S
O9 C5 1.260 . S
C10 O1 1.240 . S
C10 O2 1.252 . S
O11 In0 2.294 . S
O11 C4 1.240 . S
O12 In0 2.326 . S
O12 C4 1.252 . S
In13 O14 2.294 . S
In13 O15 2.326 . S
In13 O19 2.266 . S
In13 O20 2.326 . S
In13 O21 2.266 . S
In13 O22 2.326 . S
In13 O24 2.294 . S
In13 O25 2.326 . S
O14 In13 2.294 . S
O14 C23 1.240 . S
O15 In13 2.326 . S
O15 C23 1.252 . S
C16 O19 1.252 . S
C16 O20 1.260 . S
C17 O24 1.240 . S
C17 O25 1.252 . S
C18 O21 1.252 . S
C18 O22 1.260 . S
O19 In13 2.266 . S
O19 C16 1.252 . S
O20 In13 2.326 . S
O20 C16 1.260 . S
O21 In13 2.266 . S
O21 C18 1.252 . S
O22 In13 2.326 . S
O22 C18 1.260 . S
C23 O14 1.240 . S
C23 O15 1.252 . S
O24 In13 2.294 . S
O24 C17 1.240 . S
O25 In13 2.326 . S
O25 C17 1.252 . S
In26 O27 2.294 . S
In26 O28 2.326 . S
In26 O32 2.266 . S
In26 O33 2.326 . S
In26 O34 2.266 . S
In26 O35 2.326 . S
In26 O37 2.294 . S
In26 O38 2.326 . S
O27 In26 2.294 . S
O27 C36 1.240 . S
O28 In26 2.326 . S
O28 C36 1.252 . S
C29 O32 1.252 . S
C29 O33 1.260 . S
C30 O37 1.240 . S
C30 O38 1.252 . S
C31 O34 1.252 . S
C31 O35 1.260 . S
O32 In26 2.266 . S
O32 C29 1.252 . S
O33 In26 2.326 . S
O33 C29 1.260 . S
O34 In26 2.266 . S
O34 C31 1.252 . S
O35 In26 2.326 . S
O35 C31 1.260 . S
C36 O27 1.240 . S
C36 O28 1.252 . S
O37 In26 2.294 . S
O37 C30 1.240 . S
O38 In26 2.326 . S
O38 C30 1.252 . S
In39 O40 2.294 . S
In39 O41 2.326 . S
In39 O45 2.266 . S
In39 O46 2.326 . S
In39 O47 2.266 . S
In39 O48 2.326 . S
In39 O50 2.294 . S
In39 O51 2.326 . S
O40 In39 2.294 . S
O40 C49 1.240 . S
O41 In39 2.326 . S
O41 C49 1.252 . S
C42 O45 1.252 . S
C42 O46 1.260 . S
C43 O50 1.240 . S
C43 O51 1.252 . S
C44 O47 1.252 . S
C44 O48 1.260 . S
O45 In39 2.266 . S
O45 C42 1.252 . S
O46 In39 2.326 . S
O46 C42 1.260 . S
O47 In39 2.266 . S
O47 C44 1.252 . S
O48 In39 2.326 . S
O48 C44 1.260 . S
C49 O40 1.240 . S
C49 O41 1.252 . S
O50 In39 2.294 . S
O50 C43 1.240 . S
O51 In39 2.326 . S
O51 C43 1.252 . S
In52 O53 2.294 . S
In52 O54 2.326 . S
In52 O58 2.266 . S
In52 O59 2.326 . S
In52 O60 2.266 . S
In52 O61 2.326 . S
In52 O63 2.294 . S
In52 O64 2.326 . S
O53 In52 2.294 . S
O53 C62 1.240 . S
O54 In52 2.326 . S
O54 C62 1.252 . S
C55 O58 1.252 . S
C55 O59 1.260 . S
C56 O63 1.240 . S
C56 O64 1.252 . S
C57 O60 1.252 . S
C57 O61 1.260 . S
O58 In52 2.266 . S
O58 C55 1.252 . S
O59 In52 2.326 . S
O59 C55 1.260 . S
O60 In52 2.266 . S
O60 C57 1.252 . S
O61 In52 2.326 . S
O61 C57 1.260 . S
C62 O53 1.240 . S
C62 O54 1.252 . S
O63 In52 2.294 . S
O63 C56 1.240 . S
O64 In52 2.326 . S
O64 C56 1.252 . S
In65 O66 2.294 . S
In65 O67 2.326 . S
In65 O71 2.266 . S
In65 O72 2.326 . S
In65 O73 2.266 . S
In65 O74 2.326 . S
In65 O76 2.294 . S
In65 O77 2.326 . S
O66 In65 2.294 . S
O66 C75 1.240 . S
O67 In65 2.326 . S
O67 C75 1.252 . S
C68 O71 1.252 . S
C68 O72 1.260 . S
C69 O76 1.240 . S
C69 O77 1.252 . S
C70 O73 1.252 . S
C70 O74 1.260 . S
O71 In65 2.266 . S
O71 C68 1.252 . S
O72 In65 2.326 . S
O72 C68 1.260 . S
O73 In65 2.266 . S
O73 C70 1.252 . S
O74 In65 2.326 . S
O74 C70 1.260 . S
C75 O66 1.240 . S
C75 O67 1.252 . S
O76 In65 2.294 . S
O76 C69 1.240 . S
O77 In65 2.326 . S
O77 C69 1.252 . S
In78 O79 2.294 . S
In78 O80 2.326 . S
In78 O84 2.266 . S
In78 O85 2.326 . S
In78 O86 2.266 . S
In78 O87 2.326 . S
In78 O89 2.294 . S
In78 O90 2.326 . S
O79 In78 2.294 . S
O79 C88 1.240 . S
O80 In78 2.326 . S
O80 C88 1.252 . S
C81 O84 1.252 . S
C81 O85 1.260 . S
C82 O89 1.240 . S
C82 O90 1.252 . S
C83 O86 1.252 . S
C83 O87 1.260 . S
O84 In78 2.266 . S
O84 C81 1.252 . S
O85 In78 2.326 . S
O85 C81 1.260 . S
O86 In78 2.266 . S
O86 C83 1.252 . S
O87 In78 2.326 . S
O87 C83 1.260 . S
C88 O79 1.240 . S
C88 O80 1.252 . S
O89 In78 2.294 . S
O89 C82 1.240 . S
O90 In78 2.326 . S
O90 C82 1.252 . S
In91 O92 2.294 . S
In91 O93 2.326 . S
In91 O97 2.266 . S
In91 O98 2.326 . S
In91 O99 2.266 . S
In91 O100 2.326 . S
In91 O102 2.294 . S
In91 O103 2.326 . S
O92 In91 2.294 . S
O92 C101 1.240 . S
O93 In91 2.326 . S
O93 C101 1.252 . S
C94 O97 1.252 . S
C94 O98 1.260 . S
C95 O102 1.240 . S
C95 O103 1.252 . S
C96 O99 1.252 . S
C96 O100 1.260 . S
O97 In91 2.266 . S
O97 C94 1.252 . S
O98 In91 2.326 . S
O98 C94 1.260 . S
O99 In91 2.266 . S
O99 C96 1.252 . S
O100 In91 2.326 . S
O100 C96 1.260 . S
C101 O92 1.240 . S
C101 O93 1.252 . S
O102 In91 2.294 . S
O102 C95 1.240 . S
O103 In91 2.326 . S
O103 C95 1.252 . S
In104 O105 2.294 . S
In104 O106 2.326 . S
In104 O110 2.266 . S
In104 O111 2.326 . S
In104 O112 2.266 . S
In104 O113 2.326 . S
In104 O115 2.294 . S
In104 O116 2.326 . S
O105 In104 2.294 . S
O105 C114 1.240 . S
O106 In104 2.326 . S
O106 C114 1.252 . S
C107 O110 1.252 . S
C107 O111 1.260 . S
C108 O115 1.240 . S
C108 O116 1.252 . S
C109 O112 1.252 . S
C109 O113 1.260 . S
O110 In104 2.266 . S
O110 C107 1.252 . S
O111 In104 2.326 . S
O111 C107 1.260 . S
O112 In104 2.266 . S
O112 C109 1.252 . S
O113 In104 2.326 . S
O113 C109 1.260 . S
C114 O105 1.240 . S
C114 O106 1.252 . S
O115 In104 2.294 . S
O115 C108 1.240 . S
O116 In104 2.326 . S
O116 C108 1.252 . S
In117 O118 2.294 . S
In117 O119 2.326 . S
In117 O123 2.266 . S
In117 O124 2.326 . S
In117 O125 2.266 . S
In117 O126 2.326 . S
In117 O128 2.294 . S
In117 O129 2.326 . S
O118 In117 2.294 . S
O118 C127 1.240 . S
O119 In117 2.326 . S
O119 C127 1.252 . S
C120 O123 1.252 . S
C120 O124 1.260 . S
C121 O128 1.240 . S
C121 O129 1.252 . S
C122 O125 1.252 . S
C122 O126 1.260 . S
O123 In117 2.266 . S
O123 C120 1.252 . S
O124 In117 2.326 . S
O124 C120 1.260 . S
O125 In117 2.266 . S
O125 C122 1.252 . S
O126 In117 2.326 . S
O126 C122 1.260 . S
C127 O118 1.240 . S
C127 O119 1.252 . S
O128 In117 2.294 . S
O128 C121 1.240 . S
O129 In117 2.326 . S
O129 C121 1.252 . S
In130 O131 2.294 . S
In130 O132 2.326 . S
In130 O136 2.266 . S
In130 O137 2.326 . S
In130 O138 2.266 . S
In130 O139 2.326 . S
In130 O141 2.294 . S
In130 O142 2.326 . S
O131 In130 2.294 . S
O131 C140 1.240 . S
O132 In130 2.326 . S
O132 C140 1.252 . S
C133 O136 1.252 . S
C133 O137 1.260 . S
C134 O141 1.240 . S
C134 O142 1.252 . S
C135 O138 1.252 . S
C135 O139 1.260 . S
O136 In130 2.266 . S
O136 C133 1.252 . S
O137 In130 2.326 . S
O137 C133 1.260 . S
O138 In130 2.266 . S
O138 C135 1.252 . S
O139 In130 2.326 . S
O139 C135 1.260 . S
C140 O131 1.240 . S
C140 O132 1.252 . S
O141 In130 2.294 . S
O141 C134 1.240 . S
O142 In130 2.326 . S
O142 C134 1.252 . S
In143 O144 2.294 . S
In143 O145 2.326 . S
In143 O149 2.266 . S
In143 O150 2.326 . S
In143 O151 2.266 . S
In143 O152 2.326 . S
In143 O154 2.294 . S
In143 O155 2.326 . S
O144 In143 2.294 . S
O144 C153 1.240 . S
O145 In143 2.326 . S
O145 C153 1.252 . S
C146 O149 1.252 . S
C146 O150 1.260 . S
C147 O154 1.240 . S
C147 O155 1.252 . S
C148 O151 1.252 . S
C148 O152 1.260 . S
O149 In143 2.266 . S
O149 C146 1.252 . S
O150 In143 2.326 . S
O150 C146 1.260 . S
O151 In143 2.266 . S
O151 C148 1.252 . S
O152 In143 2.326 . S
O152 C148 1.260 . S
C153 O144 1.240 . S
C153 O145 1.252 . S
O154 In143 2.294 . S
O154 C147 1.240 . S
O155 In143 2.326 . S
O155 C147 1.252 . S
In156 O157 2.294 . S
In156 O158 2.326 . S
In156 O162 2.266 . S
In156 O163 2.326 . S
In156 O164 2.266 . S
In156 O165 2.326 . S
In156 O167 2.294 . S
In156 O168 2.326 . S
O157 In156 2.294 . S
O157 C166 1.240 . S
O158 In156 2.326 . S
O158 C166 1.252 . S
C159 O162 1.252 . S
C159 O163 1.260 . S
C160 O167 1.240 . S
C160 O168 1.252 . S
C161 O164 1.252 . S
C161 O165 1.260 . S
O162 In156 2.266 . S
O162 C159 1.252 . S
O163 In156 2.326 . S
O163 C159 1.260 . S
O164 In156 2.266 . S
O164 C161 1.252 . S
O165 In156 2.326 . S
O165 C161 1.260 . S
C166 O157 1.240 . S
C166 O158 1.252 . S
O167 In156 2.294 . S
O167 C160 1.240 . S
O168 In156 2.326 . S
O168 C160 1.252 . S
In169 O170 2.294 . S
In169 O171 2.326 . S
In169 O175 2.266 . S
In169 O176 2.326 . S
In169 O177 2.266 . S
In169 O178 2.326 . S
In169 O180 2.294 . S
In169 O181 2.326 . S
O170 In169 2.294 . S
O170 C179 1.240 . S
O171 In169 2.326 . S
O171 C179 1.252 . S
C172 O175 1.252 . S
C172 O176 1.260 . S
C173 O180 1.240 . S
C173 O181 1.252 . S
C174 O177 1.252 . S
C174 O178 1.260 . S
O175 In169 2.266 . S
O175 C172 1.252 . S
O176 In169 2.326 . S
O176 C172 1.260 . S
O177 In169 2.266 . S
O177 C174 1.252 . S
O178 In169 2.326 . S
O178 C174 1.260 . S
C179 O170 1.240 . S
C179 O171 1.252 . S
O180 In169 2.294 . S
O180 C173 1.240 . S
O181 In169 2.326 . S
O181 C173 1.252 . S
In182 O183 2.294 . S
In182 O184 2.326 . S
In182 O188 2.266 . S
In182 O189 2.326 . S
In182 O190 2.266 . S
In182 O191 2.326 . S
In182 O193 2.294 . S
In182 O194 2.326 . S
O183 In182 2.294 . S
O183 C192 1.240 . S
O184 In182 2.326 . S
O184 C192 1.252 . S
C185 O188 1.252 . S
C185 O189 1.260 . S
C186 O193 1.240 . S
C186 O194 1.252 . S
C187 O190 1.252 . S
C187 O191 1.260 . S
O188 In182 2.266 . S
O188 C185 1.252 . S
O189 In182 2.326 . S
O189 C185 1.260 . S
O190 In182 2.266 . S
O190 C187 1.252 . S
O191 In182 2.326 . S
O191 C187 1.260 . S
C192 O183 1.240 . S
C192 O184 1.252 . S
O193 In182 2.294 . S
O193 C186 1.240 . S
O194 In182 2.326 . S
O194 C186 1.252 . S
In195 O196 2.294 . S
In195 O197 2.326 . S
In195 O201 2.266 . S
In195 O202 2.326 . S
In195 O203 2.266 . S
In195 O204 2.326 . S
In195 O206 2.294 . S
In195 O207 2.326 . S
O196 In195 2.294 . S
O196 C205 1.240 . S
O197 In195 2.326 . S
O197 C205 1.252 . S
C198 O201 1.252 . S
C198 O202 1.260 . S
C199 O206 1.240 . S
C199 O207 1.252 . S
C200 O203 1.252 . S
C200 O204 1.260 . S
O201 In195 2.266 . S
O201 C198 1.252 . S
O202 In195 2.326 . S
O202 C198 1.260 . S
O203 In195 2.266 . S
O203 C200 1.252 . S
O204 In195 2.326 . S
O204 C200 1.260 . S
C205 O196 1.240 . S
C205 O197 1.252 . S
O206 In195 2.294 . S
O206 C199 1.240 . S
O207 In195 2.326 . S
O207 C199 1.252 . S
In208 O209 2.294 . S
In208 O210 2.326 . S
In208 O214 2.266 . S
In208 O215 2.326 . S
In208 O216 2.266 . S
In208 O217 2.326 . S
In208 O219 2.294 . S
In208 O220 2.326 . S
O209 In208 2.294 . S
O209 C218 1.240 . S
O210 In208 2.326 . S
O210 C218 1.252 . S
C211 O214 1.252 . S
C211 O215 1.260 . S
C212 O219 1.240 . S
C212 O220 1.252 . S
C213 O216 1.252 . S
C213 O217 1.260 . S
O214 In208 2.266 . S
O214 C211 1.252 . S
O215 In208 2.326 . S
O215 C211 1.260 . S
O216 In208 2.266 . S
O216 C213 1.252 . S
O217 In208 2.326 . S
O217 C213 1.260 . S
C218 O209 1.240 . S
C218 O210 1.252 . S
O219 In208 2.294 . S
O219 C212 1.240 . S
O220 In208 2.326 . S
O220 C212 1.252 . S
In221 O222 2.294 . S
In221 O223 2.326 . S
In221 O227 2.266 . S
In221 O228 2.326 . S
In221 O229 2.266 . S
In221 O230 2.326 . S
In221 O232 2.294 . S
In221 O233 2.326 . S
O222 In221 2.294 . S
O222 C231 1.240 . S
O223 In221 2.326 . S
O223 C231 1.252 . S
C224 O227 1.252 . S
C224 O228 1.260 . S
C225 O232 1.240 . S
C225 O233 1.252 . S
C226 O229 1.252 . S
C226 O230 1.260 . S
O227 In221 2.266 . S
O227 C224 1.252 . S
O228 In221 2.326 . S
O228 C224 1.260 . S
O229 In221 2.266 . S
O229 C226 1.252 . S
O230 In221 2.326 . S
O230 C226 1.260 . S
C231 O222 1.240 . S
C231 O223 1.252 . S
O232 In221 2.294 . S
O232 C225 1.240 . S
O233 In221 2.326 . S
O233 C225 1.252 . S
In234 O235 2.294 . S
In234 O236 2.326 . S
In234 O240 2.266 . S
In234 O241 2.326 . S
In234 O242 2.266 . S
In234 O243 2.326 . S
In234 O245 2.294 . S
In234 O246 2.326 . S
O235 In234 2.294 . S
O235 C244 1.240 . S
O236 In234 2.326 . S
O236 C244 1.252 . S
C237 O240 1.252 . S
C237 O241 1.260 . S
C238 O245 1.240 . S
C238 O246 1.252 . S
C239 O242 1.252 . S
C239 O243 1.260 . S
O240 In234 2.266 . S
O240 C237 1.252 . S
O241 In234 2.326 . S
O241 C237 1.260 . S
O242 In234 2.266 . S
O242 C239 1.252 . S
O243 In234 2.326 . S
O243 C239 1.260 . S
C244 O235 1.240 . S
C244 O236 1.252 . S
O245 In234 2.294 . S
O245 C238 1.240 . S
O246 In234 2.326 . S
O246 C238 1.252 . S
In247 O248 2.294 . S
In247 O249 2.326 . S
In247 O253 2.266 . S
In247 O254 2.326 . S
In247 O255 2.266 . S
In247 O256 2.326 . S
In247 O258 2.294 . S
In247 O259 2.326 . S
O248 In247 2.294 . S
O248 C257 1.240 . S
O249 In247 2.326 . S
O249 C257 1.252 . S
C250 O253 1.252 . S
C250 O254 1.260 . S
C251 O258 1.240 . S
C251 O259 1.252 . S
C252 O255 1.252 . S
C252 O256 1.260 . S
O253 In247 2.266 . S
O253 C250 1.252 . S
O254 In247 2.326 . S
O254 C250 1.260 . S
O255 In247 2.266 . S
O255 C252 1.252 . S
O256 In247 2.326 . S
O256 C252 1.260 . S
C257 O248 1.240 . S
C257 O249 1.252 . S
O258 In247 2.294 . S
O258 C251 1.240 . S
O259 In247 2.326 . S
O259 C251 1.252 . S
In260 O261 2.294 . S
In260 O262 2.326 . S
In260 O266 2.266 . S
In260 O267 2.326 . S
In260 O268 2.266 . S
In260 O269 2.326 . S
In260 O271 2.294 . S
In260 O272 2.326 . S
O261 In260 2.294 . S
O261 C270 1.240 . S
O262 In260 2.326 . S
O262 C270 1.252 . S
C263 O266 1.252 . S
C263 O267 1.260 . S
C264 O271 1.240 . S
C264 O272 1.252 . S
C265 O268 1.252 . S
C265 O269 1.260 . S
O266 In260 2.266 . S
O266 C263 1.252 . S
O267 In260 2.326 . S
O267 C263 1.260 . S
O268 In260 2.266 . S
O268 C265 1.252 . S
O269 In260 2.326 . S
O269 C265 1.260 . S
C270 O261 1.240 . S
C270 O262 1.252 . S
O271 In260 2.294 . S
O271 C264 1.240 . S
O272 In260 2.326 . S
O272 C264 1.252 . S
In273 O274 2.294 . S
In273 O275 2.326 . S
In273 O279 2.266 . S
In273 O280 2.326 . S
In273 O281 2.266 . S
In273 O282 2.326 . S
In273 O284 2.294 . S
In273 O285 2.326 . S
O274 In273 2.294 . S
O274 C283 1.240 . S
O275 In273 2.326 . S
O275 C283 1.252 . S
C276 O279 1.252 . S
C276 O280 1.260 . S
C277 O284 1.240 . S
C277 O285 1.252 . S
C278 O281 1.252 . S
C278 O282 1.260 . S
O279 In273 2.266 . S
O279 C276 1.252 . S
O280 In273 2.326 . S
O280 C276 1.260 . S
O281 In273 2.266 . S
O281 C278 1.252 . S
O282 In273 2.326 . S
O282 C278 1.260 . S
C283 O274 1.240 . S
C283 O275 1.252 . S
O284 In273 2.294 . S
O284 C277 1.240 . S
O285 In273 2.326 . S
O285 C277 1.252 . S
In286 O287 2.294 . S
In286 O288 2.326 . S
In286 O292 2.266 . S
In286 O293 2.326 . S
In286 O294 2.266 . S
In286 O295 2.326 . S
In286 O297 2.294 . S
In286 O298 2.326 . S
O287 In286 2.294 . S
O287 C296 1.240 . S
O288 In286 2.326 . S
O288 C296 1.252 . S
C289 O292 1.252 . S
C289 O293 1.260 . S
C290 O297 1.240 . S
C290 O298 1.252 . S
C291 O294 1.252 . S
C291 O295 1.260 . S
O292 In286 2.266 . S
O292 C289 1.252 . S
O293 In286 2.326 . S
O293 C289 1.260 . S
O294 In286 2.266 . S
O294 C291 1.252 . S
O295 In286 2.326 . S
O295 C291 1.260 . S
C296 O287 1.240 . S
C296 O288 1.252 . S
O297 In286 2.294 . S
O297 C290 1.240 . S
O298 In286 2.326 . S
O298 C290 1.252 . S
In299 O300 2.294 . S
In299 O301 2.326 . S
In299 O305 2.266 . S
In299 O306 2.326 . S
In299 O307 2.266 . S
In299 O308 2.326 . S
In299 O310 2.294 . S
In299 O311 2.326 . S
O300 In299 2.294 . S
O300 C309 1.240 . S
O301 In299 2.326 . S
O301 C309 1.252 . S
C302 O305 1.252 . S
C302 O306 1.260 . S
C303 O310 1.240 . S
C303 O311 1.252 . S
C304 O307 1.252 . S
C304 O308 1.260 . S
O305 In299 2.266 . S
O305 C302 1.252 . S
O306 In299 2.326 . S
O306 C302 1.260 . S
O307 In299 2.266 . S
O307 C304 1.252 . S
O308 In299 2.326 . S
O308 C304 1.260 . S
C309 O300 1.240 . S
C309 O301 1.252 . S
O310 In299 2.294 . S
O310 C303 1.240 . S
O311 In299 2.326 . S
O311 C303 1.252 . S
In312 O313 2.294 . S
In312 O314 2.326 . S
In312 O318 2.266 . S
In312 O319 2.326 . S
In312 O320 2.266 . S
In312 O321 2.326 . S
In312 O323 2.294 . S
In312 O324 2.326 . S
O313 In312 2.294 . S
O313 C322 1.240 . S
O314 In312 2.326 . S
O314 C322 1.252 . S
C315 O318 1.252 . S
C315 O319 1.260 . S
C316 O323 1.240 . S
C316 O324 1.252 . S
C317 O320 1.252 . S
C317 O321 1.260 . S
O318 In312 2.266 . S
O318 C315 1.252 . S
O319 In312 2.326 . S
O319 C315 1.260 . S
O320 In312 2.266 . S
O320 C317 1.252 . S
O321 In312 2.326 . S
O321 C317 1.260 . S
C322 O313 1.240 . S
C322 O314 1.252 . S
O323 In312 2.294 . S
O323 C316 1.240 . S
O324 In312 2.326 . S
O324 C316 1.252 . S
In325 O326 2.294 . S
In325 O327 2.326 . S
In325 O331 2.266 . S
In325 O332 2.326 . S
In325 O333 2.266 . S
In325 O334 2.326 . S
In325 O336 2.294 . S
In325 O337 2.326 . S
O326 In325 2.294 . S
O326 C335 1.240 . S
O327 In325 2.326 . S
O327 C335 1.252 . S
C328 O331 1.252 . S
C328 O332 1.260 . S
C329 O336 1.240 . S
C329 O337 1.252 . S
C330 O333 1.252 . S
C330 O334 1.260 . S
O331 In325 2.266 . S
O331 C328 1.252 . S
O332 In325 2.326 . S
O332 C328 1.260 . S
O333 In325 2.266 . S
O333 C330 1.252 . S
O334 In325 2.326 . S
O334 C330 1.260 . S
C335 O326 1.240 . S
C335 O327 1.252 . S
O336 In325 2.294 . S
O336 C329 1.240 . S
O337 In325 2.326 . S
O337 C329 1.252 . S
In338 O339 2.294 . S
In338 O340 2.326 . S
In338 O344 2.266 . S
In338 O345 2.326 . S
In338 O346 2.266 . S
In338 O347 2.326 . S
In338 O349 2.294 . S
In338 O350 2.326 . S
O339 In338 2.294 . S
O339 C348 1.240 . S
O340 In338 2.326 . S
O340 C348 1.252 . S
C341 O344 1.252 . S
C341 O345 1.260 . S
C342 O349 1.240 . S
C342 O350 1.252 . S
C343 O346 1.252 . S
C343 O347 1.260 . S
O344 In338 2.266 . S
O344 C341 1.252 . S
O345 In338 2.326 . S
O345 C341 1.260 . S
O346 In338 2.266 . S
O346 C343 1.252 . S
O347 In338 2.326 . S
O347 C343 1.260 . S
C348 O339 1.240 . S
C348 O340 1.252 . S
O349 In338 2.294 . S
O349 C342 1.240 . S
O350 In338 2.326 . S
O350 C342 1.252 . S
In351 O352 2.294 . S
In351 O353 2.326 . S
In351 O357 2.266 . S
In351 O358 2.326 . S
In351 O359 2.266 . S
In351 O360 2.326 . S
In351 O362 2.294 . S
In351 O363 2.326 . S
O352 In351 2.294 . S
O352 C361 1.240 . S
O353 In351 2.326 . S
O353 C361 1.252 . S
C354 O357 1.252 . S
C354 O358 1.260 . S
C355 O362 1.240 . S
C355 O363 1.252 . S
C356 O359 1.252 . S
C356 O360 1.260 . S
O357 In351 2.266 . S
O357 C354 1.252 . S
O358 In351 2.326 . S
O358 C354 1.260 . S
O359 In351 2.266 . S
O359 C356 1.252 . S
O360 In351 2.326 . S
O360 C356 1.260 . S
C361 O352 1.240 . S
C361 O353 1.252 . S
O362 In351 2.294 . S
O362 C355 1.240 . S
O363 In351 2.326 . S
O363 C355 1.252 . S
In364 O365 2.294 . S
In364 O366 2.326 . S
In364 O370 2.266 . S
In364 O371 2.326 . S
In364 O372 2.266 . S
In364 O373 2.326 . S
In364 O375 2.294 . S
In364 O376 2.326 . S
O365 In364 2.294 . S
O365 C374 1.240 . S
O366 In364 2.326 . S
O366 C374 1.252 . S
C367 O370 1.252 . S
C367 O371 1.260 . S
C368 O375 1.240 . S
C368 O376 1.252 . S
C369 O372 1.252 . S
C369 O373 1.260 . S
O370 In364 2.266 . S
O370 C367 1.252 . S
O371 In364 2.326 . S
O371 C367 1.260 . S
O372 In364 2.266 . S
O372 C369 1.252 . S
O373 In364 2.326 . S
O373 C369 1.260 . S
C374 O365 1.240 . S
C374 O366 1.252 . S
O375 In364 2.294 . S
O375 C368 1.240 . S
O376 In364 2.326 . S
O376 C368 1.252 . S
In377 O378 2.294 . S
In377 O379 2.326 . S
In377 O383 2.266 . S
In377 O384 2.326 . S
In377 O385 2.266 . S
In377 O386 2.326 . S
In377 O388 2.294 . S
In377 O389 2.326 . S
O378 In377 2.294 . S
O378 C387 1.240 . S
O379 In377 2.326 . S
O379 C387 1.252 . S
C380 O383 1.252 . S
C380 O384 1.260 . S
C381 O388 1.240 . S
C381 O389 1.252 . S
C382 O385 1.252 . S
C382 O386 1.260 . S
O383 In377 2.266 . S
O383 C380 1.252 . S
O384 In377 2.326 . S
O384 C380 1.260 . S
O385 In377 2.266 . S
O385 C382 1.252 . S
O386 In377 2.326 . S
O386 C382 1.260 . S
C387 O378 1.240 . S
C387 O379 1.252 . S
O388 In377 2.294 . S
O388 C381 1.240 . S
O389 In377 2.326 . S
O389 C381 1.252 . S
In390 O391 2.294 . S
In390 O392 2.326 . S
In390 O396 2.266 . S
In390 O397 2.326 . S
In390 O398 2.266 . S
In390 O399 2.326 . S
In390 O401 2.294 . S
In390 O402 2.326 . S
O391 In390 2.294 . S
O391 C400 1.240 . S
O392 In390 2.326 . S
O392 C400 1.252 . S
C393 O396 1.252 . S
C393 O397 1.260 . S
C394 O401 1.240 . S
C394 O402 1.252 . S
C395 O398 1.252 . S
C395 O399 1.260 . S
O396 In390 2.266 . S
O396 C393 1.252 . S
O397 In390 2.326 . S
O397 C393 1.260 . S
O398 In390 2.266 . S
O398 C395 1.252 . S
O399 In390 2.326 . S
O399 C395 1.260 . S
C400 O391 1.240 . S
C400 O392 1.252 . S
O401 In390 2.294 . S
O401 C394 1.240 . S
O402 In390 2.326 . S
O402 C394 1.252 . S
In403 O404 2.294 . S
In403 O405 2.326 . S
In403 O409 2.266 . S
In403 O410 2.326 . S
In403 O411 2.266 . S
In403 O412 2.326 . S
In403 O414 2.294 . S
In403 O415 2.326 . S
O404 In403 2.294 . S
O404 C413 1.240 . S
O405 In403 2.326 . S
O405 C413 1.252 . S
C406 O409 1.252 . S
C406 O410 1.260 . S
C407 O414 1.240 . S
C407 O415 1.252 . S
C408 O411 1.252 . S
C408 O412 1.260 . S
O409 In403 2.266 . S
O409 C406 1.252 . S
O410 In403 2.326 . S
O410 C406 1.260 . S
O411 In403 2.266 . S
O411 C408 1.252 . S
O412 In403 2.326 . S
O412 C408 1.260 . S
C413 O404 1.240 . S
C413 O405 1.252 . S
O414 In403 2.294 . S
O414 C407 1.240 . S
O415 In403 2.326 . S
O415 C407 1.252 . S
H416 C424 0.929 . S
H417 C426 0.930 . S
H418 C428 0.930 . S
H419 C431 0.929 . S
H420 C434 0.930 . S
H421 C436 0.960 . S
H422 C436 0.960 . S
H423 C436 0.960 . S
C424 H416 0.929 . S
C424 C425 1.377 . S
C424 C426 1.384 . S
C425 C424 1.377 . S
C425 C431 1.390 . S
C426 H417 0.930 . S
C426 C424 1.384 . S
C426 C427 1.372 . S
C427 C426 1.372 . S
C427 C428 1.400 . S
C427 C432 1.490 . S
C428 H418 0.930 . S
C428 C427 1.400 . S
C428 C431 1.386 . S
H429 C445 0.930 . S
H430 C446 0.931 . S
C431 H419 0.929 . S
C431 C425 1.390 . S
C431 C428 1.386 . S
C432 C427 1.490 . S
C432 C434 1.395 1_545 S
C432 C435 1.403 . S
H433 C439 0.930 . S
C434 H420 0.930 . S
C434 C432 1.395 1_565 S
C434 C437 1.403 . S
C435 C432 1.403 . S
C435 C436 1.524 . S
C435 C439 1.400 . S
C436 H421 0.960 . S
C436 H422 0.960 . S
C436 H423 0.960 . S
C436 C435 1.524 . S
C437 C434 1.403 . S
C437 C438 1.392 . S
C437 C441 1.495 . S
C438 C437 1.392 . S
C438 C439 1.385 1_565 S
C438 C440 1.478 . S
C439 H433 0.930 . S
C439 C435 1.400 . S
C439 C438 1.385 1_545 S
C440 C438 1.478 . S
C440 C442 1.381 . S
C440 C446 1.383 . S
C441 C437 1.495 . S
C441 H447 0.959 . S
C441 H448 0.961 . S
C441 H449 0.960 . S
C442 C440 1.381 . S
C442 C443 1.394 . S
C442 H450 0.930 . S
C443 C442 1.394 . S
C443 C444 1.383 . S
C443 H451 0.929 . S
C444 C443 1.383 . S
C444 C445 1.377 . S
C445 H429 0.930 . S
C445 C444 1.377 . S
C445 C446 1.379 . S
C446 H430 0.931 . S
C446 C440 1.383 . S
C446 C445 1.379 . S
H447 C441 0.959 . S
H448 C441 0.961 . S
H449 C441 0.960 . S
H450 C442 0.930 . S
H451 C443 0.929 . S
H452 C460 0.929 . S
H453 C462 0.930 . S
H454 C464 0.930 . S
H455 C467 0.929 . S
H456 C470 0.930 . S
H457 C472 0.960 . S
H458 C472 0.960 . S
H459 C472 0.960 . S
C460 H452 0.929 . S
C460 C461 1.377 . S
C460 C462 1.384 . S
C461 C460 1.377 . S
C461 C467 1.390 . S
C462 H453 0.930 . S
C462 C460 1.384 . S
C462 C463 1.372 . S
C463 C462 1.372 . S
C463 C464 1.400 . S
C463 C468 1.490 . S
C464 H454 0.930 . S
C464 C463 1.400 . S
C464 C467 1.386 . S
H465 C481 0.930 . S
H466 C482 0.931 . S
C467 H455 0.929 . S
C467 C461 1.390 . S
C467 C464 1.386 . S
C468 C463 1.490 . S
C468 C470 1.395 . S
C468 C471 1.403 . S
H469 C475 0.930 . S
C470 H456 0.930 . S
C470 C468 1.395 . S
C470 C473 1.403 . S
C471 C468 1.403 . S
C471 C472 1.524 . S
C471 C475 1.400 . S
C472 H457 0.960 . S
C472 H458 0.960 . S
C472 H459 0.960 . S
C472 C471 1.524 . S
C473 C470 1.403 . S
C473 C474 1.392 . S
C473 C477 1.495 . S
C474 C473 1.392 . S
C474 C475 1.385 . S
C474 C476 1.478 . S
C475 H469 0.930 . S
C475 C471 1.400 . S
C475 C474 1.385 . S
C476 C474 1.478 . S
C476 C478 1.381 . S
C476 C482 1.383 . S
C477 C473 1.495 . S
C477 H483 0.959 . S
C477 H484 0.961 . S
C477 H485 0.960 . S
C478 C476 1.381 . S
C478 C479 1.394 . S
C478 H486 0.930 . S
C479 C478 1.394 . S
C479 C480 1.383 . S
C479 H487 0.929 . S
C480 C479 1.383 . S
C480 C481 1.377 . S
C481 H465 0.930 . S
C481 C480 1.377 . S
C481 C482 1.379 . S
C482 H466 0.931 . S
C482 C476 1.383 . S
C482 C481 1.379 . S
H483 C477 0.959 . S
H484 C477 0.961 . S
H485 C477 0.960 . S
H486 C478 0.930 . S
H487 C479 0.929 . S
H488 C496 0.929 . S
H489 C498 0.930 . S
H490 C500 0.930 . S
H491 C503 0.929 . S
H492 C506 0.930 . S
H493 C508 0.960 . S
H494 C508 0.960 . S
H495 C508 0.960 . S
C496 H488 0.929 . S
C496 C497 1.377 . S
C496 C498 1.384 . S
C497 C496 1.377 . S
C497 C503 1.390 . S
C498 H489 0.930 . S
C498 C496 1.384 . S
C498 C499 1.372 . S
C499 C498 1.372 . S
C499 C500 1.400 . S
C499 C504 1.490 . S
C500 H490 0.930 . S
C500 C499 1.400 . S
C500 C503 1.386 . S
H501 C517 0.930 . S
H502 C518 0.931 . S
C503 H491 0.929 . S
C503 C497 1.390 . S
C503 C500 1.386 . S
C504 C499 1.490 . S
C504 C506 1.395 . S
C504 C507 1.403 1_545 S
H505 C511 0.930 . S
C506 H492 0.930 . S
C506 C504 1.395 . S
C506 C509 1.403 . S
C507 C504 1.403 1_565 S
C507 C508 1.524 . S
C507 C511 1.400 . S
C508 H493 0.960 . S
C508 H494 0.960 . S
C508 H495 0.960 . S
C508 C507 1.524 . S
C509 C506 1.403 . S
C509 C510 1.392 1_545 S
C509 C513 1.495 . S
C510 C509 1.392 1_565 S
C510 C511 1.385 . S
C510 C512 1.478 . S
C511 H505 0.930 . S
C511 C507 1.400 . S
C511 C510 1.385 . S
C512 C510 1.478 . S
C512 C514 1.381 . S
C512 C518 1.383 . S
C513 C509 1.495 . S
C513 H519 0.959 . S
C513 H520 0.961 . S
C513 H521 0.960 . S
C514 C512 1.381 . S
C514 C515 1.394 . S
C514 H522 0.930 . S
C515 C514 1.394 . S
C515 C516 1.383 . S
C515 H523 0.929 . S
C516 C515 1.383 . S
C516 C517 1.377 . S
C517 H501 0.930 . S
C517 C516 1.377 . S
C517 C518 1.379 . S
C518 H502 0.931 . S
C518 C512 1.383 . S
C518 C517 1.379 . S
H519 C513 0.959 . S
H520 C513 0.961 . S
H521 C513 0.960 . S
H522 C514 0.930 . S
H523 C515 0.929 . S
H524 C532 0.929 . S
H525 C534 0.930 . S
H526 C536 0.930 . S
H527 C539 0.929 . S
H528 C542 0.930 . S
H529 C544 0.960 . S
H530 C544 0.960 . S
H531 C544 0.960 . S
C532 H524 0.929 . S
C532 C533 1.377 . S
C532 C534 1.384 . S
C533 C532 1.377 . S
C533 C539 1.390 . S
C534 H525 0.930 . S
C534 C532 1.384 . S
C534 C535 1.372 . S
C535 C534 1.372 . S
C535 C536 1.400 . S
C535 C540 1.490 . S
C536 H526 0.930 . S
C536 C535 1.400 . S
C536 C539 1.386 . S
H537 C553 0.930 . S
H538 C554 0.931 . S
C539 H527 0.929 . S
C539 C533 1.390 . S
C539 C536 1.386 . S
C540 C535 1.490 . S
C540 C542 1.395 1_556 S
C540 C543 1.403 . S
H541 C547 0.930 . S
C542 H528 0.930 . S
C542 C540 1.395 1_554 S
C542 C545 1.403 . S
C543 C540 1.403 . S
C543 C544 1.524 . S
C543 C547 1.400 . S
C544 H529 0.960 . S
C544 H530 0.960 . S
C544 H531 0.960 . S
C544 C543 1.524 . S
C545 C542 1.403 . S
C545 C546 1.392 . S
C545 C549 1.495 . S
C546 C545 1.392 . S
C546 C547 1.385 1_554 S
C546 C548 1.478 . S
C547 H541 0.930 . S
C547 C543 1.400 . S
C547 C546 1.385 1_556 S
C548 C546 1.478 . S
C548 C550 1.381 . S
C548 C554 1.383 . S
C549 C545 1.495 . S
C549 H555 0.959 . S
C549 H556 0.961 . S
C549 H557 0.960 . S
C550 C548 1.381 . S
C550 C551 1.394 . S
C550 H558 0.930 . S
C551 C550 1.394 . S
C551 C552 1.383 . S
C551 H559 0.929 . S
C552 C551 1.383 . S
C552 C553 1.377 . S
C553 H537 0.930 . S
C553 C552 1.377 . S
C553 C554 1.379 . S
C554 H538 0.931 . S
C554 C548 1.383 . S
C554 C553 1.379 . S
H555 C549 0.959 . S
H556 C549 0.961 . S
H557 C549 0.960 . S
H558 C550 0.930 . S
H559 C551 0.929 . S
H560 C568 0.929 . S
H561 C570 0.930 . S
H562 C572 0.930 . S
H563 C575 0.929 . S
H564 C578 0.930 . S
H565 C580 0.960 . S
H566 C580 0.960 1_565 S
H567 C580 0.960 . S
C568 H560 0.929 . S
C568 C569 1.377 . S
C568 C570 1.384 . S
C569 C568 1.377 . S
C569 C575 1.390 . S
C570 H561 0.930 . S
C570 C568 1.384 . S
C570 C571 1.372 . S
C571 C570 1.372 . S
C571 C572 1.400 . S
C571 C576 1.490 . S
C572 H562 0.930 . S
C572 C571 1.400 . S
C572 C575 1.386 . S
H573 C589 0.930 . S
H574 C590 0.931 . S
C575 H563 0.929 . S
C575 C569 1.390 . S
C575 C572 1.386 . S
C576 C571 1.490 . S
C576 C578 1.395 . S
C576 C579 1.403 1_565 S
H577 C583 0.930 . S
C578 H564 0.930 . S
C578 C576 1.395 . S
C578 C581 1.403 . S
C579 C576 1.403 1_545 S
C579 C580 1.524 . S
C579 C583 1.400 . S
C580 H565 0.960 . S
C580 H566 0.960 1_545 S
C580 H567 0.960 . S
C580 C579 1.524 . S
C581 C578 1.403 . S
C581 C582 1.392 1_565 S
C581 C585 1.495 . S
C582 C581 1.392 1_545 S
C582 C583 1.385 . S
C582 C584 1.478 . S
C583 H577 0.930 . S
C583 C579 1.400 . S
C583 C582 1.385 . S
C584 C582 1.478 . S
C584 C586 1.381 . S
C584 C590 1.383 . S
C585 C581 1.495 . S
C585 H591 0.959 . S
C585 H592 0.961 1_565 S
C585 H593 0.960 . S
C586 C584 1.381 . S
C586 C587 1.394 . S
C586 H594 0.930 . S
C587 C586 1.394 . S
C587 C588 1.383 . S
C587 H595 0.929 . S
C588 C587 1.383 . S
C588 C589 1.377 . S
C589 H573 0.930 . S
C589 C588 1.377 . S
C589 C590 1.379 . S
C590 H574 0.931 . S
C590 C584 1.383 . S
C590 C589 1.379 . S
H591 C585 0.959 . S
H592 C585 0.961 1_545 S
H593 C585 0.960 . S
H594 C586 0.930 . S
H595 C587 0.929 . S
H596 C604 0.929 . S
H597 C606 0.930 . S
H598 C608 0.930 . S
H599 C611 0.929 . S
H600 C614 0.930 . S
H601 C616 0.960 . S
H602 C616 0.960 . S
H603 C616 0.960 . S
C604 H596 0.929 . S
C604 C605 1.377 . S
C604 C606 1.384 . S
C605 C604 1.377 . S
C605 C611 1.390 . S
C606 H597 0.930 . S
C606 C604 1.384 . S
C606 C607 1.372 . S
C607 C606 1.372 . S
C607 C608 1.400 . S
C607 C612 1.490 . S
C608 H598 0.930 . S
C608 C607 1.400 . S
C608 C611 1.386 . S
H609 C625 0.930 . S
H610 C626 0.931 . S
C611 H599 0.929 . S
C611 C605 1.390 . S
C611 C608 1.386 . S
C612 C607 1.490 . S
C612 C614 1.395 . S
C612 C615 1.403 . S
H613 C619 0.930 . S
C614 H600 0.930 . S
C614 C612 1.395 . S
C614 C617 1.403 . S
C615 C612 1.403 . S
C615 C616 1.524 . S
C615 C619 1.400 . S
C616 H601 0.960 . S
C616 H602 0.960 . S
C616 H603 0.960 . S
C616 C615 1.524 . S
C617 C614 1.403 . S
C617 C618 1.392 . S
C617 C621 1.495 . S
C618 C617 1.392 . S
C618 C619 1.385 . S
C618 C620 1.478 . S
C619 H613 0.930 . S
C619 C615 1.400 . S
C619 C618 1.385 . S
C620 C618 1.478 . S
C620 C622 1.381 . S
C620 C626 1.383 . S
C621 C617 1.495 . S
C621 H627 0.959 . S
C621 H628 0.961 . S
C621 H629 0.960 . S
C622 C620 1.381 . S
C622 C623 1.394 . S
C622 H630 0.930 . S
C623 C622 1.394 . S
C623 C624 1.383 . S
C623 H631 0.929 . S
C624 C623 1.383 . S
C624 C625 1.377 . S
C625 H609 0.930 . S
C625 C624 1.377 . S
C625 C626 1.379 . S
C626 H610 0.931 . S
C626 C620 1.383 . S
C626 C625 1.379 . S
H627 C621 0.959 . S
H628 C621 0.961 . S
H629 C621 0.960 . S
H630 C622 0.930 . S
H631 C623 0.929 . S
H632 C640 0.929 . S
H633 C642 0.930 . S
H634 C644 0.930 . S
H635 C647 0.929 . S
H636 C650 0.930 . S
H637 C652 0.960 . S
H638 C652 0.960 . S
H639 C652 0.960 . S
C640 H632 0.929 . S
C640 C641 1.377 . S
C640 C642 1.384 . S
C641 C640 1.377 . S
C641 C647 1.390 . S
C642 H633 0.930 . S
C642 C640 1.384 . S
C642 C643 1.372 . S
C643 C642 1.372 . S
C643 C644 1.400 . S
C643 C648 1.490 . S
C644 H634 0.930 . S
C644 C643 1.400 . S
C644 C647 1.386 . S
H645 C661 0.930 . S
H646 C662 0.931 . S
C647 H635 0.929 . S
C647 C641 1.390 . S
C647 C644 1.386 . S
C648 C643 1.490 . S
C648 C650 1.395 . S
C648 C651 1.403 . S
H649 C655 0.930 . S
C650 H636 0.930 . S
C650 C648 1.395 . S
C650 C653 1.403 1_565 S
C651 C648 1.403 . S
C651 C652 1.524 . S
C651 C655 1.400 1_565 S
C652 H637 0.960 . S
C652 H638 0.960 . S
C652 H639 0.960 . S
C652 C651 1.524 . S
C653 C650 1.403 1_545 S
C653 C654 1.392 . S
C653 C657 1.495 . S
C654 C653 1.392 . S
C654 C655 1.385 . S
C654 C656 1.478 . S
C655 H649 0.930 . S
C655 C651 1.400 1_545 S
C655 C654 1.385 . S
C656 C654 1.478 . S
C656 C658 1.381 . S
C656 C662 1.383 . S
C657 C653 1.495 . S
C657 H663 0.959 . S
C657 H664 0.961 . S
C657 H665 0.960 . S
C658 C656 1.381 . S
C658 C659 1.394 . S
C658 H666 0.930 . S
C659 C658 1.394 . S
C659 C660 1.383 . S
C659 H667 0.929 . S
C660 C659 1.383 . S
C660 C661 1.377 . S
C661 H645 0.930 . S
C661 C660 1.377 . S
C661 C662 1.379 . S
C662 H646 0.931 . S
C662 C656 1.383 . S
C662 C661 1.379 . S
H663 C657 0.959 . S
H664 C657 0.961 . S
H665 C657 0.960 . S
H666 C658 0.930 . S
H667 C659 0.929 . S
H668 C676 0.929 . S
H669 C678 0.930 . S
H670 C680 0.930 . S
H671 C683 0.929 . S
H672 C686 0.930 . S
H673 C688 0.960 . S
H674 C688 0.960 . S
H675 C688 0.960 1_556 S
C676 H668 0.929 . S
C676 C677 1.377 . S
C676 C678 1.384 . S
C677 C676 1.377 . S
C677 C683 1.390 . S
C678 H669 0.930 . S
C678 C676 1.384 . S
C678 C679 1.372 . S
C679 C678 1.372 . S
C679 C680 1.400 . S
C679 C684 1.490 . S
C680 H670 0.930 . S
C680 C679 1.400 . S
C680 C683 1.386 . S
H681 C697 0.930 . S
H682 C698 0.931 . S
C683 H671 0.929 . S
C683 C677 1.390 . S
C683 C680 1.386 . S
C684 C679 1.490 . S
C684 C686 1.395 . S
C684 C687 1.403 1_556 S
H685 C691 0.930 . S
C686 H672 0.930 . S
C686 C684 1.395 . S
C686 C689 1.403 . S
C687 C684 1.403 1_554 S
C687 C688 1.524 . S
C687 C691 1.400 . S
C688 H673 0.960 . S
C688 H674 0.960 . S
C688 H675 0.960 1_554 S
C688 C687 1.524 . S
C689 C686 1.403 . S
C689 C690 1.392 1_556 S
C689 C693 1.495 . S
C690 C689 1.392 1_554 S
C690 C691 1.385 . S
C690 C692 1.478 . S
C691 H685 0.930 . S
C691 C687 1.400 . S
C691 C690 1.385 . S
C692 C690 1.478 . S
C692 C694 1.381 . S
C692 C698 1.383 . S
C693 C689 1.495 . S
C693 H699 0.959 . S
C693 H700 0.961 . S
C693 H701 0.960 1_556 S
C694 C692 1.381 . S
C694 C695 1.394 . S
C694 H702 0.930 . S
C695 C694 1.394 . S
C695 C696 1.383 . S
C695 H703 0.929 . S
C696 C695 1.383 . S
C696 C697 1.377 . S
C697 H681 0.930 . S
C697 C696 1.377 . S
C697 C698 1.379 . S
C698 H682 0.931 . S
C698 C692 1.383 . S
C698 C697 1.379 . S
H699 C693 0.959 . S
H700 C693 0.961 . S
H701 C693 0.960 1_554 S
H702 C694 0.930 . S
H703 C695 0.929 . S
H704 C712 0.929 . S
H705 C714 0.930 . S
H706 C716 0.930 . S
H707 C719 0.929 . S
H708 C722 0.930 . S
H709 C724 0.960 . S
H710 C724 0.960 . S
H711 C724 0.960 . S
C712 H704 0.929 . S
C712 C713 1.377 . S
C712 C714 1.384 . S
C713 C712 1.377 . S
C713 C719 1.390 . S
C714 H705 0.930 . S
C714 C712 1.384 . S
C714 C715 1.372 . S
C715 C714 1.372 . S
C715 C716 1.400 . S
C715 C720 1.490 . S
C716 H706 0.930 . S
C716 C715 1.400 . S
C716 C719 1.386 . S
H717 C733 0.930 . S
H718 C734 0.931 . S
C719 H707 0.929 . S
C719 C713 1.390 . S
C719 C716 1.386 . S
C720 C715 1.490 . S
C720 C722 1.395 . S
C720 C723 1.403 . S
H721 C727 0.930 . S
C722 H708 0.930 . S
C722 C720 1.395 . S
C722 C725 1.403 . S
C723 C720 1.403 . S
C723 C724 1.524 . S
C723 C727 1.400 . S
C724 H709 0.960 . S
C724 H710 0.960 . S
C724 H711 0.960 . S
C724 C723 1.524 . S
C725 C722 1.403 . S
C725 C726 1.392 . S
C725 C729 1.495 . S
C726 C725 1.392 . S
C726 C727 1.385 . S
C726 C728 1.478 . S
C727 H721 0.930 . S
C727 C723 1.400 . S
C727 C726 1.385 . S
C728 C726 1.478 . S
C728 C730 1.381 . S
C728 C734 1.383 . S
C729 C725 1.495 . S
C729 H735 0.959 . S
C729 H736 0.961 . S
C729 H737 0.960 . S
C730 C728 1.381 . S
C730 C731 1.394 . S
C730 H738 0.930 . S
C731 C730 1.394 . S
C731 C732 1.383 . S
C731 H739 0.929 . S
C732 C731 1.383 . S
C732 C733 1.377 . S
C733 H717 0.930 . S
C733 C732 1.377 . S
C733 C734 1.379 . S
C734 H718 0.931 . S
C734 C728 1.383 . S
C734 C733 1.379 . S
H735 C729 0.959 . S
H736 C729 0.961 . S
H737 C729 0.960 . S
H738 C730 0.930 . S
H739 C731 0.929 . S
H740 C748 0.929 . S
H741 C750 0.930 . S
H742 C752 0.930 . S
H743 C755 0.929 . S
H744 C758 0.930 . S
H745 C760 0.960 . S
H746 C760 0.960 . S
H747 C760 0.960 . S
C748 H740 0.929 . S
C748 C749 1.377 . S
C748 C750 1.384 . S
C749 C748 1.377 . S
C749 C755 1.390 . S
C750 H741 0.930 . S
C750 C748 1.384 . S
C750 C751 1.372 . S
C751 C750 1.372 . S
C751 C752 1.400 . S
C751 C756 1.490 . S
C752 H742 0.930 . S
C752 C751 1.400 . S
C752 C755 1.386 . S
H753 C769 0.930 . S
H754 C770 0.931 . S
C755 H743 0.929 . S
C755 C749 1.390 . S
C755 C752 1.386 . S
C756 C751 1.490 . S
C756 C758 1.395 1_556 S
C756 C759 1.403 . S
H757 C763 0.930 . S
C758 H744 0.930 . S
C758 C756 1.395 1_554 S
C758 C761 1.403 . S
C759 C756 1.403 . S
C759 C760 1.524 . S
C759 C763 1.400 . S
C760 H745 0.960 . S
C760 H746 0.960 . S
C760 H747 0.960 . S
C760 C759 1.524 . S
C761 C758 1.403 . S
C761 C762 1.392 . S
C761 C765 1.495 . S
C762 C761 1.392 . S
C762 C763 1.385 1_554 S
C762 C764 1.478 . S
C763 H757 0.930 . S
C763 C759 1.400 . S
C763 C762 1.385 1_556 S
C764 C762 1.478 . S
C764 C766 1.381 . S
C764 C770 1.383 . S
C765 C761 1.495 . S
C765 H771 0.959 . S
C765 H772 0.961 . S
C765 H773 0.960 . S
C766 C764 1.381 . S
C766 C767 1.394 . S
C766 H774 0.930 . S
C767 C766 1.394 . S
C767 C768 1.383 . S
C767 H775 0.929 . S
C768 C767 1.383 . S
C768 C769 1.377 . S
C769 H753 0.930 . S
C769 C768 1.377 . S
C769 C770 1.379 . S
C770 H754 0.931 . S
C770 C764 1.383 . S
C770 C769 1.379 . S
H771 C765 0.959 . S
H772 C765 0.961 . S
H773 C765 0.960 . S
H774 C766 0.930 . S
H775 C767 0.929 . S
H776 C784 0.929 . S
H777 C786 0.930 . S
H778 C788 0.930 . S
H779 C791 0.929 . S
H780 C794 0.930 . S
H781 C796 0.960 . S
H782 C796 0.960 . S
H783 C796 0.960 . S
C784 H776 0.929 . S
C784 C785 1.377 . S
C784 C786 1.384 . S
C785 C784 1.377 . S
C785 C791 1.390 . S
C786 H777 0.930 . S
C786 C784 1.384 . S
C786 C787 1.372 . S
C787 C786 1.372 . S
C787 C788 1.400 . S
C787 C792 1.490 . S
C788 H778 0.930 . S
C788 C787 1.400 . S
C788 C791 1.386 . S
H789 C805 0.930 . S
H790 C806 0.931 . S
C791 H779 0.929 . S
C791 C785 1.390 . S
C791 C788 1.386 . S
C792 C787 1.490 . S
C792 C794 1.395 . S
C792 C795 1.403 . S
H793 C799 0.930 . S
C794 H780 0.930 . S
C794 C792 1.395 . S
C794 C797 1.403 . S
C795 C792 1.403 . S
C795 C796 1.524 . S
C795 C799 1.400 . S
C796 H781 0.960 . S
C796 H782 0.960 . S
C796 H783 0.960 . S
C796 C795 1.524 . S
C797 C794 1.403 . S
C797 C798 1.392 . S
C797 C801 1.495 . S
C798 C797 1.392 . S
C798 C799 1.385 . S
C798 C800 1.478 . S
C799 H793 0.930 . S
C799 C795 1.400 . S
C799 C798 1.385 . S
C800 C798 1.478 . S
C800 C802 1.381 . S
C800 C806 1.383 . S
C801 C797 1.495 . S
C801 H807 0.959 . S
C801 H808 0.961 . S
C801 H809 0.960 . S
C802 C800 1.381 . S
C802 C803 1.394 . S
C802 H810 0.930 . S
C803 C802 1.394 . S
C803 C804 1.383 . S
C803 H811 0.929 . S
C804 C803 1.383 . S
C804 C805 1.377 . S
C805 H789 0.930 . S
C805 C804 1.377 . S
C805 C806 1.379 . S
C806 H790 0.931 . S
C806 C800 1.383 . S
C806 C805 1.379 . S
H807 C801 0.959 . S
H808 C801 0.961 . S
H809 C801 0.960 . S
H810 C802 0.930 . S
H811 C803 0.929 . S
H812 C820 0.929 . S
H813 C822 0.930 . S
H814 C824 0.930 . S
H815 C827 0.929 . S
H816 C830 0.930 . S
H817 C832 0.960 . S
H818 C832 0.960 . S
H819 C832 0.960 . S
C820 H812 0.929 . S
C820 C821 1.377 . S
C820 C822 1.384 . S
C821 C820 1.377 . S
C821 C827 1.390 . S
C822 H813 0.930 . S
C822 C820 1.384 . S
C822 C823 1.372 . S
C823 C822 1.372 . S
C823 C824 1.400 . S
C823 C828 1.490 . S
C824 H814 0.930 . S
C824 C823 1.400 . S
C824 C827 1.386 . S
H825 C841 0.930 . S
H826 C842 0.931 . S
C827 H815 0.929 . S
C827 C821 1.390 . S
C827 C824 1.386 . S
C828 C823 1.490 . S
C828 C830 1.395 . S
C828 C831 1.403 . S
H829 C835 0.930 . S
C830 H816 0.930 . S
C830 C828 1.395 . S
C830 C833 1.403 . S
C831 C828 1.403 . S
C831 C832 1.524 . S
C831 C835 1.400 . S
C832 H817 0.960 . S
C832 H818 0.960 . S
C832 H819 0.960 . S
C832 C831 1.524 . S
C833 C830 1.403 . S
C833 C834 1.392 . S
C833 C837 1.495 . S
C834 C833 1.392 . S
C834 C835 1.385 . S
C834 C836 1.478 . S
C835 H829 0.930 . S
C835 C831 1.400 . S
C835 C834 1.385 . S
C836 C834 1.478 . S
C836 C838 1.381 . S
C836 C842 1.383 . S
C837 C833 1.495 . S
C837 H843 0.959 . S
C837 H844 0.961 . S
C837 H845 0.960 . S
C838 C836 1.381 . S
C838 C839 1.394 . S
C838 H846 0.930 . S
C839 C838 1.394 . S
C839 C840 1.383 . S
C839 H847 0.929 . S
C840 C839 1.383 . S
C840 C841 1.377 . S
C841 H825 0.930 . S
C841 C840 1.377 . S
C841 C842 1.379 . S
C842 H826 0.931 . S
C842 C836 1.383 . S
C842 C841 1.379 . S
H843 C837 0.959 . S
H844 C837 0.961 . S
H845 C837 0.960 . S
H846 C838 0.930 . S
H847 C839 0.929 . S
H848 C856 0.929 . S
H849 C858 0.930 . S
H850 C860 0.930 . S
H851 C863 0.929 . S
H852 C866 0.930 . S
H853 C868 0.960 . S
H854 C868 0.960 . S
H855 C868 0.960 . S
C856 H848 0.929 . S
C856 C857 1.377 . S
C856 C858 1.384 . S
C857 C856 1.377 . S
C857 C863 1.390 . S
C858 H849 0.930 . S
C858 C856 1.384 . S
C858 C859 1.372 . S
C859 C858 1.372 . S
C859 C860 1.400 . S
C859 C864 1.490 . S
C860 H850 0.930 . S
C860 C859 1.400 . S
C860 C863 1.386 . S
H861 C877 0.930 . S
H862 C878 0.931 . S
C863 H851 0.929 . S
C863 C857 1.390 . S
C863 C860 1.386 . S
C864 C859 1.490 . S
C864 C866 1.395 . S
C864 C867 1.403 . S
H865 C871 0.930 . S
C866 H852 0.930 . S
C866 C864 1.395 . S
C866 C869 1.403 . S
C867 C864 1.403 . S
C867 C868 1.524 . S
C867 C871 1.400 . S
C868 H853 0.960 . S
C868 H854 0.960 . S
C868 H855 0.960 . S
C868 C867 1.524 . S
C869 C866 1.403 . S
C869 C870 1.392 . S
C869 C873 1.495 . S
C870 C869 1.392 . S
C870 C871 1.385 . S
C870 C872 1.478 . S
C871 H865 0.930 . S
C871 C867 1.400 . S
C871 C870 1.385 . S
C872 C870 1.478 . S
C872 C874 1.381 . S
C872 C878 1.383 . S
C873 C869 1.495 . S
C873 H879 0.959 . S
C873 H880 0.961 . S
C873 H881 0.960 . S
C874 C872 1.381 . S
C874 C875 1.394 . S
C874 H882 0.930 . S
C875 C874 1.394 . S
C875 C876 1.383 . S
C875 H883 0.929 . S
C876 C875 1.383 . S
C876 C877 1.377 . S
C877 H861 0.930 . S
C877 C876 1.377 . S
C877 C878 1.379 . S
C878 H862 0.931 . S
C878 C872 1.383 . S
C878 C877 1.379 . S
H879 C873 0.959 . S
H880 C873 0.961 . S
H881 C873 0.960 . S
H882 C874 0.930 . S
H883 C875 0.929 . S
H884 C892 0.929 . S
H885 C894 0.930 . S
H886 C896 0.930 . S
H887 C899 0.929 . S
H888 C902 0.930 . S
H889 C904 0.960 . S
H890 C904 0.960 . S
H891 C904 0.960 . S
C892 H884 0.929 . S
C892 C893 1.377 . S
C892 C894 1.384 . S
C893 C892 1.377 . S
C893 C899 1.390 . S
C894 H885 0.930 . S
C894 C892 1.384 . S
C894 C895 1.372 . S
C895 C894 1.372 . S
C895 C896 1.400 . S
C895 C900 1.490 . S
C896 H886 0.930 . S
C896 C895 1.400 . S
C896 C899 1.386 . S
H897 C913 0.930 . S
H898 C914 0.931 . S
C899 H887 0.929 . S
C899 C893 1.390 . S
C899 C896 1.386 . S
C900 C895 1.490 . S
C900 C902 1.395 . S
C900 C903 1.403 . S
H901 C907 0.930 . S
C902 H888 0.930 . S
C902 C900 1.395 . S
C902 C905 1.403 1_554 S
C903 C900 1.403 . S
C903 C904 1.524 . S
C903 C907 1.400 1_554 S
C904 H889 0.960 . S
C904 H890 0.960 . S
C904 H891 0.960 . S
C904 C903 1.524 . S
C905 C902 1.403 1_556 S
C905 C906 1.392 . S
C905 C909 1.495 . S
C906 C905 1.392 . S
C906 C907 1.385 . S
C906 C908 1.478 . S
C907 H901 0.930 . S
C907 C903 1.400 1_556 S
C907 C906 1.385 . S
C908 C906 1.478 . S
C908 C910 1.381 . S
C908 C914 1.383 . S
C909 C905 1.495 . S
C909 H915 0.959 . S
C909 H916 0.961 . S
C909 H917 0.960 . S
C910 C908 1.381 . S
C910 C911 1.394 . S
C910 H918 0.930 . S
C911 C910 1.394 . S
C911 C912 1.383 . S
C911 H919 0.929 . S
C912 C911 1.383 . S
C912 C913 1.377 . S
C913 H897 0.930 . S
C913 C912 1.377 . S
C913 C914 1.379 . S
C914 H898 0.931 . S
C914 C908 1.383 . S
C914 C913 1.379 . S
H915 C909 0.959 . S
H916 C909 0.961 . S
H917 C909 0.960 . S
H918 C910 0.930 . S
H919 C911 0.929 . S
H920 C928 0.929 . S
H921 C930 0.930 . S
H922 C932 0.930 . S
H923 C935 0.929 . S
H924 C938 0.930 . S
H925 C940 0.960 . S
H926 C940 0.960 . S
H927 C940 0.960 . S
C928 H920 0.929 . S
C928 C929 1.377 . S
C928 C930 1.384 . S
C929 C928 1.377 . S
C929 C935 1.390 . S
C930 H921 0.930 . S
C930 C928 1.384 . S
C930 C931 1.372 . S
C931 C930 1.372 . S
C931 C932 1.400 . S
C931 C936 1.490 . S
C932 H922 0.930 . S
C932 C931 1.400 . S
C932 C935 1.386 . S
H933 C949 0.930 . S
H934 C950 0.931 . S
C935 H923 0.929 . S
C935 C929 1.390 . S
C935 C932 1.386 . S
C936 C931 1.490 . S
C936 C938 1.395 . S
C936 C939 1.403 . S
H937 C943 0.930 . S
C938 H924 0.930 . S
C938 C936 1.395 . S
C938 C941 1.403 . S
C939 C936 1.403 . S
C939 C940 1.524 . S
C939 C943 1.400 . S
C940 H925 0.960 . S
C940 H926 0.960 . S
C940 H927 0.960 . S
C940 C939 1.524 . S
C941 C938 1.403 . S
C941 C942 1.392 . S
C941 C945 1.495 . S
C942 C941 1.392 . S
C942 C943 1.385 . S
C942 C944 1.478 . S
C943 H937 0.930 . S
C943 C939 1.400 . S
C943 C942 1.385 . S
C944 C942 1.478 . S
C944 C946 1.381 . S
C944 C950 1.383 . S
C945 C941 1.495 . S
C945 H951 0.959 . S
C945 H952 0.961 . S
C945 H953 0.960 . S
C946 C944 1.381 . S
C946 C947 1.394 . S
C946 H954 0.930 . S
C947 C946 1.394 . S
C947 C948 1.383 . S
C947 H955 0.929 . S
C948 C947 1.383 . S
C948 C949 1.377 . S
C949 H933 0.930 . S
C949 C948 1.377 . S
C949 C950 1.379 . S
C950 H934 0.931 . S
C950 C944 1.383 . S
C950 C949 1.379 . S
H951 C945 0.959 . S
H952 C945 0.961 . S
H953 C945 0.960 . S
H954 C946 0.930 . S
H955 C947 0.929 . S
H956 C964 0.929 . S
H957 C966 0.930 . S
H958 C968 0.930 . S
H959 C971 0.929 . S
H960 C974 0.930 . S
H961 C976 0.960 . S
H962 C976 0.960 . S
H963 C976 0.960 . S
C964 H956 0.929 . S
C964 C965 1.377 . S
C964 C966 1.384 . S
C965 C964 1.377 . S
C965 C971 1.390 . S
C966 H957 0.930 . S
C966 C964 1.384 . S
C966 C967 1.372 . S
C967 C966 1.372 . S
C967 C968 1.400 . S
C967 C972 1.490 . S
C968 H958 0.930 . S
C968 C967 1.400 . S
C968 C971 1.386 . S
H969 C985 0.930 . S
H970 C986 0.931 . S
C971 H959 0.929 . S
C971 C965 1.390 . S
C971 C968 1.386 . S
C972 C967 1.490 . S
C972 C974 1.395 . S
C972 C975 1.403 . S
H973 C979 0.930 . S
C974 H960 0.930 . S
C974 C972 1.395 . S
C974 C977 1.403 . S
C975 C972 1.403 . S
C975 C976 1.524 . S
C975 C979 1.400 . S
C976 H961 0.960 . S
C976 H962 0.960 . S
C976 H963 0.960 . S
C976 C975 1.524 . S
C977 C974 1.403 . S
C977 C978 1.392 . S
C977 C981 1.495 . S
C978 C977 1.392 . S
C978 C979 1.385 . S
C978 C980 1.478 . S
C979 H973 0.930 . S
C979 C975 1.400 . S
C979 C978 1.385 . S
C980 C978 1.478 . S
C980 C982 1.381 . S
C980 C986 1.383 . S
C981 C977 1.495 . S
C981 H987 0.959 . S
C981 H988 0.961 . S
C981 H989 0.960 . S
C982 C980 1.381 . S
C982 C983 1.394 . S
C982 H990 0.930 . S
C983 C982 1.394 . S
C983 C984 1.383 . S
C983 H991 0.929 . S
C984 C983 1.383 . S
C984 C985 1.377 . S
C985 H969 0.930 . S
C985 C984 1.377 . S
C985 C986 1.379 . S
C986 H970 0.931 . S
C986 C980 1.383 . S
C986 C985 1.379 . S
H987 C981 0.959 . S
H988 C981 0.961 . S
H989 C981 0.960 . S
H990 C982 0.930 . S
H991 C983 0.929 . S
H992 C1000 0.929 . S
H993 C1002 0.930 . S
H994 C1004 0.930 . S
H995 C1007 0.929 . S
H996 C1010 0.930 . S
H997 C1012 0.960 . S
H998 C1012 0.960 . S
H999 C1012 0.960 . S
C1000 H992 0.929 . S
C1000 C1001 1.377 . S
C1000 C1002 1.384 . S
C1001 C1000 1.377 . S
C1001 C1007 1.390 . S
C1002 H993 0.930 . S
C1002 C1000 1.384 . S
C1002 C1003 1.372 . S
C1003 C1002 1.372 . S
C1003 C1004 1.400 . S
C1003 C1008 1.490 . S
C1004 H994 0.930 . S
C1004 C1003 1.400 . S
C1004 C1007 1.386 . S
H1005 C1021 0.930 . S
H1006 C1022 0.931 . S
C1007 H995 0.929 . S
C1007 C1001 1.390 . S
C1007 C1004 1.386 . S
C1008 C1003 1.490 . S
C1008 C1010 1.395 . S
C1008 C1011 1.403 . S
H1009 C1015 0.930 . S
C1010 H996 0.930 . S
C1010 C1008 1.395 . S
C1010 C1013 1.403 . S
C1011 C1008 1.403 . S
C1011 C1012 1.524 . S
C1011 C1015 1.400 . S
C1012 H997 0.960 . S
C1012 H998 0.960 . S
C1012 H999 0.960 . S
C1012 C1011 1.524 . S
C1013 C1010 1.403 . S
C1013 C1014 1.392 . S
C1013 C1017 1.495 . S
C1014 C1013 1.392 . S
C1014 C1015 1.385 . S
C1014 C1016 1.478 . S
C1015 H1009 0.930 . S
C1015 C1011 1.400 . S
C1015 C1014 1.385 . S
C1016 C1014 1.478 . S
C1016 C1018 1.381 . S
C1016 C1022 1.383 . S
C1017 C1013 1.495 . S
C1017 H1023 0.959 . S
C1017 H1024 0.961 . S
C1017 H1025 0.960 . S
C1018 C1016 1.381 . S
C1018 C1019 1.394 . S
C1018 H1026 0.930 . S
C1019 C1018 1.394 . S
C1019 C1020 1.383 . S
C1019 H1027 0.929 . S
C1020 C1019 1.383 . S
C1020 C1021 1.377 . S
C1021 H1005 0.930 . S
C1021 C1020 1.377 . S
C1021 C1022 1.379 . S
C1022 H1006 0.931 . S
C1022 C1016 1.383 . S
C1022 C1021 1.379 . S
H1023 C1017 0.959 . S
H1024 C1017 0.961 . S
H1025 C1017 0.960 . S
H1026 C1018 0.930 . S
H1027 C1019 0.929 . S
H1028 C1036 0.929 . S
H1029 C1038 0.930 . S
H1030 C1040 0.930 . S
H1031 C1043 0.929 . S
H1032 C1046 0.930 . S
H1033 C1048 0.960 . S
H1034 C1048 0.939 1_655 S
H1035 C1048 0.960 . S
C1036 H1028 0.929 . S
C1036 C1037 1.377 . S
C1036 C1038 1.384 . S
C1037 C1036 1.377 . S
C1037 C1043 1.390 . S
C1038 H1029 0.930 . S
C1038 C1036 1.384 . S
C1038 C1039 1.372 . S
C1039 C1038 1.372 . S
C1039 C1040 1.400 . S
C1039 C1044 1.490 1_655 S
C1040 H1030 0.930 . S
C1040 C1039 1.400 . S
C1040 C1043 1.386 . S
H1041 C1057 0.930 . S
H1042 C1058 0.931 . S
C1043 H1031 0.929 . S
C1043 C1037 1.390 . S
C1043 C1040 1.386 . S
C1044 C1039 1.490 1_455 S
C1044 C1046 1.395 . S
C1044 C1047 1.403 . S
H1045 C1051 0.930 . S
C1046 H1032 0.930 . S
C1046 C1044 1.395 . S
C1046 C1049 1.403 . S
C1047 C1044 1.403 . S
C1047 C1048 1.524 . S
C1047 C1051 1.400 . S
C1048 H1033 0.960 . S
C1048 H1034 0.939 1_455 S
C1048 H1035 0.960 . S
C1048 C1047 1.524 . S
C1049 C1046 1.403 . S
C1049 C1050 1.392 . S
C1049 C1053 1.495 . S
C1050 C1049 1.392 . S
C1050 C1051 1.385 . S
C1050 C1052 1.478 . S
C1051 H1045 0.930 . S
C1051 C1047 1.400 . S
C1051 C1050 1.385 . S
C1052 C1050 1.478 . S
C1052 C1054 1.381 . S
C1052 C1058 1.383 . S
C1053 C1049 1.495 . S
C1053 H1059 0.959 . S
C1053 H1060 0.961 . S
C1053 H1061 0.960 . S
C1054 C1052 1.381 . S
C1054 C1055 1.394 . S
C1054 H1062 0.930 . S
C1055 C1054 1.394 . S
C1055 C1056 1.383 . S
C1055 H1063 0.929 . S
C1056 C1055 1.383 . S
C1056 C1057 1.377 . S
C1057 H1041 0.930 . S
C1057 C1056 1.377 . S
C1057 C1058 1.379 . S
C1058 H1042 0.931 . S
C1058 C1052 1.383 . S
C1058 C1057 1.379 . S
H1059 C1053 0.959 . S
H1060 C1053 0.961 . S
H1061 C1053 0.960 . S
H1062 C1054 0.930 . S
H1063 C1055 0.929 . S
H1064 C1072 0.929 . S
H1065 C1074 0.930 . S
H1066 C1076 0.930 . S
H1067 C1079 0.929 . S
H1068 C1082 0.930 . S
H1069 C1084 0.960 . S
H1070 C1084 0.960 . S
H1071 C1084 0.960 . S
C1072 H1064 0.929 . S
C1072 C1073 1.377 . S
C1072 C1074 1.384 . S
C1073 C1072 1.377 . S
C1073 C1079 1.390 . S
C1074 H1065 0.930 . S
C1074 C1072 1.384 . S
C1074 C1075 1.372 . S
C1075 C1074 1.372 . S
C1075 C1076 1.400 . S
C1075 C1080 1.490 . S
C1076 H1066 0.930 . S
C1076 C1075 1.400 . S
C1076 C1079 1.386 . S
H1077 C1093 0.930 . S
H1078 C1094 0.931 . S
C1079 H1067 0.929 . S
C1079 C1073 1.390 . S
C1079 C1076 1.386 . S
C1080 C1075 1.490 . S
C1080 C1082 1.395 . S
C1080 C1083 1.403 . S
H1081 C1087 0.930 . S
C1082 H1068 0.930 . S
C1082 C1080 1.395 . S
C1082 C1085 1.403 . S
C1083 C1080 1.403 . S
C1083 C1084 1.524 . S
C1083 C1087 1.400 . S
C1084 H1069 0.960 . S
C1084 H1070 0.960 . S
C1084 H1071 0.960 . S
C1084 C1083 1.524 . S
C1085 C1082 1.403 . S
C1085 C1086 1.392 . S
C1085 C1089 1.495 . S
C1086 C1085 1.392 . S
C1086 C1087 1.385 . S
C1086 C1088 1.478 . S
C1087 H1081 0.930 . S
C1087 C1083 1.400 . S
C1087 C1086 1.385 . S
C1088 C1086 1.478 . S
C1088 C1090 1.381 . S
C1088 C1094 1.383 . S
C1089 C1085 1.495 . S
C1089 H1095 0.959 . S
C1089 H1096 0.961 . S
C1089 H1097 0.960 . S
C1090 C1088 1.381 . S
C1090 C1091 1.394 . S
C1090 H1098 0.930 . S
C1091 C1090 1.394 . S
C1091 C1092 1.383 . S
C1091 H1099 0.929 . S
C1092 C1091 1.383 . S
C1092 C1093 1.377 . S
C1093 H1077 0.930 . S
C1093 C1092 1.377 . S
C1093 C1094 1.379 . S
C1094 H1078 0.931 . S
C1094 C1088 1.383 . S
C1094 C1093 1.379 . S
H1095 C1089 0.959 . S
H1096 C1089 0.961 . S
H1097 C1089 0.960 . S
H1098 C1090 0.930 . S
H1099 C1091 0.929 . S
H1100 C1108 0.929 . S
H1101 C1110 0.930 . S
H1102 C1112 0.930 . S
H1103 C1115 0.929 . S
H1104 C1118 0.930 . S
H1105 C1120 0.960 . S
H1106 C1120 0.960 . S
H1107 C1120 0.960 . S
C1108 H1100 0.929 . S
C1108 C1109 1.377 . S
C1108 C1110 1.384 . S
C1109 C1108 1.377 . S
C1109 C1115 1.390 . S
C1110 H1101 0.930 . S
C1110 C1108 1.384 . S
C1110 C1111 1.372 . S
C1111 C1110 1.372 . S
C1111 C1112 1.400 . S
C1111 C1116 1.490 . S
C1112 H1102 0.930 . S
C1112 C1111 1.400 . S
C1112 C1115 1.386 . S
H1113 C1129 0.930 . S
H1114 C1130 0.931 . S
C1115 H1103 0.929 . S
C1115 C1109 1.390 . S
C1115 C1112 1.386 . S
C1116 C1111 1.490 . S
C1116 C1118 1.395 . S
C1116 C1119 1.403 . S
H1117 C1123 0.930 . S
C1118 H1104 0.930 . S
C1118 C1116 1.395 . S
C1118 C1121 1.403 . S
C1119 C1116 1.403 . S
C1119 C1120 1.524 . S
C1119 C1123 1.400 . S
C1120 H1105 0.960 . S
C1120 H1106 0.960 . S
C1120 H1107 0.960 . S
C1120 C1119 1.524 . S
C1121 C1118 1.403 . S
C1121 C1122 1.392 . S
C1121 C1125 1.495 . S
C1122 C1121 1.392 . S
C1122 C1123 1.385 . S
C1122 C1124 1.478 . S
C1123 H1117 0.930 . S
C1123 C1119 1.400 . S
C1123 C1122 1.385 . S
C1124 C1122 1.478 . S
C1124 C1126 1.381 . S
C1124 C1130 1.383 . S
C1125 C1121 1.495 . S
C1125 H1131 0.959 . S
C1125 H1132 0.961 . S
C1125 H1133 0.960 . S
C1126 C1124 1.381 . S
C1126 C1127 1.394 . S
C1126 H1134 0.930 . S
C1127 C1126 1.394 . S
C1127 C1128 1.383 . S
C1127 H1135 0.929 . S
C1128 C1127 1.383 . S
C1128 C1129 1.377 . S
C1129 H1113 0.930 . S
C1129 C1128 1.377 . S
C1129 C1130 1.379 . S
C1130 H1114 0.931 . S
C1130 C1124 1.383 . S
C1130 C1129 1.379 . S
H1131 C1125 0.959 . S
H1132 C1125 0.961 . S
H1133 C1125 0.960 . S
H1134 C1126 0.930 . S
H1135 C1127 0.929 . S
H1136 C1144 0.929 . S
H1137 C1146 0.930 . S
H1138 C1148 0.930 . S
H1139 C1151 0.929 . S
H1140 C1154 0.930 . S
H1141 C1156 0.960 . S
H1142 C1156 0.960 . S
H1143 C1156 0.960 . S
C1144 H1136 0.929 . S
C1144 C1145 1.377 . S
C1144 C1146 1.384 . S
C1145 C1144 1.377 . S
C1145 C1151 1.390 . S
C1146 H1137 0.930 . S
C1146 C1144 1.384 . S
C1146 C1147 1.372 . S
C1147 C1146 1.372 . S
C1147 C1148 1.400 . S
C1147 C1152 1.490 . S
C1148 H1138 0.930 . S
C1148 C1147 1.400 . S
C1148 C1151 1.386 . S
H1149 C1165 0.930 . S
H1150 C1166 0.931 . S
C1151 H1139 0.929 . S
C1151 C1145 1.390 . S
C1151 C1148 1.386 . S
C1152 C1147 1.490 . S
C1152 C1154 1.395 . S
C1152 C1155 1.403 . S
H1153 C1159 0.930 . S
C1154 H1140 0.930 . S
C1154 C1152 1.395 . S
C1154 C1157 1.403 . S
C1155 C1152 1.403 . S
C1155 C1156 1.524 . S
C1155 C1159 1.400 . S
C1156 H1141 0.960 . S
C1156 H1142 0.960 . S
C1156 H1143 0.960 . S
C1156 C1155 1.524 . S
C1157 C1154 1.403 . S
C1157 C1158 1.392 . S
C1157 C1161 1.495 . S
C1158 C1157 1.392 . S
C1158 C1159 1.385 . S
C1158 C1160 1.478 . S
C1159 H1153 0.930 . S
C1159 C1155 1.400 . S
C1159 C1158 1.385 . S
C1160 C1158 1.478 . S
C1160 C1162 1.381 . S
C1160 C1166 1.383 . S
C1161 C1157 1.495 . S
C1161 H1167 0.959 . S
C1161 H1168 0.961 . S
C1161 H1169 0.960 . S
C1162 C1160 1.381 . S
C1162 C1163 1.394 . S
C1162 H1170 0.930 . S
C1163 C1162 1.394 . S
C1163 C1164 1.383 . S
C1163 H1171 0.929 . S
C1164 C1163 1.383 . S
C1164 C1165 1.377 . S
C1165 H1149 0.930 . S
C1165 C1164 1.377 . S
C1165 C1166 1.379 . S
C1166 H1150 0.931 . S
C1166 C1160 1.383 . S
C1166 C1165 1.379 . S
H1167 C1161 0.959 . S
H1168 C1161 0.961 . S
H1169 C1161 0.960 . S
H1170 C1162 0.930 . S
H1171 C1163 0.929 . S
H1172 C1180 0.929 . S
H1173 C1182 0.930 . S
H1174 C1184 0.930 . S
H1175 C1187 0.929 . S
H1176 C1190 0.930 . S
H1177 C1192 0.960 . S
H1178 C1192 0.960 . S
H1179 C1192 0.960 . S
C1180 H1172 0.929 . S
C1180 C1181 1.377 . S
C1180 C1182 1.384 . S
C1181 C1180 1.377 . S
C1181 C1187 1.390 . S
C1182 H1173 0.930 . S
C1182 C1180 1.384 . S
C1182 C1183 1.372 . S
C1183 C1182 1.372 . S
C1183 C1184 1.400 . S
C1183 C1188 1.490 . S
C1184 H1174 0.930 . S
C1184 C1183 1.400 . S
C1184 C1187 1.386 . S
H1185 C1201 0.930 . S
H1186 C1202 0.931 . S
C1187 H1175 0.929 . S
C1187 C1181 1.390 . S
C1187 C1184 1.386 . S
C1188 C1183 1.490 . S
C1188 C1190 1.395 . S
C1188 C1191 1.403 . S
H1189 C1195 0.930 . S
C1190 H1176 0.930 . S
C1190 C1188 1.395 . S
C1190 C1193 1.403 . S
C1191 C1188 1.403 . S
C1191 C1192 1.524 . S
C1191 C1195 1.400 . S
C1192 H1177 0.960 . S
C1192 H1178 0.960 . S
C1192 H1179 0.960 . S
C1192 C1191 1.524 . S
C1193 C1190 1.403 . S
C1193 C1194 1.392 . S
C1193 C1197 1.495 . S
C1194 C1193 1.392 . S
C1194 C1195 1.385 . S
C1194 C1196 1.478 . S
C1195 H1189 0.930 . S
C1195 C1191 1.400 . S
C1195 C1194 1.385 . S
C1196 C1194 1.478 . S
C1196 C1198 1.381 . S
C1196 C1202 1.383 . S
C1197 C1193 1.495 . S
C1197 H1203 0.959 . S
C1197 H1204 0.961 . S
C1197 H1205 0.960 . S
C1198 C1196 1.381 . S
C1198 C1199 1.394 . S
C1198 H1206 0.930 . S
C1199 C1198 1.394 . S
C1199 C1200 1.383 . S
C1199 H1207 0.929 . S
C1200 C1199 1.383 . S
C1200 C1201 1.377 . S
C1201 H1185 0.930 . S
C1201 C1200 1.377 . S
C1201 C1202 1.379 . S
C1202 H1186 0.931 . S
C1202 C1196 1.383 . S
C1202 C1201 1.379 . S
H1203 C1197 0.959 . S
H1204 C1197 0.961 . S
H1205 C1197 0.960 . S
H1206 C1198 0.930 . S
H1207 C1199 0.929 . S
H1208 C1216 0.929 . S
H1209 C1218 0.930 . S
H1210 C1220 0.930 . S
H1211 C1223 0.929 . S
H1212 C1226 0.930 . S
H1213 C1228 0.960 . S
H1214 C1228 0.960 . S
H1215 C1228 0.960 . S
C1216 H1208 0.929 . S
C1216 C1217 1.377 . S
C1216 C1218 1.384 . S
C1217 C1216 1.377 . S
C1217 C1223 1.390 . S
C1218 H1209 0.930 . S
C1218 C1216 1.384 . S
C1218 C1219 1.372 . S
C1219 C1218 1.372 . S
C1219 C1220 1.400 . S
C1219 C1224 1.490 . S
C1220 H1210 0.930 . S
C1220 C1219 1.400 . S
C1220 C1223 1.386 . S
H1221 C1237 0.930 . S
H1222 C1238 0.931 . S
C1223 H1211 0.929 . S
C1223 C1217 1.390 . S
C1223 C1220 1.386 . S
C1224 C1219 1.490 . S
C1224 C1226 1.395 . S
C1224 C1227 1.403 . S
H1225 C1231 0.930 . S
C1226 H1212 0.930 . S
C1226 C1224 1.395 . S
C1226 C1229 1.403 . S
C1227 C1224 1.403 . S
C1227 C1228 1.524 . S
C1227 C1231 1.400 . S
C1228 H1213 0.960 . S
C1228 H1214 0.960 . S
C1228 H1215 0.960 . S
C1228 C1227 1.524 . S
C1229 C1226 1.403 . S
C1229 C1230 1.392 . S
C1229 C1233 1.495 . S
C1230 C1229 1.392 . S
C1230 C1231 1.385 . S
C1230 C1232 1.478 . S
C1231 H1225 0.930 . S
C1231 C1227 1.400 . S
C1231 C1230 1.385 . S
C1232 C1230 1.478 . S
C1232 C1234 1.381 . S
C1232 C1238 1.383 . S
C1233 C1229 1.495 . S
C1233 H1239 0.959 . S
C1233 H1240 0.961 . S
C1233 H1241 0.960 . S
C1234 C1232 1.381 . S
C1234 C1235 1.394 . S
C1234 H1242 0.930 . S
C1235 C1234 1.394 . S
C1235 C1236 1.383 . S
C1235 H1243 0.929 . S
C1236 C1235 1.383 . S
C1236 C1237 1.377 . S
C1237 H1221 0.930 . S
C1237 C1236 1.377 . S
C1237 C1238 1.379 . S
C1238 H1222 0.931 . S
C1238 C1232 1.383 . S
C1238 C1237 1.379 . S
H1239 C1233 0.959 . S
H1240 C1233 0.961 . S
H1241 C1233 0.960 . S
H1242 C1234 0.930 . S
H1243 C1235 0.929 . S
H1244 C1252 0.929 . S
H1245 C1254 0.930 . S
H1246 C1256 0.930 . S
H1247 C1259 0.929 . S
H1248 C1262 0.930 . S
H1249 C1264 0.960 . S
H1250 C1264 0.960 . S
H1251 C1264 0.960 . S
C1252 H1244 0.929 . S
C1252 C1253 1.377 . S
C1252 C1254 1.384 . S
C1253 C1252 1.377 . S
C1253 C1259 1.390 . S
C1254 H1245 0.930 . S
C1254 C1252 1.384 . S
C1254 C1255 1.372 . S
C1255 C1254 1.372 . S
C1255 C1256 1.400 . S
C1255 C1260 1.490 . S
C1256 H1246 0.930 . S
C1256 C1255 1.400 . S
C1256 C1259 1.386 . S
H1257 C1273 0.930 . S
H1258 C1274 0.931 . S
C1259 H1247 0.929 . S
C1259 C1253 1.390 . S
C1259 C1256 1.386 . S
C1260 C1255 1.490 . S
C1260 C1262 1.395 . S
C1260 C1263 1.403 . S
H1261 C1267 0.930 . S
C1262 H1248 0.930 . S
C1262 C1260 1.395 . S
C1262 C1265 1.403 . S
C1263 C1260 1.403 . S
C1263 C1264 1.524 . S
C1263 C1267 1.400 . S
C1264 H1249 0.960 . S
C1264 H1250 0.960 . S
C1264 H1251 0.960 . S
C1264 C1263 1.524 . S
C1265 C1262 1.403 . S
C1265 C1266 1.392 . S
C1265 C1269 1.475 1_455 S
C1266 C1265 1.392 . S
C1266 C1267 1.385 . S
C1266 C1268 1.478 1_455 S
C1267 H1261 0.930 . S
C1267 C1263 1.400 . S
C1267 C1266 1.385 . S
C1268 C1266 1.478 1_655 S
C1268 C1270 1.381 . S
C1268 C1274 1.383 . S
C1269 C1265 1.475 1_655 S
C1269 H1275 0.939 1_655 S
C1269 H1276 0.981 . S
C1269 H1277 0.982 . S
C1270 C1268 1.381 . S
C1270 C1271 1.394 . S
C1270 H1278 0.930 . S
C1271 C1270 1.394 . S
C1271 C1272 1.383 . S
C1271 H1279 0.929 . S
C1272 C1271 1.383 . S
C1272 C1273 1.377 . S
C1273 H1257 0.930 . S
C1273 C1272 1.377 . S
C1273 C1274 1.379 . S
C1274 H1258 0.931 . S
C1274 C1268 1.383 . S
C1274 C1273 1.379 . S
H1275 C1269 0.939 1_455 S
H1276 C1269 0.981 . S
H1277 C1269 0.982 . S
H1278 C1270 0.930 . S
H1279 C1271 0.929 . S
H1280 C1288 0.929 . S
H1281 C1290 0.930 . S
H1282 C1292 0.930 . S
H1283 C1295 0.929 . S
H1284 C1298 0.930 . S
H1285 C1300 0.960 . S
H1286 C1300 0.960 . S
H1287 C1300 0.960 . S
C1288 H1280 0.929 . S
C1288 C1289 1.377 . S
C1288 C1290 1.384 . S
C1289 C1288 1.377 . S
C1289 C1295 1.390 . S
C1290 H1281 0.930 . S
C1290 C1288 1.384 . S
C1290 C1291 1.372 . S
C1291 C1290 1.372 . S
C1291 C1292 1.400 . S
C1291 C1296 1.490 . S
C1292 H1282 0.930 . S
C1292 C1291 1.400 . S
C1292 C1295 1.386 . S
H1293 C1309 0.930 . S
H1294 C1310 0.931 . S
C1295 H1283 0.929 . S
C1295 C1289 1.390 . S
C1295 C1292 1.386 . S
C1296 C1291 1.490 . S
C1296 C1298 1.395 . S
C1296 C1299 1.403 . S
H1297 C1303 0.930 . S
C1298 H1284 0.930 . S
C1298 C1296 1.395 . S
C1298 C1301 1.403 . S
C1299 C1296 1.403 . S
C1299 C1300 1.524 . S
C1299 C1303 1.400 . S
C1300 H1285 0.960 . S
C1300 H1286 0.960 . S
C1300 H1287 0.960 . S
C1300 C1299 1.524 . S
C1301 C1298 1.403 . S
C1301 C1302 1.392 . S
C1301 C1305 1.495 . S
C1302 C1301 1.392 . S
C1302 C1303 1.385 . S
C1302 C1304 1.478 . S
C1303 H1297 0.930 . S
C1303 C1299 1.400 . S
C1303 C1302 1.385 . S
C1304 C1302 1.478 . S
C1304 C1306 1.381 . S
C1304 C1310 1.383 . S
C1305 C1301 1.495 . S
C1305 H1311 0.959 . S
C1305 H1312 0.961 . S
C1305 H1313 0.960 . S
C1306 C1304 1.381 . S
C1306 C1307 1.394 . S
C1306 H1314 0.930 . S
C1307 C1306 1.394 . S
C1307 C1308 1.383 . S
C1307 H1315 0.929 . S
C1308 C1307 1.383 . S
C1308 C1309 1.377 . S
C1309 H1293 0.930 . S
C1309 C1308 1.377 . S
C1309 C1310 1.379 . S
C1310 H1294 0.931 . S
C1310 C1304 1.383 . S
C1310 C1309 1.379 . S
H1311 C1305 0.959 . S
H1312 C1305 0.961 . S
H1313 C1305 0.960 . S
H1314 C1306 0.930 . S
H1315 C1307 0.929 . S
H1316 C1324 0.929 . S
H1317 C1326 0.930 . S
H1318 C1328 0.930 . S
H1319 C1331 0.929 . S
H1320 C1334 0.930 . S
H1321 C1336 0.960 . S
H1322 C1336 0.960 . S
H1323 C1336 0.960 . S
C1324 H1316 0.929 . S
C1324 C1325 1.377 . S
C1324 C1326 1.384 . S
C1325 C1324 1.377 . S
C1325 C1331 1.390 . S
C1326 H1317 0.930 . S
C1326 C1324 1.384 . S
C1326 C1327 1.372 . S
C1327 C1326 1.372 . S
C1327 C1328 1.400 . S
C1327 C1332 1.490 . S
C1328 H1318 0.930 . S
C1328 C1327 1.400 . S
C1328 C1331 1.386 . S
H1329 C1345 0.930 . S
H1330 C1346 0.931 . S
C1331 H1319 0.929 . S
C1331 C1325 1.390 . S
C1331 C1328 1.386 . S
C1332 C1327 1.490 . S
C1332 C1334 1.395 . S
C1332 C1335 1.403 . S
H1333 C1339 0.930 . S
C1334 H1320 0.930 . S
C1334 C1332 1.395 . S
C1334 C1337 1.403 . S
C1335 C1332 1.403 . S
C1335 C1336 1.524 . S
C1335 C1339 1.400 . S
C1336 H1321 0.960 . S
C1336 H1322 0.960 . S
C1336 H1323 0.960 . S
C1336 C1335 1.524 . S
C1337 C1334 1.403 . S
C1337 C1338 1.392 . S
C1337 C1341 1.480 1_655 S
C1338 C1337 1.392 . S
C1338 C1339 1.385 . S
C1338 C1340 1.478 1_655 S
C1339 H1333 0.930 . S
C1339 C1335 1.400 . S
C1339 C1338 1.385 . S
C1340 C1338 1.478 1_455 S
C1340 C1342 1.381 . S
C1340 C1346 1.383 . S
C1341 C1337 1.480 1_455 S
C1341 H1347 0.943 1_455 S
C1341 H1348 0.977 . S
C1341 H1349 0.976 . S
C1342 C1340 1.381 . S
C1342 C1343 1.394 . S
C1342 H1350 0.930 . S
C1343 C1342 1.394 . S
C1343 C1344 1.383 . S
C1343 H1351 0.929 . S
C1344 C1343 1.383 . S
C1344 C1345 1.377 . S
C1345 H1329 0.930 . S
C1345 C1344 1.377 . S
C1345 C1346 1.379 . S
C1346 H1330 0.931 . S
C1346 C1340 1.383 . S
C1346 C1345 1.379 . S
H1347 C1341 0.943 1_655 S
H1348 C1341 0.977 . S
H1349 C1341 0.976 . S
H1350 C1342 0.930 . S
H1351 C1343 0.929 . S
H1352 C1360 0.929 . S
H1353 C1362 0.930 . S
H1354 C1364 0.930 . S
H1355 C1367 0.929 . S
H1356 C1370 0.930 . S
H1357 C1372 0.960 . S
H1358 C1372 0.960 . S
H1359 C1372 0.960 . S
C1360 H1352 0.929 . S
C1360 C1361 1.377 . S
C1360 C1362 1.384 . S
C1361 C1360 1.377 . S
C1361 C1367 1.390 . S
C1362 H1353 0.930 . S
C1362 C1360 1.384 . S
C1362 C1363 1.372 . S
C1363 C1362 1.372 . S
C1363 C1364 1.400 . S
C1363 C1368 1.490 . S
C1364 H1354 0.930 . S
C1364 C1363 1.400 . S
C1364 C1367 1.386 . S
H1365 C1381 0.930 . S
H1366 C1382 0.931 . S
C1367 H1355 0.929 . S
C1367 C1361 1.390 . S
C1367 C1364 1.386 . S
C1368 C1363 1.490 . S
C1368 C1370 1.395 . S
C1368 C1371 1.403 . S
H1369 C1375 0.930 . S
C1370 H1356 0.930 . S
C1370 C1368 1.395 . S
C1370 C1373 1.403 . S
C1371 C1368 1.403 . S
C1371 C1372 1.524 . S
C1371 C1375 1.400 . S
C1372 H1357 0.960 . S
C1372 H1358 0.960 . S
C1372 H1359 0.960 . S
C1372 C1371 1.524 . S
C1373 C1370 1.403 . S
C1373 C1374 1.392 . S
C1373 C1377 1.495 . S
C1374 C1373 1.392 . S
C1374 C1375 1.385 . S
C1374 C1376 1.478 . S
C1375 H1369 0.930 . S
C1375 C1371 1.400 . S
C1375 C1374 1.385 . S
C1376 C1374 1.478 . S
C1376 C1378 1.381 . S
C1376 C1382 1.383 . S
C1377 C1373 1.495 . S
C1377 H1383 0.959 . S
C1377 H1384 0.961 . S
C1377 H1385 0.960 . S
C1378 C1376 1.381 . S
C1378 C1379 1.394 . S
C1378 H1386 0.930 . S
C1379 C1378 1.394 . S
C1379 C1380 1.383 . S
C1379 H1387 0.929 . S
C1380 C1379 1.383 . S
C1380 C1381 1.377 . S
C1381 H1365 0.930 . S
C1381 C1380 1.377 . S
C1381 C1382 1.379 . S
C1382 H1366 0.931 . S
C1382 C1376 1.383 . S
C1382 C1381 1.379 . S
H1383 C1377 0.959 . S
H1384 C1377 0.961 . S
H1385 C1377 0.960 . S
H1386 C1378 0.930 . S
H1387 C1379 0.929 . S
H1388 C1396 0.929 . S
H1389 C1398 0.930 . S
H1390 C1400 0.930 . S
H1391 C1403 0.929 . S
H1392 C1406 0.930 . S
H1393 C1408 0.960 . S
H1394 C1408 0.960 . S
H1395 C1408 0.960 . S
C1396 H1388 0.929 . S
C1396 C1397 1.377 . S
C1396 C1398 1.384 . S
C1397 C1396 1.377 . S
C1397 C1403 1.390 . S
C1398 H1389 0.930 . S
C1398 C1396 1.384 . S
C1398 C1399 1.372 . S
C1399 C1398 1.372 . S
C1399 C1400 1.400 . S
C1399 C1404 1.490 . S
C1400 H1390 0.930 . S
C1400 C1399 1.400 . S
C1400 C1403 1.386 . S
H1401 C1417 0.930 . S
H1402 C1418 0.931 . S
C1403 H1391 0.929 . S
C1403 C1397 1.390 . S
C1403 C1400 1.386 . S
C1404 C1399 1.490 . S
C1404 C1406 1.395 . S
C1404 C1407 1.403 . S
H1405 C1411 0.930 . S
C1406 H1392 0.930 . S
C1406 C1404 1.395 . S
C1406 C1409 1.403 . S
C1407 C1404 1.403 . S
C1407 C1408 1.524 . S
C1407 C1411 1.400 . S
C1408 H1393 0.960 . S
C1408 H1394 0.960 . S
C1408 H1395 0.960 . S
C1408 C1407 1.524 . S
C1409 C1406 1.403 . S
C1409 C1410 1.392 . S
C1409 C1413 1.495 . S
C1410 C1409 1.392 . S
C1410 C1411 1.385 . S
C1410 C1412 1.478 . S
C1411 H1405 0.930 . S
C1411 C1407 1.400 . S
C1411 C1410 1.385 . S
C1412 C1410 1.478 . S
C1412 C1414 1.381 . S
C1412 C1418 1.383 . S
C1413 C1409 1.495 . S
C1413 H1419 0.959 . S
C1413 H1420 0.961 . S
C1413 H1421 0.960 . S
C1414 C1412 1.381 . S
C1414 C1415 1.394 . S
C1414 H1422 0.930 . S
C1415 C1414 1.394 . S
C1415 C1416 1.383 . S
C1415 H1423 0.929 . S
C1416 C1415 1.383 . S
C1416 C1417 1.377 . S
C1417 H1401 0.930 . S
C1417 C1416 1.377 . S
C1417 C1418 1.379 . S
C1418 H1402 0.931 . S
C1418 C1412 1.383 . S
C1418 C1417 1.379 . S
H1419 C1413 0.959 . S
H1420 C1413 0.961 . S
H1421 C1413 0.960 . S
H1422 C1414 0.930 . S
H1423 C1415 0.929 . S
H1424 C1432 0.929 . S
H1425 C1434 0.930 . S
H1426 C1436 0.930 . S
H1427 C1439 0.929 . S
H1428 C1442 0.930 . S
H1429 C1444 0.960 . S
H1430 C1444 0.960 . S
H1431 C1444 0.960 . S
C1432 H1424 0.929 . S
C1432 C1433 1.377 . S
C1432 C1434 1.384 . S
C1433 C1432 1.377 . S
C1433 C1439 1.390 . S
C1434 H1425 0.930 . S
C1434 C1432 1.384 . S
C1434 C1435 1.372 . S
C1435 C1434 1.372 . S
C1435 C1436 1.400 . S
C1435 C1440 1.490 . S
C1436 H1426 0.930 . S
C1436 C1435 1.400 . S
C1436 C1439 1.386 . S
H1437 C1453 0.930 . S
H1438 C1454 0.931 . S
C1439 H1427 0.929 . S
C1439 C1433 1.390 . S
C1439 C1436 1.386 . S
C1440 C1435 1.490 . S
C1440 C1442 1.395 . S
C1440 C1443 1.403 . S
H1441 C1447 0.930 . S
C1442 H1428 0.930 . S
C1442 C1440 1.395 . S
C1442 C1445 1.403 . S
C1443 C1440 1.403 . S
C1443 C1444 1.524 . S
C1443 C1447 1.400 . S
C1444 H1429 0.960 . S
C1444 H1430 0.960 . S
C1444 H1431 0.960 . S
C1444 C1443 1.524 . S
C1445 C1442 1.403 . S
C1445 C1446 1.392 . S
C1445 C1449 1.495 . S
C1446 C1445 1.392 . S
C1446 C1447 1.385 . S
C1446 C1448 1.478 . S
C1447 H1441 0.930 . S
C1447 C1443 1.400 . S
C1447 C1446 1.385 . S
C1448 C1446 1.478 . S
C1448 C1450 1.381 . S
C1448 C1454 1.383 . S
C1449 C1445 1.495 . S
C1449 H1455 0.959 . S
C1449 H1456 0.961 . S
C1449 H1457 0.960 . S
C1450 C1448 1.381 . S
C1450 C1451 1.394 . S
C1450 H1458 0.930 . S
C1451 C1450 1.394 . S
C1451 C1452 1.383 . S
C1451 H1459 0.929 . S
C1452 C1451 1.383 . S
C1452 C1453 1.377 . S
C1453 H1437 0.930 . S
C1453 C1452 1.377 . S
C1453 C1454 1.379 . S
C1454 H1438 0.931 . S
C1454 C1448 1.383 . S
C1454 C1453 1.379 . S
H1455 C1449 0.959 . S
H1456 C1449 0.961 . S
H1457 C1449 0.960 . S
H1458 C1450 0.930 . S
H1459 C1451 0.929 . S
H1460 C1468 0.929 . S
H1461 C1470 0.930 . S
H1462 C1472 0.930 . S
H1463 C1475 0.929 . S
H1464 C1478 0.930 . S
H1465 C1480 0.960 . S
H1466 C1480 0.960 . S
H1467 C1480 0.960 . S
C1468 H1460 0.929 . S
C1468 C1469 1.377 . S
C1468 C1470 1.384 . S
C1469 C1468 1.377 . S
C1469 C1475 1.390 . S
C1470 H1461 0.930 . S
C1470 C1468 1.384 . S
C1470 C1471 1.372 . S
C1471 C1470 1.372 . S
C1471 C1472 1.400 . S
C1471 C1476 1.490 . S
C1472 H1462 0.930 . S
C1472 C1471 1.400 . S
C1472 C1475 1.386 . S
H1473 C1489 0.930 . S
H1474 C1490 0.931 . S
C1475 H1463 0.929 . S
C1475 C1469 1.390 . S
C1475 C1472 1.386 . S
C1476 C1471 1.490 . S
C1476 C1478 1.395 . S
C1476 C1479 1.403 . S
H1477 C1483 0.930 . S
C1478 H1464 0.930 . S
C1478 C1476 1.395 . S
C1478 C1481 1.403 . S
C1479 C1476 1.403 . S
C1479 C1480 1.524 . S
C1479 C1483 1.400 . S
C1480 H1465 0.960 . S
C1480 H1466 0.960 . S
C1480 H1467 0.960 . S
C1480 C1479 1.524 . S
C1481 C1478 1.403 . S
C1481 C1482 1.392 . S
C1481 C1485 1.495 . S
C1482 C1481 1.392 . S
C1482 C1483 1.385 . S
C1482 C1484 1.478 . S
C1483 H1477 0.930 . S
C1483 C1479 1.400 . S
C1483 C1482 1.385 . S
C1484 C1482 1.478 . S
C1484 C1486 1.381 . S
C1484 C1490 1.383 . S
C1485 C1481 1.495 . S
C1485 H1491 0.959 . S
C1485 H1492 0.961 . S
C1485 H1493 0.960 . S
C1486 C1484 1.381 . S
C1486 C1487 1.394 . S
C1486 H1494 0.930 . S
C1487 C1486 1.394 . S
C1487 C1488 1.383 . S
C1487 H1495 0.929 . S
C1488 C1487 1.383 . S
C1488 C1489 1.377 . S
C1489 H1473 0.930 . S
C1489 C1488 1.377 . S
C1489 C1490 1.379 . S
C1490 H1474 0.931 . S
C1490 C1484 1.383 . S
C1490 C1489 1.379 . S
H1491 C1485 0.959 . S
H1492 C1485 0.961 . S
H1493 C1485 0.960 . S
H1494 C1486 0.930 . S
H1495 C1487 0.929 . S
H1496 C1504 0.929 . S
H1497 C1506 0.930 . S
H1498 C1508 0.930 . S
H1499 C1511 0.929 . S
H1500 C1514 0.930 . S
H1501 C1516 0.960 . S
H1502 C1516 0.960 . S
H1503 C1516 0.960 . S
C1504 H1496 0.929 . S
C1504 C1505 1.377 . S
C1504 C1506 1.384 . S
C1505 C1504 1.377 . S
C1505 C1511 1.390 . S
C1506 H1497 0.930 . S
C1506 C1504 1.384 . S
C1506 C1507 1.372 . S
C1507 C1506 1.372 . S
C1507 C1508 1.400 . S
C1507 C1512 1.490 . S
C1508 H1498 0.930 . S
C1508 C1507 1.400 . S
C1508 C1511 1.386 . S
H1509 C1525 0.930 . S
H1510 C1526 0.931 . S
C1511 H1499 0.929 . S
C1511 C1505 1.390 . S
C1511 C1508 1.386 . S
C1512 C1507 1.490 . S
C1512 C1514 1.395 . S
C1512 C1515 1.403 . S
H1513 C1519 0.930 . S
C1514 H1500 0.930 . S
C1514 C1512 1.395 . S
C1514 C1517 1.403 . S
C1515 C1512 1.403 . S
C1515 C1516 1.524 . S
C1515 C1519 1.400 . S
C1516 H1501 0.960 . S
C1516 H1502 0.960 . S
C1516 H1503 0.960 . S
C1516 C1515 1.524 . S
C1517 C1514 1.403 . S
C1517 C1518 1.392 . S
C1517 C1521 1.495 . S
C1518 C1517 1.392 . S
C1518 C1519 1.385 . S
C1518 C1520 1.478 . S
C1519 H1513 0.930 . S
C1519 C1515 1.400 . S
C1519 C1518 1.385 . S
C1520 C1518 1.478 . S
C1520 C1522 1.381 . S
C1520 C1526 1.383 . S
C1521 C1517 1.495 . S
C1521 H1527 0.959 . S
C1521 H1528 0.961 . S
C1521 H1529 0.960 . S
C1522 C1520 1.381 . S
C1522 C1523 1.394 . S
C1522 H1530 0.930 . S
C1523 C1522 1.394 . S
C1523 C1524 1.383 . S
C1523 H1531 0.929 . S
C1524 C1523 1.383 . S
C1524 C1525 1.377 . S
C1525 H1509 0.930 . S
C1525 C1524 1.377 . S
C1525 C1526 1.379 . S
C1526 H1510 0.931 . S
C1526 C1520 1.383 . S
C1526 C1525 1.379 . S
H1527 C1521 0.959 . S
H1528 C1521 0.961 . S
H1529 C1521 0.960 . S
H1530 C1522 0.930 . S
H1531 C1523 0.929 . S
H1532 C1540 0.929 . S
H1533 C1542 0.930 . S
H1534 C1544 0.930 . S
H1535 C1547 0.929 . S
H1536 C1550 0.930 . S
H1537 C1552 0.960 . S
H1538 C1552 0.960 . S
H1539 C1552 0.960 . S
C1540 H1532 0.929 . S
C1540 C1541 1.377 . S
C1540 C1542 1.384 . S
C1541 C1540 1.377 . S
C1541 C1547 1.390 . S
C1542 H1533 0.930 . S
C1542 C1540 1.384 . S
C1542 C1543 1.372 . S
C1543 C1542 1.372 . S
C1543 C1544 1.400 . S
C1543 C1548 1.490 . S
C1544 H1534 0.930 . S
C1544 C1543 1.400 . S
C1544 C1547 1.386 . S
H1545 C1561 0.930 . S
H1546 C1562 0.931 . S
C1547 H1535 0.929 . S
C1547 C1541 1.390 . S
C1547 C1544 1.386 . S
C1548 C1543 1.490 . S
C1548 C1550 1.395 . S
C1548 C1551 1.403 . S
H1549 C1555 0.930 . S
C1550 H1536 0.930 . S
C1550 C1548 1.395 . S
C1550 C1553 1.403 . S
C1551 C1548 1.403 . S
C1551 C1552 1.524 . S
C1551 C1555 1.400 . S
C1552 H1537 0.960 . S
C1552 H1538 0.960 . S
C1552 H1539 0.960 . S
C1552 C1551 1.524 . S
C1553 C1550 1.403 . S
C1553 C1554 1.392 . S
C1553 C1557 1.495 . S
C1554 C1553 1.392 . S
C1554 C1555 1.385 . S
C1554 C1556 1.478 1_655 S
C1555 H1549 0.930 . S
C1555 C1551 1.400 . S
C1555 C1554 1.385 . S
C1556 C1554 1.478 1_455 S
C1556 C1558 1.381 . S
C1556 C1562 1.383 . S
C1557 C1553 1.495 . S
C1557 H1563 0.959 . S
C1557 H1564 0.961 1_655 S
C1557 H1565 0.960 1_655 S
C1558 C1556 1.381 . S
C1558 C1559 1.394 . S
C1558 H1566 0.930 . S
C1559 C1558 1.394 . S
C1559 C1560 1.383 . S
C1559 H1567 0.929 . S
C1560 C1559 1.383 . S
C1560 C1561 1.377 . S
C1561 H1545 0.930 . S
C1561 C1560 1.377 . S
C1561 C1562 1.379 . S
C1562 H1546 0.931 . S
C1562 C1556 1.383 . S
C1562 C1561 1.379 . S
H1563 C1557 0.959 . S
H1564 C1557 0.961 1_455 S
H1565 C1557 0.960 1_455 S
H1566 C1558 0.930 . S
H1567 C1559 0.929 . S
H1568 C1576 0.929 . S
H1569 C1578 0.930 . S
H1570 C1580 0.930 . S
H1571 C1583 0.929 . S
H1572 C1586 0.930 . S
H1573 C1588 0.960 . S
H1574 C1588 0.960 . S
H1575 C1588 0.960 . S
C1576 H1568 0.929 . S
C1576 C1577 1.377 . S
C1576 C1578 1.384 . S
C1577 C1576 1.377 . S
C1577 C1583 1.390 . S
C1578 H1569 0.930 . S
C1578 C1576 1.384 . S
C1578 C1579 1.372 . S
C1579 C1578 1.372 . S
C1579 C1580 1.400 . S
C1579 C1584 1.490 . S
C1580 H1570 0.930 . S
C1580 C1579 1.400 . S
C1580 C1583 1.386 . S
H1581 C1597 0.930 . S
H1582 C1598 0.931 . S
C1583 H1571 0.929 . S
C1583 C1577 1.390 . S
C1583 C1580 1.386 . S
C1584 C1579 1.490 . S
C1584 C1586 1.395 . S
C1584 C1587 1.403 . S
H1585 C1591 0.930 . S
C1586 H1572 0.930 . S
C1586 C1584 1.395 . S
C1586 C1589 1.403 . S
C1587 C1584 1.403 . S
C1587 C1588 1.524 . S
C1587 C1591 1.400 . S
C1588 H1573 0.960 . S
C1588 H1574 0.960 . S
C1588 H1575 0.960 . S
C1588 C1587 1.524 . S
C1589 C1586 1.403 . S
C1589 C1590 1.392 . S
C1589 C1593 1.495 . S
C1590 C1589 1.392 . S
C1590 C1591 1.385 . S
C1590 C1592 1.478 . S
C1591 H1585 0.930 . S
C1591 C1587 1.400 . S
C1591 C1590 1.385 . S
C1592 C1590 1.478 . S
C1592 C1594 1.381 . S
C1592 C1598 1.383 . S
C1593 C1589 1.495 . S
C1593 H1599 0.959 . S
C1593 H1600 0.961 . S
C1593 H1601 0.960 . S
C1594 C1592 1.381 . S
C1594 C1595 1.394 . S
C1594 H1602 0.930 . S
C1595 C1594 1.394 . S
C1595 C1596 1.383 . S
C1595 H1603 0.929 . S
C1596 C1595 1.383 . S
C1596 C1597 1.377 . S
C1597 H1581 0.930 . S
C1597 C1596 1.377 . S
C1597 C1598 1.379 . S
C1598 H1582 0.931 . S
C1598 C1592 1.383 . S
C1598 C1597 1.379 . S
H1599 C1593 0.959 . S
H1600 C1593 0.961 . S
H1601 C1593 0.960 . S
H1602 C1594 0.930 . S
H1603 C1595 0.929 . S
H1604 C1612 0.929 . S
H1605 C1614 0.930 . S
H1606 C1616 0.930 . S
H1607 C1619 0.929 . S
H1608 C1622 0.930 . S
H1609 C1624 0.960 . S
H1610 C1624 0.960 . S
H1611 C1624 0.960 . S
C1612 H1604 0.929 . S
C1612 C1613 1.377 . S
C1612 C1614 1.384 . S
C1613 C1612 1.377 . S
C1613 C1619 1.390 . S
C1614 H1605 0.930 . S
C1614 C1612 1.384 . S
C1614 C1615 1.372 . S
C1615 C1614 1.372 . S
C1615 C1616 1.400 . S
C1615 C1620 1.490 . S
C1616 H1606 0.930 . S
C1616 C1615 1.400 . S
C1616 C1619 1.386 . S
H1617 C1633 0.930 . S
H1618 C1634 0.931 . S
C1619 H1607 0.929 . S
C1619 C1613 1.390 . S
C1619 C1616 1.386 . S
C1620 C1615 1.490 . S
C1620 C1622 1.395 . S
C1620 C1623 1.403 . S
H1621 C1627 0.930 . S
C1622 H1608 0.930 . S
C1622 C1620 1.395 . S
C1622 C1625 1.403 . S
C1623 C1620 1.403 . S
C1623 C1624 1.524 . S
C1623 C1627 1.400 . S
C1624 H1609 0.960 . S
C1624 H1610 0.960 . S
C1624 H1611 0.960 . S
C1624 C1623 1.524 . S
C1625 C1622 1.403 . S
C1625 C1626 1.392 . S
C1625 C1629 1.495 . S
C1626 C1625 1.392 . S
C1626 C1627 1.385 . S
C1626 C1628 1.478 . S
C1627 H1621 0.930 . S
C1627 C1623 1.400 . S
C1627 C1626 1.385 . S
C1628 C1626 1.478 . S
C1628 C1630 1.381 . S
C1628 C1634 1.383 . S
C1629 C1625 1.495 . S
C1629 H1635 0.959 . S
C1629 H1636 0.961 . S
C1629 H1637 0.960 . S
C1630 C1628 1.381 . S
C1630 C1631 1.394 . S
C1630 H1638 0.930 . S
C1631 C1630 1.394 . S
C1631 C1632 1.383 . S
C1631 H1639 0.929 . S
C1632 C1631 1.383 . S
C1632 C1633 1.377 . S
C1633 H1617 0.930 . S
C1633 C1632 1.377 . S
C1633 C1634 1.379 . S
C1634 H1618 0.931 . S
C1634 C1628 1.383 . S
C1634 C1633 1.379 . S
H1635 C1629 0.959 . S
H1636 C1629 0.961 . S
H1637 C1629 0.960 . S
H1638 C1630 0.930 . S
H1639 C1631 0.929 . S
H1640 C1648 0.929 . S
H1641 C1650 0.930 . S
H1642 C1652 0.930 . S
H1643 C1655 0.929 . S
H1644 C1658 0.930 . S
H1645 C1660 0.960 . S
H1646 C1660 0.960 . S
H1647 C1660 0.960 . S
C1648 H1640 0.929 . S
C1648 C1649 1.377 . S
C1648 C1650 1.384 . S
C1649 C1648 1.377 . S
C1649 C1655 1.390 . S
C1650 H1641 0.930 . S
C1650 C1648 1.384 . S
C1650 C1651 1.372 . S
C1651 C1650 1.372 . S
C1651 C1652 1.400 . S
C1651 C1656 1.490 . S
C1652 H1642 0.930 . S
C1652 C1651 1.400 . S
C1652 C1655 1.386 . S
H1653 C1669 0.930 . S
H1654 C1670 0.931 . S
C1655 H1643 0.929 . S
C1655 C1649 1.390 . S
C1655 C1652 1.386 . S
C1656 C1651 1.490 . S
C1656 C1658 1.395 . S
C1656 C1659 1.403 . S
H1657 C1663 0.930 . S
C1658 H1644 0.930 . S
C1658 C1656 1.395 . S
C1658 C1661 1.403 . S
C1659 C1656 1.403 . S
C1659 C1660 1.524 . S
C1659 C1663 1.400 . S
C1660 H1645 0.960 . S
C1660 H1646 0.960 . S
C1660 H1647 0.960 . S
C1660 C1659 1.524 . S
C1661 C1658 1.403 . S
C1661 C1662 1.392 . S
C1661 C1665 1.495 . S
C1662 C1661 1.392 . S
C1662 C1663 1.385 . S
C1662 C1664 1.478 . S
C1663 H1657 0.930 . S
C1663 C1659 1.400 . S
C1663 C1662 1.385 . S
C1664 C1662 1.478 . S
C1664 C1666 1.381 . S
C1664 C1670 1.383 . S
C1665 C1661 1.495 . S
C1665 H1671 0.959 . S
C1665 H1672 0.961 . S
C1665 H1673 0.960 . S
C1666 C1664 1.381 . S
C1666 C1667 1.394 . S
C1666 H1674 0.930 . S
C1667 C1666 1.394 . S
C1667 C1668 1.383 . S
C1667 H1675 0.929 . S
C1668 C1667 1.383 . S
C1668 C1669 1.377 . S
C1669 H1653 0.930 . S
C1669 C1668 1.377 . S
C1669 C1670 1.379 . S
C1670 H1654 0.931 . S
C1670 C1664 1.383 . S
C1670 C1669 1.379 . S
H1671 C1665 0.959 . S
H1672 C1665 0.961 . S
H1673 C1665 0.960 . S
H1674 C1666 0.930 . S
H1675 C1667 0.929 . S
H1676 C1684 0.929 . S
H1677 C1686 0.930 . S
H1678 C1688 0.930 . S
H1679 C1691 0.929 . S
H1680 C1694 0.930 . S
H1681 C1696 0.960 . S
H1682 C1696 0.960 . S
H1683 C1696 0.960 . S
C1684 H1676 0.929 . S
C1684 C1685 1.377 . S
C1684 C1686 1.384 . S
C1685 C1684 1.377 . S
C1685 C1691 1.390 . S
C1686 H1677 0.930 . S
C1686 C1684 1.384 . S
C1686 C1687 1.372 . S
C1687 C1686 1.372 . S
C1687 C1688 1.400 . S
C1687 C1692 1.490 . S
C1688 H1678 0.930 . S
C1688 C1687 1.400 . S
C1688 C1691 1.386 . S
H1689 C1705 0.930 . S
H1690 C1706 0.931 . S
C1691 H1679 0.929 . S
C1691 C1685 1.390 . S
C1691 C1688 1.386 . S
C1692 C1687 1.490 . S
C1692 C1694 1.395 . S
C1692 C1695 1.403 . S
H1693 C1699 0.930 . S
C1694 H1680 0.930 . S
C1694 C1692 1.395 . S
C1694 C1697 1.403 . S
C1695 C1692 1.403 . S
C1695 C1696 1.524 . S
C1695 C1699 1.400 . S
C1696 H1681 0.960 . S
C1696 H1682 0.960 . S
C1696 H1683 0.960 . S
C1696 C1695 1.524 . S
C1697 C1694 1.403 . S
C1697 C1698 1.392 . S
C1697 C1701 1.495 . S
C1698 C1697 1.392 . S
C1698 C1699 1.385 . S
C1698 C1700 1.478 1_655 S
C1699 H1693 0.930 . S
C1699 C1695 1.400 . S
C1699 C1698 1.385 . S
C1700 C1698 1.478 1_455 S
C1700 C1702 1.381 . S
C1700 C1706 1.383 . S
C1701 C1697 1.495 . S
C1701 H1707 0.959 . S
C1701 H1708 0.961 . S
C1701 H1709 0.960 . S
C1702 C1700 1.381 . S
C1702 C1703 1.394 . S
C1702 H1710 0.930 . S
C1703 C1702 1.394 . S
C1703 C1704 1.383 . S
C1703 H1711 0.929 . S
C1704 C1703 1.383 . S
C1704 C1705 1.377 . S
C1705 H1689 0.930 . S
C1705 C1704 1.377 . S
C1705 C1706 1.379 . S
C1706 H1690 0.931 . S
C1706 C1700 1.383 . S
C1706 C1705 1.379 . S
H1707 C1701 0.959 . S
H1708 C1701 0.961 . S
H1709 C1701 0.960 . S
H1710 C1702 0.930 . S
H1711 C1703 0.929 . S
H1712 C1720 0.929 . S
H1713 C1722 0.930 . S
H1714 C1724 0.930 . S
H1715 C1727 0.929 . S
H1716 C1730 0.930 . S
H1717 C1732 0.960 . S
H1718 C1732 0.960 . S
H1719 C1732 0.960 . S
C1720 H1712 0.929 . S
C1720 C1721 1.377 . S
C1720 C1722 1.384 . S
C1721 C1720 1.377 . S
C1721 C1727 1.390 . S
C1722 H1713 0.930 . S
C1722 C1720 1.384 . S
C1722 C1723 1.372 . S
C1723 C1722 1.372 . S
C1723 C1724 1.400 . S
C1723 C1728 1.490 . S
C1724 H1714 0.930 . S
C1724 C1723 1.400 . S
C1724 C1727 1.386 . S
H1725 C1741 0.930 . S
H1726 C1742 0.931 . S
C1727 H1715 0.929 . S
C1727 C1721 1.390 . S
C1727 C1724 1.386 . S
C1728 C1723 1.490 . S
C1728 C1730 1.395 . S
C1728 C1731 1.403 . S
H1729 C1735 0.930 . S
C1730 H1716 0.930 . S
C1730 C1728 1.395 . S
C1730 C1733 1.403 . S
C1731 C1728 1.403 . S
C1731 C1732 1.524 . S
C1731 C1735 1.400 . S
C1732 H1717 0.960 . S
C1732 H1718 0.960 . S
C1732 H1719 0.960 . S
C1732 C1731 1.524 . S
C1733 C1730 1.403 . S
C1733 C1734 1.392 . S
C1733 C1737 1.495 . S
C1734 C1733 1.392 . S
C1734 C1735 1.385 . S
C1734 C1736 1.478 . S
C1735 H1729 0.930 . S
C1735 C1731 1.400 . S
C1735 C1734 1.385 . S
C1736 C1734 1.478 . S
C1736 C1738 1.381 . S
C1736 C1742 1.383 . S
C1737 C1733 1.495 . S
C1737 H1743 0.959 . S
C1737 H1744 0.961 . S
C1737 H1745 0.960 . S
C1738 C1736 1.381 . S
C1738 C1739 1.394 . S
C1738 H1746 0.930 . S
C1739 C1738 1.394 . S
C1739 C1740 1.383 . S
C1739 H1747 0.929 . S
C1740 C1739 1.383 . S
C1740 C1741 1.377 . S
C1741 H1725 0.930 . S
C1741 C1740 1.377 . S
C1741 C1742 1.379 . S
C1742 H1726 0.931 . S
C1742 C1736 1.383 . S
C1742 C1741 1.379 . S
H1743 C1737 0.959 . S
H1744 C1737 0.961 . S
H1745 C1737 0.960 . S
H1746 C1738 0.930 . S
H1747 C1739 0.929 . S
H1748 C1756 0.929 . S
H1749 C1758 0.930 . S
H1750 C1760 0.930 . S
H1751 C1763 0.929 . S
H1752 C1766 0.930 . S
H1753 C1768 0.960 . S
H1754 C1768 0.947 1_455 S
H1755 C1768 0.960 1_455 S
C1756 H1748 0.929 . S
C1756 C1757 1.377 . S
C1756 C1758 1.384 . S
C1757 C1756 1.377 . S
C1757 C1763 1.390 . S
C1758 H1749 0.930 . S
C1758 C1756 1.384 . S
C1758 C1759 1.372 . S
C1759 C1758 1.372 . S
C1759 C1760 1.400 . S
C1759 C1764 1.490 1_455 S
C1760 H1750 0.930 . S
C1760 C1759 1.400 . S
C1760 C1763 1.386 . S
H1761 C1777 0.930 . S
H1762 C1778 0.931 . S
C1763 H1751 0.929 . S
C1763 C1757 1.390 . S
C1763 C1760 1.386 . S
C1764 C1759 1.490 1_655 S
C1764 C1766 1.395 . S
C1764 C1767 1.403 . S
H1765 C1771 0.930 . S
C1766 H1752 0.930 . S
C1766 C1764 1.395 . S
C1766 C1769 1.403 . S
C1767 C1764 1.403 . S
C1767 C1768 1.524 . S
C1767 C1771 1.400 . S
C1768 H1753 0.960 . S
C1768 H1754 0.947 1_655 S
C1768 H1755 0.960 1_655 S
C1768 C1767 1.524 . S
C1769 C1766 1.403 . S
C1769 C1770 1.392 . S
C1769 C1773 1.495 . S
C1770 C1769 1.392 . S
C1770 C1771 1.385 . S
C1770 C1772 1.478 . S
C1771 H1765 0.930 . S
C1771 C1767 1.400 . S
C1771 C1770 1.385 . S
C1772 C1770 1.478 . S
C1772 C1774 1.381 . S
C1772 C1778 1.383 . S
C1773 C1769 1.495 . S
C1773 H1779 0.959 . S
C1773 H1780 0.961 . S
C1773 H1781 0.960 . S
C1774 C1772 1.381 . S
C1774 C1775 1.394 . S
C1774 H1782 0.930 . S
C1775 C1774 1.394 . S
C1775 C1776 1.383 . S
C1775 H1783 0.929 . S
C1776 C1775 1.383 . S
C1776 C1777 1.377 . S
C1777 H1761 0.930 . S
C1777 C1776 1.377 . S
C1777 C1778 1.379 . S
C1778 H1762 0.931 . S
C1778 C1772 1.383 . S
C1778 C1777 1.379 . S
H1779 C1773 0.959 . S
H1780 C1773 0.961 . S
H1781 C1773 0.960 . S
H1782 C1774 0.930 . S
H1783 C1775 0.929 . S
H1784 C1792 0.929 . S
H1785 C1794 0.930 . S
H1786 C1796 0.930 . S
H1787 C1799 0.929 . S
H1788 C1802 0.930 . S
H1789 C1804 0.960 . S
H1790 C1804 0.960 . S
H1791 C1804 0.960 . S
C1792 H1784 0.929 . S
C1792 C1793 1.377 . S
C1792 C1794 1.384 . S
C1793 C1792 1.377 . S
C1793 C1799 1.390 . S
C1794 H1785 0.930 . S
C1794 C1792 1.384 . S
C1794 C1795 1.372 . S
C1795 C1794 1.372 . S
C1795 C1796 1.400 . S
C1795 C1800 1.490 . S
C1796 H1786 0.930 . S
C1796 C1795 1.400 . S
C1796 C1799 1.386 . S
H1797 C1813 0.930 . S
H1798 C1814 0.931 . S
C1799 H1787 0.929 . S
C1799 C1793 1.390 . S
C1799 C1796 1.386 . S
C1800 C1795 1.490 . S
C1800 C1802 1.395 . S
C1800 C1803 1.403 . S
H1801 C1807 0.930 . S
C1802 H1788 0.930 . S
C1802 C1800 1.395 . S
C1802 C1805 1.403 . S
C1803 C1800 1.403 . S
C1803 C1804 1.524 . S
C1803 C1807 1.400 . S
C1804 H1789 0.960 . S
C1804 H1790 0.960 . S
C1804 H1791 0.960 . S
C1804 C1803 1.524 . S
C1805 C1802 1.403 . S
C1805 C1806 1.392 . S
C1805 C1809 1.495 . S
C1806 C1805 1.392 . S
C1806 C1807 1.385 . S
C1806 C1808 1.478 . S
C1807 H1801 0.930 . S
C1807 C1803 1.400 . S
C1807 C1806 1.385 . S
C1808 C1806 1.478 . S
C1808 C1810 1.381 . S
C1808 C1814 1.383 . S
C1809 C1805 1.495 . S
C1809 H1815 0.959 . S
C1809 H1816 0.961 . S
C1809 H1817 0.960 . S
C1810 C1808 1.381 . S
C1810 C1811 1.394 . S
C1810 H1818 0.930 . S
C1811 C1810 1.394 . S
C1811 C1812 1.383 . S
C1811 H1819 0.929 . S
C1812 C1811 1.383 . S
C1812 C1813 1.377 . S
C1813 H1797 0.930 . S
C1813 C1812 1.377 . S
C1813 C1814 1.379 . S
C1814 H1798 0.931 . S
C1814 C1808 1.383 . S
C1814 C1813 1.379 . S
H1815 C1809 0.959 . S
H1816 C1809 0.961 . S
H1817 C1809 0.960 . S
H1818 C1810 0.930 . S
H1819 C1811 0.929 . S
H1820 C1828 0.929 . S
H1821 C1830 0.930 . S
H1822 C1832 0.930 . S
H1823 C1835 0.929 . S
H1824 C1838 0.930 . S
H1825 C1840 0.960 . S
H1826 C1840 0.960 . S
H1827 C1840 0.960 . S
C1828 H1820 0.929 . S
C1828 C1829 1.377 . S
C1828 C1830 1.384 . S
C1829 C1828 1.377 . S
C1829 C1835 1.390 . S
C1830 H1821 0.930 . S
C1830 C1828 1.384 . S
C1830 C1831 1.372 . S
C1831 C1830 1.372 . S
C1831 C1832 1.400 . S
C1831 C1836 1.490 . S
C1832 H1822 0.930 . S
C1832 C1831 1.400 . S
C1832 C1835 1.386 . S
H1833 C1849 0.930 . S
H1834 C1850 0.931 . S
C1835 H1823 0.929 . S
C1835 C1829 1.390 . S
C1835 C1832 1.386 . S
C1836 C1831 1.490 . S
C1836 C1838 1.395 . S
C1836 C1839 1.403 . S
H1837 C1843 0.930 . S
C1838 H1824 0.930 . S
C1838 C1836 1.395 . S
C1838 C1841 1.403 . S
C1839 C1836 1.403 . S
C1839 C1840 1.524 . S
C1839 C1843 1.400 . S
C1840 H1825 0.960 . S
C1840 H1826 0.960 . S
C1840 H1827 0.960 . S
C1840 C1839 1.524 . S
C1841 C1838 1.403 . S
C1841 C1842 1.392 . S
C1841 C1845 1.495 . S
C1842 C1841 1.392 . S
C1842 C1843 1.385 . S
C1842 C1844 1.478 . S
C1843 H1837 0.930 . S
C1843 C1839 1.400 . S
C1843 C1842 1.385 . S
C1844 C1842 1.478 . S
C1844 C1846 1.381 . S
C1844 C1850 1.383 . S
C1845 C1841 1.495 . S
C1845 H1851 0.959 . S
C1845 H1852 0.961 . S
C1845 H1853 0.960 . S
C1846 C1844 1.381 . S
C1846 C1847 1.394 . S
C1846 H1854 0.930 . S
C1847 C1846 1.394 . S
C1847 C1848 1.383 . S
C1847 H1855 0.929 . S
C1848 C1847 1.383 . S
C1848 C1849 1.377 . S
C1849 H1833 0.930 . S
C1849 C1848 1.377 . S
C1849 C1850 1.379 . S
C1850 H1834 0.931 . S
C1850 C1844 1.383 . S
C1850 C1849 1.379 . S
H1851 C1845 0.959 . S
H1852 C1845 0.961 . S
H1853 C1845 0.960 . S
H1854 C1846 0.930 . S
H1855 C1847 0.929 . S
H1856 C1864 0.929 . S
H1857 C1866 0.930 . S
H1858 C1868 0.930 . S
H1859 C1871 0.929 . S
H1860 C1874 0.930 . S
H1861 C1876 0.960 . S
H1862 C1876 0.960 . S
H1863 C1876 0.960 . S
C1864 H1856 0.929 . S
C1864 C1865 1.377 . S
C1864 C1866 1.384 . S
C1865 C1864 1.377 . S
C1865 C1871 1.390 . S
C1866 H1857 0.930 . S
C1866 C1864 1.384 . S
C1866 C1867 1.372 . S
C1867 C1866 1.372 . S
C1867 C1868 1.400 . S
C1867 C1872 1.490 . S
C1868 H1858 0.930 . S
C1868 C1867 1.400 . S
C1868 C1871 1.386 . S
H1869 C1885 0.930 . S
H1870 C1886 0.931 . S
C1871 H1859 0.929 . S
C1871 C1865 1.390 . S
C1871 C1868 1.386 . S
C1872 C1867 1.490 . S
C1872 C1874 1.395 . S
C1872 C1875 1.403 . S
H1873 C1879 0.930 . S
C1874 H1860 0.930 . S
C1874 C1872 1.395 . S
C1874 C1877 1.403 . S
C1875 C1872 1.403 . S
C1875 C1876 1.524 . S
C1875 C1879 1.400 . S
C1876 H1861 0.960 . S
C1876 H1862 0.960 . S
C1876 H1863 0.960 . S
C1876 C1875 1.524 . S
C1877 C1874 1.403 . S
C1877 C1878 1.392 . S
C1877 C1881 1.495 . S
C1878 C1877 1.392 . S
C1878 C1879 1.385 . S
C1878 C1880 1.478 . S
C1879 H1873 0.930 . S
C1879 C1875 1.400 . S
C1879 C1878 1.385 . S
C1880 C1878 1.478 . S
C1880 C1882 1.381 . S
C1880 C1886 1.383 . S
C1881 C1877 1.495 . S
C1881 H1887 0.959 . S
C1881 H1888 0.961 . S
C1881 H1889 0.960 . S
C1882 C1880 1.381 . S
C1882 C1883 1.394 . S
C1882 H1890 0.930 . S
C1883 C1882 1.394 . S
C1883 C1884 1.383 . S
C1883 H1891 0.929 . S
C1884 C1883 1.383 . S
C1884 C1885 1.377 . S
C1885 H1869 0.930 . S
C1885 C1884 1.377 . S
C1885 C1886 1.379 . S
C1886 H1870 0.931 . S
C1886 C1880 1.383 . S
C1886 C1885 1.379 . S
H1887 C1881 0.959 . S
H1888 C1881 0.961 . S
H1889 C1881 0.960 . S
H1890 C1882 0.930 . S
H1891 C1883 0.929 . S
H1892 C1900 0.929 . S
H1893 C1902 0.930 . S
H1894 C1904 0.930 . S
H1895 C1907 0.929 . S
H1896 C1910 0.930 . S
H1897 C1912 0.960 . S
H1898 C1912 0.960 . S
H1899 C1912 0.960 . S
C1900 H1892 0.929 . S
C1900 C1901 1.377 . S
C1900 C1902 1.384 . S
C1901 C1900 1.377 . S
C1901 C1907 1.390 . S
C1902 H1893 0.930 . S
C1902 C1900 1.384 . S
C1902 C1903 1.372 . S
C1903 C1902 1.372 . S
C1903 C1904 1.400 . S
C1903 C1908 1.490 . S
C1904 H1894 0.930 . S
C1904 C1903 1.400 . S
C1904 C1907 1.386 . S
H1905 C1921 0.930 . S
H1906 C1922 0.931 . S
C1907 H1895 0.929 . S
C1907 C1901 1.390 . S
C1907 C1904 1.386 . S
C1908 C1903 1.490 . S
C1908 C1910 1.395 . S
C1908 C1911 1.403 . S
H1909 C1915 0.930 . S
C1910 H1896 0.930 . S
C1910 C1908 1.395 . S
C1910 C1913 1.403 . S
C1911 C1908 1.403 . S
C1911 C1912 1.524 . S
C1911 C1915 1.400 . S
C1912 H1897 0.960 . S
C1912 H1898 0.960 . S
C1912 H1899 0.960 . S
C1912 C1911 1.524 . S
C1913 C1910 1.403 . S
C1913 C1914 1.392 . S
C1913 C1917 1.495 . S
C1914 C1913 1.392 . S
C1914 C1915 1.385 . S
C1914 C1916 1.478 . S
C1915 H1909 0.930 . S
C1915 C1911 1.400 . S
C1915 C1914 1.385 . S
C1916 C1914 1.478 . S
C1916 C1918 1.381 . S
C1916 C1922 1.383 . S
C1917 C1913 1.495 . S
C1917 H1923 0.959 . S
C1917 H1924 0.961 . S
C1917 H1925 0.960 . S
C1918 C1916 1.381 . S
C1918 C1919 1.394 . S
C1918 H1926 0.930 . S
C1919 C1918 1.394 . S
C1919 C1920 1.383 . S
C1919 H1927 0.929 . S
C1920 C1919 1.383 . S
C1920 C1921 1.377 . S
C1921 H1905 0.930 . S
C1921 C1920 1.377 . S
C1921 C1922 1.379 . S
C1922 H1906 0.931 . S
C1922 C1916 1.383 . S
C1922 C1921 1.379 . S
H1923 C1917 0.959 . S
H1924 C1917 0.961 . S
H1925 C1917 0.960 . S
H1926 C1918 0.930 . S
H1927 C1919 0.929 . S
H1928 C1936 0.929 . S
H1929 C1938 0.930 . S
H1930 C1940 0.930 . S
H1931 C1943 0.929 . S
H1932 C1946 0.930 . S
H1933 C1948 0.960 . S
H1934 C1948 0.960 . S
H1935 C1948 0.960 . S
C1936 H1928 0.929 . S
C1936 C1937 1.377 . S
C1936 C1938 1.384 . S
C1937 C1936 1.377 . S
C1937 C1943 1.390 . S
C1938 H1929 0.930 . S
C1938 C1936 1.384 . S
C1938 C1939 1.372 . S
C1939 C1938 1.372 . S
C1939 C1940 1.400 . S
C1939 C1944 1.490 . S
C1940 H1930 0.930 . S
C1940 C1939 1.400 . S
C1940 C1943 1.386 . S
H1941 C1957 0.930 . S
H1942 C1958 0.931 . S
C1943 H1931 0.929 . S
C1943 C1937 1.390 . S
C1943 C1940 1.386 . S
C1944 C1939 1.490 . S
C1944 C1946 1.395 . S
C1944 C1947 1.403 . S
H1945 C1951 0.930 . S
C1946 H1932 0.930 . S
C1946 C1944 1.395 . S
C1946 C1949 1.403 . S
C1947 C1944 1.403 . S
C1947 C1948 1.524 . S
C1947 C1951 1.400 . S
C1948 H1933 0.960 . S
C1948 H1934 0.960 . S
C1948 H1935 0.960 . S
C1948 C1947 1.524 . S
C1949 C1946 1.403 . S
C1949 C1950 1.392 . S
C1949 C1953 1.495 . S
C1950 C1949 1.392 . S
C1950 C1951 1.385 . S
C1950 C1952 1.478 . S
C1951 H1945 0.930 . S
C1951 C1947 1.400 . S
C1951 C1950 1.385 . S
C1952 C1950 1.478 . S
C1952 C1954 1.381 . S
C1952 C1958 1.383 . S
C1953 C1949 1.495 . S
C1953 H1959 0.959 . S
C1953 H1960 0.961 . S
C1953 H1961 0.960 . S
C1954 C1952 1.381 . S
C1954 C1955 1.394 . S
C1954 H1962 0.930 . S
C1955 C1954 1.394 . S
C1955 C1956 1.383 . S
C1955 H1963 0.929 . S
C1956 C1955 1.383 . S
C1956 C1957 1.377 . S
C1957 H1941 0.930 . S
C1957 C1956 1.377 . S
C1957 C1958 1.379 . S
C1958 H1942 0.931 . S
C1958 C1952 1.383 . S
C1958 C1957 1.379 . S
H1959 C1953 0.959 . S
H1960 C1953 0.961 . S
H1961 C1953 0.960 . S
H1962 C1954 0.930 . S
H1963 C1955 0.929 . S
H1964 C1972 0.929 . S
H1965 C1974 0.930 . S
H1966 C1976 0.930 . S
H1967 C1979 0.929 . S
H1968 C1982 0.930 . S
H1969 C1984 0.960 . S
H1970 C1984 0.960 . S
H1971 C1984 0.960 . S
C1972 H1964 0.929 . S
C1972 C1973 1.377 . S
C1972 C1974 1.384 . S
C1973 C1972 1.377 . S
C1973 C1979 1.390 . S
C1974 H1965 0.930 . S
C1974 C1972 1.384 . S
C1974 C1975 1.372 . S
C1975 C1974 1.372 . S
C1975 C1976 1.400 . S
C1975 C1980 1.490 . S
C1976 H1966 0.930 . S
C1976 C1975 1.400 . S
C1976 C1979 1.386 . S
H1977 C1993 0.930 . S
H1978 C1994 0.931 . S
C1979 H1967 0.929 . S
C1979 C1973 1.390 . S
C1979 C1976 1.386 . S
C1980 C1975 1.490 . S
C1980 C1982 1.395 . S
C1980 C1983 1.403 . S
H1981 C1987 0.930 . S
C1982 H1968 0.930 . S
C1982 C1980 1.395 . S
C1982 C1985 1.403 . S
C1983 C1980 1.403 . S
C1983 C1984 1.524 . S
C1983 C1987 1.400 . S
C1984 H1969 0.960 . S
C1984 H1970 0.960 . S
C1984 H1971 0.960 . S
C1984 C1983 1.524 . S
C1985 C1982 1.403 . S
C1985 C1986 1.392 . S
C1985 C1989 1.495 . S
C1986 C1985 1.392 . S
C1986 C1987 1.385 . S
C1986 C1988 1.478 1_455 S
C1987 H1981 0.930 . S
C1987 C1983 1.400 . S
C1987 C1986 1.385 . S
C1988 C1986 1.478 1_655 S
C1988 C1990 1.381 . S
C1988 C1994 1.383 . S
C1989 C1985 1.495 . S
C1989 H1995 0.959 . S
C1989 H1996 0.961 . S
C1989 H1997 0.960 . S
C1990 C1988 1.381 . S
C1990 C1991 1.394 . S
C1990 H1998 0.930 . S
C1991 C1990 1.394 . S
C1991 C1992 1.383 . S
C1991 H1999 0.929 . S
C1992 C1991 1.383 . S
C1992 C1993 1.377 . S
C1993 H1977 0.930 . S
C1993 C1992 1.377 . S
C1993 C1994 1.379 . S
C1994 H1978 0.931 . S
C1994 C1988 1.383 . S
C1994 C1993 1.379 . S
H1995 C1989 0.959 . S
H1996 C1989 0.961 . S
H1997 C1989 0.960 . S
H1998 C1990 0.930 . S
H1999 C1991 0.929 . S
H2000 C2008 0.929 . S
H2001 C2010 0.930 . S
H2002 C2012 0.930 . S
H2003 C2015 0.929 . S
H2004 C2018 0.930 . S
H2005 C2020 0.960 . S
H2006 C2020 0.960 . S
H2007 C2020 0.960 . S
C2008 H2000 0.929 . S
C2008 C2009 1.377 . S
C2008 C2010 1.384 . S
C2009 C2008 1.377 . S
C2009 C2015 1.390 . S
C2010 H2001 0.930 . S
C2010 C2008 1.384 . S
C2010 C2011 1.372 . S
C2011 C2010 1.372 . S
C2011 C2012 1.400 . S
C2011 C2016 1.490 . S
C2012 H2002 0.930 . S
C2012 C2011 1.400 . S
C2012 C2015 1.386 . S
H2013 C2029 0.930 . S
H2014 C2030 0.931 . S
C2015 H2003 0.929 . S
C2015 C2009 1.390 . S
C2015 C2012 1.386 . S
C2016 C2011 1.490 . S
C2016 C2018 1.395 . S
C2016 C2019 1.403 . S
H2017 C2023 0.930 . S
C2018 H2004 0.930 . S
C2018 C2016 1.395 . S
C2018 C2021 1.403 . S
C2019 C2016 1.403 . S
C2019 C2020 1.524 . S
C2019 C2023 1.400 . S
C2020 H2005 0.960 . S
C2020 H2006 0.960 . S
C2020 H2007 0.960 . S
C2020 C2019 1.524 . S
C2021 C2018 1.403 . S
C2021 C2022 1.392 . S
C2021 C2025 1.495 . S
C2022 C2021 1.392 . S
C2022 C2023 1.385 . S
C2022 C2024 1.478 . S
C2023 H2017 0.930 . S
C2023 C2019 1.400 . S
C2023 C2022 1.385 . S
C2024 C2022 1.478 . S
C2024 C2026 1.381 . S
C2024 C2030 1.383 . S
C2025 C2021 1.495 . S
C2025 H2031 0.959 . S
C2025 H2032 0.961 . S
C2025 H2033 0.960 . S
C2026 C2024 1.381 . S
C2026 C2027 1.394 . S
C2026 H2034 0.930 . S
C2027 C2026 1.394 . S
C2027 C2028 1.383 . S
C2027 H2035 0.929 . S
C2028 C2027 1.383 . S
C2028 C2029 1.377 . S
C2029 H2013 0.930 . S
C2029 C2028 1.377 . S
C2029 C2030 1.379 . S
C2030 H2014 0.931 . S
C2030 C2024 1.383 . S
C2030 C2029 1.379 . S
H2031 C2025 0.959 . S
H2032 C2025 0.961 . S
H2033 C2025 0.960 . S
H2034 C2026 0.930 . S
H2035 C2027 0.929 . S
H2036 C2044 0.929 . S
H2037 C2046 0.930 . S
H2038 C2048 0.930 . S
H2039 C2051 0.929 . S
H2040 C2054 0.930 . S
H2041 C2056 0.999 . S
H2042 C2056 0.930 1_655 S
H2043 C2056 0.921 1_655 S
C2044 H2036 0.929 . S
C2044 C2045 1.377 . S
C2044 C2046 1.384 . S
C2045 C2044 1.377 . S
C2045 C2051 1.390 . S
C2046 H2037 0.930 . S
C2046 C2044 1.384 . S
C2046 C2047 1.372 . S
C2047 C2046 1.372 . S
C2047 C2048 1.400 . S
C2047 C2052 1.490 1_655 S
C2048 H2038 0.930 . S
C2048 C2047 1.400 . S
C2048 C2051 1.386 . S
H2049 C2065 0.930 . S
H2050 C2066 0.931 . S
C2051 H2039 0.929 . S
C2051 C2045 1.390 . S
C2051 C2048 1.386 . S
C2052 C2047 1.490 1_455 S
C2052 C2054 1.395 . S
C2052 C2055 1.403 . S
H2053 C2059 0.930 . S
C2054 H2040 0.930 . S
C2054 C2052 1.395 . S
C2054 C2057 1.403 . S
C2055 C2052 1.403 . S
C2055 C2056 1.559 . S
C2055 C2059 1.400 . S
C2056 H2041 0.999 . S
C2056 H2042 0.930 1_455 S
C2056 H2043 0.921 1_455 S
C2056 C2055 1.559 . S
C2057 C2054 1.403 . S
C2057 C2058 1.392 . S
C2057 C2061 1.495 . S
C2058 C2057 1.392 . S
C2058 C2059 1.385 . S
C2058 C2060 1.478 . S
C2059 H2053 0.930 . S
C2059 C2055 1.400 . S
C2059 C2058 1.385 . S
C2060 C2058 1.478 . S
C2060 C2062 1.381 . S
C2060 C2066 1.383 . S
C2061 C2057 1.495 . S
C2061 H2067 0.959 . S
C2061 H2068 0.961 . S
C2061 H2069 0.960 . S
C2062 C2060 1.381 . S
C2062 C2063 1.394 . S
C2062 H2070 0.930 . S
C2063 C2062 1.394 . S
C2063 C2064 1.383 . S
C2063 H2071 0.929 . S
C2064 C2063 1.383 . S
C2064 C2065 1.377 . S
C2065 H2049 0.930 . S
C2065 C2064 1.377 . S
C2065 C2066 1.379 . S
C2066 H2050 0.931 . S
C2066 C2060 1.383 . S
C2066 C2065 1.379 . S
H2067 C2061 0.959 . S
H2068 C2061 0.961 . S
H2069 C2061 0.960 . S
H2070 C2062 0.930 . S
H2071 C2063 0.929 . S
H2072 C2080 0.929 . S
H2073 C2082 0.930 . S
H2074 C2084 0.930 . S
H2075 C2087 0.929 . S
H2076 C2090 0.930 . S
H2077 C2092 0.960 . S
H2078 C2092 0.960 . S
H2079 C2092 0.960 . S
C2080 H2072 0.929 . S
C2080 C2081 1.377 . S
C2080 C2082 1.384 . S
C2081 C2080 1.377 . S
C2081 C2087 1.390 . S
C2082 H2073 0.930 . S
C2082 C2080 1.384 . S
C2082 C2083 1.372 . S
C2083 C2082 1.372 . S
C2083 C2084 1.400 . S
C2083 C2088 1.490 . S
C2084 H2074 0.930 . S
C2084 C2083 1.400 . S
C2084 C2087 1.386 . S
H2085 C2101 0.930 . S
H2086 C2102 0.931 . S
C2087 H2075 0.929 . S
C2087 C2081 1.390 . S
C2087 C2084 1.386 . S
C2088 C2083 1.490 . S
C2088 C2090 1.395 . S
C2088 C2091 1.403 . S
H2089 C2095 0.930 . S
C2090 H2076 0.930 . S
C2090 C2088 1.395 . S
C2090 C2093 1.403 . S
C2091 C2088 1.403 . S
C2091 C2092 1.524 . S
C2091 C2095 1.400 . S
C2092 H2077 0.960 . S
C2092 H2078 0.960 . S
C2092 H2079 0.960 . S
C2092 C2091 1.524 . S
C2093 C2090 1.403 . S
C2093 C2094 1.392 . S
C2093 C2097 1.495 . S
C2094 C2093 1.392 . S
C2094 C2095 1.385 . S
C2094 C2096 1.478 . S
C2095 H2089 0.930 . S
C2095 C2091 1.400 . S
C2095 C2094 1.385 . S
C2096 C2094 1.478 . S
C2096 C2098 1.381 . S
C2096 C2102 1.383 . S
C2097 C2093 1.495 . S
C2097 H2103 0.959 . S
C2097 H2104 0.961 . S
C2097 H2105 0.960 . S
C2098 C2096 1.381 . S
C2098 C2099 1.394 . S
C2098 H2106 0.930 . S
C2099 C2098 1.394 . S
C2099 C2100 1.383 . S
C2099 H2107 0.929 . S
C2100 C2099 1.383 . S
C2100 C2101 1.377 . S
C2101 H2085 0.930 . S
C2101 C2100 1.377 . S
C2101 C2102 1.379 . S
C2102 H2086 0.931 . S
C2102 C2096 1.383 . S
C2102 C2101 1.379 . S
H2103 C2097 0.959 . S
H2104 C2097 0.961 . S
H2105 C2097 0.960 . S
H2106 C2098 0.930 . S
H2107 C2099 0.929 . S
H2108 C2116 0.929 . S
H2109 C2118 0.930 . S
H2110 C2120 0.930 . S
H2111 C2123 0.929 . S
H2112 C2126 0.930 . S
H2113 C2128 0.960 . S
H2114 C2128 0.960 . S
H2115 C2128 0.960 . S
C2116 H2108 0.929 . S
C2116 C2117 1.377 . S
C2116 C2118 1.384 . S
C2117 C2116 1.377 . S
C2117 C2123 1.390 . S
C2118 H2109 0.930 . S
C2118 C2116 1.384 . S
C2118 C2119 1.372 . S
C2119 C2118 1.372 . S
C2119 C2120 1.400 . S
C2119 C2124 1.490 . S
C2120 H2110 0.930 . S
C2120 C2119 1.400 . S
C2120 C2123 1.386 . S
H2121 C2137 0.930 . S
H2122 C2138 0.931 . S
C2123 H2111 0.929 . S
C2123 C2117 1.390 . S
C2123 C2120 1.386 . S
C2124 C2119 1.490 . S
C2124 C2126 1.395 . S
C2124 C2127 1.403 . S
H2125 C2131 0.930 . S
C2126 H2112 0.930 . S
C2126 C2124 1.395 . S
C2126 C2129 1.403 . S
C2127 C2124 1.403 . S
C2127 C2128 1.524 . S
C2127 C2131 1.400 . S
C2128 H2113 0.960 . S
C2128 H2114 0.960 . S
C2128 H2115 0.960 . S
C2128 C2127 1.524 . S
C2129 C2126 1.403 . S
C2129 C2130 1.392 . S
C2129 C2133 1.495 . S
C2130 C2129 1.392 . S
C2130 C2131 1.385 . S
C2130 C2132 1.478 . S
C2131 H2125 0.930 . S
C2131 C2127 1.400 . S
C2131 C2130 1.385 . S
C2132 C2130 1.478 . S
C2132 C2134 1.381 . S
C2132 C2138 1.383 . S
C2133 C2129 1.495 . S
C2133 H2139 0.959 . S
C2133 H2140 0.961 . S
C2133 H2141 0.960 . S
C2134 C2132 1.381 . S
C2134 C2135 1.394 . S
C2134 H2142 0.930 . S
C2135 C2134 1.394 . S
C2135 C2136 1.383 . S
C2135 H2143 0.929 . S
C2136 C2135 1.383 . S
C2136 C2137 1.377 . S
C2137 H2121 0.930 . S
C2137 C2136 1.377 . S
C2137 C2138 1.379 . S
C2138 H2122 0.931 . S
C2138 C2132 1.383 . S
C2138 C2137 1.379 . S
H2139 C2133 0.959 . S
H2140 C2133 0.961 . S
H2141 C2133 0.960 . S
H2142 C2134 0.930 . S
H2143 C2135 0.929 . S
H2144 C2152 0.929 . S
H2145 C2154 0.930 . S
H2146 C2156 0.930 . S
H2147 C2159 0.929 . S
H2148 C2162 0.930 . S
H2149 C2164 0.960 . S
H2150 C2164 0.960 . S
H2151 C2164 0.960 . S
C2152 H2144 0.929 . S
C2152 C2153 1.377 . S
C2152 C2154 1.384 . S
C2153 C2152 1.377 . S
C2153 C2159 1.390 . S
C2154 H2145 0.930 . S
C2154 C2152 1.384 . S
C2154 C2155 1.372 . S
C2155 C2154 1.372 . S
C2155 C2156 1.400 . S
C2155 C2160 1.490 . S
C2156 H2146 0.930 . S
C2156 C2155 1.400 . S
C2156 C2159 1.386 . S
H2157 C2173 0.930 . S
H2158 C2174 0.931 . S
C2159 H2147 0.929 . S
C2159 C2153 1.390 . S
C2159 C2156 1.386 . S
C2160 C2155 1.490 . S
C2160 C2162 1.395 . S
C2160 C2163 1.403 . S
H2161 C2167 0.930 . S
C2162 H2148 0.930 . S
C2162 C2160 1.395 . S
C2162 C2165 1.403 . S
C2163 C2160 1.403 . S
C2163 C2164 1.524 . S
C2163 C2167 1.400 . S
C2164 H2149 0.960 . S
C2164 H2150 0.960 . S
C2164 H2151 0.960 . S
C2164 C2163 1.524 . S
C2165 C2162 1.403 . S
C2165 C2166 1.392 . S
C2165 C2169 1.495 . S
C2166 C2165 1.392 . S
C2166 C2167 1.385 . S
C2166 C2168 1.478 . S
C2167 H2161 0.930 . S
C2167 C2163 1.400 . S
C2167 C2166 1.385 . S
C2168 C2166 1.478 . S
C2168 C2170 1.381 . S
C2168 C2174 1.383 . S
C2169 C2165 1.495 . S
C2169 H2175 0.959 . S
C2169 H2176 0.961 . S
C2169 H2177 0.960 . S
C2170 C2168 1.381 . S
C2170 C2171 1.394 . S
C2170 H2178 0.930 . S
C2171 C2170 1.394 . S
C2171 C2172 1.383 . S
C2171 H2179 0.929 . S
C2172 C2171 1.383 . S
C2172 C2173 1.377 . S
C2173 H2157 0.930 . S
C2173 C2172 1.377 . S
C2173 C2174 1.379 . S
C2174 H2158 0.931 . S
C2174 C2168 1.383 . S
C2174 C2173 1.379 . S
H2175 C2169 0.959 . S
H2176 C2169 0.961 . S
H2177 C2169 0.960 . S
H2178 C2170 0.930 . S
H2179 C2171 0.929 . S
H2180 C2188 0.929 . S
H2181 C2190 0.930 . S
H2182 C2192 0.930 . S
H2183 C2195 0.929 . S
H2184 C2198 0.930 . S
H2185 C2200 0.960 . S
H2186 C2200 0.960 . S
H2187 C2200 0.960 . S
C2188 H2180 0.929 . S
C2188 C2189 1.377 . S
C2188 C2190 1.384 . S
C2189 C2188 1.377 . S
C2189 C2195 1.390 . S
C2190 H2181 0.930 . S
C2190 C2188 1.384 . S
C2190 C2191 1.372 . S
C2191 C2190 1.372 . S
C2191 C2192 1.400 . S
C2191 C2196 1.490 . S
C2192 H2182 0.930 . S
C2192 C2191 1.400 . S
C2192 C2195 1.386 . S
H2193 C2209 0.930 . S
H2194 C2210 0.931 . S
C2195 H2183 0.929 . S
C2195 C2189 1.390 . S
C2195 C2192 1.386 . S
C2196 C2191 1.490 . S
C2196 C2198 1.395 . S
C2196 C2199 1.403 . S
H2197 C2203 0.930 . S
C2198 H2184 0.930 . S
C2198 C2196 1.395 . S
C2198 C2201 1.403 . S
C2199 C2196 1.403 . S
C2199 C2200 1.524 . S
C2199 C2203 1.400 . S
C2200 H2185 0.960 . S
C2200 H2186 0.960 . S
C2200 H2187 0.960 . S
C2200 C2199 1.524 . S
C2201 C2198 1.403 . S
C2201 C2202 1.392 . S
C2201 C2205 1.495 . S
C2202 C2201 1.392 . S
C2202 C2203 1.385 . S
C2202 C2204 1.478 . S
C2203 H2197 0.930 . S
C2203 C2199 1.400 . S
C2203 C2202 1.385 . S
C2204 C2202 1.478 . S
C2204 C2206 1.381 . S
C2204 C2210 1.383 . S
C2205 C2201 1.495 . S
C2205 H2211 0.959 . S
C2205 H2212 0.961 . S
C2205 H2213 0.960 . S
C2206 C2204 1.381 . S
C2206 C2207 1.394 1_556 S
C2206 H2214 0.930 . S
C2207 C2206 1.394 1_554 S
C2207 C2208 1.383 . S
C2207 H2215 0.929 . S
C2208 C2207 1.383 . S
C2208 C2209 1.377 1_554 S
C2209 H2193 0.930 . S
C2209 C2208 1.377 1_556 S
C2209 C2210 1.379 . S
C2210 H2194 0.931 . S
C2210 C2204 1.383 . S
C2210 C2209 1.379 . S
H2211 C2205 0.959 . S
H2212 C2205 0.961 . S
H2213 C2205 0.960 . S
H2214 C2206 0.930 . S
H2215 C2207 0.929 . S
H2216 C2224 0.929 . S
H2217 C2226 0.930 . S
H2218 C2228 0.930 . S
H2219 C2231 0.930 1_556 S
H2220 C2234 0.930 . S
H2221 C2236 0.960 . S
H2222 C2236 0.960 . S
H2223 C2236 0.960 . S
C2224 H2216 0.929 . S
C2224 C2225 1.377 . S
C2224 C2226 1.384 1_556 S
C2225 C2224 1.377 . S
C2225 C2231 1.390 1_556 S
C2226 H2217 0.930 . S
C2226 C2224 1.384 1_554 S
C2226 C2227 1.372 . S
C2227 C2226 1.372 . S
C2227 C2228 1.400 . S
C2227 C2232 1.490 . S
C2228 H2218 0.930 . S
C2228 C2227 1.400 . S
C2228 C2231 1.386 . S
H2229 C2245 0.930 . S
H2230 C2246 0.931 . S
C2231 H2219 0.930 1_554 S
C2231 C2225 1.390 1_554 S
C2231 C2228 1.386 . S
C2232 C2227 1.490 . S
C2232 C2234 1.395 . S
C2232 C2235 1.403 . S
H2233 C2239 0.930 . S
C2234 H2220 0.930 . S
C2234 C2232 1.395 . S
C2234 C2237 1.403 . S
C2235 C2232 1.403 . S
C2235 C2236 1.524 . S
C2235 C2239 1.400 . S
C2236 H2221 0.960 . S
C2236 H2222 0.960 . S
C2236 H2223 0.960 . S
C2236 C2235 1.524 . S
C2237 C2234 1.403 . S
C2237 C2238 1.392 . S
C2237 C2241 1.495 . S
C2238 C2237 1.392 . S
C2238 C2239 1.385 . S
C2238 C2240 1.478 . S
C2239 H2233 0.930 . S
C2239 C2235 1.400 . S
C2239 C2238 1.385 . S
C2240 C2238 1.478 . S
C2240 C2242 1.381 . S
C2240 C2246 1.383 . S
C2241 C2237 1.495 . S
C2241 H2247 0.959 . S
C2241 H2248 0.961 . S
C2241 H2249 0.960 . S
C2242 C2240 1.381 . S
C2242 C2243 1.394 . S
C2242 H2250 0.930 . S
C2243 C2242 1.394 . S
C2243 C2244 1.383 . S
C2243 H2251 0.929 . S
C2244 C2243 1.383 . S
C2244 C2245 1.377 . S
C2245 H2229 0.930 . S
C2245 C2244 1.377 . S
C2245 C2246 1.379 . S
C2246 H2230 0.931 . S
C2246 C2240 1.383 . S
C2246 C2245 1.379 . S
H2247 C2241 0.959 . S
H2248 C2241 0.961 . S
H2249 C2241 0.960 . S
H2250 C2242 0.930 . S
H2251 C2243 0.929 . S
H2252 C2260 0.929 . S
H2253 C2262 0.930 . S
H2254 C2264 0.930 . S
H2255 C2267 0.929 . S
H2256 C2270 0.930 . S
H2257 C2272 0.960 . S
H2258 C2272 0.960 . S
H2259 C2272 0.960 . S
C2260 H2252 0.929 . S
C2260 C2261 1.377 . S
C2260 C2262 1.384 . S
C2261 C2260 1.377 . S
C2261 C2267 1.390 . S
C2262 H2253 0.930 . S
C2262 C2260 1.384 . S
C2262 C2263 1.372 . S
C2263 C2262 1.372 . S
C2263 C2264 1.400 . S
C2263 C2268 1.490 . S
C2264 H2254 0.930 . S
C2264 C2263 1.400 . S
C2264 C2267 1.386 . S
H2265 C2281 0.930 . S
H2266 C2282 0.931 . S
C2267 H2255 0.929 . S
C2267 C2261 1.390 . S
C2267 C2264 1.386 . S
C2268 C2263 1.490 . S
C2268 C2270 1.395 . S
C2268 C2271 1.403 . S
H2269 C2275 0.930 . S
C2270 H2256 0.930 . S
C2270 C2268 1.395 . S
C2270 C2273 1.403 . S
C2271 C2268 1.403 . S
C2271 C2272 1.524 . S
C2271 C2275 1.400 . S
C2272 H2257 0.960 . S
C2272 H2258 0.960 . S
C2272 H2259 0.960 . S
C2272 C2271 1.524 . S
C2273 C2270 1.403 . S
C2273 C2274 1.392 . S
C2273 C2277 1.495 . S
C2274 C2273 1.392 . S
C2274 C2275 1.385 . S
C2274 C2276 1.478 . S
C2275 H2269 0.930 . S
C2275 C2271 1.400 . S
C2275 C2274 1.385 . S
C2276 C2274 1.478 . S
C2276 C2278 1.381 . S
C2276 C2282 1.383 . S
C2277 C2273 1.495 . S
C2277 H2283 0.959 . S
C2277 H2284 0.961 . S
C2277 H2285 0.960 . S
C2278 C2276 1.381 . S
C2278 C2279 1.394 . S
C2278 H2286 0.930 . S
C2279 C2278 1.394 . S
C2279 C2280 1.383 . S
C2279 H2287 0.929 . S
C2280 C2279 1.383 . S
C2280 C2281 1.377 . S
C2281 H2265 0.930 . S
C2281 C2280 1.377 . S
C2281 C2282 1.379 . S
C2282 H2266 0.931 . S
C2282 C2276 1.383 . S
C2282 C2281 1.379 . S
H2283 C2277 0.959 . S
H2284 C2277 0.961 . S
H2285 C2277 0.960 . S
H2286 C2278 0.930 . S
H2287 C2279 0.929 . S
H2288 C2296 0.929 . S
H2289 C2298 0.930 . S
H2290 C2300 0.930 . S
H2291 C2303 0.929 . S
H2292 C2306 0.930 . S
H2293 C2308 0.960 . S
H2294 C2308 0.960 . S
H2295 C2308 0.960 . S
C2296 H2288 0.929 . S
C2296 C2297 1.377 . S
C2296 C2298 1.384 . S
C2297 C2296 1.377 . S
C2297 C2303 1.390 . S
C2298 H2289 0.930 . S
C2298 C2296 1.384 . S
C2298 C2299 1.372 . S
C2299 C2298 1.372 . S
C2299 C2300 1.400 . S
C2299 C2304 1.490 . S
C2300 H2290 0.930 . S
C2300 C2299 1.400 . S
C2300 C2303 1.386 . S
H2301 C2317 0.930 . S
H2302 C2318 0.931 . S
C2303 H2291 0.929 . S
C2303 C2297 1.390 . S
C2303 C2300 1.386 . S
C2304 C2299 1.490 . S
C2304 C2306 1.395 . S
C2304 C2307 1.403 . S
H2305 C2311 0.930 . S
C2306 H2292 0.930 . S
C2306 C2304 1.395 . S
C2306 C2309 1.403 . S
C2307 C2304 1.403 . S
C2307 C2308 1.524 . S
C2307 C2311 1.400 . S
C2308 H2293 0.960 . S
C2308 H2294 0.960 . S
C2308 H2295 0.960 . S
C2308 C2307 1.524 . S
C2309 C2306 1.403 . S
C2309 C2310 1.392 . S
C2309 C2313 1.495 . S
C2310 C2309 1.392 . S
C2310 C2311 1.385 . S
C2310 C2312 1.478 . S
C2311 H2305 0.930 . S
C2311 C2307 1.400 . S
C2311 C2310 1.385 . S
C2312 C2310 1.478 . S
C2312 C2314 1.381 . S
C2312 C2318 1.383 . S
C2313 C2309 1.495 . S
C2313 H2319 0.959 . S
C2313 H2320 0.961 . S
C2313 H2321 0.960 . S
C2314 C2312 1.381 . S
C2314 C2315 1.394 . S
C2314 H2322 0.930 . S
C2315 C2314 1.394 . S
C2315 C2316 1.383 . S
C2315 H2323 0.929 . S
C2316 C2315 1.383 . S
C2316 C2317 1.377 . S
C2317 H2301 0.930 . S
C2317 C2316 1.377 . S
C2317 C2318 1.379 . S
C2318 H2302 0.931 . S
C2318 C2312 1.383 . S
C2318 C2317 1.379 . S
H2319 C2313 0.959 . S
H2320 C2313 0.961 . S
H2321 C2313 0.960 . S
H2322 C2314 0.930 . S
H2323 C2315 0.929 . S
H2324 C2332 0.929 1_556 S
H2325 C2334 0.930 . S
H2326 C2336 0.930 . S
H2327 C2339 0.929 . S
H2328 C2342 0.930 . S
H2329 C2344 0.960 . S
H2330 C2344 0.960 . S
H2331 C2344 0.960 . S
C2332 H2324 0.929 1_554 S
C2332 C2333 1.377 1_554 S
C2332 C2334 1.384 . S
C2333 C2332 1.377 1_556 S
C2333 C2339 1.390 . S
C2334 H2325 0.930 . S
C2334 C2332 1.384 . S
C2334 C2335 1.372 . S
C2335 C2334 1.372 . S
C2335 C2336 1.400 . S
C2335 C2340 1.490 . S
C2336 H2326 0.930 . S
C2336 C2335 1.400 . S
C2336 C2339 1.386 1_554 S
H2337 C2353 0.930 . S
H2338 C2354 0.931 . S
C2339 H2327 0.929 . S
C2339 C2333 1.390 . S
C2339 C2336 1.386 1_556 S
C2340 C2335 1.490 . S
C2340 C2342 1.395 . S
C2340 C2343 1.403 . S
H2341 C2347 0.930 . S
C2342 H2328 0.930 . S
C2342 C2340 1.395 . S
C2342 C2345 1.403 . S
C2343 C2340 1.403 . S
C2343 C2344 1.524 . S
C2343 C2347 1.400 . S
C2344 H2329 0.960 . S
C2344 H2330 0.960 . S
C2344 H2331 0.960 . S
C2344 C2343 1.524 . S
C2345 C2342 1.403 . S
C2345 C2346 1.392 . S
C2345 C2349 1.495 . S
C2346 C2345 1.392 . S
C2346 C2347 1.385 . S
C2346 C2348 1.478 . S
C2347 H2341 0.930 . S
C2347 C2343 1.400 . S
C2347 C2346 1.385 . S
C2348 C2346 1.478 . S
C2348 C2350 1.381 . S
C2348 C2354 1.383 . S
C2349 C2345 1.495 . S
C2349 H2355 0.959 . S
C2349 H2356 0.961 . S
C2349 H2357 0.960 . S
C2350 C2348 1.381 . S
C2350 C2351 1.394 . S
C2350 H2358 0.930 . S
C2351 C2350 1.394 . S
C2351 C2352 1.383 . S
C2351 H2359 0.929 . S
C2352 C2351 1.383 . S
C2352 C2353 1.377 . S
C2353 H2337 0.930 . S
C2353 C2352 1.377 . S
C2353 C2354 1.379 . S
C2354 H2338 0.931 . S
C2354 C2348 1.383 . S
C2354 C2353 1.379 . S
H2355 C2349 0.959 . S
H2356 C2349 0.961 . S
H2357 C2349 0.960 . S
H2358 C2350 0.930 . S
H2359 C2351 0.929 . S
H2360 C2368 0.929 . S
H2361 C2370 0.930 . S
H2362 C2372 0.930 . S
H2363 C2375 0.929 . S
H2364 C2378 0.930 . S
H2365 C2380 0.960 . S
H2366 C2380 0.960 . S
H2367 C2380 0.960 . S
C2368 H2360 0.929 . S
C2368 C2369 1.377 . S
C2368 C2370 1.384 . S
C2369 C2368 1.377 . S
C2369 C2375 1.390 . S
C2370 H2361 0.930 . S
C2370 C2368 1.384 . S
C2370 C2371 1.372 . S
C2371 C2370 1.372 . S
C2371 C2372 1.400 . S
C2371 C2376 1.490 . S
C2372 H2362 0.930 . S
C2372 C2371 1.400 . S
C2372 C2375 1.386 . S
H2373 C2389 0.930 . S
H2374 C2390 0.931 . S
C2375 H2363 0.929 . S
C2375 C2369 1.390 . S
C2375 C2372 1.386 . S
C2376 C2371 1.490 . S
C2376 C2378 1.395 . S
C2376 C2379 1.403 . S
H2377 C2383 0.930 . S
C2378 H2364 0.930 . S
C2378 C2376 1.395 . S
C2378 C2381 1.403 . S
C2379 C2376 1.403 . S
C2379 C2380 1.524 . S
C2379 C2383 1.400 . S
C2380 H2365 0.960 . S
C2380 H2366 0.960 . S
C2380 H2367 0.960 . S
C2380 C2379 1.524 . S
C2381 C2378 1.403 . S
C2381 C2382 1.392 . S
C2381 C2385 1.495 . S
C2382 C2381 1.392 . S
C2382 C2383 1.385 . S
C2382 C2384 1.478 . S
C2383 H2377 0.930 . S
C2383 C2379 1.400 . S
C2383 C2382 1.385 . S
C2384 C2382 1.478 . S
C2384 C2386 1.381 . S
C2384 C2390 1.383 . S
C2385 C2381 1.495 . S
C2385 H2391 0.959 . S
C2385 H2392 0.961 . S
C2385 H2393 0.960 . S
C2386 C2384 1.381 . S
C2386 C2387 1.394 . S
C2386 H2394 0.930 . S
C2387 C2386 1.394 . S
C2387 C2388 1.383 1_556 S
C2387 H2395 0.919 1_556 S
C2388 C2387 1.383 1_554 S
C2388 C2389 1.377 . S
C2389 H2373 0.930 . S
C2389 C2388 1.377 . S
C2389 C2390 1.379 1_554 S
C2390 H2374 0.931 . S
C2390 C2384 1.383 . S
C2390 C2389 1.379 1_556 S
H2391 C2385 0.959 . S
H2392 C2385 0.961 . S
H2393 C2385 0.960 . S
H2394 C2386 0.930 . S
H2395 C2387 0.919 1_554 S
H2396 C2404 0.929 . S
H2397 C2406 0.930 . S
H2398 C2408 0.930 . S
H2399 C2411 0.929 . S
H2400 C2414 0.930 . S
H2401 C2416 0.960 . S
H2402 C2416 0.960 . S
H2403 C2416 0.960 . S
C2404 H2396 0.929 . S
C2404 C2405 1.377 . S
C2404 C2406 1.384 . S
C2405 C2404 1.377 . S
C2405 C2411 1.390 . S
C2406 H2397 0.930 . S
C2406 C2404 1.384 . S
C2406 C2407 1.372 . S
C2407 C2406 1.372 . S
C2407 C2408 1.400 . S
C2407 C2412 1.490 . S
C2408 H2398 0.930 . S
C2408 C2407 1.400 . S
C2408 C2411 1.386 . S
H2409 C2425 0.930 . S
H2410 C2426 0.931 . S
C2411 H2399 0.929 . S
C2411 C2405 1.390 . S
C2411 C2408 1.386 . S
C2412 C2407 1.490 . S
C2412 C2414 1.395 . S
C2412 C2415 1.403 . S
H2413 C2419 0.930 . S
C2414 H2400 0.930 . S
C2414 C2412 1.395 . S
C2414 C2417 1.403 . S
C2415 C2412 1.403 . S
C2415 C2416 1.524 . S
C2415 C2419 1.400 . S
C2416 H2401 0.960 . S
C2416 H2402 0.960 . S
C2416 H2403 0.960 . S
C2416 C2415 1.524 . S
C2417 C2414 1.403 . S
C2417 C2418 1.392 . S
C2417 C2421 1.495 . S
C2418 C2417 1.392 . S
C2418 C2419 1.385 . S
C2418 C2420 1.478 . S
C2419 H2413 0.930 . S
C2419 C2415 1.400 . S
C2419 C2418 1.385 . S
C2420 C2418 1.478 . S
C2420 C2422 1.381 . S
C2420 C2426 1.383 . S
C2421 C2417 1.495 . S
C2421 H2427 0.959 . S
C2421 H2428 0.961 . S
C2421 H2429 0.960 . S
C2422 C2420 1.381 . S
C2422 C2423 1.394 . S
C2422 H2430 0.930 . S
C2423 C2422 1.394 . S
C2423 C2424 1.383 . S
C2423 H2431 0.929 . S
C2424 C2423 1.383 . S
C2424 C2425 1.377 . S
C2425 H2409 0.930 . S
C2425 C2424 1.377 . S
C2425 C2426 1.379 . S
C2426 H2410 0.931 . S
C2426 C2420 1.383 . S
C2426 C2425 1.379 . S
H2427 C2421 0.959 . S
H2428 C2421 0.961 . S
H2429 C2421 0.960 . S
H2430 C2422 0.930 . S
H2431 C2423 0.929 . S
H2432 C2440 0.929 1_556 S
H2433 C2442 0.930 . S
H2434 C2444 0.930 . S
H2435 C2447 0.929 1_556 S
H2436 C2450 0.930 . S
H2437 C2452 0.960 . S
H2438 C2452 0.960 . S
H2439 C2452 0.960 . S
C2440 H2432 0.929 1_554 S
C2440 C2441 1.377 1_554 S
C2440 C2442 1.384 . S
C2441 C2440 1.377 1_556 S
C2441 C2447 1.390 1_556 S
C2442 H2433 0.930 . S
C2442 C2440 1.384 . S
C2442 C2443 1.372 . S
C2443 C2442 1.372 . S
C2443 C2444 1.400 . S
C2443 C2448 1.490 . S
C2444 H2434 0.930 . S
C2444 C2443 1.400 . S
C2444 C2447 1.386 . S
H2445 C2461 0.930 . S
H2446 C2462 0.931 . S
C2447 H2435 0.929 1_554 S
C2447 C2441 1.390 1_554 S
C2447 C2444 1.386 . S
C2448 C2443 1.490 . S
C2448 C2450 1.395 . S
C2448 C2451 1.403 . S
H2449 C2455 0.930 . S
C2450 H2436 0.930 . S
C2450 C2448 1.395 . S
C2450 C2453 1.403 . S
C2451 C2448 1.403 . S
C2451 C2452 1.524 . S
C2451 C2455 1.400 . S
C2452 H2437 0.960 . S
C2452 H2438 0.960 . S
C2452 H2439 0.960 . S
C2452 C2451 1.524 . S
C2453 C2450 1.403 . S
C2453 C2454 1.392 . S
C2453 C2457 1.495 . S
C2454 C2453 1.392 . S
C2454 C2455 1.385 . S
C2454 C2456 1.478 . S
C2455 H2449 0.930 . S
C2455 C2451 1.400 . S
C2455 C2454 1.385 . S
C2456 C2454 1.478 . S
C2456 C2458 1.381 . S
C2456 C2462 1.383 . S
C2457 C2453 1.495 . S
C2457 H2463 0.959 . S
C2457 H2464 0.961 . S
C2457 H2465 0.960 . S
C2458 C2456 1.381 . S
C2458 C2459 1.394 . S
C2458 H2466 0.930 . S
C2459 C2458 1.394 . S
C2459 C2460 1.383 . S
C2459 H2467 0.929 . S
C2460 C2459 1.383 . S
C2460 C2461 1.377 . S
C2461 H2445 0.930 . S
C2461 C2460 1.377 . S
C2461 C2462 1.379 . S
C2462 H2446 0.931 . S
C2462 C2456 1.383 . S
C2462 C2461 1.379 . S
H2463 C2457 0.959 . S
H2464 C2457 0.961 . S
H2465 C2457 0.960 . S
H2466 C2458 0.930 . S
H2467 C2459 0.929 . S
H2468 C2476 0.929 . S
H2469 C2478 0.930 . S
H2470 C2480 0.930 . S
H2471 C2483 0.929 . S
H2472 C2486 0.930 . S
H2473 C2488 0.960 . S
H2474 C2488 0.960 . S
H2475 C2488 0.960 . S
C2476 H2468 0.929 . S
C2476 C2477 1.377 . S
C2476 C2478 1.384 . S
C2477 C2476 1.377 . S
C2477 C2483 1.390 . S
C2478 H2469 0.930 . S
C2478 C2476 1.384 . S
C2478 C2479 1.372 . S
C2479 C2478 1.372 . S
C2479 C2480 1.400 . S
C2479 C2484 1.490 . S
C2480 H2470 0.930 . S
C2480 C2479 1.400 . S
C2480 C2483 1.386 . S
H2481 C2497 0.930 . S
H2482 C2498 0.931 . S
C2483 H2471 0.929 . S
C2483 C2477 1.390 . S
C2483 C2480 1.386 . S
C2484 C2479 1.490 . S
C2484 C2486 1.395 . S
C2484 C2487 1.403 . S
H2485 C2491 0.930 . S
C2486 H2472 0.930 . S
C2486 C2484 1.395 . S
C2486 C2489 1.403 . S
C2487 C2484 1.403 . S
C2487 C2488 1.524 . S
C2487 C2491 1.400 . S
C2488 H2473 0.960 . S
C2488 H2474 0.960 . S
C2488 H2475 0.960 . S
C2488 C2487 1.524 . S
C2489 C2486 1.403 . S
C2489 C2490 1.392 . S
C2489 C2493 1.495 . S
C2490 C2489 1.392 . S
C2490 C2491 1.385 . S
C2490 C2492 1.478 . S
C2491 H2485 0.930 . S
C2491 C2487 1.400 . S
C2491 C2490 1.385 . S
C2492 C2490 1.478 . S
C2492 C2494 1.381 . S
C2492 C2498 1.383 . S
C2493 C2489 1.495 . S
C2493 H2499 0.959 . S
C2493 H2500 0.961 . S
C2493 H2501 0.960 . S
C2494 C2492 1.381 . S
C2494 C2495 1.394 . S
C2494 H2502 0.930 . S
C2495 C2494 1.394 . S
C2495 C2496 1.383 . S
C2495 H2503 0.929 . S
C2496 C2495 1.383 . S
C2496 C2497 1.377 . S
C2497 H2481 0.930 . S
C2497 C2496 1.377 . S
C2497 C2498 1.379 . S
C2498 H2482 0.931 . S
C2498 C2492 1.383 . S
C2498 C2497 1.379 . S
H2499 C2493 0.959 . S
H2500 C2493 0.961 . S
H2501 C2493 0.960 . S
H2502 C2494 0.930 . S
H2503 C2495 0.929 . S
H2504 C2512 0.929 . S
H2505 C2514 0.930 . S
H2506 C2516 0.930 . S
H2507 C2519 0.929 . S
H2508 C2522 0.930 . S
H2509 C2524 0.960 . S
H2510 C2524 0.960 . S
H2511 C2524 0.960 . S
C2512 H2504 0.929 . S
C2512 C2513 1.377 . S
C2512 C2514 1.384 . S
C2513 C2512 1.377 . S
C2513 C2519 1.390 . S
C2514 H2505 0.930 . S
C2514 C2512 1.384 . S
C2514 C2515 1.372 . S
C2515 C2514 1.372 . S
C2515 C2516 1.400 . S
C2515 C2520 1.490 . S
C2516 H2506 0.930 . S
C2516 C2515 1.400 . S
C2516 C2519 1.386 . S
H2517 C2533 0.930 . S
H2518 C2534 0.931 . S
C2519 H2507 0.929 . S
C2519 C2513 1.390 . S
C2519 C2516 1.386 . S
C2520 C2515 1.490 . S
C2520 C2522 1.395 . S
C2520 C2523 1.403 . S
H2521 C2527 0.930 . S
C2522 H2508 0.930 . S
C2522 C2520 1.395 . S
C2522 C2525 1.403 . S
C2523 C2520 1.403 . S
C2523 C2524 1.524 . S
C2523 C2527 1.400 . S
C2524 H2509 0.960 . S
C2524 H2510 0.960 . S
C2524 H2511 0.960 . S
C2524 C2523 1.524 . S
C2525 C2522 1.403 . S
C2525 C2526 1.392 . S
C2525 C2529 1.495 . S
C2526 C2525 1.392 . S
C2526 C2527 1.385 . S
C2526 C2528 1.478 . S
C2527 H2521 0.930 . S
C2527 C2523 1.400 . S
C2527 C2526 1.385 . S
C2528 C2526 1.478 . S
C2528 C2530 1.381 . S
C2528 C2534 1.383 . S
C2529 C2525 1.495 . S
C2529 H2535 0.959 . S
C2529 H2536 0.961 . S
C2529 H2537 0.960 . S
C2530 C2528 1.381 . S
C2530 C2531 1.394 . S
C2530 H2538 0.930 . S
C2531 C2530 1.394 . S
C2531 C2532 1.383 . S
C2531 H2539 0.929 . S
C2532 C2531 1.383 . S
C2532 C2533 1.377 . S
C2533 H2517 0.930 . S
C2533 C2532 1.377 . S
C2533 C2534 1.379 . S
C2534 H2518 0.931 . S
C2534 C2528 1.383 . S
C2534 C2533 1.379 . S
H2535 C2529 0.959 . S
H2536 C2529 0.961 . S
H2537 C2529 0.960 . S
H2538 C2530 0.930 . S
H2539 C2531 0.929 . S
H2540 C2548 0.921 1_554 S
H2541 C2550 0.930 . S
H2542 C2552 0.930 . S
H2543 C2555 0.929 . S
H2544 C2558 0.930 . S
H2545 C2560 0.960 . S
H2546 C2560 0.960 . S
H2547 C2560 0.960 . S
C2548 H2540 0.921 1_556 S
C2548 C2549 1.377 1_556 S
C2548 C2550 1.384 . S
C2549 C2548 1.377 1_554 S
C2549 C2555 1.390 . S
C2550 H2541 0.930 . S
C2550 C2548 1.384 . S
C2550 C2551 1.372 . S
C2551 C2550 1.372 . S
C2551 C2552 1.400 . S
C2551 C2556 1.490 . S
C2552 H2542 0.930 . S
C2552 C2551 1.400 . S
C2552 C2555 1.386 1_556 S
H2553 C2569 0.930 . S
H2554 C2570 0.931 . S
C2555 H2543 0.929 . S
C2555 C2549 1.390 . S
C2555 C2552 1.386 1_554 S
C2556 C2551 1.490 . S
C2556 C2558 1.395 . S
C2556 C2559 1.403 . S
H2557 C2563 0.930 . S
C2558 H2544 0.930 . S
C2558 C2556 1.395 . S
C2558 C2561 1.403 . S
C2559 C2556 1.403 . S
C2559 C2560 1.524 . S
C2559 C2563 1.400 . S
C2560 H2545 0.960 . S
C2560 H2546 0.960 . S
C2560 H2547 0.960 . S
C2560 C2559 1.524 . S
C2561 C2558 1.403 . S
C2561 C2562 1.392 . S
C2561 C2565 1.495 . S
C2562 C2561 1.392 . S
C2562 C2563 1.385 . S
C2562 C2564 1.478 . S
C2563 H2557 0.930 . S
C2563 C2559 1.400 . S
C2563 C2562 1.385 . S
C2564 C2562 1.478 . S
C2564 C2566 1.381 . S
C2564 C2570 1.383 . S
C2565 C2561 1.495 . S
C2565 H2571 0.959 . S
C2565 H2572 0.961 . S
C2565 H2573 0.960 . S
C2566 C2564 1.381 . S
C2566 C2567 1.394 . S
C2566 H2574 0.930 . S
C2567 C2566 1.394 . S
C2567 C2568 1.383 . S
C2567 H2575 0.929 . S
C2568 C2567 1.383 . S
C2568 C2569 1.377 . S
C2569 H2553 0.930 . S
C2569 C2568 1.377 . S
C2569 C2570 1.379 . S
C2570 H2554 0.931 . S
C2570 C2564 1.383 . S
C2570 C2569 1.379 . S
H2571 C2565 0.959 . S
H2572 C2565 0.961 . S
H2573 C2565 0.960 . S
H2574 C2566 0.930 . S
H2575 C2567 0.929 . S
H2576 C2584 0.929 . S
H2577 C2586 0.930 . S
H2578 C2588 0.930 . S
H2579 C2591 0.929 . S
H2580 C2594 0.930 . S
H2581 C2596 0.960 . S
H2582 C2596 0.960 . S
H2583 C2596 0.960 . S
C2584 H2576 0.929 . S
C2584 C2585 1.377 . S
C2584 C2586 1.384 . S
C2585 C2584 1.377 . S
C2585 C2591 1.390 . S
C2586 H2577 0.930 . S
C2586 C2584 1.384 . S
C2586 C2587 1.372 . S
C2587 C2586 1.372 . S
C2587 C2588 1.400 . S
C2587 C2592 1.490 . S
C2588 H2578 0.930 . S
C2588 C2587 1.400 . S
C2588 C2591 1.386 . S
H2589 C2605 0.930 . S
H2590 C2606 0.931 . S
C2591 H2579 0.929 . S
C2591 C2585 1.390 . S
C2591 C2588 1.386 . S
C2592 C2587 1.490 . S
C2592 C2594 1.395 . S
C2592 C2595 1.403 . S
H2593 C2599 0.930 . S
C2594 H2580 0.930 . S
C2594 C2592 1.395 . S
C2594 C2597 1.403 . S
C2595 C2592 1.403 . S
C2595 C2596 1.524 . S
C2595 C2599 1.400 . S
C2596 H2581 0.960 . S
C2596 H2582 0.960 . S
C2596 H2583 0.960 . S
C2596 C2595 1.524 . S
C2597 C2594 1.403 . S
C2597 C2598 1.392 . S
C2597 C2601 1.495 . S
C2598 C2597 1.392 . S
C2598 C2599 1.385 . S
C2598 C2600 1.478 . S
C2599 H2593 0.930 . S
C2599 C2595 1.400 . S
C2599 C2598 1.385 . S
C2600 C2598 1.478 . S
C2600 C2602 1.381 . S
C2600 C2606 1.383 . S
C2601 C2597 1.495 . S
C2601 H2607 0.959 . S
C2601 H2608 0.961 . S
C2601 H2609 0.960 . S
C2602 C2600 1.381 . S
C2602 C2603 1.394 . S
C2602 H2610 0.930 . S
C2603 C2602 1.394 . S
C2603 C2604 1.383 1_556 S
C2603 H2611 0.929 1_556 S
C2604 C2603 1.383 1_554 S
C2604 C2605 1.377 . S
C2605 H2589 0.930 . S
C2605 C2604 1.377 . S
C2605 C2606 1.379 1_554 S
C2606 H2590 0.931 . S
C2606 C2600 1.383 . S
C2606 C2605 1.379 1_556 S
H2607 C2601 0.959 . S
H2608 C2601 0.961 . S
H2609 C2601 0.960 . S
H2610 C2602 0.930 . S
H2611 C2603 0.929 1_554 S
H2612 C2620 0.929 . S
H2613 C2622 0.930 . S
H2614 C2624 0.930 . S
H2615 C2627 0.929 . S
H2616 C2630 0.930 . S
H2617 C2632 0.960 . S
H2618 C2632 0.960 . S
H2619 C2632 0.960 . S
C2620 H2612 0.929 . S
C2620 C2621 1.377 . S
C2620 C2622 1.384 . S
C2621 C2620 1.377 . S
C2621 C2627 1.390 . S
C2622 H2613 0.930 . S
C2622 C2620 1.384 . S
C2622 C2623 1.372 . S
C2623 C2622 1.372 . S
C2623 C2624 1.400 . S
C2623 C2628 1.490 . S
C2624 H2614 0.930 . S
C2624 C2623 1.400 . S
C2624 C2627 1.386 . S
H2625 C2641 0.930 . S
H2626 C2642 0.931 . S
C2627 H2615 0.929 . S
C2627 C2621 1.390 . S
C2627 C2624 1.386 . S
C2628 C2623 1.490 . S
C2628 C2630 1.395 . S
C2628 C2631 1.403 . S
H2629 C2635 0.930 . S
C2630 H2616 0.930 . S
C2630 C2628 1.395 . S
C2630 C2633 1.403 . S
C2631 C2628 1.403 . S
C2631 C2632 1.524 . S
C2631 C2635 1.400 . S
C2632 H2617 0.960 . S
C2632 H2618 0.960 . S
C2632 H2619 0.960 . S
C2632 C2631 1.524 . S
C2633 C2630 1.403 . S
C2633 C2634 1.392 . S
C2633 C2637 1.495 . S
C2634 C2633 1.392 . S
C2634 C2635 1.385 . S
C2634 C2636 1.478 . S
C2635 H2629 0.930 . S
C2635 C2631 1.400 . S
C2635 C2634 1.385 . S
C2636 C2634 1.478 . S
C2636 C2638 1.381 . S
C2636 C2642 1.383 . S
C2637 C2633 1.495 . S
C2637 H2643 0.959 . S
C2637 H2644 0.961 . S
C2637 H2645 0.960 . S
C2638 C2636 1.381 . S
C2638 C2639 1.394 . S
C2638 H2646 0.930 . S
C2639 C2638 1.394 . S
C2639 C2640 1.383 . S
C2639 H2647 0.929 . S
C2640 C2639 1.383 . S
C2640 C2641 1.377 . S
C2641 H2625 0.930 . S
C2641 C2640 1.377 . S
C2641 C2642 1.379 . S
C2642 H2626 0.931 . S
C2642 C2636 1.383 . S
C2642 C2641 1.379 . S
H2643 C2637 0.959 . S
H2644 C2637 0.961 . S
H2645 C2637 0.960 . S
H2646 C2638 0.930 . S
H2647 C2639 0.929 . S
H2648 C2656 0.929 . S
H2649 C2658 0.930 . S
H2650 C2660 0.930 . S
H2651 C2663 0.929 . S
H2652 C2666 0.930 . S
H2653 C2668 0.960 . S
H2654 C2668 0.960 . S
H2655 C2668 0.960 . S
C2656 H2648 0.929 . S
C2656 C2657 1.377 . S
C2656 C2658 1.384 . S
C2657 C2656 1.377 . S
C2657 C2663 1.390 . S
C2658 H2649 0.930 . S
C2658 C2656 1.384 . S
C2658 C2659 1.372 . S
C2659 C2658 1.372 . S
C2659 C2660 1.400 . S
C2659 C2664 1.490 . S
C2660 H2650 0.930 . S
C2660 C2659 1.400 . S
C2660 C2663 1.386 . S
H2661 C2677 0.930 . S
H2662 C2678 0.931 . S
C2663 H2651 0.929 . S
C2663 C2657 1.390 . S
C2663 C2660 1.386 . S
C2664 C2659 1.490 . S
C2664 C2666 1.395 . S
C2664 C2667 1.403 . S
H2665 C2671 0.930 . S
C2666 H2652 0.930 . S
C2666 C2664 1.395 . S
C2666 C2669 1.403 . S
C2667 C2664 1.403 . S
C2667 C2668 1.524 . S
C2667 C2671 1.400 . S
C2668 H2653 0.960 . S
C2668 H2654 0.960 . S
C2668 H2655 0.960 . S
C2668 C2667 1.524 . S
C2669 C2666 1.403 . S
C2669 C2670 1.392 . S
C2669 C2673 1.495 . S
C2670 C2669 1.392 . S
C2670 C2671 1.385 . S
C2670 C2672 1.478 . S
C2671 H2665 0.930 . S
C2671 C2667 1.400 . S
C2671 C2670 1.385 . S
C2672 C2670 1.478 . S
C2672 C2674 1.381 . S
C2672 C2678 1.383 . S
C2673 C2669 1.495 . S
C2673 H2679 0.959 . S
C2673 H2680 0.961 . S
C2673 H2681 0.960 . S
C2674 C2672 1.381 . S
C2674 C2675 1.394 . S
C2674 H2682 0.930 . S
C2675 C2674 1.394 . S
C2675 C2676 1.383 . S
C2675 H2683 0.929 . S
C2676 C2675 1.383 . S
C2676 C2677 1.377 . S
C2677 H2661 0.930 . S
C2677 C2676 1.377 . S
C2677 C2678 1.379 . S
C2678 H2662 0.931 . S
C2678 C2672 1.383 . S
C2678 C2677 1.379 . S
H2679 C2673 0.959 . S
H2680 C2673 0.961 . S
H2681 C2673 0.960 . S
H2682 C2674 0.930 . S
H2683 C2675 0.929 . S
H2684 C2692 0.929 . S
H2685 C2694 0.930 . S
H2686 C2696 0.930 . S
H2687 C2699 0.929 . S
H2688 C2702 0.930 . S
H2689 C2704 0.960 . S
H2690 C2704 0.960 . S
H2691 C2704 0.960 . S
C2692 H2684 0.929 . S
C2692 C2693 1.377 . S
C2692 C2694 1.384 . S
C2693 C2692 1.377 . S
C2693 C2699 1.390 . S
C2694 H2685 0.930 . S
C2694 C2692 1.384 . S
C2694 C2695 1.372 . S
C2695 C2694 1.372 . S
C2695 C2696 1.400 . S
C2695 C2700 1.490 . S
C2696 H2686 0.930 . S
C2696 C2695 1.400 . S
C2696 C2699 1.386 . S
H2697 C2713 0.930 . S
H2698 C2714 0.931 . S
C2699 H2687 0.929 . S
C2699 C2693 1.390 . S
C2699 C2696 1.386 . S
C2700 C2695 1.490 . S
C2700 C2702 1.395 . S
C2700 C2703 1.403 . S
H2701 C2707 0.930 . S
C2702 H2688 0.930 . S
C2702 C2700 1.395 . S
C2702 C2705 1.403 . S
C2703 C2700 1.403 . S
C2703 C2704 1.524 . S
C2703 C2707 1.400 . S
C2704 H2689 0.960 . S
C2704 H2690 0.960 . S
C2704 H2691 0.960 . S
C2704 C2703 1.524 . S
C2705 C2702 1.403 . S
C2705 C2706 1.392 . S
C2705 C2709 1.495 . S
C2706 C2705 1.392 . S
C2706 C2707 1.385 . S
C2706 C2708 1.478 . S
C2707 H2701 0.930 . S
C2707 C2703 1.400 . S
C2707 C2706 1.385 . S
C2708 C2706 1.478 . S
C2708 C2710 1.381 . S
C2708 C2714 1.383 . S
C2709 C2705 1.495 . S
C2709 H2715 0.959 . S
C2709 H2716 0.961 . S
C2709 H2717 0.960 . S
C2710 C2708 1.381 . S
C2710 C2711 1.394 . S
C2710 H2718 0.930 . S
C2711 C2710 1.394 . S
C2711 C2712 1.383 1_554 S
C2711 H2719 0.929 1_554 S
C2712 C2711 1.383 1_556 S
C2712 C2713 1.377 . S
C2713 H2697 0.930 . S
C2713 C2712 1.377 . S
C2713 C2714 1.379 1_556 S
C2714 H2698 0.931 . S
C2714 C2708 1.383 . S
C2714 C2713 1.379 1_554 S
H2715 C2709 0.959 . S
H2716 C2709 0.961 . S
H2717 C2709 0.960 . S
H2718 C2710 0.930 . S
H2719 C2711 0.929 1_556 S
C425 C10 1.440 . S
C444 C56 1.426 . S
C461 C23 1.438 . S
C480 C75 1.455 . S
C497 C82 1.440 . S
C516 C30 1.452 . S
C533 C101 1.439 . S
C552 C49 1.454 . S
C569 C108 1.441 . S
C588 C166 1.440 . S
C605 C121 1.437 . S
C624 C173 1.421 . S
C641 C186 1.438 . S
C660 C140 1.424 . S
C677 C147 1.437 . S
C696 C205 1.421 . S
C713 C264 1.437 . S
C732 C212 1.453 . S
C749 C283 1.441 . S
C768 C231 1.450 . S
C785 C238 1.444 . S
C804 C290 1.435 . S
C821 C309 1.441 . S
C840 C251 1.421 . S
C857 C322 1.443 . S
C876 C374 1.448 . S
C893 C381 1.440 . S
C912 C335 1.434 . S
C929 C400 1.444 . S
C948 C348 1.452 . S
C965 C355 1.443 . S
C984 C407 1.448 . S
C1001 C3 1.697 . S
C1020 C361 1.691 . S
C1037 C114 1.697 . S
C1056 C16 1.691 . S
C1073 C31 1.698 . S
C1092 C329 1.687 . S
C1109 C42 1.699 . S
C1128 C134 1.685 . S
C1145 C387 1.698 . S
C1164 C57 1.685 . S
C1181 C192 1.694 . S
C1200 C68 1.703 . S
C1217 C83 1.695 . S
C1236 C413 1.701 . S
C1253 C94 1.698 . S
C1272 C160 1.693 . S
C1289 C257 1.697 . S
C1308 C109 1.692 . S
C1325 C122 1.698 . S
C1344 C4 1.692 . S
C1361 C225 1.695 . S
C1380 C133 1.685 . S
C1397 C148 1.699 . S
C1416 C36 1.702 . S
C1433 C277 1.694 . S
C1452 C159 1.684 . S
C1469 C174 1.696 . S
C1488 C88 1.683 . S
C1505 C303 1.695 . S
C1524 C187 1.686 . S
C1541 C198 1.699 . S
C1560 C62 1.699 . S
C1577 C153 1.694 . S
C1596 C213 1.700 . S
C1613 C316 1.698 . S
C1632 C224 1.684 . S
C1649 C127 1.697 . S
C1668 C239 1.693 . S
C1685 C252 1.697 . S
C1704 C342 1.690 . S
C1721 C179 1.694 . S
C1740 C265 1.703 . S
C1757 C394 1.695 . S
C1776 C276 1.698 . S
C1793 C199 1.694 . S
C1812 C291 1.702 . S
C1829 C302 1.696 . S
C1848 C368 1.702 . S
C1865 C315 1.698 . S
C1884 C43 1.689 . S
C1901 C328 1.699 . S
C1920 C218 1.695 . S
C1937 C341 1.696 . S
C1956 C17 1.690 . S
C1973 C356 1.696 . S
C1992 C244 1.694 . S
C2009 C367 1.696 . S
C2028 C69 1.683 . S
C2045 C296 1.698 . S
C2064 C382 1.702 . S
C2081 C95 1.694 . S
C2100 C393 1.684 . S
C2117 C408 1.696 . S
C2136 C270 1.683 . S
C2153 C5 0.902 . S
C2172 C96 0.924 . S
C2189 C18 0.898 . S
C2208 C55 0.932 . S
C2225 C29 0.906 . S
C2244 C70 0.872 . S
C2261 C81 0.906 . S
C2280 C44 0.908 . S
C2297 C200 0.904 . S
C2316 C107 0.931 . S
C2333 C161 0.909 . S
C2352 C120 0.900 . S
C2369 C172 0.897 . S
C2388 C135 0.922 . S
C2405 C185 0.901 . S
C2424 C146 0.871 . S
C2441 C211 0.905 . S
C2460 C304 0.911 . S
C2477 C263 0.908 . S
C2496 C226 0.890 . S
C2513 C278 0.896 . S
C2532 C237 0.931 . S
C2549 C289 0.899 . S
C2568 C250 0.932 . S
C2585 C406 0.904 . S
C2604 C317 0.932 . S
C2621 C330 0.907 . S
C2640 C369 0.878 . S
C2657 C343 0.896 . S
C2676 C380 0.913 . S
C2693 C354 0.903 . S
C2712 C395 0.933 . S
