# Generated by pormake.
# Topology svb, (7)-cn, num edge types: 1
# Building blocks:
#     Node 0, Type 0, BuildingBlock: HICVOG_clean_sbu_0, # of connection points: 7
#     Node 1, Type 0, BuildingBlock: HICVOG_clean_sbu_0, # of connection points: 7
#     Node 2, Type 0, BuildingBlock: HICVOG_clean_sbu_0, # of connection points: 7
#     Node 3, Type 0, BuildingBlock: HICVOG_clean_sbu_0, # of connection points: 7
#     Node 4, Type 0, BuildingBlock: HICVOG_clean_sbu_0, # of connection points: 7
#     Node 5, Type 0, BuildingBlock: HICVOG_clean_sbu_0, # of connection points: 7
#     Node 6, Type 0, BuildingBlock: HICVOG_clean_sbu_0, # of connection points: 7
#     Node 7, Type 0, BuildingBlock: HICVOG_clean_sbu_0, # of connection points: 7
#     Node 8, Type 0, BuildingBlock: HICVOG_clean_sbu_0, # of connection points: 7
#     Node 9, Type 0, BuildingBlock: HICVOG_clean_sbu_0, # of connection points: 7
#     Node 10, Type 0, BuildingBlock: HICVOG_clean_sbu_0, # of connection points: 7
#     Node 11, Type 0, BuildingBlock: HICVOG_clean_sbu_0, # of connection points: 7
#     Node 12, Type 0, BuildingBlock: HICVOG_clean_sbu_0, # of connection points: 7
#     Node 13, Type 0, BuildingBlock: HICVOG_clean_sbu_0, # of connection points: 7
#     Node 14, Type 0, BuildingBlock: HICVOG_clean_sbu_0, # of connection points: 7
#     Node 15, Type 0, BuildingBlock: HICVOG_clean_sbu_0, # of connection points: 7
#     Edge 16, Type (0, 0), BuildingBlock: AJUNOK_clean_linker_0, # of connection points: 2
#     Edge 17, Type (0, 0), BuildingBlock: AJUNOK_clean_linker_0, # of connection points: 2
#     Edge 18, Type (0, 0), BuildingBlock: AJUNOK_clean_linker_0, # of connection points: 2
#     Edge 19, Type (0, 0), BuildingBlock: AJUNOK_clean_linker_0, # of connection points: 2
#     Edge 20, Type (0, 0), BuildingBlock: AJUNOK_clean_linker_0, # of connection points: 2
#     Edge 21, Type (0, 0), BuildingBlock: AJUNOK_clean_linker_0, # of connection points: 2
#     Edge 22, Type (0, 0), BuildingBlock: AJUNOK_clean_linker_0, # of connection points: 2
#     Edge 23, Type (0, 0), BuildingBlock: AJUNOK_clean_linker_0, # of connection points: 2
#     Edge 24, Type (0, 0), BuildingBlock: AJUNOK_clean_linker_0, # of connection points: 2
#     Edge 25, Type (0, 0), BuildingBlock: AJUNOK_clean_linker_0, # of connection points: 2
#     Edge 26, Type (0, 0), BuildingBlock: AJUNOK_clean_linker_0, # of connection points: 2
#     Edge 27, Type (0, 0), BuildingBlock: AJUNOK_clean_linker_0, # of connection points: 2
#     Edge 28, Type (0, 0), BuildingBlock: AJUNOK_clean_linker_0, # of connection points: 2
#     Edge 29, Type (0, 0), BuildingBlock: AJUNOK_clean_linker_0, # of connection points: 2
#     Edge 30, Type (0, 0), BuildingBlock: AJUNOK_clean_linker_0, # of connection points: 2
#     Edge 31, Type (0, 0), BuildingBlock: AJUNOK_clean_linker_0, # of connection points: 2
#     Edge 32, Type (0, 0), BuildingBlock: AJUNOK_clean_linker_0, # of connection points: 2
#     Edge 33, Type (0, 0), BuildingBlock: AJUNOK_clean_linker_0, # of connection points: 2
#     Edge 34, Type (0, 0), BuildingBlock: AJUNOK_clean_linker_0, # of connection points: 2
#     Edge 35, Type (0, 0), BuildingBlock: AJUNOK_clean_linker_0, # of connection points: 2
#     Edge 36, Type (0, 0), BuildingBlock: AJUNOK_clean_linker_0, # of connection points: 2
#     Edge 37, Type (0, 0), BuildingBlock: AJUNOK_clean_linker_0, # of connection points: 2
#     Edge 38, Type (0, 0), BuildingBlock: AJUNOK_clean_linker_0, # of connection points: 2
#     Edge 39, Type (0, 0), BuildingBlock: AJUNOK_clean_linker_0, # of connection points: 2
#     Edge 40, Type (0, 0), BuildingBlock: AJUNOK_clean_linker_0, # of connection points: 2
#     Edge 41, Type (0, 0), BuildingBlock: AJUNOK_clean_linker_0, # of connection points: 2
#     Edge 42, Type (0, 0), BuildingBlock: AJUNOK_clean_linker_0, # of connection points: 2
#     Edge 43, Type (0, 0), BuildingBlock: AJUNOK_clean_linker_0, # of connection points: 2
#     Edge 44, Type (0, 0), BuildingBlock: AJUNOK_clean_linker_0, # of connection points: 2
#     Edge 45, Type (0, 0), BuildingBlock: AJUNOK_clean_linker_0, # of connection points: 2
#     Edge 46, Type (0, 0), BuildingBlock: AJUNOK_clean_linker_0, # of connection points: 2
#     Edge 47, Type (0, 0), BuildingBlock: AJUNOK_clean_linker_0, # of connection points: 2
#     Edge 48, Type (0, 0), BuildingBlock: AJUNOK_clean_linker_0, # of connection points: 2
#     Edge 49, Type (0, 0), BuildingBlock: AJUNOK_clean_linker_0, # of connection points: 2
#     Edge 50, Type (0, 0), BuildingBlock: AJUNOK_clean_linker_0, # of connection points: 2
#     Edge 51, Type (0, 0), BuildingBlock: AJUNOK_clean_linker_0, # of connection points: 2
#     Edge 52, Type (0, 0), BuildingBlock: AJUNOK_clean_linker_0, # of connection points: 2
#     Edge 53, Type (0, 0), BuildingBlock: AJUNOK_clean_linker_0, # of connection points: 2
#     Edge 54, Type (0, 0), BuildingBlock: AJUNOK_clean_linker_0, # of connection points: 2
#     Edge 55, Type (0, 0), BuildingBlock: AJUNOK_clean_linker_0, # of connection points: 2
#     Edge 56, Type (0, 0), BuildingBlock: AJUNOK_clean_linker_0, # of connection points: 2
#     Edge 57, Type (0, 0), BuildingBlock: AJUNOK_clean_linker_0, # of connection points: 2
#     Edge 58, Type (0, 0), BuildingBlock: AJUNOK_clean_linker_0, # of connection points: 2
#     Edge 59, Type (0, 0), BuildingBlock: AJUNOK_clean_linker_0, # of connection points: 2
#     Edge 60, Type (0, 0), BuildingBlock: AJUNOK_clean_linker_0, # of connection points: 2
#     Edge 61, Type (0, 0), BuildingBlock: AJUNOK_clean_linker_0, # of connection points: 2
#     Edge 62, Type (0, 0), BuildingBlock: AJUNOK_clean_linker_0, # of connection points: 2
#     Edge 63, Type (0, 0), BuildingBlock: AJUNOK_clean_linker_0, # of connection points: 2
#     Edge 64, Type (0, 0), BuildingBlock: AJUNOK_clean_linker_0, # of connection points: 2
#     Edge 65, Type (0, 0), BuildingBlock: AJUNOK_clean_linker_0, # of connection points: 2
#     Edge 66, Type (0, 0), BuildingBlock: AJUNOK_clean_linker_0, # of connection points: 2
#     Edge 67, Type (0, 0), BuildingBlock: AJUNOK_clean_linker_0, # of connection points: 2
#     Edge 68, Type (0, 0), BuildingBlock: AJUNOK_clean_linker_0, # of connection points: 2
#     Edge 69, Type (0, 0), BuildingBlock: AJUNOK_clean_linker_0, # of connection points: 2
#     Edge 70, Type (0, 0), BuildingBlock: AJUNOK_clean_linker_0, # of connection points: 2
#     Edge 71, Type (0, 0), BuildingBlock: AJUNOK_clean_linker_0, # of connection points: 2
# Relax obj value: 0.384
# Max RMSD: 0.274
# Mean RMSD: 0.255
data_MOF--net-svb--node1-HICVOG_clean_sbu_0--edge1-AJUNOK_clean_linker_0
_symmetry_space_group_name_H-M    P1
_symmetry_Int_Tables_number       1
_symmetry_cell_setting            triclinic
loop_
_symmetry_equiv_pos_as_xyz
'x, y, z'
_cell_length_a     37.21082
_cell_length_b     39.891263
_cell_length_c     20.027062
_cell_angle_alpha  96.951564
_cell_angle_beta   97.593291
_cell_angle_gamma 89.699623
loop_
_atom_site_label
_atom_site_type_symbol
_atom_site_fract_x
_atom_site_fract_y
_atom_site_fract_z
_atom_type_partial_charge
Zn0 Zn 0.11822 0.34465 0.30316 0.0
C1 C 0.1263 0.44631 0.32576 0.0
N2 N 0.11288 0.44132 0.38302 0.0
C3 C 0.10583 0.40831 0.37486 0.0
N4 N 0.11525 0.39333 0.31589 0.0
N5 N 0.12721 0.41705 0.28267 0.0
C6 C 0.19696 0.42457 0.1467 0.0
O7 O 0.2061 0.40429 0.19301 0.0
O8 O 0.06953 0.3253 0.30422 0.0
Zn9 Zn 0.12577 0.40902 0.18115 0.0
N10 N 0.15218 0.33184 0.37827 0.0
C11 C 0.20759 0.34674 0.44932 0.0
C12 C 0.18175 0.35248 0.3952 0.0
C13 C 0.14768 0.30501 0.41293 0.0
N14 N 0.20297 0.32044 0.48438 0.0
C15 C 0.17382 0.29918 0.46799 0.0
O16 O 0.13767 0.36111 0.14614 0.0
C17 C 0.14075 0.33085 0.15968 0.0
O18 O 0.13469 0.32261 0.21647 0.0
H19 H 0.18503 0.37347 0.36694 0.0
H20 H 0.12387 0.28895 0.39875 0.0
C21 C 0.05726 0.39926 0.08359 0.0
C22 C 0.01962 0.40433 0.06596 0.0
C23 C 0.0204 0.44484 0.16329 0.0
C24 C 0.05729 0.43985 0.18032 0.0
N25 N 0.07522 0.41699 0.14126 0.0
N26 N 1.00255 0.42706 0.10693 0.0
H27 H 0.07172 0.38101 0.05294 0.0
C28 C 0.04586 0.33087 0.2552 0.0
O29 O 0.05397 0.35154 0.21296 0.0
O30 O 0.16396 0.43413 0.13747 0.0
H31 H 0.07131 0.45373 0.22541 0.0
H32 H 0.23113 0.36312 0.46359 0.0
H33 H 1.00599 0.46275 0.19472 0.0
Zn34 Zn 0.86875 0.89912 0.41332 0.0
C35 C 0.89211 0.8926 0.22192 0.0
N36 N 0.87955 0.92411 0.22136 0.0
C37 C 0.86328 0.92932 0.27807 0.0
N38 N 0.86659 0.90225 0.31379 0.0
N39 N 0.88317 0.87889 0.27605 0.0
C40 C 0.93801 0.80134 0.31891 0.0
O41 O 0.92878 0.81758 0.375 0.0
O42 O 0.82982 0.92567 0.46357 0.0
Zn43 Zn 0.87389 0.83075 0.26706 0.0
N44 N 0.91889 0.91232 0.45575 0.0
C45 C 0.97462 0.9366 0.43734 0.0
C46 C 0.93873 0.92742 0.41511 0.0
C47 C 0.93441 0.90546 0.51867 0.0
N48 N 0.9899 0.92994 0.49936 0.0
C49 C 0.97132 0.91447 0.54142 0.0
O50 O 0.85283 0.81243 0.34434 0.0
C51 C 0.8526 0.82118 0.40765 0.0
O52 O 0.86019 0.85135 0.43442 0.0
H53 H 0.92703 0.93227 0.36517 0.0
H54 H 0.91821 0.89351 0.55028 0.0
C55 C 0.85084 0.7917 0.13645 0.0
C56 C 0.82963 0.7853 0.0724 0.0
C57 C 0.79333 0.83251 0.10183 0.0
C58 C 0.81433 0.83866 0.16522 0.0
N59 N 0.84281 0.81836 0.18124 0.0
N60 N 0.80156 0.80622 0.05686 0.0
H61 H 0.87414 0.77634 0.14973 0.0
C62 C 0.79623 0.91754 0.44921 0.0
O63 O 0.78627 0.8958 0.39529 0.0
O64 O 0.91973 0.80551 0.26248 0.0
H65 H 0.80849 0.8599 0.20099 0.0
H66 H 0.99041 0.94874 0.40525 0.0
H67 H 0.77086 0.84874 0.08821 0.0
Zn68 Zn 0.4484 0.65113 0.62188 0.0
C69 C 0.34159 0.62312 0.57819 0.0
N70 N 0.34557 0.63859 0.52353 0.0
C71 C 0.37911 0.65177 0.53801 0.0
N72 N 0.39559 0.6441 0.59819 0.0
N73 N 0.37167 0.6273 0.62577 0.0
C74 C 0.35747 0.57289 0.80067 0.0
O75 O 0.38063 0.589 0.84896 0.0
O76 O 0.45886 0.70053 0.63869 0.0
Zn77 Zn 0.37596 0.62752 0.72523 0.0
N78 N 0.47218 0.63086 0.54306 0.0
C79 C 0.46381 0.58873 0.44703 0.0
C80 C 0.45261 0.60459 0.50638 0.0
C81 C 0.50397 0.64114 0.52322 0.0
N82 N 0.49475 0.59919 0.42675 0.0
C83 C 0.51566 0.62475 0.46289 0.0
O84 O 0.42822 0.62081 0.76833 0.0
C85 C 0.46167 0.62237 0.76069 0.0
O86 O 0.47183 0.63232 0.70793 0.0
H87 H 0.42806 0.5961 0.52283 0.0
H88 H 0.51951 0.66193 0.55294 0.0
C89 C 0.35911 0.68384 0.83134 0.0
C90 C 0.34741 0.71723 0.85066 0.0
C91 C 0.33443 0.72487 0.73418 0.0
C92 C 0.34661 0.69261 0.71568 0.0
N93 N 0.35825 0.67218 0.76377 0.0
N94 N 0.33521 0.73633 0.80064 0.0
H95 H 0.36867 0.66744 0.86896 0.0
C96 C 0.45183 0.71674 0.694 0.0
O97 O 0.43587 0.70089 0.73601 0.0
O98 O 0.34866 0.5864 0.74624 0.0
H99 H 0.3465 0.68411 0.66264 0.0
H100 H 0.44802 0.56815 0.41719 0.0
H101 H 0.32484 0.74096 0.69593 0.0
Zn102 Zn 0.63436 0.12841 0.90985 0.0
C103 C 0.62085 0.11568 0.70395 0.0
N104 N 0.62922 0.08343 0.7096 0.0
C105 C 0.64033 0.08341 0.77616 0.0
N106 N 0.6382 0.11463 0.81137 0.0
N107 N 0.62799 0.13499 0.76465 0.0
C108 C 0.55218 0.20333 0.71019 0.0
O109 O 0.56431 0.19926 0.6512 0.0
O110 O 0.67013 0.10443 0.977 0.0
Zn111 Zn 0.62392 0.18419 0.77493 0.0
N112 N 0.58206 0.12936 0.9223 0.0
C113 C 0.52382 0.14046 0.86436 0.0
C114 C 0.56092 0.13676 0.86536 0.0
C115 C 0.56702 0.12703 0.98052 0.0
N116 N 0.50883 0.13738 0.92114 0.0
C117 C 0.52885 0.13089 0.98 0.0
O118 O 0.64363 0.2114 0.86512 0.0
C119 C 0.65255 0.20567 0.92612 0.0
O120 O 0.65027 0.17629 0.94342 0.0
H121 H 0.57277 0.14028 0.82075 0.0
H122 H 0.58471 0.12342 0.02628 0.0
C123 C 0.63863 0.2293 0.67738 0.0
C124 C 0.65648 0.2383 0.6244 0.0
C125 C 0.69566 0.19155 0.63632 0.0
C126 C 0.67739 0.18231 0.68763 0.0
N127 N 0.64884 0.20088 0.70629 0.0
N128 N 0.68466 0.21904 0.60573 0.0
H129 H 0.61636 0.24413 0.69416 0.0
C130 C 0.70013 0.09232 0.96101 0.0
O131 O 0.705 0.0886 0.89682 0.0
O132 O 0.57241 0.1968 0.76291 0.0
H133 H 0.68564 0.16026 0.71205 0.0
H134 H 0.50699 0.14609 0.81887 0.0
H135 H 0.71823 0.17685 0.62047 0.0
Zn136 Zn 0.13261 0.62873 0.41609 0.0
C137 C 0.12061 0.61802 0.21053 0.0
N138 N 0.12927 0.58573 0.21513 0.0
C139 C 0.14038 0.58513 0.28152 0.0
N140 N 0.13792 0.61611 0.31768 0.0
N141 N 0.12773 0.63692 0.27176 0.0
C142 C 0.05902 0.70994 0.32554 0.0
O143 O 0.07664 0.70437 0.38421 0.0
O144 O 0.16889 0.60399 0.48176 0.0
Zn145 Zn 0.12481 0.68631 0.28455 0.0
N146 N 0.07936 0.62808 0.42514 0.0
C147 C 0.02193 0.63359 0.35853 0.0
C148 C 0.05927 0.63139 0.36439 0.0
C149 C 0.06246 0.62796 0.48215 0.0
N150 N 1.00536 0.63309 0.41422 0.0
C151 C 0.02393 0.63079 0.47662 0.0
O152 O 0.14819 0.71191 0.37448 0.0
C153 C 0.15487 0.7056 0.43559 0.0
O154 O 0.14903 0.67655 0.452 0.0
H155 H 0.07198 0.63297 0.32012 0.0
H156 H 0.07864 0.62652 0.53068 0.0
C157 C 0.13776 0.72997 0.18425 0.0
C158 C 0.15656 0.73983 0.13325 0.0
C159 C 0.19782 0.69492 0.14912 0.0
C160 C 0.17921 0.68528 0.19965 0.0
N161 N 0.14934 0.7026 0.21554 0.0
N162 N 0.18608 0.72182 0.1172 0.0
H163 H 0.11408 0.74352 0.19831 0.0
C164 C 0.19995 0.59613 0.46405 0.0
O165 O 0.20475 0.59751 0.40067 0.0
O166 O 0.07354 0.70176 0.27206 0.0
H167 H 0.18823 0.66392 0.22569 0.0
H168 H 1.00613 0.63621 0.31012 0.0
H169 H 0.22143 0.68121 0.13537 0.0
Zn170 Zn 0.6236 0.90766 0.68352 0.0
C171 C 0.60596 0.9081 0.87872 0.0
N172 N 0.61146 0.94134 0.88464 0.0
C173 C 0.6247 0.94594 0.82703 0.0
N174 N 0.62664 0.91633 0.78553 0.0
N175 N 0.61602 0.89273 0.82051 0.0
C176 C 0.54739 0.82983 0.76675 0.0
O177 O 0.55353 0.85104 0.7241 0.0
O178 O 0.65988 0.93376 0.63768 0.0
Zn179 Zn 0.62092 0.8443 0.80835 0.0
N180 N 0.57228 0.9143 0.64587 0.0
C181 C 0.51636 0.93855 0.67219 0.0
C182 C 0.55353 0.93482 0.68795 0.0
C183 C 0.55478 0.89778 0.58643 0.0
N184 N 0.49899 0.92193 0.61409 0.0
C185 C 0.51681 0.90157 0.57013 0.0
O186 O 0.63845 0.82321 0.72213 0.0
C187 C 0.64311 0.83049 0.66387 0.0
O188 O 0.6371 0.86005 0.64768 0.0
H189 H 0.56707 0.94784 0.73443 0.0
H190 H 0.56988 0.88144 0.55329 0.0
C191 C 0.65331 0.80586 0.91674 0.0
C192 C 0.68135 0.79935 0.96812 0.0
C193 C 0.7145 0.84631 0.94446 0.0
C194 C 0.68675 0.85266 0.89399 0.0
N195 N 0.65668 0.83255 0.88127 0.0
N196 N 0.71114 0.81997 0.98017 0.0
H197 H 0.62898 0.79036 0.90571 0.0
C198 C 0.69354 0.92632 0.6472 0.0
O199 O 0.70474 0.90818 0.69631 0.0
O200 O 0.57293 0.82335 0.81184 0.0
H201 H 0.68909 0.87349 0.86486 0.0
H202 H 0.50133 0.95456 0.70599 0.0
H203 H 0.73856 0.86216 0.95524 0.0
Zn204 Zn 0.36863 0.39771 0.8996 0.0
C205 C 0.38785 0.39275 0.70512 0.0
N206 N 0.37733 0.42502 0.70842 0.0
C207 C 0.36222 0.42986 0.76655 0.0
N208 N 0.36433 0.40181 0.79949 0.0
N209 N 0.37866 0.37832 0.75814 0.0
C210 C 0.4339 0.29031 0.77262 0.0
O211 O 0.42571 0.29331 0.83482 0.0
O212 O 0.33109 0.42351 0.95479 0.0
Zn213 Zn 0.3709 0.32996 0.74875 0.0
N214 N 0.41924 0.4108 0.93956 0.0
C215 C 0.47589 0.4309 0.91615 0.0
C216 C 0.43957 0.42286 0.89586 0.0
C217 C 0.43454 0.40624 1.00405 0.0
N218 N 0.49105 0.4261 0.97938 0.0
C219 C 0.472 0.41387 0.02494 0.0
O220 O 0.35599 0.31084 0.83012 0.0
C221 C 0.35588 0.3191 0.89352 0.0
O222 O 0.36177 0.34949 0.92051 0.0
H223 H 0.42792 0.42614 0.845 0.0
H224 H 0.41761 0.39708 0.0379 0.0
C225 C 0.34597 0.29346 0.61747 0.0
C226 C 0.32038 0.28222 0.56112 0.0
C227 C 0.27655 0.31764 0.60877 0.0
C228 C 0.30189 0.32837 0.66502 0.0
N229 N 0.33603 0.31595 0.66865 0.0
N230 N 0.28616 0.29463 0.55854 0.0
H231 H 0.37328 0.28381 0.62103 0.0
C232 C 0.29704 0.41694 0.9436 0.0
O233 O 0.28429 0.39747 0.88793 0.0
O234 O 0.41556 0.30603 0.7288 0.0
H235 H 0.29445 0.34637 0.70566 0.0
H236 H 0.49212 0.44055 0.88156 0.0
H237 H 0.24947 0.32763 0.60516 0.0
Zn238 Zn 0.94852 0.14853 0.11802 0.0
C239 C 0.84111 0.1237 0.07617 0.0
N240 N 0.84478 0.14032 0.0229 0.0
C241 C 0.87863 0.15287 0.03714 0.0
N242 N 0.89542 0.14375 0.09601 0.0
N243 N 0.87145 0.12678 0.12308 0.0
C244 C 0.85589 0.07144 0.29824 0.0
O245 O 0.87657 0.08923 0.34815 0.0
O246 O 0.96087 0.19731 0.13084 0.0
Zn247 Zn 0.87562 0.12521 0.22246 0.0
N248 N 0.97108 0.12658 0.03945 0.0
C249 C 0.96134 0.08374 0.94493 0.0
C250 C 0.95067 0.10055 1.00394 0.0
C251 C 1.00295 0.1359 0.01858 0.0
N252 N 0.9924 0.09323 0.92362 0.0
C253 C 1.014 0.11867 0.95847 0.0
O254 O 0.92792 0.11913 0.26565 0.0
C255 C 0.96137 0.12061 0.25797 0.0
O256 O 0.97154 0.13026 0.20494 0.0
H257 H 0.9259 0.09305 0.02107 0.0
H258 H 0.01897 0.15668 0.04722 0.0
C259 C 0.85975 0.18008 0.33244 0.0
C260 C 0.84495 0.21199 0.35385 0.0
C261 C 0.82214 0.21702 0.23898 0.0
C262 C 0.8375 0.18641 0.21836 0.0
N263 N 0.8556 0.16799 0.26466 0.0
N264 N 0.82636 0.22902 0.30557 0.0
H265 H 0.8741 0.16504 0.36854 0.0
C266 C 0.95479 0.21472 0.18546 0.0
O267 O 0.93973 0.20015 0.23043 0.0
O268 O 0.84936 0.08319 0.24138 0.0
H269 H 0.83526 0.17778 0.16517 0.0
H270 H 0.94498 0.06327 0.91604 0.0
H271 H 0.80746 0.23151 0.20213 0.0
Zn272 Zn 0.90378 0.60709 0.86163 0.0
C273 C 0.9276 0.60187 0.6684 0.0
N274 N 0.92695 0.5685 0.66879 0.0
C275 C 0.91236 0.56431 0.72495 0.0
N276 N 0.90508 0.59457 0.76049 0.0
N277 N 0.91291 0.61801 0.72194 0.0
C278 C 0.97619 0.69063 0.73755 0.0
O279 O 0.98802 0.66019 0.7457 0.0
O280 O 0.87465 0.57724 0.91459 0.0
Zn281 Zn 0.89985 0.66662 0.73035 0.0
N282 N 0.95279 0.62367 0.90597 0.0
C283 C 0.98824 0.67316 0.90471 0.0
C284 C 0.9588 0.6523 0.87855 0.0
C285 C 0.97641 0.61465 0.95944 0.0
N286 N 1.01149 0.66446 0.95713 0.0
C287 C 1.00716 0.63588 0.98603 0.0
O288 O 0.87827 0.68733 0.81414 0.0
C289 C 0.86947 0.67875 0.86889 0.0
O290 O 0.87652 0.64951 0.88515 0.0
H291 H 0.94001 0.65942 0.83725 0.0
H292 H 0.9712 0.59175 0.98045 0.0
C293 C 0.86586 0.70476 0.62622 0.0
C294 C 0.83919 0.71127 0.57268 0.0
C295 C 0.80836 0.66078 0.58516 0.0
C296 C 0.83502 0.65429 0.63758 0.0
N297 N 0.86342 0.67612 0.65654 0.0
N298 N 0.81126 0.68879 0.55378 0.0
H299 H 0.88908 0.72139 0.64185 0.0
C300 C 0.84016 0.58057 0.90268 0.0
O301 O 0.8271 0.5952 0.84937 0.0
O302 O 0.94242 0.69597 0.72742 0.0
H303 H 0.8333 0.63199 0.66287 0.0
H304 H 0.99246 0.69644 0.88429 0.0
H305 H 0.78566 0.64356 0.56904 0.0
Zn306 Zn 0.16108 0.10926 0.62502 0.0
C307 C 0.14046 0.11096 0.81861 0.0
N308 N 0.15252 0.07915 0.81438 0.0
C309 C 0.16807 0.07593 0.75666 0.0
N310 N 0.1648 0.1043 0.72486 0.0
N311 N 0.14891 0.12638 0.76635 0.0
C312 C 0.08235 0.1998 0.73038 0.0
O313 O 0.09157 0.18953 0.67028 0.0
O314 O 0.20074 0.0838 0.57498 0.0
Zn315 Zn 0.15014 0.17442 0.77276 0.0
N316 N 0.11055 0.09605 0.58357 0.0
C317 C 0.05355 0.07698 0.60784 0.0
C318 C 0.08978 0.0854 0.62817 0.0
C319 C 0.09529 0.09993 0.51863 0.0
N320 N 0.03868 0.08035 0.54374 0.0
C321 C 0.05804 0.09161 0.49769 0.0
O322 O 0.16505 0.19493 0.69383 0.0
C323 C 0.16922 0.18788 0.63182 0.0
O324 O 0.16714 0.15751 0.6033 0.0
H325 H 0.10097 0.08353 0.67986 0.0
H326 H 0.11171 0.10945 0.48418 0.0
C327 C 0.16756 0.21431 0.90192 0.0
C328 C 0.19073 0.2302 0.95772 0.0
C329 C 0.24066 0.20169 0.91509 0.0
C330 C 0.21754 0.1861 0.85956 0.0
N331 N 0.18154 0.1929 0.85379 0.0
N332 N 0.22685 0.22358 0.96239 0.0
H333 H 0.13892 0.21988 0.89557 0.0
C334 C 0.23384 0.09347 0.59087 0.0
O335 O 0.24182 0.1163 0.64377 0.0
O336 O 0.1019 0.19255 0.78308 0.0
H337 H 0.2282 0.16922 0.82063 0.0
H338 H 0.03713 0.06823 0.64312 0.0
H339 H 0.26945 0.19682 0.92006 0.0
Zn340 Zn 0.5814 0.35957 0.40689 0.0
C341 C 0.68792 0.38726 0.4555 0.0
N342 N 0.68322 0.37144 0.50937 0.0
C343 C 0.64971 0.35828 0.49328 0.0
N344 N 0.63402 0.36629 0.43279 0.0
N345 N 0.6584 0.38315 0.40657 0.0
C346 C 0.67531 0.43812 0.233 0.0
O347 O 0.65399 0.42116 0.18285 0.0
O348 O 0.57064 0.31035 0.38305 0.0
Zn349 Zn 0.65435 0.38457 0.30727 0.0
N350 N 0.55699 0.37862 0.48557 0.0
C351 C 0.5639 0.42177 0.57982 0.0
C352 C 0.57566 0.40568 0.52123 0.0
C353 C 0.52562 0.36759 0.5058 0.0
N354 N 0.53337 0.41065 0.60047 0.0
C355 C 0.51345 0.38415 0.56549 0.0
O356 O 0.60237 0.39105 0.26234 0.0
C357 C 0.56889 0.38979 0.26989 0.0
O358 O 0.55869 0.38013 0.32285 0.0
H359 H 0.59984 0.41472 0.50431 0.0
H360 H 0.51074 0.34621 0.4768 0.0
C361 C 0.66719 0.32901 0.19785 0.0
C362 C 0.68111 0.29688 0.1758 0.0
C363 C 0.7069 0.29241 0.28941 0.0
C364 C 0.69247 0.32336 0.31082 0.0
N365 N 0.67338 0.34157 0.26529 0.0
N366 N 0.7008 0.27997 0.22304 0.0
H367 H 0.6519 0.34384 0.16245 0.0
C368 C 0.57637 0.29752 0.32416 0.0
O369 O 0.59152 0.31602 0.28542 0.0
O370 O 0.68171 0.42579 0.28918 0.0
H371 H 0.69606 0.33243 0.364 0.0
H372 H 0.57891 0.44309 0.60873 0.0
H373 H 0.72235 0.278 0.32551 0.0
Zn374 Zn 0.40218 0.8224 0.25274 0.0
C375 C 0.39911 0.92459 0.26088 0.0
N376 N 0.41069 0.92228 0.3265 0.0
C377 C 0.41665 0.88934 0.3286 0.0
N378 N 0.40818 0.87175 0.26625 0.0
N379 N 0.39873 0.89386 0.22226 0.0
C380 C 0.33188 0.91893 0.07644 0.0
O381 O 0.32686 0.91852 0.14002 0.0
O382 O 0.44852 0.79895 0.26257 0.0
Zn383 Zn 0.39575 0.88083 0.12083 0.0
N384 N 0.37626 0.80816 0.32196 0.0
C385 C 0.3281 0.81493 0.38931 0.0
C386 C 0.34617 0.82497 0.33815 0.0
C387 C 0.38846 0.781 0.3533 0.0
N388 N 0.34051 0.78811 0.42115 0.0
C389 C 0.37013 0.77053 0.40417 0.0
O390 O 0.3699 0.83596 0.08679 0.0
C391 C 0.36602 0.80653 0.10321 0.0
O392 O 0.37755 0.79949 0.16239 0.0
H393 H 0.33678 0.84632 0.31236 0.0
H394 H 0.41231 0.76786 0.3391 0.0
C395 C 0.46731 0.88318 0.05582 0.0
C396 C 0.49967 0.86594 0.04165 0.0
C397 C 0.48389 0.82184 0.10191 0.0
C398 C 0.45321 0.83923 0.11787 0.0
N399 N 0.44483 0.8693 0.09463 0.0
N400 N 0.50636 0.83563 0.06492 0.0
H401 H 0.46033 0.90688 0.03648 0.0
C402 C 0.4808 0.80908 0.26532 0.0
O403 O 0.48791 0.84114 0.26413 0.0
O404 O 0.3624 0.90922 0.05889 0.0
H405 H 0.43568 0.82853 0.14838 0.0
H406 H 0.30442 0.82833 0.40365 0.0
H407 H 0.48991 0.79746 0.11871 0.0
Zn408 Zn 0.90698 0.32188 0.7523 0.0
C409 C 0.90125 0.42364 0.75604 0.0
N410 N 0.91418 0.42211 0.8214 0.0
C411 C 0.92041 0.38928 0.82427 0.0
N412 N 0.91113 0.37111 0.76283 0.0
N413 N 0.90039 0.39265 0.71834 0.0
C414 C 0.82936 0.41473 0.57393 0.0
O415 O 0.82442 0.41256 0.63698 0.0
O416 O 0.95453 0.3008 0.77021 0.0
Zn417 Zn 0.89514 0.3786 0.61712 0.0
N418 N 0.8798 0.3086 0.82046 0.0
C419 C 0.83049 0.31706 0.88459 0.0
C420 C 0.84972 0.32611 0.8342 0.0
C421 C 0.891 0.28174 0.85365 0.0
N422 N 0.84194 0.29063 0.91844 0.0
C423 C 0.87172 0.27249 0.90435 0.0
O424 O 0.86973 0.33297 0.58687 0.0
C425 C 0.86928 0.30332 0.6041 0.0
O426 O 0.88363 0.29702 0.66237 0.0
H427 H 0.84116 0.3472 0.80691 0.0
H428 H 0.91484 0.26799 0.8412 0.0
C429 C 0.96548 0.38248 0.54864 0.0
C430 C 0.99793 0.3659 0.53307 0.0
C431 C 0.98345 0.3207 0.59153 0.0
C432 C 0.95313 0.33779 0.61012 0.0
N433 N 0.94376 0.36786 0.58777 0.0
N434 N 1.0053 0.33527 0.55448 0.0
H435 H 0.95803 0.40637 0.53054 0.0
C436 C 0.98622 0.31098 0.7663 0.0
O437 O 0.99135 0.34131 0.75007 0.0
O438 O 0.86012 0.40625 0.55573 0.0
H439 H 0.93704 0.32702 0.64284 0.0
H440 H 0.8067 0.33094 0.89685 0.0
H441 H 0.98996 0.29621 0.60755 0.0
Zn442 Zn 0.40703 0.16689 0.22672 0.0
C443 C 0.41514 0.06483 0.22982 0.0
N444 N 0.4308 0.06765 0.17417 0.0
C445 C 0.43291 0.10084 0.17226 0.0
N446 N 0.41753 0.11815 0.22354 0.0
N447 N 0.40799 0.09578 0.26278 0.0
C448 C 0.34001 0.08049 0.39882 0.0
O449 O 0.32625 0.09064 0.34089 0.0
O450 O 0.4536 0.19219 0.22604 0.0
Zn451 Zn 0.40256 0.1112 0.36058 0.0
N452 N 0.37436 0.17428 0.14535 0.0
C453 C 0.32486 0.15352 0.06343 0.0
C454 C 0.34911 0.14981 0.12123 0.0
C455 C 0.37598 0.20284 0.1144 0.0
N456 N 0.32667 0.18168 0.03214 0.0
C457 C 0.35136 0.20681 0.05597 0.0
O458 O 0.37072 0.15238 0.37308 0.0
C459 C 0.36647 0.18161 0.35431 0.0
O460 O 0.38085 0.18985 0.30421 0.0
H461 H 0.34797 0.1275 0.14671 0.0
H462 H 0.39669 0.2217 0.13419 0.0
C463 C 0.4745 0.11821 0.45972 0.0
C464 C 0.50476 0.13912 0.48997 0.0
C465 C 0.48297 0.18181 0.4231 0.0
C466 C 0.45478 0.16074 0.39121 0.0
N467 N 0.44999 0.12974 0.41037 0.0
N468 N 0.50745 0.17042 0.47077 0.0
H469 H 0.47079 0.09342 0.47467 0.0
C470 C 0.48541 0.182 0.24451 0.0
O471 O 0.49 0.15251 0.26702 0.0
O472 O 0.37456 0.08109 0.41397 0.0
H473 H 0.43696 0.16905 0.35034 0.0
H474 H 0.30478 0.13412 0.04338 0.0
H475 H 0.48582 0.2069 0.40902 0.0
Zn476 Zn 0.66136 0.61049 0.12733 0.0
C477 C 0.64122 0.61647 0.3223 0.0
N478 N 0.65413 0.58504 0.3215 0.0
C479 C 0.66882 0.58013 0.26288 0.0
N480 N 0.66415 0.60722 0.22739 0.0
N481 N 0.64827 0.63021 0.26707 0.0
C482 C 0.58631 0.70513 0.23225 0.0
O483 O 0.59039 0.68925 0.17241 0.0
O484 O 0.70135 0.58439 0.07862 0.0
Zn485 Zn 0.6542 0.67814 0.2738 0.0
N486 N 0.61133 0.59614 0.08503 0.0
C487 C 0.55598 0.57203 0.10589 0.0
C488 C 0.59177 0.58186 0.12724 0.0
C489 C 0.59547 0.60174 0.02141 0.0
N490 N 0.5405 0.57722 0.04308 0.0
C491 C 0.55876 0.59172 0.99926 0.0
O492 O 0.67102 0.69692 0.19502 0.0
C493 C 0.67311 0.68881 0.13236 0.0
O494 O 0.66804 0.65847 0.10442 0.0
H495 H 0.60362 0.57816 0.17779 0.0
H496 H 0.61107 0.61372 0.98881 0.0
C497 C 0.67345 0.71825 0.40191 0.0
C498 C 0.69506 0.72852 0.46398 0.0
C499 C 0.74003 0.68967 0.43114 0.0
C500 C 0.71834 0.67951 0.3699 0.0
N501 N 0.68548 0.69389 0.35657 0.0
N502 N 0.72794 0.71372 0.47682 0.0
H503 H 0.64688 0.72887 0.3906 0.0
C504 C 0.73524 0.59046 0.09655 0.0
O505 O 0.74517 0.61041 0.15308 0.0
O506 O 0.60858 0.70088 0.28368 0.0
H507 H 0.72733 0.66004 0.33352 0.0
H508 H 0.54042 0.56057 0.13928 0.0
H509 H 0.76612 0.67821 0.44226 0.0
Zn510 Zn 0.0836 0.86384 0.9237 0.0
C511 C 0.19125 0.8874 0.96069 0.0
N512 N 0.18762 0.87159 1.01514 0.0
C513 C 0.15355 0.85958 1.00222 0.0
N514 N 0.13665 0.86827 0.94322 0.0
N515 N 0.1606 0.8843 0.91436 0.0
C516 C 0.20334 0.94121 0.77914 0.0
O517 O 0.23472 0.92999 0.80511 0.0
O518 O 0.06937 0.81595 0.90475 0.0
Zn519 Zn 0.15447 0.88324 0.81383 0.0
N520 N 0.06184 0.88373 1.00463 0.0
C521 C 0.07172 0.9243 0.10295 0.0
C522 C 0.08207 0.90933 0.04212 0.0
C523 C 0.03048 0.87303 0.02531 0.0
N524 N 0.04117 0.91341 0.12406 0.0
C525 C 0.01985 0.88825 0.08738 0.0
O526 O 0.10155 0.88658 0.77203 0.0
C527 C 0.06844 0.88747 0.78233 0.0
O528 O 0.05897 0.88241 0.83912 0.0
H529 H 0.10647 0.91787 0.02516 0.0
H530 H 0.01455 0.85266 0.99497 0.0
C531 C 0.17 0.8278 0.70586 0.0
C532 C 0.18638 0.79678 0.68436 0.0
C533 C 0.21207 0.79347 0.79835 0.0
C534 C 0.19557 0.82352 0.81917 0.0
N535 N 0.17547 0.84076 0.77313 0.0
N536 N 0.20704 0.78087 0.73197 0.0
H537 H 0.15321 0.84129 0.66988 0.0
C538 C 0.07474 0.80012 0.84812 0.0
O539 O 0.09592 0.81333 0.81051 0.0
O540 O 0.17429 0.92529 0.78282 0.0
H541 H 0.19843 0.83265 0.87229 0.0
H542 H 0.08791 0.94445 0.13338 0.0
H543 H 0.2283 0.77988 0.83492 0.0
C544 C 0.98038 0.26189 0.2706 0.0
C545 C 0.96974 0.24923 0.20232 0.0
C546 C 1.00261 0.2906 0.28775 0.0
C547 C 0.0144 0.3078 0.23719 0.0
H548 H 0.97395 0.24813 0.31102 0.0
H549 H 1.01254 0.29806 0.3408 0.0
S550 S 0.98692 0.28907 0.05133 0.0
N551 N 0.96748 0.25899 0.08426 0.0
N552 N 1.00879 0.31342 0.11644 0.0
C553 C 1.0004 0.29769 0.16901 0.0
C554 C 0.9782 0.26815 0.15154 0.0
C555 C 1.01322 0.7449 0.26406 0.0
C556 C 0.02589 0.73039 0.32328 0.0
C557 C 0.98471 0.76784 0.26313 0.0
C558 C 0.96795 0.77715 0.3214 0.0
H559 H 0.02605 0.73932 0.21853 0.0
H560 H 0.97626 0.77886 0.21678 0.0
S561 S 0.9882 0.74358 0.48715 0.0
N562 N 0.0175 0.72489 0.44012 0.0
N563 N 0.964 0.76823 0.43835 0.0
C564 C 0.97945 0.76199 0.38029 0.0
C565 C 1.00835 0.73847 0.38116 0.0
C566 C 0.50063 0.79793 0.68375 0.0
C567 C 0.51537 0.80734 0.75172 0.0
C568 C 0.47749 0.76987 0.66583 0.0
C569 C 0.46784 0.75071 0.71538 0.0
H570 H 0.50931 0.81051 0.64348 0.0
H571 H 0.46884 0.76195 0.61244 0.0
S572 S 0.49234 0.77026 0.90188 0.0
N573 N 0.51403 0.7992 0.86966 0.0
N574 N 0.46974 0.74675 0.8363 0.0
C575 C 0.47895 0.76235 0.78418 0.0
C576 C 0.50301 0.79064 0.8023 0.0
C577 C 0.47905 0.24656 0.79995 0.0
C578 C 0.4625 0.26705 0.7528 0.0
C579 C 0.50652 0.22449 0.78375 0.0
C580 C 0.51874 0.22209 0.7198 0.0
H581 H 0.47114 0.24776 0.85034 0.0
H582 H 0.51909 0.21006 0.82283 0.0
S583 S 0.48251 0.26861 0.57617 0.0
N584 N 0.45869 0.28229 0.63774 0.0
N585 N 0.51082 0.24066 0.60739 0.0
C586 C 0.50145 0.24136 0.6709 0.0
C587 C 0.4733 0.26399 0.68747 0.0
C588 C 0.038 0.71692 0.75418 0.0
C589 C 1.00071 0.71982 0.75906 0.0
C590 C 0.06219 0.74333 0.78211 0.0
C591 C 0.04978 0.77266 0.81767 0.0
H592 H 0.04852 0.69402 0.7293 0.0
H593 H 0.09077 0.74045 0.77757 0.0
S594 S 0.95481 0.79335 0.84256 0.0
N595 N 0.9525 0.75531 0.79949 0.0
N596 N 0.99812 0.80407 0.85371 0.0
C597 C 1.0126 0.77612 0.82185 0.0
C598 C 0.98796 0.74989 0.79197 0.0
C599 C 0.0314 0.22741 0.7814 0.0
C600 C 0.05818 0.22824 0.73876 0.0
C601 C 1.0096 0.25543 0.79358 0.0
C602 C 0.01461 0.28535 0.76483 0.0
H603 H 0.02692 0.20481 0.8044 0.0
H604 H 0.98805 0.25332 0.82437 0.0
S605 S 0.08613 0.30145 0.65974 0.0
N606 N 0.09166 0.26172 0.67379 0.0
N607 N 0.05178 0.31533 0.69942 0.0
C608 C 0.04333 0.28719 0.72642 0.0
C609 C 0.06476 0.25826 0.71233 0.0
C610 C 0.53916 0.20943 0.31625 0.0
C611 C 0.51551 0.20649 0.25503 0.0
C612 C 0.56024 0.23862 0.33751 0.0
C613 C 0.56023 0.26452 0.2959 0.0
H614 H 0.53926 0.19043 0.35047 0.0
H615 H 0.57539 0.24155 0.38793 0.0
S616 S 0.51008 0.26447 0.12306 0.0
N617 N 0.49718 0.22912 0.14863 0.0
N618 N 0.53953 0.28276 0.18569 0.0
C619 C 0.54029 0.25979 0.23073 0.0
C620 C 0.51735 0.2309 0.21073 0.0
C621 C 0.52387 0.72625 0.21214 0.0
C622 C 0.56018 0.73215 0.23884 0.0
C623 C 0.49832 0.75142 0.22186 0.0
C624 C 0.50861 0.78346 0.25695 0.0
H625 H 0.51507 0.70187 0.18513 0.0
H626 H 0.47033 0.74582 0.20098 0.0
S627 S 0.60126 0.8117 0.33238 0.0
N628 N 0.60592 0.77213 0.29954 0.0
N629 N 0.55767 0.82 0.3161 0.0
C630 C 0.5451 0.78991 0.28208 0.0
C631 C 0.57101 0.76403 0.27346 0.0
C632 C 0.23492 0.42807 0.97917 0.0
C633 C 0.27274 0.42557 0.99735 0.0
C634 C 0.21068 0.43051 0.02821 0.0
C635 C 0.22309 0.42974 0.09762 0.0
H636 H 0.22377 0.42698 0.92617 0.0
H637 H 0.18185 0.43089 1.01099 0.0
S638 S 0.31951 0.42527 0.17292 0.0
N639 N 0.32136 0.42445 0.09081 0.0
N640 N 0.2761 0.4281 0.18217 0.0
C641 C 0.26092 0.42861 0.11675 0.0
C642 C 0.28562 0.4268 0.067 0.0
C643 C 0.86541 0.98384 0.35549 0.0
C644 C 0.84888 0.96324 0.29793 0.0
C645 C 0.86472 0.01932 0.35819 0.0
C646 C 0.84754 0.0353 0.30336 0.0
H647 H 0.88175 0.97275 0.39569 0.0
H648 H 0.88027 0.03408 0.4012 0.0
S649 S 0.79243 0.99218 0.14925 0.0
N650 N 0.80906 0.96117 0.19125 0.0
N651 N 0.80748 0.02742 0.19627 0.0
C652 C 0.82699 0.01487 0.24983 0.0
C653 C 0.82768 0.97895 0.24729 0.0
C654 C 0.26176 0.57314 0.49545 0.0
C655 C 0.23308 0.59372 0.51454 0.0
C656 C 0.29752 0.57866 0.528 0.0
C657 C 0.30651 0.60556 0.57997 0.0
H658 H 0.25716 0.55459 0.45089 0.0
H659 H 0.31899 0.56461 0.50596 0.0
S660 S 0.24023 0.6619 0.65919 0.0
N661 N 0.21509 0.63803 0.59744 0.0
N662 N 0.28233 0.6489 0.65696 0.0
C663 C 0.27741 0.62343 0.60517 0.0
C664 C 0.24072 0.61747 0.57273 0.0
C665 C 0.65963 0.99148 0.78614 0.0
C666 C 0.62858 0.98077 0.81074 0.0
C667 C 0.66536 0.02595 0.78156 0.0
C668 C 0.64078 0.05076 0.80311 0.0
H669 H 0.67969 0.97331 0.77128 0.0
H670 H 0.68859 0.03322 0.75894 0.0
S671 S 0.55411 0.03536 0.86653 0.0
N672 N 0.57206 0.9976 0.85377 0.0
N673 N 0.58346 0.0618 0.84564 0.0
C674 C 0.60988 0.04024 0.82788 0.0
C675 C 0.60364 1.0054 0.83151 0.0
C676 C 0.77727 0.57255 0.93176 0.0
C677 C 0.81498 0.57518 0.9533 0.0
C678 C 0.75176 0.57505 0.97829 0.0
C679 C 0.76266 0.58086 0.04882 0.0
H680 H 0.76718 0.57002 0.8781 0.0
H681 H 0.72321 0.57445 0.95849 0.0
S682 S 0.85815 0.58543 0.13263 0.0
N683 N 0.86184 0.58047 0.05073 0.0
N684 N 0.81422 0.58567 0.13797 0.0
C685 C 0.80034 0.58141 0.07123 0.0
C686 C 0.82635 0.57838 0.02369 0.0
C687 C 0.22487 1.00104 0.78182 0.0
C688 C 0.2003 0.97482 0.75379 0.0
C689 C 0.21692 0.03481 0.77235 0.0
C690 C 0.18445 0.04347 0.73396 0.0
H691 H 0.24863 0.99595 0.81643 0.0
H692 H 0.23438 0.05454 0.80143 0.0
S693 S 0.11546 0.98344 0.637 0.0
N694 N 0.1454 0.95922 0.67605 0.0
N695 N 0.13079 0.02251 0.65888 0.0
C696 C 0.16207 0.0171 0.69907 0.0
C697 C 0.16989 0.9828 0.70893 0.0
C698 C 0.75291 0.3841 0.43615 0.0
C699 C 0.72355 0.40408 0.45478 0.0
C700 C 0.78865 0.39039 0.46911 0.0
C701 C 0.7964 0.41659 0.52294 0.0
H702 H 0.74798 0.36115 0.40168 0.0
H703 H 0.80941 0.37227 0.45753 0.0
S704 S 0.73098 0.48005 0.58252 0.0
N705 N 0.70631 0.45448 0.52303 0.0
N706 N 0.77282 0.46567 0.58599 0.0
C707 C 0.76822 0.43892 0.53666 0.0
C708 C 0.7321 0.43292 0.50211 0.0
C709 C 0.37186 0.98134 0.25017 0.0
C710 C 0.40016 0.95847 0.2386 0.0
C711 C 0.37707 0.01668 0.25377 0.0
C712 C 0.41132 0.03041 0.24942 0.0
H713 H 0.34571 0.97185 0.25801 0.0
H714 H 0.35407 0.03317 0.25812 0.0
S715 S 0.49516 0.98152 0.22703 0.0
N716 N 0.46378 0.95237 0.22645 0.0
N717 N 0.47435 0.01808 0.23709 0.0
C718 C 0.43998 0.00765 0.24055 0.0
C719 C 0.43425 0.97201 0.23406 0.0
C720 C 0.78143 0.93142 0.56906 0.0
C721 C 0.7697 0.92674 0.49868 0.0
C722 C 0.7565 0.9333 0.61676 0.0
C723 C 0.71868 0.93142 0.59644 0.0
H724 H 0.81013 0.93155 0.5876 0.0
H725 H 0.76704 0.93495 0.67014 0.0
S726 S 0.67366 0.92238 0.4183 0.0
N727 N 0.71739 0.92246 0.41131 0.0
N728 N 0.6709 0.92682 0.50053 0.0
C729 C 0.70658 0.92892 0.52633 0.0
C730 C 0.73194 0.92633 0.47772 0.0
C731 C 0.36798 0.48328 0.8478 0.0
C732 C 0.34962 0.46404 0.79016 0.0
C733 C 0.36764 0.51888 0.85415 0.0
C734 C 0.34907 0.53642 0.80289 0.0
H735 H 0.38529 0.47106 0.8851 0.0
H736 H 0.38439 0.53258 0.89701 0.0
S737 S 0.28993 0.49708 0.64999 0.0
N738 N 0.30734 0.46481 0.68717 0.0
N739 N 0.30639 0.53127 0.69903 0.0
C740 C 0.32711 0.51726 0.74935 0.0
C741 C 0.32748 0.4812 0.74309 0.0
C742 C 0.74058 0.12108 0.06165 0.0
C743 C 0.73299 0.09265 1.01285 0.0
C744 C 0.77621 0.12852 0.09369 0.0
C745 C 0.80558 0.10749 0.07948 0.0
H746 H 0.71983 0.13978 0.06932 0.0
H747 H 0.78111 0.15293 0.12323 0.0
S748 S 0.79852 0.02624 0.96705 0.0
N749 N 0.75667 0.0407 0.96012 0.0
N750 N 0.8231 0.05422 0.02169 0.0
C751 C 0.79722 0.07679 0.0379 0.0
C752 C 0.76117 0.06955 1.00408 0.0
C753 C 0.16665 0.52794 0.28609 0.0
C754 C 0.14121 0.55205 0.30715 0.0
C755 C 0.16145 0.49314 0.28875 0.0
C756 C 0.13008 0.48143 0.31086 0.0
H757 H 0.19015 0.536 0.26526 0.0
H758 H 0.18207 0.4755 0.2742 0.0
S759 S 0.05337 0.53376 0.36362 0.0
N760 N 0.08276 0.56112 0.3461 0.0
N761 N 0.07233 0.49651 0.35047 0.0
C762 C 0.1043 0.50532 0.33088 0.0
C763 C 0.11 0.54041 0.32925 0.0
C764 C 0.27771 0.07015 0.42925 0.0
C765 C 0.31497 0.07686 0.4506 0.0
C766 C 0.25193 0.0733 0.47533 0.0
C767 C 0.26208 0.08391 0.54494 0.0
H768 H 0.26808 0.06368 0.37581 0.0
H769 H 0.22358 0.06922 0.45548 0.0
S770 S 0.35644 0.10203 0.62851 0.0
N771 N 0.3608 0.09229 0.5475 0.0
N772 N 0.31271 0.09863 0.63359 0.0
C773 C 0.29948 0.08905 0.56751 0.0
C774 C 0.32578 0.08539 0.52066 0.0
C775 C 0.66663 0.49127 0.17671 0.0
C776 C 0.6841 0.47429 0.2298 0.0
C777 C 0.66612 0.52681 0.18202 0.0
C778 C 0.68284 0.54639 0.24075 0.0
H779 H 0.6507 0.47723 0.13321 0.0
H780 H 0.64973 0.53867 0.14301 0.0
S781 S 0.74016 0.51476 0.38543 0.0
N782 N 0.72487 0.48024 0.33614 0.0
N783 N 0.72327 0.54663 0.34635 0.0
C784 C 0.70433 0.52979 0.28956 0.0
C785 C 0.70505 0.49381 0.28418 0.0
C786 C 0.25607 0.88427 0.94147 0.0
C787 C 0.22641 0.90441 0.95778 0.0
C788 C 0.29168 0.89173 0.97381 0.0
C789 C 0.29896 0.91925 0.02494 0.0
H790 H 0.2515 0.86043 0.90967 0.0
H791 H 0.31273 0.87357 0.96431 0.0
S792 S 0.23241 0.98318 0.07782 0.0
N793 N 0.20821 0.95605 0.02068 0.0
N794 N 0.27451 0.9694 0.08293 0.0
C795 C 0.27041 0.94156 0.03619 0.0
C796 C 0.23442 0.93439 1.00201 0.0
C797 C 0.93687 0.50676 0.72695 0.0
C798 C 0.90876 0.52931 0.74148 0.0
C799 C 0.93232 0.47165 0.72235 0.0
C800 C 0.89946 0.45726 0.73241 0.0
H801 H 0.96272 0.51641 0.71774 0.0
H802 H 0.95543 0.45569 0.71454 0.0
S803 S 0.81673 0.50436 0.76958 0.0
N804 N 0.846 0.5342 0.7616 0.0
N805 N 0.83831 0.46817 0.75879 0.0
C806 C 0.87107 0.47933 0.74714 0.0
C807 C 0.87547 0.51527 0.75035 0.0
C808 C 0.19382 0.2873 0.02509 0.0
C809 C 0.17705 0.25529 1.00907 0.0
C810 C 0.18146 0.31179 0.07302 0.0
C811 C 0.15263 0.30476 0.10828 0.0
H812 H 0.21637 0.29364 0.99965 0.0
H813 H 0.19499 0.33622 0.08343 0.0
S814 S 0.09969 0.22471 0.08541 0.0
N815 N 0.12987 0.21795 0.03183 0.0
N816 N 0.10744 0.26358 0.1236 0.0
C817 C 0.13583 0.27275 0.09325 0.0
C818 C 0.14782 0.2481 0.04317 0.0
C819 C 0.95165 0.88359 0.07994 0.0
C820 C 0.98632 0.87894 0.11517 0.0
C821 C 0.92037 0.88497 0.11341 0.0
C822 C 0.92244 0.88106 0.18293 0.0
H823 H 0.949 0.88896 0.02778 0.0
H824 H 0.89469 0.89118 0.08569 0.0
S825 S 1.00657 0.86636 0.29684 0.0
N826 N 0.02041 0.86848 0.22244 0.0
N827 N 0.9622 0.87125 0.28472 0.0
C828 C 0.95666 0.87426 0.21731 0.0
C829 C 0.98839 0.87316 0.18358 0.0
C830 C 0.38696 0.71349 0.54262 0.0
C831 C 0.38873 0.68127 0.50601 0.0
C832 C 0.38311 0.74256 0.50944 0.0
C833 C 0.38133 0.74049 0.4385 0.0
H834 H 0.38534 0.71604 0.59658 0.0
H835 H 0.37972 0.76665 0.53918 0.0
S836 S 0.38768 0.6622 0.32026 0.0
N837 N 0.39042 0.64904 0.39587 0.0
N838 N 0.38416 0.70372 0.33317 0.0
C839 C 0.3856 0.70864 0.40179 0.0
C840 C 0.38896 0.67899 0.43566 0.0
C841 C 0.5703 0.13891 0.53836 0.0
C842 C 0.53405 0.12959 0.54225 0.0
C843 C 0.59845 0.13522 0.59121 0.0
C844 C 0.59123 0.12285 0.6507 0.0
H845 H 0.57692 0.14957 0.49418 0.0
H846 H 0.62587 0.14214 0.58547 0.0
S847 S 0.50193 0.09316 0.68565 0.0
N848 N 0.49315 0.10646 0.61028 0.0
N849 N 0.54593 0.099 0.70883 0.0
C850 C 0.55543 0.11259 0.65458 0.0
C851 C 0.52685 0.11614 0.60069 0.0
C852 C 0.14587 0.77764 0.57474 0.0
C853 C 0.18049 0.77919 0.61335 0.0
C854 C 0.13836 0.75514 0.51453 0.0
C855 C 0.16512 0.73341 0.49081 0.0
H856 H 0.12383 0.79226 0.5932 0.0
H857 H 0.1109 0.75346 0.48835 0.0
S858 S 0.26114 0.73076 0.56687 0.0
N859 N 0.24277 0.75941 0.61837 0.0
N860 N 0.2281 0.71692 0.50657 0.0
C861 C 0.20016 0.736 0.5265 0.0
C862 C 0.20798 0.75898 0.58729 0.0
C863 C 0.51631 0.89109 0.93969 0.0
C864 C 0.52691 0.87833 1.00168 0.0
C865 C 0.54223 0.89885 0.89839 0.0
C866 C 0.5796 0.89405 0.91738 0.0
H867 H 0.48785 0.89447 0.92233 0.0
H868 H 0.53304 0.90924 0.85159 0.0
S869 S 0.62178 0.86274 0.07546 0.0
N870 N 0.57781 0.86185 0.08021 0.0
N871 N 0.62596 0.87726 1.00304 0.0
C872 C 0.59059 0.88173 0.97919 0.0
C873 C 0.56438 0.87359 0.02105 0.0
C874 C 0.34781 0.25787 0.9069 0.0
C875 C 0.35261 0.29162 0.93721 0.0
C876 C 0.34751 0.23101 0.94598 0.0
C877 C 0.35236 0.23642 0.01732 0.0
H878 H 0.34469 0.25188 0.85222 0.0
H879 H 0.344 0.20559 0.91984 0.0
S880 S 0.36245 0.31987 0.12266 0.0
N881 N 0.36002 0.32895 0.04392 0.0
N882 N 0.3594 0.27831 0.11703 0.0
C883 C 0.35632 0.26998 0.04869 0.0
C884 C 0.35638 0.29754 1.00879 0.0
C885 C 0.01994 0.13103 0.3378 0.0
C886 C 0.98899 0.11072 0.3129 0.0
C887 C 0.04382 0.12385 0.39524 0.0
C888 C 0.03788 0.09578 0.4292 0.0
H889 H 0.02472 0.15355 0.31485 0.0
H890 H 0.06588 0.14137 0.41507 0.0
S891 S 0.96434 0.03145 0.376 0.0
N892 N 0.95613 0.05946 0.32175 0.0
N893 N 1.00108 0.04526 0.42724 0.0
C894 C 1.00838 0.07408 0.40133 0.0
C895 C 0.98394 0.08171 0.34397 0.0
C896 C 0.8402 0.76363 0.95382 0.0
C897 C 0.83795 0.75732 0.02078 0.0
C898 C 0.84925 0.73795 0.90448 0.0
C899 C 0.85575 0.70466 0.9197 0.0
H900 H 0.8359 0.7889 0.9399 0.0
H901 H 0.85182 0.74447 0.85435 0.0
S902 S 0.84867 0.67434 0.08625 0.0
N903 N 0.84 0.71507 0.09863 0.0
N904 N 0.85631 0.66659 1.00654 0.0
C905 C 0.85186 0.69779 0.98607 0.0
C906 C 0.84319 0.72413 0.03639 0.0
C907 C 0.07621 0.1278 0.8261 0.0
C908 C 0.1109 0.12203 0.85984 0.0
C909 C 0.04543 0.12981 0.86033 0.0
C910 C 0.04787 0.1264 0.93005 0.0
H911 H 0.07234 0.12828 0.77165 0.0
H912 H 0.01909 0.13204 0.83093 0.0
S913 S 0.13286 0.11373 0.0431 0.0
N914 N 0.14622 0.11488 0.96788 0.0
N915 N 0.0885 0.11923 0.03251 0.0
C916 C 0.08271 0.12279 0.96538 0.0
C917 C 0.11411 0.12028 0.93016 0.0
C918 C 0.63924 0.29954 0.62386 0.0
C919 C 0.64595 0.26794 0.58813 0.0
C920 C 0.63695 0.32904 0.59138 0.0
C921 C 0.64028 0.32766 0.52199 0.0
H922 H 0.63847 0.30191 0.67809 0.0
H923 H 0.63471 0.35324 0.62147 0.0
S924 S 0.65599 0.25107 0.40536 0.0
N925 N 0.65365 0.23701 0.47884 0.0
N926 N 0.64954 0.29216 0.41862 0.0
C927 C 0.64468 0.296 0.48515 0.0
C928 C 0.64742 0.2662 0.51804 0.0
C929 C 0.48047 0.88983 0.38349 0.0
C930 C 0.44422 0.87941 0.38327 0.0
C931 C 0.50567 0.89289 0.44291 0.0
C932 C 0.49529 0.88666 0.50524 0.0
H933 H 0.48857 0.89875 0.33864 0.0
H934 H 0.53222 0.90352 0.44123 0.0
S935 S 0.40471 0.85646 0.53209 0.0
N936 N 0.4002 0.86121 0.45063 0.0
N937 N 0.44729 0.86652 0.56207 0.0
C938 C 0.45992 0.87402 0.50491 0.0
C939 C 0.43438 0.87075 0.44423 0.0
C940 C 0.82259 0.25289 0.4439 0.0
C941 C 0.84916 0.22927 0.42541 0.0
C942 C 0.82822 0.27554 0.50381 0.0
C943 C 0.86018 0.27493 0.54929 0.0
H944 H 0.79773 0.25518 0.40995 0.0
H945 H 0.80795 0.29449 0.51336 0.0
S946 S 0.93816 0.21801 0.52824 0.0
N947 N 0.90889 0.2069 0.45973 0.0
N948 N 0.91845 0.24823 0.57383 0.0
C949 C 0.88613 0.25028 0.53409 0.0
C950 C 0.88086 0.22768 0.47201 0.0
C951 C 0.47433 0.1438 0.04019 0.0
C952 C 0.50849 0.12793 0.03899 0.0
C953 C 0.45042 0.13675 0.08567 0.0
C954 C 0.45992 0.1142 0.13323 0.0
H955 H 0.46502 0.1607 1.00323 0.0
H956 H 0.42371 0.14745 0.08044 0.0
S957 S 0.54698 0.06837 0.1579 0.0
N958 N 0.55077 0.0896 0.09337 0.0
N959 N 0.50699 0.07827 0.18118 0.0
C960 C 0.49482 0.09993 0.13597 0.0
C961 C 0.51889 0.10645 0.08875 0.0
C962 C 0.66425 0.71243 0.0204 0.0
C963 C 0.67773 0.71635 0.0901 0.0
C964 C 0.66492 0.73936 0.98123 0.0
C965 C 0.67944 0.77119 1.01008 0.0
H966 H 0.65225 0.6886 0.99615 0.0
H967 H 0.65434 0.73506 0.92784 0.0
S968 S 0.71927 0.79447 0.18968 0.0
N969 N 0.70692 0.75452 0.18567 0.0
N970 N 0.70804 0.80486 0.11243 0.0
C971 C 0.69357 0.77523 0.07936 0.0
C972 C 0.69272 0.74796 0.11923 0.0
C973 C 0.01987 0.93108 0.63857 0.0
C974 C 0.99165 0.90831 0.60864 0.0
C975 C 0.04386 0.92448 0.69555 0.0
C976 C 0.04046 0.89511 0.72628 0.0
H977 H 0.02421 0.95401 0.61661 0.0
H978 H 0.06561 0.94238 0.71529 0.0
S979 S 0.97233 0.82662 0.66921 0.0
N980 N 0.96256 0.85438 0.61476 0.0
N981 N 1.00693 0.84286 0.72357 0.0
C982 C 1.01188 0.8725 0.69889 0.0
C983 C 0.98762 0.87889 0.63981 0.0
C984 C 0.66398 0.7833 0.49609 0.0
C985 C 0.68228 0.75433 0.51569 0.0
C986 C 0.65162 0.80778 0.54417 0.0
C987 C 0.65659 0.80413 0.61392 0.0
H988 H 0.65961 0.78738 0.44318 0.0
H989 H 0.63778 0.82961 0.52631 0.0
S990 S 0.70342 0.733 0.69179 0.0
N991 N 0.70526 0.72364 0.60973 0.0
N992 N 0.68183 0.76922 0.69999 0.0
C993 C 0.67499 0.77526 0.63417 0.0
C994 C 0.68795 0.75058 0.58521 0.0
C995 C 0.44537 0.38213 0.55979 0.0
C996 C 0.47985 0.37496 0.59294 0.0
C997 C 0.41465 0.38502 0.59485 0.0
C998 C 0.41712 0.38036 0.66405 0.0
H999 H 0.44268 0.38837 0.50823 0.0
H1000 H 0.38926 0.39298 0.56875 0.0
S1001 S 0.50102 0.35984 0.77295 0.0
N1002 N 0.51413 0.36163 0.69784 0.0
N1003 N 0.45712 0.3675 0.76344 0.0
C1004 C 0.45107 0.37131 0.69638 0.0
C1005 C 0.48218 0.36845 0.66088 0.0
C1006 C 0.89144 0.18205 0.93904 0.0
C1007 C 0.88797 0.18357 1.00838 0.0
C1008 C 0.88905 0.21144 0.9062 0.0
C1009 C 0.88209 0.24309 0.94143 0.0
H1010 H 0.89388 0.1578 0.90924 0.0
H1011 H 0.89001 0.20894 0.85201 0.0
S1012 S 0.87255 0.26064 0.12411 0.0
N1013 N 0.87871 0.21947 0.11135 0.0
N1014 N 0.87442 0.27441 0.05017 0.0
C1015 C 0.88044 0.24505 1.01137 0.0
C1016 C 0.88328 0.21535 0.04471 0.0
C1017 C 0.09785 0.64142 0.10186 0.0
C1018 C 0.09095 0.62535 0.15724 0.0
C1019 C 0.07066 0.64374 0.04676 0.0
C1020 C 0.03539 0.62985 0.04414 0.0
H1021 H 0.12462 0.65145 0.10004 0.0
H1022 H 0.07766 0.65639 1.00526 0.0
S1023 S 1.00429 0.58433 0.17754 0.0
N1024 N 0.04707 0.59414 0.20591 0.0
N1025 N 0.99562 0.59978 0.10432 0.0
C1026 C 0.02832 0.61364 0.0997 0.0
C1027 C 0.05616 0.6111 0.15556 0.0
C1028 C 0.7016 0.2566 0.08299 0.0
C1029 C 0.67507 0.27948 0.10446 0.0
C1030 C 0.69491 0.23409 0.02308 0.0
C1031 C 0.66175 0.23403 0.98075 0.0
H1032 H 0.72739 0.25486 0.11452 0.0
H1033 H 0.71539 0.21574 1.01106 0.0
S1034 S 0.58318 0.28873 1.01067 0.0
N1035 N 0.61397 0.3004 0.0766 0.0
N1036 N 0.60226 0.25911 0.96243 0.0
C1037 C 0.63558 0.25779 0.99905 0.0
C1038 C 0.64205 0.28035 0.06108 0.0
C1039 C 0.01526 0.38743 0.42825 0.0
C1040 C 0.025 0.37958 0.49477 0.0
C1041 C 0.04196 0.3949 0.38825 0.0
C1042 C 0.07922 0.39446 0.41316 0.0
H1043 H 0.987 0.38703 0.4065 0.0
H1044 H 0.03341 0.40161 0.33777 0.0
S1045 S 0.11883 0.37682 0.58438 0.0
N1046 N 0.07463 0.37263 0.58393 0.0
N1047 N 0.12428 0.38698 0.5088 0.0
C1048 C 0.0892 0.38715 0.47954 0.0
C1049 C 0.06223 0.37949 0.52017 0.0
C1050 C 0.83344 0.73528 0.46202 0.0
C1051 C 0.84182 0.74035 0.53314 0.0
C1052 C 0.83615 0.76163 0.42234 0.0
C1053 C 0.84698 0.79451 0.45196 0.0
H1054 H 0.82549 0.71042 0.43643 0.0
H1055 H 0.83008 0.75595 0.36774 0.0
S1056 S 0.86905 0.82185 0.63715 0.0
N1057 N 0.8593 0.78123 0.63218 0.0
N1058 N 0.86454 0.83082 0.55814 0.0
C1059 C 0.85446 0.80017 0.52349 0.0
C1060 C 0.85193 0.77314 0.56386 0.0
C1061 C 0.54308 0.62619 0.90027 0.0
C1062 C 0.53815 0.597 0.93161 0.0
C1063 C 0.51923 0.63364 0.84299 0.0
C1064 C 0.48931 0.61246 0.81556 0.0
H1065 H 0.56434 0.64425 0.92188 0.0
H1066 H 0.52322 0.65694 0.82207 0.0
S1067 S 0.46746 0.53056 0.87132 0.0
N1068 N 0.50335 0.54481 0.92447 0.0
N1069 N 0.45842 0.55954 0.8194 0.0
C1070 C 0.48519 0.58253 0.84414 0.0
C1071 C 0.50962 0.57464 0.90133 0.0
C1072 C 0.35753 0.26422 0.46731 0.0
C1073 C 0.32996 0.25707 0.5054 0.0
C1074 C 0.36753 0.24039 0.41543 0.0
C1075 C 0.35097 0.20816 0.40083 0.0
H1076 H 0.37163 0.28836 0.47801 0.0
H1077 H 0.38956 0.24674 0.38868 0.0
S1078 S 0.27711 0.17714 0.48608 0.0
N1079 N 0.28548 0.21601 0.52381 0.0
N1080 N 0.30531 0.17067 0.42872 0.0
C1081 C 0.32312 0.20088 0.43834 0.0
C1082 C 0.31232 0.22548 0.4899 0.0
C1083 C 0.54756 0.63905 0.3675 0.0
C1084 C 0.54973 0.63318 0.43596 0.0
C1085 C 0.57824 0.6369 0.33289 0.0
C1086 C 0.61249 0.62844 0.36492 0.0
H1087 H 0.52138 0.64308 0.33902 0.0
H1088 H 0.57437 0.63897 0.27899 0.0
S1089 S 0.63367 0.61313 0.54484 0.0
N1090 N 0.58971 0.62086 0.53571 0.0
N1091 N 0.64719 0.61634 0.47048 0.0
C1092 C 0.6155 0.62441 0.43434 0.0
C1093 C 0.58426 0.62702 0.46994 0.0
C1094 C 0.1417 0.80147 0.13371 0.0
C1095 C 0.14624 0.76954 0.09734 0.0
C1096 C 0.14086 0.83103 0.10148 0.0
C1097 C 0.14364 0.82937 0.03182 0.0
H1098 H 0.14158 0.80389 0.18813 0.0
H1099 H 0.14013 0.85536 0.13184 0.0
S1100 S 0.15357 0.75182 0.91372 0.0
N1101 N 0.1511 0.73802 0.98744 0.0
N1102 N 0.15006 0.79326 0.92764 0.0
C1103 C 0.14598 0.79747 0.99453 0.0
C1104 C 0.14707 0.7676 0.02711 0.0
C1105 C 1.00896 0.39169 0.93914 0.0
C1106 C 0.99785 0.38824 1.00236 0.0
C1107 C 0.98401 0.38782 0.87936 0.0
C1108 C 0.94728 0.37931 0.87987 0.0
H1109 H 0.03601 0.40096 0.93667 0.0
H1110 H 0.99277 0.39499 0.83357 0.0
S1111 S 0.90575 0.36321 0.03125 0.0
N1112 N 0.94853 0.37249 0.06103 0.0
N1113 N 0.90202 0.36525 0.94874 0.0
C1114 C 0.93668 0.3731 0.9419 0.0
C1115 C 0.96192 0.37734 1.00295 0.0
C1116 C 0.32309 0.7591 0.93656 0.0
C1117 C 0.34877 0.73385 0.92222 0.0
C1118 C 0.32742 0.78128 0.99723 0.0
C1119 C 0.35707 0.7786 0.04731 0.0
H1120 H 0.30028 0.76304 0.89882 0.0
H1121 H 0.30821 0.80154 1.00378 0.0
S1122 S 0.43193 0.71708 0.03724 0.0
N1123 N 0.40509 0.70778 0.96484 0.0
N1124 N 0.41221 0.74838 0.07994 0.0
C1125 C 0.3819 0.75238 0.03581 0.0
C1126 C 0.37796 0.73019 0.9732 0.0
C1127 C 0.98936 0.60527 0.63465 0.0
C1128 C 0.95308 0.61641 0.62802 0.0
C1129 C 1.01329 0.61208 0.58902 0.0
C1130 C 1.00182 0.63008 0.53399 0.0
H1131 H 0.99896 0.58985 0.67422 0.0
H1132 H 0.04007 0.60124 0.59472 0.0
S1133 S 0.90949 0.66507 0.49405 0.0
N1134 N 0.90693 0.64555 0.56138 0.0
N1135 N 0.95181 0.6609 0.47854 0.0
C1136 C 0.96598 0.64281 0.52894 0.0
C1137 C 0.94159 0.63523 0.57486 0.0
C1138 C 0.16469 0.23763 0.47919 0.0
C1139 C 0.17076 0.27114 0.50956 0.0
C1140 C 0.16537 0.2107 0.51883 0.0
C1141 C 0.17195 0.2163 0.5904 0.0
H1142 H 0.16009 0.2321 0.42442 0.0
H1143 H 0.16023 0.18538 0.49307 0.0
S1144 S 0.18867 0.29994 0.69413 0.0
N1145 N 0.18257 0.30863 0.61497 0.0
N1146 N 0.1847 0.25851 0.68938 0.0
C1147 C 0.17802 0.24989 0.62105 0.0
C1148 C 0.1772 0.27713 0.58072 0.0
C1149 C 0.52499 0.42844 0.11497 0.0
C1150 C 0.4927 0.40933 0.09324 0.0
C1151 C 0.54876 0.42253 0.17271 0.0
C1152 C 0.54119 0.39774 0.2131 0.0
H1153 H 0.53273 0.44783 0.086 0.0
H1154 H 0.57359 0.43734 0.18537 0.0
S1155 S 0.46044 0.34097 0.18245 0.0
N1156 N 0.45478 0.36417 0.119 0.0
N1157 N 0.49863 0.35445 0.22941 0.0
C1158 C 0.50842 0.37931 0.19446 0.0
C1159 C 0.48439 0.38478 0.13434 0.0
loop_
_geom_bond_atom_site_label_1
_geom_bond_atom_site_label_2
_geom_bond_distance
_geom_bond_site_symmetry_2
_ccdc_geom_bond_type
Zn0 N4 2.020 . S
Zn0 O8 2.019 . S
Zn0 N10 2.119 . S
Zn0 O18 1.975 . S
C1 N2 1.334 . S
C1 N5 1.336 . S
N2 C1 1.334 . S
N2 C3 1.334 . S
C3 N2 1.334 . S
C3 N4 1.336 . S
N4 Zn0 2.020 . S
N4 C3 1.336 . S
N4 N5 1.354 . S
N5 C1 1.336 . S
N5 N4 1.354 . S
N5 Zn9 2.020 . S
C6 O7 1.244 . S
C6 O30 1.257 . S
O7 C6 1.244 . S
O8 Zn0 2.019 . S
O8 C28 1.257 . S
Zn9 N5 2.020 . S
Zn9 O16 1.975 . S
Zn9 N25 2.119 . S
Zn9 O30 2.019 . S
N10 Zn0 2.119 . S
N10 C12 1.334 . S
N10 C13 1.328 . S
C11 C12 1.391 . S
C11 N14 1.329 . S
C11 H32 0.930 . S
C12 N10 1.334 . S
C12 C11 1.391 . S
C12 H19 0.930 . S
C13 N10 1.328 . S
C13 C15 1.392 . S
C13 H20 0.930 . S
N14 C11 1.329 . S
N14 C15 1.331 . S
C15 C13 1.392 . S
C15 N14 1.331 . S
O16 Zn9 1.975 . S
O16 C17 1.252 . S
C17 O16 1.252 . S
C17 O18 1.252 . S
O18 Zn0 1.975 . S
O18 C17 1.252 . S
H19 C12 0.930 . S
H20 C13 0.930 . S
C21 C22 1.392 . S
C21 N25 1.328 1_556 S
C21 H27 0.930 . S
C22 C21 1.392 . S
C22 N26 1.331 . S
C23 C24 1.391 1_556 S
C23 N26 1.329 . S
C23 H33 0.930 1_455 S
C24 C23 1.391 1_554 S
C24 N25 1.334 . S
C24 H31 0.930 . S
N25 Zn9 2.119 . S
N25 C21 1.328 1_554 S
N25 C24 1.334 . S
N26 C22 1.331 . S
N26 C23 1.329 . S
H27 C21 0.930 . S
C28 O8 1.257 . S
C28 O29 1.244 . S
O29 C28 1.244 . S
O30 C6 1.257 . S
O30 Zn9 2.019 . S
H31 C24 0.930 . S
H32 C11 0.930 . S
H33 C23 0.930 1_655 S
Zn34 N38 2.020 . S
Zn34 O42 2.019 . S
Zn34 N44 2.119 . S
Zn34 O52 1.975 . S
C35 N36 1.334 . S
C35 N39 1.336 . S
N36 C35 1.334 . S
N36 C37 1.334 . S
C37 N36 1.334 . S
C37 N38 1.336 . S
N38 Zn34 2.020 . S
N38 C37 1.336 . S
N38 N39 1.354 . S
N39 C35 1.336 . S
N39 N38 1.354 . S
N39 Zn43 2.020 . S
C40 O41 1.244 . S
C40 O64 1.257 . S
O41 C40 1.244 . S
O42 Zn34 2.019 . S
O42 C62 1.257 . S
Zn43 N39 2.020 . S
Zn43 O50 1.975 . S
Zn43 N59 2.119 . S
Zn43 O64 2.019 . S
N44 Zn34 2.119 . S
N44 C46 1.334 . S
N44 C47 1.328 . S
C45 C46 1.391 . S
C45 N48 1.329 . S
C45 H66 0.930 . S
C46 N44 1.334 . S
C46 C45 1.391 . S
C46 H53 0.930 . S
C47 N44 1.328 . S
C47 C49 1.392 . S
C47 H54 0.930 . S
N48 C45 1.329 . S
N48 C49 1.331 . S
C49 C47 1.392 . S
C49 N48 1.331 . S
O50 Zn43 1.975 . S
O50 C51 1.252 . S
C51 O50 1.252 . S
C51 O52 1.252 . S
O52 Zn34 1.975 . S
O52 C51 1.252 . S
H53 C46 0.930 . S
H54 C47 0.930 . S
C55 C56 1.392 . S
C55 N59 1.328 . S
C55 H61 0.930 . S
C56 C55 1.392 . S
C56 N60 1.331 . S
C57 C58 1.391 . S
C57 N60 1.329 . S
C57 H67 0.930 . S
C58 C57 1.391 . S
C58 N59 1.334 . S
C58 H65 0.930 . S
N59 Zn43 2.119 . S
N59 C55 1.328 . S
N59 C58 1.334 . S
N60 C56 1.331 . S
N60 C57 1.329 . S
H61 C55 0.930 . S
C62 O42 1.257 . S
C62 O63 1.244 . S
O63 C62 1.244 . S
O64 C40 1.257 . S
O64 Zn43 2.019 . S
H65 C58 0.930 . S
H66 C45 0.930 . S
H67 C57 0.930 . S
Zn68 N72 2.020 . S
Zn68 O76 2.019 . S
Zn68 N78 2.119 . S
Zn68 O86 1.975 . S
C69 N70 1.334 . S
C69 N73 1.336 . S
N70 C69 1.334 . S
N70 C71 1.334 . S
C71 N70 1.334 . S
C71 N72 1.336 . S
N72 Zn68 2.020 . S
N72 C71 1.336 . S
N72 N73 1.354 . S
N73 C69 1.336 . S
N73 N72 1.354 . S
N73 Zn77 2.020 . S
C74 O75 1.244 . S
C74 O98 1.257 . S
O75 C74 1.244 . S
O76 Zn68 2.019 . S
O76 C96 1.257 . S
Zn77 N73 2.020 . S
Zn77 O84 1.975 . S
Zn77 N93 2.119 . S
Zn77 O98 2.019 . S
N78 Zn68 2.119 . S
N78 C80 1.334 . S
N78 C81 1.328 . S
C79 C80 1.391 . S
C79 N82 1.329 . S
C79 H100 0.930 . S
C80 N78 1.334 . S
C80 C79 1.391 . S
C80 H87 0.930 . S
C81 N78 1.328 . S
C81 C83 1.392 . S
C81 H88 0.930 . S
N82 C79 1.329 . S
N82 C83 1.331 . S
C83 C81 1.392 . S
C83 N82 1.331 . S
O84 Zn77 1.975 . S
O84 C85 1.252 . S
C85 O84 1.252 . S
C85 O86 1.252 . S
O86 Zn68 1.975 . S
O86 C85 1.252 . S
H87 C80 0.930 . S
H88 C81 0.930 . S
C89 C90 1.392 . S
C89 N93 1.328 . S
C89 H95 0.930 . S
C90 C89 1.392 . S
C90 N94 1.331 . S
C91 C92 1.391 . S
C91 N94 1.329 . S
C91 H101 0.930 . S
C92 C91 1.391 . S
C92 N93 1.334 . S
C92 H99 0.930 . S
N93 Zn77 2.119 . S
N93 C89 1.328 . S
N93 C92 1.334 . S
N94 C90 1.331 . S
N94 C91 1.329 . S
H95 C89 0.930 . S
C96 O76 1.257 . S
C96 O97 1.244 . S
O97 C96 1.244 . S
O98 C74 1.257 . S
O98 Zn77 2.019 . S
H99 C92 0.930 . S
H100 C79 0.930 . S
H101 C91 0.930 . S
Zn102 N106 2.020 . S
Zn102 O110 2.019 . S
Zn102 N112 2.119 . S
Zn102 O120 1.975 . S
C103 N104 1.334 . S
C103 N107 1.336 . S
N104 C103 1.334 . S
N104 C105 1.334 . S
C105 N104 1.334 . S
C105 N106 1.336 . S
N106 Zn102 2.020 . S
N106 C105 1.336 . S
N106 N107 1.354 . S
N107 C103 1.336 . S
N107 N106 1.354 . S
N107 Zn111 2.020 . S
C108 O109 1.244 . S
C108 O132 1.257 . S
O109 C108 1.244 . S
O110 Zn102 2.019 . S
O110 C130 1.257 . S
Zn111 N107 2.020 . S
Zn111 O118 1.975 . S
Zn111 N127 2.119 . S
Zn111 O132 2.019 . S
N112 Zn102 2.119 . S
N112 C114 1.334 . S
N112 C115 1.328 1_556 S
C113 C114 1.394 . S
C113 N116 1.326 1_556 S
C113 H134 0.930 . S
C114 N112 1.334 . S
C114 C113 1.394 . S
C114 H121 0.930 . S
C115 N112 1.328 1_554 S
C115 C117 1.392 . S
C115 H122 0.930 . S
N116 C113 1.326 1_554 S
N116 C117 1.331 . S
C117 C115 1.392 . S
C117 N116 1.331 . S
O118 Zn111 1.975 . S
O118 C119 1.252 . S
C119 O118 1.252 . S
C119 O120 1.252 . S
O120 Zn102 1.975 . S
O120 C119 1.252 . S
H121 C114 0.930 . S
H122 C115 0.930 . S
C123 C124 1.392 . S
C123 N127 1.328 . S
C123 H129 0.930 . S
C124 C123 1.392 . S
C124 N128 1.331 . S
C125 C126 1.391 . S
C125 N128 1.329 . S
C125 H135 0.930 . S
C126 C125 1.391 . S
C126 N127 1.334 . S
C126 H133 0.930 . S
N127 Zn111 2.119 . S
N127 C123 1.328 . S
N127 C126 1.334 . S
N128 C124 1.331 . S
N128 C125 1.329 . S
H129 C123 0.930 . S
C130 O110 1.257 . S
C130 O131 1.244 . S
O131 C130 1.244 . S
O132 C108 1.257 . S
O132 Zn111 2.019 . S
H133 C126 0.930 . S
H134 C113 0.930 . S
H135 C125 0.930 . S
Zn136 N140 2.020 . S
Zn136 O144 2.019 . S
Zn136 N146 2.119 . S
Zn136 O154 1.975 . S
C137 N138 1.334 . S
C137 N141 1.336 . S
N138 C137 1.334 . S
N138 C139 1.334 . S
C139 N138 1.334 . S
C139 N140 1.336 . S
N140 Zn136 2.020 . S
N140 C139 1.336 . S
N140 N141 1.354 . S
N141 C137 1.336 . S
N141 N140 1.354 . S
N141 Zn145 2.020 . S
C142 O143 1.244 . S
C142 O166 1.257 . S
O143 C142 1.244 . S
O144 Zn136 2.019 . S
O144 C164 1.257 . S
Zn145 N141 2.020 . S
Zn145 O152 1.975 . S
Zn145 N161 2.119 . S
Zn145 O166 2.019 . S
N146 Zn136 2.119 . S
N146 C148 1.334 . S
N146 C149 1.328 . S
C147 C148 1.391 . S
C147 N150 1.329 . S
C147 H168 0.930 . S
C148 N146 1.334 . S
C148 C147 1.391 . S
C148 H155 0.930 . S
C149 N146 1.328 . S
C149 C151 1.392 . S
C149 H156 0.930 . S
N150 C147 1.329 . S
N150 C151 1.331 . S
C151 C149 1.392 . S
C151 N150 1.331 . S
O152 Zn145 1.975 . S
O152 C153 1.252 . S
C153 O152 1.252 . S
C153 O154 1.252 . S
O154 Zn136 1.975 . S
O154 C153 1.252 . S
H155 C148 0.930 . S
H156 C149 0.930 . S
C157 C158 1.392 . S
C157 N161 1.328 . S
C157 H163 0.930 . S
C158 C157 1.392 . S
C158 N162 1.331 . S
C159 C160 1.391 . S
C159 N162 1.329 . S
C159 H169 0.930 . S
C160 C159 1.391 . S
C160 N161 1.334 . S
C160 H167 0.930 . S
N161 Zn145 2.119 . S
N161 C157 1.328 . S
N161 C160 1.334 . S
N162 C158 1.331 . S
N162 C159 1.329 . S
H163 C157 0.930 . S
C164 O144 1.257 . S
C164 O165 1.244 . S
O165 C164 1.244 . S
O166 C142 1.257 . S
O166 Zn145 2.019 . S
H167 C160 0.930 . S
H168 C147 0.930 . S
H169 C159 0.930 . S
Zn170 N174 2.020 . S
Zn170 O178 2.019 . S
Zn170 N180 2.119 . S
Zn170 O188 1.975 . S
C171 N172 1.334 . S
C171 N175 1.336 . S
N172 C171 1.334 . S
N172 C173 1.334 . S
C173 N172 1.334 . S
C173 N174 1.336 . S
N174 Zn170 2.020 . S
N174 C173 1.336 . S
N174 N175 1.354 . S
N175 C171 1.336 . S
N175 N174 1.354 . S
N175 Zn179 2.020 . S
C176 O177 1.244 . S
C176 O200 1.257 . S
O177 C176 1.244 . S
O178 Zn170 2.019 . S
O178 C198 1.257 . S
Zn179 N175 2.020 . S
Zn179 O186 1.975 . S
Zn179 N195 2.119 . S
Zn179 O200 2.019 . S
N180 Zn170 2.119 . S
N180 C182 1.334 . S
N180 C183 1.328 . S
C181 C182 1.391 . S
C181 N184 1.329 . S
C181 H202 0.930 . S
C182 N180 1.334 . S
C182 C181 1.391 . S
C182 H189 0.930 . S
C183 N180 1.328 . S
C183 C185 1.392 . S
C183 H190 0.930 . S
N184 C181 1.329 . S
N184 C185 1.331 . S
C185 C183 1.392 . S
C185 N184 1.331 . S
O186 Zn179 1.975 . S
O186 C187 1.252 . S
C187 O186 1.252 . S
C187 O188 1.252 . S
O188 Zn170 1.975 . S
O188 C187 1.252 . S
H189 C182 0.930 . S
H190 C183 0.930 . S
C191 C192 1.392 . S
C191 N195 1.328 . S
C191 H197 0.930 . S
C192 C191 1.392 . S
C192 N196 1.331 . S
C193 C194 1.391 . S
C193 N196 1.329 . S
C193 H203 0.930 . S
C194 C193 1.391 . S
C194 N195 1.334 . S
C194 H201 0.930 . S
N195 Zn179 2.119 . S
N195 C191 1.328 . S
N195 C194 1.334 . S
N196 C192 1.331 . S
N196 C193 1.329 . S
H197 C191 0.930 . S
C198 O178 1.257 . S
C198 O199 1.244 . S
O199 C198 1.244 . S
O200 C176 1.257 . S
O200 Zn179 2.019 . S
H201 C194 0.930 . S
H202 C181 0.930 . S
H203 C193 0.930 . S
Zn204 N208 2.020 . S
Zn204 O212 2.019 . S
Zn204 N214 2.119 . S
Zn204 O222 1.975 . S
C205 N206 1.334 . S
C205 N209 1.336 . S
N206 C205 1.334 . S
N206 C207 1.334 . S
C207 N206 1.334 . S
C207 N208 1.336 . S
N208 Zn204 2.020 . S
N208 C207 1.336 . S
N208 N209 1.354 . S
N209 C205 1.336 . S
N209 N208 1.354 . S
N209 Zn213 2.020 . S
C210 O211 1.244 . S
C210 O234 1.257 . S
O211 C210 1.244 . S
O212 Zn204 2.019 . S
O212 C232 1.257 . S
Zn213 N209 2.020 . S
Zn213 O220 1.975 . S
Zn213 N229 2.119 . S
Zn213 O234 2.019 . S
N214 Zn204 2.119 . S
N214 C216 1.334 . S
N214 C217 1.321 1_556 S
C215 C216 1.391 1_554 S
C215 N218 1.329 . S
C215 H236 0.930 . S
C216 N214 1.334 . S
C216 C215 1.391 1_556 S
C216 H223 0.930 . S
C217 N214 1.321 1_554 S
C217 C219 1.398 . S
C217 H224 0.930 . S
N218 C215 1.329 . S
N218 C219 1.331 . S
C219 C217 1.398 . S
C219 N218 1.331 . S
O220 Zn213 1.975 . S
O220 C221 1.252 . S
C221 O220 1.252 . S
C221 O222 1.252 . S
O222 Zn204 1.975 . S
O222 C221 1.252 . S
H223 C216 0.930 . S
H224 C217 0.930 . S
C225 C226 1.392 . S
C225 N229 1.328 . S
C225 H231 0.930 . S
C226 C225 1.392 . S
C226 N230 1.331 . S
C227 C228 1.391 . S
C227 N230 1.329 . S
C227 H237 0.930 . S
C228 C227 1.391 . S
C228 N229 1.334 . S
C228 H235 0.930 . S
N229 Zn213 2.119 . S
N229 C225 1.328 . S
N229 C228 1.334 . S
N230 C226 1.331 . S
N230 C227 1.329 . S
H231 C225 0.930 . S
C232 O212 1.257 . S
C232 O233 1.244 . S
O233 C232 1.244 . S
O234 C210 1.257 . S
O234 Zn213 2.019 . S
H235 C228 0.930 . S
H236 C215 0.930 . S
H237 C227 0.930 . S
Zn238 N242 2.020 . S
Zn238 O246 2.019 1_655 S
Zn238 N248 2.119 . S
Zn238 O256 1.975 . S
C239 N240 1.334 . S
C239 N243 1.336 . S
N240 C239 1.334 . S
N240 C241 1.334 . S
C241 N240 1.334 . S
C241 N242 1.336 . S
N242 Zn238 2.020 . S
N242 C241 1.336 . S
N242 N243 1.354 . S
N243 C239 1.336 . S
N243 N242 1.354 . S
N243 Zn247 2.020 . S
C244 O245 1.244 . S
C244 O268 1.257 . S
O245 C244 1.244 . S
O246 Zn238 2.019 1_455 S
O246 C266 1.257 1_455 S
Zn247 N243 2.020 . S
Zn247 O254 1.975 . S
Zn247 N263 2.119 . S
Zn247 O268 2.019 . S
N248 Zn238 2.119 . S
N248 C250 1.334 . S
N248 C251 1.328 1_655 S
C249 C250 1.391 . S
C249 N252 1.329 1_655 S
C249 H270 0.930 . S
C250 N248 1.334 . S
C250 C249 1.391 . S
C250 H257 0.930 . S
C251 N248 1.328 1_455 S
C251 C253 1.392 . S
C251 H258 0.930 . S
N252 C249 1.329 1_455 S
N252 C253 1.331 . S
C253 C251 1.392 . S
C253 N252 1.331 . S
O254 Zn247 1.975 . S
O254 C255 1.252 . S
C255 O254 1.252 . S
C255 O256 1.252 . S
O256 Zn238 1.975 . S
O256 C255 1.252 . S
H257 C250 0.930 . S
H258 C251 0.930 . S
C259 C260 1.392 . S
C259 N263 1.328 . S
C259 H265 0.930 . S
C260 C259 1.392 . S
C260 N264 1.331 . S
C261 C262 1.391 . S
C261 N264 1.329 . S
C261 H271 0.930 . S
C262 C261 1.391 . S
C262 N263 1.334 . S
C262 H269 0.930 . S
N263 Zn247 2.119 . S
N263 C259 1.328 . S
N263 C262 1.334 . S
N264 C260 1.331 . S
N264 C261 1.329 . S
H265 C259 0.930 . S
C266 O246 1.257 1_655 S
C266 O267 1.244 . S
O267 C266 1.244 . S
O268 C244 1.257 . S
O268 Zn247 2.019 . S
H269 C262 0.930 . S
H270 C249 0.930 . S
H271 C261 0.930 . S
Zn272 N276 2.020 . S
Zn272 O280 2.019 . S
Zn272 N282 2.119 . S
Zn272 O290 1.975 . S
C273 N274 1.334 . S
C273 N277 1.336 . S
N274 C273 1.334 . S
N274 C275 1.334 . S
C275 N274 1.334 . S
C275 N276 1.336 . S
N276 Zn272 2.020 . S
N276 C275 1.336 . S
N276 N277 1.354 . S
N277 C273 1.336 . S
N277 N276 1.354 . S
N277 Zn281 2.020 . S
C278 O279 1.244 . S
C278 O302 1.257 . S
O279 C278 1.244 . S
O280 Zn272 2.019 . S
O280 C300 1.257 . S
Zn281 N277 2.020 . S
Zn281 O288 1.975 . S
Zn281 N297 2.119 . S
Zn281 O302 2.019 . S
N282 Zn272 2.119 . S
N282 C284 1.334 . S
N282 C285 1.328 1_556 S
C283 C284 1.391 1_554 S
C283 N286 1.329 . S
C283 H304 0.930 1_655 S
C284 N282 1.334 . S
C284 C283 1.391 1_556 S
C284 H291 0.930 . S
C285 N282 1.328 1_554 S
C285 C287 1.392 . S
C285 H292 0.930 . S
N286 C283 1.329 . S
N286 C287 1.331 . S
C287 C285 1.392 . S
C287 N286 1.331 . S
O288 Zn281 1.975 . S
O288 C289 1.252 . S
C289 O288 1.252 . S
C289 O290 1.252 . S
O290 Zn272 1.975 . S
O290 C289 1.252 . S
H291 C284 0.930 . S
H292 C285 0.930 . S
C293 C294 1.392 . S
C293 N297 1.328 . S
C293 H299 0.930 . S
C294 C293 1.392 . S
C294 N298 1.331 . S
C295 C296 1.391 . S
C295 N298 1.329 . S
C295 H305 0.930 . S
C296 C295 1.391 . S
C296 N297 1.334 . S
C296 H303 0.930 . S
N297 Zn281 2.119 . S
N297 C293 1.328 . S
N297 C296 1.334 . S
N298 C294 1.331 . S
N298 C295 1.329 . S
H299 C293 0.930 . S
C300 O280 1.257 . S
C300 O301 1.244 . S
O301 C300 1.244 . S
O302 C278 1.257 . S
O302 Zn281 2.019 . S
H303 C296 0.930 . S
H304 C283 0.930 1_455 S
H305 C295 0.930 . S
Zn306 N310 2.020 . S
Zn306 O314 2.019 . S
Zn306 N316 2.119 . S
Zn306 O324 1.975 . S
C307 N308 1.334 . S
C307 N311 1.336 . S
N308 C307 1.334 . S
N308 C309 1.334 . S
C309 N308 1.334 . S
C309 N310 1.336 . S
N310 Zn306 2.020 . S
N310 C309 1.336 . S
N310 N311 1.354 . S
N311 C307 1.336 . S
N311 N310 1.354 . S
N311 Zn315 2.020 . S
C312 O313 1.244 . S
C312 O336 1.257 . S
O313 C312 1.244 . S
O314 Zn306 2.019 . S
O314 C334 1.257 . S
Zn315 N311 2.020 . S
Zn315 O322 1.975 . S
Zn315 N331 2.119 . S
Zn315 O336 2.019 . S
N316 Zn306 2.119 . S
N316 C318 1.334 . S
N316 C319 1.328 . S
C317 C318 1.391 . S
C317 N320 1.329 . S
C317 H338 0.930 . S
C318 N316 1.334 . S
C318 C317 1.391 . S
C318 H325 0.930 . S
C319 N316 1.328 . S
C319 C321 1.392 . S
C319 H326 0.930 . S
N320 C317 1.329 . S
N320 C321 1.331 . S
C321 C319 1.392 . S
C321 N320 1.331 . S
O322 Zn315 1.975 . S
O322 C323 1.252 . S
C323 O322 1.252 . S
C323 O324 1.252 . S
O324 Zn306 1.975 . S
O324 C323 1.252 . S
H325 C318 0.930 . S
H326 C319 0.930 . S
C327 C328 1.392 . S
C327 N331 1.328 . S
C327 H333 0.930 . S
C328 C327 1.392 . S
C328 N332 1.331 . S
C329 C330 1.391 . S
C329 N332 1.329 . S
C329 H339 0.930 . S
C330 C329 1.391 . S
C330 N331 1.334 . S
C330 H337 0.930 . S
N331 Zn315 2.119 . S
N331 C327 1.328 . S
N331 C330 1.334 . S
N332 C328 1.331 . S
N332 C329 1.329 . S
H333 C327 0.930 . S
C334 O314 1.257 . S
C334 O335 1.244 . S
O335 C334 1.244 . S
O336 C312 1.257 . S
O336 Zn315 2.019 . S
H337 C330 0.930 . S
H338 C317 0.930 . S
H339 C329 0.930 . S
Zn340 N344 2.020 . S
Zn340 O348 2.019 . S
Zn340 N350 2.119 . S
Zn340 O358 1.975 . S
C341 N342 1.334 . S
C341 N345 1.336 . S
N342 C341 1.334 . S
N342 C343 1.334 . S
C343 N342 1.334 . S
C343 N344 1.336 . S
N344 Zn340 2.020 . S
N344 C343 1.336 . S
N344 N345 1.354 . S
N345 C341 1.336 . S
N345 N344 1.354 . S
N345 Zn349 2.020 . S
C346 O347 1.244 . S
C346 O370 1.257 . S
O347 C346 1.244 . S
O348 Zn340 2.019 . S
O348 C368 1.257 . S
Zn349 N345 2.020 . S
Zn349 O356 1.975 . S
Zn349 N365 2.119 . S
Zn349 O370 2.019 . S
N350 Zn340 2.119 . S
N350 C352 1.334 . S
N350 C353 1.328 . S
C351 C352 1.391 . S
C351 N354 1.329 . S
C351 H372 0.930 . S
C352 N350 1.334 . S
C352 C351 1.391 . S
C352 H359 0.930 . S
C353 N350 1.328 . S
C353 C355 1.392 . S
C353 H360 0.930 . S
N354 C351 1.329 . S
N354 C355 1.331 . S
C355 C353 1.392 . S
C355 N354 1.331 . S
O356 Zn349 1.975 . S
O356 C357 1.252 . S
C357 O356 1.252 . S
C357 O358 1.252 . S
O358 Zn340 1.975 . S
O358 C357 1.252 . S
H359 C352 0.930 . S
H360 C353 0.930 . S
C361 C362 1.392 . S
C361 N365 1.328 . S
C361 H367 0.930 . S
C362 C361 1.392 . S
C362 N366 1.331 . S
C363 C364 1.391 . S
C363 N366 1.329 . S
C363 H373 0.930 . S
C364 C363 1.391 . S
C364 N365 1.334 . S
C364 H371 0.930 . S
N365 Zn349 2.119 . S
N365 C361 1.328 . S
N365 C364 1.334 . S
N366 C362 1.331 . S
N366 C363 1.329 . S
H367 C361 0.930 . S
C368 O348 1.257 . S
C368 O369 1.244 . S
O369 C368 1.244 . S
O370 C346 1.257 . S
O370 Zn349 2.019 . S
H371 C364 0.930 . S
H372 C351 0.930 . S
H373 C363 0.930 . S
Zn374 N378 2.020 . S
Zn374 O382 2.019 . S
Zn374 N384 2.119 . S
Zn374 O392 1.975 . S
C375 N376 1.334 . S
C375 N379 1.336 . S
N376 C375 1.334 . S
N376 C377 1.334 . S
C377 N376 1.334 . S
C377 N378 1.336 . S
N378 Zn374 2.020 . S
N378 C377 1.336 . S
N378 N379 1.354 . S
N379 C375 1.336 . S
N379 N378 1.354 . S
N379 Zn383 2.020 . S
C380 O381 1.244 . S
C380 O404 1.257 . S
O381 C380 1.244 . S
O382 Zn374 2.019 . S
O382 C402 1.257 . S
Zn383 N379 2.020 . S
Zn383 O390 1.975 . S
Zn383 N399 2.119 . S
Zn383 O404 2.019 . S
N384 Zn374 2.119 . S
N384 C386 1.334 . S
N384 C387 1.328 . S
C385 C386 1.391 . S
C385 N388 1.329 . S
C385 H406 0.930 . S
C386 N384 1.334 . S
C386 C385 1.391 . S
C386 H393 0.930 . S
C387 N384 1.328 . S
C387 C389 1.392 . S
C387 H394 0.930 . S
N388 C385 1.329 . S
N388 C389 1.331 . S
C389 C387 1.392 . S
C389 N388 1.331 . S
O390 Zn383 1.975 . S
O390 C391 1.252 . S
C391 O390 1.252 . S
C391 O392 1.252 . S
O392 Zn374 1.975 . S
O392 C391 1.252 . S
H393 C386 0.930 . S
H394 C387 0.930 . S
C395 C396 1.392 . S
C395 N399 1.328 1_556 S
C395 H401 0.930 . S
C396 C395 1.392 . S
C396 N400 1.331 . S
C397 C398 1.394 . S
C397 N400 1.326 1_554 S
C397 H407 0.930 . S
C398 C397 1.394 . S
C398 N399 1.334 . S
C398 H405 0.930 . S
N399 Zn383 2.119 . S
N399 C395 1.328 1_554 S
N399 C398 1.334 . S
N400 C396 1.331 . S
N400 C397 1.326 1_556 S
H401 C395 0.930 . S
C402 O382 1.257 . S
C402 O403 1.244 . S
O403 C402 1.244 . S
O404 C380 1.257 . S
O404 Zn383 2.019 . S
H405 C398 0.930 . S
H406 C385 0.930 . S
H407 C397 0.930 . S
Zn408 N412 2.020 . S
Zn408 O416 2.019 . S
Zn408 N418 2.119 . S
Zn408 O426 1.975 . S
C409 N410 1.334 . S
C409 N413 1.336 . S
N410 C409 1.334 . S
N410 C411 1.334 . S
C411 N410 1.334 . S
C411 N412 1.336 . S
N412 Zn408 2.020 . S
N412 C411 1.336 . S
N412 N413 1.354 . S
N413 C409 1.336 . S
N413 N412 1.354 . S
N413 Zn417 2.020 . S
C414 O415 1.244 . S
C414 O438 1.257 . S
O415 C414 1.244 . S
O416 Zn408 2.019 . S
O416 C436 1.257 . S
Zn417 N413 2.020 . S
Zn417 O424 1.975 . S
Zn417 N433 2.119 . S
Zn417 O438 2.019 . S
N418 Zn408 2.119 . S
N418 C420 1.334 . S
N418 C421 1.328 . S
C419 C420 1.391 . S
C419 N422 1.329 . S
C419 H440 0.930 . S
C420 N418 1.334 . S
C420 C419 1.391 . S
C420 H427 0.930 . S
C421 N418 1.328 . S
C421 C423 1.392 . S
C421 H428 0.930 . S
N422 C419 1.329 . S
N422 C423 1.331 . S
C423 C421 1.392 . S
C423 N422 1.331 . S
O424 Zn417 1.975 . S
O424 C425 1.252 . S
C425 O424 1.252 . S
C425 O426 1.252 . S
O426 Zn408 1.975 . S
O426 C425 1.252 . S
H427 C420 0.930 . S
H428 C421 0.930 . S
C429 C430 1.392 . S
C429 N433 1.328 . S
C429 H435 0.930 . S
C430 C429 1.392 . S
C430 N434 1.331 . S
C431 C432 1.391 . S
C431 N434 1.329 . S
C431 H441 0.930 . S
C432 C431 1.391 . S
C432 N433 1.334 . S
C432 H439 0.930 . S
N433 Zn417 2.119 . S
N433 C429 1.328 . S
N433 C432 1.334 . S
N434 C430 1.331 . S
N434 C431 1.329 . S
H435 C429 0.930 . S
C436 O416 1.257 . S
C436 O437 1.244 . S
O437 C436 1.244 . S
O438 C414 1.257 . S
O438 Zn417 2.019 . S
H439 C432 0.930 . S
H440 C419 0.930 . S
H441 C431 0.930 . S
Zn442 N446 2.020 . S
Zn442 O450 2.019 . S
Zn442 N452 2.119 . S
Zn442 O460 1.975 . S
C443 N444 1.334 . S
C443 N447 1.336 . S
N444 C443 1.334 . S
N444 C445 1.334 . S
C445 N444 1.334 . S
C445 N446 1.336 . S
N446 Zn442 2.020 . S
N446 C445 1.336 . S
N446 N447 1.354 . S
N447 C443 1.336 . S
N447 N446 1.354 . S
N447 Zn451 2.020 . S
C448 O449 1.244 . S
C448 O472 1.257 . S
O449 C448 1.244 . S
O450 Zn442 2.019 . S
O450 C470 1.257 . S
Zn451 N447 2.020 . S
Zn451 O458 1.975 . S
Zn451 N467 2.119 . S
Zn451 O472 2.019 . S
N452 Zn442 2.119 . S
N452 C454 1.334 . S
N452 C455 1.328 . S
C453 C454 1.391 . S
C453 N456 1.329 . S
C453 H474 0.930 . S
C454 N452 1.334 . S
C454 C453 1.391 . S
C454 H461 0.930 . S
C455 N452 1.328 . S
C455 C457 1.392 . S
C455 H462 0.930 . S
N456 C453 1.329 . S
N456 C457 1.331 . S
C457 C455 1.392 . S
C457 N456 1.331 . S
O458 Zn451 1.975 . S
O458 C459 1.252 . S
C459 O458 1.252 . S
C459 O460 1.252 . S
O460 Zn442 1.975 . S
O460 C459 1.252 . S
H461 C454 0.930 . S
H462 C455 0.930 . S
C463 C464 1.392 . S
C463 N467 1.328 . S
C463 H469 0.930 . S
C464 C463 1.392 . S
C464 N468 1.331 . S
C465 C466 1.391 . S
C465 N468 1.329 . S
C465 H475 0.930 . S
C466 C465 1.391 . S
C466 N467 1.334 . S
C466 H473 0.930 . S
N467 Zn451 2.119 . S
N467 C463 1.328 . S
N467 C466 1.334 . S
N468 C464 1.331 . S
N468 C465 1.329 . S
H469 C463 0.930 . S
C470 O450 1.257 . S
C470 O471 1.244 . S
O471 C470 1.244 . S
O472 C448 1.257 . S
O472 Zn451 2.019 . S
H473 C466 0.930 . S
H474 C453 0.930 . S
H475 C465 0.930 . S
Zn476 N480 2.020 . S
Zn476 O484 2.019 . S
Zn476 N486 2.119 . S
Zn476 O494 1.975 . S
C477 N478 1.334 . S
C477 N481 1.336 . S
N478 C477 1.334 . S
N478 C479 1.334 . S
C479 N478 1.334 . S
C479 N480 1.336 . S
N480 Zn476 2.020 . S
N480 C479 1.336 . S
N480 N481 1.354 . S
N481 C477 1.336 . S
N481 N480 1.354 . S
N481 Zn485 2.020 . S
C482 O483 1.244 . S
C482 O506 1.257 . S
O483 C482 1.244 . S
O484 Zn476 2.019 . S
O484 C504 1.257 . S
Zn485 N481 2.020 . S
Zn485 O492 1.975 . S
Zn485 N501 2.119 . S
Zn485 O506 2.019 . S
N486 Zn476 2.119 . S
N486 C488 1.334 . S
N486 C489 1.321 1_554 S
C487 C488 1.391 1_556 S
C487 N490 1.329 . S
C487 H508 0.930 . S
C488 N486 1.334 . S
C488 C487 1.391 1_554 S
C488 H495 0.930 . S
C489 N486 1.321 1_556 S
C489 C491 1.398 . S
C489 H496 0.930 . S
N490 C487 1.329 . S
N490 C491 1.331 . S
C491 C489 1.398 . S
C491 N490 1.331 . S
O492 Zn485 1.975 . S
O492 C493 1.252 . S
C493 O492 1.252 . S
C493 O494 1.252 . S
O494 Zn476 1.975 . S
O494 C493 1.252 . S
H495 C488 0.930 . S
H496 C489 0.930 . S
C497 C498 1.392 . S
C497 N501 1.328 . S
C497 H503 0.930 . S
C498 C497 1.392 . S
C498 N502 1.331 . S
C499 C500 1.391 . S
C499 N502 1.329 . S
C499 H509 0.930 . S
C500 C499 1.391 . S
C500 N501 1.334 . S
C500 H507 0.930 . S
N501 Zn485 2.119 . S
N501 C497 1.328 . S
N501 C500 1.334 . S
N502 C498 1.331 . S
N502 C499 1.329 . S
H503 C497 0.930 . S
C504 O484 1.257 . S
C504 O505 1.244 . S
O505 C504 1.244 . S
O506 C482 1.257 . S
O506 Zn485 2.019 . S
H507 C500 0.930 . S
H508 C487 0.930 . S
H509 C499 0.930 . S
Zn510 N514 2.020 . S
Zn510 O518 2.019 1_455 S
Zn510 N520 2.119 . S
Zn510 O528 1.975 . S
C511 N512 1.334 . S
C511 N515 1.336 . S
N512 C511 1.334 . S
N512 C513 1.334 . S
C513 N512 1.334 . S
C513 N514 1.336 . S
N514 Zn510 2.020 . S
N514 C513 1.336 . S
N514 N515 1.354 . S
N515 C511 1.336 . S
N515 N514 1.354 . S
N515 Zn519 2.020 . S
C516 O517 1.244 . S
C516 O540 1.257 . S
O517 C516 1.244 . S
O518 Zn510 2.019 1_655 S
O518 C538 1.257 1_655 S
Zn519 N515 2.020 . S
Zn519 O526 1.975 . S
Zn519 N535 2.119 . S
Zn519 O540 2.019 . S
N520 Zn510 2.119 . S
N520 C522 1.334 . S
N520 C523 1.328 1_455 S
C521 C522 1.391 . S
C521 N524 1.329 1_455 S
C521 H542 0.930 . S
C522 N520 1.334 . S
C522 C521 1.391 . S
C522 H529 0.930 . S
C523 N520 1.328 1_655 S
C523 C525 1.392 . S
C523 H530 0.930 . S
N524 C521 1.329 1_655 S
N524 C525 1.331 . S
C525 C523 1.392 . S
C525 N524 1.331 . S
O526 Zn519 1.975 . S
O526 C527 1.252 . S
C527 O526 1.252 . S
C527 O528 1.252 . S
O528 Zn510 1.975 . S
O528 C527 1.252 . S
H529 C522 0.930 . S
H530 C523 0.930 . S
C531 C532 1.392 . S
C531 N535 1.328 . S
C531 H537 0.930 . S
C532 C531 1.392 . S
C532 N536 1.331 . S
C533 C534 1.391 . S
C533 N536 1.329 . S
C533 H543 0.930 . S
C534 C533 1.391 . S
C534 N535 1.334 . S
C534 H541 0.930 . S
N535 Zn519 2.119 . S
N535 C531 1.328 . S
N535 C534 1.334 . S
N536 C532 1.331 . S
N536 C533 1.329 . S
H537 C531 0.930 . S
C538 O518 1.257 1_455 S
C538 O539 1.244 . S
O539 C538 1.244 . S
O540 C516 1.257 . S
O540 Zn519 2.019 . S
H541 C534 0.930 . S
H542 C521 0.930 . S
H543 C533 0.930 . S
C544 C545 1.369 . S
C544 C546 1.419 . S
C544 H548 0.930 . S
C545 C544 1.369 . S
C545 C554 1.429 1_455 S
C546 C544 1.419 . S
C546 C547 1.363 . S
C546 H549 0.929 . S
C547 C546 1.363 . S
C547 C553 1.428 1_455 S
H548 C544 0.930 . S
H549 C546 0.929 . S
S550 N551 1.613 . S
S550 N552 1.610 . S
N551 S550 1.613 . S
N551 C554 1.350 . S
N552 S550 1.610 . S
N552 C553 1.351 . S
C553 C547 1.428 1_655 S
C553 N552 1.351 . S
C553 C554 1.434 . S
C554 C545 1.429 1_655 S
C554 N551 1.350 . S
C554 C553 1.434 . S
C555 C556 1.365 1_655 S
C555 C557 1.419 . S
C555 H559 0.930 . S
C556 C555 1.365 1_455 S
C556 C565 1.430 . S
C557 C555 1.419 . S
C557 C558 1.363 . S
C557 H560 0.929 . S
C558 C557 1.363 . S
C558 C564 1.428 . S
H559 C555 0.930 . S
H560 C557 0.929 . S
S561 N562 1.613 . S
S561 N563 1.610 . S
N562 S561 1.613 . S
N562 C565 1.350 . S
N563 S561 1.610 . S
N563 C564 1.351 1_455 S
C564 C558 1.428 . S
C564 N563 1.351 1_655 S
C564 C565 1.434 1_655 S
C565 C556 1.430 . S
C565 N562 1.350 . S
C565 C564 1.434 1_455 S
C566 C567 1.369 . S
C566 C568 1.419 . S
C566 H570 0.930 . S
C567 C566 1.369 . S
C567 C576 1.429 . S
C568 C566 1.419 . S
C568 C569 1.363 . S
C568 H571 0.929 . S
C569 C568 1.363 . S
C569 C575 1.428 . S
H570 C566 0.930 . S
H571 C568 0.929 . S
S572 N573 1.613 . S
S572 N574 1.610 . S
N573 S572 1.613 . S
N573 C576 1.350 . S
N574 S572 1.610 . S
N574 C575 1.351 . S
C575 C569 1.428 . S
C575 N574 1.351 . S
C575 C576 1.434 . S
C576 C567 1.429 . S
C576 N573 1.350 . S
C576 C575 1.434 . S
C577 C578 1.369 . S
C577 C579 1.419 . S
C577 H581 0.930 . S
C578 C577 1.369 . S
C578 C587 1.429 . S
C579 C577 1.419 . S
C579 C580 1.363 . S
C579 H582 0.929 . S
C580 C579 1.363 . S
C580 C586 1.428 . S
H581 C577 0.930 . S
H582 C579 0.929 . S
S583 N584 1.613 . S
S583 N585 1.610 . S
N584 S583 1.613 . S
N584 C587 1.350 . S
N585 S583 1.610 . S
N585 C586 1.351 . S
C586 C580 1.428 . S
C586 N585 1.351 . S
C586 C587 1.434 . S
C587 C578 1.429 . S
C587 N584 1.350 . S
C587 C586 1.434 . S
C588 C589 1.369 1_455 S
C588 C590 1.419 . S
C588 H592 0.930 . S
C589 C588 1.369 1_655 S
C589 C598 1.429 . S
C590 C588 1.419 . S
C590 C591 1.363 1_455 S
C590 H593 0.929 . S
C591 C590 1.363 1_655 S
C591 C597 1.428 . S
H592 C588 0.930 . S
H593 C590 0.929 . S
S594 N595 1.613 . S
S594 N596 1.610 . S
N595 S594 1.613 . S
N595 C598 1.350 . S
N596 S594 1.610 . S
N596 C597 1.351 . S
C597 C591 1.428 . S
C597 N596 1.351 . S
C597 C598 1.434 . S
C598 C589 1.429 . S
C598 N595 1.350 . S
C598 C597 1.434 . S
C599 C600 1.369 . S
C599 C601 1.419 . S
C599 H603 0.930 . S
C600 C599 1.369 . S
C600 C609 1.429 . S
C601 C599 1.419 . S
C601 C602 1.363 . S
C601 H604 0.929 1_455 S
C602 C601 1.363 . S
C602 C608 1.431 . S
H603 C599 0.930 . S
H604 C601 0.929 1_655 S
S605 N606 1.613 . S
S605 N607 1.610 . S
N606 S605 1.613 . S
N606 C609 1.350 . S
N607 S605 1.610 . S
N607 C608 1.351 . S
C608 C602 1.431 . S
C608 N607 1.351 . S
C608 C609 1.434 . S
C609 C600 1.429 . S
C609 N606 1.350 . S
C609 C608 1.434 . S
C610 C611 1.369 . S
C610 C612 1.419 . S
C610 H614 0.930 . S
C611 C610 1.369 . S
C611 C620 1.429 . S
C612 C610 1.419 . S
C612 C613 1.363 . S
C612 H615 0.929 . S
C613 C612 1.363 . S
C613 C619 1.428 . S
H614 C610 0.930 . S
H615 C612 0.929 . S
S616 N617 1.613 . S
S616 N618 1.610 . S
N617 S616 1.613 . S
N617 C620 1.350 . S
N618 S616 1.610 . S
N618 C619 1.351 . S
C619 C613 1.428 . S
C619 N618 1.351 . S
C619 C620 1.434 . S
C620 C611 1.429 . S
C620 N617 1.350 . S
C620 C619 1.434 . S
C621 C622 1.369 . S
C621 C623 1.419 . S
C621 H625 0.930 . S
C622 C621 1.369 . S
C622 C631 1.429 . S
C623 C621 1.419 . S
C623 C624 1.363 . S
C623 H626 0.929 . S
C624 C623 1.363 . S
C624 C630 1.428 . S
H625 C621 0.930 . S
H626 C623 0.929 . S
S627 N628 1.613 . S
S627 N629 1.610 . S
N628 S627 1.613 . S
N628 C631 1.350 . S
N629 S627 1.610 . S
N629 C630 1.351 . S
C630 C624 1.428 . S
C630 N629 1.351 . S
C630 C631 1.434 . S
C631 C622 1.429 . S
C631 N628 1.350 . S
C631 C630 1.434 . S
C632 C633 1.369 . S
C632 C634 1.419 . S
C632 H636 0.930 . S
C633 C632 1.369 . S
C633 C642 1.429 1_556 S
C634 C632 1.419 . S
C634 C635 1.363 1_556 S
C634 H637 0.929 . S
C635 C634 1.363 1_554 S
C635 C641 1.428 . S
H636 C632 0.930 . S
H637 C634 0.929 . S
S638 N639 1.613 . S
S638 N640 1.610 . S
N639 S638 1.613 . S
N639 C642 1.350 . S
N640 S638 1.610 . S
N640 C641 1.351 . S
C641 C635 1.428 . S
C641 N640 1.351 . S
C641 C642 1.434 . S
C642 C633 1.429 1_554 S
C642 N639 1.350 . S
C642 C641 1.434 . S
C643 C644 1.369 . S
C643 C645 1.409 1_565 S
C643 H647 0.930 . S
C644 C643 1.369 . S
C644 C653 1.429 . S
C645 C643 1.409 1_545 S
C645 C646 1.368 . S
C645 H648 0.935 . S
C646 C645 1.368 . S
C646 C652 1.428 1_545 S
H647 C643 0.930 . S
H648 C645 0.935 . S
S649 N650 1.613 . S
S649 N651 1.610 . S
N650 S649 1.613 . S
N650 C653 1.350 . S
N651 S649 1.610 . S
N651 C652 1.351 . S
C652 C646 1.428 1_565 S
C652 N651 1.351 . S
C652 C653 1.434 . S
C653 C644 1.429 . S
C653 N650 1.350 . S
C653 C652 1.434 . S
C654 C655 1.369 . S
C654 C656 1.419 . S
C654 H658 0.930 . S
C655 C654 1.369 . S
C655 C664 1.429 . S
C656 C654 1.419 . S
C656 C657 1.363 . S
C656 H659 0.929 . S
C657 C656 1.363 . S
C657 C663 1.428 . S
H658 C654 0.930 . S
H659 C656 0.929 . S
S660 N661 1.613 . S
S660 N662 1.610 . S
N661 S660 1.613 . S
N661 C664 1.350 . S
N662 S660 1.610 . S
N662 C663 1.351 . S
C663 C657 1.428 . S
C663 N662 1.351 . S
C663 C664 1.434 . S
C664 C655 1.429 . S
C664 N661 1.350 . S
C664 C663 1.434 . S
C665 C666 1.373 . S
C665 C667 1.412 1_565 S
C665 H669 0.933 . S
C666 C665 1.373 . S
C666 C675 1.429 1_565 S
C667 C665 1.412 1_545 S
C667 C668 1.363 . S
C667 H670 0.929 . S
C668 C667 1.363 . S
C668 C674 1.428 . S
H669 C665 0.933 . S
H670 C667 0.929 . S
S671 N672 1.613 1_545 S
S671 N673 1.610 . S
N672 S671 1.613 1_565 S
N672 C675 1.350 1_565 S
N673 S671 1.610 . S
N673 C674 1.351 . S
C674 C668 1.428 . S
C674 N673 1.351 . S
C674 C675 1.434 . S
C675 C666 1.429 1_545 S
C675 N672 1.350 1_545 S
C675 C674 1.434 . S
C676 C677 1.369 . S
C676 C678 1.419 . S
C676 H680 0.930 . S
C677 C676 1.369 . S
C677 C686 1.429 1_556 S
C678 C676 1.419 . S
C678 C679 1.363 1_556 S
C678 H681 0.929 . S
C679 C678 1.363 1_554 S
C679 C685 1.428 . S
H680 C676 0.930 . S
H681 C678 0.929 . S
S682 N683 1.613 . S
S682 N684 1.610 . S
N683 S682 1.613 . S
N683 C686 1.350 . S
N684 S682 1.610 . S
N684 C685 1.351 . S
C685 C679 1.428 . S
C685 N684 1.351 . S
C685 C686 1.434 . S
C686 C677 1.429 1_554 S
C686 N683 1.350 . S
C686 C685 1.434 . S
C687 C688 1.369 1_545 S
C687 C689 1.419 . S
C687 H691 0.930 . S
C688 C687 1.369 1_565 S
C688 C697 1.429 . S
C689 C687 1.419 . S
C689 C690 1.363 . S
C689 H692 0.929 . S
C690 C689 1.363 . S
C690 C696 1.428 . S
H691 C687 0.930 . S
H692 C689 0.929 . S
S693 N694 1.613 . S
S693 N695 1.610 1_565 S
N694 S693 1.613 . S
N694 C697 1.350 . S
N695 S693 1.610 1_545 S
N695 C696 1.351 . S
C696 C690 1.428 . S
C696 N695 1.351 . S
C696 C697 1.434 1_545 S
C697 C688 1.429 . S
C697 N694 1.350 . S
C697 C696 1.434 1_565 S
C698 C699 1.369 . S
C698 C700 1.419 . S
C698 H702 0.930 . S
C699 C698 1.369 . S
C699 C708 1.429 . S
C700 C698 1.419 . S
C700 C701 1.363 . S
C700 H703 0.929 . S
C701 C700 1.363 . S
C701 C707 1.428 . S
H702 C698 0.930 . S
H703 C700 0.929 . S
S704 N705 1.613 . S
S704 N706 1.610 . S
N705 S704 1.613 . S
N705 C708 1.350 . S
N706 S704 1.610 . S
N706 C707 1.351 . S
C707 C701 1.428 . S
C707 N706 1.351 . S
C707 C708 1.434 . S
C708 C699 1.429 . S
C708 N705 1.350 . S
C708 C707 1.434 . S
C709 C710 1.369 . S
C709 C711 1.419 1_565 S
C709 H713 0.930 . S
C710 C709 1.369 . S
C710 C719 1.429 . S
C711 C709 1.419 1_545 S
C711 C712 1.363 . S
C711 H714 0.929 . S
C712 C711 1.363 . S
C712 C718 1.428 1_545 S
H713 C709 0.930 . S
H714 C711 0.929 . S
S715 N716 1.613 . S
S715 N717 1.610 . S
N716 S715 1.613 . S
N716 C719 1.350 . S
N717 S715 1.610 . S
N717 C718 1.351 . S
C718 C712 1.428 1_565 S
C718 N717 1.351 . S
C718 C719 1.434 . S
C719 C710 1.429 . S
C719 N716 1.350 . S
C719 C718 1.434 . S
C720 C721 1.369 . S
C720 C722 1.419 . S
C720 H724 0.930 . S
C721 C720 1.369 . S
C721 C730 1.429 . S
C722 C720 1.419 . S
C722 C723 1.363 . S
C722 H725 0.929 . S
C723 C722 1.363 . S
C723 C729 1.428 . S
H724 C720 0.930 . S
H725 C722 0.929 . S
S726 N727 1.613 . S
S726 N728 1.610 . S
N727 S726 1.613 . S
N727 C730 1.350 . S
N728 S726 1.610 . S
N728 C729 1.351 . S
C729 C723 1.428 . S
C729 N728 1.351 . S
C729 C730 1.434 . S
C730 C721 1.429 . S
C730 N727 1.350 . S
C730 C729 1.434 . S
C731 C732 1.369 . S
C731 C733 1.419 . S
C731 H735 0.930 . S
C732 C731 1.369 . S
C732 C741 1.429 . S
C733 C731 1.419 . S
C733 C734 1.363 . S
C733 H736 0.929 . S
C734 C733 1.363 . S
C734 C740 1.428 . S
H735 C731 0.930 . S
H736 C733 0.929 . S
S737 N738 1.613 . S
S737 N739 1.610 . S
N738 S737 1.613 . S
N738 C741 1.350 . S
N739 S737 1.610 . S
N739 C740 1.351 . S
C740 C734 1.428 . S
C740 N739 1.351 . S
C740 C741 1.434 . S
C741 C732 1.429 . S
C741 N738 1.350 . S
C741 C740 1.434 . S
C742 C743 1.369 1_554 S
C742 C744 1.419 . S
C742 H746 0.930 1_554 S
C743 C742 1.369 1_556 S
C743 C752 1.429 1_556 S
C744 C742 1.419 . S
C744 C745 1.363 . S
C744 H747 0.929 . S
C745 C744 1.363 . S
C745 C751 1.428 . S
H746 C742 0.930 1_556 S
H747 C744 0.929 . S
S748 N749 1.613 . S
S748 N750 1.610 . S
N749 S748 1.613 . S
N749 C752 1.350 . S
N750 S748 1.610 . S
N750 C751 1.351 . S
C751 C745 1.428 . S
C751 N750 1.351 . S
C751 C752 1.434 . S
C752 C743 1.429 1_554 S
C752 N749 1.350 . S
C752 C751 1.434 . S
C753 C754 1.369 . S
C753 C755 1.419 . S
C753 H757 0.930 . S
C754 C753 1.369 . S
C754 C763 1.429 . S
C755 C753 1.419 . S
C755 C756 1.363 . S
C755 H758 0.929 . S
C756 C755 1.363 . S
C756 C762 1.428 . S
H757 C753 0.930 . S
H758 C755 0.929 . S
S759 N760 1.613 . S
S759 N761 1.610 . S
N760 S759 1.613 . S
N760 C763 1.350 . S
N761 S759 1.610 . S
N761 C762 1.351 . S
C762 C756 1.428 . S
C762 N761 1.351 . S
C762 C763 1.434 . S
C763 C754 1.429 . S
C763 N760 1.350 . S
C763 C762 1.434 . S
C764 C765 1.369 . S
C764 C766 1.419 . S
C764 H768 0.930 . S
C765 C764 1.369 . S
C765 C774 1.429 . S
C766 C764 1.419 . S
C766 C767 1.363 . S
C766 H769 0.929 . S
C767 C766 1.363 . S
C767 C773 1.428 . S
H768 C764 0.930 . S
H769 C766 0.929 . S
S770 N771 1.613 . S
S770 N772 1.610 . S
N771 S770 1.613 . S
N771 C774 1.350 . S
N772 S770 1.610 . S
N772 C773 1.351 . S
C773 C767 1.428 . S
C773 N772 1.351 . S
C773 C774 1.434 . S
C774 C765 1.429 . S
C774 N771 1.350 . S
C774 C773 1.434 . S
C775 C776 1.369 . S
C775 C777 1.419 . S
C775 H779 0.930 . S
C776 C775 1.369 . S
C776 C785 1.429 . S
C777 C775 1.419 . S
C777 C778 1.363 . S
C777 H780 0.929 . S
C778 C777 1.363 . S
C778 C784 1.428 . S
H779 C775 0.930 . S
H780 C777 0.929 . S
S781 N782 1.613 . S
S781 N783 1.610 . S
N782 S781 1.613 . S
N782 C785 1.350 . S
N783 S781 1.610 . S
N783 C784 1.351 . S
C784 C778 1.428 . S
C784 N783 1.351 . S
C784 C785 1.434 . S
C785 C776 1.429 . S
C785 N782 1.350 . S
C785 C784 1.434 . S
C786 C787 1.369 . S
C786 C788 1.419 . S
C786 H790 0.930 . S
C787 C786 1.369 . S
C787 C796 1.429 . S
C788 C786 1.419 . S
C788 C789 1.363 1_556 S
C788 H791 0.929 . S
C789 C788 1.363 1_554 S
C789 C795 1.428 . S
H790 C786 0.930 . S
H791 C788 0.929 . S
S792 N793 1.613 . S
S792 N794 1.610 . S
N793 S792 1.613 . S
N793 C796 1.350 1_554 S
N794 S792 1.610 . S
N794 C795 1.351 . S
C795 C789 1.428 . S
C795 N794 1.351 . S
C795 C796 1.434 1_554 S
C796 C787 1.429 . S
C796 N793 1.350 1_556 S
C796 C795 1.434 1_556 S
C797 C798 1.369 . S
C797 C799 1.419 . S
C797 H801 0.930 . S
C798 C797 1.369 . S
C798 C807 1.429 . S
C799 C797 1.419 . S
C799 C800 1.363 . S
C799 H802 0.929 . S
C800 C799 1.363 . S
C800 C806 1.428 . S
H801 C797 0.930 . S
H802 C799 0.929 . S
S803 N804 1.613 . S
S803 N805 1.610 . S
N804 S803 1.613 . S
N804 C807 1.350 . S
N805 S803 1.610 . S
N805 C806 1.351 . S
C806 C800 1.428 . S
C806 N805 1.351 . S
C806 C807 1.434 . S
C807 C798 1.429 . S
C807 N804 1.350 . S
C807 C806 1.434 . S
C808 C809 1.369 1_554 S
C808 C810 1.419 . S
C808 H812 0.930 . S
C809 C808 1.369 1_556 S
C809 C818 1.429 . S
C810 C808 1.419 . S
C810 C811 1.363 . S
C810 H813 0.929 . S
C811 C810 1.363 . S
C811 C817 1.428 1_554 S
H812 C808 0.930 . S
H813 C810 0.929 . S
S814 N815 1.613 . S
S814 N816 1.610 . S
N815 S814 1.613 . S
N815 C818 1.350 . S
N816 S814 1.610 . S
N816 C817 1.351 . S
C817 C811 1.428 1_556 S
C817 N816 1.351 . S
C817 C818 1.434 . S
C818 C809 1.429 . S
C818 N815 1.350 . S
C818 C817 1.434 . S
C819 C820 1.369 . S
C819 C821 1.419 . S
C819 H823 0.930 . S
C820 C819 1.369 . S
C820 C829 1.429 . S
C821 C819 1.419 . S
C821 C822 1.363 . S
C821 H824 0.929 . S
C822 C821 1.363 . S
C822 C828 1.428 . S
H823 C819 0.930 . S
H824 C821 0.929 . S
S825 N826 1.613 . S
S825 N827 1.610 . S
N826 S825 1.613 . S
N826 C829 1.350 . S
N827 S825 1.610 . S
N827 C828 1.351 . S
C828 C822 1.428 . S
C828 N827 1.351 . S
C828 C829 1.434 . S
C829 C820 1.429 . S
C829 N826 1.350 . S
C829 C828 1.434 . S
C830 C831 1.369 . S
C830 C832 1.419 . S
C830 H834 0.930 . S
C831 C830 1.369 . S
C831 C840 1.429 . S
C832 C830 1.419 . S
C832 C833 1.363 . S
C832 H835 0.929 . S
C833 C832 1.363 . S
C833 C839 1.428 . S
H834 C830 0.930 . S
H835 C832 0.929 . S
S836 N837 1.613 . S
S836 N838 1.610 . S
N837 S836 1.613 . S
N837 C840 1.350 . S
N838 S836 1.610 . S
N838 C839 1.351 . S
C839 C833 1.428 . S
C839 N838 1.351 . S
C839 C840 1.434 . S
C840 C831 1.429 . S
C840 N837 1.350 . S
C840 C839 1.434 . S
C841 C842 1.369 . S
C841 C843 1.419 . S
C841 H845 0.930 . S
C842 C841 1.369 . S
C842 C851 1.429 . S
C843 C841 1.419 . S
C843 C844 1.363 . S
C843 H846 0.929 . S
C844 C843 1.363 . S
C844 C850 1.428 . S
H845 C841 0.930 . S
H846 C843 0.929 . S
S847 N848 1.613 . S
S847 N849 1.610 . S
N848 S847 1.613 . S
N848 C851 1.350 . S
N849 S847 1.610 . S
N849 C850 1.351 . S
C850 C844 1.428 . S
C850 N849 1.351 . S
C850 C851 1.434 . S
C851 C842 1.429 . S
C851 N848 1.350 . S
C851 C850 1.434 . S
C852 C853 1.369 . S
C852 C854 1.419 . S
C852 H856 0.930 . S
C853 C852 1.369 . S
C853 C862 1.429 . S
C854 C852 1.419 . S
C854 C855 1.363 . S
C854 H857 0.929 . S
C855 C854 1.363 . S
C855 C861 1.428 . S
H856 C852 0.930 . S
H857 C854 0.929 . S
S858 N859 1.613 . S
S858 N860 1.610 . S
N859 S858 1.613 . S
N859 C862 1.350 . S
N860 S858 1.610 . S
N860 C861 1.351 . S
C861 C855 1.428 . S
C861 N860 1.351 . S
C861 C862 1.434 . S
C862 C853 1.429 . S
C862 N859 1.350 . S
C862 C861 1.434 . S
C863 C864 1.369 . S
C863 C865 1.419 . S
C863 H867 0.930 . S
C864 C863 1.369 . S
C864 C873 1.429 . S
C865 C863 1.419 . S
C865 C866 1.363 . S
C865 H868 0.929 . S
C866 C865 1.363 . S
C866 C872 1.428 . S
H867 C863 0.930 . S
H868 C865 0.929 . S
S869 N870 1.613 . S
S869 N871 1.610 . S
N870 S869 1.613 . S
N870 C873 1.350 . S
N871 S869 1.610 . S
N871 C872 1.351 . S
C872 C866 1.428 . S
C872 N871 1.351 . S
C872 C873 1.434 . S
C873 C864 1.429 . S
C873 N870 1.350 . S
C873 C872 1.434 . S
C874 C875 1.369 . S
C874 C876 1.419 . S
C874 H878 0.930 . S
C875 C874 1.369 . S
C875 C884 1.429 1_556 S
C876 C874 1.419 . S
C876 C877 1.363 1_556 S
C876 H879 0.929 . S
C877 C876 1.363 1_554 S
C877 C883 1.428 . S
H878 C874 0.930 . S
H879 C876 0.929 . S
S880 N881 1.613 . S
S880 N882 1.610 . S
N881 S880 1.613 . S
N881 C884 1.350 . S
N882 S880 1.610 . S
N882 C883 1.351 . S
C883 C877 1.428 . S
C883 N882 1.351 . S
C883 C884 1.434 . S
C884 C875 1.429 1_554 S
C884 N881 1.350 . S
C884 C883 1.434 . S
C885 C886 1.369 . S
C885 C887 1.419 . S
C885 H889 0.930 . S
C886 C885 1.369 . S
C886 C895 1.429 . S
C887 C885 1.419 . S
C887 C888 1.363 . S
C887 H890 0.929 . S
C888 C887 1.363 . S
C888 C894 1.428 . S
H889 C885 0.930 . S
H890 C887 0.929 . S
S891 N892 1.613 . S
S891 N893 1.610 1_655 S
N892 S891 1.613 . S
N892 C895 1.350 1_655 S
N893 S891 1.610 1_455 S
N893 C894 1.351 . S
C894 C888 1.428 . S
C894 N893 1.351 . S
C894 C895 1.434 . S
C895 C886 1.429 . S
C895 N892 1.350 1_455 S
C895 C894 1.434 . S
C896 C897 1.369 1_556 S
C896 C898 1.419 . S
C896 H900 0.930 . S
C897 C896 1.369 1_554 S
C897 C906 1.429 . S
C898 C896 1.419 . S
C898 C899 1.363 . S
C898 H901 0.929 . S
C899 C898 1.363 . S
C899 C905 1.428 1_556 S
H900 C896 0.930 . S
H901 C898 0.929 . S
S902 N903 1.613 . S
S902 N904 1.610 . S
N903 S902 1.613 . S
N903 C906 1.350 . S
N904 S902 1.610 . S
N904 C905 1.351 . S
C905 C899 1.428 1_554 S
C905 N904 1.351 . S
C905 C906 1.434 . S
C906 C897 1.429 . S
C906 N903 1.350 . S
C906 C905 1.434 . S
C907 C908 1.369 . S
C907 C909 1.419 . S
C907 H911 0.930 . S
C908 C907 1.369 . S
C908 C917 1.429 . S
C909 C907 1.419 . S
C909 C910 1.363 . S
C909 H912 0.929 . S
C910 C909 1.363 . S
C910 C916 1.428 . S
H911 C907 0.930 . S
H912 C909 0.929 . S
S913 N914 1.613 . S
S913 N915 1.610 1_556 S
N914 S913 1.613 . S
N914 C917 1.350 . S
N915 S913 1.610 1_554 S
N915 C916 1.351 1_554 S
C916 C910 1.428 . S
C916 N915 1.351 1_556 S
C916 C917 1.434 . S
C917 C908 1.429 . S
C917 N914 1.350 . S
C917 C916 1.434 . S
C918 C919 1.369 . S
C918 C920 1.419 . S
C918 H922 0.930 . S
C919 C918 1.369 . S
C919 C928 1.429 . S
C920 C918 1.419 . S
C920 C921 1.363 . S
C920 H923 0.929 . S
C921 C920 1.363 . S
C921 C927 1.428 . S
H922 C918 0.930 . S
H923 C920 0.929 . S
S924 N925 1.613 . S
S924 N926 1.610 . S
N925 S924 1.613 . S
N925 C928 1.350 . S
N926 S924 1.610 . S
N926 C927 1.351 . S
C927 C921 1.428 . S
C927 N926 1.351 . S
C927 C928 1.434 . S
C928 C919 1.429 . S
C928 N925 1.350 . S
C928 C927 1.434 . S
C929 C930 1.369 . S
C929 C931 1.419 . S
C929 H933 0.930 . S
C930 C929 1.369 . S
C930 C939 1.429 . S
C931 C929 1.419 . S
C931 C932 1.363 . S
C931 H934 0.929 . S
C932 C931 1.363 . S
C932 C938 1.428 . S
H933 C929 0.930 . S
H934 C931 0.929 . S
S935 N936 1.613 . S
S935 N937 1.610 . S
N936 S935 1.613 . S
N936 C939 1.350 . S
N937 S935 1.610 . S
N937 C938 1.351 . S
C938 C932 1.428 . S
C938 N937 1.351 . S
C938 C939 1.434 . S
C939 C930 1.429 . S
C939 N936 1.350 . S
C939 C938 1.434 . S
C940 C941 1.369 . S
C940 C942 1.419 . S
C940 H944 0.930 . S
C941 C940 1.369 . S
C941 C950 1.429 . S
C942 C940 1.419 . S
C942 C943 1.363 . S
C942 H945 0.929 . S
C943 C942 1.363 . S
C943 C949 1.428 . S
H944 C940 0.930 . S
H945 C942 0.929 . S
S946 N947 1.613 . S
S946 N948 1.610 . S
N947 S946 1.613 . S
N947 C950 1.350 . S
N948 S946 1.610 . S
N948 C949 1.351 . S
C949 C943 1.428 . S
C949 N948 1.351 . S
C949 C950 1.434 . S
C950 C941 1.429 . S
C950 N947 1.350 . S
C950 C949 1.434 . S
C951 C952 1.369 . S
C951 C953 1.419 . S
C951 H955 0.930 . S
C952 C951 1.369 . S
C952 C961 1.429 . S
C953 C951 1.419 . S
C953 C954 1.363 . S
C953 H956 0.929 . S
C954 C953 1.363 . S
C954 C960 1.428 . S
H955 C951 0.930 . S
H956 C953 0.929 . S
S957 N958 1.613 . S
S957 N959 1.610 . S
N958 S957 1.613 . S
N958 C961 1.350 . S
N959 S957 1.610 . S
N959 C960 1.351 . S
C960 C954 1.428 . S
C960 N959 1.351 . S
C960 C961 1.434 . S
C961 C952 1.429 . S
C961 N958 1.350 . S
C961 C960 1.434 . S
C962 C963 1.369 1_556 S
C962 C964 1.419 . S
C962 H966 0.930 . S
C963 C962 1.369 1_554 S
C963 C972 1.429 . S
C964 C962 1.419 . S
C964 C965 1.363 . S
C964 H967 0.929 . S
C965 C964 1.363 . S
C965 C971 1.428 1_556 S
H966 C962 0.930 . S
H967 C964 0.929 . S
S968 N969 1.613 . S
S968 N970 1.610 . S
N969 S968 1.613 . S
N969 C972 1.350 . S
N970 S968 1.610 . S
N970 C971 1.351 . S
C971 C965 1.428 1_554 S
C971 N970 1.351 . S
C971 C972 1.434 . S
C972 C963 1.429 . S
C972 N969 1.350 . S
C972 C971 1.434 . S
C973 C974 1.369 . S
C973 C975 1.419 . S
C973 H977 0.930 . S
C974 C973 1.369 . S
C974 C983 1.429 . S
C975 C973 1.419 . S
C975 C976 1.363 . S
C975 H978 0.929 1_655 S
C976 C975 1.363 . S
C976 C982 1.428 . S
H977 C973 0.930 . S
H978 C975 0.929 1_455 S
S979 N980 1.613 . S
S979 N981 1.610 . S
N980 S979 1.613 . S
N980 C983 1.350 . S
N981 S979 1.610 . S
N981 C982 1.351 . S
C982 C976 1.428 . S
C982 N981 1.351 . S
C982 C983 1.434 . S
C983 C974 1.429 . S
C983 N980 1.350 . S
C983 C982 1.434 . S
C984 C985 1.369 . S
C984 C986 1.419 . S
C984 H988 0.930 . S
C985 C984 1.369 . S
C985 C994 1.429 . S
C986 C984 1.419 . S
C986 C987 1.363 . S
C986 H989 0.929 . S
C987 C986 1.363 . S
C987 C993 1.428 . S
H988 C984 0.930 . S
H989 C986 0.929 . S
S990 N991 1.613 . S
S990 N992 1.610 . S
N991 S990 1.613 . S
N991 C994 1.350 . S
N992 S990 1.610 . S
N992 C993 1.351 . S
C993 C987 1.428 . S
C993 N992 1.351 . S
C993 C994 1.434 . S
C994 C985 1.429 . S
C994 N991 1.350 . S
C994 C993 1.434 . S
C995 C996 1.369 . S
C995 C997 1.419 . S
C995 H999 0.930 . S
C996 C995 1.369 . S
C996 C1005 1.429 . S
C997 C995 1.419 . S
C997 C998 1.363 . S
C997 H1000 0.929 . S
C998 C997 1.363 . S
C998 C1004 1.428 . S
H999 C995 0.930 . S
H1000 C997 0.929 . S
S1001 N1002 1.613 . S
S1001 N1003 1.610 . S
N1002 S1001 1.613 . S
N1002 C1005 1.350 . S
N1003 S1001 1.610 . S
N1003 C1004 1.351 . S
C1004 C998 1.428 . S
C1004 N1003 1.351 . S
C1004 C1005 1.434 . S
C1005 C996 1.429 . S
C1005 N1002 1.350 . S
C1005 C1004 1.434 . S
C1006 C1007 1.369 . S
C1006 C1008 1.419 . S
C1006 H1010 0.930 . S
C1007 C1006 1.369 . S
C1007 C1016 1.429 . S
C1008 C1006 1.419 . S
C1008 C1009 1.363 . S
C1008 H1011 0.929 . S
C1009 C1008 1.363 . S
C1009 C1015 1.428 . S
H1010 C1006 0.930 . S
H1011 C1008 0.929 . S
S1012 N1013 1.613 . S
S1012 N1014 1.610 1_554 S
N1013 S1012 1.613 . S
N1013 C1016 1.350 1_554 S
N1014 S1012 1.610 1_556 S
N1014 C1015 1.351 . S
C1015 C1009 1.428 . S
C1015 N1014 1.351 . S
C1015 C1016 1.434 . S
C1016 C1007 1.429 . S
C1016 N1013 1.350 1_556 S
C1016 C1015 1.434 . S
C1017 C1018 1.369 . S
C1017 C1019 1.419 . S
C1017 H1021 0.930 . S
C1018 C1017 1.369 . S
C1018 C1027 1.429 . S
C1019 C1017 1.419 . S
C1019 C1020 1.363 1_455 S
C1019 H1022 0.929 . S
C1020 C1019 1.363 1_655 S
C1020 C1026 1.428 . S
H1021 C1017 0.930 . S
H1022 C1019 0.929 . S
S1023 N1024 1.613 1_655 S
S1023 N1025 1.610 . S
N1024 S1023 1.613 1_455 S
N1024 C1027 1.350 . S
N1025 S1023 1.610 . S
N1025 C1026 1.351 . S
C1026 C1020 1.428 . S
C1026 N1025 1.351 . S
C1026 C1027 1.434 1_655 S
C1027 C1018 1.429 . S
C1027 N1024 1.350 . S
C1027 C1026 1.434 1_455 S
C1028 C1029 1.369 . S
C1028 C1030 1.419 1_554 S
C1028 H1032 0.930 . S
C1029 C1028 1.369 . S
C1029 C1038 1.429 . S
C1030 C1028 1.419 1_556 S
C1030 C1031 1.363 . S
C1030 H1033 0.929 . S
C1031 C1030 1.363 . S
C1031 C1037 1.428 1_556 S
H1032 C1028 0.930 . S
H1033 C1030 0.929 . S
S1034 N1035 1.613 . S
S1034 N1036 1.610 . S
N1035 S1034 1.613 . S
N1035 C1038 1.350 . S
N1036 S1034 1.610 . S
N1036 C1037 1.351 . S
C1037 C1031 1.428 1_554 S
C1037 N1036 1.351 . S
C1037 C1038 1.434 . S
C1038 C1029 1.429 . S
C1038 N1035 1.350 . S
C1038 C1037 1.434 . S
C1039 C1040 1.369 . S
C1039 C1041 1.419 . S
C1039 H1043 0.930 . S
C1040 C1039 1.369 . S
C1040 C1049 1.429 . S
C1041 C1039 1.419 . S
C1041 C1042 1.363 1_655 S
C1041 H1044 0.929 . S
C1042 C1041 1.363 1_455 S
C1042 C1048 1.428 . S
H1043 C1039 0.930 . S
H1044 C1041 0.929 . S
S1045 N1046 1.613 1_455 S
S1045 N1047 1.610 . S
N1046 S1045 1.613 1_655 S
N1046 C1049 1.350 . S
N1047 S1045 1.610 . S
N1047 C1048 1.351 . S
C1048 C1042 1.428 . S
C1048 N1047 1.351 . S
C1048 C1049 1.434 1_455 S
C1049 C1040 1.429 . S
C1049 N1046 1.350 . S
C1049 C1048 1.434 1_655 S
C1050 C1051 1.369 . S
C1050 C1052 1.419 . S
C1050 H1054 0.930 . S
C1051 C1050 1.369 . S
C1051 C1060 1.429 . S
C1052 C1050 1.419 . S
C1052 C1053 1.363 . S
C1052 H1055 0.929 . S
C1053 C1052 1.363 . S
C1053 C1059 1.428 . S
H1054 C1050 0.930 . S
H1055 C1052 0.929 . S
S1056 N1057 1.613 . S
S1056 N1058 1.610 . S
N1057 S1056 1.613 . S
N1057 C1060 1.350 . S
N1058 S1056 1.610 . S
N1058 C1059 1.351 . S
C1059 C1053 1.428 . S
C1059 N1058 1.351 . S
C1059 C1060 1.434 . S
C1060 C1051 1.429 . S
C1060 N1057 1.350 . S
C1060 C1059 1.434 . S
C1061 C1062 1.369 . S
C1061 C1063 1.419 . S
C1061 H1065 0.930 . S
C1062 C1061 1.369 . S
C1062 C1071 1.429 . S
C1063 C1061 1.419 . S
C1063 C1064 1.363 . S
C1063 H1066 0.929 . S
C1064 C1063 1.363 . S
C1064 C1070 1.428 . S
H1065 C1061 0.930 . S
H1066 C1063 0.929 . S
S1067 N1068 1.613 . S
S1067 N1069 1.610 . S
N1068 S1067 1.613 . S
N1068 C1071 1.350 . S
N1069 S1067 1.610 . S
N1069 C1070 1.351 . S
C1070 C1064 1.428 . S
C1070 N1069 1.351 . S
C1070 C1071 1.434 . S
C1071 C1062 1.429 . S
C1071 N1068 1.350 . S
C1071 C1070 1.434 . S
C1072 C1073 1.369 . S
C1072 C1074 1.419 . S
C1072 H1076 0.930 . S
C1073 C1072 1.369 . S
C1073 C1082 1.429 . S
C1074 C1072 1.419 . S
C1074 C1075 1.363 . S
C1074 H1077 0.929 . S
C1075 C1074 1.363 . S
C1075 C1081 1.428 . S
H1076 C1072 0.930 . S
H1077 C1074 0.929 . S
S1078 N1079 1.613 . S
S1078 N1080 1.610 . S
N1079 S1078 1.613 . S
N1079 C1082 1.350 . S
N1080 S1078 1.610 . S
N1080 C1081 1.351 . S
C1081 C1075 1.428 . S
C1081 N1080 1.351 . S
C1081 C1082 1.434 . S
C1082 C1073 1.429 . S
C1082 N1079 1.350 . S
C1082 C1081 1.434 . S
C1083 C1084 1.369 . S
C1083 C1085 1.419 . S
C1083 H1087 0.930 . S
C1084 C1083 1.369 . S
C1084 C1093 1.429 . S
C1085 C1083 1.419 . S
C1085 C1086 1.363 . S
C1085 H1088 0.929 . S
C1086 C1085 1.363 . S
C1086 C1092 1.428 . S
H1087 C1083 0.930 . S
H1088 C1085 0.929 . S
S1089 N1090 1.613 . S
S1089 N1091 1.610 . S
N1090 S1089 1.613 . S
N1090 C1093 1.350 . S
N1091 S1089 1.610 . S
N1091 C1092 1.351 . S
C1092 C1086 1.428 . S
C1092 N1091 1.351 . S
C1092 C1093 1.434 . S
C1093 C1084 1.429 . S
C1093 N1090 1.350 . S
C1093 C1092 1.434 . S
C1094 C1095 1.369 . S
C1094 C1096 1.419 . S
C1094 H1098 0.930 . S
C1095 C1094 1.369 . S
C1095 C1104 1.429 . S
C1096 C1094 1.419 . S
C1096 C1097 1.363 . S
C1096 H1099 0.929 . S
C1097 C1096 1.363 . S
C1097 C1103 1.428 . S
H1098 C1094 0.930 . S
H1099 C1096 0.929 . S
S1100 N1101 1.613 . S
S1100 N1102 1.610 1_554 S
N1101 S1100 1.613 . S
N1101 C1104 1.350 . S
N1102 S1100 1.610 1_556 S
N1102 C1103 1.351 1_556 S
C1103 C1097 1.428 . S
C1103 N1102 1.351 1_554 S
C1103 C1104 1.434 . S
C1104 C1095 1.429 . S
C1104 N1101 1.350 . S
C1104 C1103 1.434 . S
C1105 C1106 1.369 1_655 S
C1105 C1107 1.419 . S
C1105 H1109 0.930 . S
C1106 C1105 1.369 1_455 S
C1106 C1115 1.429 . S
C1107 C1105 1.419 . S
C1107 C1108 1.363 . S
C1107 H1110 0.929 . S
C1108 C1107 1.363 . S
C1108 C1114 1.428 . S
H1109 C1105 0.930 . S
H1110 C1107 0.929 . S
S1111 N1112 1.613 . S
S1111 N1113 1.628 . S
N1112 S1111 1.613 . S
N1112 C1115 1.350 . S
N1113 S1111 1.628 . S
N1113 C1114 1.347 1_455 S
C1114 C1108 1.428 . S
C1114 N1113 1.347 1_655 S
C1114 C1115 1.434 1_655 S
C1115 C1106 1.429 . S
C1115 N1112 1.350 . S
C1115 C1114 1.434 1_455 S
C1116 C1117 1.369 . S
C1116 C1118 1.419 . S
C1116 H1120 0.930 . S
C1117 C1116 1.369 . S
C1117 C1126 1.429 1_556 S
C1118 C1116 1.419 . S
C1118 C1119 1.363 1_556 S
C1118 H1121 0.929 . S
C1119 C1118 1.363 1_554 S
C1119 C1125 1.428 . S
H1120 C1116 0.930 . S
H1121 C1118 0.929 . S
S1122 N1123 1.613 . S
S1122 N1124 1.610 . S
N1123 S1122 1.613 . S
N1123 C1126 1.350 . S
N1124 S1122 1.610 . S
N1124 C1125 1.351 . S
C1125 C1119 1.428 . S
C1125 N1124 1.351 . S
C1125 C1126 1.434 . S
C1126 C1117 1.429 1_554 S
C1126 N1123 1.350 . S
C1126 C1125 1.434 . S
C1127 C1128 1.369 1_455 S
C1127 C1129 1.419 . S
C1127 H1131 0.930 . S
C1128 C1127 1.369 1_655 S
C1128 C1137 1.429 . S
C1129 C1127 1.419 . S
C1129 C1130 1.363 . S
C1129 H1132 0.929 . S
C1130 C1129 1.363 . S
C1130 C1136 1.428 . S
H1131 C1127 0.930 . S
H1132 C1129 0.929 . S
S1133 N1134 1.613 . S
S1133 N1135 1.610 1_655 S
N1134 S1133 1.613 . S
N1134 C1137 1.350 . S
N1135 S1133 1.610 1_455 S
N1135 C1136 1.351 . S
C1136 C1130 1.428 . S
C1136 N1135 1.351 . S
C1136 C1137 1.434 1_455 S
C1137 C1128 1.429 . S
C1137 N1134 1.350 . S
C1137 C1136 1.434 1_655 S
C1138 C1139 1.369 . S
C1138 C1140 1.419 . S
C1138 H1142 0.930 . S
C1139 C1138 1.369 . S
C1139 C1148 1.429 . S
C1140 C1138 1.419 . S
C1140 C1141 1.363 . S
C1140 H1143 0.929 . S
C1141 C1140 1.363 . S
C1141 C1147 1.428 . S
H1142 C1138 0.930 . S
H1143 C1140 0.929 . S
S1144 N1145 1.613 . S
S1144 N1146 1.610 . S
N1145 S1144 1.613 . S
N1145 C1148 1.350 . S
N1146 S1144 1.610 . S
N1146 C1147 1.351 . S
C1147 C1141 1.428 . S
C1147 N1146 1.351 . S
C1147 C1148 1.434 . S
C1148 C1139 1.429 . S
C1148 N1145 1.350 . S
C1148 C1147 1.434 . S
C1149 C1150 1.369 . S
C1149 C1151 1.419 . S
C1149 H1153 0.930 . S
C1150 C1149 1.369 . S
C1150 C1159 1.429 . S
C1151 C1149 1.419 . S
C1151 C1152 1.363 . S
C1151 H1154 0.929 . S
C1152 C1151 1.363 . S
C1152 C1158 1.428 . S
H1153 C1149 0.930 . S
H1154 C1151 0.929 . S
S1155 N1156 1.613 . S
S1155 N1157 1.610 . S
N1156 S1155 1.613 . S
N1156 C1159 1.350 . S
N1157 S1155 1.610 . S
N1157 C1158 1.351 . S
C1158 C1152 1.428 . S
C1158 N1157 1.351 . S
C1158 C1159 1.434 . S
C1159 C1150 1.429 . S
C1159 N1156 1.350 . S
C1159 C1158 1.434 . S
C545 C266 0.843 1_455 S
C547 C28 0.817 . S
C556 C142 0.536 . S
C558 C40 0.555 . S
C567 C176 0.822 . S
C569 C96 0.837 . S
C578 C210 0.555 . S
C580 C108 0.546 . S
C589 C278 0.803 . S
C591 C538 0.850 1_655 S
C600 C312 0.542 . S
C602 C436 0.539 1_455 S
C611 C470 0.821 . S
C613 C368 0.838 . S
C622 C482 0.555 . S
C624 C402 0.547 . S
C633 C232 1.764 . S
C635 C6 1.680 . S
C644 C37 1.208 . S
C646 C244 1.343 . S
C655 C164 1.933 . S
C657 C69 1.795 . S
C666 C173 1.602 . S
C668 C105 1.550 . S
C677 C300 1.676 . S
C679 C504 1.771 . S
C688 C516 1.342 . S
C690 C309 1.218 . S
C699 C341 1.792 . S
C701 C414 1.937 . S
C710 C375 1.547 . S
C712 C443 1.606 . S
C721 C62 1.772 . S
C723 C198 1.674 . S
C732 C207 1.217 . S
C734 C74 1.344 . S
C743 C130 1.937 . S
C745 C239 1.798 . S
C754 C139 1.555 . S
C756 C1 1.600 . S
C765 C448 1.679 . S
C767 C334 1.771 . S
C776 C346 1.343 . S
C778 C479 1.209 . S
C787 C511 1.790 . S
C789 C380 1.936 . S
C798 C275 1.607 . S
C800 C409 1.549 . S
C809 C328 1.706 . S
C811 C17 1.715 . S
C820 C525 1.686 1_554 S
C822 C35 1.598 . S
C831 C71 1.753 . S
C833 C389 1.838 . S
C842 C464 1.183 . S
C844 C103 1.531 . S
C853 C532 1.572 . S
C855 C153 2.151 . S
C864 C396 1.772 . S
C866 C171 2.139 . S
C875 C221 2.164 . S
C877 C457 2.184 . S
C886 C255 1.931 1_455 S
C888 C321 1.399 . S
C897 C56 1.708 . S
C899 C289 1.713 . S
C908 C307 1.598 . S
C910 C253 1.687 1_556 S
C919 C124 1.837 . S
C921 C343 1.750 . S
C930 C377 1.537 . S
C932 C185 1.177 . S
C941 C260 1.570 . S
C943 C425 2.151 . S
C952 C117 1.775 . S
C954 C445 2.138 . S
C963 C493 2.168 . S
C965 C192 2.182 . S
C974 C49 1.397 . S
C976 C527 1.931 1_655 S
C985 C498 1.708 . S
C987 C187 1.715 . S
C996 C355 1.685 . S
C998 C205 1.593 . S
C1007 C241 1.750 1_556 S
C1009 C423 1.837 . S
C1018 C137 1.525 . S
C1020 C287 1.190 . S
C1029 C362 1.556 . S
C1031 C119 2.153 . S
C1040 C430 1.763 . S
C1042 C3 2.143 . S
C1051 C294 2.183 . S
C1053 C51 2.165 . S
C1062 C491 1.396 . S
C1064 C85 1.932 . S
C1073 C226 1.710 . S
C1075 C459 1.712 . S
C1084 C83 1.687 . S
C1086 C477 1.596 . S
C1095 C158 1.838 . S
C1097 C513 1.752 1_554 S
C1106 C22 1.180 . S
C1108 C411 1.534 . S
C1117 C90 1.570 . S
C1119 C391 2.151 . S
C1128 C273 2.141 . S
C1130 C151 1.767 . S
C1139 C15 2.182 . S
C1141 C323 2.167 . S
C1150 C219 1.405 . S
C1152 C357 1.930 . S
