# Generated by pormake.
# Topology umf, (4)-cn, num edge types: 1
# Building blocks:
#     Node 0, Type 0, BuildingBlock: ICAMEG_clean_sbu_1, # of connection points: 4
#     Node 1, Type 0, BuildingBlock: ICAMEG_clean_sbu_1, # of connection points: 4
#     Node 2, Type 0, BuildingBlock: ICAMEG_clean_sbu_1, # of connection points: 4
#     Node 3, Type 0, BuildingBlock: ICAMEG_clean_sbu_1, # of connection points: 4
#     Node 4, Type 0, BuildingBlock: ICAMEG_clean_sbu_1, # of connection points: 4
#     Node 5, Type 0, BuildingBlock: ICAMEG_clean_sbu_1, # of connection points: 4
#     Node 6, Type 0, BuildingBlock: ICAMEG_clean_sbu_1, # of connection points: 4
#     Node 7, Type 0, BuildingBlock: ICAMEG_clean_sbu_1, # of connection points: 4
#     Edge 8, Type (0, 0), None
#     Edge 9, Type (0, 0), None
#     Edge 10, Type (0, 0), None
#     Edge 11, Type (0, 0), None
#     Edge 12, Type (0, 0), None
#     Edge 13, Type (0, 0), None
#     Edge 14, Type (0, 0), None
#     Edge 15, Type (0, 0), None
#     Edge 16, Type (0, 0), None
#     Edge 17, Type (0, 0), None
#     Edge 18, Type (0, 0), None
#     Edge 19, Type (0, 0), None
#     Edge 20, Type (0, 0), None
#     Edge 21, Type (0, 0), None
#     Edge 22, Type (0, 0), None
#     Edge 23, Type (0, 0), None
# Relax obj value: 0.111
# Max RMSD: 0.200
# Mean RMSD: 0.200
data_MOF--net-umf--node1-ICAMEG_clean_sbu_1--edge1-none
_symmetry_space_group_name_H-M    P1
_symmetry_Int_Tables_number       1
_symmetry_cell_setting            triclinic
loop_
_symmetry_equiv_pos_as_xyz
'x, y, z'
_cell_length_a     14.522377
_cell_length_b     14.361454
_cell_length_c     26.979494
_cell_angle_alpha  90.633013
_cell_angle_beta   89.14331
_cell_angle_gamma 90.070806
loop_
_atom_site_label
_atom_site_type_symbol
_atom_site_fract_x
_atom_site_fract_y
_atom_site_fract_z
_atom_type_partial_charge
Co0 Co 0.14082 0.17904 0.12474 0.0
Co1 Co 0.95979 0.25215 0.19361 0.0
O2 O 0.04385 0.25859 0.14083 0.0
C3 C -0.00151 0.15577 0.04365 0.0
O4 O 0.94204 0.13426 0.07983 0.0
C5 C 0.97135 0.44522 0.23577 0.0
O6 O 0.98838 0.41105 0.27943 0.0
O7 O 0.06281 0.23932 0.243 0.0
O8 O 0.18367 0.18045 0.19839 0.0
H9 H 0.8898 0.28993 0.36772 0.0
H10 H 0.25841 0.23831 0.03956 0.0
O11 O 0.0844 0.17415 0.05359 0.0
H12 H 0.29149 0.48327 0.16742 0.0
H13 H 0.29013 0.92371 0.02698 0.0
H14 H 0.3358 0.17343 0.15076 0.0
H15 H 0.17834 0.35688 0.17819 0.0
H16 H 0.15912 0.01871 0.05678 0.0
O17 O 0.96802 0.39259 0.19757 0.0
H18 H 0.94716 0.19269 0.2997 0.0
H19 H 0.77269 0.34336 0.2035 0.0
H20 H 0.46751 0.08733 0.12018 0.0
H21 H 0.37464 0.36232 0.02768 0.0
H22 H 0.4455 0.96233 0.05283 0.0
H23 H 0.39228 0.48532 0.09223 0.0
O24 O 0.07569 0.06374 0.14174 0.0
H25 H 0.79444 0.43811 0.06934 0.0
H26 H 0.79783 0.14139 0.15832 0.0
H27 H 0.65361 0.19152 0.1154 0.0
H28 H 0.65119 0.34102 0.07276 0.0
H29 H 0.93026 0.38815 0.11304 0.0
H30 H 0.69893 0.4198 0.27278 0.0
H31 H 0.762 0.39998 0.35683 0.0
O32 O 0.9561 0.10561 0.19054 0.0
C33 C 0.14446 0.20466 0.2405 0.0
C34 C 0.85897 0.29555 0.33238 0.0
C35 C 0.75314 0.36979 0.27904 0.0
N36 N 0.86628 0.2608 0.24613 0.0
C37 C 0.89201 0.24099 0.29303 0.0
C38 C 0.79371 0.32123 0.23942 0.0
C39 C 0.78827 0.35886 0.32589 0.0
C40 C 0.26459 0.2928 0.06717 0.0
N41 N 0.21244 0.28975 0.10963 0.0
C42 C 0.33116 0.36215 0.06062 0.0
C43 C 0.34133 0.43092 0.09694 0.0
C44 C 0.28485 0.42979 0.13914 0.0
C45 C 0.22024 0.35841 0.14482 0.0
C46 C 0.30085 0.98007 0.05292 0.0
C47 C 0.32602 0.11948 0.12307 0.0
C48 C 0.22736 0.03357 0.07009 0.0
N49 N 0.24122 0.10225 0.10449 0.0
C50 C 0.40137 0.07074 0.10492 0.0
C51 C 0.38881 0.00169 0.0685 0.0
C52 C 0.01208 0.04249 0.17192 0.0
C53 C 0.79264 0.37294 0.08893 0.0
C54 C 0.79432 0.207 0.1399 0.0
C55 C 0.71479 0.23396 0.11504 0.0
C56 C 0.71332 0.31862 0.09069 0.0
N57 N 0.86684 0.26635 0.14317 0.0
C58 C 0.8698 0.34436 0.11443 0.0
Co59 Co 0.8172 0.15589 0.63258 0.0
Co60 Co 0.72779 0.96977 0.69368 0.0
O61 O 0.73028 0.05871 0.64238 0.0
C62 C 0.8339 0.02017 0.54576 0.0
O63 O 0.84211 0.95811 0.58026 0.0
C64 C 0.53662 0.00038 0.737 0.0
O65 O 0.57385 0.0254 0.77905 0.0
O66 O 0.74647 0.06931 0.74579 0.0
O67 O 0.81396 0.19067 0.70704 0.0
H68 H 0.66701 0.90442 0.86688 0.0
H69 H 0.77346 0.29574 0.55531 0.0
O70 O 0.82493 0.10782 0.5587 0.0
H71 H 0.5125 0.30393 0.67415 0.0
H72 H 0.10328 0.29467 0.56126 0.0
H73 H 0.83228 0.35154 0.66926 0.0
H74 H 0.6375 0.18988 0.68293 0.0
H75 H 0.98489 0.17406 0.57191 0.0
O76 O 0.58761 0.98574 0.69862 0.0
H77 H 0.77634 0.95437 0.80258 0.0
H78 H 0.64017 0.77607 0.69953 0.0
H79 H 0.95412 0.47144 0.66356 0.0
H80 H 0.65295 0.41594 0.54708 0.0
H81 H 0.09674 0.43588 0.61559 0.0
H82 H 0.52082 0.41951 0.60642 0.0
O83 O 0.92529 0.08012 0.64746 0.0
H84 H 0.53528 0.80815 0.56659 0.0
H85 H 0.83477 0.81272 0.64792 0.0
H86 H 0.78578 0.66894 0.60207 0.0
H87 H 0.63411 0.6658 0.56282 0.0
H88 H 0.58441 0.94283 0.61531 0.0
H89 H 0.55132 0.70789 0.76552 0.0
H90 H 0.55521 0.77837 0.84963 0.0
O91 O 0.87353 0.95593 0.6896 0.0
C92 C 0.78608 0.14884 0.74689 0.0
C93 C 0.66436 0.87334 0.83043 0.0
C94 C 0.59951 0.76331 0.77376 0.0
N95 N 0.71289 0.87493 0.74517 0.0
C96 C 0.72587 0.90215 0.79322 0.0
C97 C 0.65422 0.80136 0.73615 0.0
C98 C 0.60163 0.80268 0.82079 0.0
C99 C 0.71645 0.29751 0.58131 0.0
N100 N 0.71322 0.23656 0.61973 0.0
C101 C 0.64836 0.36549 0.57653 0.0
C102 C 0.57437 0.36778 0.60996 0.0
C103 C 0.56973 0.30305 0.64797 0.0
C104 C 0.64044 0.23801 0.65248 0.0
C105 C 0.04487 0.30762 0.5856 0.0
C106 C 0.89191 0.33912 0.64565 0.0
C107 C 0.97696 0.24008 0.591 0.0
N108 N 0.90234 0.25612 0.62097 0.0
C109 C 0.96009 0.40725 0.64241 0.0
C110 C 0.03863 0.38923 0.61376 0.0
C111 C 0.94077 0.00838 0.67249 0.0
C112 C 0.60038 0.80618 0.58548 0.0
C113 C 0.76759 0.80757 0.63272 0.0
C114 C 0.74127 0.72885 0.60542 0.0
C115 C 0.65586 0.72726 0.58298 0.0
N116 N 0.70756 0.87856 0.64085 0.0
C117 C 0.62837 0.8823 0.61394 0.0
Co118 Co 0.84647 0.8143 0.12818 0.0
Co119 Co 0.02459 0.72872 0.19149 0.0
O120 O 0.93723 0.72719 0.14144 0.0
C121 C 0.98513 0.83778 0.04105 0.0
O122 O 0.04114 0.87365 0.07343 0.0
C123 C 0.95202 0.54461 0.23124 0.0
O124 O 0.89702 0.58577 0.26367 0.0
O125 O 0.92954 0.76385 0.24406 0.0
O126 O 0.80522 0.81665 0.20215 0.0
H127 H 0.12321 0.53529 0.32174 0.0
H128 H 0.7144 0.76216 0.04729 0.0
O129 O 0.90156 0.81469 0.05521 0.0
H130 H 0.69227 0.51178 0.16986 0.0
H131 H 0.73097 0.09068 0.04049 0.0
H132 H 0.64781 0.83388 0.15276 0.0
H133 H 0.80307 0.63993 0.1803 0.0
H134 H 0.84833 0.98183 0.06905 0.0
O135 O 0.00016 0.59126 0.20052 0.0
H136 H 0.02695 0.66896 0.29775 0.0
H137 H 0.23412 0.75128 0.19692 0.0
H138 H 0.52723 0.93452 0.12246 0.0
H139 H 0.59779 0.63883 0.03694 0.0
H140 H 0.57018 0.06409 0.06174 0.0
H141 H 0.58752 0.51135 0.09789 0.0
O142 O 0.91919 0.92297 0.14593 0.0
H143 H 0.1582 0.50841 0.06173 0.0
H144 H 0.16947 0.82664 0.12783 0.0
H145 H 0.28646 0.77649 0.06649 0.0
H146 H 0.28348 0.61297 0.03493 0.0
H147 H 0.04755 0.55975 0.12319 0.0
H148 H 0.33914 0.63555 0.22783 0.0
H149 H 0.2803 0.51851 0.28748 0.0
O150 O 0.04444 0.87363 0.18515 0.0
C151 C 0.84766 0.79847 0.24322 0.0
C152 C 0.14902 0.58638 0.29617 0.0
C153 C 0.26973 0.64076 0.24279 0.0
N154 N 0.12002 0.71341 0.24143 0.0
C155 C 0.09467 0.66166 0.28163 0.0
C156 C 0.20977 0.70885 0.22584 0.0
C157 C 0.23701 0.57551 0.27612 0.0
C158 C 0.71124 0.70672 0.07347 0.0
N159 N 0.76654 0.70839 0.11392 0.0
C160 C 0.64494 0.63694 0.06756 0.0
C161 C 0.63828 0.56599 0.10217 0.0
C162 C 0.69682 0.56634 0.14255 0.0
C163 C 0.76026 0.63875 0.148 0.0
C164 C 0.71202 0.03424 0.06484 0.0
C165 C 0.66549 0.88963 0.12772 0.0
C166 C 0.77799 0.97327 0.08157 0.0
N167 N 0.75363 0.90115 0.11146 0.0
C168 C 0.59691 0.94665 0.10999 0.0
C169 C 0.62065 0.01879 0.07754 0.0
C170 C 0.98875 0.94005 0.17151 0.0
C171 C 0.16379 0.57778 0.07738 0.0
C172 C 0.16967 0.75613 0.11551 0.0
C173 C 0.23481 0.72826 0.07973 0.0
C174 C 0.23293 0.63737 0.06159 0.0
N175 N 0.10987 0.69389 0.13629 0.0
C176 C 0.10228 0.60739 0.11426 0.0
Co177 Co 0.16321 0.83477 0.62002 0.0
Co178 Co 0.2524 0.01079 0.68762 0.0
O179 O 0.25278 0.92582 0.6351 0.0
C180 C 0.14914 0.98589 0.54031 0.0
O181 O 0.13303 0.04439 0.57678 0.0
C182 C 0.4353 0.98628 0.73579 0.0
O183 O 0.38992 0.98005 0.77793 0.0
O184 O 0.22485 0.90849 0.73598 0.0
O185 O 0.16075 0.78814 0.69312 0.0
H186 H 0.20625 0.08724 0.85961 0.0
H187 H 0.23144 0.722 0.52982 0.0
O188 O 0.16116 0.89776 0.55011 0.0
H189 H 0.46094 0.67676 0.6593 0.0
H190 H 0.87809 0.73384 0.53288 0.0
H191 H 0.15935 0.62224 0.61262 0.0
H192 H 0.32998 0.78168 0.6736 0.0
H193 H 0.97957 0.84307 0.57483 0.0
O194 O 0.39091 0.98907 0.69526 0.0
H195 H 0.15484 0.02932 0.78196 0.0
H196 H 0.36418 0.18441 0.70793 0.0
H197 H 0.07713 0.52172 0.55245 0.0
H198 H 0.35984 0.61333 0.51469 0.0
H199 H 0.92746 0.57075 0.52038 0.0
H200 H 0.47587 0.59033 0.57938 0.0
O201 O 0.05502 0.90812 0.64184 0.0
H202 H 0.47086 0.16805 0.5696 0.0
H203 H 0.16264 0.17716 0.64455 0.0
H204 H 0.2287 0.32327 0.60746 0.0
H205 H 0.38394 0.31763 0.57043 0.0
H206 H 0.40591 0.03292 0.6124 0.0
H207 H 0.4007 0.26628 0.7853 0.0
H208 H 0.3256 0.21611 0.86346 0.0
O209 O 0.10899 0.03107 0.68335 0.0
C210 C 0.1853 0.8287 0.73462 0.0
C211 C 0.23689 0.11661 0.82706 0.0
C212 C 0.34706 0.2139 0.78479 0.0
N213 N 0.25742 0.10105 0.7404 0.0
C214 C 0.20941 0.08043 0.78229 0.0
C215 C 0.32357 0.16928 0.74064 0.0
C216 C 0.30488 0.18543 0.82863 0.0
C217 C 0.28156 0.71386 0.55791 0.0
N218 N 0.27041 0.75724 0.60289 0.0
C219 C 0.35441 0.65187 0.54916 0.0
C220 C 0.41912 0.63793 0.5858 0.0
C221 C 0.4104 0.68586 0.63066 0.0
C222 C 0.33544 0.74527 0.63854 0.0
C223 C 0.93916 0.70861 0.55086 0.0
C224 C 0.09829 0.64802 0.59503 0.0
C225 C -0.00365 0.7702 0.57624 0.0
N226 N 0.07543 0.74019 0.59809 0.0
C227 C 0.04931 0.58815 0.56372 0.0
C228 C 0.96696 0.61721 0.54364 0.0
C229 C 0.04087 0.97786 0.6696 0.0
C230 C 0.40394 0.17301 0.5876 0.0
C231 C 0.23192 0.18043 0.63207 0.0
C232 C 0.26751 0.25951 0.6088 0.0
C233 C 0.35517 0.25629 0.58764 0.0
N234 N 0.28486 0.10429 0.63828 0.0
C235 C 0.36681 0.0968 0.61259 0.0
Co236 Co 0.1541 0.82902 0.8998 0.0
Co237 Co 0.97409 0.73275 0.83765 0.0
O238 O 0.06206 0.73671 0.88921 0.0
C239 C 0.01835 0.83341 0.98745 0.0
O240 O 0.95561 0.83662 0.9534 0.0
C241 C -0.00692 0.54011 0.79502 0.0
O242 O 0.01708 0.57467 0.75197 0.0
O243 O 0.07351 0.75249 0.78556 0.0
O244 O 0.18923 0.82662 0.82494 0.0
H245 H 0.9169 0.68685 0.66311 0.0
H246 H 0.30091 0.79664 0.97392 0.0
O247 O 0.10536 0.83278 0.97384 0.0
H248 H 0.30539 0.52053 0.86384 0.0
H249 H 0.27471 0.12543 0.97315 0.0
H250 H 0.34499 0.86035 0.86138 0.0
H251 H 0.19143 0.6449 0.85248 0.0
H252 H 0.16283 -0.00194 0.96236 0.0
O253 O 0.99016 0.59225 0.83358 0.0
H254 H 0.9583 0.79289 0.73114 0.0
H255 H 0.79233 0.62869 0.82836 0.0
H256 H 0.45743 0.98852 0.86955 0.0
H257 H 0.42172 0.67782 0.98379 0.0
H258 H 0.42202 0.12258 0.92566 0.0
H259 H 0.42278 0.53734 0.92923 0.0
O260 O 0.07496 0.93473 0.88557 0.0
H261 H 0.83507 0.53853 0.97187 0.0
H262 H 0.80126 0.82136 0.87351 0.0
H263 H 0.66204 0.7542 0.91736 0.0
H264 H 0.68021 0.6106 0.9653 0.0
H265 H 0.96306 0.59948 0.92159 0.0
H266 H 0.72439 0.54997 0.75888 0.0
H267 H 0.79334 0.56981 0.67531 0.0
O268 O 0.95618 0.87916 0.84205 0.0
C269 C 0.15109 0.79483 0.7848 0.0
C270 C 0.88306 0.68067 0.69884 0.0
C271 C 0.77627 0.6029 0.75258 0.0
N272 N 0.88176 0.71762 0.78557 0.0
C273 C 0.908 0.73913 0.73823 0.0
C274 C 0.81251 0.65305 0.79235 0.0
C275 C 0.8149 0.61393 0.70578 0.0
C276 C 0.30202 0.7366 0.94962 0.0
N277 N 0.23907 0.7281 0.91277 0.0
C278 C 0.37067 0.66956 0.95523 0.0
C279 C 0.37135 0.59079 0.92462 0.0
C280 C 0.30536 0.58123 0.88799 0.0
C281 C 0.24022 0.65156 0.88214 0.0
C282 C 0.29079 0.0677 0.94858 0.0
C283 C 0.32952 0.91836 0.88597 0.0
C284 C 0.22821 0.99475 0.94281 0.0
N285 N 0.24809 0.92144 0.91188 0.0
C286 C 0.3931 0.99078 0.89029 0.0
C287 C 0.37338 0.06588 0.92189 0.0
C288 C 0.00484 0.94842 0.85998 0.0
C289 C 0.82492 0.5992 0.94918 0.0
C290 C 0.80473 0.75759 0.89312 0.0
C291 C 0.72844 0.72089 0.91861 0.0
C292 C 0.73868 0.64038 0.94616 0.0
N293 N 0.88412 0.70877 0.89 0.0
C294 C 0.89735 0.63454 0.92062 0.0
Co295 Co 0.15702 0.16654 0.40522 0.0
Co296 Co 0.24826 0.99294 0.33269 0.0
O297 O 0.24461 0.07097 0.39008 0.0
C298 C 0.14691 0.02354 0.48792 0.0
O299 O 0.1301 0.9647 0.45189 0.0
C300 C 0.44398 0.99695 0.36539 0.0
O301 O 0.42809 0.0425 0.40702 0.0
O302 O 0.23989 0.10458 0.28809 0.0
O303 O 0.15041 0.20461 0.33119 0.0
H304 H 0.21691 0.96064 0.15538 0.0
H305 H 0.30997 0.16895 0.47901 0.0
O306 O 0.15724 0.11155 0.47736 0.0
H307 H 0.37252 0.43615 0.37066 0.0
H308 H 0.90587 0.31194 0.51052 0.0
H309 H 0.09341 0.34867 0.35977 0.0
H310 H 0.24077 0.33571 0.35567 0.0
H311 H 0.01675 0.19051 0.48577 0.0
O312 O 0.38746 0.00138 0.32998 0.0
H313 H 0.15316 0.98632 0.23811 0.0
H314 H 0.37925 0.84221 0.29878 0.0
H315 H 0.97227 0.45903 0.37977 0.0
H316 H 0.44549 0.26755 0.49346 0.0
H317 H 0.88707 0.45071 0.45916 0.0
H318 H 0.47708 0.40255 0.44009 0.0
O319 O 0.05131 0.08838 0.39006 0.0
H320 H 0.37529 0.81802 0.47735 0.0
H321 H 0.19523 0.79076 0.32502 0.0
H322 H 0.26009 0.64886 0.36387 0.0
H323 H 0.35718 0.66329 0.43622 0.0
H324 H 0.30891 0.95465 0.43982 0.0
H325 H 0.44599 0.81592 0.21591 0.0
H326 H 0.36675 0.87831 0.14285 0.0
O327 O 0.10462 0.98311 0.33386 0.0
C328 C 0.18534 0.1742 0.28962 0.0
C329 C 0.25392 0.93533 0.18619 0.0
C330 C 0.38168 0.85334 0.22034 0.0
N331 N 0.26233 0.91772 0.27335 0.0
C332 C 0.21547 0.94614 0.23324 0.0
C333 C 0.34156 0.86628 0.26716 0.0
C334 C 0.33804 0.88986 0.17951 0.0
C335 C 0.32077 0.22882 0.45589 0.0
N336 N 0.26198 0.24853 0.41826 0.0
C337 C 0.3987 0.28387 0.46416 0.0
C338 C 0.4169 0.35963 0.43395 0.0
C339 C 0.35823 0.37852 0.39516 0.0
C340 C 0.28179 0.32137 0.38741 0.0
C341 C 0.95086 0.32191 0.479 0.0
C342 C 0.05791 0.34116 0.39463 0.0
C343 C 0.01466 0.2536 0.46473 0.0
N344 N 0.07007 0.26491 0.42386 0.0
C345 C -0.00856 0.40797 0.40671 0.0
C346 C 0.94025 0.40032 0.45016 0.0
C347 C 0.03766 0.02743 0.35668 0.0
C348 C 0.33736 0.81108 0.44328 0.0
C349 C 0.23581 0.79703 0.3578 0.0
C350 C 0.27266 0.71697 0.37896 0.0
C351 C 0.32658 0.7247 0.42076 0.0
N352 N 0.25835 0.88311 0.37569 0.0
C353 C 0.30055 0.8893 0.42082 0.0
Co354 Co 0.81467 0.15574 0.91103 0.0
Co355 Co 0.98954 0.26253 0.84939 0.0
O356 O 0.89393 0.25662 0.89671 0.0
C357 C 0.96158 0.15214 0.99158 0.0
O358 O 0.02095 0.13955 0.9554 0.0
C359 C 0.96415 0.44158 0.79777 0.0
O360 O 0.95222 0.39457 0.75652 0.0
O361 O 0.89714 0.22449 0.79703 0.0
O362 O 0.77578 0.15439 0.83741 0.0
H363 H 0.08061 0.2699 0.67988 0.0
H364 H 0.80392 0.3066 0.98894 0.0
O365 O 0.87387 0.1558 0.98175 0.0
H366 H 0.5381 0.35862 0.88145 0.0
H367 H 0.76675 0.85152 0.99002 0.0
H368 H 0.60049 0.1119 0.9169 0.0
H369 H 0.64092 0.2272 0.86597 0.0
H370 H 0.85037 0.98214 0.95873 0.0
O371 O 0.96143 0.39963 0.83925 0.0
H372 H 0.02757 0.18434 0.75017 0.0
H373 H 0.16088 0.38381 0.84257 0.0
H374 H 0.51505 0.98857 0.95996 0.0
H375 H 0.70258 0.44288 1.00363 0.0
H376 H 0.59507 0.8532 0.99229 0.0
H377 H 0.56832 0.46761 0.95133 0.0
O378 O 0.89672 0.05599 0.88757 0.0
H379 H 0.07705 0.49637 0.97829 0.0
H380 H 0.16787 0.20085 0.90074 0.0
H381 H 0.28236 0.28801 0.94935 0.0
H382 H 0.23761 0.44135 0.98605 0.0
H383 H 0.96968 0.40876 0.92669 0.0
H384 H 0.24566 0.44426 0.77204 0.0
H385 H 0.20184 0.39309 0.68775 0.0
O386 O 0.02157 0.12053 0.85466 0.0
C387 C 0.81827 0.18251 0.79704 0.0
C388 C 0.11025 0.28617 0.71465 0.0
C389 C 0.19819 0.38687 0.76703 0.0
N390 N 0.0889 0.2779 0.80151 0.0
C391 C 0.07551 0.2408 0.75575 0.0
C392 C 0.15225 0.34837 0.80765 0.0
C393 C 0.1741 0.35777 0.71984 0.0
C394 C 0.74366 0.31471 0.96657 0.0
N395 N 0.7256 0.25321 0.92893 0.0
C396 C 0.68749 0.39279 0.97484 0.0
C397 C 0.61213 0.40772 0.9449 0.0
C398 C 0.59532 0.34673 0.90585 0.0
C399 C 0.65429 0.27133 0.89762 0.0
C400 C 0.72885 0.90732 0.97364 0.0
C401 C 0.63865 0.05606 0.9324 0.0
C402 C 0.77693 0.98164 0.95376 0.0
N403 N 0.73298 0.05439 0.93184 0.0
C404 C 0.58831 0.98472 0.95537 0.0
C405 C 0.63354 0.90879 0.97479 0.0
C406 C 0.97041 0.04785 0.86334 0.0
C407 C 0.09907 0.43223 0.96034 0.0
C408 C 0.15052 0.26683 0.91504 0.0
C409 C 0.21394 0.31546 0.94401 0.0
C410 C 0.1887 0.40061 0.96523 0.0
N411 N 0.06739 0.30444 0.90446 0.0
C412 C 0.03867 0.38205 0.93052 0.0
Co413 Co 0.83644 0.84036 0.40756 0.0
Co414 Co 0.73215 0.00888 0.34249 0.0
O415 O 0.73711 0.91938 0.39317 0.0
C416 C 0.84187 0.98576 0.49267 0.0
O417 O 0.86963 0.04525 0.45944 0.0
C418 C 0.53251 0.94908 0.35795 0.0
O419 O 0.55369 0.87977 0.38691 0.0
O420 O 0.75676 0.90649 0.29141 0.0
O421 O 0.84263 0.80081 0.3334 0.0
H422 H 0.6563 0.07124 0.17276 0.0
H423 H 0.67975 0.8302 0.47997 0.0
O424 O 0.83026 0.89836 0.47985 0.0
H425 H 0.65063 0.54775 0.3763 0.0
H426 H 0.13477 0.79037 0.48634 0.0
H427 H 0.91801 0.65164 0.37118 0.0
H428 H 0.77552 0.65704 0.36151 0.0
H429 H 0.98979 0.86658 0.47226 0.0
O430 O 0.59506 0.99544 0.33642 0.0
H431 H 0.76883 0.02059 0.23244 0.0
H432 H 0.64263 0.2004 0.34036 0.0
H433 H 0.06166 0.57063 0.39148 0.0
H434 H 0.54581 0.72689 0.4912 0.0
H435 H 0.16503 0.63236 0.45308 0.0
H436 H 0.53282 0.58264 0.44132 0.0
O437 O 0.93313 0.92738 0.39042 0.0
H438 H 0.55091 0.14496 0.48656 0.0
H439 H 0.83564 0.16519 0.39009 0.0
H440 H 0.78254 0.30559 0.43936 0.0
H441 H 0.63432 0.29621 0.48493 0.0
H442 H 0.60373 0.01887 0.43266 0.0
H443 H 0.54631 0.26622 0.27809 0.0
H444 H 0.54564 0.19682 0.19358 0.0
O445 O 0.87298 0.03204 0.34079 0.0
C446 C 0.80897 0.83368 0.29251 0.0
C447 C 0.6556 0.10188 0.20908 0.0
C448 C 0.59426 0.2113 0.268 0.0
N449 N 0.71232 0.1024 0.29186 0.0
C450 C 0.71937 0.07282 0.24377 0.0
C451 C 0.65315 0.17477 0.30324 0.0
C452 C 0.59357 0.17236 0.22087 0.0
C453 C 0.67664 0.76659 0.45845 0.0
N454 N 0.74231 0.74682 0.42297 0.0
C455 C 0.59981 0.70872 0.4649 0.0
C456 C 0.59167 0.62811 0.43636 0.0
C457 C 0.65792 0.60839 0.40013 0.0
C458 C 0.73136 0.66994 0.39302 0.0
C459 C 0.08432 0.7556 0.46478 0.0
C460 C 0.95964 0.67875 0.40043 0.0
C461 C 0.00136 0.79916 0.45561 0.0
N462 N 0.93833 0.76019 0.42458 0.0
C463 C 0.04131 0.63196 0.41096 0.0
C464 C 0.10209 0.66877 0.44472 0.0
C465 C 0.94291 0.98911 0.35846 0.0
C466 C 0.60993 0.15503 0.46234 0.0
C467 C 0.76809 0.16923 0.40569 0.0
C468 C 0.741 0.24392 0.43629 0.0
C469 C 0.65845 0.23822 0.46274 0.0
N470 N 0.71016 0.09729 0.39726 0.0
C471 C 0.63835 0.0843 0.42997 0.0
loop_
_geom_bond_atom_site_label_1
_geom_bond_atom_site_label_2
_geom_bond_distance
_geom_bond_site_symmetry_2
_ccdc_geom_bond_type
Co0 O2 2.143 . S
Co0 O8 2.074 . S
Co0 O11 2.093 . S
Co0 O24 2.097 . S
Co0 N41 2.151 . S
Co0 N49 2.214 . S
Co1 O2 2.160 1_655 S
Co1 O7 2.058 1_655 S
Co1 O17 2.057 . S
Co1 O32 2.037 . S
Co1 N36 2.145 . S
Co1 N57 2.257 . S
O2 Co0 2.143 . S
O2 Co1 2.160 1_455 S
C3 O4 1.278 1_455 S
C3 O11 1.224 . S
O4 C3 1.278 1_655 S
C5 O6 1.253 . S
C5 O17 1.226 1_455 S
O6 C5 1.253 . S
O7 Co1 2.058 1_455 S
O7 C33 1.269 . S
O8 Co0 2.074 . S
O8 C33 1.257 . S
H9 C34 0.930 . S
H10 C40 0.930 . S
O11 Co0 2.093 . S
O11 C3 1.224 . S
H12 C44 0.929 . S
H13 C46 0.930 . S
H14 C47 0.930 . S
H15 C45 0.929 . S
H16 C48 0.928 . S
O17 Co1 2.057 . S
O17 C5 1.226 1_655 S
H18 C37 0.929 . S
H19 C38 0.929 . S
H20 C50 0.931 . S
H21 C42 0.929 . S
H22 C51 0.930 . S
H23 C43 0.931 . S
O24 Co0 2.097 . S
O24 C52 1.214 1_455 S
H25 C53 0.929 . S
H26 C54 0.929 . S
H27 C55 0.930 . S
H28 C56 0.929 . S
H29 C58 0.930 . S
H30 C35 0.930 . S
H31 C39 0.930 . S
O32 Co1 2.037 . S
O32 C52 1.234 . S
C33 O7 1.269 . S
C33 O8 1.257 . S
C34 H9 0.930 . S
C34 C37 1.388 . S
C34 C39 1.418 . S
C35 H30 0.930 . S
C35 C38 1.404 . S
C35 C39 1.353 . S
N36 Co1 2.145 . S
N36 C37 1.397 . S
N36 C38 1.334 . S
C37 H18 0.929 . S
C37 C34 1.388 . S
C37 N36 1.397 . S
C38 H19 0.929 . S
C38 C35 1.404 . S
C38 N36 1.334 . S
C39 H31 0.930 . S
C39 C34 1.418 . S
C39 C35 1.353 . S
C40 H10 0.930 . S
C40 N41 1.330 . S
C40 C42 1.446 . S
N41 Co0 2.151 . S
N41 C40 1.330 . S
N41 C45 1.418 . S
C42 H21 0.929 . S
C42 C40 1.446 . S
C42 C43 1.332 . S
C43 H23 0.931 . S
C43 C42 1.332 . S
C43 C44 1.267 . S
C44 H12 0.929 . S
C44 C43 1.267 . S
C44 C45 1.251 . S
C45 H15 0.929 . S
C45 N41 1.418 . S
C45 C44 1.251 . S
C46 H13 0.930 . S
C46 C48 1.406 1_565 S
C46 C51 1.261 . S
C47 H14 0.930 . S
C47 N49 1.325 1_565 S
C47 C50 1.357 . S
C48 H16 0.928 . S
C48 C46 1.406 1_545 S
C48 N49 1.261 . S
N49 Co0 2.214 . S
N49 C47 1.325 1_545 S
N49 C48 1.261 . S
C50 H20 0.931 . S
C50 C47 1.357 . S
C50 C51 1.312 . S
C51 H22 0.930 . S
C51 C46 1.261 . S
C51 C50 1.312 . S
C52 O24 1.214 1_655 S
C52 O32 1.234 . S
C53 H25 0.929 . S
C53 C56 1.391 . S
C53 C58 1.391 . S
C54 H26 0.929 . S
C54 C55 1.390 . S
C54 N57 1.391 . S
C55 H27 0.930 . S
C55 C54 1.390 . S
C55 C56 1.392 . S
C56 H28 0.929 . S
C56 C53 1.391 . S
C56 C55 1.392 . S
N57 Co1 2.257 . S
N57 C54 1.391 . S
N57 C58 1.388 . S
C58 H29 0.930 . S
C58 C53 1.391 . S
C58 N57 1.388 . S
Co59 O61 2.143 . S
Co59 O67 2.074 . S
Co59 O70 2.093 . S
Co59 O83 2.097 . S
Co59 N100 2.151 . S
Co59 N108 2.214 . S
Co60 O61 2.160 1_565 S
Co60 O66 2.058 1_565 S
Co60 O76 2.057 . S
Co60 O91 2.037 . S
Co60 N95 2.145 . S
Co60 N116 2.257 . S
O61 Co59 2.143 . S
O61 Co60 2.160 1_545 S
C62 O63 1.278 1_545 S
C62 O70 1.224 . S
O63 C62 1.278 1_565 S
C64 O65 1.253 . S
C64 O76 1.226 1_545 S
O65 C64 1.253 . S
O66 Co60 2.058 1_545 S
O66 C92 1.269 . S
O67 Co59 2.074 . S
O67 C92 1.257 . S
H68 C93 0.930 . S
H69 C99 0.930 . S
O70 Co59 2.093 . S
O70 C62 1.224 . S
H71 C103 0.929 . S
H72 C105 0.930 . S
H73 C106 0.930 . S
H74 C104 0.929 . S
H75 C107 0.928 . S
O76 Co60 2.057 . S
O76 C64 1.226 1_565 S
H77 C96 0.929 . S
H78 C97 0.929 . S
H79 C109 0.931 . S
H80 C101 0.929 . S
H81 C110 0.930 . S
H82 C102 0.931 . S
O83 Co59 2.097 . S
O83 C111 1.214 1_545 S
H84 C112 0.929 . S
H85 C113 0.929 . S
H86 C114 0.930 . S
H87 C115 0.929 . S
H88 C117 0.930 . S
H89 C94 0.930 . S
H90 C98 0.930 . S
O91 Co60 2.037 . S
O91 C111 1.234 . S
C92 O66 1.269 . S
C92 O67 1.257 . S
C93 H68 0.930 . S
C93 C96 1.388 . S
C93 C98 1.418 . S
C94 H89 0.930 . S
C94 C97 1.404 . S
C94 C98 1.353 . S
N95 Co60 2.145 . S
N95 C96 1.397 . S
N95 C97 1.334 . S
C96 H77 0.929 . S
C96 C93 1.388 . S
C96 N95 1.397 . S
C97 H78 0.929 . S
C97 C94 1.404 . S
C97 N95 1.334 . S
C98 H90 0.930 . S
C98 C93 1.418 . S
C98 C94 1.353 . S
C99 H69 0.930 . S
C99 N100 1.330 . S
C99 C101 1.446 . S
N100 Co59 2.151 . S
N100 C99 1.330 . S
N100 C104 1.418 . S
C101 H80 0.929 . S
C101 C99 1.446 . S
C101 C102 1.332 . S
C102 H82 0.931 . S
C102 C101 1.332 . S
C102 C103 1.267 . S
C103 H71 0.929 . S
C103 C102 1.267 . S
C103 C104 1.251 . S
C104 H74 0.929 . S
C104 N100 1.418 . S
C104 C103 1.251 . S
C105 H72 0.930 . S
C105 C107 1.406 1_455 S
C105 C110 1.261 . S
C106 H73 0.930 . S
C106 N108 1.325 1_455 S
C106 C109 1.357 . S
C107 H75 0.928 . S
C107 C105 1.406 1_655 S
C107 N108 1.261 . S
N108 Co59 2.214 . S
N108 C106 1.325 1_655 S
N108 C107 1.261 . S
C109 H79 0.931 . S
C109 C106 1.357 . S
C109 C110 1.312 . S
C110 H81 0.930 . S
C110 C105 1.261 . S
C110 C109 1.312 . S
C111 O83 1.214 1_565 S
C111 O91 1.234 . S
C112 H84 0.929 . S
C112 C115 1.391 . S
C112 C117 1.391 . S
C113 H85 0.929 . S
C113 C114 1.390 . S
C113 N116 1.391 . S
C114 H86 0.930 . S
C114 C113 1.390 . S
C114 C115 1.392 . S
C115 H87 0.929 . S
C115 C112 1.391 . S
C115 C114 1.392 . S
N116 Co60 2.257 . S
N116 C113 1.391 . S
N116 C117 1.388 . S
C117 H88 0.930 . S
C117 C112 1.391 . S
C117 N116 1.388 . S
Co118 O120 2.143 . S
Co118 O126 2.074 . S
Co118 O129 2.093 . S
Co118 O142 2.097 . S
Co118 N159 2.151 . S
Co118 N167 2.214 . S
Co119 O120 2.160 1_455 S
Co119 O125 2.058 1_455 S
Co119 O135 2.057 . S
Co119 O150 2.037 . S
Co119 N154 2.145 . S
Co119 N175 2.257 . S
O120 Co118 2.143 . S
O120 Co119 2.160 1_655 S
C121 O122 1.278 1_655 S
C121 O129 1.224 . S
O122 C121 1.278 1_455 S
C123 O124 1.253 . S
C123 O135 1.226 1_655 S
O124 C123 1.253 . S
O125 Co119 2.058 1_655 S
O125 C151 1.269 . S
O126 Co118 2.074 . S
O126 C151 1.257 . S
H127 C152 0.930 . S
H128 C158 0.930 . S
O129 Co118 2.093 . S
O129 C121 1.224 . S
H130 C162 0.929 . S
H131 C164 0.930 . S
H132 C165 0.930 . S
H133 C163 0.929 . S
H134 C166 0.928 . S
O135 Co119 2.057 . S
O135 C123 1.226 1_455 S
H136 C155 0.929 . S
H137 C156 0.929 . S
H138 C168 0.931 . S
H139 C160 0.929 . S
H140 C169 0.930 . S
H141 C161 0.931 . S
O142 Co118 2.097 . S
O142 C170 1.214 1_655 S
H143 C171 0.929 . S
H144 C172 0.929 . S
H145 C173 0.930 . S
H146 C174 0.929 . S
H147 C176 0.930 . S
H148 C153 0.930 . S
H149 C157 0.930 . S
O150 Co119 2.037 . S
O150 C170 1.234 . S
C151 O125 1.269 . S
C151 O126 1.257 . S
C152 H127 0.930 . S
C152 C155 1.388 . S
C152 C157 1.418 . S
C153 H148 0.930 . S
C153 C156 1.404 . S
C153 C157 1.353 . S
N154 Co119 2.145 . S
N154 C155 1.397 . S
N154 C156 1.334 . S
C155 H136 0.929 . S
C155 C152 1.388 . S
C155 N154 1.397 . S
C156 H137 0.929 . S
C156 C153 1.404 . S
C156 N154 1.334 . S
C157 H149 0.930 . S
C157 C152 1.418 . S
C157 C153 1.353 . S
C158 H128 0.930 . S
C158 N159 1.330 . S
C158 C160 1.446 . S
N159 Co118 2.151 . S
N159 C158 1.330 . S
N159 C163 1.418 . S
C160 H139 0.929 . S
C160 C158 1.446 . S
C160 C161 1.332 . S
C161 H141 0.931 . S
C161 C160 1.332 . S
C161 C162 1.267 . S
C162 H130 0.929 . S
C162 C161 1.267 . S
C162 C163 1.251 . S
C163 H133 0.929 . S
C163 N159 1.418 . S
C163 C162 1.251 . S
C164 H131 0.930 . S
C164 C166 1.406 1_545 S
C164 C169 1.261 . S
C165 H132 0.930 . S
C165 N167 1.325 1_545 S
C165 C168 1.357 . S
C166 H134 0.928 . S
C166 C164 1.406 1_565 S
C166 N167 1.261 . S
N167 Co118 2.214 . S
N167 C165 1.325 1_565 S
N167 C166 1.261 . S
C168 H138 0.931 . S
C168 C165 1.357 . S
C168 C169 1.312 . S
C169 H140 0.930 . S
C169 C164 1.261 . S
C169 C168 1.312 . S
C170 O142 1.214 1_455 S
C170 O150 1.234 . S
C171 H143 0.929 . S
C171 C174 1.391 . S
C171 C176 1.391 . S
C172 H144 0.929 . S
C172 C173 1.390 . S
C172 N175 1.391 . S
C173 H145 0.930 . S
C173 C172 1.390 . S
C173 C174 1.392 . S
C174 H146 0.929 . S
C174 C171 1.391 . S
C174 C173 1.392 . S
N175 Co119 2.257 . S
N175 C172 1.391 . S
N175 C176 1.388 . S
C176 H147 0.930 . S
C176 C171 1.391 . S
C176 N175 1.388 . S
Co177 O179 2.143 . S
Co177 O185 2.074 . S
Co177 O188 2.093 . S
Co177 O201 2.097 . S
Co177 N218 2.151 . S
Co177 N226 2.214 . S
Co178 O179 2.160 1_545 S
Co178 O184 2.058 1_545 S
Co178 O194 2.057 . S
Co178 O209 2.037 . S
Co178 N213 2.145 . S
Co178 N234 2.257 . S
O179 Co177 2.143 . S
O179 Co178 2.160 1_565 S
C180 O181 1.278 1_565 S
C180 O188 1.224 . S
O181 C180 1.278 1_545 S
C182 O183 1.253 . S
C182 O194 1.226 1_565 S
O183 C182 1.253 . S
O184 Co178 2.058 1_565 S
O184 C210 1.269 . S
O185 Co177 2.074 . S
O185 C210 1.257 . S
H186 C211 0.930 . S
H187 C217 0.930 . S
O188 Co177 2.093 . S
O188 C180 1.224 . S
H189 C221 0.929 . S
H190 C223 0.930 . S
H191 C224 0.930 . S
H192 C222 0.929 . S
H193 C225 0.928 . S
O194 Co178 2.057 . S
O194 C182 1.226 1_545 S
H195 C214 0.929 . S
H196 C215 0.929 . S
H197 C227 0.931 . S
H198 C219 0.929 . S
H199 C228 0.930 . S
H200 C220 0.931 . S
O201 Co177 2.097 . S
O201 C229 1.214 1_565 S
H202 C230 0.929 . S
H203 C231 0.929 . S
H204 C232 0.930 . S
H205 C233 0.929 . S
H206 C235 0.930 . S
H207 C212 0.930 . S
H208 C216 0.930 . S
O209 Co178 2.037 . S
O209 C229 1.234 . S
C210 O184 1.269 . S
C210 O185 1.257 . S
C211 H186 0.930 . S
C211 C214 1.388 . S
C211 C216 1.418 . S
C212 H207 0.930 . S
C212 C215 1.404 . S
C212 C216 1.353 . S
N213 Co178 2.145 . S
N213 C214 1.397 . S
N213 C215 1.334 . S
C214 H195 0.929 . S
C214 C211 1.388 . S
C214 N213 1.397 . S
C215 H196 0.929 . S
C215 C212 1.404 . S
C215 N213 1.334 . S
C216 H208 0.930 . S
C216 C211 1.418 . S
C216 C212 1.353 . S
C217 H187 0.930 . S
C217 N218 1.330 . S
C217 C219 1.446 . S
N218 Co177 2.151 . S
N218 C217 1.330 . S
N218 C222 1.418 . S
C219 H198 0.929 . S
C219 C217 1.446 . S
C219 C220 1.332 . S
C220 H200 0.931 . S
C220 C219 1.332 . S
C220 C221 1.267 . S
C221 H189 0.929 . S
C221 C220 1.267 . S
C221 C222 1.251 . S
C222 H192 0.929 . S
C222 N218 1.418 . S
C222 C221 1.251 . S
C223 H190 0.930 . S
C223 C225 1.406 1_655 S
C223 C228 1.261 . S
C224 H191 0.930 . S
C224 N226 1.325 1_655 S
C224 C227 1.357 . S
C225 H193 0.928 . S
C225 C223 1.406 1_455 S
C225 N226 1.261 . S
N226 Co177 2.214 . S
N226 C224 1.325 1_455 S
N226 C225 1.261 . S
C227 H197 0.931 . S
C227 C224 1.357 . S
C227 C228 1.312 . S
C228 H199 0.930 . S
C228 C223 1.261 . S
C228 C227 1.312 . S
C229 O201 1.214 1_545 S
C229 O209 1.234 . S
C230 H202 0.929 . S
C230 C233 1.391 . S
C230 C235 1.391 . S
C231 H203 0.929 . S
C231 C232 1.390 . S
C231 N234 1.391 . S
C232 H204 0.930 . S
C232 C231 1.390 . S
C232 C233 1.392 . S
C233 H205 0.929 . S
C233 C230 1.391 . S
C233 C232 1.392 . S
N234 Co178 2.257 . S
N234 C231 1.391 . S
N234 C235 1.388 . S
C235 H206 0.930 . S
C235 C230 1.391 . S
C235 N234 1.388 . S
Co236 O238 2.143 . S
Co236 O244 2.074 . S
Co236 O247 2.093 . S
Co236 O260 2.097 . S
Co236 N277 2.151 . S
Co236 N285 2.214 . S
Co237 O238 2.160 1_655 S
Co237 O243 2.058 1_655 S
Co237 O253 2.057 . S
Co237 O268 2.037 . S
Co237 N272 2.145 . S
Co237 N293 2.257 . S
O238 Co236 2.143 . S
O238 Co237 2.160 1_455 S
C239 O240 1.278 1_455 S
C239 O247 1.224 . S
O240 C239 1.278 1_655 S
C241 O242 1.253 . S
C241 O253 1.226 1_455 S
O242 C241 1.253 . S
O243 Co237 2.058 1_455 S
O243 C269 1.269 . S
O244 Co236 2.074 . S
O244 C269 1.257 . S
H245 C270 0.930 . S
H246 C276 0.930 . S
O247 Co236 2.093 . S
O247 C239 1.224 . S
H248 C280 0.929 . S
H249 C282 0.930 . S
H250 C283 0.930 . S
H251 C281 0.929 . S
H252 C284 0.928 . S
O253 Co237 2.057 . S
O253 C241 1.226 1_655 S
H254 C273 0.929 . S
H255 C274 0.929 . S
H256 C286 0.931 . S
H257 C278 0.929 . S
H258 C287 0.930 . S
H259 C279 0.931 . S
O260 Co236 2.097 . S
O260 C288 1.214 1_455 S
H261 C289 0.929 . S
H262 C290 0.929 . S
H263 C291 0.930 . S
H264 C292 0.929 . S
H265 C294 0.930 . S
H266 C271 0.930 . S
H267 C275 0.930 . S
O268 Co237 2.037 . S
O268 C288 1.234 . S
C269 O243 1.269 . S
C269 O244 1.257 . S
C270 H245 0.930 . S
C270 C273 1.388 . S
C270 C275 1.418 . S
C271 H266 0.930 . S
C271 C274 1.404 . S
C271 C275 1.353 . S
N272 Co237 2.145 . S
N272 C273 1.397 . S
N272 C274 1.334 . S
C273 H254 0.929 . S
C273 C270 1.388 . S
C273 N272 1.397 . S
C274 H255 0.929 . S
C274 C271 1.404 . S
C274 N272 1.334 . S
C275 H267 0.930 . S
C275 C270 1.418 . S
C275 C271 1.353 . S
C276 H246 0.930 . S
C276 N277 1.330 . S
C276 C278 1.446 . S
N277 Co236 2.151 . S
N277 C276 1.330 . S
N277 C281 1.418 . S
C278 H257 0.929 . S
C278 C276 1.446 . S
C278 C279 1.332 . S
C279 H259 0.931 . S
C279 C278 1.332 . S
C279 C280 1.267 . S
C280 H248 0.929 . S
C280 C279 1.267 . S
C280 C281 1.251 . S
C281 H251 0.929 . S
C281 N277 1.418 . S
C281 C280 1.251 . S
C282 H249 0.930 . S
C282 C284 1.406 1_545 S
C282 C287 1.261 . S
C283 H250 0.930 . S
C283 N285 1.325 1_545 S
C283 C286 1.357 . S
C284 H252 0.928 . S
C284 C282 1.406 1_565 S
C284 N285 1.261 . S
N285 Co236 2.214 . S
N285 C283 1.325 1_565 S
N285 C284 1.261 . S
C286 H256 0.931 . S
C286 C283 1.357 . S
C286 C287 1.312 . S
C287 H258 0.930 . S
C287 C282 1.261 . S
C287 C286 1.312 . S
C288 O260 1.214 1_655 S
C288 O268 1.234 . S
C289 H261 0.929 . S
C289 C292 1.391 . S
C289 C294 1.391 . S
C290 H262 0.929 . S
C290 C291 1.390 . S
C290 N293 1.391 . S
C291 H263 0.930 . S
C291 C290 1.390 . S
C291 C292 1.392 . S
C292 H264 0.929 . S
C292 C289 1.391 . S
C292 C291 1.392 . S
N293 Co237 2.257 . S
N293 C290 1.391 . S
N293 C294 1.388 . S
C294 H265 0.930 . S
C294 C289 1.391 . S
C294 N293 1.388 . S
Co295 O297 2.143 . S
Co295 O303 2.074 . S
Co295 O306 2.093 . S
Co295 O319 2.097 . S
Co295 N336 2.151 . S
Co295 N344 2.214 . S
Co296 O297 2.160 1_565 S
Co296 O302 2.058 1_565 S
Co296 O312 2.057 . S
Co296 O327 2.037 . S
Co296 N331 2.145 . S
Co296 N352 2.257 . S
O297 Co295 2.143 . S
O297 Co296 2.160 1_545 S
C298 O299 1.278 1_545 S
C298 O306 1.224 . S
O299 C298 1.278 1_565 S
C300 O301 1.253 . S
C300 O312 1.226 1_545 S
O301 C300 1.253 . S
O302 Co296 2.058 1_545 S
O302 C328 1.269 . S
O303 Co295 2.074 . S
O303 C328 1.257 . S
H304 C329 0.930 . S
H305 C335 0.930 . S
O306 Co295 2.093 . S
O306 C298 1.224 . S
H307 C339 0.929 . S
H308 C341 0.930 . S
H309 C342 0.930 . S
H310 C340 0.929 . S
H311 C343 0.928 . S
O312 Co296 2.057 . S
O312 C300 1.226 1_565 S
H313 C332 0.929 . S
H314 C333 0.929 . S
H315 C345 0.931 . S
H316 C337 0.929 . S
H317 C346 0.930 . S
H318 C338 0.931 . S
O319 Co295 2.097 . S
O319 C347 1.214 1_545 S
H320 C348 0.929 . S
H321 C349 0.929 . S
H322 C350 0.930 . S
H323 C351 0.929 . S
H324 C353 0.930 . S
H325 C330 0.930 . S
H326 C334 0.930 . S
O327 Co296 2.037 . S
O327 C347 1.234 . S
C328 O302 1.269 . S
C328 O303 1.257 . S
C329 H304 0.930 . S
C329 C332 1.388 . S
C329 C334 1.418 . S
C330 H325 0.930 . S
C330 C333 1.404 . S
C330 C334 1.353 . S
N331 Co296 2.145 . S
N331 C332 1.397 . S
N331 C333 1.334 . S
C332 H313 0.929 . S
C332 C329 1.388 . S
C332 N331 1.397 . S
C333 H314 0.929 . S
C333 C330 1.404 . S
C333 N331 1.334 . S
C334 H326 0.930 . S
C334 C329 1.418 . S
C334 C330 1.353 . S
C335 H305 0.930 . S
C335 N336 1.330 . S
C335 C337 1.446 . S
N336 Co295 2.151 . S
N336 C335 1.330 . S
N336 C340 1.418 . S
C337 H316 0.929 . S
C337 C335 1.446 . S
C337 C338 1.332 . S
C338 H318 0.931 . S
C338 C337 1.332 . S
C338 C339 1.267 . S
C339 H307 0.929 . S
C339 C338 1.267 . S
C339 C340 1.251 . S
C340 H310 0.929 . S
C340 N336 1.418 . S
C340 C339 1.251 . S
C341 H308 0.930 . S
C341 C343 1.406 1_655 S
C341 C346 1.261 . S
C342 H309 0.930 . S
C342 N344 1.325 1_655 S
C342 C345 1.357 . S
C343 H311 0.928 . S
C343 C341 1.406 1_455 S
C343 N344 1.261 . S
N344 Co295 2.214 . S
N344 C342 1.325 1_455 S
N344 C343 1.261 . S
C345 H315 0.931 . S
C345 C342 1.357 . S
C345 C346 1.312 . S
C346 H317 0.930 . S
C346 C341 1.261 . S
C346 C345 1.312 . S
C347 O319 1.214 1_565 S
C347 O327 1.234 . S
C348 H320 0.929 . S
C348 C351 1.391 . S
C348 C353 1.391 . S
C349 H321 0.929 . S
C349 C350 1.390 . S
C349 N352 1.391 . S
C350 H322 0.930 . S
C350 C349 1.390 . S
C350 C351 1.392 . S
C351 H323 0.929 . S
C351 C348 1.391 . S
C351 C350 1.392 . S
N352 Co296 2.257 . S
N352 C349 1.391 . S
N352 C353 1.388 . S
C353 H324 0.930 . S
C353 C348 1.391 . S
C353 N352 1.388 . S
Co354 O356 2.143 . S
Co354 O362 2.074 . S
Co354 O365 2.093 . S
Co354 O378 2.097 . S
Co354 N395 2.151 . S
Co354 N403 2.214 . S
Co355 O356 2.160 1_455 S
Co355 O361 2.058 1_455 S
Co355 O371 2.057 . S
Co355 O386 2.037 . S
Co355 N390 2.145 . S
Co355 N411 2.257 . S
O356 Co354 2.143 . S
O356 Co355 2.160 1_655 S
C357 O358 1.278 1_655 S
C357 O365 1.224 . S
O358 C357 1.278 1_455 S
C359 O360 1.253 . S
C359 O371 1.226 1_655 S
O360 C359 1.253 . S
O361 Co355 2.058 1_655 S
O361 C387 1.269 . S
O362 Co354 2.074 . S
O362 C387 1.257 . S
H363 C388 0.930 . S
H364 C394 0.930 . S
O365 Co354 2.093 . S
O365 C357 1.224 . S
H366 C398 0.929 . S
H367 C400 0.930 . S
H368 C401 0.930 . S
H369 C399 0.929 . S
H370 C402 0.928 . S
O371 Co355 2.057 . S
O371 C359 1.226 1_455 S
H372 C391 0.929 . S
H373 C392 0.929 . S
H374 C404 0.931 . S
H375 C396 0.929 . S
H376 C405 0.930 . S
H377 C397 0.931 . S
O378 Co354 2.097 . S
O378 C406 1.214 1_655 S
H379 C407 0.929 . S
H380 C408 0.929 . S
H381 C409 0.930 . S
H382 C410 0.929 . S
H383 C412 0.930 . S
H384 C389 0.930 . S
H385 C393 0.930 . S
O386 Co355 2.037 . S
O386 C406 1.234 . S
C387 O361 1.269 . S
C387 O362 1.257 . S
C388 H363 0.930 . S
C388 C391 1.388 . S
C388 C393 1.418 . S
C389 H384 0.930 . S
C389 C392 1.404 . S
C389 C393 1.353 . S
N390 Co355 2.145 . S
N390 C391 1.397 . S
N390 C392 1.334 . S
C391 H372 0.929 . S
C391 C388 1.388 . S
C391 N390 1.397 . S
C392 H373 0.929 . S
C392 C389 1.404 . S
C392 N390 1.334 . S
C393 H385 0.930 . S
C393 C388 1.418 . S
C393 C389 1.353 . S
C394 H364 0.930 . S
C394 N395 1.330 . S
C394 C396 1.446 . S
N395 Co354 2.151 . S
N395 C394 1.330 . S
N395 C399 1.418 . S
C396 H375 0.929 . S
C396 C394 1.446 . S
C396 C397 1.332 . S
C397 H377 0.931 . S
C397 C396 1.332 . S
C397 C398 1.267 . S
C398 H366 0.929 . S
C398 C397 1.267 . S
C398 C399 1.251 . S
C399 H369 0.929 . S
C399 N395 1.418 . S
C399 C398 1.251 . S
C400 H367 0.930 . S
C400 C402 1.406 1_565 S
C400 C405 1.261 . S
C401 H368 0.930 . S
C401 N403 1.325 1_565 S
C401 C404 1.357 . S
C402 H370 0.928 . S
C402 C400 1.406 1_545 S
C402 N403 1.261 . S
N403 Co354 2.214 . S
N403 C401 1.325 1_545 S
N403 C402 1.261 . S
C404 H374 0.931 . S
C404 C401 1.357 . S
C404 C405 1.312 . S
C405 H376 0.930 . S
C405 C400 1.261 . S
C405 C404 1.312 . S
C406 O378 1.214 1_455 S
C406 O386 1.234 . S
C407 H379 0.929 . S
C407 C410 1.391 . S
C407 C412 1.391 . S
C408 H380 0.929 . S
C408 C409 1.390 . S
C408 N411 1.391 . S
C409 H381 0.930 . S
C409 C408 1.390 . S
C409 C410 1.392 . S
C410 H382 0.929 . S
C410 C407 1.391 . S
C410 C409 1.392 . S
N411 Co355 2.257 . S
N411 C408 1.391 . S
N411 C412 1.388 . S
C412 H383 0.930 . S
C412 C407 1.391 . S
C412 N411 1.388 . S
Co413 O415 2.143 . S
Co413 O421 2.074 . S
Co413 O424 2.093 . S
Co413 O437 2.097 . S
Co413 N454 2.151 . S
Co413 N462 2.214 . S
Co414 O415 2.160 1_545 S
Co414 O420 2.058 1_545 S
Co414 O430 2.057 . S
Co414 O445 2.037 . S
Co414 N449 2.145 . S
Co414 N470 2.257 . S
O415 Co413 2.143 . S
O415 Co414 2.160 1_565 S
C416 O417 1.278 1_565 S
C416 O424 1.224 . S
O417 C416 1.278 1_545 S
C418 O419 1.253 . S
C418 O430 1.226 1_565 S
O419 C418 1.253 . S
O420 Co414 2.058 1_565 S
O420 C446 1.269 . S
O421 Co413 2.074 . S
O421 C446 1.257 . S
H422 C447 0.930 . S
H423 C453 0.930 . S
O424 Co413 2.093 . S
O424 C416 1.224 . S
H425 C457 0.929 . S
H426 C459 0.930 . S
H427 C460 0.930 . S
H428 C458 0.929 . S
H429 C461 0.928 . S
O430 Co414 2.057 . S
O430 C418 1.226 1_545 S
H431 C450 0.929 . S
H432 C451 0.929 . S
H433 C463 0.931 . S
H434 C455 0.929 . S
H435 C464 0.930 . S
H436 C456 0.931 . S
O437 Co413 2.097 . S
O437 C465 1.214 1_565 S
H438 C466 0.929 . S
H439 C467 0.929 . S
H440 C468 0.930 . S
H441 C469 0.929 . S
H442 C471 0.930 . S
H443 C448 0.930 . S
H444 C452 0.930 . S
O445 Co414 2.037 . S
O445 C465 1.234 . S
C446 O420 1.269 . S
C446 O421 1.257 . S
C447 H422 0.930 . S
C447 C450 1.388 . S
C447 C452 1.418 . S
C448 H443 0.930 . S
C448 C451 1.404 . S
C448 C452 1.353 . S
N449 Co414 2.145 . S
N449 C450 1.397 . S
N449 C451 1.334 . S
C450 H431 0.929 . S
C450 C447 1.388 . S
C450 N449 1.397 . S
C451 H432 0.929 . S
C451 C448 1.404 . S
C451 N449 1.334 . S
C452 H444 0.930 . S
C452 C447 1.418 . S
C452 C448 1.353 . S
C453 H423 0.930 . S
C453 N454 1.330 . S
C453 C455 1.446 . S
N454 Co413 2.151 . S
N454 C453 1.330 . S
N454 C458 1.418 . S
C455 H434 0.929 . S
C455 C453 1.446 . S
C455 C456 1.332 . S
C456 H436 0.931 . S
C456 C455 1.332 . S
C456 C457 1.267 . S
C457 H425 0.929 . S
C457 C456 1.267 . S
C457 C458 1.251 . S
C458 H428 0.929 . S
C458 N454 1.418 . S
C458 C457 1.251 . S
C459 H426 0.930 . S
C459 C461 1.406 1_455 S
C459 C464 1.261 . S
C460 H427 0.930 . S
C460 N462 1.325 1_455 S
C460 C463 1.357 . S
C461 H429 0.928 . S
C461 C459 1.406 1_655 S
C461 N462 1.261 . S
N462 Co413 2.214 . S
N462 C460 1.325 1_655 S
N462 C461 1.261 . S
C463 H433 0.931 . S
C463 C460 1.357 . S
C463 C464 1.312 . S
C464 H435 0.930 . S
C464 C459 1.261 . S
C464 C463 1.312 . S
C465 O437 1.214 1_545 S
C465 O445 1.234 . S
C466 H438 0.929 . S
C466 C469 1.391 . S
C466 C471 1.391 . S
C467 H439 0.929 . S
C467 C468 1.390 . S
C467 N470 1.391 . S
C468 H440 0.930 . S
C468 C467 1.390 . S
C468 C469 1.392 . S
C469 H441 0.929 . S
C469 C466 1.391 . S
C469 C468 1.392 . S
N470 Co414 2.257 . S
N470 C467 1.391 . S
N470 C471 1.388 . S
C471 H442 0.930 . S
C471 C466 1.391 . S
C471 N470 1.388 . S
C5 C123 1.515 1_455 S
C182 C64 1.515 1_565 S
C359 C241 1.515 1_655 S
C300 C418 1.515 1_545 S
C357 C3 2.131 1_656 S
C62 C416 2.131 1_545 S
C121 C239 2.131 1_654 S
C298 C180 2.131 1_545 S
C33 C328 1.426 . S
C387 C92 1.426 . S
C446 C151 1.426 . S
C210 C269 1.426 . S
C52 C170 1.211 1_645 S
C229 C111 1.211 1_445 S
C406 C288 1.211 1_445 S
C465 C347 1.211 1_645 S
