# Generated by pormake.
# Topology ukt, (4)-cn, num edge types: 1
# Building blocks:
#     Node 0, Type 0, BuildingBlock: CEKHIL_clean_sbu_0, # of connection points: 4
#     Node 1, Type 0, BuildingBlock: CEKHIL_clean_sbu_0, # of connection points: 4
#     Node 2, Type 0, BuildingBlock: CEKHIL_clean_sbu_0, # of connection points: 4
#     Node 3, Type 0, BuildingBlock: CEKHIL_clean_sbu_0, # of connection points: 4
#     Node 4, Type 0, BuildingBlock: CEKHIL_clean_sbu_0, # of connection points: 4
#     Node 5, Type 0, BuildingBlock: CEKHIL_clean_sbu_0, # of connection points: 4
#     Node 6, Type 0, BuildingBlock: CEKHIL_clean_sbu_0, # of connection points: 4
#     Node 7, Type 0, BuildingBlock: CEKHIL_clean_sbu_0, # of connection points: 4
#     Node 8, Type 0, BuildingBlock: CEKHIL_clean_sbu_0, # of connection points: 4
#     Node 9, Type 0, BuildingBlock: CEKHIL_clean_sbu_0, # of connection points: 4
#     Node 10, Type 0, BuildingBlock: CEKHIL_clean_sbu_0, # of connection points: 4
#     Node 11, Type 0, BuildingBlock: CEKHIL_clean_sbu_0, # of connection points: 4
#     Node 12, Type 0, BuildingBlock: CEKHIL_clean_sbu_0, # of connection points: 4
#     Node 13, Type 0, BuildingBlock: CEKHIL_clean_sbu_0, # of connection points: 4
#     Node 14, Type 0, BuildingBlock: CEKHIL_clean_sbu_0, # of connection points: 4
#     Node 15, Type 0, BuildingBlock: CEKHIL_clean_sbu_0, # of connection points: 4
#     Edge 16, Type (0, 0), BuildingBlock: OJICUG_clean_linker_0, # of connection points: 2
#     Edge 17, Type (0, 0), BuildingBlock: OJICUG_clean_linker_0, # of connection points: 2
#     Edge 18, Type (0, 0), BuildingBlock: OJICUG_clean_linker_0, # of connection points: 2
#     Edge 19, Type (0, 0), BuildingBlock: OJICUG_clean_linker_0, # of connection points: 2
#     Edge 20, Type (0, 0), BuildingBlock: OJICUG_clean_linker_0, # of connection points: 2
#     Edge 21, Type (0, 0), BuildingBlock: OJICUG_clean_linker_0, # of connection points: 2
#     Edge 22, Type (0, 0), BuildingBlock: OJICUG_clean_linker_0, # of connection points: 2
#     Edge 23, Type (0, 0), BuildingBlock: OJICUG_clean_linker_0, # of connection points: 2
#     Edge 24, Type (0, 0), BuildingBlock: OJICUG_clean_linker_0, # of connection points: 2
#     Edge 25, Type (0, 0), BuildingBlock: OJICUG_clean_linker_0, # of connection points: 2
#     Edge 26, Type (0, 0), BuildingBlock: OJICUG_clean_linker_0, # of connection points: 2
#     Edge 27, Type (0, 0), BuildingBlock: OJICUG_clean_linker_0, # of connection points: 2
#     Edge 28, Type (0, 0), BuildingBlock: OJICUG_clean_linker_0, # of connection points: 2
#     Edge 29, Type (0, 0), BuildingBlock: OJICUG_clean_linker_0, # of connection points: 2
#     Edge 30, Type (0, 0), BuildingBlock: OJICUG_clean_linker_0, # of connection points: 2
#     Edge 31, Type (0, 0), BuildingBlock: OJICUG_clean_linker_0, # of connection points: 2
#     Edge 32, Type (0, 0), BuildingBlock: OJICUG_clean_linker_0, # of connection points: 2
#     Edge 33, Type (0, 0), BuildingBlock: OJICUG_clean_linker_0, # of connection points: 2
#     Edge 34, Type (0, 0), BuildingBlock: OJICUG_clean_linker_0, # of connection points: 2
#     Edge 35, Type (0, 0), BuildingBlock: OJICUG_clean_linker_0, # of connection points: 2
#     Edge 36, Type (0, 0), BuildingBlock: OJICUG_clean_linker_0, # of connection points: 2
#     Edge 37, Type (0, 0), BuildingBlock: OJICUG_clean_linker_0, # of connection points: 2
#     Edge 38, Type (0, 0), BuildingBlock: OJICUG_clean_linker_0, # of connection points: 2
#     Edge 39, Type (0, 0), BuildingBlock: OJICUG_clean_linker_0, # of connection points: 2
#     Edge 40, Type (0, 0), BuildingBlock: OJICUG_clean_linker_0, # of connection points: 2
#     Edge 41, Type (0, 0), BuildingBlock: OJICUG_clean_linker_0, # of connection points: 2
#     Edge 42, Type (0, 0), BuildingBlock: OJICUG_clean_linker_0, # of connection points: 2
#     Edge 43, Type (0, 0), BuildingBlock: OJICUG_clean_linker_0, # of connection points: 2
#     Edge 44, Type (0, 0), BuildingBlock: OJICUG_clean_linker_0, # of connection points: 2
#     Edge 45, Type (0, 0), BuildingBlock: OJICUG_clean_linker_0, # of connection points: 2
#     Edge 46, Type (0, 0), BuildingBlock: OJICUG_clean_linker_0, # of connection points: 2
#     Edge 47, Type (0, 0), BuildingBlock: OJICUG_clean_linker_0, # of connection points: 2
# Relax obj value: 0.281
# Max RMSD: 0.165
# Mean RMSD: 0.165
data_MOF--net-ukt--node1-CEKHIL_clean_sbu_0--edge1-OJICUG_clean_linker_0
_symmetry_space_group_name_H-M    P1
_symmetry_Int_Tables_number       1
_symmetry_cell_setting            triclinic
loop_
_symmetry_equiv_pos_as_xyz
'x, y, z'
_cell_length_a     30.544374
_cell_length_b     30.548171
_cell_length_c     24.787524
_cell_angle_alpha  90.012844
_cell_angle_beta   89.984958
_cell_angle_gamma 90.008837
loop_
_atom_site_label
_atom_site_type_symbol
_atom_site_fract_x
_atom_site_fract_y
_atom_site_fract_z
_atom_type_partial_charge
Co0 Co 0.53661 0.14335 0.09871 0.0
O1 O 0.51958 0.08346 0.11334 0.0
O2 O 0.50549 0.11956 0.03785 0.0
C3 C 0.51999 0.17743 0.17801 0.0
O4 O 0.54901 0.20326 0.06756 0.0
Co5 Co 0.61477 0.18405 0.16091 0.0
O6 O 0.59945 0.23736 0.11869 0.0
C7 C 0.63238 0.11824 0.07915 0.0
C8 C 0.50573 0.08248 0.06357 0.0
C9 C 0.57268 0.23668 0.07923 0.0
O10 O 0.59211 0.12079 0.06492 0.0
O11 O 0.64762 0.13749 0.12092 0.0
O12 O 0.4891 0.16903 0.14319 0.0
O13 O 0.55686 0.1586 0.1675 0.0
Co14 Co 0.3586 0.53694 0.09892 0.0
O15 O 0.41838 0.51951 0.11345 0.0
O16 O 0.38221 0.50591 0.03787 0.0
C17 C 0.3244 0.52027 0.17808 0.0
O18 O 0.29873 0.54982 0.06791 0.0
Co19 Co 0.31842 0.61514 0.1616 0.0
O20 O 0.26494 0.60018 0.11949 0.0
C21 C 0.38414 0.63265 0.07966 0.0
C22 C 0.41929 0.50586 0.06361 0.0
C23 C 0.26543 0.57358 0.07983 0.0
O24 O 0.38148 0.59239 0.06541 0.0
O25 O 0.36496 0.64794 0.12145 0.0
O26 O 0.33263 0.48945 0.1431 0.0
O27 O 0.3435 0.55705 0.16782 0.0
Co28 Co 0.9651 0.35831 0.0988 0.0
O29 O 0.98195 0.41825 0.11351 0.0
O30 O 0.99628 0.38221 0.03802 0.0
C31 C 0.98167 0.32425 0.1781 0.0
O32 O 0.95289 0.29835 0.06761 0.0
Co33 Co 0.88696 0.31738 0.1609 0.0
O34 O 0.90265 0.26407 0.11888 0.0
C35 C 0.86926 0.38302 0.07895 0.0
C36 C 0.99591 0.41928 0.06379 0.0
C37 C 0.92939 0.26483 0.07937 0.0
O38 O 0.9096 0.3807 0.06489 0.0
O39 O 0.85399 0.3637 0.12064 0.0
O40 O 0.01259 0.33274 0.14336 0.0
O41 O 0.94478 0.343 0.16754 0.0
Co42 Co 0.1435 0.96526 0.09876 0.0
O43 O 0.08367 0.98245 0.11352 0.0
O44 O 0.11972 0.99643 0.03794 0.0
C45 C 0.17775 0.98176 0.17797 0.0
O46 O 0.20337 0.95265 0.06753 0.0
Co47 Co 0.18394 0.88696 0.16093 0.0
O48 O 0.23733 0.90222 0.11879 0.0
C49 C 0.118 0.86959 0.07925 0.0
C50 C 0.08266 0.99626 0.06374 0.0
C51 C 0.23675 0.92895 0.07928 0.0
O52 O 0.12071 0.90985 0.06502 0.0
O53 O 0.13723 0.85427 0.12098 0.0
O54 O 0.1694 0.01268 0.14318 0.0
O55 O 0.15874 0.94497 0.16752 0.0
Co56 Co 0.53647 0.35811 0.40887 0.0
O57 O 0.51879 0.41784 0.39446 0.0
O58 O 0.50558 0.3816 0.47011 0.0
C59 C 0.51968 0.32394 0.32971 0.0
O60 O 0.54958 0.29827 0.43978 0.0
Co61 Co 0.6146 0.31815 0.34588 0.0
O62 O 0.59988 0.2646 0.38798 0.0
C63 C 0.6322 0.3838 0.42785 0.0
C64 C 0.50533 0.41869 0.44439 0.0
C65 C 0.57338 0.26502 0.42775 0.0
O66 O 0.59195 0.3811 0.44218 0.0
O67 O 0.64744 0.36466 0.38601 0.0
O68 O 0.48892 0.33203 0.36484 0.0
O69 O 0.55644 0.34312 0.33988 0.0
Co70 Co 0.14314 0.53687 0.40828 0.0
O71 O 0.08328 0.51981 0.39347 0.0
O72 O 0.1193 0.50565 0.46901 0.0
C73 C 0.17741 0.52039 0.32907 0.0
O74 O 0.20299 0.54928 0.43961 0.0
Co75 Co 0.1839 0.61514 0.34634 0.0
O76 O 0.23714 0.59983 0.38869 0.0
C77 C 0.11795 0.63258 0.428 0.0
C78 C 0.08225 0.5059 0.44321 0.0
C79 C 0.23641 0.573 0.42809 0.0
O80 O 0.12049 0.59229 0.44213 0.0
O81 O 0.13725 0.6479 0.38632 0.0
O82 O 0.16895 0.48945 0.3638 0.0
O83 O 0.15851 0.55722 0.33957 0.0
Co84 Co 0.96551 0.14339 0.40877 0.0
O85 O 0.98275 0.08357 0.39413 0.0
O86 O 0.99668 0.11971 0.46966 0.0
C87 C 0.98201 0.17755 0.3295 0.0
O88 O 0.95286 0.20328 0.43988 0.0
Co89 Co 0.8872 0.1837 0.34649 0.0
O90 O 0.90246 0.23716 0.38849 0.0
C91 C 0.86983 0.11788 0.4283 0.0
C92 C 0.99655 0.08262 0.44392 0.0
C93 C 0.92917 0.23663 0.42803 0.0
O94 O 0.9101 0.12061 0.44253 0.0
O95 O 0.85451 0.13705 0.38654 0.0
O96 O 0.01293 0.16927 0.36432 0.0
O97 O 0.94523 0.15853 0.33997 0.0
Co98 Co 0.35856 0.96488 0.40854 0.0
O99 O 0.41852 0.98169 0.39386 0.0
O100 O 0.38246 0.99604 0.46933 0.0
C101 C 0.32454 0.98147 0.32921 0.0
O102 O 0.29857 0.9527 0.43969 0.0
Co103 Co 0.3176 0.88679 0.3464 0.0
O104 O 0.26428 0.90248 0.38841 0.0
C105 C 0.38315 0.86904 0.42844 0.0
C106 C 0.41954 0.99565 0.44358 0.0
C107 C 0.26504 0.92921 0.42793 0.0
O108 O 0.38089 0.90938 0.44247 0.0
O109 O 0.36384 0.85378 0.38673 0.0
O110 O 0.33303 0.01239 0.36397 0.0
O111 O 0.34328 0.94458 0.33979 0.0
Co112 Co 0.46525 0.85841 0.90844 0.0
O113 O 0.48224 0.9183 0.89369 0.0
O114 O 0.49648 0.88226 0.96918 0.0
C115 C 0.48171 0.82423 0.82916 0.0
O116 O 0.45294 0.79854 0.93973 0.0
Co117 Co 0.387 0.81759 0.84654 0.0
O118 O 0.40247 0.76432 0.88875 0.0
C119 C 0.36951 0.8835 0.92822 0.0
C120 C 0.49617 0.91932 0.94341 0.0
C121 C 0.4293 0.76507 0.92815 0.0
O122 O 0.40981 0.88098 0.94237 0.0
O123 O 0.35421 0.86419 0.88653 0.0
O124 O 0.51268 0.83269 0.86386 0.0
O125 O 0.44487 0.84308 0.83974 0.0
Co126 Co 0.64337 0.46494 0.90849 0.0
O127 O 0.58355 0.48224 0.89391 0.0
O128 O 0.61969 0.49601 0.96947 0.0
C129 C 0.67752 0.48159 0.82928 0.0
O130 O 0.70325 0.45221 0.93956 0.0
Co131 Co 0.68372 0.38675 0.84597 0.0
O132 O 0.73714 0.40181 0.88814 0.0
C133 C 0.61798 0.36921 0.92788 0.0
C134 C 0.58261 0.49597 0.94373 0.0
C135 C 0.73658 0.42847 0.92774 0.0
O136 O 0.62059 0.40949 0.94209 0.0
O137 O 0.6372 0.35393 0.88611 0.0
O138 O 0.66925 0.51244 0.86422 0.0
O139 O 0.65852 0.44478 0.83963 0.0
Co140 Co 0.03673 0.64352 0.90885 0.0
O141 O 0.0199 0.58357 0.89419 0.0
O142 O 0.00553 0.61964 0.96964 0.0
C143 C 0.02021 0.67751 0.82949 0.0
O144 O 0.04891 0.7035 0.93998 0.0
Co145 Co 0.11487 0.68445 0.84674 0.0
O146 O 0.09906 0.73781 0.8886 0.0
C147 C 0.13256 0.61887 0.92877 0.0
C148 C 0.00592 0.58256 0.9439 0.0
C149 C 0.07235 0.73705 0.92814 0.0
O150 O 0.09222 0.62117 0.94283 0.0
O151 O 0.14783 0.63817 0.88706 0.0
O152 O 0.98926 0.66906 0.86422 0.0
O153 O 0.05708 0.65876 0.84012 0.0
Co154 Co 0.85851 0.03653 0.90875 0.0
O155 O 0.91836 0.01939 0.89403 0.0
O156 O 0.88231 0.00541 0.96961 0.0
C157 C 0.8243 0.01993 0.82954 0.0
O158 O 0.79862 0.04908 0.93996 0.0
Co159 Co 0.81801 0.11474 0.8465 0.0
O160 O 0.76463 0.09948 0.88868 0.0
C161 C 0.88387 0.13225 0.92821 0.0
C162 C 0.91937 0.0056 0.94381 0.0
C163 C 0.76523 0.07277 0.9282 0.0
O164 O 0.88122 0.09198 0.94245 0.0
O165 O 0.86464 0.14752 0.88647 0.0
O166 O 0.83267 0.98905 0.86437 0.0
O167 O 0.84326 0.05675 0.83997 0.0
Co168 Co 0.46476 0.64311 0.59892 0.0
O169 O 0.48216 0.58331 0.61344 0.0
O170 O 0.49562 0.61944 0.53779 0.0
C171 C 0.48158 0.67732 0.67803 0.0
O172 O 0.45195 0.70296 0.56787 0.0
Co173 Co 0.38671 0.68349 0.66165 0.0
O174 O 0.40171 0.73692 0.61947 0.0
C175 C 0.36893 0.61787 0.5797 0.0
C176 C 0.49569 0.58237 0.56354 0.0
C177 C 0.42827 0.73632 0.57976 0.0
O178 O 0.40923 0.62033 0.56551 0.0
O179 O 0.35369 0.63715 0.62145 0.0
O180 O 0.51235 0.66904 0.64299 0.0
O181 O 0.44476 0.65828 0.66784 0.0
Co182 Co 0.85823 0.46518 0.5984 0.0
O183 O 0.91809 0.4823 0.61305 0.0
O184 O 0.88198 0.49636 0.53756 0.0
C185 C 0.82412 0.48169 0.6777 0.0
O186 O 0.79833 0.45268 0.56726 0.0
Co187 Co 0.81763 0.38695 0.66059 0.0
O188 O 0.76426 0.4023 0.6185 0.0
C189 C 0.88351 0.36947 0.57885 0.0
C190 C 0.91905 0.49616 0.5633 0.0
C191 C 0.76491 0.42904 0.579 0.0
O192 O 0.88089 0.40974 0.56459 0.0
O193 O 0.86428 0.35421 0.62061 0.0
O194 O 0.83246 0.51261 0.6429 0.0
O195 O 0.84303 0.44487 0.66717 0.0
Co196 Co 0.03679 0.85849 0.59897 0.0
O197 O 0.0198 0.91838 0.61374 0.0
O198 O 0.00561 0.88235 0.53821 0.0
C199 C 0.02028 0.82429 0.67821 0.0
O200 O 0.04915 0.79861 0.5677 0.0
Co201 Co 0.11504 0.81777 0.66095 0.0
O202 O 0.09958 0.76446 0.61877 0.0
C203 C 0.13254 0.88364 0.57923 0.0
C204 C 0.00592 0.91941 0.56399 0.0
C205 C 0.07277 0.76516 0.57934 0.0
O206 O 0.09224 0.88109 0.56511 0.0
O207 O 0.14786 0.86435 0.62091 0.0
O208 O 0.98934 0.83275 0.64348 0.0
O209 O 0.05712 0.84317 0.66769 0.0
Co210 Co 0.64374 0.03639 0.59863 0.0
O211 O 0.5838 0.01953 0.61325 0.0
O212 O 0.61991 0.0052 0.53781 0.0
C213 C 0.6777 0.01987 0.67801 0.0
O214 O 0.70374 0.04864 0.56756 0.0
Co215 Co 0.68457 0.11454 0.66082 0.0
O216 O 0.73796 0.09884 0.61894 0.0
C217 C 0.61902 0.1322 0.57874 0.0
C218 C 0.58281 0.00556 0.56353 0.0
C219 C 0.73726 0.07213 0.5794 0.0
O220 O 0.62138 0.09187 0.56466 0.0
O221 O 0.63827 0.14747 0.62049 0.0
O222 O 0.66929 0.98893 0.64326 0.0
O223 O 0.65893 0.05673 0.66738 0.0
C224 C 0.58523 0.31547 0.05839 0.0
C225 C 0.57416 0.27329 0.04075 0.0
H226 H 0.60658 0.37952 0.036 0.0
C227 C 0.57123 0.26482 0.98513 0.0
H228 H 0.58752 0.32278 0.10107 0.0
C229 C 0.58315 0.29691 0.94781 0.0
C230 C 0.59713 0.33824 0.96557 0.0
H231 H 0.56297 0.23243 0.97049 0.0
H232 H 0.58335 0.28875 0.90528 0.0
C233 C 0.59605 0.34789 0.02106 0.0
C234 C 0.20479 0.58394 0.94864 0.0
C235 C 0.1636 0.59822 0.96651 0.0
H236 H 0.26922 0.56347 0.9711 0.0
C237 C 0.15417 0.59758 0.02206 0.0
H238 H 0.21278 0.58382 0.90605 0.0
C239 C 0.18666 0.58677 0.05929 0.0
C240 C 0.22871 0.5753 0.04151 0.0
H241 H 0.12265 0.6084 0.03707 0.0
H242 H 0.17952 0.58935 0.102 0.0
C243 C 0.23695 0.57203 0.98586 0.0
C244 C 0.90613 0.15356 0.02129 0.0
C245 C 0.90485 0.16322 0.96582 0.0
H246 H 0.91488 0.17868 0.10127 0.0
C247 C 0.91874 0.20456 0.94801 0.0
H248 H 0.8957 0.12192 0.03626 0.0
C249 C 0.93074 0.23666 0.98528 0.0
C250 C 0.92798 0.22819 0.0409 0.0
H251 H 0.9184 0.21273 0.90548 0.0
H252 H 0.9389 0.26906 0.97061 0.0
C253 C 0.91705 0.18599 0.05857 0.0
C254 C 0.29724 0.91843 0.94802 0.0
C255 C 0.33851 0.90437 0.96588 0.0
H256 H 0.23275 0.93872 0.97053 0.0
C257 C 0.34805 0.90539 0.02139 0.0
H258 H 0.28917 0.91828 0.90546 0.0
C259 C 0.31557 0.91625 0.05863 0.0
C260 C 0.27344 0.92741 0.04089 0.0
H261 H 0.37963 0.8948 0.03638 0.0
H262 H 0.32278 0.91392 0.10134 0.0
C263 C 0.26509 0.93039 0.98526 0.0
C264 C 0.57202 0.23652 0.52171 0.0
C265 C 0.57527 0.2283 0.46606 0.0
H266 H 0.58386 0.21236 0.60151 0.0
C267 C 0.58684 0.18629 0.44825 0.0
H268 H 0.56337 0.26876 0.5365 0.0
C269 C 0.59772 0.15381 0.48546 0.0
C270 C 0.59834 0.16323 0.54102 0.0
H271 H 0.58941 0.17917 0.40554 0.0
H272 H 0.60859 0.12233 0.47044 0.0
C273 C 0.58399 0.20438 0.55892 0.0
C274 C 0.29648 0.58336 0.55964 0.0
C275 C 0.3379 0.59715 0.54196 0.0
H276 H 0.23195 0.56343 0.53682 0.0
C277 C 0.34762 0.59603 0.48648 0.0
H278 H 0.28826 0.58361 0.60215 0.0
C279 C 0.31521 0.58534 0.4491 0.0
C280 C 0.27296 0.57443 0.46665 0.0
H281 H 0.37932 0.60642 0.47161 0.0
H282 H 0.32259 0.58759 0.40642 0.0
C283 C 0.2644 0.57156 0.52225 0.0
C284 C 0.9186 0.29726 0.55918 0.0
C285 C 0.90445 0.33848 0.54125 0.0
H286 H 0.939 0.2328 0.53678 0.0
C287 C 0.90544 0.34794 0.48572 0.0
H288 H 0.91848 0.28925 0.60175 0.0
C289 C 0.91635 0.31545 0.44853 0.0
C290 C 0.92759 0.27336 0.46635 0.0
H291 H 0.89478 0.37948 0.47067 0.0
H292 H 0.91399 0.3226 0.40582 0.0
C293 C 0.93061 0.2651 0.522 0.0
C294 C 0.20484 0.91851 0.55935 0.0
C295 C 0.1635 0.90458 0.54158 0.0
H296 H 0.26932 0.93874 0.53669 0.0
C297 C 0.15381 0.90583 0.48611 0.0
H298 H 0.21303 0.91819 0.60187 0.0
C299 C 0.18621 0.91677 0.4488 0.0
C300 C 0.22842 0.92776 0.46643 0.0
H301 H 0.12217 0.89536 0.47117 0.0
H302 H 0.17888 0.91458 0.40611 0.0
C303 C 0.23691 0.93054 0.52205 0.0
C304 C 0.43074 0.73707 0.0223 0.0
C305 C 0.42792 0.72851 0.96669 0.0
H306 H 0.41857 0.71323 0.10218 0.0
C307 C 0.41701 0.68627 0.94912 0.0
H308 H 0.43889 0.76951 0.03688 0.0
C309 C 0.40623 0.65388 0.9865 0.0
C310 C 0.40502 0.66361 0.04196 0.0
H311 H 0.4148 0.67889 0.90645 0.0
H312 H 0.39582 0.6222 0.9716 0.0
C313 C 0.41886 0.705 0.05966 0.0
C314 C 0.81535 0.41549 0.94844 0.0
C315 C 0.77324 0.42678 0.96616 0.0
H316 H 0.87937 0.39396 0.97074 0.0
C317 C 0.76487 0.42981 0.02179 0.0
H318 H 0.82259 0.41308 0.90574 0.0
C319 C 0.79698 0.41786 0.05906 0.0
C320 C 0.83825 0.40375 0.04123 0.0
H321 H 0.73254 0.43823 0.0365 0.0
H322 H 0.78889 0.41779 0.10161 0.0
C323 C 0.8478 0.40463 0.98572 0.0
C324 C 0.07095 0.76526 0.02222 0.0
C325 C 0.07375 0.7737 0.96658 0.0
H326 H 0.0833 0.78919 0.10201 0.0
C327 C 0.08476 0.81589 0.9489 0.0
H328 H 0.06273 0.73287 0.03689 0.0
C329 C 0.09571 0.84831 0.98618 0.0
C330 C 0.09697 0.83866 0.04166 0.0
H331 H 0.08695 0.82318 0.90621 0.0
H332 H 0.10621 0.87993 0.9712 0.0
C333 C 0.08299 0.79735 0.05948 0.0
C334 C 0.6539 0.09628 0.98603 0.0
C335 C 0.66342 0.09737 0.04155 0.0
H336 H 0.67918 0.08768 0.9061 0.0
C337 C 0.70471 0.08338 0.05943 0.0
H338 H 0.62231 0.10681 0.97101 0.0
C339 C 0.73688 0.07141 0.02222 0.0
C340 C 0.72853 0.07431 0.96658 0.0
H341 H 0.71278 0.08359 0.10199 0.0
H342 H 0.76923 0.06314 0.03696 0.0
C343 C 0.68639 0.0854 0.94881 0.0
C344 C 0.42972 0.76461 0.48572 0.0
C345 C 0.42658 0.77298 0.54135 0.0
H346 H 0.4179 0.78866 0.40587 0.0
C347 C 0.41527 0.81509 0.55904 0.0
H348 H 0.43816 0.73229 0.47103 0.0
C349 C 0.40452 0.84754 0.52174 0.0
C350 C 0.40376 0.838 0.46622 0.0
H351 H 0.41278 0.82231 0.60173 0.0
H352 H 0.39383 0.87911 0.53668 0.0
C353 C 0.41788 0.79674 0.44843 0.0
C354 C 0.68609 0.41646 0.55829 0.0
C355 C 0.72825 0.42755 0.54058 0.0
H356 H 0.62202 0.39512 0.536 0.0
C357 C 0.73665 0.43055 0.48495 0.0
H358 H 0.67884 0.41412 0.60098 0.0
C359 C 0.70451 0.41866 0.44768 0.0
C360 C 0.6632 0.40466 0.4655 0.0
H361 H 0.76902 0.43884 0.47026 0.0
H362 H 0.71262 0.41851 0.40513 0.0
C363 C 0.65363 0.40568 0.52101 0.0
C364 C 0.09599 0.65391 0.52118 0.0
C365 C 0.09707 0.66354 0.46569 0.0
H366 H 0.08751 0.67905 0.60119 0.0
C367 C 0.0831 0.70487 0.44794 0.0
H368 H 0.10651 0.62228 0.5361 0.0
C369 C 0.07122 0.73698 0.48526 0.0
C370 C 0.07417 0.72853 0.54087 0.0
H371 H 0.0833 0.71302 0.4054 0.0
H372 H 0.06298 0.76936 0.47062 0.0
C373 C 0.0852 0.68634 0.55851 0.0
C374 C 0.81608 0.08473 0.55868 0.0
C375 C 0.77393 0.07359 0.54098 0.0
H376 H 0.88009 0.10631 0.53641 0.0
C377 C 0.76553 0.0707 0.48535 0.0
H378 H 0.82334 0.087 0.60138 0.0
C379 C 0.79763 0.08277 0.44809 0.0
C380 C 0.8389 0.09686 0.46593 0.0
H381 H 0.73318 0.06238 0.47065 0.0
H382 H 0.7895 0.083 0.40555 0.0
C383 C 0.84851 0.09571 0.52141 0.0
C384 C 0.51005 0.96123 0.02906 0.0
C385 C 0.50157 0.96135 0.97319 0.0
H386 H 0.51687 0.99892 0.10161 0.0
C387 C 0.49244 0.00157 0.94803 0.0
H388 H 0.51658 0.93084 0.05004 0.0
C389 C 0.49188 0.04059 0.97789 0.0
C390 C 0.50035 0.04047 0.03375 0.0
H391 H 0.48505 0.00289 0.90533 0.0
H392 H 0.48536 0.07099 0.95691 0.0
C393 C 0.50948 1.00025 0.05891 0.0
C394 C 0.4612 0.49278 0.97773 0.0
C395 C 0.46131 0.50038 0.03379 0.0
H396 H 0.49896 0.48659 0.90514 0.0
C397 C 0.5016 0.50854 0.05929 0.0
H398 H 0.43075 0.48703 0.95649 0.0
C399 C 0.54069 0.50904 0.02958 0.0
C400 C 0.54059 0.50143 0.97352 0.0
H401 H 0.50294 0.51522 0.10218 0.0
H402 H 0.57114 0.51478 0.05082 0.0
C403 C 0.5003 0.49326 0.94802 0.0
C404 C 0.9917 0.54058 0.02944 0.0
C405 C 1.00045 0.54052 0.97364 0.0
H406 H 0.98453 0.50283 0.10188 0.0
C407 C 0.0097 0.50031 0.94848 0.0
H408 H 0.98506 0.57097 0.05043 0.0
C409 C 0.01013 0.46126 0.97826 0.0
C410 C 0.00138 0.46133 0.03407 0.0
H411 H 0.01729 0.49901 0.90582 0.0
H412 H 0.01676 0.43088 0.95728 0.0
C413 C 0.99212 0.50154 0.05923 0.0
C414 C 1.00041 0.99243 0.05922 0.0
C415 C 0.04061 0.00161 0.034 0.0
H416 H 0.93098 0.98524 0.05046 0.0
C417 C 0.04067 0.01008 0.97813 0.0
H418 H 0.99911 0.98504 0.10192 0.0
C419 C 0.00163 0.00946 0.94834 0.0
C420 C 0.96142 1.00027 0.97357 0.0
H421 H 0.07106 0.01665 0.9571 0.0
H422 H 0.00292 0.01685 0.90564 0.0
C423 C 0.96136 0.9918 0.02943 0.0
C424 C 0.50585 0.54033 0.4772 0.0
C425 C 0.50105 0.54034 0.53374 0.0
H426 H 0.50968 0.50234 0.40453 0.0
C427 C 0.4956 0.49997 0.56011 0.0
H428 H 0.50933 0.57081 0.4553 0.0
C429 C 0.49507 0.46069 0.53077 0.0
C430 C 0.49988 0.46069 0.47423 0.0
H431 H 0.49122 0.4987 0.60344 0.0
H432 H 0.49159 0.43021 0.55265 0.0
C433 C 0.50531 0.50106 0.44786 0.0
C434 C 1.0 0.50969 0.44782 0.0
C435 C 0.04021 0.50046 0.47296 0.0
H436 H 0.93057 0.51681 0.45671 0.0
C437 C 0.04031 0.49184 0.52879 0.0
H438 H 0.99869 0.51719 0.40515 0.0
C439 C 0.00128 0.49238 0.55863 0.0
C440 C 0.96107 0.5016 0.5335 0.0
H441 H 0.0707 0.48524 0.54975 0.0
H442 H 0.0026 0.48488 0.6013 0.0
C443 C 0.96097 0.51021 0.47767 0.0
C444 C 0.99228 0.96135 0.47832 0.0
C445 C 1.0006 0.96145 0.53421 0.0
H446 H 0.98563 0.99904 0.40577 0.0
C447 C 0.00964 0.00168 0.55944 0.0
H448 H 0.98583 0.93095 0.45727 0.0
C449 C 0.01025 0.04071 0.52963 0.0
C450 C 0.00192 0.04061 0.47373 0.0
H451 H 0.01691 0.003 0.60218 0.0
H452 H 0.01668 0.07112 0.55066 0.0
C453 C 0.9929 1.00037 0.4485 0.0
C454 C 0.50056 0.00941 0.55891 0.0
C455 C 0.54077 1.0001 0.53378 0.0
H456 H 0.43113 0.01655 0.55008 0.0
C457 C 0.54085 0.99132 0.47798 0.0
H458 H 0.49926 0.01704 0.60156 0.0
C459 C 0.5018 0.99177 0.44818 0.0
C460 C 0.46159 0.00108 0.47331 0.0
H461 H 0.57124 0.98464 0.45702 0.0
H462 H 0.50311 0.98414 0.40553 0.0
C463 C 0.46152 0.00986 0.52911 0.0
C464 C 0.47761 0.26816 0.27254 0.0
C465 C 0.51731 0.28727 0.28971 0.0
H466 H 0.44681 0.21902 0.22241 0.0
C467 C 0.55652 0.26937 0.2701 0.0
H468 H 0.44667 0.28102 0.28681 0.0
C469 C 0.55663 0.23277 0.23675 0.0
C470 C 0.5175 0.21412 0.21798 0.0
H471 H 0.58784 0.28296 0.28106 0.0
H472 H 0.58805 0.21978 0.22513 0.0
C473 C 0.4777 0.23248 0.23599 0.0
C474 C 0.23286 0.55714 0.27057 0.0
C475 C 0.21423 0.51798 0.28928 0.0
H476 H 0.28315 0.58841 0.22646 0.0
C477 C 0.23274 0.47821 0.27142 0.0
H478 H 0.21975 0.58852 0.28209 0.0
C479 C 0.26855 0.47817 0.23507 0.0
C480 C 0.28763 0.51789 0.21795 0.0
H481 H 0.2193 0.44731 0.28497 0.0
H482 H 0.28152 0.44725 0.22091 0.0
C483 C 0.26959 0.55708 0.23741 0.0
C484 C 0.02396 0.26891 0.23563 0.0
C485 C 0.98416 0.28754 0.21804 0.0
H486 H 0.05499 0.22011 0.28599 0.0
C487 C 0.94503 0.26911 0.23714 0.0
H488 H 0.05484 0.28219 0.22177 0.0
C489 C 0.94512 0.23245 0.27041 0.0
C490 C 0.98433 0.21428 0.28958 0.0
H491 H 0.91362 0.28231 0.22585 0.0
H492 H 0.91378 0.21904 0.28165 0.0
C493 C 0.02404 0.23318 0.27207 0.0
C494 C 0.26949 0.94482 0.27007 0.0
C495 C 0.28784 0.98396 0.28928 0.0
H496 H 0.21946 0.91355 0.22554 0.0
C497 C 0.26911 0.02374 0.27182 0.0
H498 H 0.28278 0.91344 0.28125 0.0
C499 C 0.23334 0.02381 0.2354 0.0
C500 C 0.21452 0.98409 0.21782 0.0
H501 H 0.28232 0.05463 0.28576 0.0
H502 H 0.22019 0.05475 0.22159 0.0
C503 C 0.23281 0.94489 0.23685 0.0
C504 C 0.52384 0.76887 0.77144 0.0
C505 C 0.48409 0.78745 0.7893 0.0
H506 H 0.55472 0.72005 0.72089 0.0
C507 C 0.44491 0.76892 0.77054 0.0
H508 H 0.55477 0.78223 0.78502 0.0
C509 C 0.4449 0.73221 0.73735 0.0
C510 C 0.48405 0.71409 0.71789 0.0
H511 H 0.41353 0.78208 0.78203 0.0
H512 H 0.41353 0.71873 0.72639 0.0
C513 C 0.52381 0.73308 0.73505 0.0
C514 C 0.7687 0.52381 0.73532 0.0
C515 C 0.78743 0.48407 0.71767 0.0
H516 H 0.71984 0.55469 0.78579 0.0
C517 C 0.76913 0.44489 0.73678 0.0
H518 H 0.78189 0.55474 0.72147 0.0
C519 C 0.7325 0.44487 0.77011 0.0
C520 C 0.71423 0.48402 0.78933 0.0
H521 H 0.78242 0.41353 0.72544 0.0
H522 H 0.71919 0.41349 0.78136 0.0
C523 C 0.73299 0.52379 0.77183 0.0
C524 C 0.97808 0.76891 0.73583 0.0
C525 C 0.01786 0.78751 0.71805 0.0
H526 H 0.94714 0.72013 0.78635 0.0
C527 C 0.05702 0.76899 0.73688 0.0
H528 H 0.94717 0.78226 0.72218 0.0
C529 C 0.05698 0.73231 0.77011 0.0
C530 C 0.01779 0.7142 0.78952 0.0
H531 H 0.0884 0.78214 0.72542 0.0
H532 H 0.08833 0.71883 0.78113 0.0
C533 C 0.97806 0.73316 0.77225 0.0
C534 C 0.73249 0.05663 0.7374 0.0
C535 C 0.71434 0.01745 0.71804 0.0
H536 H 0.78231 0.08804 0.78213 0.0
C537 C 0.73322 0.97772 0.73543 0.0
H538 H 0.71907 0.08798 0.72629 0.0
C539 C 0.76893 0.97774 0.77192 0.0
C540 C 0.78756 0.01751 0.78965 0.0
H541 H 0.72017 0.9468 0.72137 0.0
H542 H 0.78221 0.94683 0.78567 0.0
C543 C 0.76912 0.05666 0.7707 0.0
loop_
_geom_bond_atom_site_label_1
_geom_bond_atom_site_label_2
_geom_bond_distance
_geom_bond_site_symmetry_2
_ccdc_geom_bond_type
Co0 O1 2.216 . S
Co0 O2 2.091 . S
Co0 O4 2.004 . S
Co0 O10 2.021 . S
Co0 O12 2.137 . S
Co0 O13 2.244 . S
O1 Co0 2.216 . S
O1 C8 1.247 . S
O2 Co0 2.091 . S
O2 C8 1.261 . S
C3 O12 1.247 . S
C3 O13 1.272 . S
O4 Co0 2.004 . S
O4 C9 1.259 . S
Co5 O6 2.061 . S
Co5 O11 2.052 . S
Co5 O13 2.135 . S
O6 Co5 2.061 . S
O6 C9 1.235 . S
C7 O10 1.238 . S
C7 O11 1.241 . S
C8 O1 1.247 . S
C8 O2 1.261 . S
C9 O4 1.259 . S
C9 O6 1.235 . S
O10 Co0 2.021 . S
O10 C7 1.238 . S
O11 Co5 2.052 . S
O11 C7 1.241 . S
O12 Co0 2.137 . S
O12 C3 1.247 . S
O13 Co0 2.244 . S
O13 C3 1.272 . S
O13 Co5 2.135 . S
Co14 O15 2.216 . S
Co14 O16 2.091 . S
Co14 O18 2.004 . S
Co14 O24 2.021 . S
Co14 O26 2.137 . S
Co14 O27 2.244 . S
O15 Co14 2.216 . S
O15 C22 1.247 . S
O16 Co14 2.091 . S
O16 C22 1.261 . S
C17 O26 1.247 . S
C17 O27 1.272 . S
O18 Co14 2.004 . S
O18 C23 1.259 . S
Co19 O20 2.061 . S
Co19 O25 2.052 . S
Co19 O27 2.135 . S
O20 Co19 2.061 . S
O20 C23 1.235 . S
C21 O24 1.238 . S
C21 O25 1.241 . S
C22 O15 1.247 . S
C22 O16 1.261 . S
C23 O18 1.259 . S
C23 O20 1.235 . S
O24 Co14 2.021 . S
O24 C21 1.238 . S
O25 Co19 2.052 . S
O25 C21 1.241 . S
O26 Co14 2.137 . S
O26 C17 1.247 . S
O27 Co14 2.244 . S
O27 C17 1.272 . S
O27 Co19 2.135 . S
Co28 O29 2.216 . S
Co28 O30 2.091 1_655 S
Co28 O32 2.004 . S
Co28 O38 2.021 . S
Co28 O40 2.137 1_655 S
Co28 O41 2.244 . S
O29 Co28 2.216 . S
O29 C36 1.247 1_655 S
O30 Co28 2.091 1_455 S
O30 C36 1.261 . S
C31 O40 1.247 1_655 S
C31 O41 1.272 . S
O32 Co28 2.004 . S
O32 C37 1.259 . S
Co33 O34 2.061 . S
Co33 O39 2.052 . S
Co33 O41 2.135 . S
O34 Co33 2.061 . S
O34 C37 1.235 . S
C35 O38 1.238 . S
C35 O39 1.241 . S
C36 O29 1.247 1_455 S
C36 O30 1.261 . S
C37 O32 1.259 . S
C37 O34 1.235 . S
O38 Co28 2.021 . S
O38 C35 1.238 . S
O39 Co33 2.052 . S
O39 C35 1.241 . S
O40 Co28 2.137 1_455 S
O40 C31 1.247 1_455 S
O41 Co28 2.244 . S
O41 C31 1.272 . S
O41 Co33 2.135 . S
Co42 O43 2.216 . S
Co42 O44 2.091 1_565 S
Co42 O46 2.004 . S
Co42 O52 2.021 . S
Co42 O54 2.137 1_565 S
Co42 O55 2.244 . S
O43 Co42 2.216 . S
O43 C50 1.247 1_565 S
O44 Co42 2.091 1_545 S
O44 C50 1.261 . S
C45 O54 1.247 1_565 S
C45 O55 1.272 . S
O46 Co42 2.004 . S
O46 C51 1.259 . S
Co47 O48 2.061 . S
Co47 O53 2.052 . S
Co47 O55 2.135 . S
O48 Co47 2.061 . S
O48 C51 1.235 . S
C49 O52 1.238 . S
C49 O53 1.241 . S
C50 O43 1.247 1_545 S
C50 O44 1.261 . S
C51 O46 1.259 . S
C51 O48 1.235 . S
O52 Co42 2.021 . S
O52 C49 1.238 . S
O53 Co47 2.052 . S
O53 C49 1.241 . S
O54 Co42 2.137 1_545 S
O54 C45 1.247 1_545 S
O55 Co42 2.244 . S
O55 C45 1.272 . S
O55 Co47 2.135 . S
Co56 O57 2.216 . S
Co56 O58 2.091 . S
Co56 O60 2.004 . S
Co56 O66 2.021 . S
Co56 O68 2.137 . S
Co56 O69 2.244 . S
O57 Co56 2.216 . S
O57 C64 1.247 . S
O58 Co56 2.091 . S
O58 C64 1.261 . S
C59 O68 1.247 . S
C59 O69 1.272 . S
O60 Co56 2.004 . S
O60 C65 1.259 . S
Co61 O62 2.061 . S
Co61 O67 2.052 . S
Co61 O69 2.135 . S
O62 Co61 2.061 . S
O62 C65 1.235 . S
C63 O66 1.238 . S
C63 O67 1.241 . S
C64 O57 1.247 . S
C64 O58 1.261 . S
C65 O60 1.259 . S
C65 O62 1.235 . S
O66 Co56 2.021 . S
O66 C63 1.238 . S
O67 Co61 2.052 . S
O67 C63 1.241 . S
O68 Co56 2.137 . S
O68 C59 1.247 . S
O69 Co56 2.244 . S
O69 C59 1.272 . S
O69 Co61 2.135 . S
Co70 O71 2.216 . S
Co70 O72 2.091 . S
Co70 O74 2.004 . S
Co70 O80 2.021 . S
Co70 O82 2.137 . S
Co70 O83 2.244 . S
O71 Co70 2.216 . S
O71 C78 1.247 . S
O72 Co70 2.091 . S
O72 C78 1.261 . S
C73 O82 1.247 . S
C73 O83 1.272 . S
O74 Co70 2.004 . S
O74 C79 1.259 . S
Co75 O76 2.061 . S
Co75 O81 2.052 . S
Co75 O83 2.135 . S
O76 Co75 2.061 . S
O76 C79 1.235 . S
C77 O80 1.238 . S
C77 O81 1.241 . S
C78 O71 1.247 . S
C78 O72 1.261 . S
C79 O74 1.259 . S
C79 O76 1.235 . S
O80 Co70 2.021 . S
O80 C77 1.238 . S
O81 Co75 2.052 . S
O81 C77 1.241 . S
O82 Co70 2.137 . S
O82 C73 1.247 . S
O83 Co70 2.244 . S
O83 C73 1.272 . S
O83 Co75 2.135 . S
Co84 O85 2.216 . S
Co84 O86 2.091 1_655 S
Co84 O88 2.004 . S
Co84 O94 2.021 . S
Co84 O96 2.137 1_655 S
Co84 O97 2.244 . S
O85 Co84 2.216 . S
O85 C92 1.247 1_655 S
O86 Co84 2.091 1_455 S
O86 C92 1.261 . S
C87 O96 1.247 1_655 S
C87 O97 1.272 . S
O88 Co84 2.004 . S
O88 C93 1.259 . S
Co89 O90 2.061 . S
Co89 O95 2.052 . S
Co89 O97 2.135 . S
O90 Co89 2.061 . S
O90 C93 1.235 . S
C91 O94 1.238 . S
C91 O95 1.241 . S
C92 O85 1.247 1_455 S
C92 O86 1.261 . S
C93 O88 1.259 . S
C93 O90 1.235 . S
O94 Co84 2.021 . S
O94 C91 1.238 . S
O95 Co89 2.052 . S
O95 C91 1.241 . S
O96 Co84 2.137 1_455 S
O96 C87 1.247 1_455 S
O97 Co84 2.244 . S
O97 C87 1.272 . S
O97 Co89 2.135 . S
Co98 O99 2.216 . S
Co98 O100 2.091 1_565 S
Co98 O102 2.004 . S
Co98 O108 2.021 . S
Co98 O110 2.137 1_565 S
Co98 O111 2.244 . S
O99 Co98 2.216 . S
O99 C106 1.247 1_565 S
O100 Co98 2.091 1_545 S
O100 C106 1.261 . S
C101 O110 1.247 1_565 S
C101 O111 1.272 . S
O102 Co98 2.004 . S
O102 C107 1.259 . S
Co103 O104 2.061 . S
Co103 O109 2.052 . S
Co103 O111 2.135 . S
O104 Co103 2.061 . S
O104 C107 1.235 . S
C105 O108 1.238 . S
C105 O109 1.241 . S
C106 O99 1.247 1_545 S
C106 O100 1.261 . S
C107 O102 1.259 . S
C107 O104 1.235 . S
O108 Co98 2.021 . S
O108 C105 1.238 . S
O109 Co103 2.052 . S
O109 C105 1.241 . S
O110 Co98 2.137 1_545 S
O110 C101 1.247 1_545 S
O111 Co98 2.244 . S
O111 C101 1.272 . S
O111 Co103 2.135 . S
Co112 O113 2.216 . S
Co112 O114 2.091 . S
Co112 O116 2.004 . S
Co112 O122 2.021 . S
Co112 O124 2.137 . S
Co112 O125 2.244 . S
O113 Co112 2.216 . S
O113 C120 1.247 . S
O114 Co112 2.091 . S
O114 C120 1.261 . S
C115 O124 1.247 . S
C115 O125 1.272 . S
O116 Co112 2.004 . S
O116 C121 1.259 . S
Co117 O118 2.061 . S
Co117 O123 2.052 . S
Co117 O125 2.135 . S
O118 Co117 2.061 . S
O118 C121 1.235 . S
C119 O122 1.238 . S
C119 O123 1.241 . S
C120 O113 1.247 . S
C120 O114 1.261 . S
C121 O116 1.259 . S
C121 O118 1.235 . S
O122 Co112 2.021 . S
O122 C119 1.238 . S
O123 Co117 2.052 . S
O123 C119 1.241 . S
O124 Co112 2.137 . S
O124 C115 1.247 . S
O125 Co112 2.244 . S
O125 C115 1.272 . S
O125 Co117 2.135 . S
Co126 O127 2.216 . S
Co126 O128 2.091 . S
Co126 O130 2.004 . S
Co126 O136 2.021 . S
Co126 O138 2.137 . S
Co126 O139 2.244 . S
O127 Co126 2.216 . S
O127 C134 1.247 . S
O128 Co126 2.091 . S
O128 C134 1.261 . S
C129 O138 1.247 . S
C129 O139 1.272 . S
O130 Co126 2.004 . S
O130 C135 1.259 . S
Co131 O132 2.061 . S
Co131 O137 2.052 . S
Co131 O139 2.135 . S
O132 Co131 2.061 . S
O132 C135 1.235 . S
C133 O136 1.238 . S
C133 O137 1.241 . S
C134 O127 1.247 . S
C134 O128 1.261 . S
C135 O130 1.259 . S
C135 O132 1.235 . S
O136 Co126 2.021 . S
O136 C133 1.238 . S
O137 Co131 2.052 . S
O137 C133 1.241 . S
O138 Co126 2.137 . S
O138 C129 1.247 . S
O139 Co126 2.244 . S
O139 C129 1.272 . S
O139 Co131 2.135 . S
Co140 O141 2.216 . S
Co140 O142 2.091 1_455 S
Co140 O144 2.004 . S
Co140 O150 2.021 . S
Co140 O152 2.137 1_455 S
Co140 O153 2.244 . S
O141 Co140 2.216 . S
O141 C148 1.247 1_455 S
O142 Co140 2.091 1_655 S
O142 C148 1.261 . S
C143 O152 1.247 1_455 S
C143 O153 1.272 . S
O144 Co140 2.004 . S
O144 C149 1.259 . S
Co145 O146 2.061 . S
Co145 O151 2.052 . S
Co145 O153 2.135 . S
O146 Co145 2.061 . S
O146 C149 1.235 . S
C147 O150 1.238 . S
C147 O151 1.241 . S
C148 O141 1.247 1_655 S
C148 O142 1.261 . S
C149 O144 1.259 . S
C149 O146 1.235 . S
O150 Co140 2.021 . S
O150 C147 1.238 . S
O151 Co145 2.052 . S
O151 C147 1.241 . S
O152 Co140 2.137 1_655 S
O152 C143 1.247 1_655 S
O153 Co140 2.244 . S
O153 C143 1.272 . S
O153 Co145 2.135 . S
Co154 O155 2.216 . S
Co154 O156 2.091 1_545 S
Co154 O158 2.004 . S
Co154 O164 2.021 . S
Co154 O166 2.137 1_545 S
Co154 O167 2.244 . S
O155 Co154 2.216 . S
O155 C162 1.247 1_545 S
O156 Co154 2.091 1_565 S
O156 C162 1.261 . S
C157 O166 1.247 1_545 S
C157 O167 1.272 . S
O158 Co154 2.004 . S
O158 C163 1.259 . S
Co159 O160 2.061 . S
Co159 O165 2.052 . S
Co159 O167 2.135 . S
O160 Co159 2.061 . S
O160 C163 1.235 . S
C161 O164 1.238 . S
C161 O165 1.241 . S
C162 O155 1.247 1_565 S
C162 O156 1.261 . S
C163 O158 1.259 . S
C163 O160 1.235 . S
O164 Co154 2.021 . S
O164 C161 1.238 . S
O165 Co159 2.052 . S
O165 C161 1.241 . S
O166 Co154 2.137 1_565 S
O166 C157 1.247 1_565 S
O167 Co154 2.244 . S
O167 C157 1.272 . S
O167 Co159 2.135 . S
Co168 O169 2.216 . S
Co168 O170 2.091 . S
Co168 O172 2.004 . S
Co168 O178 2.021 . S
Co168 O180 2.137 . S
Co168 O181 2.244 . S
O169 Co168 2.216 . S
O169 C176 1.247 . S
O170 Co168 2.091 . S
O170 C176 1.261 . S
C171 O180 1.247 . S
C171 O181 1.272 . S
O172 Co168 2.004 . S
O172 C177 1.259 . S
Co173 O174 2.061 . S
Co173 O179 2.052 . S
Co173 O181 2.135 . S
O174 Co173 2.061 . S
O174 C177 1.235 . S
C175 O178 1.238 . S
C175 O179 1.241 . S
C176 O169 1.247 . S
C176 O170 1.261 . S
C177 O172 1.259 . S
C177 O174 1.235 . S
O178 Co168 2.021 . S
O178 C175 1.238 . S
O179 Co173 2.052 . S
O179 C175 1.241 . S
O180 Co168 2.137 . S
O180 C171 1.247 . S
O181 Co168 2.244 . S
O181 C171 1.272 . S
O181 Co173 2.135 . S
Co182 O183 2.216 . S
Co182 O184 2.091 . S
Co182 O186 2.004 . S
Co182 O192 2.021 . S
Co182 O194 2.137 . S
Co182 O195 2.244 . S
O183 Co182 2.216 . S
O183 C190 1.247 . S
O184 Co182 2.091 . S
O184 C190 1.261 . S
C185 O194 1.247 . S
C185 O195 1.272 . S
O186 Co182 2.004 . S
O186 C191 1.259 . S
Co187 O188 2.061 . S
Co187 O193 2.052 . S
Co187 O195 2.135 . S
O188 Co187 2.061 . S
O188 C191 1.235 . S
C189 O192 1.238 . S
C189 O193 1.241 . S
C190 O183 1.247 . S
C190 O184 1.261 . S
C191 O186 1.259 . S
C191 O188 1.235 . S
O192 Co182 2.021 . S
O192 C189 1.238 . S
O193 Co187 2.052 . S
O193 C189 1.241 . S
O194 Co182 2.137 . S
O194 C185 1.247 . S
O195 Co182 2.244 . S
O195 C185 1.272 . S
O195 Co187 2.135 . S
Co196 O197 2.216 . S
Co196 O198 2.091 1_455 S
Co196 O200 2.004 . S
Co196 O206 2.021 . S
Co196 O208 2.137 1_455 S
Co196 O209 2.244 . S
O197 Co196 2.216 . S
O197 C204 1.247 1_455 S
O198 Co196 2.091 1_655 S
O198 C204 1.261 . S
C199 O208 1.247 1_455 S
C199 O209 1.272 . S
O200 Co196 2.004 . S
O200 C205 1.259 . S
Co201 O202 2.061 . S
Co201 O207 2.052 . S
Co201 O209 2.135 . S
O202 Co201 2.061 . S
O202 C205 1.235 . S
C203 O206 1.238 . S
C203 O207 1.241 . S
C204 O197 1.247 1_655 S
C204 O198 1.261 . S
C205 O200 1.259 . S
C205 O202 1.235 . S
O206 Co196 2.021 . S
O206 C203 1.238 . S
O207 Co201 2.052 . S
O207 C203 1.241 . S
O208 Co196 2.137 1_655 S
O208 C199 1.247 1_655 S
O209 Co196 2.244 . S
O209 C199 1.272 . S
O209 Co201 2.135 . S
Co210 O211 2.216 . S
Co210 O212 2.091 1_545 S
Co210 O214 2.004 . S
Co210 O220 2.021 . S
Co210 O222 2.137 1_545 S
Co210 O223 2.244 . S
O211 Co210 2.216 . S
O211 C218 1.247 1_545 S
O212 Co210 2.091 1_565 S
O212 C218 1.261 . S
C213 O222 1.247 1_545 S
C213 O223 1.272 . S
O214 Co210 2.004 . S
O214 C219 1.259 . S
Co215 O216 2.061 . S
Co215 O221 2.052 . S
Co215 O223 2.135 . S
O216 Co215 2.061 . S
O216 C219 1.235 . S
C217 O220 1.238 . S
C217 O221 1.241 . S
C218 O211 1.247 1_565 S
C218 O212 1.261 . S
C219 O214 1.259 . S
C219 O216 1.235 . S
O220 Co210 2.021 . S
O220 C217 1.238 . S
O221 Co215 2.052 . S
O221 C217 1.241 . S
O222 Co210 2.137 1_565 S
O222 C213 1.247 1_565 S
O223 Co210 2.244 . S
O223 C213 1.272 . S
O223 Co215 2.135 . S
C224 C225 1.387 1_554 S
C224 H228 0.950 . S
C224 C233 1.390 . S
C225 C224 1.387 1_556 S
C225 C227 1.387 . S
H226 C233 0.950 . S
C227 C225 1.387 . S
C227 C229 1.390 . S
C227 H231 0.950 . S
H228 C224 0.950 . S
C229 C227 1.390 . S
C229 C230 1.387 . S
C229 H232 0.950 . S
C230 C229 1.387 . S
C230 C233 1.387 1_556 S
H231 C227 0.950 . S
H232 C229 0.950 . S
C233 C224 1.390 . S
C233 H226 0.950 . S
C233 C230 1.387 1_554 S
C234 C235 1.387 . S
C234 H238 0.950 . S
C234 C243 1.390 . S
C235 C234 1.387 . S
C235 C237 1.387 1_556 S
H236 C243 0.950 . S
C237 C235 1.387 1_554 S
C237 C239 1.390 . S
C237 H241 0.950 . S
H238 C234 0.950 . S
C239 C237 1.390 . S
C239 C240 1.387 1_554 S
C239 H242 0.950 . S
C240 C239 1.387 1_556 S
C240 C243 1.387 . S
H241 C237 0.950 . S
H242 C239 0.950 . S
C243 C234 1.390 . S
C243 H236 0.950 . S
C243 C240 1.387 . S
C244 C245 1.387 1_554 S
C244 H248 0.950 . S
C244 C253 1.390 . S
C245 C244 1.387 1_556 S
C245 C247 1.387 . S
H246 C253 0.950 . S
C247 C245 1.387 . S
C247 C249 1.390 . S
C247 H251 0.950 . S
H248 C244 0.950 . S
C249 C247 1.390 . S
C249 C250 1.387 . S
C249 H252 0.950 . S
C250 C249 1.387 . S
C250 C253 1.387 1_556 S
H251 C247 0.950 . S
H252 C249 0.950 . S
C253 C244 1.390 . S
C253 H246 0.950 . S
C253 C250 1.387 1_554 S
C254 C255 1.387 . S
C254 H258 0.950 . S
C254 C263 1.390 . S
C255 C254 1.387 . S
C255 C257 1.387 1_556 S
H256 C263 0.950 . S
C257 C255 1.387 1_554 S
C257 C259 1.390 . S
C257 H261 0.950 . S
H258 C254 0.950 . S
C259 C257 1.390 . S
C259 C260 1.387 1_554 S
C259 H262 0.950 . S
C260 C259 1.387 1_556 S
C260 C263 1.387 . S
H261 C257 0.950 . S
H262 C259 0.950 . S
C263 C254 1.390 . S
C263 H256 0.950 . S
C263 C260 1.387 . S
C264 C265 1.387 . S
C264 H268 0.950 . S
C264 C273 1.390 . S
C265 C264 1.387 . S
C265 C267 1.387 . S
H266 C273 0.950 . S
C267 C265 1.387 . S
C267 C269 1.390 . S
C267 H271 0.950 . S
H268 C264 0.950 . S
C269 C267 1.390 . S
C269 C270 1.387 . S
C269 H272 0.950 . S
C270 C269 1.387 . S
C270 C273 1.387 . S
H271 C267 0.950 . S
H272 C269 0.950 . S
C273 C264 1.390 . S
C273 H266 0.950 . S
C273 C270 1.387 . S
C274 C275 1.387 . S
C274 H278 0.950 . S
C274 C283 1.390 . S
C275 C274 1.387 . S
C275 C277 1.387 . S
H276 C283 0.950 . S
C277 C275 1.387 . S
C277 C279 1.390 . S
C277 H281 0.950 . S
H278 C274 0.950 . S
C279 C277 1.390 . S
C279 C280 1.387 . S
C279 H282 0.950 . S
C280 C279 1.387 . S
C280 C283 1.387 . S
H281 C277 0.950 . S
H282 C279 0.950 . S
C283 C274 1.390 . S
C283 H276 0.950 . S
C283 C280 1.387 . S
C284 C285 1.387 . S
C284 H288 0.950 . S
C284 C293 1.390 . S
C285 C284 1.387 . S
C285 C287 1.387 . S
H286 C293 0.950 . S
C287 C285 1.387 . S
C287 C289 1.390 . S
C287 H291 0.950 . S
H288 C284 0.950 . S
C289 C287 1.390 . S
C289 C290 1.387 . S
C289 H292 0.950 . S
C290 C289 1.387 . S
C290 C293 1.387 . S
H291 C287 0.950 . S
H292 C289 0.950 . S
C293 C284 1.390 . S
C293 H286 0.950 . S
C293 C290 1.387 . S
C294 C295 1.387 . S
C294 H298 0.950 . S
C294 C303 1.390 . S
C295 C294 1.387 . S
C295 C297 1.387 . S
H296 C303 0.950 . S
C297 C295 1.387 . S
C297 C299 1.390 . S
C297 H301 0.950 . S
H298 C294 0.950 . S
C299 C297 1.390 . S
C299 C300 1.387 . S
C299 H302 0.950 . S
C300 C299 1.387 . S
C300 C303 1.387 . S
H301 C297 0.950 . S
H302 C299 0.950 . S
C303 C294 1.390 . S
C303 H296 0.950 . S
C303 C300 1.387 . S
C304 C305 1.387 . S
C304 H308 0.950 . S
C304 C313 1.390 . S
C305 C304 1.387 . S
C305 C307 1.387 1_554 S
H306 C313 0.950 . S
C307 C305 1.387 1_556 S
C307 C309 1.390 . S
C307 H311 0.950 . S
H308 C304 0.950 . S
C309 C307 1.390 . S
C309 C310 1.387 1_556 S
C309 H312 0.950 . S
C310 C309 1.387 1_554 S
C310 C313 1.387 . S
H311 C307 0.950 . S
H312 C309 0.950 . S
C313 C304 1.390 . S
C313 H306 0.950 . S
C313 C310 1.387 . S
C314 C315 1.387 1_556 S
C314 H318 0.950 . S
C314 C323 1.390 . S
C315 C314 1.387 1_554 S
C315 C317 1.387 . S
H316 C323 0.950 . S
C317 C315 1.387 . S
C317 C319 1.390 . S
C317 H321 0.950 . S
H318 C314 0.950 . S
C319 C317 1.390 . S
C319 C320 1.387 . S
C319 H322 0.950 . S
C320 C319 1.387 . S
C320 C323 1.387 1_554 S
H321 C317 0.950 . S
H322 C319 0.950 . S
C323 C314 1.390 . S
C323 H316 0.950 . S
C323 C320 1.387 1_556 S
C324 C325 1.387 . S
C324 H328 0.950 . S
C324 C333 1.390 . S
C325 C324 1.387 . S
C325 C327 1.387 1_554 S
H326 C333 0.950 . S
C327 C325 1.387 1_556 S
C327 C329 1.390 . S
C327 H331 0.950 . S
H328 C324 0.950 . S
C329 C327 1.390 . S
C329 C330 1.387 1_556 S
C329 H332 0.950 . S
C330 C329 1.387 1_554 S
C330 C333 1.387 . S
H331 C327 0.950 . S
H332 C329 0.950 . S
C333 C324 1.390 . S
C333 H326 0.950 . S
C333 C330 1.387 . S
C334 C335 1.387 1_556 S
C334 H338 0.950 . S
C334 C343 1.390 . S
C335 C334 1.387 1_554 S
C335 C337 1.387 . S
H336 C343 0.950 . S
C337 C335 1.387 . S
C337 C339 1.390 . S
C337 H341 0.950 . S
H338 C334 0.950 . S
C339 C337 1.390 . S
C339 C340 1.387 . S
C339 H342 0.950 . S
C340 C339 1.387 . S
C340 C343 1.387 1_554 S
H341 C337 0.950 . S
H342 C339 0.950 . S
C343 C334 1.390 . S
C343 H336 0.950 . S
C343 C340 1.387 1_556 S
C344 C345 1.387 . S
C344 H348 0.950 . S
C344 C353 1.390 . S
C345 C344 1.387 . S
C345 C347 1.387 . S
H346 C353 0.950 . S
C347 C345 1.387 . S
C347 C349 1.390 . S
C347 H351 0.950 . S
H348 C344 0.950 . S
C349 C347 1.390 . S
C349 C350 1.387 . S
C349 H352 0.950 . S
C350 C349 1.387 . S
C350 C353 1.387 . S
H351 C347 0.950 . S
H352 C349 0.950 . S
C353 C344 1.390 . S
C353 H346 0.950 . S
C353 C350 1.387 . S
C354 C355 1.387 . S
C354 H358 0.950 . S
C354 C363 1.390 . S
C355 C354 1.387 . S
C355 C357 1.387 . S
H356 C363 0.950 . S
C357 C355 1.387 . S
C357 C359 1.390 . S
C357 H361 0.950 . S
H358 C354 0.950 . S
C359 C357 1.390 . S
C359 C360 1.387 . S
C359 H362 0.950 . S
C360 C359 1.387 . S
C360 C363 1.387 . S
H361 C357 0.950 . S
H362 C359 0.950 . S
C363 C354 1.390 . S
C363 H356 0.950 . S
C363 C360 1.387 . S
C364 C365 1.387 . S
C364 H368 0.950 . S
C364 C373 1.390 . S
C365 C364 1.387 . S
C365 C367 1.387 . S
H366 C373 0.950 . S
C367 C365 1.387 . S
C367 C369 1.390 . S
C367 H371 0.950 . S
H368 C364 0.950 . S
C369 C367 1.390 . S
C369 C370 1.387 . S
C369 H372 0.950 . S
C370 C369 1.387 . S
C370 C373 1.387 . S
H371 C367 0.950 . S
H372 C369 0.950 . S
C373 C364 1.390 . S
C373 H366 0.950 . S
C373 C370 1.387 . S
C374 C375 1.387 . S
C374 H378 0.950 . S
C374 C383 1.390 . S
C375 C374 1.387 . S
C375 C377 1.387 . S
H376 C383 0.950 . S
C377 C375 1.387 . S
C377 C379 1.390 . S
C377 H381 0.950 . S
H378 C374 0.950 . S
C379 C377 1.390 . S
C379 C380 1.387 . S
C379 H382 0.950 . S
C380 C379 1.387 . S
C380 C383 1.387 . S
H381 C377 0.950 . S
H382 C379 0.950 . S
C383 C374 1.390 . S
C383 H376 0.950 . S
C383 C380 1.387 . S
C384 C385 1.387 1_554 S
C384 H388 0.950 . S
C384 C393 1.390 1_565 S
C385 C384 1.387 1_556 S
C385 C387 1.387 . S
H386 C393 0.950 . S
C387 C385 1.387 . S
C387 C389 1.390 1_565 S
C387 H391 0.950 . S
H388 C384 0.950 . S
C389 C387 1.390 1_545 S
C389 C390 1.387 1_556 S
C389 H392 0.950 . S
C390 C389 1.387 1_554 S
C390 C393 1.387 . S
H391 C387 0.950 . S
H392 C389 0.950 . S
C393 C384 1.390 1_545 S
C393 H386 0.950 . S
C393 C390 1.387 . S
C394 C395 1.387 1_556 S
C394 H398 0.950 . S
C394 C403 1.390 . S
C395 C394 1.387 1_554 S
C395 C397 1.387 . S
H396 C403 0.950 . S
C397 C395 1.387 . S
C397 C399 1.390 . S
C397 H401 0.950 . S
H398 C394 0.950 . S
C399 C397 1.390 . S
C399 C400 1.387 1_554 S
C399 H402 0.950 . S
C400 C399 1.387 1_556 S
C400 C403 1.387 . S
H401 C397 0.950 . S
H402 C399 0.950 . S
C403 C394 1.390 . S
C403 H396 0.950 . S
C403 C400 1.387 . S
C404 C405 1.387 1_554 S
C404 H408 0.950 . S
C404 C413 1.390 . S
C405 C404 1.387 1_556 S
C405 C407 1.387 1_655 S
H406 C413 0.950 . S
C407 C405 1.387 1_455 S
C407 C409 1.390 . S
C407 H411 0.950 . S
H408 C404 0.950 . S
C409 C407 1.390 . S
C409 C410 1.387 1_556 S
C409 H412 0.950 . S
C410 C409 1.387 1_554 S
C410 C413 1.387 1_455 S
H411 C407 0.950 . S
H412 C409 0.950 . S
C413 C404 1.390 . S
C413 H406 0.950 . S
C413 C410 1.387 1_655 S
C414 C415 1.387 1_565 S
C414 H418 0.950 . S
C414 C423 1.390 1_455 S
C415 C414 1.387 1_545 S
C415 C417 1.387 1_554 S
H416 C423 0.950 . S
C417 C415 1.387 1_556 S
C417 C419 1.390 1_455 S
C417 H421 0.950 . S
H418 C414 0.950 . S
C419 C417 1.390 1_655 S
C419 C420 1.387 1_545 S
C419 H422 0.950 . S
C420 C419 1.387 1_565 S
C420 C423 1.387 1_556 S
H421 C417 0.950 . S
H422 C419 0.950 . S
C423 C414 1.390 1_655 S
C423 H416 0.950 . S
C423 C420 1.387 1_554 S
C424 C425 1.387 . S
C424 H428 0.950 . S
C424 C433 1.390 . S
C425 C424 1.387 . S
C425 C427 1.387 . S
H426 C433 0.950 . S
C427 C425 1.387 . S
C427 C429 1.390 . S
C427 H431 0.950 . S
H428 C424 0.950 . S
C429 C427 1.390 . S
C429 C430 1.387 . S
C429 H432 0.950 . S
C430 C429 1.387 . S
C430 C433 1.387 . S
H431 C427 0.950 . S
H432 C429 0.950 . S
C433 C424 1.390 . S
C433 H426 0.950 . S
C433 C430 1.387 . S
C434 C435 1.387 . S
C434 H438 0.950 . S
C434 C443 1.390 1_455 S
C435 C434 1.387 . S
C435 C437 1.387 . S
H436 C443 0.950 . S
C437 C435 1.387 . S
C437 C439 1.390 1_455 S
C437 H441 0.950 . S
H438 C434 0.950 . S
C439 C437 1.390 1_655 S
C439 C440 1.387 . S
C439 H442 0.950 . S
C440 C439 1.387 . S
C440 C443 1.387 . S
H441 C437 0.950 . S
H442 C439 0.950 . S
C443 C434 1.390 1_655 S
C443 H436 0.950 . S
C443 C440 1.387 . S
C444 C445 1.387 . S
C444 H448 0.950 . S
C444 C453 1.390 1_665 S
C445 C444 1.387 . S
C445 C447 1.387 . S
H446 C453 0.950 . S
C447 C445 1.387 . S
C447 C449 1.390 1_665 S
C447 H451 0.950 . S
H448 C444 0.950 . S
C449 C447 1.390 1_445 S
C449 C450 1.387 . S
C449 H452 0.950 . S
C450 C449 1.387 . S
C450 C453 1.387 . S
H451 C447 0.950 . S
H452 C449 0.950 . S
C453 C444 1.390 1_445 S
C453 H446 0.950 . S
C453 C450 1.387 . S
C454 C455 1.387 1_545 S
C454 H458 0.950 . S
C454 C463 1.390 . S
C455 C454 1.387 1_565 S
C455 C457 1.387 . S
H456 C463 0.950 . S
C457 C455 1.387 . S
C457 C459 1.390 . S
C457 H461 0.950 . S
H458 C454 0.950 . S
C459 C457 1.390 . S
C459 C460 1.387 1_565 S
C459 H462 0.950 . S
C460 C459 1.387 1_545 S
C460 C463 1.387 . S
H461 C457 0.950 . S
H462 C459 0.950 . S
C463 C454 1.390 . S
C463 H456 0.950 . S
C463 C460 1.387 . S
C464 C465 1.387 . S
C464 H468 0.950 . S
C464 C473 1.390 . S
C465 C464 1.387 . S
C465 C467 1.387 . S
H466 C473 0.950 . S
C467 C465 1.387 . S
C467 C469 1.390 . S
C467 H471 0.950 . S
H468 C464 0.950 . S
C469 C467 1.390 . S
C469 C470 1.387 . S
C469 H472 0.950 . S
C470 C469 1.387 . S
C470 C473 1.387 . S
H471 C467 0.950 . S
H472 C469 0.950 . S
C473 C464 1.390 . S
C473 H466 0.950 . S
C473 C470 1.387 . S
C474 C475 1.387 . S
C474 H478 0.950 . S
C474 C483 1.390 . S
C475 C474 1.387 . S
C475 C477 1.387 . S
H476 C483 0.950 . S
C477 C475 1.387 . S
C477 C479 1.390 . S
C477 H481 0.950 . S
H478 C474 0.950 . S
C479 C477 1.390 . S
C479 C480 1.387 . S
C479 H482 0.950 . S
C480 C479 1.387 . S
C480 C483 1.387 . S
H481 C477 0.950 . S
H482 C479 0.950 . S
C483 C474 1.390 . S
C483 H476 0.950 . S
C483 C480 1.387 . S
C484 C485 1.387 1_455 S
C484 H488 0.950 . S
C484 C493 1.390 . S
C485 C484 1.387 1_655 S
C485 C487 1.387 . S
H486 C493 0.950 . S
C487 C485 1.387 . S
C487 C489 1.390 . S
C487 H491 0.950 . S
H488 C484 0.950 . S
C489 C487 1.390 . S
C489 C490 1.387 . S
C489 H492 0.950 . S
C490 C489 1.387 . S
C490 C493 1.387 1_655 S
H491 C487 0.950 . S
H492 C489 0.950 . S
C493 C484 1.390 . S
C493 H486 0.950 . S
C493 C490 1.387 1_455 S
C494 C495 1.387 . S
C494 H498 0.950 . S
C494 C503 1.390 . S
C495 C494 1.387 . S
C495 C497 1.387 1_565 S
H496 C503 0.950 . S
C497 C495 1.387 1_545 S
C497 C499 1.390 . S
C497 H501 0.950 . S
H498 C494 0.950 . S
C499 C497 1.390 . S
C499 C500 1.387 1_545 S
C499 H502 0.950 . S
C500 C499 1.387 1_565 S
C500 C503 1.387 . S
H501 C497 0.950 . S
H502 C499 0.950 . S
C503 C494 1.390 . S
C503 H496 0.950 . S
C503 C500 1.387 . S
C504 C505 1.387 . S
C504 H508 0.950 . S
C504 C513 1.390 . S
C505 C504 1.387 . S
C505 C507 1.387 . S
H506 C513 0.950 . S
C507 C505 1.387 . S
C507 C509 1.390 . S
C507 H511 0.950 . S
H508 C504 0.950 . S
C509 C507 1.390 . S
C509 C510 1.387 . S
C509 H512 0.950 . S
C510 C509 1.387 . S
C510 C513 1.387 . S
H511 C507 0.950 . S
H512 C509 0.950 . S
C513 C504 1.390 . S
C513 H506 0.950 . S
C513 C510 1.387 . S
C514 C515 1.387 . S
C514 H518 0.950 . S
C514 C523 1.390 . S
C515 C514 1.387 . S
C515 C517 1.387 . S
H516 C523 0.950 . S
C517 C515 1.387 . S
C517 C519 1.390 . S
C517 H521 0.950 . S
H518 C514 0.950 . S
C519 C517 1.390 . S
C519 C520 1.387 . S
C519 H522 0.950 . S
C520 C519 1.387 . S
C520 C523 1.387 . S
H521 C517 0.950 . S
H522 C519 0.950 . S
C523 C514 1.390 . S
C523 H516 0.950 . S
C523 C520 1.387 . S
C524 C525 1.387 1_655 S
C524 H528 0.950 . S
C524 C533 1.390 . S
C525 C524 1.387 1_455 S
C525 C527 1.387 . S
H526 C533 0.950 . S
C527 C525 1.387 . S
C527 C529 1.390 . S
C527 H531 0.950 . S
H528 C524 0.950 . S
C529 C527 1.390 . S
C529 C530 1.387 . S
C529 H532 0.950 . S
C530 C529 1.387 . S
C530 C533 1.387 1_455 S
H531 C527 0.950 . S
H532 C529 0.950 . S
C533 C524 1.390 . S
C533 H526 0.950 . S
C533 C530 1.387 1_655 S
C534 C535 1.387 . S
C534 H538 0.950 . S
C534 C543 1.390 . S
C535 C534 1.387 . S
C535 C537 1.387 1_545 S
H536 C543 0.950 . S
C537 C535 1.387 1_565 S
C537 C539 1.390 . S
C537 H541 0.950 . S
H538 C534 0.950 . S
C539 C537 1.390 . S
C539 C540 1.387 1_565 S
C539 H542 0.950 . S
C540 C539 1.387 1_545 S
C540 C543 1.387 . S
H541 C537 0.950 . S
H542 C539 0.950 . S
C543 C534 1.390 . S
C543 H536 0.950 . S
C543 C540 1.387 . S
C225 C9 1.020 1_556 S
C230 C133 1.097 . S
C235 C147 1.099 . S
C240 C23 1.016 1_556 S
C245 C161 1.097 . S
C250 C37 1.020 1_556 S
C255 C119 1.098 . S
C260 C51 1.015 1_556 S
C265 C65 1.014 . S
C270 C217 1.098 . S
C275 C175 1.097 . S
C280 C79 1.014 . S
C285 C189 1.098 . S
C290 C93 1.014 . S
C295 C203 1.098 . S
C300 C107 1.015 . S
C305 C121 1.021 1_554 S
C310 C21 1.098 . S
C315 C135 1.015 1_554 S
C320 C35 1.098 . S
C325 C149 1.020 1_554 S
C330 C49 1.097 . S
C335 C7 1.098 . S
C340 C163 1.015 1_554 S
C345 C177 1.020 . S
C350 C105 1.097 . S
C355 C191 1.015 . S
C360 C63 1.098 . S
C365 C77 1.098 . S
C370 C205 1.014 . S
C375 C219 1.015 . S
C380 C91 1.099 . S
C385 C120 1.885 . S
C390 C8 1.885 . S
C395 C22 1.888 . S
C400 C134 1.888 . S
C405 C148 1.886 . S
C410 C36 1.886 . S
C415 C50 1.886 . S
C420 C162 1.886 . S
C425 C176 1.887 . S
C430 C64 1.887 . S
C435 C78 1.886 . S
C440 C190 1.886 . S
C445 C204 1.886 . S
C450 C92 1.886 . S
C455 C218 1.888 . S
C460 C106 1.888 . S
C465 C59 1.693 . S
C470 C3 1.693 . S
C475 C73 1.695 . S
C480 C17 1.695 . S
C485 C31 1.693 . S
C490 C87 1.693 . S
C495 C101 1.695 . S
C500 C45 1.695 . S
C505 C115 1.695 . S
C510 C171 1.695 . S
C515 C185 1.695 . S
C520 C129 1.695 . S
C525 C199 1.695 . S
C530 C143 1.695 . S
C535 C213 1.694 . S
C540 C157 1.694 . S
