# Generated by pormake.
# Topology ske, (6)-cn, num edge types: 1
# Building blocks:
#     Node 0, Type 0, BuildingBlock: BETFEN_clean_sbu_0, # of connection points: 6
#     Node 1, Type 0, BuildingBlock: BETFEN_clean_sbu_0, # of connection points: 6
#     Node 2, Type 0, BuildingBlock: BETFEN_clean_sbu_0, # of connection points: 6
#     Node 3, Type 0, BuildingBlock: BETFEN_clean_sbu_0, # of connection points: 6
#     Node 4, Type 0, BuildingBlock: BETFEN_clean_sbu_0, # of connection points: 6
#     Node 5, Type 0, BuildingBlock: BETFEN_clean_sbu_0, # of connection points: 6
#     Node 6, Type 0, BuildingBlock: BETFEN_clean_sbu_0, # of connection points: 6
#     Node 7, Type 0, BuildingBlock: BETFEN_clean_sbu_0, # of connection points: 6
#     Edge 8, Type (0, 0), BuildingBlock: TEMPAE_clean_linker_10, # of connection points: 2
#     Edge 9, Type (0, 0), BuildingBlock: TEMPAE_clean_linker_10, # of connection points: 2
#     Edge 10, Type (0, 0), BuildingBlock: TEMPAE_clean_linker_10, # of connection points: 2
#     Edge 11, Type (0, 0), BuildingBlock: TEMPAE_clean_linker_10, # of connection points: 2
#     Edge 12, Type (0, 0), BuildingBlock: TEMPAE_clean_linker_10, # of connection points: 2
#     Edge 13, Type (0, 0), BuildingBlock: TEMPAE_clean_linker_10, # of connection points: 2
#     Edge 14, Type (0, 0), BuildingBlock: TEMPAE_clean_linker_10, # of connection points: 2
#     Edge 15, Type (0, 0), BuildingBlock: TEMPAE_clean_linker_10, # of connection points: 2
#     Edge 16, Type (0, 0), BuildingBlock: TEMPAE_clean_linker_10, # of connection points: 2
#     Edge 17, Type (0, 0), BuildingBlock: TEMPAE_clean_linker_10, # of connection points: 2
#     Edge 18, Type (0, 0), BuildingBlock: TEMPAE_clean_linker_10, # of connection points: 2
#     Edge 19, Type (0, 0), BuildingBlock: TEMPAE_clean_linker_10, # of connection points: 2
#     Edge 20, Type (0, 0), BuildingBlock: TEMPAE_clean_linker_10, # of connection points: 2
#     Edge 21, Type (0, 0), BuildingBlock: TEMPAE_clean_linker_10, # of connection points: 2
#     Edge 22, Type (0, 0), BuildingBlock: TEMPAE_clean_linker_10, # of connection points: 2
#     Edge 23, Type (0, 0), BuildingBlock: TEMPAE_clean_linker_10, # of connection points: 2
#     Edge 24, Type (0, 0), BuildingBlock: TEMPAE_clean_linker_10, # of connection points: 2
#     Edge 25, Type (0, 0), BuildingBlock: TEMPAE_clean_linker_10, # of connection points: 2
#     Edge 26, Type (0, 0), BuildingBlock: TEMPAE_clean_linker_10, # of connection points: 2
#     Edge 27, Type (0, 0), BuildingBlock: TEMPAE_clean_linker_10, # of connection points: 2
#     Edge 28, Type (0, 0), BuildingBlock: TEMPAE_clean_linker_10, # of connection points: 2
#     Edge 29, Type (0, 0), BuildingBlock: TEMPAE_clean_linker_10, # of connection points: 2
#     Edge 30, Type (0, 0), BuildingBlock: TEMPAE_clean_linker_10, # of connection points: 2
#     Edge 31, Type (0, 0), BuildingBlock: TEMPAE_clean_linker_10, # of connection points: 2
# Relax obj value: 0.204
# Max RMSD: 0.205
# Mean RMSD: 0.199
data_MOF--net-ske--node1-BETFEN_clean_sbu_0--edge1-TEMPAE_clean_linker_10
_symmetry_space_group_name_H-M    P1
_symmetry_Int_Tables_number       1
_symmetry_cell_setting            triclinic
loop_
_symmetry_equiv_pos_as_xyz
'x, y, z'
_cell_length_a     105.05041
_cell_length_b     29.843883
_cell_length_c     15.923764
_cell_angle_alpha  89.944087
_cell_angle_beta   89.998221
_cell_angle_gamma 84.698152
loop_
_atom_site_label
_atom_site_type_symbol
_atom_site_fract_x
_atom_site_fract_y
_atom_site_fract_z
_atom_type_partial_charge
Pr0 Pr 0.15414 0.25148 0.53573 0.0
Pr1 Pr 0.12626 0.24715 0.54678 0.0
C2 C 0.17895 0.26891 0.54734 0.0
C3 C 0.19122 0.26134 0.59412 0.0
C4 C 0.2004 0.2263 0.57061 0.0
C5 C 0.21259 0.22236 0.6069 0.0
C6 C 0.21597 0.2535 0.66737 0.0
C7 C 0.20668 0.28787 0.69254 0.0
C8 C 0.19447 0.29186 0.6561 0.0
C9 C 0.14711 0.16284 0.52575 0.0
C10 C 0.14112 0.24327 0.72279 0.0
C11 C 0.10143 0.22975 0.54413 0.0
C12 C 0.0879 0.24063 0.51855 0.0
C13 C 0.08006 0.27431 0.56033 0.0
C14 C 0.06683 0.27909 0.54688 0.0
C15 C 0.06108 0.25029 0.49141 0.0
C16 C 0.06901 0.21789 0.44693 0.0
C17 C 0.08225 0.21301 0.46063 0.0
C18 C 0.13334 0.33605 0.55021 0.0
C19 C 0.13953 0.25197 0.35738 0.0
O20 O 0.16953 0.29471 0.58045 0.0
O21 O 0.17508 0.2355 0.50428 0.0
O22 O 0.14249 0.19215 0.5773 0.0
O23 O 0.15578 0.17853 0.4793 0.0
O24 O 0.13208 0.22446 0.68271 0.0
O25 O 0.14986 0.26274 0.68028 0.0
O26 O 0.10983 0.21246 0.48964 0.0
O27 O 0.10629 0.25523 0.60009 0.0
O28 O 0.13788 0.30552 0.50107 0.0
O29 O 0.12477 0.32134 0.59891 0.0
O30 O 0.14944 0.26671 0.39552 0.0
O31 O 0.12989 0.23812 0.40074 0.0
H32 H 0.1983 0.20247 0.52244 0.0
H33 H 0.21943 0.19509 0.58684 0.0
H34 H 0.20898 0.31273 0.73825 0.0
H35 H 0.18772 0.31969 0.67477 0.0
H36 H 0.08404 0.29584 0.60624 0.0
H37 H 0.06106 0.30404 0.58311 0.0
H38 H 0.06496 0.19557 0.40276 0.0
H39 H 0.08799 0.18644 0.42814 0.0
Pr40 Pr 0.86963 0.25713 0.54217 0.0
Pr41 Pr 0.89988 0.25875 0.54953 0.0
C42 C 0.84432 0.24788 0.55338 0.0
C43 C 0.83289 0.24197 0.60579 0.0
C44 C 0.82714 0.27778 0.65404 0.0
C45 C 0.81521 0.27483 0.69174 0.0
C46 C 0.80869 0.23599 0.6824 0.0
C47 C 0.8147 0.19946 0.637 0.0
C48 C 0.82663 0.20251 0.59888 0.0
C49 C 0.87902 0.34125 0.51812 0.0
C50 C 0.88397 0.25864 0.72862 0.0
C51 C 0.9237 0.28572 0.55165 0.0
C52 C 0.93742 0.27489 0.53095 0.0
C53 C 0.94502 0.24164 0.57558 0.0
C54 C 0.95829 0.23614 0.56386 0.0
C55 C 0.96428 0.26369 0.50723 0.0
C56 C 0.95661 0.2958 0.46036 0.0
C57 C 0.94335 0.30146 0.47242 0.0
C58 C 0.89418 0.16822 0.54166 0.0
C59 C 0.88507 0.25135 0.36389 0.0
O60 O 0.85283 0.21364 0.54004 0.0
O61 O 0.84926 0.28647 0.55734 0.0
O62 O 0.88303 0.31253 0.57266 0.0
O63 O 0.86989 0.32678 0.4737 0.0
O64 O 0.89431 0.27046 0.69057 0.0
O65 O 0.8739 0.24731 0.68659 0.0
O66 O 0.91557 0.29617 0.49055 0.0
O67 O 0.91886 0.26344 0.61308 0.0
O68 O 0.8863 0.20272 0.54215 0.0
O69 O 0.90572 0.18018 0.54752 0.0
O70 O 0.87472 0.24027 0.40297 0.0
O71 O 0.89511 0.26438 0.40454 0.0
H72 H 0.83159 0.30894 0.66007 0.0
H73 H 0.81086 0.30392 0.72511 0.0
H74 H 0.81009 0.16874 0.62948 0.0
H75 H 0.83075 0.17452 0.5615 0.0
H76 H 0.9408 0.22063 0.62141 0.0
H77 H 0.96389 0.21069 0.60012 0.0
H78 H 0.96092 0.31784 0.4168 0.0
H79 H 0.93777 0.32773 0.43794 0.0
Pr80 Pr 0.12358 0.74321 0.49679 0.0
Pr81 Pr 0.15536 0.75634 0.49623 0.0
C82 C 0.10093 0.70709 0.50183 0.0
C83 C 0.08691 0.71676 0.50519 0.0
C84 C 0.08093 0.76036 0.49365 0.0
C85 C 0.06755 0.76818 0.4972 0.0
C86 C 0.05992 0.73254 0.51262 0.0
C87 C 0.06604 0.68897 0.52404 0.0
C88 C 0.07937 0.68125 0.52041 0.0
C89 C 0.1286 0.83469 0.5046 0.0
C90 C 0.13978 0.74937 0.67598 0.0
C91 C 0.17817 0.79085 0.48899 0.0
C92 C 0.19117 0.78346 0.45247 0.0
C93 C 0.19834 0.74132 0.45593 0.0
C94 C 0.21089 0.736 0.42483 0.0
C95 C 0.21653 0.77264 0.38927 0.0
C96 C 0.20923 0.81458 0.3849 0.0
C97 C 0.19672 0.81989 0.41626 0.0
C98 C 0.15018 0.6648 0.49701 0.0
C99 C 0.13971 0.74612 0.31358 0.0
O100 O 0.10741 0.71585 0.5692 0.0
O101 O 0.10672 0.71606 0.43168 0.0
O102 O 0.13641 0.80017 0.50214 0.0
O103 O 0.11706 0.82205 0.50222 0.0
O104 O 0.14883 0.76923 0.63614 0.0
O105 O 0.13068 0.72997 0.63583 0.0
O106 O 0.16871 0.80324 0.43769 0.0
O107 O 0.17508 0.76324 0.54832 0.0
O108 O 0.14244 0.69949 0.49368 0.0
O109 O 0.16173 0.67737 0.49926 0.0
O110 O 0.12908 0.73763 0.35346 0.0
O111 O 0.15031 0.75572 0.3524 0.0
H112 H 0.0866 0.78826 0.48208 0.0
H113 H 0.06319 0.80221 0.48891 0.0
H114 H 0.06052 0.66059 0.53462 0.0
H115 H 0.08381 0.64732 0.52921 0.0
H116 H 0.1943 0.71254 0.48319 0.0
H117 H 0.21616 0.7031 0.42826 0.0
H118 H 0.21328 0.84366 0.35893 0.0
H119 H 0.19142 0.85277 0.41329 0.0
Pr120 Pr 0.89916 0.76329 0.47818 0.0
Pr121 Pr 0.86907 0.75232 0.48391 0.0
C122 C 0.92204 0.79791 0.47522 0.0
C123 C 0.93585 0.78931 0.4931 0.0
C124 C 0.94191 0.74545 0.49827 0.0
C125 C 0.95523 0.73844 0.50746 0.0
C126 C 0.96276 0.77515 0.51148 0.0
C127 C 0.95654 0.81899 0.50807 0.0
C128 C 0.94325 0.82592 0.49904 0.0
C129 C 0.89539 0.67112 0.49583 0.0
C130 C 0.88458 0.75252 0.66004 0.0
C131 C 0.84503 0.72722 0.4733 0.0
C132 C 0.83239 0.73451 0.43129 0.0
C133 C 0.82532 0.77689 0.4304 0.0
C134 C 0.81284 0.78179 0.39828 0.0
C135 C 0.80713 0.74446 0.36623 0.0
C136 C 0.81438 0.70236 0.36531 0.0
C137 C 0.82683 0.69747 0.39763 0.0
C138 C 0.87592 0.84054 0.50105 0.0
C139 C 0.88336 0.75901 0.29647 0.0
O140 O 0.91412 0.80344 0.53874 0.0
O141 O 0.91755 0.77572 0.41266 0.0
O142 O 0.887 0.70393 0.49128 0.0
O143 O 0.90663 0.68582 0.49114 0.0
O144 O 0.87595 0.73137 0.61925 0.0
O145 O 0.89303 0.77479 0.61952 0.0
O146 O 0.85464 0.70731 0.43106 0.0
O147 O 0.84837 0.75839 0.52441 0.0
O148 O 0.88107 0.81138 0.45095 0.0
O149 O 0.86641 0.82523 0.54054 0.0
O150 O 0.89431 0.76402 0.33468 0.0
O151 O 0.87261 0.75468 0.33794 0.0
H152 H 0.93636 0.71668 0.49374 0.0
H153 H 0.95964 0.70423 0.51103 0.0
H154 H 0.96198 0.84809 0.5097 0.0
H155 H 0.93877 0.86004 0.49448 0.0
H156 H 0.82933 0.80614 0.4559 0.0
H157 H 0.80762 0.81483 0.39892 0.0
H158 H 0.81028 0.67277 0.34209 0.0
H159 H 0.83201 0.66434 0.39834 0.0
Pr160 Pr 0.65339 0.75771 0.0364 0.0
Pr161 Pr 0.6253 0.74775 0.04597 0.0
C162 C 0.67757 0.78179 0.04915 0.0
C163 C 0.68986 0.7767 0.09563 0.0
C164 C 0.69663 0.73434 0.10852 0.0
C165 C 0.70895 0.73095 0.14336 0.0
C166 C 0.7148 0.76981 0.16592 0.0
C167 C 0.70781 0.81202 0.15542 0.0
C168 C 0.69551 0.81537 0.12058 0.0
C169 C 0.64788 0.66774 0.02454 0.0
C170 C 0.64023 0.74595 0.22256 0.0
C171 C 0.60076 0.72665 0.04289 0.0
C172 C 0.58707 0.73723 0.0201 0.0
C173 C 0.57955 0.77291 0.05869 0.0
C174 C 0.56625 0.77784 0.04798 0.0
C175 C 0.56011 0.74727 0.99842 0.0
C176 C 0.5677 0.71275 0.95698 0.0
C177 C 0.58101 0.70769 0.96804 0.0
C178 C 0.63138 0.83783 0.04884 0.0
C179 C 0.63881 0.75399 0.85748 0.0
O180 O 0.66774 0.80478 0.08375 0.0
O181 O 0.67443 0.74777 1.00462 0.0
O182 O 0.64245 0.69611 0.07507 0.0
O183 O 0.65684 0.68482 0.98276 0.0
O184 O 0.63147 0.72582 0.18195 0.0
O185 O 0.64874 0.76698 0.18079 0.0
O186 O 0.60912 0.71282 0.98535 0.0
O187 O 0.60555 0.75033 0.10202 0.0
O188 O 0.63626 0.80756 1.00074 0.0
O189 O 0.6228 0.82246 0.09662 0.0
O190 O 0.64842 0.77088 0.89558 0.0
O191 O 0.62937 0.73853 0.90059 0.0
H192 H 0.69256 0.70386 0.08962 0.0
H193 H 0.71405 0.69791 0.14982 0.0
H194 H 0.71189 0.84263 0.17333 0.0
H195 H 0.69054 0.84844 0.11107 0.0
H196 H 0.58387 0.79623 0.09957 0.0
H197 H 0.56074 0.80521 0.07982 0.0
H198 H 0.56331 0.68836 0.91893 0.0
H199 H 0.58651 0.6795 0.93848 0.0
Pr200 Pr 0.3693 0.75389 0.03533 0.0
Pr201 Pr 0.39756 0.75909 0.0447 0.0
C202 C 0.34472 0.73408 0.04875 0.0
C203 C 0.33267 0.73902 0.09822 0.0
C204 C 0.3257 0.78115 0.10957 0.0
C205 C 0.31359 0.78431 0.1473 0.0
C206 C 0.30811 0.74544 0.17441 0.0
C207 C 0.3153 0.7035 0.16525 0.0
C208 C 0.32739 0.70036 0.12747 0.0
C209 C 0.37606 0.84256 0.0238 0.0
C210 C 0.38267 0.76286 0.22136 0.0
C211 C 0.42242 0.7765 0.04243 0.0
C212 C 0.43611 0.76581 0.01938 0.0
C213 C 0.4441 0.73545 0.06794 0.0
C214 C 0.45736 0.73106 0.05576 0.0
C215 C 0.46306 0.75696 0.99474 0.0
C216 C 0.455 0.78611 0.94407 0.0
C217 C 0.44172 0.79061 0.9565 0.0
C218 C 0.39031 0.6704 0.04636 0.0
C219 C 0.3839 0.75563 0.85607 0.0
O220 O 0.35439 0.70778 0.07755 0.0
O221 O 0.3482 0.7693 1.0091 0.0
O222 O 0.38107 0.81335 0.07456 0.0
O223 O 0.36699 0.82689 0.98083 0.0
O224 O 0.3917 0.78159 0.18075 0.0
O225 O 0.37387 0.74333 0.17959 0.0
O226 O 0.41412 0.79285 0.98638 0.0
O227 O 0.41745 0.75182 0.09935 0.0
O228 O 0.38577 0.70152 0.99861 0.0
O229 O 0.39906 0.68425 0.09473 0.0
O230 O 0.37395 0.74089 0.89414 0.0
O231 O 0.39365 0.76886 0.89917 0.0
H232 H 0.32943 0.81163 0.08724 0.0
H233 H 0.30832 0.81714 0.15245 0.0
H234 H 0.31151 0.67291 0.18651 0.0
H235 H 0.3325 0.66742 0.11913 0.0
H236 H 0.44018 0.71627 0.11792 0.0
H237 H 0.46319 0.70873 0.09691 0.0
H238 H 0.45898 0.80613 0.89559 0.0
H239 H 0.43588 0.8147 0.91866 0.0
Pr240 Pr 0.62514 0.25142 0.99958 0.0
Pr241 Pr 0.65568 0.25462 1.00181 0.0
C242 C 0.60019 0.24095 1.01701 0.0
C243 C 0.58635 0.23635 0.0279 0.0
C244 C 0.57856 0.2701 0.06963 0.0
C245 C 0.56532 0.26841 0.07337 0.0
C246 C 0.55952 0.2329 0.0356 0.0
C247 C 0.56735 0.19833 0.99612 0.0
C248 C 0.58063 0.20012 0.99207 0.0
C249 C 0.63398 0.3368 0.98084 0.0
C250 C 0.64065 0.24923 0.18197 0.0
C251 C 0.67917 0.28401 0.99556 0.0
C252 C 0.69196 0.27573 0.95711 0.0
C253 C 0.69684 0.23265 0.93071 0.0
C254 C 0.70925 0.22567 0.89755 0.0
C255 C 0.71697 0.26167 0.88996 0.0
C256 C 0.71191 0.3048 0.91578 0.0
C257 C 0.69955 0.31169 0.94888 0.0
C258 C 0.64986 0.16419 1.00083 0.0
C259 C 0.64018 0.24644 0.81792 0.0
O260 O 0.60781 0.21282 0.97263 0.0
O261 O 0.60572 0.27328 0.05377 0.0
O262 O 0.63856 0.30644 0.03041 0.0
O263 O 0.62432 0.3236 0.93984 0.0
O264 O 0.65035 0.26565 0.14346 0.0
O265 O 0.63095 0.23468 0.14007 0.0
O266 O 0.66975 0.29988 0.94674 0.0
O267 O 0.67585 0.25463 0.05086 0.0
O268 O 0.64213 0.19896 0.99949 0.0
O269 O 0.66148 0.17582 1.00302 0.0
O270 O 0.62962 0.23811 0.85788 0.0
O271 O 0.6506 0.25704 0.85739 0.0
H272 H 0.58265 0.29848 0.09793 0.0
H273 H 0.55959 0.2952 0.10543 0.0
H274 H 0.56318 0.17064 0.96599 0.0
H275 H 0.58638 0.17367 0.95926 0.0
H276 H 0.69111 0.20442 0.9362 0.0
H277 H 0.71276 0.19214 0.87742 0.0
H278 H 0.71761 0.33318 0.91213 0.0
H279 H 0.69598 0.34515 0.96918 0.0
Pr280 Pr 0.39835 0.26176 0.99759 0.0
Pr281 Pr 0.36804 0.25128 1.00223 0.0
C282 C 0.42234 0.2873 1.00547 0.0
C283 C 0.436 0.27283 0.02005 0.0
C284 C 0.44205 0.23402 0.98211 0.0
C285 C 0.45531 0.22408 0.989 0.0
C286 C 0.46277 0.25268 0.0341 0.0
C287 C 0.45659 0.29068 0.07415 0.0
C288 C 0.44336 0.30064 0.06704 0.0
C289 C 0.39165 0.17285 0.9897 0.0
C290 C 0.3833 0.25934 0.18393 0.0
C291 C 0.34503 0.21803 0.99567 0.0
C292 C 0.33213 0.22504 0.95706 0.0
C293 C 0.32375 0.2634 0.97471 0.0
C294 C 0.31129 0.26765 0.94224 0.0
C295 C 0.3069 0.23367 0.89141 0.0
C296 C 0.31541 0.19574 0.8727 0.0
C297 C 0.32784 0.19145 0.90533 0.0
C298 C 0.37242 0.34332 0.98922 0.0
C299 C 0.38259 0.26335 0.82078 0.0
O300 O 0.41457 0.28972 0.06989 0.0
O301 O 0.41712 0.27363 0.93663 0.0
O302 O 0.38613 0.20398 0.03379 0.0
O303 O 0.40166 0.18643 0.95307 0.0
O304 O 0.3728 0.24845 0.14594 0.0
O305 O 0.39372 0.26815 0.14234 0.0
O306 O 0.35462 0.20374 0.94689 0.0
O307 O 0.34809 0.24676 0.05283 0.0
O308 O 0.38048 0.3096 0.99121 0.0
O309 O 0.36104 0.32962 0.99274 0.0
O310 O 0.39136 0.28339 0.8623 0.0
O311 O 0.37399 0.24155 0.86047 0.0
H312 H 0.43659 0.21192 0.94555 0.0
H313 H 0.45975 0.19425 0.95829 0.0
H314 H 0.46203 0.31374 0.10848 0.0
H315 H 0.43891 0.33094 0.09621 0.0
H316 H 0.32672 0.28985 1.01471 0.0
H317 H 0.30499 0.2971 0.9588 0.0
H318 H 0.31246 0.16923 0.83274 0.0
H319 H 0.33406 0.16145 0.89094 0.0
C320 C 0.23981 0.24151 0.6481 0.0
C321 C 0.22927 0.25103 0.70154 0.0
C322 C 0.2524 0.23925 0.6788 0.0
C323 C 0.25458 0.2467 0.76522 0.0
C324 C 0.244 0.25651 0.81953 0.0
C325 C 0.2315 0.2586 0.78708 0.0
C326 C 0.26339 0.22889 0.6186 0.0
C327 C 0.2459 0.26454 0.91208 0.0
C328 C 0.2865 0.19923 0.85757 0.0
C329 C 0.29345 0.23725 0.85942 0.0
C330 C 0.27387 0.20189 0.82753 0.0
C331 C 0.26794 0.24365 0.79879 0.0
C332 C 0.27484 0.28223 0.80093 0.0
C333 C 0.28749 0.27857 0.83105 0.0
C334 C 0.26687 0.15993 0.82641 0.0
C335 C 0.26889 0.32737 0.77077 0.0
H336 H 0.23823 0.2364 0.58168 0.0
H337 H 0.22344 0.26558 0.82904 0.0
H338 H 0.26973 0.25661 0.61925 0.0
H339 H 0.26922 0.19784 0.63875 0.0
H340 H 0.2601 0.22417 0.55318 0.0
H341 H 0.2367 0.27238 0.94575 0.0
H342 H 0.25106 0.23432 0.94119 0.0
H343 H 0.25189 0.29288 0.92115 0.0
H344 H 0.2909 0.1673 0.88064 0.0
H345 H 0.29279 0.30806 0.83119 0.0
H346 H 0.26396 0.15255 0.76125 0.0
H347 H 0.25801 0.16523 0.86443 0.0
H348 H 0.27279 0.1301 0.85137 0.0
H349 H 0.26623 0.3252 0.70356 0.0
H350 H 0.27542 0.35433 0.77806 0.0
H351 H 0.25997 0.33711 0.80626 0.0
C352 C 0.73844 0.21659 0.88063 0.0
C353 C 0.73032 0.25449 0.85678 0.0
C354 C 0.75121 0.21065 0.85292 0.0
C355 C 0.75603 0.24341 0.80013 0.0
C356 C 0.74782 0.28133 0.77471 0.0
C357 C 0.7351 0.28634 0.80312 0.0
C358 C 0.75962 0.16968 0.88128 0.0
C359 C 0.75253 0.31699 0.71824 0.0
C360 C 0.79183 0.2554 0.79265 0.0
C361 C 0.79539 0.23487 0.71576 0.0
C362 C 0.77912 0.25771 0.82145 0.0
C363 C 0.76971 0.23869 0.77274 0.0
C364 C 0.77329 0.21676 0.69635 0.0
C365 C 0.78604 0.21528 0.66867 0.0
C366 C 0.77572 0.28144 0.90323 0.0
C367 C 0.76358 0.19586 0.64266 0.0
H368 H 0.73491 0.19202 0.92275 0.0
H369 H 0.72886 0.31535 0.78313 0.0
H370 H 0.7638 0.15108 0.82602 0.0
H371 H 0.7677 0.18021 0.91915 0.0
H372 H 0.75432 0.14644 0.91959 0.0
H373 H 0.74489 0.34406 0.70304 0.0
H374 H 0.76053 0.33238 0.74903 0.0
H375 H 0.75626 0.30159 0.65873 0.0
H376 H 0.79897 0.27 0.83033 0.0
H377 H 0.78859 0.19991 0.60863 0.0
H378 H 0.77111 0.25862 0.94638 0.0
H379 H 0.76873 0.31096 0.89143 0.0
H380 H 0.78421 0.2932 0.93508 0.0
H381 H 0.75844 0.17201 0.68049 0.0
H382 H 0.76803 0.17762 0.58771 0.0
H383 H 0.75634 0.22244 0.61952 0.0
C384 C 0.28639 0.71643 0.18635 0.0
C385 C 0.2948 0.74841 0.20891 0.0
C386 C 0.27374 0.71936 0.21618 0.0
C387 C 0.26927 0.75521 0.26994 0.0
C388 C 0.2777 0.78743 0.29352 0.0
C389 C 0.29033 0.78366 0.26281 0.0
C390 C 0.26508 0.68434 0.18922 0.0
C391 C 0.27336 0.82609 0.3509 0.0
C392 C 0.23334 0.78816 0.28284 0.0
C393 C 0.23002 0.76747 0.35798 0.0
C394 C 0.24603 0.78437 0.25351 0.0
C395 C 0.25572 0.75936 0.30038 0.0
C396 C 0.25243 0.73826 0.3761 0.0
C397 C 0.23965 0.74249 0.40385 0.0
C398 C 0.24907 0.80717 0.17221 0.0
C399 C 0.26245 0.71141 0.42817 0.0
H400 H 0.28963 0.68948 0.14372 0.0
H401 H 0.29675 0.80825 0.28156 0.0
H402 H 0.26127 0.66789 0.24518 0.0
H403 H 0.25678 0.70065 0.15416 0.0
H404 H 0.27008 0.65799 0.14872 0.0
H405 H 0.28112 0.84796 0.36434 0.0
H406 H 0.26523 0.84693 0.32194 0.0
H407 H 0.26991 0.81304 0.41122 0.0
H408 H 0.22596 0.80703 0.24632 0.0
H409 H 0.23724 0.72687 0.46249 0.0
H410 H 0.25334 0.78187 0.12686 0.0
H411 H 0.25625 0.83155 0.18352 0.0
H412 H 0.24047 0.82532 0.1431 0.0
H413 H 0.26722 0.68361 0.39013 0.0
H414 H 0.25835 0.69687 0.48527 0.0
H415 H 0.26993 0.73319 0.44771 0.0
C416 C 0.73676 0.79734 0.16968 0.0
C417 C 0.7283 0.76655 0.19716 0.0
C418 C 0.74954 0.79437 0.19699 0.0
C419 C 0.75408 0.75971 0.25322 0.0
C420 C 0.74561 0.72859 0.28147 0.0
C421 C 0.73285 0.73235 0.25314 0.0
C422 C 0.75824 0.82818 0.16504 0.0
C423 C 0.75003 0.69122 0.34163 0.0
C424 C 0.79002 0.72639 0.2639 0.0
C425 C 0.79358 0.74904 0.33627 0.0
C426 C 0.77724 0.72954 0.23626 0.0
C427 C 0.76771 0.75593 0.28204 0.0
C428 C 0.77123 0.77896 0.355 0.0
C429 C 0.78409 0.77528 0.38111 0.0
C430 C 0.77393 0.70464 0.15791 0.0
C431 C 0.7614 0.80732 0.40585 0.0
H432 H 0.73344 0.82343 0.12536 0.0
H433 H 0.7264 0.70869 0.27556 0.0
H434 H 0.76221 0.84613 0.2186 0.0
H435 H 0.76643 0.81059 0.13081 0.0
H436 H 0.75322 0.85343 0.12233 0.0
H437 H 0.74227 0.66987 0.35799 0.0
H438 H 0.75807 0.66955 0.31355 0.0
H439 H 0.75364 0.7056 0.40027 0.0
H440 H 0.79727 0.70645 0.22821 0.0
H441 H 0.78667 0.79237 0.43778 0.0
H442 H 0.7696 0.72877 0.11062 0.0
H443 H 0.76673 0.68086 0.17275 0.0
H444 H 0.78242 0.68547 0.1295 0.0
H445 H 0.75658 0.83423 0.36587 0.0
H446 H 0.76567 0.82318 0.46091 0.0
H447 H 0.75393 0.78627 0.42849 0.0
C448 C 0.14386 0.89338 0.53283 0.0
C449 C 0.13172 0.88228 0.50826 0.0
C450 C 0.14658 0.93873 0.53905 0.0
C451 C 0.13703 0.97384 0.51828 0.0
C452 C 0.12482 0.96256 0.49232 0.0
C453 C 0.12228 0.9171 0.48869 0.0
C454 C 0.15963 0.94908 0.56859 0.0
C455 C 0.11445 0.99854 0.46739 0.0
C456 C 0.13898 0.09484 0.59452 0.0
C457 C 0.14439 0.11476 0.52488 0.0
C458 C 0.13684 0.04882 0.59416 0.0
C459 C 0.13983 0.02231 0.52157 0.0
C460 C 0.14514 0.04261 0.45077 0.0
C461 C 0.14749 0.08827 0.45373 0.0
C462 C 0.13143 0.02849 0.67167 0.0
C463 C 0.14815 0.01626 0.3712 0.0
H464 H 0.15115 0.86662 0.54868 0.0
H465 H 0.11289 0.90876 0.46941 0.0
H466 H 0.1644 0.96762 0.51906 0.0
H467 H 0.15868 0.97117 0.6247 0.0
H468 H 0.16587 0.91816 0.58472 0.0
H469 H 0.10556 0.98423 0.44703 0.0
H470 H 0.11213 0.02159 0.52092 0.0
H471 H 0.11786 0.01905 0.41526 0.0
H472 H 0.13663 0.11504 0.6499 0.0
H473 H 0.15162 0.10352 0.39951 0.0
H474 H 0.13782 0.99885 0.69243 0.0
H475 H 0.12199 0.01645 0.65715 0.0
H476 H 0.13022 0.05288 0.72438 0.0
H477 H 0.15516 0.98701 0.38444 0.0
H478 H 0.15211 0.03703 0.32135 0.0
H479 H 0.13936 1.00285 0.34692 0.0
C480 C 0.87951 0.41478 0.44322 0.0
C481 C 0.88226 0.38868 0.51538 0.0
C482 C 0.8818 0.4605 0.44031 0.0
C483 C 0.88666 0.4812 0.51215 0.0
C484 C 0.88947 0.4549 0.5853 0.0
C485 C 0.88741 0.40885 0.58565 0.0
C486 C 0.87901 0.48667 0.36019 0.0
C487 C 0.89442 0.47565 0.66381 0.0
C488 C 0.90297 0.58943 0.48352 0.0
C489 C 0.89304 0.62281 0.50126 0.0
C490 C 0.90102 0.54342 0.48666 0.0
C491 C 0.88891 0.53016 0.51013 0.0
C492 C 0.87889 0.56381 0.52955 0.0
C493 C 0.88103 0.60971 0.52392 0.0
C494 C 0.91189 0.50898 0.46344 0.0
C495 C 0.86591 0.55131 0.55647 0.0
H496 H 0.87558 0.39931 0.38861 0.0
H497 H 0.88945 0.38895 0.64186 0.0
H498 H 0.87152 0.51469 0.37165 0.0
H499 H 0.88771 0.50182 0.33883 0.0
H500 H 0.87573 0.46529 0.30891 0.0
H501 H 0.89591 0.45096 0.71595 0.0
H502 H 0.90361 0.48976 0.65051 0.0
H503 H 0.88756 0.50393 0.68482 0.0
H504 H 0.91227 0.59933 0.46564 0.0
H505 H 0.87335 0.63536 0.53815 0.0
H506 H 0.90903 0.48842 0.40981 0.0
H507 H 0.91415 0.48569 0.51679 0.0
H508 H 0.92069 0.52473 0.4459 0.0
H509 H 0.86153 0.53281 0.50524 0.0
H510 H 0.85931 0.58127 0.57298 0.0
H511 H 0.8669 0.52852 0.61165 0.0
C512 C 0.87501 0.91401 0.57709 0.0
C513 C 0.87896 0.88815 0.50663 0.0
C514 C 0.87735 0.95958 0.58337 0.0
C515 C 0.8835 0.98041 0.51653 0.0
C516 C 0.88744 0.95444 0.44488 0.0
C517 C 0.88529 0.90848 0.44131 0.0
C518 C 0.87333 0.98533 0.66204 0.0
C519 C 0.89381 0.97534 0.37153 0.0
C520 C 0.87932 0.10931 0.50594 0.0
C521 C 0.8911 0.12063 0.53683 0.0
C522 C 0.87677 0.06387 0.49768 0.0
C523 C 0.8861 0.02895 0.52286 0.0
C524 C 0.89791 0.04046 0.55556 0.0
C525 C 0.90032 0.08597 0.56107 0.0
C526 C 0.86416 0.05322 0.46099 0.0
C527 C 0.90801 0.00467 0.5854 0.0
H528 H 0.87018 0.89839 0.62802 0.0
H529 H 0.88828 0.88874 0.38648 0.0
H530 H 0.88174 0.99911 0.69108 0.0
H531 H 0.86636 0.0143 0.64619 0.0
H532 H 0.86892 0.96403 0.70911 0.0
H533 H 0.89585 0.95118 0.31913 0.0
H534 H 0.88761 0.00475 0.34777 0.0
H535 H 0.90293 0.98784 0.39199 0.0
H536 H 0.87221 0.13593 0.48647 0.0
H537 H 0.90943 0.09449 0.58528 0.0
H538 H 0.85886 0.03429 0.5073 0.0
H539 H 0.86586 0.03138 0.40498 0.0
H540 H 0.85806 0.08402 0.44241 0.0
H541 H 0.90399 0.98376 0.63468 0.0
H542 H 0.91654 0.01918 0.61132 0.0
H543 H 0.91111 0.98194 0.53273 0.0
C544 C 0.13484 0.60476 0.48535 0.0
C545 C 0.14701 0.6174 0.50516 0.0
C546 C 0.13212 0.55936 0.49093 0.0
C547 C 0.1417 0.52597 0.5189 0.0
C548 C 0.15392 0.53896 0.54047 0.0
C549 C 0.15646 0.58423 0.53234 0.0
C550 C 0.11905 0.54702 0.46568 0.0
C551 C 0.16435 0.50501 0.57257 0.0
C552 C 0.13208 0.41467 0.60737 0.0
C553 C 0.13544 0.38453 0.54176 0.0
C554 C 0.13399 0.46069 0.60067 0.0
C555 C 0.13908 0.47742 0.52561 0.0
C556 C 0.14226 0.44716 0.45853 0.0
C557 C 0.14057 0.40107 0.46783 0.0
C558 C 0.13078 0.49125 0.67466 0.0
C559 C 0.14747 0.46347 0.3768 0.0
H560 H 0.12752 0.63023 0.46401 0.0
H561 H 0.16587 0.59379 0.54824 0.0
H562 H 0.11997 0.52221 0.41365 0.0
H563 H 0.11447 0.53082 0.51905 0.0
H564 H 0.11267 0.57676 0.44505 0.0
H565 H 0.17316 0.52077 0.58976 0.0
H566 H 0.16093 0.48751 0.62861 0.0
H567 H 0.16682 0.47904 0.52401 0.0
H568 H 0.12816 0.40207 0.66479 0.0
H569 H 0.1431 0.37806 0.41659 0.0
H570 H 0.12373 0.51942 0.65588 0.0
H571 H 0.1395 0.50623 0.6961 0.0
H572 H 0.12681 0.4732 0.7283 0.0
H573 H 0.14096 0.49163 0.35133 0.0
H574 H 0.14869 0.4364 0.32886 0.0
H575 H 0.15687 0.47657 0.38772 0.0
C576 C 0.63673 0.60085 0.07204 0.0
C577 C 0.64586 0.61914 0.02129 0.0
C578 C 0.63488 0.55468 0.06787 0.0
C579 C 0.64231 0.52618 1.01159 0.0
C580 C 0.65156 0.54461 0.96059 0.0
C581 C 0.6532 0.59071 0.96601 0.0
C582 C 0.6249 0.53643 0.12322 0.0
C583 C 0.65968 0.51567 0.8996 0.0
C584 C 0.64548 0.39873 0.04454 0.0
C585 C 0.6366 0.38479 0.98657 0.0
C586 C 0.64737 0.44459 0.05392 0.0
C587 C 0.64023 0.47736 1.00401 0.0
C588 C 0.63136 0.4633 0.94477 0.0
C589 C 0.62966 0.4173 0.93677 0.0
C590 C 0.65697 0.45803 0.11748 0.0
C591 C 0.62361 0.49693 0.88987 0.0
H592 H 0.63101 0.62263 0.11478 0.0
H593 H 0.66026 0.60456 0.9264 0.0
H594 H 0.61753 0.52235 0.0838 0.0
H595 H 0.62935 0.50857 0.16263 0.0
H596 H 0.62012 0.56265 0.16495 0.0
H597 H 0.66664 0.53494 0.86568 0.0
H598 H 0.66502 0.48735 0.93342 0.0
H599 H 0.65348 0.50086 0.85273 0.0
H600 H 0.65085 0.37381 0.08334 0.0
H601 H 0.62278 0.40681 0.89185 0.0
H602 H 0.65219 0.48188 0.16352 0.0
H603 H 0.66446 0.47568 0.08561 0.0
H604 H 0.66165 0.42862 0.15206 0.0
H605 H 0.61791 0.52188 0.92952 0.0
H606 H 0.61702 0.48065 0.84751 0.0
H607 H 0.63009 0.51573 0.85098 0.0
C608 C 0.37211 0.91982 0.9631 0.0
C609 C 0.37857 0.89081 0.02169 0.0
C610 C 0.37412 0.9657 0.95923 0.0
C611 C 0.38282 0.98339 1.01547 0.0
C612 C 0.38939 0.95426 0.07497 0.0
C613 C 0.38721 0.9083 0.07724 0.0
C614 C 0.36697 0.99522 0.89444 0.0
C615 C 0.39873 0.97168 0.13611 0.0
C616 C 0.39672 0.09194 0.95012 0.0
C617 C 0.38916 0.12468 0.99564 0.0
C618 C 0.39486 0.04597 0.95675 0.0
C619 C 0.38519 0.03212 1.01038 0.0
C620 C 0.3775 0.06509 0.05644 0.0
C621 C 0.37955 0.11093 0.04837 0.0
C622 C 0.40321 0.01219 0.9059 0.0
C623 C 0.36707 0.05192 0.11416 0.0
H624 H 0.36545 0.9066 0.91969 0.0
H625 H 0.39224 0.8861 0.12265 0.0
H626 H 0.36126 0.02356 0.92577 0.0
H627 H 0.37384 0.01001 0.85202 0.0
H628 H 0.36044 0.97644 0.85583 0.0
H629 H 0.40288 0.94504 0.17951 0.0
H630 H 0.40663 0.98558 0.10132 0.0
H631 H 0.3939 0.99952 0.17381 0.0
H632 H 0.40416 0.10227 0.90918 0.0
H633 H 0.37367 0.13601 0.08382 0.0
H634 H 0.39722 0.99398 0.86263 0.0
H635 H 0.40824 0.98677 0.9481 0.0
H636 H 0.41046 0.02825 0.86827 0.0
H637 H 0.35989 0.03506 0.07769 0.0
H638 H 0.36213 0.08137 0.14716 0.0
H639 H 0.37115 0.02746 0.16172 0.0
C640 C 0.38748 0.40375 0.97518 0.0
C641 C 0.37528 0.39109 0.99414 0.0
C642 C 0.39021 0.44905 0.9812 0.0
C643 C 0.3806 0.48231 1.00906 0.0
C644 C 0.3683 0.46943 0.02891 0.0
C645 C 0.36576 0.4242 0.02013 0.0
C646 C 0.40335 0.46135 0.9574 0.0
C647 C 0.35786 0.50335 0.06075 0.0
C648 C 0.39083 0.59155 0.10197 0.0
C649 C 0.38783 0.62241 0.03689 0.0
C650 C 0.3885 0.54599 0.09392 0.0
C651 C 0.38337 0.53052 1.01799 0.0
C652 C 0.38053 0.56151 0.95154 0.0
C653 C 0.38261 0.60713 0.96225 0.0
C654 C 0.39135 0.51456 0.16724 0.0
C655 C 0.37534 0.54646 0.86887 0.0
H656 H 0.39487 0.37827 0.95488 0.0
H657 H 0.35633 0.41456 0.03547 0.0
H658 H 0.40256 0.48766 0.90788 0.0
H659 H 0.40801 0.47564 1.01248 0.0
H660 H 0.4096 0.43194 0.93408 0.0
H661 H 0.34891 0.48778 0.07538 0.0
H662 H 0.36112 0.51979 0.11836 0.0
H663 H 0.35568 0.53015 1.01322 0.0
H664 H 0.39481 0.60323 0.15991 0.0
H665 H 0.38035 0.63075 0.91146 0.0
H666 H 0.39841 0.48641 0.14856 0.0
H667 H 0.38251 0.49962 0.18656 0.0
H668 H 0.39517 0.53187 0.22225 0.0
H669 H 0.38179 0.51838 0.84264 0.0
H670 H 0.37426 0.57412 0.82195 0.0
H671 H 0.36587 0.53362 0.87866 0.0
C672 C 0.63427 0.10545 0.98679 0.0
C673 C 0.6465 0.11712 1.00782 0.0
C674 C 0.63127 0.06043 0.9921 0.0
C675 C 0.6406 0.02653 0.02117 0.0
C676 C 0.65288 0.03852 0.04392 0.0
C677 C 0.65571 0.08344 0.03592 0.0
C678 C 0.61817 0.04902 0.96541 0.0
C679 C 0.66304 0.00388 0.0771 0.0
C680 C 0.63011 0.91614 0.10702 0.0
C681 C 0.63353 0.88615 0.04136 0.0
C682 C 0.63228 0.96192 0.10121 0.0
C683 C 0.63769 0.97841 0.02701 0.0
C684 C 0.64089 0.94832 0.9598 0.0
C685 C 0.63894 0.9025 0.96827 0.0
C686 C 0.62906 0.99243 0.17525 0.0
C687 C 0.64642 0.9645 0.87895 0.0
H688 H 0.62714 0.13137 0.96474 0.0
H689 H 0.66515 0.09233 0.05282 0.0
H690 H 0.61907 0.02406 0.91364 0.0
H691 H 0.61334 0.03334 1.01835 0.0
H692 H 0.61201 0.07911 0.94388 0.0
H693 H 0.6719 0.01898 0.09545 0.0
H694 H 0.65936 0.98661 0.13259 0.0
H695 H 0.6655 0.97783 0.02868 0.0
H696 H 0.62598 0.90358 0.16378 0.0
H697 H 0.64152 0.87951 0.91707 0.0
H698 H 0.62223 0.02118 0.156 0.0
H699 H 0.63783 0.00658 0.19804 0.0
H700 H 0.62481 0.97457 0.22808 0.0
H701 H 0.64016 0.99324 0.85323 0.0
H702 H 0.64758 0.93759 0.83065 0.0
H703 H 0.65591 0.97671 0.89115 0.0
C704 C 0.15085 0.23649 0.22168 0.0
C705 C 0.1395 0.24997 0.2646 0.0
C706 C 0.15115 0.23397 0.13361 0.0
C707 C 0.13992 0.24696 0.08706 0.0
C708 C 0.12844 0.26118 0.13026 0.0
C709 C 0.12831 0.26164 0.2187 0.0
C710 C 0.16346 0.21704 0.09046 0.0
C711 C 0.11637 0.27671 0.08306 0.0
C712 C 0.14487 0.28103 0.85943 0.0
C713 C 0.1412 0.24357 0.81571 0.0
C714 C 0.14421 0.283 0.9476 0.0
C715 C 0.14025 0.24591 0.99326 0.0
C716 C 0.13683 0.20755 0.94922 0.0
C717 C 0.13711 0.20722 0.86092 0.0
C718 C 0.14756 0.32508 0.99179 0.0
C719 C 0.13301 0.16666 0.99538 0.0
H720 H 0.15949 0.22698 0.25726 0.0
H721 H 0.11955 0.27234 0.25194 0.0
H722 H 0.16182 0.18835 0.04877 0.0
H723 H 0.16685 0.24392 0.05037 0.0
H724 H 0.17115 0.20593 0.13588 0.0
H725 H 0.10836 0.28806 0.12583 0.0
H726 H 0.11818 0.30492 0.04051 0.0
H727 H 0.11339 0.24905 0.04331 0.0
H728 H 0.14787 0.30941 0.82448 0.0
H729 H 0.13432 0.17815 0.82713 0.0
H730 H 0.15592 0.31712 0.03351 0.0
H731 H 0.13947 0.33851 0.03202 0.0
H732 H 0.14985 0.35177 0.94704 0.0
H733 H 0.14071 0.15417 0.03961 0.0
H734 H 0.13111 0.13891 0.952 0.0
H735 H 0.1243 0.17571 0.03321 0.0
C736 C 0.89572 0.23445 0.22519 0.0
C737 C 0.88501 0.25184 0.27098 0.0
C738 C 0.89555 0.2342 0.13673 0.0
C739 C 0.8846 0.25354 0.09325 0.0
C740 C 0.87386 0.27202 0.13966 0.0
C741 C 0.87411 0.27012 0.22785 0.0
C742 C 0.90702 0.21275 0.08984 0.0
C743 C 0.86218 0.2945 0.09623 0.0
C744 C 0.88932 0.29121 0.86738 0.0
C745 C 0.88379 0.25791 0.82162 0.0
C746 C 0.88945 0.29064 0.9557 0.0
C747 C 0.88437 0.25488 0.99934 0.0
C748 C 0.87895 0.22076 0.95315 0.0
C749 C 0.8785 0.22317 0.86489 0.0
C750 C 0.89488 0.32859 1.0023 0.0
C751 C 0.87382 0.18128 0.99689 0.0
H752 H 0.90412 0.22007 0.25861 0.0
H753 H 0.86586 0.28403 0.26335 0.0
H754 H 0.90404 0.1865 0.04663 0.0
H755 H 0.91128 0.23831 0.05083 0.0
H756 H 0.9145 0.19714 0.13281 0.0
H757 H 0.85485 0.30883 0.14146 0.0
H758 H 0.86497 0.32196 0.05496 0.0
H759 H 0.8578 0.26995 0.05564 0.0
H760 H 0.89336 0.31824 0.83397 0.0
H761 H 0.87435 0.1971 0.82952 0.0
H762 H 0.90325 0.31534 0.04019 0.0
H763 H 0.88764 0.34444 0.04651 0.0
H764 H 0.89791 0.35491 0.95921 0.0
H765 H 0.88136 0.16392 0.0372 0.0
H766 H 0.87045 0.15654 0.95183 0.0
H767 H 0.86574 0.1932 0.03848 0.0
C768 C 0.15078 0.73058 0.17549 0.0
C769 C 0.13969 0.74554 0.22019 0.0
C770 C 0.15089 0.73003 0.08702 0.0
C771 C 0.13978 0.74637 0.04186 0.0
C772 C 0.12861 0.76211 0.08688 0.0
C773 C 0.12863 0.76076 0.17531 0.0
C774 C 0.16288 0.71159 0.04187 0.0
C775 C 0.11668 0.78112 0.04164 0.0
C776 C 0.14431 0.78408 0.81516 0.0
C777 C 0.13985 0.74857 0.76937 0.0
C778 C 0.14416 0.78413 0.90363 0.0
C779 C 0.13985 0.74707 0.94767 0.0
C780 C 0.13556 0.71073 0.90154 0.0
C781 C 0.13541 0.71228 0.81314 0.0
C782 C 0.14846 0.82419 0.94998 0.0
C783 C 0.13124 0.66994 0.94557 0.0
H784 H 0.15933 0.71849 0.20983 0.0
H785 H 0.12007 0.77281 0.20951 0.0
H786 H 0.16068 0.68412 0.99882 0.0
H787 H 0.1666 0.7383 1.00288 0.0
H788 H 0.17052 0.69834 0.08596 0.0
H789 H 0.10893 0.79337 0.08572 0.0
H790 H 0.11891 0.80946 1.00068 0.0
H791 H 0.11309 0.75509 1.00051 0.0
H792 H 0.14766 0.8124 0.78171 0.0
H793 H 0.13205 0.68454 0.77813 0.0
H794 H 0.15683 0.81355 0.99006 0.0
H795 H 0.14071 0.83855 0.9921 0.0
H796 H 0.15111 0.85101 0.90664 0.0
H797 H 0.13893 0.65507 0.98762 0.0
H798 H 0.12869 0.64372 0.90072 0.0
H799 H 0.1228 0.6799 0.98544 0.0
C800 C 0.87975 0.71747 0.79834 0.0
C801 C 0.88441 0.7529 0.75328 0.0
C802 C 0.87946 0.71767 0.88673 0.0
C803 C 0.88359 0.75484 0.9312 0.0
C804 C 0.88813 0.79101 0.8858 0.0
C805 C 0.88866 0.78931 0.79756 0.0
C806 C 0.87489 0.67786 0.93254 0.0
C807 C 0.89234 0.83176 0.93042 0.0
C808 C 0.87226 0.7729 0.1577 0.0
C809 C 0.88327 0.75785 0.2032 0.0
C810 C 0.87226 0.77259 0.06922 0.0
C811 C 0.8834 0.75553 0.02518 0.0
C812 C 0.89445 0.73946 0.07106 0.0
C813 C 0.89431 0.74144 0.15927 0.0
C814 C 0.86039 0.79112 0.02283 0.0
C815 C 0.90642 0.71986 0.02696 0.0
H816 H 0.87651 0.68914 0.76445 0.0
H817 H 0.89213 0.81705 0.76306 0.0
H818 H 0.88248 0.66314 0.9755 0.0
H819 H 0.86645 0.68886 0.97172 0.0
H820 H 0.87225 0.65121 0.88889 0.0
H821 H 0.89508 0.85792 0.88595 0.0
H822 H 0.88452 0.84677 0.97128 0.0
H823 H 0.90063 0.82169 0.97157 0.0
H824 H 0.86373 0.78585 0.19127 0.0
H825 H 0.90281 0.72929 0.19405 0.0
H826 H 0.85683 0.76462 0.9827 0.0
H827 H 0.8627 0.81891 0.98074 0.0
H828 H 0.85261 0.804 0.06615 0.0
H829 H 0.90416 0.6918 0.98551 0.0
H830 H 0.91401 0.70707 0.07177 0.0
H831 H 0.91023 0.74577 0.98649 0.0
C832 C 0.64384 0.7835 0.35965 0.0
C833 C 0.64028 0.746 0.31558 0.0
C834 C 0.64327 0.78517 0.44785 0.0
C835 C 0.63948 0.74775 0.49329 0.0
C836 C 0.63615 0.70935 0.44894 0.0
C837 C 0.63636 0.7093 0.36058 0.0
C838 C 0.64652 0.82729 0.49235 0.0
C839 C 0.6325 0.66814 0.49483 0.0
C840 C 0.65018 0.73879 0.72173 0.0
C841 C 0.6388 0.75184 0.76471 0.0
C842 C 0.65045 0.73613 0.63363 0.0
C843 C 0.63917 0.74861 0.58715 0.0
C844 C 0.62767 0.7624 0.63048 0.0
C845 C 0.62757 0.76295 0.7189 0.0
C846 C 0.66279 0.71964 0.59036 0.0
C847 C 0.61555 0.77746 0.58342 0.0
H848 H 0.64673 0.81216 0.32496 0.0
H849 H 0.63365 0.68017 0.32662 0.0
H850 H 0.63842 0.84033 0.5329 0.0
H851 H 0.65492 0.81952 0.53378 0.0
H852 H 0.6487 0.85422 0.44778 0.0
H853 H 0.63066 0.64041 0.45126 0.0
H854 H 0.64025 0.65585 0.53877 0.0
H855 H 0.62379 0.67674 0.53297 0.0
H856 H 0.65884 0.72974 0.75728 0.0
H857 H 0.61879 0.77331 0.75222 0.0
H858 H 0.6661 0.74672 0.55042 0.0
H859 H 0.66122 0.69095 0.54851 0.0
H860 H 0.6705 0.7087 0.63572 0.0
H861 H 0.61725 0.80583 0.54098 0.0
H862 H 0.60752 0.78841 0.6263 0.0
H863 H 0.61266 0.74969 0.54359 0.0
C864 C 0.37268 0.77175 0.72005 0.0
C865 C 0.38396 0.75767 0.7633 0.0
C866 C 0.37245 0.77419 0.63194 0.0
C867 C 0.38366 0.7605 0.58575 0.0
C868 C 0.39506 0.7457 0.62932 0.0
C869 C 0.39514 0.74533 0.71773 0.0
C870 C 0.36022 0.79172 0.58835 0.0
C871 C 0.4071 0.7294 0.58254 0.0
C872 C 0.37874 0.72586 0.3586 0.0
C873 C 0.38261 0.76286 0.31431 0.0
C874 C 0.3793 0.72423 0.4468 0.0
C875 C 0.38339 0.76124 0.49193 0.0
C876 C 0.38703 0.79915 0.44734 0.0
C877 C 0.38683 0.79912 0.35901 0.0
C878 C 0.37571 0.6826 0.49161 0.0
C879 C 0.39101 0.83994 0.49293 0.0
H880 H 0.36406 0.78174 0.75539 0.0
H881 H 0.40384 0.73416 0.75124 0.0
H882 H 0.36203 0.8201 0.54625 0.0
H883 H 0.35671 0.76496 0.54862 0.0
H884 H 0.35257 0.80345 0.63349 0.0
H885 H 0.41506 0.71781 0.62561 0.0
H886 H 0.40519 0.70118 0.54042 0.0
H887 H 0.41023 0.75672 0.5424 0.0
H888 H 0.37562 0.69754 0.32407 0.0
H889 H 0.38978 0.82786 0.32483 0.0
H890 H 0.36734 0.69121 0.53292 0.0
H891 H 0.38372 0.66889 0.53233 0.0
H892 H 0.37333 0.6559 0.44724 0.0
H893 H 0.38332 0.85304 0.53665 0.0
H894 H 0.39309 0.86734 0.44915 0.0
H895 H 0.39966 0.83056 0.53127 0.0
C896 C 0.64551 0.28221 0.32136 0.0
C897 C 0.64056 0.24786 0.27503 0.0
C898 C 0.64531 0.28196 0.40968 0.0
C899 C 0.64047 0.2456 0.45292 0.0
C900 C 0.63569 0.21035 0.40623 0.0
C901 C 0.63557 0.21234 0.31787 0.0
C902 C 0.6501 0.32098 0.4567 0.0
C903 C 0.63083 0.17027 0.44957 0.0
C904 C 0.65117 0.22841 0.68072 0.0
C905 C 0.64021 0.24522 0.72484 0.0
C906 C 0.65127 0.22715 0.59233 0.0
C907 C 0.64032 0.24476 0.5469 0.0
C908 C 0.62929 0.26233 0.59141 0.0
C909 C 0.62929 0.26156 0.67976 0.0
C910 C 0.66308 0.20674 0.54758 0.0
C911 C 0.61756 0.28285 0.54576 0.0
H912 H 0.64927 0.30993 0.28839 0.0
H913 H 0.63184 0.18553 0.28218 0.0
H914 H 0.6425 0.33629 0.49891 0.0
H915 H 0.65836 0.30896 0.49673 0.0
H916 H 0.6531 0.34744 0.4138 0.0
H917 H 0.628 0.14469 0.40428 0.0
H918 H 0.63833 0.1542 0.49177 0.0
H919 H 0.62245 0.1813 0.48921 0.0
H920 H 0.6596 0.21546 0.71546 0.0
H921 H 0.62084 0.275 0.71373 0.0
H922 H 0.66724 0.23271 0.50907 0.0
H923 H 0.66053 0.17992 0.50415 0.0
H924 H 0.67051 0.19211 0.59195 0.0
H925 H 0.62015 0.31079 0.50497 0.0
H926 H 0.60989 0.2961 0.58955 0.0
H927 H 0.61372 0.25744 0.5044 0.0
C928 C 0.39455 0.24813 0.32246 0.0
C929 C 0.38338 0.26128 0.27712 0.0
C930 C 0.39459 0.2484 0.41093 0.0
C931 C 0.3833 0.26373 0.45521 0.0
C932 C 0.37209 0.27815 0.40943 0.0
C933 C 0.37221 0.276 0.32114 0.0
C934 C 0.40663 0.23138 0.45702 0.0
C935 C 0.35997 0.29607 0.45371 0.0
C936 C 0.37865 0.22746 0.68223 0.0
C937 C 0.38265 0.26394 0.72747 0.0
C938 C 0.37904 0.22662 0.5939 0.0
C939 C 0.38313 0.26383 0.54931 0.0
C940 C 0.38698 0.30114 0.59477 0.0
C941 C 0.3869 0.30041 0.68325 0.0
C942 C 0.37522 0.18558 0.54832 0.0
C943 C 0.39103 0.34209 0.54994 0.0
H944 H 0.40318 0.23641 0.28872 0.0
H945 H 0.36358 0.28661 0.28634 0.0
H946 H 0.40986 0.25828 0.49766 0.0
H947 H 0.40468 0.20294 0.49858 0.0
H948 H 0.41453 0.21985 0.41351 0.0
H949 H 0.35231 0.30839 0.40902 0.0
H950 H 0.35639 0.26931 0.49323 0.0
H951 H 0.36194 0.32409 0.49612 0.0
H952 H 0.37549 0.19896 0.71607 0.0
H953 H 0.38994 0.3288 0.7179 0.0
H954 H 0.38313 0.17181 0.50693 0.0
H955 H 0.36683 0.19493 0.5076 0.0
H956 H 0.37278 0.15869 0.59217 0.0
H957 H 0.39957 0.33262 0.51065 0.0
H958 H 0.39331 0.36894 0.59425 0.0
H959 H 0.38329 0.35594 0.50719 0.0
C960 C 0.04068 0.21248 0.48014 0.0
C961 C 0.04684 0.25227 0.48429 0.0
C962 C 0.02727 0.21356 0.47932 0.0
C963 C 0.01975 0.25542 0.48335 0.0
C964 C 0.02588 0.29574 0.4858 0.0
C965 C 0.03931 0.2937 0.48598 0.0
C966 C 0.02114 0.16977 0.47646 0.0
C967 C 0.01824 0.34108 0.49019 0.0
C968 C 0.98451 0.26204 0.42178 0.0
C969 C 0.9785 0.2605 0.50033 0.0
C970 C 0.99792 0.26009 0.41514 0.0
C971 C 1.00551 0.25692 0.48883 0.0
C972 C 0.99949 0.25533 0.56825 0.0
C973 C 0.9861 0.25701 0.57299 0.0
C974 C 1.00396 0.26141 0.32927 0.0
C975 C 1.0072 0.25234 0.64844 0.0
H976 H 0.04634 0.18024 0.48017 0.0
H977 H 0.04393 0.32467 0.48796 0.0
H978 H 0.01582 0.16532 0.53562 0.0
H979 H 0.01413 0.17035 0.42426 0.0
H980 H 0.02828 0.14026 0.4681 0.0
H981 H 0.02441 0.36935 0.48882 0.0
H982 H 1.01143 0.34506 0.43689 0.0
H983 H 0.01251 0.34346 0.54883 0.0
H984 H 0.97873 0.26435 0.36532 0.0
H985 H 0.98154 0.25653 0.63401 0.0
H986 H 1.01064 0.23084 0.31962 0.0
H987 H 1.00964 0.29085 0.32445 0.0
H988 H 0.99674 0.26349 0.27808 0.0
H989 H 0.01405 0.22175 0.64764 0.0
H990 H 1.00108 0.25123 0.70517 0.0
H991 H 0.01288 0.28177 0.65349 0.0
C992 C 0.98382 0.73397 0.46901 0.0
C993 C 0.97704 0.76804 0.51623 0.0
C994 C 0.99727 0.72819 0.4699 0.0
C995 C 1.00419 0.75723 0.51896 0.0
C996 C 0.99743 0.79135 0.56748 0.0
C997 C 0.98398 0.79627 0.56568 0.0
C998 C 1.00408 0.6913 0.41738 0.0
C999 C 1.00441 0.82294 0.62089 0.0
C1000 C 0.0387 0.71787 0.57591 0.0
C1001 C 0.04565 0.74031 0.51615 0.0
C1002 C 0.02526 0.72332 0.57796 0.0
C1003 C 0.01851 0.75205 0.519 0.0
C1004 C 0.02544 0.77535 0.45932 0.0
C1005 C 0.0389 0.76922 0.45861 0.0
C1006 C 0.01828 0.69798 0.64288 0.0
C1007 C 0.01864 0.80632 0.39537 0.0
H1008 H 0.97862 0.71236 0.42961 0.0
H1009 H 0.97888 0.82226 0.60341 0.0
H1010 H 1.01023 0.70614 0.37012 0.0
H1011 H 1.01043 0.66861 0.4577 0.0
H1012 H 0.99733 0.67092 0.38412 0.0
H1013 H 0.99777 0.84747 0.65555 0.0
H1014 H 1.01062 0.80347 0.66696 0.0
H1015 H 1.01071 0.84181 0.58079 0.0
H1016 H 0.0438 0.69604 0.62158 0.0
H1017 H 0.04412 0.78634 0.41158 0.0
H1018 H 1.01196 0.67538 0.6113 0.0
H1019 H 0.01208 0.72192 0.68166 0.0
H1020 H 0.02492 0.67745 0.68509 0.0
H1021 H 0.01248 0.78705 0.35508 0.0
H1022 H 0.0254 0.82285 0.35455 0.0
H1023 H 0.01231 0.83276 0.42756 0.0
C1024 C 0.53958 0.74318 0.91739 0.0
C1025 C 0.54583 0.74994 0.99367 0.0
C1026 C 0.52615 0.74447 0.91307 0.0
C1027 C 0.51874 0.75235 0.98691 0.0
C1028 C 0.525 0.75927 0.06402 0.0
C1029 C 0.53841 0.7581 0.06641 0.0
C1030 C 0.51988 0.73736 0.82945 0.0
C1031 C 0.51752 0.76738 0.14442 0.0
C1032 C 0.48336 0.7947 0.97333 0.0
C1033 C 0.47733 0.75522 0.98739 0.0
C1034 C 0.49678 0.79409 0.97117 0.0
C1035 C 0.50446 0.75307 0.98398 0.0
C1036 C 0.49846 0.71299 0.99686 0.0
C1037 C 0.48502 0.71451 0.99811 0.0
C1038 C 0.50274 0.8376 0.95706 0.0
C1039 C 0.50626 0.66853 1.0109 0.0
H1040 H 0.5452 0.73724 0.86073 0.0
H1041 H 0.54313 0.76263 0.12592 0.0
H1042 H 0.5143 0.70761 0.8328 0.0
H1043 H 0.51307 0.76687 0.81404 0.0
H1044 H 0.52695 0.73219 0.77768 0.0
H1045 H 0.52379 0.7725 0.1991 0.0
H1046 H 0.51056 0.79746 0.13765 0.0
H1047 H 0.51197 0.7383 0.15776 0.0
H1048 H 0.4776 0.82651 0.96629 0.0
H1049 H 0.48053 0.68366 1.00775 0.0
H1050 H 0.50959 0.83392 0.90389 0.0
H1051 H 0.50823 0.84592 1.0136 0.0
H1052 H 0.49549 0.86619 0.94352 0.0
H1053 H 0.5129 0.66109 0.95752 0.0
H1054 H 0.50018 0.64022 1.01798 0.0
H1055 H 0.51217 0.67038 0.0683 0.0
C1056 C 0.48379 0.25118 0.11026 0.0
C1057 C 0.477 0.24438 0.03616 0.0
C1058 C 0.49723 0.24671 0.11147 0.0
C1059 C 0.50408 0.23526 0.03674 0.0
C1060 C 0.49729 0.2272 0.96225 0.0
C1061 C 0.48385 0.23182 0.96287 0.0
C1062 C 0.5041 0.25535 0.19233 0.0
C1063 C 0.50422 0.21511 0.88116 0.0
C1064 C 0.5376 0.27282 1.01775 0.0
C1065 C 0.54532 0.23296 0.03518 0.0
C1066 C 0.52421 0.27387 1.01755 0.0
C1067 C 0.51833 0.23413 0.03548 0.0
C1068 C 0.52605 0.19368 0.05266 0.0
C1069 C 0.53945 0.19354 0.05203 0.0
C1070 C 0.51635 0.31762 0.99816 0.0
C1071 C 0.52014 0.15066 0.0724 0.0
H1072 H 0.47859 0.26029 0.16743 0.0
H1073 H 0.4787 0.22705 0.90506 0.0
H1074 H 0.51105 0.22623 0.20774 0.0
H1075 H 0.5096 0.2851 0.18477 0.0
H1076 H 0.49741 0.26153 0.24599 0.0
H1077 H 0.49758 0.20732 0.83001 0.0
H1078 H 0.50959 0.24351 0.86067 0.0
H1079 H 0.51128 0.18557 0.89069 0.0
H1080 H 0.54206 0.30324 1.00325 0.0
H1081 H 0.54534 0.16271 0.06615 0.0
H1082 H 0.51002 0.32758 0.05202 0.0
H1083 H 0.51012 0.31328 0.94307 0.0
H1084 H 0.52239 0.34543 0.98468 0.0
H1085 H 0.51402 0.1554 0.12907 0.0
H1086 H 0.52746 0.12196 0.08358 0.0
H1087 H 0.5139 0.14191 0.01983 0.0
loop_
_geom_bond_atom_site_label_1
_geom_bond_atom_site_label_2
_geom_bond_distance
_geom_bond_site_symmetry_2
_ccdc_geom_bond_type
Pr0 C2 2.880 . S
Pr0 O20 2.562 . S
Pr0 O21 2.490 . S
Pr0 O22 2.695 . S
Pr0 O23 2.512 . S
Pr0 O25 2.437 . S
Pr0 O28 2.436 . S
Pr0 O30 2.438 . S
Pr1 C11 2.880 . S
Pr1 O22 2.436 . S
Pr1 O24 2.438 . S
Pr1 O26 2.562 . S
Pr1 O27 2.490 . S
Pr1 O28 2.695 . S
Pr1 O29 2.512 . S
Pr1 O31 2.437 . S
C2 Pr0 2.880 . S
C2 C3 1.491 . S
C2 O20 1.254 . S
C2 O21 1.225 . S
C3 C2 1.491 . S
C3 C4 1.392 . S
C3 C8 1.356 . S
C4 C3 1.392 . S
C4 C5 1.368 . S
C4 H32 0.929 . S
C5 C4 1.368 . S
C5 C6 1.386 . S
C5 H33 0.929 . S
C6 C5 1.386 . S
C6 C7 1.373 . S
C7 C6 1.373 . S
C7 C8 1.409 . S
C7 H34 0.931 . S
C8 C3 1.356 . S
C8 C7 1.409 . S
C8 H35 0.930 . S
C9 O22 1.270 . S
C9 O23 1.248 . S
C10 O24 1.267 . S
C10 O25 1.278 . S
C11 Pr1 2.880 . S
C11 C12 1.491 . S
C11 O26 1.254 . S
C11 O27 1.225 . S
C12 C11 1.491 . S
C12 C13 1.392 . S
C12 C17 1.356 . S
C13 C12 1.392 . S
C13 C14 1.368 . S
C13 H36 0.929 . S
C14 C13 1.368 . S
C14 C15 1.386 . S
C14 H37 0.929 . S
C15 C14 1.386 . S
C15 C16 1.373 . S
C16 C15 1.373 . S
C16 C17 1.409 . S
C16 H38 0.931 . S
C17 C12 1.356 . S
C17 C16 1.409 . S
C17 H39 0.930 . S
C18 O28 1.270 . S
C18 O29 1.248 . S
C19 O30 1.267 . S
C19 O31 1.278 . S
O20 Pr0 2.562 . S
O20 C2 1.254 . S
O21 Pr0 2.490 . S
O21 C2 1.225 . S
O22 Pr0 2.695 . S
O22 Pr1 2.436 . S
O22 C9 1.270 . S
O23 Pr0 2.512 . S
O23 C9 1.248 . S
O24 Pr1 2.438 . S
O24 C10 1.267 . S
O25 Pr0 2.437 . S
O25 C10 1.278 . S
O26 Pr1 2.562 . S
O26 C11 1.254 . S
O27 Pr1 2.490 . S
O27 C11 1.225 . S
O28 Pr0 2.436 . S
O28 Pr1 2.695 . S
O28 C18 1.270 . S
O29 Pr1 2.512 . S
O29 C18 1.248 . S
O30 Pr0 2.438 . S
O30 C19 1.267 . S
O31 Pr1 2.437 . S
O31 C19 1.278 . S
H32 C4 0.929 . S
H33 C5 0.929 . S
H34 C7 0.931 . S
H35 C8 0.930 . S
H36 C13 0.929 . S
H37 C14 0.929 . S
H38 C16 0.931 . S
H39 C17 0.930 . S
Pr40 C42 2.880 . S
Pr40 O60 2.562 . S
Pr40 O61 2.490 . S
Pr40 O62 2.695 . S
Pr40 O63 2.512 . S
Pr40 O65 2.437 . S
Pr40 O68 2.436 . S
Pr40 O70 2.438 . S
Pr41 C51 2.880 . S
Pr41 O62 2.436 . S
Pr41 O64 2.438 . S
Pr41 O66 2.562 . S
Pr41 O67 2.490 . S
Pr41 O68 2.695 . S
Pr41 O69 2.512 . S
Pr41 O71 2.437 . S
C42 Pr40 2.880 . S
C42 C43 1.491 . S
C42 O60 1.254 . S
C42 O61 1.225 . S
C43 C42 1.491 . S
C43 C44 1.392 . S
C43 C48 1.356 . S
C44 C43 1.392 . S
C44 C45 1.368 . S
C44 H72 0.929 . S
C45 C44 1.368 . S
C45 C46 1.386 . S
C45 H73 0.929 . S
C46 C45 1.386 . S
C46 C47 1.373 . S
C47 C46 1.373 . S
C47 C48 1.409 . S
C47 H74 0.931 . S
C48 C43 1.356 . S
C48 C47 1.409 . S
C48 H75 0.930 . S
C49 O62 1.270 . S
C49 O63 1.248 . S
C50 O64 1.267 . S
C50 O65 1.278 . S
C51 Pr41 2.880 . S
C51 C52 1.491 . S
C51 O66 1.254 . S
C51 O67 1.225 . S
C52 C51 1.491 . S
C52 C53 1.392 . S
C52 C57 1.356 . S
C53 C52 1.392 . S
C53 C54 1.368 . S
C53 H76 0.929 . S
C54 C53 1.368 . S
C54 C55 1.386 . S
C54 H77 0.929 . S
C55 C54 1.386 . S
C55 C56 1.373 . S
C56 C55 1.373 . S
C56 C57 1.409 . S
C56 H78 0.931 . S
C57 C52 1.356 . S
C57 C56 1.409 . S
C57 H79 0.930 . S
C58 O68 1.270 . S
C58 O69 1.248 . S
C59 O70 1.267 . S
C59 O71 1.278 . S
O60 Pr40 2.562 . S
O60 C42 1.254 . S
O61 Pr40 2.490 . S
O61 C42 1.225 . S
O62 Pr40 2.695 . S
O62 Pr41 2.436 . S
O62 C49 1.270 . S
O63 Pr40 2.512 . S
O63 C49 1.248 . S
O64 Pr41 2.438 . S
O64 C50 1.267 . S
O65 Pr40 2.437 . S
O65 C50 1.278 . S
O66 Pr41 2.562 . S
O66 C51 1.254 . S
O67 Pr41 2.490 . S
O67 C51 1.225 . S
O68 Pr40 2.436 . S
O68 Pr41 2.695 . S
O68 C58 1.270 . S
O69 Pr41 2.512 . S
O69 C58 1.248 . S
O70 Pr40 2.438 . S
O70 C59 1.267 . S
O71 Pr41 2.437 . S
O71 C59 1.278 . S
H72 C44 0.929 . S
H73 C45 0.929 . S
H74 C47 0.931 . S
H75 C48 0.930 . S
H76 C53 0.929 . S
H77 C54 0.929 . S
H78 C56 0.931 . S
H79 C57 0.930 . S
Pr80 C82 2.880 . S
Pr80 O100 2.562 . S
Pr80 O101 2.490 . S
Pr80 O102 2.695 . S
Pr80 O103 2.512 . S
Pr80 O105 2.437 . S
Pr80 O108 2.436 . S
Pr80 O110 2.438 . S
Pr81 C91 2.880 . S
Pr81 O102 2.436 . S
Pr81 O104 2.438 . S
Pr81 O106 2.562 . S
Pr81 O107 2.490 . S
Pr81 O108 2.695 . S
Pr81 O109 2.512 . S
Pr81 O111 2.437 . S
C82 Pr80 2.880 . S
C82 C83 1.491 . S
C82 O100 1.254 . S
C82 O101 1.225 . S
C83 C82 1.491 . S
C83 C84 1.392 . S
C83 C88 1.356 . S
C84 C83 1.392 . S
C84 C85 1.368 . S
C84 H112 0.929 . S
C85 C84 1.368 . S
C85 C86 1.386 . S
C85 H113 0.929 . S
C86 C85 1.386 . S
C86 C87 1.373 . S
C87 C86 1.373 . S
C87 C88 1.409 . S
C87 H114 0.931 . S
C88 C83 1.356 . S
C88 C87 1.409 . S
C88 H115 0.930 . S
C89 O102 1.270 . S
C89 O103 1.248 . S
C90 O104 1.267 . S
C90 O105 1.278 . S
C91 Pr81 2.880 . S
C91 C92 1.491 . S
C91 O106 1.254 . S
C91 O107 1.225 . S
C92 C91 1.491 . S
C92 C93 1.392 . S
C92 C97 1.356 . S
C93 C92 1.392 . S
C93 C94 1.368 . S
C93 H116 0.929 . S
C94 C93 1.368 . S
C94 C95 1.386 . S
C94 H117 0.929 . S
C95 C94 1.386 . S
C95 C96 1.373 . S
C96 C95 1.373 . S
C96 C97 1.409 . S
C96 H118 0.931 . S
C97 C92 1.356 . S
C97 C96 1.409 . S
C97 H119 0.930 . S
C98 O108 1.270 . S
C98 O109 1.248 . S
C99 O110 1.267 . S
C99 O111 1.278 . S
O100 Pr80 2.562 . S
O100 C82 1.254 . S
O101 Pr80 2.490 . S
O101 C82 1.225 . S
O102 Pr80 2.695 . S
O102 Pr81 2.436 . S
O102 C89 1.270 . S
O103 Pr80 2.512 . S
O103 C89 1.248 . S
O104 Pr81 2.438 . S
O104 C90 1.267 . S
O105 Pr80 2.437 . S
O105 C90 1.278 . S
O106 Pr81 2.562 . S
O106 C91 1.254 . S
O107 Pr81 2.490 . S
O107 C91 1.225 . S
O108 Pr80 2.436 . S
O108 Pr81 2.695 . S
O108 C98 1.270 . S
O109 Pr81 2.512 . S
O109 C98 1.248 . S
O110 Pr80 2.438 . S
O110 C99 1.267 . S
O111 Pr81 2.437 . S
O111 C99 1.278 . S
H112 C84 0.929 . S
H113 C85 0.929 . S
H114 C87 0.931 . S
H115 C88 0.930 . S
H116 C93 0.929 . S
H117 C94 0.929 . S
H118 C96 0.931 . S
H119 C97 0.930 . S
Pr120 C122 2.880 . S
Pr120 O140 2.562 . S
Pr120 O141 2.490 . S
Pr120 O142 2.695 . S
Pr120 O143 2.512 . S
Pr120 O145 2.437 . S
Pr120 O148 2.436 . S
Pr120 O150 2.438 . S
Pr121 C131 2.880 . S
Pr121 O142 2.436 . S
Pr121 O144 2.438 . S
Pr121 O146 2.562 . S
Pr121 O147 2.490 . S
Pr121 O148 2.695 . S
Pr121 O149 2.512 . S
Pr121 O151 2.437 . S
C122 Pr120 2.880 . S
C122 C123 1.491 . S
C122 O140 1.254 . S
C122 O141 1.225 . S
C123 C122 1.491 . S
C123 C124 1.392 . S
C123 C128 1.356 . S
C124 C123 1.392 . S
C124 C125 1.368 . S
C124 H152 0.929 . S
C125 C124 1.368 . S
C125 C126 1.386 . S
C125 H153 0.929 . S
C126 C125 1.386 . S
C126 C127 1.373 . S
C127 C126 1.373 . S
C127 C128 1.409 . S
C127 H154 0.931 . S
C128 C123 1.356 . S
C128 C127 1.409 . S
C128 H155 0.930 . S
C129 O142 1.270 . S
C129 O143 1.248 . S
C130 O144 1.267 . S
C130 O145 1.278 . S
C131 Pr121 2.880 . S
C131 C132 1.491 . S
C131 O146 1.254 . S
C131 O147 1.225 . S
C132 C131 1.491 . S
C132 C133 1.392 . S
C132 C137 1.356 . S
C133 C132 1.392 . S
C133 C134 1.368 . S
C133 H156 0.929 . S
C134 C133 1.368 . S
C134 C135 1.386 . S
C134 H157 0.929 . S
C135 C134 1.386 . S
C135 C136 1.373 . S
C136 C135 1.373 . S
C136 C137 1.409 . S
C136 H158 0.931 . S
C137 C132 1.356 . S
C137 C136 1.409 . S
C137 H159 0.930 . S
C138 O148 1.270 . S
C138 O149 1.248 . S
C139 O150 1.267 . S
C139 O151 1.278 . S
O140 Pr120 2.562 . S
O140 C122 1.254 . S
O141 Pr120 2.490 . S
O141 C122 1.225 . S
O142 Pr120 2.695 . S
O142 Pr121 2.436 . S
O142 C129 1.270 . S
O143 Pr120 2.512 . S
O143 C129 1.248 . S
O144 Pr121 2.438 . S
O144 C130 1.267 . S
O145 Pr120 2.437 . S
O145 C130 1.278 . S
O146 Pr121 2.562 . S
O146 C131 1.254 . S
O147 Pr121 2.490 . S
O147 C131 1.225 . S
O148 Pr120 2.436 . S
O148 Pr121 2.695 . S
O148 C138 1.270 . S
O149 Pr121 2.512 . S
O149 C138 1.248 . S
O150 Pr120 2.438 . S
O150 C139 1.267 . S
O151 Pr121 2.437 . S
O151 C139 1.278 . S
H152 C124 0.929 . S
H153 C125 0.929 . S
H154 C127 0.931 . S
H155 C128 0.930 . S
H156 C133 0.929 . S
H157 C134 0.929 . S
H158 C136 0.931 . S
H159 C137 0.930 . S
Pr160 C162 2.880 1_556 S
Pr160 O180 2.562 1_556 S
Pr160 O181 2.490 1_556 S
Pr160 O182 2.695 . S
Pr160 O183 2.512 . S
Pr160 O185 2.437 1_556 S
Pr160 O188 2.436 1_556 S
Pr160 O190 2.438 . S
Pr161 C171 2.880 1_554 S
Pr161 O182 2.436 1_554 S
Pr161 O184 2.438 . S
Pr161 O186 2.562 1_554 S
Pr161 O187 2.490 1_554 S
Pr161 O188 2.695 . S
Pr161 O189 2.512 . S
Pr161 O191 2.437 1_554 S
C162 Pr160 2.880 1_554 S
C162 C163 1.491 . S
C162 O180 1.254 . S
C162 O181 1.225 . S
C163 C162 1.491 . S
C163 C164 1.392 . S
C163 C168 1.356 . S
C164 C163 1.392 . S
C164 C165 1.368 . S
C164 H192 0.929 . S
C165 C164 1.368 . S
C165 C166 1.386 . S
C165 H193 0.929 . S
C166 C165 1.386 . S
C166 C167 1.373 . S
C167 C166 1.373 . S
C167 C168 1.409 . S
C167 H194 0.931 . S
C168 C163 1.356 . S
C168 C167 1.409 . S
C168 H195 0.930 . S
C169 O182 1.270 . S
C169 O183 1.248 . S
C170 O184 1.267 . S
C170 O185 1.278 . S
C171 Pr161 2.880 1_556 S
C171 C172 1.491 . S
C171 O186 1.254 . S
C171 O187 1.225 . S
C172 C171 1.491 . S
C172 C173 1.392 . S
C172 C177 1.356 . S
C173 C172 1.392 . S
C173 C174 1.368 . S
C173 H196 0.929 . S
C174 C173 1.368 . S
C174 C175 1.386 . S
C174 H197 0.929 . S
C175 C174 1.386 . S
C175 C176 1.373 . S
C176 C175 1.373 . S
C176 C177 1.409 . S
C176 H198 0.931 . S
C177 C172 1.356 . S
C177 C176 1.409 . S
C177 H199 0.930 . S
C178 O188 1.270 . S
C178 O189 1.248 . S
C179 O190 1.267 . S
C179 O191 1.278 . S
O180 Pr160 2.562 1_554 S
O180 C162 1.254 . S
O181 Pr160 2.490 1_554 S
O181 C162 1.225 . S
O182 Pr160 2.695 . S
O182 Pr161 2.436 1_556 S
O182 C169 1.270 . S
O183 Pr160 2.512 . S
O183 C169 1.248 . S
O184 Pr161 2.438 . S
O184 C170 1.267 . S
O185 Pr160 2.437 1_554 S
O185 C170 1.278 . S
O186 Pr161 2.562 1_556 S
O186 C171 1.254 . S
O187 Pr161 2.490 1_556 S
O187 C171 1.225 . S
O188 Pr160 2.436 1_554 S
O188 Pr161 2.695 . S
O188 C178 1.270 . S
O189 Pr161 2.512 . S
O189 C178 1.248 . S
O190 Pr160 2.438 . S
O190 C179 1.267 . S
O191 Pr161 2.437 1_556 S
O191 C179 1.278 . S
H192 C164 0.929 . S
H193 C165 0.929 . S
H194 C167 0.931 . S
H195 C168 0.930 . S
H196 C173 0.929 . S
H197 C174 0.929 . S
H198 C176 0.931 . S
H199 C177 0.930 . S
Pr200 C202 2.880 1_556 S
Pr200 O220 2.562 1_556 S
Pr200 O221 2.490 1_556 S
Pr200 O222 2.695 . S
Pr200 O223 2.512 . S
Pr200 O225 2.437 1_556 S
Pr200 O228 2.436 1_556 S
Pr200 O230 2.438 . S
Pr201 C211 2.880 1_554 S
Pr201 O222 2.436 1_554 S
Pr201 O224 2.438 . S
Pr201 O226 2.562 1_554 S
Pr201 O227 2.490 1_554 S
Pr201 O228 2.695 . S
Pr201 O229 2.512 . S
Pr201 O231 2.437 1_554 S
C202 Pr200 2.880 1_554 S
C202 C203 1.491 . S
C202 O220 1.254 . S
C202 O221 1.225 . S
C203 C202 1.491 . S
C203 C204 1.392 . S
C203 C208 1.356 . S
C204 C203 1.392 . S
C204 C205 1.368 . S
C204 H232 0.929 . S
C205 C204 1.368 . S
C205 C206 1.386 . S
C205 H233 0.929 . S
C206 C205 1.386 . S
C206 C207 1.373 . S
C207 C206 1.373 . S
C207 C208 1.409 . S
C207 H234 0.931 . S
C208 C203 1.356 . S
C208 C207 1.409 . S
C208 H235 0.930 . S
C209 O222 1.270 . S
C209 O223 1.248 . S
C210 O224 1.267 . S
C210 O225 1.278 . S
C211 Pr201 2.880 1_556 S
C211 C212 1.491 . S
C211 O226 1.254 . S
C211 O227 1.225 . S
C212 C211 1.491 . S
C212 C213 1.392 . S
C212 C217 1.356 . S
C213 C212 1.392 . S
C213 C214 1.368 . S
C213 H236 0.929 . S
C214 C213 1.368 . S
C214 C215 1.386 . S
C214 H237 0.929 . S
C215 C214 1.386 . S
C215 C216 1.373 . S
C216 C215 1.373 . S
C216 C217 1.409 . S
C216 H238 0.931 . S
C217 C212 1.356 . S
C217 C216 1.409 . S
C217 H239 0.930 . S
C218 O228 1.270 . S
C218 O229 1.248 . S
C219 O230 1.267 . S
C219 O231 1.278 . S
O220 Pr200 2.562 1_554 S
O220 C202 1.254 . S
O221 Pr200 2.490 1_554 S
O221 C202 1.225 . S
O222 Pr200 2.695 . S
O222 Pr201 2.436 1_556 S
O222 C209 1.270 . S
O223 Pr200 2.512 . S
O223 C209 1.248 . S
O224 Pr201 2.438 . S
O224 C210 1.267 . S
O225 Pr200 2.437 1_554 S
O225 C210 1.278 . S
O226 Pr201 2.562 1_556 S
O226 C211 1.254 . S
O227 Pr201 2.490 1_556 S
O227 C211 1.225 . S
O228 Pr200 2.436 1_554 S
O228 Pr201 2.695 . S
O228 C218 1.270 . S
O229 Pr201 2.512 . S
O229 C218 1.248 . S
O230 Pr200 2.438 . S
O230 C219 1.267 . S
O231 Pr201 2.437 1_556 S
O231 C219 1.278 . S
H232 C204 0.929 . S
H233 C205 0.929 . S
H234 C207 0.931 . S
H235 C208 0.930 . S
H236 C213 0.929 . S
H237 C214 0.929 . S
H238 C216 0.931 . S
H239 C217 0.930 . S
Pr240 C242 2.880 1_556 S
Pr240 O260 2.562 1_556 S
Pr240 O261 2.490 1_556 S
Pr240 O262 2.695 . S
Pr240 O263 2.512 . S
Pr240 O265 2.437 1_556 S
Pr240 O268 2.436 1_556 S
Pr240 O270 2.438 . S
Pr241 C251 2.880 1_554 S
Pr241 O262 2.436 1_554 S
Pr241 O264 2.438 . S
Pr241 O266 2.562 1_554 S
Pr241 O267 2.490 1_554 S
Pr241 O268 2.695 . S
Pr241 O269 2.512 . S
Pr241 O271 2.437 1_554 S
C242 Pr240 2.880 1_554 S
C242 C243 1.491 . S
C242 O260 1.254 . S
C242 O261 1.225 . S
C243 C242 1.491 . S
C243 C244 1.392 . S
C243 C248 1.356 . S
C244 C243 1.392 . S
C244 C245 1.368 . S
C244 H272 0.929 . S
C245 C244 1.368 . S
C245 C246 1.386 . S
C245 H273 0.929 . S
C246 C245 1.386 . S
C246 C247 1.373 . S
C247 C246 1.373 . S
C247 C248 1.409 . S
C247 H274 0.931 . S
C248 C243 1.356 . S
C248 C247 1.409 . S
C248 H275 0.930 . S
C249 O262 1.270 . S
C249 O263 1.248 . S
C250 O264 1.267 . S
C250 O265 1.278 . S
C251 Pr241 2.880 1_556 S
C251 C252 1.491 . S
C251 O266 1.254 . S
C251 O267 1.225 . S
C252 C251 1.491 . S
C252 C253 1.392 . S
C252 C257 1.356 . S
C253 C252 1.392 . S
C253 C254 1.368 . S
C253 H276 0.929 . S
C254 C253 1.368 . S
C254 C255 1.386 . S
C254 H277 0.929 . S
C255 C254 1.386 . S
C255 C256 1.373 . S
C256 C255 1.373 . S
C256 C257 1.409 . S
C256 H278 0.931 . S
C257 C252 1.356 . S
C257 C256 1.409 . S
C257 H279 0.930 . S
C258 O268 1.270 . S
C258 O269 1.248 . S
C259 O270 1.267 . S
C259 O271 1.278 . S
O260 Pr240 2.562 1_554 S
O260 C242 1.254 . S
O261 Pr240 2.490 1_554 S
O261 C242 1.225 . S
O262 Pr240 2.695 . S
O262 Pr241 2.436 1_556 S
O262 C249 1.270 . S
O263 Pr240 2.512 . S
O263 C249 1.248 . S
O264 Pr241 2.438 . S
O264 C250 1.267 . S
O265 Pr240 2.437 1_554 S
O265 C250 1.278 . S
O266 Pr241 2.562 1_556 S
O266 C251 1.254 . S
O267 Pr241 2.490 1_556 S
O267 C251 1.225 . S
O268 Pr240 2.436 1_554 S
O268 Pr241 2.695 . S
O268 C258 1.270 . S
O269 Pr241 2.512 . S
O269 C258 1.248 . S
O270 Pr240 2.438 . S
O270 C259 1.267 . S
O271 Pr241 2.437 1_556 S
O271 C259 1.278 . S
H272 C244 0.929 . S
H273 C245 0.929 . S
H274 C247 0.931 . S
H275 C248 0.930 . S
H276 C253 0.929 . S
H277 C254 0.929 . S
H278 C256 0.931 . S
H279 C257 0.930 . S
Pr280 C282 2.880 1_556 S
Pr280 O300 2.562 1_556 S
Pr280 O301 2.490 1_556 S
Pr280 O302 2.695 . S
Pr280 O303 2.512 . S
Pr280 O305 2.437 1_556 S
Pr280 O308 2.436 1_556 S
Pr280 O310 2.438 . S
Pr281 C291 2.880 1_554 S
Pr281 O302 2.436 1_554 S
Pr281 O304 2.438 . S
Pr281 O306 2.562 1_554 S
Pr281 O307 2.490 1_554 S
Pr281 O308 2.695 . S
Pr281 O309 2.512 . S
Pr281 O311 2.437 1_554 S
C282 Pr280 2.880 1_554 S
C282 C283 1.491 . S
C282 O300 1.254 . S
C282 O301 1.225 . S
C283 C282 1.491 . S
C283 C284 1.392 . S
C283 C288 1.356 . S
C284 C283 1.392 . S
C284 C285 1.368 . S
C284 H312 0.929 . S
C285 C284 1.368 . S
C285 C286 1.386 . S
C285 H313 0.929 . S
C286 C285 1.386 . S
C286 C287 1.373 . S
C287 C286 1.373 . S
C287 C288 1.409 . S
C287 H314 0.931 . S
C288 C283 1.356 . S
C288 C287 1.409 . S
C288 H315 0.930 . S
C289 O302 1.270 . S
C289 O303 1.248 . S
C290 O304 1.267 . S
C290 O305 1.278 . S
C291 Pr281 2.880 1_556 S
C291 C292 1.491 . S
C291 O306 1.254 . S
C291 O307 1.225 . S
C292 C291 1.491 . S
C292 C293 1.392 . S
C292 C297 1.356 . S
C293 C292 1.392 . S
C293 C294 1.368 . S
C293 H316 0.929 . S
C294 C293 1.368 . S
C294 C295 1.386 . S
C294 H317 0.929 . S
C295 C294 1.386 . S
C295 C296 1.373 . S
C296 C295 1.373 . S
C296 C297 1.409 . S
C296 H318 0.931 . S
C297 C292 1.356 . S
C297 C296 1.409 . S
C297 H319 0.930 . S
C298 O308 1.270 . S
C298 O309 1.248 . S
C299 O310 1.267 . S
C299 O311 1.278 . S
O300 Pr280 2.562 1_554 S
O300 C282 1.254 . S
O301 Pr280 2.490 1_554 S
O301 C282 1.225 . S
O302 Pr280 2.695 . S
O302 Pr281 2.436 1_556 S
O302 C289 1.270 . S
O303 Pr280 2.512 . S
O303 C289 1.248 . S
O304 Pr281 2.438 . S
O304 C290 1.267 . S
O305 Pr280 2.437 1_554 S
O305 C290 1.278 . S
O306 Pr281 2.562 1_556 S
O306 C291 1.254 . S
O307 Pr281 2.490 1_556 S
O307 C291 1.225 . S
O308 Pr280 2.436 1_554 S
O308 Pr281 2.695 . S
O308 C298 1.270 . S
O309 Pr281 2.512 . S
O309 C298 1.248 . S
O310 Pr280 2.438 . S
O310 C299 1.267 . S
O311 Pr281 2.437 1_556 S
O311 C299 1.278 . S
H312 C284 0.929 . S
H313 C285 0.929 . S
H314 C287 0.931 . S
H315 C288 0.930 . S
H316 C293 0.929 . S
H317 C294 0.929 . S
H318 C296 0.931 . S
H319 C297 0.930 . S
C320 C321 1.391 . S
C320 C322 1.394 . S
C320 H336 0.931 . S
C321 C320 1.391 . S
C321 C325 1.376 . S
C322 C320 1.394 . S
C322 C323 1.369 . S
C322 C326 1.531 . S
C323 C322 1.369 . S
C323 C324 1.410 . S
C323 C331 1.503 . S
C324 C323 1.410 . S
C324 C325 1.392 . S
C324 C327 1.511 . S
C325 C321 1.376 . S
C325 C324 1.392 . S
C325 H337 0.929 . S
C326 C322 1.531 . S
C326 H338 0.960 . S
C326 H339 0.962 . S
C326 H340 0.960 . S
C327 C324 1.511 . S
C327 H341 0.961 . S
C327 H342 0.961 . S
C327 H343 0.961 . S
C328 C329 1.370 . S
C328 C330 1.363 . S
C328 H344 0.931 . S
C329 C328 1.370 . S
C329 C333 1.408 . S
C330 C328 1.363 . S
C330 C331 1.370 . S
C330 C334 1.524 . S
C331 C323 1.503 . S
C331 C330 1.370 . S
C331 C332 1.403 . S
C332 C331 1.403 . S
C332 C333 1.404 . S
C332 C335 1.539 . S
C333 C329 1.408 . S
C333 C332 1.404 . S
C333 H345 0.930 . S
C334 C330 1.524 . S
C334 H346 0.956 . S
C334 H347 0.961 . S
C334 H348 0.961 . S
C335 C332 1.539 . S
C335 H349 0.958 . S
C335 H350 0.961 . S
C335 H351 0.960 . S
H336 C320 0.931 . S
H337 C325 0.929 . S
H338 C326 0.960 . S
H339 C326 0.962 . S
H340 C326 0.960 . S
H341 C327 0.961 . S
H342 C327 0.961 . S
H343 C327 0.961 . S
H344 C328 0.931 . S
H345 C333 0.930 . S
H346 C334 0.956 . S
H347 C334 0.961 . S
H348 C334 0.961 . S
H349 C335 0.958 . S
H350 C335 0.961 . S
H351 C335 0.960 . S
C352 C353 1.391 . S
C352 C354 1.394 . S
C352 H368 0.931 . S
C353 C352 1.391 . S
C353 C357 1.376 . S
C354 C352 1.394 . S
C354 C355 1.369 . S
C354 C358 1.531 . S
C355 C354 1.369 . S
C355 C356 1.410 . S
C355 C363 1.503 . S
C356 C355 1.410 . S
C356 C357 1.392 . S
C356 C359 1.511 . S
C357 C353 1.376 . S
C357 C356 1.392 . S
C357 H369 0.929 . S
C358 C354 1.531 . S
C358 H370 0.960 . S
C358 H371 0.962 . S
C358 H372 0.960 . S
C359 C356 1.511 . S
C359 H373 0.961 . S
C359 H374 0.961 . S
C359 H375 0.961 . S
C360 C361 1.370 . S
C360 C362 1.363 . S
C360 H376 0.931 . S
C361 C360 1.370 . S
C361 C365 1.408 . S
C362 C360 1.363 . S
C362 C363 1.370 . S
C362 C366 1.524 . S
C363 C355 1.503 . S
C363 C362 1.370 . S
C363 C364 1.403 . S
C364 C363 1.403 . S
C364 C365 1.404 . S
C364 C367 1.539 . S
C365 C361 1.408 . S
C365 C364 1.404 . S
C365 H377 0.930 . S
C366 C362 1.524 . S
C366 H378 0.956 . S
C366 H379 0.961 . S
C366 H380 0.961 . S
C367 C364 1.539 . S
C367 H381 0.958 . S
C367 H382 0.961 . S
C367 H383 0.960 . S
H368 C352 0.931 . S
H369 C357 0.929 . S
H370 C358 0.960 . S
H371 C358 0.962 . S
H372 C358 0.960 . S
H373 C359 0.961 . S
H374 C359 0.961 . S
H375 C359 0.961 . S
H376 C360 0.931 . S
H377 C365 0.930 . S
H378 C366 0.956 . S
H379 C366 0.961 . S
H380 C366 0.961 . S
H381 C367 0.958 . S
H382 C367 0.961 . S
H383 C367 0.960 . S
C384 C385 1.391 . S
C384 C386 1.394 . S
C384 H400 0.931 . S
C385 C384 1.391 . S
C385 C389 1.376 . S
C386 C384 1.394 . S
C386 C387 1.369 . S
C386 C390 1.531 . S
C387 C386 1.369 . S
C387 C388 1.410 . S
C387 C395 1.503 . S
C388 C387 1.410 . S
C388 C389 1.392 . S
C388 C391 1.511 . S
C389 C385 1.376 . S
C389 C388 1.392 . S
C389 H401 0.929 . S
C390 C386 1.531 . S
C390 H402 0.960 . S
C390 H403 0.962 . S
C390 H404 0.960 . S
C391 C388 1.511 . S
C391 H405 0.961 . S
C391 H406 0.961 . S
C391 H407 0.961 . S
C392 C393 1.370 . S
C392 C394 1.363 . S
C392 H408 0.931 . S
C393 C392 1.370 . S
C393 C397 1.408 . S
C394 C392 1.363 . S
C394 C395 1.370 . S
C394 C398 1.524 . S
C395 C387 1.503 . S
C395 C394 1.370 . S
C395 C396 1.403 . S
C396 C395 1.403 . S
C396 C397 1.404 . S
C396 C399 1.539 . S
C397 C393 1.408 . S
C397 C396 1.404 . S
C397 H409 0.930 . S
C398 C394 1.524 . S
C398 H410 0.956 . S
C398 H411 0.961 . S
C398 H412 0.961 . S
C399 C396 1.539 . S
C399 H413 0.958 . S
C399 H414 0.961 . S
C399 H415 0.960 . S
H400 C384 0.931 . S
H401 C389 0.929 . S
H402 C390 0.960 . S
H403 C390 0.962 . S
H404 C390 0.960 . S
H405 C391 0.961 . S
H406 C391 0.961 . S
H407 C391 0.961 . S
H408 C392 0.931 . S
H409 C397 0.930 . S
H410 C398 0.956 . S
H411 C398 0.961 . S
H412 C398 0.961 . S
H413 C399 0.958 . S
H414 C399 0.961 . S
H415 C399 0.960 . S
C416 C417 1.391 . S
C416 C418 1.394 . S
C416 H432 0.931 . S
C417 C416 1.391 . S
C417 C421 1.376 . S
C418 C416 1.394 . S
C418 C419 1.369 . S
C418 C422 1.531 . S
C419 C418 1.369 . S
C419 C420 1.410 . S
C419 C427 1.503 . S
C420 C419 1.410 . S
C420 C421 1.392 . S
C420 C423 1.511 . S
C421 C417 1.376 . S
C421 C420 1.392 . S
C421 H433 0.929 . S
C422 C418 1.531 . S
C422 H434 0.960 . S
C422 H435 0.962 . S
C422 H436 0.960 . S
C423 C420 1.511 . S
C423 H437 0.961 . S
C423 H438 0.961 . S
C423 H439 0.961 . S
C424 C425 1.370 . S
C424 C426 1.363 . S
C424 H440 0.931 . S
C425 C424 1.370 . S
C425 C429 1.408 . S
C426 C424 1.363 . S
C426 C427 1.370 . S
C426 C430 1.524 . S
C427 C419 1.503 . S
C427 C426 1.370 . S
C427 C428 1.403 . S
C428 C427 1.403 . S
C428 C429 1.404 . S
C428 C431 1.539 . S
C429 C425 1.408 . S
C429 C428 1.404 . S
C429 H441 0.930 . S
C430 C426 1.524 . S
C430 H442 0.956 . S
C430 H443 0.961 . S
C430 H444 0.961 . S
C431 C428 1.539 . S
C431 H445 0.958 . S
C431 H446 0.961 . S
C431 H447 0.960 . S
H432 C416 0.931 . S
H433 C421 0.929 . S
H434 C422 0.960 . S
H435 C422 0.962 . S
H436 C422 0.960 . S
H437 C423 0.961 . S
H438 C423 0.961 . S
H439 C423 0.961 . S
H440 C424 0.931 . S
H441 C429 0.930 . S
H442 C430 0.956 . S
H443 C430 0.961 . S
H444 C430 0.961 . S
H445 C431 0.958 . S
H446 C431 0.961 . S
H447 C431 0.960 . S
C448 C449 1.391 . S
C448 C450 1.394 . S
C448 H464 0.931 . S
C449 C448 1.391 . S
C449 C453 1.376 . S
C450 C448 1.394 . S
C450 C451 1.369 . S
C450 C454 1.531 . S
C451 C450 1.369 . S
C451 C452 1.410 . S
C451 C459 1.503 1_565 S
C452 C451 1.410 . S
C452 C453 1.392 . S
C452 C455 1.511 . S
C453 C449 1.376 . S
C453 C452 1.392 . S
C453 H465 0.929 . S
C454 C450 1.531 . S
C454 H466 0.960 . S
C454 H467 0.962 . S
C454 H468 0.960 . S
C455 C452 1.511 . S
C455 H469 0.961 . S
C455 H470 0.961 1_565 S
C455 H471 0.961 . S
C456 C457 1.370 . S
C456 C458 1.363 . S
C456 H472 0.931 . S
C457 C456 1.370 . S
C457 C461 1.408 . S
C458 C456 1.363 . S
C458 C459 1.370 . S
C458 C462 1.524 . S
C459 C451 1.503 1_545 S
C459 C458 1.370 . S
C459 C460 1.403 . S
C460 C459 1.403 . S
C460 C461 1.404 . S
C460 C463 1.539 . S
C461 C457 1.408 . S
C461 C460 1.404 . S
C461 H473 0.930 . S
C462 C458 1.524 . S
C462 H474 0.956 . S
C462 H475 0.961 . S
C462 H476 0.961 . S
C463 C460 1.539 . S
C463 H477 0.958 1_545 S
C463 H478 0.961 . S
C463 H479 0.960 1_545 S
H464 C448 0.931 . S
H465 C453 0.929 . S
H466 C454 0.960 . S
H467 C454 0.962 . S
H468 C454 0.960 . S
H469 C455 0.961 . S
H470 C455 0.961 1_545 S
H471 C455 0.961 . S
H472 C456 0.931 . S
H473 C461 0.930 . S
H474 C462 0.956 . S
H475 C462 0.961 . S
H476 C462 0.961 . S
H477 C463 0.958 1_565 S
H478 C463 0.961 . S
H479 C463 0.960 1_565 S
C480 C481 1.391 . S
C480 C482 1.394 . S
C480 H496 0.931 . S
C481 C480 1.391 . S
C481 C485 1.376 . S
C482 C480 1.394 . S
C482 C483 1.369 . S
C482 C486 1.531 . S
C483 C482 1.369 . S
C483 C484 1.410 . S
C483 C491 1.503 . S
C484 C483 1.410 . S
C484 C485 1.392 . S
C484 C487 1.511 . S
C485 C481 1.376 . S
C485 C484 1.392 . S
C485 H497 0.929 . S
C486 C482 1.531 . S
C486 H498 0.960 . S
C486 H499 0.962 . S
C486 H500 0.960 . S
C487 C484 1.511 . S
C487 H501 0.961 . S
C487 H502 0.961 . S
C487 H503 0.961 . S
C488 C489 1.370 . S
C488 C490 1.363 . S
C488 H504 0.931 . S
C489 C488 1.370 . S
C489 C493 1.408 . S
C490 C488 1.363 . S
C490 C491 1.370 . S
C490 C494 1.524 . S
C491 C483 1.503 . S
C491 C490 1.370 . S
C491 C492 1.403 . S
C492 C491 1.403 . S
C492 C493 1.404 . S
C492 C495 1.539 . S
C493 C489 1.408 . S
C493 C492 1.404 . S
C493 H505 0.930 . S
C494 C490 1.524 . S
C494 H506 0.956 . S
C494 H507 0.961 . S
C494 H508 0.961 . S
C495 C492 1.539 . S
C495 H509 0.958 . S
C495 H510 0.961 . S
C495 H511 0.960 . S
H496 C480 0.931 . S
H497 C485 0.929 . S
H498 C486 0.960 . S
H499 C486 0.962 . S
H500 C486 0.960 . S
H501 C487 0.961 . S
H502 C487 0.961 . S
H503 C487 0.961 . S
H504 C488 0.931 . S
H505 C493 0.930 . S
H506 C494 0.956 . S
H507 C494 0.961 . S
H508 C494 0.961 . S
H509 C495 0.958 . S
H510 C495 0.961 . S
H511 C495 0.960 . S
C512 C513 1.391 . S
C512 C514 1.394 . S
C512 H528 0.931 . S
C513 C512 1.391 . S
C513 C517 1.376 . S
C514 C512 1.394 . S
C514 C515 1.369 . S
C514 C518 1.516 1_565 S
C515 C514 1.369 . S
C515 C516 1.410 . S
C515 C523 1.503 1_565 S
C516 C515 1.410 . S
C516 C517 1.392 . S
C516 C519 1.511 . S
C517 C513 1.376 . S
C517 C516 1.392 . S
C517 H529 0.929 . S
C518 C514 1.516 1_545 S
C518 H530 0.980 . S
C518 H531 0.965 . S
C518 H532 0.953 1_545 S
C519 C516 1.511 . S
C519 H533 0.961 . S
C519 H534 0.961 . S
C519 H535 0.961 . S
C520 C521 1.370 . S
C520 C522 1.363 . S
C520 H536 0.931 . S
C521 C520 1.370 . S
C521 C525 1.408 . S
C522 C520 1.363 . S
C522 C523 1.370 . S
C522 C526 1.524 . S
C523 C515 1.503 1_545 S
C523 C522 1.370 . S
C523 C524 1.403 . S
C524 C523 1.403 . S
C524 C525 1.404 . S
C524 C527 1.539 . S
C525 C521 1.408 . S
C525 C524 1.404 . S
C525 H537 0.930 . S
C526 C522 1.524 . S
C526 H538 0.956 . S
C526 H539 0.961 1_545 S
C526 H540 0.961 . S
C527 C524 1.539 . S
C527 H541 0.958 . S
C527 H542 0.961 . S
C527 H543 0.960 . S
H528 C512 0.931 . S
H529 C517 0.929 . S
H530 C518 0.980 . S
H531 C518 0.965 . S
H532 C518 0.953 1_565 S
H533 C519 0.961 . S
H534 C519 0.961 . S
H535 C519 0.961 . S
H536 C520 0.931 . S
H537 C525 0.930 . S
H538 C526 0.956 . S
H539 C526 0.961 1_565 S
H540 C526 0.961 . S
H541 C527 0.958 . S
H542 C527 0.961 . S
H543 C527 0.960 . S
C544 C545 1.391 . S
C544 C546 1.394 . S
C544 H560 0.931 . S
C545 C544 1.391 . S
C545 C549 1.376 . S
C546 C544 1.394 . S
C546 C547 1.369 . S
C546 C550 1.531 . S
C547 C546 1.369 . S
C547 C548 1.410 . S
C547 C555 1.503 . S
C548 C547 1.410 . S
C548 C549 1.392 . S
C548 C551 1.511 . S
C549 C545 1.376 . S
C549 C548 1.392 . S
C549 H561 0.929 . S
C550 C546 1.531 . S
C550 H562 0.960 . S
C550 H563 0.962 . S
C550 H564 0.960 . S
C551 C548 1.511 . S
C551 H565 0.961 . S
C551 H566 0.961 . S
C551 H567 0.961 . S
C552 C553 1.370 . S
C552 C554 1.363 . S
C552 H568 0.931 . S
C553 C552 1.370 . S
C553 C557 1.408 . S
C554 C552 1.363 . S
C554 C555 1.370 . S
C554 C558 1.524 . S
C555 C547 1.503 . S
C555 C554 1.370 . S
C555 C556 1.403 . S
C556 C555 1.403 . S
C556 C557 1.404 . S
C556 C559 1.539 . S
C557 C553 1.408 . S
C557 C556 1.404 . S
C557 H569 0.930 . S
C558 C554 1.524 . S
C558 H570 0.956 . S
C558 H571 0.961 . S
C558 H572 0.961 . S
C559 C556 1.539 . S
C559 H573 0.958 . S
C559 H574 0.961 . S
C559 H575 0.960 . S
H560 C544 0.931 . S
H561 C549 0.929 . S
H562 C550 0.960 . S
H563 C550 0.962 . S
H564 C550 0.960 . S
H565 C551 0.961 . S
H566 C551 0.961 . S
H567 C551 0.961 . S
H568 C552 0.931 . S
H569 C557 0.930 . S
H570 C558 0.956 . S
H571 C558 0.961 . S
H572 C558 0.961 . S
H573 C559 0.958 . S
H574 C559 0.961 . S
H575 C559 0.960 . S
C576 C577 1.391 . S
C576 C578 1.394 . S
C576 H592 0.931 . S
C577 C576 1.391 . S
C577 C581 1.376 1_556 S
C578 C576 1.394 . S
C578 C579 1.369 . S
C578 C582 1.531 . S
C579 C578 1.369 . S
C579 C580 1.410 . S
C579 C587 1.503 . S
C580 C579 1.410 . S
C580 C581 1.392 1_556 S
C580 C583 1.511 1_556 S
C581 C577 1.376 1_554 S
C581 C580 1.392 1_554 S
C581 H593 0.929 . S
C582 C578 1.531 . S
C582 H594 0.960 . S
C582 H595 0.962 . S
C582 H596 0.960 . S
C583 C580 1.511 1_554 S
C583 H597 0.961 . S
C583 H598 0.961 . S
C583 H599 0.961 1_554 S
C584 C585 1.370 1_554 S
C584 C586 1.363 . S
C584 H600 0.931 . S
C585 C584 1.370 1_556 S
C585 C589 1.408 . S
C586 C584 1.363 . S
C586 C587 1.370 1_554 S
C586 C590 1.524 . S
C587 C579 1.503 . S
C587 C586 1.370 1_556 S
C587 C588 1.403 . S
C588 C587 1.403 . S
C588 C589 1.404 . S
C588 C591 1.539 . S
C589 C585 1.408 . S
C589 C588 1.404 . S
C589 H601 0.930 . S
C590 C586 1.524 . S
C590 H602 0.956 . S
C590 H603 0.961 . S
C590 H604 0.961 . S
C591 C588 1.539 . S
C591 H605 0.958 . S
C591 H606 0.961 . S
C591 H607 0.960 . S
H592 C576 0.931 . S
H593 C581 0.929 . S
H594 C582 0.960 . S
H595 C582 0.962 . S
H596 C582 0.960 . S
H597 C583 0.961 . S
H598 C583 0.961 . S
H599 C583 0.961 1_556 S
H600 C584 0.931 . S
H601 C589 0.930 . S
H602 C590 0.956 . S
H603 C590 0.961 . S
H604 C590 0.961 . S
H605 C591 0.958 . S
H606 C591 0.961 . S
H607 C591 0.960 . S
C608 C609 1.391 . S
C608 C610 1.394 . S
C608 H624 0.931 . S
C609 C608 1.391 . S
C609 C613 1.376 . S
C610 C608 1.394 . S
C610 C611 1.369 . S
C610 C614 1.531 . S
C611 C610 1.369 . S
C611 C612 1.410 . S
C611 C619 1.503 1_565 S
C612 C611 1.410 . S
C612 C613 1.392 . S
C612 C615 1.511 . S
C613 C609 1.376 . S
C613 C612 1.392 . S
C613 H625 0.929 . S
C614 C610 1.531 . S
C614 H626 0.960 1_565 S
C614 H627 0.962 1_554 S
C614 H628 0.960 . S
C615 C612 1.511 . S
C615 H629 0.961 1_554 S
C615 H630 0.961 1_554 S
C615 H631 0.961 . S
C616 C617 1.380 . S
C616 C618 1.363 . S
C616 H632 0.931 . S
C617 C616 1.380 . S
C617 C621 1.397 1_556 S
C618 C616 1.363 . S
C618 C619 1.370 1_556 S
C618 C622 1.524 . S
C619 C611 1.503 1_545 S
C619 C618 1.370 1_554 S
C619 C620 1.403 . S
C620 C619 1.403 . S
C620 C621 1.404 . S
C620 C623 1.539 . S
C621 C617 1.397 1_554 S
C621 C620 1.404 . S
C621 H633 0.930 . S
C622 C618 1.524 . S
C622 H634 0.956 . S
C622 H635 0.961 1_545 S
C622 H636 0.961 . S
C623 C620 1.539 . S
C623 H637 0.958 . S
C623 H638 0.961 . S
C623 H639 0.967 . S
H624 C608 0.931 . S
H625 C613 0.929 . S
H626 C614 0.960 1_545 S
H627 C614 0.962 1_556 S
H628 C614 0.960 . S
H629 C615 0.961 1_556 S
H630 C615 0.961 1_556 S
H631 C615 0.961 . S
H632 C616 0.931 . S
H633 C621 0.930 . S
H634 C622 0.956 . S
H635 C622 0.961 1_565 S
H636 C622 0.961 . S
H637 C623 0.958 . S
H638 C623 0.961 . S
H639 C623 0.967 . S
C640 C641 1.391 . S
C640 C642 1.394 . S
C640 H656 0.931 . S
C641 C640 1.391 . S
C641 C645 1.376 1_556 S
C642 C640 1.394 . S
C642 C643 1.369 . S
C642 C646 1.531 . S
C643 C642 1.369 . S
C643 C644 1.410 1_556 S
C643 C651 1.503 . S
C644 C643 1.410 1_554 S
C644 C645 1.392 . S
C644 C647 1.511 . S
C645 C641 1.376 1_554 S
C645 C644 1.392 . S
C645 H657 0.929 . S
C646 C642 1.531 . S
C646 H658 0.960 . S
C646 H659 0.962 . S
C646 H660 0.960 . S
C647 C644 1.511 . S
C647 H661 0.961 . S
C647 H662 0.961 . S
C647 H663 0.961 . S
C648 C649 1.370 . S
C648 C650 1.363 . S
C648 H664 0.931 . S
C649 C648 1.370 . S
C649 C653 1.408 1_554 S
C650 C648 1.363 . S
C650 C651 1.370 1_554 S
C650 C654 1.524 . S
C651 C643 1.503 . S
C651 C650 1.370 1_556 S
C651 C652 1.403 . S
C652 C651 1.403 . S
C652 C653 1.404 . S
C652 C655 1.539 . S
C653 C649 1.408 1_556 S
C653 C652 1.404 . S
C653 H665 0.930 . S
C654 C650 1.524 . S
C654 H666 0.956 . S
C654 H667 0.961 . S
C654 H668 0.961 . S
C655 C652 1.539 . S
C655 H669 0.958 . S
C655 H670 0.961 . S
C655 H671 0.960 . S
H656 C640 0.931 . S
H657 C645 0.929 . S
H658 C646 0.960 . S
H659 C646 0.962 . S
H660 C646 0.960 . S
H661 C647 0.961 . S
H662 C647 0.961 . S
H663 C647 0.961 . S
H664 C648 0.931 . S
H665 C653 0.930 . S
H666 C654 0.956 . S
H667 C654 0.961 . S
H668 C654 0.961 . S
H669 C655 0.958 . S
H670 C655 0.961 . S
H671 C655 0.960 . S
C672 C673 1.391 . S
C672 C674 1.394 . S
C672 H688 0.931 . S
C673 C672 1.391 . S
C673 C677 1.376 1_556 S
C674 C672 1.394 . S
C674 C675 1.369 . S
C674 C678 1.531 . S
C675 C674 1.369 . S
C675 C676 1.410 1_556 S
C675 C683 1.503 1_545 S
C676 C675 1.410 1_554 S
C676 C677 1.392 . S
C676 C679 1.511 . S
C677 C673 1.376 1_554 S
C677 C676 1.392 . S
C677 H689 0.929 . S
C678 C674 1.531 . S
C678 H690 0.960 1_545 S
C678 H691 0.962 . S
C678 H692 0.960 . S
C679 C676 1.511 . S
C679 H693 0.961 . S
C679 H694 0.961 1_545 S
C679 H695 0.961 . S
C680 C681 1.370 . S
C680 C682 1.363 . S
C680 H696 0.931 . S
C681 C680 1.370 . S
C681 C685 1.408 1_554 S
C682 C680 1.363 . S
C682 C683 1.370 1_554 S
C682 C686 1.524 . S
C683 C675 1.503 1_565 S
C683 C682 1.370 1_556 S
C683 C684 1.403 . S
C684 C683 1.403 . S
C684 C685 1.404 . S
C684 C687 1.539 . S
C685 C681 1.408 1_556 S
C685 C684 1.404 . S
C685 H697 0.930 . S
C686 C682 1.524 . S
C686 H698 0.956 1_565 S
C686 H699 0.961 1_565 S
C686 H700 0.961 . S
C687 C684 1.539 . S
C687 H701 0.958 . S
C687 H702 0.961 . S
C687 H703 0.960 . S
H688 C672 0.931 . S
H689 C677 0.929 . S
H690 C678 0.960 1_565 S
H691 C678 0.962 . S
H692 C678 0.960 . S
H693 C679 0.961 . S
H694 C679 0.961 1_565 S
H695 C679 0.961 . S
H696 C680 0.931 . S
H697 C685 0.930 . S
H698 C686 0.956 1_545 S
H699 C686 0.961 1_545 S
H700 C686 0.961 . S
H701 C687 0.958 . S
H702 C687 0.961 . S
H703 C687 0.960 . S
C704 C705 1.391 . S
C704 C706 1.394 . S
C704 H720 0.931 . S
C705 C704 1.391 . S
C705 C709 1.376 . S
C706 C704 1.394 . S
C706 C707 1.369 1_554 S
C706 C710 1.530 1_554 S
C707 C706 1.369 1_556 S
C707 C708 1.410 1_556 S
C707 C715 1.503 . S
C708 C707 1.410 1_554 S
C708 C709 1.392 . S
C708 C711 1.511 1_554 S
C709 C705 1.376 . S
C709 C708 1.392 . S
C709 H721 0.929 . S
C710 C706 1.530 1_556 S
C710 H722 0.961 . S
C710 H723 0.962 . S
C710 H724 0.959 1_556 S
C711 C708 1.511 1_556 S
C711 H725 0.961 . S
C711 H726 0.961 . S
C711 H727 0.961 . S
C712 C713 1.370 . S
C712 C714 1.363 . S
C712 H728 0.931 . S
C713 C712 1.370 . S
C713 C717 1.408 . S
C714 C712 1.363 . S
C714 C715 1.370 . S
C714 C718 1.524 . S
C715 C707 1.503 . S
C715 C714 1.370 . S
C715 C716 1.403 . S
C716 C715 1.403 . S
C716 C717 1.404 . S
C716 C719 1.539 . S
C717 C713 1.408 . S
C717 C716 1.404 . S
C717 H729 0.930 . S
C718 C714 1.524 . S
C718 H730 0.956 . S
C718 H731 0.961 . S
C718 H732 0.961 . S
C719 C716 1.539 . S
C719 H733 0.958 . S
C719 H734 0.961 . S
C719 H735 0.960 . S
H720 C704 0.931 . S
H721 C709 0.929 . S
H722 C710 0.961 . S
H723 C710 0.962 . S
H724 C710 0.959 1_554 S
H725 C711 0.961 . S
H726 C711 0.961 . S
H727 C711 0.961 . S
H728 C712 0.931 . S
H729 C717 0.930 . S
H730 C718 0.956 . S
H731 C718 0.961 . S
H732 C718 0.961 . S
H733 C719 0.958 . S
H734 C719 0.961 . S
H735 C719 0.960 . S
C736 C737 1.391 . S
C736 C738 1.394 . S
C736 H752 0.931 . S
C737 C736 1.391 . S
C737 C741 1.376 . S
C738 C736 1.394 . S
C738 C739 1.369 1_554 S
C738 C742 1.531 1_554 S
C739 C738 1.369 1_556 S
C739 C740 1.410 1_556 S
C739 C747 1.503 . S
C740 C739 1.410 1_554 S
C740 C741 1.392 . S
C740 C743 1.512 . S
C741 C737 1.376 . S
C741 C740 1.392 . S
C741 H753 0.929 . S
C742 C738 1.531 1_556 S
C742 H754 0.960 . S
C742 H755 0.962 . S
C742 H756 0.960 . S
C743 C740 1.512 . S
C743 H757 0.961 . S
C743 H758 0.960 1_554 S
C743 H759 0.960 1_554 S
C744 C745 1.370 . S
C744 C746 1.363 . S
C744 H760 0.931 . S
C745 C744 1.370 . S
C745 C749 1.408 . S
C746 C744 1.363 . S
C746 C747 1.370 . S
C746 C750 1.524 . S
C747 C739 1.503 . S
C747 C746 1.370 . S
C747 C748 1.403 . S
C748 C747 1.403 . S
C748 C749 1.404 . S
C748 C751 1.539 . S
C749 C745 1.408 . S
C749 C748 1.404 . S
C749 H761 0.930 . S
C750 C746 1.524 . S
C750 H762 0.956 . S
C750 H763 0.961 . S
C750 H764 0.961 . S
C751 C748 1.539 . S
C751 H765 0.958 . S
C751 H766 0.961 . S
C751 H767 0.960 . S
H752 C736 0.931 . S
H753 C741 0.929 . S
H754 C742 0.960 . S
H755 C742 0.962 . S
H756 C742 0.960 . S
H757 C743 0.961 . S
H758 C743 0.960 1_556 S
H759 C743 0.960 1_556 S
H760 C744 0.931 . S
H761 C749 0.930 . S
H762 C750 0.956 . S
H763 C750 0.961 . S
H764 C750 0.961 . S
H765 C751 0.958 . S
H766 C751 0.961 . S
H767 C751 0.960 . S
C768 C769 1.391 . S
C768 C770 1.394 . S
C768 H784 0.931 . S
C769 C768 1.391 . S
C769 C773 1.376 . S
C770 C768 1.394 . S
C770 C771 1.369 . S
C770 C774 1.531 . S
C771 C770 1.369 . S
C771 C772 1.410 . S
C771 C779 1.503 . S
C772 C771 1.410 . S
C772 C773 1.392 . S
C772 C775 1.511 . S
C773 C769 1.376 . S
C773 C772 1.392 . S
C773 H785 0.929 . S
C774 C770 1.531 . S
C774 H786 0.960 . S
C774 H787 0.962 . S
C774 H788 0.960 . S
C775 C772 1.511 . S
C775 H789 0.961 . S
C775 H790 0.961 . S
C775 H791 0.961 . S
C776 C777 1.370 . S
C776 C778 1.363 . S
C776 H792 0.931 . S
C777 C776 1.370 . S
C777 C781 1.408 . S
C778 C776 1.363 . S
C778 C779 1.370 1_556 S
C778 C782 1.524 1_556 S
C779 C771 1.503 . S
C779 C778 1.370 1_554 S
C779 C780 1.403 1_554 S
C780 C779 1.403 1_556 S
C780 C781 1.404 . S
C780 C783 1.539 1_556 S
C781 C777 1.408 . S
C781 C780 1.404 . S
C781 H793 0.930 . S
C782 C778 1.524 1_554 S
C782 H794 0.956 . S
C782 H795 0.961 . S
C782 H796 0.961 1_554 S
C783 C780 1.539 1_554 S
C783 H797 0.958 . S
C783 H798 0.961 . S
C783 H799 0.960 . S
H784 C768 0.931 . S
H785 C773 0.929 . S
H786 C774 0.960 . S
H787 C774 0.962 . S
H788 C774 0.960 . S
H789 C775 0.961 . S
H790 C775 0.961 . S
H791 C775 0.961 . S
H792 C776 0.931 . S
H793 C781 0.930 . S
H794 C782 0.956 . S
H795 C782 0.961 . S
H796 C782 0.961 1_556 S
H797 C783 0.958 . S
H798 C783 0.961 . S
H799 C783 0.960 . S
C800 C801 1.391 . S
C800 C802 1.394 . S
C800 H816 0.931 . S
C801 C800 1.391 . S
C801 C805 1.376 . S
C802 C800 1.394 . S
C802 C803 1.369 1_556 S
C802 C806 1.531 1_556 S
C803 C802 1.369 1_554 S
C803 C804 1.410 1_554 S
C803 C811 1.503 . S
C804 C803 1.410 1_556 S
C804 C805 1.392 . S
C804 C807 1.511 1_556 S
C805 C801 1.376 . S
C805 C804 1.392 . S
C805 H817 0.929 . S
C806 C802 1.531 1_554 S
C806 H818 0.960 . S
C806 H819 0.962 . S
C806 H820 0.960 1_554 S
C807 C804 1.511 1_554 S
C807 H821 0.961 . S
C807 H822 0.961 . S
C807 H823 0.961 . S
C808 C809 1.370 . S
C808 C810 1.363 . S
C808 H824 0.931 . S
C809 C808 1.370 . S
C809 C813 1.408 . S
C810 C808 1.363 . S
C810 C811 1.370 . S
C810 C814 1.524 . S
C811 C803 1.503 . S
C811 C810 1.370 . S
C811 C812 1.403 . S
C812 C811 1.403 . S
C812 C813 1.404 . S
C812 C815 1.539 . S
C813 C809 1.408 . S
C813 C812 1.404 . S
C813 H825 0.930 . S
C814 C810 1.524 . S
C814 H826 0.956 . S
C814 H827 0.961 . S
C814 H828 0.961 . S
C815 C812 1.539 . S
C815 H829 0.958 . S
C815 H830 0.961 . S
C815 H831 0.960 . S
H816 C800 0.931 . S
H817 C805 0.929 . S
H818 C806 0.960 . S
H819 C806 0.962 . S
H820 C806 0.960 1_556 S
H821 C807 0.961 . S
H822 C807 0.961 . S
H823 C807 0.961 . S
H824 C808 0.931 . S
H825 C813 0.930 . S
H826 C814 0.956 . S
H827 C814 0.961 . S
H828 C814 0.961 . S
H829 C815 0.958 . S
H830 C815 0.961 . S
H831 C815 0.960 . S
C832 C833 1.391 . S
C832 C834 1.394 . S
C832 H848 0.931 . S
C833 C832 1.391 . S
C833 C837 1.376 . S
C834 C832 1.394 . S
C834 C835 1.369 . S
C834 C838 1.531 . S
C835 C834 1.369 . S
C835 C836 1.410 . S
C835 C843 1.503 . S
C836 C835 1.410 . S
C836 C837 1.392 . S
C836 C839 1.511 . S
C837 C833 1.376 . S
C837 C836 1.392 . S
C837 H849 0.929 . S
C838 C834 1.531 . S
C838 H850 0.960 . S
C838 H851 0.962 . S
C838 H852 0.960 . S
C839 C836 1.511 . S
C839 H853 0.961 . S
C839 H854 0.961 . S
C839 H855 0.961 . S
C840 C841 1.370 . S
C840 C842 1.363 . S
C840 H856 0.931 . S
C841 C840 1.370 . S
C841 C845 1.408 . S
C842 C840 1.363 . S
C842 C843 1.370 . S
C842 C846 1.524 . S
C843 C835 1.503 . S
C843 C842 1.370 . S
C843 C844 1.403 . S
C844 C843 1.403 . S
C844 C845 1.404 . S
C844 C847 1.539 . S
C845 C841 1.408 . S
C845 C844 1.404 . S
C845 H857 0.930 . S
C846 C842 1.524 . S
C846 H858 0.956 . S
C846 H859 0.961 . S
C846 H860 0.961 . S
C847 C844 1.539 . S
C847 H861 0.958 . S
C847 H862 0.961 . S
C847 H863 0.960 . S
H848 C832 0.931 . S
H849 C837 0.929 . S
H850 C838 0.960 . S
H851 C838 0.962 . S
H852 C838 0.960 . S
H853 C839 0.961 . S
H854 C839 0.961 . S
H855 C839 0.961 . S
H856 C840 0.931 . S
H857 C845 0.930 . S
H858 C846 0.956 . S
H859 C846 0.961 . S
H860 C846 0.961 . S
H861 C847 0.958 . S
H862 C847 0.961 . S
H863 C847 0.960 . S
C864 C865 1.391 . S
C864 C866 1.394 . S
C864 H880 0.931 . S
C865 C864 1.391 . S
C865 C869 1.376 . S
C866 C864 1.394 . S
C866 C867 1.369 . S
C866 C870 1.531 . S
C867 C866 1.369 . S
C867 C868 1.410 . S
C867 C875 1.503 . S
C868 C867 1.410 . S
C868 C869 1.392 . S
C868 C871 1.511 . S
C869 C865 1.376 . S
C869 C868 1.392 . S
C869 H881 0.929 . S
C870 C866 1.531 . S
C870 H882 0.960 . S
C870 H883 0.962 . S
C870 H884 0.960 . S
C871 C868 1.511 . S
C871 H885 0.961 . S
C871 H886 0.961 . S
C871 H887 0.961 . S
C872 C873 1.370 . S
C872 C874 1.363 . S
C872 H888 0.931 . S
C873 C872 1.370 . S
C873 C877 1.408 . S
C874 C872 1.363 . S
C874 C875 1.370 . S
C874 C878 1.524 . S
C875 C867 1.503 . S
C875 C874 1.370 . S
C875 C876 1.403 . S
C876 C875 1.403 . S
C876 C877 1.404 . S
C876 C879 1.539 . S
C877 C873 1.408 . S
C877 C876 1.404 . S
C877 H889 0.930 . S
C878 C874 1.524 . S
C878 H890 0.956 . S
C878 H891 0.961 . S
C878 H892 0.961 . S
C879 C876 1.539 . S
C879 H893 0.958 . S
C879 H894 0.961 . S
C879 H895 0.960 . S
H880 C864 0.931 . S
H881 C869 0.929 . S
H882 C870 0.960 . S
H883 C870 0.962 . S
H884 C870 0.960 . S
H885 C871 0.961 . S
H886 C871 0.961 . S
H887 C871 0.961 . S
H888 C872 0.931 . S
H889 C877 0.930 . S
H890 C878 0.956 . S
H891 C878 0.961 . S
H892 C878 0.961 . S
H893 C879 0.958 . S
H894 C879 0.961 . S
H895 C879 0.960 . S
C896 C897 1.391 . S
C896 C898 1.394 . S
C896 H912 0.931 . S
C897 C896 1.391 . S
C897 C901 1.376 . S
C898 C896 1.394 . S
C898 C899 1.369 . S
C898 C902 1.531 . S
C899 C898 1.369 . S
C899 C900 1.410 . S
C899 C907 1.503 . S
C900 C899 1.410 . S
C900 C901 1.392 . S
C900 C903 1.511 . S
C901 C897 1.376 . S
C901 C900 1.392 . S
C901 H913 0.929 . S
C902 C898 1.531 . S
C902 H914 0.960 . S
C902 H915 0.962 . S
C902 H916 0.960 . S
C903 C900 1.511 . S
C903 H917 0.961 . S
C903 H918 0.961 . S
C903 H919 0.961 . S
C904 C905 1.370 . S
C904 C906 1.363 . S
C904 H920 0.931 . S
C905 C904 1.370 . S
C905 C909 1.408 . S
C906 C904 1.363 . S
C906 C907 1.370 . S
C906 C910 1.524 . S
C907 C899 1.503 . S
C907 C906 1.370 . S
C907 C908 1.403 . S
C908 C907 1.403 . S
C908 C909 1.404 . S
C908 C911 1.539 . S
C909 C905 1.408 . S
C909 C908 1.404 . S
C909 H921 0.930 . S
C910 C906 1.524 . S
C910 H922 0.956 . S
C910 H923 0.961 . S
C910 H924 0.961 . S
C911 C908 1.539 . S
C911 H925 0.958 . S
C911 H926 0.961 . S
C911 H927 0.960 . S
H912 C896 0.931 . S
H913 C901 0.929 . S
H914 C902 0.960 . S
H915 C902 0.962 . S
H916 C902 0.960 . S
H917 C903 0.961 . S
H918 C903 0.961 . S
H919 C903 0.961 . S
H920 C904 0.931 . S
H921 C909 0.930 . S
H922 C910 0.956 . S
H923 C910 0.961 . S
H924 C910 0.961 . S
H925 C911 0.958 . S
H926 C911 0.961 . S
H927 C911 0.960 . S
C928 C929 1.391 . S
C928 C930 1.394 . S
C928 H944 0.931 . S
C929 C928 1.391 . S
C929 C933 1.376 . S
C930 C928 1.394 . S
C930 C931 1.369 . S
C930 C934 1.531 . S
C931 C930 1.369 . S
C931 C932 1.410 . S
C931 C939 1.503 . S
C932 C931 1.410 . S
C932 C933 1.392 . S
C932 C935 1.511 . S
C933 C929 1.376 . S
C933 C932 1.392 . S
C933 H945 0.929 . S
C934 C930 1.531 . S
C934 H946 0.960 . S
C934 H947 0.962 . S
C934 H948 0.960 . S
C935 C932 1.511 . S
C935 H949 0.961 . S
C935 H950 0.961 . S
C935 H951 0.961 . S
C936 C937 1.370 . S
C936 C938 1.363 . S
C936 H952 0.931 . S
C937 C936 1.370 . S
C937 C941 1.408 . S
C938 C936 1.363 . S
C938 C939 1.370 . S
C938 C942 1.524 . S
C939 C931 1.503 . S
C939 C938 1.370 . S
C939 C940 1.403 . S
C940 C939 1.403 . S
C940 C941 1.404 . S
C940 C943 1.539 . S
C941 C937 1.408 . S
C941 C940 1.404 . S
C941 H953 0.930 . S
C942 C938 1.524 . S
C942 H954 0.956 . S
C942 H955 0.961 . S
C942 H956 0.961 . S
C943 C940 1.539 . S
C943 H957 0.958 . S
C943 H958 0.961 . S
C943 H959 0.960 . S
H944 C928 0.931 . S
H945 C933 0.929 . S
H946 C934 0.960 . S
H947 C934 0.962 . S
H948 C934 0.960 . S
H949 C935 0.961 . S
H950 C935 0.961 . S
H951 C935 0.961 . S
H952 C936 0.931 . S
H953 C941 0.930 . S
H954 C942 0.956 . S
H955 C942 0.961 . S
H956 C942 0.961 . S
H957 C943 0.958 . S
H958 C943 0.961 . S
H959 C943 0.960 . S
C960 C961 1.391 . S
C960 C962 1.394 . S
C960 H976 0.931 . S
C961 C960 1.391 . S
C961 C965 1.376 . S
C962 C960 1.394 . S
C962 C963 1.369 . S
C962 C966 1.531 . S
C963 C962 1.369 . S
C963 C964 1.410 . S
C963 C971 1.503 1_455 S
C964 C963 1.410 . S
C964 C965 1.392 . S
C964 C967 1.511 . S
C965 C961 1.376 . S
C965 C964 1.392 . S
C965 H977 0.929 . S
C966 C962 1.531 . S
C966 H978 1.037 . S
C966 H979 0.962 . S
C966 H980 0.960 . S
C967 C964 1.511 . S
C967 H981 0.961 . S
C967 H982 0.961 1_455 S
C967 H983 0.961 . S
C968 C969 1.370 . S
C968 C970 1.363 . S
C968 H984 0.931 . S
C969 C968 1.370 . S
C969 C973 1.408 . S
C970 C968 1.363 . S
C970 C971 1.370 . S
C970 C974 1.524 . S
C971 C963 1.503 1_655 S
C971 C970 1.370 . S
C971 C972 1.403 . S
C972 C971 1.403 . S
C972 C973 1.404 . S
C972 C975 1.539 . S
C973 C969 1.408 . S
C973 C972 1.404 . S
C973 H985 0.930 . S
C974 C970 1.524 . S
C974 H986 0.958 1_655 S
C974 H987 0.965 1_655 S
C974 H988 0.961 . S
C975 C972 1.539 . S
C975 H989 0.958 . S
C975 H990 0.961 . S
C975 H991 0.998 . S
H976 C960 0.931 . S
H977 C965 0.929 . S
H978 C966 1.037 . S
H979 C966 0.962 . S
H980 C966 0.960 . S
H981 C967 0.961 . S
H982 C967 0.961 1_655 S
H983 C967 0.961 . S
H984 C968 0.931 . S
H985 C973 0.930 . S
H986 C974 0.958 1_455 S
H987 C974 0.965 1_455 S
H988 C974 0.961 . S
H989 C975 0.958 . S
H990 C975 0.961 . S
H991 C975 0.998 . S
C992 C993 1.391 . S
C992 C994 1.394 . S
C992 H1008 0.931 . S
C993 C992 1.391 . S
C993 C997 1.376 . S
C994 C992 1.394 . S
C994 C995 1.369 . S
C994 C998 1.531 . S
C995 C994 1.369 . S
C995 C996 1.410 . S
C995 C1003 1.503 1_655 S
C996 C995 1.410 . S
C996 C997 1.392 . S
C996 C999 1.511 . S
C997 C993 1.376 . S
C997 C996 1.392 . S
C997 H1009 0.929 . S
C998 C994 1.531 . S
C998 H1010 0.960 1_655 S
C998 H1011 0.962 . S
C998 H1012 0.960 . S
C999 C996 1.511 . S
C999 H1013 0.961 . S
C999 H1014 1.004 . S
C999 H1015 0.961 . S
C1000 C1001 1.370 . S
C1000 C1002 1.363 . S
C1000 H1016 0.931 . S
C1001 C1000 1.370 . S
C1001 C1005 1.408 . S
C1002 C1000 1.363 . S
C1002 C1003 1.370 . S
C1002 C1006 1.524 . S
C1003 C995 1.503 1_455 S
C1003 C1002 1.370 . S
C1003 C1004 1.403 . S
C1004 C1003 1.403 . S
C1004 C1005 1.404 . S
C1004 C1007 1.539 . S
C1005 C1001 1.408 . S
C1005 C1004 1.404 . S
C1005 H1017 0.930 . S
C1006 C1002 1.524 . S
C1006 H1018 0.956 . S
C1006 H1019 0.930 1_455 S
C1006 H1020 0.961 . S
C1007 C1004 1.539 . S
C1007 H1021 0.958 . S
C1007 H1022 0.961 . S
C1007 H1023 0.960 1_455 S
H1008 C992 0.931 . S
H1009 C997 0.929 . S
H1010 C998 0.960 1_455 S
H1011 C998 0.962 . S
H1012 C998 0.960 . S
H1013 C999 0.961 . S
H1014 C999 1.004 . S
H1015 C999 0.961 . S
H1016 C1000 0.931 . S
H1017 C1005 0.930 . S
H1018 C1006 0.956 . S
H1019 C1006 0.930 1_655 S
H1020 C1006 0.961 . S
H1021 C1007 0.958 . S
H1022 C1007 0.961 . S
H1023 C1007 0.960 1_655 S
C1024 C1025 1.391 . S
C1024 C1026 1.394 . S
C1024 H1040 0.931 . S
C1025 C1024 1.391 . S
C1025 C1029 1.376 . S
C1026 C1024 1.394 . S
C1026 C1027 1.369 . S
C1026 C1030 1.531 . S
C1027 C1026 1.369 . S
C1027 C1028 1.410 . S
C1027 C1035 1.503 . S
C1028 C1027 1.410 . S
C1028 C1029 1.392 . S
C1028 C1031 1.511 . S
C1029 C1025 1.376 . S
C1029 C1028 1.392 . S
C1029 H1041 0.929 . S
C1030 C1026 1.531 . S
C1030 H1042 0.960 . S
C1030 H1043 0.962 . S
C1030 H1044 0.960 . S
C1031 C1028 1.511 . S
C1031 H1045 0.961 . S
C1031 H1046 0.961 . S
C1031 H1047 0.961 . S
C1032 C1033 1.370 . S
C1032 C1034 1.363 . S
C1032 H1048 0.931 . S
C1033 C1032 1.370 . S
C1033 C1037 1.408 . S
C1034 C1032 1.363 . S
C1034 C1035 1.370 . S
C1034 C1038 1.524 . S
C1035 C1027 1.503 . S
C1035 C1034 1.370 . S
C1035 C1036 1.403 . S
C1036 C1035 1.403 . S
C1036 C1037 1.404 . S
C1036 C1039 1.539 . S
C1037 C1033 1.408 . S
C1037 C1036 1.404 . S
C1037 H1049 0.930 . S
C1038 C1034 1.524 . S
C1038 H1050 0.956 . S
C1038 H1051 0.961 . S
C1038 H1052 0.961 . S
C1039 C1036 1.539 . S
C1039 H1053 0.958 . S
C1039 H1054 0.961 . S
C1039 H1055 0.960 . S
H1040 C1024 0.931 . S
H1041 C1029 0.929 . S
H1042 C1030 0.960 . S
H1043 C1030 0.962 . S
H1044 C1030 0.960 . S
H1045 C1031 0.961 . S
H1046 C1031 0.961 . S
H1047 C1031 0.961 . S
H1048 C1032 0.931 . S
H1049 C1037 0.930 . S
H1050 C1038 0.956 . S
H1051 C1038 0.961 . S
H1052 C1038 0.961 . S
H1053 C1039 0.958 . S
H1054 C1039 0.961 . S
H1055 C1039 0.960 . S
C1056 C1057 1.391 . S
C1056 C1058 1.394 . S
C1056 H1072 0.931 . S
C1057 C1056 1.391 . S
C1057 C1061 1.376 . S
C1058 C1056 1.394 . S
C1058 C1059 1.369 . S
C1058 C1062 1.531 . S
C1059 C1058 1.369 . S
C1059 C1060 1.410 . S
C1059 C1067 1.503 . S
C1060 C1059 1.410 . S
C1060 C1061 1.392 . S
C1060 C1063 1.511 . S
C1061 C1057 1.376 . S
C1061 C1060 1.392 . S
C1061 H1073 0.929 . S
C1062 C1058 1.531 . S
C1062 H1074 0.960 . S
C1062 H1075 0.962 . S
C1062 H1076 0.960 . S
C1063 C1060 1.511 . S
C1063 H1077 0.961 . S
C1063 H1078 0.961 . S
C1063 H1079 0.961 . S
C1064 C1065 1.370 . S
C1064 C1066 1.363 . S
C1064 H1080 0.931 . S
C1065 C1064 1.370 . S
C1065 C1069 1.408 . S
C1066 C1064 1.363 . S
C1066 C1067 1.370 . S
C1066 C1070 1.524 . S
C1067 C1059 1.503 . S
C1067 C1066 1.370 . S
C1067 C1068 1.403 . S
C1068 C1067 1.403 . S
C1068 C1069 1.404 . S
C1068 C1071 1.539 . S
C1069 C1065 1.408 . S
C1069 C1068 1.404 . S
C1069 H1081 0.930 . S
C1070 C1066 1.524 . S
C1070 H1082 0.956 . S
C1070 H1083 0.961 . S
C1070 H1084 0.961 . S
C1071 C1068 1.539 . S
C1071 H1085 0.958 . S
C1071 H1086 0.961 . S
C1071 H1087 0.960 . S
H1072 C1056 0.931 . S
H1073 C1061 0.929 . S
H1074 C1062 0.960 . S
H1075 C1062 0.962 . S
H1076 C1062 0.960 . S
H1077 C1063 0.961 . S
H1078 C1063 0.961 . S
H1079 C1063 0.961 . S
H1080 C1064 0.931 . S
H1081 C1069 0.930 . S
H1082 C1070 0.956 . S
H1083 C1070 0.961 . S
H1084 C1070 0.961 . S
H1085 C1071 0.958 . S
H1086 C1071 0.961 . S
H1087 C1071 0.960 . S
C321 C6 1.672 . S
C329 C295 1.673 . S
C353 C255 1.680 . S
C361 C46 1.671 . S
C385 C206 1.681 . S
C393 C95 1.670 . S
C417 C166 1.680 . S
C425 C135 1.670 . S
C449 C89 1.539 . S
C457 C9 1.573 . S
C481 C49 1.559 . S
C489 C129 1.555 . S
C513 C138 1.592 . S
C521 C58 1.539 . S
C545 C98 1.543 . S
C553 C18 1.565 . S
C577 C169 1.423 . S
C585 C249 1.443 . S
C609 C209 1.441 1_554 S
C617 C289 1.442 . S
C641 C298 1.425 1_556 S
C649 C218 1.451 . S
C673 C258 1.421 1_556 S
C681 C178 1.452 . S
C705 C19 2.067 . S
C713 C10 2.054 . S
C737 C59 2.037 . S
C745 C50 2.069 . S
C769 C99 2.034 . S
C777 C90 2.070 . S
C801 C130 2.065 . S
C809 C139 2.055 . S
C833 C170 2.049 . S
C841 C179 2.064 . S
C865 C219 2.068 . S
C873 C210 2.053 . S
C897 C250 2.071 . S
C905 C259 2.052 . S
C929 C290 2.058 . S
C937 C299 2.060 . S
C961 C15 2.289 . S
C969 C55 2.304 . S
C993 C126 2.291 . S
C1001 C86 2.305 . S
C1025 C175 2.306 . S
C1033 C215 2.310 . S
C1057 C286 2.314 . S
C1065 C246 2.315 . S
