# Generated by pormake.
# Topology zfe, (5)-cn, num edge types: 1
# Building blocks:
#     Node 0, Type 0, BuildingBlock: BEQFEK_clean_sbu_0, # of connection points: 5
#     Node 1, Type 0, BuildingBlock: BEQFEK_clean_sbu_0, # of connection points: 5
#     Node 2, Type 0, BuildingBlock: BEQFEK_clean_sbu_0, # of connection points: 5
#     Node 3, Type 0, BuildingBlock: BEQFEK_clean_sbu_0, # of connection points: 5
#     Node 4, Type 0, BuildingBlock: BEQFEK_clean_sbu_0, # of connection points: 5
#     Node 5, Type 0, BuildingBlock: BEQFEK_clean_sbu_0, # of connection points: 5
#     Node 6, Type 0, BuildingBlock: BEQFEK_clean_sbu_0, # of connection points: 5
#     Node 7, Type 0, BuildingBlock: BEQFEK_clean_sbu_0, # of connection points: 5
#     Node 8, Type 0, BuildingBlock: BEQFEK_clean_sbu_0, # of connection points: 5
#     Node 9, Type 0, BuildingBlock: BEQFEK_clean_sbu_0, # of connection points: 5
#     Node 10, Type 0, BuildingBlock: BEQFEK_clean_sbu_0, # of connection points: 5
#     Node 11, Type 0, BuildingBlock: BEQFEK_clean_sbu_0, # of connection points: 5
#     Node 12, Type 0, BuildingBlock: BEQFEK_clean_sbu_0, # of connection points: 5
#     Node 13, Type 0, BuildingBlock: BEQFEK_clean_sbu_0, # of connection points: 5
#     Node 14, Type 0, BuildingBlock: BEQFEK_clean_sbu_0, # of connection points: 5
#     Node 15, Type 0, BuildingBlock: BEQFEK_clean_sbu_0, # of connection points: 5
#     Edge 16, Type (0, 0), BuildingBlock: CIFDUS_clean_linker_0, # of connection points: 2
#     Edge 17, Type (0, 0), BuildingBlock: CIFDUS_clean_linker_0, # of connection points: 2
#     Edge 18, Type (0, 0), BuildingBlock: CIFDUS_clean_linker_0, # of connection points: 2
#     Edge 19, Type (0, 0), BuildingBlock: CIFDUS_clean_linker_0, # of connection points: 2
#     Edge 20, Type (0, 0), BuildingBlock: CIFDUS_clean_linker_0, # of connection points: 2
#     Edge 21, Type (0, 0), BuildingBlock: CIFDUS_clean_linker_0, # of connection points: 2
#     Edge 22, Type (0, 0), BuildingBlock: CIFDUS_clean_linker_0, # of connection points: 2
#     Edge 23, Type (0, 0), BuildingBlock: CIFDUS_clean_linker_0, # of connection points: 2
#     Edge 24, Type (0, 0), BuildingBlock: CIFDUS_clean_linker_0, # of connection points: 2
#     Edge 25, Type (0, 0), BuildingBlock: CIFDUS_clean_linker_0, # of connection points: 2
#     Edge 26, Type (0, 0), BuildingBlock: CIFDUS_clean_linker_0, # of connection points: 2
#     Edge 27, Type (0, 0), BuildingBlock: CIFDUS_clean_linker_0, # of connection points: 2
#     Edge 28, Type (0, 0), BuildingBlock: CIFDUS_clean_linker_0, # of connection points: 2
#     Edge 29, Type (0, 0), BuildingBlock: CIFDUS_clean_linker_0, # of connection points: 2
#     Edge 30, Type (0, 0), BuildingBlock: CIFDUS_clean_linker_0, # of connection points: 2
#     Edge 31, Type (0, 0), BuildingBlock: CIFDUS_clean_linker_0, # of connection points: 2
#     Edge 32, Type (0, 0), BuildingBlock: CIFDUS_clean_linker_0, # of connection points: 2
#     Edge 33, Type (0, 0), BuildingBlock: CIFDUS_clean_linker_0, # of connection points: 2
#     Edge 34, Type (0, 0), BuildingBlock: CIFDUS_clean_linker_0, # of connection points: 2
#     Edge 35, Type (0, 0), BuildingBlock: CIFDUS_clean_linker_0, # of connection points: 2
#     Edge 36, Type (0, 0), BuildingBlock: CIFDUS_clean_linker_0, # of connection points: 2
#     Edge 37, Type (0, 0), BuildingBlock: CIFDUS_clean_linker_0, # of connection points: 2
#     Edge 38, Type (0, 0), BuildingBlock: CIFDUS_clean_linker_0, # of connection points: 2
#     Edge 39, Type (0, 0), BuildingBlock: CIFDUS_clean_linker_0, # of connection points: 2
#     Edge 40, Type (0, 0), BuildingBlock: CIFDUS_clean_linker_0, # of connection points: 2
#     Edge 41, Type (0, 0), BuildingBlock: CIFDUS_clean_linker_0, # of connection points: 2
#     Edge 42, Type (0, 0), BuildingBlock: CIFDUS_clean_linker_0, # of connection points: 2
#     Edge 43, Type (0, 0), BuildingBlock: CIFDUS_clean_linker_0, # of connection points: 2
#     Edge 44, Type (0, 0), BuildingBlock: CIFDUS_clean_linker_0, # of connection points: 2
#     Edge 45, Type (0, 0), BuildingBlock: CIFDUS_clean_linker_0, # of connection points: 2
#     Edge 46, Type (0, 0), BuildingBlock: CIFDUS_clean_linker_0, # of connection points: 2
#     Edge 47, Type (0, 0), BuildingBlock: CIFDUS_clean_linker_0, # of connection points: 2
#     Edge 48, Type (0, 0), BuildingBlock: CIFDUS_clean_linker_0, # of connection points: 2
#     Edge 49, Type (0, 0), BuildingBlock: CIFDUS_clean_linker_0, # of connection points: 2
#     Edge 50, Type (0, 0), BuildingBlock: CIFDUS_clean_linker_0, # of connection points: 2
#     Edge 51, Type (0, 0), BuildingBlock: CIFDUS_clean_linker_0, # of connection points: 2
#     Edge 52, Type (0, 0), BuildingBlock: CIFDUS_clean_linker_0, # of connection points: 2
#     Edge 53, Type (0, 0), BuildingBlock: CIFDUS_clean_linker_0, # of connection points: 2
#     Edge 54, Type (0, 0), BuildingBlock: CIFDUS_clean_linker_0, # of connection points: 2
#     Edge 55, Type (0, 0), BuildingBlock: CIFDUS_clean_linker_0, # of connection points: 2
# Relax obj value: 0.096
# Max RMSD: 0.099
# Mean RMSD: 0.099
data_MOF--net-zfe--node1-BEQFEK_clean_sbu_0--edge1-CIFDUS_clean_linker_0
_symmetry_space_group_name_H-M    P1
_symmetry_Int_Tables_number       1
_symmetry_cell_setting            triclinic
loop_
_symmetry_equiv_pos_as_xyz
'x, y, z'
_cell_length_a     50.300952
_cell_length_b     50.342396
_cell_length_c     27.026919
_cell_angle_alpha  90.138391
_cell_angle_beta   89.859244
_cell_angle_gamma 89.841379
loop_
_atom_site_label
_atom_site_type_symbol
_atom_site_fract_x
_atom_site_fract_y
_atom_site_fract_z
_atom_type_partial_charge
Co0 Co 0.00587 0.18901 0.06461 0.0
Co1 Co 0.05764 0.22294 0.06625 0.0
C2 C 0.01763 0.22711 0.14826 0.0
O3 O 0.00342 0.20993 0.12615 0.0
O4 O 0.03991 0.23466 0.13033 0.0
C5 C 0.94989 0.17832 0.07204 0.0
O6 O 0.94807 0.20251 0.09009 0.0
C7 C 0.10045 0.26471 0.0648 0.0
C8 C 0.13163 0.24122 0.02675 0.0
C9 C 0.12671 0.26562 0.04854 0.0
N10 N 0.09046 0.24068 0.05311 0.0
N11 N 0.10923 0.22697 0.03006 0.0
C12 C 0.08571 0.28559 0.09321 0.0
H13 H 0.06835 0.27694 0.11263 0.0
H14 H 0.07842 0.30091 0.06706 0.0
H15 H 0.09911 0.29541 0.12017 0.0
C16 C 0.00042 0.21374 0.9661 0.0
N17 N 0.01262 0.21145 0.0101 0.0
N18 N 0.03458 0.22559 0.00981 0.0
C19 C 0.03731 0.23697 0.96482 0.0
C20 C 0.01575 0.2297 0.93532 0.0
C21 C 0.97469 0.20039 0.95385 0.0
H22 H 0.97784 0.17858 0.95211 0.0
H23 H 0.96003 0.20455 0.98354 0.0
H24 H 0.96635 0.2075 0.9183 0.0
O25 O 0.03356 0.16092 0.06906 0.0
O26 O 0.06971 0.1856 0.07295 0.0
H27 H 0.07892 0.23738 0.94936 0.0
H28 H 0.06013 0.25952 0.91089 0.0
C29 C 0.06186 0.25135 0.94873 0.0
H30 H 0.06607 0.2677 0.97511 0.0
H31 H 0.10688 0.20758 0.01711 0.0
O32 O 0.97227 0.16961 0.05729 0.0
C33 C 0.05867 0.16294 0.07241 0.0
Co34 Co 0.81954 0.00903 0.06579 0.0
Co35 Co 0.78194 0.05869 0.06145 0.0
C36 C 0.78071 0.0233 0.14855 0.0
O37 O 0.79829 0.00824 0.12878 0.0
O38 O 0.77202 0.04395 0.12661 0.0
C39 C 0.83606 0.95254 0.06261 0.0
O40 O 0.81096 0.94577 0.06716 0.0
C41 C 0.74043 0.1015 0.06013 0.0
C42 C 0.75892 0.1273 1.00354 0.0
C43 C 0.73746 0.12552 0.03538 0.0
N44 N 0.76271 0.08968 0.04319 0.0
N45 N 0.77351 0.10522 0.00937 0.0
C46 C 0.72388 0.09102 0.10174 0.0
H47 H 0.73685 0.08205 0.13034 0.0
H48 H 0.71066 0.07521 0.0873 0.0
H49 H 0.71155 0.10691 0.11878 0.0
C50 C 0.79878 0.00306 0.96328 0.0
N51 N 0.79787 0.01374 0.00906 0.0
N52 N 0.78032 0.03317 0.0096 0.0
C53 C 0.76857 0.0346 0.96498 0.0
C54 C 0.78027 0.01605 0.93356 0.0
C55 C 0.81982 0.98386 0.94678 0.0
H56 H 0.83838 0.98715 0.96794 0.0
H57 H 0.81288 0.96333 0.95395 0.0
H58 H 0.82419 0.98591 0.90673 0.0
O59 O 0.84537 0.03817 0.06869 0.0
O60 O 0.81836 0.07283 0.06644 0.0
H61 H 0.75499 0.07259 0.93989 0.0
H62 H 0.73404 0.04532 0.92229 0.0
C63 C 0.74653 0.05347 0.95251 0.0
H64 H 0.73395 0.0572 0.98558 0.0
H65 H 0.79124 0.10091 0.99086 0.0
O66 O 0.84229 0.97694 0.06104 0.0
C67 C 0.84163 0.06311 0.06857 0.0
Co68 Co 0.99142 0.81247 0.06177 0.0
Co69 Co 0.94776 0.76858 0.04943 0.0
C70 C 0.979 0.77158 0.14165 0.0
O71 O 0.9918 0.7912 0.12389 0.0
O72 O 0.96078 0.76 0.11703 0.0
C73 C 0.04612 0.8257 0.07015 0.0
O74 O 0.04854 0.79978 0.07376 0.0
C75 C 0.91058 0.72214 0.04235 0.0
C76 C 0.88868 0.73441 0.9753 0.0
C77 C 0.89003 0.7147 0.0108 0.0
N78 N 0.92097 0.74507 0.02554 0.0
N79 N 0.90769 0.75219 0.98558 0.0
C80 C 0.91856 0.70915 0.08979 0.0
H81 H 0.92586 0.72416 0.11647 0.0
H82 H 0.93487 0.69482 0.0822 0.0
H83 H 0.90162 0.69831 0.10655 0.0
C84 C 0.00624 0.79239 0.96209 0.0
N85 N 0.99245 0.79053 0.00477 0.0
N86 N 0.97572 0.77058 1.00166 0.0
C87 C 0.9792 0.75835 0.95762 0.0
C88 C 0.99832 0.77201 0.93056 0.0
C89 C 0.02375 0.81542 0.94942 0.0
H90 H 0.01729 0.83343 0.96988 0.0
H91 H 0.0445 0.81064 0.96014 0.0
H92 H 0.02333 0.81965 0.90917 0.0
O93 O 0.95907 0.83494 0.06032 0.0
O94 O 0.92882 0.80323 0.05312 0.0
H95 H 0.94627 0.73927 0.92247 0.0
H96 H 0.9773 0.72195 0.91578 0.0
C97 C 0.96487 0.73374 0.94181 0.0
H98 H 0.95985 0.72141 0.97445 0.0
H99 H 0.91141 0.76954 0.96569 0.0
O100 O 0.02312 0.83572 0.06418 0.0
C101 C 0.9349 0.82768 0.05694 0.0
Co102 Co 0.18054 0.99209 0.0656 0.0
Co103 Co 0.2183 0.94187 0.06396 0.0
C104 C 0.22126 0.98124 0.14592 0.0
O105 O 0.20323 0.99508 0.12517 0.0
O106 O 0.2294 0.95934 0.1273 0.0
C107 C 0.16936 0.04828 0.06654 0.0
O108 O 0.19509 0.05028 0.07385 0.0
C109 C 0.26527 0.90519 0.05676 0.0
C110 C 0.24826 0.8744 0.00781 0.0
C111 C 0.27145 0.88192 0.0313 0.0
N112 N 0.2396 0.9113 0.04791 0.0
N113 N 0.22955 0.89252 0.01929 0.0
C114 C 0.28389 0.92244 0.08534 0.0
H115 H 0.27726 0.94347 0.08384 0.0
H116 H 0.30446 0.92057 0.07075 0.0
H117 H 0.28385 0.91601 0.12459 0.0
C118 C 0.20043 0.99628 0.96292 0.0
N119 N 0.20146 0.98579 0.00867 0.0
N120 N 0.21859 0.96595 0.00904 0.0
C121 C 0.22968 0.96386 0.96369 0.0
C122 C 0.21825 0.98265 0.93267 0.0
C123 C 0.18005 0.01629 0.94728 0.0
H124 H 0.16121 0.01304 0.96776 0.0
H125 H 0.18738 0.03649 0.95629 0.0
H126 H 0.17604 0.01514 0.907 0.0
O127 O 0.15504 0.96278 0.07314 0.0
O128 O 0.18157 0.92751 0.07188 0.0
H129 H 0.24121 0.92455 0.94247 0.0
H130 H 0.26147 0.95032 0.91596 0.0
C131 C 0.25063 0.94404 0.94977 0.0
H132 H 0.26505 0.94188 0.98039 0.0
H133 H 0.21007 0.8926 0.00612 0.0
O134 O 0.15923 0.02538 0.06066 0.0
C135 C 0.1584 0.93774 0.07464 0.0
Co136 Co 0.00416 0.81262 0.50539 0.0
Co137 Co 0.05478 0.77734 0.51419 0.0
C138 C 0.02146 0.77653 0.42261 0.0
O139 O 0.0048 0.79261 0.44188 0.0
O140 O 0.04212 0.7691 0.44601 0.0
C141 C 0.94779 0.82285 0.50054 0.0
O142 O 0.94554 0.79719 0.4927 0.0
C143 C 0.09039 0.73108 0.51223 0.0
C144 C 0.12089 0.74301 0.56663 0.0
C145 C 0.11369 0.72271 0.53474 0.0
N146 N 0.08414 0.75523 0.53006 0.0
N147 N 0.10247 0.76228 0.56243 0.0
C148 C 0.07338 0.71593 0.47674 0.0
H149 H 0.0521 0.72061 0.48347 0.0
H150 H 0.07668 0.69422 0.48035 0.0
H151 H 0.07839 0.72205 0.43843 0.0
C152 C 0.99384 0.78941 0.60437 0.0
N153 N 0.00727 0.79015 0.56119 0.0
N154 N 0.02783 0.77402 0.56366 0.0
C155 C 0.02765 0.76183 0.60809 0.0
C156 C 0.00626 0.77136 0.6357 0.0
C157 C 0.97225 0.80869 0.61788 0.0
H158 H 0.97612 0.82822 0.60052 0.0
H159 H 0.95298 0.80108 0.60394 0.0
H160 H 0.97073 0.81151 0.65849 0.0
O161 O 0.033 0.83926 0.50663 0.0
O162 O 0.06893 0.81407 0.51483 0.0
H163 H 0.06619 0.75265 0.63643 0.0
H164 H 0.04052 0.72998 0.65588 0.0
C165 C 0.04801 0.74203 0.62448 0.0
H166 H 0.05322 0.72859 0.59339 0.0
H167 H 0.10233 0.78026 0.58179 0.0
O168 O 0.97065 0.83283 0.5073 0.0
C169 C 0.05807 0.83685 0.51121 0.0
Co170 Co 0.17972 0.00647 0.51056 0.0
Co171 Co 0.22302 0.05105 0.50989 0.0
C172 C 0.22238 0.0113 0.43012 0.0
O173 O 0.20235 0.00063 0.451 0.0
O174 O 0.23354 0.03186 0.44824 0.0
C175 C 0.16742 0.9517 0.51715 0.0
O176 O 0.19345 0.94958 0.51516 0.0
C177 C 0.27172 0.08463 0.51708 0.0
C178 C 0.25644 0.11557 0.56811 0.0
C179 C 0.27907 0.10716 0.54345 0.0
N180 N 0.24592 0.07976 0.52658 0.0
N181 N 0.23691 0.09854 0.55654 0.0
C182 C 0.28924 0.06691 0.48672 0.0
H183 H 0.28209 0.0461 0.48863 0.0
H184 H 0.31017 0.06806 0.49951 0.0
H185 H 0.28843 0.07342 0.44756 0.0
C186 C 0.19859 0.00129 0.61382 0.0
N187 N 0.20076 0.011 0.56758 0.0
N188 N 0.22043 0.02813 0.56593 0.0
C189 C 0.23209 0.02907 0.61079 0.0
C190 C 0.2184 0.01248 0.64293 0.0
C191 C 0.17586 0.98451 0.63101 0.0
H192 H 0.15788 0.9887 0.60868 0.0
H193 H 0.18122 0.96325 0.62631 0.0
H194 H 0.1713 0.98818 0.67063 0.0
O195 O 0.15681 0.03803 0.50151 0.0
O196 O 0.18823 0.0688 0.4984 0.0
H197 H 0.24986 0.06592 0.6319 0.0
H198 H 0.26677 0.03703 0.65523 0.0
C199 C 0.25608 0.04534 0.62285 0.0
H200 H 0.26978 0.04574 0.59072 0.0
H201 H 0.21753 0.09925 0.57034 0.0
O202 O 0.15691 0.97468 0.51665 0.0
C203 C 0.16385 0.06216 0.49663 0.0
Co204 Co 0.98835 0.18575 0.50756 0.0
Co205 Co 0.9453 0.23109 0.51687 0.0
C206 C 0.98348 0.22929 0.43123 0.0
O207 O 0.99401 0.20846 0.44933 0.0
O208 O 0.9638 0.2409 0.45238 0.0
C209 C 0.04003 0.16191 0.49176 0.0
O210 O 0.04612 0.18492 0.47197 0.0
C211 C 0.91143 0.28078 0.5229 0.0
C212 C 0.88443 0.26837 0.58318 0.0
C213 C 0.8901 0.28929 0.55192 0.0
N214 N 0.91827 0.25603 0.53722 0.0
N215 N 0.90172 0.24876 0.57275 0.0
C216 C 0.92524 0.29593 0.48299 0.0
H217 H 0.94685 0.29145 0.48352 0.0
H218 H 0.92187 0.31762 0.48733 0.0
H219 H 0.91729 0.28955 0.4466 0.0
C220 C 0.00132 0.20345 0.60816 0.0
N221 N 0.98799 0.20661 0.56552 0.0
N222 N 0.97032 0.22579 0.57056 0.0
C223 C 0.97206 0.23546 0.6173 0.0
C224 C 0.99147 0.22127 0.64299 0.0
C225 C 0.02243 0.18284 0.61578 0.0
H226 H 0.03784 0.18496 0.5867 0.0
H227 H 0.03212 0.18484 0.65241 0.0
H228 H 0.01355 0.16277 0.6122 0.0
O229 O 0.95476 0.16577 0.50219 0.0
O230 O 0.92457 0.19778 0.50654 0.0
H231 H 0.93518 0.2459 0.65147 0.0
H232 H 0.96252 0.26599 0.67104 0.0
C233 C 0.95361 0.25583 0.63877 0.0
H234 H 0.94856 0.27092 0.61054 0.0
H235 H 0.90232 0.23027 0.59009 0.0
O236 O 0.0169 0.1585 0.50963 0.0
C237 C 0.93062 0.17332 0.50219 0.0
Co238 Co 0.8161 0.99187 0.50949 0.0
Co239 Co 0.7778 0.9427 0.51635 0.0
C240 C 0.77758 0.97739 0.42754 0.0
O241 O 0.79495 0.99255 0.44712 0.0
O242 O 0.76878 0.95692 0.44993 0.0
C243 C 0.83312 0.04783 0.50314 0.0
O244 O 0.80866 0.05378 0.4902 0.0
C245 C 0.73064 0.90728 0.52516 0.0
C246 C 0.74623 0.87845 0.57956 0.0
C247 C 0.72371 0.8853 0.55328 0.0
N248 N 0.75609 0.9134 0.53522 0.0
N249 N 0.76533 0.89581 0.56713 0.0
C250 C 0.71294 0.92336 0.49243 0.0
H251 H 0.71951 0.94439 0.492 0.0
H252 H 0.69194 0.92208 0.50491 0.0
H253 H 0.71427 0.91544 0.45416 0.0
C254 C 0.79615 0.99933 0.61175 0.0
N255 N 0.79452 0.9882 0.56644 0.0
N256 N 0.77678 0.96905 0.56735 0.0
C257 C 0.76558 0.96832 0.61269 0.0
C258 C 0.77791 0.98694 0.64287 0.0
C259 C 0.81771 0.01822 0.62637 0.0
H260 H 0.83634 0.01325 0.60636 0.0
H261 H 0.81171 0.03866 0.61583 0.0
H262 H 0.82157 0.0177 0.66673 0.0
O263 O 0.84102 0.96179 0.50685 0.0
O264 O 0.81406 0.92719 0.51231 0.0
H265 H 0.75205 0.93036 0.63753 0.0
H266 H 0.73255 0.9579 0.65983 0.0
C267 C 0.74362 0.94995 0.62741 0.0
H268 H 0.72961 0.94736 0.59623 0.0
H269 H 0.78452 0.89621 0.58173 0.0
O270 O 0.83911 0.02387 0.51295 0.0
C271 C 0.83732 0.93685 0.50864 0.0
Co272 Co 0.50006 0.69156 0.56334 0.0
Co273 Co 0.55123 0.72651 0.56311 0.0
C274 C 0.51156 0.73048 0.64544 0.0
O275 O 0.49743 0.71295 0.62413 0.0
O276 O 0.53367 0.73815 0.62696 0.0
C277 C 0.444 0.67967 0.56925 0.0
O278 O 0.44129 0.70387 0.58687 0.0
C279 C 0.5886 0.77214 0.55492 0.0
C280 C 0.62086 0.75283 0.51208 0.0
C281 C 0.61274 0.77692 0.53164 0.0
N282 N 0.58252 0.74634 0.54852 0.0
N283 N 0.60212 0.73491 0.5236 0.0
C284 C 0.57071 0.79203 0.5792 0.0
H285 H 0.54975 0.78522 0.57774 0.0
H286 H 0.57267 0.81172 0.56115 0.0
H287 H 0.57656 0.79416 0.61857 0.0
C288 C 0.49353 0.71535 0.46459 0.0
N289 N 0.50605 0.71362 0.50838 0.0
N290 N 0.52753 0.72847 0.50754 0.0
C291 C 0.52943 0.74003 0.46256 0.0
C292 C 0.50798 0.73198 0.43376 0.0
C293 C 0.46865 0.70053 0.45223 0.0
H294 H 0.45311 0.7055 0.47988 0.0
H295 H 0.46102 0.70569 0.415 0.0
H296 H 0.47254 0.67886 0.45427 0.0
O297 O 0.52857 0.66446 0.56838 0.0
O298 O 0.56462 0.68951 0.5702 0.0
H299 H 0.57086 0.74253 0.44604 0.0
H300 H 0.55062 0.76319 0.40733 0.0
C301 C 0.55306 0.75553 0.44541 0.0
H302 H 0.55639 0.77248 0.47084 0.0
H303 H 0.60225 0.71499 0.51287 0.0
O304 O 0.46685 0.6714 0.5562 0.0
C305 C 0.5537 0.66675 0.57096 0.0
Co306 Co 0.3204 0.50613 0.55803 0.0
Co307 Co 0.27966 0.55282 0.54862 0.0
C308 C 0.28191 0.51979 0.63996 0.0
O309 O 0.29995 0.50495 0.62133 0.0
O310 O 0.27229 0.53939 0.61619 0.0
C311 C 0.33962 0.45164 0.56292 0.0
O312 O 0.31476 0.44502 0.5712 0.0
C313 C 0.23208 0.58727 0.55146 0.0
C314 C 0.24131 0.61495 0.49042 0.0
C315 C 0.22254 0.60936 0.52643 0.0
N316 N 0.25543 0.58018 0.53102 0.0
N317 N 0.26083 0.59684 0.49468 0.0
C318 C 0.21899 0.5725 0.59279 0.0
H319 H 0.22265 0.55087 0.58849 0.0
H320 H 0.19727 0.57638 0.59368 0.0
H321 H 0.22782 0.57894 0.62844 0.0
C322 C 0.29831 0.49318 0.45909 0.0
N323 N 0.29784 0.50682 0.50206 0.0
N324 N 0.27945 0.5254 0.49972 0.0
C325 C 0.26686 0.52344 0.45587 0.0
C326 C 0.27863 0.50326 0.4282 0.0
C327 C 0.31975 0.47377 0.44549 0.0
H328 H 0.33881 0.47971 0.4627 0.0
H329 H 0.31427 0.45383 0.45957 0.0
H330 H 0.32261 0.47252 0.40486 0.0
O331 O 0.34334 0.5376 0.55708 0.0
O332 O 0.31465 0.57077 0.54954 0.0
H333 H 0.25181 0.55949 0.42491 0.0
H334 H 0.23194 0.53068 0.41165 0.0
C335 C 0.24406 0.54067 0.44043 0.0
H336 H 0.23127 0.54532 0.47278 0.0
H337 H 0.27802 0.59593 0.47299 0.0
O338 O 0.34545 0.47586 0.55607 0.0
C339 C 0.33838 0.56226 0.55321 0.0
Co340 Co 0.49359 0.30929 0.56516 0.0
Co341 Co 0.44815 0.26697 0.55209 0.0
C342 C 0.47918 0.26899 0.6448 0.0
O343 O 0.49295 0.28811 0.62751 0.0
O344 O 0.46062 0.25819 0.6198 0.0
C345 C 0.54813 0.32483 0.58014 0.0
O346 O 0.55119 0.29977 0.5924 0.0
C347 C 0.41399 0.219 0.54071 0.0
C348 C 0.38767 0.23305 0.48071 0.0
C349 C 0.39321 0.2113 0.51011 0.0
N350 N 0.42066 0.2441 0.52914 0.0
N351 N 0.40461 0.2524 0.4937 0.0
C352 C 0.42828 0.2025 0.57813 0.0
H353 H 0.44953 0.20832 0.57973 0.0
H354 H 0.42656 0.18104 0.56923 0.0
H355 H 0.41932 0.20614 0.6151 0.0
C356 C 0.50919 0.28719 0.4672 0.0
N357 N 0.49448 0.28662 0.50892 0.0
N358 N 0.47637 0.26792 0.50484 0.0
C359 C 0.47947 0.25555 0.46084 0.0
C360 C 0.50012 0.26758 0.43512 0.0
C361 C 0.53053 0.30718 0.45739 0.0
H362 H 0.54704 0.30392 0.48377 0.0
H363 H 0.53859 0.3055 0.41929 0.0
H364 H 0.52258 0.32749 0.46374 0.0
O365 O 0.46153 0.33254 0.56285 0.0
O366 O 0.43038 0.30179 0.55545 0.0
H367 H 0.44267 0.245 0.42695 0.0
H368 H 0.46959 0.22344 0.41034 0.0
C369 C 0.46077 0.23502 0.44111 0.0
H370 H 0.45521 0.22103 0.4709 0.0
H371 H 0.40558 0.27122 0.4777 0.0
O372 O 0.5253 0.33297 0.56675 0.0
C373 C 0.43716 0.32599 0.55932 0.0
Co374 Co 0.67709 0.49667 0.56457 0.0
Co375 Co 0.71562 0.44714 0.55522 0.0
C376 C 0.7197 0.48534 0.63997 0.0
O377 O 0.70062 0.49894 0.62232 0.0
O378 O 0.72799 0.46415 0.61879 0.0
C379 C 0.66413 0.55196 0.57701 0.0
O380 O 0.68917 0.55359 0.59036 0.0
C381 C 0.76421 0.41314 0.54247 0.0
C382 C 0.74714 0.38004 0.49926 0.0
C383 C 0.77075 0.38939 0.51879 0.0
N384 N 0.73796 0.41764 0.53658 0.0
N385 N 0.72795 0.39756 0.5112 0.0
C386 C 0.78272 0.43206 0.5674 0.0
H387 H 0.77492 0.45266 0.5647 0.0
H388 H 0.80289 0.43084 0.55076 0.0
H389 H 0.78417 0.42678 0.60714 0.0
C390 C 0.69607 0.50577 0.46312 0.0
N391 N 0.69755 0.49279 0.50644 0.0
N392 N 0.71356 0.47219 0.50165 0.0
C393 C 0.72257 0.47136 0.4545 0.0
C394 C 0.71159 0.49252 0.42839 0.0
C395 C 0.67877 0.52958 0.45468 0.0
H396 H 0.65766 0.52411 0.46074 0.0
H397 H 0.684 0.54523 0.48182 0.0
H398 H 0.68131 0.53781 0.41695 0.0
O399 O 0.65243 0.46613 0.57074 0.0
O400 O 0.67968 0.43147 0.56576 0.0
H401 H 0.72549 0.43055 0.43363 0.0
H402 H 0.74439 0.45232 0.39457 0.0
C403 C 0.73805 0.4486 0.43319 0.0
H404 H 0.75589 0.44487 0.45615 0.0
H405 H 0.708 0.3961 0.50109 0.0
O406 O 0.65493 0.5296 0.56339 0.0
C407 C 0.65636 0.44111 0.57062 0.0
Co408 Co 0.50251 0.3118 0.00455 0.0
Co409 Co 0.5541 0.27728 0.01571 0.0
C410 C 0.51977 0.27313 0.92569 0.0
O411 O 0.50342 0.29016 0.94305 0.0
O412 O 0.54035 0.26603 0.94981 0.0
C413 C 0.4465 0.32453 0.99208 0.0
O414 O 0.44392 0.30007 0.97576 0.0
C415 C 0.5925 0.23242 0.0279 0.0
C416 C 0.6249 0.254 0.06555 0.0
C417 C 0.61784 0.22917 0.04783 0.0
N418 N 0.58515 0.25796 0.03407 0.0
N419 N 0.60466 0.27064 0.05656 0.0
C420 C 0.57601 0.21222 1.00148 0.0
H421 H 0.56016 0.22193 0.97959 0.0
H422 H 0.56642 0.19907 0.02911 0.0
H423 H 0.58868 0.19984 0.97682 0.0
C424 C 0.49344 0.29163 0.10567 0.0
N425 N 0.50645 0.29065 0.06213 0.0
N426 N 0.52833 0.27657 0.06745 0.0
C427 C 0.53024 0.2686 0.11496 0.0
C428 C 0.50823 0.27808 0.14106 0.0
C429 C 0.46827 0.30697 0.11379 0.0
H430 H 0.45368 0.3015 0.08488 0.0
H431 H 0.4594 0.3028 0.15057 0.0
H432 H 0.4724 0.32854 0.11042 0.0
O433 O 0.5312 0.33898 1.00259 0.0
O434 O 0.56706 0.31364 0.00886 0.0
H435 H 0.57144 0.27141 0.1326 0.0
H436 H 0.55315 0.25189 0.17601 0.0
C437 C 0.55507 0.25688 0.13638 0.0
H438 H 0.5605 0.23865 0.11556 0.0
H439 H 0.60419 0.29079 0.06569 0.0
O440 O 0.4691 0.33258 0.0065 0.0
C441 C 0.55635 0.33636 0.00448 0.0
Co442 Co 0.68257 0.50139 0.00657 0.0
Co443 Co 0.7193 0.55141 0.00581 0.0
C444 C 0.72186 0.51178 0.92399 0.0
O445 O 0.70378 0.49835 0.94537 0.0
O446 O 0.73043 0.53351 0.9424 0.0
C447 C 0.67032 0.44607 0.99937 0.0
O448 O 0.69485 0.44394 0.983 0.0
C449 C 0.76303 0.5919 0.00758 0.0
C450 C 0.74113 0.62438 0.04507 0.0
C451 C 0.76523 0.6181 0.02334 0.0
N452 N 0.73853 0.58319 0.01949 0.0
N453 N 0.72578 0.60269 0.04234 0.0
C454 C 0.78315 0.57616 0.97909 0.0
H455 H 0.77426 0.55778 0.96388 0.0
H456 H 0.79971 0.57062 0.0041 0.0
H457 H 0.79154 0.5884 0.94875 0.0
C458 C 0.7066 0.49486 0.10539 0.0
N459 N 0.70509 0.50706 0.06129 0.0
N460 N 0.72067 0.52802 0.06143 0.0
C461 C 0.73246 0.52995 0.10612 0.0
C462 C 0.72379 0.50904 0.13568 0.0
C463 C 0.69103 0.47056 0.1185 0.0
H464 H 0.69493 0.45488 0.09055 0.0
H465 H 0.69649 0.46272 0.15543 0.0
H466 H 0.66948 0.47528 0.11764 0.0
O467 O 0.65599 0.53032 1.00161 0.0
O468 O 0.68265 0.56506 0.99805 0.0
H469 H 0.73589 0.57123 0.12301 0.0
H470 H 0.75758 0.55053 0.1591 0.0
C471 C 0.74874 0.5533 0.12199 0.0
H472 H 0.76482 0.55674 0.09462 0.0
H473 H 0.70626 0.60138 0.0552 0.0
O474 O 0.66164 0.46859 0.01327 0.0
C475 C 0.65944 0.55523 0.99795 0.0
Co476 Co 0.49619 0.68608 0.00453 0.0
Co477 Co 0.44631 0.72374 0.01381 0.0
C478 C 0.48477 0.72871 0.92939 0.0
O479 O 0.49857 0.70984 0.94725 0.0
O480 O 0.46328 0.7366 0.95021 0.0
C481 C 0.55131 0.67178 0.99174 0.0
O482 O 0.55399 0.69651 0.9772 0.0
C483 C 0.40941 0.77038 0.02551 0.0
C484 C 0.37946 0.75232 0.07501 0.0
C485 C 0.38625 0.77582 0.05193 0.0
N486 N 0.41616 0.7448 0.03339 0.0
N487 N 0.39791 0.73415 0.06244 0.0
C488 C 0.42552 0.78937 0.99556 0.0
H489 H 0.44691 0.78402 0.99756 0.0
H490 H 0.4224 0.81009 0.00857 0.0
H491 H 0.4192 0.78803 0.95632 0.0
C492 C 0.50491 0.70455 0.10633 0.0
N493 N 0.49199 0.70607 0.06296 0.0
N494 N 0.47136 0.72205 0.06762 0.0
C495 C 0.4706 0.7312 0.11471 0.0
C496 C 0.49168 0.72014 0.14096 0.0
C497 C 0.52862 0.68714 0.11494 0.0
H498 H 0.54429 0.6921 0.08764 0.0
H499 H 0.53689 0.68978 0.15264 0.0
H500 H 0.52298 0.66606 0.10924 0.0
O501 O 0.46619 0.66119 0.99739 0.0
O502 O 0.43108 0.68768 1.00298 0.0
H503 H 0.43055 0.73413 0.14034 0.0
H504 H 0.45305 0.75557 0.17262 0.0
C505 C 0.44812 0.74714 0.13592 0.0
H506 H 0.443 0.7636 0.11051 0.0
H507 H 0.39838 0.7145 0.07463 0.0
O508 O 0.52866 0.66369 0.00609 0.0
C509 C 0.44113 0.66461 0.99764 0.0
Co510 Co 0.31785 0.49631 1.00234 0.0
Co511 Co 0.27931 0.44752 0.0138 0.0
C512 C 0.27948 0.4794 0.92172 0.0
O513 O 0.29707 0.49477 0.93982 0.0
O514 O 0.27033 0.45978 0.94607 0.0
C515 C 0.3287 0.55254 0.99596 0.0
O516 O 0.30277 0.55484 0.99187 0.0
C517 C 0.23378 0.40925 0.02309 0.0
C518 C 0.2505 0.38326 0.08106 0.0
C519 C 0.22831 0.38686 0.05158 0.0
N520 N 0.258 0.41841 0.03582 0.0
N521 N 0.26776 0.40271 0.07043 0.0
C522 C 0.21705 0.42091 0.98291 0.0
H523 H 0.22939 0.43231 0.95658 0.0
H524 H 0.20223 0.43463 0.99965 0.0
H525 H 0.20628 0.40506 0.96264 0.0
C526 C 0.29594 0.50821 0.10186 0.0
N527 N 0.29566 0.49459 0.05888 0.0
N528 N 0.27809 0.47535 0.06189 0.0
C529 C 0.26583 0.47683 0.10627 0.0
C530 C 0.27698 0.49742 0.13351 0.0
C531 C 0.31674 0.52828 0.1148 0.0
H532 H 0.33553 0.52375 0.09498 0.0
H533 H 0.30976 0.54827 0.10343 0.0
H534 H 0.32072 0.52858 0.15515 0.0
O535 O 0.34335 0.46645 1.00374 0.0
O536 O 0.31578 0.43234 0.01073 0.0
H537 H 0.25276 0.44005 0.13721 0.0
H538 H 0.23189 0.46804 0.15233 0.0
C539 C 0.24402 0.45868 0.12264 0.0
H540 H 0.23098 0.45378 0.09092 0.0
H541 H 0.28635 0.40528 0.08679 0.0
O542 O 0.33891 0.5296 1.00126 0.0
C543 C 0.33923 0.44158 0.00698 0.0
H544 H 0.12205 0.31968 0.03769 0.0
H545 H 0.17771 0.25731 0.07374 0.0
H546 H 0.21367 0.28942 0.07815 0.0
H547 H 0.2298 0.33446 0.06854 0.0
H548 H 0.17516 0.39784 0.03365 0.0
H549 H 0.13838 0.36612 0.03152 0.0
C550 C 0.14195 0.3133 0.04744 0.0
C551 C 0.14721 0.2862 0.0557 0.0
C552 C 0.16279 0.33192 0.04924 0.0
C553 C 0.1732 0.27806 0.06713 0.0
C554 C 0.1938 0.29638 0.06962 0.0
C555 C 0.20983 0.34145 0.06063 0.0
C556 C 0.20541 0.36839 0.05008 0.0
C557 C 0.18888 0.32325 0.06012 0.0
C558 C 0.17937 0.37707 0.04012 0.0
C559 C 0.15824 0.35896 0.03954 0.0
H560 H 0.68341 0.12137 0.04477 0.0
H561 H 0.74784 0.17775 0.04067 0.0
H562 H 0.71634 0.21448 0.04455 0.0
H563 H 0.67102 0.23061 0.04548 0.0
H564 H 0.60565 0.17537 0.05163 0.0
H565 H 0.63695 0.13814 0.04996 0.0
C566 C 0.69044 0.14171 0.04569 0.0
C567 C 0.71784 0.14694 0.0428 0.0
C568 C 0.67211 0.16287 0.04734 0.0
C569 C 0.7268 0.17332 0.04282 0.0
C570 C 0.70883 0.19431 0.04498 0.0
C571 C 0.66347 0.21045 0.04672 0.0
C572 C 0.63595 0.20589 0.04742 0.0
C573 C 0.6815 0.18931 0.0466 0.0
C574 C 0.62665 0.17959 0.04915 0.0
C575 C 0.6446 0.15824 0.0489 0.0
H576 H 0.81865 0.61232 0.03943 0.0
H577 H 0.75912 0.66762 0.98846 0.0
H578 H 0.7927 0.70205 0.9794 0.0
H579 H 0.83821 0.71703 0.98894 0.0
H580 H 0.89859 0.66301 0.04091 0.0
H581 H 0.86548 0.62748 0.04708 0.0
C582 C 0.81325 0.63178 0.02554 0.0
C583 C 0.78657 0.63746 0.01421 0.0
C584 C 0.83267 0.65175 0.02138 0.0
C585 C 0.77958 0.66289 0.99738 0.0
C586 C 0.79872 0.68257 0.99226 0.0
C587 C 0.8442 0.69745 1.00145 0.0
C588 C 0.87067 0.69277 0.01524 0.0
C589 C 0.8252 0.67731 0.0047 0.0
C590 C 0.87814 0.66731 0.03138 0.0
C591 C 0.85927 0.64693 0.03442 0.0
H592 H 0.3037 0.86517 0.10551 0.0
H593 H 0.29552 0.86566 0.94692 0.0
H594 H 0.33372 0.8358 0.93854 0.0
H595 H 0.36579 0.80506 0.97693 0.0
H596 H 0.37056 0.80079 0.13576 0.0
H597 H 0.33789 0.83668 0.14374 0.0
C598 C 0.31078 0.8592 0.0692 0.0
C599 C 0.29703 0.86761 0.02689 0.0
C600 C 0.33208 0.84113 0.06481 0.0
C601 C 0.30591 0.85936 0.97997 0.0
C602 C 0.32768 0.84226 0.97518 0.0
C603 C 0.36014 0.81257 0.01312 0.0
C604 C 0.37061 0.8006 0.05569 0.0
C605 C 0.34044 0.83236 0.01738 0.0
C606 C 0.36275 0.80991 0.10253 0.0
C607 C 0.34401 0.83032 0.10709 0.0
H608 H 0.13867 0.69259 0.60266 0.0
H609 H 0.12485 0.69943 0.4458 0.0
H610 H 0.15551 0.66268 0.42993 0.0
H611 H 0.18952 0.63166 0.4602 0.0
H612 H 0.20422 0.62554 0.61687 0.0
H613 H 0.16973 0.65865 0.63348 0.0
C614 C 0.14215 0.68572 0.5651 0.0
C615 C 0.12945 0.69848 0.52549 0.0
C616 C 0.15999 0.66478 0.55629 0.0
C617 C 0.134 0.68953 0.47696 0.0
C618 C 0.15173 0.6687 0.46784 0.0
C619 C 0.1848 0.63731 0.49799 0.0
C620 C 0.19914 0.62608 0.53727 0.0
C621 C 0.16525 0.6566 0.50714 0.0
C622 C 0.19302 0.63349 0.5861 0.0
C623 C 0.17352 0.65265 0.59557 0.0
H624 H 0.37319 0.18437 0.58837 0.0
H625 H 0.37802 0.18354 0.4292 0.0
H626 H 0.34562 0.14746 0.42556 0.0
H627 H 0.31133 0.12083 0.46721 0.0
H628 H 0.30372 0.12483 0.62588 0.0
H629 H 0.34198 0.15456 0.63051 0.0
C630 C 0.36775 0.17566 0.55309 0.0
C631 C 0.37798 0.18635 0.50915 0.0
C632 C 0.34835 0.15568 0.55125 0.0
C633 C 0.3703 0.17549 0.46348 0.0
C634 C 0.35174 0.15496 0.46138 0.0
C635 C 0.31861 0.12763 0.50278 0.0
C636 C 0.30494 0.1207 0.54613 0.0
C637 C 0.33995 0.14554 0.50494 0.0
C638 C 0.31405 0.13004 0.59205 0.0
C639 C 0.33583 0.14707 0.59469 0.0
H640 H 0.80743 0.3804 0.59103 0.0
H641 H 0.79131 0.36608 0.43677 0.0
H642 H 0.83007 0.33682 0.43097 0.0
H643 H 0.86509 0.31078 0.47248 0.0
H644 H 0.87839 0.32194 0.62846 0.0
H645 H 0.84483 0.35719 0.63089 0.0
C646 C 0.81289 0.37146 0.5559 0.0
C647 C 0.79666 0.37549 0.51433 0.0
C648 C 0.8347 0.35388 0.55329 0.0
C649 C 0.80354 0.36323 0.46929 0.0
C650 C 0.82567 0.34646 0.46596 0.0
C651 C 0.86114 0.32155 0.50653 0.0
C652 C 0.8743 0.31407 0.55011 0.0
C653 C 0.84095 0.34099 0.50806 0.0
C654 C 0.86857 0.32759 0.59441 0.0
C655 C 0.84928 0.34761 0.59587 0.0
H656 H 0.62929 0.80931 0.60519 0.0
H657 H 0.63053 0.79912 0.44696 0.0
H658 H 0.66233 0.83556 0.43871 0.0
H659 H 0.69441 0.86588 0.47764 0.0
H660 H 0.69693 0.8722 0.63651 0.0
H661 H 0.659 0.84213 0.64374 0.0
C662 C 0.63605 0.81566 0.56895 0.0
C663 C 0.62765 0.80187 0.52671 0.0
C664 C 0.65526 0.83574 0.56479 0.0
C665 C 0.63684 0.80966 0.47989 0.0
C666 C 0.65506 0.83037 0.4752 0.0
C667 C 0.6861 0.86116 0.51364 0.0
C668 C 0.69817 0.87119 0.55646 0.0
C669 C 0.6651 0.84294 0.51752 0.0
C670 C 0.68779 0.8646 0.6031 0.0
C671 C 0.6662 0.84738 0.60724 0.0
H672 H 0.11516 0.0505 0.06475 0.0
H673 H 0.18496 0.10014 0.07055 0.0
H674 H 0.15691 0.13974 0.07402 0.0
H675 H 0.11274 0.16034 0.07531 0.0
H676 H 0.04278 0.11088 0.07001 0.0
H677 H 0.0708 0.07119 0.06683 0.0
C678 C 0.12427 0.06998 0.06662 0.0
C679 C 0.15218 0.07229 0.06728 0.0
C680 C 0.108 0.09273 0.06898 0.0
C681 C 0.16357 0.09772 0.06997 0.0
C682 C 0.14754 0.12041 0.07202 0.0
C683 C 0.10353 0.1409 0.0737 0.0
C684 C 0.07561 0.1387 0.07298 0.0
C685 C 0.11974 0.11815 0.07166 0.0
C686 C 0.06417 0.11326 0.07074 0.0
C687 C 0.08019 0.09052 0.06878 0.0
H688 H 0.9501 0.12502 0.05999 0.0
H689 H 0.89752 0.19181 0.08343 0.0
H690 H 0.85926 0.1619 0.08455 0.0
H691 H 0.841 0.11682 0.07936 0.0
H692 H 0.8941 0.05008 0.05854 0.0
H693 H 0.93205 0.0801 0.05625 0.0
C694 C 0.93026 0.1331 0.06507 0.0
C695 C 0.9266 0.16059 0.07136 0.0
C696 C 0.90852 0.11581 0.06646 0.0
C697 C 0.90082 0.1707 0.07848 0.0
C698 C 0.87897 0.15362 0.07916 0.0
C699 C 0.86087 0.1088 0.07439 0.0
C700 C 0.86468 0.08123 0.06909 0.0
C701 C 0.88263 0.12614 0.07335 0.0
C702 C 0.89059 0.0712 0.06289 0.0
C703 C 0.9123 0.08835 0.0614 0.0
H704 H 0.93975 0.88161 0.05656 0.0
H705 H 0.88125 0.81899 0.05844 0.0
H706 H 0.84557 0.85186 0.05998 0.0
H707 H 0.8308 0.89851 0.06151 0.0
H708 H 0.88953 0.96091 0.05861 0.0
H709 H 0.92506 0.92803 0.05667 0.0
C710 C 0.91921 0.87511 0.05734 0.0
C711 C 0.9133 0.84782 0.05754 0.0
C712 C 0.89871 0.89411 0.05802 0.0
C713 C 0.88649 0.83984 0.05829 0.0
C714 C 0.866 0.85864 0.0592 0.0
C715 C 0.85136 0.90491 0.06039 0.0
C716 C 0.85739 0.93218 0.06035 0.0
C717 C 0.87186 0.88585 0.05916 0.0
C718 C 0.8842 0.94008 0.05872 0.0
C719 C 0.90462 0.92127 0.05765 0.0
H720 H 0.15735 0.88353 0.07565 0.0
H721 H 0.10613 0.95255 0.07855 0.0
H722 H 0.06709 0.92403 0.07762 0.0
H723 H 0.04734 0.87965 0.07395 0.0
H724 H 0.09831 0.81053 0.0716 0.0
H725 H 0.13751 0.83899 0.0743 0.0
C726 C 0.13766 0.89237 0.07637 0.0
C727 C 0.13478 0.9202 0.07707 0.0
C728 C 0.11519 0.87585 0.07569 0.0
C729 C 0.10904 0.93123 0.07799 0.0
C730 C 0.08664 0.91493 0.07735 0.0
C731 C 0.06701 0.87078 0.07404 0.0
C732 C 0.06985 0.84299 0.07239 0.0
C733 C 0.08947 0.88724 0.0758 0.0
C734 C 0.09552 0.83186 0.07283 0.0
C735 C 0.11798 0.84812 0.07436 0.0
H736 H 0.11346 0.94929 0.51315 0.0
H737 H 0.18358 0.9 0.52382 0.0
H738 H 0.15595 0.86021 0.52339 0.0
H739 H 0.11201 0.83939 0.51869 0.0
H740 H 0.04192 0.88873 0.50699 0.0
H741 H 0.0695 0.92848 0.50907 0.0
C742 C 0.12272 0.92986 0.51556 0.0
C743 C 0.15056 0.92766 0.51846 0.0
C744 C 0.10674 0.90704 0.51494 0.0
C745 C 0.1622 0.9023 0.52146 0.0
C746 C 0.14642 0.87951 0.52119 0.0
C747 C 0.10272 0.85881 0.51661 0.0
C748 C 0.07489 0.86098 0.51259 0.0
C749 C 0.11868 0.88164 0.51769 0.0
C750 C 0.06327 0.88639 0.50999 0.0
C751 C 0.07902 0.90918 0.51122 0.0
H752 H 0.09261 0.16442 0.46843 0.0
H753 H 0.03207 0.11052 0.52022 0.0
H754 H 0.06471 0.07465 0.52423 0.0
H755 H 0.11064 0.05871 0.51455 0.0
H756 H 0.17143 0.11309 0.46555 0.0
H757 H 0.13847 0.14851 0.45874 0.0
C758 C 0.08652 0.14481 0.48048 0.0
C759 C 0.05992 0.1402 0.49396 0.0
C760 C 0.10545 0.1243 0.48317 0.0
C761 C 0.05243 0.11468 0.50971 0.0
C762 C 0.07108 0.09411 0.51196 0.0
C763 C 0.11665 0.07825 0.50203 0.0
C764 C 0.14347 0.08318 0.49049 0.0
C765 C 0.09766 0.0987 0.49892 0.0
C766 C 0.15093 0.10872 0.47478 0.0
C767 C 0.1321 0.12903 0.47088 0.0
H768 H 0.82766 0.10146 0.48965 0.0
H769 H 0.88603 0.04057 0.51986 0.0
H770 H 0.9211 0.07375 0.52066 0.0
H771 H 0.93546 0.1199 0.51317 0.0
H772 H 0.87747 0.1814 0.48542 0.0
H773 H 0.84214 0.14814 0.48309 0.0
C774 C 0.84804 0.09545 0.49643 0.0
C775 C 0.8541 0.06849 0.50459 0.0
C776 C 0.86827 0.11474 0.49715 0.0
C777 C 0.88067 0.06113 0.5135 0.0
C778 C 0.90083 0.08011 0.51389 0.0
C779 C 0.91513 0.12608 0.50632 0.0
C780 C 0.90921 0.15314 0.49924 0.0
C781 C 0.89488 0.10694 0.5057 0.0
C782 C 0.88265 0.16072 0.49095 0.0
C783 C 0.86241 0.14171 0.48965 0.0
H784 H 0.9471 0.87651 0.50563 0.0
H785 H 0.89532 0.80839 0.49764 0.0
H786 H 0.85644 0.8377 0.49955 0.0
H787 H 0.83732 0.88271 0.50359 0.0
H788 H 0.88974 0.95049 0.51025 0.0
H789 H 0.92824 0.92111 0.50869 0.0
C790 C 0.92733 0.86799 0.50437 0.0
C791 C 0.92412 0.84029 0.5016 0.0
C792 C 0.90518 0.88489 0.50518 0.0
C793 C 0.89834 0.82966 0.49974 0.0
C794 C 0.87611 0.8464 0.50086 0.0
C795 C 0.85716 0.89108 0.50469 0.0
C796 C 0.86058 0.9188 0.50706 0.0
C797 C 0.87931 0.87405 0.50358 0.0
C798 C 0.88646 0.92926 0.50832 0.0
C799 C 0.90854 0.91247 0.5075 0.0
H800 H 0.6103 0.55438 0.56638 0.0
H801 H 0.67943 0.60355 0.58875 0.0
H802 H 0.65143 0.64322 0.58951 0.0
H803 H 0.60743 0.66406 0.58321 0.0
H804 H 0.5381 0.61488 0.56256 0.0
H805 H 0.56608 0.5752 0.56204 0.0
C806 C 0.61926 0.57378 0.57133 0.0
C807 C 0.64696 0.57595 0.57732 0.0
C808 C 0.603 0.59654 0.57222 0.0
C809 C 0.65818 0.60125 0.58408 0.0
C810 C 0.64218 0.62398 0.58451 0.0
C811 C 0.59837 0.64467 0.57874 0.0
C812 C 0.57064 0.64256 0.57286 0.0
C813 C 0.61457 0.62187 0.57859 0.0
C814 C 0.55935 0.61719 0.56726 0.0
C815 C 0.57535 0.59444 0.56683 0.0
H816 H 0.33611 0.61589 0.56665 0.0
H817 H 0.39087 0.5512 0.53947 0.0
H818 H 0.42806 0.58207 0.54036 0.0
H819 H 0.44516 0.62695 0.55043 0.0
H820 H 0.3912 0.69183 0.58072 0.0
H821 H 0.35348 0.66128 0.57688 0.0
C822 C 0.35617 0.60858 0.56072 0.0
C823 C 0.36069 0.58127 0.55304 0.0
C824 C 0.37757 0.62641 0.56189 0.0
C825 C 0.38682 0.57208 0.54572 0.0
C826 C 0.40812 0.58972 0.54613 0.0
C827 C 0.42515 0.6345 0.55597 0.0
C828 C 0.42098 0.66163 0.56577 0.0
C829 C 0.40373 0.61685 0.55441 0.0
C830 C 0.39494 0.67101 0.5732 0.0
C831 C 0.37338 0.65357 0.571 0.0
H832 H 0.33413 0.3979 0.56554 0.0
H833 H 0.39314 0.45984 0.55708 0.0
H834 H 0.42852 0.42664 0.55553 0.0
H835 H 0.44285 0.37994 0.55679 0.0
H836 H 0.3836 0.3181 0.56365 0.0
H837 H 0.34838 0.3513 0.56558 0.0
C838 C 0.35472 0.40414 0.5634 0.0
C839 C 0.36092 0.43131 0.56157 0.0
C840 C 0.37503 0.38495 0.56222 0.0
C841 C 0.38775 0.43904 0.55852 0.0
C842 C 0.40804 0.42007 0.55767 0.0
C843 C 0.42225 0.37372 0.55876 0.0
C844 C 0.416 0.34653 0.56018 0.0
C845 C 0.40194 0.39295 0.55956 0.0
C846 C 0.38911 0.33887 0.56247 0.0
C847 C 0.36887 0.35786 0.56362 0.0
H848 H 0.54734 0.37878 0.57255 0.0
H849 H 0.60073 0.31211 0.58871 0.0
H850 H 0.6388 0.34211 0.58795 0.0
H851 H 0.65705 0.3872 0.58141 0.0
H852 H 0.60352 0.45396 0.56724 0.0
H853 H 0.56551 0.42399 0.5688 0.0
C854 C 0.5673 0.37079 0.5759 0.0
C855 C 0.57114 0.3432 0.58046 0.0
C856 C 0.58914 0.38818 0.57589 0.0
C857 C 0.59716 0.33325 0.58517 0.0
C858 C 0.61897 0.3504 0.58469 0.0
C859 C 0.63708 0.39525 0.57882 0.0
C860 C 0.63326 0.42286 0.57408 0.0
C861 C 0.61521 0.3779 0.57992 0.0
C862 C 0.60715 0.43284 0.57101 0.0
C863 C 0.58535 0.4157 0.57175 0.0
H864 H 0.61662 0.4461 0.00908 0.0
H865 H 0.68415 0.39386 0.99044 0.0
H866 H 0.65464 0.35541 0.9899 0.0
H867 H 0.60994 0.33679 0.99464 0.0
H868 H 0.54209 0.38887 0.01111 0.0
H869 H 0.57159 0.4274 0.01215 0.0
C870 C 0.6249 0.42629 0.00512 0.0
C871 C 0.65255 0.4228 1.00005 0.0
C872 C 0.6078 0.40434 0.00415 0.0
C873 C 0.66295 0.39706 0.99441 0.0
C874 C 0.64609 0.37509 0.99407 0.0
C875 C 0.60152 0.35655 0.99842 0.0
C876 C 0.57382 0.35993 1.00294 0.0
C877 C 0.61852 0.37853 0.99884 0.0
C878 C 0.56331 0.38571 0.00745 0.0
C879 C 0.58017 0.40773 0.00822 0.0
H880 H 0.55064 0.61816 1.00344 0.0
H881 H 0.60367 0.68409 0.97843 0.0
H882 H 0.64165 0.65376 0.97726 0.0
H883 H 0.6598 0.60872 0.98404 0.0
H884 H 0.60674 0.5426 0.00754 0.0
H885 H 0.56874 0.57289 0.00822 0.0
C886 C 0.57051 0.62592 0.99783 0.0
C887 C 0.57431 0.65338 0.99123 0.0
C888 C 0.59223 0.60835 0.99671 0.0
C889 C 0.60017 0.66306 0.9836 0.0
C890 C 0.62191 0.64573 0.98292 0.0
C891 C 0.63993 0.60085 0.98914 0.0
C892 C 0.6362 0.57337 0.99581 0.0
C893 C 0.61816 0.61835 0.98947 0.0
C894 C 0.61025 0.56362 1.00222 0.0
C895 C 0.58849 0.58094 1.00277 0.0
H896 H 0.38264 0.55387 0.99191 0.0
H897 H 0.31351 0.60479 0.99776 0.0
H898 H 0.3421 0.64398 0.99749 0.0
H899 H 0.3868 0.66375 0.99722 0.0
H900 H 0.45571 0.61243 0.99051 0.0
H901 H 0.42705 0.57352 0.98923 0.0
C902 C 0.37377 0.57353 0.99313 0.0
C903 C 0.34596 0.57635 0.99506 0.0
C904 C 0.3903 0.59595 0.99271 0.0
C905 C 0.33486 0.60201 0.99627 0.0
C906 C 0.3512 0.62445 0.99614 0.0
C907 C 0.39558 0.64408 0.99522 0.0
C908 C 0.42344 0.64113 0.99407 0.0
C909 C 0.37896 0.62166 0.99455 0.0
C910 C 0.43438 0.61541 0.99144 0.0
C911 C 0.418 0.59307 0.99081 0.0
H912 H 0.4473 0.37774 0.00761 0.0
H913 H 0.39387 0.31236 0.98057 0.0
H914 H 0.35591 0.34279 0.98378 0.0
H915 H 0.33802 0.38797 0.99375 0.0
H916 H 0.39186 0.45339 0.01801 0.0
H917 H 0.42957 0.42282 0.01639 0.0
C918 C 0.42735 0.37008 1.00254 0.0
C919 C 0.42342 0.34279 0.994 0.0
C920 C 0.40571 0.38769 1.00387 0.0
C921 C 0.39746 0.33328 0.98712 0.0
C922 C 0.37574 0.35066 0.98901 0.0
C923 C 0.358 0.39556 0.99883 0.0
C924 C 0.36207 0.42296 0.00609 0.0
C925 C 0.37965 0.37791 0.9973 0.0
C926 C 0.38812 0.43243 0.01222 0.0
C927 C 0.40972 0.41496 0.01137 0.0
H928 H 0.95556 0.24163 0.3482 0.0
H929 H 0.03511 0.23527 0.40562 0.0
H930 H 0.05348 0.23882 0.32211 0.0
H931 H 0.0466 0.23632 0.23185 0.0
H932 H 0.96675 0.23802 0.17453 0.0
H933 H 0.94893 0.24408 0.25792 0.0
C934 C 0.97691 0.24195 0.3424 0.0
C935 C 0.99397 0.23837 0.38293 0.0
C936 C 0.98731 0.24272 0.29389 0.0
C937 C 0.0216 0.23815 0.3749 0.0
C938 C 0.03212 0.23998 0.3271 0.0
C939 C 0.02539 0.23882 0.2376 0.0
C940 C 0.00803 0.23668 0.19711 0.0
C941 C 0.01515 0.24119 0.28609 0.0
C942 C 0.98052 0.2395 0.20517 0.0
C943 C 0.97028 0.24287 0.25292 0.0
H944 H 0.77061 0.02433 0.37993 0.0
H945 H 0.77048 0.93956 0.3571 0.0
H946 H 0.76943 0.94603 0.26748 0.0
H947 H 0.77427 0.97598 0.19572 0.0
H948 H 0.77106 0.06073 0.21867 0.0
H949 H 0.76735 0.05415 0.30793 0.0
C950 C 0.76973 0.00733 0.35526 0.0
C951 C 0.77089 0.98154 0.37493 0.0
C952 C 0.76879 0.0112 0.3038 0.0
C953 C 0.76951 0.95962 0.34276 0.0
C954 C 0.76913 0.9633 0.2915 0.0
C955 C 0.77222 0.99294 0.22029 0.0
C956 C 0.77327 0.01878 0.2008 0.0
C957 C 0.76964 0.98901 0.27159 0.0
C958 C 0.77028 0.04063 0.23283 0.0
C959 C 0.76833 0.0369 0.28392 0.0
H960 H 0.02585 0.76914 0.1909 0.0
H961 H 0.94132 0.7599 0.21034 0.0
H962 H 0.94699 0.75867 0.30025 0.0
H963 H 0.97561 0.76581 0.37333 0.0
H964 H 0.06048 0.77162 0.35365 0.0
H965 H 0.05518 0.76826 0.26394 0.0
C966 C 0.00879 0.76624 0.21489 0.0
C967 C 0.9832 0.76486 0.19424 0.0
C968 C 0.01225 0.76519 0.26646 0.0
C969 C 0.96122 0.76089 0.22548 0.0
C970 C 0.96443 0.76042 0.27688 0.0
C971 C 0.99293 0.7658 0.34934 0.0
C972 C 0.01836 0.76929 0.3699 0.0
C973 C 0.98977 0.76339 0.29781 0.0
C974 C 0.04071 0.76893 0.33864 0.0
C975 C 0.03768 0.76718 0.28733 0.0
H976 H 0.23595 0.03961 0.34878 0.0
H977 H 0.2254 0.95964 0.40165 0.0
H978 H 0.2293 0.94248 0.31719 0.0
H979 H 0.22862 0.95094 0.2275 0.0
H980 H 0.23314 0.03147 0.17461 0.0
H981 H 0.23912 0.04771 0.25921 0.0
C982 C 0.2353 0.01839 0.34181 0.0
C983 C 0.2305 0.00088 0.38121 0.0
C984 C 0.23616 0.00882 0.29286 0.0
C985 C 0.22912 0.97346 0.37175 0.0
C986 C 0.23122 0.96366 0.32347 0.0
C987 C 0.23171 0.97193 0.23454 0.0
C988 C 0.23057 0.99 0.19508 0.0
C989 C 0.23372 0.98123 0.28354 0.0
C990 C 0.234 0.01723 0.20457 0.0
C991 C 0.23728 0.02652 0.25292 0.0
H992 H 0.96374 0.76455 0.85474 0.0
H993 H 0.04716 0.77371 0.88647 0.0
H994 H 0.05725 0.77332 0.79776 0.0
H995 H 0.04183 0.77312 0.71134 0.0
H996 H 0.95866 0.76164 0.68001 0.0
H997 H 0.9489 0.75983 0.76873 0.0
C998 C 0.98421 0.76569 0.84239 0.0
C999 C 0.00471 0.76906 0.87715 0.0
C1000 C 0.98982 0.76521 0.79147 0.0
C1001 C 0.03104 0.77131 0.86036 0.0
C1002 C 0.0368 0.77104 0.8097 0.0
C1003 C 0.02168 0.76955 0.72391 0.0
C1004 C 0.00096 0.76748 0.68924 0.0
C1005 C 0.0163 0.76836 0.77491 0.0
C1006 C 0.97486 0.76346 0.70611 0.0
C1007 C 0.96931 0.76241 0.75675 0.0
H1008 H 0.21804 0.9684 0.70049 0.0
H1009 H 0.22366 0.05375 0.70752 0.0
H1010 H 0.22597 0.05202 0.79764 0.0
H1011 H 0.22438 0.0263 0.87503 0.0
H1012 H 0.21531 0.94127 0.86799 0.0
H1013 H 0.2164 0.94271 0.77776 0.0
C1014 C 0.2198 0.98656 0.72188 0.0
C1015 C 0.22097 0.0111 0.69745 0.0
C1016 C 0.22045 0.98547 0.77378 0.0
C1017 C 0.22333 0.03454 0.72543 0.0
C1018 C 0.22439 0.0336 0.77702 0.0
C1019 C 0.22271 0.00815 0.85358 0.0
C1020 C 0.22009 0.98372 0.878 0.0
C1021 C 0.22272 0.0092 0.80163 0.0
C1022 C 0.21794 0.96027 0.84999 0.0
C1023 C 0.21832 0.9611 0.79838 0.0
H1024 H 0.00592 0.19145 0.86771 0.0
H1025 H 0.01804 0.27582 0.88137 0.0
H1026 H 0.01267 0.28091 0.79161 0.0
H1027 H 0.00425 0.2609 0.70888 0.0
H1028 H 0.98657 0.17726 0.69916 0.0
H1029 H 0.9941 0.17232 0.78769 0.0
C1030 C 0.00701 0.21103 0.85118 0.0
C1031 C 0.01246 0.23321 0.88107 0.0
C1032 C 0.00288 0.21387 0.80017 0.0
C1033 C 0.01428 0.25837 0.85897 0.0
C1034 C 0.011 0.26129 0.80775 0.0
C1035 C 0.00164 0.24173 0.72639 0.0
C1036 C 0.99507 0.21943 0.69742 0.0
C1037 C 0.0052 0.23916 0.77791 0.0
C1038 C 0.99209 0.19463 0.7205 0.0
C1039 C 0.99626 0.19179 0.77116 0.0
H1040 H 0.77557 0.03089 0.70146 0.0
H1041 H 0.77886 0.94538 0.70718 0.0
H1042 H 0.77773 0.94667 0.79727 0.0
H1043 H 0.77736 0.97217 0.87505 0.0
H1044 H 0.77943 0.05771 0.86922 0.0
H1045 H 0.77678 0.05642 0.77928 0.0
C1046 C 0.77604 0.0126 0.72257 0.0
C1047 C 0.77677 0.98811 0.69768 0.0
C1048 C 0.77631 0.01349 0.77455 0.0
C1049 C 0.77746 0.9645 0.72538 0.0
C1050 C 0.77712 0.9652 0.77699 0.0
C1051 C 0.77724 0.99048 0.85398 0.0
C1052 C 0.77804 0.01496 0.87886 0.0
C1053 C 0.7767 0.98959 0.80202 0.0
C1054 C 0.77793 0.03858 0.85116 0.0
C1055 C 0.77676 0.03788 0.79958 0.0
H1056 H 0.4539 0.74028 0.84985 0.0
H1057 H 0.53512 0.73929 0.90004 0.0
H1058 H 0.55096 0.74503 0.81525 0.0
H1059 H 0.54191 0.74213 0.7259 0.0
H1060 H 0.46074 0.73855 0.67566 0.0
H1061 H 0.44472 0.74324 0.76057 0.0
C1062 C 0.47499 0.74225 0.84226 0.0
C1063 C 0.49332 0.73934 0.88098 0.0
C1064 C 0.48401 0.74428 0.79302 0.0
C1065 C 0.52065 0.74145 0.87067 0.0
C1066 C 0.52973 0.74456 0.82215 0.0
C1067 C 0.52075 0.74322 0.73351 0.0
C1068 C 0.50255 0.73984 0.69468 0.0
C1069 C 0.51165 0.74478 0.78279 0.0
C1070 C 0.47515 0.74094 0.70507 0.0
C1071 C 0.46596 0.74352 0.75366 0.0
H1072 H 0.27183 0.52521 0.87108 0.0
H1073 H 0.27296 0.44006 0.85402 0.0
H1074 H 0.27189 0.44477 0.76397 0.0
H1075 H 0.27633 0.4734 0.69026 0.0
H1076 H 0.27179 0.55847 0.70743 0.0
H1077 H 0.26816 0.55357 0.79714 0.0
C1078 C 0.27121 0.50773 0.84755 0.0
C1079 C 0.27274 0.48236 0.86891 0.0
C1080 C 0.27026 0.51059 0.79588 0.0
C1081 C 0.2717 0.4598 0.83829 0.0
C1082 C 0.27132 0.46249 0.78682 0.0
C1083 C 0.27403 0.49078 0.7137 0.0
C1084 C 0.2747 0.51624 0.69251 0.0
C1085 C 0.27147 0.4878 0.76521 0.0
C1086 C 0.27135 0.53865 0.723 0.0
C1087 C 0.26942 0.53588 0.7743 0.0
H1088 H 0.47392 0.26325 0.87598 0.0
H1089 H 0.55911 0.26523 0.85831 0.0
H1090 H 0.55431 0.2616 0.76859 0.0
H1091 H 0.52555 0.26405 0.69491 0.0
H1092 H 0.44053 0.25896 0.7124 0.0
H1093 H 0.44552 0.25721 0.80238 0.0
C1094 C 0.4914 0.26224 0.85246 0.0
C1095 C 0.51679 0.26481 0.87355 0.0
C1096 C 0.4885 0.25984 0.80092 0.0
C1097 C 0.53935 0.26323 0.84289 0.0
C1098 C 0.53661 0.26136 0.79156 0.0
C1099 C 0.50821 0.26192 0.7185 0.0
C1100 C 0.48272 0.26193 0.69733 0.0
C1101 C 0.51126 0.26057 0.7701 0.0
C1102 C 0.46035 0.25892 0.72799 0.0
C1103 C 0.46319 0.25813 0.77943 0.0
H1104 H 0.73046 0.45425 0.71932 0.0
H1105 H 0.73082 0.53549 0.66961 0.0
H1106 H 0.73687 0.55106 0.75452 0.0
H1107 H 0.73401 0.54189 0.84376 0.0
H1108 H 0.72851 0.46082 0.89356 0.0
H1109 H 0.73296 0.44485 0.80854 0.0
C1110 C 0.73278 0.47527 0.72707 0.0
C1111 C 0.73023 0.49371 0.68848 0.0
C1112 C 0.7349 0.48414 0.77634 0.0
C1113 C 0.73273 0.52096 0.69891 0.0
C1114 C 0.73602 0.52988 0.74748 0.0
C1115 C 0.73461 0.52074 0.83601 0.0
C1116 C 0.73081 0.50256 0.87471 0.0
C1117 C 0.73594 0.51172 0.78672 0.0
C1118 C 0.73125 0.47519 0.86421 0.0
C1119 C 0.73369 0.46604 0.81558 0.0
H1120 H 0.51178 0.23837 0.20899 0.0
H1121 H 0.4994 0.32283 0.19537 0.0
H1122 H 0.49578 0.32703 0.28505 0.0
H1123 H 0.49611 0.30669 0.3675 0.0
H1124 H 0.51472 0.22352 0.38248 0.0
H1125 H 0.51674 0.21881 0.29223 0.0
C1126 C 0.50856 0.2577 0.22581 0.0
C1127 C 0.50547 0.28017 0.19559 0.0
C1128 C 0.50795 0.26021 0.27759 0.0
C1129 C 0.50112 0.3051 0.21774 0.0
C1130 C 0.4994 0.30759 0.26905 0.0
C1131 C 0.50116 0.28767 0.35094 0.0
C1132 C 0.50507 0.26542 0.38128 0.0
C1133 C 0.50287 0.2853 0.29933 0.0
C1134 C 0.51131 0.24082 0.35958 0.0
C1135 C 0.51245 0.23814 0.30811 0.0
H1136 H 0.75255 0.49769 0.36266 0.0
H1137 H 0.66709 0.4937 0.37264 0.0
H1138 H 0.66342 0.49958 0.28337 0.0
H1139 H 0.68431 0.5059 0.20263 0.0
H1140 H 0.76967 0.50601 0.18976 0.0
H1141 H 0.77376 0.50175 0.27995 0.0
C1142 C 0.73321 0.49796 0.34502 0.0
C1143 C 0.7101 0.49561 0.37403 0.0
C1144 C 0.73127 0.50071 0.29334 0.0
C1145 C 0.68511 0.49597 0.35104 0.0
C1146 C 0.68299 0.49919 0.30003 0.0
C1147 C 0.70381 0.50469 0.21958 0.0
C1148 C 0.72666 0.50624 0.1899 0.0
C1149 C 0.70591 0.50158 0.27089 0.0
C1150 C 0.75182 0.50508 0.21217 0.0
C1151 C 0.75413 0.50252 0.26358 0.0
H1152 H 0.50363 0.69256 0.36693 0.0
H1153 H 0.50559 0.77782 0.37974 0.0
H1154 H 0.50151 0.782 0.28955 0.0
H1155 H 0.49747 0.76091 0.20682 0.0
H1156 H 0.49192 0.67563 0.19659 0.0
H1157 H 0.49724 0.67181 0.286 0.0
C1158 C 0.50283 0.71205 0.34995 0.0
C1159 C 0.50486 0.73486 0.37961 0.0
C1160 C 0.49994 0.71422 0.29859 0.0
C1161 C 0.50423 0.76001 0.35733 0.0
C1162 C 0.50182 0.76237 0.30593 0.0
C1163 C 0.49722 0.74158 0.22443 0.0
C1164 C 0.49456 0.71857 0.19534 0.0
C1165 C 0.49966 0.73957 0.27614 0.0
C1166 C 0.49439 0.69357 0.21829 0.0
C1167 C 0.49728 0.69138 0.26936 0.0
H1168 H 0.27526 0.46152 0.20835 0.0
H1169 H 0.27225 0.5456 0.17889 0.0
H1170 H 0.27159 0.5549 0.26786 0.0
H1171 H 0.27483 0.53902 0.35349 0.0
H1172 H 0.27508 0.45491 0.38308 0.0
H1173 H 0.27365 0.44556 0.29414 0.0
C1174 C 0.27371 0.48185 0.22132 0.0
C1175 C 0.27374 0.50288 0.18714 0.0
C1176 C 0.27307 0.48697 0.27239 0.0
C1177 C 0.27245 0.52913 0.2046 0.0
C1178 C 0.27204 0.53442 0.25538 0.0
C1179 C 0.27383 0.51865 0.34059 0.0
C1180 C 0.27503 0.49765 0.37475 0.0
C1181 C 0.27272 0.5135 0.28958 0.0
C1182 C 0.27441 0.47136 0.35736 0.0
C1183 C 0.27355 0.46604 0.30661 0.0
loop_
_geom_bond_atom_site_label_1
_geom_bond_atom_site_label_2
_geom_bond_distance
_geom_bond_site_symmetry_2
_ccdc_geom_bond_type
Co0 O3 1.970 1_455 S
Co0 N17 1.990 . S
Co0 O25 1.967 . S
Co0 O32 1.920 1_455 S
Co1 O4 1.966 . S
Co1 N10 2.022 . S
Co1 N18 1.993 . S
Co1 O26 1.941 . S
C2 O3 1.258 1_455 S
C2 O4 1.263 . S
O3 Co0 1.970 1_655 S
O3 C2 1.258 1_655 S
O4 Co1 1.966 . S
O4 C2 1.263 . S
C5 O6 1.235 . S
C5 O32 1.289 . S
O6 C5 1.235 . S
C7 C9 1.400 . S
C7 N10 1.351 . S
C7 C12 1.501 . S
C8 C9 1.387 . S
C8 N11 1.341 . S
C9 C7 1.400 . S
C9 C8 1.387 . S
N10 Co1 2.022 . S
N10 C7 1.351 . S
N10 N11 1.365 . S
N11 C8 1.341 . S
N11 N10 1.365 . S
N11 H31 0.862 1_554 S
C12 C7 1.501 . S
C12 H13 0.961 . S
C12 H14 0.961 . S
C12 H15 0.960 . S
H13 C12 0.961 . S
H14 C12 0.961 . S
H15 C12 0.960 . S
C16 N17 1.340 1_656 S
C16 C20 1.401 1_655 S
C16 C21 1.499 . S
N17 Co0 1.990 . S
N17 C16 1.340 1_454 S
N17 N18 1.388 . S
N18 Co1 1.993 . S
N18 N17 1.388 . S
N18 C19 1.346 1_554 S
C19 N18 1.346 1_556 S
C19 C20 1.396 . S
C19 C29 1.510 . S
C20 C16 1.401 1_455 S
C20 C19 1.396 . S
C21 C16 1.499 . S
C21 H22 0.959 . S
C21 H23 0.960 . S
C21 H24 0.961 . S
H22 C21 0.959 . S
H23 C21 0.960 . S
H24 C21 0.961 . S
O25 Co0 1.967 . S
O25 C33 1.258 . S
O26 Co1 1.941 . S
O26 C33 1.266 . S
H27 C29 0.959 . S
H28 C29 0.961 . S
C29 C19 1.510 . S
C29 H27 0.959 . S
C29 H28 0.961 . S
C29 H30 0.960 . S
H30 C29 0.960 . S
H31 N11 0.862 1_556 S
O32 Co0 1.920 1_655 S
O32 C5 1.289 . S
C33 O25 1.258 . S
C33 O26 1.266 . S
Co34 O37 1.970 1_545 S
Co34 N51 1.990 . S
Co34 O59 1.967 . S
Co34 O66 1.920 1_545 S
Co35 O38 1.966 . S
Co35 N44 2.022 . S
Co35 N52 1.993 . S
Co35 O60 1.941 . S
C36 O37 1.258 1_545 S
C36 O38 1.263 . S
O37 Co34 1.970 1_565 S
O37 C36 1.258 1_565 S
O38 Co35 1.966 . S
O38 C36 1.263 . S
C39 O40 1.235 . S
C39 O66 1.289 . S
O40 C39 1.235 . S
C41 C43 1.400 . S
C41 N44 1.351 . S
C41 C46 1.501 . S
C42 C43 1.387 . S
C42 N45 1.341 . S
C43 C41 1.400 . S
C43 C42 1.387 . S
N44 Co35 2.022 . S
N44 C41 1.351 . S
N44 N45 1.365 . S
N45 C42 1.341 . S
N45 N44 1.365 . S
N45 H65 0.862 1_554 S
C46 C41 1.501 . S
C46 H47 0.961 . S
C46 H48 0.961 . S
C46 H49 0.960 . S
H47 C46 0.961 . S
H48 C46 0.961 . S
H49 C46 0.960 . S
C50 N51 1.340 1_566 S
C50 C54 1.401 1_565 S
C50 C55 1.499 . S
N51 Co34 1.990 . S
N51 C50 1.340 1_544 S
N51 N52 1.388 . S
N52 Co35 1.993 . S
N52 N51 1.388 . S
N52 C53 1.346 1_554 S
C53 N52 1.346 1_556 S
C53 C54 1.396 . S
C53 C63 1.510 . S
C54 C50 1.401 1_545 S
C54 C53 1.396 . S
C55 C50 1.499 . S
C55 H56 0.959 . S
C55 H57 0.960 . S
C55 H58 0.961 . S
H56 C55 0.959 . S
H57 C55 0.960 . S
H58 C55 0.961 . S
O59 Co34 1.967 . S
O59 C67 1.258 . S
O60 Co35 1.941 . S
O60 C67 1.266 . S
H61 C63 0.959 . S
H62 C63 0.961 . S
C63 C53 1.510 . S
C63 H61 0.959 . S
C63 H62 0.961 . S
C63 H64 0.960 . S
H64 C63 0.960 . S
H65 N45 0.862 1_556 S
O66 Co34 1.920 1_565 S
O66 C39 1.289 . S
C67 O59 1.258 . S
C67 O60 1.266 . S
Co68 O71 1.970 1_655 S
Co68 N85 1.990 . S
Co68 O93 1.967 . S
Co68 O100 1.920 1_655 S
Co69 O72 1.966 . S
Co69 N78 2.022 . S
Co69 N86 1.993 . S
Co69 O94 1.941 . S
C70 O71 1.258 1_655 S
C70 O72 1.263 . S
O71 Co68 1.970 1_455 S
O71 C70 1.258 1_455 S
O72 Co69 1.966 . S
O72 C70 1.263 . S
C73 O74 1.235 . S
C73 O100 1.289 . S
O74 C73 1.235 . S
C75 C77 1.400 . S
C75 N78 1.351 . S
C75 C80 1.501 . S
C76 C77 1.387 . S
C76 N79 1.341 . S
C77 C75 1.400 . S
C77 C76 1.387 . S
N78 Co69 2.022 . S
N78 C75 1.351 . S
N78 N79 1.365 . S
N79 C76 1.341 . S
N79 N78 1.365 . S
N79 H99 0.862 1_554 S
C80 C75 1.501 . S
C80 H81 0.961 . S
C80 H82 0.961 . S
C80 H83 0.960 . S
H81 C80 0.961 . S
H82 C80 0.961 . S
H83 C80 0.960 . S
C84 N85 1.340 1_456 S
C84 C88 1.401 1_455 S
C84 C89 1.499 . S
N85 Co68 1.990 . S
N85 C84 1.340 1_654 S
N85 N86 1.388 . S
N86 Co69 1.993 . S
N86 N85 1.388 . S
N86 C87 1.346 1_554 S
C87 N86 1.346 1_556 S
C87 C88 1.396 . S
C87 C97 1.510 . S
C88 C84 1.401 1_655 S
C88 C87 1.396 . S
C89 C84 1.499 . S
C89 H90 0.959 . S
C89 H91 0.960 . S
C89 H92 0.961 . S
H90 C89 0.959 . S
H91 C89 0.960 . S
H92 C89 0.961 . S
O93 Co68 1.967 . S
O93 C101 1.258 . S
O94 Co69 1.941 . S
O94 C101 1.266 . S
H95 C97 0.959 . S
H96 C97 0.961 . S
C97 C87 1.510 . S
C97 H95 0.959 . S
C97 H96 0.961 . S
C97 H98 0.960 . S
H98 C97 0.960 . S
H99 N79 0.862 1_556 S
O100 Co68 1.920 1_455 S
O100 C73 1.289 . S
C101 O93 1.258 . S
C101 O94 1.266 . S
Co102 O105 1.970 1_565 S
Co102 N119 1.990 . S
Co102 O127 1.967 . S
Co102 O134 1.920 1_565 S
Co103 O106 1.966 . S
Co103 N112 2.022 . S
Co103 N120 1.993 . S
Co103 O128 1.941 . S
C104 O105 1.258 1_565 S
C104 O106 1.263 . S
O105 Co102 1.970 1_545 S
O105 C104 1.258 1_545 S
O106 Co103 1.966 . S
O106 C104 1.263 . S
C107 O108 1.235 . S
C107 O134 1.289 . S
O108 C107 1.235 . S
C109 C111 1.400 . S
C109 N112 1.351 . S
C109 C114 1.501 . S
C110 C111 1.387 . S
C110 N113 1.341 . S
C111 C109 1.400 . S
C111 C110 1.387 . S
N112 Co103 2.022 . S
N112 C109 1.351 . S
N112 N113 1.365 . S
N113 C110 1.341 . S
N113 N112 1.365 . S
N113 H133 0.862 1_554 S
C114 C109 1.501 . S
C114 H115 0.961 . S
C114 H116 0.961 . S
C114 H117 0.960 . S
H115 C114 0.961 . S
H116 C114 0.961 . S
H117 C114 0.960 . S
C118 N119 1.340 1_546 S
C118 C122 1.401 1_545 S
C118 C123 1.499 . S
N119 Co102 1.990 . S
N119 C118 1.340 1_564 S
N119 N120 1.388 . S
N120 Co103 1.993 . S
N120 N119 1.388 . S
N120 C121 1.346 1_554 S
C121 N120 1.346 1_556 S
C121 C122 1.396 . S
C121 C131 1.510 . S
C122 C118 1.401 1_565 S
C122 C121 1.396 . S
C123 C118 1.499 . S
C123 H124 0.959 . S
C123 H125 0.960 . S
C123 H126 0.961 . S
H124 C123 0.959 . S
H125 C123 0.960 . S
H126 C123 0.961 . S
O127 Co102 1.967 . S
O127 C135 1.258 . S
O128 Co103 1.941 . S
O128 C135 1.266 . S
H129 C131 0.959 . S
H130 C131 0.961 . S
C131 C121 1.510 . S
C131 H129 0.959 . S
C131 H130 0.961 . S
C131 H132 0.960 . S
H132 C131 0.960 . S
H133 N113 0.862 1_556 S
O134 Co102 1.920 1_545 S
O134 C107 1.289 . S
C135 O127 1.258 . S
C135 O128 1.266 . S
Co136 O139 1.970 1_455 S
Co136 N153 1.989 . S
Co136 O161 1.967 . S
Co136 O168 1.920 1_455 S
Co137 O140 1.966 . S
Co137 N146 2.022 . S
Co137 N154 1.993 . S
Co137 O162 1.941 . S
C138 O139 1.258 1_455 S
C138 O140 1.263 . S
O139 Co136 1.970 1_655 S
O139 C138 1.258 1_655 S
O140 Co137 1.966 . S
O140 C138 1.263 . S
C141 O142 1.235 . S
C141 O168 1.289 . S
O142 C141 1.235 . S
C143 C145 1.400 . S
C143 N146 1.351 . S
C143 C148 1.501 . S
C144 C145 1.387 . S
C144 N147 1.341 . S
C145 C143 1.400 . S
C145 C144 1.387 . S
N146 Co137 2.022 . S
N146 C143 1.351 . S
N146 N147 1.365 . S
N147 C144 1.341 . S
N147 N146 1.365 . S
N147 H167 0.862 . S
C148 C143 1.501 . S
C148 H149 0.961 . S
C148 H150 0.961 . S
C148 H151 0.960 . S
H149 C148 0.961 . S
H150 C148 0.961 . S
H151 C148 0.960 . S
C152 N153 1.342 1_655 S
C152 C156 1.401 1_655 S
C152 C157 1.499 . S
N153 Co136 1.989 . S
N153 C152 1.342 1_455 S
N153 N154 1.388 . S
N154 Co137 1.993 . S
N154 N153 1.388 . S
N154 C155 1.346 . S
C155 N154 1.346 . S
C155 C156 1.396 . S
C155 C165 1.510 . S
C156 C152 1.401 1_455 S
C156 C155 1.396 . S
C157 C152 1.499 . S
C157 H158 0.959 . S
C157 H159 0.960 . S
C157 H160 0.961 . S
H158 C157 0.959 . S
H159 C157 0.960 . S
H160 C157 0.961 . S
O161 Co136 1.967 . S
O161 C169 1.258 . S
O162 Co137 1.941 . S
O162 C169 1.266 . S
H163 C165 0.959 . S
H164 C165 0.961 . S
C165 C155 1.510 . S
C165 H163 0.959 . S
C165 H164 0.961 . S
C165 H166 0.960 . S
H166 C165 0.960 . S
H167 N147 0.862 . S
O168 Co136 1.920 1_655 S
O168 C141 1.289 . S
C169 O161 1.258 . S
C169 O162 1.266 . S
Co170 O173 1.970 1_545 S
Co170 N187 1.989 . S
Co170 O195 1.967 . S
Co170 O202 1.920 1_545 S
Co171 O174 1.966 . S
Co171 N180 2.022 . S
Co171 N188 1.993 . S
Co171 O196 1.941 . S
C172 O173 1.258 1_545 S
C172 O174 1.263 . S
O173 Co170 1.970 1_565 S
O173 C172 1.258 1_565 S
O174 Co171 1.966 . S
O174 C172 1.263 . S
C175 O176 1.235 . S
C175 O202 1.289 . S
O176 C175 1.235 . S
C177 C179 1.400 . S
C177 N180 1.351 . S
C177 C182 1.501 . S
C178 C179 1.387 . S
C178 N181 1.341 . S
C179 C177 1.400 . S
C179 C178 1.387 . S
N180 Co171 2.022 . S
N180 C177 1.351 . S
N180 N181 1.365 . S
N181 C178 1.341 . S
N181 N180 1.365 . S
N181 H201 0.862 . S
C182 C177 1.501 . S
C182 H183 0.961 . S
C182 H184 0.961 . S
C182 H185 0.960 . S
H183 C182 0.961 . S
H184 C182 0.961 . S
H185 C182 0.960 . S
C186 N187 1.342 1_565 S
C186 C190 1.401 1_565 S
C186 C191 1.499 . S
N187 Co170 1.989 . S
N187 C186 1.342 1_545 S
N187 N188 1.388 . S
N188 Co171 1.993 . S
N188 N187 1.388 . S
N188 C189 1.346 . S
C189 N188 1.346 . S
C189 C190 1.396 . S
C189 C199 1.510 . S
C190 C186 1.401 1_545 S
C190 C189 1.396 . S
C191 C186 1.499 . S
C191 H192 0.959 . S
C191 H193 0.960 . S
C191 H194 0.961 . S
H192 C191 0.959 . S
H193 C191 0.960 . S
H194 C191 0.961 . S
O195 Co170 1.967 . S
O195 C203 1.258 . S
O196 Co171 1.941 . S
O196 C203 1.266 . S
H197 C199 0.959 . S
H198 C199 0.961 . S
C199 C189 1.510 . S
C199 H197 0.959 . S
C199 H198 0.961 . S
C199 H200 0.960 . S
H200 C199 0.960 . S
H201 N181 0.862 . S
O202 Co170 1.920 1_565 S
O202 C175 1.289 . S
C203 O195 1.258 . S
C203 O196 1.266 . S
Co204 O207 1.970 1_655 S
Co204 N221 1.989 . S
Co204 O229 1.967 . S
Co204 O236 1.920 1_655 S
Co205 O208 1.966 . S
Co205 N214 2.022 . S
Co205 N222 1.993 . S
Co205 O230 1.941 . S
C206 O207 1.258 1_655 S
C206 O208 1.263 . S
O207 Co204 1.970 1_455 S
O207 C206 1.258 1_455 S
O208 Co205 1.966 . S
O208 C206 1.263 . S
C209 O210 1.235 . S
C209 O236 1.289 . S
O210 C209 1.235 . S
C211 C213 1.400 . S
C211 N214 1.351 . S
C211 C216 1.501 . S
C212 C213 1.387 . S
C212 N215 1.341 . S
C213 C211 1.400 . S
C213 C212 1.387 . S
N214 Co205 2.022 . S
N214 C211 1.351 . S
N214 N215 1.365 . S
N215 C212 1.341 . S
N215 N214 1.365 . S
N215 H235 0.862 . S
C216 C211 1.501 . S
C216 H217 0.961 . S
C216 H218 0.961 . S
C216 H219 0.960 . S
H217 C216 0.961 . S
H218 C216 0.961 . S
H219 C216 0.960 . S
C220 N221 1.342 1_455 S
C220 C224 1.401 1_455 S
C220 C225 1.499 . S
N221 Co204 1.989 . S
N221 C220 1.342 1_655 S
N221 N222 1.388 . S
N222 Co205 1.993 . S
N222 N221 1.388 . S
N222 C223 1.346 . S
C223 N222 1.346 . S
C223 C224 1.396 . S
C223 C233 1.510 . S
C224 C220 1.401 1_655 S
C224 C223 1.396 . S
C225 C220 1.499 . S
C225 H226 0.959 . S
C225 H227 0.960 . S
C225 H228 0.961 . S
H226 C225 0.959 . S
H227 C225 0.960 . S
H228 C225 0.961 . S
O229 Co204 1.967 . S
O229 C237 1.258 . S
O230 Co205 1.941 . S
O230 C237 1.266 . S
H231 C233 0.959 . S
H232 C233 0.961 . S
C233 C223 1.510 . S
C233 H231 0.959 . S
C233 H232 0.961 . S
C233 H234 0.960 . S
H234 C233 0.960 . S
H235 N215 0.862 . S
O236 Co204 1.920 1_455 S
O236 C209 1.289 . S
C237 O229 1.258 . S
C237 O230 1.266 . S
Co238 O241 1.970 1_565 S
Co238 N255 1.989 . S
Co238 O263 1.967 . S
Co238 O270 1.920 1_565 S
Co239 O242 1.966 . S
Co239 N248 2.022 . S
Co239 N256 1.993 . S
Co239 O264 1.941 . S
C240 O241 1.258 1_565 S
C240 O242 1.263 . S
O241 Co238 1.970 1_545 S
O241 C240 1.258 1_545 S
O242 Co239 1.966 . S
O242 C240 1.263 . S
C243 O244 1.235 . S
C243 O270 1.289 . S
O244 C243 1.235 . S
C245 C247 1.400 . S
C245 N248 1.351 . S
C245 C250 1.501 . S
C246 C247 1.387 . S
C246 N249 1.341 . S
C247 C245 1.400 . S
C247 C246 1.387 . S
N248 Co239 2.022 . S
N248 C245 1.351 . S
N248 N249 1.365 . S
N249 C246 1.341 . S
N249 N248 1.365 . S
N249 H269 0.862 . S
C250 C245 1.501 . S
C250 H251 0.961 . S
C250 H252 0.961 . S
C250 H253 0.960 . S
H251 C250 0.961 . S
H252 C250 0.961 . S
H253 C250 0.960 . S
C254 N255 1.342 1_545 S
C254 C258 1.401 1_545 S
C254 C259 1.499 . S
N255 Co238 1.989 . S
N255 C254 1.342 1_565 S
N255 N256 1.388 . S
N256 Co239 1.993 . S
N256 N255 1.388 . S
N256 C257 1.346 . S
C257 N256 1.346 . S
C257 C258 1.396 . S
C257 C267 1.510 . S
C258 C254 1.401 1_565 S
C258 C257 1.396 . S
C259 C254 1.499 . S
C259 H260 0.959 . S
C259 H261 0.960 . S
C259 H262 0.961 . S
H260 C259 0.959 . S
H261 C259 0.960 . S
H262 C259 0.961 . S
O263 Co238 1.967 . S
O263 C271 1.258 . S
O264 Co239 1.941 . S
O264 C271 1.266 . S
H265 C267 0.959 . S
H266 C267 0.961 . S
C267 C257 1.510 . S
C267 H265 0.959 . S
C267 H266 0.961 . S
C267 H268 0.960 . S
H268 C267 0.960 . S
H269 N249 0.862 . S
O270 Co238 1.920 1_545 S
O270 C243 1.289 . S
C271 O263 1.258 . S
C271 O264 1.266 . S
Co272 O275 1.970 . S
Co272 N289 1.989 . S
Co272 O297 1.967 . S
Co272 O304 1.920 . S
Co273 O276 1.966 . S
Co273 N282 2.022 . S
Co273 N290 1.993 . S
Co273 O298 1.941 . S
C274 O275 1.258 . S
C274 O276 1.263 . S
O275 Co272 1.970 . S
O275 C274 1.258 . S
O276 Co273 1.966 . S
O276 C274 1.263 . S
C277 O278 1.235 . S
C277 O304 1.289 . S
O278 C277 1.235 . S
C279 C281 1.400 . S
C279 N282 1.351 . S
C279 C284 1.501 . S
C280 C281 1.387 . S
C280 N283 1.341 . S
C281 C279 1.400 . S
C281 C280 1.387 . S
N282 Co273 2.022 . S
N282 C279 1.351 . S
N282 N283 1.365 . S
N283 C280 1.341 . S
N283 N282 1.365 . S
N283 H303 0.862 . S
C284 C279 1.501 . S
C284 H285 0.961 . S
C284 H286 0.961 . S
C284 H287 0.960 . S
H285 C284 0.961 . S
H286 C284 0.961 . S
H287 C284 0.960 . S
C288 N289 1.342 . S
C288 C292 1.401 . S
C288 C293 1.499 . S
N289 Co272 1.989 . S
N289 C288 1.342 . S
N289 N290 1.388 . S
N290 Co273 1.993 . S
N290 N289 1.388 . S
N290 C291 1.346 . S
C291 N290 1.346 . S
C291 C292 1.396 . S
C291 C301 1.510 . S
C292 C288 1.401 . S
C292 C291 1.396 . S
C293 C288 1.499 . S
C293 H294 0.959 . S
C293 H295 0.960 . S
C293 H296 0.961 . S
H294 C293 0.959 . S
H295 C293 0.960 . S
H296 C293 0.961 . S
O297 Co272 1.967 . S
O297 C305 1.258 . S
O298 Co273 1.941 . S
O298 C305 1.266 . S
H299 C301 0.959 . S
H300 C301 0.961 . S
C301 C291 1.510 . S
C301 H299 0.959 . S
C301 H300 0.961 . S
C301 H302 0.960 . S
H302 C301 0.960 . S
H303 N283 0.862 . S
O304 Co272 1.920 . S
O304 C277 1.289 . S
C305 O297 1.258 . S
C305 O298 1.266 . S
Co306 O309 1.970 . S
Co306 N323 1.989 . S
Co306 O331 1.967 . S
Co306 O338 1.920 . S
Co307 O310 1.966 . S
Co307 N316 2.022 . S
Co307 N324 1.993 . S
Co307 O332 1.941 . S
C308 O309 1.258 . S
C308 O310 1.263 . S
O309 Co306 1.970 . S
O309 C308 1.258 . S
O310 Co307 1.966 . S
O310 C308 1.263 . S
C311 O312 1.235 . S
C311 O338 1.289 . S
O312 C311 1.235 . S
C313 C315 1.400 . S
C313 N316 1.351 . S
C313 C318 1.501 . S
C314 C315 1.387 . S
C314 N317 1.341 . S
C315 C313 1.400 . S
C315 C314 1.387 . S
N316 Co307 2.022 . S
N316 C313 1.351 . S
N316 N317 1.365 . S
N317 C314 1.341 . S
N317 N316 1.365 . S
N317 H337 0.862 . S
C318 C313 1.501 . S
C318 H319 0.961 . S
C318 H320 0.961 . S
C318 H321 0.960 . S
H319 C318 0.961 . S
H320 C318 0.961 . S
H321 C318 0.960 . S
C322 N323 1.342 . S
C322 C326 1.401 . S
C322 C327 1.499 . S
N323 Co306 1.989 . S
N323 C322 1.342 . S
N323 N324 1.388 . S
N324 Co307 1.993 . S
N324 N323 1.388 . S
N324 C325 1.346 . S
C325 N324 1.346 . S
C325 C326 1.396 . S
C325 C335 1.510 . S
C326 C322 1.401 . S
C326 C325 1.396 . S
C327 C322 1.499 . S
C327 H328 0.959 . S
C327 H329 0.960 . S
C327 H330 0.961 . S
H328 C327 0.959 . S
H329 C327 0.960 . S
H330 C327 0.961 . S
O331 Co306 1.967 . S
O331 C339 1.258 . S
O332 Co307 1.941 . S
O332 C339 1.266 . S
H333 C335 0.959 . S
H334 C335 0.961 . S
C335 C325 1.510 . S
C335 H333 0.959 . S
C335 H334 0.961 . S
C335 H336 0.960 . S
H336 C335 0.960 . S
H337 N317 0.862 . S
O338 Co306 1.920 . S
O338 C311 1.289 . S
C339 O331 1.258 . S
C339 O332 1.266 . S
Co340 O343 1.970 . S
Co340 N357 1.989 . S
Co340 O365 1.967 . S
Co340 O372 1.920 . S
Co341 O344 1.966 . S
Co341 N350 2.022 . S
Co341 N358 1.993 . S
Co341 O366 1.941 . S
C342 O343 1.258 . S
C342 O344 1.263 . S
O343 Co340 1.970 . S
O343 C342 1.258 . S
O344 Co341 1.966 . S
O344 C342 1.263 . S
C345 O346 1.235 . S
C345 O372 1.289 . S
O346 C345 1.235 . S
C347 C349 1.400 . S
C347 N350 1.351 . S
C347 C352 1.501 . S
C348 C349 1.387 . S
C348 N351 1.341 . S
C349 C347 1.400 . S
C349 C348 1.387 . S
N350 Co341 2.022 . S
N350 C347 1.351 . S
N350 N351 1.365 . S
N351 C348 1.341 . S
N351 N350 1.365 . S
N351 H371 0.862 . S
C352 C347 1.501 . S
C352 H353 0.961 . S
C352 H354 0.961 . S
C352 H355 0.960 . S
H353 C352 0.961 . S
H354 C352 0.961 . S
H355 C352 0.960 . S
C356 N357 1.342 . S
C356 C360 1.401 . S
C356 C361 1.499 . S
N357 Co340 1.989 . S
N357 C356 1.342 . S
N357 N358 1.388 . S
N358 Co341 1.993 . S
N358 N357 1.388 . S
N358 C359 1.346 . S
C359 N358 1.346 . S
C359 C360 1.396 . S
C359 C369 1.510 . S
C360 C356 1.401 . S
C360 C359 1.396 . S
C361 C356 1.499 . S
C361 H362 0.959 . S
C361 H363 0.960 . S
C361 H364 0.961 . S
H362 C361 0.959 . S
H363 C361 0.960 . S
H364 C361 0.961 . S
O365 Co340 1.967 . S
O365 C373 1.258 . S
O366 Co341 1.941 . S
O366 C373 1.266 . S
H367 C369 0.959 . S
H368 C369 0.961 . S
C369 C359 1.510 . S
C369 H367 0.959 . S
C369 H368 0.961 . S
C369 H370 0.960 . S
H370 C369 0.960 . S
H371 N351 0.862 . S
O372 Co340 1.920 . S
O372 C345 1.289 . S
C373 O365 1.258 . S
C373 O366 1.266 . S
Co374 O377 1.970 . S
Co374 N391 1.989 . S
Co374 O399 1.967 . S
Co374 O406 1.920 . S
Co375 O378 1.966 . S
Co375 N384 2.022 . S
Co375 N392 1.993 . S
Co375 O400 1.941 . S
C376 O377 1.258 . S
C376 O378 1.263 . S
O377 Co374 1.970 . S
O377 C376 1.258 . S
O378 Co375 1.966 . S
O378 C376 1.263 . S
C379 O380 1.235 . S
C379 O406 1.289 . S
O380 C379 1.235 . S
C381 C383 1.400 . S
C381 N384 1.351 . S
C381 C386 1.501 . S
C382 C383 1.387 . S
C382 N385 1.341 . S
C383 C381 1.400 . S
C383 C382 1.387 . S
N384 Co375 2.022 . S
N384 C381 1.351 . S
N384 N385 1.365 . S
N385 C382 1.341 . S
N385 N384 1.365 . S
N385 H405 0.862 . S
C386 C381 1.501 . S
C386 H387 0.961 . S
C386 H388 0.961 . S
C386 H389 0.960 . S
H387 C386 0.961 . S
H388 C386 0.961 . S
H389 C386 0.960 . S
C390 N391 1.342 . S
C390 C394 1.401 . S
C390 C395 1.499 . S
N391 Co374 1.989 . S
N391 C390 1.342 . S
N391 N392 1.388 . S
N392 Co375 1.993 . S
N392 N391 1.388 . S
N392 C393 1.346 . S
C393 N392 1.346 . S
C393 C394 1.396 . S
C393 C403 1.510 . S
C394 C390 1.401 . S
C394 C393 1.396 . S
C395 C390 1.499 . S
C395 H396 0.959 . S
C395 H397 0.960 . S
C395 H398 0.961 . S
H396 C395 0.959 . S
H397 C395 0.960 . S
H398 C395 0.961 . S
O399 Co374 1.967 . S
O399 C407 1.258 . S
O400 Co375 1.941 . S
O400 C407 1.266 . S
H401 C403 0.959 . S
H402 C403 0.961 . S
C403 C393 1.510 . S
C403 H401 0.959 . S
C403 H402 0.961 . S
C403 H404 0.960 . S
H404 C403 0.960 . S
H405 N385 0.862 . S
O406 Co374 1.920 . S
O406 C379 1.289 . S
C407 O399 1.258 . S
C407 O400 1.266 . S
Co408 O411 1.970 1_554 S
Co408 N425 1.989 . S
Co408 O433 1.967 1_554 S
Co408 O440 1.920 . S
Co409 O412 1.966 1_554 S
Co409 N418 2.022 . S
Co409 N426 1.993 . S
Co409 O434 1.941 . S
C410 O411 1.258 . S
C410 O412 1.263 . S
O411 Co408 1.970 1_556 S
O411 C410 1.258 . S
O412 Co409 1.966 1_556 S
O412 C410 1.263 . S
C413 O414 1.235 . S
C413 O440 1.289 . S
O414 C413 1.235 . S
C415 C417 1.400 1_556 S
C415 N418 1.351 1_556 S
C415 C420 1.501 . S
C416 C417 1.387 . S
C416 N419 1.341 . S
C417 C415 1.400 1_554 S
C417 C416 1.387 . S
N418 Co409 2.022 . S
N418 C415 1.351 1_554 S
N418 N419 1.365 . S
N419 C416 1.341 . S
N419 N418 1.365 . S
N419 H439 0.862 . S
C420 C415 1.501 . S
C420 H421 0.961 . S
C420 H422 0.961 . S
C420 H423 0.960 . S
H421 C420 0.961 . S
H422 C420 0.961 . S
H423 C420 0.960 . S
C424 N425 1.342 . S
C424 C428 1.401 . S
C424 C429 1.499 . S
N425 Co408 1.989 . S
N425 C424 1.342 . S
N425 N426 1.388 . S
N426 Co409 1.993 . S
N426 N425 1.388 . S
N426 C427 1.346 . S
C427 N426 1.346 . S
C427 C428 1.396 . S
C427 C437 1.510 . S
C428 C424 1.401 . S
C428 C427 1.396 . S
C429 C424 1.499 . S
C429 H430 0.959 . S
C429 H431 0.960 . S
C429 H432 0.961 . S
H430 C429 0.959 . S
H431 C429 0.960 . S
H432 C429 0.961 . S
O433 Co408 1.967 1_556 S
O433 C441 1.258 . S
O434 Co409 1.941 . S
O434 C441 1.266 1_554 S
H435 C437 0.959 . S
H436 C437 0.961 . S
C437 C427 1.510 . S
C437 H435 0.959 . S
C437 H436 0.961 . S
C437 H438 0.960 . S
H438 C437 0.960 . S
H439 N419 0.862 . S
O440 Co408 1.920 . S
O440 C413 1.289 . S
C441 O433 1.258 . S
C441 O434 1.266 1_556 S
Co442 O445 1.970 1_554 S
Co442 N459 1.989 . S
Co442 O467 1.967 1_554 S
Co442 O474 1.920 . S
Co443 O446 1.966 1_554 S
Co443 N452 2.022 . S
Co443 N460 1.993 . S
Co443 O468 1.941 . S
C444 O445 1.258 . S
C444 O446 1.263 . S
O445 Co442 1.970 1_556 S
O445 C444 1.258 . S
O446 Co443 1.966 1_556 S
O446 C444 1.263 . S
C447 O448 1.235 . S
C447 O474 1.289 . S
O448 C447 1.235 . S
C449 C451 1.400 1_556 S
C449 N452 1.351 1_556 S
C449 C454 1.501 . S
C450 C451 1.387 . S
C450 N453 1.341 . S
C451 C449 1.400 1_554 S
C451 C450 1.387 . S
N452 Co443 2.022 . S
N452 C449 1.351 1_554 S
N452 N453 1.365 . S
N453 C450 1.341 . S
N453 N452 1.365 . S
N453 H473 0.862 . S
C454 C449 1.501 . S
C454 H455 0.961 . S
C454 H456 0.961 . S
C454 H457 0.960 . S
H455 C454 0.961 . S
H456 C454 0.961 . S
H457 C454 0.960 . S
C458 N459 1.342 . S
C458 C462 1.401 . S
C458 C463 1.499 . S
N459 Co442 1.989 . S
N459 C458 1.342 . S
N459 N460 1.388 . S
N460 Co443 1.993 . S
N460 N459 1.388 . S
N460 C461 1.346 . S
C461 N460 1.346 . S
C461 C462 1.396 . S
C461 C471 1.510 . S
C462 C458 1.401 . S
C462 C461 1.396 . S
C463 C458 1.499 . S
C463 H464 0.959 . S
C463 H465 0.960 . S
C463 H466 0.961 . S
H464 C463 0.959 . S
H465 C463 0.960 . S
H466 C463 0.961 . S
O467 Co442 1.967 1_556 S
O467 C475 1.258 . S
O468 Co443 1.941 . S
O468 C475 1.266 1_554 S
H469 C471 0.959 . S
H470 C471 0.961 . S
C471 C461 1.510 . S
C471 H469 0.959 . S
C471 H470 0.961 . S
C471 H472 0.960 . S
H472 C471 0.960 . S
H473 N453 0.862 . S
O474 Co442 1.920 . S
O474 C447 1.289 . S
C475 O467 1.258 . S
C475 O468 1.266 1_556 S
Co476 O479 1.970 1_554 S
Co476 N493 1.989 . S
Co476 O501 1.967 1_554 S
Co476 O508 1.920 . S
Co477 O480 1.966 1_554 S
Co477 N486 2.022 . S
Co477 N494 1.993 . S
Co477 O502 1.941 . S
C478 O479 1.258 . S
C478 O480 1.263 . S
O479 Co476 1.970 1_556 S
O479 C478 1.258 . S
O480 Co477 1.966 1_556 S
O480 C478 1.263 . S
C481 O482 1.235 . S
C481 O508 1.289 . S
O482 C481 1.235 . S
C483 C485 1.400 1_556 S
C483 N486 1.351 1_556 S
C483 C488 1.501 . S
C484 C485 1.387 . S
C484 N487 1.341 . S
C485 C483 1.400 1_554 S
C485 C484 1.387 . S
N486 Co477 2.022 . S
N486 C483 1.351 1_554 S
N486 N487 1.365 . S
N487 C484 1.341 . S
N487 N486 1.365 . S
N487 H507 0.862 . S
C488 C483 1.501 . S
C488 H489 0.961 . S
C488 H490 0.961 . S
C488 H491 0.960 . S
H489 C488 0.961 . S
H490 C488 0.961 . S
H491 C488 0.960 . S
C492 N493 1.342 . S
C492 C496 1.401 . S
C492 C497 1.499 . S
N493 Co476 1.989 . S
N493 C492 1.342 . S
N493 N494 1.388 . S
N494 Co477 1.993 . S
N494 N493 1.388 . S
N494 C495 1.346 . S
C495 N494 1.346 . S
C495 C496 1.396 . S
C495 C505 1.510 . S
C496 C492 1.401 . S
C496 C495 1.396 . S
C497 C492 1.499 . S
C497 H498 0.959 . S
C497 H499 0.960 . S
C497 H500 0.961 . S
H498 C497 0.959 . S
H499 C497 0.960 . S
H500 C497 0.961 . S
O501 Co476 1.967 1_556 S
O501 C509 1.258 . S
O502 Co477 1.941 . S
O502 C509 1.266 1_554 S
H503 C505 0.959 . S
H504 C505 0.961 . S
C505 C495 1.510 . S
C505 H503 0.959 . S
C505 H504 0.961 . S
C505 H506 0.960 . S
H506 C505 0.960 . S
H507 N487 0.862 . S
O508 Co476 1.920 . S
O508 C481 1.289 . S
C509 O501 1.258 . S
C509 O502 1.266 1_556 S
Co510 O513 1.970 1_554 S
Co510 N527 1.989 . S
Co510 O535 1.967 1_554 S
Co510 O542 1.920 . S
Co511 O514 1.966 1_554 S
Co511 N520 2.022 . S
Co511 N528 1.993 . S
Co511 O536 1.941 . S
C512 O513 1.258 . S
C512 O514 1.263 . S
O513 Co510 1.970 1_556 S
O513 C512 1.258 . S
O514 Co511 1.966 1_556 S
O514 C512 1.263 . S
C515 O516 1.235 . S
C515 O542 1.289 . S
O516 C515 1.235 . S
C517 C519 1.400 1_556 S
C517 N520 1.351 1_556 S
C517 C522 1.501 . S
C518 C519 1.387 . S
C518 N521 1.341 . S
C519 C517 1.400 1_554 S
C519 C518 1.387 . S
N520 Co511 2.022 . S
N520 C517 1.351 1_554 S
N520 N521 1.365 . S
N521 C518 1.341 . S
N521 N520 1.365 . S
N521 H541 0.862 . S
C522 C517 1.501 . S
C522 H523 0.961 . S
C522 H524 0.961 . S
C522 H525 0.960 . S
H523 C522 0.961 . S
H524 C522 0.961 . S
H525 C522 0.960 . S
C526 N527 1.342 . S
C526 C530 1.401 . S
C526 C531 1.499 . S
N527 Co510 1.989 . S
N527 C526 1.342 . S
N527 N528 1.388 . S
N528 Co511 1.993 . S
N528 N527 1.388 . S
N528 C529 1.346 . S
C529 N528 1.346 . S
C529 C530 1.396 . S
C529 C539 1.510 . S
C530 C526 1.401 . S
C530 C529 1.396 . S
C531 C526 1.499 . S
C531 H532 0.959 . S
C531 H533 0.960 . S
C531 H534 0.961 . S
H532 C531 0.959 . S
H533 C531 0.960 . S
H534 C531 0.961 . S
O535 Co510 1.967 1_556 S
O535 C543 1.258 . S
O536 Co511 1.941 . S
O536 C543 1.266 1_554 S
H537 C539 0.959 . S
H538 C539 0.961 . S
C539 C529 1.510 . S
C539 H537 0.959 . S
C539 H538 0.961 . S
C539 H540 0.960 . S
H540 C539 0.960 . S
H541 N521 0.862 . S
O542 Co510 1.920 . S
O542 C515 1.289 . S
C543 O535 1.258 . S
C543 O536 1.266 1_556 S
H544 C550 0.930 . S
H545 C553 0.930 . S
H546 C554 0.935 . S
H547 C555 0.930 . S
H548 C558 0.930 . S
H549 C559 0.930 . S
C550 H544 0.930 . S
C550 C551 1.355 . S
C550 C552 1.415 . S
C551 C550 1.355 . S
C551 C553 1.419 . S
C552 C550 1.415 . S
C552 C557 1.425 . S
C552 C559 1.409 . S
C553 H545 0.930 . S
C553 C551 1.419 . S
C553 C554 1.362 . S
C554 H546 0.935 . S
C554 C553 1.362 . S
C554 C557 1.409 . S
C555 H547 0.930 . S
C555 C556 1.355 . S
C555 C557 1.415 . S
C556 C555 1.355 . S
C556 C558 1.419 . S
C557 C552 1.425 . S
C557 C554 1.409 . S
C557 C555 1.415 . S
C558 H548 0.930 . S
C558 C556 1.419 . S
C558 C559 1.362 . S
C559 H549 0.930 . S
C559 C552 1.409 . S
C559 C558 1.362 . S
H560 C566 0.930 . S
H561 C569 0.930 . S
H562 C570 0.930 . S
H563 C571 0.930 . S
H564 C574 0.930 . S
H565 C575 0.930 . S
C566 H560 0.930 . S
C566 C567 1.355 . S
C566 C568 1.415 . S
C567 C566 1.355 . S
C567 C569 1.419 . S
C568 C566 1.415 . S
C568 C573 1.425 . S
C568 C575 1.409 . S
C569 H561 0.930 . S
C569 C567 1.419 . S
C569 C570 1.362 . S
C570 H562 0.930 . S
C570 C569 1.362 . S
C570 C573 1.409 . S
C571 H563 0.930 . S
C571 C572 1.355 . S
C571 C573 1.415 . S
C572 C571 1.355 . S
C572 C574 1.419 . S
C573 C568 1.425 . S
C573 C570 1.409 . S
C573 C571 1.415 . S
C574 H564 0.930 . S
C574 C572 1.419 . S
C574 C575 1.362 . S
C575 H565 0.930 . S
C575 C568 1.409 . S
C575 C574 1.362 . S
H576 C582 0.930 1_556 S
H577 C585 0.930 . S
H578 C586 0.930 . S
H579 C587 0.930 . S
H580 C590 0.933 . S
H581 C591 0.922 1_556 S
C582 H576 0.930 1_554 S
C582 C583 1.355 . S
C582 C584 1.415 . S
C583 C582 1.355 . S
C583 C585 1.419 . S
C584 C582 1.415 . S
C584 C589 1.425 . S
C584 C591 1.414 . S
C585 H577 0.930 . S
C585 C583 1.419 . S
C585 C586 1.362 . S
C586 H578 0.930 . S
C586 C585 1.362 . S
C586 C589 1.409 . S
C587 H579 0.930 . S
C587 C588 1.355 . S
C587 C589 1.415 . S
C588 C587 1.355 . S
C588 C590 1.419 . S
C589 C584 1.425 . S
C589 C586 1.409 . S
C589 C587 1.415 . S
C590 H580 0.933 . S
C590 C588 1.419 . S
C590 C591 1.365 . S
C591 H581 0.922 1_554 S
C591 C584 1.414 . S
C591 C590 1.365 . S
H592 C598 0.930 . S
H593 C601 0.930 . S
H594 C602 0.930 . S
H595 C603 0.930 . S
H596 C606 0.930 . S
H597 C607 0.930 . S
C598 H592 0.930 . S
C598 C599 1.355 . S
C598 C600 1.415 . S
C599 C598 1.355 . S
C599 C601 1.419 1_554 S
C600 C598 1.415 . S
C600 C605 1.425 . S
C600 C607 1.409 . S
C601 H593 0.930 . S
C601 C599 1.419 1_556 S
C601 C602 1.362 . S
C602 H594 0.930 . S
C602 C601 1.362 . S
C602 C605 1.409 1_556 S
C603 H595 0.930 . S
C603 C604 1.355 1_556 S
C603 C605 1.415 1_556 S
C604 C603 1.355 1_554 S
C604 C606 1.419 . S
C605 C600 1.425 . S
C605 C602 1.409 1_554 S
C605 C603 1.415 1_554 S
C606 H596 0.930 . S
C606 C604 1.419 . S
C606 C607 1.362 . S
C607 H597 0.930 . S
C607 C600 1.409 . S
C607 C606 1.362 . S
H608 C614 0.930 . S
H609 C617 0.930 . S
H610 C618 0.930 . S
H611 C619 0.930 . S
H612 C622 0.930 . S
H613 C623 0.930 . S
C614 H608 0.930 . S
C614 C615 1.355 . S
C614 C616 1.415 . S
C615 C614 1.355 . S
C615 C617 1.419 . S
C616 C614 1.415 . S
C616 C621 1.425 . S
C616 C623 1.409 . S
C617 H609 0.930 . S
C617 C615 1.419 . S
C617 C618 1.362 . S
C618 H610 0.930 . S
C618 C617 1.362 . S
C618 C621 1.409 . S
C619 H611 0.930 . S
C619 C620 1.355 . S
C619 C621 1.415 . S
C620 C619 1.355 . S
C620 C622 1.419 . S
C621 C616 1.425 . S
C621 C618 1.409 . S
C621 C619 1.415 . S
C622 H612 0.930 . S
C622 C620 1.419 . S
C622 C623 1.362 . S
C623 H613 0.930 . S
C623 C616 1.409 . S
C623 C622 1.362 . S
H624 C630 0.930 . S
H625 C633 0.930 . S
H626 C634 0.930 . S
H627 C635 0.930 . S
H628 C638 0.930 . S
H629 C639 0.930 . S
C630 H624 0.930 . S
C630 C631 1.355 . S
C630 C632 1.415 . S
C631 C630 1.355 . S
C631 C633 1.419 . S
C632 C630 1.415 . S
C632 C637 1.425 . S
C632 C639 1.409 . S
C633 H625 0.930 . S
C633 C631 1.419 . S
C633 C634 1.362 . S
C634 H626 0.930 . S
C634 C633 1.362 . S
C634 C637 1.409 . S
C635 H627 0.930 . S
C635 C636 1.355 . S
C635 C637 1.415 . S
C636 C635 1.355 . S
C636 C638 1.419 . S
C637 C632 1.425 . S
C637 C634 1.409 . S
C637 C635 1.415 . S
C638 H628 0.930 . S
C638 C636 1.419 . S
C638 C639 1.362 . S
C639 H629 0.930 . S
C639 C632 1.409 . S
C639 C638 1.362 . S
H640 C646 0.930 . S
H641 C649 0.930 . S
H642 C650 0.930 . S
H643 C651 0.930 . S
H644 C654 0.930 . S
H645 C655 0.930 . S
C646 H640 0.930 . S
C646 C647 1.355 . S
C646 C648 1.415 . S
C647 C646 1.355 . S
C647 C649 1.419 . S
C648 C646 1.415 . S
C648 C653 1.425 . S
C648 C655 1.409 . S
C649 H641 0.930 . S
C649 C647 1.419 . S
C649 C650 1.362 . S
C650 H642 0.930 . S
C650 C649 1.362 . S
C650 C653 1.409 . S
C651 H643 0.930 . S
C651 C652 1.355 . S
C651 C653 1.415 . S
C652 C651 1.355 . S
C652 C654 1.419 . S
C653 C648 1.425 . S
C653 C650 1.409 . S
C653 C651 1.415 . S
C654 H644 0.930 . S
C654 C652 1.419 . S
C654 C655 1.362 . S
C655 H645 0.930 . S
C655 C648 1.409 . S
C655 C654 1.362 . S
H656 C662 0.930 . S
H657 C665 0.930 . S
H658 C666 0.930 . S
H659 C667 0.930 . S
H660 C670 0.930 . S
H661 C671 0.930 . S
C662 H656 0.930 . S
C662 C663 1.355 . S
C662 C664 1.415 . S
C663 C662 1.355 . S
C663 C665 1.419 . S
C664 C662 1.415 . S
C664 C669 1.425 . S
C664 C671 1.409 . S
C665 H657 0.930 . S
C665 C663 1.419 . S
C665 C666 1.362 . S
C666 H658 0.930 . S
C666 C665 1.362 . S
C666 C669 1.409 . S
C667 H659 0.930 . S
C667 C668 1.355 . S
C667 C669 1.415 . S
C668 C667 1.355 . S
C668 C670 1.419 . S
C669 C664 1.425 . S
C669 C666 1.409 . S
C669 C667 1.415 . S
C670 H660 0.930 . S
C670 C668 1.419 . S
C670 C671 1.362 . S
C671 H661 0.930 . S
C671 C664 1.409 . S
C671 C670 1.362 . S
H672 C678 0.930 1_556 S
H673 C681 0.930 . S
H674 C682 0.930 . S
H675 C683 0.930 . S
H676 C686 0.930 1_556 S
H677 C687 0.930 1_556 S
C678 H672 0.930 1_554 S
C678 C679 1.355 . S
C678 C680 1.415 . S
C679 C678 1.355 . S
C679 C681 1.419 . S
C680 C678 1.415 . S
C680 C685 1.425 . S
C680 C687 1.409 . S
C681 H673 0.930 . S
C681 C679 1.419 . S
C681 C682 1.362 . S
C682 H674 0.930 . S
C682 C681 1.362 . S
C682 C685 1.409 . S
C683 H675 0.930 . S
C683 C684 1.355 . S
C683 C685 1.415 . S
C684 C683 1.355 . S
C684 C686 1.419 . S
C685 C680 1.425 . S
C685 C682 1.409 . S
C685 C683 1.415 . S
C686 H676 0.930 1_554 S
C686 C684 1.419 . S
C686 C687 1.362 . S
C687 H677 0.930 1_554 S
C687 C680 1.409 . S
C687 C686 1.362 . S
H688 C694 0.930 . S
H689 C697 0.930 . S
H690 C698 0.930 . S
H691 C699 0.930 . S
H692 C702 0.930 . S
H693 C703 0.930 . S
C694 H688 0.930 . S
C694 C695 1.355 . S
C694 C696 1.415 . S
C695 C694 1.355 . S
C695 C697 1.419 . S
C696 C694 1.415 . S
C696 C701 1.425 . S
C696 C703 1.409 . S
C697 H689 0.930 . S
C697 C695 1.419 . S
C697 C698 1.362 . S
C698 H690 0.930 . S
C698 C697 1.362 . S
C698 C701 1.409 . S
C699 H691 0.930 . S
C699 C700 1.355 . S
C699 C701 1.415 . S
C700 C699 1.355 . S
C700 C702 1.419 . S
C701 C696 1.425 . S
C701 C698 1.409 . S
C701 C699 1.415 . S
C702 H692 0.930 . S
C702 C700 1.419 . S
C702 C703 1.362 . S
C703 H693 0.930 . S
C703 C696 1.409 . S
C703 C702 1.362 . S
H704 C710 0.930 . S
H705 C713 0.930 . S
H706 C714 0.930 . S
H707 C715 0.930 . S
H708 C718 0.930 . S
H709 C719 0.930 . S
C710 H704 0.930 . S
C710 C711 1.355 . S
C710 C712 1.415 . S
C711 C710 1.355 . S
C711 C713 1.419 . S
C712 C710 1.415 . S
C712 C717 1.425 . S
C712 C719 1.409 . S
C713 H705 0.930 . S
C713 C711 1.419 . S
C713 C714 1.362 . S
C714 H706 0.930 . S
C714 C713 1.362 . S
C714 C717 1.409 . S
C715 H707 0.930 . S
C715 C716 1.355 . S
C715 C717 1.415 . S
C716 C715 1.355 . S
C716 C718 1.419 . S
C717 C712 1.425 . S
C717 C714 1.409 . S
C717 C715 1.415 . S
C718 H708 0.930 . S
C718 C716 1.419 . S
C718 C719 1.362 . S
C719 H709 0.930 . S
C719 C712 1.409 . S
C719 C718 1.362 . S
H720 C726 0.930 . S
H721 C729 0.930 . S
H722 C730 0.930 . S
H723 C731 0.930 . S
H724 C734 0.930 . S
H725 C735 0.930 . S
C726 H720 0.930 . S
C726 C727 1.355 . S
C726 C728 1.415 . S
C727 C726 1.355 . S
C727 C729 1.419 . S
C728 C726 1.415 . S
C728 C733 1.425 . S
C728 C735 1.409 . S
C729 H721 0.930 . S
C729 C727 1.419 . S
C729 C730 1.362 . S
C730 H722 0.930 . S
C730 C729 1.362 . S
C730 C733 1.409 . S
C731 H723 0.930 . S
C731 C732 1.355 . S
C731 C733 1.415 . S
C732 C731 1.355 . S
C732 C734 1.419 . S
C733 C728 1.425 . S
C733 C730 1.409 . S
C733 C731 1.415 . S
C734 H724 0.930 . S
C734 C732 1.419 . S
C734 C735 1.362 . S
C735 H725 0.930 . S
C735 C728 1.409 . S
C735 C734 1.362 . S
H736 C742 0.930 . S
H737 C745 0.930 . S
H738 C746 0.930 . S
H739 C747 0.930 . S
H740 C750 0.930 . S
H741 C751 0.930 . S
C742 H736 0.930 . S
C742 C743 1.355 . S
C742 C744 1.415 . S
C743 C742 1.355 . S
C743 C745 1.419 . S
C744 C742 1.415 . S
C744 C749 1.425 . S
C744 C751 1.409 . S
C745 H737 0.930 . S
C745 C743 1.419 . S
C745 C746 1.362 . S
C746 H738 0.930 . S
C746 C745 1.362 . S
C746 C749 1.409 . S
C747 H739 0.930 . S
C747 C748 1.355 . S
C747 C749 1.415 . S
C748 C747 1.355 . S
C748 C750 1.419 . S
C749 C744 1.425 . S
C749 C746 1.409 . S
C749 C747 1.415 . S
C750 H740 0.930 . S
C750 C748 1.419 . S
C750 C751 1.362 . S
C751 H741 0.930 . S
C751 C744 1.409 . S
C751 C750 1.362 . S
H752 C758 0.930 . S
H753 C761 0.930 . S
H754 C762 0.930 . S
H755 C763 0.930 . S
H756 C766 0.930 . S
H757 C767 0.930 . S
C758 H752 0.930 . S
C758 C759 1.355 . S
C758 C760 1.415 . S
C759 C758 1.355 . S
C759 C761 1.419 . S
C760 C758 1.415 . S
C760 C765 1.425 . S
C760 C767 1.409 . S
C761 H753 0.930 . S
C761 C759 1.419 . S
C761 C762 1.362 . S
C762 H754 0.930 . S
C762 C761 1.362 . S
C762 C765 1.409 . S
C763 H755 0.930 . S
C763 C764 1.355 . S
C763 C765 1.415 . S
C764 C763 1.355 . S
C764 C766 1.419 . S
C765 C760 1.425 . S
C765 C762 1.409 . S
C765 C763 1.415 . S
C766 H756 0.930 . S
C766 C764 1.419 . S
C766 C767 1.362 . S
C767 H757 0.930 . S
C767 C760 1.409 . S
C767 C766 1.362 . S
H768 C774 0.930 . S
H769 C777 0.930 . S
H770 C778 0.930 . S
H771 C779 0.930 . S
H772 C782 0.930 . S
H773 C783 0.930 . S
C774 H768 0.930 . S
C774 C775 1.355 . S
C774 C776 1.415 . S
C775 C774 1.355 . S
C775 C777 1.419 . S
C776 C774 1.415 . S
C776 C781 1.425 . S
C776 C783 1.409 . S
C777 H769 0.930 . S
C777 C775 1.419 . S
C777 C778 1.362 . S
C778 H770 0.930 . S
C778 C777 1.362 . S
C778 C781 1.409 . S
C779 H771 0.930 . S
C779 C780 1.355 . S
C779 C781 1.415 . S
C780 C779 1.355 . S
C780 C782 1.419 . S
C781 C776 1.425 . S
C781 C778 1.409 . S
C781 C779 1.415 . S
C782 H772 0.930 . S
C782 C780 1.419 . S
C782 C783 1.362 . S
C783 H773 0.930 . S
C783 C776 1.409 . S
C783 C782 1.362 . S
H784 C790 0.930 . S
H785 C793 0.930 . S
H786 C794 0.930 . S
H787 C795 0.930 . S
H788 C798 0.930 . S
H789 C799 0.930 . S
C790 H784 0.930 . S
C790 C791 1.355 . S
C790 C792 1.415 . S
C791 C790 1.355 . S
C791 C793 1.419 . S
C792 C790 1.415 . S
C792 C797 1.425 . S
C792 C799 1.409 . S
C793 H785 0.930 . S
C793 C791 1.419 . S
C793 C794 1.362 . S
C794 H786 0.930 . S
C794 C793 1.362 . S
C794 C797 1.409 . S
C795 H787 0.930 . S
C795 C796 1.355 . S
C795 C797 1.415 . S
C796 C795 1.355 . S
C796 C798 1.419 . S
C797 C792 1.425 . S
C797 C794 1.409 . S
C797 C795 1.415 . S
C798 H788 0.930 . S
C798 C796 1.419 . S
C798 C799 1.362 . S
C799 H789 0.930 . S
C799 C792 1.409 . S
C799 C798 1.362 . S
H800 C806 0.930 . S
H801 C809 0.930 . S
H802 C810 0.930 . S
H803 C811 0.930 . S
H804 C814 0.930 . S
H805 C815 0.930 . S
C806 H800 0.930 . S
C806 C807 1.355 . S
C806 C808 1.415 . S
C807 C806 1.355 . S
C807 C809 1.419 . S
C808 C806 1.415 . S
C808 C813 1.425 . S
C808 C815 1.409 . S
C809 H801 0.930 . S
C809 C807 1.419 . S
C809 C810 1.362 . S
C810 H802 0.930 . S
C810 C809 1.362 . S
C810 C813 1.409 . S
C811 H803 0.930 . S
C811 C812 1.355 . S
C811 C813 1.415 . S
C812 C811 1.355 . S
C812 C814 1.419 . S
C813 C808 1.425 . S
C813 C810 1.409 . S
C813 C811 1.415 . S
C814 H804 0.930 . S
C814 C812 1.419 . S
C814 C815 1.362 . S
C815 H805 0.930 . S
C815 C808 1.409 . S
C815 C814 1.362 . S
H816 C822 0.930 . S
H817 C825 0.930 . S
H818 C826 0.930 . S
H819 C827 0.930 . S
H820 C830 0.930 . S
H821 C831 0.930 . S
C822 H816 0.930 . S
C822 C823 1.355 . S
C822 C824 1.415 . S
C823 C822 1.355 . S
C823 C825 1.419 . S
C824 C822 1.415 . S
C824 C829 1.425 . S
C824 C831 1.409 . S
C825 H817 0.930 . S
C825 C823 1.419 . S
C825 C826 1.362 . S
C826 H818 0.930 . S
C826 C825 1.362 . S
C826 C829 1.409 . S
C827 H819 0.930 . S
C827 C828 1.355 . S
C827 C829 1.415 . S
C828 C827 1.355 . S
C828 C830 1.419 . S
C829 C824 1.425 . S
C829 C826 1.409 . S
C829 C827 1.415 . S
C830 H820 0.930 . S
C830 C828 1.419 . S
C830 C831 1.362 . S
C831 H821 0.930 . S
C831 C824 1.409 . S
C831 C830 1.362 . S
H832 C838 0.930 . S
H833 C841 0.930 . S
H834 C842 0.930 . S
H835 C843 0.930 . S
H836 C846 0.930 . S
H837 C847 0.930 . S
C838 H832 0.930 . S
C838 C839 1.355 . S
C838 C840 1.415 . S
C839 C838 1.355 . S
C839 C841 1.419 . S
C840 C838 1.415 . S
C840 C845 1.425 . S
C840 C847 1.409 . S
C841 H833 0.930 . S
C841 C839 1.419 . S
C841 C842 1.362 . S
C842 H834 0.930 . S
C842 C841 1.362 . S
C842 C845 1.409 . S
C843 H835 0.930 . S
C843 C844 1.355 . S
C843 C845 1.415 . S
C844 C843 1.355 . S
C844 C846 1.419 . S
C845 C840 1.425 . S
C845 C842 1.409 . S
C845 C843 1.415 . S
C846 H836 0.930 . S
C846 C844 1.419 . S
C846 C847 1.362 . S
C847 H837 0.930 . S
C847 C840 1.409 . S
C847 C846 1.362 . S
H848 C854 0.930 . S
H849 C857 0.930 . S
H850 C858 0.930 . S
H851 C859 0.930 . S
H852 C862 0.930 . S
H853 C863 0.930 . S
C854 H848 0.930 . S
C854 C855 1.355 . S
C854 C856 1.415 . S
C855 C854 1.355 . S
C855 C857 1.419 . S
C856 C854 1.415 . S
C856 C861 1.425 . S
C856 C863 1.409 . S
C857 H849 0.930 . S
C857 C855 1.419 . S
C857 C858 1.362 . S
C858 H850 0.930 . S
C858 C857 1.362 . S
C858 C861 1.409 . S
C859 H851 0.930 . S
C859 C860 1.355 . S
C859 C861 1.415 . S
C860 C859 1.355 . S
C860 C862 1.419 . S
C861 C856 1.425 . S
C861 C858 1.409 . S
C861 C859 1.415 . S
C862 H852 0.930 . S
C862 C860 1.419 . S
C862 C863 1.362 . S
C863 H853 0.930 . S
C863 C856 1.409 . S
C863 C862 1.362 . S
H864 C870 0.928 1_556 S
H865 C873 0.930 . S
H866 C874 0.930 . S
H867 C875 0.929 1_554 S
H868 C878 0.930 . S
H869 C879 0.930 . S
C870 H864 0.928 1_554 S
C870 C871 1.358 . S
C870 C872 1.413 1_554 S
C871 C870 1.358 . S
C871 C873 1.419 . S
C872 C870 1.413 1_556 S
C872 C877 1.425 1_556 S
C872 C879 1.409 . S
C873 H865 0.930 . S
C873 C871 1.419 . S
C873 C874 1.362 . S
C874 H866 0.930 . S
C874 C873 1.362 . S
C874 C877 1.409 . S
C875 H867 0.929 1_556 S
C875 C876 1.355 . S
C875 C877 1.415 1_556 S
C876 C875 1.355 . S
C876 C878 1.419 . S
C877 C872 1.425 1_554 S
C877 C874 1.409 . S
C877 C875 1.415 1_554 S
C878 H868 0.930 . S
C878 C876 1.419 . S
C878 C879 1.362 . S
C879 H869 0.930 . S
C879 C872 1.409 . S
C879 C878 1.362 . S
H880 C886 0.930 . S
H881 C889 0.930 . S
H882 C890 0.930 . S
H883 C891 0.930 . S
H884 C894 0.930 . S
H885 C895 0.930 . S
C886 H880 0.930 . S
C886 C887 1.355 1_556 S
C886 C888 1.415 . S
C887 C886 1.355 1_554 S
C887 C889 1.419 . S
C888 C886 1.415 . S
C888 C893 1.425 1_556 S
C888 C895 1.409 . S
C889 H881 0.930 . S
C889 C887 1.419 . S
C889 C890 1.362 . S
C890 H882 0.930 . S
C890 C889 1.362 . S
C890 C893 1.409 . S
C891 H883 0.930 . S
C891 C892 1.355 1_554 S
C891 C893 1.415 . S
C892 C891 1.355 1_556 S
C892 C894 1.419 . S
C893 C888 1.425 1_554 S
C893 C890 1.409 . S
C893 C891 1.415 . S
C894 H884 0.930 . S
C894 C892 1.419 . S
C894 C895 1.362 . S
C895 H885 0.930 . S
C895 C888 1.409 . S
C895 C894 1.362 . S
H896 C902 0.930 . S
H897 C905 0.930 . S
H898 C906 0.930 . S
H899 C907 0.930 . S
H900 C910 0.930 . S
H901 C911 0.930 . S
C902 H896 0.930 . S
C902 C903 1.355 1_556 S
C902 C904 1.415 . S
C903 C902 1.355 1_554 S
C903 C905 1.419 . S
C904 C902 1.415 . S
C904 C909 1.425 1_556 S
C904 C911 1.409 . S
C905 H897 0.930 . S
C905 C903 1.419 . S
C905 C906 1.362 . S
C906 H898 0.930 . S
C906 C905 1.362 . S
C906 C909 1.409 . S
C907 H899 0.930 . S
C907 C908 1.355 1_554 S
C907 C909 1.415 . S
C908 C907 1.355 1_556 S
C908 C910 1.419 . S
C909 C904 1.425 1_554 S
C909 C906 1.409 . S
C909 C907 1.415 . S
C910 H900 0.930 . S
C910 C908 1.419 . S
C910 C911 1.362 . S
C911 H901 0.930 . S
C911 C904 1.409 . S
C911 C910 1.362 . S
H912 C918 0.930 . S
H913 C921 0.930 . S
H914 C922 0.930 . S
H915 C923 0.930 . S
H916 C926 0.930 . S
H917 C927 0.930 . S
C918 H912 0.930 . S
C918 C919 1.355 1_556 S
C918 C920 1.415 . S
C919 C918 1.355 1_554 S
C919 C921 1.419 . S
C920 C918 1.415 . S
C920 C925 1.425 1_556 S
C920 C927 1.409 . S
C921 H913 0.930 . S
C921 C919 1.419 . S
C921 C922 1.362 . S
C922 H914 0.930 . S
C922 C921 1.362 . S
C922 C925 1.409 . S
C923 H915 0.930 . S
C923 C924 1.355 1_554 S
C923 C925 1.415 . S
C924 C923 1.355 1_556 S
C924 C926 1.419 . S
C925 C920 1.425 1_554 S
C925 C922 1.409 . S
C925 C923 1.415 . S
C926 H916 0.930 . S
C926 C924 1.419 . S
C926 C927 1.362 . S
C927 H917 0.930 . S
C927 C920 1.409 . S
C927 C926 1.362 . S
H928 C934 0.930 . S
H929 C937 0.930 . S
H930 C938 0.930 . S
H931 C939 0.930 . S
H932 C942 0.930 . S
H933 C943 0.930 . S
C934 H928 0.930 . S
C934 C935 1.355 . S
C934 C936 1.415 . S
C935 C934 1.355 . S
C935 C937 1.419 1_655 S
C936 C934 1.415 . S
C936 C941 1.425 1_655 S
C936 C943 1.409 . S
C937 H929 0.930 . S
C937 C935 1.419 1_455 S
C937 C938 1.362 . S
C938 H930 0.930 . S
C938 C937 1.362 . S
C938 C941 1.409 . S
C939 H931 0.930 . S
C939 C940 1.355 . S
C939 C941 1.415 . S
C940 C939 1.355 . S
C940 C942 1.419 1_455 S
C941 C936 1.425 1_455 S
C941 C938 1.409 . S
C941 C939 1.415 . S
C942 H932 0.930 . S
C942 C940 1.419 1_655 S
C942 C943 1.362 . S
C943 H933 0.930 . S
C943 C936 1.409 . S
C943 C942 1.362 . S
H944 C950 0.930 . S
H945 C953 0.930 . S
H946 C954 0.930 . S
H947 C955 0.930 . S
H948 C958 0.930 . S
H949 C959 0.930 . S
C950 H944 0.930 . S
C950 C951 1.355 1_545 S
C950 C952 1.415 . S
C951 C950 1.355 1_565 S
C951 C953 1.419 . S
C952 C950 1.415 . S
C952 C957 1.425 1_545 S
C952 C959 1.409 . S
C953 H945 0.930 . S
C953 C951 1.419 . S
C953 C954 1.362 . S
C954 H946 0.930 . S
C954 C953 1.362 . S
C954 C957 1.409 . S
C955 H947 0.930 . S
C955 C956 1.355 1_565 S
C955 C957 1.415 . S
C956 C955 1.355 1_545 S
C956 C958 1.419 . S
C957 C952 1.425 1_565 S
C957 C954 1.409 . S
C957 C955 1.415 . S
C958 H948 0.930 . S
C958 C956 1.419 . S
C958 C959 1.362 . S
C959 H949 0.930 . S
C959 C952 1.409 . S
C959 C958 1.362 . S
H960 C966 0.930 . S
H961 C969 0.930 . S
H962 C970 0.930 . S
H963 C971 0.930 . S
H964 C974 0.930 . S
H965 C975 0.930 . S
C966 H960 0.930 . S
C966 C967 1.355 . S
C966 C968 1.414 . S
C967 C966 1.355 . S
C967 C969 1.419 . S
C968 C966 1.414 . S
C968 C973 1.425 1_655 S
C968 C975 1.410 1_655 S
C969 H961 0.930 . S
C969 C967 1.419 . S
C969 C970 1.362 . S
C970 H962 0.930 . S
C970 C969 1.362 . S
C970 C973 1.410 1_655 S
C971 H963 0.930 . S
C971 C972 1.355 . S
C971 C973 1.414 . S
C972 C971 1.355 . S
C972 C974 1.419 . S
C973 C968 1.425 1_455 S
C973 C970 1.410 1_455 S
C973 C971 1.414 . S
C974 H964 0.930 . S
C974 C972 1.419 . S
C974 C975 1.362 . S
C975 H965 0.930 . S
C975 C968 1.410 1_455 S
C975 C974 1.362 . S
H976 C982 0.930 . S
H977 C985 0.930 . S
H978 C986 0.930 . S
H979 C987 0.930 . S
H980 C990 0.930 . S
H981 C991 0.930 . S
C982 H976 0.930 . S
C982 C983 1.355 . S
C982 C984 1.415 . S
C983 C982 1.355 . S
C983 C985 1.419 1_545 S
C984 C982 1.415 . S
C984 C989 1.425 1_545 S
C984 C991 1.409 . S
C985 H977 0.930 . S
C985 C983 1.419 1_565 S
C985 C986 1.362 . S
C986 H978 0.930 . S
C986 C985 1.362 . S
C986 C989 1.409 . S
C987 H979 0.930 . S
C987 C988 1.355 . S
C987 C989 1.415 . S
C988 C987 1.355 . S
C988 C990 1.419 1_565 S
C989 C984 1.425 1_565 S
C989 C986 1.409 . S
C989 C987 1.415 . S
C990 H980 0.930 . S
C990 C988 1.419 1_545 S
C990 C991 1.362 . S
C991 H981 0.930 . S
C991 C984 1.409 . S
C991 C990 1.362 . S
H992 C998 0.930 . S
H993 C1001 0.930 . S
H994 C1002 0.930 . S
H995 C1003 0.930 . S
H996 C1006 0.930 . S
H997 C1007 0.930 . S
C998 H992 0.930 . S
C998 C999 1.362 . S
C998 C1000 1.415 . S
C999 C998 1.362 . S
C999 C1001 1.409 1_655 S
C1000 C998 1.415 . S
C1000 C1005 1.425 1_655 S
C1000 C1007 1.409 . S
C1001 H993 0.930 . S
C1001 C999 1.409 1_455 S
C1001 C1002 1.362 . S
C1002 H994 0.930 . S
C1002 C1001 1.362 . S
C1002 C1005 1.409 . S
C1003 H995 0.930 . S
C1003 C1004 1.362 . S
C1003 C1005 1.415 . S
C1004 C1003 1.362 . S
C1004 C1006 1.409 1_455 S
C1005 C1000 1.425 1_455 S
C1005 C1002 1.409 . S
C1005 C1003 1.415 . S
C1006 H996 0.930 . S
C1006 C1004 1.409 1_655 S
C1006 C1007 1.362 . S
C1007 H997 0.930 . S
C1007 C1000 1.409 . S
C1007 C1006 1.362 . S
H1008 C1014 0.930 . S
H1009 C1017 0.930 . S
H1010 C1018 0.930 . S
H1011 C1019 0.930 . S
H1012 C1022 0.930 . S
H1013 C1023 0.930 . S
C1014 H1008 0.930 . S
C1014 C1015 1.355 1_565 S
C1014 C1016 1.415 . S
C1015 C1014 1.355 1_545 S
C1015 C1017 1.419 . S
C1016 C1014 1.415 . S
C1016 C1021 1.425 1_565 S
C1016 C1023 1.409 . S
C1017 H1009 0.930 . S
C1017 C1015 1.419 . S
C1017 C1018 1.362 . S
C1018 H1010 0.930 . S
C1018 C1017 1.362 . S
C1018 C1021 1.409 . S
C1019 H1011 0.930 . S
C1019 C1020 1.355 1_545 S
C1019 C1021 1.415 . S
C1020 C1019 1.355 1_565 S
C1020 C1022 1.419 . S
C1021 C1016 1.425 1_545 S
C1021 C1018 1.409 . S
C1021 C1019 1.415 . S
C1022 H1012 0.930 . S
C1022 C1020 1.419 . S
C1022 C1023 1.362 . S
C1023 H1013 0.930 . S
C1023 C1016 1.409 . S
C1023 C1022 1.362 . S
H1024 C1030 0.930 . S
H1025 C1033 0.930 . S
H1026 C1034 0.930 . S
H1027 C1035 0.930 . S
H1028 C1038 0.930 . S
H1029 C1039 0.930 . S
C1030 H1024 0.930 . S
C1030 C1031 1.355 . S
C1030 C1032 1.415 . S
C1031 C1030 1.355 . S
C1031 C1033 1.419 1_455 S
C1032 C1030 1.415 . S
C1032 C1037 1.425 1_455 S
C1032 C1039 1.409 . S
C1033 H1025 0.930 . S
C1033 C1031 1.419 1_655 S
C1033 C1034 1.362 . S
C1034 H1026 0.930 . S
C1034 C1033 1.362 . S
C1034 C1037 1.409 . S
C1035 H1027 0.930 . S
C1035 C1036 1.355 . S
C1035 C1037 1.415 . S
C1036 C1035 1.355 . S
C1036 C1038 1.419 1_655 S
C1037 C1032 1.425 1_655 S
C1037 C1034 1.409 . S
C1037 C1035 1.415 . S
C1038 H1028 0.930 . S
C1038 C1036 1.419 1_455 S
C1038 C1039 1.362 . S
C1039 H1029 0.930 . S
C1039 C1032 1.409 . S
C1039 C1038 1.362 . S
H1040 C1046 0.930 . S
H1041 C1049 0.930 . S
H1042 C1050 0.930 . S
H1043 C1051 0.930 . S
H1044 C1054 0.930 . S
H1045 C1055 0.930 . S
C1046 H1040 0.930 . S
C1046 C1047 1.355 1_545 S
C1046 C1048 1.415 . S
C1047 C1046 1.355 1_565 S
C1047 C1049 1.419 . S
C1048 C1046 1.415 . S
C1048 C1053 1.425 1_545 S
C1048 C1055 1.409 . S
C1049 H1041 0.930 . S
C1049 C1047 1.419 . S
C1049 C1050 1.362 . S
C1050 H1042 0.930 . S
C1050 C1049 1.362 . S
C1050 C1053 1.409 . S
C1051 H1043 0.930 . S
C1051 C1052 1.355 1_565 S
C1051 C1053 1.415 . S
C1052 C1051 1.355 1_545 S
C1052 C1054 1.419 . S
C1053 C1048 1.425 1_565 S
C1053 C1050 1.409 . S
C1053 C1051 1.415 . S
C1054 H1044 0.930 . S
C1054 C1052 1.419 . S
C1054 C1055 1.362 . S
C1055 H1045 0.930 . S
C1055 C1048 1.409 . S
C1055 C1054 1.362 . S
H1056 C1062 0.930 . S
H1057 C1065 0.930 . S
H1058 C1066 0.930 . S
H1059 C1067 0.930 . S
H1060 C1070 0.930 . S
H1061 C1071 0.930 . S
C1062 H1056 0.930 . S
C1062 C1063 1.355 . S
C1062 C1064 1.415 . S
C1063 C1062 1.355 . S
C1063 C1065 1.419 . S
C1064 C1062 1.415 . S
C1064 C1069 1.425 . S
C1064 C1071 1.409 . S
C1065 H1057 0.930 . S
C1065 C1063 1.419 . S
C1065 C1066 1.362 . S
C1066 H1058 0.930 . S
C1066 C1065 1.362 . S
C1066 C1069 1.409 . S
C1067 H1059 0.930 . S
C1067 C1068 1.355 . S
C1067 C1069 1.415 . S
C1068 C1067 1.355 . S
C1068 C1070 1.419 . S
C1069 C1064 1.425 . S
C1069 C1066 1.409 . S
C1069 C1067 1.415 . S
C1070 H1060 0.930 . S
C1070 C1068 1.419 . S
C1070 C1071 1.362 . S
C1071 H1061 0.930 . S
C1071 C1064 1.409 . S
C1071 C1070 1.362 . S
H1072 C1078 0.930 . S
H1073 C1081 0.930 . S
H1074 C1082 0.930 . S
H1075 C1083 0.930 . S
H1076 C1086 0.930 . S
H1077 C1087 0.930 . S
C1078 H1072 0.930 . S
C1078 C1079 1.355 . S
C1078 C1080 1.415 . S
C1079 C1078 1.355 . S
C1079 C1081 1.419 . S
C1080 C1078 1.415 . S
C1080 C1085 1.425 . S
C1080 C1087 1.409 . S
C1081 H1073 0.930 . S
C1081 C1079 1.419 . S
C1081 C1082 1.362 . S
C1082 H1074 0.930 . S
C1082 C1081 1.362 . S
C1082 C1085 1.409 . S
C1083 H1075 0.930 . S
C1083 C1084 1.355 . S
C1083 C1085 1.415 . S
C1084 C1083 1.355 . S
C1084 C1086 1.419 . S
C1085 C1080 1.425 . S
C1085 C1082 1.409 . S
C1085 C1083 1.415 . S
C1086 H1076 0.930 . S
C1086 C1084 1.419 . S
C1086 C1087 1.362 . S
C1087 H1077 0.930 . S
C1087 C1080 1.409 . S
C1087 C1086 1.362 . S
H1088 C1094 0.930 . S
H1089 C1097 0.930 . S
H1090 C1098 0.930 . S
H1091 C1099 0.930 . S
H1092 C1102 0.930 . S
H1093 C1103 0.930 . S
C1094 H1088 0.930 . S
C1094 C1095 1.355 . S
C1094 C1096 1.415 . S
C1095 C1094 1.355 . S
C1095 C1097 1.419 . S
C1096 C1094 1.415 . S
C1096 C1101 1.425 . S
C1096 C1103 1.409 . S
C1097 H1089 0.930 . S
C1097 C1095 1.419 . S
C1097 C1098 1.362 . S
C1098 H1090 0.930 . S
C1098 C1097 1.362 . S
C1098 C1101 1.409 . S
C1099 H1091 0.930 . S
C1099 C1100 1.355 . S
C1099 C1101 1.415 . S
C1100 C1099 1.355 . S
C1100 C1102 1.419 . S
C1101 C1096 1.425 . S
C1101 C1098 1.409 . S
C1101 C1099 1.415 . S
C1102 H1092 0.930 . S
C1102 C1100 1.419 . S
C1102 C1103 1.362 . S
C1103 H1093 0.930 . S
C1103 C1096 1.409 . S
C1103 C1102 1.362 . S
H1104 C1110 0.930 . S
H1105 C1113 0.930 . S
H1106 C1114 0.930 . S
H1107 C1115 0.930 . S
H1108 C1118 0.930 . S
H1109 C1119 0.930 . S
C1110 H1104 0.930 . S
C1110 C1111 1.355 . S
C1110 C1112 1.415 . S
C1111 C1110 1.355 . S
C1111 C1113 1.419 . S
C1112 C1110 1.415 . S
C1112 C1117 1.425 . S
C1112 C1119 1.409 . S
C1113 H1105 0.930 . S
C1113 C1111 1.419 . S
C1113 C1114 1.362 . S
C1114 H1106 0.930 . S
C1114 C1113 1.362 . S
C1114 C1117 1.409 . S
C1115 H1107 0.930 . S
C1115 C1116 1.355 . S
C1115 C1117 1.415 . S
C1116 C1115 1.355 . S
C1116 C1118 1.419 . S
C1117 C1112 1.425 . S
C1117 C1114 1.409 . S
C1117 C1115 1.415 . S
C1118 H1108 0.930 . S
C1118 C1116 1.419 . S
C1118 C1119 1.362 . S
C1119 H1109 0.930 . S
C1119 C1112 1.409 . S
C1119 C1118 1.362 . S
H1120 C1126 0.930 . S
H1121 C1129 0.930 . S
H1122 C1130 0.930 . S
H1123 C1131 0.930 . S
H1124 C1134 0.930 . S
H1125 C1135 0.930 . S
C1126 H1120 0.930 . S
C1126 C1127 1.355 . S
C1126 C1128 1.415 . S
C1127 C1126 1.355 . S
C1127 C1129 1.419 . S
C1128 C1126 1.415 . S
C1128 C1133 1.425 . S
C1128 C1135 1.409 . S
C1129 H1121 0.930 . S
C1129 C1127 1.419 . S
C1129 C1130 1.362 . S
C1130 H1122 0.930 . S
C1130 C1129 1.362 . S
C1130 C1133 1.409 . S
C1131 H1123 0.930 . S
C1131 C1132 1.355 . S
C1131 C1133 1.415 . S
C1132 C1131 1.355 . S
C1132 C1134 1.419 . S
C1133 C1128 1.425 . S
C1133 C1130 1.409 . S
C1133 C1131 1.415 . S
C1134 H1124 0.930 . S
C1134 C1132 1.419 . S
C1134 C1135 1.362 . S
C1135 H1125 0.930 . S
C1135 C1128 1.409 . S
C1135 C1134 1.362 . S
H1136 C1142 0.930 . S
H1137 C1145 0.930 . S
H1138 C1146 0.930 . S
H1139 C1147 0.930 . S
H1140 C1150 0.930 . S
H1141 C1151 0.930 . S
C1142 H1136 0.930 . S
C1142 C1143 1.355 . S
C1142 C1144 1.415 . S
C1143 C1142 1.355 . S
C1143 C1145 1.419 . S
C1144 C1142 1.415 . S
C1144 C1149 1.425 . S
C1144 C1151 1.409 . S
C1145 H1137 0.930 . S
C1145 C1143 1.419 . S
C1145 C1146 1.362 . S
C1146 H1138 0.930 . S
C1146 C1145 1.362 . S
C1146 C1149 1.409 . S
C1147 H1139 0.930 . S
C1147 C1148 1.355 . S
C1147 C1149 1.415 . S
C1148 C1147 1.355 . S
C1148 C1150 1.419 . S
C1149 C1144 1.425 . S
C1149 C1146 1.409 . S
C1149 C1147 1.415 . S
C1150 H1140 0.930 . S
C1150 C1148 1.419 . S
C1150 C1151 1.362 . S
C1151 H1141 0.930 . S
C1151 C1144 1.409 . S
C1151 C1150 1.362 . S
H1152 C1158 0.930 . S
H1153 C1161 0.930 . S
H1154 C1162 0.930 . S
H1155 C1163 0.930 . S
H1156 C1166 0.930 . S
H1157 C1167 0.930 . S
C1158 H1152 0.930 . S
C1158 C1159 1.355 . S
C1158 C1160 1.415 . S
C1159 C1158 1.355 . S
C1159 C1161 1.419 . S
C1160 C1158 1.415 . S
C1160 C1165 1.425 . S
C1160 C1167 1.409 . S
C1161 H1153 0.930 . S
C1161 C1159 1.419 . S
C1161 C1162 1.362 . S
C1162 H1154 0.930 . S
C1162 C1161 1.362 . S
C1162 C1165 1.409 . S
C1163 H1155 0.930 . S
C1163 C1164 1.355 . S
C1163 C1165 1.415 . S
C1164 C1163 1.355 . S
C1164 C1166 1.419 . S
C1165 C1160 1.425 . S
C1165 C1162 1.409 . S
C1165 C1163 1.415 . S
C1166 H1156 0.930 . S
C1166 C1164 1.419 . S
C1166 C1167 1.362 . S
C1167 H1157 0.930 . S
C1167 C1160 1.409 . S
C1167 C1166 1.362 . S
H1168 C1174 0.930 . S
H1169 C1177 0.930 . S
H1170 C1178 0.930 . S
H1171 C1179 0.930 . S
H1172 C1182 0.930 . S
H1173 C1183 0.930 . S
C1174 H1168 0.930 . S
C1174 C1175 1.355 . S
C1174 C1176 1.415 . S
C1175 C1174 1.355 . S
C1175 C1177 1.419 . S
C1176 C1174 1.415 . S
C1176 C1181 1.425 . S
C1176 C1183 1.409 . S
C1177 H1169 0.930 . S
C1177 C1175 1.419 . S
C1177 C1178 1.362 . S
C1178 H1170 0.930 . S
C1178 C1177 1.362 . S
C1178 C1181 1.409 . S
C1179 H1171 0.930 . S
C1179 C1180 1.355 . S
C1179 C1181 1.415 . S
C1180 C1179 1.355 . S
C1180 C1182 1.419 . S
C1181 C1176 1.425 . S
C1181 C1178 1.409 . S
C1181 C1179 1.415 . S
C1182 H1172 0.930 . S
C1182 C1180 1.419 . S
C1182 C1183 1.362 . S
C1183 H1173 0.930 . S
C1183 C1176 1.409 . S
C1183 C1182 1.362 . S
C551 C9 1.362 . S
C556 C519 1.428 . S
C567 C43 1.361 . S
C572 C417 1.442 . S
C583 C451 1.366 . S
C588 C77 1.419 . S
C599 C111 1.427 . S
C604 C485 1.363 . S
C615 C145 1.413 . S
C620 C315 1.437 . S
C631 C349 1.367 . S
C636 C179 1.416 . S
C647 C383 1.371 . S
C652 C213 1.410 . S
C663 C281 1.431 . S
C668 C247 1.361 . S
C679 C107 1.512 . S
C684 C33 1.518 . S
C695 C5 1.519 . S
C700 C67 1.537 . S
C711 C101 1.511 . S
C716 C39 1.533 . S
C727 C135 1.531 . S
C732 C73 1.512 . S
C743 C175 1.529 . S
C748 C169 1.536 . S
C759 C209 1.535 . S
C764 C203 1.513 . S
C775 C243 1.537 . S
C780 C237 1.518 . S
C791 C141 1.511 . S
C796 C271 1.522 . S
C807 C379 1.513 . S
C812 C305 1.532 . S
C823 C339 1.509 . S
C828 C277 1.521 . S
C839 C311 1.516 . S
C844 C373 1.512 . S
C855 C345 1.517 . S
C860 C407 1.536 . S
C871 C447 1.517 . S
C876 C441 1.536 . S
C887 C481 1.518 . S
C892 C475 1.536 . S
C903 C515 1.521 . S
C908 C509 1.537 . S
C919 C413 1.523 . S
C924 C543 1.537 . S
C935 C206 1.398 . S
C940 C2 1.392 . S
C951 C240 1.419 . S
C956 C36 1.385 . S
C967 C70 1.386 . S
C972 C138 1.419 . S
C983 C172 1.389 . S
C988 C104 1.401 . S
C999 C88 1.525 . S
C1004 C156 1.521 . S
C1015 C190 1.512 . S
C1020 C122 1.503 . S
C1031 C20 1.531 . S
C1036 C224 1.500 . S
C1047 C258 1.506 . S
C1052 C54 1.508 . S
C1063 C478 1.396 . S
C1068 C274 1.394 . S
C1079 C512 1.415 . S
C1084 C308 1.395 . S
C1095 C410 1.396 . S
C1100 C342 1.415 . S
C1111 C376 1.398 . S
C1116 C444 1.392 . S
C1127 C428 1.501 . S
C1132 C360 1.531 . S
C1143 C394 1.498 . S
C1148 C462 1.530 . S
C1159 C292 1.528 . S
C1164 C496 1.497 . S
C1175 C530 1.529 . S
C1180 C326 1.510 . S
