# Generated by pormake.
# Topology ukn, (4)-cn, num edge types: 1
# Building blocks:
#     Node 0, Type 0, BuildingBlock: QUQFOY_clean_sbu_1, # of connection points: 4
#     Node 1, Type 0, BuildingBlock: QUQFOY_clean_sbu_1, # of connection points: 4
#     Node 2, Type 0, BuildingBlock: QUQFOY_clean_sbu_1, # of connection points: 4
#     Node 3, Type 0, BuildingBlock: QUQFOY_clean_sbu_1, # of connection points: 4
#     Node 4, Type 0, BuildingBlock: QUQFOY_clean_sbu_1, # of connection points: 4
#     Node 5, Type 0, BuildingBlock: QUQFOY_clean_sbu_1, # of connection points: 4
#     Node 6, Type 0, BuildingBlock: QUQFOY_clean_sbu_1, # of connection points: 4
#     Node 7, Type 0, BuildingBlock: QUQFOY_clean_sbu_1, # of connection points: 4
#     Node 8, Type 0, BuildingBlock: QUQFOY_clean_sbu_1, # of connection points: 4
#     Node 9, Type 0, BuildingBlock: QUQFOY_clean_sbu_1, # of connection points: 4
#     Node 10, Type 0, BuildingBlock: QUQFOY_clean_sbu_1, # of connection points: 4
#     Node 11, Type 0, BuildingBlock: QUQFOY_clean_sbu_1, # of connection points: 4
#     Node 12, Type 0, BuildingBlock: QUQFOY_clean_sbu_1, # of connection points: 4
#     Node 13, Type 0, BuildingBlock: QUQFOY_clean_sbu_1, # of connection points: 4
#     Node 14, Type 0, BuildingBlock: QUQFOY_clean_sbu_1, # of connection points: 4
#     Node 15, Type 0, BuildingBlock: QUQFOY_clean_sbu_1, # of connection points: 4
#     Node 16, Type 0, BuildingBlock: QUQFOY_clean_sbu_1, # of connection points: 4
#     Node 17, Type 0, BuildingBlock: QUQFOY_clean_sbu_1, # of connection points: 4
#     Node 18, Type 0, BuildingBlock: QUQFOY_clean_sbu_1, # of connection points: 4
#     Node 19, Type 0, BuildingBlock: QUQFOY_clean_sbu_1, # of connection points: 4
#     Node 20, Type 0, BuildingBlock: QUQFOY_clean_sbu_1, # of connection points: 4
#     Node 21, Type 0, BuildingBlock: QUQFOY_clean_sbu_1, # of connection points: 4
#     Node 22, Type 0, BuildingBlock: QUQFOY_clean_sbu_1, # of connection points: 4
#     Node 23, Type 0, BuildingBlock: QUQFOY_clean_sbu_1, # of connection points: 4
#     Node 24, Type 0, BuildingBlock: QUQFOY_clean_sbu_1, # of connection points: 4
#     Node 25, Type 0, BuildingBlock: QUQFOY_clean_sbu_1, # of connection points: 4
#     Node 26, Type 0, BuildingBlock: QUQFOY_clean_sbu_1, # of connection points: 4
#     Node 27, Type 0, BuildingBlock: QUQFOY_clean_sbu_1, # of connection points: 4
#     Node 28, Type 0, BuildingBlock: QUQFOY_clean_sbu_1, # of connection points: 4
#     Node 29, Type 0, BuildingBlock: QUQFOY_clean_sbu_1, # of connection points: 4
#     Node 30, Type 0, BuildingBlock: QUQFOY_clean_sbu_1, # of connection points: 4
#     Node 31, Type 0, BuildingBlock: QUQFOY_clean_sbu_1, # of connection points: 4
#     Node 32, Type 0, BuildingBlock: QUQFOY_clean_sbu_1, # of connection points: 4
#     Node 33, Type 0, BuildingBlock: QUQFOY_clean_sbu_1, # of connection points: 4
#     Node 34, Type 0, BuildingBlock: QUQFOY_clean_sbu_1, # of connection points: 4
#     Node 35, Type 0, BuildingBlock: QUQFOY_clean_sbu_1, # of connection points: 4
#     Edge 36, Type (0, 0), BuildingBlock: XIVTED_clean_linker_0, # of connection points: 2
#     Edge 37, Type (0, 0), BuildingBlock: XIVTED_clean_linker_0, # of connection points: 2
#     Edge 38, Type (0, 0), BuildingBlock: XIVTED_clean_linker_0, # of connection points: 2
#     Edge 39, Type (0, 0), BuildingBlock: XIVTED_clean_linker_0, # of connection points: 2
#     Edge 40, Type (0, 0), BuildingBlock: XIVTED_clean_linker_0, # of connection points: 2
#     Edge 41, Type (0, 0), BuildingBlock: XIVTED_clean_linker_0, # of connection points: 2
#     Edge 42, Type (0, 0), BuildingBlock: XIVTED_clean_linker_0, # of connection points: 2
#     Edge 43, Type (0, 0), BuildingBlock: XIVTED_clean_linker_0, # of connection points: 2
#     Edge 44, Type (0, 0), BuildingBlock: XIVTED_clean_linker_0, # of connection points: 2
#     Edge 45, Type (0, 0), BuildingBlock: XIVTED_clean_linker_0, # of connection points: 2
#     Edge 46, Type (0, 0), BuildingBlock: XIVTED_clean_linker_0, # of connection points: 2
#     Edge 47, Type (0, 0), BuildingBlock: XIVTED_clean_linker_0, # of connection points: 2
#     Edge 48, Type (0, 0), BuildingBlock: XIVTED_clean_linker_0, # of connection points: 2
#     Edge 49, Type (0, 0), BuildingBlock: XIVTED_clean_linker_0, # of connection points: 2
#     Edge 50, Type (0, 0), BuildingBlock: XIVTED_clean_linker_0, # of connection points: 2
#     Edge 51, Type (0, 0), BuildingBlock: XIVTED_clean_linker_0, # of connection points: 2
#     Edge 52, Type (0, 0), BuildingBlock: XIVTED_clean_linker_0, # of connection points: 2
#     Edge 53, Type (0, 0), BuildingBlock: XIVTED_clean_linker_0, # of connection points: 2
#     Edge 54, Type (0, 0), BuildingBlock: XIVTED_clean_linker_0, # of connection points: 2
#     Edge 55, Type (0, 0), BuildingBlock: XIVTED_clean_linker_0, # of connection points: 2
#     Edge 56, Type (0, 0), BuildingBlock: XIVTED_clean_linker_0, # of connection points: 2
#     Edge 57, Type (0, 0), BuildingBlock: XIVTED_clean_linker_0, # of connection points: 2
#     Edge 58, Type (0, 0), BuildingBlock: XIVTED_clean_linker_0, # of connection points: 2
#     Edge 59, Type (0, 0), BuildingBlock: XIVTED_clean_linker_0, # of connection points: 2
#     Edge 60, Type (0, 0), BuildingBlock: XIVTED_clean_linker_0, # of connection points: 2
#     Edge 61, Type (0, 0), BuildingBlock: XIVTED_clean_linker_0, # of connection points: 2
#     Edge 62, Type (0, 0), BuildingBlock: XIVTED_clean_linker_0, # of connection points: 2
#     Edge 63, Type (0, 0), BuildingBlock: XIVTED_clean_linker_0, # of connection points: 2
#     Edge 64, Type (0, 0), BuildingBlock: XIVTED_clean_linker_0, # of connection points: 2
#     Edge 65, Type (0, 0), BuildingBlock: XIVTED_clean_linker_0, # of connection points: 2
#     Edge 66, Type (0, 0), BuildingBlock: XIVTED_clean_linker_0, # of connection points: 2
#     Edge 67, Type (0, 0), BuildingBlock: XIVTED_clean_linker_0, # of connection points: 2
#     Edge 68, Type (0, 0), BuildingBlock: XIVTED_clean_linker_0, # of connection points: 2
#     Edge 69, Type (0, 0), BuildingBlock: XIVTED_clean_linker_0, # of connection points: 2
#     Edge 70, Type (0, 0), BuildingBlock: XIVTED_clean_linker_0, # of connection points: 2
#     Edge 71, Type (0, 0), BuildingBlock: XIVTED_clean_linker_0, # of connection points: 2
#     Edge 72, Type (0, 0), BuildingBlock: XIVTED_clean_linker_0, # of connection points: 2
#     Edge 73, Type (0, 0), BuildingBlock: XIVTED_clean_linker_0, # of connection points: 2
#     Edge 74, Type (0, 0), BuildingBlock: XIVTED_clean_linker_0, # of connection points: 2
#     Edge 75, Type (0, 0), BuildingBlock: XIVTED_clean_linker_0, # of connection points: 2
#     Edge 76, Type (0, 0), BuildingBlock: XIVTED_clean_linker_0, # of connection points: 2
#     Edge 77, Type (0, 0), BuildingBlock: XIVTED_clean_linker_0, # of connection points: 2
#     Edge 78, Type (0, 0), BuildingBlock: XIVTED_clean_linker_0, # of connection points: 2
#     Edge 79, Type (0, 0), BuildingBlock: XIVTED_clean_linker_0, # of connection points: 2
#     Edge 80, Type (0, 0), BuildingBlock: XIVTED_clean_linker_0, # of connection points: 2
#     Edge 81, Type (0, 0), BuildingBlock: XIVTED_clean_linker_0, # of connection points: 2
#     Edge 82, Type (0, 0), BuildingBlock: XIVTED_clean_linker_0, # of connection points: 2
#     Edge 83, Type (0, 0), BuildingBlock: XIVTED_clean_linker_0, # of connection points: 2
#     Edge 84, Type (0, 0), BuildingBlock: XIVTED_clean_linker_0, # of connection points: 2
#     Edge 85, Type (0, 0), BuildingBlock: XIVTED_clean_linker_0, # of connection points: 2
#     Edge 86, Type (0, 0), BuildingBlock: XIVTED_clean_linker_0, # of connection points: 2
#     Edge 87, Type (0, 0), BuildingBlock: XIVTED_clean_linker_0, # of connection points: 2
#     Edge 88, Type (0, 0), BuildingBlock: XIVTED_clean_linker_0, # of connection points: 2
#     Edge 89, Type (0, 0), BuildingBlock: XIVTED_clean_linker_0, # of connection points: 2
#     Edge 90, Type (0, 0), BuildingBlock: XIVTED_clean_linker_0, # of connection points: 2
#     Edge 91, Type (0, 0), BuildingBlock: XIVTED_clean_linker_0, # of connection points: 2
#     Edge 92, Type (0, 0), BuildingBlock: XIVTED_clean_linker_0, # of connection points: 2
#     Edge 93, Type (0, 0), BuildingBlock: XIVTED_clean_linker_0, # of connection points: 2
#     Edge 94, Type (0, 0), BuildingBlock: XIVTED_clean_linker_0, # of connection points: 2
#     Edge 95, Type (0, 0), BuildingBlock: XIVTED_clean_linker_0, # of connection points: 2
#     Edge 96, Type (0, 0), BuildingBlock: XIVTED_clean_linker_0, # of connection points: 2
#     Edge 97, Type (0, 0), BuildingBlock: XIVTED_clean_linker_0, # of connection points: 2
#     Edge 98, Type (0, 0), BuildingBlock: XIVTED_clean_linker_0, # of connection points: 2
#     Edge 99, Type (0, 0), BuildingBlock: XIVTED_clean_linker_0, # of connection points: 2
#     Edge 100, Type (0, 0), BuildingBlock: XIVTED_clean_linker_0, # of connection points: 2
#     Edge 101, Type (0, 0), BuildingBlock: XIVTED_clean_linker_0, # of connection points: 2
#     Edge 102, Type (0, 0), BuildingBlock: XIVTED_clean_linker_0, # of connection points: 2
#     Edge 103, Type (0, 0), BuildingBlock: XIVTED_clean_linker_0, # of connection points: 2
#     Edge 104, Type (0, 0), BuildingBlock: XIVTED_clean_linker_0, # of connection points: 2
#     Edge 105, Type (0, 0), BuildingBlock: XIVTED_clean_linker_0, # of connection points: 2
#     Edge 106, Type (0, 0), BuildingBlock: XIVTED_clean_linker_0, # of connection points: 2
#     Edge 107, Type (0, 0), BuildingBlock: XIVTED_clean_linker_0, # of connection points: 2
# Relax obj value: 0.012
# Max RMSD: 0.058
# Mean RMSD: 0.057
data_MOF--net-ukn--node1-QUQFOY_clean_sbu_1--edge1-XIVTED_clean_linker_0
_symmetry_space_group_name_H-M    P1
_symmetry_Int_Tables_number       1
_symmetry_cell_setting            triclinic
loop_
_symmetry_equiv_pos_as_xyz
'x, y, z'
_cell_length_a     109.89743
_cell_length_b     109.9103
_cell_length_c     28.523035
_cell_angle_alpha  90.023489
_cell_angle_beta   90.004218
_cell_angle_gamma 120.0063
loop_
_atom_site_label
_atom_site_type_symbol
_atom_site_fract_x
_atom_site_fract_y
_atom_site_fract_z
_atom_type_partial_charge
O0 O 0.10384 0.30524 0.10173 0.0
Cd1 Cd 0.0884 0.31064 0.09507 0.0
Cd2 Cd 0.07556 0.28533 0.05384 0.0
O3 O 0.09105 0.2827 0.08492 0.0
O4 O 0.09411 0.32666 0.1397 0.0
O5 O 0.07524 0.30582 0.15014 0.0
C6 C 0.08361 0.31834 0.16569 0.0
C7 C 0.05159 0.26968 0.05718 0.0
C8 C 0.10254 0.2931 0.09899 0.0
C9 C 0.08369 0.31 0.99187 0.0
O10 O 0.08097 0.29735 0.99429 0.0
O11 O 0.08566 0.31712 0.02922 0.0
O12 O 0.05984 0.26668 0.03407 0.0
O13 O 0.05715 0.28109 0.08182 0.0
O14 O 0.69737 0.79864 0.11881 0.0
Cd15 Cd 0.69017 0.77733 0.11437 0.0
Cd16 Cd 0.716 0.78881 0.06418 0.0
O17 O 0.71881 0.80765 0.08959 0.0
O18 O 0.67444 0.7687 0.161 0.0
O19 O 0.69426 0.76842 0.16977 0.0
C20 C 0.68216 0.76553 0.18635 0.0
C21 C 0.73452 0.7843 0.05541 0.0
C22 C 0.70925 0.80924 0.10889 0.0
C23 C 0.68849 0.77085 0.01189 0.0
O24 O 0.70161 0.77943 0.01139 0.0
O25 O 0.68171 0.7676 0.05038 0.0
O26 O 0.73352 0.79335 0.02951 0.0
O27 O 0.72557 0.77854 0.0891 0.0
O28 O 0.20312 0.89929 0.10983 0.0
Cd29 Cd 0.22427 0.91406 0.10544 0.0
Cd30 Cd 0.21198 0.92776 0.05789 0.0
O31 O 0.19344 0.91144 0.08378 0.0
O32 O 0.23342 0.90716 0.15065 0.0
O33 O 0.23284 0.92675 0.16177 0.0
C34 C 0.23619 0.91774 0.17711 0.0
C35 C 0.21644 0.95081 0.05244 0.0
C36 C 0.19227 0.90029 0.10156 0.0
C37 C 0.23035 0.91942 1.00296 0.0
O38 O 0.2212 0.92324 1.00333 0.0
O39 O 0.23412 0.91623 0.04106 0.0
O40 O 0.20723 0.94099 0.02615 0.0
O41 O 0.22238 0.94734 0.08477 0.0
O42 O 0.30579 0.10295 0.90219 0.0
Cd43 Cd 0.31225 0.08828 0.90777 0.0
Cd44 Cd 0.28614 0.07452 0.95495 0.0
O45 O 0.28405 0.09093 0.92909 0.0
O46 O 0.32838 0.09513 0.86299 0.0
O47 O 0.30834 0.07537 0.85216 0.0
C48 C 0.3207 0.08439 0.83693 0.0
C49 C 0.26738 0.05155 0.96049 0.0
C50 C 0.29398 0.102 0.91073 0.0
C51 C 0.31289 0.08307 1.01034 0.0
O52 O 0.29985 0.07892 1.00959 0.0
O53 O 0.31999 0.08653 0.97252 0.0
O54 O 0.26812 0.06143 0.98677 0.0
O55 O 0.27677 0.05492 0.92815 0.0
O56 O 0.8982 0.20308 0.91908 0.0
Cd57 Cd 0.91363 0.22389 0.92673 0.0
Cd58 Cd 0.92633 0.21122 0.96822 0.0
O59 O 0.9109 0.19325 0.93622 0.0
O60 O 0.90804 0.23432 0.8823 0.0
O61 O 0.92694 0.23239 0.87212 0.0
C62 C 0.91861 0.23659 0.85653 0.0
C63 C 0.95026 0.21916 0.96622 0.0
C64 C 0.89949 0.19222 0.92163 0.0
C65 C 0.91808 0.22772 0.03014 0.0
O66 O 0.9208 0.21779 0.02767 0.0
O67 O 0.91618 0.23293 0.99283 0.0
O68 O 0.94174 0.20789 0.98874 0.0
O69 O 0.94501 0.22528 0.94147 0.0
O70 O 0.79727 0.69487 0.9005 0.0
Cd71 Cd 0.77607 0.68825 0.90406 0.0
Cd72 Cd 0.78777 0.7141 0.9532 0.0
O73 O 0.80651 0.71647 0.92844 0.0
O74 O 0.76716 0.67263 0.8572 0.0
O75 O 0.76753 0.6928 0.84871 0.0
C76 C 0.76429 0.68061 0.832 0.0
C77 C 0.78385 0.73302 0.96149 0.0
C78 C 0.80797 0.70671 0.91015 0.0
C79 C 0.76933 0.6868 1.00593 0.0
O80 O 0.77808 0.69989 1.00627 0.0
O81 O 0.76608 0.67995 0.96761 0.0
O82 O 0.79272 0.73177 0.98758 0.0
O83 O 0.77794 0.72407 0.92785 0.0
O84 O 0.89805 0.69522 0.91109 0.0
Cd85 Cd 0.91325 0.68944 0.91656 0.0
Cd86 Cd 0.9265 0.71554 0.96154 0.0
O87 O 0.90998 0.7173 0.93483 0.0
O88 O 0.90696 0.67341 0.87157 0.0
O89 O 0.92618 0.69394 0.86081 0.0
C90 C 0.91751 0.68149 0.84536 0.0
C91 C 0.94956 0.73417 0.96471 0.0
C92 C 0.89886 0.70705 0.9179 0.0
C93 C 0.91878 0.68947 0.01906 0.0
O94 O 0.9223 0.70235 0.01759 0.0
O95 O 0.91569 0.68225 0.98151 0.0
O96 O 0.93988 0.73388 0.99098 0.0
O97 O 0.94591 0.72439 0.9336 0.0
O98 O 0.30598 0.20341 0.90259 0.0
Cd99 Cd 0.31274 0.22462 0.90725 0.0
Cd100 Cd 0.28666 0.21276 0.95558 0.0
O101 O 0.28432 0.19411 0.93004 0.0
O102 O 0.32857 0.23361 0.86123 0.0
O103 O 0.30853 0.23342 0.85186 0.0
C104 C 0.32076 0.23661 0.8357 0.0
C105 C 0.26774 0.21668 0.96366 0.0
C106 C 0.29409 0.1927 0.91162 0.0
C107 C 0.31383 0.23099 1.00944 0.0
O108 O 0.30073 0.2223 1.00915 0.0
O109 O 0.32083 0.23433 0.97144 0.0
O110 O 0.26891 0.20773 0.98956 0.0
O111 O 0.27676 0.22267 0.9303 0.0
O112 O 0.79789 0.10296 0.8982 0.0
Cd113 Cd 0.77678 0.08814 0.90262 0.0
Cd114 Cd 0.7889 0.07428 0.94969 0.0
O115 O 0.80749 0.09078 0.92451 0.0
O116 O 0.7675 0.09467 0.85665 0.0
O117 O 0.76822 0.07509 0.84717 0.0
C118 C 0.76475 0.08393 0.83106 0.0
C119 C 0.7848 0.05134 0.95549 0.0
C120 C 0.80872 0.10196 0.90682 0.0
C121 C 0.77056 0.08275 1.00471 0.0
O122 O 0.77945 0.07859 1.00411 0.0
O123 O 0.76702 0.08627 0.96684 0.0
O124 O 0.79385 0.06125 0.98188 0.0
O125 O 0.77882 0.05466 0.92288 0.0
O126 O 0.69853 0.89912 0.10874 0.0
Cd127 Cd 0.6915 0.91337 0.10331 0.0
Cd128 Cd 0.7176 0.92741 0.05503 0.0
O129 O 0.72026 0.91146 0.08196 0.0
O130 O 0.67512 0.90578 0.14744 0.0
O131 O 0.69473 0.92581 0.15989 0.0
C132 C 0.68243 0.91641 0.17437 0.0
C133 C 0.73583 0.95063 0.04878 0.0
C134 C 0.71047 0.90033 0.1005 0.0
C135 C 0.69068 0.91827 1.00023 0.0
O136 O 0.70372 0.92236 1.0006 0.0
O137 O 0.68374 0.9151 0.03839 0.0
O138 O 0.73544 0.94084 0.02288 0.0
O139 O 0.72642 0.94707 0.08113 0.0
O140 O 0.10253 0.79905 0.10793 0.0
Cd141 Cd 0.08791 0.77786 0.1037 0.0
Cd142 Cd 0.07397 0.78978 0.05615 0.0
O143 O 0.09018 0.80848 0.0817 0.0
O144 O 0.09465 0.76896 0.15052 0.0
O145 O 0.07485 0.76931 0.15908 0.0
C146 C 0.08386 0.76617 0.17592 0.0
C147 C 0.05083 0.78507 0.05103 0.0
C148 C 0.1014 0.80981 0.0995 0.0
C149 C 0.08264 0.77159 1.00144 0.0
O150 O 0.07859 0.78057 1.00177 0.0
O151 O 0.08598 0.76797 0.03956 0.0
O152 O 0.06054 0.79425 0.02437 0.0
O153 O 0.05445 0.7793 0.08344 0.0
O154 O 0.20435 0.3055 0.11117 0.0
Cd155 Cd 0.22539 0.31148 0.10647 0.0
Cd156 Cd 0.21272 0.28528 0.06079 0.0
O157 O 0.1944 0.28342 0.08751 0.0
O158 O 0.23489 0.32753 0.1516 0.0
O159 O 0.23379 0.30711 0.16262 0.0
C160 C 0.23742 0.31953 0.17801 0.0
C161 C 0.21678 0.26642 0.05499 0.0
C162 C 0.1934 0.29362 0.10421 0.0
C163 C 0.2311 0.31162 1.0041 0.0
O164 O 0.2218 0.2987 1.00538 0.0
O165 O 0.23514 0.3188 0.04174 0.0
O166 O 0.20748 0.26711 0.02943 0.0
O167 O 0.22301 0.27589 0.08695 0.0
O168 O 0.76936 0.63833 0.43414 0.0
Cd169 Cd 0.75382 0.6436 0.42753 0.0
Cd170 Cd 0.74116 0.61826 0.38604 0.0
O171 O 0.75666 0.61576 0.41767 0.0
O172 O 0.75947 0.65961 0.47214 0.0
O173 O 0.74068 0.63871 0.48269 0.0
C174 C 0.749 0.65126 0.49821 0.0
C175 C 0.71724 0.60225 0.38754 0.0
C176 C 0.76812 0.62621 0.43162 0.0
C177 C 0.74922 0.64298 0.32433 0.0
O178 O 0.74667 0.63038 0.32672 0.0
O179 O 0.75102 0.65004 0.3617 0.0
O180 O 0.72581 0.59954 0.36515 0.0
O181 O 0.72244 0.61357 0.4126 0.0
O182 O 0.36174 0.13097 0.43964 0.0
Cd183 Cd 0.35635 0.11017 0.4319 0.0
Cd184 Cd 0.38183 0.12289 0.39135 0.0
O185 O 0.38433 0.14085 0.42335 0.0
O186 O 0.3405 0.09982 0.47706 0.0
O187 O 0.36133 0.10166 0.48597 0.0
C188 C 0.34891 0.09757 0.50236 0.0
C189 C 0.39794 0.11509 0.39289 0.0
C190 C 0.37389 0.14184 0.4375 0.0
C191 C 0.35715 0.10654 0.32861 0.0
O192 O 0.36983 0.1164 0.3317 0.0
O193 O 0.34989 0.10125 0.36558 0.0
O194 O 0.40061 0.12638 0.37066 0.0
O195 O 0.38658 0.10887 0.4177 0.0
O196 O 0.87052 0.23129 0.45563 0.0
Cd197 Cd 0.89161 0.24616 0.45119 0.0
Cd198 Cd 0.87941 0.25975 0.40279 0.0
O199 O 0.86086 0.24332 0.42838 0.0
O200 O 0.90089 0.23982 0.49783 0.0
O201 O 0.9001 0.2594 0.50619 0.0
C202 C 0.90359 0.25064 0.52291 0.0
C203 C 0.88336 0.28261 0.39552 0.0
C204 C 0.85966 0.23221 0.44663 0.0
C205 C 0.89789 0.2512 0.34904 0.0
O206 O 0.88893 0.25526 0.34902 0.0
O207 O 0.90146 0.24788 0.38728 0.0
O208 O 0.87436 0.27255 0.36948 0.0
O209 O 0.88938 0.27949 0.42857 0.0
O210 O 0.97105 0.43521 0.24655 0.0
Cd211 Cd 0.97789 0.4208 0.25055 0.0
Cd212 Cd 0.95173 0.40646 0.29799 0.0
O213 O 0.94923 0.42264 0.27233 0.0
O214 O 0.99358 0.42776 0.20371 0.0
O215 O 0.97356 0.40786 0.19484 0.0
C216 C 0.98567 0.41699 0.17807 0.0
C217 C 0.93308 0.38345 0.30517 0.0
C218 C 0.95909 0.43393 0.2548 0.0
C219 C 0.97872 0.41538 0.35282 0.0
O220 O 0.96566 0.41116 0.3521 0.0
O221 O 0.98581 0.41889 0.31493 0.0
O222 O 0.93392 0.39343 0.3311 0.0
O223 O 0.94228 0.38671 0.27225 0.0
O224 O 0.56436 0.53575 0.24029 0.0
Cd225 Cd 0.57949 0.55666 0.24777 0.0
Cd226 Cd 0.59265 0.54446 0.28932 0.0
O227 O 0.57735 0.52627 0.25792 0.0
O228 O 0.57384 0.56687 0.20259 0.0
O229 O 0.59299 0.56531 0.1937 0.0
C230 C 0.58457 0.56931 0.17743 0.0
C231 C 0.61662 0.55257 0.28834 0.0
C232 C 0.56584 0.52501 0.24333 0.0
C233 C 0.58367 0.56051 0.35108 0.0
O234 O 0.58691 0.55094 0.34847 0.0
O235 O 0.58152 0.56556 0.31386 0.0
O236 O 0.60809 0.54132 0.3109 0.0
O237 O 0.61137 0.55856 0.2629 0.0
O238 O 0.46492 0.02921 0.25159 0.0
Cd239 Cd 0.44418 0.02404 0.25924 0.0
Cd240 Cd 0.45712 0.04934 0.30049 0.0
O241 O 0.47503 0.05178 0.26838 0.0
O242 O 0.43363 0.00785 0.2155 0.0
O243 O 0.43568 0.02869 0.20419 0.0
C244 C 0.43141 0.01609 0.18922 0.0
C245 C 0.44878 0.06497 0.2977 0.0
C246 C 0.47589 0.04129 0.25395 0.0
C247 C 0.44058 0.02478 0.36271 0.0
O248 O 0.45066 0.03735 0.36012 0.0
O249 O 0.43518 0.01771 0.32544 0.0
O250 O 0.46013 0.06802 0.32025 0.0
O251 O 0.44284 0.05353 0.27321 0.0
O252 O 0.56465 0.02863 0.25031 0.0
Cd253 Cd 0.57989 0.02296 0.25723 0.0
Cd254 Cd 0.59294 0.04829 0.29884 0.0
O255 O 0.57761 0.05113 0.26752 0.0
O256 O 0.57389 0.00679 0.21311 0.0
O257 O 0.59297 0.02743 0.20208 0.0
C258 C 0.58444 0.01489 0.18695 0.0
C259 C 0.61692 0.06396 0.29638 0.0
C260 C 0.56609 0.04084 0.25317 0.0
C261 C 0.58444 0.02346 0.36051 0.0
O262 O 0.58734 0.03617 0.35822 0.0
O263 O 0.58242 0.01636 0.32311 0.0
O264 O 0.60859 0.06688 0.31934 0.0
O265 O 0.61145 0.05261 0.27143 0.0
O266 O 0.971 0.53543 0.2469 0.0
Cd267 Cd 0.97745 0.55659 0.25166 0.0
Cd268 Cd 0.95149 0.54431 0.29915 0.0
O269 O 0.94919 0.52575 0.27303 0.0
O270 O 0.99355 0.56572 0.20657 0.0
O271 O 0.97343 0.56523 0.19535 0.0
C272 C 0.98578 0.56853 0.18007 0.0
C273 C 0.93306 0.54903 0.30389 0.0
C274 C 0.95915 0.52458 0.25507 0.0
C275 C 0.97817 0.56254 0.35433 0.0
O276 O 0.9652 0.55341 0.3539 0.0
O277 O 0.98513 0.56636 0.31622 0.0
O278 O 0.93349 0.53976 0.33037 0.0
O279 O 0.94257 0.55489 0.27183 0.0
O280 O 0.4644 0.43626 0.24838 0.0
Cd281 Cd 0.44361 0.42094 0.25707 0.0
Cd282 Cd 0.45643 0.4083 0.29794 0.0
O283 O 0.47429 0.42359 0.26503 0.0
O284 O 0.43317 0.42638 0.21204 0.0
O285 O 0.43489 0.40731 0.20337 0.0
C286 C 0.43082 0.41566 0.18693 0.0
C287 C 0.4485 0.38437 0.29709 0.0
C288 C 0.47526 0.43496 0.25033 0.0
C289 C 0.44029 0.41688 0.36062 0.0
O290 O 0.45014 0.41406 0.35751 0.0
O291 O 0.43489 0.41871 0.32364 0.0
O292 O 0.45987 0.39301 0.31892 0.0
O293 O 0.44226 0.38949 0.27228 0.0
O294 O 0.3625 0.23128 0.43785 0.0
Cd295 Cd 0.35712 0.24671 0.43058 0.0
Cd296 Cd 0.38261 0.25956 0.39083 0.0
O297 O 0.38515 0.24416 0.42294 0.0
O298 O 0.3409 0.24095 0.47435 0.0
O299 O 0.36172 0.25978 0.48586 0.0
C300 C 0.34912 0.25139 0.5008 0.0
C301 C 0.39823 0.28355 0.39371 0.0
C302 C 0.37468 0.23263 0.43631 0.0
C303 C 0.35823 0.25139 0.32732 0.0
O304 O 0.37085 0.25404 0.33064 0.0
O305 O 0.35095 0.2495 0.36419 0.0
O306 O 0.40132 0.27524 0.37142 0.0
O307 O 0.38674 0.27805 0.41792 0.0
O308 O 0.77037 0.13108 0.43406 0.0
Cd309 Cd 0.75498 0.11027 0.42619 0.0
Cd310 Cd 0.74209 0.12292 0.38622 0.0
O311 O 0.75751 0.14084 0.41849 0.0
O312 O 0.7607 0.09977 0.4699 0.0
O313 O 0.74181 0.10167 0.48112 0.0
C314 C 0.7502 0.09748 0.49613 0.0
C315 C 0.71814 0.11483 0.38872 0.0
C316 C 0.769 0.1419 0.43235 0.0
C317 C 0.75032 0.10671 0.32284 0.0
O318 O 0.74758 0.11661 0.3261 0.0
O319 O 0.75229 0.10139 0.35972 0.0
O320 O 0.72659 0.1262 0.36656 0.0
O321 O 0.72348 0.10868 0.41293 0.0
O322 O 0.87013 0.63902 0.44376 0.0
Cd323 Cd 0.89116 0.64496 0.43892 0.0
Cd324 Cd 0.87861 0.61884 0.39393 0.0
O325 O 0.86022 0.61694 0.42018 0.0
O326 O 0.90074 0.66098 0.48407 0.0
O327 O 0.89957 0.64052 0.49482 0.0
C328 C 0.90326 0.65294 0.51031 0.0
C329 C 0.88299 0.60018 0.3904 0.0
C330 C 0.85919 0.62714 0.4368 0.0
C331 C 0.89688 0.64502 0.33662 0.0
O332 O 0.88765 0.63209 0.33805 0.0
O333 O 0.90087 0.65226 0.37416 0.0
O334 O 0.87367 0.60057 0.36404 0.0
O335 O 0.88908 0.60988 0.42177 0.0
O336 O 0.43686 0.97302 0.78863 0.0
Cd337 Cd 0.42231 0.97966 0.78359 0.0
Cd338 Cd 0.40843 0.95387 0.73474 0.0
O339 O 0.42471 0.95147 0.76018 0.0
O340 O 0.42901 0.99547 0.82963 0.0
O341 O 0.40916 0.97539 0.83859 0.0
C342 C 0.41813 0.98764 0.85486 0.0
C343 C 0.38542 0.93521 0.72819 0.0
C344 C 0.4358 0.96121 0.77917 0.0
C345 C 0.41732 0.98099 0.68127 0.0
O346 O 0.41302 0.96791 0.68109 0.0
O347 O 0.4208 0.98786 0.71955 0.0
O348 O 0.39532 0.93606 0.70176 0.0
O349 O 0.38878 0.94442 0.76117 0.0
O350 O 0.03137 0.4654 0.77662 0.0
Cd351 Cd 0.02456 0.44415 0.77206 0.0
Cd352 Cd 0.05088 0.4562 0.7257 0.0
O353 O 0.05332 0.47481 0.75192 0.0
O354 O 0.00816 0.43527 0.81614 0.0
O355 O 0.02796 0.43525 0.82913 0.0
C356 C 0.01559 0.43221 0.84344 0.0
C357 C 0.06924 0.45138 0.72039 0.0
C358 C 0.04336 0.47614 0.76907 0.0
C359 C 0.02428 0.43835 0.66935 0.0
O360 O 0.0373 0.44733 0.67053 0.0
O361 O 0.01711 0.43452 0.70705 0.0
O362 O 0.06888 0.46077 0.6944 0.0
O363 O 0.05973 0.44547 0.75242 0.0
O364 O 0.53669 0.56374 0.78078 0.0
Cd365 Cd 0.55767 0.57863 0.77313 0.0
Cd366 Cd 0.54573 0.5921 0.73116 0.0
O367 O 0.52744 0.57687 0.76225 0.0
O368 O 0.56773 0.57278 0.81832 0.0
O369 O 0.56653 0.59214 0.82712 0.0
C370 C 0.57036 0.58359 0.84342 0.0
C371 C 0.5538 0.61608 0.73188 0.0
C372 C 0.52604 0.56535 0.77731 0.0
C373 C 0.56164 0.58282 0.66978 0.0
O374 O 0.55225 0.5863 0.67223 0.0
O375 O 0.56652 0.58048 0.70707 0.0
O376 O 0.5426 0.60751 0.70916 0.0
O377 O 0.55979 0.61087 0.75754 0.0
O378 O 0.63762 0.76901 0.58389 0.0
Cd379 Cd 0.64377 0.75413 0.59065 0.0
Cd380 Cd 0.61842 0.74077 0.63364 0.0
O381 O 0.61522 0.75587 0.60233 0.0
O382 O 0.65989 0.76044 0.54594 0.0
O383 O 0.63944 0.74109 0.53535 0.0
C384 C 0.65186 0.74984 0.51981 0.0
C385 C 0.6027 0.71675 0.63331 0.0
C386 C 0.62536 0.7674 0.58736 0.0
C387 C 0.64364 0.74986 0.6942 0.0
O388 O 0.63086 0.74675 0.69227 0.0
O389 O 0.65066 0.75189 0.65658 0.0
O390 O 0.59995 0.72527 0.65585 0.0
O391 O 0.61388 0.72201 0.60758 0.0
O392 O 0.23285 0.86991 0.57884 0.0
Cd393 Cd 0.2475 0.8911 0.58316 0.0
Cd394 Cd 0.26145 0.87907 0.63035 0.0
O395 O 0.24526 0.86045 0.60425 0.0
O396 O 0.24048 0.90015 0.53794 0.0
O397 O 0.26016 0.89972 0.52684 0.0
C398 C 0.25109 0.90298 0.5115 0.0
C399 C 0.28461 0.88385 0.63569 0.0
C400 C 0.23401 0.85914 0.5868 0.0
C401 C 0.25285 0.89718 0.6856 0.0
O402 O 0.25677 0.8881 0.68513 0.0
O403 O 0.24963 0.90094 0.64754 0.0
O404 O 0.27486 0.87453 0.66188 0.0
O405 O 0.28102 0.88972 0.60351 0.0
O406 O 0.13178 0.36165 0.56748 0.0
Cd407 Cd 0.11062 0.3552 0.57143 0.0
Cd408 Cd 0.12251 0.38097 0.62028 0.0
O409 O 0.14121 0.38325 0.59554 0.0
O410 O 0.10156 0.33957 0.52466 0.0
O411 O 0.1021 0.35982 0.5162 0.0
C412 C 0.09876 0.34761 0.49949 0.0
C413 C 0.11834 0.39975 0.62703 0.0
C414 C 0.14255 0.37344 0.57708 0.0
C415 C 0.10402 0.35382 0.67342 0.0
O416 O 0.11286 0.36688 0.6737 0.0
O417 O 0.10067 0.34696 0.63511 0.0
O418 O 0.12727 0.39875 0.65359 0.0
O419 O 0.11252 0.39063 0.5938 0.0
O420 O 0.2328 0.36263 0.57956 0.0
Cd421 Cd 0.24775 0.35651 0.58449 0.0
Cd422 Cd 0.2614 0.38274 0.63047 0.0
O423 O 0.24498 0.38467 0.6037 0.0
O424 O 0.24115 0.34046 0.53936 0.0
O425 O 0.26056 0.36081 0.52848 0.0
C426 C 0.25172 0.34841 0.51305 0.0
C427 C 0.28431 0.40159 0.63651 0.0
C428 C 0.23378 0.37453 0.58669 0.0
C429 C 0.25332 0.35632 0.68691 0.0
O430 O 0.25702 0.36925 0.68571 0.0
O431 O 0.2501 0.34914 0.64925 0.0
O432 O 0.27432 0.40087 0.66209 0.0
O433 O 0.28109 0.39216 0.60442 0.0
O434 O 0.6375 0.86871 0.5752 0.0
Cd435 Cd 0.64429 0.88992 0.5803 0.0
Cd436 Cd 0.61841 0.87789 0.62861 0.0
O437 O 0.61577 0.85924 0.60202 0.0
O438 O 0.66003 0.89877 0.53373 0.0
O439 O 0.64005 0.89873 0.525 0.0
C440 C 0.65216 0.90173 0.50827 0.0
C441 C 0.60015 0.88284 0.6348 0.0
C442 C 0.6256 0.85794 0.58355 0.0
C443 C 0.64542 0.89582 0.68305 0.0
O444 O 0.63238 0.88687 0.6828 0.0
O445 O 0.65232 0.89958 0.6448 0.0
O446 O 0.6006 0.87351 0.6609 0.0
O447 O 0.60953 0.88864 0.60232 0.0
O448 O 0.13235 0.76956 0.57657 0.0
Cd449 Cd 0.11117 0.75488 0.58125 0.0
Cd450 Cd 0.12356 0.7411 0.62876 0.0
O451 O 0.14206 0.75745 0.60267 0.0
O452 O 0.10211 0.76217 0.53714 0.0
O453 O 0.10231 0.74245 0.52444 0.0
C454 C 0.0991 0.75164 0.51006 0.0
C455 C 0.11923 0.71809 0.63453 0.0
C456 C 0.14321 0.76858 0.58479 0.0
C457 C 0.10525 0.7495 0.68393 0.0
O458 O 0.11437 0.74564 0.68339 0.0
O459 O 0.10145 0.75271 0.64591 0.0
O460 O 0.12843 0.72798 0.66064 0.0
O461 O 0.11321 0.72147 0.6022 0.0
O462 O 0.03065 0.56527 0.77861 0.0
Cd463 Cd 0.02401 0.57984 0.77408 0.0
Cd464 Cd 0.05006 0.59375 0.72594 0.0
O465 O 0.0524 0.5775 0.7519 0.0
O466 O 0.00792 0.57274 0.81928 0.0
O467 O 0.02794 0.59249 0.83042 0.0
C468 C 0.01563 0.58337 0.84574 0.0
C469 C 0.06867 0.61679 0.71966 0.0
C470 C 0.04252 0.56635 0.77008 0.0
C471 C 0.02315 0.5851 0.6715 0.0
O472 O 0.03616 0.58909 0.67173 0.0
O473 O 0.01621 0.58183 0.70966 0.0
O474 O 0.06795 0.6069 0.69349 0.0
O475 O 0.05937 0.61341 0.75228 0.0
O476 O 0.43625 0.46422 0.78818 0.0
Cd477 Cd 0.4216 0.44311 0.78189 0.0
Cd478 Cd 0.40799 0.45566 0.73446 0.0
O479 O 0.42431 0.47405 0.76152 0.0
O480 O 0.42838 0.43375 0.82656 0.0
O481 O 0.4086 0.43398 0.83718 0.0
C482 C 0.41761 0.43063 0.85247 0.0
C483 C 0.3851 0.45164 0.72725 0.0
C484 C 0.43533 0.47512 0.78008 0.0
C485 C 0.4167 0.43758 0.67905 0.0
O486 O 0.4126 0.44651 0.6799 0.0
O487 O 0.42 0.43379 0.71689 0.0
O488 O 0.39519 0.46083 0.70178 0.0
O489 O 0.3882 0.44546 0.75979 0.0
O490 O 0.53659 0.9717 0.786 0.0
Cd491 Cd 0.55774 0.97821 0.78115 0.0
Cd492 Cd 0.54573 0.95242 0.73283 0.0
O493 O 0.52707 0.95003 0.75855 0.0
O494 O 0.56688 0.99408 0.827 0.0
O495 O 0.56652 0.97395 0.8365 0.0
C496 C 0.56982 0.98623 0.85255 0.0
C497 C 0.55029 0.93388 0.72685 0.0
C498 C 0.52579 0.95987 0.77705 0.0
C499 C 0.5639 0.97941 0.67881 0.0
O500 O 0.55502 0.96636 0.6788 0.0
O501 O 0.56746 0.9863 0.71706 0.0
O502 O 0.54112 0.93455 0.70046 0.0
O503 O 0.55613 0.9432 0.75949 0.0
H504 H 0.10579 0.27025 0.08155 0.0
H505 H 0.18752 0.31235 0.1469 0.0
H506 H 0.12749 0.31225 0.13875 0.0
H507 H 0.16735 0.27149 0.08102 0.0
H508 H 0.16477 0.31094 0.15355 0.0
H509 H 0.12733 0.26903 0.09034 0.0
C510 C 0.11501 0.27914 0.09649 0.0
C511 C 0.11486 0.29143 0.10897 0.0
C512 C 0.16527 0.30222 0.13793 0.0
C513 C 0.13953 0.29011 0.11895 0.0
C514 C 0.17829 0.30301 0.13412 0.0
C515 C 0.1794 0.29208 0.11287 0.0
C516 C 0.15321 0.29045 0.12014 0.0
C517 C 0.16701 0.2802 0.09742 0.0
C518 C 0.12732 0.27845 0.10136 0.0
C519 C 0.12713 0.30261 0.12817 0.0
N520 N 0.15444 0.27976 0.10094 0.0
N521 N 0.13896 0.30171 0.13225 0.0
H522 H 0.69277 0.81648 0.15968 0.0
H523 H 0.73218 0.89631 0.07235 0.0
H524 H 0.7306 0.83455 0.07623 0.0
H525 H 0.69328 0.87661 0.15021 0.0
H526 H 0.73366 0.87491 0.08163 0.0
H527 H 0.69476 0.83951 0.16508 0.0
C528 C 0.70158 0.82532 0.14277 0.0
C529 C 0.71144 0.82352 0.11698 0.0
C530 C 0.72489 0.87535 0.09705 0.0
C531 C 0.71372 0.85002 0.12271 0.0
C532 C 0.72405 0.88757 0.09188 0.0
C533 C 0.7125 0.88821 0.11007 0.0
C534 C 0.71412 0.86372 0.12069 0.0
C535 C 0.70229 0.87656 0.13508 0.0
C536 C 0.70271 0.8385 0.14586 0.0
C537 C 0.72271 0.83543 0.09629 0.0
N538 N 0.7033 0.8648 0.13934 0.0
N539 N 0.72346 0.84815 0.09915 0.0
H540 H 0.10506 0.83552 0.0729 0.0
H541 H 0.18596 0.87622 0.14874 0.0
H542 H 0.12581 0.81639 0.14496 0.0
H543 H 0.16647 0.89608 0.07348 0.0
H544 H 0.16315 0.85496 0.15538 0.0
H545 H 0.12653 0.85842 0.0803 0.0
C546 C 0.11405 0.83614 0.09073 0.0
C547 C 0.11366 0.82397 0.1079 0.0
C548 C 0.16381 0.86398 0.13769 0.0
C549 C 0.13825 0.85011 0.11632 0.0
C550 C 0.17686 0.87616 0.13388 0.0
C551 C 0.17819 0.88793 0.11006 0.0
C552 C 0.15193 0.86346 0.11727 0.0
C553 C 0.16596 0.88724 0.09196 0.0
C554 C 0.12631 0.84921 0.09484 0.0
C555 C 0.12564 0.82543 0.13073 0.0
N556 N 0.15335 0.87515 0.09551 0.0
N557 N 0.13744 0.83822 0.13397 0.0
H558 H 0.31163 0.12588 0.86246 0.0
H559 H 0.27204 0.16711 0.93909 0.0
H560 H 0.27254 0.10639 0.93927 0.0
H561 H 0.31168 0.18589 0.86552 0.0
H562 H 0.27046 0.14414 0.93193 0.0
H563 H 0.31018 0.14719 0.85551 0.0
C564 C 0.30266 0.12603 0.87759 0.0
C565 C 0.29226 0.11435 0.90194 0.0
C566 C 0.27942 0.15328 0.917 0.0
C567 C 0.29059 0.13887 0.89438 0.0
C568 C 0.28033 0.1664 0.92097 0.0
C569 C 0.29209 0.1785 0.90331 0.0
C570 C 0.29035 0.15227 0.89517 0.0
C571 C 0.30248 0.17691 0.88012 0.0
C572 C 0.30184 0.13823 0.8736 0.0
C573 C 0.28083 0.11516 0.92038 0.0
N574 N 0.30141 0.16409 0.87704 0.0
N575 N 0.28037 0.12727 0.91664 0.0
H576 H 0.81512 0.1266 0.86328 0.0
H577 H 0.89611 0.16605 0.93848 0.0
H578 H 0.83449 0.10579 0.9335 0.0
H579 H 0.87485 0.1866 0.8798 0.0
H580 H 0.87468 0.14331 0.92725 0.0
H581 H 0.83793 0.14796 0.85909 0.0
C582 C 0.82419 0.12647 0.87749 0.0
C583 C 0.82282 0.11439 0.89928 0.0
C584 C 0.87477 0.1528 0.91646 0.0
C585 C 0.84908 0.13897 0.89486 0.0
C586 C 0.88701 0.16578 0.92273 0.0
C587 C 0.88724 0.17828 0.91051 0.0
C588 C 0.86271 0.15232 0.89769 0.0
C589 C 0.87514 0.17728 0.89022 0.0
C590 C 0.83724 0.13871 0.87512 0.0
C591 C 0.83502 0.11487 0.91663 0.0
N592 N 0.86337 0.16456 0.88474 0.0
N593 N 0.84762 0.127 0.91447 0.0
H594 H 0.83348 0.72889 0.93768 0.0
H595 H 0.8748 0.68855 0.872 0.0
H596 H 0.81491 0.68882 0.86681 0.0
H597 H 0.89436 0.72873 0.94233 0.0
H598 H 0.85344 0.68982 0.86305 0.0
H599 H 0.85644 0.73036 0.93294 0.0
C600 C 0.83424 0.72048 0.92064 0.0
C601 C 0.82219 0.70864 0.90303 0.0
C602 C 0.86242 0.69843 0.88016 0.0
C603 C 0.84842 0.71024 0.89773 0.0
C604 C 0.87465 0.69771 0.88532 0.0
C605 C 0.88638 0.70849 0.90838 0.0
C606 C 0.8618 0.70997 0.89847 0.0
C607 C 0.88556 0.72014 0.92448 0.0
C608 C 0.84735 0.72132 0.91806 0.0
C609 C 0.82384 0.69809 0.88129 0.0
N610 N 0.87343 0.72051 0.91963 0.0
N611 N 0.83666 0.6991 0.87958 0.0
H612 H 0.85327 0.6459 0.47898 0.0
H613 H 0.77146 0.6034 0.41473 0.0
H614 H 0.83316 0.60492 0.41401 0.0
H615 H 0.79308 0.64552 0.47092 0.0
H616 H 0.79308 0.6023 0.42349 0.0
H617 H 0.83049 0.64443 0.48565 0.0
C618 C 0.84404 0.63653 0.4664 0.0
C619 C 0.84518 0.62558 0.44541 0.0
C620 C 0.79303 0.61172 0.43429 0.0
C621 C 0.81895 0.62386 0.45271 0.0
C622 C 0.78068 0.61234 0.42944 0.0
C623 C 0.78049 0.62463 0.44165 0.0
C624 C 0.80524 0.62345 0.45157 0.0
C625 C 0.79276 0.63589 0.46056 0.0
C626 C 0.83101 0.63569 0.47022 0.0
C627 C 0.8328 0.61364 0.4302 0.0
N628 N 0.80463 0.63505 0.46462 0.0
N629 N 0.82021 0.61316 0.43374 0.0
H630 H 0.35474 0.14736 0.4787 0.0
H631 H 0.39773 0.22953 0.42139 0.0
H632 H 0.39657 0.16805 0.42017 0.0
H633 H 0.35527 0.20757 0.47459 0.0
H634 H 0.39891 0.20797 0.43033 0.0
H635 H 0.35622 0.1701 0.48731 0.0
C636 C 0.3643 0.15671 0.46801 0.0
C637 C 0.37548 0.15576 0.44815 0.0
C638 C 0.3894 0.20793 0.44049 0.0
C639 C 0.3772 0.18193 0.45756 0.0
C640 C 0.38873 0.22025 0.43552 0.0
C641 C 0.37632 0.22032 0.44674 0.0
C642 C 0.37759 0.19563 0.45687 0.0
C643 C 0.365 0.20798 0.46495 0.0
C644 C 0.36514 0.16972 0.47293 0.0
C645 C 0.38766 0.16828 0.43543 0.0
N646 N 0.36588 0.19614 0.46909 0.0
N647 N 0.38814 0.18084 0.43985 0.0
H648 H 0.85332 0.20764 0.49055 0.0
H649 H 0.77225 0.16805 0.41634 0.0
H650 H 0.83386 0.22831 0.42 0.0
H651 H 0.79372 0.14753 0.47351 0.0
H652 H 0.79365 0.19081 0.42756 0.0
H653 H 0.83053 0.18627 0.495 0.0
C654 C 0.84424 0.20774 0.47632 0.0
C655 C 0.84557 0.21978 0.45436 0.0
C656 C 0.79361 0.18132 0.43802 0.0
C657 C 0.81934 0.19519 0.45909 0.0
C658 C 0.78139 0.16833 0.43177 0.0
C659 C 0.78122 0.15584 0.44355 0.0
C660 C 0.80572 0.18182 0.45636 0.0
C661 C 0.79338 0.15685 0.46343 0.0
C662 C 0.8312 0.19549 0.47884 0.0
C663 C 0.83336 0.21927 0.437 0.0
N664 N 0.80513 0.16958 0.46891 0.0
N665 N 0.82077 0.20712 0.43932 0.0
H666 H 0.97675 0.51833 0.20663 0.0
H667 H 0.93699 0.43743 0.2821 0.0
H668 H 0.93766 0.49876 0.28344 0.0
H669 H 0.9767 0.45835 0.20906 0.0
H670 H 0.93542 0.45883 0.27519 0.0
H671 H 0.97522 0.49554 0.19928 0.0
C672 C 0.96777 0.50921 0.2217 0.0
C673 C 0.9574 0.51051 0.24616 0.0
C674 C 0.9444 0.45867 0.26031 0.0
C675 C 0.95563 0.48428 0.23814 0.0
C676 C 0.94529 0.44644 0.26413 0.0
C677 C 0.95707 0.44612 0.24658 0.0
C678 C 0.95535 0.47063 0.23872 0.0
C679 C 0.96749 0.45813 0.2236 0.0
C680 C 0.9669 0.49617 0.21747 0.0
C681 C 0.94594 0.49827 0.26448 0.0
N682 N 0.96643 0.46988 0.22065 0.0
N683 N 0.94543 0.48568 0.26052 0.0
H684 H 0.56288 0.49908 0.26181 0.0
H685 H 0.4806 0.45921 0.20646 0.0
H686 H 0.54082 0.51883 0.20325 0.0
H687 H 0.50154 0.43867 0.26767 0.0
H688 H 0.5033 0.48036 0.19557 0.0
H689 H 0.54136 0.47622 0.25484 0.0
C690 C 0.55359 0.49861 0.24687 0.0
C691 C 0.55362 0.51093 0.23363 0.0
C692 C 0.50298 0.47121 0.21103 0.0
C693 C 0.52897 0.48483 0.2258 0.0
C694 C 0.48999 0.4591 0.21728 0.0
C695 C 0.48913 0.44718 0.23855 0.0
C696 C 0.51527 0.47151 0.2265 0.0
C697 C 0.5017 0.44764 0.25135 0.0
C698 C 0.54129 0.48555 0.24304 0.0
C699 C 0.54127 0.50965 0.21445 0.0
N700 N 0.51425 0.45967 0.24564 0.0
N701 N 0.52945 0.49688 0.21151 0.0
H702 H 0.56328 0.06398 0.26985 0.0
H703 H 0.48111 0.02204 0.21196 0.0
H704 H 0.54096 0.02182 0.2141 0.0
H705 H 0.50223 0.06371 0.2718 0.0
H706 H 0.50371 0.02323 0.20301 0.0
H707 H 0.54188 0.06548 0.26154 0.0
C708 C 0.55395 0.05511 0.25531 0.0
C709 C 0.55388 0.04269 0.24316 0.0
C710 C 0.50345 0.03218 0.21775 0.0
C711 C 0.52937 0.04433 0.23377 0.0
C712 C 0.49052 0.03151 0.22287 0.0
C713 C 0.48974 0.04273 0.24319 0.0
C714 C 0.51575 0.04412 0.23338 0.0
C715 C 0.50233 0.05478 0.25619 0.0
C716 C 0.54173 0.05596 0.25069 0.0
C717 C 0.54149 0.03155 0.22444 0.0
N718 N 0.51482 0.0551 0.25156 0.0
N719 N 0.52974 0.0326 0.22068 0.0
H720 H 0.45978 0.9785 0.82773 0.0
H721 H 0.50005 0.9381 0.74921 0.0
H722 H 0.43984 0.93964 0.7496 0.0
H723 H 0.51931 0.97758 0.82381 0.0
H724 H 0.47724 0.93687 0.75655 0.0
H725 H 0.48089 0.97668 0.83431 0.0
C726 C 0.45979 0.96951 0.81223 0.0
C727 C 0.44804 0.95928 0.78764 0.0
C728 C 0.48645 0.94572 0.77167 0.0
C729 C 0.47234 0.95718 0.79478 0.0
C730 C 0.49947 0.94642 0.76761 0.0
C731 C 0.51166 0.95804 0.7855 0.0
C732 C 0.48562 0.95671 0.79384 0.0
C733 C 0.51025 0.96849 0.80902 0.0
C734 C 0.47188 0.96847 0.816 0.0
C735 C 0.44867 0.9478 0.7687 0.0
N736 N 0.49752 0.96762 0.81219 0.0
N737 N 0.46067 0.94713 0.77226 0.0
H738 H 0.02505 0.54241 0.81836 0.0
H739 H 0.0654 0.50186 0.74245 0.0
H740 H 0.06412 0.56222 0.74144 0.0
H741 H 0.02555 0.4827 0.81474 0.0
H742 H 0.06677 0.52474 0.74967 0.0
H743 H 0.02677 0.52126 0.82543 0.0
C744 C 0.03406 0.54236 0.80321 0.0
C745 C 0.04438 0.55408 0.7788 0.0
C746 C 0.0578 0.51554 0.76432 0.0
C747 C 0.04636 0.52973 0.78651 0.0
C748 C 0.05703 0.50247 0.76033 0.0
C749 C 0.04526 0.4903 0.77757 0.0
C750 C 0.04675 0.51642 0.78578 0.0
C751 C 0.03475 0.49175 0.80044 0.0
C752 C 0.03504 0.53024 0.80727 0.0
C753 C 0.05588 0.55341 0.76037 0.0
N754 N 0.0357 0.50452 0.80356 0.0
N755 N 0.0565 0.54138 0.76418 0.0
H756 H 0.45928 0.48113 0.82763 0.0
H757 H 0.50023 0.56241 0.75667 0.0
H758 H 0.43964 0.5011 0.75384 0.0
H759 H 0.5196 0.54067 0.82044 0.0
H760 H 0.47724 0.54111 0.76518 0.0
H761 H 0.4806 0.50385 0.83526 0.0
C762 C 0.45939 0.49031 0.81333 0.0
C763 C 0.44767 0.48915 0.78954 0.0
C764 C 0.48652 0.54107 0.77773 0.0
C765 C 0.47222 0.5153 0.79791 0.0
C766 C 0.49965 0.55324 0.77304 0.0
C767 C 0.5119 0.55329 0.7874 0.0
C768 C 0.48565 0.5289 0.79705 0.0
C769 C 0.51048 0.54109 0.80837 0.0
C770 C 0.47161 0.50332 0.81769 0.0
C771 C 0.44845 0.50148 0.77222 0.0
N772 N 0.49764 0.5294 0.81224 0.0
N773 N 0.46057 0.51404 0.77631 0.0
H774 H 0.64296 0.8515 0.53444 0.0
H775 H 0.60269 0.77054 0.60934 0.0
H776 H 0.60398 0.83217 0.61186 0.0
H777 H 0.64342 0.79186 0.54282 0.0
H778 H 0.60106 0.79188 0.60064 0.0
H779 H 0.64129 0.82866 0.52709 0.0
C780 C 0.63397 0.84243 0.54963 0.0
C781 C 0.62368 0.84381 0.57434 0.0
C782 C 0.61028 0.79181 0.58754 0.0
C783 C 0.62176 0.81751 0.56631 0.0
C784 C 0.6112 0.77962 0.59233 0.0
C785 C 0.62328 0.77946 0.57726 0.0
C786 C 0.6215 0.80387 0.56736 0.0
C787 C 0.63397 0.79154 0.55548 0.0
C788 C 0.63302 0.82935 0.54541 0.0
C789 C 0.6122 0.83161 0.59274 0.0
N790 N 0.63286 0.80325 0.5515 0.0
N791 N 0.61162 0.81898 0.5888 0.0
H792 H 0.14945 0.79265 0.5377 0.0
H793 H 0.23044 0.83341 0.61258 0.0
H794 H 0.16905 0.77282 0.61253 0.0
H795 H 0.2095 0.85259 0.542 0.0
H796 H 0.20899 0.8105 0.60513 0.0
H797 H 0.17223 0.81394 0.53101 0.0
C798 C 0.15857 0.79272 0.55246 0.0
C799 C 0.15728 0.78095 0.57618 0.0
C800 C 0.20916 0.81972 0.59092 0.0
C801 C 0.18351 0.80546 0.5689 0.0
C802 C 0.22141 0.8328 0.59505 0.0
C803 C 0.22175 0.84499 0.57832 0.0
C804 C 0.19718 0.81883 0.56985 0.0
C805 C 0.20972 0.84353 0.55589 0.0
C806 C 0.17161 0.80492 0.54862 0.0
C807 C 0.16953 0.78167 0.59413 0.0
N808 N 0.19793 0.83074 0.55261 0.0
N809 N 0.18212 0.79377 0.59055 0.0
H810 H 0.22988 0.39663 0.61035 0.0
H811 H 0.14922 0.35573 0.53118 0.0
H812 H 0.20937 0.3561 0.5423 0.0
H813 H 0.16815 0.39511 0.60634 0.0
H814 H 0.1721 0.35734 0.52662 0.0
H815 H 0.20833 0.39783 0.60118 0.0
C816 C 0.22092 0.38805 0.59305 0.0
C817 C 0.22141 0.37618 0.57749 0.0
C818 C 0.1713 0.3657 0.54384 0.0
C819 C 0.19673 0.37748 0.567 0.0
C820 C 0.15821 0.3648 0.54643 0.0
C821 C 0.1567 0.37523 0.56963 0.0
C822 C 0.18304 0.37709 0.56481 0.0
C823 C 0.1688 0.38679 0.58831 0.0
C824 C 0.20861 0.38873 0.58793 0.0
C825 C 0.20946 0.3654 0.55528 0.0
N826 N 0.18144 0.38734 0.5859 0.0
N827 N 0.19763 0.36628 0.55099 0.0
H828 H 0.03226 0.27812 0.06846 0.0
H829 H 0.96519 0.20655 0.99339 0.0
H830 H 0.03611 0.24238 0.0277 0.0
H831 H 0.96993 0.24694 0.95932 0.0
H832 H 0.98991 0.21835 0.01808 0.0
H833 H 0.00762 0.26545 0.04362 0.0
C834 C 0.02785 0.2675 0.05522 0.0
C835 C 0.03623 0.26127 0.05015 0.0
C836 C 0.98554 0.22458 1.00474 0.0
C837 C 0.00814 0.24682 0.0215 0.0
C838 C 0.97149 0.21787 0.9905 0.0
C839 C 0.96556 0.22579 0.97401 0.0
C840 C 0.99354 0.23929 1.00373 0.0
C841 C 0.97414 0.24043 0.97132 0.0
C842 C 0.01386 0.26037 0.04053 0.0
C843 C 0.03 0.24755 0.03215 0.0
N844 N 0.98765 0.24674 0.98669 0.0
N845 N 0.0163 0.24074 0.01856 0.0
H846 H 0.78734 0.74643 0.04494 0.0
H847 H 0.74759 0.7873 0.97155 0.0
H848 H 0.76984 0.74264 0.90664 0.0
H849 H 0.74385 0.77003 0.11017 0.0
H850 H 0.76153 0.77662 0.9475 0.0
H851 H 0.77716 0.76082 0.06882 0.0
C852 C 0.78159 0.74884 0.01929 0.0
C853 C 0.7794 0.7433 0.97368 0.0
C854 C 0.75778 0.77533 0.98329 0.0
C855 C 0.76784 0.75981 1.0009 0.0
C856 C 0.74992 0.78149 0.99722 0.0
C857 C 0.74452 0.77952 0.04299 0.0
C858 C 0.76052 0.7674 0.01557 0.0
C859 C 0.74777 0.77177 0.07456 0.0
C860 C 0.77571 0.75696 0.03313 0.0
C861 C 0.77174 0.74667 0.94213 0.0
N862 N 0.75559 0.766 0.06028 0.0
N863 N 0.76624 0.75474 0.95632 0.0
H864 H 0.23079 0.97388 0.10937 0.0
H865 H 0.2584 0.02844 0.90359 0.0
H866 H 0.2135 0.96162 0.97017 0.0
H867 H 0.25358 0.04086 0.04277 0.0
H868 H 0.24379 0.00371 0.92679 0.0
H869 H 0.2412 0.99864 0.08618 0.0
C870 C 0.22904 0.97639 0.07421 0.0
C871 C 0.22125 0.9657 0.0417 0.0
C872 C 0.2458 0.01189 0.95194 0.0
C873 C 0.2334 0.99385 0.01471 0.0
C874 C 0.25412 0.02597 0.93876 0.0
C875 C 0.25717 0.0367 0.97125 0.0
C876 C 0.24086 0.00858 0.99824 0.0
C877 C 0.25141 0.03292 0.0165 0.0
C878 C 0.23496 0.99048 0.06102 0.0
C879 C 0.21935 0.96954 0.99645 0.0
N880 N 0.24373 0.01917 0.02892 0.0
N881 N 0.22559 0.9833 0.98403 0.0
H882 H 0.97232 0.7423 0.90678 0.0
H883 H 0.02801 0.77112 0.10921 0.0
H884 H 0.96082 0.74869 0.04547 0.0
H885 H 0.03965 0.7874 0.96867 0.0
H886 H 0.00315 0.76068 0.08717 0.0
H887 H 0.9972 0.75684 0.92836 0.0
C888 C 0.97503 0.74691 0.94148 0.0
C889 C 0.96451 0.74433 0.97432 0.0
C890 C 0.01119 0.76671 0.06145 0.0
C891 C 0.9928 0.76054 0.99951 0.0
C892 C 0.02534 0.77264 0.07397 0.0
C893 C 0.03589 0.78017 0.04077 0.0
C894 C 0.00762 0.76798 0.01513 0.0
C895 C 0.03185 0.78176 0.99546 0.0
C896 C 0.98919 0.75518 0.95374 0.0
C897 C 0.96859 0.75049 0.01894 0.0
N898 N 0.01804 0.77552 0.98372 0.0
N899 N 0.98242 0.75812 0.03052 0.0
H900 H 0.25465 0.21355 0.04748 0.0
H901 H 0.21288 0.25224 0.97299 0.0
H902 H 0.25782 0.23031 0.90834 0.0
H903 H 0.23154 0.25775 0.11013 0.0
H904 H 0.22344 0.23813 0.94981 0.0
H905 H 0.24025 0.22376 0.07115 0.0
C906 C 0.25209 0.21914 0.02162 0.0
C907 C 0.25746 0.22112 0.97582 0.0
C908 C 0.22505 0.24229 0.98512 0.0
C909 C 0.24093 0.23268 1.00277 0.0
C910 C 0.21895 0.25025 0.99858 0.0
C911 C 0.22137 0.25621 0.0436 0.0
C912 C 0.23336 0.24002 0.0172 0.0
C913 C 0.22945 0.25338 0.07508 0.0
C914 C 0.24397 0.22503 0.03533 0.0
C915 C 0.25392 0.22858 0.94398 0.0
N916 N 0.23516 0.24546 0.0613 0.0
N917 N 0.24584 0.23408 0.95804 0.0
H918 H 0.77071 0.02816 0.89879 0.0
H919 H 0.74432 0.97375 0.10528 0.0
H920 H 0.78799 0.04075 0.03788 0.0
H921 H 0.7493 0.96146 0.96608 0.0
H922 H 0.75838 0.9985 0.08169 0.0
H923 H 0.76072 0.00346 0.9222 0.0
C924 C 0.77255 0.02573 0.93398 0.0
C925 C 0.78021 0.03651 0.96638 0.0
C926 C 0.75652 0.99034 0.05661 0.0
C927 C 0.76854 0.00842 0.99362 0.0
C928 C 0.74851 0.97626 0.07002 0.0
C929 C 0.74568 0.96555 0.03765 0.0
C930 C 0.76137 0.99369 1.01021 0.0
C931 C 0.75131 0.96938 0.99226 0.0
C932 C 0.76687 0.01168 0.94728 0.0
C933 C 0.78223 0.03278 0.01167 0.0
N934 N 0.75869 0.98314 0.97964 0.0
N935 N 0.77623 0.01905 0.0242 0.0
H936 H 0.63625 0.5803 0.2788 0.0
H937 H 0.70228 0.57478 0.35947 0.0
H938 H 0.6316 0.54038 0.31946 0.0
H939 H 0.69767 0.6105 0.3936 0.0
H940 H 0.67772 0.56212 0.333 0.0
H941 H 0.66067 0.59196 0.30599 0.0
C942 C 0.64045 0.57396 0.29252 0.0
C943 C 0.63191 0.55935 0.29686 0.0
C944 C 0.68208 0.57267 0.34677 0.0
C945 C 0.65973 0.57262 0.32818 0.0
C946 C 0.69604 0.57987 0.36204 0.0
C947 C 0.70197 0.59367 0.37902 0.0
C948 C 0.67418 0.5795 0.34725 0.0
C949 C 0.69346 0.59983 0.38124 0.0
C950 C 0.65431 0.58064 0.30856 0.0
C951 C 0.63784 0.55167 0.31553 0.0
N952 N 0.68005 0.59278 0.36485 0.0
N953 N 0.65143 0.55839 0.33042 0.0
H954 H 0.42096 0.05647 0.28753 0.0
H955 H 0.42544 0.12783 0.36514 0.0
H956 H 0.46063 0.09226 0.32745 0.0
H957 H 0.38995 0.08733 0.39923 0.0
H958 H 0.43837 0.11614 0.33941 0.0
H959 H 0.409 0.06904 0.31347 0.0
C960 C 0.42719 0.06708 0.30081 0.0
C961 C 0.44181 0.07335 0.30533 0.0
C962 C 0.4278 0.10986 0.353 0.0
C963 C 0.42819 0.08769 0.33525 0.0
C964 C 0.42045 0.1165 0.36784 0.0
C965 C 0.40664 0.10853 0.38461 0.0
C966 C 0.42113 0.09515 0.35371 0.0
C967 C 0.40063 0.09388 0.38702 0.0
C968 C 0.42034 0.07416 0.31614 0.0
C969 C 0.44933 0.08706 0.32341 0.0
N970 N 0.40783 0.08764 0.37107 0.0
N971 N 0.44244 0.09381 0.33764 0.0
H972 H 0.87993 0.29275 0.31248 0.0
H973 H 0.91958 0.37315 0.38821 0.0
H974 H 0.89736 0.30608 0.45106 0.0
H975 H 0.92397 0.36001 0.24966 0.0
H976 H 0.90552 0.34847 0.41135 0.0
H977 H 0.89019 0.31739 0.28934 0.0
C978 C 0.88568 0.30085 0.33835 0.0
C979 C 0.88783 0.29737 0.38381 0.0
C980 C 0.90943 0.35103 0.37577 0.0
C981 C 0.89947 0.32551 0.35746 0.0
C982 C 0.91736 0.36508 0.36234 0.0
C983 C 0.92298 0.36864 0.31689 0.0
C984 C 0.90684 0.34045 0.34325 0.0
C985 C 0.91987 0.35773 0.28504 0.0
C986 C 0.8916 0.31488 0.32493 0.0
C987 C 0.89549 0.30831 0.41567 0.0
N988 N 0.91197 0.34409 0.29881 0.0
N989 N 0.90103 0.32193 0.4019 0.0
H990 H 0.70302 0.12732 0.36244 0.0
H991 H 0.63636 0.05566 0.28532 0.0
H992 H 0.69864 0.08697 0.39486 0.0
H993 H 0.63223 0.0912 0.32657 0.0
H994 H 0.66096 0.06838 0.31067 0.0
H995 H 0.67832 0.11541 0.33755 0.0
C996 C 0.6968 0.11598 0.36495 0.0
C997 C 0.70283 0.10811 0.381 0.0
C998 C 0.65467 0.07341 0.31378 0.0
C999 C 0.67487 0.09449 0.35106 0.0
C1000 C 0.64071 0.06625 0.29879 0.0
C1001 C 0.63226 0.0724 0.30383 0.0
C1002 C 0.66029 0.08692 0.33307 0.0
C1003 C 0.63839 0.08608 0.32213 0.0
C1004 C 0.68277 0.10921 0.35059 0.0
C1005 C 0.69435 0.09344 0.3832 0.0
N1006 N 0.65207 0.09292 0.336 0.0
N1007 N 0.68085 0.08708 0.36773 0.0
H1008 H 0.89744 0.59183 0.44836 0.0
H1009 H 0.92441 0.56318 0.24583 0.0
H1010 H 0.8798 0.5858 0.30936 0.0
H1011 H 0.91939 0.54655 0.38599 0.0
H1012 H 0.91006 0.57369 0.26785 0.0
H1013 H 0.90769 0.57723 0.42666 0.0
C1014 C 0.89557 0.58729 0.41356 0.0
C1015 C 0.88773 0.58999 0.38067 0.0
C1016 C 0.91197 0.56757 0.29348 0.0
C1017 C 0.89971 0.5737 0.35536 0.0
C1018 C 0.92015 0.56159 0.28097 0.0
C1019 C 0.92305 0.55395 0.31407 0.0
C1020 C 0.90704 0.56622 0.33971 0.0
C1021 C 0.91732 0.55228 0.35926 0.0
C1022 C 0.90141 0.57898 0.40124 0.0
C1023 C 0.8857 0.58391 0.33592 0.0
N1024 N 0.90979 0.55856 0.37102 0.0
N1025 N 0.89185 0.57624 0.3243 0.0
H1026 H 0.46118 0.36959 0.3252 0.0
H1027 H 0.38972 0.30286 0.40336 0.0
H1028 H 0.42069 0.36466 0.29128 0.0
H1029 H 0.42555 0.29896 0.36439 0.0
H1030 H 0.40231 0.32737 0.37723 0.0
H1031 H 0.44945 0.34503 0.35144 0.0
C1032 C 0.44985 0.36328 0.32266 0.0
C1033 C 0.44189 0.36912 0.30577 0.0
C1034 C 0.40744 0.32116 0.37481 0.0
C1035 C 0.42846 0.34131 0.33723 0.0
C1036 C 0.40034 0.30724 0.39025 0.0
C1037 C 0.40661 0.29888 0.38605 0.0
C1038 C 0.42099 0.32681 0.35588 0.0
C1039 C 0.42034 0.30506 0.36818 0.0
C1040 C 0.44319 0.34932 0.33779 0.0
C1041 C 0.42723 0.36052 0.30357 0.0
N1042 N 0.42711 0.31868 0.35382 0.0
N1043 N 0.42097 0.3471 0.31977 0.0
H1044 H 0.30765 0.89858 0.57896 0.0
H1045 H 0.36227 0.92596 0.78505 0.0
H1046 H 0.29555 0.88092 0.71772 0.0
H1047 H 0.37477 0.9218 0.64524 0.0
H1048 H 0.33756 0.91134 0.76162 0.0
H1049 H 0.33243 0.9092 0.60214 0.0
C1050 C 0.3102 0.89679 0.61402 0.0
C1051 C 0.29954 0.88883 0.6464 0.0
C1052 C 0.34576 0.9135 0.73637 0.0
C1053 C 0.32772 0.90122 0.67339 0.0
C1054 C 0.35982 0.92183 0.74968 0.0
C1055 C 0.37057 0.92506 0.7171 0.0
C1056 C 0.34247 0.90874 0.68986 0.0
C1057 C 0.36682 0.9195 0.67159 0.0
C1058 C 0.32431 0.90283 0.6272 0.0
C1059 C 0.30344 0.8869 0.69153 0.0
N1060 N 0.35307 0.9118 0.65907 0.0
N1061 N 0.31721 0.89324 0.70395 0.0
H1062 H 0.07743 0.4365 0.77687 0.0
H1063 H 0.10461 0.40922 0.57027 0.0
H1064 H 0.08314 0.45436 0.63838 0.0
H1065 H 0.12111 0.41307 0.71018 0.0
H1066 H 0.09461 0.4239 0.59393 0.0
H1067 H 0.09153 0.42582 0.75349 0.0
C1068 C 0.0818 0.43832 0.74182 0.0
C1069 C 0.07915 0.44635 0.70958 0.0
C1070 C 0.10059 0.42166 0.61916 0.0
C1071 C 0.09487 0.4339 0.68235 0.0
C1072 C 0.10628 0.41329 0.60571 0.0
C1073 C 0.11373 0.40996 0.63825 0.0
C1074 C 0.10204 0.42635 0.66575 0.0
C1075 C 0.11552 0.41545 0.68386 0.0
C1076 C 0.08982 0.43225 0.72853 0.0
C1077 C 0.085 0.44832 0.66447 0.0
N1078 N 0.10952 0.42319 0.69649 0.0
N1079 N 0.09238 0.44194 0.65193 0.0
H1080 H 0.58152 0.63582 0.74127 0.0
H1081 H 0.57532 0.7016 0.6621 0.0
H1082 H 0.54145 0.63093 0.70113 0.0
H1083 H 0.61124 0.69739 0.62715 0.0
H1084 H 0.56289 0.67703 0.68848 0.0
H1085 H 0.59303 0.66027 0.71445 0.0
C1086 C 0.57511 0.63997 0.72774 0.0
C1087 C 0.56051 0.63136 0.72345 0.0
C1088 C 0.57344 0.68148 0.67457 0.0
C1089 C 0.5736 0.65921 0.69257 0.0
C1090 C 0.5805 0.69544 0.65937 0.0
C1091 C 0.59428 0.70148 0.64213 0.0
C1092 C 0.58038 0.67369 0.67378 0.0
C1093 C 0.60057 0.69309 0.6397 0.0
C1094 C 0.5817 0.65385 0.71192 0.0
C1095 C 0.55274 0.63723 0.70502 0.0
N1096 N 0.59364 0.67967 0.65601 0.0
N1097 N 0.55938 0.65083 0.69036 0.0
H1098 H 0.37502 0.45503 0.64406 0.0
H1099 H 0.29459 0.41556 0.71886 0.0
H1100 H 0.3616 0.43759 0.78252 0.0
H1101 H 0.30775 0.41049 0.58118 0.0
H1102 H 0.31927 0.42972 0.74201 0.0
H1103 H 0.35037 0.44471 0.62063 0.0
C1104 C 0.3669 0.44927 0.66984 0.0
C1105 C 0.37035 0.44713 0.71536 0.0
C1106 C 0.31671 0.42564 0.70659 0.0
C1107 C 0.34222 0.43545 0.68869 0.0
C1108 C 0.30266 0.41766 0.69316 0.0
C1109 C 0.29911 0.41181 0.64798 0.0
C1110 C 0.3273 0.42806 0.67434 0.0
C1111 C 0.31003 0.41477 0.61635 0.0
C1112 C 0.35287 0.44332 0.65626 0.0
C1113 C 0.35938 0.43945 0.7471 0.0
N1114 N 0.32366 0.42272 0.63012 0.0
N1115 N 0.34578 0.43389 0.73318 0.0
H1116 H 0.59158 0.89733 0.57798 0.0
H1117 H 0.56454 0.92506 0.7838 0.0
H1118 H 0.58664 0.88024 0.7174 0.0
H1119 H 0.54745 0.92023 0.64437 0.0
H1120 H 0.57482 0.91058 0.76068 0.0
H1121 H 0.57738 0.90791 0.60119 0.0
C1122 C 0.58737 0.89566 0.61322 0.0
C1123 C 0.59025 0.88787 0.64575 0.0
C1124 C 0.56865 0.91257 0.73544 0.0
C1125 C 0.57441 0.9002 0.67276 0.0
C1126 C 0.56281 0.92082 0.74858 0.0
C1127 C 0.5551 0.92381 0.71602 0.0
C1128 C 0.5671 0.90765 0.68911 0.0
C1129 C 0.55324 0.91811 0.67071 0.0
C1130 C 0.57928 0.90168 0.62641 0.0
C1131 C 0.58459 0.88609 0.69109 0.0
N1132 N 0.55939 0.91049 0.65835 0.0
N1133 N 0.57713 0.8924 0.70351 0.0
H1134 H 0.08228 0.62742 0.63701 0.0
H1135 H 0.12245 0.70745 0.71677 0.0
H1136 H 0.07774 0.63999 0.7763 0.0
H1137 H 0.10495 0.69491 0.57792 0.0
H1138 H 0.1119 0.68267 0.73858 0.0
H1139 H 0.09646 0.6522 0.61508 0.0
C1140 C 0.08449 0.63538 0.66328 0.0
C1141 C 0.0788 0.63164 0.7086 0.0
C1142 C 0.11053 0.68538 0.70322 0.0
C1143 C 0.09508 0.65994 0.68364 0.0
C1144 C 0.11662 0.69949 0.69055 0.0
C1145 C 0.11454 0.70324 0.64541 0.0
C1146 C 0.10258 0.67494 0.67024 0.0
C1147 C 0.10677 0.69247 0.61309 0.0
C1148 C 0.09248 0.64949 0.65055 0.0
C1149 C 0.0819 0.64242 0.741 0.0
N1150 N 0.10107 0.67877 0.62611 0.0
N1151 N 0.08987 0.65611 0.72792 0.0
H1152 H 0.08945 0.32544 0.69256 0.0
H1153 H 0.0915 0.33736 0.97067 0.0
H1154 H 0.1059 0.36606 0.75835 0.0
H1155 H 0.0784 0.29711 0.90625 0.0
H1156 H 0.09439 0.34767 0.89259 0.0
H1157 H 0.0827 0.31442 0.77011 0.0
C1158 C 0.0915 0.33202 0.72317 0.0
C1159 C 0.09838 0.3467 0.71892 0.0
C1160 C 0.09082 0.33656 0.89557 0.0
C1161 C 0.09078 0.3342 0.80768 0.0
C1162 C 0.08916 0.33067 0.94018 0.0
C1163 C 0.08482 0.31637 0.94512 0.0
C1164 C 0.0881 0.32809 0.85556 0.0
C1165 C 0.08189 0.30821 0.90424 0.0
C1166 C 0.0877 0.32574 0.76745 0.0
C1167 C 0.10077 0.35471 0.75987 0.0
N1168 N 0.08364 0.31419 0.86127 0.0
N1169 N 0.09705 0.34838 0.80243 0.0
H1170 H 0.66004 0.75656 0.99327 0.0
H1171 H 0.67124 0.75837 0.71468 0.0
H1172 H 0.70048 0.77278 0.92646 0.0
H1173 H 0.63103 0.74467 0.78026 0.0
H1174 H 0.68183 0.76166 0.7925 0.0
H1175 H 0.64883 0.74989 0.91593 0.0
C1176 C 0.66654 0.75858 0.96249 0.0
C1177 C 0.68123 0.76536 0.96642 0.0
C1178 C 0.67067 0.75787 0.78982 0.0
C1179 C 0.66852 0.75784 0.87786 0.0
C1180 C 0.66463 0.75599 0.74536 0.0
C1181 C 0.65024 0.75133 0.7408 0.0
C1182 C 0.66228 0.75507 0.83009 0.0
C1183 C 0.64218 0.74838 0.78194 0.0
C1184 C 0.66016 0.75483 0.91831 0.0
C1185 C 0.68913 0.76772 0.92522 0.0
N1186 N 0.64832 0.75035 0.82475 0.0
N1187 N 0.6827 0.76404 0.88279 0.0
H1188 H 0.24724 0.9081 0.98365 0.0
H1189 H 0.24149 0.91402 0.705 0.0
H1190 H 0.22622 0.92786 0.9173 0.0
H1191 H 0.26122 0.89298 0.7713 0.0
H1192 H 0.23782 0.92123 0.78256 0.0
H1193 H 0.25451 0.90449 0.90612 0.0
C1194 C 0.24426 0.91179 0.95291 0.0
C1195 C 0.23599 0.91817 0.95708 0.0
C1196 C 0.24304 0.91511 0.78005 0.0
C1197 C 0.24422 0.91403 0.86822 0.0
C1198 C 0.24516 0.91102 0.73573 0.0
C1199 C 0.25155 0.90277 0.73154 0.0
C1200 C 0.24735 0.91092 0.82044 0.0
C1201 C 0.25612 0.89922 0.77272 0.0
C1202 C 0.24838 0.9097 0.90862 0.0
C1203 C 0.23247 0.92276 0.9159 0.0
N1204 N 0.25385 0.90324 0.81533 0.0
N1205 N 0.23652 0.92052 0.87331 0.0
H1206 H 0.30008 0.07239 0.09428 0.0
H1207 H 0.37057 0.11405 0.24392 0.0
H1208 H 0.34114 0.09696 0.03186 0.0
H1209 H 0.32969 0.08767 0.30542 0.0
H1210 H 0.36023 0.10682 0.16616 0.0
H1211 H 0.31097 0.07663 0.17136 0.0
C1212 C 0.31142 0.07862 0.0967 0.0
C1213 C 0.3197 0.08444 0.05643 0.0
C1214 C 0.35352 0.10254 0.1966 0.0
C1215 C 0.33226 0.08942 0.14512 0.0
C1216 C 0.35941 0.10669 0.24115 0.0
C1217 C 0.35097 0.10155 0.28144 0.0
C1218 C 0.33904 0.09322 0.19205 0.0
C1219 C 0.3366 0.09196 0.27545 0.0
C1220 C 0.31763 0.08103 0.14087 0.0
C1221 C 0.33434 0.09229 0.06189 0.0
N1222 N 0.33108 0.08818 0.2316 0.0
N1223 N 0.34015 0.09466 0.10548 0.0
H1224 H 0.91269 0.23763 0.3296 0.0
H1225 H 0.91012 0.24715 0.05149 0.0
H1226 H 0.8956 0.26126 0.26408 0.0
H1227 H 0.92342 0.22015 0.11571 0.0
H1228 H 0.90721 0.25454 0.12962 0.0
H1229 H 0.91935 0.23334 0.25191 0.0
C1230 C 0.91048 0.24205 0.29902 0.0
C1231 C 0.90345 0.24969 0.30339 0.0
C1232 C 0.91083 0.24704 0.12658 0.0
C1233 C 0.91096 0.24478 0.21447 0.0
C1234 C 0.91249 0.24283 0.08194 0.0
C1235 C 0.9169 0.23292 0.07694 0.0
C1236 C 0.91361 0.24134 0.16655 0.0
C1237 C 0.91988 0.22772 0.11778 0.0
C1238 C 0.91423 0.23955 0.25466 0.0
C1239 C 0.90086 0.25516 0.26246 0.0
N1240 N 0.91813 0.23194 0.16078 0.0
N1241 N 0.90453 0.25253 0.21982 0.0
H1242 H 0.75672 0.67027 0.30313 0.0
H1243 H 0.75501 0.65841 0.02505 0.0
H1244 H 0.74415 0.63013 0.2387 0.0
H1245 H 0.77096 0.69898 0.09078 0.0
H1246 H 0.74831 0.64738 0.10258 0.0
H1247 H 0.75953 0.68055 0.22503 0.0
C1248 C 0.75448 0.6636 0.27264 0.0
C1249 C 0.75032 0.64934 0.27757 0.0
C1250 C 0.75318 0.65869 0.09991 0.0
C1251 C 0.7535 0.66103 0.18801 0.0
C1252 C 0.75695 0.66498 0.05563 0.0
C1253 C 0.76369 0.67965 0.05139 0.0
C1254 C 0.75614 0.66714 0.14013 0.0
C1255 C 0.76594 0.68764 0.09232 0.0
C1256 C 0.75609 0.66947 0.22802 0.0
C1257 C 0.74751 0.6412 0.23669 0.0
N1258 N 0.76226 0.6813 0.13487 0.0
N1259 N 0.74921 0.64717 0.19372 0.0
H1260 H 0.92772 0.70276 0.10346 0.0
H1261 H 0.89285 0.63177 0.25227 0.0
H1262 H 0.90759 0.66144 0.04098 0.0
H1263 H 0.91332 0.67311 0.31471 0.0
H1264 H 0.89993 0.64246 0.17503 0.0
H1265 H 0.92432 0.69212 0.18069 0.0
C1266 C 0.92264 0.69143 0.10589 0.0
C1267 C 0.91781 0.68297 0.06551 0.0
C1268 C 0.90297 0.64921 0.20556 0.0
C1269 C 0.91383 0.67069 0.1544 0.0
C1270 C 0.89892 0.64312 0.24983 0.0
C1271 C 0.90237 0.65156 0.2902 0.0
C1272 C 0.9105 0.66388 0.2013 0.0
C1273 C 0.91037 0.66619 0.28465 0.0
C1274 C 0.92072 0.68536 0.15015 0.0
C1275 C 0.91144 0.66837 0.07105 0.0
N1276 N 0.91406 0.67189 0.24099 0.0
N1277 N 0.90953 0.66268 0.11471 0.0
H1278 H 0.30132 0.22975 0.09323 0.0
H1279 H 0.37162 0.25675 0.24261 0.0
H1280 H 0.3421 0.24462 0.03054 0.0
H1281 H 0.33098 0.24356 0.30402 0.0
H1282 H 0.36133 0.25381 0.16479 0.0
H1283 H 0.31233 0.23635 0.17012 0.0
C1284 C 0.31263 0.23451 0.09555 0.0
C1285 C 0.32079 0.23651 0.05527 0.0
C1286 C 0.35467 0.25163 0.19524 0.0
C1287 C 0.33349 0.24403 0.14376 0.0
C1288 C 0.36052 0.25327 0.23981 0.0
C1289 C 0.35212 0.25028 0.28009 0.0
C1290 C 0.34027 0.2469 0.19066 0.0
C1291 C 0.33785 0.24593 0.27406 0.0
C1292 C 0.31891 0.23828 0.13961 0.0
C1293 C 0.3354 0.24285 0.06059 0.0
N1294 N 0.33236 0.24428 0.2302 0.0
N1295 N 0.34128 0.24626 0.10411 0.0
H1296 H 0.7724 0.07187 0.08859 0.0
H1297 H 0.74458 0.11441 0.23816 0.0
H1298 H 0.75644 0.09687 0.02606 0.0
H1299 H 0.7585 0.08755 0.29959 0.0
H1300 H 0.74748 0.10702 0.16037 0.0
H1301 H 0.76585 0.07624 0.16563 0.0
C1302 C 0.76741 0.07821 0.09098 0.0
C1303 C 0.76509 0.08413 0.0507 0.0
C1304 C 0.74983 0.10267 0.19082 0.0
C1305 C 0.75762 0.08926 0.13933 0.0
C1306 C 0.74821 0.10691 0.23537 0.0
C1307 C 0.75141 0.10168 0.27564 0.0
C1308 C 0.75476 0.09317 0.18625 0.0
C1309 C 0.75596 0.09191 0.26964 0.0
C1310 C 0.76366 0.08069 0.13512 0.0
C1311 C 0.75846 0.09213 0.05611 0.0
N1312 N 0.75759 0.08805 0.22579 0.0
N1313 N 0.75508 0.09458 0.09968 0.0
H1314 H 0.67371 0.91235 0.7021 0.0
H1315 H 0.66242 0.90668 0.98108 0.0
H1316 H 0.63302 0.8916 0.76905 0.0
H1317 H 0.70312 0.92635 0.91423 0.0
H1318 H 0.65144 0.90284 0.90363 0.0
H1319 H 0.68473 0.9194 0.77957 0.0
C1320 C 0.66709 0.90938 0.73296 0.0
C1321 C 0.65242 0.90127 0.72895 0.0
C1322 C 0.66278 0.90807 0.90599 0.0
C1323 C 0.66494 0.90924 0.81775 0.0
C1324 C 0.66905 0.91029 0.95025 0.0
C1325 C 0.68371 0.91674 0.95428 0.0
C1326 C 0.67123 0.91234 0.86548 0.0
C1327 C 0.69177 0.92122 0.91296 0.0
C1328 C 0.67338 0.91337 0.77721 0.0
C1329 C 0.64438 0.89774 0.77029 0.0
N1330 N 0.68543 0.91887 0.87042 0.0
N1331 N 0.65073 0.90167 0.81283 0.0
H1332 H 0.08819 0.76061 0.70345 0.0
H1333 H 0.09441 0.7551 0.98209 0.0
H1334 H 0.10964 0.74127 0.76961 0.0
H1335 H 0.07396 0.77544 0.91582 0.0
H1336 H 0.09816 0.74795 0.90453 0.0
H1337 H 0.08093 0.76418 0.78105 0.0
C1338 C 0.09127 0.75701 0.73416 0.0
C1339 C 0.09965 0.75075 0.7299 0.0
C1340 C 0.09277 0.7539 0.90706 0.0
C1341 C 0.09144 0.75485 0.81886 0.0
C1342 C 0.0906 0.75795 0.95137 0.0
C1343 C 0.08398 0.766 0.95557 0.0
C1344 C 0.08829 0.75791 0.86668 0.0
C1345 C 0.07925 0.76937 0.91441 0.0
C1346 C 0.08716 0.75907 0.7785 0.0
C1347 C 0.1033 0.74627 0.77106 0.0
N1348 N 0.08156 0.76539 0.87181 0.0
N1349 N 0.09925 0.74848 0.8137 0.0
H1350 H 0.22693 0.29841 0.91963 0.0
H1351 H 0.26253 0.3695 0.77134 0.0
H1352 H 0.24772 0.3397 0.98237 0.0
H1353 H 0.24171 0.32821 0.70856 0.0
H1354 H 0.25902 0.35877 0.84845 0.0
H1355 H 0.23407 0.30912 0.84246 0.0
C1356 C 0.23308 0.30975 0.91728 0.0
C1357 C 0.23661 0.31817 0.95772 0.0
C1358 C 0.25529 0.35204 0.81787 0.0
C1359 C 0.2448 0.33053 0.86888 0.0
C1360 C 0.25728 0.35815 0.77367 0.0
C1361 C 0.25228 0.34974 0.73324 0.0
C1362 C 0.24819 0.33736 0.82202 0.0
C1363 C 0.24569 0.33511 0.73867 0.0
C1364 C 0.23716 0.31585 0.87304 0.0
C1365 C 0.24471 0.3328 0.95226 0.0
N1366 N 0.24374 0.32939 0.78228 0.0
N1367 N 0.24843 0.33851 0.90863 0.0
H1368 H 0.03731 0.44266 0.58445 0.0
H1369 H 0.96586 0.40592 0.43756 0.0
H1370 H 0.99613 0.4218 0.64798 0.0
H1371 H 0.00699 0.42784 0.37385 0.0
H1372 H 0.97682 0.40981 0.51439 0.0
H1373 H 0.02645 0.43552 0.50745 0.0
C1374 C 0.02596 0.4365 0.58232 0.0
C1375 C 0.01762 0.43293 0.62296 0.0
C1376 C 0.98347 0.41371 0.48368 0.0
C1377 C 0.00509 0.42473 0.53427 0.0
C1378 C 0.97723 0.4115 0.43961 0.0
C1379 C 0.98551 0.41668 0.39898 0.0
C1380 C 0.99816 0.42121 0.48751 0.0
C1381 C 1.00018 0.4237 0.4041 0.0
C1382 C 0.01977 0.43242 0.53817 0.0
C1383 C 0.00298 0.42483 0.61773 0.0
N1384 N 0.00603 0.42585 0.4476 0.0
N1385 N 0.99719 0.42109 0.57418 0.0
H1386 H 0.5909 0.55442 0.4359 0.0
H1387 H 0.55601 0.59047 0.58498 0.0
H1388 H 0.57284 0.57758 0.37354 0.0
H1389 H 0.57824 0.57142 0.64747 0.0
H1390 H 0.56269 0.58646 0.50753 0.0
H1391 H 0.58699 0.56115 0.51341 0.0
C1392 C 0.58615 0.56098 0.43844 0.0
C1393 C 0.5821 0.56536 0.39801 0.0
C1394 C 0.56619 0.58323 0.53813 0.0
C1395 C 0.57754 0.57307 0.48709 0.0
C1396 C 0.56235 0.58548 0.58248 0.0
C1397 C 0.56648 0.58118 0.62293 0.0
C1398 C 0.57415 0.57652 0.53392 0.0
C1399 C 0.57479 0.57488 0.61733 0.0
C1400 C 0.58395 0.56484 0.48283 0.0
C1401 C 0.5761 0.57393 0.40366 0.0
N1402 N 0.57825 0.57264 0.57363 0.0
N1403 N 0.57391 0.57742 0.44739 0.0
H1404 H 0.43124 0.00937 0.6621 0.0
H1405 H 0.42083 0.99751 0.38409 0.0
H1406 H 0.40696 0.96875 0.59633 0.0
H1407 H 0.44856 0.03764 0.4483 0.0
H1408 H 0.41352 0.98722 0.46223 0.0
H1409 H 0.4355 0.02039 0.58458 0.0
C1410 C 0.42668 0.00278 0.6315 0.0
C1411 C 0.41886 0.98811 0.63574 0.0
C1412 C 0.42116 0.99829 0.45919 0.0
C1413 C 0.42372 0.00062 0.54702 0.0
C1414 C 0.42533 0.00417 0.41455 0.0
C1415 C 0.43542 0.01843 0.40953 0.0
C1416 C 0.42711 0.00673 0.49915 0.0
C1417 C 0.44085 0.02657 0.45038 0.0
C1418 C 0.42916 0.00907 0.58724 0.0
C1419 C 0.4132 0.9801 0.5948 0.0
N1420 N 0.43667 0.0206 0.49338 0.0
N1421 N 0.4158 0.98644 0.55225 0.0
H1422 H 0.57881 0.00778 0.65969 0.0
H1423 H 0.57615 0.99597 0.3814 0.0
H1424 H 0.56141 0.96711 0.59356 0.0
H1425 H 0.58993 0.0363 0.44627 0.0
H1426 H 0.57308 0.98555 0.45936 0.0
H1427 H 0.58552 0.01881 0.58216 0.0
C1428 C 0.57653 0.00118 0.62901 0.0
C1429 C 0.56941 0.9865 0.63317 0.0
C1430 C 0.57684 0.9967 0.4565 0.0
C1431 C 0.57698 0.99901 0.54442 0.0
C1432 C 0.5786 0.00265 0.41196 0.0
C1433 C 0.58319 0.01701 0.40719 0.0
C1434 C 0.57971 0.00516 0.4966 0.0
C1435 C 0.58625 0.02516 0.44816 0.0
C1436 C 0.58031 0.00747 0.58474 0.0
C1437 C 0.56674 0.97847 0.59211 0.0
N1438 N 0.5844 0.01911 0.49106 0.0
N1439 N 0.57045 0.98481 0.54956 0.0
H1440 H 0.00637 0.57955 0.37361 0.0
H1441 H 0.99489 0.57344 0.65238 0.0
H1442 H 0.96564 0.55817 0.44016 0.0
H1443 H 0.03562 0.59365 0.58574 0.0
H1444 H 0.98392 0.56969 0.57492 0.0
H1445 H 0.01728 0.58678 0.45113 0.0
C1446 C 0.99972 0.57648 0.40439 0.0
C1447 C 0.98508 0.56813 0.40026 0.0
C1448 C 0.99527 0.57503 0.57734 0.0
C1449 C 0.99748 0.57631 0.48913 0.0
C1450 C 0.00153 0.5772 0.6216 0.0
C1451 C 0.01619 0.58375 0.62567 0.0
C1452 C 0.00373 0.57946 0.53688 0.0
C1453 C 0.02427 0.58842 0.58443 0.0
C1454 C 0.00595 0.58058 0.44868 0.0
C1455 C 0.97698 0.56449 0.44151 0.0
N1456 N 0.01794 0.58611 0.54188 0.0
N1457 N 0.98328 0.56852 0.48409 0.0
H1458 H 0.44796 0.41117 0.44538 0.0
H1459 H 0.4063 0.44 0.59493 0.0
H1460 H 0.42144 0.42549 0.38379 0.0
H1461 H 0.43055 0.42318 0.65749 0.0
H1462 H 0.41065 0.43347 0.51781 0.0
H1463 H 0.44077 0.41435 0.52313 0.0
C1464 C 0.44058 0.41495 0.44813 0.0
C1465 C 0.43538 0.41818 0.40781 0.0
C1466 C 0.41495 0.43111 0.54834 0.0
C1467 C 0.4271 0.42184 0.4972 0.0
C1468 C 0.41248 0.43484 0.59253 0.0
C1469 C 0.41818 0.43225 0.63287 0.0
C1470 C 0.42328 0.4248 0.54412 0.0
C1471 C 0.42598 0.42541 0.62742 0.0
C1472 C 0.43646 0.41673 0.49267 0.0
C1473 C 0.42577 0.42293 0.41378 0.0
N1474 N 0.42841 0.42204 0.5838 0.0
N1475 N 0.42201 0.4247 0.45763 0.0
H1476 H 0.06827 0.30154 0.23906 0.0
H1477 H 0.09944 0.36429 0.4268 0.0
H1478 H 0.09609 0.34494 0.2023 0.0
H1479 H 0.08541 0.32111 0.46227 0.0
H1480 H 0.09306 0.35724 0.34475 0.0
H1481 H 0.06926 0.3086 0.32118 0.0
C1482 C 0.07436 0.31258 0.24807 0.0
C1483 C 0.08219 0.32265 0.21378 0.0
C1484 C 0.09122 0.3493 0.37067 0.0
C1485 C 0.08337 0.33078 0.30766 0.0
C1486 C 0.09478 0.3533 0.41753 0.0
C1487 C 0.09306 0.34329 0.4514 0.0
C1488 C 0.08571 0.33516 0.35771 0.0
C1489 C 0.08703 0.3292 0.43728 0.0
C1490 C 0.07499 0.31658 0.29499 0.0
C1491 C 0.08997 0.3368 0.22761 0.0
N1492 N 0.08363 0.32556 0.39154 0.0
N1493 N 0.09041 0.34044 0.27346 0.0
H1494 H 0.63534 0.73462 0.44569 0.0
H1495 H 0.69853 0.76594 0.25972 0.0
H1496 H 0.67854 0.76282 0.48382 0.0
H1497 H 0.65559 0.75265 0.22293 0.0
H1498 H 0.69123 0.75963 0.34164 0.0
H1499 H 0.64263 0.73593 0.36367 0.0
C1500 C 0.64639 0.74086 0.437 0.0
C1501 C 0.65634 0.74869 0.47167 0.0
C1502 C 0.6834 0.75794 0.31546 0.0
C1503 C 0.66473 0.75022 0.37792 0.0
C1504 C 0.68753 0.76145 0.26868 0.0
C1505 C 0.67767 0.7599 0.23445 0.0
C1506 C 0.66926 0.75263 0.32799 0.0
C1507 C 0.66357 0.75412 0.2482 0.0
C1508 C 0.65052 0.74167 0.39015 0.0
C1509 C 0.67051 0.75668 0.45823 0.0
N1510 N 0.65979 0.75073 0.29385 0.0
N1511 N 0.67427 0.75728 0.41245 0.0
H1512 H 0.24971 0.90446 0.21167 0.0
H1513 H 0.23764 0.91634 0.47693 0.0
H1514 H 0.23508 0.93276 0.25227 0.0
H1515 H 0.26618 0.90201 0.43637 0.0
H1516 H 0.23657 0.92252 0.39522 0.0
H1517 H 0.25591 0.90343 0.2934 0.0
C1518 C 0.24797 0.91061 0.23769 0.0
C1519 C 0.24182 0.91868 0.2251 0.0
C1520 C 0.24323 0.91821 0.40426 0.0
C1521 C 0.24866 0.91733 0.31901 0.0
C1522 C 0.24384 0.91467 0.45092 0.0
C1523 C 0.25198 0.9086 0.46352 0.0
C1524 C 0.25059 0.91541 0.36963 0.0
C1525 C 0.2598 0.90668 0.42828 0.0
C1526 C 0.25154 0.91003 0.28437 0.0
C1527 C 0.23983 0.92644 0.26036 0.0
N1528 N 0.25873 0.90987 0.38285 0.0
N1529 N 0.24303 0.9254 0.30579 0.0
H1530 H 0.36567 0.09634 0.57146 0.0
H1531 H 0.34755 0.09811 0.80317 0.0
H1532 H 0.32301 0.08623 0.54392 0.0
H1533 H 0.30498 0.0686 0.7621 0.0
H1534 H 0.35509 0.09891 0.7223 0.0
H1535 H 0.35961 0.0906 0.65416 0.0
C1536 C 0.35499 0.09277 0.58267 0.0
C1537 C 0.34489 0.09197 0.55073 0.0
C1538 C 0.34417 0.09194 0.73098 0.0
C1539 C 0.33796 0.08573 0.64574 0.0
C1540 C 0.33983 0.09156 0.77725 0.0
C1541 C 0.32561 0.08327 0.7895 0.0
C1542 C 0.33419 0.08408 0.69634 0.0
C1543 C 0.31605 0.07508 0.75431 0.0
C1544 C 0.35158 0.08966 0.63008 0.0
C1545 C 0.33118 0.08717 0.56734 0.0
N1546 N 0.32048 0.07589 0.70918 0.0
N1547 N 0.32815 0.08432 0.61369 0.0
H1548 H 0.93415 0.23533 0.78341 0.0
H1549 H 0.90277 0.26662 0.59551 0.0
H1550 H 0.90613 0.2507 0.81994 0.0
H1551 H 0.9172 0.23777 0.56013 0.0
H1552 H 0.90918 0.26604 0.67757 0.0
H1553 H 0.93325 0.24147 0.70133 0.0
C1554 C 0.92804 0.24026 0.77438 0.0
C1555 C 0.92011 0.2424 0.80857 0.0
C1556 C 0.9111 0.25999 0.65167 0.0
C1557 C 0.91904 0.24942 0.71474 0.0
C1558 C 0.90753 0.26038 0.6048 0.0
C1559 C 0.90935 0.25214 0.57096 0.0
C1560 C 0.91672 0.25146 0.66467 0.0
C1561 C 0.9155 0.24419 0.58511 0.0
C1562 C 0.92746 0.24367 0.72747 0.0
C1563 C 0.91232 0.24875 0.7947 0.0
N1564 N 0.91891 0.24401 0.63085 0.0
N1565 N 0.91192 0.25197 0.74886 0.0
H1566 H 0.7648 0.69722 0.75931 0.0
H1567 H 0.73381 0.63442 0.57173 0.0
H1568 H 0.75111 0.65411 0.7948 0.0
H1569 H 0.76136 0.67785 0.53475 0.0
H1570 H 0.73485 0.64148 0.65387 0.0
H1571 H 0.75838 0.69012 0.6773 0.0
C1572 C 0.76021 0.68623 0.75005 0.0
C1573 C 0.75859 0.67626 0.78391 0.0
C1574 C 0.74051 0.64947 0.62763 0.0
C1575 C 0.75121 0.66808 0.69027 0.0
C1576 C 0.73985 0.64547 0.58069 0.0
C1577 C 0.7476 0.65555 0.54633 0.0
C1578 C 0.74883 0.66368 0.64024 0.0
C1579 C 0.75531 0.66971 0.56011 0.0
C1580 C 0.75663 0.68221 0.70322 0.0
C1581 C 0.75265 0.66217 0.76981 0.0
N1582 N 0.75578 0.67334 0.60598 0.0
N1583 N 0.74922 0.65851 0.7241 0.0
H1584 H 0.91702 0.67966 0.54567 0.0
H1585 H 0.90472 0.65476 0.81006 0.0
H1586 H 0.90205 0.63656 0.58476 0.0
H1587 H 0.93261 0.69792 0.77089 0.0
H1588 H 0.90394 0.6478 0.72814 0.0
H1589 H 0.92321 0.68664 0.62758 0.0
C1590 C 0.91521 0.67168 0.57139 0.0
C1591 C 0.90895 0.65749 0.55832 0.0
C1592 C 0.9104 0.65877 0.73752 0.0
C1593 C 0.91578 0.66539 0.65246 0.0
C1594 C 0.91084 0.66276 0.78432 0.0
C1595 C 0.9187 0.67696 0.79737 0.0
C1596 C 0.91763 0.66908 0.70322 0.0
C1597 C 0.92643 0.68686 0.76246 0.0
C1598 C 0.91876 0.67568 0.61818 0.0
C1599 C 0.90687 0.64762 0.5932 0.0
N1600 N 0.92553 0.68276 0.7169 0.0
N1601 N 0.91007 0.65172 0.63876 0.0
H1602 H 0.34741 0.24988 0.79997 0.0
H1603 H 0.32238 0.23902 0.53593 0.0
H1604 H 0.30445 0.23608 0.7619 0.0
H1605 H 0.36566 0.26621 0.57541 0.0
H1606 H 0.31548 0.23813 0.618 0.0
H1607 H 0.35436 0.25628 0.7182 0.0
C1608 C 0.33946 0.24837 0.7745 0.0
C1609 C 0.32531 0.24238 0.7878 0.0
C1610 C 0.32647 0.24448 0.60863 0.0
C1611 C 0.33318 0.24946 0.6938 0.0
C1612 C 0.33041 0.24498 0.56176 0.0
C1613 C 0.34463 0.25266 0.54876 0.0
C1614 C 0.33683 0.25146 0.64303 0.0
C1615 C 0.35458 0.26018 0.58378 0.0
C1616 C 0.34345 0.25205 0.7278 0.0
C1617 C 0.31548 0.24069 0.75325 0.0
N1618 N 0.35052 0.25921 0.62939 0.0
N1619 N 0.31956 0.244 0.70773 0.0
H1620 H 0.75107 0.09688 0.79522 0.0
H1621 H 0.76266 0.0832 0.53138 0.0
H1622 H 0.76567 0.06835 0.75728 0.0
H1623 H 0.73512 0.09891 0.57042 0.0
H1624 H 0.76345 0.07712 0.61341 0.0
H1625 H 0.74468 0.09734 0.71338 0.0
C1626 C 0.75276 0.09056 0.76976 0.0
C1627 C 0.75898 0.08261 0.78311 0.0
C1628 C 0.75705 0.08169 0.60395 0.0
C1629 C 0.75191 0.0833 0.68903 0.0
C1630 C 0.75659 0.08517 0.55709 0.0
C1631 C 0.74886 0.09164 0.54399 0.0
C1632 C 0.74995 0.08495 0.63823 0.0
C1633 C 0.7412 0.09393 0.57887 0.0
C1634 C 0.74909 0.09081 0.72301 0.0
C1635 C 0.76089 0.07461 0.74858 0.0
N1636 N 0.74212 0.0908 0.62447 0.0
N1637 N 0.75758 0.07533 0.70302 0.0
H1638 H 0.6554 0.90207 0.20654 0.0
H1639 H 0.63594 0.90324 0.43774 0.0
H1640 H 0.69762 0.93161 0.25091 0.0
H1641 H 0.67813 0.91225 0.46781 0.0
H1642 H 0.64249 0.90899 0.35525 0.0
H1643 H 0.64735 0.90057 0.28721 0.0
C1644 C 0.66294 0.90846 0.23315 0.0
C1645 C 0.67721 0.91701 0.22186 0.0
C1646 C 0.65031 0.90969 0.37987 0.0
C1647 C 0.66805 0.91536 0.31473 0.0
C1648 C 0.64662 0.90657 0.42713 0.0
C1649 C 0.65645 0.9071 0.45973 0.0
C1650 C 0.66395 0.91342 0.36507 0.0
C1651 C 0.67016 0.91155 0.44387 0.0
C1652 C 0.65831 0.90768 0.27928 0.0
C1653 C 0.68651 0.92496 0.25793 0.0
N1654 N 0.67348 0.91449 0.39771 0.0
N1655 N 0.68182 0.92376 0.30287 0.0
H1656 H 0.08607 0.76564 0.4777 0.0
H1657 H 0.06599 0.76465 0.246 0.0
H1658 H 0.09937 0.73655 0.43366 0.0
H1659 H 0.09919 0.7556 0.21684 0.0
H1660 H 0.0666 0.75883 0.32852 0.0
H1661 H 0.07955 0.76705 0.39696 0.0
C1662 C 0.08736 0.75932 0.45114 0.0
C1663 C 0.09326 0.75094 0.46254 0.0
C1664 C 0.07378 0.75815 0.30411 0.0
C1665 C 0.08576 0.75247 0.36958 0.0
C1666 C 0.07332 0.76131 0.25682 0.0
C1667 C 0.08268 0.76079 0.22448 0.0
C1668 C 0.08366 0.75441 0.31919 0.0
C1669 C 0.09189 0.75631 0.24059 0.0
C1670 C 0.08353 0.76005 0.40496 0.0
C1671 C 0.09477 0.74307 0.42654 0.0
N1672 N 0.09218 0.75335 0.28677 0.0
N1673 N 0.09128 0.74422 0.38156 0.0
H1674 H 0.25117 0.34628 0.21318 0.0
H1675 H 0.23861 0.32166 0.47788 0.0
H1676 H 0.23608 0.30319 0.25279 0.0
H1677 H 0.26689 0.3647 0.4384 0.0
H1678 H 0.23774 0.3146 0.39603 0.0
H1679 H 0.25728 0.35331 0.29509 0.0
C1680 C 0.24931 0.33831 0.23902 0.0
C1681 C 0.24305 0.3241 0.22608 0.0
C1682 C 0.2443 0.32556 0.40533 0.0
C1683 C 0.24979 0.33208 0.32022 0.0
C1684 C 0.24479 0.32961 0.45209 0.0
C1685 C 0.25279 0.34381 0.46503 0.0
C1686 C 0.25163 0.33581 0.37095 0.0
C1687 C 0.2606 0.35364 0.43005 0.0
C1688 C 0.25282 0.34235 0.2858 0.0
C1689 C 0.24091 0.31425 0.26113 0.0
N1690 N 0.25965 0.34949 0.38453 0.0
N1691 N 0.24407 0.31839 0.30667 0.0
H1692 H 0.98858 0.41947 0.87588 0.0
H1693 H 0.96938 0.39925 0.10759 0.0
H1694 H 0.0309 0.43254 0.92013 0.0
H1695 H 0.01156 0.43253 0.13719 0.0
H1696 H 0.97585 0.40002 0.02502 0.0
H1697 H 0.98062 0.41311 0.9567 0.0
C1698 C 0.99616 0.42075 0.9025 0.0
C1699 C 0.01043 0.42651 0.89111 0.0
C1700 C 0.98368 0.40717 0.04954 0.0
C1701 C 0.00136 0.4192 0.98418 0.0
C1702 C 0.98004 0.40662 0.09685 0.0
C1703 C 0.98989 0.41595 0.12937 0.0
C1704 C 0.9973 0.4171 0.03457 0.0
C1705 C 0.00357 0.42524 0.11333 0.0
C1706 C 0.99158 0.41701 0.94872 0.0
C1707 C 0.01979 0.42803 0.92722 0.0
N1708 N 0.00685 0.4256 0.06712 0.0
N1709 N 0.01513 0.42463 0.97222 0.0
H1710 H 0.60038 0.56815 0.105 0.0
H1711 H 0.56956 0.59963 0.91578 0.0
H1712 H 0.57215 0.58337 0.14006 0.0
H1713 H 0.58409 0.57084 0.88079 0.0
H1714 H 0.57581 0.59899 0.99795 0.0
H1715 H 0.59978 0.57438 0.0228 0.0
C1716 C 0.59429 0.57306 0.09562 0.0
C1717 C 0.58622 0.57514 0.12943 0.0
C1718 C 0.5778 0.59297 0.97211 0.0
C1719 C 0.58549 0.58229 0.03548 0.0
C1720 C 0.57433 0.5934 0.92516 0.0
C1721 C 0.57621 0.58519 0.89138 0.0
C1722 C 0.58337 0.58442 0.9853 0.0
C1723 C 0.58236 0.57725 0.90569 0.0
C1724 C 0.59388 0.57653 0.04865 0.0
C1725 C 0.57845 0.58147 0.11513 0.0
N1726 N 0.58566 0.57701 0.95155 0.0
N1727 N 0.57823 0.58476 0.06925 0.0
H1728 H 0.41687 0.98934 0.15425 0.0
H1729 H 0.43133 0.01431 0.89042 0.0
H1730 H 0.43311 0.03263 0.1147 0.0
H1731 H 0.4022 0.97134 0.92837 0.0
H1732 H 0.43168 0.02129 0.97205 0.0
H1733 H 0.41082 0.98242 0.07222 0.0
C1734 C 0.41896 0.99737 0.12841 0.0
C1735 C 0.42557 0.0116 0.14136 0.0
C1736 C 0.42504 0.01037 0.96245 0.0
C1737 C 0.41892 0.00377 0.04714 0.0
C1738 C 0.42485 0.00636 0.91584 0.0
C1739 C 0.41677 0.9922 0.90257 0.0
C1740 C 0.41733 1.0001 0.9964 0.0
C1741 C 0.40857 0.98237 0.93702 0.0
C1742 C 0.4155 0.99341 0.08156 0.0
C1743 C 0.42802 0.02154 0.10634 0.0
N1744 N 0.40923 0.98647 0.98248 0.0
N1745 N 0.42491 0.01747 0.06076 0.0
H1746 H 0.58336 0.01292 0.88792 0.0
H1747 H 0.57188 0.98813 0.15201 0.0
H1748 H 0.56912 0.96992 0.92654 0.0
H1749 H 0.59952 0.03131 0.11251 0.0
H1750 H 0.5711 0.98114 0.07011 0.0
H1751 H 0.58977 0.01994 0.96966 0.0
C1752 C 0.58176 0.00498 0.91351 0.0
C1753 C 0.57563 0.9908 0.90039 0.0
C1754 C 0.57752 0.99212 0.07944 0.0
C1755 C 0.58271 0.99873 0.99433 0.0
C1756 C 0.57796 0.99612 0.12621 0.0
C1757 C 0.58573 0.01034 0.13914 0.0
C1758 C 0.58466 0.00242 0.04506 0.0
C1759 C 0.59341 0.02023 0.10417 0.0
C1760 C 0.58544 0.009 0.96019 0.0
C1761 C 0.57383 0.98097 0.93507 0.0
N1762 N 0.5925 0.01612 0.05864 0.0
N1763 N 0.57714 0.98508 0.98057 0.0
H1764 H 0.98881 0.5698 0.88021 0.0
H1765 H 0.0126 0.582 0.14564 0.0
H1766 H 0.03164 0.59851 0.92096 0.0
H1767 H 0.96969 0.5674 0.10475 0.0
H1768 H 0.01987 0.58815 0.06392 0.0
H1769 H 0.98151 0.56871 0.96189 0.0
C1770 C 0.99666 0.57602 0.90625 0.0
C1771 C 0.01087 0.58423 0.89371 0.0
C1772 C 0.0089 0.58379 0.07289 0.0
C1773 C 0.00261 0.58281 0.98757 0.0
C1774 C 0.00473 0.58026 0.11956 0.0
C1775 C 0.9905 0.57413 0.13208 0.0
C1776 C 0.99874 0.5809 0.03817 0.0
C1777 C 0.98077 0.57213 0.09673 0.0
C1778 C 0.99248 0.57541 0.9529 0.0
C1779 C 0.02057 0.59208 0.929 0.0
N1780 N 0.98503 0.57529 0.0513 0.0
N1781 N 0.0163 0.591 0.97441 0.0
H1782 H 0.42951 0.3976 0.11792 0.0
H1783 H 0.43128 0.41745 0.88622 0.0
H1784 H 0.41943 0.43017 0.14537 0.0
H1785 H 0.40177 0.43052 0.92718 0.0
H1786 H 0.43206 0.4107 0.96708 0.0
H1787 H 0.42373 0.39787 0.03522 0.0
C1788 C 0.42593 0.4047 0.1067 0.0
C1789 C 0.42515 0.41402 0.13861 0.0
C1790 C 0.42509 0.41465 0.95837 0.0
C1791 C 0.41887 0.41466 0.04359 0.0
C1792 C 0.42473 0.41863 0.91211 0.0
C1793 C 0.41644 0.42456 0.89984 0.0
C1794 C 0.41722 0.41676 0.99298 0.0
C1795 C 0.40824 0.42592 0.935 0.0
C1796 C 0.4228 0.40497 0.05928 0.0
C1797 C 0.42035 0.42291 0.12197 0.0
N1798 N 0.40904 0.42229 0.98011 0.0
N1799 N 0.41748 0.42307 0.07563 0.0
loop_
_geom_bond_atom_site_label_1
_geom_bond_atom_site_label_2
_geom_bond_distance
_geom_bond_site_symmetry_2
_ccdc_geom_bond_type
O0 Cd1 2.223 . S
O0 C8 1.315 . S
Cd1 O0 2.223 . S
Cd1 O4 2.297 . S
Cd1 O5 2.439 . S
Cd1 O11 2.240 . S
Cd2 O3 2.240 . S
Cd2 O10 2.223 1_554 S
Cd2 O12 2.297 1_554 S
Cd2 O13 2.439 . S
O3 Cd2 2.240 . S
O3 C8 1.279 . S
O4 Cd1 2.297 . S
O4 C6 1.247 . S
O5 Cd1 2.439 . S
O5 C6 1.208 . S
C6 O4 1.247 . S
C6 O5 1.208 . S
C7 O12 1.247 1_554 S
C7 O13 1.208 . S
C8 O0 1.315 . S
C8 O3 1.279 . S
C9 O10 1.315 . S
C9 O11 1.279 1_556 S
O10 Cd2 2.223 1_556 S
O10 C9 1.315 . S
O11 Cd1 2.240 . S
O11 C9 1.279 1_554 S
O12 Cd2 2.297 1_556 S
O12 C7 1.247 1_556 S
O13 Cd2 2.439 . S
O13 C7 1.208 . S
O14 Cd15 2.223 . S
O14 C22 1.315 . S
Cd15 O14 2.223 . S
Cd15 O18 2.297 . S
Cd15 O19 2.439 . S
Cd15 O25 2.240 . S
Cd16 O17 2.240 . S
Cd16 O24 2.223 1_554 S
Cd16 O26 2.288 1_554 S
Cd16 O27 2.439 . S
O17 Cd16 2.240 . S
O17 C22 1.279 . S
O18 Cd15 2.297 . S
O18 C20 1.247 . S
O19 Cd15 2.439 . S
O19 C20 1.208 . S
C20 O18 1.247 . S
C20 O19 1.208 . S
C21 O26 1.227 1_554 S
C21 O27 1.208 . S
C22 O14 1.315 . S
C22 O17 1.279 . S
C23 O24 1.315 . S
C23 O25 1.279 1_556 S
O24 Cd16 2.223 1_556 S
O24 C23 1.315 . S
O25 Cd15 2.240 . S
O25 C23 1.279 1_554 S
O26 Cd16 2.288 1_556 S
O26 C21 1.227 1_556 S
O27 Cd16 2.439 . S
O27 C21 1.208 . S
O28 Cd29 2.223 . S
O28 C36 1.315 . S
Cd29 O28 2.223 . S
Cd29 O32 2.297 . S
Cd29 O33 2.439 . S
Cd29 O39 2.240 . S
Cd30 O31 2.240 . S
Cd30 O38 2.223 1_554 S
Cd30 O40 2.289 1_554 S
Cd30 O41 2.439 . S
O31 Cd30 2.240 . S
O31 C36 1.279 . S
O32 Cd29 2.297 . S
O32 C34 1.247 . S
O33 Cd29 2.439 . S
O33 C34 1.208 . S
C34 O32 1.247 . S
C34 O33 1.208 . S
C35 O40 1.231 1_554 S
C35 O41 1.208 . S
C36 O28 1.315 . S
C36 O31 1.279 . S
C37 O38 1.315 . S
C37 O39 1.279 1_556 S
O38 Cd30 2.223 1_556 S
O38 C37 1.315 . S
O39 Cd29 2.240 . S
O39 C37 1.279 1_554 S
O40 Cd30 2.289 1_556 S
O40 C35 1.231 1_556 S
O41 Cd30 2.439 . S
O41 C35 1.208 . S
O42 Cd43 2.223 . S
O42 C50 1.315 . S
Cd43 O42 2.223 . S
Cd43 O46 2.297 . S
Cd43 O47 2.439 . S
Cd43 O53 2.240 . S
Cd44 O45 2.240 . S
Cd44 O52 2.223 1_556 S
Cd44 O54 2.297 1_556 S
Cd44 O55 2.439 . S
O45 Cd44 2.240 . S
O45 C50 1.279 . S
O46 Cd43 2.297 . S
O46 C48 1.247 . S
O47 Cd43 2.439 . S
O47 C48 1.208 . S
C48 O46 1.247 . S
C48 O47 1.208 . S
C49 O54 1.247 1_556 S
C49 O55 1.208 . S
C50 O42 1.315 . S
C50 O45 1.279 . S
C51 O52 1.315 . S
C51 O53 1.279 1_554 S
O52 Cd44 2.223 1_554 S
O52 C51 1.315 . S
O53 Cd43 2.240 . S
O53 C51 1.279 1_556 S
O54 Cd44 2.297 1_554 S
O54 C49 1.247 1_554 S
O55 Cd44 2.439 . S
O55 C49 1.208 . S
O56 Cd57 2.223 . S
O56 C64 1.315 . S
Cd57 O56 2.223 . S
Cd57 O60 2.297 . S
Cd57 O61 2.439 . S
Cd57 O67 2.240 . S
Cd58 O59 2.240 . S
Cd58 O66 2.223 1_556 S
Cd58 O68 2.289 1_556 S
Cd58 O69 2.439 . S
O59 Cd58 2.240 . S
O59 C64 1.279 . S
O60 Cd57 2.297 . S
O60 C62 1.247 . S
O61 Cd57 2.439 . S
O61 C62 1.208 . S
C62 O60 1.247 . S
C62 O61 1.208 . S
C63 O68 1.231 1_556 S
C63 O69 1.208 . S
C64 O56 1.315 . S
C64 O59 1.279 . S
C65 O66 1.315 . S
C65 O67 1.279 1_554 S
O66 Cd58 2.223 1_554 S
O66 C65 1.315 . S
O67 Cd57 2.240 . S
O67 C65 1.279 1_556 S
O68 Cd58 2.289 1_554 S
O68 C63 1.231 1_554 S
O69 Cd58 2.439 . S
O69 C63 1.208 . S
O70 Cd71 2.223 . S
O70 C78 1.315 . S
Cd71 O70 2.223 . S
Cd71 O74 2.297 . S
Cd71 O75 2.439 . S
Cd71 O81 2.240 . S
Cd72 O73 2.240 . S
Cd72 O80 2.223 1_556 S
Cd72 O82 2.288 1_556 S
Cd72 O83 2.439 . S
O73 Cd72 2.240 . S
O73 C78 1.279 . S
O74 Cd71 2.297 . S
O74 C76 1.247 . S
O75 Cd71 2.439 . S
O75 C76 1.208 . S
C76 O74 1.247 . S
C76 O75 1.208 . S
C77 O82 1.227 1_556 S
C77 O83 1.208 . S
C78 O70 1.315 . S
C78 O73 1.279 . S
C79 O80 1.315 . S
C79 O81 1.279 1_554 S
O80 Cd72 2.223 1_554 S
O80 C79 1.315 . S
O81 Cd71 2.240 . S
O81 C79 1.279 1_556 S
O82 Cd72 2.288 1_554 S
O82 C77 1.227 1_554 S
O83 Cd72 2.439 . S
O83 C77 1.208 . S
O84 Cd85 2.223 . S
O84 C92 1.315 . S
Cd85 O84 2.223 . S
Cd85 O88 2.297 . S
Cd85 O89 2.439 . S
Cd85 O95 2.240 . S
Cd86 O87 2.240 . S
Cd86 O94 2.223 1_556 S
Cd86 O96 2.297 1_556 S
Cd86 O97 2.439 . S
O87 Cd86 2.240 . S
O87 C92 1.279 . S
O88 Cd85 2.297 . S
O88 C90 1.247 . S
O89 Cd85 2.439 . S
O89 C90 1.208 . S
C90 O88 1.247 . S
C90 O89 1.208 . S
C91 O96 1.247 1_556 S
C91 O97 1.208 . S
C92 O84 1.315 . S
C92 O87 1.279 . S
C93 O94 1.315 . S
C93 O95 1.279 1_554 S
O94 Cd86 2.223 1_554 S
O94 C93 1.315 . S
O95 Cd85 2.240 . S
O95 C93 1.279 1_556 S
O96 Cd86 2.297 1_554 S
O96 C91 1.247 1_554 S
O97 Cd86 2.439 . S
O97 C91 1.208 . S
O98 Cd99 2.223 . S
O98 C106 1.315 . S
Cd99 O98 2.223 . S
Cd99 O102 2.297 . S
Cd99 O103 2.439 . S
Cd99 O109 2.240 . S
Cd100 O101 2.240 . S
Cd100 O108 2.223 1_556 S
Cd100 O110 2.288 1_556 S
Cd100 O111 2.439 . S
O101 Cd100 2.240 . S
O101 C106 1.279 . S
O102 Cd99 2.297 . S
O102 C104 1.247 . S
O103 Cd99 2.439 . S
O103 C104 1.208 . S
C104 O102 1.247 . S
C104 O103 1.208 . S
C105 O110 1.227 1_556 S
C105 O111 1.208 . S
C106 O98 1.315 . S
C106 O101 1.279 . S
C107 O108 1.315 . S
C107 O109 1.279 1_554 S
O108 Cd100 2.223 1_554 S
O108 C107 1.315 . S
O109 Cd99 2.240 . S
O109 C107 1.279 1_556 S
O110 Cd100 2.288 1_554 S
O110 C105 1.227 1_554 S
O111 Cd100 2.439 . S
O111 C105 1.208 . S
O112 Cd113 2.223 . S
O112 C120 1.315 . S
Cd113 O112 2.223 . S
Cd113 O116 2.297 . S
Cd113 O117 2.439 . S
Cd113 O123 2.240 . S
Cd114 O115 2.240 . S
Cd114 O122 2.223 1_556 S
Cd114 O124 2.289 1_556 S
Cd114 O125 2.439 . S
O115 Cd114 2.240 . S
O115 C120 1.279 . S
O116 Cd113 2.297 . S
O116 C118 1.247 . S
O117 Cd113 2.439 . S
O117 C118 1.208 . S
C118 O116 1.247 . S
C118 O117 1.208 . S
C119 O124 1.231 1_556 S
C119 O125 1.208 . S
C120 O112 1.315 . S
C120 O115 1.279 . S
C121 O122 1.315 . S
C121 O123 1.279 1_554 S
O122 Cd114 2.223 1_554 S
O122 C121 1.315 . S
O123 Cd113 2.240 . S
O123 C121 1.279 1_556 S
O124 Cd114 2.289 1_554 S
O124 C119 1.231 1_554 S
O125 Cd114 2.439 . S
O125 C119 1.208 . S
O126 Cd127 2.223 . S
O126 C134 1.315 . S
Cd127 O126 2.223 . S
Cd127 O130 2.297 . S
Cd127 O131 2.439 . S
Cd127 O137 2.240 . S
Cd128 O129 2.240 . S
Cd128 O136 2.223 1_554 S
Cd128 O138 2.297 1_554 S
Cd128 O139 2.439 . S
O129 Cd128 2.240 . S
O129 C134 1.279 . S
O130 Cd127 2.297 . S
O130 C132 1.247 . S
O131 Cd127 2.439 . S
O131 C132 1.208 . S
C132 O130 1.247 . S
C132 O131 1.208 . S
C133 O138 1.247 1_554 S
C133 O139 1.208 . S
C134 O126 1.315 . S
C134 O129 1.279 . S
C135 O136 1.315 . S
C135 O137 1.279 1_556 S
O136 Cd128 2.223 1_556 S
O136 C135 1.315 . S
O137 Cd127 2.240 . S
O137 C135 1.279 1_554 S
O138 Cd128 2.297 1_556 S
O138 C133 1.247 1_556 S
O139 Cd128 2.439 . S
O139 C133 1.208 . S
O140 Cd141 2.223 . S
O140 C148 1.315 . S
Cd141 O140 2.223 . S
Cd141 O144 2.297 . S
Cd141 O145 2.439 . S
Cd141 O151 2.240 . S
Cd142 O143 2.240 . S
Cd142 O150 2.223 1_554 S
Cd142 O152 2.289 1_554 S
Cd142 O153 2.439 . S
O143 Cd142 2.240 . S
O143 C148 1.279 . S
O144 Cd141 2.297 . S
O144 C146 1.247 . S
O145 Cd141 2.439 . S
O145 C146 1.208 . S
C146 O144 1.247 . S
C146 O145 1.208 . S
C147 O152 1.231 1_554 S
C147 O153 1.208 . S
C148 O140 1.315 . S
C148 O143 1.279 . S
C149 O150 1.315 . S
C149 O151 1.279 1_556 S
O150 Cd142 2.223 1_556 S
O150 C149 1.315 . S
O151 Cd141 2.240 . S
O151 C149 1.279 1_554 S
O152 Cd142 2.289 1_556 S
O152 C147 1.231 1_556 S
O153 Cd142 2.439 . S
O153 C147 1.208 . S
O154 Cd155 2.223 . S
O154 C162 1.315 . S
Cd155 O154 2.223 . S
Cd155 O158 2.297 . S
Cd155 O159 2.439 . S
Cd155 O165 2.240 . S
Cd156 O157 2.240 . S
Cd156 O164 2.223 1_554 S
Cd156 O166 2.288 1_554 S
Cd156 O167 2.439 . S
O157 Cd156 2.240 . S
O157 C162 1.279 . S
O158 Cd155 2.297 . S
O158 C160 1.247 . S
O159 Cd155 2.439 . S
O159 C160 1.208 . S
C160 O158 1.247 . S
C160 O159 1.208 . S
C161 O166 1.227 1_554 S
C161 O167 1.208 . S
C162 O154 1.315 . S
C162 O157 1.279 . S
C163 O164 1.315 . S
C163 O165 1.279 1_556 S
O164 Cd156 2.223 1_556 S
O164 C163 1.315 . S
O165 Cd155 2.240 . S
O165 C163 1.279 1_554 S
O166 Cd156 2.288 1_556 S
O166 C161 1.227 1_556 S
O167 Cd156 2.439 . S
O167 C161 1.208 . S
O168 Cd169 2.223 . S
O168 C176 1.315 . S
Cd169 O168 2.223 . S
Cd169 O172 2.297 . S
Cd169 O173 2.439 . S
Cd169 O179 2.240 . S
Cd170 O171 2.240 . S
Cd170 O178 2.223 . S
Cd170 O180 2.297 . S
Cd170 O181 2.439 . S
O171 Cd170 2.240 . S
O171 C176 1.279 . S
O172 Cd169 2.297 . S
O172 C174 1.247 . S
O173 Cd169 2.439 . S
O173 C174 1.208 . S
C174 O172 1.247 . S
C174 O173 1.208 . S
C175 O180 1.247 . S
C175 O181 1.208 . S
C176 O168 1.315 . S
C176 O171 1.279 . S
C177 O178 1.315 . S
C177 O179 1.279 . S
O178 Cd170 2.223 . S
O178 C177 1.315 . S
O179 Cd169 2.240 . S
O179 C177 1.279 . S
O180 Cd170 2.297 . S
O180 C175 1.247 . S
O181 Cd170 2.439 . S
O181 C175 1.208 . S
O182 Cd183 2.223 . S
O182 C190 1.315 . S
Cd183 O182 2.223 . S
Cd183 O186 2.297 . S
Cd183 O187 2.439 . S
Cd183 O193 2.240 . S
Cd184 O185 2.240 . S
Cd184 O192 2.223 . S
Cd184 O194 2.297 . S
Cd184 O195 2.439 . S
O185 Cd184 2.240 . S
O185 C190 1.279 . S
O186 Cd183 2.297 . S
O186 C188 1.247 . S
O187 Cd183 2.439 . S
O187 C188 1.208 . S
C188 O186 1.247 . S
C188 O187 1.208 . S
C189 O194 1.247 . S
C189 O195 1.208 . S
C190 O182 1.315 . S
C190 O185 1.279 . S
C191 O192 1.315 . S
C191 O193 1.279 . S
O192 Cd184 2.223 . S
O192 C191 1.315 . S
O193 Cd183 2.240 . S
O193 C191 1.279 . S
O194 Cd184 2.297 . S
O194 C189 1.247 . S
O195 Cd184 2.439 . S
O195 C189 1.208 . S
O196 Cd197 2.223 . S
O196 C204 1.315 . S
Cd197 O196 2.223 . S
Cd197 O200 2.297 . S
Cd197 O201 2.439 . S
Cd197 O207 2.240 . S
Cd198 O199 2.240 . S
Cd198 O206 2.223 . S
Cd198 O208 2.297 . S
Cd198 O209 2.439 . S
O199 Cd198 2.240 . S
O199 C204 1.279 . S
O200 Cd197 2.297 . S
O200 C202 1.247 . S
O201 Cd197 2.439 . S
O201 C202 1.208 . S
C202 O200 1.247 . S
C202 O201 1.208 . S
C203 O208 1.247 . S
C203 O209 1.208 . S
C204 O196 1.315 . S
C204 O199 1.279 . S
C205 O206 1.315 . S
C205 O207 1.279 . S
O206 Cd198 2.223 . S
O206 C205 1.315 . S
O207 Cd197 2.240 . S
O207 C205 1.279 . S
O208 Cd198 2.297 . S
O208 C203 1.247 . S
O209 Cd198 2.439 . S
O209 C203 1.208 . S
O210 Cd211 2.223 . S
O210 C218 1.315 . S
Cd211 O210 2.223 . S
Cd211 O214 2.297 . S
Cd211 O215 2.439 . S
Cd211 O221 2.240 . S
Cd212 O213 2.240 . S
Cd212 O220 2.223 . S
Cd212 O222 2.297 . S
Cd212 O223 2.439 . S
O213 Cd212 2.240 . S
O213 C218 1.279 . S
O214 Cd211 2.297 . S
O214 C216 1.247 . S
O215 Cd211 2.439 . S
O215 C216 1.208 . S
C216 O214 1.247 . S
C216 O215 1.208 . S
C217 O222 1.247 . S
C217 O223 1.208 . S
C218 O210 1.315 . S
C218 O213 1.279 . S
C219 O220 1.315 . S
C219 O221 1.279 . S
O220 Cd212 2.223 . S
O220 C219 1.315 . S
O221 Cd211 2.240 . S
O221 C219 1.279 . S
O222 Cd212 2.297 . S
O222 C217 1.247 . S
O223 Cd212 2.439 . S
O223 C217 1.208 . S
O224 Cd225 2.223 . S
O224 C232 1.315 . S
Cd225 O224 2.223 . S
Cd225 O228 2.297 . S
Cd225 O229 2.439 . S
Cd225 O235 2.240 . S
Cd226 O227 2.240 . S
Cd226 O234 2.223 . S
Cd226 O236 2.297 . S
Cd226 O237 2.439 . S
O227 Cd226 2.240 . S
O227 C232 1.279 . S
O228 Cd225 2.297 . S
O228 C230 1.247 . S
O229 Cd225 2.439 . S
O229 C230 1.208 . S
C230 O228 1.247 . S
C230 O229 1.208 . S
C231 O236 1.247 . S
C231 O237 1.208 . S
C232 O224 1.315 . S
C232 O227 1.279 . S
C233 O234 1.315 . S
C233 O235 1.279 . S
O234 Cd226 2.223 . S
O234 C233 1.315 . S
O235 Cd225 2.240 . S
O235 C233 1.279 . S
O236 Cd226 2.297 . S
O236 C231 1.247 . S
O237 Cd226 2.439 . S
O237 C231 1.208 . S
O238 Cd239 2.223 . S
O238 C246 1.315 . S
Cd239 O238 2.223 . S
Cd239 O242 2.297 . S
Cd239 O243 2.439 . S
Cd239 O249 2.240 . S
Cd240 O241 2.240 . S
Cd240 O248 2.223 . S
Cd240 O250 2.297 . S
Cd240 O251 2.439 . S
O241 Cd240 2.240 . S
O241 C246 1.279 . S
O242 Cd239 2.297 . S
O242 C244 1.247 . S
O243 Cd239 2.439 . S
O243 C244 1.208 . S
C244 O242 1.247 . S
C244 O243 1.208 . S
C245 O250 1.247 . S
C245 O251 1.208 . S
C246 O238 1.315 . S
C246 O241 1.279 . S
C247 O248 1.315 . S
C247 O249 1.279 . S
O248 Cd240 2.223 . S
O248 C247 1.315 . S
O249 Cd239 2.240 . S
O249 C247 1.279 . S
O250 Cd240 2.297 . S
O250 C245 1.247 . S
O251 Cd240 2.439 . S
O251 C245 1.208 . S
O252 Cd253 2.223 . S
O252 C260 1.315 . S
Cd253 O252 2.223 . S
Cd253 O256 2.297 . S
Cd253 O257 2.439 . S
Cd253 O263 2.240 . S
Cd254 O255 2.240 . S
Cd254 O262 2.223 . S
Cd254 O264 2.297 . S
Cd254 O265 2.439 . S
O255 Cd254 2.240 . S
O255 C260 1.279 . S
O256 Cd253 2.297 . S
O256 C258 1.247 . S
O257 Cd253 2.439 . S
O257 C258 1.208 . S
C258 O256 1.247 . S
C258 O257 1.208 . S
C259 O264 1.247 . S
C259 O265 1.208 . S
C260 O252 1.315 . S
C260 O255 1.279 . S
C261 O262 1.315 . S
C261 O263 1.279 . S
O262 Cd254 2.223 . S
O262 C261 1.315 . S
O263 Cd253 2.240 . S
O263 C261 1.279 . S
O264 Cd254 2.297 . S
O264 C259 1.247 . S
O265 Cd254 2.439 . S
O265 C259 1.208 . S
O266 Cd267 2.223 . S
O266 C274 1.315 . S
Cd267 O266 2.223 . S
Cd267 O270 2.297 . S
Cd267 O271 2.439 . S
Cd267 O277 2.240 . S
Cd268 O269 2.240 . S
Cd268 O276 2.223 . S
Cd268 O278 2.297 . S
Cd268 O279 2.439 . S
O269 Cd268 2.240 . S
O269 C274 1.279 . S
O270 Cd267 2.297 . S
O270 C272 1.247 . S
O271 Cd267 2.439 . S
O271 C272 1.208 . S
C272 O270 1.247 . S
C272 O271 1.208 . S
C273 O278 1.247 . S
C273 O279 1.208 . S
C274 O266 1.315 . S
C274 O269 1.279 . S
C275 O276 1.315 . S
C275 O277 1.279 . S
O276 Cd268 2.223 . S
O276 C275 1.315 . S
O277 Cd267 2.240 . S
O277 C275 1.279 . S
O278 Cd268 2.297 . S
O278 C273 1.247 . S
O279 Cd268 2.439 . S
O279 C273 1.208 . S
O280 Cd281 2.223 . S
O280 C288 1.315 . S
Cd281 O280 2.223 . S
Cd281 O284 2.297 . S
Cd281 O285 2.439 . S
Cd281 O291 2.240 . S
Cd282 O283 2.240 . S
Cd282 O290 2.223 . S
Cd282 O292 2.297 . S
Cd282 O293 2.439 . S
O283 Cd282 2.240 . S
O283 C288 1.279 . S
O284 Cd281 2.297 . S
O284 C286 1.247 . S
O285 Cd281 2.439 . S
O285 C286 1.208 . S
C286 O284 1.247 . S
C286 O285 1.208 . S
C287 O292 1.247 . S
C287 O293 1.208 . S
C288 O280 1.315 . S
C288 O283 1.279 . S
C289 O290 1.315 . S
C289 O291 1.279 . S
O290 Cd282 2.223 . S
O290 C289 1.315 . S
O291 Cd281 2.240 . S
O291 C289 1.279 . S
O292 Cd282 2.297 . S
O292 C287 1.247 . S
O293 Cd282 2.439 . S
O293 C287 1.208 . S
O294 Cd295 2.223 . S
O294 C302 1.315 . S
Cd295 O294 2.223 . S
Cd295 O298 2.297 . S
Cd295 O299 2.439 . S
Cd295 O305 2.240 . S
Cd296 O297 2.240 . S
Cd296 O304 2.223 . S
Cd296 O306 2.297 . S
Cd296 O307 2.439 . S
O297 Cd296 2.240 . S
O297 C302 1.279 . S
O298 Cd295 2.297 . S
O298 C300 1.247 . S
O299 Cd295 2.439 . S
O299 C300 1.208 . S
C300 O298 1.247 . S
C300 O299 1.208 . S
C301 O306 1.247 . S
C301 O307 1.208 . S
C302 O294 1.315 . S
C302 O297 1.279 . S
C303 O304 1.315 . S
C303 O305 1.279 . S
O304 Cd296 2.223 . S
O304 C303 1.315 . S
O305 Cd295 2.240 . S
O305 C303 1.279 . S
O306 Cd296 2.297 . S
O306 C301 1.247 . S
O307 Cd296 2.439 . S
O307 C301 1.208 . S
O308 Cd309 2.223 . S
O308 C316 1.315 . S
Cd309 O308 2.223 . S
Cd309 O312 2.297 . S
Cd309 O313 2.439 . S
Cd309 O319 2.240 . S
Cd310 O311 2.240 . S
Cd310 O318 2.223 . S
Cd310 O320 2.297 . S
Cd310 O321 2.439 . S
O311 Cd310 2.240 . S
O311 C316 1.279 . S
O312 Cd309 2.297 . S
O312 C314 1.247 . S
O313 Cd309 2.439 . S
O313 C314 1.208 . S
C314 O312 1.247 . S
C314 O313 1.208 . S
C315 O320 1.247 . S
C315 O321 1.208 . S
C316 O308 1.315 . S
C316 O311 1.279 . S
C317 O318 1.315 . S
C317 O319 1.279 . S
O318 Cd310 2.223 . S
O318 C317 1.315 . S
O319 Cd309 2.240 . S
O319 C317 1.279 . S
O320 Cd310 2.297 . S
O320 C315 1.247 . S
O321 Cd310 2.439 . S
O321 C315 1.208 . S
O322 Cd323 2.223 . S
O322 C330 1.315 . S
Cd323 O322 2.223 . S
Cd323 O326 2.297 . S
Cd323 O327 2.439 . S
Cd323 O333 2.240 . S
Cd324 O325 2.240 . S
Cd324 O332 2.223 . S
Cd324 O334 2.297 . S
Cd324 O335 2.439 . S
O325 Cd324 2.240 . S
O325 C330 1.279 . S
O326 Cd323 2.297 . S
O326 C328 1.247 . S
O327 Cd323 2.439 . S
O327 C328 1.208 . S
C328 O326 1.247 . S
C328 O327 1.208 . S
C329 O334 1.247 . S
C329 O335 1.208 . S
C330 O322 1.315 . S
C330 O325 1.279 . S
C331 O332 1.315 . S
C331 O333 1.279 . S
O332 Cd324 2.223 . S
O332 C331 1.315 . S
O333 Cd323 2.240 . S
O333 C331 1.279 . S
O334 Cd324 2.297 . S
O334 C329 1.247 . S
O335 Cd324 2.439 . S
O335 C329 1.208 . S
O336 Cd337 2.223 . S
O336 C344 1.315 . S
Cd337 O336 2.223 . S
Cd337 O340 2.297 . S
Cd337 O341 2.439 . S
Cd337 O347 2.240 . S
Cd338 O339 2.240 . S
Cd338 O346 2.223 . S
Cd338 O348 2.297 . S
Cd338 O349 2.439 . S
O339 Cd338 2.240 . S
O339 C344 1.279 . S
O340 Cd337 2.297 . S
O340 C342 1.247 . S
O341 Cd337 2.439 . S
O341 C342 1.208 . S
C342 O340 1.247 . S
C342 O341 1.208 . S
C343 O348 1.247 . S
C343 O349 1.208 . S
C344 O336 1.315 . S
C344 O339 1.279 . S
C345 O346 1.315 . S
C345 O347 1.279 . S
O346 Cd338 2.223 . S
O346 C345 1.315 . S
O347 Cd337 2.240 . S
O347 C345 1.279 . S
O348 Cd338 2.297 . S
O348 C343 1.247 . S
O349 Cd338 2.439 . S
O349 C343 1.208 . S
O350 Cd351 2.223 . S
O350 C358 1.315 . S
Cd351 O350 2.223 . S
Cd351 O354 2.297 . S
Cd351 O355 2.439 . S
Cd351 O361 2.240 . S
Cd352 O353 2.240 . S
Cd352 O360 2.223 . S
Cd352 O362 2.297 . S
Cd352 O363 2.439 . S
O353 Cd352 2.240 . S
O353 C358 1.279 . S
O354 Cd351 2.297 . S
O354 C356 1.247 . S
O355 Cd351 2.439 . S
O355 C356 1.208 . S
C356 O354 1.247 . S
C356 O355 1.208 . S
C357 O362 1.247 . S
C357 O363 1.208 . S
C358 O350 1.315 . S
C358 O353 1.279 . S
C359 O360 1.315 . S
C359 O361 1.279 . S
O360 Cd352 2.223 . S
O360 C359 1.315 . S
O361 Cd351 2.240 . S
O361 C359 1.279 . S
O362 Cd352 2.297 . S
O362 C357 1.247 . S
O363 Cd352 2.439 . S
O363 C357 1.208 . S
O364 Cd365 2.223 . S
O364 C372 1.315 . S
Cd365 O364 2.223 . S
Cd365 O368 2.297 . S
Cd365 O369 2.439 . S
Cd365 O375 2.240 . S
Cd366 O367 2.240 . S
Cd366 O374 2.223 . S
Cd366 O376 2.297 . S
Cd366 O377 2.439 . S
O367 Cd366 2.240 . S
O367 C372 1.279 . S
O368 Cd365 2.297 . S
O368 C370 1.247 . S
O369 Cd365 2.439 . S
O369 C370 1.208 . S
C370 O368 1.247 . S
C370 O369 1.208 . S
C371 O376 1.247 . S
C371 O377 1.208 . S
C372 O364 1.315 . S
C372 O367 1.279 . S
C373 O374 1.315 . S
C373 O375 1.279 . S
O374 Cd366 2.223 . S
O374 C373 1.315 . S
O375 Cd365 2.240 . S
O375 C373 1.279 . S
O376 Cd366 2.297 . S
O376 C371 1.247 . S
O377 Cd366 2.439 . S
O377 C371 1.208 . S
O378 Cd379 2.223 . S
O378 C386 1.315 . S
Cd379 O378 2.223 . S
Cd379 O382 2.297 . S
Cd379 O383 2.439 . S
Cd379 O389 2.240 . S
Cd380 O381 2.240 . S
Cd380 O388 2.223 . S
Cd380 O390 2.297 . S
Cd380 O391 2.439 . S
O381 Cd380 2.240 . S
O381 C386 1.279 . S
O382 Cd379 2.297 . S
O382 C384 1.247 . S
O383 Cd379 2.439 . S
O383 C384 1.208 . S
C384 O382 1.247 . S
C384 O383 1.208 . S
C385 O390 1.247 . S
C385 O391 1.208 . S
C386 O378 1.315 . S
C386 O381 1.279 . S
C387 O388 1.315 . S
C387 O389 1.279 . S
O388 Cd380 2.223 . S
O388 C387 1.315 . S
O389 Cd379 2.240 . S
O389 C387 1.279 . S
O390 Cd380 2.297 . S
O390 C385 1.247 . S
O391 Cd380 2.439 . S
O391 C385 1.208 . S
O392 Cd393 2.223 . S
O392 C400 1.315 . S
Cd393 O392 2.223 . S
Cd393 O396 2.297 . S
Cd393 O397 2.439 . S
Cd393 O403 2.240 . S
Cd394 O395 2.240 . S
Cd394 O402 2.223 . S
Cd394 O404 2.297 . S
Cd394 O405 2.439 . S
O395 Cd394 2.240 . S
O395 C400 1.279 . S
O396 Cd393 2.297 . S
O396 C398 1.247 . S
O397 Cd393 2.439 . S
O397 C398 1.208 . S
C398 O396 1.247 . S
C398 O397 1.208 . S
C399 O404 1.247 . S
C399 O405 1.208 . S
C400 O392 1.315 . S
C400 O395 1.279 . S
C401 O402 1.315 . S
C401 O403 1.279 . S
O402 Cd394 2.223 . S
O402 C401 1.315 . S
O403 Cd393 2.240 . S
O403 C401 1.279 . S
O404 Cd394 2.297 . S
O404 C399 1.247 . S
O405 Cd394 2.439 . S
O405 C399 1.208 . S
O406 Cd407 2.223 . S
O406 C414 1.315 . S
Cd407 O406 2.223 . S
Cd407 O410 2.297 . S
Cd407 O411 2.439 . S
Cd407 O417 2.240 . S
Cd408 O409 2.240 . S
Cd408 O416 2.223 . S
Cd408 O418 2.297 . S
Cd408 O419 2.439 . S
O409 Cd408 2.240 . S
O409 C414 1.279 . S
O410 Cd407 2.297 . S
O410 C412 1.247 . S
O411 Cd407 2.439 . S
O411 C412 1.208 . S
C412 O410 1.247 . S
C412 O411 1.208 . S
C413 O418 1.247 . S
C413 O419 1.208 . S
C414 O406 1.315 . S
C414 O409 1.279 . S
C415 O416 1.315 . S
C415 O417 1.279 . S
O416 Cd408 2.223 . S
O416 C415 1.315 . S
O417 Cd407 2.240 . S
O417 C415 1.279 . S
O418 Cd408 2.297 . S
O418 C413 1.247 . S
O419 Cd408 2.439 . S
O419 C413 1.208 . S
O420 Cd421 2.223 . S
O420 C428 1.315 . S
Cd421 O420 2.223 . S
Cd421 O424 2.297 . S
Cd421 O425 2.439 . S
Cd421 O431 2.240 . S
Cd422 O423 2.240 . S
Cd422 O430 2.223 . S
Cd422 O432 2.297 . S
Cd422 O433 2.439 . S
O423 Cd422 2.240 . S
O423 C428 1.279 . S
O424 Cd421 2.297 . S
O424 C426 1.247 . S
O425 Cd421 2.439 . S
O425 C426 1.208 . S
C426 O424 1.247 . S
C426 O425 1.208 . S
C427 O432 1.247 . S
C427 O433 1.208 . S
C428 O420 1.315 . S
C428 O423 1.279 . S
C429 O430 1.315 . S
C429 O431 1.279 . S
O430 Cd422 2.223 . S
O430 C429 1.315 . S
O431 Cd421 2.240 . S
O431 C429 1.279 . S
O432 Cd422 2.297 . S
O432 C427 1.247 . S
O433 Cd422 2.439 . S
O433 C427 1.208 . S
O434 Cd435 2.223 . S
O434 C442 1.315 . S
Cd435 O434 2.223 . S
Cd435 O438 2.297 . S
Cd435 O439 2.439 . S
Cd435 O445 2.240 . S
Cd436 O437 2.240 . S
Cd436 O444 2.223 . S
Cd436 O446 2.297 . S
Cd436 O447 2.439 . S
O437 Cd436 2.240 . S
O437 C442 1.279 . S
O438 Cd435 2.297 . S
O438 C440 1.247 . S
O439 Cd435 2.439 . S
O439 C440 1.208 . S
C440 O438 1.247 . S
C440 O439 1.208 . S
C441 O446 1.247 . S
C441 O447 1.208 . S
C442 O434 1.315 . S
C442 O437 1.279 . S
C443 O444 1.315 . S
C443 O445 1.279 . S
O444 Cd436 2.223 . S
O444 C443 1.315 . S
O445 Cd435 2.240 . S
O445 C443 1.279 . S
O446 Cd436 2.297 . S
O446 C441 1.247 . S
O447 Cd436 2.439 . S
O447 C441 1.208 . S
O448 Cd449 2.223 . S
O448 C456 1.315 . S
Cd449 O448 2.223 . S
Cd449 O452 2.297 . S
Cd449 O453 2.439 . S
Cd449 O459 2.240 . S
Cd450 O451 2.240 . S
Cd450 O458 2.223 . S
Cd450 O460 2.297 . S
Cd450 O461 2.439 . S
O451 Cd450 2.240 . S
O451 C456 1.279 . S
O452 Cd449 2.297 . S
O452 C454 1.247 . S
O453 Cd449 2.439 . S
O453 C454 1.208 . S
C454 O452 1.247 . S
C454 O453 1.208 . S
C455 O460 1.247 . S
C455 O461 1.208 . S
C456 O448 1.315 . S
C456 O451 1.279 . S
C457 O458 1.315 . S
C457 O459 1.279 . S
O458 Cd450 2.223 . S
O458 C457 1.315 . S
O459 Cd449 2.240 . S
O459 C457 1.279 . S
O460 Cd450 2.297 . S
O460 C455 1.247 . S
O461 Cd450 2.439 . S
O461 C455 1.208 . S
O462 Cd463 2.223 . S
O462 C470 1.315 . S
Cd463 O462 2.223 . S
Cd463 O466 2.297 . S
Cd463 O467 2.439 . S
Cd463 O473 2.240 . S
Cd464 O465 2.240 . S
Cd464 O472 2.223 . S
Cd464 O474 2.297 . S
Cd464 O475 2.439 . S
O465 Cd464 2.240 . S
O465 C470 1.279 . S
O466 Cd463 2.297 . S
O466 C468 1.247 . S
O467 Cd463 2.439 . S
O467 C468 1.208 . S
C468 O466 1.247 . S
C468 O467 1.208 . S
C469 O474 1.247 . S
C469 O475 1.208 . S
C470 O462 1.315 . S
C470 O465 1.279 . S
C471 O472 1.315 . S
C471 O473 1.279 . S
O472 Cd464 2.223 . S
O472 C471 1.315 . S
O473 Cd463 2.240 . S
O473 C471 1.279 . S
O474 Cd464 2.297 . S
O474 C469 1.247 . S
O475 Cd464 2.439 . S
O475 C469 1.208 . S
O476 Cd477 2.223 . S
O476 C484 1.315 . S
Cd477 O476 2.223 . S
Cd477 O480 2.297 . S
Cd477 O481 2.439 . S
Cd477 O487 2.240 . S
Cd478 O479 2.240 . S
Cd478 O486 2.223 . S
Cd478 O488 2.297 . S
Cd478 O489 2.439 . S
O479 Cd478 2.240 . S
O479 C484 1.279 . S
O480 Cd477 2.297 . S
O480 C482 1.247 . S
O481 Cd477 2.439 . S
O481 C482 1.208 . S
C482 O480 1.247 . S
C482 O481 1.208 . S
C483 O488 1.247 . S
C483 O489 1.208 . S
C484 O476 1.315 . S
C484 O479 1.279 . S
C485 O486 1.315 . S
C485 O487 1.279 . S
O486 Cd478 2.223 . S
O486 C485 1.315 . S
O487 Cd477 2.240 . S
O487 C485 1.279 . S
O488 Cd478 2.297 . S
O488 C483 1.247 . S
O489 Cd478 2.439 . S
O489 C483 1.208 . S
O490 Cd491 2.223 . S
O490 C498 1.315 . S
Cd491 O490 2.223 . S
Cd491 O494 2.297 . S
Cd491 O495 2.439 . S
Cd491 O501 2.240 . S
Cd492 O493 2.240 . S
Cd492 O500 2.223 . S
Cd492 O502 2.297 . S
Cd492 O503 2.439 . S
O493 Cd492 2.240 . S
O493 C498 1.279 . S
O494 Cd491 2.297 . S
O494 C496 1.247 . S
O495 Cd491 2.439 . S
O495 C496 1.208 . S
C496 O494 1.247 . S
C496 O495 1.208 . S
C497 O502 1.247 . S
C497 O503 1.208 . S
C498 O490 1.315 . S
C498 O493 1.279 . S
C499 O500 1.315 . S
C499 O501 1.279 . S
O500 Cd492 2.223 . S
O500 C499 1.315 . S
O501 Cd491 2.240 . S
O501 C499 1.279 . S
O502 Cd492 2.297 . S
O502 C497 1.247 . S
O503 Cd492 2.439 . S
O503 C497 1.208 . S
H504 C510 0.930 . S
H505 C514 0.930 . S
H506 C519 0.929 . S
H507 C517 0.929 . S
H508 C512 0.929 . S
H509 C518 0.929 . S
C510 H504 0.930 . S
C510 C511 1.367 . S
C510 C518 1.378 . S
C511 C510 1.367 . S
C511 C519 1.433 . S
C512 H508 0.929 . S
C512 C514 1.378 . S
C512 C516 1.350 . S
C513 C516 1.463 . S
C513 C518 1.350 . S
C513 N521 1.427 . S
C514 H505 0.930 . S
C514 C512 1.378 . S
C514 C515 1.367 . S
C515 C514 1.367 . S
C515 C517 1.433 . S
C516 C512 1.350 . S
C516 C513 1.463 . S
C516 N520 1.427 . S
C517 H507 0.929 . S
C517 C515 1.433 . S
C517 N520 1.384 . S
C518 H509 0.929 . S
C518 C510 1.378 . S
C518 C513 1.350 . S
C519 H506 0.929 . S
C519 C511 1.433 . S
C519 N521 1.384 . S
N520 C516 1.427 . S
N520 C517 1.384 . S
N521 C513 1.427 . S
N521 C519 1.384 . S
H522 C528 0.930 . S
H523 C532 0.930 1_556 S
H524 C537 0.929 1_556 S
H525 C535 0.929 . S
H526 C530 0.929 1_556 S
H527 C536 0.929 . S
C528 H522 0.930 . S
C528 C529 1.367 . S
C528 C536 1.378 . S
C529 C528 1.367 . S
C529 C537 1.433 . S
C530 H526 0.929 1_554 S
C530 C532 1.378 . S
C530 C534 1.350 . S
C531 C534 1.463 . S
C531 C536 1.350 . S
C531 N539 1.427 . S
C532 H523 0.930 1_554 S
C532 C530 1.378 . S
C532 C533 1.367 . S
C533 C532 1.367 . S
C533 C535 1.433 . S
C534 C530 1.350 . S
C534 C531 1.463 . S
C534 N538 1.427 . S
C535 H525 0.929 . S
C535 C533 1.433 . S
C535 N538 1.384 . S
C536 H527 0.929 . S
C536 C528 1.378 . S
C536 C531 1.350 . S
C537 H524 0.929 1_554 S
C537 C529 1.433 . S
C537 N539 1.384 . S
N538 C534 1.427 . S
N538 C535 1.384 . S
N539 C531 1.427 . S
N539 C537 1.384 . S
H540 C546 0.931 1_556 S
H541 C550 0.930 . S
H542 C555 0.929 . S
H543 C553 0.919 1_556 S
H544 C548 0.929 . S
H545 C554 0.930 1_556 S
C546 H540 0.931 1_554 S
C546 C547 1.367 . S
C546 C554 1.378 . S
C547 C546 1.367 . S
C547 C555 1.433 . S
C548 H544 0.929 . S
C548 C550 1.378 . S
C548 C552 1.350 . S
C549 C552 1.463 . S
C549 C554 1.350 . S
C549 N557 1.427 . S
C550 H541 0.930 . S
C550 C548 1.378 . S
C550 C551 1.367 . S
C551 C550 1.367 . S
C551 C553 1.433 . S
C552 C548 1.350 . S
C552 C549 1.463 . S
C552 N556 1.427 . S
C553 H543 0.919 1_554 S
C553 C551 1.433 . S
C553 N556 1.384 . S
C554 H545 0.930 1_554 S
C554 C546 1.378 . S
C554 C549 1.350 . S
C555 H542 0.929 . S
C555 C547 1.433 . S
C555 N557 1.384 . S
N556 C552 1.427 . S
N556 C553 1.384 . S
N557 C549 1.427 . S
N557 C555 1.384 . S
H558 C564 0.930 . S
H559 C568 0.930 . S
H560 C573 0.929 . S
H561 C571 0.929 . S
H562 C566 0.929 . S
H563 C572 0.929 . S
C564 H558 0.930 . S
C564 C565 1.367 . S
C564 C572 1.378 . S
C565 C564 1.367 . S
C565 C573 1.433 . S
C566 H562 0.929 . S
C566 C568 1.378 . S
C566 C570 1.350 . S
C567 C570 1.463 . S
C567 C572 1.350 . S
C567 N575 1.427 . S
C568 H559 0.930 . S
C568 C566 1.378 . S
C568 C569 1.367 . S
C569 C568 1.367 . S
C569 C571 1.433 . S
C570 C566 1.350 . S
C570 C567 1.463 . S
C570 N574 1.427 . S
C571 H561 0.929 . S
C571 C569 1.433 . S
C571 N574 1.384 . S
C572 H563 0.929 . S
C572 C564 1.378 . S
C572 C567 1.350 . S
C573 H560 0.929 . S
C573 C565 1.433 . S
C573 N575 1.384 . S
N574 C570 1.427 . S
N574 C571 1.384 . S
N575 C567 1.427 . S
N575 C573 1.384 . S
H576 C582 0.930 . S
H577 C586 0.930 1_554 S
H578 C591 0.929 1_554 S
H579 C589 0.929 . S
H580 C584 0.929 1_554 S
H581 C590 0.929 . S
C582 H576 0.930 . S
C582 C583 1.367 . S
C582 C590 1.378 . S
C583 C582 1.367 . S
C583 C591 1.433 . S
C584 H580 0.929 1_556 S
C584 C586 1.378 . S
C584 C588 1.350 . S
C585 C588 1.463 . S
C585 C590 1.350 . S
C585 N593 1.427 . S
C586 H577 0.930 1_556 S
C586 C584 1.378 . S
C586 C587 1.367 . S
C587 C586 1.367 . S
C587 C589 1.433 . S
C588 C584 1.350 . S
C588 C585 1.463 . S
C588 N592 1.427 . S
C589 H579 0.929 . S
C589 C587 1.433 . S
C589 N592 1.384 . S
C590 H581 0.929 . S
C590 C582 1.378 . S
C590 C585 1.350 . S
C591 H578 0.929 1_556 S
C591 C583 1.433 . S
C591 N593 1.384 . S
N592 C588 1.427 . S
N592 C589 1.384 . S
N593 C585 1.427 . S
N593 C591 1.384 . S
H594 C600 0.930 . S
H595 C604 0.930 . S
H596 C609 0.929 . S
H597 C607 0.929 . S
H598 C602 0.929 . S
H599 C608 0.929 . S
C600 H594 0.930 . S
C600 C601 1.367 . S
C600 C608 1.378 . S
C601 C600 1.367 . S
C601 C609 1.433 . S
C602 H598 0.929 . S
C602 C604 1.378 . S
C602 C606 1.350 . S
C603 C606 1.463 . S
C603 C608 1.350 . S
C603 N611 1.427 . S
C604 H595 0.930 . S
C604 C602 1.378 . S
C604 C605 1.367 . S
C605 C604 1.367 . S
C605 C607 1.433 . S
C606 C602 1.350 . S
C606 C603 1.463 . S
C606 N610 1.427 . S
C607 H597 0.929 . S
C607 C605 1.433 . S
C607 N610 1.384 . S
C608 H599 0.929 . S
C608 C600 1.378 . S
C608 C603 1.350 . S
C609 H596 0.929 . S
C609 C601 1.433 . S
C609 N611 1.384 . S
N610 C606 1.427 . S
N610 C607 1.384 . S
N611 C603 1.427 . S
N611 C609 1.384 . S
H612 C618 0.930 . S
H613 C622 0.930 . S
H614 C627 0.929 . S
H615 C625 0.929 . S
H616 C620 0.929 . S
H617 C626 0.929 . S
C618 H612 0.930 . S
C618 C619 1.367 . S
C618 C626 1.378 . S
C619 C618 1.367 . S
C619 C627 1.433 . S
C620 H616 0.929 . S
C620 C622 1.378 . S
C620 C624 1.350 . S
C621 C624 1.463 . S
C621 C626 1.350 . S
C621 N629 1.427 . S
C622 H613 0.930 . S
C622 C620 1.378 . S
C622 C623 1.367 . S
C623 C622 1.367 . S
C623 C625 1.433 . S
C624 C620 1.350 . S
C624 C621 1.463 . S
C624 N628 1.427 . S
C625 H615 0.929 . S
C625 C623 1.433 . S
C625 N628 1.384 . S
C626 H617 0.929 . S
C626 C618 1.378 . S
C626 C621 1.350 . S
C627 H614 0.929 . S
C627 C619 1.433 . S
C627 N629 1.384 . S
N628 C624 1.427 . S
N628 C625 1.384 . S
N629 C621 1.427 . S
N629 C627 1.384 . S
H630 C636 0.930 . S
H631 C640 0.930 . S
H632 C645 0.929 . S
H633 C643 0.929 . S
H634 C638 0.929 . S
H635 C644 0.929 . S
C636 H630 0.930 . S
C636 C637 1.367 . S
C636 C644 1.378 . S
C637 C636 1.367 . S
C637 C645 1.433 . S
C638 H634 0.929 . S
C638 C640 1.378 . S
C638 C642 1.350 . S
C639 C642 1.463 . S
C639 C644 1.350 . S
C639 N647 1.427 . S
C640 H631 0.930 . S
C640 C638 1.378 . S
C640 C641 1.367 . S
C641 C640 1.367 . S
C641 C643 1.433 . S
C642 C638 1.350 . S
C642 C639 1.463 . S
C642 N646 1.427 . S
C643 H633 0.929 . S
C643 C641 1.433 . S
C643 N646 1.384 . S
C644 H635 0.929 . S
C644 C636 1.378 . S
C644 C639 1.350 . S
C645 H632 0.929 . S
C645 C637 1.433 . S
C645 N647 1.384 . S
N646 C642 1.427 . S
N646 C643 1.384 . S
N647 C639 1.427 . S
N647 C645 1.384 . S
H648 C654 0.930 . S
H649 C658 0.930 . S
H650 C663 0.929 . S
H651 C661 0.929 . S
H652 C656 0.929 . S
H653 C662 0.929 . S
C654 H648 0.930 . S
C654 C655 1.367 . S
C654 C662 1.378 . S
C655 C654 1.367 . S
C655 C663 1.433 . S
C656 H652 0.929 . S
C656 C658 1.378 . S
C656 C660 1.350 . S
C657 C660 1.463 . S
C657 C662 1.350 . S
C657 N665 1.427 . S
C658 H649 0.930 . S
C658 C656 1.378 . S
C658 C659 1.367 . S
C659 C658 1.367 . S
C659 C661 1.433 . S
C660 C656 1.350 . S
C660 C657 1.463 . S
C660 N664 1.427 . S
C661 H651 0.929 . S
C661 C659 1.433 . S
C661 N664 1.384 . S
C662 H653 0.929 . S
C662 C654 1.378 . S
C662 C657 1.350 . S
C663 H650 0.929 . S
C663 C655 1.433 . S
C663 N665 1.384 . S
N664 C660 1.427 . S
N664 C661 1.384 . S
N665 C657 1.427 . S
N665 C663 1.384 . S
H666 C672 0.930 . S
H667 C676 0.930 . S
H668 C681 0.929 . S
H669 C679 0.929 . S
H670 C674 0.929 . S
H671 C680 0.929 . S
C672 H666 0.930 . S
C672 C673 1.367 . S
C672 C680 1.378 . S
C673 C672 1.367 . S
C673 C681 1.433 . S
C674 H670 0.929 . S
C674 C676 1.378 . S
C674 C678 1.350 . S
C675 C678 1.463 . S
C675 C680 1.350 . S
C675 N683 1.427 . S
C676 H667 0.930 . S
C676 C674 1.378 . S
C676 C677 1.367 . S
C677 C676 1.367 . S
C677 C679 1.433 . S
C678 C674 1.350 . S
C678 C675 1.463 . S
C678 N682 1.427 . S
C679 H669 0.929 . S
C679 C677 1.433 . S
C679 N682 1.384 . S
C680 H671 0.929 . S
C680 C672 1.378 . S
C680 C675 1.350 . S
C681 H668 0.929 . S
C681 C673 1.433 . S
C681 N683 1.384 . S
N682 C678 1.427 . S
N682 C679 1.384 . S
N683 C675 1.427 . S
N683 C681 1.384 . S
H684 C690 0.930 . S
H685 C694 0.930 . S
H686 C699 0.929 . S
H687 C697 0.929 . S
H688 C692 0.929 . S
H689 C698 0.929 . S
C690 H684 0.930 . S
C690 C691 1.367 . S
C690 C698 1.378 . S
C691 C690 1.367 . S
C691 C699 1.433 . S
C692 H688 0.929 . S
C692 C694 1.378 . S
C692 C696 1.350 . S
C693 C696 1.463 . S
C693 C698 1.350 . S
C693 N701 1.427 . S
C694 H685 0.930 . S
C694 C692 1.378 . S
C694 C695 1.367 . S
C695 C694 1.367 . S
C695 C697 1.433 . S
C696 C692 1.350 . S
C696 C693 1.463 . S
C696 N700 1.427 . S
C697 H687 0.929 . S
C697 C695 1.433 . S
C697 N700 1.384 . S
C698 H689 0.929 . S
C698 C690 1.378 . S
C698 C693 1.350 . S
C699 H686 0.929 . S
C699 C691 1.433 . S
C699 N701 1.384 . S
N700 C696 1.427 . S
N700 C697 1.384 . S
N701 C693 1.427 . S
N701 C699 1.384 . S
H702 C708 0.930 . S
H703 C712 0.930 . S
H704 C717 0.929 . S
H705 C715 0.929 . S
H706 C710 0.929 . S
H707 C716 0.929 . S
C708 H702 0.930 . S
C708 C709 1.367 . S
C708 C716 1.378 . S
C709 C708 1.367 . S
C709 C717 1.433 . S
C710 H706 0.929 . S
C710 C712 1.378 . S
C710 C714 1.350 . S
C711 C714 1.463 . S
C711 C716 1.350 . S
C711 N719 1.427 . S
C712 H703 0.930 . S
C712 C710 1.378 . S
C712 C713 1.367 . S
C713 C712 1.367 . S
C713 C715 1.433 . S
C714 C710 1.350 . S
C714 C711 1.463 . S
C714 N718 1.427 . S
C715 H705 0.929 . S
C715 C713 1.433 . S
C715 N718 1.384 . S
C716 H707 0.929 . S
C716 C708 1.378 . S
C716 C711 1.350 . S
C717 H704 0.929 . S
C717 C709 1.433 . S
C717 N719 1.384 . S
N718 C714 1.427 . S
N718 C715 1.384 . S
N719 C711 1.427 . S
N719 C717 1.384 . S
H720 C726 0.930 . S
H721 C730 0.930 . S
H722 C735 0.929 . S
H723 C733 0.929 . S
H724 C728 0.929 . S
H725 C734 0.929 . S
C726 H720 0.930 . S
C726 C727 1.367 . S
C726 C734 1.378 . S
C727 C726 1.367 . S
C727 C735 1.433 . S
C728 H724 0.929 . S
C728 C730 1.378 . S
C728 C732 1.350 . S
C729 C732 1.463 . S
C729 C734 1.350 . S
C729 N737 1.427 . S
C730 H721 0.930 . S
C730 C728 1.378 . S
C730 C731 1.367 . S
C731 C730 1.367 . S
C731 C733 1.433 . S
C732 C728 1.350 . S
C732 C729 1.463 . S
C732 N736 1.427 . S
C733 H723 0.929 . S
C733 C731 1.433 . S
C733 N736 1.384 . S
C734 H725 0.929 . S
C734 C726 1.378 . S
C734 C729 1.350 . S
C735 H722 0.929 . S
C735 C727 1.433 . S
C735 N737 1.384 . S
N736 C732 1.427 . S
N736 C733 1.384 . S
N737 C729 1.427 . S
N737 C735 1.384 . S
H738 C744 0.930 . S
H739 C748 0.930 . S
H740 C753 0.929 . S
H741 C751 0.929 . S
H742 C746 0.929 . S
H743 C752 0.929 . S
C744 H738 0.930 . S
C744 C745 1.367 . S
C744 C752 1.378 . S
C745 C744 1.367 . S
C745 C753 1.433 . S
C746 H742 0.929 . S
C746 C748 1.378 . S
C746 C750 1.350 . S
C747 C750 1.463 . S
C747 C752 1.350 . S
C747 N755 1.427 . S
C748 H739 0.930 . S
C748 C746 1.378 . S
C748 C749 1.367 . S
C749 C748 1.367 . S
C749 C751 1.433 . S
C750 C746 1.350 . S
C750 C747 1.463 . S
C750 N754 1.427 . S
C751 H741 0.929 . S
C751 C749 1.433 . S
C751 N754 1.384 . S
C752 H743 0.929 . S
C752 C744 1.378 . S
C752 C747 1.350 . S
C753 H740 0.929 . S
C753 C745 1.433 . S
C753 N755 1.384 . S
N754 C750 1.427 . S
N754 C751 1.384 . S
N755 C747 1.427 . S
N755 C753 1.384 . S
H756 C762 0.930 . S
H757 C766 0.930 . S
H758 C771 0.929 . S
H759 C769 0.929 . S
H760 C764 0.929 . S
H761 C770 0.929 . S
C762 H756 0.930 . S
C762 C763 1.367 . S
C762 C770 1.378 . S
C763 C762 1.367 . S
C763 C771 1.433 . S
C764 H760 0.929 . S
C764 C766 1.378 . S
C764 C768 1.350 . S
C765 C768 1.463 . S
C765 C770 1.350 . S
C765 N773 1.427 . S
C766 H757 0.930 . S
C766 C764 1.378 . S
C766 C767 1.367 . S
C767 C766 1.367 . S
C767 C769 1.433 . S
C768 C764 1.350 . S
C768 C765 1.463 . S
C768 N772 1.427 . S
C769 H759 0.929 . S
C769 C767 1.433 . S
C769 N772 1.384 . S
C770 H761 0.929 . S
C770 C762 1.378 . S
C770 C765 1.350 . S
C771 H758 0.929 . S
C771 C763 1.433 . S
C771 N773 1.384 . S
N772 C768 1.427 . S
N772 C769 1.384 . S
N773 C765 1.427 . S
N773 C771 1.384 . S
H774 C780 0.930 . S
H775 C784 0.930 . S
H776 C789 0.929 . S
H777 C787 0.929 . S
H778 C782 0.929 . S
H779 C788 0.929 . S
C780 H774 0.930 . S
C780 C781 1.367 . S
C780 C788 1.378 . S
C781 C780 1.367 . S
C781 C789 1.433 . S
C782 H778 0.929 . S
C782 C784 1.378 . S
C782 C786 1.350 . S
C783 C786 1.463 . S
C783 C788 1.350 . S
C783 N791 1.427 . S
C784 H775 0.930 . S
C784 C782 1.378 . S
C784 C785 1.367 . S
C785 C784 1.367 . S
C785 C787 1.433 . S
C786 C782 1.350 . S
C786 C783 1.463 . S
C786 N790 1.427 . S
C787 H777 0.929 . S
C787 C785 1.433 . S
C787 N790 1.384 . S
C788 H779 0.929 . S
C788 C780 1.378 . S
C788 C783 1.350 . S
C789 H776 0.929 . S
C789 C781 1.433 . S
C789 N791 1.384 . S
N790 C786 1.427 . S
N790 C787 1.384 . S
N791 C783 1.427 . S
N791 C789 1.384 . S
H792 C798 0.930 . S
H793 C802 0.930 . S
H794 C807 0.929 . S
H795 C805 0.929 . S
H796 C800 0.929 . S
H797 C806 0.929 . S
C798 H792 0.930 . S
C798 C799 1.367 . S
C798 C806 1.378 . S
C799 C798 1.367 . S
C799 C807 1.433 . S
C800 H796 0.929 . S
C800 C802 1.378 . S
C800 C804 1.350 . S
C801 C804 1.463 . S
C801 C806 1.350 . S
C801 N809 1.427 . S
C802 H793 0.930 . S
C802 C800 1.378 . S
C802 C803 1.367 . S
C803 C802 1.367 . S
C803 C805 1.433 . S
C804 C800 1.350 . S
C804 C801 1.463 . S
C804 N808 1.427 . S
C805 H795 0.929 . S
C805 C803 1.433 . S
C805 N808 1.384 . S
C806 H797 0.929 . S
C806 C798 1.378 . S
C806 C801 1.350 . S
C807 H794 0.929 . S
C807 C799 1.433 . S
C807 N809 1.384 . S
N808 C804 1.427 . S
N808 C805 1.384 . S
N809 C801 1.427 . S
N809 C807 1.384 . S
H810 C816 0.930 . S
H811 C820 0.930 . S
H812 C825 0.929 . S
H813 C823 0.929 . S
H814 C818 0.929 . S
H815 C824 0.929 . S
C816 H810 0.930 . S
C816 C817 1.367 . S
C816 C824 1.378 . S
C817 C816 1.367 . S
C817 C825 1.433 . S
C818 H814 0.929 . S
C818 C820 1.378 . S
C818 C822 1.350 . S
C819 C822 1.463 . S
C819 C824 1.350 . S
C819 N827 1.427 . S
C820 H811 0.930 . S
C820 C818 1.378 . S
C820 C821 1.367 . S
C821 C820 1.367 . S
C821 C823 1.433 . S
C822 C818 1.350 . S
C822 C819 1.463 . S
C822 N826 1.427 . S
C823 H813 0.929 . S
C823 C821 1.433 . S
C823 N826 1.384 . S
C824 H815 0.929 . S
C824 C816 1.378 . S
C824 C819 1.350 . S
C825 H812 0.929 . S
C825 C817 1.433 . S
C825 N827 1.384 . S
N826 C822 1.427 . S
N826 C823 1.384 . S
N827 C819 1.427 . S
N827 C825 1.384 . S
H828 C834 0.930 . S
H829 C838 0.930 . S
H830 C843 0.929 . S
H831 C841 0.929 . S
H832 C836 0.929 . S
H833 C842 0.929 . S
C834 H828 0.930 . S
C834 C835 1.367 . S
C834 C842 1.378 1_554 S
C835 C834 1.367 . S
C835 C843 1.433 . S
C836 H832 0.929 . S
C836 C838 1.378 1_554 S
C836 C840 1.350 1_554 S
C837 C840 1.463 1_454 S
C837 C842 1.350 1_554 S
C837 N845 1.427 . S
C838 H829 0.930 . S
C838 C836 1.378 1_556 S
C838 C839 1.367 . S
C839 C838 1.367 . S
C839 C841 1.433 . S
C840 C836 1.350 1_556 S
C840 C837 1.463 1_656 S
C840 N844 1.427 . S
C841 H831 0.929 . S
C841 C839 1.433 . S
C841 N844 1.384 . S
C842 H833 0.929 . S
C842 C834 1.378 1_556 S
C842 C837 1.350 1_556 S
C843 H830 0.929 . S
C843 C835 1.433 . S
C843 N845 1.384 . S
N844 C840 1.427 . S
N844 C841 1.384 . S
N845 C837 1.427 . S
N845 C843 1.384 . S
H846 C852 0.930 . S
H847 C856 0.930 . S
H848 C861 0.929 . S
H849 C859 0.929 . S
H850 C854 0.929 . S
H851 C860 0.929 . S
C852 H846 0.930 . S
C852 C853 1.367 1_554 S
C852 C860 1.378 . S
C853 C852 1.367 1_556 S
C853 C861 1.433 . S
C854 H850 0.929 . S
C854 C856 1.378 . S
C854 C858 1.350 1_556 S
C855 C858 1.463 1_556 S
C855 C860 1.350 1_556 S
C855 N863 1.427 . S
C856 H847 0.930 . S
C856 C854 1.378 . S
C856 C857 1.367 1_556 S
C857 C856 1.367 1_554 S
C857 C859 1.433 . S
C858 C854 1.350 1_554 S
C858 C855 1.463 1_554 S
C858 N862 1.427 . S
C859 H849 0.929 . S
C859 C857 1.433 . S
C859 N862 1.384 . S
C860 H851 0.929 . S
C860 C852 1.378 . S
C860 C855 1.350 1_554 S
C861 H848 0.929 . S
C861 C853 1.433 . S
C861 N863 1.384 . S
N862 C858 1.427 . S
N862 C859 1.384 . S
N863 C855 1.427 . S
N863 C861 1.384 . S
H864 C870 0.930 . S
H865 C874 0.930 . S
H866 C879 0.929 . S
H867 C877 0.929 . S
H868 C872 0.929 . S
H869 C878 0.929 . S
C870 H864 0.930 . S
C870 C871 1.367 . S
C870 C878 1.378 . S
C871 C870 1.367 . S
C871 C879 1.433 1_554 S
C872 H868 0.929 . S
C872 C874 1.378 . S
C872 C876 1.350 . S
C873 C876 1.463 1_564 S
C873 C878 1.350 . S
C873 N881 1.427 1_554 S
C874 H865 0.930 . S
C874 C872 1.378 . S
C874 C875 1.367 . S
C875 C874 1.367 . S
C875 C877 1.433 1_556 S
C876 C872 1.350 . S
C876 C873 1.463 1_546 S
C876 N880 1.427 1_556 S
C877 H867 0.929 . S
C877 C875 1.433 1_554 S
C877 N880 1.384 . S
C878 H869 0.929 . S
C878 C870 1.378 . S
C878 C873 1.350 . S
C879 H866 0.929 . S
C879 C871 1.433 1_556 S
C879 N881 1.384 . S
N880 C876 1.427 1_554 S
N880 C877 1.384 . S
N881 C873 1.427 1_556 S
N881 C879 1.384 . S
H882 C888 0.930 . S
H883 C892 0.930 . S
H884 C897 0.929 . S
H885 C895 0.929 . S
H886 C890 0.929 . S
H887 C896 0.929 . S
C888 H882 0.930 . S
C888 C889 1.367 . S
C888 C896 1.378 . S
C889 C888 1.367 . S
C889 C897 1.433 1_556 S
C890 H886 0.929 . S
C890 C892 1.378 . S
C890 C894 1.350 . S
C891 C894 1.463 1_656 S
C891 C896 1.350 . S
C891 N899 1.427 1_556 S
C892 H883 0.930 . S
C892 C890 1.378 . S
C892 C893 1.367 . S
C893 C892 1.367 . S
C893 C895 1.433 1_554 S
C894 C890 1.350 . S
C894 C891 1.463 1_454 S
C894 N898 1.427 1_554 S
C895 H885 0.929 . S
C895 C893 1.433 1_556 S
C895 N898 1.384 . S
C896 H887 0.929 . S
C896 C888 1.378 . S
C896 C891 1.350 . S
C897 H884 0.929 . S
C897 C889 1.433 1_554 S
C897 N899 1.384 . S
N898 C894 1.427 1_556 S
N898 C895 1.384 . S
N899 C891 1.427 1_554 S
N899 C897 1.384 . S
H900 C906 0.930 . S
H901 C910 0.930 . S
H902 C915 0.929 . S
H903 C913 0.929 . S
H904 C908 0.929 . S
H905 C914 0.929 . S
C906 H900 0.930 . S
C906 C907 1.367 1_554 S
C906 C914 1.378 . S
C907 C906 1.367 1_556 S
C907 C915 1.433 . S
C908 H904 0.929 . S
C908 C910 1.378 . S
C908 C912 1.350 1_556 S
C909 C912 1.463 1_556 S
C909 C914 1.350 1_556 S
C909 N917 1.427 . S
C910 H901 0.930 . S
C910 C908 1.378 . S
C910 C911 1.367 1_556 S
C911 C910 1.367 1_554 S
C911 C913 1.433 . S
C912 C908 1.350 1_554 S
C912 C909 1.463 1_554 S
C912 N916 1.427 . S
C913 H903 0.929 . S
C913 C911 1.433 . S
C913 N916 1.384 . S
C914 H905 0.929 . S
C914 C906 1.378 . S
C914 C909 1.350 1_554 S
C915 H902 0.929 . S
C915 C907 1.433 . S
C915 N917 1.384 . S
N916 C912 1.427 . S
N916 C913 1.384 . S
N917 C909 1.427 . S
N917 C915 1.384 . S
H918 C924 0.930 . S
H919 C928 0.930 . S
H920 C933 0.929 . S
H921 C931 0.929 . S
H922 C926 0.929 . S
H923 C932 0.929 . S
C924 H918 0.930 . S
C924 C925 1.367 . S
C924 C932 1.378 . S
C925 C924 1.367 . S
C925 C933 1.433 1_556 S
C926 H922 0.929 . S
C926 C928 1.378 . S
C926 C930 1.350 . S
C927 C930 1.463 1_546 S
C927 C932 1.350 . S
C927 N935 1.427 1_556 S
C928 H919 0.930 . S
C928 C926 1.378 . S
C928 C929 1.367 . S
C929 C928 1.367 . S
C929 C931 1.433 1_554 S
C930 C926 1.350 . S
C930 C927 1.463 1_564 S
C930 N934 1.427 1_554 S
C931 H921 0.929 . S
C931 C929 1.433 1_556 S
C931 N934 1.384 . S
C932 H923 0.929 . S
C932 C924 1.378 . S
C932 C927 1.350 . S
C933 H920 0.929 . S
C933 C925 1.433 1_554 S
C933 N935 1.384 . S
N934 C930 1.427 1_556 S
N934 C931 1.384 . S
N935 C927 1.427 1_554 S
N935 C933 1.384 . S
H936 C942 0.930 . S
H937 C946 0.930 . S
H938 C951 0.929 . S
H939 C949 0.929 . S
H940 C944 0.929 . S
H941 C950 0.929 . S
C942 H936 0.930 . S
C942 C943 1.367 . S
C942 C950 1.378 . S
C943 C942 1.367 . S
C943 C951 1.433 . S
C944 H940 0.929 . S
C944 C946 1.378 . S
C944 C948 1.350 . S
C945 C948 1.463 . S
C945 C950 1.350 . S
C945 N953 1.427 . S
C946 H937 0.930 . S
C946 C944 1.378 . S
C946 C947 1.367 . S
C947 C946 1.367 . S
C947 C949 1.433 . S
C948 C944 1.350 . S
C948 C945 1.463 . S
C948 N952 1.427 . S
C949 H939 0.929 . S
C949 C947 1.433 . S
C949 N952 1.384 . S
C950 H941 0.929 . S
C950 C942 1.378 . S
C950 C945 1.350 . S
C951 H938 0.929 . S
C951 C943 1.433 . S
C951 N953 1.384 . S
N952 C948 1.427 . S
N952 C949 1.384 . S
N953 C945 1.427 . S
N953 C951 1.384 . S
H954 C960 0.930 . S
H955 C964 0.930 . S
H956 C969 0.929 . S
H957 C967 0.929 . S
H958 C962 0.929 . S
H959 C968 0.929 . S
C960 H954 0.930 . S
C960 C961 1.367 . S
C960 C968 1.378 . S
C961 C960 1.367 . S
C961 C969 1.433 . S
C962 H958 0.929 . S
C962 C964 1.378 . S
C962 C966 1.350 . S
C963 C966 1.463 . S
C963 C968 1.350 . S
C963 N971 1.427 . S
C964 H955 0.930 . S
C964 C962 1.378 . S
C964 C965 1.367 . S
C965 C964 1.367 . S
C965 C967 1.433 . S
C966 C962 1.350 . S
C966 C963 1.463 . S
C966 N970 1.427 . S
C967 H957 0.929 . S
C967 C965 1.433 . S
C967 N970 1.384 . S
C968 H959 0.929 . S
C968 C960 1.378 . S
C968 C963 1.350 . S
C969 H956 0.929 . S
C969 C961 1.433 . S
C969 N971 1.384 . S
N970 C966 1.427 . S
N970 C967 1.384 . S
N971 C963 1.427 . S
N971 C969 1.384 . S
H972 C978 0.930 . S
H973 C982 0.930 . S
H974 C987 0.929 . S
H975 C985 0.929 . S
H976 C980 0.929 . S
H977 C986 0.929 . S
C978 H972 0.930 . S
C978 C979 1.367 . S
C978 C986 1.378 . S
C979 C978 1.367 . S
C979 C987 1.433 . S
C980 H976 0.929 . S
C980 C982 1.378 . S
C980 C984 1.350 . S
C981 C984 1.463 . S
C981 C986 1.350 . S
C981 N989 1.427 . S
C982 H973 0.930 . S
C982 C980 1.378 . S
C982 C983 1.367 . S
C983 C982 1.367 . S
C983 C985 1.433 . S
C984 C980 1.350 . S
C984 C981 1.463 . S
C984 N988 1.427 . S
C985 H975 0.929 . S
C985 C983 1.433 . S
C985 N988 1.384 . S
C986 H977 0.929 . S
C986 C978 1.378 . S
C986 C981 1.350 . S
C987 H974 0.929 . S
C987 C979 1.433 . S
C987 N989 1.384 . S
N988 C984 1.427 . S
N988 C985 1.384 . S
N989 C981 1.427 . S
N989 C987 1.384 . S
H990 C996 0.930 . S
H991 C1000 0.930 . S
H992 C1005 0.929 . S
H993 C1003 0.929 . S
H994 C998 0.929 . S
H995 C1004 0.929 . S
C996 H990 0.930 . S
C996 C997 1.367 . S
C996 C1004 1.378 . S
C997 C996 1.367 . S
C997 C1005 1.433 . S
C998 H994 0.929 . S
C998 C1000 1.378 . S
C998 C1002 1.350 . S
C999 C1002 1.463 . S
C999 C1004 1.350 . S
C999 N1007 1.427 . S
C1000 H991 0.930 . S
C1000 C998 1.378 . S
C1000 C1001 1.367 . S
C1001 C1000 1.367 . S
C1001 C1003 1.433 . S
C1002 C998 1.350 . S
C1002 C999 1.463 . S
C1002 N1006 1.427 . S
C1003 H993 0.929 . S
C1003 C1001 1.433 . S
C1003 N1006 1.384 . S
C1004 H995 0.929 . S
C1004 C996 1.378 . S
C1004 C999 1.350 . S
C1005 H992 0.929 . S
C1005 C997 1.433 . S
C1005 N1007 1.384 . S
N1006 C1002 1.427 . S
N1006 C1003 1.384 . S
N1007 C999 1.427 . S
N1007 C1005 1.384 . S
H1008 C1014 0.930 . S
H1009 C1018 0.930 . S
H1010 C1023 0.929 . S
H1011 C1021 0.929 . S
H1012 C1016 0.929 . S
H1013 C1022 0.929 . S
C1014 H1008 0.930 . S
C1014 C1015 1.367 . S
C1014 C1022 1.378 . S
C1015 C1014 1.367 . S
C1015 C1023 1.433 . S
C1016 H1012 0.929 . S
C1016 C1018 1.378 . S
C1016 C1020 1.350 . S
C1017 C1020 1.463 . S
C1017 C1022 1.350 . S
C1017 N1025 1.427 . S
C1018 H1009 0.930 . S
C1018 C1016 1.378 . S
C1018 C1019 1.367 . S
C1019 C1018 1.367 . S
C1019 C1021 1.433 . S
C1020 C1016 1.350 . S
C1020 C1017 1.463 . S
C1020 N1024 1.427 . S
C1021 H1011 0.929 . S
C1021 C1019 1.433 . S
C1021 N1024 1.384 . S
C1022 H1013 0.929 . S
C1022 C1014 1.378 . S
C1022 C1017 1.350 . S
C1023 H1010 0.929 . S
C1023 C1015 1.433 . S
C1023 N1025 1.384 . S
N1024 C1020 1.427 . S
N1024 C1021 1.384 . S
N1025 C1017 1.427 . S
N1025 C1023 1.384 . S
H1026 C1032 0.930 . S
H1027 C1036 0.930 . S
H1028 C1041 0.929 . S
H1029 C1039 0.929 . S
H1030 C1034 0.929 . S
H1031 C1040 0.929 . S
C1032 H1026 0.930 . S
C1032 C1033 1.367 . S
C1032 C1040 1.378 . S
C1033 C1032 1.367 . S
C1033 C1041 1.433 . S
C1034 H1030 0.929 . S
C1034 C1036 1.378 . S
C1034 C1038 1.350 . S
C1035 C1038 1.463 . S
C1035 C1040 1.350 . S
C1035 N1043 1.427 . S
C1036 H1027 0.930 . S
C1036 C1034 1.378 . S
C1036 C1037 1.367 . S
C1037 C1036 1.367 . S
C1037 C1039 1.433 . S
C1038 C1034 1.350 . S
C1038 C1035 1.463 . S
C1038 N1042 1.427 . S
C1039 H1029 0.929 . S
C1039 C1037 1.433 . S
C1039 N1042 1.384 . S
C1040 H1031 0.929 . S
C1040 C1032 1.378 . S
C1040 C1035 1.350 . S
C1041 H1028 0.929 . S
C1041 C1033 1.433 . S
C1041 N1043 1.384 . S
N1042 C1038 1.427 . S
N1042 C1039 1.384 . S
N1043 C1035 1.427 . S
N1043 C1041 1.384 . S
H1044 C1050 0.930 . S
H1045 C1054 0.930 . S
H1046 C1059 0.929 . S
H1047 C1057 0.929 . S
H1048 C1052 0.929 . S
H1049 C1058 0.929 . S
C1050 H1044 0.930 . S
C1050 C1051 1.367 . S
C1050 C1058 1.378 . S
C1051 C1050 1.367 . S
C1051 C1059 1.433 . S
C1052 H1048 0.929 . S
C1052 C1054 1.378 . S
C1052 C1056 1.350 . S
C1053 C1056 1.463 . S
C1053 C1058 1.350 . S
C1053 N1061 1.427 . S
C1054 H1045 0.930 . S
C1054 C1052 1.378 . S
C1054 C1055 1.367 . S
C1055 C1054 1.367 . S
C1055 C1057 1.433 . S
C1056 C1052 1.350 . S
C1056 C1053 1.463 . S
C1056 N1060 1.427 . S
C1057 H1047 0.929 . S
C1057 C1055 1.433 . S
C1057 N1060 1.384 . S
C1058 H1049 0.929 . S
C1058 C1050 1.378 . S
C1058 C1053 1.350 . S
C1059 H1046 0.929 . S
C1059 C1051 1.433 . S
C1059 N1061 1.384 . S
N1060 C1056 1.427 . S
N1060 C1057 1.384 . S
N1061 C1053 1.427 . S
N1061 C1059 1.384 . S
H1062 C1068 0.930 . S
H1063 C1072 0.930 . S
H1064 C1077 0.929 . S
H1065 C1075 0.929 . S
H1066 C1070 0.929 . S
H1067 C1076 0.929 . S
C1068 H1062 0.930 . S
C1068 C1069 1.367 . S
C1068 C1076 1.378 . S
C1069 C1068 1.367 . S
C1069 C1077 1.433 . S
C1070 H1066 0.929 . S
C1070 C1072 1.378 . S
C1070 C1074 1.350 . S
C1071 C1074 1.463 . S
C1071 C1076 1.350 . S
C1071 N1079 1.427 . S
C1072 H1063 0.930 . S
C1072 C1070 1.378 . S
C1072 C1073 1.367 . S
C1073 C1072 1.367 . S
C1073 C1075 1.433 . S
C1074 C1070 1.350 . S
C1074 C1071 1.463 . S
C1074 N1078 1.427 . S
C1075 H1065 0.929 . S
C1075 C1073 1.433 . S
C1075 N1078 1.384 . S
C1076 H1067 0.929 . S
C1076 C1068 1.378 . S
C1076 C1071 1.350 . S
C1077 H1064 0.929 . S
C1077 C1069 1.433 . S
C1077 N1079 1.384 . S
N1078 C1074 1.427 . S
N1078 C1075 1.384 . S
N1079 C1071 1.427 . S
N1079 C1077 1.384 . S
H1080 C1086 0.930 . S
H1081 C1090 0.930 . S
H1082 C1095 0.929 . S
H1083 C1093 0.929 . S
H1084 C1088 0.929 . S
H1085 C1094 0.929 . S
C1086 H1080 0.930 . S
C1086 C1087 1.367 . S
C1086 C1094 1.378 . S
C1087 C1086 1.367 . S
C1087 C1095 1.433 . S
C1088 H1084 0.929 . S
C1088 C1090 1.378 . S
C1088 C1092 1.350 . S
C1089 C1092 1.463 . S
C1089 C1094 1.350 . S
C1089 N1097 1.427 . S
C1090 H1081 0.930 . S
C1090 C1088 1.378 . S
C1090 C1091 1.367 . S
C1091 C1090 1.367 . S
C1091 C1093 1.433 . S
C1092 C1088 1.350 . S
C1092 C1089 1.463 . S
C1092 N1096 1.427 . S
C1093 H1083 0.929 . S
C1093 C1091 1.433 . S
C1093 N1096 1.384 . S
C1094 H1085 0.929 . S
C1094 C1086 1.378 . S
C1094 C1089 1.350 . S
C1095 H1082 0.929 . S
C1095 C1087 1.433 . S
C1095 N1097 1.384 . S
N1096 C1092 1.427 . S
N1096 C1093 1.384 . S
N1097 C1089 1.427 . S
N1097 C1095 1.384 . S
H1098 C1104 0.930 . S
H1099 C1108 0.930 . S
H1100 C1113 0.929 . S
H1101 C1111 0.929 . S
H1102 C1106 0.929 . S
H1103 C1112 0.929 . S
C1104 H1098 0.930 . S
C1104 C1105 1.367 . S
C1104 C1112 1.378 . S
C1105 C1104 1.367 . S
C1105 C1113 1.433 . S
C1106 H1102 0.929 . S
C1106 C1108 1.378 . S
C1106 C1110 1.350 . S
C1107 C1110 1.463 . S
C1107 C1112 1.350 . S
C1107 N1115 1.427 . S
C1108 H1099 0.930 . S
C1108 C1106 1.378 . S
C1108 C1109 1.367 . S
C1109 C1108 1.367 . S
C1109 C1111 1.433 . S
C1110 C1106 1.350 . S
C1110 C1107 1.463 . S
C1110 N1114 1.427 . S
C1111 H1101 0.929 . S
C1111 C1109 1.433 . S
C1111 N1114 1.384 . S
C1112 H1103 0.929 . S
C1112 C1104 1.378 . S
C1112 C1107 1.350 . S
C1113 H1100 0.929 . S
C1113 C1105 1.433 . S
C1113 N1115 1.384 . S
N1114 C1110 1.427 . S
N1114 C1111 1.384 . S
N1115 C1107 1.427 . S
N1115 C1113 1.384 . S
H1116 C1122 0.930 . S
H1117 C1126 0.930 . S
H1118 C1131 0.929 . S
H1119 C1129 0.929 . S
H1120 C1124 0.929 . S
H1121 C1130 0.929 . S
C1122 H1116 0.930 . S
C1122 C1123 1.367 . S
C1122 C1130 1.378 . S
C1123 C1122 1.367 . S
C1123 C1131 1.433 . S
C1124 H1120 0.929 . S
C1124 C1126 1.378 . S
C1124 C1128 1.350 . S
C1125 C1128 1.463 . S
C1125 C1130 1.350 . S
C1125 N1133 1.427 . S
C1126 H1117 0.930 . S
C1126 C1124 1.378 . S
C1126 C1127 1.367 . S
C1127 C1126 1.367 . S
C1127 C1129 1.433 . S
C1128 C1124 1.350 . S
C1128 C1125 1.463 . S
C1128 N1132 1.427 . S
C1129 H1119 0.929 . S
C1129 C1127 1.433 . S
C1129 N1132 1.384 . S
C1130 H1121 0.929 . S
C1130 C1122 1.378 . S
C1130 C1125 1.350 . S
C1131 H1118 0.929 . S
C1131 C1123 1.433 . S
C1131 N1133 1.384 . S
N1132 C1128 1.427 . S
N1132 C1129 1.384 . S
N1133 C1125 1.427 . S
N1133 C1131 1.384 . S
H1134 C1140 0.930 . S
H1135 C1144 0.930 . S
H1136 C1149 0.929 . S
H1137 C1147 0.929 . S
H1138 C1142 0.929 . S
H1139 C1148 0.929 . S
C1140 H1134 0.930 . S
C1140 C1141 1.367 . S
C1140 C1148 1.378 . S
C1141 C1140 1.367 . S
C1141 C1149 1.433 . S
C1142 H1138 0.929 . S
C1142 C1144 1.378 . S
C1142 C1146 1.350 . S
C1143 C1146 1.463 . S
C1143 C1148 1.350 . S
C1143 N1151 1.427 . S
C1144 H1135 0.930 . S
C1144 C1142 1.378 . S
C1144 C1145 1.367 . S
C1145 C1144 1.367 . S
C1145 C1147 1.433 . S
C1146 C1142 1.350 . S
C1146 C1143 1.463 . S
C1146 N1150 1.427 . S
C1147 H1137 0.929 . S
C1147 C1145 1.433 . S
C1147 N1150 1.384 . S
C1148 H1139 0.929 . S
C1148 C1140 1.378 . S
C1148 C1143 1.350 . S
C1149 H1136 0.929 . S
C1149 C1141 1.433 . S
C1149 N1151 1.384 . S
N1150 C1146 1.427 . S
N1150 C1147 1.384 . S
N1151 C1143 1.427 . S
N1151 C1149 1.384 . S
H1152 C1158 0.930 . S
H1153 C1162 0.930 . S
H1154 C1167 0.929 . S
H1155 C1165 0.929 . S
H1156 C1160 0.929 . S
H1157 C1166 0.929 . S
C1158 H1152 0.930 . S
C1158 C1159 1.367 . S
C1158 C1166 1.378 . S
C1159 C1158 1.367 . S
C1159 C1167 1.433 . S
C1160 H1156 0.929 . S
C1160 C1162 1.378 . S
C1160 C1164 1.350 . S
C1161 C1164 1.463 . S
C1161 C1166 1.350 . S
C1161 N1169 1.427 . S
C1162 H1153 0.930 . S
C1162 C1160 1.378 . S
C1162 C1163 1.367 . S
C1163 C1162 1.367 . S
C1163 C1165 1.433 . S
C1164 C1160 1.350 . S
C1164 C1161 1.463 . S
C1164 N1168 1.427 . S
C1165 H1155 0.929 . S
C1165 C1163 1.433 . S
C1165 N1168 1.384 . S
C1166 H1157 0.929 . S
C1166 C1158 1.378 . S
C1166 C1161 1.350 . S
C1167 H1154 0.929 . S
C1167 C1159 1.433 . S
C1167 N1169 1.384 . S
N1168 C1164 1.427 . S
N1168 C1165 1.384 . S
N1169 C1161 1.427 . S
N1169 C1167 1.384 . S
H1170 C1176 0.930 . S
H1171 C1180 0.930 . S
H1172 C1185 0.929 . S
H1173 C1183 0.929 . S
H1174 C1178 0.929 . S
H1175 C1184 0.929 . S
C1176 H1170 0.930 . S
C1176 C1177 1.367 . S
C1176 C1184 1.378 . S
C1177 C1176 1.367 . S
C1177 C1185 1.433 . S
C1178 H1174 0.929 . S
C1178 C1180 1.378 . S
C1178 C1182 1.350 . S
C1179 C1182 1.463 . S
C1179 C1184 1.350 . S
C1179 N1187 1.427 . S
C1180 H1171 0.930 . S
C1180 C1178 1.378 . S
C1180 C1181 1.367 . S
C1181 C1180 1.367 . S
C1181 C1183 1.433 . S
C1182 C1178 1.350 . S
C1182 C1179 1.463 . S
C1182 N1186 1.427 . S
C1183 H1173 0.929 . S
C1183 C1181 1.433 . S
C1183 N1186 1.384 . S
C1184 H1175 0.929 . S
C1184 C1176 1.378 . S
C1184 C1179 1.350 . S
C1185 H1172 0.929 . S
C1185 C1177 1.433 . S
C1185 N1187 1.384 . S
N1186 C1182 1.427 . S
N1186 C1183 1.384 . S
N1187 C1179 1.427 . S
N1187 C1185 1.384 . S
H1188 C1194 0.930 . S
H1189 C1198 0.930 . S
H1190 C1203 0.929 . S
H1191 C1201 0.929 . S
H1192 C1196 0.929 . S
H1193 C1202 0.929 . S
C1194 H1188 0.930 . S
C1194 C1195 1.367 . S
C1194 C1202 1.378 . S
C1195 C1194 1.367 . S
C1195 C1203 1.433 . S
C1196 H1192 0.929 . S
C1196 C1198 1.378 . S
C1196 C1200 1.350 . S
C1197 C1200 1.463 . S
C1197 C1202 1.350 . S
C1197 N1205 1.427 . S
C1198 H1189 0.930 . S
C1198 C1196 1.378 . S
C1198 C1199 1.367 . S
C1199 C1198 1.367 . S
C1199 C1201 1.433 . S
C1200 C1196 1.350 . S
C1200 C1197 1.463 . S
C1200 N1204 1.427 . S
C1201 H1191 0.929 . S
C1201 C1199 1.433 . S
C1201 N1204 1.384 . S
C1202 H1193 0.929 . S
C1202 C1194 1.378 . S
C1202 C1197 1.350 . S
C1203 H1190 0.929 . S
C1203 C1195 1.433 . S
C1203 N1205 1.384 . S
N1204 C1200 1.427 . S
N1204 C1201 1.384 . S
N1205 C1197 1.427 . S
N1205 C1203 1.384 . S
H1206 C1212 0.930 . S
H1207 C1216 0.930 . S
H1208 C1221 0.929 . S
H1209 C1219 0.929 . S
H1210 C1214 0.929 . S
H1211 C1220 0.929 . S
C1212 H1206 0.930 . S
C1212 C1213 1.367 . S
C1212 C1220 1.378 . S
C1213 C1212 1.367 . S
C1213 C1221 1.433 . S
C1214 H1210 0.929 . S
C1214 C1216 1.378 . S
C1214 C1218 1.350 . S
C1215 C1218 1.463 . S
C1215 C1220 1.350 . S
C1215 N1223 1.427 . S
C1216 H1207 0.930 . S
C1216 C1214 1.378 . S
C1216 C1217 1.367 . S
C1217 C1216 1.367 . S
C1217 C1219 1.433 . S
C1218 C1214 1.350 . S
C1218 C1215 1.463 . S
C1218 N1222 1.427 . S
C1219 H1209 0.929 . S
C1219 C1217 1.433 . S
C1219 N1222 1.384 . S
C1220 H1211 0.929 . S
C1220 C1212 1.378 . S
C1220 C1215 1.350 . S
C1221 H1208 0.929 . S
C1221 C1213 1.433 . S
C1221 N1223 1.384 . S
N1222 C1218 1.427 . S
N1222 C1219 1.384 . S
N1223 C1215 1.427 . S
N1223 C1221 1.384 . S
H1224 C1230 0.930 . S
H1225 C1234 0.930 . S
H1226 C1239 0.929 . S
H1227 C1237 0.929 . S
H1228 C1232 0.929 . S
H1229 C1238 0.929 . S
C1230 H1224 0.930 . S
C1230 C1231 1.367 . S
C1230 C1238 1.378 . S
C1231 C1230 1.367 . S
C1231 C1239 1.433 . S
C1232 H1228 0.929 . S
C1232 C1234 1.378 . S
C1232 C1236 1.350 . S
C1233 C1236 1.463 . S
C1233 C1238 1.350 . S
C1233 N1241 1.427 . S
C1234 H1225 0.930 . S
C1234 C1232 1.378 . S
C1234 C1235 1.367 . S
C1235 C1234 1.367 . S
C1235 C1237 1.433 . S
C1236 C1232 1.350 . S
C1236 C1233 1.463 . S
C1236 N1240 1.427 . S
C1237 H1227 0.929 . S
C1237 C1235 1.433 . S
C1237 N1240 1.384 . S
C1238 H1229 0.929 . S
C1238 C1230 1.378 . S
C1238 C1233 1.350 . S
C1239 H1226 0.929 . S
C1239 C1231 1.433 . S
C1239 N1241 1.384 . S
N1240 C1236 1.427 . S
N1240 C1237 1.384 . S
N1241 C1233 1.427 . S
N1241 C1239 1.384 . S
H1242 C1248 0.930 . S
H1243 C1252 0.930 . S
H1244 C1257 0.929 . S
H1245 C1255 0.929 . S
H1246 C1250 0.929 . S
H1247 C1256 0.929 . S
C1248 H1242 0.930 . S
C1248 C1249 1.367 . S
C1248 C1256 1.378 . S
C1249 C1248 1.367 . S
C1249 C1257 1.433 . S
C1250 H1246 0.929 . S
C1250 C1252 1.378 . S
C1250 C1254 1.350 . S
C1251 C1254 1.463 . S
C1251 C1256 1.350 . S
C1251 N1259 1.427 . S
C1252 H1243 0.930 . S
C1252 C1250 1.378 . S
C1252 C1253 1.367 . S
C1253 C1252 1.367 . S
C1253 C1255 1.433 . S
C1254 C1250 1.350 . S
C1254 C1251 1.463 . S
C1254 N1258 1.427 . S
C1255 H1245 0.929 . S
C1255 C1253 1.433 . S
C1255 N1258 1.384 . S
C1256 H1247 0.929 . S
C1256 C1248 1.378 . S
C1256 C1251 1.350 . S
C1257 H1244 0.929 . S
C1257 C1249 1.433 . S
C1257 N1259 1.384 . S
N1258 C1254 1.427 . S
N1258 C1255 1.384 . S
N1259 C1251 1.427 . S
N1259 C1257 1.384 . S
H1260 C1266 0.930 . S
H1261 C1270 0.930 . S
H1262 C1275 0.929 . S
H1263 C1273 0.929 . S
H1264 C1268 0.929 . S
H1265 C1274 0.929 . S
C1266 H1260 0.930 . S
C1266 C1267 1.367 . S
C1266 C1274 1.378 . S
C1267 C1266 1.367 . S
C1267 C1275 1.433 . S
C1268 H1264 0.929 . S
C1268 C1270 1.378 . S
C1268 C1272 1.350 . S
C1269 C1272 1.463 . S
C1269 C1274 1.350 . S
C1269 N1277 1.427 . S
C1270 H1261 0.930 . S
C1270 C1268 1.378 . S
C1270 C1271 1.367 . S
C1271 C1270 1.367 . S
C1271 C1273 1.433 . S
C1272 C1268 1.350 . S
C1272 C1269 1.463 . S
C1272 N1276 1.427 . S
C1273 H1263 0.929 . S
C1273 C1271 1.433 . S
C1273 N1276 1.384 . S
C1274 H1265 0.929 . S
C1274 C1266 1.378 . S
C1274 C1269 1.350 . S
C1275 H1262 0.929 . S
C1275 C1267 1.433 . S
C1275 N1277 1.384 . S
N1276 C1272 1.427 . S
N1276 C1273 1.384 . S
N1277 C1269 1.427 . S
N1277 C1275 1.384 . S
H1278 C1284 0.930 . S
H1279 C1288 0.930 . S
H1280 C1293 0.929 . S
H1281 C1291 0.929 . S
H1282 C1286 0.929 . S
H1283 C1292 0.929 . S
C1284 H1278 0.930 . S
C1284 C1285 1.367 . S
C1284 C1292 1.378 . S
C1285 C1284 1.367 . S
C1285 C1293 1.433 . S
C1286 H1282 0.929 . S
C1286 C1288 1.378 . S
C1286 C1290 1.350 . S
C1287 C1290 1.463 . S
C1287 C1292 1.350 . S
C1287 N1295 1.427 . S
C1288 H1279 0.930 . S
C1288 C1286 1.378 . S
C1288 C1289 1.367 . S
C1289 C1288 1.367 . S
C1289 C1291 1.433 . S
C1290 C1286 1.350 . S
C1290 C1287 1.463 . S
C1290 N1294 1.427 . S
C1291 H1281 0.929 . S
C1291 C1289 1.433 . S
C1291 N1294 1.384 . S
C1292 H1283 0.929 . S
C1292 C1284 1.378 . S
C1292 C1287 1.350 . S
C1293 H1280 0.929 . S
C1293 C1285 1.433 . S
C1293 N1295 1.384 . S
N1294 C1290 1.427 . S
N1294 C1291 1.384 . S
N1295 C1287 1.427 . S
N1295 C1293 1.384 . S
H1296 C1302 0.930 . S
H1297 C1306 0.930 . S
H1298 C1311 0.929 . S
H1299 C1309 0.929 . S
H1300 C1304 0.929 . S
H1301 C1310 0.929 . S
C1302 H1296 0.930 . S
C1302 C1303 1.367 . S
C1302 C1310 1.378 . S
C1303 C1302 1.367 . S
C1303 C1311 1.433 . S
C1304 H1300 0.929 . S
C1304 C1306 1.378 . S
C1304 C1308 1.350 . S
C1305 C1308 1.463 . S
C1305 C1310 1.350 . S
C1305 N1313 1.427 . S
C1306 H1297 0.930 . S
C1306 C1304 1.378 . S
C1306 C1307 1.367 . S
C1307 C1306 1.367 . S
C1307 C1309 1.433 . S
C1308 C1304 1.350 . S
C1308 C1305 1.463 . S
C1308 N1312 1.427 . S
C1309 H1299 0.929 . S
C1309 C1307 1.433 . S
C1309 N1312 1.384 . S
C1310 H1301 0.929 . S
C1310 C1302 1.378 . S
C1310 C1305 1.350 . S
C1311 H1298 0.929 . S
C1311 C1303 1.433 . S
C1311 N1313 1.384 . S
N1312 C1308 1.427 . S
N1312 C1309 1.384 . S
N1313 C1305 1.427 . S
N1313 C1311 1.384 . S
H1314 C1320 0.930 . S
H1315 C1324 0.930 . S
H1316 C1329 0.929 . S
H1317 C1327 0.929 . S
H1318 C1322 0.929 . S
H1319 C1328 0.929 . S
C1320 H1314 0.930 . S
C1320 C1321 1.367 . S
C1320 C1328 1.378 . S
C1321 C1320 1.367 . S
C1321 C1329 1.433 . S
C1322 H1318 0.929 . S
C1322 C1324 1.378 . S
C1322 C1326 1.350 . S
C1323 C1326 1.463 . S
C1323 C1328 1.350 . S
C1323 N1331 1.427 . S
C1324 H1315 0.930 . S
C1324 C1322 1.378 . S
C1324 C1325 1.367 . S
C1325 C1324 1.367 . S
C1325 C1327 1.433 . S
C1326 C1322 1.350 . S
C1326 C1323 1.463 . S
C1326 N1330 1.427 . S
C1327 H1317 0.929 . S
C1327 C1325 1.433 . S
C1327 N1330 1.384 . S
C1328 H1319 0.929 . S
C1328 C1320 1.378 . S
C1328 C1323 1.350 . S
C1329 H1316 0.929 . S
C1329 C1321 1.433 . S
C1329 N1331 1.384 . S
N1330 C1326 1.427 . S
N1330 C1327 1.384 . S
N1331 C1323 1.427 . S
N1331 C1329 1.384 . S
H1332 C1338 0.930 . S
H1333 C1342 0.930 . S
H1334 C1347 0.929 . S
H1335 C1345 0.929 . S
H1336 C1340 0.929 . S
H1337 C1346 0.929 . S
C1338 H1332 0.930 . S
C1338 C1339 1.367 . S
C1338 C1346 1.378 . S
C1339 C1338 1.367 . S
C1339 C1347 1.433 . S
C1340 H1336 0.929 . S
C1340 C1342 1.378 . S
C1340 C1344 1.350 . S
C1341 C1344 1.463 . S
C1341 C1346 1.350 . S
C1341 N1349 1.427 . S
C1342 H1333 0.930 . S
C1342 C1340 1.378 . S
C1342 C1343 1.367 . S
C1343 C1342 1.367 . S
C1343 C1345 1.433 . S
C1344 C1340 1.350 . S
C1344 C1341 1.463 . S
C1344 N1348 1.427 . S
C1345 H1335 0.929 . S
C1345 C1343 1.433 . S
C1345 N1348 1.384 . S
C1346 H1337 0.929 . S
C1346 C1338 1.378 . S
C1346 C1341 1.350 . S
C1347 H1334 0.929 . S
C1347 C1339 1.433 . S
C1347 N1349 1.384 . S
N1348 C1344 1.427 . S
N1348 C1345 1.384 . S
N1349 C1341 1.427 . S
N1349 C1347 1.384 . S
H1350 C1356 0.930 . S
H1351 C1360 0.930 . S
H1352 C1365 0.929 . S
H1353 C1363 0.929 . S
H1354 C1358 0.929 . S
H1355 C1364 0.929 . S
C1356 H1350 0.930 . S
C1356 C1357 1.367 . S
C1356 C1364 1.378 . S
C1357 C1356 1.367 . S
C1357 C1365 1.433 . S
C1358 H1354 0.929 . S
C1358 C1360 1.378 . S
C1358 C1362 1.350 . S
C1359 C1362 1.463 . S
C1359 C1364 1.350 . S
C1359 N1367 1.427 . S
C1360 H1351 0.930 . S
C1360 C1358 1.378 . S
C1360 C1361 1.367 . S
C1361 C1360 1.367 . S
C1361 C1363 1.433 . S
C1362 C1358 1.350 . S
C1362 C1359 1.463 . S
C1362 N1366 1.427 . S
C1363 H1353 0.929 . S
C1363 C1361 1.433 . S
C1363 N1366 1.384 . S
C1364 H1355 0.929 . S
C1364 C1356 1.378 . S
C1364 C1359 1.350 . S
C1365 H1352 0.929 . S
C1365 C1357 1.433 . S
C1365 N1367 1.384 . S
N1366 C1362 1.427 . S
N1366 C1363 1.384 . S
N1367 C1359 1.427 . S
N1367 C1365 1.384 . S
H1368 C1374 0.930 . S
H1369 C1378 0.930 . S
H1370 C1383 0.929 1_655 S
H1371 C1381 0.929 1_455 S
H1372 C1376 0.929 . S
H1373 C1382 0.929 . S
C1374 H1368 0.930 . S
C1374 C1375 1.367 . S
C1374 C1382 1.378 . S
C1375 C1374 1.367 . S
C1375 C1383 1.433 . S
C1376 H1372 0.929 . S
C1376 C1378 1.378 . S
C1376 C1380 1.350 . S
C1377 C1380 1.463 1_455 S
C1377 C1382 1.350 . S
C1377 N1385 1.427 1_455 S
C1378 H1369 0.930 . S
C1378 C1376 1.378 . S
C1378 C1379 1.367 . S
C1379 C1378 1.367 . S
C1379 C1381 1.433 . S
C1380 C1376 1.350 . S
C1380 C1377 1.463 1_655 S
C1380 N1384 1.427 1_655 S
C1381 H1371 0.929 1_655 S
C1381 C1379 1.433 . S
C1381 N1384 1.384 1_655 S
C1382 H1373 0.929 . S
C1382 C1374 1.378 . S
C1382 C1377 1.350 . S
C1383 H1370 0.929 1_455 S
C1383 C1375 1.433 . S
C1383 N1385 1.384 1_455 S
N1384 C1380 1.427 1_455 S
N1384 C1381 1.384 1_455 S
N1385 C1377 1.427 1_655 S
N1385 C1383 1.384 1_655 S
H1386 C1392 0.930 . S
H1387 C1396 0.930 . S
H1388 C1401 0.929 . S
H1389 C1399 0.929 . S
H1390 C1394 0.929 . S
H1391 C1400 0.929 . S
C1392 H1386 0.930 . S
C1392 C1393 1.367 . S
C1392 C1400 1.378 . S
C1393 C1392 1.367 . S
C1393 C1401 1.433 . S
C1394 H1390 0.929 . S
C1394 C1396 1.378 . S
C1394 C1398 1.350 . S
C1395 C1398 1.463 . S
C1395 C1400 1.350 . S
C1395 N1403 1.427 . S
C1396 H1387 0.930 . S
C1396 C1394 1.378 . S
C1396 C1397 1.367 . S
C1397 C1396 1.367 . S
C1397 C1399 1.433 . S
C1398 C1394 1.350 . S
C1398 C1395 1.463 . S
C1398 N1402 1.427 . S
C1399 H1389 0.929 . S
C1399 C1397 1.433 . S
C1399 N1402 1.384 . S
C1400 H1391 0.929 . S
C1400 C1392 1.378 . S
C1400 C1395 1.350 . S
C1401 H1388 0.929 . S
C1401 C1393 1.433 . S
C1401 N1403 1.384 . S
N1402 C1398 1.427 . S
N1402 C1399 1.384 . S
N1403 C1395 1.427 . S
N1403 C1401 1.384 . S
H1404 C1410 0.930 . S
H1405 C1414 0.930 . S
H1406 C1419 0.929 . S
H1407 C1417 0.929 . S
H1408 C1412 0.929 . S
H1409 C1418 0.929 . S
C1410 H1404 0.930 . S
C1410 C1411 1.367 . S
C1410 C1418 1.378 1_565 S
C1411 C1410 1.367 . S
C1411 C1419 1.433 . S
C1412 H1408 0.929 . S
C1412 C1414 1.378 1_565 S
C1412 C1416 1.350 1_565 S
C1413 C1416 1.463 1_565 S
C1413 C1418 1.350 1_565 S
C1413 N1421 1.427 . S
C1414 H1405 0.930 . S
C1414 C1412 1.378 1_545 S
C1414 C1415 1.367 . S
C1415 C1414 1.367 . S
C1415 C1417 1.433 . S
C1416 C1412 1.350 1_545 S
C1416 C1413 1.463 1_545 S
C1416 N1420 1.427 . S
C1417 H1407 0.929 . S
C1417 C1415 1.433 . S
C1417 N1420 1.384 . S
C1418 H1409 0.929 . S
C1418 C1410 1.378 1_545 S
C1418 C1413 1.350 1_545 S
C1419 H1406 0.929 . S
C1419 C1411 1.433 . S
C1419 N1421 1.384 . S
N1420 C1416 1.427 . S
N1420 C1417 1.384 . S
N1421 C1413 1.427 . S
N1421 C1419 1.384 . S
H1422 C1428 0.930 . S
H1423 C1432 0.930 . S
H1424 C1437 0.929 . S
H1425 C1435 0.929 . S
H1426 C1430 0.929 1_565 S
H1427 C1436 0.929 1_545 S
C1428 H1422 0.930 . S
C1428 C1429 1.367 . S
C1428 C1436 1.378 . S
C1429 C1428 1.367 . S
C1429 C1437 1.433 . S
C1430 H1426 0.929 1_545 S
C1430 C1432 1.378 . S
C1430 C1434 1.350 . S
C1431 C1434 1.463 1_565 S
C1431 C1436 1.350 . S
C1431 N1439 1.427 . S
C1432 H1423 0.930 . S
C1432 C1430 1.378 . S
C1432 C1433 1.367 . S
C1433 C1432 1.367 . S
C1433 C1435 1.433 . S
C1434 C1430 1.350 . S
C1434 C1431 1.463 1_545 S
C1434 N1438 1.427 . S
C1435 H1425 0.929 . S
C1435 C1433 1.433 . S
C1435 N1438 1.384 . S
C1436 H1427 0.929 1_565 S
C1436 C1428 1.378 . S
C1436 C1431 1.350 . S
C1437 H1424 0.929 . S
C1437 C1429 1.433 . S
C1437 N1439 1.384 . S
N1438 C1434 1.427 . S
N1438 C1435 1.384 . S
N1439 C1431 1.427 . S
N1439 C1437 1.384 . S
H1440 C1446 0.930 . S
H1441 C1450 0.930 . S
H1442 C1455 0.929 . S
H1443 C1453 0.929 . S
H1444 C1448 0.929 1_655 S
H1445 C1454 0.929 1_455 S
C1446 H1440 0.930 . S
C1446 C1447 1.367 . S
C1446 C1454 1.378 . S
C1447 C1446 1.367 . S
C1447 C1455 1.433 . S
C1448 H1444 0.929 1_455 S
C1448 C1450 1.378 . S
C1448 C1452 1.350 . S
C1449 C1452 1.463 1_655 S
C1449 C1454 1.350 . S
C1449 N1457 1.427 . S
C1450 H1441 0.930 . S
C1450 C1448 1.378 . S
C1450 C1451 1.367 . S
C1451 C1450 1.367 . S
C1451 C1453 1.433 . S
C1452 C1448 1.350 . S
C1452 C1449 1.463 1_455 S
C1452 N1456 1.427 . S
C1453 H1443 0.929 . S
C1453 C1451 1.433 . S
C1453 N1456 1.384 . S
C1454 H1445 0.929 1_655 S
C1454 C1446 1.378 . S
C1454 C1449 1.350 . S
C1455 H1442 0.929 . S
C1455 C1447 1.433 . S
C1455 N1457 1.384 . S
N1456 C1452 1.427 . S
N1456 C1453 1.384 . S
N1457 C1449 1.427 . S
N1457 C1455 1.384 . S
H1458 C1464 0.930 . S
H1459 C1468 0.930 . S
H1460 C1473 0.929 . S
H1461 C1471 0.929 . S
H1462 C1466 0.929 . S
H1463 C1472 0.929 . S
C1464 H1458 0.930 . S
C1464 C1465 1.367 . S
C1464 C1472 1.378 . S
C1465 C1464 1.367 . S
C1465 C1473 1.433 . S
C1466 H1462 0.929 . S
C1466 C1468 1.378 . S
C1466 C1470 1.350 . S
C1467 C1470 1.463 . S
C1467 C1472 1.350 . S
C1467 N1475 1.427 . S
C1468 H1459 0.930 . S
C1468 C1466 1.378 . S
C1468 C1469 1.367 . S
C1469 C1468 1.367 . S
C1469 C1471 1.433 . S
C1470 C1466 1.350 . S
C1470 C1467 1.463 . S
C1470 N1474 1.427 . S
C1471 H1461 0.929 . S
C1471 C1469 1.433 . S
C1471 N1474 1.384 . S
C1472 H1463 0.929 . S
C1472 C1464 1.378 . S
C1472 C1467 1.350 . S
C1473 H1460 0.929 . S
C1473 C1465 1.433 . S
C1473 N1475 1.384 . S
N1474 C1470 1.427 . S
N1474 C1471 1.384 . S
N1475 C1467 1.427 . S
N1475 C1473 1.384 . S
H1476 C1482 0.930 . S
H1477 C1486 0.930 . S
H1478 C1491 0.929 . S
H1479 C1489 0.929 . S
H1480 C1484 0.929 . S
H1481 C1490 0.929 . S
C1482 H1476 0.930 . S
C1482 C1483 1.367 . S
C1482 C1490 1.378 . S
C1483 C1482 1.367 . S
C1483 C1491 1.433 . S
C1484 H1480 0.929 . S
C1484 C1486 1.378 . S
C1484 C1488 1.350 . S
C1485 C1488 1.463 . S
C1485 C1490 1.350 . S
C1485 N1493 1.427 . S
C1486 H1477 0.930 . S
C1486 C1484 1.378 . S
C1486 C1487 1.367 . S
C1487 C1486 1.367 . S
C1487 C1489 1.433 . S
C1488 C1484 1.350 . S
C1488 C1485 1.463 . S
C1488 N1492 1.427 . S
C1489 H1479 0.929 . S
C1489 C1487 1.433 . S
C1489 N1492 1.384 . S
C1490 H1481 0.929 . S
C1490 C1482 1.378 . S
C1490 C1485 1.350 . S
C1491 H1478 0.929 . S
C1491 C1483 1.433 . S
C1491 N1493 1.384 . S
N1492 C1488 1.427 . S
N1492 C1489 1.384 . S
N1493 C1485 1.427 . S
N1493 C1491 1.384 . S
H1494 C1500 0.930 . S
H1495 C1504 0.930 . S
H1496 C1509 0.929 . S
H1497 C1507 0.929 . S
H1498 C1502 0.929 . S
H1499 C1508 0.929 . S
C1500 H1494 0.930 . S
C1500 C1501 1.367 . S
C1500 C1508 1.378 . S
C1501 C1500 1.367 . S
C1501 C1509 1.433 . S
C1502 H1498 0.929 . S
C1502 C1504 1.378 . S
C1502 C1506 1.350 . S
C1503 C1506 1.463 . S
C1503 C1508 1.350 . S
C1503 N1511 1.427 . S
C1504 H1495 0.930 . S
C1504 C1502 1.378 . S
C1504 C1505 1.367 . S
C1505 C1504 1.367 . S
C1505 C1507 1.433 . S
C1506 C1502 1.350 . S
C1506 C1503 1.463 . S
C1506 N1510 1.427 . S
C1507 H1497 0.929 . S
C1507 C1505 1.433 . S
C1507 N1510 1.384 . S
C1508 H1499 0.929 . S
C1508 C1500 1.378 . S
C1508 C1503 1.350 . S
C1509 H1496 0.929 . S
C1509 C1501 1.433 . S
C1509 N1511 1.384 . S
N1510 C1506 1.427 . S
N1510 C1507 1.384 . S
N1511 C1503 1.427 . S
N1511 C1509 1.384 . S
H1512 C1518 0.930 . S
H1513 C1522 0.930 . S
H1514 C1527 0.929 . S
H1515 C1525 0.929 . S
H1516 C1520 0.929 . S
H1517 C1526 0.929 . S
C1518 H1512 0.930 . S
C1518 C1519 1.367 . S
C1518 C1526 1.378 . S
C1519 C1518 1.367 . S
C1519 C1527 1.433 . S
C1520 H1516 0.929 . S
C1520 C1522 1.378 . S
C1520 C1524 1.350 . S
C1521 C1524 1.463 . S
C1521 C1526 1.350 . S
C1521 N1529 1.427 . S
C1522 H1513 0.930 . S
C1522 C1520 1.378 . S
C1522 C1523 1.367 . S
C1523 C1522 1.367 . S
C1523 C1525 1.433 . S
C1524 C1520 1.350 . S
C1524 C1521 1.463 . S
C1524 N1528 1.427 . S
C1525 H1515 0.929 . S
C1525 C1523 1.433 . S
C1525 N1528 1.384 . S
C1526 H1517 0.929 . S
C1526 C1518 1.378 . S
C1526 C1521 1.350 . S
C1527 H1514 0.929 . S
C1527 C1519 1.433 . S
C1527 N1529 1.384 . S
N1528 C1524 1.427 . S
N1528 C1525 1.384 . S
N1529 C1521 1.427 . S
N1529 C1527 1.384 . S
H1530 C1536 0.930 . S
H1531 C1540 0.930 . S
H1532 C1545 0.929 . S
H1533 C1543 0.929 . S
H1534 C1538 0.929 . S
H1535 C1544 0.929 . S
C1536 H1530 0.930 . S
C1536 C1537 1.367 . S
C1536 C1544 1.378 . S
C1537 C1536 1.367 . S
C1537 C1545 1.433 . S
C1538 H1534 0.929 . S
C1538 C1540 1.378 . S
C1538 C1542 1.350 . S
C1539 C1542 1.463 . S
C1539 C1544 1.350 . S
C1539 N1547 1.427 . S
C1540 H1531 0.930 . S
C1540 C1538 1.378 . S
C1540 C1541 1.367 . S
C1541 C1540 1.367 . S
C1541 C1543 1.433 . S
C1542 C1538 1.350 . S
C1542 C1539 1.463 . S
C1542 N1546 1.427 . S
C1543 H1533 0.929 . S
C1543 C1541 1.433 . S
C1543 N1546 1.384 . S
C1544 H1535 0.929 . S
C1544 C1536 1.378 . S
C1544 C1539 1.350 . S
C1545 H1532 0.929 . S
C1545 C1537 1.433 . S
C1545 N1547 1.384 . S
N1546 C1542 1.427 . S
N1546 C1543 1.384 . S
N1547 C1539 1.427 . S
N1547 C1545 1.384 . S
H1548 C1554 0.930 . S
H1549 C1558 0.930 . S
H1550 C1563 0.929 . S
H1551 C1561 0.929 . S
H1552 C1556 0.929 . S
H1553 C1562 0.929 . S
C1554 H1548 0.930 . S
C1554 C1555 1.367 . S
C1554 C1562 1.378 . S
C1555 C1554 1.367 . S
C1555 C1563 1.433 . S
C1556 H1552 0.929 . S
C1556 C1558 1.378 . S
C1556 C1560 1.350 . S
C1557 C1560 1.463 . S
C1557 C1562 1.350 . S
C1557 N1565 1.427 . S
C1558 H1549 0.930 . S
C1558 C1556 1.378 . S
C1558 C1559 1.367 . S
C1559 C1558 1.367 . S
C1559 C1561 1.433 . S
C1560 C1556 1.350 . S
C1560 C1557 1.463 . S
C1560 N1564 1.427 . S
C1561 H1551 0.929 . S
C1561 C1559 1.433 . S
C1561 N1564 1.384 . S
C1562 H1553 0.929 . S
C1562 C1554 1.378 . S
C1562 C1557 1.350 . S
C1563 H1550 0.929 . S
C1563 C1555 1.433 . S
C1563 N1565 1.384 . S
N1564 C1560 1.427 . S
N1564 C1561 1.384 . S
N1565 C1557 1.427 . S
N1565 C1563 1.384 . S
H1566 C1572 0.930 . S
H1567 C1576 0.930 . S
H1568 C1581 0.929 . S
H1569 C1579 0.929 . S
H1570 C1574 0.929 . S
H1571 C1580 0.929 . S
C1572 H1566 0.930 . S
C1572 C1573 1.367 . S
C1572 C1580 1.378 . S
C1573 C1572 1.367 . S
C1573 C1581 1.433 . S
C1574 H1570 0.929 . S
C1574 C1576 1.378 . S
C1574 C1578 1.350 . S
C1575 C1578 1.463 . S
C1575 C1580 1.350 . S
C1575 N1583 1.427 . S
C1576 H1567 0.930 . S
C1576 C1574 1.378 . S
C1576 C1577 1.367 . S
C1577 C1576 1.367 . S
C1577 C1579 1.433 . S
C1578 C1574 1.350 . S
C1578 C1575 1.463 . S
C1578 N1582 1.427 . S
C1579 H1569 0.929 . S
C1579 C1577 1.433 . S
C1579 N1582 1.384 . S
C1580 H1571 0.929 . S
C1580 C1572 1.378 . S
C1580 C1575 1.350 . S
C1581 H1568 0.929 . S
C1581 C1573 1.433 . S
C1581 N1583 1.384 . S
N1582 C1578 1.427 . S
N1582 C1579 1.384 . S
N1583 C1575 1.427 . S
N1583 C1581 1.384 . S
H1584 C1590 0.930 . S
H1585 C1594 0.930 . S
H1586 C1599 0.929 . S
H1587 C1597 0.929 . S
H1588 C1592 0.929 . S
H1589 C1598 0.929 . S
C1590 H1584 0.930 . S
C1590 C1591 1.367 . S
C1590 C1598 1.378 . S
C1591 C1590 1.367 . S
C1591 C1599 1.433 . S
C1592 H1588 0.929 . S
C1592 C1594 1.378 . S
C1592 C1596 1.350 . S
C1593 C1596 1.463 . S
C1593 C1598 1.350 . S
C1593 N1601 1.427 . S
C1594 H1585 0.930 . S
C1594 C1592 1.378 . S
C1594 C1595 1.367 . S
C1595 C1594 1.367 . S
C1595 C1597 1.433 . S
C1596 C1592 1.350 . S
C1596 C1593 1.463 . S
C1596 N1600 1.427 . S
C1597 H1587 0.929 . S
C1597 C1595 1.433 . S
C1597 N1600 1.384 . S
C1598 H1589 0.929 . S
C1598 C1590 1.378 . S
C1598 C1593 1.350 . S
C1599 H1586 0.929 . S
C1599 C1591 1.433 . S
C1599 N1601 1.384 . S
N1600 C1596 1.427 . S
N1600 C1597 1.384 . S
N1601 C1593 1.427 . S
N1601 C1599 1.384 . S
H1602 C1608 0.930 . S
H1603 C1612 0.930 . S
H1604 C1617 0.929 . S
H1605 C1615 0.929 . S
H1606 C1610 0.929 . S
H1607 C1616 0.929 . S
C1608 H1602 0.930 . S
C1608 C1609 1.367 . S
C1608 C1616 1.378 . S
C1609 C1608 1.367 . S
C1609 C1617 1.433 . S
C1610 H1606 0.929 . S
C1610 C1612 1.378 . S
C1610 C1614 1.350 . S
C1611 C1614 1.463 . S
C1611 C1616 1.350 . S
C1611 N1619 1.427 . S
C1612 H1603 0.930 . S
C1612 C1610 1.378 . S
C1612 C1613 1.367 . S
C1613 C1612 1.367 . S
C1613 C1615 1.433 . S
C1614 C1610 1.350 . S
C1614 C1611 1.463 . S
C1614 N1618 1.427 . S
C1615 H1605 0.929 . S
C1615 C1613 1.433 . S
C1615 N1618 1.384 . S
C1616 H1607 0.929 . S
C1616 C1608 1.378 . S
C1616 C1611 1.350 . S
C1617 H1604 0.929 . S
C1617 C1609 1.433 . S
C1617 N1619 1.384 . S
N1618 C1614 1.427 . S
N1618 C1615 1.384 . S
N1619 C1611 1.427 . S
N1619 C1617 1.384 . S
H1620 C1626 0.930 . S
H1621 C1630 0.930 . S
H1622 C1635 0.929 . S
H1623 C1633 0.929 . S
H1624 C1628 0.929 . S
H1625 C1634 0.929 . S
C1626 H1620 0.930 . S
C1626 C1627 1.367 . S
C1626 C1634 1.378 . S
C1627 C1626 1.367 . S
C1627 C1635 1.433 . S
C1628 H1624 0.929 . S
C1628 C1630 1.378 . S
C1628 C1632 1.350 . S
C1629 C1632 1.463 . S
C1629 C1634 1.350 . S
C1629 N1637 1.427 . S
C1630 H1621 0.930 . S
C1630 C1628 1.378 . S
C1630 C1631 1.367 . S
C1631 C1630 1.367 . S
C1631 C1633 1.433 . S
C1632 C1628 1.350 . S
C1632 C1629 1.463 . S
C1632 N1636 1.427 . S
C1633 H1623 0.929 . S
C1633 C1631 1.433 . S
C1633 N1636 1.384 . S
C1634 H1625 0.929 . S
C1634 C1626 1.378 . S
C1634 C1629 1.350 . S
C1635 H1622 0.929 . S
C1635 C1627 1.433 . S
C1635 N1637 1.384 . S
N1636 C1632 1.427 . S
N1636 C1633 1.384 . S
N1637 C1629 1.427 . S
N1637 C1635 1.384 . S
H1638 C1644 0.930 . S
H1639 C1648 0.930 . S
H1640 C1653 0.929 . S
H1641 C1651 0.929 . S
H1642 C1646 0.929 . S
H1643 C1652 0.929 . S
C1644 H1638 0.930 . S
C1644 C1645 1.367 . S
C1644 C1652 1.378 . S
C1645 C1644 1.367 . S
C1645 C1653 1.433 . S
C1646 H1642 0.929 . S
C1646 C1648 1.378 . S
C1646 C1650 1.350 . S
C1647 C1650 1.463 . S
C1647 C1652 1.350 . S
C1647 N1655 1.427 . S
C1648 H1639 0.930 . S
C1648 C1646 1.378 . S
C1648 C1649 1.367 . S
C1649 C1648 1.367 . S
C1649 C1651 1.433 . S
C1650 C1646 1.350 . S
C1650 C1647 1.463 . S
C1650 N1654 1.427 . S
C1651 H1641 0.929 . S
C1651 C1649 1.433 . S
C1651 N1654 1.384 . S
C1652 H1643 0.929 . S
C1652 C1644 1.378 . S
C1652 C1647 1.350 . S
C1653 H1640 0.929 . S
C1653 C1645 1.433 . S
C1653 N1655 1.384 . S
N1654 C1650 1.427 . S
N1654 C1651 1.384 . S
N1655 C1647 1.427 . S
N1655 C1653 1.384 . S
H1656 C1662 0.930 . S
H1657 C1666 0.930 . S
H1658 C1671 0.929 . S
H1659 C1669 0.929 . S
H1660 C1664 0.929 . S
H1661 C1670 0.929 . S
C1662 H1656 0.930 . S
C1662 C1663 1.367 . S
C1662 C1670 1.378 . S
C1663 C1662 1.367 . S
C1663 C1671 1.433 . S
C1664 H1660 0.929 . S
C1664 C1666 1.378 . S
C1664 C1668 1.350 . S
C1665 C1668 1.463 . S
C1665 C1670 1.350 . S
C1665 N1673 1.427 . S
C1666 H1657 0.930 . S
C1666 C1664 1.378 . S
C1666 C1667 1.367 . S
C1667 C1666 1.367 . S
C1667 C1669 1.433 . S
C1668 C1664 1.350 . S
C1668 C1665 1.463 . S
C1668 N1672 1.427 . S
C1669 H1659 0.929 . S
C1669 C1667 1.433 . S
C1669 N1672 1.384 . S
C1670 H1661 0.929 . S
C1670 C1662 1.378 . S
C1670 C1665 1.350 . S
C1671 H1658 0.929 . S
C1671 C1663 1.433 . S
C1671 N1673 1.384 . S
N1672 C1668 1.427 . S
N1672 C1669 1.384 . S
N1673 C1665 1.427 . S
N1673 C1671 1.384 . S
H1674 C1680 0.930 . S
H1675 C1684 0.930 . S
H1676 C1689 0.929 . S
H1677 C1687 0.929 . S
H1678 C1682 0.929 . S
H1679 C1688 0.929 . S
C1680 H1674 0.930 . S
C1680 C1681 1.367 . S
C1680 C1688 1.378 . S
C1681 C1680 1.367 . S
C1681 C1689 1.433 . S
C1682 H1678 0.929 . S
C1682 C1684 1.378 . S
C1682 C1686 1.350 . S
C1683 C1686 1.463 . S
C1683 C1688 1.350 . S
C1683 N1691 1.427 . S
C1684 H1675 0.930 . S
C1684 C1682 1.378 . S
C1684 C1685 1.367 . S
C1685 C1684 1.367 . S
C1685 C1687 1.433 . S
C1686 C1682 1.350 . S
C1686 C1683 1.463 . S
C1686 N1690 1.427 . S
C1687 H1677 0.929 . S
C1687 C1685 1.433 . S
C1687 N1690 1.384 . S
C1688 H1679 0.929 . S
C1688 C1680 1.378 . S
C1688 C1683 1.350 . S
C1689 H1676 0.929 . S
C1689 C1681 1.433 . S
C1689 N1691 1.384 . S
N1690 C1686 1.427 . S
N1690 C1687 1.384 . S
N1691 C1683 1.427 . S
N1691 C1689 1.384 . S
H1692 C1698 0.930 . S
H1693 C1702 0.930 . S
H1694 C1707 0.929 . S
H1695 C1705 0.929 . S
H1696 C1700 0.929 . S
H1697 C1706 0.929 . S
C1698 H1692 0.930 . S
C1698 C1699 1.367 . S
C1698 C1706 1.378 . S
C1699 C1698 1.367 . S
C1699 C1707 1.433 . S
C1700 H1696 0.929 . S
C1700 C1702 1.378 . S
C1700 C1704 1.350 . S
C1701 C1704 1.463 1_456 S
C1701 C1706 1.350 . S
C1701 N1709 1.427 . S
C1702 H1693 0.930 . S
C1702 C1700 1.378 . S
C1702 C1703 1.367 . S
C1703 C1702 1.367 . S
C1703 C1705 1.433 . S
C1704 C1700 1.350 . S
C1704 C1701 1.463 1_654 S
C1704 N1708 1.427 . S
C1705 H1695 0.929 . S
C1705 C1703 1.433 . S
C1705 N1708 1.384 . S
C1706 H1697 0.929 . S
C1706 C1698 1.378 . S
C1706 C1701 1.350 . S
C1707 H1694 0.929 . S
C1707 C1699 1.433 . S
C1707 N1709 1.384 . S
N1708 C1704 1.427 . S
N1708 C1705 1.384 . S
N1709 C1701 1.427 . S
N1709 C1707 1.384 . S
H1710 C1716 0.930 . S
H1711 C1720 0.930 . S
H1712 C1725 0.929 . S
H1713 C1723 0.929 . S
H1714 C1718 0.929 . S
H1715 C1724 0.929 . S
C1716 H1710 0.930 . S
C1716 C1717 1.367 . S
C1716 C1724 1.378 . S
C1717 C1716 1.367 . S
C1717 C1725 1.433 . S
C1718 H1714 0.929 . S
C1718 C1720 1.378 . S
C1718 C1722 1.350 . S
C1719 C1722 1.463 1_554 S
C1719 C1724 1.350 . S
C1719 N1727 1.427 . S
C1720 H1711 0.930 . S
C1720 C1718 1.378 . S
C1720 C1721 1.367 . S
C1721 C1720 1.367 . S
C1721 C1723 1.433 . S
C1722 C1718 1.350 . S
C1722 C1719 1.463 1_556 S
C1722 N1726 1.427 . S
C1723 H1713 0.929 . S
C1723 C1721 1.433 . S
C1723 N1726 1.384 . S
C1724 H1715 0.929 . S
C1724 C1716 1.378 . S
C1724 C1719 1.350 . S
C1725 H1712 0.929 . S
C1725 C1717 1.433 . S
C1725 N1727 1.384 . S
N1726 C1722 1.427 . S
N1726 C1723 1.384 . S
N1727 C1719 1.427 . S
N1727 C1725 1.384 . S
H1728 C1734 0.930 1_565 S
H1729 C1738 0.930 1_545 S
H1730 C1743 0.929 . S
H1731 C1741 0.929 . S
H1732 C1736 0.929 . S
H1733 C1742 0.929 . S
C1734 H1728 0.930 1_545 S
C1734 C1735 1.367 . S
C1734 C1742 1.378 1_545 S
C1735 C1734 1.367 . S
C1735 C1743 1.433 . S
C1736 H1732 0.929 . S
C1736 C1738 1.378 1_545 S
C1736 C1740 1.350 1_545 S
C1737 C1740 1.463 1_544 S
C1737 C1742 1.350 1_545 S
C1737 N1745 1.427 . S
C1738 H1729 0.930 1_565 S
C1738 C1736 1.378 1_565 S
C1738 C1739 1.367 . S
C1739 C1738 1.367 . S
C1739 C1741 1.433 . S
C1740 C1736 1.350 1_565 S
C1740 C1737 1.463 1_566 S
C1740 N1744 1.427 . S
C1741 H1731 0.929 . S
C1741 C1739 1.433 . S
C1741 N1744 1.384 . S
C1742 H1733 0.929 . S
C1742 C1734 1.378 1_565 S
C1742 C1737 1.350 1_565 S
C1743 H1730 0.929 . S
C1743 C1735 1.433 . S
C1743 N1745 1.384 . S
N1744 C1740 1.427 . S
N1744 C1741 1.384 . S
N1745 C1737 1.427 . S
N1745 C1743 1.384 . S
H1746 C1752 0.928 1_545 S
H1747 C1756 0.933 1_565 S
H1748 C1761 0.929 . S
H1749 C1759 0.929 . S
H1750 C1754 0.929 . S
H1751 C1760 0.929 . S
C1752 H1746 0.928 1_565 S
C1752 C1753 1.370 . S
C1752 C1760 1.377 1_565 S
C1753 C1752 1.370 . S
C1753 C1761 1.433 . S
C1754 H1750 0.929 . S
C1754 C1756 1.379 1_565 S
C1754 C1758 1.350 1_565 S
C1755 C1758 1.463 1_566 S
C1755 C1760 1.350 1_565 S
C1755 N1763 1.427 . S
C1756 H1747 0.933 1_545 S
C1756 C1754 1.379 1_545 S
C1756 C1757 1.363 . S
C1757 C1756 1.363 . S
C1757 C1759 1.433 . S
C1758 C1754 1.350 1_545 S
C1758 C1755 1.463 1_544 S
C1758 N1762 1.427 . S
C1759 H1749 0.929 . S
C1759 C1757 1.433 . S
C1759 N1762 1.384 . S
C1760 H1751 0.929 . S
C1760 C1752 1.377 1_545 S
C1760 C1755 1.350 1_545 S
C1761 H1748 0.929 . S
C1761 C1753 1.433 . S
C1761 N1763 1.384 . S
N1762 C1758 1.427 . S
N1762 C1759 1.384 . S
N1763 C1755 1.427 . S
N1763 C1761 1.384 . S
H1764 C1770 0.929 . S
H1765 C1774 0.929 . S
H1766 C1779 0.929 . S
H1767 C1777 0.929 . S
H1768 C1772 0.929 . S
H1769 C1778 0.929 . S
C1770 H1764 0.929 . S
C1770 C1771 1.367 . S
C1770 C1778 1.378 1_455 S
C1771 C1770 1.367 . S
C1771 C1779 1.433 . S
C1772 H1768 0.929 . S
C1772 C1774 1.378 1_455 S
C1772 C1776 1.350 1_455 S
C1773 C1776 1.463 1_456 S
C1773 C1778 1.350 1_455 S
C1773 N1781 1.427 . S
C1774 H1765 0.929 . S
C1774 C1772 1.378 1_655 S
C1774 C1775 1.367 . S
C1775 C1774 1.367 . S
C1775 C1777 1.433 . S
C1776 C1772 1.350 1_655 S
C1776 C1773 1.463 1_654 S
C1776 N1780 1.427 . S
C1777 H1767 0.929 . S
C1777 C1775 1.433 . S
C1777 N1780 1.384 . S
C1778 H1769 0.929 . S
C1778 C1770 1.378 1_655 S
C1778 C1773 1.350 1_655 S
C1779 H1766 0.929 . S
C1779 C1771 1.433 . S
C1779 N1781 1.384 . S
N1780 C1776 1.427 . S
N1780 C1777 1.384 . S
N1781 C1773 1.427 . S
N1781 C1779 1.384 . S
H1782 C1788 0.930 . S
H1783 C1792 0.930 . S
H1784 C1797 0.929 . S
H1785 C1795 0.929 . S
H1786 C1790 0.929 . S
H1787 C1796 0.929 . S
C1788 H1782 0.930 . S
C1788 C1789 1.367 . S
C1788 C1796 1.378 . S
C1789 C1788 1.367 . S
C1789 C1797 1.433 . S
C1790 H1786 0.929 . S
C1790 C1792 1.378 . S
C1790 C1794 1.350 . S
C1791 C1794 1.463 1_554 S
C1791 C1796 1.350 . S
C1791 N1799 1.427 . S
C1792 H1783 0.930 . S
C1792 C1790 1.378 . S
C1792 C1793 1.367 . S
C1793 C1792 1.367 . S
C1793 C1795 1.433 . S
C1794 C1790 1.350 . S
C1794 C1791 1.463 1_556 S
C1794 N1798 1.427 . S
C1795 H1785 0.929 . S
C1795 C1793 1.433 . S
C1795 N1798 1.384 . S
C1796 H1787 0.929 . S
C1796 C1788 1.378 . S
C1796 C1791 1.350 . S
C1797 H1784 0.929 . S
C1797 C1789 1.433 . S
C1797 N1799 1.384 . S
N1798 C1794 1.427 . S
N1798 C1795 1.384 . S
N1799 C1791 1.427 . S
N1799 C1797 1.384 . S
C511 C8 1.312 . S
C515 C162 1.301 . S
C529 C22 1.302 . S
C533 C134 1.311 . S
C547 C148 1.312 . S
C551 C36 1.300 . S
C565 C50 1.300 . S
C569 C106 1.313 . S
C583 C120 1.300 . S
C587 C64 1.312 . S
C601 C78 1.313 . S
C605 C92 1.300 . S
C619 C330 1.305 . S
C623 C176 1.308 . S
C637 C190 1.303 . S
C641 C302 1.309 . S
C655 C204 1.301 . S
C659 C316 1.311 . S
C673 C274 1.301 . S
C677 C218 1.312 . S
C691 C232 1.310 . S
C695 C288 1.302 . S
C709 C260 1.313 . S
C713 C246 1.300 . S
C727 C344 1.305 . S
C731 C498 1.308 . S
C745 C470 1.299 . S
C749 C358 1.314 . S
C763 C484 1.301 . S
C767 C372 1.311 . S
C781 C442 1.299 . S
C785 C386 1.314 . S
C799 C456 1.305 . S
C803 C400 1.307 . S
C817 C428 1.310 . S
C821 C414 1.303 . S
C835 C7 1.405 . S
C839 C63 1.399 . S
C853 C77 1.401 . S
C857 C21 1.400 . S
C871 C35 1.408 . S
C875 C49 1.406 . S
C889 C91 1.404 . S
C893 C147 1.408 . S
C907 C105 1.402 . S
C911 C161 1.400 . S
C925 C119 1.407 . S
C929 C133 1.407 . S
C943 C231 1.407 . S
C947 C175 1.400 . S
C961 C245 1.406 . S
C965 C189 1.400 . S
C979 C203 1.399 . S
C983 C217 1.401 . S
C997 C315 1.400 . S
C1001 C259 1.406 . S
C1015 C329 1.406 . S
C1019 C273 1.409 . S
C1033 C287 1.400 . S
C1037 C301 1.407 . S
C1051 C399 1.407 . S
C1055 C343 1.407 . S
C1069 C357 1.408 . S
C1073 C413 1.407 . S
C1087 C371 1.408 . S
C1091 C385 1.403 . S
C1105 C483 1.399 . S
C1109 C427 1.400 . S
C1123 C441 1.409 . S
C1127 C497 1.406 . S
C1141 C469 1.401 . S
C1145 C455 1.399 . S
C1159 C415 1.448 . S
C1163 C9 1.446 . S
C1177 C23 1.451 . S
C1181 C387 1.451 . S
C1195 C37 1.448 . S
C1199 C401 1.445 . S
C1213 C51 1.445 . S
C1217 C191 1.443 . S
C1231 C205 1.445 . S
C1235 C65 1.448 . S
C1249 C177 1.451 . S
C1253 C79 1.450 . S
C1267 C93 1.443 . S
C1271 C331 1.442 . S
C1285 C107 1.445 . S
C1289 C303 1.448 . S
C1303 C121 1.441 . S
C1307 C317 1.442 . S
C1321 C443 1.445 . S
C1325 C135 1.448 . S
C1339 C457 1.445 . S
C1343 C149 1.448 . S
C1357 C163 1.443 . S
C1361 C429 1.441 . S
C1375 C359 1.443 . S
C1379 C219 1.442 . S
C1393 C233 1.442 . S
C1397 C373 1.441 . S
C1411 C345 1.450 . S
C1415 C247 1.448 . S
C1429 C499 1.447 . S
C1433 C261 1.449 . S
C1447 C275 1.449 . S
C1451 C471 1.446 . S
C1465 C289 1.441 . S
C1469 C485 1.442 . S
C1483 C6 1.555 . S
C1487 C412 1.557 . S
C1501 C384 1.552 . S
C1505 C20 1.555 . S
C1519 C34 1.545 . S
C1523 C398 1.546 . S
C1537 C188 1.555 . S
C1541 C48 1.551 . S
C1555 C62 1.556 . S
C1559 C202 1.555 . S
C1573 C76 1.556 . S
C1577 C174 1.553 . S
C1591 C328 1.545 . S
C1595 C90 1.547 . S
C1609 C104 1.548 . S
C1613 C300 1.545 . S
C1627 C118 1.549 . S
C1631 C314 1.546 . S
C1645 C132 1.549 . S
C1649 C440 1.553 . S
C1663 C454 1.547 . S
C1667 C146 1.551 . S
C1681 C160 1.545 . S
C1685 C426 1.547 . S
C1699 C356 1.551 . S
C1703 C216 1.554 . S
C1717 C230 1.555 . S
C1721 C370 1.556 . S
C1735 C244 1.548 . S
C1739 C342 1.546 . S
C1753 C496 1.545 . S
C1757 C258 1.546 . S
C1771 C468 1.546 . S
C1775 C272 1.549 . S
C1789 C286 1.551 . S
C1793 C482 1.547 . S
