# Generated by pormake.
# Topology ecc, (8)-cn, num edge types: 1
# Building blocks:
#     Node 0, Type 0, BuildingBlock: TAGTUT_clean_sbu_1, # of connection points: 8
#     Node 1, Type 0, BuildingBlock: TAGTUT_clean_sbu_1, # of connection points: 8
#     Node 2, Type 0, BuildingBlock: TAGTUT_clean_sbu_1, # of connection points: 8
#     Node 3, Type 0, BuildingBlock: TAGTUT_clean_sbu_1, # of connection points: 8
#     Node 4, Type 0, BuildingBlock: TAGTUT_clean_sbu_1, # of connection points: 8
#     Node 5, Type 0, BuildingBlock: TAGTUT_clean_sbu_1, # of connection points: 8
#     Node 6, Type 0, BuildingBlock: TAGTUT_clean_sbu_1, # of connection points: 8
#     Node 7, Type 0, BuildingBlock: TAGTUT_clean_sbu_1, # of connection points: 8
#     Node 8, Type 0, BuildingBlock: TAGTUT_clean_sbu_1, # of connection points: 8
#     Node 9, Type 0, BuildingBlock: TAGTUT_clean_sbu_1, # of connection points: 8
#     Node 10, Type 0, BuildingBlock: TAGTUT_clean_sbu_1, # of connection points: 8
#     Node 11, Type 0, BuildingBlock: TAGTUT_clean_sbu_1, # of connection points: 8
#     Node 12, Type 0, BuildingBlock: TAGTUT_clean_sbu_1, # of connection points: 8
#     Node 13, Type 0, BuildingBlock: TAGTUT_clean_sbu_1, # of connection points: 8
#     Node 14, Type 0, BuildingBlock: TAGTUT_clean_sbu_1, # of connection points: 8
#     Node 15, Type 0, BuildingBlock: TAGTUT_clean_sbu_1, # of connection points: 8
#     Node 16, Type 0, BuildingBlock: TAGTUT_clean_sbu_1, # of connection points: 8
#     Node 17, Type 0, BuildingBlock: TAGTUT_clean_sbu_1, # of connection points: 8
#     Edge 18, Type (0, 0), None
#     Edge 19, Type (0, 0), None
#     Edge 20, Type (0, 0), None
#     Edge 21, Type (0, 0), None
#     Edge 22, Type (0, 0), None
#     Edge 23, Type (0, 0), None
#     Edge 24, Type (0, 0), None
#     Edge 25, Type (0, 0), None
#     Edge 26, Type (0, 0), None
#     Edge 27, Type (0, 0), None
#     Edge 28, Type (0, 0), None
#     Edge 29, Type (0, 0), None
#     Edge 30, Type (0, 0), None
#     Edge 31, Type (0, 0), None
#     Edge 32, Type (0, 0), None
#     Edge 33, Type (0, 0), None
#     Edge 34, Type (0, 0), None
#     Edge 35, Type (0, 0), None
#     Edge 36, Type (0, 0), None
#     Edge 37, Type (0, 0), None
#     Edge 38, Type (0, 0), None
#     Edge 39, Type (0, 0), None
#     Edge 40, Type (0, 0), None
#     Edge 41, Type (0, 0), None
#     Edge 42, Type (0, 0), None
#     Edge 43, Type (0, 0), None
#     Edge 44, Type (0, 0), None
#     Edge 45, Type (0, 0), None
#     Edge 46, Type (0, 0), None
#     Edge 47, Type (0, 0), None
#     Edge 48, Type (0, 0), None
#     Edge 49, Type (0, 0), None
#     Edge 50, Type (0, 0), None
#     Edge 51, Type (0, 0), None
#     Edge 52, Type (0, 0), None
#     Edge 53, Type (0, 0), None
#     Edge 54, Type (0, 0), None
#     Edge 55, Type (0, 0), None
#     Edge 56, Type (0, 0), None
#     Edge 57, Type (0, 0), None
#     Edge 58, Type (0, 0), None
#     Edge 59, Type (0, 0), None
#     Edge 60, Type (0, 0), None
#     Edge 61, Type (0, 0), None
#     Edge 62, Type (0, 0), None
#     Edge 63, Type (0, 0), None
#     Edge 64, Type (0, 0), None
#     Edge 65, Type (0, 0), None
#     Edge 66, Type (0, 0), None
#     Edge 67, Type (0, 0), None
#     Edge 68, Type (0, 0), None
#     Edge 69, Type (0, 0), None
#     Edge 70, Type (0, 0), None
#     Edge 71, Type (0, 0), None
#     Edge 72, Type (0, 0), None
#     Edge 73, Type (0, 0), None
#     Edge 74, Type (0, 0), None
#     Edge 75, Type (0, 0), None
#     Edge 76, Type (0, 0), None
#     Edge 77, Type (0, 0), None
#     Edge 78, Type (0, 0), None
#     Edge 79, Type (0, 0), None
#     Edge 80, Type (0, 0), None
#     Edge 81, Type (0, 0), None
#     Edge 82, Type (0, 0), None
#     Edge 83, Type (0, 0), None
#     Edge 84, Type (0, 0), None
#     Edge 85, Type (0, 0), None
#     Edge 86, Type (0, 0), None
#     Edge 87, Type (0, 0), None
#     Edge 88, Type (0, 0), None
#     Edge 89, Type (0, 0), None
# Relax obj value: 0.240
# Max RMSD: 0.200
# Mean RMSD: 0.200
data_MOF--net-ecc--node1-TAGTUT_clean_sbu_1--edge1-none
_symmetry_space_group_name_H-M    P1
_symmetry_Int_Tables_number       1
_symmetry_cell_setting            triclinic
loop_
_symmetry_equiv_pos_as_xyz
'x, y, z'
_cell_length_a     31.708477
_cell_length_b     31.706876
_cell_length_c     13.215232
_cell_angle_alpha  89.990036
_cell_angle_beta   90.015841
_cell_angle_gamma 119.99867
loop_
_atom_site_label
_atom_site_type_symbol
_atom_site_fract_x
_atom_site_fract_y
_atom_site_fract_z
_atom_type_partial_charge
C0 C 0.29239 0.08375 0.97232 0.0
C1 C 0.17188 0.09007 0.97768 0.0
C2 C 0.08296 0.90196 0.89309 0.0
Mg3 Mg 0.22871 0.0967 0.7953 0.0
O4 O 0.19787 0.02928 0.78664 0.0
Mg5 Mg 0.1838 -0.00803 0.91675 0.0
Mg6 Mg 0.12822 -0.01042 0.73297 0.0
O7 O 0.0616 0.94745 0.68952 0.0
Mg8 Mg 0.03347 0.87878 0.70577 0.0
Mg9 Mg 0.06639 -0.03203 0.55205 0.0
C10 C 0.18492 0.06848 0.564 0.0
C11 C 0.07626 0.0555 0.67671 0.0
O12 O 0.26149 0.03825 0.97643 0.0
O13 O 0.28974 0.11145 0.90366 0.0
O14 O 0.172 0.05028 -0.00383 0.0
O15 O 0.18378 0.1111 0.89199 0.0
O16 O 0.21468 0.09943 0.62986 0.0
O17 O 0.15271 0.02399 0.58487 0.0
C18 C 0.18254 0.92829 0.7119 0.0
O19 O 0.14925 0.9356 0.67922 0.0
O20 O 0.2012 0.94347 0.80097 0.0
O21 O -0.02034 0.9141 0.59972 0.0
O22 O -0.03436 0.86801 0.74074 0.0
O23 O 0.07992 0.90864 0.49211 0.0
C24 C -0.04872 0.88651 0.67321 0.0
O25 O 0.02369 0.8424 0.56768 0.0
O26 O 0.07731 0.87488 0.81789 0.0
C27 C 0.04983 0.86337 0.49155 0.0
O28 O 0.10243 0.94822 0.88278 0.0
O29 O 0.10252 0.04983 0.74581 0.0
O30 O 0.05807 0.02688 0.60262 0.0
C31 C 0.86905 0.23988 0.9723 0.0
C32 C 0.86268 0.11303 0.97764 0.0
C33 C 0.05078 0.21218 0.89303 0.0
Mg34 Mg 0.85606 0.16326 0.79524 0.0
O35 O 0.92349 0.19982 0.7866 0.0
Mg36 Mg -0.0392 0.22303 0.91673 0.0
Mg37 Mg -0.03683 0.16985 0.73293 0.0
O38 O 0.00529 0.14535 0.68949 0.0
Mg39 Mg 0.07396 0.18588 0.70574 0.0
Mg40 Mg -0.01524 0.12963 0.55202 0.0
C41 C 0.88427 0.14767 0.56394 0.0
C42 C 0.89724 0.05198 0.67669 0.0
O43 O 0.91454 0.25445 0.97643 0.0
O44 O 0.84134 0.20954 0.90362 0.0
O45 O 0.90248 0.15291 -0.00386 0.0
O46 O 0.84165 0.10392 0.89194 0.0
O47 O 0.85333 0.1465 0.62979 0.0
O48 O 0.92877 0.15997 0.58482 0.0
C49 C 0.02448 0.28546 0.71191 0.0
O50 O 0.01715 0.24486 0.67921 0.0
O51 O 0.00931 0.28894 0.80098 0.0
O52 O 0.03863 0.09676 0.59972 0.0
O53 O 0.08471 0.12879 0.74076 0.0
O54 O 0.04411 0.20248 0.49203 0.0
C55 C 0.06622 0.09595 0.67323 0.0
O56 O 0.11034 0.21245 0.56764 0.0
O57 O 0.07786 0.2336 0.81782 0.0
C58 C 0.08937 0.21763 0.49148 0.0
O59 O 0.00452 0.18538 0.88275 0.0
O60 O 0.90291 0.08391 0.74578 0.0
O61 O 0.92586 0.06242 0.60261 0.0
C62 C 0.71291 0.66039 0.97233 0.0
C63 C 0.83975 0.78088 0.97768 0.0
C64 C 0.7406 0.86983 0.89304 0.0
Mg65 Mg 0.78952 0.72403 0.7953 0.0
O66 O 0.75296 0.7549 0.78663 0.0
Mg67 Mg 0.72976 0.76899 0.91674 0.0
Mg68 Mg 0.78293 0.82455 0.73296 0.0
O69 O 0.80744 0.89118 0.68952 0.0
Mg70 Mg 0.76689 0.91931 0.70573 0.0
Mg71 Mg 0.82313 0.88636 0.55205 0.0
C72 C 0.80511 0.76783 0.564 0.0
C73 C 0.9008 0.87648 0.6767 0.0
O74 O 0.69834 0.69132 0.97644 0.0
O75 O 0.74324 0.66302 0.90367 0.0
O76 O 0.79987 0.78079 -0.00384 0.0
O77 O 0.84886 0.76895 0.892 0.0
O78 O 0.80629 0.73807 0.62987 0.0
O79 O 0.79282 0.80004 0.58486 0.0
C80 C 0.66732 0.77026 0.7119 0.0
O81 O 0.70792 0.80353 0.67921 0.0
O82 O 0.66385 0.75161 0.80098 0.0
O83 O 0.85598 -0.0269 0.59973 0.0
O84 O 0.82396 -0.01287 0.74076 0.0
O85 O 0.75025 0.87282 0.49216 0.0
C86 C 0.85679 0.00149 0.67322 0.0
O87 O 0.74032 0.92912 0.56763 0.0
O88 O 0.71917 0.87549 0.81782 0.0
C89 C 0.73512 0.90295 0.49152 0.0
O90 O 0.7674 0.85037 0.88276 0.0
O91 O 0.86887 0.85022 0.7458 0.0
O92 O 0.89036 0.89468 0.60261 0.0
C93 C -0.03514 0.10273 0.2848 0.0
C94 C 0.86626 0.1257 0.46683 0.0
C95 C 0.731 0.92084 0.39438 0.0
Mg96 Mg 0.88272 0.11046 0.25258 0.0
O97 O 0.85465 0.0418 0.26866 0.0
Mg98 Mg 0.84977 0.02118 0.40619 0.0
Mg99 Mg 0.78803 -0.00032 0.22498 0.0
O100 O 0.71838 0.95995 0.17141 0.0
Mg101 Mg 0.68724 0.89248 0.16315 0.0
Mg102 Mg 0.73237 -0.00277 0.04136 0.0
C103 C 0.83353 0.08734 0.06533 0.0
C104 C 0.73367 0.06091 0.24631 0.0
O105 O 0.93647 0.07511 0.35827 0.0
O106 O -0.04949 0.12128 0.21737 0.0
O107 O 0.83615 0.08043 0.46622 0.0
O108 O 0.89242 0.1467 0.39074 0.0
O109 O 0.8389 0.11432 0.14055 0.0
O110 O 0.81373 0.04103 0.07512 0.0
C111 C 0.84004 0.9338 0.28128 0.0
O112 O 0.8138 0.93948 0.21212 0.0
O113 O 0.85818 0.96238 0.35545 0.0
O114 O 0.65469 0.95098 -0.01831 0.0
O115 O 0.62625 0.87783 0.05476 0.0
O116 O 0.74415 0.93884 0.96225 0.0
C117 C 0.62369 0.90553 -0.01406 0.0
O118 O 0.73204 0.87787 0.06641 0.0
O119 O 0.70105 0.88982 0.32885 0.0
C120 C 0.74414 0.89899 -0.01919 0.0
O121 O 0.76358 0.96507 0.37263 0.0
O122 O 0.76694 0.05356 0.27895 0.0
O123 O 0.71501 0.04576 0.15721 0.0
C124 C 0.85008 0.89336 0.28479 0.0
C125 C 0.82709 0.7718 0.46689 0.0
C126 C 0.03194 0.84134 0.39444 0.0
Mg127 Mg 0.84233 0.80348 0.25261 0.0
O128 O 0.91099 0.84405 0.26869 0.0
Mg129 Mg 0.93162 0.85979 0.40622 0.0
Mg130 Mg -0.0469 0.81955 0.22502 0.0
O131 O -0.00718 0.78961 0.17145 0.0
Mg132 Mg 0.06028 0.82592 0.16321 0.0
Mg133 Mg -0.04446 0.76635 0.04138 0.0
C134 C 0.86544 0.77742 0.06538 0.0
C135 C 0.89185 0.70397 0.2463 0.0
O136 O 0.87769 0.89257 0.35827 0.0
O137 O 0.83153 0.86047 0.21736 0.0
O138 O 0.87235 0.78692 0.4663 0.0
O139 O 0.80609 0.77697 0.39078 0.0
O140 O 0.83848 0.75582 0.14061 0.0
O141 O 0.91175 0.80392 0.07516 0.0
C142 C 0.01899 0.93743 0.2813 0.0
O143 O 0.0133 0.90551 0.21215 0.0
O144 O -0.00958 0.92698 0.35546 0.0
O145 O 0.00176 0.7349 -0.0183 0.0
O146 O 0.07491 0.77958 0.05479 0.0
O147 O 0.01394 0.83653 0.96227 0.0
C148 C 0.04721 0.74934 -0.01404 0.0
O149 O 0.07491 0.88534 0.06646 0.0
O150 O 0.06295 0.84239 0.32892 0.0
C151 C 0.0538 0.87636 -0.01915 0.0
O152 O -0.01229 0.82968 0.37268 0.0
O153 O 0.89922 0.74458 0.27896 0.0
O154 O 0.90699 0.70046 0.15721 0.0
C155 C 0.05943 -0.0121 0.2848 0.0
C156 C 0.18098 0.08649 0.46685 0.0
C157 C 0.11141 0.22177 0.39438 0.0
Mg158 Mg 0.14928 0.07004 0.25262 0.0
O159 O 0.10869 0.09811 0.26866 0.0
Mg160 Mg 0.09298 0.103 0.40619 0.0
Mg161 Mg 0.13319 0.16473 0.22499 0.0
O162 O 0.16314 0.23438 0.17142 0.0
Mg163 Mg 0.12683 0.26554 0.16315 0.0
Mg164 Mg 0.18639 0.22036 0.04137 0.0
C165 C 0.17533 0.1192 0.06538 0.0
C166 C 0.24878 0.21906 0.24631 0.0
O167 O 0.06021 0.0163 0.35826 0.0
O168 O 0.09231 0.00224 0.21736 0.0
O169 O 0.16588 0.11664 0.46617 0.0
O170 O 0.1758 0.0603 0.39079 0.0
O171 O 0.19694 0.11383 0.14061 0.0
O172 O 0.14883 0.13901 0.07514 0.0
C173 C 0.01533 0.11275 0.28129 0.0
O174 O 0.04724 0.13899 0.21213 0.0
O175 O 0.02577 0.09461 0.35546 0.0
O176 O 0.21784 0.29803 -0.01832 0.0
O177 O 0.17317 0.32652 0.05475 0.0
O178 O 0.11622 0.20859 0.96225 0.0
C179 C 0.2034 0.32905 -0.01407 0.0
O180 O 0.06741 0.22076 0.0664 0.0
O181 O 0.11035 0.25173 0.32885 0.0
C182 C 0.07639 0.20863 -0.01919 0.0
O183 O 0.12306 0.1892 0.37264 0.0
O184 O 0.20817 0.1858 0.27897 0.0
O185 O 0.25228 0.2377 0.1572 0.0
C186 C -0.04094 0.41708 0.30565 0.0
C187 C 0.83855 0.4234 0.31101 0.0
C188 C 0.74963 0.2353 0.22642 0.0
Mg189 Mg 0.89538 0.43004 0.12864 0.0
O190 O 0.86454 0.36261 0.11997 0.0
Mg191 Mg 0.85047 0.3253 0.25008 0.0
Mg192 Mg 0.79489 0.32291 0.0663 0.0
O193 O 0.72826 0.28078 0.02285 0.0
Mg194 Mg 0.70014 0.21211 0.0391 0.0
Mg195 Mg 0.73306 0.30131 0.88538 0.0
C196 C 0.85159 0.40182 0.89733 0.0
C197 C 0.74292 0.38883 0.01005 0.0
O198 O 0.92815 0.37159 0.30976 0.0
O199 O -0.0436 0.44479 0.23699 0.0
O200 O 0.83866 0.38361 0.3295 0.0
O201 O 0.85045 0.44443 0.22532 0.0
O202 O 0.88135 0.43276 0.96319 0.0
O203 O 0.81938 0.35732 0.9182 0.0
C204 C 0.8492 0.26162 0.04524 0.0
O205 O 0.81592 0.26893 0.01256 0.0
O206 O 0.86787 0.2768 0.13431 0.0
O207 O 0.64633 0.24743 0.93305 0.0
O208 O 0.63231 0.20135 0.07408 0.0
O209 O 0.74659 0.24197 0.82544 0.0
C210 C 0.61794 0.21984 0.00655 0.0
O211 O 0.69036 0.17573 0.90102 0.0
O212 O 0.74397 0.20821 0.15122 0.0
C213 C 0.7165 0.1967 0.82488 0.0
O214 O 0.76909 0.28156 0.21612 0.0
O215 O 0.76919 0.38316 0.07915 0.0
O216 O 0.72473 0.36021 0.93595 0.0
C217 C 0.53572 0.57321 0.30564 0.0
C218 C 0.52935 0.44636 0.31097 0.0
C219 C 0.71745 0.54551 0.22637 0.0
Mg220 Mg 0.52273 0.49659 0.12857 0.0
O221 O 0.59015 0.53315 0.11993 0.0
Mg222 Mg 0.62746 0.55636 0.25006 0.0
Mg223 Mg 0.62984 0.50319 0.06627 0.0
O224 O 0.67196 0.47869 0.02282 0.0
Mg225 Mg 0.74063 0.51921 0.03907 0.0
Mg226 Mg 0.65143 0.46296 0.88535 0.0
C227 C 0.55094 0.48101 0.89727 0.0
C228 C 0.5639 0.38531 0.01003 0.0
O229 O 0.5812 0.58778 0.30976 0.0
O230 O 0.50801 0.54287 0.23696 0.0
O231 O 0.56914 0.48625 0.32947 0.0
O232 O 0.50832 0.43725 0.22527 0.0
O233 O 0.52 0.47983 0.96313 0.0
O234 O 0.59544 0.4933 0.91815 0.0
C235 C 0.69115 0.61879 0.04524 0.0
O236 O 0.68382 0.57819 0.01255 0.0
O237 O 0.67598 0.62227 0.13431 0.0
O238 O 0.7053 0.43009 0.93305 0.0
O239 O 0.75137 0.46213 0.0741 0.0
O240 O 0.71077 0.53581 0.82536 0.0
C241 C 0.73288 0.42928 0.00656 0.0
O242 O 0.777 0.54578 0.90098 0.0
O243 O 0.74452 0.56694 0.15116 0.0
C244 C 0.75604 0.55097 0.82482 0.0
O245 O 0.67119 0.51872 0.21608 0.0
O246 O 0.56958 0.41724 0.07912 0.0
O247 O 0.59252 0.39575 0.93594 0.0
C248 C 0.37957 -0.00627 0.30566 0.0
C249 C 0.50642 0.11421 0.31101 0.0
C250 C 0.40727 0.20317 0.22637 0.0
Mg251 Mg 0.45619 0.05737 0.12863 0.0
O252 O 0.41963 0.08823 0.11996 0.0
Mg253 Mg 0.39642 0.10233 0.25007 0.0
Mg254 Mg 0.4496 0.15788 0.06629 0.0
O255 O 0.4741 0.22451 0.02286 0.0
Mg256 Mg 0.43356 0.25264 0.03907 0.0
Mg257 Mg 0.48979 0.2197 0.88539 0.0
C258 C 0.47178 0.10116 0.89733 0.0
C259 C 0.56747 0.20982 0.01004 0.0
O260 O 0.36501 0.02465 0.30977 0.0
O261 O 0.40991 -0.00364 0.237 0.0
O262 O 0.46653 0.11412 0.32949 0.0
O263 O 0.51553 0.10229 0.22533 0.0
O264 O 0.47295 0.0714 0.9632 0.0
O265 O 0.45948 0.13337 0.91819 0.0
C266 C 0.33399 0.1036 0.04524 0.0
O267 O 0.37459 0.13687 0.01254 0.0
O268 O 0.33052 0.08495 0.13431 0.0
O269 O 0.52265 0.30643 0.93307 0.0
O270 O 0.49062 0.32047 0.07409 0.0
O271 O 0.41692 0.20616 0.82549 0.0
C272 C 0.52346 0.33483 0.00656 0.0
O273 O 0.40698 0.26245 0.90096 0.0
O274 O 0.38584 0.20882 0.15115 0.0
C275 C 0.40178 0.23629 0.82486 0.0
O276 O 0.43406 0.1837 0.21609 0.0
O277 O 0.53554 0.18356 0.07913 0.0
O278 O 0.55702 0.22801 0.93595 0.0
C279 C 0.63153 0.43606 0.61814 0.0
C280 C 0.53293 0.45903 0.80016 0.0
C281 C 0.39767 0.25417 0.72771 0.0
Mg282 Mg 0.54938 0.4438 0.58591 0.0
O283 O 0.52132 0.37514 0.60199 0.0
Mg284 Mg 0.51644 0.35451 0.73952 0.0
Mg285 Mg 0.4547 0.33301 0.55831 0.0
O286 O 0.38504 0.29328 0.50474 0.0
Mg287 Mg 0.35391 0.22581 0.49648 0.0
Mg288 Mg 0.39903 0.33056 0.37469 0.0
C289 C 0.5002 0.42068 0.39866 0.0
C290 C 0.40034 0.39424 0.57964 0.0
O291 O 0.60314 0.40845 0.6916 0.0
O292 O 0.61718 0.45462 0.55071 0.0
O293 O 0.50281 0.41376 0.79956 0.0
O294 O 0.55909 0.48004 0.72407 0.0
O295 O 0.50557 0.44765 0.47388 0.0
O296 O 0.48039 0.37436 0.40845 0.0
C297 C 0.5067 0.26713 0.61461 0.0
O298 O 0.48046 0.27282 0.54545 0.0
O299 O 0.52484 0.29571 0.68879 0.0
O300 O 0.32136 0.28432 0.31503 0.0
O301 O 0.29291 0.21116 0.38809 0.0
O302 O 0.41082 0.27217 0.29558 0.0
C303 C 0.29036 0.23886 0.31927 0.0
O304 O 0.3987 0.2112 0.39974 0.0
O305 O 0.36771 0.22316 0.66219 0.0
C306 C 0.41081 0.23232 0.31414 0.0
O307 O 0.43025 0.2984 0.70596 0.0
O308 O 0.43361 0.38689 0.61229 0.0
O309 O 0.38168 0.3791 0.49054 0.0
C310 C 0.51674 0.22669 0.61812 0.0
C311 C 0.49376 0.10513 0.80023 0.0
C312 C 0.69861 0.17467 0.72777 0.0
Mg313 Mg 0.509 0.13681 0.58595 0.0
O314 O 0.57765 0.17739 0.60202 0.0
Mg315 Mg 0.59829 0.19313 0.73955 0.0
Mg316 Mg 0.61977 0.15289 0.55835 0.0
O317 O 0.65948 0.12294 0.50478 0.0
Mg318 Mg 0.72695 0.15925 0.49655 0.0
Mg319 Mg 0.6222 0.09969 0.37471 0.0
C320 C 0.53211 0.11075 0.39872 0.0
C321 C 0.55852 0.0373 0.57963 0.0
O322 O 0.54436 0.22591 0.6916 0.0
O323 O 0.49819 0.19381 0.55069 0.0
O324 O 0.53902 0.12026 0.79964 0.0
O325 O 0.47276 0.1103 0.72411 0.0
O326 O 0.50514 0.08915 0.47394 0.0
O327 O 0.57842 0.13726 0.40849 0.0
C328 C 0.68566 0.27076 0.61463 0.0
O329 O 0.67997 0.23884 0.54548 0.0
O330 O 0.65709 0.26032 0.6888 0.0
O331 O 0.66842 0.06823 0.31503 0.0
O332 O 0.74157 0.11291 0.38812 0.0
O333 O 0.6806 0.16986 0.29561 0.0
C334 C 0.71387 0.08268 0.31929 0.0
O335 O 0.74158 0.21867 0.39979 0.0
O336 O 0.72961 0.17573 0.66225 0.0
C337 C 0.72046 0.20969 0.31418 0.0
O338 O 0.65437 0.16302 0.70601 0.0
O339 O 0.56589 0.07791 0.6123 0.0
O340 O 0.57366 0.03379 0.49054 0.0
C341 C 0.7261 0.32123 0.61813 0.0
C342 C 0.84764 0.41982 0.80019 0.0
C343 C 0.77807 0.55511 0.72771 0.0
Mg344 Mg 0.81594 0.40337 0.58595 0.0
O345 O 0.77536 0.43144 0.60199 0.0
Mg346 Mg 0.75965 0.43634 0.73952 0.0
Mg347 Mg 0.79986 0.49806 0.55832 0.0
O348 O 0.82981 0.56772 0.50476 0.0
Mg349 Mg 0.7935 0.59888 0.49649 0.0
Mg350 Mg 0.85306 0.5537 0.3747 0.0
C351 C 0.842 0.45253 0.39871 0.0
C352 C 0.91545 0.55239 0.57964 0.0
O353 O 0.72688 0.34963 0.69159 0.0
O354 O 0.75897 0.33557 0.5507 0.0
O355 O 0.83254 0.44998 0.7995 0.0
O356 O 0.84246 0.39363 0.72412 0.0
O357 O 0.86361 0.44717 0.47395 0.0
O358 O 0.81549 0.47234 0.40847 0.0
C359 C 0.68199 0.44608 0.61462 0.0
O360 O 0.71391 0.47232 0.54547 0.0
O361 O 0.69244 0.42794 0.68879 0.0
O362 O 0.8845 0.63137 0.31502 0.0
O363 O 0.83984 0.65985 0.38808 0.0
O364 O 0.78288 0.54193 0.29559 0.0
C365 C 0.87007 0.66238 0.31926 0.0
O366 O 0.73408 0.55409 0.39973 0.0
O367 O 0.77702 0.58507 0.66218 0.0
C368 C 0.74306 0.54196 0.31414 0.0
O369 O 0.78973 0.52253 0.70597 0.0
O370 O 0.87483 0.51914 0.6123 0.0
O371 O 0.91895 0.57104 0.49053 0.0
C372 C 0.62572 0.75041 0.63899 0.0
C373 C 0.50522 0.75673 0.64434 0.0
C374 C 0.4163 0.56863 0.55975 0.0
Mg375 Mg 0.56204 0.76337 0.46197 0.0
O376 O 0.5312 0.69594 0.45331 0.0
Mg377 Mg 0.51714 0.65863 0.58341 0.0
Mg378 Mg 0.46155 0.65624 0.39964 0.0
O379 O 0.39493 0.61411 0.35619 0.0
Mg380 Mg 0.36681 0.54544 0.37243 0.0
Mg381 Mg 0.39972 0.63464 0.21872 0.0
C382 C 0.51826 0.73515 0.23066 0.0
C383 C 0.40959 0.72217 0.34338 0.0
O384 O 0.59482 0.70492 0.6431 0.0
O385 O 0.62307 0.77812 0.57032 0.0
O386 O 0.50533 0.71694 0.66283 0.0
O387 O 0.51712 0.77776 0.55866 0.0
O388 O 0.54801 0.76609 0.29653 0.0
O389 O 0.48605 0.69065 0.25154 0.0
C390 C 0.51587 0.59495 0.37857 0.0
O391 O 0.48258 0.60227 0.34589 0.0
O392 O 0.53453 0.61013 0.46764 0.0
O393 O 0.313 0.58076 0.26639 0.0
O394 O 0.29897 0.53468 0.40741 0.0
O395 O 0.41325 0.57531 0.15877 0.0
C396 C 0.28461 0.55317 0.33988 0.0
O397 O 0.35702 0.50907 0.23435 0.0
O398 O 0.41064 0.54154 0.48455 0.0
C399 C 0.38316 0.53003 0.15822 0.0
O400 O 0.43576 0.61489 0.54945 0.0
O401 O 0.43586 0.7165 0.41248 0.0
O402 O 0.3914 0.69354 0.26929 0.0
C403 C 0.20238 0.90654 0.63897 0.0
C404 C 0.19601 0.7797 0.6443 0.0
C405 C 0.38411 0.87884 0.5597 0.0
Mg406 Mg 0.1894 0.82992 0.4619 0.0
O407 O 0.25682 0.86648 0.45326 0.0
Mg408 Mg 0.29413 0.8897 0.58339 0.0
Mg409 Mg 0.2965 0.83652 0.3996 0.0
O410 O 0.33863 0.81202 0.35616 0.0
Mg411 Mg 0.40729 0.85254 0.3724 0.0
Mg412 Mg 0.3181 0.7963 0.21869 0.0
C413 C 0.2176 0.81434 0.23061 0.0
C414 C 0.23057 0.71864 0.34336 0.0
O415 O 0.24787 0.92112 0.64309 0.0
O416 O 0.17467 0.8762 0.57029 0.0
O417 O 0.23581 0.81958 0.66281 0.0
O418 O 0.17498 0.77058 0.55861 0.0
O419 O 0.18667 0.81316 0.29646 0.0
O420 O 0.2621 0.82663 0.25148 0.0
C421 C 0.35782 0.95213 0.37858 0.0
O422 O 0.35048 0.91153 0.34588 0.0
O423 O 0.34265 0.9556 0.46764 0.0
O424 O 0.37196 0.76342 0.26639 0.0
O425 O 0.41804 0.79546 0.40743 0.0
O426 O 0.37744 0.86914 0.15869 0.0
C427 C 0.39955 0.76261 0.33989 0.0
O428 O 0.44367 0.87912 0.23431 0.0
O429 O 0.41119 0.90027 0.48449 0.0
C430 C 0.42271 0.8843 0.15815 0.0
O431 O 0.33786 0.85205 0.54941 0.0
O432 O 0.23625 0.75058 0.41245 0.0
O433 O 0.25919 0.72908 0.26928 0.0
C434 C 0.04624 0.32706 0.639 0.0
C435 C 0.17308 0.44754 0.64434 0.0
C436 C 0.07394 0.5365 0.5597 0.0
Mg437 Mg 0.12286 0.3907 0.46196 0.0
O438 O 0.0863 0.42157 0.45329 0.0
Mg439 Mg 0.06309 0.43566 0.5834 0.0
Mg440 Mg 0.11626 0.49122 0.39963 0.0
O441 O 0.14077 0.55784 0.35619 0.0
Mg442 Mg 0.10023 0.58597 0.3724 0.0
Mg443 Mg 0.15646 0.55303 0.21872 0.0
C444 C 0.13845 0.4345 0.23067 0.0
C445 C 0.23413 0.54315 0.34337 0.0
O446 O 0.03167 0.35798 0.6431 0.0
O447 O 0.07658 0.32969 0.57034 0.0
O448 O 0.1332 0.44745 0.66283 0.0
O449 O 0.18219 0.43562 0.55866 0.0
O450 O 0.13962 0.40473 0.29653 0.0
O451 O 0.12615 0.4667 0.25152 0.0
C452 C 0.00066 0.43693 0.37857 0.0
O453 O 0.04126 0.4702 0.34587 0.0
O454 O -0.00282 0.41828 0.46765 0.0
O455 O 0.18932 0.63977 0.2664 0.0
O456 O 0.15729 0.6538 0.40742 0.0
O457 O 0.08358 0.53949 0.15883 0.0
C458 C 0.19013 0.66816 0.33989 0.0
O459 O 0.07365 0.59579 0.2343 0.0
O460 O 0.0525 0.54216 0.48448 0.0
C461 C 0.06845 0.56962 0.15819 0.0
O462 O 0.10073 0.51704 0.54943 0.0
O463 O 0.20221 0.51689 0.41247 0.0
O464 O 0.22369 0.56135 0.26928 0.0
C465 C 0.29819 0.7694 0.95147 0.0
C466 C 0.19959 0.79237 0.13349 0.0
C467 C 0.06433 0.58751 0.06104 0.0
Mg468 Mg 0.21605 0.77713 0.91925 0.0
O469 O 0.18798 0.70847 0.93533 0.0
Mg470 Mg 0.18311 0.68784 0.07286 0.0
Mg471 Mg 0.12137 0.66634 0.89165 0.0
O472 O 0.05171 0.62662 0.83808 0.0
Mg473 Mg 0.02058 0.55915 0.82982 0.0
Mg474 Mg 0.0657 0.66389 0.70802 0.0
C475 C 0.16686 0.75401 0.732 0.0
C476 C 0.06701 0.72757 0.91297 0.0
O477 O 0.2698 0.74178 0.02494 0.0
O478 O 0.28385 0.78795 0.88404 0.0
O479 O 0.16948 0.7471 0.13289 0.0
O480 O 0.22575 0.81337 0.0574 0.0
O481 O 0.17224 0.78098 0.80721 0.0
O482 O 0.14706 0.7077 0.74178 0.0
C483 C 0.17337 0.60046 0.94794 0.0
O484 O 0.14713 0.60615 0.87879 0.0
O485 O 0.19151 0.62904 0.02212 0.0
O486 O -0.01197 0.61765 0.64836 0.0
O487 O -0.04042 0.5445 0.72143 0.0
O488 O 0.07749 0.60551 0.62891 0.0
C489 C -0.04297 0.57219 0.65261 0.0
O490 O 0.06537 0.54454 0.73308 0.0
O491 O 0.03438 0.55649 -0.00448 0.0
C492 C 0.07748 0.56565 0.64747 0.0
O493 O 0.09692 0.63174 0.03929 0.0
O494 O 0.10028 0.72023 0.94562 0.0
O495 O 0.04835 0.71243 0.82388 0.0
C496 C 0.18341 0.56003 0.95146 0.0
C497 C 0.16042 0.43847 0.13356 0.0
C498 C 0.36527 0.508 0.0611 0.0
Mg499 Mg 0.17566 0.47015 0.91928 0.0
O500 O 0.24432 0.51072 0.93536 0.0
Mg501 Mg 0.26495 0.52646 0.07289 0.0
Mg502 Mg 0.28644 0.48622 0.89168 0.0
O503 O 0.32615 0.45628 0.83812 0.0
Mg504 Mg 0.39362 0.49259 0.82988 0.0
Mg505 Mg 0.28887 0.43302 0.70804 0.0
C506 C 0.19877 0.44408 0.73205 0.0
C507 C 0.22518 0.37063 0.91296 0.0
O508 O 0.21102 0.55924 0.02494 0.0
O509 O 0.16486 0.52714 0.88402 0.0
O510 O 0.20568 0.45359 0.13297 0.0
O511 O 0.13942 0.44363 0.05744 0.0
O512 O 0.17181 0.42249 0.80727 0.0
O513 O 0.24509 0.47059 0.74182 0.0
C514 C 0.35233 0.60409 0.94796 0.0
O515 O 0.34664 0.57217 0.87882 0.0
O516 O 0.32375 0.59365 0.02213 0.0
O517 O 0.33509 0.40157 0.64837 0.0
O518 O 0.40824 0.44624 0.72146 0.0
O519 O 0.34727 0.5032 0.62894 0.0
C520 C 0.38054 0.41601 0.65262 0.0
O521 O 0.40824 0.55201 0.73313 0.0
O522 O 0.39628 0.50906 -0.00441 0.0
C523 C 0.38713 0.54302 0.64751 0.0
O524 O 0.32104 0.49635 0.03935 0.0
O525 O 0.23255 0.41125 0.94563 0.0
O526 O 0.24032 0.36712 0.82387 0.0
C527 C 0.39276 0.65457 0.95146 0.0
C528 C 0.51431 0.75315 0.13352 0.0
C529 C 0.44474 0.88844 0.06104 0.0
Mg530 Mg 0.48261 0.7367 0.91928 0.0
O531 O 0.44202 0.76477 0.93532 0.0
Mg532 Mg 0.42631 0.76967 0.07285 0.0
Mg533 Mg 0.46653 0.83139 0.89166 0.0
O534 O 0.49647 0.90105 0.83809 0.0
Mg535 Mg 0.46016 0.93221 0.82982 0.0
Mg536 Mg 0.51972 0.88703 0.70803 0.0
C537 C 0.50867 0.78587 0.73205 0.0
C538 C 0.58211 0.88572 0.91297 0.0
O539 O 0.39355 0.68296 0.02492 0.0
O540 O 0.42564 0.66891 0.88403 0.0
O541 O 0.49921 0.78331 0.13284 0.0
O542 O 0.50913 0.72697 0.05746 0.0
O543 O 0.53027 0.7805 0.80728 0.0
O544 O 0.48216 0.80567 0.74181 0.0
C545 C 0.34866 0.77942 0.94795 0.0
O546 O 0.38057 0.80565 0.8788 0.0
O547 O 0.35911 0.76127 0.02212 0.0
O548 O 0.55117 0.9647 0.64835 0.0
O549 O 0.50651 -0.00681 0.72141 0.0
O550 O 0.44955 0.87526 0.62892 0.0
C551 C 0.53673 -0.00428 0.65259 0.0
O552 O 0.40075 0.88742 0.73307 0.0
O553 O 0.44369 0.9184 -0.00449 0.0
C554 C 0.40973 0.87529 0.64747 0.0
O555 O 0.4564 0.85586 0.03931 0.0
O556 O 0.5415 0.85247 0.94564 0.0
O557 O 0.58562 0.90437 0.82387 0.0
loop_
_geom_bond_atom_site_label_1
_geom_bond_atom_site_label_2
_geom_bond_distance
_geom_bond_site_symmetry_2
_ccdc_geom_bond_type
C0 O12 1.241 . S
C0 O13 1.280 . S
C1 O14 1.277 . S
C1 O15 1.245 1_554 S
C2 O26 1.247 . S
C2 O28 1.289 . S
Mg3 O4 1.926 . S
Mg3 O13 1.984 . S
Mg3 O15 1.988 . S
Mg3 O16 2.061 . S
O4 Mg3 1.926 . S
O4 Mg5 1.986 . S
O4 Mg6 1.917 . S
Mg5 O4 1.986 . S
Mg5 O12 2.042 . S
Mg5 O14 2.041 1_556 S
Mg5 O20 2.038 1_545 S
Mg5 O28 2.238 1_545 S
Mg6 O4 1.917 . S
Mg6 O7 1.917 1_545 S
Mg6 O17 2.106 . S
Mg6 O19 2.079 1_545 S
Mg6 O28 2.106 1_545 S
Mg6 O29 2.079 . S
O7 Mg6 1.917 1_565 S
O7 Mg8 1.926 . S
O7 Mg9 1.986 1_565 S
Mg8 O7 1.926 . S
Mg8 O22 1.984 . S
Mg8 O25 1.988 . S
Mg8 O26 2.061 . S
Mg9 O7 1.986 1_545 S
Mg9 O17 2.238 . S
Mg9 O21 2.042 1_545 S
Mg9 O23 2.041 1_545 S
Mg9 O30 2.038 . S
C10 O16 1.247 . S
C10 O17 1.289 . S
C11 O29 1.245 . S
C11 O30 1.274 . S
O12 C0 1.241 . S
O12 Mg5 2.042 . S
O13 C0 1.280 . S
O13 Mg3 1.984 . S
O14 C1 1.277 . S
O14 Mg5 2.041 1_554 S
O15 C1 1.245 1_556 S
O15 Mg3 1.988 . S
O16 Mg3 2.061 . S
O16 C10 1.247 . S
O17 Mg6 2.106 . S
O17 Mg9 2.238 . S
O17 C10 1.289 . S
C18 O19 1.245 . S
C18 O20 1.274 . S
O19 Mg6 2.079 1_565 S
O19 C18 1.245 . S
O20 Mg5 2.038 1_565 S
O20 C18 1.274 . S
O21 Mg9 2.042 1_565 S
O21 C24 1.241 1_455 S
O22 Mg8 1.984 . S
O22 C24 1.280 1_455 S
O23 Mg9 2.041 1_565 S
O23 C27 1.277 . S
C24 O21 1.241 1_655 S
C24 O22 1.280 1_655 S
O25 Mg8 1.988 . S
O25 C27 1.245 . S
O26 C2 1.247 . S
O26 Mg8 2.061 . S
C27 O23 1.277 . S
C27 O25 1.245 . S
O28 C2 1.289 . S
O28 Mg5 2.238 1_565 S
O28 Mg6 2.106 1_565 S
O29 Mg6 2.079 . S
O29 C11 1.245 . S
O30 Mg9 2.038 . S
O30 C11 1.274 . S
C31 O43 1.241 . S
C31 O44 1.280 . S
C32 O45 1.277 . S
C32 O46 1.245 1_554 S
C33 O57 1.247 . S
C33 O59 1.289 . S
Mg34 O35 1.926 . S
Mg34 O44 1.984 . S
Mg34 O46 1.988 . S
Mg34 O47 2.061 . S
O35 Mg34 1.926 . S
O35 Mg36 1.986 1_655 S
O35 Mg37 1.917 1_655 S
Mg36 O35 1.986 1_455 S
Mg36 O43 2.042 1_455 S
Mg36 O45 2.041 1_456 S
Mg36 O51 2.038 . S
Mg36 O59 2.238 . S
Mg37 O35 1.917 1_455 S
Mg37 O38 1.917 . S
Mg37 O48 2.106 1_455 S
Mg37 O50 2.079 . S
Mg37 O59 2.106 . S
Mg37 O60 2.079 1_455 S
O38 Mg37 1.917 . S
O38 Mg39 1.926 . S
O38 Mg40 1.986 . S
Mg39 O38 1.926 . S
Mg39 O53 1.984 . S
Mg39 O56 1.988 . S
Mg39 O57 2.061 . S
Mg40 O38 1.986 . S
Mg40 O48 2.238 1_455 S
Mg40 O52 2.042 . S
Mg40 O54 2.041 . S
Mg40 O61 2.038 1_455 S
C41 O47 1.247 . S
C41 O48 1.289 . S
C42 O60 1.245 . S
C42 O61 1.274 . S
O43 C31 1.241 . S
O43 Mg36 2.042 1_655 S
O44 C31 1.280 . S
O44 Mg34 1.984 . S
O45 C32 1.277 . S
O45 Mg36 2.041 1_654 S
O46 C32 1.245 1_556 S
O46 Mg34 1.988 . S
O47 Mg34 2.061 . S
O47 C41 1.247 . S
O48 Mg37 2.106 1_655 S
O48 Mg40 2.238 1_655 S
O48 C41 1.289 . S
C49 O50 1.245 . S
C49 O51 1.274 . S
O50 Mg37 2.079 . S
O50 C49 1.245 . S
O51 Mg36 2.038 . S
O51 C49 1.274 . S
O52 Mg40 2.042 . S
O52 C55 1.241 . S
O53 Mg39 1.984 . S
O53 C55 1.280 . S
O54 Mg40 2.041 . S
O54 C58 1.277 . S
C55 O52 1.241 . S
C55 O53 1.280 . S
O56 Mg39 1.988 . S
O56 C58 1.245 . S
O57 C33 1.247 . S
O57 Mg39 2.061 . S
C58 O54 1.277 . S
C58 O56 1.245 . S
O59 C33 1.289 . S
O59 Mg36 2.238 . S
O59 Mg37 2.106 . S
O60 Mg37 2.079 1_655 S
O60 C42 1.245 . S
O61 Mg40 2.038 1_655 S
O61 C42 1.274 . S
C62 O74 1.241 . S
C62 O75 1.280 . S
C63 O76 1.277 . S
C63 O77 1.245 1_554 S
C64 O88 1.247 . S
C64 O90 1.289 . S
Mg65 O66 1.926 . S
Mg65 O75 1.984 . S
Mg65 O77 1.988 . S
Mg65 O78 2.061 . S
O66 Mg65 1.926 . S
O66 Mg67 1.986 . S
O66 Mg68 1.917 . S
Mg67 O66 1.986 . S
Mg67 O74 2.042 . S
Mg67 O76 2.041 1_556 S
Mg67 O82 2.038 . S
Mg67 O90 2.238 . S
Mg68 O66 1.917 . S
Mg68 O69 1.917 . S
Mg68 O79 2.106 . S
Mg68 O81 2.079 . S
Mg68 O90 2.106 . S
Mg68 O91 2.079 . S
O69 Mg68 1.917 . S
O69 Mg70 1.926 . S
O69 Mg71 1.986 . S
Mg70 O69 1.926 . S
Mg70 O84 1.984 1_565 S
Mg70 O87 1.988 . S
Mg70 O88 2.061 . S
Mg71 O69 1.986 . S
Mg71 O79 2.238 . S
Mg71 O83 2.042 1_565 S
Mg71 O85 2.041 . S
Mg71 O92 2.038 . S
C72 O78 1.247 . S
C72 O79 1.289 . S
C73 O91 1.245 . S
C73 O92 1.274 . S
O74 C62 1.241 . S
O74 Mg67 2.042 . S
O75 C62 1.280 . S
O75 Mg65 1.984 . S
O76 C63 1.277 . S
O76 Mg67 2.041 1_554 S
O77 C63 1.245 1_556 S
O77 Mg65 1.988 . S
O78 Mg65 2.061 . S
O78 C72 1.247 . S
O79 Mg68 2.106 . S
O79 Mg71 2.238 . S
O79 C72 1.289 . S
C80 O81 1.245 . S
C80 O82 1.274 . S
O81 Mg68 2.079 . S
O81 C80 1.245 . S
O82 Mg67 2.038 . S
O82 C80 1.274 . S
O83 Mg71 2.042 1_545 S
O83 C86 1.241 . S
O84 Mg70 1.984 1_545 S
O84 C86 1.280 . S
O85 Mg71 2.041 . S
O85 C89 1.277 . S
C86 O83 1.241 . S
C86 O84 1.280 . S
O87 Mg70 1.988 . S
O87 C89 1.245 . S
O88 C64 1.247 . S
O88 Mg70 2.061 . S
C89 O85 1.277 . S
C89 O87 1.245 . S
O90 C64 1.289 . S
O90 Mg67 2.238 . S
O90 Mg68 2.106 . S
O91 Mg68 2.079 . S
O91 C73 1.245 . S
O92 Mg71 2.038 . S
O92 C73 1.274 . S
C93 O105 1.241 . S
C93 O106 1.280 . S
C94 O107 1.277 . S
C94 O108 1.245 . S
C95 O119 1.247 . S
C95 O121 1.289 1_565 S
Mg96 O97 1.926 . S
Mg96 O106 1.984 1_655 S
Mg96 O108 1.988 . S
Mg96 O109 2.061 . S
O97 Mg96 1.926 . S
O97 Mg98 1.986 . S
O97 Mg99 1.917 . S
Mg98 O97 1.986 . S
Mg98 O105 2.042 1_655 S
Mg98 O107 2.041 . S
Mg98 O113 2.038 . S
Mg98 O121 2.238 . S
Mg99 O97 1.917 . S
Mg99 O100 1.917 1_545 S
Mg99 O110 2.106 . S
Mg99 O112 2.079 1_545 S
Mg99 O121 2.106 . S
Mg99 O122 2.079 . S
O100 Mg99 1.917 1_565 S
O100 Mg101 1.926 . S
O100 Mg102 1.986 1_565 S
Mg101 O100 1.926 . S
Mg101 O115 1.984 . S
Mg101 O118 1.988 . S
Mg101 O119 2.061 . S
Mg102 O100 1.986 1_545 S
Mg102 O110 2.238 . S
Mg102 O114 2.042 1_545 S
Mg102 O116 2.041 1_544 S
Mg102 O123 2.038 . S
C103 O109 1.247 . S
C103 O110 1.289 . S
C104 O122 1.245 . S
C104 O123 1.274 . S
O105 C93 1.241 . S
O105 Mg98 2.042 1_455 S
O106 C93 1.280 . S
O106 Mg96 1.984 1_455 S
O107 C94 1.277 . S
O107 Mg98 2.041 . S
O108 C94 1.245 . S
O108 Mg96 1.988 . S
O109 Mg96 2.061 . S
O109 C103 1.247 . S
O110 Mg99 2.106 . S
O110 Mg102 2.238 . S
O110 C103 1.289 . S
C111 O112 1.245 . S
C111 O113 1.274 1_565 S
O112 Mg99 2.079 1_565 S
O112 C111 1.245 . S
O113 Mg98 2.038 . S
O113 C111 1.274 1_545 S
O114 Mg102 2.042 1_565 S
O114 C117 1.241 . S
O115 Mg101 1.984 . S
O115 C117 1.280 . S
O116 Mg102 2.041 1_566 S
O116 C120 1.277 . S
C117 O114 1.241 . S
C117 O115 1.280 . S
O118 Mg101 1.988 . S
O118 C120 1.245 1_554 S
O119 C95 1.247 . S
O119 Mg101 2.061 . S
C120 O116 1.277 . S
C120 O118 1.245 1_556 S
O121 C95 1.289 1_545 S
O121 Mg98 2.238 . S
O121 Mg99 2.106 . S
O122 Mg99 2.079 . S
O122 C104 1.245 . S
O123 Mg102 2.038 . S
O123 C104 1.274 . S
C124 O136 1.241 . S
C124 O137 1.280 . S
C125 O138 1.277 . S
C125 O139 1.245 . S
C126 O150 1.247 . S
C126 O152 1.289 . S
Mg127 O128 1.926 . S
Mg127 O137 1.984 . S
Mg127 O139 1.988 . S
Mg127 O140 2.061 . S
O128 Mg127 1.926 . S
O128 Mg129 1.986 . S
O128 Mg130 1.917 1_655 S
Mg129 O128 1.986 . S
Mg129 O136 2.042 . S
Mg129 O138 2.041 . S
Mg129 O144 2.038 1_655 S
Mg129 O152 2.238 1_655 S
Mg130 O128 1.917 1_455 S
Mg130 O131 1.917 . S
Mg130 O141 2.106 1_455 S
Mg130 O143 2.079 . S
Mg130 O152 2.106 . S
Mg130 O153 2.079 1_455 S
O131 Mg130 1.917 . S
O131 Mg132 1.926 . S
O131 Mg133 1.986 . S
Mg132 O131 1.926 . S
Mg132 O146 1.984 . S
Mg132 O149 1.988 . S
Mg132 O150 2.061 . S
Mg133 O131 1.986 . S
Mg133 O141 2.238 1_455 S
Mg133 O145 2.042 . S
Mg133 O147 2.041 1_554 S
Mg133 O154 2.038 1_455 S
C134 O140 1.247 . S
C134 O141 1.289 . S
C135 O153 1.245 . S
C135 O154 1.274 . S
O136 C124 1.241 . S
O136 Mg129 2.042 . S
O137 C124 1.280 . S
O137 Mg127 1.984 . S
O138 C125 1.277 . S
O138 Mg129 2.041 . S
O139 C125 1.245 . S
O139 Mg127 1.988 . S
O140 Mg127 2.061 . S
O140 C134 1.247 . S
O141 Mg130 2.106 1_655 S
O141 Mg133 2.238 1_655 S
O141 C134 1.289 . S
C142 O143 1.245 . S
C142 O144 1.274 . S
O143 Mg130 2.079 . S
O143 C142 1.245 . S
O144 Mg129 2.038 1_455 S
O144 C142 1.274 . S
O145 Mg133 2.042 . S
O145 C148 1.241 . S
O146 Mg132 1.984 . S
O146 C148 1.280 . S
O147 Mg133 2.041 1_556 S
O147 C151 1.277 . S
C148 O145 1.241 . S
C148 O146 1.280 . S
O149 Mg132 1.988 . S
O149 C151 1.245 1_554 S
O150 C126 1.247 . S
O150 Mg132 2.061 . S
C151 O147 1.277 . S
C151 O149 1.245 1_556 S
O152 C126 1.289 . S
O152 Mg129 2.238 1_455 S
O152 Mg130 2.106 . S
O153 Mg130 2.079 1_655 S
O153 C135 1.245 . S
O154 Mg133 2.038 1_655 S
O154 C135 1.274 . S
C155 O167 1.241 . S
C155 O168 1.280 . S
C156 O169 1.277 . S
C156 O170 1.245 . S
C157 O181 1.247 . S
C157 O183 1.289 . S
Mg158 O159 1.926 . S
Mg158 O168 1.984 . S
Mg158 O170 1.988 . S
Mg158 O171 2.061 . S
O159 Mg158 1.926 . S
O159 Mg160 1.986 . S
O159 Mg161 1.917 . S
Mg160 O159 1.986 . S
Mg160 O167 2.042 . S
Mg160 O169 2.041 . S
Mg160 O175 2.038 . S
Mg160 O183 2.238 . S
Mg161 O159 1.917 . S
Mg161 O162 1.917 . S
Mg161 O172 2.106 . S
Mg161 O174 2.079 . S
Mg161 O183 2.106 . S
Mg161 O184 2.079 . S
O162 Mg161 1.917 . S
O162 Mg163 1.926 . S
O162 Mg164 1.986 . S
Mg163 O162 1.926 . S
Mg163 O177 1.984 . S
Mg163 O180 1.988 . S
Mg163 O181 2.061 . S
Mg164 O162 1.986 . S
Mg164 O172 2.238 . S
Mg164 O176 2.042 . S
Mg164 O178 2.041 1_554 S
Mg164 O185 2.038 . S
C165 O171 1.247 . S
C165 O172 1.289 . S
C166 O184 1.245 . S
C166 O185 1.274 . S
O167 C155 1.241 . S
O167 Mg160 2.042 . S
O168 C155 1.280 . S
O168 Mg158 1.984 . S
O169 C156 1.277 . S
O169 Mg160 2.041 . S
O170 C156 1.245 . S
O170 Mg158 1.988 . S
O171 Mg158 2.061 . S
O171 C165 1.247 . S
O172 Mg161 2.106 . S
O172 Mg164 2.238 . S
O172 C165 1.289 . S
C173 O174 1.245 . S
C173 O175 1.274 . S
O174 Mg161 2.079 . S
O174 C173 1.245 . S
O175 Mg160 2.038 . S
O175 C173 1.274 . S
O176 Mg164 2.042 . S
O176 C179 1.241 . S
O177 Mg163 1.984 . S
O177 C179 1.280 . S
O178 Mg164 2.041 1_556 S
O178 C182 1.277 . S
C179 O176 1.241 . S
C179 O177 1.280 . S
O180 Mg163 1.988 . S
O180 C182 1.245 1_554 S
O181 C157 1.247 . S
O181 Mg163 2.061 . S
C182 O178 1.277 . S
C182 O180 1.245 1_556 S
O183 C157 1.289 . S
O183 Mg160 2.238 . S
O183 Mg161 2.106 . S
O184 Mg161 2.079 . S
O184 C166 1.245 . S
O185 Mg164 2.038 . S
O185 C166 1.274 . S
C186 O198 1.243 . S
C186 O199 1.280 . S
C187 O200 1.277 . S
C187 O201 1.245 . S
C188 O212 1.247 . S
C188 O214 1.289 . S
Mg189 O190 1.926 . S
Mg189 O199 1.984 1_655 S
Mg189 O201 1.988 . S
Mg189 O202 2.061 1_554 S
O190 Mg189 1.926 . S
O190 Mg191 1.986 . S
O190 Mg192 1.917 . S
Mg191 O190 1.986 . S
Mg191 O198 2.033 1_655 S
Mg191 O200 2.041 . S
Mg191 O206 2.038 . S
Mg191 O214 2.238 . S
Mg192 O190 1.917 . S
Mg192 O193 1.917 . S
Mg192 O203 2.106 1_554 S
Mg192 O205 2.079 . S
Mg192 O214 2.106 . S
Mg192 O215 2.079 . S
O193 Mg192 1.917 . S
O193 Mg194 1.926 . S
O193 Mg195 1.986 1_554 S
Mg194 O193 1.926 . S
Mg194 O208 1.984 . S
Mg194 O211 1.988 1_554 S
Mg194 O212 2.061 . S
Mg195 O193 1.986 1_556 S
Mg195 O203 2.238 . S
Mg195 O207 2.042 . S
Mg195 O209 2.041 . S
Mg195 O216 2.038 1_556 S
C196 O202 1.247 . S
C196 O203 1.289 . S
C197 O215 1.245 . S
C197 O216 1.274 . S
O198 C186 1.243 . S
O198 Mg191 2.033 1_455 S
O199 C186 1.280 . S
O199 Mg189 1.984 1_455 S
O200 C187 1.277 . S
O200 Mg191 2.041 . S
O201 C187 1.245 . S
O201 Mg189 1.988 . S
O202 Mg189 2.061 1_556 S
O202 C196 1.247 . S
O203 Mg192 2.106 1_556 S
O203 Mg195 2.238 . S
O203 C196 1.289 . S
C204 O205 1.245 . S
C204 O206 1.274 . S
O205 Mg192 2.079 . S
O205 C204 1.245 . S
O206 Mg191 2.038 . S
O206 C204 1.274 . S
O207 Mg195 2.042 . S
O207 C210 1.241 . S
O208 Mg194 1.984 . S
O208 C210 1.280 1_554 S
O209 Mg195 2.041 . S
O209 C213 1.277 . S
C210 O207 1.241 . S
C210 O208 1.280 1_556 S
O211 Mg194 1.988 1_556 S
O211 C213 1.245 . S
O212 C188 1.247 . S
O212 Mg194 2.061 . S
C213 O209 1.277 . S
C213 O211 1.245 . S
O214 C188 1.289 . S
O214 Mg191 2.238 . S
O214 Mg192 2.106 . S
O215 Mg192 2.079 . S
O215 C197 1.245 . S
O216 Mg195 2.038 1_554 S
O216 C197 1.274 . S
C217 O229 1.241 . S
C217 O230 1.280 . S
C218 O231 1.277 . S
C218 O232 1.245 . S
C219 O243 1.247 . S
C219 O245 1.289 . S
Mg220 O221 1.926 . S
Mg220 O230 1.984 . S
Mg220 O232 1.988 . S
Mg220 O233 2.061 1_554 S
O221 Mg220 1.926 . S
O221 Mg222 1.986 . S
O221 Mg223 1.917 . S
Mg222 O221 1.986 . S
Mg222 O229 2.042 . S
Mg222 O231 2.041 . S
Mg222 O237 2.038 . S
Mg222 O245 2.238 . S
Mg223 O221 1.917 . S
Mg223 O224 1.917 . S
Mg223 O234 2.106 1_554 S
Mg223 O236 2.079 . S
Mg223 O245 2.106 . S
Mg223 O246 2.079 . S
O224 Mg223 1.917 . S
O224 Mg225 1.926 . S
O224 Mg226 1.986 1_554 S
Mg225 O224 1.926 . S
Mg225 O239 1.984 . S
Mg225 O242 1.988 1_554 S
Mg225 O243 2.061 . S
Mg226 O224 1.986 1_556 S
Mg226 O234 2.238 . S
Mg226 O238 2.042 . S
Mg226 O240 2.041 . S
Mg226 O247 2.038 1_556 S
C227 O233 1.247 . S
C227 O234 1.289 . S
C228 O246 1.245 . S
C228 O247 1.274 . S
O229 C217 1.241 . S
O229 Mg222 2.042 . S
O230 C217 1.280 . S
O230 Mg220 1.984 . S
O231 C218 1.277 . S
O231 Mg222 2.041 . S
O232 C218 1.245 . S
O232 Mg220 1.988 . S
O233 Mg220 2.061 1_556 S
O233 C227 1.247 . S
O234 Mg223 2.106 1_556 S
O234 Mg226 2.238 . S
O234 C227 1.289 . S
C235 O236 1.245 . S
C235 O237 1.274 . S
O236 Mg223 2.079 . S
O236 C235 1.245 . S
O237 Mg222 2.038 . S
O237 C235 1.274 . S
O238 Mg226 2.042 . S
O238 C241 1.241 . S
O239 Mg225 1.984 . S
O239 C241 1.280 1_554 S
O240 Mg226 2.041 . S
O240 C244 1.277 . S
C241 O238 1.241 . S
C241 O239 1.280 1_556 S
O242 Mg225 1.988 1_556 S
O242 C244 1.245 . S
O243 C219 1.247 . S
O243 Mg225 2.061 . S
C244 O240 1.277 . S
C244 O242 1.245 . S
O245 C219 1.289 . S
O245 Mg222 2.238 . S
O245 Mg223 2.106 . S
O246 Mg223 2.079 . S
O246 C228 1.245 . S
O247 Mg226 2.038 1_554 S
O247 C228 1.274 . S
C248 O260 1.241 . S
C248 O261 1.280 . S
C249 O262 1.277 . S
C249 O263 1.245 . S
C250 O274 1.247 . S
C250 O276 1.289 . S
Mg251 O252 1.926 . S
Mg251 O261 1.984 . S
Mg251 O263 1.988 . S
Mg251 O264 2.061 1_554 S
O252 Mg251 1.926 . S
O252 Mg253 1.986 . S
O252 Mg254 1.917 . S
Mg253 O252 1.986 . S
Mg253 O260 2.042 . S
Mg253 O262 2.041 . S
Mg253 O268 2.038 . S
Mg253 O276 2.238 . S
Mg254 O252 1.917 . S
Mg254 O255 1.917 . S
Mg254 O265 2.106 1_554 S
Mg254 O267 2.079 . S
Mg254 O276 2.106 . S
Mg254 O277 2.079 . S
O255 Mg254 1.917 . S
O255 Mg256 1.926 . S
O255 Mg257 1.986 1_554 S
Mg256 O255 1.926 . S
Mg256 O270 1.984 . S
Mg256 O273 1.988 1_554 S
Mg256 O274 2.061 . S
Mg257 O255 1.986 1_556 S
Mg257 O265 2.238 . S
Mg257 O269 2.042 . S
Mg257 O271 2.041 . S
Mg257 O278 2.038 1_556 S
C258 O264 1.247 . S
C258 O265 1.289 . S
C259 O277 1.245 . S
C259 O278 1.274 . S
O260 C248 1.241 . S
O260 Mg253 2.042 . S
O261 C248 1.280 . S
O261 Mg251 1.984 . S
O262 C249 1.277 . S
O262 Mg253 2.041 . S
O263 C249 1.245 . S
O263 Mg251 1.988 . S
O264 Mg251 2.061 1_556 S
O264 C258 1.247 . S
O265 Mg254 2.106 1_556 S
O265 Mg257 2.238 . S
O265 C258 1.289 . S
C266 O267 1.245 . S
C266 O268 1.274 . S
O267 Mg254 2.079 . S
O267 C266 1.245 . S
O268 Mg253 2.038 . S
O268 C266 1.274 . S
O269 Mg257 2.042 . S
O269 C272 1.241 . S
O270 Mg256 1.984 . S
O270 C272 1.280 1_554 S
O271 Mg257 2.041 . S
O271 C275 1.277 . S
C272 O269 1.241 . S
C272 O270 1.280 1_556 S
O273 Mg256 1.988 1_556 S
O273 C275 1.245 . S
O274 C250 1.247 . S
O274 Mg256 2.061 . S
C275 O271 1.277 . S
C275 O273 1.245 . S
O276 C250 1.289 . S
O276 Mg253 2.238 . S
O276 Mg254 2.106 . S
O277 Mg254 2.079 . S
O277 C259 1.245 . S
O278 Mg257 2.038 1_554 S
O278 C259 1.274 . S
C279 O291 1.241 . S
C279 O292 1.280 . S
C280 O293 1.277 . S
C280 O294 1.245 . S
C281 O305 1.247 . S
C281 O307 1.289 . S
Mg282 O283 1.926 . S
Mg282 O292 1.984 . S
Mg282 O294 1.988 . S
Mg282 O295 2.061 . S
O283 Mg282 1.926 . S
O283 Mg284 1.986 . S
O283 Mg285 1.917 . S
Mg284 O283 1.986 . S
Mg284 O291 2.042 . S
Mg284 O293 2.041 . S
Mg284 O299 2.038 . S
Mg284 O307 2.238 . S
Mg285 O283 1.917 . S
Mg285 O286 1.917 . S
Mg285 O296 2.106 . S
Mg285 O298 2.079 . S
Mg285 O307 2.106 . S
Mg285 O308 2.079 . S
O286 Mg285 1.917 . S
O286 Mg287 1.926 . S
O286 Mg288 1.986 . S
Mg287 O286 1.926 . S
Mg287 O301 1.984 . S
Mg287 O304 1.988 . S
Mg287 O305 2.061 . S
Mg288 O286 1.986 . S
Mg288 O296 2.238 . S
Mg288 O300 2.042 . S
Mg288 O302 2.041 . S
Mg288 O309 2.038 . S
C289 O295 1.247 . S
C289 O296 1.289 . S
C290 O308 1.245 . S
C290 O309 1.274 . S
O291 C279 1.241 . S
O291 Mg284 2.042 . S
O292 C279 1.280 . S
O292 Mg282 1.984 . S
O293 C280 1.277 . S
O293 Mg284 2.041 . S
O294 C280 1.245 . S
O294 Mg282 1.988 . S
O295 Mg282 2.061 . S
O295 C289 1.247 . S
O296 Mg285 2.106 . S
O296 Mg288 2.238 . S
O296 C289 1.289 . S
C297 O298 1.245 . S
C297 O299 1.274 . S
O298 Mg285 2.079 . S
O298 C297 1.245 . S
O299 Mg284 2.038 . S
O299 C297 1.274 . S
O300 Mg288 2.042 . S
O300 C303 1.241 . S
O301 Mg287 1.984 . S
O301 C303 1.280 . S
O302 Mg288 2.041 . S
O302 C306 1.277 . S
C303 O300 1.241 . S
C303 O301 1.280 . S
O304 Mg287 1.988 . S
O304 C306 1.245 . S
O305 C281 1.247 . S
O305 Mg287 2.061 . S
C306 O302 1.277 . S
C306 O304 1.245 . S
O307 C281 1.289 . S
O307 Mg284 2.238 . S
O307 Mg285 2.106 . S
O308 Mg285 2.079 . S
O308 C290 1.245 . S
O309 Mg288 2.038 . S
O309 C290 1.274 . S
C310 O322 1.241 . S
C310 O323 1.280 . S
C311 O324 1.277 . S
C311 O325 1.245 . S
C312 O336 1.247 . S
C312 O338 1.289 . S
Mg313 O314 1.926 . S
Mg313 O323 1.984 . S
Mg313 O325 1.988 . S
Mg313 O326 2.061 . S
O314 Mg313 1.926 . S
O314 Mg315 1.986 . S
O314 Mg316 1.917 . S
Mg315 O314 1.986 . S
Mg315 O322 2.042 . S
Mg315 O324 2.041 . S
Mg315 O330 2.038 . S
Mg315 O338 2.238 . S
Mg316 O314 1.917 . S
Mg316 O317 1.917 . S
Mg316 O327 2.106 . S
Mg316 O329 2.079 . S
Mg316 O338 2.106 . S
Mg316 O339 2.079 . S
O317 Mg316 1.917 . S
O317 Mg318 1.926 . S
O317 Mg319 1.986 . S
Mg318 O317 1.926 . S
Mg318 O332 1.984 . S
Mg318 O335 1.988 . S
Mg318 O336 2.061 . S
Mg319 O317 1.986 . S
Mg319 O327 2.238 . S
Mg319 O331 2.042 . S
Mg319 O333 2.041 . S
Mg319 O340 2.038 . S
C320 O326 1.247 . S
C320 O327 1.289 . S
C321 O339 1.245 . S
C321 O340 1.274 . S
O322 C310 1.241 . S
O322 Mg315 2.042 . S
O323 C310 1.280 . S
O323 Mg313 1.984 . S
O324 C311 1.277 . S
O324 Mg315 2.041 . S
O325 C311 1.245 . S
O325 Mg313 1.988 . S
O326 Mg313 2.061 . S
O326 C320 1.247 . S
O327 Mg316 2.106 . S
O327 Mg319 2.238 . S
O327 C320 1.289 . S
C328 O329 1.245 . S
C328 O330 1.274 . S
O329 Mg316 2.079 . S
O329 C328 1.245 . S
O330 Mg315 2.038 . S
O330 C328 1.274 . S
O331 Mg319 2.042 . S
O331 C334 1.241 . S
O332 Mg318 1.984 . S
O332 C334 1.280 . S
O333 Mg319 2.041 . S
O333 C337 1.277 . S
C334 O331 1.241 . S
C334 O332 1.280 . S
O335 Mg318 1.988 . S
O335 C337 1.245 . S
O336 C312 1.247 . S
O336 Mg318 2.061 . S
C337 O333 1.277 . S
C337 O335 1.245 . S
O338 C312 1.289 . S
O338 Mg315 2.238 . S
O338 Mg316 2.106 . S
O339 Mg316 2.079 . S
O339 C321 1.245 . S
O340 Mg319 2.038 . S
O340 C321 1.274 . S
C341 O353 1.241 . S
C341 O354 1.280 . S
C342 O355 1.277 . S
C342 O356 1.245 . S
C343 O367 1.247 . S
C343 O369 1.289 . S
Mg344 O345 1.926 . S
Mg344 O354 1.984 . S
Mg344 O356 1.988 . S
Mg344 O357 2.061 . S
O345 Mg344 1.926 . S
O345 Mg346 1.986 . S
O345 Mg347 1.917 . S
Mg346 O345 1.986 . S
Mg346 O353 2.042 . S
Mg346 O355 2.041 . S
Mg346 O361 2.038 . S
Mg346 O369 2.238 . S
Mg347 O345 1.917 . S
Mg347 O348 1.917 . S
Mg347 O358 2.106 . S
Mg347 O360 2.079 . S
Mg347 O369 2.106 . S
Mg347 O370 2.079 . S
O348 Mg347 1.917 . S
O348 Mg349 1.926 . S
O348 Mg350 1.986 . S
Mg349 O348 1.926 . S
Mg349 O363 1.984 . S
Mg349 O366 1.988 . S
Mg349 O367 2.061 . S
Mg350 O348 1.986 . S
Mg350 O358 2.238 . S
Mg350 O362 2.042 . S
Mg350 O364 2.041 . S
Mg350 O371 2.038 . S
C351 O357 1.247 . S
C351 O358 1.289 . S
C352 O370 1.245 . S
C352 O371 1.274 . S
O353 C341 1.241 . S
O353 Mg346 2.042 . S
O354 C341 1.280 . S
O354 Mg344 1.984 . S
O355 C342 1.277 . S
O355 Mg346 2.041 . S
O356 C342 1.245 . S
O356 Mg344 1.988 . S
O357 Mg344 2.061 . S
O357 C351 1.247 . S
O358 Mg347 2.106 . S
O358 Mg350 2.238 . S
O358 C351 1.289 . S
C359 O360 1.245 . S
C359 O361 1.274 . S
O360 Mg347 2.079 . S
O360 C359 1.245 . S
O361 Mg346 2.038 . S
O361 C359 1.274 . S
O362 Mg350 2.042 . S
O362 C365 1.241 . S
O363 Mg349 1.984 . S
O363 C365 1.280 . S
O364 Mg350 2.041 . S
O364 C368 1.277 . S
C365 O362 1.241 . S
C365 O363 1.280 . S
O366 Mg349 1.988 . S
O366 C368 1.245 . S
O367 C343 1.247 . S
O367 Mg349 2.061 . S
C368 O364 1.277 . S
C368 O366 1.245 . S
O369 C343 1.289 . S
O369 Mg346 2.238 . S
O369 Mg347 2.106 . S
O370 Mg347 2.079 . S
O370 C352 1.245 . S
O371 Mg350 2.038 . S
O371 C352 1.274 . S
C372 O384 1.241 . S
C372 O385 1.280 . S
C373 O386 1.277 . S
C373 O387 1.245 . S
C374 O398 1.247 . S
C374 O400 1.289 . S
Mg375 O376 1.926 . S
Mg375 O385 1.984 . S
Mg375 O387 1.988 . S
Mg375 O388 2.061 . S
O376 Mg375 1.926 . S
O376 Mg377 1.986 . S
O376 Mg378 1.917 . S
Mg377 O376 1.986 . S
Mg377 O384 2.042 . S
Mg377 O386 2.041 . S
Mg377 O392 2.038 . S
Mg377 O400 2.238 . S
Mg378 O376 1.917 . S
Mg378 O379 1.917 . S
Mg378 O389 2.106 . S
Mg378 O391 2.079 . S
Mg378 O400 2.106 . S
Mg378 O401 2.079 . S
O379 Mg378 1.917 . S
O379 Mg380 1.926 . S
O379 Mg381 1.986 . S
Mg380 O379 1.926 . S
Mg380 O394 1.984 . S
Mg380 O397 1.988 . S
Mg380 O398 2.061 . S
Mg381 O379 1.986 . S
Mg381 O389 2.238 . S
Mg381 O393 2.042 . S
Mg381 O395 2.041 . S
Mg381 O402 2.038 . S
C382 O388 1.247 . S
C382 O389 1.289 . S
C383 O401 1.245 . S
C383 O402 1.274 . S
O384 C372 1.241 . S
O384 Mg377 2.042 . S
O385 C372 1.280 . S
O385 Mg375 1.984 . S
O386 C373 1.277 . S
O386 Mg377 2.041 . S
O387 C373 1.245 . S
O387 Mg375 1.988 . S
O388 Mg375 2.061 . S
O388 C382 1.247 . S
O389 Mg378 2.106 . S
O389 Mg381 2.238 . S
O389 C382 1.289 . S
C390 O391 1.245 . S
C390 O392 1.274 . S
O391 Mg378 2.079 . S
O391 C390 1.245 . S
O392 Mg377 2.038 . S
O392 C390 1.274 . S
O393 Mg381 2.042 . S
O393 C396 1.241 . S
O394 Mg380 1.984 . S
O394 C396 1.280 . S
O395 Mg381 2.041 . S
O395 C399 1.277 . S
C396 O393 1.241 . S
C396 O394 1.280 . S
O397 Mg380 1.988 . S
O397 C399 1.245 . S
O398 C374 1.247 . S
O398 Mg380 2.061 . S
C399 O395 1.277 . S
C399 O397 1.245 . S
O400 C374 1.289 . S
O400 Mg377 2.238 . S
O400 Mg378 2.106 . S
O401 Mg378 2.079 . S
O401 C383 1.245 . S
O402 Mg381 2.038 . S
O402 C383 1.274 . S
C403 O415 1.241 . S
C403 O416 1.280 . S
C404 O417 1.277 . S
C404 O418 1.245 . S
C405 O429 1.247 . S
C405 O431 1.289 . S
Mg406 O407 1.926 . S
Mg406 O416 1.984 . S
Mg406 O418 1.988 . S
Mg406 O419 2.061 . S
O407 Mg406 1.926 . S
O407 Mg408 1.986 . S
O407 Mg409 1.917 . S
Mg408 O407 1.986 . S
Mg408 O415 2.042 . S
Mg408 O417 2.041 . S
Mg408 O423 2.038 . S
Mg408 O431 2.238 . S
Mg409 O407 1.917 . S
Mg409 O410 1.917 . S
Mg409 O420 2.106 . S
Mg409 O422 2.079 . S
Mg409 O431 2.106 . S
Mg409 O432 2.079 . S
O410 Mg409 1.917 . S
O410 Mg411 1.926 . S
O410 Mg412 1.986 . S
Mg411 O410 1.926 . S
Mg411 O425 1.984 . S
Mg411 O428 1.988 . S
Mg411 O429 2.061 . S
Mg412 O410 1.986 . S
Mg412 O420 2.238 . S
Mg412 O424 2.042 . S
Mg412 O426 2.041 . S
Mg412 O433 2.038 . S
C413 O419 1.247 . S
C413 O420 1.289 . S
C414 O432 1.245 . S
C414 O433 1.274 . S
O415 C403 1.241 . S
O415 Mg408 2.042 . S
O416 C403 1.280 . S
O416 Mg406 1.984 . S
O417 C404 1.277 . S
O417 Mg408 2.041 . S
O418 C404 1.245 . S
O418 Mg406 1.988 . S
O419 Mg406 2.061 . S
O419 C413 1.247 . S
O420 Mg409 2.106 . S
O420 Mg412 2.238 . S
O420 C413 1.289 . S
C421 O422 1.245 . S
C421 O423 1.274 . S
O422 Mg409 2.079 . S
O422 C421 1.245 . S
O423 Mg408 2.038 . S
O423 C421 1.274 . S
O424 Mg412 2.042 . S
O424 C427 1.241 . S
O425 Mg411 1.984 . S
O425 C427 1.280 . S
O426 Mg412 2.041 . S
O426 C430 1.277 . S
C427 O424 1.241 . S
C427 O425 1.280 . S
O428 Mg411 1.988 . S
O428 C430 1.245 . S
O429 C405 1.247 . S
O429 Mg411 2.061 . S
C430 O426 1.277 . S
C430 O428 1.245 . S
O431 C405 1.289 . S
O431 Mg408 2.238 . S
O431 Mg409 2.106 . S
O432 Mg409 2.079 . S
O432 C414 1.245 . S
O433 Mg412 2.038 . S
O433 C414 1.274 . S
C434 O446 1.241 . S
C434 O447 1.280 . S
C435 O448 1.277 . S
C435 O449 1.245 . S
C436 O460 1.247 . S
C436 O462 1.289 . S
Mg437 O438 1.926 . S
Mg437 O447 1.984 . S
Mg437 O449 1.988 . S
Mg437 O450 2.061 . S
O438 Mg437 1.926 . S
O438 Mg439 1.986 . S
O438 Mg440 1.917 . S
Mg439 O438 1.986 . S
Mg439 O446 2.042 . S
Mg439 O448 2.041 . S
Mg439 O454 2.038 . S
Mg439 O462 2.238 . S
Mg440 O438 1.917 . S
Mg440 O441 1.917 . S
Mg440 O451 2.106 . S
Mg440 O453 2.079 . S
Mg440 O462 2.106 . S
Mg440 O463 2.079 . S
O441 Mg440 1.917 . S
O441 Mg442 1.926 . S
O441 Mg443 1.986 . S
Mg442 O441 1.926 . S
Mg442 O456 1.984 . S
Mg442 O459 1.988 . S
Mg442 O460 2.061 . S
Mg443 O441 1.986 . S
Mg443 O451 2.238 . S
Mg443 O455 2.042 . S
Mg443 O457 2.041 . S
Mg443 O464 2.038 . S
C444 O450 1.247 . S
C444 O451 1.289 . S
C445 O463 1.245 . S
C445 O464 1.274 . S
O446 C434 1.241 . S
O446 Mg439 2.042 . S
O447 C434 1.280 . S
O447 Mg437 1.984 . S
O448 C435 1.277 . S
O448 Mg439 2.041 . S
O449 C435 1.245 . S
O449 Mg437 1.988 . S
O450 Mg437 2.061 . S
O450 C444 1.247 . S
O451 Mg440 2.106 . S
O451 Mg443 2.238 . S
O451 C444 1.289 . S
C452 O453 1.245 . S
C452 O454 1.274 . S
O453 Mg440 2.079 . S
O453 C452 1.245 . S
O454 Mg439 2.038 . S
O454 C452 1.274 . S
O455 Mg443 2.042 . S
O455 C458 1.241 . S
O456 Mg442 1.984 . S
O456 C458 1.280 . S
O457 Mg443 2.041 . S
O457 C461 1.277 . S
C458 O455 1.241 . S
C458 O456 1.280 . S
O459 Mg442 1.988 . S
O459 C461 1.245 . S
O460 C436 1.247 . S
O460 Mg442 2.061 . S
C461 O457 1.277 . S
C461 O459 1.245 . S
O462 C436 1.289 . S
O462 Mg439 2.238 . S
O462 Mg440 2.106 . S
O463 Mg440 2.079 . S
O463 C445 1.245 . S
O464 Mg443 2.038 . S
O464 C445 1.274 . S
C465 O477 1.241 . S
C465 O478 1.280 1_554 S
C466 O479 1.277 . S
C466 O480 1.245 . S
C467 O491 1.247 . S
C467 O493 1.289 . S
Mg468 O469 1.926 . S
Mg468 O478 1.984 . S
Mg468 O480 1.988 1_556 S
Mg468 O481 2.061 . S
O469 Mg468 1.926 . S
O469 Mg470 1.986 1_556 S
O469 Mg471 1.917 . S
Mg470 O469 1.986 1_554 S
Mg470 O477 2.042 . S
Mg470 O479 2.041 . S
Mg470 O485 2.038 1_554 S
Mg470 O493 2.238 . S
Mg471 O469 1.917 . S
Mg471 O472 1.917 . S
Mg471 O482 2.106 . S
Mg471 O484 2.079 . S
Mg471 O493 2.106 1_556 S
Mg471 O494 2.079 . S
O472 Mg471 1.917 . S
O472 Mg473 1.926 . S
O472 Mg474 1.986 . S
Mg473 O472 1.926 . S
Mg473 O487 1.984 . S
Mg473 O490 1.988 . S
Mg473 O491 2.061 1_556 S
Mg474 O472 1.986 . S
Mg474 O482 2.238 . S
Mg474 O486 2.042 . S
Mg474 O488 2.041 . S
Mg474 O495 2.038 . S
C475 O481 1.247 . S
C475 O482 1.289 . S
C476 O494 1.245 . S
C476 O495 1.274 . S
O477 C465 1.241 . S
O477 Mg470 2.042 . S
O478 C465 1.280 1_556 S
O478 Mg468 1.984 . S
O479 C466 1.277 . S
O479 Mg470 2.041 . S
O480 C466 1.245 . S
O480 Mg468 1.988 1_554 S
O481 Mg468 2.061 . S
O481 C475 1.247 . S
O482 Mg471 2.106 . S
O482 Mg474 2.238 . S
O482 C475 1.289 . S
C483 O484 1.245 . S
C483 O485 1.274 . S
O484 Mg471 2.079 . S
O484 C483 1.245 . S
O485 Mg470 2.038 1_556 S
O485 C483 1.274 . S
O486 Mg474 2.042 . S
O486 C489 1.241 1_455 S
O487 Mg473 1.984 . S
O487 C489 1.280 1_455 S
O488 Mg474 2.041 . S
O488 C492 1.277 . S
C489 O486 1.241 1_655 S
C489 O487 1.280 1_655 S
O490 Mg473 1.988 . S
O490 C492 1.245 . S
O491 C467 1.247 . S
O491 Mg473 2.061 1_554 S
C492 O488 1.277 . S
C492 O490 1.245 . S
O493 C467 1.289 . S
O493 Mg470 2.238 . S
O493 Mg471 2.106 1_554 S
O494 Mg471 2.079 . S
O494 C476 1.245 . S
O495 Mg474 2.038 . S
O495 C476 1.274 . S
C496 O508 1.241 . S
C496 O509 1.280 1_554 S
C497 O510 1.277 . S
C497 O511 1.245 . S
C498 O522 1.247 . S
C498 O524 1.289 . S
Mg499 O500 1.926 . S
Mg499 O509 1.984 . S
Mg499 O511 1.988 1_556 S
Mg499 O512 2.061 . S
O500 Mg499 1.926 . S
O500 Mg501 1.986 1_556 S
O500 Mg502 1.917 . S
Mg501 O500 1.986 1_554 S
Mg501 O508 2.042 . S
Mg501 O510 2.041 . S
Mg501 O516 2.038 1_554 S
Mg501 O524 2.238 . S
Mg502 O500 1.917 . S
Mg502 O503 1.917 . S
Mg502 O513 2.106 . S
Mg502 O515 2.079 . S
Mg502 O524 2.106 1_556 S
Mg502 O525 2.079 . S
O503 Mg502 1.917 . S
O503 Mg504 1.926 . S
O503 Mg505 1.986 . S
Mg504 O503 1.926 . S
Mg504 O518 1.984 . S
Mg504 O521 1.988 . S
Mg504 O522 2.061 1_556 S
Mg505 O503 1.986 . S
Mg505 O513 2.238 . S
Mg505 O517 2.042 . S
Mg505 O519 2.041 . S
Mg505 O526 2.038 . S
C506 O512 1.247 . S
C506 O513 1.289 . S
C507 O525 1.245 . S
C507 O526 1.274 . S
O508 C496 1.241 . S
O508 Mg501 2.042 . S
O509 C496 1.280 1_556 S
O509 Mg499 1.984 . S
O510 C497 1.277 . S
O510 Mg501 2.041 . S
O511 C497 1.245 . S
O511 Mg499 1.988 1_554 S
O512 Mg499 2.061 . S
O512 C506 1.247 . S
O513 Mg502 2.106 . S
O513 Mg505 2.238 . S
O513 C506 1.289 . S
C514 O515 1.245 . S
C514 O516 1.274 . S
O515 Mg502 2.079 . S
O515 C514 1.245 . S
O516 Mg501 2.038 1_556 S
O516 C514 1.274 . S
O517 Mg505 2.042 . S
O517 C520 1.241 . S
O518 Mg504 1.984 . S
O518 C520 1.280 . S
O519 Mg505 2.041 . S
O519 C523 1.277 . S
C520 O517 1.241 . S
C520 O518 1.280 . S
O521 Mg504 1.988 . S
O521 C523 1.245 . S
O522 C498 1.247 . S
O522 Mg504 2.061 1_554 S
C523 O519 1.277 . S
C523 O521 1.245 . S
O524 C498 1.289 . S
O524 Mg501 2.238 . S
O524 Mg502 2.106 1_554 S
O525 Mg502 2.079 . S
O525 C507 1.245 . S
O526 Mg505 2.038 . S
O526 C507 1.274 . S
C527 O539 1.241 . S
C527 O540 1.280 1_554 S
C528 O541 1.277 . S
C528 O542 1.245 . S
C529 O553 1.247 . S
C529 O555 1.289 . S
Mg530 O531 1.926 . S
Mg530 O540 1.984 . S
Mg530 O542 1.988 1_556 S
Mg530 O543 2.061 . S
O531 Mg530 1.926 . S
O531 Mg532 1.986 1_556 S
O531 Mg533 1.917 . S
Mg532 O531 1.986 1_554 S
Mg532 O539 2.042 . S
Mg532 O541 2.041 . S
Mg532 O547 2.038 1_554 S
Mg532 O555 2.238 . S
Mg533 O531 1.917 . S
Mg533 O534 1.917 . S
Mg533 O544 2.106 . S
Mg533 O546 2.079 . S
Mg533 O555 2.106 1_556 S
Mg533 O556 2.079 . S
O534 Mg533 1.917 . S
O534 Mg535 1.926 . S
O534 Mg536 1.986 . S
Mg535 O534 1.926 . S
Mg535 O549 1.984 1_565 S
Mg535 O552 1.988 . S
Mg535 O553 2.061 1_556 S
Mg536 O534 1.986 . S
Mg536 O544 2.238 . S
Mg536 O548 2.042 1_565 S
Mg536 O550 2.041 . S
Mg536 O557 2.038 . S
C537 O543 1.247 . S
C537 O544 1.289 . S
C538 O556 1.245 . S
C538 O557 1.274 . S
O539 C527 1.241 . S
O539 Mg532 2.042 . S
O540 C527 1.280 1_556 S
O540 Mg530 1.984 . S
O541 C528 1.277 . S
O541 Mg532 2.041 . S
O542 C528 1.245 . S
O542 Mg530 1.988 1_554 S
O543 Mg530 2.061 . S
O543 C537 1.247 . S
O544 Mg533 2.106 . S
O544 Mg536 2.238 . S
O544 C537 1.289 . S
C545 O546 1.245 . S
C545 O547 1.274 . S
O546 Mg533 2.079 . S
O546 C545 1.245 . S
O547 Mg532 2.038 1_556 S
O547 C545 1.274 . S
O548 Mg536 2.042 1_545 S
O548 C551 1.241 . S
O549 Mg535 1.984 1_545 S
O549 C551 1.280 . S
O550 Mg536 2.041 . S
O550 C554 1.277 . S
C551 O548 1.241 . S
C551 O549 1.280 . S
O552 Mg535 1.988 . S
O552 C554 1.245 . S
O553 C529 1.247 . S
O553 Mg535 2.061 1_554 S
C554 O550 1.277 . S
C554 O552 1.245 . S
O555 C529 1.289 . S
O555 Mg532 2.238 . S
O555 Mg533 2.106 1_554 S
O556 Mg533 2.079 . S
O556 C538 1.245 . S
O557 Mg536 2.038 . S
O557 C538 1.274 . S
C55 C11 2.021 . S
C42 C86 2.021 . S
C73 C24 2.021 . S
C124 C111 2.022 . S
C155 C142 2.020 1_545 S
C173 C93 2.021 . S
C197 C241 2.021 1_554 S
C228 C272 2.022 1_554 S
C210 C259 2.021 1_556 S
C297 C310 2.021 . S
C341 C328 2.022 . S
C359 C279 2.021 . S
C383 C427 2.021 . S
C414 C458 2.021 . S
C445 C396 2.021 . S
C496 C483 2.021 1_554 S
C514 C527 2.021 1_556 S
C545 C465 2.021 1_556 S
C10 C156 1.113 . S
C41 C94 1.113 . S
C72 C125 1.115 . S
C33 C182 1.567 . S
C120 C64 1.567 . S
C2 C151 1.567 . S
C89 C95 1.113 . S
C126 C27 1.113 . S
C157 C58 1.113 . S
C134 C63 1.569 . S
C165 C1 1.567 . S
C32 C103 1.567 . S
C196 C342 1.113 . S
C280 C227 1.113 . S
C311 C258 1.113 . S
C219 C368 1.567 . S
C306 C250 1.567 . S
C337 C188 1.567 . S
C281 C275 1.113 . S
C213 C312 1.113 . S
C244 C343 1.113 . S
C249 C320 1.567 . S
C351 C187 1.567 . S
C289 C218 1.567 . S
C382 C528 1.113 . S
C413 C466 1.113 . S
C497 C444 1.113 . S
C405 C554 1.567 . S
C436 C492 1.567 . S
C523 C374 1.567 . S
C467 C461 1.113 . S
C498 C399 1.113 . S
C529 C430 1.113 . S
C506 C435 1.567 . S
C537 C373 1.567 . S
C475 C404 1.567 . S
C18 C403 2.752 . S
C49 C434 2.751 . S
C372 C80 2.751 . S
C204 C31 2.751 1_554 S
C235 C62 2.752 1_554 S
C0 C266 2.751 1_556 S
C104 C334 2.751 . S
C135 C365 2.752 . S
C303 C166 2.751 . S
C148 C476 2.751 1_554 S
C507 C179 2.751 1_556 S
C538 C117 2.751 1_556 S
C217 C390 2.751 . S
C248 C421 2.751 1_545 S
C452 C186 2.751 . S
C290 C520 2.752 . S
C321 C551 2.751 . S
C352 C489 2.751 . S
