# Generated by pormake.
# Topology upd, (4)-cn, num edge types: 1
# Building blocks:
#     Node 0, Type 0, BuildingBlock: NAWXER_clean_sbu_0, # of connection points: 4
#     Node 1, Type 0, BuildingBlock: NAWXER_clean_sbu_0, # of connection points: 4
#     Node 2, Type 0, BuildingBlock: NAWXER_clean_sbu_0, # of connection points: 4
#     Node 3, Type 0, BuildingBlock: NAWXER_clean_sbu_0, # of connection points: 4
#     Node 4, Type 0, BuildingBlock: NAWXER_clean_sbu_0, # of connection points: 4
#     Node 5, Type 0, BuildingBlock: NAWXER_clean_sbu_0, # of connection points: 4
#     Node 6, Type 0, BuildingBlock: NAWXER_clean_sbu_0, # of connection points: 4
#     Node 7, Type 0, BuildingBlock: NAWXER_clean_sbu_0, # of connection points: 4
#     Node 8, Type 0, BuildingBlock: NAWXER_clean_sbu_0, # of connection points: 4
#     Node 9, Type 0, BuildingBlock: NAWXER_clean_sbu_0, # of connection points: 4
#     Node 10, Type 0, BuildingBlock: NAWXER_clean_sbu_0, # of connection points: 4
#     Node 11, Type 0, BuildingBlock: NAWXER_clean_sbu_0, # of connection points: 4
#     Node 12, Type 0, BuildingBlock: NAWXER_clean_sbu_0, # of connection points: 4
#     Node 13, Type 0, BuildingBlock: NAWXER_clean_sbu_0, # of connection points: 4
#     Node 14, Type 0, BuildingBlock: NAWXER_clean_sbu_0, # of connection points: 4
#     Node 15, Type 0, BuildingBlock: NAWXER_clean_sbu_0, # of connection points: 4
#     Node 16, Type 0, BuildingBlock: NAWXER_clean_sbu_0, # of connection points: 4
#     Node 17, Type 0, BuildingBlock: NAWXER_clean_sbu_0, # of connection points: 4
#     Node 18, Type 0, BuildingBlock: NAWXER_clean_sbu_0, # of connection points: 4
#     Node 19, Type 0, BuildingBlock: NAWXER_clean_sbu_0, # of connection points: 4
#     Node 20, Type 0, BuildingBlock: NAWXER_clean_sbu_0, # of connection points: 4
#     Node 21, Type 0, BuildingBlock: NAWXER_clean_sbu_0, # of connection points: 4
#     Node 22, Type 0, BuildingBlock: NAWXER_clean_sbu_0, # of connection points: 4
#     Node 23, Type 0, BuildingBlock: NAWXER_clean_sbu_0, # of connection points: 4
#     Node 24, Type 0, BuildingBlock: NAWXER_clean_sbu_0, # of connection points: 4
#     Node 25, Type 0, BuildingBlock: NAWXER_clean_sbu_0, # of connection points: 4
#     Node 26, Type 0, BuildingBlock: NAWXER_clean_sbu_0, # of connection points: 4
#     Node 27, Type 0, BuildingBlock: NAWXER_clean_sbu_0, # of connection points: 4
#     Node 28, Type 0, BuildingBlock: NAWXER_clean_sbu_0, # of connection points: 4
#     Node 29, Type 0, BuildingBlock: NAWXER_clean_sbu_0, # of connection points: 4
#     Node 30, Type 0, BuildingBlock: NAWXER_clean_sbu_0, # of connection points: 4
#     Node 31, Type 0, BuildingBlock: NAWXER_clean_sbu_0, # of connection points: 4
#     Edge 32, Type (0, 0), BuildingBlock: TEMPAE_clean_linker_10, # of connection points: 2
#     Edge 33, Type (0, 0), BuildingBlock: TEMPAE_clean_linker_10, # of connection points: 2
#     Edge 34, Type (0, 0), BuildingBlock: TEMPAE_clean_linker_10, # of connection points: 2
#     Edge 35, Type (0, 0), BuildingBlock: TEMPAE_clean_linker_10, # of connection points: 2
#     Edge 36, Type (0, 0), BuildingBlock: TEMPAE_clean_linker_10, # of connection points: 2
#     Edge 37, Type (0, 0), BuildingBlock: TEMPAE_clean_linker_10, # of connection points: 2
#     Edge 38, Type (0, 0), BuildingBlock: TEMPAE_clean_linker_10, # of connection points: 2
#     Edge 39, Type (0, 0), BuildingBlock: TEMPAE_clean_linker_10, # of connection points: 2
#     Edge 40, Type (0, 0), BuildingBlock: TEMPAE_clean_linker_10, # of connection points: 2
#     Edge 41, Type (0, 0), BuildingBlock: TEMPAE_clean_linker_10, # of connection points: 2
#     Edge 42, Type (0, 0), BuildingBlock: TEMPAE_clean_linker_10, # of connection points: 2
#     Edge 43, Type (0, 0), BuildingBlock: TEMPAE_clean_linker_10, # of connection points: 2
#     Edge 44, Type (0, 0), BuildingBlock: TEMPAE_clean_linker_10, # of connection points: 2
#     Edge 45, Type (0, 0), BuildingBlock: TEMPAE_clean_linker_10, # of connection points: 2
#     Edge 46, Type (0, 0), BuildingBlock: TEMPAE_clean_linker_10, # of connection points: 2
#     Edge 47, Type (0, 0), BuildingBlock: TEMPAE_clean_linker_10, # of connection points: 2
#     Edge 48, Type (0, 0), BuildingBlock: TEMPAE_clean_linker_10, # of connection points: 2
#     Edge 49, Type (0, 0), BuildingBlock: TEMPAE_clean_linker_10, # of connection points: 2
#     Edge 50, Type (0, 0), BuildingBlock: TEMPAE_clean_linker_10, # of connection points: 2
#     Edge 51, Type (0, 0), BuildingBlock: TEMPAE_clean_linker_10, # of connection points: 2
#     Edge 52, Type (0, 0), BuildingBlock: TEMPAE_clean_linker_10, # of connection points: 2
#     Edge 53, Type (0, 0), BuildingBlock: TEMPAE_clean_linker_10, # of connection points: 2
#     Edge 54, Type (0, 0), BuildingBlock: TEMPAE_clean_linker_10, # of connection points: 2
#     Edge 55, Type (0, 0), BuildingBlock: TEMPAE_clean_linker_10, # of connection points: 2
#     Edge 56, Type (0, 0), BuildingBlock: TEMPAE_clean_linker_10, # of connection points: 2
#     Edge 57, Type (0, 0), BuildingBlock: TEMPAE_clean_linker_10, # of connection points: 2
#     Edge 58, Type (0, 0), BuildingBlock: TEMPAE_clean_linker_10, # of connection points: 2
#     Edge 59, Type (0, 0), BuildingBlock: TEMPAE_clean_linker_10, # of connection points: 2
#     Edge 60, Type (0, 0), BuildingBlock: TEMPAE_clean_linker_10, # of connection points: 2
#     Edge 61, Type (0, 0), BuildingBlock: TEMPAE_clean_linker_10, # of connection points: 2
#     Edge 62, Type (0, 0), BuildingBlock: TEMPAE_clean_linker_10, # of connection points: 2
#     Edge 63, Type (0, 0), BuildingBlock: TEMPAE_clean_linker_10, # of connection points: 2
#     Edge 64, Type (0, 0), BuildingBlock: TEMPAE_clean_linker_10, # of connection points: 2
#     Edge 65, Type (0, 0), BuildingBlock: TEMPAE_clean_linker_10, # of connection points: 2
#     Edge 66, Type (0, 0), BuildingBlock: TEMPAE_clean_linker_10, # of connection points: 2
#     Edge 67, Type (0, 0), BuildingBlock: TEMPAE_clean_linker_10, # of connection points: 2
#     Edge 68, Type (0, 0), BuildingBlock: TEMPAE_clean_linker_10, # of connection points: 2
#     Edge 69, Type (0, 0), BuildingBlock: TEMPAE_clean_linker_10, # of connection points: 2
#     Edge 70, Type (0, 0), BuildingBlock: TEMPAE_clean_linker_10, # of connection points: 2
#     Edge 71, Type (0, 0), BuildingBlock: TEMPAE_clean_linker_10, # of connection points: 2
#     Edge 72, Type (0, 0), BuildingBlock: TEMPAE_clean_linker_10, # of connection points: 2
#     Edge 73, Type (0, 0), BuildingBlock: TEMPAE_clean_linker_10, # of connection points: 2
#     Edge 74, Type (0, 0), BuildingBlock: TEMPAE_clean_linker_10, # of connection points: 2
#     Edge 75, Type (0, 0), BuildingBlock: TEMPAE_clean_linker_10, # of connection points: 2
#     Edge 76, Type (0, 0), BuildingBlock: TEMPAE_clean_linker_10, # of connection points: 2
#     Edge 77, Type (0, 0), BuildingBlock: TEMPAE_clean_linker_10, # of connection points: 2
#     Edge 78, Type (0, 0), BuildingBlock: TEMPAE_clean_linker_10, # of connection points: 2
#     Edge 79, Type (0, 0), BuildingBlock: TEMPAE_clean_linker_10, # of connection points: 2
#     Edge 80, Type (0, 0), BuildingBlock: TEMPAE_clean_linker_10, # of connection points: 2
#     Edge 81, Type (0, 0), BuildingBlock: TEMPAE_clean_linker_10, # of connection points: 2
#     Edge 82, Type (0, 0), BuildingBlock: TEMPAE_clean_linker_10, # of connection points: 2
#     Edge 83, Type (0, 0), BuildingBlock: TEMPAE_clean_linker_10, # of connection points: 2
#     Edge 84, Type (0, 0), BuildingBlock: TEMPAE_clean_linker_10, # of connection points: 2
#     Edge 85, Type (0, 0), BuildingBlock: TEMPAE_clean_linker_10, # of connection points: 2
#     Edge 86, Type (0, 0), BuildingBlock: TEMPAE_clean_linker_10, # of connection points: 2
#     Edge 87, Type (0, 0), BuildingBlock: TEMPAE_clean_linker_10, # of connection points: 2
#     Edge 88, Type (0, 0), BuildingBlock: TEMPAE_clean_linker_10, # of connection points: 2
#     Edge 89, Type (0, 0), BuildingBlock: TEMPAE_clean_linker_10, # of connection points: 2
#     Edge 90, Type (0, 0), BuildingBlock: TEMPAE_clean_linker_10, # of connection points: 2
#     Edge 91, Type (0, 0), BuildingBlock: TEMPAE_clean_linker_10, # of connection points: 2
#     Edge 92, Type (0, 0), BuildingBlock: TEMPAE_clean_linker_10, # of connection points: 2
#     Edge 93, Type (0, 0), BuildingBlock: TEMPAE_clean_linker_10, # of connection points: 2
#     Edge 94, Type (0, 0), BuildingBlock: TEMPAE_clean_linker_10, # of connection points: 2
#     Edge 95, Type (0, 0), BuildingBlock: TEMPAE_clean_linker_10, # of connection points: 2
# Relax obj value: 0.044
# Max RMSD: 0.097
# Mean RMSD: 0.097
data_MOF--net-upd--node1-NAWXER_clean_sbu_0--edge1-TEMPAE_clean_linker_10
_symmetry_space_group_name_H-M    P1
_symmetry_Int_Tables_number       1
_symmetry_cell_setting            triclinic
loop_
_symmetry_equiv_pos_as_xyz
'x, y, z'
_cell_length_a     40.677595
_cell_length_b     40.629162
_cell_length_c     77.649825
_cell_angle_alpha  90.038656
_cell_angle_beta   90.094122
_cell_angle_gamma 89.975938
loop_
_atom_site_label
_atom_site_type_symbol
_atom_site_fract_x
_atom_site_fract_y
_atom_site_fract_z
_atom_type_partial_charge
C0 C 0.16899 0.08775 0.29057 0.0
C1 C 0.15314 0.17548 0.33352 0.0
O2 O 0.14826 0.10992 0.28596 0.0
Zn3 Zn 0.12788 0.15517 0.2958 0.0
O4 O 0.18412 0.09076 0.30486 0.0
Zn5 Zn 0.16388 0.13196 0.31183 0.0
O6 O 0.11413 0.11593 0.31532 0.0
O7 O 0.08162 0.14404 0.29782 0.0
O8 O 0.17382 0.15202 0.33428 0.0
O9 O 0.13556 0.17877 0.31994 0.0
O10 O 0.14186 0.18814 0.27936 0.0
O11 O 0.18356 0.16567 0.29331 0.0
C12 C 0.08538 0.12215 0.30938 0.0
C13 C 0.17263 0.18559 0.28185 0.0
C14 C 0.06614 0.91633 0.53766 0.0
C15 C 0.12101 0.83143 0.57192 0.0
O16 O 0.08556 0.92872 0.54898 0.0
Zn17 Zn 0.11982 0.91062 0.56801 0.0
O18 O 0.06393 0.88528 0.53621 0.0
Zn19 Zn 0.09442 0.87345 0.55429 0.0
O20 O 0.07107 0.8903 0.57766 0.0
O21 O 0.10257 0.92865 0.58921 0.0
O22 O 0.10064 0.82733 0.55966 0.0
O23 O 0.13003 0.8607 0.57597 0.0
O24 O 0.16219 0.92578 0.55988 0.0
O25 O 0.14096 0.88692 0.5435 0.0
C26 C 0.07686 0.9109 0.58985 0.0
C27 C 0.16436 0.9071 0.5468 0.0
C28 C 0.34752 0.82392 0.83672 0.0
C29 C 0.351 0.90552 0.7901 0.0
O30 O 0.36715 0.81673 0.82441 0.0
Zn31 Zn 0.38335 0.83591 0.80039 0.0
O32 O 0.33026 0.85 0.83573 0.0
Zn33 Zn 0.34767 0.86528 0.8136 0.0
O34 O 0.32784 0.83068 0.79548 0.0
O35 O 0.36904 0.80218 0.78446 0.0
O36 O 0.33378 0.90694 0.80375 0.0
O37 O 0.36998 0.88073 0.78765 0.0
O38 O 0.42978 0.84168 0.80513 0.0
O39 O 0.39793 0.87458 0.8204 0.0
C40 C 0.3384 0.80812 0.78535 0.0
C41 C 0.42669 0.86395 0.81655 0.0
C42 C 0.43715 0.07463 0.09086 0.0
C43 C 0.3521 0.07707 0.04638 0.0
O44 O 0.44353 0.09471 0.0786 0.0
Zn45 Zn 0.42264 0.10983 0.05453 0.0
O46 O 0.41196 0.05623 0.08975 0.0
Zn47 Zn 0.39556 0.07359 0.06801 0.0
O48 O 0.42899 0.05415 0.04903 0.0
O49 O 0.45541 0.09647 0.03791 0.0
O50 O 0.3533 0.05905 0.05974 0.0
O51 O 0.37616 0.0965 0.04304 0.0
O52 O 0.41665 0.1563 0.05909 0.0
O53 O 0.3854 0.12412 0.07506 0.0
C54 C 0.45056 0.06564 0.03861 0.0
C55 C 0.39518 0.15307 0.07087 0.0
C56 C 0.17092 0.79458 0.17401 0.0
C57 C 0.16833 0.88332 0.21651 0.0
O58 O 0.14574 0.79307 0.18392 0.0
Zn59 Zn 0.12571 0.81999 0.20552 0.0
O60 O 0.19305 0.81597 0.17697 0.0
Zn61 Zn 0.17094 0.83734 0.19599 0.0
O62 O 0.1749 0.80209 0.21668 0.0
O63 O 0.12442 0.78805 0.22382 0.0
O64 O 0.1902 0.87694 0.20535 0.0
O65 O 0.14332 0.86422 0.21781 0.0
O66 O 0.08445 0.8333 0.19553 0.0
O67 O 0.12768 0.85454 0.18251 0.0
C68 C 0.15518 0.78529 0.22613 0.0
C69 C 0.09645 0.85043 0.18337 0.0
C70 C 0.36297 0.90273 0.46871 0.0
C71 C 0.451 0.91393 0.4267 0.0
O72 O 0.3835 0.8788 0.46976 0.0
Zn73 Zn 0.42818 0.86428 0.45689 0.0
O74 O 0.36769 0.92519 0.45765 0.0
Zn75 Zn 0.40805 0.90897 0.44805 0.0
O76 O 0.39404 0.86593 0.43349 0.0
O77 O 0.41741 0.82307 0.44586 0.0
O78 O 0.42778 0.9341 0.42969 0.0
O79 O 0.45406 0.88809 0.43606 0.0
O80 O 0.46079 0.86352 0.47489 0.0
O81 O 0.44346 0.91362 0.4687 0.0
C82 C 0.40005 0.83494 0.43374 0.0
C83 C 0.4618 0.89431 0.47763 0.0
C84 C 0.32758 0.17747 0.70577 0.0
C85 C 0.40537 0.13152 0.66473 0.0
O86 O 0.31443 0.15521 0.69627 0.0
Zn87 Zn 0.32964 0.12266 0.67579 0.0
O88 O 0.35785 0.18443 0.70406 0.0
Zn89 Zn 0.36732 0.15258 0.68646 0.0
O90 O 0.34135 0.17289 0.66499 0.0
O91 O 0.30342 0.13771 0.65631 0.0
O92 O 0.41135 0.15091 0.6772 0.0
O93 O 0.37662 0.11888 0.66326 0.0
O94 O 0.32157 0.07959 0.68547 0.0
O95 O 0.36039 0.10649 0.69941 0.0
C96 C 0.31826 0.16507 0.65452 0.0
C97 C 0.34201 0.08101 0.69784 0.0
C98 C 0.12787 0.18312 0.94459 0.0
C99 C 0.05233 0.11973 0.98036 0.0
O100 O 0.12951 0.15209 0.94159 0.0
Zn101 Zn 0.10623 0.10763 0.95069 0.0
O102 O 0.10826 0.19381 0.95603 0.0
Zn103 Zn 0.09066 0.15156 0.96267 0.0
O104 O 0.13241 0.12796 0.9746 0.0
O105 O 0.1428 0.08289 0.95976 0.0
O106 O 0.05766 0.15051 0.98056 0.0
O107 O 0.06849 0.1014 0.96988 0.0
O108 O 0.08556 0.09178 0.92991 0.0
O109 O 0.06425 0.13822 0.93948 0.0
C110 C 0.14978 0.10198 0.97219 0.0
C111 C 0.06506 0.11516 0.92816 0.0
C112 C 0.91785 0.88368 0.68665 0.0
C113 C 0.83341 0.82144 0.71716 0.0
O114 O 0.92211 0.86278 0.69864 0.0
Zn115 Zn 0.87615 0.85373 0.70309 0.0
O116 O 0.88853 0.89193 0.68235 0.0
Zn117 Zn 0.83891 0.87936 0.68905 0.0
O118 O 0.82096 0.91981 0.69888 0.0
O119 O 0.85871 0.89713 0.71541 0.0
O120 O 0.8214 0.84186 0.70624 0.0
O121 O 0.86428 0.82032 0.71966 0.0
O122 O 0.86169 0.83195 0.67903 0.0
O123 O 0.82334 0.86272 0.66693 0.0
C124 C 0.83765 0.92002 0.71275 0.0
C125 C 0.84197 0.83752 0.66645 0.0
C126 C 0.90625 0.15032 0.41474 0.0
C127 C 0.94665 0.06872 0.45599 0.0
O128 O 0.92574 0.15536 0.42731 0.0
Zn129 Zn 0.92494 0.11072 0.43621 0.0
O130 O 0.8932 0.12182 0.41283 0.0
Zn131 Zn 0.89541 0.07381 0.42453 0.0
O132 O 0.85093 0.06713 0.43219 0.0
O133 O 0.87607 0.10662 0.44657 0.0
O134 O 0.92513 0.05655 0.4457 0.0
O135 O 0.95415 0.09897 0.45486 0.0
O136 O 0.94631 0.08592 0.41466 0.0
O137 O 0.91128 0.04888 0.40486 0.0
C138 C 0.85028 0.0892 0.44378 0.0
C139 C 0.93871 0.06372 0.40362 0.0
C140 C 0.64297 0.18801 0.17756 0.0
C141 C 0.65436 0.10761 0.22369 0.0
O142 O 0.66578 0.16707 0.17984 0.0
Zn143 Zn 0.64875 0.1484 0.20072 0.0
O144 O 0.6196 0.19015 0.18861 0.0
Zn145 Zn 0.60499 0.16536 0.21214 0.0
O146 O 0.60561 0.19994 0.22921 0.0
O147 O 0.65477 0.18813 0.21893 0.0
O148 O 0.62836 0.12518 0.22547 0.0
O149 O 0.6731 0.11272 0.21092 0.0
O150 O 0.60427 0.12576 0.19119 0.0
O151 O 0.56285 0.14772 0.20543 0.0
C152 C 0.63636 0.20526 0.22892 0.0
C153 C 0.57324 0.1281 0.19391 0.0
C154 C 0.58059 0.90869 0.964 0.0
C155 C 0.63384 0.82076 0.93127 0.0
O156 O 0.57887 0.87782 0.96635 0.0
Zn157 Zn 0.608 0.86414 0.94802 0.0
O158 O 0.5992 0.92007 0.95209 0.0
Zn159 Zn 0.63248 0.90024 0.93316 0.0
O160 O 0.61435 0.91604 0.91175 0.0
O161 O 0.58344 0.87874 0.92455 0.0
O162 O 0.64253 0.84967 0.92644 0.0
O163 O 0.61366 0.81754 0.94366 0.0
O164 O 0.65578 0.87755 0.95731 0.0
O165 O 0.6754 0.91583 0.94007 0.0
C166 C 0.5887 0.89818 0.91181 0.0
C167 C 0.67901 0.89727 0.9531 0.0
C168 C 0.83223 0.2002 0.8387 0.0
C169 C 0.83643 0.10494 0.79958 0.0
O170 O 0.81312 0.17536 0.83927 0.0
Zn171 Zn 0.83359 0.15129 0.82028 0.0
O172 O 0.85514 0.20126 0.82741 0.0
Zn173 Zn 0.87445 0.17263 0.80664 0.0
O174 O 0.86635 0.20125 0.787 0.0
O175 O 0.82104 0.18337 0.79964 0.0
O176 O 0.85848 0.12673 0.79677 0.0
O177 O 0.81677 0.10878 0.81216 0.0
O178 O 0.88107 0.14044 0.83086 0.0
O179 O 0.9188 0.16414 0.81469 0.0
C180 C 0.83514 0.20072 0.78805 0.0
C181 C 0.91137 0.14688 0.82779 0.0
C182 C 0.5712 0.10741 0.56904 0.0
C183 C 0.66171 0.10456 0.52715 0.0
O184 O 0.59533 0.08872 0.57304 0.0
Zn185 Zn 0.64157 0.07322 0.56375 0.0
O186 O 0.57198 0.12341 0.55494 0.0
Zn187 Zn 0.61518 0.10751 0.5472 0.0
O188 O 0.60641 0.05688 0.54221 0.0
O189 O 0.63386 0.02603 0.56081 0.0
O190 O 0.63551 0.12157 0.52571 0.0
O191 O 0.66593 0.08644 0.54049 0.0
O192 O 0.67065 0.09117 0.58158 0.0
O193 O 0.64638 0.12931 0.56582 0.0
C194 C 0.61441 0.0285 0.54801 0.0
C195 C 0.66586 0.12145 0.57811 0.0
C196 C 0.67623 0.91487 0.30371 0.0
C197 C 0.66575 0.82767 0.34713 0.0
O198 O 0.69315 0.91227 0.31745 0.0
Zn199 Zn 0.67366 0.87114 0.32558 0.0
O200 O 0.65484 0.89282 0.30009 0.0
Zn201 Zn 0.63576 0.84839 0.3103 0.0
O202 O 0.58988 0.85934 0.31421 0.0
O203 O 0.62444 0.88604 0.33119 0.0
O204 O 0.64705 0.82427 0.33396 0.0
O205 O 0.68595 0.8516 0.34768 0.0
O206 O 0.69075 0.83533 0.30744 0.0
O207 O 0.64788 0.81666 0.2929 0.0
C208 C 0.59496 0.87994 0.32629 0.0
C209 C 0.67867 0.81663 0.29573 0.0
C210 C 0.91681 0.98074 0.05818 0.0
C211 C 0.85635 0.8901 0.08567 0.0
O212 O 0.92577 0.95195 0.05338 0.0
Zn213 Zn 0.91276 0.90181 0.05734 0.0
O214 O 0.89317 0.98411 0.06877 0.0
Zn215 Zn 0.88459 0.93718 0.07216 0.0
O216 O 0.92888 0.92013 0.08391 0.0
O217 O 0.95315 0.8838 0.06697 0.0
O218 O 0.85169 0.92065 0.08851 0.0
O219 O 0.87779 0.8813 0.07453 0.0
O220 O 0.89594 0.88828 0.03484 0.0
O221 O 0.86399 0.9241 0.04807 0.0
C222 C 0.95253 0.90004 0.08102 0.0
C223 C 0.87001 0.90583 0.03502 0.0
C224 C 0.66095 0.58536 0.78664 0.0
C225 C 0.66383 0.66352 0.83461 0.0
O226 O 0.64152 0.60992 0.78458 0.0
Zn227 Zn 0.62763 0.6537 0.79815 0.0
O228 O 0.67833 0.58346 0.80023 0.0
Zn229 Zn 0.66385 0.62411 0.81073 0.0
O230 O 0.61379 0.61365 0.81747 0.0
O231 O 0.58134 0.64704 0.80282 0.0
O232 O 0.68141 0.63778 0.83304 0.0
O233 O 0.6439 0.67142 0.82252 0.0
O234 O 0.64112 0.68876 0.78291 0.0
O235 O 0.68298 0.66036 0.79335 0.0
C236 C 0.58485 0.62413 0.81384 0.0
C237 C 0.67187 0.68344 0.7837 0.0
C238 C 0.5756 0.42425 0.0385 0.0
C239 C 0.62292 0.34062 0.07643 0.0
O240 O 0.59632 0.43661 0.04917 0.0
Zn241 Zn 0.6273 0.41895 0.0697 0.0
O242 O 0.5702 0.39347 0.0386 0.0
Zn243 Zn 0.60032 0.38154 0.05681 0.0
O244 O 0.57747 0.40184 0.07919 0.0
O245 O 0.60985 0.4401 0.09014 0.0
O246 O 0.60319 0.33589 0.06393 0.0
O247 O 0.63362 0.36974 0.07946 0.0
O248 O 0.67098 0.43002 0.06239 0.0
O249 O 0.64864 0.39059 0.04672 0.0
C250 C 0.58355 0.42325 0.0909 0.0
C251 C 0.67312 0.40943 0.05013 0.0
C252 C 0.86087 0.31871 0.32206 0.0
C253 C 0.84451 0.40458 0.27831 0.0
O254 O 0.87542 0.32021 0.30755 0.0
Zn255 Zn 0.85356 0.36011 0.29945 0.0
O256 O 0.83939 0.34056 0.32596 0.0
Zn257 Zn 0.81787 0.38436 0.31568 0.0
O258 O 0.77158 0.37259 0.31338 0.0
O259 O 0.80423 0.34347 0.29645 0.0
O260 O 0.82716 0.40828 0.29192 0.0
O261 O 0.86361 0.37987 0.27711 0.0
O262 O 0.87312 0.39461 0.31737 0.0
O263 O 0.833 0.41639 0.3327 0.0
C264 C 0.77549 0.34997 0.30224 0.0
C265 C 0.86356 0.414 0.32937 0.0
C266 C 0.91499 0.58923 0.5959 0.0
C267 C 0.82988 0.58821 0.55117 0.0
O268 O 0.9212 0.60819 0.5831 0.0
Zn269 Zn 0.89914 0.62275 0.55915 0.0
O270 O 0.88888 0.57198 0.59578 0.0
Zn271 Zn 0.87212 0.58767 0.57381 0.0
O272 O 0.90662 0.56694 0.55588 0.0
O273 O 0.9303 0.60802 0.54203 0.0
O274 O 0.8302 0.5717 0.56507 0.0
O275 O 0.85375 0.60777 0.54789 0.0
O276 O 0.8929 0.66947 0.56295 0.0
O277 O 0.86229 0.63848 0.57984 0.0
C278 C 0.92689 0.57728 0.54447 0.0
C279 C 0.87187 0.66709 0.57499 0.0
C280 C 0.6697 0.30832 0.71025 0.0
C281 C 0.58118 0.35306 0.67463 0.0
O282 O 0.6798 0.32848 0.69875 0.0
Zn283 Zn 0.66007 0.35724 0.67816 0.0
O284 O 0.63928 0.30137 0.71126 0.0
Zn285 Zn 0.62488 0.33005 0.69278 0.0
O286 O 0.64426 0.30493 0.67093 0.0
O287 O 0.68115 0.33671 0.6584 0.0
O288 O 0.57864 0.33341 0.68729 0.0
O289 O 0.60975 0.36336 0.67013 0.0
O290 O 0.67283 0.40107 0.68536 0.0
O291 O 0.63668 0.37786 0.70269 0.0
C292 C 0.6656 0.30959 0.65907 0.0
C293 C 0.65527 0.40229 0.69889 0.0
C294 C 0.86335 0.40769 0.96779 0.0
C295 C 0.95111 0.40345 0.92475 0.0
O296 O 0.88951 0.39055 0.96883 0.0
Zn297 Zn 0.90845 0.40484 0.94717 0.0
O298 O 0.85851 0.426 0.95458 0.0
Zn299 Zn 0.88192 0.43925 0.93099 0.0
O300 O 0.85118 0.4219 0.91374 0.0
O301 O 0.87551 0.3833 0.92916 0.0
O302 O 0.92728 0.42266 0.92089 0.0
O303 O 0.95072 0.38814 0.93904 0.0
O304 O 0.9177 0.4554 0.9524 0.0
O305 O 0.88998 0.48642 0.93402 0.0
C306 C 0.85534 0.39154 0.91724 0.0
C307 C 0.90959 0.48385 0.94673 0.0
C308 C 0.83427 0.69469 0.21826 0.0
C309 C 0.90865 0.64974 0.17482 0.0
O310 O 0.81944 0.67802 0.2066 0.0
Zn311 Zn 0.83118 0.65224 0.18341 0.0
O312 O 0.86526 0.69854 0.21754 0.0
Zn313 Zn 0.87259 0.67291 0.19684 0.0
O314 O 0.85161 0.70375 0.17772 0.0
O315 O 0.80915 0.67896 0.16576 0.0
O316 O 0.91669 0.6668 0.18792 0.0
O317 O 0.87826 0.64319 0.17204 0.0
O318 O 0.81697 0.60762 0.18872 0.0
O319 O 0.85947 0.62395 0.20423 0.0
C320 C 0.82797 0.70392 0.16682 0.0
C321 C 0.83841 0.6017 0.20028 0.0
C322 C 0.64375 0.58786 0.46515 0.0
C323 C 0.5543 0.58381 0.42279 0.0
O324 O 0.62092 0.60904 0.46785 0.0
Zn325 Zn 0.57551 0.62469 0.45639 0.0
O326 O 0.64212 0.56927 0.45197 0.0
Zn327 Zn 0.6005 0.58564 0.44326 0.0
O328 O 0.61284 0.63437 0.43472 0.0
O329 O 0.58415 0.66996 0.45004 0.0
O330 O 0.57973 0.56558 0.42311 0.0
O331 O 0.55077 0.60622 0.43424 0.0
O332 O 0.54377 0.61465 0.47428 0.0
O333 O 0.56814 0.57066 0.46339 0.0
C334 C 0.60508 0.66423 0.43827 0.0
C335 C 0.54801 0.58362 0.47409 0.0
C336 C 0.42834 0.3715 0.18394 0.0
C337 C 0.33834 0.31532 0.21326 0.0
O338 O 0.43114 0.35004 0.19579 0.0
Zn339 Zn 0.38432 0.34309 0.19883 0.0
O340 O 0.39978 0.37966 0.17839 0.0
Zn341 Zn 0.34911 0.36802 0.18304 0.0
O342 O 0.33242 0.41085 0.19023 0.0
O343 O 0.36928 0.39018 0.20805 0.0
O344 O 0.32817 0.33426 0.20117 0.0
O345 O 0.36888 0.31343 0.21653 0.0
O346 O 0.37249 0.319 0.17505 0.0
O347 O 0.33643 0.3493 0.16093 0.0
C348 C 0.34995 0.41368 0.20374 0.0
C349 C 0.35454 0.32379 0.16169 0.0
C350 C 0.42978 0.58776 0.91128 0.0
C351 C 0.34592 0.58485 0.95607 0.0
O352 O 0.40469 0.56916 0.91202 0.0
Zn353 Zn 0.38868 0.58476 0.93394 0.0
O354 O 0.4359 0.60753 0.92379 0.0
Zn355 Zn 0.41388 0.62175 0.94793 0.0
O356 O 0.4461 0.60966 0.9651 0.0
O357 O 0.42507 0.56649 0.95179 0.0
O358 O 0.36878 0.60566 0.95931 0.0
O359 O 0.34769 0.56726 0.94257 0.0
O360 O 0.37594 0.63483 0.9274 0.0
O361 O 0.40561 0.668 0.9437 0.0
C362 C 0.44489 0.57869 0.96297 0.0
C363 C 0.38426 0.66407 0.93189 0.0
C364 C 0.16638 0.58188 0.71091 0.0
C365 C 0.15766 0.66568 0.66565 0.0
O366 O 0.18186 0.58277 0.69671 0.0
Zn367 Zn 0.16291 0.62348 0.68792 0.0
O368 O 0.14563 0.60466 0.71438 0.0
Zn369 Zn 0.12727 0.64877 0.70302 0.0
O370 O 0.08091 0.63995 0.69994 0.0
O371 O 0.11253 0.61087 0.68259 0.0
O372 O 0.13915 0.67115 0.67871 0.0
O373 O 0.17633 0.64053 0.66562 0.0
O374 O 0.18242 0.66004 0.70515 0.0
O375 O 0.14088 0.6814 0.71966 0.0
C376 C 0.08376 0.61906 0.68783 0.0
C377 C 0.17152 0.68003 0.71658 0.0
C378 C 0.1351 0.4119 0.45558 0.0
C379 C 0.04364 0.42128 0.41489 0.0
O380 O 0.1328 0.43173 0.44296 0.0
Zn381 Zn 0.09068 0.41646 0.43453 0.0
O382 O 0.11246 0.39043 0.45802 0.0
Zn383 Zn 0.06626 0.37629 0.44675 0.0
O384 O 0.07416 0.33172 0.43875 0.0
O385 O 0.10192 0.36866 0.42394 0.0
O386 O 0.04043 0.39749 0.42557 0.0
O387 O 0.06914 0.43933 0.41556 0.0
O388 O 0.05992 0.42943 0.45584 0.0
O389 O 0.03564 0.38446 0.46553 0.0
C390 C 0.09404 0.3385 0.42664 0.0
C391 C 0.04036 0.41536 0.46644 0.0
C392 C 0.35629 0.6899 0.33112 0.0
C393 C 0.35146 0.60287 0.28726 0.0
O394 O 0.33743 0.66571 0.33479 0.0
Zn395 Zn 0.32191 0.61983 0.32461 0.0
O396 O 0.37207 0.68982 0.31696 0.0
Zn397 Zn 0.35579 0.64739 0.30857 0.0
O398 O 0.30501 0.65692 0.3042 0.0
O399 O 0.2747 0.6268 0.32187 0.0
O400 O 0.36892 0.62884 0.28642 0.0
O401 O 0.33401 0.59751 0.30068 0.0
O402 O 0.34022 0.5894 0.34167 0.0
O403 O 0.37819 0.61502 0.32651 0.0
C404 C 0.27686 0.6479 0.30981 0.0
C405 C 0.37045 0.59468 0.33842 0.0
C406 C 0.05881 0.60776 0.07489 0.0
C407 C 0.14743 0.60069 0.03285 0.0
O408 O 0.07912 0.58426 0.07293 0.0
Zn409 Zn 0.10245 0.60298 0.05351 0.0
O410 O 0.0594 0.63216 0.06445 0.0
Zn411 Zn 0.08747 0.64888 0.04287 0.0
O412 O 0.05515 0.64994 0.02442 0.0
O413 O 0.06792 0.59955 0.03263 0.0
O414 O 0.1299 0.62675 0.03101 0.0
O415 O 0.14027 0.5802 0.04462 0.0
O416 O 0.12365 0.64572 0.06539 0.0
O417 O 0.10449 0.68986 0.05222 0.0
C418 C 0.05183 0.61901 0.0227 0.0
C419 C 0.1222 0.67712 0.06399 0.0
C420 C 0.19323 0.31372 0.84293 0.0
C421 C 0.18447 0.39876 0.7983 0.0
O422 O 0.21192 0.3387 0.84135 0.0
Zn423 Zn 0.19071 0.35608 0.82076 0.0
O424 O 0.17068 0.30847 0.83171 0.0
Zn425 Zn 0.15006 0.33116 0.80924 0.0
O426 O 0.15719 0.29913 0.79138 0.0
O427 O 0.20345 0.31999 0.80164 0.0
O428 O 0.16312 0.37578 0.79679 0.0
O429 O 0.2051 0.39759 0.8106 0.0
O430 O 0.14343 0.36704 0.83164 0.0
O431 O 0.10585 0.33891 0.81734 0.0
C432 C 0.1884 0.30035 0.79137 0.0
C433 C 0.11337 0.35839 0.82956 0.0
C434 C 0.40273 0.39036 0.58729 0.0
C435 C 0.32059 0.406 0.54155 0.0
O436 O 0.3778 0.4093 0.58799 0.0
Zn437 Zn 0.36098 0.39973 0.56492 0.0
O438 O 0.40819 0.3738 0.57354 0.0
Zn439 Zn 0.38702 0.36567 0.54873 0.0
O440 O 0.42032 0.38182 0.53315 0.0
O441 O 0.39803 0.42115 0.54898 0.0
O442 O 0.34357 0.38572 0.53776 0.0
O443 O 0.32075 0.42006 0.55621 0.0
O444 O 0.34701 0.34913 0.56744 0.0
O445 O 0.3774 0.31904 0.54987 0.0
C446 C 0.41862 0.41198 0.53747 0.0
C447 C 0.35495 0.321 0.56121 0.0
C448 C 0.09374 0.28035 0.41542 0.0
C449 C 0.1069 0.31228 0.41507 0.0
C450 C 0.10359 0.2564 0.40337 0.0
C451 C 0.12733 0.26446 0.39071 0.0
C452 C 0.14181 0.29616 0.39082 0.0
C453 C 0.13136 0.31965 0.40293 0.0
C454 C 0.08741 0.22298 0.40366 0.0
C455 C 0.1673 0.30579 0.37764 0.0
C456 C 0.16644 0.19654 0.3634 0.0
C457 C 0.14758 0.19828 0.34827 0.0
C458 C 0.16019 0.21782 0.37739 0.0
C459 C 0.13438 0.24121 0.37625 0.0
C460 C 0.11528 0.24294 0.36103 0.0
C461 C 0.12215 0.22164 0.34729 0.0
C462 C 0.18119 0.21532 0.39337 0.0
C463 C 0.08744 0.26736 0.35924 0.0
H464 H 0.07488 0.27435 0.42475 0.0
H465 H 0.14193 0.34413 0.40261 0.0
H466 H 0.07163 0.2201 0.39209 0.0
H467 H 0.10623 0.20323 0.40323 0.0
H468 H 0.07194 0.21942 0.41529 0.0
H469 H 0.1786 0.33006 0.38053 0.0
H470 H 0.18704 0.28697 0.37702 0.0
H471 H 0.15573 0.30704 0.36471 0.0
H472 H 0.18606 0.17857 0.36432 0.0
H473 H 0.10723 0.2232 0.33574 0.0
H474 H 0.16552 0.20996 0.40471 0.0
H475 H 0.19355 0.2392 0.39585 0.0
H476 H 0.20022 0.19582 0.39229 0.0
H477 H 0.06922 0.26354 0.36966 0.0
H478 H 0.0746 0.26524 0.34665 0.0
H479 H 0.097 0.29281 0.36056 0.0
C480 C 0.06172 0.93198 0.61928 0.0
C481 C 0.05469 0.91191 0.60501 0.0
C482 C 0.04188 0.93115 0.63411 0.0
C483 C 0.01446 0.9097 0.63467 0.0
C484 C 0.00703 0.88976 0.62022 0.0
C485 C 0.02715 0.89116 0.60561 0.0
C486 C 0.05044 0.95286 0.64924 0.0
C487 C 0.97797 0.86658 0.62025 0.0
C488 C 0.97553 0.87766 0.67576 0.0
C489 C 0.94572 0.89503 0.6759 0.0
C490 C 0.9993 0.8837 0.66302 0.0
C491 C 0.99316 0.90782 0.65024 0.0
C492 C 0.96432 0.92721 0.65118 0.0
C493 C 0.94092 0.92052 0.66397 0.0
C494 C 0.02979 0.86252 0.66249 0.0
C495 C 0.95696 0.9534 0.63794 0.0
H496 H 0.08299 0.94802 0.61898 0.0
H497 H 0.02146 0.87552 0.59469 0.0
H498 H 0.02916 0.96868 0.65262 0.0
H499 H 0.05597 0.93744 0.66067 0.0
H500 H 0.07199 0.96886 0.6466 0.0
H501 H 0.97553 0.85279 0.60795 0.0
H502 H 0.9805 0.84859 0.63091 0.0
H503 H 0.95493 0.88056 0.62248 0.0
H504 H 0.97946 0.85793 0.68493 0.0
H505 H 0.9181 0.9343 0.66408 0.0
H506 H 0.05197 0.87786 0.6604 0.0
H507 H 0.02799 0.84506 0.65153 0.0
H508 H 0.0331 0.84812 0.67453 0.0
H509 H 0.97884 0.96912 0.63573 0.0
H510 H 0.93605 0.96933 0.64184 0.0
H511 H 0.95067 0.94151 0.62549 0.0
C512 C 0.34427 0.68839 0.91102 0.0
C513 C 0.37158 0.69246 0.92188 0.0
C514 C 0.33556 0.71261 0.89898 0.0
C515 C 0.35486 0.74147 0.8976 0.0
C516 C 0.38086 0.74686 0.90944 0.0
C517 C 0.38882 0.72233 0.92152 0.0
C518 C 0.30738 0.706 0.88678 0.0
C519 C 0.40213 0.77724 0.9084 0.0
C520 C 0.36725 0.77427 0.85244 0.0
C521 C 0.34727 0.80247 0.85221 0.0
C522 C 0.36977 0.75445 0.86711 0.0
C523 C 0.35166 0.76271 0.88204 0.0
C524 C 0.33091 0.79076 0.8819 0.0
C525 C 0.32901 0.81042 0.86696 0.0
C526 C 0.39223 0.72478 0.86665 0.0
C527 C 0.31107 0.80013 0.89755 0.0
H528 H 0.33052 0.66554 0.91138 0.0
H529 H 0.4099 0.72572 0.92989 0.0
H530 H 0.29202 0.72834 0.88511 0.0
H531 H 0.31728 0.69928 0.87394 0.0
H532 H 0.29152 0.68554 0.89133 0.0
H533 H 0.41778 0.78027 0.92003 0.0
H534 H 0.4184 0.77539 0.89698 0.0
H535 H 0.3868 0.79961 0.90678 0.0
H536 H 0.38148 0.76776 0.84116 0.0
H537 H 0.31359 0.83218 0.86693 0.0
H538 H 0.37795 0.70207 0.86927 0.0
H539 H 0.41126 0.72692 0.87684 0.0
H540 H 0.40476 0.72189 0.85403 0.0
H541 H 0.29537 0.77919 0.90158 0.0
H542 H 0.29516 0.82189 0.89516 0.0
H543 H 0.32781 0.80575 0.90845 0.0
C544 C 0.45088 0.05516 0.12085 0.0
C545 C 0.45748 0.07573 0.10675 0.0
C546 C 0.46835 0.05861 0.13643 0.0
C547 C 0.49265 0.08343 0.13795 0.0
C548 C 0.49987 0.1037 0.12364 0.0
C549 C 0.48239 0.09947 0.10824 0.0
C550 C 0.46034 0.03626 0.15135 0.0
C551 C 0.52546 0.13061 0.1247 0.0
C552 C 0.51787 0.12353 0.18002 0.0
C553 C 0.55 0.11153 0.18201 0.0
C554 C 0.4979 0.11286 0.16634 0.0
C555 C 0.5102 0.08928 0.15453 0.0
C556 C 0.5415 0.07504 0.15737 0.0
C557 C 0.56114 0.08652 0.171 0.0
C558 C 0.46477 0.12889 0.16371 0.0
C559 C 0.5553 0.04942 0.14529 0.0
H560 H 0.43169 0.03676 0.11983 0.0
H561 H 0.48774 0.11555 0.09747 0.0
H562 H 0.4831 0.02461 0.15637 0.0
H563 H 0.44957 0.05088 0.16201 0.0
H564 H 0.44267 0.0166 0.1477 0.0
H565 H 0.52837 0.14401 0.11233 0.0
H566 H 0.51854 0.14861 0.13481 0.0
H567 H 0.54962 0.12004 0.12837 0.0
H568 H 0.50907 0.14287 0.18846 0.0
H569 H 0.58582 0.07687 0.17256 0.0
H570 H 0.44572 0.11011 0.16092 0.0
H571 H 0.46594 0.14565 0.15244 0.0
H572 H 0.457 0.14343 0.17512 0.0
H573 H 0.53647 0.03056 0.1422 0.0
H574 H 0.57725 0.03698 0.15079 0.0
H575 H 0.56254 0.06135 0.13301 0.0
C576 C 0.19283 0.78242 0.14444 0.0
C577 C 0.17106 0.77494 0.15789 0.0
C578 C 0.18932 0.76773 0.12812 0.0
C579 C 0.16347 0.74504 0.12522 0.0
C580 C 0.14232 0.73638 0.13896 0.0
C581 C 0.14642 0.75135 0.15509 0.0
C582 C 0.21245 0.77742 0.11382 0.0
C583 C 0.11456 0.7121 0.13647 0.0
C584 C 0.12567 0.72921 0.08122 0.0
C585 C 0.13765 0.69761 0.07756 0.0
C586 C 0.13532 0.74588 0.09628 0.0
C587 C 0.15773 0.73068 0.10781 0.0
C588 C 0.17173 0.69989 0.1035 0.0
C589 C 0.16143 0.68369 0.08847 0.0
C590 C 0.11977 0.77869 0.10044 0.0
C591 C 0.19591 0.68298 0.11533 0.0
H592 H 0.21182 0.80075 0.14643 0.0
H593 H 0.12949 0.74533 0.16538 0.0
H594 H 0.22313 0.75518 0.1077 0.0
H595 H 0.19865 0.7909 0.10371 0.0
H596 H 0.2328 0.79335 0.11848 0.0
H597 H 0.10097 0.70721 0.1486 0.0
H598 H 0.09693 0.72174 0.12678 0.0
H599 H 0.12424 0.68843 0.13147 0.0
H600 H 0.10721 0.74007 0.0729 0.0
H601 H 0.17102 0.65937 0.08566 0.0
H602 H 0.1388 0.79677 0.10433 0.0
H603 H 0.10269 0.77578 0.11147 0.0
H604 H 0.10573 0.78884 0.08937 0.0
H605 H 0.21534 0.70037 0.11954 0.0
H606 H 0.20774 0.6614 0.10909 0.0
H607 H 0.18293 0.67438 0.12705 0.0
C608 C 0.50015 0.89775 0.40969 0.0
C609 C 0.47186 0.91723 0.41123 0.0
C610 C 0.51753 0.89606 0.39418 0.0
C611 C 0.50633 0.91428 0.37977 0.0
C612 C 0.47853 0.93502 0.38139 0.0
C613 C 0.46162 0.93633 0.39715 0.0
C614 C 0.54736 0.87394 0.39309 0.0
C615 C 0.46592 0.95477 0.3663 0.0
C616 C 0.57349 0.92183 0.34667 0.0
C617 C 0.56772 0.89382 0.33653 0.0
C618 C 0.5519 0.93069 0.35991 0.0
C619 C 0.52396 0.91096 0.36312 0.0
C620 C 0.51628 0.88459 0.35184 0.0
C621 C 0.5383 0.87635 0.33858 0.0
C622 C 0.5608 0.95922 0.37149 0.0
C623 C 0.4865 0.86315 0.35475 0.0
H624 H 0.50826 0.88302 0.42054 0.0
H625 H 0.43957 0.95118 0.39821 0.0
H626 H 0.54307 0.85432 0.3834 0.0
H627 H 0.56907 0.88828 0.38882 0.0
H628 H 0.55329 0.8621 0.40561 0.0
H629 H 0.44605 0.97206 0.37009 0.0
H630 H 0.48618 0.969 0.36033 0.0
H631 H 0.45618 0.93782 0.35631 0.0
H632 H 0.59602 0.93569 0.34496 0.0
H633 H 0.53372 0.85471 0.33076 0.0
H634 H 0.57055 0.94962 0.38386 0.0
H635 H 0.53882 0.97434 0.37447 0.0
H636 H 0.57981 0.97529 0.36562 0.0
H637 H 0.49089 0.84701 0.36605 0.0
H638 H 0.48109 0.84729 0.34343 0.0
H639 H 0.46455 0.8784 0.3576 0.0
C640 C 0.29857 0.17426 0.62418 0.0
C641 C 0.31275 0.18646 0.63938 0.0
C642 C 0.29956 0.19275 0.60885 0.0
C643 C 0.31534 0.22383 0.60881 0.0
C644 C 0.32795 0.23692 0.62438 0.0
C645 C 0.32626 0.2182 0.63944 0.0
C646 C 0.28525 0.17831 0.59259 0.0
C647 C 0.34484 0.27006 0.62501 0.0
C648 C 0.36028 0.26333 0.57178 0.0
C649 C 0.34075 0.29127 0.56915 0.0
C650 C 0.35067 0.23896 0.58356 0.0
C651 C 0.3206 0.24254 0.5926 0.0
C652 C 0.29907 0.26864 0.58834 0.0
C653 C 0.3096 0.29296 0.5768 0.0
C654 C 0.37439 0.21149 0.58774 0.0
C655 C 0.26642 0.27284 0.59728 0.0
H656 H 0.28818 0.1497 0.62403 0.0
H657 H 0.33694 0.22797 0.65118 0.0
H658 H 0.27147 0.19723 0.58523 0.0
H659 H 0.30547 0.16934 0.58424 0.0
H660 H 0.26859 0.15731 0.59535 0.0
H661 H 0.35268 0.27691 0.63824 0.0
H662 H 0.3669 0.26974 0.61661 0.0
H663 H 0.32816 0.28951 0.62009 0.0
H664 H 0.38438 0.26196 0.56587 0.0
H665 H 0.29424 0.31438 0.57458 0.0
H666 H 0.36128 0.18767 0.58884 0.0
H667 H 0.38625 0.21653 0.60035 0.0
H668 H 0.39397 0.2091 0.57786 0.0
H669 H 0.25395 0.24877 0.59893 0.0
H670 H 0.24988 0.28967 0.59005 0.0
H671 H 0.27053 0.2834 0.61029 0.0
C672 C 0.04561 0.09349 0.89957 0.0
C673 C 0.04329 0.11691 0.91282 0.0
C674 C 0.02596 0.09586 0.8847 0.0
C675 C 0.0034 0.12224 0.88306 0.0
C676 C 0.00089 0.14587 0.8964 0.0
C677 C 0.02083 0.14294 0.91108 0.0
C678 C 0.02933 0.07021 0.87074 0.0
C679 C 0.97705 0.17431 0.89519 0.0
C680 C 0.96868 0.14977 0.83986 0.0
C681 C 0.93673 0.13685 0.84052 0.0
C682 C 0.99125 0.14403 0.85328 0.0
C683 C 0.98162 0.12487 0.86766 0.0
C684 C 0.95001 0.11039 0.86795 0.0
C685 C 0.92799 0.11654 0.85441 0.0
C686 C 0.02481 0.15978 0.85246 0.0
C687 C 0.93879 0.08971 0.88299 0.0
H688 H 0.06299 0.07338 0.90074 0.0
H689 H 0.01886 0.16122 0.92119 0.0
H690 H 0.00548 0.05753 0.86875 0.0
H691 H 0.03592 0.08216 0.85838 0.0
H692 H 0.04831 0.05147 0.87387 0.0
H693 H 0.97836 0.19079 0.90659 0.0
H694 H 0.98222 0.18906 0.88349 0.0
H695 H 0.95156 0.16487 0.89401 0.0
H696 H 0.97568 0.16548 0.8292 0.0
H697 H 0.90345 0.10622 0.85501 0.0
H698 H 0.04423 0.1413 0.85516 0.0
H699 H 0.02674 0.17915 0.86249 0.0
H700 H 0.0297 0.17117 0.83972 0.0
H701 H 0.95711 0.07023 0.88586 0.0
H702 H 0.91459 0.07789 0.88058 0.0
H703 H 0.93669 0.1054 0.89464 0.0
C704 C 0.83549 0.69365 0.59687 0.0
C705 C 0.86097 0.6965 0.58479 0.0
C706 C 0.82855 0.71917 0.60849 0.0
C707 C 0.84765 0.74827 0.60811 0.0
C708 C 0.87179 0.75229 0.59514 0.0
C709 C 0.87812 0.72637 0.58359 0.0
C710 C 0.80245 0.71389 0.62201 0.0
C711 C 0.89267 0.78295 0.59427 0.0
C712 C 0.82261 0.82033 0.63687 0.0
C713 C 0.84243 0.81491 0.65141 0.0
C714 C 0.82409 0.79906 0.62254 0.0
C715 C 0.8459 0.77184 0.6228 0.0
C716 C 0.86591 0.76634 0.63744 0.0
C717 C 0.8639 0.78783 0.6515 0.0
C718 C 0.80237 0.80563 0.60715 0.0
C719 C 0.88951 0.73762 0.63831 0.0
H720 H 0.82181 0.67082 0.59777 0.0
H721 H 0.89778 0.72886 0.57428 0.0
H722 H 0.81438 0.70978 0.6347 0.0
H723 H 0.7866 0.73598 0.62323 0.0
H724 H 0.78669 0.69228 0.61906 0.0
H725 H 0.90669 0.78448 0.58203 0.0
H726 H 0.87722 0.80532 0.59556 0.0
H727 H 0.91043 0.78296 0.60513 0.0
H728 H 0.80605 0.84123 0.63665 0.0
H729 H 0.87942 0.78334 0.66261 0.0
H730 H 0.78596 0.78427 0.60486 0.0
H731 H 0.81765 0.80871 0.59544 0.0
H732 H 0.787 0.828 0.60887 0.0
H733 H 0.87578 0.71413 0.6371 0.0
H734 H 0.90369 0.73709 0.65055 0.0
H735 H 0.90712 0.73881 0.62744 0.0
C736 C 0.02923 0.12388 0.32208 0.0
C737 C 0.05711 0.10573 0.31749 0.0
C738 C 0.0066 0.11121 0.33401 0.0
C739 C 0.01187 0.07949 0.34114 0.0
C740 C 0.03791 0.05973 0.33493 0.0
C741 C 0.06053 0.07329 0.32335 0.0
C742 C 0.97918 0.13316 0.34034 0.0
C743 C 0.0438 0.02546 0.34176 0.0
C744 C 0.99125 0.07422 0.38847 0.0
C745 C 0.95968 0.0604 0.38818 0.0
C746 C 0.00883 0.07941 0.37326 0.0
C747 C 0.99477 0.07004 0.3573 0.0
C748 C 0.96406 0.05362 0.357 0.0
C749 C 0.94672 0.04909 0.3725 0.0
C750 C 0.04164 0.09683 0.37424 0.0
C751 C 0.94866 0.04257 0.34029 0.0
H752 H 0.02667 0.14902 0.31759 0.0
H753 H 0.08199 0.05913 0.31962 0.0
H754 H 0.95576 0.1193 0.34115 0.0
H755 H 0.98517 0.1421 0.35349 0.0
H756 H 0.9755 0.15487 0.33186 0.0
H757 H 0.06028 0.01108 0.33319 0.0
H758 H 0.05549 0.02705 0.35466 0.0
H759 H 0.02027 0.01196 0.34325 0.0
H760 H 0.00156 0.08272 0.40057 0.0
H761 H 0.92227 0.0385 0.37217 0.0
H762 H 0.04013 0.12072 0.36736 0.0
H763 H 0.06091 0.08192 0.36783 0.0
H764 H 0.04948 0.10164 0.38772 0.0
H765 H 0.93854 0.06426 0.33342 0.0
H766 H 0.92833 0.02481 0.34245 0.0
H767 H 0.96725 0.03102 0.33176 0.0
C768 C 0.61335 0.28424 0.08871 0.0
C769 C 0.63074 0.31405 0.08885 0.0
C770 C 0.61696 0.2614 0.10219 0.0
C771 C 0.63841 0.26865 0.11609 0.0
C772 C 0.65732 0.29784 0.11579 0.0
C773 C 0.65333 0.32009 0.10217 0.0
C774 C 0.5966 0.23036 0.102 0.0
C775 C 0.68047 0.3065 0.13034 0.0
C776 C 0.61905 0.23416 0.16032 0.0
C777 C 0.64229 0.20881 0.16189 0.0
C778 C 0.61731 0.25351 0.14539 0.0
C779 C 0.6392 0.24724 0.13161 0.0
C780 C 0.66258 0.22156 0.13304 0.0
C781 C 0.66395 0.20274 0.14819 0.0
C782 C 0.59223 0.28091 0.14446 0.0
C783 C 0.68618 0.21407 0.11857 0.0
H784 H 0.59586 0.27936 0.07848 0.0
H785 H 0.66709 0.34294 0.10235 0.0
H786 H 0.61227 0.20859 0.10467 0.0
H787 H 0.57779 0.23161 0.11232 0.0
H788 H 0.58387 0.22663 0.08948 0.0
H789 H 0.69533 0.32877 0.12749 0.0
H790 H 0.66613 0.31109 0.14225 0.0
H791 H 0.6974 0.28571 0.13302 0.0
H792 H 0.60219 0.23903 0.17082 0.0
H793 H 0.68181 0.18303 0.14924 0.0
H794 H 0.57627 0.27762 0.13299 0.0
H795 H 0.60489 0.30494 0.14304 0.0
H796 H 0.5764 0.28196 0.15609 0.0
H797 H 0.67235 0.20899 0.10653 0.0
H798 H 0.70217 0.19259 0.12147 0.0
H799 H 0.70204 0.23576 0.11609 0.0
C800 C 0.57338 0.91522 0.88173 0.0
C801 C 0.5661 0.89762 0.8968 0.0
C802 C 0.55322 0.91268 0.86705 0.0
C803 C 0.52515 0.89211 0.8675 0.0
C804 C 0.51743 0.8747 0.88275 0.0
C805 C 0.53795 0.87768 0.89718 0.0
C806 C 0.56213 0.93167 0.85102 0.0
C807 C 0.4876 0.85262 0.88381 0.0
C808 C 0.45161 0.90213 0.83807 0.0
C809 C 0.45507 0.87494 0.82705 0.0
C810 C 0.4754 0.90933 0.85059 0.0
C811 C 0.50333 0.8888 0.85219 0.0
C812 C 0.50815 0.86272 0.84033 0.0
C813 C 0.48396 0.85614 0.82784 0.0
C814 C 0.46943 0.93752 0.86289 0.0
C815 C 0.53769 0.84035 0.84158 0.0
H816 H 0.59515 0.93057 0.88128 0.0
H817 H 0.53207 0.86397 0.90874 0.0
H818 H 0.56659 0.91434 0.84023 0.0
H819 H 0.54141 0.94782 0.84715 0.0
H820 H 0.58441 0.94708 0.85286 0.0
H821 H 0.48503 0.84083 0.89664 0.0
H822 H 0.465 0.86703 0.88112 0.0
H823 H 0.48921 0.833 0.8739 0.0
H824 H 0.42952 0.91701 0.83743 0.0
H825 H 0.48683 0.8351 0.81938 0.0
H826 H 0.4919 0.95273 0.86432 0.0
H827 H 0.46328 0.92761 0.8758 0.0
H828 H 0.44891 0.9536 0.85858 0.0
H829 H 0.56058 0.85497 0.84293 0.0
H830 H 0.54002 0.82404 0.83016 0.0
H831 H 0.5355 0.8247 0.85323 0.0
C832 C 0.84115 0.33249 0.91319 0.0
C833 C 0.83985 0.36492 0.90697 0.0
C834 C 0.83348 0.30567 0.90258 0.0
C835 C 0.82395 0.31133 0.88532 0.0
C836 C 0.8195 0.3441 0.87944 0.0
C837 C 0.82761 0.37061 0.89035 0.0
C838 C 0.83873 0.27126 0.90942 0.0
C839 C 0.80876 0.35115 0.86121 0.0
C840 C 0.85649 0.24851 0.85362 0.0
C841 C 0.82915 0.22814 0.85086 0.0
C842 C 0.85477 0.27582 0.86456 0.0
C843 C 0.82476 0.28344 0.87286 0.0
C844 C 0.79684 0.26324 0.87002 0.0
C845 C 0.79944 0.23554 0.85915 0.0
C846 C 0.8854 0.2962 0.86745 0.0
C847 C 0.76435 0.27091 0.87846 0.0
H848 H 0.85 0.32783 0.92614 0.0
H849 H 0.8263 0.39558 0.88549 0.0
H850 H 0.81797 0.25498 0.90581 0.0
H851 H 0.86136 0.26075 0.90364 0.0
H852 H 0.84152 0.27092 0.92366 0.0
H853 H 0.80037 0.377 0.85965 0.0
H854 H 0.82972 0.34691 0.85235 0.0
H855 H 0.78861 0.33434 0.85727 0.0
H856 H 0.87961 0.24285 0.84735 0.0
H857 H 0.77816 0.22007 0.85691 0.0
H858 H 0.89224 0.29575 0.88129 0.0
H859 H 0.8807 0.32222 0.8639 0.0
H860 H 0.90667 0.28716 0.85983 0.0
H861 H 0.76685 0.26924 0.89266 0.0
H862 H 0.74457 0.25386 0.87425 0.0
H863 H 0.75684 0.29651 0.87541 0.0
C864 C 0.42069 0.10925 0.63581 0.0
C865 C 0.42961 0.12685 0.65068 0.0
C866 C 0.44189 0.10711 0.62162 0.0
C867 C 0.47293 0.12274 0.62231 0.0
C868 C 0.4822 0.14045 0.63727 0.0
C869 C 0.46042 0.14233 0.65128 0.0
C870 C 0.43112 0.08795 0.60592 0.0
C871 C 0.51523 0.15724 0.63852 0.0
C872 C 0.54175 0.0878 0.59511 0.0
C873 C 0.54387 0.11057 0.58155 0.0
C874 C 0.51857 0.09137 0.60826 0.0
C875 C 0.49669 0.11838 0.60792 0.0
C876 C 0.49788 0.14102 0.59403 0.0
C877 C 0.52152 0.13683 0.58095 0.0
C878 C 0.51799 0.06651 0.62274 0.0
C879 C 0.47472 0.17001 0.59322 0.0
H880 H 0.39683 0.09746 0.63511 0.0
H881 H 0.46742 0.15623 0.66262 0.0
H882 H 0.43247 0.10377 0.5943 0.0
H883 H 0.44793 0.06683 0.60381 0.0
H884 H 0.40563 0.07841 0.60714 0.0
H885 H 0.51823 0.17108 0.65077 0.0
H886 H 0.53516 0.13867 0.63762 0.0
H887 H 0.51842 0.17455 0.62761 0.0
H888 H 0.55868 0.06721 0.59564 0.0
H889 H 0.52307 0.15455 0.57056 0.0
H890 H 0.4932 0.05532 0.62379 0.0
H891 H 0.52327 0.07895 0.63517 0.0
H892 H 0.53626 0.04649 0.62088 0.0
H893 H 0.44886 0.16148 0.59403 0.0
H894 H 0.47777 0.18452 0.58121 0.0
H895 H 0.47912 0.18645 0.6044 0.0
C896 C 0.67877 0.80869 0.37736 0.0
C897 C 0.66149 0.80469 0.36184 0.0
C898 C 0.67274 0.78783 0.39151 0.0
C899 C 0.64882 0.76259 0.39007 0.0
C900 C 0.63161 0.75835 0.37438 0.0
C901 C 0.63822 0.77928 0.36052 0.0
C902 C 0.69169 0.7929 0.40801 0.0
C903 C 0.6059 0.73179 0.37225 0.0
C904 C 0.64636 0.68523 0.41716 0.0
C905 C 0.61931 0.69136 0.4279 0.0
C906 C 0.65783 0.70919 0.40565 0.0
C907 C 0.64167 0.73999 0.40469 0.0
C908 C 0.61555 0.74704 0.41618 0.0
C909 C 0.60476 0.72267 0.42772 0.0
C910 C 0.68592 0.70073 0.39375 0.0
C911 C 0.59757 0.77954 0.41551 0.0
H912 H 0.69668 0.82831 0.37852 0.0
H913 H 0.62466 0.77587 0.34862 0.0
H914 H 0.67447 0.79864 0.41866 0.0
H915 H 0.70483 0.76994 0.41156 0.0
H916 H 0.70989 0.81318 0.40697 0.0
H917 H 0.59448 0.73199 0.35924 0.0
H918 H 0.61709 0.70723 0.37442 0.0
H919 H 0.5862 0.73502 0.38197 0.0
H920 H 0.65806 0.66125 0.41737 0.0
H921 H 0.58392 0.72765 0.436 0.0
H922 H 0.70408 0.72106 0.39336 0.0
H923 H 0.67637 0.69733 0.38047 0.0
H924 H 0.69871 0.67776 0.39769 0.0
H925 H 0.61524 0.8003 0.41522 0.0
H926 H 0.58083 0.78286 0.42667 0.0
H927 H 0.58274 0.78081 0.40352 0.0
C928 C 0.08938 0.87938 0.1552 0.0
C929 C 0.07548 0.86155 0.16886 0.0
C930 C 0.07122 0.8864 0.14027 0.0
C931 C 0.03835 0.87531 0.13894 0.0
C932 C 0.02392 0.85793 0.15281 0.0
C933 C 0.04263 0.85133 0.16763 0.0
C934 C 0.08736 0.90523 0.12582 0.0
C935 C 0.98886 0.8458 0.15187 0.0
C936 C 0.97919 0.9175 0.10841 0.0
C937 C 0.97739 0.89497 0.09472 0.0
C938 C 0.99958 0.91177 0.12263 0.0
C939 C 0.01867 0.88272 0.12326 0.0
C940 C 0.01799 0.8604 0.10922 0.0
C941 C 0.99736 0.86684 0.09505 0.0
C942 C 0.99989 0.93637 0.13724 0.0
C943 C 0.03819 0.82922 0.10943 0.0
H944 H 0.11478 0.88729 0.15599 0.0
H945 H 0.03175 0.83732 0.17804 0.0
H946 H 0.0878 0.88993 0.11398 0.0
H947 H 0.07294 0.9277 0.12282 0.0
H948 H 0.11296 0.9126 0.12899 0.0
H949 H 0.98129 0.83259 0.16374 0.0
H950 H 0.97191 0.86684 0.14982 0.0
H951 H 0.98592 0.82895 0.14072 0.0
H952 H 0.96408 0.93948 0.10819 0.0
H953 H 0.99602 0.84931 0.08454 0.0
H954 H 0.02545 0.9442 0.14008 0.0
H955 H 0.99004 0.92474 0.14908 0.0
H956 H 0.98496 0.95859 0.13433 0.0
H957 H 0.0644 0.83502 0.11198 0.0
H958 H 0.03645 0.81542 0.09711 0.0
H959 H 0.02966 0.813 0.12002 0.0
C960 C 0.64437 0.71202 0.85132 0.0
C961 C 0.66427 0.68383 0.8505 0.0
C962 C 0.64244 0.73102 0.86631 0.0
C963 C 0.66103 0.72183 0.88095 0.0
C964 C 0.68144 0.69358 0.88026 0.0
C965 C 0.68282 0.67483 0.865 0.0
C966 C 0.62038 0.761 0.86643 0.0
C967 C 0.70165 0.68318 0.89563 0.0
C968 C 0.67209 0.79533 0.91006 0.0
C969 C 0.64513 0.792 0.92117 0.0
C970 C 0.6795 0.77101 0.89786 0.0
C971 C 0.65929 0.74277 0.89665 0.0
C972 C 0.63373 0.73797 0.90878 0.0
C973 C 0.62701 0.76266 0.92097 0.0
C974 C 0.70716 0.777 0.88531 0.0
C975 C 0.61163 0.70818 0.90792 0.0
H976 H 0.62989 0.71928 0.84023 0.0
H977 H 0.69813 0.65301 0.8645 0.0
H978 H 0.60191 0.75883 0.87686 0.0
H979 H 0.63514 0.78341 0.86904 0.0
H980 H 0.60716 0.76444 0.85403 0.0
H981 H 0.71638 0.6607 0.89301 0.0
H982 H 0.71856 0.70333 0.89945 0.0
H983 H 0.6853 0.67836 0.90677 0.0
H984 H 0.68653 0.81775 0.91032 0.0
H985 H 0.60622 0.75988 0.92956 0.0
H986 H 0.69673 0.78405 0.87262 0.0
H987 H 0.72188 0.75431 0.88339 0.0
H988 H 0.72377 0.79704 0.88969 0.0
H989 H 0.59452 0.71077 0.89686 0.0
H990 H 0.59683 0.70526 0.91983 0.0
H991 H 0.62622 0.68546 0.90582 0.0
C992 C 0.53132 0.40846 0.10541 0.0
C993 C 0.56185 0.42441 0.10613 0.0
C994 C 0.51258 0.40357 0.12026 0.0
C995 C 0.52447 0.41519 0.13629 0.0
C996 C 0.55445 0.43284 0.13703 0.0
C997 C 0.5729 0.43723 0.1219 0.0
C998 C 0.48056 0.38485 0.11884 0.0
C999 C 0.56764 0.44588 0.15388 0.0
C1000 C 0.45479 0.41723 0.16803 0.0
C1001 C 0.4573 0.38584 0.1754 0.0
C1002 C 0.47862 0.42873 0.15653 0.0
C1003 C 0.50524 0.40803 0.15209 0.0
C1004 C 0.50947 0.37754 0.1607 0.0
C1005 C 0.48543 0.36685 0.17241 0.0
C1006 C 0.47354 0.46165 0.14792 0.0
C1007 C 0.53756 0.35475 0.15632 0.0
H1008 H 0.5225 0.39868 0.09326 0.0
H1009 H 0.59658 0.44939 0.12256 0.0
H1010 H 0.48188 0.36206 0.12668 0.0
H1011 H 0.46005 0.39994 0.12396 0.0
H1012 H 0.47464 0.3779 0.10535 0.0
H1013 H 0.58909 0.46239 0.15199 0.0
H1014 H 0.54824 0.45953 0.16093 0.0
H1015 H 0.57536 0.42499 0.16214 0.0
H1016 H 0.43322 0.43216 0.17057 0.0
H1017 H 0.48739 0.34258 0.17812 0.0
H1018 H 0.46399 0.45773 0.13469 0.0
H1019 H 0.4971 0.47522 0.14684 0.0
H1020 H 0.45563 0.47718 0.15504 0.0
H1021 H 0.53275 0.34302 0.14365 0.0
H1022 H 0.5406 0.335 0.16608 0.0
H1023 H 0.56096 0.36858 0.15525 0.0
C1024 C 0.88012 0.16853 0.38724 0.0
C1025 C 0.90056 0.17575 0.40135 0.0
C1026 C 0.87562 0.19113 0.37382 0.0
C1027 C 0.89185 0.22188 0.37447 0.0
C1028 C 0.91268 0.22937 0.38859 0.0
C1029 C 0.9168 0.20619 0.40188 0.0
C1030 C 0.8531 0.18222 0.35905 0.0
C1031 C 0.93034 0.26198 0.38971 0.0
C1032 C 0.89556 0.27149 0.33283 0.0
C1033 C 0.86902 0.29314 0.33504 0.0
C1034 C 0.90374 0.24841 0.34568 0.0
C1035 C 0.88486 0.247 0.361 0.0
C1036 C 0.85808 0.26875 0.36323 0.0
C1037 C 0.85052 0.29145 0.35027 0.0
C1038 C 0.93247 0.2255 0.34288 0.0
C1039 C 0.83715 0.2679 0.37929 0.0
H1040 H 0.86761 0.14502 0.3866 0.0
H1041 H 0.93288 0.21186 0.41262 0.0
H1042 H 0.83194 0.19945 0.35867 0.0
H1043 H 0.86632 0.18466 0.34663 0.0
H1044 H 0.84349 0.15671 0.36009 0.0
H1045 H 0.94684 0.26344 0.4011 0.0
H1046 H 0.94514 0.26608 0.37792 0.0
H1047 H 0.91216 0.2823 0.3905 0.0
H1048 H 0.9101 0.27276 0.32117 0.0
H1049 H 0.82992 0.30799 0.35215 0.0
H1050 H 0.92394 0.19957 0.3431 0.0
H1051 H 0.95056 0.22836 0.35349 0.0
H1052 H 0.94509 0.23013 0.33044 0.0
H1053 H 0.8253 0.24343 0.38056 0.0
H1054 H 0.81763 0.28703 0.3792 0.0
H1055 H 0.85274 0.2716 0.39087 0.0
C1056 C 0.0579 0.58175 0.66612 0.0
C1057 C 0.05457 0.60732 0.67815 0.0
C1058 C 0.03272 0.57459 0.65433 0.0
C1059 C 0.00357 0.59361 0.65449 0.0
C1060 C 0.99902 0.61772 0.66747 0.0
C1061 C 0.02456 0.62422 0.67921 0.0
C1062 C 0.03847 0.54843 0.64085 0.0
C1063 C 0.9683 0.63854 0.66809 0.0
C1064 C 0.965 0.61028 0.61091 0.0
C1065 C 0.93771 0.58914 0.61088 0.0
C1066 C 0.98633 0.61196 0.62505 0.0
C1067 C 0.98048 0.59186 0.63961 0.0
C1068 C 0.95317 0.57023 0.63969 0.0
C1069 C 0.93201 0.56917 0.62532 0.0
C1070 C 0.01515 0.63542 0.6244 0.0
C1071 C 0.94631 0.54834 0.65495 0.0
H1072 H 0.08087 0.56829 0.66534 0.0
H1073 H 0.02173 0.64397 0.68848 0.0
H1074 H 0.0164 0.53266 0.63933 0.0
H1075 H 0.04319 0.56036 0.62824 0.0
H1076 H 0.05986 0.53256 0.64406 0.0
H1077 H 0.96634 0.65255 0.68034 0.0
H1078 H 0.96859 0.65635 0.65726 0.0
H1079 H 0.94605 0.62303 0.66657 0.0
H1080 H 0.96965 0.62591 0.59987 0.0
H1081 H 0.91097 0.55281 0.62543 0.0
H1082 H 0.03852 0.62158 0.62577 0.0
H1083 H 0.01376 0.65307 0.63528 0.0
H1084 H 0.01602 0.64961 0.61218 0.0
H1085 H 0.96775 0.53214 0.65745 0.0
H1086 H 0.92421 0.53273 0.65297 0.0
H1087 H 0.9426 0.56357 0.66666 0.0
C1088 C 0.68877 0.14266 0.6061 0.0
C1089 C 0.67895 0.14832 0.58905 0.0
C1090 C 0.69335 0.16916 0.61755 0.0
C1091 C 0.68764 0.20179 0.61179 0.0
C1092 C 0.68077 0.20761 0.5942 0.0
C1093 C 0.67678 0.18084 0.58304 0.0
C1094 C 0.70158 0.16203 0.63613 0.0
C1095 C 0.67425 0.24189 0.58746 0.0
C1096 C 0.64636 0.2608 0.6427 0.0
C1097 C 0.67177 0.28285 0.6466 0.0
C1098 C 0.65145 0.23421 0.63155 0.0
C1099 C 0.68302 0.22902 0.62438 0.0
C1100 C 0.709 0.25093 0.62844 0.0
C1101 C 0.70295 0.27795 0.63936 0.0
C1102 C 0.62279 0.21197 0.62725 0.0
C1103 C 0.74312 0.24569 0.62136 0.0
H1104 H 0.69072 0.11762 0.6108 0.0
H1105 H 0.66979 0.18547 0.56978 0.0
H1106 H 0.71968 0.18008 0.64115 0.0
H1107 H 0.679 0.16423 0.64404 0.0
H1108 H 0.71163 0.1368 0.6378 0.0
H1109 H 0.67366 0.24266 0.57316 0.0
H1110 H 0.65014 0.2506 0.59235 0.0
H1111 H 0.69322 0.25937 0.5921 0.0
H1112 H 0.6222 0.26459 0.64825 0.0
H1113 H 0.72275 0.29472 0.64258 0.0
H1114 H 0.62857 0.18625 0.63094 0.0
H1115 H 0.61821 0.21222 0.61315 0.0
H1116 H 0.59982 0.21949 0.63391 0.0
H1117 H 0.75199 0.22071 0.6248 0.0
H1118 H 0.76094 0.26414 0.62632 0.0
H1119 H 0.74267 0.24715 0.6071 0.0
C1120 C 0.09826 0.38827 0.85652 0.0
C1121 C 0.08892 0.36762 0.84285 0.0
C1122 C 0.0771 0.39419 0.87041 0.0
C1123 C 0.04574 0.37919 0.87066 0.0
C1124 C 0.03585 0.35882 0.85677 0.0
C1125 C 0.05756 0.35329 0.84301 0.0
C1126 C 0.08845 0.41624 0.88492 0.0
C1127 C 0.00247 0.34256 0.85656 0.0
C1128 C 0.99968 0.37206 0.91317 0.0
C1129 C 0.9774 0.39828 0.91184 0.0
C1130 C 0.0224 0.36565 0.89993 0.0
C1131 C 0.02275 0.386 0.8851 0.0
C1132 C 0.00092 0.41297 0.88393 0.0
C1133 C 0.9786 0.41877 0.89729 0.0
C1134 C 0.04554 0.33676 0.90162 0.0
C1135 C 0.0007 0.43541 0.86842 0.0
H1136 H 0.12247 0.3994 0.85657 0.0
H1137 H 0.05023 0.3371 0.83259 0.0
H1138 H 0.07138 0.43737 0.88634 0.0
H1139 H 0.08811 0.40248 0.89726 0.0
H1140 H 0.11366 0.42592 0.88281 0.0
H1141 H 0.9986 0.32723 0.84488 0.0
H1142 H 0.99963 0.32674 0.8681 0.0
H1143 H 0.98289 0.36154 0.8571 0.0
H1144 H 0.99883 0.35608 0.92433 0.0
H1145 H 0.96165 0.43925 0.89616 0.0
H1146 H 0.07137 0.3451 0.90025 0.0
H1147 H 0.04076 0.31881 0.89114 0.0
H1148 H 0.04291 0.32396 0.91418 0.0
H1149 H 0.02546 0.44621 0.86647 0.0
H1150 H 0.98264 0.45577 0.8697 0.0
H1151 H 0.99462 0.42106 0.85668 0.0
C1152 C 0.84554 0.83089 0.09167 0.0
C1153 C 0.84028 0.86402 0.09609 0.0
C1154 C 0.83693 0.80534 0.10287 0.0
C1155 C 0.82208 0.8129 0.11885 0.0
C1156 C 0.81375 0.84601 0.12268 0.0
C1157 C 0.82318 0.8713 0.11129 0.0
C1158 C 0.84661 0.77052 0.09825 0.0
C1159 C 0.79705 0.85496 0.13937 0.0
C1160 C 0.79657 0.73742 0.14484 0.0
C1161 C 0.82437 0.73286 0.15529 0.0
C1162 C 0.79441 0.76452 0.13354 0.0
C1163 C 0.82096 0.78704 0.13246 0.0
C1164 C 0.84865 0.78289 0.1433 0.0
C1165 C 0.84986 0.75612 0.15461 0.0
C1166 C 0.7642 0.76853 0.12245 0.0
C1167 C 0.87783 0.80589 0.14243 0.0
H1168 H 0.85821 0.82485 0.07981 0.0
H1169 H 0.81868 0.89675 0.11475 0.0
H1170 H 0.86727 0.76254 0.10662 0.0
H1171 H 0.82589 0.75335 0.10047 0.0
H1172 H 0.85452 0.76829 0.08461 0.0
H1173 H 0.78627 0.88007 0.13889 0.0
H1174 H 0.77735 0.83704 0.14246 0.0
H1175 H 0.81527 0.8542 0.15001 0.0
H1176 H 0.77664 0.71976 0.14539 0.0
H1177 H 0.87149 0.75295 0.16261 0.0
H1178 H 0.77024 0.76227 0.10891 0.0
H1179 H 0.75566 0.79448 0.12263 0.0
H1180 H 0.74378 0.75236 0.12673 0.0
H1181 H 0.88926 0.80441 0.12948 0.0
H1182 H 0.89689 0.79996 0.15221 0.0
H1183 H 0.86979 0.83169 0.1444 0.0
C1184 C 0.5066 0.60586 0.40636 0.0
C1185 C 0.52823 0.57969 0.40961 0.0
C1186 C 0.48083 0.60278 0.3945 0.0
C1187 C 0.47611 0.57253 0.38577 0.0
C1188 C 0.49767 0.54583 0.38905 0.0
C1189 C 0.52374 0.54982 0.40085 0.0
C1190 C 0.45888 0.63215 0.39116 0.0
C1191 C 0.49309 0.51311 0.38017 0.0
C1192 C 0.3909 0.56871 0.36584 0.0
C1193 C 0.39721 0.58121 0.34935 0.0
C1194 C 0.4168 0.56295 0.37752 0.0
C1195 C 0.44958 0.57006 0.37257 0.0
C1196 C 0.45618 0.57997 0.35546 0.0
C1197 C 0.42998 0.58522 0.34407 0.0
C1198 C 0.40882 0.55173 0.39555 0.0
C1199 C 0.49066 0.588 0.34961 0.0
H1200 H 0.50999 0.62908 0.41302 0.0
H1201 H 0.54019 0.52942 0.40345 0.0
H1202 H 0.46023 0.63924 0.37738 0.0
H1203 H 0.43292 0.62576 0.39396 0.0
H1204 H 0.46576 0.65384 0.39911 0.0
H1205 H 0.5112 0.49445 0.38458 0.0
H1206 H 0.46794 0.50366 0.38261 0.0
H1207 H 0.49561 0.51617 0.36604 0.0
H1208 H 0.3657 0.56537 0.37001 0.0
H1209 H 0.43518 0.59439 0.33125 0.0
H1210 H 0.41085 0.57291 0.40451 0.0
H1211 H 0.42654 0.5327 0.39991 0.0
H1212 H 0.38351 0.54162 0.39646 0.0
H1213 H 0.49878 0.61129 0.35576 0.0
H1214 H 0.49219 0.59104 0.33541 0.0
H1215 H 0.50812 0.56846 0.35359 0.0
C1216 C 0.35721 0.1783 0.09245 0.0
C1217 C 0.38368 0.18181 0.08102 0.0
C1218 C 0.34907 0.20333 0.10415 0.0
C1219 C 0.36798 0.23255 0.10455 0.0
C1220 C 0.39344 0.23709 0.09234 0.0
C1221 C 0.40092 0.2117 0.08067 0.0
C1222 C 0.32154 0.19757 0.11682 0.0
C1223 C 0.41422 0.26786 0.09235 0.0
C1224 C 0.33869 0.30501 0.13184 0.0
C1225 C 0.35667 0.30024 0.14708 0.0
C1226 C 0.34203 0.28325 0.11782 0.0
C1227 C 0.36392 0.25621 0.11908 0.0
C1228 C 0.38196 0.25123 0.13446 0.0
C1229 C 0.37807 0.27319 0.14823 0.0
C1230 C 0.32228 0.28921 0.10165 0.0
C1231 C 0.40557 0.22271 0.13638 0.0
H1232 H 0.34351 0.15543 0.0927 0.0
H1233 H 0.42138 0.21465 0.07188 0.0
H1234 H 0.33202 0.19376 0.12988 0.0
H1235 H 0.30517 0.21937 0.11748 0.0
H1236 H 0.30655 0.17565 0.11341 0.0
H1237 H 0.43018 0.26946 0.08079 0.0
H1238 H 0.39846 0.29012 0.09292 0.0
H1239 H 0.43013 0.26807 0.10398 0.0
H1240 H 0.32217 0.32586 0.13082 0.0
H1241 H 0.39216 0.26921 0.1599 0.0
H1242 H 0.30678 0.26742 0.09877 0.0
H1243 H 0.33904 0.29269 0.09055 0.0
H1244 H 0.30614 0.31118 0.10275 0.0
H1245 H 0.39225 0.19909 0.13473 0.0
H1246 H 0.41796 0.22248 0.14914 0.0
H1247 H 0.42467 0.22389 0.12622 0.0
C1248 C 0.44217 0.57113 0.88077 0.0
C1249 C 0.45084 0.58857 0.89572 0.0
C1250 C 0.46101 0.57379 0.86566 0.0
C1251 C 0.48915 0.59429 0.86554 0.0
C1252 C 0.49822 0.61158 0.88065 0.0
C1253 C 0.47899 0.60851 0.89551 0.0
C1254 C 0.45064 0.555 0.84978 0.0
C1255 C 0.52818 0.63357 0.88112 0.0
C1256 C 0.56074 0.58479 0.83495 0.0
C1257 C 0.55678 0.61241 0.8243 0.0
C1258 C 0.53755 0.57713 0.84767 0.0
C1259 C 0.50973 0.59763 0.84981 0.0
C1260 C 0.50425 0.62399 0.83821 0.0
C1261 C 0.52785 0.63104 0.82554 0.0
C1262 C 0.54421 0.54863 0.85965 0.0
C1263 C 0.47478 0.64631 0.84003 0.0
H1264 H 0.42037 0.5558 0.88078 0.0
H1265 H 0.48594 0.62208 0.90698 0.0
H1266 H 0.44537 0.57243 0.83914 0.0
H1267 H 0.47093 0.53877 0.84541 0.0
H1268 H 0.42845 0.53969 0.85205 0.0
H1269 H 0.53185 0.6453 0.89391 0.0
H1270 H 0.5505 0.61909 0.87794 0.0
H1271 H 0.52582 0.65324 0.87129 0.0
H1272 H 0.58285 0.57001 0.83395 0.0
H1273 H 0.52458 0.65239 0.81734 0.0
H1274 H 0.52173 0.5336 0.86146 0.0
H1275 H 0.55153 0.55823 0.87248 0.0
H1276 H 0.5642 0.53246 0.85482 0.0
H1277 H 0.45203 0.63168 0.84185 0.0
H1278 H 0.47155 0.66252 0.82863 0.0
H1279 H 0.47788 0.66206 0.85159 0.0
C1280 C 0.17517 0.68322 0.63589 0.0
C1281 C 0.15575 0.68817 0.6506 0.0
C1282 C 0.17242 0.70421 0.62152 0.0
C1283 C 0.14968 0.73063 0.62188 0.0
C1284 C 0.13005 0.73567 0.63669 0.0
C1285 C 0.13337 0.71449 0.65081 0.0
C1286 C 0.19383 0.69819 0.60598 0.0
C1287 C 0.10547 0.76352 0.63764 0.0
C1288 C 0.15721 0.80784 0.59484 0.0
C1289 C 0.13204 0.80333 0.58268 0.0
C1290 C 0.16473 0.78339 0.60698 0.0
C1291 C 0.1465 0.75373 0.60706 0.0
C1292 C 0.12242 0.74819 0.59418 0.0
C1293 C 0.11554 0.77303 0.58209 0.0
C1294 C 0.19077 0.79022 0.6204 0.0
C1295 C 0.10241 0.71691 0.59384 0.0
H1296 H 0.19245 0.66292 0.63558 0.0
H1297 H 0.11813 0.71855 0.66205 0.0
H1298 H 0.17826 0.69423 0.59442 0.0
H1299 H 0.20928 0.72014 0.60344 0.0
H1300 H 0.21015 0.67649 0.60767 0.0
H1301 H 0.09174 0.76377 0.65 0.0
H1302 H 0.11826 0.78747 0.63619 0.0
H1303 H 0.08751 0.76146 0.62692 0.0
H1304 H 0.17035 0.83103 0.59529 0.0
H1305 H 0.09608 0.7693 0.57273 0.0
H1306 H 0.20763 0.7689 0.62168 0.0
H1307 H 0.17889 0.79407 0.63309 0.0
H1308 H 0.2055 0.81245 0.61728 0.0
H1309 H 0.11861 0.69507 0.59506 0.0
H1310 H 0.08771 0.71456 0.58182 0.0
H1311 H 0.08532 0.71668 0.60496 0.0
C1312 C 0.01244 0.45787 0.39446 0.0
C1313 C 0.01748 0.42687 0.40195 0.0
C1314 C 0.98659 0.46301 0.38266 0.0
C1315 C 0.96595 0.43634 0.37802 0.0
C1316 C 0.97118 0.40499 0.38551 0.0
C1317 C 0.99662 0.40077 0.39747 0.0
C1318 C 0.98134 0.49688 0.37518 0.0
C1319 C 0.95026 0.37563 0.38068 0.0
C1320 C 0.88151 0.43924 0.35741 0.0
C1321 C 0.88899 0.42893 0.34063 0.0
C1322 C 0.90672 0.44501 0.36948 0.0
C1323 C 0.93995 0.44005 0.36464 0.0
C1324 C 0.9476 0.43284 0.34728 0.0
C1325 C 0.92205 0.42763 0.33548 0.0
C1326 C 0.89761 0.45352 0.38777 0.0
C1327 C 0.98259 0.42715 0.34151 0.0
H1328 H 0.02831 0.47819 0.39803 0.0
H1329 H 0.00049 0.3767 0.40315 0.0
H1330 H 0.98487 0.49621 0.36103 0.0
H1331 H 0.95571 0.50504 0.37755 0.0
H1332 H 0.99846 0.51536 0.38074 0.0
H1333 H 0.95756 0.35296 0.38772 0.0
H1334 H 0.92404 0.3808 0.3835 0.0
H1335 H 0.95227 0.37078 0.36666 0.0
H1336 H 0.85607 0.44054 0.36147 0.0
H1337 H 0.92809 0.42021 0.32245 0.0
H1338 H 0.91465 0.47225 0.39313 0.0
H1339 H 0.89964 0.43117 0.39591 0.0
H1340 H 0.87203 0.46293 0.38869 0.0
H1341 H 0.99913 0.44654 0.3466 0.0
H1342 H 0.98477 0.42659 0.32725 0.0
H1343 H 0.99136 0.4032 0.34664 0.0
C1344 C 0.38909 0.73551 0.34477 0.0
C1345 C 0.36067 0.71603 0.34423 0.0
C1346 C 0.39515 0.75661 0.35882 0.0
C1347 C 0.37216 0.75822 0.37252 0.0
C1348 C 0.34273 0.73981 0.37156 0.0
C1349 C 0.33738 0.71901 0.35746 0.0
C1350 C 0.42672 0.77611 0.35937 0.0
C1351 C 0.31742 0.74107 0.38577 0.0
C1352 C 0.40088 0.78152 0.41752 0.0
C1353 C 0.39066 0.81442 0.4187 0.0
C1354 C 0.39539 0.7631 0.40247 0.0
C1355 C 0.37925 0.77791 0.38826 0.0
C1356 C 0.36852 0.81094 0.38944 0.0
C1357 C 0.37429 0.82877 0.40463 0.0
C1358 C 0.40707 0.72782 0.40172 0.0
C1359 C 0.35113 0.82755 0.3746 0.0
H1360 H 0.40722 0.73323 0.33462 0.0
H1361 H 0.31517 0.70428 0.35705 0.0
H1362 H 0.42149 0.80245 0.36194 0.0
H1363 H 0.44241 0.76703 0.37006 0.0
H1364 H 0.44079 0.77415 0.34716 0.0
H1365 H 0.29497 0.72673 0.38257 0.0
H1366 H 0.32813 0.73102 0.39782 0.0
H1367 H 0.31017 0.76691 0.38839 0.0
H1368 H 0.41377 0.77029 0.42824 0.0
H1369 H 0.36648 0.85424 0.40534 0.0
H1370 H 0.42423 0.72452 0.39076 0.0
H1371 H 0.38587 0.71117 0.39949 0.0
H1372 H 0.41973 0.72011 0.41375 0.0
H1373 H 0.36698 0.82707 0.36299 0.0
H1374 H 0.34465 0.85352 0.37751 0.0
H1375 H 0.32828 0.81398 0.37137 0.0
C1376 C 0.04039 0.58759 0.10391 0.0
C1377 C 0.03649 0.60912 0.08993 0.0
C1378 C 0.02137 0.5913 0.11891 0.0
C1379 C 0.99794 0.61703 0.11986 0.0
C1380 C 0.99349 0.63836 0.10565 0.0
C1381 C 0.01277 0.63413 0.0909 0.0
C1382 C 0.02669 0.56808 0.13382 0.0
C1383 C 0.96856 0.66595 0.10608 0.0
C1384 C 0.92453 0.61513 0.14966 0.0
C1385 C 0.93347 0.63837 0.16221 0.0
C1386 C 0.94608 0.60653 0.13635 0.0
C1387 C 0.97735 0.62162 0.13549 0.0
C1388 C 0.98725 0.64382 0.1486 0.0
C1389 C 0.96517 0.65189 0.16187 0.0
C1390 C 0.93463 0.58266 0.12268 0.0
C1391 C 0.02045 0.66038 0.1481 0.0
H1392 H 0.05883 0.56837 0.10332 0.0
H1393 H 0.00951 0.65087 0.08016 0.0
H1394 H 0.0348 0.58212 0.14532 0.0
H1395 H 0.00326 0.55574 0.13722 0.0
H1396 H 0.04539 0.54894 0.13092 0.0
H1397 H 0.96814 0.68035 0.09393 0.0
H1398 H 0.94362 0.65581 0.10834 0.0
H1399 H 0.97416 0.68294 0.11689 0.0
H1400 H 0.90023 0.60422 0.14995 0.0
H1401 H 0.97227 0.66977 0.17155 0.0
H1402 H 0.95351 0.56346 0.12039 0.0
H1403 H 0.93093 0.59599 0.11035 0.0
H1404 H 0.91116 0.57044 0.1262 0.0
H1405 H 0.04016 0.64195 0.14596 0.0
H1406 H 0.02585 0.67408 0.16017 0.0
H1407 H 0.02125 0.67795 0.13718 0.0
C1408 C 0.17289 0.26539 0.85937 0.0
C1409 C 0.19354 0.29302 0.85865 0.0
C1410 C 0.16714 0.24885 0.87486 0.0
C1411 C 0.18293 0.25972 0.89008 0.0
C1412 C 0.20557 0.28617 0.8893 0.0
C1413 C 0.21049 0.30272 0.87357 0.0
C1414 C 0.14274 0.22077 0.87506 0.0
C1415 C 0.22342 0.29794 0.9052 0.0
C1416 C 0.13311 0.23704 0.92944 0.0
C1417 C 0.1462 0.20603 0.93338 0.0
C1418 C 0.14642 0.25613 0.91609 0.0
C1419 C 0.1739 0.24417 0.90677 0.0
C1420 C 0.18902 0.21431 0.91182 0.0
C1421 C 0.17471 0.19536 0.92491 0.0
C1422 C 0.12923 0.28761 0.91097 0.0
C1423 C 0.21882 0.20112 0.90253 0.0
H1424 H 0.15988 0.25745 0.84789 0.0
H1425 H 0.22647 0.32404 0.87315 0.0
H1426 H 0.15433 0.19832 0.88046 0.0
H1427 H 0.12163 0.22719 0.88345 0.0
H1428 H 0.13317 0.21489 0.862 0.0
H1429 H 0.24361 0.3153 0.90202 0.0
H1430 H 0.20585 0.31067 0.91385 0.0
H1431 H 0.23379 0.2768 0.91243 0.0
H1432 H 0.11102 0.24533 0.93592 0.0
H1433 H 0.18513 0.17155 0.92808 0.0
H1434 H 0.11619 0.28382 0.89856 0.0
H1435 H 0.14728 0.3077 0.90903 0.0
H1436 H 0.11098 0.2956 0.92075 0.0
H1437 H 0.21123 0.19093 0.88988 0.0
H1438 H 0.23116 0.18126 0.90996 0.0
H1439 H 0.23682 0.22107 0.90006 0.0
C1440 C 0.44952 0.36156 0.60155 0.0
C1441 C 0.42568 0.38656 0.60205 0.0
C1442 C 0.4725 0.35771 0.61483 0.0
C1443 C 0.47189 0.37944 0.62907 0.0
C1444 C 0.4475 0.40433 0.62992 0.0
C1445 C 0.42458 0.40757 0.61639 0.0
C1446 C 0.49795 0.33071 0.61341 0.0
C1447 C 0.4461 0.42792 0.64491 0.0
C1448 C 0.52112 0.34815 0.66736 0.0
C1449 C 0.55183 0.36284 0.66443 0.0
C1450 C 0.49416 0.35481 0.65654 0.0
C1451 C 0.498 0.37669 0.64249 0.0
C1452 C 0.52843 0.39291 0.64005 0.0
C1453 C 0.55493 0.38577 0.65102 0.0
C1454 C 0.46211 0.33704 0.65959 0.0
C1455 C 0.5336 0.41645 0.62526 0.0
H1456 H 0.45044 0.34493 0.59064 0.0
H1457 H 0.40621 0.42688 0.6169 0.0
H1458 H 0.5229 0.34166 0.61279 0.0
H1459 H 0.49714 0.31474 0.62499 0.0
H1460 H 0.49426 0.31509 0.60183 0.0
H1461 H 0.4245 0.44459 0.64418 0.0
H1462 H 0.4451 0.4141 0.65722 0.0
H1463 H 0.46876 0.4431 0.6452 0.0
H1464 H 0.5184 0.33053 0.67773 0.0
H1465 H 0.57844 0.39753 0.64874 0.0
H1466 H 0.45823 0.31851 0.64928 0.0
H1467 H 0.44118 0.35452 0.65904 0.0
H1468 H 0.46173 0.32421 0.67222 0.0
H1469 H 0.53319 0.40263 0.61293 0.0
H1470 H 0.55741 0.42971 0.62623 0.0
H1471 H 0.51344 0.43482 0.62475 0.0
C1472 C 0.31812 0.29192 0.24105 0.0
C1473 C 0.31433 0.29593 0.22325 0.0
C1474 C 0.29451 0.27481 0.25074 0.0
C1475 C 0.26719 0.26031 0.24229 0.0
C1476 C 0.26372 0.26372 0.22423 0.0
C1477 C 0.28701 0.28206 0.21498 0.0
C1478 C 0.29854 0.27264 0.27004 0.0
C1479 C 0.23567 0.24765 0.21464 0.0
C1480 C 0.22512 0.18975 0.26562 0.0
C1481 C 0.19613 0.20469 0.27141 0.0
C1482 C 0.24809 0.20738 0.25581 0.0
C1483 C 0.24252 0.24113 0.2523 0.0
C1484 C 0.21339 0.25644 0.25833 0.0
C1485 C 0.19019 0.23781 0.26754 0.0
C1486 C 0.27817 0.1898 0.24908 0.0
C1487 C 0.20706 0.2926 0.25535 0.0
H1488 H 0.3391 0.30298 0.24746 0.0
H1489 H 0.28421 0.28502 0.20117 0.0
H1490 H 0.27622 0.28234 0.2765 0.0
H1491 H 0.30131 0.24656 0.274 0.0
H1492 H 0.32024 0.28663 0.27472 0.0
H1493 H 0.2372 0.25166 0.20051 0.0
H1494 H 0.23563 0.22077 0.21717 0.0
H1495 H 0.21186 0.25753 0.21928 0.0
H1496 H 0.22955 0.16402 0.26852 0.0
H1497 H 0.16786 0.24939 0.27218 0.0
H1498 H 0.30069 0.2009 0.25466 0.0
H1499 H 0.27973 0.19267 0.23489 0.0
H1500 H 0.27798 0.16312 0.2522 0.0
H1501 H 0.22769 0.30733 0.26067 0.0
H1502 H 0.1838 0.30102 0.26141 0.0
H1503 H 0.2058 0.29778 0.24135 0.0
C1504 C 0.03479 0.96826 0.53231 0.0
C1505 C 0.04712 0.93827 0.52615 0.0
C1506 C 0.01717 0.98963 0.52145 0.0
C1507 C 0.01291 0.9814 0.50385 0.0
C1508 C 0.02564 0.95122 0.49756 0.0
C1509 C 0.04205 0.92974 0.50887 0.0
C1510 C 0.00303 0.02097 0.52883 0.0
C1511 C 0.02259 0.94197 0.47878 0.0
C1512 C 0.94595 0.02168 0.47673 0.0
C1513 C 0.96323 0.04727 0.46872 0.0
C1514 C 0.96156 1.00067 0.48857 0.0
C1515 C 0.99559 0.00453 0.49196 0.0
C1516 C 0.01318 0.03022 0.48377 0.0
C1517 C 0.99664 0.05166 0.47249 0.0
C1518 C 0.94163 0.97439 0.49748 0.0
C1519 C 0.04966 0.03456 0.48658 0.0
H1520 H 0.03852 0.97477 0.54571 0.0
H1521 H 0.05187 0.90669 0.50405 0.0
H1522 H 0.01466 0.04261 0.52265 0.0
H1523 H 0.97628 0.0223 0.52607 0.0
H1524 H 0.00677 0.02279 0.54298 0.0
H1525 H 0.03457 0.91803 0.47585 0.0
H1526 H 0.99632 0.94039 0.47506 0.0
H1527 H 0.03399 0.96131 0.47067 0.0
H1528 H 0.92004 0.01841 0.4739 0.0
H1529 H 0.0101 0.07124 0.46617 0.0
H1530 H 0.94454 0.97658 0.51165 0.0
H1531 H 0.95073 0.94967 0.49374 0.0
H1532 H 0.91506 0.97597 0.49426 0.0
H1533 H 0.05481 0.03921 0.50039 0.0
H1534 H 0.05988 0.05525 0.47893 0.0
H1535 H 0.0628 0.01162 0.48297 0.0
C1536 C 0.19028 0.70637 0.74395 0.0
C1537 C 0.19499 0.70051 0.72635 0.0
C1538 C 0.21391 0.72359 0.75362 0.0
C1539 C 0.24227 0.73617 0.74533 0.0
C1540 C 0.24654 0.73113 0.72743 0.0
C1541 C 0.22313 0.71282 0.71822 0.0
C1542 C 0.20892 0.72765 0.77277 0.0
C1543 C 0.27581 0.74512 0.71799 0.0
C1544 C 0.28703 0.80589 0.76798 0.0
C1545 C 0.31467 0.78972 0.77467 0.0
C1546 C 0.26366 0.78891 0.75809 0.0
C1547 C 0.26743 0.75466 0.75536 0.0
C1548 C 0.29522 0.73814 0.76223 0.0
C1549 C 0.31886 0.75603 0.77156 0.0
C1550 C 0.23503 0.80764 0.7505 0.0
C1551 C 0.29962 0.70149 0.76001 0.0
H1552 H 0.16869 0.69649 0.75026 0.0
H1553 H 0.22665 0.70839 0.70457 0.0
H1554 H 0.23009 0.7169 0.77984 0.0
H1555 H 0.20784 0.75415 0.77614 0.0
H1556 H 0.186 0.71563 0.77732 0.0
H1557 H 0.27461 0.7404 0.70391 0.0
H1558 H 0.27728 0.77209 0.72014 0.0
H1559 H 0.29882 0.73417 0.72309 0.0
H1560 H 0.28395 0.83204 0.77028 0.0
H1561 H 0.34011 0.74351 0.77689 0.0
H1562 H 0.2116 0.79824 0.75587 0.0
H1563 H 0.2341 0.80384 0.73635 0.0
H1564 H 0.23656 0.83448 0.75313 0.0
H1565 H 0.27794 0.68834 0.76528 0.0
H1566 H 0.32206 0.69221 0.76658 0.0
H1567 H 0.30124 0.69524 0.74614 0.0
C1568 C 0.45444 0.01496 0.0205 0.0
C1569 C 0.46952 0.04296 0.0275 0.0
C1570 C 0.472 0.99323 0.00983 0.0
C1571 C 0.50581 0.99895 0.00663 0.0
C1572 C 0.52127 0.02695 0.01393 0.0
C1573 C 0.50277 0.04897 0.02401 0.0
C1574 C 0.45427 0.96437 1.00182 0.0
C1575 C 0.55748 0.03338 0.01134 0.0
C1576 C 0.55682 0.92505 0.99244 0.0
C1577 C 0.56129 0.93151 0.97488 0.0
C1578 C 0.53938 0.94711 0.003 0.0
C1579 C 0.52498 0.97563 0.99566 0.0
C1580 C 0.52886 0.98183 0.97782 0.0
C1581 C 0.54752 0.96002 0.96772 0.0
C1582 C 0.53679 0.94014 0.02205 0.0
C1583 C 0.51296 0.01127 0.96936 0.0
H1584 H 0.42865 0.01044 0.02309 0.0
H1585 H 0.51452 0.07047 0.02954 0.0
H1586 H 0.45714 0.96498 0.98761 0.0
H1587 H 0.46522 0.94097 0.00642 0.0
H1588 H 0.42762 0.96427 0.00493 0.0
H1589 H 0.56606 0.05551 0.01845 0.0
H1590 H 0.57197 0.01179 0.01573 0.0
H1591 H 0.56276 0.03686 0.99746 0.0
H1592 H 0.56772 0.90315 0.99802 0.0
H1593 H 0.55074 0.96489 0.9541 0.0
H1594 H 0.51065 0.93698 0.02572 0.0
H1595 H 0.54649 0.96134 0.0295 0.0
H1596 H 0.55054 0.91766 0.02586 0.0
H1597 H 0.48609 0.01105 0.9718 0.0
H1598 H 0.51712 0.01177 0.95522 0.0
H1599 H 0.52285 0.03431 0.975 0.0
C1600 C 0.23472 0.69144 0.30656 0.0
C1601 C 0.24778 0.66133 0.30113 0.0
C1602 C 0.21466 0.71015 0.29553 0.0
C1603 C 0.20805 0.69851 0.27866 0.0
C1604 C 0.21923 0.66688 0.27368 0.0
C1605 C 0.23915 0.64873 0.28498 0.0
C1606 C 0.2031 0.74363 0.30139 0.0
C1607 C 0.21279 0.65349 0.25585 0.0
C1608 C 0.14725 0.74342 0.24959 0.0
C1609 C 0.16835 0.76315 0.23969 0.0
C1610 C 0.15966 0.72239 0.26244 0.0
C1611 C 0.19396 0.72113 0.26547 0.0
C1612 C 0.21532 0.74114 0.2556 0.0
C1613 C 0.20228 0.76182 0.24284 0.0
C1614 C 0.13617 0.70139 0.27268 0.0
C1615 C 0.25208 0.74059 0.25842 0.0
H1616 H 0.24215 0.70144 0.31893 0.0
H1617 H 0.25 0.62575 0.2807 0.0
H1618 H 0.21793 0.76292 0.29493 0.0
H1619 H 0.17703 0.74765 0.29774 0.0
H1620 H 0.20565 0.74679 0.31554 0.0
H1621 H 0.21893 0.62691 0.25486 0.0
H1622 H 0.18666 0.65701 0.25218 0.0
H1623 H 0.22799 0.66713 0.24638 0.0
H1624 H 0.12098 0.74428 0.24727 0.0
H1625 H 0.2188 0.77701 0.23533 0.0
H1626 H 0.1391 0.70649 0.28663 0.0
H1627 H 0.14194 0.67497 0.27067 0.0
H1628 H 0.11012 0.70575 0.26902 0.0
H1629 H 0.25784 0.74706 0.27198 0.0
H1630 H 0.26524 0.758 0.24983 0.0
H1631 H 0.26174 0.71544 0.25609 0.0
C1632 C 0.5131 0.89079 0.4955 0.0
C1633 C 0.48486 0.90821 0.49049 0.0
C1634 C 0.53674 0.90524 0.50637 0.0
C1635 C 0.53168 0.93762 0.51257 0.0
C1636 C 0.50235 0.95458 0.50827 0.0
C1637 C 0.47948 0.93981 0.49716 0.0
C1638 C 0.56784 0.88654 0.51046 0.0
C1639 C 0.49569 0.98894 0.51484 0.0
C1640 C 0.58034 0.97747 0.5489 0.0
C1641 C 0.59981 0.99955 0.53958 0.0
C1642 C 0.55926 0.95542 0.54028 0.0
C1643 C 0.5582 0.95539 0.52202 0.0
C1644 C 0.58001 0.9758 0.51267 0.0
C1645 C 0.60022 0.99792 0.52158 0.0
C1646 C 0.53624 0.93425 0.5507 0.0
C1647 C 0.58021 0.97616 0.49322 0.0
H1648 H 0.51742 0.86636 0.49035 0.0
H1649 H 0.45752 0.95324 0.4935 0.0
H1650 H 0.58889 0.89828 0.50379 0.0
H1651 H 0.5731 0.88741 0.52448 0.0
H1652 H 0.56641 0.86039 0.50634 0.0
H1653 H 0.47038 0.99739 0.51174 0.0
H1654 H 0.49917 0.99001 0.529 0.0
H1655 H 0.5134 0.0064 0.50898 0.0
H1656 H 0.5797 0.97917 0.56283 0.0
H1657 H 0.61527 0.01519 0.51443 0.0
H1658 H 0.53526 0.90887 0.54546 0.0
H1659 H 0.51103 0.9446 0.54994 0.0
H1660 H 0.54362 0.93313 0.56447 0.0
H1661 H 0.58095 0.95071 0.48807 0.0
H1662 H 0.6015 0.99006 0.488 0.0
H1663 H 0.5573 0.98785 0.48843 0.0
C1664 C 0.238 0.26718 0.78432 0.0
C1665 C 0.20759 0.28016 0.77926 0.0
C1666 C 0.25736 0.24916 0.77273 0.0
C1667 C 0.24654 0.24516 0.75552 0.0
C1668 C 0.21581 0.25832 0.75035 0.0
C1669 C 0.19639 0.2752 0.7624 0.0
C1670 C 0.28943 0.23453 0.77888 0.0
C1671 C 0.2039 0.25541 0.73198 0.0
C1672 C 0.31238 0.22819 0.72202 0.0
C1673 C 0.3074 0.1947 0.71868 0.0
C1674 C 0.29236 0.24508 0.73379 0.0
C1675 C 0.26764 0.22769 0.74285 0.0
C1676 C 0.2631 0.19364 0.73979 0.0
C1677 C 0.28267 0.17767 0.72749 0.0
C1678 C 0.2973 0.2816 0.73634 0.0
C1679 C 0.23779 0.17402 0.74961 0.0
H1680 H 0.24651 0.27091 0.79742 0.0
H1681 H 0.17301 0.28561 0.75847 0.0
H1682 H 0.29012 0.20779 0.77598 0.0
H1683 H 0.31027 0.24609 0.77197 0.0
H1684 H 0.29321 0.23802 0.79294 0.0
H1685 H 0.17962 0.26736 0.73001 0.0
H1686 H 0.22198 0.26696 0.72316 0.0
H1687 H 0.20187 0.22913 0.72826 0.0
H1688 H 0.33135 0.24137 0.71507 0.0
H1689 H 0.27906 0.15166 0.72498 0.0
H1690 H 0.30409 0.28676 0.74991 0.0
H1691 H 0.274 0.29488 0.73367 0.0
H1692 H 0.3168 0.29166 0.72784 0.0
H1693 H 0.24209 0.1766 0.76367 0.0
H1694 H 0.23836 0.14745 0.74623 0.0
H1695 H 0.21282 0.18369 0.7469 0.0
C1696 C 0.02028 0.12019 0.00796 0.0
C1697 C 0.02846 0.10465 0.9924 0.0
C1698 C 0.99996 0.10455 0.02012 0.0
C1699 C 0.98704 0.07294 0.01645 0.0
C1700 C 0.99398 0.05791 1.00038 0.0
C1701 C 0.01486 0.07377 0.98866 0.0
C1702 C 0.9936 0.12115 0.03718 0.0
C1703 C 0.98024 0.02449 0.99579 0.0
C1704 C 0.96855 0.00891 0.05043 0.0
C1705 C 0.93415 0.00917 0.05074 0.0
C1706 C 0.98612 0.03137 0.04031 0.0
C1707 C 0.96879 0.05401 0.02982 0.0
C1708 C 0.934 0.05554 0.03081 0.0
C1709 C 0.91703 0.0332 0.04143 0.0
C1710 C 0.02319 0.02932 0.03999 0.0
C1711 C 0.91458 0.07894 0.01966 0.0
H1712 H 0.03081 0.14403 0.01095 0.0
H1713 H 0.02079 0.06179 0.97658 0.0
H1714 H 0.96692 0.12121 0.04011 0.0
H1715 H 0.00604 0.10717 0.04759 0.0
H1716 H 0.00274 0.14691 0.03742 0.0
H1717 H 0.98535 0.01765 0.9822 0.0
H1718 H 0.99123 0.0055 0.00429 0.0
H1719 H 0.95326 0.02404 0.99786 0.0
H1720 H 0.98171 0.99017 0.05762 0.0
H1721 H 0.89037 0.03298 0.04148 0.0
H1722 H 0.03417 0.05421 0.04118 0.0
H1723 H 0.03131 0.01885 0.0275 0.0
H1724 H 0.03298 0.01357 0.05051 0.0
H1725 H 0.92539 0.10398 0.02007 0.0
H1726 H 0.8884 0.08041 0.02365 0.0
H1727 H 0.91553 0.07042 0.00608 0.0
C1728 C 0.81633 0.79297 0.74421 0.0
C1729 C 0.81095 0.7997 0.72675 0.0
C1730 C 0.79358 0.77432 0.75368 0.0
C1731 C 0.7655 0.7612 0.7453 0.0
C1732 C 0.7606 0.76715 0.72751 0.0
C1733 C 0.78308 0.78685 0.71853 0.0
C1734 C 0.79917 0.7693 0.77273 0.0
C1735 C 0.73163 0.75266 0.71797 0.0
C1736 C 0.7233 0.68856 0.76662 0.0
C1737 C 0.69513 0.70334 0.77354 0.0
C1738 C 0.74612 0.70699 0.75715 0.0
C1739 C 0.74121 0.74126 0.75509 0.0
C1740 C 0.71294 0.75639 0.76225 0.0
C1741 C 0.68988 0.73708 0.77114 0.0
C1742 C 0.7753 0.68974 0.74921 0.0
C1743 C 0.70733 0.79301 0.76075 0.0
H1744 H 0.83773 0.80325 0.75058 0.0
H1745 H 0.77907 0.79193 0.70498 0.0
H1746 H 0.77783 0.77893 0.78006 0.0
H1747 H 0.80118 0.74266 0.77564 0.0
H1748 H 0.82179 0.7818 0.77738 0.0
H1749 H 0.73235 0.75821 0.70396 0.0
H1750 H 0.73115 0.72555 0.71968 0.0
H1751 H 0.70836 0.7625 0.72332 0.0
H1752 H 0.7272 0.66237 0.76839 0.0
H1753 H 0.66823 0.74853 0.77665 0.0
H1754 H 0.79846 0.69977 0.75464 0.0
H1755 H 0.7758 0.69429 0.73512 0.0
H1756 H 0.77483 0.66274 0.75146 0.0
H1757 H 0.72873 0.80651 0.76611 0.0
H1758 H 0.6848 0.80112 0.76761 0.0
H1759 H 0.70509 0.80007 0.747 0.0
C1760 C 0.63699 0.23822 0.25623 0.0
C1761 C 0.65134 0.23029 0.24034 0.0
C1762 C 0.65288 0.25957 0.26783 0.0
C1763 C 0.68339 0.27384 0.26323 0.0
C1764 C 0.69706 0.26715 0.24682 0.0
C1765 C 0.68109 0.24514 0.23569 0.0
C1766 C 0.63786 0.26554 0.28531 0.0
C1767 C 0.72919 0.28238 0.24122 0.0
C1768 C 0.72183 0.34649 0.28675 0.0
C1769 C 0.74765 0.33086 0.29544 0.0
C1770 C 0.69943 0.3281 0.27681 0.0
C1771 C 0.70272 0.29338 0.27594 0.0
C1772 C 0.72733 0.2775 0.28583 0.0
C1773 C 0.74983 0.2965 0.29523 0.0
C1774 C 0.67395 0.346 0.26623 0.0
C1775 C 0.73127 0.24053 0.28563 0.0
H1776 H 0.61405 0.22664 0.2599 0.0
H1777 H 0.69207 0.23934 0.22333 0.0
H1778 H 0.65351 0.25401 0.29536 0.0
H1779 H 0.63683 0.29228 0.28815 0.0
H1780 H 0.61267 0.25518 0.28632 0.0
H1781 H 0.73475 0.27732 0.22747 0.0
H1782 H 0.72858 0.30942 0.2432 0.0
H1783 H 0.74956 0.27245 0.24919 0.0
H1784 H 0.72057 0.37315 0.28674 0.0
H1785 H 0.76995 0.28454 0.30194 0.0
H1786 H 0.64958 0.334 0.26746 0.0
H1787 H 0.68098 0.34497 0.25244 0.0
H1788 H 0.67164 0.37225 0.27007 0.0
H1789 H 0.70717 0.22831 0.28755 0.0
H1790 H 0.74856 0.23184 0.29575 0.0
H1791 H 0.74084 0.23261 0.27291 0.0
C1792 C 0.81909 0.21959 0.75861 0.0
C1793 C 0.81424 0.22015 0.77644 0.0
C1794 C 0.79604 0.23422 0.74748 0.0
C1795 C 0.76821 0.25045 0.75448 0.0
C1796 C 0.7642 0.25231 0.77255 0.0
C1797 C 0.78702 0.23668 0.78329 0.0
C1798 C 0.80073 0.23122 0.72827 0.0
C1799 C 0.73548 0.27025 0.78054 0.0
C1800 C 0.72212 0.31157 0.72659 0.0
C1801 C 0.69397 0.29361 0.72206 0.0
C1802 C 0.74642 0.29788 0.73719 0.0
C1803 C 0.74289 0.26509 0.743 0.0
C1804 C 0.71459 0.24672 0.73837 0.0
C1805 C 0.69016 0.26142 0.72813 0.0
C1806 C 0.77567 0.3186 0.74231 0.0
C1807 C 0.71031 0.21147 0.74408 0.0
H1808 H 0.83997 0.20637 0.75338 0.0
H1809 H 0.78343 0.2371 0.79713 0.0
H1810 H 0.77982 0.21742 0.72258 0.0
H1811 H 0.80093 0.25595 0.72224 0.0
H1812 H 0.82395 0.21834 0.7249 0.0
H1813 H 0.73727 0.27135 0.79481 0.0
H1814 H 0.73405 0.29575 0.77548 0.0
H1815 H 0.71219 0.25772 0.77704 0.0
H1816 H 0.72496 0.33659 0.72197 0.0
H1817 H 0.66855 0.24744 0.72446 0.0
H1818 H 0.79873 0.30675 0.7379 0.0
H1819 H 0.77706 0.3205 0.75656 0.0
H1820 H 0.77448 0.34384 0.73685 0.0
H1821 H 0.73185 0.19661 0.74002 0.0
H1822 H 0.68769 0.20011 0.73869 0.0
H1823 H 0.70907 0.21028 0.75834 0.0
C1824 C 0.69547 0.79182 0.26769 0.0
C1825 C 0.70102 0.7961 0.28535 0.0
C1826 C 0.71826 0.77485 0.25742 0.0
C1827 C 0.74663 0.76088 0.26514 0.0
C1828 C 0.75168 0.76418 0.2831 0.0
C1829 C 0.72909 0.78229 0.29294 0.0
C1830 C 0.71243 0.7726 0.23824 0.0
C1831 C 0.78094 0.74866 0.29191 0.0
C1832 C 0.78776 0.69367 0.23894 0.0
C1833 C 0.81455 0.71049 0.23184 0.0
C1834 C 0.7663 0.70937 0.25044 0.0
C1835 C 0.77107 0.74306 0.25437 0.0
C1836 C 0.79848 0.76001 0.24742 0.0
C1837 C 0.82026 0.7433 0.23644 0.0
C1838 C 0.73811 0.69011 0.25805 0.0
C1839 C 0.8039 0.79615 0.25094 0.0
H1840 H 0.67393 0.80284 0.26181 0.0
H1841 H 0.73326 0.78548 0.30664 0.0
H1842 H 0.73354 0.78351 0.23124 0.0
H1843 H 0.71064 0.74645 0.23425 0.0
H1844 H 0.68961 0.78549 0.2342 0.0
H1845 H 0.78026 0.75192 0.30611 0.0
H1846 H 0.78184 0.72193 0.28898 0.0
H1847 H 0.80401 0.75968 0.28697 0.0
H1848 H 0.78346 0.66821 0.23537 0.0
H1849 H 0.84076 0.75637 0.23073 0.0
H1850 H 0.71447 0.69959 0.25293 0.0
H1851 H 0.73758 0.69324 0.27224 0.0
H1852 H 0.73977 0.66342 0.25504 0.0
H1853 H 0.78272 0.81052 0.24596 0.0
H1854 H 0.82673 0.80554 0.24484 0.0
H1855 H 0.80535 0.80069 0.265 0.0
C1856 C 0.573 0.47334 0.01919 0.0
C1857 C 0.55742 0.44603 0.02657 0.0
C1858 C 0.55581 0.49474 0.00817 0.0
C1859 C 0.52189 0.48945 0.00503 0.0
C1860 C 0.50601 0.46199 0.0126 0.0
C1861 C 0.52415 0.44025 0.02302 0.0
C1862 C 0.57394 0.52299 0.99987 0.0
C1863 C 0.46969 0.45604 0.01006 0.0
C1864 C 0.47098 0.56346 0.991 0.0
C1865 C 0.46555 0.55659 0.97355 0.0
C1866 C 0.48895 0.54163 1.00144 0.0
C1867 C 0.50287 0.5129 0.99408 0.0
C1868 C 0.49823 0.50641 0.97631 0.0
C1869 C 0.47905 0.528 0.96634 0.0
C1870 C 0.49237 0.54892 0.02043 0.0
C1871 C 0.5136 0.47673 0.96782 0.0
H1872 H 0.59881 0.47769 0.02186 0.0
H1873 H 0.51201 0.41932 0.02888 0.0
H1874 H 0.57047 0.52226 0.9857 0.0
H1875 H 0.5638 0.54673 0.0045 0.0
H1876 H 0.60071 0.52243 0.00273 0.0
H1877 H 0.46091 0.43401 0.01716 0.0
H1878 H 0.45556 0.4778 0.01452 0.0
H1879 H 0.46415 0.45268 0.99618 0.0
H1880 H 0.46024 0.5854 0.99662 0.0
H1881 H 0.47501 0.5228 0.9528 0.0
H1882 H 0.51869 0.55148 0.02391 0.0
H1883 H 0.48236 0.52812 0.02805 0.0
H1884 H 0.47931 0.57182 0.02423 0.0
H1885 H 0.5405 0.47648 0.97025 0.0
H1886 H 0.50932 0.4763 0.95369 0.0
H1887 H 0.50336 0.45385 0.97344 0.0
C1888 C 0.04229 0.46007 0.48817 0.0
C1889 C 0.02412 0.43571 0.47965 0.0
C1890 C 0.02713 0.48196 0.49965 0.0
C1891 C 0.99272 0.48021 0.50216 0.0
C1892 C 0.97429 0.45531 0.49372 0.0
C1893 C 0.99036 0.43292 0.48275 0.0
C1894 C 0.04788 0.50736 0.50882 0.0
C1895 C 0.93744 0.45319 0.49572 0.0
C1896 C 0.95429 0.52277 0.54086 0.0
C1897 C 0.94497 0.55316 0.53384 0.0
C1898 C 0.97027 0.49895 0.53078 0.0
C1899 C 0.97599 0.50526 0.5131 0.0
C1900 C 0.96631 0.53585 0.50592 0.0
C1901 C 0.95141 0.55967 0.51647 0.0
C1902 C 0.98125 0.46717 0.53906 0.0
C1903 C 0.97124 0.54322 0.48705 0.0
H1904 H 0.06848 0.46206 0.48579 0.0
H1905 H 0.97632 0.41429 0.47597 0.0
H1906 H 0.04127 0.53234 0.50422 0.0
H1907 H 0.04304 0.50664 0.52287 0.0
H1908 H 0.07459 0.5035 0.50665 0.0
H1909 H 0.92681 0.43201 0.48857 0.0
H1910 H 0.93083 0.45086 0.50951 0.0
H1911 H 0.92594 0.47619 0.49089 0.0
H1912 H 0.94942 0.51778 0.55433 0.0
H1913 H 0.94382 0.583 0.51098 0.0
H1914 H 0.0081 0.46383 0.53722 0.0
H1915 H 0.96886 0.446 0.53279 0.0
H1916 H 0.97582 0.46649 0.55307 0.0
H1917 H 0.99783 0.54294 0.48392 0.0
H1918 H 0.96098 0.56754 0.48331 0.0
H1919 H 0.95931 0.52389 0.4791 0.0
C1920 C 0.00284 0.62267 0.00296 0.0
C1921 C 0.02981 0.60493 0.00938 0.0
C1922 C 0.98059 0.60808 0.99131 0.0
C1923 C 0.98587 0.57527 0.98575 0.0
C1924 C 0.01394 0.55791 0.99161 0.0
C1925 C 0.03531 0.57281 0.00345 0.0
C1926 C 0.95075 0.62722 0.98555 0.0
C1927 C 0.0209 0.52308 0.98581 0.0
C1928 C 0.91887 0.51519 0.97354 0.0
C1929 C 0.92298 0.51284 0.95569 0.0
C1930 C 0.93721 0.53768 0.9833 0.0
C1931 C 0.96096 0.55766 0.97505 0.0
C1932 C 0.96371 0.5568 0.95684 0.0
C1933 C 0.94442 0.53445 0.94732 0.0
C1934 C 0.93295 0.53813 0.00262 0.0
C1935 C 0.98892 0.57739 0.94756 0.0
H1936 H 0.99845 0.6475 0.00753 0.0
H1937 H 0.05635 0.55911 0.00818 0.0
H1938 H 0.94816 0.62615 0.97134 0.0
H1939 H 0.92833 0.61595 0.99115 0.0
H1940 H 0.95187 0.65342 0.98962 0.0
H1941 H 0.0452 0.5141 0.99036 0.0
H1942 H 0.00163 0.50635 0.99085 0.0
H1943 H 0.02022 0.5215 0.97155 0.0
H1944 H 0.90232 0.49827 0.97998 0.0
H1945 H 0.9479 0.53219 0.93352 0.0
H1946 H 0.93173 0.5638 0.00745 0.0
H1947 H 0.95446 0.52615 0.0088 0.0
H1948 H 0.91039 0.52489 0.00672 0.0
H1949 H 0.98902 0.60298 0.95254 0.0
H1950 H 0.98444 0.57798 0.93344 0.0
H1951 H 0.01375 0.56693 0.94987 0.0
C1952 C 0.49596 0.56556 0.48816 0.0
C1953 C 0.52981 0.56173 0.48574 0.0
C1954 C 0.47781 0.54165 0.49712 0.0
C1955 C 0.49423 0.51398 0.50421 0.0
C1956 C 0.52873 0.51106 0.50253 0.0
C1957 C 0.54602 0.53471 0.49306 0.0
C1958 C 0.44094 0.54521 0.49833 0.0
C1959 C 0.5473 0.48254 0.51036 0.0
C1960 C 0.44973 0.46463 0.53847 0.0
C1961 C 0.43942 0.43697 0.52911 0.0
C1962 C 0.46805 0.48966 0.5306 0.0
C1963 C 0.47528 0.48742 0.51282 0.0
C1964 C 0.46482 0.45954 0.50329 0.0
C1965 C 0.44742 0.43434 0.51164 0.0
C1966 C 0.47974 0.51842 0.54131 0.0
C1967 C 0.47148 0.45663 0.48423 0.0
H1968 H 0.48346 0.58629 0.48228 0.0
H1969 H 0.5723 0.5319 0.49119 0.0
H1970 H 0.42892 0.52433 0.49158 0.0
H1971 H 0.433 0.54429 0.51197 0.0
H1972 H 0.43205 0.56858 0.49254 0.0
H1973 H 0.57435 0.4855 0.5092 0.0
H1974 H 0.54097 0.47998 0.52419 0.0
H1975 H 0.54009 0.45931 0.50387 0.0
H1976 H 0.44366 0.46655 0.55202 0.0
H1977 H 0.4391 0.41311 0.50437 0.0
H1978 H 0.46897 0.54163 0.53633 0.0
H1979 H 0.50686 0.52073 0.54034 0.0
H1980 H 0.47301 0.51585 0.5551 0.0
H1981 H 0.46119 0.47829 0.47738 0.0
H1982 H 0.46066 0.43394 0.47858 0.0
H1983 H 0.49835 0.45642 0.48185 0.0
C1984 C 0.15862 0.05705 0.26318 0.0
C1985 C 0.17348 0.05822 0.27951 0.0
C1986 C 0.16004 0.02859 0.25298 0.0
C1987 C 0.17668 1.0004 0.25921 0.0
C1988 C 0.19258 0.00165 0.27545 0.0
C1989 C 0.19084 0.03058 0.28541 0.0
C1990 C 0.14289 0.02841 0.2357 0.0
C1991 C 0.21058 0.9721 0.28253 0.0
C1992 C 0.14767 0.91884 0.24059 0.0
C1993 C 0.17139 0.9126 0.22789 0.0
C1994 C 0.14964 0.94683 0.25116 0.0
C1995 C 0.17593 0.96928 0.249 0.0
C1996 C 0.2003 0.96287 0.23643 0.0
C1997 C 0.19776 0.93461 0.22604 0.0
C1998 C 0.12314 0.95274 0.26441 0.0
C1999 C 0.22865 0.98624 0.2337 0.0
H2000 H 0.1453 0.0783 0.25843 0.0
H2001 H 0.20236 0.03121 0.298 0.0
H2002 H 0.1603 0.02094 0.22543 0.0
H2003 H 0.12265 0.01012 0.23582 0.0
H2004 H 0.13245 0.05285 0.23234 0.0
H2005 H 0.22334 0.97763 0.29486 0.0
H2006 H 0.19293 0.95173 0.28474 0.0
H2007 H 0.22897 0.96319 0.27307 0.0
H2008 H 0.12728 0.90196 0.2422 0.0
H2009 H 0.21627 0.93001 0.2163 0.0
H2010 H 0.10957 0.97566 0.26126 0.0
H2011 H 0.1343 0.95616 0.27733 0.0
H2012 H 0.10525 0.93212 0.26507 0.0
H2013 H 0.21923 0.0104 0.22923 0.0
H2014 H 0.24651 0.97685 0.22407 0.0
H2015 H 0.24178 0.99056 0.24604 0.0
C2016 C 0.22151 0.9265 0.53991 0.0
C2017 C 0.19366 0.90797 0.53545 0.0
C2018 C 0.2496 0.92658 0.52937 0.0
C2019 C 0.24973 0.90788 0.51396 0.0
C2020 C 0.22157 0.88945 0.50931 0.0
C2021 C 0.19397 0.88965 0.52012 0.0
C2022 C 0.27923 0.94643 0.53479 0.0
C2023 C 0.22063 0.86937 0.49294 0.0
C2024 C 0.31024 0.92886 0.47834 0.0
C2025 C 0.33423 0.90432 0.48044 0.0
C2026 C 0.28283 0.93055 0.48928 0.0
C2027 C 0.27936 0.90726 0.50271 0.0
C2028 C 0.30365 0.88267 0.50502 0.0
C2029 C 0.33072 0.88143 0.49383 0.0
C2030 C 0.25734 0.957 0.48633 0.0
C2031 C 0.30089 0.85747 0.51923 0.0
H2032 H 0.22153 0.94066 0.55174 0.0
H2033 H 0.17255 0.87534 0.5165 0.0
H2034 H 0.30079 0.92995 0.53637 0.0
H2035 H 0.28553 0.96454 0.52463 0.0
H2036 H 0.27513 0.95984 0.54707 0.0
H2037 H 0.19663 0.85685 0.49102 0.0
H2038 H 0.22538 0.88544 0.48167 0.0
H2039 H 0.24029 0.85044 0.49321 0.0
H2040 H 0.31271 0.94666 0.46804 0.0
H2041 H 0.34918 0.86248 0.49561 0.0
H2042 H 0.25416 0.9719 0.49818 0.0
H2043 H 0.23323 0.94553 0.48337 0.0
H2044 H 0.26403 0.9737 0.47557 0.0
H2045 H 0.29866 0.86999 0.53188 0.0
H2046 H 0.32241 0.84064 0.51967 0.0
H2047 H 0.27833 0.84253 0.51738 0.0
C2048 C 0.32186 0.02768 0.71033 0.0
C2049 C 0.34343 0.0546 0.71103 0.0
C2050 C 0.32203 0.00349 0.72327 0.0
C2051 C 0.34432 0.00625 0.73724 0.0
C2052 C 0.36623 0.03326 0.73797 0.0
C2053 C 0.36553 0.05706 0.72489 0.0
C2054 C 0.29836 0.97498 0.72202 0.0
C2055 C 0.39046 0.03703 0.7526 0.0
C2056 C 0.32805 0.95876 0.77867 0.0
C2057 C 0.3491 0.93163 0.77677 0.0
C2058 C 0.32604 0.98316 0.76586 0.0
C2059 C 0.34553 0.98036 0.75081 0.0
C2060 C 0.36676 0.95305 0.74883 0.0
C2061 C 0.36828 0.92908 0.7618 0.0
C2062 C 0.30314 0.01199 0.76843 0.0
C2063 C 0.38799 0.94915 0.73301 0.0
H2064 H 0.3046 0.02562 0.69974 0.0
H2065 H 0.38224 0.07779 0.7256 0.0
H2066 H 0.31218 0.95145 0.72146 0.0
H2067 H 0.28264 0.97409 0.73367 0.0
H2068 H 0.28227 0.97664 0.71048 0.0
H2069 H 0.40552 0.05972 0.75142 0.0
H2070 H 0.37722 0.03777 0.76507 0.0
H2071 H 0.40721 0.01549 0.75299 0.0
H2072 H 0.31309 0.96092 0.79015 0.0
H2073 H 0.38461 0.90824 0.76015 0.0
H2074 H 0.28526 0.01328 0.75764 0.0
H2075 H 0.31734 0.0353 0.76835 0.0
H2076 H 0.28934 0.01037 0.78073 0.0
H2077 H 0.3724 0.94875 0.72128 0.0
H2078 H 0.40291 0.92625 0.73335 0.0
H2079 H 0.40487 0.97048 0.73184 0.0
C2080 C 0.32238 0.09573 0.01989 0.0
C2081 C 0.32268 0.07694 0.03504 0.0
C2082 C 0.29415 0.09767 0.00953 0.0
C2083 C 0.26541 0.08047 0.01444 0.0
C2084 C 0.26574 0.0608 0.02949 0.0
C2085 C 0.29439 0.05922 0.0396 0.0
C2086 C 0.29487 0.1188 0.99353 0.0
C2087 C 0.23555 0.04214 0.03515 0.0
C2088 C 0.18498 0.11561 0.99768 0.0
C2089 C 0.17835 0.0951 0.98355 0.0
C2090 C 0.21279 0.11059 0.00807 0.0
C2091 C 0.23463 0.08447 0.00423 0.0
C2092 C 0.22776 0.06322 0.99022 0.0
C2093 C 0.19967 0.06876 0.98005 0.0
C2094 C 0.21917 0.13373 0.02294 0.0
C2095 C 0.2505 0.03514 0.98572 0.0
H2096 H 0.34413 0.1094 0.01619 0.0
H2097 H 0.29438 0.04462 0.05128 0.0
H2098 H 0.28724 0.10415 0.98215 0.0
H2099 H 0.27711 0.13937 0.99488 0.0
H2100 H 0.31962 0.12929 0.99104 0.0
H2101 H 0.24032 0.02656 0.04664 0.0
H2102 H 0.21556 0.05974 0.03828 0.0
H2103 H 0.22652 0.02621 0.02455 0.0
H2104 H 0.16862 0.13594 1.00054 0.0
H2105 H 0.19476 0.05276 0.96918 0.0
H2106 H 0.24244 0.14732 0.02074 0.0
H2107 H 0.22214 0.11958 0.03506 0.0
H2108 H 0.19902 0.15189 0.02469 0.0
H2109 H 0.27489 0.04497 0.98196 0.0
H2110 H 0.24084 0.01987 0.97497 0.0
H2111 H 0.25436 0.01912 0.99711 0.0
C2112 C 0.85606 0.0739 0.77382 0.0
C2113 C 0.83371 0.0766 0.78753 0.0
C2114 C 0.8539 0.04824 0.76182 0.0
C2115 C 0.8288 0.02439 0.76347 0.0
C2116 C 0.80603 0.02686 0.77723 0.0
C2117 C 0.80874 0.05297 0.78911 0.0
C2118 C 0.8788 0.04653 0.74741 0.0
C2119 C 0.77899 0.00181 0.77942 0.0
C2120 C 0.81334 0.97367 0.72296 0.0
C2121 C 0.83313 0.94599 0.72603 0.0
C2122 C 0.81049 0.99884 0.73535 0.0
C2123 C 0.82773 0.99618 0.75118 0.0
C2124 C 0.84675 0.96775 0.75456 0.0
C2125 C 0.84926 0.94312 0.74197 0.0
C2126 C 0.79 0.02881 0.73126 0.0
C2127 C 0.86554 0.96387 0.77123 0.0
H2128 H 0.87544 0.09199 0.77239 0.0
H2129 H 0.79128 0.05492 0.79959 0.0
H2130 H 0.89314 0.02337 0.74841 0.0
H2131 H 0.86608 0.04624 0.73477 0.0
H2132 H 0.89622 0.06758 0.74764 0.0
H2133 H 0.76266 0.00771 0.79046 0.0
H2134 H 0.76389 1.00045 0.76753 0.0
H2135 H 0.78981 0.97706 0.78151 0.0
H2136 H 0.80065 0.97603 0.71074 0.0
H2137 H 0.86435 0.9217 0.74459 0.0
H2138 H 0.80624 0.05059 0.72993 0.0
H2139 H 0.77267 0.03401 0.74194 0.0
H2140 H 0.77574 0.02583 0.71915 0.0
H2141 H 0.8853 0.98263 0.77194 0.0
H2142 H 0.87691 0.93911 0.77248 0.0
H2143 H 0.84903 0.96797 0.78239 0.0
C2144 C 0.71557 0.08494 0.51586 0.0
C2145 C 0.68757 0.10475 0.51369 0.0
C2146 C 0.74055 0.0841 0.50351 0.0
C2147 C 0.73767 0.10359 0.4885 0.0
C2148 C 0.70954 0.1237 0.48614 0.0
C2149 C 0.68473 0.12404 0.49878 0.0
C2150 C 0.77013 0.06232 0.50657 0.0
C2151 C 0.70572 0.14484 0.47029 0.0
C2152 C 0.81951 0.11955 0.46675 0.0
C2153 C 0.82023 0.09467 0.4542 0.0
C2154 C 0.79201 0.12389 0.47741 0.0
C2155 C 0.76455 0.10281 0.47552 0.0
C2156 C 0.76456 0.0785 0.46244 0.0
C2157 C 0.7924 0.07472 0.45193 0.0
C2158 C 0.79298 0.1501 0.4912 0.0
C2159 C 0.73577 0.05551 0.46004 0.0
H2160 H 0.7181 0.06987 0.5273 0.0
H2161 H 0.6632 0.13939 0.49699 0.0
H2162 H 0.77267 0.04437 0.49588 0.0
H2163 H 0.79284 0.07743 0.50681 0.0
H2164 H 0.76847 0.0485 0.51888 0.0
H2165 H 0.68232 0.15894 0.47032 0.0
H2166 H 0.7265 0.16244 0.46941 0.0
H2167 H 0.70648 0.12923 0.45857 0.0
H2168 H 0.84075 0.1353 0.46852 0.0
H2169 H 0.7926 0.05558 0.4422 0.0
H2170 H 0.79407 0.13829 0.50407 0.0
H2171 H 0.77029 0.16523 0.49078 0.0
H2172 H 0.81458 0.16661 0.48984 0.0
H2173 H 0.73393 0.03884 0.47131 0.0
H2174 H 0.73815 0.04025 0.44823 0.0
H2175 H 0.71247 0.06964 0.45931 0.0
C2176 C 0.64083 0.07547 0.25023 0.0
C2177 C 0.66214 0.08146 0.23639 0.0
C2178 C 0.64685 0.0498 0.26189 0.0
C2179 C 0.67491 0.02959 0.2597 0.0
C2180 C 0.69719 0.03625 0.24616 0.0
C2181 C 0.69052 0.06207 0.23464 0.0
C2182 C 0.6224 0.04345 0.27612 0.0
C2183 C 0.72741 0.0153 0.24345 0.0
C2184 C 0.69573 0.97235 0.29705 0.0
C2185 C 0.67948 0.94347 0.29198 0.0
C2186 C 0.69552 1.00043 0.28642 0.0
C2187 C 0.67873 0.99944 0.27041 0.0
C2188 C 0.66354 0.96991 0.26497 0.0
C2189 C 0.66413 0.94238 0.27579 0.0
C2190 C 0.71217 0.03146 0.29257 0.0
C2191 C 0.64547 0.96769 0.24798 0.0
H2192 H 0.61897 0.09043 0.25178 0.0
H2193 H 0.70727 0.06665 0.22407 0.0
H2194 H 0.60997 0.01952 0.27386 0.0
H2195 H 0.63519 0.04179 0.28872 0.0
H2196 H 0.60334 0.06299 0.27693 0.0
H2197 H 0.74407 0.02581 0.23355 0.0
H2198 H 0.74124 0.01257 0.25569 0.0
H2199 H 0.71995 0.99028 0.23925 0.0
H2200 H 0.70767 0.97336 0.30953 0.0
H2201 H 0.65182 0.92008 0.27164 0.0
H2202 H 0.69337 0.05059 0.29523 0.0
H2203 H 0.72864 0.04129 0.28243 0.0
H2204 H 0.72678 0.02736 0.30448 0.0
H2205 H 0.62404 0.98459 0.2481 0.0
H2206 H 0.63651 0.94239 0.24524 0.0
H2207 H 0.66174 0.9755 0.23729 0.0
C2208 C 0.71275 0.87756 0.97792 0.0
C2209 C 0.70986 0.89757 0.96327 0.0
C2210 C 0.74134 0.8778 0.98801 0.0
C2211 C 0.76783 0.8985 0.98334 0.0
C2212 C 0.76556 0.918 0.96828 0.0
C2213 C 0.73654 0.91739 0.95843 0.0
C2214 C 0.74265 0.8568 0.00405 0.0
C2215 C 0.79339 0.94027 0.96287 0.0
C2216 C 0.81912 0.92712 0.0211 0.0
C2217 C 0.84587 0.90526 0.0207 0.0
C2218 C 0.79429 0.92587 0.00865 0.0
C2219 C 0.79615 0.90225 0.99532 0.0
C2220 C 0.82368 0.88093 0.99435 0.0
C2221 C 0.84829 0.88264 0.0071 0.0
C2222 C 0.76534 0.94903 0.0102 0.0
C2223 C 0.82656 0.85561 0.98021 0.0
H2224 H 0.6924 0.86198 0.98172 0.0
H2225 H 0.73465 0.9327 0.94705 0.0
H2226 H 0.76525 0.84152 0.0041 0.0
H2227 H 0.7436 0.87286 0.0156 0.0
H2228 H 0.72099 0.8403 0.00519 0.0
H2229 H 0.78919 0.95121 0.94995 0.0
H2230 H 0.79614 0.96054 0.97235 0.0
H2231 H 0.81691 0.92645 0.9627 0.0
H2232 H 0.81711 0.94497 0.03143 0.0
H2233 H 0.86892 0.86578 0.00665 0.0
H2234 H 0.74262 0.93472 0.0127 0.0
H2235 H 0.76162 0.96263 0.99797 0.0
H2236 H 0.76855 0.96719 0.02078 0.0
H2237 H 0.80718 0.83666 0.98182 0.0
H2238 H 0.8509 0.8432 0.98025 0.0
H2239 H 0.82265 0.86728 0.96745 0.0
C2240 C 0.63613 0.4319 0.72519 0.0
C2241 C 0.65706 0.43069 0.71085 0.0
C2242 C 0.63824 0.45749 0.73723 0.0
C2243 C 0.6619 0.4826 0.73494 0.0
C2244 C 0.68302 0.48175 0.72046 0.0
C2245 C 0.68032 0.45579 0.70854 0.0
C2246 C 0.61512 0.45761 0.75245 0.0
C2247 C 0.70853 0.50815 0.71761 0.0
C2248 C 0.64361 0.56267 0.75812 0.0
C2249 C 0.6627 0.55962 0.77312 0.0
C2250 C 0.64393 0.53826 0.74536 0.0
C2251 C 0.66383 0.51003 0.7476 0.0
C2252 C 0.68378 0.50709 0.7625 0.0
C2253 C 0.68297 0.53194 0.7751 0.0
C2254 C 0.62225 0.54227 0.72968 0.0
C2255 C 0.70534 0.47732 0.76532 0.0
H2256 H 0.61805 0.41266 0.7271 0.0
H2257 H 0.69668 0.45497 0.69755 0.0
H2258 H 0.62939 0.45735 0.76464 0.0
H2259 H 0.60017 0.48045 0.7524 0.0
H2260 H 0.59822 0.43613 0.7524 0.0
H2261 H 0.72317 0.50385 0.70576 0.0
H2262 H 0.69644 0.53256 0.71662 0.0
H2263 H 0.72551 0.50921 0.72879 0.0
H2264 H 0.62798 0.58403 0.7564 0.0
H2265 H 0.69791 0.52944 0.7866 0.0
H2266 H 0.60326 0.52268 0.72952 0.0
H2267 H 0.63699 0.53955 0.71776 0.0
H2268 H 0.6097 0.56656 0.72939 0.0
H2269 H 0.68979 0.45505 0.7667 0.0
H2270 H 0.72095 0.47973 0.77701 0.0
H2271 H 0.72148 0.47335 0.75401 0.0
C2272 C 0.81002 0.42696 0.97979 0.0
C2273 C 0.83798 0.40693 0.98144 0.0
C2274 C 0.78496 0.42641 0.99209 0.0
C2275 C 0.78783 0.40533 0.00649 0.0
C2276 C 0.81616 0.38538 0.00846 0.0
C2277 C 0.84098 0.38639 0.99587 0.0
C2278 C 0.75512 0.44805 0.98949 0.0
C2279 C 0.81998 0.36269 0.02371 0.0
C2280 C 0.73047 0.42758 0.04315 0.0
C2281 C 0.70359 0.40691 0.0398 0.0
C2282 C 0.75888 0.4262 0.03293 0.0
C2283 C 0.76035 0.40367 0.01904 0.0
C2284 C 0.7338 0.38193 0.01599 0.0
C2285 C 0.70575 0.38382 0.0264 0.0
C2286 C 0.78674 0.44975 0.03656 0.0
C2287 C 0.73441 0.35762 1.00127 0.0
H2288 H 0.80744 0.44305 0.96875 0.0
H2289 H 0.86253 0.37091 0.99725 0.0
H2290 H 0.73276 0.43257 0.9883 0.0
H2291 H 0.75164 0.46433 1.00081 0.0
H2292 H 0.75711 0.46364 0.97779 0.0
H2293 H 0.84411 0.34986 0.02376 0.0
H2294 H 0.81747 0.37679 0.03588 0.0
H2295 H 0.80017 0.34393 0.02356 0.0
H2296 H 0.72912 0.44531 0.05356 0.0
H2297 H 0.68523 0.36753 0.0238 0.0
H2298 H 0.78857 0.46793 0.02595 0.0
H2299 H 0.81047 0.43631 0.03712 0.0
H2300 H 0.78326 0.46331 0.04885 0.0
H2301 H 0.7339 0.3711 0.98885 0.0
H2302 H 0.71316 0.34047 1.0016 0.0
H2303 H 0.75743 0.34299 1.00158 0.0
C2304 C 0.8617 0.42819 0.24966 0.0
C2305 C 0.84219 0.42979 0.26452 0.0
C2306 C 0.86056 0.45341 0.23723 0.0
C2307 C 0.8396 0.48086 0.23982 0.0
C2308 C 0.81907 0.48195 0.25449 0.0
C2309 C 0.82055 0.45645 0.26658 0.0
C2310 C 0.88259 0.45128 0.22166 0.0
C2311 C 0.79652 0.51082 0.25785 0.0
C2312 C 0.8623 0.5652 0.2229 0.0
C2313 C 0.83957 0.56967 0.20947 0.0
C2314 C 0.86337 0.5359 0.23237 0.0
C2315 C 0.8413 0.51013 0.22831 0.0
C2316 C 0.81902 0.51392 0.2144 0.0
C2317 C 0.8183 0.54375 0.20517 0.0
C2318 C 0.88733 0.53307 0.2472 0.0
C2319 C 0.7953 0.48686 0.20961 0.0
H2320 H 0.87831 0.4076 0.24789 0.0
H2321 H 0.80513 0.45791 0.27793 0.0
H2322 H 0.86834 0.45622 0.20974 0.0
H2323 H 0.90204 0.47034 0.22255 0.0
H2324 H 0.89456 0.4268 0.2205 0.0
H2325 H 0.78054 0.50687 0.26925 0.0
H2326 H 0.81138 0.53334 0.26005 0.0
H2327 H 0.78065 0.51548 0.24648 0.0
H2328 H 0.87899 0.58495 0.22632 0.0
H2329 H 0.80085 0.54686 0.19473 0.0
H2330 H 0.90227 0.51037 0.24591 0.0
H2331 H 0.8736 0.53125 0.2595 0.0
H2332 H 0.90421 0.55451 0.248 0.0
H2333 H 0.80855 0.46313 0.20822 0.0
H2334 H 0.78202 0.49221 0.19742 0.0
H2335 H 0.77695 0.4837 0.22003 0.0
C2336 C 0.67165 0.60565 0.49226 0.0
C2337 C 0.67112 0.58507 0.47772 0.0
C2338 C 0.69708 0.60379 0.5044 0.0
C2339 C 0.72277 0.58077 0.50202 0.0
C2340 C 0.72224 0.55954 0.48754 0.0
C2341 C 0.6964 0.56194 0.47553 0.0
C2342 C 0.69678 0.62699 0.51962 0.0
C2343 C 0.74925 0.5347 0.48459 0.0
C2344 C 0.80348 0.60372 0.52329 0.0
C2345 C 0.80271 0.58506 0.5385 0.0
C2346 C 0.77809 0.60177 0.51112 0.0
C2347 C 0.75112 0.58063 0.51417 0.0
C2348 C 0.75038 0.56121 0.52932 0.0
C2349 C 0.7762 0.56367 0.54134 0.0
C2350 C 0.77978 0.62302 0.49518 0.0
C2351 C 0.72201 0.53834 0.53298 0.0
H2352 H 0.6522 0.62352 0.49415 0.0
H2353 H 0.69611 0.54584 0.4644 0.0
H2354 H 0.69845 0.61288 0.53182 0.0
H2355 H 0.71851 0.64345 0.51906 0.0
H2356 H 0.67426 0.64246 0.52 0.0
H2357 H 0.74432 0.51876 0.47324 0.0
H2358 H 0.77294 0.54763 0.48254 0.0
H2359 H 0.75225 0.51888 0.49612 0.0
H2360 H 0.82389 0.62022 0.52089 0.0
H2361 H 0.77547 0.54905 0.553 0.0
H2362 H 0.75915 0.64088 0.49519 0.0
H2363 H 0.77716 0.60761 0.48346 0.0
H2364 H 0.80323 0.63692 0.49431 0.0
H2365 H 0.69912 0.55286 0.53464 0.0
H2366 H 0.72608 0.52341 0.54477 0.0
H2367 H 0.71804 0.52149 0.52192 0.0
C2368 C 0.37094 0.58104 0.25861 0.0
C2369 C 0.35023 0.57862 0.27298 0.0
C2370 C 0.37035 0.55687 0.2456 0.0
C2371 C 0.34856 0.52979 0.24705 0.0
C2372 C 0.32683 0.52794 0.26121 0.0
C2373 C 0.32792 0.55229 0.27394 0.0
C2374 C 0.39379 0.55968 0.23064 0.0
C2375 C 0.30328 0.49946 0.26331 0.0
C2376 C 0.32948 0.47097 0.21015 0.0
C2377 C 0.34971 0.44414 0.2143 0.0
C2378 C 0.32967 0.4997 0.2203 0.0
C2379 C 0.35055 0.50151 0.2349 0.0
C2380 C 0.37148 0.47479 0.2389 0.0
C2381 C 0.37078 0.44653 0.22859 0.0
C2382 C 0.30702 0.52776 0.21567 0.0
C2383 C 0.39401 0.4756 0.25439 0.0
H2384 H 0.38806 0.6014 0.2577 0.0
H2385 H 0.31148 0.55031 0.28486 0.0
H2386 H 0.41251 0.53987 0.23147 0.0
H2387 H 0.38045 0.55638 0.21829 0.0
H2388 H 0.40664 0.5838 0.23042 0.0
H2389 H 0.28631 0.50296 0.27436 0.0
H2390 H 0.28842 0.49614 0.25145 0.0
H2391 H 0.31734 0.47639 0.26539 0.0
H2392 H 0.31332 0.46945 0.19906 0.0
H2393 H 0.38675 0.4261 0.23188 0.0
H2394 H 0.32102 0.55115 0.21498 0.0
H2395 H 0.28814 0.53078 0.22584 0.0
H2396 H 0.29436 0.52368 0.20316 0.0
H2397 H 0.40967 0.49793 0.25406 0.0
H2398 H 0.41021 0.45362 0.2551 0.0
H2399 H 0.37916 0.47678 0.26635 0.0
C2400 C 0.31763 0.59963 0.98351 0.0
C2401 C 0.31731 0.58255 0.96779 0.0
C2402 C 0.29007 0.59985 0.99431 0.0
C2403 C 0.26137 0.58269 0.98927 0.0
C2404 C 0.26116 0.56454 0.97369 0.0
C2405 C 0.2892 0.56461 0.96314 0.0
C2406 C 0.29135 0.61936 0.01087 0.0
C2407 C 0.23096 0.54598 0.9679 0.0
C2408 C 0.1972 0.56828 0.02401 0.0
C2409 C 0.17584 0.59492 0.02131 0.0
C2410 C 0.22477 0.56345 0.01342 0.0
C2411 C 0.23101 0.58572 0.9998 0.0
C2412 C 0.20912 0.61218 0.99677 0.0
C2413 C 0.18188 0.61649 0.00756 0.0
C2414 C 0.24763 0.535 0.01705 0.0
C2415 C 0.21488 0.63643 0.98234 0.0
H2416 H 0.33932 0.61334 0.98729 0.0
H2417 H 0.28877 0.55133 0.95103 0.0
H2418 H 0.2736 0.64006 0.01021 0.0
H2419 H 0.28408 0.60364 0.0219 0.0
H2420 H 0.31621 0.62958 0.01346 0.0
H2421 H 0.23553 0.53115 0.95612 0.0
H2422 H 0.22231 0.52936 0.97827 0.0
H2423 H 0.21078 0.56362 0.96518 0.0
H2424 H 0.19268 0.55146 0.03457 0.0
H2425 H 0.16542 0.63702 0.00529 0.0
H2426 H 0.27216 0.54449 0.02086 0.0
H2427 H 0.25107 0.51997 0.00526 0.0
H2428 H 0.23833 0.51883 0.0275 0.0
H2429 H 0.23822 0.64988 0.98461 0.0
H2430 H 0.19466 0.65468 0.98117 0.0
H2431 H 0.21734 0.62321 0.9699 0.0
C2432 C 0.1629 0.42488 0.77145 0.0
C2433 C 0.18489 0.42577 0.78541 0.0
C2434 C 0.16229 0.45 0.75909 0.0
C2435 C 0.18418 0.47687 0.76066 0.0
C2436 C 0.20685 0.47778 0.77454 0.0
C2437 C 0.20696 0.45218 0.78676 0.0
C2438 C 0.13768 0.44806 0.74453 0.0
C2439 C 0.23054 0.50608 0.77664 0.0
C2440 C 0.19459 0.5298 0.72053 0.0
C2441 C 0.17216 0.55533 0.72371 0.0
C2442 C 0.19957 0.50454 0.73266 0.0
C2443 C 0.1817 0.50485 0.74832 0.0
C2444 C 0.15953 0.53088 0.75171 0.0
C2445 C 0.15505 0.55572 0.73941 0.0
C2446 C 0.22343 0.47717 0.72859 0.0
C2447 C 0.13988 0.53212 0.7682 0.0
H2448 H 0.14584 0.40453 0.77018 0.0
H2449 H 0.22412 0.45302 0.79745 0.0
H2450 H 0.12023 0.46899 0.74539 0.0
H2451 H 0.15044 0.45004 0.73196 0.0
H2452 H 0.12339 0.42477 0.7447 0.0
H2453 H 0.24781 0.50227 0.78756 0.0
H2454 H 0.24498 0.5095 0.76467 0.0
H2455 H 0.21666 0.5292 0.7789 0.0
H2456 H 0.20805 0.52936 0.7085 0.0
H2457 H 0.13778 0.57538 0.74208 0.0
H2458 H 0.20997 0.45352 0.72748 0.0
H2459 H 0.2415 0.47441 0.73921 0.0
H2460 H 0.23696 0.48158 0.71639 0.0
H2461 H 0.12308 0.51064 0.76881 0.0
H2462 H 0.12498 0.55494 0.76928 0.0
H2463 H 0.15653 0.5306 0.7795 0.0
C2464 C 0.16538 0.39084 0.48131 0.0
C2465 C 0.16274 0.4141 0.46802 0.0
C2466 C 0.19074 0.39258 0.49351 0.0
C2467 C 0.21412 0.41828 0.49248 0.0
C2468 C 0.21144 0.44213 0.47925 0.0
C2469 C 0.18581 0.43971 0.46713 0.0
C2470 C 0.19287 0.36647 0.50731 0.0
C2471 C 0.23591 0.4699 0.47778 0.0
C2472 C 0.26624 0.43068 0.53276 0.0
C2473 C 0.29414 0.41191 0.52874 0.0
C2474 C 0.2404 0.43417 0.5208 0.0
C2475 C 0.2426 0.41847 0.50453 0.0
C2476 C 0.27121 0.40051 0.50023 0.0
C2477 C 0.29655 0.3975 0.51234 0.0
C2478 C 0.21031 0.45368 0.52579 0.0
C2479 C 0.27456 0.38333 0.48305 0.0
H2480 H 0.14766 0.371 0.48217 0.0
H2481 H 0.18381 0.45794 0.45699 0.0
H2482 H 0.21606 0.35237 0.50586 0.0
H2483 H 0.19334 0.37809 0.52024 0.0
H2484 H 0.17193 0.34894 0.50678 0.0
H2485 H 0.2293 0.48754 0.46741 0.0
H2486 H 0.23754 0.48346 0.49015 0.0
H2487 H 0.2607 0.4598 0.47504 0.0
H2488 H 0.26424 0.44202 0.54535 0.0
H2489 H 0.31811 0.38318 0.509 0.0
H2490 H 0.18892 0.43689 0.52697 0.0
H2491 H 0.20427 0.4719 0.51563 0.0
H2492 H 0.21363 0.46685 0.53821 0.0
H2493 H 0.25584 0.36357 0.48199 0.0
H2494 H 0.29926 0.37216 0.48128 0.0
H2495 H 0.27005 0.4009 0.47238 0.0
loop_
_geom_bond_atom_site_label_1
_geom_bond_atom_site_label_2
_geom_bond_distance
_geom_bond_site_symmetry_2
_ccdc_geom_bond_type
C0 O2 1.247 . S
C0 O4 1.258 . S
C1 O8 1.247 . S
C1 O9 1.258 . S
O2 C0 1.247 . S
O2 Zn3 2.028 . S
Zn3 O2 2.028 . S
Zn3 O7 2.035 . S
Zn3 O9 2.035 . S
Zn3 O10 2.028 . S
O4 C0 1.258 . S
O4 Zn5 2.035 . S
Zn5 O4 2.035 . S
Zn5 O6 2.028 . S
Zn5 O8 2.028 . S
Zn5 O11 2.035 . S
O6 Zn5 2.028 . S
O6 C12 1.247 . S
O7 Zn3 2.035 . S
O7 C12 1.258 . S
O8 C1 1.247 . S
O8 Zn5 2.028 . S
O9 C1 1.258 . S
O9 Zn3 2.035 . S
O10 Zn3 2.028 . S
O10 C13 1.247 . S
O11 Zn5 2.035 . S
O11 C13 1.258 . S
C12 O6 1.247 . S
C12 O7 1.258 . S
C13 O10 1.247 . S
C13 O11 1.258 . S
C14 O16 1.247 . S
C14 O18 1.258 . S
C15 O22 1.247 . S
C15 O23 1.258 . S
O16 C14 1.247 . S
O16 Zn17 2.028 . S
Zn17 O16 2.028 . S
Zn17 O21 2.035 . S
Zn17 O23 2.035 . S
Zn17 O24 2.028 . S
O18 C14 1.258 . S
O18 Zn19 2.035 . S
Zn19 O18 2.035 . S
Zn19 O20 2.028 . S
Zn19 O22 2.028 . S
Zn19 O25 2.035 . S
O20 Zn19 2.028 . S
O20 C26 1.247 . S
O21 Zn17 2.035 . S
O21 C26 1.258 . S
O22 C15 1.247 . S
O22 Zn19 2.028 . S
O23 C15 1.258 . S
O23 Zn17 2.035 . S
O24 Zn17 2.028 . S
O24 C27 1.247 . S
O25 Zn19 2.035 . S
O25 C27 1.258 . S
C26 O20 1.247 . S
C26 O21 1.258 . S
C27 O24 1.247 . S
C27 O25 1.258 . S
C28 O30 1.247 . S
C28 O32 1.258 . S
C29 O36 1.247 . S
C29 O37 1.258 . S
O30 C28 1.247 . S
O30 Zn31 2.028 . S
Zn31 O30 2.028 . S
Zn31 O35 2.035 . S
Zn31 O37 2.035 . S
Zn31 O38 2.028 . S
O32 C28 1.258 . S
O32 Zn33 2.035 . S
Zn33 O32 2.035 . S
Zn33 O34 2.028 . S
Zn33 O36 2.028 . S
Zn33 O39 2.035 . S
O34 Zn33 2.028 . S
O34 C40 1.247 . S
O35 Zn31 2.035 . S
O35 C40 1.258 . S
O36 C29 1.247 . S
O36 Zn33 2.028 . S
O37 C29 1.258 . S
O37 Zn31 2.035 . S
O38 Zn31 2.028 . S
O38 C41 1.247 . S
O39 Zn33 2.035 . S
O39 C41 1.258 . S
C40 O34 1.247 . S
C40 O35 1.258 . S
C41 O38 1.247 . S
C41 O39 1.258 . S
C42 O44 1.247 . S
C42 O46 1.258 . S
C43 O50 1.247 . S
C43 O51 1.258 . S
O44 C42 1.247 . S
O44 Zn45 2.028 . S
Zn45 O44 2.028 . S
Zn45 O49 2.035 . S
Zn45 O51 2.035 . S
Zn45 O52 2.028 . S
O46 C42 1.258 . S
O46 Zn47 2.035 . S
Zn47 O46 2.035 . S
Zn47 O48 2.028 . S
Zn47 O50 2.028 . S
Zn47 O53 2.035 . S
O48 Zn47 2.028 . S
O48 C54 1.247 . S
O49 Zn45 2.035 . S
O49 C54 1.258 . S
O50 C43 1.247 . S
O50 Zn47 2.028 . S
O51 C43 1.258 . S
O51 Zn45 2.035 . S
O52 Zn45 2.028 . S
O52 C55 1.247 . S
O53 Zn47 2.035 . S
O53 C55 1.258 . S
C54 O48 1.247 . S
C54 O49 1.258 . S
C55 O52 1.247 . S
C55 O53 1.258 . S
C56 O58 1.247 . S
C56 O60 1.258 . S
C57 O64 1.247 . S
C57 O65 1.258 . S
O58 C56 1.247 . S
O58 Zn59 2.028 . S
Zn59 O58 2.028 . S
Zn59 O63 2.035 . S
Zn59 O65 2.035 . S
Zn59 O66 2.028 . S
O60 C56 1.258 . S
O60 Zn61 2.035 . S
Zn61 O60 2.035 . S
Zn61 O62 2.028 . S
Zn61 O64 2.028 . S
Zn61 O67 2.035 . S
O62 Zn61 2.028 . S
O62 C68 1.247 . S
O63 Zn59 2.035 . S
O63 C68 1.258 . S
O64 C57 1.247 . S
O64 Zn61 2.028 . S
O65 C57 1.258 . S
O65 Zn59 2.035 . S
O66 Zn59 2.028 . S
O66 C69 1.247 . S
O67 Zn61 2.035 . S
O67 C69 1.258 . S
C68 O62 1.247 . S
C68 O63 1.258 . S
C69 O66 1.247 . S
C69 O67 1.258 . S
C70 O72 1.247 . S
C70 O74 1.258 . S
C71 O78 1.247 . S
C71 O79 1.258 . S
O72 C70 1.247 . S
O72 Zn73 2.028 . S
Zn73 O72 2.028 . S
Zn73 O77 2.035 . S
Zn73 O79 2.035 . S
Zn73 O80 2.028 . S
O74 C70 1.258 . S
O74 Zn75 2.035 . S
Zn75 O74 2.035 . S
Zn75 O76 2.028 . S
Zn75 O78 2.028 . S
Zn75 O81 2.035 . S
O76 Zn75 2.028 . S
O76 C82 1.247 . S
O77 Zn73 2.035 . S
O77 C82 1.258 . S
O78 C71 1.247 . S
O78 Zn75 2.028 . S
O79 C71 1.258 . S
O79 Zn73 2.035 . S
O80 Zn73 2.028 . S
O80 C83 1.247 . S
O81 Zn75 2.035 . S
O81 C83 1.258 . S
C82 O76 1.247 . S
C82 O77 1.258 . S
C83 O80 1.247 . S
C83 O81 1.258 . S
C84 O86 1.247 . S
C84 O88 1.258 . S
C85 O92 1.247 . S
C85 O93 1.258 . S
O86 C84 1.247 . S
O86 Zn87 2.028 . S
Zn87 O86 2.028 . S
Zn87 O91 2.035 . S
Zn87 O93 2.035 . S
Zn87 O94 2.028 . S
O88 C84 1.258 . S
O88 Zn89 2.035 . S
Zn89 O88 2.035 . S
Zn89 O90 2.028 . S
Zn89 O92 2.028 . S
Zn89 O95 2.035 . S
O90 Zn89 2.028 . S
O90 C96 1.247 . S
O91 Zn87 2.035 . S
O91 C96 1.258 . S
O92 C85 1.247 . S
O92 Zn89 2.028 . S
O93 C85 1.258 . S
O93 Zn87 2.035 . S
O94 Zn87 2.028 . S
O94 C97 1.247 . S
O95 Zn89 2.035 . S
O95 C97 1.258 . S
C96 O90 1.247 . S
C96 O91 1.258 . S
C97 O94 1.247 . S
C97 O95 1.258 . S
C98 O100 1.247 . S
C98 O102 1.258 . S
C99 O106 1.247 . S
C99 O107 1.258 . S
O100 C98 1.247 . S
O100 Zn101 2.028 . S
Zn101 O100 2.028 . S
Zn101 O105 2.035 . S
Zn101 O107 2.035 . S
Zn101 O108 2.028 . S
O102 C98 1.258 . S
O102 Zn103 2.035 . S
Zn103 O102 2.035 . S
Zn103 O104 2.028 . S
Zn103 O106 2.028 . S
Zn103 O109 2.035 . S
O104 Zn103 2.028 . S
O104 C110 1.247 . S
O105 Zn101 2.035 . S
O105 C110 1.258 . S
O106 C99 1.247 . S
O106 Zn103 2.028 . S
O107 C99 1.258 . S
O107 Zn101 2.035 . S
O108 Zn101 2.028 . S
O108 C111 1.247 . S
O109 Zn103 2.035 . S
O109 C111 1.258 . S
C110 O104 1.247 . S
C110 O105 1.258 . S
C111 O108 1.247 . S
C111 O109 1.258 . S
C112 O114 1.247 . S
C112 O116 1.258 . S
C113 O120 1.247 . S
C113 O121 1.258 . S
O114 C112 1.247 . S
O114 Zn115 2.028 . S
Zn115 O114 2.028 . S
Zn115 O119 2.035 . S
Zn115 O121 2.035 . S
Zn115 O122 2.028 . S
O116 C112 1.258 . S
O116 Zn117 2.035 . S
Zn117 O116 2.035 . S
Zn117 O118 2.028 . S
Zn117 O120 2.028 . S
Zn117 O123 2.035 . S
O118 Zn117 2.028 . S
O118 C124 1.247 . S
O119 Zn115 2.035 . S
O119 C124 1.258 . S
O120 C113 1.247 . S
O120 Zn117 2.028 . S
O121 C113 1.258 . S
O121 Zn115 2.035 . S
O122 Zn115 2.028 . S
O122 C125 1.247 . S
O123 Zn117 2.035 . S
O123 C125 1.258 . S
C124 O118 1.247 . S
C124 O119 1.258 . S
C125 O122 1.247 . S
C125 O123 1.258 . S
C126 O128 1.247 . S
C126 O130 1.258 . S
C127 O134 1.247 . S
C127 O135 1.258 . S
O128 C126 1.247 . S
O128 Zn129 2.028 . S
Zn129 O128 2.028 . S
Zn129 O133 2.035 . S
Zn129 O135 2.035 . S
Zn129 O136 2.028 . S
O130 C126 1.258 . S
O130 Zn131 2.035 . S
Zn131 O130 2.035 . S
Zn131 O132 2.028 . S
Zn131 O134 2.028 . S
Zn131 O137 2.035 . S
O132 Zn131 2.028 . S
O132 C138 1.247 . S
O133 Zn129 2.035 . S
O133 C138 1.258 . S
O134 C127 1.247 . S
O134 Zn131 2.028 . S
O135 C127 1.258 . S
O135 Zn129 2.035 . S
O136 Zn129 2.028 . S
O136 C139 1.247 . S
O137 Zn131 2.035 . S
O137 C139 1.258 . S
C138 O132 1.247 . S
C138 O133 1.258 . S
C139 O136 1.247 . S
C139 O137 1.258 . S
C140 O142 1.247 . S
C140 O144 1.258 . S
C141 O148 1.247 . S
C141 O149 1.258 . S
O142 C140 1.247 . S
O142 Zn143 2.028 . S
Zn143 O142 2.028 . S
Zn143 O147 2.035 . S
Zn143 O149 2.035 . S
Zn143 O150 2.028 . S
O144 C140 1.258 . S
O144 Zn145 2.035 . S
Zn145 O144 2.035 . S
Zn145 O146 2.028 . S
Zn145 O148 2.028 . S
Zn145 O151 2.035 . S
O146 Zn145 2.028 . S
O146 C152 1.247 . S
O147 Zn143 2.035 . S
O147 C152 1.258 . S
O148 C141 1.247 . S
O148 Zn145 2.028 . S
O149 C141 1.258 . S
O149 Zn143 2.035 . S
O150 Zn143 2.028 . S
O150 C153 1.247 . S
O151 Zn145 2.035 . S
O151 C153 1.258 . S
C152 O146 1.247 . S
C152 O147 1.258 . S
C153 O150 1.247 . S
C153 O151 1.258 . S
C154 O156 1.247 . S
C154 O158 1.258 . S
C155 O162 1.247 . S
C155 O163 1.258 . S
O156 C154 1.247 . S
O156 Zn157 2.028 . S
Zn157 O156 2.028 . S
Zn157 O161 2.035 . S
Zn157 O163 2.035 . S
Zn157 O164 2.028 . S
O158 C154 1.258 . S
O158 Zn159 2.035 . S
Zn159 O158 2.035 . S
Zn159 O160 2.028 . S
Zn159 O162 2.028 . S
Zn159 O165 2.035 . S
O160 Zn159 2.028 . S
O160 C166 1.247 . S
O161 Zn157 2.035 . S
O161 C166 1.258 . S
O162 C155 1.247 . S
O162 Zn159 2.028 . S
O163 C155 1.258 . S
O163 Zn157 2.035 . S
O164 Zn157 2.028 . S
O164 C167 1.247 . S
O165 Zn159 2.035 . S
O165 C167 1.258 . S
C166 O160 1.247 . S
C166 O161 1.258 . S
C167 O164 1.247 . S
C167 O165 1.258 . S
C168 O170 1.247 . S
C168 O172 1.258 . S
C169 O176 1.247 . S
C169 O177 1.258 . S
O170 C168 1.247 . S
O170 Zn171 2.028 . S
Zn171 O170 2.028 . S
Zn171 O175 2.035 . S
Zn171 O177 2.035 . S
Zn171 O178 2.028 . S
O172 C168 1.258 . S
O172 Zn173 2.035 . S
Zn173 O172 2.035 . S
Zn173 O174 2.028 . S
Zn173 O176 2.028 . S
Zn173 O179 2.035 . S
O174 Zn173 2.028 . S
O174 C180 1.247 . S
O175 Zn171 2.035 . S
O175 C180 1.258 . S
O176 C169 1.247 . S
O176 Zn173 2.028 . S
O177 C169 1.258 . S
O177 Zn171 2.035 . S
O178 Zn171 2.028 . S
O178 C181 1.247 . S
O179 Zn173 2.035 . S
O179 C181 1.258 . S
C180 O174 1.247 . S
C180 O175 1.258 . S
C181 O178 1.247 . S
C181 O179 1.258 . S
C182 O184 1.247 . S
C182 O186 1.258 . S
C183 O190 1.247 . S
C183 O191 1.258 . S
O184 C182 1.247 . S
O184 Zn185 2.028 . S
Zn185 O184 2.028 . S
Zn185 O189 2.035 . S
Zn185 O191 2.035 . S
Zn185 O192 2.028 . S
O186 C182 1.258 . S
O186 Zn187 2.035 . S
Zn187 O186 2.035 . S
Zn187 O188 2.028 . S
Zn187 O190 2.028 . S
Zn187 O193 2.035 . S
O188 Zn187 2.028 . S
O188 C194 1.247 . S
O189 Zn185 2.035 . S
O189 C194 1.258 . S
O190 C183 1.247 . S
O190 Zn187 2.028 . S
O191 C183 1.258 . S
O191 Zn185 2.035 . S
O192 Zn185 2.028 . S
O192 C195 1.247 . S
O193 Zn187 2.035 . S
O193 C195 1.258 . S
C194 O188 1.247 . S
C194 O189 1.258 . S
C195 O192 1.247 . S
C195 O193 1.258 . S
C196 O198 1.247 . S
C196 O200 1.258 . S
C197 O204 1.247 . S
C197 O205 1.258 . S
O198 C196 1.247 . S
O198 Zn199 2.028 . S
Zn199 O198 2.028 . S
Zn199 O203 2.035 . S
Zn199 O205 2.035 . S
Zn199 O206 2.028 . S
O200 C196 1.258 . S
O200 Zn201 2.035 . S
Zn201 O200 2.035 . S
Zn201 O202 2.028 . S
Zn201 O204 2.028 . S
Zn201 O207 2.035 . S
O202 Zn201 2.028 . S
O202 C208 1.247 . S
O203 Zn199 2.035 . S
O203 C208 1.258 . S
O204 C197 1.247 . S
O204 Zn201 2.028 . S
O205 C197 1.258 . S
O205 Zn199 2.035 . S
O206 Zn199 2.028 . S
O206 C209 1.247 . S
O207 Zn201 2.035 . S
O207 C209 1.258 . S
C208 O202 1.247 . S
C208 O203 1.258 . S
C209 O206 1.247 . S
C209 O207 1.258 . S
C210 O212 1.247 . S
C210 O214 1.258 . S
C211 O218 1.247 . S
C211 O219 1.258 . S
O212 C210 1.247 . S
O212 Zn213 2.028 . S
Zn213 O212 2.028 . S
Zn213 O217 2.035 . S
Zn213 O219 2.035 . S
Zn213 O220 2.028 . S
O214 C210 1.258 . S
O214 Zn215 2.035 . S
Zn215 O214 2.035 . S
Zn215 O216 2.028 . S
Zn215 O218 2.028 . S
Zn215 O221 2.035 . S
O216 Zn215 2.028 . S
O216 C222 1.247 . S
O217 Zn213 2.035 . S
O217 C222 1.258 . S
O218 C211 1.247 . S
O218 Zn215 2.028 . S
O219 C211 1.258 . S
O219 Zn213 2.035 . S
O220 Zn213 2.028 . S
O220 C223 1.247 . S
O221 Zn215 2.035 . S
O221 C223 1.258 . S
C222 O216 1.247 . S
C222 O217 1.258 . S
C223 O220 1.247 . S
C223 O221 1.258 . S
C224 O226 1.247 . S
C224 O228 1.258 . S
C225 O232 1.247 . S
C225 O233 1.258 . S
O226 C224 1.247 . S
O226 Zn227 2.028 . S
Zn227 O226 2.028 . S
Zn227 O231 2.035 . S
Zn227 O233 2.035 . S
Zn227 O234 2.028 . S
O228 C224 1.258 . S
O228 Zn229 2.035 . S
Zn229 O228 2.035 . S
Zn229 O230 2.028 . S
Zn229 O232 2.028 . S
Zn229 O235 2.035 . S
O230 Zn229 2.028 . S
O230 C236 1.247 . S
O231 Zn227 2.035 . S
O231 C236 1.258 . S
O232 C225 1.247 . S
O232 Zn229 2.028 . S
O233 C225 1.258 . S
O233 Zn227 2.035 . S
O234 Zn227 2.028 . S
O234 C237 1.247 . S
O235 Zn229 2.035 . S
O235 C237 1.258 . S
C236 O230 1.247 . S
C236 O231 1.258 . S
C237 O234 1.247 . S
C237 O235 1.258 . S
C238 O240 1.247 . S
C238 O242 1.258 . S
C239 O246 1.247 . S
C239 O247 1.258 . S
O240 C238 1.247 . S
O240 Zn241 2.028 . S
Zn241 O240 2.028 . S
Zn241 O245 2.035 . S
Zn241 O247 2.035 . S
Zn241 O248 2.028 . S
O242 C238 1.258 . S
O242 Zn243 2.035 . S
Zn243 O242 2.035 . S
Zn243 O244 2.028 . S
Zn243 O246 2.028 . S
Zn243 O249 2.035 . S
O244 Zn243 2.028 . S
O244 C250 1.247 . S
O245 Zn241 2.035 . S
O245 C250 1.258 . S
O246 C239 1.247 . S
O246 Zn243 2.028 . S
O247 C239 1.258 . S
O247 Zn241 2.035 . S
O248 Zn241 2.028 . S
O248 C251 1.247 . S
O249 Zn243 2.035 . S
O249 C251 1.258 . S
C250 O244 1.247 . S
C250 O245 1.258 . S
C251 O248 1.247 . S
C251 O249 1.258 . S
C252 O254 1.247 . S
C252 O256 1.258 . S
C253 O260 1.247 . S
C253 O261 1.258 . S
O254 C252 1.247 . S
O254 Zn255 2.028 . S
Zn255 O254 2.028 . S
Zn255 O259 2.035 . S
Zn255 O261 2.035 . S
Zn255 O262 2.028 . S
O256 C252 1.258 . S
O256 Zn257 2.035 . S
Zn257 O256 2.035 . S
Zn257 O258 2.028 . S
Zn257 O260 2.028 . S
Zn257 O263 2.035 . S
O258 Zn257 2.028 . S
O258 C264 1.247 . S
O259 Zn255 2.035 . S
O259 C264 1.258 . S
O260 C253 1.247 . S
O260 Zn257 2.028 . S
O261 C253 1.258 . S
O261 Zn255 2.035 . S
O262 Zn255 2.028 . S
O262 C265 1.247 . S
O263 Zn257 2.035 . S
O263 C265 1.258 . S
C264 O258 1.247 . S
C264 O259 1.258 . S
C265 O262 1.247 . S
C265 O263 1.258 . S
C266 O268 1.247 . S
C266 O270 1.258 . S
C267 O274 1.247 . S
C267 O275 1.258 . S
O268 C266 1.247 . S
O268 Zn269 2.028 . S
Zn269 O268 2.028 . S
Zn269 O273 2.035 . S
Zn269 O275 2.035 . S
Zn269 O276 2.028 . S
O270 C266 1.258 . S
O270 Zn271 2.035 . S
Zn271 O270 2.035 . S
Zn271 O272 2.028 . S
Zn271 O274 2.028 . S
Zn271 O277 2.035 . S
O272 Zn271 2.028 . S
O272 C278 1.247 . S
O273 Zn269 2.035 . S
O273 C278 1.258 . S
O274 C267 1.247 . S
O274 Zn271 2.028 . S
O275 C267 1.258 . S
O275 Zn269 2.035 . S
O276 Zn269 2.028 . S
O276 C279 1.247 . S
O277 Zn271 2.035 . S
O277 C279 1.258 . S
C278 O272 1.247 . S
C278 O273 1.258 . S
C279 O276 1.247 . S
C279 O277 1.258 . S
C280 O282 1.247 . S
C280 O284 1.258 . S
C281 O288 1.247 . S
C281 O289 1.258 . S
O282 C280 1.247 . S
O282 Zn283 2.028 . S
Zn283 O282 2.028 . S
Zn283 O287 2.035 . S
Zn283 O289 2.035 . S
Zn283 O290 2.028 . S
O284 C280 1.258 . S
O284 Zn285 2.035 . S
Zn285 O284 2.035 . S
Zn285 O286 2.028 . S
Zn285 O288 2.028 . S
Zn285 O291 2.035 . S
O286 Zn285 2.028 . S
O286 C292 1.247 . S
O287 Zn283 2.035 . S
O287 C292 1.258 . S
O288 C281 1.247 . S
O288 Zn285 2.028 . S
O289 C281 1.258 . S
O289 Zn283 2.035 . S
O290 Zn283 2.028 . S
O290 C293 1.247 . S
O291 Zn285 2.035 . S
O291 C293 1.258 . S
C292 O286 1.247 . S
C292 O287 1.258 . S
C293 O290 1.247 . S
C293 O291 1.258 . S
C294 O296 1.247 . S
C294 O298 1.258 . S
C295 O302 1.247 . S
C295 O303 1.258 . S
O296 C294 1.247 . S
O296 Zn297 2.028 . S
Zn297 O296 2.028 . S
Zn297 O301 2.035 . S
Zn297 O303 2.035 . S
Zn297 O304 2.028 . S
O298 C294 1.258 . S
O298 Zn299 2.035 . S
Zn299 O298 2.035 . S
Zn299 O300 2.028 . S
Zn299 O302 2.028 . S
Zn299 O305 2.035 . S
O300 Zn299 2.028 . S
O300 C306 1.247 . S
O301 Zn297 2.035 . S
O301 C306 1.258 . S
O302 C295 1.247 . S
O302 Zn299 2.028 . S
O303 C295 1.258 . S
O303 Zn297 2.035 . S
O304 Zn297 2.028 . S
O304 C307 1.247 . S
O305 Zn299 2.035 . S
O305 C307 1.258 . S
C306 O300 1.247 . S
C306 O301 1.258 . S
C307 O304 1.247 . S
C307 O305 1.258 . S
C308 O310 1.247 . S
C308 O312 1.258 . S
C309 O316 1.247 . S
C309 O317 1.258 . S
O310 C308 1.247 . S
O310 Zn311 2.028 . S
Zn311 O310 2.028 . S
Zn311 O315 2.035 . S
Zn311 O317 2.035 . S
Zn311 O318 2.028 . S
O312 C308 1.258 . S
O312 Zn313 2.035 . S
Zn313 O312 2.035 . S
Zn313 O314 2.028 . S
Zn313 O316 2.028 . S
Zn313 O319 2.035 . S
O314 Zn313 2.028 . S
O314 C320 1.247 . S
O315 Zn311 2.035 . S
O315 C320 1.258 . S
O316 C309 1.247 . S
O316 Zn313 2.028 . S
O317 C309 1.258 . S
O317 Zn311 2.035 . S
O318 Zn311 2.028 . S
O318 C321 1.247 . S
O319 Zn313 2.035 . S
O319 C321 1.258 . S
C320 O314 1.247 . S
C320 O315 1.258 . S
C321 O318 1.247 . S
C321 O319 1.258 . S
C322 O324 1.247 . S
C322 O326 1.258 . S
C323 O330 1.247 . S
C323 O331 1.258 . S
O324 C322 1.247 . S
O324 Zn325 2.028 . S
Zn325 O324 2.028 . S
Zn325 O329 2.035 . S
Zn325 O331 2.035 . S
Zn325 O332 2.028 . S
O326 C322 1.258 . S
O326 Zn327 2.035 . S
Zn327 O326 2.035 . S
Zn327 O328 2.028 . S
Zn327 O330 2.028 . S
Zn327 O333 2.035 . S
O328 Zn327 2.028 . S
O328 C334 1.247 . S
O329 Zn325 2.035 . S
O329 C334 1.258 . S
O330 C323 1.247 . S
O330 Zn327 2.028 . S
O331 C323 1.258 . S
O331 Zn325 2.035 . S
O332 Zn325 2.028 . S
O332 C335 1.247 . S
O333 Zn327 2.035 . S
O333 C335 1.258 . S
C334 O328 1.247 . S
C334 O329 1.258 . S
C335 O332 1.247 . S
C335 O333 1.258 . S
C336 O338 1.247 . S
C336 O340 1.258 . S
C337 O344 1.247 . S
C337 O345 1.258 . S
O338 C336 1.247 . S
O338 Zn339 2.028 . S
Zn339 O338 2.028 . S
Zn339 O343 2.035 . S
Zn339 O345 2.035 . S
Zn339 O346 2.028 . S
O340 C336 1.258 . S
O340 Zn341 2.035 . S
Zn341 O340 2.035 . S
Zn341 O342 2.028 . S
Zn341 O344 2.028 . S
Zn341 O347 2.035 . S
O342 Zn341 2.028 . S
O342 C348 1.247 . S
O343 Zn339 2.035 . S
O343 C348 1.258 . S
O344 C337 1.247 . S
O344 Zn341 2.028 . S
O345 C337 1.258 . S
O345 Zn339 2.035 . S
O346 Zn339 2.028 . S
O346 C349 1.247 . S
O347 Zn341 2.035 . S
O347 C349 1.258 . S
C348 O342 1.247 . S
C348 O343 1.258 . S
C349 O346 1.247 . S
C349 O347 1.258 . S
C350 O352 1.247 . S
C350 O354 1.258 . S
C351 O358 1.247 . S
C351 O359 1.258 . S
O352 C350 1.247 . S
O352 Zn353 2.028 . S
Zn353 O352 2.028 . S
Zn353 O357 2.035 . S
Zn353 O359 2.035 . S
Zn353 O360 2.028 . S
O354 C350 1.258 . S
O354 Zn355 2.035 . S
Zn355 O354 2.035 . S
Zn355 O356 2.028 . S
Zn355 O358 2.028 . S
Zn355 O361 2.035 . S
O356 Zn355 2.028 . S
O356 C362 1.247 . S
O357 Zn353 2.035 . S
O357 C362 1.258 . S
O358 C351 1.247 . S
O358 Zn355 2.028 . S
O359 C351 1.258 . S
O359 Zn353 2.035 . S
O360 Zn353 2.028 . S
O360 C363 1.247 . S
O361 Zn355 2.035 . S
O361 C363 1.258 . S
C362 O356 1.247 . S
C362 O357 1.258 . S
C363 O360 1.247 . S
C363 O361 1.258 . S
C364 O366 1.247 . S
C364 O368 1.258 . S
C365 O372 1.247 . S
C365 O373 1.258 . S
O366 C364 1.247 . S
O366 Zn367 2.028 . S
Zn367 O366 2.028 . S
Zn367 O371 2.035 . S
Zn367 O373 2.035 . S
Zn367 O374 2.028 . S
O368 C364 1.258 . S
O368 Zn369 2.035 . S
Zn369 O368 2.035 . S
Zn369 O370 2.028 . S
Zn369 O372 2.028 . S
Zn369 O375 2.035 . S
O370 Zn369 2.028 . S
O370 C376 1.247 . S
O371 Zn367 2.035 . S
O371 C376 1.258 . S
O372 C365 1.247 . S
O372 Zn369 2.028 . S
O373 C365 1.258 . S
O373 Zn367 2.035 . S
O374 Zn367 2.028 . S
O374 C377 1.247 . S
O375 Zn369 2.035 . S
O375 C377 1.258 . S
C376 O370 1.247 . S
C376 O371 1.258 . S
C377 O374 1.247 . S
C377 O375 1.258 . S
C378 O380 1.247 . S
C378 O382 1.258 . S
C379 O386 1.247 . S
C379 O387 1.258 . S
O380 C378 1.247 . S
O380 Zn381 2.028 . S
Zn381 O380 2.028 . S
Zn381 O385 2.035 . S
Zn381 O387 2.035 . S
Zn381 O388 2.028 . S
O382 C378 1.258 . S
O382 Zn383 2.035 . S
Zn383 O382 2.035 . S
Zn383 O384 2.028 . S
Zn383 O386 2.028 . S
Zn383 O389 2.035 . S
O384 Zn383 2.028 . S
O384 C390 1.247 . S
O385 Zn381 2.035 . S
O385 C390 1.258 . S
O386 C379 1.247 . S
O386 Zn383 2.028 . S
O387 C379 1.258 . S
O387 Zn381 2.035 . S
O388 Zn381 2.028 . S
O388 C391 1.247 . S
O389 Zn383 2.035 . S
O389 C391 1.258 . S
C390 O384 1.247 . S
C390 O385 1.258 . S
C391 O388 1.247 . S
C391 O389 1.258 . S
C392 O394 1.247 . S
C392 O396 1.258 . S
C393 O400 1.247 . S
C393 O401 1.258 . S
O394 C392 1.247 . S
O394 Zn395 2.028 . S
Zn395 O394 2.028 . S
Zn395 O399 2.035 . S
Zn395 O401 2.035 . S
Zn395 O402 2.028 . S
O396 C392 1.258 . S
O396 Zn397 2.035 . S
Zn397 O396 2.035 . S
Zn397 O398 2.028 . S
Zn397 O400 2.028 . S
Zn397 O403 2.035 . S
O398 Zn397 2.028 . S
O398 C404 1.247 . S
O399 Zn395 2.035 . S
O399 C404 1.258 . S
O400 C393 1.247 . S
O400 Zn397 2.028 . S
O401 C393 1.258 . S
O401 Zn395 2.035 . S
O402 Zn395 2.028 . S
O402 C405 1.247 . S
O403 Zn397 2.035 . S
O403 C405 1.258 . S
C404 O398 1.247 . S
C404 O399 1.258 . S
C405 O402 1.247 . S
C405 O403 1.258 . S
C406 O408 1.247 . S
C406 O410 1.258 . S
C407 O414 1.247 . S
C407 O415 1.258 . S
O408 C406 1.247 . S
O408 Zn409 2.028 . S
Zn409 O408 2.028 . S
Zn409 O413 2.035 . S
Zn409 O415 2.035 . S
Zn409 O416 2.028 . S
O410 C406 1.258 . S
O410 Zn411 2.035 . S
Zn411 O410 2.035 . S
Zn411 O412 2.028 . S
Zn411 O414 2.028 . S
Zn411 O417 2.035 . S
O412 Zn411 2.028 . S
O412 C418 1.247 . S
O413 Zn409 2.035 . S
O413 C418 1.258 . S
O414 C407 1.247 . S
O414 Zn411 2.028 . S
O415 C407 1.258 . S
O415 Zn409 2.035 . S
O416 Zn409 2.028 . S
O416 C419 1.247 . S
O417 Zn411 2.035 . S
O417 C419 1.258 . S
C418 O412 1.247 . S
C418 O413 1.258 . S
C419 O416 1.247 . S
C419 O417 1.258 . S
C420 O422 1.247 . S
C420 O424 1.258 . S
C421 O428 1.247 . S
C421 O429 1.258 . S
O422 C420 1.247 . S
O422 Zn423 2.028 . S
Zn423 O422 2.028 . S
Zn423 O427 2.035 . S
Zn423 O429 2.035 . S
Zn423 O430 2.028 . S
O424 C420 1.258 . S
O424 Zn425 2.035 . S
Zn425 O424 2.035 . S
Zn425 O426 2.028 . S
Zn425 O428 2.028 . S
Zn425 O431 2.035 . S
O426 Zn425 2.028 . S
O426 C432 1.247 . S
O427 Zn423 2.035 . S
O427 C432 1.258 . S
O428 C421 1.247 . S
O428 Zn425 2.028 . S
O429 C421 1.258 . S
O429 Zn423 2.035 . S
O430 Zn423 2.028 . S
O430 C433 1.247 . S
O431 Zn425 2.035 . S
O431 C433 1.258 . S
C432 O426 1.247 . S
C432 O427 1.258 . S
C433 O430 1.247 . S
C433 O431 1.258 . S
C434 O436 1.247 . S
C434 O438 1.258 . S
C435 O442 1.247 . S
C435 O443 1.258 . S
O436 C434 1.247 . S
O436 Zn437 2.028 . S
Zn437 O436 2.028 . S
Zn437 O441 2.035 . S
Zn437 O443 2.035 . S
Zn437 O444 2.028 . S
O438 C434 1.258 . S
O438 Zn439 2.035 . S
Zn439 O438 2.035 . S
Zn439 O440 2.028 . S
Zn439 O442 2.028 . S
Zn439 O445 2.035 . S
O440 Zn439 2.028 . S
O440 C446 1.247 . S
O441 Zn437 2.035 . S
O441 C446 1.258 . S
O442 C435 1.247 . S
O442 Zn439 2.028 . S
O443 C435 1.258 . S
O443 Zn437 2.035 . S
O444 Zn437 2.028 . S
O444 C447 1.247 . S
O445 Zn439 2.035 . S
O445 C447 1.258 . S
C446 O440 1.247 . S
C446 O441 1.258 . S
C447 O444 1.247 . S
C447 O445 1.258 . S
C448 C449 1.391 . S
C448 C450 1.394 . S
C448 H464 0.931 . S
C449 C448 1.391 . S
C449 C453 1.376 . S
C450 C448 1.394 . S
C450 C451 1.369 . S
C450 C454 1.531 . S
C451 C450 1.369 . S
C451 C452 1.410 . S
C451 C459 1.503 . S
C452 C451 1.410 . S
C452 C453 1.392 . S
C452 C455 1.511 . S
C453 C449 1.376 . S
C453 C452 1.392 . S
C453 H465 0.929 . S
C454 C450 1.531 . S
C454 H466 0.960 . S
C454 H467 0.962 . S
C454 H468 0.960 . S
C455 C452 1.511 . S
C455 H469 0.961 . S
C455 H470 0.961 . S
C455 H471 0.961 . S
C456 C457 1.370 . S
C456 C458 1.363 . S
C456 H472 0.931 . S
C457 C456 1.370 . S
C457 C461 1.408 . S
C458 C456 1.363 . S
C458 C459 1.370 . S
C458 C462 1.524 . S
C459 C451 1.503 . S
C459 C458 1.370 . S
C459 C460 1.403 . S
C460 C459 1.403 . S
C460 C461 1.404 . S
C460 C463 1.539 . S
C461 C457 1.408 . S
C461 C460 1.404 . S
C461 H473 0.930 . S
C462 C458 1.524 . S
C462 H474 0.956 . S
C462 H475 0.961 . S
C462 H476 0.961 . S
C463 C460 1.539 . S
C463 H477 0.958 . S
C463 H478 0.961 . S
C463 H479 0.960 . S
H464 C448 0.931 . S
H465 C453 0.929 . S
H466 C454 0.960 . S
H467 C454 0.962 . S
H468 C454 0.960 . S
H469 C455 0.961 . S
H470 C455 0.961 . S
H471 C455 0.961 . S
H472 C456 0.931 . S
H473 C461 0.930 . S
H474 C462 0.956 . S
H475 C462 0.961 . S
H476 C462 0.961 . S
H477 C463 0.958 . S
H478 C463 0.961 . S
H479 C463 0.960 . S
C480 C481 1.391 . S
C480 C482 1.378 1_455 S
C480 H496 0.931 . S
C481 C480 1.391 . S
C481 C485 1.379 1_455 S
C482 C480 1.378 1_655 S
C482 C483 1.385 . S
C482 C486 1.531 . S
C483 C482 1.385 . S
C483 C484 1.410 . S
C483 C491 1.503 . S
C484 C483 1.410 . S
C484 C485 1.389 . S
C484 C487 1.511 . S
C485 C481 1.379 1_655 S
C485 C484 1.389 . S
C485 H497 0.929 1_655 S
C486 C482 1.531 . S
C486 H498 0.976 . S
C486 H499 0.960 1_655 S
C486 H500 0.946 1_655 S
C487 C484 1.511 . S
C487 H501 0.961 . S
C487 H502 0.961 . S
C487 H503 0.961 . S
C488 C489 1.370 . S
C488 C490 1.363 . S
C488 H504 0.931 . S
C489 C488 1.370 . S
C489 C493 1.408 . S
C490 C488 1.363 . S
C490 C491 1.370 . S
C490 C494 1.524 . S
C491 C483 1.503 . S
C491 C490 1.370 . S
C491 C492 1.403 . S
C492 C491 1.403 . S
C492 C493 1.404 . S
C492 C495 1.539 . S
C493 C489 1.408 . S
C493 C492 1.404 . S
C493 H505 0.930 . S
C494 C490 1.524 . S
C494 H506 0.956 . S
C494 H507 0.961 . S
C494 H508 0.961 . S
C495 C492 1.539 . S
C495 H509 0.958 . S
C495 H510 0.961 . S
C495 H511 0.960 . S
H496 C480 0.931 . S
H497 C485 0.929 1_455 S
H498 C486 0.976 . S
H499 C486 0.960 1_455 S
H500 C486 0.946 1_455 S
H501 C487 0.961 . S
H502 C487 0.961 . S
H503 C487 0.961 . S
H504 C488 0.931 . S
H505 C493 0.930 . S
H506 C494 0.956 . S
H507 C494 0.961 . S
H508 C494 0.961 . S
H509 C495 0.958 . S
H510 C495 0.961 . S
H511 C495 0.960 . S
C512 C513 1.391 . S
C512 C514 1.394 . S
C512 H528 0.931 . S
C513 C512 1.391 . S
C513 C517 1.376 . S
C514 C512 1.394 . S
C514 C515 1.369 . S
C514 C518 1.531 . S
C515 C514 1.369 . S
C515 C516 1.410 . S
C515 C523 1.503 . S
C516 C515 1.410 . S
C516 C517 1.392 . S
C516 C519 1.511 . S
C517 C513 1.376 . S
C517 C516 1.392 . S
C517 H529 0.929 . S
C518 C514 1.531 . S
C518 H530 0.960 . S
C518 H531 0.962 . S
C518 H532 0.960 . S
C519 C516 1.511 . S
C519 H533 0.961 . S
C519 H534 0.961 . S
C519 H535 0.961 . S
C520 C521 1.370 . S
C520 C522 1.363 . S
C520 H536 0.931 . S
C521 C520 1.370 . S
C521 C525 1.408 . S
C522 C520 1.363 . S
C522 C523 1.370 . S
C522 C526 1.524 . S
C523 C515 1.503 . S
C523 C522 1.370 . S
C523 C524 1.403 . S
C524 C523 1.403 . S
C524 C525 1.404 . S
C524 C527 1.539 . S
C525 C521 1.408 . S
C525 C524 1.404 . S
C525 H537 0.930 . S
C526 C522 1.524 . S
C526 H538 0.956 . S
C526 H539 0.961 . S
C526 H540 0.961 . S
C527 C524 1.539 . S
C527 H541 0.958 . S
C527 H542 0.961 . S
C527 H543 0.960 . S
H528 C512 0.931 . S
H529 C517 0.929 . S
H530 C518 0.960 . S
H531 C518 0.962 . S
H532 C518 0.960 . S
H533 C519 0.961 . S
H534 C519 0.961 . S
H535 C519 0.961 . S
H536 C520 0.931 . S
H537 C525 0.930 . S
H538 C526 0.956 . S
H539 C526 0.961 . S
H540 C526 0.961 . S
H541 C527 0.958 . S
H542 C527 0.961 . S
H543 C527 0.960 . S
C544 C545 1.391 . S
C544 C546 1.394 . S
C544 H560 0.931 . S
C545 C544 1.391 . S
C545 C549 1.376 . S
C546 C544 1.394 . S
C546 C547 1.369 . S
C546 C550 1.531 . S
C547 C546 1.369 . S
C547 C548 1.410 . S
C547 C555 1.503 . S
C548 C547 1.410 . S
C548 C549 1.392 . S
C548 C551 1.511 . S
C549 C545 1.376 . S
C549 C548 1.392 . S
C549 H561 0.929 . S
C550 C546 1.531 . S
C550 H562 0.960 . S
C550 H563 0.962 . S
C550 H564 0.960 . S
C551 C548 1.511 . S
C551 H565 0.961 . S
C551 H566 0.961 . S
C551 H567 0.961 . S
C552 C553 1.370 . S
C552 C554 1.363 . S
C552 H568 0.931 . S
C553 C552 1.370 . S
C553 C557 1.408 . S
C554 C552 1.363 . S
C554 C555 1.370 . S
C554 C558 1.524 . S
C555 C547 1.503 . S
C555 C554 1.370 . S
C555 C556 1.403 . S
C556 C555 1.403 . S
C556 C557 1.404 . S
C556 C559 1.539 . S
C557 C553 1.408 . S
C557 C556 1.404 . S
C557 H569 0.930 . S
C558 C554 1.524 . S
C558 H570 0.956 . S
C558 H571 0.961 . S
C558 H572 0.961 . S
C559 C556 1.539 . S
C559 H573 0.958 . S
C559 H574 0.961 . S
C559 H575 0.960 . S
H560 C544 0.931 . S
H561 C549 0.929 . S
H562 C550 0.960 . S
H563 C550 0.962 . S
H564 C550 0.960 . S
H565 C551 0.961 . S
H566 C551 0.961 . S
H567 C551 0.961 . S
H568 C552 0.931 . S
H569 C557 0.930 . S
H570 C558 0.956 . S
H571 C558 0.961 . S
H572 C558 0.961 . S
H573 C559 0.958 . S
H574 C559 0.961 . S
H575 C559 0.960 . S
C576 C577 1.391 . S
C576 C578 1.394 . S
C576 H592 0.931 . S
C577 C576 1.391 . S
C577 C581 1.376 . S
C578 C576 1.394 . S
C578 C579 1.369 . S
C578 C582 1.531 . S
C579 C578 1.369 . S
C579 C580 1.410 . S
C579 C587 1.503 . S
C580 C579 1.410 . S
C580 C581 1.392 . S
C580 C583 1.511 . S
C581 C577 1.376 . S
C581 C580 1.392 . S
C581 H593 0.929 . S
C582 C578 1.531 . S
C582 H594 0.960 . S
C582 H595 0.962 . S
C582 H596 0.960 . S
C583 C580 1.511 . S
C583 H597 0.961 . S
C583 H598 0.961 . S
C583 H599 0.961 . S
C584 C585 1.370 . S
C584 C586 1.363 . S
C584 H600 0.931 . S
C585 C584 1.370 . S
C585 C589 1.408 . S
C586 C584 1.363 . S
C586 C587 1.370 . S
C586 C590 1.524 . S
C587 C579 1.503 . S
C587 C586 1.370 . S
C587 C588 1.403 . S
C588 C587 1.403 . S
C588 C589 1.404 . S
C588 C591 1.539 . S
C589 C585 1.408 . S
C589 C588 1.404 . S
C589 H601 0.930 . S
C590 C586 1.524 . S
C590 H602 0.956 . S
C590 H603 0.961 . S
C590 H604 0.961 . S
C591 C588 1.539 . S
C591 H605 0.958 . S
C591 H606 0.961 . S
C591 H607 0.960 . S
H592 C576 0.931 . S
H593 C581 0.929 . S
H594 C582 0.960 . S
H595 C582 0.962 . S
H596 C582 0.960 . S
H597 C583 0.961 . S
H598 C583 0.961 . S
H599 C583 0.961 . S
H600 C584 0.931 . S
H601 C589 0.930 . S
H602 C590 0.956 . S
H603 C590 0.961 . S
H604 C590 0.961 . S
H605 C591 0.958 . S
H606 C591 0.961 . S
H607 C591 0.960 . S
C608 C609 1.391 . S
C608 C610 1.394 . S
C608 H624 0.931 . S
C609 C608 1.391 . S
C609 C613 1.376 . S
C610 C608 1.394 . S
C610 C611 1.369 . S
C610 C614 1.531 . S
C611 C610 1.369 . S
C611 C612 1.410 . S
C611 C619 1.503 . S
C612 C611 1.410 . S
C612 C613 1.392 . S
C612 C615 1.511 . S
C613 C609 1.376 . S
C613 C612 1.392 . S
C613 H625 0.929 . S
C614 C610 1.531 . S
C614 H626 0.960 . S
C614 H627 0.962 . S
C614 H628 0.960 . S
C615 C612 1.511 . S
C615 H629 0.961 . S
C615 H630 0.961 . S
C615 H631 0.961 . S
C616 C617 1.370 . S
C616 C618 1.363 . S
C616 H632 0.931 . S
C617 C616 1.370 . S
C617 C621 1.408 . S
C618 C616 1.363 . S
C618 C619 1.370 . S
C618 C622 1.524 . S
C619 C611 1.503 . S
C619 C618 1.370 . S
C619 C620 1.403 . S
C620 C619 1.403 . S
C620 C621 1.404 . S
C620 C623 1.539 . S
C621 C617 1.408 . S
C621 C620 1.404 . S
C621 H633 0.930 . S
C622 C618 1.524 . S
C622 H634 0.956 . S
C622 H635 0.961 . S
C622 H636 0.961 . S
C623 C620 1.539 . S
C623 H637 0.958 . S
C623 H638 0.961 . S
C623 H639 0.960 . S
H624 C608 0.931 . S
H625 C613 0.929 . S
H626 C614 0.960 . S
H627 C614 0.962 . S
H628 C614 0.960 . S
H629 C615 0.961 . S
H630 C615 0.961 . S
H631 C615 0.961 . S
H632 C616 0.931 . S
H633 C621 0.930 . S
H634 C622 0.956 . S
H635 C622 0.961 . S
H636 C622 0.961 . S
H637 C623 0.958 . S
H638 C623 0.961 . S
H639 C623 0.960 . S
C640 C641 1.391 . S
C640 C642 1.394 . S
C640 H656 0.931 . S
C641 C640 1.391 . S
C641 C645 1.376 . S
C642 C640 1.394 . S
C642 C643 1.369 . S
C642 C646 1.531 . S
C643 C642 1.369 . S
C643 C644 1.410 . S
C643 C651 1.503 . S
C644 C643 1.410 . S
C644 C645 1.392 . S
C644 C647 1.511 . S
C645 C641 1.376 . S
C645 C644 1.392 . S
C645 H657 0.929 . S
C646 C642 1.531 . S
C646 H658 0.960 . S
C646 H659 0.962 . S
C646 H660 0.960 . S
C647 C644 1.511 . S
C647 H661 0.961 . S
C647 H662 0.961 . S
C647 H663 0.961 . S
C648 C649 1.370 . S
C648 C650 1.363 . S
C648 H664 0.931 . S
C649 C648 1.370 . S
C649 C653 1.408 . S
C650 C648 1.363 . S
C650 C651 1.370 . S
C650 C654 1.524 . S
C651 C643 1.503 . S
C651 C650 1.370 . S
C651 C652 1.403 . S
C652 C651 1.403 . S
C652 C653 1.404 . S
C652 C655 1.539 . S
C653 C649 1.408 . S
C653 C652 1.404 . S
C653 H665 0.930 . S
C654 C650 1.524 . S
C654 H666 0.956 . S
C654 H667 0.961 . S
C654 H668 0.961 . S
C655 C652 1.539 . S
C655 H669 0.958 . S
C655 H670 0.961 . S
C655 H671 0.960 . S
H656 C640 0.931 . S
H657 C645 0.929 . S
H658 C646 0.960 . S
H659 C646 0.962 . S
H660 C646 0.960 . S
H661 C647 0.961 . S
H662 C647 0.961 . S
H663 C647 0.961 . S
H664 C648 0.931 . S
H665 C653 0.930 . S
H666 C654 0.956 . S
H667 C654 0.961 . S
H668 C654 0.961 . S
H669 C655 0.958 . S
H670 C655 0.961 . S
H671 C655 0.960 . S
C672 C673 1.391 . S
C672 C674 1.394 1_455 S
C672 H688 0.931 . S
C673 C672 1.391 . S
C673 C677 1.376 . S
C674 C672 1.394 1_655 S
C674 C675 1.369 . S
C674 C678 1.531 . S
C675 C674 1.369 . S
C675 C676 1.410 . S
C675 C683 1.503 . S
C676 C675 1.410 . S
C676 C677 1.392 1_655 S
C676 C679 1.511 . S
C677 C673 1.376 . S
C677 C676 1.392 1_455 S
C677 H689 0.929 . S
C678 C674 1.531 . S
C678 H690 0.960 . S
C678 H691 0.962 1_655 S
C678 H692 0.960 1_655 S
C679 C676 1.511 . S
C679 H693 0.961 . S
C679 H694 0.961 . S
C679 H695 0.961 . S
C680 C681 1.370 . S
C680 C682 1.363 . S
C680 H696 0.931 . S
C681 C680 1.370 . S
C681 C685 1.408 . S
C682 C680 1.363 . S
C682 C683 1.370 . S
C682 C686 1.524 . S
C683 C675 1.503 . S
C683 C682 1.370 . S
C683 C684 1.403 . S
C684 C683 1.403 . S
C684 C685 1.404 . S
C684 C687 1.539 . S
C685 C681 1.408 . S
C685 C684 1.404 . S
C685 H697 0.930 . S
C686 C682 1.524 . S
C686 H698 0.956 . S
C686 H699 0.961 . S
C686 H700 0.961 . S
C687 C684 1.539 . S
C687 H701 0.958 . S
C687 H702 0.961 . S
C687 H703 0.960 . S
H688 C672 0.931 . S
H689 C677 0.929 . S
H690 C678 0.960 . S
H691 C678 0.962 1_455 S
H692 C678 0.960 1_455 S
H693 C679 0.961 . S
H694 C679 0.961 . S
H695 C679 0.961 . S
H696 C680 0.931 . S
H697 C685 0.930 . S
H698 C686 0.956 . S
H699 C686 0.961 . S
H700 C686 0.961 . S
H701 C687 0.958 . S
H702 C687 0.961 . S
H703 C687 0.960 . S
C704 C705 1.391 . S
C704 C706 1.394 . S
C704 H720 0.931 . S
C705 C704 1.391 . S
C705 C709 1.376 . S
C706 C704 1.394 . S
C706 C707 1.369 . S
C706 C710 1.531 . S
C707 C706 1.369 . S
C707 C708 1.410 . S
C707 C715 1.503 . S
C708 C707 1.410 . S
C708 C709 1.392 . S
C708 C711 1.511 . S
C709 C705 1.376 . S
C709 C708 1.392 . S
C709 H721 0.929 . S
C710 C706 1.531 . S
C710 H722 0.960 . S
C710 H723 0.962 . S
C710 H724 0.960 . S
C711 C708 1.511 . S
C711 H725 0.961 . S
C711 H726 0.961 . S
C711 H727 0.961 . S
C712 C713 1.370 . S
C712 C714 1.363 . S
C712 H728 0.931 . S
C713 C712 1.370 . S
C713 C717 1.408 . S
C714 C712 1.363 . S
C714 C715 1.370 . S
C714 C718 1.524 . S
C715 C707 1.503 . S
C715 C714 1.370 . S
C715 C716 1.403 . S
C716 C715 1.403 . S
C716 C717 1.404 . S
C716 C719 1.539 . S
C717 C713 1.408 . S
C717 C716 1.404 . S
C717 H729 0.930 . S
C718 C714 1.524 . S
C718 H730 0.956 . S
C718 H731 0.961 . S
C718 H732 0.961 . S
C719 C716 1.539 . S
C719 H733 0.958 . S
C719 H734 0.961 . S
C719 H735 0.960 . S
H720 C704 0.931 . S
H721 C709 0.929 . S
H722 C710 0.960 . S
H723 C710 0.962 . S
H724 C710 0.960 . S
H725 C711 0.961 . S
H726 C711 0.961 . S
H727 C711 0.961 . S
H728 C712 0.931 . S
H729 C717 0.930 . S
H730 C718 0.956 . S
H731 C718 0.961 . S
H732 C718 0.961 . S
H733 C719 0.958 . S
H734 C719 0.961 . S
H735 C719 0.960 . S
C736 C737 1.391 . S
C736 C738 1.394 . S
C736 H752 0.931 . S
C737 C736 1.391 . S
C737 C741 1.376 . S
C738 C736 1.394 . S
C738 C739 1.369 . S
C738 C742 1.531 . S
C739 C738 1.369 . S
C739 C740 1.410 . S
C739 C747 1.503 . S
C740 C739 1.410 . S
C740 C741 1.392 . S
C740 C743 1.511 . S
C741 C737 1.376 . S
C741 C740 1.392 . S
C741 H753 0.929 . S
C742 C738 1.531 . S
C742 H754 0.960 . S
C742 H755 0.962 . S
C742 H756 0.960 . S
C743 C740 1.511 . S
C743 H757 0.961 . S
C743 H758 0.961 . S
C743 H759 0.961 . S
C744 C745 1.355 1_455 S
C744 C746 1.377 . S
C744 H760 0.932 . S
C745 C744 1.355 1_655 S
C745 C749 1.408 . S
C746 C744 1.377 . S
C746 C747 1.370 . S
C746 C750 1.524 . S
C747 C739 1.503 . S
C747 C746 1.370 . S
C747 C748 1.403 1_455 S
C748 C747 1.403 1_655 S
C748 C749 1.404 . S
C748 C751 1.539 . S
C749 C745 1.408 . S
C749 C748 1.404 . S
C749 H761 0.930 . S
C750 C746 1.524 . S
C750 H762 0.956 . S
C750 H763 0.961 . S
C750 H764 0.961 . S
C751 C748 1.539 . S
C751 H765 0.958 . S
C751 H766 0.961 . S
C751 H767 0.960 1_655 S
H752 C736 0.931 . S
H753 C741 0.929 . S
H754 C742 0.960 . S
H755 C742 0.962 . S
H756 C742 0.960 . S
H757 C743 0.961 . S
H758 C743 0.961 . S
H759 C743 0.961 . S
H760 C744 0.932 . S
H761 C749 0.930 . S
H762 C750 0.956 . S
H763 C750 0.961 . S
H764 C750 0.961 . S
H765 C751 0.958 . S
H766 C751 0.961 . S
H767 C751 0.960 1_455 S
C768 C769 1.391 . S
C768 C770 1.394 . S
C768 H784 0.931 . S
C769 C768 1.391 . S
C769 C773 1.376 . S
C770 C768 1.394 . S
C770 C771 1.369 . S
C770 C774 1.531 . S
C771 C770 1.369 . S
C771 C772 1.410 . S
C771 C779 1.503 . S
C772 C771 1.410 . S
C772 C773 1.392 . S
C772 C775 1.511 . S
C773 C769 1.376 . S
C773 C772 1.392 . S
C773 H785 0.929 . S
C774 C770 1.531 . S
C774 H786 0.960 . S
C774 H787 0.962 . S
C774 H788 0.960 . S
C775 C772 1.511 . S
C775 H789 0.961 . S
C775 H790 0.961 . S
C775 H791 0.961 . S
C776 C777 1.370 . S
C776 C778 1.363 . S
C776 H792 0.931 . S
C777 C776 1.370 . S
C777 C781 1.408 . S
C778 C776 1.363 . S
C778 C779 1.370 . S
C778 C782 1.524 . S
C779 C771 1.503 . S
C779 C778 1.370 . S
C779 C780 1.403 . S
C780 C779 1.403 . S
C780 C781 1.404 . S
C780 C783 1.539 . S
C781 C777 1.408 . S
C781 C780 1.404 . S
C781 H793 0.930 . S
C782 C778 1.524 . S
C782 H794 0.956 . S
C782 H795 0.961 . S
C782 H796 0.961 . S
C783 C780 1.539 . S
C783 H797 0.958 . S
C783 H798 0.961 . S
C783 H799 0.960 . S
H784 C768 0.931 . S
H785 C773 0.929 . S
H786 C774 0.960 . S
H787 C774 0.962 . S
H788 C774 0.960 . S
H789 C775 0.961 . S
H790 C775 0.961 . S
H791 C775 0.961 . S
H792 C776 0.931 . S
H793 C781 0.930 . S
H794 C782 0.956 . S
H795 C782 0.961 . S
H796 C782 0.961 . S
H797 C783 0.958 . S
H798 C783 0.961 . S
H799 C783 0.960 . S
C800 C801 1.391 . S
C800 C802 1.394 . S
C800 H816 0.931 . S
C801 C800 1.391 . S
C801 C805 1.376 . S
C802 C800 1.394 . S
C802 C803 1.369 . S
C802 C806 1.531 . S
C803 C802 1.369 . S
C803 C804 1.410 . S
C803 C811 1.503 . S
C804 C803 1.410 . S
C804 C805 1.392 . S
C804 C807 1.511 . S
C805 C801 1.376 . S
C805 C804 1.392 . S
C805 H817 0.929 . S
C806 C802 1.531 . S
C806 H818 0.960 . S
C806 H819 0.962 . S
C806 H820 0.960 . S
C807 C804 1.511 . S
C807 H821 0.961 . S
C807 H822 0.961 . S
C807 H823 0.961 . S
C808 C809 1.370 . S
C808 C810 1.363 . S
C808 H824 0.931 . S
C809 C808 1.370 . S
C809 C813 1.408 . S
C810 C808 1.363 . S
C810 C811 1.370 . S
C810 C814 1.524 . S
C811 C803 1.503 . S
C811 C810 1.370 . S
C811 C812 1.403 . S
C812 C811 1.403 . S
C812 C813 1.404 . S
C812 C815 1.539 . S
C813 C809 1.408 . S
C813 C812 1.404 . S
C813 H825 0.930 . S
C814 C810 1.524 . S
C814 H826 0.956 . S
C814 H827 0.961 . S
C814 H828 0.961 . S
C815 C812 1.539 . S
C815 H829 0.958 . S
C815 H830 0.961 . S
C815 H831 0.960 . S
H816 C800 0.931 . S
H817 C805 0.929 . S
H818 C806 0.960 . S
H819 C806 0.962 . S
H820 C806 0.960 . S
H821 C807 0.961 . S
H822 C807 0.961 . S
H823 C807 0.961 . S
H824 C808 0.931 . S
H825 C813 0.930 . S
H826 C814 0.956 . S
H827 C814 0.961 . S
H828 C814 0.961 . S
H829 C815 0.958 . S
H830 C815 0.961 . S
H831 C815 0.960 . S
C832 C833 1.391 . S
C832 C834 1.394 . S
C832 H848 0.931 . S
C833 C832 1.391 . S
C833 C837 1.376 . S
C834 C832 1.394 . S
C834 C835 1.369 . S
C834 C838 1.531 . S
C835 C834 1.369 . S
C835 C836 1.410 . S
C835 C843 1.503 . S
C836 C835 1.410 . S
C836 C837 1.392 . S
C836 C839 1.511 . S
C837 C833 1.376 . S
C837 C836 1.392 . S
C837 H849 0.929 . S
C838 C834 1.531 . S
C838 H850 0.960 . S
C838 H851 0.962 . S
C838 H852 0.960 . S
C839 C836 1.511 . S
C839 H853 0.961 . S
C839 H854 0.961 . S
C839 H855 0.961 . S
C840 C841 1.370 . S
C840 C842 1.363 . S
C840 H856 0.931 . S
C841 C840 1.370 . S
C841 C845 1.408 . S
C842 C840 1.363 . S
C842 C843 1.370 . S
C842 C846 1.524 . S
C843 C835 1.503 . S
C843 C842 1.370 . S
C843 C844 1.403 . S
C844 C843 1.403 . S
C844 C845 1.404 . S
C844 C847 1.539 . S
C845 C841 1.408 . S
C845 C844 1.404 . S
C845 H857 0.930 . S
C846 C842 1.524 . S
C846 H858 0.956 . S
C846 H859 0.961 . S
C846 H860 0.961 . S
C847 C844 1.539 . S
C847 H861 0.958 . S
C847 H862 0.961 . S
C847 H863 0.960 . S
H848 C832 0.931 . S
H849 C837 0.929 . S
H850 C838 0.960 . S
H851 C838 0.962 . S
H852 C838 0.960 . S
H853 C839 0.961 . S
H854 C839 0.961 . S
H855 C839 0.961 . S
H856 C840 0.931 . S
H857 C845 0.930 . S
H858 C846 0.956 . S
H859 C846 0.961 . S
H860 C846 0.961 . S
H861 C847 0.958 . S
H862 C847 0.961 . S
H863 C847 0.960 . S
C864 C865 1.391 . S
C864 C866 1.394 . S
C864 H880 0.931 . S
C865 C864 1.391 . S
C865 C869 1.376 . S
C866 C864 1.394 . S
C866 C867 1.369 . S
C866 C870 1.531 . S
C867 C866 1.369 . S
C867 C868 1.410 . S
C867 C875 1.503 . S
C868 C867 1.410 . S
C868 C869 1.392 . S
C868 C871 1.511 . S
C869 C865 1.376 . S
C869 C868 1.392 . S
C869 H881 0.929 . S
C870 C866 1.531 . S
C870 H882 0.960 . S
C870 H883 0.962 . S
C870 H884 0.960 . S
C871 C868 1.511 . S
C871 H885 0.961 . S
C871 H886 0.961 . S
C871 H887 0.961 . S
C872 C873 1.370 . S
C872 C874 1.363 . S
C872 H888 0.931 . S
C873 C872 1.370 . S
C873 C877 1.408 . S
C874 C872 1.363 . S
C874 C875 1.370 . S
C874 C878 1.524 . S
C875 C867 1.503 . S
C875 C874 1.370 . S
C875 C876 1.403 . S
C876 C875 1.403 . S
C876 C877 1.404 . S
C876 C879 1.539 . S
C877 C873 1.408 . S
C877 C876 1.404 . S
C877 H889 0.930 . S
C878 C874 1.524 . S
C878 H890 0.956 . S
C878 H891 0.961 . S
C878 H892 0.961 . S
C879 C876 1.539 . S
C879 H893 0.958 . S
C879 H894 0.961 . S
C879 H895 0.960 . S
H880 C864 0.931 . S
H881 C869 0.929 . S
H882 C870 0.960 . S
H883 C870 0.962 . S
H884 C870 0.960 . S
H885 C871 0.961 . S
H886 C871 0.961 . S
H887 C871 0.961 . S
H888 C872 0.931 . S
H889 C877 0.930 . S
H890 C878 0.956 . S
H891 C878 0.961 . S
H892 C878 0.961 . S
H893 C879 0.958 . S
H894 C879 0.961 . S
H895 C879 0.960 . S
C896 C897 1.391 . S
C896 C898 1.394 . S
C896 H912 0.931 . S
C897 C896 1.391 . S
C897 C901 1.376 . S
C898 C896 1.394 . S
C898 C899 1.369 . S
C898 C902 1.531 . S
C899 C898 1.369 . S
C899 C900 1.410 . S
C899 C907 1.503 . S
C900 C899 1.410 . S
C900 C901 1.392 . S
C900 C903 1.511 . S
C901 C897 1.376 . S
C901 C900 1.392 . S
C901 H913 0.929 . S
C902 C898 1.531 . S
C902 H914 0.960 . S
C902 H915 0.962 . S
C902 H916 0.960 . S
C903 C900 1.511 . S
C903 H917 0.961 . S
C903 H918 0.961 . S
C903 H919 0.961 . S
C904 C905 1.370 . S
C904 C906 1.363 . S
C904 H920 0.931 . S
C905 C904 1.370 . S
C905 C909 1.408 . S
C906 C904 1.363 . S
C906 C907 1.370 . S
C906 C910 1.524 . S
C907 C899 1.503 . S
C907 C906 1.370 . S
C907 C908 1.403 . S
C908 C907 1.403 . S
C908 C909 1.404 . S
C908 C911 1.539 . S
C909 C905 1.408 . S
C909 C908 1.404 . S
C909 H921 0.930 . S
C910 C906 1.524 . S
C910 H922 0.956 . S
C910 H923 0.961 . S
C910 H924 0.961 . S
C911 C908 1.539 . S
C911 H925 0.958 . S
C911 H926 0.961 . S
C911 H927 0.960 . S
H912 C896 0.931 . S
H913 C901 0.929 . S
H914 C902 0.960 . S
H915 C902 0.962 . S
H916 C902 0.960 . S
H917 C903 0.961 . S
H918 C903 0.961 . S
H919 C903 0.961 . S
H920 C904 0.931 . S
H921 C909 0.930 . S
H922 C910 0.956 . S
H923 C910 0.961 . S
H924 C910 0.961 . S
H925 C911 0.958 . S
H926 C911 0.961 . S
H927 C911 0.960 . S
C928 C929 1.391 . S
C928 C930 1.394 . S
C928 H944 0.931 . S
C929 C928 1.391 . S
C929 C933 1.376 . S
C930 C928 1.394 . S
C930 C931 1.369 . S
C930 C934 1.531 . S
C931 C930 1.369 . S
C931 C932 1.410 . S
C931 C939 1.503 . S
C932 C931 1.410 . S
C932 C933 1.392 . S
C932 C935 1.511 . S
C933 C929 1.376 . S
C933 C932 1.392 . S
C933 H945 0.929 . S
C934 C930 1.531 . S
C934 H946 0.960 . S
C934 H947 0.962 . S
C934 H948 0.960 . S
C935 C932 1.511 . S
C935 H949 0.961 . S
C935 H950 0.961 . S
C935 H951 0.961 . S
C936 C937 1.370 . S
C936 C938 1.363 1_655 S
C936 H952 0.931 . S
C937 C936 1.370 . S
C937 C941 1.408 . S
C938 C936 1.363 1_455 S
C938 C939 1.370 . S
C938 C942 1.524 . S
C939 C931 1.503 . S
C939 C938 1.370 . S
C939 C940 1.403 . S
C940 C939 1.403 . S
C940 C941 1.404 1_455 S
C940 C943 1.539 . S
C941 C937 1.408 . S
C941 C940 1.404 1_655 S
C941 H953 0.930 . S
C942 C938 1.524 . S
C942 H954 0.956 . S
C942 H955 0.961 . S
C942 H956 0.961 . S
C943 C940 1.539 . S
C943 H957 0.958 . S
C943 H958 0.961 . S
C943 H959 0.960 . S
H944 C928 0.931 . S
H945 C933 0.929 . S
H946 C934 0.960 . S
H947 C934 0.962 . S
H948 C934 0.960 . S
H949 C935 0.961 . S
H950 C935 0.961 . S
H951 C935 0.961 . S
H952 C936 0.931 . S
H953 C941 0.930 . S
H954 C942 0.956 . S
H955 C942 0.961 . S
H956 C942 0.961 . S
H957 C943 0.958 . S
H958 C943 0.961 . S
H959 C943 0.960 . S
C960 C961 1.391 . S
C960 C962 1.394 . S
C960 H976 0.931 . S
C961 C960 1.391 . S
C961 C965 1.376 . S
C962 C960 1.394 . S
C962 C963 1.369 . S
C962 C966 1.531 . S
C963 C962 1.369 . S
C963 C964 1.410 . S
C963 C971 1.503 . S
C964 C963 1.410 . S
C964 C965 1.392 . S
C964 C967 1.511 . S
C965 C961 1.376 . S
C965 C964 1.392 . S
C965 H977 0.929 . S
C966 C962 1.531 . S
C966 H978 0.960 . S
C966 H979 0.962 . S
C966 H980 0.960 . S
C967 C964 1.511 . S
C967 H981 0.961 . S
C967 H982 0.961 . S
C967 H983 0.961 . S
C968 C969 1.370 . S
C968 C970 1.363 . S
C968 H984 0.931 . S
C969 C968 1.370 . S
C969 C973 1.408 . S
C970 C968 1.363 . S
C970 C971 1.370 . S
C970 C974 1.524 . S
C971 C963 1.503 . S
C971 C970 1.370 . S
C971 C972 1.403 . S
C972 C971 1.403 . S
C972 C973 1.404 . S
C972 C975 1.539 . S
C973 C969 1.408 . S
C973 C972 1.404 . S
C973 H985 0.930 . S
C974 C970 1.524 . S
C974 H986 0.956 . S
C974 H987 0.961 . S
C974 H988 0.961 . S
C975 C972 1.539 . S
C975 H989 0.958 . S
C975 H990 0.961 . S
C975 H991 0.960 . S
H976 C960 0.931 . S
H977 C965 0.929 . S
H978 C966 0.960 . S
H979 C966 0.962 . S
H980 C966 0.960 . S
H981 C967 0.961 . S
H982 C967 0.961 . S
H983 C967 0.961 . S
H984 C968 0.931 . S
H985 C973 0.930 . S
H986 C974 0.956 . S
H987 C974 0.961 . S
H988 C974 0.961 . S
H989 C975 0.958 . S
H990 C975 0.961 . S
H991 C975 0.960 . S
C992 C993 1.391 . S
C992 C994 1.394 . S
C992 H1008 0.931 . S
C993 C992 1.391 . S
C993 C997 1.376 . S
C994 C992 1.394 . S
C994 C995 1.369 . S
C994 C998 1.531 . S
C995 C994 1.369 . S
C995 C996 1.410 . S
C995 C1003 1.503 . S
C996 C995 1.410 . S
C996 C997 1.392 . S
C996 C999 1.511 . S
C997 C993 1.376 . S
C997 C996 1.392 . S
C997 H1009 0.929 . S
C998 C994 1.531 . S
C998 H1010 0.960 . S
C998 H1011 0.962 . S
C998 H1012 0.960 . S
C999 C996 1.511 . S
C999 H1013 0.961 . S
C999 H1014 0.961 . S
C999 H1015 0.961 . S
C1000 C1001 1.370 . S
C1000 C1002 1.363 . S
C1000 H1016 0.931 . S
C1001 C1000 1.370 . S
C1001 C1005 1.408 . S
C1002 C1000 1.363 . S
C1002 C1003 1.370 . S
C1002 C1006 1.524 . S
C1003 C995 1.503 . S
C1003 C1002 1.370 . S
C1003 C1004 1.403 . S
C1004 C1003 1.403 . S
C1004 C1005 1.404 . S
C1004 C1007 1.539 . S
C1005 C1001 1.408 . S
C1005 C1004 1.404 . S
C1005 H1017 0.930 . S
C1006 C1002 1.524 . S
C1006 H1018 0.956 . S
C1006 H1019 0.961 . S
C1006 H1020 0.961 . S
C1007 C1004 1.539 . S
C1007 H1021 0.958 . S
C1007 H1022 0.961 . S
C1007 H1023 0.960 . S
H1008 C992 0.931 . S
H1009 C997 0.929 . S
H1010 C998 0.960 . S
H1011 C998 0.962 . S
H1012 C998 0.960 . S
H1013 C999 0.961 . S
H1014 C999 0.961 . S
H1015 C999 0.961 . S
H1016 C1000 0.931 . S
H1017 C1005 0.930 . S
H1018 C1006 0.956 . S
H1019 C1006 0.961 . S
H1020 C1006 0.961 . S
H1021 C1007 0.958 . S
H1022 C1007 0.961 . S
H1023 C1007 0.960 . S
C1024 C1025 1.391 . S
C1024 C1026 1.394 . S
C1024 H1040 0.931 . S
C1025 C1024 1.391 . S
C1025 C1029 1.376 . S
C1026 C1024 1.394 . S
C1026 C1027 1.369 . S
C1026 C1030 1.531 . S
C1027 C1026 1.369 . S
C1027 C1028 1.410 . S
C1027 C1035 1.503 . S
C1028 C1027 1.410 . S
C1028 C1029 1.392 . S
C1028 C1031 1.511 . S
C1029 C1025 1.376 . S
C1029 C1028 1.392 . S
C1029 H1041 0.929 . S
C1030 C1026 1.531 . S
C1030 H1042 0.960 . S
C1030 H1043 0.962 . S
C1030 H1044 0.960 . S
C1031 C1028 1.511 . S
C1031 H1045 0.961 . S
C1031 H1046 0.961 . S
C1031 H1047 0.961 . S
C1032 C1033 1.370 . S
C1032 C1034 1.363 . S
C1032 H1048 0.931 . S
C1033 C1032 1.370 . S
C1033 C1037 1.408 . S
C1034 C1032 1.363 . S
C1034 C1035 1.370 . S
C1034 C1038 1.524 . S
C1035 C1027 1.503 . S
C1035 C1034 1.370 . S
C1035 C1036 1.403 . S
C1036 C1035 1.403 . S
C1036 C1037 1.404 . S
C1036 C1039 1.539 . S
C1037 C1033 1.408 . S
C1037 C1036 1.404 . S
C1037 H1049 0.930 . S
C1038 C1034 1.524 . S
C1038 H1050 0.956 . S
C1038 H1051 0.961 . S
C1038 H1052 0.961 . S
C1039 C1036 1.539 . S
C1039 H1053 0.958 . S
C1039 H1054 0.961 . S
C1039 H1055 0.960 . S
H1040 C1024 0.931 . S
H1041 C1029 0.929 . S
H1042 C1030 0.960 . S
H1043 C1030 0.962 . S
H1044 C1030 0.960 . S
H1045 C1031 0.961 . S
H1046 C1031 0.961 . S
H1047 C1031 0.961 . S
H1048 C1032 0.931 . S
H1049 C1037 0.930 . S
H1050 C1038 0.956 . S
H1051 C1038 0.961 . S
H1052 C1038 0.961 . S
H1053 C1039 0.958 . S
H1054 C1039 0.961 . S
H1055 C1039 0.960 . S
C1056 C1057 1.391 . S
C1056 C1058 1.394 . S
C1056 H1072 0.931 . S
C1057 C1056 1.391 . S
C1057 C1061 1.376 . S
C1058 C1056 1.394 . S
C1058 C1059 1.369 . S
C1058 C1062 1.531 . S
C1059 C1058 1.369 . S
C1059 C1060 1.410 . S
C1059 C1067 1.503 . S
C1060 C1059 1.410 . S
C1060 C1061 1.392 . S
C1060 C1063 1.511 . S
C1061 C1057 1.376 . S
C1061 C1060 1.392 . S
C1061 H1073 0.929 . S
C1062 C1058 1.531 . S
C1062 H1074 0.960 . S
C1062 H1075 0.962 . S
C1062 H1076 0.960 . S
C1063 C1060 1.511 . S
C1063 H1077 0.961 . S
C1063 H1078 0.961 . S
C1063 H1079 0.961 . S
C1064 C1065 1.370 . S
C1064 C1066 1.363 1_655 S
C1064 H1080 0.931 . S
C1065 C1064 1.370 . S
C1065 C1069 1.408 . S
C1066 C1064 1.363 1_455 S
C1066 C1067 1.370 . S
C1066 C1070 1.524 . S
C1067 C1059 1.503 . S
C1067 C1066 1.370 . S
C1067 C1068 1.403 . S
C1068 C1067 1.403 . S
C1068 C1069 1.404 1_455 S
C1068 C1071 1.539 . S
C1069 C1065 1.408 . S
C1069 C1068 1.404 1_655 S
C1069 H1081 0.930 . S
C1070 C1066 1.524 . S
C1070 H1082 0.956 . S
C1070 H1083 0.961 . S
C1070 H1084 0.961 . S
C1071 C1068 1.539 . S
C1071 H1085 0.958 . S
C1071 H1086 0.961 . S
C1071 H1087 0.960 . S
H1072 C1056 0.931 . S
H1073 C1061 0.929 . S
H1074 C1062 0.960 . S
H1075 C1062 0.962 . S
H1076 C1062 0.960 . S
H1077 C1063 0.961 . S
H1078 C1063 0.961 . S
H1079 C1063 0.961 . S
H1080 C1064 0.931 . S
H1081 C1069 0.930 . S
H1082 C1070 0.956 . S
H1083 C1070 0.961 . S
H1084 C1070 0.961 . S
H1085 C1071 0.958 . S
H1086 C1071 0.961 . S
H1087 C1071 0.960 . S
C1088 C1089 1.391 . S
C1088 C1090 1.394 . S
C1088 H1104 0.931 . S
C1089 C1088 1.391 . S
C1089 C1093 1.376 . S
C1090 C1088 1.394 . S
C1090 C1091 1.369 . S
C1090 C1094 1.531 . S
C1091 C1090 1.369 . S
C1091 C1092 1.410 . S
C1091 C1099 1.503 . S
C1092 C1091 1.410 . S
C1092 C1093 1.392 . S
C1092 C1095 1.511 . S
C1093 C1089 1.376 . S
C1093 C1092 1.392 . S
C1093 H1105 0.929 . S
C1094 C1090 1.531 . S
C1094 H1106 0.960 . S
C1094 H1107 0.962 . S
C1094 H1108 0.960 . S
C1095 C1092 1.511 . S
C1095 H1109 0.961 . S
C1095 H1110 0.961 . S
C1095 H1111 0.961 . S
C1096 C1097 1.370 . S
C1096 C1098 1.363 . S
C1096 H1112 0.931 . S
C1097 C1096 1.370 . S
C1097 C1101 1.408 . S
C1098 C1096 1.363 . S
C1098 C1099 1.370 . S
C1098 C1102 1.524 . S
C1099 C1091 1.503 . S
C1099 C1098 1.370 . S
C1099 C1100 1.403 . S
C1100 C1099 1.403 . S
C1100 C1101 1.404 . S
C1100 C1103 1.539 . S
C1101 C1097 1.408 . S
C1101 C1100 1.404 . S
C1101 H1113 0.930 . S
C1102 C1098 1.524 . S
C1102 H1114 0.956 . S
C1102 H1115 0.961 . S
C1102 H1116 0.961 . S
C1103 C1100 1.539 . S
C1103 H1117 0.958 . S
C1103 H1118 0.961 . S
C1103 H1119 0.960 . S
H1104 C1088 0.931 . S
H1105 C1093 0.929 . S
H1106 C1094 0.960 . S
H1107 C1094 0.962 . S
H1108 C1094 0.960 . S
H1109 C1095 0.961 . S
H1110 C1095 0.961 . S
H1111 C1095 0.961 . S
H1112 C1096 0.931 . S
H1113 C1101 0.930 . S
H1114 C1102 0.956 . S
H1115 C1102 0.961 . S
H1116 C1102 0.961 . S
H1117 C1103 0.958 . S
H1118 C1103 0.961 . S
H1119 C1103 0.960 . S
C1120 C1121 1.391 . S
C1120 C1122 1.394 . S
C1120 H1136 0.931 . S
C1121 C1120 1.391 . S
C1121 C1125 1.376 . S
C1122 C1120 1.394 . S
C1122 C1123 1.369 . S
C1122 C1126 1.531 . S
C1123 C1122 1.369 . S
C1123 C1124 1.410 . S
C1123 C1131 1.503 . S
C1124 C1123 1.410 . S
C1124 C1125 1.392 . S
C1124 C1127 1.511 . S
C1125 C1121 1.376 . S
C1125 C1124 1.392 . S
C1125 H1137 0.929 . S
C1126 C1122 1.531 . S
C1126 H1138 0.960 . S
C1126 H1139 0.962 . S
C1126 H1140 0.960 . S
C1127 C1124 1.511 . S
C1127 H1141 0.961 . S
C1127 H1142 0.961 . S
C1127 H1143 0.961 . S
C1128 C1129 1.370 . S
C1128 C1130 1.363 1_655 S
C1128 H1144 0.931 . S
C1129 C1128 1.370 . S
C1129 C1133 1.408 . S
C1130 C1128 1.363 1_455 S
C1130 C1131 1.370 . S
C1130 C1134 1.524 . S
C1131 C1123 1.503 . S
C1131 C1130 1.370 . S
C1131 C1132 1.377 1_455 S
C1132 C1131 1.377 1_655 S
C1132 C1133 1.431 . S
C1132 C1135 1.540 . S
C1133 C1129 1.408 . S
C1133 C1132 1.431 . S
C1133 H1145 0.930 . S
C1134 C1130 1.524 . S
C1134 H1146 0.956 . S
C1134 H1147 0.961 . S
C1134 H1148 0.961 . S
C1135 C1132 1.540 . S
C1135 H1149 0.958 1_655 S
C1135 H1150 0.961 . S
C1135 H1151 0.960 1_655 S
H1136 C1120 0.931 . S
H1137 C1125 0.929 . S
H1138 C1126 0.960 . S
H1139 C1126 0.962 . S
H1140 C1126 0.960 . S
H1141 C1127 0.961 . S
H1142 C1127 0.961 . S
H1143 C1127 0.961 . S
H1144 C1128 0.931 . S
H1145 C1133 0.930 . S
H1146 C1134 0.956 . S
H1147 C1134 0.961 . S
H1148 C1134 0.961 . S
H1149 C1135 0.958 1_455 S
H1150 C1135 0.961 . S
H1151 C1135 0.960 1_455 S
C1152 C1153 1.391 . S
C1152 C1154 1.394 . S
C1152 H1168 0.931 . S
C1153 C1152 1.391 . S
C1153 C1157 1.376 . S
C1154 C1152 1.394 . S
C1154 C1155 1.369 . S
C1154 C1158 1.531 . S
C1155 C1154 1.369 . S
C1155 C1156 1.410 . S
C1155 C1163 1.503 . S
C1156 C1155 1.410 . S
C1156 C1157 1.392 . S
C1156 C1159 1.511 . S
C1157 C1153 1.376 . S
C1157 C1156 1.392 . S
C1157 H1169 0.929 . S
C1158 C1154 1.531 . S
C1158 H1170 0.960 . S
C1158 H1171 0.962 . S
C1158 H1172 0.960 . S
C1159 C1156 1.511 . S
C1159 H1173 0.961 . S
C1159 H1174 0.961 . S
C1159 H1175 0.961 . S
C1160 C1161 1.370 . S
C1160 C1162 1.363 . S
C1160 H1176 0.931 . S
C1161 C1160 1.370 . S
C1161 C1165 1.408 . S
C1162 C1160 1.363 . S
C1162 C1163 1.370 . S
C1162 C1166 1.524 . S
C1163 C1155 1.503 . S
C1163 C1162 1.370 . S
C1163 C1164 1.403 . S
C1164 C1163 1.403 . S
C1164 C1165 1.404 . S
C1164 C1167 1.539 . S
C1165 C1161 1.408 . S
C1165 C1164 1.404 . S
C1165 H1177 0.930 . S
C1166 C1162 1.524 . S
C1166 H1178 0.956 . S
C1166 H1179 0.961 . S
C1166 H1180 0.961 . S
C1167 C1164 1.539 . S
C1167 H1181 0.958 . S
C1167 H1182 0.961 . S
C1167 H1183 0.960 . S
H1168 C1152 0.931 . S
H1169 C1157 0.929 . S
H1170 C1158 0.960 . S
H1171 C1158 0.962 . S
H1172 C1158 0.960 . S
H1173 C1159 0.961 . S
H1174 C1159 0.961 . S
H1175 C1159 0.961 . S
H1176 C1160 0.931 . S
H1177 C1165 0.930 . S
H1178 C1166 0.956 . S
H1179 C1166 0.961 . S
H1180 C1166 0.961 . S
H1181 C1167 0.958 . S
H1182 C1167 0.961 . S
H1183 C1167 0.960 . S
C1184 C1185 1.391 . S
C1184 C1186 1.394 . S
C1184 H1200 0.931 . S
C1185 C1184 1.391 . S
C1185 C1189 1.376 . S
C1186 C1184 1.394 . S
C1186 C1187 1.369 . S
C1186 C1190 1.531 . S
C1187 C1186 1.369 . S
C1187 C1188 1.410 . S
C1187 C1195 1.503 . S
C1188 C1187 1.410 . S
C1188 C1189 1.392 . S
C1188 C1191 1.511 . S
C1189 C1185 1.376 . S
C1189 C1188 1.392 . S
C1189 H1201 0.929 . S
C1190 C1186 1.531 . S
C1190 H1202 0.960 . S
C1190 H1203 0.962 . S
C1190 H1204 0.960 . S
C1191 C1188 1.511 . S
C1191 H1205 0.961 . S
C1191 H1206 0.961 . S
C1191 H1207 0.961 . S
C1192 C1193 1.370 . S
C1192 C1194 1.363 . S
C1192 H1208 0.931 . S
C1193 C1192 1.370 . S
C1193 C1197 1.408 . S
C1194 C1192 1.363 . S
C1194 C1195 1.370 . S
C1194 C1198 1.524 . S
C1195 C1187 1.503 . S
C1195 C1194 1.370 . S
C1195 C1196 1.403 . S
C1196 C1195 1.403 . S
C1196 C1197 1.404 . S
C1196 C1199 1.539 . S
C1197 C1193 1.408 . S
C1197 C1196 1.404 . S
C1197 H1209 0.930 . S
C1198 C1194 1.524 . S
C1198 H1210 0.956 . S
C1198 H1211 0.961 . S
C1198 H1212 0.961 . S
C1199 C1196 1.539 . S
C1199 H1213 0.958 . S
C1199 H1214 0.961 . S
C1199 H1215 0.960 . S
H1200 C1184 0.931 . S
H1201 C1189 0.929 . S
H1202 C1190 0.960 . S
H1203 C1190 0.962 . S
H1204 C1190 0.960 . S
H1205 C1191 0.961 . S
H1206 C1191 0.961 . S
H1207 C1191 0.961 . S
H1208 C1192 0.931 . S
H1209 C1197 0.930 . S
H1210 C1198 0.956 . S
H1211 C1198 0.961 . S
H1212 C1198 0.961 . S
H1213 C1199 0.958 . S
H1214 C1199 0.961 . S
H1215 C1199 0.960 . S
C1216 C1217 1.391 . S
C1216 C1218 1.394 . S
C1216 H1232 0.931 . S
C1217 C1216 1.391 . S
C1217 C1221 1.376 . S
C1218 C1216 1.394 . S
C1218 C1219 1.369 . S
C1218 C1222 1.531 . S
C1219 C1218 1.369 . S
C1219 C1220 1.410 . S
C1219 C1227 1.503 . S
C1220 C1219 1.410 . S
C1220 C1221 1.392 . S
C1220 C1223 1.511 . S
C1221 C1217 1.376 . S
C1221 C1220 1.392 . S
C1221 H1233 0.929 . S
C1222 C1218 1.531 . S
C1222 H1234 0.960 . S
C1222 H1235 0.962 . S
C1222 H1236 0.960 . S
C1223 C1220 1.511 . S
C1223 H1237 0.961 . S
C1223 H1238 0.961 . S
C1223 H1239 0.961 . S
C1224 C1225 1.370 . S
C1224 C1226 1.363 . S
C1224 H1240 0.931 . S
C1225 C1224 1.370 . S
C1225 C1229 1.408 . S
C1226 C1224 1.363 . S
C1226 C1227 1.370 . S
C1226 C1230 1.524 . S
C1227 C1219 1.503 . S
C1227 C1226 1.370 . S
C1227 C1228 1.403 . S
C1228 C1227 1.403 . S
C1228 C1229 1.404 . S
C1228 C1231 1.539 . S
C1229 C1225 1.408 . S
C1229 C1228 1.404 . S
C1229 H1241 0.930 . S
C1230 C1226 1.524 . S
C1230 H1242 0.956 . S
C1230 H1243 0.961 . S
C1230 H1244 0.961 . S
C1231 C1228 1.539 . S
C1231 H1245 0.958 . S
C1231 H1246 0.961 . S
C1231 H1247 0.960 . S
H1232 C1216 0.931 . S
H1233 C1221 0.929 . S
H1234 C1222 0.960 . S
H1235 C1222 0.962 . S
H1236 C1222 0.960 . S
H1237 C1223 0.961 . S
H1238 C1223 0.961 . S
H1239 C1223 0.961 . S
H1240 C1224 0.931 . S
H1241 C1229 0.930 . S
H1242 C1230 0.956 . S
H1243 C1230 0.961 . S
H1244 C1230 0.961 . S
H1245 C1231 0.958 . S
H1246 C1231 0.961 . S
H1247 C1231 0.960 . S
C1248 C1249 1.391 . S
C1248 C1250 1.394 . S
C1248 H1264 0.931 . S
C1249 C1248 1.391 . S
C1249 C1253 1.376 . S
C1250 C1248 1.394 . S
C1250 C1251 1.369 . S
C1250 C1254 1.531 . S
C1251 C1250 1.369 . S
C1251 C1252 1.410 . S
C1251 C1259 1.503 . S
C1252 C1251 1.410 . S
C1252 C1253 1.392 . S
C1252 C1255 1.511 . S
C1253 C1249 1.376 . S
C1253 C1252 1.392 . S
C1253 H1265 0.929 . S
C1254 C1250 1.531 . S
C1254 H1266 0.960 . S
C1254 H1267 0.962 . S
C1254 H1268 0.960 . S
C1255 C1252 1.511 . S
C1255 H1269 0.961 . S
C1255 H1270 0.961 . S
C1255 H1271 0.961 . S
C1256 C1257 1.370 . S
C1256 C1258 1.363 . S
C1256 H1272 0.931 . S
C1257 C1256 1.370 . S
C1257 C1261 1.408 . S
C1258 C1256 1.363 . S
C1258 C1259 1.370 . S
C1258 C1262 1.524 . S
C1259 C1251 1.503 . S
C1259 C1258 1.370 . S
C1259 C1260 1.403 . S
C1260 C1259 1.403 . S
C1260 C1261 1.404 . S
C1260 C1263 1.539 . S
C1261 C1257 1.408 . S
C1261 C1260 1.404 . S
C1261 H1273 0.930 . S
C1262 C1258 1.524 . S
C1262 H1274 0.956 . S
C1262 H1275 0.961 . S
C1262 H1276 0.961 . S
C1263 C1260 1.539 . S
C1263 H1277 0.958 . S
C1263 H1278 0.961 . S
C1263 H1279 0.960 . S
H1264 C1248 0.931 . S
H1265 C1253 0.929 . S
H1266 C1254 0.960 . S
H1267 C1254 0.962 . S
H1268 C1254 0.960 . S
H1269 C1255 0.961 . S
H1270 C1255 0.961 . S
H1271 C1255 0.961 . S
H1272 C1256 0.931 . S
H1273 C1261 0.930 . S
H1274 C1262 0.956 . S
H1275 C1262 0.961 . S
H1276 C1262 0.961 . S
H1277 C1263 0.958 . S
H1278 C1263 0.961 . S
H1279 C1263 0.960 . S
C1280 C1281 1.391 . S
C1280 C1282 1.394 . S
C1280 H1296 0.931 . S
C1281 C1280 1.391 . S
C1281 C1285 1.376 . S
C1282 C1280 1.394 . S
C1282 C1283 1.369 . S
C1282 C1286 1.531 . S
C1283 C1282 1.369 . S
C1283 C1284 1.410 . S
C1283 C1291 1.503 . S
C1284 C1283 1.410 . S
C1284 C1285 1.392 . S
C1284 C1287 1.511 . S
C1285 C1281 1.376 . S
C1285 C1284 1.392 . S
C1285 H1297 0.929 . S
C1286 C1282 1.531 . S
C1286 H1298 0.960 . S
C1286 H1299 0.962 . S
C1286 H1300 0.960 . S
C1287 C1284 1.511 . S
C1287 H1301 0.961 . S
C1287 H1302 0.961 . S
C1287 H1303 0.961 . S
C1288 C1289 1.370 . S
C1288 C1290 1.363 . S
C1288 H1304 0.931 . S
C1289 C1288 1.370 . S
C1289 C1293 1.408 . S
C1290 C1288 1.363 . S
C1290 C1291 1.370 . S
C1290 C1294 1.524 . S
C1291 C1283 1.503 . S
C1291 C1290 1.370 . S
C1291 C1292 1.403 . S
C1292 C1291 1.403 . S
C1292 C1293 1.404 . S
C1292 C1295 1.539 . S
C1293 C1289 1.408 . S
C1293 C1292 1.404 . S
C1293 H1305 0.930 . S
C1294 C1290 1.524 . S
C1294 H1306 0.956 . S
C1294 H1307 0.961 . S
C1294 H1308 0.961 . S
C1295 C1292 1.539 . S
C1295 H1309 0.958 . S
C1295 H1310 0.961 . S
C1295 H1311 0.960 . S
H1296 C1280 0.931 . S
H1297 C1285 0.929 . S
H1298 C1286 0.960 . S
H1299 C1286 0.962 . S
H1300 C1286 0.960 . S
H1301 C1287 0.961 . S
H1302 C1287 0.961 . S
H1303 C1287 0.961 . S
H1304 C1288 0.931 . S
H1305 C1293 0.930 . S
H1306 C1294 0.956 . S
H1307 C1294 0.961 . S
H1308 C1294 0.961 . S
H1309 C1295 0.958 . S
H1310 C1295 0.961 . S
H1311 C1295 0.960 . S
C1312 C1313 1.391 . S
C1312 C1314 1.394 1_455 S
C1312 H1328 0.931 . S
C1313 C1312 1.391 . S
C1313 C1317 1.376 . S
C1314 C1312 1.394 1_655 S
C1314 C1315 1.369 . S
C1314 C1318 1.531 . S
C1315 C1314 1.369 . S
C1315 C1316 1.410 . S
C1315 C1323 1.503 . S
C1316 C1315 1.410 . S
C1316 C1317 1.392 1_655 S
C1316 C1319 1.511 . S
C1317 C1313 1.376 . S
C1317 C1316 1.392 1_455 S
C1317 H1329 0.929 . S
C1318 C1314 1.531 . S
C1318 H1330 0.960 . S
C1318 H1331 0.962 . S
C1318 H1332 0.960 . S
C1319 C1316 1.511 . S
C1319 H1333 0.961 . S
C1319 H1334 0.961 . S
C1319 H1335 0.961 . S
C1320 C1321 1.370 . S
C1320 C1322 1.363 . S
C1320 H1336 0.931 . S
C1321 C1320 1.370 . S
C1321 C1325 1.408 . S
C1322 C1320 1.363 . S
C1322 C1323 1.370 . S
C1322 C1326 1.524 . S
C1323 C1315 1.503 . S
C1323 C1322 1.370 . S
C1323 C1324 1.403 . S
C1324 C1323 1.403 . S
C1324 C1325 1.404 . S
C1324 C1327 1.539 . S
C1325 C1321 1.408 . S
C1325 C1324 1.404 . S
C1325 H1337 0.930 . S
C1326 C1322 1.524 . S
C1326 H1338 0.956 . S
C1326 H1339 0.961 . S
C1326 H1340 0.961 . S
C1327 C1324 1.539 . S
C1327 H1341 0.958 . S
C1327 H1342 0.961 . S
C1327 H1343 0.960 . S
H1328 C1312 0.931 . S
H1329 C1317 0.929 . S
H1330 C1318 0.960 . S
H1331 C1318 0.962 . S
H1332 C1318 0.960 . S
H1333 C1319 0.961 . S
H1334 C1319 0.961 . S
H1335 C1319 0.961 . S
H1336 C1320 0.931 . S
H1337 C1325 0.930 . S
H1338 C1326 0.956 . S
H1339 C1326 0.961 . S
H1340 C1326 0.961 . S
H1341 C1327 0.958 . S
H1342 C1327 0.961 . S
H1343 C1327 0.960 . S
C1344 C1345 1.391 . S
C1344 C1346 1.394 . S
C1344 H1360 0.931 . S
C1345 C1344 1.391 . S
C1345 C1349 1.376 . S
C1346 C1344 1.394 . S
C1346 C1347 1.369 . S
C1346 C1350 1.531 . S
C1347 C1346 1.369 . S
C1347 C1348 1.410 . S
C1347 C1355 1.503 . S
C1348 C1347 1.410 . S
C1348 C1349 1.392 . S
C1348 C1351 1.511 . S
C1349 C1345 1.376 . S
C1349 C1348 1.392 . S
C1349 H1361 0.929 . S
C1350 C1346 1.531 . S
C1350 H1362 0.960 . S
C1350 H1363 0.962 . S
C1350 H1364 0.960 . S
C1351 C1348 1.511 . S
C1351 H1365 0.961 . S
C1351 H1366 0.961 . S
C1351 H1367 0.961 . S
C1352 C1353 1.370 . S
C1352 C1354 1.363 . S
C1352 H1368 0.931 . S
C1353 C1352 1.370 . S
C1353 C1357 1.408 . S
C1354 C1352 1.363 . S
C1354 C1355 1.370 . S
C1354 C1358 1.524 . S
C1355 C1347 1.503 . S
C1355 C1354 1.370 . S
C1355 C1356 1.403 . S
C1356 C1355 1.403 . S
C1356 C1357 1.404 . S
C1356 C1359 1.539 . S
C1357 C1353 1.408 . S
C1357 C1356 1.404 . S
C1357 H1369 0.930 . S
C1358 C1354 1.524 . S
C1358 H1370 0.956 . S
C1358 H1371 0.961 . S
C1358 H1372 0.961 . S
C1359 C1356 1.539 . S
C1359 H1373 0.958 . S
C1359 H1374 0.961 . S
C1359 H1375 0.960 . S
H1360 C1344 0.931 . S
H1361 C1349 0.929 . S
H1362 C1350 0.960 . S
H1363 C1350 0.962 . S
H1364 C1350 0.960 . S
H1365 C1351 0.961 . S
H1366 C1351 0.961 . S
H1367 C1351 0.961 . S
H1368 C1352 0.931 . S
H1369 C1357 0.930 . S
H1370 C1358 0.956 . S
H1371 C1358 0.961 . S
H1372 C1358 0.961 . S
H1373 C1359 0.958 . S
H1374 C1359 0.961 . S
H1375 C1359 0.960 . S
C1376 C1377 1.391 . S
C1376 C1378 1.364 1_455 S
C1376 H1392 0.931 . S
C1377 C1376 1.391 . S
C1377 C1381 1.376 . S
C1378 C1376 1.364 1_655 S
C1378 C1379 1.396 . S
C1378 C1382 1.534 . S
C1379 C1378 1.396 . S
C1379 C1380 1.410 . S
C1379 C1387 1.503 . S
C1380 C1379 1.410 . S
C1380 C1381 1.392 1_655 S
C1380 C1383 1.511 . S
C1381 C1377 1.376 . S
C1381 C1380 1.392 1_455 S
C1381 H1393 0.929 . S
C1382 C1378 1.534 . S
C1382 H1394 0.960 . S
C1382 H1395 0.962 . S
C1382 H1396 0.960 1_655 S
C1383 C1380 1.511 . S
C1383 H1397 0.961 . S
C1383 H1398 0.961 . S
C1383 H1399 0.961 . S
C1384 C1385 1.370 . S
C1384 C1386 1.363 . S
C1384 H1400 0.931 . S
C1385 C1384 1.370 . S
C1385 C1389 1.408 . S
C1386 C1384 1.363 . S
C1386 C1387 1.370 . S
C1386 C1390 1.524 . S
C1387 C1379 1.503 . S
C1387 C1386 1.370 . S
C1387 C1388 1.403 . S
C1388 C1387 1.403 . S
C1388 C1389 1.404 . S
C1388 C1391 1.539 . S
C1389 C1385 1.408 . S
C1389 C1388 1.404 . S
C1389 H1401 0.930 . S
C1390 C1386 1.524 . S
C1390 H1402 0.956 . S
C1390 H1403 0.961 . S
C1390 H1404 0.961 . S
C1391 C1388 1.539 . S
C1391 H1405 0.958 . S
C1391 H1406 0.961 . S
C1391 H1407 0.960 . S
H1392 C1376 0.931 . S
H1393 C1381 0.929 . S
H1394 C1382 0.960 . S
H1395 C1382 0.962 . S
H1396 C1382 0.960 1_455 S
H1397 C1383 0.961 . S
H1398 C1383 0.961 . S
H1399 C1383 0.961 . S
H1400 C1384 0.931 . S
H1401 C1389 0.930 . S
H1402 C1390 0.956 . S
H1403 C1390 0.961 . S
H1404 C1390 0.961 . S
H1405 C1391 0.958 . S
H1406 C1391 0.961 . S
H1407 C1391 0.960 . S
C1408 C1409 1.391 . S
C1408 C1410 1.394 . S
C1408 H1424 0.931 . S
C1409 C1408 1.391 . S
C1409 C1413 1.376 . S
C1410 C1408 1.394 . S
C1410 C1411 1.369 . S
C1410 C1414 1.531 . S
C1411 C1410 1.369 . S
C1411 C1412 1.410 . S
C1411 C1419 1.503 . S
C1412 C1411 1.410 . S
C1412 C1413 1.392 . S
C1412 C1415 1.511 . S
C1413 C1409 1.376 . S
C1413 C1412 1.392 . S
C1413 H1425 0.929 . S
C1414 C1410 1.531 . S
C1414 H1426 0.960 . S
C1414 H1427 0.962 . S
C1414 H1428 0.960 . S
C1415 C1412 1.511 . S
C1415 H1429 0.961 . S
C1415 H1430 0.961 . S
C1415 H1431 0.961 . S
C1416 C1417 1.370 . S
C1416 C1418 1.363 . S
C1416 H1432 0.931 . S
C1417 C1416 1.370 . S
C1417 C1421 1.408 . S
C1418 C1416 1.363 . S
C1418 C1419 1.370 . S
C1418 C1422 1.524 . S
C1419 C1411 1.503 . S
C1419 C1418 1.370 . S
C1419 C1420 1.403 . S
C1420 C1419 1.403 . S
C1420 C1421 1.404 . S
C1420 C1423 1.539 . S
C1421 C1417 1.408 . S
C1421 C1420 1.404 . S
C1421 H1433 0.930 . S
C1422 C1418 1.524 . S
C1422 H1434 0.956 . S
C1422 H1435 0.961 . S
C1422 H1436 0.961 . S
C1423 C1420 1.539 . S
C1423 H1437 0.958 . S
C1423 H1438 0.961 . S
C1423 H1439 0.960 . S
H1424 C1408 0.931 . S
H1425 C1413 0.929 . S
H1426 C1414 0.960 . S
H1427 C1414 0.962 . S
H1428 C1414 0.960 . S
H1429 C1415 0.961 . S
H1430 C1415 0.961 . S
H1431 C1415 0.961 . S
H1432 C1416 0.931 . S
H1433 C1421 0.930 . S
H1434 C1422 0.956 . S
H1435 C1422 0.961 . S
H1436 C1422 0.961 . S
H1437 C1423 0.958 . S
H1438 C1423 0.961 . S
H1439 C1423 0.960 . S
C1440 C1441 1.391 . S
C1440 C1442 1.394 . S
C1440 H1456 0.931 . S
C1441 C1440 1.391 . S
C1441 C1445 1.376 . S
C1442 C1440 1.394 . S
C1442 C1443 1.369 . S
C1442 C1446 1.531 . S
C1443 C1442 1.369 . S
C1443 C1444 1.410 . S
C1443 C1451 1.503 . S
C1444 C1443 1.410 . S
C1444 C1445 1.392 . S
C1444 C1447 1.511 . S
C1445 C1441 1.376 . S
C1445 C1444 1.392 . S
C1445 H1457 0.929 . S
C1446 C1442 1.531 . S
C1446 H1458 0.960 . S
C1446 H1459 0.962 . S
C1446 H1460 0.960 . S
C1447 C1444 1.511 . S
C1447 H1461 0.961 . S
C1447 H1462 0.961 . S
C1447 H1463 0.961 . S
C1448 C1449 1.370 . S
C1448 C1450 1.363 . S
C1448 H1464 0.931 . S
C1449 C1448 1.370 . S
C1449 C1453 1.408 . S
C1450 C1448 1.363 . S
C1450 C1451 1.370 . S
C1450 C1454 1.524 . S
C1451 C1443 1.503 . S
C1451 C1450 1.370 . S
C1451 C1452 1.403 . S
C1452 C1451 1.403 . S
C1452 C1453 1.404 . S
C1452 C1455 1.539 . S
C1453 C1449 1.408 . S
C1453 C1452 1.404 . S
C1453 H1465 0.930 . S
C1454 C1450 1.524 . S
C1454 H1466 0.956 . S
C1454 H1467 0.961 . S
C1454 H1468 0.961 . S
C1455 C1452 1.539 . S
C1455 H1469 0.958 . S
C1455 H1470 0.961 . S
C1455 H1471 0.960 . S
H1456 C1440 0.931 . S
H1457 C1445 0.929 . S
H1458 C1446 0.960 . S
H1459 C1446 0.962 . S
H1460 C1446 0.960 . S
H1461 C1447 0.961 . S
H1462 C1447 0.961 . S
H1463 C1447 0.961 . S
H1464 C1448 0.931 . S
H1465 C1453 0.930 . S
H1466 C1454 0.956 . S
H1467 C1454 0.961 . S
H1468 C1454 0.961 . S
H1469 C1455 0.958 . S
H1470 C1455 0.961 . S
H1471 C1455 0.960 . S
C1472 C1473 1.391 . S
C1472 C1474 1.394 . S
C1472 H1488 0.931 . S
C1473 C1472 1.391 . S
C1473 C1477 1.376 . S
C1474 C1472 1.394 . S
C1474 C1475 1.369 . S
C1474 C1478 1.531 . S
C1475 C1474 1.369 . S
C1475 C1476 1.410 . S
C1475 C1483 1.503 . S
C1476 C1475 1.410 . S
C1476 C1477 1.392 . S
C1476 C1479 1.511 . S
C1477 C1473 1.376 . S
C1477 C1476 1.392 . S
C1477 H1489 0.929 . S
C1478 C1474 1.531 . S
C1478 H1490 0.960 . S
C1478 H1491 0.962 . S
C1478 H1492 0.960 . S
C1479 C1476 1.511 . S
C1479 H1493 0.961 . S
C1479 H1494 0.961 . S
C1479 H1495 0.961 . S
C1480 C1481 1.370 . S
C1480 C1482 1.363 . S
C1480 H1496 0.931 . S
C1481 C1480 1.370 . S
C1481 C1485 1.408 . S
C1482 C1480 1.363 . S
C1482 C1483 1.370 . S
C1482 C1486 1.524 . S
C1483 C1475 1.503 . S
C1483 C1482 1.370 . S
C1483 C1484 1.403 . S
C1484 C1483 1.403 . S
C1484 C1485 1.404 . S
C1484 C1487 1.539 . S
C1485 C1481 1.408 . S
C1485 C1484 1.404 . S
C1485 H1497 0.930 . S
C1486 C1482 1.524 . S
C1486 H1498 0.956 . S
C1486 H1499 0.961 . S
C1486 H1500 0.961 . S
C1487 C1484 1.539 . S
C1487 H1501 0.958 . S
C1487 H1502 0.961 . S
C1487 H1503 0.960 . S
H1488 C1472 0.931 . S
H1489 C1477 0.929 . S
H1490 C1478 0.960 . S
H1491 C1478 0.962 . S
H1492 C1478 0.960 . S
H1493 C1479 0.961 . S
H1494 C1479 0.961 . S
H1495 C1479 0.961 . S
H1496 C1480 0.931 . S
H1497 C1485 0.930 . S
H1498 C1486 0.956 . S
H1499 C1486 0.961 . S
H1500 C1486 0.961 . S
H1501 C1487 0.958 . S
H1502 C1487 0.961 . S
H1503 C1487 0.960 . S
C1504 C1505 1.391 1_545 S
C1504 C1506 1.394 . S
C1504 H1520 0.931 . S
C1505 C1504 1.391 1_565 S
C1505 C1509 1.376 . S
C1506 C1504 1.394 . S
C1506 C1507 1.369 . S
C1506 C1510 1.513 1_455 S
C1507 C1506 1.369 . S
C1507 C1508 1.410 1_545 S
C1507 C1515 1.503 1_455 S
C1508 C1507 1.410 1_565 S
C1508 C1509 1.392 . S
C1508 C1511 1.511 . S
C1509 C1505 1.376 . S
C1509 C1508 1.392 . S
C1509 H1521 0.929 . S
C1510 C1506 1.513 1_655 S
C1510 H1522 0.966 . S
C1510 H1523 0.990 . S
C1510 H1524 0.945 1_655 S
C1511 C1508 1.511 . S
C1511 H1525 0.961 . S
C1511 H1526 0.961 . S
C1511 H1527 0.961 . S
C1512 C1513 1.370 1_565 S
C1512 C1514 1.363 . S
C1512 H1528 0.931 . S
C1513 C1512 1.370 1_545 S
C1513 C1517 1.408 . S
C1514 C1512 1.363 . S
C1514 C1515 1.370 1_565 S
C1514 C1518 1.524 . S
C1515 C1507 1.503 1_655 S
C1515 C1514 1.370 1_545 S
C1515 C1516 1.410 . S
C1516 C1515 1.410 . S
C1516 C1517 1.427 . S
C1516 C1519 1.509 1_655 S
C1517 C1513 1.408 . S
C1517 C1516 1.427 . S
C1517 H1529 0.930 . S
C1518 C1514 1.524 . S
C1518 H1530 0.956 . S
C1518 H1531 0.961 . S
C1518 H1532 0.961 . S
C1519 C1516 1.509 1_455 S
C1519 H1533 0.958 . S
C1519 H1534 0.961 . S
C1519 H1535 0.960 . S
H1520 C1504 0.931 . S
H1521 C1509 0.929 . S
H1522 C1510 0.966 . S
H1523 C1510 0.990 . S
H1524 C1510 0.945 1_455 S
H1525 C1511 0.961 . S
H1526 C1511 0.961 . S
H1527 C1511 0.961 . S
H1528 C1512 0.931 . S
H1529 C1517 0.930 . S
H1530 C1518 0.956 . S
H1531 C1518 0.961 . S
H1532 C1518 0.961 . S
H1533 C1519 0.958 . S
H1534 C1519 0.961 . S
H1535 C1519 0.960 . S
C1536 C1537 1.391 . S
C1536 C1538 1.394 . S
C1536 H1552 0.931 . S
C1537 C1536 1.391 . S
C1537 C1541 1.376 . S
C1538 C1536 1.394 . S
C1538 C1539 1.369 . S
C1538 C1542 1.531 . S
C1539 C1538 1.369 . S
C1539 C1540 1.410 . S
C1539 C1547 1.503 . S
C1540 C1539 1.410 . S
C1540 C1541 1.392 . S
C1540 C1543 1.511 . S
C1541 C1537 1.376 . S
C1541 C1540 1.392 . S
C1541 H1553 0.929 . S
C1542 C1538 1.531 . S
C1542 H1554 0.960 . S
C1542 H1555 0.962 . S
C1542 H1556 0.960 . S
C1543 C1540 1.511 . S
C1543 H1557 0.961 . S
C1543 H1558 0.961 . S
C1543 H1559 0.961 . S
C1544 C1545 1.370 . S
C1544 C1546 1.363 . S
C1544 H1560 0.931 . S
C1545 C1544 1.370 . S
C1545 C1549 1.408 . S
C1546 C1544 1.363 . S
C1546 C1547 1.370 . S
C1546 C1550 1.524 . S
C1547 C1539 1.503 . S
C1547 C1546 1.370 . S
C1547 C1548 1.403 . S
C1548 C1547 1.403 . S
C1548 C1549 1.404 . S
C1548 C1551 1.539 . S
C1549 C1545 1.408 . S
C1549 C1548 1.404 . S
C1549 H1561 0.930 . S
C1550 C1546 1.524 . S
C1550 H1562 0.956 . S
C1550 H1563 0.961 . S
C1550 H1564 0.961 . S
C1551 C1548 1.539 . S
C1551 H1565 0.958 . S
C1551 H1566 0.961 . S
C1551 H1567 0.960 . S
H1552 C1536 0.931 . S
H1553 C1541 0.929 . S
H1554 C1542 0.960 . S
H1555 C1542 0.962 . S
H1556 C1542 0.960 . S
H1557 C1543 0.961 . S
H1558 C1543 0.961 . S
H1559 C1543 0.961 . S
H1560 C1544 0.931 . S
H1561 C1549 0.930 . S
H1562 C1550 0.956 . S
H1563 C1550 0.961 . S
H1564 C1550 0.961 . S
H1565 C1551 0.958 . S
H1566 C1551 0.961 . S
H1567 C1551 0.960 . S
C1568 C1569 1.391 1_565 S
C1568 C1570 1.394 . S
C1568 H1584 0.931 . S
C1569 C1568 1.391 1_545 S
C1569 C1573 1.376 . S
C1570 C1568 1.394 . S
C1570 C1571 1.369 1_565 S
C1570 C1574 1.531 1_554 S
C1571 C1570 1.369 1_545 S
C1571 C1572 1.410 . S
C1571 C1579 1.504 1_554 S
C1572 C1571 1.410 . S
C1572 C1573 1.392 . S
C1572 C1575 1.511 . S
C1573 C1569 1.376 . S
C1573 C1572 1.392 . S
C1573 H1585 0.929 . S
C1574 C1570 1.531 1_556 S
C1574 H1586 0.960 . S
C1574 H1587 0.962 . S
C1574 H1588 0.960 . S
C1575 C1572 1.511 . S
C1575 H1589 0.961 . S
C1575 H1590 0.961 . S
C1575 H1591 0.961 . S
C1576 C1577 1.370 . S
C1576 C1578 1.363 . S
C1576 H1592 0.931 . S
C1577 C1576 1.370 . S
C1577 C1581 1.408 1_565 S
C1578 C1576 1.363 . S
C1578 C1579 1.367 1_565 S
C1578 C1582 1.524 1_556 S
C1579 C1571 1.504 1_556 S
C1579 C1578 1.367 1_545 S
C1579 C1580 1.405 . S
C1580 C1579 1.405 . S
C1580 C1581 1.404 . S
C1580 C1583 1.539 . S
C1581 C1577 1.408 1_545 S
C1581 C1580 1.404 . S
C1581 H1593 0.930 . S
C1582 C1578 1.524 1_554 S
C1582 H1594 0.956 . S
C1582 H1595 0.961 . S
C1582 H1596 0.961 . S
C1583 C1580 1.539 . S
C1583 H1597 0.958 . S
C1583 H1598 0.961 . S
C1583 H1599 0.960 . S
H1584 C1568 0.931 . S
H1585 C1573 0.929 . S
H1586 C1574 0.960 . S
H1587 C1574 0.962 . S
H1588 C1574 0.960 . S
H1589 C1575 0.961 . S
H1590 C1575 0.961 . S
H1591 C1575 0.961 . S
H1592 C1576 0.931 . S
H1593 C1581 0.930 . S
H1594 C1582 0.956 . S
H1595 C1582 0.961 . S
H1596 C1582 0.961 . S
H1597 C1583 0.958 . S
H1598 C1583 0.961 . S
H1599 C1583 0.960 . S
C1600 C1601 1.391 . S
C1600 C1602 1.394 . S
C1600 H1616 0.931 . S
C1601 C1600 1.391 . S
C1601 C1605 1.376 . S
C1602 C1600 1.394 . S
C1602 C1603 1.369 . S
C1602 C1606 1.531 . S
C1603 C1602 1.369 . S
C1603 C1604 1.410 . S
C1603 C1611 1.503 . S
C1604 C1603 1.410 . S
C1604 C1605 1.392 . S
C1604 C1607 1.511 . S
C1605 C1601 1.376 . S
C1605 C1604 1.392 . S
C1605 H1617 0.929 . S
C1606 C1602 1.531 . S
C1606 H1618 0.960 . S
C1606 H1619 0.962 . S
C1606 H1620 0.960 . S
C1607 C1604 1.511 . S
C1607 H1621 0.961 . S
C1607 H1622 0.961 . S
C1607 H1623 0.961 . S
C1608 C1609 1.370 . S
C1608 C1610 1.363 . S
C1608 H1624 0.931 . S
C1609 C1608 1.370 . S
C1609 C1613 1.408 . S
C1610 C1608 1.363 . S
C1610 C1611 1.370 . S
C1610 C1614 1.524 . S
C1611 C1603 1.503 . S
C1611 C1610 1.370 . S
C1611 C1612 1.403 . S
C1612 C1611 1.403 . S
C1612 C1613 1.404 . S
C1612 C1615 1.539 . S
C1613 C1609 1.408 . S
C1613 C1612 1.404 . S
C1613 H1625 0.930 . S
C1614 C1610 1.524 . S
C1614 H1626 0.956 . S
C1614 H1627 0.961 . S
C1614 H1628 0.961 . S
C1615 C1612 1.539 . S
C1615 H1629 0.958 . S
C1615 H1630 0.961 . S
C1615 H1631 0.960 . S
H1616 C1600 0.931 . S
H1617 C1605 0.929 . S
H1618 C1606 0.960 . S
H1619 C1606 0.962 . S
H1620 C1606 0.960 . S
H1621 C1607 0.961 . S
H1622 C1607 0.961 . S
H1623 C1607 0.961 . S
H1624 C1608 0.931 . S
H1625 C1613 0.930 . S
H1626 C1614 0.956 . S
H1627 C1614 0.961 . S
H1628 C1614 0.961 . S
H1629 C1615 0.958 . S
H1630 C1615 0.961 . S
H1631 C1615 0.960 . S
C1632 C1633 1.391 . S
C1632 C1634 1.389 1_565 S
C1632 H1648 0.931 . S
C1633 C1632 1.391 . S
C1633 C1637 1.376 . S
C1634 C1632 1.389 1_545 S
C1634 C1635 1.372 . S
C1634 C1638 1.533 . S
C1635 C1634 1.372 . S
C1635 C1636 1.410 . S
C1635 C1643 1.503 . S
C1636 C1635 1.410 . S
C1636 C1637 1.392 1_545 S
C1636 C1639 1.511 . S
C1637 C1633 1.376 . S
C1637 C1636 1.392 1_565 S
C1637 H1649 0.929 . S
C1638 C1634 1.533 . S
C1638 H1650 0.960 . S
C1638 H1651 0.962 1_545 S
C1638 H1652 0.960 . S
C1639 C1636 1.511 . S
C1639 H1653 0.961 1_545 S
C1639 H1654 0.968 . S
C1639 H1655 0.961 . S
C1640 C1641 1.370 1_565 S
C1640 C1642 1.363 . S
C1640 H1656 0.931 . S
C1641 C1640 1.370 1_545 S
C1641 C1645 1.408 . S
C1642 C1640 1.363 . S
C1642 C1643 1.370 1_565 S
C1642 C1646 1.524 . S
C1643 C1635 1.503 . S
C1643 C1642 1.370 1_545 S
C1643 C1644 1.403 . S
C1644 C1643 1.403 . S
C1644 C1645 1.404 . S
C1644 C1647 1.539 . S
C1645 C1641 1.408 . S
C1645 C1644 1.404 . S
C1645 H1657 0.930 . S
C1646 C1642 1.524 . S
C1646 H1658 0.956 . S
C1646 H1659 0.961 . S
C1646 H1660 0.961 . S
C1647 C1644 1.539 . S
C1647 H1661 0.958 . S
C1647 H1662 0.961 . S
C1647 H1663 0.960 . S
H1648 C1632 0.931 . S
H1649 C1637 0.929 . S
H1650 C1638 0.960 . S
H1651 C1638 0.962 1_565 S
H1652 C1638 0.960 . S
H1653 C1639 0.961 1_565 S
H1654 C1639 0.968 . S
H1655 C1639 0.961 . S
H1656 C1640 0.931 . S
H1657 C1645 0.930 . S
H1658 C1646 0.956 . S
H1659 C1646 0.961 . S
H1660 C1646 0.961 . S
H1661 C1647 0.958 . S
H1662 C1647 0.961 . S
H1663 C1647 0.960 . S
C1664 C1665 1.391 . S
C1664 C1666 1.394 . S
C1664 H1680 0.931 . S
C1665 C1664 1.391 . S
C1665 C1669 1.376 . S
C1666 C1664 1.394 . S
C1666 C1667 1.369 . S
C1666 C1670 1.531 . S
C1667 C1666 1.369 . S
C1667 C1668 1.410 . S
C1667 C1675 1.503 . S
C1668 C1667 1.410 . S
C1668 C1669 1.392 . S
C1668 C1671 1.511 . S
C1669 C1665 1.376 . S
C1669 C1668 1.392 . S
C1669 H1681 0.929 . S
C1670 C1666 1.531 . S
C1670 H1682 0.960 . S
C1670 H1683 0.962 . S
C1670 H1684 0.960 . S
C1671 C1668 1.511 . S
C1671 H1685 0.961 . S
C1671 H1686 0.961 . S
C1671 H1687 0.961 . S
C1672 C1673 1.370 . S
C1672 C1674 1.363 . S
C1672 H1688 0.931 . S
C1673 C1672 1.370 . S
C1673 C1677 1.408 . S
C1674 C1672 1.363 . S
C1674 C1675 1.370 . S
C1674 C1678 1.524 . S
C1675 C1667 1.503 . S
C1675 C1674 1.370 . S
C1675 C1676 1.403 . S
C1676 C1675 1.403 . S
C1676 C1677 1.404 . S
C1676 C1679 1.539 . S
C1677 C1673 1.408 . S
C1677 C1676 1.404 . S
C1677 H1689 0.930 . S
C1678 C1674 1.524 . S
C1678 H1690 0.956 . S
C1678 H1691 0.961 . S
C1678 H1692 0.961 . S
C1679 C1676 1.539 . S
C1679 H1693 0.958 . S
C1679 H1694 0.961 . S
C1679 H1695 0.960 . S
H1680 C1664 0.931 . S
H1681 C1669 0.929 . S
H1682 C1670 0.960 . S
H1683 C1670 0.962 . S
H1684 C1670 0.960 . S
H1685 C1671 0.961 . S
H1686 C1671 0.961 . S
H1687 C1671 0.961 . S
H1688 C1672 0.931 . S
H1689 C1677 0.930 . S
H1690 C1678 0.956 . S
H1691 C1678 0.961 . S
H1692 C1678 0.961 . S
H1693 C1679 0.958 . S
H1694 C1679 0.961 . S
H1695 C1679 0.960 . S
C1696 C1697 1.391 . S
C1696 C1698 1.394 . S
C1696 H1712 0.931 . S
C1697 C1696 1.391 . S
C1697 C1701 1.376 . S
C1698 C1696 1.394 . S
C1698 C1699 1.369 . S
C1698 C1702 1.531 1_556 S
C1699 C1698 1.369 . S
C1699 C1700 1.413 . S
C1699 C1707 1.503 1_456 S
C1700 C1699 1.413 . S
C1700 C1701 1.401 . S
C1700 C1703 1.499 1_455 S
C1701 C1697 1.376 . S
C1701 C1700 1.401 . S
C1701 H1713 0.929 . S
C1702 C1698 1.531 1_554 S
C1702 H1714 0.960 . S
C1702 H1715 0.956 1_545 S
C1702 H1716 0.960 . S
C1703 C1700 1.499 1_655 S
C1703 H1717 0.961 1_545 S
C1703 H1718 0.961 1_545 S
C1703 H1719 0.961 . S
C1704 C1705 1.370 . S
C1704 C1706 1.363 . S
C1704 H1720 0.931 . S
C1705 C1704 1.370 . S
C1705 C1709 1.408 1_565 S
C1706 C1704 1.363 . S
C1706 C1707 1.370 1_565 S
C1706 C1710 1.524 1_655 S
C1707 C1699 1.503 1_654 S
C1707 C1706 1.370 1_545 S
C1707 C1708 1.403 . S
C1708 C1707 1.403 . S
C1708 C1709 1.404 . S
C1708 C1711 1.539 . S
C1709 C1705 1.408 1_545 S
C1709 C1708 1.404 . S
C1709 H1721 0.930 . S
C1710 C1706 1.524 1_455 S
C1710 H1722 0.956 . S
C1710 H1723 0.962 1_554 S
C1710 H1724 0.961 1_455 S
C1711 C1708 1.539 . S
C1711 H1725 0.958 . S
C1711 H1726 0.961 . S
C1711 H1727 0.960 1_554 S
H1712 C1696 0.931 . S
H1713 C1701 0.929 . S
H1714 C1702 0.960 . S
H1715 C1702 0.956 1_565 S
H1716 C1702 0.960 . S
H1717 C1703 0.961 1_565 S
H1718 C1703 0.961 1_565 S
H1719 C1703 0.961 . S
H1720 C1704 0.931 . S
H1721 C1709 0.930 . S
H1722 C1710 0.956 . S
H1723 C1710 0.962 1_556 S
H1724 C1710 0.961 1_655 S
H1725 C1711 0.958 . S
H1726 C1711 0.961 . S
H1727 C1711 0.960 1_556 S
C1728 C1729 1.391 . S
C1728 C1730 1.394 . S
C1728 H1744 0.931 . S
C1729 C1728 1.391 . S
C1729 C1733 1.376 . S
C1730 C1728 1.394 . S
C1730 C1731 1.369 . S
C1730 C1734 1.531 . S
C1731 C1730 1.369 . S
C1731 C1732 1.410 . S
C1731 C1739 1.503 . S
C1732 C1731 1.410 . S
C1732 C1733 1.392 . S
C1732 C1735 1.511 . S
C1733 C1729 1.376 . S
C1733 C1732 1.392 . S
C1733 H1745 0.929 . S
C1734 C1730 1.531 . S
C1734 H1746 0.960 . S
C1734 H1747 0.962 . S
C1734 H1748 0.960 . S
C1735 C1732 1.511 . S
C1735 H1749 0.961 . S
C1735 H1750 0.961 . S
C1735 H1751 0.961 . S
C1736 C1737 1.370 . S
C1736 C1738 1.363 . S
C1736 H1752 0.931 . S
C1737 C1736 1.370 . S
C1737 C1741 1.408 . S
C1738 C1736 1.363 . S
C1738 C1739 1.370 . S
C1738 C1742 1.524 . S
C1739 C1731 1.503 . S
C1739 C1738 1.370 . S
C1739 C1740 1.403 . S
C1740 C1739 1.403 . S
C1740 C1741 1.404 . S
C1740 C1743 1.539 . S
C1741 C1737 1.408 . S
C1741 C1740 1.404 . S
C1741 H1753 0.930 . S
C1742 C1738 1.524 . S
C1742 H1754 0.956 . S
C1742 H1755 0.961 . S
C1742 H1756 0.961 . S
C1743 C1740 1.539 . S
C1743 H1757 0.958 . S
C1743 H1758 0.961 . S
C1743 H1759 0.960 . S
H1744 C1728 0.931 . S
H1745 C1733 0.929 . S
H1746 C1734 0.960 . S
H1747 C1734 0.962 . S
H1748 C1734 0.960 . S
H1749 C1735 0.961 . S
H1750 C1735 0.961 . S
H1751 C1735 0.961 . S
H1752 C1736 0.931 . S
H1753 C1741 0.930 . S
H1754 C1742 0.956 . S
H1755 C1742 0.961 . S
H1756 C1742 0.961 . S
H1757 C1743 0.958 . S
H1758 C1743 0.961 . S
H1759 C1743 0.960 . S
C1760 C1761 1.391 . S
C1760 C1762 1.394 . S
C1760 H1776 0.931 . S
C1761 C1760 1.391 . S
C1761 C1765 1.376 . S
C1762 C1760 1.394 . S
C1762 C1763 1.369 . S
C1762 C1766 1.531 . S
C1763 C1762 1.369 . S
C1763 C1764 1.410 . S
C1763 C1771 1.503 . S
C1764 C1763 1.410 . S
C1764 C1765 1.392 . S
C1764 C1767 1.511 . S
C1765 C1761 1.376 . S
C1765 C1764 1.392 . S
C1765 H1777 0.929 . S
C1766 C1762 1.531 . S
C1766 H1778 0.960 . S
C1766 H1779 0.962 . S
C1766 H1780 0.960 . S
C1767 C1764 1.511 . S
C1767 H1781 0.961 . S
C1767 H1782 0.961 . S
C1767 H1783 0.961 . S
C1768 C1769 1.370 . S
C1768 C1770 1.363 . S
C1768 H1784 0.931 . S
C1769 C1768 1.370 . S
C1769 C1773 1.408 . S
C1770 C1768 1.363 . S
C1770 C1771 1.370 . S
C1770 C1774 1.524 . S
C1771 C1763 1.503 . S
C1771 C1770 1.370 . S
C1771 C1772 1.403 . S
C1772 C1771 1.403 . S
C1772 C1773 1.404 . S
C1772 C1775 1.539 . S
C1773 C1769 1.408 . S
C1773 C1772 1.404 . S
C1773 H1785 0.930 . S
C1774 C1770 1.524 . S
C1774 H1786 0.956 . S
C1774 H1787 0.961 . S
C1774 H1788 0.961 . S
C1775 C1772 1.539 . S
C1775 H1789 0.958 . S
C1775 H1790 0.961 . S
C1775 H1791 0.960 . S
H1776 C1760 0.931 . S
H1777 C1765 0.929 . S
H1778 C1766 0.960 . S
H1779 C1766 0.962 . S
H1780 C1766 0.960 . S
H1781 C1767 0.961 . S
H1782 C1767 0.961 . S
H1783 C1767 0.961 . S
H1784 C1768 0.931 . S
H1785 C1773 0.930 . S
H1786 C1774 0.956 . S
H1787 C1774 0.961 . S
H1788 C1774 0.961 . S
H1789 C1775 0.958 . S
H1790 C1775 0.961 . S
H1791 C1775 0.960 . S
C1792 C1793 1.391 . S
C1792 C1794 1.394 . S
C1792 H1808 0.931 . S
C1793 C1792 1.391 . S
C1793 C1797 1.376 . S
C1794 C1792 1.394 . S
C1794 C1795 1.369 . S
C1794 C1798 1.531 . S
C1795 C1794 1.369 . S
C1795 C1796 1.410 . S
C1795 C1803 1.503 . S
C1796 C1795 1.410 . S
C1796 C1797 1.392 . S
C1796 C1799 1.511 . S
C1797 C1793 1.376 . S
C1797 C1796 1.392 . S
C1797 H1809 0.929 . S
C1798 C1794 1.531 . S
C1798 H1810 0.960 . S
C1798 H1811 0.962 . S
C1798 H1812 0.960 . S
C1799 C1796 1.511 . S
C1799 H1813 0.961 . S
C1799 H1814 0.961 . S
C1799 H1815 0.961 . S
C1800 C1801 1.370 . S
C1800 C1802 1.363 . S
C1800 H1816 0.931 . S
C1801 C1800 1.370 . S
C1801 C1805 1.408 . S
C1802 C1800 1.363 . S
C1802 C1803 1.370 . S
C1802 C1806 1.524 . S
C1803 C1795 1.503 . S
C1803 C1802 1.370 . S
C1803 C1804 1.403 . S
C1804 C1803 1.403 . S
C1804 C1805 1.404 . S
C1804 C1807 1.539 . S
C1805 C1801 1.408 . S
C1805 C1804 1.404 . S
C1805 H1817 0.930 . S
C1806 C1802 1.524 . S
C1806 H1818 0.956 . S
C1806 H1819 0.961 . S
C1806 H1820 0.961 . S
C1807 C1804 1.539 . S
C1807 H1821 0.958 . S
C1807 H1822 0.961 . S
C1807 H1823 0.960 . S
H1808 C1792 0.931 . S
H1809 C1797 0.929 . S
H1810 C1798 0.960 . S
H1811 C1798 0.962 . S
H1812 C1798 0.960 . S
H1813 C1799 0.961 . S
H1814 C1799 0.961 . S
H1815 C1799 0.961 . S
H1816 C1800 0.931 . S
H1817 C1805 0.930 . S
H1818 C1806 0.956 . S
H1819 C1806 0.961 . S
H1820 C1806 0.961 . S
H1821 C1807 0.958 . S
H1822 C1807 0.961 . S
H1823 C1807 0.960 . S
C1824 C1825 1.391 . S
C1824 C1826 1.394 . S
C1824 H1840 0.931 . S
C1825 C1824 1.391 . S
C1825 C1829 1.376 . S
C1826 C1824 1.394 . S
C1826 C1827 1.369 . S
C1826 C1830 1.531 . S
C1827 C1826 1.369 . S
C1827 C1828 1.410 . S
C1827 C1835 1.503 . S
C1828 C1827 1.410 . S
C1828 C1829 1.392 . S
C1828 C1831 1.511 . S
C1829 C1825 1.376 . S
C1829 C1828 1.392 . S
C1829 H1841 0.929 . S
C1830 C1826 1.531 . S
C1830 H1842 0.960 . S
C1830 H1843 0.962 . S
C1830 H1844 0.960 . S
C1831 C1828 1.511 . S
C1831 H1845 0.961 . S
C1831 H1846 0.961 . S
C1831 H1847 0.961 . S
C1832 C1833 1.370 . S
C1832 C1834 1.363 . S
C1832 H1848 0.931 . S
C1833 C1832 1.370 . S
C1833 C1837 1.408 . S
C1834 C1832 1.363 . S
C1834 C1835 1.370 . S
C1834 C1838 1.524 . S
C1835 C1827 1.503 . S
C1835 C1834 1.370 . S
C1835 C1836 1.403 . S
C1836 C1835 1.403 . S
C1836 C1837 1.404 . S
C1836 C1839 1.539 . S
C1837 C1833 1.408 . S
C1837 C1836 1.404 . S
C1837 H1849 0.930 . S
C1838 C1834 1.524 . S
C1838 H1850 0.956 . S
C1838 H1851 0.961 . S
C1838 H1852 0.961 . S
C1839 C1836 1.539 . S
C1839 H1853 0.958 . S
C1839 H1854 0.961 . S
C1839 H1855 0.960 . S
H1840 C1824 0.931 . S
H1841 C1829 0.929 . S
H1842 C1830 0.960 . S
H1843 C1830 0.962 . S
H1844 C1830 0.960 . S
H1845 C1831 0.961 . S
H1846 C1831 0.961 . S
H1847 C1831 0.961 . S
H1848 C1832 0.931 . S
H1849 C1837 0.930 . S
H1850 C1838 0.956 . S
H1851 C1838 0.961 . S
H1852 C1838 0.961 . S
H1853 C1839 0.958 . S
H1854 C1839 0.961 . S
H1855 C1839 0.960 . S
C1856 C1857 1.391 . S
C1856 C1858 1.394 . S
C1856 H1872 0.931 . S
C1857 C1856 1.391 . S
C1857 C1861 1.376 . S
C1858 C1856 1.394 . S
C1858 C1859 1.369 . S
C1858 C1862 1.531 1_554 S
C1859 C1858 1.369 . S
C1859 C1860 1.410 . S
C1859 C1867 1.503 1_554 S
C1860 C1859 1.410 . S
C1860 C1861 1.392 . S
C1860 C1863 1.511 . S
C1861 C1857 1.376 . S
C1861 C1860 1.392 . S
C1861 H1873 0.929 . S
C1862 C1858 1.531 1_556 S
C1862 H1874 0.960 . S
C1862 H1875 0.962 . S
C1862 H1876 0.960 . S
C1863 C1860 1.511 . S
C1863 H1877 0.961 . S
C1863 H1878 0.961 . S
C1863 H1879 0.961 . S
C1864 C1865 1.370 . S
C1864 C1866 1.363 . S
C1864 H1880 0.931 . S
C1865 C1864 1.370 . S
C1865 C1869 1.408 . S
C1866 C1864 1.363 . S
C1866 C1867 1.370 . S
C1866 C1870 1.524 1_556 S
C1867 C1859 1.503 1_556 S
C1867 C1866 1.370 . S
C1867 C1868 1.403 . S
C1868 C1867 1.403 . S
C1868 C1869 1.404 . S
C1868 C1871 1.539 . S
C1869 C1865 1.408 . S
C1869 C1868 1.404 . S
C1869 H1881 0.930 . S
C1870 C1866 1.524 1_554 S
C1870 H1882 0.956 . S
C1870 H1883 0.961 . S
C1870 H1884 0.961 . S
C1871 C1868 1.539 . S
C1871 H1885 0.958 . S
C1871 H1886 0.961 . S
C1871 H1887 0.960 . S
H1872 C1856 0.931 . S
H1873 C1861 0.929 . S
H1874 C1862 0.960 . S
H1875 C1862 0.962 . S
H1876 C1862 0.960 . S
H1877 C1863 0.961 . S
H1878 C1863 0.961 . S
H1879 C1863 0.961 . S
H1880 C1864 0.931 . S
H1881 C1869 0.930 . S
H1882 C1870 0.956 . S
H1883 C1870 0.961 . S
H1884 C1870 0.961 . S
H1885 C1871 0.958 . S
H1886 C1871 0.961 . S
H1887 C1871 0.960 . S
C1888 C1889 1.391 . S
C1888 C1890 1.394 . S
C1888 H1904 0.931 . S
C1889 C1888 1.391 . S
C1889 C1893 1.376 . S
C1890 C1888 1.394 . S
C1890 C1891 1.369 . S
C1890 C1894 1.531 . S
C1891 C1890 1.369 . S
C1891 C1892 1.410 . S
C1891 C1899 1.503 1_455 S
C1892 C1891 1.410 . S
C1892 C1893 1.392 . S
C1892 C1895 1.511 1_455 S
C1893 C1889 1.376 . S
C1893 C1892 1.392 . S
C1893 H1905 0.929 . S
C1894 C1890 1.531 . S
C1894 H1906 0.960 . S
C1894 H1907 0.962 . S
C1894 H1908 0.960 . S
C1895 C1892 1.511 1_655 S
C1895 H1909 0.961 . S
C1895 H1910 0.961 . S
C1895 H1911 0.961 . S
C1896 C1897 1.370 . S
C1896 C1898 1.363 . S
C1896 H1912 0.931 . S
C1897 C1896 1.370 . S
C1897 C1901 1.408 . S
C1898 C1896 1.363 . S
C1898 C1899 1.370 . S
C1898 C1902 1.524 1_655 S
C1899 C1891 1.503 1_655 S
C1899 C1898 1.370 . S
C1899 C1900 1.403 . S
C1900 C1899 1.403 . S
C1900 C1901 1.404 . S
C1900 C1903 1.539 . S
C1901 C1897 1.408 . S
C1901 C1900 1.404 . S
C1901 H1913 0.930 . S
C1902 C1898 1.524 1_455 S
C1902 H1914 0.956 . S
C1902 H1915 0.961 . S
C1902 H1916 0.961 . S
C1903 C1900 1.539 . S
C1903 H1917 0.958 . S
C1903 H1918 0.961 . S
C1903 H1919 0.960 . S
H1904 C1888 0.931 . S
H1905 C1893 0.929 . S
H1906 C1894 0.960 . S
H1907 C1894 0.962 . S
H1908 C1894 0.960 . S
H1909 C1895 0.961 . S
H1910 C1895 0.961 . S
H1911 C1895 0.961 . S
H1912 C1896 0.931 . S
H1913 C1901 0.930 . S
H1914 C1902 0.956 . S
H1915 C1902 0.961 . S
H1916 C1902 0.961 . S
H1917 C1903 0.958 . S
H1918 C1903 0.961 . S
H1919 C1903 0.960 . S
C1920 C1921 1.391 . S
C1920 C1922 1.394 . S
C1920 H1936 0.931 . S
C1921 C1920 1.391 . S
C1921 C1925 1.376 . S
C1922 C1920 1.394 . S
C1922 C1923 1.369 . S
C1922 C1926 1.531 1_455 S
C1923 C1922 1.369 . S
C1923 C1924 1.410 . S
C1923 C1931 1.503 1_454 S
C1924 C1923 1.410 . S
C1924 C1925 1.392 . S
C1924 C1927 1.511 1_554 S
C1925 C1921 1.376 . S
C1925 C1924 1.392 . S
C1925 H1937 0.929 . S
C1926 C1922 1.531 1_655 S
C1926 H1938 0.960 . S
C1926 H1939 0.962 . S
C1926 H1940 0.960 . S
C1927 C1924 1.511 1_556 S
C1927 H1941 0.961 . S
C1927 H1942 0.961 . S
C1927 H1943 0.961 . S
C1928 C1929 1.370 . S
C1928 C1930 1.363 . S
C1928 H1944 0.931 . S
C1929 C1928 1.370 . S
C1929 C1933 1.408 . S
C1930 C1928 1.363 . S
C1930 C1931 1.370 . S
C1930 C1934 1.506 1_556 S
C1931 C1923 1.503 1_656 S
C1931 C1930 1.370 . S
C1931 C1932 1.403 . S
C1932 C1931 1.403 . S
C1932 C1933 1.404 . S
C1932 C1935 1.539 . S
C1933 C1929 1.408 . S
C1933 C1932 1.404 . S
C1933 H1945 0.930 . S
C1934 C1930 1.506 1_554 S
C1934 H1946 0.988 . S
C1934 H1947 0.960 1_655 S
C1934 H1948 0.949 1_554 S
C1935 C1932 1.539 . S
C1935 H1949 0.958 . S
C1935 H1950 0.961 . S
C1935 H1951 0.960 1_655 S
H1936 C1920 0.931 . S
H1937 C1925 0.929 . S
H1938 C1926 0.960 . S
H1939 C1926 0.962 . S
H1940 C1926 0.960 . S
H1941 C1927 0.961 . S
H1942 C1927 0.961 . S
H1943 C1927 0.961 . S
H1944 C1928 0.931 . S
H1945 C1933 0.930 . S
H1946 C1934 0.988 . S
H1947 C1934 0.960 1_455 S
H1948 C1934 0.949 1_556 S
H1949 C1935 0.958 . S
H1950 C1935 0.961 . S
H1951 C1935 0.960 1_455 S
C1952 C1953 1.391 . S
C1952 C1954 1.394 . S
C1952 H1968 0.931 . S
C1953 C1952 1.391 . S
C1953 C1957 1.376 . S
C1954 C1952 1.394 . S
C1954 C1955 1.369 . S
C1954 C1958 1.531 . S
C1955 C1954 1.369 . S
C1955 C1956 1.410 . S
C1955 C1963 1.503 . S
C1956 C1955 1.410 . S
C1956 C1957 1.392 . S
C1956 C1959 1.511 . S
C1957 C1953 1.376 . S
C1957 C1956 1.392 . S
C1957 H1969 0.929 . S
C1958 C1954 1.531 . S
C1958 H1970 0.960 . S
C1958 H1971 0.962 . S
C1958 H1972 0.960 . S
C1959 C1956 1.511 . S
C1959 H1973 0.961 . S
C1959 H1974 0.961 . S
C1959 H1975 0.961 . S
C1960 C1961 1.370 . S
C1960 C1962 1.363 . S
C1960 H1976 0.931 . S
C1961 C1960 1.370 . S
C1961 C1965 1.408 . S
C1962 C1960 1.363 . S
C1962 C1963 1.370 . S
C1962 C1966 1.524 . S
C1963 C1955 1.503 . S
C1963 C1962 1.370 . S
C1963 C1964 1.403 . S
C1964 C1963 1.403 . S
C1964 C1965 1.404 . S
C1964 C1967 1.539 . S
C1965 C1961 1.408 . S
C1965 C1964 1.404 . S
C1965 H1977 0.930 . S
C1966 C1962 1.524 . S
C1966 H1978 0.956 . S
C1966 H1979 0.961 . S
C1966 H1980 0.961 . S
C1967 C1964 1.539 . S
C1967 H1981 0.958 . S
C1967 H1982 0.961 . S
C1967 H1983 0.960 . S
H1968 C1952 0.931 . S
H1969 C1957 0.929 . S
H1970 C1958 0.960 . S
H1971 C1958 0.962 . S
H1972 C1958 0.960 . S
H1973 C1959 0.961 . S
H1974 C1959 0.961 . S
H1975 C1959 0.961 . S
H1976 C1960 0.931 . S
H1977 C1965 0.930 . S
H1978 C1966 0.956 . S
H1979 C1966 0.961 . S
H1980 C1966 0.961 . S
H1981 C1967 0.958 . S
H1982 C1967 0.961 . S
H1983 C1967 0.960 . S
C1984 C1985 1.391 . S
C1984 C1986 1.394 . S
C1984 H2000 0.931 . S
C1985 C1984 1.391 . S
C1985 C1989 1.376 . S
C1986 C1984 1.394 . S
C1986 C1987 1.369 . S
C1986 C1990 1.531 . S
C1987 C1986 1.369 . S
C1987 C1988 1.410 . S
C1987 C1995 1.503 1_545 S
C1988 C1987 1.410 . S
C1988 C1989 1.392 . S
C1988 C1991 1.511 1_545 S
C1989 C1985 1.376 . S
C1989 C1988 1.392 . S
C1989 H2001 0.929 . S
C1990 C1986 1.531 . S
C1990 H2002 0.960 . S
C1990 H2003 0.962 . S
C1990 H2004 0.960 . S
C1991 C1988 1.511 1_565 S
C1991 H2005 0.961 . S
C1991 H2006 0.961 . S
C1991 H2007 0.961 . S
C1992 C1993 1.370 . S
C1992 C1994 1.363 . S
C1992 H2008 0.931 . S
C1993 C1992 1.370 . S
C1993 C1997 1.408 . S
C1994 C1992 1.363 . S
C1994 C1995 1.370 . S
C1994 C1998 1.524 . S
C1995 C1987 1.503 1_565 S
C1995 C1994 1.370 . S
C1995 C1996 1.403 . S
C1996 C1995 1.403 . S
C1996 C1997 1.404 . S
C1996 C1999 1.539 . S
C1997 C1993 1.408 . S
C1997 C1996 1.404 . S
C1997 H2009 0.930 . S
C1998 C1994 1.524 . S
C1998 H2010 0.956 1_565 S
C1998 H2011 0.961 . S
C1998 H2012 0.961 . S
C1999 C1996 1.539 . S
C1999 H2013 0.958 1_565 S
C1999 H2014 0.961 . S
C1999 H2015 0.960 . S
H2000 C1984 0.931 . S
H2001 C1989 0.929 . S
H2002 C1990 0.960 . S
H2003 C1990 0.962 . S
H2004 C1990 0.960 . S
H2005 C1991 0.961 . S
H2006 C1991 0.961 . S
H2007 C1991 0.961 . S
H2008 C1992 0.931 . S
H2009 C1997 0.930 . S
H2010 C1998 0.956 1_545 S
H2011 C1998 0.961 . S
H2012 C1998 0.961 . S
H2013 C1999 0.958 1_545 S
H2014 C1999 0.961 . S
H2015 C1999 0.960 . S
C2016 C2017 1.391 . S
C2016 C2018 1.394 . S
C2016 H2032 0.931 . S
C2017 C2016 1.391 . S
C2017 C2021 1.376 . S
C2018 C2016 1.394 . S
C2018 C2019 1.369 . S
C2018 C2022 1.531 . S
C2019 C2018 1.369 . S
C2019 C2020 1.410 . S
C2019 C2027 1.503 . S
C2020 C2019 1.410 . S
C2020 C2021 1.392 . S
C2020 C2023 1.511 . S
C2021 C2017 1.376 . S
C2021 C2020 1.392 . S
C2021 H2033 0.929 . S
C2022 C2018 1.531 . S
C2022 H2034 0.960 . S
C2022 H2035 0.962 . S
C2022 H2036 0.960 . S
C2023 C2020 1.511 . S
C2023 H2037 0.961 . S
C2023 H2038 0.961 . S
C2023 H2039 0.961 . S
C2024 C2025 1.370 . S
C2024 C2026 1.363 . S
C2024 H2040 0.931 . S
C2025 C2024 1.370 . S
C2025 C2029 1.408 . S
C2026 C2024 1.363 . S
C2026 C2027 1.370 . S
C2026 C2030 1.524 . S
C2027 C2019 1.503 . S
C2027 C2026 1.370 . S
C2027 C2028 1.403 . S
C2028 C2027 1.403 . S
C2028 C2029 1.404 . S
C2028 C2031 1.539 . S
C2029 C2025 1.408 . S
C2029 C2028 1.404 . S
C2029 H2041 0.930 . S
C2030 C2026 1.524 . S
C2030 H2042 0.956 . S
C2030 H2043 0.961 . S
C2030 H2044 0.961 1_565 S
C2031 C2028 1.539 . S
C2031 H2045 0.958 . S
C2031 H2046 0.961 . S
C2031 H2047 0.960 . S
H2032 C2016 0.931 . S
H2033 C2021 0.929 . S
H2034 C2022 0.960 . S
H2035 C2022 0.962 . S
H2036 C2022 0.960 . S
H2037 C2023 0.961 . S
H2038 C2023 0.961 . S
H2039 C2023 0.961 . S
H2040 C2024 0.931 . S
H2041 C2029 0.930 . S
H2042 C2030 0.956 . S
H2043 C2030 0.961 . S
H2044 C2030 0.961 1_545 S
H2045 C2031 0.958 . S
H2046 C2031 0.961 . S
H2047 C2031 0.960 . S
C2048 C2049 1.391 . S
C2048 C2050 1.394 . S
C2048 H2064 0.931 . S
C2049 C2048 1.391 . S
C2049 C2053 1.376 . S
C2050 C2048 1.394 . S
C2050 C2051 1.369 . S
C2050 C2054 1.531 1_545 S
C2051 C2050 1.369 . S
C2051 C2052 1.410 . S
C2051 C2059 1.503 1_545 S
C2052 C2051 1.410 . S
C2052 C2053 1.392 . S
C2052 C2055 1.511 . S
C2053 C2049 1.376 . S
C2053 C2052 1.392 . S
C2053 H2065 0.929 . S
C2054 C2050 1.531 1_565 S
C2054 H2066 0.960 . S
C2054 H2067 0.975 . S
C2054 H2068 0.960 . S
C2055 C2052 1.511 . S
C2055 H2069 0.961 . S
C2055 H2070 0.961 . S
C2055 H2071 0.961 . S
C2056 C2057 1.370 . S
C2056 C2058 1.363 . S
C2056 H2072 0.931 . S
C2057 C2056 1.370 . S
C2057 C2061 1.408 . S
C2058 C2056 1.363 . S
C2058 C2059 1.370 . S
C2058 C2062 1.524 1_565 S
C2059 C2051 1.503 1_565 S
C2059 C2058 1.370 . S
C2059 C2060 1.403 . S
C2060 C2059 1.403 . S
C2060 C2061 1.404 . S
C2060 C2063 1.539 . S
C2061 C2057 1.408 . S
C2061 C2060 1.404 . S
C2061 H2073 0.930 . S
C2062 C2058 1.524 1_545 S
C2062 H2074 0.956 . S
C2062 H2075 0.961 . S
C2062 H2076 0.961 . S
C2063 C2060 1.539 . S
C2063 H2077 0.958 . S
C2063 H2078 0.961 . S
C2063 H2079 0.960 . S
H2064 C2048 0.931 . S
H2065 C2053 0.929 . S
H2066 C2054 0.960 . S
H2067 C2054 0.975 . S
H2068 C2054 0.960 . S
H2069 C2055 0.961 . S
H2070 C2055 0.961 . S
H2071 C2055 0.961 . S
H2072 C2056 0.931 . S
H2073 C2061 0.930 . S
H2074 C2062 0.956 . S
H2075 C2062 0.961 . S
H2076 C2062 0.961 . S
H2077 C2063 0.958 . S
H2078 C2063 0.961 . S
H2079 C2063 0.960 . S
C2080 C2081 1.391 . S
C2080 C2082 1.394 . S
C2080 H2096 0.931 . S
C2081 C2080 1.391 . S
C2081 C2085 1.376 . S
C2082 C2080 1.394 . S
C2082 C2083 1.369 . S
C2082 C2086 1.531 1_554 S
C2083 C2082 1.369 . S
C2083 C2084 1.410 . S
C2083 C2091 1.503 1_554 S
C2084 C2083 1.410 . S
C2084 C2085 1.392 . S
C2084 C2087 1.511 . S
C2085 C2081 1.376 . S
C2085 C2084 1.392 . S
C2085 H2097 0.929 . S
C2086 C2082 1.531 1_556 S
C2086 H2098 0.960 . S
C2086 H2099 0.962 . S
C2086 H2100 0.960 1_545 S
C2087 C2084 1.511 . S
C2087 H2101 0.961 . S
C2087 H2102 0.961 . S
C2087 H2103 0.961 . S
C2088 C2089 1.370 . S
C2088 C2090 1.363 . S
C2088 H2104 0.931 . S
C2089 C2088 1.370 . S
C2089 C2093 1.408 . S
C2090 C2088 1.363 . S
C2090 C2091 1.370 . S
C2090 C2094 1.524 . S
C2091 C2083 1.503 1_556 S
C2091 C2090 1.370 . S
C2091 C2092 1.403 . S
C2092 C2091 1.403 . S
C2092 C2093 1.404 . S
C2092 C2095 1.539 1_556 S
C2093 C2089 1.408 . S
C2093 C2092 1.404 . S
C2093 H2105 0.930 . S
C2094 C2090 1.524 . S
C2094 H2106 0.956 . S
C2094 H2107 0.961 . S
C2094 H2108 0.961 . S
C2095 C2092 1.539 1_554 S
C2095 H2109 0.958 1_545 S
C2095 H2110 0.961 . S
C2095 H2111 0.960 . S
H2096 C2080 0.931 . S
H2097 C2085 0.929 . S
H2098 C2086 0.960 . S
H2099 C2086 0.962 . S
H2100 C2086 0.960 1_565 S
H2101 C2087 0.961 . S
H2102 C2087 0.961 . S
H2103 C2087 0.961 . S
H2104 C2088 0.931 . S
H2105 C2093 0.930 . S
H2106 C2094 0.956 . S
H2107 C2094 0.961 . S
H2108 C2094 0.961 . S
H2109 C2095 0.958 1_565 S
H2110 C2095 0.961 . S
H2111 C2095 0.960 . S
C2112 C2113 1.391 . S
C2112 C2114 1.394 . S
C2112 H2128 0.931 . S
C2113 C2112 1.391 . S
C2113 C2117 1.376 . S
C2114 C2112 1.394 . S
C2114 C2115 1.369 . S
C2114 C2118 1.531 1_545 S
C2115 C2114 1.369 . S
C2115 C2116 1.410 . S
C2115 C2123 1.503 1_545 S
C2116 C2115 1.410 . S
C2116 C2117 1.392 . S
C2116 C2119 1.511 . S
C2117 C2113 1.376 . S
C2117 C2116 1.392 . S
C2117 H2129 0.929 . S
C2118 C2114 1.531 1_565 S
C2118 H2130 0.960 . S
C2118 H2131 0.962 . S
C2118 H2132 0.960 . S
C2119 C2116 1.511 . S
C2119 H2133 0.961 . S
C2119 H2134 0.961 . S
C2119 H2135 0.961 . S
C2120 C2121 1.370 . S
C2120 C2122 1.363 . S
C2120 H2136 0.931 . S
C2121 C2120 1.370 . S
C2121 C2125 1.408 . S
C2122 C2120 1.363 . S
C2122 C2123 1.370 . S
C2122 C2126 1.524 1_565 S
C2123 C2115 1.503 1_565 S
C2123 C2122 1.370 . S
C2123 C2124 1.403 . S
C2124 C2123 1.403 . S
C2124 C2125 1.404 . S
C2124 C2127 1.539 . S
C2125 C2121 1.408 . S
C2125 C2124 1.404 . S
C2125 H2137 0.930 . S
C2126 C2122 1.524 1_545 S
C2126 H2138 0.956 . S
C2126 H2139 0.961 . S
C2126 H2140 0.961 . S
C2127 C2124 1.539 . S
C2127 H2141 0.958 . S
C2127 H2142 0.961 . S
C2127 H2143 0.960 . S
H2128 C2112 0.931 . S
H2129 C2117 0.929 . S
H2130 C2118 0.960 . S
H2131 C2118 0.962 . S
H2132 C2118 0.960 . S
H2133 C2119 0.961 . S
H2134 C2119 0.961 . S
H2135 C2119 0.961 . S
H2136 C2120 0.931 . S
H2137 C2125 0.930 . S
H2138 C2126 0.956 . S
H2139 C2126 0.961 . S
H2140 C2126 0.961 . S
H2141 C2127 0.958 . S
H2142 C2127 0.961 . S
H2143 C2127 0.960 . S
C2144 C2145 1.391 . S
C2144 C2146 1.394 . S
C2144 H2160 0.931 . S
C2145 C2144 1.391 . S
C2145 C2149 1.376 . S
C2146 C2144 1.394 . S
C2146 C2147 1.369 . S
C2146 C2150 1.531 . S
C2147 C2146 1.369 . S
C2147 C2148 1.410 . S
C2147 C2155 1.503 . S
C2148 C2147 1.410 . S
C2148 C2149 1.392 . S
C2148 C2151 1.511 . S
C2149 C2145 1.376 . S
C2149 C2148 1.392 . S
C2149 H2161 0.929 . S
C2150 C2146 1.531 . S
C2150 H2162 0.960 . S
C2150 H2163 0.962 . S
C2150 H2164 0.960 1_545 S
C2151 C2148 1.511 . S
C2151 H2165 0.961 . S
C2151 H2166 0.961 . S
C2151 H2167 0.961 . S
C2152 C2153 1.370 . S
C2152 C2154 1.363 . S
C2152 H2168 0.931 . S
C2153 C2152 1.370 . S
C2153 C2157 1.408 . S
C2154 C2152 1.363 . S
C2154 C2155 1.370 . S
C2154 C2158 1.524 . S
C2155 C2147 1.503 . S
C2155 C2154 1.370 . S
C2155 C2156 1.403 . S
C2156 C2155 1.403 . S
C2156 C2157 1.404 . S
C2156 C2159 1.539 . S
C2157 C2153 1.408 . S
C2157 C2156 1.404 . S
C2157 H2169 0.930 . S
C2158 C2154 1.524 . S
C2158 H2170 0.956 . S
C2158 H2171 0.961 . S
C2158 H2172 0.961 . S
C2159 C2156 1.539 . S
C2159 H2173 0.958 1_545 S
C2159 H2174 0.961 . S
C2159 H2175 0.960 . S
H2160 C2144 0.931 . S
H2161 C2149 0.929 . S
H2162 C2150 0.960 . S
H2163 C2150 0.962 . S
H2164 C2150 0.960 1_565 S
H2165 C2151 0.961 . S
H2166 C2151 0.961 . S
H2167 C2151 0.961 . S
H2168 C2152 0.931 . S
H2169 C2157 0.930 . S
H2170 C2158 0.956 . S
H2171 C2158 0.961 . S
H2172 C2158 0.961 . S
H2173 C2159 0.958 1_565 S
H2174 C2159 0.961 . S
H2175 C2159 0.960 . S
C2176 C2177 1.391 . S
C2176 C2178 1.394 . S
C2176 H2192 0.931 . S
C2177 C2176 1.391 . S
C2177 C2181 1.376 . S
C2178 C2176 1.394 . S
C2178 C2179 1.369 . S
C2178 C2182 1.541 . S
C2179 C2178 1.369 . S
C2179 C2180 1.410 . S
C2179 C2187 1.503 1_545 S
C2180 C2179 1.410 . S
C2180 C2181 1.392 . S
C2180 C2183 1.511 . S
C2181 C2177 1.376 . S
C2181 C2180 1.392 . S
C2181 H2193 0.929 . S
C2182 C2178 1.541 . S
C2182 H2194 0.937 1_545 S
C2182 H2195 0.974 . S
C2182 H2196 0.960 . S
C2183 C2180 1.511 . S
C2183 H2197 0.961 . S
C2183 H2198 0.961 . S
C2183 H2199 0.961 1_545 S
C2184 C2185 1.370 . S
C2184 C2186 1.363 . S
C2184 H2200 0.931 . S
C2185 C2184 1.370 . S
C2185 C2189 1.408 . S
C2186 C2184 1.363 . S
C2186 C2187 1.370 . S
C2186 C2190 1.524 1_565 S
C2187 C2179 1.503 1_565 S
C2187 C2186 1.370 . S
C2187 C2188 1.403 . S
C2188 C2187 1.403 . S
C2188 C2189 1.404 . S
C2188 C2191 1.539 . S
C2189 C2185 1.408 . S
C2189 C2188 1.404 . S
C2189 H2201 0.930 . S
C2190 C2186 1.524 1_545 S
C2190 H2202 0.956 . S
C2190 H2203 0.961 . S
C2190 H2204 0.961 . S
C2191 C2188 1.539 . S
C2191 H2205 0.958 . S
C2191 H2206 0.961 . S
C2191 H2207 0.960 . S
H2192 C2176 0.931 . S
H2193 C2181 0.929 . S
H2194 C2182 0.937 1_565 S
H2195 C2182 0.974 . S
H2196 C2182 0.960 . S
H2197 C2183 0.961 . S
H2198 C2183 0.961 . S
H2199 C2183 0.961 1_565 S
H2200 C2184 0.931 . S
H2201 C2189 0.930 . S
H2202 C2190 0.956 . S
H2203 C2190 0.961 . S
H2204 C2190 0.961 . S
H2205 C2191 0.958 . S
H2206 C2191 0.961 . S
H2207 C2191 0.960 . S
C2208 C2209 1.391 . S
C2208 C2210 1.394 . S
C2208 H2224 0.931 . S
C2209 C2208 1.391 . S
C2209 C2213 1.376 . S
C2210 C2208 1.394 . S
C2210 C2211 1.369 . S
C2210 C2214 1.531 . S
C2211 C2210 1.369 . S
C2211 C2212 1.410 . S
C2211 C2219 1.503 1_556 S
C2212 C2211 1.410 . S
C2212 C2213 1.392 . S
C2212 C2215 1.527 1_565 S
C2213 C2209 1.376 . S
C2213 C2212 1.392 . S
C2213 H2225 0.929 . S
C2214 C2210 1.531 . S
C2214 H2226 0.960 . S
C2214 H2227 0.962 . S
C2214 H2228 0.960 . S
C2215 C2212 1.527 1_545 S
C2215 H2229 0.957 1_556 S
C2215 H2230 0.936 1_546 S
C2215 H2231 0.972 . S
C2216 C2217 1.370 . S
C2216 C2218 1.363 . S
C2216 H2232 0.931 . S
C2217 C2216 1.370 . S
C2217 C2221 1.408 . S
C2218 C2216 1.363 . S
C2218 C2219 1.370 . S
C2218 C2222 1.524 . S
C2219 C2211 1.503 1_554 S
C2219 C2218 1.370 . S
C2219 C2220 1.403 . S
C2220 C2219 1.403 . S
C2220 C2221 1.404 . S
C2220 C2223 1.539 1_554 S
C2221 C2217 1.408 . S
C2221 C2220 1.404 . S
C2221 H2233 0.930 . S
C2222 C2218 1.524 . S
C2222 H2234 0.956 . S
C2222 H2235 0.961 . S
C2222 H2236 0.961 . S
C2223 C2220 1.539 1_556 S
C2223 H2237 0.958 . S
C2223 H2238 0.961 . S
C2223 H2239 0.960 . S
H2224 C2208 0.931 . S
H2225 C2213 0.929 . S
H2226 C2214 0.960 . S
H2227 C2214 0.962 . S
H2228 C2214 0.960 . S
H2229 C2215 0.957 1_554 S
H2230 C2215 0.936 1_564 S
H2231 C2215 0.972 . S
H2232 C2216 0.931 . S
H2233 C2221 0.930 . S
H2234 C2222 0.956 . S
H2235 C2222 0.961 . S
H2236 C2222 0.961 . S
H2237 C2223 0.958 . S
H2238 C2223 0.961 . S
H2239 C2223 0.960 . S
C2240 C2241 1.391 . S
C2240 C2242 1.394 . S
C2240 H2256 0.931 . S
C2241 C2240 1.391 . S
C2241 C2245 1.376 . S
C2242 C2240 1.394 . S
C2242 C2243 1.369 . S
C2242 C2246 1.531 . S
C2243 C2242 1.369 . S
C2243 C2244 1.410 . S
C2243 C2251 1.503 . S
C2244 C2243 1.410 . S
C2244 C2245 1.392 . S
C2244 C2247 1.511 . S
C2245 C2241 1.376 . S
C2245 C2244 1.392 . S
C2245 H2257 0.929 . S
C2246 C2242 1.531 . S
C2246 H2258 0.960 . S
C2246 H2259 0.962 . S
C2246 H2260 0.960 . S
C2247 C2244 1.511 . S
C2247 H2261 0.961 . S
C2247 H2262 0.961 . S
C2247 H2263 0.961 . S
C2248 C2249 1.370 . S
C2248 C2250 1.363 . S
C2248 H2264 0.931 . S
C2249 C2248 1.370 . S
C2249 C2253 1.408 . S
C2250 C2248 1.363 . S
C2250 C2251 1.370 . S
C2250 C2254 1.524 . S
C2251 C2243 1.503 . S
C2251 C2250 1.370 . S
C2251 C2252 1.403 . S
C2252 C2251 1.403 . S
C2252 C2253 1.404 . S
C2252 C2255 1.539 . S
C2253 C2249 1.408 . S
C2253 C2252 1.404 . S
C2253 H2265 0.930 . S
C2254 C2250 1.524 . S
C2254 H2266 0.956 . S
C2254 H2267 0.961 . S
C2254 H2268 0.961 . S
C2255 C2252 1.539 . S
C2255 H2269 0.958 . S
C2255 H2270 0.961 . S
C2255 H2271 0.960 . S
H2256 C2240 0.931 . S
H2257 C2245 0.929 . S
H2258 C2246 0.960 . S
H2259 C2246 0.962 . S
H2260 C2246 0.960 . S
H2261 C2247 0.961 . S
H2262 C2247 0.961 . S
H2263 C2247 0.961 . S
H2264 C2248 0.931 . S
H2265 C2253 0.930 . S
H2266 C2254 0.956 . S
H2267 C2254 0.961 . S
H2268 C2254 0.961 . S
H2269 C2255 0.958 . S
H2270 C2255 0.961 . S
H2271 C2255 0.960 . S
C2272 C2273 1.391 . S
C2272 C2274 1.394 . S
C2272 H2288 0.931 . S
C2273 C2272 1.391 . S
C2273 C2277 1.376 . S
C2274 C2272 1.394 . S
C2274 C2275 1.369 . S
C2274 C2278 1.531 . S
C2275 C2274 1.369 . S
C2275 C2276 1.410 . S
C2275 C2283 1.503 1_556 S
C2276 C2275 1.410 . S
C2276 C2277 1.392 . S
C2276 C2279 1.511 1_556 S
C2277 C2273 1.376 . S
C2277 C2276 1.392 . S
C2277 H2289 0.929 . S
C2278 C2274 1.531 . S
C2278 H2290 0.960 . S
C2278 H2291 0.962 . S
C2278 H2292 0.960 . S
C2279 C2276 1.511 1_554 S
C2279 H2293 0.961 . S
C2279 H2294 0.961 . S
C2279 H2295 0.961 . S
C2280 C2281 1.370 . S
C2280 C2282 1.363 . S
C2280 H2296 0.931 . S
C2281 C2280 1.370 . S
C2281 C2285 1.408 . S
C2282 C2280 1.363 . S
C2282 C2283 1.370 . S
C2282 C2286 1.532 . S
C2283 C2275 1.503 1_554 S
C2283 C2282 1.370 . S
C2283 C2284 1.403 . S
C2284 C2283 1.403 . S
C2284 C2285 1.404 . S
C2284 C2287 1.539 . S
C2285 C2281 1.408 . S
C2285 C2284 1.404 . S
C2285 H2297 0.930 . S
C2286 C2282 1.532 . S
C2286 H2298 0.942 1_554 S
C2286 H2299 0.960 . S
C2286 H2300 0.966 . S
C2287 C2284 1.539 . S
C2287 H2301 0.958 . S
C2287 H2302 0.961 . S
C2287 H2303 0.960 . S
H2288 C2272 0.931 . S
H2289 C2277 0.929 . S
H2290 C2278 0.960 . S
H2291 C2278 0.962 . S
H2292 C2278 0.960 . S
H2293 C2279 0.961 . S
H2294 C2279 0.961 . S
H2295 C2279 0.961 . S
H2296 C2280 0.931 . S
H2297 C2285 0.930 . S
H2298 C2286 0.942 1_556 S
H2299 C2286 0.960 . S
H2300 C2286 0.966 . S
H2301 C2287 0.958 . S
H2302 C2287 0.961 . S
H2303 C2287 0.960 . S
C2304 C2305 1.391 . S
C2304 C2306 1.394 . S
C2304 H2320 0.931 . S
C2305 C2304 1.391 . S
C2305 C2309 1.376 . S
C2306 C2304 1.394 . S
C2306 C2307 1.369 . S
C2306 C2310 1.531 . S
C2307 C2306 1.369 . S
C2307 C2308 1.410 . S
C2307 C2315 1.503 . S
C2308 C2307 1.410 . S
C2308 C2309 1.392 . S
C2308 C2311 1.511 . S
C2309 C2305 1.376 . S
C2309 C2308 1.392 . S
C2309 H2321 0.929 . S
C2310 C2306 1.531 . S
C2310 H2322 0.960 . S
C2310 H2323 0.962 . S
C2310 H2324 0.960 . S
C2311 C2308 1.511 . S
C2311 H2325 0.961 . S
C2311 H2326 0.961 . S
C2311 H2327 0.961 . S
C2312 C2313 1.370 . S
C2312 C2314 1.363 . S
C2312 H2328 0.931 . S
C2313 C2312 1.370 . S
C2313 C2317 1.408 . S
C2314 C2312 1.363 . S
C2314 C2315 1.370 . S
C2314 C2318 1.524 . S
C2315 C2307 1.503 . S
C2315 C2314 1.370 . S
C2315 C2316 1.403 . S
C2316 C2315 1.403 . S
C2316 C2317 1.404 . S
C2316 C2319 1.539 . S
C2317 C2313 1.408 . S
C2317 C2316 1.404 . S
C2317 H2329 0.930 . S
C2318 C2314 1.524 . S
C2318 H2330 0.956 . S
C2318 H2331 0.961 . S
C2318 H2332 0.961 . S
C2319 C2316 1.539 . S
C2319 H2333 0.958 . S
C2319 H2334 0.961 . S
C2319 H2335 0.960 . S
H2320 C2304 0.931 . S
H2321 C2309 0.929 . S
H2322 C2310 0.960 . S
H2323 C2310 0.962 . S
H2324 C2310 0.960 . S
H2325 C2311 0.961 . S
H2326 C2311 0.961 . S
H2327 C2311 0.961 . S
H2328 C2312 0.931 . S
H2329 C2317 0.930 . S
H2330 C2318 0.956 . S
H2331 C2318 0.961 . S
H2332 C2318 0.961 . S
H2333 C2319 0.958 . S
H2334 C2319 0.961 . S
H2335 C2319 0.960 . S
C2336 C2337 1.391 . S
C2336 C2338 1.394 . S
C2336 H2352 0.931 . S
C2337 C2336 1.391 . S
C2337 C2341 1.376 . S
C2338 C2336 1.394 . S
C2338 C2339 1.369 . S
C2338 C2342 1.531 . S
C2339 C2338 1.369 . S
C2339 C2340 1.410 . S
C2339 C2347 1.503 . S
C2340 C2339 1.410 . S
C2340 C2341 1.392 . S
C2340 C2343 1.511 . S
C2341 C2337 1.376 . S
C2341 C2340 1.392 . S
C2341 H2353 0.929 . S
C2342 C2338 1.531 . S
C2342 H2354 0.960 . S
C2342 H2355 0.962 . S
C2342 H2356 0.960 . S
C2343 C2340 1.511 . S
C2343 H2357 0.961 . S
C2343 H2358 0.961 . S
C2343 H2359 0.961 . S
C2344 C2345 1.370 . S
C2344 C2346 1.363 . S
C2344 H2360 0.931 . S
C2345 C2344 1.370 . S
C2345 C2349 1.408 . S
C2346 C2344 1.363 . S
C2346 C2347 1.370 . S
C2346 C2350 1.524 . S
C2347 C2339 1.503 . S
C2347 C2346 1.370 . S
C2347 C2348 1.403 . S
C2348 C2347 1.403 . S
C2348 C2349 1.404 . S
C2348 C2351 1.539 . S
C2349 C2345 1.408 . S
C2349 C2348 1.404 . S
C2349 H2361 0.930 . S
C2350 C2346 1.524 . S
C2350 H2362 0.956 . S
C2350 H2363 0.961 . S
C2350 H2364 0.961 . S
C2351 C2348 1.539 . S
C2351 H2365 0.958 . S
C2351 H2366 0.961 . S
C2351 H2367 0.960 . S
H2352 C2336 0.931 . S
H2353 C2341 0.929 . S
H2354 C2342 0.960 . S
H2355 C2342 0.962 . S
H2356 C2342 0.960 . S
H2357 C2343 0.961 . S
H2358 C2343 0.961 . S
H2359 C2343 0.961 . S
H2360 C2344 0.931 . S
H2361 C2349 0.930 . S
H2362 C2350 0.956 . S
H2363 C2350 0.961 . S
H2364 C2350 0.961 . S
H2365 C2351 0.958 . S
H2366 C2351 0.961 . S
H2367 C2351 0.960 . S
C2368 C2369 1.391 . S
C2368 C2370 1.394 . S
C2368 H2384 0.931 . S
C2369 C2368 1.391 . S
C2369 C2373 1.376 . S
C2370 C2368 1.394 . S
C2370 C2371 1.369 . S
C2370 C2374 1.531 . S
C2371 C2370 1.369 . S
C2371 C2372 1.410 . S
C2371 C2379 1.503 . S
C2372 C2371 1.410 . S
C2372 C2373 1.392 . S
C2372 C2375 1.511 . S
C2373 C2369 1.376 . S
C2373 C2372 1.392 . S
C2373 H2385 0.929 . S
C2374 C2370 1.531 . S
C2374 H2386 0.960 . S
C2374 H2387 0.962 . S
C2374 H2388 0.960 . S
C2375 C2372 1.511 . S
C2375 H2389 0.961 . S
C2375 H2390 0.961 . S
C2375 H2391 0.961 . S
C2376 C2377 1.370 . S
C2376 C2378 1.363 . S
C2376 H2392 0.931 . S
C2377 C2376 1.370 . S
C2377 C2381 1.408 . S
C2378 C2376 1.363 . S
C2378 C2379 1.370 . S
C2378 C2382 1.524 . S
C2379 C2371 1.503 . S
C2379 C2378 1.370 . S
C2379 C2380 1.403 . S
C2380 C2379 1.403 . S
C2380 C2381 1.404 . S
C2380 C2383 1.539 . S
C2381 C2377 1.408 . S
C2381 C2380 1.404 . S
C2381 H2393 0.930 . S
C2382 C2378 1.524 . S
C2382 H2394 0.956 . S
C2382 H2395 0.961 . S
C2382 H2396 0.961 . S
C2383 C2380 1.539 . S
C2383 H2397 0.958 . S
C2383 H2398 0.961 . S
C2383 H2399 0.960 . S
H2384 C2368 0.931 . S
H2385 C2373 0.929 . S
H2386 C2374 0.960 . S
H2387 C2374 0.962 . S
H2388 C2374 0.960 . S
H2389 C2375 0.961 . S
H2390 C2375 0.961 . S
H2391 C2375 0.961 . S
H2392 C2376 0.931 . S
H2393 C2381 0.930 . S
H2394 C2382 0.956 . S
H2395 C2382 0.961 . S
H2396 C2382 0.961 . S
H2397 C2383 0.958 . S
H2398 C2383 0.961 . S
H2399 C2383 0.960 . S
C2400 C2401 1.391 . S
C2400 C2402 1.394 . S
C2400 H2416 0.931 . S
C2401 C2400 1.391 . S
C2401 C2405 1.376 . S
C2402 C2400 1.394 . S
C2402 C2403 1.369 . S
C2402 C2406 1.531 1_556 S
C2403 C2402 1.369 . S
C2403 C2404 1.410 . S
C2403 C2411 1.503 1_556 S
C2404 C2403 1.410 . S
C2404 C2405 1.392 . S
C2404 C2407 1.511 . S
C2405 C2401 1.376 . S
C2405 C2404 1.392 . S
C2405 H2417 0.929 . S
C2406 C2402 1.531 1_554 S
C2406 H2418 0.960 . S
C2406 H2419 0.962 . S
C2406 H2420 0.960 . S
C2407 C2404 1.511 . S
C2407 H2421 0.961 . S
C2407 H2422 0.961 . S
C2407 H2423 0.961 . S
C2408 C2409 1.370 . S
C2408 C2410 1.363 . S
C2408 H2424 0.931 . S
C2409 C2408 1.370 . S
C2409 C2413 1.408 . S
C2410 C2408 1.363 . S
C2410 C2411 1.370 . S
C2410 C2414 1.524 1_554 S
C2411 C2403 1.503 1_554 S
C2411 C2410 1.370 . S
C2411 C2412 1.403 . S
C2412 C2411 1.403 . S
C2412 C2413 1.404 . S
C2412 C2415 1.539 . S
C2413 C2409 1.408 . S
C2413 C2412 1.404 . S
C2413 H2425 0.930 . S
C2414 C2410 1.524 1_556 S
C2414 H2426 0.956 . S
C2414 H2427 0.961 . S
C2414 H2428 0.961 . S
C2415 C2412 1.539 . S
C2415 H2429 0.958 . S
C2415 H2430 0.961 . S
C2415 H2431 0.960 . S
H2416 C2400 0.931 . S
H2417 C2405 0.929 . S
H2418 C2406 0.960 . S
H2419 C2406 0.962 . S
H2420 C2406 0.960 . S
H2421 C2407 0.961 . S
H2422 C2407 0.961 . S
H2423 C2407 0.961 . S
H2424 C2408 0.931 . S
H2425 C2413 0.930 . S
H2426 C2414 0.956 . S
H2427 C2414 0.961 . S
H2428 C2414 0.961 . S
H2429 C2415 0.958 . S
H2430 C2415 0.961 . S
H2431 C2415 0.960 . S
C2432 C2433 1.391 . S
C2432 C2434 1.394 . S
C2432 H2448 0.931 . S
C2433 C2432 1.391 . S
C2433 C2437 1.376 . S
C2434 C2432 1.394 . S
C2434 C2435 1.369 . S
C2434 C2438 1.531 . S
C2435 C2434 1.369 . S
C2435 C2436 1.410 . S
C2435 C2443 1.503 . S
C2436 C2435 1.410 . S
C2436 C2437 1.392 . S
C2436 C2439 1.511 . S
C2437 C2433 1.376 . S
C2437 C2436 1.392 . S
C2437 H2449 0.929 . S
C2438 C2434 1.531 . S
C2438 H2450 0.960 . S
C2438 H2451 0.962 . S
C2438 H2452 0.960 . S
C2439 C2436 1.511 . S
C2439 H2453 0.961 . S
C2439 H2454 0.961 . S
C2439 H2455 0.961 . S
C2440 C2441 1.370 . S
C2440 C2442 1.363 . S
C2440 H2456 0.931 . S
C2441 C2440 1.370 . S
C2441 C2445 1.408 . S
C2442 C2440 1.363 . S
C2442 C2443 1.370 . S
C2442 C2446 1.524 . S
C2443 C2435 1.503 . S
C2443 C2442 1.370 . S
C2443 C2444 1.403 . S
C2444 C2443 1.403 . S
C2444 C2445 1.404 . S
C2444 C2447 1.539 . S
C2445 C2441 1.408 . S
C2445 C2444 1.404 . S
C2445 H2457 0.930 . S
C2446 C2442 1.524 . S
C2446 H2458 0.956 . S
C2446 H2459 0.961 . S
C2446 H2460 0.961 . S
C2447 C2444 1.539 . S
C2447 H2461 0.958 . S
C2447 H2462 0.961 . S
C2447 H2463 0.960 . S
H2448 C2432 0.931 . S
H2449 C2437 0.929 . S
H2450 C2438 0.960 . S
H2451 C2438 0.962 . S
H2452 C2438 0.960 . S
H2453 C2439 0.961 . S
H2454 C2439 0.961 . S
H2455 C2439 0.961 . S
H2456 C2440 0.931 . S
H2457 C2445 0.930 . S
H2458 C2446 0.956 . S
H2459 C2446 0.961 . S
H2460 C2446 0.961 . S
H2461 C2447 0.958 . S
H2462 C2447 0.961 . S
H2463 C2447 0.960 . S
C2464 C2465 1.391 . S
C2464 C2466 1.394 . S
C2464 H2480 0.931 . S
C2465 C2464 1.391 . S
C2465 C2469 1.376 . S
C2466 C2464 1.394 . S
C2466 C2467 1.369 . S
C2466 C2470 1.531 . S
C2467 C2466 1.369 . S
C2467 C2468 1.410 . S
C2467 C2475 1.503 . S
C2468 C2467 1.410 . S
C2468 C2469 1.392 . S
C2468 C2471 1.511 . S
C2469 C2465 1.376 . S
C2469 C2468 1.392 . S
C2469 H2481 0.929 . S
C2470 C2466 1.531 . S
C2470 H2482 0.960 . S
C2470 H2483 0.962 . S
C2470 H2484 0.960 . S
C2471 C2468 1.511 . S
C2471 H2485 0.961 . S
C2471 H2486 0.961 . S
C2471 H2487 0.961 . S
C2472 C2473 1.370 . S
C2472 C2474 1.363 . S
C2472 H2488 0.931 . S
C2473 C2472 1.370 . S
C2473 C2477 1.408 . S
C2474 C2472 1.363 . S
C2474 C2475 1.370 . S
C2474 C2478 1.524 . S
C2475 C2467 1.503 . S
C2475 C2474 1.370 . S
C2475 C2476 1.403 . S
C2476 C2475 1.403 . S
C2476 C2477 1.404 . S
C2476 C2479 1.539 . S
C2477 C2473 1.408 . S
C2477 C2476 1.404 . S
C2477 H2489 0.930 . S
C2478 C2474 1.524 . S
C2478 H2490 0.956 . S
C2478 H2491 0.961 . S
C2478 H2492 0.961 . S
C2479 C2476 1.539 . S
C2479 H2493 0.958 . S
C2479 H2494 0.961 . S
C2479 H2495 0.960 . S
H2480 C2464 0.931 . S
H2481 C2469 0.929 . S
H2482 C2470 0.960 . S
H2483 C2470 0.962 . S
H2484 C2470 0.960 . S
H2485 C2471 0.961 . S
H2486 C2471 0.961 . S
H2487 C2471 0.961 . S
H2488 C2472 0.931 . S
H2489 C2477 0.930 . S
H2490 C2478 0.956 . S
H2491 C2478 0.961 . S
H2492 C2478 0.961 . S
H2493 C2479 0.958 . S
H2494 C2479 0.961 . S
H2495 C2479 0.960 . S
C449 C390 1.497 . S
C457 C1 1.504 . S
C481 C26 1.507 . S
C489 C112 1.495 . S
C513 C363 1.470 . S
C521 C28 1.515 . S
C545 C42 1.508 . S
C553 C153 1.496 . S
C577 C56 1.493 . S
C585 C419 1.493 . S
C609 C71 1.505 . S
C617 C208 1.482 . S
C641 C96 1.492 . S
C649 C447 1.493 . S
C673 C111 1.506 . S
C681 C181 1.497 . S
C705 C279 1.499 . S
C713 C125 1.504 . S
C737 C12 1.464 . S
C745 C139 1.515 . S
C769 C239 1.480 . S
C777 C140 1.513 . S
C801 C166 1.518 . S
C809 C41 1.483 . S
C833 C306 1.485 . S
C841 C168 1.513 . S
C865 C85 1.475 . S
C873 C182 1.510 . S
C897 C197 1.516 . S
C905 C334 1.481 . S
C929 C69 1.476 . S
C937 C222 1.509 . S
C961 C225 1.519 . S
C969 C155 1.485 . S
C993 C250 1.499 . S
C1001 C336 1.485 . S
C1025 C126 1.509 . S
C1033 C252 1.505 . S
C1057 C376 1.500 . S
C1065 C266 1.510 . S
C1089 C195 1.509 . S
C1097 C292 1.506 . S
C1121 C433 1.473 . S
C1129 C295 1.515 . S
C1153 C211 1.507 . S
C1161 C320 1.503 . S
C1185 C323 1.520 . S
C1193 C405 1.484 . S
C1217 C55 1.476 . S
C1225 C349 1.508 . S
C1249 C350 1.499 . S
C1257 C236 1.491 . S
C1281 C365 1.513 . S
C1289 C15 1.480 . S
C1313 C379 1.519 . S
C1321 C265 1.479 . S
C1345 C392 1.496 . S
C1353 C82 1.500 . S
C1377 C406 1.512 . S
C1385 C309 1.481 . S
C1409 C420 1.496 . S
C1417 C98 1.500 . S
C1441 C434 1.492 . S
C1449 C281 1.496 . S
C1473 C337 1.709 . S
C1481 C13 1.681 . S
C1505 C14 1.711 . S
C1513 C127 1.685 . S
C1537 C377 1.708 . S
C1545 C40 1.685 . S
C1569 C54 1.684 . S
C1577 C154 1.695 . S
C1601 C404 1.666 . S
C1609 C68 1.703 . S
C1633 C83 1.712 . S
C1641 C194 1.680 . S
C1665 C432 1.666 . S
C1673 C84 1.703 . S
C1697 C99 1.659 . S
C1705 C210 1.702 . S
C1729 C113 1.713 . S
C1737 C237 1.680 . S
C1761 C152 1.711 . S
C1769 C264 1.683 . S
C1793 C180 1.710 . S
C1801 C280 1.683 . S
C1825 C209 1.710 . S
C1833 C308 1.684 . S
C1857 C238 1.678 . S
C1865 C362 1.697 . S
C1889 C391 1.690 . S
C1897 C278 1.695 . S
C1921 C418 1.663 . S
C1929 C307 1.700 . S
C1953 C335 1.681 . S
C1961 C446 1.691 . S
C1985 C0 1.940 . S
C1993 C57 1.942 . S
C2017 C27 1.929 . S
C2025 C70 1.937 . S
C2049 C97 1.936 . S
C2057 C29 1.937 . S
C2081 C43 1.942 . S
C2089 C110 1.939 . S
C2113 C169 1.940 . S
C2121 C124 1.940 . S
C2145 C183 1.937 . S
C2153 C138 1.942 . S
C2177 C141 1.938 . S
C2185 C196 1.939 . S
C2209 C167 1.940 . S
C2217 C223 1.939 . S
C2241 C293 1.941 . S
C2249 C224 1.941 . S
C2273 C294 1.927 . S
C2281 C251 1.938 . S
C2305 C253 1.933 . S
C2313 C321 1.942 . S
C2337 C322 1.942 . S
C2345 C267 1.941 . S
C2369 C393 1.927 . S
C2377 C348 1.938 . S
C2401 C351 1.927 . S
C2409 C407 1.938 . S
C2433 C421 1.927 . S
C2441 C364 1.938 . S
C2465 C378 1.932 . S
C2473 C435 1.936 . S
