# Generated by pormake.
# Topology pcu-h, (3)-cn, num edge types: 1
# Building blocks:
#     Node 0, Type 0, BuildingBlock: WUSLED_clean_sbu_0, # of connection points: 3
#     Node 1, Type 0, BuildingBlock: WUSLED_clean_sbu_0, # of connection points: 3
#     Node 2, Type 0, BuildingBlock: WUSLED_clean_sbu_0, # of connection points: 3
#     Node 3, Type 0, BuildingBlock: WUSLED_clean_sbu_0, # of connection points: 3
#     Node 4, Type 0, BuildingBlock: WUSLED_clean_sbu_0, # of connection points: 3
#     Node 5, Type 0, BuildingBlock: WUSLED_clean_sbu_0, # of connection points: 3
#     Node 6, Type 0, BuildingBlock: WUSLED_clean_sbu_0, # of connection points: 3
#     Node 7, Type 0, BuildingBlock: WUSLED_clean_sbu_0, # of connection points: 3
#     Node 8, Type 0, BuildingBlock: WUSLED_clean_sbu_0, # of connection points: 3
#     Node 9, Type 0, BuildingBlock: WUSLED_clean_sbu_0, # of connection points: 3
#     Node 10, Type 0, BuildingBlock: WUSLED_clean_sbu_0, # of connection points: 3
#     Node 11, Type 0, BuildingBlock: WUSLED_clean_sbu_0, # of connection points: 3
#     Node 12, Type 0, BuildingBlock: WUSLED_clean_sbu_0, # of connection points: 3
#     Node 13, Type 0, BuildingBlock: WUSLED_clean_sbu_0, # of connection points: 3
#     Node 14, Type 0, BuildingBlock: WUSLED_clean_sbu_0, # of connection points: 3
#     Node 15, Type 0, BuildingBlock: WUSLED_clean_sbu_0, # of connection points: 3
#     Node 16, Type 0, BuildingBlock: WUSLED_clean_sbu_0, # of connection points: 3
#     Node 17, Type 0, BuildingBlock: WUSLED_clean_sbu_0, # of connection points: 3
#     Edge 18, Type (0, 0), BuildingBlock: TEMPAE_clean_linker_10, # of connection points: 2
#     Edge 19, Type (0, 0), BuildingBlock: TEMPAE_clean_linker_10, # of connection points: 2
#     Edge 20, Type (0, 0), BuildingBlock: TEMPAE_clean_linker_10, # of connection points: 2
#     Edge 21, Type (0, 0), BuildingBlock: TEMPAE_clean_linker_10, # of connection points: 2
#     Edge 22, Type (0, 0), BuildingBlock: TEMPAE_clean_linker_10, # of connection points: 2
#     Edge 23, Type (0, 0), BuildingBlock: TEMPAE_clean_linker_10, # of connection points: 2
#     Edge 24, Type (0, 0), BuildingBlock: TEMPAE_clean_linker_10, # of connection points: 2
#     Edge 25, Type (0, 0), BuildingBlock: TEMPAE_clean_linker_10, # of connection points: 2
#     Edge 26, Type (0, 0), BuildingBlock: TEMPAE_clean_linker_10, # of connection points: 2
#     Edge 27, Type (0, 0), BuildingBlock: TEMPAE_clean_linker_10, # of connection points: 2
#     Edge 28, Type (0, 0), BuildingBlock: TEMPAE_clean_linker_10, # of connection points: 2
#     Edge 29, Type (0, 0), BuildingBlock: TEMPAE_clean_linker_10, # of connection points: 2
#     Edge 30, Type (0, 0), BuildingBlock: TEMPAE_clean_linker_10, # of connection points: 2
#     Edge 31, Type (0, 0), BuildingBlock: TEMPAE_clean_linker_10, # of connection points: 2
#     Edge 32, Type (0, 0), BuildingBlock: TEMPAE_clean_linker_10, # of connection points: 2
#     Edge 33, Type (0, 0), BuildingBlock: TEMPAE_clean_linker_10, # of connection points: 2
#     Edge 34, Type (0, 0), BuildingBlock: TEMPAE_clean_linker_10, # of connection points: 2
#     Edge 35, Type (0, 0), BuildingBlock: TEMPAE_clean_linker_10, # of connection points: 2
#     Edge 36, Type (0, 0), BuildingBlock: TEMPAE_clean_linker_10, # of connection points: 2
#     Edge 37, Type (0, 0), BuildingBlock: TEMPAE_clean_linker_10, # of connection points: 2
#     Edge 38, Type (0, 0), BuildingBlock: TEMPAE_clean_linker_10, # of connection points: 2
#     Edge 39, Type (0, 0), BuildingBlock: TEMPAE_clean_linker_10, # of connection points: 2
#     Edge 40, Type (0, 0), BuildingBlock: TEMPAE_clean_linker_10, # of connection points: 2
#     Edge 41, Type (0, 0), BuildingBlock: TEMPAE_clean_linker_10, # of connection points: 2
#     Edge 42, Type (0, 0), BuildingBlock: TEMPAE_clean_linker_10, # of connection points: 2
#     Edge 43, Type (0, 0), BuildingBlock: TEMPAE_clean_linker_10, # of connection points: 2
#     Edge 44, Type (0, 0), BuildingBlock: TEMPAE_clean_linker_10, # of connection points: 2
# Relax obj value: 0.000
# Max RMSD: 0.008
# Mean RMSD: 0.007
data_MOF--net-pcu-h--node1-WUSLED_clean_sbu_0--edge1-TEMPAE_clean_linker_10
_symmetry_space_group_name_H-M    P1
_symmetry_Int_Tables_number       1
_symmetry_cell_setting            triclinic
loop_
_symmetry_equiv_pos_as_xyz
'x, y, z'
_cell_length_a     119.95569
_cell_length_b     119.20018
_cell_length_c     28.454555
_cell_angle_alpha  89.927313
_cell_angle_beta   90.025225
_cell_angle_gamma 120.11507
loop_
_atom_site_label
_atom_site_type_symbol
_atom_site_fract_x
_atom_site_fract_y
_atom_site_fract_z
_atom_type_partial_charge
C0 C 0.23229 0.1506 0.03405 0.0
C1 C 0.2221 0.1478 0.06522 0.0
C2 C 0.21564 0.16079 0.01819 0.0
C3 C 0.21389 0.15283 0.05735 0.0
C4 C 0.22566 0.16334 0.98654 0.0
C5 C 0.23389 0.15835 0.9945 0.0
U6 U 0.24444 0.12589 0.04847 0.0
O7 O 0.26326 0.1282 0.02882 0.0
O8 O 0.25734 0.12544 0.10278 0.0
C9 C 0.26662 0.12794 0.07266 0.0
C10 C 0.24205 0.14669 0.04451 0.0
C11 C 0.28001 0.13766 0.08715 0.0
C12 C 0.30227 0.15375 0.06756 0.0
C13 C 0.28932 0.1459 0.0543 0.0
C14 C 0.29689 0.1455 0.14692 0.0
C15 C 0.30629 0.15349 0.11389 0.0
C16 C 0.28397 0.13767 0.13369 0.0
C17 C 0.22051 0.08891 0.02636 0.0
C18 C 0.21694 0.07006 0.9805 0.0
C19 C 0.20814 0.06704 0.05891 0.0
C20 C 0.21347 0.08048 0.06339 0.0
C21 C 0.20961 0.0616 0.01711 0.0
C22 C 0.22227 0.08352 0.98498 0.0
C23 C 0.22448 0.10294 0.02898 0.0
O24 O 0.24053 0.14005 0.08328 0.0
O25 O 0.24611 0.14264 0.00898 0.0
O26 O 0.23257 0.11075 -0.00305 0.0
O27 O 0.22674 0.10825 0.07096 0.0
H28 H 0.22059 0.14194 0.09625 0.0
H29 H 0.20619 0.15052 0.08217 0.0
H30 H 0.22742 0.16954 0.95633 0.0
H31 H 0.24176 0.16086 0.97022 0.0
H32 H 0.30922 0.15965 0.04098 0.0
H33 H 0.2867 0.14605 0.01798 0.0
H34 H 0.29954 0.14516 0.18307 0.0
H35 H 0.2771 0.13135 0.15977 0.0
H36 H 0.21817 0.06625 0.94758 0.0
H37 H 0.20272 0.06088 0.08812 0.0
H38 H 0.21175 0.08423 0.09553 0.0
H39 H 0.22743 0.08965 0.95536 0.0
C40 C 0.88181 0.08896 0.0346 0.0
C41 C 0.88979 0.08348 0.03692 0.0
C42 C 0.87158 0.06213 0.01682 0.0
C43 C 0.88471 0.07017 0.02821 0.0
C44 C 0.86371 0.06776 0.01442 0.0
C45 C 0.86877 0.08099 0.02316 0.0
U46 U 0.90809 0.12543 0.04623 0.0
O47 O 0.9067 0.14247 0.02451 0.0
O48 O 0.9094 0.13959 0.09886 0.0
C49 C 0.90714 0.14642 0.06793 0.0
C50 C 0.88658 0.10281 0.0448 0.0
C51 C 0.89761 0.15043 0.08078 0.0
C52 C 0.88186 0.15065 0.13465 0.0
C53 C 0.88993 0.14581 0.12148 0.0
C54 C 0.88876 0.16462 0.06634 0.0
C55 C 0.88124 0.16022 0.10746 0.0
C56 C 0.89684 0.15982 0.05331 0.0
C57 C 0.94406 0.13624 0.01866 0.0
C58 C 0.96403 0.15559 0.04189 0.0
C59 C 0.96438 0.14163 0.98096 0.0
C60 C 0.95105 0.13351 0.98562 0.0
C61 C 0.97112 0.15271 0.00935 0.0
C62 C 0.95063 0.14742 0.04657 0.0
C63 C 0.93011 0.12685 0.02433 0.0
O64 O 0.89374 0.10766 0.08258 0.0
O65 O 0.89079 0.11076 0.0087 0.0
O66 O 0.92234 0.12737 0.99299 0.0
O67 O 0.92541 0.12474 0.06725 0.0
H68 H 0.89991 0.08946 0.04559 0.0
H69 H 0.89109 0.06622 0.03001 0.0
H70 H 0.85353 0.06189 0.00663 0.0
H71 H 0.86242 0.08499 0.02141 0.0
H72 H 0.87612 0.14692 0.16625 0.0
H73 H 0.89028 0.13858 0.14356 0.0
H74 H 0.88871 0.1721 0.04484 0.0
H75 H 0.90274 0.16368 0.0221 0.0
H76 H 0.96889 0.16398 0.06454 0.0
H77 H 0.96941 0.13921 0.95491 0.0
H78 H 0.94619 0.12497 0.96364 0.0
H79 H 0.94546 0.14973 0.07239 0.0
C80 C 0.88335 0.80156 0.03571 0.0
C81 C 0.88498 0.8111 0.06851 0.0
C82 C 0.87268 0.81782 0.01899 0.0
C83 C 0.87976 0.81914 0.06019 0.0
C84 C 0.87128 0.80844 0.98583 0.0
C85 C 0.87649 0.8004 0.99416 0.0
U86 U 0.90828 0.78972 0.04734 0.0
O87 O 0.90939 0.77705 0.10152 0.0
O88 O 0.90593 0.77077 0.02795 0.0
C89 C 0.90659 0.76757 0.07171 0.0
C90 C 0.88747 0.79192 0.0464 0.0
C91 C 0.89699 0.75418 0.08731 0.0
C92 C 0.88024 0.73191 0.06985 0.0
C93 C 0.88812 0.74487 0.05581 0.0
C94 C 0.88971 0.73729 0.1474 0.0
C95 C 0.88107 0.72788 0.11566 0.0
C96 C 0.89758 0.75022 0.13336 0.0
C97 C 0.94444 0.8139 0.01704 0.0
C98 C 0.96433 0.81489 0.04266 0.0
C99 C 0.96458 0.82738 0.97518 0.0
C100 C 0.95134 0.82254 0.98053 0.0
C101 C 0.97132 0.82371 0.00631 0.0
C102 C 0.95103 0.81002 0.04796 0.0
C103 C 0.93063 0.80981 0.02318 0.0
O104 O 0.89108 0.7875 0.01066 0.0
O105 O 0.8946 0.7939 0.08405 0.0
O106 O 0.92609 0.80767 0.06633 0.0
O107 O 0.92251 0.80138 0.99274 0.0
H108 H 0.89002 0.81217 0.10127 0.0
H109 H 0.88091 0.82612 0.08686 0.0
H110 H 0.86606 0.80723 0.95341 0.0
H111 H 0.8749 0.79306 0.96839 0.0
H112 H 0.87383 0.72496 0.04422 0.0
H113 H 0.88747 0.74749 0.01987 0.0
H114 H 0.89051 0.73465 0.18315 0.0
H115 H 0.90439 0.75709 0.15838 0.0
H116 H 0.96914 0.81172 0.06697 0.0
H117 H 0.9696 0.83427 0.94723 0.0
H118 H 0.9465 0.82576 0.95649 0.0
H119 H 0.94594 0.80336 0.07645 0.0
C120 C 0.09474 0.22583 0.94454 0.0
C121 C 0.09042 0.21568 0.9774 0.0
C122 C 0.06795 0.20909 0.96005 0.0
C123 C 0.07716 0.20741 0.98512 0.0
C124 C 0.0724 0.2192 0.92683 0.0
C125 C 0.08561 0.22744 0.91924 0.0
U126 U 0.13131 0.23682 0.93938 0.0
O127 O 0.14588 0.25011 0.8888 0.0
O128 O 0.14779 0.25533 0.96341 0.0
C129 C 0.15224 0.2591 0.92059 0.0
C130 C 0.10861 0.23528 0.93727 0.0
C131 C 0.15641 0.27279 0.90787 0.0
C132 C 0.15919 0.28925 0.85036 0.0
C133 C 0.15388 0.27618 0.86332 0.0
C134 C 0.16944 0.29583 0.92641 0.0
C135 C 0.16722 0.29928 0.88146 0.0
C136 C 0.16415 0.28279 0.93932 0.0
C137 C 0.14255 0.2119 0.96682 0.0
C138 C 0.16163 0.21109 0.94225 0.0
C139 C 0.14862 0.19764 0.00665 0.0
C140 C 0.14038 0.2027 0.00174 0.0
C141 C 0.15928 0.20162 0.97662 0.0
C142 C 0.15335 0.21617 0.93734 0.0
C143 C 0.13296 0.21617 0.96061 0.0
O144 O 0.11605 0.23879 0.97467 0.0
O145 O 0.11405 0.23355 0.90005 0.0
O146 O 0.13111 0.219 0.91766 0.0
O147 O 0.13296 0.22418 0.99236 0.0
H148 H 0.09728 0.21421 -0.00265 0.0
H149 H 0.07412 0.19965 0.01057 0.0
H150 H 0.06566 0.22095 0.90733 0.0
H151 H 0.0887 0.23526 0.89395 0.0
H152 H 0.15736 0.29149 0.8153 0.0
H153 H 0.14807 0.26876 0.83793 0.0
H154 H 0.17538 0.30324 0.95165 0.0
H155 H 0.16637 0.28052 0.97372 0.0
H156 H 0.16969 0.21434 0.91829 0.0
H157 H 0.14661 0.19056 0.03409 0.0
H158 H 0.13213 0.19926 0.02493 0.0
H159 H 0.15526 0.22325 0.91003 0.0
C160 C 0.80586 0.93782 0.95088 0.0
C161 C 0.81925 0.94295 0.9539 0.0
C162 C 0.82246 0.96458 0.96975 0.0
C163 C 0.82748 0.95622 0.96317 0.0
C164 C 0.80902 0.95928 0.96675 0.0
C165 C 0.80086 0.94609 0.9575 0.0
U166 U 0.79548 0.90127 0.93795 0.0
O167 O 0.7768 0.88427 0.95642 0.0
O168 O 0.78317 0.88759 0.88292 0.0
C169 C 0.77376 0.88061 0.91246 0.0
C170 C 0.79683 0.92403 0.93982 0.0
C171 C 0.76046 0.87677 0.89694 0.0
C172 C 0.7391 0.87387 0.9116 0.0
C173 C 0.75199 0.87881 0.92512 0.0
C174 C 0.74294 0.86505 0.841 0.0
C175 C 0.73435 0.86679 0.86956 0.0
C176 C 0.75579 0.86994 0.85459 0.0
C177 C 0.81961 0.88927 0.967 0.0
C178 C 0.82414 0.87303 0.93438 0.0
C179 C 0.83007 0.88016 0.01469 0.0
C180 C 0.82507 0.88849 0.00969 0.0
C181 C 0.82981 0.8724 0.97697 0.0
C182 C 0.81909 0.88135 0.92943 0.0
C183 C 0.81557 0.89914 0.96182 0.0
O184 O 0.7994 0.91931 0.9023 0.0
O185 O 0.79277 0.91592 0.97546 0.0
O186 O 0.80711 0.89864 0.99235 0.0
O187 O 0.8136 0.90193 0.91898 0.0
H188 H 0.82332 0.93673 0.94895 0.0
H189 H 0.83775 0.95991 0.96559 0.0
H190 H 0.80478 0.96539 0.97069 0.0
H191 H 0.79057 0.94236 0.95503 0.0
H192 H 0.73283 0.87555 0.93423 0.0
H193 H 0.75525 0.88402 0.95803 0.0
H194 H 0.73964 0.85952 0.80876 0.0
H195 H 0.76203 0.86808 0.83243 0.0
H196 H 0.82362 0.86709 0.90475 0.0
H197 H 0.8345 0.8801 0.04779 0.0
H198 H 0.82575 0.89458 0.03904 0.0
H199 H 0.81497 0.88171 0.89599 0.0
C200 C 0.09478 0.87417 0.94157 0.0
C201 C 0.0906 0.88072 0.97138 0.0
C202 C 0.0681 0.86381 0.95953 0.0
C203 C 0.07738 0.8756 0.98021 0.0
C204 C 0.0724 0.85746 0.92914 0.0
C205 C 0.08556 0.86258 0.92035 0.0
U206 U 0.13138 0.90009 0.93383 0.0
O207 O 0.14793 0.89794 0.95414 0.0
O208 O 0.1454 0.90156 0.88039 0.0
C209 C 0.152 0.89885 0.91063 0.0
C210 C 0.10859 0.87881 0.93294 0.0
C211 C 0.15591 0.8894 0.89516 0.0
C212 C 0.15792 0.87023 0.90804 0.0
C213 C 0.15297 0.87823 0.92137 0.0
C214 C 0.16856 0.88422 0.84157 0.0
C215 C 0.16589 0.87319 0.86818 0.0
C216 C 0.16365 0.89222 0.85495 0.0
C217 C 0.14369 0.9365 0.96228 0.0
C218 C 0.1591 0.95759 0.92893 0.0
C219 C 0.15367 0.95589 0.01144 0.0
C220 C 0.14533 0.94252 0.0062 0.0
C221 C 0.16055 0.96367 0.97275 0.0
C222 C 0.15079 0.94419 0.92373 0.0
C223 C 0.1337 0.92258 0.95692 0.0
O224 O 0.11377 0.88618 0.89577 0.0
O225 O 0.11626 0.88271 0.96972 0.0
O226 O 0.13381 0.91443 0.98788 0.0
O227 O 0.13108 0.91781 0.91407 0.0
H228 H 0.09754 0.88969 0.98819 0.0
H229 H 0.07445 0.88073 0.004 0.0
H230 H 0.06558 0.84852 0.91183 0.0
H231 H 0.08855 0.85738 0.89712 0.0
H232 H 0.15553 0.86174 0.9291 0.0
H233 H 0.14704 0.87577 0.9526 0.0
H234 H 0.1748 0.88695 0.81111 0.0
H235 H 0.1662 0.90083 0.83439 0.0
H236 H 0.16435 0.96322 0.89847 0.0
H237 H 0.15438 0.96021 0.04557 0.0
H238 H 0.13988 0.93691 0.03641 0.0
H239 H 0.14975 0.93991 0.88929 0.0
C240 C 0.90137 0.48636 0.37766 0.0
C241 C 0.89024 0.47937 0.35016 0.0
C242 C 0.88492 0.49659 0.35949 0.0
C243 C 0.88208 0.48443 0.34122 0.0
C244 C 0.89601 0.5034 0.38755 0.0
C245 C 0.90411 0.49834 0.39644 0.0
U246 U 0.91196 0.46034 0.38607 0.0
O247 O 0.93062 0.46237 0.36608 0.0
O248 O 0.92443 0.4588 0.43977 0.0
C249 C 0.93372 0.4614 0.40963 0.0
C250 C 0.91054 0.4817 0.38657 0.0
C251 C 0.94705 0.47074 0.42511 0.0
C252 C 0.96758 0.4909 0.41631 0.0
C253 C 0.95464 0.48284 0.40319 0.0
C254 C 0.96547 0.47505 0.4741 0.0
C255 C 0.97321 0.48706 0.45171 0.0
C256 C 0.95258 0.46701 0.46093 0.0
C257 C 0.88781 0.42394 0.35785 0.0
C258 C 0.88128 0.40267 0.39175 0.0
C259 C 0.87905 0.40466 0.30818 0.0
C260 C 0.88415 0.41805 0.31341 0.0
C261 C 0.87737 0.39673 0.34736 0.0
C262 C 0.88643 0.41609 0.39696 0.0
C263 C 0.89179 0.4379 0.363 0.0
O264 O 0.90831 0.47434 0.42382 0.0
O265 O 0.9143 0.47775 0.34993 0.0
O266 O 0.90007 0.446 0.33206 0.0
O267 O 0.89392 0.44271 0.40578 0.0
H268 H 0.88793 0.47009 0.33527 0.0
H269 H 0.87368 0.47895 0.31925 0.0
H270 H 0.89841 0.51264 0.403 0.0
H271 H 0.91262 0.50388 0.41789 0.0
H272 H 0.97318 0.50013 0.39864 0.0
H273 H 0.95064 0.48599 0.37547 0.0
H274 H 0.96946 0.47164 0.50095 0.0
H275 H 0.94699 0.45769 0.47812 0.0
H276 H 0.88028 0.39692 0.42264 0.0
H277 H 0.876 0.40045 0.27356 0.0
H278 H 0.88491 0.42378 0.28271 0.0
H279 H 0.88908 0.42024 0.43181 0.0
C280 C 0.54838 0.42213 0.37496 0.0
C281 C 0.55626 0.41769 0.35587 0.0
C282 C 0.53812 0.39538 0.35575 0.0
C283 C 0.55118 0.40442 0.34644 0.0
C284 C 0.53038 0.39996 0.37543 0.0
C285 C 0.53545 0.41315 0.38484 0.0
U286 U 0.57444 0.45878 0.38641 0.0
O287 O 0.57272 0.47567 0.36577 0.0
O288 O 0.57541 0.47262 0.4399 0.0
C289 C 0.573 0.47944 0.40941 0.0
C290 C 0.55312 0.436 0.38442 0.0
C291 C 0.5633 0.48316 0.42334 0.0
C292 C 0.54765 0.48977 0.40263 0.0
C293 C 0.55567 0.48487 0.38965 0.0
C294 C 0.55448 0.49118 0.48338 0.0
C295 C 0.54704 0.49314 0.4496 0.0
C296 C 0.56253 0.48632 0.4704 0.0
C297 C 0.61088 0.47087 0.36268 0.0
C298 C 0.62941 0.48646 0.31641 0.0
C299 C 0.63277 0.48009 0.39342 0.0
C300 C 0.61942 0.47195 0.3986 0.0
C301 C 0.63798 0.48734 0.35198 0.0
C302 C 0.61605 0.47831 0.3216 0.0
C303 C 0.5969 0.46097 0.36623 0.0
O304 O 0.56014 0.4409 0.42243 0.0
O305 O 0.55746 0.44391 0.34819 0.0
O306 O 0.58911 0.46127 0.33434 0.0
O307 O 0.59179 0.45823 0.40853 0.0
H308 H 0.56628 0.42448 0.34797 0.0
H309 H 0.55741 0.40127 0.33107 0.0
H310 H 0.52038 0.39331 0.38396 0.0
H311 H 0.52921 0.41635 0.39978 0.0
H312 H 0.54196 0.491 0.3757 0.0
H313 H 0.55608 0.48268 0.35298 0.0
H314 H 0.55444 0.49383 0.51974 0.0
H315 H 0.56843 0.48536 0.49714 0.0
H316 H 0.63303 0.49173 0.28375 0.0
H317 H 0.63901 0.48063 0.42186 0.0
H318 H 0.61582 0.46625 0.43044 0.0
H319 H 0.60983 0.47759 0.29279 0.0
C320 C 0.54982 0.13381 0.37223 0.0
C321 C 0.55534 0.14372 0.33832 0.0
C322 C 0.53927 0.1501 0.35517 0.0
C323 C 0.55014 0.1518 0.32994 0.0
C324 C 0.53401 0.14035 0.38979 0.0
C325 C 0.53921 0.13232 0.39812 0.0
U326 U 0.57532 0.12262 0.37873 0.0
O327 O 0.57629 0.1092 0.42968 0.0
O328 O 0.57316 0.104 0.35501 0.0
C329 C 0.57367 0.10019 0.39795 0.0
C330 C 0.55429 0.1244 0.37975 0.0
C331 C 0.56402 0.08655 0.41041 0.0
C332 C 0.54941 0.07023 0.46646 0.0
C333 C 0.55734 0.08328 0.4535 0.0
C334 C 0.55441 0.06347 0.39322 0.0
C335 C 0.54799 0.06014 0.43682 0.0
C336 C 0.56234 0.07648 0.38033 0.0
C337 C 0.61167 0.14689 0.35284 0.0
C338 C 0.63239 0.15153 0.38555 0.0
C339 C 0.63114 0.15701 0.30463 0.0
C340 C 0.61786 0.1521 0.30978 0.0
C341 C 0.63864 0.15694 0.34257 0.0
C342 C 0.61908 0.14656 0.39064 0.0
C343 C 0.59784 0.14299 0.35828 0.0
O344 O 0.5583 0.12089 0.34258 0.0
O345 O 0.56136 0.12609 0.41728 0.0
O346 O 0.59295 0.14033 0.40094 0.0
O347 O 0.58983 0.13513 0.32626 0.0
H348 H 0.56353 0.14507 0.31778 0.0
H349 H 0.55441 0.15914 0.30283 0.0
H350 H 0.52582 0.13889 0.41056 0.0
H351 H 0.53479 0.12476 0.42449 0.0
H352 H 0.54473 0.06808 0.50048 0.0
H353 H 0.55848 0.09077 0.47778 0.0
H354 H 0.5534 0.05601 0.36906 0.0
H355 H 0.56741 0.07867 0.34707 0.0
H356 H 0.6378 0.15115 0.41538 0.0
H357 H 0.63559 0.16125 0.27122 0.0
H358 H 0.61246 0.15265 0.28022 0.0
H359 H 0.61466 0.14267 0.42441 0.0
C360 C 0.76159 0.55798 0.28014 0.0
C361 C 0.75713 0.55226 0.32458 0.0
C362 C 0.7348 0.54137 0.29696 0.0
C363 C 0.7439 0.54407 0.33286 0.0
C364 C 0.73934 0.54689 0.25232 0.0
C365 C 0.75254 0.5551 0.24412 0.0
U366 U 0.79845 0.57024 0.27251 0.0
O367 O 0.81255 0.58345 0.22043 0.0
O368 O 0.81471 0.58915 0.29455 0.0
C369 C 0.81888 0.59272 0.25132 0.0
C370 C 0.77536 0.56779 0.27148 0.0
C371 C 0.82259 0.60624 0.23741 0.0
C372 C 0.82656 0.6224 0.17685 0.0
C373 C 0.82158 0.60943 0.19053 0.0
C374 C 0.83348 0.62932 0.25664 0.0
C375 C 0.83274 0.63256 0.20958 0.0
C376 C 0.82853 0.61637 0.27028 0.0
C377 C 0.81077 0.54622 0.30176 0.0
C378 C 0.82929 0.5447 0.27483 0.0
C379 C 0.81794 0.53336 0.34531 0.0
C380 C 0.8095 0.53817 0.33984 0.0
C381 C 0.8279 0.53645 0.31271 0.0
C382 C 0.82082 0.54954 0.26942 0.0
C383 C 0.80092 0.55016 0.29534 0.0
O384 O 0.7831 0.57199 0.30806 0.0
O385 O 0.78079 0.5661 0.23409 0.0
O386 O 0.79874 0.55257 0.25223 0.0
O387 O 0.80083 0.55826 0.32643 0.0
H388 H 0.76381 0.55428 0.35324 0.0
H389 H 0.7408 0.53987 0.3675 0.0
H390 H 0.73265 0.54519 0.22397 0.0
H391 H 0.75566 0.55949 0.20971 0.0
H392 H 0.82567 0.62447 0.14043 0.0
H393 H 0.8172 0.60193 0.16403 0.0
H394 H 0.83832 0.63685 0.28276 0.0
H395 H 0.8297 0.61431 0.30647 0.0
H396 H 0.83693 0.54743 0.24935 0.0
H397 H 0.81642 0.52691 0.37451 0.0
H398 H 0.80176 0.53536 0.365 0.0
H399 H 0.82205 0.55574 0.23968 0.0
C400 C 0.47453 0.27129 0.28432 0.0
C401 C 0.48729 0.27764 0.26765 0.0
C402 C 0.49127 0.29808 0.30265 0.0
C403 C 0.49556 0.2909 0.27667 0.0
C404 C 0.47854 0.29157 0.31986 0.0
C405 C 0.47031 0.27838 0.31077 0.0
U406 U 0.46314 0.2346 0.26712 0.0
O407 O 0.44445 0.21772 0.28682 0.0
O408 O 0.45018 0.22127 0.21276 0.0
C409 C 0.44095 0.21429 0.24295 0.0
C410 C 0.46512 0.2576 0.27255 0.0
C411 C 0.42752 0.2107 0.22973 0.0
C412 C 0.41127 0.20621 0.16945 0.0
C413 C 0.42417 0.21107 0.18254 0.0
C414 C 0.40471 0.20065 0.25041 0.0
C415 C 0.40132 0.20076 0.20309 0.0
C416 C 0.4176 0.20549 0.26349 0.0
C417 C 0.48717 0.22196 0.28917 0.0
C418 C 0.48795 0.2044 0.33065 0.0
C419 C 0.50161 0.21431 0.26296 0.0
C420 C 0.49654 0.22259 0.25785 0.0
C421 C 0.49753 0.20522 0.29986 0.0
C422 C 0.48285 0.21266 0.32543 0.0
C423 C 0.48319 0.23194 0.28646 0.0
O424 O 0.46707 0.25289 0.23361 0.0
O425 O 0.4611 0.24926 0.30754 0.0
O426 O 0.4751 0.23155 0.3185 0.0
O427 O 0.4809 0.23493 0.24442 0.0
H428 H 0.49082 0.27241 0.24718 0.0
H429 H 0.50533 0.29553 0.26328 0.0
H430 H 0.47479 0.29677 0.33931 0.0
H431 H 0.46049 0.27374 0.32368 0.0
H432 H 0.40908 0.20661 0.13278 0.0
H433 H 0.43149 0.21485 0.15539 0.0
H434 H 0.39734 0.19637 0.27726 0.0
H435 H 0.41975 0.2048 0.3 0.0
H436 H 0.48444 0.19741 0.3591 0.0
H437 H 0.50907 0.21536 0.23892 0.0
H438 H 0.50024 0.22978 0.23004 0.0
H439 H 0.47571 0.21192 0.35047 0.0
C440 C 0.76263 0.20977 0.2823 0.0
C441 C 0.75475 0.21131 0.24929 0.0
C442 C 0.73581 0.19927 0.2995 0.0
C443 C 0.74154 0.20616 0.25783 0.0
C444 C 0.74376 0.19797 0.33287 0.0
C445 C 0.75696 0.20309 0.3243 0.0
U446 U 0.79937 0.23469 0.26808 0.0
O447 O 0.81597 0.23244 0.2867 0.0
O448 O 0.81275 0.23553 0.21307 0.0
C449 C 0.81966 0.23308 0.24277 0.0
C450 C 0.77631 0.21379 0.27142 0.0
C451 C 0.82366 0.22372 0.22726 0.0
C452 C 0.82587 0.20465 0.23986 0.0
C453 C 0.82068 0.21246 0.25298 0.0
C454 C 0.83683 0.21902 0.17458 0.0
C455 C 0.83422 0.20796 0.20093 0.0
C456 C 0.83165 0.22678 0.18764 0.0
C457 C 0.81215 0.27152 0.29242 0.0
C458 C 0.82671 0.29038 0.33974 0.0
C459 C 0.82232 0.29338 0.25922 0.0
C460 C 0.81422 0.27994 0.25449 0.0
C461 C 0.82852 0.29882 0.30214 0.0
C462 C 0.8186 0.27693 0.33502 0.0
C463 C 0.80215 0.2575 0.28927 0.0
O464 O 0.78134 0.22061 0.23295 0.0
O465 O 0.78446 0.21771 0.30681 0.0
O466 O 0.80254 0.24959 0.32067 0.0
O467 O 0.79906 0.25234 0.24708 0.0
H468 H 0.75868 0.2162 0.2162 0.0
H469 H 0.73574 0.20724 0.23098 0.0
H470 H 0.73978 0.19289 0.36563 0.0
H471 H 0.76268 0.20158 0.35026 0.0
H472 H 0.82369 0.19625 0.26117 0.0
H473 H 0.81459 0.20984 0.28384 0.0
H474 H 0.843 0.22177 0.14392 0.0
H475 H 0.83414 0.23542 0.16725 0.0
H476 H 0.83118 0.29419 0.3735 0.0
H477 H 0.8236 0.29953 0.22928 0.0
H478 H 0.80931 0.27619 0.22133 0.0
H479 H 0.81707 0.27081 0.36531 0.0
C480 C 0.56794 0.81847 0.70938 0.0
C481 C 0.55736 0.81216 0.67883 0.0
C482 C 0.55155 0.82885 0.69274 0.0
C483 C 0.54924 0.81729 0.67063 0.0
C484 C 0.56203 0.83494 0.724 0.0
C485 C 0.57011 0.82982 0.73213 0.0
U486 U 0.57825 0.7923 0.71481 0.0
O487 O 0.59642 0.79382 0.69022 0.0
O488 O 0.59136 0.7907 0.76505 0.0
C489 C 0.60014 0.79301 0.73292 0.0
C490 C 0.57722 0.81387 0.7168 0.0
C491 C 0.61379 0.80231 0.74512 0.0
C492 C 0.63023 0.81926 0.79468 0.0
C493 C 0.61725 0.81144 0.78153 0.0
C494 C 0.6365 0.80918 0.73458 0.0
C495 C 0.64003 0.8181 0.77181 0.0
C496 C 0.62357 0.80139 0.72154 0.0
C497 C 0.55269 0.75618 0.68778 0.0
C498 C 0.55277 0.73628 0.70721 0.0
C499 C 0.53671 0.73555 0.65383 0.0
C500 C 0.54205 0.74896 0.65842 0.0
C501 C 0.54187 0.72896 0.6786 0.0
C502 C 0.55812 0.74977 0.71185 0.0
C503 C 0.55736 0.77019 0.694 0.0
O504 O 0.57538 0.80663 0.7541 0.0
O505 O 0.58058 0.80978 0.67944 0.0
O506 O 0.56541 0.77809 0.66212 0.0
O507 O 0.56037 0.77483 0.73693 0.0
H508 H 0.55549 0.80338 0.66082 0.0
H509 H 0.54133 0.81237 0.64611 0.0
H510 H 0.56399 0.8437 0.74238 0.0
H511 H 0.57818 0.83484 0.75594 0.0
H512 H 0.63254 0.82594 0.82368 0.0
H513 H 0.60993 0.81237 0.80047 0.0
H514 H 0.64375 0.80816 0.7155 0.0
H515 H 0.62118 0.79443 0.69338 0.0
H516 H 0.55696 0.73154 0.727 0.0
H517 H 0.5285 0.73032 0.63082 0.0
H518 H 0.53772 0.7537 0.63942 0.0
H519 H 0.56634 0.75513 0.73476 0.0
C520 C 0.21607 0.75571 0.7106 0.0
C521 C 0.22045 0.75127 0.67305 0.0
C522 C 0.20528 0.72872 0.69429 0.0
C523 C 0.21512 0.73792 0.66502 0.0
C524 C 0.20123 0.73326 0.73258 0.0
C525 C 0.20654 0.74657 0.74052 0.0
U526 U 0.24173 0.79253 0.71626 0.0
O527 O 0.23995 0.80914 0.69162 0.0
O528 O 0.24296 0.80714 0.76652 0.0
C529 C 0.24066 0.81364 0.73432 0.0
C530 C 0.22054 0.76966 0.71783 0.0
C531 C 0.23132 0.81791 0.74632 0.0
C532 C 0.21357 0.81648 0.79303 0.0
C533 C 0.22151 0.81146 0.7799 0.0
C534 C 0.22491 0.83426 0.7385 0.0
C535 C 0.2153 0.82808 0.77299 0.0
C536 C 0.23281 0.82926 0.72546 0.0
C537 C 0.2779 0.80418 0.69019 0.0
C538 C 0.29862 0.82082 0.72159 0.0
C539 C 0.29744 0.81276 0.64274 0.0
C540 C 0.28413 0.80447 0.64806 0.0
C541 C 0.30491 0.82096 0.6796 0.0
C542 C 0.28528 0.81255 0.72685 0.0
C543 C 0.26402 0.79435 0.69601 0.0
O544 O 0.2276 0.77513 0.75534 0.0
O545 O 0.22455 0.77721 0.68054 0.0
O546 O 0.25608 0.79423 0.66389 0.0
O547 O 0.2592 0.79232 0.73873 0.0
H548 H 0.2278 0.7581 0.64935 0.0
H549 H 0.21844 0.73481 0.63504 0.0
H550 H 0.19387 0.72652 0.75642 0.0
H551 H 0.20301 0.74974 0.76972 0.0
H552 H 0.20633 0.81148 0.81986 0.0
H553 H 0.22013 0.80268 0.79663 0.0
H554 H 0.22639 0.84305 0.72157 0.0
H555 H 0.24028 0.83441 0.69947 0.0
H556 H 0.30402 0.82711 0.75052 0.0
H557 H 0.30193 0.81244 0.61014 0.0
H558 H 0.27874 0.79803 0.61943 0.0
H559 H 0.2808 0.81257 0.75986 0.0
C560 C 0.21546 0.46628 0.71018 0.0
C561 C 0.22207 0.47723 0.68113 0.0
C562 C 0.20503 0.48261 0.69209 0.0
C563 C 0.21691 0.48533 0.67222 0.0
C564 C 0.19863 0.47174 0.7218 0.0
C565 C 0.20378 0.4637 0.73066 0.0
U566 U 0.24156 0.456 0.71774 0.0
O567 O 0.2431 0.44317 0.77005 0.0
O568 O 0.23992 0.4375 0.69587 0.0
C569 C 0.24052 0.43398 0.7392 0.0
C570 C 0.22015 0.45709 0.7186 0.0
C571 C 0.23094 0.42042 0.75331 0.0
C572 C 0.21553 0.39792 0.7327 0.0
C573 C 0.22351 0.41093 0.71958 0.0
C574 C 0.22203 0.40353 0.81365 0.0
C575 C 0.21478 0.394 0.77986 0.0
C576 C 0.23003 0.41653 0.80053 0.0
C577 C 0.27749 0.4815 0.69013 0.0
C578 C 0.29664 0.47973 0.70326 0.0
C579 C 0.29848 0.49841 0.66245 0.0
C580 C 0.28519 0.49335 0.66713 0.0
C581 C 0.30445 0.49175 0.68074 0.0
C582 C 0.28328 0.47466 0.708 0.0
C583 C 0.26357 0.47686 0.69579 0.0
O584 O 0.22423 0.45354 0.68171 0.0
O585 O 0.22738 0.4592 0.75595 0.0
O586 O 0.25894 0.47412 0.73876 0.0
O587 O 0.25577 0.4685 0.66448 0.0
H588 H 0.23111 0.47942 0.6649 0.0
H589 H 0.22208 0.49355 0.64894 0.0
H590 H 0.18961 0.46945 0.73846 0.0
H591 H 0.19853 0.45533 0.7533 0.0
H592 H 0.21 0.39091 0.70574 0.0
H593 H 0.22403 0.41349 0.68279 0.0
H594 H 0.22188 0.40089 0.85017 0.0
H595 H 0.23577 0.4235 0.82735 0.0
H596 H 0.30089 0.47436 0.71804 0.0
H597 H 0.30408 0.50754 0.64413 0.0
H598 H 0.28092 0.49877 0.65294 0.0
H599 H 0.27751 0.4655 0.72595 0.0
C600 C 0.42902 0.89144 0.6193 0.0
C601 C 0.42117 0.88147 0.58776 0.0
C602 C 0.40218 0.87522 0.63672 0.0
C603 C 0.40794 0.87346 0.59643 0.0
C604 C 0.41011 0.88501 0.66872 0.0
C605 C 0.42331 0.89302 0.66002 0.0
U606 U 0.46568 0.90332 0.60349 0.0
O607 O 0.47897 0.91626 0.54885 0.0
O608 O 0.48237 0.9222 0.62278 0.0
C609 C 0.48586 0.9256 0.57886 0.0
C610 C 0.4427 0.90108 0.60807 0.0
C611 C 0.48948 0.93906 0.56459 0.0
C612 C 0.4955 0.96134 0.58455 0.0
C613 C 0.49056 0.94833 0.59768 0.0
C614 C 0.49815 0.95609 0.50482 0.0
C615 C 0.49953 0.96544 0.53805 0.0
C616 C 0.49325 0.94311 0.51796 0.0
C617 C 0.47841 0.87932 0.62612 0.0
C618 C 0.49671 0.87965 0.66523 0.0
C619 C 0.48566 0.86432 0.60264 0.0
C620 C 0.47727 0.86921 0.59739 0.0
C621 C 0.4954 0.86934 0.63707 0.0
C622 C 0.48833 0.88458 0.65986 0.0
C623 C 0.46842 0.88322 0.62333 0.0
O624 O 0.45092 0.90522 0.64324 0.0
O625 O 0.44759 0.89935 0.56924 0.0
O626 O 0.46545 0.88546 0.5812 0.0
O627 O 0.46875 0.89137 0.65519 0.0
H628 H 0.42516 0.88005 0.55568 0.0
H629 H 0.40216 0.86615 0.57066 0.0
H630 H 0.40609 0.88656 0.70046 0.0
H631 H 0.42903 0.90068 0.68479 0.0
H632 H 0.49628 0.96822 0.61101 0.0
H633 H 0.48787 0.94563 0.63403 0.0
H634 H 0.50131 0.95887 0.46888 0.0
H635 H 0.49276 0.93629 0.49177 0.0
H636 H 0.50419 0.88389 0.69169 0.0
H637 H 0.48423 0.85628 0.58069 0.0
H638 H 0.46962 0.86482 0.57157 0.0
H639 H 0.48948 0.89233 0.6828 0.0
C640 C 0.14189 0.6047 0.61384 0.0
C641 C 0.15128 0.61273 0.58086 0.0
C642 C 0.15826 0.63164 0.63165 0.0
C643 C 0.15936 0.62601 0.58969 0.0
C644 C 0.14905 0.62353 0.66499 0.0
C645 C 0.14095 0.61028 0.65612 0.0
U646 U 0.1301 0.56786 0.59904 0.0
O647 O 0.11135 0.55102 0.61809 0.0
O648 O 0.11745 0.55436 0.54426 0.0
C649 C 0.10817 0.54735 0.57419 0.0
C650 C 0.13221 0.59095 0.60276 0.0
C651 C 0.09483 0.5434 0.55929 0.0
C652 C 0.0741 0.54221 0.57119 0.0
C653 C 0.08708 0.5472 0.58379 0.0
C654 C 0.07652 0.52983 0.5088 0.0
C655 C 0.06858 0.53327 0.53397 0.0
C656 C 0.08944 0.53481 0.52137 0.0
C657 C 0.15424 0.55548 0.62266 0.0
C658 C 0.15358 0.53673 0.66028 0.0
C659 C 0.16977 0.54881 0.60135 0.0
C660 C 0.16481 0.55716 0.59587 0.0
C661 C 0.16434 0.53857 0.63407 0.0
C662 C 0.14859 0.54508 0.65467 0.0
C663 C 0.15019 0.56539 0.61961 0.0
O664 O 0.13395 0.58597 0.56413 0.0
O665 O 0.12802 0.58269 0.63805 0.0
O666 O 0.14196 0.56492 0.65121 0.0
O667 O 0.148 0.56832 0.57735 0.0
H668 H 0.15223 0.60885 0.54769 0.0
H669 H 0.16643 0.6319 0.5634 0.0
H670 H 0.14777 0.62752 0.69738 0.0
H671 H 0.13368 0.60444 0.68193 0.0
H672 H 0.06828 0.54503 0.59158 0.0
H673 H 0.09095 0.5538 0.61328 0.0
H674 H 0.07272 0.52318 0.47943 0.0
H675 H 0.09519 0.53171 0.50191 0.0
H676 H 0.14904 0.52886 0.68536 0.0
H677 H 0.17815 0.55065 0.58097 0.0
H678 H 0.16948 0.56519 0.57141 0.0
H679 H 0.14046 0.5435 0.67604 0.0
C680 C 0.42792 0.5421 0.61536 0.0
C681 C 0.42359 0.54558 0.65571 0.0
C682 C 0.40114 0.53197 0.63097 0.0
C683 C 0.41035 0.54056 0.66343 0.0
C684 C 0.40557 0.52872 0.59026 0.0
C685 C 0.41878 0.5337 0.58266 0.0
U686 U 0.46475 0.56721 0.60994 0.0
O687 O 0.48096 0.56483 0.63374 0.0
O688 O 0.47913 0.5683 0.55918 0.0
C689 C 0.48537 0.56553 0.5909 0.0
C690 C 0.44173 0.54626 0.60784 0.0
C691 C 0.48934 0.55592 0.57808 0.0
C692 C 0.49179 0.54209 0.52057 0.0
C693 C 0.48659 0.54988 0.53373 0.0
C694 C 0.50235 0.54596 0.59606 0.0
C695 C 0.49992 0.54019 0.55127 0.0
C696 C 0.49717 0.55374 0.60916 0.0
C697 C 0.47694 0.60364 0.63818 0.0
C698 C 0.49575 0.62374 0.61198 0.0
C699 C 0.48385 0.62386 0.6804 0.0
C700 C 0.47541 0.61052 0.67518 0.0
C701 C 0.49408 0.63072 0.64863 0.0
C702 C 0.48728 0.61034 0.60682 0.0
C703 C 0.46707 0.58977 0.63172 0.0
O704 O 0.4473 0.55345 0.5706 0.0
O705 O 0.44925 0.54995 0.64504 0.0
O706 O 0.46681 0.58158 0.66327 0.0
O707 O 0.46508 0.58514 0.58869 0.0
H708 H 0.4304 0.55205 0.6816 0.0
H709 H 0.40732 0.54342 0.69486 0.0
H710 H 0.39882 0.52203 0.56475 0.0
H711 H 0.42184 0.53077 0.5515 0.0
H712 H 0.48979 0.53792 0.48566 0.0
H713 H 0.48071 0.55143 0.50863 0.0
H714 H 0.50837 0.54457 0.62099 0.0
H715 H 0.49957 0.55833 0.64339 0.0
H716 H 0.50359 0.62863 0.58716 0.0
H717 H 0.4821 0.62888 0.70859 0.0
H718 H 0.46746 0.60561 0.69959 0.0
H719 H 0.48871 0.60528 0.57796 0.0
C720 C 0.20917 0.04134 0.98786 0.0
C721 C 0.20302 0.04717 0.01099 0.0
C722 C 0.2029 0.02781 0.98106 0.0
C723 C 0.19013 0.01984 -0.00238 0.0
C724 C 0.1839 0.02565 0.02115 0.0
C725 C 0.19039 0.03919 0.02751 0.0
C726 C 0.20994 0.02204 0.95601 0.0
C727 C 0.17028 0.01758 0.03921 0.0
C728 C 0.16852 0.98644 0.9435 0.0
C729 C 0.16875 0.97809 0.97788 0.0
C730 C 0.17561 1.00001 0.94905 0.0
C731 C 0.18318 1.00545 0.98994 0.0
C732 C 0.18368 0.9971 0.02429 0.0
C733 C 0.17647 0.98356 0.01791 0.0
C734 C 0.17474 1.00852 0.91159 0.0
C735 C 0.19168 1.00245 0.06824 0.0
H736 H 0.21896 0.04736 0.97536 0.0
H737 H 0.18544 0.04355 0.04469 0.0
H738 H 0.21045 0.01477 0.97892 0.0
H739 H 0.20457 0.01689 0.92389 0.0
H740 H 0.21988 0.0295 0.9458 0.0
H741 H 0.16685 0.02353 0.05733 0.0
H742 H 0.16367 1.01238 0.00959 0.0
H743 H 0.16969 1.01013 0.06411 0.0
H744 H 0.16249 0.98236 0.91273 0.0
H745 H 0.17688 0.97723 0.0444 0.0
H746 H 0.18452 0.01573 0.89905 0.0
H747 H 0.17035 0.014 0.92657 0.0
H748 H 0.16888 1.00284 0.88098 0.0
H749 H 0.20183 1.00947 0.05882 0.0
H750 H 0.1915 0.99472 0.09062 0.0
H751 H 0.18803 1.00779 0.08916 0.0
C752 C 0.99147 0.17464 0.00639 0.0
C753 C 0.98547 0.16106 0.00506 0.0
C754 C 1.0049 0.18253 0.00059 0.0
C755 C 1.0126 0.17674 0.99335 0.0
C756 C 1.00663 0.16304 0.99281 0.0
C757 C 0.9932 0.1554 -0.00131 0.0
C758 C 1.01084 0.19709 0.00135 0.0
C759 C 1.01443 0.15643 0.9855 0.0
C760 C 0.045 0.19635 0.93113 0.0
C761 C 0.05379 0.20053 0.9687 0.0
C762 C 0.03164 0.18866 0.93868 0.0
C763 C 0.02683 0.18498 0.985 0.0
C764 C 0.03562 0.18906 0.02309 0.0
C765 C 0.04896 0.19676 0.01452 0.0
C766 C 0.02266 0.18447 0.89697 0.0
C767 C 0.03093 0.18538 0.07301 0.0
H768 H 0.98561 0.17914 0.01086 0.0
H769 H 0.98874 0.14493 -0.00153 0.0
H770 H 1.01857 0.20137 0.02824 0.0
H771 H 1.01536 0.2012 0.96684 0.0
H772 H 1.00364 0.2001 0.00903 0.0
H773 H 1.00841 0.14569 0.98709 0.0
H774 H 1.01929 0.15919 0.95079 0.0
H775 H 0.02208 0.15967 0.01262 0.0
H776 H 0.04859 0.19901 0.89553 0.0
H777 H 0.0556 0.20004 0.0439 0.0
H778 H 1.0157 0.18796 0.90097 0.0
H779 H 1.01699 0.17373 0.89522 0.0
H780 H 0.02789 0.18821 0.86322 0.0
H781 H 0.02443 0.18916 0.08219 0.0
H782 H 0.03898 0.18922 0.09873 0.0
H783 H 0.02527 0.17467 0.07651 0.0
C784 C 0.85402 0.82035 0.99189 0.0
C785 C 0.86644 0.82588 0.01133 0.0
C786 C 0.84791 0.8277 0.98531 0.0
C787 C 0.85431 0.84094 -0.00148 0.0
C788 C 0.86687 0.84661 0.01794 0.0
C789 C 0.87276 0.83904 0.02409 0.0
C790 C 0.83451 0.82123 0.96462 0.0
C791 C 0.87408 0.86069 0.03239 0.0
C792 C 0.84321 0.86318 0.94541 0.0
C793 C 0.83575 0.864 0.98187 0.0
C794 C 0.84924 0.8557 0.95025 0.0
C795 C 0.84782 0.84881 0.99256 0.0
C796 C 0.84021 0.8495 0.02931 0.0
C797 C 0.83429 0.85706 0.02355 0.0
C798 C 0.85728 0.85529 0.91021 0.0
C799 C 0.83834 0.84226 0.07489 0.0
H800 H 0.84892 0.81017 0.98258 0.0
H801 H 0.88241 0.84348 0.03857 0.0
H802 H 0.82772 0.82164 0.99008 0.0
H803 H 0.83442 0.82649 0.93255 0.0
H804 H 0.83093 0.81093 0.95531 0.0
H805 H 0.88381 0.86369 0.04655 0.0
H806 H 0.87514 0.86694 0.00183 0.0
H807 H 0.86853 0.86247 0.05963 0.0
H808 H 0.84456 0.86862 0.91331 0.0
H809 H 0.82843 0.85746 0.05173 0.0
H810 H 0.85358 0.84511 0.89897 0.0
H811 H 0.86737 0.85914 0.92204 0.0
H812 H 0.8573 0.86102 0.87936 0.0
H813 H 0.83399 0.83173 0.06788 0.0
H814 H 0.83206 0.8437 0.09992 0.0
H815 H 0.84781 0.84556 0.09188 0.0
C816 C 0.85669 0.04167 0.97266 0.0
C817 C 0.86592 0.04789 0.00816 0.0
C818 C 0.85051 0.02816 0.96623 0.0
C819 C 0.85363 0.02057 -0.00418 0.0
C820 C 0.86326 0.02681 0.03069 0.0
C821 C 0.86927 0.04036 0.03646 0.0
C822 C 0.84036 0.02197 0.92846 0.0
C823 C 0.86694 0.01911 0.06288 0.0
C824 C 0.82729 0.98525 0.01093 0.0
C825 C 0.83105 0.97878 0.97899 0.0
C826 C 0.83471 0.99874 0.01753 0.0
C827 C 0.84627 1.00607 0.99181 0.0
C828 C 0.85038 0.99957 0.96068 0.0
C829 C 0.84273 0.98604 0.95461 0.0
C830 C 0.82996 1.00521 0.05123 0.0
C831 C 0.86266 1.00697 0.93272 0.0
H832 H 0.85419 0.04738 0.94993 0.0
H833 H 0.87631 0.045 0.06422 0.0
H834 H 0.8427 0.01604 0.9048 0.0
H835 H 0.83088 0.01534 0.94479 0.0
H836 H 0.83945 0.02926 0.90699 0.0
H837 H 0.87527 0.02546 0.08572 0.0
H838 H 0.85863 1.0127 0.0856 0.0
H839 H 0.86939 1.01279 0.04203 0.0
H840 H 0.81844 0.97974 0.03071 0.0
H841 H 0.84571 0.98121 0.92959 0.0
H842 H 0.82791 1.01204 0.03175 0.0
H843 H 0.83752 1.01095 0.07758 0.0
H844 H 0.82107 0.9981 0.07003 0.0
H845 H 0.8617 0.01354 0.90751 0.0
H846 H 0.86504 1.00044 0.91276 0.0
H847 H 0.87083 1.01312 0.95638 0.0
C848 C 0.0483 0.86584 0.97187 0.0
C849 C 0.05399 0.85803 0.96952 0.0
C850 C 0.03495 0.86038 0.97933 0.0
C851 C 0.02703 0.84677 0.98471 0.0
C852 C 0.03275 0.83887 0.98323 0.0
C853 C 0.0461 0.84457 0.97573 0.0
C854 C 0.02928 0.86917 0.98058 0.0
C855 C 0.02472 0.82434 0.98904 0.0
C856 C 0.99369 0.83311 0.04058 0.0
C857 C 0.98558 0.82928 0.00105 0.0
C858 C 1.00715 0.8388 0.03585 0.0
C859 C 1.01272 0.84073 0.9905 0.0
C860 C 1.00459 0.8368 0.95052 0.0
C861 C 0.99117 0.83112 0.95625 0.0
C862 C 1.01544 0.84284 0.07944 0.0
C863 C 1.01006 0.83858 0.90152 0.0
H864 H 0.05425 0.87621 0.96672 0.0
H865 H 0.05039 0.83845 0.97488 0.0
H866 H 0.02232 0.86669 0.95129 0.0
H867 H 0.02388 0.86771 0.01381 0.0
H868 H 0.03677 0.87958 0.97759 0.0
H869 H 0.03065 0.81958 0.98817 0.0
H870 H 1.01942 0.82194 0.02288 0.0
H871 H 1.01743 0.82019 0.9606 0.0
H872 H 0.98954 0.8319 0.07532 0.0
H873 H 0.98503 0.82804 0.92546 0.0
H874 H 0.02236 0.85343 0.07841 0.0
H875 H 0.02118 0.83789 0.08074 0.0
H876 H 1.00965 0.84055 0.11217 0.0
H877 H 1.01703 0.84899 0.89504 0.0
H878 H 1.00247 0.83509 0.87403 0.0
H879 H 1.0154 0.83326 0.89791 0.0
C880 C 0.20292 0.16752 0.96617 0.0
C881 C 0.20733 0.16675 0.01115 0.0
C882 C 0.19525 0.17326 0.95911 0.0
C883 C 0.19188 0.17841 -0.0021 0.0
C884 C 0.19632 0.17769 0.04335 0.0
C885 C 0.20395 0.17187 0.04941 0.0
C886 C 0.19067 0.17373 0.91012 0.0
C887 C 0.19304 0.1831 0.08568 0.0
C888 C 0.18115 0.20329 0.97658 0.0
C889 C 0.1677 0.19569 0.98089 0.0
C890 C 0.18912 0.19781 0.98165 0.0
C891 C 0.18355 0.18436 0.99116 0.0
C892 C 0.16997 0.17662 0.99498 0.0
C893 C 0.16225 0.18235 0.98978 0.0
C894 C 0.20354 0.20644 0.97739 0.0
C895 C 0.16358 0.16225 0.0048 0.0
H896 H 0.20534 0.16349 0.93641 0.0
H897 H 0.20745 0.17153 0.0842 0.0
H898 H 0.17998 0.1684 0.90914 0.0
H899 H 0.19398 0.18392 0.90002 0.0
H900 H 0.19422 0.16943 0.88359 0.0
H901 H 0.19732 0.1819 0.11858 0.0
H902 H 0.19654 0.19358 0.0804 0.0
H903 H 0.18242 0.17818 0.09008 0.0
H904 H 0.1855 0.21361 0.97017 0.0
H905 H 0.15187 0.17631 0.99233 0.0
H906 H 0.20731 0.20272 0.94954 0.0
H907 H 0.20824 0.20632 0.01083 0.0
H908 H 0.20637 0.21663 0.96895 0.0
H909 H 0.16626 0.15745 0.97725 0.0
H910 H 0.15291 0.15753 0.00608 0.0
H911 H 0.16703 0.1606 0.03889 0.0
C912 C 0.83211 0.32133 0.28911 0.0
C913 C 0.83636 0.31325 0.30825 0.0
C914 C 0.83912 0.33486 0.29552 0.0
C915 C 0.85073 0.34057 0.32175 0.0
C916 C 0.85514 0.3325 0.34089 0.0
C917 C 0.84791 0.31898 0.334 0.0
C918 C 0.83401 0.34304 0.27465 0.0
C919 C 0.86748 0.33816 0.36885 0.0
C920 C 0.87389 0.37682 0.30345 0.0
C921 C 0.87107 0.38231 0.34207 0.0
C922 C 0.86756 0.36329 0.29691 0.0
C923 C 0.8581 0.35495 0.32963 0.0
C924 C 0.85536 0.36041 0.36909 0.0
C925 C 0.86186 0.37397 0.37484 0.0
C926 C 0.87087 0.35791 0.25455 0.0
C927 C 0.84532 0.35193 0.40477 0.0
H928 H 0.82311 0.31704 0.26984 0.0
H929 H 0.85138 0.31288 0.34853 0.0
H930 H 0.83212 0.34826 0.30302 0.0
H931 H 0.8413 0.35048 0.25086 0.0
H932 H 0.82495 0.33717 0.25455 0.0
H933 H 0.86973 0.33063 0.38076 0.0
H934 H 0.87564 0.34541 0.34731 0.0
H935 H 0.86676 0.3433 0.40015 0.0
H936 H 0.8811 0.38313 0.27822 0.0
H937 H 0.85946 0.37806 0.40446 0.0
H938 H 0.86226 0.35265 0.23178 0.0
H939 H 0.87377 0.35082 0.2658 0.0
H940 H 0.8788 0.36562 0.23337 0.0
H941 H 0.83575 0.34652 0.38757 0.0
H942 H 0.84464 0.35761 0.43441 0.0
H943 H 0.8476 0.34465 0.41913 0.0
C944 C 0.6578 0.50757 0.32304 0.0
C945 C 0.65228 0.4954 0.34526 0.0
C946 C 0.6712 0.51508 0.31565 0.0
C947 C 0.67937 0.51038 0.33075 0.0
C948 C 0.67388 0.49815 0.35341 0.0
C949 C 0.66046 0.49084 0.36033 0.0
C950 C 0.67662 0.52807 0.29152 0.0
C951 C 0.68219 0.49273 0.36996 0.0
C952 C 0.71241 0.52413 0.27272 0.0
C953 C 0.72063 0.53315 0.30621 0.0
C954 C 0.69903 0.51664 0.28034 0.0
C955 C 0.69363 0.51818 0.32246 0.0
C956 C 0.70187 0.5272 0.35654 0.0
C957 C 0.71523 0.53454 0.34807 0.0
C958 C 0.69064 0.50709 0.24317 0.0
C959 C 0.69655 0.52919 0.40185 0.0
H960 H 0.65164 0.51129 0.31174 0.0
H961 H 0.65633 0.48139 0.37682 0.0
H962 H 0.68378 0.53584 0.31466 0.0
H963 H 0.68174 0.52816 0.25894 0.0
H964 H 0.66903 0.53042 0.28222 0.0
H965 H 0.67649 0.48318 0.38766 0.0
H966 H 0.68734 0.49157 0.33964 0.0
H967 H 0.68961 0.49957 0.39482 0.0
H968 H 0.71647 0.52285 0.24054 0.0
H969 H 0.72143 0.54159 0.37392 0.0
H970 H 0.68337 0.50956 0.23062 0.0
H971 H 0.68531 0.49719 0.25833 0.0
H972 H 0.69631 0.50696 0.21252 0.0
H973 H 0.68958 0.53248 0.39408 0.0
H974 H 0.70423 0.53646 0.42503 0.0
H975 H 0.69125 0.51989 0.42123 0.0
C976 C 0.5409 0.17163 0.33679 0.0
C977 C 0.53326 0.15825 0.34517 0.0
C978 C 0.53528 0.17939 0.32854 0.0
C979 C 0.52167 0.17366 0.32848 0.0
C980 C 0.51392 0.16014 0.33631 0.0
C981 C 0.51979 0.15263 0.34451 0.0
C982 C 0.54391 0.19375 0.32045 0.0
C983 C 0.4994 0.15359 0.33629 0.0
C984 C 0.50675 0.19485 0.35248 0.0
C985 C 0.50356 0.19697 0.3071 0.0
C986 C 0.51269 0.18737 0.35986 0.0
C987 C 0.51552 0.1818 0.32098 0.0
C988 C 0.51231 0.18388 0.27509 0.0
C989 C 0.5064 0.19143 0.26871 0.0
C990 C 0.51598 0.18547 0.40936 0.0
C991 C 0.51507 0.17806 0.23266 0.0
H992 H 0.5513 0.17612 0.33763 0.0
H993 H 0.51377 0.14228 0.35006 0.0
H994 H 0.54158 0.19657 0.28625 0.0
H995 H 0.54221 0.19926 0.34818 0.0
H996 H 0.55429 0.1967 0.32061 0.0
H997 H 0.49473 0.14296 0.34223 0.0
H998 H 0.49617 0.15782 0.36418 0.0
H999 H 0.49599 0.1553 0.30224 0.0
H1000 H 0.50481 0.19924 0.38236 0.0
H1001 H 0.50387 0.19288 0.23356 0.0
H1002 H 0.52648 0.18917 0.41229 0.0
H1003 H 0.51097 0.17497 0.418 0.0
H1004 H 0.51322 0.19049 0.4358 0.0
H1005 H 0.52552 0.18144 0.23072 0.0
H1006 H 0.51208 0.18066 0.19932 0.0
H1007 H 0.50992 0.16734 0.2359 0.0
C1008 C 0.51997 0.37415 0.32597 0.0
C1009 C 0.53242 0.38125 0.34502 0.0
C1010 C 0.51408 0.36072 0.31815 0.0
C1011 C 0.52078 0.3541 0.32943 0.0
C1012 C 0.53349 0.36123 0.34752 0.0
C1013 C 0.53915 0.3747 0.35506 0.0
C1014 C 0.50056 0.35357 0.29856 0.0
C1015 C 0.54099 0.35458 0.35994 0.0
C1016 C 0.49955 0.31792 0.35396 0.0
C1017 C 0.49976 0.31235 0.31071 0.0
C1018 C 0.50665 0.33142 0.36093 0.0
C1019 C 0.51422 0.33966 0.32384 0.0
C1020 C 0.51484 0.3341 0.28061 0.0
C1021 C 0.50762 0.32055 0.27457 0.0
C1022 C 0.50574 0.33689 0.40768 0.0
C1023 C 0.5228 0.3425 0.24015 0.0
H1024 H 0.51476 0.37912 0.31717 0.0
H1025 H 0.54873 0.38003 0.37008 0.0
H1026 H 0.50031 0.3483 0.26612 0.0
H1027 H 0.49399 0.34624 0.32434 0.0
H1028 H 0.49681 0.36018 0.29022 0.0
H1029 H 0.551 0.36157 0.37111 0.0
H1030 H 0.53606 0.34757 0.38891 0.0
H1031 H 0.54135 0.349 0.32938 0.0
H1032 H 0.49372 0.31169 0.38245 0.0
H1033 H 0.50779 0.31641 0.24087 0.0
H1034 H 0.50116 0.34291 0.40279 0.0
H1035 H 0.51551 0.34328 0.42221 0.0
H1036 H 0.50002 0.32917 0.43379 0.0
H1037 H 0.5187 0.34848 0.22753 0.0
H1038 H 0.52311 0.33668 0.21024 0.0
H1039 H 0.53281 0.34926 0.25184 0.0
C1040 C 0.66131 0.1705 0.37352 0.0
C1041 C 0.65294 0.16282 0.33753 0.0
C1042 C 0.67479 0.17646 0.36856 0.0
C1043 C 0.68011 0.17472 0.32662 0.0
C1044 C 0.67172 0.16688 0.29035 0.0
C1045 C 0.65828 0.16106 0.29621 0.0
C1046 C 0.68335 0.18475 0.40808 0.0
C1047 C 0.67694 0.16468 0.24518 0.0
C1048 C 0.71488 0.19948 0.29382 0.0
C1049 C 0.72156 0.19312 0.30742 0.0
C1050 C 0.70145 0.19366 0.30009 0.0
C1051 C 0.69444 0.18114 0.32052 0.0
C1052 C 0.70113 0.17471 0.33462 0.0
C1053 C 0.71455 0.18075 0.32788 0.0
C1054 C 0.69475 0.20089 0.28466 0.0
C1055 C 0.69407 0.16136 0.35644 0.0
H1056 H 0.65734 0.1721 0.40532 0.0
H1057 H 0.65194 0.15502 0.26841 0.0
H1058 H 0.6897 0.18103 0.41993 0.0
H1059 H 0.68968 0.19482 0.39546 0.0
H1060 H 0.67774 0.185 0.43871 0.0
H1061 H 0.66915 0.15824 0.22053 0.0
H1062 H 0.68319 0.17409 0.22744 0.0
H1063 H 0.68298 0.16028 0.25288 0.0
H1064 H 0.72017 0.20909 0.27857 0.0
H1065 H 0.71952 0.17562 0.33787 0.0
H1066 H 0.68967 0.20218 0.31492 0.0
H1067 H 0.68736 0.19518 0.25773 0.0
H1068 H 0.70156 0.21059 0.26976 0.0
H1069 H 0.68881 0.16149 0.38829 0.0
H1070 H 0.70068 0.15775 0.36637 0.0
H1071 H 0.6868 0.1544 0.33141 0.0
C1072 C 0.863 0.4945 0.35 0.0
C1073 C 0.87649 0.50227 0.3495 0.0
C1074 C 0.85502 0.49989 0.34262 0.0
C1075 C 0.86063 0.5134 0.33443 0.0
C1076 C 0.87423 0.52125 0.33303 0.0
C1077 C 0.88196 0.51561 0.3405 0.0
C1078 C 0.84058 0.49116 0.34445 0.0
C1079 C 0.88065 0.53566 0.32417 0.0
C1080 C 0.84025 0.52632 0.27868 0.0
C1081 C 0.83659 0.53085 0.31796 0.0
C1082 C 0.84804 0.52063 0.28345 0.0
C1083 C 0.85231 0.5194 0.32861 0.0
C1084 C 0.84873 0.52404 0.36834 0.0
C1085 C 0.84095 0.52969 0.36256 0.0
C1086 C 0.8516 0.51581 0.24015 0.0
C1087 C 0.85312 0.52302 0.41711 0.0
H1088 H 0.85864 0.48422 0.35733 0.0
H1089 H 0.89235 0.52169 0.33914 0.0
H1090 H 0.83656 0.49416 0.37381 0.0
H1091 H 0.83616 0.4921 0.31153 0.0
H1092 H 0.8377 0.48081 0.34942 0.0
H1093 H 0.89132 0.54038 0.32308 0.0
H1094 H 0.87725 0.53752 0.29035 0.0
H1095 H 0.87795 0.54031 0.35224 0.0
H1096 H 0.83682 0.52699 0.24413 0.0
H1097 H 0.83836 0.53331 0.39311 0.0
H1098 H 0.84796 0.50526 0.24334 0.0
H1099 H 0.86224 0.52069 0.2368 0.0
H1100 H 0.84762 0.51758 0.20752 0.0
H1101 H 0.84977 0.51273 0.42562 0.0
H1102 H 0.84944 0.527 0.44443 0.0
H1103 H 0.8638 0.52834 0.41867 0.0
C1104 C 0.54302 0.7084 0.67148 0.0
C1105 C 0.53562 0.71449 0.67521 0.0
C1106 C 0.53713 0.69481 0.66713 0.0
C1107 C 0.52349 0.68707 0.6667 0.0
C1108 C 0.516 0.69316 0.67097 0.0
C1109 C 0.52212 0.70673 0.67516 0.0
C1110 C 0.54549 0.68873 0.66255 0.0
C1111 C 0.50145 0.68534 0.67108 0.0
C1112 C 0.50635 0.65313 0.61294 0.0
C1113 C 0.50258 0.64513 0.65297 0.0
C1114 C 0.51349 0.66674 0.6168 0.0
C1115 C 0.51698 0.6726 0.66179 0.0
C1116 C 0.51354 0.6646 0.70223 0.0
C1117 C 0.50642 0.65101 0.69735 0.0
C1118 C 0.51694 0.67488 0.57273 0.0
C1119 C 0.51709 0.67039 0.75086 0.0
H1120 H 0.55344 0.71427 0.67106 0.0
H1121 H 0.51629 0.71128 0.67888 0.0
H1122 H 0.54319 0.68152 0.69098 0.0
H1123 H 0.54347 0.68346 0.62867 0.0
H1124 H 0.55593 0.69603 0.66418 0.0
H1125 H 0.497 0.69152 0.67477 0.0
H1126 H 0.49796 0.67974 0.63794 0.0
H1127 H 0.49806 0.67824 0.70041 0.0
H1128 H 0.50334 0.64876 0.5785 0.0
H1129 H 0.50378 0.64497 0.7285 0.0
H1130 H 0.52743 0.68198 0.572 0.0
H1131 H 0.51184 0.68048 0.57242 0.0
H1132 H 0.51434 0.66889 0.54032 0.0
H1133 H 0.52761 0.67725 0.75308 0.0
H1134 H 0.51435 0.66288 0.77856 0.0
H1135 H 0.51218 0.67599 0.75824 0.0
C1136 C 0.38114 0.85393 0.63375 0.0
C1137 C 0.38791 0.86722 0.64456 0.0
C1138 C 0.3677 0.84639 0.64004 0.0
C1139 C 0.36077 0.85224 0.6576 0.0
C1140 C 0.36754 0.86562 0.66886 0.0
C1141 C 0.38097 0.87292 0.66217 0.0
C1142 C 0.3609 0.83216 0.6277 0.0
C1143 C 0.36056 0.87228 0.68755 0.0
C1144 C 0.32468 0.83579 0.63205 0.0
C1145 C 0.31923 0.82931 0.6745 0.0
C1146 C 0.33813 0.8433 0.62619 0.0
C1147 C 0.34643 0.84441 0.66362 0.0
C1148 C 0.34099 0.838 0.70669 0.0
C1149 C 0.3275 0.83056 0.71161 0.0
C1150 C 0.34348 0.85002 0.57978 0.0
C1151 C 0.34945 0.83888 0.74747 0.0
H1152 H 0.38638 0.84935 0.6207 0.0
H1153 H 0.38601 0.88321 0.66994 0.0
H1154 H 0.35573 0.82625 0.65893 0.0
H1155 H 0.35358 0.83006 0.60008 0.0
H1156 H 0.36766 0.82903 0.61487 0.0
H1157 H 0.36723 0.88268 0.69553 0.0
H1158 H 0.35337 0.87157 0.66145 0.0
H1159 H 0.35522 0.86737 0.72005 0.0
H1160 H 0.31841 0.83505 0.60334 0.0
H1161 H 0.32344 0.82548 0.74433 0.0
H1162 H 0.34968 0.84657 0.56412 0.0
H1163 H 0.3496 0.86063 0.58534 0.0
H1164 H 0.33576 0.84829 0.55427 0.0
H1165 H 0.35571 0.83492 0.73706 0.0
H1166 H 0.34376 0.83348 0.77882 0.0
H1167 H 0.35587 0.84918 0.75736 0.0
C1168 C 0.1746 0.52596 0.60366 0.0
C1169 C 0.17015 0.53013 0.64175 0.0
C1170 C 0.18038 0.51832 0.61054 0.0
C1171 C 0.18181 0.51473 0.65668 0.0
C1172 C 0.17732 0.51887 0.69527 0.0
C1173 C 0.17155 0.52648 0.68737 0.0
C1174 C 0.18494 0.51406 0.56836 0.0
C1175 C 0.17867 0.51531 0.74504 0.0
C1176 C 0.18587 0.48522 0.67427 0.0
C1177 C 0.1992 0.4909 0.68172 0.0
C1178 C 0.18013 0.49282 0.66579 0.0
C1179 C 0.18787 0.50652 0.66461 0.0
C1180 C 0.20135 0.51233 0.67154 0.0
C1181 C 0.20685 0.50448 0.67994 0.0
C1182 C 0.16574 0.48619 0.65833 0.0
C1183 C 0.20997 0.52689 0.67065 0.0
H1184 H 0.17344 0.52858 0.56824 0.0
H1185 H 0.16834 0.52979 0.71713 0.0
H1186 H 0.19541 0.5176 0.57146 0.0
H1187 H 0.17993 0.50332 0.56693 0.0
H1188 H 0.18319 0.51771 0.53481 0.0
H1189 H 0.17472 0.5193 0.77123 0.0
H1190 H 0.17359 0.50461 0.74894 0.0
H1191 H 0.18899 0.51902 0.75321 0.0
H1192 H 0.17987 0.47475 0.6747 0.0
H1193 H 0.21713 0.509 0.68609 0.0
H1194 H 0.16362 0.489 0.62373 0.0
H1195 H 0.16131 0.48937 0.68561 0.0
H1196 H 0.16108 0.47545 0.65973 0.0
H1197 H 0.20893 0.53082 0.63662 0.0
H1198 H 0.22028 0.52991 0.67575 0.0
H1199 H 0.20703 0.53133 0.69871 0.0
C1200 C 0.17137 0.65086 0.68451 0.0
C1201 C 0.16627 0.64595 0.63985 0.0
C1202 C 0.17832 0.6643 0.69324 0.0
C1203 C 0.18022 0.67313 0.65651 0.0
C1204 C 0.17532 0.66826 0.61113 0.0
C1205 C 0.16844 0.65477 0.60337 0.0
C1206 C 0.18343 0.66904 0.74206 0.0
C1207 C 0.17707 0.67729 0.57098 0.0
C1208 C 0.18557 0.70648 0.68965 0.0
C1209 C 0.19896 0.71448 0.68439 0.0
C1210 C 0.1794 0.69308 0.68078 0.0
C1211 C 0.18675 0.68741 0.66609 0.0
C1212 C 0.20026 0.6954 0.66049 0.0
C1213 C 0.20619 0.70881 0.66962 0.0
C1214 C 0.16498 0.68498 0.68701 0.0
C1215 C 0.20847 0.68977 0.645 0.0
H1216 H 0.16993 0.64416 0.71281 0.0
H1217 H 0.16441 0.65113 0.56889 0.0
H1218 H 0.19394 0.67604 0.74068 0.0
H1219 H 0.17874 0.67425 0.75694 0.0
H1220 H 0.18169 0.66099 0.76621 0.0
H1221 H 0.17327 0.67203 0.53728 0.0
H1222 H 0.172 0.6827 0.57905 0.0
H1223 H 0.18743 0.68455 0.56638 0.0
H1224 H 0.17982 0.71075 0.70017 0.0
H1225 H 0.21654 0.71483 0.66585 0.0
H1226 H 0.16264 0.67721 0.71323 0.0
H1227 H 0.1604 0.68018 0.65336 0.0
H1228 H 0.16065 0.69083 0.6988 0.0
H1229 H 0.20748 0.68225 0.67039 0.0
H1230 H 0.21882 0.69726 0.6421 0.0
H1231 H 0.2051 0.68495 0.61039 0.0
C1232 C 0.37858 0.52475 0.60282 0.0
C1233 C 0.38698 0.5262 0.63973 0.0
C1234 C 0.36521 0.51903 0.61021 0.0
C1235 C 0.36001 0.51461 0.65566 0.0
C1236 C 0.36843 0.51608 0.69314 0.0
C1237 C 0.38178 0.52185 0.68476 0.0
C1238 C 0.35664 0.51776 0.56928 0.0
C1239 C 0.36333 0.51148 0.7421 0.0
C1240 C 0.32711 0.51083 0.68238 0.0
C1241 C 0.31874 0.49744 0.67627 0.0
C1242 C 0.34051 0.51648 0.67637 0.0
C1243 C 0.3458 0.50861 0.66399 0.0
C1244 C 0.33746 0.49506 0.65858 0.0
C1245 C 0.32406 0.48965 0.66481 0.0
C1246 C 0.34901 0.53094 0.68279 0.0
C1247 C 0.34266 0.4863 0.64538 0.0
H1248 H 0.38247 0.52821 0.56803 0.0
H1249 H 0.38812 0.52274 0.71344 0.0
H1250 H 0.34923 0.50743 0.56406 0.0
H1251 H 0.35148 0.5231 0.57686 0.0
H1252 H 0.36214 0.52157 0.53605 0.0
H1253 H 0.37112 0.51335 0.76748 0.0
H1254 H 0.35816 0.51642 0.7548 0.0
H1255 H 0.35629 0.50092 0.74167 0.0
H1256 H 0.32317 0.51693 0.69207 0.0
H1257 H 0.31772 0.47934 0.65956 0.0
H1258 H 0.35417 0.53542 0.64955 0.0
H1259 H 0.35642 0.53297 0.70998 0.0
H1260 H 0.34345 0.53569 0.69334 0.0
H1261 H 0.34738 0.48913 0.61043 0.0
H1262 H 0.335 0.47593 0.64408 0.0
H1263 H 0.3501 0.48738 0.67104 0.0
C1264 C 0.50861 0.85982 0.60612 0.0
C1265 C 0.50384 0.86356 0.6445 0.0
C1266 C 0.5163 0.8541 0.61272 0.0
C1267 C 0.51933 0.85198 0.65886 0.0
C1268 C 0.51456 0.85573 0.69774 0.0
C1269 C 0.50692 0.86147 0.69012 0.0
C1270 C 0.52123 0.85033 0.57025 0.0
C1271 C 0.51749 0.85363 0.74751 0.0
C1272 C 0.5298 0.82687 0.67882 0.0
C1273 C 0.54324 0.83469 0.68301 0.0
C1274 C 0.52193 0.83233 0.67069 0.0
C1275 C 0.52758 0.84597 0.66652 0.0
C1276 C 0.54113 0.85391 0.67022 0.0
C1277 C 0.54877 0.84819 0.67834 0.0
C1278 C 0.50753 0.82351 0.66706 0.0
C1279 C 0.54759 0.86847 0.66577 0.0
H1280 H 0.50643 0.86151 0.57073 0.0
H1281 H 0.50314 0.86411 0.72007 0.0
H1282 H 0.53192 0.85555 0.57062 0.0
H1283 H 0.51786 0.8398 0.5713 0.0
H1284 H 0.51798 0.85256 0.53673 0.0
H1285 H 0.51306 0.85706 0.77395 0.0
H1286 H 0.51389 0.84317 0.75361 0.0
H1287 H 0.52807 0.85883 0.75322 0.0
H1288 H 0.52539 0.81646 0.68281 0.0
H1289 H 0.55914 0.85434 0.68064 0.0
H1290 H 0.50402 0.82502 0.63289 0.0
H1291 H 0.50264 0.8259 0.69511 0.0
H1292 H 0.50463 0.8131 0.67024 0.0
H1293 H 0.54522 0.8711 0.6313 0.0
H1294 H 0.55824 0.87328 0.66901 0.0
H1295 H 0.54394 0.87237 0.69339 0.0
C1296 C 0.32562 0.15553 0.15686 0.0
C1297 C 0.32026 0.16105 0.12732 0.0
C1298 C 0.33876 0.16234 0.16914 0.0
C1299 C 0.34686 0.17503 0.15151 0.0
C1300 C 0.34153 0.1807 0.12188 0.0
C1301 C 0.32833 0.17367 0.11013 0.0
C1302 C 0.344 0.15586 0.20064 0.0
C1303 C 0.34978 0.19421 0.10243 0.0
C1304 C 0.37857 0.19615 0.21649 0.0
C1305 C 0.38746 0.19471 0.18873 0.0
C1306 C 0.36541 0.19003 0.20438 0.0
C1307 C 0.36094 0.18221 0.1635 0.0
C1308 C 0.36989 0.18088 0.13493 0.0
C1309 C 0.38298 0.18712 0.14784 0.0
C1310 C 0.35625 0.19178 0.23574 0.0
C1311 C 0.36558 0.17262 0.09116 0.0
H1312 H 0.31958 0.14573 0.16976 0.0
H1313 H 0.32431 0.17811 0.08772 0.0
H1314 H 0.35161 0.15495 0.18188 0.0
H1315 H 0.34851 0.1619 0.23226 0.0
H1316 H 0.33641 0.14606 0.21217 0.0
H1317 H 0.34417 0.19734 0.08047 0.0
H1318 H 0.35434 0.20123 0.13162 0.0
H1319 H 0.35767 0.19463 0.08076 0.0
H1320 H 0.38191 0.20211 0.24779 0.0
H1321 H 0.38967 0.18576 0.12642 0.0
H1322 H 0.34894 0.18227 0.25046 0.0
H1323 H 0.351 0.19556 0.21503 0.0
H1324 H 0.36129 0.19853 0.2653 0.0
H1325 H 0.3587 0.16239 0.10071 0.0
H1326 H 0.37377 0.17297 0.07171 0.0
H1327 H 0.36044 0.17589 0.06735 0.0
C1328 C 0.83373 0.18662 0.19038 0.0
C1329 C 0.84055 0.20024 0.18853 0.0
C1330 C 0.83965 0.17937 0.17814 0.0
C1331 C 0.85274 0.18585 0.16386 0.0
C1332 C 0.8597 0.19958 0.16237 0.0
C1333 C 0.85355 0.20658 0.17467 0.0
C1334 C 0.83185 0.16475 0.18011 0.0
C1335 C 0.87368 0.20693 0.14768 0.0
C1336 C 0.87276 0.16907 0.16982 0.0
C1337 C 0.87317 0.16594 0.12249 0.0
C1338 C 0.86589 0.17523 0.18395 0.0
C1339 C 0.85922 0.17836 0.15005 0.0
C1340 C 0.8593 0.17491 0.10244 0.0
C1341 C 0.86626 0.16878 0.08928 0.0
C1342 C 0.86611 0.17873 0.23503 0.0
C1343 C 0.85226 0.17796 0.06514 0.0
H1344 H 0.82367 0.18161 0.20063 0.0
H1345 H 0.85901 0.21708 0.17394 0.0
H1346 H 0.83145 0.16067 0.14472 0.0
H1347 H 0.83656 0.161 0.20392 0.0
H1348 H 0.82185 0.16117 0.19256 0.0
H1349 H 0.87778 0.2176 0.14868 0.0
H1350 H 0.87947 0.20438 0.17115 0.0
H1351 H 0.8747 0.20411 0.11147 0.0
H1352 H 0.87816 0.16707 0.19576 0.0
H1353 H 0.86632 0.16625 0.05276 0.0
H1354 H 0.85614 0.17481 0.24826 0.0
H1355 H 0.8711 0.18943 0.23877 0.0
H1356 H 0.8711 0.17498 0.25747 0.0
H1357 H 0.842 0.17387 0.07518 0.0
H1358 H 0.85268 0.17406 0.03017 0.0
H1359 H 0.85653 0.18862 0.06206 0.0
C1360 C 0.84585 0.65062 0.15219 0.0
C1361 C 0.83889 0.64647 0.19448 0.0
C1362 C 0.85224 0.66376 0.13862 0.0
C1363 C 0.8517 0.67308 0.16793 0.0
C1364 C 0.8445 0.66894 0.21022 0.0
C1365 C 0.83821 0.65573 0.22297 0.0
C1366 C 0.85982 0.66771 0.09332 0.0
C1367 C 0.84359 0.6785 0.24242 0.0
C1368 C 0.87893 0.70824 0.15764 0.0
C1369 C 0.87337 0.71388 0.12978 0.0
C1370 C 0.87198 0.69507 0.17053 0.0
C1371 C 0.85908 0.6872 0.15521 0.0
C1372 C 0.85335 0.69282 0.12727 0.0
C1373 C 0.86054 0.70605 0.1149 0.0
C1374 C 0.8785 0.68952 0.20021 0.0
C1375 C 0.83963 0.68482 0.11027 0.0
H1376 H 0.84662 0.64363 0.13015 0.0
H1377 H 0.83274 0.65265 0.25538 0.0
H1378 H 0.85652 0.67305 0.07059 0.0
H1379 H 0.87017 0.67437 0.10099 0.0
H1380 H 0.85886 0.65925 0.07348 0.0
H1381 H 0.83722 0.6737 0.2731 0.0
H1382 H 0.85332 0.68566 0.25551 0.0
H1383 H 0.83985 0.68398 0.22284 0.0
H1384 H 0.88888 0.71409 0.16873 0.0
H1385 H 0.85607 0.71028 0.09384 0.0
H1386 H 0.87882 0.68162 0.18081 0.0
H1387 H 0.87289 0.68523 0.23286 0.0
H1388 H 0.88849 0.69695 0.21001 0.0
H1389 H 0.83861 0.67668 0.0883 0.0
H1390 H 0.83651 0.69064 0.08932 0.0
H1391 H 0.83303 0.68052 0.14068 0.0
C1392 C 0.16712 0.31792 0.83919 0.0
C1393 C 0.17366 0.31323 0.86662 0.0
C1394 C 0.1732 0.33098 0.82451 0.0
C1395 C 0.18618 0.33963 0.83744 0.0
C1396 C 0.19281 0.33498 0.86525 0.0
C1397 C 0.1865 0.32189 0.87938 0.0
C1398 C 0.16575 0.33552 0.79505 0.0
C1399 C 0.20664 0.34381 0.87975 0.0
C1400 C 0.20678 0.37028 0.76527 0.0
C1401 C 0.2069 0.37999 0.79355 0.0
C1402 C 0.19991 0.35713 0.77867 0.0
C1403 C 0.19292 0.3535 0.82148 0.0
C1404 C 0.1928 0.36322 0.84979 0.0
C1405 C 0.19977 0.3763 0.83557 0.0
C1406 C 0.20036 0.34714 0.74743 0.0
C1407 C 0.18543 0.35981 0.89552 0.0
H1408 H 0.15717 0.3114 0.82951 0.0
H1409 H 0.19176 0.31839 0.89981 0.0
H1410 H 0.16546 0.34364 0.81291 0.0
H1411 H 0.17067 0.33926 0.76081 0.0
H1412 H 0.15571 0.32765 0.78831 0.0
H1413 H 0.21039 0.33877 0.90202 0.0
H1414 H 0.21283 0.34767 0.84809 0.0
H1415 H 0.20752 0.35223 0.89954 0.0
H1416 H 0.21237 0.37299 0.7331 0.0
H1417 H 0.19963 0.38367 0.85741 0.0
H1418 H 0.19044 0.33943 0.73832 0.0
H1419 H 0.205 0.34243 0.76646 0.0
H1420 H 0.20578 0.35143 0.71439 0.0
H1421 H 0.17518 0.35245 0.88937 0.0
H1422 H 0.18588 0.36839 0.91266 0.0
H1423 H 0.18941 0.35547 0.92011 0.0
C1424 C 0.71069 0.85465 0.89023 0.0
C1425 C 0.72042 0.86081 0.85627 0.0
C1426 C 0.69755 0.84826 0.87775 0.0
C1427 C 0.69397 0.84798 0.8301 0.0
C1428 C 0.70373 0.85447 0.79585 0.0
C1429 C 0.71679 0.86076 0.80928 0.0
C1430 C 0.6875 0.84147 0.91545 0.0
C1431 C 0.70038 0.85452 0.74473 0.0
C1432 C 0.66156 0.82008 0.78902 0.0
C1433 C 0.65382 0.82583 0.7873 0.0
C1434 C 0.67456 0.82715 0.80294 0.0
C1435 C 0.68007 0.84037 0.81573 0.0
C1436 C 0.67231 0.84624 0.81446 0.0
C1437 C 0.65931 0.83892 0.80034 0.0
C1438 C 0.68241 0.82045 0.80395 0.0
C1439 C 0.67778 0.8603 0.8277 0.0
H1440 H 0.71334 0.85447 0.92652 0.0
H1441 H 0.72419 0.86564 0.78283 0.0
H1442 H 0.68038 0.84482 0.91468 0.0
H1443 H 0.68215 0.83087 0.90871 0.0
H1444 H 0.69179 0.84318 0.95117 0.0
H1445 H 0.70903 0.86052 0.72277 0.0
H1446 H 0.69541 0.84446 0.73093 0.0
H1447 H 0.69363 0.85827 0.74092 0.0
H1448 H 0.65741 0.80993 0.77995 0.0
H1449 H 0.65349 0.84353 0.79878 0.0
H1450 H 0.68621 0.8209 0.83988 0.0
H1451 H 0.69083 0.82551 0.78012 0.0
H1452 H 0.67671 0.81012 0.79314 0.0
H1453 H 0.68164 0.86195 0.86404 0.0
H1454 H 0.67047 0.8634 0.82553 0.0
H1455 H 0.68593 0.86655 0.8041 0.0
C1456 C 0.2132 0.84744 0.79437 0.0
C1457 C 0.20741 0.83395 0.78856 0.0
C1458 C 0.20597 0.85322 0.80807 0.0
C1459 C 0.19257 0.84538 0.81641 0.0
C1460 C 0.18666 0.83175 0.81115 0.0
C1461 C 0.19414 0.8262 0.79737 0.0
C1462 C 0.21271 0.86778 0.81344 0.0
C1463 C 0.17241 0.82302 0.81961 0.0
C1464 C 0.17694 0.86061 0.88988 0.0
C1465 C 0.17184 0.86516 0.85518 0.0
C1466 C 0.18338 0.85386 0.87789 0.0
C1467 C 0.18479 0.85155 0.82999 0.0
C1468 C 0.17934 0.85579 0.79489 0.0
C1469 C 0.17296 0.86252 0.80786 0.0
C1470 C 0.18903 0.84954 0.91649 0.0
C1471 C 0.18053 0.85348 0.74343 0.0
H1472 H 0.22347 0.85352 0.7886 0.0
H1473 H 0.18952 0.8158 0.79264 0.0
H1474 H 0.20841 0.87185 0.78909 0.0
H1475 H 0.21136 0.87032 0.84967 0.0
H1476 H 0.22321 0.87251 0.80613 0.0
H1477 H 0.16932 0.8126 0.81512 0.0
H1478 H 0.1699 0.8245 0.8557 0.0
H1479 H 0.16686 0.82555 0.79485 0.0
H1480 H 0.17628 0.8627 0.9265 0.0
H1481 H 0.16889 0.86578 0.78076 0.0
H1482 H 0.19969 0.85482 0.91344 0.0
H1483 H 0.18567 0.83905 0.91295 0.0
H1484 H 0.18641 0.85131 0.95204 0.0
H1485 H 0.19083 0.85876 0.73296 0.0
H1486 H 0.17519 0.85676 0.72059 0.0
H1487 H 0.17681 0.84302 0.73699 0.0
C1488 C 0.04731 0.51395 0.51088 0.0
C1489 C 0.05454 0.5272 0.52222 0.0
C1490 C 0.03415 0.50802 0.49951 0.0
C1491 C 0.02791 0.51544 0.49945 0.0
C1492 C 0.0351 0.5288 0.511 0.0
C1493 C 0.04829 0.5345 0.5223 0.0
C1494 C 0.02688 0.49374 0.48776 0.0
C1495 C 0.02886 0.53709 0.51125 0.0
C1496 C 0.99658 0.50146 0.42925 0.0
C1497 C 0.98719 0.49523 0.4643 0.0
C1498 C 1.00982 0.50837 0.4403 0.0
C1499 C 1.01385 0.50912 0.4876 0.0
C1500 C 1.00441 0.50318 0.52329 0.0
C1501 C 0.99125 0.49635 0.51126 0.0
C1502 C 1.01951 0.51454 0.4011 0.0
C1503 C 1.00823 0.50377 0.57419 0.0
H1504 H 0.05193 0.50813 0.51151 0.0
H1505 H 0.05377 0.54475 0.53055 0.0
H1506 H 1.0188 0.48848 0.51283 0.0
H1507 H 0.02263 0.49227 0.45209 0.0
H1508 H 0.03314 0.48934 0.48898 0.0
H1509 H 0.03573 0.5473 0.52111 0.0
H1510 H 0.02488 0.53699 0.47595 0.0
H1511 H 0.02068 0.53305 0.53636 0.0
H1512 H 0.99361 0.50057 0.39282 0.0
H1513 H 0.98411 0.49179 0.53878 0.0
H1514 H 0.02533 0.5097 0.39814 0.0
H1515 H 0.02626 0.52491 0.40898 0.0
H1516 H 1.01485 0.51384 0.36665 0.0
H1517 H 1.01379 0.4987 0.57874 0.0
H1518 H 0.99975 0.49925 0.59801 0.0
H1519 H 1.01459 0.514 0.58504 0.0
C1520 C 0.53888 0.50863 0.4343 0.0
C1521 C 0.53914 0.49917 0.46309 0.0
C1522 C 0.53204 0.51487 0.4476 0.0
C1523 C 0.52525 0.51163 0.49081 0.0
C1524 C 0.52525 0.50192 0.5196 0.0
C1525 C 0.53219 0.49584 0.50548 0.0
C1526 C 0.53235 0.52518 0.41585 0.0
C1527 C 0.51809 0.4981 0.56578 0.0
C1528 C 0.51918 0.53702 0.54811 0.0
C1529 C 0.50627 0.53268 0.53618 0.0
C1530 C 0.52539 0.53024 0.53384 0.0
C1531 C 0.51861 0.51879 0.50675 0.0
C1532 C 0.50558 0.51432 0.49461 0.0
C1533 C 0.49958 0.5213 0.50938 0.0
C1534 C 0.5393 0.53542 0.54747 0.0
C1535 C 0.49797 0.50214 0.46593 0.0
H1536 H 0.54433 0.51143 0.40182 0.0
H1537 H 0.53216 0.48844 0.52772 0.0
H1538 H 0.52239 0.52287 0.40732 0.0
H1539 H 0.53712 0.53467 0.43421 0.0
H1540 H 0.53759 0.52619 0.3825 0.0
H1541 H 0.51859 0.49001 0.58321 0.0
H1542 H 0.52221 0.50655 0.58988 0.0
H1543 H 0.50782 0.49512 0.56016 0.0
H1544 H 0.52454 0.54591 0.56803 0.0
H1545 H 0.48959 0.51776 0.50032 0.0
H1546 H 0.54532 0.53763 0.51543 0.0
H1547 H 0.54025 0.52797 0.56759 0.0
H1548 H 0.54318 0.54435 0.56913 0.0
H1549 H 0.50272 0.50321 0.43147 0.0
H1550 H 0.4879 0.49988 0.45968 0.0
H1551 H 0.49772 0.49379 0.48417 0.0
C1552 C 0.54469 0.03755 0.44226 0.0
C1553 C 0.54026 0.04622 0.45185 0.0
C1554 C 0.53769 0.02449 0.45647 0.0
C1555 C 0.52592 0.01986 0.48112 0.0
C1556 C 0.52136 0.02852 0.4909 0.0
C1557 C 0.52857 0.04156 0.47622 0.0
C1558 C 0.54296 0.01565 0.44539 0.0
C1559 C 0.50886 0.024 0.51695 0.0
C1560 C 0.50302 0.98319 0.48104 0.0
C1561 C 0.50568 0.97947 0.52461 0.0
C1562 C 0.50929 0.99628 0.46692 0.0
C1563 C 0.51851 1.00599 0.49695 0.0
C1564 C 0.52105 1.00234 0.54136 0.0
C1565 C 0.51462 0.98918 0.55461 0.0
C1566 C 0.50622 0.99971 0.41943 0.0
C1567 C 0.53082 1.01233 0.57447 0.0
H1568 H 0.5538 0.04104 0.42426 0.0
H1569 H 0.52495 0.04809 0.48343 0.0
H1570 H 0.54463 1.01176 0.47844 0.0
H1571 H 0.53585 1.00724 0.42445 0.0
H1572 H 0.55216 0.02068 0.42546 0.0
H1573 H 0.50658 0.03189 0.52162 0.0
H1574 H 0.50082 0.01591 0.49761 0.0
H1575 H 0.50936 0.02024 0.55209 0.0
H1576 H 0.49601 0.97582 0.45782 0.0
H1577 H 0.51691 0.98645 0.58804 0.0
H1578 H 0.51496 1.00401 0.39698 0.0
H1579 H 0.50326 1.00711 0.42334 0.0
H1580 H 0.49842 0.99114 0.40108 0.0
H1581 H 0.54052 0.01701 0.55808 0.0
H1582 H 0.53126 1.00803 0.6086 0.0
H1583 H 0.52845 0.02006 0.5813 0.0
loop_
_geom_bond_atom_site_label_1
_geom_bond_atom_site_label_2
_geom_bond_distance
_geom_bond_site_symmetry_2
_ccdc_geom_bond_type
C0 C1 1.260 1_554 S
C0 C5 1.479 . S
C0 C10 1.465 . S
C1 C0 1.260 1_556 S
C1 C3 1.338 1_556 S
C1 H28 0.936 . S
C2 C3 1.395 . S
C2 C4 1.320 . S
C3 C1 1.338 1_554 S
C3 C2 1.395 . S
C3 H29 0.929 1_554 S
C4 C2 1.320 . S
C4 C5 1.405 . S
C4 H30 0.930 . S
C5 C0 1.479 . S
C5 C4 1.405 . S
C5 H31 0.931 . S
U6 O7 2.454 . S
U6 O8 2.458 . S
U6 C9 2.984 . S
U6 C10 2.847 . S
U6 C23 2.882 . S
U6 O24 2.441 . S
U6 O25 2.420 1_554 S
U6 O26 2.455 . S
U6 O27 2.449 1_554 S
O7 U6 2.454 . S
O7 C9 1.353 . S
O8 U6 2.458 . S
O8 C9 1.286 . S
C9 U6 2.984 . S
C9 O7 1.353 . S
C9 O8 1.286 . S
C9 C11 1.363 . S
C10 C0 1.465 . S
C10 U6 2.847 . S
C10 O24 1.249 . S
C10 O25 1.202 1_554 S
C11 C9 1.363 . S
C11 C13 1.408 . S
C11 C16 1.342 . S
C12 C13 1.310 . S
C12 C15 1.461 . S
C12 H32 0.932 . S
C13 C11 1.408 . S
C13 C12 1.310 . S
C13 H33 0.930 . S
C14 C15 1.474 . S
C14 C16 1.285 . S
C14 H34 0.929 . S
C15 C12 1.461 . S
C15 C14 1.474 . S
C16 C11 1.342 . S
C16 C14 1.285 . S
C16 H35 0.930 . S
C17 C20 1.424 . S
C17 C22 1.245 . S
C17 C23 1.428 . S
C18 C21 1.260 . S
C18 C22 1.477 . S
C18 H36 0.932 . S
C19 C20 1.384 . S
C19 C21 1.480 . S
C19 H37 0.928 1_554 S
C20 C17 1.424 . S
C20 C19 1.384 . S
C20 H38 0.928 . S
C21 C18 1.260 . S
C21 C19 1.480 . S
C22 C17 1.245 . S
C22 C18 1.477 . S
C22 H39 0.932 . S
C23 U6 2.882 . S
C23 C17 1.428 . S
C23 O26 1.301 . S
C23 O27 1.282 1_554 S
O24 U6 2.441 . S
O24 C10 1.249 . S
O25 U6 2.420 1_556 S
O25 C10 1.202 1_556 S
O26 U6 2.455 . S
O26 C23 1.301 . S
O27 U6 2.449 1_556 S
O27 C23 1.282 1_556 S
H28 C1 0.936 . S
H29 C3 0.929 1_556 S
H30 C4 0.930 . S
H31 C5 0.931 . S
H32 C12 0.932 . S
H33 C13 0.930 . S
H34 C14 0.929 . S
H35 C16 0.930 . S
H36 C18 0.932 . S
H37 C19 0.928 1_556 S
H38 C20 0.928 . S
H39 C22 0.932 . S
C40 C41 1.264 . S
C40 C45 1.479 . S
C40 C50 1.465 . S
C41 C40 1.264 . S
C41 C43 1.339 . S
C41 H68 0.931 . S
C42 C43 1.395 . S
C42 C44 1.320 . S
C43 C41 1.339 . S
C43 C42 1.395 . S
C43 H69 0.929 . S
C44 C42 1.320 . S
C44 C45 1.405 . S
C44 H70 0.930 . S
C45 C40 1.479 . S
C45 C44 1.405 . S
C45 H71 0.931 . S
U46 O47 2.454 . S
U46 O48 2.458 . S
U46 C49 2.984 . S
U46 C50 2.847 . S
U46 C63 2.882 . S
U46 O64 2.441 . S
U46 O65 2.420 . S
U46 O66 2.455 . S
U46 O67 2.449 . S
O47 U46 2.454 . S
O47 C49 1.353 . S
O48 U46 2.458 . S
O48 C49 1.286 . S
C49 U46 2.984 . S
C49 O47 1.353 . S
C49 O48 1.286 . S
C49 C51 1.363 . S
C50 C40 1.465 . S
C50 U46 2.847 . S
C50 O64 1.249 . S
C50 O65 1.202 . S
C51 C49 1.363 . S
C51 C53 1.408 . S
C51 C56 1.342 . S
C52 C53 1.310 . S
C52 C55 1.461 . S
C52 H72 0.932 . S
C53 C51 1.408 . S
C53 C52 1.310 . S
C53 H73 0.930 . S
C54 C55 1.474 . S
C54 C56 1.285 . S
C54 H74 0.929 . S
C55 C52 1.461 . S
C55 C54 1.474 . S
C56 C51 1.342 . S
C56 C54 1.285 . S
C56 H75 0.930 . S
C57 C60 1.424 . S
C57 C62 1.245 . S
C57 C63 1.428 . S
C58 C61 1.260 . S
C58 C62 1.477 . S
C58 H76 0.932 . S
C59 C60 1.384 . S
C59 C61 1.479 . S
C59 H77 0.929 . S
C60 C57 1.424 . S
C60 C59 1.384 . S
C60 H78 0.928 . S
C61 C58 1.260 . S
C61 C59 1.479 . S
C62 C57 1.245 . S
C62 C58 1.477 . S
C62 H79 0.932 . S
C63 U46 2.882 . S
C63 C57 1.428 . S
C63 O66 1.301 . S
C63 O67 1.282 . S
O64 U46 2.441 . S
O64 C50 1.249 . S
O65 U46 2.420 . S
O65 C50 1.202 . S
O66 U46 2.455 . S
O66 C63 1.301 . S
O67 U46 2.449 . S
O67 C63 1.282 . S
H68 C41 0.931 . S
H69 C43 0.929 . S
H70 C44 0.930 . S
H71 C45 0.931 . S
H72 C52 0.932 . S
H73 C53 0.930 . S
H74 C54 0.929 . S
H75 C56 0.930 . S
H76 C58 0.932 . S
H77 C59 0.929 . S
H78 C60 0.928 . S
H79 C62 0.932 . S
C80 C81 1.264 . S
C80 C85 1.479 . S
C80 C90 1.465 . S
C81 C80 1.264 . S
C81 C83 1.339 1_554 S
C81 H108 0.931 . S
C82 C83 1.395 . S
C82 C84 1.320 1_556 S
C83 C81 1.339 1_556 S
C83 C82 1.395 . S
C83 H109 0.929 . S
C84 C82 1.320 1_554 S
C84 C85 1.405 . S
C84 H110 0.930 1_554 S
C85 C80 1.479 . S
C85 C84 1.405 . S
C85 H111 0.931 . S
U86 O87 2.454 . S
U86 O88 2.458 . S
U86 C89 2.984 . S
U86 C90 2.847 . S
U86 C103 2.882 . S
U86 O104 2.441 . S
U86 O105 2.420 . S
U86 O106 2.455 . S
U86 O107 2.449 . S
O87 U86 2.454 . S
O87 C89 1.353 . S
O88 U86 2.458 . S
O88 C89 1.286 . S
C89 U86 2.984 . S
C89 O87 1.353 . S
C89 O88 1.286 . S
C89 C91 1.363 . S
C90 C80 1.465 . S
C90 U86 2.847 . S
C90 O104 1.249 . S
C90 O105 1.202 . S
C91 C89 1.363 . S
C91 C93 1.408 . S
C91 C96 1.342 . S
C92 C93 1.310 . S
C92 C95 1.461 . S
C92 H112 0.932 . S
C93 C91 1.408 . S
C93 C92 1.310 . S
C93 H113 0.930 . S
C94 C95 1.474 . S
C94 C96 1.285 . S
C94 H114 0.929 . S
C95 C92 1.461 . S
C95 C94 1.474 . S
C96 C91 1.342 . S
C96 C94 1.285 . S
C96 H115 0.930 . S
C97 C100 1.424 . S
C97 C102 1.245 . S
C97 C103 1.428 . S
C98 C101 1.260 . S
C98 C102 1.477 . S
C98 H116 0.932 . S
C99 C100 1.384 . S
C99 C101 1.479 . S
C99 H117 0.929 1_554 S
C100 C97 1.424 . S
C100 C99 1.384 . S
C100 H118 0.928 . S
C101 C98 1.260 . S
C101 C99 1.479 . S
C102 C97 1.245 . S
C102 C98 1.477 . S
C102 H119 0.932 . S
C103 U86 2.882 . S
C103 C97 1.428 . S
C103 O106 1.301 . S
C103 O107 1.282 . S
O104 U86 2.441 . S
O104 C90 1.249 . S
O105 U86 2.420 . S
O105 C90 1.202 . S
O106 U86 2.455 . S
O106 C103 1.301 . S
O107 U86 2.449 . S
O107 C103 1.282 . S
H108 C81 0.931 . S
H109 C83 0.929 . S
H110 C84 0.930 1_556 S
H111 C85 0.931 . S
H112 C92 0.932 . S
H113 C93 0.930 . S
H114 C94 0.929 . S
H115 C96 0.930 . S
H116 C98 0.932 . S
H117 C99 0.929 1_556 S
H118 C100 0.928 . S
H119 C102 0.932 . S
C120 C121 1.264 . S
C120 C125 1.479 . S
C120 C130 1.465 . S
C121 C120 1.264 . S
C121 C123 1.337 1_556 S
C121 H148 0.931 . S
C122 C123 1.396 . S
C122 C124 1.320 1_554 S
C123 C121 1.337 1_554 S
C123 C122 1.396 . S
C123 H149 0.930 . S
C124 C122 1.320 1_556 S
C124 C125 1.405 . S
C124 H150 0.930 . S
C125 C120 1.479 . S
C125 C124 1.405 . S
C125 H151 0.931 . S
U126 O127 2.454 . S
U126 O128 2.458 . S
U126 C129 2.984 . S
U126 C130 2.847 . S
U126 C143 2.882 . S
U126 O144 2.441 . S
U126 O145 2.420 . S
U126 O146 2.455 . S
U126 O147 2.449 . S
O127 U126 2.454 . S
O127 C129 1.353 . S
O128 U126 2.458 . S
O128 C129 1.286 . S
C129 U126 2.984 . S
C129 O127 1.353 . S
C129 O128 1.286 . S
C129 C131 1.363 . S
C130 C120 1.465 . S
C130 U126 2.847 . S
C130 O144 1.249 . S
C130 O145 1.202 . S
C131 C129 1.363 . S
C131 C133 1.408 . S
C131 C136 1.342 . S
C132 C133 1.310 . S
C132 C135 1.461 . S
C132 H152 0.932 . S
C133 C131 1.408 . S
C133 C132 1.310 . S
C133 H153 0.930 . S
C134 C135 1.474 . S
C134 C136 1.285 . S
C134 H154 0.929 . S
C135 C132 1.461 . S
C135 C134 1.474 . S
C136 C131 1.342 . S
C136 C134 1.285 . S
C136 H155 0.930 . S
C137 C140 1.424 . S
C137 C142 1.245 . S
C137 C143 1.428 . S
C138 C141 1.260 . S
C138 C142 1.477 . S
C138 H156 0.932 . S
C139 C140 1.384 . S
C139 C141 1.479 . S
C139 H157 0.929 1_556 S
C140 C137 1.424 . S
C140 C139 1.384 . S
C140 H158 0.928 . S
C141 C138 1.260 . S
C141 C139 1.479 . S
C142 C137 1.245 . S
C142 C138 1.477 . S
C142 H159 0.932 . S
C143 U126 2.882 . S
C143 C137 1.428 . S
C143 O146 1.301 . S
C143 O147 1.282 . S
O144 U126 2.441 . S
O144 C130 1.249 . S
O145 U126 2.420 . S
O145 C130 1.202 . S
O146 U126 2.455 . S
O146 C143 1.301 . S
O147 U126 2.449 . S
O147 C143 1.282 . S
H148 C121 0.931 . S
H149 C123 0.930 . S
H150 C124 0.930 . S
H151 C125 0.931 . S
H152 C132 0.932 . S
H153 C133 0.930 . S
H154 C134 0.929 . S
H155 C136 0.930 . S
H156 C138 0.932 . S
H157 C139 0.929 1_554 S
H158 C140 0.928 . S
H159 C142 0.932 . S
C160 C161 1.264 . S
C160 C165 1.479 . S
C160 C170 1.465 . S
C161 C160 1.264 . S
C161 C163 1.339 . S
C161 H188 0.931 . S
C162 C163 1.395 . S
C162 C164 1.320 . S
C163 C161 1.339 . S
C163 C162 1.395 . S
C163 H189 0.929 . S
C164 C162 1.320 . S
C164 C165 1.405 . S
C164 H190 0.930 . S
C165 C160 1.479 . S
C165 C164 1.405 . S
C165 H191 0.931 . S
U166 O167 2.454 . S
U166 O168 2.458 . S
U166 C169 2.984 . S
U166 C170 2.847 . S
U166 C183 2.882 . S
U166 O184 2.441 . S
U166 O185 2.420 . S
U166 O186 2.455 . S
U166 O187 2.449 . S
O167 U166 2.454 . S
O167 C169 1.353 . S
O168 U166 2.458 . S
O168 C169 1.286 . S
C169 U166 2.984 . S
C169 O167 1.353 . S
C169 O168 1.286 . S
C169 C171 1.363 . S
C170 C160 1.465 . S
C170 U166 2.847 . S
C170 O184 1.249 . S
C170 O185 1.202 . S
C171 C169 1.363 . S
C171 C173 1.408 . S
C171 C176 1.342 . S
C172 C173 1.310 . S
C172 C175 1.461 . S
C172 H192 0.932 . S
C173 C171 1.408 . S
C173 C172 1.310 . S
C173 H193 0.930 . S
C174 C175 1.474 . S
C174 C176 1.285 . S
C174 H194 0.929 . S
C175 C172 1.461 . S
C175 C174 1.474 . S
C176 C171 1.342 . S
C176 C174 1.285 . S
C176 H195 0.930 . S
C177 C180 1.424 . S
C177 C182 1.245 . S
C177 C183 1.428 . S
C178 C181 1.260 . S
C178 C182 1.477 . S
C178 H196 0.932 . S
C179 C180 1.384 . S
C179 C181 1.479 . S
C179 H197 0.929 . S
C180 C177 1.424 . S
C180 C179 1.384 . S
C180 H198 0.928 . S
C181 C178 1.260 . S
C181 C179 1.479 . S
C182 C177 1.245 . S
C182 C178 1.477 . S
C182 H199 0.932 . S
C183 U166 2.882 . S
C183 C177 1.428 . S
C183 O186 1.301 . S
C183 O187 1.282 . S
O184 U166 2.441 . S
O184 C170 1.249 . S
O185 U166 2.420 . S
O185 C170 1.202 . S
O186 U166 2.455 . S
O186 C183 1.301 . S
O187 U166 2.449 . S
O187 C183 1.282 . S
H188 C161 0.931 . S
H189 C163 0.929 . S
H190 C164 0.930 . S
H191 C165 0.931 . S
H192 C172 0.932 . S
H193 C173 0.930 . S
H194 C174 0.929 . S
H195 C176 0.930 . S
H196 C178 0.932 . S
H197 C179 0.929 . S
H198 C180 0.928 . S
H199 C182 0.932 . S
C200 C201 1.264 . S
C200 C205 1.479 . S
C200 C210 1.465 . S
C201 C200 1.264 . S
C201 C203 1.339 . S
C201 H228 0.931 1_556 S
C202 C203 1.395 . S
C202 C204 1.320 . S
C203 C201 1.339 . S
C203 C202 1.395 . S
C203 H229 0.929 1_556 S
C204 C202 1.320 . S
C204 C205 1.405 . S
C204 H230 0.930 . S
C205 C200 1.479 . S
C205 C204 1.405 . S
C205 H231 0.931 . S
U206 O207 2.454 . S
U206 O208 2.458 . S
U206 C209 2.984 . S
U206 C210 2.847 . S
U206 C223 2.882 . S
U206 O224 2.441 . S
U206 O225 2.420 1_556 S
U206 O226 2.455 . S
U206 O227 2.449 1_556 S
O207 U206 2.454 . S
O207 C209 1.353 . S
O208 U206 2.458 . S
O208 C209 1.286 . S
C209 U206 2.984 . S
C209 O207 1.353 . S
C209 O208 1.286 . S
C209 C211 1.363 . S
C210 C200 1.465 . S
C210 U206 2.847 . S
C210 O224 1.249 . S
C210 O225 1.202 1_556 S
C211 C209 1.363 . S
C211 C213 1.408 . S
C211 C216 1.342 . S
C212 C213 1.310 . S
C212 C215 1.461 . S
C212 H232 0.932 . S
C213 C211 1.408 . S
C213 C212 1.310 . S
C213 H233 0.930 . S
C214 C215 1.474 . S
C214 C216 1.285 . S
C214 H234 0.929 . S
C215 C212 1.461 . S
C215 C214 1.474 . S
C216 C211 1.342 . S
C216 C214 1.285 . S
C216 H235 0.930 . S
C217 C220 1.424 . S
C217 C222 1.245 . S
C217 C223 1.428 . S
C218 C221 1.260 . S
C218 C222 1.477 . S
C218 H236 0.932 . S
C219 C220 1.384 . S
C219 C221 1.479 . S
C219 H237 0.929 1_556 S
C220 C217 1.424 . S
C220 C219 1.384 . S
C220 H238 0.928 . S
C221 C218 1.260 . S
C221 C219 1.479 . S
C222 C217 1.245 . S
C222 C218 1.477 . S
C222 H239 0.932 . S
C223 U206 2.882 . S
C223 C217 1.428 . S
C223 O226 1.301 . S
C223 O227 1.282 1_556 S
O224 U206 2.441 . S
O224 C210 1.249 . S
O225 U206 2.420 1_554 S
O225 C210 1.202 1_554 S
O226 U206 2.455 . S
O226 C223 1.301 . S
O227 U206 2.449 1_554 S
O227 C223 1.282 1_554 S
H228 C201 0.931 1_554 S
H229 C203 0.929 1_554 S
H230 C204 0.930 . S
H231 C205 0.931 . S
H232 C212 0.932 . S
H233 C213 0.930 . S
H234 C214 0.929 . S
H235 C216 0.930 . S
H236 C218 0.932 . S
H237 C219 0.929 1_554 S
H238 C220 0.928 . S
H239 C222 0.932 . S
C240 C241 1.264 . S
C240 C245 1.479 . S
C240 C250 1.465 . S
C241 C240 1.264 . S
C241 C243 1.339 . S
C241 H268 0.931 . S
C242 C243 1.395 . S
C242 C244 1.320 . S
C243 C241 1.339 . S
C243 C242 1.395 . S
C243 H269 0.929 . S
C244 C242 1.320 . S
C244 C245 1.405 . S
C244 H270 0.930 . S
C245 C240 1.479 . S
C245 C244 1.405 . S
C245 H271 0.931 . S
U246 O247 2.454 . S
U246 O248 2.458 . S
U246 C249 2.984 . S
U246 C250 2.847 . S
U246 C263 2.882 . S
U246 O264 2.441 . S
U246 O265 2.420 . S
U246 O266 2.455 . S
U246 O267 2.449 . S
O247 U246 2.454 . S
O247 C249 1.353 . S
O248 U246 2.458 . S
O248 C249 1.286 . S
C249 U246 2.984 . S
C249 O247 1.353 . S
C249 O248 1.286 . S
C249 C251 1.363 . S
C250 C240 1.465 . S
C250 U246 2.847 . S
C250 O264 1.249 . S
C250 O265 1.202 . S
C251 C249 1.363 . S
C251 C253 1.408 . S
C251 C256 1.342 . S
C252 C253 1.310 . S
C252 C255 1.461 . S
C252 H272 0.932 . S
C253 C251 1.408 . S
C253 C252 1.310 . S
C253 H273 0.930 . S
C254 C255 1.474 . S
C254 C256 1.285 . S
C254 H274 0.929 . S
C255 C252 1.461 . S
C255 C254 1.474 . S
C256 C251 1.342 . S
C256 C254 1.285 . S
C256 H275 0.930 . S
C257 C260 1.424 . S
C257 C262 1.245 . S
C257 C263 1.428 . S
C258 C261 1.260 . S
C258 C262 1.477 . S
C258 H276 0.932 . S
C259 C260 1.384 . S
C259 C261 1.479 . S
C259 H277 0.929 . S
C260 C257 1.424 . S
C260 C259 1.384 . S
C260 H278 0.928 . S
C261 C258 1.260 . S
C261 C259 1.479 . S
C262 C257 1.245 . S
C262 C258 1.477 . S
C262 H279 0.932 . S
C263 U246 2.882 . S
C263 C257 1.428 . S
C263 O266 1.301 . S
C263 O267 1.282 . S
O264 U246 2.441 . S
O264 C250 1.249 . S
O265 U246 2.420 . S
O265 C250 1.202 . S
O266 U246 2.455 . S
O266 C263 1.301 . S
O267 U246 2.449 . S
O267 C263 1.282 . S
H268 C241 0.931 . S
H269 C243 0.929 . S
H270 C244 0.930 . S
H271 C245 0.931 . S
H272 C252 0.932 . S
H273 C253 0.930 . S
H274 C254 0.929 . S
H275 C256 0.930 . S
H276 C258 0.932 . S
H277 C259 0.929 . S
H278 C260 0.928 . S
H279 C262 0.932 . S
C280 C281 1.264 . S
C280 C285 1.479 . S
C280 C290 1.465 . S
C281 C280 1.264 . S
C281 C283 1.339 . S
C281 H308 0.931 . S
C282 C283 1.395 . S
C282 C284 1.320 . S
C283 C281 1.339 . S
C283 C282 1.395 . S
C283 H309 0.929 . S
C284 C282 1.320 . S
C284 C285 1.405 . S
C284 H310 0.930 . S
C285 C280 1.479 . S
C285 C284 1.405 . S
C285 H311 0.931 . S
U286 O287 2.454 . S
U286 O288 2.458 . S
U286 C289 2.984 . S
U286 C290 2.847 . S
U286 C303 2.882 . S
U286 O304 2.441 . S
U286 O305 2.420 . S
U286 O306 2.455 . S
U286 O307 2.449 . S
O287 U286 2.454 . S
O287 C289 1.353 . S
O288 U286 2.458 . S
O288 C289 1.286 . S
C289 U286 2.984 . S
C289 O287 1.353 . S
C289 O288 1.286 . S
C289 C291 1.363 . S
C290 C280 1.465 . S
C290 U286 2.847 . S
C290 O304 1.249 . S
C290 O305 1.202 . S
C291 C289 1.363 . S
C291 C293 1.408 . S
C291 C296 1.342 . S
C292 C293 1.310 . S
C292 C295 1.461 . S
C292 H312 0.932 . S
C293 C291 1.408 . S
C293 C292 1.310 . S
C293 H313 0.930 . S
C294 C295 1.474 . S
C294 C296 1.285 . S
C294 H314 0.929 . S
C295 C292 1.461 . S
C295 C294 1.474 . S
C296 C291 1.342 . S
C296 C294 1.285 . S
C296 H315 0.930 . S
C297 C300 1.424 . S
C297 C302 1.245 . S
C297 C303 1.428 . S
C298 C301 1.260 . S
C298 C302 1.477 . S
C298 H316 0.932 . S
C299 C300 1.384 . S
C299 C301 1.479 . S
C299 H317 0.929 . S
C300 C297 1.424 . S
C300 C299 1.384 . S
C300 H318 0.928 . S
C301 C298 1.260 . S
C301 C299 1.479 . S
C302 C297 1.245 . S
C302 C298 1.477 . S
C302 H319 0.932 . S
C303 U286 2.882 . S
C303 C297 1.428 . S
C303 O306 1.301 . S
C303 O307 1.282 . S
O304 U286 2.441 . S
O304 C290 1.249 . S
O305 U286 2.420 . S
O305 C290 1.202 . S
O306 U286 2.455 . S
O306 C303 1.301 . S
O307 U286 2.449 . S
O307 C303 1.282 . S
H308 C281 0.931 . S
H309 C283 0.929 . S
H310 C284 0.930 . S
H311 C285 0.931 . S
H312 C292 0.932 . S
H313 C293 0.930 . S
H314 C294 0.929 . S
H315 C296 0.930 . S
H316 C298 0.932 . S
H317 C299 0.929 . S
H318 C300 0.928 . S
H319 C302 0.932 . S
C320 C321 1.264 . S
C320 C325 1.479 . S
C320 C330 1.465 . S
C321 C320 1.264 . S
C321 C323 1.339 . S
C321 H348 0.931 . S
C322 C323 1.395 . S
C322 C324 1.320 . S
C323 C321 1.339 . S
C323 C322 1.395 . S
C323 H349 0.929 . S
C324 C322 1.320 . S
C324 C325 1.405 . S
C324 H350 0.930 . S
C325 C320 1.479 . S
C325 C324 1.405 . S
C325 H351 0.931 . S
U326 O327 2.454 . S
U326 O328 2.458 . S
U326 C329 2.984 . S
U326 C330 2.847 . S
U326 C343 2.882 . S
U326 O344 2.441 . S
U326 O345 2.420 . S
U326 O346 2.455 . S
U326 O347 2.449 . S
O327 U326 2.454 . S
O327 C329 1.353 . S
O328 U326 2.458 . S
O328 C329 1.286 . S
C329 U326 2.984 . S
C329 O327 1.353 . S
C329 O328 1.286 . S
C329 C331 1.363 . S
C330 C320 1.465 . S
C330 U326 2.847 . S
C330 O344 1.249 . S
C330 O345 1.202 . S
C331 C329 1.363 . S
C331 C333 1.408 . S
C331 C336 1.342 . S
C332 C333 1.310 . S
C332 C335 1.461 . S
C332 H352 0.932 . S
C333 C331 1.408 . S
C333 C332 1.310 . S
C333 H353 0.930 . S
C334 C335 1.474 . S
C334 C336 1.285 . S
C334 H354 0.929 . S
C335 C332 1.461 . S
C335 C334 1.474 . S
C336 C331 1.342 . S
C336 C334 1.285 . S
C336 H355 0.930 . S
C337 C340 1.424 . S
C337 C342 1.245 . S
C337 C343 1.428 . S
C338 C341 1.260 . S
C338 C342 1.477 . S
C338 H356 0.932 . S
C339 C340 1.384 . S
C339 C341 1.479 . S
C339 H357 0.929 . S
C340 C337 1.424 . S
C340 C339 1.384 . S
C340 H358 0.928 . S
C341 C338 1.260 . S
C341 C339 1.479 . S
C342 C337 1.245 . S
C342 C338 1.477 . S
C342 H359 0.932 . S
C343 U326 2.882 . S
C343 C337 1.428 . S
C343 O346 1.301 . S
C343 O347 1.282 . S
O344 U326 2.441 . S
O344 C330 1.249 . S
O345 U326 2.420 . S
O345 C330 1.202 . S
O346 U326 2.455 . S
O346 C343 1.301 . S
O347 U326 2.449 . S
O347 C343 1.282 . S
H348 C321 0.931 . S
H349 C323 0.929 . S
H350 C324 0.930 . S
H351 C325 0.931 . S
H352 C332 0.932 . S
H353 C333 0.930 . S
H354 C334 0.929 . S
H355 C336 0.930 . S
H356 C338 0.932 . S
H357 C339 0.929 . S
H358 C340 0.928 . S
H359 C342 0.932 . S
C360 C361 1.264 . S
C360 C365 1.479 . S
C360 C370 1.465 . S
C361 C360 1.264 . S
C361 C363 1.339 . S
C361 H388 0.931 . S
C362 C363 1.395 . S
C362 C364 1.320 . S
C363 C361 1.339 . S
C363 C362 1.395 . S
C363 H389 0.929 . S
C364 C362 1.320 . S
C364 C365 1.405 . S
C364 H390 0.930 . S
C365 C360 1.479 . S
C365 C364 1.405 . S
C365 H391 0.931 . S
U366 O367 2.454 . S
U366 O368 2.458 . S
U366 C369 2.984 . S
U366 C370 2.847 . S
U366 C383 2.882 . S
U366 O384 2.441 . S
U366 O385 2.420 . S
U366 O386 2.455 . S
U366 O387 2.449 . S
O367 U366 2.454 . S
O367 C369 1.353 . S
O368 U366 2.458 . S
O368 C369 1.286 . S
C369 U366 2.984 . S
C369 O367 1.353 . S
C369 O368 1.286 . S
C369 C371 1.363 . S
C370 C360 1.465 . S
C370 U366 2.847 . S
C370 O384 1.249 . S
C370 O385 1.202 . S
C371 C369 1.363 . S
C371 C373 1.408 . S
C371 C376 1.342 . S
C372 C373 1.310 . S
C372 C375 1.461 . S
C372 H392 0.932 . S
C373 C371 1.408 . S
C373 C372 1.310 . S
C373 H393 0.930 . S
C374 C375 1.474 . S
C374 C376 1.285 . S
C374 H394 0.929 . S
C375 C372 1.461 . S
C375 C374 1.474 . S
C376 C371 1.342 . S
C376 C374 1.285 . S
C376 H395 0.930 . S
C377 C380 1.424 . S
C377 C382 1.245 . S
C377 C383 1.428 . S
C378 C381 1.260 . S
C378 C382 1.477 . S
C378 H396 0.932 . S
C379 C380 1.384 . S
C379 C381 1.479 . S
C379 H397 0.929 . S
C380 C377 1.424 . S
C380 C379 1.384 . S
C380 H398 0.928 . S
C381 C378 1.260 . S
C381 C379 1.479 . S
C382 C377 1.245 . S
C382 C378 1.477 . S
C382 H399 0.932 . S
C383 U366 2.882 . S
C383 C377 1.428 . S
C383 O386 1.301 . S
C383 O387 1.282 . S
O384 U366 2.441 . S
O384 C370 1.249 . S
O385 U366 2.420 . S
O385 C370 1.202 . S
O386 U366 2.455 . S
O386 C383 1.301 . S
O387 U366 2.449 . S
O387 C383 1.282 . S
H388 C361 0.931 . S
H389 C363 0.929 . S
H390 C364 0.930 . S
H391 C365 0.931 . S
H392 C372 0.932 . S
H393 C373 0.930 . S
H394 C374 0.929 . S
H395 C376 0.930 . S
H396 C378 0.932 . S
H397 C379 0.929 . S
H398 C380 0.928 . S
H399 C382 0.932 . S
C400 C401 1.264 . S
C400 C405 1.479 . S
C400 C410 1.465 . S
C401 C400 1.264 . S
C401 C403 1.339 . S
C401 H428 0.931 . S
C402 C403 1.395 . S
C402 C404 1.320 . S
C403 C401 1.339 . S
C403 C402 1.395 . S
C403 H429 0.929 . S
C404 C402 1.320 . S
C404 C405 1.405 . S
C404 H430 0.930 . S
C405 C400 1.479 . S
C405 C404 1.405 . S
C405 H431 0.931 . S
U406 O407 2.454 . S
U406 O408 2.458 . S
U406 C409 2.984 . S
U406 C410 2.847 . S
U406 C423 2.882 . S
U406 O424 2.441 . S
U406 O425 2.420 . S
U406 O426 2.455 . S
U406 O427 2.449 . S
O407 U406 2.454 . S
O407 C409 1.353 . S
O408 U406 2.458 . S
O408 C409 1.286 . S
C409 U406 2.984 . S
C409 O407 1.353 . S
C409 O408 1.286 . S
C409 C411 1.363 . S
C410 C400 1.465 . S
C410 U406 2.847 . S
C410 O424 1.249 . S
C410 O425 1.202 . S
C411 C409 1.363 . S
C411 C413 1.408 . S
C411 C416 1.342 . S
C412 C413 1.310 . S
C412 C415 1.461 . S
C412 H432 0.932 . S
C413 C411 1.408 . S
C413 C412 1.310 . S
C413 H433 0.930 . S
C414 C415 1.474 . S
C414 C416 1.285 . S
C414 H434 0.929 . S
C415 C412 1.461 . S
C415 C414 1.474 . S
C416 C411 1.342 . S
C416 C414 1.285 . S
C416 H435 0.930 . S
C417 C420 1.424 . S
C417 C422 1.245 . S
C417 C423 1.428 . S
C418 C421 1.260 . S
C418 C422 1.477 . S
C418 H436 0.932 . S
C419 C420 1.384 . S
C419 C421 1.479 . S
C419 H437 0.929 . S
C420 C417 1.424 . S
C420 C419 1.384 . S
C420 H438 0.928 . S
C421 C418 1.260 . S
C421 C419 1.479 . S
C422 C417 1.245 . S
C422 C418 1.477 . S
C422 H439 0.932 . S
C423 U406 2.882 . S
C423 C417 1.428 . S
C423 O426 1.301 . S
C423 O427 1.282 . S
O424 U406 2.441 . S
O424 C410 1.249 . S
O425 U406 2.420 . S
O425 C410 1.202 . S
O426 U406 2.455 . S
O426 C423 1.301 . S
O427 U406 2.449 . S
O427 C423 1.282 . S
H428 C401 0.931 . S
H429 C403 0.929 . S
H430 C404 0.930 . S
H431 C405 0.931 . S
H432 C412 0.932 . S
H433 C413 0.930 . S
H434 C414 0.929 . S
H435 C416 0.930 . S
H436 C418 0.932 . S
H437 C419 0.929 . S
H438 C420 0.928 . S
H439 C422 0.932 . S
C440 C441 1.264 . S
C440 C445 1.479 . S
C440 C450 1.465 . S
C441 C440 1.264 . S
C441 C443 1.339 . S
C441 H468 0.931 . S
C442 C443 1.395 . S
C442 C444 1.320 . S
C443 C441 1.339 . S
C443 C442 1.395 . S
C443 H469 0.929 . S
C444 C442 1.320 . S
C444 C445 1.405 . S
C444 H470 0.930 . S
C445 C440 1.479 . S
C445 C444 1.405 . S
C445 H471 0.931 . S
U446 O447 2.454 . S
U446 O448 2.458 . S
U446 C449 2.984 . S
U446 C450 2.847 . S
U446 C463 2.882 . S
U446 O464 2.441 . S
U446 O465 2.420 . S
U446 O466 2.455 . S
U446 O467 2.449 . S
O447 U446 2.454 . S
O447 C449 1.353 . S
O448 U446 2.458 . S
O448 C449 1.286 . S
C449 U446 2.984 . S
C449 O447 1.353 . S
C449 O448 1.286 . S
C449 C451 1.363 . S
C450 C440 1.465 . S
C450 U446 2.847 . S
C450 O464 1.249 . S
C450 O465 1.202 . S
C451 C449 1.363 . S
C451 C453 1.408 . S
C451 C456 1.342 . S
C452 C453 1.310 . S
C452 C455 1.461 . S
C452 H472 0.932 . S
C453 C451 1.408 . S
C453 C452 1.310 . S
C453 H473 0.930 . S
C454 C455 1.474 . S
C454 C456 1.285 . S
C454 H474 0.929 . S
C455 C452 1.461 . S
C455 C454 1.474 . S
C456 C451 1.342 . S
C456 C454 1.285 . S
C456 H475 0.930 . S
C457 C460 1.424 . S
C457 C462 1.245 . S
C457 C463 1.428 . S
C458 C461 1.260 . S
C458 C462 1.477 . S
C458 H476 0.932 . S
C459 C460 1.384 . S
C459 C461 1.479 . S
C459 H477 0.929 . S
C460 C457 1.424 . S
C460 C459 1.384 . S
C460 H478 0.928 . S
C461 C458 1.260 . S
C461 C459 1.479 . S
C462 C457 1.245 . S
C462 C458 1.477 . S
C462 H479 0.932 . S
C463 U446 2.882 . S
C463 C457 1.428 . S
C463 O466 1.301 . S
C463 O467 1.282 . S
O464 U446 2.441 . S
O464 C450 1.249 . S
O465 U446 2.420 . S
O465 C450 1.202 . S
O466 U446 2.455 . S
O466 C463 1.301 . S
O467 U446 2.449 . S
O467 C463 1.282 . S
H468 C441 0.931 . S
H469 C443 0.929 . S
H470 C444 0.930 . S
H471 C445 0.931 . S
H472 C452 0.932 . S
H473 C453 0.930 . S
H474 C454 0.929 . S
H475 C456 0.930 . S
H476 C458 0.932 . S
H477 C459 0.929 . S
H478 C460 0.928 . S
H479 C462 0.932 . S
C480 C481 1.264 . S
C480 C485 1.479 . S
C480 C490 1.465 . S
C481 C480 1.264 . S
C481 C483 1.339 . S
C481 H508 0.931 . S
C482 C483 1.395 . S
C482 C484 1.320 . S
C483 C481 1.339 . S
C483 C482 1.395 . S
C483 H509 0.929 . S
C484 C482 1.320 . S
C484 C485 1.405 . S
C484 H510 0.930 . S
C485 C480 1.479 . S
C485 C484 1.405 . S
C485 H511 0.931 . S
U486 O487 2.454 . S
U486 O488 2.458 . S
U486 C489 2.984 . S
U486 C490 2.847 . S
U486 C503 2.882 . S
U486 O504 2.441 . S
U486 O505 2.420 . S
U486 O506 2.455 . S
U486 O507 2.449 . S
O487 U486 2.454 . S
O487 C489 1.353 . S
O488 U486 2.458 . S
O488 C489 1.286 . S
C489 U486 2.984 . S
C489 O487 1.353 . S
C489 O488 1.286 . S
C489 C491 1.363 . S
C490 C480 1.465 . S
C490 U486 2.847 . S
C490 O504 1.249 . S
C490 O505 1.202 . S
C491 C489 1.363 . S
C491 C493 1.408 . S
C491 C496 1.342 . S
C492 C493 1.310 . S
C492 C495 1.461 . S
C492 H512 0.932 . S
C493 C491 1.408 . S
C493 C492 1.310 . S
C493 H513 0.930 . S
C494 C495 1.474 . S
C494 C496 1.285 . S
C494 H514 0.929 . S
C495 C492 1.461 . S
C495 C494 1.474 . S
C496 C491 1.342 . S
C496 C494 1.285 . S
C496 H515 0.930 . S
C497 C500 1.424 . S
C497 C502 1.245 . S
C497 C503 1.428 . S
C498 C501 1.260 . S
C498 C502 1.477 . S
C498 H516 0.932 . S
C499 C500 1.384 . S
C499 C501 1.479 . S
C499 H517 0.929 . S
C500 C497 1.424 . S
C500 C499 1.384 . S
C500 H518 0.928 . S
C501 C498 1.260 . S
C501 C499 1.479 . S
C502 C497 1.245 . S
C502 C498 1.477 . S
C502 H519 0.932 . S
C503 U486 2.882 . S
C503 C497 1.428 . S
C503 O506 1.301 . S
C503 O507 1.282 . S
O504 U486 2.441 . S
O504 C490 1.249 . S
O505 U486 2.420 . S
O505 C490 1.202 . S
O506 U486 2.455 . S
O506 C503 1.301 . S
O507 U486 2.449 . S
O507 C503 1.282 . S
H508 C481 0.931 . S
H509 C483 0.929 . S
H510 C484 0.930 . S
H511 C485 0.931 . S
H512 C492 0.932 . S
H513 C493 0.930 . S
H514 C494 0.929 . S
H515 C496 0.930 . S
H516 C498 0.932 . S
H517 C499 0.929 . S
H518 C500 0.928 . S
H519 C502 0.932 . S
C520 C521 1.264 . S
C520 C525 1.479 . S
C520 C530 1.465 . S
C521 C520 1.264 . S
C521 C523 1.339 . S
C521 H548 0.931 . S
C522 C523 1.395 . S
C522 C524 1.320 . S
C523 C521 1.339 . S
C523 C522 1.395 . S
C523 H549 0.929 . S
C524 C522 1.320 . S
C524 C525 1.405 . S
C524 H550 0.930 . S
C525 C520 1.479 . S
C525 C524 1.405 . S
C525 H551 0.931 . S
U526 O527 2.454 . S
U526 O528 2.458 . S
U526 C529 2.984 . S
U526 C530 2.847 . S
U526 C543 2.882 . S
U526 O544 2.441 . S
U526 O545 2.420 . S
U526 O546 2.455 . S
U526 O547 2.449 . S
O527 U526 2.454 . S
O527 C529 1.353 . S
O528 U526 2.458 . S
O528 C529 1.286 . S
C529 U526 2.984 . S
C529 O527 1.353 . S
C529 O528 1.286 . S
C529 C531 1.363 . S
C530 C520 1.465 . S
C530 U526 2.847 . S
C530 O544 1.249 . S
C530 O545 1.202 . S
C531 C529 1.363 . S
C531 C533 1.408 . S
C531 C536 1.342 . S
C532 C533 1.310 . S
C532 C535 1.461 . S
C532 H552 0.932 . S
C533 C531 1.408 . S
C533 C532 1.310 . S
C533 H553 0.930 . S
C534 C535 1.474 . S
C534 C536 1.285 . S
C534 H554 0.929 . S
C535 C532 1.461 . S
C535 C534 1.474 . S
C536 C531 1.342 . S
C536 C534 1.285 . S
C536 H555 0.930 . S
C537 C540 1.424 . S
C537 C542 1.245 . S
C537 C543 1.428 . S
C538 C541 1.260 . S
C538 C542 1.477 . S
C538 H556 0.932 . S
C539 C540 1.384 . S
C539 C541 1.479 . S
C539 H557 0.929 . S
C540 C537 1.424 . S
C540 C539 1.384 . S
C540 H558 0.928 . S
C541 C538 1.260 . S
C541 C539 1.479 . S
C542 C537 1.245 . S
C542 C538 1.477 . S
C542 H559 0.932 . S
C543 U526 2.882 . S
C543 C537 1.428 . S
C543 O546 1.301 . S
C543 O547 1.282 . S
O544 U526 2.441 . S
O544 C530 1.249 . S
O545 U526 2.420 . S
O545 C530 1.202 . S
O546 U526 2.455 . S
O546 C543 1.301 . S
O547 U526 2.449 . S
O547 C543 1.282 . S
H548 C521 0.931 . S
H549 C523 0.929 . S
H550 C524 0.930 . S
H551 C525 0.931 . S
H552 C532 0.932 . S
H553 C533 0.930 . S
H554 C534 0.929 . S
H555 C536 0.930 . S
H556 C538 0.932 . S
H557 C539 0.929 . S
H558 C540 0.928 . S
H559 C542 0.932 . S
C560 C561 1.264 . S
C560 C565 1.479 . S
C560 C570 1.465 . S
C561 C560 1.264 . S
C561 C563 1.339 . S
C561 H588 0.931 . S
C562 C563 1.395 . S
C562 C564 1.320 . S
C563 C561 1.339 . S
C563 C562 1.395 . S
C563 H589 0.929 . S
C564 C562 1.320 . S
C564 C565 1.405 . S
C564 H590 0.930 . S
C565 C560 1.479 . S
C565 C564 1.405 . S
C565 H591 0.931 . S
U566 O567 2.454 . S
U566 O568 2.458 . S
U566 C569 2.984 . S
U566 C570 2.847 . S
U566 C583 2.882 . S
U566 O584 2.441 . S
U566 O585 2.420 . S
U566 O586 2.455 . S
U566 O587 2.449 . S
O567 U566 2.454 . S
O567 C569 1.353 . S
O568 U566 2.458 . S
O568 C569 1.286 . S
C569 U566 2.984 . S
C569 O567 1.353 . S
C569 O568 1.286 . S
C569 C571 1.363 . S
C570 C560 1.465 . S
C570 U566 2.847 . S
C570 O584 1.249 . S
C570 O585 1.202 . S
C571 C569 1.363 . S
C571 C573 1.408 . S
C571 C576 1.342 . S
C572 C573 1.310 . S
C572 C575 1.461 . S
C572 H592 0.932 . S
C573 C571 1.408 . S
C573 C572 1.310 . S
C573 H593 0.930 . S
C574 C575 1.474 . S
C574 C576 1.285 . S
C574 H594 0.929 . S
C575 C572 1.461 . S
C575 C574 1.474 . S
C576 C571 1.342 . S
C576 C574 1.285 . S
C576 H595 0.930 . S
C577 C580 1.424 . S
C577 C582 1.245 . S
C577 C583 1.428 . S
C578 C581 1.260 . S
C578 C582 1.477 . S
C578 H596 0.932 . S
C579 C580 1.384 . S
C579 C581 1.479 . S
C579 H597 0.929 . S
C580 C577 1.424 . S
C580 C579 1.384 . S
C580 H598 0.928 . S
C581 C578 1.260 . S
C581 C579 1.479 . S
C582 C577 1.245 . S
C582 C578 1.477 . S
C582 H599 0.932 . S
C583 U566 2.882 . S
C583 C577 1.428 . S
C583 O586 1.301 . S
C583 O587 1.282 . S
O584 U566 2.441 . S
O584 C570 1.249 . S
O585 U566 2.420 . S
O585 C570 1.202 . S
O586 U566 2.455 . S
O586 C583 1.301 . S
O587 U566 2.449 . S
O587 C583 1.282 . S
H588 C561 0.931 . S
H589 C563 0.929 . S
H590 C564 0.930 . S
H591 C565 0.931 . S
H592 C572 0.932 . S
H593 C573 0.930 . S
H594 C574 0.929 . S
H595 C576 0.930 . S
H596 C578 0.932 . S
H597 C579 0.929 . S
H598 C580 0.928 . S
H599 C582 0.932 . S
C600 C601 1.264 . S
C600 C605 1.479 . S
C600 C610 1.465 . S
C601 C600 1.264 . S
C601 C603 1.339 . S
C601 H628 0.931 . S
C602 C603 1.395 . S
C602 C604 1.320 . S
C603 C601 1.339 . S
C603 C602 1.395 . S
C603 H629 0.929 . S
C604 C602 1.320 . S
C604 C605 1.405 . S
C604 H630 0.930 . S
C605 C600 1.479 . S
C605 C604 1.405 . S
C605 H631 0.931 . S
U606 O607 2.454 . S
U606 O608 2.458 . S
U606 C609 2.984 . S
U606 C610 2.847 . S
U606 C623 2.882 . S
U606 O624 2.441 . S
U606 O625 2.420 . S
U606 O626 2.455 . S
U606 O627 2.449 . S
O607 U606 2.454 . S
O607 C609 1.353 . S
O608 U606 2.458 . S
O608 C609 1.286 . S
C609 U606 2.984 . S
C609 O607 1.353 . S
C609 O608 1.286 . S
C609 C611 1.363 . S
C610 C600 1.465 . S
C610 U606 2.847 . S
C610 O624 1.249 . S
C610 O625 1.202 . S
C611 C609 1.363 . S
C611 C613 1.408 . S
C611 C616 1.342 . S
C612 C613 1.310 . S
C612 C615 1.461 . S
C612 H632 0.932 . S
C613 C611 1.408 . S
C613 C612 1.310 . S
C613 H633 0.930 . S
C614 C615 1.474 . S
C614 C616 1.285 . S
C614 H634 0.929 . S
C615 C612 1.461 . S
C615 C614 1.474 . S
C616 C611 1.342 . S
C616 C614 1.285 . S
C616 H635 0.930 . S
C617 C620 1.424 . S
C617 C622 1.245 . S
C617 C623 1.428 . S
C618 C621 1.260 . S
C618 C622 1.477 . S
C618 H636 0.932 . S
C619 C620 1.384 . S
C619 C621 1.479 . S
C619 H637 0.929 . S
C620 C617 1.424 . S
C620 C619 1.384 . S
C620 H638 0.928 . S
C621 C618 1.260 . S
C621 C619 1.479 . S
C622 C617 1.245 . S
C622 C618 1.477 . S
C622 H639 0.932 . S
C623 U606 2.882 . S
C623 C617 1.428 . S
C623 O626 1.301 . S
C623 O627 1.282 . S
O624 U606 2.441 . S
O624 C610 1.249 . S
O625 U606 2.420 . S
O625 C610 1.202 . S
O626 U606 2.455 . S
O626 C623 1.301 . S
O627 U606 2.449 . S
O627 C623 1.282 . S
H628 C601 0.931 . S
H629 C603 0.929 . S
H630 C604 0.930 . S
H631 C605 0.931 . S
H632 C612 0.932 . S
H633 C613 0.930 . S
H634 C614 0.929 . S
H635 C616 0.930 . S
H636 C618 0.932 . S
H637 C619 0.929 . S
H638 C620 0.928 . S
H639 C622 0.932 . S
C640 C641 1.264 . S
C640 C645 1.479 . S
C640 C650 1.465 . S
C641 C640 1.264 . S
C641 C643 1.339 . S
C641 H668 0.931 . S
C642 C643 1.395 . S
C642 C644 1.320 . S
C643 C641 1.339 . S
C643 C642 1.395 . S
C643 H669 0.929 . S
C644 C642 1.320 . S
C644 C645 1.405 . S
C644 H670 0.930 . S
C645 C640 1.479 . S
C645 C644 1.405 . S
C645 H671 0.931 . S
U646 O647 2.454 . S
U646 O648 2.458 . S
U646 C649 2.984 . S
U646 C650 2.847 . S
U646 C663 2.882 . S
U646 O664 2.441 . S
U646 O665 2.420 . S
U646 O666 2.455 . S
U646 O667 2.449 . S
O647 U646 2.454 . S
O647 C649 1.353 . S
O648 U646 2.458 . S
O648 C649 1.286 . S
C649 U646 2.984 . S
C649 O647 1.353 . S
C649 O648 1.286 . S
C649 C651 1.363 . S
C650 C640 1.465 . S
C650 U646 2.847 . S
C650 O664 1.249 . S
C650 O665 1.202 . S
C651 C649 1.363 . S
C651 C653 1.408 . S
C651 C656 1.342 . S
C652 C653 1.310 . S
C652 C655 1.461 . S
C652 H672 0.932 . S
C653 C651 1.408 . S
C653 C652 1.310 . S
C653 H673 0.930 . S
C654 C655 1.474 . S
C654 C656 1.285 . S
C654 H674 0.929 . S
C655 C652 1.461 . S
C655 C654 1.474 . S
C656 C651 1.342 . S
C656 C654 1.285 . S
C656 H675 0.930 . S
C657 C660 1.424 . S
C657 C662 1.245 . S
C657 C663 1.428 . S
C658 C661 1.260 . S
C658 C662 1.477 . S
C658 H676 0.932 . S
C659 C660 1.384 . S
C659 C661 1.479 . S
C659 H677 0.929 . S
C660 C657 1.424 . S
C660 C659 1.384 . S
C660 H678 0.928 . S
C661 C658 1.260 . S
C661 C659 1.479 . S
C662 C657 1.245 . S
C662 C658 1.477 . S
C662 H679 0.932 . S
C663 U646 2.882 . S
C663 C657 1.428 . S
C663 O666 1.301 . S
C663 O667 1.282 . S
O664 U646 2.441 . S
O664 C650 1.249 . S
O665 U646 2.420 . S
O665 C650 1.202 . S
O666 U646 2.455 . S
O666 C663 1.301 . S
O667 U646 2.449 . S
O667 C663 1.282 . S
H668 C641 0.931 . S
H669 C643 0.929 . S
H670 C644 0.930 . S
H671 C645 0.931 . S
H672 C652 0.932 . S
H673 C653 0.930 . S
H674 C654 0.929 . S
H675 C656 0.930 . S
H676 C658 0.932 . S
H677 C659 0.929 . S
H678 C660 0.928 . S
H679 C662 0.932 . S
C680 C681 1.264 . S
C680 C685 1.479 . S
C680 C690 1.465 . S
C681 C680 1.264 . S
C681 C683 1.339 . S
C681 H708 0.931 . S
C682 C683 1.395 . S
C682 C684 1.320 . S
C683 C681 1.339 . S
C683 C682 1.395 . S
C683 H709 0.929 . S
C684 C682 1.320 . S
C684 C685 1.405 . S
C684 H710 0.930 . S
C685 C680 1.479 . S
C685 C684 1.405 . S
C685 H711 0.931 . S
U686 O687 2.454 . S
U686 O688 2.458 . S
U686 C689 2.984 . S
U686 C690 2.847 . S
U686 C703 2.882 . S
U686 O704 2.441 . S
U686 O705 2.420 . S
U686 O706 2.455 . S
U686 O707 2.449 . S
O687 U686 2.454 . S
O687 C689 1.353 . S
O688 U686 2.458 . S
O688 C689 1.286 . S
C689 U686 2.984 . S
C689 O687 1.353 . S
C689 O688 1.286 . S
C689 C691 1.363 . S
C690 C680 1.465 . S
C690 U686 2.847 . S
C690 O704 1.249 . S
C690 O705 1.202 . S
C691 C689 1.363 . S
C691 C693 1.408 . S
C691 C696 1.342 . S
C692 C693 1.310 . S
C692 C695 1.461 . S
C692 H712 0.932 . S
C693 C691 1.408 . S
C693 C692 1.310 . S
C693 H713 0.930 . S
C694 C695 1.474 . S
C694 C696 1.285 . S
C694 H714 0.929 . S
C695 C692 1.461 . S
C695 C694 1.474 . S
C696 C691 1.342 . S
C696 C694 1.285 . S
C696 H715 0.930 . S
C697 C700 1.424 . S
C697 C702 1.245 . S
C697 C703 1.428 . S
C698 C701 1.260 . S
C698 C702 1.477 . S
C698 H716 0.932 . S
C699 C700 1.384 . S
C699 C701 1.479 . S
C699 H717 0.929 . S
C700 C697 1.424 . S
C700 C699 1.384 . S
C700 H718 0.928 . S
C701 C698 1.260 . S
C701 C699 1.479 . S
C702 C697 1.245 . S
C702 C698 1.477 . S
C702 H719 0.932 . S
C703 U686 2.882 . S
C703 C697 1.428 . S
C703 O706 1.301 . S
C703 O707 1.282 . S
O704 U686 2.441 . S
O704 C690 1.249 . S
O705 U686 2.420 . S
O705 C690 1.202 . S
O706 U686 2.455 . S
O706 C703 1.301 . S
O707 U686 2.449 . S
O707 C703 1.282 . S
H708 C681 0.931 . S
H709 C683 0.929 . S
H710 C684 0.930 . S
H711 C685 0.931 . S
H712 C692 0.932 . S
H713 C693 0.930 . S
H714 C694 0.929 . S
H715 C696 0.930 . S
H716 C698 0.932 . S
H717 C699 0.929 . S
H718 C700 0.928 . S
H719 C702 0.932 . S
C720 C721 1.391 . S
C720 C722 1.394 . S
C720 H736 0.931 . S
C721 C720 1.391 . S
C721 C725 1.376 1_554 S
C722 C720 1.394 . S
C722 C723 1.369 . S
C722 C726 1.531 . S
C723 C722 1.369 . S
C723 C724 1.410 1_554 S
C723 C731 1.503 1_545 S
C724 C723 1.410 1_556 S
C724 C725 1.392 . S
C724 C727 1.511 . S
C725 C721 1.376 1_556 S
C725 C724 1.392 . S
C725 H737 0.929 . S
C726 C722 1.531 . S
C726 H738 0.960 1_545 S
C726 H739 0.962 . S
C726 H740 0.960 . S
C727 C724 1.511 . S
C727 H741 0.961 . S
C727 H742 0.942 1_545 S
C727 H743 0.961 . S
C728 C729 1.370 . S
C728 C730 1.363 . S
C728 H744 0.931 . S
C729 C728 1.370 . S
C729 C733 1.408 1_556 S
C730 C728 1.363 . S
C730 C731 1.370 1_556 S
C730 C734 1.524 . S
C731 C723 1.503 1_565 S
C731 C730 1.370 1_554 S
C731 C732 1.403 . S
C732 C731 1.403 . S
C732 C733 1.404 . S
C732 C735 1.539 . S
C733 C729 1.408 1_554 S
C733 C732 1.404 . S
C733 H745 0.930 . S
C734 C730 1.524 . S
C734 H746 0.960 1_565 S
C734 H747 0.961 1_565 S
C734 H748 0.961 . S
C735 C732 1.539 . S
C735 H749 0.958 . S
C735 H750 0.961 . S
C735 H751 0.960 . S
H736 C720 0.931 . S
H737 C725 0.929 . S
H738 C726 0.960 1_565 S
H739 C726 0.962 . S
H740 C726 0.960 . S
H741 C727 0.961 . S
H742 C727 0.942 1_565 S
H743 C727 0.961 . S
H744 C728 0.931 . S
H745 C733 0.930 . S
H746 C734 0.960 1_545 S
H747 C734 0.961 1_545 S
H748 C734 0.961 . S
H749 C735 0.958 . S
H750 C735 0.961 . S
H751 C735 0.960 . S
C752 C753 1.391 . S
C752 C754 1.394 . S
C752 H768 0.931 . S
C753 C752 1.391 . S
C753 C757 1.376 . S
C754 C752 1.394 . S
C754 C755 1.369 . S
C754 C758 1.531 . S
C755 C754 1.369 . S
C755 C756 1.410 . S
C755 C763 1.503 1_655 S
C756 C755 1.410 . S
C756 C757 1.392 . S
C756 C759 1.511 . S
C757 C753 1.376 . S
C757 C756 1.392 . S
C757 H769 0.929 . S
C758 C754 1.531 . S
C758 H770 0.960 1_655 S
C758 H771 0.962 . S
C758 H772 0.960 . S
C759 C756 1.511 . S
C759 H773 0.961 . S
C759 H774 0.961 1_655 S
C759 H775 0.961 . S
C760 C761 1.370 1_556 S
C760 C762 1.363 . S
C760 H776 0.931 . S
C761 C760 1.370 1_554 S
C761 C765 1.408 . S
C762 C760 1.363 . S
C762 C763 1.370 1_556 S
C762 C766 1.524 . S
C763 C755 1.503 1_455 S
C763 C762 1.370 1_554 S
C763 C764 1.403 . S
C764 C763 1.403 . S
C764 C765 1.404 . S
C764 C767 1.539 . S
C765 C761 1.408 . S
C765 C764 1.404 . S
C765 H777 0.930 . S
C766 C762 1.524 . S
C766 H778 0.956 1_455 S
C766 H779 0.961 1_455 S
C766 H780 0.961 . S
C767 C764 1.539 . S
C767 H781 0.958 . S
C767 H782 0.961 . S
C767 H783 0.960 . S
H768 C752 0.931 . S
H769 C757 0.929 . S
H770 C758 0.960 1_455 S
H771 C758 0.962 . S
H772 C758 0.960 . S
H773 C759 0.961 . S
H774 C759 0.961 1_455 S
H775 C759 0.961 . S
H776 C760 0.931 . S
H777 C765 0.930 . S
H778 C766 0.956 1_655 S
H779 C766 0.961 1_655 S
H780 C766 0.961 . S
H781 C767 0.958 . S
H782 C767 0.961 . S
H783 C767 0.960 . S
C784 C785 1.391 . S
C784 C786 1.394 . S
C784 H800 0.931 1_556 S
C785 C784 1.391 . S
C785 C789 1.376 . S
C786 C784 1.394 . S
C786 C787 1.369 . S
C786 C790 1.531 1_556 S
C787 C786 1.369 . S
C787 C788 1.410 . S
C787 C795 1.503 . S
C788 C787 1.410 . S
C788 C789 1.392 . S
C788 C791 1.511 . S
C789 C785 1.376 . S
C789 C788 1.392 . S
C789 H801 0.929 . S
C790 C786 1.531 1_554 S
C790 H802 0.960 . S
C790 H803 0.962 1_554 S
C790 H804 0.960 . S
C791 C788 1.511 . S
C791 H805 0.961 . S
C791 H806 0.961 . S
C791 H807 0.961 . S
C792 C793 1.370 . S
C792 C794 1.363 . S
C792 H808 0.931 . S
C793 C792 1.370 . S
C793 C797 1.408 . S
C794 C792 1.363 . S
C794 C795 1.370 . S
C794 C798 1.524 . S
C795 C787 1.503 . S
C795 C794 1.370 . S
C795 C796 1.403 . S
C796 C795 1.403 . S
C796 C797 1.404 . S
C796 C799 1.539 1_556 S
C797 C793 1.408 . S
C797 C796 1.404 . S
C797 H809 0.930 . S
C798 C794 1.524 . S
C798 H810 0.956 . S
C798 H811 0.961 . S
C798 H812 0.961 . S
C799 C796 1.539 1_554 S
C799 H813 0.958 . S
C799 H814 0.961 . S
C799 H815 0.960 . S
H800 C784 0.931 1_554 S
H801 C789 0.929 . S
H802 C790 0.960 . S
H803 C790 0.962 1_556 S
H804 C790 0.960 . S
H805 C791 0.961 . S
H806 C791 0.961 . S
H807 C791 0.961 . S
H808 C792 0.931 . S
H809 C797 0.930 . S
H810 C798 0.956 . S
H811 C798 0.961 . S
H812 C798 0.961 . S
H813 C799 0.958 . S
H814 C799 0.961 . S
H815 C799 0.960 . S
C816 C817 1.391 1_556 S
C816 C818 1.394 . S
C816 H832 0.931 . S
C817 C816 1.391 1_554 S
C817 C821 1.376 . S
C818 C816 1.394 . S
C818 C819 1.369 . S
C818 C822 1.531 . S
C819 C818 1.369 . S
C819 C820 1.410 1_556 S
C819 C827 1.503 1_545 S
C820 C819 1.410 1_554 S
C820 C821 1.392 . S
C820 C823 1.511 . S
C821 C817 1.376 . S
C821 C820 1.392 . S
C821 H833 0.929 . S
C822 C818 1.531 . S
C822 H834 0.960 . S
C822 H835 0.962 . S
C822 H836 0.960 . S
C823 C820 1.511 . S
C823 H837 0.961 . S
C823 H838 0.961 1_545 S
C823 H839 0.961 . S
C824 C825 1.370 . S
C824 C826 1.363 1_556 S
C824 H840 0.931 1_556 S
C825 C824 1.370 . S
C825 C829 1.408 . S
C826 C824 1.363 1_554 S
C826 C827 1.370 1_554 S
C826 C830 1.524 . S
C827 C819 1.503 1_565 S
C827 C826 1.370 1_556 S
C827 C828 1.403 . S
C828 C827 1.403 . S
C828 C829 1.404 . S
C828 C831 1.539 . S
C829 C825 1.408 . S
C829 C828 1.404 . S
C829 H841 0.930 . S
C830 C826 1.524 . S
C830 H842 0.956 . S
C830 H843 0.961 . S
C830 H844 0.961 . S
C831 C828 1.539 . S
C831 H845 0.958 1_565 S
C831 H846 0.961 . S
C831 H847 0.960 1_565 S
H832 C816 0.931 . S
H833 C821 0.929 . S
H834 C822 0.960 . S
H835 C822 0.962 . S
H836 C822 0.960 . S
H837 C823 0.961 . S
H838 C823 0.961 1_565 S
H839 C823 0.961 . S
H840 C824 0.931 1_554 S
H841 C829 0.930 . S
H842 C830 0.956 . S
H843 C830 0.961 . S
H844 C830 0.961 . S
H845 C831 0.958 1_545 S
H846 C831 0.961 . S
H847 C831 0.960 1_545 S
C848 C849 1.391 . S
C848 C850 1.394 . S
C848 H864 0.931 . S
C849 C848 1.391 . S
C849 C853 1.376 . S
C850 C848 1.394 . S
C850 C851 1.369 . S
C850 C854 1.531 . S
C851 C850 1.369 . S
C851 C852 1.410 . S
C851 C859 1.503 1_455 S
C852 C851 1.410 . S
C852 C853 1.392 . S
C852 C855 1.511 . S
C853 C849 1.376 . S
C853 C852 1.392 . S
C853 H865 0.929 . S
C854 C850 1.531 . S
C854 H866 0.960 1_455 S
C854 H867 0.962 1_556 S
C854 H868 0.960 . S
C855 C852 1.511 . S
C855 H869 0.961 . S
C855 H870 0.961 1_455 S
C855 H871 0.961 . S
C856 C857 1.370 1_554 S
C856 C858 1.363 . S
C856 H872 0.931 . S
C857 C856 1.370 1_556 S
C857 C861 1.408 . S
C858 C856 1.363 . S
C858 C859 1.370 1_554 S
C858 C862 1.524 . S
C859 C851 1.503 1_655 S
C859 C858 1.370 1_556 S
C859 C860 1.403 . S
C860 C859 1.403 . S
C860 C861 1.404 . S
C860 C863 1.539 . S
C861 C857 1.408 . S
C861 C860 1.404 . S
C861 H873 0.930 . S
C862 C858 1.524 . S
C862 H874 0.956 . S
C862 H875 0.954 . S
C862 H876 0.961 . S
C863 C860 1.539 . S
C863 H877 0.958 . S
C863 H878 0.961 . S
C863 H879 0.960 . S
H864 C848 0.931 . S
H865 C853 0.929 . S
H866 C854 0.960 1_655 S
H867 C854 0.962 1_554 S
H868 C854 0.960 . S
H869 C855 0.961 . S
H870 C855 0.961 1_655 S
H871 C855 0.961 . S
H872 C856 0.931 . S
H873 C861 0.930 . S
H874 C862 0.956 . S
H875 C862 0.954 . S
H876 C862 0.961 . S
H877 C863 0.958 . S
H878 C863 0.961 . S
H879 C863 0.960 . S
C880 C881 1.391 1_556 S
C880 C882 1.394 . S
C880 H896 0.931 . S
C881 C880 1.391 1_554 S
C881 C885 1.376 . S
C882 C880 1.394 . S
C882 C883 1.369 1_556 S
C882 C886 1.531 . S
C883 C882 1.369 1_554 S
C883 C884 1.410 . S
C883 C891 1.503 . S
C884 C883 1.410 . S
C884 C885 1.392 . S
C884 C887 1.511 . S
C885 C881 1.376 . S
C885 C884 1.392 . S
C885 H897 0.929 . S
C886 C882 1.531 . S
C886 H898 0.960 . S
C886 H899 0.962 . S
C886 H900 0.960 . S
C887 C884 1.511 . S
C887 H901 0.961 . S
C887 H902 0.961 . S
C887 H903 0.961 . S
C888 C889 1.370 . S
C888 C890 1.363 . S
C888 H904 0.931 . S
C889 C888 1.370 . S
C889 C893 1.408 1_554 S
C890 C888 1.363 . S
C890 C891 1.370 . S
C890 C894 1.524 . S
C891 C883 1.503 . S
C891 C890 1.370 . S
C891 C892 1.403 1_554 S
C892 C891 1.403 1_556 S
C892 C893 1.404 . S
C892 C895 1.539 . S
C893 C889 1.408 1_556 S
C893 C892 1.404 . S
C893 H905 0.930 . S
C894 C890 1.524 . S
C894 H906 0.956 . S
C894 H907 0.961 . S
C894 H908 0.961 . S
C895 C892 1.539 . S
C895 H909 0.958 . S
C895 H910 0.961 . S
C895 H911 0.960 . S
H896 C880 0.931 . S
H897 C885 0.929 . S
H898 C886 0.960 . S
H899 C886 0.962 . S
H900 C886 0.960 . S
H901 C887 0.961 . S
H902 C887 0.961 . S
H903 C887 0.961 . S
H904 C888 0.931 . S
H905 C893 0.930 . S
H906 C894 0.956 . S
H907 C894 0.961 . S
H908 C894 0.961 . S
H909 C895 0.958 . S
H910 C895 0.961 . S
H911 C895 0.960 . S
C912 C913 1.391 . S
C912 C914 1.394 . S
C912 H928 0.931 . S
C913 C912 1.391 . S
C913 C917 1.376 . S
C914 C912 1.394 . S
C914 C915 1.369 . S
C914 C918 1.531 . S
C915 C914 1.369 . S
C915 C916 1.410 . S
C915 C923 1.503 . S
C916 C915 1.410 . S
C916 C917 1.392 . S
C916 C919 1.511 . S
C917 C913 1.376 . S
C917 C916 1.392 . S
C917 H929 0.929 . S
C918 C914 1.531 . S
C918 H930 0.960 . S
C918 H931 0.962 . S
C918 H932 0.960 . S
C919 C916 1.511 . S
C919 H933 0.961 . S
C919 H934 0.961 . S
C919 H935 0.961 . S
C920 C921 1.370 . S
C920 C922 1.363 . S
C920 H936 0.931 . S
C921 C920 1.370 . S
C921 C925 1.408 . S
C922 C920 1.363 . S
C922 C923 1.370 . S
C922 C926 1.524 . S
C923 C915 1.503 . S
C923 C922 1.370 . S
C923 C924 1.403 . S
C924 C923 1.403 . S
C924 C925 1.404 . S
C924 C927 1.539 . S
C925 C921 1.408 . S
C925 C924 1.404 . S
C925 H937 0.930 . S
C926 C922 1.524 . S
C926 H938 0.956 . S
C926 H939 0.961 . S
C926 H940 0.961 . S
C927 C924 1.539 . S
C927 H941 0.958 . S
C927 H942 0.961 . S
C927 H943 0.960 . S
H928 C912 0.931 . S
H929 C917 0.929 . S
H930 C918 0.960 . S
H931 C918 0.962 . S
H932 C918 0.960 . S
H933 C919 0.961 . S
H934 C919 0.961 . S
H935 C919 0.961 . S
H936 C920 0.931 . S
H937 C925 0.930 . S
H938 C926 0.956 . S
H939 C926 0.961 . S
H940 C926 0.961 . S
H941 C927 0.958 . S
H942 C927 0.961 . S
H943 C927 0.960 . S
C944 C945 1.391 . S
C944 C946 1.394 . S
C944 H960 0.931 . S
C945 C944 1.391 . S
C945 C949 1.376 . S
C946 C944 1.394 . S
C946 C947 1.369 . S
C946 C950 1.531 . S
C947 C946 1.369 . S
C947 C948 1.410 . S
C947 C955 1.503 . S
C948 C947 1.410 . S
C948 C949 1.392 . S
C948 C951 1.511 . S
C949 C945 1.376 . S
C949 C948 1.392 . S
C949 H961 0.929 . S
C950 C946 1.531 . S
C950 H962 0.960 . S
C950 H963 0.962 . S
C950 H964 0.960 . S
C951 C948 1.511 . S
C951 H965 0.961 . S
C951 H966 0.961 . S
C951 H967 0.961 . S
C952 C953 1.370 . S
C952 C954 1.363 . S
C952 H968 0.931 . S
C953 C952 1.370 . S
C953 C957 1.408 . S
C954 C952 1.363 . S
C954 C955 1.370 . S
C954 C958 1.524 . S
C955 C947 1.503 . S
C955 C954 1.370 . S
C955 C956 1.403 . S
C956 C955 1.403 . S
C956 C957 1.404 . S
C956 C959 1.539 . S
C957 C953 1.408 . S
C957 C956 1.404 . S
C957 H969 0.930 . S
C958 C954 1.524 . S
C958 H970 0.956 . S
C958 H971 0.961 . S
C958 H972 0.961 . S
C959 C956 1.539 . S
C959 H973 0.958 . S
C959 H974 0.961 . S
C959 H975 0.960 . S
H960 C944 0.931 . S
H961 C949 0.929 . S
H962 C950 0.960 . S
H963 C950 0.962 . S
H964 C950 0.960 . S
H965 C951 0.961 . S
H966 C951 0.961 . S
H967 C951 0.961 . S
H968 C952 0.931 . S
H969 C957 0.930 . S
H970 C958 0.956 . S
H971 C958 0.961 . S
H972 C958 0.961 . S
H973 C959 0.958 . S
H974 C959 0.961 . S
H975 C959 0.960 . S
C976 C977 1.391 . S
C976 C978 1.394 . S
C976 H992 0.931 . S
C977 C976 1.391 . S
C977 C981 1.376 . S
C978 C976 1.394 . S
C978 C979 1.369 . S
C978 C982 1.531 . S
C979 C978 1.369 . S
C979 C980 1.410 . S
C979 C987 1.503 . S
C980 C979 1.410 . S
C980 C981 1.392 . S
C980 C983 1.511 . S
C981 C977 1.376 . S
C981 C980 1.392 . S
C981 H993 0.929 . S
C982 C978 1.531 . S
C982 H994 0.960 . S
C982 H995 0.962 . S
C982 H996 0.960 . S
C983 C980 1.511 . S
C983 H997 0.961 . S
C983 H998 0.961 . S
C983 H999 0.961 . S
C984 C985 1.370 . S
C984 C986 1.363 . S
C984 H1000 0.931 . S
C985 C984 1.370 . S
C985 C989 1.408 . S
C986 C984 1.363 . S
C986 C987 1.370 . S
C986 C990 1.524 . S
C987 C979 1.503 . S
C987 C986 1.370 . S
C987 C988 1.403 . S
C988 C987 1.403 . S
C988 C989 1.404 . S
C988 C991 1.539 . S
C989 C985 1.408 . S
C989 C988 1.404 . S
C989 H1001 0.930 . S
C990 C986 1.524 . S
C990 H1002 0.956 . S
C990 H1003 0.961 . S
C990 H1004 0.961 . S
C991 C988 1.539 . S
C991 H1005 0.958 . S
C991 H1006 0.961 . S
C991 H1007 0.960 . S
H992 C976 0.931 . S
H993 C981 0.929 . S
H994 C982 0.960 . S
H995 C982 0.962 . S
H996 C982 0.960 . S
H997 C983 0.961 . S
H998 C983 0.961 . S
H999 C983 0.961 . S
H1000 C984 0.931 . S
H1001 C989 0.930 . S
H1002 C990 0.956 . S
H1003 C990 0.961 . S
H1004 C990 0.961 . S
H1005 C991 0.958 . S
H1006 C991 0.961 . S
H1007 C991 0.960 . S
C1008 C1009 1.391 . S
C1008 C1010 1.394 . S
C1008 H1024 0.931 . S
C1009 C1008 1.391 . S
C1009 C1013 1.376 . S
C1010 C1008 1.394 . S
C1010 C1011 1.369 . S
C1010 C1014 1.531 . S
C1011 C1010 1.369 . S
C1011 C1012 1.410 . S
C1011 C1019 1.503 . S
C1012 C1011 1.410 . S
C1012 C1013 1.392 . S
C1012 C1015 1.511 . S
C1013 C1009 1.376 . S
C1013 C1012 1.392 . S
C1013 H1025 0.929 . S
C1014 C1010 1.531 . S
C1014 H1026 0.960 . S
C1014 H1027 0.962 . S
C1014 H1028 0.960 . S
C1015 C1012 1.511 . S
C1015 H1029 0.961 . S
C1015 H1030 0.961 . S
C1015 H1031 0.961 . S
C1016 C1017 1.370 . S
C1016 C1018 1.363 . S
C1016 H1032 0.931 . S
C1017 C1016 1.370 . S
C1017 C1021 1.408 . S
C1018 C1016 1.363 . S
C1018 C1019 1.370 . S
C1018 C1022 1.524 . S
C1019 C1011 1.503 . S
C1019 C1018 1.370 . S
C1019 C1020 1.403 . S
C1020 C1019 1.403 . S
C1020 C1021 1.404 . S
C1020 C1023 1.539 . S
C1021 C1017 1.408 . S
C1021 C1020 1.404 . S
C1021 H1033 0.930 . S
C1022 C1018 1.524 . S
C1022 H1034 0.956 . S
C1022 H1035 0.961 . S
C1022 H1036 0.961 . S
C1023 C1020 1.539 . S
C1023 H1037 0.958 . S
C1023 H1038 0.961 . S
C1023 H1039 0.960 . S
H1024 C1008 0.931 . S
H1025 C1013 0.929 . S
H1026 C1014 0.960 . S
H1027 C1014 0.962 . S
H1028 C1014 0.960 . S
H1029 C1015 0.961 . S
H1030 C1015 0.961 . S
H1031 C1015 0.961 . S
H1032 C1016 0.931 . S
H1033 C1021 0.930 . S
H1034 C1022 0.956 . S
H1035 C1022 0.961 . S
H1036 C1022 0.961 . S
H1037 C1023 0.958 . S
H1038 C1023 0.961 . S
H1039 C1023 0.960 . S
C1040 C1041 1.391 . S
C1040 C1042 1.394 . S
C1040 H1056 0.931 . S
C1041 C1040 1.391 . S
C1041 C1045 1.376 . S
C1042 C1040 1.394 . S
C1042 C1043 1.369 . S
C1042 C1046 1.531 . S
C1043 C1042 1.369 . S
C1043 C1044 1.410 . S
C1043 C1051 1.503 . S
C1044 C1043 1.410 . S
C1044 C1045 1.392 . S
C1044 C1047 1.511 . S
C1045 C1041 1.376 . S
C1045 C1044 1.392 . S
C1045 H1057 0.929 . S
C1046 C1042 1.531 . S
C1046 H1058 0.960 . S
C1046 H1059 0.962 . S
C1046 H1060 0.960 . S
C1047 C1044 1.511 . S
C1047 H1061 0.961 . S
C1047 H1062 0.961 . S
C1047 H1063 0.961 . S
C1048 C1049 1.370 . S
C1048 C1050 1.363 . S
C1048 H1064 0.931 . S
C1049 C1048 1.370 . S
C1049 C1053 1.408 . S
C1050 C1048 1.363 . S
C1050 C1051 1.370 . S
C1050 C1054 1.524 . S
C1051 C1043 1.503 . S
C1051 C1050 1.370 . S
C1051 C1052 1.403 . S
C1052 C1051 1.403 . S
C1052 C1053 1.404 . S
C1052 C1055 1.539 . S
C1053 C1049 1.408 . S
C1053 C1052 1.404 . S
C1053 H1065 0.930 . S
C1054 C1050 1.524 . S
C1054 H1066 0.956 . S
C1054 H1067 0.961 . S
C1054 H1068 0.961 . S
C1055 C1052 1.539 . S
C1055 H1069 0.958 . S
C1055 H1070 0.961 . S
C1055 H1071 0.960 . S
H1056 C1040 0.931 . S
H1057 C1045 0.929 . S
H1058 C1046 0.960 . S
H1059 C1046 0.962 . S
H1060 C1046 0.960 . S
H1061 C1047 0.961 . S
H1062 C1047 0.961 . S
H1063 C1047 0.961 . S
H1064 C1048 0.931 . S
H1065 C1053 0.930 . S
H1066 C1054 0.956 . S
H1067 C1054 0.961 . S
H1068 C1054 0.961 . S
H1069 C1055 0.958 . S
H1070 C1055 0.961 . S
H1071 C1055 0.960 . S
C1072 C1073 1.391 . S
C1072 C1074 1.394 . S
C1072 H1088 0.931 . S
C1073 C1072 1.391 . S
C1073 C1077 1.376 . S
C1074 C1072 1.394 . S
C1074 C1075 1.369 . S
C1074 C1078 1.531 . S
C1075 C1074 1.369 . S
C1075 C1076 1.410 . S
C1075 C1083 1.503 . S
C1076 C1075 1.410 . S
C1076 C1077 1.392 . S
C1076 C1079 1.511 . S
C1077 C1073 1.376 . S
C1077 C1076 1.392 . S
C1077 H1089 0.929 . S
C1078 C1074 1.531 . S
C1078 H1090 0.960 . S
C1078 H1091 0.962 . S
C1078 H1092 0.960 . S
C1079 C1076 1.511 . S
C1079 H1093 0.961 . S
C1079 H1094 0.961 . S
C1079 H1095 0.961 . S
C1080 C1081 1.370 . S
C1080 C1082 1.363 . S
C1080 H1096 0.931 . S
C1081 C1080 1.370 . S
C1081 C1085 1.408 . S
C1082 C1080 1.363 . S
C1082 C1083 1.370 . S
C1082 C1086 1.524 . S
C1083 C1075 1.503 . S
C1083 C1082 1.370 . S
C1083 C1084 1.403 . S
C1084 C1083 1.403 . S
C1084 C1085 1.404 . S
C1084 C1087 1.539 . S
C1085 C1081 1.408 . S
C1085 C1084 1.404 . S
C1085 H1097 0.930 . S
C1086 C1082 1.524 . S
C1086 H1098 0.956 . S
C1086 H1099 0.961 . S
C1086 H1100 0.961 . S
C1087 C1084 1.539 . S
C1087 H1101 0.958 . S
C1087 H1102 0.961 . S
C1087 H1103 0.960 . S
H1088 C1072 0.931 . S
H1089 C1077 0.929 . S
H1090 C1078 0.960 . S
H1091 C1078 0.962 . S
H1092 C1078 0.960 . S
H1093 C1079 0.961 . S
H1094 C1079 0.961 . S
H1095 C1079 0.961 . S
H1096 C1080 0.931 . S
H1097 C1085 0.930 . S
H1098 C1086 0.956 . S
H1099 C1086 0.961 . S
H1100 C1086 0.961 . S
H1101 C1087 0.958 . S
H1102 C1087 0.961 . S
H1103 C1087 0.960 . S
C1104 C1105 1.391 . S
C1104 C1106 1.394 . S
C1104 H1120 0.931 . S
C1105 C1104 1.391 . S
C1105 C1109 1.376 . S
C1106 C1104 1.394 . S
C1106 C1107 1.369 . S
C1106 C1110 1.531 . S
C1107 C1106 1.369 . S
C1107 C1108 1.410 . S
C1107 C1115 1.503 . S
C1108 C1107 1.410 . S
C1108 C1109 1.392 . S
C1108 C1111 1.511 . S
C1109 C1105 1.376 . S
C1109 C1108 1.392 . S
C1109 H1121 0.929 . S
C1110 C1106 1.531 . S
C1110 H1122 0.960 . S
C1110 H1123 0.962 . S
C1110 H1124 0.960 . S
C1111 C1108 1.511 . S
C1111 H1125 0.961 . S
C1111 H1126 0.961 . S
C1111 H1127 0.961 . S
C1112 C1113 1.370 . S
C1112 C1114 1.363 . S
C1112 H1128 0.931 . S
C1113 C1112 1.370 . S
C1113 C1117 1.408 . S
C1114 C1112 1.363 . S
C1114 C1115 1.370 . S
C1114 C1118 1.524 . S
C1115 C1107 1.503 . S
C1115 C1114 1.370 . S
C1115 C1116 1.403 . S
C1116 C1115 1.403 . S
C1116 C1117 1.404 . S
C1116 C1119 1.539 . S
C1117 C1113 1.408 . S
C1117 C1116 1.404 . S
C1117 H1129 0.930 . S
C1118 C1114 1.524 . S
C1118 H1130 0.956 . S
C1118 H1131 0.961 . S
C1118 H1132 0.961 . S
C1119 C1116 1.539 . S
C1119 H1133 0.958 . S
C1119 H1134 0.961 . S
C1119 H1135 0.960 . S
H1120 C1104 0.931 . S
H1121 C1109 0.929 . S
H1122 C1110 0.960 . S
H1123 C1110 0.962 . S
H1124 C1110 0.960 . S
H1125 C1111 0.961 . S
H1126 C1111 0.961 . S
H1127 C1111 0.961 . S
H1128 C1112 0.931 . S
H1129 C1117 0.930 . S
H1130 C1118 0.956 . S
H1131 C1118 0.961 . S
H1132 C1118 0.961 . S
H1133 C1119 0.958 . S
H1134 C1119 0.961 . S
H1135 C1119 0.960 . S
C1136 C1137 1.391 . S
C1136 C1138 1.394 . S
C1136 H1152 0.931 . S
C1137 C1136 1.391 . S
C1137 C1141 1.376 . S
C1138 C1136 1.394 . S
C1138 C1139 1.369 . S
C1138 C1142 1.531 . S
C1139 C1138 1.369 . S
C1139 C1140 1.410 . S
C1139 C1147 1.503 . S
C1140 C1139 1.410 . S
C1140 C1141 1.392 . S
C1140 C1143 1.511 . S
C1141 C1137 1.376 . S
C1141 C1140 1.392 . S
C1141 H1153 0.929 . S
C1142 C1138 1.531 . S
C1142 H1154 0.960 . S
C1142 H1155 0.962 . S
C1142 H1156 0.960 . S
C1143 C1140 1.511 . S
C1143 H1157 0.961 . S
C1143 H1158 0.961 . S
C1143 H1159 0.961 . S
C1144 C1145 1.370 . S
C1144 C1146 1.363 . S
C1144 H1160 0.931 . S
C1145 C1144 1.370 . S
C1145 C1149 1.408 . S
C1146 C1144 1.363 . S
C1146 C1147 1.370 . S
C1146 C1150 1.524 . S
C1147 C1139 1.503 . S
C1147 C1146 1.370 . S
C1147 C1148 1.403 . S
C1148 C1147 1.403 . S
C1148 C1149 1.404 . S
C1148 C1151 1.539 . S
C1149 C1145 1.408 . S
C1149 C1148 1.404 . S
C1149 H1161 0.930 . S
C1150 C1146 1.524 . S
C1150 H1162 0.956 . S
C1150 H1163 0.961 . S
C1150 H1164 0.961 . S
C1151 C1148 1.539 . S
C1151 H1165 0.958 . S
C1151 H1166 0.961 . S
C1151 H1167 0.960 . S
H1152 C1136 0.931 . S
H1153 C1141 0.929 . S
H1154 C1142 0.960 . S
H1155 C1142 0.962 . S
H1156 C1142 0.960 . S
H1157 C1143 0.961 . S
H1158 C1143 0.961 . S
H1159 C1143 0.961 . S
H1160 C1144 0.931 . S
H1161 C1149 0.930 . S
H1162 C1150 0.956 . S
H1163 C1150 0.961 . S
H1164 C1150 0.961 . S
H1165 C1151 0.958 . S
H1166 C1151 0.961 . S
H1167 C1151 0.960 . S
C1168 C1169 1.391 . S
C1168 C1170 1.394 . S
C1168 H1184 0.931 . S
C1169 C1168 1.391 . S
C1169 C1173 1.376 . S
C1170 C1168 1.394 . S
C1170 C1171 1.369 . S
C1170 C1174 1.531 . S
C1171 C1170 1.369 . S
C1171 C1172 1.410 . S
C1171 C1179 1.503 . S
C1172 C1171 1.410 . S
C1172 C1173 1.392 . S
C1172 C1175 1.511 . S
C1173 C1169 1.376 . S
C1173 C1172 1.392 . S
C1173 H1185 0.929 . S
C1174 C1170 1.531 . S
C1174 H1186 0.960 . S
C1174 H1187 0.962 . S
C1174 H1188 0.960 . S
C1175 C1172 1.511 . S
C1175 H1189 0.961 . S
C1175 H1190 0.961 . S
C1175 H1191 0.961 . S
C1176 C1177 1.370 . S
C1176 C1178 1.363 . S
C1176 H1192 0.931 . S
C1177 C1176 1.370 . S
C1177 C1181 1.408 . S
C1178 C1176 1.363 . S
C1178 C1179 1.370 . S
C1178 C1182 1.524 . S
C1179 C1171 1.503 . S
C1179 C1178 1.370 . S
C1179 C1180 1.403 . S
C1180 C1179 1.403 . S
C1180 C1181 1.404 . S
C1180 C1183 1.539 . S
C1181 C1177 1.408 . S
C1181 C1180 1.404 . S
C1181 H1193 0.930 . S
C1182 C1178 1.524 . S
C1182 H1194 0.956 . S
C1182 H1195 0.961 . S
C1182 H1196 0.961 . S
C1183 C1180 1.539 . S
C1183 H1197 0.958 . S
C1183 H1198 0.961 . S
C1183 H1199 0.960 . S
H1184 C1168 0.931 . S
H1185 C1173 0.929 . S
H1186 C1174 0.960 . S
H1187 C1174 0.962 . S
H1188 C1174 0.960 . S
H1189 C1175 0.961 . S
H1190 C1175 0.961 . S
H1191 C1175 0.961 . S
H1192 C1176 0.931 . S
H1193 C1181 0.930 . S
H1194 C1182 0.956 . S
H1195 C1182 0.961 . S
H1196 C1182 0.961 . S
H1197 C1183 0.958 . S
H1198 C1183 0.961 . S
H1199 C1183 0.960 . S
C1200 C1201 1.391 . S
C1200 C1202 1.394 . S
C1200 H1216 0.931 . S
C1201 C1200 1.391 . S
C1201 C1205 1.376 . S
C1202 C1200 1.394 . S
C1202 C1203 1.369 . S
C1202 C1206 1.531 . S
C1203 C1202 1.369 . S
C1203 C1204 1.410 . S
C1203 C1211 1.503 . S
C1204 C1203 1.410 . S
C1204 C1205 1.392 . S
C1204 C1207 1.511 . S
C1205 C1201 1.376 . S
C1205 C1204 1.392 . S
C1205 H1217 0.929 . S
C1206 C1202 1.531 . S
C1206 H1218 0.960 . S
C1206 H1219 0.962 . S
C1206 H1220 0.960 . S
C1207 C1204 1.511 . S
C1207 H1221 0.961 . S
C1207 H1222 0.961 . S
C1207 H1223 0.961 . S
C1208 C1209 1.370 . S
C1208 C1210 1.363 . S
C1208 H1224 0.931 . S
C1209 C1208 1.370 . S
C1209 C1213 1.408 . S
C1210 C1208 1.363 . S
C1210 C1211 1.370 . S
C1210 C1214 1.524 . S
C1211 C1203 1.503 . S
C1211 C1210 1.370 . S
C1211 C1212 1.403 . S
C1212 C1211 1.403 . S
C1212 C1213 1.404 . S
C1212 C1215 1.539 . S
C1213 C1209 1.408 . S
C1213 C1212 1.404 . S
C1213 H1225 0.930 . S
C1214 C1210 1.524 . S
C1214 H1226 0.956 . S
C1214 H1227 0.961 . S
C1214 H1228 0.961 . S
C1215 C1212 1.539 . S
C1215 H1229 0.958 . S
C1215 H1230 0.961 . S
C1215 H1231 0.960 . S
H1216 C1200 0.931 . S
H1217 C1205 0.929 . S
H1218 C1206 0.960 . S
H1219 C1206 0.962 . S
H1220 C1206 0.960 . S
H1221 C1207 0.961 . S
H1222 C1207 0.961 . S
H1223 C1207 0.961 . S
H1224 C1208 0.931 . S
H1225 C1213 0.930 . S
H1226 C1214 0.956 . S
H1227 C1214 0.961 . S
H1228 C1214 0.961 . S
H1229 C1215 0.958 . S
H1230 C1215 0.961 . S
H1231 C1215 0.960 . S
C1232 C1233 1.391 . S
C1232 C1234 1.394 . S
C1232 H1248 0.931 . S
C1233 C1232 1.391 . S
C1233 C1237 1.376 . S
C1234 C1232 1.394 . S
C1234 C1235 1.369 . S
C1234 C1238 1.531 . S
C1235 C1234 1.369 . S
C1235 C1236 1.410 . S
C1235 C1243 1.503 . S
C1236 C1235 1.410 . S
C1236 C1237 1.392 . S
C1236 C1239 1.511 . S
C1237 C1233 1.376 . S
C1237 C1236 1.392 . S
C1237 H1249 0.929 . S
C1238 C1234 1.531 . S
C1238 H1250 0.960 . S
C1238 H1251 0.962 . S
C1238 H1252 0.960 . S
C1239 C1236 1.511 . S
C1239 H1253 0.961 . S
C1239 H1254 0.961 . S
C1239 H1255 0.961 . S
C1240 C1241 1.370 . S
C1240 C1242 1.363 . S
C1240 H1256 0.931 . S
C1241 C1240 1.370 . S
C1241 C1245 1.408 . S
C1242 C1240 1.363 . S
C1242 C1243 1.370 . S
C1242 C1246 1.524 . S
C1243 C1235 1.503 . S
C1243 C1242 1.370 . S
C1243 C1244 1.403 . S
C1244 C1243 1.403 . S
C1244 C1245 1.404 . S
C1244 C1247 1.539 . S
C1245 C1241 1.408 . S
C1245 C1244 1.404 . S
C1245 H1257 0.930 . S
C1246 C1242 1.524 . S
C1246 H1258 0.956 . S
C1246 H1259 0.961 . S
C1246 H1260 0.961 . S
C1247 C1244 1.539 . S
C1247 H1261 0.958 . S
C1247 H1262 0.961 . S
C1247 H1263 0.960 . S
H1248 C1232 0.931 . S
H1249 C1237 0.929 . S
H1250 C1238 0.960 . S
H1251 C1238 0.962 . S
H1252 C1238 0.960 . S
H1253 C1239 0.961 . S
H1254 C1239 0.961 . S
H1255 C1239 0.961 . S
H1256 C1240 0.931 . S
H1257 C1245 0.930 . S
H1258 C1246 0.956 . S
H1259 C1246 0.961 . S
H1260 C1246 0.961 . S
H1261 C1247 0.958 . S
H1262 C1247 0.961 . S
H1263 C1247 0.960 . S
C1264 C1265 1.391 . S
C1264 C1266 1.394 . S
C1264 H1280 0.931 . S
C1265 C1264 1.391 . S
C1265 C1269 1.376 . S
C1266 C1264 1.394 . S
C1266 C1267 1.369 . S
C1266 C1270 1.531 . S
C1267 C1266 1.369 . S
C1267 C1268 1.410 . S
C1267 C1275 1.503 . S
C1268 C1267 1.410 . S
C1268 C1269 1.392 . S
C1268 C1271 1.511 . S
C1269 C1265 1.376 . S
C1269 C1268 1.392 . S
C1269 H1281 0.929 . S
C1270 C1266 1.531 . S
C1270 H1282 0.960 . S
C1270 H1283 0.962 . S
C1270 H1284 0.960 . S
C1271 C1268 1.511 . S
C1271 H1285 0.961 . S
C1271 H1286 0.961 . S
C1271 H1287 0.961 . S
C1272 C1273 1.370 . S
C1272 C1274 1.363 . S
C1272 H1288 0.931 . S
C1273 C1272 1.370 . S
C1273 C1277 1.408 . S
C1274 C1272 1.363 . S
C1274 C1275 1.370 . S
C1274 C1278 1.524 . S
C1275 C1267 1.503 . S
C1275 C1274 1.370 . S
C1275 C1276 1.403 . S
C1276 C1275 1.403 . S
C1276 C1277 1.404 . S
C1276 C1279 1.539 . S
C1277 C1273 1.408 . S
C1277 C1276 1.404 . S
C1277 H1289 0.930 . S
C1278 C1274 1.524 . S
C1278 H1290 0.956 . S
C1278 H1291 0.961 . S
C1278 H1292 0.961 . S
C1279 C1276 1.539 . S
C1279 H1293 0.958 . S
C1279 H1294 0.961 . S
C1279 H1295 0.960 . S
H1280 C1264 0.931 . S
H1281 C1269 0.929 . S
H1282 C1270 0.960 . S
H1283 C1270 0.962 . S
H1284 C1270 0.960 . S
H1285 C1271 0.961 . S
H1286 C1271 0.961 . S
H1287 C1271 0.961 . S
H1288 C1272 0.931 . S
H1289 C1277 0.930 . S
H1290 C1278 0.956 . S
H1291 C1278 0.961 . S
H1292 C1278 0.961 . S
H1293 C1279 0.958 . S
H1294 C1279 0.961 . S
H1295 C1279 0.960 . S
C1296 C1297 1.391 . S
C1296 C1298 1.394 . S
C1296 H1312 0.931 . S
C1297 C1296 1.391 . S
C1297 C1301 1.376 . S
C1298 C1296 1.394 . S
C1298 C1299 1.369 . S
C1298 C1302 1.531 . S
C1299 C1298 1.369 . S
C1299 C1300 1.410 . S
C1299 C1307 1.503 . S
C1300 C1299 1.410 . S
C1300 C1301 1.392 . S
C1300 C1303 1.511 . S
C1301 C1297 1.376 . S
C1301 C1300 1.392 . S
C1301 H1313 0.929 . S
C1302 C1298 1.531 . S
C1302 H1314 0.960 . S
C1302 H1315 0.962 . S
C1302 H1316 0.960 . S
C1303 C1300 1.511 . S
C1303 H1317 0.961 . S
C1303 H1318 0.961 . S
C1303 H1319 0.961 . S
C1304 C1305 1.370 . S
C1304 C1306 1.363 . S
C1304 H1320 0.931 . S
C1305 C1304 1.370 . S
C1305 C1309 1.408 . S
C1306 C1304 1.363 . S
C1306 C1307 1.370 . S
C1306 C1310 1.524 . S
C1307 C1299 1.503 . S
C1307 C1306 1.370 . S
C1307 C1308 1.403 . S
C1308 C1307 1.403 . S
C1308 C1309 1.404 . S
C1308 C1311 1.539 . S
C1309 C1305 1.408 . S
C1309 C1308 1.404 . S
C1309 H1321 0.930 . S
C1310 C1306 1.524 . S
C1310 H1322 0.956 . S
C1310 H1323 0.961 . S
C1310 H1324 0.961 . S
C1311 C1308 1.539 . S
C1311 H1325 0.958 . S
C1311 H1326 0.961 . S
C1311 H1327 0.960 . S
H1312 C1296 0.931 . S
H1313 C1301 0.929 . S
H1314 C1302 0.960 . S
H1315 C1302 0.962 . S
H1316 C1302 0.960 . S
H1317 C1303 0.961 . S
H1318 C1303 0.961 . S
H1319 C1303 0.961 . S
H1320 C1304 0.931 . S
H1321 C1309 0.930 . S
H1322 C1310 0.956 . S
H1323 C1310 0.961 . S
H1324 C1310 0.961 . S
H1325 C1311 0.958 . S
H1326 C1311 0.961 . S
H1327 C1311 0.960 . S
C1328 C1329 1.391 . S
C1328 C1330 1.394 . S
C1328 H1344 0.931 . S
C1329 C1328 1.391 . S
C1329 C1333 1.376 . S
C1330 C1328 1.394 . S
C1330 C1331 1.369 . S
C1330 C1334 1.531 . S
C1331 C1330 1.369 . S
C1331 C1332 1.410 . S
C1331 C1339 1.503 . S
C1332 C1331 1.410 . S
C1332 C1333 1.392 . S
C1332 C1335 1.511 . S
C1333 C1329 1.376 . S
C1333 C1332 1.392 . S
C1333 H1345 0.929 . S
C1334 C1330 1.531 . S
C1334 H1346 0.960 . S
C1334 H1347 0.962 . S
C1334 H1348 0.960 . S
C1335 C1332 1.511 . S
C1335 H1349 0.961 . S
C1335 H1350 0.961 . S
C1335 H1351 0.961 . S
C1336 C1337 1.370 . S
C1336 C1338 1.363 . S
C1336 H1352 0.931 . S
C1337 C1336 1.370 . S
C1337 C1341 1.408 . S
C1338 C1336 1.363 . S
C1338 C1339 1.370 . S
C1338 C1342 1.524 . S
C1339 C1331 1.503 . S
C1339 C1338 1.370 . S
C1339 C1340 1.403 . S
C1340 C1339 1.403 . S
C1340 C1341 1.404 . S
C1340 C1343 1.539 . S
C1341 C1337 1.408 . S
C1341 C1340 1.404 . S
C1341 H1353 0.930 . S
C1342 C1338 1.524 . S
C1342 H1354 0.956 . S
C1342 H1355 0.961 . S
C1342 H1356 0.961 . S
C1343 C1340 1.539 . S
C1343 H1357 0.958 . S
C1343 H1358 0.961 . S
C1343 H1359 0.960 . S
H1344 C1328 0.931 . S
H1345 C1333 0.929 . S
H1346 C1334 0.960 . S
H1347 C1334 0.962 . S
H1348 C1334 0.960 . S
H1349 C1335 0.961 . S
H1350 C1335 0.961 . S
H1351 C1335 0.961 . S
H1352 C1336 0.931 . S
H1353 C1341 0.930 . S
H1354 C1342 0.956 . S
H1355 C1342 0.961 . S
H1356 C1342 0.961 . S
H1357 C1343 0.958 . S
H1358 C1343 0.961 . S
H1359 C1343 0.960 . S
C1360 C1361 1.391 . S
C1360 C1362 1.394 . S
C1360 H1376 0.931 . S
C1361 C1360 1.391 . S
C1361 C1365 1.376 . S
C1362 C1360 1.394 . S
C1362 C1363 1.369 . S
C1362 C1366 1.531 . S
C1363 C1362 1.369 . S
C1363 C1364 1.410 . S
C1363 C1371 1.503 . S
C1364 C1363 1.410 . S
C1364 C1365 1.392 . S
C1364 C1367 1.511 . S
C1365 C1361 1.376 . S
C1365 C1364 1.392 . S
C1365 H1377 0.929 . S
C1366 C1362 1.531 . S
C1366 H1378 0.960 . S
C1366 H1379 0.962 . S
C1366 H1380 0.960 . S
C1367 C1364 1.511 . S
C1367 H1381 0.961 . S
C1367 H1382 0.961 . S
C1367 H1383 0.961 . S
C1368 C1369 1.370 . S
C1368 C1370 1.363 . S
C1368 H1384 0.931 . S
C1369 C1368 1.370 . S
C1369 C1373 1.408 . S
C1370 C1368 1.363 . S
C1370 C1371 1.370 . S
C1370 C1374 1.524 . S
C1371 C1363 1.503 . S
C1371 C1370 1.370 . S
C1371 C1372 1.403 . S
C1372 C1371 1.403 . S
C1372 C1373 1.404 . S
C1372 C1375 1.539 . S
C1373 C1369 1.408 . S
C1373 C1372 1.404 . S
C1373 H1385 0.930 . S
C1374 C1370 1.524 . S
C1374 H1386 0.956 . S
C1374 H1387 0.961 . S
C1374 H1388 0.961 . S
C1375 C1372 1.539 . S
C1375 H1389 0.958 . S
C1375 H1390 0.961 . S
C1375 H1391 0.960 . S
H1376 C1360 0.931 . S
H1377 C1365 0.929 . S
H1378 C1366 0.960 . S
H1379 C1366 0.962 . S
H1380 C1366 0.960 . S
H1381 C1367 0.961 . S
H1382 C1367 0.961 . S
H1383 C1367 0.961 . S
H1384 C1368 0.931 . S
H1385 C1373 0.930 . S
H1386 C1374 0.956 . S
H1387 C1374 0.961 . S
H1388 C1374 0.961 . S
H1389 C1375 0.958 . S
H1390 C1375 0.961 . S
H1391 C1375 0.960 . S
C1392 C1393 1.391 . S
C1392 C1394 1.394 . S
C1392 H1408 0.931 . S
C1393 C1392 1.391 . S
C1393 C1397 1.376 . S
C1394 C1392 1.394 . S
C1394 C1395 1.369 . S
C1394 C1398 1.531 . S
C1395 C1394 1.369 . S
C1395 C1396 1.410 . S
C1395 C1403 1.503 . S
C1396 C1395 1.410 . S
C1396 C1397 1.392 . S
C1396 C1399 1.511 . S
C1397 C1393 1.376 . S
C1397 C1396 1.392 . S
C1397 H1409 0.929 . S
C1398 C1394 1.531 . S
C1398 H1410 0.960 . S
C1398 H1411 0.962 . S
C1398 H1412 0.960 . S
C1399 C1396 1.511 . S
C1399 H1413 0.961 . S
C1399 H1414 0.961 . S
C1399 H1415 0.961 . S
C1400 C1401 1.370 . S
C1400 C1402 1.363 . S
C1400 H1416 0.931 . S
C1401 C1400 1.370 . S
C1401 C1405 1.408 . S
C1402 C1400 1.363 . S
C1402 C1403 1.370 . S
C1402 C1406 1.524 . S
C1403 C1395 1.503 . S
C1403 C1402 1.370 . S
C1403 C1404 1.403 . S
C1404 C1403 1.403 . S
C1404 C1405 1.404 . S
C1404 C1407 1.539 . S
C1405 C1401 1.408 . S
C1405 C1404 1.404 . S
C1405 H1417 0.930 . S
C1406 C1402 1.524 . S
C1406 H1418 0.956 . S
C1406 H1419 0.961 . S
C1406 H1420 0.961 . S
C1407 C1404 1.539 . S
C1407 H1421 0.958 . S
C1407 H1422 0.961 . S
C1407 H1423 0.960 . S
H1408 C1392 0.931 . S
H1409 C1397 0.929 . S
H1410 C1398 0.960 . S
H1411 C1398 0.962 . S
H1412 C1398 0.960 . S
H1413 C1399 0.961 . S
H1414 C1399 0.961 . S
H1415 C1399 0.961 . S
H1416 C1400 0.931 . S
H1417 C1405 0.930 . S
H1418 C1406 0.956 . S
H1419 C1406 0.961 . S
H1420 C1406 0.961 . S
H1421 C1407 0.958 . S
H1422 C1407 0.961 . S
H1423 C1407 0.960 . S
C1424 C1425 1.391 . S
C1424 C1426 1.394 . S
C1424 H1440 0.931 . S
C1425 C1424 1.391 . S
C1425 C1429 1.376 . S
C1426 C1424 1.394 . S
C1426 C1427 1.369 . S
C1426 C1430 1.531 . S
C1427 C1426 1.369 . S
C1427 C1428 1.410 . S
C1427 C1435 1.503 . S
C1428 C1427 1.410 . S
C1428 C1429 1.392 . S
C1428 C1431 1.511 . S
C1429 C1425 1.376 . S
C1429 C1428 1.392 . S
C1429 H1441 0.929 . S
C1430 C1426 1.531 . S
C1430 H1442 0.960 . S
C1430 H1443 0.962 . S
C1430 H1444 0.960 . S
C1431 C1428 1.511 . S
C1431 H1445 0.961 . S
C1431 H1446 0.961 . S
C1431 H1447 0.961 . S
C1432 C1433 1.370 . S
C1432 C1434 1.363 . S
C1432 H1448 0.931 . S
C1433 C1432 1.370 . S
C1433 C1437 1.408 . S
C1434 C1432 1.363 . S
C1434 C1435 1.370 . S
C1434 C1438 1.524 . S
C1435 C1427 1.503 . S
C1435 C1434 1.370 . S
C1435 C1436 1.403 . S
C1436 C1435 1.403 . S
C1436 C1437 1.404 . S
C1436 C1439 1.539 . S
C1437 C1433 1.408 . S
C1437 C1436 1.404 . S
C1437 H1449 0.930 . S
C1438 C1434 1.524 . S
C1438 H1450 0.956 . S
C1438 H1451 0.961 . S
C1438 H1452 0.961 . S
C1439 C1436 1.539 . S
C1439 H1453 0.958 . S
C1439 H1454 0.961 . S
C1439 H1455 0.960 . S
H1440 C1424 0.931 . S
H1441 C1429 0.929 . S
H1442 C1430 0.960 . S
H1443 C1430 0.962 . S
H1444 C1430 0.960 . S
H1445 C1431 0.961 . S
H1446 C1431 0.961 . S
H1447 C1431 0.961 . S
H1448 C1432 0.931 . S
H1449 C1437 0.930 . S
H1450 C1438 0.956 . S
H1451 C1438 0.961 . S
H1452 C1438 0.961 . S
H1453 C1439 0.958 . S
H1454 C1439 0.961 . S
H1455 C1439 0.960 . S
C1456 C1457 1.391 . S
C1456 C1458 1.394 . S
C1456 H1472 0.931 . S
C1457 C1456 1.391 . S
C1457 C1461 1.376 . S
C1458 C1456 1.394 . S
C1458 C1459 1.369 . S
C1458 C1462 1.531 . S
C1459 C1458 1.369 . S
C1459 C1460 1.410 . S
C1459 C1467 1.503 . S
C1460 C1459 1.410 . S
C1460 C1461 1.392 . S
C1460 C1463 1.511 . S
C1461 C1457 1.376 . S
C1461 C1460 1.392 . S
C1461 H1473 0.929 . S
C1462 C1458 1.531 . S
C1462 H1474 0.960 . S
C1462 H1475 0.962 . S
C1462 H1476 0.960 . S
C1463 C1460 1.511 . S
C1463 H1477 0.961 . S
C1463 H1478 0.961 . S
C1463 H1479 0.961 . S
C1464 C1465 1.370 . S
C1464 C1466 1.363 . S
C1464 H1480 0.931 . S
C1465 C1464 1.370 . S
C1465 C1469 1.408 . S
C1466 C1464 1.363 . S
C1466 C1467 1.370 . S
C1466 C1470 1.524 . S
C1467 C1459 1.503 . S
C1467 C1466 1.370 . S
C1467 C1468 1.403 . S
C1468 C1467 1.403 . S
C1468 C1469 1.404 . S
C1468 C1471 1.539 . S
C1469 C1465 1.408 . S
C1469 C1468 1.404 . S
C1469 H1481 0.930 . S
C1470 C1466 1.524 . S
C1470 H1482 0.956 . S
C1470 H1483 0.961 . S
C1470 H1484 0.961 . S
C1471 C1468 1.539 . S
C1471 H1485 0.958 . S
C1471 H1486 0.961 . S
C1471 H1487 0.960 . S
H1472 C1456 0.931 . S
H1473 C1461 0.929 . S
H1474 C1462 0.960 . S
H1475 C1462 0.962 . S
H1476 C1462 0.960 . S
H1477 C1463 0.961 . S
H1478 C1463 0.961 . S
H1479 C1463 0.961 . S
H1480 C1464 0.931 . S
H1481 C1469 0.930 . S
H1482 C1470 0.956 . S
H1483 C1470 0.961 . S
H1484 C1470 0.961 . S
H1485 C1471 0.958 . S
H1486 C1471 0.961 . S
H1487 C1471 0.960 . S
C1488 C1489 1.391 . S
C1488 C1490 1.394 . S
C1488 H1504 0.931 . S
C1489 C1488 1.391 . S
C1489 C1493 1.376 . S
C1490 C1488 1.394 . S
C1490 C1491 1.369 . S
C1490 C1494 1.531 . S
C1491 C1490 1.369 . S
C1491 C1492 1.410 . S
C1491 C1499 1.503 1_455 S
C1492 C1491 1.410 . S
C1492 C1493 1.392 . S
C1492 C1495 1.511 . S
C1493 C1489 1.376 . S
C1493 C1492 1.392 . S
C1493 H1505 0.929 . S
C1494 C1490 1.531 . S
C1494 H1506 0.960 1_455 S
C1494 H1507 0.962 . S
C1494 H1508 0.960 . S
C1495 C1492 1.511 . S
C1495 H1509 0.961 . S
C1495 H1510 0.964 . S
C1495 H1511 0.961 . S
C1496 C1497 1.370 . S
C1496 C1498 1.363 . S
C1496 H1512 0.931 . S
C1497 C1496 1.370 . S
C1497 C1501 1.408 . S
C1498 C1496 1.363 . S
C1498 C1499 1.370 . S
C1498 C1502 1.530 . S
C1499 C1491 1.503 1_655 S
C1499 C1498 1.370 . S
C1499 C1500 1.403 . S
C1500 C1499 1.403 . S
C1500 C1501 1.404 . S
C1500 C1503 1.539 . S
C1501 C1497 1.408 . S
C1501 C1500 1.404 . S
C1501 H1513 0.930 . S
C1502 C1498 1.530 . S
C1502 H1514 0.948 1_655 S
C1502 H1515 0.959 1_655 S
C1502 H1516 0.965 . S
C1503 C1500 1.539 . S
C1503 H1517 0.958 . S
C1503 H1518 0.961 . S
C1503 H1519 0.960 . S
H1504 C1488 0.931 . S
H1505 C1493 0.929 . S
H1506 C1494 0.960 1_655 S
H1507 C1494 0.962 . S
H1508 C1494 0.960 . S
H1509 C1495 0.961 . S
H1510 C1495 0.964 . S
H1511 C1495 0.961 . S
H1512 C1496 0.931 . S
H1513 C1501 0.930 . S
H1514 C1502 0.948 1_455 S
H1515 C1502 0.959 1_455 S
H1516 C1502 0.965 . S
H1517 C1503 0.958 . S
H1518 C1503 0.961 . S
H1519 C1503 0.960 . S
C1520 C1521 1.391 . S
C1520 C1522 1.394 . S
C1520 H1536 0.931 . S
C1521 C1520 1.391 . S
C1521 C1525 1.376 . S
C1522 C1520 1.394 . S
C1522 C1523 1.369 . S
C1522 C1526 1.531 . S
C1523 C1522 1.369 . S
C1523 C1524 1.410 . S
C1523 C1531 1.503 . S
C1524 C1523 1.410 . S
C1524 C1525 1.392 . S
C1524 C1527 1.511 . S
C1525 C1521 1.376 . S
C1525 C1524 1.392 . S
C1525 H1537 0.929 . S
C1526 C1522 1.531 . S
C1526 H1538 0.960 . S
C1526 H1539 0.962 . S
C1526 H1540 0.960 . S
C1527 C1524 1.511 . S
C1527 H1541 0.961 . S
C1527 H1542 0.961 . S
C1527 H1543 0.961 . S
C1528 C1529 1.370 . S
C1528 C1530 1.363 . S
C1528 H1544 0.931 . S
C1529 C1528 1.370 . S
C1529 C1533 1.408 . S
C1530 C1528 1.363 . S
C1530 C1531 1.370 . S
C1530 C1534 1.524 . S
C1531 C1523 1.503 . S
C1531 C1530 1.370 . S
C1531 C1532 1.403 . S
C1532 C1531 1.403 . S
C1532 C1533 1.404 . S
C1532 C1535 1.539 . S
C1533 C1529 1.408 . S
C1533 C1532 1.404 . S
C1533 H1545 0.930 . S
C1534 C1530 1.524 . S
C1534 H1546 0.956 . S
C1534 H1547 0.961 . S
C1534 H1548 0.961 . S
C1535 C1532 1.539 . S
C1535 H1549 0.958 . S
C1535 H1550 0.961 . S
C1535 H1551 0.960 . S
H1536 C1520 0.931 . S
H1537 C1525 0.929 . S
H1538 C1526 0.960 . S
H1539 C1526 0.962 . S
H1540 C1526 0.960 . S
H1541 C1527 0.961 . S
H1542 C1527 0.961 . S
H1543 C1527 0.961 . S
H1544 C1528 0.931 . S
H1545 C1533 0.930 . S
H1546 C1534 0.956 . S
H1547 C1534 0.961 . S
H1548 C1534 0.961 . S
H1549 C1535 0.958 . S
H1550 C1535 0.961 . S
H1551 C1535 0.960 . S
C1552 C1553 1.391 . S
C1552 C1554 1.394 . S
C1552 H1568 0.931 . S
C1553 C1552 1.391 . S
C1553 C1557 1.376 . S
C1554 C1552 1.394 . S
C1554 C1555 1.369 . S
C1554 C1558 1.531 . S
C1555 C1554 1.369 . S
C1555 C1556 1.410 . S
C1555 C1563 1.503 1_545 S
C1556 C1555 1.410 . S
C1556 C1557 1.392 . S
C1556 C1559 1.511 . S
C1557 C1553 1.376 . S
C1557 C1556 1.392 . S
C1557 H1569 0.929 . S
C1558 C1554 1.531 . S
C1558 H1570 0.960 . S
C1558 H1571 0.962 . S
C1558 H1572 0.960 . S
C1559 C1556 1.511 . S
C1559 H1573 0.961 . S
C1559 H1574 0.961 1_545 S
C1559 H1575 0.961 . S
C1560 C1561 1.370 . S
C1560 C1562 1.363 . S
C1560 H1576 0.931 . S
C1561 C1560 1.370 . S
C1561 C1565 1.408 . S
C1562 C1560 1.363 . S
C1562 C1563 1.370 . S
C1562 C1566 1.524 . S
C1563 C1555 1.503 1_565 S
C1563 C1562 1.370 . S
C1563 C1564 1.403 . S
C1564 C1563 1.403 . S
C1564 C1565 1.404 . S
C1564 C1567 1.483 1_565 S
C1565 C1561 1.408 . S
C1565 C1564 1.404 . S
C1565 H1577 0.930 . S
C1566 C1562 1.524 . S
C1566 H1578 0.956 . S
C1566 H1579 0.961 . S
C1566 H1580 0.961 . S
C1567 C1564 1.483 1_545 S
C1567 H1581 0.964 . S
C1567 H1582 0.963 1_545 S
C1567 H1583 1.014 . S
H1568 C1552 0.931 . S
H1569 C1557 0.929 . S
H1570 C1558 0.960 . S
H1571 C1558 0.962 . S
H1572 C1558 0.960 . S
H1573 C1559 0.961 . S
H1574 C1559 0.961 1_565 S
H1575 C1559 0.961 . S
H1576 C1560 0.931 . S
H1577 C1565 0.930 . S
H1578 C1566 0.956 . S
H1579 C1566 0.961 . S
H1580 C1566 0.961 . S
H1581 C1567 0.964 . S
H1582 C1567 0.963 1_565 S
H1583 C1567 1.014 . S
C721 C21 1.519 . S
C729 C221 1.508 . S
C753 C61 1.483 . S
C761 C122 1.478 . S
C785 C82 1.460 . S
C793 C181 1.464 . S
C817 C42 1.476 . S
C825 C162 1.492 . S
C849 C202 1.527 . S
C857 C101 1.519 1_556 S
C881 C2 1.521 . S
C889 C141 1.507 1_554 S
C913 C461 1.494 . S
C921 C261 1.515 . S
C945 C301 1.482 . S
C953 C362 1.477 . S
C977 C322 1.487 . S
C985 C421 1.477 . S
C1009 C282 1.473 . S
C1017 C402 1.493 . S
C1041 C341 1.522 . S
C1049 C442 1.517 . S
C1073 C242 1.524 . S
C1081 C381 1.519 . S
C1105 C501 1.522 . S
C1113 C701 1.508 . S
C1137 C602 1.476 . S
C1145 C541 1.471 . S
C1169 C661 1.457 . S
C1177 C562 1.472 . S
C1201 C642 1.481 . S
C1209 C522 1.491 . S
C1233 C682 1.509 . S
C1241 C581 1.517 . S
C1265 C621 1.504 . S
C1273 C482 1.512 . S
C1297 C15 1.507 . S
C1305 C415 1.515 . S
C1329 C455 1.510 . S
C1337 C55 1.508 . S
C1361 C375 1.511 . S
C1369 C95 1.512 . S
C1393 C135 1.515 . S
C1401 C575 1.510 . S
C1425 C175 1.513 . S
C1433 C495 1.513 . S
C1457 C535 1.501 . S
C1465 C215 1.512 . S
C1489 C655 1.502 . S
C1497 C255 1.516 . S
C1521 C295 1.509 . S
C1529 C695 1.511 . S
C1553 C335 1.503 . S
C1561 C615 1.514 . S
