# Generated by pormake.
# Topology und, (4)-cn, num edge types: 1
# Building blocks:
#     Node 0, Type 0, BuildingBlock: UXUYUI_clean_sbu_0, # of connection points: 4
#     Node 1, Type 0, BuildingBlock: UXUYUI_clean_sbu_0, # of connection points: 4
#     Node 2, Type 0, BuildingBlock: UXUYUI_clean_sbu_0, # of connection points: 4
#     Node 3, Type 0, BuildingBlock: UXUYUI_clean_sbu_0, # of connection points: 4
#     Node 4, Type 0, BuildingBlock: UXUYUI_clean_sbu_0, # of connection points: 4
#     Node 5, Type 0, BuildingBlock: UXUYUI_clean_sbu_0, # of connection points: 4
#     Node 6, Type 0, BuildingBlock: UXUYUI_clean_sbu_0, # of connection points: 4
#     Node 7, Type 0, BuildingBlock: UXUYUI_clean_sbu_0, # of connection points: 4
#     Node 8, Type 0, BuildingBlock: UXUYUI_clean_sbu_0, # of connection points: 4
#     Node 9, Type 0, BuildingBlock: UXUYUI_clean_sbu_0, # of connection points: 4
#     Node 10, Type 0, BuildingBlock: UXUYUI_clean_sbu_0, # of connection points: 4
#     Node 11, Type 0, BuildingBlock: UXUYUI_clean_sbu_0, # of connection points: 4
#     Node 12, Type 0, BuildingBlock: UXUYUI_clean_sbu_0, # of connection points: 4
#     Node 13, Type 0, BuildingBlock: UXUYUI_clean_sbu_0, # of connection points: 4
#     Node 14, Type 0, BuildingBlock: UXUYUI_clean_sbu_0, # of connection points: 4
#     Node 15, Type 0, BuildingBlock: UXUYUI_clean_sbu_0, # of connection points: 4
#     Edge 16, Type (0, 0), BuildingBlock: XIVTED_clean_linker_0, # of connection points: 2
#     Edge 17, Type (0, 0), BuildingBlock: XIVTED_clean_linker_0, # of connection points: 2
#     Edge 18, Type (0, 0), BuildingBlock: XIVTED_clean_linker_0, # of connection points: 2
#     Edge 19, Type (0, 0), BuildingBlock: XIVTED_clean_linker_0, # of connection points: 2
#     Edge 20, Type (0, 0), BuildingBlock: XIVTED_clean_linker_0, # of connection points: 2
#     Edge 21, Type (0, 0), BuildingBlock: XIVTED_clean_linker_0, # of connection points: 2
#     Edge 22, Type (0, 0), BuildingBlock: XIVTED_clean_linker_0, # of connection points: 2
#     Edge 23, Type (0, 0), BuildingBlock: XIVTED_clean_linker_0, # of connection points: 2
#     Edge 24, Type (0, 0), BuildingBlock: XIVTED_clean_linker_0, # of connection points: 2
#     Edge 25, Type (0, 0), BuildingBlock: XIVTED_clean_linker_0, # of connection points: 2
#     Edge 26, Type (0, 0), BuildingBlock: XIVTED_clean_linker_0, # of connection points: 2
#     Edge 27, Type (0, 0), BuildingBlock: XIVTED_clean_linker_0, # of connection points: 2
#     Edge 28, Type (0, 0), BuildingBlock: XIVTED_clean_linker_0, # of connection points: 2
#     Edge 29, Type (0, 0), BuildingBlock: XIVTED_clean_linker_0, # of connection points: 2
#     Edge 30, Type (0, 0), BuildingBlock: XIVTED_clean_linker_0, # of connection points: 2
#     Edge 31, Type (0, 0), BuildingBlock: XIVTED_clean_linker_0, # of connection points: 2
#     Edge 32, Type (0, 0), BuildingBlock: XIVTED_clean_linker_0, # of connection points: 2
#     Edge 33, Type (0, 0), BuildingBlock: XIVTED_clean_linker_0, # of connection points: 2
#     Edge 34, Type (0, 0), BuildingBlock: XIVTED_clean_linker_0, # of connection points: 2
#     Edge 35, Type (0, 0), BuildingBlock: XIVTED_clean_linker_0, # of connection points: 2
#     Edge 36, Type (0, 0), BuildingBlock: XIVTED_clean_linker_0, # of connection points: 2
#     Edge 37, Type (0, 0), BuildingBlock: XIVTED_clean_linker_0, # of connection points: 2
#     Edge 38, Type (0, 0), BuildingBlock: XIVTED_clean_linker_0, # of connection points: 2
#     Edge 39, Type (0, 0), BuildingBlock: XIVTED_clean_linker_0, # of connection points: 2
#     Edge 40, Type (0, 0), BuildingBlock: XIVTED_clean_linker_0, # of connection points: 2
#     Edge 41, Type (0, 0), BuildingBlock: XIVTED_clean_linker_0, # of connection points: 2
#     Edge 42, Type (0, 0), BuildingBlock: XIVTED_clean_linker_0, # of connection points: 2
#     Edge 43, Type (0, 0), BuildingBlock: XIVTED_clean_linker_0, # of connection points: 2
#     Edge 44, Type (0, 0), BuildingBlock: XIVTED_clean_linker_0, # of connection points: 2
#     Edge 45, Type (0, 0), BuildingBlock: XIVTED_clean_linker_0, # of connection points: 2
#     Edge 46, Type (0, 0), BuildingBlock: XIVTED_clean_linker_0, # of connection points: 2
#     Edge 47, Type (0, 0), BuildingBlock: XIVTED_clean_linker_0, # of connection points: 2
# Relax obj value: 0.184
# Max RMSD: 0.213
# Mean RMSD: 0.213
data_MOF--net-und--node1-UXUYUI_clean_sbu_0--edge1-XIVTED_clean_linker_0
_symmetry_space_group_name_H-M    P1
_symmetry_Int_Tables_number       1
_symmetry_cell_setting            triclinic
loop_
_symmetry_equiv_pos_as_xyz
'x, y, z'
_cell_length_a     87.035799
_cell_length_b     87.031193
_cell_length_c     32.973512
_cell_angle_alpha  90.00211
_cell_angle_beta   89.975673
_cell_angle_gamma 89.979401
loop_
_atom_site_label
_atom_site_type_symbol
_atom_site_fract_x
_atom_site_fract_y
_atom_site_fract_z
_atom_type_partial_charge
Li0 Li 0.2259 0.33844 0.00504 0.0
Li1 Li 0.25465 0.34107 0.98876 0.0
Li2 Li 0.2399 0.31943 0.9659 0.0
Li3 Li 0.2451 0.3218 0.0357 0.0
C4 C 0.23286 0.34074 0.91158 0.0
N5 N 0.22581 0.33853 0.83009 0.0
C6 C 0.24453 0.34132 0.8825 0.0
C7 C 0.21758 0.33937 0.89917 0.0
C8 C 0.24075 0.34009 0.84146 0.0
C9 C 0.21425 0.33819 0.85784 0.0
C10 C 0.24785 0.34613 0.08019 0.0
C11 C 0.26763 0.34735 0.13119 0.0
N12 N 0.25663 0.34776 0.1605 0.0
C13 C 0.23673 0.34664 0.11073 0.0
C14 C 0.26342 0.34654 0.09037 0.0
C15 C 0.24141 0.34743 0.1512 0.0
C16 C 0.19789 0.34315 0.04425 0.0
N17 N 0.20771 0.34927 0.01661 0.0
C18 C 0.19293 0.37233 0.01335 0.0
C19 C 0.20542 0.36347 0.00066 0.0
C20 C 0.18273 0.36646 0.04267 0.0
C21 C 0.18518 0.35151 0.05744 0.0
H22 H 0.20019 0.33191 0.05689 0.0
H23 H 0.21361 0.3681 0.97923 0.0
C24 C 0.28093 0.34884 0.94662 0.0
N25 N 0.27053 0.35449 0.97343 0.0
C26 C 0.29206 0.35844 0.9299 0.0
C27 C 0.28195 0.37938 0.97013 0.0
C28 C 0.27091 0.36936 0.98585 0.0
C29 C 0.29256 0.37401 0.94115 0.0
H30 H 0.2802 0.33697 0.9371 0.0
H31 H 0.26241 0.3735 0.00719 0.0
C32 C 0.21338 0.30641 0.00458 0.0
N33 N 0.18886 0.28684 0.99168 0.0
C34 C 0.21368 0.29145 0.02007 0.0
C35 C 0.20049 0.31148 0.98312 0.0
C36 C 0.2012 0.28171 0.01303 0.0
C37 C 0.18824 0.3014 0.97678 0.0
C38 C 0.26733 0.30531 0.99367 0.0
C39 C 0.2585 0.29202 -0.0018 0.0
C40 C 0.2833 0.30414 0.99057 0.0
C41 C 0.2658 0.27774 -0.00033 0.0
C42 C 0.29018 0.28964 0.99218 0.0
N43 N 0.28136 0.27686 -0.00333 0.0
C44 C 0.2535 0.30552 0.90039 0.0
C45 C 0.22852 0.29554 0.91148 0.0
C46 C 0.25608 0.295 0.86935 0.0
N47 N 0.23999 0.3055 0.92111 0.0
C48 C 0.23064 0.28474 0.88065 0.0
C49 C 0.24465 0.28429 0.85952 0.0
H50 H 0.26246 0.31352 0.90872 0.0
H51 H 0.21785 0.2957 0.92796 0.0
C52 C 0.23573 0.30751 0.10596 0.0
N53 N 0.24858 0.31086 0.08438 0.0
C54 C 0.23661 0.29819 0.14016 0.0
C55 C 0.26408 0.29627 0.12999 0.0
C56 C 0.26267 0.30578 0.09608 0.0
C57 C 0.25088 0.29219 0.15207 0.0
H58 H 0.2247 0.31178 0.09587 0.0
H59 H 0.27273 0.3088 0.07859 0.0
O60 O 0.23637 0.34164 0.95195 0.0
O61 O 0.24353 0.34487 0.04051 0.0
O62 O 0.22542 0.31616 0.0117 0.0
O63 O 0.26047 0.31945 0.99216 0.0
H64 H 0.25641 0.34253 0.89152 0.0
H65 H 0.20838 0.33931 0.92116 0.0
H66 H 0.24968 0.34035 0.81867 0.0
H67 H 0.20247 0.33703 0.84783 0.0
H68 H 0.27964 0.34759 0.13958 0.0
H69 H 0.22463 0.34625 0.10326 0.0
H70 H 0.27215 0.34607 0.06698 0.0
H71 H 0.23294 0.34774 0.17521 0.0
H72 H 0.1917 0.38387 0.0016 0.0
H73 H 0.17753 0.34641 0.07957 0.0
H74 H 0.29978 0.35381 0.90723 0.0
H75 H 0.28205 0.39122 0.98018 0.0
H76 H 0.22339 0.28741 0.03753 0.0
H77 H 0.19993 0.32305 0.97149 0.0
H78 H 0.20132 0.2701 0.02468 0.0
H79 H 0.17823 0.30516 0.96005 0.0
H80 H 0.24616 0.29273 0.00036 0.0
H81 H 0.2903 0.31433 0.98703 0.0
H82 H 0.25909 0.26736 0.00315 0.0
H83 H 0.30253 0.28856 0.98987 0.0
H84 H 0.26711 0.29495 0.85414 0.0
H85 H 0.22146 0.27678 0.87358 0.0
H86 H 0.22615 0.2952 0.15609 0.0
H87 H 0.27531 0.29198 0.13854 0.0
Li88 Li 0.92466 0.98883 0.21358 0.0
Li89 Li 0.92124 -0.00138 0.28204 0.0
Li90 Li 0.90256 0.98137 0.25207 0.0
Li91 Li 0.90499 0.00777 0.22864 0.0
C92 C 0.9363 0.96743 0.25885 0.0
N93 N 0.96137 0.94877 0.24406 0.0
C94 C 0.95035 0.97042 0.2778 0.0
C95 C 0.93499 0.95493 0.23248 0.0
C96 C 0.96289 0.96085 0.26992 0.0
C97 C 0.94781 0.94564 0.22535 0.0
C98 C 0.92981 0.02408 0.21684 0.0
C99 C 0.92834 0.05173 0.22038 0.0
N100 N 0.93309 0.05263 0.18116 0.0
C101 C 0.93472 0.02528 0.17658 0.0
C102 C 0.92664 0.03741 0.23899 0.0
C103 C 0.9363 0.03982 0.15909 0.0
C104 C 0.93609 0.97891 0.1372 0.0
N105 N 0.93986 0.98398 0.17485 0.0
C106 C 0.96593 0.98778 0.15506 0.0
C107 C 0.95445 0.98812 0.18445 0.0
C108 C 0.96228 0.98333 0.11529 0.0
C109 C 0.94724 0.9784 0.10673 0.0
H110 H 0.92429 0.97607 0.13025 0.0
H111 H 0.95698 0.99248 0.21442 0.0
C112 C 0.93143 0.99196 0.35997 0.0
N113 N 0.93225 0.0027 0.33017 0.0
C114 C 0.94153 0.99252 0.39271 0.0
C115 C 0.95271 0.01556 0.36423 0.0
C116 C 0.94239 0.01453 0.33197 0.0
C117 C 0.95266 0.00418 0.3945 0.0
H118 H 0.92356 0.98241 0.35699 0.0
H119 H 0.94302 0.0227 0.30736 0.0
C120 C 0.89124 0.981 0.17913 0.0
N121 N 0.86649 0.96458 0.14968 0.0
C122 C 0.87679 0.98793 0.17632 0.0
C123 C 0.89313 0.96576 0.16679 0.0
C124 C 0.86442 0.97943 0.16137 0.0
C125 C 0.88046 0.95764 0.15206 0.0
C126 C 0.89625 0.00427 0.32228 0.0
C127 C 0.89192 0.99287 0.34987 0.0
C128 C 0.89885 0.01924 0.33598 0.0
C129 C 0.89032 -0.00335 0.39084 0.0
C130 C 0.89716 0.02255 0.3772 0.0
N131 N 0.89297 0.01128 0.40354 0.0
C132 C 0.89323 0.95132 0.27438 0.0
C133 C 0.8733 0.9698 0.26905 0.0
C134 C 0.8829 0.94041 0.2892 0.0
N135 N 0.88829 0.96571 0.26509 0.0
C136 C 0.8626 0.95928 0.28382 0.0
C137 C 0.86742 0.94445 0.29487 0.0
H138 H 0.90528 0.9485 0.27182 0.0
H139 H 0.86978 0.98142 0.26212 0.0
C140 C 0.89633 0.02581 0.16382 0.0
N141 N 0.89458 0.02454 0.2046 0.0
C142 C 0.8889 0.03746 0.1426 0.0
C143 C 0.87788 0.0463 0.2058 0.0
C144 C 0.88563 0.03447 0.2259 0.0
C145 C 0.87937 0.04781 0.16348 0.0
H146 H 0.90347 0.01765 0.14775 0.0
H147 H 0.88432 0.03306 0.25828 0.0
O148 O 0.92394 0.97681 0.26562 0.0
O149 O 0.92786 0.00995 0.23427 0.0
O150 O 0.90343 0.98902 0.19444 0.0
O151 O 0.89812 0.00076 0.28215 0.0
H152 H 0.95165 0.98012 0.29799 0.0
H153 H 0.92425 0.95252 0.21731 0.0
H154 H 0.97385 0.96306 0.28425 0.0
H155 H 0.94697 0.93597 0.20485 0.0
H156 H 0.92583 0.06213 0.2371 0.0
H157 H 0.93708 0.01512 0.15879 0.0
H158 H 0.92274 0.0367 0.27007 0.0
H159 H 0.94002 0.04091 0.12792 0.0
H160 H 0.97741 0.99151 0.163 0.0
H161 H 0.94391 0.97508 0.07634 0.0
H162 H 0.94124 0.98336 0.41493 0.0
H163 H 0.96102 0.02482 0.36466 0.0
H164 H 0.8751 -0.00031 0.18601 0.0
H165 H 0.90423 0.96022 0.16885 0.0
H166 H 0.85315 0.98462 0.15919 0.0
H167 H 0.88174 0.94581 0.14258 0.0
H168 H 0.88998 0.9812 0.3399 0.0
H169 H 0.90227 0.02818 0.31508 0.0
H170 H 0.88704 0.98793 0.41256 0.0
H171 H 0.8992 0.03407 0.38825 0.0
H172 H 0.88714 0.92918 0.29787 0.0
H173 H 0.85074 0.96281 0.28734 0.0
H174 H 0.89055 0.03831 0.11012 0.0
H175 H 0.87048 0.05389 0.22301 0.0
Li176 Li 0.25148 0.66969 0.45537 0.0
Li177 Li 0.24552 0.67008 0.52717 0.0
Li178 Li 0.26193 0.64934 0.49643 0.0
Li179 Li 0.23423 0.6498 0.48419 0.0
C180 C 0.27618 0.68245 0.48776 0.0
N181 N 0.29628 0.70449 0.45913 0.0
C182 C 0.27472 0.69773 0.50028 0.0
C183 C 0.28799 0.67834 0.46118 0.0
C184 C 0.28496 0.70871 0.48533 0.0
C185 C 0.298 0.68966 0.44691 0.0
C186 C 0.21715 0.67853 0.49191 0.0
C187 C 0.19307 0.67674 0.52785 0.0
N188 N 0.18895 0.69074 0.51314 0.0
C189 C 0.21259 0.69282 0.47676 0.0
C190 C 0.20725 0.67035 0.51734 0.0
C191 C 0.19833 0.69884 0.48801 0.0
C192 C 0.25673 0.67794 0.37288 0.0
N193 N 0.25394 0.68314 0.41102 0.0
C194 C 0.25083 0.70879 0.38696 0.0
C195 C 0.25113 0.69822 0.4186 0.0
C196 C 0.25328 0.70376 0.34702 0.0
C197 C 0.25648 0.68814 0.34016 0.0
H198 H 0.25866 0.66582 0.36771 0.0
H199 H 0.24858 0.70192 0.44918 0.0
C200 C 0.25008 0.67869 0.60799 0.0
N201 N 0.24372 0.68324 0.57233 0.0
C202 C 0.25126 0.68901 0.64024 0.0
C203 C 0.2391 0.70837 0.59851 0.0
C204 C 0.23813 0.69767 0.56716 0.0
C205 C 0.24603 0.70417 0.63535 0.0
H206 H 0.25481 0.66725 0.61077 0.0
H207 H 0.23362 0.70114 0.53806 0.0
C208 C 0.25794 0.6356 0.42365 0.0
N209 N 0.27213 0.61155 0.38377 0.0
C210 C 0.2506 0.62136 0.42054 0.0
C211 C 0.27239 0.63767 0.40599 0.0
C212 C 0.25799 0.60933 0.40037 0.0
C213 C 0.2794 0.62535 0.38612 0.0
C214 C 0.23831 0.63913 0.56691 0.0
C215 C 0.24268 0.62386 0.57319 0.0
C216 C 0.22742 0.64585 0.59256 0.0
C217 C 0.2358 0.61545 0.60437 0.0
C218 C 0.22081 0.63707 0.62343 0.0
N219 N 0.22508 0.62217 0.62862 0.0
C220 C 0.29137 0.64259 0.52608 0.0
C221 C 0.27725 0.62082 0.50428 0.0
C222 C 0.30291 0.63317 0.54181 0.0
N223 N 0.27876 0.63628 0.50841 0.0
C224 C 0.28851 0.61099 0.51942 0.0
C225 C 0.30135 0.61713 0.53953 0.0
H226 H 0.29211 0.65491 0.52978 0.0
H227 H 0.26694 0.61607 0.49112 0.0
C228 C 0.20839 0.6427 0.43949 0.0
N229 N 0.21684 0.63765 0.47144 0.0
C230 C 0.19659 0.63367 0.42377 0.0
C231 C 0.20214 0.61454 0.4749 0.0
C232 C 0.21384 0.62396 0.48963 0.0
C233 C 0.19355 0.61922 0.44098 0.0
H234 H 0.21124 0.65353 0.42524 0.0
H235 H 0.22088 0.62004 0.51443 0.0
O236 O 0.26613 0.67156 0.5016 0.0
O237 O 0.23108 0.67249 0.48105 0.0
O238 O 0.2509 0.64751 0.44335 0.0
O239 O 0.24512 0.6476 0.53686 0.0
H240 H 0.26571 0.70109 0.52103 0.0
H241 H 0.28942 0.66654 0.45174 0.0
H242 H 0.2839 0.7206 0.49452 0.0
H243 H 0.30715 0.68666 0.42616 0.0
H244 H 0.18531 0.67053 0.54757 0.0
H245 H 0.22002 0.69925 0.45666 0.0
H246 H 0.21037 0.65912 0.52845 0.0
H247 H 0.19471 0.70993 0.4767 0.0
H248 H 0.24804 0.72066 0.39356 0.0
H249 H 0.25849 0.68382 0.30981 0.0
H250 H 0.25687 0.68537 0.66793 0.0
H251 H 0.23484 0.71991 0.59361 0.0
H252 H 0.23938 0.61957 0.43375 0.0
H253 H 0.27812 0.64866 0.40761 0.0
H254 H 0.25249 0.59822 0.39794 0.0
H255 H 0.29062 0.62676 0.3725 0.0
H256 H 0.25117 0.61848 0.55396 0.0
H257 H 0.22419 0.65777 0.58903 0.0
H258 H 0.23898 0.60358 0.60932 0.0
H259 H 0.21233 0.64212 0.64339 0.0
H260 H 0.31251 0.63839 0.55753 0.0
H261 H 0.28692 0.5987 0.51662 0.0
H262 H 0.19043 0.63764 0.39724 0.0
H263 H 0.20008 0.60354 0.48928 0.0
Li264 Li 0.5878 0.98395 0.7343 0.0
Li265 Li 0.58969 0.01014 0.75263 0.0
Li266 Li 0.5696 0.99514 0.78539 0.0
Li267 Li 0.56858 0.00254 0.71253 0.0
C268 C 0.60536 0.99507 0.80982 0.0
N269 N 0.63206 0.0026 0.85059 0.0
C270 C 0.61955 0.98969 0.79586 0.0
C271 C 0.60475 0.0042 0.84465 0.0
C272 C 0.63291 0.99361 0.81691 0.0
C273 C 0.61838 0.00793 0.86475 0.0
C274 C 0.60243 0.00861 0.67944 0.0
C275 C 0.6137 0.03107 0.64864 0.0
N276 N 0.62715 0.02331 0.64398 0.0
C277 C 0.61634 0.00082 0.67417 0.0
C278 C 0.60105 0.02382 0.66637 0.0
C279 C 0.62871 0.00847 0.65622 0.0
C280 C 0.59663 0.96394 0.67447 0.0
N281 N 0.59771 0.96598 0.71518 0.0
C282 C 0.61376 0.94383 0.7213 0.0
C283 C 0.60571 0.95604 0.73895 0.0
C284 C 0.61336 0.94183 0.67895 0.0
C285 C 0.60428 0.95185 0.65569 0.0
H286 H 0.59002 0.97196 0.65647 0.0
H287 H 0.6062 0.95785 0.77138 0.0
C288 C 0.59735 0.03937 0.7825 0.0
N289 N 0.60348 0.02665 0.76485 0.0
C290 C 0.60686 0.05118 0.7962 0.0
C291 C 0.62884 0.0367 0.77288 0.0
C292 C 0.6189 0.02523 0.75939 0.0
C293 C 0.62287 0.04982 0.79208 0.0
H294 H 0.58508 0.04018 0.78694 0.0
H295 H 0.62359 0.01496 0.74596 0.0
C296 C 0.5625 0.96734 0.72752 0.0
N297 N 0.55926 0.93683 0.70623 0.0
C298 C 0.55811 0.96338 0.68813 0.0
C299 C 0.56522 0.95581 0.75612 0.0
C300 C 0.55653 0.94788 0.67796 0.0
C301 C 0.56353 0.94044 0.74474 0.0
C302 C 0.55634 0.02542 0.75129 0.0
C303 C 0.54156 0.02255 0.76602 0.0
C304 C 0.55884 0.03782 0.7252 0.0
C305 C 0.52947 0.03209 0.75408 0.0
C306 C 0.54645 0.04709 0.71394 0.0
N307 N 0.53214 0.04405 0.72848 0.0
C308 C 0.5584 0.00352 0.86132 0.0
C309 C 0.54563 0.98218 0.83193 0.0
C310 C 0.54778 0.004 0.89295 0.0
N311 N 0.55708 0.99279 0.83161 0.0
C312 C 0.53469 0.9823 0.86289 0.0
C313 C 0.53555 0.99349 0.89353 0.0
H314 H 0.56723 0.01221 0.85928 0.0
H315 H 0.54458 0.9741 0.80723 0.0
C316 C 0.55931 0.01181 0.63377 0.0
N317 N 0.55451 0.0065 0.67037 0.0
C318 C 0.54909 0.0124 0.60118 0.0
C319 C 0.52916 0.00247 0.6451 0.0
C320 C 0.53974 0.00207 0.67674 0.0
C321 C 0.53387 0.00738 0.60646 0.0
H322 H 0.57119 0.015 0.62945 0.0
H323 H 0.53639 -0.00244 0.70601 0.0
O324 O 0.59216 0.99144 0.78945 0.0
O325 O 0.59017 0.0013 0.69677 0.0
O326 O 0.56453 0.98243 0.73777 0.0
O327 O 0.56828 0.01603 0.76186 0.0
H328 H 0.62029 0.98284 0.7686 0.0
H329 H 0.59391 0.00851 0.85582 0.0
H330 H 0.64397 0.98962 0.80628 0.0
H331 H 0.61808 0.01508 0.89157 0.0
H332 H 0.61282 0.04287 0.63861 0.0
H333 H 0.61766 0.98908 0.68425 0.0
H334 H 0.59036 0.03 0.67015 0.0
H335 H 0.63957 0.00262 0.65216 0.0
H336 H 0.62064 0.93643 0.74042 0.0
H337 H 0.60329 0.95054 0.62314 0.0
H338 H 0.60172 0.06117 0.81033 0.0
H339 H 0.6411 0.03497 0.76967 0.0
H340 H 0.55611 0.97218 0.66553 0.0
H341 H 0.56881 0.95871 0.78662 0.0
H342 H 0.55319 0.94463 0.64755 0.0
H343 H 0.56567 0.93139 0.76649 0.0
H344 H 0.53939 0.01296 0.78606 0.0
H345 H 0.57022 0.04022 0.71363 0.0
H346 H 0.51795 0.02996 0.76506 0.0
H347 H 0.54821 0.05669 0.69362 0.0
H348 H 0.54868 0.013 0.91552 0.0
H349 H 0.52544 0.97397 0.86234 0.0
H350 H 0.55315 0.01639 0.57197 0.0
H351 H 0.51763 -0.00176 0.65039 0.0
Li352 Li 0.74471 0.67056 0.03333 0.0
Li353 Li 0.73142 0.65074 0.99455 0.0
Li354 Li 0.75896 0.65106 0.99376 0.0
Li355 Li 0.74469 0.67074 0.96118 0.0
C356 C 0.73744 0.63913 0.06778 0.0
N357 N 0.71957 0.62091 0.11762 0.0
C358 C 0.72488 0.64544 0.08831 0.0
C359 C 0.741 0.62359 0.07288 0.0
C360 C 0.71597 0.63603 0.11332 0.0
C361 C 0.7318 0.61456 0.09814 0.0
C362 C 0.71661 0.67998 0.97219 0.0
C363 C 0.70035 0.67965 0.91299 0.0
N364 N 0.6974 0.69486 0.91829 0.0
C365 C 0.71338 0.6956 0.97714 0.0
C366 C 0.71003 0.67192 0.93992 0.0
C367 C 0.70365 0.70292 0.94953 0.0
C368 C 0.74205 0.69851 0.07187 0.0
N369 N 0.7444 0.68336 0.07933 0.0
C370 C 0.7449 0.68787 0.15072 0.0
C371 C 0.7461 0.67789 0.11768 0.0
C372 C 0.74192 0.70353 0.14394 0.0
C373 C 0.74069 0.70885 0.10389 0.0
H374 H 0.74118 0.70252 0.04094 0.0
H375 H 0.74821 0.66579 0.12261 0.0
C376 C 0.71732 0.62193 0.99202 0.0
N377 N 0.71452 0.63715 -0.00267 0.0
C378 C 0.70643 0.6111 0.0041 0.0
C379 C 0.68957 0.63192 0.02386 0.0
C380 C 0.70084 0.64234 0.01167 0.0
C381 C 0.69257 0.61608 0.02156 0.0
H382 H 0.72844 0.6182 0.98113 0.0
H383 H 0.69911 0.65451 0.01646 0.0
C384 C 0.77529 0.6771 0.01941 0.0
N385 N 0.80094 0.68412 0.06516 0.0
C386 C 0.78497 0.68912 0.00775 0.0
C387 C 0.77864 0.66866 0.05442 0.0
C388 C 0.79789 0.69248 0.03126 0.0
C389 C 0.79167 0.67239 0.07711 0.0
C390 C 0.75333 0.64603 0.91278 0.0
C391 C 0.76648 0.65479 0.90494 0.0
C392 C 0.7492 0.63427 0.88609 0.0
C393 C 0.77523 0.65164 0.87042 0.0
C394 C 0.75826 0.63148 0.85189 0.0
N395 N 0.77098 0.64015 0.84483 0.0
C396 C 0.77249 0.6228 0.9834 0.0
C397 C 0.79057 0.64314 0.97986 0.0
C398 C 0.7834 0.61237 0.9693 0.0
N399 N 0.77615 0.63788 0.98768 0.0
C400 C 0.80188 0.63307 0.96586 0.0
C401 C 0.79818 0.61756 0.95922 0.0
H402 H 0.76079 0.61908 0.98841 0.0
H403 H 0.79306 0.65526 0.98174 0.0
C404 C 0.74964 0.6994 0.92815 0.0
N405 N 0.74485 0.68506 0.91796 0.0
C406 C 0.75084 0.71079 0.89867 0.0
C407 C 0.74202 0.69246 0.84869 0.0
C408 C 0.74084 0.68145 0.87931 0.0
C409 C 0.74722 0.70735 0.85816 0.0
H410 H 0.75256 0.70193 0.95932 0.0
H411 H 0.73691 0.66998 0.87215 0.0
O412 O 0.74594 0.64803 0.04194 0.0
O413 O 0.72649 0.67268 -0.00194 0.0
O414 O 0.76254 0.67386 -0.0033 0.0
O415 O 0.74473 0.64854 0.94692 0.0
H416 H 0.72185 0.6574 0.08429 0.0
H417 H 0.7507 0.61853 0.0573 0.0
H418 H 0.70613 0.64072 0.12907 0.0
H419 H 0.73435 0.60249 0.10215 0.0
H420 H 0.69525 0.67357 0.88775 0.0
H421 H 0.71835 0.70203 0.00191 0.0
H422 H 0.71255 0.65987 0.93535 0.0
H423 H 0.70108 0.71502 0.95291 0.0
H424 H 0.74593 0.68333 0.18117 0.0
H425 H 0.73875 0.7209 0.09737 0.0
H426 H 0.7091 0.59899 0.00157 0.0
H427 H 0.67912 0.63621 0.03763 0.0
H428 H 0.78252 0.69578 0.98079 0.0
H429 H 0.77134 0.65931 0.06403 0.0
H430 H 0.80549 0.70175 0.02256 0.0
H431 H 0.7944 0.66596 0.10423 0.0
H432 H 0.76995 0.66388 0.92528 0.0
H433 H 0.73912 0.62732 0.8919 0.0
H434 H 0.78544 0.65831 0.86403 0.0
H435 H 0.7552 0.6224 0.831 0.0
H436 H 0.78011 0.60049 0.96474 0.0
H437 H 0.81307 0.63756 0.95777 0.0
H438 H 0.75454 0.72217 0.90762 0.0
H439 H 0.73922 0.68923 0.81786 0.0
Li440 Li 0.09041 0.98541 0.75143 0.0
Li441 Li 0.07064 0.00149 0.77795 0.0
Li442 Li 0.07147 0.99453 0.70597 0.0
Li443 Li 0.09015 0.01276 0.73222 0.0
C444 C 0.06814 0.96647 0.76751 0.0
N445 N 0.06938 0.93691 0.79794 0.0
C446 C 0.06707 0.96392 0.80928 0.0
C447 C 0.06974 0.95398 0.74122 0.0
C448 C 0.06773 0.94889 0.82407 0.0
C449 C 0.07038 0.93912 0.7572 0.0
C450 C 0.09636 0.01511 0.81476 0.0
C451 C 0.09337 0.04123 0.83789 0.0
N452 N 0.10317 0.03831 0.86906 0.0
C453 C 0.10645 0.01238 0.84692 0.0
C454 C 0.08979 0.02966 0.81011 0.0
C455 C 0.10972 0.02425 0.8741 0.0
C456 C 0.11057 0.95953 0.74138 0.0
N457 N 0.10329 0.96903 0.76785 0.0
C458 C 0.11383 0.95558 0.82441 0.0
C459 C 0.10481 0.96735 0.80859 0.0
C460 C 0.12152 0.94554 0.79798 0.0
C461 C 0.11985 0.94762 0.75593 0.0
H462 H 0.1092 0.96119 0.70911 0.0
H463 H 0.09891 0.97515 0.82883 0.0
C464 C 0.04274 -0.00278 0.81554 0.0
N465 N 0.05671 0.00369 0.82231 0.0
C466 C 0.03205 -0.00404 0.84679 0.0
C467 C 0.05022 0.00818 0.89178 0.0
C468 C 0.06058 0.00923 0.85952 0.0
C469 C 0.03584 0.00122 0.88574 0.0
H470 H 0.04013 0.99235 0.78623 0.0
H471 H 0.07187 0.01385 0.86497 0.0
C472 C 0.0948 0.99153 0.65691 0.0
N473 N 0.09513 0.98574 0.57451 0.0
C474 C 0.0989 0.00313 0.62967 0.0
C475 C 0.09107 0.97693 0.64226 0.0
C476 C 0.09895 -1e-05 0.58812 0.0
C477 C 0.09124 0.97425 0.60049 0.0
C478 C 0.05407 0.02265 0.7304 0.0
C479 C 0.04038 0.0146 0.72404 0.0
C480 C 0.0536 0.03853 0.73667 0.0
C481 C 0.02644 0.02254 0.72449 0.0
C482 C 0.03942 0.04606 0.73691 0.0
N483 N 0.02624 0.03798 0.73088 0.0
C484 C 0.04888 0.97966 0.65715 0.0
C485 C 0.05867 0.00338 0.6329 0.0
C486 C 0.03792 0.97938 0.62623 0.0
N487 N 0.0588 0.99166 0.66007 0.0
C488 C 0.04799 0.00353 0.60149 0.0
C489 C 0.03722 0.99158 0.59836 0.0
H490 H 0.04902 0.97069 0.67982 0.0
H491 H 0.06643 0.01297 0.63681 0.0
C492 C 0.11634 0.03204 0.7299 0.0
N493 N 0.10161 0.03022 0.71716 0.0
C494 C 0.12528 0.04402 0.71449 0.0
C495 C 0.10359 0.05207 0.67376 0.0
C496 C 0.09505 0.04004 0.69023 0.0
C497 C 0.11899 0.054 0.68537 0.0
H498 H 0.12127 0.02391 0.75101 0.0
H499 H 0.08336 0.03814 0.68035 0.0
O500 O 0.06788 0.98113 0.75251 0.0
O501 O 0.09325 0.00362 0.78765 0.0
O502 O 0.09442 0.99445 0.69767 0.0
O503 O 0.06789 0.01514 0.72975 0.0
H504 H 0.066 0.97344 0.83018 0.0
H505 H 0.07059 0.95572 0.70884 0.0
H506 H 0.06702 0.94676 0.85633 0.0
H507 H 0.07169 0.92936 0.7372 0.0
H508 H 0.08834 0.05254 0.83467 0.0
H509 H 0.11171 0.0012 0.8508 0.0
H510 H 0.08199 0.03199 0.78545 0.0
H511 H 0.11749 0.02229 0.89918 0.0
H512 H 0.115 0.95454 0.85699 0.0
H513 H 0.12556 0.94007 0.73459 0.0
H514 H 0.02106 0.99063 0.84065 0.0
H515 H 0.05372 0.01215 0.9215 0.0
H516 H 0.10196 0.01445 0.64043 0.0
H517 H 0.0879 0.96782 0.66289 0.0
H518 H 0.10202 0.00889 0.56669 0.0
H519 H 0.08825 0.96304 0.58874 0.0
H520 H 0.04049 0.00233 0.71901 0.0
H521 H 0.06407 0.045 0.74116 0.0
H522 H 0.01577 0.01643 0.71975 0.0
H523 H 0.03889 0.05834 0.7418 0.0
H524 H 0.02985 0.96993 0.62472 0.0
H525 H 0.04769 0.0133 0.58114 0.0
H526 H 0.13715 0.04504 0.72388 0.0
H527 H 0.09831 0.0596 0.65163 0.0
Li528 Li 0.75524 0.33663 0.5089 0.0
Li529 Li 0.73615 0.31915 0.53622 0.0
Li530 Li 0.74544 0.31709 0.46434 0.0
Li531 Li 0.72821 0.33781 0.48383 0.0
C532 C 0.7711 0.31211 0.53236 0.0
N533 N 0.79979 0.30888 0.56724 0.0
C534 C 0.77253 0.31063 0.57441 0.0
C535 C 0.78425 0.31174 0.50803 0.0
C536 C 0.78714 0.30905 0.59147 0.0
C537 C 0.79865 0.31015 0.52624 0.0
C538 C 0.72686 0.34809 0.56879 0.0
C539 C 0.70154 0.35285 0.59586 0.0
N540 N 0.70791 0.36055 0.62755 0.0
C541 C 0.73314 0.35622 0.60137 0.0
C542 C 0.71092 0.34653 0.5658 0.0
C543 C 0.72338 0.36237 0.63086 0.0
C544 C 0.78114 0.35631 0.49807 0.0
N545 N 0.77245 0.34839 0.52519 0.0
C546 C 0.78726 0.35807 0.58046 0.0
C547 C 0.7753 0.34905 0.56564 0.0
C548 C 0.79632 0.3666 0.55336 0.0
C549 C 0.79323 0.36553 0.51159 0.0
H550 H 0.77852 0.35568 0.46609 0.0
H551 H 0.76807 0.34275 0.58648 0.0
C552 C 0.73071 0.29172 0.57492 0.0
N553 N 0.73118 0.30708 0.58201 0.0
C554 C 0.72996 0.28141 0.60719 0.0
C555 C 0.72952 0.30296 0.65345 0.0
C556 C 0.73035 0.31287 0.62023 0.0
C557 C 0.72975 0.28699 0.64718 0.0
H558 H 0.7317 0.28748 0.54418 0.0
H559 H 0.73109 0.32509 0.62521 0.0
C560 C 0.75272 0.33987 0.41352 0.0
N561 N 0.76263 0.34017 0.33389 0.0
C562 C 0.74311 0.34544 0.38291 0.0
C563 C 0.76745 0.33466 0.4037 0.0
C564 C 0.74831 0.34544 0.34282 0.0
C565 C 0.77222 0.33484 0.36325 0.0
C566 C 0.70947 0.31017 0.48348 0.0
C567 C 0.70388 0.30418 0.447 0.0
C568 C 0.70002 0.31012 0.5178 0.0
C569 C 0.68881 0.29871 0.44514 0.0
C570 C 0.68503 0.30453 0.51475 0.0
N571 N 0.67976 0.29902 0.47877 0.0
C572 C 0.75869 0.29076 0.42765 0.0
C573 C 0.74106 0.30474 0.38712 0.0
C574 C 0.76006 0.27951 0.39764 0.0
N575 N 0.74921 0.30297 0.42192 0.0
C576 C 0.74212 0.29384 0.35635 0.0
C577 C 0.75155 0.2809 0.3616 0.0
H578 H 0.76485 0.28954 0.45594 0.0
H579 H 0.73333 0.31438 0.38384 0.0
C580 C 0.71153 0.3655 0.47665 0.0
N581 N 0.71258 0.35079 0.4631 0.0
C582 C 0.70112 0.37567 0.45889 0.0
C583 C 0.69312 0.35536 0.41354 0.0
C584 C 0.70366 0.3456 0.43222 0.0
C585 C 0.69186 0.37068 0.42655 0.0
H586 H 0.71903 0.36942 0.50065 0.0
H587 H 0.70519 0.33407 0.4209 0.0
O588 O 0.75691 0.31389 0.51513 0.0
O589 O 0.7363 0.34202 0.53967 0.0
O590 O 0.74775 0.3396 0.45289 0.0
O591 O 0.72431 0.31534 0.48594 0.0
H592 H 0.7625 0.31087 0.59374 0.0
H593 H 0.78334 0.31265 0.47543 0.0
H594 H 0.78842 0.30801 0.62398 0.0
H595 H 0.80892 0.30993 0.50777 0.0
H596 H 0.68919 0.35169 0.59388 0.0
H597 H 0.74543 0.35775 0.60398 0.0
H598 H 0.70582 0.34072 0.54023 0.0
H599 H 0.7281 0.3686 0.65636 0.0
H600 H 0.78904 0.35875 0.61291 0.0
H601 H 0.80001 0.37184 0.48965 0.0
H602 H 0.73041 0.26921 0.60086 0.0
H603 H 0.72921 0.30777 0.68373 0.0
H604 H 0.73174 0.34967 0.38997 0.0
H605 H 0.77507 0.33045 0.42702 0.0
H606 H 0.74096 0.34964 0.3188 0.0
H607 H 0.78356 0.33074 0.3552 0.0
H608 H 0.71105 0.30385 0.42027 0.0
H609 H 0.70423 0.3142 0.54667 0.0
H610 H 0.68431 0.29419 0.41699 0.0
H611 H 0.6776 0.30451 0.54106 0.0
H612 H 0.76753 0.26974 0.40277 0.0
H613 H 0.73512 0.29524 0.32944 0.0
H614 H 0.70045 0.38735 0.47008 0.0
H615 H 0.68647 0.35112 0.38814 0.0
Li616 Li 0.40022 0.00236 0.25679 0.0
Li617 Li 0.42314 0.98713 0.2771 0.0
Li618 Li 0.41798 0.99431 0.20684 0.0
Li619 Li 0.40197 0.97554 0.23592 0.0
C620 C 0.42227 0.02237 0.26805 0.0
N621 N 0.42095 0.05171 0.29984 0.0
C622 C 0.42487 0.02478 0.30939 0.0
C623 C 0.41914 0.03488 0.24281 0.0
C624 C 0.42413 0.0397 0.32489 0.0
C625 C 0.41848 0.04963 0.25949 0.0
C626 C 0.39154 0.9741 0.31051 0.0
C627 C 0.38646 0.94923 0.3398 0.0
N628 N 0.37134 0.95299 0.34316 0.0
C629 C 0.37596 0.97773 0.31424 0.0
C630 C 0.39686 0.95976 0.3234 0.0
C631 C 0.36593 0.96689 0.33086 0.0
C632 C 0.37771 0.02628 0.25361 0.0
N633 N 0.38695 0.01763 0.27771 0.0
C634 C 0.37734 0.02998 0.33714 0.0
C635 C 0.38692 0.01924 0.31868 0.0
C636 C 0.36759 0.03908 0.31319 0.0
C637 C 0.36789 0.03719 0.27084 0.0
H638 H 0.37783 0.02461 0.22116 0.0
H639 H 0.39438 0.01212 0.33701 0.0
C640 C 0.45214 0.99162 0.30982 0.0
N641 N 0.43813 0.98549 0.31799 0.0
C642 C 0.46306 0.99302 0.34048 0.0
C643 C 0.44495 0.98164 0.38733 0.0
C644 C 0.43437 0.98042 0.35568 0.0
C645 C 0.45942 0.98825 0.38001 0.0
H646 H 0.45454 -0.00389 0.27991 0.0
H647 H 0.42298 0.97603 0.36155 0.0
C648 C 0.39218 -0.00326 0.16428 0.0
N649 N 0.38623 0.00361 0.08399 0.0
C650 C 0.38718 0.98525 0.13779 0.0
C651 C 0.39405 0.01175 0.15001 0.0
C652 C 0.38424 0.98895 0.09729 0.0
C653 C 0.39103 0.01498 0.10929 0.0
C654 C 0.43377 0.9681 0.19928 0.0
C655 C 0.42793 0.95899 0.16795 0.0
C656 C 0.44938 0.97186 0.19971 0.0
C657 C 0.4378 0.95389 0.13737 0.0
C658 C 0.45886 0.9666 0.16845 0.0
N659 N 0.45293 0.95779 0.1382 0.0
C660 C 0.44129 0.00958 0.16449 0.0
C661 C 0.42708 0.99233 0.12348 0.0
C662 C 0.45205 0.01166 0.1336 0.0
N663 N 0.42931 -0.00023 0.15927 0.0
C664 C 0.43756 0.99405 0.09184 0.0
C665 C 0.4505 0.00346 0.09713 0.0
H666 H 0.44297 0.01516 0.19343 0.0
H667 H 0.4178 0.98422 0.12034 0.0
C668 C 0.37468 0.96027 0.22113 0.0
N669 N 0.38988 0.95778 0.22746 0.0
C670 C 0.36497 0.94805 0.21193 0.0
C671 C 0.3867 0.93082 0.21702 0.0
C672 C 0.396 0.94341 0.22644 0.0
C673 C 0.371 0.93312 0.20914 0.0
H674 H 0.37018 0.97185 0.22225 0.0
H675 H 0.40813 0.94179 0.23212 0.0
O676 O 0.42254 0.00782 0.25243 0.0
O677 O 0.40145 0.98437 0.29321 0.0
O678 O 0.395 0.99337 0.2041 0.0
O679 O 0.42423 0.97341 0.22917 0.0
H680 H 0.4272 0.01523 0.32943 0.0
H681 H 0.41719 0.03322 0.21072 0.0
H682 H 0.426 0.04173 0.35688 0.0
H683 H 0.41599 0.05941 0.24035 0.0
H684 H 0.3904 0.93805 0.34968 0.0
H685 H 0.37163 0.98872 0.30401 0.0
H686 H 0.40885 0.9567 0.32011 0.0
H687 H 0.35383 0.96951 0.33381 0.0
H688 H 0.37764 0.0312 0.36981 0.0
H689 H 0.36042 0.04384 0.2513 0.0
H690 H 0.47395 -0.00153 0.33371 0.0
H691 H 0.44172 0.97776 0.41735 0.0
H692 H 0.38574 0.97355 0.1482 0.0
H693 H 0.39791 0.02077 0.17008 0.0
H694 H 0.38044 0.98015 0.07641 0.0
H695 H 0.39251 0.02652 0.09779 0.0
H696 H 0.41584 0.95616 0.16675 0.0
H697 H 0.45409 0.97891 0.22363 0.0
H698 H 0.43341 0.94694 0.11278 0.0
H699 H 0.47094 0.96954 0.1682 0.0
H700 H 0.46176 0.01918 0.13878 0.0
H701 H 0.43603 0.98729 0.06457 0.0
H702 H 0.35299 0.95038 0.20556 0.0
H703 H 0.39175 0.91945 0.21556 0.0
Li704 Li 0.72934 0.8395 0.50545 0.0
Li705 Li 0.75543 0.84099 0.48384 0.0
Li706 Li 0.73868 0.8192 0.46587 0.0
Li707 Li 0.74744 0.82134 0.53528 0.0
C708 C 0.72912 0.85255 0.43114 0.0
N709 N 0.7131 0.87639 0.39535 0.0
C710 C 0.73563 0.86721 0.42886 0.0
C711 C 0.71455 0.84998 0.41467 0.0
C712 C 0.72733 0.87912 0.41076 0.0
C713 C 0.7066 0.8622 0.39689 0.0
C714 C 0.74207 0.85493 0.56559 0.0
C715 C 0.72538 0.86166 0.62126 0.0
N716 N 0.72909 0.87671 0.61608 0.0
C717 C 0.74573 0.87047 0.56082 0.0
C718 C 0.73184 0.85047 0.5961 0.0
C719 C 0.73905 0.8813 0.58669 0.0
C720 C 0.69944 0.84451 0.53632 0.0
N721 N 0.71161 0.85161 0.5185 0.0
C722 C 0.6997 0.87613 0.52697 0.0
C723 C 0.7119 0.86711 0.5135 0.0
C724 C 0.68708 0.86915 0.54608 0.0
C725 C 0.68697 0.8531 0.55033 0.0
H726 H 0.6996 0.83223 0.54089 0.0
H727 H 0.7219 0.87259 0.50073 0.0
C728 C 0.77465 0.85201 0.42373 0.0
N729 N 0.77191 0.85294 0.4642 0.0
C730 C 0.78608 0.86099 0.40601 0.0
C731 C 0.79192 0.87143 0.47225 0.0
C732 C 0.78038 0.86217 0.48872 0.0
C733 C 0.79476 0.87101 0.43027 0.0
H734 H 0.7677 0.8445 0.40512 0.0
H735 H 0.7781 0.86244 0.52095 0.0
C736 C 0.71627 0.80622 0.50557 0.0
N737 N 0.69638 0.78316 0.48195 0.0
C738 C 0.71763 0.7915 0.52212 0.0
C739 C 0.70463 0.80927 0.47753 0.0
C740 C 0.7075 0.77998 0.50966 0.0
C741 C 0.69473 0.79744 0.46582 0.0
C742 C 0.7752 0.81615 0.49424 0.0
C743 C 0.78392 0.80617 0.47031 0.0
C744 C 0.78212 0.82383 0.5267 0.0
C745 C 0.79946 0.80404 0.47921 0.0
C746 C 0.7977 0.8214 0.5346 0.0
N747 N 0.80598 0.81164 0.51089 0.0
C748 C 0.73021 0.80733 0.38841 0.0
C749 C 0.74002 0.78957 0.43641 0.0
C750 C 0.72949 0.79584 0.35889 0.0
N751 N 0.73553 0.80399 0.4261 0.0
C752 C 0.7394 0.77774 0.40807 0.0
C753 C 0.73436 0.78085 0.36845 0.0
H754 H 0.72696 0.81899 0.38097 0.0
H755 H 0.74437 0.78735 0.46656 0.0
C756 C 0.75295 0.81338 0.61859 0.0
N757 N 0.75331 0.80876 0.57922 0.0
C758 C 0.75465 0.80258 0.64965 0.0
C759 C 0.75802 0.78282 0.5988 0.0
C760 C 0.75634 0.79397 0.56888 0.0
C761 C 0.75665 0.787 0.63973 0.0
H762 H 0.75069 0.82526 0.62592 0.0
H763 H 0.7566 0.79069 0.53725 0.0
O764 O 0.73711 0.84071 0.44849 0.0
O765 O 0.74826 0.84418 0.54012 0.0
O766 O 0.72627 0.8176 0.5167 0.0
O767 O 0.75999 0.81837 0.48566 0.0
H768 H 0.74686 0.86947 0.44151 0.0
H769 H 0.70943 0.83868 0.41547 0.0
H770 H 0.73218 0.89054 0.40911 0.0
H771 H 0.69529 0.86038 0.38422 0.0
H772 H 0.71733 0.85838 0.64473 0.0
H773 H 0.75344 0.87416 0.53702 0.0
H774 H 0.72863 0.83853 0.59966 0.0
H775 H 0.74172 0.89337 0.58322 0.0
H776 H 0.70045 0.88849 0.52392 0.0
H777 H 0.67744 0.84725 0.56475 0.0
H778 H 0.78777 0.86044 0.37351 0.0
H779 H 0.79852 0.87883 0.49207 0.0
H780 H 0.7264 0.78896 0.54428 0.0
H781 H 0.70329 0.82064 0.46488 0.0
H782 H 0.70849 0.76851 0.52204 0.0
H783 H 0.68574 0.79963 0.44392 0.0
H784 H 0.7787 0.80015 0.44509 0.0
H785 H 0.77557 0.83158 0.54561 0.0
H786 H 0.80636 0.79635 0.46093 0.0
H787 H 0.80321 0.82727 0.55958 0.0
H788 H 0.72572 0.7988 0.32859 0.0
H789 H 0.74303 0.76633 0.41698 0.0
H790 H 0.75354 0.80623 0.68091 0.0
H791 H 0.75979 0.77096 0.58999 0.0
Li792 Li 0.40357 0.50919 0.74498 0.0
Li793 Li 0.40179 0.481 0.75958 0.0
Li794 Li 0.41993 0.49688 0.79501 0.0
Li795 Li 0.42454 0.49056 0.72592 0.0
C796 C 0.39471 0.5018 0.83497 0.0
N797 N 0.39128 0.50765 0.91677 0.0
C798 C 0.39189 0.48973 0.8619 0.0
C799 C 0.39571 0.51685 0.84951 0.0
C800 C 0.39021 0.49293 0.90319 0.0
C801 C 0.39396 0.51957 0.89102 0.0
C802 C 0.39194 0.48472 0.68296 0.0
C803 C 0.38296 0.46353 0.64225 0.0
N804 N 0.36921 0.47077 0.63754 0.0
C805 C 0.37778 0.49201 0.67745 0.0
C806 C 0.39461 0.47043 0.66497 0.0
C807 C 0.36642 0.48474 0.65448 0.0
C808 C 0.39714 0.53307 0.69168 0.0
N809 N 0.39244 0.52635 0.72672 0.0
C810 C 0.37009 0.54218 0.72897 0.0
C811 C 0.37935 0.53076 0.74587 0.0
C812 C 0.37435 0.54899 0.69194 0.0
C813 C 0.38824 0.54452 0.67369 0.0
H814 H 0.40753 0.5291 0.67699 0.0
H815 H 0.37584 0.52504 0.77348 0.0
C816 C 0.39275 0.45168 0.78543 0.0
N817 N 0.38763 0.46484 0.76789 0.0
C818 C 0.38232 0.44071 0.79934 0.0
C819 C 0.36156 0.45684 0.77566 0.0
C820 C 0.37239 0.46756 0.7626 0.0
C821 C 0.36645 0.44336 0.79535 0.0
H822 H 0.40489 0.45008 0.79075 0.0
H823 H 0.36861 0.47839 0.75007 0.0
C824 C 0.43455 0.52288 0.76758 0.0
N825 N 0.45175 0.54655 0.80012 0.0
C826 C 0.45019 0.52078 0.77553 0.0
C827 C 0.42768 0.53706 0.77599 0.0
C828 C 0.45867 0.53288 0.79208 0.0
C829 C 0.43657 0.54887 0.79246 0.0
C830 C 0.43411 0.46551 0.76296 0.0
C831 C 0.44863 0.46615 0.78098 0.0
C832 C 0.43079 0.45384 0.73523 0.0
C833 C 0.45967 0.45518 0.77053 0.0
C834 C 0.44214 0.44309 0.72556 0.0
N835 N 0.45623 0.44398 0.74325 0.0
C836 C 0.43121 0.48457 0.86586 0.0
C837 C 0.43444 0.51157 0.86475 0.0
C838 C 0.43942 0.48348 0.90194 0.0
N839 N 0.42941 0.49836 0.84719 0.0
C840 C 0.44292 0.51101 0.90066 0.0
C841 C 0.44591 0.49674 0.91906 0.0
H842 H 0.42658 0.47429 0.85212 0.0
H843 H 0.43222 0.52251 0.85064 0.0
C844 C 0.43548 0.48709 0.64609 0.0
N845 N 0.43978 0.48749 0.68568 0.0
C846 C 0.44657 0.48752 0.61552 0.0
C847 C 0.46629 0.48818 0.66711 0.0
C848 C 0.45483 0.48782 0.6966 0.0
C849 C 0.4622 0.48843 0.62596 0.0
H850 H 0.42342 0.48713 0.63823 0.0
H851 H 0.45795 0.4885 0.72819 0.0
O852 O 0.39683 0.49886 0.79467 0.0
O853 O 0.40318 0.49161 0.7055 0.0
O854 O 0.42608 0.51127 0.75083 0.0
O855 O 0.42317 0.4762 0.77261 0.0
H856 H 0.39117 0.47801 0.85107 0.0
H857 H 0.398 0.52629 0.82902 0.0
H858 H 0.38811 0.4837 0.92445 0.0
H859 H 0.39479 0.53114 0.90278 0.0
H860 H 0.38485 0.45245 0.62828 0.0
H861 H 0.37551 0.50308 0.69104 0.0
H862 H 0.40558 0.46475 0.6684 0.0
H863 H 0.35537 0.4902 0.65017 0.0
H864 H 0.35956 0.54541 0.74426 0.0
H865 H 0.39185 0.54928 0.64489 0.0
H866 H 0.38666 0.43069 0.81506 0.0
H867 H 0.34947 0.45932 0.77156 0.0
H868 H 0.45568 0.50989 0.76954 0.0
H869 H 0.41561 0.53892 0.77009 0.0
H870 H 0.47076 0.53137 0.79861 0.0
H871 H 0.43139 0.55988 0.79923 0.0
H872 H 0.45145 0.47517 0.80231 0.0
H873 H 0.41957 0.45307 0.72139 0.0
H874 H 0.47099 0.45561 0.78401 0.0
H875 H 0.43974 0.43402 0.70405 0.0
H876 H 0.44095 0.4723 0.91576 0.0
H877 H 0.44759 0.52157 0.91283 0.0
H878 H 0.44295 0.48758 0.5841 0.0
H879 H 0.47818 0.4891 0.67649 0.0
Li880 Li 0.75258 0.17193 0.96473 0.0
Li881 Li 0.74569 0.16772 0.03744 0.0
Li882 Li 0.76432 0.15092 -0.00029 0.0
Li883 Li 0.73776 0.14993 0.98435 0.0
C884 C 0.77391 0.18637 0.00596 0.0
N885 N 0.78898 0.21361 0.98958 0.0
C886 C 0.77024 0.19968 0.02765 0.0
C887 C 0.78535 0.18689 0.97623 0.0
C888 C 0.77797 0.21335 0.01886 0.0
C889 C 0.7928 0.20078 0.9683 0.0
C890 C 0.71719 0.17199 0.98082 0.0
C891 C 0.69051 0.16853 -0.00182 0.0
N892 N 0.68664 0.17064 0.9586 0.0
C893 C 0.71296 0.17421 0.94036 0.0
C894 C 0.7059 0.16919 0.01005 0.0
C895 C 0.69745 0.17345 0.92972 0.0
C896 C 0.75699 0.18413 0.88614 0.0
N897 N 0.75373 0.18761 0.92537 0.0
C898 C 0.74774 0.21351 0.90772 0.0
C899 C 0.74924 0.20193 0.93664 0.0
C900 C 0.75061 0.21018 0.86676 0.0
C901 C 0.75551 0.19533 0.85612 0.0
H902 H 0.76013 0.17252 0.87795 0.0
H903 H 0.74622 0.20419 0.9679 0.0
C904 C 0.75148 0.17546 0.11816 0.0
N905 N 0.74208 0.1783 0.08616 0.0
C906 C 0.75138 0.18524 0.1517 0.0
C907 C 0.73147 0.20024 0.11919 0.0
C908 C 0.73194 0.19017 0.08633 0.0
C909 C 0.74161 0.19809 0.15187 0.0
H910 H 0.75964 0.1661 0.11658 0.0
H911 H 0.72486 0.19231 0.05999 0.0
C912 C 0.76432 0.1406 0.9261 0.0
N913 N 0.78384 0.11984 0.88908 0.0
C914 C 0.7603 0.12507 0.92371 0.0
C915 C 0.77822 0.14558 0.90944 0.0
C916 C 0.77034 0.11476 0.9049 0.0
C917 C 0.78795 0.13491 0.89094 0.0
C918 C 0.73793 0.13445 0.05557 0.0
C919 C 0.73808 0.11912 0.04292 0.0
C920 C 0.72819 0.13895 0.08714 0.0
C921 C 0.72841 0.10854 0.06198 0.0
C922 C 0.7187 0.12801 0.10545 0.0
N923 N 0.719 0.11316 0.09259 0.0
C924 C 0.79591 0.14668 0.01787 0.0
C925 C 0.78157 0.12381 0.00856 0.0
C926 C 0.80889 0.1382 0.0289 0.0
N927 N 0.78258 0.13938 0.00835 0.0
C928 C 0.79424 0.1149 0.01908 0.0
C929 C 0.80806 0.12209 0.0301 0.0
H930 H 0.79633 0.15909 0.01817 0.0
H931 H 0.7708 0.1183 0.00169 0.0
C932 C 0.72125 0.13618 0.92276 0.0
N933 N 0.72113 0.13775 0.96376 0.0
C934 C 0.70989 0.12771 0.90322 0.0
C935 C 0.69799 0.12302 0.96824 0.0
C936 C 0.70954 0.13176 0.98652 0.0
C937 C 0.69818 0.12075 0.92602 0.0
H938 H 0.73017 0.14162 0.90506 0.0
H939 H 0.70915 0.13379 0.01875 0.0
O940 O 0.7663 0.17292 0.01362 0.0
O941 O 0.73234 0.17224 0.99161 0.0
O942 O 0.75473 0.15085 0.94481 0.0
O943 O 0.7475 0.14495 0.03782 0.0
H944 H 0.76146 0.19951 0.05082 0.0
H945 H 0.78837 0.17669 0.95928 0.0
H946 H 0.7752 0.22375 0.03527 0.0
H947 H 0.80161 0.20136 0.9452 0.0
H948 H 0.68165 0.16627 0.0204 0.0
H949 H 0.7216 0.17632 0.91738 0.0
H950 H 0.70903 0.16733 0.04144 0.0
H951 H 0.694 0.17505 0.89849 0.0
H952 H 0.74368 0.22474 0.91705 0.0
H953 H 0.75788 0.19235 0.82485 0.0
H954 H 0.7595 0.18328 0.17603 0.0
H955 H 0.72366 0.20993 0.11835 0.0
H956 H 0.74968 0.12096 0.93684 0.0
H957 H 0.78149 0.15755 0.91091 0.0
H958 H 0.76742 0.1027 0.90307 0.0
H959 H 0.79877 0.1386 0.87807 0.0
H960 H 0.74536 0.11546 0.01821 0.0
H961 H 0.7279 0.15074 0.09735 0.0
H962 H 0.72833 0.09666 0.05233 0.0
H963 H 0.71108 0.13134 0.12985 0.0
H964 H 0.81935 0.14418 0.03708 0.0
H965 H 0.79299 0.10253 0.02033 0.0
H966 H 0.71025 0.12675 0.8705 0.0
H967 H 0.68917 0.11795 0.9871 0.0
Li968 Li 0.08848 0.51114 0.24417 0.0
Li969 Li 0.08643 0.48494 0.22579 0.0
Li970 Li 0.06709 0.50349 0.20498 0.0
Li971 Li 0.06865 0.49607 0.27782 0.0
C972 C 0.10066 0.50949 0.16968 0.0
N973 N 0.12493 0.5239 0.13137 0.0
C974 C 0.11434 0.5015 0.16254 0.0
C975 C 0.09927 0.52475 0.157 0.0
C976 C 0.12649 0.509 0.14318 0.0
C977 C 0.1117 0.53185 0.13782 0.0
C978 C 0.10498 0.4959 0.29872 0.0
C979 C 0.11943 0.50772 0.35277 0.0
N980 N 0.13272 0.50337 0.33438 0.0
C981 C 0.11879 0.49153 0.28038 0.0
C982 C 0.10529 0.504 0.33531 0.0
C983 C 0.1327 0.4954 0.29891 0.0
C984 C 0.09609 0.5389 0.28095 0.0
N985 N 0.10215 0.52762 0.25732 0.0
C986 C 0.12731 0.53819 0.26494 0.0
C987 C 0.11742 0.52723 0.24855 0.0
C988 C 0.12145 0.54961 0.29075 0.0
C989 C 0.10557 0.5501 0.29794 0.0
H990 H 0.08399 0.53879 0.28825 0.0
H991 H 0.1221 0.518 0.23059 0.0
C992 C 0.09426 0.46417 0.16633 0.0
N993 N 0.09611 0.46688 0.20657 0.0
C994 C 0.10148 0.45171 0.14802 0.0
C995 C 0.11229 0.44487 0.21313 0.0
C996 C 0.10461 0.45738 0.23035 0.0
C997 C 0.11097 0.44204 0.17122 0.0
H998 H 0.08728 0.47189 0.14835 0.0
H999 H 0.10573 0.45974 0.26242 0.0
C1000 C 0.05533 0.52658 0.24455 0.0
N1001 N 0.03139 0.54581 0.22345 0.0
C1002 C 0.04054 0.52379 0.25933 0.0
C1003 C 0.05798 0.5392 0.21933 0.0
C1004 C 0.02858 0.53364 0.24825 0.0
C1005 C 0.04571 0.54877 0.20892 0.0
C1006 C 0.06103 0.46816 0.22253 0.0
C1007 C 0.05601 0.46346 0.18425 0.0
C1008 C 0.06418 0.45719 0.25235 0.0
C1009 C 0.05427 0.44778 0.17637 0.0
C1010 C 0.06231 0.44163 0.24326 0.0
N1011 N 0.05744 0.43728 0.20577 0.0
C1012 C 0.05739 0.51265 0.12662 0.0
C1013 C 0.038 0.50313 0.17048 0.0
C1014 C 0.047 0.51323 0.09441 0.0
N1015 N 0.05275 0.50746 0.16349 0.0
C1016 C 0.02723 0.50355 0.13924 0.0
C1017 C 0.03178 0.50833 0.10036 0.0
H1018 H 0.06927 0.51576 0.12182 0.0
H1019 H 0.03478 0.4987 0.19994 0.0
C1020 C 0.05885 0.50407 0.3553 0.0
N1021 N 0.05653 0.49385 0.32477 0.0
C1022 C 0.04858 0.50482 0.38771 0.0
C1023 C 0.03379 0.48445 0.35666 0.0
C1024 C 0.04442 0.48401 0.32499 0.0
C1025 C 0.03567 0.49516 0.38815 0.0
H1026 H 0.0682 0.51219 0.35336 0.0
H1027 H 0.04261 0.47634 0.29965 0.0
O1028 O 0.08859 0.5023 0.18822 0.0
O1029 O 0.09125 0.49242 0.28069 0.0
O1030 O 0.06713 0.5169 0.25431 0.0
O1031 O 0.0632 0.48341 0.23051 0.0
H1032 H 0.11562 0.48969 0.17211 0.0
H1033 H 0.08875 0.53107 0.16214 0.0
H1034 H 0.13716 0.50299 0.13763 0.0
H1035 H 0.11082 0.54369 0.12806 0.0
H1036 H 0.11983 0.51409 0.38093 0.0
H1037 H 0.11881 0.48551 0.25171 0.0
H1038 H 0.09474 0.50751 0.3499 0.0
H1039 H 0.14346 0.49218 0.28489 0.0
H1040 H 0.13949 0.53747 0.25837 0.0
H1041 H 0.10059 0.55857 0.31811 0.0
H1042 H 0.09977 0.44979 0.1159 0.0
H1043 H 0.11955 0.43784 0.23223 0.0
H1044 H 0.03828 0.51404 0.27878 0.0
H1045 H 0.06938 0.54154 0.20783 0.0
H1046 H 0.01705 0.53158 0.25927 0.0
H1047 H 0.04758 0.55855 0.18928 0.0
H1048 H 0.05363 0.47182 0.16078 0.0
H1049 H 0.0682 0.46068 0.28202 0.0
H1050 H 0.05045 0.44396 0.14683 0.0
H1051 H 0.06478 0.433 0.26595 0.0
H1052 H 0.05093 0.51709 0.06496 0.0
H1053 H 0.0157 0.49943 0.14501 0.0
H1054 H 0.05027 0.51344 0.41098 0.0
H1055 H 0.02398 0.4768 0.35599 0.0
Li1056 Li 0.25364 0.17172 0.53614 0.0
Li1057 Li 0.235 0.15481 0.50954 0.0
Li1058 Li 0.26199 0.15123 0.4931 0.0
Li1059 Li 0.24759 0.17322 0.46619 0.0
C1060 C 0.24645 0.146 0.58444 0.0
N1061 N 0.23442 0.13882 0.65965 0.0
C1062 C 0.23618 0.15604 0.60346 0.0
C1063 C 0.25058 0.1323 0.60366 0.0
C1064 C 0.23023 0.15221 0.64148 0.0
C1065 C 0.24438 0.12888 0.64169 0.0
C1066 C 0.21996 0.18242 0.49737 0.0
C1067 C 0.19906 0.1804 0.44965 0.0
N1068 N 0.19208 0.19262 0.46764 0.0
C1069 C 0.2126 0.19496 0.51534 0.0
C1070 C 0.21316 0.17508 0.4642 0.0
C1071 C 0.1985 0.19994 0.49989 0.0
C1072 C 0.25436 0.19972 0.57358 0.0
N1073 N 0.25845 0.18488 0.58004 0.0
C1074 C 0.26627 0.19065 0.64772 0.0
C1075 C 0.26464 0.1802 0.61583 0.0
C1076 C 0.26167 0.20599 0.64221 0.0
C1077 C 0.25593 0.21054 0.60431 0.0
H1078 H 0.2495 0.20305 0.54471 0.0
H1079 H 0.26794 0.16832 0.61993 0.0
C1080 C 0.21549 0.12908 0.51112 0.0
N1081 N 0.21669 0.14405 0.5224 0.0
C1082 C 0.20332 0.12012 0.52539 0.0
C1083 C 0.19372 0.14229 0.56167 0.0
C1084 C 0.20597 0.15083 0.54649 0.0
C1085 C 0.19247 0.12665 0.55183 0.0
H1086 H 0.22433 0.12397 0.4924 0.0
H1087 H 0.20729 0.16269 0.55547 0.0
C1088 C 0.28068 0.17919 0.50982 0.0
N1089 N 0.30494 0.19207 0.55178 0.0
C1090 C 0.28488 0.19445 0.50276 0.0
C1091 C 0.28887 0.17044 0.53807 0.0
C1092 C 0.29716 0.20076 0.52433 0.0
C1093 C 0.30109 0.17717 0.559 0.0
C1094 C 0.2487 0.14649 0.41752 0.0
C1095 C 0.26198 0.15287 0.40057 0.0
C1096 C 0.2405 0.13537 0.39598 0.0
C1097 C 0.2668 0.14803 0.36223 0.0
C1098 C 0.24569 0.13085 0.35768 0.0
N1099 N 0.25862 0.13721 0.34176 0.0
C1100 C 0.27352 0.12142 0.4818 0.0
C1101 C 0.29068 0.14142 0.46351 0.0
C1102 C 0.28368 0.11038 0.46673 0.0
N1103 N 0.27714 0.13658 0.4795 0.0
C1104 C 0.30117 0.13081 0.44816 0.0
C1105 C 0.2976 0.11507 0.44899 0.0
H1106 H 0.26251 0.11798 0.494 0.0
H1107 H 0.29312 0.15357 0.46133 0.0
C1108 C 0.24894 0.20227 0.43503 0.0
N1109 N 0.24549 0.18768 0.4237 0.0
C1110 C 0.24883 0.21411 0.40665 0.0
C1111 C 0.241 0.19577 0.35555 0.0
C1112 C 0.24115 0.18428 0.38511 0.0
C1113 C 0.24507 0.21087 0.36617 0.0
H1114 H 0.25197 0.20464 0.4662 0.0
H1115 H 0.23791 0.17269 0.37711 0.0
O1116 O 0.25227 0.14931 0.54689 0.0
O1117 O 0.23382 0.17757 0.51223 0.0
O1118 O 0.26843 0.17288 0.48989 0.0
O1119 O 0.24389 0.15073 0.45541 0.0
H1120 H 0.23279 0.16667 0.58902 0.0
H1121 H 0.25847 0.12438 0.58923 0.0
H1122 H 0.22226 0.15987 0.6565 0.0
H1123 H 0.24747 0.11831 0.65691 0.0
H1124 H 0.19366 0.17483 0.42402 0.0
H1125 H 0.21773 0.20079 0.54099 0.0
H1126 H 0.21864 0.16537 0.44978 0.0
H1127 H 0.19267 0.20963 0.51354 0.0
H1128 H 0.27086 0.18676 0.67647 0.0
H1129 H 0.25207 0.2222 0.59898 0.0
H1130 H 0.20284 0.10806 0.51744 0.0
H1131 H 0.18551 0.14777 0.5817 0.0
H1132 H 0.27873 0.20137 0.48089 0.0
H1133 H 0.28568 0.15865 0.54418 0.0
H1134 H 0.30051 0.21257 0.51925 0.0
H1135 H 0.30747 0.17057 0.58111 0.0
H1136 H 0.26847 0.16151 0.41669 0.0
H1137 H 0.23025 0.13026 0.40879 0.0
H1138 H 0.27704 0.15288 0.34876 0.0
H1139 H 0.23945 0.12225 0.34066 0.0
H1140 H 0.28038 0.09839 0.4675 0.0
H1141 H 0.31184 0.1349 0.43519 0.0
H1142 H 0.25206 0.22558 0.41607 0.0
H1143 H 0.23774 0.1929 0.32477 0.0
Li1144 Li 0.5715 0.5027 0.2957 0.0
Li1145 Li 0.5885 0.4854 0.25838 0.0
Li1146 Li 0.58978 0.5122 0.24321 0.0
Li1147 Li 0.56785 0.4975 0.22529 0.0
C1148 C 0.60536 0.49561 0.31929 0.0
N1149 N 0.62756 0.48034 0.36365 0.0
C1150 C 0.6011 0.48464 0.34815 0.0
C1151 C 0.6209 0.49895 0.31334 0.0
C1152 C 0.61249 0.47701 0.37017 0.0
C1153 C 0.63195 0.49107 0.336 0.0
C1154 C 0.55655 0.4724 0.25537 0.0
C1155 C 0.55066 0.45176 0.20915 0.0
N1156 N 0.5357 0.45234 0.22101 0.0
C1157 C 0.54114 0.47275 0.26725 0.0
C1158 C 0.56138 0.4618 0.22618 0.0
C1159 C 0.53077 0.46253 0.24946 0.0
C1160 C 0.54505 0.50829 0.33778 0.0
N1161 N 0.56036 0.5064 0.34372 0.0
C1162 C 0.55694 0.5065 0.41554 0.0
C1163 C 0.56653 0.50593 0.38155 0.0
C1164 C 0.54095 0.50767 0.41024 0.0
C1165 C 0.53508 0.50895 0.37073 0.0
H1166 H 0.54054 0.50867 0.30723 0.0
H1167 H 0.57879 0.50467 0.38536 0.0
C1168 C 0.61539 0.46771 0.25084 0.0
N1169 N 0.60068 0.46755 0.26461 0.0
C1170 C 0.62549 0.45597 0.26172 0.0
C1171 C 0.60484 0.44376 0.29877 0.0
C1172 C 0.59515 0.45574 0.28726 0.0
C1173 C 0.62034 0.444 0.28691 0.0
H1174 H 0.61945 0.47737 0.23318 0.0
H1175 H 0.58347 0.4561 0.29838 0.0
C1176 C 0.56598 0.53214 0.26752 0.0
N1177 N 0.56253 0.56124 0.2998 0.0
C1178 C 0.55507 0.54222 0.25143 0.0
C1179 C 0.57509 0.53683 0.30019 0.0
C1180 C 0.55352 0.55689 0.26811 0.0
C1181 C 0.57318 0.55159 0.31603 0.0
C1182 C 0.59002 0.50052 0.16577 0.0
C1183 C 0.58193 0.51378 0.15483 0.0
C1184 C 0.59944 0.49328 0.13727 0.0
C1185 C 0.5834 0.51954 0.11549 0.0
C1186 C 0.6006 0.4994 0.09821 0.0
N1187 N 0.59262 0.5123 0.08823 0.0
C1188 C 0.61757 0.52239 0.2131 0.0
C1189 C 0.59908 0.54235 0.21607 0.0
C1190 C 0.62786 0.53196 0.19277 0.0
N1191 N 0.60348 0.52766 0.22412 0.0
C1192 C 0.60904 0.55235 0.19598 0.0
C1193 C 0.62356 0.54711 0.18345 0.0
H1194 H 0.62053 0.51049 0.21844 0.0
H1195 H 0.58767 0.54621 0.2236 0.0
C1196 C 0.5383 0.50273 0.19789 0.0
N1197 N 0.55161 0.49558 0.18753 0.0
C1198 C 0.5257 0.50227 0.17194 0.0
C1199 C 0.54071 0.48698 0.12518 0.0
C1200 C 0.55302 0.48765 0.15224 0.0
C1201 C 0.52684 0.49445 0.1348 0.0
H1202 H 0.53752 0.50879 0.22646 0.0
H1203 H 0.56371 0.48196 0.14499 0.0
O1204 O 0.59439 0.50285 0.29652 0.0
O1205 O 0.56681 0.48262 0.27148 0.0
O1206 O 0.56745 0.51771 0.25153 0.0
O1207 O 0.58903 0.4947 0.20426 0.0
H1208 H 0.58913 0.48176 0.35271 0.0
H1209 H 0.62441 0.50748 0.2914 0.0
H1210 H 0.60936 0.46836 0.39222 0.0
H1211 H 0.64403 0.49347 0.33154 0.0
H1212 H 0.55422 0.44356 0.18634 0.0
H1213 H 0.53721 0.48088 0.28977 0.0
H1214 H 0.57324 0.4615 0.21633 0.0
H1215 H 0.51879 0.46271 0.25822 0.0
H1216 H 0.56194 0.50571 0.44554 0.0
H1217 H 0.52284 0.5097 0.36516 0.0
H1218 H 0.63731 0.45649 0.25156 0.0
H1219 H 0.60044 0.43489 0.31866 0.0
H1220 H 0.5479 0.53874 0.22624 0.0
H1221 H 0.58356 0.52922 0.31324 0.0
H1222 H 0.54514 0.56483 0.2559 0.0
H1223 H 0.58016 0.55538 0.34126 0.0
H1224 H 0.57461 0.51961 0.17637 0.0
H1225 H 0.60583 0.48305 0.14532 0.0
H1226 H 0.57721 0.52979 0.10665 0.0
H1227 H 0.60785 0.49391 0.07586 0.0
H1228 H 0.63879 0.52731 0.18297 0.0
H1229 H 0.60528 0.56396 0.18967 0.0
H1230 H 0.51516 0.50793 0.18098 0.0
H1231 H 0.54217 0.48095 0.09671 0.0
Li1232 Li 0.23898 0.81603 0.02256 0.0
Li1233 Li 0.25778 0.83574 0.00741 0.0
Li1234 Li 0.23212 0.83777 0.97577 0.0
Li1235 Li 0.25028 0.81876 0.95519 0.0
C1236 C 0.22489 0.84243 0.05678 0.0
N1237 N 0.19898 0.85085 0.0998 0.0
C1238 C 0.22548 0.85472 0.08397 0.0
C1239 C 0.21111 0.83443 0.05137 0.0
C1240 C 0.21226 0.85879 0.10548 0.0
C1241 C 0.19814 0.83886 0.07342 0.0
C1242 C 0.27407 0.81131 0.02532 0.0
C1243 C 0.30173 0.81001 0.02412 0.0
N1244 N 0.30183 0.80832 0.06513 0.0
C1245 C 0.27442 0.80943 0.06741 0.0
C1246 C 0.28781 0.81149 0.00342 0.0
C1247 C 0.28858 0.80798 0.08699 0.0
C1248 C 0.23644 0.78671 0.05378 0.0
N1249 N 0.23373 0.80165 0.06333 0.0
C1250 C 0.23013 0.79515 0.13303 0.0
C1251 C 0.23046 0.80603 0.10196 0.0
C1252 C 0.23345 0.7797 0.12429 0.0
C1253 C 0.23623 0.77546 0.08387 0.0
H1254 H 0.23979 0.78369 0.02326 0.0
H1255 H 0.22903 0.81804 0.10926 0.0
C1256 C 0.28531 0.85365 0.01373 0.0
N1257 N 0.27356 0.84679 0.03393 0.0
C1258 C 0.29667 0.86153 0.0352 0.0
C1259 C 0.2836 0.85505 0.09763 0.0
C1260 C 0.2725 0.84736 0.07499 0.0
C1261 C 0.29586 0.86235 0.07775 0.0
H1262 H 0.2858 0.85312 0.98105 0.0
H1263 H 0.26302 0.84173 0.09016 0.0
C1264 C 0.22244 0.80777 0.93676 0.0
N1265 N 0.21204 0.79185 0.8696 0.0
C1266 C 0.21775 0.81572 0.90205 0.0
C1267 C 0.22177 0.79172 0.93733 0.0
C1268 C 0.21251 0.80747 0.86845 0.0
C1269 C 0.21653 0.78389 0.90304 0.0
C1270 C 0.25884 0.84375 0.91365 0.0
C1271 C 0.25015 0.85045 0.88268 0.0
C1272 C 0.27403 0.83942 0.90609 0.0
C1273 C 0.2568 0.85261 0.84453 0.0
C1274 C 0.28026 0.84175 0.86753 0.0
N1275 N 0.27159 0.84824 0.8378 0.0
C1276 C 0.22079 0.86623 0.95101 0.0
C1277 C 0.2018 0.84673 0.95434 0.0
C1278 C 0.21021 0.87652 0.93459 0.0
N1279 N 0.21651 0.85157 0.9595 0.0
C1280 C 0.19081 0.85667 0.93812 0.0
C1281 C 0.19507 0.87168 0.92721 0.0
H1282 H 0.23256 0.86975 0.95581 0.0
H1283 H 0.19873 0.835 0.96153 0.0
C1284 C 0.26282 0.79226 0.92098 0.0
N1285 N 0.25649 0.80602 0.91096 0.0
C1286 C 0.26483 0.78093 0.89153 0.0
C1287 C 0.25437 0.79837 0.84164 0.0
C1288 C 0.25254 0.80934 0.87203 0.0
C1289 C 0.26019 0.78379 0.85145 0.0
H1290 H 0.26556 0.78978 0.95228 0.0
H1291 H 0.247 0.82007 0.86487 0.0
O1292 O 0.2377 0.83848 0.03514 0.0
O1293 O 0.26035 0.81311 0.00568 0.0
O1294 O 0.22788 0.81564 0.96972 0.0
O1295 O 0.25256 0.84166 0.95129 0.0
H1296 H 0.23605 0.86106 0.08836 0.0
H1297 H 0.21043 0.82487 0.0305 0.0
H1298 H 0.21255 0.86828 0.12666 0.0
H1299 H 0.18741 0.83277 0.06957 0.0
H1300 H 0.31247 0.8102 0.00757 0.0
H1301 H 0.2639 0.80931 0.08487 0.0
H1302 H 0.28772 0.81275 0.9708 0.0
H1303 H 0.28903 0.80664 0.11958 0.0
H1304 H 0.2279 0.79889 0.16381 0.0
H1305 H 0.23919 0.76376 0.07592 0.0
H1306 H 0.3058 0.86719 0.01861 0.0
H1307 H 0.28262 0.85519 0.13037 0.0
H1308 H 0.21851 0.8281 0.90061 0.0
H1309 H 0.22534 0.78536 0.96383 0.0
H1310 H 0.20896 0.81347 0.8413 0.0
H1311 H 0.21605 0.77147 0.90299 0.0
H1312 H 0.23834 0.85378 0.8878 0.0
H1313 H 0.2809 0.83419 0.92962 0.0
H1314 H 0.25019 0.85771 0.82024 0.0
H1315 H 0.29198 0.83837 0.86122 0.0
H1316 H 0.21388 0.88808 0.92728 0.0
H1317 H 0.17927 0.85247 0.93277 0.0
H1318 H 0.26948 0.76987 0.9003 0.0
H1319 H 0.25034 0.80098 0.81134 0.0
Li1320 Li 0.92052 0.49213 0.7707 0.0
Li1321 Li 0.89988 0.5091 0.74997 0.0
Li1322 Li 0.89965 0.48233 0.72454 0.0
Li1323 Li 0.91777 0.50081 0.70066 0.0
C1324 C 0.89447 0.47779 0.80676 0.0
N1325 N 0.88683 0.45321 0.85576 0.0
C1326 C 0.88228 0.47901 0.83413 0.0
C1327 C 0.90276 0.46406 0.80418 0.0
C1328 C 0.87861 0.46646 0.8587 0.0
C1329 C 0.89872 0.45177 0.82924 0.0
C1330 C 0.92315 0.52735 0.76537 0.0
C1331 C 0.9227 0.55492 0.75818 0.0
N1332 N 0.92414 0.5564 0.79907 0.0
C1333 C 0.92476 0.52913 0.80728 0.0
C1334 C 0.92223 0.54033 0.74055 0.0
C1335 C 0.92518 0.54392 0.82375 0.0
C1336 C 0.94945 0.49306 0.80488 0.0
N1337 N 0.93472 0.48907 0.81351 0.0
C1338 C 0.94082 0.48635 0.88375 0.0
C1339 C 0.93025 0.48569 0.85201 0.0
C1340 C 0.95605 0.49079 0.87587 0.0
C1341 C 0.96038 0.4939 0.83567 0.0
H1342 H 0.95249 0.49646 0.7744 0.0
H1343 H 0.91836 0.48322 0.85863 0.0
C1344 C 0.87938 0.53489 0.74863 0.0
N1345 N 0.88749 0.5249 0.77195 0.0
C1346 C 0.87019 0.5461 0.76688 0.0
C1347 C 0.87804 0.53653 0.83257 0.0
C1348 C 0.88696 0.52548 0.81309 0.0
C1349 C 0.86944 0.54698 0.80941 0.0
H1350 H 0.87991 0.53407 0.71599 0.0
H1351 H 0.89343 0.51725 0.83078 0.0
C1352 C 0.93108 0.47332 0.69068 0.0
N1353 N 0.9493 0.4619 0.62893 0.0
C1354 C 0.92436 0.4664 0.65678 0.0
C1355 C 0.94707 0.47434 0.69325 0.0
C1356 C 0.93376 0.46069 0.62591 0.0
C1357 C 0.95608 0.46856 0.66166 0.0
C1358 C 0.89263 0.50652 0.65623 0.0
C1359 C 0.88671 0.49649 0.62704 0.0
C1360 C 0.89607 0.52167 0.64553 0.0
C1361 C 0.88445 0.50177 0.58747 0.0
C1362 C 0.89367 0.52651 0.60563 0.0
N1363 N 0.88796 0.51654 0.57767 0.0
C1364 C 0.87197 0.46899 0.70219 0.0
C1365 C 0.89234 0.45103 0.70812 0.0
C1366 C 0.86221 0.45763 0.68726 0.0
N1367 N 0.88681 0.46559 0.71116 0.0
C1368 C 0.88296 0.43928 0.69334 0.0
C1369 C 0.86779 0.44263 0.68174 0.0
H1370 H 0.8679 0.48067 0.7053 0.0
H1371 H 0.9042 0.44866 0.71575 0.0
C1372 C 0.94341 0.51407 0.66302 0.0
N1373 N 0.93031 0.50612 0.65519 0.0
C1374 C 0.9546 0.51575 0.633 0.0
C1375 C 0.93833 0.50154 0.58699 0.0
C1376 C 0.92748 0.50016 0.61782 0.0
C1377 C 0.95229 0.50908 0.59467 0.0
H1378 H 0.94552 0.51845 0.69319 0.0
H1379 H 0.91729 0.49342 0.61255 0.0
O1380 O 0.89803 0.48993 0.78213 0.0
O1381 O 0.92238 0.51298 0.74873 0.0
O1382 O 0.92204 0.47921 0.72093 0.0
O1383 O 0.89484 0.50158 0.69517 0.0
H1384 H 0.87572 0.48955 0.83632 0.0
H1385 H 0.91225 0.46291 0.78322 0.0
H1386 H 0.8692 0.46724 0.88007 0.0
H1387 H 0.90504 0.44108 0.82761 0.0
H1388 H 0.92193 0.56507 0.73935 0.0
H1389 H 0.92544 0.51922 0.82698 0.0
H1390 H 0.92117 0.53915 0.70802 0.0
H1391 H 0.9263 0.54547 0.85616 0.0
H1392 H 0.93701 0.48381 0.9143 0.0
H1393 H 0.97189 0.49774 0.82833 0.0
H1394 H 0.86378 0.55399 0.74797 0.0
H1395 H 0.87758 0.53665 0.86539 0.0
H1396 H 0.91201 0.4658 0.65375 0.0
H1397 H 0.95249 0.47963 0.71918 0.0
H1398 H 0.9287 0.45543 0.59937 0.0
H1399 H 0.96847 0.46938 0.66315 0.0
H1400 H 0.88406 0.4847 0.63465 0.0
H1401 H 0.90065 0.52958 0.6677 0.0
H1402 H 0.87995 0.49411 0.56453 0.0
H1403 H 0.89636 0.53818 0.59689 0.0
H1404 H 0.8505 0.46063 0.67946 0.0
H1405 H 0.88773 0.42787 0.68944 0.0
H1406 H 0.96513 0.5218 0.64011 0.0
H1407 H 0.93616 0.49594 0.55824 0.0
H1408 H 0.26669 0.26508 0.15401 0.0
H1409 H 0.23452 0.24042 0.37185 0.0
H1410 H 0.23661 0.29356 0.22598 0.0
H1411 H 0.25765 0.20927 0.29031 0.0
H1412 H 0.23705 0.26083 0.32135 0.0
H1413 H 0.2658 0.24543 0.20693 0.0
C1414 C 0.26008 0.26728 0.18124 0.0
C1415 C 0.25168 0.28094 0.18563 0.0
C1416 C 0.24155 0.24953 0.31447 0.0
C1417 C 0.25041 0.25845 0.24594 0.0
C1418 C 0.24014 0.2379 0.3433 0.0
C1419 C 0.24586 0.22314 0.33517 0.0
C1420 C 0.24883 0.24641 0.27736 0.0
C1421 C 0.25291 0.22044 0.29757 0.0
C1422 C 0.25945 0.25601 0.21123 0.0
C1423 C 0.24312 0.28311 0.22124 0.0
N1424 N 0.25424 0.23198 0.27009 0.0
N1425 N 0.24268 0.27196 0.25002 0.0
H1426 H 0.98328 0.00998 0.38386 0.0
H1427 H 0.00672 0.98511 0.60906 0.0
H1428 H 0.95037 -0.00356 0.47511 0.0
H1429 H 0.03919 0.00056 0.51889 0.0
H1430 H 0.98596 0.98857 0.56005 0.0
H1431 H 0.00385 0.00679 0.43322 0.0
C1432 C 0.98034 0.00656 0.41447 0.0
C1433 C 0.96504 0.00352 0.42537 0.0
C1434 C -0.00237 0.99117 0.55094 0.0
C1435 C 0.98865 -0.00052 0.48188 0.0
C1436 C 0.0095 0.98904 0.57877 0.0
C1437 C 0.02471 0.99253 0.568 0.0
C1438 C 0.00098 -0.0032 0.51203 0.0
C1439 C 0.02761 -0.00212 0.52859 0.0
C1440 C 0.99213 0.00459 0.44256 0.0
C1441 C 0.962 -0.00123 0.46527 0.0
N1442 N 0.01585 -0.00014 0.50205 0.0
N1443 N 0.9737 -0.00315 0.49205 0.0
H1444 H 0.25596 0.73373 0.62595 0.0
H1445 H 0.25179 0.75377 0.86221 0.0
H1446 H 0.24251 0.701 0.71766 0.0
H1447 H 0.26782 0.78548 0.77083 0.0
H1448 H 0.24924 0.73398 0.81024 0.0
H1449 H 0.26068 0.75271 0.67888 0.0
C1450 C 0.25387 0.73057 0.65724 0.0
C1451 C 0.2487 0.71579 0.6674 0.0
C1452 C 0.25343 0.74523 0.80159 0.0
C1453 C 0.25432 0.73742 0.72828 0.0
C1454 C 0.25502 0.75651 0.83132 0.0
C1455 C 0.26003 0.77132 0.82085 0.0
C1456 C 0.2568 0.74879 0.76104 0.0
C1457 C 0.26374 0.77428 0.78017 0.0
C1458 C 0.2567 0.74138 0.68749 0.0
C1459 C 0.24655 0.71224 0.70852 0.0
N1460 N 0.26198 0.76313 0.75173 0.0
N1461 N 0.24932 0.723 0.73747 0.0
H1462 H 0.44783 0.00355 0.0141 0.0
H1463 H 0.53852 -0.0012 0.97508 0.0
H1464 H 0.48157 0.0032 0.11007 0.0
H1465 H 0.50451 0.99179 0.88169 0.0
H1466 H 0.51785 0.00235 0.02453 0.0
H1467 H 0.46856 0.0013 0.96444 0.0
C1468 C 0.45959 0.00306 0.02473 0.0
C1469 C 0.46295 0.00356 0.06634 0.0
C1470 C 0.51492 -1e-05 0.99324 0.0
C1471 C 0.48673 0.00102 0.00967 0.0
C1472 C 0.5267 -0.00201 0.96502 0.0
C1473 C 0.52322 0.99491 0.92429 0.0
C1474 C 0.49954 -0.00098 0.98056 0.0
C1475 C 0.50771 0.9939 0.91291 0.0
C1476 C 0.47142 0.00179 -0.00363 0.0
C1477 C 0.47843 0.00309 0.07831 0.0
N1478 N 0.49645 -0.00401 0.94088 0.0
N1479 N 0.48973 0.00179 0.05013 0.0
H1480 H 0.22424 0.74952 0.12656 0.0
H1481 H 0.26353 0.73345 0.34203 0.0
H1482 H 0.24791 0.78398 0.19696 0.0
H1483 H 0.23873 0.69898 0.27442 0.0
H1484 H 0.25843 0.75193 0.28803 0.0
H1485 H 0.2297 0.73066 0.17968 0.0
C1486 C 0.23053 0.75312 0.15325 0.0
C1487 C 0.23556 0.76837 0.1574 0.0
C1488 C 0.25415 0.74031 0.28489 0.0
C1489 C 0.24189 0.74687 0.21817 0.0
C1490 C 0.25704 0.72976 0.31575 0.0
C1491 C 0.2515 0.71467 0.3128 0.0
C1492 C 0.24562 0.73576 0.25079 0.0
C1493 C 0.24336 0.71046 0.27777 0.0
C1494 C 0.23364 0.74236 0.18355 0.0
C1495 C 0.24357 0.77244 0.19275 0.0
N1496 N 0.2406 0.72098 0.2482 0.0
N1497 N 0.24652 0.76174 0.22167 0.0
H1498 H 0.45296 -0.00109 0.4562 0.0
H1499 H 0.54052 -0.00258 0.52967 0.0
H1500 H 0.49068 0.9843 0.3804 0.0
H1501 H 0.50304 0.01394 0.60358 0.0
H1502 H 0.52255 0.99319 0.47403 0.0
H1503 H 0.47115 0.00445 0.51059 0.0
C1504 C 0.46506 -0.00328 0.45113 0.0
C1505 C 0.47031 0.99106 0.41375 0.0
C1506 C 0.51826 -0.00218 0.50234 0.0
C1507 C 0.49123 -0.00237 0.47569 0.0
C1508 C 0.52854 0.00038 0.53403 0.0
C1509 C 0.52328 0.00604 0.57141 0.0
C1510 C 0.50257 0.00091 0.50803 0.0
C1511 C 0.50757 0.00937 0.57549 0.0
C1512 C 0.47546 2e-05 0.48208 0.0
C1513 C 0.48615 0.98876 0.40862 0.0
N1514 N 0.49777 0.0067 0.54425 0.0
N1515 N 0.49605 0.99203 0.43927 0.0
H1516 H 0.27107 0.23597 0.64149 0.0
H1517 H 0.23754 0.25367 0.86245 0.0
H1518 H 0.25197 0.20123 0.72005 0.0
H1519 H 0.25873 0.28786 0.78588 0.0
H1520 H 0.24324 0.23414 0.81136 0.0
H1521 H 0.26773 0.25493 0.6954 0.0
C1522 C 0.26629 0.23233 0.67026 0.0
C1523 C 0.2617 0.21705 0.67628 0.0
C1524 C 0.24667 0.24591 0.80576 0.0
C1525 C 0.25774 0.23866 0.738 0.0
C1526 C 0.24329 0.25708 0.83474 0.0
C1527 C 0.24762 0.27242 0.82831 0.0
C1528 C 0.25438 0.25011 0.77002 0.0
C1529 C 0.2553 0.27615 0.79221 0.0
C1530 C 0.26438 0.24314 0.70102 0.0
C1531 C 0.25575 0.21287 0.71426 0.0
N1532 N 0.2584 0.26508 0.76438 0.0
N1533 N 0.2538 0.22366 0.74359 0.0
H1534 H 0.02916 0.02077 0.94864 0.0
H1535 H 0.96833 0.96381 0.05177 0.0
H1536 H 0.01836 0.97576 0.90159 0.0
H1537 H 0.98197 0.00731 0.10331 0.0
H1538 H 0.98641 0.96801 -0.00403 0.0
H1539 H 0.01177 0.01606 0.00548 0.0
C1540 C 0.02317 0.00989 0.95032 0.0
C1541 C 0.02517 -0.00132 0.92018 0.0
C1542 C 0.9855 0.97659 0.01963 0.0
C1543 C 0.00517 0.99324 0.98499 0.0
C1544 C 0.97515 0.97421 0.05138 0.0
C1545 C 0.9737 0.98518 0.08232 0.0
C1546 C 0.99436 0.99009 0.0187 0.0
C1547 C 0.9829 -0.00158 0.08048 0.0
C1548 C 0.0132 0.00721 0.9827 0.0
C1549 C 0.01697 0.98484 0.92371 0.0
N1550 N 0.99279 0.00052 0.04916 0.0
N1551 N 0.00733 0.98252 0.95548 0.0
H1552 H 0.76968 0.72938 0.85126 0.0
H1553 H 0.74014 0.76048 0.63776 0.0
H1554 H 0.72892 0.71235 0.79156 0.0
H1555 H 0.77109 0.78634 0.71384 0.0
H1556 H 0.73813 0.74098 0.69062 0.0
H1557 H 0.77228 0.74886 0.79843 0.0
C1558 C 0.7612 0.72978 0.82727 0.0
C1559 C 0.74901 0.71919 0.82604 0.0
C1560 C 0.74538 0.7509 0.69578 0.0
C1561 C 0.75217 0.74128 0.76501 0.0
C1562 C 0.74664 0.76197 0.6655 0.0
C1563 C 0.75588 0.77498 0.67139 0.0
C1564 C 0.75349 0.75279 0.73218 0.0
C1565 C 0.76381 0.77648 0.70821 0.0
C1566 C 0.76276 0.74086 0.79701 0.0
C1567 C 0.73862 0.72009 0.79357 0.0
N1568 N 0.76248 0.76546 0.73724 0.0
N1569 N 0.74046 0.73091 0.76432 0.0
H1570 H 0.75219 0.28411 0.27904 0.0
H1571 H 0.745 0.19396 0.23406 0.0
H1572 H 0.75111 0.24971 0.37329 0.0
H1573 H 0.74188 0.22923 0.14241 0.0
H1574 H 0.74862 0.21395 0.28551 0.0
H1575 H 0.75002 0.26383 0.22831 0.0
C1576 C 0.75152 0.27227 0.28905 0.0
C1577 C 0.75173 0.26861 0.33048 0.0
C1578 C 0.74709 0.21729 0.25414 0.0
C1579 C 0.74928 0.2453 0.27252 0.0
C1580 C 0.74505 0.2059 0.2248 0.0
C1581 C 0.74301 0.20994 0.18394 0.0
C1582 C 0.74721 0.23282 0.24245 0.0
C1583 C 0.74311 0.22559 0.17363 0.0
C1584 C 0.75031 0.26069 0.26007 0.0
C1585 C 0.75112 0.25305 0.34167 0.0
N1586 N 0.7452 0.23643 0.20265 0.0
N1587 N 0.74984 0.24196 0.31285 0.0
H1588 H 0.75827 0.24071 0.8673 0.0
H1589 H 0.71627 0.25866 0.65667 0.0
H1590 H 0.73561 0.20624 0.79476 0.0
H1591 H 0.74675 0.29058 0.71647 0.0
H1592 H 0.721 0.2401 0.71081 0.0
H1593 H 0.75206 0.25995 0.8157 0.0
C1594 C 0.75199 0.23721 0.84049 0.0
C1595 C 0.74752 0.22186 0.83514 0.0
C1596 C 0.72658 0.2512 0.71215 0.0
C1597 C 0.74032 0.24376 0.77618 0.0
C1598 C 0.72391 0.2618 0.68123 0.0
C1599 C 0.73116 0.2762 0.68186 0.0
C1600 C 0.73656 0.25503 0.74405 0.0
C1601 C 0.74074 0.27972 0.71489 0.0
C1602 C 0.74848 0.24817 0.81104 0.0
C1603 C 0.73948 0.2179 0.79977 0.0
N1604 N 0.7432 0.26918 0.74455 0.0
N1605 N 0.7361 0.2288 0.77168 0.0
H1606 H 0.72023 0.72599 0.15287 0.0
H1607 H 0.75656 0.75895 0.35735 0.0
H1608 H 0.75924 0.70559 0.21307 0.0
H1609 H 0.71367 0.77515 0.30724 0.0
H1610 H 0.75777 0.73943 0.30455 0.0
H1611 H 0.71779 0.74434 0.20857 0.0
C1612 C 0.7283 0.7254 0.17782 0.0
C1613 C 0.74001 0.71432 0.17828 0.0
C1614 C 0.74805 0.7472 0.30519 0.0
C1615 C 0.73725 0.73521 0.24218 0.0
C1616 C 0.74729 0.7583 0.33553 0.0
C1617 C 0.73495 0.7687 0.33689 0.0
C1618 C 0.73645 0.7465 0.27571 0.0
C1619 C 0.72348 0.76751 0.30712 0.0
C1620 C 0.72685 0.73582 0.2097 0.0
C1621 C 0.74999 0.71389 0.21164 0.0
N1622 N 0.72454 0.75663 0.27768 0.0
N1623 N 0.74844 0.72426 0.24216 0.0
H1624 H 0.50694 0.51799 0.11742 0.0
H1625 H 0.46705 0.47415 0.9341 0.0
H1626 H 0.51694 0.47084 0.08615 0.0
H1627 H 0.44939 0.51662 0.98352 0.0
H1628 H 0.48551 0.4729 0.98927 0.0
H1629 H 0.48601 0.51794 0.06825 0.0
C1630 C 0.50465 0.50756 0.10057 0.0
C1631 C 0.51377 0.4944 0.10591 0.0
C1632 C 0.47752 0.48243 0.98827 0.0
C1633 C 0.48997 0.49439 0.049 0.0
C1634 C 0.46686 0.48312 0.95687 0.0
C1635 C 0.45656 0.49551 0.95408 0.0
C1636 C 0.47807 0.49431 0.01697 0.0
C1637 C 0.45722 0.50696 0.98405 0.0
C1638 C 0.49272 0.50758 0.07235 0.0
C1639 C 0.51041 0.48134 0.08259 0.0
N1640 N 0.46787 0.50613 0.01412 0.0
N1641 N 0.49883 0.48169 0.05502 0.0
H1642 H 0.03946 0.49889 0.4701 0.0
H1643 H 0.9499 0.51226 0.51207 0.0
H1644 H 0.0046 0.49631 0.37735 0.0
H1645 H 0.98312 0.50484 0.60731 0.0
H1646 H 0.9703 0.50906 0.46191 0.0
H1647 H 0.01937 0.50347 0.5207 0.0
C1648 C 0.02758 0.49926 0.46044 0.0
C1649 C 0.02367 0.49712 0.41956 0.0
C1650 C 0.97313 0.5082 0.4938 0.0
C1651 C 0.00068 0.50246 0.47705 0.0
C1652 C 0.96148 0.51001 0.52246 0.0
C1653 C 0.96477 0.50877 0.56401 0.0
C1654 C 0.9882 0.50517 0.50672 0.0
C1655 C 0.98006 0.5061 0.57568 0.0
C1656 C 0.01612 0.50185 0.48929 0.0
C1657 C 0.00809 0.49766 0.40865 0.0
N1658 N 0.9912 0.50434 0.54718 0.0
N1659 N -0.00283 0.50033 0.4372 0.0
H1660 H 0.03783 0.49772 0.0239 0.0
H1661 H 0.95052 0.50394 0.9499 0.0
H1662 H 0.00112 0.51562 0.09824 0.0
H1663 H 0.98675 0.4836 0.87828 0.0
H1664 H 0.969 0.50891 0.00391 0.0
H1665 H 0.01953 0.49373 0.96887 0.0
C1666 C 0.02595 0.50101 0.02847 0.0
C1667 C 0.021 0.50703 0.06575 0.0
C1668 C 0.97291 0.50333 0.97643 0.0
C1669 C -8e-05 0.5022 0.00309 0.0
C1670 C 0.96233 0.50035 0.94569 0.0
C1671 C 0.96707 0.49326 0.90955 0.0
C1672 C 0.98837 0.49921 0.97104 0.0
C1673 C 0.98261 0.48921 0.90547 0.0
C1674 C 0.01548 0.49859 -0.00285 0.0
C1675 C 0.00541 0.5108 0.07017 0.0
N1676 N 0.99271 0.49225 0.93585 0.0
N1677 N -0.00458 0.5083 0.03924 0.0
H1678 H 0.4908 0.47528 0.62042 0.0
H1679 H 0.51454 0.524 0.42421 0.0
H1680 H 0.4608 0.50757 0.56042 0.0
H1681 H 0.54288 0.48819 0.47528 0.0
H1682 H 0.49555 0.51947 0.47735 0.0
H1683 H 0.51075 0.48092 0.57027 0.0
C1684 C 0.48841 0.48353 0.59664 0.0
C1685 C 0.47409 0.4909 0.59445 0.0
C1686 C 0.50596 0.51265 0.47708 0.0
C1687 C 0.49685 0.49746 0.53716 0.0
C1688 C 0.5168 0.51523 0.44674 0.0
C1689 C 0.53028 0.50639 0.44513 0.0
C1690 C 0.50858 0.50113 0.50609 0.0
C1691 C 0.53273 0.49537 0.47554 0.0
C1692 C 0.49978 0.48673 0.56803 0.0
C1693 C 0.47157 0.50142 0.56288 0.0
N1694 N 0.52193 0.49298 0.50463 0.0
N1695 N 0.48285 0.50441 0.53556 0.0
H1696 H 0.1184 0.41339 0.20113 0.0
H1697 H 0.16479 0.38776 0.00312 0.0
H1698 H 0.12433 0.44236 0.09584 0.0
H1699 H 0.17231 0.36763 0.12125 0.0
H1700 H 0.14601 0.40523 0.03328 0.0
H1701 H 0.1345 0.39388 0.16872 0.0
C1702 C 0.12305 0.41569 0.17128 0.0
C1703 C 0.11999 0.42962 0.15134 0.0
C1704 C 0.15173 0.39691 0.05246 0.0
C1705 C 0.13815 0.40719 0.11385 0.0
C1706 C 0.1625 0.38697 0.03533 0.0
C1707 C 0.17028 0.37625 0.05965 0.0
C1708 C 0.1486 0.39606 0.09416 0.0
C1709 C 0.16651 0.37555 0.1011 0.0
C1710 C 0.13216 0.4045 0.15274 0.0
C1711 C 0.1261 0.43175 0.11225 0.0
N1712 N 0.15598 0.38535 0.11705 0.0
N1713 N 0.13489 0.42068 0.09486 0.0
H1714 H 0.81564 0.86429 0.37048 0.0
H1715 H 0.84597 0.95083 0.35306 0.0
H1716 H 0.79995 0.90137 0.44692 0.0
H1717 H 0.86437 0.9134 0.28219 0.0
H1718 H 0.82866 0.93287 0.38667 0.0
H1719 H 0.83341 0.88203 0.33721 0.0
C1720 C 0.81594 0.87616 0.38028 0.0
C1721 C 0.80628 0.88136 0.41149 0.0
C1722 C 0.83646 0.92856 0.36375 0.0
C1723 C 0.82659 0.90171 0.37361 0.0
C1724 C 0.84627 0.93884 0.34428 0.0
C1725 C 0.85658 0.93362 0.31458 0.0
C1726 C 0.83691 0.91291 0.35347 0.0
C1727 C 0.85668 0.91789 0.3051 0.0
C1728 C 0.82612 0.88627 0.36137 0.0
C1729 C 0.8073 0.89682 0.42332 0.0
N1730 N 0.84697 0.90809 0.32443 0.0
N1731 N 0.81722 0.90645 0.40424 0.0
H1732 H 0.29471 0.59152 0.58406 0.0
H1733 H 0.3817 0.57529 0.64995 0.0
H1734 H 0.33282 0.61958 0.54491 0.0
H1735 H 0.3431 0.54718 0.68538 0.0
H1736 H 0.36416 0.59196 0.6121 0.0
H1737 H 0.31248 0.57527 0.62148 0.0
C1738 C 0.30686 0.59416 0.58289 0.0
C1739 C 0.31228 0.60688 0.56099 0.0
C1740 C 0.35954 0.58217 0.62831 0.0
C1741 C 0.33275 0.58844 0.60467 0.0
C1742 C 0.36954 0.57264 0.64984 0.0
C1743 C 0.36386 0.55983 0.67097 0.0
C1744 C 0.34375 0.57885 0.62782 0.0
C1745 C 0.34798 0.55705 0.67011 0.0
C1746 C 0.317 0.58495 0.60463 0.0
C1747 C 0.32812 0.60995 0.56157 0.0
N1748 N 0.33852 0.56644 0.64882 0.0
N1749 N 0.33781 0.60079 0.58305 0.0
H1750 H 0.66735 0.1181 0.94381 0.0
H1751 H 0.65007 0.06052 0.7607 0.0
H1752 H 0.70218 0.10115 0.8618 0.0
H1753 H 0.61966 0.06588 0.8633 0.0
H1754 H 0.66803 0.07839 0.7924 0.0
H1755 H 0.64848 0.10169 0.91001 0.0
C1756 C 0.67107 0.11091 0.91886 0.0
C1757 C 0.68643 0.11104 0.9057 0.0
C1758 C 0.6574 0.07568 0.80788 0.0
C1759 C 0.6648 0.09249 0.86646 0.0
C1760 C 0.64715 0.06544 0.78987 0.0
C1761 C 0.63335 0.06157 0.80944 0.0
C1762 C 0.6538 0.08222 0.84562 0.0
C1763 C 0.63006 0.06862 0.84682 0.0
C1764 C 0.66026 0.10162 0.89945 0.0
C1765 C 0.69046 0.10167 0.87265 0.0
N1766 N 0.64023 0.07857 0.86374 0.0
N1767 N 0.67972 0.09281 0.85418 0.0
H1768 H 0.11764 0.58046 0.30504 0.0
H1769 H 0.19639 0.58828 0.42866 0.0
H1770 H 0.14897 0.54287 0.32645 0.0
H1771 H 0.16531 0.62619 0.40853 0.0
H1772 H 0.17867 0.57137 0.39292 0.0
H1773 H 0.13466 0.5974 0.34361 0.0
C1774 C 0.1281 0.57578 0.31783 0.0
C1775 C 0.13193 0.56025 0.31233 0.0
C1776 C 0.17568 0.58337 0.39644 0.0
C1777 C 0.15144 0.57954 0.35644 0.0
C1778 C 0.18573 0.59302 0.4172 0.0
C1779 C 0.18232 0.60869 0.4217 0.0
C1780 C 0.16209 0.58941 0.37991 0.0
C1781 C 0.16848 0.61422 0.4054 0.0
C1782 C 0.13782 0.58545 0.33977 0.0
C1783 C 0.14569 0.55482 0.3293 0.0
N1784 N 0.15888 0.6046 0.38515 0.0
N1785 N 0.15492 0.56444 0.35061 0.0
H1786 H 0.61994 0.91233 0.70424 0.0
H1787 H 0.67359 0.89456 0.51251 0.0
H1788 H 0.62903 0.94451 0.60742 0.0
H1789 H 0.67209 0.86561 0.61876 0.0
H1790 H 0.65459 0.91145 0.54365 0.0
H1791 H 0.63671 0.89365 0.67053 0.0
C1792 C 0.62543 0.91548 0.67596 0.0
C1793 C 0.62301 0.93003 0.65863 0.0
C1794 C 0.65836 0.90137 0.56012 0.0
C1795 C 0.64201 0.90866 0.61975 0.0
C1796 C 0.66924 0.89174 0.54238 0.0
C1797 C 0.67454 0.87872 0.56318 0.0
C1798 C 0.6527 0.89799 0.59901 0.0
C1799 C 0.66825 0.87547 0.60149 0.0
C1800 C 0.63493 0.90478 0.65665 0.0
C1801 C 0.63028 0.93337 0.62162 0.0
N1802 N 0.65773 0.8851 0.6183 0.0
N1803 N 0.63944 0.92279 0.60352 0.0
H1804 H 0.36767 0.41183 0.80111 0.0
H1805 H 0.28783 0.404 0.91835 0.0
H1806 H 0.33959 0.4508 0.83426 0.0
H1807 H 0.32233 0.36829 0.9175 0.0
H1808 H 0.30559 0.42082 0.88223 0.0
H1809 H 0.34987 0.39503 0.83745 0.0
C1810 C 0.35778 0.41688 0.81595 0.0
C1811 C 0.35517 0.4328 0.81455 0.0
C1812 C 0.30927 0.40931 0.8901 0.0
C1813 C 0.33468 0.41358 0.85584 0.0
C1814 C 0.29919 0.39972 0.91105 0.0
C1815 C 0.30356 0.38466 0.92111 0.0
C1816 C 0.3238 0.40379 0.87873 0.0
C1817 C 0.31834 0.37971 0.90989 0.0
C1818 C 0.34761 0.40727 0.83663 0.0
C1819 C 0.34198 0.43861 0.83382 0.0
N1820 N 0.32789 0.38922 0.88916 0.0
N1821 N 0.33224 0.42901 0.85365 0.0
H1822 H 0.82654 0.12801 0.09552 0.0
H1823 H 0.86497 0.0447 0.09019 0.0
H1824 H 0.81893 0.09476 0.0005 0.0
H1825 H 0.87347 0.07776 0.18522 0.0
H1826 H 0.84984 0.06383 0.05415 0.0
H1827 H 0.84568 0.11087 0.12553 0.0
C1828 C 0.82909 0.11722 0.08057 0.0
C1829 C 0.82104 0.11274 0.04562 0.0
C1830 C 0.85508 0.06696 0.08276 0.0
C1831 C 0.84271 0.09298 0.0802 0.0
C1832 C 0.86381 0.05605 0.10331 0.0
C1833 C 0.87052 0.05961 0.14087 0.0
C1834 C 0.85291 0.08157 0.0999 0.0
C1835 C 0.86834 0.07444 0.15665 0.0
C1836 C 0.83992 0.10739 0.09791 0.0
C1837 C 0.82467 0.09856 0.02784 0.0
N1838 N 0.85967 0.08486 0.13615 0.0
N1839 N 0.83515 0.08914 0.04549 0.0
H1840 H 0.82917 0.61419 0.97249 0.0
H1841 H 0.83999 0.55477 0.78922 0.0
H1842 H 0.79209 0.59779 0.89721 0.0
H1843 H 0.87571 0.56472 0.87608 0.0
H1844 H 0.82289 0.57232 0.8253 0.0
H1845 H 0.84699 0.59764 0.9349 0.0
C1846 C 0.82479 0.60708 0.94813 0.0
C1847 C 0.80912 0.60724 0.93819 0.0
C1848 C 0.83448 0.5707 0.83646 0.0
C1849 C 0.82938 0.58842 0.89499 0.0
C1850 C 0.84428 0.56078 0.81566 0.0
C1851 C 0.85928 0.55827 0.82972 0.0
C1852 C 0.83971 0.57823 0.8715 0.0
C1853 C 0.86416 0.5662 0.8645 0.0
C1854 C 0.83494 0.59763 0.92677 0.0
C1855 C 0.80403 0.5978 0.9064 0.0
N1856 N 0.8544 0.57583 0.88423 0.0
N1857 N 0.81413 0.58882 0.8859 0.0
H1858 H 0.18411 0.12632 0.6316 0.0
H1859 H 0.12075 0.06065 0.60455 0.0
H1860 H 0.17399 0.10488 0.51668 0.0
H1861 H 0.13945 0.07387 0.72059 0.0
H1862 H 0.13771 0.07921 0.5715 0.0
H1863 H 0.16529 0.10955 0.66422 0.0
C1864 C 0.17779 0.11819 0.61316 0.0
C1865 C 0.18058 0.11699 0.57135 0.0
C1866 C 0.13807 0.07808 0.6042 0.0
C1867 C 0.15914 0.09769 0.60855 0.0
C1868 C 0.12832 0.06758 0.6231 0.0
C1869 C 0.1287 0.06574 0.66538 0.0
C1870 C 0.14821 0.08688 0.62775 0.0
C1871 C 0.13889 0.07485 0.68789 0.0
C1872 C 0.16714 0.10855 0.63185 0.0
C1873 C 0.17226 0.10608 0.54903 0.0
N1874 N 0.14824 0.08505 0.66879 0.0
N1875 N 0.16189 0.09686 0.56792 0.0
H1876 H 0.69738 0.4007 0.40631 0.0
H1877 H 0.61601 0.41301 0.29786 0.0
H1878 H 0.66275 0.36534 0.3977 0.0
H1879 H 0.64947 0.44904 0.31495 0.0
H1880 H 0.6335 0.39494 0.33098 0.0
H1881 H 0.68036 0.41825 0.37022 0.0
C1882 C 0.68614 0.39665 0.39715 0.0
C1883 C 0.68146 0.38153 0.40528 0.0
C1884 C 0.63705 0.40678 0.32727 0.0
C1885 C 0.66199 0.40153 0.36324 0.0
C1886 C 0.62706 0.4171 0.30843 0.0
C1887 C 0.63128 0.43256 0.3036 0.0
C1888 C 0.65135 0.41196 0.34148 0.0
C1889 C 0.64581 0.43719 0.31746 0.0
C1890 C 0.67647 0.40666 0.37623 0.0
C1891 C 0.66689 0.37685 0.3918 0.0
N1892 N 0.65528 0.42696 0.3359 0.0
N1893 N 0.65766 0.38682 0.3715 0.0
H1894 H 0.37779 0.91042 0.15442 0.0
H1895 H 0.29099 0.88096 0.14345 0.0
H1896 H 0.34145 0.92684 0.23231 0.0
H1897 H 0.32707 0.86392 0.06557 0.0
H1898 H 0.30991 0.89609 0.18034 0.0
H1899 H 0.3601 0.89143 0.12608 0.0
C1900 C 0.36616 0.90986 0.16606 0.0
C1901 C 0.36104 0.92032 0.19551 0.0
C1902 C 0.31373 0.88898 0.15534 0.0
C1903 C 0.34068 0.89881 0.16274 0.0
C1904 C 0.30293 0.88026 0.13435 0.0
C1905 C 0.30742 0.87117 0.10123 0.0
C1906 C 0.32918 0.88871 0.14309 0.0
C1907 C 0.32304 0.87095 0.09048 0.0
C1908 C 0.35603 0.8991 0.14964 0.0
C1909 C 0.3458 0.91917 0.20913 0.0
N1910 N 0.33335 0.87964 0.11125 0.0
N1911 N 0.33614 0.90871 0.19242 0.0
H1912 H 0.80291 0.39572 0.5273 0.0
H1913 H 0.86465 0.41215 0.70198 0.0
H1914 H 0.81679 0.36175 0.61539 0.0
H1915 H 0.84896 0.44616 0.61619 0.0
H1916 H 0.84844 0.39299 0.66842 0.0
H1917 H 0.8212 0.41375 0.55671 0.0
C1918 C 0.80995 0.39197 0.5525 0.0
C1919 C 0.80827 0.37721 0.56898 0.0
C1920 C 0.84856 0.40465 0.65696 0.0
C1921 C 0.82908 0.39793 0.60335 0.0
C1922 C 0.85784 0.41557 0.67602 0.0
C1923 C 0.85805 0.4308 0.66209 0.0
C1924 C 0.83949 0.409 0.62362 0.0
C1925 C 0.84892 0.43462 0.62847 0.0
C1926 C 0.82032 0.40233 0.56953 0.0
C1927 C 0.81755 0.3731 0.6021 0.0
N1928 N 0.84002 0.42381 0.61045 0.0
N1929 N 0.82752 0.38342 0.6183 0.0
H1930 H 0.30545 0.08631 0.47629 0.0
H1931 H 0.36061 0.06826 0.28766 0.0
H1932 H 0.31334 0.1179 0.3775 0.0
H1933 H 0.35067 0.03561 0.38267 0.0
H1934 H 0.34351 0.08671 0.32052 0.0
H1935 H 0.32227 0.06767 0.44297 0.0
C1936 C 0.31069 0.08931 0.44756 0.0
C1937 C 0.30802 0.10371 0.42975 0.0
C1938 C 0.34506 0.07551 0.33418 0.0
C1939 C 0.32735 0.08248 0.39157 0.0
C1940 C 0.35476 0.06493 0.31529 0.0
C1941 C 0.3571 0.05037 0.33246 0.0
C1942 C 0.33764 0.0715 0.37052 0.0
C1943 C 0.34939 0.04678 0.36866 0.0
C1944 C 0.32033 0.07869 0.42862 0.0
C1945 C 0.31526 0.10704 0.3927 0.0
N1946 N 0.34001 0.05727 0.38648 0.0
N1947 N 0.32458 0.09651 0.37486 0.0
H1948 H 0.65495 0.54961 0.18806 0.0
H1949 H 0.66106 0.6151 0.01866 0.0
H1950 H 0.6157 0.5673 0.12297 0.0
H1951 H 0.70031 0.59216 0.0709 0.0
H1952 H 0.64412 0.59805 0.05728 0.0
H1953 H 0.6717 0.56556 0.14623 0.0
C1954 C 0.64984 0.5568 0.1649 0.0
C1955 C 0.63387 0.55712 0.15914 0.0
C1956 C 0.65644 0.59666 0.06001 0.0
C1957 C 0.653 0.57554 0.11131 0.0
C1958 C 0.66609 0.6064 0.03803 0.0
C1959 C 0.6821 0.60498 0.04145 0.0
C1960 C 0.66285 0.58556 0.08591 0.0
C1961 C 0.68803 0.59349 0.06686 0.0
C1962 C 0.65942 0.56594 0.14107 0.0
C1963 C 0.62791 0.56686 0.12901 0.0
N1964 N 0.67841 0.58429 0.0883 0.0
N1965 N 0.63748 0.57569 0.10627 0.0
H1966 H 0.2003 0.89043 0.86218 0.0
H1967 H 0.1157 0.92626 0.86174 0.0
H1968 H 0.16463 0.87637 0.94521 0.0
H1969 H 0.15023 0.93714 0.77229 0.0
H1970 H 0.13327 0.90764 0.89219 0.0
H1971 H 0.18204 0.90752 0.82873 0.0
C1972 C 0.18863 0.89101 0.87353 0.0
C1973 C 0.184 0.88205 0.90674 0.0
C1974 C 0.13698 0.91403 0.86576 0.0
C1975 C 0.16297 0.90147 0.86825 0.0
C1976 C 0.12698 0.92469 0.84846 0.0
C1977 C 0.13156 0.93332 0.81459 0.0
C1978 C 0.15172 0.91203 0.84923 0.0
C1979 C 0.1462 0.93066 0.79822 0.0
C1980 C 0.17818 0.90068 0.85421 0.0
C1981 C 0.16866 0.88303 0.9196 0.0
N1982 N 0.1558 0.92033 0.81588 0.0
N1983 N 0.15871 0.89262 0.90044 0.0
loop_
_geom_bond_atom_site_label_1
_geom_bond_atom_site_label_2
_geom_bond_distance
_geom_bond_site_symmetry_2
_ccdc_geom_bond_type
Li0 N17 1.990 . S
Li0 O60 1.956 1_554 S
Li0 O61 1.970 . S
Li0 O62 1.961 . S
Li1 N25 1.990 . S
Li1 O60 1.970 . S
Li1 O61 1.956 1_556 S
Li1 O63 1.961 . S
Li2 N47 1.990 . S
Li2 O60 1.961 . S
Li2 O62 1.956 1_556 S
Li2 O63 1.970 . S
Li3 N53 1.990 . S
Li3 O61 1.961 . S
Li3 O62 1.970 . S
Li3 O63 1.956 1_554 S
C4 C6 1.348 . S
C4 C7 1.356 . S
C4 O60 1.325 . S
N5 C8 1.314 . S
N5 C9 1.279 . S
C6 C4 1.348 . S
C6 C8 1.353 . S
C6 H64 0.929 . S
C7 C4 1.356 . S
C7 C9 1.358 . S
C7 H65 0.930 . S
C8 N5 1.314 . S
C8 C6 1.353 . S
C8 H66 0.930 . S
C9 N5 1.279 . S
C9 C7 1.358 . S
C9 H67 0.930 . S
C10 C13 1.348 . S
C10 C14 1.356 . S
C10 O61 1.325 . S
C11 N12 1.279 . S
C11 C14 1.358 . S
C11 H68 0.930 . S
N12 C11 1.279 . S
N12 C15 1.314 . S
C13 C10 1.348 . S
C13 C15 1.353 . S
C13 H69 0.929 . S
C14 C10 1.356 . S
C14 C11 1.358 . S
C14 H70 0.930 . S
C15 N12 1.314 . S
C15 C13 1.353 . S
C15 H71 0.930 . S
C16 N17 1.314 . S
C16 C21 1.353 . S
C16 H22 0.930 . S
N17 Li0 1.990 . S
N17 C16 1.314 . S
N17 C19 1.279 1_554 S
C18 C19 1.358 1_554 S
C18 C20 1.356 . S
C18 H72 0.930 1_554 S
C19 N17 1.279 1_556 S
C19 C18 1.358 1_556 S
C19 H23 0.930 . S
C20 C18 1.356 . S
C20 C21 1.348 . S
C21 C16 1.353 . S
C21 C20 1.348 . S
C21 H73 0.929 . S
H22 C16 0.930 . S
H23 C19 0.930 . S
C24 N25 1.314 . S
C24 C26 1.353 . S
C24 H30 0.930 . S
N25 Li1 1.990 . S
N25 C24 1.314 . S
N25 C28 1.279 1_556 S
C26 C24 1.353 . S
C26 C29 1.348 . S
C26 H74 0.929 . S
C27 C28 1.358 1_556 S
C27 C29 1.356 . S
C27 H75 0.930 1_556 S
C28 N25 1.279 1_554 S
C28 C27 1.358 1_554 S
C28 H31 0.930 . S
C29 C26 1.348 . S
C29 C27 1.356 . S
H30 C24 0.930 . S
H31 C28 0.930 . S
C32 C34 1.348 . S
C32 C35 1.356 . S
C32 O62 1.325 . S
N33 C36 1.314 . S
N33 C37 1.279 . S
C34 C32 1.348 . S
C34 C36 1.353 . S
C34 H76 0.929 . S
C35 C32 1.356 . S
C35 C37 1.358 . S
C35 H77 0.930 1_554 S
C36 N33 1.314 . S
C36 C34 1.353 . S
C36 H78 0.930 . S
C37 N33 1.279 . S
C37 C35 1.358 . S
C37 H79 0.930 1_554 S
C38 C39 1.348 . S
C38 C40 1.356 . S
C38 O63 1.325 . S
C39 C38 1.348 . S
C39 C41 1.353 . S
C39 H80 0.929 . S
C40 C38 1.356 . S
C40 C42 1.358 . S
C40 H81 0.930 1_556 S
C41 C39 1.353 . S
C41 N43 1.314 . S
C41 H82 0.930 . S
C42 C40 1.358 . S
C42 N43 1.279 . S
C42 H83 0.930 1_556 S
N43 C41 1.314 . S
N43 C42 1.279 . S
C44 C46 1.353 . S
C44 N47 1.314 . S
C44 H50 0.930 . S
C45 N47 1.279 . S
C45 C48 1.358 . S
C45 H51 0.930 . S
C46 C44 1.353 . S
C46 C49 1.348 . S
C46 H84 0.929 . S
N47 Li2 1.990 . S
N47 C44 1.314 . S
N47 C45 1.279 . S
C48 C45 1.358 . S
C48 C49 1.356 . S
C48 H85 0.930 . S
C49 C46 1.348 . S
C49 C48 1.356 . S
H50 C44 0.930 . S
H51 C45 0.930 . S
C52 N53 1.314 . S
C52 C54 1.353 . S
C52 H58 0.930 . S
N53 Li3 1.990 . S
N53 C52 1.314 . S
N53 C56 1.279 . S
C54 C52 1.353 . S
C54 C57 1.348 . S
C54 H86 0.929 . S
C55 C56 1.358 . S
C55 C57 1.356 . S
C55 H87 0.930 . S
C56 N53 1.279 . S
C56 C55 1.358 . S
C56 H59 0.930 . S
C57 C54 1.348 . S
C57 C55 1.356 . S
H58 C52 0.930 . S
H59 C56 0.930 . S
O60 Li0 1.956 1_556 S
O60 Li1 1.970 . S
O60 Li2 1.961 . S
O60 C4 1.325 . S
O61 Li0 1.970 . S
O61 Li1 1.956 1_554 S
O61 Li3 1.961 . S
O61 C10 1.325 . S
O62 Li0 1.961 . S
O62 Li2 1.956 1_554 S
O62 Li3 1.970 . S
O62 C32 1.325 . S
O63 Li1 1.961 . S
O63 Li2 1.970 . S
O63 Li3 1.956 1_556 S
O63 C38 1.325 . S
H64 C6 0.929 . S
H65 C7 0.930 . S
H66 C8 0.930 . S
H67 C9 0.930 . S
H68 C11 0.930 . S
H69 C13 0.929 . S
H70 C14 0.930 . S
H71 C15 0.930 . S
H72 C18 0.930 1_556 S
H73 C21 0.929 . S
H74 C26 0.929 . S
H75 C27 0.930 1_554 S
H76 C34 0.929 . S
H77 C35 0.930 1_556 S
H78 C36 0.930 . S
H79 C37 0.930 1_556 S
H80 C39 0.929 . S
H81 C40 0.930 1_554 S
H82 C41 0.930 . S
H83 C42 0.930 1_554 S
H84 C46 0.929 . S
H85 C48 0.930 . S
H86 C54 0.929 . S
H87 C55 0.930 . S
Li88 N105 1.990 . S
Li88 O148 1.956 . S
Li88 O149 1.970 1_565 S
Li88 O150 1.961 . S
Li89 N113 1.990 . S
Li89 O148 1.970 1_545 S
Li89 O149 1.956 . S
Li89 O151 1.961 . S
Li90 N135 1.990 . S
Li90 O148 1.961 . S
Li90 O150 1.956 . S
Li90 O151 1.970 1_565 S
Li91 N141 1.990 . S
Li91 O149 1.961 . S
Li91 O150 1.970 1_545 S
Li91 O151 1.956 . S
C92 C94 1.348 . S
C92 C95 1.356 . S
C92 O148 1.325 . S
N93 C96 1.314 . S
N93 C97 1.279 . S
C94 C92 1.348 . S
C94 C96 1.353 . S
C94 H152 0.929 . S
C95 C92 1.356 . S
C95 C97 1.358 . S
C95 H153 0.930 . S
C96 N93 1.314 . S
C96 C94 1.353 . S
C96 H154 0.930 . S
C97 N93 1.279 . S
C97 C95 1.358 . S
C97 H155 0.930 . S
C98 C101 1.348 . S
C98 C102 1.356 . S
C98 O149 1.325 . S
C99 N100 1.279 . S
C99 C102 1.358 . S
C99 H156 0.930 . S
N100 C99 1.279 . S
N100 C103 1.314 . S
C101 C98 1.348 . S
C101 C103 1.353 . S
C101 H157 0.929 . S
C102 C98 1.356 . S
C102 C99 1.358 . S
C102 H158 0.930 . S
C103 N100 1.314 . S
C103 C101 1.353 . S
C103 H159 0.930 . S
C104 N105 1.314 . S
C104 C109 1.353 . S
C104 H110 0.930 1_565 S
N105 Li88 1.990 . S
N105 C104 1.314 . S
N105 C107 1.279 . S
C106 C107 1.358 . S
C106 C108 1.356 . S
C106 H160 0.930 . S
C107 N105 1.279 . S
C107 C106 1.358 . S
C107 H111 0.930 . S
C108 C106 1.356 . S
C108 C109 1.348 . S
C109 C104 1.353 . S
C109 C108 1.348 . S
C109 H161 0.929 . S
H110 C104 0.930 1_545 S
H111 C107 0.930 . S
C112 N113 1.314 . S
C112 C114 1.353 . S
C112 H118 0.930 1_545 S
N113 Li89 1.990 . S
N113 C112 1.314 . S
N113 C116 1.279 . S
C114 C112 1.353 . S
C114 C117 1.348 . S
C114 H162 0.929 . S
C115 C116 1.358 . S
C115 C117 1.356 . S
C115 H163 0.930 . S
C116 N113 1.279 . S
C116 C115 1.358 . S
C116 H119 0.930 . S
C117 C114 1.348 . S
C117 C115 1.356 . S
H118 C112 0.930 1_565 S
H119 C116 0.930 . S
C120 C122 1.332 1_565 S
C120 C123 1.356 . S
C120 O150 1.325 . S
N121 C124 1.314 . S
N121 C125 1.279 . S
C122 C120 1.332 1_545 S
C122 C124 1.344 1_545 S
C122 H164 0.955 . S
C123 C120 1.356 . S
C123 C125 1.358 . S
C123 H165 0.930 . S
C124 N121 1.314 . S
C124 C122 1.344 1_565 S
C124 H166 0.930 1_565 S
C125 N121 1.279 . S
C125 C123 1.358 . S
C125 H167 0.930 . S
C126 C127 1.340 1_545 S
C126 C128 1.356 . S
C126 O151 1.325 . S
C127 C126 1.340 1_565 S
C127 C129 1.349 1_565 S
C127 H168 0.941 . S
C128 C126 1.356 . S
C128 C130 1.358 . S
C128 H169 0.930 . S
C129 C127 1.349 1_545 S
C129 N131 1.314 . S
C129 H170 0.930 1_545 S
C130 C128 1.358 . S
C130 N131 1.279 . S
C130 H171 0.930 . S
N131 C129 1.314 . S
N131 C130 1.279 . S
C132 C134 1.353 . S
C132 N135 1.314 . S
C132 H138 0.930 . S
C133 N135 1.279 . S
C133 C136 1.358 . S
C133 H139 0.930 . S
C134 C132 1.353 . S
C134 C137 1.348 . S
C134 H172 0.929 . S
N135 Li90 1.990 . S
N135 C132 1.314 . S
N135 C133 1.279 . S
C136 C133 1.358 . S
C136 C137 1.356 . S
C136 H173 0.930 . S
C137 C134 1.348 . S
C137 C136 1.356 . S
H138 C132 0.930 . S
H139 C133 0.930 . S
C140 N141 1.314 . S
C140 C142 1.353 . S
C140 H146 0.930 . S
N141 Li91 1.990 . S
N141 C140 1.314 . S
N141 C144 1.279 . S
C142 C140 1.353 . S
C142 C145 1.348 . S
C142 H174 0.929 . S
C143 C144 1.358 . S
C143 C145 1.356 . S
C143 H175 0.930 . S
C144 N141 1.279 . S
C144 C143 1.358 . S
C144 H147 0.930 . S
C145 C142 1.348 . S
C145 C143 1.356 . S
H146 C140 0.930 . S
H147 C144 0.930 . S
O148 Li88 1.956 . S
O148 Li89 1.970 1_565 S
O148 Li90 1.961 . S
O148 C92 1.325 . S
O149 Li88 1.970 1_545 S
O149 Li89 1.956 . S
O149 Li91 1.961 . S
O149 C98 1.325 . S
O150 Li88 1.961 . S
O150 Li90 1.956 . S
O150 Li91 1.970 1_565 S
O150 C120 1.325 . S
O151 Li89 1.961 . S
O151 Li90 1.970 1_545 S
O151 Li91 1.956 . S
O151 C126 1.325 . S
H152 C94 0.929 . S
H153 C95 0.930 . S
H154 C96 0.930 . S
H155 C97 0.930 . S
H156 C99 0.930 . S
H157 C101 0.929 . S
H158 C102 0.930 . S
H159 C103 0.930 . S
H160 C106 0.930 . S
H161 C109 0.929 . S
H162 C114 0.929 . S
H163 C115 0.930 . S
H164 C122 0.955 . S
H165 C123 0.930 . S
H166 C124 0.930 1_545 S
H167 C125 0.930 . S
H168 C127 0.941 . S
H169 C128 0.930 . S
H170 C129 0.930 1_565 S
H171 C130 0.930 . S
H172 C134 0.929 . S
H173 C136 0.930 . S
H174 C142 0.929 . S
H175 C143 0.930 . S
Li176 N193 1.990 . S
Li176 O236 1.956 . S
Li176 O237 1.970 . S
Li176 O238 1.961 . S
Li177 N201 1.990 . S
Li177 O236 1.970 . S
Li177 O237 1.956 . S
Li177 O239 1.961 . S
Li178 N223 1.990 . S
Li178 O236 1.961 . S
Li178 O238 1.956 . S
Li178 O239 1.970 . S
Li179 N229 1.990 . S
Li179 O237 1.961 . S
Li179 O238 1.970 . S
Li179 O239 1.956 . S
C180 C182 1.348 . S
C180 C183 1.356 . S
C180 O236 1.325 . S
N181 C184 1.314 . S
N181 C185 1.279 . S
C182 C180 1.348 . S
C182 C184 1.353 . S
C182 H240 0.929 . S
C183 C180 1.356 . S
C183 C185 1.358 . S
C183 H241 0.930 . S
C184 N181 1.314 . S
C184 C182 1.353 . S
C184 H242 0.930 . S
C185 N181 1.279 . S
C185 C183 1.358 . S
C185 H243 0.930 . S
C186 C189 1.348 . S
C186 C190 1.356 . S
C186 O237 1.325 . S
C187 N188 1.279 . S
C187 C190 1.358 . S
C187 H244 0.930 . S
N188 C187 1.279 . S
N188 C191 1.314 . S
C189 C186 1.348 . S
C189 C191 1.353 . S
C189 H245 0.929 . S
C190 C186 1.356 . S
C190 C187 1.358 . S
C190 H246 0.930 . S
C191 N188 1.314 . S
C191 C189 1.353 . S
C191 H247 0.930 . S
C192 N193 1.314 . S
C192 C197 1.353 . S
C192 H198 0.930 . S
N193 Li176 1.990 . S
N193 C192 1.314 . S
N193 C195 1.279 . S
C194 C195 1.358 . S
C194 C196 1.356 . S
C194 H248 0.930 . S
C195 N193 1.279 . S
C195 C194 1.358 . S
C195 H199 0.930 . S
C196 C194 1.356 . S
C196 C197 1.348 . S
C197 C192 1.353 . S
C197 C196 1.348 . S
C197 H249 0.929 . S
H198 C192 0.930 . S
H199 C195 0.930 . S
C200 N201 1.314 . S
C200 C202 1.353 . S
C200 H206 0.930 . S
N201 Li177 1.990 . S
N201 C200 1.314 . S
N201 C204 1.279 . S
C202 C200 1.353 . S
C202 C205 1.348 . S
C202 H250 0.929 . S
C203 C204 1.358 . S
C203 C205 1.356 . S
C203 H251 0.930 . S
C204 N201 1.279 . S
C204 C203 1.358 . S
C204 H207 0.930 . S
C205 C202 1.348 . S
C205 C203 1.356 . S
H206 C200 0.930 . S
H207 C204 0.930 . S
C208 C210 1.348 . S
C208 C211 1.356 . S
C208 O238 1.325 . S
N209 C212 1.314 . S
N209 C213 1.279 . S
C210 C208 1.348 . S
C210 C212 1.353 . S
C210 H252 0.929 . S
C211 C208 1.356 . S
C211 C213 1.358 . S
C211 H253 0.930 . S
C212 N209 1.314 . S
C212 C210 1.353 . S
C212 H254 0.930 . S
C213 N209 1.279 . S
C213 C211 1.358 . S
C213 H255 0.930 . S
C214 C215 1.348 . S
C214 C216 1.356 . S
C214 O239 1.325 . S
C215 C214 1.348 . S
C215 C217 1.353 . S
C215 H256 0.929 . S
C216 C214 1.356 . S
C216 C218 1.358 . S
C216 H257 0.930 . S
C217 C215 1.353 . S
C217 N219 1.314 . S
C217 H258 0.930 . S
C218 C216 1.358 . S
C218 N219 1.279 . S
C218 H259 0.930 . S
N219 C217 1.314 . S
N219 C218 1.279 . S
C220 C222 1.353 . S
C220 N223 1.314 . S
C220 H226 0.930 . S
C221 N223 1.279 . S
C221 C224 1.358 . S
C221 H227 0.930 . S
C222 C220 1.353 . S
C222 C225 1.348 . S
C222 H260 0.929 . S
N223 Li178 1.990 . S
N223 C220 1.314 . S
N223 C221 1.279 . S
C224 C221 1.358 . S
C224 C225 1.356 . S
C224 H261 0.930 . S
C225 C222 1.348 . S
C225 C224 1.356 . S
H226 C220 0.930 . S
H227 C221 0.930 . S
C228 N229 1.314 . S
C228 C230 1.353 . S
C228 H234 0.930 . S
N229 Li179 1.990 . S
N229 C228 1.314 . S
N229 C232 1.279 . S
C230 C228 1.353 . S
C230 C233 1.348 . S
C230 H262 0.929 . S
C231 C232 1.358 . S
C231 C233 1.356 . S
C231 H263 0.930 . S
C232 N229 1.279 . S
C232 C231 1.358 . S
C232 H235 0.930 . S
C233 C230 1.348 . S
C233 C231 1.356 . S
H234 C228 0.930 . S
H235 C232 0.930 . S
O236 Li176 1.956 . S
O236 Li177 1.970 . S
O236 Li178 1.961 . S
O236 C180 1.325 . S
O237 Li176 1.970 . S
O237 Li177 1.956 . S
O237 Li179 1.961 . S
O237 C186 1.325 . S
O238 Li176 1.961 . S
O238 Li178 1.956 . S
O238 Li179 1.970 . S
O238 C208 1.325 . S
O239 Li177 1.961 . S
O239 Li178 1.970 . S
O239 Li179 1.956 . S
O239 C214 1.325 . S
H240 C182 0.929 . S
H241 C183 0.930 . S
H242 C184 0.930 . S
H243 C185 0.930 . S
H244 C187 0.930 . S
H245 C189 0.929 . S
H246 C190 0.930 . S
H247 C191 0.930 . S
H248 C194 0.930 . S
H249 C197 0.929 . S
H250 C202 0.929 . S
H251 C203 0.930 . S
H252 C210 0.929 . S
H253 C211 0.930 . S
H254 C212 0.930 . S
H255 C213 0.930 . S
H256 C215 0.929 . S
H257 C216 0.930 . S
H258 C217 0.930 . S
H259 C218 0.930 . S
H260 C222 0.929 . S
H261 C224 0.930 . S
H262 C230 0.929 . S
H263 C231 0.930 . S
Li264 N281 1.990 . S
Li264 O324 1.956 . S
Li264 O325 1.970 1_565 S
Li264 O326 1.961 . S
Li265 N289 1.990 . S
Li265 O324 1.970 1_545 S
Li265 O325 1.956 . S
Li265 O327 1.961 . S
Li266 N311 1.990 . S
Li266 O324 1.961 . S
Li266 O326 1.956 . S
Li266 O327 1.970 1_565 S
Li267 N317 1.990 . S
Li267 O325 1.961 . S
Li267 O326 1.970 1_545 S
Li267 O327 1.956 . S
C268 C270 1.332 1_565 S
C268 C271 1.356 . S
C268 O324 1.325 . S
N269 C272 1.314 . S
N269 C273 1.279 . S
C270 C268 1.332 1_545 S
C270 C272 1.344 1_545 S
C270 H328 0.955 . S
C271 C268 1.356 . S
C271 C273 1.358 . S
C271 H329 0.930 . S
C272 N269 1.314 . S
C272 C270 1.344 1_565 S
C272 H330 0.930 1_565 S
C273 N269 1.279 . S
C273 C271 1.358 . S
C273 H331 0.930 . S
C274 C277 1.340 1_545 S
C274 C278 1.356 . S
C274 O325 1.325 . S
C275 N276 1.279 . S
C275 C278 1.358 . S
C275 H332 0.930 . S
N276 C275 1.279 . S
N276 C279 1.314 . S
C277 C274 1.340 1_565 S
C277 C279 1.349 1_565 S
C277 H333 0.941 . S
C278 C274 1.356 . S
C278 C275 1.358 . S
C278 H334 0.930 . S
C279 N276 1.314 . S
C279 C277 1.349 1_545 S
C279 H335 0.930 1_545 S
C280 N281 1.314 . S
C280 C285 1.353 . S
C280 H286 0.930 . S
N281 Li264 1.990 . S
N281 C280 1.314 . S
N281 C283 1.279 . S
C282 C283 1.358 . S
C282 C284 1.356 . S
C282 H336 0.930 . S
C283 N281 1.279 . S
C283 C282 1.358 . S
C283 H287 0.930 . S
C284 C282 1.356 . S
C284 C285 1.348 . S
C285 C280 1.353 . S
C285 C284 1.348 . S
C285 H337 0.929 . S
H286 C280 0.930 . S
H287 C283 0.930 . S
C288 N289 1.314 . S
C288 C290 1.353 . S
C288 H294 0.930 . S
N289 Li265 1.990 . S
N289 C288 1.314 . S
N289 C292 1.279 . S
C290 C288 1.353 . S
C290 C293 1.348 . S
C290 H338 0.929 . S
C291 C292 1.358 . S
C291 C293 1.356 . S
C291 H339 0.930 . S
C292 N289 1.279 . S
C292 C291 1.358 . S
C292 H295 0.930 . S
C293 C290 1.348 . S
C293 C291 1.356 . S
H294 C288 0.930 . S
H295 C292 0.930 . S
C296 C298 1.348 . S
C296 C299 1.356 . S
C296 O326 1.325 . S
N297 C300 1.314 . S
N297 C301 1.279 . S
C298 C296 1.348 . S
C298 C300 1.353 . S
C298 H340 0.929 . S
C299 C296 1.356 . S
C299 C301 1.358 . S
C299 H341 0.930 . S
C300 N297 1.314 . S
C300 C298 1.353 . S
C300 H342 0.930 . S
C301 N297 1.279 . S
C301 C299 1.358 . S
C301 H343 0.930 . S
C302 C303 1.348 . S
C302 C304 1.356 . S
C302 O327 1.325 . S
C303 C302 1.348 . S
C303 C305 1.353 . S
C303 H344 0.929 . S
C304 C302 1.356 . S
C304 C306 1.358 . S
C304 H345 0.930 . S
C305 C303 1.353 . S
C305 N307 1.314 . S
C305 H346 0.930 . S
C306 C304 1.358 . S
C306 N307 1.279 . S
C306 H347 0.930 . S
N307 C305 1.314 . S
N307 C306 1.279 . S
C308 C310 1.353 . S
C308 N311 1.314 . S
C308 H314 0.930 1_565 S
C309 N311 1.279 . S
C309 C312 1.358 . S
C309 H315 0.930 . S
C310 C308 1.353 . S
C310 C313 1.348 . S
C310 H348 0.929 . S
N311 Li266 1.990 . S
N311 C308 1.314 . S
N311 C309 1.279 . S
C312 C309 1.358 . S
C312 C313 1.356 . S
C312 H349 0.930 . S
C313 C310 1.348 . S
C313 C312 1.356 . S
H314 C308 0.930 1_545 S
H315 C309 0.930 . S
C316 N317 1.314 . S
C316 C318 1.353 . S
C316 H322 0.930 1_545 S
N317 Li267 1.990 . S
N317 C316 1.314 . S
N317 C320 1.279 . S
C318 C316 1.353 . S
C318 C321 1.348 . S
C318 H350 0.929 . S
C319 C320 1.358 . S
C319 C321 1.356 . S
C319 H351 0.930 . S
C320 N317 1.279 . S
C320 C319 1.358 . S
C320 H323 0.930 . S
C321 C318 1.348 . S
C321 C319 1.356 . S
H322 C316 0.930 1_565 S
H323 C320 0.930 . S
O324 Li264 1.956 . S
O324 Li265 1.970 1_565 S
O324 Li266 1.961 . S
O324 C268 1.325 . S
O325 Li264 1.970 1_545 S
O325 Li265 1.956 . S
O325 Li267 1.961 . S
O325 C274 1.325 . S
O326 Li264 1.961 . S
O326 Li266 1.956 . S
O326 Li267 1.970 1_565 S
O326 C296 1.325 . S
O327 Li265 1.961 . S
O327 Li266 1.970 1_545 S
O327 Li267 1.956 . S
O327 C302 1.325 . S
H328 C270 0.955 . S
H329 C271 0.930 . S
H330 C272 0.930 1_545 S
H331 C273 0.930 . S
H332 C275 0.930 . S
H333 C277 0.941 . S
H334 C278 0.930 . S
H335 C279 0.930 1_565 S
H336 C282 0.930 . S
H337 C285 0.929 . S
H338 C290 0.929 . S
H339 C291 0.930 . S
H340 C298 0.929 . S
H341 C299 0.930 . S
H342 C300 0.930 . S
H343 C301 0.930 . S
H344 C303 0.929 . S
H345 C304 0.930 . S
H346 C305 0.930 . S
H347 C306 0.930 . S
H348 C310 0.929 . S
H349 C312 0.930 . S
H350 C318 0.929 . S
H351 C319 0.930 . S
Li352 N369 1.990 . S
Li352 O412 1.956 . S
Li352 O413 1.970 . S
Li352 O414 1.961 1_554 S
Li353 N377 1.990 . S
Li353 O412 1.970 . S
Li353 O413 1.956 . S
Li353 O415 1.961 1_554 S
Li354 N399 1.990 . S
Li354 O412 1.961 1_556 S
Li354 O414 1.956 . S
Li354 O415 1.970 . S
Li355 N405 1.990 . S
Li355 O413 1.961 1_556 S
Li355 O414 1.970 . S
Li355 O415 1.956 . S
C356 C358 1.348 . S
C356 C359 1.356 . S
C356 O412 1.325 . S
N357 C360 1.314 . S
N357 C361 1.279 . S
C358 C356 1.348 . S
C358 C360 1.353 . S
C358 H416 0.929 . S
C359 C356 1.356 . S
C359 C361 1.358 . S
C359 H417 0.930 . S
C360 N357 1.314 . S
C360 C358 1.353 . S
C360 H418 0.930 . S
C361 N357 1.279 . S
C361 C359 1.358 . S
C361 H419 0.930 . S
C362 C365 1.348 . S
C362 C366 1.356 1_554 S
C362 O413 1.325 . S
C363 N364 1.279 . S
C363 C366 1.358 1_554 S
C363 H420 0.930 1_554 S
N364 C363 1.279 . S
N364 C367 1.314 . S
C365 C362 1.348 . S
C365 C367 1.353 . S
C365 H421 0.929 . S
C366 C362 1.356 1_556 S
C366 C363 1.358 1_556 S
C366 H422 0.930 . S
C367 N364 1.314 . S
C367 C365 1.353 . S
C367 H423 0.930 . S
C368 N369 1.314 . S
C368 C373 1.353 . S
C368 H374 0.930 . S
N369 Li352 1.990 . S
N369 C368 1.314 . S
N369 C371 1.279 . S
C370 C371 1.358 . S
C370 C372 1.356 . S
C370 H424 0.930 . S
C371 N369 1.279 . S
C371 C370 1.358 . S
C371 H375 0.930 . S
C372 C370 1.356 . S
C372 C373 1.348 . S
C373 C368 1.353 . S
C373 C372 1.348 . S
C373 H425 0.929 . S
H374 C368 0.930 . S
H375 C371 0.930 . S
C376 N377 1.314 . S
C376 C378 1.353 . S
C376 H382 0.930 1_554 S
N377 Li353 1.990 . S
N377 C376 1.314 . S
N377 C380 1.279 . S
C378 C376 1.353 . S
C378 C381 1.348 . S
C378 H426 0.929 . S
C379 C380 1.358 . S
C379 C381 1.356 . S
C379 H427 0.930 . S
C380 N377 1.279 . S
C380 C379 1.358 . S
C380 H383 0.930 . S
C381 C378 1.348 . S
C381 C379 1.356 . S
H382 C376 0.930 1_556 S
H383 C380 0.930 . S
C384 C386 1.348 . S
C384 C387 1.356 1_556 S
C384 O414 1.325 . S
N385 C388 1.314 . S
N385 C389 1.279 . S
C386 C384 1.348 . S
C386 C388 1.353 . S
C386 H428 0.929 . S
C387 C384 1.356 1_554 S
C387 C389 1.358 1_554 S
C387 H429 0.930 . S
C388 N385 1.314 . S
C388 C386 1.353 . S
C388 H430 0.930 . S
C389 N385 1.279 . S
C389 C387 1.358 1_556 S
C389 H431 0.930 1_556 S
C390 C391 1.348 . S
C390 C392 1.356 . S
C390 O415 1.325 . S
C391 C390 1.348 . S
C391 C393 1.353 . S
C391 H432 0.929 . S
C392 C390 1.356 . S
C392 C394 1.358 . S
C392 H433 0.930 . S
C393 C391 1.353 . S
C393 N395 1.314 . S
C393 H434 0.930 . S
C394 C392 1.358 . S
C394 N395 1.279 . S
C394 H435 0.930 . S
N395 C393 1.314 . S
N395 C394 1.279 . S
C396 C398 1.353 . S
C396 N399 1.314 . S
C396 H402 0.930 1_556 S
C397 N399 1.279 . S
C397 C400 1.358 . S
C397 H403 0.930 . S
C398 C396 1.353 . S
C398 C401 1.348 . S
C398 H436 0.929 . S
N399 Li354 1.990 . S
N399 C396 1.314 . S
N399 C397 1.279 . S
C400 C397 1.358 . S
C400 C401 1.356 . S
C400 H437 0.930 . S
C401 C398 1.348 . S
C401 C400 1.356 . S
H402 C396 0.930 1_554 S
H403 C397 0.930 . S
C404 N405 1.314 . S
C404 C406 1.353 . S
C404 H410 0.930 . S
N405 Li355 1.990 . S
N405 C404 1.314 . S
N405 C408 1.279 . S
C406 C404 1.353 . S
C406 C409 1.348 . S
C406 H438 0.929 . S
C407 C408 1.358 . S
C407 C409 1.356 . S
C407 H439 0.930 . S
C408 N405 1.279 . S
C408 C407 1.358 . S
C408 H411 0.930 . S
C409 C406 1.348 . S
C409 C407 1.356 . S
H410 C404 0.930 . S
H411 C408 0.930 . S
O412 Li352 1.956 . S
O412 Li353 1.970 . S
O412 Li354 1.961 1_554 S
O412 C356 1.325 . S
O413 Li352 1.970 . S
O413 Li353 1.956 . S
O413 Li355 1.961 1_554 S
O413 C362 1.325 . S
O414 Li352 1.961 1_556 S
O414 Li354 1.956 . S
O414 Li355 1.970 . S
O414 C384 1.325 . S
O415 Li353 1.961 1_556 S
O415 Li354 1.970 . S
O415 Li355 1.956 . S
O415 C390 1.325 . S
H416 C358 0.929 . S
H417 C359 0.930 . S
H418 C360 0.930 . S
H419 C361 0.930 . S
H420 C363 0.930 1_556 S
H421 C365 0.929 . S
H422 C366 0.930 . S
H423 C367 0.930 . S
H424 C370 0.930 . S
H425 C373 0.929 . S
H426 C378 0.929 . S
H427 C379 0.930 . S
H428 C386 0.929 . S
H429 C387 0.930 . S
H430 C388 0.930 . S
H431 C389 0.930 1_554 S
H432 C391 0.929 . S
H433 C392 0.930 . S
H434 C393 0.930 . S
H435 C394 0.930 . S
H436 C398 0.929 . S
H437 C400 0.930 . S
H438 C406 0.929 . S
H439 C407 0.930 . S
Li440 N457 1.990 . S
Li440 O500 1.956 . S
Li440 O501 1.970 1_565 S
Li440 O502 1.961 . S
Li441 N465 1.990 . S
Li441 O500 1.970 1_545 S
Li441 O501 1.956 . S
Li441 O503 1.961 . S
Li442 N487 1.990 . S
Li442 O500 1.961 . S
Li442 O502 1.956 . S
Li442 O503 1.970 1_565 S
Li443 N493 1.990 . S
Li443 O501 1.961 . S
Li443 O502 1.970 1_545 S
Li443 O503 1.956 . S
C444 C446 1.348 . S
C444 C447 1.356 . S
C444 O500 1.325 . S
N445 C448 1.314 . S
N445 C449 1.279 . S
C446 C444 1.348 . S
C446 C448 1.353 . S
C446 H504 0.929 . S
C447 C444 1.356 . S
C447 C449 1.358 . S
C447 H505 0.930 . S
C448 N445 1.314 . S
C448 C446 1.353 . S
C448 H506 0.930 . S
C449 N445 1.279 . S
C449 C447 1.358 . S
C449 H507 0.930 . S
C450 C453 1.348 1_545 S
C450 C454 1.356 . S
C450 O501 1.325 . S
C451 N452 1.279 . S
C451 C454 1.358 . S
C451 H508 0.930 . S
N452 C451 1.279 . S
N452 C455 1.378 . S
C453 C450 1.348 1_565 S
C453 C455 1.336 1_565 S
C453 H509 0.929 . S
C454 C450 1.356 . S
C454 C451 1.358 . S
C454 H510 0.930 . S
C455 N452 1.378 . S
C455 C453 1.336 1_545 S
C455 H511 0.881 1_545 S
C456 N457 1.314 . S
C456 C461 1.353 . S
C456 H462 0.930 . S
N457 Li440 1.990 . S
N457 C456 1.314 . S
N457 C459 1.279 . S
C458 C459 1.358 . S
C458 C460 1.356 . S
C458 H512 0.930 . S
C459 N457 1.279 . S
C459 C458 1.358 . S
C459 H463 0.930 . S
C460 C458 1.356 . S
C460 C461 1.348 . S
C461 C456 1.353 . S
C461 C460 1.348 . S
C461 H513 0.929 . S
H462 C456 0.930 . S
H463 C459 0.930 . S
C464 N465 1.314 . S
C464 C466 1.353 . S
C464 H470 0.930 . S
N465 Li441 1.990 . S
N465 C464 1.314 . S
N465 C468 1.279 . S
C466 C464 1.353 . S
C466 C469 1.348 . S
C466 H514 0.929 . S
C467 C468 1.358 . S
C467 C469 1.356 . S
C467 H515 0.930 . S
C468 N465 1.279 . S
C468 C467 1.358 . S
C468 H471 0.930 . S
C469 C466 1.348 . S
C469 C467 1.356 . S
H470 C464 0.930 . S
H471 C468 0.930 . S
C472 C474 1.348 1_565 S
C472 C475 1.356 . S
C472 O502 1.325 . S
N473 C476 1.362 . S
N473 C477 1.279 . S
C474 C472 1.348 1_545 S
C474 C476 1.340 1_545 S
C474 H516 0.929 . S
C475 C472 1.356 . S
C475 C477 1.358 . S
C475 H517 0.930 . S
C476 N473 1.362 . S
C476 C474 1.340 1_565 S
C476 H518 0.893 1_565 S
C477 N473 1.279 . S
C477 C475 1.358 . S
C477 H519 0.930 . S
C478 C479 1.348 . S
C478 C480 1.356 . S
C478 O503 1.325 . S
C479 C478 1.348 . S
C479 C481 1.353 . S
C479 H520 0.929 . S
C480 C478 1.356 . S
C480 C482 1.358 . S
C480 H521 0.930 . S
C481 C479 1.353 . S
C481 N483 1.314 . S
C481 H522 0.930 . S
C482 C480 1.358 . S
C482 N483 1.279 . S
C482 H523 0.930 . S
N483 C481 1.314 . S
N483 C482 1.279 . S
C484 C486 1.353 . S
C484 N487 1.314 . S
C484 H490 0.930 . S
C485 N487 1.279 . S
C485 C488 1.358 . S
C485 H491 0.930 . S
C486 C484 1.353 . S
C486 C489 1.348 . S
C486 H524 0.929 . S
N487 Li442 1.990 . S
N487 C484 1.314 . S
N487 C485 1.279 . S
C488 C485 1.358 . S
C488 C489 1.356 . S
C488 H525 0.930 . S
C489 C486 1.348 . S
C489 C488 1.356 . S
H490 C484 0.930 . S
H491 C485 0.930 . S
C492 N493 1.314 . S
C492 C494 1.353 . S
C492 H498 0.930 . S
N493 Li443 1.990 . S
N493 C492 1.314 . S
N493 C496 1.279 . S
C494 C492 1.353 . S
C494 C497 1.348 . S
C494 H526 0.929 . S
C495 C496 1.358 . S
C495 C497 1.356 . S
C495 H527 0.930 . S
C496 N493 1.279 . S
C496 C495 1.358 . S
C496 H499 0.930 . S
C497 C494 1.348 . S
C497 C495 1.356 . S
H498 C492 0.930 . S
H499 C496 0.930 . S
O500 Li440 1.956 . S
O500 Li441 1.970 1_565 S
O500 Li442 1.961 . S
O500 C444 1.325 . S
O501 Li440 1.970 1_545 S
O501 Li441 1.956 . S
O501 Li443 1.961 . S
O501 C450 1.325 . S
O502 Li440 1.961 . S
O502 Li442 1.956 . S
O502 Li443 1.970 1_565 S
O502 C472 1.325 . S
O503 Li441 1.961 . S
O503 Li442 1.970 1_545 S
O503 Li443 1.956 . S
O503 C478 1.325 . S
H504 C446 0.929 . S
H505 C447 0.930 . S
H506 C448 0.930 . S
H507 C449 0.930 . S
H508 C451 0.930 . S
H509 C453 0.929 . S
H510 C454 0.930 . S
H511 C455 0.881 1_565 S
H512 C458 0.930 . S
H513 C461 0.929 . S
H514 C466 0.929 . S
H515 C467 0.930 . S
H516 C474 0.929 . S
H517 C475 0.930 . S
H518 C476 0.893 1_545 S
H519 C477 0.930 . S
H520 C479 0.929 . S
H521 C480 0.930 . S
H522 C481 0.930 . S
H523 C482 0.930 . S
H524 C486 0.929 . S
H525 C488 0.930 . S
H526 C494 0.929 . S
H527 C495 0.930 . S
Li528 N545 1.990 . S
Li528 O588 1.956 . S
Li528 O589 1.970 . S
Li528 O590 1.961 . S
Li529 N553 1.990 . S
Li529 O588 1.970 . S
Li529 O589 1.956 . S
Li529 O591 1.961 . S
Li530 N575 1.990 . S
Li530 O588 1.961 . S
Li530 O590 1.956 . S
Li530 O591 1.970 . S
Li531 N581 1.990 . S
Li531 O589 1.961 . S
Li531 O590 1.970 . S
Li531 O591 1.956 . S
C532 C534 1.348 . S
C532 C535 1.356 . S
C532 O588 1.325 . S
N533 C536 1.314 . S
N533 C537 1.279 . S
C534 C532 1.348 . S
C534 C536 1.353 . S
C534 H592 0.929 . S
C535 C532 1.356 . S
C535 C537 1.358 . S
C535 H593 0.930 . S
C536 N533 1.314 . S
C536 C534 1.353 . S
C536 H594 0.930 . S
C537 N533 1.279 . S
C537 C535 1.358 . S
C537 H595 0.930 . S
C538 C541 1.348 . S
C538 C542 1.356 . S
C538 O589 1.325 . S
C539 N540 1.279 . S
C539 C542 1.358 . S
C539 H596 0.930 . S
N540 C539 1.279 . S
N540 C543 1.314 . S
C541 C538 1.348 . S
C541 C543 1.353 . S
C541 H597 0.929 . S
C542 C538 1.356 . S
C542 C539 1.358 . S
C542 H598 0.930 . S
C543 N540 1.314 . S
C543 C541 1.353 . S
C543 H599 0.930 . S
C544 N545 1.314 . S
C544 C549 1.353 . S
C544 H550 0.930 . S
N545 Li528 1.990 . S
N545 C544 1.314 . S
N545 C547 1.279 . S
C546 C547 1.358 . S
C546 C548 1.356 . S
C546 H600 0.930 . S
C547 N545 1.279 . S
C547 C546 1.358 . S
C547 H551 0.930 . S
C548 C546 1.356 . S
C548 C549 1.348 . S
C549 C544 1.353 . S
C549 C548 1.348 . S
C549 H601 0.929 . S
H550 C544 0.930 . S
H551 C547 0.930 . S
C552 N553 1.314 . S
C552 C554 1.353 . S
C552 H558 0.930 . S
N553 Li529 1.990 . S
N553 C552 1.314 . S
N553 C556 1.279 . S
C554 C552 1.353 . S
C554 C557 1.348 . S
C554 H602 0.929 . S
C555 C556 1.358 . S
C555 C557 1.356 . S
C555 H603 0.930 . S
C556 N553 1.279 . S
C556 C555 1.358 . S
C556 H559 0.930 . S
C557 C554 1.348 . S
C557 C555 1.356 . S
H558 C552 0.930 . S
H559 C556 0.930 . S
C560 C562 1.348 . S
C560 C563 1.356 . S
C560 O590 1.325 . S
N561 C564 1.314 . S
N561 C565 1.279 . S
C562 C560 1.348 . S
C562 C564 1.353 . S
C562 H604 0.929 . S
C563 C560 1.356 . S
C563 C565 1.358 . S
C563 H605 0.930 . S
C564 N561 1.314 . S
C564 C562 1.353 . S
C564 H606 0.930 . S
C565 N561 1.279 . S
C565 C563 1.358 . S
C565 H607 0.930 . S
C566 C567 1.348 . S
C566 C568 1.356 . S
C566 O591 1.325 . S
C567 C566 1.348 . S
C567 C569 1.353 . S
C567 H608 0.929 . S
C568 C566 1.356 . S
C568 C570 1.358 . S
C568 H609 0.930 . S
C569 C567 1.353 . S
C569 N571 1.314 . S
C569 H610 0.930 . S
C570 C568 1.358 . S
C570 N571 1.279 . S
C570 H611 0.930 . S
N571 C569 1.314 . S
N571 C570 1.279 . S
C572 C574 1.353 . S
C572 N575 1.314 . S
C572 H578 0.930 . S
C573 N575 1.279 . S
C573 C576 1.358 . S
C573 H579 0.930 . S
C574 C572 1.353 . S
C574 C577 1.348 . S
C574 H612 0.929 . S
N575 Li530 1.990 . S
N575 C572 1.314 . S
N575 C573 1.279 . S
C576 C573 1.358 . S
C576 C577 1.356 . S
C576 H613 0.930 . S
C577 C574 1.348 . S
C577 C576 1.356 . S
H578 C572 0.930 . S
H579 C573 0.930 . S
C580 N581 1.314 . S
C580 C582 1.353 . S
C580 H586 0.930 . S
N581 Li531 1.990 . S
N581 C580 1.314 . S
N581 C584 1.279 . S
C582 C580 1.353 . S
C582 C585 1.348 . S
C582 H614 0.929 . S
C583 C584 1.358 . S
C583 C585 1.356 . S
C583 H615 0.930 . S
C584 N581 1.279 . S
C584 C583 1.358 . S
C584 H587 0.930 . S
C585 C582 1.348 . S
C585 C583 1.356 . S
H586 C580 0.930 . S
H587 C584 0.930 . S
O588 Li528 1.956 . S
O588 Li529 1.970 . S
O588 Li530 1.961 . S
O588 C532 1.325 . S
O589 Li528 1.970 . S
O589 Li529 1.956 . S
O589 Li531 1.961 . S
O589 C538 1.325 . S
O590 Li528 1.961 . S
O590 Li530 1.956 . S
O590 Li531 1.970 . S
O590 C560 1.325 . S
O591 Li529 1.961 . S
O591 Li530 1.970 . S
O591 Li531 1.956 . S
O591 C566 1.325 . S
H592 C534 0.929 . S
H593 C535 0.930 . S
H594 C536 0.930 . S
H595 C537 0.930 . S
H596 C539 0.930 . S
H597 C541 0.929 . S
H598 C542 0.930 . S
H599 C543 0.930 . S
H600 C546 0.930 . S
H601 C549 0.929 . S
H602 C554 0.929 . S
H603 C555 0.930 . S
H604 C562 0.929 . S
H605 C563 0.930 . S
H606 C564 0.930 . S
H607 C565 0.930 . S
H608 C567 0.929 . S
H609 C568 0.930 . S
H610 C569 0.930 . S
H611 C570 0.930 . S
H612 C574 0.929 . S
H613 C576 0.930 . S
H614 C582 0.929 . S
H615 C583 0.930 . S
Li616 N633 1.990 . S
Li616 O676 1.956 . S
Li616 O677 1.970 1_545 S
Li616 O678 1.961 . S
Li617 N641 1.990 . S
Li617 O676 1.970 1_565 S
Li617 O677 1.956 . S
Li617 O679 1.961 . S
Li618 N663 1.990 . S
Li618 O676 1.961 . S
Li618 O678 1.956 . S
Li618 O679 1.970 1_545 S
Li619 N669 1.990 . S
Li619 O677 1.961 . S
Li619 O678 1.970 1_565 S
Li619 O679 1.956 . S
C620 C622 1.348 . S
C620 C623 1.356 . S
C620 O676 1.325 . S
N621 C624 1.314 . S
N621 C625 1.279 . S
C622 C620 1.348 . S
C622 C624 1.353 . S
C622 H680 0.929 . S
C623 C620 1.356 . S
C623 C625 1.358 . S
C623 H681 0.930 . S
C624 N621 1.314 . S
C624 C622 1.353 . S
C624 H682 0.930 . S
C625 N621 1.279 . S
C625 C623 1.358 . S
C625 H683 0.930 . S
C626 C629 1.348 1_565 S
C626 C630 1.356 . S
C626 O677 1.325 . S
C627 N628 1.279 . S
C627 C630 1.358 . S
C627 H684 0.930 . S
N628 C627 1.279 . S
N628 C631 1.362 . S
C629 C626 1.348 1_545 S
C629 C631 1.340 1_545 S
C629 H685 0.929 . S
C630 C626 1.356 . S
C630 C627 1.358 . S
C630 H686 0.930 . S
C631 N628 1.362 . S
C631 C629 1.340 1_565 S
C631 H687 0.893 1_565 S
C632 N633 1.314 . S
C632 C637 1.353 . S
C632 H638 0.930 . S
N633 Li616 1.990 . S
N633 C632 1.314 . S
N633 C635 1.279 . S
C634 C635 1.358 . S
C634 C636 1.356 . S
C634 H688 0.930 . S
C635 N633 1.279 . S
C635 C634 1.358 . S
C635 H639 0.930 . S
C636 C634 1.356 . S
C636 C637 1.348 . S
C637 C632 1.353 . S
C637 C636 1.348 . S
C637 H689 0.929 . S
H638 C632 0.930 . S
H639 C635 0.930 . S
C640 N641 1.314 . S
C640 C642 1.353 . S
C640 H646 0.930 . S
N641 Li617 1.990 . S
N641 C640 1.314 . S
N641 C644 1.279 . S
C642 C640 1.353 . S
C642 C645 1.348 . S
C642 H690 0.929 . S
C643 C644 1.358 . S
C643 C645 1.356 . S
C643 H691 0.930 . S
C644 N641 1.279 . S
C644 C643 1.358 . S
C644 H647 0.930 . S
C645 C642 1.348 . S
C645 C643 1.356 . S
H646 C640 0.930 . S
H647 C644 0.930 . S
C648 C650 1.348 1_545 S
C648 C651 1.356 . S
C648 O678 1.325 . S
N649 C652 1.378 . S
N649 C653 1.279 . S
C650 C648 1.348 1_565 S
C650 C652 1.336 1_565 S
C650 H692 0.929 . S
C651 C648 1.356 . S
C651 C653 1.358 . S
C651 H693 0.930 . S
C652 N649 1.378 . S
C652 C650 1.336 1_545 S
C652 H694 0.881 1_545 S
C653 N649 1.279 . S
C653 C651 1.358 . S
C653 H695 0.930 . S
C654 C655 1.348 . S
C654 C656 1.356 . S
C654 O679 1.325 . S
C655 C654 1.348 . S
C655 C657 1.353 . S
C655 H696 0.929 . S
C656 C654 1.356 . S
C656 C658 1.358 . S
C656 H697 0.930 . S
C657 C655 1.353 . S
C657 N659 1.314 . S
C657 H698 0.930 . S
C658 C656 1.358 . S
C658 N659 1.279 . S
C658 H699 0.930 . S
N659 C657 1.314 . S
N659 C658 1.279 . S
C660 C662 1.353 . S
C660 N663 1.314 . S
C660 H666 0.930 . S
C661 N663 1.279 . S
C661 C664 1.358 . S
C661 H667 0.930 . S
C662 C660 1.353 . S
C662 C665 1.348 . S
C662 H700 0.929 . S
N663 Li618 1.990 . S
N663 C660 1.314 . S
N663 C661 1.279 . S
C664 C661 1.358 . S
C664 C665 1.356 . S
C664 H701 0.930 . S
C665 C662 1.348 . S
C665 C664 1.356 . S
H666 C660 0.930 . S
H667 C661 0.930 . S
C668 N669 1.314 . S
C668 C670 1.353 . S
C668 H674 0.930 . S
N669 Li619 1.990 . S
N669 C668 1.314 . S
N669 C672 1.279 . S
C670 C668 1.353 . S
C670 C673 1.348 . S
C670 H702 0.929 . S
C671 C672 1.358 . S
C671 C673 1.356 . S
C671 H703 0.930 . S
C672 N669 1.279 . S
C672 C671 1.358 . S
C672 H675 0.930 . S
C673 C670 1.348 . S
C673 C671 1.356 . S
H674 C668 0.930 . S
H675 C672 0.930 . S
O676 Li616 1.956 . S
O676 Li617 1.970 1_545 S
O676 Li618 1.961 . S
O676 C620 1.325 . S
O677 Li616 1.970 1_565 S
O677 Li617 1.956 . S
O677 Li619 1.961 . S
O677 C626 1.325 . S
O678 Li616 1.961 . S
O678 Li618 1.956 . S
O678 Li619 1.970 1_545 S
O678 C648 1.325 . S
O679 Li617 1.961 . S
O679 Li618 1.970 1_565 S
O679 Li619 1.956 . S
O679 C654 1.325 . S
H680 C622 0.929 . S
H681 C623 0.930 . S
H682 C624 0.930 . S
H683 C625 0.930 . S
H684 C627 0.930 . S
H685 C629 0.929 . S
H686 C630 0.930 . S
H687 C631 0.893 1_545 S
H688 C634 0.930 . S
H689 C637 0.929 . S
H690 C642 0.929 . S
H691 C643 0.930 . S
H692 C650 0.929 . S
H693 C651 0.930 . S
H694 C652 0.881 1_565 S
H695 C653 0.930 . S
H696 C655 0.929 . S
H697 C656 0.930 . S
H698 C657 0.930 . S
H699 C658 0.930 . S
H700 C662 0.929 . S
H701 C664 0.930 . S
H702 C670 0.929 . S
H703 C671 0.930 . S
Li704 N721 1.990 . S
Li704 O764 1.956 . S
Li704 O765 1.970 . S
Li704 O766 1.961 . S
Li705 N729 1.990 . S
Li705 O764 1.970 . S
Li705 O765 1.956 . S
Li705 O767 1.961 . S
Li706 N751 1.990 . S
Li706 O764 1.961 . S
Li706 O766 1.956 . S
Li706 O767 1.970 . S
Li707 N757 1.990 . S
Li707 O765 1.961 . S
Li707 O766 1.970 . S
Li707 O767 1.956 . S
C708 C710 1.348 . S
C708 C711 1.356 . S
C708 O764 1.325 . S
N709 C712 1.314 . S
N709 C713 1.279 . S
C710 C708 1.348 . S
C710 C712 1.353 . S
C710 H768 0.929 . S
C711 C708 1.356 . S
C711 C713 1.358 . S
C711 H769 0.930 . S
C712 N709 1.314 . S
C712 C710 1.353 . S
C712 H770 0.930 . S
C713 N709 1.279 . S
C713 C711 1.358 . S
C713 H771 0.930 . S
C714 C717 1.348 . S
C714 C718 1.356 . S
C714 O765 1.325 . S
C715 N716 1.279 . S
C715 C718 1.358 . S
C715 H772 0.930 . S
N716 C715 1.279 . S
N716 C719 1.314 . S
C717 C714 1.348 . S
C717 C719 1.353 . S
C717 H773 0.929 . S
C718 C714 1.356 . S
C718 C715 1.358 . S
C718 H774 0.930 . S
C719 N716 1.314 . S
C719 C717 1.353 . S
C719 H775 0.930 . S
C720 N721 1.314 . S
C720 C725 1.353 . S
C720 H726 0.930 . S
N721 Li704 1.990 . S
N721 C720 1.314 . S
N721 C723 1.279 . S
C722 C723 1.358 . S
C722 C724 1.356 . S
C722 H776 0.930 . S
C723 N721 1.279 . S
C723 C722 1.358 . S
C723 H727 0.930 . S
C724 C722 1.356 . S
C724 C725 1.348 . S
C725 C720 1.353 . S
C725 C724 1.348 . S
C725 H777 0.929 . S
H726 C720 0.930 . S
H727 C723 0.930 . S
C728 N729 1.314 . S
C728 C730 1.353 . S
C728 H734 0.930 . S
N729 Li705 1.990 . S
N729 C728 1.314 . S
N729 C732 1.279 . S
C730 C728 1.353 . S
C730 C733 1.348 . S
C730 H778 0.929 . S
C731 C732 1.358 . S
C731 C733 1.356 . S
C731 H779 0.930 . S
C732 N729 1.279 . S
C732 C731 1.358 . S
C732 H735 0.930 . S
C733 C730 1.348 . S
C733 C731 1.356 . S
H734 C728 0.930 . S
H735 C732 0.930 . S
C736 C738 1.348 . S
C736 C739 1.356 . S
C736 O766 1.325 . S
N737 C740 1.314 . S
N737 C741 1.279 . S
C738 C736 1.348 . S
C738 C740 1.353 . S
C738 H780 0.929 . S
C739 C736 1.356 . S
C739 C741 1.358 . S
C739 H781 0.930 . S
C740 N737 1.314 . S
C740 C738 1.353 . S
C740 H782 0.930 . S
C741 N737 1.279 . S
C741 C739 1.358 . S
C741 H783 0.930 . S
C742 C743 1.348 . S
C742 C744 1.356 . S
C742 O767 1.325 . S
C743 C742 1.348 . S
C743 C745 1.353 . S
C743 H784 0.929 . S
C744 C742 1.356 . S
C744 C746 1.358 . S
C744 H785 0.930 . S
C745 C743 1.353 . S
C745 N747 1.314 . S
C745 H786 0.930 . S
C746 C744 1.358 . S
C746 N747 1.279 . S
C746 H787 0.930 . S
N747 C745 1.314 . S
N747 C746 1.279 . S
C748 C750 1.353 . S
C748 N751 1.314 . S
C748 H754 0.930 . S
C749 N751 1.279 . S
C749 C752 1.358 . S
C749 H755 0.930 . S
C750 C748 1.353 . S
C750 C753 1.348 . S
C750 H788 0.929 . S
N751 Li706 1.990 . S
N751 C748 1.314 . S
N751 C749 1.279 . S
C752 C749 1.358 . S
C752 C753 1.356 . S
C752 H789 0.930 . S
C753 C750 1.348 . S
C753 C752 1.356 . S
H754 C748 0.930 . S
H755 C749 0.930 . S
C756 N757 1.314 . S
C756 C758 1.353 . S
C756 H762 0.930 . S
N757 Li707 1.990 . S
N757 C756 1.314 . S
N757 C760 1.279 . S
C758 C756 1.353 . S
C758 C761 1.348 . S
C758 H790 0.929 . S
C759 C760 1.358 . S
C759 C761 1.356 . S
C759 H791 0.930 . S
C760 N757 1.279 . S
C760 C759 1.358 . S
C760 H763 0.930 . S
C761 C758 1.348 . S
C761 C759 1.356 . S
H762 C756 0.930 . S
H763 C760 0.930 . S
O764 Li704 1.956 . S
O764 Li705 1.970 . S
O764 Li706 1.961 . S
O764 C708 1.325 . S
O765 Li704 1.970 . S
O765 Li705 1.956 . S
O765 Li707 1.961 . S
O765 C714 1.325 . S
O766 Li704 1.961 . S
O766 Li706 1.956 . S
O766 Li707 1.970 . S
O766 C736 1.325 . S
O767 Li705 1.961 . S
O767 Li706 1.970 . S
O767 Li707 1.956 . S
O767 C742 1.325 . S
H768 C710 0.929 . S
H769 C711 0.930 . S
H770 C712 0.930 . S
H771 C713 0.930 . S
H772 C715 0.930 . S
H773 C717 0.929 . S
H774 C718 0.930 . S
H775 C719 0.930 . S
H776 C722 0.930 . S
H777 C725 0.929 . S
H778 C730 0.929 . S
H779 C731 0.930 . S
H780 C738 0.929 . S
H781 C739 0.930 . S
H782 C740 0.930 . S
H783 C741 0.930 . S
H784 C743 0.929 . S
H785 C744 0.930 . S
H786 C745 0.930 . S
H787 C746 0.930 . S
H788 C750 0.929 . S
H789 C752 0.930 . S
H790 C758 0.929 . S
H791 C759 0.930 . S
Li792 N809 1.990 . S
Li792 O852 1.956 . S
Li792 O853 1.970 . S
Li792 O854 1.961 . S
Li793 N817 1.990 . S
Li793 O852 1.970 . S
Li793 O853 1.956 . S
Li793 O855 1.961 . S
Li794 N839 1.990 . S
Li794 O852 1.961 . S
Li794 O854 1.956 . S
Li794 O855 1.970 . S
Li795 N845 1.990 . S
Li795 O853 1.961 . S
Li795 O854 1.970 . S
Li795 O855 1.956 . S
C796 C798 1.348 . S
C796 C799 1.356 . S
C796 O852 1.325 . S
N797 C800 1.314 . S
N797 C801 1.279 . S
C798 C796 1.348 . S
C798 C800 1.353 . S
C798 H856 0.929 . S
C799 C796 1.356 . S
C799 C801 1.358 . S
C799 H857 0.930 . S
C800 N797 1.314 . S
C800 C798 1.353 . S
C800 H858 0.930 . S
C801 N797 1.279 . S
C801 C799 1.358 . S
C801 H859 0.930 . S
C802 C805 1.348 . S
C802 C806 1.356 . S
C802 O853 1.325 . S
C803 N804 1.279 . S
C803 C806 1.358 . S
C803 H860 0.930 . S
N804 C803 1.279 . S
N804 C807 1.314 . S
C805 C802 1.348 . S
C805 C807 1.353 . S
C805 H861 0.929 . S
C806 C802 1.356 . S
C806 C803 1.358 . S
C806 H862 0.930 . S
C807 N804 1.314 . S
C807 C805 1.353 . S
C807 H863 0.930 . S
C808 N809 1.314 . S
C808 C813 1.353 . S
C808 H814 0.930 . S
N809 Li792 1.990 . S
N809 C808 1.314 . S
N809 C811 1.279 . S
C810 C811 1.358 . S
C810 C812 1.356 . S
C810 H864 0.930 . S
C811 N809 1.279 . S
C811 C810 1.358 . S
C811 H815 0.930 . S
C812 C810 1.356 . S
C812 C813 1.348 . S
C813 C808 1.353 . S
C813 C812 1.348 . S
C813 H865 0.929 . S
H814 C808 0.930 . S
H815 C811 0.930 . S
C816 N817 1.314 . S
C816 C818 1.353 . S
C816 H822 0.930 . S
N817 Li793 1.990 . S
N817 C816 1.314 . S
N817 C820 1.279 . S
C818 C816 1.353 . S
C818 C821 1.348 . S
C818 H866 0.929 . S
C819 C820 1.358 . S
C819 C821 1.356 . S
C819 H867 0.930 . S
C820 N817 1.279 . S
C820 C819 1.358 . S
C820 H823 0.930 . S
C821 C818 1.348 . S
C821 C819 1.356 . S
H822 C816 0.930 . S
H823 C820 0.930 . S
C824 C826 1.348 . S
C824 C827 1.356 . S
C824 O854 1.325 . S
N825 C828 1.314 . S
N825 C829 1.279 . S
C826 C824 1.348 . S
C826 C828 1.353 . S
C826 H868 0.929 . S
C827 C824 1.356 . S
C827 C829 1.358 . S
C827 H869 0.930 . S
C828 N825 1.314 . S
C828 C826 1.353 . S
C828 H870 0.930 . S
C829 N825 1.279 . S
C829 C827 1.358 . S
C829 H871 0.930 . S
C830 C831 1.348 . S
C830 C832 1.356 . S
C830 O855 1.325 . S
C831 C830 1.348 . S
C831 C833 1.353 . S
C831 H872 0.929 . S
C832 C830 1.356 . S
C832 C834 1.358 . S
C832 H873 0.930 . S
C833 C831 1.353 . S
C833 N835 1.314 . S
C833 H874 0.930 . S
C834 C832 1.358 . S
C834 N835 1.279 . S
C834 H875 0.930 . S
N835 C833 1.314 . S
N835 C834 1.279 . S
C836 C838 1.353 . S
C836 N839 1.314 . S
C836 H842 0.930 . S
C837 N839 1.279 . S
C837 C840 1.358 . S
C837 H843 0.930 . S
C838 C836 1.353 . S
C838 C841 1.348 . S
C838 H876 0.929 . S
N839 Li794 1.990 . S
N839 C836 1.314 . S
N839 C837 1.279 . S
C840 C837 1.358 . S
C840 C841 1.356 . S
C840 H877 0.930 . S
C841 C838 1.348 . S
C841 C840 1.356 . S
H842 C836 0.930 . S
H843 C837 0.930 . S
C844 N845 1.314 . S
C844 C846 1.353 . S
C844 H850 0.930 . S
N845 Li795 1.990 . S
N845 C844 1.314 . S
N845 C848 1.279 . S
C846 C844 1.353 . S
C846 C849 1.348 . S
C846 H878 0.929 . S
C847 C848 1.358 . S
C847 C849 1.356 . S
C847 H879 0.930 . S
C848 N845 1.279 . S
C848 C847 1.358 . S
C848 H851 0.930 . S
C849 C846 1.348 . S
C849 C847 1.356 . S
H850 C844 0.930 . S
H851 C848 0.930 . S
O852 Li792 1.956 . S
O852 Li793 1.970 . S
O852 Li794 1.961 . S
O852 C796 1.325 . S
O853 Li792 1.970 . S
O853 Li793 1.956 . S
O853 Li795 1.961 . S
O853 C802 1.325 . S
O854 Li792 1.961 . S
O854 Li794 1.956 . S
O854 Li795 1.970 . S
O854 C824 1.325 . S
O855 Li793 1.961 . S
O855 Li794 1.970 . S
O855 Li795 1.956 . S
O855 C830 1.325 . S
H856 C798 0.929 . S
H857 C799 0.930 . S
H858 C800 0.930 . S
H859 C801 0.930 . S
H860 C803 0.930 . S
H861 C805 0.929 . S
H862 C806 0.930 . S
H863 C807 0.930 . S
H864 C810 0.930 . S
H865 C813 0.929 . S
H866 C818 0.929 . S
H867 C819 0.930 . S
H868 C826 0.929 . S
H869 C827 0.930 . S
H870 C828 0.930 . S
H871 C829 0.930 . S
H872 C831 0.929 . S
H873 C832 0.930 . S
H874 C833 0.930 . S
H875 C834 0.930 . S
H876 C838 0.929 . S
H877 C840 0.930 . S
H878 C846 0.929 . S
H879 C847 0.930 . S
Li880 N897 1.990 . S
Li880 O940 1.956 1_556 S
Li880 O941 1.970 . S
Li880 O942 1.961 . S
Li881 N905 1.990 . S
Li881 O940 1.970 . S
Li881 O941 1.956 1_554 S
Li881 O943 1.961 . S
Li882 N927 1.990 . S
Li882 O940 1.961 . S
Li882 O942 1.956 1_554 S
Li882 O943 1.970 . S
Li883 N933 1.990 . S
Li883 O941 1.961 . S
Li883 O942 1.970 . S
Li883 O943 1.956 1_556 S
C884 C886 1.348 . S
C884 C887 1.356 . S
C884 O940 1.325 . S
N885 C888 1.314 . S
N885 C889 1.279 . S
C886 C884 1.348 . S
C886 C888 1.353 . S
C886 H944 0.929 . S
C887 C884 1.356 . S
C887 C889 1.358 . S
C887 H945 0.930 1_554 S
C888 N885 1.314 . S
C888 C886 1.353 . S
C888 H946 0.930 . S
C889 N885 1.279 . S
C889 C887 1.358 . S
C889 H947 0.930 1_554 S
C890 C893 1.348 . S
C890 C894 1.356 . S
C890 O941 1.325 . S
C891 N892 1.279 . S
C891 C894 1.358 . S
C891 H948 0.930 1_556 S
N892 C891 1.279 . S
N892 C895 1.314 . S
C893 C890 1.348 . S
C893 C895 1.353 . S
C893 H949 0.929 . S
C894 C890 1.356 . S
C894 C891 1.358 . S
C894 H950 0.930 1_556 S
C895 N892 1.314 . S
C895 C893 1.353 . S
C895 H951 0.930 . S
C896 N897 1.314 . S
C896 C901 1.353 . S
C896 H902 0.930 . S
N897 Li880 1.990 . S
N897 C896 1.314 . S
N897 C899 1.279 . S
C898 C899 1.358 . S
C898 C900 1.356 . S
C898 H952 0.930 . S
C899 N897 1.279 . S
C899 C898 1.358 . S
C899 H903 0.930 . S
C900 C898 1.356 . S
C900 C901 1.348 . S
C901 C896 1.353 . S
C901 C900 1.348 . S
C901 H953 0.929 . S
H902 C896 0.930 . S
H903 C899 0.930 . S
C904 N905 1.314 . S
C904 C906 1.353 . S
C904 H910 0.930 . S
N905 Li881 1.990 . S
N905 C904 1.314 . S
N905 C908 1.279 . S
C906 C904 1.353 . S
C906 C909 1.348 . S
C906 H954 0.929 . S
C907 C908 1.358 . S
C907 C909 1.356 . S
C907 H955 0.930 . S
C908 N905 1.279 . S
C908 C907 1.358 . S
C908 H911 0.930 . S
C909 C906 1.348 . S
C909 C907 1.356 . S
H910 C904 0.930 . S
H911 C908 0.930 . S
C912 C914 1.348 . S
C912 C915 1.356 . S
C912 O942 1.325 . S
N913 C916 1.314 . S
N913 C917 1.279 . S
C914 C912 1.348 . S
C914 C916 1.353 . S
C914 H956 0.929 . S
C915 C912 1.356 . S
C915 C917 1.358 . S
C915 H957 0.930 . S
C916 N913 1.314 . S
C916 C914 1.353 . S
C916 H958 0.930 . S
C917 N913 1.279 . S
C917 C915 1.358 . S
C917 H959 0.930 . S
C918 C919 1.348 . S
C918 C920 1.356 . S
C918 O943 1.325 . S
C919 C918 1.348 . S
C919 C921 1.353 . S
C919 H960 0.929 . S
C920 C918 1.356 . S
C920 C922 1.358 . S
C920 H961 0.930 . S
C921 C919 1.353 . S
C921 N923 1.314 . S
C921 H962 0.930 . S
C922 C920 1.358 . S
C922 N923 1.279 . S
C922 H963 0.930 . S
N923 C921 1.314 . S
N923 C922 1.279 . S
C924 C926 1.353 . S
C924 N927 1.314 . S
C924 H930 0.930 . S
C925 N927 1.279 1_556 S
C925 C928 1.358 1_556 S
C925 H931 0.930 . S
C926 C924 1.353 . S
C926 C929 1.348 . S
C926 H964 0.929 . S
N927 Li882 1.990 . S
N927 C924 1.314 . S
N927 C925 1.279 1_554 S
C928 C925 1.358 1_554 S
C928 C929 1.356 . S
C928 H965 0.930 1_554 S
C929 C926 1.348 . S
C929 C928 1.356 . S
H930 C924 0.930 . S
H931 C925 0.930 . S
C932 N933 1.314 . S
C932 C934 1.353 . S
C932 H938 0.930 . S
N933 Li883 1.990 . S
N933 C932 1.314 . S
N933 C936 1.279 1_556 S
C934 C932 1.353 . S
C934 C937 1.348 . S
C934 H966 0.929 . S
C935 C936 1.358 1_556 S
C935 C937 1.356 . S
C935 H967 0.930 1_556 S
C936 N933 1.279 1_554 S
C936 C935 1.358 1_554 S
C936 H939 0.930 . S
C937 C934 1.348 . S
C937 C935 1.356 . S
H938 C932 0.930 . S
H939 C936 0.930 . S
O940 Li880 1.956 1_554 S
O940 Li881 1.970 . S
O940 Li882 1.961 . S
O940 C884 1.325 . S
O941 Li880 1.970 . S
O941 Li881 1.956 1_556 S
O941 Li883 1.961 . S
O941 C890 1.325 . S
O942 Li880 1.961 . S
O942 Li882 1.956 1_556 S
O942 Li883 1.970 . S
O942 C912 1.325 . S
O943 Li881 1.961 . S
O943 Li882 1.970 . S
O943 Li883 1.956 1_554 S
O943 C918 1.325 . S
H944 C886 0.929 . S
H945 C887 0.930 1_556 S
H946 C888 0.930 . S
H947 C889 0.930 1_556 S
H948 C891 0.930 1_554 S
H949 C893 0.929 . S
H950 C894 0.930 1_554 S
H951 C895 0.930 . S
H952 C898 0.930 . S
H953 C901 0.929 . S
H954 C906 0.929 . S
H955 C907 0.930 . S
H956 C914 0.929 . S
H957 C915 0.930 . S
H958 C916 0.930 . S
H959 C917 0.930 . S
H960 C919 0.929 . S
H961 C920 0.930 . S
H962 C921 0.930 . S
H963 C922 0.930 . S
H964 C926 0.929 . S
H965 C928 0.930 1_556 S
H966 C934 0.929 . S
H967 C935 0.930 1_554 S
Li968 N985 1.990 . S
Li968 O1028 1.956 . S
Li968 O1029 1.970 . S
Li968 O1030 1.961 . S
Li969 N993 1.990 . S
Li969 O1028 1.970 . S
Li969 O1029 1.956 . S
Li969 O1031 1.961 . S
Li970 N1015 1.990 . S
Li970 O1028 1.961 . S
Li970 O1030 1.956 . S
Li970 O1031 1.970 . S
Li971 N1021 1.990 . S
Li971 O1029 1.961 . S
Li971 O1030 1.970 . S
Li971 O1031 1.956 . S
C972 C974 1.348 . S
C972 C975 1.356 . S
C972 O1028 1.325 . S
N973 C976 1.314 . S
N973 C977 1.279 . S
C974 C972 1.348 . S
C974 C976 1.353 . S
C974 H1032 0.929 . S
C975 C972 1.356 . S
C975 C977 1.358 . S
C975 H1033 0.930 . S
C976 N973 1.314 . S
C976 C974 1.353 . S
C976 H1034 0.930 . S
C977 N973 1.279 . S
C977 C975 1.358 . S
C977 H1035 0.930 . S
C978 C981 1.348 . S
C978 C982 1.356 . S
C978 O1029 1.325 . S
C979 N980 1.279 . S
C979 C982 1.358 . S
C979 H1036 0.930 . S
N980 C979 1.279 . S
N980 C983 1.314 . S
C981 C978 1.348 . S
C981 C983 1.353 . S
C981 H1037 0.929 . S
C982 C978 1.356 . S
C982 C979 1.358 . S
C982 H1038 0.930 . S
C983 N980 1.314 . S
C983 C981 1.353 . S
C983 H1039 0.930 . S
C984 N985 1.314 . S
C984 C989 1.353 . S
C984 H990 0.930 . S
N985 Li968 1.990 . S
N985 C984 1.314 . S
N985 C987 1.279 . S
C986 C987 1.358 . S
C986 C988 1.356 . S
C986 H1040 0.930 . S
C987 N985 1.279 . S
C987 C986 1.358 . S
C987 H991 0.930 . S
C988 C986 1.356 . S
C988 C989 1.348 . S
C989 C984 1.353 . S
C989 C988 1.348 . S
C989 H1041 0.929 . S
H990 C984 0.930 . S
H991 C987 0.930 . S
C992 N993 1.314 . S
C992 C994 1.353 . S
C992 H998 0.930 . S
N993 Li969 1.990 . S
N993 C992 1.314 . S
N993 C996 1.279 . S
C994 C992 1.353 . S
C994 C997 1.348 . S
C994 H1042 0.929 . S
C995 C996 1.358 . S
C995 C997 1.356 . S
C995 H1043 0.930 . S
C996 N993 1.279 . S
C996 C995 1.358 . S
C996 H999 0.930 . S
C997 C994 1.348 . S
C997 C995 1.356 . S
H998 C992 0.930 . S
H999 C996 0.930 . S
C1000 C1002 1.348 . S
C1000 C1003 1.356 . S
C1000 O1030 1.325 . S
N1001 C1004 1.314 . S
N1001 C1005 1.279 . S
C1002 C1000 1.348 . S
C1002 C1004 1.353 . S
C1002 H1044 0.929 . S
C1003 C1000 1.356 . S
C1003 C1005 1.358 . S
C1003 H1045 0.930 . S
C1004 N1001 1.314 . S
C1004 C1002 1.353 . S
C1004 H1046 0.930 . S
C1005 N1001 1.279 . S
C1005 C1003 1.358 . S
C1005 H1047 0.930 . S
C1006 C1007 1.348 . S
C1006 C1008 1.356 . S
C1006 O1031 1.325 . S
C1007 C1006 1.348 . S
C1007 C1009 1.353 . S
C1007 H1048 0.929 . S
C1008 C1006 1.356 . S
C1008 C1010 1.358 . S
C1008 H1049 0.930 . S
C1009 C1007 1.353 . S
C1009 N1011 1.314 . S
C1009 H1050 0.930 . S
C1010 C1008 1.358 . S
C1010 N1011 1.279 . S
C1010 H1051 0.930 . S
N1011 C1009 1.314 . S
N1011 C1010 1.279 . S
C1012 C1014 1.353 . S
C1012 N1015 1.314 . S
C1012 H1018 0.930 . S
C1013 N1015 1.279 . S
C1013 C1016 1.358 . S
C1013 H1019 0.930 . S
C1014 C1012 1.353 . S
C1014 C1017 1.348 . S
C1014 H1052 0.929 . S
N1015 Li970 1.990 . S
N1015 C1012 1.314 . S
N1015 C1013 1.279 . S
C1016 C1013 1.358 . S
C1016 C1017 1.356 . S
C1016 H1053 0.930 . S
C1017 C1014 1.348 . S
C1017 C1016 1.356 . S
H1018 C1012 0.930 . S
H1019 C1013 0.930 . S
C1020 N1021 1.314 . S
C1020 C1022 1.353 . S
C1020 H1026 0.930 . S
N1021 Li971 1.990 . S
N1021 C1020 1.314 . S
N1021 C1024 1.279 . S
C1022 C1020 1.353 . S
C1022 C1025 1.348 . S
C1022 H1054 0.929 . S
C1023 C1024 1.358 . S
C1023 C1025 1.356 . S
C1023 H1055 0.930 . S
C1024 N1021 1.279 . S
C1024 C1023 1.358 . S
C1024 H1027 0.930 . S
C1025 C1022 1.348 . S
C1025 C1023 1.356 . S
H1026 C1020 0.930 . S
H1027 C1024 0.930 . S
O1028 Li968 1.956 . S
O1028 Li969 1.970 . S
O1028 Li970 1.961 . S
O1028 C972 1.325 . S
O1029 Li968 1.970 . S
O1029 Li969 1.956 . S
O1029 Li971 1.961 . S
O1029 C978 1.325 . S
O1030 Li968 1.961 . S
O1030 Li970 1.956 . S
O1030 Li971 1.970 . S
O1030 C1000 1.325 . S
O1031 Li969 1.961 . S
O1031 Li970 1.970 . S
O1031 Li971 1.956 . S
O1031 C1006 1.325 . S
H1032 C974 0.929 . S
H1033 C975 0.930 . S
H1034 C976 0.930 . S
H1035 C977 0.930 . S
H1036 C979 0.930 . S
H1037 C981 0.929 . S
H1038 C982 0.930 . S
H1039 C983 0.930 . S
H1040 C986 0.930 . S
H1041 C989 0.929 . S
H1042 C994 0.929 . S
H1043 C995 0.930 . S
H1044 C1002 0.929 . S
H1045 C1003 0.930 . S
H1046 C1004 0.930 . S
H1047 C1005 0.930 . S
H1048 C1007 0.929 . S
H1049 C1008 0.930 . S
H1050 C1009 0.930 . S
H1051 C1010 0.930 . S
H1052 C1014 0.929 . S
H1053 C1016 0.930 . S
H1054 C1022 0.929 . S
H1055 C1023 0.930 . S
Li1056 N1073 1.990 . S
Li1056 O1116 1.956 . S
Li1056 O1117 1.970 . S
Li1056 O1118 1.961 . S
Li1057 N1081 1.990 . S
Li1057 O1116 1.970 . S
Li1057 O1117 1.956 . S
Li1057 O1119 1.961 . S
Li1058 N1103 1.990 . S
Li1058 O1116 1.961 . S
Li1058 O1118 1.956 . S
Li1058 O1119 1.970 . S
Li1059 N1109 1.990 . S
Li1059 O1117 1.961 . S
Li1059 O1118 1.970 . S
Li1059 O1119 1.956 . S
C1060 C1062 1.348 . S
C1060 C1063 1.356 . S
C1060 O1116 1.325 . S
N1061 C1064 1.314 . S
N1061 C1065 1.279 . S
C1062 C1060 1.348 . S
C1062 C1064 1.353 . S
C1062 H1120 0.929 . S
C1063 C1060 1.356 . S
C1063 C1065 1.358 . S
C1063 H1121 0.930 . S
C1064 N1061 1.314 . S
C1064 C1062 1.353 . S
C1064 H1122 0.930 . S
C1065 N1061 1.279 . S
C1065 C1063 1.358 . S
C1065 H1123 0.930 . S
C1066 C1069 1.348 . S
C1066 C1070 1.356 . S
C1066 O1117 1.325 . S
C1067 N1068 1.279 . S
C1067 C1070 1.358 . S
C1067 H1124 0.930 . S
N1068 C1067 1.279 . S
N1068 C1071 1.314 . S
C1069 C1066 1.348 . S
C1069 C1071 1.353 . S
C1069 H1125 0.929 . S
C1070 C1066 1.356 . S
C1070 C1067 1.358 . S
C1070 H1126 0.930 . S
C1071 N1068 1.314 . S
C1071 C1069 1.353 . S
C1071 H1127 0.930 . S
C1072 N1073 1.314 . S
C1072 C1077 1.353 . S
C1072 H1078 0.930 . S
N1073 Li1056 1.990 . S
N1073 C1072 1.314 . S
N1073 C1075 1.279 . S
C1074 C1075 1.358 . S
C1074 C1076 1.356 . S
C1074 H1128 0.930 . S
C1075 N1073 1.279 . S
C1075 C1074 1.358 . S
C1075 H1079 0.930 . S
C1076 C1074 1.356 . S
C1076 C1077 1.348 . S
C1077 C1072 1.353 . S
C1077 C1076 1.348 . S
C1077 H1129 0.929 . S
H1078 C1072 0.930 . S
H1079 C1075 0.930 . S
C1080 N1081 1.314 . S
C1080 C1082 1.353 . S
C1080 H1086 0.930 . S
N1081 Li1057 1.990 . S
N1081 C1080 1.314 . S
N1081 C1084 1.279 . S
C1082 C1080 1.353 . S
C1082 C1085 1.348 . S
C1082 H1130 0.929 . S
C1083 C1084 1.358 . S
C1083 C1085 1.356 . S
C1083 H1131 0.930 . S
C1084 N1081 1.279 . S
C1084 C1083 1.358 . S
C1084 H1087 0.930 . S
C1085 C1082 1.348 . S
C1085 C1083 1.356 . S
H1086 C1080 0.930 . S
H1087 C1084 0.930 . S
C1088 C1090 1.348 . S
C1088 C1091 1.356 . S
C1088 O1118 1.325 . S
N1089 C1092 1.314 . S
N1089 C1093 1.279 . S
C1090 C1088 1.348 . S
C1090 C1092 1.353 . S
C1090 H1132 0.929 . S
C1091 C1088 1.356 . S
C1091 C1093 1.358 . S
C1091 H1133 0.930 . S
C1092 N1089 1.314 . S
C1092 C1090 1.353 . S
C1092 H1134 0.930 . S
C1093 N1089 1.279 . S
C1093 C1091 1.358 . S
C1093 H1135 0.930 . S
C1094 C1095 1.348 . S
C1094 C1096 1.356 . S
C1094 O1119 1.325 . S
C1095 C1094 1.348 . S
C1095 C1097 1.353 . S
C1095 H1136 0.929 . S
C1096 C1094 1.356 . S
C1096 C1098 1.358 . S
C1096 H1137 0.930 . S
C1097 C1095 1.353 . S
C1097 N1099 1.314 . S
C1097 H1138 0.930 . S
C1098 C1096 1.358 . S
C1098 N1099 1.279 . S
C1098 H1139 0.930 . S
N1099 C1097 1.314 . S
N1099 C1098 1.279 . S
C1100 C1102 1.353 . S
C1100 N1103 1.314 . S
C1100 H1106 0.930 . S
C1101 N1103 1.279 . S
C1101 C1104 1.358 . S
C1101 H1107 0.930 . S
C1102 C1100 1.353 . S
C1102 C1105 1.348 . S
C1102 H1140 0.929 . S
N1103 Li1058 1.990 . S
N1103 C1100 1.314 . S
N1103 C1101 1.279 . S
C1104 C1101 1.358 . S
C1104 C1105 1.356 . S
C1104 H1141 0.930 . S
C1105 C1102 1.348 . S
C1105 C1104 1.356 . S
H1106 C1100 0.930 . S
H1107 C1101 0.930 . S
C1108 N1109 1.314 . S
C1108 C1110 1.353 . S
C1108 H1114 0.930 . S
N1109 Li1059 1.990 . S
N1109 C1108 1.314 . S
N1109 C1112 1.279 . S
C1110 C1108 1.353 . S
C1110 C1113 1.348 . S
C1110 H1142 0.929 . S
C1111 C1112 1.358 . S
C1111 C1113 1.356 . S
C1111 H1143 0.930 . S
C1112 N1109 1.279 . S
C1112 C1111 1.358 . S
C1112 H1115 0.930 . S
C1113 C1110 1.348 . S
C1113 C1111 1.356 . S
H1114 C1108 0.930 . S
H1115 C1112 0.930 . S
O1116 Li1056 1.956 . S
O1116 Li1057 1.970 . S
O1116 Li1058 1.961 . S
O1116 C1060 1.325 . S
O1117 Li1056 1.970 . S
O1117 Li1057 1.956 . S
O1117 Li1059 1.961 . S
O1117 C1066 1.325 . S
O1118 Li1056 1.961 . S
O1118 Li1058 1.956 . S
O1118 Li1059 1.970 . S
O1118 C1088 1.325 . S
O1119 Li1057 1.961 . S
O1119 Li1058 1.970 . S
O1119 Li1059 1.956 . S
O1119 C1094 1.325 . S
H1120 C1062 0.929 . S
H1121 C1063 0.930 . S
H1122 C1064 0.930 . S
H1123 C1065 0.930 . S
H1124 C1067 0.930 . S
H1125 C1069 0.929 . S
H1126 C1070 0.930 . S
H1127 C1071 0.930 . S
H1128 C1074 0.930 . S
H1129 C1077 0.929 . S
H1130 C1082 0.929 . S
H1131 C1083 0.930 . S
H1132 C1090 0.929 . S
H1133 C1091 0.930 . S
H1134 C1092 0.930 . S
H1135 C1093 0.930 . S
H1136 C1095 0.929 . S
H1137 C1096 0.930 . S
H1138 C1097 0.930 . S
H1139 C1098 0.930 . S
H1140 C1102 0.929 . S
H1141 C1104 0.930 . S
H1142 C1110 0.929 . S
H1143 C1111 0.930 . S
Li1144 N1161 1.990 . S
Li1144 O1204 1.956 . S
Li1144 O1205 1.970 . S
Li1144 O1206 1.961 . S
Li1145 N1169 1.990 . S
Li1145 O1204 1.970 . S
Li1145 O1205 1.956 . S
Li1145 O1207 1.961 . S
Li1146 N1191 1.990 . S
Li1146 O1204 1.961 . S
Li1146 O1206 1.956 . S
Li1146 O1207 1.970 . S
Li1147 N1197 1.990 . S
Li1147 O1205 1.961 . S
Li1147 O1206 1.970 . S
Li1147 O1207 1.956 . S
C1148 C1150 1.348 . S
C1148 C1151 1.356 . S
C1148 O1204 1.325 . S
N1149 C1152 1.314 . S
N1149 C1153 1.279 . S
C1150 C1148 1.348 . S
C1150 C1152 1.353 . S
C1150 H1208 0.929 . S
C1151 C1148 1.356 . S
C1151 C1153 1.358 . S
C1151 H1209 0.930 . S
C1152 N1149 1.314 . S
C1152 C1150 1.353 . S
C1152 H1210 0.930 . S
C1153 N1149 1.279 . S
C1153 C1151 1.358 . S
C1153 H1211 0.930 . S
C1154 C1157 1.348 . S
C1154 C1158 1.356 . S
C1154 O1205 1.325 . S
C1155 N1156 1.279 . S
C1155 C1158 1.358 . S
C1155 H1212 0.930 . S
N1156 C1155 1.279 . S
N1156 C1159 1.314 . S
C1157 C1154 1.348 . S
C1157 C1159 1.353 . S
C1157 H1213 0.929 . S
C1158 C1154 1.356 . S
C1158 C1155 1.358 . S
C1158 H1214 0.930 . S
C1159 N1156 1.314 . S
C1159 C1157 1.353 . S
C1159 H1215 0.930 . S
C1160 N1161 1.314 . S
C1160 C1165 1.353 . S
C1160 H1166 0.930 . S
N1161 Li1144 1.990 . S
N1161 C1160 1.314 . S
N1161 C1163 1.279 . S
C1162 C1163 1.358 . S
C1162 C1164 1.356 . S
C1162 H1216 0.930 . S
C1163 N1161 1.279 . S
C1163 C1162 1.358 . S
C1163 H1167 0.930 . S
C1164 C1162 1.356 . S
C1164 C1165 1.348 . S
C1165 C1160 1.353 . S
C1165 C1164 1.348 . S
C1165 H1217 0.929 . S
H1166 C1160 0.930 . S
H1167 C1163 0.930 . S
C1168 N1169 1.314 . S
C1168 C1170 1.353 . S
C1168 H1174 0.930 . S
N1169 Li1145 1.990 . S
N1169 C1168 1.314 . S
N1169 C1172 1.279 . S
C1170 C1168 1.353 . S
C1170 C1173 1.348 . S
C1170 H1218 0.929 . S
C1171 C1172 1.358 . S
C1171 C1173 1.356 . S
C1171 H1219 0.930 . S
C1172 N1169 1.279 . S
C1172 C1171 1.358 . S
C1172 H1175 0.930 . S
C1173 C1170 1.348 . S
C1173 C1171 1.356 . S
H1174 C1168 0.930 . S
H1175 C1172 0.930 . S
C1176 C1178 1.348 . S
C1176 C1179 1.356 . S
C1176 O1206 1.325 . S
N1177 C1180 1.314 . S
N1177 C1181 1.279 . S
C1178 C1176 1.348 . S
C1178 C1180 1.353 . S
C1178 H1220 0.929 . S
C1179 C1176 1.356 . S
C1179 C1181 1.358 . S
C1179 H1221 0.930 . S
C1180 N1177 1.314 . S
C1180 C1178 1.353 . S
C1180 H1222 0.930 . S
C1181 N1177 1.279 . S
C1181 C1179 1.358 . S
C1181 H1223 0.930 . S
C1182 C1183 1.348 . S
C1182 C1184 1.356 . S
C1182 O1207 1.325 . S
C1183 C1182 1.348 . S
C1183 C1185 1.353 . S
C1183 H1224 0.929 . S
C1184 C1182 1.356 . S
C1184 C1186 1.358 . S
C1184 H1225 0.930 . S
C1185 C1183 1.353 . S
C1185 N1187 1.314 . S
C1185 H1226 0.930 . S
C1186 C1184 1.358 . S
C1186 N1187 1.279 . S
C1186 H1227 0.930 . S
N1187 C1185 1.314 . S
N1187 C1186 1.279 . S
C1188 C1190 1.353 . S
C1188 N1191 1.314 . S
C1188 H1194 0.930 . S
C1189 N1191 1.279 . S
C1189 C1192 1.358 . S
C1189 H1195 0.930 . S
C1190 C1188 1.353 . S
C1190 C1193 1.348 . S
C1190 H1228 0.929 . S
N1191 Li1146 1.990 . S
N1191 C1188 1.314 . S
N1191 C1189 1.279 . S
C1192 C1189 1.358 . S
C1192 C1193 1.356 . S
C1192 H1229 0.930 . S
C1193 C1190 1.348 . S
C1193 C1192 1.356 . S
H1194 C1188 0.930 . S
H1195 C1189 0.930 . S
C1196 N1197 1.314 . S
C1196 C1198 1.353 . S
C1196 H1202 0.930 . S
N1197 Li1147 1.990 . S
N1197 C1196 1.314 . S
N1197 C1200 1.279 . S
C1198 C1196 1.353 . S
C1198 C1201 1.348 . S
C1198 H1230 0.929 . S
C1199 C1200 1.358 . S
C1199 C1201 1.356 . S
C1199 H1231 0.930 . S
C1200 N1197 1.279 . S
C1200 C1199 1.358 . S
C1200 H1203 0.930 . S
C1201 C1198 1.348 . S
C1201 C1199 1.356 . S
H1202 C1196 0.930 . S
H1203 C1200 0.930 . S
O1204 Li1144 1.956 . S
O1204 Li1145 1.970 . S
O1204 Li1146 1.961 . S
O1204 C1148 1.325 . S
O1205 Li1144 1.970 . S
O1205 Li1145 1.956 . S
O1205 Li1147 1.961 . S
O1205 C1154 1.325 . S
O1206 Li1144 1.961 . S
O1206 Li1146 1.956 . S
O1206 Li1147 1.970 . S
O1206 C1176 1.325 . S
O1207 Li1145 1.961 . S
O1207 Li1146 1.970 . S
O1207 Li1147 1.956 . S
O1207 C1182 1.325 . S
H1208 C1150 0.929 . S
H1209 C1151 0.930 . S
H1210 C1152 0.930 . S
H1211 C1153 0.930 . S
H1212 C1155 0.930 . S
H1213 C1157 0.929 . S
H1214 C1158 0.930 . S
H1215 C1159 0.930 . S
H1216 C1162 0.930 . S
H1217 C1165 0.929 . S
H1218 C1170 0.929 . S
H1219 C1171 0.930 . S
H1220 C1178 0.929 . S
H1221 C1179 0.930 . S
H1222 C1180 0.930 . S
H1223 C1181 0.930 . S
H1224 C1183 0.929 . S
H1225 C1184 0.930 . S
H1226 C1185 0.930 . S
H1227 C1186 0.930 . S
H1228 C1190 0.929 . S
H1229 C1192 0.930 . S
H1230 C1198 0.929 . S
H1231 C1199 0.930 . S
Li1232 N1249 1.990 . S
Li1232 O1292 1.956 . S
Li1232 O1293 1.970 . S
Li1232 O1294 1.961 1_554 S
Li1233 N1257 1.990 . S
Li1233 O1292 1.970 . S
Li1233 O1293 1.956 . S
Li1233 O1295 1.961 1_554 S
Li1234 N1279 1.990 . S
Li1234 O1292 1.961 1_556 S
Li1234 O1294 1.956 . S
Li1234 O1295 1.970 . S
Li1235 N1285 1.990 . S
Li1235 O1293 1.961 1_556 S
Li1235 O1294 1.970 . S
Li1235 O1295 1.956 . S
C1236 C1238 1.348 . S
C1236 C1239 1.356 . S
C1236 O1292 1.325 . S
N1237 C1240 1.314 . S
N1237 C1241 1.279 . S
C1238 C1236 1.348 . S
C1238 C1240 1.353 . S
C1238 H1296 0.929 . S
C1239 C1236 1.356 . S
C1239 C1241 1.358 . S
C1239 H1297 0.930 . S
C1240 N1237 1.314 . S
C1240 C1238 1.353 . S
C1240 H1298 0.930 . S
C1241 N1237 1.279 . S
C1241 C1239 1.358 . S
C1241 H1299 0.930 . S
C1242 C1245 1.348 . S
C1242 C1246 1.356 1_554 S
C1242 O1293 1.325 . S
C1243 N1244 1.279 . S
C1243 C1246 1.358 1_554 S
C1243 H1300 0.930 1_554 S
N1244 C1243 1.279 . S
N1244 C1247 1.314 . S
C1245 C1242 1.348 . S
C1245 C1247 1.353 . S
C1245 H1301 0.929 . S
C1246 C1242 1.356 1_556 S
C1246 C1243 1.358 1_556 S
C1246 H1302 0.930 . S
C1247 N1244 1.314 . S
C1247 C1245 1.353 . S
C1247 H1303 0.930 . S
C1248 N1249 1.314 . S
C1248 C1253 1.353 . S
C1248 H1254 0.930 . S
N1249 Li1232 1.990 . S
N1249 C1248 1.314 . S
N1249 C1251 1.279 . S
C1250 C1251 1.358 . S
C1250 C1252 1.356 . S
C1250 H1304 0.930 . S
C1251 N1249 1.279 . S
C1251 C1250 1.358 . S
C1251 H1255 0.930 . S
C1252 C1250 1.356 . S
C1252 C1253 1.348 . S
C1253 C1248 1.353 . S
C1253 C1252 1.348 . S
C1253 H1305 0.929 . S
H1254 C1248 0.930 . S
H1255 C1251 0.930 . S
C1256 N1257 1.314 . S
C1256 C1258 1.353 . S
C1256 H1262 0.930 1_554 S
N1257 Li1233 1.990 . S
N1257 C1256 1.314 . S
N1257 C1260 1.279 . S
C1258 C1256 1.353 . S
C1258 C1261 1.348 . S
C1258 H1306 0.929 . S
C1259 C1260 1.358 . S
C1259 C1261 1.356 . S
C1259 H1307 0.930 . S
C1260 N1257 1.279 . S
C1260 C1259 1.358 . S
C1260 H1263 0.930 . S
C1261 C1258 1.348 . S
C1261 C1259 1.356 . S
H1262 C1256 0.930 1_556 S
H1263 C1260 0.930 . S
C1264 C1266 1.348 . S
C1264 C1267 1.356 1_556 S
C1264 O1294 1.325 . S
N1265 C1268 1.314 . S
N1265 C1269 1.279 . S
C1266 C1264 1.348 . S
C1266 C1268 1.353 . S
C1266 H1308 0.929 . S
C1267 C1264 1.356 1_554 S
C1267 C1269 1.358 1_554 S
C1267 H1309 0.930 . S
C1268 N1265 1.314 . S
C1268 C1266 1.353 . S
C1268 H1310 0.930 . S
C1269 N1265 1.279 . S
C1269 C1267 1.358 1_556 S
C1269 H1311 0.930 1_556 S
C1270 C1271 1.348 . S
C1270 C1272 1.356 . S
C1270 O1295 1.325 . S
C1271 C1270 1.348 . S
C1271 C1273 1.353 . S
C1271 H1312 0.929 . S
C1272 C1270 1.356 . S
C1272 C1274 1.358 . S
C1272 H1313 0.930 . S
C1273 C1271 1.353 . S
C1273 N1275 1.314 . S
C1273 H1314 0.930 . S
C1274 C1272 1.358 . S
C1274 N1275 1.279 . S
C1274 H1315 0.930 . S
N1275 C1273 1.314 . S
N1275 C1274 1.279 . S
C1276 C1278 1.353 . S
C1276 N1279 1.314 . S
C1276 H1282 0.930 1_556 S
C1277 N1279 1.279 . S
C1277 C1280 1.358 . S
C1277 H1283 0.930 . S
C1278 C1276 1.353 . S
C1278 C1281 1.348 . S
C1278 H1316 0.929 . S
N1279 Li1234 1.990 . S
N1279 C1276 1.314 . S
N1279 C1277 1.279 . S
C1280 C1277 1.358 . S
C1280 C1281 1.356 . S
C1280 H1317 0.930 . S
C1281 C1278 1.348 . S
C1281 C1280 1.356 . S
H1282 C1276 0.930 1_554 S
H1283 C1277 0.930 . S
C1284 N1285 1.314 . S
C1284 C1286 1.353 . S
C1284 H1290 0.930 . S
N1285 Li1235 1.990 . S
N1285 C1284 1.314 . S
N1285 C1288 1.279 . S
C1286 C1284 1.353 . S
C1286 C1289 1.348 . S
C1286 H1318 0.929 . S
C1287 C1288 1.358 . S
C1287 C1289 1.356 . S
C1287 H1319 0.930 . S
C1288 N1285 1.279 . S
C1288 C1287 1.358 . S
C1288 H1291 0.930 . S
C1289 C1286 1.348 . S
C1289 C1287 1.356 . S
H1290 C1284 0.930 . S
H1291 C1288 0.930 . S
O1292 Li1232 1.956 . S
O1292 Li1233 1.970 . S
O1292 Li1234 1.961 1_554 S
O1292 C1236 1.325 . S
O1293 Li1232 1.970 . S
O1293 Li1233 1.956 . S
O1293 Li1235 1.961 1_554 S
O1293 C1242 1.325 . S
O1294 Li1232 1.961 1_556 S
O1294 Li1234 1.956 . S
O1294 Li1235 1.970 . S
O1294 C1264 1.325 . S
O1295 Li1233 1.961 1_556 S
O1295 Li1234 1.970 . S
O1295 Li1235 1.956 . S
O1295 C1270 1.325 . S
H1296 C1238 0.929 . S
H1297 C1239 0.930 . S
H1298 C1240 0.930 . S
H1299 C1241 0.930 . S
H1300 C1243 0.930 1_556 S
H1301 C1245 0.929 . S
H1302 C1246 0.930 . S
H1303 C1247 0.930 . S
H1304 C1250 0.930 . S
H1305 C1253 0.929 . S
H1306 C1258 0.929 . S
H1307 C1259 0.930 . S
H1308 C1266 0.929 . S
H1309 C1267 0.930 . S
H1310 C1268 0.930 . S
H1311 C1269 0.930 1_554 S
H1312 C1271 0.929 . S
H1313 C1272 0.930 . S
H1314 C1273 0.930 . S
H1315 C1274 0.930 . S
H1316 C1278 0.929 . S
H1317 C1280 0.930 . S
H1318 C1286 0.929 . S
H1319 C1287 0.930 . S
Li1320 N1337 1.990 . S
Li1320 O1380 1.956 . S
Li1320 O1381 1.970 . S
Li1320 O1382 1.961 . S
Li1321 N1345 1.990 . S
Li1321 O1380 1.970 . S
Li1321 O1381 1.956 . S
Li1321 O1383 1.961 . S
Li1322 N1367 1.990 . S
Li1322 O1380 1.961 . S
Li1322 O1382 1.956 . S
Li1322 O1383 1.970 . S
Li1323 N1373 1.990 . S
Li1323 O1381 1.961 . S
Li1323 O1382 1.970 . S
Li1323 O1383 1.956 . S
C1324 C1326 1.348 . S
C1324 C1327 1.356 . S
C1324 O1380 1.325 . S
N1325 C1328 1.314 . S
N1325 C1329 1.279 . S
C1326 C1324 1.348 . S
C1326 C1328 1.353 . S
C1326 H1384 0.929 . S
C1327 C1324 1.356 . S
C1327 C1329 1.358 . S
C1327 H1385 0.930 . S
C1328 N1325 1.314 . S
C1328 C1326 1.353 . S
C1328 H1386 0.930 . S
C1329 N1325 1.279 . S
C1329 C1327 1.358 . S
C1329 H1387 0.930 . S
C1330 C1333 1.348 . S
C1330 C1334 1.356 . S
C1330 O1381 1.325 . S
C1331 N1332 1.279 . S
C1331 C1334 1.358 . S
C1331 H1388 0.930 . S
N1332 C1331 1.279 . S
N1332 C1335 1.314 . S
C1333 C1330 1.348 . S
C1333 C1335 1.353 . S
C1333 H1389 0.929 . S
C1334 C1330 1.356 . S
C1334 C1331 1.358 . S
C1334 H1390 0.930 . S
C1335 N1332 1.314 . S
C1335 C1333 1.353 . S
C1335 H1391 0.930 . S
C1336 N1337 1.314 . S
C1336 C1341 1.353 . S
C1336 H1342 0.930 . S
N1337 Li1320 1.990 . S
N1337 C1336 1.314 . S
N1337 C1339 1.279 . S
C1338 C1339 1.358 . S
C1338 C1340 1.356 . S
C1338 H1392 0.930 . S
C1339 N1337 1.279 . S
C1339 C1338 1.358 . S
C1339 H1343 0.930 . S
C1340 C1338 1.356 . S
C1340 C1341 1.348 . S
C1341 C1336 1.353 . S
C1341 C1340 1.348 . S
C1341 H1393 0.929 . S
H1342 C1336 0.930 . S
H1343 C1339 0.930 . S
C1344 N1345 1.314 . S
C1344 C1346 1.353 . S
C1344 H1350 0.930 . S
N1345 Li1321 1.990 . S
N1345 C1344 1.314 . S
N1345 C1348 1.279 . S
C1346 C1344 1.353 . S
C1346 C1349 1.348 . S
C1346 H1394 0.929 . S
C1347 C1348 1.358 . S
C1347 C1349 1.356 . S
C1347 H1395 0.930 . S
C1348 N1345 1.279 . S
C1348 C1347 1.358 . S
C1348 H1351 0.930 . S
C1349 C1346 1.348 . S
C1349 C1347 1.356 . S
H1350 C1344 0.930 . S
H1351 C1348 0.930 . S
C1352 C1354 1.348 . S
C1352 C1355 1.356 . S
C1352 O1382 1.325 . S
N1353 C1356 1.314 . S
N1353 C1357 1.279 . S
C1354 C1352 1.348 . S
C1354 C1356 1.353 . S
C1354 H1396 0.929 . S
C1355 C1352 1.356 . S
C1355 C1357 1.358 . S
C1355 H1397 0.930 . S
C1356 N1353 1.314 . S
C1356 C1354 1.353 . S
C1356 H1398 0.930 . S
C1357 N1353 1.279 . S
C1357 C1355 1.358 . S
C1357 H1399 0.930 . S
C1358 C1359 1.348 . S
C1358 C1360 1.356 . S
C1358 O1383 1.325 . S
C1359 C1358 1.348 . S
C1359 C1361 1.353 . S
C1359 H1400 0.929 . S
C1360 C1358 1.356 . S
C1360 C1362 1.358 . S
C1360 H1401 0.930 . S
C1361 C1359 1.353 . S
C1361 N1363 1.314 . S
C1361 H1402 0.930 . S
C1362 C1360 1.358 . S
C1362 N1363 1.279 . S
C1362 H1403 0.930 . S
N1363 C1361 1.314 . S
N1363 C1362 1.279 . S
C1364 C1366 1.353 . S
C1364 N1367 1.314 . S
C1364 H1370 0.930 . S
C1365 N1367 1.279 . S
C1365 C1368 1.358 . S
C1365 H1371 0.930 . S
C1366 C1364 1.353 . S
C1366 C1369 1.348 . S
C1366 H1404 0.929 . S
N1367 Li1322 1.990 . S
N1367 C1364 1.314 . S
N1367 C1365 1.279 . S
C1368 C1365 1.358 . S
C1368 C1369 1.356 . S
C1368 H1405 0.930 . S
C1369 C1366 1.348 . S
C1369 C1368 1.356 . S
H1370 C1364 0.930 . S
H1371 C1365 0.930 . S
C1372 N1373 1.314 . S
C1372 C1374 1.353 . S
C1372 H1378 0.930 . S
N1373 Li1323 1.990 . S
N1373 C1372 1.314 . S
N1373 C1376 1.279 . S
C1374 C1372 1.353 . S
C1374 C1377 1.348 . S
C1374 H1406 0.929 . S
C1375 C1376 1.358 . S
C1375 C1377 1.356 . S
C1375 H1407 0.930 . S
C1376 N1373 1.279 . S
C1376 C1375 1.358 . S
C1376 H1379 0.930 . S
C1377 C1374 1.348 . S
C1377 C1375 1.356 . S
H1378 C1372 0.930 . S
H1379 C1376 0.930 . S
O1380 Li1320 1.956 . S
O1380 Li1321 1.970 . S
O1380 Li1322 1.961 . S
O1380 C1324 1.325 . S
O1381 Li1320 1.970 . S
O1381 Li1321 1.956 . S
O1381 Li1323 1.961 . S
O1381 C1330 1.325 . S
O1382 Li1320 1.961 . S
O1382 Li1322 1.956 . S
O1382 Li1323 1.970 . S
O1382 C1352 1.325 . S
O1383 Li1321 1.961 . S
O1383 Li1322 1.970 . S
O1383 Li1323 1.956 . S
O1383 C1358 1.325 . S
H1384 C1326 0.929 . S
H1385 C1327 0.930 . S
H1386 C1328 0.930 . S
H1387 C1329 0.930 . S
H1388 C1331 0.930 . S
H1389 C1333 0.929 . S
H1390 C1334 0.930 . S
H1391 C1335 0.930 . S
H1392 C1338 0.930 . S
H1393 C1341 0.929 . S
H1394 C1346 0.929 . S
H1395 C1347 0.930 . S
H1396 C1354 0.929 . S
H1397 C1355 0.930 . S
H1398 C1356 0.930 . S
H1399 C1357 0.930 . S
H1400 C1359 0.929 . S
H1401 C1360 0.930 . S
H1402 C1361 0.930 . S
H1403 C1362 0.930 . S
H1404 C1366 0.929 . S
H1405 C1368 0.930 . S
H1406 C1374 0.929 . S
H1407 C1375 0.930 . S
H1408 C1414 0.930 . S
H1409 C1418 0.930 . S
H1410 C1423 0.929 . S
H1411 C1421 0.929 . S
H1412 C1416 0.929 . S
H1413 C1422 0.929 . S
C1414 H1408 0.930 . S
C1414 C1415 1.367 . S
C1414 C1422 1.378 . S
C1415 C1414 1.367 . S
C1415 C1423 1.433 . S
C1416 H1412 0.929 . S
C1416 C1418 1.378 . S
C1416 C1420 1.350 . S
C1417 C1420 1.463 . S
C1417 C1422 1.350 . S
C1417 N1425 1.427 . S
C1418 H1409 0.930 . S
C1418 C1416 1.378 . S
C1418 C1419 1.367 . S
C1419 C1418 1.367 . S
C1419 C1421 1.433 . S
C1420 C1416 1.350 . S
C1420 C1417 1.463 . S
C1420 N1424 1.427 . S
C1421 H1411 0.929 . S
C1421 C1419 1.433 . S
C1421 N1424 1.384 . S
C1422 H1413 0.929 . S
C1422 C1414 1.378 . S
C1422 C1417 1.350 . S
C1423 H1410 0.929 . S
C1423 C1415 1.433 . S
C1423 N1425 1.384 . S
N1424 C1420 1.427 . S
N1424 C1421 1.384 . S
N1425 C1417 1.427 . S
N1425 C1423 1.384 . S
H1426 C1432 0.930 . S
H1427 C1436 0.930 . S
H1428 C1441 0.929 . S
H1429 C1439 0.929 . S
H1430 C1434 0.896 1_655 S
H1431 C1440 0.880 1_455 S
C1432 H1426 0.930 . S
C1432 C1433 1.367 . S
C1432 C1440 1.412 . S
C1433 C1432 1.367 . S
C1433 C1441 1.433 . S
C1434 H1430 0.896 1_455 S
C1434 C1436 1.401 . S
C1434 C1438 1.361 . S
C1435 C1438 1.463 1_645 S
C1435 C1440 1.366 . S
C1435 N1443 1.427 . S
C1436 H1427 0.930 . S
C1436 C1434 1.401 . S
C1436 C1437 1.367 . S
C1437 C1436 1.367 . S
C1437 C1439 1.433 . S
C1438 C1434 1.361 . S
C1438 C1435 1.463 1_465 S
C1438 N1442 1.427 . S
C1439 H1429 0.929 . S
C1439 C1437 1.433 . S
C1439 N1442 1.384 . S
C1440 H1431 0.880 1_655 S
C1440 C1432 1.412 . S
C1440 C1435 1.366 . S
C1441 H1428 0.929 . S
C1441 C1433 1.433 . S
C1441 N1443 1.384 . S
N1442 C1438 1.427 . S
N1442 C1439 1.384 . S
N1443 C1435 1.427 . S
N1443 C1441 1.384 . S
H1444 C1450 0.930 . S
H1445 C1454 0.930 . S
H1446 C1459 0.929 . S
H1447 C1457 0.929 . S
H1448 C1452 0.929 . S
H1449 C1458 0.929 . S
C1450 H1444 0.930 . S
C1450 C1451 1.367 . S
C1450 C1458 1.378 . S
C1451 C1450 1.367 . S
C1451 C1459 1.433 . S
C1452 H1448 0.929 . S
C1452 C1454 1.378 . S
C1452 C1456 1.350 . S
C1453 C1456 1.463 . S
C1453 C1458 1.350 . S
C1453 N1461 1.427 . S
C1454 H1445 0.930 . S
C1454 C1452 1.378 . S
C1454 C1455 1.367 . S
C1455 C1454 1.367 . S
C1455 C1457 1.433 . S
C1456 C1452 1.350 . S
C1456 C1453 1.463 . S
C1456 N1460 1.427 . S
C1457 H1447 0.929 . S
C1457 C1455 1.433 . S
C1457 N1460 1.384 . S
C1458 H1449 0.929 . S
C1458 C1450 1.378 . S
C1458 C1453 1.350 . S
C1459 H1446 0.929 . S
C1459 C1451 1.433 . S
C1459 N1461 1.384 . S
N1460 C1456 1.427 . S
N1460 C1457 1.384 . S
N1461 C1453 1.427 . S
N1461 C1459 1.384 . S
H1462 C1468 0.930 . S
H1463 C1472 0.930 . S
H1464 C1477 0.931 1_565 S
H1465 C1475 0.924 1_545 S
H1466 C1470 0.912 1_554 S
H1467 C1476 0.903 1_556 S
C1468 H1462 0.930 . S
C1468 C1469 1.367 . S
C1468 C1476 1.395 . S
C1469 C1468 1.367 . S
C1469 C1477 1.433 . S
C1470 H1466 0.912 1_556 S
C1470 C1472 1.389 . S
C1470 C1474 1.356 . S
C1471 C1474 1.463 1_544 S
C1471 C1476 1.358 . S
C1471 N1479 1.427 1_545 S
C1472 H1463 0.930 . S
C1472 C1470 1.389 . S
C1472 C1473 1.367 . S
C1473 C1472 1.367 . S
C1473 C1475 1.433 . S
C1474 C1470 1.356 . S
C1474 C1471 1.463 1_566 S
C1474 N1478 1.427 1_565 S
C1475 H1465 0.924 1_565 S
C1475 C1473 1.433 . S
C1475 N1478 1.384 1_565 S
C1476 H1467 0.903 1_554 S
C1476 C1468 1.395 . S
C1476 C1471 1.358 . S
C1477 H1464 0.931 1_545 S
C1477 C1469 1.433 . S
C1477 N1479 1.384 1_545 S
N1478 C1474 1.427 1_545 S
N1478 C1475 1.384 1_545 S
N1479 C1471 1.427 1_565 S
N1479 C1477 1.384 1_565 S
H1480 C1486 0.930 . S
H1481 C1490 0.930 . S
H1482 C1495 0.929 . S
H1483 C1493 0.929 . S
H1484 C1488 0.929 . S
H1485 C1494 0.929 . S
C1486 H1480 0.930 . S
C1486 C1487 1.367 . S
C1486 C1494 1.378 . S
C1487 C1486 1.367 . S
C1487 C1495 1.433 . S
C1488 H1484 0.929 . S
C1488 C1490 1.378 . S
C1488 C1492 1.350 . S
C1489 C1492 1.463 . S
C1489 C1494 1.350 . S
C1489 N1497 1.427 . S
C1490 H1481 0.930 . S
C1490 C1488 1.378 . S
C1490 C1491 1.367 . S
C1491 C1490 1.367 . S
C1491 C1493 1.433 . S
C1492 C1488 1.350 . S
C1492 C1489 1.463 . S
C1492 N1496 1.427 . S
C1493 H1483 0.929 . S
C1493 C1491 1.433 . S
C1493 N1496 1.384 . S
C1494 H1485 0.929 . S
C1494 C1486 1.378 . S
C1494 C1489 1.350 . S
C1495 H1482 0.929 . S
C1495 C1487 1.433 . S
C1495 N1497 1.384 . S
N1496 C1492 1.427 . S
N1496 C1493 1.384 . S
N1497 C1489 1.427 . S
N1497 C1495 1.384 . S
H1498 C1504 0.930 1_545 S
H1499 C1508 0.930 1_565 S
H1500 C1513 0.929 . S
H1501 C1511 0.929 . S
H1502 C1506 0.929 . S
H1503 C1512 0.929 . S
C1504 H1498 0.930 1_565 S
C1504 C1505 1.367 . S
C1504 C1512 1.378 1_565 S
C1505 C1504 1.367 . S
C1505 C1513 1.433 . S
C1506 H1502 0.929 . S
C1506 C1508 1.378 1_565 S
C1506 C1510 1.350 1_565 S
C1507 C1510 1.463 1_565 S
C1507 C1512 1.350 1_565 S
C1507 N1515 1.427 . S
C1508 H1499 0.930 1_545 S
C1508 C1506 1.378 1_545 S
C1508 C1509 1.367 . S
C1509 C1508 1.367 . S
C1509 C1511 1.433 . S
C1510 C1506 1.350 1_545 S
C1510 C1507 1.463 1_545 S
C1510 N1514 1.427 . S
C1511 H1501 0.929 . S
C1511 C1509 1.433 . S
C1511 N1514 1.384 . S
C1512 H1503 0.929 . S
C1512 C1504 1.378 1_545 S
C1512 C1507 1.350 1_545 S
C1513 H1500 0.929 . S
C1513 C1505 1.433 . S
C1513 N1515 1.384 . S
N1514 C1510 1.427 . S
N1514 C1511 1.384 . S
N1515 C1507 1.427 . S
N1515 C1513 1.384 . S
H1516 C1522 0.930 . S
H1517 C1526 0.930 . S
H1518 C1531 0.929 . S
H1519 C1529 0.929 . S
H1520 C1524 0.929 . S
H1521 C1530 0.929 . S
C1522 H1516 0.930 . S
C1522 C1523 1.367 . S
C1522 C1530 1.378 . S
C1523 C1522 1.367 . S
C1523 C1531 1.433 . S
C1524 H1520 0.929 . S
C1524 C1526 1.378 . S
C1524 C1528 1.350 . S
C1525 C1528 1.463 . S
C1525 C1530 1.350 . S
C1525 N1533 1.427 . S
C1526 H1517 0.930 . S
C1526 C1524 1.378 . S
C1526 C1527 1.367 . S
C1527 C1526 1.367 . S
C1527 C1529 1.433 . S
C1528 C1524 1.350 . S
C1528 C1525 1.463 . S
C1528 N1532 1.427 . S
C1529 H1519 0.929 . S
C1529 C1527 1.433 . S
C1529 N1532 1.384 . S
C1530 H1521 0.929 . S
C1530 C1522 1.378 . S
C1530 C1525 1.350 . S
C1531 H1518 0.929 . S
C1531 C1523 1.433 . S
C1531 N1533 1.384 . S
N1532 C1528 1.427 . S
N1532 C1529 1.384 . S
N1533 C1525 1.427 . S
N1533 C1531 1.384 . S
H1534 C1540 0.930 . S
H1535 C1544 0.930 . S
H1536 C1549 0.929 1_565 S
H1537 C1547 0.901 1_545 S
H1538 C1542 0.929 1_556 S
H1539 C1548 0.929 1_554 S
C1540 H1534 0.930 . S
C1540 C1541 1.367 . S
C1540 C1548 1.378 . S
C1541 C1540 1.367 . S
C1541 C1549 1.433 . S
C1542 H1538 0.929 1_554 S
C1542 C1544 1.378 . S
C1542 C1546 1.350 . S
C1543 C1546 1.463 1_446 S
C1543 C1548 1.350 . S
C1543 N1551 1.427 1_545 S
C1544 H1535 0.930 . S
C1544 C1542 1.378 . S
C1544 C1545 1.367 . S
C1545 C1544 1.367 . S
C1545 C1547 1.487 . S
C1546 C1542 1.350 . S
C1546 C1543 1.463 1_664 S
C1546 N1550 1.427 1_565 S
C1547 H1537 0.901 1_565 S
C1547 C1545 1.487 . S
C1547 N1550 1.362 1_565 S
C1548 H1539 0.929 1_556 S
C1548 C1540 1.378 . S
C1548 C1543 1.350 . S
C1549 H1536 0.929 1_545 S
C1549 C1541 1.433 . S
C1549 N1551 1.384 1_545 S
N1550 C1546 1.427 1_545 S
N1550 C1547 1.362 1_545 S
N1551 C1543 1.427 1_565 S
N1551 C1549 1.384 1_565 S
H1552 C1558 0.930 . S
H1553 C1562 0.930 . S
H1554 C1567 0.929 . S
H1555 C1565 0.929 . S
H1556 C1560 0.929 . S
H1557 C1566 0.929 . S
C1558 H1552 0.930 . S
C1558 C1559 1.367 . S
C1558 C1566 1.378 . S
C1559 C1558 1.367 . S
C1559 C1567 1.433 . S
C1560 H1556 0.929 . S
C1560 C1562 1.378 . S
C1560 C1564 1.350 . S
C1561 C1564 1.463 . S
C1561 C1566 1.350 . S
C1561 N1569 1.427 . S
C1562 H1553 0.930 . S
C1562 C1560 1.378 . S
C1562 C1563 1.367 . S
C1563 C1562 1.367 . S
C1563 C1565 1.433 . S
C1564 C1560 1.350 . S
C1564 C1561 1.463 . S
C1564 N1568 1.427 . S
C1565 H1555 0.929 . S
C1565 C1563 1.433 . S
C1565 N1568 1.384 . S
C1566 H1557 0.929 . S
C1566 C1558 1.378 . S
C1566 C1561 1.350 . S
C1567 H1554 0.929 . S
C1567 C1559 1.433 . S
C1567 N1569 1.384 . S
N1568 C1564 1.427 . S
N1568 C1565 1.384 . S
N1569 C1561 1.427 . S
N1569 C1567 1.384 . S
H1570 C1576 0.930 . S
H1571 C1580 0.930 . S
H1572 C1585 0.929 . S
H1573 C1583 0.929 . S
H1574 C1578 0.929 . S
H1575 C1584 0.929 . S
C1576 H1570 0.930 . S
C1576 C1577 1.367 . S
C1576 C1584 1.378 . S
C1577 C1576 1.367 . S
C1577 C1585 1.433 . S
C1578 H1574 0.929 . S
C1578 C1580 1.378 . S
C1578 C1582 1.350 . S
C1579 C1582 1.463 . S
C1579 C1584 1.350 . S
C1579 N1587 1.427 . S
C1580 H1571 0.930 . S
C1580 C1578 1.378 . S
C1580 C1581 1.367 . S
C1581 C1580 1.367 . S
C1581 C1583 1.433 . S
C1582 C1578 1.350 . S
C1582 C1579 1.463 . S
C1582 N1586 1.427 . S
C1583 H1573 0.929 . S
C1583 C1581 1.433 . S
C1583 N1586 1.384 . S
C1584 H1575 0.929 . S
C1584 C1576 1.378 . S
C1584 C1579 1.350 . S
C1585 H1572 0.929 . S
C1585 C1577 1.433 . S
C1585 N1587 1.384 . S
N1586 C1582 1.427 . S
N1586 C1583 1.384 . S
N1587 C1579 1.427 . S
N1587 C1585 1.384 . S
H1588 C1594 0.930 . S
H1589 C1598 0.930 . S
H1590 C1603 0.929 . S
H1591 C1601 0.929 . S
H1592 C1596 0.929 . S
H1593 C1602 0.929 . S
C1594 H1588 0.930 . S
C1594 C1595 1.367 . S
C1594 C1602 1.378 . S
C1595 C1594 1.367 . S
C1595 C1603 1.433 . S
C1596 H1592 0.929 . S
C1596 C1598 1.378 . S
C1596 C1600 1.350 . S
C1597 C1600 1.463 . S
C1597 C1602 1.350 . S
C1597 N1605 1.427 . S
C1598 H1589 0.930 . S
C1598 C1596 1.378 . S
C1598 C1599 1.367 . S
C1599 C1598 1.367 . S
C1599 C1601 1.433 . S
C1600 C1596 1.350 . S
C1600 C1597 1.463 . S
C1600 N1604 1.427 . S
C1601 H1591 0.929 . S
C1601 C1599 1.433 . S
C1601 N1604 1.384 . S
C1602 H1593 0.929 . S
C1602 C1594 1.378 . S
C1602 C1597 1.350 . S
C1603 H1590 0.929 . S
C1603 C1595 1.433 . S
C1603 N1605 1.384 . S
N1604 C1600 1.427 . S
N1604 C1601 1.384 . S
N1605 C1597 1.427 . S
N1605 C1603 1.384 . S
H1606 C1612 0.930 . S
H1607 C1616 0.930 . S
H1608 C1621 0.929 . S
H1609 C1619 0.929 . S
H1610 C1614 0.929 . S
H1611 C1620 0.929 . S
C1612 H1606 0.930 . S
C1612 C1613 1.367 . S
C1612 C1620 1.378 . S
C1613 C1612 1.367 . S
C1613 C1621 1.433 . S
C1614 H1610 0.929 . S
C1614 C1616 1.378 . S
C1614 C1618 1.350 . S
C1615 C1618 1.463 . S
C1615 C1620 1.350 . S
C1615 N1623 1.427 . S
C1616 H1607 0.930 . S
C1616 C1614 1.378 . S
C1616 C1617 1.367 . S
C1617 C1616 1.367 . S
C1617 C1619 1.433 . S
C1618 C1614 1.350 . S
C1618 C1615 1.463 . S
C1618 N1622 1.427 . S
C1619 H1609 0.929 . S
C1619 C1617 1.433 . S
C1619 N1622 1.384 . S
C1620 H1611 0.929 . S
C1620 C1612 1.378 . S
C1620 C1615 1.350 . S
C1621 H1608 0.929 . S
C1621 C1613 1.433 . S
C1621 N1623 1.384 . S
N1622 C1618 1.427 . S
N1622 C1619 1.384 . S
N1623 C1615 1.427 . S
N1623 C1621 1.384 . S
H1624 C1630 0.930 . S
H1625 C1634 0.930 . S
H1626 C1639 0.929 . S
H1627 C1637 0.929 . S
H1628 C1632 0.929 . S
H1629 C1638 0.929 . S
C1630 H1624 0.930 . S
C1630 C1631 1.367 . S
C1630 C1638 1.378 . S
C1631 C1630 1.367 . S
C1631 C1639 1.433 . S
C1632 H1628 0.929 . S
C1632 C1634 1.378 . S
C1632 C1636 1.350 . S
C1633 C1636 1.463 1_554 S
C1633 C1638 1.350 . S
C1633 N1641 1.427 . S
C1634 H1625 0.930 . S
C1634 C1632 1.378 . S
C1634 C1635 1.367 . S
C1635 C1634 1.367 . S
C1635 C1637 1.433 . S
C1636 C1632 1.350 . S
C1636 C1633 1.463 1_556 S
C1636 N1640 1.427 . S
C1637 H1627 0.929 . S
C1637 C1635 1.433 . S
C1637 N1640 1.384 . S
C1638 H1629 0.929 . S
C1638 C1630 1.378 . S
C1638 C1633 1.350 . S
C1639 H1626 0.929 . S
C1639 C1631 1.433 . S
C1639 N1641 1.384 . S
N1640 C1636 1.427 . S
N1640 C1637 1.384 . S
N1641 C1633 1.427 . S
N1641 C1639 1.384 . S
H1642 C1648 0.930 . S
H1643 C1652 0.930 . S
H1644 C1657 0.929 . S
H1645 C1655 0.929 . S
H1646 C1650 0.929 . S
H1647 C1656 0.929 . S
C1648 H1642 0.930 . S
C1648 C1649 1.367 . S
C1648 C1656 1.378 . S
C1649 C1648 1.367 . S
C1649 C1657 1.433 . S
C1650 H1646 0.929 . S
C1650 C1652 1.378 . S
C1650 C1654 1.350 . S
C1651 C1654 1.463 1_455 S
C1651 C1656 1.350 . S
C1651 N1659 1.427 . S
C1652 H1643 0.930 . S
C1652 C1650 1.378 . S
C1652 C1653 1.367 . S
C1653 C1652 1.367 . S
C1653 C1655 1.433 . S
C1654 C1650 1.350 . S
C1654 C1651 1.463 1_655 S
C1654 N1658 1.427 . S
C1655 H1645 0.929 . S
C1655 C1653 1.433 . S
C1655 N1658 1.384 . S
C1656 H1647 0.929 . S
C1656 C1648 1.378 . S
C1656 C1651 1.350 . S
C1657 H1644 0.929 . S
C1657 C1649 1.433 . S
C1657 N1659 1.384 . S
N1658 C1654 1.427 . S
N1658 C1655 1.384 . S
N1659 C1651 1.427 . S
N1659 C1657 1.384 . S
H1660 C1666 0.930 . S
H1661 C1670 0.930 . S
H1662 C1675 0.929 . S
H1663 C1673 0.929 . S
H1664 C1668 0.929 . S
H1665 C1674 0.929 . S
C1666 H1660 0.930 . S
C1666 C1667 1.367 . S
C1666 C1674 1.378 . S
C1667 C1666 1.367 . S
C1667 C1675 1.433 . S
C1668 H1664 0.929 . S
C1668 C1670 1.378 . S
C1668 C1672 1.350 . S
C1669 C1672 1.463 1_454 S
C1669 C1674 1.350 . S
C1669 N1677 1.427 . S
C1670 H1661 0.930 . S
C1670 C1668 1.378 . S
C1670 C1671 1.367 . S
C1671 C1670 1.367 . S
C1671 C1673 1.433 . S
C1672 C1668 1.350 . S
C1672 C1669 1.463 1_656 S
C1672 N1676 1.427 . S
C1673 H1663 0.929 . S
C1673 C1671 1.433 . S
C1673 N1676 1.384 . S
C1674 H1665 0.929 . S
C1674 C1666 1.378 . S
C1674 C1669 1.350 . S
C1675 H1662 0.929 . S
C1675 C1667 1.433 . S
C1675 N1677 1.384 . S
N1676 C1672 1.427 . S
N1676 C1673 1.384 . S
N1677 C1669 1.427 . S
N1677 C1675 1.384 . S
H1678 C1684 0.930 . S
H1679 C1688 0.930 . S
H1680 C1693 0.929 . S
H1681 C1691 0.929 . S
H1682 C1686 0.929 . S
H1683 C1692 0.929 . S
C1684 H1678 0.930 . S
C1684 C1685 1.367 . S
C1684 C1692 1.378 . S
C1685 C1684 1.367 . S
C1685 C1693 1.433 . S
C1686 H1682 0.929 . S
C1686 C1688 1.378 . S
C1686 C1690 1.350 . S
C1687 C1690 1.463 . S
C1687 C1692 1.350 . S
C1687 N1695 1.427 . S
C1688 H1679 0.930 . S
C1688 C1686 1.378 . S
C1688 C1689 1.367 . S
C1689 C1688 1.367 . S
C1689 C1691 1.433 . S
C1690 C1686 1.350 . S
C1690 C1687 1.463 . S
C1690 N1694 1.427 . S
C1691 H1681 0.929 . S
C1691 C1689 1.433 . S
C1691 N1694 1.384 . S
C1692 H1683 0.929 . S
C1692 C1684 1.378 . S
C1692 C1687 1.350 . S
C1693 H1680 0.929 . S
C1693 C1685 1.433 . S
C1693 N1695 1.384 . S
N1694 C1690 1.427 . S
N1694 C1691 1.384 . S
N1695 C1687 1.427 . S
N1695 C1693 1.384 . S
H1696 C1702 0.930 . S
H1697 C1706 0.930 . S
H1698 C1711 0.929 . S
H1699 C1709 0.929 . S
H1700 C1704 0.929 . S
H1701 C1710 0.929 . S
C1702 H1696 0.930 . S
C1702 C1703 1.367 . S
C1702 C1710 1.378 . S
C1703 C1702 1.367 . S
C1703 C1711 1.433 . S
C1704 H1700 0.929 . S
C1704 C1706 1.378 . S
C1704 C1708 1.350 . S
C1705 C1708 1.463 . S
C1705 C1710 1.350 . S
C1705 N1713 1.427 . S
C1706 H1697 0.930 . S
C1706 C1704 1.378 . S
C1706 C1707 1.367 . S
C1707 C1706 1.367 . S
C1707 C1709 1.433 . S
C1708 C1704 1.350 . S
C1708 C1705 1.463 . S
C1708 N1712 1.427 . S
C1709 H1699 0.929 . S
C1709 C1707 1.433 . S
C1709 N1712 1.384 . S
C1710 H1701 0.929 . S
C1710 C1702 1.378 . S
C1710 C1705 1.350 . S
C1711 H1698 0.929 . S
C1711 C1703 1.433 . S
C1711 N1713 1.384 . S
N1712 C1708 1.427 . S
N1712 C1709 1.384 . S
N1713 C1705 1.427 . S
N1713 C1711 1.384 . S
H1714 C1720 0.930 . S
H1715 C1724 0.930 . S
H1716 C1729 0.929 . S
H1717 C1727 0.929 . S
H1718 C1722 0.929 . S
H1719 C1728 0.929 . S
C1720 H1714 0.930 . S
C1720 C1721 1.367 . S
C1720 C1728 1.378 . S
C1721 C1720 1.367 . S
C1721 C1729 1.433 . S
C1722 H1718 0.929 . S
C1722 C1724 1.378 . S
C1722 C1726 1.350 . S
C1723 C1726 1.463 . S
C1723 C1728 1.350 . S
C1723 N1731 1.427 . S
C1724 H1715 0.930 . S
C1724 C1722 1.378 . S
C1724 C1725 1.367 . S
C1725 C1724 1.367 . S
C1725 C1727 1.433 . S
C1726 C1722 1.350 . S
C1726 C1723 1.463 . S
C1726 N1730 1.427 . S
C1727 H1717 0.929 . S
C1727 C1725 1.433 . S
C1727 N1730 1.384 . S
C1728 H1719 0.929 . S
C1728 C1720 1.378 . S
C1728 C1723 1.350 . S
C1729 H1716 0.929 . S
C1729 C1721 1.433 . S
C1729 N1731 1.384 . S
N1730 C1726 1.427 . S
N1730 C1727 1.384 . S
N1731 C1723 1.427 . S
N1731 C1729 1.384 . S
H1732 C1738 0.930 . S
H1733 C1742 0.930 . S
H1734 C1747 0.929 . S
H1735 C1745 0.929 . S
H1736 C1740 0.929 . S
H1737 C1746 0.929 . S
C1738 H1732 0.930 . S
C1738 C1739 1.367 . S
C1738 C1746 1.378 . S
C1739 C1738 1.367 . S
C1739 C1747 1.433 . S
C1740 H1736 0.929 . S
C1740 C1742 1.378 . S
C1740 C1744 1.350 . S
C1741 C1744 1.463 . S
C1741 C1746 1.350 . S
C1741 N1749 1.427 . S
C1742 H1733 0.930 . S
C1742 C1740 1.378 . S
C1742 C1743 1.367 . S
C1743 C1742 1.367 . S
C1743 C1745 1.433 . S
C1744 C1740 1.350 . S
C1744 C1741 1.463 . S
C1744 N1748 1.427 . S
C1745 H1735 0.929 . S
C1745 C1743 1.433 . S
C1745 N1748 1.384 . S
C1746 H1737 0.929 . S
C1746 C1738 1.378 . S
C1746 C1741 1.350 . S
C1747 H1734 0.929 . S
C1747 C1739 1.433 . S
C1747 N1749 1.384 . S
N1748 C1744 1.427 . S
N1748 C1745 1.384 . S
N1749 C1741 1.427 . S
N1749 C1747 1.384 . S
H1750 C1756 0.930 . S
H1751 C1760 0.930 . S
H1752 C1765 0.929 . S
H1753 C1763 0.929 . S
H1754 C1758 0.929 . S
H1755 C1764 0.929 . S
C1756 H1750 0.930 . S
C1756 C1757 1.367 . S
C1756 C1764 1.378 . S
C1757 C1756 1.367 . S
C1757 C1765 1.433 . S
C1758 H1754 0.929 . S
C1758 C1760 1.378 . S
C1758 C1762 1.350 . S
C1759 C1762 1.463 . S
C1759 C1764 1.350 . S
C1759 N1767 1.427 . S
C1760 H1751 0.930 . S
C1760 C1758 1.378 . S
C1760 C1761 1.367 . S
C1761 C1760 1.367 . S
C1761 C1763 1.433 . S
C1762 C1758 1.350 . S
C1762 C1759 1.463 . S
C1762 N1766 1.427 . S
C1763 H1753 0.929 . S
C1763 C1761 1.433 . S
C1763 N1766 1.384 . S
C1764 H1755 0.929 . S
C1764 C1756 1.378 . S
C1764 C1759 1.350 . S
C1765 H1752 0.929 . S
C1765 C1757 1.433 . S
C1765 N1767 1.384 . S
N1766 C1762 1.427 . S
N1766 C1763 1.384 . S
N1767 C1759 1.427 . S
N1767 C1765 1.384 . S
H1768 C1774 0.930 . S
H1769 C1778 0.930 . S
H1770 C1783 0.929 . S
H1771 C1781 0.929 . S
H1772 C1776 0.929 . S
H1773 C1782 0.929 . S
C1774 H1768 0.930 . S
C1774 C1775 1.367 . S
C1774 C1782 1.378 . S
C1775 C1774 1.367 . S
C1775 C1783 1.433 . S
C1776 H1772 0.929 . S
C1776 C1778 1.378 . S
C1776 C1780 1.350 . S
C1777 C1780 1.463 . S
C1777 C1782 1.350 . S
C1777 N1785 1.427 . S
C1778 H1769 0.930 . S
C1778 C1776 1.378 . S
C1778 C1779 1.367 . S
C1779 C1778 1.367 . S
C1779 C1781 1.433 . S
C1780 C1776 1.350 . S
C1780 C1777 1.463 . S
C1780 N1784 1.427 . S
C1781 H1771 0.929 . S
C1781 C1779 1.433 . S
C1781 N1784 1.384 . S
C1782 H1773 0.929 . S
C1782 C1774 1.378 . S
C1782 C1777 1.350 . S
C1783 H1770 0.929 . S
C1783 C1775 1.433 . S
C1783 N1785 1.384 . S
N1784 C1780 1.427 . S
N1784 C1781 1.384 . S
N1785 C1777 1.427 . S
N1785 C1783 1.384 . S
H1786 C1792 0.930 . S
H1787 C1796 0.930 . S
H1788 C1801 0.929 . S
H1789 C1799 0.929 . S
H1790 C1794 0.929 . S
H1791 C1800 0.929 . S
C1792 H1786 0.930 . S
C1792 C1793 1.367 . S
C1792 C1800 1.378 . S
C1793 C1792 1.367 . S
C1793 C1801 1.433 . S
C1794 H1790 0.929 . S
C1794 C1796 1.378 . S
C1794 C1798 1.350 . S
C1795 C1798 1.463 . S
C1795 C1800 1.350 . S
C1795 N1803 1.427 . S
C1796 H1787 0.930 . S
C1796 C1794 1.378 . S
C1796 C1797 1.367 . S
C1797 C1796 1.367 . S
C1797 C1799 1.433 . S
C1798 C1794 1.350 . S
C1798 C1795 1.463 . S
C1798 N1802 1.427 . S
C1799 H1789 0.929 . S
C1799 C1797 1.433 . S
C1799 N1802 1.384 . S
C1800 H1791 0.929 . S
C1800 C1792 1.378 . S
C1800 C1795 1.350 . S
C1801 H1788 0.929 . S
C1801 C1793 1.433 . S
C1801 N1803 1.384 . S
N1802 C1798 1.427 . S
N1802 C1799 1.384 . S
N1803 C1795 1.427 . S
N1803 C1801 1.384 . S
H1804 C1810 0.930 . S
H1805 C1814 0.930 . S
H1806 C1819 0.929 . S
H1807 C1817 0.929 . S
H1808 C1812 0.929 . S
H1809 C1818 0.929 . S
C1810 H1804 0.930 . S
C1810 C1811 1.367 . S
C1810 C1818 1.378 . S
C1811 C1810 1.367 . S
C1811 C1819 1.433 . S
C1812 H1808 0.929 . S
C1812 C1814 1.378 . S
C1812 C1816 1.350 . S
C1813 C1816 1.463 . S
C1813 C1818 1.350 . S
C1813 N1821 1.427 . S
C1814 H1805 0.930 . S
C1814 C1812 1.378 . S
C1814 C1815 1.367 . S
C1815 C1814 1.367 . S
C1815 C1817 1.433 . S
C1816 C1812 1.350 . S
C1816 C1813 1.463 . S
C1816 N1820 1.427 . S
C1817 H1807 0.929 . S
C1817 C1815 1.433 . S
C1817 N1820 1.384 . S
C1818 H1809 0.929 . S
C1818 C1810 1.378 . S
C1818 C1813 1.350 . S
C1819 H1806 0.929 . S
C1819 C1811 1.433 . S
C1819 N1821 1.384 . S
N1820 C1816 1.427 . S
N1820 C1817 1.384 . S
N1821 C1813 1.427 . S
N1821 C1819 1.384 . S
H1822 C1828 0.930 . S
H1823 C1832 0.930 . S
H1824 C1837 0.929 . S
H1825 C1835 0.929 . S
H1826 C1830 0.929 . S
H1827 C1836 0.929 . S
C1828 H1822 0.930 . S
C1828 C1829 1.367 . S
C1828 C1836 1.378 . S
C1829 C1828 1.367 . S
C1829 C1837 1.433 . S
C1830 H1826 0.929 . S
C1830 C1832 1.378 . S
C1830 C1834 1.350 . S
C1831 C1834 1.463 . S
C1831 C1836 1.350 . S
C1831 N1839 1.427 . S
C1832 H1823 0.930 . S
C1832 C1830 1.378 . S
C1832 C1833 1.367 . S
C1833 C1832 1.367 . S
C1833 C1835 1.433 . S
C1834 C1830 1.350 . S
C1834 C1831 1.463 . S
C1834 N1838 1.427 . S
C1835 H1825 0.929 . S
C1835 C1833 1.433 . S
C1835 N1838 1.384 . S
C1836 H1827 0.929 . S
C1836 C1828 1.378 . S
C1836 C1831 1.350 . S
C1837 H1824 0.929 . S
C1837 C1829 1.433 . S
C1837 N1839 1.384 . S
N1838 C1834 1.427 . S
N1838 C1835 1.384 . S
N1839 C1831 1.427 . S
N1839 C1837 1.384 . S
H1840 C1846 0.930 . S
H1841 C1850 0.930 . S
H1842 C1855 0.929 . S
H1843 C1853 0.929 . S
H1844 C1848 0.929 . S
H1845 C1854 0.929 . S
C1846 H1840 0.930 . S
C1846 C1847 1.367 . S
C1846 C1854 1.378 . S
C1847 C1846 1.367 . S
C1847 C1855 1.433 . S
C1848 H1844 0.929 . S
C1848 C1850 1.378 . S
C1848 C1852 1.350 . S
C1849 C1852 1.463 . S
C1849 C1854 1.350 . S
C1849 N1857 1.427 . S
C1850 H1841 0.930 . S
C1850 C1848 1.378 . S
C1850 C1851 1.367 . S
C1851 C1850 1.367 . S
C1851 C1853 1.433 . S
C1852 C1848 1.350 . S
C1852 C1849 1.463 . S
C1852 N1856 1.427 . S
C1853 H1843 0.929 . S
C1853 C1851 1.433 . S
C1853 N1856 1.384 . S
C1854 H1845 0.929 . S
C1854 C1846 1.378 . S
C1854 C1849 1.350 . S
C1855 H1842 0.929 . S
C1855 C1847 1.433 . S
C1855 N1857 1.384 . S
N1856 C1852 1.427 . S
N1856 C1853 1.384 . S
N1857 C1849 1.427 . S
N1857 C1855 1.384 . S
H1858 C1864 0.930 . S
H1859 C1868 0.930 . S
H1860 C1873 0.929 . S
H1861 C1871 0.929 . S
H1862 C1866 0.929 . S
H1863 C1872 0.929 . S
C1864 H1858 0.930 . S
C1864 C1865 1.367 . S
C1864 C1872 1.378 . S
C1865 C1864 1.367 . S
C1865 C1873 1.433 . S
C1866 H1862 0.929 . S
C1866 C1868 1.378 . S
C1866 C1870 1.350 . S
C1867 C1870 1.463 . S
C1867 C1872 1.350 . S
C1867 N1875 1.427 . S
C1868 H1859 0.930 . S
C1868 C1866 1.378 . S
C1868 C1869 1.367 . S
C1869 C1868 1.367 . S
C1869 C1871 1.433 . S
C1870 C1866 1.350 . S
C1870 C1867 1.463 . S
C1870 N1874 1.427 . S
C1871 H1861 0.929 . S
C1871 C1869 1.433 . S
C1871 N1874 1.384 . S
C1872 H1863 0.929 . S
C1872 C1864 1.378 . S
C1872 C1867 1.350 . S
C1873 H1860 0.929 . S
C1873 C1865 1.433 . S
C1873 N1875 1.384 . S
N1874 C1870 1.427 . S
N1874 C1871 1.384 . S
N1875 C1867 1.427 . S
N1875 C1873 1.384 . S
H1876 C1882 0.930 . S
H1877 C1886 0.930 . S
H1878 C1891 0.929 . S
H1879 C1889 0.929 . S
H1880 C1884 0.929 . S
H1881 C1890 0.929 . S
C1882 H1876 0.930 . S
C1882 C1883 1.367 . S
C1882 C1890 1.378 . S
C1883 C1882 1.367 . S
C1883 C1891 1.433 . S
C1884 H1880 0.929 . S
C1884 C1886 1.378 . S
C1884 C1888 1.350 . S
C1885 C1888 1.463 . S
C1885 C1890 1.350 . S
C1885 N1893 1.427 . S
C1886 H1877 0.930 . S
C1886 C1884 1.378 . S
C1886 C1887 1.367 . S
C1887 C1886 1.367 . S
C1887 C1889 1.433 . S
C1888 C1884 1.350 . S
C1888 C1885 1.463 . S
C1888 N1892 1.427 . S
C1889 H1879 0.929 . S
C1889 C1887 1.433 . S
C1889 N1892 1.384 . S
C1890 H1881 0.929 . S
C1890 C1882 1.378 . S
C1890 C1885 1.350 . S
C1891 H1878 0.929 . S
C1891 C1883 1.433 . S
C1891 N1893 1.384 . S
N1892 C1888 1.427 . S
N1892 C1889 1.384 . S
N1893 C1885 1.427 . S
N1893 C1891 1.384 . S
H1894 C1900 0.930 . S
H1895 C1904 0.930 . S
H1896 C1909 0.929 . S
H1897 C1907 0.929 . S
H1898 C1902 0.929 . S
H1899 C1908 0.929 . S
C1900 H1894 0.930 . S
C1900 C1901 1.367 . S
C1900 C1908 1.378 . S
C1901 C1900 1.367 . S
C1901 C1909 1.433 . S
C1902 H1898 0.929 . S
C1902 C1904 1.378 . S
C1902 C1906 1.350 . S
C1903 C1906 1.463 . S
C1903 C1908 1.350 . S
C1903 N1911 1.427 . S
C1904 H1895 0.930 . S
C1904 C1902 1.378 . S
C1904 C1905 1.367 . S
C1905 C1904 1.367 . S
C1905 C1907 1.433 . S
C1906 C1902 1.350 . S
C1906 C1903 1.463 . S
C1906 N1910 1.427 . S
C1907 H1897 0.929 . S
C1907 C1905 1.433 . S
C1907 N1910 1.384 . S
C1908 H1899 0.929 . S
C1908 C1900 1.378 . S
C1908 C1903 1.350 . S
C1909 H1896 0.929 . S
C1909 C1901 1.433 . S
C1909 N1911 1.384 . S
N1910 C1906 1.427 . S
N1910 C1907 1.384 . S
N1911 C1903 1.427 . S
N1911 C1909 1.384 . S
H1912 C1918 0.930 . S
H1913 C1922 0.930 . S
H1914 C1927 0.929 . S
H1915 C1925 0.929 . S
H1916 C1920 0.929 . S
H1917 C1926 0.929 . S
C1918 H1912 0.930 . S
C1918 C1919 1.367 . S
C1918 C1926 1.378 . S
C1919 C1918 1.367 . S
C1919 C1927 1.433 . S
C1920 H1916 0.929 . S
C1920 C1922 1.378 . S
C1920 C1924 1.350 . S
C1921 C1924 1.463 . S
C1921 C1926 1.350 . S
C1921 N1929 1.427 . S
C1922 H1913 0.930 . S
C1922 C1920 1.378 . S
C1922 C1923 1.367 . S
C1923 C1922 1.367 . S
C1923 C1925 1.433 . S
C1924 C1920 1.350 . S
C1924 C1921 1.463 . S
C1924 N1928 1.427 . S
C1925 H1915 0.929 . S
C1925 C1923 1.433 . S
C1925 N1928 1.384 . S
C1926 H1917 0.929 . S
C1926 C1918 1.378 . S
C1926 C1921 1.350 . S
C1927 H1914 0.929 . S
C1927 C1919 1.433 . S
C1927 N1929 1.384 . S
N1928 C1924 1.427 . S
N1928 C1925 1.384 . S
N1929 C1921 1.427 . S
N1929 C1927 1.384 . S
H1930 C1936 0.930 . S
H1931 C1940 0.930 . S
H1932 C1945 0.929 . S
H1933 C1943 0.929 . S
H1934 C1938 0.929 . S
H1935 C1944 0.929 . S
C1936 H1930 0.930 . S
C1936 C1937 1.367 . S
C1936 C1944 1.378 . S
C1937 C1936 1.367 . S
C1937 C1945 1.433 . S
C1938 H1934 0.929 . S
C1938 C1940 1.378 . S
C1938 C1942 1.350 . S
C1939 C1942 1.463 . S
C1939 C1944 1.350 . S
C1939 N1947 1.427 . S
C1940 H1931 0.930 . S
C1940 C1938 1.378 . S
C1940 C1941 1.367 . S
C1941 C1940 1.367 . S
C1941 C1943 1.433 . S
C1942 C1938 1.350 . S
C1942 C1939 1.463 . S
C1942 N1946 1.427 . S
C1943 H1933 0.929 . S
C1943 C1941 1.433 . S
C1943 N1946 1.384 . S
C1944 H1935 0.929 . S
C1944 C1936 1.378 . S
C1944 C1939 1.350 . S
C1945 H1932 0.929 . S
C1945 C1937 1.433 . S
C1945 N1947 1.384 . S
N1946 C1942 1.427 . S
N1946 C1943 1.384 . S
N1947 C1939 1.427 . S
N1947 C1945 1.384 . S
H1948 C1954 0.930 . S
H1949 C1958 0.930 . S
H1950 C1963 0.929 . S
H1951 C1961 0.929 . S
H1952 C1956 0.929 . S
H1953 C1962 0.929 . S
C1954 H1948 0.930 . S
C1954 C1955 1.367 . S
C1954 C1962 1.378 . S
C1955 C1954 1.367 . S
C1955 C1963 1.433 . S
C1956 H1952 0.929 . S
C1956 C1958 1.378 . S
C1956 C1960 1.350 . S
C1957 C1960 1.463 . S
C1957 C1962 1.350 . S
C1957 N1965 1.427 . S
C1958 H1949 0.930 . S
C1958 C1956 1.378 . S
C1958 C1959 1.367 . S
C1959 C1958 1.367 . S
C1959 C1961 1.433 . S
C1960 C1956 1.350 . S
C1960 C1957 1.463 . S
C1960 N1964 1.427 . S
C1961 H1951 0.929 . S
C1961 C1959 1.433 . S
C1961 N1964 1.384 . S
C1962 H1953 0.929 . S
C1962 C1954 1.378 . S
C1962 C1957 1.350 . S
C1963 H1950 0.929 . S
C1963 C1955 1.433 . S
C1963 N1965 1.384 . S
N1964 C1960 1.427 . S
N1964 C1961 1.384 . S
N1965 C1957 1.427 . S
N1965 C1963 1.384 . S
H1966 C1972 0.930 . S
H1967 C1976 0.930 . S
H1968 C1981 0.929 . S
H1969 C1979 0.929 . S
H1970 C1974 0.929 . S
H1971 C1980 0.929 . S
C1972 H1966 0.930 . S
C1972 C1973 1.367 . S
C1972 C1980 1.378 . S
C1973 C1972 1.367 . S
C1973 C1981 1.433 . S
C1974 H1970 0.929 . S
C1974 C1976 1.378 . S
C1974 C1978 1.350 . S
C1975 C1978 1.463 . S
C1975 C1980 1.350 . S
C1975 N1983 1.427 . S
C1976 H1967 0.930 . S
C1976 C1974 1.378 . S
C1976 C1977 1.367 . S
C1977 C1976 1.367 . S
C1977 C1979 1.433 . S
C1978 C1974 1.350 . S
C1978 C1975 1.463 . S
C1978 N1982 1.427 . S
C1979 H1969 0.929 . S
C1979 C1977 1.433 . S
C1979 N1982 1.384 . S
C1980 H1971 0.929 . S
C1980 C1972 1.378 . S
C1980 C1975 1.350 . S
C1981 H1968 0.929 . S
C1981 C1973 1.433 . S
C1981 N1983 1.384 . S
N1982 C1978 1.427 . S
N1982 C1979 1.384 . S
N1983 C1975 1.427 . S
N1983 C1981 1.384 . S
C1415 C57 1.109 . S
C1419 C1113 1.106 . S
C1433 C117 1.106 . S
C1437 C489 1.106 . S
C1451 C205 1.101 . S
C1455 C1289 1.103 . S
C1469 C665 1.116 . S
C1473 C313 1.117 . S
C1487 C1252 1.115 . S
C1491 C196 1.112 . S
C1505 C645 1.102 . S
C1509 C321 1.103 . S
C1523 C1076 1.107 . S
C1527 C49 1.109 . S
C1541 C469 1.117 . S
C1545 C108 1.118 . S
C1559 C409 1.101 . S
C1563 C761 1.104 . S
C1577 C577 1.109 . S
C1581 C909 1.108 . S
C1595 C900 1.112 . S
C1599 C557 1.115 . S
C1613 C372 1.098 . S
C1617 C753 1.096 . S
C1631 C1201 1.097 . S
C1635 C841 1.098 . S
C1649 C1025 1.116 . S
C1653 C1377 1.116 . S
C1667 C1017 1.102 . S
C1671 C1340 1.101 . S
C1685 C849 1.115 . S
C1689 C1164 1.115 . S
C1703 C997 1.653 . S
C1707 C20 1.653 . S
C1721 C733 1.650 . S
C1725 C137 1.652 . S
C1739 C225 1.645 . S
C1743 C812 1.648 . S
C1757 C937 1.654 . S
C1761 C293 1.648 . S
C1775 C988 1.653 . S
C1779 C233 1.650 . S
C1793 C284 1.654 . S
C1797 C724 1.659 . S
C1811 C821 1.648 . S
C1815 C29 1.647 . S
C1829 C929 1.644 . S
C1833 C145 1.637 . S
C1847 C401 1.657 . S
C1851 C1349 1.655 . S
C1865 C1085 1.648 . S
C1869 C497 1.643 . S
C1883 C585 1.654 . S
C1887 C1173 1.656 . S
C1901 C673 1.648 . S
C1905 C1261 1.652 . S
C1919 C548 1.652 . S
C1923 C1369 1.655 . S
C1937 C1105 1.657 . S
C1941 C636 1.652 . S
C1955 C1193 1.655 . S
C1959 C381 1.656 . S
C1973 C1281 1.653 . S
C1977 C460 1.663 . S
