# Generated by pormake.
# Topology unn, (4)-cn, num edge types: 1
# Building blocks:
#     Node 0, Type 0, BuildingBlock: QUQFOY_clean_sbu_1, # of connection points: 4
#     Node 1, Type 0, BuildingBlock: QUQFOY_clean_sbu_1, # of connection points: 4
#     Node 2, Type 0, BuildingBlock: QUQFOY_clean_sbu_1, # of connection points: 4
#     Node 3, Type 0, BuildingBlock: QUQFOY_clean_sbu_1, # of connection points: 4
#     Node 4, Type 0, BuildingBlock: QUQFOY_clean_sbu_1, # of connection points: 4
#     Node 5, Type 0, BuildingBlock: QUQFOY_clean_sbu_1, # of connection points: 4
#     Node 6, Type 0, BuildingBlock: QUQFOY_clean_sbu_1, # of connection points: 4
#     Node 7, Type 0, BuildingBlock: QUQFOY_clean_sbu_1, # of connection points: 4
#     Node 8, Type 0, BuildingBlock: QUQFOY_clean_sbu_1, # of connection points: 4
#     Node 9, Type 0, BuildingBlock: QUQFOY_clean_sbu_1, # of connection points: 4
#     Node 10, Type 0, BuildingBlock: QUQFOY_clean_sbu_1, # of connection points: 4
#     Node 11, Type 0, BuildingBlock: QUQFOY_clean_sbu_1, # of connection points: 4
#     Node 12, Type 0, BuildingBlock: QUQFOY_clean_sbu_1, # of connection points: 4
#     Node 13, Type 0, BuildingBlock: QUQFOY_clean_sbu_1, # of connection points: 4
#     Node 14, Type 0, BuildingBlock: QUQFOY_clean_sbu_1, # of connection points: 4
#     Node 15, Type 0, BuildingBlock: QUQFOY_clean_sbu_1, # of connection points: 4
#     Node 16, Type 0, BuildingBlock: QUQFOY_clean_sbu_1, # of connection points: 4
#     Node 17, Type 0, BuildingBlock: QUQFOY_clean_sbu_1, # of connection points: 4
#     Edge 18, Type (0, 0), BuildingBlock: XIVTED_clean_linker_0, # of connection points: 2
#     Edge 19, Type (0, 0), BuildingBlock: XIVTED_clean_linker_0, # of connection points: 2
#     Edge 20, Type (0, 0), BuildingBlock: XIVTED_clean_linker_0, # of connection points: 2
#     Edge 21, Type (0, 0), BuildingBlock: XIVTED_clean_linker_0, # of connection points: 2
#     Edge 22, Type (0, 0), BuildingBlock: XIVTED_clean_linker_0, # of connection points: 2
#     Edge 23, Type (0, 0), BuildingBlock: XIVTED_clean_linker_0, # of connection points: 2
#     Edge 24, Type (0, 0), BuildingBlock: XIVTED_clean_linker_0, # of connection points: 2
#     Edge 25, Type (0, 0), BuildingBlock: XIVTED_clean_linker_0, # of connection points: 2
#     Edge 26, Type (0, 0), BuildingBlock: XIVTED_clean_linker_0, # of connection points: 2
#     Edge 27, Type (0, 0), BuildingBlock: XIVTED_clean_linker_0, # of connection points: 2
#     Edge 28, Type (0, 0), BuildingBlock: XIVTED_clean_linker_0, # of connection points: 2
#     Edge 29, Type (0, 0), BuildingBlock: XIVTED_clean_linker_0, # of connection points: 2
#     Edge 30, Type (0, 0), BuildingBlock: XIVTED_clean_linker_0, # of connection points: 2
#     Edge 31, Type (0, 0), BuildingBlock: XIVTED_clean_linker_0, # of connection points: 2
#     Edge 32, Type (0, 0), BuildingBlock: XIVTED_clean_linker_0, # of connection points: 2
#     Edge 33, Type (0, 0), BuildingBlock: XIVTED_clean_linker_0, # of connection points: 2
#     Edge 34, Type (0, 0), BuildingBlock: XIVTED_clean_linker_0, # of connection points: 2
#     Edge 35, Type (0, 0), BuildingBlock: XIVTED_clean_linker_0, # of connection points: 2
#     Edge 36, Type (0, 0), BuildingBlock: XIVTED_clean_linker_0, # of connection points: 2
#     Edge 37, Type (0, 0), BuildingBlock: XIVTED_clean_linker_0, # of connection points: 2
#     Edge 38, Type (0, 0), BuildingBlock: XIVTED_clean_linker_0, # of connection points: 2
#     Edge 39, Type (0, 0), BuildingBlock: XIVTED_clean_linker_0, # of connection points: 2
#     Edge 40, Type (0, 0), BuildingBlock: XIVTED_clean_linker_0, # of connection points: 2
#     Edge 41, Type (0, 0), BuildingBlock: XIVTED_clean_linker_0, # of connection points: 2
#     Edge 42, Type (0, 0), BuildingBlock: XIVTED_clean_linker_0, # of connection points: 2
#     Edge 43, Type (0, 0), BuildingBlock: XIVTED_clean_linker_0, # of connection points: 2
#     Edge 44, Type (0, 0), BuildingBlock: XIVTED_clean_linker_0, # of connection points: 2
#     Edge 45, Type (0, 0), BuildingBlock: XIVTED_clean_linker_0, # of connection points: 2
#     Edge 46, Type (0, 0), BuildingBlock: XIVTED_clean_linker_0, # of connection points: 2
#     Edge 47, Type (0, 0), BuildingBlock: XIVTED_clean_linker_0, # of connection points: 2
#     Edge 48, Type (0, 0), BuildingBlock: XIVTED_clean_linker_0, # of connection points: 2
#     Edge 49, Type (0, 0), BuildingBlock: XIVTED_clean_linker_0, # of connection points: 2
#     Edge 50, Type (0, 0), BuildingBlock: XIVTED_clean_linker_0, # of connection points: 2
#     Edge 51, Type (0, 0), BuildingBlock: XIVTED_clean_linker_0, # of connection points: 2
#     Edge 52, Type (0, 0), BuildingBlock: XIVTED_clean_linker_0, # of connection points: 2
#     Edge 53, Type (0, 0), BuildingBlock: XIVTED_clean_linker_0, # of connection points: 2
# Relax obj value: 0.137
# Max RMSD: 0.241
# Mean RMSD: 0.197
data_MOF--net-unn--node1-QUQFOY_clean_sbu_1--edge1-XIVTED_clean_linker_0
_symmetry_space_group_name_H-M    P1
_symmetry_Int_Tables_number       1
_symmetry_cell_setting            triclinic
loop_
_symmetry_equiv_pos_as_xyz
'x, y, z'
_cell_length_a     45.720038
_cell_length_b     47.107381
_cell_length_c     40.532697
_cell_angle_alpha  90.602332
_cell_angle_beta   87.723738
_cell_angle_gamma 121.87813
loop_
_atom_site_label
_atom_site_type_symbol
_atom_site_fract_x
_atom_site_fract_y
_atom_site_fract_z
_atom_type_partial_charge
O0 O 0.07162 0.7432 0.26641 0.0
Cd1 Cd 1.03 0.70083 0.2483 0.0
Cd2 Cd 1.00761 0.74081 0.24901 0.0
O3 O 0.04244 0.76474 0.28678 0.0
O4 O 0.04269 0.66772 0.25845 0.0
O5 O 0.9987 0.66794 0.28322 0.0
C6 C 1.01907 0.65663 0.28173 0.0
C7 C 0.94804 0.7167 0.25005 0.0
C8 C 0.06958 0.76342 0.28587 0.0
C9 C 1.02442 0.72383 0.18403 0.0
O10 O 1.02657 0.74787 0.20067 0.0
O11 O 1.02028 0.69828 0.19889 0.0
O12 O 0.96889 0.7488 0.24908 0.0
O13 O 0.96103 0.69841 0.25422 0.0
O14 O 0.45113 0.26783 0.2046 0.0
Cd15 Cd 0.43177 0.29829 0.21147 0.0
Cd16 Cd 0.39121 0.25287 0.25302 0.0
O17 O 0.40032 0.22391 0.21888 0.0
O18 O 0.43943 0.32659 0.17141 0.0
O19 O 0.38948 0.28067 0.18517 0.0
C20 C 0.4077 0.30522 0.16484 0.0
C21 C 0.34473 0.25961 0.26616 0.0
C22 C 0.43038 0.23628 0.20515 0.0
C23 C 0.44223 0.31197 0.28273 0.0
O24 O 0.42977 0.28072 0.28471 0.0
O25 O 0.44056 0.32459 0.25573 0.0
O26 O 0.34515 0.23439 0.27795 0.0
O27 O 0.36838 0.27829 0.24436 0.0
O28 O 0.82418 0.14158 0.2306 0.0
Cd29 Cd 0.79133 0.09061 0.23854 0.0
Cd30 Cd 0.83418 0.10429 0.2835 0.0
O31 O 0.86883 0.14433 0.25281 0.0
O32 O 0.7645 0.07071 0.19811 0.0
O33 O 0.80587 0.06296 0.21342 0.0
C34 C 0.78334 0.05815 0.19228 0.0
C35 C 0.83229 0.05688 0.3033 0.0
C36 C 0.85639 0.15765 0.23542 0.0
C37 C 0.76751 0.09094 0.30572 0.0
O38 O 0.79937 0.1116 0.30918 0.0
O39 O 0.75759 0.07354 0.27974 0.0
O40 O 0.85111 0.08561 0.31705 0.0
O41 O 0.81774 0.05593 0.27628 0.0
O42 O 0.07492 0.33229 0.75707 0.0
Cd43 Cd 1.03193 0.32898 0.73962 0.0
Cd44 Cd 1.00898 0.26603 0.74486 0.0
O45 O 0.04467 0.28366 0.78283 0.0
O46 O 1.03251 0.3691 0.75711 0.0
O47 O 0.99732 0.3173 0.77596 0.0
C48 C 1.01044 0.34898 0.7795 0.0
C49 C 0.94904 0.22896 0.74618 0.0
C50 C 0.0724 0.31235 0.77946 0.0
C51 C 1.02646 0.29563 0.67795 0.0
O52 O 1.02833 0.2753 0.69685 0.0
O53 O 1.02186 0.318 0.69034 0.0
O54 O 0.9696 0.21793 0.74732 0.0
O55 O 0.96246 0.26083 0.74762 0.0
O56 O 0.82849 0.64944 0.71026 0.0
Cd57 Cd 0.79445 0.66559 0.7151 0.0
Cd58 Cd 0.83952 0.70436 0.75555 0.0
O59 O 0.87312 0.69763 0.72484 0.0
O60 O 0.76842 0.65398 0.67339 0.0
O61 O 0.80778 0.70572 0.68697 0.0
C62 C 0.78665 0.68543 0.66572 0.0
C63 C 0.83438 0.75001 0.76889 0.0
C64 C 0.86095 0.66885 0.71198 0.0
C65 C 0.77654 0.65139 0.78536 0.0
O66 O 0.80893 0.66522 0.78695 0.0
O67 O 0.76382 0.65335 0.7587 0.0
O68 O 0.85799 0.74678 0.78167 0.0
O69 O 0.81658 0.72948 0.74604 0.0
O70 O 0.35239 0.04163 0.74658 0.0
Cd71 Cd 0.3948 0.08587 0.73078 0.0
Cd72 Cd 0.3517 0.1037 0.73664 0.0
O73 O 0.32916 0.06623 0.77328 0.0
O74 O 0.43311 0.08051 0.74375 0.0
O75 O 0.4201 0.11487 0.76857 0.0
C76 C 0.43665 0.09954 0.76845 0.0
C77 C 0.37696 0.16151 0.73903 0.0
C78 C 0.33127 0.04055 0.76857 0.0
C79 C 0.36901 0.09299 0.66948 0.0
O80 O 0.3439 0.08792 0.68854 0.0
O81 O 0.397 0.09914 0.68173 0.0
O82 O 0.34378 0.14159 0.74048 0.0
O83 O 0.39556 0.14834 0.73986 0.0
O84 O 0.72641 0.07702 0.61239 0.0
Cd85 Cd 0.68093 0.03608 0.59868 0.0
Cd86 Cd 0.6638 0.07852 0.59846 0.0
O87 O 0.69957 0.09962 0.63605 0.0
O88 O 0.68161 0.99749 0.61693 0.0
O89 O 0.6491 1.01594 0.63798 0.0
C90 C 0.66201 0.99745 0.64086 0.0
C91 C 0.60486 0.05718 0.59661 0.0
C92 C 0.72619 0.09738 0.63305 0.0
C93 C 0.67774 0.05881 0.53433 0.0
O94 O 0.68353 0.08418 0.55094 0.0
O95 O 0.66952 0.03185 0.54935 0.0
O96 O 0.62685 0.08911 0.5968 0.0
O97 O 0.61612 0.03764 0.6019 0.0
O98 O 0.03665 0.6217 0.58409 0.0
Cd99 Cd 0.07947 0.62196 0.56803 0.0
Cd100 Cd 0.0358 0.55946 0.56524 0.0
O101 O 1.01099 0.57032 0.60403 0.0
O102 O 0.11814 0.66064 0.59111 0.0
O103 O 0.09619 0.60746 0.60484 0.0
C104 C 0.11528 0.63869 0.6121 0.0
C105 C 0.06011 0.52633 0.55966 0.0
C106 C 1.01376 0.5988 0.60306 0.0
C107 C 0.05598 0.59763 0.50296 0.0
O108 O 1.0308 0.57449 0.51989 0.0
O109 O 0.08387 0.61817 0.517 0.0
O110 O 1.02704 0.51296 0.55958 0.0
O111 O 0.07879 0.55768 0.56647 0.0
O112 O 0.44202 0.36921 0.59606 0.0
Cd113 Cd 0.44059 0.40638 0.57201 0.0
Cd114 Cd 0.50668 0.43283 0.57232 0.0
O115 O 0.4947 0.40104 0.61343 0.0
O116 O 0.39491 0.39838 0.58786 0.0
O117 O 0.44498 0.44186 0.60234 0.0
C118 C 0.41191 0.42377 0.60681 0.0
C119 C 0.5393 0.49146 0.56895 0.0
C120 C 0.46535 0.3738 0.61529 0.0
C121 C 0.4727 0.40674 0.5085 0.0
O122 O 0.49684 0.41086 0.52645 0.0
O123 O 0.44816 0.40919 0.5211 0.0
O124 O 0.55413 0.47451 0.56983 0.0
O125 O 0.50615 0.47522 0.57273 0.0
O126 O 0.73791 0.65735 0.10666 0.0
Cd127 Cd 0.69864 0.65719 0.08337 0.0
Cd128 Cd 0.67503 0.59401 0.0851 0.0
O129 O 0.70735 0.60535 0.12484 0.0
O130 O 0.70611 0.7016 0.09531 0.0
O131 O 0.66187 0.65354 0.11464 0.0
C132 C 0.67988 0.68579 0.11572 0.0
C133 C 0.61516 0.56101 0.08252 0.0
C134 C 0.73444 0.63448 0.1258 0.0
C135 C 0.69848 0.6269 0.01997 0.0
O136 O 0.69752 0.60462 0.03824 0.0
O137 O 0.69444 0.64941 0.0329 0.0
O138 O 0.63351 0.54756 0.08379 0.0
O139 O 0.63054 0.59294 0.08648 0.0
O140 O 0.49451 0.9894 0.03443 0.0
Cd141 Cd 0.46305 1.00811 0.04092 0.0
Cd142 Cd 0.51117 0.04685 0.07897 0.0
O143 O 0.54139 0.03734 0.04553 0.0
O144 O 0.43539 0.9972 0.00036 0.0
O145 O 0.47747 0.04834 0.01257 0.0
C146 C 0.45487 0.02844 0.99213 0.0
C147 C 0.50735 0.09346 0.09224 0.0
C148 C 0.52719 1.00791 0.03366 0.0
C149 C 0.4487 0.9957 0.11177 0.0
O150 O 0.48113 1.00881 0.11185 0.0
O151 O 0.43491 0.99755 0.0858 0.0
O152 O 0.53186 0.09069 0.10349 0.0
O153 O 0.48786 0.07193 0.07085 0.0
O154 O 1.02952 0.37617 0.09584 0.0
Cd155 Cd 0.07146 0.41839 0.07624 0.0
Cd156 Cd 1.02775 0.43767 0.07518 0.0
O157 O 1.00241 0.40113 0.11311 0.0
O158 O 0.11167 0.4191 0.09475 0.0
O159 O 0.09396 0.45302 0.1105 0.0
C160 C 0.11293 0.4408 0.11542 0.0
C161 C 0.05079 0.4953 0.0725 0.0
C162 C 1.00606 0.37603 0.11381 0.0
C163 C 0.04755 0.42044 0.0113 0.0
O164 O 1.02339 0.42032 0.02799 0.0
O165 O 0.07364 0.42406 0.02554 0.0
O166 O 1.01783 0.47435 0.07216 0.0
O167 O 0.06999 0.48361 0.07857 0.0
O168 O 0.40784 0.42916 0.92572 0.0
Cd169 Cd 0.36349 0.3886 0.90947 0.0
Cd170 Cd 0.34514 0.43076 0.91033 0.0
O171 O 0.37893 0.44948 0.94972 0.0
O172 O 0.36302 0.34896 0.92725 0.0
O173 O 0.33008 0.36713 0.94751 0.0
C174 C 0.34239 0.34817 0.95052 0.0
C175 C 0.28537 0.40584 0.90853 0.0
C176 C 0.4059 0.44778 0.94747 0.0
C177 C 0.36119 0.41462 0.84567 0.0
O178 O 0.36659 0.4394 0.86312 0.0
O179 O 0.35291 0.38718 0.85983 0.0
O180 O 0.30556 0.438 0.90988 0.0
O181 O 0.2989 0.38799 0.91182 0.0
O182 O 0.77878 0.91995 0.89168 0.0
Cd183 Cd 0.76155 0.95139 0.89914 0.0
Cd184 Cd 0.70945 0.90284 0.92953 0.0
O185 O 0.72433 0.87833 0.89405 0.0
O186 O 0.77017 0.98324 0.8615 0.0
O187 O 0.72188 0.93411 0.86937 0.0
C188 C 0.73981 0.96097 0.85192 0.0
C189 C 0.66671 0.91653 0.93601 0.0
C190 C 0.75612 0.8896 0.88607 0.0
C191 C 0.75602 0.95057 0.97299 0.0
O192 O 0.73817 0.91903 0.97009 0.0
O193 O 0.76436 0.96932 0.94742 0.0
O194 O 0.65948 0.88664 0.94294 0.0
O195 O 0.69658 0.93702 0.92257 0.0
O196 O 0.1582 0.80182 0.87843 0.0
Cd197 Cd 0.12647 0.75087 0.8852 0.0
Cd198 Cd 0.16827 0.76446 0.93049 0.0
O199 O 0.20292 0.80277 0.89815 0.0
O200 O 0.10271 0.72947 0.84337 0.0
O201 O 0.1462 0.72665 0.86164 0.0
C202 C 0.12461 0.72022 0.83892 0.0
C203 C 0.16087 0.71478 0.95079 0.0
C204 C 0.19054 0.81706 0.88221 0.0
C205 C 0.103 0.7531 0.95205 0.0
O206 O 0.13485 0.77435 0.95485 0.0
O207 O 0.093 0.73417 0.927 0.0
O208 O 0.18358 0.7432 0.9631 0.0
O209 O 0.14592 0.71526 0.92462 0.0
O210 O 0.40771 0.9984 0.43318 0.0
Cd211 Cd 0.36866 0.99751 0.40873 0.0
Cd212 Cd 0.34442 0.93446 0.41249 0.0
O213 O 0.37577 0.94731 0.45333 0.0
O214 O 0.37616 0.04214 0.4191 0.0
O215 O 0.33164 0.99447 0.43898 0.0
C216 C 0.34981 0.02676 0.43944 0.0
C217 C 0.28455 0.89984 0.41024 0.0
C218 C 0.40319 0.97623 0.45388 0.0
C219 C 0.36885 0.9659 0.34664 0.0
O220 O 0.36752 0.94392 0.36569 0.0
O221 O 0.36479 0.9887 0.35863 0.0
O222 O 0.3038 0.88745 0.41248 0.0
O223 O 0.29908 0.93186 0.41264 0.0
O224 O 0.16651 0.32083 0.37294 0.0
Cd225 Cd 0.13673 0.34148 0.37942 0.0
Cd226 Cd 0.17893 0.37196 0.42465 0.0
O227 O 0.21205 0.36627 0.39137 0.0
O228 O 0.11282 0.33939 0.33826 0.0
O229 O 0.15904 0.38557 0.35558 0.0
C230 C 0.13617 0.37063 0.33367 0.0
C231 C 0.17113 0.4152 0.44257 0.0
C232 C 0.199 0.33865 0.37583 0.0
C233 C 0.11323 0.32035 0.44768 0.0
O234 O 0.14453 0.32945 0.45047 0.0
O235 O 0.10431 0.32833 0.42171 0.0
O236 O 0.19412 0.41116 0.45565 0.0
O237 O 0.15638 0.39777 0.41693 0.0
O238 O 0.68126 0.70697 0.42383 0.0
Cd239 Cd 0.72535 0.74847 0.40636 0.0
Cd240 Cd 0.68684 0.77185 0.41177 0.0
O241 O 0.66624 0.73755 0.45209 0.0
O242 O 0.76087 0.73862 0.41839 0.0
O243 O 0.7537 0.7768 0.44331 0.0
C244 C 0.76719 0.75861 0.44289 0.0
C245 C 0.72135 0.83036 0.40889 0.0
C246 C 0.66457 0.70982 0.44799 0.0
C247 C 0.699 0.75548 0.34542 0.0
O248 O 0.6749 0.75243 0.36484 0.0
O249 O 0.72689 0.7608 0.35722 0.0
O250 O 0.68833 0.8155 0.41414 0.0
O251 O 0.73485 0.81223 0.40892 0.0
H252 H 1.01372 0.67466 0.14045 0.0
H253 H 0.10367 0.80055 0.99074 0.0
H254 H 0.04167 0.77764 0.14447 0.0
H255 H 0.05106 0.69379 0.97879 0.0
H256 H 0.07596 0.79191 0.0455 0.0
H257 H 1.0229 0.67996 0.08046 0.0
C258 C 1.02159 0.69833 0.12871 0.0
C259 C 1.02749 0.72592 0.14757 0.0
C260 C 0.06978 0.77029 0.03072 0.0
C261 C 0.03796 0.7321 0.07894 0.0
C262 C 0.0855 0.77525 -0.00058 0.0
C263 C 0.07963 0.74782 0.98046 0.0
C264 C 0.04879 0.73766 0.04347 0.0
C265 C 0.05604 0.71555 0.99271 0.0
C266 C 1.02658 0.70125 0.09443 0.0
C267 C 0.03719 0.75582 0.13098 0.0
N268 N 0.04199 0.71131 0.02386 0.0
N269 N 0.04256 0.75823 0.09768 0.0
H270 H 0.3264 0.36441 0.01019 0.0
H271 H 0.3625 0.2544 0.12623 0.0
H272 H 0.35481 0.29856 0.96478 0.0
H273 H 0.41916 0.36179 0.13425 0.0
H274 H 0.3393 0.25918 0.07415 0.0
H275 H 0.33827 0.3509 0.06418 0.0
C276 C 0.33394 0.34619 0.01161 0.0
C277 C 0.3398 0.33268 0.98287 0.0
C278 C 0.3566 0.28154 0.08759 0.0
C279 C 0.35313 0.3172 0.04454 0.0
C280 C 0.36973 0.27892 0.11716 0.0
C281 C 0.39281 0.30782 0.13431 0.0
C282 C 0.36572 0.31316 0.07593 0.0
C283 C 0.4016 0.339 0.12157 0.0
C284 C 0.34104 0.33887 0.04239 0.0
C285 C 0.35005 0.30956 0.98631 0.0
N286 N 0.38774 0.34086 0.09322 0.0
N287 N 0.35657 0.30259 0.0167 0.0
H288 H 0.83463 0.05735 0.15642 0.0
H289 H 0.7153 0.92289 0.02827 0.0
H290 H 0.72556 1.01912 0.15774 0.0
H291 H 0.81003 1.01093 0.99335 0.0
H292 H 0.72272 0.94815 0.08278 0.0
H293 H 0.82979 0.03066 0.10268 0.0
C294 C 0.80964 0.04298 0.14558 0.0
C295 C 0.78039 0.0403 0.16137 0.0
C296 C 0.74197 0.96172 0.0632 0.0
C297 C 0.77476 1.0096 0.10078 0.0
C298 C 0.73796 0.94733 0.03223 0.0
C299 C 0.76218 0.96491 0.00635 0.0
C300 C 0.77085 0.99348 0.06857 0.0
C301 C 0.7908 0.99667 0.0127 0.0
C302 C 0.80701 0.02807 0.11497 0.0
C303 C 0.74868 1.02177 0.14623 0.0
N304 N 0.79454 1.00995 0.04338 0.0
N305 N 0.7466 1.00679 0.11685 0.0
H306 H 0.69602 0.11326 0.49582 0.0
H307 H 0.71228 0.0312 0.32809 0.0
H308 H 0.66906 1.01062 0.48985 0.0
H309 H 0.76967 0.13688 0.34782 0.0
H310 H 0.68177 1.02111 0.38216 0.0
H311 H 0.70849 0.1195 0.43649 0.0
C312 C 0.69246 0.09191 0.48202 0.0
C313 C 0.68212 0.06153 0.49796 0.0
C314 C 0.70053 0.04652 0.37426 0.0
C315 C 0.69625 0.06859 0.42988 0.0
C316 C 0.71765 0.05229 0.34339 0.0
C317 C 0.74356 0.08488 0.33382 0.0
C318 C 0.7092 0.07363 0.39514 0.0
C319 C 0.75 0.11137 0.35455 0.0
C320 C 0.69954 0.09552 0.44811 0.0
C321 C 0.67746 0.03463 0.47862 0.0
N322 N 0.73309 0.10515 0.38434 0.0
N323 N 0.68491 0.03888 0.44554 0.0
H324 H 0.10488 0.63658 0.45449 0.0
H325 H 0.96975 0.62239 0.33082 0.0
H326 H 0.99555 0.56714 0.47131 0.0
H327 H 0.0719 0.64878 0.29695 0.0
H328 H 0.97846 0.60288 0.38315 0.0
H329 H 0.09411 0.64389 0.39719 0.0
C330 C 0.07874 0.62276 0.44613 0.0
C331 C 0.05111 0.60137 0.46776 0.0
C332 C 0.99869 0.61236 0.36397 0.0
C333 C 0.03863 0.60978 0.4027 0.0
C334 C 0.99365 0.62333 0.33409 0.0
C335 C 1.02015 0.6373 0.30956 0.0
C336 C 1.03072 0.61619 0.36959 0.0
C337 C 0.05073 0.63812 0.31517 0.0
C338 C 0.07262 0.62677 0.41345 0.0
C339 C 1.0177 0.58394 0.45556 0.0
N340 N 0.05548 0.62838 0.34488 0.0
N341 N 1.01236 0.58886 0.42402 0.0
H342 H 0.5104 0.38336 0.47885 0.0
H343 H 0.43831 0.36645 0.29893 0.0
H344 H 0.4349 0.40873 0.45836 0.0
H345 H 0.47065 0.30214 0.33586 0.0
H346 H 0.44914 0.39367 0.35297 0.0
H347 H 0.50788 0.36488 0.42196 0.0
C348 C 0.4935 0.38534 0.46233 0.0
C349 C 0.4726 0.39739 0.47349 0.0
C350 C 0.45423 0.37388 0.34899 0.0
C351 C 0.46995 0.37653 0.40821 0.0
C352 C 0.4484 0.35858 0.31817 0.0
C353 C 0.45361 0.33202 0.31302 0.0
C354 C 0.46598 0.36292 0.37449 0.0
C355 C 0.46621 0.32245 0.33888 0.0
C356 C 0.49204 0.37469 0.4299 0.0
C357 C 0.4512 0.39933 0.45088 0.0
N358 N 0.472 0.33791 0.3685 0.0
N359 N 0.45043 0.38901 0.41924 0.0
H360 H 0.03373 0.41393 0.79734 0.0
H361 H 0.06641 0.38389 0.9739 0.0
H362 H 0.98117 0.31291 0.83609 0.0
H363 H 1.01918 0.4423 0.96826 0.0
H364 H 0.05256 0.3678 0.91606 0.0
H365 H 0.04237 0.43462 0.85439 0.0
C366 C 1.02319 0.39612 0.8177 0.0
C367 C 1.00694 0.36165 0.81194 0.0
C368 C 0.04566 0.38445 0.92758 0.0
C369 C 1.01804 0.38514 0.87637 0.0
C370 C 0.05376 0.3938 0.96027 0.0
C371 C 0.04375 0.41427 0.97566 0.0
C372 C 1.02839 0.39643 0.91012 0.0
C373 C 1.02708 0.42627 0.95711 0.0
C374 C 1.02837 0.40796 0.85006 0.0
C375 C 0.99398 0.33967 0.83927 0.0
N376 N 1.02 0.4173 0.92506 0.0
N377 N 1.00064 0.35183 0.87032 0.0
H378 H 0.6922 0.66362 0.97158 0.0
H379 H 0.78253 0.61453 0.83229 0.0
H380 H 0.71748 0.58842 0.98596 0.0
H381 H 0.72465 0.6596 0.80899 0.0
H382 H 0.7576 0.60358 0.88853 0.0
H383 H 0.70354 0.6628 0.91205 0.0
C384 C 0.70005 0.64691 0.96225 0.0
C385 C 0.70425 0.62632 0.98385 0.0
C386 C 0.74974 0.61525 0.87102 0.0
C387 C 0.71716 0.62524 0.91592 0.0
C388 C 0.76386 0.62136 0.83892 0.0
C389 C 0.75546 0.63783 0.81612 0.0
C390 C 0.72781 0.62656 0.88067 0.0
C391 C 0.73143 0.6465 0.82587 0.0
C392 C 0.70624 0.64627 0.92827 0.0
C393 C 0.71412 0.6049 0.97033 0.0
N394 N 0.71889 0.64135 0.85772 0.0
N395 N 0.72058 0.60518 0.93732 0.0
H396 H 0.42823 0.992 0.93647 0.0
H397 H 0.45209 0.1384 0.82371 0.0
H398 H 0.4797 0.09302 0.97256 0.0
H399 H 0.45281 0.05337 0.78401 0.0
H400 H 0.45977 0.12301 0.87889 0.0
H401 H 0.43135 1.01338 0.88085 0.0
C402 C 0.43983 1.01863 0.93276 0.0
C403 C 0.4536 0.04076 0.95916 0.0
C404 C 0.45895 0.10819 0.85793 0.0
C405 C 0.45745 0.06538 0.89562 0.0
C406 C 0.45484 0.11708 0.82641 0.0
C407 C 0.45159 0.09704 0.79919 0.0
C408 C 0.45902 0.07869 0.86223 0.0
C409 C 0.45514 0.06957 0.80421 0.0
C410 C 0.44199 0.03085 0.90097 0.0
C411 C 0.46874 0.07511 0.95285 0.0
N412 N 0.4579 0.06078 0.83521 0.0
N413 N 0.47003 0.08639 0.92173 0.0
H414 H 0.41936 0.11593 0.62016 0.0
H415 H 0.29535 1.00383 0.48427 0.0
H416 H 0.30894 0.06357 0.63677 0.0
H417 H 0.39597 0.08998 0.45962 0.0
H418 H 0.29794 0.02658 0.53932 0.0
H419 H 0.41105 0.10735 0.56076 0.0
C420 C 0.39341 0.10283 0.61129 0.0
C421 C 0.3648 0.09015 0.63342 0.0
C422 C 0.31906 0.04091 0.52156 0.0
C423 C 0.35511 0.08013 0.56568 0.0
C424 C 0.31751 0.02801 0.49007 0.0
C425 C 0.34571 0.04476 0.46751 0.0
C426 C 0.34931 0.07031 0.53064 0.0
C427 C 0.37375 0.07605 0.47632 0.0
C428 C 0.38868 0.09819 0.5774 0.0
C429 C 0.33173 0.07364 0.62057 0.0
N430 N 0.37526 0.0874 0.50753 0.0
N431 N 0.32775 0.06861 0.58758 0.0
H432 H 1.02216 0.33307 0.62888 0.0
H433 H 0.11139 0.2784 0.49417 0.0
H434 H 0.04105 0.25366 0.64465 0.0
H435 H 0.06373 0.333 0.46865 0.0
H436 H 0.08245 0.26636 0.54866 0.0
H437 H 0.03452 0.33189 0.56966 0.0
C438 C 1.02863 0.31524 0.6199 0.0
C439 C 1.03107 0.29378 0.64183 0.0
C440 C 0.07769 0.2804 0.53099 0.0
C441 C 0.0452 0.29232 0.5743 0.0
C442 C 0.09414 0.28717 0.49988 0.0
C443 C 0.08989 0.3067 0.47706 0.0
C444 C 0.05758 0.29403 0.53963 0.0
C445 C 0.06741 0.31763 0.48558 0.0
C446 C 0.03548 0.31445 0.58609 0.0
C447 C 0.03923 0.27096 0.62877 0.0
N448 N 0.05258 0.31172 0.51653 0.0
N449 N 0.04639 0.27112 0.59596 0.0
H450 H 0.78687 0.79797 0.49797 0.0
H451 H 0.75994 0.64888 0.61001 0.0
H452 H 0.7783 0.70877 0.45777 0.0
H453 H 0.81155 0.74999 0.64587 0.0
H454 H 0.7623 0.67005 0.55451 0.0
H455 H 0.79471 0.78172 0.55261 0.0
C456 C 0.78758 0.77546 0.50043 0.0
C457 C 0.78178 0.75465 0.47322 0.0
C458 C 0.77318 0.68761 0.57452 0.0
C459 C 0.78947 0.73539 0.53578 0.0
C460 C 0.7715 0.6755 0.60627 0.0
C461 C 0.78545 0.69769 0.63263 0.0
C462 C 0.78846 0.72211 0.56911 0.0
C463 C 0.80044 0.73201 0.62624 0.0
C464 C 0.79179 0.76609 0.53167 0.0
C465 C 0.78271 0.72564 0.47796 0.0
N466 N 0.80135 0.74318 0.59515 0.0
N467 N 0.78575 0.71655 0.50873 0.0
H468 H 0.39277 0.47214 0.80854 0.0
H469 H 0.35005 0.37723 0.63617 0.0
H470 H 0.33617 0.36471 0.79981 0.0
H471 H 0.4376 0.47712 0.6485 0.0
H472 H 0.33279 0.37633 0.6942 0.0
H473 H 0.39859 0.47731 0.74827 0.0
C474 C 0.3814 0.44962 0.79396 0.0
C475 C 0.36427 0.41791 0.80924 0.0
C476 C 0.35537 0.39868 0.68397 0.0
C477 C 0.37035 0.42376 0.74033 0.0
C478 C 0.36502 0.39943 0.65073 0.0
C479 C 0.39557 0.42718 0.63755 0.0
C480 C 0.37616 0.42603 0.704 0.0
C481 C 0.41403 0.45511 0.65773 0.0
C482 C 0.38471 0.45264 0.7596 0.0
C483 C 0.34994 0.38963 0.78908 0.0
N484 N 0.40426 0.45369 0.69009 0.0
N485 N 0.35332 0.39322 0.75565 0.0
H486 H 0.67056 0.94548 0.6547 0.0
H487 H 0.751 1.01885 0.82393 0.0
H488 H 0.65654 1.02067 0.70085 0.0
H489 H 0.69623 0.91199 0.81117 0.0
H490 H 0.72487 0.02359 0.77393 0.0
H491 H 0.6863 0.93436 0.70822 0.0
C492 C 0.66986 0.95895 0.67625 0.0
C493 C 0.66203 0.98384 0.67344 0.0
C494 C 0.71859 0.99915 0.7823 0.0
C495 C 0.68157 0.97251 0.73383 0.0
C496 C 0.73367 0.9965 0.8105 0.0
C497 C 0.72567 0.96503 0.82154 0.0
C498 C 0.69629 0.97024 0.76468 0.0
C499 C 0.70288 0.93671 0.80346 0.0
C500 C 0.67906 0.95279 0.70661 0.0
C501 C 0.66202 1.00098 0.70201 0.0
N502 N 0.68929 0.94 0.77562 0.0
N503 N 0.67249 0.99557 0.7309 0.0
H504 H 0.18265 0.73179 0.80514 0.0
H505 H 0.09036 0.59857 0.66677 0.0
H506 H 0.07184 0.67548 0.80107 0.0
H507 H 0.16261 0.70079 0.63608 0.0
H508 H 0.09548 0.61676 0.72409 0.0
H509 H 0.18631 0.7108 0.75013 0.0
C510 C 0.15912 0.71454 0.79291 0.0
C511 C 0.12685 0.70523 0.80752 0.0
C512 C 0.11081 0.63495 0.70478 0.0
C513 C 0.13097 0.68083 0.74557 0.0
C514 C 0.10825 0.62467 0.67209 0.0
C515 C 0.12602 0.64826 0.64648 0.0
C516 C 0.13201 0.66887 0.71206 0.0
C517 C 0.14845 0.68181 0.65503 0.0
C518 C 0.1613 0.70284 0.76162 0.0
C519 C 0.09715 0.68323 0.79056 0.0
N520 N 0.15074 0.69121 0.68721 0.0
N521 N 0.09989 0.67149 0.76053 0.0
H522 H 0.7486 0.77863 0.29571 0.0
H523 H 0.62588 0.66135 0.16135 0.0
H524 H 0.63827 0.72338 0.31343 0.0
H525 H 0.72474 0.74945 0.13581 0.0
H526 H 0.62788 0.68429 0.21625 0.0
H527 H 0.73992 0.76843 0.23659 0.0
C528 C 0.72255 0.76452 0.28711 0.0
C529 C 0.69412 0.75156 0.30948 0.0
C530 C 0.64871 0.69895 0.19832 0.0
C531 C 0.68398 0.73959 0.24198 0.0
C532 C 0.64752 0.68594 0.16693 0.0
C533 C 0.67542 0.70328 0.14412 0.0
C534 C 0.67831 0.7291 0.20707 0.0
C535 C 0.70277 0.73507 0.15268 0.0
C536 C 0.7176 0.75894 0.25336 0.0
C537 C 0.6609 0.73373 0.29699 0.0
N538 N 0.70394 0.74659 0.18376 0.0
N539 N 0.65672 0.72775 0.26409 0.0
H540 H 0.39268 0.99794 0.13428 0.0
H541 H 0.39229 0.92997 0.31445 0.0
H542 H 0.46032 0.96474 0.16107 0.0
H543 H 0.35983 0.99935 0.29699 0.0
H544 H 0.40515 0.93047 0.25526 0.0
H545 H 0.36768 0.98575 0.191 0.0
C546 C 0.4016 0.98728 0.15186 0.0
C547 C 0.42866 0.98246 0.14318 0.0
C548 C 0.395 0.94541 0.26441 0.0
C549 C 0.40048 0.96867 0.20765 0.0
C550 C 0.38766 0.94515 0.29816 0.0
C551 C 0.37538 0.96498 0.31073 0.0
C552 C 0.38963 0.96529 0.24298 0.0
C553 C 0.3697 0.98403 0.2884 0.0
C554 C 0.38761 0.98066 0.18421 0.0
C555 C 0.43964 0.969 0.16692 0.0
N556 N 0.37694 0.98377 0.25557 0.0
N557 N 0.4256 0.96269 0.19811 0.0
H558 H 0.19359 0.41568 0.29761 0.0
H559 H 0.09762 0.46224 0.17229 0.0
H560 H 0.08273 0.36559 0.30087 0.0
H561 H 0.16118 0.42626 0.13288 0.0
H562 H 0.10786 0.45117 0.2281 0.0
H563 H 0.19572 0.44208 0.24462 0.0
C564 C 0.1698 0.41071 0.2874 0.0
C565 C 0.13788 0.38842 0.30335 0.0
C566 C 0.12033 0.44671 0.20716 0.0
C567 C 0.14036 0.41909 0.24402 0.0
C568 C 0.11484 0.45327 0.17531 0.0
C569 C 0.12828 0.44478 0.14783 0.0
C570 C 0.14016 0.43252 0.21153 0.0
C571 C 0.15016 0.43294 0.15338 0.0
C572 C 0.1711 0.42565 0.25733 0.0
C573 C 0.10776 0.3825 0.28914 0.0
N574 N 0.15521 0.42682 0.18474 0.0
N575 N 0.10973 0.39797 0.2603 0.0
H576 H 0.23862 0.91883 0.39671 0.0
H577 H 0.11614 0.74849 0.30477 0.0
H578 H 0.24784 0.83236 0.40009 0.0
H579 H 0.08816 0.82218 0.31929 0.0
H580 H 0.16422 0.77983 0.34037 0.0
H581 H 0.18305 0.88484 0.37048 0.0
C582 C 0.2287 0.89258 0.39257 0.0
C583 C 0.24817 0.87853 0.40045 0.0
C584 C 0.14762 0.78925 0.33603 0.0
C585 C 0.18487 0.83971 0.36992 0.0
C586 C 0.12015 0.77142 0.31541 0.0
C587 C 0.09817 0.78287 0.30863 0.0
C588 C 0.15386 0.81927 0.34991 0.0
C589 C 0.10452 0.81251 0.32372 0.0
C590 C 0.19701 0.87324 0.37746 0.0
C591 C 0.23398 0.84441 0.39436 0.0
N592 N 0.13208 0.82995 0.34339 0.0
N593 N 0.20353 0.82638 0.37916 0.0
H594 H 0.35069 0.31999 0.25902 0.0
H595 H 0.17973 0.2743 0.36273 0.0
H596 H 0.28577 0.22337 0.30603 0.0
H597 H 0.26746 0.37529 0.35461 0.0
H598 H 0.21417 0.25421 0.33574 0.0
H599 H 0.316 0.33938 0.28663 0.0
C600 C 0.32881 0.30261 0.27477 0.0
C601 C 0.32106 0.26983 0.28003 0.0
C602 C 0.22593 0.28074 0.33998 0.0
C603 C 0.28124 0.29217 0.31188 0.0
C604 C 0.2063 0.29229 0.35531 0.0
C605 C 0.22072 0.3266 0.36096 0.0
C606 C 0.26013 0.30365 0.32947 0.0
C607 C 0.25534 0.34866 0.3509 0.0
C608 C 0.30925 0.3139 0.29079 0.0
C609 C 0.29263 0.24875 0.30112 0.0
N610 N 0.27375 0.33685 0.33533 0.0
N611 N 0.27363 0.26021 0.31614 0.0
H612 H 0.81952 0.99809 0.27583 0.0
H613 H 0.71157 0.8819 0.42488 0.0
H614 H 0.82218 0.04345 0.36948 0.0
H615 H 0.77815 0.85956 0.36726 0.0
H616 H 0.74356 0.93901 0.40122 0.0
H617 H 0.79636 0.94409 0.30454 0.0
C618 C 0.81574 0.99677 0.30246 0.0
C619 C 0.82325 0.02536 0.32036 0.0
C620 C 0.75131 0.92161 0.39416 0.0
C621 C 0.79538 0.96358 0.35302 0.0
C622 C 0.73313 0.88912 0.40762 0.0
C623 C 0.74242 0.86605 0.3983 0.0
C624 C 0.77807 0.93063 0.37033 0.0
C625 C 0.77039 0.87665 0.37549 0.0
C626 C 0.80248 0.96602 0.31877 0.0
C627 C 0.81731 1.02214 0.35482 0.0
N628 N 0.78679 0.90791 0.36184 0.0
N629 N 0.80311 0.99169 0.36997 0.0
H630 H 0.8362 0.19691 0.20738 0.0
H631 H 1.02436 0.33488 0.13927 0.0
H632 H 0.92737 0.19634 0.22984 0.0
H633 H 0.93917 0.34998 0.13879 0.0
H634 H 0.9888 0.28382 0.17167 0.0
H635 H 0.87262 0.25201 0.18142 0.0
C636 C 0.86391 0.20836 0.20693 0.0
C637 C 0.87869 0.19173 0.22071 0.0
C638 C 0.97782 0.2983 0.16476 0.0
C639 C 0.92061 0.25507 0.19078 0.0
C640 C 0.99809 0.32749 0.1461 0.0
C641 C 0.98464 0.34667 0.13601 0.0
C642 C 0.94345 0.28763 0.17317 0.0
C643 C 0.95057 0.33598 0.14601 0.0
C644 C 0.88468 0.23996 0.1922 0.0
C645 C 0.91478 0.20808 0.21953 0.0
N646 N 0.93097 0.30691 0.16372 0.0
N647 N 0.93444 0.23866 0.20459 0.0
H648 H 0.75011 0.59293 0.15855 0.0
H649 H 0.91299 0.74839 0.24243 0.0
H650 H 0.78127 0.69632 0.14759 0.0
H651 H 0.89998 0.65087 0.23658 0.0
H652 H 0.85755 0.72605 0.21726 0.0
H653 H 0.79847 0.61044 0.19529 0.0
C654 C 0.76687 0.61918 0.16403 0.0
C655 C 0.76184 0.6432 0.14961 0.0
C656 C 0.86655 0.70936 0.22179 0.0
C657 C 0.81669 0.6633 0.19181 0.0
C658 C 0.8982 0.7221 0.23641 0.0
C659 C 0.91143 0.70161 0.24142 0.0
C660 C 0.8478 0.67582 0.21184 0.0
C661 C 0.89087 0.66764 0.23313 0.0
C662 C 0.79445 0.62916 0.18493 0.0
C663 C 0.78434 0.67689 0.15767 0.0
N664 N 0.86027 0.65588 0.21838 0.0
N665 N 0.81061 0.68584 0.17807 0.0
H666 H 0.39003 0.17199 0.18241 0.0
H667 H 0.54636 0.14817 0.13141 0.0
H668 H 0.49617 0.25149 0.19108 0.0
H669 H 0.4476 0.09264 0.08652 0.0
H670 H 0.52784 0.18315 0.15911 0.0
H671 H 0.40969 0.13846 0.15361 0.0
C672 C 0.41743 0.1823 0.17849 0.0
C673 C 0.44145 0.21466 0.18913 0.0
C674 C 0.51039 0.16345 0.14296 0.0
C675 C 0.46414 0.17636 0.1564 0.0
C676 C 0.52098 0.14355 0.12708 0.0
C677 C 0.49866 0.11755 0.10637 0.0
C678 C 0.47695 0.15681 0.13874 0.0
C679 C 0.46588 0.11257 0.10197 0.0
C680 C 0.42864 0.16326 0.16187 0.0
C681 C 0.47669 0.22676 0.18317 0.0
N682 N 0.45592 0.13171 0.11824 0.0
N683 N 0.48695 0.20759 0.16742 0.0
H684 H 0.745 0.15337 0.67111 0.0
H685 H 0.9145 0.16201 0.73251 0.0
H686 H 0.77563 0.08356 0.64425 0.0
H687 H 0.89976 0.24508 0.741 0.0
H688 H 0.85752 0.12855 0.70949 0.0
H689 H 0.79629 0.18358 0.70483 0.0
C690 C 0.76235 0.14434 0.67237 0.0
C691 C 0.75619 0.11614 0.65444 0.0
C692 C 0.86656 0.154 0.71672 0.0
C693 C 0.81439 0.1501 0.69326 0.0
C694 C 0.89905 0.17306 0.73014 0.0
C695 C 0.91216 0.20654 0.73848 0.0
C696 C 0.84687 0.16842 0.71156 0.0
C697 C 0.89083 0.21943 0.73474 0.0
C698 C 0.79157 0.16154 0.6916 0.0
C699 C 0.77948 0.10544 0.65718 0.0
N700 N 0.8594 0.20048 0.72128 0.0
N701 N 0.80738 0.12236 0.6761 0.0
H702 H 1.03149 0.65987 0.62574 0.0
H703 H 0.84217 0.60627 0.69079 0.0
H704 H 0.94683 0.55714 0.62824 0.0
H705 H 0.93183 0.70468 0.704 0.0
H706 H 0.87945 0.5875 0.66839 0.0
H707 H 0.99524 0.67605 0.65516 0.0
C708 C 1.00519 0.6406 0.63266 0.0
C709 C 0.99208 0.60707 0.6242 0.0
C710 C 0.891 0.61314 0.67634 0.0
C711 C 0.95005 0.62569 0.65791 0.0
C712 C 0.86973 0.624 0.68905 0.0
C713 C 0.88382 0.65728 0.69917 0.0
C714 C 0.92674 0.63571 0.67338 0.0
C715 C 0.91976 0.67888 0.69646 0.0
C716 C 0.9845 0.64992 0.64958 0.0
C717 C 0.95797 0.58323 0.63425 0.0
N718 N 0.9399 0.66779 0.68364 0.0
N719 N 0.93795 0.59307 0.65025 0.0
H720 H 0.34521 0.19693 0.7353 0.0
H721 H 0.50767 0.3566 0.64512 0.0
H722 H 0.44512 0.2083 0.72386 0.0
H723 H 0.40217 0.33095 0.64293 0.0
H724 H 0.48878 0.30849 0.68271 0.0
H725 H 0.36955 0.25266 0.71144 0.0
C726 C 0.37244 0.21137 0.72835 0.0
C727 C 0.393 0.19766 0.73132 0.0
C728 C 0.46993 0.31372 0.67418 0.0
C729 C 0.42108 0.26157 0.70324 0.0
C730 C 0.48072 0.34117 0.65284 0.0
C731 C 0.4564 0.34748 0.64049 0.0
C732 C 0.43473 0.29293 0.6835 0.0
C733 C 0.42178 0.32672 0.65133 0.0
C734 C 0.38634 0.2432 0.7145 0.0
C735 C 0.42822 0.21776 0.72191 0.0
N736 N 0.41205 0.30048 0.672 0.0
N737 N 0.44106 0.24851 0.70788 0.0
H738 H 0.26945 1.01708 0.80357 0.0
H739 H 0.26101 0.85314 0.87095 0.0
H740 H 0.34739 0.99385 0.78023 0.0
H741 H 0.17084 0.85959 0.86275 0.0
H742 H 0.29629 0.90945 0.84647 0.0
H743 H 0.23592 0.96376 0.8344 0.0
C744 C 0.27958 1.00093 0.80512 0.0
C745 C 0.311 1.0097 0.78899 0.0
C746 C 0.26877 0.8985 0.85017 0.0
C747 C 0.27323 0.94917 0.82435 0.0
C748 C 0.24868 0.86642 0.86419 0.0
C749 C 0.21289 0.85148 0.86862 0.0
C750 C 0.25304 0.91592 0.841 0.0
C751 C 0.19829 0.86994 0.85945 0.0
C752 C 0.26045 0.97052 0.82258 0.0
C753 C 0.32303 0.98787 0.79186 0.0
N754 N 0.21838 0.90115 0.84613 0.0
N755 N 0.30419 0.95871 0.80916 0.0
H756 H 0.12188 0.37687 0.79083 0.0
H757 H 0.23675 0.33895 0.90214 0.0
H758 H 0.08799 0.27625 0.82144 0.0
H759 H 0.25183 0.4368 0.89019 0.0
H760 H 0.18181 0.31457 0.8747 0.0
H761 H 0.16945 0.39828 0.82764 0.0
C762 C 0.12447 0.35915 0.80525 0.0
C763 C 0.10097 0.32458 0.80266 0.0
C764 C 0.19688 0.34129 0.87859 0.0
C765 C 0.15601 0.34928 0.84536 0.0
C766 C 0.22823 0.35528 0.89438 0.0
C767 C 0.24917 0.3901 0.89835 0.0
C768 C 0.18655 0.36229 0.86633 0.0
C769 C 0.23673 0.4099 0.88767 0.0
C770 C 0.15164 0.3715 0.82655 0.0
C771 C 0.10556 0.30305 0.82251 0.0
N772 N 0.20656 0.39579 0.87181 0.0
N773 N 0.13281 0.31573 0.84279 0.0
H774 H 0.77703 0.75212 0.75701 0.0
H775 H 0.82085 0.90037 0.88218 0.0
H776 H 0.86877 0.8003 0.81367 0.0
H777 H 0.71756 0.83116 0.85133 0.0
H778 H 0.84074 0.86802 0.85236 0.0
H779 H 0.75739 0.78551 0.78555 0.0
C780 C 0.79335 0.77009 0.77508 0.0
C781 C 0.82474 0.77344 0.78284 0.0
C782 C 0.81371 0.85979 0.85216 0.0
C783 C 0.8021 0.81161 0.81584 0.0
C784 C 0.80226 0.87827 0.86918 0.0
C785 C 0.76739 0.86849 0.86934 0.0
C786 C 0.79032 0.83142 0.83461 0.0
C787 C 0.7446 0.83954 0.85206 0.0
C788 C 0.7819 0.78891 0.79159 0.0
C789 C 0.8445 0.79691 0.80678 0.0
N790 N 0.7565 0.82215 0.83519 0.0
N791 N 0.83288 0.81508 0.82237 0.0
H792 H 0.51495 0.53325 0.56099 0.0
H793 H 0.68875 0.67181 0.46758 0.0
H794 H 0.60872 0.53204 0.55508 0.0
H795 H 0.60265 0.68453 0.48433 0.0
H796 H 0.66028 0.62244 0.50311 0.0
H797 H 0.54659 0.5899 0.53712 0.0
C798 C 0.54231 0.54507 0.55523 0.0
C799 C 0.55911 0.52763 0.55987 0.0
C800 C 0.64751 0.63598 0.49937 0.0
C801 C 0.59538 0.59244 0.53213 0.0
C802 C 0.66375 0.6642 0.47892 0.0
C803 C 0.64783 0.68209 0.47263 0.0
C804 C 0.61461 0.62486 0.51346 0.0
C805 C 0.61573 0.67138 0.48847 0.0
C806 C 0.56032 0.57742 0.54151 0.0
C807 C 0.59457 0.5443 0.55186 0.0
N808 N 0.59988 0.6431 0.50781 0.0
N809 N 0.61133 0.57549 0.53812 0.0
H810 H 0.57494 0.09178 0.5789 0.0
H811 H 0.41321 0.93533 0.49464 0.0
H812 H 0.55463 0.99152 0.58575 0.0
H813 H 0.45275 0.03898 0.47151 0.0
H814 H 0.45831 0.9534 0.53535 0.0
H815 H 0.52259 0.0705 0.54825 0.0
C816 C 0.55913 0.06517 0.57458 0.0
C817 C 0.56949 0.04352 0.58478 0.0
C818 C 0.4569 0.97208 0.52138 0.0
C819 C 0.5095 1.01892 0.54896 0.0
C820 C 0.4312 0.96179 0.49816 0.0
C821 C 0.42937 0.98562 0.47929 0.0
C822 C 0.4805 1.00642 0.52608 0.0
C823 C 0.45332 1.0196 0.48505 0.0
C824 C 0.52931 0.05303 0.55678 0.0
C825 C 0.54777 1.0092 0.57832 0.0
N826 N 0.47771 0.02888 0.5078 0.0
N827 N 0.51903 0.99801 0.56053 0.0
H828 H 0.11433 0.41655 0.42736 0.0
H829 H 0.1272 0.54332 0.56574 0.0
H830 H 0.19635 0.45757 0.4961 0.0
H831 H 1.03126 0.46822 0.52459 0.0
H832 H 0.15592 0.51741 0.53785 0.0
H833 H 0.08741 0.44198 0.45842 0.0
C834 C 0.12707 0.43136 0.44871 0.0
C835 C 0.15787 0.43495 0.45896 0.0
C836 C 0.12852 0.50642 0.53529 0.0
C837 C 0.12666 0.4641 0.49503 0.0
C838 C 0.11204 0.52109 0.55129 0.0
C839 C 0.07665 0.50788 0.54766 0.0
C840 C 0.10969 0.47877 0.51486 0.0
C841 C 0.05846 0.47917 0.52837 0.0
C842 C 0.11139 0.44559 0.46667 0.0
C843 C 0.17275 0.45423 0.48715 0.0
N844 N 0.07524 0.46591 0.5124 0.0
N845 N 0.15708 0.46818 0.50415 0.0
H846 H 0.42212 0.50101 0.98895 0.0
H847 H 0.57752 0.49477 0.06658 0.0
H848 H 0.45293 0.43152 0.96128 0.0
H849 H 0.57095 0.5828 0.07208 0.0
H850 H 0.52352 0.46606 0.03783 0.0
H851 H 0.46946 0.52694 0.02781 0.0
C852 C 0.4387 0.49118 0.99107 0.0
C853 C 0.43378 0.46433 0.97147 0.0
C854 C 0.53366 0.49156 0.04565 0.0
C855 C 0.48725 0.49325 0.01619 0.0
C856 C 0.56442 0.50791 0.06234 0.0
C857 C 0.57908 0.54141 0.07155 0.0
C858 C 0.51721 0.50868 0.03803 0.0
C859 C 0.56073 0.55703 0.06531 0.0
C860 C 0.46564 0.50594 0.01322 0.0
C861 C 0.45594 0.45247 0.97541 0.0
N862 N 0.53092 0.54066 0.04865 0.0
N863 N 0.4815 0.46691 -0.00276 0.0
H864 H 0.68012 0.98005 0.93027 0.0
H865 H 0.50495 0.94268 0.02125 0.0
H866 H 0.60188 0.8819 0.96688 0.0
H867 H 0.5959 0.04177 0.01257 0.0
H868 H 0.53738 0.91985 -0.0041 0.0
H869 H 0.64654 1.00244 0.95376 0.0
C870 C 0.65562 0.96302 0.94288 0.0
C871 C 0.64385 0.92889 0.94654 0.0
C872 C 0.5503 0.94657 -0.00043 0.0
C873 C 0.60526 0.95473 0.97379 0.0
C874 C 0.5318 0.95973 0.014 0.0
C875 C 0.54768 0.99433 0.01909 0.0
C876 C 0.58498 0.96808 0.9896 0.0
C877 C 0.5826 1.015 0.00926 0.0
C878 C 0.6366 0.97598 0.95653 0.0
C879 C 0.61196 0.90828 0.96333 0.0
N880 N 0.60001 1.00158 -0.00519 0.0
N881 N 0.59379 0.92152 0.97633 0.0
H882 H 0.1891 0.70201 0.00348 0.0
H883 H 1.01963 0.52286 0.04094 0.0
H884 H 0.10262 0.65453 0.9399 0.0
H885 H 0.11831 0.5473 0.07546 0.0
H886 H 0.04791 0.57677 0.01195 0.0
H887 H 0.16254 0.65001 0.03655 0.0
C888 C 0.16483 0.68061 -0.00379 0.0
C889 C 0.14825 0.68266 0.96866 0.0
C890 C 0.06333 0.57047 0.02615 0.0
C891 C 0.11726 0.62367 0.00701 0.0
C892 C 0.04714 0.53983 0.04307 0.0
C893 C 0.06658 0.53041 0.06068 0.0
C894 C 0.09925 0.59221 0.0271 0.0
C895 C 0.10228 0.55348 0.06217 0.0
C896 C 0.14963 0.65105 0.01519 0.0
C897 C 0.1166 0.65417 0.96067 0.0
N898 N 0.1175 0.58328 0.04553 0.0
N899 N 0.10204 0.62611 0.97989 0.0
loop_
_geom_bond_atom_site_label_1
_geom_bond_atom_site_label_2
_geom_bond_distance
_geom_bond_site_symmetry_2
_ccdc_geom_bond_type
O0 Cd1 2.223 . S
O0 C8 1.315 . S
Cd1 O0 2.223 . S
Cd1 O4 2.297 . S
Cd1 O5 2.439 1_455 S
Cd1 O11 2.240 . S
Cd2 O3 2.240 . S
Cd2 O10 2.223 . S
Cd2 O12 2.297 1_455 S
Cd2 O13 2.439 1_455 S
O3 Cd2 2.240 . S
O3 C8 1.279 . S
O4 Cd1 2.297 . S
O4 C6 1.247 . S
O5 Cd1 2.439 1_655 S
O5 C6 1.208 1_655 S
C6 O4 1.247 . S
C6 O5 1.208 1_455 S
C7 O12 1.247 . S
C7 O13 1.208 . S
C8 O0 1.315 . S
C8 O3 1.279 . S
C9 O10 1.315 . S
C9 O11 1.279 . S
O10 Cd2 2.223 . S
O10 C9 1.315 . S
O11 Cd1 2.240 . S
O11 C9 1.279 . S
O12 Cd2 2.297 1_655 S
O12 C7 1.247 . S
O13 Cd2 2.439 1_655 S
O13 C7 1.208 . S
O14 Cd15 2.223 . S
O14 C22 1.315 . S
Cd15 O14 2.223 . S
Cd15 O18 2.297 . S
Cd15 O19 2.439 . S
Cd15 O25 2.240 . S
Cd16 O17 2.240 . S
Cd16 O24 2.223 . S
Cd16 O26 2.297 . S
Cd16 O27 2.439 . S
O17 Cd16 2.240 . S
O17 C22 1.279 . S
O18 Cd15 2.297 . S
O18 C20 1.247 . S
O19 Cd15 2.439 . S
O19 C20 1.208 . S
C20 O18 1.247 . S
C20 O19 1.208 . S
C21 O26 1.247 . S
C21 O27 1.208 . S
C22 O14 1.315 . S
C22 O17 1.279 . S
C23 O24 1.315 . S
C23 O25 1.279 . S
O24 Cd16 2.223 . S
O24 C23 1.315 . S
O25 Cd15 2.240 . S
O25 C23 1.279 . S
O26 Cd16 2.297 . S
O26 C21 1.247 . S
O27 Cd16 2.439 . S
O27 C21 1.208 . S
O28 Cd29 2.223 . S
O28 C36 1.315 . S
Cd29 O28 2.223 . S
Cd29 O32 2.297 . S
Cd29 O33 2.439 1_545 S
Cd29 O39 2.240 . S
Cd30 O31 2.240 . S
Cd30 O38 2.223 . S
Cd30 O40 2.297 1_545 S
Cd30 O41 2.439 1_545 S
O31 Cd30 2.240 . S
O31 C36 1.279 . S
O32 Cd29 2.297 . S
O32 C34 1.247 . S
O33 Cd29 2.439 1_565 S
O33 C34 1.208 1_565 S
C34 O32 1.247 . S
C34 O33 1.208 1_545 S
C35 O40 1.247 . S
C35 O41 1.208 . S
C36 O28 1.315 . S
C36 O31 1.279 . S
C37 O38 1.315 . S
C37 O39 1.279 . S
O38 Cd30 2.223 . S
O38 C37 1.315 . S
O39 Cd29 2.240 . S
O39 C37 1.279 . S
O40 Cd30 2.297 1_565 S
O40 C35 1.247 . S
O41 Cd30 2.439 1_565 S
O41 C35 1.208 . S
O42 Cd43 2.223 . S
O42 C50 1.315 . S
Cd43 O42 2.223 . S
Cd43 O46 2.297 . S
Cd43 O47 2.439 1_455 S
Cd43 O53 2.240 . S
Cd44 O45 2.240 . S
Cd44 O52 2.223 . S
Cd44 O54 2.297 1_455 S
Cd44 O55 2.439 1_455 S
O45 Cd44 2.240 . S
O45 C50 1.279 . S
O46 Cd43 2.297 . S
O46 C48 1.247 . S
O47 Cd43 2.439 1_655 S
O47 C48 1.208 1_655 S
C48 O46 1.247 . S
C48 O47 1.208 1_455 S
C49 O54 1.247 . S
C49 O55 1.208 . S
C50 O42 1.315 . S
C50 O45 1.279 . S
C51 O52 1.315 . S
C51 O53 1.279 . S
O52 Cd44 2.223 . S
O52 C51 1.315 . S
O53 Cd43 2.240 . S
O53 C51 1.279 . S
O54 Cd44 2.297 1_655 S
O54 C49 1.247 . S
O55 Cd44 2.439 1_655 S
O55 C49 1.208 . S
O56 Cd57 2.223 . S
O56 C64 1.315 . S
Cd57 O56 2.223 . S
Cd57 O60 2.297 . S
Cd57 O61 2.439 . S
Cd57 O67 2.240 . S
Cd58 O59 2.240 . S
Cd58 O66 2.223 . S
Cd58 O68 2.297 . S
Cd58 O69 2.439 . S
O59 Cd58 2.240 . S
O59 C64 1.279 . S
O60 Cd57 2.297 . S
O60 C62 1.247 . S
O61 Cd57 2.439 . S
O61 C62 1.208 . S
C62 O60 1.247 . S
C62 O61 1.208 . S
C63 O68 1.247 . S
C63 O69 1.208 . S
C64 O56 1.315 . S
C64 O59 1.279 . S
C65 O66 1.315 . S
C65 O67 1.279 . S
O66 Cd58 2.223 . S
O66 C65 1.315 . S
O67 Cd57 2.240 . S
O67 C65 1.279 . S
O68 Cd58 2.297 . S
O68 C63 1.247 . S
O69 Cd58 2.439 . S
O69 C63 1.208 . S
O70 Cd71 2.229 . S
O70 C78 1.315 . S
Cd71 O70 2.229 . S
Cd71 O74 2.298 1_565 S
Cd71 O75 2.430 1_565 S
Cd71 O81 2.236 1_565 S
Cd72 O73 2.240 1_545 S
Cd72 O80 2.223 1_545 S
Cd72 O82 2.297 . S
Cd72 O83 2.439 . S
O73 Cd72 2.240 1_565 S
O73 C78 1.279 . S
O74 Cd71 2.298 1_545 S
O74 C76 1.247 . S
O75 Cd71 2.430 1_545 S
O75 C76 1.208 . S
C76 O74 1.247 . S
C76 O75 1.208 . S
C77 O82 1.247 . S
C77 O83 1.208 . S
C78 O70 1.315 . S
C78 O73 1.279 . S
C79 O80 1.315 . S
C79 O81 1.279 1_565 S
O80 Cd72 2.223 1_565 S
O80 C79 1.315 . S
O81 Cd71 2.236 1_545 S
O81 C79 1.279 1_545 S
O82 Cd72 2.297 . S
O82 C77 1.247 . S
O83 Cd72 2.439 . S
O83 C77 1.208 . S
O84 Cd85 2.223 . S
O84 C92 1.315 . S
Cd85 O84 2.223 . S
Cd85 O88 2.297 . S
Cd85 O89 2.439 . S
Cd85 O95 2.240 . S
Cd86 O87 2.240 . S
Cd86 O94 2.223 . S
Cd86 O96 2.297 . S
Cd86 O97 2.439 . S
O87 Cd86 2.240 . S
O87 C92 1.279 . S
O88 Cd85 2.297 . S
O88 C90 1.247 . S
O89 Cd85 2.439 . S
O89 C90 1.208 . S
C90 O88 1.247 . S
C90 O89 1.208 . S
C91 O96 1.247 . S
C91 O97 1.208 . S
C92 O84 1.315 . S
C92 O87 1.279 . S
C93 O94 1.315 . S
C93 O95 1.279 . S
O94 Cd86 2.223 . S
O94 C93 1.315 . S
O95 Cd85 2.240 . S
O95 C93 1.279 . S
O96 Cd86 2.297 . S
O96 C91 1.247 . S
O97 Cd86 2.439 . S
O97 C91 1.208 . S
O98 Cd99 2.223 . S
O98 C106 1.315 . S
Cd99 O98 2.223 . S
Cd99 O102 2.297 . S
Cd99 O103 2.439 . S
Cd99 O109 2.240 . S
Cd100 O101 2.240 . S
Cd100 O108 2.223 . S
Cd100 O110 2.297 . S
Cd100 O111 2.439 . S
O101 Cd100 2.240 . S
O101 C106 1.279 . S
O102 Cd99 2.297 . S
O102 C104 1.247 . S
O103 Cd99 2.439 . S
O103 C104 1.208 . S
C104 O102 1.247 . S
C104 O103 1.208 . S
C105 O110 1.247 . S
C105 O111 1.208 . S
C106 O98 1.315 . S
C106 O101 1.279 . S
C107 O108 1.315 . S
C107 O109 1.279 . S
O108 Cd100 2.223 . S
O108 C107 1.315 . S
O109 Cd99 2.240 . S
O109 C107 1.279 . S
O110 Cd100 2.297 . S
O110 C105 1.247 . S
O111 Cd100 2.439 . S
O111 C105 1.208 . S
O112 Cd113 2.223 . S
O112 C120 1.315 . S
Cd113 O112 2.223 . S
Cd113 O116 2.297 . S
Cd113 O117 2.439 . S
Cd113 O123 2.240 . S
Cd114 O115 2.240 . S
Cd114 O122 2.223 . S
Cd114 O124 2.297 . S
Cd114 O125 2.439 . S
O115 Cd114 2.240 . S
O115 C120 1.279 . S
O116 Cd113 2.297 . S
O116 C118 1.247 . S
O117 Cd113 2.439 . S
O117 C118 1.208 . S
C118 O116 1.247 . S
C118 O117 1.208 . S
C119 O124 1.247 . S
C119 O125 1.208 . S
C120 O112 1.315 . S
C120 O115 1.279 . S
C121 O122 1.315 . S
C121 O123 1.279 . S
O122 Cd114 2.223 . S
O122 C121 1.315 . S
O123 Cd113 2.240 . S
O123 C121 1.279 . S
O124 Cd114 2.297 . S
O124 C119 1.247 . S
O125 Cd114 2.439 . S
O125 C119 1.208 . S
O126 Cd127 2.223 . S
O126 C134 1.315 . S
Cd127 O126 2.223 . S
Cd127 O130 2.297 . S
Cd127 O131 2.439 . S
Cd127 O137 2.240 . S
Cd128 O129 2.240 . S
Cd128 O136 2.223 . S
Cd128 O138 2.297 . S
Cd128 O139 2.439 . S
O129 Cd128 2.240 . S
O129 C134 1.279 . S
O130 Cd127 2.297 . S
O130 C132 1.247 . S
O131 Cd127 2.439 . S
O131 C132 1.208 . S
C132 O130 1.247 . S
C132 O131 1.208 . S
C133 O138 1.247 . S
C133 O139 1.208 . S
C134 O126 1.315 . S
C134 O129 1.279 . S
C135 O136 1.315 . S
C135 O137 1.279 . S
O136 Cd128 2.223 . S
O136 C135 1.315 . S
O137 Cd127 2.240 . S
O137 C135 1.279 . S
O138 Cd128 2.297 . S
O138 C133 1.247 . S
O139 Cd128 2.439 . S
O139 C133 1.208 . S
O140 Cd141 2.223 . S
O140 C148 1.315 . S
Cd141 O140 2.223 . S
Cd141 O144 2.297 . S
Cd141 O145 2.439 . S
Cd141 O151 2.240 . S
Cd142 O143 2.240 . S
Cd142 O150 2.223 . S
Cd142 O152 2.297 . S
Cd142 O153 2.439 . S
O143 Cd142 2.240 . S
O143 C148 1.279 . S
O144 Cd141 2.297 . S
O144 C146 1.247 . S
O145 Cd141 2.439 . S
O145 C146 1.208 . S
C146 O144 1.247 . S
C146 O145 1.208 . S
C147 O152 1.247 . S
C147 O153 1.208 . S
C148 O140 1.315 . S
C148 O143 1.279 . S
C149 O150 1.315 . S
C149 O151 1.279 . S
O150 Cd142 2.223 . S
O150 C149 1.315 . S
O151 Cd141 2.240 . S
O151 C149 1.279 . S
O152 Cd142 2.297 . S
O152 C147 1.247 . S
O153 Cd142 2.439 . S
O153 C147 1.208 . S
O154 Cd155 2.223 . S
O154 C162 1.315 . S
Cd155 O154 2.223 . S
Cd155 O158 2.297 1_655 S
Cd155 O159 2.439 . S
Cd155 O165 2.240 . S
Cd156 O157 2.240 . S
Cd156 O164 2.223 . S
Cd156 O166 2.297 . S
Cd156 O167 2.439 . S
O157 Cd156 2.240 . S
O157 C162 1.279 . S
O158 Cd155 2.297 1_455 S
O158 C160 1.247 . S
O159 Cd155 2.439 . S
O159 C160 1.208 1_655 S
C160 O158 1.247 . S
C160 O159 1.208 1_455 S
C161 O166 1.247 . S
C161 O167 1.208 . S
C162 O154 1.315 . S
C162 O157 1.279 . S
C163 O164 1.315 . S
C163 O165 1.279 . S
O164 Cd156 2.223 . S
O164 C163 1.315 . S
O165 Cd155 2.240 . S
O165 C163 1.279 . S
O166 Cd156 2.297 . S
O166 C161 1.247 . S
O167 Cd156 2.439 . S
O167 C161 1.208 . S
O168 Cd169 2.223 . S
O168 C176 1.315 . S
Cd169 O168 2.223 . S
Cd169 O172 2.297 . S
Cd169 O173 2.439 . S
Cd169 O179 2.240 . S
Cd170 O171 2.240 . S
Cd170 O178 2.223 . S
Cd170 O180 2.297 . S
Cd170 O181 2.439 . S
O171 Cd170 2.240 . S
O171 C176 1.279 . S
O172 Cd169 2.297 . S
O172 C174 1.247 . S
O173 Cd169 2.439 . S
O173 C174 1.208 . S
C174 O172 1.247 . S
C174 O173 1.208 . S
C175 O180 1.247 . S
C175 O181 1.208 . S
C176 O168 1.315 . S
C176 O171 1.279 . S
C177 O178 1.315 . S
C177 O179 1.279 . S
O178 Cd170 2.223 . S
O178 C177 1.315 . S
O179 Cd169 2.240 . S
O179 C177 1.279 . S
O180 Cd170 2.297 . S
O180 C175 1.247 . S
O181 Cd170 2.439 . S
O181 C175 1.208 . S
O182 Cd183 2.223 . S
O182 C190 1.315 . S
Cd183 O182 2.223 . S
Cd183 O186 2.297 . S
Cd183 O187 2.439 . S
Cd183 O193 2.240 . S
Cd184 O185 2.240 . S
Cd184 O192 2.223 . S
Cd184 O194 2.297 . S
Cd184 O195 2.439 . S
O185 Cd184 2.240 . S
O185 C190 1.279 . S
O186 Cd183 2.297 . S
O186 C188 1.247 . S
O187 Cd183 2.439 . S
O187 C188 1.208 . S
C188 O186 1.247 . S
C188 O187 1.208 . S
C189 O194 1.247 . S
C189 O195 1.208 . S
C190 O182 1.315 . S
C190 O185 1.279 . S
C191 O192 1.315 . S
C191 O193 1.279 . S
O192 Cd184 2.223 . S
O192 C191 1.315 . S
O193 Cd183 2.240 . S
O193 C191 1.279 . S
O194 Cd184 2.297 . S
O194 C189 1.247 . S
O195 Cd184 2.439 . S
O195 C189 1.208 . S
O196 Cd197 2.223 . S
O196 C204 1.315 . S
Cd197 O196 2.223 . S
Cd197 O200 2.297 . S
Cd197 O201 2.439 . S
Cd197 O207 2.240 . S
Cd198 O199 2.240 . S
Cd198 O206 2.223 . S
Cd198 O208 2.297 . S
Cd198 O209 2.439 . S
O199 Cd198 2.240 . S
O199 C204 1.279 . S
O200 Cd197 2.297 . S
O200 C202 1.247 . S
O201 Cd197 2.439 . S
O201 C202 1.208 . S
C202 O200 1.247 . S
C202 O201 1.208 . S
C203 O208 1.247 . S
C203 O209 1.208 . S
C204 O196 1.315 . S
C204 O199 1.279 . S
C205 O206 1.315 . S
C205 O207 1.279 . S
O206 Cd198 2.223 . S
O206 C205 1.315 . S
O207 Cd197 2.240 . S
O207 C205 1.279 . S
O208 Cd198 2.297 . S
O208 C203 1.247 . S
O209 Cd198 2.439 . S
O209 C203 1.208 . S
O210 Cd211 2.223 . S
O210 C218 1.315 . S
Cd211 O210 2.223 . S
Cd211 O214 2.297 . S
Cd211 O215 2.439 . S
Cd211 O221 2.240 . S
Cd212 O213 2.240 . S
Cd212 O220 2.223 . S
Cd212 O222 2.297 . S
Cd212 O223 2.439 . S
O213 Cd212 2.240 . S
O213 C218 1.279 . S
O214 Cd211 2.297 . S
O214 C216 1.247 . S
O215 Cd211 2.439 . S
O215 C216 1.208 . S
C216 O214 1.247 . S
C216 O215 1.208 . S
C217 O222 1.247 . S
C217 O223 1.208 . S
C218 O210 1.315 . S
C218 O213 1.279 . S
C219 O220 1.315 . S
C219 O221 1.279 . S
O220 Cd212 2.223 . S
O220 C219 1.315 . S
O221 Cd211 2.240 . S
O221 C219 1.279 . S
O222 Cd212 2.297 . S
O222 C217 1.247 . S
O223 Cd212 2.439 . S
O223 C217 1.208 . S
O224 Cd225 2.223 . S
O224 C232 1.315 . S
Cd225 O224 2.223 . S
Cd225 O228 2.297 . S
Cd225 O229 2.439 . S
Cd225 O235 2.240 . S
Cd226 O227 2.240 . S
Cd226 O234 2.223 . S
Cd226 O236 2.297 . S
Cd226 O237 2.439 . S
O227 Cd226 2.240 . S
O227 C232 1.279 . S
O228 Cd225 2.297 . S
O228 C230 1.247 . S
O229 Cd225 2.439 . S
O229 C230 1.208 . S
C230 O228 1.247 . S
C230 O229 1.208 . S
C231 O236 1.247 . S
C231 O237 1.208 . S
C232 O224 1.315 . S
C232 O227 1.279 . S
C233 O234 1.315 . S
C233 O235 1.279 . S
O234 Cd226 2.223 . S
O234 C233 1.315 . S
O235 Cd225 2.240 . S
O235 C233 1.279 . S
O236 Cd226 2.297 . S
O236 C231 1.247 . S
O237 Cd226 2.439 . S
O237 C231 1.208 . S
O238 Cd239 2.223 . S
O238 C246 1.315 . S
Cd239 O238 2.223 . S
Cd239 O242 2.297 . S
Cd239 O243 2.439 . S
Cd239 O249 2.240 . S
Cd240 O241 2.240 . S
Cd240 O248 2.223 . S
Cd240 O250 2.297 . S
Cd240 O251 2.439 . S
O241 Cd240 2.240 . S
O241 C246 1.279 . S
O242 Cd239 2.297 . S
O242 C244 1.247 . S
O243 Cd239 2.439 . S
O243 C244 1.208 . S
C244 O242 1.247 . S
C244 O243 1.208 . S
C245 O250 1.247 . S
C245 O251 1.208 . S
C246 O238 1.315 . S
C246 O241 1.279 . S
C247 O248 1.315 . S
C247 O249 1.279 . S
O248 Cd240 2.223 . S
O248 C247 1.315 . S
O249 Cd239 2.240 . S
O249 C247 1.279 . S
O250 Cd240 2.297 . S
O250 C245 1.247 . S
O251 Cd240 2.439 . S
O251 C245 1.208 . S
H252 C258 0.930 . S
H253 C262 0.930 . S
H254 C267 0.929 . S
H255 C265 0.929 1_556 S
H256 C260 0.929 . S
H257 C266 0.929 . S
C258 H252 0.930 . S
C258 C259 1.367 . S
C258 C266 1.378 . S
C259 C258 1.367 . S
C259 C267 1.433 . S
C260 H256 0.929 . S
C260 C262 1.378 . S
C260 C264 1.350 . S
C261 C264 1.463 . S
C261 C266 1.350 . S
C261 N269 1.427 . S
C262 H253 0.930 . S
C262 C260 1.378 . S
C262 C263 1.367 . S
C263 C262 1.367 . S
C263 C265 1.433 . S
C264 C260 1.350 . S
C264 C261 1.463 . S
C264 N268 1.427 . S
C265 H255 0.929 1_554 S
C265 C263 1.433 . S
C265 N268 1.384 . S
C266 H257 0.929 . S
C266 C258 1.378 . S
C266 C261 1.350 . S
C267 H254 0.929 . S
C267 C259 1.433 . S
C267 N269 1.384 . S
N268 C264 1.427 . S
N268 C265 1.384 . S
N269 C261 1.427 . S
N269 C267 1.384 . S
H270 C276 0.930 . S
H271 C280 0.930 . S
H272 C285 0.929 . S
H273 C283 0.929 . S
H274 C278 0.929 . S
H275 C284 0.929 . S
C276 H270 0.930 . S
C276 C277 1.367 . S
C276 C284 1.378 . S
C277 C276 1.367 . S
C277 C285 1.433 . S
C278 H274 0.929 . S
C278 C280 1.378 . S
C278 C282 1.350 . S
C279 C282 1.463 . S
C279 C284 1.350 . S
C279 N287 1.427 . S
C280 H271 0.930 . S
C280 C278 1.378 . S
C280 C281 1.367 . S
C281 C280 1.367 . S
C281 C283 1.433 . S
C282 C278 1.350 . S
C282 C279 1.463 . S
C282 N286 1.427 . S
C283 H273 0.929 . S
C283 C281 1.433 . S
C283 N286 1.384 . S
C284 H275 0.929 . S
C284 C276 1.378 . S
C284 C279 1.350 . S
C285 H272 0.929 . S
C285 C277 1.433 . S
C285 N287 1.384 . S
N286 C282 1.427 . S
N286 C283 1.384 . S
N287 C279 1.427 . S
N287 C285 1.384 . S
H288 C294 0.930 . S
H289 C298 0.930 . S
H290 C303 0.929 . S
H291 C301 0.929 . S
H292 C296 0.929 . S
H293 C302 0.929 . S
C294 H288 0.930 . S
C294 C295 1.367 1_545 S
C294 C302 1.378 . S
C295 C294 1.367 1_565 S
C295 C303 1.433 . S
C296 H292 0.929 . S
C296 C298 1.378 . S
C296 C300 1.350 . S
C297 C300 1.463 . S
C297 C302 1.350 1_565 S
C297 N305 1.427 . S
C298 H289 0.930 . S
C298 C296 1.378 . S
C298 C299 1.367 1_554 S
C299 C298 1.367 1_556 S
C299 C301 1.433 . S
C300 C296 1.350 . S
C300 C297 1.463 . S
C300 N304 1.427 . S
C301 H291 0.929 . S
C301 C299 1.433 . S
C301 N304 1.384 1_556 S
C302 H293 0.929 . S
C302 C294 1.378 . S
C302 C297 1.350 1_545 S
C303 H290 0.929 . S
C303 C295 1.433 . S
C303 N305 1.384 . S
N304 C300 1.427 . S
N304 C301 1.384 1_554 S
N305 C297 1.427 . S
N305 C303 1.384 . S
H306 C312 0.930 . S
H307 C316 0.930 . S
H308 C321 0.929 . S
H309 C319 0.929 . S
H310 C314 0.929 . S
H311 C320 0.929 . S
C312 H306 0.930 . S
C312 C313 1.367 . S
C312 C320 1.378 . S
C313 C312 1.367 . S
C313 C321 1.433 . S
C314 H310 0.929 . S
C314 C316 1.378 . S
C314 C318 1.350 . S
C315 C318 1.463 . S
C315 C320 1.350 . S
C315 N323 1.427 . S
C316 H307 0.930 . S
C316 C314 1.378 . S
C316 C317 1.367 . S
C317 C316 1.367 . S
C317 C319 1.433 . S
C318 C314 1.350 . S
C318 C315 1.463 . S
C318 N322 1.427 . S
C319 H309 0.929 . S
C319 C317 1.433 . S
C319 N322 1.384 . S
C320 H311 0.929 . S
C320 C312 1.378 . S
C320 C315 1.350 . S
C321 H308 0.929 . S
C321 C313 1.433 . S
C321 N323 1.384 . S
N322 C318 1.427 . S
N322 C319 1.384 . S
N323 C315 1.427 . S
N323 C321 1.384 . S
H324 C330 0.930 . S
H325 C334 0.930 . S
H326 C339 0.929 . S
H327 C337 0.953 . S
H328 C332 0.929 . S
H329 C338 0.929 . S
C330 H324 0.930 . S
C330 C331 1.367 . S
C330 C338 1.378 . S
C331 C330 1.367 . S
C331 C339 1.433 . S
C332 H328 0.929 . S
C332 C334 1.378 . S
C332 C336 1.350 . S
C333 C336 1.463 . S
C333 C338 1.350 . S
C333 N341 1.427 . S
C334 H325 0.930 . S
C334 C332 1.378 . S
C334 C335 1.367 . S
C335 C334 1.367 . S
C335 C337 1.405 1_655 S
C336 C332 1.350 . S
C336 C333 1.463 . S
C336 N340 1.427 . S
C337 H327 0.953 . S
C337 C335 1.405 1_455 S
C337 N340 1.388 1_455 S
C338 H329 0.929 . S
C338 C330 1.378 . S
C338 C333 1.350 . S
C339 H326 0.929 . S
C339 C331 1.433 . S
C339 N341 1.384 . S
N340 C336 1.427 . S
N340 C337 1.388 1_655 S
N341 C333 1.427 . S
N341 C339 1.384 . S
H342 C348 0.930 . S
H343 C352 0.930 . S
H344 C357 0.929 . S
H345 C355 0.929 . S
H346 C350 0.929 . S
H347 C356 0.929 . S
C348 H342 0.930 . S
C348 C349 1.367 . S
C348 C356 1.378 . S
C349 C348 1.367 . S
C349 C357 1.433 . S
C350 H346 0.929 . S
C350 C352 1.378 . S
C350 C354 1.350 . S
C351 C354 1.463 . S
C351 C356 1.350 . S
C351 N359 1.427 . S
C352 H343 0.930 . S
C352 C350 1.378 . S
C352 C353 1.367 . S
C353 C352 1.367 . S
C353 C355 1.433 . S
C354 C350 1.350 . S
C354 C351 1.463 . S
C354 N358 1.427 . S
C355 H345 0.929 . S
C355 C353 1.433 . S
C355 N358 1.384 . S
C356 H347 0.929 . S
C356 C348 1.378 . S
C356 C351 1.350 . S
C357 H344 0.929 . S
C357 C349 1.433 . S
C357 N359 1.384 . S
N358 C354 1.427 . S
N358 C355 1.384 . S
N359 C351 1.427 . S
N359 C357 1.384 . S
H360 C366 0.930 . S
H361 C370 0.930 . S
H362 C375 0.929 . S
H363 C373 0.929 . S
H364 C368 0.929 . S
H365 C374 0.929 . S
C366 H360 0.930 . S
C366 C367 1.367 . S
C366 C374 1.378 . S
C367 C366 1.367 . S
C367 C375 1.433 . S
C368 H364 0.929 . S
C368 C370 1.378 1_556 S
C368 C372 1.350 . S
C369 C372 1.463 . S
C369 C374 1.350 . S
C369 N377 1.427 . S
C370 H361 0.930 . S
C370 C368 1.378 1_554 S
C370 C371 1.367 . S
C371 C370 1.367 . S
C371 C373 1.433 1_554 S
C372 C368 1.350 . S
C372 C369 1.463 . S
C372 N376 1.427 . S
C373 H363 0.929 . S
C373 C371 1.433 1_556 S
C373 N376 1.384 . S
C374 H365 0.929 . S
C374 C366 1.378 . S
C374 C369 1.350 . S
C375 H362 0.929 . S
C375 C367 1.433 . S
C375 N377 1.384 . S
N376 C372 1.427 . S
N376 C373 1.384 . S
N377 C369 1.427 . S
N377 C375 1.384 . S
H378 C384 0.930 . S
H379 C388 0.930 . S
H380 C393 0.929 1_554 S
H381 C391 0.929 . S
H382 C386 0.929 . S
H383 C392 0.929 . S
C384 H378 0.930 . S
C384 C385 1.367 . S
C384 C392 1.378 . S
C385 C384 1.367 . S
C385 C393 1.433 . S
C386 H382 0.929 . S
C386 C388 1.378 . S
C386 C390 1.350 . S
C387 C390 1.463 . S
C387 C392 1.350 . S
C387 N395 1.427 . S
C388 H379 0.930 . S
C388 C386 1.378 . S
C388 C389 1.367 . S
C389 C388 1.367 . S
C389 C391 1.433 . S
C390 C386 1.350 . S
C390 C387 1.463 . S
C390 N394 1.427 . S
C391 H381 0.929 . S
C391 C389 1.433 . S
C391 N394 1.384 . S
C392 H383 0.929 . S
C392 C384 1.378 . S
C392 C387 1.350 . S
C393 H380 0.929 1_556 S
C393 C385 1.433 . S
C393 N395 1.384 . S
N394 C390 1.427 . S
N394 C391 1.384 . S
N395 C387 1.427 . S
N395 C393 1.384 . S
H396 C402 0.930 . S
H397 C406 0.930 . S
H398 C411 0.929 . S
H399 C409 0.929 1_565 S
H400 C404 0.929 . S
H401 C410 0.929 . S
C402 H396 0.930 . S
C402 C403 1.367 . S
C402 C410 1.378 1_554 S
C403 C402 1.367 . S
C403 C411 1.433 1_554 S
C404 H400 0.929 . S
C404 C406 1.378 . S
C404 C408 1.350 . S
C405 C408 1.463 . S
C405 C410 1.350 . S
C405 N413 1.427 . S
C406 H397 0.930 . S
C406 C404 1.378 . S
C406 C407 1.367 . S
C407 C406 1.367 . S
C407 C409 1.433 . S
C408 C404 1.350 . S
C408 C405 1.463 . S
C408 N412 1.427 . S
C409 H399 0.929 1_545 S
C409 C407 1.433 . S
C409 N412 1.384 . S
C410 H401 0.929 . S
C410 C402 1.378 1_556 S
C410 C405 1.350 . S
C411 H398 0.929 . S
C411 C403 1.433 1_556 S
C411 N413 1.384 . S
N412 C408 1.427 . S
N412 C409 1.384 . S
N413 C405 1.427 . S
N413 C411 1.384 . S
H414 C420 0.930 1_545 S
H415 C424 0.930 . S
H416 C429 0.929 . S
H417 C427 0.929 . S
H418 C422 0.929 . S
H419 C428 0.929 . S
C420 H414 0.930 1_565 S
C420 C421 1.367 . S
C420 C428 1.378 . S
C421 C420 1.367 . S
C421 C429 1.433 . S
C422 H418 0.929 . S
C422 C424 1.378 . S
C422 C426 1.350 . S
C423 C426 1.463 . S
C423 C428 1.350 . S
C423 N431 1.427 . S
C424 H415 0.930 . S
C424 C422 1.378 . S
C424 C425 1.367 . S
C425 C424 1.367 . S
C425 C427 1.433 . S
C426 C422 1.350 . S
C426 C423 1.463 . S
C426 N430 1.427 . S
C427 H417 0.929 . S
C427 C425 1.433 . S
C427 N430 1.384 . S
C428 H419 0.929 . S
C428 C420 1.378 . S
C428 C423 1.350 . S
C429 H416 0.929 . S
C429 C421 1.433 . S
C429 N431 1.384 . S
N430 C426 1.427 . S
N430 C427 1.384 . S
N431 C423 1.427 . S
N431 C429 1.384 . S
H432 C438 0.930 . S
H433 C442 0.930 . S
H434 C447 0.929 . S
H435 C445 0.929 . S
H436 C440 0.929 . S
H437 C446 0.929 . S
C438 H432 0.930 . S
C438 C439 1.367 . S
C438 C446 1.378 . S
C439 C438 1.367 . S
C439 C447 1.433 . S
C440 H436 0.929 . S
C440 C442 1.378 . S
C440 C444 1.350 . S
C441 C444 1.463 . S
C441 C446 1.350 . S
C441 N449 1.427 . S
C442 H433 0.930 . S
C442 C440 1.378 . S
C442 C443 1.367 . S
C443 C442 1.367 . S
C443 C445 1.433 . S
C444 C440 1.350 . S
C444 C441 1.463 . S
C444 N448 1.427 . S
C445 H435 0.929 . S
C445 C443 1.433 . S
C445 N448 1.384 . S
C446 H437 0.929 . S
C446 C438 1.378 . S
C446 C441 1.350 . S
C447 H434 0.929 . S
C447 C439 1.433 . S
C447 N449 1.384 . S
N448 C444 1.427 . S
N448 C445 1.384 . S
N449 C441 1.427 . S
N449 C447 1.384 . S
H450 C456 0.930 . S
H451 C460 0.930 . S
H452 C465 0.929 . S
H453 C463 0.929 . S
H454 C458 0.929 . S
H455 C464 0.929 . S
C456 H450 0.930 . S
C456 C457 1.367 . S
C456 C464 1.378 . S
C457 C456 1.367 . S
C457 C465 1.433 . S
C458 H454 0.929 . S
C458 C460 1.378 . S
C458 C462 1.350 . S
C459 C462 1.463 . S
C459 C464 1.350 . S
C459 N467 1.427 . S
C460 H451 0.930 . S
C460 C458 1.378 . S
C460 C461 1.367 . S
C461 C460 1.367 . S
C461 C463 1.433 . S
C462 C458 1.350 . S
C462 C459 1.463 . S
C462 N466 1.427 . S
C463 H453 0.929 . S
C463 C461 1.433 . S
C463 N466 1.384 . S
C464 H455 0.929 . S
C464 C456 1.378 . S
C464 C459 1.350 . S
C465 H452 0.929 . S
C465 C457 1.433 . S
C465 N467 1.384 . S
N466 C462 1.427 . S
N466 C463 1.384 . S
N467 C459 1.427 . S
N467 C465 1.384 . S
H468 C474 0.930 . S
H469 C478 0.930 . S
H470 C483 0.929 . S
H471 C481 0.929 . S
H472 C476 0.929 . S
H473 C482 0.929 . S
C474 H468 0.930 . S
C474 C475 1.367 . S
C474 C482 1.378 . S
C475 C474 1.367 . S
C475 C483 1.433 . S
C476 H472 0.929 . S
C476 C478 1.378 . S
C476 C480 1.350 . S
C477 C480 1.463 . S
C477 C482 1.350 . S
C477 N485 1.427 . S
C478 H469 0.930 . S
C478 C476 1.378 . S
C478 C479 1.367 . S
C479 C478 1.367 . S
C479 C481 1.433 . S
C480 C476 1.350 . S
C480 C477 1.463 . S
C480 N484 1.427 . S
C481 H471 0.929 . S
C481 C479 1.433 . S
C481 N484 1.384 . S
C482 H473 0.929 . S
C482 C474 1.378 . S
C482 C477 1.350 . S
C483 H470 0.929 . S
C483 C475 1.433 . S
C483 N485 1.384 . S
N484 C480 1.427 . S
N484 C481 1.384 . S
N485 C477 1.427 . S
N485 C483 1.384 . S
H486 C492 0.928 . S
H487 C496 0.930 . S
H488 C501 0.929 . S
H489 C499 0.929 . S
H490 C494 0.929 . S
H491 C500 0.968 . S
C492 H486 0.928 . S
C492 C493 1.367 . S
C492 C500 1.364 1_545 S
C493 C492 1.367 . S
C493 C501 1.433 . S
C494 H490 0.929 . S
C494 C496 1.378 . S
C494 C498 1.350 . S
C495 C498 1.463 . S
C495 C500 1.325 1_545 S
C495 N503 1.427 . S
C496 H487 0.930 . S
C496 C494 1.378 . S
C496 C497 1.367 1_545 S
C497 C496 1.367 1_565 S
C497 C499 1.433 . S
C498 C494 1.350 . S
C498 C495 1.463 . S
C498 N502 1.427 1_545 S
C499 H489 0.929 . S
C499 C497 1.433 . S
C499 N502 1.384 . S
C500 H491 0.968 . S
C500 C492 1.364 1_565 S
C500 C495 1.325 1_565 S
C501 H488 0.929 . S
C501 C493 1.433 . S
C501 N503 1.384 . S
N502 C498 1.427 1_565 S
N502 C499 1.384 . S
N503 C495 1.427 . S
N503 C501 1.384 . S
H504 C510 0.930 . S
H505 C514 0.930 . S
H506 C519 0.929 . S
H507 C517 0.929 . S
H508 C512 0.929 1_655 S
H509 C518 0.929 . S
C510 H504 0.930 . S
C510 C511 1.367 . S
C510 C518 1.378 . S
C511 C510 1.367 . S
C511 C519 1.433 . S
C512 H508 0.929 1_455 S
C512 C514 1.378 1_455 S
C512 C516 1.350 . S
C513 C516 1.463 . S
C513 C518 1.350 . S
C513 N521 1.427 . S
C514 H505 0.930 . S
C514 C512 1.378 1_655 S
C514 C515 1.379 . S
C515 C514 1.379 . S
C515 C517 1.407 1_655 S
C516 C512 1.350 . S
C516 C513 1.463 . S
C516 N520 1.427 . S
C517 H507 0.929 . S
C517 C515 1.407 1_455 S
C517 N520 1.384 . S
C518 H509 0.929 . S
C518 C510 1.378 . S
C518 C513 1.350 . S
C519 H506 0.929 . S
C519 C511 1.433 . S
C519 N521 1.384 . S
N520 C516 1.427 . S
N520 C517 1.384 . S
N521 C513 1.427 . S
N521 C519 1.384 . S
H522 C528 0.930 . S
H523 C532 0.930 . S
H524 C537 0.929 . S
H525 C535 0.929 . S
H526 C530 0.929 . S
H527 C536 0.929 . S
C528 H522 0.930 . S
C528 C529 1.367 . S
C528 C536 1.378 . S
C529 C528 1.367 . S
C529 C537 1.433 . S
C530 H526 0.929 . S
C530 C532 1.378 . S
C530 C534 1.350 . S
C531 C534 1.463 . S
C531 C536 1.350 . S
C531 N539 1.427 . S
C532 H523 0.930 . S
C532 C530 1.378 . S
C532 C533 1.367 . S
C533 C532 1.367 . S
C533 C535 1.433 . S
C534 C530 1.350 . S
C534 C531 1.463 . S
C534 N538 1.427 . S
C535 H525 0.929 . S
C535 C533 1.433 . S
C535 N538 1.384 . S
C536 H527 0.929 . S
C536 C528 1.378 . S
C536 C531 1.350 . S
C537 H524 0.929 . S
C537 C529 1.433 . S
C537 N539 1.384 . S
N538 C534 1.427 . S
N538 C535 1.384 . S
N539 C531 1.427 . S
N539 C537 1.384 . S
H540 C546 0.930 . S
H541 C550 0.930 . S
H542 C555 0.929 . S
H543 C553 0.929 . S
H544 C548 0.929 . S
H545 C554 0.929 1_565 S
C546 H540 0.930 . S
C546 C547 1.367 . S
C546 C554 1.378 . S
C547 C546 1.367 . S
C547 C555 1.433 . S
C548 H544 0.929 . S
C548 C550 1.378 . S
C548 C552 1.350 . S
C549 C552 1.463 1_545 S
C549 C554 1.350 . S
C549 N557 1.427 . S
C550 H541 0.930 . S
C550 C548 1.378 . S
C550 C551 1.367 . S
C551 C550 1.367 . S
C551 C553 1.433 . S
C552 C548 1.350 . S
C552 C549 1.463 1_565 S
C552 N556 1.427 . S
C553 H543 0.929 . S
C553 C551 1.433 . S
C553 N556 1.384 . S
C554 H545 0.929 1_545 S
C554 C546 1.378 . S
C554 C549 1.350 . S
C555 H542 0.929 . S
C555 C547 1.433 . S
C555 N557 1.384 . S
N556 C552 1.427 . S
N556 C553 1.384 . S
N557 C549 1.427 . S
N557 C555 1.384 . S
H558 C564 0.930 . S
H559 C568 0.930 . S
H560 C573 0.929 . S
H561 C571 0.929 . S
H562 C566 0.929 1_655 S
H563 C572 0.929 . S
C564 H558 0.930 . S
C564 C565 1.367 . S
C564 C572 1.378 . S
C565 C564 1.367 . S
C565 C573 1.433 . S
C566 H562 0.929 1_455 S
C566 C568 1.378 1_455 S
C566 C570 1.350 . S
C567 C570 1.463 . S
C567 C572 1.350 . S
C567 N575 1.427 . S
C568 H559 0.930 . S
C568 C566 1.378 1_655 S
C568 C569 1.367 1_655 S
C569 C568 1.367 1_455 S
C569 C571 1.433 . S
C570 C566 1.350 . S
C570 C567 1.463 . S
C570 N574 1.427 . S
C571 H561 0.929 . S
C571 C569 1.433 . S
C571 N574 1.384 . S
C572 H563 0.929 . S
C572 C564 1.378 . S
C572 C567 1.350 . S
C573 H560 0.929 . S
C573 C565 1.433 . S
C573 N575 1.384 . S
N574 C570 1.427 . S
N574 C571 1.384 . S
N575 C567 1.427 . S
N575 C573 1.384 . S
H576 C582 0.930 . S
H577 C586 0.930 . S
H578 C591 0.929 . S
H579 C589 0.929 . S
H580 C584 0.929 . S
H581 C590 0.929 . S
C582 H576 0.930 . S
C582 C583 1.367 . S
C582 C590 1.378 . S
C583 C582 1.367 . S
C583 C591 1.433 . S
C584 H580 0.929 . S
C584 C586 1.378 . S
C584 C588 1.350 . S
C585 C588 1.463 . S
C585 C590 1.350 . S
C585 N593 1.427 . S
C586 H577 0.930 . S
C586 C584 1.378 . S
C586 C587 1.367 . S
C587 C586 1.367 . S
C587 C589 1.433 . S
C588 C584 1.350 . S
C588 C585 1.463 . S
C588 N592 1.427 . S
C589 H579 0.929 . S
C589 C587 1.433 . S
C589 N592 1.384 . S
C590 H581 0.929 . S
C590 C582 1.378 . S
C590 C585 1.350 . S
C591 H578 0.929 . S
C591 C583 1.433 . S
C591 N593 1.384 . S
N592 C588 1.427 . S
N592 C589 1.384 . S
N593 C585 1.427 . S
N593 C591 1.384 . S
H594 C600 0.930 . S
H595 C604 0.930 . S
H596 C609 0.929 . S
H597 C607 0.929 . S
H598 C602 0.929 . S
H599 C608 0.929 . S
C600 H594 0.930 . S
C600 C601 1.367 . S
C600 C608 1.378 . S
C601 C600 1.367 . S
C601 C609 1.433 . S
C602 H598 0.929 . S
C602 C604 1.378 . S
C602 C606 1.350 . S
C603 C606 1.463 . S
C603 C608 1.350 . S
C603 N611 1.427 . S
C604 H595 0.930 . S
C604 C602 1.378 . S
C604 C605 1.367 . S
C605 C604 1.367 . S
C605 C607 1.433 . S
C606 C602 1.350 . S
C606 C603 1.463 . S
C606 N610 1.427 . S
C607 H597 0.929 . S
C607 C605 1.433 . S
C607 N610 1.384 . S
C608 H599 0.929 . S
C608 C600 1.378 . S
C608 C603 1.350 . S
C609 H596 0.929 . S
C609 C601 1.433 . S
C609 N611 1.384 . S
N610 C606 1.427 . S
N610 C607 1.384 . S
N611 C603 1.427 . S
N611 C609 1.384 . S
H612 C618 0.930 . S
H613 C622 0.930 . S
H614 C627 0.929 . S
H615 C625 0.929 . S
H616 C620 0.929 . S
H617 C626 0.929 . S
C618 H612 0.930 . S
C618 C619 1.367 . S
C618 C626 1.378 . S
C619 C618 1.367 . S
C619 C627 1.433 . S
C620 H616 0.929 . S
C620 C622 1.378 . S
C620 C624 1.350 . S
C621 C624 1.463 . S
C621 C626 1.350 . S
C621 N629 1.427 . S
C622 H613 0.930 . S
C622 C620 1.378 . S
C622 C623 1.367 . S
C623 C622 1.367 . S
C623 C625 1.433 . S
C624 C620 1.350 . S
C624 C621 1.463 . S
C624 N628 1.427 . S
C625 H615 0.929 . S
C625 C623 1.433 . S
C625 N628 1.384 . S
C626 H617 0.929 . S
C626 C618 1.378 . S
C626 C621 1.350 . S
C627 H614 0.929 . S
C627 C619 1.433 . S
C627 N629 1.384 . S
N628 C624 1.427 . S
N628 C625 1.384 . S
N629 C621 1.427 . S
N629 C627 1.384 . S
H630 C636 0.930 . S
H631 C640 0.930 . S
H632 C645 0.929 . S
H633 C643 0.929 . S
H634 C638 0.929 . S
H635 C644 0.929 . S
C636 H630 0.930 . S
C636 C637 1.367 . S
C636 C644 1.378 . S
C637 C636 1.367 . S
C637 C645 1.433 . S
C638 H634 0.929 . S
C638 C640 1.378 . S
C638 C642 1.350 . S
C639 C642 1.463 . S
C639 C644 1.350 . S
C639 N647 1.427 . S
C640 H631 0.930 . S
C640 C638 1.378 . S
C640 C641 1.367 . S
C641 C640 1.367 . S
C641 C643 1.433 . S
C642 C638 1.350 . S
C642 C639 1.463 . S
C642 N646 1.427 . S
C643 H633 0.929 . S
C643 C641 1.433 . S
C643 N646 1.384 . S
C644 H635 0.929 . S
C644 C636 1.378 . S
C644 C639 1.350 . S
C645 H632 0.929 . S
C645 C637 1.433 . S
C645 N647 1.384 . S
N646 C642 1.427 . S
N646 C643 1.384 . S
N647 C639 1.427 . S
N647 C645 1.384 . S
H648 C654 0.930 . S
H649 C658 0.930 . S
H650 C663 0.929 . S
H651 C661 0.929 . S
H652 C656 0.929 . S
H653 C662 0.929 . S
C654 H648 0.930 . S
C654 C655 1.367 . S
C654 C662 1.378 . S
C655 C654 1.367 . S
C655 C663 1.433 . S
C656 H652 0.929 . S
C656 C658 1.378 . S
C656 C660 1.350 . S
C657 C660 1.463 . S
C657 C662 1.350 . S
C657 N665 1.427 . S
C658 H649 0.930 . S
C658 C656 1.378 . S
C658 C659 1.367 . S
C659 C658 1.367 . S
C659 C661 1.433 . S
C660 C656 1.350 . S
C660 C657 1.463 . S
C660 N664 1.427 . S
C661 H651 0.929 . S
C661 C659 1.433 . S
C661 N664 1.384 . S
C662 H653 0.929 . S
C662 C654 1.378 . S
C662 C657 1.350 . S
C663 H650 0.929 . S
C663 C655 1.433 . S
C663 N665 1.384 . S
N664 C660 1.427 . S
N664 C661 1.384 . S
N665 C657 1.427 . S
N665 C663 1.384 . S
H666 C672 0.930 . S
H667 C676 0.930 . S
H668 C681 0.929 . S
H669 C679 0.929 . S
H670 C674 0.929 . S
H671 C680 0.929 . S
C672 H666 0.930 . S
C672 C673 1.367 . S
C672 C680 1.378 . S
C673 C672 1.367 . S
C673 C681 1.433 . S
C674 H670 0.929 . S
C674 C676 1.378 . S
C674 C678 1.350 . S
C675 C678 1.463 . S
C675 C680 1.350 . S
C675 N683 1.427 . S
C676 H667 0.930 . S
C676 C674 1.378 . S
C676 C677 1.367 . S
C677 C676 1.367 . S
C677 C679 1.433 . S
C678 C674 1.350 . S
C678 C675 1.463 . S
C678 N682 1.427 . S
C679 H669 0.929 . S
C679 C677 1.433 . S
C679 N682 1.384 . S
C680 H671 0.929 . S
C680 C672 1.378 . S
C680 C675 1.350 . S
C681 H668 0.929 . S
C681 C673 1.433 . S
C681 N683 1.384 . S
N682 C678 1.427 . S
N682 C679 1.384 . S
N683 C675 1.427 . S
N683 C681 1.384 . S
H684 C690 0.930 . S
H685 C694 0.930 . S
H686 C699 0.929 . S
H687 C697 0.929 . S
H688 C692 0.929 . S
H689 C698 0.929 . S
C690 H684 0.930 . S
C690 C691 1.367 . S
C690 C698 1.378 . S
C691 C690 1.367 . S
C691 C699 1.433 . S
C692 H688 0.929 . S
C692 C694 1.378 . S
C692 C696 1.350 . S
C693 C696 1.463 . S
C693 C698 1.350 . S
C693 N701 1.427 . S
C694 H685 0.930 . S
C694 C692 1.378 . S
C694 C695 1.367 . S
C695 C694 1.367 . S
C695 C697 1.433 . S
C696 C692 1.350 . S
C696 C693 1.463 . S
C696 N700 1.427 . S
C697 H687 0.929 . S
C697 C695 1.433 . S
C697 N700 1.384 . S
C698 H689 0.929 . S
C698 C690 1.378 . S
C698 C693 1.350 . S
C699 H686 0.929 . S
C699 C691 1.433 . S
C699 N701 1.384 . S
N700 C696 1.427 . S
N700 C697 1.384 . S
N701 C693 1.427 . S
N701 C699 1.384 . S
H702 C708 0.930 . S
H703 C712 0.930 . S
H704 C717 0.929 . S
H705 C715 0.929 . S
H706 C710 0.929 . S
H707 C716 0.929 . S
C708 H702 0.930 . S
C708 C709 1.367 . S
C708 C716 1.378 . S
C709 C708 1.367 . S
C709 C717 1.433 . S
C710 H706 0.929 . S
C710 C712 1.378 . S
C710 C714 1.350 . S
C711 C714 1.463 . S
C711 C716 1.350 . S
C711 N719 1.427 . S
C712 H703 0.930 . S
C712 C710 1.378 . S
C712 C713 1.367 . S
C713 C712 1.367 . S
C713 C715 1.433 . S
C714 C710 1.350 . S
C714 C711 1.463 . S
C714 N718 1.427 . S
C715 H705 0.929 . S
C715 C713 1.433 . S
C715 N718 1.384 . S
C716 H707 0.929 . S
C716 C708 1.378 . S
C716 C711 1.350 . S
C717 H704 0.929 . S
C717 C709 1.433 . S
C717 N719 1.384 . S
N718 C714 1.427 . S
N718 C715 1.384 . S
N719 C711 1.427 . S
N719 C717 1.384 . S
H720 C726 0.930 . S
H721 C730 0.930 . S
H722 C735 0.929 . S
H723 C733 0.929 . S
H724 C728 0.929 . S
H725 C734 0.929 . S
C726 H720 0.930 . S
C726 C727 1.367 . S
C726 C734 1.378 . S
C727 C726 1.367 . S
C727 C735 1.433 . S
C728 H724 0.929 . S
C728 C730 1.378 . S
C728 C732 1.350 . S
C729 C732 1.463 . S
C729 C734 1.350 . S
C729 N737 1.427 . S
C730 H721 0.930 . S
C730 C728 1.378 . S
C730 C731 1.367 . S
C731 C730 1.367 . S
C731 C733 1.433 . S
C732 C728 1.350 . S
C732 C729 1.463 . S
C732 N736 1.427 . S
C733 H723 0.929 . S
C733 C731 1.433 . S
C733 N736 1.384 . S
C734 H725 0.929 . S
C734 C726 1.378 . S
C734 C729 1.350 . S
C735 H722 0.929 . S
C735 C727 1.433 . S
C735 N737 1.384 . S
N736 C732 1.427 . S
N736 C733 1.384 . S
N737 C729 1.427 . S
N737 C735 1.384 . S
H738 C744 0.930 . S
H739 C748 0.930 . S
H740 C753 0.929 . S
H741 C751 0.929 . S
H742 C746 0.929 . S
H743 C752 0.929 . S
C744 H738 0.930 . S
C744 C745 1.367 . S
C744 C752 1.378 . S
C745 C744 1.367 . S
C745 C753 1.433 . S
C746 H742 0.929 . S
C746 C748 1.378 . S
C746 C750 1.350 . S
C747 C750 1.463 . S
C747 C752 1.350 . S
C747 N755 1.427 . S
C748 H739 0.930 . S
C748 C746 1.378 . S
C748 C749 1.367 . S
C749 C748 1.367 . S
C749 C751 1.433 . S
C750 C746 1.350 . S
C750 C747 1.463 . S
C750 N754 1.427 . S
C751 H741 0.929 . S
C751 C749 1.433 . S
C751 N754 1.384 . S
C752 H743 0.929 . S
C752 C744 1.378 . S
C752 C747 1.350 . S
C753 H740 0.929 . S
C753 C745 1.433 . S
C753 N755 1.384 . S
N754 C750 1.427 . S
N754 C751 1.384 . S
N755 C747 1.427 . S
N755 C753 1.384 . S
H756 C762 0.930 . S
H757 C766 0.930 . S
H758 C771 0.929 . S
H759 C769 0.929 . S
H760 C764 0.929 . S
H761 C770 0.929 . S
C762 H756 0.930 . S
C762 C763 1.367 . S
C762 C770 1.378 . S
C763 C762 1.367 . S
C763 C771 1.433 . S
C764 H760 0.929 . S
C764 C766 1.378 . S
C764 C768 1.350 . S
C765 C768 1.463 . S
C765 C770 1.350 . S
C765 N773 1.427 . S
C766 H757 0.930 . S
C766 C764 1.378 . S
C766 C767 1.367 . S
C767 C766 1.367 . S
C767 C769 1.433 . S
C768 C764 1.350 . S
C768 C765 1.463 . S
C768 N772 1.427 . S
C769 H759 0.929 . S
C769 C767 1.433 . S
C769 N772 1.384 . S
C770 H761 0.929 . S
C770 C762 1.378 . S
C770 C765 1.350 . S
C771 H758 0.929 . S
C771 C763 1.433 . S
C771 N773 1.384 . S
N772 C768 1.427 . S
N772 C769 1.384 . S
N773 C765 1.427 . S
N773 C771 1.384 . S
H774 C780 0.930 . S
H775 C784 0.930 . S
H776 C789 0.929 . S
H777 C787 0.929 . S
H778 C782 0.929 . S
H779 C788 0.929 . S
C780 H774 0.930 . S
C780 C781 1.367 . S
C780 C788 1.378 . S
C781 C780 1.367 . S
C781 C789 1.433 . S
C782 H778 0.929 . S
C782 C784 1.378 . S
C782 C786 1.350 . S
C783 C786 1.463 . S
C783 C788 1.350 . S
C783 N791 1.427 . S
C784 H775 0.930 . S
C784 C782 1.378 . S
C784 C785 1.367 . S
C785 C784 1.367 . S
C785 C787 1.433 . S
C786 C782 1.350 . S
C786 C783 1.463 . S
C786 N790 1.427 . S
C787 H777 0.929 . S
C787 C785 1.433 . S
C787 N790 1.384 . S
C788 H779 0.929 . S
C788 C780 1.378 . S
C788 C783 1.350 . S
C789 H776 0.929 . S
C789 C781 1.433 . S
C789 N791 1.384 . S
N790 C786 1.427 . S
N790 C787 1.384 . S
N791 C783 1.427 . S
N791 C789 1.384 . S
H792 C798 0.930 . S
H793 C802 0.930 . S
H794 C807 0.929 . S
H795 C805 0.929 . S
H796 C800 0.929 . S
H797 C806 0.929 . S
C798 H792 0.930 . S
C798 C799 1.367 . S
C798 C806 1.378 . S
C799 C798 1.367 . S
C799 C807 1.433 . S
C800 H796 0.929 . S
C800 C802 1.378 . S
C800 C804 1.350 . S
C801 C804 1.463 . S
C801 C806 1.350 . S
C801 N809 1.427 . S
C802 H793 0.930 . S
C802 C800 1.378 . S
C802 C803 1.367 . S
C803 C802 1.367 . S
C803 C805 1.433 . S
C804 C800 1.350 . S
C804 C801 1.463 . S
C804 N808 1.427 . S
C805 H795 0.929 . S
C805 C803 1.433 . S
C805 N808 1.384 . S
C806 H797 0.929 . S
C806 C798 1.378 . S
C806 C801 1.350 . S
C807 H794 0.929 . S
C807 C799 1.433 . S
C807 N809 1.384 . S
N808 C804 1.427 . S
N808 C805 1.384 . S
N809 C801 1.427 . S
N809 C807 1.384 . S
H810 C816 0.930 . S
H811 C820 0.930 . S
H812 C825 0.929 . S
H813 C823 0.929 . S
H814 C818 0.929 . S
H815 C824 0.929 . S
C816 H810 0.930 . S
C816 C817 1.367 . S
C816 C824 1.378 . S
C817 C816 1.367 . S
C817 C825 1.433 . S
C818 H814 0.929 . S
C818 C820 1.378 . S
C818 C822 1.350 . S
C819 C822 1.463 1_545 S
C819 C824 1.350 . S
C819 N827 1.427 . S
C820 H811 0.930 . S
C820 C818 1.378 . S
C820 C821 1.367 . S
C821 C820 1.367 . S
C821 C823 1.433 . S
C822 C818 1.350 . S
C822 C819 1.463 1_565 S
C822 N826 1.427 . S
C823 H813 0.929 . S
C823 C821 1.433 . S
C823 N826 1.384 . S
C824 H815 0.929 . S
C824 C816 1.378 . S
C824 C819 1.350 . S
C825 H812 0.929 . S
C825 C817 1.433 . S
C825 N827 1.384 . S
N826 C822 1.427 . S
N826 C823 1.384 . S
N827 C819 1.427 . S
N827 C825 1.384 . S
H828 C834 0.930 . S
H829 C838 0.930 . S
H830 C843 0.929 . S
H831 C841 0.929 . S
H832 C836 0.929 . S
H833 C842 0.929 . S
C834 H828 0.930 . S
C834 C835 1.367 . S
C834 C842 1.378 . S
C835 C834 1.367 . S
C835 C843 1.433 . S
C836 H832 0.929 . S
C836 C838 1.378 . S
C836 C840 1.350 . S
C837 C840 1.463 . S
C837 C842 1.350 . S
C837 N845 1.427 . S
C838 H829 0.930 . S
C838 C836 1.378 . S
C838 C839 1.367 1_455 S
C839 C838 1.367 1_655 S
C839 C841 1.433 . S
C840 C836 1.350 . S
C840 C837 1.463 . S
C840 N844 1.427 1_455 S
C841 H831 0.929 . S
C841 C839 1.433 . S
C841 N844 1.384 . S
C842 H833 0.929 . S
C842 C834 1.378 . S
C842 C837 1.350 . S
C843 H830 0.929 . S
C843 C835 1.433 . S
C843 N845 1.384 . S
N844 C840 1.427 1_655 S
N844 C841 1.384 . S
N845 C837 1.427 . S
N845 C843 1.384 . S
H846 C852 0.930 . S
H847 C856 0.930 . S
H848 C861 0.929 . S
H849 C859 0.929 . S
H850 C854 0.929 . S
H851 C860 0.929 . S
C852 H846 0.930 . S
C852 C853 1.367 . S
C852 C860 1.378 . S
C853 C852 1.367 . S
C853 C861 1.433 . S
C854 H850 0.929 . S
C854 C856 1.378 . S
C854 C858 1.350 . S
C855 C858 1.463 . S
C855 C860 1.350 . S
C855 N863 1.427 . S
C856 H847 0.930 . S
C856 C854 1.378 . S
C856 C857 1.367 1_556 S
C857 C856 1.367 1_554 S
C857 C859 1.433 . S
C858 C854 1.350 . S
C858 C855 1.463 . S
C858 N862 1.427 1_556 S
C859 H849 0.929 . S
C859 C857 1.433 . S
C859 N862 1.384 . S
C860 H851 0.929 . S
C860 C852 1.378 . S
C860 C855 1.350 . S
C861 H848 0.929 . S
C861 C853 1.433 . S
C861 N863 1.384 . S
N862 C858 1.427 1_554 S
N862 C859 1.384 . S
N863 C855 1.427 . S
N863 C861 1.384 . S
H864 C870 0.930 . S
H865 C874 0.930 . S
H866 C879 0.929 . S
H867 C877 0.929 . S
H868 C872 0.929 . S
H869 C878 0.929 . S
C870 H864 0.930 . S
C870 C871 1.367 . S
C870 C878 1.378 1_565 S
C871 C870 1.367 . S
C871 C879 1.433 1_556 S
C872 H868 0.929 . S
C872 C874 1.378 . S
C872 C876 1.350 . S
C873 C876 1.463 . S
C873 C878 1.350 1_554 S
C873 N881 1.427 1_545 S
C874 H865 0.930 . S
C874 C872 1.378 . S
C874 C875 1.367 . S
C875 C874 1.367 . S
C875 C877 1.433 . S
C876 C872 1.350 . S
C876 C873 1.463 . S
C876 N880 1.427 . S
C877 H867 0.929 . S
C877 C875 1.433 . S
C877 N880 1.384 . S
C878 H869 0.929 . S
C878 C870 1.378 1_545 S
C878 C873 1.350 1_556 S
C879 H866 0.929 . S
C879 C871 1.433 1_554 S
C879 N881 1.384 . S
N880 C876 1.427 . S
N880 C877 1.384 . S
N881 C873 1.427 1_565 S
N881 C879 1.384 . S
H882 C888 0.930 . S
H883 C892 0.930 . S
H884 C897 0.929 . S
H885 C895 0.929 . S
H886 C890 0.929 1_655 S
H887 C896 0.929 . S
C888 H882 0.930 . S
C888 C889 1.367 . S
C888 C896 1.378 1_556 S
C889 C888 1.367 . S
C889 C897 1.433 . S
C890 H886 0.929 1_455 S
C890 C892 1.378 1_455 S
C890 C894 1.350 . S
C891 C894 1.463 . S
C891 C896 1.350 . S
C891 N899 1.427 1_554 S
C892 H883 0.930 . S
C892 C890 1.378 1_655 S
C892 C893 1.367 . S
C893 C892 1.367 . S
C893 C895 1.433 1_655 S
C894 C890 1.350 . S
C894 C891 1.463 . S
C894 N898 1.427 . S
C895 H885 0.929 . S
C895 C893 1.433 1_455 S
C895 N898 1.384 . S
C896 H887 0.929 . S
C896 C888 1.378 1_554 S
C896 C891 1.350 . S
C897 H884 0.929 . S
C897 C889 1.433 . S
C897 N899 1.384 . S
N898 C894 1.427 . S
N898 C895 1.384 . S
N899 C891 1.427 1_556 S
N899 C897 1.384 . S
C259 C9 1.466 . S
C263 C205 1.464 1_554 S
C277 C174 1.241 1_554 S
C281 C20 1.234 . S
C295 C34 1.076 1_565 S
C299 C191 1.088 . S
C313 C93 1.605 . S
C317 C37 1.606 . S
C331 C107 1.510 . S
C335 C6 1.514 1_655 S
C349 C121 1.458 . S
C353 C23 1.453 . S
C367 C48 1.397 1_655 S
C371 C163 1.425 . S
C385 C135 1.541 1_556 S
C389 C65 1.542 . S
C403 C146 1.120 . S
C407 C76 1.137 . S
C421 C79 1.474 . S
C425 C216 1.463 . S
C439 C51 1.226 . S
C443 C233 1.233 . S
C457 C244 1.029 . S
C461 C62 1.001 . S
C475 C177 1.177 . S
C479 C118 1.149 . S
C493 C90 1.121 . S
C497 C188 1.127 . S
C511 C202 0.745 . S
C515 C104 0.749 . S
C529 C247 1.184 . S
C533 C132 1.180 . S
C547 C149 1.311 . S
C551 C219 1.318 . S
C565 C230 0.960 . S
C569 C160 0.964 . S
C583 C217 1.918 . S
C587 C8 1.652 . S
C601 C21 1.747 . S
C605 C232 1.554 . S
C619 C35 1.626 . S
C623 C245 1.633 . S
C637 C36 1.562 . S
C641 C162 1.558 . S
C655 C134 1.660 . S
C659 C7 1.895 . S
C673 C22 1.587 . S
C677 C147 1.813 . S
C691 C92 1.574 . S
C695 C49 1.811 . S
C709 C106 1.659 . S
C713 C64 1.641 . S
C727 C77 1.822 . S
C731 C120 1.597 . S
C745 C78 1.670 . S
C749 C204 1.685 . S
C763 C50 1.490 . S
C767 C175 1.690 . S
C781 C63 1.907 . S
C785 C190 1.709 . S
C799 C119 1.741 . S
C803 C246 1.553 . S
C817 C91 1.844 . S
C821 C218 1.613 . S
C835 C231 1.752 . S
C839 C105 1.757 . S
C853 C176 1.602 . S
C857 C133 1.779 . S
C871 C189 1.801 . S
C875 C148 1.586 . S
C889 C203 1.765 . S
C893 C161 1.765 . S
