# Generated by pormake.
# Topology xfz, (5)-cn, num edge types: 1
# Building blocks:
#     Node 0, Type 0, BuildingBlock: BEQFEK_clean_sbu_0, # of connection points: 5
#     Node 1, Type 0, BuildingBlock: BEQFEK_clean_sbu_0, # of connection points: 5
#     Node 2, Type 0, BuildingBlock: BEQFEK_clean_sbu_0, # of connection points: 5
#     Node 3, Type 0, BuildingBlock: BEQFEK_clean_sbu_0, # of connection points: 5
#     Node 4, Type 0, BuildingBlock: BEQFEK_clean_sbu_0, # of connection points: 5
#     Node 5, Type 0, BuildingBlock: BEQFEK_clean_sbu_0, # of connection points: 5
#     Node 6, Type 0, BuildingBlock: BEQFEK_clean_sbu_0, # of connection points: 5
#     Node 7, Type 0, BuildingBlock: BEQFEK_clean_sbu_0, # of connection points: 5
#     Node 8, Type 0, BuildingBlock: BEQFEK_clean_sbu_0, # of connection points: 5
#     Node 9, Type 0, BuildingBlock: BEQFEK_clean_sbu_0, # of connection points: 5
#     Node 10, Type 0, BuildingBlock: BEQFEK_clean_sbu_0, # of connection points: 5
#     Node 11, Type 0, BuildingBlock: BEQFEK_clean_sbu_0, # of connection points: 5
#     Node 12, Type 0, BuildingBlock: BEQFEK_clean_sbu_0, # of connection points: 5
#     Node 13, Type 0, BuildingBlock: BEQFEK_clean_sbu_0, # of connection points: 5
#     Node 14, Type 0, BuildingBlock: BEQFEK_clean_sbu_0, # of connection points: 5
#     Node 15, Type 0, BuildingBlock: BEQFEK_clean_sbu_0, # of connection points: 5
#     Edge 16, Type (0, 0), BuildingBlock: MIFKUJ_clean_linker_0, # of connection points: 2
#     Edge 17, Type (0, 0), BuildingBlock: MIFKUJ_clean_linker_0, # of connection points: 2
#     Edge 18, Type (0, 0), BuildingBlock: MIFKUJ_clean_linker_0, # of connection points: 2
#     Edge 19, Type (0, 0), BuildingBlock: MIFKUJ_clean_linker_0, # of connection points: 2
#     Edge 20, Type (0, 0), BuildingBlock: MIFKUJ_clean_linker_0, # of connection points: 2
#     Edge 21, Type (0, 0), BuildingBlock: MIFKUJ_clean_linker_0, # of connection points: 2
#     Edge 22, Type (0, 0), BuildingBlock: MIFKUJ_clean_linker_0, # of connection points: 2
#     Edge 23, Type (0, 0), BuildingBlock: MIFKUJ_clean_linker_0, # of connection points: 2
#     Edge 24, Type (0, 0), BuildingBlock: MIFKUJ_clean_linker_0, # of connection points: 2
#     Edge 25, Type (0, 0), BuildingBlock: MIFKUJ_clean_linker_0, # of connection points: 2
#     Edge 26, Type (0, 0), BuildingBlock: MIFKUJ_clean_linker_0, # of connection points: 2
#     Edge 27, Type (0, 0), BuildingBlock: MIFKUJ_clean_linker_0, # of connection points: 2
#     Edge 28, Type (0, 0), BuildingBlock: MIFKUJ_clean_linker_0, # of connection points: 2
#     Edge 29, Type (0, 0), BuildingBlock: MIFKUJ_clean_linker_0, # of connection points: 2
#     Edge 30, Type (0, 0), BuildingBlock: MIFKUJ_clean_linker_0, # of connection points: 2
#     Edge 31, Type (0, 0), BuildingBlock: MIFKUJ_clean_linker_0, # of connection points: 2
#     Edge 32, Type (0, 0), BuildingBlock: MIFKUJ_clean_linker_0, # of connection points: 2
#     Edge 33, Type (0, 0), BuildingBlock: MIFKUJ_clean_linker_0, # of connection points: 2
#     Edge 34, Type (0, 0), BuildingBlock: MIFKUJ_clean_linker_0, # of connection points: 2
#     Edge 35, Type (0, 0), BuildingBlock: MIFKUJ_clean_linker_0, # of connection points: 2
#     Edge 36, Type (0, 0), BuildingBlock: MIFKUJ_clean_linker_0, # of connection points: 2
#     Edge 37, Type (0, 0), BuildingBlock: MIFKUJ_clean_linker_0, # of connection points: 2
#     Edge 38, Type (0, 0), BuildingBlock: MIFKUJ_clean_linker_0, # of connection points: 2
#     Edge 39, Type (0, 0), BuildingBlock: MIFKUJ_clean_linker_0, # of connection points: 2
#     Edge 40, Type (0, 0), BuildingBlock: MIFKUJ_clean_linker_0, # of connection points: 2
#     Edge 41, Type (0, 0), BuildingBlock: MIFKUJ_clean_linker_0, # of connection points: 2
#     Edge 42, Type (0, 0), BuildingBlock: MIFKUJ_clean_linker_0, # of connection points: 2
#     Edge 43, Type (0, 0), BuildingBlock: MIFKUJ_clean_linker_0, # of connection points: 2
#     Edge 44, Type (0, 0), BuildingBlock: MIFKUJ_clean_linker_0, # of connection points: 2
#     Edge 45, Type (0, 0), BuildingBlock: MIFKUJ_clean_linker_0, # of connection points: 2
#     Edge 46, Type (0, 0), BuildingBlock: MIFKUJ_clean_linker_0, # of connection points: 2
#     Edge 47, Type (0, 0), BuildingBlock: MIFKUJ_clean_linker_0, # of connection points: 2
#     Edge 48, Type (0, 0), BuildingBlock: MIFKUJ_clean_linker_0, # of connection points: 2
#     Edge 49, Type (0, 0), BuildingBlock: MIFKUJ_clean_linker_0, # of connection points: 2
#     Edge 50, Type (0, 0), BuildingBlock: MIFKUJ_clean_linker_0, # of connection points: 2
#     Edge 51, Type (0, 0), BuildingBlock: MIFKUJ_clean_linker_0, # of connection points: 2
#     Edge 52, Type (0, 0), BuildingBlock: MIFKUJ_clean_linker_0, # of connection points: 2
#     Edge 53, Type (0, 0), BuildingBlock: MIFKUJ_clean_linker_0, # of connection points: 2
#     Edge 54, Type (0, 0), BuildingBlock: MIFKUJ_clean_linker_0, # of connection points: 2
#     Edge 55, Type (0, 0), BuildingBlock: MIFKUJ_clean_linker_0, # of connection points: 2
# Relax obj value: 0.367
# Max RMSD: 0.176
# Mean RMSD: 0.176
data_MOF--net-xfz--node1-BEQFEK_clean_sbu_0--edge1-MIFKUJ_clean_linker_0
_symmetry_space_group_name_H-M    P1
_symmetry_Int_Tables_number       1
_symmetry_cell_setting            triclinic
loop_
_symmetry_equiv_pos_as_xyz
'x, y, z'
_cell_length_a     58.731937
_cell_length_b     58.728488
_cell_length_c     65.329829
_cell_angle_alpha  90.053164
_cell_angle_beta   90.06766
_cell_angle_gamma 89.937008
loop_
_atom_site_label
_atom_site_type_symbol
_atom_site_fract_x
_atom_site_fract_y
_atom_site_fract_z
_atom_type_partial_charge
Co0 Co 0.14905 0.479 0.36106 0.0
Co1 Co 0.19514 0.4603 0.34441 0.0
C2 C 0.15128 0.43582 0.33613 0.0
O3 O 0.14042 0.4508 0.3463 0.0
O4 O 0.17286 0.43692 0.33424 0.0
C5 C 0.10862 0.47665 0.38485 0.0
O6 O 0.11291 0.45469 0.3849 0.0
C7 C 0.23351 0.42839 0.34025 0.0
C8 C 0.26151 0.45131 0.33116 0.0
C9 C 0.25664 0.42873 0.33558 0.0
N10 N 0.22528 0.44971 0.33863 0.0
N11 N 0.24207 0.46329 0.33305 0.0
C12 C 0.21973 0.40874 0.34788 0.0
H13 H 0.20489 0.41494 0.35682 0.0
H14 H 0.23028 0.39734 0.35756 0.0
H15 H 0.21325 0.39887 0.33461 0.0
C16 C 0.17399 0.47885 0.40007 0.0
N17 N 0.17277 0.4744 0.3799 0.0
N18 N 0.19229 0.46604 0.37352 0.0
C19 C 0.20653 0.46447 0.38983 0.0
C20 C 0.19523 0.47234 0.40727 0.0
C21 C 0.15598 0.49135 0.41183 0.0
H22 H 0.14834 0.50484 0.40217 0.0
H23 H 0.14246 0.47921 0.4164 0.0
H24 H 0.16302 0.49945 0.42581 0.0
O25 O 0.15756 0.50234 0.34114 0.0
O26 O 0.1896 0.48886 0.32764 0.0
H27 H 0.24036 0.46537 0.37781 0.0
H28 H 0.23867 0.45524 0.40395 0.0
C29 C 0.23021 0.45517 0.38878 0.0
H30 H 0.22963 0.43742 0.38307 0.0
H31 H 0.24035 0.48081 0.33092 0.0
O32 O 0.12186 0.49004 0.37537 0.0
C33 C 0.17388 0.5039 0.32846 0.0
Co34 Co 0.47094 0.85062 0.6623 0.0
Co35 Co 0.4612 0.80217 0.6797 0.0
C36 C 0.4304 0.8422 0.68861 0.0
O37 O 0.44225 0.85522 0.67738 0.0
O38 O 0.4358 0.82138 0.69115 0.0
C39 C 0.46062 0.89105 0.64084 0.0
O40 O 0.4396 0.88403 0.64349 0.0
C41 C 0.43259 0.76202 0.6828 0.0
C42 C 0.45601 0.73545 0.69415 0.0
C43 C 0.43359 0.73919 0.68829 0.0
N44 N 0.4533 0.77128 0.68543 0.0
N45 N 0.46725 0.75535 0.69229 0.0
C46 C 0.41294 0.77462 0.67357 0.0
H47 H 0.41915 0.78895 0.66404 0.0
H48 H 0.40232 0.76306 0.66409 0.0
H49 H 0.40226 0.78177 0.68602 0.0
C50 C 0.47242 0.82565 0.62322 0.0
N51 N 0.46896 0.82641 0.64358 0.0
N52 N 0.46542 0.8057 0.65054 0.0
C53 C 0.46685 0.79099 0.6346 0.0
C54 C 0.47111 0.80325 0.61678 0.0
C55 C 0.47844 0.84586 0.61037 0.0
H56 H 0.4928 0.85519 0.61753 0.0
H57 H 0.46358 0.85748 0.60958 0.0
H58 H 0.4833 0.84085 0.59459 0.0
O59 O 0.49609 0.84542 0.68213 0.0
O60 O 0.48951 0.81102 0.69512 0.0
H61 H 0.47586 0.75961 0.64915 0.0
H62 H 0.46992 0.75706 0.622 0.0
C63 C 0.46492 0.7657 0.63643 0.0
H64 H 0.44706 0.76117 0.64006 0.0
H65 H 0.48445 0.758 0.69548 0.0
O66 O 0.47703 0.87914 0.64763 0.0
C67 C 0.50133 0.82925 0.69428 0.0
Co68 Co 0.84948 0.52801 0.36161 0.0
Co69 Co 0.80265 0.54023 0.34173 0.0
C70 C 0.84505 0.56796 0.3337 0.0
O71 O 0.8566 0.55571 0.34589 0.0
O72 O 0.82404 0.56391 0.3305 0.0
C73 C 0.88629 0.53824 0.38715 0.0
O74 O 0.87692 0.55854 0.38618 0.0
C75 C 0.76277 0.57007 0.33843 0.0
C76 C 0.73774 0.54846 0.32236 0.0
C77 C 0.74054 0.56987 0.33102 0.0
N78 N 0.77241 0.5497 0.33456 0.0
N79 N 0.75735 0.53688 0.32492 0.0
C80 C 0.77516 0.58957 0.34816 0.0
H81 H 0.7938 0.58706 0.34736 0.0
H82 H 0.77047 0.59072 0.36456 0.0
H83 H 0.77046 0.60584 0.34062 0.0
C84 C 0.82213 0.52802 0.39934 0.0
N85 N 0.82438 0.53172 0.3791 0.0
N86 N 0.80433 0.5364 0.37112 0.0
C87 C 0.78859 0.53557 0.38628 0.0
C88 C 0.79952 0.53059 0.40463 0.0
C89 C 0.84084 0.51996 0.41316 0.0
H90 H 0.85107 0.50668 0.40536 0.0
H91 H 0.85206 0.53451 0.41703 0.0
H92 H 0.834 0.51282 0.4276 0.0
O93 O 0.84397 0.50256 0.34228 0.0
O94 O 0.81089 0.51101 0.3273 0.0
H95 H 0.75829 0.52853 0.36906 0.0
H96 H 0.75393 0.53085 0.39645 0.0
C97 C 0.76345 0.53772 0.38315 0.0
H98 H 0.75896 0.55593 0.38135 0.0
H99 H 0.76046 0.5202 0.3201 0.0
O100 O 0.87702 0.52174 0.3777 0.0
C101 C 0.82827 0.49807 0.32939 0.0
Co102 Co 0.52836 0.14968 0.65831 0.0
Co103 Co 0.54225 0.19576 0.67831 0.0
C104 C 0.56859 0.1521 0.68608 0.0
O105 O 0.5556 0.14098 0.67413 0.0
O106 O 0.56566 0.17341 0.68889 0.0
C107 C 0.53289 0.11046 0.63252 0.0
O108 O 0.55488 0.11435 0.63373 0.0
C109 C 0.5724 0.2354 0.68178 0.0
C110 C 0.55127 0.25991 0.69901 0.0
C111 C 0.57237 0.25735 0.68978 0.0
N112 N 0.55219 0.22564 0.68588 0.0
N113 N 0.53965 0.24039 0.69621 0.0
C114 C 0.59169 0.22332 0.67144 0.0
H115 H 0.5892 0.20464 0.6719 0.0
H116 H 0.59251 0.22852 0.65515 0.0
H117 H 0.60811 0.22786 0.67882 0.0
C118 C 0.52994 0.17696 0.62057 0.0
N119 N 0.53318 0.17467 0.64088 0.0
N120 N 0.53798 0.19463 0.64896 0.0
C121 C 0.53745 0.21042 0.63381 0.0
C122 C 0.53274 0.19957 0.61534 0.0
C123 C 0.52213 0.15827 0.60662 0.0
H124 H 0.50721 0.14955 0.6134 0.0
H125 H 0.53609 0.14575 0.6047 0.0
H126 H 0.51726 0.16477 0.59129 0.0
O127 O 0.50328 0.1561 0.67765 0.0
O128 O 0.51309 0.1884 0.69313 0.0
H129 H 0.53146 0.24067 0.65147 0.0
H130 H 0.53244 0.24518 0.62403 0.0
C131 C 0.53989 0.23552 0.63701 0.0
H132 H 0.5582 0.23986 0.63809 0.0
H133 H 0.52314 0.23712 0.70134 0.0
O134 O 0.51908 0.12328 0.64205 0.0
C135 C 0.49947 0.17164 0.69083 0.0
Co136 Co 0.14844 0.52782 0.66192 0.0
Co137 Co 0.19592 0.5393 0.68055 0.0
C138 C 0.15449 0.56883 0.68835 0.0
O139 O 0.14216 0.55637 0.67689 0.0
O140 O 0.17552 0.56428 0.69108 0.0
C141 C 0.10787 0.53453 0.63834 0.0
O142 O 0.1116 0.5563 0.64151 0.0
C143 C 0.23582 0.56839 0.68518 0.0
C144 C 0.2622 0.5446 0.69629 0.0
C145 C 0.25863 0.56714 0.69079 0.0
N146 N 0.22645 0.54765 0.68733 0.0
N147 N 0.24226 0.53351 0.69411 0.0
C148 C 0.22343 0.58825 0.67609 0.0
H149 H 0.20892 0.58229 0.6666 0.0
H150 H 0.23507 0.59871 0.66659 0.0
H151 H 0.21658 0.59903 0.68861 0.0
C152 C 0.17478 0.52666 0.62364 0.0
N153 N 0.17331 0.53031 0.64394 0.0
N154 N 0.19359 0.53505 0.65132 0.0
C155 C 0.20873 0.53462 0.63567 0.0
C156 C 0.19718 0.52956 0.61756 0.0
C157 C 0.1555 0.51816 0.61067 0.0
H158 H 0.14673 0.50403 0.61865 0.0
H159 H 0.14314 0.53218 0.60819 0.0
H160 H 0.16141 0.5118 0.59559 0.0
O161 O 0.15356 0.50328 0.68202 0.0
O162 O 0.18738 0.51061 0.69578 0.0
H163 H 0.24065 0.52787 0.6503 0.0
H164 H 0.24305 0.53565 0.62355 0.0
C165 C 0.2337 0.53888 0.638 0.0
H166 H 0.23641 0.55686 0.64253 0.0
H167 H 0.23955 0.51624 0.69686 0.0
O168 O 0.12118 0.51982 0.64607 0.0
C169 C 0.16942 0.49839 0.69459 0.0
Co170 Co 0.5238 0.85435 0.36279 0.0
Co171 Co 0.53916 0.80812 0.34337 0.0
C172 C 0.56359 0.85204 0.33423 0.0
O173 O 0.54979 0.86297 0.34554 0.0
O174 O 0.56234 0.83045 0.3324 0.0
C175 C 0.52986 0.89488 0.38611 0.0
O176 O 0.55145 0.89189 0.3816 0.0
C177 C 0.56963 0.76848 0.33979 0.0
C178 C 0.54785 0.74338 0.32399 0.0
C179 C 0.56939 0.74625 0.33233 0.0
N180 N 0.54916 0.77805 0.33619 0.0
N181 N 0.53624 0.76294 0.32672 0.0
C182 C 0.58917 0.78095 0.34933 0.0
H183 H 0.5866 0.79959 0.3484 0.0
H184 H 0.59042 0.77635 0.36575 0.0
H185 H 0.60539 0.77622 0.34172 0.0
C186 C 0.52582 0.82763 0.40059 0.0
N187 N 0.52974 0.82974 0.38039 0.0
N188 N 0.53522 0.80979 0.37267 0.0
C189 C 0.53463 0.79419 0.38797 0.0
C190 C 0.52881 0.80511 0.40617 0.0
C191 C 0.51767 0.84655 0.41411 0.0
H192 H 0.50153 0.8536 0.40795 0.0
H193 H 0.5306 0.86027 0.41438 0.0
H194 H 0.51486 0.84074 0.43002 0.0
O195 O 0.4985 0.84709 0.34415 0.0
O196 O 0.50953 0.81519 0.32865 0.0
H197 H 0.52754 0.76376 0.37099 0.0
H198 H 0.53051 0.75949 0.39835 0.0
C199 C 0.53697 0.76906 0.38491 0.0
H200 H 0.55519 0.76477 0.38274 0.0
H201 H 0.51947 0.76597 0.32214 0.0
O202 O 0.51511 0.88103 0.37926 0.0
C203 C 0.49525 0.83149 0.33091 0.0
Co204 Co 0.8528 0.47171 0.65825 0.0
Co205 Co 0.80517 0.46222 0.67729 0.0
C206 C 0.84626 0.43185 0.6853 0.0
O207 O 0.85855 0.44312 0.67298 0.0
O208 O 0.82564 0.43755 0.68866 0.0
C209 C 0.89137 0.46267 0.63362 0.0
O210 O 0.88369 0.44169 0.63456 0.0
C211 C 0.76451 0.4338 0.67937 0.0
C212 C 0.74074 0.45456 0.69774 0.0
C213 C 0.74274 0.43382 0.6877 0.0
N214 N 0.77471 0.45362 0.68411 0.0
N215 N 0.76039 0.46599 0.69505 0.0
C216 C 0.77615 0.4148 0.6682 0.0
H217 H 0.77196 0.39818 0.67536 0.0
H218 H 0.79483 0.41731 0.66805 0.0
H219 H 0.77023 0.41443 0.65209 0.0
C220 C 0.8259 0.47445 0.62023 0.0
N221 N 0.82773 0.4698 0.64035 0.0
N222 N 0.80735 0.46626 0.64804 0.0
C223 C 0.7918 0.46882 0.63286 0.0
C224 C 0.80314 0.4739 0.61474 0.0
C225 C 0.84551 0.48067 0.60671 0.0
H226 H 0.85515 0.49494 0.61366 0.0
H227 H 0.85702 0.4658 0.6053 0.0
H228 H 0.8399 0.48559 0.59112 0.0
O229 O 0.84819 0.49651 0.67852 0.0
O230 O 0.81374 0.49121 0.69177 0.0
H231 H 0.76241 0.47794 0.65054 0.0
H232 H 0.75773 0.47759 0.6231 0.0
C233 C 0.76658 0.46908 0.63602 0.0
H234 H 0.76032 0.45133 0.63706 0.0
H235 H 0.76414 0.48212 0.7009 0.0
O236 O 0.88057 0.47846 0.6427 0.0
C237 C 0.8323 0.50251 0.69069 0.0
Co238 Co 0.47316 0.14641 0.36195 0.0
Co239 Co 0.46093 0.19383 0.34357 0.0
C240 C 0.43307 0.15181 0.33422 0.0
O241 O 0.4453 0.13978 0.34607 0.0
O242 O 0.43714 0.17294 0.33172 0.0
C243 C 0.46347 0.1091 0.3872 0.0
O244 O 0.44295 0.11796 0.38618 0.0
C245 C 0.43066 0.23286 0.3396 0.0
C246 C 0.4532 0.25993 0.32791 0.0
C247 C 0.43094 0.25565 0.33389 0.0
N248 N 0.45165 0.22417 0.33704 0.0
N249 N 0.46504 0.24039 0.32993 0.0
C250 C 0.41148 0.21985 0.34906 0.0
H251 H 0.41818 0.20557 0.35842 0.0
H252 H 0.40084 0.23118 0.35875 0.0
H253 H 0.40066 0.21261 0.33675 0.0
C254 C 0.47475 0.17292 0.40028 0.0
N255 N 0.46981 0.17106 0.3802 0.0
N256 N 0.46466 0.19126 0.37283 0.0
C257 C 0.46607 0.20667 0.38824 0.0
C258 C 0.47247 0.19548 0.40612 0.0
C259 C 0.48289 0.15364 0.41342 0.0
H260 H 0.49661 0.14417 0.40546 0.0
H261 H 0.46851 0.1419 0.41631 0.0
H262 H 0.48929 0.15953 0.42847 0.0
O263 O 0.49858 0.15248 0.34267 0.0
O264 O 0.49036 0.18638 0.32932 0.0
H265 H 0.46857 0.24121 0.3996 0.0
H266 H 0.44586 0.23596 0.38156 0.0
C267 C 0.46376 0.23184 0.38548 0.0
H268 H 0.4747 0.23748 0.37263 0.0
H269 H 0.48233 0.23822 0.32679 0.0
O270 O 0.47969 0.11862 0.37762 0.0
C271 C 0.50327 0.16889 0.33059 0.0
Co272 Co 0.64819 0.9671 0.86453 0.0
Co273 Co 0.69541 0.95961 0.84414 0.0
C274 C 0.65484 0.92806 0.83693 0.0
O275 O 0.64261 0.93831 0.85006 0.0
O276 O 0.67502 0.93477 0.83302 0.0
C277 C 0.60842 0.95919 0.88891 0.0
O278 O 0.6125 0.9375 0.88562 0.0
C279 C 0.73492 0.93055 0.8391 0.0
C280 C 0.7613 0.95358 0.82694 0.0
C281 C 0.75752 0.93125 0.83296 0.0
N282 N 0.72577 0.95136 0.8367 0.0
N283 N 0.74157 0.96507 0.82932 0.0
C284 C 0.72259 0.91114 0.84893 0.0
H285 H 0.70864 0.91759 0.85882 0.0
H286 H 0.73446 0.90059 0.85817 0.0
H287 H 0.71496 0.90029 0.83682 0.0
C288 C 0.67609 0.96998 0.90188 0.0
N289 N 0.67383 0.96592 0.88169 0.0
N290 N 0.69404 0.96309 0.87346 0.0
C291 C 0.70994 0.96542 0.88836 0.0
C292 C 0.69899 0.96982 0.90684 0.0
C293 C 0.65671 0.97505 0.91605 0.0
H294 H 0.6473 0.99021 0.91046 0.0
H295 H 0.64487 0.96037 0.91618 0.0
H296 H 0.66259 0.97822 0.93194 0.0
O297 O 0.65126 0.99169 0.84383 0.0
O298 O 0.68573 0.98852 0.8301 0.0
H299 H 0.7392 0.97664 0.87172 0.0
H300 H 0.74457 0.97081 0.89856 0.0
C301 C 0.73506 0.96527 0.88474 0.0
H302 H 0.74051 0.94777 0.88061 0.0
H303 H 0.73902 0.98232 0.82627 0.0
O304 O 0.62134 0.97417 0.8811 0.0
C305 C 0.66649 0.99862 0.83142 0.0
Co306 Co 0.9713 0.35286 0.15926 0.0
Co307 Co 0.96157 0.30531 0.17861 0.0
C308 C 0.93212 0.3473 0.18701 0.0
O309 O 0.94315 0.35963 0.17449 0.0
O310 O 0.93761 0.32653 0.19 0.0
C311 C 0.96568 0.3939 0.13597 0.0
O312 O 0.94384 0.39102 0.13945 0.0
C313 C 0.93246 0.26498 0.18087 0.0
C314 C 0.95339 0.24071 0.19856 0.0
C315 C 0.9325 0.24301 0.18883 0.0
N316 N 0.95243 0.27497 0.18551 0.0
N317 N 0.96488 0.26036 0.19606 0.0
C318 C 0.91336 0.27691 0.1701 0.0
H319 H 0.91297 0.27157 0.15382 0.0
H320 H 0.8968 0.27239 0.17717 0.0
H321 H 0.91579 0.2956 0.1705 0.0
C322 C 0.97104 0.32609 0.12112 0.0
N323 N 0.96815 0.32781 0.14151 0.0
N324 N 0.96528 0.3074 0.14936 0.0
C325 C 0.96693 0.29191 0.13404 0.0
C326 C 0.9703 0.30335 0.11565 0.0
C327 C 0.97624 0.34572 0.1073 0.0
H328 H 0.99192 0.35439 0.11267 0.0
H329 H 0.96198 0.35808 0.10788 0.0
H330 H 0.97874 0.34021 0.09121 0.0
O331 O 0.99617 0.34758 0.17936 0.0
O332 O 0.99059 0.31344 0.19311 0.0
H333 H 0.97567 0.26219 0.15146 0.0
H334 H 0.97517 0.25786 0.12396 0.0
C335 C 0.96683 0.26666 0.137 0.0
H336 H 0.94899 0.26064 0.13797 0.0
H337 H 0.98116 0.26386 0.20167 0.0
O338 O 0.97994 0.3798 0.14325 0.0
C339 C 0.00207 0.33184 0.19172 0.0
Co340 Co 0.3527 0.02845 0.85782 0.0
Co341 Co 0.30482 0.04032 0.84018 0.0
C342 C 0.34625 0.0692 0.83119 0.0
O343 O 0.35869 0.05677 0.84252 0.0
O344 O 0.32512 0.06491 0.8289 0.0
C345 C 0.39227 0.03693 0.88116 0.0
O346 O 0.38539 0.05814 0.87952 0.0
C347 C 0.26536 0.07017 0.83741 0.0
C348 C 0.2384 0.04774 0.82527 0.0
C349 C 0.24252 0.06985 0.83181 0.0
N350 N 0.27423 0.04936 0.83423 0.0
N351 N 0.25807 0.03602 0.82688 0.0
C352 C 0.27831 0.08918 0.84727 0.0
H353 H 0.29269 0.08231 0.85644 0.0
H354 H 0.26699 0.09949 0.85723 0.0
H355 H 0.28545 0.10034 0.83519 0.0
C356 C 0.32713 0.02636 0.89652 0.0
N357 N 0.32837 0.03112 0.87638 0.0
N358 N 0.30792 0.03586 0.86936 0.0
C359 C 0.29293 0.03427 0.88506 0.0
C360 C 0.3047 0.02823 0.90278 0.0
C361 C 0.34699 0.01913 0.90938 0.0
H362 H 0.35572 0.00449 0.90205 0.0
H363 H 0.3592 0.03344 0.91051 0.0
H364 H 0.34184 0.01435 0.92512 0.0
O365 O 0.34674 0.0036 0.83802 0.0
O366 O 0.31273 0.0116 0.82475 0.0
H367 H 0.26181 0.02592 0.86973 0.0
H368 H 0.25873 0.03102 0.89696 0.0
C369 C 0.26769 0.03642 0.88283 0.0
H370 H 0.26331 0.05442 0.87956 0.0
H371 H 0.26038 0.01887 0.82325 0.0
O372 O 0.3807 0.02117 0.87285 0.0
C373 C 0.3305 0.99903 0.82572 0.0
Co374 Co 0.02745 0.64785 0.16045 0.0
Co375 Co 0.04032 0.69496 0.17934 0.0
C376 C 0.06854 0.65259 0.18693 0.0
O377 O 0.05584 0.64071 0.17535 0.0
O378 O 0.0645 0.67367 0.18981 0.0
C379 C 0.03532 0.61049 0.13434 0.0
O380 O 0.05603 0.61893 0.13427 0.0
C381 C 0.07021 0.7348 0.18174 0.0
C382 C 0.04966 0.75939 0.19943 0.0
C383 C 0.07054 0.75672 0.18981 0.0
N384 N 0.05004 0.72515 0.18623 0.0
N385 N 0.03783 0.73996 0.19679 0.0
C386 C 0.08922 0.72259 0.1711 0.0
H387 H 0.08627 0.70398 0.17094 0.0
H388 H 0.09027 0.72837 0.15498 0.0
H389 H 0.10571 0.72643 0.17866 0.0
C390 C 0.02634 0.67479 0.12233 0.0
N391 N 0.03044 0.67284 0.14255 0.0
N392 N 0.03531 0.69301 0.15017 0.0
C393 C 0.03417 0.70852 0.13482 0.0
C394 C 0.02885 0.69731 0.11668 0.0
C395 C 0.01786 0.65596 0.10888 0.0
H396 H 0.00488 0.64578 0.11706 0.0
H397 H 0.03231 0.64477 0.1046 0.0
H398 H 0.01012 0.66273 0.09464 0.0
O399 O 0.00287 0.65362 0.18059 0.0
O400 O 0.01176 0.68696 0.19477 0.0
H401 H 0.02864 0.73919 0.15199 0.0
H402 H 0.02927 0.7431 0.12448 0.0
C403 C 0.03684 0.73366 0.13753 0.0
H404 H 0.05519 0.73789 0.13834 0.0
H405 H 0.02148 0.73674 0.20232 0.0
O406 O 0.01994 0.62031 0.14478 0.0
C407 C 0.99883 0.66952 0.19339 0.0
Co408 Co 0.64809 0.03471 0.1588 0.0
Co409 Co 0.69594 0.04149 0.17835 0.0
C410 C 0.65503 0.07295 0.18669 0.0
O411 O 0.64242 0.0635 0.17334 0.0
O412 O 0.67518 0.06572 0.19019 0.0
C413 C 0.60685 0.04053 0.13544 0.0
O414 O 0.60967 0.06242 0.13871 0.0
C415 C 0.73667 0.06982 0.1805 0.0
C416 C 0.76057 0.04892 0.19861 0.0
C417 C 0.75858 0.06969 0.18863 0.0
N418 N 0.72642 0.05006 0.1853 0.0
N419 N 0.74081 0.03761 0.19609 0.0
C420 C 0.72499 0.08882 0.16937 0.0
H421 H 0.73036 0.08872 0.15311 0.0
H422 H 0.72968 0.10549 0.17617 0.0
H423 H 0.70627 0.08661 0.16975 0.0
C424 C 0.67496 0.03338 0.12073 0.0
N425 N 0.67329 0.03644 0.14111 0.0
N426 N 0.69377 0.03807 0.1491 0.0
C427 C 0.70924 0.03537 0.13392 0.0
C428 C 0.69776 0.03267 0.11541 0.0
C429 C 0.65511 0.02905 0.10687 0.0
H430 H 0.64593 0.01362 0.11209 0.0
H431 H 0.64324 0.04371 0.10764 0.0
H432 H 0.66045 0.0265 0.09075 0.0
O433 O 0.65222 0.01026 0.17963 0.0
O434 O 0.68721 0.01254 0.19243 0.0
H435 H 0.73817 0.02482 0.15164 0.0
H436 H 0.74292 0.02525 0.12419 0.0
C437 C 0.73442 0.03397 0.13718 0.0
H438 H 0.74143 0.05143 0.1384 0.0
H439 H 0.73707 0.02147 0.20189 0.0
O440 O 0.62098 0.0264 0.14285 0.0
C441 C 0.66775 0.0029 0.1916 0.0
Co442 Co 0.02093 0.35093 0.86074 0.0
Co443 Co 0.03824 0.305 0.8427 0.0
C444 C 0.06319 0.34789 0.83426 0.0
O445 O 0.04805 0.35848 0.84435 0.0
O446 O 0.06272 0.32626 0.83287 0.0
C447 C 0.03178 0.38597 0.88708 0.0
O448 O 0.05064 0.37393 0.88762 0.0
C449 C 0.06894 0.26616 0.83845 0.0
C450 C 0.04641 0.23903 0.82676 0.0
C451 C 0.06869 0.24336 0.83269 0.0
N452 N 0.0479 0.2748 0.83597 0.0
N453 N 0.03453 0.25854 0.82886 0.0
C454 C 0.08814 0.2792 0.84792 0.0
H455 H 0.08146 0.29339 0.85741 0.0
H456 H 0.09891 0.26788 0.85749 0.0
H457 H 0.09883 0.28658 0.8356 0.0
C458 C 0.01949 0.32416 0.89874 0.0
N459 N 0.02511 0.32641 0.87886 0.0
N460 N 0.03288 0.30691 0.87184 0.0
C461 C 0.0329 0.29166 0.88741 0.0
C462 C 0.02448 0.3022 0.90495 0.0
C463 C 0.00827 0.34237 0.91128 0.0
H464 H 0.99629 0.35232 0.9017 0.0
H465 H 0.02151 0.35395 0.91744 0.0
H466 H 0.99885 0.3352 0.92445 0.0
O467 O 0.99604 0.34419 0.84161 0.0
O468 O 0.00945 0.31274 0.82671 0.0
H469 H 0.02927 0.25948 0.87239 0.0
H470 H 0.03535 0.25745 0.8995 0.0
C471 C 0.039 0.26705 0.88525 0.0
H472 H 0.05738 0.26553 0.8817 0.0
H473 H 0.01721 0.26065 0.82579 0.0
O474 O 0.01516 0.37891 0.87633 0.0
C475 C 0.99439 0.32847 0.82823 0.0
Co476 Co 0.35262 0.97363 0.15663 0.0
Co477 Co 0.30616 0.9598 0.17602 0.0
C478 C 0.34911 0.93249 0.18334 0.0
O479 O 0.36044 0.94571 0.17183 0.0
O480 O 0.32788 0.93569 0.18618 0.0
C481 C 0.3902 0.96647 0.13056 0.0
O482 O 0.38251 0.94547 0.13068 0.0
C483 C 0.26636 0.92981 0.17908 0.0
C484 C 0.24217 0.95058 0.19701 0.0
C485 C 0.24462 0.9296 0.18748 0.0
N486 N 0.27613 0.95002 0.18329 0.0
N487 N 0.26155 0.96236 0.19399 0.0
C488 C 0.27833 0.91067 0.16839 0.0
H489 H 0.29693 0.91361 0.16795 0.0
H490 H 0.2722 0.90946 0.15238 0.0
H491 H 0.27462 0.89427 0.17613 0.0
C492 C 0.32514 0.9745 0.11883 0.0
N493 N 0.3275 0.9701 0.13897 0.0
N494 N 0.30755 0.96479 0.14677 0.0
C495 C 0.29178 0.96583 0.13161 0.0
C496 C 0.30258 0.97171 0.11343 0.0
C497 C 0.34372 0.98314 0.10523 0.0
H498 H 0.3535 0.99662 0.11319 0.0
H499 H 0.35538 0.96891 0.10139 0.0
H500 H 0.33684 0.9902 0.09074 0.0
O501 O 0.34672 0.99818 0.1766 0.0
O502 O 0.31402 0.98858 0.19145 0.0
H503 H 0.26138 0.97131 0.14911 0.0
H504 H 0.25702 0.97044 0.12164 0.0
C505 C 0.26671 0.96303 0.13463 0.0
H506 H 0.26263 0.94465 0.1356 0.0
H507 H 0.26489 0.97876 0.19937 0.0
O508 O 0.3798 0.98166 0.14078 0.0
C509 C 0.3311 0.00193 0.18972 0.0
Co510 Co 0.9733 0.64693 0.86067 0.0
Co511 Co 0.96022 0.69451 0.84308 0.0
C512 C 0.93152 0.65164 0.83603 0.0
O513 O 0.9444 0.63969 0.84743 0.0
O514 O 0.93553 0.67279 0.83308 0.0
C515 C 0.99468 0.60441 0.86528 0.0
O516 O 0.9959 0.60589 0.84525 0.0
C517 C 0.92954 0.73368 0.84051 0.0
C518 C 0.952 0.76086 0.82887 0.0
C519 C 0.92987 0.7566 0.83521 0.0
N520 N 0.95039 0.72489 0.83736 0.0
N521 N 0.96373 0.7412 0.83031 0.0
C522 C 0.91045 0.7206 0.85004 0.0
H523 H 0.91727 0.70629 0.85929 0.0
H524 H 0.89986 0.73186 0.85982 0.0
H525 H 0.89957 0.71339 0.83775 0.0
C526 C 0.97555 0.67231 0.89907 0.0
N527 N 0.97086 0.67131 0.87896 0.0
N528 N 0.96613 0.69178 0.87207 0.0
C529 C 0.96797 0.70668 0.88785 0.0
C530 C 0.97416 0.69476 0.90548 0.0
C531 C 0.98143 0.65199 0.91188 0.0
H532 H 0.96956 0.63785 0.90832 0.0
H533 H 0.98039 0.65586 0.92848 0.0
H534 H 0.99897 0.64632 0.90814 0.0
O535 O 0.99538 0.65331 0.83891 0.0
O536 O 0.98857 0.6878 0.82653 0.0
H537 H 0.97135 0.7409 0.8998 0.0
H538 H 0.94756 0.73621 0.88275 0.0
C539 C 0.96566 0.73192 0.88574 0.0
H540 H 0.97582 0.73785 0.87248 0.0
H541 H 0.98091 0.739 0.82681 0.0
O542 O 0.98477 0.62006 0.87525 0.0
C543 C 1.00006 0.66933 0.82658 0.0
H544 H 0.9147 0.57099 0.40226 0.0
H545 H 0.9539 0.56565 0.41401 0.0
H546 H 0.94654 0.49292 0.40757 0.0
H547 H 0.9074 0.49805 0.39588 0.0
H548 H 0.97536 0.50601 0.44068 0.0
H549 H 0.96315 0.52133 0.36776 0.0
H550 H 0.94904 0.5445 0.33892 0.0
H551 H 0.98969 0.60094 0.35917 0.0
H552 H 0.00376 0.57817 0.38835 0.0
H553 H 0.07168 0.4531 0.3987 0.0
H554 H 0.03584 0.46905 0.41101 0.0
H555 H 0.06389 0.5368 0.40683 0.0
H556 H 0.09958 0.52099 0.39401 0.0
H557 H 0.02663 0.53431 0.38604 0.0
H558 H 0.04703 0.51426 0.45351 0.0
H559 H 0.06148 0.49045 0.48172 0.0
H560 H 0.00687 0.44301 0.47235 0.0
H561 H 0.99226 0.46634 0.44386 0.0
C562 C 0.92124 0.55383 0.40383 0.0
C563 C 0.90822 0.53495 0.39769 0.0
C564 C 0.94358 0.55083 0.41063 0.0
C565 C 0.95308 0.52893 0.4114 0.0
C566 C 0.93944 0.50995 0.40708 0.0
C567 C 0.91718 0.51293 0.40019 0.0
C568 C 0.97792 0.52583 0.4131 0.0
C569 C 0.98673 0.51223 0.42887 0.0
C570 C 0.99265 0.53453 0.39792 0.0
C571 C 0.98423 0.54819 0.38038 0.0
C572 C 0.96891 0.53875 0.36616 0.0
C573 C 0.96094 0.5518 0.34975 0.0
C574 C 0.9684 0.57421 0.34726 0.0
C575 C 0.98388 0.5836 0.36116 0.0
C576 C 0.99184 0.57065 0.37764 0.0
C577 C 0.07035 0.47135 0.40079 0.0
C578 C 0.08823 0.48583 0.39506 0.0
C579 C 0.04993 0.48046 0.40803 0.0
C580 C 0.04722 0.50414 0.40996 0.0
C581 C 0.06561 0.51849 0.40546 0.0
C582 C 0.08593 0.50943 0.39803 0.0
C583 C 0.0243 0.51387 0.4134 0.0
C584 C 0.01569 0.52867 0.39841 0.0
C585 C 0.00988 0.50624 0.42932 0.0
C586 C 0.0186 0.49205 0.44644 0.0
C587 C 0.03818 0.49867 0.45734 0.0
C588 C 0.04639 0.48526 0.47341 0.0
C589 C 0.03512 0.46522 0.47881 0.0
C590 C 0.01559 0.45855 0.46816 0.0
C591 C 0.00731 0.47189 0.45207 0.0
H592 H 0.0415 0.45487 0.49126 0.0
H593 H 0.96224 0.58428 0.33452 0.0
H594 H 0.55664 0.0738 0.61776 0.0
H595 H 0.54028 0.03765 0.60626 0.0
H596 H 0.47287 0.06645 0.61027 0.0
H597 H 0.48895 0.10252 0.62168 0.0
H598 H 0.48425 0.0321 0.63904 0.0
H599 H 0.48576 0.04571 0.56722 0.0
H600 H 0.50234 0.05606 0.53385 0.0
H601 H 0.54907 1.00001 0.53815 0.0
H602 H 0.53301 0.98948 0.57169 0.0
H603 H 0.43079 0.92604 0.63506 0.0
H604 H 0.43975 0.9645 0.62325 0.0
H605 H 0.50952 0.94448 0.61304 0.0
H606 H 0.50074 0.90599 0.62491 0.0
H607 H 0.49317 0.97538 0.58333 0.0
H608 H 0.49775 0.96594 0.65599 0.0
H609 H 0.48598 0.95726 0.69132 0.0
H610 H 0.43265 0.00711 0.68723 0.0
H611 H 0.44373 0.01569 0.65164 0.0
C612 C 0.5384 0.07265 0.61553 0.0
C613 C 0.52399 0.09067 0.62123 0.0
C614 C 0.52911 0.05208 0.60875 0.0
C615 C 0.50541 0.04948 0.60753 0.0
C616 C 0.49122 0.06824 0.61109 0.0
C617 C 0.50044 0.08872 0.61786 0.0
C618 C 0.49553 0.02648 0.60809 0.0
C619 C 0.48556 0.01986 0.62662 0.0
C620 C 0.49832 0.01045 0.59217 0.0
C621 C 0.50828 0.01692 0.57211 0.0
C622 C 0.49975 0.03573 0.56119 0.0
C623 C 0.50901 0.04159 0.54219 0.0
C624 C 0.52677 0.02873 0.53391 0.0
C625 C 0.53531 0.00997 0.54459 0.0
C626 C 0.52611 0.00402 0.56359 0.0
C627 C 0.44792 0.9297 0.6299 0.0
C628 C 0.46517 0.91319 0.63118 0.0
C629 C 0.45298 0.95163 0.62314 0.0
C630 C 0.4753 0.95725 0.61743 0.0
C631 C 0.49219 0.94037 0.61734 0.0
C632 C 0.4872 0.91851 0.62431 0.0
C633 C 0.4817 0.98122 0.61422 0.0
C634 C 0.49127 0.98787 0.59545 0.0
C635 C 0.47901 0.99739 0.63007 0.0
C636 C 0.47132 0.99116 0.65099 0.0
C637 C 0.48322 0.97473 0.66245 0.0
C638 C 0.47676 0.96993 0.68258 0.0
C639 C 0.45863 0.98169 0.69153 0.0
C640 C 0.44673 0.99806 0.68029 0.0
C641 C 0.45302 0.00282 0.66011 0.0
H642 H 0.45374 0.97804 0.70716 0.0
H643 H 0.5339 0.03327 0.5192 0.0
H644 H 0.91007 0.50442 0.62704 0.0
H645 H 0.94779 0.5127 0.61371 0.0
H646 H 0.95872 0.44119 0.60195 0.0
H647 H 0.92093 0.43268 0.61566 0.0
H648 H 0.99046 0.45777 0.62588 0.0
H649 H 0.96006 0.47972 0.56218 0.0
H650 H 0.93376 0.49822 0.53791 0.0
H651 H 0.95387 0.56397 0.56025 0.0
H652 H 0.98005 0.5459 0.58488 0.0
H653 H 0.10268 0.49421 0.61841 0.0
H654 H 0.06769 0.47904 0.60348 0.0
H655 H 0.03305 0.54204 0.6173 0.0
H656 H 0.06826 0.55762 0.63157 0.0
H657 H 0.01588 0.52233 0.58265 0.0
H658 H 0.03523 0.49906 0.6525 0.0
H659 H 0.06031 0.4814 0.67835 0.0
H660 H 0.05915 0.41842 0.64491 0.0
H661 H 0.03427 0.43584 0.61873 0.0
C662 C 0.9203 0.49047 0.62127 0.0
C663 C 0.91273 0.46785 0.62275 0.0
C664 C 0.94177 0.49527 0.61337 0.0
C665 C 0.95601 0.47757 0.60667 0.0
C666 C 0.94793 0.45509 0.60695 0.0
C667 C 0.9264 0.45026 0.61488 0.0
C668 C 0.9804 0.48232 0.60307 0.0
C669 C 0.99613 0.47135 0.61586 0.0
C670 C 0.98771 0.50033 0.59029 0.0
C671 C 0.97202 0.5114 0.57545 0.0
C672 C 0.95879 0.49812 0.56202 0.0
C673 C 0.9439 0.50854 0.54818 0.0
C674 C 0.94214 0.53225 0.54754 0.0
C675 C 0.95528 0.5456 0.56074 0.0
C676 C 0.97019 0.53527 0.57462 0.0
C677 C 0.08771 0.50498 0.61787 0.0
C678 C 0.08794 0.52688 0.62657 0.0
C679 C 0.0678 0.49634 0.60924 0.0
C680 C 0.0477 0.50924 0.6097 0.0
C681 C 0.04839 0.5318 0.61683 0.0
C682 C 0.06845 0.54062 0.62513 0.0
C683 C 0.02543 0.4983 0.606 0.0
C684 C 0.01023 0.50815 0.59198 0.0
C685 C 0.01842 0.47933 0.61775 0.0
C686 C 0.03317 0.46881 0.63356 0.0
C687 C 0.04045 0.48149 0.65062 0.0
C688 C 0.05461 0.47152 0.66532 0.0
C689 C 0.06139 0.44882 0.66323 0.0
C690 C 0.05394 0.43602 0.64648 0.0
C691 C 0.03982 0.44592 0.63171 0.0
H692 H 0.07236 0.44114 0.67463 0.0
H693 H 0.9306 0.54029 0.53682 0.0
H694 H 0.49054 0.89916 0.40787 0.0
H695 H 0.47576 0.93374 0.42396 0.0
H696 H 0.53764 0.96921 0.40832 0.0
H697 H 0.55277 0.93453 0.39273 0.0
H698 H 0.51841 0.98592 0.44421 0.0
H699 H 0.49456 0.96672 0.37396 0.0
H700 H 0.47667 0.94131 0.3485 0.0
H701 H 0.41457 0.94158 0.38314 0.0
H702 H 0.43223 0.9668 0.40893 0.0
H703 H 0.50439 0.0892 0.39546 0.0
H704 H 0.51097 0.05225 0.41117 0.0
H705 H 0.43892 0.04512 0.42237 0.0
H706 H 0.43213 0.08215 0.40635 0.0
H707 H 0.45442 0.01142 0.40015 0.0
H708 H 0.47605 0.04347 0.46275 0.0
H709 H 0.4944 0.07017 0.48674 0.0
H710 H 0.5603 0.04753 0.4669 0.0
H711 H 0.54241 0.02094 0.44253 0.0
C712 C 0.50117 0.91422 0.40825 0.0
C713 C 0.52254 0.91443 0.39859 0.0
C714 C 0.49279 0.93387 0.4176 0.0
C715 C 0.50545 0.9541 0.41698 0.0
C716 C 0.52761 0.95375 0.40896 0.0
C717 C 0.53615 0.934 0.39988 0.0
C718 C 0.49436 0.97627 0.42089 0.0
C719 C 0.50431 0.99159 0.43476 0.0
C720 C 0.47544 0.98329 0.40904 0.0
C721 C 0.46477 0.96837 0.39345 0.0
C722 C 0.47713 0.96124 0.37618 0.0
C723 C 0.46704 0.9469 0.3617 0.0
C724 C 0.44452 0.93978 0.36423 0.0
C725 C 0.43203 0.94706 0.38122 0.0
C726 C 0.44206 0.96137 0.39577 0.0
C727 C 0.48996 0.07999 0.40159 0.0
C728 C 0.46769 0.08832 0.39927 0.0
C729 C 0.49379 0.05898 0.41087 0.0
C730 C 0.47544 0.04598 0.41809 0.0
C731 C 0.45331 0.05495 0.41699 0.0
C732 C 0.44947 0.07603 0.40772 0.0
C733 C 0.47913 0.02164 0.42281 0.0
C734 C 0.46783 0.00576 0.41042 0.0
C735 C 0.4968 0.01429 0.436 0.0
C736 C 0.50782 0.03018 0.45073 0.0
C737 C 0.49446 0.04426 0.46338 0.0
C738 C 0.50479 0.05937 0.47708 0.0
C739 C 0.5285 0.06056 0.47833 0.0
C740 C 0.54193 0.04658 0.46593 0.0
C741 C 0.53169 0.03143 0.45219 0.0
H742 H 0.53646 0.07229 0.48893 0.0
H743 H 0.43674 0.92866 0.35301 0.0
H744 H 0.56979 0.93478 0.89666 0.0
H745 H 0.53334 0.95032 0.90835 0.0
H746 H 0.56501 0.01556 0.91867 0.0
H747 H 0.60133 1.00031 0.90682 0.0
H748 H 0.51302 0.97766 0.94145 0.0
H749 H 0.53617 0.05172 0.88879 0.0
H750 H 0.56285 0.06028 0.86063 0.0
H751 H 0.56126 0.99024 0.8417 0.0
H752 H 0.53434 0.98141 0.86952 0.0
H753 H 0.42512 0.0663 0.89451 0.0
H754 H 0.4624 0.05631 0.9087 0.0
H755 H 0.44435 0.98514 0.90678 0.0
H756 H 0.40715 0.99493 0.89273 0.0
H757 H 0.49127 0.03105 0.88584 0.0
H758 H 0.47514 0.95582 0.94233 0.0
H759 H 0.44791 0.94552 0.96948 0.0
H760 H 0.43279 0.0162 0.97951 0.0
H761 H 0.46017 0.02697 0.95265 0.0
C762 C 0.56912 0.95222 0.90205 0.0
C763 C 0.58812 0.96656 0.90028 0.0
C764 C 0.54836 0.961 0.90889 0.0
C765 C 0.54655 0.98412 0.91406 0.0
C766 C 0.56614 0.9977 0.91459 0.0
C767 C 0.58678 0.98902 0.90761 0.0
C768 C 0.52399 0.99507 0.91423 0.0
C769 C 0.50812 0.98936 0.92938 0.0
C770 C 0.51794 0.01056 0.89859 0.0
C771 C 0.5335 0.01589 0.88137 0.0
C772 C 0.54145 0.03821 0.87855 0.0
C773 C 0.55662 0.04309 0.86265 0.0
C774 C 0.56383 0.0258 0.84944 0.0
C775 C 0.55575 0.00361 0.85199 0.0
C776 C 0.54055 0.99866 0.86782 0.0
C777 C 0.42893 0.04857 0.89753 0.0
C778 C 0.41343 0.03135 0.89218 0.0
C779 C 0.45016 0.04291 0.9057 0.0
C780 C 0.45603 0.02002 0.90887 0.0
C781 C 0.44002 0.00293 0.90474 0.0
C782 C 0.41888 0.00854 0.89647 0.0
C783 C 0.47989 0.01361 0.91301 0.0
C784 C 0.49613 0.01996 0.8984 0.0
C785 C 0.48601 0.99854 0.929 0.0
C786 C 0.46964 0.99219 0.94534 0.0
C787 C 0.46611 0.96919 0.9504 0.0
C788 C 0.45062 0.96326 0.96573 0.0
C789 C 0.43859 0.98019 0.97618 0.0
C790 C 0.44206 0.00309 0.97135 0.0
C791 C 0.45754 0.00911 0.95604 0.0
H792 H 0.4266 0.97556 0.98803 0.0
H793 H 0.57563 0.02961 0.83719 0.0
H794 H 0.94242 0.43281 0.12666 0.0
H795 H 0.9581 0.46769 0.11218 0.0
H796 H 0.02303 0.4344 0.10396 0.0
H797 H 0.00759 0.39965 0.11897 0.0
H798 H 0.02819 0.47048 0.12561 0.0
H799 H 0.99305 0.45614 0.06224 0.0
H800 H 0.96306 0.44508 0.03776 0.0
H801 H 0.9219 0.50148 0.05735 0.0
H802 H 0.95148 0.51273 0.08215 0.0
H803 H 0.06483 0.58298 0.11335 0.0
H804 H 0.05673 0.54524 0.09922 0.0
H805 H 0.986 0.55281 0.11564 0.0
H806 H 0.99382 0.59052 0.1295 0.0
H807 H 0.99178 0.52728 0.07989 0.0
H808 H 0.02239 0.53146 0.15005 0.0
H809 H 0.05196 0.54234 0.17507 0.0
H810 H 0.10165 0.50365 0.14164 0.0
H811 H 0.07238 0.49279 0.11627 0.0
C812 C 0.95988 0.43278 0.12136 0.0
C813 C 0.97391 0.41371 0.12431 0.0
C814 C 0.96879 0.45266 0.11286 0.0
C815 C 0.99175 0.45364 0.10688 0.0
C816 C 0.0053 0.43404 0.10849 0.0
C817 C 0.99648 0.41425 0.11718 0.0
C818 C 0.0024 0.47597 0.10256 0.0
C819 C 0.02069 0.48261 0.11504 0.0
C820 C 0.9925 0.49193 0.08897 0.0
C821 C 0.97451 0.48524 0.07414 0.0
C822 C 0.97754 0.46611 0.06145 0.0
C823 C 0.96062 0.45982 0.04748 0.0
C824 C 0.94058 0.47256 0.04601 0.0
C825 C 0.93744 0.49163 0.05849 0.0
C826 C 0.95431 0.49801 0.07248 0.0
C827 C 0.04746 0.5768 0.11354 0.0
C828 C 0.03005 0.58942 0.12301 0.0
C829 C 0.04286 0.55531 0.10536 0.0
C830 C 0.02084 0.54618 0.10666 0.0
C831 C 0.0031 0.55958 0.11449 0.0
C832 C 0.00767 0.58102 0.12264 0.0
C833 C 0.01681 0.52164 0.10343 0.0
C834 C 0.99978 0.51471 0.0897 0.0
C835 C 0.02782 0.50526 0.11582 0.0
C836 C 0.04532 0.51157 0.13117 0.0
C837 C 0.03966 0.5254 0.14799 0.0
C838 C 0.05635 0.53155 0.16223 0.0
C839 C 0.07869 0.52376 0.15991 0.0
C840 C 0.08436 0.50972 0.14338 0.0
C841 C 0.06773 0.50357 0.12907 0.0
H842 H 0.09159 0.52854 0.17094 0.0
H843 H 0.9275 0.46766 0.03519 0.0
H844 H 0.41965 0.93745 0.11123 0.0
H845 H 0.45766 0.94663 0.09838 0.0
H846 H 0.44642 0.01755 0.11241 0.0
H847 H 0.40845 0.00863 0.12502 0.0
H848 H 0.47417 0.01149 0.07804 0.0
H849 H 0.46729 0.98425 0.14869 0.0
H850 H 0.4559 0.95589 0.17458 0.0
H851 H 0.49772 0.90547 0.14531 0.0
H852 H 0.50911 0.9335 0.11909 0.0
H853 H 0.56789 0.06358 0.12561 0.0
H854 H 0.53298 0.04745 0.11138 0.0
H855 H 0.56627 0.9823 0.10468 0.0
H856 H 0.60104 0.99819 0.11932 0.0
H857 H 0.52985 0.97833 0.12681 0.0
H858 H 0.54563 0.0111 0.06246 0.0
H859 H 0.55698 0.04054 0.03763 0.0
H860 H 0.49946 0.08142 0.05491 0.0
H861 H 0.48793 0.0524 0.08007 0.0
C862 C 0.42507 0.95507 0.11112 0.0
C863 C 0.41135 0.97225 0.11963 0.0
C864 C 0.44672 0.96028 0.10368 0.0
C865 C 0.45488 0.9827 0.10474 0.0
C866 C 0.4404 1.00014 0.11147 0.0
C867 C 0.41881 0.99496 0.1189 0.0
C868 C 0.4794 0.98757 0.10253 0.0
C869 C 0.4865 0.00421 0.08854 0.0
C870 C 0.49544 0.9776 0.11596 0.0
C871 C 0.48881 0.96084 0.13182 0.0
C872 C 0.47393 0.96706 0.14772 0.0
C873 C 0.46749 0.95107 0.16245 0.0
C874 C 0.47602 0.92887 0.16155 0.0
C875 C 0.49108 0.92265 0.14595 0.0
C876 C 0.49753 0.93858 0.13116 0.0
C877 C 0.56791 0.04596 0.12069 0.0
C878 C 0.587 0.03202 0.12394 0.0
C879 C 0.54801 0.03679 0.11236 0.0
C880 C 0.54705 0.01366 0.1069 0.0
C881 C 0.56664 1.00017 0.10882 0.0
C882 C 0.58644 0.00925 0.1173 0.0
C883 C 0.52479 0.00286 0.10265 0.0
C884 C 0.51798 0.98512 0.11563 0.0
C885 C 0.50912 0.01196 0.08834 0.0
C886 C 0.51597 0.02956 0.07325 0.0
C887 C 0.53548 0.02644 0.06109 0.0
C888 C 0.54194 0.04305 0.04693 0.0
C889 C 0.52896 0.06285 0.04471 0.0
C890 C 0.50949 0.06606 0.05663 0.0
C891 C 0.50296 0.04951 0.07083 0.0
H892 H 0.53399 0.07568 0.03373 0.0
H893 H 0.47101 0.91651 0.17296 0.0
H894 H 0.99798 0.59772 0.90664 0.0
H895 H 0.01321 0.56424 0.92427 0.0
H896 H 0.02863 0.5334 0.86588 0.0
H897 H 0.01417 0.56685 0.84831 0.0
H898 H 0.99779 0.52356 0.92404 0.0
H899 H 0.07111 0.49878 0.86634 0.0
H900 H 0.10198 0.51853 0.84805 0.0
H901 H 0.10002 0.57292 0.8919 0.0
H902 H 0.06938 0.55342 0.91071 0.0
H903 H 0.99649 0.41606 0.88682 0.0
H904 H 0.99701 0.4552 0.8987 0.0
H905 H 0.06474 0.44558 0.92301 0.0
H906 H 0.06455 0.40627 0.91059 0.0
H907 H 0.06488 0.48014 0.89947 0.0
H908 H 0.02028 0.46154 0.95548 0.0
H909 H 0.99058 0.44262 0.97591 0.0
H910 H 0.93866 0.47607 0.9407 0.0
H911 H 0.96798 0.4949 0.9198 0.0
C912 C 0.00491 0.58389 0.8976 0.0
C913 C 0.00474 0.58481 0.87608 0.0
C914 C 0.01366 0.56484 0.90771 0.0
C915 C 0.02241 0.54647 0.89644 0.0
C916 C 0.02259 0.54761 0.87496 0.0
C917 C 0.01404 0.56666 0.86489 0.0
C918 C 0.02889 0.52491 0.90661 0.0
C919 C 0.01266 0.51414 0.91902 0.0
C920 C 0.04895 0.51307 0.90104 0.0
C921 C 0.06786 0.52458 0.88999 0.0
C922 C 0.07739 0.51483 0.87226 0.0
C923 C 0.09483 0.52601 0.86175 0.0
C924 C 0.10296 0.54693 0.86882 0.0
C925 C 0.0937 0.55671 0.88644 0.0
C926 C 0.07627 0.54562 0.89702 0.0
C927 C 0.01132 0.42207 0.89508 0.0
C928 C 0.03062 0.40823 0.89746 0.0
C929 C 0.01151 0.44444 0.90212 0.0
C930 C 0.03086 0.45332 0.91194 0.0
C931 C 0.04962 0.43906 0.91553 0.0
C932 C 0.04949 0.41664 0.90837 0.0
C933 C 0.03256 0.47823 0.91501 0.0
C934 C 0.05045 0.48973 0.90523 0.0
C935 C 0.01434 0.49085 0.92348 0.0
C936 C 0.99643 0.47972 0.93607 0.0
C937 C 0.00254 0.46481 0.95201 0.0
C938 C 0.98575 0.45409 0.96369 0.0
C939 C 0.96275 0.45817 0.95963 0.0
C940 C 0.95649 0.47298 0.94387 0.0
C941 C 0.9732 0.48374 0.93213 0.0
H942 H 0.94978 0.44984 0.96868 0.0
H943 H 0.1164 0.55559 0.86061 0.0
H944 H 0.25069 0.38337 0.3258 0.0
H945 H 0.27936 0.35318 0.32641 0.0
H946 H 0.33006 0.40168 0.34588 0.0
H947 H 0.30141 0.43187 0.34561 0.0
H948 H 0.34551 0.37553 0.31509 0.0
H949 H 0.30771 0.3634 0.37937 0.0
H950 H 0.27474 0.35677 0.40191 0.0
H951 H 0.26018 0.29429 0.37034 0.0
H952 H 0.29289 0.30072 0.3474 0.0
H953 H 0.43422 0.30059 0.34342 0.0
H954 H 0.40382 0.32908 0.34409 0.0
H955 H 0.35518 0.27788 0.32595 0.0
H956 H 0.38552 0.24935 0.32523 0.0
H957 H 0.33783 0.30454 0.3556 0.0
H958 H 0.37548 0.31635 0.29149 0.0
H959 H 0.40823 0.32287 0.26866 0.0
H960 H 0.42267 0.38585 0.29946 0.0
H961 H 0.39017 0.37955 0.32267 0.0
C962 C 0.26777 0.38754 0.33072 0.0
C963 C 0.27361 0.40997 0.33614 0.0
C964 C 0.28422 0.37026 0.3309 0.0
C965 C 0.30683 0.3751 0.33643 0.0
C966 C 0.31273 0.39752 0.3416 0.0
C967 C 0.29632 0.41476 0.34145 0.0
C968 C 0.32453 0.35699 0.33632 0.0
C969 C 0.34396 0.36014 0.32416 0.0
C970 C 0.32223 0.33661 0.3477 0.0
C971 C 0.30261 0.33267 0.36153 0.0
C972 C 0.29736 0.34834 0.37712 0.0
C973 C 0.27874 0.34461 0.38999 0.0
C974 C 0.26533 0.32516 0.38753 0.0
C975 C 0.27056 0.30937 0.37222 0.0
C976 C 0.28915 0.31304 0.35928 0.0
C977 C 0.41703 0.2954 0.3396 0.0
C978 C 0.41224 0.27263 0.33458 0.0
C979 C 0.39968 0.3117 0.33996 0.0
C980 C 0.37721 0.30567 0.33493 0.0
C981 C 0.37234 0.28291 0.33002 0.0
C982 C 0.38971 0.26656 0.32975 0.0
C983 C 0.35891 0.3232 0.33451 0.0
C984 C 0.33936 0.31992 0.34652 0.0
C985 C 0.36104 0.34347 0.32294 0.0
C986 C 0.38052 0.34737 0.30893 0.0
C987 C 0.38574 0.33151 0.29349 0.0
C988 C 0.40424 0.33518 0.28046 0.0
C989 C 0.41755 0.35474 0.28264 0.0
C990 C 0.41235 0.3707 0.29781 0.0
C991 C 0.39389 0.3671 0.31089 0.0
H992 H 0.43187 0.35755 0.27254 0.0
H993 H 0.25093 0.32229 0.39751 0.0
H994 H 0.25412 0.61268 0.69982 0.0
H995 H 0.28354 0.64201 0.69841 0.0
H996 H 0.33285 0.59154 0.67997 0.0
H997 H 0.30341 0.56213 0.68123 0.0
H998 H 0.34988 0.61856 0.70899 0.0
H999 H 0.31028 0.62947 0.64547 0.0
H1000 H 0.27676 0.63578 0.62343 0.0
H1001 H 0.26352 0.69929 0.65379 0.0
H1002 H 0.29678 0.69319 0.67624 0.0
H1003 H 0.43756 0.69426 0.67874 0.0
H1004 H 0.40765 0.66526 0.67852 0.0
H1005 H 0.3585 0.71571 0.69736 0.0
H1006 H 0.38831 0.74468 0.6977 0.0
H1007 H 0.34124 0.68888 0.66766 0.0
H1008 H 0.38027 0.67774 0.73148 0.0
H1009 H 0.41363 0.67146 0.75373 0.0
H1010 H 0.42773 0.60842 0.72288 0.0
H1011 H 0.3946 0.61447 0.70025 0.0
C1012 C 0.27108 0.60789 0.69503 0.0
C1013 C 0.2763 0.58516 0.69013 0.0
C1014 C 0.28795 0.62467 0.69435 0.0
C1015 C 0.31035 0.61907 0.68874 0.0
C1016 C 0.31568 0.5963 0.68425 0.0
C1017 C 0.29884 0.57951 0.68497 0.0
C1018 C 0.32834 0.63684 0.68795 0.0
C1019 C 0.34812 0.63378 0.69972 0.0
C1020 C 0.32583 0.65699 0.67624 0.0
C1021 C 0.3059 0.66076 0.66268 0.0
C1022 C 0.30012 0.6447 0.64756 0.0
C1023 C 0.28118 0.64825 0.63497 0.0
C1024 C 0.26798 0.6679 0.63724 0.0
C1025 C 0.27374 0.68407 0.65207 0.0
C1026 C 0.29264 0.68058 0.66472 0.0
C1027 C 0.42036 0.69916 0.6828 0.0
C1028 C 0.41524 0.72185 0.68787 0.0
C1029 C 0.40329 0.68258 0.6827 0.0
C1030 C 0.38082 0.68827 0.68802 0.0
C1031 C 0.37566 0.71095 0.69303 0.0
C1032 C 0.39272 0.72755 0.69307 0.0
C1033 C 0.36278 0.67054 0.68867 0.0
C1034 C 0.34299 0.67363 0.6769 0.0
C1035 C 0.36525 0.65042 0.70039 0.0
C1036 C 0.38509 0.64667 0.71405 0.0
C1037 C 0.39058 0.66262 0.72935 0.0
C1038 C 0.40943 0.65909 0.74204 0.0
C1039 C 0.42282 0.63959 0.73969 0.0
C1040 C 0.41735 0.62354 0.72467 0.0
C1041 C 0.39853 0.627 0.71192 0.0
H1042 H 0.43741 0.63688 0.74953 0.0
H1043 H 0.25333 0.67062 0.62748 0.0
H1044 H 0.57686 0.7131 0.30405 0.0
H1045 H 0.60596 0.6833 0.3044 0.0
H1046 H 0.63196 0.70928 0.36157 0.0
H1047 H 0.60258 0.73868 0.36162 0.0
H1048 H 0.6664 0.69927 0.33446 0.0
H1049 H 0.60066 0.6626 0.36179 0.0
H1050 H 0.56053 0.65041 0.36294 0.0
H1051 H 0.56953 0.61277 0.30715 0.0
H1052 H 0.60966 0.62502 0.3055 0.0
H1053 H 0.73283 0.60202 0.36108 0.0
H1054 H 0.70453 0.63239 0.36104 0.0
H1055 H 0.6787 0.60849 0.30309 0.0
H1056 H 0.70759 0.57838 0.30268 0.0
H1057 H 0.64456 0.61774 0.33107 0.0
H1058 H 0.71094 0.65491 0.30422 0.0
H1059 H 0.75121 0.66673 0.30418 0.0
H1060 H 0.74104 0.70319 0.36044 0.0
H1061 H 0.70076 0.69128 0.36098 0.0
C1062 C 0.58879 0.71251 0.31669 0.0
C1063 C 0.58766 0.7287 0.33255 0.0
C1064 C 0.60541 0.69545 0.31687 0.0
C1065 C 0.62115 0.69405 0.33301 0.0
C1066 C 0.62014 0.71019 0.34884 0.0
C1067 C 0.60344 0.72721 0.34872 0.0
C1068 C 0.63846 0.67557 0.33345 0.0
C1069 C 0.66162 0.68144 0.33399 0.0
C1070 C 0.63224 0.6523 0.33251 0.0
C1071 C 0.60811 0.64493 0.3334 0.0
C1072 C 0.59403 0.6519 0.34966 0.0
C1073 C 0.5713 0.64494 0.35042 0.0
C1074 C 0.56247 0.63088 0.33509 0.0
C1075 C 0.57638 0.6237 0.31899 0.0
C1076 C 0.59913 0.63063 0.31814 0.0
C1077 C 0.72167 0.60354 0.34801 0.0
C1078 C 0.72308 0.5882 0.3315 0.0
C1079 C 0.70525 0.6208 0.34815 0.0
C1080 C 0.68973 0.62294 0.33191 0.0
C1081 C 0.69061 0.60724 0.31573 0.0
C1082 C 0.70713 0.59006 0.31551 0.0
C1083 C 0.67247 0.64145 0.33192 0.0
C1084 C 0.64933 0.63558 0.33151 0.0
C1085 C 0.67871 0.6647 0.33311 0.0
C1086 C 0.70289 0.67201 0.33275 0.0
C1087 C 0.71733 0.66529 0.31668 0.0
C1088 C 0.74016 0.67203 0.31654 0.0
C1089 C 0.74869 0.68565 0.33232 0.0
C1090 C 0.73441 0.69261 0.34824 0.0
C1091 C 0.71157 0.68588 0.34846 0.0
H1092 H 0.76637 0.69085 0.33219 0.0
H1093 H 0.54486 0.6255 0.33572 0.0
H1094 H 0.7322 0.40437 0.65625 0.0
H1095 H 0.70411 0.37383 0.6564 0.0
H1096 H 0.68417 0.39253 0.71769 0.0
H1097 H 0.71305 0.42256 0.71796 0.0
H1098 H 0.68821 0.34718 0.7142 0.0
H1099 H 0.65182 0.40699 0.67581 0.0
H1100 H 0.64878 0.43555 0.64829 0.0
H1101 H 0.65461 0.38279 0.60305 0.0
H1102 H 0.658 0.35393 0.63031 0.0
H1103 H 0.58329 0.28787 0.71949 0.0
H1104 H 0.61265 0.31738 0.71856 0.0
H1105 H 0.63142 0.29633 0.65759 0.0
H1106 H 0.60163 0.26732 0.6582 0.0
H1107 H 0.62878 0.34197 0.66036 0.0
H1108 H 0.66454 0.28214 0.69814 0.0
H1109 H 0.66801 0.25319 0.72528 0.0
H1110 H 0.66396 0.3054 0.77119 0.0
H1111 H 0.66013 0.33466 0.74431 0.0
C1112 C 0.72227 0.4017 0.66995 0.0
C1113 C 0.7253 0.41555 0.6873 0.0
C1114 C 0.70589 0.38443 0.66988 0.0
C1115 C 0.69193 0.38092 0.68702 0.0
C1116 C 0.69479 0.39486 0.7043 0.0
C1117 C 0.71121 0.41209 0.70439 0.0
C1118 C 0.6744 0.36267 0.68701 0.0
C1119 C 0.67503 0.34623 0.70258 0.0
C1120 C 0.65759 0.36102 0.67152 0.0
C1121 C 0.65539 0.37833 0.6551 0.0
C1122 C 0.65262 0.4015 0.65999 0.0
C1123 C 0.65081 0.41773 0.64444 0.0
C1124 C 0.65156 0.41099 0.62393 0.0
C1125 C 0.65406 0.38799 0.61894 0.0
C1126 C 0.65591 0.37168 0.63443 0.0
C1127 C 0.59373 0.28949 0.70592 0.0
C1128 C 0.59055 0.27483 0.68915 0.0
C1129 C 0.61058 0.30628 0.70544 0.0
C1130 C 0.62452 0.30881 0.68814 0.0
C1131 C 0.62104 0.29452 0.67119 0.0
C1132 C 0.60422 0.27768 0.67169 0.0
C1133 C 0.64249 0.3266 0.68765 0.0
C1134 C 0.64197 0.34292 0.67197 0.0
C1135 C 0.65946 0.3281 0.703 0.0
C1136 C 0.66183 0.31057 0.71921 0.0
C1137 C 0.66421 0.28743 0.71403 0.0
C1138 C 0.66627 0.27097 0.72936 0.0
C1139 C 0.66614 0.27745 0.74994 0.0
C1140 C 0.66402 0.30041 0.75523 0.0
C1141 C 0.66192 0.31694 0.73996 0.0
H1142 H 0.66775 0.26468 0.76179 0.0
H1143 H 0.65016 0.42359 0.61191 0.0
H1144 H 0.88448 0.75081 0.82641 0.0
H1145 H 0.85443 0.77968 0.82722 0.0
H1146 H 0.90343 0.8302 0.84605 0.0
H1147 H 0.9335 0.80126 0.84565 0.0
H1148 H 0.86327 0.83352 0.86775 0.0
H1149 H 0.88686 0.82796 0.79741 0.0
H1150 H 0.89499 0.80802 0.765 0.0
H1151 H 0.82543 0.78592 0.76143 0.0
H1152 H 0.81696 0.80548 0.79399 0.0
H1153 H 0.8023 0.93457 0.8433 0.0
H1154 H 0.83072 0.90401 0.84459 0.0
H1155 H 0.78002 0.85574 0.82463 0.0
H1156 H 0.7517 0.88628 0.82298 0.0
H1157 H 0.82001 0.85029 0.80422 0.0
H1158 H 0.7958 0.85673 0.87371 0.0
H1159 H 0.78732 0.87636 0.90619 0.0
H1160 H 0.85738 0.8963 0.91169 0.0
H1161 H 0.86622 0.87709 0.87904 0.0
C1162 C 0.88878 0.76793 0.83116 0.0
C1163 C 0.9113 0.77368 0.83629 0.0
C1164 C 0.87163 0.78448 0.83138 0.0
C1165 C 0.87671 0.80713 0.83661 0.0
C1166 C 0.89912 0.81283 0.84201 0.0
C1167 C 0.91628 0.79632 0.84168 0.0
C1168 C 0.85881 0.82501 0.83593 0.0
C1169 C 0.85398 0.83738 0.85381 0.0
C1170 C 0.84631 0.82966 0.81786 0.0
C1171 C 0.85134 0.81798 0.79824 0.0
C1172 C 0.87334 0.81869 0.7898 0.0
C1173 C 0.878 0.80749 0.77139 0.0
C1174 C 0.86075 0.79565 0.76119 0.0
C1175 C 0.83878 0.79506 0.76936 0.0
C1176 C 0.83404 0.80621 0.78779 0.0
C1177 C 0.79725 0.91743 0.83919 0.0
C1178 C 0.77467 0.91272 0.83347 0.0
C1179 C 0.81344 0.89997 0.84004 0.0
C1180 C 0.8074 0.87751 0.83501 0.0
C1181 C 0.785 0.87289 0.82876 0.0
C1182 C 0.76877 0.89032 0.82805 0.0
C1183 C 0.82454 0.85891 0.83601 0.0
C1184 C 0.82923 0.84641 0.81819 0.0
C1185 C 0.83685 0.8541 0.85415 0.0
C1186 C 0.83162 0.86567 0.87381 0.0
C1187 C 0.80936 0.86548 0.88174 0.0
C1188 C 0.8045 0.87649 0.9002 0.0
C1189 C 0.82179 0.88762 0.91097 0.0
C1190 C 0.844 0.8877 0.90331 0.0
C1191 C 0.84895 0.87674 0.88483 0.0
H1192 H 0.81799 0.89613 0.92527 0.0
H1193 H 0.8644 0.78699 0.74693 0.0
H1194 H 0.76851 0.09941 0.15723 0.0
H1195 H 0.79719 0.12939 0.15694 0.0
H1196 H 0.81894 0.10957 0.21745 0.0
H1197 H 0.78947 0.08017 0.21821 0.0
H1198 H 0.81595 0.15492 0.21464 0.0
H1199 H 0.8493 0.09487 0.17414 0.0
H1200 H 0.85043 0.06686 0.14601 0.0
H1201 H 0.84408 0.12076 0.10199 0.0
H1202 H 0.84261 0.14907 0.12988 0.0
H1203 H 0.92184 0.21222 0.21836 0.0
H1204 H 0.89207 0.18314 0.21761 0.0
H1205 H 0.87251 0.20478 0.15701 0.0
H1206 H 0.90281 0.23322 0.15735 0.0
H1207 H 0.87348 0.15951 0.15925 0.0
H1208 H 0.8407 0.21957 0.19888 0.0
H1209 H 0.8389 0.24814 0.22652 0.0
H1210 H 0.84324 0.19507 0.27153 0.0
H1211 H 0.84539 0.16619 0.24414 0.0
C1212 C 0.77895 0.10174 0.17069 0.0
C1213 C 0.77626 0.08774 0.18797 0.0
C1214 C 0.79568 0.11867 0.17036 0.0
C1215 C 0.81035 0.12169 0.18713 0.0
C1216 C 0.80779 0.10763 0.20435 0.0
C1217 C 0.79102 0.09075 0.20471 0.0
C1218 C 0.8283 0.13955 0.18684 0.0
C1219 C 0.82871 0.15573 0.20267 0.0
C1220 C 0.84456 0.14106 0.1709 0.0
C1221 C 0.84563 0.12407 0.15411 0.0
C1222 C 0.84799 0.10074 0.15847 0.0
C1223 C 0.84871 0.08481 0.14256 0.0
C1224 C 0.84727 0.09202 0.12223 0.0
C1225 C 0.84517 0.11519 0.11775 0.0
C1226 C 0.84441 0.13119 0.1336 0.0
C1227 C 0.91118 0.2108 0.20488 0.0
C1228 C 0.91429 0.22552 0.18816 0.0
C1229 C 0.89407 0.19426 0.20452 0.0
C1230 C 0.87971 0.19207 0.18742 0.0
C1231 C 0.88318 0.20633 0.17048 0.0
C1232 C 0.90031 0.22287 0.17083 0.0
C1233 C 0.86125 0.17474 0.18717 0.0
C1234 C 0.86071 0.15871 0.17121 0.0
C1235 C 0.84478 0.17342 0.20294 0.0
C1236 C 0.84342 0.19073 0.21945 0.0
C1237 C 0.84145 0.214 0.21467 0.0
C1238 C 0.84034 0.23025 0.23029 0.0
C1239 C 0.84101 0.22343 0.25077 0.0
C1240 C 0.84274 0.20033 0.25566 0.0
C1241 C 0.84389 0.18401 0.2401 0.0
H1242 H 0.84014 0.23603 0.26284 0.0
H1243 H 0.84782 0.07966 0.10994 0.0
H1244 H 0.06532 0.19828 0.84169 0.0
H1245 H 0.09574 0.16982 0.84255 0.0
H1246 H 0.14463 0.22133 0.82593 0.0
H1247 H 0.11417 0.24967 0.82438 0.0
H1248 H 0.15117 0.18338 0.80419 0.0
H1249 H 0.14164 0.20139 0.87494 0.0
H1250 H 0.12065 0.2071 0.90719 0.0
H1251 H 0.10008 0.13697 0.9067 0.0
H1252 H 0.12068 0.13091 0.87425 0.0
H1253 H 0.24867 0.11558 0.82454 0.0
H1254 H 0.22014 0.14578 0.82618 0.0
H1255 H 0.16869 0.09632 0.84151 0.0
H1256 H 0.1974 0.06607 0.84061 0.0
H1257 H 0.16458 0.13436 0.86485 0.0
H1258 H 0.17322 0.11715 0.79315 0.0
H1259 H 0.19466 0.11182 0.76106 0.0
H1260 H 0.21749 0.18119 0.7638 0.0
H1261 H 0.19642 0.18685 0.79607 0.0
C1262 C 0.08256 0.20355 0.83826 0.0
C1263 C 0.08739 0.22637 0.83344 0.0
C1264 C 0.09996 0.1873 0.8389 0.0
C1265 C 0.12257 0.1935 0.83468 0.0
C1266 C 0.12737 0.21619 0.82947 0.0
C1267 C 0.10996 0.23246 0.82885 0.0
C1268 C 0.14106 0.17618 0.83519 0.0
C1269 C 0.15432 0.17291 0.81757 0.0
C1270 C 0.14492 0.1622 0.85251 0.0
C1271 C 0.13253 0.16576 0.87205 0.0
C1272 C 0.13249 0.18723 0.88161 0.0
C1273 C 0.12068 0.19052 0.89995 0.0
C1274 C 0.10899 0.17242 0.90896 0.0
C1275 C 0.10912 0.15098 0.89968 0.0
C1276 C 0.12088 0.1476 0.88133 0.0
C1277 C 0.23143 0.11115 0.82874 0.0
C1278 C 0.22541 0.08845 0.83286 0.0
C1279 C 0.21503 0.12843 0.82937 0.0
C1280 C 0.19222 0.12332 0.83385 0.0
C1281 C 0.18619 0.10069 0.83807 0.0
C1282 C 0.20259 0.0834 0.83744 0.0
C1283 C 0.17455 0.14149 0.8338 0.0
C1284 C 0.16145 0.1449 0.8515 0.0
C1285 C 0.17088 0.15568 0.81659 0.0
C1286 C 0.18343 0.15235 0.79712 0.0
C1287 C 0.18295 0.13122 0.78699 0.0
C1288 C 0.19501 0.12815 0.76876 0.0
C1289 C 0.20747 0.14614 0.76043 0.0
C1290 C 0.20785 0.16726 0.77028 0.0
C1291 C 0.19584 0.17042 0.78853 0.0
H1292 H 0.2168 0.14373 0.74631 0.0
H1293 H 0.09987 0.175 0.92316 0.0
H1294 H 0.21538 0.91817 0.21801 0.0
H1295 H 0.18656 0.88812 0.21796 0.0
H1296 H 0.20577 0.86955 0.15645 0.0
H1297 H 0.234 0.90006 0.15617 0.0
H1298 H 0.16049 0.87092 0.16027 0.0
H1299 H 0.22206 0.83693 0.19701 0.0
H1300 H 0.25186 0.83425 0.22352 0.0
H1301 H 0.20093 0.83755 0.27054 0.0
H1302 H 0.17083 0.84058 0.2443 0.0
H1303 H 0.0999 0.76641 0.15819 0.0
H1304 H 0.13032 0.79464 0.1577 0.0
H1305 H 0.11229 0.81567 0.21885 0.0
H1306 H 0.08232 0.78672 0.21973 0.0
H1307 H 0.15796 0.81207 0.21467 0.0
H1308 H 0.09644 0.84684 0.17711 0.0
H1309 H 0.06715 0.84893 0.1501 0.0
H1310 H 0.11885 0.84332 0.10395 0.0
H1311 H 0.14844 0.84089 0.13071 0.0
C1312 C 0.21349 0.90764 0.2045 0.0
C1313 C 0.22743 0.91111 0.18731 0.0
C1314 C 0.19711 0.89038 0.20452 0.0
C1315 C 0.19428 0.87627 0.18734 0.0
C1316 C 0.20783 0.88004 0.16998 0.0
C1317 C 0.22424 0.89729 0.16996 0.0
C1318 C 0.17688 0.8579 0.18736 0.0
C1319 C 0.16014 0.85786 0.172 0.0
C1320 C 0.17616 0.84107 0.20285 0.0
C1321 C 0.19421 0.83921 0.21868 0.0
C1322 C 0.21723 0.83728 0.21301 0.0
C1323 C 0.23417 0.83566 0.22798 0.0
C1324 C 0.2283 0.83579 0.2487 0.0
C1325 C 0.20546 0.83748 0.25448 0.0
C1326 C 0.18845 0.83913 0.23956 0.0
C1327 C 0.10273 0.77658 0.17174 0.0
C1328 C 0.08903 0.7739 0.1892 0.0
C1329 C 0.11992 0.79303 0.1713 0.0
C1330 C 0.12354 0.80738 0.1882 0.0
C1331 C 0.10987 0.80476 0.20565 0.0
C1332 C 0.09268 0.7883 0.20609 0.0
C1333 C 0.14149 0.82521 0.18768 0.0
C1334 C 0.15835 0.82512 0.20293 0.0
C1335 C 0.14239 0.84185 0.17202 0.0
C1336 C 0.12463 0.84346 0.15592 0.0
C1337 C 0.10155 0.84589 0.1612 0.0
C1338 C 0.08489 0.84716 0.14594 0.0
C1339 C 0.09113 0.8462 0.12532 0.0
C1340 C 0.11405 0.84403 0.11993 0.0
C1341 C 0.13077 0.84272 0.13513 0.0
H1342 H 0.07821 0.84719 0.11353 0.0
H1343 H 0.24144 0.83453 0.26027 0.0
H1344 H 0.16336 0.54816 0.3355 0.0
H1345 H 0.1524 0.57669 0.31013 0.0
H1346 H 0.1681 0.52929 0.26161 0.0
H1347 H 0.18035 0.50113 0.28712 0.0
H1348 H 0.17601 0.57022 0.24826 0.0
H1349 H 0.1132 0.53529 0.28185 0.0
H1350 H 0.08964 0.52253 0.31086 0.0
H1351 H 0.08028 0.59192 0.32988 0.0
H1352 H 0.10412 0.60507 0.30116 0.0
H1353 H 0.08849 0.61135 0.17909 0.0
H1354 H 0.11329 0.58935 0.20186 0.0
H1355 H 0.11308 0.64457 0.24536 0.0
H1356 H 0.08861 0.6669 0.22253 0.0
H1357 H 0.09839 0.60068 0.26064 0.0
H1358 H 0.1604 0.63417 0.22287 0.0
H1359 H 0.18164 0.64382 0.19153 0.0
H1360 H 0.18892 0.57278 0.17735 0.0
H1361 H 0.16743 0.56271 0.20846 0.0
C1362 C 0.16515 0.54412 0.3194 0.0
C1363 C 0.17265 0.52246 0.31324 0.0
C1364 C 0.15865 0.56034 0.30488 0.0
C1365 C 0.15864 0.55493 0.28392 0.0
C1366 C 0.16775 0.53387 0.27768 0.0
C1367 C 0.17484 0.51779 0.29224 0.0
C1368 C 0.14737 0.57041 0.26886 0.0
C1369 C 0.15898 0.57672 0.25093 0.0
C1370 C 0.12506 0.57898 0.27219 0.0
C1371 C 0.11067 0.57115 0.28948 0.0
C1372 C 0.10627 0.54782 0.29231 0.0
C1373 C 0.09285 0.54052 0.3087 0.0
C1374 C 0.08352 0.5564 0.32225 0.0
C1375 C 0.08756 0.57963 0.3194 0.0
C1376 C 0.10102 0.58702 0.30307 0.0
C1377 C 0.09413 0.61903 0.1933 0.0
C1378 C 0.08651 0.64088 0.19901 0.0
C1379 C 0.10834 0.60644 0.20627 0.0
C1380 C 0.115 0.61532 0.2253 0.0
C1381 C 0.10816 0.63743 0.23071 0.0
C1382 C 0.09425 0.65021 0.2176 0.0
C1383 C 0.12718 0.60072 0.24033 0.0
C1384 C 0.11555 0.59438 0.25816 0.0
C1385 C 0.14911 0.59167 0.23657 0.0
C1386 C 0.16212 0.5977 0.21791 0.0
C1387 C 0.16635 0.62061 0.21298 0.0
C1388 C 0.17848 0.62615 0.19527 0.0
C1389 C 0.18658 0.60892 0.18243 0.0
C1390 C 0.18262 0.58611 0.1873 0.0
C1391 C 0.17049 0.58047 0.20498 0.0
H1392 H 0.19597 0.61325 0.16873 0.0
H1393 H 0.07313 0.55072 0.33492 0.0
H1394 H 0.53898 0.85569 0.68872 0.0
H1395 H 0.56798 0.86579 0.71413 0.0
H1396 H 0.53529 0.82249 0.75844 0.0
H1397 H 0.50651 0.81175 0.73287 0.0
H1398 H 0.54365 0.87203 0.7695 0.0
H1399 H 0.58151 0.80439 0.74487 0.0
H1400 H 0.59738 0.77931 0.71816 0.0
H1401 H 0.64324 0.83227 0.69958 0.0
H1402 H 0.62739 0.8578 0.72599 0.0
H1403 H 0.62044 0.89915 0.84749 0.0
H1404 H 0.59748 0.87565 0.82451 0.0
H1405 H 0.64016 0.89524 0.77376 0.0
H1406 H 0.66394 0.91769 0.79698 0.0
H1407 H 0.6263 0.85464 0.76688 0.0
H1408 H 0.58839 0.9234 0.78635 0.0
H1409 H 0.57287 0.95194 0.81031 0.0
H1410 H 0.52713 0.90199 0.83489 0.0
H1411 H 0.54262 0.87305 0.81126 0.0
C1412 C 0.5382 0.84797 0.70376 0.0
C1413 C 0.52047 0.83289 0.70878 0.0
C1414 C 0.55479 0.85375 0.71824 0.0
C1415 C 0.55376 0.8449 0.73816 0.0
C1416 C 0.5364 0.82945 0.74313 0.0
C1417 C 0.52006 0.82324 0.72848 0.0
C1418 C 0.5699 0.85313 0.75405 0.0
C1419 C 0.56166 0.86787 0.76924 0.0
C1420 C 0.59349 0.84844 0.75311 0.0
C1421 C 0.60311 0.83308 0.73729 0.0
C1422 C 0.59483 0.81076 0.73496 0.0
C1423 C 0.60385 0.79645 0.71991 0.0
C1424 C 0.62127 0.80421 0.70715 0.0
C1425 C 0.62973 0.82629 0.70946 0.0
C1426 C 0.62075 0.84068 0.72449 0.0
C1427 C 0.62527 0.89796 0.83153 0.0
C1428 C 0.64391 0.91039 0.82402 0.0
C1429 C 0.61199 0.88469 0.81833 0.0
C1430 C 0.61654 0.88422 0.7972 0.0
C1431 C 0.6361 0.89539 0.78994 0.0
C1432 C 0.64975 0.90822 0.80324 0.0
C1433 C 0.60011 0.87357 0.78256 0.0
C1434 C 0.60827 0.85858 0.76744 0.0
C1435 C 0.57645 0.87856 0.78317 0.0
C1436 C 0.56685 0.896 0.79719 0.0
C1437 C 0.57511 0.91847 0.79695 0.0
C1438 C 0.56632 0.93472 0.81046 0.0
C1439 C 0.54908 0.92876 0.82416 0.0
C1440 C 0.54053 0.90656 0.8243 0.0
C1441 C 0.5493 0.89023 0.81084 0.0
H1442 H 0.54232 0.94136 0.83463 0.0
H1443 H 0.62824 0.7931 0.6955 0.0
H1444 H 0.8483 0.45741 0.33813 0.0
H1445 H 0.86005 0.42788 0.31397 0.0
H1446 H 0.82998 0.46609 0.26441 0.0
H1447 H 0.81697 0.495 0.28884 0.0
H1448 H 0.82584 0.42381 0.25564 0.0
H1449 H 0.88883 0.46892 0.27753 0.0
H1450 H 0.91503 0.48729 0.302 0.0
H1451 H 0.93512 0.42177 0.32493 0.0
H1452 H 0.90878 0.40302 0.30078 0.0
H1453 H 0.90782 0.38615 0.17924 0.0
H1454 H 0.88416 0.40771 0.20333 0.0
H1455 H 0.89451 0.3559 0.24909 0.0
H1456 H 0.9177 0.33392 0.22494 0.0
H1457 H 0.90774 0.40348 0.25959 0.0
H1458 H 0.8449 0.35946 0.2332 0.0
H1459 H 0.82027 0.34416 0.20588 0.0
H1460 H 0.80235 0.4121 0.18768 0.0
H1461 H 0.82716 0.42782 0.21471 0.0
C1462 C 0.84377 0.45924 0.32214 0.0
C1463 C 0.83184 0.47856 0.31535 0.0
C1464 C 0.85068 0.44245 0.30828 0.0
C1465 C 0.84663 0.44504 0.28718 0.0
C1466 C 0.83351 0.46369 0.28054 0.0
C1467 C 0.82603 0.48023 0.29452 0.0
C1468 C 0.85726 0.42912 0.27207 0.0
C1469 C 0.84379 0.41955 0.25645 0.0
C1470 C 0.88073 0.42337 0.27299 0.0
C1471 C 0.89665 0.43458 0.2875 0.0
C1472 C 0.89872 0.45844 0.28789 0.0
C1473 C 0.9136 0.46892 0.30169 0.0
C1474 C 0.92668 0.45571 0.31505 0.0
C1475 C 0.92494 0.43198 0.3146 0.0
C1476 C 0.91005 0.42142 0.30085 0.0
C1477 C 0.90461 0.37907 0.19427 0.0
C1478 C 0.91467 0.35831 0.20017 0.0
C1479 C 0.89107 0.39141 0.20801 0.0
C1480 C 0.88763 0.38342 0.22799 0.0
C1481 C 0.89692 0.36232 0.2337 0.0
C1482 C 0.91008 0.34974 0.21984 0.0
C1483 C 0.87628 0.39811 0.24346 0.0
C1484 C 0.88973 0.4076 0.259 0.0
C1485 C 0.85304 0.40424 0.24207 0.0
C1486 C 0.83807 0.39481 0.22586 0.0
C1487 C 0.83588 0.37114 0.22325 0.0
C1488 C 0.82185 0.36239 0.20784 0.0
C1489 C 0.8098 0.37715 0.19502 0.0
C1490 C 0.81172 0.40069 0.19761 0.0
C1491 C 0.82574 0.40952 0.21298 0.0
H1492 H 0.79894 0.37034 0.1831 0.0
H1493 H 0.9382 0.46385 0.32573 0.0
H1494 H 0.38596 0.09173 0.8392 0.0
H1495 H 0.408 0.11536 0.81555 0.0
H1496 H 0.35493 0.10906 0.77029 0.0
H1497 H 0.33248 0.08586 0.79406 0.0
H1498 H 0.40131 0.09419 0.75846 0.0
H1499 H 0.36158 0.15819 0.78798 0.0
H1500 H 0.3483 0.18231 0.81648 0.0
H1501 H 0.41752 0.19525 0.83419 0.0
H1502 H 0.43121 0.17092 0.80596 0.0
H1503 H 0.45783 0.15415 0.6817 0.0
H1504 H 0.42805 0.1427 0.70565 0.0
H1505 H 0.46825 0.16837 0.75597 0.0
H1506 H 0.49747 0.18112 0.73179 0.0
H1507 H 0.42658 0.17442 0.76528 0.0
H1508 H 0.46756 0.11 0.74044 0.0
H1509 H 0.484 0.08351 0.71513 0.0
H1510 H 0.4171 0.0681 0.69249 0.0
H1511 H 0.40028 0.09479 0.71747 0.0
C1512 C 0.37871 0.09586 0.8244 0.0
C1513 C 0.35746 0.0869 0.8185 0.0
C1514 C 0.39133 0.10937 0.81091 0.0
C1515 C 0.38313 0.11391 0.79116 0.0
C1516 C 0.36154 0.10578 0.7855 0.0
C1517 C 0.34868 0.09264 0.79914 0.0
C1518 C 0.39806 0.12512 0.77584 0.0
C1519 C 0.40649 0.11187 0.75967 0.0
C1520 C 0.40562 0.14785 0.77804 0.0
C1521 C 0.39741 0.16256 0.79496 0.0
C1522 C 0.37397 0.16601 0.79806 0.0
C1523 C 0.36636 0.17976 0.81414 0.0
C1524 C 0.38205 0.19026 0.82717 0.0
C1525 C 0.40538 0.18709 0.8241 0.0
C1526 C 0.41307 0.17334 0.80805 0.0
C1527 C 0.46005 0.15781 0.69784 0.0
C1528 C 0.47998 0.16845 0.7049 0.0
C1529 C 0.44312 0.15104 0.71158 0.0
C1530 C 0.44614 0.15393 0.73278 0.0
C1531 C 0.46549 0.16576 0.73975 0.0
C1532 C 0.48219 0.17311 0.72591 0.0
C1533 C 0.42979 0.14354 0.74762 0.0
C1534 C 0.42125 0.15681 0.76383 0.0
C1535 C 0.42261 0.12053 0.74585 0.0
C1536 C 0.43268 0.1046 0.73068 0.0
C1537 C 0.45637 0.10112 0.72995 0.0
C1538 C 0.46575 0.08604 0.71568 0.0
C1539 C 0.45161 0.07418 0.70217 0.0
C1540 C 0.42804 0.07735 0.70293 0.0
C1541 C 0.41857 0.09244 0.71714 0.0
H1542 H 0.4589 0.06248 0.69116 0.0
H1543 H 0.37613 0.2009 0.83961 0.0
H1544 H 0.19317 0.48772 0.72977 0.0
H1545 H 0.18335 0.45866 0.75529 0.0
H1546 H 0.12676 0.43722 0.71785 0.0
H1547 H 0.13654 0.46571 0.69238 0.0
H1548 H 0.1457 0.45566 0.77767 0.0
H1549 H 0.11479 0.38241 0.72421 0.0
H1550 H 0.12551 0.36517 0.69116 0.0
H1551 H 0.19408 0.38904 0.69873 0.0
H1552 H 0.18388 0.40615 0.73195 0.0
H1553 H 0.05964 0.39238 0.82351 0.0
H1554 H 0.08473 0.41457 0.80195 0.0
H1555 H 0.13034 0.3572 0.79666 0.0
H1556 H 0.10422 0.33419 0.81753 0.0
H1557 H 0.12681 0.3753 0.76155 0.0
H1558 H 0.14283 0.40827 0.82691 0.0
H1559 H 0.13346 0.42508 0.8605 0.0
H1560 H 0.09901 0.48046 0.83076 0.0
H1561 H 0.10807 0.46397 0.79704 0.0
C1562 C 0.17892 0.4765 0.7268 0.0
C1563 C 0.16565 0.47913 0.709 0.0
C1564 C 0.17325 0.45997 0.74146 0.0
C1565 C 0.1544 0.44558 0.73847 0.0
C1566 C 0.14161 0.44777 0.72042 0.0
C1567 C 0.14718 0.46425 0.70587 0.0
C1568 C 0.14683 0.4294 0.75469 0.0
C1569 C 0.14183 0.43801 0.77423 0.0
C1570 C 0.14216 0.40622 0.75041 0.0
C1571 C 0.14851 0.39568 0.73055 0.0
C1572 C 0.1322 0.38386 0.7189 0.0
C1573 C 0.13818 0.37414 0.70011 0.0
C1574 C 0.16045 0.37605 0.69283 0.0
C1575 C 0.17682 0.38763 0.70435 0.0
C1576 C 0.17093 0.39738 0.72315 0.0
C1577 C 0.07514 0.38444 0.81802 0.0
C1578 C 0.07998 0.36149 0.82244 0.0
C1579 C 0.08965 0.39731 0.80575 0.0
C1580 C 0.1099 0.38791 0.79803 0.0
C1581 C 0.11494 0.36498 0.80252 0.0
C1582 C 0.10006 0.35185 0.81451 0.0
C1583 C 0.12483 0.40179 0.78433 0.0
C1584 C 0.13114 0.39278 0.76522 0.0
C1585 C 0.13104 0.42454 0.78913 0.0
C1586 C 0.12611 0.43484 0.80943 0.0
C1587 C 0.13325 0.42403 0.82754 0.0
C1588 C 0.128 0.43352 0.84661 0.0
C1589 C 0.11567 0.45385 0.84777 0.0
C1590 C 0.10865 0.46478 0.82986 0.0
C1591 C 0.1139 0.45541 0.81076 0.0
H1592 H 0.11155 0.46112 0.86254 0.0
H1593 H 0.16504 0.36852 0.67828 0.0
H1594 H 0.45736 0.85756 0.33636 0.0
H1595 H 0.42928 0.86852 0.31074 0.0
H1596 H 0.46127 0.82405 0.26675 0.0
H1597 H 0.48947 0.8127 0.29257 0.0
H1598 H 0.43917 0.89118 0.27711 0.0
H1599 H 0.42096 0.81055 0.22922 0.0
H1600 H 0.41859 0.76892 0.23379 0.0
H1601 H 0.4009 0.77823 0.297 0.0
H1602 H 0.40287 0.8199 0.29274 0.0
H1603 H 0.39463 0.92274 0.18214 0.0
H1604 H 0.41641 0.89952 0.20608 0.0
H1605 H 0.35443 0.87951 0.23634 0.0
H1606 H 0.33228 0.90296 0.21242 0.0
H1607 H 0.38947 0.84345 0.23309 0.0
H1608 H 0.3795 0.92106 0.25645 0.0
H1609 H 0.38077 0.96279 0.25236 0.0
H1610 H 0.45265 0.95943 0.24075 0.0
H1611 H 0.45172 0.91762 0.24448 0.0
C1612 C 0.45821 0.84969 0.32138 0.0
C1613 C 0.47582 0.83434 0.31651 0.0
C1614 C 0.44214 0.85607 0.30669 0.0
C1615 C 0.44318 0.84729 0.28672 0.0
C1616 C 0.45995 0.83095 0.28208 0.0
C1617 C 0.47607 0.82444 0.29688 0.0
C1618 C 0.42806 0.85695 0.27054 0.0
C1619 C 0.42832 0.88064 0.26756 0.0
C1620 C 0.41381 0.84335 0.25799 0.0
C1621 C 0.41229 0.81834 0.26069 0.0
C1622 C 0.41648 0.80371 0.24407 0.0
C1623 C 0.41522 0.78011 0.24661 0.0
C1624 C 0.40967 0.77094 0.26569 0.0
C1625 C 0.40529 0.78535 0.28225 0.0
C1626 C 0.40651 0.80897 0.27979 0.0
C1627 C 0.38547 0.91309 0.19359 0.0
C1628 C 0.36164 0.91502 0.19547 0.0
C1629 C 0.39801 0.89977 0.20727 0.0
C1630 C 0.38708 0.88797 0.22312 0.0
C1631 C 0.3632 0.88848 0.2242 0.0
C1632 C 0.35058 0.90195 0.21054 0.0
C1633 C 0.40081 0.87749 0.23979 0.0
C1634 C 0.40036 0.85381 0.24274 0.0
C1635 C 0.41482 0.89105 0.25251 0.0
C1636 C 0.41549 0.91621 0.25057 0.0
C1637 C 0.39554 0.92921 0.25289 0.0
C1638 C 0.39621 0.95287 0.25065 0.0
C1639 C 0.41677 0.96375 0.24626 0.0
C1640 C 0.43673 0.95098 0.24414 0.0
C1641 C 0.43615 0.92731 0.24633 0.0
H1642 H 0.41725 0.98207 0.24453 0.0
H1643 H 0.40872 0.75266 0.26763 0.0
H1644 H 0.87064 0.52858 0.69339 0.0
H1645 H 0.87965 0.55776 0.71846 0.0
H1646 H 0.81269 0.55086 0.7448 0.0
H1647 H 0.8037 0.52086 0.71993 0.0
H1648 H 0.86564 0.59772 0.72847 0.0
H1649 H 0.81634 0.55965 0.79654 0.0
H1650 H 0.80165 0.52253 0.80834 0.0
H1651 H 0.85357 0.48797 0.77401 0.0
H1652 H 0.86871 0.52486 0.76224 0.0
H1653 H 0.8979 0.66986 0.81118 0.0
H1654 H 0.87251 0.64896 0.78795 0.0
H1655 H 0.90085 0.58543 0.80935 0.0
H1656 H 0.92496 0.60587 0.8331 0.0
H1657 H 0.86005 0.57774 0.80202 0.0
H1658 H 0.91942 0.61628 0.76355 0.0
H1659 H 0.94067 0.64987 0.7514 0.0
H1660 H 0.8793 0.67764 0.72571 0.0
H1661 H 0.85767 0.64429 0.73791 0.0
C1662 C 0.85766 0.5333 0.70437 0.0
C1663 C 0.83648 0.5221 0.7047 0.0
C1664 C 0.86284 0.55017 0.7187 0.0
C1665 C 0.84699 0.55645 0.73375 0.0
C1666 C 0.82538 0.5461 0.73357 0.0
C1667 C 0.82022 0.529 0.71927 0.0
C1668 C 0.85392 0.57276 0.75017 0.0
C1669 C 0.86418 0.59344 0.74457 0.0
C1670 C 0.85231 0.56722 0.77122 0.0
C1671 C 0.84341 0.54498 0.7783 0.0
C1672 C 0.82461 0.54411 0.79154 0.0
C1673 C 0.81622 0.52312 0.79823 0.0
C1674 C 0.82661 0.5029 0.79185 0.0
C1675 C 0.84547 0.50363 0.77886 0.0
C1676 C 0.85395 0.52457 0.77217 0.0
C1677 C 0.89833 0.65142 0.8112 0.0
C1678 C 0.91366 0.63963 0.82394 0.0
C1679 C 0.88393 0.63946 0.79777 0.0
C1680 C 0.88502 0.61552 0.79645 0.0
C1681 C 0.89951 0.60382 0.80994 0.0
C1682 C 0.91346 0.61566 0.82357 0.0
C1683 C 0.87255 0.60238 0.78032 0.0
C1684 C 0.86107 0.58232 0.78596 0.0
C1685 C 0.87393 0.60801 0.75925 0.0
C1686 C 0.88691 0.62797 0.75184 0.0
C1687 C 0.91046 0.62962 0.75541 0.0
C1688 C 0.92257 0.6486 0.74851 0.0
C1689 C 0.91133 0.66592 0.73785 0.0
C1690 C 0.88797 0.66425 0.73401 0.0
C1691 C 0.87578 0.64531 0.74091 0.0
H1692 H 0.92072 0.6806 0.73252 0.0
H1693 H 0.82007 0.48668 0.79703 0.0
H1694 H 0.51261 0.19265 0.29532 0.0
H1695 H 0.5425 0.18436 0.27017 0.0
H1696 H 0.5687 0.1313 0.30922 0.0
H1697 H 0.53899 0.13935 0.33431 0.0
H1698 H 0.60326 0.15719 0.28895 0.0
H1699 H 0.53036 0.12064 0.27439 0.0
H1700 H 0.48934 0.12329 0.26706 0.0
H1701 H 0.50335 0.15967 0.21155 0.0
H1702 H 0.54447 0.15865 0.21927 0.0
H1703 H 0.66072 0.07706 0.22776 0.0
H1704 H 0.63827 0.10008 0.2513 0.0
H1705 H 0.60381 0.13143 0.20009 0.0
H1706 H 0.62498 0.10674 0.17661 0.0
H1707 H 0.57401 0.12311 0.22463 0.0
H1708 H 0.64463 0.16011 0.23548 0.0
H1709 H 0.68574 0.16404 0.24231 0.0
H1710 H 0.67714 0.1328 0.30118 0.0
H1711 H 0.63603 0.1284 0.29461 0.0
C1712 C 0.52501 0.17953 0.29875 0.0
C1713 C 0.52321 0.16649 0.31674 0.0
C1714 C 0.54207 0.17481 0.28434 0.0
C1715 C 0.5577 0.15705 0.28773 0.0
C1716 C 0.55684 0.14506 0.30627 0.0
C1717 C 0.53971 0.1496 0.32055 0.0
C1718 C 0.57341 0.1492 0.27131 0.0
C1719 C 0.59697 0.14969 0.27486 0.0
C1720 C 0.56518 0.1402 0.2526 0.0
C1721 C 0.54052 0.13984 0.24757 0.0
C1722 C 0.52472 0.12941 0.26072 0.0
C1723 C 0.50142 0.13061 0.25649 0.0
C1724 C 0.49372 0.14145 0.23877 0.0
C1725 C 0.50933 0.15127 0.22529 0.0
C1726 C 0.53263 0.15054 0.22966 0.0
C1727 C 0.64871 0.08924 0.22152 0.0
C1728 C 0.64473 0.09025 0.20035 0.0
C1729 C 0.63589 0.10258 0.23503 0.0
C1730 C 0.61942 0.118 0.22767 0.0
C1731 C 0.61625 0.11971 0.20634 0.0
C1732 C 0.62851 0.10575 0.19287 0.0
C1733 C 0.60425 0.13073 0.24218 0.0
C1734 C 0.58064 0.13101 0.2384 0.0
C1735 C 0.61252 0.14109 0.26039 0.0
C1736 C 0.63724 0.1438 0.26448 0.0
C1737 C 0.65152 0.15396 0.24984 0.0
C1738 C 0.67483 0.15628 0.25367 0.0
C1739 C 0.68405 0.14863 0.27215 0.0
C1740 C 0.66998 0.1387 0.28687 0.0
C1741 C 0.64666 0.13633 0.28311 0.0
H1742 H 0.7021 0.15044 0.27508 0.0
H1743 H 0.47567 0.14227 0.2355 0.0
H1744 H 0.57828 0.10658 0.68448 0.0
H1745 H 0.60047 0.08428 0.70873 0.0
H1746 H 0.61959 0.14571 0.74062 0.0
H1747 H 0.59677 0.16825 0.71661 0.0
H1748 H 0.64212 0.07973 0.72134 0.0
H1749 H 0.62097 0.13502 0.79194 0.0
H1750 H 0.59163 0.16231 0.80346 0.0
H1751 H 0.54265 0.13106 0.7635 0.0
H1752 H 0.57159 0.10344 0.75198 0.0
H1753 H 0.69487 0.02312 0.80592 0.0
H1754 H 0.68397 0.05298 0.78153 0.0
H1755 H 0.61379 0.04612 0.80003 0.0
H1756 H 0.62461 0.01731 0.82482 0.0
H1757 H 0.62078 0.08789 0.79441 0.0
H1758 H 0.6378 0.02067 0.75475 0.0
H1759 H 0.66185 0.98908 0.74233 0.0
H1760 H 0.71044 0.03702 0.71893 0.0
H1761 H 0.68677 0.06889 0.73143 0.0
C1762 C 0.58743 0.11549 0.69646 0.0
C1763 C 0.58542 0.13927 0.69869 0.0
C1764 C 0.60024 0.10264 0.71033 0.0
C1765 C 0.61144 0.11318 0.72679 0.0
C1766 C 0.61076 0.13708 0.72829 0.0
C1767 C 0.59779 0.14999 0.71445 0.0
C1768 C 0.62222 0.09888 0.74305 0.0
C1769 C 0.63763 0.08168 0.73735 0.0
C1770 C 0.61611 0.101 0.76394 0.0
C1771 C 0.59853 0.1174 0.77091 0.0
C1772 C 0.60392 0.13397 0.78566 0.0
C1773 C 0.58736 0.14948 0.79219 0.0
C1774 C 0.56532 0.14848 0.78415 0.0
C1775 C 0.55975 0.13189 0.76965 0.0
C1776 C 0.57623 0.11632 0.7631 0.0
C1777 C 0.67716 0.02817 0.8049 0.0
C1778 C 0.66066 0.01772 0.81735 0.0
C1779 C 0.6709 0.04516 0.79085 0.0
C1780 C 0.64794 0.05169 0.78862 0.0
C1781 C 0.63161 0.04158 0.80139 0.0
C1782 C 0.63787 0.02495 0.81559 0.0
C1783 C 0.64047 0.06845 0.77271 0.0
C1784 C 0.62568 0.08617 0.77847 0.0
C1785 C 0.64647 0.06623 0.75178 0.0
C1786 C 0.66067 0.04713 0.74423 0.0
C1787 C 0.65369 0.02445 0.74707 0.0
C1788 C 0.66724 0.00651 0.74001 0.0
C1789 C 0.6877 0.01104 0.72991 0.0
C1790 C 0.69462 0.03354 0.7268 0.0
C1791 C 0.68114 0.05154 0.73386 0.0
H1792 H 0.69816 0.99713 0.72445 0.0
H1793 H 0.55254 0.16052 0.78921 0.0
H1794 H 0.10657 0.4244 0.34116 0.0
H1795 H 0.0831 0.40071 0.31892 0.0
H1796 H 0.1419 0.38501 0.28198 0.0
H1797 H 0.16567 0.40837 0.30453 0.0
H1798 H 0.07368 0.40888 0.28106 0.0
H1799 H 0.13305 0.33494 0.25572 0.0
H1800 H 0.16373 0.3111 0.27013 0.0
H1801 H 0.13793 0.32256 0.33075 0.0
H1802 H 0.10692 0.34621 0.31669 0.0
H1803 H 0.03384 0.36555 0.18891 0.0
H1804 H 0.06121 0.37744 0.21484 0.0
H1805 H 0.04122 0.32122 0.25317 0.0
H1806 H 0.01371 0.30896 0.22706 0.0
H1807 H 0.08819 0.33053 0.25571 0.0
H1808 H 0.01745 0.3707 0.26185 0.0
H1809 H 0.98484 0.39326 0.24936 0.0
H1810 H 0.03005 0.4472 0.23174 0.0
H1811 H 0.06297 0.4248 0.24387 0.0
C1812 C 0.11466 0.41557 0.32855 0.0
C1813 C 0.13802 0.41845 0.32458 0.0
C1814 C 0.10116 0.40205 0.31577 0.0
C1815 C 0.11062 0.39108 0.29867 0.0
C1816 C 0.13417 0.39304 0.29519 0.0
C1817 C 0.14777 0.40647 0.3081 0.0
C1818 C 0.09544 0.37943 0.28359 0.0
C1819 C 0.07691 0.39171 0.27564 0.0
C1820 C 0.09934 0.35691 0.27655 0.0
C1821 C 0.11779 0.34254 0.28515 0.0
C1822 C 0.13387 0.33231 0.27212 0.0
C1823 C 0.15133 0.31884 0.28023 0.0
C1824 C 0.15282 0.31538 0.30134 0.0
C1825 C 0.13681 0.32533 0.3144 0.0
C1826 C 0.11931 0.3388 0.30637 0.0
C1827 C 0.03545 0.35542 0.20268 0.0
C1828 C 0.02131 0.33644 0.20598 0.0
C1829 C 0.05115 0.36228 0.21752 0.0
C1830 C 0.05299 0.35048 0.23612 0.0
C1831 C 0.04004 0.33062 0.23896 0.0
C1832 C 0.02431 0.32365 0.22401 0.0
C1833 C 0.06686 0.36021 0.2531 0.0
C1834 C 0.08506 0.34764 0.2613 0.0
C1835 C 0.06247 0.38236 0.26073 0.0
C1836 C 0.04269 0.39599 0.25362 0.0
C1837 C 0.02045 0.38731 0.25519 0.0
C1838 C 0.00191 0.40007 0.24819 0.0
C1839 C 0.00538 0.42163 0.23973 0.0
C1840 C 0.02739 0.43049 0.23829 0.0
C1841 C 0.046 0.41777 0.24524 0.0
H1842 H 0.991 0.43149 0.23431 0.0
H1843 H 0.16635 0.30496 0.30759 0.0
H1844 H 0.39749 0.8715 0.67555 0.0
H1845 H 0.37191 0.89432 0.6969 0.0
H1846 H 0.39849 0.86121 0.75088 0.0
H1847 H 0.42256 0.83707 0.72933 0.0
H1848 H 0.35731 0.87147 0.75823 0.0
H1849 H 0.41991 0.91462 0.72895 0.0
H1850 H 0.44218 0.92804 0.69931 0.0
H1851 H 0.3833 0.96268 0.6758 0.0
H1852 H 0.36057 0.94911 0.70511 0.0
H1853 H 0.35689 0.96133 0.83114 0.0
H1854 H 0.36607 0.93185 0.80606 0.0
H1855 H 0.3213 0.96372 0.76226 0.0
H1856 H 0.31168 0.99324 0.78754 0.0
H1857 H 0.36618 0.95459 0.74734 0.0
H1858 H 0.30538 0.91513 0.78033 0.0
H1859 H 0.28367 0.90003 0.80959 0.0
H1860 H 0.34082 0.85874 0.8271 0.0
H1861 H 0.36301 0.87384 0.79811 0.0
C1862 C 0.39728 0.86866 0.69193 0.0
C1863 C 0.41197 0.85259 0.70083 0.0
C1864 C 0.38288 0.8819 0.70418 0.0
C1865 C 0.38383 0.88022 0.72566 0.0
C1866 C 0.39748 0.86308 0.73441 0.0
C1867 C 0.41125 0.84923 0.72209 0.0
C1868 C 0.37219 0.89731 0.73907 0.0
C1869 C 0.35941 0.88962 0.75588 0.0
C1870 C 0.37441 0.92114 0.73589 0.0
C1871 C 0.38848 0.93063 0.71908 0.0
C1872 C 0.41173 0.92512 0.71746 0.0
C1873 C 0.4244 0.93267 0.70068 0.0
C1874 C 0.41409 0.94602 0.68559 0.0
C1875 C 0.39121 0.95221 0.68744 0.0
C1876 C 0.37842 0.9446 0.70413 0.0
C1877 C 0.34868 0.96189 0.81629 0.0
C1878 C 0.33353 0.97964 0.81135 0.0
C1879 C 0.35393 0.94499 0.80197 0.0
C1880 C 0.34437 0.94555 0.78228 0.0
C1881 C 0.32885 0.96295 0.77739 0.0
C1882 C 0.32325 0.9797 0.79188 0.0
C1883 C 0.35178 0.92866 0.76664 0.0
C1884 C 0.36387 0.93643 0.74949 0.0
C1885 C 0.34922 0.90494 0.76968 0.0
C1886 C 0.33592 0.89576 0.78712 0.0
C1887 C 0.31339 0.90298 0.79052 0.0
C1888 C 0.30098 0.89438 0.80704 0.0
C1889 C 0.31087 0.87847 0.82022 0.0
C1890 C 0.33318 0.87107 0.81688 0.0
C1891 C 0.34568 0.87963 0.80039 0.0
H1892 H 0.30124 0.87183 0.833 0.0
H1893 H 0.42384 0.95162 0.67248 0.0
H1894 H 0.9962 0.6841 0.23315 0.0
H1895 H 0.96779 0.67288 0.25881 0.0
H1896 H 0.9304 0.63629 0.2125 0.0
H1897 H 0.95901 0.64683 0.18697 0.0
H1898 H 0.90289 0.66377 0.24259 0.0
H1899 H 0.96319 0.60687 0.23763 0.0
H1900 H 0.00316 0.59408 0.23891 0.0
H1901 H 0.0087 0.61767 0.30094 0.0
H1902 H 0.96886 0.63105 0.29988 0.0
H1903 H 0.83524 0.5826 0.29498 0.0
H1904 H 0.85927 0.60582 0.2728 0.0
H1905 H 0.90628 0.6163 0.3228 0.0
H1906 H 0.88294 0.59192 0.34458 0.0
H1907 H 0.92959 0.60612 0.29261 0.0
H1908 H 0.87012 0.66029 0.30045 0.0
H1909 H 0.83076 0.67492 0.30086 0.0
H1910 H 0.82393 0.66004 0.23679 0.0
H1911 H 0.86316 0.64502 0.23604 0.0
C1912 C 0.98166 0.67408 0.22836 0.0
C1913 C 0.97985 0.6663 0.20806 0.0
C1914 C 0.96551 0.66762 0.24304 0.0
C1915 C 0.94705 0.65369 0.23755 0.0
C1916 C 0.94448 0.64708 0.21704 0.0
C1917 C 0.96086 0.65307 0.20249 0.0
C1918 C 0.93151 0.6443 0.25335 0.0
C1919 C 0.9086 0.6511 0.25352 0.0
C1920 C 0.93919 0.6283 0.26798 0.0
C1921 C 0.96316 0.62031 0.26856 0.0
C1922 C 0.97301 0.60962 0.25145 0.0
C1923 C 0.99563 0.6022 0.25215 0.0
C1924 C 0.0085 0.60516 0.26996 0.0
C1925 C 0.99874 0.61548 0.28713 0.0
C1926 C 0.97615 0.62299 0.28648 0.0
C1927 C 0.85044 0.59028 0.30135 0.0
C1928 C 0.85717 0.58545 0.32153 0.0
C1929 C 0.8642 0.60368 0.28866 0.0
C1930 C 0.88464 0.61315 0.29606 0.0
C1931 C 0.89073 0.60919 0.31658 0.0
C1932 C 0.87729 0.59534 0.32909 0.0
C1933 C 0.90058 0.62545 0.28204 0.0
C1934 C 0.92369 0.61909 0.28205 0.0
C1935 C 0.89312 0.64222 0.2679 0.0
C1936 C 0.86954 0.65136 0.26823 0.0
C1937 C 0.86018 0.66 0.28647 0.0
C1938 C 0.8379 0.66838 0.28676 0.0
C1939 C 0.82484 0.66836 0.26888 0.0
C1940 C 0.83406 0.66003 0.25064 0.0
C1941 C 0.85634 0.65161 0.25027 0.0
H1942 H 0.80758 0.67485 0.26914 0.0
H1943 H 0.026 0.59938 0.27048 0.0
H1944 H 0.6962 0.97864 0.21742 0.0
H1945 H 0.68494 0.95022 0.24322 0.0
H1946 H 0.61487 0.95726 0.22469 0.0
H1947 H 0.62578 0.98494 0.19882 0.0
H1948 H 0.62843 0.96415 0.27021 0.0
H1949 H 0.63491 0.91346 0.21028 0.0
H1950 H 0.65717 0.89556 0.18259 0.0
H1951 H 0.70399 0.86829 0.22678 0.0
H1952 H 0.68216 0.88632 0.25471 0.0
H1953 H 0.55226 0.88981 0.31344 0.0
H1954 H 0.57566 0.91255 0.29071 0.0
H1955 H 0.63291 0.86813 0.30209 0.0
H1956 H 0.60857 0.84402 0.3239 0.0
H1957 H 0.63483 0.88012 0.26463 0.0
H1958 H 0.62697 0.92408 0.32491 0.0
H1959 H 0.60728 0.94204 0.35408 0.0
H1960 H 0.56815 0.98328 0.31272 0.0
H1961 H 0.58733 0.96534 0.28328 0.0
C1962 C 0.67845 0.97387 0.21866 0.0
C1963 C 0.66192 0.98415 0.20601 0.0
C1964 C 0.67207 0.95766 0.23339 0.0
C1965 C 0.64907 0.95173 0.23585 0.0
C1966 C 0.6327 0.96162 0.22302 0.0
C1967 C 0.63904 0.97744 0.20818 0.0
C1968 C 0.64143 0.93625 0.25241 0.0
C1969 C 0.6298 0.94577 0.26906 0.0
C1970 C 0.64414 0.91237 0.25133 0.0
C1971 C 0.6571 0.90148 0.23453 0.0
C1972 C 0.65009 0.90385 0.21406 0.0
C1973 C 0.66259 0.89363 0.19833 0.0
C1974 C 0.68203 0.88087 0.20292 0.0
C1975 C 0.68896 0.87823 0.22325 0.0
C1976 C 0.67653 0.88843 0.23903 0.0
C1977 C 0.56988 0.8849 0.31119 0.0
C1978 C 0.57873 0.86539 0.32072 0.0
C1979 C 0.58336 0.89805 0.29827 0.0
C1980 C 0.60643 0.89273 0.29522 0.0
C1981 C 0.61527 0.87286 0.30437 0.0
C1982 C 0.60143 0.85913 0.31688 0.0
C1983 C 0.62078 0.90795 0.28218 0.0
C1984 C 0.63377 0.89848 0.2662 0.0
C1985 C 0.61983 0.93202 0.28417 0.0
C1986 C 0.60857 0.94328 0.30186 0.0
C1987 C 0.61412 0.93693 0.32202 0.0
C1988 C 0.60303 0.9471 0.33861 0.0
C1989 C 0.58646 0.96378 0.33525 0.0
C1990 C 0.581 0.97037 0.3153 0.0
C1991 C 0.59201 0.96024 0.29866 0.0
H1992 H 0.57787 0.9716 0.34812 0.0
H1993 H 0.69169 0.87297 0.19072 0.0
H1994 H 0.95208 0.34654 0.83373 0.0
H1995 H 0.92415 0.35618 0.80727 0.0
H1996 H 0.96733 0.32591 0.76138 0.0
H1997 H 0.99518 0.31566 0.78792 0.0
H1998 H 0.95456 0.37339 0.75502 0.0
H1999 H 0.92036 0.301 0.76873 0.0
H2000 H 0.90408 0.27081 0.79041 0.0
H2001 H 0.85165 0.31657 0.81063 0.0
H2002 H 0.86782 0.34717 0.7893 0.0
H2003 H 0.88297 0.40593 0.67475 0.0
H2004 H 0.90527 0.38095 0.69694 0.0
H2005 H 0.85784 0.39276 0.74622 0.0
H2006 H 0.83486 0.41698 0.7237 0.0
H2007 H 0.8733 0.35123 0.74929 0.0
H2008 H 0.90831 0.4242 0.7406 0.0
H2009 H 0.92422 0.4566 0.72138 0.0
H2010 H 0.97491 0.41276 0.69503 0.0
H2011 H 0.95908 0.38001 0.71389 0.0
C2012 C 0.95537 0.3414 0.81807 0.0
C2013 C 0.97583 0.33033 0.8129 0.0
C2014 C 0.93937 0.3469 0.80298 0.0
C2015 C 0.94367 0.34179 0.78236 0.0
C2016 C 0.96366 0.32994 0.77722 0.0
C2017 C 0.97948 0.32398 0.79241 0.0
C2018 C 0.92843 0.35097 0.76616 0.0
C2019 C 0.93692 0.36819 0.75343 0.0
C2020 C 0.90521 0.34481 0.76468 0.0
C2021 C 0.89543 0.32645 0.77754 0.0
C2022 C 0.90549 0.30471 0.77794 0.0
C2023 C 0.89625 0.2875 0.79014 0.0
C2024 C 0.87688 0.29178 0.80193 0.0
C2025 C 0.86667 0.31328 0.80151 0.0
C2026 C 0.87585 0.33056 0.78934 0.0
C2027 C 0.87701 0.40281 0.69018 0.0
C2028 C 0.85725 0.4136 0.69753 0.0
C2029 C 0.88988 0.38864 0.70293 0.0
C2030 C 0.88368 0.38547 0.72351 0.0
C2031 C 0.86312 0.39502 0.73048 0.0
C2032 C 0.84996 0.40887 0.71757 0.0
C2033 C 0.89942 0.3737 0.73805 0.0
C2034 C 0.89102 0.3562 0.75061 0.0
C2035 C 0.92269 0.37993 0.73973 0.0
C2036 C 0.93234 0.39961 0.72847 0.0
C2037 C 0.92275 0.42144 0.7306 0.0
C2038 C 0.93176 0.43987 0.71978 0.0
C2039 C 0.95052 0.43673 0.70695 0.0
C2040 C 0.96035 0.41516 0.70495 0.0
C2041 C 0.95137 0.39666 0.7157 0.0
H2042 H 0.95747 0.45101 0.69858 0.0
H2043 H 0.86975 0.27844 0.81136 0.0
H2044 H 0.31504 0.00623 0.22906 0.0
H2045 H 0.32688 0.03448 0.25461 0.0
H2046 H 0.36661 0.06911 0.20869 0.0
H2047 H 0.35545 0.04065 0.18343 0.0
H2048 H 0.39186 0.06123 0.2402 0.0
H2049 H 0.31649 0.09206 0.23123 0.0
H2050 H 0.27453 0.09082 0.23033 0.0
H2051 H 0.27318 0.07048 0.29343 0.0
H2052 H 0.31516 0.07132 0.29464 0.0
H2053 H 0.41988 0.16266 0.29532 0.0
H2054 H 0.39739 0.13907 0.2718 0.0
H2055 H 0.38512 0.0908 0.32016 0.0
H2056 H 0.40833 0.11383 0.34358 0.0
H2057 H 0.34483 0.10562 0.28906 0.0
H2058 H 0.4191 0.07097 0.29705 0.0
H2059 H 0.46102 0.06901 0.2978 0.0
H2060 H 0.46382 0.0947 0.23634 0.0
H2061 H 0.42187 0.09727 0.23541 0.0
C2062 C 0.32586 0.02019 0.22433 0.0
C2063 C 0.33441 0.02112 0.20424 0.0
C2064 C 0.33262 0.03637 0.23896 0.0
C2065 C 0.34771 0.05401 0.23365 0.0
C2066 C 0.35513 0.05562 0.21327 0.0
C2067 C 0.34866 0.03935 0.19879 0.0
C2068 C 0.35761 0.06951 0.24946 0.0
C2069 C 0.38144 0.07119 0.2506 0.0
C2070 C 0.34421 0.08196 0.26364 0.0
C2071 C 0.31898 0.08155 0.26296 0.0
C2072 C 0.30725 0.08716 0.24487 0.0
C2073 C 0.28346 0.08656 0.24431 0.0
C2074 C 0.2712 0.08052 0.2618 0.0
C2075 C 0.2827 0.07513 0.27989 0.0
C2076 C 0.30649 0.07569 0.28053 0.0
C2077 C 0.41195 0.14731 0.30108 0.0
C2078 C 0.41588 0.1401 0.32131 0.0
C2079 C 0.39919 0.13381 0.28761 0.0
C2080 C 0.38966 0.11319 0.29425 0.0
C2081 C 0.39229 0.10669 0.31477 0.0
C2082 C 0.40556 0.11986 0.32811 0.0
C2083 C 0.37885 0.09749 0.27929 0.0
C2084 C 0.35503 0.09573 0.27844 0.0
C2085 C 0.39218 0.08482 0.26535 0.0
C2086 C 0.41739 0.08469 0.2663 0.0
C2087 C 0.42867 0.07666 0.28386 0.0
C2088 C 0.45242 0.07529 0.28427 0.0
C2089 C 0.46506 0.08169 0.26712 0.0
C2090 C 0.45399 0.08973 0.24961 0.0
C2091 C 0.43024 0.0912 0.24915 0.0
H2092 H 0.48345 0.08039 0.2674 0.0
H2093 H 0.25278 0.08006 0.26134 0.0
H2094 H 0.01044 0.62872 0.8098 0.0
H2095 H 0.04091 0.61934 0.78622 0.0
H2096 H 0.06143 0.68983 0.7847 0.0
H2097 H 0.02992 0.69958 0.80816 0.0
H2098 H 0.06489 0.67089 0.74729 0.0
H2099 H 0.09124 0.65063 0.81378 0.0
H2100 H 0.08824 0.63332 0.84805 0.0
H2101 H 0.08131 0.56709 0.8209 0.0
H2102 H 0.0839 0.58403 0.78643 0.0
H2103 H 0.1716 0.59245 0.7213 0.0
H2104 H 0.15066 0.61785 0.74436 0.0
H2105 H 0.091 0.61156 0.70623 0.0
H2106 H 0.11173 0.58638 0.68315 0.0
H2107 H 0.11479 0.60609 0.76658 0.0
H2108 H 0.05746 0.65797 0.71031 0.0
H2109 H 0.06081 0.67653 0.67661 0.0
H2110 H 0.13313 0.68228 0.68467 0.0
H2111 H 0.13021 0.66408 0.71855 0.0
C2112 C 0.02142 0.64232 0.80453 0.0
C2113 C 0.01804 0.66485 0.81117 0.0
C2114 C 0.03892 0.63689 0.79105 0.0
C2115 C 0.05399 0.65371 0.78416 0.0
C2116 C 0.05019 0.67649 0.79003 0.0
C2117 C 0.03223 0.68206 0.8034 0.0
C2118 C 0.0736 0.64697 0.77099 0.0
C2119 C 0.07596 0.65687 0.75156 0.0
C2120 C 0.0885 0.62904 0.77675 0.0
C2121 C 0.0877 0.61865 0.79749 0.0
C2122 C 0.08903 0.63238 0.8151 0.0
C2123 C 0.08737 0.62263 0.83456 0.0
C2124 C 0.08454 0.59913 0.83664 0.0
C2125 C 0.0835 0.5853 0.81925 0.0
C2126 C 0.08511 0.59496 0.79975 0.0
C2127 C 0.15419 0.59689 0.71756 0.0
C2128 C 0.14333 0.58722 0.70041 0.0
C2129 C 0.1422 0.61136 0.73082 0.0
C2130 C 0.11924 0.61671 0.72705 0.0
C2131 C 0.10876 0.60799 0.70938 0.0
C2132 C 0.12065 0.59345 0.69621 0.0
C2133 C 0.10543 0.62932 0.7425 0.0
C2134 C 0.1041 0.62043 0.76241 0.0
C2135 C 0.09175 0.64834 0.73725 0.0
C2136 C 0.09361 0.65951 0.71695 0.0
C2137 C 0.07407 0.66331 0.70496 0.0
C2138 C 0.0759 0.67374 0.6858 0.0
C2139 C 0.09717 0.68053 0.67848 0.0
C2140 C 0.11667 0.67695 0.69033 0.0
C2141 C 0.11494 0.66653 0.70949 0.0
H2142 H 0.09855 0.6886 0.66365 0.0
H2143 H 0.08315 0.59166 0.85171 0.0
H2144 H 0.18315 0.55175 0.58353 0.0
H2145 H 0.19073 0.54143 0.54794 0.0
H2146 H 0.23831 0.49008 0.56817 0.0
H2147 H 0.22999 0.49995 0.60396 0.0
H2148 H 0.22323 0.53949 0.52156 0.0
H2149 H 0.23254 0.44286 0.53795 0.0
H2150 H 0.2209 0.41493 0.56414 0.0
H2151 H 0.16411 0.45726 0.58061 0.0
H2152 H 0.17519 0.48521 0.55432 0.0
H2153 H 0.23441 0.49183 0.42251 0.0
H2154 H 0.2433 0.49958 0.45859 0.0
H2155 H 0.18102 0.46612 0.47654 0.0
H2156 H 0.17316 0.45697 0.44086 0.0
H2157 H 0.20871 0.45851 0.50441 0.0
H2158 H 0.18706 0.52682 0.46898 0.0
H2159 H 0.18983 0.55659 0.4425 0.0
H2160 H 0.25687 0.57398 0.46363 0.0
H2161 H 0.25459 0.54408 0.49009 0.0
C2162 C 0.19561 0.53861 0.58032 0.0
C2163 C 0.20595 0.5266 0.59643 0.0
C2164 C 0.19998 0.53272 0.55997 0.0
C2165 C 0.21483 0.5147 0.55526 0.0
C2166 C 0.2265 0.50381 0.57136 0.0
C2167 C 0.22197 0.5096 0.5918 0.0
C2168 C 0.21629 0.50616 0.53374 0.0
C2169 C 0.22033 0.52172 0.51784 0.0
C2170 C 0.21185 0.48311 0.52869 0.0
C2171 C 0.20491 0.46625 0.54437 0.0
C2172 C 0.21755 0.44616 0.54713 0.0
C2173 C 0.21103 0.43033 0.56199 0.0
C2174 C 0.19183 0.43436 0.57409 0.0
C2175 C 0.17903 0.45419 0.57129 0.0
C2176 C 0.18542 0.47002 0.55642 0.0
C2177 C 0.22309 0.48548 0.43426 0.0
C2178 C 0.20303 0.47389 0.4289 0.0
C2179 C 0.22796 0.49022 0.45489 0.0
C2180 C 0.21255 0.484 0.47044 0.0
C2181 C 0.19323 0.47125 0.46502 0.0
C2182 C 0.18864 0.46612 0.44455 0.0
C2183 C 0.21542 0.49188 0.4921 0.0
C2184 C 0.21216 0.47619 0.50808 0.0
C2185 C 0.21937 0.51505 0.49716 0.0
C2186 C 0.22077 0.53305 0.48133 0.0
C2187 C 0.20245 0.5369 0.46789 0.0
C2188 C 0.20392 0.5538 0.4529 0.0
C2189 C 0.22354 0.56712 0.45135 0.0
C2190 C 0.2417 0.56361 0.46482 0.0
C2191 C 0.24033 0.54669 0.47982 0.0
H2192 H 0.22465 0.58021 0.43973 0.0
H2193 H 0.18685 0.4221 0.5856 0.0
H2194 H 0.48648 0.79996 0.4217 0.0
H2195 H 0.47638 0.79333 0.45759 0.0
H2196 H 0.54729 0.78332 0.47232 0.0
H2197 H 0.55738 0.78998 0.43623 0.0
H2198 H 0.51735 0.75415 0.49483 0.0
H2199 H 0.52693 0.83422 0.48098 0.0
H2200 H 0.52073 0.87008 0.46212 0.0
H2201 H 0.4488 0.8652 0.47289 0.0
H2202 H 0.45461 0.82933 0.49189 0.0
H2203 H 0.50959 0.78372 0.60156 0.0
H2204 H 0.51907 0.77783 0.56535 0.0
H2205 H 0.45141 0.79955 0.5483 0.0
H2206 H 0.44238 0.80616 0.58445 0.0
H2207 H 0.48061 0.82152 0.52668 0.0
H2208 H 0.47166 0.74237 0.54322 0.0
H2209 H 0.47861 0.70707 0.56265 0.0
H2210 H 0.54955 0.70978 0.54701 0.0
H2211 H 0.54307 0.74529 0.5277 0.0
C2212 C 0.49979 0.79558 0.43251 0.0
C2213 C 0.52266 0.7953 0.42629 0.0
C2214 C 0.49406 0.79199 0.45301 0.0
C2215 C 0.5111 0.78815 0.46772 0.0
C2216 C 0.53386 0.78625 0.46125 0.0
C2217 C 0.53961 0.78993 0.44066 0.0
C2218 C 0.50525 0.7883 0.48991 0.0
C2219 C 0.50952 0.76893 0.5019 0.0
C2220 C 0.49475 0.80746 0.49908 0.0
C2221 C 0.49118 0.82901 0.48768 0.0
C2222 C 0.50979 0.84075 0.47924 0.0
C2223 C 0.50635 0.86112 0.46861 0.0
C2224 C 0.48438 0.86986 0.46623 0.0
C2225 C 0.46581 0.85837 0.47469 0.0
C2226 C 0.46917 0.83807 0.48546 0.0
C2227 C 0.49662 0.78656 0.59004 0.0
C2228 C 0.47517 0.79501 0.59568 0.0
C2229 C 0.50201 0.78322 0.56934 0.0
C2230 C 0.48592 0.78806 0.55394 0.0
C2231 C 0.46415 0.79567 0.55978 0.0
C2232 C 0.45889 0.79924 0.58043 0.0
C2233 C 0.49225 0.78715 0.53177 0.0
C2234 C 0.48825 0.80657 0.51973 0.0
C2235 C 0.503 0.76802 0.52266 0.0
C2236 C 0.50691 0.74661 0.53417 0.0
C2237 C 0.48877 0.73554 0.54405 0.0
C2238 C 0.49262 0.71547 0.55502 0.0
C2239 C 0.51452 0.70622 0.55611 0.0
C2240 C 0.5326 0.71698 0.54618 0.0
C2241 C 0.52884 0.73706 0.5352 0.0
H2242 H 0.51746 0.69068 0.56461 0.0
H2243 H 0.48175 0.88556 0.45788 0.0
H2244 H 0.79925 0.56061 0.436 0.0
H2245 H 0.79286 0.55205 0.47225 0.0
H2246 H 0.77459 0.48311 0.45639 0.0
H2247 H 0.7805 0.49196 0.41999 0.0
H2248 H 0.74969 0.49778 0.48897 0.0
H2249 H 0.8287 0.49513 0.47075 0.0
H2250 H 0.86485 0.50921 0.45635 0.0
H2251 H 0.86386 0.5657 0.49809 0.0
H2252 H 0.82766 0.55198 0.51272 0.0
H2253 H 0.78414 0.44709 0.5852 0.0
H2254 H 0.77646 0.45786 0.54947 0.0
H2255 H 0.79444 0.52738 0.56348 0.0
H2256 H 0.80235 0.51649 0.59899 0.0
H2257 H 0.81816 0.51187 0.53166 0.0
H2258 H 0.73929 0.51168 0.55145 0.0
H2259 H 0.70438 0.49515 0.56614 0.0
H2260 H 0.70606 0.44148 0.5215 0.0
H2261 H 0.74119 0.45751 0.5067 0.0
C2262 C 0.79305 0.54391 0.44026 0.0
C2263 C 0.79001 0.52703 0.42532 0.0
C2264 C 0.78966 0.53892 0.46096 0.0
C2265 C 0.78366 0.51679 0.46714 0.0
C2266 C 0.77921 0.50029 0.45205 0.0
C2267 C 0.78247 0.50535 0.43128 0.0
C2268 C 0.78408 0.51046 0.48925 0.0
C2269 C 0.76471 0.50068 0.49828 0.0
C2270 C 0.80363 0.51431 0.5015 0.0
C2271 C 0.82535 0.52266 0.49268 0.0
C2272 C 0.83611 0.51064 0.47676 0.0
C2273 C 0.85663 0.51853 0.46859 0.0
C2274 C 0.86658 0.5384 0.47623 0.0
C2275 C 0.8561 0.55035 0.49215 0.0
C2276 C 0.83561 0.5425 0.50043 0.0
C2277 C 0.78574 0.46476 0.5807 0.0
C2278 C 0.79368 0.48103 0.59473 0.0
C2279 C 0.78141 0.47092 0.56031 0.0
C2280 C 0.78487 0.49347 0.55372 0.0
C2281 C 0.79169 0.5099 0.56813 0.0
C2282 C 0.79603 0.50373 0.58843 0.0
C2283 C 0.78361 0.4996 0.53159 0.0
C2284 C 0.80301 0.50916 0.52246 0.0
C2285 C 0.76419 0.49526 0.5193 0.0
C2286 C 0.74299 0.48569 0.52809 0.0
C2287 C 0.73232 0.49626 0.54486 0.0
C2288 C 0.71247 0.48699 0.55319 0.0
C2289 C 0.70304 0.46725 0.54479 0.0
C2290 C 0.7134 0.45676 0.528 0.0
C2291 C 0.73327 0.46594 0.51962 0.0
H2292 H 0.68768 0.4601 0.55127 0.0
H2293 H 0.88244 0.54449 0.46985 0.0
H2294 H 0.51506 0.1976 0.42186 0.0
H2295 H 0.52564 0.20499 0.45754 0.0
H2296 H 0.45583 0.22165 0.4715 0.0
H2297 H 0.44518 0.21398 0.43564 0.0
H2298 H 0.48956 0.24961 0.49271 0.0
H2299 H 0.47037 0.1713 0.48134 0.0
H2300 H 0.47187 0.13398 0.46408 0.0
H2301 H 0.54327 0.12875 0.47743 0.0
H2302 H 0.54228 0.16624 0.49453 0.0
H2303 H 0.49628 0.22337 0.60077 0.0
H2304 H 0.48662 0.22949 0.56458 0.0
H2305 H 0.55165 0.20143 0.54692 0.0
H2306 H 0.56095 0.19493 0.58301 0.0
H2307 H 0.51866 0.18038 0.52753 0.0
H2308 H 0.53751 0.25879 0.53979 0.0
H2309 H 0.53534 0.29581 0.55751 0.0
H2310 H 0.46413 0.30061 0.54315 0.0
H2311 H 0.4658 0.26344 0.52557 0.0
C2312 C 0.50213 0.20345 0.43245 0.0
C2313 C 0.47933 0.20516 0.42615 0.0
C2314 C 0.50814 0.20756 0.45282 0.0
C2315 C 0.49148 0.21357 0.46725 0.0
C2316 C 0.46895 0.21701 0.46062 0.0
C2317 C 0.46288 0.21271 0.44018 0.0
C2318 C 0.49734 0.21398 0.48941 0.0
C2319 C 0.49569 0.23445 0.50044 0.0
C2320 C 0.50559 0.19424 0.4994 0.0
C2321 C 0.5063 0.17173 0.48902 0.0
C2322 C 0.48645 0.16231 0.48042 0.0
C2323 C 0.48719 0.14109 0.47073 0.0
C2324 C 0.50767 0.12903 0.46961 0.0
C2325 C 0.52743 0.13814 0.47826 0.0
C2326 C 0.52679 0.15937 0.48798 0.0
C2327 C 0.50878 0.21936 0.58913 0.0
C2328 C 0.5295 0.20908 0.59457 0.0
C2329 C 0.50324 0.22274 0.56845 0.0
C2330 C 0.51841 0.21595 0.55292 0.0
C2331 C 0.53963 0.20679 0.55854 0.0
C2332 C 0.54508 0.20332 0.57915 0.0
C2333 C 0.51142 0.21617 0.53093 0.0
C2334 C 0.51268 0.19566 0.51989 0.0
C2335 C 0.50277 0.23585 0.52104 0.0
C2336 C 0.50173 0.25822 0.53154 0.0
C2337 C 0.52134 0.26764 0.54056 0.0
C2338 C 0.52021 0.28867 0.55055 0.0
C2339 C 0.4996 0.30052 0.55151 0.0
C2340 C 0.48008 0.29139 0.54242 0.0
C2341 C 0.48112 0.27036 0.53242 0.0
H2342 H 0.49875 0.3168 0.55925 0.0
H2343 H 0.50821 0.1126 0.46208 0.0
H2344 H 0.71679 0.94198 0.93611 0.0
H2345 H 0.7245 0.95202 0.97202 0.0
H2346 H 0.70894 0.02231 0.95878 0.0
H2347 H 0.70141 0.01222 0.92297 0.0
H2348 H 0.74324 0.0193 0.98671 0.0
H2349 H 0.66868 0.98808 0.97698 0.0
H2350 H 0.64067 0.95943 0.96575 0.0
H2351 H 0.67023 0.9103 1.00656 0.0
H2352 H 0.6987 0.93859 0.0178 0.0
H2353 H 0.69811 0.05966 0.08177 0.0
H2354 H 0.70626 0.04823 0.04639 0.0
H2355 H 0.72415 0.98088 0.06728 0.0
H2356 H 0.71609 0.99246 0.10275 0.0
H2357 H 0.69248 0.9803 0.03615 0.0
H2358 H 0.76482 0.01524 0.04854 0.0
H2359 H 0.79076 0.04587 0.05958 0.0
H2360 H 0.7629 0.09032 0.01378 0.0
H2361 H 0.73654 0.06006 1.00265 0.0
C2362 C 0.71578 0.95965 0.94082 0.0
C2363 C 0.70874 0.9764 0.92689 0.0
C2364 C 0.71997 0.96537 0.96132 0.0
C2365 C 0.71701 0.98791 0.9682 0.0
C2366 C 0.71139 0.00485 0.95389 0.0
C2367 C 0.70715 0.99911 0.93344 0.0
C2368 C 0.71757 0.99352 0.99048 0.0
C2369 C 0.73211 0.01083 0.99752 0.0
C2370 C 0.70316 0.98237 1.00467 0.0
C2371 C 0.686 0.96536 0.99804 0.0
C2372 C 0.66933 0.97111 0.98344 0.0
C2373 C 0.65336 0.95495 0.97708 0.0
C2374 C 0.65372 0.93304 0.98539 0.0
C2375 C 0.67002 0.92727 1.00011 0.0
C2376 C 0.68608 0.94335 1.00647 0.0
C2377 C 0.70445 0.04264 0.0788 0.0
C2378 C 0.70687 0.02702 0.0949 0.0
C2379 C 0.70904 0.03609 0.05861 0.0
C2380 C 0.71595 0.0137 0.05413 0.0
C2381 C 0.71895 0.99825 0.07035 0.0
C2382 C 0.71455 0.00489 0.09059 0.0
C2383 C 0.71821 0.00605 0.03245 0.0
C2384 C 0.70398 0.98848 0.02546 0.0
C2385 C 0.73264 0.01722 0.0183 0.0
C2386 C 0.74857 0.03542 0.02487 0.0
C2387 C 0.76409 0.0316 0.04092 0.0
C2388 C 0.7789 0.04889 0.04718 0.0
C2389 C 0.77845 0.07004 0.03741 0.0
C2390 C 0.76322 0.07393 0.02133 0.0
C2391 C 0.74837 0.0567 0.01503 0.0
H2392 H 0.78992 0.08341 0.04228 0.0
H2393 H 0.64133 0.92054 0.98046 0.0
H2394 H 0.98311 0.29246 0.92099 0.0
H2395 H 0.97421 0.28583 0.95715 0.0
H2396 H 0.04592 0.28457 0.97136 0.0
H2397 H 0.05481 0.29146 0.93505 0.0
H2398 H 0.01827 0.25241 0.99492 0.0
H2399 H 0.02225 0.33204 0.97829 0.0
H2400 H 0.01349 0.36654 0.95826 0.0
H2401 H 0.94228 0.35815 0.97093 0.0
H2402 H 0.95061 0.32347 0.99093 0.0
H2403 H 0.01001 0.28631 0.10065 0.0
H2404 H 0.01933 0.27939 0.06454 0.0
H2405 H 0.94978 0.29432 0.04781 0.0
H2406 H 0.94077 0.30182 0.08385 0.0
H2407 H 0.97728 0.3182 0.02525 0.0
H2408 H 0.97407 0.23928 0.0442 0.0
H2409 H 0.98372 0.20532 0.06463 0.0
H2410 H 0.05409 0.21236 0.04806 0.0
H2411 H 0.04491 0.24657 0.02775 0.0
C2412 C 0.99694 0.29004 0.93177 0.0
C2413 C 0.01961 0.29246 0.92537 0.0
C2414 C 0.99186 0.28639 0.9524 0.0
C2415 C 0.00939 0.28498 0.967 0.0
C2416 C 0.03214 0.28559 0.96036 0.0
C2417 C 0.03722 0.28943 0.93966 0.0
C2418 C 0.0038 0.28547 0.98921 0.0
C2419 C 0.0095 0.26685 1.00166 0.0
C2420 C 0.99213 0.3042 0.99792 0.0
C2421 C 0.98703 0.32504 0.98592 0.0
C2422 C 0.0047 0.33746 0.97667 0.0
C2423 C 0.99983 0.35709 0.96539 0.0
C2424 C 0.97734 0.3645 0.96327 0.0
C2425 C 0.95969 0.35236 0.97255 0.0
C2426 C 0.96448 0.33275 0.9839 0.0
C2427 C 0.99663 0.28737 0.08926 0.0
C2428 C 0.97461 0.29417 0.09493 0.0
C2429 C 0.00193 0.28347 0.06863 0.0
C2430 C 0.98524 0.28617 0.05334 0.0
C2431 C 0.96297 0.29209 0.05924 0.0
C2432 C 0.95775 0.29615 0.07982 0.0
C2433 C 0.99132 0.2849 0.03116 0.0
C2434 C 0.98586 0.30358 0.01864 0.0
C2435 C 0.00328 0.26624 0.0225 0.0
C2436 C 0.00882 0.24561 0.03461 0.0
C2437 C 0.99163 0.23369 0.04504 0.0
C2438 C 0.99701 0.21438 0.05657 0.0
C2439 C 0.01951 0.20672 0.05768 0.0
C2440 C 0.03667 0.21833 0.04721 0.0
C2441 C 0.03138 0.23766 0.03566 0.0
H2442 H 0.02364 0.19177 0.06662 0.0
H2443 H 0.9736 0.37967 0.95449 0.0
H2444 H 0.30068 0.94178 0.08199 0.0
H2445 H 0.29433 0.95075 0.04577 0.0
H2446 H 0.27911 0.02037 0.06191 0.0
H2447 H 0.28507 0.01116 0.09824 0.0
H2448 H 0.25311 0.00668 0.02946 0.0
H2449 H 0.33219 0.00626 0.04735 0.0
H2450 H 0.36789 0.99075 0.06159 0.0
H2451 H 0.36488 0.93479 0.01935 0.0
H2452 H 0.32908 0.9499 1.00492 0.0
H2453 H 0.28742 0.05591 0.9326 0.0
H2454 H 0.28033 0.04566 0.96854 0.0
H2455 H 0.2959 0.9755 0.95467 0.0
H2456 H 0.30319 0.98586 0.91896 0.0
H2457 H 0.32058 0.99025 0.98626 0.0
H2458 H 0.24145 0.9932 0.96715 0.0
H2459 H 0.20689 0.01095 0.95278 0.0
H2460 H 0.21105 0.06459 0.99733 0.0
H2461 H 0.24583 0.04733 0.01179 0.0
C2462 C 0.29514 0.95875 0.0778 0.0
C2463 C 0.29298 0.97571 0.0928 0.0
C2464 C 0.29178 0.96396 0.05712 0.0
C2465 C 0.28662 0.98636 0.05103 0.0
C2466 C 0.28305 0.00299 0.06619 0.0
C2467 C 0.28633 0.99772 0.08692 0.0
C2468 C 0.28704 0.99275 0.02892 0.0
C2469 C 0.26792 0.00326 0.02004 0.0
C2470 C 0.30632 0.98825 0.01653 0.0
C2471 C 0.32783 0.97909 0.0252 0.0
C2472 C 0.33905 0.99056 0.0412 0.0
C2473 C 0.35933 0.98186 0.04928 0.0
C2474 C 0.36859 0.96174 0.04145 0.0
C2475 C 0.35766 0.95034 0.02544 0.0
C2476 C 0.3374 0.95899 0.01727 0.0
C2477 C 0.28865 0.03824 0.9372 0.0
C2478 C 0.29572 0.02163 0.92311 0.0
C2479 C 0.28466 0.03237 0.95772 0.0
C2480 C 0.28759 0.00976 0.9644 0.0
C2481 C 0.29358 0.99304 0.94997 0.0
C2482 C 0.29757 0.99891 0.92955 0.0
C2483 C 0.28646 0.00375 0.98658 0.0
C2484 C 0.30563 0.99349 0.99557 0.0
C2485 C 0.26735 0.00876 0.99903 0.0
C2486 C 0.24637 0.01908 0.99043 0.0
C2487 C 0.2351 0.00888 0.97378 0.0
C2488 C 0.21545 0.01883 0.96563 0.0
C2489 C 0.20681 0.03891 0.9741 0.0
C2490 C 0.21777 0.04905 0.99077 0.0
C2491 C 0.23744 0.03917 0.99896 0.0
H2492 H 0.1916 0.04659 0.96777 0.0
H2493 H 0.38427 0.95503 0.04775 0.0
H2494 H 0.94877 0.71919 0.9331 0.0
H2495 H 0.95838 0.72644 0.96927 0.0
H2496 H 0.0245 0.69614 0.95986 0.0
H2497 H 0.01493 0.68899 0.924 0.0
H2498 H 0.00172 0.67639 0.99128 0.0
H2499 H 0.01896 0.7526 0.96874 0.0
H2500 H 0.01051 0.78946 0.95235 0.0
H2501 H 0.95628 0.80112 0.99513 0.0
H2502 H 0.9642 0.76415 0.0116 0.0
H2503 H 0.05644 0.69049 0.08431 0.0
H2504 H 0.04728 0.69664 0.04817 0.0
H2505 H 0.98385 0.72836 0.06543 0.0
H2506 H 0.99337 0.72256 0.10179 0.0
H2507 H 0.00219 0.74855 0.03083 0.0
H2508 H 0.98303 0.67305 0.05251 0.0
H2509 H 0.98925 0.63561 0.06868 0.0
H2510 H 0.04471 0.62231 0.02761 0.0
H2511 H 0.03877 0.65966 0.01113 0.0
C2512 C 0.96554 0.7147 0.93872 0.0
C2513 C 0.98109 0.70344 0.92589 0.0
C2514 C 0.97102 0.71877 0.95935 0.0
C2515 C 0.99214 0.7117 0.96734 0.0
C2516 C 0.00806 0.70162 0.95412 0.0
C2517 C 0.00263 0.69761 0.93363 0.0
C2518 C 0.99712 0.71273 0.98971 0.0
C2519 C 0.0021 0.69224 0.99982 0.0
C2520 C 0.99675 0.73326 1.00111 0.0
C2521 C 0.99201 0.75549 0.99126 0.0
C2522 C 0.0051 0.76293 0.97453 0.0
C2523 C 1.00043 0.78386 0.96525 0.0
C2524 C 0.98283 0.79759 0.97265 0.0
C2525 C 0.96989 0.79045 0.98939 0.0
C2526 C 0.97447 0.76952 0.99872 0.0
C2527 C 0.04094 0.69949 0.08036 0.0
C2528 C 0.02572 0.70632 0.09572 0.0
C2529 C 0.03557 0.70279 0.05973 0.0
C2530 C 0.01466 0.71257 0.05403 0.0
C2531 C 1.00006 0.72076 0.06943 0.0
C2532 C 0.00553 0.71757 0.09017 0.0
C2533 C 0.0074 0.71227 0.03215 0.0
C2534 C 0.0018 0.73275 0.02222 0.0
C2535 C 0.00691 0.69169 0.02084 0.0
C2536 C 0.01058 0.66922 0.03071 0.0
C2537 C 0.99663 0.66219 0.04699 0.0
C2538 C 1.00005 0.64095 0.05617 0.0
C2539 C 0.01744 0.62664 0.04925 0.0
C2540 C 0.03129 0.63344 0.033 0.0
C2541 C 0.02785 0.6546 0.02368 0.0
H2542 H 0.02012 0.61026 0.05645 0.0
H2543 H 0.97924 0.8138 0.96545 0.0
loop_
_geom_bond_atom_site_label_1
_geom_bond_atom_site_label_2
_geom_bond_distance
_geom_bond_site_symmetry_2
_ccdc_geom_bond_type
Co0 O3 1.970 . S
Co0 N17 1.989 . S
Co0 O25 1.967 . S
Co0 O32 1.920 . S
Co1 O4 1.966 . S
Co1 N10 2.022 . S
Co1 N18 1.993 . S
Co1 O26 1.941 . S
C2 O3 1.258 . S
C2 O4 1.263 . S
O3 Co0 1.970 . S
O3 C2 1.258 . S
O4 Co1 1.966 . S
O4 C2 1.263 . S
C5 O6 1.235 . S
C5 O32 1.289 . S
O6 C5 1.235 . S
C7 C9 1.400 . S
C7 N10 1.351 . S
C7 C12 1.501 . S
C8 C9 1.387 . S
C8 N11 1.341 . S
C9 C7 1.400 . S
C9 C8 1.387 . S
N10 Co1 2.022 . S
N10 C7 1.351 . S
N10 N11 1.365 . S
N11 C8 1.341 . S
N11 N10 1.365 . S
N11 H31 0.862 . S
C12 C7 1.501 . S
C12 H13 0.961 . S
C12 H14 0.961 . S
C12 H15 0.960 . S
H13 C12 0.961 . S
H14 C12 0.961 . S
H15 C12 0.960 . S
C16 N17 1.342 . S
C16 C20 1.401 . S
C16 C21 1.499 . S
N17 Co0 1.989 . S
N17 C16 1.342 . S
N17 N18 1.388 . S
N18 Co1 1.993 . S
N18 N17 1.388 . S
N18 C19 1.346 . S
C19 N18 1.346 . S
C19 C20 1.396 . S
C19 C29 1.510 . S
C20 C16 1.401 . S
C20 C19 1.396 . S
C21 C16 1.499 . S
C21 H22 0.959 . S
C21 H23 0.960 . S
C21 H24 0.961 . S
H22 C21 0.959 . S
H23 C21 0.960 . S
H24 C21 0.961 . S
O25 Co0 1.967 . S
O25 C33 1.258 . S
O26 Co1 1.941 . S
O26 C33 1.266 . S
H27 C29 0.959 . S
H28 C29 0.961 . S
C29 C19 1.510 . S
C29 H27 0.959 . S
C29 H28 0.961 . S
C29 H30 0.960 . S
H30 C29 0.960 . S
H31 N11 0.862 . S
O32 Co0 1.920 . S
O32 C5 1.289 . S
C33 O25 1.258 . S
C33 O26 1.266 . S
Co34 O37 1.970 . S
Co34 N51 1.989 . S
Co34 O59 1.967 . S
Co34 O66 1.920 . S
Co35 O38 1.966 . S
Co35 N44 2.022 . S
Co35 N52 1.993 . S
Co35 O60 1.941 . S
C36 O37 1.258 . S
C36 O38 1.263 . S
O37 Co34 1.970 . S
O37 C36 1.258 . S
O38 Co35 1.966 . S
O38 C36 1.263 . S
C39 O40 1.235 . S
C39 O66 1.289 . S
O40 C39 1.235 . S
C41 C43 1.400 . S
C41 N44 1.351 . S
C41 C46 1.501 . S
C42 C43 1.387 . S
C42 N45 1.341 . S
C43 C41 1.400 . S
C43 C42 1.387 . S
N44 Co35 2.022 . S
N44 C41 1.351 . S
N44 N45 1.365 . S
N45 C42 1.341 . S
N45 N44 1.365 . S
N45 H65 0.862 . S
C46 C41 1.501 . S
C46 H47 0.961 . S
C46 H48 0.961 . S
C46 H49 0.960 . S
H47 C46 0.961 . S
H48 C46 0.961 . S
H49 C46 0.960 . S
C50 N51 1.342 . S
C50 C54 1.401 . S
C50 C55 1.499 . S
N51 Co34 1.989 . S
N51 C50 1.342 . S
N51 N52 1.388 . S
N52 Co35 1.993 . S
N52 N51 1.388 . S
N52 C53 1.346 . S
C53 N52 1.346 . S
C53 C54 1.396 . S
C53 C63 1.510 . S
C54 C50 1.401 . S
C54 C53 1.396 . S
C55 C50 1.499 . S
C55 H56 0.959 . S
C55 H57 0.960 . S
C55 H58 0.961 . S
H56 C55 0.959 . S
H57 C55 0.960 . S
H58 C55 0.961 . S
O59 Co34 1.967 . S
O59 C67 1.258 . S
O60 Co35 1.941 . S
O60 C67 1.266 . S
H61 C63 0.959 . S
H62 C63 0.961 . S
C63 C53 1.510 . S
C63 H61 0.959 . S
C63 H62 0.961 . S
C63 H64 0.960 . S
H64 C63 0.960 . S
H65 N45 0.862 . S
O66 Co34 1.920 . S
O66 C39 1.289 . S
C67 O59 1.258 . S
C67 O60 1.266 . S
Co68 O71 1.970 . S
Co68 N85 1.989 . S
Co68 O93 1.967 . S
Co68 O100 1.920 . S
Co69 O72 1.966 . S
Co69 N78 2.022 . S
Co69 N86 1.993 . S
Co69 O94 1.941 . S
C70 O71 1.258 . S
C70 O72 1.263 . S
O71 Co68 1.970 . S
O71 C70 1.258 . S
O72 Co69 1.966 . S
O72 C70 1.263 . S
C73 O74 1.235 . S
C73 O100 1.289 . S
O74 C73 1.235 . S
C75 C77 1.400 . S
C75 N78 1.351 . S
C75 C80 1.501 . S
C76 C77 1.387 . S
C76 N79 1.341 . S
C77 C75 1.400 . S
C77 C76 1.387 . S
N78 Co69 2.022 . S
N78 C75 1.351 . S
N78 N79 1.365 . S
N79 C76 1.341 . S
N79 N78 1.365 . S
N79 H99 0.862 . S
C80 C75 1.501 . S
C80 H81 0.961 . S
C80 H82 0.961 . S
C80 H83 0.960 . S
H81 C80 0.961 . S
H82 C80 0.961 . S
H83 C80 0.960 . S
C84 N85 1.342 . S
C84 C88 1.401 . S
C84 C89 1.499 . S
N85 Co68 1.989 . S
N85 C84 1.342 . S
N85 N86 1.388 . S
N86 Co69 1.993 . S
N86 N85 1.388 . S
N86 C87 1.346 . S
C87 N86 1.346 . S
C87 C88 1.396 . S
C87 C97 1.510 . S
C88 C84 1.401 . S
C88 C87 1.396 . S
C89 C84 1.499 . S
C89 H90 0.959 . S
C89 H91 0.960 . S
C89 H92 0.961 . S
H90 C89 0.959 . S
H91 C89 0.960 . S
H92 C89 0.961 . S
O93 Co68 1.967 . S
O93 C101 1.258 . S
O94 Co69 1.941 . S
O94 C101 1.266 . S
H95 C97 0.959 . S
H96 C97 0.961 . S
C97 C87 1.510 . S
C97 H95 0.959 . S
C97 H96 0.961 . S
C97 H98 0.960 . S
H98 C97 0.960 . S
H99 N79 0.862 . S
O100 Co68 1.920 . S
O100 C73 1.289 . S
C101 O93 1.258 . S
C101 O94 1.266 . S
Co102 O105 1.970 . S
Co102 N119 1.989 . S
Co102 O127 1.967 . S
Co102 O134 1.920 . S
Co103 O106 1.966 . S
Co103 N112 2.022 . S
Co103 N120 1.993 . S
Co103 O128 1.941 . S
C104 O105 1.258 . S
C104 O106 1.263 . S
O105 Co102 1.970 . S
O105 C104 1.258 . S
O106 Co103 1.966 . S
O106 C104 1.263 . S
C107 O108 1.235 . S
C107 O134 1.289 . S
O108 C107 1.235 . S
C109 C111 1.400 . S
C109 N112 1.351 . S
C109 C114 1.501 . S
C110 C111 1.387 . S
C110 N113 1.341 . S
C111 C109 1.400 . S
C111 C110 1.387 . S
N112 Co103 2.022 . S
N112 C109 1.351 . S
N112 N113 1.365 . S
N113 C110 1.341 . S
N113 N112 1.365 . S
N113 H133 0.862 . S
C114 C109 1.501 . S
C114 H115 0.961 . S
C114 H116 0.961 . S
C114 H117 0.960 . S
H115 C114 0.961 . S
H116 C114 0.961 . S
H117 C114 0.960 . S
C118 N119 1.342 . S
C118 C122 1.401 . S
C118 C123 1.499 . S
N119 Co102 1.989 . S
N119 C118 1.342 . S
N119 N120 1.388 . S
N120 Co103 1.993 . S
N120 N119 1.388 . S
N120 C121 1.346 . S
C121 N120 1.346 . S
C121 C122 1.396 . S
C121 C131 1.510 . S
C122 C118 1.401 . S
C122 C121 1.396 . S
C123 C118 1.499 . S
C123 H124 0.959 . S
C123 H125 0.960 . S
C123 H126 0.961 . S
H124 C123 0.959 . S
H125 C123 0.960 . S
H126 C123 0.961 . S
O127 Co102 1.967 . S
O127 C135 1.258 . S
O128 Co103 1.941 . S
O128 C135 1.266 . S
H129 C131 0.959 . S
H130 C131 0.961 . S
C131 C121 1.510 . S
C131 H129 0.959 . S
C131 H130 0.961 . S
C131 H132 0.960 . S
H132 C131 0.960 . S
H133 N113 0.862 . S
O134 Co102 1.920 . S
O134 C107 1.289 . S
C135 O127 1.258 . S
C135 O128 1.266 . S
Co136 O139 1.970 . S
Co136 N153 1.989 . S
Co136 O161 1.967 . S
Co136 O168 1.920 . S
Co137 O140 1.966 . S
Co137 N146 2.022 . S
Co137 N154 1.993 . S
Co137 O162 1.941 . S
C138 O139 1.258 . S
C138 O140 1.263 . S
O139 Co136 1.970 . S
O139 C138 1.258 . S
O140 Co137 1.966 . S
O140 C138 1.263 . S
C141 O142 1.235 . S
C141 O168 1.289 . S
O142 C141 1.235 . S
C143 C145 1.400 . S
C143 N146 1.351 . S
C143 C148 1.501 . S
C144 C145 1.387 . S
C144 N147 1.341 . S
C145 C143 1.400 . S
C145 C144 1.387 . S
N146 Co137 2.022 . S
N146 C143 1.351 . S
N146 N147 1.365 . S
N147 C144 1.341 . S
N147 N146 1.365 . S
N147 H167 0.862 . S
C148 C143 1.501 . S
C148 H149 0.961 . S
C148 H150 0.961 . S
C148 H151 0.960 . S
H149 C148 0.961 . S
H150 C148 0.961 . S
H151 C148 0.960 . S
C152 N153 1.342 . S
C152 C156 1.401 . S
C152 C157 1.499 . S
N153 Co136 1.989 . S
N153 C152 1.342 . S
N153 N154 1.388 . S
N154 Co137 1.993 . S
N154 N153 1.388 . S
N154 C155 1.346 . S
C155 N154 1.346 . S
C155 C156 1.396 . S
C155 C165 1.510 . S
C156 C152 1.401 . S
C156 C155 1.396 . S
C157 C152 1.499 . S
C157 H158 0.959 . S
C157 H159 0.960 . S
C157 H160 0.961 . S
H158 C157 0.959 . S
H159 C157 0.960 . S
H160 C157 0.961 . S
O161 Co136 1.967 . S
O161 C169 1.258 . S
O162 Co137 1.941 . S
O162 C169 1.266 . S
H163 C165 0.959 . S
H164 C165 0.961 . S
C165 C155 1.510 . S
C165 H163 0.959 . S
C165 H164 0.961 . S
C165 H166 0.960 . S
H166 C165 0.960 . S
H167 N147 0.862 . S
O168 Co136 1.920 . S
O168 C141 1.289 . S
C169 O161 1.258 . S
C169 O162 1.266 . S
Co170 O173 1.970 . S
Co170 N187 1.989 . S
Co170 O195 1.967 . S
Co170 O202 1.920 . S
Co171 O174 1.966 . S
Co171 N180 2.022 . S
Co171 N188 1.993 . S
Co171 O196 1.941 . S
C172 O173 1.258 . S
C172 O174 1.263 . S
O173 Co170 1.970 . S
O173 C172 1.258 . S
O174 Co171 1.966 . S
O174 C172 1.263 . S
C175 O176 1.235 . S
C175 O202 1.289 . S
O176 C175 1.235 . S
C177 C179 1.400 . S
C177 N180 1.351 . S
C177 C182 1.501 . S
C178 C179 1.387 . S
C178 N181 1.341 . S
C179 C177 1.400 . S
C179 C178 1.387 . S
N180 Co171 2.022 . S
N180 C177 1.351 . S
N180 N181 1.365 . S
N181 C178 1.341 . S
N181 N180 1.365 . S
N181 H201 0.862 . S
C182 C177 1.501 . S
C182 H183 0.961 . S
C182 H184 0.961 . S
C182 H185 0.960 . S
H183 C182 0.961 . S
H184 C182 0.961 . S
H185 C182 0.960 . S
C186 N187 1.342 . S
C186 C190 1.401 . S
C186 C191 1.499 . S
N187 Co170 1.989 . S
N187 C186 1.342 . S
N187 N188 1.388 . S
N188 Co171 1.993 . S
N188 N187 1.388 . S
N188 C189 1.346 . S
C189 N188 1.346 . S
C189 C190 1.396 . S
C189 C199 1.510 . S
C190 C186 1.401 . S
C190 C189 1.396 . S
C191 C186 1.499 . S
C191 H192 0.959 . S
C191 H193 0.960 . S
C191 H194 0.961 . S
H192 C191 0.959 . S
H193 C191 0.960 . S
H194 C191 0.961 . S
O195 Co170 1.967 . S
O195 C203 1.258 . S
O196 Co171 1.941 . S
O196 C203 1.266 . S
H197 C199 0.959 . S
H198 C199 0.961 . S
C199 C189 1.510 . S
C199 H197 0.959 . S
C199 H198 0.961 . S
C199 H200 0.960 . S
H200 C199 0.960 . S
H201 N181 0.862 . S
O202 Co170 1.920 . S
O202 C175 1.289 . S
C203 O195 1.258 . S
C203 O196 1.266 . S
Co204 O207 1.970 . S
Co204 N221 1.989 . S
Co204 O229 1.967 . S
Co204 O236 1.920 . S
Co205 O208 1.966 . S
Co205 N214 2.022 . S
Co205 N222 1.993 . S
Co205 O230 1.941 . S
C206 O207 1.258 . S
C206 O208 1.263 . S
O207 Co204 1.970 . S
O207 C206 1.258 . S
O208 Co205 1.966 . S
O208 C206 1.263 . S
C209 O210 1.235 . S
C209 O236 1.289 . S
O210 C209 1.235 . S
C211 C213 1.400 . S
C211 N214 1.351 . S
C211 C216 1.501 . S
C212 C213 1.387 . S
C212 N215 1.341 . S
C213 C211 1.400 . S
C213 C212 1.387 . S
N214 Co205 2.022 . S
N214 C211 1.351 . S
N214 N215 1.365 . S
N215 C212 1.341 . S
N215 N214 1.365 . S
N215 H235 0.862 . S
C216 C211 1.501 . S
C216 H217 0.961 . S
C216 H218 0.961 . S
C216 H219 0.960 . S
H217 C216 0.961 . S
H218 C216 0.961 . S
H219 C216 0.960 . S
C220 N221 1.342 . S
C220 C224 1.401 . S
C220 C225 1.499 . S
N221 Co204 1.989 . S
N221 C220 1.342 . S
N221 N222 1.388 . S
N222 Co205 1.993 . S
N222 N221 1.388 . S
N222 C223 1.346 . S
C223 N222 1.346 . S
C223 C224 1.396 . S
C223 C233 1.510 . S
C224 C220 1.401 . S
C224 C223 1.396 . S
C225 C220 1.499 . S
C225 H226 0.959 . S
C225 H227 0.960 . S
C225 H228 0.961 . S
H226 C225 0.959 . S
H227 C225 0.960 . S
H228 C225 0.961 . S
O229 Co204 1.967 . S
O229 C237 1.258 . S
O230 Co205 1.941 . S
O230 C237 1.266 . S
H231 C233 0.959 . S
H232 C233 0.961 . S
C233 C223 1.510 . S
C233 H231 0.959 . S
C233 H232 0.961 . S
C233 H234 0.960 . S
H234 C233 0.960 . S
H235 N215 0.862 . S
O236 Co204 1.920 . S
O236 C209 1.289 . S
C237 O229 1.258 . S
C237 O230 1.266 . S
Co238 O241 1.970 . S
Co238 N255 1.989 . S
Co238 O263 1.967 . S
Co238 O270 1.920 . S
Co239 O242 1.966 . S
Co239 N248 2.022 . S
Co239 N256 1.993 . S
Co239 O264 1.941 . S
C240 O241 1.258 . S
C240 O242 1.263 . S
O241 Co238 1.970 . S
O241 C240 1.258 . S
O242 Co239 1.966 . S
O242 C240 1.263 . S
C243 O244 1.235 . S
C243 O270 1.289 . S
O244 C243 1.235 . S
C245 C247 1.400 . S
C245 N248 1.351 . S
C245 C250 1.501 . S
C246 C247 1.387 . S
C246 N249 1.341 . S
C247 C245 1.400 . S
C247 C246 1.387 . S
N248 Co239 2.022 . S
N248 C245 1.351 . S
N248 N249 1.365 . S
N249 C246 1.341 . S
N249 N248 1.365 . S
N249 H269 0.862 . S
C250 C245 1.501 . S
C250 H251 0.961 . S
C250 H252 0.961 . S
C250 H253 0.960 . S
H251 C250 0.961 . S
H252 C250 0.961 . S
H253 C250 0.960 . S
C254 N255 1.342 . S
C254 C258 1.401 . S
C254 C259 1.499 . S
N255 Co238 1.989 . S
N255 C254 1.342 . S
N255 N256 1.388 . S
N256 Co239 1.993 . S
N256 N255 1.388 . S
N256 C257 1.346 . S
C257 N256 1.346 . S
C257 C258 1.396 . S
C257 C267 1.510 . S
C258 C254 1.401 . S
C258 C257 1.396 . S
C259 C254 1.499 . S
C259 H260 0.959 . S
C259 H261 0.960 . S
C259 H262 0.961 . S
H260 C259 0.959 . S
H261 C259 0.960 . S
H262 C259 0.961 . S
O263 Co238 1.967 . S
O263 C271 1.258 . S
O264 Co239 1.941 . S
O264 C271 1.266 . S
H265 C267 0.959 . S
H266 C267 0.961 . S
C267 C257 1.510 . S
C267 H265 0.959 . S
C267 H266 0.961 . S
C267 H268 0.960 . S
H268 C267 0.960 . S
H269 N249 0.862 . S
O270 Co238 1.920 . S
O270 C243 1.289 . S
C271 O263 1.258 . S
C271 O264 1.266 . S
Co272 O275 1.970 . S
Co272 N289 1.989 . S
Co272 O297 1.967 . S
Co272 O304 1.920 . S
Co273 O276 1.966 . S
Co273 N282 2.022 . S
Co273 N290 1.993 . S
Co273 O298 1.941 . S
C274 O275 1.258 . S
C274 O276 1.263 . S
O275 Co272 1.970 . S
O275 C274 1.258 . S
O276 Co273 1.966 . S
O276 C274 1.263 . S
C277 O278 1.235 . S
C277 O304 1.289 . S
O278 C277 1.235 . S
C279 C281 1.400 . S
C279 N282 1.351 . S
C279 C284 1.501 . S
C280 C281 1.387 . S
C280 N283 1.341 . S
C281 C279 1.400 . S
C281 C280 1.387 . S
N282 Co273 2.022 . S
N282 C279 1.351 . S
N282 N283 1.365 . S
N283 C280 1.341 . S
N283 N282 1.365 . S
N283 H303 0.862 . S
C284 C279 1.501 . S
C284 H285 0.961 . S
C284 H286 0.961 . S
C284 H287 0.960 . S
H285 C284 0.961 . S
H286 C284 0.961 . S
H287 C284 0.960 . S
C288 N289 1.342 . S
C288 C292 1.401 . S
C288 C293 1.499 . S
N289 Co272 1.989 . S
N289 C288 1.342 . S
N289 N290 1.388 . S
N290 Co273 1.993 . S
N290 N289 1.388 . S
N290 C291 1.346 . S
C291 N290 1.346 . S
C291 C292 1.396 . S
C291 C301 1.510 . S
C292 C288 1.401 . S
C292 C291 1.396 . S
C293 C288 1.499 . S
C293 H294 0.959 . S
C293 H295 0.960 . S
C293 H296 0.961 1_565 S
H294 C293 0.959 . S
H295 C293 0.960 . S
H296 C293 0.961 1_545 S
O297 Co272 1.967 . S
O297 C305 1.258 . S
O298 Co273 1.941 . S
O298 C305 1.266 . S
H299 C301 0.959 . S
H300 C301 0.961 . S
C301 C291 1.510 . S
C301 H299 0.959 . S
C301 H300 0.961 . S
C301 H302 0.960 . S
H302 C301 0.960 . S
H303 N283 0.862 . S
O304 Co272 1.920 . S
O304 C277 1.289 . S
C305 O297 1.258 . S
C305 O298 1.266 . S
Co306 O309 1.970 . S
Co306 N323 1.989 . S
Co306 O331 1.967 . S
Co306 O338 1.920 . S
Co307 O310 1.966 . S
Co307 N316 2.022 . S
Co307 N324 1.993 . S
Co307 O332 1.941 . S
C308 O309 1.258 . S
C308 O310 1.263 . S
O309 Co306 1.970 . S
O309 C308 1.258 . S
O310 Co307 1.966 . S
O310 C308 1.263 . S
C311 O312 1.235 . S
C311 O338 1.289 . S
O312 C311 1.235 . S
C313 C315 1.400 . S
C313 N316 1.351 . S
C313 C318 1.501 . S
C314 C315 1.387 . S
C314 N317 1.341 . S
C315 C313 1.400 . S
C315 C314 1.387 . S
N316 Co307 2.022 . S
N316 C313 1.351 . S
N316 N317 1.365 . S
N317 C314 1.341 . S
N317 N316 1.365 . S
N317 H337 0.862 . S
C318 C313 1.501 . S
C318 H319 0.961 . S
C318 H320 0.961 . S
C318 H321 0.960 . S
H319 C318 0.961 . S
H320 C318 0.961 . S
H321 C318 0.960 . S
C322 N323 1.342 . S
C322 C326 1.401 . S
C322 C327 1.499 . S
N323 Co306 1.989 . S
N323 C322 1.342 . S
N323 N324 1.388 . S
N324 Co307 1.993 . S
N324 N323 1.388 . S
N324 C325 1.346 . S
C325 N324 1.346 . S
C325 C326 1.396 . S
C325 C335 1.510 . S
C326 C322 1.401 . S
C326 C325 1.396 . S
C327 C322 1.499 . S
C327 H328 0.959 . S
C327 H329 0.960 . S
C327 H330 0.961 1_655 S
H328 C327 0.959 . S
H329 C327 0.960 . S
H330 C327 0.961 1_455 S
O331 Co306 1.967 . S
O331 C339 1.258 . S
O332 Co307 1.941 . S
O332 C339 1.266 . S
H333 C335 0.959 . S
H334 C335 0.961 . S
C335 C325 1.510 . S
C335 H333 0.959 . S
C335 H334 0.961 . S
C335 H336 0.960 . S
H336 C335 0.960 . S
H337 N317 0.862 . S
O338 Co306 1.920 . S
O338 C311 1.289 . S
C339 O331 1.258 . S
C339 O332 1.266 . S
Co340 O343 1.970 . S
Co340 N357 1.989 . S
Co340 O365 1.967 . S
Co340 O372 1.920 . S
Co341 O344 1.966 . S
Co341 N350 2.022 . S
Co341 N358 1.993 . S
Co341 O366 1.941 . S
C342 O343 1.258 . S
C342 O344 1.263 . S
O343 Co340 1.970 . S
O343 C342 1.258 . S
O344 Co341 1.966 . S
O344 C342 1.263 . S
C345 O346 1.235 . S
C345 O372 1.289 . S
O346 C345 1.235 . S
C347 C349 1.400 . S
C347 N350 1.351 . S
C347 C352 1.501 . S
C348 C349 1.387 . S
C348 N351 1.341 . S
C349 C347 1.400 . S
C349 C348 1.387 . S
N350 Co341 2.022 . S
N350 C347 1.351 . S
N350 N351 1.365 . S
N351 C348 1.341 . S
N351 N350 1.365 . S
N351 H371 0.862 . S
C352 C347 1.501 . S
C352 H353 0.961 . S
C352 H354 0.961 . S
C352 H355 0.960 . S
H353 C352 0.961 . S
H354 C352 0.961 . S
H355 C352 0.960 . S
C356 N357 1.342 . S
C356 C360 1.401 . S
C356 C361 1.499 . S
N357 Co340 1.989 . S
N357 C356 1.342 . S
N357 N358 1.388 . S
N358 Co341 1.993 . S
N358 N357 1.388 . S
N358 C359 1.346 . S
C359 N358 1.346 . S
C359 C360 1.396 . S
C359 C369 1.510 . S
C360 C356 1.401 . S
C360 C359 1.396 . S
C361 C356 1.499 . S
C361 H362 0.959 . S
C361 H363 0.960 . S
C361 H364 0.961 1_545 S
H362 C361 0.959 . S
H363 C361 0.960 . S
H364 C361 0.961 1_565 S
O365 Co340 1.967 . S
O365 C373 1.258 . S
O366 Co341 1.941 . S
O366 C373 1.266 . S
H367 C369 0.959 . S
H368 C369 0.961 . S
C369 C359 1.510 . S
C369 H367 0.959 . S
C369 H368 0.961 . S
C369 H370 0.960 . S
H370 C369 0.960 . S
H371 N351 0.862 . S
O372 Co340 1.920 . S
O372 C345 1.289 . S
C373 O365 1.258 . S
C373 O366 1.266 . S
Co374 O377 1.970 . S
Co374 N391 1.989 . S
Co374 O399 1.967 . S
Co374 O406 1.920 . S
Co375 O378 1.966 . S
Co375 N384 2.022 . S
Co375 N392 1.993 . S
Co375 O400 1.941 . S
C376 O377 1.258 . S
C376 O378 1.263 . S
O377 Co374 1.970 . S
O377 C376 1.258 . S
O378 Co375 1.966 . S
O378 C376 1.263 . S
C379 O380 1.235 . S
C379 O406 1.289 . S
O380 C379 1.235 . S
C381 C383 1.400 . S
C381 N384 1.351 . S
C381 C386 1.501 . S
C382 C383 1.387 . S
C382 N385 1.341 . S
C383 C381 1.400 . S
C383 C382 1.387 . S
N384 Co375 2.022 . S
N384 C381 1.351 . S
N384 N385 1.365 . S
N385 C382 1.341 . S
N385 N384 1.365 . S
N385 H405 0.862 . S
C386 C381 1.501 . S
C386 H387 0.961 . S
C386 H388 0.961 . S
C386 H389 0.960 . S
H387 C386 0.961 . S
H388 C386 0.961 . S
H389 C386 0.960 . S
C390 N391 1.342 . S
C390 C394 1.401 . S
C390 C395 1.499 . S
N391 Co374 1.989 . S
N391 C390 1.342 . S
N391 N392 1.388 . S
N392 Co375 1.993 . S
N392 N391 1.388 . S
N392 C393 1.346 . S
C393 N392 1.346 . S
C393 C394 1.396 . S
C393 C403 1.510 . S
C394 C390 1.401 . S
C394 C393 1.396 . S
C395 C390 1.499 . S
C395 H396 0.959 . S
C395 H397 0.960 . S
C395 H398 0.961 1_455 S
H396 C395 0.959 . S
H397 C395 0.960 . S
H398 C395 0.961 1_655 S
O399 Co374 1.967 . S
O399 C407 1.258 . S
O400 Co375 1.941 . S
O400 C407 1.266 . S
H401 C403 0.959 . S
H402 C403 0.961 . S
C403 C393 1.510 . S
C403 H401 0.959 . S
C403 H402 0.961 . S
C403 H404 0.960 . S
H404 C403 0.960 . S
H405 N385 0.862 . S
O406 Co374 1.920 . S
O406 C379 1.289 . S
C407 O399 1.258 . S
C407 O400 1.266 . S
Co408 O411 1.970 . S
Co408 N425 1.989 . S
Co408 O433 1.967 . S
Co408 O440 1.920 . S
Co409 O412 1.966 . S
Co409 N418 2.022 . S
Co409 N426 1.993 . S
Co409 O434 1.941 . S
C410 O411 1.258 . S
C410 O412 1.263 . S
O411 Co408 1.970 . S
O411 C410 1.258 . S
O412 Co409 1.966 . S
O412 C410 1.263 . S
C413 O414 1.235 . S
C413 O440 1.289 . S
O414 C413 1.235 . S
C415 C417 1.400 . S
C415 N418 1.351 . S
C415 C420 1.501 . S
C416 C417 1.387 . S
C416 N419 1.341 . S
C417 C415 1.400 . S
C417 C416 1.387 . S
N418 Co409 2.022 . S
N418 C415 1.351 . S
N418 N419 1.365 . S
N419 C416 1.341 . S
N419 N418 1.365 . S
N419 H439 0.862 . S
C420 C415 1.501 . S
C420 H421 0.961 . S
C420 H422 0.961 . S
C420 H423 0.960 . S
H421 C420 0.961 . S
H422 C420 0.961 . S
H423 C420 0.960 . S
C424 N425 1.342 . S
C424 C428 1.401 . S
C424 C429 1.499 . S
N425 Co408 1.989 . S
N425 C424 1.342 . S
N425 N426 1.388 . S
N426 Co409 1.993 . S
N426 N425 1.388 . S
N426 C427 1.346 . S
C427 N426 1.346 . S
C427 C428 1.396 . S
C427 C437 1.510 . S
C428 C424 1.401 . S
C428 C427 1.396 . S
C429 C424 1.499 . S
C429 H430 0.959 . S
C429 H431 0.960 . S
C429 H432 0.961 1_545 S
H430 C429 0.959 . S
H431 C429 0.960 . S
H432 C429 0.961 1_565 S
O433 Co408 1.967 . S
O433 C441 1.258 . S
O434 Co409 1.941 . S
O434 C441 1.266 . S
H435 C437 0.959 . S
H436 C437 0.961 . S
C437 C427 1.510 . S
C437 H435 0.959 . S
C437 H436 0.961 . S
C437 H438 0.960 . S
H438 C437 0.960 . S
H439 N419 0.862 . S
O440 Co408 1.920 . S
O440 C413 1.289 . S
C441 O433 1.258 . S
C441 O434 1.266 . S
Co442 O445 1.970 . S
Co442 N459 1.989 . S
Co442 O467 1.967 . S
Co442 O474 1.920 . S
Co443 O446 1.966 . S
Co443 N452 2.022 . S
Co443 N460 1.993 . S
Co443 O468 1.941 . S
C444 O445 1.258 . S
C444 O446 1.263 . S
O445 Co442 1.970 . S
O445 C444 1.258 . S
O446 Co443 1.966 . S
O446 C444 1.263 . S
C447 O448 1.235 . S
C447 O474 1.289 . S
O448 C447 1.235 . S
C449 C451 1.400 . S
C449 N452 1.351 . S
C449 C454 1.501 . S
C450 C451 1.387 . S
C450 N453 1.341 . S
C451 C449 1.400 . S
C451 C450 1.387 . S
N452 Co443 2.022 . S
N452 C449 1.351 . S
N452 N453 1.365 . S
N453 C450 1.341 . S
N453 N452 1.365 . S
N453 H473 0.862 . S
C454 C449 1.501 . S
C454 H455 0.961 . S
C454 H456 0.961 . S
C454 H457 0.960 . S
H455 C454 0.961 . S
H456 C454 0.961 . S
H457 C454 0.960 . S
C458 N459 1.342 . S
C458 C462 1.401 . S
C458 C463 1.499 . S
N459 Co442 1.989 . S
N459 C458 1.342 . S
N459 N460 1.388 . S
N460 Co443 1.993 . S
N460 N459 1.388 . S
N460 C461 1.346 . S
C461 N460 1.346 . S
C461 C462 1.396 . S
C461 C471 1.510 . S
C462 C458 1.401 . S
C462 C461 1.396 . S
C463 C458 1.499 . S
C463 H464 0.959 . S
C463 H465 0.960 . S
C463 H466 0.961 1_455 S
H464 C463 0.959 . S
H465 C463 0.960 . S
H466 C463 0.961 1_655 S
O467 Co442 1.967 . S
O467 C475 1.258 . S
O468 Co443 1.941 . S
O468 C475 1.266 . S
H469 C471 0.959 . S
H470 C471 0.961 . S
C471 C461 1.510 . S
C471 H469 0.959 . S
C471 H470 0.961 . S
C471 H472 0.960 . S
H472 C471 0.960 . S
H473 N453 0.862 . S
O474 Co442 1.920 . S
O474 C447 1.289 . S
C475 O467 1.258 . S
C475 O468 1.266 . S
Co476 O479 1.970 . S
Co476 N493 1.989 . S
Co476 O501 1.967 . S
Co476 O508 1.920 . S
Co477 O480 1.966 . S
Co477 N486 2.022 . S
Co477 N494 1.993 . S
Co477 O502 1.941 . S
C478 O479 1.258 . S
C478 O480 1.263 . S
O479 Co476 1.970 . S
O479 C478 1.258 . S
O480 Co477 1.966 . S
O480 C478 1.263 . S
C481 O482 1.235 . S
C481 O508 1.289 . S
O482 C481 1.235 . S
C483 C485 1.400 . S
C483 N486 1.351 . S
C483 C488 1.501 . S
C484 C485 1.387 . S
C484 N487 1.341 . S
C485 C483 1.400 . S
C485 C484 1.387 . S
N486 Co477 2.022 . S
N486 C483 1.351 . S
N486 N487 1.365 . S
N487 C484 1.341 . S
N487 N486 1.365 . S
N487 H507 0.862 . S
C488 C483 1.501 . S
C488 H489 0.961 . S
C488 H490 0.961 . S
C488 H491 0.960 . S
H489 C488 0.961 . S
H490 C488 0.961 . S
H491 C488 0.960 . S
C492 N493 1.342 . S
C492 C496 1.401 . S
C492 C497 1.499 . S
N493 Co476 1.989 . S
N493 C492 1.342 . S
N493 N494 1.388 . S
N494 Co477 1.993 . S
N494 N493 1.388 . S
N494 C495 1.346 . S
C495 N494 1.346 . S
C495 C496 1.396 . S
C495 C505 1.510 . S
C496 C492 1.401 . S
C496 C495 1.396 . S
C497 C492 1.499 . S
C497 H498 0.959 . S
C497 H499 0.960 . S
C497 H500 0.961 1_565 S
H498 C497 0.959 . S
H499 C497 0.960 . S
H500 C497 0.961 1_545 S
O501 Co476 1.967 . S
O501 C509 1.258 . S
O502 Co477 1.941 . S
O502 C509 1.266 . S
H503 C505 0.959 . S
H504 C505 0.961 . S
C505 C495 1.510 . S
C505 H503 0.959 . S
C505 H504 0.961 . S
C505 H506 0.960 . S
H506 C505 0.960 . S
H507 N487 0.862 . S
O508 Co476 1.920 . S
O508 C481 1.289 . S
C509 O501 1.258 . S
C509 O502 1.266 . S
Co510 O513 1.970 . S
Co510 N527 1.989 . S
Co510 O535 1.967 . S
Co510 O542 1.920 . S
Co511 O514 1.966 . S
Co511 N520 2.022 . S
Co511 N528 1.993 . S
Co511 O536 1.941 . S
C512 O513 1.258 . S
C512 O514 1.263 . S
O513 Co510 1.970 . S
O513 C512 1.258 . S
O514 Co511 1.966 . S
O514 C512 1.263 . S
C515 O516 1.235 . S
C515 O542 1.289 . S
O516 C515 1.235 . S
C517 C519 1.400 . S
C517 N520 1.351 . S
C517 C522 1.501 . S
C518 C519 1.387 . S
C518 N521 1.341 . S
C519 C517 1.400 . S
C519 C518 1.387 . S
N520 Co511 2.022 . S
N520 C517 1.351 . S
N520 N521 1.365 . S
N521 C518 1.341 . S
N521 N520 1.365 . S
N521 H541 0.862 . S
C522 C517 1.501 . S
C522 H523 0.961 . S
C522 H524 0.961 . S
C522 H525 0.960 . S
H523 C522 0.961 . S
H524 C522 0.961 . S
H525 C522 0.960 . S
C526 N527 1.342 . S
C526 C530 1.401 . S
C526 C531 1.499 . S
N527 Co510 1.989 . S
N527 C526 1.342 . S
N527 N528 1.388 . S
N528 Co511 1.993 . S
N528 N527 1.388 . S
N528 C529 1.346 . S
C529 N528 1.346 . S
C529 C530 1.396 . S
C529 C539 1.510 . S
C530 C526 1.401 . S
C530 C529 1.396 . S
C531 C526 1.499 . S
C531 H532 0.959 . S
C531 H533 0.960 . S
C531 H534 0.961 1_655 S
H532 C531 0.959 . S
H533 C531 0.960 . S
H534 C531 0.961 1_455 S
O535 Co510 1.967 . S
O535 C543 1.258 . S
O536 Co511 1.941 . S
O536 C543 1.266 . S
H537 C539 0.959 . S
H538 C539 0.961 . S
C539 C529 1.510 . S
C539 H537 0.959 . S
C539 H538 0.961 . S
C539 H540 0.960 . S
H540 C539 0.960 . S
H541 N521 0.862 . S
O542 Co510 1.920 . S
O542 C515 1.289 . S
C543 O535 1.258 . S
C543 O536 1.266 . S
H544 C562 0.951 . S
H545 C564 0.951 . S
H546 C566 0.950 . S
H547 C567 0.950 . S
H548 C569 0.950 . S
H549 C572 0.950 . S
H550 C573 0.950 . S
H551 C575 0.950 . S
H552 C576 0.970 . S
H553 C577 0.951 . S
H554 C579 0.951 . S
H555 C581 0.950 . S
H556 C582 0.950 . S
H557 C584 0.950 . S
H558 C587 0.950 . S
H559 C588 0.950 . S
H560 C590 0.950 . S
H561 C591 0.970 . S
C562 H544 0.951 . S
C562 C563 1.366 . S
C562 C564 1.388 . S
C563 C562 1.366 . S
C563 C567 1.385 . S
C564 H545 0.951 . S
C564 C562 1.388 . S
C564 C565 1.366 . S
C565 C564 1.366 . S
C565 C566 1.414 . S
C565 C568 1.499 . S
C566 H546 0.950 . S
C566 C565 1.414 . S
C566 C567 1.374 . S
C567 H547 0.950 . S
C567 C563 1.385 . S
C567 C566 1.374 . S
C568 C565 1.499 . S
C568 C569 1.373 . S
C568 C570 1.389 . S
C569 H548 0.950 . S
C569 C568 1.373 . S
C569 C585 1.377 1_655 S
C570 C568 1.389 . S
C570 C571 1.524 . S
C570 C584 1.377 1_655 S
C571 C570 1.524 . S
C571 C572 1.397 . S
C571 C576 1.363 . S
C572 H549 0.950 . S
C572 C571 1.397 . S
C572 C573 1.334 . S
C573 H550 0.950 . S
C573 C572 1.334 . S
C573 C574 1.287 . S
C574 C573 1.287 . S
C574 C575 1.524 . S
C574 H593 0.913 . S
C575 H551 0.950 . S
C575 C574 1.524 . S
C575 C576 1.415 . S
C576 H552 0.970 . S
C576 C571 1.363 . S
C576 C575 1.415 . S
C577 H553 0.951 . S
C577 C578 1.366 . S
C577 C579 1.388 . S
C578 C577 1.366 . S
C578 C582 1.385 . S
C579 H554 0.951 . S
C579 C577 1.388 . S
C579 C580 1.366 . S
C580 C579 1.366 . S
C580 C581 1.414 . S
C580 C583 1.499 . S
C581 H555 0.950 . S
C581 C580 1.414 . S
C581 C582 1.374 . S
C582 H556 0.950 . S
C582 C578 1.385 . S
C582 C581 1.374 . S
C583 C580 1.499 . S
C583 C584 1.373 . S
C583 C585 1.389 . S
C584 H557 0.950 . S
C584 C570 1.377 1_455 S
C584 C583 1.373 . S
C585 C569 1.377 1_455 S
C585 C583 1.389 . S
C585 C586 1.524 . S
C586 C585 1.524 . S
C586 C587 1.397 . S
C586 C591 1.363 . S
C587 H558 0.950 . S
C587 C586 1.397 . S
C587 C588 1.334 . S
C588 H559 0.950 . S
C588 C587 1.334 . S
C588 C589 1.287 . S
C589 C588 1.287 . S
C589 C590 1.524 . S
C589 H592 0.999 . S
C590 H560 0.950 . S
C590 C589 1.524 . S
C590 C591 1.415 . S
C591 H561 0.970 . S
C591 C586 1.363 . S
C591 C590 1.415 . S
H592 C589 0.999 . S
H593 C574 0.913 . S
H594 C612 0.951 . S
H595 C614 0.951 . S
H596 C616 0.950 . S
H597 C617 0.950 . S
H598 C619 0.950 . S
H599 C622 0.950 . S
H600 C623 0.950 . S
H601 C625 0.950 . S
H602 C626 0.971 . S
H603 C627 0.951 . S
H604 C629 0.951 . S
H605 C631 0.950 . S
H606 C632 0.950 . S
H607 C634 0.950 . S
H608 C637 0.950 . S
H609 C638 0.950 . S
H610 C640 0.950 . S
H611 C641 0.971 . S
C612 H594 0.951 . S
C612 C613 1.366 . S
C612 C614 1.388 . S
C613 C612 1.366 . S
C613 C617 1.385 . S
C614 H595 0.951 . S
C614 C612 1.388 . S
C614 C615 1.366 . S
C615 C614 1.366 . S
C615 C616 1.414 . S
C615 C618 1.499 . S
C616 H596 0.950 . S
C616 C615 1.414 . S
C616 C617 1.374 . S
C617 H597 0.950 . S
C617 C613 1.385 . S
C617 C616 1.374 . S
C618 C615 1.499 . S
C618 C619 1.373 . S
C618 C620 1.389 . S
C619 H598 0.950 . S
C619 C618 1.373 . S
C619 C635 1.377 1_545 S
C620 C618 1.389 . S
C620 C621 1.524 . S
C620 C634 1.377 1_545 S
C621 C620 1.524 . S
C621 C622 1.397 . S
C621 C626 1.363 . S
C622 H599 0.950 . S
C622 C621 1.397 . S
C622 C623 1.334 . S
C623 H600 0.950 . S
C623 C622 1.334 . S
C623 C624 1.287 . S
C624 C623 1.287 . S
C624 C625 1.524 . S
C624 H643 0.913 . S
C625 H601 0.950 . S
C625 C624 1.524 . S
C625 C626 1.415 . S
C626 H602 0.971 . S
C626 C621 1.363 . S
C626 C625 1.415 . S
C627 H603 0.951 . S
C627 C628 1.366 . S
C627 C629 1.388 . S
C628 C627 1.366 . S
C628 C632 1.385 . S
C629 H604 0.951 . S
C629 C627 1.388 . S
C629 C630 1.366 . S
C630 C629 1.366 . S
C630 C631 1.414 . S
C630 C633 1.499 . S
C631 H605 0.950 . S
C631 C630 1.414 . S
C631 C632 1.374 . S
C632 H606 0.950 . S
C632 C628 1.385 . S
C632 C631 1.374 . S
C633 C630 1.499 . S
C633 C634 1.373 . S
C633 C635 1.389 . S
C634 H607 0.950 . S
C634 C620 1.377 1_565 S
C634 C633 1.373 . S
C635 C619 1.377 1_565 S
C635 C633 1.389 . S
C635 C636 1.524 . S
C636 C635 1.524 . S
C636 C637 1.397 . S
C636 C641 1.363 . S
C637 H608 0.950 . S
C637 C636 1.397 . S
C637 C638 1.334 . S
C638 H609 0.950 . S
C638 C637 1.334 . S
C638 C639 1.287 . S
C639 C638 1.287 . S
C639 C640 1.524 . S
C639 H642 0.999 . S
C640 H610 0.950 . S
C640 C639 1.524 . S
C640 C641 1.415 . S
C641 H611 0.971 . S
C641 C636 1.363 . S
C641 C640 1.415 . S
H642 C639 0.999 . S
H643 C624 0.913 . S
H644 C662 0.951 . S
H645 C664 0.951 . S
H646 C666 0.950 . S
H647 C667 0.950 . S
H648 C669 0.950 . S
H649 C672 0.950 . S
H650 C673 0.950 . S
H651 C675 0.950 . S
H652 C676 0.950 . S
H653 C677 0.951 . S
H654 C679 0.951 . S
H655 C681 0.950 . S
H656 C682 0.950 . S
H657 C684 0.950 . S
H658 C687 0.950 . S
H659 C688 0.950 . S
H660 C690 0.950 . S
H661 C691 0.950 . S
C662 H644 0.951 . S
C662 C663 1.366 . S
C662 C664 1.388 . S
C663 C662 1.366 . S
C663 C667 1.385 . S
C664 H645 0.951 . S
C664 C662 1.388 . S
C664 C665 1.366 . S
C665 C664 1.366 . S
C665 C666 1.414 . S
C665 C668 1.499 . S
C666 H646 0.950 . S
C666 C665 1.414 . S
C666 C667 1.374 . S
C667 H647 0.950 . S
C667 C663 1.385 . S
C667 C666 1.374 . S
C668 C665 1.499 . S
C668 C669 1.373 . S
C668 C670 1.389 . S
C669 H648 0.950 . S
C669 C668 1.373 . S
C669 C685 1.377 1_655 S
C670 C668 1.389 . S
C670 C671 1.524 . S
C670 C684 1.377 1_655 S
C671 C670 1.524 . S
C671 C672 1.397 . S
C671 C676 1.363 . S
C672 H649 0.950 . S
C672 C671 1.397 . S
C672 C673 1.334 . S
C673 H650 0.950 . S
C673 C672 1.334 . S
C673 C674 1.287 . S
C674 C673 1.287 . S
C674 C675 1.524 . S
C674 H693 0.913 . S
C675 H651 0.950 . S
C675 C674 1.524 . S
C675 C676 1.415 . S
C676 H652 0.950 . S
C676 C671 1.363 . S
C676 C675 1.415 . S
C677 H653 0.951 . S
C677 C678 1.366 . S
C677 C679 1.388 . S
C678 C677 1.366 . S
C678 C682 1.385 . S
C679 H654 0.951 . S
C679 C677 1.388 . S
C679 C680 1.366 . S
C680 C679 1.366 . S
C680 C681 1.414 . S
C680 C683 1.499 . S
C681 H655 0.950 . S
C681 C680 1.414 . S
C681 C682 1.374 . S
C682 H656 0.950 . S
C682 C678 1.385 . S
C682 C681 1.374 . S
C683 C680 1.499 . S
C683 C684 1.373 . S
C683 C685 1.389 . S
C684 H657 0.950 . S
C684 C670 1.377 1_455 S
C684 C683 1.373 . S
C685 C669 1.377 1_455 S
C685 C683 1.389 . S
C685 C686 1.524 . S
C686 C685 1.524 . S
C686 C687 1.397 . S
C686 C691 1.363 . S
C687 H658 0.950 . S
C687 C686 1.397 . S
C687 C688 1.334 . S
C688 H659 0.950 . S
C688 C687 1.334 . S
C688 C689 1.287 . S
C689 C688 1.287 . S
C689 C690 1.524 . S
C689 H692 0.999 . S
C690 H660 0.950 . S
C690 C689 1.524 . S
C690 C691 1.415 . S
C691 H661 0.950 . S
C691 C686 1.363 . S
C691 C690 1.415 . S
H692 C689 0.999 . S
H693 C674 0.913 . S
H694 C712 0.951 . S
H695 C714 0.951 . S
H696 C716 0.950 . S
H697 C717 0.950 . S
H698 C719 0.950 . S
H699 C722 0.950 . S
H700 C723 0.950 . S
H701 C725 0.950 . S
H702 C726 0.950 . S
H703 C727 0.951 . S
H704 C729 0.951 . S
H705 C731 0.950 . S
H706 C732 0.950 . S
H707 C734 0.950 . S
H708 C737 0.950 . S
H709 C738 0.950 . S
H710 C740 0.950 . S
H711 C741 0.950 . S
C712 H694 0.951 . S
C712 C713 1.366 . S
C712 C714 1.388 . S
C713 C712 1.366 . S
C713 C717 1.385 . S
C714 H695 0.951 . S
C714 C712 1.388 . S
C714 C715 1.366 . S
C715 C714 1.366 . S
C715 C716 1.414 . S
C715 C718 1.499 . S
C716 H696 0.950 . S
C716 C715 1.414 . S
C716 C717 1.374 . S
C717 H697 0.950 . S
C717 C713 1.385 . S
C717 C716 1.374 . S
C718 C715 1.499 . S
C718 C719 1.373 . S
C718 C720 1.389 . S
C719 H698 0.950 . S
C719 C718 1.373 . S
C719 C735 1.377 1_565 S
C720 C718 1.389 . S
C720 C721 1.524 . S
C720 C734 1.377 1_565 S
C721 C720 1.524 . S
C721 C722 1.397 . S
C721 C726 1.363 . S
C722 H699 0.950 . S
C722 C721 1.397 . S
C722 C723 1.334 . S
C723 H700 0.950 . S
C723 C722 1.334 . S
C723 C724 1.287 . S
C724 C723 1.287 . S
C724 C725 1.524 . S
C724 H743 0.913 . S
C725 H701 0.950 . S
C725 C724 1.524 . S
C725 C726 1.415 . S
C726 H702 0.950 . S
C726 C721 1.363 . S
C726 C725 1.415 . S
C727 H703 0.951 . S
C727 C728 1.366 . S
C727 C729 1.388 . S
C728 C727 1.366 . S
C728 C732 1.385 . S
C729 H704 0.951 . S
C729 C727 1.388 . S
C729 C730 1.366 . S
C730 C729 1.366 . S
C730 C731 1.414 . S
C730 C733 1.499 . S
C731 H705 0.950 . S
C731 C730 1.414 . S
C731 C732 1.374 . S
C732 H706 0.950 . S
C732 C728 1.385 . S
C732 C731 1.374 . S
C733 C730 1.499 . S
C733 C734 1.373 . S
C733 C735 1.389 . S
C734 H707 0.950 . S
C734 C720 1.377 1_545 S
C734 C733 1.373 . S
C735 C719 1.377 1_545 S
C735 C733 1.389 . S
C735 C736 1.524 . S
C736 C735 1.524 . S
C736 C737 1.397 . S
C736 C741 1.363 . S
C737 H708 0.950 . S
C737 C736 1.397 . S
C737 C738 1.334 . S
C738 H709 0.950 . S
C738 C737 1.334 . S
C738 C739 1.287 . S
C739 C738 1.287 . S
C739 C740 1.524 . S
C739 H742 0.999 . S
C740 H710 0.950 . S
C740 C739 1.524 . S
C740 C741 1.415 . S
C741 H711 0.950 . S
C741 C736 1.363 . S
C741 C740 1.415 . S
H742 C739 0.999 . S
H743 C724 0.913 . S
H744 C762 0.951 . S
H745 C764 0.951 . S
H746 C766 0.950 . S
H747 C767 0.936 1_545 S
H748 C769 0.950 . S
H749 C772 0.950 . S
H750 C773 0.950 . S
H751 C775 0.950 . S
H752 C776 0.950 1_565 S
H753 C777 0.951 . S
H754 C779 0.951 . S
H755 C781 0.950 . S
H756 C782 0.936 1_565 S
H757 C784 0.950 . S
H758 C787 0.950 . S
H759 C788 0.950 . S
H760 C790 0.950 . S
H761 C791 0.950 1_545 S
C762 H744 0.951 . S
C762 C763 1.366 . S
C762 C764 1.388 . S
C763 C762 1.366 . S
C763 C767 1.405 . S
C764 H745 0.951 . S
C764 C762 1.388 . S
C764 C765 1.366 . S
C765 C764 1.366 . S
C765 C766 1.414 1_565 S
C765 C768 1.499 . S
C766 H746 0.950 . S
C766 C765 1.414 1_545 S
C766 C767 1.368 1_545 S
C767 H747 0.936 1_565 S
C767 C763 1.405 . S
C767 C766 1.368 1_565 S
C768 C765 1.499 . S
C768 C769 1.373 . S
C768 C770 1.389 1_565 S
C769 H748 0.950 . S
C769 C768 1.373 . S
C769 C785 1.377 . S
C770 C768 1.389 1_545 S
C770 C771 1.524 . S
C770 C784 1.377 . S
C771 C770 1.524 . S
C771 C772 1.397 . S
C771 C776 1.363 . S
C772 H749 0.950 . S
C772 C771 1.397 . S
C772 C773 1.334 . S
C773 H750 0.950 . S
C773 C772 1.334 . S
C773 C774 1.287 . S
C774 C773 1.287 . S
C774 C775 1.524 . S
C774 H793 0.913 . S
C775 H751 0.950 . S
C775 C774 1.524 . S
C775 C776 1.415 . S
C776 H752 0.950 1_545 S
C776 C771 1.363 . S
C776 C775 1.415 . S
C777 H753 0.951 . S
C777 C778 1.366 . S
C777 C779 1.388 . S
C778 C777 1.366 . S
C778 C782 1.405 . S
C779 H754 0.951 . S
C779 C777 1.388 . S
C779 C780 1.366 . S
C780 C779 1.366 . S
C780 C781 1.414 1_545 S
C780 C783 1.499 . S
C781 H755 0.950 . S
C781 C780 1.414 1_565 S
C781 C782 1.368 1_565 S
C782 H756 0.936 1_545 S
C782 C778 1.405 . S
C782 C781 1.368 1_545 S
C783 C780 1.499 . S
C783 C784 1.373 . S
C783 C785 1.389 1_545 S
C784 H757 0.950 . S
C784 C770 1.377 . S
C784 C783 1.373 . S
C785 C769 1.377 . S
C785 C783 1.389 1_565 S
C785 C786 1.524 . S
C786 C785 1.524 . S
C786 C787 1.397 . S
C786 C791 1.363 . S
C787 H758 0.950 . S
C787 C786 1.397 . S
C787 C788 1.334 . S
C788 H759 0.950 . S
C788 C787 1.334 . S
C788 C789 1.287 . S
C789 C788 1.287 . S
C789 C790 1.524 . S
C789 H792 0.999 . S
C790 H760 0.950 . S
C790 C789 1.524 . S
C790 C791 1.415 . S
C791 H761 0.950 1_565 S
C791 C786 1.363 . S
C791 C790 1.415 . S
H792 C789 0.999 . S
H793 C774 0.913 . S
H794 C812 0.951 . S
H795 C814 0.951 . S
H796 C816 0.950 . S
H797 C817 0.950 . S
H798 C819 0.950 . S
H799 C822 0.950 . S
H800 C823 0.950 . S
H801 C825 0.950 . S
H802 C826 0.950 . S
H803 C827 0.951 . S
H804 C829 0.951 . S
H805 C831 0.950 . S
H806 C832 0.950 . S
H807 C834 0.950 . S
H808 C837 0.950 . S
H809 C838 0.950 . S
H810 C840 0.950 . S
H811 C841 0.950 . S
C812 H794 0.951 . S
C812 C813 1.366 . S
C812 C814 1.388 . S
C813 C812 1.366 . S
C813 C817 1.385 1_655 S
C814 H795 0.951 . S
C814 C812 1.388 . S
C814 C815 1.366 . S
C815 C814 1.366 . S
C815 C816 1.414 1_655 S
C815 C818 1.499 . S
C816 H796 0.950 . S
C816 C815 1.414 1_455 S
C816 C817 1.374 . S
C817 H797 0.950 . S
C817 C813 1.385 1_455 S
C817 C816 1.374 . S
C818 C815 1.499 . S
C818 C819 1.373 1_655 S
C818 C820 1.389 . S
C819 H798 0.950 . S
C819 C818 1.373 1_455 S
C819 C835 1.377 . S
C820 C818 1.389 . S
C820 C821 1.524 . S
C820 C834 1.377 . S
C821 C820 1.524 . S
C821 C822 1.397 . S
C821 C826 1.363 . S
C822 H799 0.950 . S
C822 C821 1.397 . S
C822 C823 1.334 . S
C823 H800 0.950 . S
C823 C822 1.334 . S
C823 C824 1.287 . S
C824 C823 1.287 . S
C824 C825 1.524 . S
C824 H843 0.913 . S
C825 H801 0.950 . S
C825 C824 1.524 . S
C825 C826 1.415 . S
C826 H802 0.950 . S
C826 C821 1.363 . S
C826 C825 1.415 . S
C827 H803 0.951 . S
C827 C828 1.366 . S
C827 C829 1.388 . S
C828 C827 1.366 . S
C828 C832 1.385 1_455 S
C829 H804 0.951 . S
C829 C827 1.388 . S
C829 C830 1.366 . S
C830 C829 1.366 . S
C830 C831 1.414 1_455 S
C830 C833 1.499 . S
C831 H805 0.950 . S
C831 C830 1.414 1_655 S
C831 C832 1.374 . S
C832 H806 0.950 . S
C832 C828 1.385 1_655 S
C832 C831 1.374 . S
C833 C830 1.499 . S
C833 C834 1.373 1_455 S
C833 C835 1.389 . S
C834 H807 0.950 . S
C834 C820 1.377 . S
C834 C833 1.373 1_655 S
C835 C819 1.377 . S
C835 C833 1.389 . S
C835 C836 1.524 . S
C836 C835 1.524 . S
C836 C837 1.397 . S
C836 C841 1.363 . S
C837 H808 0.950 . S
C837 C836 1.397 . S
C837 C838 1.334 . S
C838 H809 0.950 . S
C838 C837 1.334 . S
C838 C839 1.287 . S
C839 C838 1.287 . S
C839 C840 1.524 . S
C839 H842 0.999 . S
C840 H810 0.950 . S
C840 C839 1.524 . S
C840 C841 1.415 . S
C841 H811 0.950 . S
C841 C836 1.363 . S
C841 C840 1.415 . S
H842 C839 0.999 . S
H843 C824 0.913 . S
H844 C862 0.951 . S
H845 C864 0.951 . S
H846 C866 0.950 . S
H847 C867 0.950 . S
H848 C869 0.950 . S
H849 C872 0.950 . S
H850 C873 0.950 . S
H851 C875 0.950 . S
H852 C876 0.950 . S
H853 C877 0.951 . S
H854 C879 0.951 . S
H855 C881 0.950 . S
H856 C882 0.950 . S
H857 C884 0.950 . S
H858 C887 0.950 . S
H859 C888 0.950 . S
H860 C890 0.950 . S
H861 C891 0.950 . S
C862 H844 0.951 . S
C862 C863 1.366 . S
C862 C864 1.388 . S
C863 C862 1.366 . S
C863 C867 1.385 1_565 S
C864 H845 0.951 . S
C864 C862 1.388 . S
C864 C865 1.366 . S
C865 C864 1.366 . S
C865 C866 1.414 1_565 S
C865 C868 1.499 . S
C866 H846 0.950 . S
C866 C865 1.414 1_545 S
C866 C867 1.374 . S
C867 H847 0.950 . S
C867 C863 1.385 1_545 S
C867 C866 1.374 . S
C868 C865 1.499 . S
C868 C869 1.373 1_565 S
C868 C870 1.389 . S
C869 H848 0.950 . S
C869 C868 1.373 1_545 S
C869 C885 1.377 . S
C870 C868 1.389 . S
C870 C871 1.524 . S
C870 C884 1.377 . S
C871 C870 1.524 . S
C871 C872 1.397 . S
C871 C876 1.363 . S
C872 H849 0.950 . S
C872 C871 1.397 . S
C872 C873 1.334 . S
C873 H850 0.950 . S
C873 C872 1.334 . S
C873 C874 1.287 . S
C874 C873 1.287 . S
C874 C875 1.524 . S
C874 H893 0.913 . S
C875 H851 0.950 . S
C875 C874 1.524 . S
C875 C876 1.415 . S
C876 H852 0.950 . S
C876 C871 1.363 . S
C876 C875 1.415 . S
C877 H853 0.951 . S
C877 C878 1.366 . S
C877 C879 1.388 . S
C878 C877 1.366 . S
C878 C882 1.385 1_545 S
C879 H854 0.951 . S
C879 C877 1.388 . S
C879 C880 1.366 . S
C880 C879 1.366 . S
C880 C881 1.414 1_545 S
C880 C883 1.499 . S
C881 H855 0.950 . S
C881 C880 1.414 1_565 S
C881 C882 1.374 . S
C882 H856 0.950 . S
C882 C878 1.385 1_565 S
C882 C881 1.374 . S
C883 C880 1.499 . S
C883 C884 1.373 1_545 S
C883 C885 1.389 . S
C884 H857 0.950 . S
C884 C870 1.377 . S
C884 C883 1.373 1_565 S
C885 C869 1.377 . S
C885 C883 1.389 . S
C885 C886 1.524 . S
C886 C885 1.524 . S
C886 C887 1.397 . S
C886 C891 1.363 . S
C887 H858 0.950 . S
C887 C886 1.397 . S
C887 C888 1.334 . S
C888 H859 0.950 . S
C888 C887 1.334 . S
C888 C889 1.287 . S
C889 C888 1.287 . S
C889 C890 1.524 . S
C889 H892 0.999 . S
C890 H860 0.950 . S
C890 C889 1.524 . S
C890 C891 1.415 . S
C891 H861 0.950 . S
C891 C886 1.363 . S
C891 C890 1.415 . S
H892 C889 0.999 . S
H893 C874 0.913 . S
H894 C912 0.951 1_455 S
H895 C914 0.951 . S
H896 C916 0.950 . S
H897 C917 0.950 . S
H898 C919 0.950 . S
H899 C922 0.950 . S
H900 C923 0.950 . S
H901 C925 0.950 . S
H902 C926 0.950 . S
H903 C927 0.951 1_655 S
H904 C929 0.951 . S
H905 C931 0.950 . S
H906 C932 0.950 . S
H907 C934 0.950 . S
H908 C937 0.950 . S
H909 C938 0.950 . S
H910 C940 0.950 . S
H911 C941 0.950 . S
C912 H894 0.951 1_655 S
C912 C913 1.366 . S
C912 C914 1.388 1_655 S
C913 C912 1.366 . S
C913 C917 1.385 . S
C914 H895 0.951 . S
C914 C912 1.388 1_455 S
C914 C915 1.366 1_455 S
C915 C914 1.366 1_655 S
C915 C916 1.414 . S
C915 C918 1.499 . S
C916 H896 0.950 . S
C916 C915 1.414 . S
C916 C917 1.374 . S
C917 H897 0.950 . S
C917 C913 1.385 . S
C917 C916 1.374 . S
C918 C915 1.499 . S
C918 C919 1.373 . S
C918 C920 1.389 1_655 S
C919 H898 0.950 . S
C919 C918 1.373 . S
C919 C935 1.377 . S
C920 C918 1.389 1_455 S
C920 C921 1.524 . S
C920 C934 1.377 . S
C921 C920 1.524 . S
C921 C922 1.397 . S
C921 C926 1.363 . S
C922 H899 0.950 . S
C922 C921 1.397 . S
C922 C923 1.334 . S
C923 H900 0.950 . S
C923 C922 1.334 . S
C923 C924 1.287 . S
C924 C923 1.287 . S
C924 C925 1.524 . S
C924 H943 0.913 . S
C925 H901 0.950 . S
C925 C924 1.524 . S
C925 C926 1.415 . S
C926 H902 0.950 . S
C926 C921 1.363 . S
C926 C925 1.415 . S
C927 H903 0.951 1_455 S
C927 C928 1.366 . S
C927 C929 1.388 1_455 S
C928 C927 1.366 . S
C928 C932 1.385 . S
C929 H904 0.951 . S
C929 C927 1.388 1_655 S
C929 C930 1.366 1_655 S
C930 C929 1.366 1_455 S
C930 C931 1.414 . S
C930 C933 1.499 . S
C931 H905 0.950 . S
C931 C930 1.414 . S
C931 C932 1.374 . S
C932 H906 0.950 . S
C932 C928 1.385 . S
C932 C931 1.374 . S
C933 C930 1.499 . S
C933 C934 1.373 . S
C933 C935 1.389 1_455 S
C934 H907 0.950 . S
C934 C920 1.377 . S
C934 C933 1.373 . S
C935 C919 1.377 . S
C935 C933 1.389 1_655 S
C935 C936 1.524 . S
C936 C935 1.524 . S
C936 C937 1.397 . S
C936 C941 1.363 . S
C937 H908 0.950 . S
C937 C936 1.397 . S
C937 C938 1.334 . S
C938 H909 0.950 . S
C938 C937 1.334 . S
C938 C939 1.287 . S
C939 C938 1.287 . S
C939 C940 1.524 . S
C939 H942 0.999 . S
C940 H910 0.950 . S
C940 C939 1.524 . S
C940 C941 1.415 . S
C941 H911 0.950 . S
C941 C936 1.363 . S
C941 C940 1.415 . S
H942 C939 0.999 . S
H943 C924 0.913 . S
H944 C962 0.951 . S
H945 C964 0.951 . S
H946 C966 0.950 . S
H947 C967 0.950 . S
H948 C969 0.950 . S
H949 C972 0.950 . S
H950 C973 0.950 . S
H951 C975 0.950 . S
H952 C976 0.950 . S
H953 C977 0.951 . S
H954 C979 0.951 . S
H955 C981 0.950 . S
H956 C982 0.950 . S
H957 C984 0.950 . S
H958 C987 0.950 . S
H959 C988 0.950 . S
H960 C990 0.950 . S
H961 C991 0.950 . S
C962 H944 0.951 . S
C962 C963 1.366 . S
C962 C964 1.388 . S
C963 C962 1.366 . S
C963 C967 1.385 . S
C964 H945 0.951 . S
C964 C962 1.388 . S
C964 C965 1.366 . S
C965 C964 1.366 . S
C965 C966 1.414 . S
C965 C968 1.499 . S
C966 H946 0.950 . S
C966 C965 1.414 . S
C966 C967 1.374 . S
C967 H947 0.950 . S
C967 C963 1.385 . S
C967 C966 1.374 . S
C968 C965 1.499 . S
C968 C969 1.373 . S
C968 C970 1.389 . S
C969 H948 0.950 . S
C969 C968 1.373 . S
C969 C985 1.377 . S
C970 C968 1.389 . S
C970 C971 1.524 . S
C970 C984 1.377 . S
C971 C970 1.524 . S
C971 C972 1.397 . S
C971 C976 1.363 . S
C972 H949 0.950 . S
C972 C971 1.397 . S
C972 C973 1.334 . S
C973 H950 0.950 . S
C973 C972 1.334 . S
C973 C974 1.287 . S
C974 C973 1.287 . S
C974 C975 1.524 . S
C974 H993 0.913 . S
C975 H951 0.950 . S
C975 C974 1.524 . S
C975 C976 1.415 . S
C976 H952 0.950 . S
C976 C971 1.363 . S
C976 C975 1.415 . S
C977 H953 0.951 . S
C977 C978 1.366 . S
C977 C979 1.388 . S
C978 C977 1.366 . S
C978 C982 1.385 . S
C979 H954 0.951 . S
C979 C977 1.388 . S
C979 C980 1.366 . S
C980 C979 1.366 . S
C980 C981 1.414 . S
C980 C983 1.499 . S
C981 H955 0.950 . S
C981 C980 1.414 . S
C981 C982 1.374 . S
C982 H956 0.950 . S
C982 C978 1.385 . S
C982 C981 1.374 . S
C983 C980 1.499 . S
C983 C984 1.373 . S
C983 C985 1.389 . S
C984 H957 0.950 . S
C984 C970 1.377 . S
C984 C983 1.373 . S
C985 C969 1.377 . S
C985 C983 1.389 . S
C985 C986 1.524 . S
C986 C985 1.524 . S
C986 C987 1.397 . S
C986 C991 1.363 . S
C987 H958 0.950 . S
C987 C986 1.397 . S
C987 C988 1.334 . S
C988 H959 0.950 . S
C988 C987 1.334 . S
C988 C989 1.287 . S
C989 C988 1.287 . S
C989 C990 1.524 . S
C989 H992 0.999 . S
C990 H960 0.950 . S
C990 C989 1.524 . S
C990 C991 1.415 . S
C991 H961 0.950 . S
C991 C986 1.363 . S
C991 C990 1.415 . S
H992 C989 0.999 . S
H993 C974 0.913 . S
H994 C1012 0.951 . S
H995 C1014 0.951 . S
H996 C1016 0.950 . S
H997 C1017 0.950 . S
H998 C1019 0.950 . S
H999 C1022 0.950 . S
H1000 C1023 0.950 . S
H1001 C1025 0.950 . S
H1002 C1026 0.950 . S
H1003 C1027 0.951 . S
H1004 C1029 0.951 . S
H1005 C1031 0.950 . S
H1006 C1032 0.950 . S
H1007 C1034 0.950 . S
H1008 C1037 0.950 . S
H1009 C1038 0.950 . S
H1010 C1040 0.950 . S
H1011 C1041 0.950 . S
C1012 H994 0.951 . S
C1012 C1013 1.366 . S
C1012 C1014 1.388 . S
C1013 C1012 1.366 . S
C1013 C1017 1.385 . S
C1014 H995 0.951 . S
C1014 C1012 1.388 . S
C1014 C1015 1.366 . S
C1015 C1014 1.366 . S
C1015 C1016 1.414 . S
C1015 C1018 1.499 . S
C1016 H996 0.950 . S
C1016 C1015 1.414 . S
C1016 C1017 1.374 . S
C1017 H997 0.950 . S
C1017 C1013 1.385 . S
C1017 C1016 1.374 . S
C1018 C1015 1.499 . S
C1018 C1019 1.373 . S
C1018 C1020 1.389 . S
C1019 H998 0.950 . S
C1019 C1018 1.373 . S
C1019 C1035 1.377 . S
C1020 C1018 1.389 . S
C1020 C1021 1.524 . S
C1020 C1034 1.377 . S
C1021 C1020 1.524 . S
C1021 C1022 1.397 . S
C1021 C1026 1.363 . S
C1022 H999 0.950 . S
C1022 C1021 1.397 . S
C1022 C1023 1.334 . S
C1023 H1000 0.950 . S
C1023 C1022 1.334 . S
C1023 C1024 1.287 . S
C1024 C1023 1.287 . S
C1024 C1025 1.524 . S
C1024 H1043 0.913 . S
C1025 H1001 0.950 . S
C1025 C1024 1.524 . S
C1025 C1026 1.415 . S
C1026 H1002 0.950 . S
C1026 C1021 1.363 . S
C1026 C1025 1.415 . S
C1027 H1003 0.951 . S
C1027 C1028 1.366 . S
C1027 C1029 1.388 . S
C1028 C1027 1.366 . S
C1028 C1032 1.385 . S
C1029 H1004 0.951 . S
C1029 C1027 1.388 . S
C1029 C1030 1.366 . S
C1030 C1029 1.366 . S
C1030 C1031 1.414 . S
C1030 C1033 1.499 . S
C1031 H1005 0.950 . S
C1031 C1030 1.414 . S
C1031 C1032 1.374 . S
C1032 H1006 0.950 . S
C1032 C1028 1.385 . S
C1032 C1031 1.374 . S
C1033 C1030 1.499 . S
C1033 C1034 1.373 . S
C1033 C1035 1.389 . S
C1034 H1007 0.950 . S
C1034 C1020 1.377 . S
C1034 C1033 1.373 . S
C1035 C1019 1.377 . S
C1035 C1033 1.389 . S
C1035 C1036 1.524 . S
C1036 C1035 1.524 . S
C1036 C1037 1.397 . S
C1036 C1041 1.363 . S
C1037 H1008 0.950 . S
C1037 C1036 1.397 . S
C1037 C1038 1.334 . S
C1038 H1009 0.950 . S
C1038 C1037 1.334 . S
C1038 C1039 1.287 . S
C1039 C1038 1.287 . S
C1039 C1040 1.524 . S
C1039 H1042 0.999 . S
C1040 H1010 0.950 . S
C1040 C1039 1.524 . S
C1040 C1041 1.415 . S
C1041 H1011 0.950 . S
C1041 C1036 1.363 . S
C1041 C1040 1.415 . S
H1042 C1039 0.999 . S
H1043 C1024 0.913 . S
H1044 C1062 0.951 . S
H1045 C1064 0.951 . S
H1046 C1066 0.950 . S
H1047 C1067 0.950 . S
H1048 C1069 0.950 . S
H1049 C1072 0.950 . S
H1050 C1073 0.950 . S
H1051 C1075 0.950 . S
H1052 C1076 0.950 . S
H1053 C1077 0.951 . S
H1054 C1079 0.951 . S
H1055 C1081 0.950 . S
H1056 C1082 0.950 . S
H1057 C1084 0.950 . S
H1058 C1087 0.950 . S
H1059 C1088 0.950 . S
H1060 C1090 0.950 . S
H1061 C1091 0.950 . S
C1062 H1044 0.951 . S
C1062 C1063 1.366 . S
C1062 C1064 1.388 . S
C1063 C1062 1.366 . S
C1063 C1067 1.385 . S
C1064 H1045 0.951 . S
C1064 C1062 1.388 . S
C1064 C1065 1.366 . S
C1065 C1064 1.366 . S
C1065 C1066 1.414 . S
C1065 C1068 1.499 . S
C1066 H1046 0.950 . S
C1066 C1065 1.414 . S
C1066 C1067 1.374 . S
C1067 H1047 0.950 . S
C1067 C1063 1.385 . S
C1067 C1066 1.374 . S
C1068 C1065 1.499 . S
C1068 C1069 1.373 . S
C1068 C1070 1.389 . S
C1069 H1048 0.950 . S
C1069 C1068 1.373 . S
C1069 C1085 1.377 . S
C1070 C1068 1.389 . S
C1070 C1071 1.524 . S
C1070 C1084 1.377 . S
C1071 C1070 1.524 . S
C1071 C1072 1.397 . S
C1071 C1076 1.363 . S
C1072 H1049 0.950 . S
C1072 C1071 1.397 . S
C1072 C1073 1.334 . S
C1073 H1050 0.950 . S
C1073 C1072 1.334 . S
C1073 C1074 1.287 . S
C1074 C1073 1.287 . S
C1074 C1075 1.524 . S
C1074 H1093 0.913 . S
C1075 H1051 0.950 . S
C1075 C1074 1.524 . S
C1075 C1076 1.415 . S
C1076 H1052 0.950 . S
C1076 C1071 1.363 . S
C1076 C1075 1.415 . S
C1077 H1053 0.951 . S
C1077 C1078 1.366 . S
C1077 C1079 1.388 . S
C1078 C1077 1.366 . S
C1078 C1082 1.385 . S
C1079 H1054 0.951 . S
C1079 C1077 1.388 . S
C1079 C1080 1.366 . S
C1080 C1079 1.366 . S
C1080 C1081 1.414 . S
C1080 C1083 1.499 . S
C1081 H1055 0.950 . S
C1081 C1080 1.414 . S
C1081 C1082 1.374 . S
C1082 H1056 0.950 . S
C1082 C1078 1.385 . S
C1082 C1081 1.374 . S
C1083 C1080 1.499 . S
C1083 C1084 1.373 . S
C1083 C1085 1.389 . S
C1084 H1057 0.950 . S
C1084 C1070 1.377 . S
C1084 C1083 1.373 . S
C1085 C1069 1.377 . S
C1085 C1083 1.389 . S
C1085 C1086 1.524 . S
C1086 C1085 1.524 . S
C1086 C1087 1.397 . S
C1086 C1091 1.363 . S
C1087 H1058 0.950 . S
C1087 C1086 1.397 . S
C1087 C1088 1.334 . S
C1088 H1059 0.950 . S
C1088 C1087 1.334 . S
C1088 C1089 1.287 . S
C1089 C1088 1.287 . S
C1089 C1090 1.524 . S
C1089 H1092 0.999 . S
C1090 H1060 0.950 . S
C1090 C1089 1.524 . S
C1090 C1091 1.415 . S
C1091 H1061 0.950 . S
C1091 C1086 1.363 . S
C1091 C1090 1.415 . S
H1092 C1089 0.999 . S
H1093 C1074 0.913 . S
H1094 C1112 0.951 . S
H1095 C1114 0.951 . S
H1096 C1116 0.950 . S
H1097 C1117 0.950 . S
H1098 C1119 0.950 . S
H1099 C1122 0.950 . S
H1100 C1123 0.950 . S
H1101 C1125 0.950 . S
H1102 C1126 0.950 . S
H1103 C1127 0.951 . S
H1104 C1129 0.951 . S
H1105 C1131 0.950 . S
H1106 C1132 0.950 . S
H1107 C1134 0.950 . S
H1108 C1137 0.950 . S
H1109 C1138 0.950 . S
H1110 C1140 0.950 . S
H1111 C1141 0.950 . S
C1112 H1094 0.951 . S
C1112 C1113 1.366 . S
C1112 C1114 1.388 . S
C1113 C1112 1.366 . S
C1113 C1117 1.385 . S
C1114 H1095 0.951 . S
C1114 C1112 1.388 . S
C1114 C1115 1.366 . S
C1115 C1114 1.366 . S
C1115 C1116 1.414 . S
C1115 C1118 1.499 . S
C1116 H1096 0.950 . S
C1116 C1115 1.414 . S
C1116 C1117 1.374 . S
C1117 H1097 0.950 . S
C1117 C1113 1.385 . S
C1117 C1116 1.374 . S
C1118 C1115 1.499 . S
C1118 C1119 1.373 . S
C1118 C1120 1.389 . S
C1119 H1098 0.950 . S
C1119 C1118 1.373 . S
C1119 C1135 1.377 . S
C1120 C1118 1.389 . S
C1120 C1121 1.524 . S
C1120 C1134 1.377 . S
C1121 C1120 1.524 . S
C1121 C1122 1.397 . S
C1121 C1126 1.363 . S
C1122 H1099 0.950 . S
C1122 C1121 1.397 . S
C1122 C1123 1.334 . S
C1123 H1100 0.950 . S
C1123 C1122 1.334 . S
C1123 C1124 1.287 . S
C1124 C1123 1.287 . S
C1124 C1125 1.524 . S
C1124 H1143 0.913 . S
C1125 H1101 0.950 . S
C1125 C1124 1.524 . S
C1125 C1126 1.415 . S
C1126 H1102 0.950 . S
C1126 C1121 1.363 . S
C1126 C1125 1.415 . S
C1127 H1103 0.951 . S
C1127 C1128 1.366 . S
C1127 C1129 1.388 . S
C1128 C1127 1.366 . S
C1128 C1132 1.385 . S
C1129 H1104 0.951 . S
C1129 C1127 1.388 . S
C1129 C1130 1.366 . S
C1130 C1129 1.366 . S
C1130 C1131 1.414 . S
C1130 C1133 1.499 . S
C1131 H1105 0.950 . S
C1131 C1130 1.414 . S
C1131 C1132 1.374 . S
C1132 H1106 0.950 . S
C1132 C1128 1.385 . S
C1132 C1131 1.374 . S
C1133 C1130 1.499 . S
C1133 C1134 1.373 . S
C1133 C1135 1.389 . S
C1134 H1107 0.950 . S
C1134 C1120 1.377 . S
C1134 C1133 1.373 . S
C1135 C1119 1.377 . S
C1135 C1133 1.389 . S
C1135 C1136 1.524 . S
C1136 C1135 1.524 . S
C1136 C1137 1.397 . S
C1136 C1141 1.363 . S
C1137 H1108 0.950 . S
C1137 C1136 1.397 . S
C1137 C1138 1.334 . S
C1138 H1109 0.950 . S
C1138 C1137 1.334 . S
C1138 C1139 1.287 . S
C1139 C1138 1.287 . S
C1139 C1140 1.524 . S
C1139 H1142 0.999 . S
C1140 H1110 0.950 . S
C1140 C1139 1.524 . S
C1140 C1141 1.415 . S
C1141 H1111 0.950 . S
C1141 C1136 1.363 . S
C1141 C1140 1.415 . S
H1142 C1139 0.999 . S
H1143 C1124 0.913 . S
H1144 C1162 0.951 . S
H1145 C1164 0.951 . S
H1146 C1166 0.950 . S
H1147 C1167 0.950 . S
H1148 C1169 0.950 . S
H1149 C1172 0.950 . S
H1150 C1173 0.950 . S
H1151 C1175 0.950 . S
H1152 C1176 0.950 . S
H1153 C1177 0.951 . S
H1154 C1179 0.951 . S
H1155 C1181 0.950 . S
H1156 C1182 0.950 . S
H1157 C1184 0.950 . S
H1158 C1187 0.950 . S
H1159 C1188 0.950 . S
H1160 C1190 0.950 . S
H1161 C1191 0.950 . S
C1162 H1144 0.951 . S
C1162 C1163 1.366 . S
C1162 C1164 1.388 . S
C1163 C1162 1.366 . S
C1163 C1167 1.385 . S
C1164 H1145 0.951 . S
C1164 C1162 1.388 . S
C1164 C1165 1.366 . S
C1165 C1164 1.366 . S
C1165 C1166 1.414 . S
C1165 C1168 1.499 . S
C1166 H1146 0.950 . S
C1166 C1165 1.414 . S
C1166 C1167 1.374 . S
C1167 H1147 0.950 . S
C1167 C1163 1.385 . S
C1167 C1166 1.374 . S
C1168 C1165 1.499 . S
C1168 C1169 1.373 . S
C1168 C1170 1.389 . S
C1169 H1148 0.950 . S
C1169 C1168 1.373 . S
C1169 C1185 1.377 . S
C1170 C1168 1.389 . S
C1170 C1171 1.524 . S
C1170 C1184 1.377 . S
C1171 C1170 1.524 . S
C1171 C1172 1.397 . S
C1171 C1176 1.363 . S
C1172 H1149 0.950 . S
C1172 C1171 1.397 . S
C1172 C1173 1.334 . S
C1173 H1150 0.950 . S
C1173 C1172 1.334 . S
C1173 C1174 1.287 . S
C1174 C1173 1.287 . S
C1174 C1175 1.524 . S
C1174 H1193 0.913 . S
C1175 H1151 0.950 . S
C1175 C1174 1.524 . S
C1175 C1176 1.415 . S
C1176 H1152 0.950 . S
C1176 C1171 1.363 . S
C1176 C1175 1.415 . S
C1177 H1153 0.951 . S
C1177 C1178 1.366 . S
C1177 C1179 1.388 . S
C1178 C1177 1.366 . S
C1178 C1182 1.385 . S
C1179 H1154 0.951 . S
C1179 C1177 1.388 . S
C1179 C1180 1.366 . S
C1180 C1179 1.366 . S
C1180 C1181 1.414 . S
C1180 C1183 1.499 . S
C1181 H1155 0.950 . S
C1181 C1180 1.414 . S
C1181 C1182 1.374 . S
C1182 H1156 0.950 . S
C1182 C1178 1.385 . S
C1182 C1181 1.374 . S
C1183 C1180 1.499 . S
C1183 C1184 1.373 . S
C1183 C1185 1.389 . S
C1184 H1157 0.950 . S
C1184 C1170 1.377 . S
C1184 C1183 1.373 . S
C1185 C1169 1.377 . S
C1185 C1183 1.389 . S
C1185 C1186 1.524 . S
C1186 C1185 1.524 . S
C1186 C1187 1.397 . S
C1186 C1191 1.363 . S
C1187 H1158 0.950 . S
C1187 C1186 1.397 . S
C1187 C1188 1.334 . S
C1188 H1159 0.950 . S
C1188 C1187 1.334 . S
C1188 C1189 1.287 . S
C1189 C1188 1.287 . S
C1189 C1190 1.524 . S
C1189 H1192 0.999 . S
C1190 H1160 0.950 . S
C1190 C1189 1.524 . S
C1190 C1191 1.415 . S
C1191 H1161 0.950 . S
C1191 C1186 1.363 . S
C1191 C1190 1.415 . S
H1192 C1189 0.999 . S
H1193 C1174 0.913 . S
H1194 C1212 0.951 . S
H1195 C1214 0.951 . S
H1196 C1216 0.950 . S
H1197 C1217 0.950 . S
H1198 C1219 0.950 . S
H1199 C1222 0.950 . S
H1200 C1223 0.950 . S
H1201 C1225 0.950 . S
H1202 C1226 0.950 . S
H1203 C1227 0.951 . S
H1204 C1229 0.951 . S
H1205 C1231 0.950 . S
H1206 C1232 0.950 . S
H1207 C1234 0.950 . S
H1208 C1237 0.950 . S
H1209 C1238 0.950 . S
H1210 C1240 0.950 . S
H1211 C1241 0.950 . S
C1212 H1194 0.951 . S
C1212 C1213 1.366 . S
C1212 C1214 1.388 . S
C1213 C1212 1.366 . S
C1213 C1217 1.385 . S
C1214 H1195 0.951 . S
C1214 C1212 1.388 . S
C1214 C1215 1.366 . S
C1215 C1214 1.366 . S
C1215 C1216 1.414 . S
C1215 C1218 1.499 . S
C1216 H1196 0.950 . S
C1216 C1215 1.414 . S
C1216 C1217 1.374 . S
C1217 H1197 0.950 . S
C1217 C1213 1.385 . S
C1217 C1216 1.374 . S
C1218 C1215 1.499 . S
C1218 C1219 1.373 . S
C1218 C1220 1.389 . S
C1219 H1198 0.950 . S
C1219 C1218 1.373 . S
C1219 C1235 1.377 . S
C1220 C1218 1.389 . S
C1220 C1221 1.524 . S
C1220 C1234 1.377 . S
C1221 C1220 1.524 . S
C1221 C1222 1.397 . S
C1221 C1226 1.363 . S
C1222 H1199 0.950 . S
C1222 C1221 1.397 . S
C1222 C1223 1.334 . S
C1223 H1200 0.950 . S
C1223 C1222 1.334 . S
C1223 C1224 1.287 . S
C1224 C1223 1.287 . S
C1224 C1225 1.524 . S
C1224 H1243 0.913 . S
C1225 H1201 0.950 . S
C1225 C1224 1.524 . S
C1225 C1226 1.415 . S
C1226 H1202 0.950 . S
C1226 C1221 1.363 . S
C1226 C1225 1.415 . S
C1227 H1203 0.951 . S
C1227 C1228 1.366 . S
C1227 C1229 1.388 . S
C1228 C1227 1.366 . S
C1228 C1232 1.385 . S
C1229 H1204 0.951 . S
C1229 C1227 1.388 . S
C1229 C1230 1.366 . S
C1230 C1229 1.366 . S
C1230 C1231 1.414 . S
C1230 C1233 1.499 . S
C1231 H1205 0.950 . S
C1231 C1230 1.414 . S
C1231 C1232 1.374 . S
C1232 H1206 0.950 . S
C1232 C1228 1.385 . S
C1232 C1231 1.374 . S
C1233 C1230 1.499 . S
C1233 C1234 1.373 . S
C1233 C1235 1.389 . S
C1234 H1207 0.950 . S
C1234 C1220 1.377 . S
C1234 C1233 1.373 . S
C1235 C1219 1.377 . S
C1235 C1233 1.389 . S
C1235 C1236 1.524 . S
C1236 C1235 1.524 . S
C1236 C1237 1.397 . S
C1236 C1241 1.363 . S
C1237 H1208 0.950 . S
C1237 C1236 1.397 . S
C1237 C1238 1.334 . S
C1238 H1209 0.950 . S
C1238 C1237 1.334 . S
C1238 C1239 1.287 . S
C1239 C1238 1.287 . S
C1239 C1240 1.524 . S
C1239 H1242 0.999 . S
C1240 H1210 0.950 . S
C1240 C1239 1.524 . S
C1240 C1241 1.415 . S
C1241 H1211 0.950 . S
C1241 C1236 1.363 . S
C1241 C1240 1.415 . S
H1242 C1239 0.999 . S
H1243 C1224 0.913 . S
H1244 C1262 0.951 . S
H1245 C1264 0.951 . S
H1246 C1266 0.950 . S
H1247 C1267 0.950 . S
H1248 C1269 0.950 . S
H1249 C1272 0.950 . S
H1250 C1273 0.950 . S
H1251 C1275 0.950 . S
H1252 C1276 0.950 . S
H1253 C1277 0.951 . S
H1254 C1279 0.951 . S
H1255 C1281 0.950 . S
H1256 C1282 0.950 . S
H1257 C1284 0.950 . S
H1258 C1287 0.950 . S
H1259 C1288 0.950 . S
H1260 C1290 0.950 . S
H1261 C1291 0.950 . S
C1262 H1244 0.951 . S
C1262 C1263 1.366 . S
C1262 C1264 1.388 . S
C1263 C1262 1.366 . S
C1263 C1267 1.385 . S
C1264 H1245 0.951 . S
C1264 C1262 1.388 . S
C1264 C1265 1.366 . S
C1265 C1264 1.366 . S
C1265 C1266 1.414 . S
C1265 C1268 1.499 . S
C1266 H1246 0.950 . S
C1266 C1265 1.414 . S
C1266 C1267 1.374 . S
C1267 H1247 0.950 . S
C1267 C1263 1.385 . S
C1267 C1266 1.374 . S
C1268 C1265 1.499 . S
C1268 C1269 1.373 . S
C1268 C1270 1.389 . S
C1269 H1248 0.950 . S
C1269 C1268 1.373 . S
C1269 C1285 1.377 . S
C1270 C1268 1.389 . S
C1270 C1271 1.524 . S
C1270 C1284 1.377 . S
C1271 C1270 1.524 . S
C1271 C1272 1.397 . S
C1271 C1276 1.363 . S
C1272 H1249 0.950 . S
C1272 C1271 1.397 . S
C1272 C1273 1.334 . S
C1273 H1250 0.950 . S
C1273 C1272 1.334 . S
C1273 C1274 1.287 . S
C1274 C1273 1.287 . S
C1274 C1275 1.524 . S
C1274 H1293 0.913 . S
C1275 H1251 0.950 . S
C1275 C1274 1.524 . S
C1275 C1276 1.415 . S
C1276 H1252 0.950 . S
C1276 C1271 1.363 . S
C1276 C1275 1.415 . S
C1277 H1253 0.951 . S
C1277 C1278 1.366 . S
C1277 C1279 1.388 . S
C1278 C1277 1.366 . S
C1278 C1282 1.385 . S
C1279 H1254 0.951 . S
C1279 C1277 1.388 . S
C1279 C1280 1.366 . S
C1280 C1279 1.366 . S
C1280 C1281 1.414 . S
C1280 C1283 1.499 . S
C1281 H1255 0.950 . S
C1281 C1280 1.414 . S
C1281 C1282 1.374 . S
C1282 H1256 0.950 . S
C1282 C1278 1.385 . S
C1282 C1281 1.374 . S
C1283 C1280 1.499 . S
C1283 C1284 1.373 . S
C1283 C1285 1.389 . S
C1284 H1257 0.950 . S
C1284 C1270 1.377 . S
C1284 C1283 1.373 . S
C1285 C1269 1.377 . S
C1285 C1283 1.389 . S
C1285 C1286 1.524 . S
C1286 C1285 1.524 . S
C1286 C1287 1.397 . S
C1286 C1291 1.363 . S
C1287 H1258 0.950 . S
C1287 C1286 1.397 . S
C1287 C1288 1.334 . S
C1288 H1259 0.950 . S
C1288 C1287 1.334 . S
C1288 C1289 1.287 . S
C1289 C1288 1.287 . S
C1289 C1290 1.524 . S
C1289 H1292 0.999 . S
C1290 H1260 0.950 . S
C1290 C1289 1.524 . S
C1290 C1291 1.415 . S
C1291 H1261 0.950 . S
C1291 C1286 1.363 . S
C1291 C1290 1.415 . S
H1292 C1289 0.999 . S
H1293 C1274 0.913 . S
H1294 C1312 0.951 . S
H1295 C1314 0.951 . S
H1296 C1316 0.950 . S
H1297 C1317 0.950 . S
H1298 C1319 0.950 . S
H1299 C1322 0.950 . S
H1300 C1323 0.950 . S
H1301 C1325 0.950 . S
H1302 C1326 0.950 . S
H1303 C1327 0.951 . S
H1304 C1329 0.951 . S
H1305 C1331 0.950 . S
H1306 C1332 0.950 . S
H1307 C1334 0.950 . S
H1308 C1337 0.950 . S
H1309 C1338 0.950 . S
H1310 C1340 0.950 . S
H1311 C1341 0.950 . S
C1312 H1294 0.951 . S
C1312 C1313 1.366 . S
C1312 C1314 1.388 . S
C1313 C1312 1.366 . S
C1313 C1317 1.385 . S
C1314 H1295 0.951 . S
C1314 C1312 1.388 . S
C1314 C1315 1.366 . S
C1315 C1314 1.366 . S
C1315 C1316 1.414 . S
C1315 C1318 1.499 . S
C1316 H1296 0.950 . S
C1316 C1315 1.414 . S
C1316 C1317 1.374 . S
C1317 H1297 0.950 . S
C1317 C1313 1.385 . S
C1317 C1316 1.374 . S
C1318 C1315 1.499 . S
C1318 C1319 1.373 . S
C1318 C1320 1.389 . S
C1319 H1298 0.950 . S
C1319 C1318 1.373 . S
C1319 C1335 1.377 . S
C1320 C1318 1.389 . S
C1320 C1321 1.524 . S
C1320 C1334 1.377 . S
C1321 C1320 1.524 . S
C1321 C1322 1.397 . S
C1321 C1326 1.363 . S
C1322 H1299 0.950 . S
C1322 C1321 1.397 . S
C1322 C1323 1.334 . S
C1323 H1300 0.950 . S
C1323 C1322 1.334 . S
C1323 C1324 1.287 . S
C1324 C1323 1.287 . S
C1324 C1325 1.524 . S
C1324 H1343 0.913 . S
C1325 H1301 0.950 . S
C1325 C1324 1.524 . S
C1325 C1326 1.415 . S
C1326 H1302 0.950 . S
C1326 C1321 1.363 . S
C1326 C1325 1.415 . S
C1327 H1303 0.951 . S
C1327 C1328 1.366 . S
C1327 C1329 1.388 . S
C1328 C1327 1.366 . S
C1328 C1332 1.385 . S
C1329 H1304 0.951 . S
C1329 C1327 1.388 . S
C1329 C1330 1.366 . S
C1330 C1329 1.366 . S
C1330 C1331 1.414 . S
C1330 C1333 1.499 . S
C1331 H1305 0.950 . S
C1331 C1330 1.414 . S
C1331 C1332 1.374 . S
C1332 H1306 0.950 . S
C1332 C1328 1.385 . S
C1332 C1331 1.374 . S
C1333 C1330 1.499 . S
C1333 C1334 1.373 . S
C1333 C1335 1.389 . S
C1334 H1307 0.950 . S
C1334 C1320 1.377 . S
C1334 C1333 1.373 . S
C1335 C1319 1.377 . S
C1335 C1333 1.389 . S
C1335 C1336 1.524 . S
C1336 C1335 1.524 . S
C1336 C1337 1.397 . S
C1336 C1341 1.363 . S
C1337 H1308 0.950 . S
C1337 C1336 1.397 . S
C1337 C1338 1.334 . S
C1338 H1309 0.950 . S
C1338 C1337 1.334 . S
C1338 C1339 1.287 . S
C1339 C1338 1.287 . S
C1339 C1340 1.524 . S
C1339 H1342 0.999 . S
C1340 H1310 0.950 . S
C1340 C1339 1.524 . S
C1340 C1341 1.415 . S
C1341 H1311 0.950 . S
C1341 C1336 1.363 . S
C1341 C1340 1.415 . S
H1342 C1339 0.999 . S
H1343 C1324 0.913 . S
H1344 C1362 0.951 . S
H1345 C1364 0.951 . S
H1346 C1366 0.950 . S
H1347 C1367 0.950 . S
H1348 C1369 0.950 . S
H1349 C1372 0.950 . S
H1350 C1373 0.950 . S
H1351 C1375 0.950 . S
H1352 C1376 0.950 . S
H1353 C1377 0.951 . S
H1354 C1379 0.951 . S
H1355 C1381 0.950 . S
H1356 C1382 0.950 . S
H1357 C1384 0.950 . S
H1358 C1387 0.950 . S
H1359 C1388 0.950 . S
H1360 C1390 0.950 . S
H1361 C1391 0.950 . S
C1362 H1344 0.951 . S
C1362 C1363 1.366 . S
C1362 C1364 1.388 . S
C1363 C1362 1.366 . S
C1363 C1367 1.385 . S
C1364 H1345 0.951 . S
C1364 C1362 1.388 . S
C1364 C1365 1.366 . S
C1365 C1364 1.366 . S
C1365 C1366 1.414 . S
C1365 C1368 1.499 . S
C1366 H1346 0.950 . S
C1366 C1365 1.414 . S
C1366 C1367 1.374 . S
C1367 H1347 0.950 . S
C1367 C1363 1.385 . S
C1367 C1366 1.374 . S
C1368 C1365 1.499 . S
C1368 C1369 1.373 . S
C1368 C1370 1.389 . S
C1369 H1348 0.950 . S
C1369 C1368 1.373 . S
C1369 C1385 1.377 . S
C1370 C1368 1.389 . S
C1370 C1371 1.524 . S
C1370 C1384 1.377 . S
C1371 C1370 1.524 . S
C1371 C1372 1.397 . S
C1371 C1376 1.363 . S
C1372 H1349 0.950 . S
C1372 C1371 1.397 . S
C1372 C1373 1.334 . S
C1373 H1350 0.950 . S
C1373 C1372 1.334 . S
C1373 C1374 1.287 . S
C1374 C1373 1.287 . S
C1374 C1375 1.524 . S
C1374 H1393 0.913 . S
C1375 H1351 0.950 . S
C1375 C1374 1.524 . S
C1375 C1376 1.415 . S
C1376 H1352 0.950 . S
C1376 C1371 1.363 . S
C1376 C1375 1.415 . S
C1377 H1353 0.951 . S
C1377 C1378 1.366 . S
C1377 C1379 1.388 . S
C1378 C1377 1.366 . S
C1378 C1382 1.385 . S
C1379 H1354 0.951 . S
C1379 C1377 1.388 . S
C1379 C1380 1.366 . S
C1380 C1379 1.366 . S
C1380 C1381 1.414 . S
C1380 C1383 1.499 . S
C1381 H1355 0.950 . S
C1381 C1380 1.414 . S
C1381 C1382 1.374 . S
C1382 H1356 0.950 . S
C1382 C1378 1.385 . S
C1382 C1381 1.374 . S
C1383 C1380 1.499 . S
C1383 C1384 1.373 . S
C1383 C1385 1.389 . S
C1384 H1357 0.950 . S
C1384 C1370 1.377 . S
C1384 C1383 1.373 . S
C1385 C1369 1.377 . S
C1385 C1383 1.389 . S
C1385 C1386 1.524 . S
C1386 C1385 1.524 . S
C1386 C1387 1.397 . S
C1386 C1391 1.363 . S
C1387 H1358 0.950 . S
C1387 C1386 1.397 . S
C1387 C1388 1.334 . S
C1388 H1359 0.950 . S
C1388 C1387 1.334 . S
C1388 C1389 1.287 . S
C1389 C1388 1.287 . S
C1389 C1390 1.524 . S
C1389 H1392 0.999 . S
C1390 H1360 0.950 . S
C1390 C1389 1.524 . S
C1390 C1391 1.415 . S
C1391 H1361 0.950 . S
C1391 C1386 1.363 . S
C1391 C1390 1.415 . S
H1392 C1389 0.999 . S
H1393 C1374 0.913 . S
H1394 C1412 0.951 . S
H1395 C1414 0.951 . S
H1396 C1416 0.950 . S
H1397 C1417 0.950 . S
H1398 C1419 0.950 . S
H1399 C1422 0.950 . S
H1400 C1423 0.950 . S
H1401 C1425 0.950 . S
H1402 C1426 0.950 . S
H1403 C1427 0.951 . S
H1404 C1429 0.951 . S
H1405 C1431 0.950 . S
H1406 C1432 0.950 . S
H1407 C1434 0.950 . S
H1408 C1437 0.950 . S
H1409 C1438 0.950 . S
H1410 C1440 0.950 . S
H1411 C1441 0.950 . S
C1412 H1394 0.951 . S
C1412 C1413 1.366 . S
C1412 C1414 1.388 . S
C1413 C1412 1.366 . S
C1413 C1417 1.385 . S
C1414 H1395 0.951 . S
C1414 C1412 1.388 . S
C1414 C1415 1.366 . S
C1415 C1414 1.366 . S
C1415 C1416 1.414 . S
C1415 C1418 1.499 . S
C1416 H1396 0.950 . S
C1416 C1415 1.414 . S
C1416 C1417 1.374 . S
C1417 H1397 0.950 . S
C1417 C1413 1.385 . S
C1417 C1416 1.374 . S
C1418 C1415 1.499 . S
C1418 C1419 1.373 . S
C1418 C1420 1.389 . S
C1419 H1398 0.950 . S
C1419 C1418 1.373 . S
C1419 C1435 1.377 . S
C1420 C1418 1.389 . S
C1420 C1421 1.524 . S
C1420 C1434 1.377 . S
C1421 C1420 1.524 . S
C1421 C1422 1.397 . S
C1421 C1426 1.363 . S
C1422 H1399 0.950 . S
C1422 C1421 1.397 . S
C1422 C1423 1.334 . S
C1423 H1400 0.950 . S
C1423 C1422 1.334 . S
C1423 C1424 1.287 . S
C1424 C1423 1.287 . S
C1424 C1425 1.524 . S
C1424 H1443 0.913 . S
C1425 H1401 0.950 . S
C1425 C1424 1.524 . S
C1425 C1426 1.415 . S
C1426 H1402 0.950 . S
C1426 C1421 1.363 . S
C1426 C1425 1.415 . S
C1427 H1403 0.951 . S
C1427 C1428 1.366 . S
C1427 C1429 1.388 . S
C1428 C1427 1.366 . S
C1428 C1432 1.385 . S
C1429 H1404 0.951 . S
C1429 C1427 1.388 . S
C1429 C1430 1.366 . S
C1430 C1429 1.366 . S
C1430 C1431 1.414 . S
C1430 C1433 1.499 . S
C1431 H1405 0.950 . S
C1431 C1430 1.414 . S
C1431 C1432 1.374 . S
C1432 H1406 0.950 . S
C1432 C1428 1.385 . S
C1432 C1431 1.374 . S
C1433 C1430 1.499 . S
C1433 C1434 1.373 . S
C1433 C1435 1.389 . S
C1434 H1407 0.950 . S
C1434 C1420 1.377 . S
C1434 C1433 1.373 . S
C1435 C1419 1.377 . S
C1435 C1433 1.389 . S
C1435 C1436 1.524 . S
C1436 C1435 1.524 . S
C1436 C1437 1.397 . S
C1436 C1441 1.363 . S
C1437 H1408 0.950 . S
C1437 C1436 1.397 . S
C1437 C1438 1.334 . S
C1438 H1409 0.950 . S
C1438 C1437 1.334 . S
C1438 C1439 1.287 . S
C1439 C1438 1.287 . S
C1439 C1440 1.524 . S
C1439 H1442 0.999 . S
C1440 H1410 0.950 . S
C1440 C1439 1.524 . S
C1440 C1441 1.415 . S
C1441 H1411 0.950 . S
C1441 C1436 1.363 . S
C1441 C1440 1.415 . S
H1442 C1439 0.999 . S
H1443 C1424 0.913 . S
H1444 C1462 0.951 . S
H1445 C1464 0.951 . S
H1446 C1466 0.950 . S
H1447 C1467 0.950 . S
H1448 C1469 0.950 . S
H1449 C1472 0.950 . S
H1450 C1473 0.950 . S
H1451 C1475 0.950 . S
H1452 C1476 0.950 . S
H1453 C1477 0.951 . S
H1454 C1479 0.951 . S
H1455 C1481 0.950 . S
H1456 C1482 0.950 . S
H1457 C1484 0.950 . S
H1458 C1487 0.950 . S
H1459 C1488 0.950 . S
H1460 C1490 0.950 . S
H1461 C1491 0.950 . S
C1462 H1444 0.951 . S
C1462 C1463 1.366 . S
C1462 C1464 1.388 . S
C1463 C1462 1.366 . S
C1463 C1467 1.385 . S
C1464 H1445 0.951 . S
C1464 C1462 1.388 . S
C1464 C1465 1.366 . S
C1465 C1464 1.366 . S
C1465 C1466 1.414 . S
C1465 C1468 1.499 . S
C1466 H1446 0.950 . S
C1466 C1465 1.414 . S
C1466 C1467 1.374 . S
C1467 H1447 0.950 . S
C1467 C1463 1.385 . S
C1467 C1466 1.374 . S
C1468 C1465 1.499 . S
C1468 C1469 1.373 . S
C1468 C1470 1.389 . S
C1469 H1448 0.950 . S
C1469 C1468 1.373 . S
C1469 C1485 1.377 . S
C1470 C1468 1.389 . S
C1470 C1471 1.524 . S
C1470 C1484 1.377 . S
C1471 C1470 1.524 . S
C1471 C1472 1.397 . S
C1471 C1476 1.363 . S
C1472 H1449 0.950 . S
C1472 C1471 1.397 . S
C1472 C1473 1.334 . S
C1473 H1450 0.950 . S
C1473 C1472 1.334 . S
C1473 C1474 1.287 . S
C1474 C1473 1.287 . S
C1474 C1475 1.524 . S
C1474 H1493 0.913 . S
C1475 H1451 0.950 . S
C1475 C1474 1.524 . S
C1475 C1476 1.415 . S
C1476 H1452 0.950 . S
C1476 C1471 1.363 . S
C1476 C1475 1.415 . S
C1477 H1453 0.951 . S
C1477 C1478 1.366 . S
C1477 C1479 1.388 . S
C1478 C1477 1.366 . S
C1478 C1482 1.385 . S
C1479 H1454 0.951 . S
C1479 C1477 1.388 . S
C1479 C1480 1.366 . S
C1480 C1479 1.366 . S
C1480 C1481 1.414 . S
C1480 C1483 1.499 . S
C1481 H1455 0.950 . S
C1481 C1480 1.414 . S
C1481 C1482 1.374 . S
C1482 H1456 0.950 . S
C1482 C1478 1.385 . S
C1482 C1481 1.374 . S
C1483 C1480 1.499 . S
C1483 C1484 1.373 . S
C1483 C1485 1.389 . S
C1484 H1457 0.950 . S
C1484 C1470 1.377 . S
C1484 C1483 1.373 . S
C1485 C1469 1.377 . S
C1485 C1483 1.389 . S
C1485 C1486 1.524 . S
C1486 C1485 1.524 . S
C1486 C1487 1.397 . S
C1486 C1491 1.363 . S
C1487 H1458 0.950 . S
C1487 C1486 1.397 . S
C1487 C1488 1.334 . S
C1488 H1459 0.950 . S
C1488 C1487 1.334 . S
C1488 C1489 1.287 . S
C1489 C1488 1.287 . S
C1489 C1490 1.524 . S
C1489 H1492 0.999 . S
C1490 H1460 0.950 . S
C1490 C1489 1.524 . S
C1490 C1491 1.415 . S
C1491 H1461 0.950 . S
C1491 C1486 1.363 . S
C1491 C1490 1.415 . S
H1492 C1489 0.999 . S
H1493 C1474 0.913 . S
H1494 C1512 0.951 . S
H1495 C1514 0.951 . S
H1496 C1516 0.950 . S
H1497 C1517 0.950 . S
H1498 C1519 0.950 . S
H1499 C1522 0.950 . S
H1500 C1523 0.950 . S
H1501 C1525 0.950 . S
H1502 C1526 0.950 . S
H1503 C1527 0.951 . S
H1504 C1529 0.951 . S
H1505 C1531 0.950 . S
H1506 C1532 0.950 . S
H1507 C1534 0.950 . S
H1508 C1537 0.950 . S
H1509 C1538 0.950 . S
H1510 C1540 0.950 . S
H1511 C1541 0.950 . S
C1512 H1494 0.951 . S
C1512 C1513 1.366 . S
C1512 C1514 1.388 . S
C1513 C1512 1.366 . S
C1513 C1517 1.385 . S
C1514 H1495 0.951 . S
C1514 C1512 1.388 . S
C1514 C1515 1.366 . S
C1515 C1514 1.366 . S
C1515 C1516 1.414 . S
C1515 C1518 1.499 . S
C1516 H1496 0.950 . S
C1516 C1515 1.414 . S
C1516 C1517 1.374 . S
C1517 H1497 0.950 . S
C1517 C1513 1.385 . S
C1517 C1516 1.374 . S
C1518 C1515 1.499 . S
C1518 C1519 1.373 . S
C1518 C1520 1.389 . S
C1519 H1498 0.950 . S
C1519 C1518 1.373 . S
C1519 C1535 1.377 . S
C1520 C1518 1.389 . S
C1520 C1521 1.524 . S
C1520 C1534 1.377 . S
C1521 C1520 1.524 . S
C1521 C1522 1.397 . S
C1521 C1526 1.363 . S
C1522 H1499 0.950 . S
C1522 C1521 1.397 . S
C1522 C1523 1.334 . S
C1523 H1500 0.950 . S
C1523 C1522 1.334 . S
C1523 C1524 1.287 . S
C1524 C1523 1.287 . S
C1524 C1525 1.524 . S
C1524 H1543 0.913 . S
C1525 H1501 0.950 . S
C1525 C1524 1.524 . S
C1525 C1526 1.415 . S
C1526 H1502 0.950 . S
C1526 C1521 1.363 . S
C1526 C1525 1.415 . S
C1527 H1503 0.951 . S
C1527 C1528 1.366 . S
C1527 C1529 1.388 . S
C1528 C1527 1.366 . S
C1528 C1532 1.385 . S
C1529 H1504 0.951 . S
C1529 C1527 1.388 . S
C1529 C1530 1.366 . S
C1530 C1529 1.366 . S
C1530 C1531 1.414 . S
C1530 C1533 1.499 . S
C1531 H1505 0.950 . S
C1531 C1530 1.414 . S
C1531 C1532 1.374 . S
C1532 H1506 0.950 . S
C1532 C1528 1.385 . S
C1532 C1531 1.374 . S
C1533 C1530 1.499 . S
C1533 C1534 1.373 . S
C1533 C1535 1.389 . S
C1534 H1507 0.950 . S
C1534 C1520 1.377 . S
C1534 C1533 1.373 . S
C1535 C1519 1.377 . S
C1535 C1533 1.389 . S
C1535 C1536 1.524 . S
C1536 C1535 1.524 . S
C1536 C1537 1.397 . S
C1536 C1541 1.363 . S
C1537 H1508 0.950 . S
C1537 C1536 1.397 . S
C1537 C1538 1.334 . S
C1538 H1509 0.950 . S
C1538 C1537 1.334 . S
C1538 C1539 1.287 . S
C1539 C1538 1.287 . S
C1539 C1540 1.524 . S
C1539 H1542 0.999 . S
C1540 H1510 0.950 . S
C1540 C1539 1.524 . S
C1540 C1541 1.415 . S
C1541 H1511 0.950 . S
C1541 C1536 1.363 . S
C1541 C1540 1.415 . S
H1542 C1539 0.999 . S
H1543 C1524 0.913 . S
H1544 C1562 0.951 . S
H1545 C1564 0.951 . S
H1546 C1566 0.950 . S
H1547 C1567 0.950 . S
H1548 C1569 0.950 . S
H1549 C1572 0.950 . S
H1550 C1573 0.950 . S
H1551 C1575 0.950 . S
H1552 C1576 0.950 . S
H1553 C1577 0.951 . S
H1554 C1579 0.951 . S
H1555 C1581 0.950 . S
H1556 C1582 0.950 . S
H1557 C1584 0.950 . S
H1558 C1587 0.950 . S
H1559 C1588 0.950 . S
H1560 C1590 0.950 . S
H1561 C1591 0.950 . S
C1562 H1544 0.951 . S
C1562 C1563 1.366 . S
C1562 C1564 1.388 . S
C1563 C1562 1.366 . S
C1563 C1567 1.385 . S
C1564 H1545 0.951 . S
C1564 C1562 1.388 . S
C1564 C1565 1.366 . S
C1565 C1564 1.366 . S
C1565 C1566 1.414 . S
C1565 C1568 1.499 . S
C1566 H1546 0.950 . S
C1566 C1565 1.414 . S
C1566 C1567 1.374 . S
C1567 H1547 0.950 . S
C1567 C1563 1.385 . S
C1567 C1566 1.374 . S
C1568 C1565 1.499 . S
C1568 C1569 1.373 . S
C1568 C1570 1.389 . S
C1569 H1548 0.950 . S
C1569 C1568 1.373 . S
C1569 C1585 1.377 . S
C1570 C1568 1.389 . S
C1570 C1571 1.524 . S
C1570 C1584 1.377 . S
C1571 C1570 1.524 . S
C1571 C1572 1.397 . S
C1571 C1576 1.363 . S
C1572 H1549 0.950 . S
C1572 C1571 1.397 . S
C1572 C1573 1.334 . S
C1573 H1550 0.950 . S
C1573 C1572 1.334 . S
C1573 C1574 1.287 . S
C1574 C1573 1.287 . S
C1574 C1575 1.524 . S
C1574 H1593 0.913 . S
C1575 H1551 0.950 . S
C1575 C1574 1.524 . S
C1575 C1576 1.415 . S
C1576 H1552 0.950 . S
C1576 C1571 1.363 . S
C1576 C1575 1.415 . S
C1577 H1553 0.951 . S
C1577 C1578 1.366 . S
C1577 C1579 1.388 . S
C1578 C1577 1.366 . S
C1578 C1582 1.385 . S
C1579 H1554 0.951 . S
C1579 C1577 1.388 . S
C1579 C1580 1.366 . S
C1580 C1579 1.366 . S
C1580 C1581 1.414 . S
C1580 C1583 1.499 . S
C1581 H1555 0.950 . S
C1581 C1580 1.414 . S
C1581 C1582 1.374 . S
C1582 H1556 0.950 . S
C1582 C1578 1.385 . S
C1582 C1581 1.374 . S
C1583 C1580 1.499 . S
C1583 C1584 1.373 . S
C1583 C1585 1.389 . S
C1584 H1557 0.950 . S
C1584 C1570 1.377 . S
C1584 C1583 1.373 . S
C1585 C1569 1.377 . S
C1585 C1583 1.389 . S
C1585 C1586 1.524 . S
C1586 C1585 1.524 . S
C1586 C1587 1.397 . S
C1586 C1591 1.363 . S
C1587 H1558 0.950 . S
C1587 C1586 1.397 . S
C1587 C1588 1.334 . S
C1588 H1559 0.950 . S
C1588 C1587 1.334 . S
C1588 C1589 1.287 . S
C1589 C1588 1.287 . S
C1589 C1590 1.524 . S
C1589 H1592 0.999 . S
C1590 H1560 0.950 . S
C1590 C1589 1.524 . S
C1590 C1591 1.415 . S
C1591 H1561 0.950 . S
C1591 C1586 1.363 . S
C1591 C1590 1.415 . S
H1592 C1589 0.999 . S
H1593 C1574 0.913 . S
H1594 C1612 0.951 . S
H1595 C1614 0.951 . S
H1596 C1616 0.950 . S
H1597 C1617 0.950 . S
H1598 C1619 0.950 . S
H1599 C1622 0.950 . S
H1600 C1623 0.950 . S
H1601 C1625 0.950 . S
H1602 C1626 0.950 . S
H1603 C1627 0.951 . S
H1604 C1629 0.951 . S
H1605 C1631 0.950 . S
H1606 C1632 0.950 . S
H1607 C1634 0.950 . S
H1608 C1637 0.950 . S
H1609 C1638 0.950 . S
H1610 C1640 0.950 . S
H1611 C1641 0.950 . S
C1612 H1594 0.951 . S
C1612 C1613 1.366 . S
C1612 C1614 1.388 . S
C1613 C1612 1.366 . S
C1613 C1617 1.385 . S
C1614 H1595 0.951 . S
C1614 C1612 1.388 . S
C1614 C1615 1.366 . S
C1615 C1614 1.366 . S
C1615 C1616 1.414 . S
C1615 C1618 1.499 . S
C1616 H1596 0.950 . S
C1616 C1615 1.414 . S
C1616 C1617 1.374 . S
C1617 H1597 0.950 . S
C1617 C1613 1.385 . S
C1617 C1616 1.374 . S
C1618 C1615 1.499 . S
C1618 C1619 1.373 . S
C1618 C1620 1.389 . S
C1619 H1598 0.950 . S
C1619 C1618 1.373 . S
C1619 C1635 1.377 . S
C1620 C1618 1.389 . S
C1620 C1621 1.524 . S
C1620 C1634 1.377 . S
C1621 C1620 1.524 . S
C1621 C1622 1.397 . S
C1621 C1626 1.363 . S
C1622 H1599 0.950 . S
C1622 C1621 1.397 . S
C1622 C1623 1.334 . S
C1623 H1600 0.950 . S
C1623 C1622 1.334 . S
C1623 C1624 1.287 . S
C1624 C1623 1.287 . S
C1624 C1625 1.524 . S
C1624 H1643 0.913 . S
C1625 H1601 0.950 . S
C1625 C1624 1.524 . S
C1625 C1626 1.415 . S
C1626 H1602 0.950 . S
C1626 C1621 1.363 . S
C1626 C1625 1.415 . S
C1627 H1603 0.951 . S
C1627 C1628 1.366 . S
C1627 C1629 1.388 . S
C1628 C1627 1.366 . S
C1628 C1632 1.385 . S
C1629 H1604 0.951 . S
C1629 C1627 1.388 . S
C1629 C1630 1.366 . S
C1630 C1629 1.366 . S
C1630 C1631 1.414 . S
C1630 C1633 1.499 . S
C1631 H1605 0.950 . S
C1631 C1630 1.414 . S
C1631 C1632 1.374 . S
C1632 H1606 0.950 . S
C1632 C1628 1.385 . S
C1632 C1631 1.374 . S
C1633 C1630 1.499 . S
C1633 C1634 1.373 . S
C1633 C1635 1.389 . S
C1634 H1607 0.950 . S
C1634 C1620 1.377 . S
C1634 C1633 1.373 . S
C1635 C1619 1.377 . S
C1635 C1633 1.389 . S
C1635 C1636 1.524 . S
C1636 C1635 1.524 . S
C1636 C1637 1.397 . S
C1636 C1641 1.363 . S
C1637 H1608 0.950 . S
C1637 C1636 1.397 . S
C1637 C1638 1.334 . S
C1638 H1609 0.950 . S
C1638 C1637 1.334 . S
C1638 C1639 1.287 . S
C1639 C1638 1.287 . S
C1639 C1640 1.524 . S
C1639 H1642 0.999 . S
C1640 H1610 0.950 . S
C1640 C1639 1.524 . S
C1640 C1641 1.415 . S
C1641 H1611 0.950 . S
C1641 C1636 1.363 . S
C1641 C1640 1.415 . S
H1642 C1639 0.999 . S
H1643 C1624 0.913 . S
H1644 C1662 0.951 . S
H1645 C1664 0.951 . S
H1646 C1666 0.950 . S
H1647 C1667 0.950 . S
H1648 C1669 0.950 . S
H1649 C1672 0.950 . S
H1650 C1673 0.950 . S
H1651 C1675 0.950 . S
H1652 C1676 0.950 . S
H1653 C1677 0.951 . S
H1654 C1679 0.951 . S
H1655 C1681 0.950 . S
H1656 C1682 0.950 . S
H1657 C1684 0.950 . S
H1658 C1687 0.950 . S
H1659 C1688 0.950 . S
H1660 C1690 0.950 . S
H1661 C1691 0.950 . S
C1662 H1644 0.951 . S
C1662 C1663 1.366 . S
C1662 C1664 1.388 . S
C1663 C1662 1.366 . S
C1663 C1667 1.385 . S
C1664 H1645 0.951 . S
C1664 C1662 1.388 . S
C1664 C1665 1.366 . S
C1665 C1664 1.366 . S
C1665 C1666 1.414 . S
C1665 C1668 1.499 . S
C1666 H1646 0.950 . S
C1666 C1665 1.414 . S
C1666 C1667 1.374 . S
C1667 H1647 0.950 . S
C1667 C1663 1.385 . S
C1667 C1666 1.374 . S
C1668 C1665 1.499 . S
C1668 C1669 1.373 . S
C1668 C1670 1.389 . S
C1669 H1648 0.950 . S
C1669 C1668 1.373 . S
C1669 C1685 1.377 . S
C1670 C1668 1.389 . S
C1670 C1671 1.524 . S
C1670 C1684 1.377 . S
C1671 C1670 1.524 . S
C1671 C1672 1.397 . S
C1671 C1676 1.363 . S
C1672 H1649 0.950 . S
C1672 C1671 1.397 . S
C1672 C1673 1.334 . S
C1673 H1650 0.950 . S
C1673 C1672 1.334 . S
C1673 C1674 1.287 . S
C1674 C1673 1.287 . S
C1674 C1675 1.524 . S
C1674 H1693 0.913 . S
C1675 H1651 0.950 . S
C1675 C1674 1.524 . S
C1675 C1676 1.415 . S
C1676 H1652 0.950 . S
C1676 C1671 1.363 . S
C1676 C1675 1.415 . S
C1677 H1653 0.951 . S
C1677 C1678 1.366 . S
C1677 C1679 1.388 . S
C1678 C1677 1.366 . S
C1678 C1682 1.385 . S
C1679 H1654 0.951 . S
C1679 C1677 1.388 . S
C1679 C1680 1.366 . S
C1680 C1679 1.366 . S
C1680 C1681 1.414 . S
C1680 C1683 1.499 . S
C1681 H1655 0.950 . S
C1681 C1680 1.414 . S
C1681 C1682 1.374 . S
C1682 H1656 0.950 . S
C1682 C1678 1.385 . S
C1682 C1681 1.374 . S
C1683 C1680 1.499 . S
C1683 C1684 1.373 . S
C1683 C1685 1.389 . S
C1684 H1657 0.950 . S
C1684 C1670 1.377 . S
C1684 C1683 1.373 . S
C1685 C1669 1.377 . S
C1685 C1683 1.389 . S
C1685 C1686 1.524 . S
C1686 C1685 1.524 . S
C1686 C1687 1.397 . S
C1686 C1691 1.363 . S
C1687 H1658 0.950 . S
C1687 C1686 1.397 . S
C1687 C1688 1.334 . S
C1688 H1659 0.950 . S
C1688 C1687 1.334 . S
C1688 C1689 1.287 . S
C1689 C1688 1.287 . S
C1689 C1690 1.524 . S
C1689 H1692 0.999 . S
C1690 H1660 0.950 . S
C1690 C1689 1.524 . S
C1690 C1691 1.415 . S
C1691 H1661 0.950 . S
C1691 C1686 1.363 . S
C1691 C1690 1.415 . S
H1692 C1689 0.999 . S
H1693 C1674 0.913 . S
H1694 C1712 0.951 . S
H1695 C1714 0.951 . S
H1696 C1716 0.950 . S
H1697 C1717 0.950 . S
H1698 C1719 0.950 . S
H1699 C1722 0.950 . S
H1700 C1723 0.950 . S
H1701 C1725 0.950 . S
H1702 C1726 0.950 . S
H1703 C1727 0.951 . S
H1704 C1729 0.951 . S
H1705 C1731 0.950 . S
H1706 C1732 0.950 . S
H1707 C1734 0.950 . S
H1708 C1737 0.950 . S
H1709 C1738 0.950 . S
H1710 C1740 0.950 . S
H1711 C1741 0.950 . S
C1712 H1694 0.951 . S
C1712 C1713 1.366 . S
C1712 C1714 1.388 . S
C1713 C1712 1.366 . S
C1713 C1717 1.385 . S
C1714 H1695 0.951 . S
C1714 C1712 1.388 . S
C1714 C1715 1.366 . S
C1715 C1714 1.366 . S
C1715 C1716 1.414 . S
C1715 C1718 1.499 . S
C1716 H1696 0.950 . S
C1716 C1715 1.414 . S
C1716 C1717 1.374 . S
C1717 H1697 0.950 . S
C1717 C1713 1.385 . S
C1717 C1716 1.374 . S
C1718 C1715 1.499 . S
C1718 C1719 1.373 . S
C1718 C1720 1.389 . S
C1719 H1698 0.950 . S
C1719 C1718 1.373 . S
C1719 C1735 1.377 . S
C1720 C1718 1.389 . S
C1720 C1721 1.524 . S
C1720 C1734 1.377 . S
C1721 C1720 1.524 . S
C1721 C1722 1.397 . S
C1721 C1726 1.363 . S
C1722 H1699 0.950 . S
C1722 C1721 1.397 . S
C1722 C1723 1.334 . S
C1723 H1700 0.950 . S
C1723 C1722 1.334 . S
C1723 C1724 1.287 . S
C1724 C1723 1.287 . S
C1724 C1725 1.524 . S
C1724 H1743 0.913 . S
C1725 H1701 0.950 . S
C1725 C1724 1.524 . S
C1725 C1726 1.415 . S
C1726 H1702 0.950 . S
C1726 C1721 1.363 . S
C1726 C1725 1.415 . S
C1727 H1703 0.951 . S
C1727 C1728 1.366 . S
C1727 C1729 1.388 . S
C1728 C1727 1.366 . S
C1728 C1732 1.385 . S
C1729 H1704 0.951 . S
C1729 C1727 1.388 . S
C1729 C1730 1.366 . S
C1730 C1729 1.366 . S
C1730 C1731 1.414 . S
C1730 C1733 1.499 . S
C1731 H1705 0.950 . S
C1731 C1730 1.414 . S
C1731 C1732 1.374 . S
C1732 H1706 0.950 . S
C1732 C1728 1.385 . S
C1732 C1731 1.374 . S
C1733 C1730 1.499 . S
C1733 C1734 1.373 . S
C1733 C1735 1.389 . S
C1734 H1707 0.950 . S
C1734 C1720 1.377 . S
C1734 C1733 1.373 . S
C1735 C1719 1.377 . S
C1735 C1733 1.389 . S
C1735 C1736 1.524 . S
C1736 C1735 1.524 . S
C1736 C1737 1.397 . S
C1736 C1741 1.363 . S
C1737 H1708 0.950 . S
C1737 C1736 1.397 . S
C1737 C1738 1.334 . S
C1738 H1709 0.950 . S
C1738 C1737 1.334 . S
C1738 C1739 1.287 . S
C1739 C1738 1.287 . S
C1739 C1740 1.524 . S
C1739 H1742 0.999 . S
C1740 H1710 0.950 . S
C1740 C1739 1.524 . S
C1740 C1741 1.415 . S
C1741 H1711 0.950 . S
C1741 C1736 1.363 . S
C1741 C1740 1.415 . S
H1742 C1739 0.999 . S
H1743 C1724 0.913 . S
H1744 C1762 0.951 . S
H1745 C1764 0.951 . S
H1746 C1766 0.950 . S
H1747 C1767 0.950 . S
H1748 C1769 0.950 . S
H1749 C1772 0.950 . S
H1750 C1773 0.950 . S
H1751 C1775 0.950 . S
H1752 C1776 0.950 . S
H1753 C1777 0.951 . S
H1754 C1779 0.951 . S
H1755 C1781 0.950 . S
H1756 C1782 0.950 1_565 S
H1757 C1784 0.950 . S
H1758 C1787 0.950 . S
H1759 C1788 0.950 1_565 S
H1760 C1790 0.950 . S
H1761 C1791 0.950 . S
C1762 H1744 0.951 . S
C1762 C1763 1.366 . S
C1762 C1764 1.388 . S
C1763 C1762 1.366 . S
C1763 C1767 1.385 . S
C1764 H1745 0.951 . S
C1764 C1762 1.388 . S
C1764 C1765 1.366 . S
C1765 C1764 1.366 . S
C1765 C1766 1.414 . S
C1765 C1768 1.499 . S
C1766 H1746 0.950 . S
C1766 C1765 1.414 . S
C1766 C1767 1.374 . S
C1767 H1747 0.950 . S
C1767 C1763 1.385 . S
C1767 C1766 1.374 . S
C1768 C1765 1.499 . S
C1768 C1769 1.373 . S
C1768 C1770 1.389 . S
C1769 H1748 0.950 . S
C1769 C1768 1.373 . S
C1769 C1785 1.377 . S
C1770 C1768 1.389 . S
C1770 C1771 1.524 . S
C1770 C1784 1.377 . S
C1771 C1770 1.524 . S
C1771 C1772 1.397 . S
C1771 C1776 1.363 . S
C1772 H1749 0.950 . S
C1772 C1771 1.397 . S
C1772 C1773 1.334 . S
C1773 H1750 0.950 . S
C1773 C1772 1.334 . S
C1773 C1774 1.287 . S
C1774 C1773 1.287 . S
C1774 C1775 1.524 . S
C1774 H1793 0.913 . S
C1775 H1751 0.950 . S
C1775 C1774 1.524 . S
C1775 C1776 1.415 . S
C1776 H1752 0.950 . S
C1776 C1771 1.363 . S
C1776 C1775 1.415 . S
C1777 H1753 0.951 . S
C1777 C1778 1.366 . S
C1777 C1779 1.388 . S
C1778 C1777 1.366 . S
C1778 C1782 1.385 . S
C1779 H1754 0.951 . S
C1779 C1777 1.388 . S
C1779 C1780 1.366 . S
C1780 C1779 1.366 . S
C1780 C1781 1.414 . S
C1780 C1783 1.499 . S
C1781 H1755 0.950 . S
C1781 C1780 1.414 . S
C1781 C1782 1.374 . S
C1782 H1756 0.950 1_545 S
C1782 C1778 1.385 . S
C1782 C1781 1.374 . S
C1783 C1780 1.499 . S
C1783 C1784 1.373 . S
C1783 C1785 1.389 . S
C1784 H1757 0.950 . S
C1784 C1770 1.377 . S
C1784 C1783 1.373 . S
C1785 C1769 1.377 . S
C1785 C1783 1.389 . S
C1785 C1786 1.524 . S
C1786 C1785 1.524 . S
C1786 C1787 1.397 . S
C1786 C1791 1.363 . S
C1787 H1758 0.950 . S
C1787 C1786 1.397 . S
C1787 C1788 1.334 . S
C1788 H1759 0.950 1_545 S
C1788 C1787 1.334 . S
C1788 C1789 1.287 . S
C1789 C1788 1.287 . S
C1789 C1790 1.524 . S
C1789 H1792 0.999 . S
C1790 H1760 0.950 . S
C1790 C1789 1.524 . S
C1790 C1791 1.415 . S
C1791 H1761 0.950 . S
C1791 C1786 1.363 . S
C1791 C1790 1.415 . S
H1792 C1789 0.999 . S
H1793 C1774 0.913 . S
H1794 C1812 0.951 . S
H1795 C1814 0.951 . S
H1796 C1816 0.950 . S
H1797 C1817 0.950 . S
H1798 C1819 0.950 . S
H1799 C1822 0.950 . S
H1800 C1823 0.950 . S
H1801 C1825 0.950 . S
H1802 C1826 0.950 . S
H1803 C1827 0.951 . S
H1804 C1829 0.951 . S
H1805 C1831 0.950 . S
H1806 C1832 0.950 . S
H1807 C1834 0.950 . S
H1808 C1837 0.950 . S
H1809 C1838 0.950 . S
H1810 C1840 0.950 . S
H1811 C1841 0.950 . S
C1812 H1794 0.951 . S
C1812 C1813 1.366 . S
C1812 C1814 1.388 . S
C1813 C1812 1.366 . S
C1813 C1817 1.385 . S
C1814 H1795 0.951 . S
C1814 C1812 1.388 . S
C1814 C1815 1.366 . S
C1815 C1814 1.366 . S
C1815 C1816 1.414 . S
C1815 C1818 1.499 . S
C1816 H1796 0.950 . S
C1816 C1815 1.414 . S
C1816 C1817 1.374 . S
C1817 H1797 0.950 . S
C1817 C1813 1.385 . S
C1817 C1816 1.374 . S
C1818 C1815 1.499 . S
C1818 C1819 1.373 . S
C1818 C1820 1.389 . S
C1819 H1798 0.950 . S
C1819 C1818 1.373 . S
C1819 C1835 1.377 . S
C1820 C1818 1.389 . S
C1820 C1821 1.524 . S
C1820 C1834 1.377 . S
C1821 C1820 1.524 . S
C1821 C1822 1.397 . S
C1821 C1826 1.363 . S
C1822 H1799 0.950 . S
C1822 C1821 1.397 . S
C1822 C1823 1.334 . S
C1823 H1800 0.950 . S
C1823 C1822 1.334 . S
C1823 C1824 1.287 . S
C1824 C1823 1.287 . S
C1824 C1825 1.524 . S
C1824 H1843 0.913 . S
C1825 H1801 0.950 . S
C1825 C1824 1.524 . S
C1825 C1826 1.415 . S
C1826 H1802 0.950 . S
C1826 C1821 1.363 . S
C1826 C1825 1.415 . S
C1827 H1803 0.951 . S
C1827 C1828 1.366 . S
C1827 C1829 1.388 . S
C1828 C1827 1.366 . S
C1828 C1832 1.385 . S
C1829 H1804 0.951 . S
C1829 C1827 1.388 . S
C1829 C1830 1.366 . S
C1830 C1829 1.366 . S
C1830 C1831 1.414 . S
C1830 C1833 1.499 . S
C1831 H1805 0.950 . S
C1831 C1830 1.414 . S
C1831 C1832 1.374 . S
C1832 H1806 0.950 . S
C1832 C1828 1.385 . S
C1832 C1831 1.374 . S
C1833 C1830 1.499 . S
C1833 C1834 1.373 . S
C1833 C1835 1.389 . S
C1834 H1807 0.950 . S
C1834 C1820 1.377 . S
C1834 C1833 1.373 . S
C1835 C1819 1.377 . S
C1835 C1833 1.389 . S
C1835 C1836 1.524 . S
C1836 C1835 1.524 . S
C1836 C1837 1.397 . S
C1836 C1841 1.363 . S
C1837 H1808 0.950 . S
C1837 C1836 1.397 . S
C1837 C1838 1.334 1_455 S
C1838 H1809 0.950 . S
C1838 C1837 1.334 1_655 S
C1838 C1839 1.294 . S
C1839 C1838 1.294 . S
C1839 C1840 1.481 1_655 S
C1839 H1842 1.038 . S
C1840 H1810 0.950 . S
C1840 C1839 1.481 1_455 S
C1840 C1841 1.415 . S
C1841 H1811 0.950 . S
C1841 C1836 1.363 . S
C1841 C1840 1.415 . S
H1842 C1839 1.038 . S
H1843 C1824 0.913 . S
H1844 C1862 0.951 . S
H1845 C1864 0.951 . S
H1846 C1866 0.950 . S
H1847 C1867 0.950 . S
H1848 C1869 0.950 . S
H1849 C1872 0.950 . S
H1850 C1873 0.950 . S
H1851 C1875 0.950 . S
H1852 C1876 0.950 . S
H1853 C1877 0.951 . S
H1854 C1879 0.951 . S
H1855 C1881 0.950 . S
H1856 C1882 0.950 1_545 S
H1857 C1884 0.950 . S
H1858 C1887 0.950 . S
H1859 C1888 0.950 . S
H1860 C1890 0.950 . S
H1861 C1891 0.950 . S
C1862 H1844 0.951 . S
C1862 C1863 1.366 . S
C1862 C1864 1.388 . S
C1863 C1862 1.366 . S
C1863 C1867 1.385 . S
C1864 H1845 0.951 . S
C1864 C1862 1.388 . S
C1864 C1865 1.366 . S
C1865 C1864 1.366 . S
C1865 C1866 1.414 . S
C1865 C1868 1.499 . S
C1866 H1846 0.950 . S
C1866 C1865 1.414 . S
C1866 C1867 1.374 . S
C1867 H1847 0.950 . S
C1867 C1863 1.385 . S
C1867 C1866 1.374 . S
C1868 C1865 1.499 . S
C1868 C1869 1.373 . S
C1868 C1870 1.389 . S
C1869 H1848 0.950 . S
C1869 C1868 1.373 . S
C1869 C1885 1.377 . S
C1870 C1868 1.389 . S
C1870 C1871 1.524 . S
C1870 C1884 1.377 . S
C1871 C1870 1.524 . S
C1871 C1872 1.397 . S
C1871 C1876 1.363 . S
C1872 H1849 0.950 . S
C1872 C1871 1.397 . S
C1872 C1873 1.334 . S
C1873 H1850 0.950 . S
C1873 C1872 1.334 . S
C1873 C1874 1.287 . S
C1874 C1873 1.287 . S
C1874 C1875 1.524 . S
C1874 H1893 0.913 . S
C1875 H1851 0.950 . S
C1875 C1874 1.524 . S
C1875 C1876 1.415 . S
C1876 H1852 0.950 . S
C1876 C1871 1.363 . S
C1876 C1875 1.415 . S
C1877 H1853 0.951 . S
C1877 C1878 1.366 . S
C1877 C1879 1.388 . S
C1878 C1877 1.366 . S
C1878 C1882 1.385 . S
C1879 H1854 0.951 . S
C1879 C1877 1.388 . S
C1879 C1880 1.366 . S
C1880 C1879 1.366 . S
C1880 C1881 1.414 . S
C1880 C1883 1.499 . S
C1881 H1855 0.950 . S
C1881 C1880 1.414 . S
C1881 C1882 1.374 . S
C1882 H1856 0.950 1_565 S
C1882 C1878 1.385 . S
C1882 C1881 1.374 . S
C1883 C1880 1.499 . S
C1883 C1884 1.373 . S
C1883 C1885 1.389 . S
C1884 H1857 0.950 . S
C1884 C1870 1.377 . S
C1884 C1883 1.373 . S
C1885 C1869 1.377 . S
C1885 C1883 1.389 . S
C1885 C1886 1.524 . S
C1886 C1885 1.524 . S
C1886 C1887 1.397 . S
C1886 C1891 1.363 . S
C1887 H1858 0.950 . S
C1887 C1886 1.397 . S
C1887 C1888 1.334 . S
C1888 H1859 0.950 . S
C1888 C1887 1.334 . S
C1888 C1889 1.287 . S
C1889 C1888 1.287 . S
C1889 C1890 1.524 . S
C1889 H1892 0.999 . S
C1890 H1860 0.950 . S
C1890 C1889 1.524 . S
C1890 C1891 1.415 . S
C1891 H1861 0.950 . S
C1891 C1886 1.363 . S
C1891 C1890 1.415 . S
H1892 C1889 0.999 . S
H1893 C1874 0.913 . S
H1894 C1912 0.951 . S
H1895 C1914 0.951 . S
H1896 C1916 0.950 . S
H1897 C1917 0.950 . S
H1898 C1919 0.950 . S
H1899 C1922 0.950 . S
H1900 C1923 0.950 . S
H1901 C1925 0.950 . S
H1902 C1926 0.950 . S
H1903 C1927 0.951 . S
H1904 C1929 0.951 . S
H1905 C1931 0.950 . S
H1906 C1932 0.950 . S
H1907 C1934 0.950 . S
H1908 C1937 0.950 . S
H1909 C1938 0.950 . S
H1910 C1940 0.950 . S
H1911 C1941 0.950 . S
C1912 H1894 0.951 . S
C1912 C1913 1.366 . S
C1912 C1914 1.388 . S
C1913 C1912 1.366 . S
C1913 C1917 1.385 . S
C1914 H1895 0.951 . S
C1914 C1912 1.388 . S
C1914 C1915 1.366 . S
C1915 C1914 1.366 . S
C1915 C1916 1.414 . S
C1915 C1918 1.499 . S
C1916 H1896 0.950 . S
C1916 C1915 1.414 . S
C1916 C1917 1.374 . S
C1917 H1897 0.950 . S
C1917 C1913 1.385 . S
C1917 C1916 1.374 . S
C1918 C1915 1.499 . S
C1918 C1919 1.373 . S
C1918 C1920 1.389 . S
C1919 H1898 0.950 . S
C1919 C1918 1.373 . S
C1919 C1935 1.377 . S
C1920 C1918 1.389 . S
C1920 C1921 1.524 . S
C1920 C1934 1.377 . S
C1921 C1920 1.524 . S
C1921 C1922 1.397 . S
C1921 C1926 1.363 . S
C1922 H1899 0.950 . S
C1922 C1921 1.397 . S
C1922 C1923 1.334 1_655 S
C1923 H1900 0.950 . S
C1923 C1922 1.334 1_455 S
C1923 C1924 1.287 . S
C1924 C1923 1.287 . S
C1924 C1925 1.524 . S
C1924 H1943 0.913 . S
C1925 H1901 0.950 . S
C1925 C1924 1.524 . S
C1925 C1926 1.415 1_455 S
C1926 H1902 0.950 . S
C1926 C1921 1.363 . S
C1926 C1925 1.415 1_655 S
C1927 H1903 0.951 . S
C1927 C1928 1.366 . S
C1927 C1929 1.388 . S
C1928 C1927 1.366 . S
C1928 C1932 1.385 . S
C1929 H1904 0.951 . S
C1929 C1927 1.388 . S
C1929 C1930 1.366 . S
C1930 C1929 1.366 . S
C1930 C1931 1.414 . S
C1930 C1933 1.499 . S
C1931 H1905 0.950 . S
C1931 C1930 1.414 . S
C1931 C1932 1.374 . S
C1932 H1906 0.950 . S
C1932 C1928 1.385 . S
C1932 C1931 1.374 . S
C1933 C1930 1.499 . S
C1933 C1934 1.373 . S
C1933 C1935 1.389 . S
C1934 H1907 0.950 . S
C1934 C1920 1.377 . S
C1934 C1933 1.373 . S
C1935 C1919 1.377 . S
C1935 C1933 1.389 . S
C1935 C1936 1.524 . S
C1936 C1935 1.524 . S
C1936 C1937 1.397 . S
C1936 C1941 1.363 . S
C1937 H1908 0.950 . S
C1937 C1936 1.397 . S
C1937 C1938 1.334 . S
C1938 H1909 0.950 . S
C1938 C1937 1.334 . S
C1938 C1939 1.287 . S
C1939 C1938 1.287 . S
C1939 C1940 1.524 . S
C1939 H1942 0.999 . S
C1940 H1910 0.950 . S
C1940 C1939 1.524 . S
C1940 C1941 1.415 . S
C1941 H1911 0.950 . S
C1941 C1936 1.363 . S
C1941 C1940 1.415 . S
H1942 C1939 0.999 . S
H1943 C1924 0.913 . S
H1944 C1962 0.951 . S
H1945 C1964 0.951 . S
H1946 C1966 0.950 . S
H1947 C1967 0.950 . S
H1948 C1969 0.950 . S
H1949 C1972 0.950 . S
H1950 C1973 0.950 . S
H1951 C1975 0.950 . S
H1952 C1976 0.950 . S
H1953 C1977 0.951 . S
H1954 C1979 0.951 . S
H1955 C1981 0.950 . S
H1956 C1982 0.950 . S
H1957 C1984 0.950 . S
H1958 C1987 0.950 . S
H1959 C1988 0.950 . S
H1960 C1990 0.950 . S
H1961 C1991 0.950 . S
C1962 H1944 0.951 . S
C1962 C1963 1.366 . S
C1962 C1964 1.388 . S
C1963 C1962 1.366 . S
C1963 C1967 1.385 . S
C1964 H1945 0.951 . S
C1964 C1962 1.388 . S
C1964 C1965 1.366 . S
C1965 C1964 1.366 . S
C1965 C1966 1.414 . S
C1965 C1968 1.499 . S
C1966 H1946 0.950 . S
C1966 C1965 1.414 . S
C1966 C1967 1.374 . S
C1967 H1947 0.950 . S
C1967 C1963 1.385 . S
C1967 C1966 1.374 . S
C1968 C1965 1.499 . S
C1968 C1969 1.373 . S
C1968 C1970 1.389 . S
C1969 H1948 0.950 . S
C1969 C1968 1.373 . S
C1969 C1985 1.377 . S
C1970 C1968 1.389 . S
C1970 C1971 1.524 . S
C1970 C1984 1.377 . S
C1971 C1970 1.524 . S
C1971 C1972 1.397 . S
C1971 C1976 1.363 . S
C1972 H1949 0.950 . S
C1972 C1971 1.397 . S
C1972 C1973 1.334 . S
C1973 H1950 0.950 . S
C1973 C1972 1.334 . S
C1973 C1974 1.287 . S
C1974 C1973 1.287 . S
C1974 C1975 1.524 . S
C1974 H1993 0.913 . S
C1975 H1951 0.950 . S
C1975 C1974 1.524 . S
C1975 C1976 1.415 . S
C1976 H1952 0.950 . S
C1976 C1971 1.363 . S
C1976 C1975 1.415 . S
C1977 H1953 0.951 . S
C1977 C1978 1.366 . S
C1977 C1979 1.388 . S
C1978 C1977 1.366 . S
C1978 C1982 1.385 . S
C1979 H1954 0.951 . S
C1979 C1977 1.388 . S
C1979 C1980 1.366 . S
C1980 C1979 1.366 . S
C1980 C1981 1.414 . S
C1980 C1983 1.499 . S
C1981 H1955 0.950 . S
C1981 C1980 1.414 . S
C1981 C1982 1.374 . S
C1982 H1956 0.950 . S
C1982 C1978 1.385 . S
C1982 C1981 1.374 . S
C1983 C1980 1.499 . S
C1983 C1984 1.373 . S
C1983 C1985 1.389 . S
C1984 H1957 0.950 . S
C1984 C1970 1.377 . S
C1984 C1983 1.373 . S
C1985 C1969 1.377 . S
C1985 C1983 1.389 . S
C1985 C1986 1.524 . S
C1986 C1985 1.524 . S
C1986 C1987 1.397 . S
C1986 C1991 1.363 . S
C1987 H1958 0.950 . S
C1987 C1986 1.397 . S
C1987 C1988 1.334 . S
C1988 H1959 0.950 . S
C1988 C1987 1.334 . S
C1988 C1989 1.287 . S
C1989 C1988 1.287 . S
C1989 C1990 1.524 . S
C1989 H1992 0.999 . S
C1990 H1960 0.950 . S
C1990 C1989 1.524 . S
C1990 C1991 1.415 . S
C1991 H1961 0.950 . S
C1991 C1986 1.363 . S
C1991 C1990 1.415 . S
H1992 C1989 0.999 . S
H1993 C1974 0.913 . S
H1994 C2012 0.951 . S
H1995 C2014 0.951 . S
H1996 C2016 0.950 . S
H1997 C2017 0.950 1_455 S
H1998 C2019 0.950 . S
H1999 C2022 0.950 . S
H2000 C2023 0.950 . S
H2001 C2025 0.950 . S
H2002 C2026 0.950 . S
H2003 C2027 0.951 . S
H2004 C2029 0.951 . S
H2005 C2031 0.950 . S
H2006 C2032 0.950 . S
H2007 C2034 0.950 . S
H2008 C2037 0.950 . S
H2009 C2038 0.950 . S
H2010 C2040 0.950 . S
H2011 C2041 0.950 . S
C2012 H1994 0.951 . S
C2012 C2013 1.366 . S
C2012 C2014 1.388 . S
C2013 C2012 1.366 . S
C2013 C2017 1.385 . S
C2014 H1995 0.951 . S
C2014 C2012 1.388 . S
C2014 C2015 1.366 . S
C2015 C2014 1.366 . S
C2015 C2016 1.414 . S
C2015 C2018 1.499 . S
C2016 H1996 0.950 . S
C2016 C2015 1.414 . S
C2016 C2017 1.374 . S
C2017 H1997 0.950 1_655 S
C2017 C2013 1.385 . S
C2017 C2016 1.374 . S
C2018 C2015 1.499 . S
C2018 C2019 1.373 . S
C2018 C2020 1.389 . S
C2019 H1998 0.950 . S
C2019 C2018 1.373 . S
C2019 C2035 1.377 . S
C2020 C2018 1.389 . S
C2020 C2021 1.524 . S
C2020 C2034 1.377 . S
C2021 C2020 1.524 . S
C2021 C2022 1.397 . S
C2021 C2026 1.363 . S
C2022 H1999 0.950 . S
C2022 C2021 1.397 . S
C2022 C2023 1.334 . S
C2023 H2000 0.950 . S
C2023 C2022 1.334 . S
C2023 C2024 1.287 . S
C2024 C2023 1.287 . S
C2024 C2025 1.524 . S
C2024 H2043 0.913 . S
C2025 H2001 0.950 . S
C2025 C2024 1.524 . S
C2025 C2026 1.415 . S
C2026 H2002 0.950 . S
C2026 C2021 1.363 . S
C2026 C2025 1.415 . S
C2027 H2003 0.951 . S
C2027 C2028 1.366 . S
C2027 C2029 1.388 . S
C2028 C2027 1.366 . S
C2028 C2032 1.385 . S
C2029 H2004 0.951 . S
C2029 C2027 1.388 . S
C2029 C2030 1.366 . S
C2030 C2029 1.366 . S
C2030 C2031 1.414 . S
C2030 C2033 1.499 . S
C2031 H2005 0.950 . S
C2031 C2030 1.414 . S
C2031 C2032 1.374 . S
C2032 H2006 0.950 . S
C2032 C2028 1.385 . S
C2032 C2031 1.374 . S
C2033 C2030 1.499 . S
C2033 C2034 1.373 . S
C2033 C2035 1.389 . S
C2034 H2007 0.950 . S
C2034 C2020 1.377 . S
C2034 C2033 1.373 . S
C2035 C2019 1.377 . S
C2035 C2033 1.389 . S
C2035 C2036 1.524 . S
C2036 C2035 1.524 . S
C2036 C2037 1.397 . S
C2036 C2041 1.363 . S
C2037 H2008 0.950 . S
C2037 C2036 1.397 . S
C2037 C2038 1.334 . S
C2038 H2009 0.950 . S
C2038 C2037 1.334 . S
C2038 C2039 1.287 . S
C2039 C2038 1.287 . S
C2039 C2040 1.524 . S
C2039 H2042 0.999 . S
C2040 H2010 0.950 . S
C2040 C2039 1.524 . S
C2040 C2041 1.415 . S
C2041 H2011 0.950 . S
C2041 C2036 1.363 . S
C2041 C2040 1.415 . S
H2042 C2039 0.999 . S
H2043 C2024 0.913 . S
H2044 C2062 0.951 1_565 S
H2045 C2064 0.951 . S
H2046 C2066 0.950 . S
H2047 C2067 0.950 . S
H2048 C2069 0.950 . S
H2049 C2072 0.950 . S
H2050 C2073 0.950 . S
H2051 C2075 0.950 . S
H2052 C2076 0.950 . S
H2053 C2077 0.951 . S
H2054 C2079 0.951 . S
H2055 C2081 0.950 . S
H2056 C2082 0.950 . S
H2057 C2084 0.950 . S
H2058 C2087 0.950 . S
H2059 C2088 0.950 . S
H2060 C2090 0.950 . S
H2061 C2091 0.950 . S
C2062 H2044 0.951 1_545 S
C2062 C2063 1.366 . S
C2062 C2064 1.388 . S
C2063 C2062 1.366 . S
C2063 C2067 1.385 . S
C2064 H2045 0.951 . S
C2064 C2062 1.388 . S
C2064 C2065 1.366 . S
C2065 C2064 1.366 . S
C2065 C2066 1.414 . S
C2065 C2068 1.499 . S
C2066 H2046 0.950 . S
C2066 C2065 1.414 . S
C2066 C2067 1.374 . S
C2067 H2047 0.950 . S
C2067 C2063 1.385 . S
C2067 C2066 1.374 . S
C2068 C2065 1.499 . S
C2068 C2069 1.373 . S
C2068 C2070 1.389 . S
C2069 H2048 0.950 . S
C2069 C2068 1.373 . S
C2069 C2085 1.377 . S
C2070 C2068 1.389 . S
C2070 C2071 1.524 . S
C2070 C2084 1.377 . S
C2071 C2070 1.524 . S
C2071 C2072 1.397 . S
C2071 C2076 1.363 . S
C2072 H2049 0.950 . S
C2072 C2071 1.397 . S
C2072 C2073 1.334 . S
C2073 H2050 0.950 . S
C2073 C2072 1.334 . S
C2073 C2074 1.287 . S
C2074 C2073 1.287 . S
C2074 C2075 1.524 . S
C2074 H2093 0.913 . S
C2075 H2051 0.950 . S
C2075 C2074 1.524 . S
C2075 C2076 1.415 . S
C2076 H2052 0.950 . S
C2076 C2071 1.363 . S
C2076 C2075 1.415 . S
C2077 H2053 0.951 . S
C2077 C2078 1.366 . S
C2077 C2079 1.388 . S
C2078 C2077 1.366 . S
C2078 C2082 1.385 . S
C2079 H2054 0.951 . S
C2079 C2077 1.388 . S
C2079 C2080 1.366 . S
C2080 C2079 1.366 . S
C2080 C2081 1.414 . S
C2080 C2083 1.499 . S
C2081 H2055 0.950 . S
C2081 C2080 1.414 . S
C2081 C2082 1.374 . S
C2082 H2056 0.950 . S
C2082 C2078 1.385 . S
C2082 C2081 1.374 . S
C2083 C2080 1.499 . S
C2083 C2084 1.373 . S
C2083 C2085 1.389 . S
C2084 H2057 0.950 . S
C2084 C2070 1.377 . S
C2084 C2083 1.373 . S
C2085 C2069 1.377 . S
C2085 C2083 1.389 . S
C2085 C2086 1.524 . S
C2086 C2085 1.524 . S
C2086 C2087 1.397 . S
C2086 C2091 1.363 . S
C2087 H2058 0.950 . S
C2087 C2086 1.397 . S
C2087 C2088 1.334 . S
C2088 H2059 0.950 . S
C2088 C2087 1.334 . S
C2088 C2089 1.287 . S
C2089 C2088 1.287 . S
C2089 C2090 1.524 . S
C2089 H2092 0.999 . S
C2090 H2060 0.950 . S
C2090 C2089 1.524 . S
C2090 C2091 1.415 . S
C2091 H2061 0.950 . S
C2091 C2086 1.363 . S
C2091 C2090 1.415 . S
H2092 C2089 0.999 . S
H2093 C2074 0.913 . S
H2094 C2112 0.940 1_655 S
H2095 C2114 0.951 . S
H2096 C2116 0.950 . S
H2097 C2117 0.950 . S
H2098 C2119 0.950 . S
H2099 C2122 0.950 . S
H2100 C2123 0.950 . S
H2101 C2125 0.950 . S
H2102 C2126 0.950 . S
H2103 C2127 0.951 . S
H2104 C2129 0.951 . S
H2105 C2131 0.950 . S
H2106 C2132 0.950 . S
H2107 C2134 0.950 . S
H2108 C2137 0.950 . S
H2109 C2138 0.950 . S
H2110 C2140 0.950 . S
H2111 C2141 0.950 . S
C2112 H2094 0.940 1_455 S
C2112 C2113 1.366 . S
C2112 C2114 1.388 . S
C2113 C2112 1.366 . S
C2113 C2117 1.385 . S
C2114 H2095 0.951 . S
C2114 C2112 1.388 . S
C2114 C2115 1.366 . S
C2115 C2114 1.366 . S
C2115 C2116 1.414 . S
C2115 C2118 1.499 . S
C2116 H2096 0.950 . S
C2116 C2115 1.414 . S
C2116 C2117 1.374 . S
C2117 H2097 0.950 . S
C2117 C2113 1.385 . S
C2117 C2116 1.374 . S
C2118 C2115 1.499 . S
C2118 C2119 1.373 . S
C2118 C2120 1.389 . S
C2119 H2098 0.950 . S
C2119 C2118 1.373 . S
C2119 C2135 1.377 . S
C2120 C2118 1.389 . S
C2120 C2121 1.524 . S
C2120 C2134 1.377 . S
C2121 C2120 1.524 . S
C2121 C2122 1.397 . S
C2121 C2126 1.363 . S
C2122 H2099 0.950 . S
C2122 C2121 1.397 . S
C2122 C2123 1.334 . S
C2123 H2100 0.950 . S
C2123 C2122 1.334 . S
C2123 C2124 1.287 . S
C2124 C2123 1.287 . S
C2124 C2125 1.524 . S
C2124 H2143 0.913 . S
C2125 H2101 0.950 . S
C2125 C2124 1.524 . S
C2125 C2126 1.415 . S
C2126 H2102 0.950 . S
C2126 C2121 1.363 . S
C2126 C2125 1.415 . S
C2127 H2103 0.951 . S
C2127 C2128 1.366 . S
C2127 C2129 1.388 . S
C2128 C2127 1.366 . S
C2128 C2132 1.385 . S
C2129 H2104 0.951 . S
C2129 C2127 1.388 . S
C2129 C2130 1.366 . S
C2130 C2129 1.366 . S
C2130 C2131 1.414 . S
C2130 C2133 1.499 . S
C2131 H2105 0.950 . S
C2131 C2130 1.414 . S
C2131 C2132 1.374 . S
C2132 H2106 0.950 . S
C2132 C2128 1.385 . S
C2132 C2131 1.374 . S
C2133 C2130 1.499 . S
C2133 C2134 1.373 . S
C2133 C2135 1.389 . S
C2134 H2107 0.950 . S
C2134 C2120 1.377 . S
C2134 C2133 1.373 . S
C2135 C2119 1.377 . S
C2135 C2133 1.389 . S
C2135 C2136 1.524 . S
C2136 C2135 1.524 . S
C2136 C2137 1.397 . S
C2136 C2141 1.363 . S
C2137 H2108 0.950 . S
C2137 C2136 1.397 . S
C2137 C2138 1.334 . S
C2138 H2109 0.950 . S
C2138 C2137 1.334 . S
C2138 C2139 1.287 . S
C2139 C2138 1.287 . S
C2139 C2140 1.524 . S
C2139 H2142 0.999 . S
C2140 H2110 0.950 . S
C2140 C2139 1.524 . S
C2140 C2141 1.415 . S
C2141 H2111 0.950 . S
C2141 C2136 1.363 . S
C2141 C2140 1.415 . S
H2142 C2139 0.999 . S
H2143 C2124 0.913 . S
H2144 C2162 0.951 . S
H2145 C2164 0.951 . S
H2146 C2166 0.950 . S
H2147 C2167 0.950 . S
H2148 C2169 0.950 . S
H2149 C2172 0.950 . S
H2150 C2173 0.950 . S
H2151 C2175 0.950 . S
H2152 C2176 0.950 . S
H2153 C2177 0.951 . S
H2154 C2179 0.951 . S
H2155 C2181 0.950 . S
H2156 C2182 0.950 . S
H2157 C2184 0.950 . S
H2158 C2187 0.950 . S
H2159 C2188 0.950 . S
H2160 C2190 0.950 . S
H2161 C2191 0.950 . S
C2162 H2144 0.951 . S
C2162 C2163 1.366 . S
C2162 C2164 1.388 . S
C2163 C2162 1.366 . S
C2163 C2167 1.385 . S
C2164 H2145 0.951 . S
C2164 C2162 1.388 . S
C2164 C2165 1.366 . S
C2165 C2164 1.366 . S
C2165 C2166 1.414 . S
C2165 C2168 1.499 . S
C2166 H2146 0.950 . S
C2166 C2165 1.414 . S
C2166 C2167 1.374 . S
C2167 H2147 0.950 . S
C2167 C2163 1.385 . S
C2167 C2166 1.374 . S
C2168 C2165 1.499 . S
C2168 C2169 1.373 . S
C2168 C2170 1.389 . S
C2169 H2148 0.950 . S
C2169 C2168 1.373 . S
C2169 C2185 1.377 . S
C2170 C2168 1.389 . S
C2170 C2171 1.524 . S
C2170 C2184 1.377 . S
C2171 C2170 1.524 . S
C2171 C2172 1.397 . S
C2171 C2176 1.363 . S
C2172 H2149 0.950 . S
C2172 C2171 1.397 . S
C2172 C2173 1.334 . S
C2173 H2150 0.950 . S
C2173 C2172 1.334 . S
C2173 C2174 1.287 . S
C2174 C2173 1.287 . S
C2174 C2175 1.524 . S
C2174 H2193 0.913 . S
C2175 H2151 0.950 . S
C2175 C2174 1.524 . S
C2175 C2176 1.415 . S
C2176 H2152 0.950 . S
C2176 C2171 1.363 . S
C2176 C2175 1.415 . S
C2177 H2153 0.951 . S
C2177 C2178 1.366 . S
C2177 C2179 1.388 . S
C2178 C2177 1.366 . S
C2178 C2182 1.385 . S
C2179 H2154 0.951 . S
C2179 C2177 1.388 . S
C2179 C2180 1.366 . S
C2180 C2179 1.366 . S
C2180 C2181 1.414 . S
C2180 C2183 1.499 . S
C2181 H2155 0.950 . S
C2181 C2180 1.414 . S
C2181 C2182 1.374 . S
C2182 H2156 0.950 . S
C2182 C2178 1.385 . S
C2182 C2181 1.374 . S
C2183 C2180 1.499 . S
C2183 C2184 1.373 . S
C2183 C2185 1.389 . S
C2184 H2157 0.950 . S
C2184 C2170 1.377 . S
C2184 C2183 1.373 . S
C2185 C2169 1.377 . S
C2185 C2183 1.389 . S
C2185 C2186 1.524 . S
C2186 C2185 1.524 . S
C2186 C2187 1.397 . S
C2186 C2191 1.363 . S
C2187 H2158 0.950 . S
C2187 C2186 1.397 . S
C2187 C2188 1.334 . S
C2188 H2159 0.950 . S
C2188 C2187 1.334 . S
C2188 C2189 1.287 . S
C2189 C2188 1.287 . S
C2189 C2190 1.524 . S
C2189 H2192 0.999 . S
C2190 H2160 0.950 . S
C2190 C2189 1.524 . S
C2190 C2191 1.415 . S
C2191 H2161 0.950 . S
C2191 C2186 1.363 . S
C2191 C2190 1.415 . S
H2192 C2189 0.999 . S
H2193 C2174 0.913 . S
H2194 C2212 0.951 . S
H2195 C2214 0.951 . S
H2196 C2216 0.950 . S
H2197 C2217 0.950 . S
H2198 C2219 0.950 . S
H2199 C2222 0.950 . S
H2200 C2223 0.950 . S
H2201 C2225 0.950 . S
H2202 C2226 0.950 . S
H2203 C2227 0.951 . S
H2204 C2229 0.951 . S
H2205 C2231 0.950 . S
H2206 C2232 0.950 . S
H2207 C2234 0.950 . S
H2208 C2237 0.950 . S
H2209 C2238 0.950 . S
H2210 C2240 0.950 . S
H2211 C2241 0.950 . S
C2212 H2194 0.951 . S
C2212 C2213 1.366 . S
C2212 C2214 1.388 . S
C2213 C2212 1.366 . S
C2213 C2217 1.385 . S
C2214 H2195 0.951 . S
C2214 C2212 1.388 . S
C2214 C2215 1.366 . S
C2215 C2214 1.366 . S
C2215 C2216 1.414 . S
C2215 C2218 1.499 . S
C2216 H2196 0.950 . S
C2216 C2215 1.414 . S
C2216 C2217 1.374 . S
C2217 H2197 0.950 . S
C2217 C2213 1.385 . S
C2217 C2216 1.374 . S
C2218 C2215 1.499 . S
C2218 C2219 1.373 . S
C2218 C2220 1.389 . S
C2219 H2198 0.950 . S
C2219 C2218 1.373 . S
C2219 C2235 1.377 . S
C2220 C2218 1.389 . S
C2220 C2221 1.524 . S
C2220 C2234 1.377 . S
C2221 C2220 1.524 . S
C2221 C2222 1.397 . S
C2221 C2226 1.363 . S
C2222 H2199 0.950 . S
C2222 C2221 1.397 . S
C2222 C2223 1.334 . S
C2223 H2200 0.950 . S
C2223 C2222 1.334 . S
C2223 C2224 1.287 . S
C2224 C2223 1.287 . S
C2224 C2225 1.524 . S
C2224 H2243 0.913 . S
C2225 H2201 0.950 . S
C2225 C2224 1.524 . S
C2225 C2226 1.415 . S
C2226 H2202 0.950 . S
C2226 C2221 1.363 . S
C2226 C2225 1.415 . S
C2227 H2203 0.951 . S
C2227 C2228 1.366 . S
C2227 C2229 1.388 . S
C2228 C2227 1.366 . S
C2228 C2232 1.385 . S
C2229 H2204 0.951 . S
C2229 C2227 1.388 . S
C2229 C2230 1.366 . S
C2230 C2229 1.366 . S
C2230 C2231 1.414 . S
C2230 C2233 1.499 . S
C2231 H2205 0.950 . S
C2231 C2230 1.414 . S
C2231 C2232 1.374 . S
C2232 H2206 0.950 . S
C2232 C2228 1.385 . S
C2232 C2231 1.374 . S
C2233 C2230 1.499 . S
C2233 C2234 1.373 . S
C2233 C2235 1.389 . S
C2234 H2207 0.950 . S
C2234 C2220 1.377 . S
C2234 C2233 1.373 . S
C2235 C2219 1.377 . S
C2235 C2233 1.389 . S
C2235 C2236 1.524 . S
C2236 C2235 1.524 . S
C2236 C2237 1.397 . S
C2236 C2241 1.363 . S
C2237 H2208 0.950 . S
C2237 C2236 1.397 . S
C2237 C2238 1.334 . S
C2238 H2209 0.950 . S
C2238 C2237 1.334 . S
C2238 C2239 1.287 . S
C2239 C2238 1.287 . S
C2239 C2240 1.524 . S
C2239 H2242 0.999 . S
C2240 H2210 0.950 . S
C2240 C2239 1.524 . S
C2240 C2241 1.415 . S
C2241 H2211 0.950 . S
C2241 C2236 1.363 . S
C2241 C2240 1.415 . S
H2242 C2239 0.999 . S
H2243 C2224 0.913 . S
H2244 C2262 0.951 . S
H2245 C2264 0.951 . S
H2246 C2266 0.950 . S
H2247 C2267 0.950 . S
H2248 C2269 0.950 . S
H2249 C2272 0.950 . S
H2250 C2273 0.950 . S
H2251 C2275 0.950 . S
H2252 C2276 0.950 . S
H2253 C2277 0.951 . S
H2254 C2279 0.951 . S
H2255 C2281 0.950 . S
H2256 C2282 0.950 . S
H2257 C2284 0.950 . S
H2258 C2287 0.950 . S
H2259 C2288 0.950 . S
H2260 C2290 0.950 . S
H2261 C2291 0.950 . S
C2262 H2244 0.951 . S
C2262 C2263 1.366 . S
C2262 C2264 1.388 . S
C2263 C2262 1.366 . S
C2263 C2267 1.385 . S
C2264 H2245 0.951 . S
C2264 C2262 1.388 . S
C2264 C2265 1.366 . S
C2265 C2264 1.366 . S
C2265 C2266 1.414 . S
C2265 C2268 1.499 . S
C2266 H2246 0.950 . S
C2266 C2265 1.414 . S
C2266 C2267 1.374 . S
C2267 H2247 0.950 . S
C2267 C2263 1.385 . S
C2267 C2266 1.374 . S
C2268 C2265 1.499 . S
C2268 C2269 1.373 . S
C2268 C2270 1.389 . S
C2269 H2248 0.950 . S
C2269 C2268 1.373 . S
C2269 C2285 1.377 . S
C2270 C2268 1.389 . S
C2270 C2271 1.524 . S
C2270 C2284 1.377 . S
C2271 C2270 1.524 . S
C2271 C2272 1.397 . S
C2271 C2276 1.363 . S
C2272 H2249 0.950 . S
C2272 C2271 1.397 . S
C2272 C2273 1.334 . S
C2273 H2250 0.950 . S
C2273 C2272 1.334 . S
C2273 C2274 1.287 . S
C2274 C2273 1.287 . S
C2274 C2275 1.524 . S
C2274 H2293 0.913 . S
C2275 H2251 0.950 . S
C2275 C2274 1.524 . S
C2275 C2276 1.415 . S
C2276 H2252 0.950 . S
C2276 C2271 1.363 . S
C2276 C2275 1.415 . S
C2277 H2253 0.951 . S
C2277 C2278 1.366 . S
C2277 C2279 1.388 . S
C2278 C2277 1.366 . S
C2278 C2282 1.385 . S
C2279 H2254 0.951 . S
C2279 C2277 1.388 . S
C2279 C2280 1.366 . S
C2280 C2279 1.366 . S
C2280 C2281 1.414 . S
C2280 C2283 1.499 . S
C2281 H2255 0.950 . S
C2281 C2280 1.414 . S
C2281 C2282 1.374 . S
C2282 H2256 0.950 . S
C2282 C2278 1.385 . S
C2282 C2281 1.374 . S
C2283 C2280 1.499 . S
C2283 C2284 1.373 . S
C2283 C2285 1.389 . S
C2284 H2257 0.950 . S
C2284 C2270 1.377 . S
C2284 C2283 1.373 . S
C2285 C2269 1.377 . S
C2285 C2283 1.389 . S
C2285 C2286 1.524 . S
C2286 C2285 1.524 . S
C2286 C2287 1.397 . S
C2286 C2291 1.363 . S
C2287 H2258 0.950 . S
C2287 C2286 1.397 . S
C2287 C2288 1.334 . S
C2288 H2259 0.950 . S
C2288 C2287 1.334 . S
C2288 C2289 1.287 . S
C2289 C2288 1.287 . S
C2289 C2290 1.524 . S
C2289 H2292 0.999 . S
C2290 H2260 0.950 . S
C2290 C2289 1.524 . S
C2290 C2291 1.415 . S
C2291 H2261 0.950 . S
C2291 C2286 1.363 . S
C2291 C2290 1.415 . S
H2292 C2289 0.999 . S
H2293 C2274 0.913 . S
H2294 C2312 0.951 . S
H2295 C2314 0.951 . S
H2296 C2316 0.950 . S
H2297 C2317 0.950 . S
H2298 C2319 0.950 . S
H2299 C2322 0.950 . S
H2300 C2323 0.950 . S
H2301 C2325 0.950 . S
H2302 C2326 0.950 . S
H2303 C2327 0.951 . S
H2304 C2329 0.951 . S
H2305 C2331 0.950 . S
H2306 C2332 0.950 . S
H2307 C2334 0.950 . S
H2308 C2337 0.950 . S
H2309 C2338 0.950 . S
H2310 C2340 0.950 . S
H2311 C2341 0.950 . S
C2312 H2294 0.951 . S
C2312 C2313 1.366 . S
C2312 C2314 1.388 . S
C2313 C2312 1.366 . S
C2313 C2317 1.385 . S
C2314 H2295 0.951 . S
C2314 C2312 1.388 . S
C2314 C2315 1.366 . S
C2315 C2314 1.366 . S
C2315 C2316 1.414 . S
C2315 C2318 1.499 . S
C2316 H2296 0.950 . S
C2316 C2315 1.414 . S
C2316 C2317 1.374 . S
C2317 H2297 0.950 . S
C2317 C2313 1.385 . S
C2317 C2316 1.374 . S
C2318 C2315 1.499 . S
C2318 C2319 1.373 . S
C2318 C2320 1.389 . S
C2319 H2298 0.950 . S
C2319 C2318 1.373 . S
C2319 C2335 1.377 . S
C2320 C2318 1.389 . S
C2320 C2321 1.524 . S
C2320 C2334 1.377 . S
C2321 C2320 1.524 . S
C2321 C2322 1.397 . S
C2321 C2326 1.363 . S
C2322 H2299 0.950 . S
C2322 C2321 1.397 . S
C2322 C2323 1.334 . S
C2323 H2300 0.950 . S
C2323 C2322 1.334 . S
C2323 C2324 1.287 . S
C2324 C2323 1.287 . S
C2324 C2325 1.524 . S
C2324 H2343 0.913 . S
C2325 H2301 0.950 . S
C2325 C2324 1.524 . S
C2325 C2326 1.415 . S
C2326 H2302 0.950 . S
C2326 C2321 1.363 . S
C2326 C2325 1.415 . S
C2327 H2303 0.951 . S
C2327 C2328 1.366 . S
C2327 C2329 1.388 . S
C2328 C2327 1.366 . S
C2328 C2332 1.385 . S
C2329 H2304 0.951 . S
C2329 C2327 1.388 . S
C2329 C2330 1.366 . S
C2330 C2329 1.366 . S
C2330 C2331 1.414 . S
C2330 C2333 1.499 . S
C2331 H2305 0.950 . S
C2331 C2330 1.414 . S
C2331 C2332 1.374 . S
C2332 H2306 0.950 . S
C2332 C2328 1.385 . S
C2332 C2331 1.374 . S
C2333 C2330 1.499 . S
C2333 C2334 1.373 . S
C2333 C2335 1.389 . S
C2334 H2307 0.950 . S
C2334 C2320 1.377 . S
C2334 C2333 1.373 . S
C2335 C2319 1.377 . S
C2335 C2333 1.389 . S
C2335 C2336 1.524 . S
C2336 C2335 1.524 . S
C2336 C2337 1.397 . S
C2336 C2341 1.363 . S
C2337 H2308 0.950 . S
C2337 C2336 1.397 . S
C2337 C2338 1.334 . S
C2338 H2309 0.950 . S
C2338 C2337 1.334 . S
C2338 C2339 1.287 . S
C2339 C2338 1.287 . S
C2339 C2340 1.524 . S
C2339 H2342 0.999 . S
C2340 H2310 0.950 . S
C2340 C2339 1.524 . S
C2340 C2341 1.415 . S
C2341 H2311 0.950 . S
C2341 C2336 1.363 . S
C2341 C2340 1.415 . S
H2342 C2339 0.999 . S
H2343 C2324 0.913 . S
H2344 C2362 0.951 . S
H2345 C2364 0.951 . S
H2346 C2366 0.950 . S
H2347 C2367 0.953 . S
H2348 C2369 0.950 . S
H2349 C2372 0.950 . S
H2350 C2373 0.950 . S
H2351 C2375 0.950 . S
H2352 C2376 0.950 1_554 S
H2353 C2377 0.951 . S
H2354 C2379 0.951 . S
H2355 C2381 0.950 . S
H2356 C2382 0.953 . S
H2357 C2384 0.950 . S
H2358 C2387 0.950 . S
H2359 C2388 0.950 . S
H2360 C2390 0.950 . S
H2361 C2391 0.950 1_556 S
C2362 H2344 0.951 . S
C2362 C2363 1.366 . S
C2362 C2364 1.388 . S
C2363 C2362 1.366 . S
C2363 C2367 1.381 1_565 S
C2364 H2345 0.951 . S
C2364 C2362 1.388 . S
C2364 C2365 1.366 . S
C2365 C2364 1.366 . S
C2365 C2366 1.414 1_565 S
C2365 C2368 1.499 . S
C2366 H2346 0.950 . S
C2366 C2365 1.414 1_545 S
C2366 C2367 1.375 . S
C2367 H2347 0.953 . S
C2367 C2363 1.381 1_545 S
C2367 C2366 1.375 . S
C2368 C2365 1.499 . S
C2368 C2369 1.373 1_565 S
C2368 C2370 1.389 . S
C2369 H2348 0.950 . S
C2369 C2368 1.373 1_545 S
C2369 C2385 1.377 1_556 S
C2370 C2368 1.389 . S
C2370 C2371 1.524 . S
C2370 C2384 1.377 1_556 S
C2371 C2370 1.524 . S
C2371 C2372 1.397 . S
C2371 C2376 1.363 . S
C2372 H2349 0.950 . S
C2372 C2371 1.397 . S
C2372 C2373 1.334 . S
C2373 H2350 0.950 . S
C2373 C2372 1.334 . S
C2373 C2374 1.287 . S
C2374 C2373 1.287 . S
C2374 C2375 1.524 . S
C2374 H2393 0.913 . S
C2375 H2351 0.950 . S
C2375 C2374 1.524 . S
C2375 C2376 1.415 . S
C2376 H2352 0.950 1_556 S
C2376 C2371 1.363 . S
C2376 C2375 1.415 . S
C2377 H2353 0.951 . S
C2377 C2378 1.366 . S
C2377 C2379 1.388 . S
C2378 C2377 1.366 . S
C2378 C2382 1.381 1_545 S
C2379 H2354 0.951 . S
C2379 C2377 1.388 . S
C2379 C2380 1.366 . S
C2380 C2379 1.366 . S
C2380 C2381 1.414 1_545 S
C2380 C2383 1.499 . S
C2381 H2355 0.950 . S
C2381 C2380 1.414 1_565 S
C2381 C2382 1.375 . S
C2382 H2356 0.953 . S
C2382 C2378 1.381 1_565 S
C2382 C2381 1.375 . S
C2383 C2380 1.499 . S
C2383 C2384 1.373 1_545 S
C2383 C2385 1.389 . S
C2384 H2357 0.950 . S
C2384 C2370 1.377 1_554 S
C2384 C2383 1.373 1_565 S
C2385 C2369 1.377 1_554 S
C2385 C2383 1.389 . S
C2385 C2386 1.524 . S
C2386 C2385 1.524 . S
C2386 C2387 1.397 . S
C2386 C2391 1.363 . S
C2387 H2358 0.950 . S
C2387 C2386 1.397 . S
C2387 C2388 1.334 . S
C2388 H2359 0.950 . S
C2388 C2387 1.334 . S
C2388 C2389 1.287 . S
C2389 C2388 1.287 . S
C2389 C2390 1.524 . S
C2389 H2392 0.999 . S
C2390 H2360 0.950 . S
C2390 C2389 1.524 . S
C2390 C2391 1.415 . S
C2391 H2361 0.950 1_554 S
C2391 C2386 1.363 . S
C2391 C2390 1.415 . S
H2392 C2389 0.999 . S
H2393 C2374 0.913 . S
H2394 C2412 0.928 1_655 S
H2395 C2414 0.951 . S
H2396 C2416 0.950 . S
H2397 C2417 0.950 . S
H2398 C2419 0.950 . S
H2399 C2422 0.950 . S
H2400 C2423 0.950 . S
H2401 C2425 0.950 . S
H2402 C2426 0.950 . S
H2403 C2427 0.928 1_455 S
H2404 C2429 0.951 . S
H2405 C2431 0.950 . S
H2406 C2432 0.950 . S
H2407 C2434 0.950 . S
H2408 C2437 0.950 . S
H2409 C2438 0.950 . S
H2410 C2440 0.950 . S
H2411 C2441 0.950 . S
C2412 H2394 0.928 1_455 S
C2412 C2413 1.396 . S
C2412 C2414 1.381 1_455 S
C2413 C2412 1.396 . S
C2413 C2417 1.385 . S
C2414 H2395 0.951 . S
C2414 C2412 1.381 1_655 S
C2414 C2415 1.366 1_655 S
C2415 C2414 1.366 1_455 S
C2415 C2416 1.414 . S
C2415 C2418 1.499 . S
C2416 H2396 0.950 . S
C2416 C2415 1.414 . S
C2416 C2417 1.374 . S
C2417 H2397 0.950 . S
C2417 C2413 1.385 . S
C2417 C2416 1.374 . S
C2418 C2415 1.499 . S
C2418 C2419 1.373 . S
C2418 C2420 1.389 1_455 S
C2419 H2398 0.950 . S
C2419 C2418 1.373 . S
C2419 C2435 1.377 1_556 S
C2420 C2418 1.389 1_655 S
C2420 C2421 1.524 . S
C2420 C2434 1.377 1_556 S
C2421 C2420 1.524 . S
C2421 C2422 1.397 1_655 S
C2421 C2426 1.363 . S
C2422 H2399 0.950 . S
C2422 C2421 1.397 1_455 S
C2422 C2423 1.334 . S
C2423 H2400 0.950 . S
C2423 C2422 1.334 . S
C2423 C2424 1.287 1_455 S
C2424 C2423 1.287 1_655 S
C2424 C2425 1.524 . S
C2424 H2443 0.913 . S
C2425 H2401 0.950 . S
C2425 C2424 1.524 . S
C2425 C2426 1.415 . S
C2426 H2402 0.950 . S
C2426 C2421 1.363 . S
C2426 C2425 1.415 . S
C2427 H2403 0.928 1_655 S
C2427 C2428 1.396 . S
C2427 C2429 1.381 1_655 S
C2428 C2427 1.396 . S
C2428 C2432 1.385 . S
C2429 H2404 0.951 . S
C2429 C2427 1.381 1_455 S
C2429 C2430 1.366 1_455 S
C2430 C2429 1.366 1_655 S
C2430 C2431 1.414 . S
C2430 C2433 1.499 . S
C2431 H2405 0.950 . S
C2431 C2430 1.414 . S
C2431 C2432 1.374 . S
C2432 H2406 0.950 . S
C2432 C2428 1.385 . S
C2432 C2431 1.374 . S
C2433 C2430 1.499 . S
C2433 C2434 1.373 . S
C2433 C2435 1.389 1_655 S
C2434 H2407 0.950 . S
C2434 C2420 1.377 1_554 S
C2434 C2433 1.373 . S
C2435 C2419 1.377 1_554 S
C2435 C2433 1.389 1_455 S
C2435 C2436 1.524 . S
C2436 C2435 1.524 . S
C2436 C2437 1.397 1_455 S
C2436 C2441 1.363 . S
C2437 H2408 0.950 . S
C2437 C2436 1.397 1_655 S
C2437 C2438 1.334 . S
C2438 H2409 0.950 . S
C2438 C2437 1.334 . S
C2438 C2439 1.287 1_655 S
C2439 C2438 1.287 1_455 S
C2439 C2440 1.524 . S
C2439 H2442 0.999 . S
C2440 H2410 0.950 . S
C2440 C2439 1.524 . S
C2440 C2441 1.415 . S
C2441 H2411 0.950 . S
C2441 C2436 1.363 . S
C2441 C2440 1.415 . S
H2442 C2439 0.999 . S
H2443 C2424 0.913 . S
H2444 C2462 0.951 . S
H2445 C2464 0.951 . S
H2446 C2466 0.950 . S
H2447 C2467 0.946 . S
H2448 C2469 0.950 . S
H2449 C2472 0.950 1_545 S
H2450 C2473 0.950 . S
H2451 C2475 0.950 . S
H2452 C2476 0.950 1_556 S
H2453 C2477 0.951 . S
H2454 C2479 0.951 . S
H2455 C2481 0.950 . S
H2456 C2482 0.946 . S
H2457 C2484 0.950 . S
H2458 C2487 0.950 1_565 S
H2459 C2488 0.950 . S
H2460 C2490 0.950 . S
H2461 C2491 0.950 1_554 S
C2462 H2444 0.951 . S
C2462 C2463 1.366 . S
C2462 C2464 1.388 . S
C2463 C2462 1.366 . S
C2463 C2467 1.390 1_565 S
C2464 H2445 0.951 . S
C2464 C2462 1.388 . S
C2464 C2465 1.366 . S
C2465 C2464 1.366 . S
C2465 C2466 1.414 1_565 S
C2465 C2468 1.499 . S
C2466 H2446 0.950 . S
C2466 C2465 1.414 1_545 S
C2466 C2467 1.372 . S
C2467 H2447 0.946 . S
C2467 C2463 1.390 1_545 S
C2467 C2466 1.372 . S
C2468 C2465 1.499 . S
C2468 C2469 1.373 1_565 S
C2468 C2470 1.389 . S
C2469 H2448 0.950 . S
C2469 C2468 1.373 1_545 S
C2469 C2485 1.377 1_554 S
C2470 C2468 1.389 . S
C2470 C2471 1.524 . S
C2470 C2484 1.377 1_554 S
C2471 C2470 1.524 . S
C2471 C2472 1.397 . S
C2471 C2476 1.363 . S
C2472 H2449 0.950 1_565 S
C2472 C2471 1.397 . S
C2472 C2473 1.334 . S
C2473 H2450 0.950 . S
C2473 C2472 1.334 . S
C2473 C2474 1.287 . S
C2474 C2473 1.287 . S
C2474 C2475 1.524 . S
C2474 H2493 0.913 . S
C2475 H2451 0.950 . S
C2475 C2474 1.524 . S
C2475 C2476 1.415 . S
C2476 H2452 0.950 1_554 S
C2476 C2471 1.363 . S
C2476 C2475 1.415 . S
C2477 H2453 0.951 . S
C2477 C2478 1.366 . S
C2477 C2479 1.388 . S
C2478 C2477 1.366 . S
C2478 C2482 1.390 1_545 S
C2479 H2454 0.951 . S
C2479 C2477 1.388 . S
C2479 C2480 1.366 . S
C2480 C2479 1.366 . S
C2480 C2481 1.414 1_545 S
C2480 C2483 1.499 . S
C2481 H2455 0.950 . S
C2481 C2480 1.414 1_565 S
C2481 C2482 1.372 . S
C2482 H2456 0.946 . S
C2482 C2478 1.390 1_565 S
C2482 C2481 1.372 . S
C2483 C2480 1.499 . S
C2483 C2484 1.373 1_545 S
C2483 C2485 1.389 . S
C2484 H2457 0.950 . S
C2484 C2470 1.377 1_556 S
C2484 C2483 1.373 1_565 S
C2485 C2469 1.377 1_556 S
C2485 C2483 1.389 . S
C2485 C2486 1.524 . S
C2486 C2485 1.524 . S
C2486 C2487 1.397 . S
C2486 C2491 1.363 . S
C2487 H2458 0.950 1_545 S
C2487 C2486 1.397 . S
C2487 C2488 1.334 . S
C2488 H2459 0.950 . S
C2488 C2487 1.334 . S
C2488 C2489 1.287 . S
C2489 C2488 1.287 . S
C2489 C2490 1.524 . S
C2489 H2492 0.999 . S
C2490 H2460 0.950 . S
C2490 C2489 1.524 . S
C2490 C2491 1.415 . S
C2491 H2461 0.950 1_556 S
C2491 C2486 1.363 . S
C2491 C2490 1.415 . S
H2492 C2489 0.999 . S
H2493 C2474 0.913 . S
H2494 C2512 0.951 . S
H2495 C2514 0.951 . S
H2496 C2516 0.950 . S
H2497 C2517 0.950 1_455 S
H2498 C2519 0.950 . S
H2499 C2522 0.950 . S
H2500 C2523 0.950 . S
H2501 C2525 0.950 . S
H2502 C2526 0.973 . S
H2503 C2527 0.951 . S
H2504 C2529 0.951 . S
H2505 C2531 0.950 . S
H2506 C2532 0.950 1_655 S
H2507 C2534 0.950 . S
H2508 C2537 0.950 . S
H2509 C2538 0.950 . S
H2510 C2540 0.950 . S
H2511 C2541 0.973 . S
C2512 H2494 0.951 . S
C2512 C2513 1.366 . S
C2512 C2514 1.388 . S
C2513 C2512 1.366 . S
C2513 C2517 1.385 . S
C2514 H2495 0.951 . S
C2514 C2512 1.388 . S
C2514 C2515 1.366 . S
C2515 C2514 1.366 . S
C2515 C2516 1.414 1_655 S
C2515 C2518 1.499 . S
C2516 H2496 0.950 . S
C2516 C2515 1.414 1_455 S
C2516 C2517 1.374 1_455 S
C2517 H2497 0.950 1_655 S
C2517 C2513 1.385 . S
C2517 C2516 1.374 1_655 S
C2518 C2515 1.499 . S
C2518 C2519 1.373 . S
C2518 C2520 1.389 . S
C2519 H2498 0.950 . S
C2519 C2518 1.373 . S
C2519 C2535 1.377 1_656 S
C2520 C2518 1.389 . S
C2520 C2521 1.526 . S
C2520 C2534 1.377 1_656 S
C2521 C2520 1.526 . S
C2521 C2522 1.375 1_655 S
C2521 C2526 1.381 . S
C2522 H2499 0.950 . S
C2522 C2521 1.375 1_455 S
C2522 C2523 1.334 . S
C2523 H2500 0.950 . S
C2523 C2522 1.334 . S
C2523 C2524 1.287 . S
C2524 C2523 1.287 . S
C2524 C2525 1.524 1_455 S
C2524 H2543 0.913 . S
C2525 H2501 0.950 . S
C2525 C2524 1.524 1_655 S
C2525 C2526 1.415 . S
C2526 H2502 0.973 . S
C2526 C2521 1.381 . S
C2526 C2525 1.415 . S
C2527 H2503 0.951 . S
C2527 C2528 1.366 . S
C2527 C2529 1.388 . S
C2528 C2527 1.366 . S
C2528 C2532 1.385 . S
C2529 H2504 0.951 . S
C2529 C2527 1.388 . S
C2529 C2530 1.366 . S
C2530 C2529 1.366 . S
C2530 C2531 1.414 1_455 S
C2530 C2533 1.499 . S
C2531 H2505 0.950 . S
C2531 C2530 1.414 1_655 S
C2531 C2532 1.374 1_655 S
C2532 H2506 0.950 1_455 S
C2532 C2528 1.385 . S
C2532 C2531 1.374 1_455 S
C2533 C2530 1.499 . S
C2533 C2534 1.373 . S
C2533 C2535 1.389 . S
C2534 H2507 0.950 . S
C2534 C2520 1.377 1_454 S
C2534 C2533 1.373 . S
C2535 C2519 1.377 1_454 S
C2535 C2533 1.389 . S
C2535 C2536 1.526 . S
C2536 C2535 1.526 . S
C2536 C2537 1.375 1_455 S
C2536 C2541 1.381 . S
C2537 H2508 0.950 . S
C2537 C2536 1.375 1_655 S
C2537 C2538 1.334 . S
C2538 H2509 0.950 . S
C2538 C2537 1.334 . S
C2538 C2539 1.287 . S
C2539 C2538 1.287 . S
C2539 C2540 1.524 1_655 S
C2539 H2542 0.999 . S
C2540 H2510 0.950 . S
C2540 C2539 1.524 1_455 S
C2540 C2541 1.415 . S
C2541 H2511 0.973 . S
C2541 C2536 1.381 . S
C2541 C2540 1.415 . S
H2542 C2539 0.999 . S
H2543 C2524 0.913 . S
C563 C73 0.360 . S
C578 C5 0.360 . S
C613 C107 0.360 . S
C628 C39 0.360 . S
C663 C209 0.359 . S
C678 C141 0.360 . S
C713 C175 0.359 . S
C728 C243 0.358 . S
C763 C277 0.359 . S
C778 C345 0.359 . S
C813 C311 0.361 . S
C828 C379 0.362 . S
C863 C481 0.361 . S
C878 C413 0.360 . S
C913 C515 0.358 . S
C928 C447 0.358 . S
C963 C9 1.466 . S
C978 C247 1.466 . S
C1013 C145 1.466 . S
C1028 C43 1.466 . S
C1063 C179 1.466 . S
C1078 C77 1.466 . S
C1113 C213 1.466 . S
C1128 C111 1.466 . S
C1163 C519 1.466 . S
C1178 C281 1.466 . S
C1213 C417 1.466 . S
C1228 C315 1.466 . S
C1263 C451 1.466 . S
C1278 C349 1.466 . S
C1313 C485 1.466 . S
C1328 C383 1.466 . S
C1363 C33 1.141 . S
C1378 C376 1.171 . S
C1413 C67 1.139 . S
C1428 C274 1.172 . S
C1463 C101 1.141 . S
C1478 C308 1.171 . S
C1513 C342 1.171 . S
C1528 C135 1.141 . S
C1563 C169 1.139 . S
C1578 C444 1.172 . S
C1613 C203 1.139 . S
C1628 C478 1.172 . S
C1663 C237 1.140 . S
C1678 C512 1.171 . S
C1713 C271 1.140 . S
C1728 C410 1.171 . S
C1763 C104 1.171 . S
C1778 C305 1.140 1_545 S
C1813 C2 1.171 . S
C1828 C339 1.140 1_455 S
C1863 C36 1.172 . S
C1878 C373 1.139 1_565 S
C1913 C407 1.140 1_655 S
C1928 C70 1.171 . S
C1963 C441 1.139 1_565 S
C1978 C172 1.172 . S
C2013 C475 1.139 1_655 S
C2028 C206 1.172 . S
C2063 C509 1.139 1_545 S
C2078 C240 1.172 . S
C2113 C543 1.140 1_455 S
C2128 C138 1.172 . S
C2163 C156 1.800 . S
C2178 C20 1.800 . S
C2213 C190 1.800 . S
C2228 C54 1.800 . S
C2263 C88 1.800 . S
C2278 C224 1.800 . S
C2313 C258 1.800 . S
C2328 C122 1.800 . S
C2363 C292 1.800 . S
C2378 C428 1.800 . S
C2413 C462 1.800 . S
C2428 C326 1.800 . S
C2463 C496 1.800 . S
C2478 C360 1.800 . S
C2513 C530 1.800 . S
C2528 C394 1.800 . S
