# Generated by pormake.
# Topology une, (4)-cn, num edge types: 1
# Building blocks:
#     Node 0, Type 0, BuildingBlock: CEKHIL_clean_sbu_0, # of connection points: 4
#     Node 1, Type 0, BuildingBlock: CEKHIL_clean_sbu_0, # of connection points: 4
#     Node 2, Type 0, BuildingBlock: CEKHIL_clean_sbu_0, # of connection points: 4
#     Node 3, Type 0, BuildingBlock: CEKHIL_clean_sbu_0, # of connection points: 4
#     Node 4, Type 0, BuildingBlock: CEKHIL_clean_sbu_0, # of connection points: 4
#     Node 5, Type 0, BuildingBlock: CEKHIL_clean_sbu_0, # of connection points: 4
#     Node 6, Type 0, BuildingBlock: CEKHIL_clean_sbu_0, # of connection points: 4
#     Node 7, Type 0, BuildingBlock: CEKHIL_clean_sbu_0, # of connection points: 4
#     Node 8, Type 0, BuildingBlock: CEKHIL_clean_sbu_0, # of connection points: 4
#     Node 9, Type 0, BuildingBlock: CEKHIL_clean_sbu_0, # of connection points: 4
#     Node 10, Type 0, BuildingBlock: CEKHIL_clean_sbu_0, # of connection points: 4
#     Node 11, Type 0, BuildingBlock: CEKHIL_clean_sbu_0, # of connection points: 4
#     Node 12, Type 0, BuildingBlock: CEKHIL_clean_sbu_0, # of connection points: 4
#     Node 13, Type 0, BuildingBlock: CEKHIL_clean_sbu_0, # of connection points: 4
#     Node 14, Type 0, BuildingBlock: CEKHIL_clean_sbu_0, # of connection points: 4
#     Node 15, Type 0, BuildingBlock: CEKHIL_clean_sbu_0, # of connection points: 4
#     Node 16, Type 0, BuildingBlock: CEKHIL_clean_sbu_0, # of connection points: 4
#     Node 17, Type 0, BuildingBlock: CEKHIL_clean_sbu_0, # of connection points: 4
#     Edge 18, Type (0, 0), BuildingBlock: UVAHIK_clean_linker_0, # of connection points: 2
#     Edge 19, Type (0, 0), BuildingBlock: UVAHIK_clean_linker_0, # of connection points: 2
#     Edge 20, Type (0, 0), BuildingBlock: UVAHIK_clean_linker_0, # of connection points: 2
#     Edge 21, Type (0, 0), BuildingBlock: UVAHIK_clean_linker_0, # of connection points: 2
#     Edge 22, Type (0, 0), BuildingBlock: UVAHIK_clean_linker_0, # of connection points: 2
#     Edge 23, Type (0, 0), BuildingBlock: UVAHIK_clean_linker_0, # of connection points: 2
#     Edge 24, Type (0, 0), BuildingBlock: UVAHIK_clean_linker_0, # of connection points: 2
#     Edge 25, Type (0, 0), BuildingBlock: UVAHIK_clean_linker_0, # of connection points: 2
#     Edge 26, Type (0, 0), BuildingBlock: UVAHIK_clean_linker_0, # of connection points: 2
#     Edge 27, Type (0, 0), BuildingBlock: UVAHIK_clean_linker_0, # of connection points: 2
#     Edge 28, Type (0, 0), BuildingBlock: UVAHIK_clean_linker_0, # of connection points: 2
#     Edge 29, Type (0, 0), BuildingBlock: UVAHIK_clean_linker_0, # of connection points: 2
#     Edge 30, Type (0, 0), BuildingBlock: UVAHIK_clean_linker_0, # of connection points: 2
#     Edge 31, Type (0, 0), BuildingBlock: UVAHIK_clean_linker_0, # of connection points: 2
#     Edge 32, Type (0, 0), BuildingBlock: UVAHIK_clean_linker_0, # of connection points: 2
#     Edge 33, Type (0, 0), BuildingBlock: UVAHIK_clean_linker_0, # of connection points: 2
#     Edge 34, Type (0, 0), BuildingBlock: UVAHIK_clean_linker_0, # of connection points: 2
#     Edge 35, Type (0, 0), BuildingBlock: UVAHIK_clean_linker_0, # of connection points: 2
#     Edge 36, Type (0, 0), BuildingBlock: UVAHIK_clean_linker_0, # of connection points: 2
#     Edge 37, Type (0, 0), BuildingBlock: UVAHIK_clean_linker_0, # of connection points: 2
#     Edge 38, Type (0, 0), BuildingBlock: UVAHIK_clean_linker_0, # of connection points: 2
#     Edge 39, Type (0, 0), BuildingBlock: UVAHIK_clean_linker_0, # of connection points: 2
#     Edge 40, Type (0, 0), BuildingBlock: UVAHIK_clean_linker_0, # of connection points: 2
#     Edge 41, Type (0, 0), BuildingBlock: UVAHIK_clean_linker_0, # of connection points: 2
#     Edge 42, Type (0, 0), BuildingBlock: UVAHIK_clean_linker_0, # of connection points: 2
#     Edge 43, Type (0, 0), BuildingBlock: UVAHIK_clean_linker_0, # of connection points: 2
#     Edge 44, Type (0, 0), BuildingBlock: UVAHIK_clean_linker_0, # of connection points: 2
#     Edge 45, Type (0, 0), BuildingBlock: UVAHIK_clean_linker_0, # of connection points: 2
#     Edge 46, Type (0, 0), BuildingBlock: UVAHIK_clean_linker_0, # of connection points: 2
#     Edge 47, Type (0, 0), BuildingBlock: UVAHIK_clean_linker_0, # of connection points: 2
#     Edge 48, Type (0, 0), BuildingBlock: UVAHIK_clean_linker_0, # of connection points: 2
#     Edge 49, Type (0, 0), BuildingBlock: UVAHIK_clean_linker_0, # of connection points: 2
#     Edge 50, Type (0, 0), BuildingBlock: UVAHIK_clean_linker_0, # of connection points: 2
#     Edge 51, Type (0, 0), BuildingBlock: UVAHIK_clean_linker_0, # of connection points: 2
#     Edge 52, Type (0, 0), BuildingBlock: UVAHIK_clean_linker_0, # of connection points: 2
#     Edge 53, Type (0, 0), BuildingBlock: UVAHIK_clean_linker_0, # of connection points: 2
# Relax obj value: 0.262
# Max RMSD: 0.177
# Mean RMSD: 0.166
data_MOF--net-une--node1-CEKHIL_clean_sbu_0--edge1-UVAHIK_clean_linker_0
_symmetry_space_group_name_H-M    P1
_symmetry_Int_Tables_number       1
_symmetry_cell_setting            triclinic
loop_
_symmetry_equiv_pos_as_xyz
'x, y, z'
_cell_length_a     49.565131
_cell_length_b     48.912988
_cell_length_c     67.989262
_cell_angle_alpha  90.083207
_cell_angle_beta   90.679226
_cell_angle_gamma 119.92623
loop_
_atom_site_label
_atom_site_type_symbol
_atom_site_fract_x
_atom_site_fract_y
_atom_site_fract_z
_atom_type_partial_charge
Co0 Co 0.38876 0.0857 0.06518 0.0
O1 O 0.40978 0.06154 0.06723 0.0
O2 O 0.41746 0.09592 0.04376 0.0
C3 C 0.39223 0.1014 0.09679 0.0
O4 O 0.37251 0.11547 0.0584 0.0
Co5 Co 0.32655 0.06473 0.0869 0.0
O6 O 0.33387 0.10688 0.07895 0.0
C7 C 0.32663 0.0297 0.05179 0.0
C8 C 0.42337 0.07477 0.05088 0.0
C9 C 0.35316 0.12299 0.06564 0.0
O10 O 0.35509 0.05076 0.04865 0.0
O11 O 0.31183 0.02976 0.06707 0.0
O12 O 0.41596 0.1163 0.08525 0.0
O13 O 0.36968 0.07549 0.08966 0.0
Co14 Co 0.90896 0.30137 0.05907 0.0
O15 O 0.88093 0.29014 0.08097 0.0
O16 O 0.9189 0.27896 0.07845 0.0
C17 C 0.9204 0.35169 0.05498 0.0
O18 O 0.94318 0.30956 0.03967 0.0
Co19 Co 0.8937 0.31893 0.01813 0.0
O20 O 0.93798 0.33302 0.01266 0.0
C21 C 0.86096 0.2527 0.03067 0.0
C22 C 0.8954 0.27633 0.08828 0.0
C23 C 0.95343 0.32403 0.02328 0.0
O24 O 0.879 0.26012 0.04587 0.0
O25 O 0.86177 0.27295 0.01843 0.0
O26 O 0.93451 0.34476 0.0687 0.0
O27 O 0.89755 0.32786 0.04617 0.0
Co28 Co 0.69668 0.60953 0.06051 0.0
O29 O 0.65201 0.58664 0.06345 0.0
O30 O 0.67703 0.58194 0.03808 0.0
C31 C 0.7111 0.60369 0.09111 0.0
O32 O 0.74187 0.62799 0.05241 0.0
Co33 Co 0.73871 0.67091 0.0844 0.0
O34 O 0.77258 0.66364 0.07526 0.0
C35 C 0.70068 0.67253 0.05134 0.0
C36 C 0.65061 0.57428 0.04625 0.0
C37 C 0.76877 0.64618 0.06035 0.0
O38 O 0.69328 0.64412 0.04667 0.0
O39 O 0.7169 0.68674 0.06669 0.0
O40 O 0.70231 0.58107 0.07816 0.0
O41 O 0.70703 0.62677 0.08593 0.0
Co42 Co 0.59243 0.90973 0.93401 0.0
O43 O 0.57799 0.88338 0.91057 0.0
O44 O 0.62675 0.92038 0.91685 0.0
C45 C 0.55567 0.92386 0.9366 0.0
O46 O 0.61674 0.94192 0.95533 0.0
Co47 Co 0.55521 0.89225 0.97282 0.0
O48 O 0.58838 0.93433 0.9824 0.0
C49 C 0.58602 0.857 0.96084 0.0
C50 C 0.60705 0.89793 0.90531 0.0
C51 C 0.61309 0.95028 0.97256 0.0
O52 O 0.60008 0.87727 0.94722 0.0
O53 O 0.56501 0.85717 0.97151 0.0
O54 O 0.57811 0.93797 0.92407 0.0
O55 O 0.55381 0.89915 0.94476 0.0
Co56 Co 0.08295 0.6868 0.93736 0.0
O57 O 0.1079 0.69586 0.91407 0.0
O58 O 0.07257 0.71019 0.91901 0.0
C59 C 0.06874 0.63571 0.94144 0.0
O60 O 0.05207 0.68126 0.95857 0.0
Co61 Co 0.10233 0.66916 0.97689 0.0
O62 O 0.06105 0.66113 0.98597 0.0
C63 C 0.13737 0.73422 0.9627 0.0
C64 C 0.09409 0.71101 0.90787 0.0
C65 C 0.04472 0.66979 0.97598 0.0
O66 O 0.11613 0.72763 0.94952 0.0
O67 O 0.13763 0.7134 0.97395 0.0
O68 O 0.05416 0.64354 0.92856 0.0
O69 O 0.09356 0.65891 0.94912 0.0
Co70 Co 0.30591 0.39289 0.93931 0.0
O71 O 0.29442 0.40511 0.91485 0.0
O72 O 0.27942 0.35607 0.92367 0.0
C73 C 0.35739 0.42846 0.94057 0.0
O74 O 0.3131 0.37037 0.96204 0.0
Co75 Co 0.33024 0.43647 0.97618 0.0
O76 O 0.34073 0.40467 0.98622 0.0
C77 C 0.26361 0.40542 0.96572 0.0
C78 C 0.27796 0.37504 0.91092 0.0
C79 C 0.32861 0.37734 0.97834 0.0
O80 O 0.2679 0.3895 0.95226 0.0
O81 O 0.28594 0.42711 0.97591 0.0
O82 O 0.34695 0.40356 0.92931 0.0
O83 O 0.33623 0.43298 0.9483 0.0
Co84 Co 0.05329 0.41584 0.39932 0.0
O85 O 0.07531 0.39263 0.40156 0.0
O86 O 0.081 0.42538 0.37744 0.0
C87 C 0.0581 0.43326 0.43064 0.0
O88 O 0.03587 0.44439 0.39204 0.0
Co89 Co 0.99223 0.39617 0.4221 0.0
O90 O 5e-05 0.43857 0.41419 0.0
C91 C 0.99091 0.35877 0.38773 0.0
C92 C 0.08799 0.40519 0.38487 0.0
C93 C 0.01785 0.45313 0.39991 0.0
O94 O 0.0192 0.37955 0.3839 0.0
O95 O 0.97675 0.36 0.40304 0.0
O96 O 0.08108 0.4479 0.41854 0.0
O97 O 0.03543 0.40685 0.42418 0.0
Co98 Co 0.57234 0.63168 0.39061 0.0
O99 O 0.54538 0.62172 0.41301 0.0
O100 O 0.58231 0.60916 0.40986 0.0
C101 C 0.58514 0.68227 0.38605 0.0
O102 O 0.60546 0.63853 0.37075 0.0
Co103 Co 0.55563 0.64827 0.34985 0.0
O104 O 0.59833 0.65833 0.3426 0.0
C105 C 0.51997 0.58362 0.3646 0.0
C106 C 0.55955 0.60745 0.42009 0.0
C107 C 0.61435 0.65051 0.35359 0.0
O108 O 0.54095 0.59041 0.37799 0.0
O109 O 0.52003 0.60425 0.35302 0.0
O110 O 0.59926 0.67517 0.39968 0.0
O111 O 0.56145 0.65858 0.37775 0.0
Co112 Co 0.36359 0.9477 0.39195 0.0
O113 O 0.31917 0.92783 0.39575 0.0
O114 O 0.34161 0.91567 0.37201 0.0
C115 C 0.37925 0.94821 0.42339 0.0
O116 O 0.40793 0.96175 0.38349 0.0
Co117 Co 0.40931 0.01328 0.41054 0.0
O118 O 0.44163 0.00344 0.40188 0.0
C119 C 0.36967 0.00919 0.37686 0.0
C120 C 0.31607 0.91137 0.37998 0.0
C121 C 0.43581 0.98177 0.3893 0.0
O122 O 0.36138 0.97991 0.37451 0.0
O123 O 0.38676 0.02597 0.39129 0.0
O124 O 0.36835 0.92256 0.41279 0.0
O125 O 0.37635 0.97061 0.41554 0.0
Co126 Co 0.26094 0.24543 0.26565 0.0
O127 O 0.24808 0.22295 0.24077 0.0
O128 O 0.2967 0.2574 0.2495 0.0
C129 C 0.22523 0.26092 0.2686 0.0
O130 O 0.28372 0.27361 0.28907 0.0
Co131 Co 0.21939 0.2224 0.30261 0.0
O132 O 0.25125 0.26346 0.31428 0.0
C133 C 0.25037 0.18798 0.2893 0.0
C134 C 0.2776 0.2371 0.23665 0.0
C135 C 0.27764 0.27993 0.30626 0.0
O136 O 0.26581 0.21003 0.27691 0.0
O137 O 0.22881 0.18717 0.29989 0.0
O138 O 0.24908 0.27633 0.25724 0.0
O139 O 0.22159 0.23456 0.27523 0.0
Co140 Co 0.74899 0.01613 0.26908 0.0
O141 O 0.77532 0.02711 0.24633 0.0
O142 O 0.73947 0.04073 0.25117 0.0
C143 C 0.73503 0.96486 0.27167 0.0
O144 O 0.71682 0.00879 0.28979 0.0
Co145 Co 0.7658 0.99523 0.30832 0.0
O146 O 0.72278 0.98387 0.31578 0.0
C147 C 0.80113 0.06172 0.29657 0.0
C148 C 0.76166 0.04248 0.2403 0.0
C149 C 0.70749 0.99425 0.30624 0.0
O150 O 0.7812 0.05604 0.28263 0.0
O151 O 0.80058 0.0401 0.30743 0.0
O152 O 0.72097 0.97349 0.25891 0.0
O153 O 0.75923 0.98757 0.28021 0.0
Co154 Co 0.96987 0.72288 0.2737 0.0
O155 O 0.95845 0.73546 0.24934 0.0
O156 O 0.9446 0.68643 0.25748 0.0
C157 C 0.02102 0.75939 0.2758 0.0
O158 O 0.97743 0.70005 0.29615 0.0
Co159 Co 0.99197 0.76511 0.31126 0.0
O160 O 0.00134 0.73285 0.32174 0.0
C161 C 0.9256 0.73236 0.30021 0.0
C162 C 0.94277 0.70549 0.24498 0.0
C163 C 0.99114 0.70632 0.31308 0.0
O164 O 0.93091 0.71783 0.28632 0.0
O165 O 0.94715 0.75369 0.31102 0.0
O166 O 0.01149 0.73509 0.26409 0.0
O167 O 0.99919 0.76296 0.2834 0.0
Co168 Co 0.72067 0.7494 0.73236 0.0
O169 O 0.74172 0.72528 0.73483 0.0
O170 O 0.75038 0.76019 0.71152 0.0
C171 C 0.72259 0.76431 0.76403 0.0
O172 O 0.7047 0.77923 0.72516 0.0
Co173 Co 0.65746 0.7282 0.75288 0.0
O174 O 0.66474 0.7702 0.74461 0.0
C175 C 0.65917 0.69387 0.71782 0.0
C176 C 0.75606 0.73893 0.71875 0.0
C177 C 0.68476 0.78648 0.73168 0.0
O178 O 0.68783 0.71484 0.71523 0.0
O179 O 0.64367 0.6937 0.73278 0.0
O180 O 0.74685 0.77956 0.75295 0.0
O181 O 0.70038 0.73861 0.75645 0.0
Co182 Co 0.23913 0.968 0.72529 0.0
O183 O 0.21172 0.95722 0.74752 0.0
O184 O 0.24783 0.94363 0.74385 0.0
C185 C 0.25298 0.01921 0.72234 0.0
O186 O 0.27248 0.97516 0.70548 0.0
Co187 Co 0.22544 0.9892 0.68512 0.0
O188 O 0.26913 0.00123 0.67926 0.0
C189 C 0.18896 0.92258 0.69677 0.0
C190 C 0.22518 0.94199 0.75417 0.0
C191 C 0.28341 0.99035 0.68939 0.0
O192 O 0.20735 0.928 0.7116 0.0
O193 O 0.19101 0.94421 0.68527 0.0
O194 O 0.26662 0.01075 0.73551 0.0
O195 O 0.22942 0.99642 0.71334 0.0
Co196 Co 0.03067 0.27767 0.72643 0.0
O197 O 0.98617 0.25541 0.73014 0.0
O198 O 0.00991 0.24867 0.70478 0.0
C199 C 0.04615 0.27377 0.75711 0.0
O200 O 0.07549 0.29512 0.71768 0.0
Co201 Co 0.07418 0.34058 0.74844 0.0
O202 O 0.10716 0.33164 0.73981 0.0
C203 C 0.03559 0.34047 0.71523 0.0
C204 C 0.98392 0.2419 0.71323 0.0
C205 C 0.10267 0.31327 0.72529 0.0
O206 O 0.02689 0.31137 0.71176 0.0
O207 O 0.05321 0.35612 0.72979 0.0
O208 O 0.03669 0.25026 0.74476 0.0
O209 O 0.04223 0.29671 0.75136 0.0
Co210 Co 0.92636 0.57795 0.59944 0.0
O211 O 0.91311 0.55187 0.57593 0.0
O212 O 0.96125 0.59012 0.58244 0.0
C213 C 0.88836 0.59031 0.60203 0.0
O214 O 0.94908 0.61017 0.62105 0.0
Co215 Co 0.88777 0.5571 0.63773 0.0
O216 O 0.91938 0.59956 0.64786 0.0
C217 C 0.92031 0.52431 0.625 0.0
C218 C 0.9422 0.56738 0.57081 0.0
C219 C 0.94405 0.61719 0.63833 0.0
O220 O 0.9355 0.54648 0.61264 0.0
O221 O 0.8976 0.52219 0.63494 0.0
O222 O 0.9107 0.60508 0.58952 0.0
O223 O 0.88717 0.56569 0.60987 0.0
Co224 Co 0.41684 0.35226 0.6032 0.0
O225 O 0.44188 0.36134 0.57994 0.0
O226 O 0.40641 0.37551 0.58476 0.0
C227 C 0.4028 0.30125 0.6074 0.0
O228 O 0.38583 0.34669 0.62432 0.0
Co229 Co 0.43608 0.33484 0.64285 0.0
O230 O 0.39468 0.32667 0.65181 0.0
C231 C 0.47123 0.39976 0.62844 0.0
C232 C 0.42804 0.37642 0.57369 0.0
C233 C 0.37837 0.33524 0.64172 0.0
O234 O 0.44993 0.39315 0.61531 0.0
O235 O 0.47147 0.37899 0.63975 0.0
O236 O 0.38817 0.30893 0.59446 0.0
O237 O 0.42756 0.32453 0.61507 0.0
Co238 Co 0.63762 0.06062 0.60748 0.0
O239 O 0.62591 0.07541 0.58427 0.0
O240 O 0.6123 0.02567 0.59008 0.0
C241 C 0.68875 0.09717 0.60965 0.0
O242 O 0.64539 0.03603 0.62866 0.0
Co243 Co 0.66037 0.10005 0.64616 0.0
O244 O 0.6717 0.06795 0.65415 0.0
C245 C 0.59396 0.06888 0.63511 0.0
C246 C 0.61041 0.04597 0.57869 0.0
C247 C 0.66058 0.04164 0.64504 0.0
O248 O 0.5989 0.05441 0.62101 0.0
O249 O 0.61585 0.08994 0.64589 0.0
O250 O 0.67912 0.07378 0.59721 0.0
O251 O 0.66699 0.09988 0.6181 0.0
C252 C 0.45669 0.07836 0.02228 0.0
C253 C 0.44113 0.06316 0.03956 0.0
C254 C 0.46994 0.06499 0.01027 0.0
C255 C 0.45993 0.98792 0.99694 0.0
H256 H 0.54312 0.03435 0.97583 0.0
C257 C 0.51775 0.92454 0.96019 0.0
C258 C 0.53916 0.93937 0.94504 0.0
C259 C 0.50507 0.94035 0.97021 0.0
C260 C 0.51961 0.02111 0.98127 0.0
H261 H 0.42812 0.02245 0.05804 0.0
H262 H 0.45094 -0.00092 0.03702 0.0
H263 H 0.52386 0.06143 0.99676 0.0
H264 H 0.56309 0.98217 0.92798 0.0
H265 H 0.54014 0.00956 0.94507 0.0
H266 H 0.45517 0.94779 0.98131 0.0
C267 C 0.45283 0.02129 0.03274 0.0
C268 C 0.50868 0.03665 0.99337 0.0
C269 C 0.43999 0.03484 0.04487 0.0
C270 C 0.54664 0.97005 0.93959 0.0
C271 C 0.53373 0.98588 0.94955 0.0
C272 C 0.47065 0.97251 0.98467 0.0
C273 C 0.46748 0.03591 0.01514 0.0
C274 C 0.4789 0.02007 1.0016 0.0
C275 C 0.51313 0.97141 0.96524 0.0
C276 C 0.50085 0.9887 0.97692 0.0
H277 H 0.45791 0.10017 0.01775 0.0
H278 H 0.48103 0.07676 0.99677 0.0
H279 H 0.43662 0.97466 0.00272 0.0
H280 H 0.51146 0.90093 0.96481 0.0
H281 H 0.48974 0.92847 0.98235 0.0
C282 C 0.91707 0.38962 0.03207 0.0
C283 C 0.93423 0.38341 0.04617 0.0
C284 C 0.93118 0.41738 0.02119 0.0
C285 C 0.00063 0.49726 0.01881 0.0
H286 H 0.9807 0.48805 0.96296 0.0
C287 C 0.07098 0.59754 0.9647 0.0
C288 C 0.05407 0.60426 0.9507 0.0
C289 C 0.05636 0.57006 0.97583 0.0
C290 C 0.98629 0.49109 0.97854 0.0
H291 H 0.97937 0.40197 0.06047 0.0
H292 H 0.00419 0.45057 0.04137 0.0
H293 H 0.95497 0.44234 0.98432 0.0
H294 H 0.00876 0.58681 0.93683 0.0
H295 H 0.9831 0.53859 0.95628 0.0
H296 H 0.03208 0.54599 0.01299 0.0
C297 C 0.97969 0.43405 0.03884 0.0
C298 C 0.9715 0.4649 0.99082 0.0
C299 C 0.96549 0.40623 0.04982 0.0
C300 C 0.02246 0.58218 0.94742 0.0
C301 C 0.00777 0.55459 0.95859 0.0
C302 C 0.01546 0.52343 0.00653 0.0
C303 C 0.96287 0.43958 0.02406 0.0
C304 C 0.97846 0.46766 0.01112 0.0
C305 C 0.02443 0.54859 0.97324 0.0
C306 C 0.00853 0.52065 0.98623 0.0
H307 H 0.89288 0.37254 0.02901 0.0
H308 H 0.91734 0.42119 0.01027 0.0
H309 H 0.00625 0.50032 0.03439 0.0
H310 H 0.09544 0.61399 0.9675 0.0
H311 H 0.07003 0.56584 0.98667 0.0
C312 C 0.41187 0.43684 0.94266 0.0
C313 C 0.38997 0.44559 0.94819 0.0
C314 C 0.44145 0.45093 0.95171 0.0
C315 C 0.49534 0.51928 0.98418 0.0
H316 H 0.53219 0.46733 0.99596 0.0
C317 C 0.5939 0.55612 0.04177 0.0
C318 C 0.62055 0.55558 0.03549 0.0
C319 C 0.56648 0.5419 0.03041 0.0
C320 C 0.52224 0.48215 0.99265 0.0
H321 H 0.38237 0.47664 0.96724 0.0
H322 H 0.43292 0.50022 0.98333 0.0
H323 H 0.48368 0.44516 0.97677 0.0
H324 H 0.6389 0.53857 0.01273 0.0
H325 H 0.59053 0.51286 0.99313 0.0
H326 H 0.53333 0.55582 1.00072 0.0
C327 C 0.4279 0.48308 0.97173 0.0
C328 C 0.49451 0.46955 0.98153 0.0
C329 C 0.39862 0.4693 0.96256 0.0
C330 C 0.61875 0.53935 0.01798 0.0
C331 C 0.59108 0.52462 0.00677 0.0
C332 C 0.52269 0.53164 0.99554 0.0
C333 C 0.44974 0.47396 0.96662 0.0
C334 C 0.48044 0.48785 0.9773 0.0
C335 C 0.56488 0.52635 0.01266 0.0
C336 C 0.5363 0.51316 1.00005 0.0
H337 H 0.40596 0.41864 0.93163 0.0
H338 H 0.45772 0.4436 0.94709 0.0
H339 H 0.48587 0.5345 0.98085 0.0
H340 H 0.5945 0.56852 0.05512 0.0
H341 H 0.54655 0.54333 0.03541 0.0
C342 C 0.12215 0.40981 0.35657 0.0
C343 C 0.10619 0.39404 0.37362 0.0
C344 C 0.13608 0.39707 0.34462 0.0
C345 C 0.12739 0.32106 0.3304 0.0
H346 H 0.21156 0.36888 0.31097 0.0
C347 C 0.18633 0.25996 0.29207 0.0
C348 C 0.20867 0.276 0.27757 0.0
C349 C 0.17341 0.27512 0.30255 0.0
C350 C 0.1878 0.35526 0.31592 0.0
H351 H 0.09303 0.35293 0.39173 0.0
H352 H 0.11695 0.33056 0.37075 0.0
H353 H 0.1912 0.39462 0.33214 0.0
H354 H 0.23397 0.32029 0.26214 0.0
H355 H 0.21049 0.34652 0.27992 0.0
H356 H 0.12338 0.28195 0.31395 0.0
C357 C 0.11872 0.35279 0.36666 0.0
C358 C 0.17624 0.37003 0.32818 0.0
C359 C 0.10524 0.36575 0.37875 0.0
C360 C 0.21684 0.30726 0.27324 0.0
C361 C 0.20361 0.32241 0.28362 0.0
C362 C 0.13871 0.30644 0.31794 0.0
C363 C 0.13387 0.36804 0.34931 0.0
C364 C 0.14607 0.35294 0.33578 0.0
C365 C 0.18205 0.30669 0.29866 0.0
C366 C 0.16927 0.32313 0.31075 0.0
H367 H 0.12324 0.43161 0.35219 0.0
H368 H 0.14753 0.4093 0.33132 0.0
H369 H 0.10381 0.30745 0.33571 0.0
H370 H 0.17948 0.23587 0.29583 0.0
H371 H 0.15735 0.26224 0.31418 0.0
C372 C 0.58239 0.72032 0.36293 0.0
C373 C 0.59952 0.71374 0.37686 0.0
C374 C 0.5968 0.74783 0.35181 0.0
C375 C 0.67356 0.80527 0.33296 0.0
H376 H 0.63338 0.85361 0.31963 0.0
C377 C 0.73692 0.92501 0.2935 0.0
C378 C 0.72006 0.93283 0.28012 0.0
C379 C 0.72207 0.89719 0.30427 0.0
C380 C 0.64471 0.84006 0.32295 0.0
H381 H 0.64496 0.73137 0.39056 0.0
H382 H 0.67021 0.77974 0.37118 0.0
H383 H 0.60801 0.8091 0.34197 0.0
H384 H 0.67457 0.91692 0.26692 0.0
H385 H 0.64855 0.86781 0.28554 0.0
H386 H 0.71019 0.83608 0.31389 0.0
C387 C 0.64564 0.76338 0.36876 0.0
C388 C 0.63024 0.81467 0.33585 0.0
C389 C 0.63113 0.73589 0.38001 0.0
C390 C 0.68821 0.91147 0.27705 0.0
C391 C 0.67327 0.88354 0.2879 0.0
C392 C 0.68799 0.8306 0.32001 0.0
C393 C 0.62875 0.76935 0.35426 0.0
C394 C 0.64454 0.79702 0.34106 0.0
C395 C 0.68992 0.87642 0.30195 0.0
C396 C 0.67379 0.84839 0.31488 0.0
H397 H 0.55799 0.70365 0.36014 0.0
H398 H 0.58316 0.75154 0.34068 0.0
H399 H 0.68492 0.79177 0.33635 0.0
H400 H 0.7615 0.94104 0.29623 0.0
H401 H 0.7356 0.89268 0.31506 0.0
C402 C 0.0756 0.76823 0.2787 0.0
C403 C 0.05323 0.77649 0.28404 0.0
C404 C 0.10463 0.78189 0.28844 0.0
C405 C 0.14128 0.81817 0.33598 0.0
H406 H 0.21969 0.85098 0.30895 0.0
C407 C 0.25912 0.89308 0.37648 0.0
C408 C 0.28525 0.8915 0.37028 0.0
C409 C 0.23085 0.87721 0.36604 0.0
C410 C 0.19801 0.84144 0.31681 0.0
H411 H 0.04445 0.80659 0.30324 0.0
H412 H 0.09469 0.83002 0.32021 0.0
H413 H 0.17098 0.82747 0.28998 0.0
H414 H 0.30183 0.8711 0.34855 0.0
H415 H 0.25229 0.84253 0.3307 0.0
H416 H 0.16788 0.8315 0.36279 0.0
C417 C 0.08973 0.81279 0.30866 0.0
C418 C 0.17009 0.82808 0.30587 0.0
C419 C 0.06097 0.79946 0.29883 0.0
C420 C 0.28216 0.87286 0.35371 0.0
C421 C 0.25377 0.85671 0.34335 0.0
C422 C 0.16909 0.83116 0.34691 0.0
C423 C 0.11171 0.8038 0.30384 0.0
C424 C 0.14143 0.8167 0.31533 0.0
C425 C 0.2278 0.85903 0.34918 0.0
C426 C 0.19796 0.84341 0.3375 0.0
H427 H 0.07036 0.75056 0.26741 0.0
H428 H 0.12108 0.77446 0.2844 0.0
H429 H 0.11952 0.80906 0.34373 0.0
H430 H 0.26075 0.90748 0.38906 0.0
H431 H 0.21168 0.88009 0.37088 0.0
C432 C 0.87959 0.63648 0.60621 0.0
C433 C 0.87212 0.6056 0.61119 0.0
C434 C 0.86774 0.65244 0.61712 0.0
C435 C 0.84016 0.65415 0.6667 0.0
H436 H 0.80429 0.70135 0.64352 0.0
C437 C 0.77401 0.69988 0.71326 0.0
C438 C 0.77459 0.72785 0.70779 0.0
C439 C 0.78797 0.68701 0.70152 0.0
C440 C 0.81475 0.68878 0.65029 0.0
H441 H 0.845 0.56674 0.63085 0.0
H442 H 0.82468 0.59458 0.64984 0.0
H443 H 0.82358 0.67476 0.62225 0.0
H444 H 0.79141 0.76493 0.68605 0.0
H445 H 0.81672 0.74313 0.66592 0.0
H446 H 0.83199 0.6684 0.69469 0.0
C447 C 0.83996 0.60661 0.63769 0.0
C448 C 0.82565 0.6734 0.63805 0.0
C449 C 0.85148 0.59059 0.6267 0.0
C450 C 0.79049 0.7433 0.69067 0.0
C451 C 0.80473 0.73058 0.679 0.0
C452 C 0.82963 0.66979 0.67893 0.0
C453 C 0.84845 0.63793 0.63331 0.0
C454 C 0.83805 0.65552 0.64613 0.0
C455 C 0.80319 0.70192 0.68406 0.0
C456 C 0.81634 0.68699 0.67094 0.0
H457 H 0.89551 0.64876 0.59439 0.0
H458 H 0.8747 0.67657 0.61339 0.0
H459 H 0.85016 0.64106 0.67337 0.0
H460 H 0.7617 0.68719 0.72625 0.0
H461 H 0.78578 0.6647 0.70583 0.0
C462 C 0.35631 0.24832 0.61426 0.0
C463 C 0.38821 0.26992 0.61679 0.0
C464 C 0.34184 0.22103 0.62571 0.0
C465 C 0.35189 0.19005 0.67323 0.0
H466 H 0.28722 0.10974 0.65249 0.0
C467 C 0.29975 0.07257 0.71676 0.0
C468 C 0.26781 0.0513 0.71401 0.0
C469 C 0.3145 0.10036 0.70576 0.0
C470 C 0.30498 0.13211 0.65858 0.0
H471 H 0.43027 0.27913 0.63253 0.0
H472 H 0.40527 0.23139 0.65211 0.0
H473 H 0.31296 0.15473 0.63061 0.0
H474 H 0.22591 0.04332 0.69861 0.0
H475 H 0.25138 0.09188 0.67984 0.0
H476 H 0.34393 0.16732 0.7012 0.0
C477 C 0.3912 0.23578 0.64168 0.0
C478 C 0.31976 0.1579 0.64601 0.0
C479 C 0.40559 0.263 0.63031 0.0
C480 C 0.25062 0.05917 0.70095 0.0
C481 C 0.26527 0.08685 0.69005 0.0
C482 C 0.33712 0.16423 0.6858 0.0
C483 C 0.35902 0.21481 0.63987 0.0
C484 C 0.3434 0.1872 0.65317 0.0
C485 C 0.29753 0.10734 0.69187 0.0
C486 C 0.31341 0.13497 0.67864 0.0
H487 H 0.34225 0.25315 0.60409 0.0
H488 H 0.31697 0.20547 0.62401 0.0
H489 H 0.36964 0.21243 0.67932 0.0
H490 H 0.31364 0.06698 0.72659 0.0
H491 H 0.33942 0.11562 0.70748 0.0
C492 C 0.74378 0.10704 0.61092 0.0
C493 C 0.72125 0.11433 0.6174 0.0
C494 C 0.77335 0.121 0.61995 0.0
C495 C 0.82619 0.18709 0.65402 0.0
H496 H 0.86478 0.13593 0.66292 0.0
C497 C 0.92703 0.22363 0.70976 0.0
C498 C 0.95343 0.22308 0.70296 0.0
C499 C 0.89923 0.20947 0.69879 0.0
C500 C 0.85436 0.15055 0.66042 0.0
H501 H 0.71248 0.14263 0.63814 0.0
H502 H 0.76319 0.1661 0.65411 0.0
H503 H 0.816 0.11416 0.64406 0.0
H504 H 0.97091 0.2061 0.67964 0.0
H505 H 0.92197 0.18067 0.66067 0.0
H506 H 0.86407 0.22308 0.67091 0.0
C507 C 0.75857 0.15017 0.64183 0.0
C508 C 0.82647 0.13817 0.6495 0.0
C509 C 0.72924 0.13647 0.63272 0.0
C510 C 0.95097 0.20688 0.68531 0.0
C511 C 0.92296 0.1923 0.67445 0.0
C512 C 0.85376 0.19925 0.66513 0.0
C513 C 0.78103 0.14246 0.63574 0.0
C514 C 0.8118 0.15617 0.6463 0.0
C515 C 0.897 0.19406 0.68086 0.0
C516 C 0.86804 0.18106 0.66861 0.0
H517 H 0.73837 0.09006 0.59915 0.0
H518 H 0.79012 0.11482 0.61461 0.0
H519 H 0.81617 0.20205 0.65151 0.0
H520 H 0.92812 0.23599 0.72324 0.0
H521 H 0.8795 0.21089 0.70423 0.0
C522 C 0.35989 0.09942 0.12507 0.0
C523 C 0.38674 0.11681 0.11385 0.0
C524 C 0.35091 0.11432 0.13889 0.0
C525 C 0.36124 0.19294 0.15145 0.0
H526 H 0.31417 0.14805 0.19725 0.0
C527 C 0.32066 0.24608 0.21393 0.0
C528 C 0.28956 0.22732 0.21978 0.0
C529 C 0.33361 0.23465 0.20025 0.0
C530 C 0.3271 0.16078 0.18444 0.0
H531 H 0.42617 0.16342 0.10909 0.0
H532 H 0.41113 0.18949 0.13388 0.0
H533 H 0.33756 0.12474 0.17683 0.0
H534 H 0.2474 0.18231 0.21537 0.0
H535 H 0.27021 0.16216 0.19172 0.0
H536 H 0.35126 0.22941 0.15964 0.0
C537 C 0.3965 0.16432 0.13158 0.0
C538 C 0.3405 0.14742 0.17267 0.0
C539 C 0.4054 0.14934 0.11755 0.0
C540 C 0.27134 0.19741 0.21107 0.0
C541 C 0.28446 0.18576 0.19768 0.0
C542 C 0.34823 0.20656 0.16347 0.0
C543 C 0.36872 0.14708 0.14214 0.0
C544 C 0.35726 0.16298 0.15577 0.0
C545 C 0.31589 0.20401 0.19244 0.0
C546 C 0.33055 0.19032 0.17987 0.0
H547 H 0.34494 0.07432 0.12258 0.0
H548 H 0.32916 0.10017 0.1464 0.0
H549 H 0.37358 0.20553 0.13846 0.0
H550 H 0.33529 0.26922 0.22042 0.0
H551 H 0.3579 0.24918 0.19649 0.0
C552 C 0.85603 0.24989 0.11482 0.0
C553 C 0.88358 0.2555 0.10564 0.0
C554 C 0.84293 0.22732 0.12967 0.0
C555 C 0.84134 0.15533 0.1477 0.0
H556 H 0.80398 0.1683 0.19394 0.0
C557 C 0.79996 0.06902 0.21328 0.0
C558 C 0.77303 0.06375 0.22312 0.0
C559 C 0.81268 0.09176 0.19852 0.0
C560 C 0.81392 0.16409 0.18098 0.0
H561 H 0.91955 0.24257 0.10536 0.0
H562 H 0.89694 0.20357 0.13134 0.0
H563 H 0.82849 0.2103 0.16984 0.0
H564 H 0.73772 0.07749 0.2247 0.0
H565 H 0.75951 0.11664 0.19873 0.0
H566 H 0.82669 0.10912 0.15875 0.0
C567 C 0.88516 0.21622 0.12687 0.0
C568 C 0.82806 0.18824 0.16718 0.0
C569 C 0.89827 0.23881 0.11209 0.0
C570 C 0.75854 0.08101 0.21745 0.0
C571 C 0.77122 0.10369 0.20267 0.0
C572 C 0.82714 0.13116 0.16146 0.0
C573 C 0.85704 0.20979 0.13561 0.0
C574 C 0.84204 0.18421 0.1504 0.0
C575 C 0.79874 0.10973 0.19322 0.0
C576 C 0.81329 0.13523 0.17831 0.0
H577 H 0.84405 0.26224 0.11014 0.0
H578 H 0.82115 0.22284 0.13599 0.0
H579 H 0.85137 0.15119 0.13475 0.0
H580 H 0.81181 0.05627 0.21738 0.0
H581 H 0.83405 0.09595 0.19172 0.0
C582 C 0.92186 0.71309 0.21271 0.0
C583 C 0.92121 0.69307 0.22776 0.0
C584 C 0.89968 0.70127 0.19735 0.0
C585 C 0.81962 0.64063 0.18716 0.0
H586 H 0.8405 0.65458 0.1319 0.0
C587 C 0.73266 0.62527 0.12447 0.0
C588 C 0.73178 0.60748 0.10799 0.0
C589 C 0.75512 0.63298 0.13932 0.0
C590 C 0.83439 0.65038 0.14728 0.0
H591 H 0.89694 0.64491 0.23832 0.0
H592 H 0.858 0.62465 0.21185 0.0
H593 H 0.88224 0.6746 0.15698 0.0
H594 H 0.75376 0.58389 0.09404 0.0
H595 H 0.79371 0.59812 0.11989 0.0
H596 H 0.77183 0.6173 0.17755 0.0
C597 C 0.87578 0.64935 0.21185 0.0
C598 C 0.85822 0.66203 0.16159 0.0
C599 C 0.89822 0.66097 0.22694 0.0
C600 C 0.75355 0.59713 0.10677 0.0
C601 C 0.77658 0.60555 0.12142 0.0
C602 C 0.79584 0.62959 0.1729 0.0
C603 C 0.87609 0.66939 0.19699 0.0
C604 C 0.85105 0.65719 0.18168 0.0
C605 C 0.77771 0.62378 0.13775 0.0
C606 C 0.80298 0.63431 0.15282 0.0
H607 H 0.93923 0.73792 0.21295 0.0
H608 H 0.90035 0.71726 0.18611 0.0
H609 H 0.81344 0.63673 0.20254 0.0
H610 H 0.71634 0.63382 0.12565 0.0
H611 H 0.75559 0.64722 0.15169 0.0
C612 C 0.64859 0.90621 0.88155 0.0
C613 C 0.61821 0.88712 0.88852 0.0
C614 C 0.6611 0.89445 0.86779 0.0
C615 C 0.65507 0.82017 0.85229 0.0
H616 H 0.70085 0.86583 0.80634 0.0
C617 C 0.68927 0.76107 0.79205 0.0
C618 C 0.71637 0.77904 0.78115 0.0
C619 C 0.67976 0.77531 0.80602 0.0
C620 C 0.68867 0.85299 0.8193 0.0
H621 H 0.57679 0.84105 0.88605 0.0
H622 H 0.59878 0.82038 0.86212 0.0
H623 H 0.67809 0.88887 0.8278 0.0
H624 H 0.75562 0.82599 0.77706 0.0
H625 H 0.73954 0.85092 0.80204 0.0
H626 H 0.66604 0.78463 0.84425 0.0
C627 C 0.61288 0.84447 0.86734 0.0
C628 C 0.67541 0.86612 0.83151 0.0
C629 C 0.60019 0.85639 0.88088 0.0
C630 C 0.73468 0.81147 0.78527 0.0
C631 C 0.7252 0.8258 0.7994 0.0
C632 C 0.66863 0.80724 0.84028 0.0
C633 C 0.64367 0.86319 0.86093 0.0
C634 C 0.6581 0.84963 0.84797 0.0
C635 C 0.69722 0.80798 0.80967 0.0
C636 C 0.68523 0.82321 0.82343 0.0
H637 H 0.66308 0.92998 0.88717 0.0
H638 H 0.68491 0.90939 0.86318 0.0
H639 H 0.64245 0.80721 0.86513 0.0
H640 H 0.67459 0.73602 0.78924 0.0
H641 H 0.6579 0.76075 0.81333 0.0
C642 C 0.13129 0.73595 0.88011 0.0
C643 C 0.10484 0.73138 0.89027 0.0
C644 C 0.14376 0.75826 0.8651 0.0
C645 C 0.12614 0.80678 0.83109 0.0
H646 H 0.21585 0.86092 0.83112 0.0
C647 C 0.18636 0.91625 0.78109 0.0
C648 C 0.21332 0.92106 0.77148 0.0
C649 C 0.17338 0.89389 0.79606 0.0
C650 C 0.19079 0.84584 0.83076 0.0
H651 H 0.07013 0.74589 0.89216 0.0
H652 H 0.09185 0.78472 0.86601 0.0
H653 H 0.19194 0.81892 0.85523 0.0
H654 H 0.24823 0.90673 0.77042 0.0
H655 H 0.2256 0.86777 0.79635 0.0
H656 H 0.125 0.83365 0.80658 0.0
C657 C 0.10289 0.77099 0.86955 0.0
C658 C 0.17707 0.82168 0.84457 0.0
C659 C 0.09047 0.74875 0.88459 0.0
C660 C 0.22751 0.90371 0.77756 0.0
C661 C 0.21457 0.88141 0.79251 0.0
C662 C 0.13987 0.83093 0.81725 0.0
C663 C 0.13004 0.77645 0.85986 0.0
C664 C 0.14457 0.80179 0.84489 0.0
C665 C 0.18709 0.87587 0.80177 0.0
C666 C 0.17239 0.85075 0.81689 0.0
H667 H 0.14292 0.72296 0.88413 0.0
H668 H 0.16439 0.76149 0.85772 0.0
H669 H 0.10107 0.7917 0.83078 0.0
H670 H 0.17484 0.92922 0.77675 0.0
H671 H 0.15247 0.89059 0.80308 0.0
C672 C 0.23217 0.33084 0.89358 0.0
C673 C 0.25613 0.36256 0.89385 0.0
C674 C 0.20963 0.31932 0.87855 0.0
C675 C 0.193 0.33057 0.82781 0.0
H676 H 0.10668 0.29026 0.84375 0.0
C677 C 0.08763 0.26634 0.77345 0.0
C678 C 0.06696 0.27813 0.77403 0.0
C679 C 0.11057 0.27473 0.78815 0.0
C680 C 0.13067 0.30132 0.83911 0.0
H681 H 0.27576 0.4068 0.87818 0.0
H682 H 0.23669 0.38627 0.85145 0.0
H683 H 0.14821 0.30926 0.8688 0.0
H684 H 0.05338 0.30706 0.79061 0.0
H685 H 0.09249 0.3205 0.81675 0.0
H686 H 0.17534 0.3223 0.79809 0.0
C687 C 0.23534 0.37052 0.86307 0.0
C688 C 0.15439 0.3121 0.8534 0.0
C689 C 0.25762 0.38226 0.87837 0.0
C690 C 0.06886 0.29743 0.78992 0.0
C691 C 0.09123 0.30515 0.80483 0.0
C692 C 0.16921 0.31917 0.81349 0.0
C693 C 0.21082 0.33907 0.86322 0.0
C694 C 0.1858 0.32708 0.84791 0.0
C695 C 0.1127 0.2944 0.8039 0.0
C696 C 0.13783 0.3047 0.81902 0.0
H697 H 0.23023 0.31504 0.90533 0.0
H698 H 0.1911 0.29494 0.87895 0.0
H699 H 0.21702 0.34192 0.8232 0.0
H700 H 0.08701 0.25186 0.76119 0.0
H701 H 0.12682 0.26609 0.78713 0.0
C702 C 0.07048 0.48206 0.45024 0.0
C703 C 0.05315 0.44916 0.44765 0.0
C704 C 0.06157 0.49705 0.46427 0.0
C705 C 0.00904 0.48037 0.50735 0.0
H706 H 0.01245 0.55853 0.49249 0.0
C707 C 0.93698 0.5262 0.54669 0.0
C708 C 0.95412 0.55716 0.55412 0.0
C709 C 0.95036 0.51484 0.53329 0.0
C710 C 0.0115 0.53678 0.49684 0.0
H711 H 0.01384 0.40613 0.45831 0.0
H712 H 0.99808 0.4319 0.48222 0.0
H713 H 0.03538 0.5355 0.4711 0.0
H714 H 0.99807 0.60101 0.5525 0.0
H715 H 0.02104 0.58136 0.52859 0.0
H716 H 0.98413 0.48111 0.53269 0.0
C717 C 0.01879 0.44639 0.47381 0.0
C718 C 0.02486 0.52367 0.48469 0.0
C719 C 0.02776 0.43152 0.45996 0.0
C720 C 0.98427 0.57704 0.54703 0.0
C721 C 0.99744 0.56583 0.53335 0.0
C722 C 0.99527 0.49317 0.51927 0.0
C723 C 0.03516 0.47942 0.47597 0.0
C724 C 0.0235 0.49505 0.48967 0.0
C725 C 0.98093 0.53436 0.52677 0.0
C726 C 0.99607 0.52132 0.51406 0.0
H727 H 0.09006 0.49634 0.4409 0.0
H728 H 0.07507 0.52248 0.4657 0.0
H729 H 0.00815 0.45878 0.512 0.0
H730 H 0.91379 0.51025 0.55194 0.0
H731 H 0.93701 0.49055 0.5283 0.0
C732 C 0.52084 0.58179 0.44708 0.0
C733 C 0.54809 0.58704 0.43765 0.0
C734 C 0.50795 0.55943 0.46206 0.0
C735 C 0.50632 0.48739 0.48012 0.0
H736 H 0.46966 0.5009 0.52653 0.0
C737 C 0.46566 0.40192 0.54619 0.0
C738 C 0.43889 0.3969 0.55614 0.0
C739 C 0.47817 0.42434 0.53124 0.0
C740 C 0.47941 0.49655 0.51352 0.0
H741 H 0.58383 0.5738 0.43711 0.0
H742 H 0.56163 0.53522 0.46333 0.0
H743 H 0.49399 0.5427 0.50228 0.0
H744 H 0.40359 0.41066 0.55767 0.0
H745 H 0.42501 0.44925 0.53138 0.0
H746 H 0.49169 0.44124 0.4913 0.0
C747 C 0.54988 0.54793 0.45894 0.0
C748 C 0.49344 0.52058 0.49964 0.0
C749 C 0.56276 0.57028 0.44401 0.0
C750 C 0.42429 0.41399 0.55033 0.0
C751 C 0.43675 0.43636 0.53537 0.0
C752 C 0.49225 0.46335 0.49397 0.0
C753 C 0.52199 0.54178 0.4679 0.0
C754 C 0.50715 0.51634 0.48279 0.0
C755 C 0.46418 0.44225 0.52587 0.0
C756 C 0.47864 0.46761 0.51088 0.0
H757 H 0.50888 0.59419 0.44246 0.0
H758 H 0.48636 0.55516 0.46855 0.0
H759 H 0.51613 0.48309 0.46713 0.0
H760 H 0.47759 0.3893 0.55039 0.0
H761 H 0.49945 0.42841 0.52438 0.0
C762 C 0.58186 0.05636 0.55165 0.0
C763 C 0.58934 0.03552 0.5612 0.0
C764 C 0.55964 0.04566 0.53637 0.0
C765 C 0.49329 0.97191 0.51538 0.0
H766 H 0.501 0.02694 0.47223 0.0
C767 C 0.40938 0.933 0.44679 0.0
C768 C 0.4001 0.95459 0.44072 0.0
C769 C 0.43205 0.94122 0.4617 0.0
C770 C 0.49841 0.01134 0.48426 0.0
H771 H 0.58005 0.98727 0.56178 0.0
H772 H 0.5421 0.96883 0.53478 0.0
H773 H 0.54247 0.04475 0.49691 0.0
H774 H 0.40635 0.00114 0.44618 0.0
H775 H 0.44571 0.01537 0.47191 0.0
H776 H 0.44925 0.93837 0.5024 0.0
C777 C 0.55273 0.99328 0.53938 0.0
C778 C 0.52217 0.02159 0.49847 0.0
C779 C 0.57475 0.00394 0.55477 0.0
C780 C 0.41312 0.98402 0.45035 0.0
C781 C 0.43585 0.99229 0.46504 0.0
C782 C 0.46962 0.96153 0.50101 0.0
C783 C 0.54452 0.01388 0.53013 0.0
C784 C 0.51982 0.00221 0.5144 0.0
C785 C 0.44602 0.97127 0.47066 0.0
C786 C 0.47173 0.98132 0.48544 0.0
H787 H 0.59246 0.08077 0.55636 0.0
H788 H 0.55369 0.0622 0.52987 0.0
H789 H 0.49034 0.95642 0.52753 0.0
H790 H 0.39985 0.91018 0.43964 0.0
H791 H 0.43943 0.92452 0.46572 0.0
C792 C 0.32624 -0.00086 0.02193 0.0
C793 C 0.31008 0.00399 0.03717 0.0
C794 C 0.31055 0.97376 0.00882 0.0
C795 C 0.23155 0.91437 0.99104 0.0
H796 H 0.26776 0.86081 0.98385 0.0
C797 C 0.18527 0.77563 0.98009 0.0
C798 C 0.16188 0.76757 0.96567 0.0
C799 C 0.20695 0.80714 0.98406 0.0
C800 C 0.25743 0.87562 0.98562 0.0
H801 H 0.26461 0.98653 0.05017 0.0
H802 H 0.23756 0.9424 0.02755 0.0
H803 H 0.29834 0.91219 0.99986 0.0
H804 H 0.144 0.78644 0.9434 0.0
H805 H 0.182 0.84158 0.95039 0.0
H806 H 0.19002 0.87711 0.97791 0.0
C807 C 0.26222 0.9583 0.02555 0.0
C808 C 0.27505 0.90518 0.9946 0.0
C809 C 0.27784 0.98347 0.03867 0.0
C810 C 0.16151 0.79179 0.95474 0.0
C811 C 0.18324 0.82339 0.95875 0.0
C812 C 0.21394 0.88484 0.98207 0.0
C813 C 0.27842 0.95295 0.01062 0.0
C814 C 0.2619 0.92437 0.99801 0.0
C815 C 0.20583 0.8314 0.97371 0.0
C816 C 0.22633 0.86471 0.97988 0.0
H817 H 0.35109 0.01453 0.02035 0.0
H818 H 0.3236 0.97026 0.99739 0.0
H819 H 0.22098 0.9289 0.9932 0.0
H820 H 0.18641 0.75764 0.98874 0.0
H821 H 0.22376 0.81249 0.99587 0.0
C822 C 0.00174 0.31996 0.02725 0.0
C823 C 0.98447 0.33072 0.01652 0.0
C824 C 0.03135 0.32701 0.02115 0.0
C825 C 0.08324 0.35308 0.97808 0.0
H826 H 0.1483 0.37755 0.01773 0.0
C827 C 0.20567 0.3722 0.96061 0.0
C828 C 0.23129 0.39749 0.97023 0.0
C829 C 0.17523 0.36378 0.96569 0.0
C830 C 0.13047 0.371 0.00645 0.0
H831 H 0.98491 0.35728 0.99083 0.0
H832 H 0.03659 0.36982 0.98037 0.0
H833 H 0.0959 0.3633 0.02765 0.0
H834 H 0.24478 0.43427 0.99237 0.0
H835 H 0.19188 0.41984 1.00097 0.0
H836 H 0.11808 0.36152 0.95684 0.0
C837 C 0.02705 0.35553 0.99335 0.0
C838 C 0.10031 0.36242 0.01217 0.0
C839 C 0.99744 0.34846 0.99943 0.0
C840 C 0.22569 0.41453 0.98473 0.0
C841 C 0.19531 0.40613 0.98977 0.0
C842 C 0.11344 0.36166 0.97236 0.0
C843 C 0.04443 0.34503 0.00419 0.0
C844 C 0.07634 0.35345 0.99806 0.0
C845 C 0.16971 0.38045 0.98048 0.0
C846 C 0.13745 0.37088 0.98648 0.0
H847 H 0.99248 0.30614 0.04044 0.0
H848 H 0.04393 0.31819 0.02968 0.0
H849 H 0.06524 0.34597 0.96686 0.0
H850 H 0.20906 0.35852 0.94938 0.0
H851 H 0.15603 0.34372 0.95835 0.0
C852 C 0.69996 0.72163 0.04182 0.0
C853 C 0.68985 0.68957 0.03839 0.0
C854 C 0.68926 0.73759 0.02996 0.0
C855 C 0.62363 0.72418 0.99813 0.0
H856 H 0.67867 0.81135 0.98378 0.0
C857 C 0.6215 0.83477 0.9558 0.0
C858 C 0.59574 0.83346 0.96519 0.0
C859 C 0.63234 0.81438 0.96132 0.0
C860 C 0.66305 0.78687 0.98738 0.0
H861 H 0.66071 0.64925 0.01957 0.0
H862 H 0.64206 0.67726 0.99886 0.0
H863 H 0.70011 0.78159 0.9997 0.0
H864 H 0.56028 0.80854 0.98708 0.0
H865 H 0.57932 0.77334 0.99673 0.0
H866 H 0.58652 0.72962 0.98604 0.0
C867 C 0.65818 0.68992 0.01082 0.0
C868 C 0.67529 0.76995 0.99671 0.0
C869 C 0.669 0.67394 0.02266 0.0
C870 C 0.58028 0.81038 0.97959 0.0
C871 C 0.59104 0.78997 0.98503 0.0
C872 C 0.61137 0.74114 0.98884 0.0
C873 C 0.66812 0.72188 0.0144 0.0
C874 C 0.65563 0.73865 0.00258 0.0
C875 C 0.61754 0.79215 0.97624 0.0
C876 C 0.63087 0.77287 0.98375 0.0
H877 H 0.71601 0.73445 0.05379 0.0
H878 H 0.69698 0.76209 0.03329 0.0
H879 H 0.60786 0.70014 0.00255 0.0
H880 H 0.63385 0.8521 0.94455 0.0
H881 H 0.65261 0.81635 0.95412 0.0
C882 C 0.64112 0.98591 1.00141 0.0
C883 C 0.63901 0.97956 0.9811 0.0
C884 C 0.66657 0.01321 0.00926 0.0
C885 C 0.74691 0.07543 0.99665 0.0
H886 H 0.73473 0.12486 0.03654 0.0
C887 C 0.82726 0.20826 0.00794 0.0
C888 C 0.83797 0.21918 0.02715 0.0
C889 C 0.80483 0.17682 0.00453 0.0
C890 C 0.73848 0.11099 0.02561 0.0
H891 H 0.66137 0.99735 0.95306 0.0
H892 H 0.70484 0.04502 0.96655 0.0
H893 H 0.69106 0.07367 0.02638 0.0
H894 H 0.83364 0.2059 0.05788 0.0
H895 H 0.79345 0.15077 0.05186 0.0
H896 H 0.79386 0.11363 0.99514 0.0
C897 C 0.6876 0.02856 0.97659 0.0
C898 C 0.71355 0.08169 0.01982 0.0
C899 C 0.66246 0.00128 0.96881 0.0
C900 C 0.82588 0.19802 0.04291 0.0
C901 C 0.80289 0.16663 0.03951 0.0
C902 C 0.7716 0.10483 0.00223 0.0
C903 C 0.69021 0.03473 0.99692 0.0
C904 C 0.71731 0.06396 0.00489 0.0
C905 C 0.79226 0.15585 0.02029 0.0
C906 C 0.76739 0.12312 0.01643 0.0
H907 H 0.62344 0.96955 0.01126 0.0
H908 H 0.66795 0.01719 0.025 0.0
H909 H 0.75086 0.062 0.98552 0.0
H910 H 0.83626 0.22401 0.99552 0.0
H911 H 0.79676 0.16903 0.98959 0.0
C912 C 0.79674 0.6397 0.03186 0.0
C913 C 0.79651 0.64721 0.05177 0.0
C914 C 0.82336 0.64155 0.02371 0.0
C915 C 0.90853 0.67617 0.03327 0.0
H916 H 0.90111 0.61808 0.99187 0.0
C917 C 0.01225 0.66462 0.00524 0.0
C918 C 0.01609 0.66654 0.98474 0.0
C919 C 0.98533 0.66191 0.01349 0.0
C920 C 0.90346 0.63452 0.00337 0.0
H921 H 0.82348 0.66139 0.07897 0.0
H922 H 0.8694 0.66341 0.06503 0.0
H923 H 0.85419 0.61326 0.00643 0.0
H924 H 0.99443 0.66648 0.9568 0.0
H925 H 0.94709 0.66106 0.97126 0.0
H926 H 0.95791 0.69672 0.03048 0.0
C927 C 0.84957 0.65726 0.05543 0.0
C928 C 0.87661 0.63192 0.01166 0.0
C929 C 0.82316 0.65594 0.06348 0.0
C930 C 0.99225 0.66524 0.97265 0.0
C931 C 0.96509 0.66195 0.98089 0.0
C932 C 0.93533 0.6784 0.0252 0.0
C933 C 0.85019 0.65041 0.03538 0.0
C934 C 0.87876 0.65281 0.02668 0.0
C935 C 0.96149 0.66046 1.00138 0.0
C936 C 0.93303 0.6577 0.01012 0.0
H937 H 0.77657 0.63306 0.02246 0.0
H938 H 0.82304 0.6366 0.00816 0.0
H939 H 0.91124 0.69313 0.04448 0.0
H940 H 0.03021 0.66561 0.01494 0.0
H941 H 0.98299 0.66062 0.02933 0.0
C942 C 0.35265 0.35955 0.00445 0.0
C943 C 0.3322 0.3524 0.98827 0.0
C944 C 0.35606 0.33582 0.01358 0.0
C945 C 0.31533 0.25 0.02048 0.0
H946 H 0.39714 0.26271 0.03381 0.0
C947 C 0.33109 0.15922 0.06515 0.0
C948 C 0.3527 0.1511 0.05799 0.0
C949 C 0.32979 0.18501 0.05756 0.0
C950 C 0.37417 0.25884 0.03011 0.0
H951 H 0.29936 0.31463 0.969 0.0
H952 H 0.30532 0.27347 0.98493 0.0
H953 H 0.39237 0.30544 0.01856 0.0
H954 H 0.39049 0.16438 0.03753 0.0
H955 H 0.38804 0.20942 0.02421 0.0
H956 H 0.29708 0.20335 0.0317 0.0
C957 C 0.31853 0.29736 0.99064 0.0
C958 C 0.37143 0.28335 0.02157 0.0
C959 C 0.31527 0.32103 0.98144 0.0
C960 C 0.37347 0.16987 0.04334 0.0
C961 C 0.37223 0.1958 0.03579 0.0
C962 C 0.31805 0.22562 0.02911 0.0
C963 C 0.3389 0.30447 0.00681 0.0
C964 C 0.34197 0.27906 0.01654 0.0
C965 C 0.35013 0.20339 0.04267 0.0
C966 C 0.34749 0.22971 0.03393 0.0
H967 H 0.36613 0.38349 0.01003 0.0
H968 H 0.37178 0.34192 0.02611 0.0
H969 H 0.29231 0.24613 0.01694 0.0
H970 H 0.31488 0.14549 0.07653 0.0
H971 H 0.31281 0.19058 0.06335 0.0
C972 C 0.94174 0.31128 0.3762 0.0
C973 C 0.9738 0.33197 0.3739 0.0
C974 C 0.92561 0.28533 0.3637 0.0
C975 C 0.93714 0.23117 0.33279 0.0
H976 H 0.85203 0.20341 0.31642 0.0
C977 C 0.82503 0.11984 0.29058 0.0
C978 C 0.82508 0.09488 0.30081 0.0
C979 C 0.84627 0.15115 0.29565 0.0
C980 C 0.87594 0.21104 0.32055 0.0
H981 H 0.01395 0.34184 0.35635 0.0
H982 H 0.98559 0.29625 0.33448 0.0
H983 H 0.8831 0.25495 0.33204 0.0
H984 H 0.84847 0.08339 0.32382 0.0
H985 H 0.88511 0.13779 0.33274 0.0
H986 H 0.92975 0.18697 0.32161 0.0
C987 C 0.97308 0.30021 0.34607 0.0
C988 C 0.89361 0.24042 0.32969 0.0
C989 C 0.98926 0.32636 0.35855 0.0
C990 C 0.84762 0.10197 0.31568 0.0
C991 C 0.86886 0.13321 0.32069 0.0
C992 C 0.91943 0.20174 0.32367 0.0
C993 C 0.94112 0.27935 0.3486 0.0
C994 C 0.92408 0.2504 0.33639 0.0
C995 C 0.86809 0.15813 0.31096 0.0
C996 C 0.88838 0.19103 0.31793 0.0
H997 H 0.92903 0.31487 0.38782 0.0
H998 H 0.9011 0.26941 0.36624 0.0
H999 H 0.96051 0.23816 0.33786 0.0
H1000 H 0.80815 0.11527 0.27894 0.0
H1001 H 0.84534 0.16989 0.28776 0.0
C1002 C 0.88516 0.72926 0.32309 0.0
C1003 C 0.89302 0.72353 0.30436 0.0
C1004 C 0.85452 0.72088 0.32729 0.0
C1005 C 0.77272 0.67165 0.30914 0.0
H1006 H 0.75875 0.72352 0.34622 0.0
C1007 C 0.65207 0.65975 0.3266 0.0
C1008 C 0.64511 0.65674 0.34676 0.0
C1009 C 0.68172 0.66701 0.32037 0.0
C1010 C 0.76237 0.70882 0.33587 0.0
H1011 H 0.87491 0.70464 0.27526 0.0
H1012 H 0.82149 0.69114 0.28231 0.0
H1013 H 0.81165 0.73897 0.33678 0.0
H1014 H 0.66376 0.65902 0.37614 0.0
H1015 H 0.71567 0.6725 0.36522 0.0
H1016 H 0.72296 0.64212 0.30793 0.0
C1017 C 0.83885 0.70134 0.29397 0.0
C1018 C 0.79268 0.71749 0.33054 0.0
C1019 C 0.86952 0.70924 0.28987 0.0
C1020 C 0.66832 0.66098 0.36051 0.0
C1021 C 0.69806 0.66886 0.3543 0.0
C1022 C 0.74229 0.66332 0.31421 0.0
C1023 C 0.83094 0.70709 0.31276 0.0
C1024 C 0.79837 0.69873 0.31737 0.0
C1025 C 0.70504 0.67207 0.3342 0.0
C1026 C 0.73695 0.68159 0.32786 0.0
H1027 H 0.90263 0.7398 0.33468 0.0
H1028 H 0.84934 0.72491 0.34208 0.0
H1029 H 0.77608 0.65638 0.29915 0.0
H1030 H 0.63464 0.65655 0.31567 0.0
H1031 H 0.68667 0.66948 0.30479 0.0
C1032 C 0.28271 0.16327 0.28095 0.0
C1033 C 0.2592 0.16343 0.29227 0.0
C1034 C 0.29317 0.14211 0.28511 0.0
C1035 C 0.2753 0.07029 0.31376 0.0
H1036 H 0.36515 0.1096 0.31794 0.0
C1037 C 0.3355 0.00611 0.34831 0.0
C1038 C 0.35856 0.02422 0.36248 0.0
C1039 C 0.32378 0.02035 0.33564 0.0
C1040 C 0.34002 0.09823 0.31677 0.0
H1041 H 0.22719 0.14029 0.31617 0.0
H1042 H 0.24576 0.10392 0.32359 0.0
H1043 H 0.34202 0.13846 0.30308 0.0
H1044 H 0.38803 0.07169 0.37396 0.0
H1045 H 0.36748 0.09626 0.35213 0.0
H1046 H 0.27338 0.03076 0.32853 0.0
C1047 C 0.2559 0.11986 0.31135 0.0
C1048 C 0.32674 0.11462 0.30804 0.0
C1049 C 0.2454 0.14095 0.30719 0.0
C1050 C 0.37023 0.05696 0.36329 0.0
C1051 C 0.35864 0.07114 0.35062 0.0
C1052 C 0.28861 0.05389 0.32253 0.0
C1053 C 0.28037 0.12065 0.30065 0.0
C1054 C 0.29422 0.10121 0.30697 0.0
C1055 C 0.33505 0.053 0.3368 0.0
C1056 C 0.3211 0.06811 0.32468 0.0
H1057 H 0.29363 0.18001 0.26918 0.0
H1058 H 0.31175 0.14299 0.2764 0.0
H1059 H 0.25017 0.05914 0.31288 0.0
H1060 H 0.32599 0.98083 0.34727 0.0
H1061 H 0.30573 0.0058 0.32505 0.0
C1062 C 0.46915 0.54305 0.34971 0.0
C1063 C 0.49446 0.55054 0.36247 0.0
C1064 C 0.44494 0.51202 0.34766 0.0
C1065 C 0.4276 0.43068 0.35182 0.0
H1066 H 0.34212 0.41243 0.34684 0.0
C1067 C 0.33292 0.32328 0.30975 0.0
C1068 C 0.30238 0.30772 0.31691 0.0
C1069 C 0.35606 0.35048 0.31904 0.0
C1070 C 0.36578 0.41699 0.34851 0.0
H1071 H 0.51397 0.53114 0.38325 0.0
H1072 H 0.47162 0.47669 0.37944 0.0
H1073 H 0.38286 0.46524 0.35661 0.0
H1074 H 0.27242 0.30813 0.3398 0.0
H1075 H 0.31302 0.35592 0.35601 0.0
H1076 H 0.41059 0.3826 0.34328 0.0
C1077 C 0.47069 0.49502 0.37105 0.0
C1078 C 0.38913 0.44729 0.3539 0.0
C1079 C 0.49489 0.52619 0.37323 0.0
C1080 C 0.2957 0.31958 0.33389 0.0
C1081 C 0.31889 0.34698 0.34313 0.0
C1082 C 0.40425 0.4004 0.34634 0.0
C1083 C 0.44549 0.48767 0.35824 0.0
C1084 C 0.42036 0.45464 0.35511 0.0
C1085 C 0.34922 0.36286 0.33567 0.0
C1086 C 0.37323 0.39347 0.34416 0.0
H1087 H 0.46795 0.56116 0.34123 0.0
H1088 H 0.42606 0.50699 0.33744 0.0
H1089 H 0.45149 0.4357 0.35257 0.0
H1090 H 0.33895 0.31476 0.29676 0.0
H1091 H 0.3791 0.36244 0.31277 0.0
C1092 C 0.6616 0.0028 0.30516 0.0
C1093 C 0.678 0.98977 0.31452 0.0
C1094 C 0.6341 -0.00094 0.3131 0.0
C1095 C 0.59208 0.98264 0.35984 0.0
H1096 H 0.52294 0.96958 0.32609 0.0
C1097 C 0.45765 0.95742 0.36641 0.0
C1098 C 0.46241 0.98 0.38091 0.0
C1099 C 0.48295 0.95624 0.35842 0.0
C1100 C 0.54189 0.97288 0.33574 0.0
H1101 H 0.67783 0.96194 0.33942 0.0
H1102 H 0.62974 0.95524 0.35316 0.0
H1103 H 0.56849 0.971 0.31173 0.0
H1104 H 0.49764 0.01892 0.39844 0.0
H1105 H 0.54149 0.01704 0.38439 0.0
H1106 H 0.56543 0.98428 0.38386 0.0
C1107 C 0.63845 0.96878 0.33982 0.0
C1108 C 0.56815 0.97407 0.32748 0.0
C1109 C 0.66598 0.97254 0.33189 0.0
C1110 C 0.49301 0.00118 0.38732 0.0
C1111 C 0.51822 -3e-05 0.37936 0.0
C1112 C 0.56586 0.98147 0.36808 0.0
C1113 C 0.62228 0.98215 0.33059 0.0
C1114 C 0.59369 0.97927 0.33942 0.0
C1115 C 0.51352 0.97755 0.36479 0.0
C1116 C 0.54059 0.97693 0.35611 0.0
H1117 H 0.67013 0.01624 0.29177 0.0
H1118 H 0.62246 0.01003 0.30576 0.0
H1119 H 0.61143 0.98696 0.36944 0.0
H1120 H 0.43441 0.94067 0.36117 0.0
H1121 H 0.47854 0.93848 0.34736 0.0
C1122 C 0.99909 0.68176 0.34329 0.0
C1123 C 0.99538 0.68169 0.32276 0.0
C1124 C 0.00273 0.65814 0.35235 0.0
C1125 C 0.03012 0.60284 0.34413 0.0
H1126 H 0.97319 0.55253 0.38503 0.0
C1127 C 0.02462 0.48913 0.37204 0.0
C1128 C 0.01725 0.48076 0.39179 0.0
C1129 C 0.02311 0.5147 0.36419 0.0
C1130 C 0.98972 0.56669 0.37392 0.0
H1131 H 0.99326 0.65731 0.29559 0.0
H1132 H 0.00039 0.61652 0.31145 0.0
H1133 H 0.96907 0.59591 0.37058 0.0
H1134 H 0.00363 0.49318 0.41906 0.0
H1135 H 0.00226 0.53863 0.40565 0.0
H1136 H 0.05143 0.57446 0.34767 0.0
C1137 C 0.00012 0.63465 0.32048 0.0
C1138 C 0.98718 0.59141 0.36559 0.0
C1139 C 0.99586 0.65786 0.31145 0.0
C1140 C 0.00901 0.49886 0.40369 0.0
C1141 C 0.00808 0.52482 0.39595 0.0
C1142 C 0.03306 0.5785 0.35269 0.0
C1143 C 0.00341 0.63451 0.341 0.0
C1144 C 0.00713 0.60943 0.35049 0.0
C1145 C 0.01481 0.53291 0.37603 0.0
C1146 C 0.01265 0.55982 0.36754 0.0
H1147 H 0.99874 0.69979 0.35237 0.0
H1148 H 0.00533 0.6585 0.36821 0.0
H1149 H 0.04596 0.61669 0.33261 0.0
H1150 H 0.03083 0.47543 0.36249 0.0
H1151 H 0.02786 0.51973 0.34871 0.0
C1152 C 0.496 0.45716 0.61991 0.0
C1153 C 0.49592 0.43307 0.63123 0.0
C1154 C 0.51796 0.48877 0.62368 0.0
C1155 C 0.54879 0.55068 0.64647 0.0
H1156 H 0.63243 0.57732 0.66555 0.0
C1157 C 0.61083 0.64826 0.70376 0.0
C1158 C 0.64318 0.66856 0.7029 0.0
C1159 C 0.59567 0.62346 0.69035 0.0
C1160 C 0.60938 0.57053 0.65991 0.0
H1161 H 0.51987 0.42333 0.65478 0.0
H1162 H 0.55758 0.47819 0.66152 0.0
H1163 H 0.60202 0.52597 0.6495 0.0
H1164 H 0.68491 0.67913 0.68689 0.0
H1165 H 0.65821 0.63547 0.66341 0.0
H1166 H 0.55587 0.59491 0.65728 0.0
C1167 C 0.54098 0.47274 0.64956 0.0
C1168 C 0.59185 0.54098 0.65091 0.0
C1169 C 0.51909 0.44122 0.64582 0.0
C1170 C 0.65995 0.66389 0.68798 0.0
C1171 C 0.64472 0.63887 0.67457 0.0
C1172 C 0.56632 0.58021 0.65544 0.0
C1173 C 0.54032 0.4969 0.6388 0.0
C1174 C 0.56096 0.53029 0.64476 0.0
C1175 C 0.61245 0.61826 0.67575 0.0
C1176 C 0.59635 0.58993 0.66291 0.0
H1177 H 0.47868 0.45172 0.60842 0.0
H1178 H 0.51708 0.50687 0.61501 0.0
H1179 H 0.52504 0.54313 0.64198 0.0
H1180 H 0.59713 0.6512 0.71498 0.0
H1181 H 0.57088 0.60768 0.69187 0.0
C1182 C 0.55518 0.07571 0.65475 0.0
C1183 C 0.56141 0.06026 0.63951 0.0
C1184 C 0.5246 0.06704 0.65941 0.0
C1185 C 0.44395 0.02609 0.63985 0.0
H1186 H 0.42314 0.02221 0.69496 0.0
C1187 C 0.3283 0.01487 0.66616 0.0
C1188 C 0.314 0.99577 0.68256 0.0
C1189 C 0.35775 0.02111 0.66027 0.0
C1190 C 0.42845 0.02285 0.67951 0.0
H1191 H 0.54009 0.02375 0.61701 0.0
H1192 H 0.48666 0.00844 0.62532 0.0
H1193 H 0.47572 0.03589 0.68589 0.0
H1194 H 0.31932 0.96768 0.70534 0.0
H1195 H 0.37043 0.97827 0.69492 0.0
H1196 H 0.39645 0.01257 0.63351 0.0
C1197 C 0.50555 0.02749 0.63354 0.0
C1198 C 0.45872 0.03111 0.67429 0.0
C1199 C 0.53621 0.03618 0.62885 0.0
C1200 C 0.32966 0.98263 0.69271 0.0
C1201 C 0.35907 0.98884 0.6868 0.0
C1202 C 0.41362 0.01783 0.64507 0.0
C1203 C 0.49941 0.04266 0.64898 0.0
C1204 C 0.46691 0.03303 0.65441 0.0
C1205 C 0.3736 0.00838 0.67063 0.0
C1206 C 0.40555 0.01625 0.66497 0.0
H1207 H 0.57393 0.09449 0.66322 0.0
H1208 H 0.52071 0.07961 0.67115 0.0
H1209 H 0.44955 0.02757 0.6244 0.0
H1210 H 0.31701 0.02551 0.65803 0.0
H1211 H 0.36843 0.03658 0.6479 0.0
C1212 C 0.0412 0.3892 0.69951 0.0
C1213 C 0.024 0.35635 0.70201 0.0
C1214 C 0.02953 0.40435 0.68766 0.0
C1215 C 0.95861 0.40083 0.6739 0.0
H1216 H 0.00301 0.45537 0.63039 0.0
C1217 C 0.90938 0.47062 0.63478 0.0
C1218 C 0.93078 0.50145 0.62902 0.0
C1219 C 0.91962 0.44982 0.64037 0.0
C1220 C 0.99044 0.44056 0.64264 0.0
H1221 H 0.98127 0.31355 0.69399 0.0
H1222 H 0.9604 0.3404 0.67384 0.0
H1223 H 0.02404 0.4255 0.64684 0.0
H1224 H 0.97952 0.53458 0.62409 0.0
H1225 H 0.9977 0.49911 0.63489 0.0
H1226 H 0.92616 0.41712 0.67092 0.0
C1227 C 0.98311 0.35416 0.68078 0.0
C1228 C 0.00241 0.4233 0.65191 0.0
C1229 C 0.99509 0.33889 0.69226 0.0
C1230 C 0.96252 0.51084 0.62838 0.0
C1231 C 0.97288 0.49033 0.63446 0.0
C1232 C 0.947 0.41859 0.66498 0.0
C1233 C 0.00021 0.387 0.67849 0.0
C1234 C 0.98665 0.4035 0.66768 0.0
C1235 C 0.95161 0.45968 0.64089 0.0
C1236 C 0.96287 0.43896 0.64932 0.0
H1237 H 0.06361 0.40319 0.70677 0.0
H1238 H 0.04295 0.42976 0.68617 0.0
H1239 H 0.94629 0.38592 0.68621 0.0
H1240 H 0.8847 0.46267 0.63512 0.0
H1241 H 0.90239 0.42617 0.6446 0.0
C1242 C 0.15292 0.86722 0.70781 0.0
C1243 C 0.16379 0.88994 0.69286 0.0
C1244 C 0.12764 0.83699 0.70424 0.0
C1245 C 0.06123 0.79426 0.66933 0.0
H1246 H 0.05928 0.71914 0.68946 0.0
C1247 C 0.98763 0.6722 0.63464 0.0
C1248 C 0.96763 0.6476 0.64703 0.0
C1249 C 0.00973 0.70127 0.6425 0.0
C1250 C 0.05942 0.74001 0.68401 0.0
H1251 H 0.15766 0.89839 0.66225 0.0
H1252 H 0.11454 0.8457 0.65587 0.0
H1253 H 0.10247 0.77127 0.69878 0.0
H1254 H 0.95532 0.63396 0.67739 0.0
H1255 H 0.99496 0.68507 0.69123 0.0
H1256 H 0.01904 0.76294 0.65382 0.0
C1257 C 0.12464 0.85139 0.67055 0.0
C1258 C 0.08404 0.76981 0.68933 0.0
C1259 C 0.14956 0.88157 0.67417 0.0
C1260 C 0.9704 0.65257 0.66751 0.0
C1261 C 0.99304 0.68163 0.67542 0.0
C1262 C 0.03697 0.76459 0.66384 0.0
C1263 C 0.11298 0.82889 0.68561 0.0
C1264 C 0.08557 0.79726 0.68166 0.0
C1265 C 0.01263 0.70622 0.66291 0.0
C1266 C 0.0362 0.73727 0.67081 0.0
H1267 H 0.16337 0.87304 0.72241 0.0
H1268 H 0.11915 0.82026 0.71619 0.0
H1269 H 0.06117 0.81489 0.66362 0.0
H1270 H 0.98595 0.66917 0.6188 0.0
H1271 H 0.02478 0.71988 0.6326 0.0
C1272 C 0.12999 0.30537 0.69694 0.0
C1273 C 0.13 0.31338 0.71678 0.0
C1274 C 0.15648 0.30685 0.68881 0.0
C1275 C 0.2417 0.34165 0.69829 0.0
H1276 H 0.2344 0.28317 0.65719 0.0
C1277 C 0.34561 0.33003 0.67084 0.0
C1278 C 0.3496 0.33187 0.65035 0.0
C1279 C 0.31858 0.32725 0.67895 0.0
C1280 C 0.23671 0.29972 0.66861 0.0
H1281 H 0.15715 0.32785 0.7439 0.0
H1282 H 0.20276 0.32917 0.73003 0.0
H1283 H 0.18742 0.27846 0.67163 0.0
H1284 H 0.32809 0.33155 0.6223 0.0
H1285 H 0.28056 0.32602 0.63654 0.0
H1286 H 0.29109 0.36222 0.69556 0.0
C1287 C 0.1829 0.32297 0.72045 0.0
C1288 C 0.20983 0.29717 0.67683 0.0
C1289 C 0.15665 0.32204 0.72846 0.0
C1290 C 0.32579 0.33039 0.63815 0.0
C1291 C 0.29853 0.32703 0.64626 0.0
C1292 C 0.26853 0.34382 0.69029 0.0
C1293 C 0.18337 0.31582 0.70044 0.0
C1294 C 0.21195 0.31818 0.69175 0.0
C1295 C 0.29478 0.32565 0.66673 0.0
C1296 C 0.26627 0.32296 0.67534 0.0
H1297 H 0.1098 0.29874 0.68756 0.0
H1298 H 0.15603 0.3016 0.67329 0.0
H1299 H 0.2444 0.35874 0.7094 0.0
H1300 H 0.36354 0.33116 0.68063 0.0
H1301 H 0.31613 0.32606 0.69479 0.0
C1302 C 0.66145 0.82153 0.72926 0.0
C1303 C 0.68436 0.81431 0.72348 0.0
C1304 C 0.66019 0.84697 0.72101 0.0
C1305 C 0.70625 0.92163 0.69483 0.0
H1306 H 0.62527 0.90776 0.67801 0.0
C1307 C 0.6841 0.02224 0.67043 0.0
C1308 C 0.66481 0.01629 0.65376 0.0
C1309 C 0.68768 0.99811 0.67876 0.0
C1310 C 0.64807 0.91194 0.68253 0.0
H1311 H 0.72442 0.8288 0.70479 0.0
H1312 H 0.72209 0.87326 0.69038 0.0
H1313 H 0.62954 0.86482 0.69301 0.0
H1314 H 0.6345 0.98033 0.63264 0.0
H1315 H 0.64076 0.93837 0.64721 0.0
H1316 H 0.72476 0.96876 0.68417 0.0
C1317 C 0.7052 0.85919 0.70136 0.0
C1318 C 0.65047 0.88747 0.6913 0.0
C1319 C 0.7064 0.83361 0.70955 0.0
C1320 C 0.64945 0.98576 0.64552 0.0
C1321 C 0.65289 0.96164 0.65391 0.0
C1322 C 0.70382 0.94622 0.68616 0.0
C1323 C 0.68187 0.86589 0.70686 0.0
C1324 C 0.67956 0.89204 0.69755 0.0
C1325 C 0.67191 0.96751 0.67067 0.0
C1326 C 0.6747 0.94158 0.67988 0.0
H1327 H 0.6442 0.80734 0.74003 0.0
H1328 H 0.64222 0.85187 0.72574 0.0
H1329 H 0.72895 0.92586 0.69963 0.0
H1330 H 0.69639 0.0455 0.67712 0.0
H1331 H 0.7023 0.00325 0.69177 0.0
loop_
_geom_bond_atom_site_label_1
_geom_bond_atom_site_label_2
_geom_bond_distance
_geom_bond_site_symmetry_2
_ccdc_geom_bond_type
Co0 O1 2.216 . S
Co0 O2 2.091 . S
Co0 O4 2.004 . S
Co0 O10 2.021 . S
Co0 O12 2.137 . S
Co0 O13 2.244 . S
O1 Co0 2.216 . S
O1 C8 1.247 . S
O2 Co0 2.091 . S
O2 C8 1.261 . S
C3 O12 1.247 . S
C3 O13 1.272 . S
O4 Co0 2.004 . S
O4 C9 1.259 . S
Co5 O6 2.061 . S
Co5 O11 2.052 1_545 S
Co5 O13 2.135 . S
O6 Co5 2.061 . S
O6 C9 1.235 . S
C7 O10 1.238 1_565 S
C7 O11 1.241 . S
C8 O1 1.247 . S
C8 O2 1.261 . S
C9 O4 1.259 . S
C9 O6 1.235 . S
O10 Co0 2.021 . S
O10 C7 1.238 1_545 S
O11 Co5 2.052 1_565 S
O11 C7 1.241 . S
O12 Co0 2.137 . S
O12 C3 1.247 . S
O13 Co0 2.244 . S
O13 C3 1.272 . S
O13 Co5 2.135 . S
Co14 O15 2.216 . S
Co14 O16 2.091 . S
Co14 O18 2.004 . S
Co14 O24 2.021 . S
Co14 O26 2.137 . S
Co14 O27 2.244 . S
O15 Co14 2.216 . S
O15 C22 1.247 . S
O16 Co14 2.091 . S
O16 C22 1.261 . S
C17 O26 1.247 . S
C17 O27 1.272 . S
O18 Co14 2.004 . S
O18 C23 1.259 1_655 S
Co19 O20 2.061 . S
Co19 O25 2.052 . S
Co19 O27 2.135 . S
O20 Co19 2.061 . S
O20 C23 1.235 1_655 S
C21 O24 1.238 . S
C21 O25 1.241 . S
C22 O15 1.247 . S
C22 O16 1.261 . S
C23 O18 1.259 1_455 S
C23 O20 1.235 1_455 S
O24 Co14 2.021 . S
O24 C21 1.238 . S
O25 Co19 2.052 . S
O25 C21 1.241 . S
O26 Co14 2.137 . S
O26 C17 1.247 . S
O27 Co14 2.244 . S
O27 C17 1.272 . S
O27 Co19 2.135 . S
Co28 O29 2.216 . S
Co28 O30 2.091 . S
Co28 O32 2.004 . S
Co28 O38 2.021 . S
Co28 O40 2.137 . S
Co28 O41 2.244 . S
O29 Co28 2.216 . S
O29 C36 1.247 . S
O30 Co28 2.091 . S
O30 C36 1.261 . S
C31 O40 1.247 . S
C31 O41 1.272 . S
O32 Co28 2.004 . S
O32 C37 1.259 . S
Co33 O34 2.061 . S
Co33 O39 2.052 . S
Co33 O41 2.135 . S
O34 Co33 2.061 . S
O34 C37 1.235 . S
C35 O38 1.238 . S
C35 O39 1.241 . S
C36 O29 1.247 . S
C36 O30 1.261 . S
C37 O32 1.259 . S
C37 O34 1.235 . S
O38 Co28 2.021 . S
O38 C35 1.238 . S
O39 Co33 2.052 . S
O39 C35 1.241 . S
O40 Co28 2.137 . S
O40 C31 1.247 . S
O41 Co28 2.244 . S
O41 C31 1.272 . S
O41 Co33 2.135 . S
Co42 O43 2.216 . S
Co42 O44 2.091 . S
Co42 O46 2.004 . S
Co42 O52 2.021 . S
Co42 O54 2.137 . S
Co42 O55 2.244 . S
O43 Co42 2.216 . S
O43 C50 1.247 . S
O44 Co42 2.091 . S
O44 C50 1.261 . S
C45 O54 1.247 . S
C45 O55 1.272 . S
O46 Co42 2.004 . S
O46 C51 1.259 1_565 S
Co47 O48 2.061 . S
Co47 O53 2.052 . S
Co47 O55 2.135 . S
O48 Co47 2.061 . S
O48 C51 1.235 1_565 S
C49 O52 1.238 . S
C49 O53 1.241 . S
C50 O43 1.247 . S
C50 O44 1.261 . S
C51 O46 1.259 1_545 S
C51 O48 1.235 1_545 S
O52 Co42 2.021 . S
O52 C49 1.238 . S
O53 Co47 2.052 . S
O53 C49 1.241 . S
O54 Co42 2.137 . S
O54 C45 1.247 . S
O55 Co42 2.244 . S
O55 C45 1.272 . S
O55 Co47 2.135 . S
Co56 O57 2.216 . S
Co56 O58 2.091 . S
Co56 O60 2.004 . S
Co56 O66 2.021 . S
Co56 O68 2.137 . S
Co56 O69 2.244 . S
O57 Co56 2.216 . S
O57 C64 1.247 . S
O58 Co56 2.091 . S
O58 C64 1.261 . S
C59 O68 1.247 . S
C59 O69 1.272 . S
O60 Co56 2.004 . S
O60 C65 1.259 1_455 S
Co61 O62 2.061 . S
Co61 O67 2.052 . S
Co61 O69 2.135 . S
O62 Co61 2.061 . S
O62 C65 1.235 1_455 S
C63 O66 1.238 . S
C63 O67 1.241 . S
C64 O57 1.247 . S
C64 O58 1.261 . S
C65 O60 1.259 1_655 S
C65 O62 1.235 1_655 S
O66 Co56 2.021 . S
O66 C63 1.238 . S
O67 Co61 2.052 . S
O67 C63 1.241 . S
O68 Co56 2.137 . S
O68 C59 1.247 . S
O69 Co56 2.244 . S
O69 C59 1.272 . S
O69 Co61 2.135 . S
Co70 O71 2.216 . S
Co70 O72 2.091 . S
Co70 O74 2.004 . S
Co70 O80 2.021 . S
Co70 O82 2.137 . S
Co70 O83 2.244 . S
O71 Co70 2.216 . S
O71 C78 1.247 . S
O72 Co70 2.091 . S
O72 C78 1.261 . S
C73 O82 1.247 . S
C73 O83 1.272 . S
O74 Co70 2.004 . S
O74 C79 1.259 . S
Co75 O76 2.061 . S
Co75 O81 2.052 . S
Co75 O83 2.135 . S
O76 Co75 2.061 . S
O76 C79 1.235 . S
C77 O80 1.238 . S
C77 O81 1.241 . S
C78 O71 1.247 . S
C78 O72 1.261 . S
C79 O74 1.259 . S
C79 O76 1.235 . S
O80 Co70 2.021 . S
O80 C77 1.238 . S
O81 Co75 2.052 . S
O81 C77 1.241 . S
O82 Co70 2.137 . S
O82 C73 1.247 . S
O83 Co70 2.244 . S
O83 C73 1.272 . S
O83 Co75 2.135 . S
Co84 O85 2.216 . S
Co84 O86 2.091 . S
Co84 O88 2.004 . S
Co84 O94 2.021 1_455 S
Co84 O96 2.137 . S
Co84 O97 2.244 1_455 S
O85 Co84 2.216 . S
O85 C92 1.247 . S
O86 Co84 2.091 . S
O86 C92 1.261 . S
C87 O96 1.247 . S
C87 O97 1.272 1_455 S
O88 Co84 2.004 . S
O88 C93 1.259 1_455 S
Co89 O90 2.061 . S
Co89 O95 2.052 . S
Co89 O97 2.135 . S
O90 Co89 2.061 . S
O90 C93 1.235 . S
C91 O94 1.238 . S
C91 O95 1.241 . S
C92 O85 1.247 . S
C92 O86 1.261 . S
C93 O88 1.259 1_655 S
C93 O90 1.235 . S
O94 Co84 2.021 1_655 S
O94 C91 1.238 . S
O95 Co89 2.052 . S
O95 C91 1.241 . S
O96 Co84 2.137 . S
O96 C87 1.247 . S
O97 Co84 2.244 1_655 S
O97 C87 1.272 1_655 S
O97 Co89 2.135 . S
Co98 O99 2.216 . S
Co98 O100 2.091 . S
Co98 O102 2.004 . S
Co98 O108 2.021 . S
Co98 O110 2.137 . S
Co98 O111 2.244 . S
O99 Co98 2.216 . S
O99 C106 1.247 . S
O100 Co98 2.091 . S
O100 C106 1.261 . S
C101 O110 1.247 . S
C101 O111 1.272 . S
O102 Co98 2.004 . S
O102 C107 1.259 . S
Co103 O104 2.061 . S
Co103 O109 2.052 . S
Co103 O111 2.135 . S
O104 Co103 2.061 . S
O104 C107 1.235 . S
C105 O108 1.238 . S
C105 O109 1.241 . S
C106 O99 1.247 . S
C106 O100 1.261 . S
C107 O102 1.259 . S
C107 O104 1.235 . S
O108 Co98 2.021 . S
O108 C105 1.238 . S
O109 Co103 2.052 . S
O109 C105 1.241 . S
O110 Co98 2.137 . S
O110 C101 1.247 . S
O111 Co98 2.244 . S
O111 C101 1.272 . S
O111 Co103 2.135 . S
Co112 O113 2.216 . S
Co112 O114 2.091 . S
Co112 O116 2.004 . S
Co112 O122 2.021 1_565 S
Co112 O124 2.137 . S
Co112 O125 2.244 1_565 S
O113 Co112 2.216 . S
O113 C120 1.247 . S
O114 Co112 2.091 . S
O114 C120 1.261 . S
C115 O124 1.247 . S
C115 O125 1.272 1_565 S
O116 Co112 2.004 . S
O116 C121 1.259 1_565 S
Co117 O118 2.061 . S
Co117 O123 2.052 . S
Co117 O125 2.135 . S
O118 Co117 2.061 . S
O118 C121 1.235 . S
C119 O122 1.238 . S
C119 O123 1.241 . S
C120 O113 1.247 . S
C120 O114 1.261 . S
C121 O116 1.259 1_545 S
C121 O118 1.235 . S
O122 Co112 2.021 1_545 S
O122 C119 1.238 . S
O123 Co117 2.052 . S
O123 C119 1.241 . S
O124 Co112 2.137 . S
O124 C115 1.247 . S
O125 Co112 2.244 1_545 S
O125 C115 1.272 1_545 S
O125 Co117 2.135 . S
Co126 O127 2.216 . S
Co126 O128 2.091 . S
Co126 O130 2.004 . S
Co126 O136 2.021 . S
Co126 O138 2.137 . S
Co126 O139 2.244 . S
O127 Co126 2.216 . S
O127 C134 1.247 . S
O128 Co126 2.091 . S
O128 C134 1.261 . S
C129 O138 1.247 . S
C129 O139 1.272 . S
O130 Co126 2.004 . S
O130 C135 1.259 . S
Co131 O132 2.061 . S
Co131 O137 2.052 . S
Co131 O139 2.135 . S
O132 Co131 2.061 . S
O132 C135 1.235 . S
C133 O136 1.238 . S
C133 O137 1.241 . S
C134 O127 1.247 . S
C134 O128 1.261 . S
C135 O130 1.259 . S
C135 O132 1.235 . S
O136 Co126 2.021 . S
O136 C133 1.238 . S
O137 Co131 2.052 . S
O137 C133 1.241 . S
O138 Co126 2.137 . S
O138 C129 1.247 . S
O139 Co126 2.244 . S
O139 C129 1.272 . S
O139 Co131 2.135 . S
Co140 O141 2.216 . S
Co140 O142 2.091 . S
Co140 O144 2.004 . S
Co140 O150 2.021 . S
Co140 O152 2.137 1_545 S
Co140 O153 2.244 . S
O141 Co140 2.216 . S
O141 C148 1.247 . S
O142 Co140 2.091 . S
O142 C148 1.261 . S
C143 O152 1.247 . S
C143 O153 1.272 1_565 S
O144 Co140 2.004 . S
O144 C149 1.259 . S
Co145 O146 2.061 . S
Co145 O151 2.052 . S
Co145 O153 2.135 . S
O146 Co145 2.061 . S
O146 C149 1.235 . S
C147 O150 1.238 . S
C147 O151 1.241 . S
C148 O141 1.247 . S
C148 O142 1.261 . S
C149 O144 1.259 . S
C149 O146 1.235 . S
O150 Co140 2.021 . S
O150 C147 1.238 . S
O151 Co145 2.052 . S
O151 C147 1.241 . S
O152 Co140 2.137 1_565 S
O152 C143 1.247 . S
O153 Co140 2.244 . S
O153 C143 1.272 1_545 S
O153 Co145 2.135 . S
Co154 O155 2.216 . S
Co154 O156 2.091 . S
Co154 O158 2.004 . S
Co154 O164 2.021 . S
Co154 O166 2.137 . S
Co154 O167 2.244 . S
O155 Co154 2.216 . S
O155 C162 1.247 . S
O156 Co154 2.091 . S
O156 C162 1.261 . S
C157 O166 1.247 . S
C157 O167 1.272 . S
O158 Co154 2.004 . S
O158 C163 1.259 . S
Co159 O160 2.061 . S
Co159 O165 2.052 . S
Co159 O167 2.135 . S
O160 Co159 2.061 . S
O160 C163 1.235 . S
C161 O164 1.238 . S
C161 O165 1.241 . S
C162 O155 1.247 . S
C162 O156 1.261 . S
C163 O158 1.259 . S
C163 O160 1.235 . S
O164 Co154 2.021 . S
O164 C161 1.238 . S
O165 Co159 2.052 . S
O165 C161 1.241 . S
O166 Co154 2.137 . S
O166 C157 1.247 . S
O167 Co154 2.244 . S
O167 C157 1.272 . S
O167 Co159 2.135 . S
Co168 O169 2.216 . S
Co168 O170 2.091 . S
Co168 O172 2.004 . S
Co168 O178 2.021 . S
Co168 O180 2.137 . S
Co168 O181 2.244 . S
O169 Co168 2.216 . S
O169 C176 1.247 . S
O170 Co168 2.091 . S
O170 C176 1.261 . S
C171 O180 1.247 . S
C171 O181 1.272 . S
O172 Co168 2.004 . S
O172 C177 1.259 . S
Co173 O174 2.061 . S
Co173 O179 2.052 . S
Co173 O181 2.135 . S
O174 Co173 2.061 . S
O174 C177 1.235 . S
C175 O178 1.238 . S
C175 O179 1.241 . S
C176 O169 1.247 . S
C176 O170 1.261 . S
C177 O172 1.259 . S
C177 O174 1.235 . S
O178 Co168 2.021 . S
O178 C175 1.238 . S
O179 Co173 2.052 . S
O179 C175 1.241 . S
O180 Co168 2.137 . S
O180 C171 1.247 . S
O181 Co168 2.244 . S
O181 C171 1.272 . S
O181 Co173 2.135 . S
Co182 O183 2.216 . S
Co182 O184 2.091 . S
Co182 O186 2.004 . S
Co182 O192 2.021 . S
Co182 O194 2.137 1_565 S
Co182 O195 2.244 . S
O183 Co182 2.216 . S
O183 C190 1.247 . S
O184 Co182 2.091 . S
O184 C190 1.261 . S
C185 O194 1.247 . S
C185 O195 1.272 1_545 S
O186 Co182 2.004 . S
O186 C191 1.259 . S
Co187 O188 2.061 . S
Co187 O193 2.052 . S
Co187 O195 2.135 . S
O188 Co187 2.061 . S
O188 C191 1.235 . S
C189 O192 1.238 . S
C189 O193 1.241 . S
C190 O183 1.247 . S
C190 O184 1.261 . S
C191 O186 1.259 . S
C191 O188 1.235 . S
O192 Co182 2.021 . S
O192 C189 1.238 . S
O193 Co187 2.052 . S
O193 C189 1.241 . S
O194 Co182 2.137 1_545 S
O194 C185 1.247 . S
O195 Co182 2.244 . S
O195 C185 1.272 1_565 S
O195 Co187 2.135 . S
Co196 O197 2.216 1_455 S
Co196 O198 2.091 1_455 S
Co196 O200 2.004 . S
Co196 O206 2.021 . S
Co196 O208 2.137 . S
Co196 O209 2.244 . S
O197 Co196 2.216 1_655 S
O197 C204 1.247 . S
O198 Co196 2.091 1_655 S
O198 C204 1.261 . S
C199 O208 1.247 . S
C199 O209 1.272 . S
O200 Co196 2.004 . S
O200 C205 1.259 . S
Co201 O202 2.061 . S
Co201 O207 2.052 . S
Co201 O209 2.135 . S
O202 Co201 2.061 . S
O202 C205 1.235 . S
C203 O206 1.238 . S
C203 O207 1.241 . S
C204 O197 1.247 . S
C204 O198 1.261 . S
C205 O200 1.259 . S
C205 O202 1.235 . S
O206 Co196 2.021 . S
O206 C203 1.238 . S
O207 Co201 2.052 . S
O207 C203 1.241 . S
O208 Co196 2.137 . S
O208 C199 1.247 . S
O209 Co196 2.244 . S
O209 C199 1.272 . S
O209 Co201 2.135 . S
Co210 O211 2.211 1_455 S
Co210 O212 2.098 . S
Co210 O214 2.012 . S
Co210 O220 2.036 . S
Co210 O222 2.118 1_455 S
Co210 O223 2.229 1_455 S
O211 Co210 2.211 1_655 S
O211 C218 1.247 . S
O212 Co210 2.098 . S
O212 C218 1.261 1_455 S
C213 O222 1.247 . S
C213 O223 1.272 . S
O214 Co210 2.012 . S
O214 C219 1.259 . S
Co215 O216 2.061 1_655 S
Co215 O221 2.052 . S
Co215 O223 2.135 . S
O216 Co215 2.061 1_455 S
O216 C219 1.235 . S
C217 O220 1.238 . S
C217 O221 1.241 1_455 S
C218 O211 1.247 . S
C218 O212 1.261 1_655 S
C219 O214 1.259 . S
C219 O216 1.235 . S
O220 Co210 2.036 . S
O220 C217 1.238 . S
O221 Co215 2.052 . S
O221 C217 1.241 1_655 S
O222 Co210 2.118 1_655 S
O222 C213 1.247 . S
O223 Co210 2.229 1_655 S
O223 C213 1.272 . S
O223 Co215 2.135 . S
Co224 O225 2.216 . S
Co224 O226 2.091 . S
Co224 O228 2.004 . S
Co224 O234 2.021 . S
Co224 O236 2.137 . S
Co224 O237 2.244 . S
O225 Co224 2.216 . S
O225 C232 1.247 . S
O226 Co224 2.091 . S
O226 C232 1.261 . S
C227 O236 1.247 . S
C227 O237 1.272 . S
O228 Co224 2.004 . S
O228 C233 1.259 . S
Co229 O230 2.061 . S
Co229 O235 2.052 . S
Co229 O237 2.135 . S
O230 Co229 2.061 . S
O230 C233 1.235 . S
C231 O234 1.238 . S
C231 O235 1.241 . S
C232 O225 1.247 . S
C232 O226 1.261 . S
C233 O228 1.259 . S
C233 O230 1.235 . S
O234 Co224 2.021 . S
O234 C231 1.238 . S
O235 Co229 2.052 . S
O235 C231 1.241 . S
O236 Co224 2.137 . S
O236 C227 1.247 . S
O237 Co224 2.244 . S
O237 C227 1.272 . S
O237 Co229 2.135 . S
Co238 O239 2.199 1_565 S
Co238 O240 2.093 . S
Co238 O242 2.024 . S
Co238 O248 2.019 . S
Co238 O250 2.134 1_565 S
Co238 O251 2.235 1_565 S
O239 Co238 2.199 1_545 S
O239 C246 1.247 . S
O240 Co238 2.093 . S
O240 C246 1.261 1_565 S
C241 O250 1.247 . S
C241 O251 1.272 . S
O242 Co238 2.024 . S
O242 C247 1.259 . S
Co243 O244 2.061 1_545 S
Co243 O249 2.052 . S
Co243 O251 2.135 . S
O244 Co243 2.061 1_565 S
O244 C247 1.235 . S
C245 O248 1.238 . S
C245 O249 1.241 1_565 S
C246 O239 1.247 . S
C246 O240 1.261 1_545 S
C247 O242 1.259 . S
C247 O244 1.235 . S
O248 Co238 2.019 . S
O248 C245 1.238 . S
O249 Co243 2.052 . S
O249 C245 1.241 1_545 S
O250 Co238 2.134 1_545 S
O250 C241 1.247 . S
O251 Co238 2.235 1_545 S
O251 C241 1.272 . S
O251 Co243 2.135 . S
C252 C253 1.349 . S
C252 C254 1.327 . S
C252 H277 0.950 . S
C253 C252 1.349 . S
C253 C269 1.349 1_545 S
C254 C252 1.327 . S
C254 C273 1.429 . S
C254 H278 0.950 . S
C255 C272 1.574 . S
C255 C274 1.368 1_566 S
C255 H279 0.949 . S
H256 C260 0.946 1_554 S
C257 C258 1.349 . S
C257 C259 1.327 . S
C257 H280 0.950 . S
C258 C257 1.349 . S
C258 C270 1.349 . S
C259 C257 1.327 . S
C259 C275 1.429 . S
C259 H281 0.950 . S
C260 H256 0.946 1_556 S
C260 C268 1.556 1_556 S
C260 C276 1.390 1_545 S
H261 C269 0.950 . S
H262 C267 0.950 . S
H263 C268 0.949 . S
H264 C270 0.950 1_545 S
H265 C271 0.950 . S
H266 C272 0.949 . S
C267 H262 0.950 . S
C267 C269 1.327 . S
C267 C273 1.429 1_565 S
C268 C260 1.556 1_554 S
C268 H263 0.949 . S
C268 C274 1.368 . S
C269 C253 1.349 1_565 S
C269 H261 0.950 . S
C269 C267 1.327 . S
C270 C258 1.349 . S
C270 H264 0.950 1_565 S
C270 C271 1.327 1_565 S
C271 H265 0.950 . S
C271 C270 1.327 1_545 S
C271 C275 1.429 1_545 S
C272 C255 1.574 . S
C272 H266 0.949 . S
C272 C276 1.368 . S
C273 C254 1.429 . S
C273 C267 1.429 1_545 S
C273 C274 1.523 . S
C274 C255 1.368 1_544 S
C274 C268 1.368 . S
C274 C273 1.523 . S
C275 C259 1.429 . S
C275 C271 1.429 1_565 S
C275 C276 1.523 . S
C276 C260 1.390 1_565 S
C276 C272 1.368 . S
C276 C275 1.523 . S
H277 C252 0.950 . S
H278 C254 0.950 . S
H279 C255 0.949 . S
H280 C257 0.950 . S
H281 C259 0.950 . S
C282 C283 1.349 . S
C282 C284 1.327 . S
C282 H307 0.950 . S
C283 C282 1.349 . S
C283 C299 1.349 . S
C284 C282 1.327 . S
C284 C303 1.429 . S
C284 H308 0.958 . S
C285 C302 1.574 . S
C285 C304 1.368 1_455 S
C285 H309 0.949 . S
H286 C290 0.949 . S
C287 C288 1.349 . S
C287 C289 1.327 . S
C287 H310 0.950 . S
C288 C287 1.349 . S
C288 C300 1.349 . S
C289 C287 1.327 . S
C289 C305 1.429 . S
C289 H311 0.950 1_556 S
C290 H286 0.949 . S
C290 C298 1.574 . S
C290 C306 1.368 1_655 S
H291 C299 0.950 . S
H292 C297 0.950 1_455 S
H293 C298 0.949 . S
H294 C300 0.950 1_655 S
H295 C301 0.950 . S
H296 C302 0.949 . S
C297 H292 0.950 1_655 S
C297 C299 1.327 . S
C297 C303 1.429 . S
C298 C290 1.574 . S
C298 H293 0.949 . S
C298 C304 1.368 1_556 S
C299 C283 1.349 . S
C299 H291 0.950 . S
C299 C297 1.327 . S
C300 C288 1.349 . S
C300 H294 0.950 1_455 S
C300 C301 1.327 1_455 S
C301 H295 0.950 . S
C301 C300 1.327 1_655 S
C301 C305 1.429 1_655 S
C302 C285 1.574 . S
C302 H296 0.949 . S
C302 C306 1.368 1_554 S
C303 C284 1.429 . S
C303 C297 1.429 . S
C303 C304 1.523 . S
C304 C285 1.368 1_655 S
C304 C298 1.368 1_554 S
C304 C303 1.523 . S
C305 C289 1.429 . S
C305 C301 1.429 1_455 S
C305 C306 1.523 . S
C306 C290 1.368 1_455 S
C306 C302 1.368 1_556 S
C306 C305 1.523 . S
H307 C282 0.950 . S
H308 C284 0.958 . S
H309 C285 0.949 . S
H310 C287 0.950 . S
H311 C289 0.950 1_554 S
C312 C313 1.349 . S
C312 C314 1.327 . S
C312 H337 0.950 . S
C313 C312 1.349 . S
C313 C329 1.349 . S
C314 C312 1.327 . S
C314 C333 1.429 . S
C314 H338 0.950 . S
C315 C332 1.574 . S
C315 C334 1.368 . S
C315 H339 0.949 . S
H316 C320 0.949 . S
C317 C318 1.349 . S
C317 C319 1.327 . S
C317 H340 0.950 . S
C318 C317 1.349 . S
C318 C330 1.349 . S
C319 C317 1.327 . S
C319 C335 1.429 . S
C319 H341 0.950 . S
C320 H316 0.949 . S
C320 C328 1.574 1_554 S
C320 C336 1.368 . S
H321 C329 0.950 . S
H322 C327 0.950 . S
H323 C328 0.949 . S
H324 C330 0.950 . S
H325 C331 0.950 . S
H326 C332 0.949 . S
C327 H322 0.950 . S
C327 C329 1.327 . S
C327 C333 1.429 . S
C328 C320 1.574 1_556 S
C328 H323 0.949 . S
C328 C334 1.368 . S
C329 C313 1.349 . S
C329 H321 0.950 . S
C329 C327 1.327 . S
C330 C318 1.349 . S
C330 H324 0.950 . S
C330 C331 1.327 . S
C331 H325 0.950 . S
C331 C330 1.327 . S
C331 C335 1.429 . S
C332 C315 1.574 . S
C332 H326 0.949 . S
C332 C336 1.368 1_556 S
C333 C314 1.429 . S
C333 C327 1.429 . S
C333 C334 1.523 . S
C334 C315 1.368 . S
C334 C328 1.368 . S
C334 C333 1.523 . S
C335 C319 1.429 . S
C335 C331 1.429 . S
C335 C336 1.523 . S
C336 C320 1.368 . S
C336 C332 1.368 1_554 S
C336 C335 1.523 . S
H337 C312 0.950 . S
H338 C314 0.950 . S
H339 C315 0.949 . S
H340 C317 0.950 . S
H341 C319 0.950 . S
C342 C343 1.349 . S
C342 C344 1.327 . S
C342 H367 0.950 . S
C343 C342 1.349 . S
C343 C359 1.349 . S
C344 C342 1.327 . S
C344 C363 1.429 . S
C344 H368 0.950 . S
C345 C362 1.574 . S
C345 C364 1.368 . S
C345 H369 0.949 . S
H346 C350 0.949 . S
C347 C348 1.349 . S
C347 C349 1.327 . S
C347 H370 0.950 . S
C348 C347 1.349 . S
C348 C360 1.349 . S
C349 C347 1.327 . S
C349 C365 1.429 . S
C349 H371 0.950 . S
C350 H346 0.949 . S
C350 C358 1.574 . S
C350 C366 1.368 . S
H351 C359 0.950 . S
H352 C357 0.950 . S
H353 C358 0.949 . S
H354 C360 0.950 . S
H355 C361 0.950 . S
H356 C362 0.949 . S
C357 H352 0.950 . S
C357 C359 1.327 . S
C357 C363 1.429 . S
C358 C350 1.574 . S
C358 H353 0.949 . S
C358 C364 1.368 . S
C359 C343 1.349 . S
C359 H351 0.950 . S
C359 C357 1.327 . S
C360 C348 1.349 . S
C360 H354 0.950 . S
C360 C361 1.327 . S
C361 H355 0.950 . S
C361 C360 1.327 . S
C361 C365 1.429 . S
C362 C345 1.574 . S
C362 H356 0.949 . S
C362 C366 1.368 . S
C363 C344 1.429 . S
C363 C357 1.429 . S
C363 C364 1.523 . S
C364 C345 1.368 . S
C364 C358 1.368 . S
C364 C363 1.523 . S
C365 C349 1.429 . S
C365 C361 1.429 . S
C365 C366 1.523 . S
C366 C350 1.368 . S
C366 C362 1.368 . S
C366 C365 1.523 . S
H367 C342 0.950 . S
H368 C344 0.950 . S
H369 C345 0.949 . S
H370 C347 0.950 . S
H371 C349 0.950 . S
C372 C373 1.349 . S
C372 C374 1.327 . S
C372 H397 0.950 . S
C373 C372 1.349 . S
C373 C389 1.349 . S
C374 C372 1.327 . S
C374 C393 1.429 . S
C374 H398 0.950 . S
C375 C392 1.574 . S
C375 C394 1.368 . S
C375 H399 0.949 . S
H376 C380 0.949 . S
C377 C378 1.349 . S
C377 C379 1.327 . S
C377 H400 0.950 . S
C378 C377 1.349 . S
C378 C390 1.349 . S
C379 C377 1.327 . S
C379 C395 1.429 . S
C379 H401 0.950 . S
C380 H376 0.949 . S
C380 C388 1.574 . S
C380 C396 1.368 . S
H381 C389 0.950 . S
H382 C387 0.950 . S
H383 C388 0.949 . S
H384 C390 0.950 . S
H385 C391 0.950 . S
H386 C392 0.949 . S
C387 H382 0.950 . S
C387 C389 1.327 . S
C387 C393 1.429 . S
C388 C380 1.574 . S
C388 H383 0.949 . S
C388 C394 1.368 . S
C389 C373 1.349 . S
C389 H381 0.950 . S
C389 C387 1.327 . S
C390 C378 1.349 . S
C390 H384 0.950 . S
C390 C391 1.327 . S
C391 H385 0.950 . S
C391 C390 1.327 . S
C391 C395 1.429 . S
C392 C375 1.574 . S
C392 H386 0.949 . S
C392 C396 1.368 . S
C393 C374 1.429 . S
C393 C387 1.429 . S
C393 C394 1.523 . S
C394 C375 1.368 . S
C394 C388 1.368 . S
C394 C393 1.523 . S
C395 C379 1.429 . S
C395 C391 1.429 . S
C395 C396 1.523 . S
C396 C380 1.368 . S
C396 C392 1.368 . S
C396 C395 1.523 . S
H397 C372 0.950 . S
H398 C374 0.950 . S
H399 C375 0.949 . S
H400 C377 0.950 . S
H401 C379 0.950 . S
C402 C403 1.349 . S
C402 C404 1.327 . S
C402 H427 0.950 . S
C403 C402 1.349 . S
C403 C419 1.349 . S
C404 C402 1.327 . S
C404 C423 1.429 . S
C404 H428 0.950 . S
C405 C422 1.574 . S
C405 C424 1.368 . S
C405 H429 0.949 . S
H406 C410 0.949 . S
C407 C408 1.349 . S
C407 C409 1.327 . S
C407 H430 0.950 . S
C408 C407 1.349 . S
C408 C420 1.349 . S
C409 C407 1.327 . S
C409 C425 1.429 . S
C409 H431 0.950 . S
C410 H406 0.949 . S
C410 C418 1.574 . S
C410 C426 1.368 . S
H411 C419 0.950 . S
H412 C417 0.950 . S
H413 C418 0.949 . S
H414 C420 0.950 . S
H415 C421 0.950 . S
H416 C422 0.949 . S
C417 H412 0.950 . S
C417 C419 1.327 . S
C417 C423 1.429 . S
C418 C410 1.574 . S
C418 H413 0.949 . S
C418 C424 1.368 . S
C419 C403 1.349 . S
C419 H411 0.950 . S
C419 C417 1.327 . S
C420 C408 1.349 . S
C420 H414 0.950 . S
C420 C421 1.327 . S
C421 H415 0.950 . S
C421 C420 1.327 . S
C421 C425 1.429 . S
C422 C405 1.574 . S
C422 H416 0.949 . S
C422 C426 1.368 . S
C423 C404 1.429 . S
C423 C417 1.429 . S
C423 C424 1.523 . S
C424 C405 1.368 . S
C424 C418 1.368 . S
C424 C423 1.523 . S
C425 C409 1.429 . S
C425 C421 1.429 . S
C425 C426 1.523 . S
C426 C410 1.368 . S
C426 C422 1.368 . S
C426 C425 1.523 . S
H427 C402 0.950 . S
H428 C404 0.950 . S
H429 C405 0.949 . S
H430 C407 0.950 . S
H431 C409 0.950 . S
C432 C433 1.349 . S
C432 C434 1.327 . S
C432 H457 0.950 . S
C433 C432 1.349 . S
C433 C449 1.349 . S
C434 C432 1.327 . S
C434 C453 1.429 . S
C434 H458 0.950 . S
C435 C452 1.574 . S
C435 C454 1.368 . S
C435 H459 0.949 . S
H436 C440 0.949 . S
C437 C438 1.349 . S
C437 C439 1.327 . S
C437 H460 0.950 . S
C438 C437 1.349 . S
C438 C450 1.349 . S
C439 C437 1.327 . S
C439 C455 1.429 . S
C439 H461 0.950 . S
C440 H436 0.949 . S
C440 C448 1.574 . S
C440 C456 1.368 . S
H441 C449 0.950 . S
H442 C447 0.950 . S
H443 C448 0.949 . S
H444 C450 0.950 . S
H445 C451 0.950 . S
H446 C452 0.949 . S
C447 H442 0.950 . S
C447 C449 1.327 . S
C447 C453 1.429 . S
C448 C440 1.574 . S
C448 H443 0.949 . S
C448 C454 1.368 . S
C449 C433 1.349 . S
C449 H441 0.950 . S
C449 C447 1.327 . S
C450 C438 1.349 . S
C450 H444 0.950 . S
C450 C451 1.327 . S
C451 H445 0.950 . S
C451 C450 1.327 . S
C451 C455 1.429 . S
C452 C435 1.574 . S
C452 H446 0.949 . S
C452 C456 1.368 . S
C453 C434 1.429 . S
C453 C447 1.429 . S
C453 C454 1.523 . S
C454 C435 1.368 . S
C454 C448 1.368 . S
C454 C453 1.523 . S
C455 C439 1.429 . S
C455 C451 1.429 . S
C455 C456 1.523 . S
C456 C440 1.368 . S
C456 C452 1.368 . S
C456 C455 1.523 . S
H457 C432 0.950 . S
H458 C434 0.950 . S
H459 C435 0.949 . S
H460 C437 0.950 . S
H461 C439 0.950 . S
C462 C463 1.349 . S
C462 C464 1.327 . S
C462 H487 0.950 . S
C463 C462 1.349 . S
C463 C479 1.349 . S
C464 C462 1.327 . S
C464 C483 1.429 . S
C464 H488 0.950 . S
C465 C482 1.574 . S
C465 C484 1.368 . S
C465 H489 0.949 . S
H466 C470 0.949 . S
C467 C468 1.349 . S
C467 C469 1.327 . S
C467 H490 0.950 . S
C468 C467 1.349 . S
C468 C480 1.349 . S
C469 C467 1.327 . S
C469 C485 1.429 . S
C469 H491 0.950 . S
C470 H466 0.949 . S
C470 C478 1.574 . S
C470 C486 1.368 . S
H471 C479 0.950 . S
H472 C477 0.950 . S
H473 C478 0.949 . S
H474 C480 0.950 . S
H475 C481 0.950 . S
H476 C482 0.949 . S
C477 H472 0.950 . S
C477 C479 1.327 . S
C477 C483 1.429 . S
C478 C470 1.574 . S
C478 H473 0.949 . S
C478 C484 1.368 . S
C479 C463 1.349 . S
C479 H471 0.950 . S
C479 C477 1.327 . S
C480 C468 1.349 . S
C480 H474 0.950 . S
C480 C481 1.327 . S
C481 H475 0.950 . S
C481 C480 1.327 . S
C481 C485 1.429 . S
C482 C465 1.574 . S
C482 H476 0.949 . S
C482 C486 1.368 . S
C483 C464 1.429 . S
C483 C477 1.429 . S
C483 C484 1.523 . S
C484 C465 1.368 . S
C484 C478 1.368 . S
C484 C483 1.523 . S
C485 C469 1.429 . S
C485 C481 1.429 . S
C485 C486 1.523 . S
C486 C470 1.368 . S
C486 C482 1.368 . S
C486 C485 1.523 . S
H487 C462 0.950 . S
H488 C464 0.950 . S
H489 C465 0.949 . S
H490 C467 0.950 . S
H491 C469 0.950 . S
C492 C493 1.349 . S
C492 C494 1.327 . S
C492 H517 0.950 . S
C493 C492 1.349 . S
C493 C509 1.349 . S
C494 C492 1.327 . S
C494 C513 1.429 . S
C494 H518 0.950 . S
C495 C512 1.574 . S
C495 C514 1.368 . S
C495 H519 0.949 . S
H496 C500 0.949 . S
C497 C498 1.349 . S
C497 C499 1.327 . S
C497 H520 0.950 . S
C498 C497 1.349 . S
C498 C510 1.349 . S
C499 C497 1.327 . S
C499 C515 1.429 . S
C499 H521 0.950 . S
C500 H496 0.949 . S
C500 C508 1.574 . S
C500 C516 1.368 . S
H501 C509 0.950 . S
H502 C507 0.950 . S
H503 C508 0.949 . S
H504 C510 0.950 . S
H505 C511 0.950 . S
H506 C512 0.949 . S
C507 H502 0.950 . S
C507 C509 1.327 . S
C507 C513 1.429 . S
C508 C500 1.574 . S
C508 H503 0.949 . S
C508 C514 1.368 . S
C509 C493 1.349 . S
C509 H501 0.950 . S
C509 C507 1.327 . S
C510 C498 1.349 . S
C510 H504 0.950 . S
C510 C511 1.327 . S
C511 H505 0.950 . S
C511 C510 1.327 . S
C511 C515 1.429 . S
C512 C495 1.574 . S
C512 H506 0.949 . S
C512 C516 1.368 . S
C513 C494 1.429 . S
C513 C507 1.429 . S
C513 C514 1.523 . S
C514 C495 1.368 . S
C514 C508 1.368 . S
C514 C513 1.523 . S
C515 C499 1.429 . S
C515 C511 1.429 . S
C515 C516 1.523 . S
C516 C500 1.368 . S
C516 C512 1.368 . S
C516 C515 1.523 . S
H517 C492 0.950 . S
H518 C494 0.950 . S
H519 C495 0.949 . S
H520 C497 0.950 . S
H521 C499 0.950 . S
C522 C523 1.349 . S
C522 C524 1.327 . S
C522 H547 0.950 . S
C523 C522 1.349 . S
C523 C539 1.349 . S
C524 C522 1.327 . S
C524 C543 1.429 . S
C524 H548 0.950 . S
C525 C542 1.574 . S
C525 C544 1.368 . S
C525 H549 0.949 . S
H526 C530 0.949 . S
C527 C528 1.349 . S
C527 C529 1.327 . S
C527 H550 0.950 . S
C528 C527 1.349 . S
C528 C540 1.349 . S
C529 C527 1.327 . S
C529 C545 1.429 . S
C529 H551 0.950 . S
C530 H526 0.949 . S
C530 C538 1.574 . S
C530 C546 1.368 . S
H531 C539 0.950 . S
H532 C537 0.950 . S
H533 C538 0.949 . S
H534 C540 0.950 . S
H535 C541 0.950 . S
H536 C542 0.949 . S
C537 H532 0.950 . S
C537 C539 1.327 . S
C537 C543 1.429 . S
C538 C530 1.574 . S
C538 H533 0.949 . S
C538 C544 1.368 . S
C539 C523 1.349 . S
C539 H531 0.950 . S
C539 C537 1.327 . S
C540 C528 1.349 . S
C540 H534 0.950 . S
C540 C541 1.327 . S
C541 H535 0.950 . S
C541 C540 1.327 . S
C541 C545 1.429 . S
C542 C525 1.574 . S
C542 H536 0.949 . S
C542 C546 1.368 . S
C543 C524 1.429 . S
C543 C537 1.429 . S
C543 C544 1.523 . S
C544 C525 1.368 . S
C544 C538 1.368 . S
C544 C543 1.523 . S
C545 C529 1.429 . S
C545 C541 1.429 . S
C545 C546 1.523 . S
C546 C530 1.368 . S
C546 C542 1.368 . S
C546 C545 1.523 . S
H547 C522 0.950 . S
H548 C524 0.950 . S
H549 C525 0.949 . S
H550 C527 0.950 . S
H551 C529 0.950 . S
C552 C553 1.349 . S
C552 C554 1.327 . S
C552 H577 0.950 . S
C553 C552 1.349 . S
C553 C569 1.349 . S
C554 C552 1.327 . S
C554 C573 1.429 . S
C554 H578 0.950 . S
C555 C572 1.574 . S
C555 C574 1.368 . S
C555 H579 0.949 . S
H556 C560 0.949 . S
C557 C558 1.349 . S
C557 C559 1.327 . S
C557 H580 0.950 . S
C558 C557 1.349 . S
C558 C570 1.349 . S
C559 C557 1.327 . S
C559 C575 1.429 . S
C559 H581 0.950 . S
C560 H556 0.949 . S
C560 C568 1.574 . S
C560 C576 1.368 . S
H561 C569 0.950 . S
H562 C567 0.950 . S
H563 C568 0.949 . S
H564 C570 0.950 . S
H565 C571 0.950 . S
H566 C572 0.949 . S
C567 H562 0.950 . S
C567 C569 1.327 . S
C567 C573 1.429 . S
C568 C560 1.574 . S
C568 H563 0.949 . S
C568 C574 1.368 . S
C569 C553 1.349 . S
C569 H561 0.950 . S
C569 C567 1.327 . S
C570 C558 1.349 . S
C570 H564 0.950 . S
C570 C571 1.327 . S
C571 H565 0.950 . S
C571 C570 1.327 . S
C571 C575 1.429 . S
C572 C555 1.574 . S
C572 H566 0.949 . S
C572 C576 1.368 . S
C573 C554 1.429 . S
C573 C567 1.429 . S
C573 C574 1.523 . S
C574 C555 1.368 . S
C574 C568 1.368 . S
C574 C573 1.523 . S
C575 C559 1.429 . S
C575 C571 1.429 . S
C575 C576 1.523 . S
C576 C560 1.368 . S
C576 C572 1.368 . S
C576 C575 1.523 . S
H577 C552 0.950 . S
H578 C554 0.950 . S
H579 C555 0.949 . S
H580 C557 0.950 . S
H581 C559 0.950 . S
C582 C583 1.349 . S
C582 C584 1.327 . S
C582 H607 0.950 . S
C583 C582 1.349 . S
C583 C599 1.349 . S
C584 C582 1.327 . S
C584 C603 1.429 . S
C584 H608 0.950 . S
C585 C602 1.574 . S
C585 C604 1.368 . S
C585 H609 0.949 . S
H586 C590 0.949 . S
C587 C588 1.349 . S
C587 C589 1.327 . S
C587 H610 0.950 . S
C588 C587 1.349 . S
C588 C600 1.349 . S
C589 C587 1.327 . S
C589 C605 1.429 . S
C589 H611 0.950 . S
C590 H586 0.949 . S
C590 C598 1.574 . S
C590 C606 1.368 . S
H591 C599 0.950 . S
H592 C597 0.950 . S
H593 C598 0.949 . S
H594 C600 0.950 . S
H595 C601 0.950 . S
H596 C602 0.949 . S
C597 H592 0.950 . S
C597 C599 1.327 . S
C597 C603 1.429 . S
C598 C590 1.574 . S
C598 H593 0.949 . S
C598 C604 1.368 . S
C599 C583 1.349 . S
C599 H591 0.950 . S
C599 C597 1.327 . S
C600 C588 1.349 . S
C600 H594 0.950 . S
C600 C601 1.327 . S
C601 H595 0.950 . S
C601 C600 1.327 . S
C601 C605 1.429 . S
C602 C585 1.574 . S
C602 H596 0.949 . S
C602 C606 1.368 . S
C603 C584 1.429 . S
C603 C597 1.429 . S
C603 C604 1.523 . S
C604 C585 1.368 . S
C604 C598 1.368 . S
C604 C603 1.523 . S
C605 C589 1.429 . S
C605 C601 1.429 . S
C605 C606 1.523 . S
C606 C590 1.368 . S
C606 C602 1.368 . S
C606 C605 1.523 . S
H607 C582 0.950 . S
H608 C584 0.950 . S
H609 C585 0.949 . S
H610 C587 0.950 . S
H611 C589 0.950 . S
C612 C613 1.349 . S
C612 C614 1.327 . S
C612 H637 0.950 . S
C613 C612 1.349 . S
C613 C629 1.349 . S
C614 C612 1.327 . S
C614 C633 1.429 . S
C614 H638 0.950 . S
C615 C632 1.574 . S
C615 C634 1.368 . S
C615 H639 0.949 . S
H616 C620 0.949 . S
C617 C618 1.349 . S
C617 C619 1.327 . S
C617 H640 0.950 . S
C618 C617 1.349 . S
C618 C630 1.349 . S
C619 C617 1.327 . S
C619 C635 1.429 . S
C619 H641 0.950 . S
C620 H616 0.949 . S
C620 C628 1.574 . S
C620 C636 1.368 . S
H621 C629 0.950 . S
H622 C627 0.950 . S
H623 C628 0.949 . S
H624 C630 0.950 . S
H625 C631 0.950 . S
H626 C632 0.949 . S
C627 H622 0.950 . S
C627 C629 1.327 . S
C627 C633 1.429 . S
C628 C620 1.574 . S
C628 H623 0.949 . S
C628 C634 1.368 . S
C629 C613 1.349 . S
C629 H621 0.950 . S
C629 C627 1.327 . S
C630 C618 1.349 . S
C630 H624 0.950 . S
C630 C631 1.327 . S
C631 H625 0.950 . S
C631 C630 1.327 . S
C631 C635 1.429 . S
C632 C615 1.574 . S
C632 H626 0.949 . S
C632 C636 1.368 . S
C633 C614 1.429 . S
C633 C627 1.429 . S
C633 C634 1.523 . S
C634 C615 1.368 . S
C634 C628 1.368 . S
C634 C633 1.523 . S
C635 C619 1.429 . S
C635 C631 1.429 . S
C635 C636 1.523 . S
C636 C620 1.368 . S
C636 C632 1.368 . S
C636 C635 1.523 . S
H637 C612 0.950 . S
H638 C614 0.950 . S
H639 C615 0.949 . S
H640 C617 0.950 . S
H641 C619 0.950 . S
C642 C643 1.349 . S
C642 C644 1.327 . S
C642 H667 0.950 . S
C643 C642 1.349 . S
C643 C659 1.349 . S
C644 C642 1.327 . S
C644 C663 1.429 . S
C644 H668 0.950 . S
C645 C662 1.574 . S
C645 C664 1.368 . S
C645 H669 0.949 . S
H646 C650 0.949 . S
C647 C648 1.349 . S
C647 C649 1.327 . S
C647 H670 0.950 . S
C648 C647 1.349 . S
C648 C660 1.349 . S
C649 C647 1.327 . S
C649 C665 1.429 . S
C649 H671 0.950 . S
C650 H646 0.949 . S
C650 C658 1.574 . S
C650 C666 1.368 . S
H651 C659 0.950 . S
H652 C657 0.950 . S
H653 C658 0.949 . S
H654 C660 0.950 . S
H655 C661 0.950 . S
H656 C662 0.949 . S
C657 H652 0.950 . S
C657 C659 1.327 . S
C657 C663 1.429 . S
C658 C650 1.574 . S
C658 H653 0.949 . S
C658 C664 1.368 . S
C659 C643 1.349 . S
C659 H651 0.950 . S
C659 C657 1.327 . S
C660 C648 1.349 . S
C660 H654 0.950 . S
C660 C661 1.327 . S
C661 H655 0.950 . S
C661 C660 1.327 . S
C661 C665 1.429 . S
C662 C645 1.574 . S
C662 H656 0.949 . S
C662 C666 1.368 . S
C663 C644 1.429 . S
C663 C657 1.429 . S
C663 C664 1.523 . S
C664 C645 1.368 . S
C664 C658 1.368 . S
C664 C663 1.523 . S
C665 C649 1.429 . S
C665 C661 1.429 . S
C665 C666 1.523 . S
C666 C650 1.368 . S
C666 C662 1.368 . S
C666 C665 1.523 . S
H667 C642 0.950 . S
H668 C644 0.950 . S
H669 C645 0.949 . S
H670 C647 0.950 . S
H671 C649 0.950 . S
C672 C673 1.349 . S
C672 C674 1.327 . S
C672 H697 0.950 . S
C673 C672 1.349 . S
C673 C689 1.349 . S
C674 C672 1.327 . S
C674 C693 1.429 . S
C674 H698 0.950 . S
C675 C692 1.574 . S
C675 C694 1.368 . S
C675 H699 0.949 . S
H676 C680 0.949 . S
C677 C678 1.349 . S
C677 C679 1.327 . S
C677 H700 0.950 . S
C678 C677 1.349 . S
C678 C690 1.349 . S
C679 C677 1.327 . S
C679 C695 1.429 . S
C679 H701 0.950 . S
C680 H676 0.949 . S
C680 C688 1.574 . S
C680 C696 1.368 . S
H681 C689 0.950 . S
H682 C687 0.950 . S
H683 C688 0.949 . S
H684 C690 0.950 . S
H685 C691 0.950 . S
H686 C692 0.949 . S
C687 H682 0.950 . S
C687 C689 1.327 . S
C687 C693 1.429 . S
C688 C680 1.574 . S
C688 H683 0.949 . S
C688 C694 1.368 . S
C689 C673 1.349 . S
C689 H681 0.950 . S
C689 C687 1.327 . S
C690 C678 1.349 . S
C690 H684 0.950 . S
C690 C691 1.327 . S
C691 H685 0.950 . S
C691 C690 1.327 . S
C691 C695 1.429 . S
C692 C675 1.574 . S
C692 H686 0.949 . S
C692 C696 1.368 . S
C693 C674 1.429 . S
C693 C687 1.429 . S
C693 C694 1.523 . S
C694 C675 1.368 . S
C694 C688 1.368 . S
C694 C693 1.523 . S
C695 C679 1.429 . S
C695 C691 1.429 . S
C695 C696 1.523 . S
C696 C680 1.368 . S
C696 C692 1.368 . S
C696 C695 1.523 . S
H697 C672 0.950 . S
H698 C674 0.950 . S
H699 C675 0.949 . S
H700 C677 0.950 . S
H701 C679 0.950 . S
C702 C703 1.349 . S
C702 C704 1.327 . S
C702 H727 0.950 . S
C703 C702 1.349 . S
C703 C719 1.349 . S
C704 C702 1.327 . S
C704 C723 1.429 . S
C704 H728 0.950 . S
C705 C722 1.574 . S
C705 C724 1.368 1_655 S
C705 H729 0.949 . S
H706 C710 0.949 . S
C707 C708 1.349 . S
C707 C709 1.327 . S
C707 H730 0.950 . S
C708 C707 1.349 . S
C708 C720 1.349 . S
C709 C707 1.327 . S
C709 C725 1.429 . S
C709 H731 0.950 . S
C710 H706 0.949 . S
C710 C718 1.574 . S
C710 C726 1.368 1_455 S
H711 C719 0.950 . S
H712 C717 0.950 1_655 S
H713 C718 0.949 . S
H714 C720 0.950 . S
H715 C721 0.950 . S
H716 C722 0.949 . S
C717 H712 0.950 1_455 S
C717 C719 1.327 . S
C717 C723 1.429 . S
C718 C710 1.574 . S
C718 H713 0.949 . S
C718 C724 1.368 . S
C719 C703 1.349 . S
C719 H711 0.950 . S
C719 C717 1.327 . S
C720 C708 1.349 . S
C720 H714 0.950 . S
C720 C721 1.327 . S
C721 H715 0.950 . S
C721 C720 1.327 . S
C721 C725 1.429 . S
C722 C705 1.574 . S
C722 H716 0.949 . S
C722 C726 1.368 . S
C723 C704 1.429 . S
C723 C717 1.429 . S
C723 C724 1.523 . S
C724 C705 1.368 1_455 S
C724 C718 1.368 . S
C724 C723 1.523 . S
C725 C709 1.429 . S
C725 C721 1.429 . S
C725 C726 1.523 . S
C726 C710 1.368 1_655 S
C726 C722 1.368 . S
C726 C725 1.523 . S
H727 C702 0.950 . S
H728 C704 0.950 . S
H729 C705 0.949 . S
H730 C707 0.950 . S
H731 C709 0.950 . S
C732 C733 1.349 . S
C732 C734 1.327 . S
C732 H757 0.950 . S
C733 C732 1.349 . S
C733 C749 1.349 . S
C734 C732 1.327 . S
C734 C753 1.429 . S
C734 H758 0.950 . S
C735 C752 1.574 . S
C735 C754 1.368 . S
C735 H759 0.949 . S
H736 C740 0.949 . S
C737 C738 1.349 . S
C737 C739 1.327 . S
C737 H760 0.950 . S
C738 C737 1.349 . S
C738 C750 1.349 . S
C739 C737 1.327 . S
C739 C755 1.429 . S
C739 H761 0.950 . S
C740 H736 0.949 . S
C740 C748 1.574 . S
C740 C756 1.368 . S
H741 C749 0.950 . S
H742 C747 0.950 . S
H743 C748 0.949 . S
H744 C750 0.950 . S
H745 C751 0.950 . S
H746 C752 0.949 . S
C747 H742 0.950 . S
C747 C749 1.327 . S
C747 C753 1.429 . S
C748 C740 1.574 . S
C748 H743 0.949 . S
C748 C754 1.368 . S
C749 C733 1.349 . S
C749 H741 0.950 . S
C749 C747 1.327 . S
C750 C738 1.349 . S
C750 H744 0.950 . S
C750 C751 1.327 . S
C751 H745 0.950 . S
C751 C750 1.327 . S
C751 C755 1.429 . S
C752 C735 1.574 . S
C752 H746 0.949 . S
C752 C756 1.368 . S
C753 C734 1.429 . S
C753 C747 1.429 . S
C753 C754 1.523 . S
C754 C735 1.368 . S
C754 C748 1.368 . S
C754 C753 1.523 . S
C755 C739 1.429 . S
C755 C751 1.429 . S
C755 C756 1.523 . S
C756 C740 1.368 . S
C756 C752 1.368 . S
C756 C755 1.523 . S
H757 C732 0.950 . S
H758 C734 0.950 . S
H759 C735 0.949 . S
H760 C737 0.950 . S
H761 C739 0.950 . S
C762 C763 1.349 . S
C762 C764 1.327 . S
C762 H787 0.950 . S
C763 C762 1.349 . S
C763 C779 1.349 1_545 S
C764 C762 1.327 . S
C764 C783 1.429 . S
C764 H788 0.950 . S
C765 C782 1.574 . S
C765 C784 1.368 1_565 S
C765 H789 0.949 . S
H766 C770 0.949 . S
C767 C768 1.349 . S
C767 C769 1.327 . S
C767 H790 0.950 . S
C768 C767 1.349 . S
C768 C780 1.349 1_565 S
C769 C767 1.327 . S
C769 C785 1.429 . S
C769 H791 0.950 . S
C770 H766 0.949 . S
C770 C778 1.574 . S
C770 C786 1.365 1_545 S
H771 C779 0.950 . S
H772 C777 0.950 . S
H773 C778 0.949 . S
H774 C780 0.950 . S
H775 C781 0.950 . S
H776 C782 0.949 . S
C777 H772 0.950 . S
C777 C779 1.327 . S
C777 C783 1.429 1_565 S
C778 C770 1.574 . S
C778 H773 0.949 . S
C778 C784 1.368 . S
C779 C763 1.349 1_565 S
C779 H771 0.950 . S
C779 C777 1.327 . S
C780 C768 1.349 1_545 S
C780 H774 0.950 . S
C780 C781 1.327 . S
C781 H775 0.950 . S
C781 C780 1.327 . S
C781 C785 1.429 1_545 S
C782 C765 1.574 . S
C782 H776 0.949 . S
C782 C786 1.376 . S
C783 C764 1.429 . S
C783 C777 1.429 1_545 S
C783 C784 1.523 . S
C784 C765 1.368 1_545 S
C784 C778 1.368 . S
C784 C783 1.523 . S
C785 C769 1.429 . S
C785 C781 1.429 1_565 S
C785 C786 1.517 . S
C786 C770 1.365 1_565 S
C786 C782 1.376 . S
C786 C785 1.517 . S
H787 C762 0.950 . S
H788 C764 0.950 . S
H789 C765 0.949 . S
H790 C767 0.950 . S
H791 C769 0.950 . S
C792 C793 1.349 . S
C792 C794 1.327 . S
C792 H817 0.950 . S
C793 C792 1.349 . S
C793 C809 1.349 . S
C794 C792 1.327 . S
C794 C813 1.429 . S
C794 H818 0.950 1_554 S
C795 C812 1.574 . S
C795 C814 1.368 . S
C795 H819 0.949 . S
H796 C800 0.949 . S
C797 C798 1.349 . S
C797 C799 1.327 . S
C797 H820 0.950 . S
C798 C797 1.349 . S
C798 C810 1.349 . S
C799 C797 1.327 . S
C799 C815 1.429 . S
C799 H821 0.950 1_556 S
C800 H796 0.949 . S
C800 C808 1.574 . S
C800 C816 1.368 . S
H801 C809 0.950 . S
H802 C807 0.950 . S
H803 C808 0.949 . S
H804 C810 0.950 . S
H805 C811 0.950 . S
H806 C812 0.949 . S
C807 H802 0.950 . S
C807 C809 1.327 . S
C807 C813 1.429 . S
C808 C800 1.574 . S
C808 H803 0.949 . S
C808 C814 1.368 1_556 S
C809 C793 1.349 . S
C809 H801 0.950 . S
C809 C807 1.327 . S
C810 C798 1.349 . S
C810 H804 0.950 . S
C810 C811 1.327 . S
C811 H805 0.950 . S
C811 C810 1.327 . S
C811 C815 1.429 . S
C812 C795 1.574 . S
C812 H806 0.949 . S
C812 C816 1.368 1_554 S
C813 C794 1.429 . S
C813 C807 1.429 . S
C813 C814 1.523 . S
C814 C795 1.368 . S
C814 C808 1.368 1_554 S
C814 C813 1.523 . S
C815 C799 1.429 . S
C815 C811 1.429 . S
C815 C816 1.523 . S
C816 C800 1.368 . S
C816 C812 1.368 1_556 S
C816 C815 1.523 . S
H817 C792 0.950 . S
H818 C794 0.950 1_556 S
H819 C795 0.949 . S
H820 C797 0.950 . S
H821 C799 0.950 1_554 S
C822 C823 1.349 . S
C822 C824 1.327 . S
C822 H847 0.950 . S
C823 C822 1.349 . S
C823 C839 1.349 . S
C824 C822 1.327 . S
C824 C843 1.429 . S
C824 H848 0.950 . S
C825 C842 1.574 . S
C825 C844 1.368 1_556 S
C825 H849 0.949 . S
H826 C830 0.949 . S
C827 C828 1.349 . S
C827 C829 1.327 . S
C827 H850 0.950 . S
C828 C827 1.349 . S
C828 C840 1.349 . S
C829 C827 1.327 . S
C829 C845 1.429 . S
C829 H851 0.950 . S
C830 H826 0.949 . S
C830 C838 1.574 . S
C830 C846 1.368 1_554 S
H831 C839 0.950 1_655 S
H832 C837 0.950 . S
H833 C838 0.949 . S
H834 C840 0.950 . S
H835 C841 0.950 . S
H836 C842 0.949 . S
C837 H832 0.950 . S
C837 C839 1.327 . S
C837 C843 1.429 . S
C838 C830 1.574 . S
C838 H833 0.949 . S
C838 C844 1.368 . S
C839 C823 1.349 . S
C839 H831 0.950 1_455 S
C839 C837 1.327 . S
C840 C828 1.349 . S
C840 H834 0.950 . S
C840 C841 1.327 . S
C841 H835 0.950 . S
C841 C840 1.327 . S
C841 C845 1.429 . S
C842 C825 1.574 . S
C842 H836 0.949 . S
C842 C846 1.368 . S
C843 C824 1.429 . S
C843 C837 1.429 . S
C843 C844 1.523 . S
C844 C825 1.368 1_554 S
C844 C838 1.368 . S
C844 C843 1.523 . S
C845 C829 1.429 . S
C845 C841 1.429 . S
C845 C846 1.523 . S
C846 C830 1.368 1_556 S
C846 C842 1.368 . S
C846 C845 1.523 . S
H847 C822 0.950 . S
H848 C824 0.950 . S
H849 C825 0.949 . S
H850 C827 0.950 . S
H851 C829 0.950 . S
C852 C853 1.349 . S
C852 C854 1.327 . S
C852 H877 0.950 . S
C853 C852 1.349 . S
C853 C869 1.349 . S
C854 C852 1.327 . S
C854 C873 1.429 . S
C854 H878 0.950 . S
C855 C872 1.574 . S
C855 C874 1.368 1_556 S
C855 H879 0.949 . S
H856 C860 0.949 . S
C857 C858 1.349 . S
C857 C859 1.327 . S
C857 H880 0.950 . S
C858 C857 1.349 . S
C858 C870 1.349 . S
C859 C857 1.327 . S
C859 C875 1.429 . S
C859 H881 0.950 . S
C860 H856 0.949 . S
C860 C868 1.574 . S
C860 C876 1.368 1_554 S
H861 C869 0.950 . S
H862 C867 0.950 1_556 S
H863 C868 0.949 . S
H864 C870 0.950 . S
H865 C871 0.950 1_554 S
H866 C872 0.949 . S
C867 H862 0.950 1_554 S
C867 C869 1.327 . S
C867 C873 1.429 . S
C868 C860 1.574 . S
C868 H863 0.949 . S
C868 C874 1.368 . S
C869 C853 1.349 . S
C869 H861 0.950 . S
C869 C867 1.327 . S
C870 C858 1.349 . S
C870 H864 0.950 . S
C870 C871 1.327 . S
C871 H865 0.950 1_556 S
C871 C870 1.327 . S
C871 C875 1.429 . S
C872 C855 1.574 . S
C872 H866 0.949 . S
C872 C876 1.368 . S
C873 C854 1.429 . S
C873 C867 1.429 . S
C873 C874 1.523 . S
C874 C855 1.368 1_554 S
C874 C868 1.368 . S
C874 C873 1.523 . S
C875 C859 1.429 . S
C875 C871 1.429 . S
C875 C876 1.523 . S
C876 C860 1.368 1_556 S
C876 C872 1.368 . S
C876 C875 1.523 . S
H877 C852 0.950 . S
H878 C854 0.950 . S
H879 C855 0.949 . S
H880 C857 0.950 . S
H881 C859 0.950 . S
C882 C883 1.349 . S
C882 C884 1.327 . S
C882 H907 0.963 . S
C883 C882 1.349 . S
C883 C899 1.349 . S
C884 C882 1.327 . S
C884 C903 1.429 . S
C884 H908 0.950 1_556 S
C885 C902 1.574 . S
C885 C904 1.368 . S
C885 H909 0.949 . S
H886 C890 0.949 . S
C887 C888 1.349 . S
C887 C889 1.327 . S
C887 H910 0.950 . S
C888 C887 1.349 . S
C888 C900 1.349 . S
C889 C887 1.327 . S
C889 C905 1.429 . S
C889 H911 0.950 1_554 S
C890 H886 0.949 . S
C890 C898 1.574 . S
C890 C906 1.368 . S
H891 C899 0.950 . S
H892 C897 0.950 . S
H893 C898 0.949 . S
H894 C900 0.950 . S
H895 C901 0.950 . S
H896 C902 0.949 . S
C897 H892 0.950 . S
C897 C899 1.327 . S
C897 C903 1.429 . S
C898 C890 1.574 . S
C898 H893 0.949 . S
C898 C904 1.368 1_554 S
C899 C883 1.349 . S
C899 H891 0.950 . S
C899 C897 1.327 . S
C900 C888 1.349 . S
C900 H894 0.950 . S
C900 C901 1.327 . S
C901 H895 0.950 . S
C901 C900 1.327 . S
C901 C905 1.429 . S
C902 C885 1.574 . S
C902 H896 0.949 . S
C902 C906 1.368 1_556 S
C903 C884 1.429 . S
C903 C897 1.429 . S
C903 C904 1.523 . S
C904 C885 1.368 . S
C904 C898 1.368 1_556 S
C904 C903 1.523 . S
C905 C889 1.429 . S
C905 C901 1.429 . S
C905 C906 1.523 . S
C906 C890 1.368 . S
C906 C902 1.368 1_554 S
C906 C905 1.523 . S
H907 C882 0.963 . S
H908 C884 0.950 1_554 S
H909 C885 0.949 . S
H910 C887 0.950 . S
H911 C889 0.950 1_556 S
C912 C913 1.349 . S
C912 C914 1.327 . S
C912 H937 0.950 . S
C913 C912 1.349 . S
C913 C929 1.349 . S
C914 C912 1.327 . S
C914 C933 1.429 . S
C914 H938 0.950 . S
C915 C932 1.574 1_554 S
C915 C934 1.368 . S
C915 H939 0.949 . S
H916 C920 0.949 . S
C917 C918 1.349 . S
C917 C919 1.327 . S
C917 H940 0.950 1_655 S
C918 C917 1.349 . S
C918 C930 1.349 . S
C919 C917 1.327 . S
C919 C935 1.429 . S
C919 H941 0.950 . S
C920 H916 0.949 . S
C920 C928 1.574 . S
C920 C936 1.368 . S
H921 C929 0.950 . S
H922 C927 0.950 . S
H923 C928 0.949 . S
H924 C930 0.950 . S
H925 C931 0.950 . S
H926 C932 0.948 1_554 S
C927 H922 0.950 . S
C927 C929 1.327 . S
C927 C933 1.429 . S
C928 C920 1.574 . S
C928 H923 0.949 . S
C928 C934 1.368 1_556 S
C929 C913 1.349 . S
C929 H921 0.950 . S
C929 C927 1.327 . S
C930 C918 1.349 . S
C930 H924 0.950 . S
C930 C931 1.327 . S
C931 H925 0.950 . S
C931 C930 1.327 . S
C931 C935 1.429 . S
C932 C915 1.574 1_556 S
C932 H926 0.948 1_556 S
C932 C936 1.368 . S
C933 C914 1.429 . S
C933 C927 1.429 . S
C933 C934 1.523 . S
C934 C915 1.368 . S
C934 C928 1.368 1_554 S
C934 C933 1.523 . S
C935 C919 1.429 . S
C935 C931 1.429 . S
C935 C936 1.523 . S
C936 C920 1.368 . S
C936 C932 1.368 . S
C936 C935 1.523 . S
H937 C912 0.950 . S
H938 C914 0.950 . S
H939 C915 0.949 . S
H940 C917 0.950 1_455 S
H941 C919 0.950 . S
C942 C943 1.349 . S
C942 C944 1.327 . S
C942 H967 0.950 . S
C943 C942 1.349 . S
C943 C959 1.349 . S
C944 C942 1.327 . S
C944 C963 1.429 . S
C944 H968 0.950 . S
C945 C962 1.574 . S
C945 C964 1.368 1_554 S
C945 H969 0.949 . S
H946 C950 0.949 . S
C947 C948 1.349 . S
C947 C949 1.327 . S
C947 H970 0.950 . S
C948 C947 1.349 . S
C948 C960 1.349 . S
C949 C947 1.327 . S
C949 C965 1.429 . S
C949 H971 0.950 . S
C950 H946 0.949 . S
C950 C958 1.574 . S
C950 C966 1.368 1_556 S
H951 C959 0.950 . S
H952 C957 0.950 1_554 S
H953 C958 0.949 . S
H954 C960 0.980 . S
H955 C961 0.910 1_556 S
H956 C962 0.949 . S
C957 H952 0.950 1_556 S
C957 C959 1.327 . S
C957 C963 1.429 . S
C958 C950 1.574 . S
C958 H953 0.949 . S
C958 C964 1.368 . S
C959 C943 1.349 . S
C959 H951 0.950 . S
C959 C957 1.327 . S
C960 C948 1.349 . S
C960 H954 0.980 . S
C960 C961 1.345 . S
C961 H955 0.910 1_554 S
C961 C960 1.345 . S
C961 C965 1.451 . S
C962 C945 1.574 . S
C962 H956 0.949 . S
C962 C966 1.368 . S
C963 C944 1.429 . S
C963 C957 1.429 . S
C963 C964 1.523 . S
C964 C945 1.368 1_556 S
C964 C958 1.368 . S
C964 C963 1.523 . S
C965 C949 1.429 . S
C965 C961 1.451 . S
C965 C966 1.523 . S
C966 C950 1.368 1_554 S
C966 C962 1.368 . S
C966 C965 1.523 . S
H967 C942 0.950 . S
H968 C944 0.950 . S
H969 C945 0.949 . S
H970 C947 0.950 . S
H971 C949 0.950 . S
C972 C973 1.349 . S
C972 C974 1.327 . S
C972 H997 0.950 . S
C973 C972 1.349 . S
C973 C989 1.349 . S
C974 C972 1.327 . S
C974 C993 1.429 . S
C974 H998 0.950 . S
C975 C992 1.574 . S
C975 C994 1.368 . S
C975 H999 0.949 . S
H976 C980 0.949 . S
C977 C978 1.349 . S
C977 C979 1.327 . S
C977 H1000 0.950 . S
C978 C977 1.349 . S
C978 C990 1.349 . S
C979 C977 1.327 . S
C979 C995 1.429 . S
C979 H1001 0.950 . S
C980 H976 0.949 . S
C980 C988 1.574 . S
C980 C996 1.368 . S
H981 C989 0.950 . S
H982 C987 0.950 . S
H983 C988 0.949 . S
H984 C990 0.950 . S
H985 C991 0.950 . S
H986 C992 0.949 . S
C987 H982 0.950 . S
C987 C989 1.327 . S
C987 C993 1.429 . S
C988 C980 1.574 . S
C988 H983 0.949 . S
C988 C994 1.368 . S
C989 C973 1.349 . S
C989 H981 0.950 . S
C989 C987 1.327 . S
C990 C978 1.349 . S
C990 H984 0.950 . S
C990 C991 1.327 . S
C991 H985 0.950 . S
C991 C990 1.327 . S
C991 C995 1.429 . S
C992 C975 1.574 . S
C992 H986 0.949 . S
C992 C996 1.368 . S
C993 C974 1.429 . S
C993 C987 1.429 . S
C993 C994 1.523 . S
C994 C975 1.368 . S
C994 C988 1.368 . S
C994 C993 1.523 . S
C995 C979 1.429 . S
C995 C991 1.429 . S
C995 C996 1.523 . S
C996 C980 1.368 . S
C996 C992 1.368 . S
C996 C995 1.523 . S
H997 C972 0.950 . S
H998 C974 0.950 . S
H999 C975 0.949 . S
H1000 C977 0.950 . S
H1001 C979 0.950 . S
C1002 C1003 1.349 . S
C1002 C1004 1.327 . S
C1002 H1027 0.950 . S
C1003 C1002 1.349 . S
C1003 C1019 1.349 . S
C1004 C1002 1.327 . S
C1004 C1023 1.429 . S
C1004 H1028 0.950 . S
C1005 C1022 1.574 . S
C1005 C1024 1.368 . S
C1005 H1029 0.949 . S
H1006 C1010 0.949 . S
C1007 C1008 1.349 . S
C1007 C1009 1.327 . S
C1007 H1030 0.950 . S
C1008 C1007 1.349 . S
C1008 C1020 1.349 . S
C1009 C1007 1.327 . S
C1009 C1025 1.429 . S
C1009 H1031 0.950 . S
C1010 H1006 0.949 . S
C1010 C1018 1.574 . S
C1010 C1026 1.368 . S
H1011 C1019 0.950 . S
H1012 C1017 0.950 . S
H1013 C1018 0.949 . S
H1014 C1020 0.950 . S
H1015 C1021 0.950 . S
H1016 C1022 0.949 . S
C1017 H1012 0.950 . S
C1017 C1019 1.327 . S
C1017 C1023 1.429 . S
C1018 C1010 1.574 . S
C1018 H1013 0.949 . S
C1018 C1024 1.368 . S
C1019 C1003 1.349 . S
C1019 H1011 0.950 . S
C1019 C1017 1.327 . S
C1020 C1008 1.349 . S
C1020 H1014 0.950 . S
C1020 C1021 1.327 . S
C1021 H1015 0.950 . S
C1021 C1020 1.327 . S
C1021 C1025 1.429 . S
C1022 C1005 1.574 . S
C1022 H1016 0.949 . S
C1022 C1026 1.368 . S
C1023 C1004 1.429 . S
C1023 C1017 1.429 . S
C1023 C1024 1.523 . S
C1024 C1005 1.368 . S
C1024 C1018 1.368 . S
C1024 C1023 1.523 . S
C1025 C1009 1.429 . S
C1025 C1021 1.429 . S
C1025 C1026 1.523 . S
C1026 C1010 1.368 . S
C1026 C1022 1.368 . S
C1026 C1025 1.523 . S
H1027 C1002 0.950 . S
H1028 C1004 0.950 . S
H1029 C1005 0.949 . S
H1030 C1007 0.950 . S
H1031 C1009 0.950 . S
C1032 C1033 1.349 . S
C1032 C1034 1.327 . S
C1032 H1057 0.950 . S
C1033 C1032 1.349 . S
C1033 C1049 1.349 . S
C1034 C1032 1.327 . S
C1034 C1053 1.429 . S
C1034 H1058 0.950 . S
C1035 C1052 1.574 . S
C1035 C1054 1.368 . S
C1035 H1059 0.949 . S
H1036 C1040 0.949 . S
C1037 C1038 1.349 . S
C1037 C1039 1.327 . S
C1037 H1060 0.950 . S
C1038 C1037 1.349 . S
C1038 C1050 1.349 . S
C1039 C1037 1.327 . S
C1039 C1055 1.429 . S
C1039 H1061 0.950 . S
C1040 H1036 0.949 . S
C1040 C1048 1.574 . S
C1040 C1056 1.368 . S
H1041 C1049 0.950 . S
H1042 C1047 0.950 . S
H1043 C1048 0.949 . S
H1044 C1050 0.950 . S
H1045 C1051 0.950 . S
H1046 C1052 0.949 . S
C1047 H1042 0.950 . S
C1047 C1049 1.327 . S
C1047 C1053 1.429 . S
C1048 C1040 1.574 . S
C1048 H1043 0.949 . S
C1048 C1054 1.368 . S
C1049 C1033 1.349 . S
C1049 H1041 0.950 . S
C1049 C1047 1.327 . S
C1050 C1038 1.349 . S
C1050 H1044 0.950 . S
C1050 C1051 1.327 . S
C1051 H1045 0.950 . S
C1051 C1050 1.327 . S
C1051 C1055 1.429 . S
C1052 C1035 1.574 . S
C1052 H1046 0.949 . S
C1052 C1056 1.368 . S
C1053 C1034 1.429 . S
C1053 C1047 1.429 . S
C1053 C1054 1.523 . S
C1054 C1035 1.368 . S
C1054 C1048 1.368 . S
C1054 C1053 1.523 . S
C1055 C1039 1.429 . S
C1055 C1051 1.429 . S
C1055 C1056 1.523 . S
C1056 C1040 1.368 . S
C1056 C1052 1.368 . S
C1056 C1055 1.523 . S
H1057 C1032 0.950 . S
H1058 C1034 0.950 . S
H1059 C1035 0.949 . S
H1060 C1037 0.950 . S
H1061 C1039 0.950 . S
C1062 C1063 1.349 . S
C1062 C1064 1.327 . S
C1062 H1087 0.950 . S
C1063 C1062 1.349 . S
C1063 C1079 1.349 . S
C1064 C1062 1.327 . S
C1064 C1083 1.429 . S
C1064 H1088 0.950 . S
C1065 C1082 1.574 . S
C1065 C1084 1.368 . S
C1065 H1089 0.949 . S
H1066 C1070 0.949 . S
C1067 C1068 1.349 . S
C1067 C1069 1.327 . S
C1067 H1090 0.950 . S
C1068 C1067 1.349 . S
C1068 C1080 1.349 . S
C1069 C1067 1.327 . S
C1069 C1085 1.429 . S
C1069 H1091 0.950 . S
C1070 H1066 0.949 . S
C1070 C1078 1.574 . S
C1070 C1086 1.368 . S
H1071 C1079 0.950 . S
H1072 C1077 0.950 . S
H1073 C1078 0.949 . S
H1074 C1080 0.950 . S
H1075 C1081 0.950 . S
H1076 C1082 0.949 . S
C1077 H1072 0.950 . S
C1077 C1079 1.327 . S
C1077 C1083 1.429 . S
C1078 C1070 1.574 . S
C1078 H1073 0.949 . S
C1078 C1084 1.368 . S
C1079 C1063 1.349 . S
C1079 H1071 0.950 . S
C1079 C1077 1.327 . S
C1080 C1068 1.349 . S
C1080 H1074 0.950 . S
C1080 C1081 1.327 . S
C1081 H1075 0.950 . S
C1081 C1080 1.327 . S
C1081 C1085 1.429 . S
C1082 C1065 1.574 . S
C1082 H1076 0.949 . S
C1082 C1086 1.368 . S
C1083 C1064 1.429 . S
C1083 C1077 1.429 . S
C1083 C1084 1.523 . S
C1084 C1065 1.368 . S
C1084 C1078 1.368 . S
C1084 C1083 1.523 . S
C1085 C1069 1.429 . S
C1085 C1081 1.429 . S
C1085 C1086 1.523 . S
C1086 C1070 1.368 . S
C1086 C1082 1.368 . S
C1086 C1085 1.523 . S
H1087 C1062 0.950 . S
H1088 C1064 0.950 . S
H1089 C1065 0.949 . S
H1090 C1067 0.950 . S
H1091 C1069 0.950 . S
C1092 C1093 1.349 . S
C1092 C1094 1.327 . S
C1092 H1117 0.950 . S
C1093 C1092 1.349 . S
C1093 C1109 1.349 . S
C1094 C1092 1.327 . S
C1094 C1113 1.429 . S
C1094 H1118 0.950 . S
C1095 C1112 1.574 . S
C1095 C1114 1.368 . S
C1095 H1119 0.951 1_545 S
H1096 C1100 0.949 . S
C1097 C1098 1.349 1_565 S
C1097 C1099 1.327 1_565 S
C1097 H1120 0.950 . S
C1098 C1097 1.349 1_545 S
C1098 C1110 1.349 . S
C1099 C1097 1.327 1_545 S
C1099 C1115 1.429 . S
C1099 H1121 0.950 1_545 S
C1100 H1096 0.949 . S
C1100 C1108 1.574 . S
C1100 C1116 1.368 . S
H1101 C1109 0.950 . S
H1102 C1107 0.950 . S
H1103 C1108 0.949 . S
H1104 C1110 0.950 . S
H1105 C1111 0.950 . S
H1106 C1112 0.949 1_565 S
C1107 H1102 0.950 . S
C1107 C1109 1.327 . S
C1107 C1113 1.429 . S
C1108 C1100 1.574 . S
C1108 H1103 0.949 . S
C1108 C1114 1.368 . S
C1109 C1093 1.349 . S
C1109 H1101 0.950 . S
C1109 C1107 1.327 . S
C1110 C1098 1.349 . S
C1110 H1104 0.950 . S
C1110 C1111 1.327 . S
C1111 H1105 0.950 . S
C1111 C1110 1.327 . S
C1111 C1115 1.429 . S
C1112 C1095 1.574 . S
C1112 H1106 0.949 1_545 S
C1112 C1116 1.368 . S
C1113 C1094 1.429 . S
C1113 C1107 1.429 . S
C1113 C1114 1.523 . S
C1114 C1095 1.368 . S
C1114 C1108 1.368 . S
C1114 C1113 1.523 . S
C1115 C1099 1.429 . S
C1115 C1111 1.429 . S
C1115 C1116 1.523 . S
C1116 C1100 1.368 . S
C1116 C1112 1.368 . S
C1116 C1115 1.523 . S
H1117 C1092 0.950 . S
H1118 C1094 0.950 . S
H1119 C1095 0.951 1_565 S
H1120 C1097 0.950 . S
H1121 C1099 0.950 1_565 S
C1122 C1123 1.349 . S
C1122 C1124 1.327 . S
C1122 H1147 0.950 . S
C1123 C1122 1.349 . S
C1123 C1139 1.349 . S
C1124 C1122 1.327 . S
C1124 C1143 1.429 . S
C1124 H1148 0.950 . S
C1125 C1142 1.574 . S
C1125 C1144 1.368 . S
C1125 H1149 0.949 . S
H1126 C1130 0.949 . S
C1127 C1128 1.349 . S
C1127 C1129 1.327 . S
C1127 H1150 0.950 . S
C1128 C1127 1.349 . S
C1128 C1140 1.349 . S
C1129 C1127 1.327 . S
C1129 C1145 1.429 . S
C1129 H1151 0.950 . S
C1130 H1126 0.949 . S
C1130 C1138 1.574 . S
C1130 C1146 1.368 . S
H1131 C1139 0.950 . S
H1132 C1137 0.950 . S
H1133 C1138 0.949 . S
H1134 C1140 0.950 . S
H1135 C1141 0.950 . S
H1136 C1142 0.949 . S
C1137 H1132 0.950 . S
C1137 C1139 1.327 . S
C1137 C1143 1.429 . S
C1138 C1130 1.574 . S
C1138 H1133 0.949 . S
C1138 C1144 1.368 . S
C1139 C1123 1.349 . S
C1139 H1131 0.950 . S
C1139 C1137 1.327 . S
C1140 C1128 1.349 . S
C1140 H1134 0.950 . S
C1140 C1141 1.327 . S
C1141 H1135 0.950 . S
C1141 C1140 1.327 . S
C1141 C1145 1.429 . S
C1142 C1125 1.574 . S
C1142 H1136 0.949 . S
C1142 C1146 1.368 . S
C1143 C1124 1.429 . S
C1143 C1137 1.429 . S
C1143 C1144 1.523 . S
C1144 C1125 1.368 . S
C1144 C1138 1.368 . S
C1144 C1143 1.523 . S
C1145 C1129 1.429 . S
C1145 C1141 1.429 . S
C1145 C1146 1.523 . S
C1146 C1130 1.368 . S
C1146 C1142 1.368 . S
C1146 C1145 1.523 . S
H1147 C1122 0.950 . S
H1148 C1124 0.950 . S
H1149 C1125 0.949 . S
H1150 C1127 0.950 . S
H1151 C1129 0.950 . S
C1152 C1153 1.349 . S
C1152 C1154 1.327 . S
C1152 H1177 0.950 . S
C1153 C1152 1.349 . S
C1153 C1169 1.349 . S
C1154 C1152 1.327 . S
C1154 C1173 1.429 . S
C1154 H1178 0.950 . S
C1155 C1172 1.574 . S
C1155 C1174 1.368 . S
C1155 H1179 0.949 . S
H1156 C1160 0.949 . S
C1157 C1158 1.349 . S
C1157 C1159 1.327 . S
C1157 H1180 0.950 . S
C1158 C1157 1.349 . S
C1158 C1170 1.349 . S
C1159 C1157 1.327 . S
C1159 C1175 1.429 . S
C1159 H1181 0.950 . S
C1160 H1156 0.949 . S
C1160 C1168 1.574 . S
C1160 C1176 1.368 . S
H1161 C1169 0.950 . S
H1162 C1167 0.950 . S
H1163 C1168 0.949 . S
H1164 C1170 0.950 . S
H1165 C1171 0.950 . S
H1166 C1172 0.949 . S
C1167 H1162 0.950 . S
C1167 C1169 1.327 . S
C1167 C1173 1.429 . S
C1168 C1160 1.574 . S
C1168 H1163 0.949 . S
C1168 C1174 1.368 . S
C1169 C1153 1.349 . S
C1169 H1161 0.950 . S
C1169 C1167 1.327 . S
C1170 C1158 1.349 . S
C1170 H1164 0.950 . S
C1170 C1171 1.327 . S
C1171 H1165 0.950 . S
C1171 C1170 1.327 . S
C1171 C1175 1.429 . S
C1172 C1155 1.574 . S
C1172 H1166 0.949 . S
C1172 C1176 1.368 . S
C1173 C1154 1.429 . S
C1173 C1167 1.429 . S
C1173 C1174 1.523 . S
C1174 C1155 1.368 . S
C1174 C1168 1.368 . S
C1174 C1173 1.523 . S
C1175 C1159 1.429 . S
C1175 C1171 1.429 . S
C1175 C1176 1.523 . S
C1176 C1160 1.368 . S
C1176 C1172 1.368 . S
C1176 C1175 1.523 . S
H1177 C1152 0.950 . S
H1178 C1154 0.950 . S
H1179 C1155 0.949 . S
H1180 C1157 0.950 . S
H1181 C1159 0.950 . S
C1182 C1183 1.349 . S
C1182 C1184 1.327 . S
C1182 H1207 0.950 . S
C1183 C1182 1.349 . S
C1183 C1199 1.349 1_565 S
C1184 C1182 1.327 . S
C1184 C1203 1.429 . S
C1184 H1208 0.950 . S
C1185 C1202 1.586 1_545 S
C1185 C1204 1.335 1_545 S
C1185 H1209 0.968 . S
H1186 C1190 0.949 . S
C1187 C1188 1.349 . S
C1187 C1189 1.327 . S
C1187 H1210 0.947 . S
C1188 C1187 1.349 . S
C1188 C1200 1.349 . S
C1189 C1187 1.327 . S
C1189 C1205 1.429 . S
C1189 H1211 0.950 1_565 S
C1190 H1186 0.949 . S
C1190 C1198 1.574 . S
C1190 C1206 1.368 . S
H1191 C1199 0.950 . S
H1192 C1197 0.950 . S
H1193 C1198 0.949 . S
H1194 C1200 0.950 . S
H1195 C1201 0.950 . S
H1196 C1202 0.949 1_545 S
C1197 H1192 0.950 . S
C1197 C1199 1.327 . S
C1197 C1203 1.429 1_545 S
C1198 C1190 1.574 . S
C1198 H1193 0.949 . S
C1198 C1204 1.368 . S
C1199 C1183 1.349 1_545 S
C1199 H1191 0.950 . S
C1199 C1197 1.327 . S
C1200 C1188 1.349 . S
C1200 H1194 0.950 . S
C1200 C1201 1.327 . S
C1201 H1195 0.950 . S
C1201 C1200 1.327 . S
C1201 C1205 1.429 . S
C1202 C1185 1.586 1_565 S
C1202 H1196 0.949 1_565 S
C1202 C1206 1.368 . S
C1203 C1184 1.429 . S
C1203 C1197 1.429 1_565 S
C1203 C1204 1.523 . S
C1204 C1185 1.335 1_565 S
C1204 C1198 1.368 . S
C1204 C1203 1.523 . S
C1205 C1189 1.429 . S
C1205 C1201 1.429 . S
C1205 C1206 1.523 . S
C1206 C1190 1.368 . S
C1206 C1202 1.368 . S
C1206 C1205 1.523 . S
H1207 C1182 0.950 . S
H1208 C1184 0.950 . S
H1209 C1185 0.968 . S
H1210 C1187 0.947 . S
H1211 C1189 0.950 1_545 S
C1212 C1213 1.349 . S
C1212 C1214 1.327 . S
C1212 H1237 0.950 . S
C1213 C1212 1.349 . S
C1213 C1229 1.349 . S
C1214 C1212 1.327 . S
C1214 C1233 1.429 . S
C1214 H1238 0.950 . S
C1215 C1232 1.574 . S
C1215 C1234 1.368 1_655 S
C1215 H1239 0.949 . S
H1216 C1220 0.949 . S
C1217 C1218 1.349 1_655 S
C1217 C1219 1.327 . S
C1217 H1240 0.950 . S
C1218 C1217 1.349 1_455 S
C1218 C1230 1.349 . S
C1219 C1217 1.327 . S
C1219 C1235 1.429 1_655 S
C1219 H1241 0.950 . S
C1220 H1216 0.949 . S
C1220 C1228 1.574 . S
C1220 C1236 1.368 . S
H1221 C1229 0.950 1_655 S
H1222 C1227 0.950 1_655 S
H1223 C1228 0.949 . S
H1224 C1230 0.950 . S
H1225 C1231 0.950 . S
H1226 C1232 0.949 . S
C1227 H1222 0.950 1_455 S
C1227 C1229 1.327 . S
C1227 C1233 1.429 . S
C1228 C1220 1.574 . S
C1228 H1223 0.949 . S
C1228 C1234 1.368 . S
C1229 C1213 1.349 . S
C1229 H1221 0.950 1_455 S
C1229 C1227 1.327 . S
C1230 C1218 1.349 . S
C1230 H1224 0.950 . S
C1230 C1231 1.327 . S
C1231 H1225 0.950 . S
C1231 C1230 1.327 . S
C1231 C1235 1.429 . S
C1232 C1215 1.574 . S
C1232 H1226 0.949 . S
C1232 C1236 1.368 1_655 S
C1233 C1214 1.429 . S
C1233 C1227 1.429 . S
C1233 C1234 1.523 . S
C1234 C1215 1.368 1_455 S
C1234 C1228 1.368 . S
C1234 C1233 1.523 . S
C1235 C1219 1.429 1_455 S
C1235 C1231 1.429 . S
C1235 C1236 1.523 . S
C1236 C1220 1.368 . S
C1236 C1232 1.368 1_455 S
C1236 C1235 1.523 . S
H1237 C1212 0.950 . S
H1238 C1214 0.950 . S
H1239 C1215 0.949 . S
H1240 C1217 0.950 . S
H1241 C1219 0.950 . S
C1242 C1243 1.349 . S
C1242 C1244 1.327 . S
C1242 H1267 0.950 . S
C1243 C1242 1.349 . S
C1243 C1259 1.349 . S
C1244 C1242 1.327 . S
C1244 C1263 1.429 . S
C1244 H1268 0.950 . S
C1245 C1262 1.574 . S
C1245 C1264 1.368 . S
C1245 H1269 0.949 . S
H1246 C1250 0.949 . S
C1247 C1248 1.349 . S
C1247 C1249 1.327 . S
C1247 H1270 0.950 . S
C1248 C1247 1.349 . S
C1248 C1260 1.349 . S
C1249 C1247 1.327 . S
C1249 C1265 1.429 . S
C1249 H1271 0.950 . S
C1250 H1246 0.949 . S
C1250 C1258 1.574 . S
C1250 C1266 1.368 . S
H1251 C1259 0.950 . S
H1252 C1257 0.950 . S
H1253 C1258 0.949 . S
H1254 C1260 0.950 . S
H1255 C1261 0.950 . S
H1256 C1262 0.949 . S
C1257 H1252 0.950 . S
C1257 C1259 1.327 . S
C1257 C1263 1.429 . S
C1258 C1250 1.574 . S
C1258 H1253 0.949 . S
C1258 C1264 1.368 . S
C1259 C1243 1.349 . S
C1259 H1251 0.950 . S
C1259 C1257 1.327 . S
C1260 C1248 1.349 . S
C1260 H1254 0.950 . S
C1260 C1261 1.327 . S
C1261 H1255 0.950 . S
C1261 C1260 1.327 . S
C1261 C1265 1.429 . S
C1262 C1245 1.574 . S
C1262 H1256 0.949 . S
C1262 C1266 1.368 . S
C1263 C1244 1.429 . S
C1263 C1257 1.429 . S
C1263 C1264 1.523 . S
C1264 C1245 1.368 . S
C1264 C1258 1.368 . S
C1264 C1263 1.523 . S
C1265 C1249 1.429 . S
C1265 C1261 1.429 . S
C1265 C1266 1.523 . S
C1266 C1250 1.368 . S
C1266 C1262 1.368 . S
C1266 C1265 1.523 . S
H1267 C1242 0.950 . S
H1268 C1244 0.950 . S
H1269 C1245 0.949 . S
H1270 C1247 0.950 . S
H1271 C1249 0.950 . S
C1272 C1273 1.349 . S
C1272 C1274 1.327 . S
C1272 H1297 0.950 . S
C1273 C1272 1.349 . S
C1273 C1289 1.349 . S
C1274 C1272 1.327 . S
C1274 C1293 1.429 . S
C1274 H1298 0.950 . S
C1275 C1292 1.574 . S
C1275 C1294 1.368 . S
C1275 H1299 0.949 . S
H1276 C1280 0.949 . S
C1277 C1278 1.349 . S
C1277 C1279 1.327 . S
C1277 H1300 0.950 . S
C1278 C1277 1.349 . S
C1278 C1290 1.349 . S
C1279 C1277 1.327 . S
C1279 C1295 1.429 . S
C1279 H1301 0.950 . S
C1280 H1276 0.949 . S
C1280 C1288 1.574 . S
C1280 C1296 1.368 . S
H1281 C1289 0.950 . S
H1282 C1287 0.950 . S
H1283 C1288 0.949 . S
H1284 C1290 0.950 . S
H1285 C1291 0.950 . S
H1286 C1292 0.949 . S
C1287 H1282 0.950 . S
C1287 C1289 1.327 . S
C1287 C1293 1.429 . S
C1288 C1280 1.574 . S
C1288 H1283 0.949 . S
C1288 C1294 1.368 . S
C1289 C1273 1.349 . S
C1289 H1281 0.950 . S
C1289 C1287 1.327 . S
C1290 C1278 1.349 . S
C1290 H1284 0.950 . S
C1290 C1291 1.327 . S
C1291 H1285 0.950 . S
C1291 C1290 1.327 . S
C1291 C1295 1.429 . S
C1292 C1275 1.574 . S
C1292 H1286 0.949 . S
C1292 C1296 1.368 . S
C1293 C1274 1.429 . S
C1293 C1287 1.429 . S
C1293 C1294 1.523 . S
C1294 C1275 1.368 . S
C1294 C1288 1.368 . S
C1294 C1293 1.523 . S
C1295 C1279 1.429 . S
C1295 C1291 1.429 . S
C1295 C1296 1.523 . S
C1296 C1280 1.368 . S
C1296 C1292 1.368 . S
C1296 C1295 1.523 . S
H1297 C1272 0.950 . S
H1298 C1274 0.950 . S
H1299 C1275 0.949 . S
H1300 C1277 0.950 . S
H1301 C1279 0.950 . S
C1302 C1303 1.349 . S
C1302 C1304 1.327 . S
C1302 H1327 0.950 . S
C1303 C1302 1.349 . S
C1303 C1319 1.349 . S
C1304 C1302 1.327 . S
C1304 C1323 1.429 . S
C1304 H1328 0.950 . S
C1305 C1322 1.574 . S
C1305 C1324 1.368 . S
C1305 H1329 0.949 . S
H1306 C1310 0.949 . S
C1307 C1308 1.349 . S
C1307 C1309 1.327 . S
C1307 H1330 0.950 . S
C1308 C1307 1.349 . S
C1308 C1320 1.349 . S
C1309 C1307 1.327 . S
C1309 C1325 1.429 . S
C1309 H1331 0.950 . S
C1310 H1306 0.949 . S
C1310 C1318 1.574 . S
C1310 C1326 1.368 . S
H1311 C1319 0.950 . S
H1312 C1317 0.950 . S
H1313 C1318 0.949 . S
H1314 C1320 0.950 . S
H1315 C1321 0.950 . S
H1316 C1322 0.949 . S
C1317 H1312 0.950 . S
C1317 C1319 1.327 . S
C1317 C1323 1.429 . S
C1318 C1310 1.574 . S
C1318 H1313 0.949 . S
C1318 C1324 1.368 . S
C1319 C1303 1.349 . S
C1319 H1311 0.950 . S
C1319 C1317 1.327 . S
C1320 C1308 1.349 . S
C1320 H1314 0.950 . S
C1320 C1321 1.327 . S
C1321 H1315 0.950 . S
C1321 C1320 1.327 . S
C1321 C1325 1.429 . S
C1322 C1305 1.574 . S
C1322 H1316 0.949 . S
C1322 C1326 1.368 . S
C1323 C1304 1.429 . S
C1323 C1317 1.429 . S
C1323 C1324 1.523 . S
C1324 C1305 1.368 . S
C1324 C1318 1.368 . S
C1324 C1323 1.523 . S
C1325 C1309 1.429 . S
C1325 C1321 1.429 . S
C1325 C1326 1.523 . S
C1326 C1310 1.368 . S
C1326 C1322 1.368 . S
C1326 C1325 1.523 . S
H1327 C1302 0.950 . S
H1328 C1304 0.950 . S
H1329 C1305 0.949 . S
H1330 C1307 0.950 . S
H1331 C1309 0.950 . S
C253 C8 2.228 . S
C258 C45 2.243 . S
C283 C17 2.194 . S
C288 C59 2.196 . S
C313 C73 2.160 . S
C318 C36 2.148 . S
C343 C92 2.222 . S
C348 C129 2.232 . S
C373 C101 2.194 . S
C378 C143 2.195 . S
C403 C157 2.154 1_455 S
C408 C120 2.142 . S
C433 C213 2.235 . S
C438 C176 2.217 . S
C463 C227 2.195 . S
C468 C185 2.194 . S
C493 C241 2.155 . S
C498 C204 2.142 . S
C523 C3 1.666 . S
C528 C134 1.673 . S
C553 C22 1.633 . S
C558 C148 1.631 . S
C583 C162 1.631 . S
C588 C31 1.620 . S
C613 C50 1.673 . S
C618 C171 1.665 . S
C643 C64 1.631 . S
C648 C190 1.633 . S
C673 C78 1.631 . S
C678 C199 1.621 . S
C703 C87 1.669 . S
C708 C218 1.679 . S
C733 C106 1.637 . S
C738 C232 1.635 . S
C763 C246 1.626 . S
C768 C115 1.613 . S
C793 C7 0.314 . S
C798 C63 0.265 . S
C823 C23 0.273 . S
C828 C77 0.275 . S
C853 C35 0.293 . S
C858 C49 0.276 . S
C883 C51 0.311 . S
C888 C21 0.319 . S
C913 C37 0.330 . S
C918 C65 0.325 . S
C943 C79 0.332 . S
C948 C9 0.320 . S
C973 C91 0.321 . S
C978 C147 0.273 . S
C1003 C161 0.277 . S
C1008 C107 0.276 . S
C1033 C133 0.277 . S
C1038 C119 0.296 . S
C1063 C105 0.317 . S
C1068 C135 0.309 . S
C1093 C149 0.330 . S
C1098 C121 0.333 . S
C1123 C163 0.330 . S
C1128 C93 0.319 . S
C1153 C231 0.263 . S
C1158 C175 0.311 . S
C1183 C245 0.277 . S
C1188 C191 0.272 . S
C1213 C203 0.289 . S
C1218 C217 0.277 . S
C1243 C189 0.328 . S
C1248 C219 0.322 . S
C1273 C205 0.330 . S
C1278 C233 0.328 . S
C1303 C177 0.323 . S
C1308 C247 0.338 . S
