# Generated by pormake.
# Topology sxb, (6)-cn, num edge types: 1
# Building blocks:
#     Node 0, Type 0, BuildingBlock: CUWYAW_clean_sbu_0, # of connection points: 6
#     Node 1, Type 0, BuildingBlock: CUWYAW_clean_sbu_0, # of connection points: 6
#     Node 2, Type 0, BuildingBlock: CUWYAW_clean_sbu_0, # of connection points: 6
#     Node 3, Type 0, BuildingBlock: CUWYAW_clean_sbu_0, # of connection points: 6
#     Edge 4, Type (0, 0), BuildingBlock: ZUJKAS_clean_linker_0, # of connection points: 2
#     Edge 5, Type (0, 0), BuildingBlock: ZUJKAS_clean_linker_0, # of connection points: 2
#     Edge 6, Type (0, 0), BuildingBlock: ZUJKAS_clean_linker_0, # of connection points: 2
#     Edge 7, Type (0, 0), BuildingBlock: ZUJKAS_clean_linker_0, # of connection points: 2
#     Edge 8, Type (0, 0), BuildingBlock: ZUJKAS_clean_linker_0, # of connection points: 2
#     Edge 9, Type (0, 0), BuildingBlock: ZUJKAS_clean_linker_0, # of connection points: 2
#     Edge 10, Type (0, 0), BuildingBlock: ZUJKAS_clean_linker_0, # of connection points: 2
#     Edge 11, Type (0, 0), BuildingBlock: ZUJKAS_clean_linker_0, # of connection points: 2
#     Edge 12, Type (0, 0), BuildingBlock: ZUJKAS_clean_linker_0, # of connection points: 2
#     Edge 13, Type (0, 0), BuildingBlock: ZUJKAS_clean_linker_0, # of connection points: 2
#     Edge 14, Type (0, 0), BuildingBlock: ZUJKAS_clean_linker_0, # of connection points: 2
#     Edge 15, Type (0, 0), BuildingBlock: ZUJKAS_clean_linker_0, # of connection points: 2
# Relax obj value: 0.290
# Max RMSD: 0.099
# Mean RMSD: 0.079
data_MOF--net-sxb--node1-CUWYAW_clean_sbu_0--edge1-ZUJKAS_clean_linker_0
_symmetry_space_group_name_H-M    P1
_symmetry_Int_Tables_number       1
_symmetry_cell_setting            triclinic
loop_
_symmetry_equiv_pos_as_xyz
'x, y, z'
_cell_length_a     20.921052
_cell_length_b     43.103249
_cell_length_c     38.824695
_cell_angle_alpha  97.217177
_cell_angle_beta   93.141947
_cell_angle_gamma 69.401444
loop_
_atom_site_label
_atom_site_type_symbol
_atom_site_fract_x
_atom_site_fract_y
_atom_site_fract_z
_atom_type_partial_charge
C0 C 0.26328 0.06795 0.97022 0.0
Eu1 Eu 0.13698 0.07163 0.96863 0.0
C2 C 0.31361 1.04957 0.99489 0.0
C3 C 0.29313 1.03197 0.01761 0.0
C4 C 0.33785 1.0159 0.04298 0.0
C5 C 0.40403 1.01714 0.04617 0.0
C6 C 0.42479 1.03439 0.02293 0.0
C7 C 0.37972 1.0506 -0.00249 0.0
C8 C 1.08942 0.07444 0.03421 0.0
C9 C 0.14663 0.99493 0.96548 0.0
C10 C 0.89967 0.05826 0.98389 0.0
Eu11 Eu 1.01631 0.05997 0.96636 0.0
C12 C 0.88548 1.04172 0.01177 0.0
C13 C 0.81836 1.04809 0.02148 0.0
C14 C 0.80573 1.03418 0.04985 0.0
C15 C 0.86017 1.01392 0.06913 0.0
C16 C 0.92745 1.00749 0.05909 0.0
C17 C 0.9399 1.02132 0.03065 0.0
C18 C 1.06102 0.0542 0.90003 0.0
C19 C 1.01075 0.13662 0.96339 0.0
O20 O 0.23983 1.04948 0.94746 0.0
O21 O 0.21449 0.09375 0.98467 0.0
O22 O 0.11012 0.09655 0.02394 0.0
O23 O 0.09222 0.05244 0.00922 0.0
O24 O 0.17486 1.01487 0.95476 0.0
O25 O 1.08431 1.00819 0.97771 0.0
O26 O 0.9356 1.03858 0.9581 0.0
O27 O 0.9213 0.08276 0.99479 0.0
O28 O 1.03252 1.03521 0.91117 0.0
O29 O 1.06294 0.07669 0.92403 0.0
O30 O 0.97939 0.11752 0.97352 0.0
O31 O 1.07477 0.12266 0.95356 0.0
H32 H 0.24185 1.03118 0.01612 0.0
H33 H 0.32002 1.00319 0.06061 0.0
H34 H 0.47594 1.03531 0.02437 0.0
H35 H 0.39618 0.06413 0.98023 0.0
H36 H 0.77584 0.06395 0.00732 0.0
H37 H 0.7532 1.03899 0.0564 0.0
H38 H 0.97037 0.99214 0.07342 0.0
H39 H 0.99209 1.01647 0.02364 0.0
C40 C 1.0137 0.14502 0.44241 0.0
Eu41 Eu 1.04457 0.08555 0.46112 0.0
C42 C 1.05355 0.16635 0.4388 0.0
C43 C 1.02526 0.20072 0.44884 0.0
C44 C 1.06512 0.22076 0.44874 0.0
C45 C 0.1338 0.20659 0.43859 0.0
C46 C 0.16132 0.17226 0.42759 0.0
C47 C 0.12154 0.1523 0.42772 0.0
C48 C 1.04684 0.07151 0.5278 0.0
C49 C 0.21567 1.0503 0.46455 0.0
C50 C 0.13201 0.9565 0.48661 0.0
Eu51 Eu 0.10276 1.01525 0.4667 0.0
C52 C 0.09445 0.94354 0.50851 0.0
C53 C 1.08828 0.91244 0.49822 0.0
C54 C 1.04429 0.90205 0.51574 0.0
C55 C 1.00595 0.92257 0.54404 0.0
C56 C 1.01499 0.95304 0.55534 0.0
C57 C 1.05845 0.96356 0.53758 0.0
C58 C 0.09867 1.02954 0.39996 0.0
C59 C 0.93347 1.05032 0.46422 0.0
O60 O 1.02753 0.118 0.42042 0.0
O61 O 1.00709 0.13958 0.47414 0.0
O62 O 0.99626 0.0937 0.51383 0.0
O63 O 0.09482 0.05812 0.50624 0.0
O64 O 0.16127 0.07744 0.46044 0.0
O65 O 0.20648 1.02216 0.46876 0.0
O66 O 0.15564 0.979 0.50221 0.0
O67 O 0.10329 0.96423 0.45659 0.0
O68 O 0.14891 1.0067 0.41325 0.0
O69 O 1.05151 1.04275 0.42192 0.0
O70 O 0.9868 1.02651 0.4763 0.0
O71 O 0.94431 0.07525 0.4518 0.0
H72 H 0.9729 0.21191 0.45753 0.0
H73 H 1.04255 0.24722 0.45703 0.0
H74 H 0.21434 0.16059 0.42011 0.0
H75 H 0.14457 0.12577 0.41997 0.0
H76 H 0.11509 0.89686 0.47565 0.0
H77 H 1.03772 0.87872 0.50585 0.0
H78 H 0.98691 0.96925 0.57725 0.0
H79 H 1.0619 0.98789 0.54585 0.0
C80 C 0.77118 0.57066 0.97175 0.0
Eu81 Eu 0.64572 0.57292 0.96849 0.0
C82 C 0.8234 0.55431 -0.00262 0.0
C83 C 0.8284 0.57175 0.03 0.0
C84 C 0.86851 0.55508 0.05652 0.0
C85 C 0.90518 0.52069 0.05095 0.0
C86 C 0.90217 0.50341 0.01806 0.0
C87 C 0.86165 0.52002 0.99155 0.0
C88 C 0.5935 0.57772 0.03325 0.0
C89 C 0.65551 0.49615 0.96713 0.0
C90 C 0.40662 0.55897 0.97678 0.0
Eu91 Eu 0.52605 0.56049 0.96385 0.0
C92 C 0.38507 0.54775 0.00673 0.0
C93 C 0.31767 0.54934 0.00929 0.0
C94 C 0.29619 0.5415 0.03942 0.0
C95 C 0.34168 0.53233 0.06764 0.0
C96 C 0.40985 0.52989 0.06448 0.0
C97 C 0.4313 0.53753 0.0342 0.0
C98 C 0.57593 0.55516 0.89851 0.0
C99 C 0.51852 0.63718 0.96275 0.0
O100 O 0.75021 0.55092 0.94932 0.0
O101 O 0.72056 0.5967 0.98434 0.0
O102 O 0.61564 0.59923 0.02274 0.0
O103 O 0.5977 0.55491 0.00886 0.0
O104 O 0.6846 0.5158 0.95643 0.0
O105 O 0.59248 0.50971 0.97833 0.0
O106 O 0.45036 0.53587 0.95625 0.0
O107 O 0.42368 0.58539 0.98428 0.0
O108 O 0.54755 0.53568 0.90858 0.0
O109 O 0.57502 0.57762 0.9229 0.0
O110 O 0.48847 0.61782 0.97339 0.0
O111 O 0.58227 0.62348 0.95241 0.0
H112 H 0.79977 0.59816 0.03542 0.0
H113 H 0.87135 0.56919 0.08134 0.0
H114 H 0.93035 0.4769 0.013 0.0
H115 H 0.85878 0.50576 0.96684 0.0
H116 H 0.28148 0.55714 0.98828 0.0
H117 H 0.24372 0.54278 0.04067 0.0
H118 H 0.44603 0.52299 0.08568 0.0
H119 H 0.48359 0.53629 0.03244 0.0
C120 C 0.53547 0.66475 0.44971 0.0
Eu121 Eu 0.57092 0.60349 0.46425 0.0
C122 C 0.55256 0.69377 0.46462 0.0
C123 C 0.58346 0.69409 0.49758 0.0
C124 C 0.59832 0.72205 0.5122 0.0
C125 C 0.58303 0.74997 0.49393 0.0
C126 C 0.55227 0.74948 0.46083 0.0
C127 C 0.53691 0.72155 0.44632 0.0
C128 C 0.58048 0.58981 0.53161 0.0
C129 C 0.74136 0.56974 0.4686 0.0
C130 C 0.66486 0.47346 0.48608 0.0
Eu131 Eu 0.62934 0.53402 0.4694 0.0
C132 C 0.63127 0.44913 0.4879 0.0
C133 C 0.66764 0.4152 0.47875 0.0
C134 C 0.63485 0.39194 0.47756 0.0
C135 C 0.56519 0.40239 0.48552 0.0
C136 C 0.52937 0.43638 0.49554 0.0
C137 C 0.56216 0.45958 0.49668 0.0
C138 C 0.62123 0.54853 0.40247 0.0
C139 C 0.46015 0.56698 0.46311 0.0
O140 O 0.58486 0.64003 0.43395 0.0
O141 O 0.50079 0.65471 0.46996 0.0
O142 O 0.52977 0.61245 0.51871 0.0
O143 O 0.62606 0.57625 0.50896 0.0
O144 O 0.68727 0.59551 0.46042 0.0
O145 O 0.73108 0.54307 0.47703 0.0
O146 O 0.64567 0.50007 0.50868 0.0
O147 O 0.6713 0.48028 0.45493 0.0
O148 O 0.67367 0.52703 0.41589 0.0
O149 O 0.5745 0.56139 0.42471 0.0
O150 O 0.51322 0.54249 0.47432 0.0
O151 O 0.47196 0.59227 0.45202 0.0
H152 H 0.59609 0.67268 0.51196 0.0
H153 H 0.62312 0.72155 0.53747 0.0
H154 H 0.53988 0.77074 0.44626 0.0
H155 H 0.51286 0.72164 0.42087 0.0
H156 H 0.72105 0.40679 0.47187 0.0
H157 H 0.66374 0.36585 0.47006 0.0
H158 H 0.47543 0.4452 0.50135 0.0
H159 H 0.53316 0.48572 0.50372 0.0
H160 H 0.56495 0.68508 0.94385 0.0
H161 H 0.50303 0.74522 0.94468 0.0
H162 H 0.32345 0.73297 0.98117 0.0
H163 H 0.38526 0.67307 0.98098 0.0
H164 H 0.38924 0.7809 0.91021 0.0
H165 H 0.33721 0.80774 0.05117 0.0
H166 H 0.3965 0.76849 0.03217 0.0
H167 H 0.3061 0.77627 0.03009 0.0
C168 C 0.51234 0.69515 0.95219 0.0
C169 C 0.48055 0.67396 0.96257 0.0
C170 C 0.4768 0.72969 0.95262 0.0
C171 C 0.40855 0.74416 0.96363 0.0
C172 C 0.37641 0.72292 0.97343 0.0
H173 H 0.10223 0.94624 0.98371 0.0
H174 H 0.16564 0.88626 0.98242 0.0
C175 C 0.41189 0.68842 0.97305 0.0
C176 C 0.37078 0.78119 0.96424 0.0
H177 H 0.27963 0.85145 0.01674 0.0
C178 C 0.36568 0.7963 0.93361 0.0
C179 C 0.33955 0.80168 0.99464 0.0
C180 C 0.34556 0.78784 0.02897 0.0
C181 C 0.32937 0.83071 0.93231 0.0
C182 C 0.29796 0.85117 0.96269 0.0
C183 C 0.30323 0.83607 0.99335 0.0
C184 C 0.25927 0.88811 0.96325 0.0
C185 C 0.32337 0.84457 0.898 0.0
C186 C 0.29038 0.90977 0.95342 0.0
C187 C 0.25397 0.94422 0.95401 0.0
C188 C 0.18543 0.95816 0.96474 0.0
C189 C 0.15468 0.93656 0.9751 0.0
C190 C 0.19109 0.9021 0.97444 0.0
H191 H 0.33233 0.82464 0.87579 0.0
H192 H 0.27222 0.8637 0.89468 0.0
H193 H 0.36241 0.85642 0.89704 0.0
H194 H 0.34329 0.9001 0.94559 0.0
H195 H 0.27984 0.95997 0.94623 0.0
H196 H 0.60893 0.4485 0.98606 0.0
H197 H 0.67018 0.38842 0.98545 0.0
H198 H 0.84887 0.39958 0.94644 0.0
H199 H 0.7882 0.45979 0.94747 0.0
H200 H 0.72602 0.34007 0.93252 0.0
H201 H 0.9319 0.34618 0.02619 0.0
H202 H 0.85676 0.38204 0.02018 0.0
H203 H 0.9259 0.36914 0.98993 0.0
C204 C 0.66141 0.43829 0.9775 0.0
C205 C 0.69341 0.45931 0.96693 0.0
C206 C 0.69651 0.40374 0.97711 0.0
C207 C 0.76491 0.38908 0.96641 0.0
C208 C 0.79684 0.41002 0.9556 0.0
H209 H 1.05959 0.18345 0.94397 0.0
H210 H 0.99992 0.24364 0.94401 0.0
C211 C 0.76173 0.4446 0.95596 0.0
C212 C 0.80184 0.35196 0.96581 0.0
H213 H 0.94404 0.29289 -0.00364 0.0
C214 C 0.77354 0.32985 0.94666 0.0
C215 C 0.86419 0.33816 0.98407 0.0
C216 C 0.89626 0.36005 0.00653 0.0
C217 C 0.80592 0.29482 0.94476 0.0
C218 C 0.86814 0.28101 0.96312 0.0
C219 C 0.89657 0.30312 0.98219 0.0
C220 C 0.90437 0.24387 0.96292 0.0
C221 C 0.77386 0.27296 0.92225 0.0
C222 C 0.87149 0.22341 0.97389 0.0
C223 C 0.90562 0.1888 0.97382 0.0
C224 C 0.97396 0.17352 0.963 0.0
C225 C 1.00702 0.19408 0.95235 0.0
C226 C 0.97284 0.22869 0.95243 0.0
H227 H 0.73886 0.28678 0.90235 0.0
H228 H 0.81336 0.25078 0.90887 0.0
H229 H 0.7435 0.26419 0.93875 0.0
H230 H 0.81941 0.23426 0.98295 0.0
H231 H 0.87839 0.17404 0.9825 0.0
H232 H 0.22716 0.20614 0.3918 0.0
H233 H 0.30696 0.23671 0.39909 0.0
H234 H 0.21972 0.28359 0.49876 0.0
H235 H 0.14097 0.25263 0.4921 0.0
H236 H 0.27601 0.30765 0.41146 0.0
H237 H 0.42748 0.24027 0.51852 0.0
H238 H 0.37144 0.22449 0.49041 0.0
H239 H 0.33681 0.257 0.52518 0.0
C240 C 0.22517 0.22293 0.41528 0.0
C241 C 0.17812 0.22697 0.44145 0.0
C242 C 0.2705 0.24037 0.41934 0.0
C243 C 0.26968 0.26185 0.44969 0.0
C244 C 0.22163 0.26664 0.47542 0.0
H245 H 0.47282 0.39744 0.52959 0.0
H246 H 0.40443 0.36118 0.5199 0.0
C247 C 0.17623 0.24928 0.47138 0.0
C248 C 0.31871 0.27956 0.45444 0.0
H249 H 0.44881 0.28859 0.50678 0.0
C250 C 0.31425 0.30335 0.43206 0.0
C251 C 0.36837 0.27365 0.48135 0.0
C252 C 0.37696 0.24726 0.5051 0.0
C253 C 0.35702 0.32231 0.4366 0.0
C254 C 0.40589 0.3168 0.46389 0.0
C255 C 0.41108 0.29264 0.48594 0.0
C256 C 0.4505 0.33678 0.47061 0.0
C257 C 0.34831 0.34876 0.41291 0.0
C258 C 0.49987 0.33428 0.44643 0.0
C259 C 0.53872 0.35497 0.45182 0.0
C260 C 0.52874 0.37836 0.48152 0.0
C261 C 0.48087 0.37991 0.50628 0.0
C262 C 0.44215 0.35917 0.5009 0.0
H263 H 0.2998 0.35424 0.39771 0.0
H264 H 0.3492 0.37225 0.42807 0.0
H265 H 0.39123 0.34005 0.39437 0.0
H266 H 0.50737 0.31679 0.42311 0.0
H267 H 0.57487 0.35343 0.43217 0.0
H268 H 0.87825 0.96423 0.56481 0.0
H269 H 0.78274 0.94821 0.57853 0.0
H270 H 0.91356 0.84468 0.56712 0.0
H271 H 1.01016 0.86069 0.55622 0.0
H272 H 0.72975 0.91697 0.53384 0.0
H273 H 0.79914 0.841 0.64218 0.0
H274 H 0.84631 0.86712 0.63364 0.0
H275 H 0.86884 0.82488 0.61261 0.0
C276 C 0.88753 0.93817 0.56686 0.0
C277 C 0.95182 0.91366 0.55901 0.0
C278 C 0.83258 0.92904 0.57449 0.0
C279 C 0.84073 0.89525 0.57413 0.0
C280 C 0.90594 0.87098 0.56852 0.0
H281 H 0.64894 0.78189 0.46126 0.0
H282 H 0.69263 0.82513 0.48673 0.0
C283 C 0.96108 0.88013 0.56153 0.0
C284 C 0.78034 0.88471 0.5729 0.0
H285 H 0.73326 0.82151 0.59399 0.0
C286 C 0.72933 0.89683 0.5479 0.0
C287 C 0.77783 0.85917 0.5918 0.0
C288 C 0.8257 0.84769 0.62182 0.0
C289 C 0.68105 0.88149 0.53853 0.0
C290 C 0.68547 0.85265 0.5537 0.0
C291 C 0.73107 0.84304 0.58155 0.0
C292 C 0.65126 0.82947 0.53783 0.0
C293 C 0.62792 0.89549 0.51131 0.0
C294 C 0.61463 0.81694 0.5582 0.0
C295 C 0.59051 0.79172 0.54372 0.0
C296 C 0.60265 0.77871 0.50866 0.0
C297 C 0.63773 0.7919 0.48815 0.0
C298 C 0.66233 0.8168 0.50267 0.0
H299 H 0.61257 0.9231 0.51342 0.0
H300 H 0.64991 0.88547 0.48514 0.0
H301 H 0.5817 0.88889 0.51358 0.0
H302 H 0.60611 0.82612 0.58545 0.0
H303 H 0.5633 0.78202 0.56003 0.0
H304 H 0.48983 1.04138 0.08687 0.0
H305 H 0.57806 1.01202 0.12637 0.0
H306 H 0.51067 0.92741 0.10976 0.0
H307 H 0.42368 0.95628 0.06853 0.0
H308 H 0.59275 0.97758 0.1875 0.0
H309 H 0.70231 0.88813 0.07142 0.0
H310 H 0.62928 0.92439 0.0641 0.0
H311 H 0.62037 0.89326 0.08839 0.0
C312 C 0.49351 1.01657 0.09163 0.0
C313 C 0.45116 1.0008 0.07377 0.0
C314 C 0.54313 1.00001 0.11481 0.0
C315 C 0.55142 0.96734 0.12086 0.0
C316 C 0.50564 0.95245 0.10526 0.0
H317 H 0.92352 0.94987 0.08544 0.0
H318 H 0.8789 0.92123 0.1232 0.0
C319 C 0.45595 0.96903 0.08174 0.0
C320 C 0.61597 0.94801 0.13766 0.0
H321 H 0.7743 0.9123 0.10367 0.0
C322 C 0.63306 0.96188 0.17 0.0
C323 C 0.66917 0.92551 0.1164 0.0
C324 C 0.65482 0.90665 0.08322 0.0
C325 C 0.70019 0.96102 0.17688 0.0
C326 C 0.74893 0.94715 0.15023 0.0
C327 C 0.73586 0.92518 0.12316 0.0
C328 C 0.79393 0.96521 0.14164 0.0
C329 C 0.71573 0.9791 0.21022 0.0
C330 C 0.765 1.00007 0.14161 0.0
C331 C 0.79095 1.01648 0.12044 0.0
C332 C 0.84574 0.99841 0.0984 0.0
C333 C 0.88051 0.96444 0.10181 0.0
C334 C 0.85507 0.94801 0.12353 0.0
H335 H 0.69878 0.9703 0.23256 0.0
H336 H 0.77109 0.97507 0.21328 0.0
H337 H 0.6864 1.00623 0.21099 0.0
H338 H 0.71744 1.01436 0.15462 0.0
H339 H 0.76447 1.04291 0.1192 0.0
H340 H 0.33716 0.99877 0.44647 0.0
H341 H 0.45347 0.99954 0.44563 0.0
H342 H 0.37938 0.10376 0.48533 0.0
H343 H 0.26239 0.10351 0.48298 0.0
H344 H 0.54655 1.00308 0.48219 0.0
H345 H 0.49436 0.11826 0.42143 0.0
H346 H 0.44731 0.12746 0.46076 0.0
H347 H 0.42894 0.10076 0.42475 0.0
C348 C 0.34523 1.0221 0.45458 0.0
C349 C 0.2886 1.05115 0.46439 0.0
C350 C 0.41294 1.02254 0.4543 0.0
C351 C 0.42839 1.05192 0.46456 0.0
C352 C 0.37157 0.08078 0.47547 0.0
H353 H 0.82394 0.07576 0.41976 0.0
H354 H 0.70826 0.07408 0.41971 0.0
C355 C 0.30346 0.08058 0.47463 0.0
C356 C 0.50306 1.05173 0.46463 0.0
H357 H 0.60274 0.09747 0.44892 0.0
C358 C 0.55808 1.02381 0.47443 0.0
C359 C 0.52188 0.07799 0.45416 0.0
C360 C 0.47011 0.10758 0.43932 0.0
C361 C 0.62812 1.02136 0.47415 0.0
C362 C 0.64652 1.0485 0.46572 0.0
C363 C 0.59147 0.07639 0.45588 0.0
C364 C 0.72115 1.04841 0.46563 0.0
C365 C 0.6814 0.98857 0.48142 0.0
C366 C 0.77105 1.03475 0.49119 0.0
C367 C 0.83928 1.03454 0.49032 0.0
C368 C 0.86068 1.04939 0.4648 0.0
C369 C 0.81064 0.064 0.43996 0.0
C370 C 0.74321 0.06317 0.44011 0.0
H371 H 0.66206 0.96758 0.47487 0.0
H372 H 0.72849 0.98292 0.46635 0.0
H373 H 0.69429 0.98954 0.50955 0.0
H374 H 0.75748 1.02455 0.51255 0.0
H375 H 0.87499 1.02345 0.5104 0.0
H376 H 1.03636 0.47915 0.04428 0.0
H377 H 0.11816 0.46019 0.08989 0.0
H378 H 0.95951 0.50396 0.1666 0.0
H379 H 0.87711 0.52456 0.12004 0.0
H380 H 1.04868 0.52398 0.18936 0.0
H381 H 0.20535 0.39727 0.15514 0.0
H382 H 0.19286 0.41057 0.11279 0.0
H383 H 0.11986 0.41219 0.1371 0.0
C384 C 1.01828 0.48376 0.07071 0.0
C385 C 0.95065 0.50361 0.0786 0.0
C386 C 1.06521 0.47239 0.09712 0.0
C387 C 1.0456 0.47992 0.13224 0.0
C388 C 0.9764 0.49762 0.13993 0.0
H389 H 0.40631 0.48265 0.10918 0.0
H390 H 0.35521 0.46662 0.15612 0.0
C391 C 0.9294 0.50956 0.11333 0.0
C392 C 0.09988 0.47628 0.15957 0.0
H393 H 0.27092 0.44086 0.15001 0.0
C394 C 0.09731 0.50495 0.18206 0.0
C395 C 0.16397 0.45042 0.15472 0.0
C396 C 0.17006 0.41575 0.13899 0.0
C397 C 0.15718 0.51217 0.18991 0.0
C398 C 0.21775 0.49162 0.1725 0.0
C399 C 0.22315 0.45866 0.16027 0.0
C400 C 0.25786 0.50694 0.15404 0.0
C401 C 0.153 0.54409 0.2121 0.0
C402 C 0.22229 0.53607 0.13833 0.0
C403 C 0.25175 0.54547 0.11211 0.0
C404 C 0.31703 0.52565 0.10008 0.0
C405 C 0.35545 0.49826 0.11767 0.0
C406 C 0.32617 0.48907 0.14455 0.0
H407 H 0.13118 0.54451 0.23767 0.0
H408 H 0.20389 0.54671 0.21634 0.0
H409 H 0.1177 0.56583 0.19993 0.0
H410 H 0.16917 0.55023 0.1438 0.0
H411 H 0.22157 0.5673 0.09981 0.0
H412 H 0.33795 0.61416 0.44341 0.0
H413 H 0.22079 0.6141 0.44409 0.0
H414 H 0.29506 0.51916 0.4847 0.0
H415 H 0.41242 0.51891 0.48348 0.0
H416 H 0.13356 0.61624 0.49152 0.0
H417 H 0.17503 0.49569 0.41154 0.0
H418 H 0.22898 0.49146 0.44944 0.0
H419 H 0.23923 0.51498 0.41624 0.0
C420 C 0.32995 0.59299 0.45228 0.0
C421 C 0.38674 0.5664 0.4631 0.0
C422 C 0.26185 0.59303 0.45277 0.0
C423 C 0.24654 0.56635 0.46381 0.0
C424 C 0.30329 0.53988 0.47497 0.0
H425 H 0.86426 0.52175 0.48599 0.0
H426 H 0.9812 0.52194 0.48518 0.0
C427 C 0.37148 0.53986 0.47453 0.0
C428 C 0.17202 0.56682 0.46432 0.0
H429 H 1.06794 0.52066 0.43947 0.0
C430 C 0.11974 0.59524 0.47986 0.0
C431 C 0.15121 0.53979 0.44944 0.0
C432 C 0.20131 0.50889 0.43043 0.0
C433 C 1.05026 0.59709 0.48167 0.0
C434 C 1.02937 0.5701 0.46671 0.0
C435 C 1.0817 0.54167 0.45116 0.0
C436 C 0.95484 0.57051 0.46727 0.0
C437 C 1.00045 0.62788 0.50101 0.0
C438 C 0.89767 0.5974 0.45714 0.0
C439 C 0.8295 0.59742 0.45779 0.0
C440 C 0.8147 0.57037 0.46825 0.0
C441 C 0.87189 0.54331 0.47788 0.0
C442 C 0.93991 0.54335 0.47732 0.0
H443 H 1.02699 0.64076 0.52011 0.0
H444 H 0.97301 0.64562 0.48223 0.0
H445 H 0.96238 0.62174 0.51503 0.0
H446 H 0.90552 0.6185 0.44806 0.0
H447 H 0.78819 0.61872 0.44973 0.0
H448 H 0.99243 0.07272 0.36523 0.0
H449 H 0.98603 0.08119 0.30353 0.0
H450 H 0.18678 1.00685 0.28813 0.0
H451 H 0.19387 0.99889 0.34969 0.0
H452 H 0.17563 0.06006 0.2564 0.0
H453 H 0.95018 1.02334 0.21999 0.0
H454 H 0.93435 0.05664 0.25478 0.0
H455 H 0.99443 1.01596 0.26104 0.0
C456 C 1.03511 0.05814 0.34865 0.0
C457 C 0.09355 1.035 0.36247 0.0
C458 C 1.0312 0.0628 0.31321 0.0
C459 C 1.08542 1.04426 0.29065 0.0
C460 C 0.14399 1.02141 0.30466 0.0
H461 H 1.0839 1.02002 0.06258 0.0
H462 H 1.08071 1.01332 0.12426 0.0
C463 C 0.14795 1.01682 0.33999 0.0
C464 C 1.08257 1.04911 0.2528 0.0
H465 H 0.99075 1.04652 0.17719 0.0
C466 C 0.13508 0.05708 0.23917 0.0
C467 C 1.03042 1.04478 0.22983 0.0
C468 C 0.97448 1.03439 0.24198 0.0
C469 C 0.1366 0.06115 0.20375 0.0
C470 C 1.08334 0.05786 0.18102 0.0
C471 C 1.03125 1.04946 0.19448 0.0
C472 C 1.08156 0.0626 0.14321 0.0
C473 C 0.19646 0.0681 0.19089 0.0
C474 C 1.08137 0.09278 0.13287 0.0
C475 C 1.08286 0.09668 0.09757 0.0
C476 C 1.08393 0.07064 0.07156 0.0
C477 C 1.08233 1.04073 0.08183 0.0
C478 C 1.08081 1.03683 0.11719 0.0
H479 H 0.24131 0.06054 0.20869 0.0
H480 H 0.21192 0.05479 0.16461 0.0
H481 H 0.18181 0.09526 0.1894 0.0
H482 H 1.08033 0.1134 0.15216 0.0
H483 H 1.08366 0.12011 0.09063 0.0
H484 H 1.06125 1.00637 0.84718 0.0
H485 H 1.06606 1.00809 0.78475 0.0
H486 H 1.07857 0.10655 0.80397 0.0
H487 H 1.07586 0.10441 0.86684 0.0
H488 H 0.98037 1.0465 0.74348 0.0
H489 H 0.22743 0.06492 0.7344 0.0
H490 H 0.20138 0.05411 0.77341 0.0
H491 H 0.16954 0.09666 0.76358 0.0
C492 C 1.06584 1.02828 0.83818 0.0
C493 C 1.06834 0.05522 0.86213 0.0
C494 C 1.06844 1.02928 0.80232 0.0
C495 C 1.07347 0.05727 0.78916 0.0
C496 C 1.07641 0.08423 0.81311 0.0
H497 H 0.95195 0.10474 0.57747 0.0
H498 H 0.95986 0.10068 0.63988 0.0
C499 C 1.07445 0.0831 0.84918 0.0
C500 C 1.07217 0.05853 0.7505 0.0
H501 H 0.15657 0.07177 0.68363 0.0
C502 C 1.0192 1.05193 0.73052 0.0
C503 C 0.12315 0.06505 0.73302 0.0
C504 C 0.18397 0.07024 0.75213 0.0
C505 C 1.01517 1.05215 0.69415 0.0
C506 C 1.06448 0.06006 0.67687 0.0
C507 C 0.11821 0.06606 0.69667 0.0
C508 C 1.06046 0.06263 0.63848 0.0
C509 C 0.95866 1.04316 0.67452 0.0
C510 C 0.11501 1.04328 0.61647 0.0
C511 C 0.11079 1.0458 0.58051 0.0
C512 C 1.05204 0.0679 0.56575 0.0
C513 C 0.99782 0.08732 0.58784 0.0
C514 C 1.00212 0.08487 0.62365 0.0
H515 H 0.93896 1.02803 0.68931 0.0
H516 H 0.91558 0.06636 0.67025 0.0
H517 H 0.97629 1.02896 0.64884 0.0
H518 H 0.16077 1.02599 0.62707 0.0
H519 H 0.15353 1.03052 0.5643 0.0
H520 H 0.5118 0.58939 0.36754 0.0
H521 H 0.50109 0.59461 0.30496 0.0
H522 H 0.70234 0.52075 0.28932 0.0
H523 H 0.7137 0.51603 0.3516 0.0
H524 H 0.68746 0.57216 0.25432 0.0
H525 H 0.46313 0.53268 0.22594 0.0
H526 H 0.44803 0.56743 0.25903 0.0
H527 H 0.50962 0.52748 0.26661 0.0
C528 C 0.55361 0.57421 0.35069 0.0
C529 C 0.61349 0.55218 0.36461 0.0
C530 C 0.54725 0.577 0.31481 0.0
C531 C 0.60041 0.55764 0.29201 0.0
C532 C 0.66035 0.53589 0.30609 0.0
H533 H 0.59234 0.52362 0.06404 0.0
H534 H 0.59117 0.51897 0.12645 0.0
C535 C 0.66678 0.53318 0.34182 0.0
C536 C 0.59527 0.56063 0.25374 0.0
H537 H 0.50013 0.55404 0.18022 0.0
C538 C 0.64641 0.56817 0.23821 0.0
C539 C 0.54245 0.55492 0.23229 0.0
C540 C 0.48802 0.54485 0.24668 0.0
C541 C 0.64586 0.57055 0.20232 0.0
C542 C 0.59181 0.56599 0.18109 0.0
C543 C 0.54116 0.55794 0.19642 0.0
C544 C 0.58752 0.56943 0.143 0.0
C545 C 0.70424 0.57721 0.18734 0.0
C546 C 0.58387 0.59956 0.13125 0.0
C547 C 0.58419 0.60229 0.09565 0.0
C548 C 0.58758 0.57506 0.07078 0.0
C549 C 0.58901 0.54519 0.08245 0.0
C550 C 0.58862 0.54247 0.11817 0.0
H551 H 0.74997 0.5709 0.20467 0.0
H552 H 0.7188 0.56267 0.1615 0.0
H553 H 0.68836 0.60411 0.18414 0.0
H554 H 0.58147 0.62098 0.14969 0.0
H555 H 0.58264 0.62571 0.08759 0.0
H556 H 0.49042 0.62415 0.5827 0.0
H557 H 0.49787 0.61702 0.64432 0.0
H558 H 0.69098 0.53675 0.62774 0.0
H559 H 0.68442 0.54447 0.56573 0.0
H560 H 0.49965 0.56586 0.676 0.0
H561 H 0.73847 0.59129 0.71071 0.0
H562 H 0.69459 0.59993 0.66977 0.0
H563 H 0.74826 0.55809 0.67626 0.0
C564 C 0.53487 0.60511 0.59212 0.0
C565 C 0.58703 0.58501 0.56922 0.0
C566 C 0.539 0.601 0.6275 0.0
C567 C 0.59541 0.57665 0.64116 0.0
C568 C 0.6476 0.55628 0.61826 0.0
H569 H 0.57458 0.5095 0.8433 0.0
H570 H 0.58298 0.51357 0.78153 0.0
C571 C 0.64362 0.56053 0.5827 0.0
C572 C 0.59746 0.57218 0.67903 0.0
H573 H 0.69098 0.57225 0.75436 0.0
C574 C 0.54164 0.56724 0.69305 0.0
C575 C 0.65157 0.57445 0.7017 0.0
C576 C 0.71134 0.58155 0.68901 0.0
C577 C 0.53841 0.56443 0.72864 0.0
C578 C 0.59338 0.56572 0.75115 0.0
C579 C 0.64907 0.5709 0.73725 0.0
C580 C 0.59324 0.56222 0.78915 0.0
C581 C 0.47492 0.56108 0.74189 0.0
C582 C 0.59936 0.58745 0.81453 0.0
C583 C 0.59543 0.58495 0.8501 0.0
C584 C 0.58531 0.55714 0.86111 0.0
C585 C 0.58155 0.53145 0.83575 0.0
C586 C 0.58592 0.53385 0.80031 0.0
H587 H 0.4306 0.57024 0.72407 0.0
H588 H 0.48416 0.53437 0.74378 0.0
H589 H 0.46125 0.57511 0.76802 0.0
H590 H 0.60553 0.6095 0.80679 0.0
H591 H 0.59879 0.60513 0.86892 0.0
loop_
_geom_bond_atom_site_label_1
_geom_bond_atom_site_label_2
_geom_bond_distance
_geom_bond_site_symmetry_2
_ccdc_geom_bond_type
C0 Eu1 2.837 . S
C0 C2 1.498 1_545 S
C0 O20 1.254 1_544 S
C0 O21 1.266 . S
Eu1 C0 2.837 . S
Eu1 O20 2.473 1_544 S
Eu1 O21 2.480 . S
Eu1 O22 2.430 . S
Eu1 O23 2.670 1_455 S
Eu1 O24 2.394 1_545 S
Eu1 O29 2.355 1_544 S
Eu1 O31 2.374 1_455 S
C2 C0 1.498 1_565 S
C2 C3 1.377 . S
C2 C7 1.377 1_554 S
C3 C2 1.377 . S
C3 C4 1.395 . S
C3 H32 0.929 1_565 S
C4 C3 1.395 . S
C4 C5 1.383 1_554 S
C4 H33 0.931 . S
C5 C4 1.383 1_556 S
C5 C6 1.394 . S
C6 C5 1.394 . S
C6 C7 1.378 . S
C6 H34 0.931 . S
C7 C2 1.377 1_556 S
C7 C6 1.378 . S
C7 H35 0.931 . S
C8 O22 1.259 . S
C8 O23 1.270 1_455 S
C9 O24 1.251 . S
C9 O25 1.251 1_554 S
C10 Eu11 2.835 . S
C10 C12 1.500 1_565 S
C10 O26 1.257 1_566 S
C10 O27 1.260 . S
Eu11 C10 2.835 . S
Eu11 O23 2.355 1_566 S
Eu11 O25 2.374 1_655 S
Eu11 O26 2.473 1_566 S
Eu11 O27 2.480 . S
Eu11 O28 2.430 . S
Eu11 O29 2.670 1_655 S
Eu11 O30 2.394 1_565 S
C12 C10 1.500 1_545 S
C12 C13 1.377 . S
C12 C17 1.377 1_556 S
C13 C12 1.377 . S
C13 C14 1.395 . S
C13 H36 0.931 . S
C14 C13 1.395 . S
C14 C15 1.383 1_556 S
C14 H37 0.931 . S
C15 C14 1.383 1_554 S
C15 C16 1.394 . S
C16 C15 1.394 . S
C16 C17 1.378 . S
C16 H38 0.931 . S
C17 C12 1.377 1_554 S
C17 C16 1.378 . S
C17 H39 0.931 . S
C18 O28 1.259 . S
C18 O29 1.270 1_655 S
C19 O30 1.251 . S
C19 O31 1.251 1_556 S
O20 C0 1.254 1_566 S
O20 Eu1 2.473 1_566 S
O21 C0 1.266 . S
O21 Eu1 2.480 . S
O22 Eu1 2.430 . S
O22 C8 1.259 . S
O23 Eu1 2.670 1_655 S
O23 C8 1.270 1_655 S
O23 Eu11 2.355 1_544 S
O24 Eu1 2.394 1_565 S
O24 C9 1.251 . S
O25 C9 1.251 1_556 S
O25 Eu11 2.374 1_455 S
O26 C10 1.257 1_544 S
O26 Eu11 2.473 1_544 S
O27 C10 1.260 . S
O27 Eu11 2.480 . S
O28 Eu11 2.430 . S
O28 C18 1.259 . S
O29 Eu1 2.355 1_566 S
O29 Eu11 2.670 1_455 S
O29 C18 1.270 1_455 S
O30 Eu11 2.394 1_545 S
O30 C19 1.251 . S
O31 Eu1 2.374 1_655 S
O31 C19 1.251 1_554 S
H32 C3 0.929 1_545 S
H33 C4 0.931 . S
H34 C6 0.931 . S
H35 C7 0.931 . S
H36 C13 0.931 . S
H37 C14 0.931 . S
H38 C16 0.931 . S
H39 C17 0.931 . S
C40 Eu41 2.835 1_455 S
C40 C42 1.500 . S
C40 O60 1.257 . S
C40 O61 1.260 . S
Eu41 C40 2.835 1_655 S
Eu41 O60 2.473 1_655 S
Eu41 O61 2.480 1_655 S
Eu41 O62 2.430 . S
Eu41 O63 2.670 1_545 S
Eu41 O64 2.394 1_655 S
Eu41 O69 2.355 1_655 S
Eu41 O71 2.374 . S
C42 C40 1.500 . S
C42 C43 1.377 . S
C42 C47 1.377 . S
C43 C42 1.377 . S
C43 C44 1.395 . S
C43 H72 0.931 . S
C44 C43 1.395 . S
C44 C45 1.383 . S
C44 H73 0.931 . S
C45 C44 1.383 . S
C45 C46 1.394 . S
C46 C45 1.394 . S
C46 C47 1.378 . S
C46 H74 0.931 . S
C47 C42 1.377 . S
C47 C46 1.378 . S
C47 H75 0.931 . S
C48 O62 1.260 1_455 S
C48 O63 1.269 1_445 S
C49 O64 1.251 1_565 S
C49 O65 1.251 . S
C50 Eu51 2.835 1_655 S
C50 C52 1.500 . S
C50 O66 1.257 . S
C50 O67 1.260 . S
Eu51 C50 2.835 1_455 S
Eu51 O63 2.355 1_455 S
Eu51 O65 2.374 . S
Eu51 O66 2.473 1_455 S
Eu51 O67 2.480 1_455 S
Eu51 O68 2.430 . S
Eu51 O69 2.670 1_565 S
Eu51 O70 2.394 1_455 S
C52 C50 1.500 . S
C52 C53 1.377 . S
C52 C57 1.377 . S
C53 C52 1.377 . S
C53 C54 1.395 . S
C53 H76 0.931 . S
C54 C53 1.395 . S
C54 C55 1.383 . S
C54 H77 0.931 . S
C55 C54 1.383 . S
C55 C56 1.394 . S
C56 C55 1.394 . S
C56 C57 1.378 . S
C56 H78 0.931 . S
C57 C52 1.377 . S
C57 C56 1.378 . S
C57 H79 0.931 . S
C58 O68 1.259 . S
C58 O69 1.270 1_565 S
C59 O70 1.251 1_545 S
C59 O71 1.251 . S
O60 C40 1.257 . S
O60 Eu41 2.473 1_455 S
O61 C40 1.260 . S
O61 Eu41 2.480 1_455 S
O62 Eu41 2.430 . S
O62 C48 1.260 1_655 S
O63 Eu41 2.670 1_565 S
O63 C48 1.269 1_665 S
O63 Eu51 2.355 1_655 S
O64 Eu41 2.394 1_455 S
O64 C49 1.251 1_545 S
O65 C49 1.251 . S
O65 Eu51 2.374 . S
O66 C50 1.257 . S
O66 Eu51 2.473 1_655 S
O67 C50 1.260 . S
O67 Eu51 2.480 1_655 S
O68 Eu51 2.430 . S
O68 C58 1.259 . S
O69 Eu41 2.355 1_455 S
O69 Eu51 2.670 1_545 S
O69 C58 1.270 1_545 S
O70 Eu51 2.394 1_655 S
O70 C59 1.251 1_565 S
O71 Eu41 2.374 . S
O71 C59 1.251 . S
H72 C43 0.931 . S
H73 C44 0.931 . S
H74 C46 0.931 . S
H75 C47 0.931 . S
H76 C53 0.931 . S
H77 C54 0.931 . S
H78 C56 0.931 . S
H79 C57 0.931 . S
C80 Eu81 2.835 . S
C80 C82 1.500 . S
C80 O100 1.257 1_554 S
C80 O101 1.260 . S
Eu81 C80 2.835 . S
Eu81 O100 2.473 1_554 S
Eu81 O101 2.480 . S
Eu81 O102 2.430 . S
Eu81 O103 2.670 . S
Eu81 O104 2.394 . S
Eu81 O109 2.355 1_554 S
Eu81 O111 2.374 . S
C82 C80 1.500 . S
C82 C83 1.377 . S
C82 C87 1.377 1_554 S
C83 C82 1.377 . S
C83 C84 1.395 . S
C83 H112 0.931 . S
C84 C83 1.395 . S
C84 C85 1.383 1_554 S
C84 H113 0.931 . S
C85 C84 1.383 1_556 S
C85 C86 1.394 . S
C86 C85 1.394 . S
C86 C87 1.378 . S
C86 H114 0.931 . S
C87 C82 1.377 1_556 S
C87 C86 1.378 . S
C87 H115 0.931 . S
C88 O102 1.259 . S
C88 O103 1.270 . S
C89 O104 1.251 . S
C89 O105 1.251 1_554 S
C90 Eu91 2.835 . S
C90 C92 1.500 . S
C90 O106 1.257 1_556 S
C90 O107 1.260 . S
Eu91 C90 2.835 . S
Eu91 O103 2.355 1_556 S
Eu91 O105 2.374 . S
Eu91 O106 2.473 1_556 S
Eu91 O107 2.480 . S
Eu91 O108 2.430 . S
Eu91 O109 2.670 . S
Eu91 O110 2.394 . S
C92 C90 1.500 . S
C92 C93 1.377 . S
C92 C97 1.377 1_556 S
C93 C92 1.377 . S
C93 C94 1.395 . S
C93 H116 0.931 . S
C94 C93 1.395 . S
C94 C95 1.383 1_556 S
C94 H117 0.931 . S
C95 C94 1.383 1_554 S
C95 C96 1.394 . S
C96 C95 1.394 . S
C96 C97 1.378 . S
C96 H118 0.931 . S
C97 C92 1.377 1_554 S
C97 C96 1.378 . S
C97 H119 0.931 . S
C98 O108 1.259 . S
C98 O109 1.270 . S
C99 O110 1.251 . S
C99 O111 1.251 1_556 S
O100 C80 1.257 1_556 S
O100 Eu81 2.473 1_556 S
O101 C80 1.260 . S
O101 Eu81 2.480 . S
O102 Eu81 2.430 . S
O102 C88 1.259 . S
O103 Eu81 2.670 . S
O103 C88 1.270 . S
O103 Eu91 2.355 1_554 S
O104 Eu81 2.394 . S
O104 C89 1.251 . S
O105 C89 1.251 1_556 S
O105 Eu91 2.374 . S
O106 C90 1.257 1_554 S
O106 Eu91 2.473 1_554 S
O107 C90 1.260 . S
O107 Eu91 2.480 . S
O108 Eu91 2.430 . S
O108 C98 1.259 . S
O109 Eu81 2.355 1_556 S
O109 Eu91 2.670 . S
O109 C98 1.270 . S
O110 Eu91 2.394 . S
O110 C99 1.251 . S
O111 Eu81 2.374 . S
O111 C99 1.251 1_554 S
H112 C83 0.931 . S
H113 C84 0.931 . S
H114 C86 0.931 . S
H115 C87 0.931 . S
H116 C93 0.931 . S
H117 C94 0.931 . S
H118 C96 0.931 . S
H119 C97 0.931 . S
C120 Eu121 2.835 . S
C120 C122 1.500 . S
C120 O140 1.257 . S
C120 O141 1.260 . S
Eu121 C120 2.835 . S
Eu121 O140 2.473 . S
Eu121 O141 2.480 . S
Eu121 O142 2.430 . S
Eu121 O143 2.670 . S
Eu121 O144 2.394 . S
Eu121 O149 2.355 . S
Eu121 O151 2.374 . S
C122 C120 1.500 . S
C122 C123 1.377 . S
C122 C127 1.377 . S
C123 C122 1.377 . S
C123 C124 1.395 . S
C123 H152 0.931 . S
C124 C123 1.395 . S
C124 C125 1.383 . S
C124 H153 0.931 . S
C125 C124 1.383 . S
C125 C126 1.394 . S
C126 C125 1.394 . S
C126 C127 1.378 . S
C126 H154 0.931 . S
C127 C122 1.377 . S
C127 C126 1.378 . S
C127 H155 0.931 . S
C128 O142 1.259 . S
C128 O143 1.270 . S
C129 O144 1.251 . S
C129 O145 1.251 . S
C130 Eu131 2.835 . S
C130 C132 1.500 . S
C130 O146 1.257 . S
C130 O147 1.260 . S
Eu131 C130 2.835 . S
Eu131 O143 2.355 . S
Eu131 O145 2.374 . S
Eu131 O146 2.473 . S
Eu131 O147 2.480 . S
Eu131 O148 2.430 . S
Eu131 O149 2.670 . S
Eu131 O150 2.394 . S
C132 C130 1.500 . S
C132 C133 1.377 . S
C132 C137 1.377 . S
C133 C132 1.377 . S
C133 C134 1.395 . S
C133 H156 0.931 . S
C134 C133 1.395 . S
C134 C135 1.383 . S
C134 H157 0.931 . S
C135 C134 1.383 . S
C135 C136 1.394 . S
C136 C135 1.394 . S
C136 C137 1.378 . S
C136 H158 0.931 . S
C137 C132 1.377 . S
C137 C136 1.378 . S
C137 H159 0.931 . S
C138 O148 1.259 . S
C138 O149 1.270 . S
C139 O150 1.251 . S
C139 O151 1.251 . S
O140 C120 1.257 . S
O140 Eu121 2.473 . S
O141 C120 1.260 . S
O141 Eu121 2.480 . S
O142 Eu121 2.430 . S
O142 C128 1.259 . S
O143 Eu121 2.670 . S
O143 C128 1.270 . S
O143 Eu131 2.355 . S
O144 Eu121 2.394 . S
O144 C129 1.251 . S
O145 C129 1.251 . S
O145 Eu131 2.374 . S
O146 C130 1.257 . S
O146 Eu131 2.473 . S
O147 C130 1.260 . S
O147 Eu131 2.480 . S
O148 Eu131 2.430 . S
O148 C138 1.259 . S
O149 Eu121 2.355 . S
O149 Eu131 2.670 . S
O149 C138 1.270 . S
O150 Eu131 2.394 . S
O150 C139 1.251 . S
O151 Eu121 2.374 . S
O151 C139 1.251 . S
H152 C123 0.931 . S
H153 C124 0.931 . S
H154 C126 0.931 . S
H155 C127 0.931 . S
H156 C133 0.931 . S
H157 C134 0.931 . S
H158 C136 0.931 . S
H159 C137 0.931 . S
H160 C168 0.929 . S
H161 C170 0.930 . S
H162 C172 0.930 . S
H163 C175 0.929 . S
H164 C178 0.930 . S
H165 C180 0.960 . S
H166 C180 0.960 . S
H167 C180 0.960 . S
C168 H160 0.929 . S
C168 C169 1.377 . S
C168 C170 1.384 . S
C169 C168 1.377 . S
C169 C175 1.389 1_554 S
C170 H161 0.930 . S
C170 C168 1.384 . S
C170 C171 1.373 . S
C171 C170 1.373 . S
C171 C172 1.401 1_554 S
C171 C176 1.488 1_554 S
C172 H162 0.930 . S
C172 C171 1.401 1_556 S
C172 C175 1.386 . S
H173 C189 0.930 . S
H174 C190 0.931 . S
C175 H163 0.929 . S
C175 C169 1.389 1_556 S
C175 C172 1.386 . S
C176 C171 1.488 1_556 S
C176 C178 1.402 . S
C176 C179 1.396 1_556 S
H177 C183 0.930 . S
C178 H164 0.930 . S
C178 C176 1.402 . S
C178 C181 1.403 . S
C179 C176 1.396 1_554 S
C179 C180 1.524 . S
C179 C183 1.400 . S
C180 H165 0.960 . S
C180 H166 0.960 . S
C180 H167 0.960 . S
C180 C179 1.524 . S
C181 C178 1.403 . S
C181 C182 1.392 . S
C181 C185 1.495 . S
C182 C181 1.392 . S
C182 C183 1.385 1_556 S
C182 C184 1.478 . S
C183 H177 0.930 . S
C183 C179 1.400 . S
C183 C182 1.385 1_554 S
C184 C182 1.478 . S
C184 C186 1.381 1_556 S
C184 C190 1.383 . S
C185 C181 1.495 . S
C185 H191 0.959 . S
C185 H192 0.961 . S
C185 H193 0.960 . S
C186 C184 1.381 1_554 S
C186 C187 1.394 . S
C186 H194 0.930 . S
C187 C186 1.394 . S
C187 C188 1.383 1_554 S
C187 H195 0.929 . S
C188 C187 1.383 1_556 S
C188 C189 1.377 . S
C189 H173 0.930 . S
C189 C188 1.377 . S
C189 C190 1.379 . S
C190 H174 0.931 . S
C190 C184 1.383 . S
C190 C189 1.379 . S
H191 C185 0.959 . S
H192 C185 0.961 . S
H193 C185 0.960 . S
H194 C186 0.930 . S
H195 C187 0.929 . S
H196 C204 0.929 . S
H197 C206 0.930 . S
H198 C208 0.930 . S
H199 C211 0.929 . S
H200 C214 0.930 . S
H201 C216 0.960 . S
H202 C216 0.960 . S
H203 C216 0.960 . S
C204 H196 0.929 . S
C204 C205 1.377 1_556 S
C204 C206 1.384 . S
C205 C204 1.377 1_554 S
C205 C211 1.390 . S
C206 H197 0.930 . S
C206 C204 1.384 . S
C206 C207 1.372 . S
C207 C206 1.372 . S
C207 C208 1.400 1_556 S
C207 C212 1.490 . S
C208 H198 0.930 . S
C208 C207 1.400 1_554 S
C208 C211 1.386 . S
H209 C225 0.930 . S
H210 C226 0.931 . S
C211 H199 0.929 . S
C211 C205 1.390 . S
C211 C208 1.386 . S
C212 C207 1.490 . S
C212 C214 1.395 . S
C212 C215 1.403 1_556 S
H213 C219 0.930 . S
C214 H200 0.930 . S
C214 C212 1.395 . S
C214 C217 1.403 . S
C215 C212 1.403 1_554 S
C215 C216 1.524 . S
C215 C219 1.400 . S
C216 H201 0.960 . S
C216 H202 0.960 . S
C216 H203 0.960 . S
C216 C215 1.524 . S
C217 C214 1.403 . S
C217 C218 1.392 . S
C217 C221 1.495 . S
C218 C217 1.392 . S
C218 C219 1.385 1_556 S
C218 C220 1.478 . S
C219 H213 0.930 . S
C219 C215 1.400 . S
C219 C218 1.385 1_554 S
C220 C218 1.478 . S
C220 C222 1.381 . S
C220 C226 1.383 1_556 S
C221 C217 1.495 . S
C221 H227 0.959 . S
C221 H228 0.961 . S
C221 H229 0.960 . S
C222 C220 1.381 . S
C222 C223 1.394 . S
C222 H230 0.930 . S
C223 C222 1.394 . S
C223 C224 1.383 . S
C223 H231 0.929 . S
C224 C223 1.383 . S
C224 C225 1.377 1_556 S
C225 H209 0.930 . S
C225 C224 1.377 1_554 S
C225 C226 1.379 . S
C226 H210 0.931 . S
C226 C220 1.383 1_554 S
C226 C225 1.379 . S
H227 C221 0.959 . S
H228 C221 0.961 . S
H229 C221 0.960 . S
H230 C222 0.930 . S
H231 C223 0.929 . S
H232 C240 0.929 . S
H233 C242 0.930 . S
H234 C244 0.930 . S
H235 C247 0.929 . S
H236 C250 0.930 . S
H237 C252 0.960 . S
H238 C252 0.960 . S
H239 C252 0.960 . S
C240 H232 0.929 . S
C240 C241 1.377 . S
C240 C242 1.384 . S
C241 C240 1.377 . S
C241 C247 1.390 . S
C242 H233 0.930 . S
C242 C240 1.384 . S
C242 C243 1.372 . S
C243 C242 1.372 . S
C243 C244 1.400 . S
C243 C248 1.490 . S
C244 H234 0.930 . S
C244 C243 1.400 . S
C244 C247 1.386 . S
H245 C261 0.930 . S
H246 C262 0.931 . S
C247 H235 0.929 . S
C247 C241 1.390 . S
C247 C244 1.386 . S
C248 C243 1.490 . S
C248 C250 1.395 . S
C248 C251 1.403 . S
H249 C255 0.930 . S
C250 H236 0.930 . S
C250 C248 1.395 . S
C250 C253 1.403 . S
C251 C248 1.403 . S
C251 C252 1.524 . S
C251 C255 1.400 . S
C252 H237 0.960 . S
C252 H238 0.960 . S
C252 H239 0.960 . S
C252 C251 1.524 . S
C253 C250 1.403 . S
C253 C254 1.392 . S
C253 C257 1.495 . S
C254 C253 1.392 . S
C254 C255 1.385 . S
C254 C256 1.478 . S
C255 H249 0.930 . S
C255 C251 1.400 . S
C255 C254 1.385 . S
C256 C254 1.478 . S
C256 C258 1.381 . S
C256 C262 1.383 . S
C257 C253 1.495 . S
C257 H263 0.959 . S
C257 H264 0.961 . S
C257 H265 0.960 . S
C258 C256 1.381 . S
C258 C259 1.394 . S
C258 H266 0.930 . S
C259 C258 1.394 . S
C259 C260 1.383 . S
C259 H267 0.929 . S
C260 C259 1.383 . S
C260 C261 1.377 . S
C261 H245 0.930 . S
C261 C260 1.377 . S
C261 C262 1.379 . S
C262 H246 0.931 . S
C262 C256 1.383 . S
C262 C261 1.379 . S
H263 C257 0.959 . S
H264 C257 0.961 . S
H265 C257 0.960 . S
H266 C258 0.930 . S
H267 C259 0.929 . S
H268 C276 0.929 . S
H269 C278 0.930 . S
H270 C280 0.930 . S
H271 C283 0.929 . S
H272 C286 0.930 . S
H273 C288 0.960 . S
H274 C288 0.960 . S
H275 C288 0.960 . S
C276 H268 0.929 . S
C276 C277 1.377 . S
C276 C278 1.384 . S
C277 C276 1.377 . S
C277 C283 1.390 . S
C278 H269 0.930 . S
C278 C276 1.384 . S
C278 C279 1.372 . S
C279 C278 1.372 . S
C279 C280 1.400 . S
C279 C284 1.490 . S
C280 H270 0.930 . S
C280 C279 1.400 . S
C280 C283 1.386 . S
H281 C297 0.930 . S
H282 C298 0.931 . S
C283 H271 0.929 . S
C283 C277 1.390 . S
C283 C280 1.386 . S
C284 C279 1.490 . S
C284 C286 1.395 . S
C284 C287 1.403 . S
H285 C291 0.930 . S
C286 H272 0.930 . S
C286 C284 1.395 . S
C286 C289 1.403 . S
C287 C284 1.403 . S
C287 C288 1.524 . S
C287 C291 1.400 . S
C288 H273 0.960 . S
C288 H274 0.960 . S
C288 H275 0.960 . S
C288 C287 1.524 . S
C289 C286 1.403 . S
C289 C290 1.392 . S
C289 C293 1.495 . S
C290 C289 1.392 . S
C290 C291 1.385 . S
C290 C292 1.478 . S
C291 H285 0.930 . S
C291 C287 1.400 . S
C291 C290 1.385 . S
C292 C290 1.478 . S
C292 C294 1.381 . S
C292 C298 1.383 . S
C293 C289 1.495 . S
C293 H299 0.959 . S
C293 H300 0.961 . S
C293 H301 0.960 . S
C294 C292 1.381 . S
C294 C295 1.394 . S
C294 H302 0.930 . S
C295 C294 1.394 . S
C295 C296 1.383 . S
C295 H303 0.929 . S
C296 C295 1.383 . S
C296 C297 1.377 . S
C297 H281 0.930 . S
C297 C296 1.377 . S
C297 C298 1.379 . S
C298 H282 0.931 . S
C298 C292 1.383 . S
C298 C297 1.379 . S
H299 C293 0.959 . S
H300 C293 0.961 . S
H301 C293 0.960 . S
H302 C294 0.930 . S
H303 C295 0.929 . S
H304 C312 0.929 1_545 S
H305 C314 0.958 . S
H306 C316 0.930 . S
H307 C319 0.929 . S
H308 C322 0.930 . S
H309 C324 0.960 1_545 S
H310 C324 0.960 1_545 S
H311 C324 0.960 . S
C312 H304 0.929 1_565 S
C312 C313 1.377 1_554 S
C312 C314 1.368 1_565 S
C313 C312 1.377 1_556 S
C313 C319 1.390 . S
C314 H305 0.958 . S
C314 C312 1.368 1_545 S
C314 C315 1.361 1_544 S
C315 C314 1.361 1_566 S
C315 C316 1.400 . S
C315 C320 1.490 . S
C316 H306 0.930 . S
C316 C315 1.400 . S
C316 C319 1.386 . S
H317 C333 0.930 1_565 S
H318 C334 0.965 . S
C319 H307 0.929 . S
C319 C313 1.390 . S
C319 C316 1.386 . S
C320 C315 1.490 . S
C320 C322 1.389 1_556 S
C320 C323 1.408 . S
H321 C327 0.930 . S
C322 H308 0.930 . S
C322 C320 1.389 1_554 S
C322 C325 1.403 1_565 S
C323 C320 1.408 . S
C323 C324 1.524 . S
C323 C327 1.400 1_565 S
C324 H309 0.960 1_565 S
C324 H310 0.960 1_565 S
C324 H311 0.960 . S
C324 C323 1.524 . S
C325 C322 1.403 1_545 S
C325 C326 1.392 . S
C325 C329 1.495 . S
C326 C325 1.392 . S
C326 C327 1.385 1_554 S
C326 C328 1.478 . S
C327 H321 0.930 . S
C327 C323 1.400 1_545 S
C327 C326 1.385 1_556 S
C328 C326 1.478 . S
C328 C330 1.381 . S
C328 C334 1.367 1_544 S
C329 C325 1.495 . S
C329 H335 0.959 . S
C329 H336 0.961 1_545 S
C329 H337 0.960 . S
C330 C328 1.381 . S
C330 C331 1.394 . S
C330 H338 0.930 . S
C331 C330 1.394 . S
C331 C332 1.383 . S
C331 H339 0.929 . S
C332 C331 1.383 . S
C332 C333 1.377 1_554 S
C333 H317 0.930 1_545 S
C333 C332 1.377 1_556 S
C333 C334 1.362 1_545 S
C334 H318 0.965 . S
C334 C328 1.367 1_566 S
C334 C333 1.362 1_565 S
H335 C329 0.959 . S
H336 C329 0.961 1_565 S
H337 C329 0.960 . S
H338 C330 0.930 . S
H339 C331 0.929 . S
H340 C348 0.929 . S
H341 C350 0.930 . S
H342 C352 0.930 . S
H343 C355 0.929 . S
H344 C358 0.930 . S
H345 C360 0.960 . S
H346 C360 0.960 . S
H347 C360 0.960 . S
C348 H340 0.929 . S
C348 C349 1.377 . S
C348 C350 1.384 . S
C349 C348 1.377 . S
C349 C355 1.390 1_565 S
C350 H341 0.930 . S
C350 C348 1.384 . S
C350 C351 1.372 . S
C351 C350 1.372 . S
C351 C352 1.400 1_565 S
C351 C356 1.501 . S
C352 H342 0.930 . S
C352 C351 1.400 1_545 S
C352 C355 1.386 . S
H353 C369 0.930 . S
H354 C370 0.931 . S
C355 H343 0.929 . S
C355 C349 1.390 1_545 S
C355 C352 1.386 . S
C356 C351 1.501 . S
C356 C358 1.374 1_565 S
C356 C359 1.414 . S
H357 C363 0.930 . S
C358 H344 0.930 . S
C358 C356 1.374 1_545 S
C358 C361 1.403 . S
C359 C356 1.414 . S
C359 C360 1.524 . S
C359 C363 1.400 . S
C360 H345 0.960 . S
C360 H346 0.960 . S
C360 H347 0.960 . S
C360 C359 1.524 . S
C361 C358 1.403 . S
C361 C362 1.392 . S
C361 C365 1.495 . S
C362 C361 1.392 . S
C362 C363 1.385 1_545 S
C362 C364 1.478 . S
C363 H357 0.930 . S
C363 C359 1.400 . S
C363 C362 1.385 1_565 S
C364 C362 1.478 . S
C364 C366 1.381 1_545 S
C364 C370 1.383 . S
C365 C361 1.495 . S
C365 H371 0.959 . S
C365 H372 0.961 . S
C365 H373 0.960 . S
C366 C364 1.381 1_565 S
C366 C367 1.394 . S
C366 H374 0.930 . S
C367 C366 1.394 . S
C367 C368 1.383 1_565 S
C367 H375 0.929 . S
C368 C367 1.383 1_545 S
C368 C369 1.377 . S
C369 H353 0.930 . S
C369 C368 1.377 . S
C369 C370 1.379 . S
C370 H354 0.931 . S
C370 C364 1.383 . S
C370 C369 1.379 . S
H371 C365 0.959 . S
H372 C365 0.961 . S
H373 C365 0.960 . S
H374 C366 0.930 . S
H375 C367 0.929 . S
H376 C384 0.929 . S
H377 C386 0.930 . S
H378 C388 0.930 . S
H379 C391 0.929 . S
H380 C394 0.930 . S
H381 C396 0.960 1_455 S
H382 C396 0.960 . S
H383 C396 0.960 . S
C384 H376 0.929 . S
C384 C385 1.377 . S
C384 C386 1.384 . S
C385 C384 1.377 . S
C385 C391 1.390 . S
C386 H377 0.930 . S
C386 C384 1.384 . S
C386 C387 1.372 . S
C387 C386 1.372 . S
C387 C388 1.400 . S
C387 C392 1.490 . S
C388 H378 0.930 . S
C388 C387 1.400 . S
C388 C391 1.386 . S
H389 C405 0.930 . S
H390 C406 0.931 . S
C391 H379 0.929 . S
C391 C385 1.390 . S
C391 C388 1.386 . S
C392 C387 1.490 . S
C392 C394 1.395 1_556 S
C392 C395 1.403 . S
H393 C399 0.930 . S
C394 H380 0.930 . S
C394 C392 1.395 1_554 S
C394 C397 1.403 1_655 S
C395 C392 1.403 . S
C395 C396 1.524 . S
C395 C399 1.400 1_655 S
C396 H381 0.960 1_655 S
C396 H382 0.960 . S
C396 H383 0.960 . S
C396 C395 1.524 . S
C397 C394 1.403 1_455 S
C397 C398 1.392 . S
C397 C401 1.495 . S
C398 C397 1.392 . S
C398 C399 1.385 1_554 S
C398 C400 1.478 . S
C399 H393 0.930 . S
C399 C395 1.400 1_455 S
C399 C398 1.385 1_556 S
C400 C398 1.478 . S
C400 C402 1.381 . S
C400 C406 1.383 . S
C401 C397 1.495 . S
C401 H407 0.959 1_455 S
C401 H408 0.961 . S
C401 H409 0.960 . S
C402 C400 1.381 . S
C402 C403 1.394 . S
C402 H410 0.930 . S
C403 C402 1.394 . S
C403 C404 1.383 . S
C403 H411 0.929 . S
C404 C403 1.383 . S
C404 C405 1.377 . S
C405 H389 0.930 . S
C405 C404 1.377 . S
C405 C406 1.379 . S
C406 H390 0.931 . S
C406 C400 1.383 . S
C406 C405 1.379 . S
H407 C401 0.959 1_655 S
H408 C401 0.961 . S
H409 C401 0.960 . S
H410 C402 0.930 . S
H411 C403 0.929 . S
H412 C420 0.929 . S
H413 C422 0.930 . S
H414 C424 0.930 . S
H415 C427 0.929 . S
H416 C430 0.930 . S
H417 C432 0.960 . S
H418 C432 0.960 . S
H419 C432 0.960 . S
C420 H412 0.929 . S
C420 C421 1.377 . S
C420 C422 1.384 . S
C421 C420 1.377 . S
C421 C427 1.390 . S
C422 H413 0.930 . S
C422 C420 1.384 . S
C422 C423 1.372 . S
C423 C422 1.372 . S
C423 C424 1.400 . S
C423 C428 1.490 . S
C424 H414 0.930 . S
C424 C423 1.400 . S
C424 C427 1.386 . S
H425 C441 0.930 . S
H426 C442 0.931 . S
C427 H415 0.929 . S
C427 C421 1.390 . S
C427 C424 1.386 . S
C428 C423 1.490 . S
C428 C430 1.395 . S
C428 C431 1.403 . S
H429 C435 0.930 . S
C430 H416 0.930 . S
C430 C428 1.395 . S
C430 C433 1.403 1_455 S
C431 C428 1.403 . S
C431 C432 1.524 . S
C431 C435 1.400 1_455 S
C432 H417 0.960 . S
C432 H418 0.960 . S
C432 H419 0.960 . S
C432 C431 1.524 . S
C433 C430 1.403 1_655 S
C433 C434 1.392 . S
C433 C437 1.495 . S
C434 C433 1.392 . S
C434 C435 1.385 . S
C434 C436 1.478 . S
C435 H429 0.930 . S
C435 C431 1.400 1_655 S
C435 C434 1.385 . S
C436 C434 1.478 . S
C436 C438 1.381 . S
C436 C442 1.383 . S
C437 C433 1.495 . S
C437 H443 0.959 . S
C437 H444 0.961 . S
C437 H445 0.960 . S
C438 C436 1.381 . S
C438 C439 1.394 . S
C438 H446 0.930 . S
C439 C438 1.394 . S
C439 C440 1.383 . S
C439 H447 0.929 . S
C440 C439 1.383 . S
C440 C441 1.377 . S
C441 H425 0.930 . S
C441 C440 1.377 . S
C441 C442 1.379 . S
C442 H426 0.931 . S
C442 C436 1.383 . S
C442 C441 1.379 . S
H443 C437 0.959 . S
H444 C437 0.961 . S
H445 C437 0.960 . S
H446 C438 0.930 . S
H447 C439 0.929 . S
H448 C456 0.929 . S
H449 C458 0.930 . S
H450 C460 0.930 . S
H451 C463 0.929 . S
H452 C466 0.930 . S
H453 C468 0.960 . S
H454 C468 0.960 . S
H455 C468 0.960 . S
C456 H448 0.929 . S
C456 C457 1.377 . S
C456 C458 1.384 . S
C457 C456 1.377 . S
C457 C463 1.390 1_645 S
C458 H449 0.930 . S
C458 C456 1.384 . S
C458 C459 1.372 . S
C459 C458 1.372 . S
C459 C460 1.400 1_645 S
C459 C464 1.490 . S
C460 H450 0.930 . S
C460 C459 1.400 1_465 S
C460 C463 1.386 . S
H461 C477 0.930 . S
H462 C478 0.931 . S
C463 H451 0.929 . S
C463 C457 1.390 1_465 S
C463 C460 1.386 . S
C464 C459 1.490 . S
C464 C466 1.395 1_655 S
C464 C467 1.403 1_545 S
H465 C471 0.930 . S
C466 H452 0.930 . S
C466 C464 1.395 1_455 S
C466 C469 1.403 . S
C467 C464 1.403 1_565 S
C467 C468 1.524 . S
C467 C471 1.400 . S
C468 H453 0.960 . S
C468 H454 0.960 . S
C468 H455 0.960 . S
C468 C467 1.524 . S
C469 C466 1.403 . S
C469 C470 1.392 . S
C469 C473 1.495 . S
C470 C469 1.392 . S
C470 C471 1.385 1_445 S
C470 C472 1.478 . S
C471 H465 0.930 . S
C471 C467 1.400 . S
C471 C470 1.385 1_665 S
C472 C470 1.478 . S
C472 C474 1.381 1_455 S
C472 C478 1.383 1_545 S
C473 C469 1.495 . S
C473 H479 0.959 . S
C473 H480 0.961 . S
C473 H481 0.960 . S
C474 C472 1.381 1_655 S
C474 C475 1.394 . S
C474 H482 0.930 . S
C475 C474 1.394 . S
C475 C476 1.386 . S
C475 H483 0.929 . S
C476 C475 1.386 . S
C476 C477 1.375 1_645 S
C477 H461 0.930 . S
C477 C476 1.375 1_465 S
C477 C478 1.379 . S
C478 H462 0.931 . S
C478 C472 1.383 1_565 S
C478 C477 1.379 . S
H479 C473 0.959 . S
H480 C473 0.961 . S
H481 C473 0.960 . S
H482 C474 0.930 . S
H483 C475 0.929 . S
H484 C492 0.929 . S
H485 C494 0.930 . S
H486 C496 0.930 . S
H487 C499 0.929 . S
H488 C502 0.930 . S
H489 C504 0.960 . S
H490 C504 0.960 . S
H491 C504 0.960 1_655 S
C492 H484 0.929 . S
C492 C493 1.375 1_565 S
C492 C494 1.384 . S
C493 C492 1.375 1_545 S
C493 C499 1.393 1_455 S
C494 H485 0.930 . S
C494 C492 1.384 . S
C494 C495 1.372 . S
C495 C494 1.372 . S
C495 C496 1.400 1_465 S
C495 C500 1.490 . S
C496 H486 0.930 . S
C496 C495 1.400 1_645 S
C496 C499 1.386 . S
H497 C513 0.930 . S
H498 C514 0.931 . S
C499 H487 0.929 . S
C499 C493 1.393 1_655 S
C499 C496 1.386 . S
C500 C495 1.490 . S
C500 C502 1.395 . S
C500 C503 1.403 1_565 S
H501 C507 0.930 . S
C502 H488 0.930 . S
C502 C500 1.395 . S
C502 C505 1.403 . S
C503 C500 1.403 1_545 S
C503 C504 1.524 . S
C503 C507 1.400 . S
C504 H489 0.960 . S
C504 H490 0.960 . S
C504 H491 0.960 1_455 S
C504 C503 1.524 . S
C505 C502 1.403 . S
C505 C506 1.392 . S
C505 C509 1.495 . S
C506 C505 1.392 . S
C506 C507 1.385 1_565 S
C506 C508 1.478 . S
C507 H501 0.930 . S
C507 C503 1.400 . S
C507 C506 1.385 1_545 S
C508 C506 1.478 . S
C508 C510 1.381 . S
C508 C514 1.383 1_465 S
C509 C505 1.495 . S
C509 H515 0.959 . S
C509 H516 0.961 1_455 S
C509 H517 0.960 . S
C510 C508 1.381 . S
C510 C511 1.394 . S
C510 H518 0.930 . S
C511 C510 1.394 . S
C511 C512 1.383 . S
C511 H519 0.929 . S
C512 C511 1.383 . S
C512 C513 1.377 1_465 S
C513 H497 0.930 . S
C513 C512 1.377 1_645 S
C513 C514 1.379 . S
C514 H498 0.931 . S
C514 C508 1.383 1_645 S
C514 C513 1.379 . S
H515 C509 0.959 . S
H516 C509 0.961 1_655 S
H517 C509 0.960 . S
H518 C510 0.930 . S
H519 C511 0.929 . S
H520 C528 0.929 . S
H521 C530 0.930 . S
H522 C532 0.930 . S
H523 C535 0.929 . S
H524 C538 0.930 . S
H525 C540 0.960 . S
H526 C540 0.960 . S
H527 C540 0.960 . S
C528 H520 0.929 . S
C528 C529 1.377 . S
C528 C530 1.384 . S
C529 C528 1.377 . S
C529 C535 1.390 . S
C530 H521 0.930 . S
C530 C528 1.384 . S
C530 C531 1.372 . S
C531 C530 1.372 . S
C531 C532 1.400 . S
C531 C536 1.490 . S
C532 H522 0.930 . S
C532 C531 1.400 . S
C532 C535 1.386 . S
H533 C549 0.930 . S
H534 C550 0.931 . S
C535 H523 0.929 . S
C535 C529 1.390 . S
C535 C532 1.386 . S
C536 C531 1.490 . S
C536 C538 1.395 . S
C536 C539 1.403 . S
H537 C543 0.930 . S
C538 H524 0.930 . S
C538 C536 1.395 . S
C538 C541 1.403 . S
C539 C536 1.403 . S
C539 C540 1.524 . S
C539 C543 1.400 . S
C540 H525 0.960 . S
C540 H526 0.960 . S
C540 H527 0.960 . S
C540 C539 1.524 . S
C541 C538 1.403 . S
C541 C542 1.392 . S
C541 C545 1.495 . S
C542 C541 1.392 . S
C542 C543 1.385 . S
C542 C544 1.478 . S
C543 H537 0.930 . S
C543 C539 1.400 . S
C543 C542 1.385 . S
C544 C542 1.478 . S
C544 C546 1.381 . S
C544 C550 1.383 . S
C545 C541 1.495 . S
C545 H551 0.959 . S
C545 H552 0.961 . S
C545 H553 0.960 . S
C546 C544 1.381 . S
C546 C547 1.394 . S
C546 H554 0.930 . S
C547 C546 1.394 . S
C547 C548 1.383 . S
C547 H555 0.929 . S
C548 C547 1.383 . S
C548 C549 1.377 . S
C549 H533 0.930 . S
C549 C548 1.377 . S
C549 C550 1.379 . S
C550 H534 0.931 . S
C550 C544 1.383 . S
C550 C549 1.379 . S
H551 C545 0.959 . S
H552 C545 0.961 . S
H553 C545 0.960 . S
H554 C546 0.930 . S
H555 C547 0.929 . S
H556 C564 0.929 . S
H557 C566 0.930 . S
H558 C568 0.930 . S
H559 C571 0.929 . S
H560 C574 0.930 . S
H561 C576 0.960 . S
H562 C576 0.960 . S
H563 C576 0.960 . S
C564 H556 0.929 . S
C564 C565 1.377 . S
C564 C566 1.384 . S
C565 C564 1.377 . S
C565 C571 1.390 . S
C566 H557 0.930 . S
C566 C564 1.384 . S
C566 C567 1.372 . S
C567 C566 1.372 . S
C567 C568 1.400 . S
C567 C572 1.490 . S
C568 H558 0.930 . S
C568 C567 1.400 . S
C568 C571 1.386 . S
H569 C585 0.930 . S
H570 C586 0.931 . S
C571 H559 0.929 . S
C571 C565 1.390 . S
C571 C568 1.386 . S
C572 C567 1.490 . S
C572 C574 1.395 . S
C572 C575 1.403 . S
H573 C579 0.930 . S
C574 H560 0.930 . S
C574 C572 1.395 . S
C574 C577 1.403 . S
C575 C572 1.403 . S
C575 C576 1.524 . S
C575 C579 1.400 . S
C576 H561 0.960 . S
C576 H562 0.960 . S
C576 H563 0.960 . S
C576 C575 1.524 . S
C577 C574 1.403 . S
C577 C578 1.392 . S
C577 C581 1.495 . S
C578 C577 1.392 . S
C578 C579 1.385 . S
C578 C580 1.478 . S
C579 H573 0.930 . S
C579 C575 1.400 . S
C579 C578 1.385 . S
C580 C578 1.478 . S
C580 C582 1.381 . S
C580 C586 1.383 . S
C581 C577 1.495 . S
C581 H587 0.959 . S
C581 H588 0.961 . S
C581 H589 0.960 . S
C582 C580 1.381 . S
C582 C583 1.394 . S
C582 H590 0.930 . S
C583 C582 1.394 . S
C583 C584 1.383 . S
C583 H591 0.929 . S
C584 C583 1.383 . S
C584 C585 1.377 . S
C585 H569 0.930 . S
C585 C584 1.377 . S
C585 C586 1.379 . S
C586 H570 0.931 . S
C586 C580 1.383 . S
C586 C585 1.379 . S
H587 C581 0.959 . S
H588 C581 0.961 . S
H589 C581 0.960 . S
H590 C582 0.930 . S
H591 C583 0.929 . S
C169 C99 3.500 1_554 S
C188 C9 3.502 1_556 S
C205 C89 3.498 . S
C224 C19 3.488 . S
C241 C45 0.147 . S
C260 C135 0.087 . S
C277 C55 0.159 . S
C296 C125 0.237 . S
C313 C5 1.016 . S
C332 C15 1.037 . S
C349 C49 4.811 . S
C368 C59 4.803 . S
C385 C85 1.019 . S
C404 C95 1.053 . S
C421 C139 4.811 . S
C440 C129 4.806 . S
C457 C58 1.453 1_645 S
C476 C8 1.416 1_655 S
C493 C18 1.454 1_445 S
C512 C48 1.471 1_565 S
C529 C138 1.453 . S
C548 C88 1.420 . S
C565 C128 1.448 . S
C584 C98 1.443 . S
