# Generated by pormake.
# Topology uow, (4)-cn, num edge types: 1
# Building blocks:
#     Node 0, Type 0, BuildingBlock: CEKHIL_clean_sbu_0, # of connection points: 4
#     Node 1, Type 0, BuildingBlock: CEKHIL_clean_sbu_0, # of connection points: 4
#     Node 2, Type 0, BuildingBlock: CEKHIL_clean_sbu_0, # of connection points: 4
#     Node 3, Type 0, BuildingBlock: CEKHIL_clean_sbu_0, # of connection points: 4
#     Node 4, Type 0, BuildingBlock: CEKHIL_clean_sbu_0, # of connection points: 4
#     Node 5, Type 0, BuildingBlock: CEKHIL_clean_sbu_0, # of connection points: 4
#     Node 6, Type 0, BuildingBlock: CEKHIL_clean_sbu_0, # of connection points: 4
#     Node 7, Type 0, BuildingBlock: CEKHIL_clean_sbu_0, # of connection points: 4
#     Node 8, Type 0, BuildingBlock: CEKHIL_clean_sbu_0, # of connection points: 4
#     Node 9, Type 0, BuildingBlock: CEKHIL_clean_sbu_0, # of connection points: 4
#     Node 10, Type 0, BuildingBlock: CEKHIL_clean_sbu_0, # of connection points: 4
#     Node 11, Type 0, BuildingBlock: CEKHIL_clean_sbu_0, # of connection points: 4
#     Node 12, Type 0, BuildingBlock: CEKHIL_clean_sbu_0, # of connection points: 4
#     Node 13, Type 0, BuildingBlock: CEKHIL_clean_sbu_0, # of connection points: 4
#     Node 14, Type 0, BuildingBlock: CEKHIL_clean_sbu_0, # of connection points: 4
#     Node 15, Type 0, BuildingBlock: CEKHIL_clean_sbu_0, # of connection points: 4
#     Node 16, Type 0, BuildingBlock: CEKHIL_clean_sbu_0, # of connection points: 4
#     Node 17, Type 0, BuildingBlock: CEKHIL_clean_sbu_0, # of connection points: 4
#     Node 18, Type 0, BuildingBlock: CEKHIL_clean_sbu_0, # of connection points: 4
#     Node 19, Type 0, BuildingBlock: CEKHIL_clean_sbu_0, # of connection points: 4
#     Node 20, Type 0, BuildingBlock: CEKHIL_clean_sbu_0, # of connection points: 4
#     Node 21, Type 0, BuildingBlock: CEKHIL_clean_sbu_0, # of connection points: 4
#     Node 22, Type 0, BuildingBlock: CEKHIL_clean_sbu_0, # of connection points: 4
#     Node 23, Type 0, BuildingBlock: CEKHIL_clean_sbu_0, # of connection points: 4
#     Node 24, Type 0, BuildingBlock: CEKHIL_clean_sbu_0, # of connection points: 4
#     Node 25, Type 0, BuildingBlock: CEKHIL_clean_sbu_0, # of connection points: 4
#     Node 26, Type 0, BuildingBlock: CEKHIL_clean_sbu_0, # of connection points: 4
#     Node 27, Type 0, BuildingBlock: CEKHIL_clean_sbu_0, # of connection points: 4
#     Node 28, Type 0, BuildingBlock: CEKHIL_clean_sbu_0, # of connection points: 4
#     Node 29, Type 0, BuildingBlock: CEKHIL_clean_sbu_0, # of connection points: 4
#     Node 30, Type 0, BuildingBlock: CEKHIL_clean_sbu_0, # of connection points: 4
#     Node 31, Type 0, BuildingBlock: CEKHIL_clean_sbu_0, # of connection points: 4
#     Edge 32, Type (0, 0), BuildingBlock: MIFKUJ_clean_linker_0, # of connection points: 2
#     Edge 33, Type (0, 0), BuildingBlock: MIFKUJ_clean_linker_0, # of connection points: 2
#     Edge 34, Type (0, 0), BuildingBlock: MIFKUJ_clean_linker_0, # of connection points: 2
#     Edge 35, Type (0, 0), BuildingBlock: MIFKUJ_clean_linker_0, # of connection points: 2
#     Edge 36, Type (0, 0), BuildingBlock: MIFKUJ_clean_linker_0, # of connection points: 2
#     Edge 37, Type (0, 0), BuildingBlock: MIFKUJ_clean_linker_0, # of connection points: 2
#     Edge 38, Type (0, 0), BuildingBlock: MIFKUJ_clean_linker_0, # of connection points: 2
#     Edge 39, Type (0, 0), BuildingBlock: MIFKUJ_clean_linker_0, # of connection points: 2
#     Edge 40, Type (0, 0), BuildingBlock: MIFKUJ_clean_linker_0, # of connection points: 2
#     Edge 41, Type (0, 0), BuildingBlock: MIFKUJ_clean_linker_0, # of connection points: 2
#     Edge 42, Type (0, 0), BuildingBlock: MIFKUJ_clean_linker_0, # of connection points: 2
#     Edge 43, Type (0, 0), BuildingBlock: MIFKUJ_clean_linker_0, # of connection points: 2
#     Edge 44, Type (0, 0), BuildingBlock: MIFKUJ_clean_linker_0, # of connection points: 2
#     Edge 45, Type (0, 0), BuildingBlock: MIFKUJ_clean_linker_0, # of connection points: 2
#     Edge 46, Type (0, 0), BuildingBlock: MIFKUJ_clean_linker_0, # of connection points: 2
#     Edge 47, Type (0, 0), BuildingBlock: MIFKUJ_clean_linker_0, # of connection points: 2
#     Edge 48, Type (0, 0), BuildingBlock: MIFKUJ_clean_linker_0, # of connection points: 2
#     Edge 49, Type (0, 0), BuildingBlock: MIFKUJ_clean_linker_0, # of connection points: 2
#     Edge 50, Type (0, 0), BuildingBlock: MIFKUJ_clean_linker_0, # of connection points: 2
#     Edge 51, Type (0, 0), BuildingBlock: MIFKUJ_clean_linker_0, # of connection points: 2
#     Edge 52, Type (0, 0), BuildingBlock: MIFKUJ_clean_linker_0, # of connection points: 2
#     Edge 53, Type (0, 0), BuildingBlock: MIFKUJ_clean_linker_0, # of connection points: 2
#     Edge 54, Type (0, 0), BuildingBlock: MIFKUJ_clean_linker_0, # of connection points: 2
#     Edge 55, Type (0, 0), BuildingBlock: MIFKUJ_clean_linker_0, # of connection points: 2
#     Edge 56, Type (0, 0), BuildingBlock: MIFKUJ_clean_linker_0, # of connection points: 2
#     Edge 57, Type (0, 0), BuildingBlock: MIFKUJ_clean_linker_0, # of connection points: 2
#     Edge 58, Type (0, 0), BuildingBlock: MIFKUJ_clean_linker_0, # of connection points: 2
#     Edge 59, Type (0, 0), BuildingBlock: MIFKUJ_clean_linker_0, # of connection points: 2
#     Edge 60, Type (0, 0), BuildingBlock: MIFKUJ_clean_linker_0, # of connection points: 2
#     Edge 61, Type (0, 0), BuildingBlock: MIFKUJ_clean_linker_0, # of connection points: 2
#     Edge 62, Type (0, 0), BuildingBlock: MIFKUJ_clean_linker_0, # of connection points: 2
#     Edge 63, Type (0, 0), BuildingBlock: MIFKUJ_clean_linker_0, # of connection points: 2
#     Edge 64, Type (0, 0), BuildingBlock: MIFKUJ_clean_linker_0, # of connection points: 2
#     Edge 65, Type (0, 0), BuildingBlock: MIFKUJ_clean_linker_0, # of connection points: 2
#     Edge 66, Type (0, 0), BuildingBlock: MIFKUJ_clean_linker_0, # of connection points: 2
#     Edge 67, Type (0, 0), BuildingBlock: MIFKUJ_clean_linker_0, # of connection points: 2
#     Edge 68, Type (0, 0), BuildingBlock: MIFKUJ_clean_linker_0, # of connection points: 2
#     Edge 69, Type (0, 0), BuildingBlock: MIFKUJ_clean_linker_0, # of connection points: 2
#     Edge 70, Type (0, 0), BuildingBlock: MIFKUJ_clean_linker_0, # of connection points: 2
#     Edge 71, Type (0, 0), BuildingBlock: MIFKUJ_clean_linker_0, # of connection points: 2
#     Edge 72, Type (0, 0), BuildingBlock: MIFKUJ_clean_linker_0, # of connection points: 2
#     Edge 73, Type (0, 0), BuildingBlock: MIFKUJ_clean_linker_0, # of connection points: 2
#     Edge 74, Type (0, 0), BuildingBlock: MIFKUJ_clean_linker_0, # of connection points: 2
#     Edge 75, Type (0, 0), BuildingBlock: MIFKUJ_clean_linker_0, # of connection points: 2
#     Edge 76, Type (0, 0), BuildingBlock: MIFKUJ_clean_linker_0, # of connection points: 2
#     Edge 77, Type (0, 0), BuildingBlock: MIFKUJ_clean_linker_0, # of connection points: 2
#     Edge 78, Type (0, 0), BuildingBlock: MIFKUJ_clean_linker_0, # of connection points: 2
#     Edge 79, Type (0, 0), BuildingBlock: MIFKUJ_clean_linker_0, # of connection points: 2
#     Edge 80, Type (0, 0), BuildingBlock: MIFKUJ_clean_linker_0, # of connection points: 2
#     Edge 81, Type (0, 0), BuildingBlock: MIFKUJ_clean_linker_0, # of connection points: 2
#     Edge 82, Type (0, 0), BuildingBlock: MIFKUJ_clean_linker_0, # of connection points: 2
#     Edge 83, Type (0, 0), BuildingBlock: MIFKUJ_clean_linker_0, # of connection points: 2
#     Edge 84, Type (0, 0), BuildingBlock: MIFKUJ_clean_linker_0, # of connection points: 2
#     Edge 85, Type (0, 0), BuildingBlock: MIFKUJ_clean_linker_0, # of connection points: 2
#     Edge 86, Type (0, 0), BuildingBlock: MIFKUJ_clean_linker_0, # of connection points: 2
#     Edge 87, Type (0, 0), BuildingBlock: MIFKUJ_clean_linker_0, # of connection points: 2
#     Edge 88, Type (0, 0), BuildingBlock: MIFKUJ_clean_linker_0, # of connection points: 2
#     Edge 89, Type (0, 0), BuildingBlock: MIFKUJ_clean_linker_0, # of connection points: 2
#     Edge 90, Type (0, 0), BuildingBlock: MIFKUJ_clean_linker_0, # of connection points: 2
#     Edge 91, Type (0, 0), BuildingBlock: MIFKUJ_clean_linker_0, # of connection points: 2
#     Edge 92, Type (0, 0), BuildingBlock: MIFKUJ_clean_linker_0, # of connection points: 2
#     Edge 93, Type (0, 0), BuildingBlock: MIFKUJ_clean_linker_0, # of connection points: 2
#     Edge 94, Type (0, 0), BuildingBlock: MIFKUJ_clean_linker_0, # of connection points: 2
#     Edge 95, Type (0, 0), BuildingBlock: MIFKUJ_clean_linker_0, # of connection points: 2
# Relax obj value: 0.099
# Max RMSD: 0.128
# Mean RMSD: 0.128
data_MOF--net-uow--node1-CEKHIL_clean_sbu_0--edge1-MIFKUJ_clean_linker_0
_symmetry_space_group_name_H-M    P1
_symmetry_Int_Tables_number       1
_symmetry_cell_setting            triclinic
loop_
_symmetry_equiv_pos_as_xyz
'x, y, z'
_cell_length_a     80.067843
_cell_length_b     80.133988
_cell_length_c     51.87903
_cell_angle_alpha  90.015149
_cell_angle_beta   89.996914
_cell_angle_gamma 89.999359
loop_
_atom_site_label
_atom_site_type_symbol
_atom_site_fract_x
_atom_site_fract_y
_atom_site_fract_z
_atom_type_partial_charge
Co0 Co 0.04713 0.38776 0.27719 0.0
O1 O 0.04492 0.40868 0.25968 0.0
O2 O 0.06618 0.40192 0.28498 0.0
C3 C 0.02088 0.38648 0.29285 0.0
O4 O 0.05317 0.36721 0.29868 0.0
Co5 Co 0.02522 0.3578 0.25882 0.0
O6 O 0.03457 0.34686 0.28982 0.0
C7 C 0.05528 0.36717 0.22924 0.0
C8 C 0.05904 0.41286 0.27003 0.0
C9 C 0.04701 0.35252 0.30244 0.0
O10 O 0.05911 0.37816 0.24633 0.0
O11 O 0.04175 0.35866 0.22985 0.0
O12 O 0.0322 0.39519 0.3047 0.0
O13 O 0.02527 0.38061 0.27071 0.0
Co14 Co 0.86134 0.79591 0.53338 0.0
O15 O 0.83918 0.78985 0.52334 0.0
O16 O 0.84631 0.81456 0.53906 0.0
C17 C 0.86712 0.77234 0.55529 0.0
O18 O 0.88304 0.80615 0.54661 0.0
Co19 Co 0.89121 0.77476 0.51303 0.0
O20 O 0.90407 0.78832 0.53809 0.0
C21 C 0.8743 0.79837 0.47831 0.0
C22 C 0.8347 0.80479 0.53 0.0
C23 C 0.89844 0.80161 0.5485 0.0
O24 O 0.86602 0.80426 0.49749 0.0
O25 O 0.88385 0.78559 0.48008 0.0
O26 O 0.85868 0.78425 0.56626 0.0
O27 O 0.87011 0.77439 0.53107 0.0
Co28 Co 0.44807 0.61159 0.77528 0.0
O29 O 0.45086 0.59089 0.75741 0.0
O30 O 0.42895 0.59732 0.78172 0.0
C31 C 0.47391 0.61314 0.7924 0.0
O32 O 0.44131 0.63182 0.79669 0.0
Co33 Co 0.46976 0.64183 0.75772 0.0
O34 O 0.45849 0.65322 0.78692 0.0
C35 C 0.44172 0.6307 0.72559 0.0
C36 C 0.43644 0.58666 0.76673 0.0
C37 C 0.44643 0.64694 0.79974 0.0
O38 O 0.43667 0.62127 0.74404 0.0
O39 O 0.45566 0.63854 0.7261 0.0
O40 O 0.46247 0.60412 0.80341 0.0
O41 O 0.46994 0.61911 0.77012 0.0
Co42 Co 0.63542 0.2001 0.03093 0.0
O43 O 0.65744 0.20637 0.0201 0.0
O44 O 0.65104 0.18228 0.03856 0.0
C45 C 0.62885 0.22438 0.05034 0.0
O46 O 0.6141 0.18974 0.04544 0.0
Co47 Co 0.60493 0.21923 0.00798 0.0
O48 O 0.59203 0.2049 0.03191 0.0
C49 C 0.62261 0.19461 0.97616 0.0
C50 C 0.66237 0.19195 0.02851 0.0
C51 C 0.59832 0.19291 0.04482 0.0
O52 O 0.63093 0.18991 0.99608 0.0
O53 O 0.6128 0.20723 0.9763 0.0
O54 O 0.63785 0.21337 0.06238 0.0
O55 O 0.62581 0.22118 0.02642 0.0
Co56 Co 0.05001 0.61134 0.21214 0.0
O57 O 0.04488 0.59158 0.23149 0.0
O58 O 0.06781 0.59512 0.20819 0.0
C59 C 0.02468 0.61444 0.19355 0.0
O60 O 0.05929 0.62998 0.18942 0.0
Co61 Co 0.03094 0.64438 0.2238 0.0
O62 O 0.04179 0.65192 0.1915 0.0
C63 C 0.05803 0.63331 0.25854 0.0
C64 C 0.05902 0.58565 0.2234 0.0
C65 C 0.05447 0.64455 0.18192 0.0
O66 O 0.06149 0.62117 0.24323 0.0
O67 O 0.04565 0.64318 0.25507 0.0
O68 O 0.03552 0.60413 0.18384 0.0
O69 O 0.02883 0.62104 0.21531 0.0
Co70 Co 0.63808 0.8009 0.46561 0.0
O71 O 0.65814 0.79562 0.48414 0.0
O72 O 0.65418 0.8187 0.46144 0.0
C73 C 0.63481 0.7756 0.44714 0.0
O74 O 0.61937 0.8104 0.44338 0.0
Co75 Co 0.60471 0.7822 0.47639 0.0
O76 O 0.59792 0.79226 0.44308 0.0
C77 C 0.61593 0.80908 0.51158 0.0
C78 C 0.66401 0.80973 0.47582 0.0
C79 C 0.60526 0.80523 0.43457 0.0
O80 O 0.62852 0.81224 0.49697 0.0
O81 O 0.6057 0.79708 0.50745 0.0
O82 O 0.64505 0.78639 0.43713 0.0
O83 O 0.62821 0.77986 0.46884 0.0
Co84 Co 0.4509 0.38925 0.71391 0.0
O85 O 0.4558 0.41046 0.72919 0.0
O86 O 0.43201 0.40409 0.70967 0.0
C87 C 0.47542 0.38625 0.69305 0.0
O88 O 0.44167 0.3688 0.6954 0.0
Co89 Co 0.47216 0.35805 0.72783 0.0
O90 O 0.46108 0.3485 0.69689 0.0
C91 C 0.44703 0.37075 0.76472 0.0
C92 C 0.44096 0.41504 0.72205 0.0
C93 C 0.44744 0.35452 0.68831 0.0
O94 O 0.44168 0.38114 0.74774 0.0
O95 O 0.45979 0.36137 0.76114 0.0
O96 O 0.46353 0.39512 0.68289 0.0
O97 O 0.47265 0.38093 0.71612 0.0
Co98 Co 0.85942 0.20058 0.96298 0.0
O99 O 0.83931 0.20601 0.98104 0.0
O100 O 0.84334 0.18252 0.95941 0.0
C101 C 0.86243 0.2256 0.94361 0.0
O102 O 0.8786 0.19126 0.94125 0.0
Co103 Co 0.89201 0.22041 0.97507 0.0
O104 O 0.89934 0.21025 0.94213 0.0
C105 C 0.88114 0.19336 0.01002 0.0
C106 C 0.83346 0.19178 0.97333 0.0
C107 C 0.89267 0.19705 0.93306 0.0
O108 O 0.86891 0.18978 0.9949 0.0
O109 O 0.89105 0.20567 0.00624 0.0
O110 O 0.85248 0.21446 0.93382 0.0
O111 O 0.86876 0.22186 0.96572 0.0
Co112 Co 0.95759 0.61191 0.72299 0.0
O113 O 0.96174 0.5909 0.73938 0.0
O114 O 0.93865 0.59723 0.71792 0.0
C115 C 0.9827 0.61431 0.70373 0.0
O116 O 0.94921 0.63218 0.70308 0.0
Co117 Co 0.97893 0.64303 0.73731 0.0
O118 O 0.96816 0.65279 0.70636 0.0
C119 C 0.95207 0.63175 0.77232 0.0
C120 C 0.94708 0.58638 0.7313 0.0
C121 C 0.95487 0.64665 0.6967 0.0
O122 O 0.94744 0.62071 0.7558 0.0
O123 O 0.96494 0.64104 0.76925 0.0
O124 O 0.97101 0.60538 0.69312 0.0
O125 O 0.97937 0.61999 0.72642 0.0
Co126 Co 0.14047 0.20152 0.46247 0.0
O127 O 0.1629 0.20727 0.47164 0.0
O128 O 0.15532 0.18307 0.45462 0.0
C129 C 0.13401 0.22565 0.44253 0.0
O130 O 0.11857 0.19156 0.44975 0.0
Co131 Co 0.11106 0.22182 0.486 0.0
O132 O 0.09719 0.20776 0.46289 0.0
C133 C 0.12879 0.19732 0.51808 0.0
C134 C 0.16715 0.19249 0.46381 0.0
C135 C 0.10293 0.19528 0.45046 0.0
O136 O 0.13665 0.19206 0.49804 0.0
O137 O 0.11927 0.21016 0.51776 0.0
O138 O 0.14217 0.21409 0.43026 0.0
O139 O 0.13173 0.22299 0.46679 0.0
Co140 Co 0.54781 0.38995 0.21844 0.0
O141 O 0.54439 0.41153 0.23351 0.0
O142 O 0.56714 0.40391 0.21215 0.0
C143 C 0.52254 0.3878 0.19962 0.0
O144 O 0.55553 0.36893 0.19974 0.0
Co145 Co 0.52566 0.3598 0.2346 0.0
O146 O 0.53577 0.34912 0.20374 0.0
C147 C 0.55221 0.37196 0.26954 0.0
C148 C 0.5591 0.41537 0.22488 0.0
C149 C 0.54926 0.35462 0.19384 0.0
O150 O 0.55776 0.38172 0.25181 0.0
O151 O 0.53884 0.36332 0.26709 0.0
O152 O 0.53444 0.39605 0.1883 0.0
O153 O 0.52583 0.3826 0.22259 0.0
Co154 Co 0.36252 0.79848 0.96867 0.0
O155 O 0.34029 0.79395 0.9805 0.0
O156 O 0.34821 0.81739 0.96126 0.0
C157 C 0.36707 0.77387 0.94896 0.0
O158 O 0.38432 0.80729 0.95355 0.0
Co159 Co 0.39193 0.77729 0.99004 0.0
O160 O 0.40552 0.79046 0.96538 0.0
C161 C 0.37646 0.8029 0.02287 0.0
C162 C 0.33645 0.80875 0.97229 0.0
C163 C 0.39983 0.80301 0.95308 0.0
O164 O 0.36811 0.80821 0.00338 0.0
O165 O 0.38553 0.78974 0.02211 0.0
O166 O 0.35891 0.78565 0.9372 0.0
O167 O 0.37047 0.77665 0.9729 0.0
Co168 Co 0.95278 0.38942 0.78583 0.0
O169 O 0.95754 0.41094 0.77164 0.0
O170 O 0.93342 0.40373 0.78967 0.0
C171 C 0.97667 0.38626 0.80808 0.0
O172 O 0.94362 0.3684 0.80267 0.0
Co173 Co 0.97513 0.35922 0.77058 0.0
O174 O 0.9622 0.34755 0.79783 0.0
C175 C 0.95069 0.37248 0.73345 0.0
C176 C 0.94237 0.41493 0.77788 0.0
C177 C 0.94867 0.35342 0.80715 0.0
O178 O 0.94449 0.38183 0.75116 0.0
O179 O 0.96386 0.36365 0.73667 0.0
O180 O 0.96441 0.3948 0.81791 0.0
O181 O 0.97474 0.38161 0.78446 0.0
Co182 Co 0.36116 0.1993 0.5312 0.0
O183 O 0.34018 0.20393 0.51493 0.0
O184 O 0.34575 0.18111 0.53753 0.0
C185 C 0.36481 0.22479 0.54882 0.0
O186 O 0.38117 0.19073 0.55163 0.0
Co187 Co 0.39304 0.21879 0.51453 0.0
O188 O 0.40259 0.20854 0.546 0.0
C189 C 0.38087 0.19089 0.48248 0.0
C190 C 0.33509 0.18975 0.5241 0.0
C191 C 0.39599 0.19596 0.55707 0.0
O192 O 0.36945 0.18764 0.49919 0.0
O193 O 0.39072 0.20343 0.48427 0.0
O194 O 0.35524 0.21389 0.56006 0.0
O195 O 0.37024 0.22058 0.52632 0.0
Co196 Co 0.55005 0.60858 0.28957 0.0
O197 O 0.54528 0.58657 0.27693 0.0
O198 O 0.57011 0.59515 0.29068 0.0
C199 C 0.52721 0.6107 0.31477 0.0
O200 O 0.55953 0.62988 0.30513 0.0
Co201 Co 0.52617 0.63841 0.2792 0.0
O202 O 0.53918 0.64916 0.30725 0.0
C203 C 0.54946 0.62714 0.23838 0.0
C204 C 0.56087 0.58324 0.2814 0.0
C205 C 0.55375 0.64396 0.31303 0.0
O206 O 0.55602 0.61644 0.25384 0.0
O207 O 0.53686 0.63619 0.24439 0.0
O208 O 0.54038 0.6029 0.32314 0.0
O209 O 0.52781 0.61563 0.29114 0.0
Co210 Co 0.14065 0.79936 0.03076 0.0
O211 O 0.16122 0.79628 0.01236 0.0
O212 O 0.15529 0.81817 0.03698 0.0
C213 C 0.13892 0.77345 0.04762 0.0
O214 O 0.12082 0.80659 0.05289 0.0
Co215 Co 0.10943 0.77834 0.01566 0.0
O216 O 0.09973 0.78841 0.04719 0.0
C217 C 0.12001 0.80644 0.98268 0.0
C218 C 0.16574 0.81057 0.02179 0.0
C219 C 0.10617 0.80099 0.0585 0.0
O220 O 0.13085 0.81086 -0.00034 0.0
O221 O 0.11125 0.79312 0.98459 0.0
O222 O 0.14817 0.78472 0.05863 0.0
O223 O 0.13264 0.77768 0.02567 0.0
Co224 Co 0.54795 0.89548 0.78672 0.0
O225 O 0.54332 0.91755 0.77461 0.0
O226 O 0.56771 0.90926 0.79025 0.0
C227 C 0.52446 0.89205 0.80998 0.0
O228 O 0.55701 0.87374 0.80142 0.0
Co229 Co 0.52463 0.86618 0.7706 0.0
O230 O 0.53676 0.85432 0.79857 0.0
C231 C 0.54889 0.8797 0.73328 0.0
C232 C 0.55876 0.92107 0.77993 0.0
C233 C 0.55094 0.85927 0.80672 0.0
O234 O 0.5553 0.88881 0.7511 0.0
O235 O 0.53578 0.87078 0.73663 0.0
O236 O 0.53708 0.90007 0.81978 0.0
O237 O 0.52585 0.88811 0.78597 0.0
Co238 Co 0.3583 0.2997 0.03806 0.0
O239 O 0.33681 0.29563 0.02319 0.0
O240 O 0.3441 0.31905 0.04292 0.0
C241 C 0.36092 0.27507 0.05855 0.0
O242 O 0.37933 0.30796 0.05625 0.0
Co243 Co 0.38837 0.27727 0.02189 0.0
O244 O 0.39986 0.28914 0.05033 0.0
C245 C 0.37626 0.30341 0.98657 0.0
C246 C 0.33278 0.31057 0.03055 0.0
C247 C 0.39419 0.30244 0.06062 0.0
O248 O 0.36643 0.309 0.00419 0.0
O249 O 0.38492 0.29009 0.98918 0.0
O250 O 0.35228 0.28704 0.06897 0.0
O251 O 0.3659 0.27777 0.0353 0.0
Co252 Co 0.95197 0.10779 0.28433 0.0
O253 O 0.95572 0.08563 0.2717 0.0
O254 O 0.93212 0.09439 0.28963 0.0
C255 C 0.9761 0.11063 0.30617 0.0
O256 O 0.94387 0.12967 0.29994 0.0
Co257 Co 0.97545 0.13643 0.26636 0.0
O258 O 0.96319 0.14954 0.29272 0.0
C259 C 0.94995 0.12333 0.23081 0.0
C260 C 0.94052 0.0824 0.27875 0.0
C261 C 0.94959 0.14458 0.30298 0.0
O262 O 0.94365 0.11467 0.24926 0.0
O263 O 0.96349 0.13171 0.23313 0.0
O264 O 0.96355 0.10282 0.31653 0.0
O265 O 0.97429 0.11463 0.28223 0.0
Co266 Co 0.1436 0.70157 0.53409 0.0
O267 O 0.16561 0.70602 0.52123 0.0
O268 O 0.15775 0.68232 0.53968 0.0
C269 C 0.14004 0.72617 0.55449 0.0
O270 O 0.12231 0.6928 0.5509 0.0
Co271 Co 0.11331 0.72321 0.51686 0.0
O272 O 0.10162 0.71143 0.54521 0.0
C273 C 0.12761 0.69839 0.48113 0.0
C274 C 0.16948 0.69108 0.52883 0.0
C275 C 0.10741 0.69817 0.55541 0.0
O276 O 0.13672 0.69243 0.49938 0.0
O277 O 0.11859 0.71147 0.48377 0.0
O278 O 0.14846 0.71426 0.56552 0.0
O279 O 0.13564 0.72335 0.53099 0.0
Co280 Co 0.55116 0.10853 0.71012 0.0
O281 O 0.54798 0.08533 0.71753 0.0
O282 O 0.571 0.09618 0.70053 0.0
C283 C 0.52606 0.1129 0.69177 0.0
O284 O 0.55855 0.13166 0.6988 0.0
Co285 Co 0.52858 0.13509 0.7364 0.0
O286 O 0.54052 0.151 0.71354 0.0
C287 C 0.55554 0.11928 0.76609 0.0
C288 C 0.563 0.0831 0.70883 0.0
C289 C 0.55333 0.14682 0.70044 0.0
O290 O 0.56089 0.11226 0.74541 0.0
O291 O 0.54192 0.12763 0.76707 0.0
O292 O 0.53818 0.10644 0.67837 0.0
O293 O 0.529 0.11483 0.71604 0.0
Co294 Co 0.14364 0.29896 0.95968 0.0
O295 O 0.1667 0.29554 0.96793 0.0
O296 O 0.15583 0.31959 0.95492 0.0
C297 C 0.14013 0.2757 0.93605 0.0
O298 O 0.12065 0.30679 0.9481 0.0
Co299 Co 0.11682 0.27404 0.97938 0.0
O300 O 0.1017 0.28669 0.95619 0.0
C301 C 0.13115 0.29858 0.0153 0.0
C302 C 0.16886 0.31117 0.96234 0.0
C303 C 0.10581 0.30069 0.94638 0.0
O304 O 0.1388 0.30558 0.99641 0.0
O305 O 0.12283 0.28502 0.01288 0.0
O306 O 0.14681 0.2889 0.92576 0.0
O307 O 0.13761 0.27641 0.96062 0.0
Co308 Co 0.95423 0.88894 0.2173 0.0
O309 O 0.9568 0.91006 0.23435 0.0
O310 O 0.93508 0.90287 0.21008 0.0
C311 C 0.98023 0.88727 0.20083 0.0
O312 O 0.94731 0.86851 0.19653 0.0
Co313 Co 0.97565 0.85824 0.23331 0.0
O314 O 0.96626 0.84805 0.2016 0.0
C315 C 0.94651 0.86815 0.26491 0.0
C316 C 0.94237 0.91389 0.22461 0.0
C317 C 0.95325 0.85404 0.19086 0.0
O318 O 0.94276 0.87966 0.24866 0.0
O319 O 0.95959 0.85902 0.26301 0.0
O320 O 0.96882 0.89595 0.18908 0.0
O321 O 0.97606 0.88142 0.22309 0.0
Co322 Co 0.3581 0.70136 0.45316 0.0
O323 O 0.33502 0.70613 0.45911 0.0
O324 O 0.3448 0.68164 0.44618 0.0
C325 C 0.36401 0.72485 0.43117 0.0
O326 O 0.38107 0.6922 0.44415 0.0
Co327 Co 0.38506 0.7245 0.47727 0.0
O328 O 0.4009 0.71002 0.45801 0.0
C329 C 0.36641 0.7014 0.51029 0.0
C330 C 0.33204 0.69073 0.45291 0.0
C331 C 0.39643 0.69674 0.44635 0.0
O332 O 0.36074 0.69401 0.49011 0.0
O333 O 0.37477 0.715 0.50936 0.0
O334 O 0.35726 0.71221 0.41937 0.0
O335 O 0.36532 0.72345 0.45584 0.0
Co336 Co 0.44533 0.10643 0.20905 0.0
O337 O 0.44865 0.08326 0.21658 0.0
O338 O 0.42464 0.09441 0.20384 0.0
C339 C 0.46883 0.10998 0.18581 0.0
O340 O 0.43743 0.12956 0.19843 0.0
Co341 Co 0.47015 0.13324 0.22892 0.0
O342 O 0.45872 0.14762 0.20316 0.0
C343 C 0.44542 0.11867 0.26467 0.0
C344 C 0.43298 0.08127 0.211 0.0
C345 C 0.44419 0.14394 0.19487 0.0
O346 O 0.43867 0.11077 0.24582 0.0
O347 O 0.45876 0.12737 0.26227 0.0
O348 O 0.45557 0.10366 0.17512 0.0
O349 O 0.46792 0.11238 0.21038 0.0
Co350 Co 0.63526 0.70143 0.96114 0.0
O351 O 0.65591 0.70752 0.97722 0.0
O352 O 0.65115 0.68318 0.95842 0.0
C353 C 0.63144 0.72551 0.93935 0.0
O354 O 0.6155 0.69118 0.94183 0.0
Co355 Co 0.6031 0.72174 0.97408 0.0
O356 O 0.59391 0.70913 0.94441 0.0
C357 C 0.61638 0.6977 0.01182 0.0
C358 C 0.66141 0.69285 0.97093 0.0
C359 C 0.60068 0.69596 0.93538 0.0
O360 O 0.6268 0.6922 0.99495 0.0
O361 O 0.60697 0.71037 0.00793 0.0
O362 O 0.64126 0.71406 0.93005 0.0
O363 O 0.62591 0.72271 0.96227 0.0
Co364 Co 0.05012 0.89303 0.7089 0.0
O365 O 0.04462 0.91469 0.72193 0.0
O366 O 0.0691 0.90787 0.70507 0.0
C367 C 0.02616 0.88912 0.6868 0.0
O368 O 0.06006 0.872 0.69296 0.0
Co369 Co 0.02853 0.86213 0.72366 0.0
O370 O 0.04076 0.85158 0.69461 0.0
C371 C 0.05249 0.87622 0.76128 0.0
C372 C 0.05971 0.91912 0.71593 0.0
C373 C 0.05466 0.85741 0.68674 0.0
O374 O 0.05831 0.88616 0.74402 0.0
O375 O 0.03991 0.86665 0.75743 0.0
O376 O 0.03828 0.89766 0.67653 0.0
O377 O 0.02844 0.88462 0.71037 0.0
Co378 Co 0.86092 0.29729 0.46299 0.0
O379 O 0.84011 0.29278 0.47987 0.0
O380 O 0.84601 0.31621 0.45916 0.0
C381 C 0.86324 0.27241 0.44302 0.0
O382 O 0.88089 0.30607 0.44263 0.0
Co383 Co 0.89245 0.27594 0.4754 0.0
O384 O 0.90146 0.28695 0.4441 0.0
C385 C 0.8817 0.30242 0.51151 0.0
C386 C 0.83537 0.30753 0.47258 0.0
C387 C 0.89519 0.3004 0.43525 0.0
O388 O 0.87017 0.30706 0.49581 0.0
O389 O 0.89108 0.28972 0.50759 0.0
O390 O 0.85411 0.28413 0.43293 0.0
O391 O 0.86921 0.27557 0.46557 0.0
Co392 Co 0.45079 0.8954 0.28593 0.0
O393 O 0.45374 0.91782 0.27423 0.0
O394 O 0.43155 0.90876 0.29556 0.0
C395 C 0.4766 0.89205 0.30229 0.0
O396 O 0.44393 0.87306 0.30157 0.0
Co397 Co 0.47247 0.8673 0.26128 0.0
O398 O 0.46182 0.85318 0.28805 0.0
C399 C 0.44477 0.882 0.23189 0.0
C400 C 0.43919 0.92102 0.28403 0.0
C401 C 0.44944 0.85794 0.30167 0.0
O402 O 0.43963 0.88945 0.25235 0.0
O403 O 0.45857 0.87397 0.2308 0.0
O404 O 0.46518 0.89961 0.31573 0.0
O405 O 0.47255 0.88854 0.27886 0.0
Co406 Co 0.85658 0.70143 0.03946 0.0
O407 O 0.83435 0.70701 0.02885 0.0
O408 O 0.84171 0.68277 0.04599 0.0
C409 C 0.86195 0.72569 0.05993 0.0
O410 O 0.87829 0.69169 0.05362 0.0
Co411 Co 0.88662 0.72253 0.01931 0.0
O412 O 0.89916 0.70982 0.04586 0.0
C413 C 0.87018 0.6982 0.98502 0.0
C414 C 0.83001 0.69221 0.03644 0.0
C415 C 0.89354 0.69655 0.0563 0.0
O416 O 0.86173 0.69236 0.00408 0.0
O417 O 0.87947 0.71117 0.98672 0.0
O418 O 0.85364 0.71399 0.07166 0.0
O419 O 0.86512 0.72292 0.03598 0.0
Co420 Co 0.05034 0.11054 0.78192 0.0
O421 O 0.04639 0.08778 0.77245 0.0
O422 O 0.0696 0.09703 0.79092 0.0
C423 C 0.02523 0.11501 0.80028 0.0
O424 O 0.05832 0.13306 0.79543 0.0
Co425 Co 0.02865 0.13859 0.7575 0.0
O426 O 0.0406 0.15319 0.78229 0.0
C427 C 0.05539 0.123 0.7269 0.0
C428 C 0.06113 0.08456 0.78154 0.0
C429 C 0.05327 0.14833 0.79517 0.0
O430 O 0.06049 0.1152 0.74707 0.0
O431 O 0.04199 0.13172 0.72651 0.0
O432 O 0.03705 0.10769 0.8132 0.0
O433 O 0.02842 0.11774 0.77626 0.0
Co434 Co 0.64282 0.2986 0.53918 0.0
O435 O 0.66536 0.2944 0.52881 0.0
O436 O 0.65589 0.31897 0.54193 0.0
C437 C 0.64015 0.27579 0.56419 0.0
O438 O 0.62039 0.3071 0.55247 0.0
Co439 Co 0.61501 0.27321 0.524 0.0
O440 O 0.6015 0.28642 0.54869 0.0
C441 C 0.627 0.29765 0.48562 0.0
C442 C 0.66838 0.30995 0.53387 0.0
C443 C 0.60577 0.3009 0.55654 0.0
O444 O 0.63639 0.30457 0.50269 0.0
O445 O 0.61856 0.28435 0.4899 0.0
O446 O 0.64724 0.28913 0.5733 0.0
O447 O 0.63657 0.27614 0.53997 0.0
H448 H 0.0812 0.3866 0.21148 0.0
H449 H 0.10176 0.37918 0.17811 0.0
H450 H 0.07781 0.33141 0.16834 0.0
H451 H 0.05722 0.33871 0.20096 0.0
H452 H 0.11448 0.33095 0.17416 0.0
H453 H 0.06873 0.35955 0.12743 0.0
H454 H 0.05148 0.38441 0.11859 0.0
H455 H 0.09567 0.41289 0.10221 0.0
H456 H 0.11318 0.38821 0.11129 0.0
H457 H 0.1172 0.28754 0.06021 0.0
H458 H 0.11274 0.30327 0.09958 0.0
H459 H 0.13941 0.34518 0.06747 0.0
H460 H 0.14376 0.32952 0.02749 0.0
H461 H 0.11044 0.35509 0.08633 0.0
H462 H 0.15538 0.32492 0.11987 0.0
H463 H 0.17373 0.3009 0.12859 0.0
H464 H 0.1344 0.27697 0.171 0.0
H465 H 0.11569 0.30072 0.1622 0.0
C466 C 0.08033 0.37454 0.20214 0.0
C467 C 0.06752 0.36327 0.20874 0.0
C468 C 0.09208 0.37033 0.18319 0.0
C469 C 0.09131 0.35472 0.171 0.0
C470 C 0.07865 0.34347 0.17771 0.0
C471 C 0.0668 0.34774 0.1962 0.0
C472 C 0.10321 0.34991 0.15053 0.0
C473 C 0.11375 0.33624 0.15494 0.0
C474 C 0.10281 0.3574 0.12591 0.0
C475 C 0.09225 0.37214 0.12036 0.0
C476 C 0.07476 0.37116 0.12217 0.0
C477 C 0.06494 0.3852 0.11707 0.0
C478 C 0.07248 0.40024 0.10993 0.0
C479 C 0.08985 0.40125 0.1078 0.0
C480 C 0.09972 0.38724 0.11291 0.0
C481 C 0.1224 0.29999 0.06155 0.0
C482 C 0.13071 0.30729 0.04052 0.0
C483 C 0.11994 0.30896 0.08424 0.0
C484 C 0.12587 0.32538 0.08661 0.0
C485 C 0.13477 0.33251 0.06609 0.0
C486 C 0.13726 0.32351 0.04327 0.0
C487 C 0.12104 0.33539 0.1095 0.0
C488 C 0.1118 0.35008 0.10564 0.0
C489 C 0.12291 0.329 0.13477 0.0
C490 C 0.1341 0.31464 0.14032 0.0
C491 C 0.15059 0.3145 0.13094 0.0
C492 C 0.16107 0.30093 0.13591 0.0
C493 C 0.15524 0.28742 0.15034 0.0
C494 C 0.13891 0.28746 0.15985 0.0
C495 C 0.12837 0.301 0.15492 0.0
H496 H 0.16337 0.27692 0.15417 0.0
H497 H 0.06485 0.4111 0.10599 0.0
H498 H 0.92173 0.8883 0.28434 0.0
H499 H 0.90125 0.88112 0.31789 0.0
H500 H 0.92357 0.83238 0.32535 0.0
H501 H 0.94407 0.83942 0.29246 0.0
H502 H 0.88697 0.83323 0.32026 0.0
H503 H 0.93395 0.85977 0.36714 0.0
H504 H 0.952 0.88401 0.3763 0.0
H505 H 0.90881 0.91362 0.39415 0.0
H506 H 0.8905 0.88956 0.38477 0.0
H507 H 0.88679 0.7881 0.43205 0.0
H508 H 0.88991 0.80447 0.39302 0.0
H509 H 0.86411 0.8457 0.42877 0.0
H510 H 0.86111 0.82937 0.46841 0.0
H511 H 0.8927 0.85584 0.40885 0.0
H512 H 0.84679 0.82686 0.37593 0.0
H513 H 0.82793 0.80329 0.3668 0.0
H514 H 0.86615 0.77967 0.32166 0.0
H515 H 0.88536 0.80294 0.33083 0.0
C516 C 0.92228 0.87608 0.29323 0.0
C517 C 0.93457 0.86444 0.28586 0.0
C518 C 0.91056 0.87201 0.31227 0.0
C519 C 0.91088 0.85619 0.32381 0.0
C520 C 0.92308 0.84461 0.31644 0.0
C521 C 0.93489 0.84872 0.29782 0.0
C522 C 0.89899 0.85151 0.3443 0.0
C523 C 0.88804 0.83819 0.33965 0.0
C524 C 0.89985 0.85862 0.36915 0.0
C525 C 0.91087 0.87297 0.37494 0.0
C526 C 0.92831 0.87149 0.37281 0.0
C527 C 0.93858 0.88518 0.37808 0.0
C528 C 0.93155 0.90036 0.38571 0.0
C529 C 0.91424 0.90186 0.38818 0.0
C530 C 0.90391 0.88821 0.38289 0.0
C531 C 0.8815 0.80053 0.43158 0.0
C532 C 0.87386 0.80746 0.45349 0.0
C533 C 0.88315 0.80986 0.40909 0.0
C534 C 0.87709 0.82628 0.40785 0.0
C535 C 0.8688 0.83303 0.42928 0.0
C536 C 0.86709 0.82365 0.45189 0.0
C537 C 0.8814 0.83673 0.38525 0.0
C538 C 0.89095 0.85119 0.38939 0.0
C539 C 0.87902 0.83081 0.35982 0.0
C540 C 0.86755 0.8167 0.35412 0.0
C541 C 0.85123 0.8166 0.36418 0.0
C542 C 0.84046 0.80329 0.35898 0.0
C543 C 0.84584 0.78999 0.34366 0.0
C544 C 0.86199 0.78999 0.33349 0.0
C545 C 0.87282 0.80327 0.33864 0.0
H546 H 0.83748 0.7797 0.33966 0.0
H547 H 0.93952 0.91095 0.38978 0.0
H548 H 0.45019 0.63859 0.67625 0.0
H549 H 0.43156 0.64796 0.64194 0.0
H550 H 0.38902 0.64032 0.69163 0.0
H551 H 0.40761 0.63017 0.72571 0.0
H552 H 0.38032 0.63412 0.64319 0.0
H553 H 0.40696 0.67877 0.68738 0.0
H554 H 0.43055 0.69436 0.7062 0.0
H555 H 0.45255 0.69963 0.63116 0.0
H556 H 0.42921 0.68385 0.61194 0.0
H557 H 0.36431 0.71555 0.55791 0.0
H558 H 0.3693 0.70174 0.59916 0.0
H559 H 0.37267 0.65425 0.56012 0.0
H560 H 0.36671 0.66792 0.51917 0.0
H561 H 0.39695 0.68963 0.60956 0.0
H562 H 0.37059 0.62175 0.59956 0.0
H563 H 0.34471 0.60797 0.58504 0.0
H564 H 0.31703 0.65293 0.59921 0.0
H565 H 0.34271 0.66699 0.61386 0.0
C566 C 0.43685 0.63861 0.67969 0.0
C567 C 0.43036 0.6339 0.70374 0.0
C568 C 0.42621 0.644 0.66011 0.0
C569 C 0.40894 0.6453 0.66449 0.0
C570 C 0.40231 0.63953 0.68789 0.0
C571 C 0.41295 0.63377 0.70734 0.0
C572 C 0.39821 0.65414 0.64559 0.0
C573 C 0.38387 0.64628 0.6358 0.0
C574 C 0.40241 0.67033 0.63684 0.0
C575 C 0.41638 0.68004 0.64825 0.0
C576 C 0.41687 0.68319 0.67492 0.0
C577 C 0.43019 0.69206 0.68565 0.0
C578 C 0.44305 0.69796 0.66989 0.0
C579 C 0.44258 0.69504 0.64335 0.0
C580 C 0.4293 0.68615 0.63251 0.0
C581 C 0.36554 0.70209 0.55833 0.0
C582 C 0.36535 0.69282 0.53537 0.0
C583 C 0.36842 0.69419 0.58188 0.0
C584 C 0.37156 0.67695 0.58284 0.0
C585 C 0.37005 0.66751 0.56011 0.0
C586 C 0.36674 0.67536 0.53661 0.0
C587 C 0.37921 0.66946 0.60626 0.0
C588 C 0.3931 0.67759 0.61701 0.0
C589 C 0.37415 0.65385 0.61645 0.0
C590 C 0.35863 0.64545 0.60766 0.0
C591 C 0.35898 0.62869 0.59966 0.0
C592 C 0.34434 0.62084 0.59133 0.0
C593 C 0.32925 0.62959 0.59109 0.0
C594 C 0.32875 0.6462 0.59924 0.0
C595 C 0.34336 0.65413 0.60747 0.0
H596 H 0.31793 0.6235 0.58465 0.0
H597 H 0.45336 0.70482 0.67824 0.0
H598 H 0.58888 0.11182 0.76846 0.0
H599 H 0.60783 0.11722 0.80448 0.0
H600 H 0.56608 0.13263 0.85134 0.0
H601 H 0.54709 0.12732 0.81557 0.0
H602 H 0.61215 0.14811 0.82388 0.0
H603 H 0.57383 0.12562 0.91355 0.0
H604 H 0.55684 0.10129 0.92606 0.0
H605 H 0.58223 0.07111 0.87 0.0
H606 H 0.59956 0.09518 0.8574 0.0
H607 H 0.60989 0.20192 0.92862 0.0
H608 H 0.60688 0.18312 0.8921 0.0
H609 H 0.63332 0.14467 0.93357 0.0
H610 H 0.63629 0.16341 0.97053 0.0
H611 H 0.60431 0.13335 0.91592 0.0
H612 H 0.65039 0.1611 0.87937 0.0
H613 H 0.66834 0.18459 0.86621 0.0
H614 H 0.62995 0.20233 0.81534 0.0
H615 H 0.61163 0.17915 0.82854 0.0
C616 C 0.58367 0.11594 0.78664 0.0
C617 C 0.56648 0.11934 0.78907 0.0
C618 C 0.59454 0.11905 0.80717 0.0
C619 C 0.58836 0.12529 0.83056 0.0
C620 C 0.5711 0.12761 0.83355 0.0
C621 C 0.56026 0.12468 0.81301 0.0
C622 C 0.59986 0.13165 0.85063 0.0
C623 C 0.61067 0.14474 0.844 0.0
C624 C 0.59826 0.12687 0.87673 0.0
C625 C 0.58798 0.11227 0.88447 0.0
C626 C 0.57589 0.11378 0.90401 0.0
C627 C 0.56617 0.10003 0.91108 0.0
C628 C 0.56844 0.08467 0.89881 0.0
C629 C 0.58045 0.08303 0.87945 0.0
C630 C 0.59021 0.09673 0.87231 0.0
C631 C 0.61535 0.18958 0.9299 0.0
C632 C 0.62317 0.18413 0.95265 0.0
C633 C 0.61373 0.17887 0.90886 0.0
C634 C 0.61996 0.16251 0.91005 0.0
C635 C 0.62846 0.15726 0.93225 0.0
C636 C 0.63016 0.16801 0.95333 0.0
C637 C 0.61572 0.15055 0.88928 0.0
C638 C 0.60623 0.13642 0.89578 0.0
C639 C 0.61867 0.15429 0.86301 0.0
C640 C 0.6296 0.16836 0.85504 0.0
C641 C 0.64571 0.17008 0.86553 0.0
C642 C 0.65596 0.18334 0.85804 0.0
C643 C 0.65029 0.19495 0.83997 0.0
C644 C 0.63434 0.19332 0.82934 0.0
C645 C 0.62402 0.1801 0.8368 0.0
H646 H 0.65825 0.2052 0.83419 0.0
H647 H 0.56089 0.07405 0.90431 0.0
H648 H 0.08333 0.61353 0.27756 0.0
H649 H 0.10267 0.6202 0.31286 0.0
H650 H 0.07785 0.66743 0.32389 0.0
H651 H 0.05859 0.66096 0.28909 0.0
H652 H 0.11326 0.66958 0.32113 0.0
H653 H 0.06923 0.63554 0.36259 0.0
H654 H 0.05379 0.60913 0.36806 0.0
H655 H 0.09973 0.58334 0.38348 0.0
H656 H 0.11545 0.60959 0.3778 0.0
H657 H 0.11108 0.70816 0.43784 0.0
H658 H 0.10751 0.6929 0.39797 0.0
H659 H 0.13852 0.65308 0.42696 0.0
H660 H 0.14201 0.66831 0.46771 0.0
H661 H 0.11014 0.64107 0.40588 0.0
H662 H 0.15291 0.67644 0.37723 0.0
H663 H 0.16902 0.70244 0.37213 0.0
H664 H 0.128 0.72482 0.33156 0.0
H665 H 0.11153 0.69907 0.33675 0.0
C666 C 0.08198 0.62531 0.28757 0.0
C667 C 0.06937 0.6367 0.2805 0.0
C668 C 0.09304 0.62909 0.30768 0.0
C669 C 0.09171 0.64434 0.32081 0.0
C670 C 0.07914 0.65564 0.31383 0.0
C671 C 0.06805 0.65185 0.29402 0.0
C672 C 0.10307 0.64882 0.34219 0.0
C673 C 0.11272 0.66333 0.33966 0.0
C674 C 0.10302 0.64012 0.36589 0.0
C675 C 0.09352 0.62444 0.36945 0.0
C676 C 0.07604 0.6242 0.36695 0.0
C677 C 0.06724 0.60927 0.37013 0.0
C678 C 0.07578 0.59455 0.37603 0.0
C679 C 0.09313 0.59474 0.37885 0.0
C680 C 0.10199 0.60963 0.37567 0.0
C681 C 0.11733 0.69625 0.43584 0.0
C682 C 0.12679 0.68946 0.45612 0.0
C683 C 0.11537 0.68756 0.41283 0.0
C684 C 0.12296 0.67195 0.40929 0.0
C685 C 0.13265 0.66516 0.42925 0.0
C686 C 0.13464 0.6739 0.45248 0.0
C687 C 0.11943 0.66253 0.3853 0.0
C688 C 0.1113 0.64706 0.38721 0.0
C689 C 0.12108 0.67022 0.36087 0.0
C690 C 0.13097 0.68577 0.35739 0.0
C691 C 0.14728 0.68692 0.36731 0.0
C692 C 0.15648 0.70163 0.3644 0.0
C693 C 0.14954 0.71527 0.35152 0.0
C694 C 0.13338 0.71423 0.34149 0.0
C695 C 0.12411 0.69956 0.34435 0.0
H696 H 0.15668 0.72665 0.3493 0.0
H697 H 0.06894 0.58301 0.37848 0.0
H698 H 0.58649 0.8126 0.53707 0.0
H699 H 0.57998 0.83161 0.57218 0.0
H700 H 0.63052 0.85019 0.57126 0.0
H701 H 0.63723 0.83116 0.5355 0.0
H702 H 0.61688 0.84113 0.62189 0.0
H703 H 0.60471 0.87599 0.55098 0.0
H704 H 0.59362 0.88339 0.50817 0.0
H705 H 0.54377 0.87311 0.5342 0.0
H706 H 0.55457 0.86536 0.57706 0.0
H707 H 0.58025 0.89108 0.72127 0.0
H708 H 0.59587 0.8861 0.68147 0.0
H709 H 0.55324 0.86074 0.64909 0.0
H710 H 0.53753 0.86565 0.6886 0.0
H711 H 0.56951 0.88072 0.61341 0.0
H712 H 0.58315 0.83898 0.67905 0.0
H713 H 0.59391 0.83029 0.72154 0.0
H714 H 0.64111 0.8533 0.70473 0.0
H715 H 0.63052 0.86232 0.66225 0.0
C716 C 0.5963 0.82065 0.54429 0.0
C717 C 0.6124 0.82033 0.53351 0.0
C718 C 0.5925 0.8316 0.56425 0.0
C719 C 0.60472 0.8424 0.57403 0.0
C720 C 0.62092 0.842 0.56376 0.0
C721 C 0.6247 0.83114 0.54339 0.0
C722 C 0.60025 0.85359 0.59556 0.0
C723 C 0.6069 0.85021 0.61999 0.0
C724 C 0.58714 0.86529 0.59297 0.0
C725 C 0.58048 0.87003 0.56725 0.0
C726 C 0.59139 0.87519 0.54754 0.0
C727 C 0.58515 0.87946 0.52326 0.0
C728 C 0.568 0.87871 0.51846 0.0
C729 C 0.55705 0.8737 0.53795 0.0
C730 C 0.56323 0.86939 0.56227 0.0
C731 C 0.57409 0.88467 0.70553 0.0
C732 C 0.55768 0.87857 0.70824 0.0
C733 C 0.58306 0.88184 0.68283 0.0
C734 C 0.57575 0.87293 0.66248 0.0
C735 C 0.5591 0.86766 0.6646 0.0
C736 C 0.55017 0.87039 0.68728 0.0
C737 C 0.58564 0.8677 0.6398 0.0
C738 C 0.57994 0.87216 0.6152 0.0
C739 C 0.59962 0.85699 0.64223 0.0
C740 C 0.60598 0.85151 0.66767 0.0
C741 C 0.59578 0.8423 0.68452 0.0
C742 C 0.60185 0.83729 0.70857 0.0
C743 C 0.61817 0.84129 0.71587 0.0
C744 C 0.62846 0.85025 0.69908 0.0
C745 C 0.62243 0.85531 0.67502 0.0
H746 H 0.62285 0.83741 0.73449 0.0
H747 H 0.56319 0.88202 0.49965 0.0
H748 H 0.3987 0.29768 0.94808 0.0
H749 H 0.40548 0.31575 0.91197 0.0
H750 H 0.36668 0.35001 0.93466 0.0
H751 H 0.35977 0.33199 0.97149 0.0
H752 H 0.37269 0.33908 0.87467 0.0
H753 H 0.39689 0.36575 0.94957 0.0
H754 H 0.4114 0.36471 0.99151 0.0
H755 H 0.45386 0.34168 0.95559 0.0
H756 H 0.43951 0.34234 0.91354 0.0
H757 H 0.41758 0.38595 0.77867 0.0
H758 H 0.40131 0.38124 0.81798 0.0
H759 H 0.4388 0.34678 0.84504 0.0
H760 H 0.45517 0.35151 0.80628 0.0
H761 H 0.42811 0.36626 0.88347 0.0
H762 H 0.4034 0.33348 0.81396 0.0
H763 H 0.3896 0.32994 0.77179 0.0
H764 H 0.34911 0.36119 0.79665 0.0
H765 H 0.3628 0.36507 0.83888 0.0
C766 C 0.39139 0.30891 0.94537 0.0
C767 C 0.37879 0.31345 0.96291 0.0
C768 C 0.3953 0.31922 0.92466 0.0
C769 C 0.38665 0.3342 0.92089 0.0
C770 C 0.37347 0.33846 0.93741 0.0
C771 C 0.36961 0.32818 0.95842 0.0
C772 C 0.39257 0.34566 0.90065 0.0
C773 C 0.38451 0.34557 0.87669 0.0
C774 C 0.40813 0.35377 0.90337 0.0
C775 C 0.41708 0.35402 0.92843 0.0
C776 C 0.40929 0.36041 0.95064 0.0
C777 C 0.41749 0.35989 0.97443 0.0
C778 C 0.43351 0.35307 0.9762 0.0
C779 C 0.44144 0.34693 0.95417 0.0
C780 C 0.4333 0.34741 0.93035 0.0
C781 C 0.42244 0.3775 0.79311 0.0
C782 C 0.43764 0.369 0.78918 0.0
C783 C 0.4131 0.37481 0.81553 0.0
C784 C 0.41879 0.36357 0.83432 0.0
C785 C 0.4342 0.35555 0.83082 0.0
C786 C 0.44351 0.35821 0.80852 0.0
C787 C 0.40853 0.35924 0.85711 0.0
C788 C 0.41588 0.36055 0.88157 0.0
C789 C 0.39242 0.35208 0.85473 0.0
C790 C 0.38422 0.34976 0.82939 0.0
C791 C 0.39162 0.33971 0.81033 0.0
C792 C 0.38382 0.33762 0.78645 0.0
C793 C 0.36852 0.34539 0.7815 0.0
C794 C 0.36098 0.35522 0.80048 0.0
C795 C 0.36876 0.35737 0.82438 0.0
H796 H 0.36249 0.34375 0.76301 0.0
H797 H 0.43979 0.35249 0.99463 0.0
H798 H 0.91035 0.19054 0.0363 0.0
H799 H 0.91698 0.17154 0.07138 0.0
H800 H 0.86692 0.15175 0.06909 0.0
H801 H 0.86012 0.17074 0.03332 0.0
H802 H 0.88001 0.16096 0.12024 0.0
H803 H 0.89318 0.12656 0.0493 0.0
H804 H 0.90459 0.11938 0.0066 0.0
H805 H 0.95413 0.13052 0.03317 0.0
H806 H 0.943 0.13805 0.07593 0.0
H807 H 0.91823 0.11217 0.22018 0.0
H808 H 0.902 0.11702 0.18087 0.0
H809 H 0.94418 0.14225 0.14684 0.0
H810 H 0.96047 0.13738 0.1857 0.0
H811 H 0.92822 0.12239 0.11203 0.0
H812 H 0.91319 0.16361 0.17817 0.0
H813 H 0.90162 0.17218 0.22023 0.0
H814 H 0.85514 0.14825 0.20185 0.0
H815 H 0.86652 0.13936 0.1598 0.0
C816 C 0.90067 0.18223 0.04323 0.0
C817 C 0.88468 0.18219 0.03205 0.0
C818 C 0.90453 0.17129 0.06316 0.0
C819 C 0.89249 0.16015 0.07255 0.0
C820 C 0.87639 0.16021 0.0619 0.0
C821 C 0.87255 0.17105 0.04154 0.0
C822 C 0.89704 0.14895 0.09404 0.0
C823 C 0.8902 0.1521 0.11841 0.0
C824 C 0.91037 0.13751 0.09151 0.0
C825 C 0.91722 0.13294 0.06584 0.0
C826 C 0.90649 0.12761 0.04601 0.0
C827 C 0.91292 0.12345 0.02178 0.0
C828 C 0.93007 0.1245 0.01717 0.0
C829 C 0.94085 0.1297 0.03678 0.0
C830 C 0.93449 0.13389 0.06104 0.0
C831 C 0.92413 0.11854 0.20419 0.0
C832 C 0.94062 0.12456 0.20622 0.0
C833 C 0.91482 0.12133 0.18177 0.0
C834 C 0.92184 0.13013 0.16107 0.0
C835 C 0.93852 0.13541 0.1626 0.0
C836 C 0.9478 0.1327 0.18493 0.0
C837 C 0.91176 0.13505 0.13838 0.0
C838 C 0.91761 0.13073 0.11378 0.0
C839 C 0.8975 0.14541 0.1407 0.0
C840 C 0.89077 0.15063 0.16605 0.0
C841 C 0.90056 0.16005 0.18322 0.0
C842 C 0.89403 0.16498 0.20703 0.0
C843 C 0.87767 0.16071 0.21373 0.0
C844 C 0.86781 0.1515 0.19665 0.0
C845 C 0.8743 0.14651 0.17285 0.0
H846 H 0.8726 0.16458 0.23209 0.0
H847 H 0.93502 0.12128 0.9984 0.0
H848 H 0.92749 0.61148 0.79213 0.0
H849 H 0.90961 0.61708 0.82953 0.0
H850 H 0.93469 0.66418 0.84109 0.0
H851 H 0.9528 0.65849 0.80462 0.0
H852 H 0.93065 0.64975 0.8851 0.0
H853 H 0.89537 0.65977 0.80991 0.0
H854 H 0.88084 0.65145 0.76999 0.0
H855 H 0.85415 0.61353 0.81151 0.0
H856 H 0.86869 0.62152 0.85162 0.0
H857 H 0.88098 0.70907 0.9382 0.0
H858 H 0.88946 0.69175 0.90194 0.0
H859 H 0.87026 0.64809 0.94031 0.0
H860 H 0.86174 0.66536 0.97709 0.0
H861 H 0.86903 0.65352 0.87608 0.0
H862 H 0.90372 0.64741 0.95353 0.0
H863 H 0.91702 0.65984 0.9919 0.0
H864 H 0.94477 0.69335 0.94356 0.0
H865 H 0.93129 0.6814 0.90496 0.0
C866 C 0.92923 0.62298 0.80278 0.0
C867 C 0.94159 0.63453 0.79541 0.0
C868 C 0.91896 0.62618 0.82407 0.0
C869 C 0.92072 0.64111 0.838 0.0
C870 C 0.93316 0.65252 0.83076 0.0
C871 C 0.94352 0.64925 0.80983 0.0
C872 C 0.90964 0.6453 0.85998 0.0
C873 C 0.91717 0.65037 0.88313 0.0
C874 C 0.89199 0.64584 0.85772 0.0
C875 C 0.88326 0.6411 0.83365 0.0
C876 C 0.88649 0.64958 0.81046 0.0
C877 C 0.87824 0.64494 0.78782 0.0
C878 C 0.86662 0.63193 0.78819 0.0
C879 C 0.86318 0.62357 0.81123 0.0
C880 C 0.87142 0.62816 0.83392 0.0
C881 C 0.87809 0.69586 0.93872 0.0
C882 C 0.87104 0.68853 0.96078 0.0
C883 C 0.88284 0.68602 0.91788 0.0
C884 C 0.88061 0.66869 0.9187 0.0
C885 C 0.872 0.66148 0.93942 0.0
C886 C 0.86721 0.67137 0.96041 0.0
C887 C 0.89019 0.65832 0.9005 0.0
C888 C 0.88244 0.65221 0.87822 0.0
C889 C 0.90769 0.65696 0.90332 0.0
C890 C 0.9164 0.66359 0.9264 0.0
C891 C 0.91258 0.65749 0.95111 0.0
C892 C 0.92014 0.66446 0.97289 0.0
C893 C 0.9317 0.6774 0.97017 0.0
C894 C 0.9358 0.68334 0.94564 0.0
C895 C 0.9282 0.67647 0.92381 0.0
H896 H 0.93751 0.68282 0.98705 0.0
H897 H 0.86024 0.62835 0.77064 0.0
H898 H 0.14115 0.16558 0.52447 0.0
H899 H 0.13641 0.14713 0.56135 0.0
H900 H 0.1123 0.18741 0.60208 0.0
H901 H 0.11715 0.20591 0.56571 0.0
H902 H 0.12912 0.16755 0.63511 0.0
H903 H 0.08994 0.16134 0.56301 0.0
H904 H 0.0832 0.15488 0.51767 0.0
H905 H 0.10466 0.10608 0.52625 0.0
H906 H 0.11172 0.11237 0.57158 0.0
H907 H 0.04733 0.13382 0.67859 0.0
H908 H 0.06643 0.13965 0.64322 0.0
H909 H 0.1073 0.11919 0.68722 0.0
H910 H 0.08822 0.11339 0.723 0.0
H911 H 0.08848 0.12318 0.61225 0.0
H912 H 0.14028 0.14675 0.67823 0.0
H913 H 0.14456 0.15586 0.72324 0.0
H914 H 0.09393 0.17339 0.72667 0.0
H915 H 0.08945 0.16459 0.68162 0.0
C916 C 0.13523 0.17064 0.54154 0.0
C917 C 0.1292 0.18715 0.54192 0.0
C918 C 0.13252 0.16005 0.56259 0.0
C919 C 0.12374 0.16582 0.58426 0.0
C920 C 0.11906 0.18267 0.58553 0.0
C921 C 0.12174 0.19322 0.56459 0.0
C922 C 0.11729 0.15417 0.60408 0.0
C923 C 0.12055 0.15757 0.63013 0.0
C924 C 0.10598 0.14124 0.5976 0.0
C925 C 0.10153 0.13739 0.57052 0.0
C926 C 0.09329 0.14927 0.55516 0.0
C927 C 0.08941 0.14564 0.52948 0.0
C928 C 0.09355 0.1301 0.51906 0.0
C929 C 0.10151 0.11813 0.53433 0.0
C930 C 0.10545 0.12172 0.56 0.0
C931 C 0.06031 0.13025 0.68064 0.0
C932 C 0.06628 0.12342 0.70383 0.0
C933 C 0.07121 0.13348 0.66029 0.0
C934 C 0.08831 0.13006 0.66273 0.0
C935 C 0.09415 0.12207 0.68506 0.0
C936 C 0.08321 0.11874 0.70546 0.0
C937 C 0.09999 0.13687 0.64325 0.0
C938 C 0.09765 0.1326 0.61727 0.0
C939 C 0.11189 0.14925 0.64978 0.0
C940 C 0.11449 0.15481 0.67673 0.0
C941 C 0.13009 0.15258 0.68861 0.0
C942 C 0.13255 0.15769 0.71411 0.0
C943 C 0.1195 0.16514 0.72784 0.0
C944 C 0.104 0.16757 0.71606 0.0
C945 C 0.10149 0.16251 0.69055 0.0
H946 H 0.12143 0.16909 0.74756 0.0
H947 H 0.09054 0.12731 0.49917 0.0
H948 H 0.64402 0.32462 0.46559 0.0
H949 H 0.63693 0.34048 0.42668 0.0
H950 H 0.59618 0.30657 0.41162 0.0
H951 H 0.60355 0.29043 0.44932 0.0
H952 H 0.60911 0.31375 0.36904 0.0
H953 H 0.59176 0.34613 0.44318 0.0
H954 H 0.59583 0.36161 0.48381 0.0
H955 H 0.62967 0.3951 0.44575 0.0
H956 H 0.62591 0.37968 0.40493 0.0
H957 H 0.54322 0.35509 0.31306 0.0
H958 H 0.56113 0.34702 0.34884 0.0
H959 H 0.60192 0.37492 0.31599 0.0
H960 H 0.58404 0.38316 0.27973 0.0
H961 H 0.59537 0.37388 0.37802 0.0
H962 H 0.60564 0.34004 0.29996 0.0
H963 H 0.59357 0.32517 0.26266 0.0
H964 H 0.56567 0.29356 0.31375 0.0
H965 H 0.57737 0.3084 0.35129 0.0
C966 C 0.63373 0.32041 0.4537 0.0
C967 C 0.62432 0.30627 0.46069 0.0
C968 C 0.62962 0.32956 0.43157 0.0
C969 C 0.61585 0.32489 0.41637 0.0
C970 C 0.6069 0.31044 0.42288 0.0
C971 C 0.61113 0.30119 0.44461 0.0
C972 C 0.61003 0.33516 0.39426 0.0
C973 C 0.60633 0.32694 0.37104 0.0
C974 C 0.60639 0.35243 0.39662 0.0
C975 C 0.60874 0.36163 0.42113 0.0
C976 C 0.60017 0.35671 0.44354 0.0
C977 C 0.6024 0.36549 0.46659 0.0
C978 C 0.61305 0.37929 0.46738 0.0
C979 C 0.62146 0.38437 0.44512 0.0
C980 C 0.61929 0.37563 0.42203 0.0
C981 C 0.55589 0.35981 0.31354 0.0
C982 C 0.56227 0.36953 0.29322 0.0
C983 C 0.56607 0.35527 0.33414 0.0
C984 C 0.58281 0.36031 0.33487 0.0
C985 C 0.58897 0.37099 0.31572 0.0
C986 C 0.57876 0.37559 0.29497 0.0
C987 C 0.59416 0.35226 0.35354 0.0
C988 C 0.59884 0.36087 0.3759 0.0
C989 C 0.59815 0.33518 0.35091 0.0
C990 C 0.59234 0.32536 0.32839 0.0
C991 C 0.59696 0.32989 0.30321 0.0
C992 C 0.59015 0.3215 0.28204 0.0
C993 C 0.57879 0.3085 0.28587 0.0
C994 C 0.57444 0.30366 0.31084 0.0
C995 C 0.58119 0.31202 0.33206 0.0
H996 H 0.57331 0.30218 0.26952 0.0
H997 H 0.61475 0.38608 0.48524 0.0
H998 H 0.41099 0.88751 0.23024 0.0
H999 H 0.39207 0.88059 0.19468 0.0
H1000 H 0.43431 0.86763 0.14713 0.0
H1001 H 0.45323 0.87444 0.18237 0.0
H1002 H 0.40828 0.88228 0.11895 0.0
H1003 H 0.41748 0.83846 0.18404 0.0
H1004 H 0.41612 0.82767 0.22854 0.0
H1005 H 0.36323 0.83652 0.2302 0.0
H1006 H 0.36435 0.84759 0.1858 0.0
H1007 H 0.3931 0.79642 0.06773 0.0
H1008 H 0.39693 0.81504 0.10422 0.0
H1009 H 0.36413 0.85117 0.06905 0.0
H1010 H 0.36042 0.83266 0.03196 0.0
H1011 H 0.37786 0.83006 0.14 0.0
H1012 H 0.381 0.88982 0.08242 0.0
H1013 H 0.38371 0.89935 0.03735 0.0
H1014 H 0.41428 0.85681 0.0198 0.0
H1015 H 0.41186 0.84712 0.06484 0.0
C1016 C 0.41626 0.88361 0.21198 0.0
C1017 C 0.43359 0.88119 0.20924 0.0
C1018 C 0.40543 0.87969 0.19171 0.0
C1019 C 0.41181 0.87343 0.16844 0.0
C1020 C 0.42915 0.87245 0.16495 0.0
C1021 C 0.43994 0.87621 0.1852 0.0
C1022 C 0.4008 0.86545 0.14918 0.0
C1023 C 0.4013 0.87107 0.1236 0.0
C1024 C 0.39172 0.85082 0.15526 0.0
C1025 C 0.39103 0.84403 0.18179 0.0
C1026 C 0.40559 0.8382 0.19398 0.0
C1027 C 0.40486 0.83203 0.21916 0.0
C1028 C 0.38961 0.83146 0.23222 0.0
C1029 C 0.37504 0.83701 0.22009 0.0
C1030 C 0.37572 0.84324 0.19493 0.0
C1031 C 0.38649 0.8082 0.06779 0.0
C1032 C 0.37669 0.81314 0.04665 0.0
C1033 C 0.38861 0.81881 0.08881 0.0
C1034 C 0.38098 0.83457 0.0892 0.0
C1035 C 0.37029 0.83913 0.06896 0.0
C1036 C 0.36819 0.82852 0.04779 0.0
C1037 C 0.38579 0.84658 0.1096 0.0
C1038 C 0.38417 0.84167 0.13543 0.0
C1039 C 0.394 0.86176 0.10369 0.0
C1040 C 0.39608 0.86768 0.07685 0.0
C1041 C 0.38835 0.88255 0.06894 0.0
C1042 C 0.38982 0.88797 0.04342 0.0
C1043 C 0.39907 0.87864 0.0257 0.0
C1044 C 0.40704 0.86397 0.03353 0.0
C1045 C 0.40563 0.85852 0.05904 0.0
H1046 H 0.40006 0.88279 0.00592 0.0
H1047 H 0.38906 0.82668 0.25171 0.0
H1048 H 0.91877 0.38263 0.72257 0.0
H1049 H 0.90274 0.37695 0.68337 0.0
H1050 H 0.94583 0.35322 0.64951 0.0
H1051 H 0.96193 0.35879 0.68847 0.0
H1052 H 0.92818 0.37244 0.61434 0.0
H1053 H 0.91812 0.33013 0.67956 0.0
H1054 H 0.90932 0.32053 0.72258 0.0
H1055 H 0.86041 0.34098 0.71009 0.0
H1056 H 0.86906 0.35098 0.66709 0.0
H1057 H 0.91016 0.30293 0.54004 0.0
H1058 H 0.91684 0.32102 0.57628 0.0
H1059 H 0.86802 0.34349 0.57172 0.0
H1060 H 0.86119 0.32551 0.53473 0.0
H1061 H 0.88228 0.33136 0.62499 0.0
H1062 H 0.89223 0.36789 0.55391 0.0
H1063 H 0.9025 0.37523 0.51058 0.0
H1064 H 0.95269 0.36387 0.53384 0.0
H1065 H 0.94268 0.35618 0.5772 0.0
C1066 C 0.92492 0.37644 0.70663 0.0
C1067 C 0.94158 0.37097 0.70876 0.0
C1068 C 0.91573 0.37321 0.68428 0.0
C1069 C 0.92309 0.36456 0.6637 0.0
C1070 C 0.93995 0.35994 0.66521 0.0
C1071 C 0.9491 0.36303 0.68757 0.0
C1072 C 0.91303 0.35888 0.64148 0.0
C1073 C 0.91803 0.3636 0.61663 0.0
C1074 C 0.89956 0.3476 0.64458 0.0
C1075 C 0.8943 0.34151 0.6703 0.0
C1076 C 0.90554 0.33271 0.68609 0.0
C1077 C 0.90057 0.32717 0.71045 0.0
C1078 C 0.88432 0.33018 0.71912 0.0
C1079 C 0.873 0.3387 0.70339 0.0
C1080 C 0.87793 0.34432 0.67902 0.0
C1081 C 0.90074 0.3116 0.54676 0.0
C1082 C 0.88513 0.31278 0.53449 0.0
C1083 C 0.90462 0.32197 0.5674 0.0
C1084 C 0.89295 0.3336 0.57642 0.0
C1085 C 0.87717 0.33459 0.56484 0.0
C1086 C 0.87333 0.32435 0.54377 0.0
C1087 C 0.89773 0.34462 0.59794 0.0
C1088 C 0.8919 0.34078 0.62268 0.0
C1089 C 0.91053 0.35659 0.59476 0.0
C1090 C 0.91668 0.36137 0.56879 0.0
C1091 C 0.90544 0.36683 0.54973 0.0
C1092 C 0.91122 0.37107 0.52517 0.0
C1093 C 0.92823 0.37 0.51944 0.0
C1094 C 0.93951 0.3647 0.5383 0.0
C1095 C 0.93379 0.36042 0.56289 0.0
H1096 H 0.93268 0.37329 0.50041 0.0
H1097 H 0.88049 0.32587 0.73799 0.0
H1098 H 0.45599 0.13286 0.30967 0.0
H1099 H 0.4403 0.13618 0.34937 0.0
H1100 H 0.39932 0.10815 0.31708 0.0
H1101 H 0.41496 0.10488 0.2768 0.0
H1102 H 0.38829 0.13658 0.33785 0.0
H1103 H 0.41986 0.09195 0.36783 0.0
H1104 H 0.44427 0.07376 0.3746 0.0
H1105 H 0.46843 0.11242 0.41815 0.0
H1106 H 0.4443 0.13098 0.41128 0.0
H1107 H 0.36025 0.16562 0.46549 0.0
H1108 H 0.36628 0.14507 0.43149 0.0
H1109 H 0.41404 0.16838 0.41816 0.0
H1110 H 0.40817 0.18889 0.45144 0.0
H1111 H 0.4144 0.13191 0.42427 0.0
H1112 H 0.38352 0.17758 0.37913 0.0
H1113 H 0.35767 0.19396 0.37342 0.0
H1114 H 0.3299 0.14884 0.36085 0.0
H1115 H 0.35558 0.1322 0.36672 0.0
C1116 C 0.44376 0.12715 0.31101 0.0
C1117 C 0.43671 0.11873 0.2899 0.0
C1118 C 0.43481 0.12897 0.33387 0.0
C1119 C 0.41867 0.1223 0.3363 0.0
C1120 C 0.41177 0.11337 0.31562 0.0
C1121 C 0.42076 0.1115 0.29265 0.0
C1122 C 0.40875 0.12619 0.35968 0.0
C1123 C 0.39374 0.13509 0.35685 0.0
C1124 C 0.4156 0.12397 0.38458 0.0
C1125 C 0.43022 0.11289 0.389 0.0
C1126 C 0.43041 0.09663 0.37874 0.0
C1127 C 0.44421 0.08624 0.3826 0.0
C1128 C 0.45789 0.09193 0.39681 0.0
C1129 C 0.4578 0.10802 0.40719 0.0
C1130 C 0.44404 0.11847 0.40335 0.0
C1131 C 0.372 0.16639 0.4552 0.0
C1132 C 0.38371 0.17894 0.46114 0.0
C1133 C 0.37542 0.15462 0.43591 0.0
C1134 C 0.39066 0.15516 0.4226 0.0
C1135 C 0.40227 0.16768 0.42843 0.0
C1136 C 0.39881 0.1795 0.44734 0.0
C1137 C 0.39478 0.14317 0.40193 0.0
C1138 C 0.40866 0.13274 0.40538 0.0
C1139 C 0.38665 0.14361 0.3778 0.0
C1140 C 0.37139 0.15367 0.37358 0.0
C1141 C 0.37188 0.17117 0.37524 0.0
C1142 C 0.35727 0.18049 0.37197 0.0
C1143 C 0.34214 0.17244 0.36685 0.0
C1144 C 0.34161 0.15505 0.36485 0.0
C1145 C 0.35619 0.14568 0.36812 0.0
H1146 H 0.33083 0.17967 0.3644 0.0
H1147 H 0.46857 0.08387 0.39978 0.0
H1148 H 0.57551 0.60995 0.21596 0.0
H1149 H 0.58993 0.61681 0.17562 0.0
H1150 H 0.55643 0.65834 0.16411 0.0
H1151 H 0.54179 0.65138 0.20353 0.0
H1152 H 0.56089 0.64327 0.12079 0.0
H1153 H 0.59692 0.66247 0.19006 0.0
H1154 H 0.61443 0.65892 0.2288 0.0
H1155 H 0.64589 0.62452 0.18788 0.0
H1156 H 0.62843 0.62774 0.14897 0.0
H1157 H 0.59808 0.70712 0.05368 0.0
H1158 H 0.59059 0.69021 0.09083 0.0
H1159 H 0.62161 0.65013 0.06293 0.0
H1160 H 0.62927 0.66703 0.02524 0.0
H1161 H 0.62117 0.65771 0.1216 0.0
H1162 H 0.58538 0.6446 0.04884 0.0
H1163 H 0.5678 0.65262 0.01184 0.0
H1164 H 0.53512 0.67979 0.06234 0.0
H1165 H 0.55269 0.67218 0.09956 0.0
C1166 C 0.57112 0.62043 0.20465 0.0
C1167 C 0.55749 0.63013 0.21306 0.0
C1168 C 0.57944 0.62438 0.18169 0.0
C1169 C 0.57438 0.6382 0.16697 0.0
C1170 C 0.56054 0.64758 0.17505 0.0
C1171 C 0.55217 0.64357 0.19772 0.0
C1172 C 0.58347 0.64343 0.1434 0.0
C1173 C 0.57409 0.64631 0.12099 0.0
C1174 C 0.60079 0.64712 0.1434 0.0
C1175 C 0.61125 0.64516 0.16675 0.0
C1176 C 0.60749 0.65404 0.18941 0.0
C1177 C 0.61742 0.65211 0.21137 0.0
C1178 C 0.63123 0.64145 0.21083 0.0
C1179 C 0.63516 0.63274 0.18829 0.0
C1180 C 0.62526 0.63461 0.16628 0.0
C1181 C 0.60355 0.69481 0.05548 0.0
C1182 C 0.61406 0.68833 0.03619 0.0
C1183 C 0.59928 0.6852 0.07681 0.0
C1184 C 0.6054 0.66891 0.07936 0.0
C1185 C 0.61678 0.66271 0.06118 0.0
C1186 C 0.62108 0.67236 0.03966 0.0
C1187 C 0.59837 0.65807 0.09966 0.0
C1188 C 0.6081 0.65413 0.12127 0.0
C1189 C 0.58126 0.65375 0.09926 0.0
C1190 C 0.57039 0.65786 0.07697 0.0
C1191 C 0.57449 0.65234 0.05203 0.0
C1192 C 0.56452 0.65682 0.03102 0.0
C1193 C 0.55035 0.66672 0.03475 0.0
C1194 C 0.54609 0.67211 0.05949 0.0
C1195 C 0.55604 0.6677 0.08055 0.0
H1196 H 0.54266 0.67024 0.0185 0.0
H1197 H 0.6389 0.63997 0.22785 0.0
H1198 H 0.08081 0.89282 0.77725 0.0
H1199 H 0.0962 0.88864 0.8176 0.0
H1200 H 0.05942 0.85258 0.84197 0.0
H1201 H 0.04393 0.85682 0.80235 0.0
H1202 H 0.06836 0.87242 0.88114 0.0
H1203 H 0.09677 0.8413 0.81171 0.0
H1204 H 0.11222 0.83997 0.77059 0.0
H1205 H 0.14983 0.87261 0.80128 0.0
H1206 H 0.13447 0.87428 0.84249 0.0
H1207 H 0.09529 0.80359 0.94686 0.0
H1208 H 0.08846 0.82281 0.91222 0.0
H1209 H 0.13023 0.85397 0.93293 0.0
H1210 H 0.13725 0.83472 0.96821 0.0
H1211 H 0.12431 0.846 0.87544 0.0
H1212 H 0.09854 0.87145 0.94845 0.0
H1213 H 0.08291 0.87209 0.98932 0.0
H1214 H 0.04048 0.84989 0.95201 0.0
H1215 H 0.05591 0.8491 0.91086 0.0
C1216 C 0.07591 0.88414 0.79135 0.0
C1217 C 0.06119 0.87503 0.78642 0.0
C1218 C 0.08475 0.88175 0.81435 0.0
C1219 C 0.07903 0.87019 0.83266 0.0
C1220 C 0.06405 0.86161 0.82815 0.0
C1221 C 0.05523 0.864 0.80535 0.0
C1222 C 0.0888 0.86602 0.85602 0.0
C1223 C 0.08068 0.86683 0.87993 0.0
C1224 C 0.10513 0.85925 0.85464 0.0
C1225 C 0.1144 0.85807 0.83001 0.0
C1226 C 0.10828 0.84826 0.80961 0.0
C1227 C 0.11703 0.84744 0.78631 0.0
C1228 C 0.13197 0.85624 0.7833 0.0
C1229 C 0.13823 0.86583 0.80362 0.0
C1230 C 0.12952 0.86672 0.82694 0.0
C1231 C 0.10317 0.81442 0.94409 0.0
C1232 C 0.11677 0.81764 0.9605 0.0
C1233 C 0.0992 0.82542 0.92427 0.0
C1234 C 0.10876 0.83982 0.92026 0.0
C1235 C 0.12271 0.84289 0.93587 0.0
C1236 C 0.12664 0.83191 0.95601 0.0
C1237 C 0.10343 0.85167 0.90008 0.0
C1238 C 0.11233 0.85226 0.87683 0.0
C1239 C 0.0878 0.85974 0.90199 0.0
C1240 C 0.0784 0.8602 0.92661 0.0
C1241 C 0.08591 0.86662 0.949 0.0
C1242 C 0.07707 0.86703 0.97221 0.0
C1243 C 0.06071 0.861 0.9733 0.0
C1244 C 0.05314 0.85458 0.95114 0.0
C1245 C 0.06191 0.85421 0.92784 0.0
H1246 H 0.05387 0.86132 0.99128 0.0
H1247 H 0.13871 0.85559 0.76525 0.0
H1248 H 0.0465 0.31875 0.30056 0.0
H1249 H 0.06106 0.29911 0.328 0.0
H1250 H 0.08082 0.33983 0.37314 0.0
H1251 H 0.06669 0.35984 0.34459 0.0
H1252 H 0.1044 0.3188 0.36508 0.0
H1253 H 0.04914 0.31127 0.39856 0.0
H1254 H 0.01865 0.30656 0.39812 0.0
H1255 H 0.02569 0.26058 0.35716 0.0
H1256 H 0.05621 0.26484 0.35772 0.0
H1257 H 0.12329 0.25464 0.46424 0.0
H1258 H 0.10921 0.27802 0.44281 0.0
H1259 H 0.11266 0.25225 0.37008 0.0
H1260 H 0.12723 0.22902 0.39121 0.0
H1261 H 0.07729 0.26717 0.39734 0.0
H1262 H 0.1334 0.27767 0.36142 0.0
H1263 H 0.16368 0.28223 0.36664 0.0
H1264 H 0.15404 0.32368 0.41697 0.0
H1265 H 0.12368 0.31918 0.41231 0.0
C1266 C 0.05378 0.3236 0.31649 0.0
C1267 C 0.05536 0.34089 0.32048 0.0
C1268 C 0.06202 0.31229 0.33237 0.0
C1269 C 0.07174 0.31788 0.35314 0.0
C1270 C 0.0733 0.33517 0.35735 0.0
C1271 C 0.06524 0.3466 0.34106 0.0
C1272 C 0.08104 0.30557 0.36912 0.0
C1273 C 0.09834 0.30768 0.37249 0.0
C1274 C 0.0733 0.29092 0.37876 0.0
C1275 C 0.05494 0.28845 0.378 0.0
C1276 C 0.04417 0.30022 0.3893 0.0
C1277 C 0.0269 0.29761 0.38909 0.0
C1278 C 0.02025 0.28338 0.37741 0.0
C1279 C 0.03086 0.27162 0.36614 0.0
C1280 C 0.04814 0.27407 0.36653 0.0
C1281 C 0.12122 0.25405 0.44363 0.0
C1282 C 0.12637 0.24006 0.42934 0.0
C1283 C 0.11322 0.2674 0.43146 0.0
C1284 C 0.11004 0.26683 0.40493 0.0
C1285 C 0.11519 0.25291 0.39057 0.0
C1286 C 0.1235 0.2397 0.40263 0.0
C1287 C 0.10046 0.28034 0.39248 0.0
C1288 C 0.08316 0.27842 0.39002 0.0
C1289 C 0.10812 0.29522 0.38407 0.0
C1290 C 0.12632 0.29794 0.38682 0.0
C1291 C 0.13775 0.28762 0.37384 0.0
C1292 C 0.15492 0.29023 0.37663 0.0
C1293 C 0.16079 0.30319 0.39221 0.0
C1294 C 0.14948 0.31361 0.40496 0.0
C1295 C 0.1323 0.31105 0.40224 0.0
H1296 H 0.17408 0.3052 0.39433 0.0
H1297 H 0.00687 0.28143 0.37722 0.0
H1298 H 0.93185 0.79634 0.5552 0.0
H1299 H 0.95171 0.81352 0.57868 0.0
H1300 H 0.9125 0.84823 0.59799 0.0
H1301 H 0.89235 0.83113 0.57407 0.0
H1302 H 0.94157 0.86425 0.58372 0.0
H1303 H 0.92521 0.82117 0.64235 0.0
H1304 H 0.91982 0.79225 0.65628 0.0
H1305 H 0.97142 0.77991 0.64421 0.0
H1306 H 0.97707 0.8087 0.62983 0.0
H1307 H 0.9978 0.8759 0.70647 0.0
H1308 H 0.97432 0.86385 0.68316 0.0
H1309 H 0.99797 0.87619 0.61087 0.0
H1310 H 0.02148 0.88873 0.63431 0.0
H1311 H 0.97453 0.83783 0.65367 0.0
H1312 H 0.96764 0.88055 0.5642 0.0
H1313 H 0.97155 0.91011 0.55235 0.0
H1314 H 0.96359 0.92469 0.63105 0.0
H1315 H 0.95941 0.89525 0.6433 0.0
C1316 C 0.92734 0.80762 0.56438 0.0
C1317 C 0.91041 0.81226 0.56286 0.0
C1318 C 0.93876 0.81742 0.57784 0.0
C1319 C 0.93354 0.83204 0.59031 0.0
C1320 C 0.91676 0.83696 0.5885 0.0
C1321 C 0.90526 0.82713 0.57494 0.0
C1322 C 0.94567 0.84183 0.60571 0.0
C1323 C 0.94876 0.85853 0.59909 0.0
C1324 C 0.95486 0.8344 0.62598 0.0
C1325 C 0.95153 0.81708 0.63481 0.0
C1326 C 0.93539 0.81226 0.64249 0.0
C1327 C 0.93229 0.79589 0.65049 0.0
C1328 C 0.94526 0.78423 0.65108 0.0
C1329 C 0.96137 0.78894 0.64373 0.0
C1330 C 0.96454 0.80529 0.63567 0.0
C1331 C 0.99794 0.87623 0.6856 0.0
C1332 C 0.01149 0.8832 0.67219 0.0
C1333 C 0.98451 0.86931 0.6723 0.0
C1334 C 0.98434 0.8691 0.64527 0.0
C1335 C 0.9977 0.8764 0.63174 0.0
C1336 C 0.01115 0.88351 0.64512 0.0
C1337 C 0.97066 0.86028 0.63156 0.0
C1338 C 0.96732 0.84365 0.63842 0.0
C1339 C 0.96107 0.86791 0.61189 0.0
C1340 C 0.96338 0.88567 0.60469 0.0
C1341 C 0.96667 0.89007 0.57896 0.0
C1342 C 0.96894 0.90681 0.57217 0.0
C1343 C 0.96787 0.91927 0.59095 0.0
C1344 C 0.96448 0.91502 0.61654 0.0
C1345 C 0.96218 0.89831 0.62342 0.0
H1346 H 0.96965 0.93221 0.58566 0.0
H1347 H 0.94283 0.77156 0.65728 0.0
H1348 H 0.37193 0.7702 0.89737 0.0
H1349 H 0.38363 0.74614 0.87492 0.0
H1350 H 0.38746 0.71965 0.94717 0.0
H1351 H 0.37664 0.74418 0.96986 0.0
H1352 H 0.41389 0.71407 0.92234 0.0
H1353 H 0.35674 0.7104 0.89877 0.0
H1354 H 0.32934 0.71992 0.88286 0.0
H1355 H 0.35084 0.73087 0.80895 0.0
H1356 H 0.37843 0.72163 0.82451 0.0
H1357 H 0.42895 0.63857 0.84349 0.0
H1358 H 0.41368 0.65768 0.8723 0.0
H1359 H 0.42759 0.69925 0.82417 0.0
H1360 H 0.44318 0.68052 0.79593 0.0
H1361 H 0.38987 0.69313 0.84032 0.0
H1362 H 0.44809 0.69998 0.8696 0.0
H1363 H 0.47449 0.68866 0.88677 0.0
H1364 H 0.44837 0.66879 0.95222 0.0
H1365 H 0.42176 0.6798 0.93519 0.0
C1366 C 0.37517 0.7592 0.90842 0.0
C1367 C 0.37332 0.75899 0.93531 0.0
C1368 C 0.38175 0.74537 0.89556 0.0
C1369 C 0.38611 0.73085 0.90922 0.0
C1370 C 0.38416 0.73064 0.93614 0.0
C1371 C 0.37794 0.74463 0.94909 0.0
C1372 C 0.39338 0.71625 0.89548 0.0
C1373 C 0.40838 0.70932 0.9047 0.0
C1374 C 0.3863 0.7099 0.87241 0.0
C1375 C 0.3697 0.71541 0.86289 0.0
C1376 C 0.35566 0.71493 0.87917 0.0
C1377 C 0.34008 0.72027 0.87021 0.0
C1378 C 0.33835 0.72602 0.84493 0.0
C1379 C 0.35219 0.72641 0.82854 0.0
C1380 C 0.3678 0.7211 0.83741 0.0
C1381 C 0.42878 0.65179 0.83918 0.0
C1382 C 0.43733 0.65808 0.81758 0.0
C1383 C 0.42009 0.66264 0.8556 0.0
C1384 C 0.41957 0.6798 0.85023 0.0
C1385 C 0.4279 0.68603 0.82856 0.0
C1386 C 0.43686 0.67532 0.81256 0.0
C1387 C 0.41034 0.69148 0.86698 0.0
C1388 C 0.39504 0.69779 0.85826 0.0
C1389 C 0.41693 0.69701 0.89071 0.0
C1390 C 0.43292 0.69049 0.90094 0.0
C1391 C 0.44795 0.69303 0.88749 0.0
C1392 C 0.46296 0.68672 0.89724 0.0
C1393 C 0.4631 0.67795 0.92052 0.0
C1394 C 0.44824 0.67554 0.93415 0.0
C1395 C 0.4332 0.68182 0.92447 0.0
H1396 H 0.47473 0.67307 0.92803 0.0
H1397 H 0.32629 0.73015 0.83803 0.0
H1398 H 0.56703 0.18435 0.03028 0.0
H1399 H 0.5466 0.16802 0.05418 0.0
H1400 H 0.58223 0.16099 0.11567 0.0
H1401 H 0.60315 0.17678 0.09096 0.0
H1402 H 0.56465 0.13367 0.11009 0.0
H1403 H 0.55067 0.1911 0.1191 0.0
H1404 H 0.54474 0.21987 0.10498 0.0
H1405 H 0.50235 0.20259 0.06188 0.0
H1406 H 0.50817 0.17366 0.07544 0.0
H1407 H 0.49974 0.11801 0.20376 0.0
H1408 H 0.52317 0.12969 0.17936 0.0
H1409 H 0.49386 0.12757 0.10971 0.0
H1410 H 0.47043 0.11561 0.13392 0.0
H1411 H 0.50877 0.15946 0.12152 0.0
H1412 H 0.52384 0.10125 0.11484 0.0
H1413 H 0.53013 0.07332 0.13226 0.0
H1414 H 0.57093 0.0936 0.17591 0.0
H1415 H 0.56473 0.12171 0.15902 0.0
C1416 C 0.57056 0.17926 0.04885 0.0
C1417 C 0.58659 0.18203 0.05897 0.0
C1418 C 0.55884 0.16997 0.06255 0.0
C1419 C 0.56267 0.16369 0.0871 0.0
C1420 C 0.57893 0.16584 0.09686 0.0
C1421 C 0.59085 0.17487 0.08279 0.0
C1422 C 0.54947 0.15536 0.10263 0.0
C1423 C 0.55252 0.13942 0.11288 0.0
C1424 C 0.53355 0.16278 0.10621 0.0
C1425 C 0.52994 0.18019 0.09812 0.0
C1426 C 0.54015 0.19342 0.10647 0.0
C1427 C 0.5368 0.20976 0.09859 0.0
C1428 C 0.5232 0.21305 0.0825 0.0
C1429 C 0.51289 0.20001 0.07432 0.0
C1430 C 0.5162 0.18364 0.08212 0.0
C1431 C 0.49836 0.11986 0.18318 0.0
C1432 C 0.48328 0.11592 0.17071 0.0
C1433 C 0.51176 0.12647 0.16929 0.0
C1434 C 0.51024 0.12942 0.14276 0.0
C1435 C 0.49526 0.12532 0.13018 0.0
C1436 C 0.48193 0.11846 0.144 0.0
C1437 C 0.52389 0.13774 0.12847 0.0
C1438 C 0.52092 0.15374 0.11864 0.0
C1439 C 0.53992 0.13052 0.12582 0.0
C1440 C 0.54371 0.11362 0.13586 0.0
C1441 C 0.53406 0.09978 0.12833 0.0
C1442 C 0.53763 0.08391 0.13807 0.0
C1443 C 0.55089 0.0817 0.15523 0.0
C1444 C 0.56064 0.09534 0.16263 0.0
C1445 C 0.55712 0.11124 0.15296 0.0
H1446 H 0.55363 0.0694 0.16275 0.0
H1447 H 0.52063 0.22571 0.07641 0.0
H1448 H 0.08723 0.63914 0.1683 0.0
H1449 H 0.10547 0.65837 0.14457 0.0
H1450 H 0.06357 0.69095 0.13075 0.0
H1451 H 0.04536 0.67202 0.15439 0.0
H1452 H 0.10628 0.67308 0.09553 0.0
H1453 H 0.07524 0.73023 0.14504 0.0
H1454 H 0.06073 0.7368 0.18574 0.0
H1455 H 0.08633 0.69657 0.22351 0.0
H1456 H 0.10119 0.68993 0.18317 0.0
H1457 H 0.11916 0.74864 0.02875 0.0
H1458 H 0.10918 0.72388 0.05133 0.0
H1459 H 0.13766 0.73795 0.11852 0.0
H1460 H 0.14752 0.76299 0.09606 0.0
H1461 H 0.10689 0.73046 0.13165 0.0
H1462 H 0.14897 0.70395 0.08249 0.0
H1463 H 0.16531 0.69684 0.04374 0.0
H1464 H 0.12182 0.67494 0.00909 0.0
H1465 H 0.10514 0.68214 0.04749 0.0
C1466 C 0.08184 0.65022 0.15971 0.0
C1467 C 0.06489 0.65418 0.16359 0.0
C1468 C 0.09229 0.66119 0.1462 0.0
C1469 C 0.08592 0.67624 0.13642 0.0
C1470 C 0.06879 0.67956 0.1386 0.0
C1471 C 0.05839 0.66869 0.1521 0.0
C1472 C 0.09718 0.68917 0.12563 0.0
C1473 C 0.1065 0.68562 0.10342 0.0
C1474 C 0.09787 0.70537 0.13649 0.0
C1475 C 0.08923 0.7095 0.161 0.0
C1476 C 0.07785 0.72285 0.16207 0.0
C1477 C 0.06955 0.72658 0.18507 0.0
C1478 C 0.07257 0.71708 0.20718 0.0
C1479 C 0.08396 0.70388 0.20635 0.0
C1480 C 0.09231 0.70012 0.18342 0.0
C1481 C 0.12345 0.74639 0.04824 0.0
C1482 C 0.13408 0.75779 0.06067 0.0
C1483 C 0.11782 0.73215 0.06108 0.0
C1484 C 0.1228 0.72894 0.08654 0.0
C1485 C 0.1337 0.74014 0.09884 0.0
C1486 C 0.13934 0.75442 0.08599 0.0
C1487 C 0.11552 0.71462 0.10084 0.0
C1488 C 0.1069 0.71791 0.12382 0.0
C1489 C 0.1158 0.69814 0.09096 0.0
C1490 C 0.12578 0.69368 0.06784 0.0
C1491 C 0.14286 0.69772 0.06654 0.0
C1492 C 0.15219 0.69366 0.04464 0.0
C1493 C 0.1446 0.68547 0.02395 0.0
C1494 C 0.12768 0.68129 0.02514 0.0
C1495 C 0.11828 0.68533 0.04699 0.0
H1496 H 0.15185 0.68234 0.00701 0.0
H1497 H 0.06611 0.71998 0.22495 0.0
H1498 H 0.49872 0.87016 0.28127 0.0
H1499 H 0.52321 0.85785 0.30182 0.0
H1500 H 0.51494 0.88814 0.3693 0.0
H1501 H 0.48997 0.90025 0.34912 0.0
H1502 H 0.55202 0.88261 0.34513 0.0
H1503 H 0.50116 0.85607 0.379 0.0
H1504 H 0.4737 0.84323 0.37061 0.0
H1505 H 0.49713 0.80509 0.32507 0.0
H1506 H 0.52469 0.81807 0.33247 0.0
H1507 H 0.60115 0.83878 0.43669 0.0
H1508 H 0.58141 0.85547 0.41177 0.0
H1509 H 0.56895 0.81212 0.36608 0.0
H1510 H 0.58777 0.79518 0.39247 0.0
H1511 H 0.54226 0.82527 0.37799 0.0
H1512 H 0.59211 0.84858 0.34292 0.0
H1513 H 0.62 0.86163 0.34282 0.0
H1514 H 0.60033 0.9044 0.38238 0.0
H1515 H 0.57236 0.89152 0.38301 0.0
C1516 C 0.50216 0.87435 0.30038 0.0
C1517 C 0.49232 0.88601 0.31375 0.0
C1518 C 0.51621 0.86737 0.31199 0.0
C1519 C 0.5208 0.87214 0.33697 0.0
C1520 C 0.51156 0.88442 0.34991 0.0
C1521 C 0.49729 0.89122 0.33846 0.0
C1522 C 0.53412 0.86293 0.35042 0.0
C1523 C 0.54995 0.87016 0.35273 0.0
C1524 C 0.5314 0.84649 0.35921 0.0
C1525 C 0.51497 0.83815 0.35606 0.0
C1526 C 0.50045 0.84503 0.36702 0.0
C1527 C 0.48486 0.83775 0.3624 0.0
C1528 C 0.48367 0.82339 0.34724 0.0
C1529 C 0.49807 0.81624 0.33676 0.0
C1530 C 0.51367 0.82357 0.34113 0.0
C1531 C 0.59444 0.83295 0.42094 0.0
C1532 C 0.59597 0.81576 0.41634 0.0
C1533 C 0.58319 0.8425 0.4066 0.0
C1534 C 0.57373 0.83517 0.38674 0.0
C1535 C 0.57597 0.81811 0.38135 0.0
C1536 C 0.58681 0.80845 0.39626 0.0
C1537 C 0.56057 0.84486 0.37305 0.0
C1538 C 0.5446 0.83771 0.37058 0.0
C1539 C 0.56334 0.86123 0.3635 0.0
C1540 C 0.58016 0.86901 0.36323 0.0
C1541 C 0.59376 0.86071 0.35178 0.0
C1542 C 0.60958 0.86809 0.35159 0.0
C1543 C 0.61195 0.88382 0.36264 0.0
C1544 C 0.59849 0.89221 0.37385 0.0
C1545 C 0.58264 0.88489 0.37411 0.0
H1546 H 0.6242 0.88951 0.36247 0.0
H1547 H 0.47161 0.81775 0.34373 0.0
H1548 H 0.39093 0.24462 0.53492 0.0
H1549 H 0.40271 0.26805 0.55889 0.0
H1550 H 0.36426 0.26293 0.6165 0.0
H1551 H 0.35265 0.23895 0.59301 0.0
H1552 H 0.37394 0.29864 0.59424 0.0
H1553 H 0.39437 0.24827 0.63511 0.0
H1554 H 0.40757 0.22051 0.63531 0.0
H1555 H 0.45235 0.24131 0.60314 0.0
H1556 H 0.43917 0.26912 0.60171 0.0
H1557 H 0.41366 0.35041 0.68865 0.0
H1558 H 0.3975 0.32979 0.66437 0.0
H1559 H 0.44235 0.31447 0.62456 0.0
H1560 H 0.45856 0.33449 0.64979 0.0
H1561 H 0.42755 0.28854 0.63958 0.0
H1562 H 0.40858 0.33769 0.59562 0.0
H1563 H 0.39636 0.36581 0.5915 0.0
H1564 H 0.35069 0.3484 0.62555 0.0
H1565 H 0.36272 0.32021 0.63016 0.0
C1566 C 0.3849 0.24848 0.55261 0.0
C1567 C 0.37096 0.23984 0.56223 0.0
C1568 C 0.39163 0.2619 0.56622 0.0
C1569 C 0.38435 0.26712 0.58941 0.0
C1570 C 0.37 0.25904 0.59857 0.0
C1571 C 0.36345 0.24534 0.58522 0.0
C1572 C 0.39245 0.28041 0.60466 0.0
C1573 C 0.38554 0.29647 0.60454 0.0
C1574 C 0.4078 0.27754 0.61733 0.0
C1575 C 0.41568 0.26077 0.618 0.0
C1576 C 0.40693 0.2469 0.62767 0.0
C1577 C 0.41442 0.23115 0.62806 0.0
C1578 C 0.43081 0.22917 0.61933 0.0
C1579 C 0.43966 0.24289 0.60992 0.0
C1580 C 0.43216 0.25863 0.60922 0.0
C1581 C 0.41996 0.3428 0.6744 0.0
C1582 C 0.43734 0.34392 0.67112 0.0
C1583 C 0.41073 0.33104 0.66045 0.0
C1584 C 0.41865 0.32057 0.64245 0.0
C1585 C 0.43593 0.32227 0.63845 0.0
C1586 C 0.4452 0.33372 0.65281 0.0
C1587 C 0.40927 0.30711 0.62896 0.0
C1588 C 0.41594 0.29088 0.62942 0.0
C1589 C 0.39387 0.30994 0.61621 0.0
C1590 C 0.38662 0.32688 0.61348 0.0
C1591 C 0.39598 0.33989 0.60241 0.0
C1592 C 0.38908 0.35583 0.59996 0.0
C1593 C 0.37278 0.3589 0.60833 0.0
C1594 C 0.36332 0.34601 0.61911 0.0
C1595 C 0.37017 0.33004 0.62163 0.0
H1596 H 0.36745 0.37125 0.60641 0.0
H1597 H 0.43667 0.21703 0.61997 0.0
H1598 H 0.9986 0.12989 0.77698 0.0
H1599 H 0.97381 0.14169 0.79765 0.0
H1600 H 0.99198 0.12556 0.87184 0.0
H1601 H 0.01688 0.1138 0.85132 0.0
H1602 H 0.94847 0.12921 0.82846 0.0
H1603 H 0.98458 0.15769 0.91412 0.0
H1604 H 0.0132 0.16691 0.92457 0.0
H1605 H 0.02238 0.17738 0.84464 0.0
H1606 H 0.99372 0.16854 0.8338 0.0
H1607 H 0.89292 0.1632 0.92493 0.0
H1608 H 0.9134 0.14743 0.89952 0.0
H1609 H 0.93538 0.19361 0.87341 0.0
H1610 H 0.9153 0.20931 0.89908 0.0
H1611 H 0.95856 0.1743 0.89213 0.0
H1612 H 0.91301 0.16752 0.83271 0.0
H1613 H 0.88462 0.15954 0.81901 0.0
H1614 H 0.89417 0.10876 0.84094 0.0
H1615 H 0.92256 0.11649 0.85509 0.0
C1616 C 0.99726 0.12873 0.79768 0.0
C1617 C 0.00975 0.12107 0.81258 0.0
C1618 C 0.98303 0.13538 0.80942 0.0
C1619 C 0.98113 0.13459 0.83626 0.0
C1620 C 0.99329 0.1264 0.8511 0.0
C1621 C 0.0075 0.1197 0.83936 0.0
C1622 C 0.96708 0.14343 0.84884 0.0
C1623 C 0.95062 0.13902 0.84249 0.0
C1624 C 0.96995 0.15643 0.86674 0.0
C1625 C 0.98706 0.16226 0.87314 0.0
C1626 C 0.99267 0.16205 0.89881 0.0
C1627 C 0.0089 0.16721 0.90479 0.0
C1628 C 0.01962 0.17268 0.88527 0.0
C1629 C 0.01409 0.1731 0.85973 0.0
C1630 C 0.99785 0.16801 0.85366 0.0
C1631 C 0.90188 0.16995 0.91327 0.0
C1632 C 0.90261 0.18747 0.91414 0.0
C1633 C 0.91359 0.16094 0.89879 0.0
C1634 C 0.92601 0.16934 0.88469 0.0
C1635 C 0.92605 0.18685 0.88437 0.0
C1636 C 0.91452 0.19581 0.89898 0.0
C1637 C 0.93979 0.16012 0.87185 0.0
C1638 C 0.9563 0.16443 0.87824 0.0
C1639 C 0.93692 0.14728 0.85363 0.0
C1640 C 0.91984 0.14262 0.84521 0.0
C1641 C 0.90901 0.15469 0.83482 0.0
C1642 C 0.89293 0.1502 0.82693 0.0
C1643 C 0.88758 0.13367 0.82917 0.0
C1644 C 0.89832 0.12157 0.83925 0.0
C1645 C 0.91441 0.12599 0.84719 0.0
H1646 H 0.87513 0.13022 0.82304 0.0
H1647 H 0.03219 0.17662 0.88993 0.0
H1648 H 0.96515 0.67473 0.67152 0.0
H1649 H 0.94805 0.69431 0.64712 0.0
H1650 H 0.90495 0.66283 0.65825 0.0
H1651 H 0.92209 0.64292 0.68236 0.0
H1652 H 0.90484 0.67591 0.61089 0.0
H1653 H 0.91128 0.6965 0.69651 0.0
H1654 H 0.92639 0.70506 0.73576 0.0
H1655 H 0.95168 0.74343 0.69315 0.0
H1656 H 0.93694 0.73491 0.65354 0.0
H1657 H 0.86214 0.76459 0.60603 0.0
H1658 H 0.87423 0.74124 0.63009 0.0
H1659 H 0.90012 0.725 0.56156 0.0
H1660 H 0.88775 0.74795 0.53734 0.0
H1661 H 0.90526 0.73468 0.64111 0.0
H1662 H 0.90559 0.68345 0.56163 0.0
H1663 H 0.88833 0.67471 0.52462 0.0
H1664 H 0.84514 0.69708 0.55943 0.0
H1665 H 0.86207 0.70576 0.5968 0.0
C1666 C 0.95207 0.67185 0.66859 0.0
C1667 C 0.94494 0.65735 0.67918 0.0
C1668 C 0.9423 0.6831 0.6547 0.0
C1669 C 0.92515 0.68022 0.6514 0.0
C1670 C 0.91815 0.66534 0.66073 0.0
C1671 C 0.92797 0.65397 0.6745 0.0
C1672 C 0.91449 0.6931 0.63911 0.0
C1673 C 0.9049 0.68875 0.6175 0.0
C1674 C 0.91421 0.70978 0.64817 0.0
C1675 C 0.92311 0.71495 0.67199 0.0
C1676 C 0.92017 0.70667 0.69546 0.0
C1677 C 0.92865 0.71153 0.71778 0.0
C1678 C 0.94002 0.72475 0.71694 0.0
C1679 C 0.9429 0.73317 0.69377 0.0
C1680 C 0.93447 0.72833 0.67138 0.0
C1681 C 0.87029 0.75594 0.59608 0.0
C1682 C 0.87398 0.75808 0.56981 0.0
C1683 C 0.87721 0.74263 0.60984 0.0
C1684 C 0.88793 0.73124 0.59757 0.0
C1685 C 0.89161 0.73339 0.57133 0.0
C1686 C 0.88461 0.7466 0.55754 0.0
C1687 C 0.89597 0.71761 0.61242 0.0
C1688 C 0.9051 0.72182 0.63455 0.0
C1689 C 0.8955 0.70077 0.60415 0.0
C1690 C 0.88515 0.69537 0.58193 0.0
C1691 C 0.89239 0.68643 0.56145 0.0
C1692 C 0.88267 0.6815 0.54039 0.0
C1693 C 0.86566 0.68538 0.53965 0.0
C1694 C 0.85832 0.69414 0.56 0.0
C1695 C 0.86799 0.69908 0.5811 0.0
H1696 H 0.85816 0.68157 0.52331 0.0
H1697 H 0.94657 0.7285 0.73425 0.0
H1698 H 0.97782 0.11391 0.35841 0.0
H1699 H 0.00054 0.12637 0.38356 0.0
H1700 H 0.02922 0.1333 0.31405 0.0
H1701 H 0.00636 0.12125 0.28864 0.0
H1702 H 0.04684 0.11921 0.36276 0.0
H1703 H 0.01258 0.16501 0.32981 0.0
H1704 H 0.98583 0.1796 0.32314 0.0
H1705 H 0.9778 0.1812 0.40494 0.0
H1706 H 0.00448 0.16645 0.41207 0.0
H1707 H 0.10799 0.17723 0.40635 0.0
H1708 H 0.0873 0.16087 0.38246 0.0
H1709 H 0.05028 0.17221 0.44043 0.0
H1710 H 0.07064 0.18922 0.46349 0.0
H1711 H 0.03668 0.17603 0.39741 0.0
H1712 H 0.06975 0.13232 0.433 0.0
H1713 H 0.09533 0.11653 0.44316 0.0
H1714 H 0.10427 0.10864 0.36246 0.0
H1715 H 0.07884 0.1246 0.35178 0.0
C1716 C 0.98905 0.1179 0.34853 0.0
C1717 C 0.99035 0.11666 0.32159 0.0
C1718 C 0.00198 0.125 0.3629 0.0
C1719 C 0.01649 0.1307 0.35059 0.0
C1720 C 0.01811 0.12888 0.32383 0.0
C1721 C 0.00505 0.12208 0.30938 0.0
C1722 C 0.02947 0.1396 0.36545 0.0
C1723 C 0.04479 0.13171 0.37016 0.0
C1724 C 0.02645 0.15563 0.37573 0.0
C1725 C 0.01042 0.16448 0.37144 0.0
C1726 C 0.00503 0.16832 0.34635 0.0
C1727 C 0.98989 0.17665 0.3425 0.0
C1728 C 0.98008 0.18127 0.3636 0.0
C1729 C 0.9854 0.17759 0.38861 0.0
C1730 C 0.00054 0.16927 0.39257 0.0
C1731 C 0.09545 0.17612 0.414 0.0
C1732 C 0.09088 0.18455 0.43667 0.0
C1733 C 0.08365 0.16669 0.40044 0.0
C1734 C 0.06721 0.16512 0.40973 0.0
C1735 C 0.06281 0.17327 0.43272 0.0
C1736 C 0.07447 0.18298 0.44592 0.0
C1737 C 0.05433 0.15571 0.39501 0.0
C1738 C 0.03892 0.16351 0.39022 0.0
C1739 C 0.05716 0.13941 0.38526 0.0
C1740 C 0.07247 0.12981 0.39158 0.0
C1741 C 0.07724 0.12734 0.4174 0.0
C1742 C 0.0917 0.11834 0.42326 0.0
C1743 C 0.10144 0.11162 0.40346 0.0
C1744 C 0.09672 0.11387 0.37777 0.0
C1745 C 0.08228 0.12288 0.3718 0.0
H1746 H 0.11264 0.10465 0.40804 0.0
H1747 H 0.9684 0.18777 0.36062 0.0
H1748 H 0.5993 0.23994 0.04077 0.0
H1749 H 0.58743 0.26379 0.06353 0.0
H1750 H 0.6317 0.26678 0.11095 0.0
H1751 H 0.64292 0.242 0.08949 0.0
H1752 H 0.60807 0.27174 0.13986 0.0
H1753 H 0.62102 0.29584 0.05883 0.0
H1754 H 0.62175 0.29867 0.01152 0.0
H1755 H 0.56828 0.30254 0.00966 0.0
H1756 H 0.5672 0.2995 0.05695 0.0
H1757 H 0.58304 0.35264 0.1871 0.0
H1758 H 0.5984 0.33225 0.16089 0.0
H1759 H 0.55183 0.31135 0.13445 0.0
H1760 H 0.53641 0.33144 0.16095 0.0
H1761 H 0.57879 0.31779 0.09472 0.0
H1762 H 0.56838 0.29107 0.17844 0.0
H1763 H 0.57037 0.28863 0.22572 0.0
H1764 H 0.62378 0.29267 0.2213 0.0
H1765 H 0.62207 0.29522 0.17397 0.0
C1766 C 0.60648 0.24574 0.05601 0.0
C1767 C 0.62201 0.2392 0.0634 0.0
C1768 C 0.59978 0.25951 0.06887 0.0
C1769 C 0.60879 0.26747 0.08865 0.0
C1770 C 0.62444 0.26096 0.0958 0.0
C1771 C 0.63088 0.24682 0.08352 0.0
C1772 C 0.60154 0.28199 0.10273 0.0
C1773 C 0.60201 0.28194 0.1298 0.0
C1774 C 0.59345 0.29539 0.08988 0.0
C1775 C 0.59403 0.29731 0.06143 0.0
C1776 C 0.60941 0.29719 0.04832 0.0
C1777 C 0.60988 0.29884 0.02151 0.0
C1778 C 0.59507 0.30075 0.00759 0.0
C1779 C 0.57974 0.30105 0.02047 0.0
C1780 C 0.57919 0.29938 0.04728 0.0
C1781 C 0.57609 0.34383 0.17545 0.0
C1782 C 0.55854 0.34354 0.17614 0.0
C1783 C 0.58487 0.33218 0.1606 0.0
C1784 C 0.57621 0.32031 0.14587 0.0
C1785 C 0.5587 0.32043 0.14572 0.0
C1786 C 0.54993 0.33184 0.16093 0.0
C1787 C 0.58534 0.30725 0.13146 0.0
C1788 C 0.58514 0.30763 0.10446 0.0
C1789 C 0.59416 0.29446 0.14427 0.0
C1790 C 0.59508 0.29352 0.17274 0.0
C1791 C 0.58052 0.29165 0.18759 0.0
C1792 C 0.58161 0.29019 0.21439 0.0
C1793 C 0.5972 0.29053 0.22651 0.0
C1794 C 0.61172 0.29242 0.21188 0.0
C1795 C 0.6107 0.29385 0.18509 0.0
H1796 H 0.59808 0.28921 0.24722 0.0
H1797 H 0.59546 0.30202 0.98683 0.0
H1798 H 0.43306 0.80671 0.96247 0.0
H1799 H 0.45317 0.82374 0.93867 0.0
H1800 H 0.41427 0.83942 0.88663 0.0
H1801 H 0.39383 0.82271 0.91084 0.0
H1802 H 0.45064 0.82321 0.86826 0.0
H1803 H 0.42132 0.86735 0.91663 0.0
H1804 H 0.4109 0.87973 0.95709 0.0
H1805 H 0.46051 0.87904 0.98851 0.0
H1806 H 0.47117 0.8664 0.94838 0.0
H1807 H 0.49458 0.88054 0.79306 0.0
H1808 H 0.47269 0.86702 0.81824 0.0
H1809 H 0.5016 0.87422 0.88758 0.0
H1810 H 0.52335 0.88836 0.86244 0.0
H1811 H 0.4702 0.87868 0.89833 0.0
H1812 H 0.50093 0.83633 0.85636 0.0
H1813 H 0.51477 0.8215 0.8206 0.0
H1814 H 0.46751 0.81517 0.78273 0.0
H1815 H 0.45339 0.83014 0.81814 0.0
C1816 C 0.42875 0.81378 0.94597 0.0
C1817 C 0.41186 0.81334 0.93846 0.0
C1818 C 0.44024 0.82353 0.9325 0.0
C1819 C 0.43514 0.83281 0.91105 0.0
C1820 C 0.41836 0.83234 0.90327 0.0
C1821 C 0.40674 0.82284 0.9171 0.0
C1822 C 0.44755 0.84264 0.89647 0.0
C1823 C 0.45471 0.8355 0.87444 0.0
C1824 C 0.45346 0.85818 0.90555 0.0
C1825 C 0.447 0.86576 0.92962 0.0
C1826 C 0.42997 0.86965 0.93228 0.0
C1827 C 0.42403 0.87676 0.95513 0.0
C1828 C 0.43504 0.88014 0.97538 0.0
C1829 C 0.452 0.87641 0.97282 0.0
C1830 C 0.45799 0.86928 0.95003 0.0
C1831 C 0.49619 0.8794 0.81372 0.0
C1832 C 0.51068 0.88541 0.82581 0.0
C1833 C 0.48371 0.87158 0.82808 0.0
C1834 C 0.48565 0.86925 0.85473 0.0
C1835 C 0.49985 0.87581 0.86702 0.0
C1836 C 0.51226 0.88389 0.85267 0.0
C1837 C 0.47306 0.85953 0.86946 0.0
C1838 C 0.46602 0.86653 0.89177 0.0
C1839 C 0.4677 0.84354 0.86118 0.0
C1840 C 0.47611 0.83451 0.8398 0.0
C1841 C 0.4935 0.83189 0.84031 0.0
C1842 C 0.5014 0.82344 0.82013 0.0
C1843 C 0.49203 0.81745 0.79938 0.0
C1844 C 0.47475 0.81985 0.79881 0.0
C1845 C 0.46678 0.82829 0.81895 0.0
H1846 H 0.49817 0.8109 0.78377 0.0
H1847 H 0.43047 0.88571 0.99301 0.0
H1848 H 0.88504 0.24889 0.9589 0.0
H1849 H 0.89555 0.27256 0.93441 0.0
H1850 H 0.86254 0.26012 0.8715 0.0
H1851 H 0.85225 0.23597 0.8958 0.0
H1852 H 0.89225 0.26634 0.85363 0.0
H1853 H 0.85544 0.29487 0.90959 0.0
H1854 H 0.84212 0.30257 0.95075 0.0
H1855 H 0.88895 0.32112 0.97911 0.0
H1856 H 0.90262 0.31332 0.93825 0.0
H1857 H 0.91668 0.35894 0.82424 0.0
H1858 H 0.8982 0.33905 0.84589 0.0
H1859 H 0.93772 0.30247 0.84625 0.0
H1860 H 0.95617 0.32207 0.82441 0.0
H1861 H 0.89914 0.32296 0.89096 0.0
H1862 H 0.92243 0.26461 0.83438 0.0
H1863 H 0.93308 0.25779 0.79101 0.0
H1864 H 0.90788 0.30054 0.7598 0.0
H1865 H 0.89696 0.30753 0.80289 0.0
C1866 C 0.87991 0.25123 0.93993 0.0
C1867 C 0.86784 0.24055 0.92925 0.0
C1868 C 0.88585 0.26487 0.92601 0.0
C1869 C 0.87967 0.26828 0.90125 0.0
C1870 C 0.86744 0.25775 0.89062 0.0
C1871 C 0.86155 0.244 0.90453 0.0
C1872 C 0.88682 0.28226 0.88605 0.0
C1873 C 0.89362 0.27875 0.86173 0.0
C1874 C 0.88824 0.29859 0.89628 0.0
C1875 C 0.88008 0.30342 0.92087 0.0
C1876 C 0.86293 0.3005 0.92466 0.0
C1877 C 0.85531 0.3049 0.94793 0.0
C1878 C 0.86469 0.31231 0.96755 0.0
C1879 C 0.8817 0.31538 0.9639 0.0
C1880 C 0.88939 0.31099 0.94066 0.0
C1881 C 0.92149 0.3467 0.82908 0.0
C1882 C 0.93788 0.34206 0.82235 0.0
C1883 C 0.91089 0.33536 0.84144 0.0
C1884 C 0.91648 0.31919 0.84721 0.0
C1885 C 0.93302 0.31476 0.84144 0.0
C1886 C 0.94359 0.32604 0.82905 0.0
C1887 C 0.90512 0.30679 0.85913 0.0
C1888 C 0.89754 0.3106 0.88278 0.0
C1889 C 0.90257 0.29087 0.84797 0.0
C1890 C 0.90898 0.28665 0.82192 0.0
C1891 C 0.91911 0.27252 0.81825 0.0
C1892 C 0.92521 0.26864 0.79371 0.0
C1893 C 0.92121 0.27876 0.77267 0.0
C1894 C 0.91105 0.29276 0.77612 0.0
C1895 C 0.90492 0.2967 0.8006 0.0
H1896 H 0.92594 0.27574 0.7537 0.0
H1897 H 0.85876 0.3157 0.98556 0.0
H1898 H 0.4975 0.12202 0.71636 0.0
H1899 H 0.4719 0.13302 0.69721 0.0
H1900 H 0.4939 0.12887 0.6215 0.0
H1901 H 0.51933 0.11728 0.64056 0.0
H1902 H 0.46705 0.16029 0.67309 0.0
H1903 H 0.46456 0.12431 0.57572 0.0
H1904 H 0.47154 0.09642 0.55872 0.0
H1905 H 0.46599 0.07541 0.63436 0.0
H1906 H 0.45875 0.10312 0.65176 0.0
H1907 H 0.42702 0.20415 0.57459 0.0
H1908 H 0.44534 0.18777 0.60203 0.0
H1909 H 0.40741 0.14984 0.60906 0.0
H1910 H 0.38883 0.1662 0.58121 0.0
H1911 H 0.43782 0.13666 0.59708 0.0
H1912 H 0.41615 0.17319 0.66066 0.0
H1913 H 0.40772 0.19969 0.68099 0.0
H1914 H 0.45834 0.2172 0.67764 0.0
H1915 H 0.46707 0.19086 0.65704 0.0
C1916 C 0.4968 0.12329 0.6956 0.0
C1917 C 0.51038 0.1188 0.67993 0.0
C1918 C 0.48217 0.12959 0.68468 0.0
C1919 C 0.48087 0.13165 0.65789 0.0
C1920 C 0.49443 0.12706 0.64217 0.0
C1921 C 0.509 0.12053 0.65308 0.0
C1922 C 0.4658 0.13961 0.64659 0.0
C1923 C 0.4606 0.15504 0.65658 0.0
C1924 C 0.4571 0.13261 0.62541 0.0
C1925 C 0.46123 0.11583 0.61507 0.0
C1926 C 0.46474 0.11373 0.5887 0.0
C1927 C 0.46876 0.09795 0.579 0.0
C1928 C 0.46925 0.08416 0.59546 0.0
C1929 C 0.46566 0.08611 0.62165 0.0
C1930 C 0.46162 0.10185 0.63144 0.0
C1931 C 0.42241 0.19243 0.58215 0.0
C1932 C 0.4064 0.18652 0.57567 0.0
C1933 C 0.43292 0.1831 0.59796 0.0
C1934 C 0.42768 0.16768 0.6078 0.0
C1935 C 0.41165 0.16177 0.60172 0.0
C1936 C 0.40104 0.17116 0.5859 0.0
C1937 C 0.43948 0.1575 0.62317 0.0
C1938 C 0.44412 0.14173 0.61386 0.0
C1939 C 0.44747 0.16402 0.64531 0.0
C1940 C 0.44225 0.18006 0.65718 0.0
C1941 C 0.42547 0.18274 0.66407 0.0
C1942 C 0.42065 0.1977 0.67575 0.0
C1943 C 0.4325 0.2101 0.68068 0.0
C1944 C 0.44919 0.20756 0.67391 0.0
C1945 C 0.45408 0.1926 0.66226 0.0
H1946 H 0.42872 0.2217 0.68964 0.0
H1947 H 0.47238 0.07196 0.58792 0.0
H1948 H 0.60743 0.7567 0.45706 0.0
H1949 H 0.5978 0.73216 0.43417 0.0
H1950 H 0.64086 0.73456 0.3842 0.0
H1951 H 0.65005 0.76008 0.40628 0.0
H1952 H 0.61588 0.72708 0.35661 0.0
H1953 H 0.63633 0.7039 0.43386 0.0
H1954 H 0.64091 0.70075 0.48059 0.0
H1955 H 0.58858 0.69156 0.4918 0.0
H1956 H 0.58363 0.69488 0.44518 0.0
H1957 H 0.58783 0.64578 0.31185 0.0
H1958 H 0.6057 0.66569 0.33497 0.0
H1959 H 0.56229 0.68669 0.37193 0.0
H1960 H 0.54432 0.66717 0.34847 0.0
H1961 H 0.59295 0.67879 0.40494 0.0
H1962 H 0.57423 0.70695 0.32551 0.0
H1963 H 0.57187 0.70829 0.27814 0.0
H1964 H 0.62522 0.70514 0.27118 0.0
H1965 H 0.62786 0.70356 0.31854 0.0
C1966 C 0.61491 0.75205 0.44123 0.0
C1967 C 0.62952 0.76032 0.43349 0.0
C1968 C 0.60946 0.73784 0.42829 0.0
C1969 C 0.61882 0.73114 0.40786 0.0
C1970 C 0.63347 0.73939 0.40002 0.0
C1971 C 0.63873 0.75394 0.41265 0.0
C1972 C 0.61271 0.71599 0.39422 0.0
C1973 C 0.61124 0.71639 0.36724 0.0
C1974 C 0.6067 0.70187 0.40789 0.0
C1975 C 0.6096 0.69972 0.43599 0.0
C1976 C 0.62577 0.7013 0.4463 0.0
C1977 C 0.62844 0.69947 0.47278 0.0
C1978 C 0.61504 0.69598 0.48916 0.0
C1979 C 0.59895 0.69426 0.47908 0.0
C1980 C 0.59621 0.69608 0.45262 0.0
C1981 C 0.58213 0.65454 0.3251 0.0
C1982 C 0.56469 0.65501 0.32831 0.0
C1983 C 0.59233 0.66589 0.33821 0.0
C1984 C 0.58525 0.6776 0.35506 0.0
C1985 C 0.56793 0.67769 0.359 0.0
C1986 C 0.5577 0.66661 0.34552 0.0
C1987 C 0.59569 0.69035 0.36781 0.0
C1988 C 0.59796 0.6894 0.39452 0.0
C1989 C 0.60284 0.70369 0.35388 0.0
C1990 C 0.60123 0.70495 0.3255 0.0
C1991 C 0.58544 0.70641 0.31386 0.0
C1992 C 0.58406 0.70724 0.28703 0.0
C1993 C 0.59838 0.70675 0.27166 0.0
C1994 C 0.61413 0.70549 0.28311 0.0
C1995 C 0.61558 0.70465 0.30993 0.0
H1996 H 0.59728 0.70737 0.25089 0.0
H1997 H 0.61713 0.69458 0.50966 0.0
H1998 H 0.07453 0.79323 0.07403 0.0
H1999 H 0.05596 0.8096 0.10103 0.0
H2000 H 0.09508 0.84574 0.11352 0.0
H2001 H 0.11379 0.82956 0.0857 0.0
H2002 H 0.05522 0.81896 0.14866 0.0
H2003 H 0.07658 0.88501 0.11774 0.0
H2004 H 0.09054 0.89868 0.08093 0.0
H2005 H 0.07315 0.85991 0.03047 0.0
H2006 H 0.05873 0.84633 0.0667 0.0
H2007 H 0.00811 0.87467 0.22342 0.0
H2008 H 0.03242 0.86241 0.20214 0.0
H2009 H 0.0112 0.87434 0.12792 0.0
H2010 H 0.98716 0.88725 0.14922 0.0
H2011 H 0.04362 0.87793 0.12563 0.0
H2012 H 0.00643 0.83521 0.15643 0.0
H2013 H 0.98979 0.82007 0.18893 0.0
H2014 H 0.03425 0.80964 0.23224 0.0
H2015 H 0.05115 0.82487 0.20015 0.0
C2016 C 0.07932 0.80459 0.0826 0.0
C2017 C 0.09566 0.81013 0.07741 0.0
C2018 C 0.06865 0.81392 0.09819 0.0
C2019 C 0.07402 0.82901 0.10909 0.0
C2020 C 0.09056 0.83426 0.10497 0.0
C2021 C 0.10127 0.82495 0.08916 0.0
C2022 C 0.06192 0.8394 0.12376 0.0
C2023 C 0.05282 0.8319 0.14376 0.0
C2024 C 0.05851 0.85621 0.11709 0.0
C2025 C 0.0668 0.86453 0.09502 0.0
C2026 C 0.07567 0.87947 0.09874 0.0
C2027 C 0.08364 0.88723 0.07795 0.0
C2028 C 0.08277 0.88017 0.05335 0.0
C2029 C 0.07383 0.8654 0.04946 0.0
C2030 C 0.06575 0.85768 0.07012 0.0
C2031 C 0.00877 0.87491 0.20257 0.0
C2032 C 0.99571 0.88177 0.18794 0.0
C2033 C 0.02263 0.86784 0.19043 0.0
C2034 C 0.02348 0.86711 0.16341 0.0
C2035 C 0.01082 0.87472 0.14879 0.0
C2036 C 0.99707 0.88206 0.16096 0.0
C2037 C 0.03691 0.85744 0.15043 0.0
C2038 C 0.04625 0.86508 0.13079 0.0
C2039 C 0.04017 0.84056 0.15682 0.0
C2040 C 0.03003 0.83132 0.17604 0.0
C2041 C 0.01264 0.82978 0.17297 0.0
C2042 C 0.00316 0.82118 0.1913 0.0
C2043 C 0.01095 0.81396 0.21266 0.0
C2044 C 0.02824 0.81527 0.2157 0.0
C2045 C 0.03777 0.82387 0.19745 0.0
H2046 H 0.00358 0.80731 0.22683 0.0
H2047 H 0.08899 0.88615 0.0373 0.0
H2048 H 0.64343 0.73706 0.89308 0.0
H2049 H 0.63255 0.76067 0.86772 0.0
H2050 H 0.59467 0.76918 0.92526 0.0
H2051 H 0.60567 0.74623 0.95095 0.0
H2052 H 0.58628 0.76487 0.86418 0.0
H2053 H 0.61789 0.79482 0.93232 0.0
H2054 H 0.64414 0.80054 0.95561 0.0
H2055 H 0.66833 0.81286 0.88422 0.0
H2056 H 0.64225 0.80696 0.86049 0.0
H2057 H 0.54019 0.83653 0.84171 0.0
H2058 H 0.55656 0.8146 0.86244 0.0
H2059 H 0.60098 0.83237 0.82403 0.0
H2060 H 0.5847 0.85494 0.80434 0.0
H2061 H 0.60932 0.82229 0.86928 0.0
H2062 H 0.57809 0.79786 0.80136 0.0
H2063 H 0.55305 0.79191 0.77527 0.0
H2064 H 0.53005 0.76783 0.84012 0.0
H2065 H 0.55487 0.77385 0.86674 0.0
C2066 C 0.63284 0.74405 0.90033 0.0
C2067 C 0.62538 0.73978 0.92397 0.0
C2068 C 0.62668 0.75748 0.88588 0.0
C2069 C 0.61284 0.76657 0.89474 0.0
C2070 C 0.60536 0.76227 0.9182 0.0
C2071 C 0.61169 0.74914 0.93283 0.0
C2072 C 0.60575 0.78042 0.87959 0.0
C2073 C 0.59124 0.77745 0.86524 0.0
C2074 C 0.61264 0.79662 0.88036 0.0
C2075 C 0.62822 0.80023 0.89464 0.0
C2076 C 0.62886 0.79857 0.92158 0.0
C2077 C 0.64369 0.80189 0.93486 0.0
C2078 C 0.65791 0.807 0.92139 0.0
C2079 C 0.65732 0.80886 0.89462 0.0
C2080 C 0.64252 0.80554 0.88126 0.0
C2081 C 0.55348 0.83584 0.83794 0.0
C2082 C 0.56118 0.84728 0.82129 0.0
C2083 C 0.56282 0.82325 0.84962 0.0
C2084 C 0.57992 0.82148 0.84414 0.0
C2085 C 0.58779 0.83338 0.82839 0.0
C2086 C 0.5785 0.84627 0.81718 0.0
C2087 C 0.58936 0.80695 0.8544 0.0
C2088 C 0.60437 0.80973 0.86775 0.0
C2089 C 0.58311 0.79044 0.8522 0.0
C2090 C 0.56831 0.7864 0.83609 0.0
C2091 C 0.56767 0.79135 0.81009 0.0
C2092 C 0.55351 0.78797 0.79521 0.0
C2093 C 0.53996 0.77953 0.80605 0.0
C2094 C 0.54056 0.77438 0.83176 0.0
C2095 C 0.55469 0.77774 0.84675 0.0
H2096 H 0.52899 0.77696 0.79451 0.0
H2097 H 0.66938 0.80957 0.93171 0.0
H2098 H 0.49401 0.37603 0.22116 0.0
H2099 H 0.46983 0.36414 0.1991 0.0
H2100 H 0.49272 0.37472 0.12558 0.0
H2101 H 0.51674 0.38719 0.14765 0.0
H2102 H 0.45993 0.3796 0.12266 0.0
H2103 H 0.49599 0.33601 0.15397 0.0
H2104 H 0.51211 0.3206 0.18678 0.0
H2105 H 0.46716 0.31117 0.22946 0.0
H2106 H 0.45078 0.32669 0.19706 0.0
H2107 H 0.4273 0.29662 0.06937 0.0
H2108 H 0.44675 0.31342 0.0943 0.0
H2109 H 0.40688 0.34702 0.11504 0.0
H2110 H 0.38725 0.3305 0.08931 0.0
H2111 H 0.44677 0.3209 0.14551 0.0
H2112 H 0.41667 0.37802 0.1157 0.0
H2113 H 0.40338 0.39242 0.07889 0.0
H2114 H 0.44102 0.37308 0.02808 0.0
H2115 H 0.45414 0.3581 0.06446 0.0
C2116 C 0.49378 0.37603 0.20028 0.0
C2117 C 0.50729 0.38238 0.18608 0.0
C2118 C 0.47998 0.36919 0.18771 0.0
C2119 C 0.47962 0.36823 0.1607 0.0
C2120 C 0.49275 0.3753 0.14644 0.0
C2121 C 0.50648 0.38238 0.15904 0.0
C2122 C 0.4661 0.3589 0.14746 0.0
C2123 C 0.457 0.36681 0.12784 0.0
C2124 C 0.46237 0.34212 0.15388 0.0
C2125 C 0.47219 0.33265 0.17323 0.0
C2126 C 0.48956 0.33074 0.17043 0.0
C2127 C 0.49874 0.32198 0.18894 0.0
C2128 C 0.49067 0.31497 0.21022 0.0
C2129 C 0.47339 0.31664 0.21299 0.0
C2130 C 0.46415 0.3254 0.19455 0.0
C2131 C 0.42258 0.3076 0.07913 0.0
C2132 C 0.40568 0.31227 0.07712 0.0
C2133 C 0.43376 0.3172 0.09339 0.0
C2134 C 0.42834 0.33166 0.10609 0.0
C2135 C 0.41142 0.33618 0.10476 0.0
C2136 C 0.40019 0.32662 0.09026 0.0
C2137 C 0.44053 0.34167 0.121 0.0
C2138 C 0.44949 0.33382 0.1408 0.0
C2139 C 0.44434 0.35835 0.11448 0.0
C2140 C 0.43621 0.36685 0.0926 0.0
C2141 C 0.42197 0.37674 0.09659 0.0
C2142 C 0.41445 0.38493 0.07581 0.0
C2143 C 0.42126 0.38353 0.0511 0.0
C2144 C 0.4356 0.37392 0.04712 0.0
C2145 C 0.44303 0.36551 0.06777 0.0
H2146 H 0.4155 0.38996 0.03506 0.0
H2147 H 0.4978 0.3082 0.22452 0.0
H2148 H 0.8764 0.24396 0.46258 0.0
H2149 H 0.88895 0.22083 0.43887 0.0
H2150 H 0.87614 0.24467 0.36696 0.0
H2151 H 0.86302 0.26768 0.39073 0.0
H2152 H 0.87243 0.21159 0.36317 0.0
H2153 H 0.91532 0.24897 0.3943 0.0
H2154 H 0.93081 0.26483 0.42736 0.0
H2155 H 0.94263 0.21935 0.46699 0.0
H2156 H 0.92709 0.2032 0.43438 0.0
H2157 H 0.95591 0.17782 0.30914 0.0
H2158 H 0.93957 0.19825 0.33292 0.0
H2159 H 0.90449 0.15994 0.35474 0.0
H2160 H 0.92083 0.13923 0.33083 0.0
H2161 H 0.93197 0.2002 0.38317 0.0
H2162 H 0.86528 0.17867 0.35729 0.0
H2163 H 0.8506 0.1638 0.32233 0.0
H2164 H 0.88783 0.17996 0.2682 0.0
H2165 H 0.90256 0.19509 0.30273 0.0
C2166 C 0.87605 0.24416 0.4417 0.0
C2167 C 0.86888 0.25766 0.42845 0.0
C2168 C 0.88328 0.23097 0.42819 0.0
C2169 C 0.88382 0.2312 0.40116 0.0
C2170 C 0.87592 0.24428 0.38783 0.0
C2171 C 0.86844 0.2574 0.4014 0.0
C2172 C 0.89344 0.21833 0.38694 0.0
C2173 C 0.88543 0.20907 0.36759 0.0
C2174 C 0.91047 0.21515 0.39251 0.0
C2175 C 0.91991 0.22489 0.41202 0.0
C2176 C 0.92113 0.24236 0.41015 0.0
C2177 C 0.92992 0.2514 0.42879 0.0
C2178 C 0.93763 0.24312 0.44928 0.0
C2179 C 0.93663 0.22576 0.45113 0.0
C2180 C 0.92785 0.21665 0.43257 0.0
C2181 C 0.9448 0.17362 0.31911 0.0
C2182 C 0.93976 0.15681 0.31813 0.0
C2183 C 0.93545 0.18537 0.33269 0.0
C2184 C 0.92078 0.18064 0.34547 0.0
C2185 C 0.9157 0.16387 0.34477 0.0
C2186 C 0.92509 0.15205 0.33117 0.0
C2187 C 0.91094 0.19339 0.35953 0.0
C2188 C 0.91893 0.20264 0.37888 0.0
C2189 C 0.894 0.1967 0.35368 0.0
C2190 C 0.88511 0.18784 0.33267 0.0
C2191 C 0.87029 0.17908 0.33791 0.0
C2192 C 0.86196 0.17061 0.31816 0.0
C2193 C 0.86831 0.17088 0.29307 0.0
C2194 C 0.88295 0.17969 0.28765 0.0
C2195 C 0.89131 0.1882 0.30731 0.0
H2196 H 0.86184 0.16429 0.27785 0.0
H2197 H 0.94442 0.25015 0.46368 0.0
H2198 H 0.07455 0.70407 0.56606 0.0
H2199 H 0.05603 0.68811 0.59388 0.0
H2200 H 0.09616 0.65408 0.6115 0.0
H2201 H 0.11493 0.67005 0.58352 0.0
H2202 H 0.06781 0.63741 0.6009 0.0
H2203 H 0.08331 0.68132 0.65872 0.0
H2204 H 0.08808 0.71005 0.67419 0.0
H2205 H 0.03682 0.72229 0.65895 0.0
H2206 H 0.03172 0.69358 0.64359 0.0
H2207 H 0.01054 0.62844 0.72397 0.0
H2208 H 0.03446 0.63988 0.70081 0.0
H2209 H 0.01247 0.62465 0.62857 0.0
H2210 H 0.98871 0.61265 0.65183 0.0
H2211 H 0.03465 0.66469 0.66982 0.0
H2212 H 0.0427 0.61964 0.58291 0.0
H2213 H 0.03969 0.58966 0.57318 0.0
H2214 H 0.0477 0.57773 0.65291 0.0
H2215 H 0.05098 0.60761 0.66306 0.0
C2216 C 0.07955 0.69329 0.57598 0.0
C2217 C 0.0963 0.68843 0.57264 0.0
C2218 C 0.06892 0.68419 0.59196 0.0
C2219 C 0.07476 0.67002 0.60502 0.0
C2220 C 0.09142 0.66501 0.60165 0.0
C2221 C 0.10213 0.67417 0.58567 0.0
C2222 C 0.06323 0.66028 0.62157 0.0
C2223 C 0.0606 0.64332 0.61608 0.0
C2224 C 0.05404 0.66792 0.64163 0.0
C2225 C 0.05717 0.68536 0.64987 0.0
C2226 C 0.07309 0.69018 0.65853 0.0
C2227 C 0.07581 0.70641 0.66747 0.0
C2228 C 0.06274 0.71797 0.66764 0.0
C2229 C 0.04691 0.71331 0.65889 0.0
C2230 C 0.04408 0.69705 0.65017 0.0
C2231 C 0.01093 0.6273 0.70316 0.0
C2232 C 0.99777 0.6197 0.68967 0.0
C2233 C 0.02459 0.63388 0.68995 0.0
C2234 C 0.02532 0.63312 0.66294 0.0
C2235 C 0.01235 0.62515 0.64943 0.0
C2236 C 0.99874 0.61836 0.66271 0.0
C2237 C 0.03899 0.6418 0.649 0.0
C2238 C 0.04192 0.65866 0.65483 0.0
C2239 C 0.0487 0.63392 0.62972 0.0
C2240 C 0.04693 0.61589 0.62377 0.0
C2241 C 0.04389 0.61062 0.59835 0.0
C2242 C 0.04212 0.59364 0.59276 0.0
C2243 C 0.04345 0.5818 0.61242 0.0
C2244 C 0.04661 0.58691 0.63771 0.0
C2245 C 0.0484 0.60387 0.6434 0.0
H2246 H 0.04207 0.56866 0.60806 0.0
H2247 H 0.06491 0.73056 0.67441 0.0
H2248 H 0.63536 0.24359 0.55046 0.0
H2249 H 0.62237 0.22152 0.57594 0.0
H2250 H 0.6173 0.25546 0.64012 0.0
H2251 H 0.63118 0.27738 0.61497 0.0
H2252 H 0.62354 0.2257 0.65789 0.0
H2253 H 0.5846 0.24777 0.59801 0.0
H2254 H 0.57424 0.257 0.55561 0.0
H2255 H 0.57842 0.20695 0.52671 0.0
H2256 H 0.58909 0.19747 0.56885 0.0
H2257 H 0.55422 0.18002 0.71218 0.0
H2258 H 0.57048 0.20189 0.69082 0.0
H2259 H 0.59003 0.16565 0.63731 0.0
H2260 H 0.57408 0.14359 0.65887 0.0
H2261 H 0.57569 0.19727 0.61575 0.0
H2262 H 0.6149 0.17652 0.67981 0.0
H2263 H 0.62324 0.16937 0.72421 0.0
H2264 H 0.61505 0.22008 0.74783 0.0
H2265 H 0.6064 0.22747 0.70362 0.0
C2266 C 0.63171 0.24624 0.57015 0.0
C2267 C 0.63414 0.26216 0.58075 0.0
C2268 C 0.62419 0.23367 0.58465 0.0
C2269 C 0.61841 0.23695 0.6097 0.0
C2270 C 0.62156 0.25265 0.62078 0.0
C2271 C 0.62947 0.26516 0.60643 0.0
C2272 C 0.60835 0.22426 0.62363 0.0
C2273 C 0.61297 0.21964 0.64875 0.0
C2274 C 0.59447 0.21636 0.61182 0.0
C2275 C 0.58778 0.22193 0.58654 0.0
C2276 C 0.5834 0.23874 0.58258 0.0
C2277 C 0.57747 0.24402 0.55859 0.0
C2278 C 0.5757 0.23257 0.53846 0.0
C2279 C 0.57981 0.2158 0.54232 0.0
C2280 C 0.58579 0.21047 0.56626 0.0
C2281 C 0.56196 0.1767 0.69583 0.0
C2282 C 0.56287 0.16008 0.68717 0.0
C2283 C 0.57128 0.18919 0.68376 0.0
C2284 C 0.58146 0.18531 0.66263 0.0
C2285 C 0.58224 0.16882 0.65367 0.0
C2286 C 0.57316 0.15625 0.66602 0.0
C2287 C 0.59113 0.19855 0.6496 0.0
C2288 C 0.5863 0.20335 0.62474 0.0
C2289 C 0.60446 0.20692 0.66195 0.0
C2290 C 0.60984 0.2025 0.68846 0.0
C2291 C 0.61473 0.18611 0.69451 0.0
C2292 C 0.61954 0.18202 0.71964 0.0
C2293 C 0.61963 0.19425 0.73885 0.0
C2294 C 0.61495 0.21061 0.73294 0.0
C2295 C 0.61011 0.21476 0.70785 0.0
H2296 H 0.62335 0.19106 0.7583 0.0
H2297 H 0.57112 0.23668 0.51989 0.0
H2298 H 0.00773 0.37845 0.79133 0.0
H2299 H 0.03032 0.36561 0.81597 0.0
H2300 H 0.99935 0.36602 0.88413 0.0
H2301 H 0.97707 0.37982 0.85973 0.0
H2302 H 0.02933 0.37175 0.89821 0.0
H2303 H 0.00453 0.33044 0.84476 0.0
H2304 H 0.99402 0.31797 0.80446 0.0
H2305 H 0.04347 0.319 0.77245 0.0
H2306 H 0.05425 0.33174 0.81243 0.0
H2307 H 0.07202 0.29902 0.95287 0.0
H2308 H 0.05058 0.31513 0.93017 0.0
H2309 H 0.0887 0.33976 0.88557 0.0
H2310 H 0.11034 0.32406 0.90867 0.0
H2311 H 0.05508 0.32082 0.86093 0.0
H2312 H 0.07806 0.36432 0.91834 0.0
H2313 H 0.08621 0.37433 0.96151 0.0
H2314 H 0.03652 0.36525 0.98932 0.0
H2315 H 0.02816 0.35494 0.94636 0.0
C2316 C 0.00586 0.37599 0.81166 0.0
C2317 C 0.99069 0.38003 0.82366 0.0
C2318 C 0.01872 0.36854 0.8257 0.0
C2319 C 0.0164 0.36439 0.85177 0.0
C2320 C 0.00143 0.36901 0.86402 0.0
C2321 C 0.98871 0.37689 0.8501 0.0
C2322 C 0.02937 0.35477 0.86591 0.0
C2323 C 0.03483 0.36057 0.89004 0.0
C2324 C 0.03656 0.34005 0.85549 0.0
C2325 C 0.03017 0.33219 0.83151 0.0
C2326 C 0.01315 0.3281 0.82907 0.0
C2327 C 0.00715 0.32098 0.80629 0.0
C2328 C 0.01807 0.31772 0.78589 0.0
C2329 C 0.03503 0.32154 0.78826 0.0
C2330 C 0.04109 0.32871 0.81099 0.0
C2331 C 0.07586 0.3079 0.93829 0.0
C2332 C 0.09287 0.31035 0.93262 0.0
C2333 C 0.06361 0.31709 0.92542 0.0
C2334 C 0.06815 0.32863 0.90641 0.0
C2335 C 0.08505 0.33093 0.90035 0.0
C2336 C 0.09735 0.32201 0.91359 0.0
C2337 C 0.05515 0.33812 0.8926 0.0
C2338 C 0.04959 0.33212 0.86876 0.0
C2339 C 0.04757 0.35234 0.90358 0.0
C2340 C 0.05256 0.35868 0.92926 0.0
C2341 C 0.06893 0.36429 0.93373 0.0
C2342 C 0.07358 0.37006 0.95814 0.0
C2343 C 0.06191 0.37038 0.97817 0.0
C2344 C 0.04555 0.36498 0.9738 0.0
C2345 C 0.04086 0.35918 0.94943 0.0
H2346 H 0.06552 0.37485 0.99705 0.0
H2347 H 0.01339 0.31221 0.76826 0.0
H2348 H 0.87945 0.75108 0.03842 0.0
H2349 H 0.89357 0.77398 0.06021 0.0
H2350 H 0.87494 0.75645 0.13341 0.0
H2351 H 0.86096 0.73312 0.1116 0.0
H2352 H 0.88398 0.79954 0.0884 0.0
H2353 H 0.90521 0.7633 0.17883 0.0
H2354 H 0.91132 0.73433 0.19197 0.0
H2355 H 0.92385 0.7218 0.11386 0.0
H2356 H 0.918 0.75071 0.10031 0.0
H2357 H 0.91997 0.85562 0.17962 0.0
H2358 H 0.90336 0.83495 0.15638 0.0
H2359 H 0.94806 0.80688 0.13959 0.0
H2360 H 0.96466 0.82727 0.16345 0.0
H2361 H 0.92547 0.7867 0.15656 0.0
H2362 H 0.92639 0.8299 0.09272 0.0
H2363 H 0.92263 0.85832 0.07544 0.0
H2364 H 0.8703 0.85625 0.09326 0.0
H2365 H 0.87379 0.82788 0.11096 0.0
C2366 C 0.87826 0.75211 0.05916 0.0
C2367 C 0.86922 0.74021 0.07335 0.0
C2368 C 0.88628 0.76528 0.07156 0.0
C2369 C 0.88544 0.76686 0.09844 0.0
C2370 C 0.87592 0.75534 0.11266 0.0
C2371 C 0.8679 0.74207 0.1002 0.0
C2372 C 0.8952 0.78017 0.11139 0.0
C2373 C 0.89298 0.79677 0.10343 0.0
C2374 C 0.90722 0.77649 0.13055 0.0
C2375 C 0.91098 0.75912 0.13854 0.0
C2376 C 0.90931 0.75436 0.16448 0.0
C2377 C 0.91272 0.73795 0.17199 0.0
C2378 C 0.91789 0.72621 0.15373 0.0
C2379 C 0.91975 0.73088 0.12795 0.0
C2380 C 0.91638 0.74727 0.12034 0.0
C2381 C 0.9263 0.8452 0.17058 0.0
C2382 C 0.94363 0.84303 0.17346 0.0
C2383 C 0.91678 0.83338 0.15729 0.0
C2384 C 0.92444 0.81934 0.14619 0.0
C2385 C 0.94184 0.81752 0.14818 0.0
C2386 C 0.95133 0.82922 0.16174 0.0
C2387 C 0.91431 0.80614 0.13355 0.0
C2388 C 0.9164 0.78954 0.14166 0.0
C2389 C 0.90253 0.80977 0.11398 0.0
C2390 C 0.90039 0.82684 0.1034 0.0
C2391 C 0.91411 0.83556 0.09314 0.0
C2392 C 0.91202 0.85165 0.08324 0.0
C2393 C 0.89624 0.8591 0.08332 0.0
C2394 C 0.88252 0.85047 0.09325 0.0
C2395 C 0.88454 0.83438 0.1032 0.0
H2396 H 0.89465 0.87156 0.07563 0.0
H2397 H 0.92051 0.71351 0.15957 0.0
H2398 H 0.42836 0.69293 0.46331 0.0
H2399 H 0.45033 0.67561 0.44468 0.0
H2400 H 0.41643 0.65953 0.3849 0.0
H2401 H 0.39412 0.67618 0.40442 0.0
H2402 H 0.43424 0.63451 0.39781 0.0
H2403 H 0.44742 0.69087 0.3758 0.0
H2404 H 0.45292 0.72076 0.38332 0.0
H2405 H 0.49504 0.70831 0.4308 0.0
H2406 H 0.48965 0.67832 0.42384 0.0
H2407 H 0.49546 0.61752 0.30046 0.0
H2408 H 0.47305 0.62905 0.32711 0.0
H2409 H 0.50546 0.62796 0.39347 0.0
H2410 H 0.52792 0.61597 0.36691 0.0
H2411 H 0.48937 0.6603 0.37985 0.0
H2412 H 0.47606 0.60259 0.39588 0.0
H2413 H 0.47008 0.57357 0.38305 0.0
H2414 H 0.4274 0.59004 0.33988 0.0
H2415 H 0.43327 0.6192 0.35215 0.0
C2416 C 0.42559 0.68568 0.44621 0.0
C2417 C 0.40958 0.68602 0.43515 0.0
C2418 C 0.43819 0.67582 0.4355 0.0
C2419 C 0.43521 0.66653 0.41299 0.0
C2420 C 0.41909 0.6666 0.40222 0.0
C2421 C 0.40635 0.67616 0.41332 0.0
C2422 C 0.44895 0.65701 0.40047 0.0
C2423 C 0.44623 0.64023 0.39372 0.0
C2424 C 0.46473 0.66433 0.39532 0.0
C2425 C 0.46802 0.68235 0.39953 0.0
C2426 C 0.45778 0.69451 0.38801 0.0
C2427 C 0.46089 0.71146 0.39214 0.0
C2428 C 0.47429 0.71643 0.40759 0.0
C2429 C 0.48464 0.70444 0.41888 0.0
C2430 C 0.48157 0.68746 0.41483 0.0
C2431 C 0.49771 0.61947 0.32084 0.0
C2432 C 0.51337 0.61585 0.33169 0.0
C2433 C 0.48491 0.62601 0.33601 0.0
C2434 C 0.48763 0.62929 0.36221 0.0
C2435 C 0.50315 0.62541 0.37327 0.0
C2436 C 0.5159 0.61852 0.35816 0.0
C2437 C 0.47459 0.63796 0.37731 0.0
C2438 C 0.47743 0.65459 0.38434 0.0
C2439 C 0.45882 0.63065 0.38201 0.0
C2440 C 0.45519 0.61311 0.37479 0.0
C2441 C 0.46548 0.60005 0.38348 0.0
C2442 C 0.46209 0.58357 0.37635 0.0
C2443 C 0.44839 0.57997 0.36062 0.0
C2444 C 0.43802 0.59285 0.35206 0.0
C2445 C 0.44135 0.60935 0.35913 0.0
H2446 H 0.4458 0.5672 0.35511 0.0
H2447 H 0.47668 0.72956 0.41077 0.0
H2448 H 0.41053 0.14878 0.19597 0.0
H2449 H 0.39465 0.17098 0.17493 0.0
H2450 H 0.44016 0.19013 0.14141 0.0
H2451 H 0.45615 0.16856 0.16379 0.0
H2452 H 0.42326 0.21488 0.15515 0.0
H2453 H 0.4095 0.16589 0.10686 0.0
H2454 H 0.3997 0.13709 0.09962 0.0
H2455 H 0.35163 0.14985 0.13055 0.0
H2456 H 0.3612 0.1787 0.13827 0.0
H2457 H 0.3824 0.25093 0.04242 0.0
H2458 H 0.39433 0.22825 0.06788 0.0
H2459 H 0.36482 0.24328 0.13336 0.0
H2460 H 0.35302 0.26641 0.10816 0.0
H2461 H 0.37218 0.20208 0.10465 0.0
H2462 H 0.39136 0.25203 0.15752 0.0
H2463 H 0.40257 0.28075 0.1567 0.0
H2464 H 0.44249 0.26483 0.10718 0.0
H2465 H 0.43137 0.23606 0.10753 0.0
C2466 C 0.4171 0.15772 0.18404 0.0
C2467 C 0.43454 0.15695 0.18139 0.0
C2468 C 0.40802 0.17037 0.17191 0.0
C2469 C 0.41613 0.18212 0.15615 0.0
C2470 C 0.43358 0.18129 0.15349 0.0
C2471 C 0.44271 0.16892 0.16619 0.0
C2472 C 0.4065 0.19535 0.14257 0.0
C2473 C 0.41209 0.21196 0.1442 0.0
C2474 C 0.39192 0.19173 0.12803 0.0
C2475 C 0.38613 0.1744 0.1234 0.0
C2476 C 0.39688 0.16252 0.11229 0.0
C2477 C 0.39136 0.1462 0.10807 0.0
C2478 C 0.37507 0.14163 0.11469 0.0
C2479 C 0.36425 0.1534 0.12548 0.0
C2480 C 0.36971 0.16974 0.12976 0.0
C2481 C 0.37835 0.2494 0.06219 0.0
C2482 C 0.36688 0.26054 0.07339 0.0
C2483 C 0.38515 0.23641 0.07664 0.0
C2484 C 0.38049 0.23424 0.10241 0.0
C2485 C 0.36858 0.2449 0.11347 0.0
C2486 C 0.36188 0.25805 0.09908 0.0
C2487 C 0.38882 0.22129 0.11791 0.0
C2488 C 0.38314 0.20482 0.11622 0.0
C2489 C 0.40349 0.22491 0.13184 0.0
C2490 C 0.41051 0.24199 0.13247 0.0
C2491 C 0.4025 0.2547 0.14642 0.0
C2492 C 0.40883 0.27096 0.14604 0.0
C2493 C 0.42323 0.27462 0.13188 0.0
C2494 C 0.43135 0.26199 0.11815 0.0
C2495 C 0.42505 0.24571 0.11846 0.0
H2496 H 0.4281 0.28721 0.13159 0.0
H2497 H 0.37082 0.12899 0.1114 0.0
H2498 H 0.49828 0.63433 0.77552 0.0
H2499 H 0.52267 0.64413 0.79942 0.0
H2500 H 0.50923 0.61242 0.86336 0.0
H2501 H 0.48461 0.60282 0.83973 0.0
H2502 H 0.51512 0.64246 0.87979 0.0
H2503 H 0.54404 0.60422 0.82627 0.0
H2504 H 0.55235 0.59046 0.78575 0.0
H2505 H 0.57285 0.63656 0.75789 0.0
H2506 H 0.56445 0.65068 0.79811 0.0
H2507 H 0.60637 0.66357 0.91969 0.0
H2508 H 0.58734 0.64564 0.89492 0.0
H2509 H 0.55288 0.68668 0.88708 0.0
H2510 H 0.57156 0.70452 0.91167 0.0
H2511 H 0.573 0.64698 0.84624 0.0
H2512 H 0.51384 0.67292 0.89775 0.0
H2513 H 0.5059 0.68422 0.94025 0.0
H2514 H 0.54666 0.65789 0.97546 0.0
H2515 H 0.55472 0.64632 0.93334 0.0
C2516 C 0.50062 0.6293 0.79455 0.0
C2517 C 0.48948 0.61788 0.80582 0.0
C2518 C 0.51465 0.63483 0.80813 0.0
C2519 C 0.51788 0.62891 0.83313 0.0
C2520 C 0.507 0.61714 0.8441 0.0
C2521 C 0.49294 0.61166 0.83057 0.0
C2522 C 0.53172 0.63612 0.8486 0.0
C2523 C 0.52779 0.64332 0.87247 0.0
C2524 C 0.54835 0.63697 0.83936 0.0
C2525 C 0.5535 0.62854 0.81516 0.0
C2526 C 0.55021 0.61146 0.81143 0.0
C2527 C 0.55496 0.60359 0.78853 0.0
C2528 C 0.5631 0.61264 0.76924 0.0
C2529 C 0.56654 0.62957 0.77284 0.0
C2530 C 0.56181 0.63751 0.79571 0.0
C2531 C 0.59483 0.66881 0.91241 0.0
C2532 C 0.59041 0.68543 0.918 0.0
C2533 C 0.58399 0.65856 0.89827 0.0
C2534 C 0.56857 0.66476 0.88961 0.0
C2535 C 0.56457 0.68155 0.89402 0.0
C2536 C 0.57531 0.69174 0.9081 0.0
C2537 C 0.55618 0.65373 0.87688 0.0
C2538 C 0.56036 0.64589 0.85357 0.0
C2539 C 0.53981 0.65196 0.88684 0.0
C2540 C 0.53498 0.65888 0.91232 0.0
C2541 C 0.52108 0.66951 0.91459 0.0
C2542 C 0.51656 0.67598 0.93863 0.0
C2543 C 0.5258 0.67184 0.96057 0.0
C2544 C 0.53955 0.66118 0.9585 0.0
C2545 C 0.54412 0.65469 0.93453 0.0
H2546 H 0.52228 0.67685 0.97916 0.0
H2547 H 0.56676 0.60652 0.75151 0.0
H2548 H 0.0874 0.85043 0.69519 0.0
H2549 H 0.10414 0.82878 0.67423 0.0
H2550 H 0.06303 0.81805 0.62286 0.0
H2551 H 0.04594 0.83877 0.64528 0.0
H2552 H 0.07396 0.79091 0.6374 0.0
H2553 H 0.10203 0.8396 0.60524 0.0
H2554 H 0.11688 0.86652 0.60783 0.0
H2555 H 0.15588 0.84357 0.65222 0.0
H2556 H 0.14116 0.81655 0.65014 0.0
H2557 H 0.11711 0.7488 0.53807 0.0
H2558 H 0.10511 0.77195 0.56226 0.0
H2559 H 0.13726 0.76073 0.62661 0.0
H2560 H 0.14911 0.737 0.60268 0.0
H2561 H 0.13268 0.7977 0.60881 0.0
H2562 H 0.10364 0.74696 0.63191 0.0
H2563 H 0.08846 0.72118 0.62118 0.0
H2564 H 0.04901 0.74992 0.5871 0.0
H2565 H 0.06455 0.77586 0.59578 0.0
C2566 C 0.0821 0.84357 0.67916 0.0
C2567 C 0.06548 0.84624 0.67167 0.0
C2568 C 0.09168 0.83124 0.66709 0.0
C2569 C 0.08499 0.82181 0.64666 0.0
C2570 C 0.06851 0.82501 0.63865 0.0
C2571 C 0.05877 0.83692 0.65129 0.0
C2572 C 0.09469 0.80802 0.63447 0.0
C2573 C 0.08673 0.79255 0.6309 0.0
C2574 C 0.11154 0.80988 0.62648 0.0
C2575 C 0.1204 0.8261 0.62777 0.0
C2576 C 0.11371 0.84033 0.61571 0.0
C2577 C 0.12212 0.8556 0.61706 0.0
C2578 C 0.13729 0.85677 0.63025 0.0
C2579 C 0.14411 0.84265 0.64205 0.0
C2580 C 0.13575 0.82736 0.64078 0.0
C2581 C 0.12173 0.75124 0.55732 0.0
C2582 C 0.13392 0.74095 0.56862 0.0
C2583 C 0.11488 0.76452 0.57105 0.0
C2584 C 0.12027 0.76794 0.59617 0.0
C2585 C 0.13299 0.75822 0.60718 0.0
C2586 C 0.13966 0.74467 0.59357 0.0
C2587 C 0.11172 0.78101 0.61128 0.0
C2588 C 0.11993 0.79621 0.61549 0.0
C2589 C 0.09491 0.7791 0.61907 0.0
C2590 C 0.08542 0.76342 0.61425 0.0
C2591 C 0.0919 0.74782 0.62168 0.0
C2592 C 0.08321 0.73315 0.61595 0.0
C2593 C 0.06771 0.73392 0.60368 0.0
C2594 C 0.061 0.74935 0.59666 0.0
C2595 C 0.06982 0.76404 0.60179 0.0
H2596 H 0.06085 0.72258 0.59971 0.0
H2597 H 0.14378 0.8686 0.63126 0.0
H2598 H 0.89279 0.33385 0.42443 0.0
H2599 H 0.91218 0.35066 0.39873 0.0
H2600 H 0.94032 0.30637 0.38003 0.0
H2601 H 0.92115 0.28959 0.40571 0.0
H2602 H 0.96064 0.33033 0.39593 0.0
H2603 H 0.9151 0.32568 0.33554 0.0
H2604 H 0.88591 0.32838 0.32097 0.0
H2605 H 0.88778 0.38127 0.33396 0.0
H2606 H 0.91694 0.37885 0.34893 0.0
H2607 H 0.99574 0.36758 0.2727 0.0
H2608 H 0.97187 0.3557 0.29569 0.0
H2609 H 0.98691 0.38147 0.3649 0.0
H2610 H 0.01091 0.39329 0.3421 0.0
H2611 H 0.94467 0.36784 0.32389 0.0
H2612 H 0.98413 0.35397 0.4134 0.0
H2613 H 0.01397 0.35108 0.42467 0.0
H2614 H 0.02442 0.33228 0.34888 0.0
H2615 H 0.9947 0.33496 0.33723 0.0
C2616 C 0.90296 0.32767 0.41452 0.0
C2617 C 0.90552 0.3104 0.41731 0.0
C2618 C 0.91405 0.3373 0.39987 0.0
C2619 C 0.92774 0.32978 0.38753 0.0
C2620 C 0.92995 0.31247 0.3896 0.0
C2621 C 0.91896 0.30288 0.40428 0.0
C2622 C 0.9402 0.33989 0.37319 0.0
C2623 C 0.95709 0.33856 0.38025 0.0
C2624 C 0.93564 0.35059 0.35263 0.0
C2625 C 0.91814 0.35206 0.3436 0.0
C2626 C 0.90924 0.33787 0.33548 0.0
C2627 C 0.89271 0.33935 0.32712 0.0
C2628 C 0.88498 0.35498 0.32661 0.0
C2629 C 0.89378 0.36917 0.3344 0.0
C2630 C 0.91031 0.36775 0.34281 0.0
C2631 C 0.99383 0.37092 0.29271 0.0
C2632 C 0.0053 0.38119 0.30571 0.0
C2633 C 0.98013 0.3642 0.30576 0.0
C2634 C 0.97774 0.36759 0.33202 0.0
C2635 C 0.98864 0.37861 0.34466 0.0
C2636 C 0.00233 0.38535 0.33162 0.0
C2637 C 0.96495 0.35824 0.34673 0.0
C2638 C 0.94809 0.35971 0.33976 0.0
C2639 C 0.96952 0.34743 0.36709 0.0
C2640 C 0.98724 0.34484 0.3744 0.0
C2641 C 0.9928 0.34913 0.39921 0.0
C2642 C 0.0097 0.3476 0.40561 0.0
C2643 C 0.02113 0.34171 0.38738 0.0
C2644 C 0.01563 0.33707 0.36285 0.0
C2645 C 0.99875 0.33856 0.35636 0.0
H2646 H 0.03421 0.34059 0.39232 0.0
H2647 H 0.87218 0.3561 0.32012 0.0
H2648 H 0.42833 0.86251 0.34287 0.0
H2649 H 0.41271 0.84092 0.36636 0.0
H2650 H 0.4344 0.803 0.31788 0.0
H2651 H 0.45022 0.82426 0.29472 0.0
H2652 H 0.39664 0.80375 0.3239 0.0
H2653 H 0.44938 0.80037 0.37338 0.0
H2654 H 0.4721 0.81251 0.39957 0.0
H2655 H 0.43605 0.834 0.45108 0.0
H2656 H 0.41314 0.82164 0.42551 0.0
H2657 H 0.37477 0.72663 0.38128 0.0
H2658 H 0.38789 0.75051 0.35997 0.0
H2659 H 0.38081 0.78009 0.42874 0.0
H2660 H 0.36865 0.75594 0.45045 0.0
H2661 H 0.4097 0.78572 0.4131 0.0
H2662 H 0.35719 0.78524 0.37012 0.0
H2663 H 0.33345 0.77366 0.3457 0.0
H2664 H 0.36597 0.76245 0.28219 0.0
H2665 H 0.38996 0.77376 0.30637 0.0
C2666 C 0.42983 0.84957 0.33733 0.0
C2667 C 0.4405 0.84511 0.31692 0.0
C2668 C 0.42094 0.83728 0.35077 0.0
C2669 C 0.42241 0.82044 0.3437 0.0
C2670 C 0.4331 0.81596 0.32351 0.0
C2671 C 0.44217 0.82814 0.31039 0.0
C2672 C 0.41251 0.80741 0.35685 0.0
C2673 C 0.39948 0.79966 0.34335 0.0
C2674 C 0.41593 0.80259 0.38243 0.0
C2675 C 0.42961 0.81026 0.39745 0.0
C2676 C 0.44633 0.80778 0.3902 0.0
C2677 C 0.45922 0.81464 0.40497 0.0
C2678 C 0.45552 0.82416 0.42681 0.0
C2679 C 0.4389 0.82668 0.4341 0.0
C2680 C 0.42597 0.81968 0.41958 0.0
C2681 C 0.37591 0.73829 0.39169 0.0
C2682 C 0.37072 0.73949 0.41745 0.0
C2683 C 0.38331 0.75198 0.37948 0.0
C2684 C 0.38516 0.76726 0.39257 0.0
C2685 C 0.3796 0.76848 0.41819 0.0
C2686 C 0.3726 0.75469 0.43057 0.0
C2687 C 0.39368 0.78169 0.38015 0.0
C2688 C 0.40654 0.78978 0.39376 0.0
C2689 C 0.38981 0.78705 0.3548 0.0
C2690 C 0.37541 0.78021 0.34017 0.0
C2691 C 0.35931 0.78019 0.35103 0.0
C2692 C 0.3458 0.77369 0.33721 0.0
C2693 C 0.34821 0.76729 0.31244 0.0
C2694 C 0.36413 0.7674 0.3014 0.0
C2695 C 0.37768 0.77387 0.31514 0.0
H2696 H 0.33773 0.76227 0.30177 0.0
H2697 H 0.46552 0.82951 0.43815 0.0
H2698 H 0.00162 0.63748 0.20859 0.0
H2699 H 0.97756 0.64759 0.1844 0.0
H2700 H 0.98922 0.61357 0.12247 0.0
H2701 H 0.01364 0.60364 0.14644 0.0
H2702 H 0.98264 0.6429 0.10347 0.0
H2703 H 0.95521 0.60697 0.16199 0.0
H2704 H 0.94808 0.59443 0.20396 0.0
H2705 H 0.92913 0.64155 0.23039 0.0
H2706 H 0.93637 0.65445 0.1887 0.0
H2707 H 0.88883 0.66485 0.07546 0.0
H2708 H 0.90941 0.64725 0.09751 0.0
H2709 H 0.9455 0.68711 0.09325 0.0
H2710 H 0.92531 0.70454 0.07088 0.0
H2711 H 0.9262 0.6496 0.14171 0.0
H2712 H 0.98298 0.6731 0.08209 0.0
H2713 H 0.98912 0.68232 0.0377 0.0
H2714 H 0.94773 0.6536 0.0094 0.0
H2715 H 0.94127 0.64432 0.05359 0.0
C2716 C 0.99902 0.63205 0.1899 0.0
C2717 C 0.00955 0.61977 0.17941 0.0
C2718 C 0.98517 0.63777 0.17614 0.0
C2719 C 0.98142 0.6312 0.15172 0.0
C2720 C 0.99183 0.6188 0.1413 0.0
C2721 C 0.00576 0.6131 0.15504 0.0
C2722 C 0.96717 0.638 0.13662 0.0
C2723 C 0.97029 0.64425 0.11182 0.0
C2724 C 0.95089 0.63939 0.14713 0.0
C2725 C 0.94645 0.6317 0.17225 0.0
C2726 C 0.94963 0.61469 0.17681 0.0
C2727 C 0.94555 0.60752 0.20054 0.0
C2728 C 0.93818 0.6172 0.21984 0.0
C2729 C 0.93485 0.63407 0.21542 0.0
C2730 C 0.93892 0.64132 0.19172 0.0
C2731 C 0.90114 0.66988 0.07929 0.0
C2732 C 0.90543 0.68608 0.07118 0.0
C2733 C 0.91288 0.6598 0.09191 0.0
C2734 C 0.9291 0.66574 0.09659 0.0
C2735 C 0.9332 0.68209 0.08929 0.0
C2736 C 0.92157 0.6921 0.0766 0.0
C2737 C 0.9419 0.655 0.10906 0.0
C2738 C 0.93852 0.64805 0.13333 0.0
C2739 C 0.9578 0.6525 0.09777 0.0
C2740 C 0.96159 0.65811 0.07116 0.0
C2741 C 0.9752 0.66875 0.06638 0.0
C2742 C 0.9787 0.67404 0.04126 0.0
C2743 C 0.96876 0.66863 0.02075 0.0
C2744 C 0.95531 0.65792 0.02531 0.0
C2745 C 0.9517 0.65269 0.0504 0.0
H2746 H 0.9715 0.67271 0.00131 0.0
H2747 H 0.93504 0.61162 0.23821 0.0
H2748 H 0.13307 0.27572 0.8846 0.0
H2749 H 0.11964 0.25339 0.85978 0.0
H2750 H 0.11923 0.22203 0.92731 0.0
H2751 H 0.13229 0.24443 0.9524 0.0
H2752 H 0.12971 0.20643 0.87644 0.0
H2753 H 0.08623 0.23983 0.91764 0.0
H2754 H 0.073 0.26695 0.92707 0.0
H2755 H 0.06481 0.27503 0.84624 0.0
H2756 H 0.07832 0.2481 0.83629 0.0
H2757 H 0.07242 0.14393 0.83837 0.0
H2758 H 0.08805 0.16524 0.86208 0.0
H2759 H 0.07189 0.20255 0.80747 0.0
H2760 H 0.0556 0.18152 0.78464 0.0
H2761 H 0.07061 0.21569 0.85139 0.0
H2762 H 0.11267 0.18443 0.80778 0.0
H2763 H 0.12841 0.1595 0.79412 0.0
H2764 H 0.14159 0.14939 0.8728 0.0
H2765 H 0.12573 0.17413 0.887 0.0
C2766 C 0.13032 0.26399 0.89404 0.0
C2767 C 0.13365 0.26178 0.92041 0.0
C2768 C 0.12265 0.25128 0.87988 0.0
C2769 C 0.11846 0.23614 0.8918 0.0
C2770 C 0.12244 0.23364 0.91782 0.0
C2771 C 0.12982 0.24644 0.93211 0.0
C2772 C 0.10888 0.22333 0.87765 0.0
C2773 C 0.11673 0.20829 0.87115 0.0
C2774 C 0.09216 0.22614 0.87012 0.0
C2775 C 0.08343 0.24201 0.8762 0.0
C2776 C 0.0817 0.24744 0.90186 0.0
C2777 C 0.07415 0.26278 0.9073 0.0
C2778 C 0.0681 0.27273 0.88726 0.0
C2779 C 0.06952 0.26732 0.86174 0.0
C2780 C 0.07712 0.25201 0.85619 0.0
C2781 C 0.07222 0.15669 0.83148 0.0
C2782 C 0.06282 0.16105 0.80964 0.0
C2783 C 0.08123 0.16886 0.84494 0.0
C2784 C 0.08143 0.18551 0.83634 0.0
C2785 C 0.07195 0.18984 0.81458 0.0
C2786 C 0.06266 0.17778 0.80149 0.0
C2787 C 0.09137 0.19848 0.85004 0.0
C2788 C 0.08358 0.21366 0.85653 0.0
C2789 C 0.10833 0.19596 0.85694 0.0
C2790 C 0.11786 0.18105 0.84848 0.0
C2791 C 0.11881 0.17682 0.8222 0.0
C2792 C 0.12777 0.16273 0.81435 0.0
C2793 C 0.13595 0.15284 0.83259 0.0
C2794 C 0.13522 0.15704 0.8587 0.0
C2795 C 0.12626 0.1711 0.86666 0.0
H2796 H 0.14289 0.14195 0.82647 0.0
H2797 H 0.06229 0.28461 0.89149 0.0
H2798 H 0.57269 0.29371 0.56254 0.0
H2799 H 0.55145 0.31023 0.58416 0.0
H2800 H 0.58838 0.34734 0.60371 0.0
H2801 H 0.60982 0.331 0.58136 0.0
H2802 H 0.54787 0.3185 0.63182 0.0
H2803 H 0.56927 0.38575 0.60742 0.0
H2804 H 0.58444 0.40058 0.57293 0.0
H2805 H 0.56958 0.36314 0.51833 0.0
H2806 H 0.55413 0.34823 0.55239 0.0
H2807 H 0.50378 0.37246 0.71213 0.0
H2808 H 0.52701 0.36044 0.68799 0.0
H2809 H 0.50333 0.37459 0.61655 0.0
H2810 H 0.4802 0.38715 0.64076 0.0
H2811 H 0.53668 0.37817 0.613 0.0
H2812 H 0.4988 0.33524 0.64005 0.0
H2813 H 0.48177 0.31929 0.67111 0.0
H2814 H 0.52591 0.30622 0.71347 0.0
H2815 H 0.54321 0.32222 0.68283 0.0
C2816 C 0.57638 0.30539 0.57137 0.0
C2817 C 0.59302 0.31102 0.57016 0.0
C2818 C 0.56417 0.31483 0.58378 0.0
C2819 C 0.56826 0.33009 0.59542 0.0
C2820 C 0.58487 0.33573 0.5945 0.0
C2821 C 0.59713 0.32633 0.58184 0.0
C2822 C 0.55508 0.33976 0.60895 0.0
C2823 C 0.54548 0.33156 0.6277 0.0
C2824 C 0.55172 0.35673 0.6033 0.0
C2825 C 0.5607 0.36578 0.58255 0.0
C2826 C 0.56918 0.38072 0.58803 0.0
C2827 C 0.57784 0.38914 0.56856 0.0
C2828 C 0.57803 0.38277 0.54348 0.0
C2829 C 0.56948 0.36802 0.53779 0.0
C2830 C 0.56079 0.35958 0.55717 0.0
C2831 C 0.50361 0.3732 0.69128 0.0
C2832 C 0.49012 0.38058 0.67829 0.0
C2833 C 0.51688 0.3663 0.67751 0.0
C2834 C 0.51675 0.36632 0.65046 0.0
C2835 C 0.50367 0.3744 0.63742 0.0
C2836 C 0.49045 0.38152 0.65125 0.0
C2837 C 0.52965 0.3569 0.63596 0.0
C2838 C 0.53917 0.36514 0.61711 0.0
C2839 C 0.53266 0.33979 0.64094 0.0
C2840 C 0.52228 0.33005 0.65927 0.0
C2841 C 0.50486 0.32905 0.65608 0.0
C2842 C 0.49516 0.32 0.67359 0.0
C2843 C 0.50274 0.31181 0.69428 0.0
C2844 C 0.52006 0.3126 0.69745 0.0
C2845 C 0.52982 0.32163 0.68 0.0
H2846 H 0.49521 0.30482 0.70782 0.0
H2847 H 0.58477 0.38928 0.52844 0.0
H2848 H 0.05632 0.43079 0.22626 0.0
H2849 H 0.06285 0.46028 0.22018 0.0
H2850 H 0.08294 0.46262 0.29721 0.0
H2851 H 0.07693 0.43275 0.30308 0.0
H2852 H 0.0467 0.4828 0.25636 0.0
H2853 H 0.1069 0.48268 0.29498 0.0
H2854 H 0.13461 0.46911 0.29492 0.0
H2855 H 0.13478 0.4691 0.21213 0.0
H2856 H 0.10697 0.48249 0.21181 0.0
H2857 H 0.05011 0.56892 0.2666 0.0
H2858 H 0.0561 0.53992 0.2775 0.0
H2859 H 0.08563 0.53497 0.20834 0.0
H2860 H 0.08019 0.56439 0.19786 0.0
H2861 H 0.09869 0.51595 0.24682 0.0
H2862 H 0.04463 0.52387 0.20825 0.0
H2863 H 0.01668 0.53643 0.20345 0.0
H2864 H 0.0033 0.51953 0.27924 0.0
H2865 H 0.03127 0.50706 0.28461 0.0
C2866 C 0.06259 0.43747 0.24163 0.0
C2867 C 0.06604 0.42958 0.26519 0.0
C2868 C 0.06636 0.45428 0.2381 0.0
C2869 C 0.07348 0.46361 0.25815 0.0
C2870 C 0.07781 0.45556 0.28127 0.0
C2871 C 0.07429 0.43855 0.28467 0.0
C2872 C 0.07356 0.48203 0.25605 0.0
C2873 C 0.05807 0.4901 0.25471 0.0
C2874 C 0.08834 0.49144 0.25322 0.0
C2875 C 0.10489 0.48338 0.25339 0.0
C2876 C 0.11283 0.47966 0.27681 0.0
C2877 C 0.12854 0.47202 0.27684 0.0
C2878 C 0.13643 0.4682 0.25353 0.0
C2879 C 0.12863 0.47201 0.23015 0.0
C2880 C 0.1129 0.4796 0.23004 0.0
C2881 C 0.05809 0.56173 0.2539 0.0
C2882 C 0.06446 0.56878 0.23116 0.0
C2883 C 0.06152 0.54516 0.26016 0.0
C2884 C 0.07099 0.53515 0.24344 0.0
C2885 C 0.07824 0.54245 0.22149 0.0
C2886 C 0.07507 0.55921 0.21545 0.0
C2887 C 0.07175 0.51682 0.24757 0.0
C2888 C 0.08731 0.50874 0.24899 0.0
C2889 C 0.05694 0.50728 0.25016 0.0
C2890 C 0.04009 0.51469 0.24693 0.0
C2891 C 0.03576 0.52294 0.22395 0.0
C2892 C 0.01992 0.53003 0.22112 0.0
C2893 C 0.00824 0.52882 0.24105 0.0
C2894 C 0.01237 0.52048 0.26383 0.0
C2895 C 0.02821 0.51339 0.26678 0.0
H2896 H 0.99597 0.53431 0.23882 0.0
H2897 H 0.1486 0.46232 0.25359 0.0
H2898 H 0.82185 0.83672 0.53115 0.0
H2899 H 0.79306 0.84513 0.52058 0.0
H2900 H 0.77974 0.7934 0.5099 0.0
H2901 H 0.80814 0.78506 0.51996 0.0
H2902 H 0.7698 0.81195 0.46984 0.0
H2903 H 0.76865 0.8157 0.56408 0.0
H2904 H 0.77763 0.82728 0.60591 0.0
H2905 H 0.76359 0.87644 0.58108 0.0
H2906 H 0.75471 0.86515 0.53897 0.0
H2907 H 0.68791 0.79111 0.49916 0.0
H2908 H 0.71704 0.79845 0.50669 0.0
H2909 H 0.70862 0.84721 0.47416 0.0
H2910 H 0.67922 0.83984 0.46601 0.0
H2911 H 0.73011 0.83952 0.52968 0.0
H2912 H 0.72738 0.83385 0.43659 0.0
H2913 H 0.71747 0.82052 0.39655 0.0
H2914 H 0.73866 0.77384 0.42064 0.0
H2915 H 0.74847 0.78684 0.46101 0.0
C2916 C 0.81269 0.8272 0.52678 0.0
C2917 C 0.81726 0.81025 0.5262 0.0
C2918 C 0.79629 0.832 0.52073 0.0
C2919 C 0.7843 0.81989 0.51424 0.0
C2920 C 0.78882 0.80298 0.51451 0.0
C2921 C 0.80508 0.79822 0.52036 0.0
C2922 C 0.76705 0.82434 0.50649 0.0
C2923 C 0.76119 0.81819 0.48282 0.0
C2924 C 0.75589 0.83289 0.52303 0.0
C2925 C 0.76125 0.83962 0.54829 0.0
C2926 C 0.76763 0.829 0.56747 0.0
C2927 C 0.77266 0.8355 0.59124 0.0
C2928 C 0.77124 0.8526 0.59611 0.0
C2929 C 0.76473 0.86321 0.57726 0.0
C2930 C 0.75969 0.85677 0.55344 0.0
C2931 C 0.69214 0.80346 0.49378 0.0
C2932 C 0.68129 0.81487 0.48184 0.0
C2933 C 0.70878 0.80764 0.49818 0.0
C2934 C 0.71488 0.82334 0.49099 0.0
C2935 C 0.70404 0.83505 0.47989 0.0
C2936 C 0.68733 0.83079 0.47516 0.0
C2937 C 0.73294 0.82658 0.49358 0.0
C2938 C 0.73892 0.834 0.51626 0.0
C2939 C 0.74428 0.81915 0.47621 0.0
C2940 C 0.73853 0.8113 0.45189 0.0
C2941 C 0.72979 0.82071 0.43344 0.0
C2942 C 0.72422 0.81322 0.41067 0.0
C2943 C 0.7274 0.79634 0.40607 0.0
C2944 C 0.7362 0.78691 0.42422 0.0
C2945 C 0.74178 0.79434 0.44704 0.0
H2946 H 0.72308 0.79056 0.38843 0.0
H2947 H 0.77514 0.85761 0.61453 0.0
H2948 H 0.41363 0.43121 0.70185 0.0
H2949 H 0.40614 0.46074 0.70795 0.0
H2950 H 0.44704 0.46642 0.76132 0.0
H2951 H 0.45468 0.4373 0.75514 0.0
H2952 H 0.39924 0.48271 0.75183 0.0
H2953 H 0.46916 0.49924 0.74181 0.0
H2954 H 0.49448 0.48795 0.72103 0.0
H2955 H 0.46431 0.46422 0.66323 0.0
H2956 H 0.43885 0.47557 0.68343 0.0
H2957 H 0.42121 0.5641 0.79856 0.0
H2958 H 0.41492 0.53487 0.78813 0.0
H2959 H 0.42866 0.54389 0.70883 0.0
H2960 H 0.43582 0.57264 0.71964 0.0
H2961 H 0.44565 0.51991 0.72513 0.0
H2962 H 0.38767 0.53257 0.72871 0.0
H2963 H 0.36151 0.54377 0.74683 0.0
H2964 H 0.3655 0.5103 0.81114 0.0
H2965 H 0.39183 0.49905 0.79361 0.0
C2966 C 0.42083 0.43874 0.71516 0.0
C2967 C 0.43492 0.43206 0.72765 0.0
C2968 C 0.41648 0.45553 0.71874 0.0
C2969 C 0.42617 0.46574 0.73486 0.0
C2970 C 0.43952 0.45876 0.7486 0.0
C2971 C 0.44392 0.44213 0.74492 0.0
C2972 C 0.42384 0.48406 0.73528 0.0
C2973 C 0.40927 0.49095 0.74587 0.0
C2974 C 0.43681 0.49471 0.7269 0.0
C2975 C 0.4521 0.48816 0.71426 0.0
C2976 C 0.46794 0.49169 0.72458 0.0
C2977 C 0.48231 0.48527 0.71292 0.0
C2978 C 0.481 0.47534 0.69087 0.0
C2979 C 0.46531 0.47187 0.68036 0.0
C2980 C 0.4509 0.47828 0.69192 0.0
C2981 C 0.42245 0.55985 0.77883 0.0
C2982 C 0.42916 0.57042 0.75992 0.0
C2983 C 0.41878 0.5432 0.77281 0.0
C2984 C 0.42136 0.53711 0.74766 0.0
C2985 C 0.42672 0.5482 0.72841 0.0
C2986 C 0.4308 0.56462 0.73456 0.0
C2987 C 0.42106 0.5189 0.74216 0.0
C2988 C 0.43535 0.5119 0.73074 0.0
C2989 C 0.40764 0.50832 0.74927 0.0
C2990 C 0.39181 0.51505 0.75992 0.0
C2991 C 0.38305 0.52769 0.74682 0.0
C2992 C 0.36817 0.53403 0.75697 0.0
C2993 C 0.36187 0.52777 0.78015 0.0
C2994 C 0.37041 0.51514 0.7932 0.0
C2995 C 0.3853 0.50876 0.78314 0.0
H2996 H 0.35034 0.5327 0.78797 0.0
H2997 H 0.49214 0.47036 0.68189 0.0
H2998 H 0.81898 0.1605 0.97188 0.0
H2999 H 0.79041 0.15315 0.98542 0.0
H3000 H 0.78069 0.20496 0.00262 0.0
H3001 H 0.80895 0.21215 0.99013 0.0
H3002 H 0.76987 0.1867 0.04028 0.0
H3003 H 0.76673 0.18368 0.94578 0.0
H3004 H 0.77437 0.1719 0.90343 0.0
H3005 H 0.75899 0.12323 0.92868 0.0
H3006 H 0.75143 0.13472 0.97127 0.0
H3007 H 0.68868 0.21231 0.01938 0.0
H3008 H 0.71796 0.20474 0.01451 0.0
H3009 H 0.70577 0.15297 0.02712 0.0
H3010 H 0.67611 0.16054 0.03244 0.0
H3011 H 0.72803 0.16148 0.98152 0.0
H3012 H 0.72467 0.16774 0.07288 0.0
H3013 H 0.71594 0.18128 0.11339 0.0
H3014 H 0.74314 0.22546 0.09264 0.0
H3015 H 0.75182 0.21229 0.05183 0.0
C3016 C 0.81066 0.17025 0.97853 0.0
C3017 C 0.81621 0.18688 0.98009 0.0
C3018 C 0.79436 0.16606 0.98622 0.0
C3019 C 0.78337 0.1785 0.99512 0.0
C3020 C 0.78894 0.19508 0.99618 0.0
C3021 C 0.80514 0.1992 0.98891 0.0
C3022 C 0.766 0.17478 0.00351 0.0
C3023 C 0.76076 0.18109 0.02745 0.0
C3024 C 0.75417 0.16685 0.98731 0.0
C3025 C 0.75873 0.16 0.96176 0.0
C3026 C 0.7651 0.17045 0.94234 0.0
C3027 C 0.76939 0.16383 0.9183 0.0
C3028 C 0.76723 0.14681 0.9134 0.0
C3029 C 0.76071 0.13639 0.93251 0.0
C3030 C 0.75642 0.14295 0.9566 0.0
C3031 C 0.69216 0.1993 0.02121 0.0
C3032 C 0.6801 0.18702 0.02635 0.0
C3033 C 0.70891 0.19501 0.01845 0.0
C3034 C 0.71399 0.17833 0.02055 0.0
C3035 C 0.70203 0.16592 0.02547 0.0
C3036 C 0.68517 0.17027 0.02862 0.0
C3037 C 0.73193 0.17434 0.01745 0.0
C3038 C 0.73726 0.16655 0.99467 0.0
C3039 C 0.74388 0.18109 0.03454 0.0
C3040 C 0.73887 0.18902 0.05925 0.0
C3041 C 0.72871 0.18037 0.07688 0.0
C3042 C 0.72378 0.18798 0.09991 0.0
C3043 C 0.72898 0.20422 0.10558 0.0
C3044 C 0.73914 0.21287 0.08824 0.0
C3045 C 0.7441 0.20533 0.06518 0.0
H3046 H 0.72514 0.21009 0.12341 0.0
H3047 H 0.77055 0.14171 0.89477 0.0
H3048 H 0.92549 0.4375 0.80768 0.0
H3049 H 0.91946 0.46664 0.79631 0.0
H3050 H 0.93761 0.45762 0.71913 0.0
H3051 H 0.94455 0.42899 0.73104 0.0
H3052 H 0.953 0.48205 0.7368 0.0
H3053 H 0.89536 0.4681 0.73384 0.0
H3054 H 0.86863 0.45637 0.74891 0.0
H3055 H 0.86865 0.49014 0.81317 0.0
H3056 H 0.89551 0.50193 0.7987 0.0
H3057 H 0.92083 0.56986 0.70853 0.0
H3058 H 0.91332 0.54031 0.71439 0.0
H3059 H 0.95142 0.53556 0.77268 0.0
H3060 H 0.95909 0.56471 0.76677 0.0
H3061 H 0.90464 0.5183 0.7578 0.0
H3062 H 0.97525 0.50335 0.7555 0.0
H3063 H 0.00115 0.51509 0.73719 0.0
H3064 H 0.97303 0.53777 0.67605 0.0
H3065 H 0.94701 0.52595 0.69377 0.0
C3066 C 0.92782 0.44175 0.78819 0.0
C3067 C 0.93564 0.43123 0.77027 0.0
C3068 C 0.92428 0.45834 0.78161 0.0
C3069 C 0.92811 0.4644 0.75682 0.0
C3070 C 0.9347 0.45334 0.73843 0.0
C3071 C 0.93865 0.437 0.74521 0.0
C3072 C 0.92767 0.48257 0.75106 0.0
C3073 C 0.94228 0.48983 0.74115 0.0
C3074 C 0.9137 0.49287 0.75647 0.0
C3075 C 0.89754 0.48582 0.76527 0.0
C3076 C 0.88974 0.47294 0.7513 0.0
C3077 C 0.87455 0.4663 0.75972 0.0
C3078 C 0.86696 0.47248 0.78201 0.0
C3079 C 0.87454 0.48536 0.79591 0.0
C3080 C 0.88975 0.49204 0.78759 0.0
C3081 C 0.92737 0.56254 0.72289 0.0
C3082 C 0.94075 0.56946 0.73685 0.0
C3083 C 0.92301 0.54574 0.72632 0.0
C3084 C 0.93196 0.53578 0.74376 0.0
C3085 C 0.94448 0.54304 0.75896 0.0
C3086 C 0.9489 0.55967 0.75543 0.0
C3087 C 0.92998 0.51743 0.74406 0.0
C3088 C 0.9151 0.51026 0.75308 0.0
C3089 C 0.94352 0.50703 0.73722 0.0
C3090 C 0.95918 0.51387 0.72609 0.0
C3091 C 0.97461 0.51076 0.73807 0.0
C3092 C 0.98931 0.51744 0.72781 0.0
C3093 C 0.98873 0.5272 0.70551 0.0
C3094 C 0.97346 0.53025 0.69337 0.0
C3095 C 0.95873 0.52357 0.70352 0.0
H3096 H 1.00012 0.53239 0.69763 0.0
H3097 H 0.8552 0.46732 0.78849 0.0
H3098 H 0.32308 0.15765 0.52172 0.0
H3099 H 0.29417 0.14905 0.51173 0.0
H3100 H 0.27956 0.20075 0.50721 0.0
H3101 H 0.30819 0.20934 0.51622 0.0
H3102 H 0.25878 0.1747 0.54053 0.0
H3103 H 0.28444 0.18844 0.45508 0.0
H3104 H 0.30597 0.18291 0.4221 0.0
H3105 H 0.29103 0.13148 0.41891 0.0
H3106 H 0.26957 0.1367 0.45217 0.0
H3107 H 0.19362 0.21079 0.47973 0.0
H3108 H 0.2216 0.20112 0.4899 0.0
H3109 H 0.20847 0.15132 0.46581 0.0
H3110 H 0.17999 0.16098 0.45551 0.0
H3111 H 0.24241 0.16427 0.44961 0.0
H3112 H 0.21021 0.15366 0.52411 0.0
H3113 H 0.1886 0.15925 0.55684 0.0
H3114 H 0.21568 0.20241 0.5825 0.0
H3115 H 0.2373 0.19728 0.5496 0.0
C3116 C 0.31362 0.16711 0.5187 0.0
C3117 C 0.31781 0.18415 0.51963 0.0
C3118 C 0.29721 0.1622 0.51298 0.0
C3119 C 0.28485 0.17431 0.50877 0.0
C3120 C 0.28898 0.19126 0.51042 0.0
C3121 C 0.30533 0.19614 0.51548 0.0
C3122 C 0.26752 0.1698 0.50207 0.0
C3123 C 0.25513 0.17211 0.5208 0.0
C3124 C 0.2629 0.16592 0.47648 0.0
C3125 C 0.27558 0.1629 0.45628 0.0
C3126 C 0.28586 0.17593 0.44749 0.0
C3127 C 0.29802 0.17286 0.42873 0.0
C3128 C 0.29991 0.15685 0.41848 0.0
C3129 C 0.28959 0.14388 0.4269 0.0
C3130 C 0.27743 0.14688 0.4457 0.0
C3131 C 0.19662 0.19779 0.47632 0.0
C3132 C 0.18453 0.18661 0.46704 0.0
C3133 C 0.21265 0.19229 0.48216 0.0
C3134 C 0.21699 0.17548 0.47893 0.0
C3135 C 0.20528 0.16434 0.46851 0.0
C3136 C 0.18907 0.16987 0.46267 0.0
C3137 C 0.23363 0.16995 0.48791 0.0
C3138 C 0.24592 0.16596 0.46964 0.0
C3139 C 0.23818 0.17204 0.51408 0.0
C3140 C 0.22539 0.17508 0.53431 0.0
C3141 C 0.21152 0.1644 0.53664 0.0
C3142 C 0.19926 0.16748 0.55523 0.0
C3143 C 0.20077 0.18117 0.57174 0.0
C3144 C 0.21455 0.19179 0.56972 0.0
C3145 C 0.22683 0.18878 0.55112 0.0
H3146 H 0.19126 0.18355 0.58611 0.0
H3147 H 0.30933 0.15449 0.40397 0.0
H3148 H 0.58763 0.57457 0.25173 0.0
H3149 H 0.59601 0.54601 0.23943 0.0
H3150 H 0.55729 0.52598 0.28824 0.0
H3151 H 0.54844 0.55433 0.29948 0.0
H3152 H 0.59266 0.50989 0.28951 0.0
H3153 H 0.54547 0.52786 0.23479 0.0
H3154 H 0.53258 0.54726 0.20372 0.0
H3155 H 0.57333 0.53947 0.15126 0.0
H3156 H 0.58661 0.52022 0.1823 0.0
H3157 H 0.55129 0.43614 0.26409 0.0
H3158 H 0.56109 0.46456 0.27119 0.0
H3159 H 0.5922 0.46119 0.20352 0.0
H3160 H 0.58261 0.4323 0.19656 0.0
H3161 H 0.5705 0.48991 0.20563 0.0
H3162 H 0.61237 0.46461 0.25544 0.0
H3163 H 0.62497 0.445 0.2864 0.0
H3164 H 0.5957 0.46619 0.34753 0.0
H3165 H 0.58269 0.48577 0.31687 0.0
C3166 C 0.58115 0.564 0.26006 0.0
C3167 C 0.56744 0.56646 0.2765 0.0
C3168 C 0.58591 0.54779 0.25306 0.0
C3169 C 0.57728 0.53399 0.26307 0.0
C3170 C 0.56413 0.53651 0.28049 0.0
C3171 C 0.55907 0.55264 0.2868 0.0
C3172 C 0.58074 0.51687 0.25398 0.0
C3173 C 0.588 0.50547 0.2711 0.0
C3174 C 0.57512 0.51134 0.22961 0.0
C3175 C 0.56716 0.52285 0.21099 0.0
C3176 C 0.55178 0.53045 0.21676 0.0
C3177 C 0.54438 0.54138 0.19914 0.0
C3178 C 0.55217 0.54466 0.17558 0.0
C3179 C 0.56735 0.53697 0.16956 0.0
C3180 C 0.57482 0.52606 0.18716 0.0
C3181 C 0.56036 0.44135 0.25086 0.0
C3182 C 0.56616 0.43207 0.22974 0.0
C3183 C 0.56603 0.45756 0.25502 0.0
C3184 C 0.57746 0.46491 0.23799 0.0
C3185 C 0.58346 0.45565 0.21696 0.0
C3186 C 0.57802 0.43921 0.21305 0.0
C3187 C 0.58185 0.4827 0.24162 0.0
C3188 C 0.57589 0.4943 0.22358 0.0
C3189 C 0.58878 0.4884 0.26511 0.0
C3190 C 0.59649 0.47665 0.28378 0.0
C3191 C 0.60851 0.46502 0.27545 0.0
C3192 C 0.61575 0.45391 0.29296 0.0
C3193 C 0.61113 0.45434 0.31891 0.0
C3194 C 0.59927 0.46589 0.32741 0.0
C3195 C 0.59198 0.47702 0.30997 0.0
H3196 H 0.61676 0.44573 0.33244 0.0
H3197 H 0.54641 0.55311 0.16194 0.0
H3198 H 0.19036 0.82055 0.05444 0.0
H3199 H 0.21918 0.82737 0.04284 0.0
H3200 H 0.20624 0.82406 0.9621 0.0
H3201 H 0.17784 0.81587 0.97396 0.0
H3202 H 0.23161 0.8078 0.96708 0.0
H3203 H 0.21913 0.86236 0.99548 0.0
H3204 H 0.20846 0.88475 0.02361 0.0
H3205 H 0.24341 0.87077 0.08253 0.0
H3206 H 0.25414 0.84813 0.05492 0.0
H3207 H 0.31785 0.82826 0.93981 0.0
H3208 H 0.28827 0.83603 0.94529 0.0
H3209 H 0.28784 0.81234 0.01989 0.0
H3210 H 0.31699 0.80399 0.01407 0.0
H3211 H 0.26953 0.84735 0.01165 0.0
H3212 H 0.27537 0.78832 0.9823 0.0
H3213 H 0.28629 0.76774 0.95119 0.0
H3214 H 0.2631 0.79448 0.88902 0.0
H3215 H 0.25225 0.81535 0.91981 0.0
C3216 C 0.19369 0.82163 0.03426 0.0
C3217 C 0.18206 0.81768 0.01504 0.0
C3218 C 0.21013 0.82567 0.02757 0.0
C3219 C 0.21501 0.82643 0.00149 0.0
C3220 C 0.20294 0.82346 0.98233 0.0
C3221 C 0.1867 0.81886 0.98906 0.0
C3222 C 0.23297 0.82823 0.99428 0.0
C3223 C 0.23968 0.81683 0.97643 0.0
C3224 C 0.24379 0.83988 0.00637 0.0
C3225 C 0.23737 0.85346 0.02315 0.0
C3226 C 0.22446 0.86397 0.01451 0.0
C3227 C 0.21841 0.87673 0.03036 0.0
C3228 C 0.22523 0.87916 0.05486 0.0
C3229 C 0.23814 0.86887 0.06355 0.0
C3230 C 0.24423 0.85609 0.04778 0.0
C3231 C 0.31146 0.82499 0.9575 0.0
C3232 C 0.31953 0.81541 0.97643 0.0
C3233 C 0.29466 0.82947 0.96064 0.0
C3234 C 0.286 0.82482 0.98306 0.0
C3235 C 0.29439 0.81615 0.00259 0.0
C3236 C 0.31096 0.81127 -0.00086 0.0
C3237 C 0.26772 0.82688 0.98502 0.0
C3238 C 0.2611 0.83882 0.00194 0.0
C3239 C 0.25685 0.8161 0.97163 0.0
C3240 C 0.2632 0.80347 0.95326 0.0
C3241 C 0.27274 0.78987 0.96197 0.0
C3242 C 0.27888 0.77815 0.94441 0.0
C3243 C 0.27544 0.77983 0.91813 0.0
C3244 C 0.26579 0.79321 0.90937 0.0
C3245 C 0.25964 0.80499 0.92686 0.0
H3246 H 0.2802 0.77074 0.90456 0.0
H3247 H 0.22053 0.88905 0.0671 0.0
H3248 H 0.58943 0.93445 0.79259 0.0
H3249 H 0.60084 0.96149 0.77828 0.0
H3250 H 0.55556 0.97098 0.73571 0.0
H3251 H 0.54412 0.94449 0.74998 0.0
H3252 H 0.58527 0.97709 0.70728 0.0
H3253 H 0.56017 0.98801 0.79253 0.0
H3254 H 0.55861 0.98426 0.83967 0.0
H3255 H 0.6097 -0.00014 0.84705 0.0
H3256 H 0.61159 0.0035 0.79986 0.0
H3257 H 0.54773 0.05383 0.69919 0.0
H3258 H 0.55852 0.02585 0.70733 0.0
H3259 H 0.60582 0.04668 0.7308 0.0
H3260 H 0.59511 0.07495 0.72177 0.0
H3261 H 0.58899 0.02476 0.76801 0.0
H3262 H 0.60937 0.0232 0.68323 0.0
H3263 H 0.60969 0.02783 0.63627 0.0
H3264 H 0.56765 0.99507 0.62739 0.0
H3265 H 0.56687 0.99044 0.67433 0.0
C3266 C 0.58195 0.94237 0.78024 0.0
C3267 C 0.56585 0.93739 0.7725 0.0
C3268 C 0.58849 0.95773 0.77204 0.0
C3269 C 0.57908 0.96811 0.75576 0.0
C3270 C 0.56309 0.96307 0.74805 0.0
C3271 C 0.55651 0.94796 0.75642 0.0
C3272 C 0.58517 0.98461 0.74711 0.0
C3273 C 0.58634 0.98753 0.7205 0.0
C3274 C 0.58724 0.99805 0.76445 0.0
C3275 C 0.5861 0.99577 0.79271 0.0
C3276 C 0.57111 0.99047 0.8042 0.0
C3277 C 0.57016 0.9884 0.83091 0.0
C3278 C 0.58407 0.99175 0.84634 0.0
C3279 C 0.59895 0.99722 0.83507 0.0
C3280 C 0.59998 0.99928 0.80835 0.0
C3281 C 0.56057 0.05241 0.70544 0.0
C3282 C 0.57063 0.06644 0.7098 0.0
C3283 C 0.56674 0.03645 0.71002 0.0
C3284 C 0.58298 0.03423 0.71955 0.0
C3285 C 0.5933 0.04819 0.72325 0.0
C3286 C 0.58722 0.06425 0.71799 0.0
C3287 C 0.588 0.01736 0.72811 0.0
C3288 C 0.58885 0.01431 0.75471 0.0
C3289 C 0.58775 0.00379 0.71073 0.0
C3290 C 0.58807 0.00648 0.68239 0.0
C3291 C 0.60011 0.01706 0.6713 0.0
C3292 C 0.60039 0.01968 0.64467 0.0
C3293 C 0.5887 0.01175 0.62886 0.0
C3294 C 0.57672 0.00118 0.63966 0.0
C3295 C 0.57638 0.99853 0.66629 0.0
H3296 H 0.58894 0.01379 0.60824 0.0
H3297 H 0.5833 0.99016 0.86702 0.0
H3298 H 0.31035 0.29754 0.9972 0.0
H3299 H 0.28303 0.30833 0.98566 0.0
H3300 H 0.28991 0.34995 0.03731 0.0
H3301 H 0.31776 0.33916 0.049 0.0
H3302 H 0.25795 0.33303 0.04147 0.0
H3303 H 0.29017 0.35999 0.97826 0.0
H3304 H 0.31245 0.36323 0.94588 0.0
H3305 H 0.28937 0.32587 0.89844 0.0
H3306 H 0.26709 0.32218 0.93072 0.0
H3307 H 0.17641 0.34226 0.98084 0.0
H3308 H 0.20445 0.35275 0.99202 0.0
H3309 H 0.22629 0.30764 0.9616 0.0
H3310 H 0.1985 0.29698 0.95134 0.0
H3311 H 0.2437 0.33936 0.94885 0.0
H3312 H 0.21869 0.30708 0.02085 0.0
H3313 H 0.19658 0.30312 0.0534 0.0
H3314 H 0.20638 0.35195 0.08399 0.0
H3315 H 0.22841 0.35626 0.05131 0.0
C3316 C 0.30616 0.30902 0.00615 0.0
C3317 C 0.31622 0.31751 0.02402 0.0
C3318 C 0.29054 0.31522 -0.0006 0.0
C3319 C 0.28456 0.33004 0.01037 0.0
C3320 C 0.29441 0.33855 0.02851 0.0
C3321 C 0.31026 0.33239 0.03512 0.0
C3322 C 0.26769 0.33589 0.00299 0.0
C3323 C 0.25485 0.33507 0.02135 0.0
C3324 C 0.26366 0.33857 0.97675 0.0
C3325 C 0.27692 0.34082 0.95698 0.0
C3326 C 0.28987 0.3524 0.96099 0.0
C3327 C 0.30251 0.35432 0.94264 0.0
C3328 C 0.30232 0.34477 0.92011 0.0
C3329 C 0.28948 0.33329 0.91588 0.0
C3330 C 0.27681 0.3313 0.93419 0.0
C3331 C 0.18728 0.33481 0.97609 0.0
C3332 C 0.18542 0.31883 0.9653 0.0
C3333 C 0.20321 0.34078 0.9825 0.0
C3334 C 0.21737 0.33096 0.97754 0.0
C3335 C 0.2155 0.31544 0.9654 0.0
C3336 C 0.19966 0.30933 0.95965 0.0
C3337 C 0.2341 0.33564 0.98713 0.0
C3338 C 0.24686 0.33828 0.96911 0.0
C3339 C 0.23805 0.33479 0.01367 0.0
C3340 C 0.22501 0.33208 0.03348 0.0
C3341 C 0.21603 0.31701 0.03439 0.0
C3342 C 0.20353 0.3147 0.05288 0.0
C3343 C 0.20003 0.3273 0.0707 0.0
C3344 C 0.20907 0.34222 0.07013 0.0
C3345 C 0.22156 0.34461 0.05164 0.0
H3346 H 0.19034 0.32549 0.08499 0.0
H3347 H 0.31213 0.34626 0.90594 0.0
H3348 H 0.94596 0.06286 0.23731 0.0
H3349 H 0.93697 0.03401 0.23086 0.0
H3350 H 0.91071 0.03524 0.3034 0.0
H3351 H 0.91921 0.06456 0.30951 0.0
H3352 H 0.93803 0.0093 0.29441 0.0
H3353 H 0.88681 0.02958 0.26012 0.0
H3354 H 0.86889 0.04746 0.23312 0.0
H3355 H 0.89157 0.02741 0.16481 0.0
H3356 H 0.90982 0.00958 0.19141 0.0
H3357 H 0.92983 0.92365 0.27049 0.0
H3358 H 0.92051 0.95174 0.2825 0.0
H3359 H 0.92961 0.96854 0.20464 0.0
H3360 H 0.93791 0.94015 0.1924 0.0
H3361 H 0.90456 0.98521 0.22302 0.0
H3362 H 0.95969 0.97146 0.25481 0.0
H3363 H 0.98026 0.95488 0.27926 0.0
H3364 H 0.9532 0.96417 0.34928 0.0
H3365 H 0.93236 0.98065 0.32515 0.0
C3366 C 0.93799 0.05708 0.25163 0.0
C3367 C 0.93332 0.06581 0.27395 0.0
C3368 C 0.93279 0.04067 0.24786 0.0
C3369 C 0.92313 0.03259 0.26659 0.0
C3370 C 0.91804 0.04139 0.28865 0.0
C3371 C 0.92288 0.05805 0.2921 0.0
C3372 C 0.92038 0.01443 0.26419 0.0
C3373 C 0.93031 0.00392 0.27935 0.0
C3374 C 0.91074 0.00763 0.24395 0.0
C3375 C 0.89977 0.0183 0.22781 0.0
C3376 C 0.88809 0.02908 0.23935 0.0
C3377 C 0.87785 0.03919 0.22411 0.0
C3378 C 0.87911 0.03859 0.19727 0.0
C3379 C 0.8906 0.02786 0.18561 0.0
C3380 C 0.90089 0.01773 0.20077 0.0
C3381 C 0.92941 0.93332 0.2559 0.0
C3382 C 0.93458 0.92996 0.23063 0.0
C3383 C 0.92419 0.94935 0.26275 0.0
C3384 C 0.92477 0.96239 0.24466 0.0
C3385 C 0.92908 0.95873 0.21898 0.0
C3386 C 0.93387 0.94257 0.21198 0.0
C3387 C 0.92257 0.98004 0.25285 0.0
C3388 C 0.91186 0.99046 0.23865 0.0
C3389 C 0.93182 0.9869 0.27362 0.0
C3390 C 0.94438 0.97709 0.28816 0.0
C3391 C 0.95809 0.96987 0.2754 0.0
C3392 C 0.96979 0.96051 0.28919 0.0
C3393 C 0.96801 0.95842 0.31579 0.0
C3394 C 0.95454 0.96576 0.32867 0.0
C3395 C 0.94278 0.97511 0.31495 0.0
H3396 H 0.97708 0.95117 0.32644 0.0
H3397 H 0.87117 0.04643 0.18551 0.0
H3398 H 0.3035 0.70826 0.4594 0.0
H3399 H 0.27632 0.69764 0.47231 0.0
H3400 H 0.29453 0.64715 0.46669 0.0
H3401 H 0.32221 0.65777 0.45383 0.0
H3402 H 0.25608 0.65995 0.44694 0.0
H3403 H 0.29303 0.65009 0.51807 0.0
H3404 H 0.31741 0.65692 0.5451 0.0
H3405 H 0.2944 0.70311 0.56745 0.0
H3406 H 0.27006 0.69676 0.53997 0.0
H3407 H 0.17918 0.65849 0.52266 0.0
H3408 H 0.20734 0.6484 0.51145 0.0
H3409 H 0.22592 0.69887 0.51506 0.0
H3410 H 0.19799 0.70898 0.52548 0.0
H3411 H 0.24712 0.67352 0.53931 0.0
H3412 H 0.21512 0.68572 0.45968 0.0
H3413 H 0.19119 0.68048 0.43081 0.0
H3414 H 0.20506 0.62884 0.42517 0.0
H3415 H 0.22895 0.63377 0.45432 0.0
C3416 C 0.30173 0.69487 0.46041 0.0
C3417 C 0.31505 0.68385 0.45591 0.0
C3418 C 0.28615 0.68883 0.4677 0.0
C3419 C 0.28353 0.67166 0.47061 0.0
C3420 C 0.29639 0.66046 0.46447 0.0
C3421 C 0.31214 0.66654 0.45716 0.0
C3422 C 0.26786 0.6662 0.48298 0.0
C3423 C 0.25416 0.66218 0.46736 0.0
C3424 C 0.26542 0.66927 0.50956 0.0
C3425 C 0.27975 0.67297 0.52683 0.0
C3426 C 0.29322 0.66176 0.52861 0.0
C3427 C 0.30703 0.66554 0.54401 0.0
C3428 C 0.30746 0.68044 0.55798 0.0
C3429 C 0.29405 0.69157 0.55661 0.0
C3430 C 0.28023 0.68788 0.54112 0.0
C3431 C 0.18937 0.66734 0.52139 0.0
C3432 C 0.18646 0.68451 0.52477 0.0
C3433 C 0.20539 0.66158 0.51501 0.0
C3434 C 0.21866 0.67291 0.51254 0.0
C3435 C 0.21585 0.68993 0.51706 0.0
C3436 C 0.19988 0.6957 0.52284 0.0
C3437 C 0.23529 0.66768 0.50314 0.0
C3438 C 0.24911 0.67012 0.5193 0.0
C3439 C 0.23783 0.6629 0.47718 0.0
C3440 C 0.22366 0.66006 0.45938 0.0
C3441 C 0.21299 0.67323 0.45242 0.0
C3442 C 0.19945 0.67033 0.43599 0.0
C3443 C 0.19657 0.65433 0.42623 0.0
C3444 C 0.20727 0.64122 0.4328 0.0
C3445 C 0.22081 0.64406 0.44926 0.0
H3446 H 0.18608 0.6521 0.41353 0.0
H3447 H 0.31818 0.68335 0.56989 0.0
H3448 H 0.40166 0.07441 0.22914 0.0
H3449 H 0.39098 0.0468 0.24205 0.0
H3450 H 0.43608 0.02393 0.21335 0.0
H3451 H 0.44689 0.0513 0.20126 0.0
H3452 H 0.40548 0.00548 0.20281 0.0
H3453 H 0.43613 0.03477 0.27279 0.0
H3454 H 0.439 0.05862 0.30258 0.0
H3455 H 0.38983 0.04926 0.33233 0.0
H3456 H 0.38661 0.02548 0.3024 0.0
H3457 H 0.4534 0.94776 0.26107 0.0
H3458 H 0.44062 0.97439 0.25077 0.0
H3459 H 0.39503 0.95912 0.28815 0.0
H3460 H 0.40781 0.9319 0.29849 0.0
H3461 H 0.41153 0.99606 0.29693 0.0
H3462 H 0.38674 0.95959 0.23544 0.0
H3463 H 0.38633 0.93552 0.20583 0.0
H3464 H 0.42461 0.95827 0.15977 0.0
H3465 H 0.42549 0.98233 0.18937 0.0
C3466 C 0.40903 0.06339 0.22503 0.0
C3467 C 0.42508 0.06486 0.21431 0.0
C3468 C 0.40295 0.0477 0.23243 0.0
C3469 C 0.41275 0.03338 0.22859 0.0
C3470 C 0.42828 0.03482 0.21629 0.0
C3471 C 0.43448 0.05044 0.2095 0.0
C3472 C 0.40824 0.01709 0.23997 0.0
C3473 C 0.40634 0.00339 0.22343 0.0
C3474 C 0.40897 0.01447 0.26692 0.0
C3475 C 0.41106 0.02851 0.28521 0.0
C3476 C 0.42591 0.03787 0.28559 0.0
C3477 C 0.4276 0.05137 0.30249 0.0
C3478 C 0.41459 0.05549 0.31928 0.0
C3479 C 0.39988 0.04608 0.31927 0.0
C3480 C 0.39812 0.0326 0.30234 0.0
C3481 C 0.4407 0.95 0.26738 0.0
C3482 C 0.43157 0.93765 0.28045 0.0
C3483 C 0.43343 0.96526 0.26147 0.0
C3484 C 0.41689 0.96861 0.26853 0.0
C3485 C 0.40783 0.95668 0.28254 0.0
C3486 C 0.41512 0.94119 0.28838 0.0
C3487 C 0.40942 0.98443 0.25964 0.0
C3488 C 0.40942 0.9981 0.27651 0.0
C3489 C 0.40685 0.98703 0.23297 0.0
C3490 C 0.40618 0.97278 0.21468 0.0
C3491 C 0.39513 0.95942 0.21908 0.0
C3492 C 0.39482 0.94578 0.20229 0.0
C3493 C 0.40544 0.94536 0.18093 0.0
C3494 C 0.41637 0.95862 0.1763 0.0
C3495 C 0.41676 0.97228 0.19306 0.0
H3496 H 0.40519 0.93478 0.16798 0.0
H3497 H 0.41591 0.06595 0.33234 0.0
H3498 H 0.80273 0.71194 0.03371 0.0
H3499 H 0.77383 0.70364 0.0267 0.0
H3500 H 0.78853 0.65188 0.02533 0.0
H3501 H 0.81781 0.66017 0.03296 0.0
H3502 H 0.76696 0.66448 0.98163 0.0
H3503 H 0.76743 0.65982 0.07279 0.0
H3504 H 0.77422 0.66806 0.11735 0.0
H3505 H 0.74557 0.71298 0.10843 0.0
H3506 H 0.7388 0.70514 0.06367 0.0
H3507 H 0.67638 0.66204 0.96517 0.0
H3508 H 0.70454 0.65392 0.97954 0.0
H3509 H 0.71282 0.70391 0.00768 0.0
H3510 H 0.685 0.71194 0.9939 0.0
H3511 H 0.72238 0.68146 0.04264 0.0
H3512 H 0.72878 0.68949 0.94935 0.0
H3513 H 0.72295 0.68267 0.90385 0.0
H3514 H 0.73906 0.63222 0.91653 0.0
H3515 H 0.74481 0.63872 0.9622 0.0
C3516 C 0.79985 0.69877 0.03214 0.0
C3517 C 0.8125 0.68669 0.03388 0.0
C3518 C 0.78332 0.69405 0.02819 0.0
C3519 C 0.77907 0.67717 0.02558 0.0
C3520 C 0.79161 0.66497 0.02737 0.0
C3521 C 0.80825 0.66971 0.03184 0.0
C3522 C 0.76145 0.67281 0.02016 0.0
C3523 C 0.75714 0.66766 0.99519 0.0
C3524 C 0.74872 0.67712 0.03781 0.0
C3525 C 0.75264 0.68189 0.06481 0.0
C3526 C 0.76266 0.67151 0.08026 0.0
C3527 C 0.7665 0.6761 0.10557 0.0
C3528 C 0.76034 0.69104 0.11571 0.0
C3529 C 0.75032 0.7014 0.10056 0.0
C3530 C 0.74645 0.69687 0.07523 0.0
C3531 C 0.68427 0.67126 0.97439 0.0
C3532 C 0.67846 0.68762 0.97844 0.0
C3533 C 0.70033 0.66661 0.98257 0.0
C3534 C 0.71078 0.6783 0.99477 0.0
C3535 C 0.70495 0.69462 0.99857 0.0
C3536 C 0.68902 0.69922 0.99054 0.0
C3537 C 0.7279 0.67405 0.00364 0.0
C3538 C 0.7321 0.67762 0.02934 0.0
C3539 C 0.7405 0.66839 0.98659 0.0
C3540 C 0.73699 0.66452 0.95922 0.0
C3541 C 0.73093 0.67691 0.94247 0.0
C3542 C 0.72767 0.67311 0.91665 0.0
C3543 C 0.73057 0.657 0.90733 0.0
C3544 C 0.73678 0.64467 0.92379 0.0
C3545 C 0.74004 0.64841 0.94963 0.0
H3546 H 0.72804 0.65408 0.88733 0.0
H3547 H 0.76333 0.69458 0.13531 0.0
H3548 H 0.09364 0.0742 0.77579 0.0
H3549 H 0.10324 0.04529 0.76876 0.0
H3550 H 0.05272 0.02771 0.7786 0.0
H3551 H 0.04313 0.05627 0.78494 0.0
H3552 H 0.07791 0.00768 0.80378 0.0
H3553 H 0.06558 0.03563 0.72043 0.0
H3554 H 0.07144 0.05753 0.68825 0.0
H3555 H 0.12239 0.04109 0.68309 0.0
H3556 H 0.11685 0.01923 0.71553 0.0
H3557 H 0.04206 0.944 0.73841 0.0
H3558 H 0.05205 0.97102 0.75285 0.0
H3559 H 0.10127 0.95978 0.72391 0.0
H3560 H 0.09127 0.93228 0.70919 0.0
H3561 H 0.08953 0.99307 0.71252 0.0
H3562 H 0.0983 0.95896 0.78501 0.0
H3563 H 0.09207 0.93683 0.81655 0.0
H3564 H 0.04951 0.9644 0.84339 0.0
H3565 H 0.05527 0.98657 0.81169 0.0
C3566 C 0.08471 0.06408 0.77688 0.0
C3567 C 0.06765 0.06739 0.78075 0.0
C3568 C 0.09019 0.04764 0.77285 0.0
C3569 C 0.07867 0.03441 0.7732 0.0
C3570 C 0.06181 0.03773 0.7784 0.0
C3571 C 0.05633 0.05405 0.78187 0.0
C3572 C 0.08338 0.01718 0.76594 0.0
C3573 C 0.08072 0.00442 0.78395 0.0
C3574 C 0.08766 0.013 0.74028 0.0
C3575 C 0.09087 0.02596 0.72058 0.0
C3576 C 0.07806 0.03677 0.71255 0.0
C3577 C 0.08131 0.04916 0.69426 0.0
C3578 C 0.09729 0.05074 0.68369 0.0
C3579 C 0.11003 0.03989 0.69133 0.0
C3580 C 0.10684 0.0275 0.70966 0.0
C3581 C 0.05502 0.9472 0.73495 0.0
C3582 C 0.0659 0.93594 0.72278 0.0
C3583 C 0.06072 0.96266 0.74334 0.0
C3584 C 0.07746 0.96727 0.73988 0.0
C3585 C 0.08833 0.95636 0.72694 0.0
C3586 C 0.0826 0.94071 0.71855 0.0
C3587 C 0.08309 0.98359 0.75009 0.0
C3588 C 0.08758 0.99619 0.73265 0.0
C3589 C 0.08068 0.98761 0.7764 0.0
C3590 C 0.07724 0.97446 0.79591 0.0
C3591 C 0.08756 0.96029 0.79755 0.0
C3592 C 0.08411 0.94772 0.81546 0.0
C3593 C 0.07041 0.94921 0.83197 0.0
C3594 C 0.06014 0.96328 0.83062 0.0
C3595 C 0.06351 0.97587 0.8127 0.0
H3596 H 0.06775 0.93946 0.84581 0.0
H3597 H 0.0998 0.06035 0.66955 0.0
H3598 H 0.69691 0.29223 0.53627 0.0
H3599 H 0.72534 0.30189 0.52915 0.0
H3600 H 0.70733 0.35199 0.5169 0.0
H3601 H 0.67845 0.34233 0.52464 0.0
H3602 H 0.73073 0.33701 0.47691 0.0
H3603 H 0.72828 0.35006 0.56583 0.0
H3604 H 0.7209 0.34585 0.6115 0.0
H3605 H 0.75153 0.3019 0.61408 0.0
H3606 H 0.7589 0.30568 0.56833 0.0
H3607 H 0.8212 0.33803 0.46119 0.0
H3608 H 0.79336 0.34803 0.47412 0.0
H3609 H 0.78433 0.30135 0.51315 0.0
H3610 H 0.81183 0.29148 0.50071 0.0
H3611 H 0.77476 0.32727 0.54247 0.0
H3612 H 0.76912 0.30987 0.45181 0.0
H3613 H 0.77553 0.31227 0.40543 0.0
H3614 H 0.7597 0.36347 0.40616 0.0
H3615 H 0.75337 0.36139 0.45263 0.0
C3616 C 0.69895 0.30534 0.53225 0.0
C3617 C 0.68549 0.31654 0.53096 0.0
C3618 C 0.71521 0.31085 0.52828 0.0
C3619 C 0.71841 0.32764 0.52262 0.0
C3620 C 0.70506 0.33898 0.52136 0.0
C3621 C 0.68865 0.33349 0.52586 0.0
C3622 C 0.73584 0.33262 0.51709 0.0
C3623 C 0.74041 0.33549 0.49136 0.0
C3624 C 0.7484 0.33049 0.53594 0.0
C3625 C 0.74414 0.32817 0.56358 0.0
C3626 C 0.73337 0.33944 0.57609 0.0
C3627 C 0.7292 0.33714 0.60201 0.0
C3628 C 0.73574 0.32362 0.61569 0.0
C3629 C 0.74649 0.31239 0.60347 0.0
C3630 C 0.7507 0.31463 0.57755 0.0
C3631 C 0.81324 0.32996 0.47257 0.0
C3632 C 0.8187 0.31395 0.47988 0.0
C3633 C 0.79737 0.33568 0.47993 0.0
C3634 C 0.78677 0.32544 0.49465 0.0
C3635 C 0.79233 0.30954 0.50201 0.0
C3636 C 0.80806 0.30386 0.49472 0.0
C3637 C 0.76963 0.33062 0.50206 0.0
C3638 C 0.76515 0.3296 0.52818 0.0
C3639 C 0.75718 0.33434 0.48355 0.0
C3640 C 0.761 0.33555 0.4557 0.0
C3641 C 0.76714 0.32167 0.4421 0.0
C3642 C 0.77073 0.32296 0.4158 0.0
C3643 C 0.76809 0.33803 0.40288 0.0
C3644 C 0.76179 0.35182 0.41621 0.0
C3645 C 0.7582 0.3506 0.44252 0.0
H3646 H 0.77087 0.33901 0.38252 0.0
H3647 H 0.73249 0.32185 0.63575 0.0
loop_
_geom_bond_atom_site_label_1
_geom_bond_atom_site_label_2
_geom_bond_distance
_geom_bond_site_symmetry_2
_ccdc_geom_bond_type
Co0 O1 2.216 . S
Co0 O2 2.091 . S
Co0 O4 2.004 . S
Co0 O10 2.021 . S
Co0 O12 2.137 . S
Co0 O13 2.244 . S
O1 Co0 2.216 . S
O1 C8 1.247 . S
O2 Co0 2.091 . S
O2 C8 1.261 . S
C3 O12 1.247 . S
C3 O13 1.272 . S
O4 Co0 2.004 . S
O4 C9 1.259 . S
Co5 O6 2.061 . S
Co5 O11 2.052 . S
Co5 O13 2.135 . S
O6 Co5 2.061 . S
O6 C9 1.235 . S
C7 O10 1.238 . S
C7 O11 1.241 . S
C8 O1 1.247 . S
C8 O2 1.261 . S
C9 O4 1.259 . S
C9 O6 1.235 . S
O10 Co0 2.021 . S
O10 C7 1.238 . S
O11 Co5 2.052 . S
O11 C7 1.241 . S
O12 Co0 2.137 . S
O12 C3 1.247 . S
O13 Co0 2.244 . S
O13 C3 1.272 . S
O13 Co5 2.135 . S
Co14 O15 2.216 . S
Co14 O16 2.091 . S
Co14 O18 2.004 . S
Co14 O24 2.021 . S
Co14 O26 2.137 . S
Co14 O27 2.244 . S
O15 Co14 2.216 . S
O15 C22 1.247 . S
O16 Co14 2.091 . S
O16 C22 1.261 . S
C17 O26 1.247 . S
C17 O27 1.272 . S
O18 Co14 2.004 . S
O18 C23 1.259 . S
Co19 O20 2.061 . S
Co19 O25 2.052 . S
Co19 O27 2.135 . S
O20 Co19 2.061 . S
O20 C23 1.235 . S
C21 O24 1.238 . S
C21 O25 1.241 . S
C22 O15 1.247 . S
C22 O16 1.261 . S
C23 O18 1.259 . S
C23 O20 1.235 . S
O24 Co14 2.021 . S
O24 C21 1.238 . S
O25 Co19 2.052 . S
O25 C21 1.241 . S
O26 Co14 2.137 . S
O26 C17 1.247 . S
O27 Co14 2.244 . S
O27 C17 1.272 . S
O27 Co19 2.135 . S
Co28 O29 2.216 . S
Co28 O30 2.091 . S
Co28 O32 2.004 . S
Co28 O38 2.021 . S
Co28 O40 2.137 . S
Co28 O41 2.244 . S
O29 Co28 2.216 . S
O29 C36 1.247 . S
O30 Co28 2.091 . S
O30 C36 1.261 . S
C31 O40 1.247 . S
C31 O41 1.272 . S
O32 Co28 2.004 . S
O32 C37 1.259 . S
Co33 O34 2.061 . S
Co33 O39 2.052 . S
Co33 O41 2.135 . S
O34 Co33 2.061 . S
O34 C37 1.235 . S
C35 O38 1.238 . S
C35 O39 1.241 . S
C36 O29 1.247 . S
C36 O30 1.261 . S
C37 O32 1.259 . S
C37 O34 1.235 . S
O38 Co28 2.021 . S
O38 C35 1.238 . S
O39 Co33 2.052 . S
O39 C35 1.241 . S
O40 Co28 2.137 . S
O40 C31 1.247 . S
O41 Co28 2.244 . S
O41 C31 1.272 . S
O41 Co33 2.135 . S
Co42 O43 2.216 . S
Co42 O44 2.091 . S
Co42 O46 2.004 . S
Co42 O52 2.021 . S
Co42 O54 2.137 . S
Co42 O55 2.244 . S
O43 Co42 2.216 . S
O43 C50 1.247 . S
O44 Co42 2.091 . S
O44 C50 1.261 . S
C45 O54 1.247 . S
C45 O55 1.272 . S
O46 Co42 2.004 . S
O46 C51 1.259 . S
Co47 O48 2.061 . S
Co47 O53 2.052 . S
Co47 O55 2.135 . S
O48 Co47 2.061 . S
O48 C51 1.235 . S
C49 O52 1.229 1_556 S
C49 O53 1.241 1_556 S
C50 O43 1.247 . S
C50 O44 1.261 . S
C51 O46 1.259 . S
C51 O48 1.235 . S
O52 Co42 2.021 . S
O52 C49 1.229 1_554 S
O53 Co47 2.052 . S
O53 C49 1.241 1_554 S
O54 Co42 2.137 . S
O54 C45 1.247 . S
O55 Co42 2.244 . S
O55 C45 1.272 . S
O55 Co47 2.135 . S
Co56 O57 2.216 . S
Co56 O58 2.091 . S
Co56 O60 2.004 . S
Co56 O66 2.021 . S
Co56 O68 2.137 . S
Co56 O69 2.244 . S
O57 Co56 2.216 . S
O57 C64 1.247 . S
O58 Co56 2.091 . S
O58 C64 1.261 . S
C59 O68 1.247 . S
C59 O69 1.272 . S
O60 Co56 2.004 . S
O60 C65 1.259 . S
Co61 O62 2.061 . S
Co61 O67 2.052 . S
Co61 O69 2.135 . S
O62 Co61 2.061 . S
O62 C65 1.235 . S
C63 O66 1.238 . S
C63 O67 1.241 . S
C64 O57 1.247 . S
C64 O58 1.261 . S
C65 O60 1.259 . S
C65 O62 1.235 . S
O66 Co56 2.021 . S
O66 C63 1.238 . S
O67 Co61 2.052 . S
O67 C63 1.241 . S
O68 Co56 2.137 . S
O68 C59 1.247 . S
O69 Co56 2.244 . S
O69 C59 1.272 . S
O69 Co61 2.135 . S
Co70 O71 2.216 . S
Co70 O72 2.091 . S
Co70 O74 2.004 . S
Co70 O80 2.021 . S
Co70 O82 2.137 . S
Co70 O83 2.244 . S
O71 Co70 2.216 . S
O71 C78 1.247 . S
O72 Co70 2.091 . S
O72 C78 1.261 . S
C73 O82 1.247 . S
C73 O83 1.272 . S
O74 Co70 2.004 . S
O74 C79 1.259 . S
Co75 O76 2.061 . S
Co75 O81 2.052 . S
Co75 O83 2.135 . S
O76 Co75 2.061 . S
O76 C79 1.235 . S
C77 O80 1.238 . S
C77 O81 1.241 . S
C78 O71 1.247 . S
C78 O72 1.261 . S
C79 O74 1.259 . S
C79 O76 1.235 . S
O80 Co70 2.021 . S
O80 C77 1.238 . S
O81 Co75 2.052 . S
O81 C77 1.241 . S
O82 Co70 2.137 . S
O82 C73 1.247 . S
O83 Co70 2.244 . S
O83 C73 1.272 . S
O83 Co75 2.135 . S
Co84 O85 2.216 . S
Co84 O86 2.091 . S
Co84 O88 2.004 . S
Co84 O94 2.021 . S
Co84 O96 2.137 . S
Co84 O97 2.244 . S
O85 Co84 2.216 . S
O85 C92 1.247 . S
O86 Co84 2.091 . S
O86 C92 1.261 . S
C87 O96 1.247 . S
C87 O97 1.272 . S
O88 Co84 2.004 . S
O88 C93 1.259 . S
Co89 O90 2.061 . S
Co89 O95 2.052 . S
Co89 O97 2.135 . S
O90 Co89 2.061 . S
O90 C93 1.235 . S
C91 O94 1.238 . S
C91 O95 1.241 . S
C92 O85 1.247 . S
C92 O86 1.261 . S
C93 O88 1.259 . S
C93 O90 1.235 . S
O94 Co84 2.021 . S
O94 C91 1.238 . S
O95 Co89 2.052 . S
O95 C91 1.241 . S
O96 Co84 2.137 . S
O96 C87 1.247 . S
O97 Co84 2.244 . S
O97 C87 1.272 . S
O97 Co89 2.135 . S
Co98 O99 2.216 . S
Co98 O100 2.091 . S
Co98 O102 2.004 . S
Co98 O108 2.021 . S
Co98 O110 2.137 . S
Co98 O111 2.244 . S
O99 Co98 2.216 . S
O99 C106 1.247 . S
O100 Co98 2.091 . S
O100 C106 1.261 . S
C101 O110 1.247 . S
C101 O111 1.272 . S
O102 Co98 2.004 . S
O102 C107 1.259 . S
Co103 O104 2.061 . S
Co103 O109 2.052 . S
Co103 O111 2.135 . S
O104 Co103 2.061 . S
O104 C107 1.235 . S
C105 O108 1.229 1_554 S
C105 O109 1.241 1_554 S
C106 O99 1.247 . S
C106 O100 1.261 . S
C107 O102 1.259 . S
C107 O104 1.235 . S
O108 Co98 2.021 . S
O108 C105 1.229 1_556 S
O109 Co103 2.052 . S
O109 C105 1.241 1_556 S
O110 Co98 2.137 . S
O110 C101 1.247 . S
O111 Co98 2.244 . S
O111 C101 1.272 . S
O111 Co103 2.135 . S
Co112 O113 2.216 . S
Co112 O114 2.091 . S
Co112 O116 2.004 . S
Co112 O122 2.021 . S
Co112 O124 2.137 . S
Co112 O125 2.244 . S
O113 Co112 2.216 . S
O113 C120 1.247 . S
O114 Co112 2.091 . S
O114 C120 1.261 . S
C115 O124 1.247 . S
C115 O125 1.272 . S
O116 Co112 2.004 . S
O116 C121 1.259 . S
Co117 O118 2.061 . S
Co117 O123 2.052 . S
Co117 O125 2.135 . S
O118 Co117 2.061 . S
O118 C121 1.235 . S
C119 O122 1.238 . S
C119 O123 1.241 . S
C120 O113 1.247 . S
C120 O114 1.261 . S
C121 O116 1.259 . S
C121 O118 1.235 . S
O122 Co112 2.021 . S
O122 C119 1.238 . S
O123 Co117 2.052 . S
O123 C119 1.241 . S
O124 Co112 2.137 . S
O124 C115 1.247 . S
O125 Co112 2.244 . S
O125 C115 1.272 . S
O125 Co117 2.135 . S
Co126 O127 2.216 . S
Co126 O128 2.091 . S
Co126 O130 2.004 . S
Co126 O136 2.021 . S
Co126 O138 2.137 . S
Co126 O139 2.244 . S
O127 Co126 2.216 . S
O127 C134 1.247 . S
O128 Co126 2.091 . S
O128 C134 1.261 . S
C129 O138 1.247 . S
C129 O139 1.272 . S
O130 Co126 2.004 . S
O130 C135 1.259 . S
Co131 O132 2.061 . S
Co131 O137 2.052 . S
Co131 O139 2.135 . S
O132 Co131 2.061 . S
O132 C135 1.235 . S
C133 O136 1.238 . S
C133 O137 1.241 . S
C134 O127 1.247 . S
C134 O128 1.261 . S
C135 O130 1.259 . S
C135 O132 1.235 . S
O136 Co126 2.021 . S
O136 C133 1.238 . S
O137 Co131 2.052 . S
O137 C133 1.241 . S
O138 Co126 2.137 . S
O138 C129 1.247 . S
O139 Co126 2.244 . S
O139 C129 1.272 . S
O139 Co131 2.135 . S
Co140 O141 2.216 . S
Co140 O142 2.091 . S
Co140 O144 2.004 . S
Co140 O150 2.021 . S
Co140 O152 2.137 . S
Co140 O153 2.244 . S
O141 Co140 2.216 . S
O141 C148 1.247 . S
O142 Co140 2.091 . S
O142 C148 1.261 . S
C143 O152 1.247 . S
C143 O153 1.272 . S
O144 Co140 2.004 . S
O144 C149 1.259 . S
Co145 O146 2.061 . S
Co145 O151 2.052 . S
Co145 O153 2.135 . S
O146 Co145 2.061 . S
O146 C149 1.235 . S
C147 O150 1.238 . S
C147 O151 1.241 . S
C148 O141 1.247 . S
C148 O142 1.261 . S
C149 O144 1.259 . S
C149 O146 1.235 . S
O150 Co140 2.021 . S
O150 C147 1.238 . S
O151 Co145 2.052 . S
O151 C147 1.241 . S
O152 Co140 2.137 . S
O152 C143 1.247 . S
O153 Co140 2.244 . S
O153 C143 1.272 . S
O153 Co145 2.135 . S
Co154 O155 2.216 . S
Co154 O156 2.091 . S
Co154 O158 2.004 . S
Co154 O164 2.021 . S
Co154 O166 2.137 . S
Co154 O167 2.244 . S
O155 Co154 2.216 . S
O155 C162 1.247 . S
O156 Co154 2.091 . S
O156 C162 1.261 . S
C157 O166 1.247 . S
C157 O167 1.272 . S
O158 Co154 2.004 . S
O158 C163 1.259 . S
Co159 O160 2.061 . S
Co159 O165 2.052 . S
Co159 O167 2.135 . S
O160 Co159 2.061 . S
O160 C163 1.235 . S
C161 O164 1.229 1_554 S
C161 O165 1.241 1_554 S
C162 O155 1.247 . S
C162 O156 1.261 . S
C163 O158 1.259 . S
C163 O160 1.235 . S
O164 Co154 2.021 . S
O164 C161 1.229 1_556 S
O165 Co159 2.052 . S
O165 C161 1.241 1_556 S
O166 Co154 2.137 . S
O166 C157 1.247 . S
O167 Co154 2.244 . S
O167 C157 1.272 . S
O167 Co159 2.135 . S
Co168 O169 2.216 . S
Co168 O170 2.091 . S
Co168 O172 2.004 . S
Co168 O178 2.021 . S
Co168 O180 2.137 . S
Co168 O181 2.244 . S
O169 Co168 2.216 . S
O169 C176 1.247 . S
O170 Co168 2.091 . S
O170 C176 1.261 . S
C171 O180 1.247 . S
C171 O181 1.272 . S
O172 Co168 2.004 . S
O172 C177 1.259 . S
Co173 O174 2.061 . S
Co173 O179 2.052 . S
Co173 O181 2.135 . S
O174 Co173 2.061 . S
O174 C177 1.235 . S
C175 O178 1.238 . S
C175 O179 1.241 . S
C176 O169 1.247 . S
C176 O170 1.261 . S
C177 O172 1.259 . S
C177 O174 1.235 . S
O178 Co168 2.021 . S
O178 C175 1.238 . S
O179 Co173 2.052 . S
O179 C175 1.241 . S
O180 Co168 2.137 . S
O180 C171 1.247 . S
O181 Co168 2.244 . S
O181 C171 1.272 . S
O181 Co173 2.135 . S
Co182 O183 2.216 . S
Co182 O184 2.091 . S
Co182 O186 2.004 . S
Co182 O192 2.021 . S
Co182 O194 2.137 . S
Co182 O195 2.244 . S
O183 Co182 2.216 . S
O183 C190 1.247 . S
O184 Co182 2.091 . S
O184 C190 1.261 . S
C185 O194 1.247 . S
C185 O195 1.272 . S
O186 Co182 2.004 . S
O186 C191 1.259 . S
Co187 O188 2.061 . S
Co187 O193 2.052 . S
Co187 O195 2.135 . S
O188 Co187 2.061 . S
O188 C191 1.235 . S
C189 O192 1.238 . S
C189 O193 1.241 . S
C190 O183 1.247 . S
C190 O184 1.261 . S
C191 O186 1.259 . S
C191 O188 1.235 . S
O192 Co182 2.021 . S
O192 C189 1.238 . S
O193 Co187 2.052 . S
O193 C189 1.241 . S
O194 Co182 2.137 . S
O194 C185 1.247 . S
O195 Co182 2.244 . S
O195 C185 1.272 . S
O195 Co187 2.135 . S
Co196 O197 2.216 . S
Co196 O198 2.091 . S
Co196 O200 2.004 . S
Co196 O206 2.021 . S
Co196 O208 2.137 . S
Co196 O209 2.244 . S
O197 Co196 2.216 . S
O197 C204 1.247 . S
O198 Co196 2.091 . S
O198 C204 1.261 . S
C199 O208 1.247 . S
C199 O209 1.272 . S
O200 Co196 2.004 . S
O200 C205 1.259 . S
Co201 O202 2.061 . S
Co201 O207 2.052 . S
Co201 O209 2.135 . S
O202 Co201 2.061 . S
O202 C205 1.235 . S
C203 O206 1.238 . S
C203 O207 1.241 . S
C204 O197 1.247 . S
C204 O198 1.261 . S
C205 O200 1.259 . S
C205 O202 1.235 . S
O206 Co196 2.021 . S
O206 C203 1.238 . S
O207 Co201 2.052 . S
O207 C203 1.241 . S
O208 Co196 2.137 . S
O208 C199 1.247 . S
O209 Co196 2.244 . S
O209 C199 1.272 . S
O209 Co201 2.135 . S
Co210 O211 2.216 . S
Co210 O212 2.091 . S
Co210 O214 2.004 . S
Co210 O220 2.021 . S
Co210 O222 2.137 . S
Co210 O223 2.244 . S
O211 Co210 2.216 . S
O211 C218 1.247 . S
O212 Co210 2.091 . S
O212 C218 1.261 . S
C213 O222 1.247 . S
C213 O223 1.272 . S
O214 Co210 2.004 . S
O214 C219 1.259 . S
Co215 O216 2.061 . S
Co215 O221 2.052 . S
Co215 O223 2.135 . S
O216 Co215 2.061 . S
O216 C219 1.235 . S
C217 O220 1.229 1_556 S
C217 O221 1.241 1_556 S
C218 O211 1.247 . S
C218 O212 1.261 . S
C219 O214 1.259 . S
C219 O216 1.235 . S
O220 Co210 2.021 . S
O220 C217 1.229 1_554 S
O221 Co215 2.052 . S
O221 C217 1.241 1_554 S
O222 Co210 2.137 . S
O222 C213 1.247 . S
O223 Co210 2.244 . S
O223 C213 1.272 . S
O223 Co215 2.135 . S
Co224 O225 2.216 . S
Co224 O226 2.091 . S
Co224 O228 2.004 . S
Co224 O234 2.021 . S
Co224 O236 2.137 . S
Co224 O237 2.244 . S
O225 Co224 2.216 . S
O225 C232 1.247 . S
O226 Co224 2.091 . S
O226 C232 1.261 . S
C227 O236 1.247 . S
C227 O237 1.272 . S
O228 Co224 2.004 . S
O228 C233 1.259 . S
Co229 O230 2.061 . S
Co229 O235 2.052 . S
Co229 O237 2.135 . S
O230 Co229 2.061 . S
O230 C233 1.235 . S
C231 O234 1.238 . S
C231 O235 1.241 . S
C232 O225 1.247 . S
C232 O226 1.261 . S
C233 O228 1.259 . S
C233 O230 1.235 . S
O234 Co224 2.021 . S
O234 C231 1.238 . S
O235 Co229 2.052 . S
O235 C231 1.241 . S
O236 Co224 2.137 . S
O236 C227 1.247 . S
O237 Co224 2.244 . S
O237 C227 1.272 . S
O237 Co229 2.135 . S
Co238 O239 2.216 . S
Co238 O240 2.091 . S
Co238 O242 2.004 . S
Co238 O248 2.021 . S
Co238 O250 2.137 . S
Co238 O251 2.244 . S
O239 Co238 2.216 . S
O239 C246 1.247 . S
O240 Co238 2.091 . S
O240 C246 1.261 . S
C241 O250 1.247 . S
C241 O251 1.272 . S
O242 Co238 2.004 . S
O242 C247 1.259 . S
Co243 O244 2.061 . S
Co243 O249 2.052 . S
Co243 O251 2.135 . S
O244 Co243 2.061 . S
O244 C247 1.235 . S
C245 O248 1.229 1_556 S
C245 O249 1.241 1_556 S
C246 O239 1.247 . S
C246 O240 1.261 . S
C247 O242 1.259 . S
C247 O244 1.235 . S
O248 Co238 2.021 . S
O248 C245 1.229 1_554 S
O249 Co243 2.052 . S
O249 C245 1.241 1_554 S
O250 Co238 2.137 . S
O250 C241 1.247 . S
O251 Co238 2.244 . S
O251 C241 1.272 . S
O251 Co243 2.135 . S
Co252 O253 2.216 . S
Co252 O254 2.091 . S
Co252 O256 2.004 . S
Co252 O262 2.021 . S
Co252 O264 2.137 . S
Co252 O265 2.244 . S
O253 Co252 2.216 . S
O253 C260 1.247 . S
O254 Co252 2.091 . S
O254 C260 1.261 . S
C255 O264 1.247 . S
C255 O265 1.272 . S
O256 Co252 2.004 . S
O256 C261 1.259 . S
Co257 O258 2.061 . S
Co257 O263 2.052 . S
Co257 O265 2.135 . S
O258 Co257 2.061 . S
O258 C261 1.235 . S
C259 O262 1.238 . S
C259 O263 1.241 . S
C260 O253 1.247 . S
C260 O254 1.261 . S
C261 O256 1.259 . S
C261 O258 1.235 . S
O262 Co252 2.021 . S
O262 C259 1.238 . S
O263 Co257 2.052 . S
O263 C259 1.241 . S
O264 Co252 2.137 . S
O264 C255 1.247 . S
O265 Co252 2.244 . S
O265 C255 1.272 . S
O265 Co257 2.135 . S
Co266 O267 2.216 . S
Co266 O268 2.091 . S
Co266 O270 2.004 . S
Co266 O276 2.021 . S
Co266 O278 2.137 . S
Co266 O279 2.244 . S
O267 Co266 2.216 . S
O267 C274 1.247 . S
O268 Co266 2.091 . S
O268 C274 1.261 . S
C269 O278 1.247 . S
C269 O279 1.272 . S
O270 Co266 2.004 . S
O270 C275 1.259 . S
Co271 O272 2.061 . S
Co271 O277 2.052 . S
Co271 O279 2.135 . S
O272 Co271 2.061 . S
O272 C275 1.235 . S
C273 O276 1.238 . S
C273 O277 1.241 . S
C274 O267 1.247 . S
C274 O268 1.261 . S
C275 O270 1.259 . S
C275 O272 1.235 . S
O276 Co266 2.021 . S
O276 C273 1.238 . S
O277 Co271 2.052 . S
O277 C273 1.241 . S
O278 Co266 2.137 . S
O278 C269 1.247 . S
O279 Co266 2.244 . S
O279 C269 1.272 . S
O279 Co271 2.135 . S
Co280 O281 2.216 . S
Co280 O282 2.091 . S
Co280 O284 2.004 . S
Co280 O290 2.021 . S
Co280 O292 2.137 . S
Co280 O293 2.244 . S
O281 Co280 2.216 . S
O281 C288 1.247 . S
O282 Co280 2.091 . S
O282 C288 1.261 . S
C283 O292 1.247 . S
C283 O293 1.272 . S
O284 Co280 2.004 . S
O284 C289 1.259 . S
Co285 O286 2.061 . S
Co285 O291 2.052 . S
Co285 O293 2.135 . S
O286 Co285 2.061 . S
O286 C289 1.235 . S
C287 O290 1.238 . S
C287 O291 1.241 . S
C288 O281 1.247 . S
C288 O282 1.261 . S
C289 O284 1.259 . S
C289 O286 1.235 . S
O290 Co280 2.021 . S
O290 C287 1.238 . S
O291 Co285 2.052 . S
O291 C287 1.241 . S
O292 Co280 2.137 . S
O292 C283 1.247 . S
O293 Co280 2.244 . S
O293 C283 1.272 . S
O293 Co285 2.135 . S
Co294 O295 2.216 . S
Co294 O296 2.091 . S
Co294 O298 2.004 . S
Co294 O304 2.021 . S
Co294 O306 2.137 . S
Co294 O307 2.244 . S
O295 Co294 2.216 . S
O295 C302 1.247 . S
O296 Co294 2.091 . S
O296 C302 1.261 . S
C297 O306 1.247 . S
C297 O307 1.272 . S
O298 Co294 2.004 . S
O298 C303 1.259 . S
Co299 O300 2.061 . S
Co299 O305 2.052 . S
Co299 O307 2.135 . S
O300 Co299 2.061 . S
O300 C303 1.235 . S
C301 O304 1.229 1_554 S
C301 O305 1.241 1_554 S
C302 O295 1.247 . S
C302 O296 1.261 . S
C303 O298 1.259 . S
C303 O300 1.235 . S
O304 Co294 2.021 . S
O304 C301 1.229 1_556 S
O305 Co299 2.052 . S
O305 C301 1.241 1_556 S
O306 Co294 2.137 . S
O306 C297 1.247 . S
O307 Co294 2.244 . S
O307 C297 1.272 . S
O307 Co299 2.135 . S
Co308 O309 2.216 . S
Co308 O310 2.091 . S
Co308 O312 2.004 . S
Co308 O318 2.021 . S
Co308 O320 2.137 . S
Co308 O321 2.244 . S
O309 Co308 2.216 . S
O309 C316 1.247 . S
O310 Co308 2.091 . S
O310 C316 1.261 . S
C311 O320 1.247 . S
C311 O321 1.272 . S
O312 Co308 2.004 . S
O312 C317 1.259 . S
Co313 O314 2.061 . S
Co313 O319 2.052 . S
Co313 O321 2.135 . S
O314 Co313 2.061 . S
O314 C317 1.235 . S
C315 O318 1.238 . S
C315 O319 1.241 . S
C316 O309 1.247 . S
C316 O310 1.261 . S
C317 O312 1.259 . S
C317 O314 1.235 . S
O318 Co308 2.021 . S
O318 C315 1.238 . S
O319 Co313 2.052 . S
O319 C315 1.241 . S
O320 Co308 2.137 . S
O320 C311 1.247 . S
O321 Co308 2.244 . S
O321 C311 1.272 . S
O321 Co313 2.135 . S
Co322 O323 2.216 . S
Co322 O324 2.091 . S
Co322 O326 2.004 . S
Co322 O332 2.021 . S
Co322 O334 2.137 . S
Co322 O335 2.244 . S
O323 Co322 2.216 . S
O323 C330 1.247 . S
O324 Co322 2.091 . S
O324 C330 1.261 . S
C325 O334 1.247 . S
C325 O335 1.272 . S
O326 Co322 2.004 . S
O326 C331 1.259 . S
Co327 O328 2.061 . S
Co327 O333 2.052 . S
Co327 O335 2.135 . S
O328 Co327 2.061 . S
O328 C331 1.235 . S
C329 O332 1.238 . S
C329 O333 1.241 . S
C330 O323 1.247 . S
C330 O324 1.261 . S
C331 O326 1.259 . S
C331 O328 1.235 . S
O332 Co322 2.021 . S
O332 C329 1.238 . S
O333 Co327 2.052 . S
O333 C329 1.241 . S
O334 Co322 2.137 . S
O334 C325 1.247 . S
O335 Co322 2.244 . S
O335 C325 1.272 . S
O335 Co327 2.135 . S
Co336 O337 2.216 . S
Co336 O338 2.091 . S
Co336 O340 2.004 . S
Co336 O346 2.021 . S
Co336 O348 2.137 . S
Co336 O349 2.244 . S
O337 Co336 2.216 . S
O337 C344 1.247 . S
O338 Co336 2.091 . S
O338 C344 1.261 . S
C339 O348 1.247 . S
C339 O349 1.272 . S
O340 Co336 2.004 . S
O340 C345 1.259 . S
Co341 O342 2.061 . S
Co341 O347 2.052 . S
Co341 O349 2.135 . S
O342 Co341 2.061 . S
O342 C345 1.235 . S
C343 O346 1.238 . S
C343 O347 1.241 . S
C344 O337 1.247 . S
C344 O338 1.261 . S
C345 O340 1.259 . S
C345 O342 1.235 . S
O346 Co336 2.021 . S
O346 C343 1.238 . S
O347 Co341 2.052 . S
O347 C343 1.241 . S
O348 Co336 2.137 . S
O348 C339 1.247 . S
O349 Co336 2.244 . S
O349 C339 1.272 . S
O349 Co341 2.135 . S
Co350 O351 2.216 . S
Co350 O352 2.091 . S
Co350 O354 2.004 . S
Co350 O360 2.021 . S
Co350 O362 2.137 . S
Co350 O363 2.244 . S
O351 Co350 2.216 . S
O351 C358 1.247 . S
O352 Co350 2.091 . S
O352 C358 1.261 . S
C353 O362 1.247 . S
C353 O363 1.272 . S
O354 Co350 2.004 . S
O354 C359 1.259 . S
Co355 O356 2.061 . S
Co355 O361 2.052 . S
Co355 O363 2.135 . S
O356 Co355 2.061 . S
O356 C359 1.235 . S
C357 O360 1.229 1_554 S
C357 O361 1.241 1_554 S
C358 O351 1.247 . S
C358 O352 1.261 . S
C359 O354 1.259 . S
C359 O356 1.235 . S
O360 Co350 2.021 . S
O360 C357 1.229 1_556 S
O361 Co355 2.052 . S
O361 C357 1.241 1_556 S
O362 Co350 2.137 . S
O362 C353 1.247 . S
O363 Co350 2.244 . S
O363 C353 1.272 . S
O363 Co355 2.135 . S
Co364 O365 2.216 . S
Co364 O366 2.091 . S
Co364 O368 2.004 . S
Co364 O374 2.021 . S
Co364 O376 2.137 . S
Co364 O377 2.244 . S
O365 Co364 2.216 . S
O365 C372 1.247 . S
O366 Co364 2.091 . S
O366 C372 1.261 . S
C367 O376 1.247 . S
C367 O377 1.272 . S
O368 Co364 2.004 . S
O368 C373 1.259 . S
Co369 O370 2.061 . S
Co369 O375 2.052 . S
Co369 O377 2.135 . S
O370 Co369 2.061 . S
O370 C373 1.235 . S
C371 O374 1.238 . S
C371 O375 1.241 . S
C372 O365 1.247 . S
C372 O366 1.261 . S
C373 O368 1.259 . S
C373 O370 1.235 . S
O374 Co364 2.021 . S
O374 C371 1.238 . S
O375 Co369 2.052 . S
O375 C371 1.241 . S
O376 Co364 2.137 . S
O376 C367 1.247 . S
O377 Co364 2.244 . S
O377 C367 1.272 . S
O377 Co369 2.135 . S
Co378 O379 2.216 . S
Co378 O380 2.091 . S
Co378 O382 2.004 . S
Co378 O388 2.021 . S
Co378 O390 2.137 . S
Co378 O391 2.244 . S
O379 Co378 2.216 . S
O379 C386 1.247 . S
O380 Co378 2.091 . S
O380 C386 1.261 . S
C381 O390 1.247 . S
C381 O391 1.272 . S
O382 Co378 2.004 . S
O382 C387 1.259 . S
Co383 O384 2.061 . S
Co383 O389 2.052 . S
Co383 O391 2.135 . S
O384 Co383 2.061 . S
O384 C387 1.235 . S
C385 O388 1.238 . S
C385 O389 1.241 . S
C386 O379 1.247 . S
C386 O380 1.261 . S
C387 O382 1.259 . S
C387 O384 1.235 . S
O388 Co378 2.021 . S
O388 C385 1.238 . S
O389 Co383 2.052 . S
O389 C385 1.241 . S
O390 Co378 2.137 . S
O390 C381 1.247 . S
O391 Co378 2.244 . S
O391 C381 1.272 . S
O391 Co383 2.135 . S
Co392 O393 2.216 . S
Co392 O394 2.091 . S
Co392 O396 2.004 . S
Co392 O402 2.021 . S
Co392 O404 2.137 . S
Co392 O405 2.244 . S
O393 Co392 2.216 . S
O393 C400 1.247 . S
O394 Co392 2.091 . S
O394 C400 1.261 . S
C395 O404 1.247 . S
C395 O405 1.272 . S
O396 Co392 2.004 . S
O396 C401 1.259 . S
Co397 O398 2.061 . S
Co397 O403 2.052 . S
Co397 O405 2.135 . S
O398 Co397 2.061 . S
O398 C401 1.235 . S
C399 O402 1.238 . S
C399 O403 1.241 . S
C400 O393 1.247 . S
C400 O394 1.261 . S
C401 O396 1.259 . S
C401 O398 1.235 . S
O402 Co392 2.021 . S
O402 C399 1.238 . S
O403 Co397 2.052 . S
O403 C399 1.241 . S
O404 Co392 2.137 . S
O404 C395 1.247 . S
O405 Co392 2.244 . S
O405 C395 1.272 . S
O405 Co397 2.135 . S
Co406 O407 2.216 . S
Co406 O408 2.091 . S
Co406 O410 2.004 . S
Co406 O416 2.021 . S
Co406 O418 2.137 . S
Co406 O419 2.244 . S
O407 Co406 2.216 . S
O407 C414 1.247 . S
O408 Co406 2.091 . S
O408 C414 1.261 . S
C409 O418 1.247 . S
C409 O419 1.272 . S
O410 Co406 2.004 . S
O410 C415 1.259 . S
Co411 O412 2.061 . S
Co411 O417 2.052 . S
Co411 O419 2.135 . S
O412 Co411 2.061 . S
O412 C415 1.235 . S
C413 O416 1.229 1_556 S
C413 O417 1.241 1_556 S
C414 O407 1.247 . S
C414 O408 1.261 . S
C415 O410 1.259 . S
C415 O412 1.235 . S
O416 Co406 2.021 . S
O416 C413 1.229 1_554 S
O417 Co411 2.052 . S
O417 C413 1.241 1_554 S
O418 Co406 2.137 . S
O418 C409 1.247 . S
O419 Co406 2.244 . S
O419 C409 1.272 . S
O419 Co411 2.135 . S
Co420 O421 2.216 . S
Co420 O422 2.091 . S
Co420 O424 2.004 . S
Co420 O430 2.021 . S
Co420 O432 2.137 . S
Co420 O433 2.244 . S
O421 Co420 2.216 . S
O421 C428 1.247 . S
O422 Co420 2.091 . S
O422 C428 1.261 . S
C423 O432 1.247 . S
C423 O433 1.272 . S
O424 Co420 2.004 . S
O424 C429 1.259 . S
Co425 O426 2.061 . S
Co425 O431 2.052 . S
Co425 O433 2.135 . S
O426 Co425 2.061 . S
O426 C429 1.235 . S
C427 O430 1.238 . S
C427 O431 1.241 . S
C428 O421 1.247 . S
C428 O422 1.261 . S
C429 O424 1.259 . S
C429 O426 1.235 . S
O430 Co420 2.021 . S
O430 C427 1.238 . S
O431 Co425 2.052 . S
O431 C427 1.241 . S
O432 Co420 2.137 . S
O432 C423 1.247 . S
O433 Co420 2.244 . S
O433 C423 1.272 . S
O433 Co425 2.135 . S
Co434 O435 2.216 . S
Co434 O436 2.091 . S
Co434 O438 2.004 . S
Co434 O444 2.021 . S
Co434 O446 2.137 . S
Co434 O447 2.244 . S
O435 Co434 2.216 . S
O435 C442 1.247 . S
O436 Co434 2.091 . S
O436 C442 1.261 . S
C437 O446 1.247 . S
C437 O447 1.272 . S
O438 Co434 2.004 . S
O438 C443 1.259 . S
Co439 O440 2.061 . S
Co439 O445 2.052 . S
Co439 O447 2.135 . S
O440 Co439 2.061 . S
O440 C443 1.235 . S
C441 O444 1.238 . S
C441 O445 1.241 . S
C442 O435 1.247 . S
C442 O436 1.261 . S
C443 O438 1.259 . S
C443 O440 1.235 . S
O444 Co434 2.021 . S
O444 C441 1.238 . S
O445 Co439 2.052 . S
O445 C441 1.241 . S
O446 Co434 2.137 . S
O446 C437 1.247 . S
O447 Co434 2.244 . S
O447 C437 1.272 . S
O447 Co439 2.135 . S
H448 C466 0.951 . S
H449 C468 0.951 . S
H450 C470 0.950 . S
H451 C471 0.950 . S
H452 C473 0.950 . S
H453 C476 0.950 . S
H454 C477 0.950 . S
H455 C479 0.950 . S
H456 C480 0.950 . S
H457 C481 0.951 . S
H458 C483 0.951 . S
H459 C485 0.950 . S
H460 C486 0.950 . S
H461 C488 0.950 . S
H462 C491 0.950 . S
H463 C492 0.950 . S
H464 C494 0.950 . S
H465 C495 0.950 . S
C466 H448 0.951 . S
C466 C467 1.366 . S
C466 C468 1.388 . S
C467 C466 1.366 . S
C467 C471 1.385 . S
C468 H449 0.951 . S
C468 C466 1.388 . S
C468 C469 1.366 . S
C469 C468 1.366 . S
C469 C470 1.414 . S
C469 C472 1.499 . S
C470 H450 0.950 . S
C470 C469 1.414 . S
C470 C471 1.374 . S
C471 H451 0.950 . S
C471 C467 1.385 . S
C471 C470 1.374 . S
C472 C469 1.499 . S
C472 C473 1.373 . S
C472 C474 1.389 . S
C473 H452 0.950 . S
C473 C472 1.373 . S
C473 C489 1.377 . S
C474 C472 1.389 . S
C474 C475 1.524 . S
C474 C488 1.377 . S
C475 C474 1.524 . S
C475 C476 1.397 . S
C475 C480 1.363 . S
C476 H453 0.950 . S
C476 C475 1.397 . S
C476 C477 1.334 . S
C477 H454 0.950 . S
C477 C476 1.334 . S
C477 C478 1.287 . S
C478 C477 1.287 . S
C478 C479 1.524 . S
C478 H497 0.913 . S
C479 H455 0.950 . S
C479 C478 1.524 . S
C479 C480 1.415 . S
C480 H456 0.950 . S
C480 C475 1.363 . S
C480 C479 1.415 . S
C481 H457 0.951 . S
C481 C482 1.366 . S
C481 C483 1.388 . S
C482 C481 1.366 . S
C482 C486 1.385 . S
C483 H458 0.951 . S
C483 C481 1.388 . S
C483 C484 1.366 . S
C484 C483 1.366 . S
C484 C485 1.414 . S
C484 C487 1.499 . S
C485 H459 0.950 . S
C485 C484 1.414 . S
C485 C486 1.374 . S
C486 H460 0.950 . S
C486 C482 1.385 . S
C486 C485 1.374 . S
C487 C484 1.499 . S
C487 C488 1.373 . S
C487 C489 1.389 . S
C488 H461 0.950 . S
C488 C474 1.377 . S
C488 C487 1.373 . S
C489 C473 1.377 . S
C489 C487 1.389 . S
C489 C490 1.524 . S
C490 C489 1.524 . S
C490 C491 1.397 . S
C490 C495 1.363 . S
C491 H462 0.950 . S
C491 C490 1.397 . S
C491 C492 1.334 . S
C492 H463 0.950 . S
C492 C491 1.334 . S
C492 C493 1.287 . S
C493 C492 1.287 . S
C493 C494 1.524 . S
C493 H496 0.999 . S
C494 H464 0.950 . S
C494 C493 1.524 . S
C494 C495 1.415 . S
C495 H465 0.950 . S
C495 C490 1.363 . S
C495 C494 1.415 . S
H496 C493 0.999 . S
H497 C478 0.913 . S
H498 C516 0.951 . S
H499 C518 0.951 . S
H500 C520 0.950 . S
H501 C521 0.950 . S
H502 C523 0.950 . S
H503 C526 0.950 . S
H504 C527 0.950 . S
H505 C529 0.950 . S
H506 C530 0.950 . S
H507 C531 0.951 . S
H508 C533 0.951 . S
H509 C535 0.950 . S
H510 C536 0.950 . S
H511 C538 0.950 . S
H512 C541 0.950 . S
H513 C542 0.950 . S
H514 C544 0.950 . S
H515 C545 0.950 . S
C516 H498 0.951 . S
C516 C517 1.366 . S
C516 C518 1.388 . S
C517 C516 1.366 . S
C517 C521 1.385 . S
C518 H499 0.951 . S
C518 C516 1.388 . S
C518 C519 1.366 . S
C519 C518 1.366 . S
C519 C520 1.414 . S
C519 C522 1.499 . S
C520 H500 0.950 . S
C520 C519 1.414 . S
C520 C521 1.374 . S
C521 H501 0.950 . S
C521 C517 1.385 . S
C521 C520 1.374 . S
C522 C519 1.499 . S
C522 C523 1.373 . S
C522 C524 1.389 . S
C523 H502 0.950 . S
C523 C522 1.373 . S
C523 C539 1.377 . S
C524 C522 1.389 . S
C524 C525 1.524 . S
C524 C538 1.377 . S
C525 C524 1.524 . S
C525 C526 1.397 . S
C525 C530 1.363 . S
C526 H503 0.950 . S
C526 C525 1.397 . S
C526 C527 1.334 . S
C527 H504 0.950 . S
C527 C526 1.334 . S
C527 C528 1.287 . S
C528 C527 1.287 . S
C528 C529 1.524 . S
C528 H547 0.913 . S
C529 H505 0.950 . S
C529 C528 1.524 . S
C529 C530 1.415 . S
C530 H506 0.950 . S
C530 C525 1.363 . S
C530 C529 1.415 . S
C531 H507 0.951 . S
C531 C532 1.366 . S
C531 C533 1.388 . S
C532 C531 1.366 . S
C532 C536 1.385 . S
C533 H508 0.951 . S
C533 C531 1.388 . S
C533 C534 1.366 . S
C534 C533 1.366 . S
C534 C535 1.414 . S
C534 C537 1.499 . S
C535 H509 0.950 . S
C535 C534 1.414 . S
C535 C536 1.374 . S
C536 H510 0.950 . S
C536 C532 1.385 . S
C536 C535 1.374 . S
C537 C534 1.499 . S
C537 C538 1.373 . S
C537 C539 1.389 . S
C538 H511 0.950 . S
C538 C524 1.377 . S
C538 C537 1.373 . S
C539 C523 1.377 . S
C539 C537 1.389 . S
C539 C540 1.524 . S
C540 C539 1.524 . S
C540 C541 1.397 . S
C540 C545 1.363 . S
C541 H512 0.950 . S
C541 C540 1.397 . S
C541 C542 1.334 . S
C542 H513 0.950 . S
C542 C541 1.334 . S
C542 C543 1.287 . S
C543 C542 1.287 . S
C543 C544 1.524 . S
C543 H546 0.999 . S
C544 H514 0.950 . S
C544 C543 1.524 . S
C544 C545 1.415 . S
C545 H515 0.950 . S
C545 C540 1.363 . S
C545 C544 1.415 . S
H546 C543 0.999 . S
H547 C528 0.913 . S
H548 C566 0.951 . S
H549 C568 0.951 . S
H550 C570 0.950 . S
H551 C571 0.950 . S
H552 C573 0.950 . S
H553 C576 0.950 . S
H554 C577 0.950 . S
H555 C579 0.950 . S
H556 C580 0.950 . S
H557 C581 0.951 . S
H558 C583 0.951 . S
H559 C585 0.950 . S
H560 C586 0.950 . S
H561 C588 0.950 . S
H562 C591 0.950 . S
H563 C592 0.950 . S
H564 C594 0.950 . S
H565 C595 0.950 . S
C566 H548 0.951 . S
C566 C567 1.366 . S
C566 C568 1.388 . S
C567 C566 1.366 . S
C567 C571 1.385 . S
C568 H549 0.951 . S
C568 C566 1.388 . S
C568 C569 1.366 . S
C569 C568 1.366 . S
C569 C570 1.414 . S
C569 C572 1.499 . S
C570 H550 0.950 . S
C570 C569 1.414 . S
C570 C571 1.374 . S
C571 H551 0.950 . S
C571 C567 1.385 . S
C571 C570 1.374 . S
C572 C569 1.499 . S
C572 C573 1.373 . S
C572 C574 1.389 . S
C573 H552 0.950 . S
C573 C572 1.373 . S
C573 C589 1.377 . S
C574 C572 1.389 . S
C574 C575 1.524 . S
C574 C588 1.377 . S
C575 C574 1.524 . S
C575 C576 1.397 . S
C575 C580 1.363 . S
C576 H553 0.950 . S
C576 C575 1.397 . S
C576 C577 1.334 . S
C577 H554 0.950 . S
C577 C576 1.334 . S
C577 C578 1.287 . S
C578 C577 1.287 . S
C578 C579 1.524 . S
C578 H597 0.913 . S
C579 H555 0.950 . S
C579 C578 1.524 . S
C579 C580 1.415 . S
C580 H556 0.950 . S
C580 C575 1.363 . S
C580 C579 1.415 . S
C581 H557 0.951 . S
C581 C582 1.366 . S
C581 C583 1.388 . S
C582 C581 1.366 . S
C582 C586 1.385 . S
C583 H558 0.951 . S
C583 C581 1.388 . S
C583 C584 1.366 . S
C584 C583 1.366 . S
C584 C585 1.414 . S
C584 C587 1.499 . S
C585 H559 0.950 . S
C585 C584 1.414 . S
C585 C586 1.374 . S
C586 H560 0.950 . S
C586 C582 1.385 . S
C586 C585 1.374 . S
C587 C584 1.499 . S
C587 C588 1.373 . S
C587 C589 1.389 . S
C588 H561 0.950 . S
C588 C574 1.377 . S
C588 C587 1.373 . S
C589 C573 1.377 . S
C589 C587 1.389 . S
C589 C590 1.524 . S
C590 C589 1.524 . S
C590 C591 1.397 . S
C590 C595 1.363 . S
C591 H562 0.950 . S
C591 C590 1.397 . S
C591 C592 1.334 . S
C592 H563 0.950 . S
C592 C591 1.334 . S
C592 C593 1.287 . S
C593 C592 1.287 . S
C593 C594 1.524 . S
C593 H596 0.999 . S
C594 H564 0.950 . S
C594 C593 1.524 . S
C594 C595 1.415 . S
C595 H565 0.950 . S
C595 C590 1.363 . S
C595 C594 1.415 . S
H596 C593 0.999 . S
H597 C578 0.913 . S
H598 C616 0.951 . S
H599 C618 0.951 . S
H600 C620 0.950 . S
H601 C621 0.950 . S
H602 C623 0.950 . S
H603 C626 0.950 . S
H604 C627 0.950 . S
H605 C629 0.950 . S
H606 C630 0.950 . S
H607 C631 0.951 . S
H608 C633 0.951 . S
H609 C635 0.950 . S
H610 C636 0.950 . S
H611 C638 0.950 . S
H612 C641 0.950 . S
H613 C642 0.950 . S
H614 C644 0.950 . S
H615 C645 0.950 . S
C616 H598 0.951 . S
C616 C617 1.366 . S
C616 C618 1.388 . S
C617 C616 1.366 . S
C617 C621 1.385 . S
C618 H599 0.951 . S
C618 C616 1.388 . S
C618 C619 1.366 . S
C619 C618 1.366 . S
C619 C620 1.414 . S
C619 C622 1.499 . S
C620 H600 0.950 . S
C620 C619 1.414 . S
C620 C621 1.374 . S
C621 H601 0.950 . S
C621 C617 1.385 . S
C621 C620 1.374 . S
C622 C619 1.499 . S
C622 C623 1.373 . S
C622 C624 1.389 . S
C623 H602 0.950 . S
C623 C622 1.373 . S
C623 C639 1.377 . S
C624 C622 1.389 . S
C624 C625 1.524 . S
C624 C638 1.377 . S
C625 C624 1.524 . S
C625 C626 1.397 . S
C625 C630 1.363 . S
C626 H603 0.950 . S
C626 C625 1.397 . S
C626 C627 1.334 . S
C627 H604 0.950 . S
C627 C626 1.334 . S
C627 C628 1.287 . S
C628 C627 1.287 . S
C628 C629 1.524 . S
C628 H647 0.913 . S
C629 H605 0.950 . S
C629 C628 1.524 . S
C629 C630 1.415 . S
C630 H606 0.950 . S
C630 C625 1.363 . S
C630 C629 1.415 . S
C631 H607 0.951 . S
C631 C632 1.366 . S
C631 C633 1.388 . S
C632 C631 1.366 . S
C632 C636 1.385 . S
C633 H608 0.951 . S
C633 C631 1.388 . S
C633 C634 1.366 . S
C634 C633 1.366 . S
C634 C635 1.414 . S
C634 C637 1.499 . S
C635 H609 0.950 . S
C635 C634 1.414 . S
C635 C636 1.374 . S
C636 H610 0.950 . S
C636 C632 1.385 . S
C636 C635 1.374 . S
C637 C634 1.499 . S
C637 C638 1.373 . S
C637 C639 1.389 . S
C638 H611 0.950 . S
C638 C624 1.377 . S
C638 C637 1.373 . S
C639 C623 1.377 . S
C639 C637 1.389 . S
C639 C640 1.524 . S
C640 C639 1.524 . S
C640 C641 1.397 . S
C640 C645 1.363 . S
C641 H612 0.950 . S
C641 C640 1.397 . S
C641 C642 1.334 . S
C642 H613 0.950 . S
C642 C641 1.334 . S
C642 C643 1.287 . S
C643 C642 1.287 . S
C643 C644 1.524 . S
C643 H646 0.999 . S
C644 H614 0.950 . S
C644 C643 1.524 . S
C644 C645 1.415 . S
C645 H615 0.950 . S
C645 C640 1.363 . S
C645 C644 1.415 . S
H646 C643 0.999 . S
H647 C628 0.913 . S
H648 C666 0.951 . S
H649 C668 0.951 . S
H650 C670 0.950 . S
H651 C671 0.950 . S
H652 C673 0.950 . S
H653 C676 0.950 . S
H654 C677 0.950 . S
H655 C679 0.950 . S
H656 C680 0.950 . S
H657 C681 0.951 . S
H658 C683 0.951 . S
H659 C685 0.950 . S
H660 C686 0.950 . S
H661 C688 0.950 . S
H662 C691 0.950 . S
H663 C692 0.950 . S
H664 C694 0.950 . S
H665 C695 0.950 . S
C666 H648 0.951 . S
C666 C667 1.366 . S
C666 C668 1.388 . S
C667 C666 1.366 . S
C667 C671 1.385 . S
C668 H649 0.951 . S
C668 C666 1.388 . S
C668 C669 1.366 . S
C669 C668 1.366 . S
C669 C670 1.414 . S
C669 C672 1.499 . S
C670 H650 0.950 . S
C670 C669 1.414 . S
C670 C671 1.374 . S
C671 H651 0.950 . S
C671 C667 1.385 . S
C671 C670 1.374 . S
C672 C669 1.499 . S
C672 C673 1.373 . S
C672 C674 1.389 . S
C673 H652 0.950 . S
C673 C672 1.373 . S
C673 C689 1.377 . S
C674 C672 1.389 . S
C674 C675 1.524 . S
C674 C688 1.377 . S
C675 C674 1.524 . S
C675 C676 1.397 . S
C675 C680 1.363 . S
C676 H653 0.950 . S
C676 C675 1.397 . S
C676 C677 1.334 . S
C677 H654 0.950 . S
C677 C676 1.334 . S
C677 C678 1.287 . S
C678 C677 1.287 . S
C678 C679 1.524 . S
C678 H697 0.913 . S
C679 H655 0.950 . S
C679 C678 1.524 . S
C679 C680 1.415 . S
C680 H656 0.950 . S
C680 C675 1.363 . S
C680 C679 1.415 . S
C681 H657 0.951 . S
C681 C682 1.366 . S
C681 C683 1.388 . S
C682 C681 1.366 . S
C682 C686 1.385 . S
C683 H658 0.951 . S
C683 C681 1.388 . S
C683 C684 1.366 . S
C684 C683 1.366 . S
C684 C685 1.414 . S
C684 C687 1.499 . S
C685 H659 0.950 . S
C685 C684 1.414 . S
C685 C686 1.374 . S
C686 H660 0.950 . S
C686 C682 1.385 . S
C686 C685 1.374 . S
C687 C684 1.499 . S
C687 C688 1.373 . S
C687 C689 1.389 . S
C688 H661 0.950 . S
C688 C674 1.377 . S
C688 C687 1.373 . S
C689 C673 1.377 . S
C689 C687 1.389 . S
C689 C690 1.524 . S
C690 C689 1.524 . S
C690 C691 1.397 . S
C690 C695 1.363 . S
C691 H662 0.950 . S
C691 C690 1.397 . S
C691 C692 1.334 . S
C692 H663 0.950 . S
C692 C691 1.334 . S
C692 C693 1.287 . S
C693 C692 1.287 . S
C693 C694 1.524 . S
C693 H696 0.999 . S
C694 H664 0.950 . S
C694 C693 1.524 . S
C694 C695 1.415 . S
C695 H665 0.950 . S
C695 C690 1.363 . S
C695 C694 1.415 . S
H696 C693 0.999 . S
H697 C678 0.913 . S
H698 C716 0.951 . S
H699 C718 0.951 . S
H700 C720 0.950 . S
H701 C721 0.950 . S
H702 C723 0.950 . S
H703 C726 0.950 . S
H704 C727 0.950 . S
H705 C729 0.950 . S
H706 C730 0.950 . S
H707 C731 0.951 . S
H708 C733 0.951 . S
H709 C735 0.950 . S
H710 C736 0.950 . S
H711 C738 0.950 . S
H712 C741 0.950 . S
H713 C742 0.950 . S
H714 C744 0.950 . S
H715 C745 0.950 . S
C716 H698 0.951 . S
C716 C717 1.366 . S
C716 C718 1.388 . S
C717 C716 1.366 . S
C717 C721 1.385 . S
C718 H699 0.951 . S
C718 C716 1.388 . S
C718 C719 1.366 . S
C719 C718 1.366 . S
C719 C720 1.414 . S
C719 C722 1.499 . S
C720 H700 0.950 . S
C720 C719 1.414 . S
C720 C721 1.374 . S
C721 H701 0.950 . S
C721 C717 1.385 . S
C721 C720 1.374 . S
C722 C719 1.499 . S
C722 C723 1.373 . S
C722 C724 1.389 . S
C723 H702 0.950 . S
C723 C722 1.373 . S
C723 C739 1.377 . S
C724 C722 1.389 . S
C724 C725 1.524 . S
C724 C738 1.377 . S
C725 C724 1.524 . S
C725 C726 1.397 . S
C725 C730 1.363 . S
C726 H703 0.950 . S
C726 C725 1.397 . S
C726 C727 1.334 . S
C727 H704 0.950 . S
C727 C726 1.334 . S
C727 C728 1.287 . S
C728 C727 1.287 . S
C728 C729 1.524 . S
C728 H747 0.913 . S
C729 H705 0.950 . S
C729 C728 1.524 . S
C729 C730 1.415 . S
C730 H706 0.950 . S
C730 C725 1.363 . S
C730 C729 1.415 . S
C731 H707 0.951 . S
C731 C732 1.366 . S
C731 C733 1.388 . S
C732 C731 1.366 . S
C732 C736 1.385 . S
C733 H708 0.951 . S
C733 C731 1.388 . S
C733 C734 1.366 . S
C734 C733 1.366 . S
C734 C735 1.414 . S
C734 C737 1.499 . S
C735 H709 0.950 . S
C735 C734 1.414 . S
C735 C736 1.374 . S
C736 H710 0.950 . S
C736 C732 1.385 . S
C736 C735 1.374 . S
C737 C734 1.499 . S
C737 C738 1.373 . S
C737 C739 1.389 . S
C738 H711 0.950 . S
C738 C724 1.377 . S
C738 C737 1.373 . S
C739 C723 1.377 . S
C739 C737 1.389 . S
C739 C740 1.524 . S
C740 C739 1.524 . S
C740 C741 1.397 . S
C740 C745 1.363 . S
C741 H712 0.950 . S
C741 C740 1.397 . S
C741 C742 1.334 . S
C742 H713 0.950 . S
C742 C741 1.334 . S
C742 C743 1.287 . S
C743 C742 1.287 . S
C743 C744 1.524 . S
C743 H746 0.999 . S
C744 H714 0.950 . S
C744 C743 1.524 . S
C744 C745 1.415 . S
C745 H715 0.950 . S
C745 C740 1.363 . S
C745 C744 1.415 . S
H746 C743 0.999 . S
H747 C728 0.913 . S
H748 C766 0.951 . S
H749 C768 0.951 . S
H750 C770 0.950 . S
H751 C771 0.950 . S
H752 C773 0.950 . S
H753 C776 0.950 . S
H754 C777 0.950 . S
H755 C779 0.950 . S
H756 C780 0.950 . S
H757 C781 0.951 . S
H758 C783 0.951 . S
H759 C785 0.950 . S
H760 C786 0.950 . S
H761 C788 0.950 . S
H762 C791 0.950 . S
H763 C792 0.950 . S
H764 C794 0.950 . S
H765 C795 0.950 . S
C766 H748 0.951 . S
C766 C767 1.366 . S
C766 C768 1.388 . S
C767 C766 1.366 . S
C767 C771 1.385 . S
C768 H749 0.951 . S
C768 C766 1.388 . S
C768 C769 1.366 . S
C769 C768 1.366 . S
C769 C770 1.414 . S
C769 C772 1.499 . S
C770 H750 0.950 . S
C770 C769 1.414 . S
C770 C771 1.374 . S
C771 H751 0.950 . S
C771 C767 1.385 . S
C771 C770 1.374 . S
C772 C769 1.499 . S
C772 C773 1.373 . S
C772 C774 1.389 . S
C773 H752 0.950 . S
C773 C772 1.373 . S
C773 C789 1.377 . S
C774 C772 1.389 . S
C774 C775 1.524 . S
C774 C788 1.377 . S
C775 C774 1.524 . S
C775 C776 1.397 . S
C775 C780 1.363 . S
C776 H753 0.950 . S
C776 C775 1.397 . S
C776 C777 1.334 . S
C777 H754 0.950 . S
C777 C776 1.334 . S
C777 C778 1.287 . S
C778 C777 1.287 . S
C778 C779 1.524 . S
C778 H797 0.913 . S
C779 H755 0.950 . S
C779 C778 1.524 . S
C779 C780 1.415 . S
C780 H756 0.950 . S
C780 C775 1.363 . S
C780 C779 1.415 . S
C781 H757 0.951 . S
C781 C782 1.366 . S
C781 C783 1.388 . S
C782 C781 1.366 . S
C782 C786 1.385 . S
C783 H758 0.951 . S
C783 C781 1.388 . S
C783 C784 1.366 . S
C784 C783 1.366 . S
C784 C785 1.414 . S
C784 C787 1.499 . S
C785 H759 0.950 . S
C785 C784 1.414 . S
C785 C786 1.374 . S
C786 H760 0.950 . S
C786 C782 1.385 . S
C786 C785 1.374 . S
C787 C784 1.499 . S
C787 C788 1.373 . S
C787 C789 1.389 . S
C788 H761 0.950 . S
C788 C774 1.377 . S
C788 C787 1.373 . S
C789 C773 1.377 . S
C789 C787 1.389 . S
C789 C790 1.524 . S
C790 C789 1.524 . S
C790 C791 1.397 . S
C790 C795 1.363 . S
C791 H762 0.950 . S
C791 C790 1.397 . S
C791 C792 1.334 . S
C792 H763 0.950 . S
C792 C791 1.334 . S
C792 C793 1.287 . S
C793 C792 1.287 . S
C793 C794 1.524 . S
C793 H796 0.999 . S
C794 H764 0.950 . S
C794 C793 1.524 . S
C794 C795 1.415 . S
C795 H765 0.950 . S
C795 C790 1.363 . S
C795 C794 1.415 . S
H796 C793 0.999 . S
H797 C778 0.913 . S
H798 C816 0.951 . S
H799 C818 0.951 . S
H800 C820 0.950 . S
H801 C821 0.950 . S
H802 C823 0.950 . S
H803 C826 0.950 . S
H804 C827 0.950 . S
H805 C829 0.950 . S
H806 C830 0.950 . S
H807 C831 0.951 . S
H808 C833 0.951 . S
H809 C835 0.950 . S
H810 C836 0.950 . S
H811 C838 0.950 . S
H812 C841 0.950 . S
H813 C842 0.950 . S
H814 C844 0.950 . S
H815 C845 0.950 . S
C816 H798 0.951 . S
C816 C817 1.366 . S
C816 C818 1.388 . S
C817 C816 1.366 . S
C817 C821 1.385 . S
C818 H799 0.951 . S
C818 C816 1.388 . S
C818 C819 1.366 . S
C819 C818 1.366 . S
C819 C820 1.414 . S
C819 C822 1.499 . S
C820 H800 0.950 . S
C820 C819 1.414 . S
C820 C821 1.374 . S
C821 H801 0.950 . S
C821 C817 1.385 . S
C821 C820 1.374 . S
C822 C819 1.499 . S
C822 C823 1.373 . S
C822 C824 1.389 . S
C823 H802 0.950 . S
C823 C822 1.373 . S
C823 C839 1.377 . S
C824 C822 1.389 . S
C824 C825 1.524 . S
C824 C838 1.377 . S
C825 C824 1.524 . S
C825 C826 1.397 . S
C825 C830 1.363 . S
C826 H803 0.950 . S
C826 C825 1.397 . S
C826 C827 1.334 . S
C827 H804 0.950 . S
C827 C826 1.334 . S
C827 C828 1.287 . S
C828 C827 1.287 . S
C828 C829 1.524 . S
C828 H847 0.913 . S
C829 H805 0.950 . S
C829 C828 1.524 . S
C829 C830 1.415 . S
C830 H806 0.950 . S
C830 C825 1.363 . S
C830 C829 1.415 . S
C831 H807 0.951 . S
C831 C832 1.366 . S
C831 C833 1.388 . S
C832 C831 1.366 . S
C832 C836 1.385 . S
C833 H808 0.951 . S
C833 C831 1.388 . S
C833 C834 1.366 . S
C834 C833 1.366 . S
C834 C835 1.414 . S
C834 C837 1.499 . S
C835 H809 0.950 . S
C835 C834 1.414 . S
C835 C836 1.374 . S
C836 H810 0.950 . S
C836 C832 1.385 . S
C836 C835 1.374 . S
C837 C834 1.499 . S
C837 C838 1.373 . S
C837 C839 1.389 . S
C838 H811 0.950 . S
C838 C824 1.377 . S
C838 C837 1.373 . S
C839 C823 1.377 . S
C839 C837 1.389 . S
C839 C840 1.524 . S
C840 C839 1.524 . S
C840 C841 1.397 . S
C840 C845 1.363 . S
C841 H812 0.950 . S
C841 C840 1.397 . S
C841 C842 1.334 . S
C842 H813 0.950 . S
C842 C841 1.334 . S
C842 C843 1.287 . S
C843 C842 1.287 . S
C843 C844 1.524 . S
C843 H846 0.999 . S
C844 H814 0.950 . S
C844 C843 1.524 . S
C844 C845 1.415 . S
C845 H815 0.950 . S
C845 C840 1.363 . S
C845 C844 1.415 . S
H846 C843 0.999 . S
H847 C828 0.913 . S
H848 C866 0.951 . S
H849 C868 0.951 . S
H850 C870 0.950 . S
H851 C871 0.950 . S
H852 C873 0.950 . S
H853 C876 0.950 . S
H854 C877 0.950 . S
H855 C879 0.950 . S
H856 C880 0.950 . S
H857 C881 0.951 . S
H858 C883 0.951 . S
H859 C885 0.950 . S
H860 C886 0.950 . S
H861 C888 0.950 . S
H862 C891 0.950 . S
H863 C892 0.950 . S
H864 C894 0.950 . S
H865 C895 0.950 . S
C866 H848 0.951 . S
C866 C867 1.366 . S
C866 C868 1.388 . S
C867 C866 1.366 . S
C867 C871 1.385 . S
C868 H849 0.951 . S
C868 C866 1.388 . S
C868 C869 1.366 . S
C869 C868 1.366 . S
C869 C870 1.414 . S
C869 C872 1.499 . S
C870 H850 0.950 . S
C870 C869 1.414 . S
C870 C871 1.374 . S
C871 H851 0.950 . S
C871 C867 1.385 . S
C871 C870 1.374 . S
C872 C869 1.499 . S
C872 C873 1.373 . S
C872 C874 1.389 . S
C873 H852 0.950 . S
C873 C872 1.373 . S
C873 C889 1.377 . S
C874 C872 1.389 . S
C874 C875 1.524 . S
C874 C888 1.377 . S
C875 C874 1.524 . S
C875 C876 1.397 . S
C875 C880 1.363 . S
C876 H853 0.950 . S
C876 C875 1.397 . S
C876 C877 1.334 . S
C877 H854 0.950 . S
C877 C876 1.334 . S
C877 C878 1.287 . S
C878 C877 1.287 . S
C878 C879 1.524 . S
C878 H897 0.913 . S
C879 H855 0.950 . S
C879 C878 1.524 . S
C879 C880 1.415 . S
C880 H856 0.950 . S
C880 C875 1.363 . S
C880 C879 1.415 . S
C881 H857 0.951 . S
C881 C882 1.366 . S
C881 C883 1.388 . S
C882 C881 1.366 . S
C882 C886 1.385 . S
C883 H858 0.951 . S
C883 C881 1.388 . S
C883 C884 1.366 . S
C884 C883 1.366 . S
C884 C885 1.414 . S
C884 C887 1.499 . S
C885 H859 0.950 . S
C885 C884 1.414 . S
C885 C886 1.374 . S
C886 H860 0.950 . S
C886 C882 1.385 . S
C886 C885 1.374 . S
C887 C884 1.499 . S
C887 C888 1.373 . S
C887 C889 1.389 . S
C888 H861 0.950 . S
C888 C874 1.377 . S
C888 C887 1.373 . S
C889 C873 1.377 . S
C889 C887 1.389 . S
C889 C890 1.524 . S
C890 C889 1.524 . S
C890 C891 1.397 . S
C890 C895 1.363 . S
C891 H862 0.950 . S
C891 C890 1.397 . S
C891 C892 1.334 . S
C892 H863 0.950 . S
C892 C891 1.334 . S
C892 C893 1.287 . S
C893 C892 1.287 . S
C893 C894 1.524 . S
C893 H896 0.999 . S
C894 H864 0.950 . S
C894 C893 1.524 . S
C894 C895 1.415 . S
C895 H865 0.950 . S
C895 C890 1.363 . S
C895 C894 1.415 . S
H896 C893 0.999 . S
H897 C878 0.913 . S
H898 C916 0.951 . S
H899 C918 0.951 . S
H900 C920 0.950 . S
H901 C921 0.950 . S
H902 C923 0.950 . S
H903 C926 0.950 . S
H904 C927 0.950 . S
H905 C929 0.950 . S
H906 C930 0.950 . S
H907 C931 0.951 . S
H908 C933 0.951 . S
H909 C935 0.950 . S
H910 C936 0.950 . S
H911 C938 0.950 . S
H912 C941 0.950 . S
H913 C942 0.950 . S
H914 C944 0.950 . S
H915 C945 0.950 . S
C916 H898 0.951 . S
C916 C917 1.366 . S
C916 C918 1.388 . S
C917 C916 1.366 . S
C917 C921 1.385 . S
C918 H899 0.951 . S
C918 C916 1.388 . S
C918 C919 1.366 . S
C919 C918 1.366 . S
C919 C920 1.414 . S
C919 C922 1.499 . S
C920 H900 0.950 . S
C920 C919 1.414 . S
C920 C921 1.374 . S
C921 H901 0.950 . S
C921 C917 1.385 . S
C921 C920 1.374 . S
C922 C919 1.499 . S
C922 C923 1.373 . S
C922 C924 1.389 . S
C923 H902 0.950 . S
C923 C922 1.373 . S
C923 C939 1.377 . S
C924 C922 1.389 . S
C924 C925 1.524 . S
C924 C938 1.377 . S
C925 C924 1.524 . S
C925 C926 1.397 . S
C925 C930 1.363 . S
C926 H903 0.950 . S
C926 C925 1.397 . S
C926 C927 1.334 . S
C927 H904 0.950 . S
C927 C926 1.334 . S
C927 C928 1.287 . S
C928 C927 1.287 . S
C928 C929 1.524 . S
C928 H947 0.913 . S
C929 H905 0.950 . S
C929 C928 1.524 . S
C929 C930 1.415 . S
C930 H906 0.950 . S
C930 C925 1.363 . S
C930 C929 1.415 . S
C931 H907 0.951 . S
C931 C932 1.366 . S
C931 C933 1.388 . S
C932 C931 1.366 . S
C932 C936 1.385 . S
C933 H908 0.951 . S
C933 C931 1.388 . S
C933 C934 1.366 . S
C934 C933 1.366 . S
C934 C935 1.414 . S
C934 C937 1.499 . S
C935 H909 0.950 . S
C935 C934 1.414 . S
C935 C936 1.374 . S
C936 H910 0.950 . S
C936 C932 1.385 . S
C936 C935 1.374 . S
C937 C934 1.499 . S
C937 C938 1.373 . S
C937 C939 1.389 . S
C938 H911 0.950 . S
C938 C924 1.377 . S
C938 C937 1.373 . S
C939 C923 1.377 . S
C939 C937 1.389 . S
C939 C940 1.524 . S
C940 C939 1.524 . S
C940 C941 1.397 . S
C940 C945 1.363 . S
C941 H912 0.950 . S
C941 C940 1.397 . S
C941 C942 1.334 . S
C942 H913 0.950 . S
C942 C941 1.334 . S
C942 C943 1.287 . S
C943 C942 1.287 . S
C943 C944 1.524 . S
C943 H946 0.999 . S
C944 H914 0.950 . S
C944 C943 1.524 . S
C944 C945 1.415 . S
C945 H915 0.950 . S
C945 C940 1.363 . S
C945 C944 1.415 . S
H946 C943 0.999 . S
H947 C928 0.913 . S
H948 C966 0.951 . S
H949 C968 0.951 . S
H950 C970 0.950 . S
H951 C971 0.950 . S
H952 C973 0.950 . S
H953 C976 0.950 . S
H954 C977 0.950 . S
H955 C979 0.950 . S
H956 C980 0.950 . S
H957 C981 0.951 . S
H958 C983 0.951 . S
H959 C985 0.950 . S
H960 C986 0.950 . S
H961 C988 0.950 . S
H962 C991 0.950 . S
H963 C992 0.950 . S
H964 C994 0.950 . S
H965 C995 0.950 . S
C966 H948 0.951 . S
C966 C967 1.366 . S
C966 C968 1.388 . S
C967 C966 1.366 . S
C967 C971 1.385 . S
C968 H949 0.951 . S
C968 C966 1.388 . S
C968 C969 1.366 . S
C969 C968 1.366 . S
C969 C970 1.414 . S
C969 C972 1.499 . S
C970 H950 0.950 . S
C970 C969 1.414 . S
C970 C971 1.374 . S
C971 H951 0.950 . S
C971 C967 1.385 . S
C971 C970 1.374 . S
C972 C969 1.499 . S
C972 C973 1.373 . S
C972 C974 1.389 . S
C973 H952 0.950 . S
C973 C972 1.373 . S
C973 C989 1.377 . S
C974 C972 1.389 . S
C974 C975 1.524 . S
C974 C988 1.377 . S
C975 C974 1.524 . S
C975 C976 1.397 . S
C975 C980 1.363 . S
C976 H953 0.950 . S
C976 C975 1.397 . S
C976 C977 1.334 . S
C977 H954 0.950 . S
C977 C976 1.334 . S
C977 C978 1.287 . S
C978 C977 1.287 . S
C978 C979 1.524 . S
C978 H997 0.913 . S
C979 H955 0.950 . S
C979 C978 1.524 . S
C979 C980 1.415 . S
C980 H956 0.950 . S
C980 C975 1.363 . S
C980 C979 1.415 . S
C981 H957 0.951 . S
C981 C982 1.366 . S
C981 C983 1.388 . S
C982 C981 1.366 . S
C982 C986 1.385 . S
C983 H958 0.951 . S
C983 C981 1.388 . S
C983 C984 1.366 . S
C984 C983 1.366 . S
C984 C985 1.414 . S
C984 C987 1.499 . S
C985 H959 0.950 . S
C985 C984 1.414 . S
C985 C986 1.374 . S
C986 H960 0.950 . S
C986 C982 1.385 . S
C986 C985 1.374 . S
C987 C984 1.499 . S
C987 C988 1.373 . S
C987 C989 1.389 . S
C988 H961 0.950 . S
C988 C974 1.377 . S
C988 C987 1.373 . S
C989 C973 1.377 . S
C989 C987 1.389 . S
C989 C990 1.524 . S
C990 C989 1.524 . S
C990 C991 1.397 . S
C990 C995 1.363 . S
C991 H962 0.950 . S
C991 C990 1.397 . S
C991 C992 1.334 . S
C992 H963 0.950 . S
C992 C991 1.334 . S
C992 C993 1.287 . S
C993 C992 1.287 . S
C993 C994 1.524 . S
C993 H996 0.999 . S
C994 H964 0.950 . S
C994 C993 1.524 . S
C994 C995 1.415 . S
C995 H965 0.950 . S
C995 C990 1.363 . S
C995 C994 1.415 . S
H996 C993 0.999 . S
H997 C978 0.913 . S
H998 C1016 0.951 . S
H999 C1018 0.951 . S
H1000 C1020 0.950 . S
H1001 C1021 0.950 . S
H1002 C1023 0.950 . S
H1003 C1026 0.950 . S
H1004 C1027 0.950 . S
H1005 C1029 0.950 . S
H1006 C1030 0.950 . S
H1007 C1031 0.951 . S
H1008 C1033 0.951 . S
H1009 C1035 0.950 . S
H1010 C1036 0.950 . S
H1011 C1038 0.950 . S
H1012 C1041 0.950 . S
H1013 C1042 0.950 . S
H1014 C1044 0.950 . S
H1015 C1045 0.950 . S
C1016 H998 0.951 . S
C1016 C1017 1.366 . S
C1016 C1018 1.388 . S
C1017 C1016 1.366 . S
C1017 C1021 1.385 . S
C1018 H999 0.951 . S
C1018 C1016 1.388 . S
C1018 C1019 1.366 . S
C1019 C1018 1.366 . S
C1019 C1020 1.414 . S
C1019 C1022 1.499 . S
C1020 H1000 0.950 . S
C1020 C1019 1.414 . S
C1020 C1021 1.374 . S
C1021 H1001 0.950 . S
C1021 C1017 1.385 . S
C1021 C1020 1.374 . S
C1022 C1019 1.499 . S
C1022 C1023 1.373 . S
C1022 C1024 1.389 . S
C1023 H1002 0.950 . S
C1023 C1022 1.373 . S
C1023 C1039 1.377 . S
C1024 C1022 1.389 . S
C1024 C1025 1.524 . S
C1024 C1038 1.377 . S
C1025 C1024 1.524 . S
C1025 C1026 1.397 . S
C1025 C1030 1.363 . S
C1026 H1003 0.950 . S
C1026 C1025 1.397 . S
C1026 C1027 1.334 . S
C1027 H1004 0.950 . S
C1027 C1026 1.334 . S
C1027 C1028 1.287 . S
C1028 C1027 1.287 . S
C1028 C1029 1.524 . S
C1028 H1047 0.913 . S
C1029 H1005 0.950 . S
C1029 C1028 1.524 . S
C1029 C1030 1.415 . S
C1030 H1006 0.950 . S
C1030 C1025 1.363 . S
C1030 C1029 1.415 . S
C1031 H1007 0.951 . S
C1031 C1032 1.366 . S
C1031 C1033 1.388 . S
C1032 C1031 1.366 . S
C1032 C1036 1.385 . S
C1033 H1008 0.951 . S
C1033 C1031 1.388 . S
C1033 C1034 1.366 . S
C1034 C1033 1.366 . S
C1034 C1035 1.414 . S
C1034 C1037 1.499 . S
C1035 H1009 0.950 . S
C1035 C1034 1.414 . S
C1035 C1036 1.374 . S
C1036 H1010 0.950 . S
C1036 C1032 1.385 . S
C1036 C1035 1.374 . S
C1037 C1034 1.499 . S
C1037 C1038 1.373 . S
C1037 C1039 1.389 . S
C1038 H1011 0.950 . S
C1038 C1024 1.377 . S
C1038 C1037 1.373 . S
C1039 C1023 1.377 . S
C1039 C1037 1.389 . S
C1039 C1040 1.524 . S
C1040 C1039 1.524 . S
C1040 C1041 1.397 . S
C1040 C1045 1.363 . S
C1041 H1012 0.950 . S
C1041 C1040 1.397 . S
C1041 C1042 1.334 . S
C1042 H1013 0.950 . S
C1042 C1041 1.334 . S
C1042 C1043 1.287 . S
C1043 C1042 1.287 . S
C1043 C1044 1.524 . S
C1043 H1046 0.999 . S
C1044 H1014 0.950 . S
C1044 C1043 1.524 . S
C1044 C1045 1.415 . S
C1045 H1015 0.950 . S
C1045 C1040 1.363 . S
C1045 C1044 1.415 . S
H1046 C1043 0.999 . S
H1047 C1028 0.913 . S
H1048 C1066 0.951 . S
H1049 C1068 0.951 . S
H1050 C1070 0.950 . S
H1051 C1071 0.950 . S
H1052 C1073 0.950 . S
H1053 C1076 0.950 . S
H1054 C1077 0.950 . S
H1055 C1079 0.950 . S
H1056 C1080 0.950 . S
H1057 C1081 0.951 . S
H1058 C1083 0.951 . S
H1059 C1085 0.950 . S
H1060 C1086 0.950 . S
H1061 C1088 0.950 . S
H1062 C1091 0.950 . S
H1063 C1092 0.950 . S
H1064 C1094 0.950 . S
H1065 C1095 0.950 . S
C1066 H1048 0.951 . S
C1066 C1067 1.366 . S
C1066 C1068 1.388 . S
C1067 C1066 1.366 . S
C1067 C1071 1.385 . S
C1068 H1049 0.951 . S
C1068 C1066 1.388 . S
C1068 C1069 1.366 . S
C1069 C1068 1.366 . S
C1069 C1070 1.414 . S
C1069 C1072 1.499 . S
C1070 H1050 0.950 . S
C1070 C1069 1.414 . S
C1070 C1071 1.374 . S
C1071 H1051 0.950 . S
C1071 C1067 1.385 . S
C1071 C1070 1.374 . S
C1072 C1069 1.499 . S
C1072 C1073 1.373 . S
C1072 C1074 1.389 . S
C1073 H1052 0.950 . S
C1073 C1072 1.373 . S
C1073 C1089 1.377 . S
C1074 C1072 1.389 . S
C1074 C1075 1.524 . S
C1074 C1088 1.377 . S
C1075 C1074 1.524 . S
C1075 C1076 1.397 . S
C1075 C1080 1.363 . S
C1076 H1053 0.950 . S
C1076 C1075 1.397 . S
C1076 C1077 1.334 . S
C1077 H1054 0.950 . S
C1077 C1076 1.334 . S
C1077 C1078 1.287 . S
C1078 C1077 1.287 . S
C1078 C1079 1.524 . S
C1078 H1097 0.913 . S
C1079 H1055 0.950 . S
C1079 C1078 1.524 . S
C1079 C1080 1.415 . S
C1080 H1056 0.950 . S
C1080 C1075 1.363 . S
C1080 C1079 1.415 . S
C1081 H1057 0.951 . S
C1081 C1082 1.366 . S
C1081 C1083 1.388 . S
C1082 C1081 1.366 . S
C1082 C1086 1.385 . S
C1083 H1058 0.951 . S
C1083 C1081 1.388 . S
C1083 C1084 1.366 . S
C1084 C1083 1.366 . S
C1084 C1085 1.414 . S
C1084 C1087 1.499 . S
C1085 H1059 0.950 . S
C1085 C1084 1.414 . S
C1085 C1086 1.374 . S
C1086 H1060 0.950 . S
C1086 C1082 1.385 . S
C1086 C1085 1.374 . S
C1087 C1084 1.499 . S
C1087 C1088 1.373 . S
C1087 C1089 1.389 . S
C1088 H1061 0.950 . S
C1088 C1074 1.377 . S
C1088 C1087 1.373 . S
C1089 C1073 1.377 . S
C1089 C1087 1.389 . S
C1089 C1090 1.524 . S
C1090 C1089 1.524 . S
C1090 C1091 1.397 . S
C1090 C1095 1.363 . S
C1091 H1062 0.950 . S
C1091 C1090 1.397 . S
C1091 C1092 1.334 . S
C1092 H1063 0.950 . S
C1092 C1091 1.334 . S
C1092 C1093 1.287 . S
C1093 C1092 1.287 . S
C1093 C1094 1.524 . S
C1093 H1096 0.999 . S
C1094 H1064 0.950 . S
C1094 C1093 1.524 . S
C1094 C1095 1.415 . S
C1095 H1065 0.950 . S
C1095 C1090 1.363 . S
C1095 C1094 1.415 . S
H1096 C1093 0.999 . S
H1097 C1078 0.913 . S
H1098 C1116 0.951 . S
H1099 C1118 0.951 . S
H1100 C1120 0.950 . S
H1101 C1121 0.950 . S
H1102 C1123 0.950 . S
H1103 C1126 0.950 . S
H1104 C1127 0.950 . S
H1105 C1129 0.950 . S
H1106 C1130 0.950 . S
H1107 C1131 0.951 . S
H1108 C1133 0.951 . S
H1109 C1135 0.950 . S
H1110 C1136 0.950 . S
H1111 C1138 0.950 . S
H1112 C1141 0.950 . S
H1113 C1142 0.950 . S
H1114 C1144 0.950 . S
H1115 C1145 0.950 . S
C1116 H1098 0.951 . S
C1116 C1117 1.366 . S
C1116 C1118 1.388 . S
C1117 C1116 1.366 . S
C1117 C1121 1.385 . S
C1118 H1099 0.951 . S
C1118 C1116 1.388 . S
C1118 C1119 1.366 . S
C1119 C1118 1.366 . S
C1119 C1120 1.414 . S
C1119 C1122 1.499 . S
C1120 H1100 0.950 . S
C1120 C1119 1.414 . S
C1120 C1121 1.374 . S
C1121 H1101 0.950 . S
C1121 C1117 1.385 . S
C1121 C1120 1.374 . S
C1122 C1119 1.499 . S
C1122 C1123 1.373 . S
C1122 C1124 1.389 . S
C1123 H1102 0.950 . S
C1123 C1122 1.373 . S
C1123 C1139 1.377 . S
C1124 C1122 1.389 . S
C1124 C1125 1.524 . S
C1124 C1138 1.377 . S
C1125 C1124 1.524 . S
C1125 C1126 1.397 . S
C1125 C1130 1.363 . S
C1126 H1103 0.950 . S
C1126 C1125 1.397 . S
C1126 C1127 1.334 . S
C1127 H1104 0.950 . S
C1127 C1126 1.334 . S
C1127 C1128 1.287 . S
C1128 C1127 1.287 . S
C1128 C1129 1.524 . S
C1128 H1147 0.913 . S
C1129 H1105 0.950 . S
C1129 C1128 1.524 . S
C1129 C1130 1.415 . S
C1130 H1106 0.950 . S
C1130 C1125 1.363 . S
C1130 C1129 1.415 . S
C1131 H1107 0.951 . S
C1131 C1132 1.366 . S
C1131 C1133 1.388 . S
C1132 C1131 1.366 . S
C1132 C1136 1.385 . S
C1133 H1108 0.951 . S
C1133 C1131 1.388 . S
C1133 C1134 1.366 . S
C1134 C1133 1.366 . S
C1134 C1135 1.414 . S
C1134 C1137 1.499 . S
C1135 H1109 0.950 . S
C1135 C1134 1.414 . S
C1135 C1136 1.374 . S
C1136 H1110 0.950 . S
C1136 C1132 1.385 . S
C1136 C1135 1.374 . S
C1137 C1134 1.499 . S
C1137 C1138 1.373 . S
C1137 C1139 1.389 . S
C1138 H1111 0.950 . S
C1138 C1124 1.377 . S
C1138 C1137 1.373 . S
C1139 C1123 1.377 . S
C1139 C1137 1.389 . S
C1139 C1140 1.524 . S
C1140 C1139 1.524 . S
C1140 C1141 1.397 . S
C1140 C1145 1.363 . S
C1141 H1112 0.950 . S
C1141 C1140 1.397 . S
C1141 C1142 1.334 . S
C1142 H1113 0.950 . S
C1142 C1141 1.334 . S
C1142 C1143 1.287 . S
C1143 C1142 1.287 . S
C1143 C1144 1.524 . S
C1143 H1146 0.999 . S
C1144 H1114 0.950 . S
C1144 C1143 1.524 . S
C1144 C1145 1.415 . S
C1145 H1115 0.950 . S
C1145 C1140 1.363 . S
C1145 C1144 1.415 . S
H1146 C1143 0.999 . S
H1147 C1128 0.913 . S
H1148 C1166 0.951 . S
H1149 C1168 0.951 . S
H1150 C1170 0.950 . S
H1151 C1171 0.950 . S
H1152 C1173 0.950 . S
H1153 C1176 0.950 . S
H1154 C1177 0.950 . S
H1155 C1179 0.950 . S
H1156 C1180 0.950 . S
H1157 C1181 0.951 . S
H1158 C1183 0.951 . S
H1159 C1185 0.950 . S
H1160 C1186 0.950 . S
H1161 C1188 0.950 . S
H1162 C1191 0.950 . S
H1163 C1192 0.950 . S
H1164 C1194 0.950 . S
H1165 C1195 0.950 . S
C1166 H1148 0.951 . S
C1166 C1167 1.366 . S
C1166 C1168 1.388 . S
C1167 C1166 1.366 . S
C1167 C1171 1.385 . S
C1168 H1149 0.951 . S
C1168 C1166 1.388 . S
C1168 C1169 1.366 . S
C1169 C1168 1.366 . S
C1169 C1170 1.414 . S
C1169 C1172 1.499 . S
C1170 H1150 0.950 . S
C1170 C1169 1.414 . S
C1170 C1171 1.374 . S
C1171 H1151 0.950 . S
C1171 C1167 1.385 . S
C1171 C1170 1.374 . S
C1172 C1169 1.499 . S
C1172 C1173 1.373 . S
C1172 C1174 1.389 . S
C1173 H1152 0.950 . S
C1173 C1172 1.373 . S
C1173 C1189 1.377 . S
C1174 C1172 1.389 . S
C1174 C1175 1.524 . S
C1174 C1188 1.377 . S
C1175 C1174 1.524 . S
C1175 C1176 1.397 . S
C1175 C1180 1.363 . S
C1176 H1153 0.950 . S
C1176 C1175 1.397 . S
C1176 C1177 1.334 . S
C1177 H1154 0.950 . S
C1177 C1176 1.334 . S
C1177 C1178 1.287 . S
C1178 C1177 1.287 . S
C1178 C1179 1.524 . S
C1178 H1197 0.913 . S
C1179 H1155 0.950 . S
C1179 C1178 1.524 . S
C1179 C1180 1.415 . S
C1180 H1156 0.950 . S
C1180 C1175 1.363 . S
C1180 C1179 1.415 . S
C1181 H1157 0.951 . S
C1181 C1182 1.366 . S
C1181 C1183 1.388 . S
C1182 C1181 1.366 . S
C1182 C1186 1.385 . S
C1183 H1158 0.951 . S
C1183 C1181 1.388 . S
C1183 C1184 1.366 . S
C1184 C1183 1.366 . S
C1184 C1185 1.414 . S
C1184 C1187 1.499 . S
C1185 H1159 0.950 . S
C1185 C1184 1.414 . S
C1185 C1186 1.374 . S
C1186 H1160 0.950 . S
C1186 C1182 1.385 . S
C1186 C1185 1.374 . S
C1187 C1184 1.499 . S
C1187 C1188 1.373 . S
C1187 C1189 1.389 . S
C1188 H1161 0.950 . S
C1188 C1174 1.377 . S
C1188 C1187 1.373 . S
C1189 C1173 1.377 . S
C1189 C1187 1.389 . S
C1189 C1190 1.524 . S
C1190 C1189 1.524 . S
C1190 C1191 1.397 . S
C1190 C1195 1.363 . S
C1191 H1162 0.950 . S
C1191 C1190 1.397 . S
C1191 C1192 1.334 . S
C1192 H1163 0.950 . S
C1192 C1191 1.334 . S
C1192 C1193 1.287 . S
C1193 C1192 1.287 . S
C1193 C1194 1.524 . S
C1193 H1196 0.999 . S
C1194 H1164 0.950 . S
C1194 C1193 1.524 . S
C1194 C1195 1.415 . S
C1195 H1165 0.950 . S
C1195 C1190 1.363 . S
C1195 C1194 1.415 . S
H1196 C1193 0.999 . S
H1197 C1178 0.913 . S
H1198 C1216 0.951 . S
H1199 C1218 0.951 . S
H1200 C1220 0.950 . S
H1201 C1221 0.950 . S
H1202 C1223 0.950 . S
H1203 C1226 0.950 . S
H1204 C1227 0.950 . S
H1205 C1229 0.950 . S
H1206 C1230 0.950 . S
H1207 C1231 0.951 . S
H1208 C1233 0.951 . S
H1209 C1235 0.950 . S
H1210 C1236 0.950 . S
H1211 C1238 0.950 . S
H1212 C1241 0.950 . S
H1213 C1242 0.950 . S
H1214 C1244 0.950 . S
H1215 C1245 0.950 . S
C1216 H1198 0.951 . S
C1216 C1217 1.366 . S
C1216 C1218 1.388 . S
C1217 C1216 1.366 . S
C1217 C1221 1.385 . S
C1218 H1199 0.951 . S
C1218 C1216 1.388 . S
C1218 C1219 1.366 . S
C1219 C1218 1.366 . S
C1219 C1220 1.414 . S
C1219 C1222 1.499 . S
C1220 H1200 0.950 . S
C1220 C1219 1.414 . S
C1220 C1221 1.374 . S
C1221 H1201 0.950 . S
C1221 C1217 1.385 . S
C1221 C1220 1.374 . S
C1222 C1219 1.499 . S
C1222 C1223 1.373 . S
C1222 C1224 1.389 . S
C1223 H1202 0.950 . S
C1223 C1222 1.373 . S
C1223 C1239 1.377 . S
C1224 C1222 1.389 . S
C1224 C1225 1.524 . S
C1224 C1238 1.377 . S
C1225 C1224 1.524 . S
C1225 C1226 1.397 . S
C1225 C1230 1.363 . S
C1226 H1203 0.950 . S
C1226 C1225 1.397 . S
C1226 C1227 1.334 . S
C1227 H1204 0.950 . S
C1227 C1226 1.334 . S
C1227 C1228 1.287 . S
C1228 C1227 1.287 . S
C1228 C1229 1.524 . S
C1228 H1247 0.913 . S
C1229 H1205 0.950 . S
C1229 C1228 1.524 . S
C1229 C1230 1.415 . S
C1230 H1206 0.950 . S
C1230 C1225 1.363 . S
C1230 C1229 1.415 . S
C1231 H1207 0.951 . S
C1231 C1232 1.366 . S
C1231 C1233 1.388 . S
C1232 C1231 1.366 . S
C1232 C1236 1.385 . S
C1233 H1208 0.951 . S
C1233 C1231 1.388 . S
C1233 C1234 1.366 . S
C1234 C1233 1.366 . S
C1234 C1235 1.414 . S
C1234 C1237 1.499 . S
C1235 H1209 0.950 . S
C1235 C1234 1.414 . S
C1235 C1236 1.374 . S
C1236 H1210 0.950 . S
C1236 C1232 1.385 . S
C1236 C1235 1.374 . S
C1237 C1234 1.499 . S
C1237 C1238 1.373 . S
C1237 C1239 1.389 . S
C1238 H1211 0.950 . S
C1238 C1224 1.377 . S
C1238 C1237 1.373 . S
C1239 C1223 1.377 . S
C1239 C1237 1.389 . S
C1239 C1240 1.524 . S
C1240 C1239 1.524 . S
C1240 C1241 1.397 . S
C1240 C1245 1.363 . S
C1241 H1212 0.950 . S
C1241 C1240 1.397 . S
C1241 C1242 1.334 . S
C1242 H1213 0.950 . S
C1242 C1241 1.334 . S
C1242 C1243 1.287 . S
C1243 C1242 1.287 . S
C1243 C1244 1.524 . S
C1243 H1246 0.999 . S
C1244 H1214 0.950 . S
C1244 C1243 1.524 . S
C1244 C1245 1.415 . S
C1245 H1215 0.950 . S
C1245 C1240 1.363 . S
C1245 C1244 1.415 . S
H1246 C1243 0.999 . S
H1247 C1228 0.913 . S
H1248 C1266 0.951 . S
H1249 C1268 0.951 . S
H1250 C1270 0.950 . S
H1251 C1271 0.950 . S
H1252 C1273 0.950 . S
H1253 C1276 0.950 . S
H1254 C1277 0.950 . S
H1255 C1279 0.950 . S
H1256 C1280 0.950 . S
H1257 C1281 0.951 . S
H1258 C1283 0.951 . S
H1259 C1285 0.950 . S
H1260 C1286 0.950 . S
H1261 C1288 0.950 . S
H1262 C1291 0.950 . S
H1263 C1292 0.950 . S
H1264 C1294 0.950 . S
H1265 C1295 0.950 . S
C1266 H1248 0.951 . S
C1266 C1267 1.366 . S
C1266 C1268 1.388 . S
C1267 C1266 1.366 . S
C1267 C1271 1.385 . S
C1268 H1249 0.951 . S
C1268 C1266 1.388 . S
C1268 C1269 1.366 . S
C1269 C1268 1.366 . S
C1269 C1270 1.414 . S
C1269 C1272 1.499 . S
C1270 H1250 0.950 . S
C1270 C1269 1.414 . S
C1270 C1271 1.374 . S
C1271 H1251 0.950 . S
C1271 C1267 1.385 . S
C1271 C1270 1.374 . S
C1272 C1269 1.499 . S
C1272 C1273 1.373 . S
C1272 C1274 1.389 . S
C1273 H1252 0.950 . S
C1273 C1272 1.373 . S
C1273 C1289 1.377 . S
C1274 C1272 1.389 . S
C1274 C1275 1.524 . S
C1274 C1288 1.377 . S
C1275 C1274 1.524 . S
C1275 C1276 1.397 . S
C1275 C1280 1.363 . S
C1276 H1253 0.950 . S
C1276 C1275 1.397 . S
C1276 C1277 1.334 . S
C1277 H1254 0.950 . S
C1277 C1276 1.334 . S
C1277 C1278 1.287 . S
C1278 C1277 1.287 . S
C1278 C1279 1.524 . S
C1278 H1297 0.913 . S
C1279 H1255 0.950 . S
C1279 C1278 1.524 . S
C1279 C1280 1.415 . S
C1280 H1256 0.950 . S
C1280 C1275 1.363 . S
C1280 C1279 1.415 . S
C1281 H1257 0.951 . S
C1281 C1282 1.366 . S
C1281 C1283 1.388 . S
C1282 C1281 1.366 . S
C1282 C1286 1.385 . S
C1283 H1258 0.951 . S
C1283 C1281 1.388 . S
C1283 C1284 1.366 . S
C1284 C1283 1.366 . S
C1284 C1285 1.414 . S
C1284 C1287 1.499 . S
C1285 H1259 0.950 . S
C1285 C1284 1.414 . S
C1285 C1286 1.374 . S
C1286 H1260 0.950 . S
C1286 C1282 1.385 . S
C1286 C1285 1.374 . S
C1287 C1284 1.499 . S
C1287 C1288 1.373 . S
C1287 C1289 1.389 . S
C1288 H1261 0.950 . S
C1288 C1274 1.377 . S
C1288 C1287 1.373 . S
C1289 C1273 1.377 . S
C1289 C1287 1.389 . S
C1289 C1290 1.524 . S
C1290 C1289 1.524 . S
C1290 C1291 1.397 . S
C1290 C1295 1.363 . S
C1291 H1262 0.950 . S
C1291 C1290 1.397 . S
C1291 C1292 1.334 . S
C1292 H1263 0.950 . S
C1292 C1291 1.334 . S
C1292 C1293 1.287 . S
C1293 C1292 1.287 . S
C1293 C1294 1.524 . S
C1293 H1296 0.999 . S
C1294 H1264 0.950 . S
C1294 C1293 1.524 . S
C1294 C1295 1.415 . S
C1295 H1265 0.950 . S
C1295 C1290 1.363 . S
C1295 C1294 1.415 . S
H1296 C1293 0.999 . S
H1297 C1278 0.913 . S
H1298 C1316 0.951 . S
H1299 C1318 0.951 . S
H1300 C1320 0.950 . S
H1301 C1321 0.950 . S
H1302 C1323 0.950 . S
H1303 C1326 0.950 . S
H1304 C1327 0.950 . S
H1305 C1329 0.950 . S
H1306 C1330 0.950 . S
H1307 C1331 0.951 . S
H1308 C1333 0.951 . S
H1309 C1335 0.950 . S
H1310 C1336 0.950 . S
H1311 C1338 0.950 . S
H1312 C1341 0.950 . S
H1313 C1342 0.950 1_455 S
H1314 C1344 0.950 . S
H1315 C1345 0.950 . S
C1316 H1298 0.951 . S
C1316 C1317 1.366 . S
C1316 C1318 1.388 . S
C1317 C1316 1.366 . S
C1317 C1321 1.385 . S
C1318 H1299 0.951 . S
C1318 C1316 1.388 . S
C1318 C1319 1.366 . S
C1319 C1318 1.366 . S
C1319 C1320 1.414 . S
C1319 C1322 1.499 . S
C1320 H1300 0.950 . S
C1320 C1319 1.414 . S
C1320 C1321 1.374 . S
C1321 H1301 0.950 . S
C1321 C1317 1.385 . S
C1321 C1320 1.374 . S
C1322 C1319 1.499 . S
C1322 C1323 1.373 . S
C1322 C1324 1.389 . S
C1323 H1302 0.950 . S
C1323 C1322 1.373 . S
C1323 C1339 1.377 . S
C1324 C1322 1.389 . S
C1324 C1325 1.524 . S
C1324 C1338 1.377 . S
C1325 C1324 1.524 . S
C1325 C1326 1.397 . S
C1325 C1330 1.363 . S
C1326 H1303 0.950 . S
C1326 C1325 1.397 . S
C1326 C1327 1.334 . S
C1327 H1304 0.950 . S
C1327 C1326 1.334 . S
C1327 C1328 1.287 . S
C1328 C1327 1.287 . S
C1328 C1329 1.524 . S
C1328 H1347 0.913 . S
C1329 H1305 0.950 . S
C1329 C1328 1.524 . S
C1329 C1330 1.415 . S
C1330 H1306 0.950 . S
C1330 C1325 1.363 . S
C1330 C1329 1.415 . S
C1331 H1307 0.951 . S
C1331 C1332 1.366 . S
C1331 C1333 1.388 1_455 S
C1332 C1331 1.366 . S
C1332 C1336 1.385 . S
C1333 H1308 0.951 . S
C1333 C1331 1.388 1_655 S
C1333 C1334 1.366 . S
C1334 C1333 1.366 . S
C1334 C1335 1.414 1_655 S
C1334 C1337 1.499 . S
C1335 H1309 0.950 . S
C1335 C1334 1.414 1_455 S
C1335 C1336 1.374 . S
C1336 H1310 0.950 . S
C1336 C1332 1.385 . S
C1336 C1335 1.374 . S
C1337 C1334 1.499 . S
C1337 C1338 1.373 . S
C1337 C1339 1.389 . S
C1338 H1311 0.950 . S
C1338 C1324 1.377 . S
C1338 C1337 1.373 . S
C1339 C1323 1.377 . S
C1339 C1337 1.389 . S
C1339 C1340 1.524 . S
C1340 C1339 1.524 . S
C1340 C1341 1.397 . S
C1340 C1345 1.363 . S
C1341 H1312 0.950 . S
C1341 C1340 1.397 . S
C1341 C1342 1.334 . S
C1342 H1313 0.950 1_655 S
C1342 C1341 1.334 . S
C1342 C1343 1.287 . S
C1343 C1342 1.287 . S
C1343 C1344 1.524 . S
C1343 H1346 0.999 . S
C1344 H1314 0.950 . S
C1344 C1343 1.524 . S
C1344 C1345 1.415 . S
C1345 H1315 0.950 . S
C1345 C1340 1.363 . S
C1345 C1344 1.415 . S
H1346 C1343 0.999 . S
H1347 C1328 0.913 . S
H1348 C1366 0.951 . S
H1349 C1368 0.951 . S
H1350 C1370 0.950 . S
H1351 C1371 0.950 . S
H1352 C1373 0.950 . S
H1353 C1376 0.950 . S
H1354 C1377 0.950 . S
H1355 C1379 0.950 . S
H1356 C1380 0.950 . S
H1357 C1381 0.951 . S
H1358 C1383 0.951 . S
H1359 C1385 0.950 . S
H1360 C1386 0.950 . S
H1361 C1388 0.950 . S
H1362 C1391 0.950 . S
H1363 C1392 0.950 . S
H1364 C1394 0.950 . S
H1365 C1395 0.950 . S
C1366 H1348 0.951 . S
C1366 C1367 1.366 . S
C1366 C1368 1.388 . S
C1367 C1366 1.366 . S
C1367 C1371 1.385 . S
C1368 H1349 0.951 . S
C1368 C1366 1.388 . S
C1368 C1369 1.366 . S
C1369 C1368 1.366 . S
C1369 C1370 1.414 . S
C1369 C1372 1.499 . S
C1370 H1350 0.950 . S
C1370 C1369 1.414 . S
C1370 C1371 1.374 . S
C1371 H1351 0.950 . S
C1371 C1367 1.385 . S
C1371 C1370 1.374 . S
C1372 C1369 1.499 . S
C1372 C1373 1.373 . S
C1372 C1374 1.389 . S
C1373 H1352 0.950 . S
C1373 C1372 1.373 . S
C1373 C1389 1.377 . S
C1374 C1372 1.389 . S
C1374 C1375 1.524 . S
C1374 C1388 1.377 . S
C1375 C1374 1.524 . S
C1375 C1376 1.397 . S
C1375 C1380 1.363 . S
C1376 H1353 0.950 . S
C1376 C1375 1.397 . S
C1376 C1377 1.334 . S
C1377 H1354 0.950 . S
C1377 C1376 1.334 . S
C1377 C1378 1.287 . S
C1378 C1377 1.287 . S
C1378 C1379 1.524 . S
C1378 H1397 0.913 . S
C1379 H1355 0.950 . S
C1379 C1378 1.524 . S
C1379 C1380 1.415 . S
C1380 H1356 0.950 . S
C1380 C1375 1.363 . S
C1380 C1379 1.415 . S
C1381 H1357 0.951 . S
C1381 C1382 1.366 . S
C1381 C1383 1.388 . S
C1382 C1381 1.366 . S
C1382 C1386 1.385 . S
C1383 H1358 0.951 . S
C1383 C1381 1.388 . S
C1383 C1384 1.366 . S
C1384 C1383 1.366 . S
C1384 C1385 1.414 . S
C1384 C1387 1.499 . S
C1385 H1359 0.950 . S
C1385 C1384 1.414 . S
C1385 C1386 1.374 . S
C1386 H1360 0.950 . S
C1386 C1382 1.385 . S
C1386 C1385 1.374 . S
C1387 C1384 1.499 . S
C1387 C1388 1.373 . S
C1387 C1389 1.389 . S
C1388 H1361 0.950 . S
C1388 C1374 1.377 . S
C1388 C1387 1.373 . S
C1389 C1373 1.377 . S
C1389 C1387 1.389 . S
C1389 C1390 1.524 . S
C1390 C1389 1.524 . S
C1390 C1391 1.397 . S
C1390 C1395 1.363 . S
C1391 H1362 0.950 . S
C1391 C1390 1.397 . S
C1391 C1392 1.334 . S
C1392 H1363 0.950 . S
C1392 C1391 1.334 . S
C1392 C1393 1.287 . S
C1393 C1392 1.287 . S
C1393 C1394 1.524 . S
C1393 H1396 0.999 . S
C1394 H1364 0.950 . S
C1394 C1393 1.524 . S
C1394 C1395 1.415 . S
C1395 H1365 0.950 . S
C1395 C1390 1.363 . S
C1395 C1394 1.415 . S
H1396 C1393 0.999 . S
H1397 C1378 0.913 . S
H1398 C1416 0.951 . S
H1399 C1418 0.951 . S
H1400 C1420 0.950 . S
H1401 C1421 0.950 . S
H1402 C1423 0.950 . S
H1403 C1426 0.950 . S
H1404 C1427 0.950 . S
H1405 C1429 0.950 . S
H1406 C1430 0.950 . S
H1407 C1431 0.951 . S
H1408 C1433 0.951 . S
H1409 C1435 0.950 . S
H1410 C1436 0.950 . S
H1411 C1438 0.950 . S
H1412 C1441 0.950 . S
H1413 C1442 0.950 . S
H1414 C1444 0.950 . S
H1415 C1445 0.950 . S
C1416 H1398 0.951 . S
C1416 C1417 1.366 . S
C1416 C1418 1.388 . S
C1417 C1416 1.366 . S
C1417 C1421 1.385 . S
C1418 H1399 0.951 . S
C1418 C1416 1.388 . S
C1418 C1419 1.366 . S
C1419 C1418 1.366 . S
C1419 C1420 1.414 . S
C1419 C1422 1.499 . S
C1420 H1400 0.950 . S
C1420 C1419 1.414 . S
C1420 C1421 1.374 . S
C1421 H1401 0.950 . S
C1421 C1417 1.385 . S
C1421 C1420 1.374 . S
C1422 C1419 1.499 . S
C1422 C1423 1.373 . S
C1422 C1424 1.389 . S
C1423 H1402 0.950 . S
C1423 C1422 1.373 . S
C1423 C1439 1.377 . S
C1424 C1422 1.389 . S
C1424 C1425 1.524 . S
C1424 C1438 1.377 . S
C1425 C1424 1.524 . S
C1425 C1426 1.397 . S
C1425 C1430 1.363 . S
C1426 H1403 0.950 . S
C1426 C1425 1.397 . S
C1426 C1427 1.334 . S
C1427 H1404 0.950 . S
C1427 C1426 1.334 . S
C1427 C1428 1.287 . S
C1428 C1427 1.287 . S
C1428 C1429 1.524 . S
C1428 H1447 0.913 . S
C1429 H1405 0.950 . S
C1429 C1428 1.524 . S
C1429 C1430 1.415 . S
C1430 H1406 0.950 . S
C1430 C1425 1.363 . S
C1430 C1429 1.415 . S
C1431 H1407 0.951 . S
C1431 C1432 1.366 . S
C1431 C1433 1.388 . S
C1432 C1431 1.366 . S
C1432 C1436 1.385 . S
C1433 H1408 0.951 . S
C1433 C1431 1.388 . S
C1433 C1434 1.366 . S
C1434 C1433 1.366 . S
C1434 C1435 1.414 . S
C1434 C1437 1.499 . S
C1435 H1409 0.950 . S
C1435 C1434 1.414 . S
C1435 C1436 1.374 . S
C1436 H1410 0.950 . S
C1436 C1432 1.385 . S
C1436 C1435 1.374 . S
C1437 C1434 1.499 . S
C1437 C1438 1.373 . S
C1437 C1439 1.389 . S
C1438 H1411 0.950 . S
C1438 C1424 1.377 . S
C1438 C1437 1.373 . S
C1439 C1423 1.377 . S
C1439 C1437 1.389 . S
C1439 C1440 1.524 . S
C1440 C1439 1.524 . S
C1440 C1441 1.397 . S
C1440 C1445 1.363 . S
C1441 H1412 0.950 . S
C1441 C1440 1.397 . S
C1441 C1442 1.334 . S
C1442 H1413 0.950 . S
C1442 C1441 1.334 . S
C1442 C1443 1.287 . S
C1443 C1442 1.287 . S
C1443 C1444 1.524 . S
C1443 H1446 0.999 . S
C1444 H1414 0.950 . S
C1444 C1443 1.524 . S
C1444 C1445 1.415 . S
C1445 H1415 0.950 . S
C1445 C1440 1.363 . S
C1445 C1444 1.415 . S
H1446 C1443 0.999 . S
H1447 C1428 0.913 . S
H1448 C1466 0.951 . S
H1449 C1468 0.951 . S
H1450 C1470 0.950 . S
H1451 C1471 0.950 . S
H1452 C1473 0.950 . S
H1453 C1476 0.950 . S
H1454 C1477 0.950 . S
H1455 C1479 0.950 . S
H1456 C1480 0.950 . S
H1457 C1481 0.951 . S
H1458 C1483 0.951 . S
H1459 C1485 0.950 . S
H1460 C1486 0.950 . S
H1461 C1488 0.950 . S
H1462 C1491 0.950 . S
H1463 C1492 0.950 . S
H1464 C1494 0.950 . S
H1465 C1495 0.950 . S
C1466 H1448 0.951 . S
C1466 C1467 1.366 . S
C1466 C1468 1.388 . S
C1467 C1466 1.366 . S
C1467 C1471 1.385 . S
C1468 H1449 0.951 . S
C1468 C1466 1.388 . S
C1468 C1469 1.366 . S
C1469 C1468 1.366 . S
C1469 C1470 1.414 . S
C1469 C1472 1.499 . S
C1470 H1450 0.950 . S
C1470 C1469 1.414 . S
C1470 C1471 1.374 . S
C1471 H1451 0.950 . S
C1471 C1467 1.385 . S
C1471 C1470 1.374 . S
C1472 C1469 1.499 . S
C1472 C1473 1.373 . S
C1472 C1474 1.389 . S
C1473 H1452 0.950 . S
C1473 C1472 1.373 . S
C1473 C1489 1.377 . S
C1474 C1472 1.389 . S
C1474 C1475 1.524 . S
C1474 C1488 1.377 . S
C1475 C1474 1.524 . S
C1475 C1476 1.397 . S
C1475 C1480 1.363 . S
C1476 H1453 0.950 . S
C1476 C1475 1.397 . S
C1476 C1477 1.334 . S
C1477 H1454 0.950 . S
C1477 C1476 1.334 . S
C1477 C1478 1.287 . S
C1478 C1477 1.287 . S
C1478 C1479 1.524 . S
C1478 H1497 0.913 . S
C1479 H1455 0.950 . S
C1479 C1478 1.524 . S
C1479 C1480 1.415 . S
C1480 H1456 0.950 . S
C1480 C1475 1.363 . S
C1480 C1479 1.415 . S
C1481 H1457 0.951 . S
C1481 C1482 1.366 . S
C1481 C1483 1.388 . S
C1482 C1481 1.366 . S
C1482 C1486 1.385 . S
C1483 H1458 0.951 . S
C1483 C1481 1.388 . S
C1483 C1484 1.366 . S
C1484 C1483 1.366 . S
C1484 C1485 1.414 . S
C1484 C1487 1.499 . S
C1485 H1459 0.950 . S
C1485 C1484 1.414 . S
C1485 C1486 1.374 . S
C1486 H1460 0.950 . S
C1486 C1482 1.385 . S
C1486 C1485 1.374 . S
C1487 C1484 1.499 . S
C1487 C1488 1.373 . S
C1487 C1489 1.389 . S
C1488 H1461 0.950 . S
C1488 C1474 1.377 . S
C1488 C1487 1.373 . S
C1489 C1473 1.377 . S
C1489 C1487 1.389 . S
C1489 C1490 1.524 . S
C1490 C1489 1.524 . S
C1490 C1491 1.397 . S
C1490 C1495 1.363 . S
C1491 H1462 0.950 . S
C1491 C1490 1.397 . S
C1491 C1492 1.334 . S
C1492 H1463 0.950 . S
C1492 C1491 1.334 . S
C1492 C1493 1.287 . S
C1493 C1492 1.287 . S
C1493 C1494 1.524 . S
C1493 H1496 0.999 . S
C1494 H1464 0.950 . S
C1494 C1493 1.524 . S
C1494 C1495 1.415 . S
C1495 H1465 0.950 . S
C1495 C1490 1.363 . S
C1495 C1494 1.415 . S
H1496 C1493 0.999 . S
H1497 C1478 0.913 . S
H1498 C1516 0.951 . S
H1499 C1518 0.951 . S
H1500 C1520 0.950 . S
H1501 C1521 0.950 . S
H1502 C1523 0.950 . S
H1503 C1526 0.950 . S
H1504 C1527 0.950 . S
H1505 C1529 0.950 . S
H1506 C1530 0.950 . S
H1507 C1531 0.951 . S
H1508 C1533 0.951 . S
H1509 C1535 0.950 . S
H1510 C1536 0.950 . S
H1511 C1538 0.950 . S
H1512 C1541 0.950 . S
H1513 C1542 0.950 . S
H1514 C1544 0.950 . S
H1515 C1545 0.950 . S
C1516 H1498 0.951 . S
C1516 C1517 1.366 . S
C1516 C1518 1.388 . S
C1517 C1516 1.366 . S
C1517 C1521 1.385 . S
C1518 H1499 0.951 . S
C1518 C1516 1.388 . S
C1518 C1519 1.366 . S
C1519 C1518 1.366 . S
C1519 C1520 1.414 . S
C1519 C1522 1.499 . S
C1520 H1500 0.950 . S
C1520 C1519 1.414 . S
C1520 C1521 1.374 . S
C1521 H1501 0.950 . S
C1521 C1517 1.385 . S
C1521 C1520 1.374 . S
C1522 C1519 1.499 . S
C1522 C1523 1.373 . S
C1522 C1524 1.389 . S
C1523 H1502 0.950 . S
C1523 C1522 1.373 . S
C1523 C1539 1.377 . S
C1524 C1522 1.389 . S
C1524 C1525 1.524 . S
C1524 C1538 1.377 . S
C1525 C1524 1.524 . S
C1525 C1526 1.397 . S
C1525 C1530 1.363 . S
C1526 H1503 0.950 . S
C1526 C1525 1.397 . S
C1526 C1527 1.334 . S
C1527 H1504 0.950 . S
C1527 C1526 1.334 . S
C1527 C1528 1.287 . S
C1528 C1527 1.287 . S
C1528 C1529 1.524 . S
C1528 H1547 0.913 . S
C1529 H1505 0.950 . S
C1529 C1528 1.524 . S
C1529 C1530 1.415 . S
C1530 H1506 0.950 . S
C1530 C1525 1.363 . S
C1530 C1529 1.415 . S
C1531 H1507 0.951 . S
C1531 C1532 1.366 . S
C1531 C1533 1.388 . S
C1532 C1531 1.366 . S
C1532 C1536 1.385 . S
C1533 H1508 0.951 . S
C1533 C1531 1.388 . S
C1533 C1534 1.366 . S
C1534 C1533 1.366 . S
C1534 C1535 1.414 . S
C1534 C1537 1.499 . S
C1535 H1509 0.950 . S
C1535 C1534 1.414 . S
C1535 C1536 1.374 . S
C1536 H1510 0.950 . S
C1536 C1532 1.385 . S
C1536 C1535 1.374 . S
C1537 C1534 1.499 . S
C1537 C1538 1.373 . S
C1537 C1539 1.389 . S
C1538 H1511 0.950 . S
C1538 C1524 1.377 . S
C1538 C1537 1.373 . S
C1539 C1523 1.377 . S
C1539 C1537 1.389 . S
C1539 C1540 1.524 . S
C1540 C1539 1.524 . S
C1540 C1541 1.397 . S
C1540 C1545 1.363 . S
C1541 H1512 0.950 . S
C1541 C1540 1.397 . S
C1541 C1542 1.334 . S
C1542 H1513 0.950 . S
C1542 C1541 1.334 . S
C1542 C1543 1.287 . S
C1543 C1542 1.287 . S
C1543 C1544 1.524 . S
C1543 H1546 0.999 . S
C1544 H1514 0.950 . S
C1544 C1543 1.524 . S
C1544 C1545 1.415 . S
C1545 H1515 0.950 . S
C1545 C1540 1.363 . S
C1545 C1544 1.415 . S
H1546 C1543 0.999 . S
H1547 C1528 0.913 . S
H1548 C1566 0.951 . S
H1549 C1568 0.951 . S
H1550 C1570 0.950 . S
H1551 C1571 0.950 . S
H1552 C1573 0.950 . S
H1553 C1576 0.950 . S
H1554 C1577 0.950 . S
H1555 C1579 0.950 . S
H1556 C1580 0.950 . S
H1557 C1581 0.951 . S
H1558 C1583 0.951 . S
H1559 C1585 0.950 . S
H1560 C1586 0.950 . S
H1561 C1588 0.950 . S
H1562 C1591 0.950 . S
H1563 C1592 0.950 . S
H1564 C1594 0.950 . S
H1565 C1595 0.950 . S
C1566 H1548 0.951 . S
C1566 C1567 1.366 . S
C1566 C1568 1.388 . S
C1567 C1566 1.366 . S
C1567 C1571 1.385 . S
C1568 H1549 0.951 . S
C1568 C1566 1.388 . S
C1568 C1569 1.366 . S
C1569 C1568 1.366 . S
C1569 C1570 1.414 . S
C1569 C1572 1.499 . S
C1570 H1550 0.950 . S
C1570 C1569 1.414 . S
C1570 C1571 1.374 . S
C1571 H1551 0.950 . S
C1571 C1567 1.385 . S
C1571 C1570 1.374 . S
C1572 C1569 1.499 . S
C1572 C1573 1.373 . S
C1572 C1574 1.389 . S
C1573 H1552 0.950 . S
C1573 C1572 1.373 . S
C1573 C1589 1.377 . S
C1574 C1572 1.389 . S
C1574 C1575 1.524 . S
C1574 C1588 1.377 . S
C1575 C1574 1.524 . S
C1575 C1576 1.397 . S
C1575 C1580 1.363 . S
C1576 H1553 0.950 . S
C1576 C1575 1.397 . S
C1576 C1577 1.334 . S
C1577 H1554 0.950 . S
C1577 C1576 1.334 . S
C1577 C1578 1.287 . S
C1578 C1577 1.287 . S
C1578 C1579 1.524 . S
C1578 H1597 0.913 . S
C1579 H1555 0.950 . S
C1579 C1578 1.524 . S
C1579 C1580 1.415 . S
C1580 H1556 0.950 . S
C1580 C1575 1.363 . S
C1580 C1579 1.415 . S
C1581 H1557 0.951 . S
C1581 C1582 1.366 . S
C1581 C1583 1.388 . S
C1582 C1581 1.366 . S
C1582 C1586 1.385 . S
C1583 H1558 0.951 . S
C1583 C1581 1.388 . S
C1583 C1584 1.366 . S
C1584 C1583 1.366 . S
C1584 C1585 1.414 . S
C1584 C1587 1.499 . S
C1585 H1559 0.950 . S
C1585 C1584 1.414 . S
C1585 C1586 1.374 . S
C1586 H1560 0.950 . S
C1586 C1582 1.385 . S
C1586 C1585 1.374 . S
C1587 C1584 1.499 . S
C1587 C1588 1.373 . S
C1587 C1589 1.389 . S
C1588 H1561 0.950 . S
C1588 C1574 1.377 . S
C1588 C1587 1.373 . S
C1589 C1573 1.377 . S
C1589 C1587 1.389 . S
C1589 C1590 1.524 . S
C1590 C1589 1.524 . S
C1590 C1591 1.397 . S
C1590 C1595 1.363 . S
C1591 H1562 0.950 . S
C1591 C1590 1.397 . S
C1591 C1592 1.334 . S
C1592 H1563 0.950 . S
C1592 C1591 1.334 . S
C1592 C1593 1.287 . S
C1593 C1592 1.287 . S
C1593 C1594 1.524 . S
C1593 H1596 0.999 . S
C1594 H1564 0.950 . S
C1594 C1593 1.524 . S
C1594 C1595 1.415 . S
C1595 H1565 0.950 . S
C1595 C1590 1.363 . S
C1595 C1594 1.415 . S
H1596 C1593 0.999 . S
H1597 C1578 0.913 . S
H1598 C1616 0.951 . S
H1599 C1618 0.951 . S
H1600 C1620 0.950 1_655 S
H1601 C1621 0.950 . S
H1602 C1623 0.950 . S
H1603 C1626 0.950 . S
H1604 C1627 0.950 . S
H1605 C1629 0.950 . S
H1606 C1630 0.950 . S
H1607 C1631 0.951 . S
H1608 C1633 0.951 . S
H1609 C1635 0.950 . S
H1610 C1636 0.950 . S
H1611 C1638 0.950 . S
H1612 C1641 0.950 . S
H1613 C1642 0.950 . S
H1614 C1644 0.950 . S
H1615 C1645 0.950 . S
C1616 H1598 0.951 . S
C1616 C1617 1.366 . S
C1616 C1618 1.388 . S
C1617 C1616 1.366 . S
C1617 C1621 1.385 . S
C1618 H1599 0.951 . S
C1618 C1616 1.388 . S
C1618 C1619 1.366 1_455 S
C1619 C1618 1.366 1_655 S
C1619 C1620 1.414 1_655 S
C1619 C1622 1.499 . S
C1620 H1600 0.950 1_455 S
C1620 C1619 1.414 1_455 S
C1620 C1621 1.374 . S
C1621 H1601 0.950 . S
C1621 C1617 1.385 . S
C1621 C1620 1.374 . S
C1622 C1619 1.499 . S
C1622 C1623 1.373 . S
C1622 C1624 1.389 . S
C1623 H1602 0.950 . S
C1623 C1622 1.373 . S
C1623 C1639 1.377 . S
C1624 C1622 1.389 . S
C1624 C1625 1.524 . S
C1624 C1638 1.377 . S
C1625 C1624 1.524 . S
C1625 C1626 1.397 1_655 S
C1625 C1630 1.363 . S
C1626 H1603 0.950 . S
C1626 C1625 1.397 1_455 S
C1626 C1627 1.334 . S
C1627 H1604 0.950 . S
C1627 C1626 1.334 . S
C1627 C1628 1.287 . S
C1628 C1627 1.287 . S
C1628 C1629 1.524 . S
C1628 H1647 0.913 . S
C1629 H1605 0.950 . S
C1629 C1628 1.524 . S
C1629 C1630 1.415 1_455 S
C1630 H1606 0.950 . S
C1630 C1625 1.363 . S
C1630 C1629 1.415 1_655 S
C1631 H1607 0.951 . S
C1631 C1632 1.366 . S
C1631 C1633 1.388 . S
C1632 C1631 1.366 . S
C1632 C1636 1.385 . S
C1633 H1608 0.951 . S
C1633 C1631 1.388 . S
C1633 C1634 1.366 . S
C1634 C1633 1.366 . S
C1634 C1635 1.414 . S
C1634 C1637 1.499 . S
C1635 H1609 0.950 . S
C1635 C1634 1.414 . S
C1635 C1636 1.374 . S
C1636 H1610 0.950 . S
C1636 C1632 1.385 . S
C1636 C1635 1.374 . S
C1637 C1634 1.499 . S
C1637 C1638 1.373 . S
C1637 C1639 1.389 . S
C1638 H1611 0.950 . S
C1638 C1624 1.377 . S
C1638 C1637 1.373 . S
C1639 C1623 1.377 . S
C1639 C1637 1.389 . S
C1639 C1640 1.524 . S
C1640 C1639 1.524 . S
C1640 C1641 1.397 . S
C1640 C1645 1.363 . S
C1641 H1612 0.950 . S
C1641 C1640 1.397 . S
C1641 C1642 1.334 . S
C1642 H1613 0.950 . S
C1642 C1641 1.334 . S
C1642 C1643 1.287 . S
C1643 C1642 1.287 . S
C1643 C1644 1.524 . S
C1643 H1646 0.999 . S
C1644 H1614 0.950 . S
C1644 C1643 1.524 . S
C1644 C1645 1.415 . S
C1645 H1615 0.950 . S
C1645 C1640 1.363 . S
C1645 C1644 1.415 . S
H1646 C1643 0.999 . S
H1647 C1628 0.913 . S
H1648 C1666 0.951 . S
H1649 C1668 0.951 . S
H1650 C1670 0.950 . S
H1651 C1671 0.950 . S
H1652 C1673 0.950 . S
H1653 C1676 0.950 . S
H1654 C1677 0.950 . S
H1655 C1679 0.950 . S
H1656 C1680 0.950 . S
H1657 C1681 0.951 . S
H1658 C1683 0.951 . S
H1659 C1685 0.950 . S
H1660 C1686 0.950 . S
H1661 C1688 0.950 . S
H1662 C1691 0.950 . S
H1663 C1692 0.950 . S
H1664 C1694 0.950 . S
H1665 C1695 0.950 . S
C1666 H1648 0.951 . S
C1666 C1667 1.366 . S
C1666 C1668 1.388 . S
C1667 C1666 1.366 . S
C1667 C1671 1.385 . S
C1668 H1649 0.951 . S
C1668 C1666 1.388 . S
C1668 C1669 1.366 . S
C1669 C1668 1.366 . S
C1669 C1670 1.414 . S
C1669 C1672 1.499 . S
C1670 H1650 0.950 . S
C1670 C1669 1.414 . S
C1670 C1671 1.374 . S
C1671 H1651 0.950 . S
C1671 C1667 1.385 . S
C1671 C1670 1.374 . S
C1672 C1669 1.499 . S
C1672 C1673 1.373 . S
C1672 C1674 1.389 . S
C1673 H1652 0.950 . S
C1673 C1672 1.373 . S
C1673 C1689 1.377 . S
C1674 C1672 1.389 . S
C1674 C1675 1.524 . S
C1674 C1688 1.377 . S
C1675 C1674 1.524 . S
C1675 C1676 1.397 . S
C1675 C1680 1.363 . S
C1676 H1653 0.950 . S
C1676 C1675 1.397 . S
C1676 C1677 1.334 . S
C1677 H1654 0.950 . S
C1677 C1676 1.334 . S
C1677 C1678 1.287 . S
C1678 C1677 1.287 . S
C1678 C1679 1.524 . S
C1678 H1697 0.913 . S
C1679 H1655 0.950 . S
C1679 C1678 1.524 . S
C1679 C1680 1.415 . S
C1680 H1656 0.950 . S
C1680 C1675 1.363 . S
C1680 C1679 1.415 . S
C1681 H1657 0.951 . S
C1681 C1682 1.366 . S
C1681 C1683 1.388 . S
C1682 C1681 1.366 . S
C1682 C1686 1.385 . S
C1683 H1658 0.951 . S
C1683 C1681 1.388 . S
C1683 C1684 1.366 . S
C1684 C1683 1.366 . S
C1684 C1685 1.414 . S
C1684 C1687 1.499 . S
C1685 H1659 0.950 . S
C1685 C1684 1.414 . S
C1685 C1686 1.374 . S
C1686 H1660 0.950 . S
C1686 C1682 1.385 . S
C1686 C1685 1.374 . S
C1687 C1684 1.499 . S
C1687 C1688 1.373 . S
C1687 C1689 1.389 . S
C1688 H1661 0.950 . S
C1688 C1674 1.377 . S
C1688 C1687 1.373 . S
C1689 C1673 1.377 . S
C1689 C1687 1.389 . S
C1689 C1690 1.524 . S
C1690 C1689 1.524 . S
C1690 C1691 1.397 . S
C1690 C1695 1.363 . S
C1691 H1662 0.950 . S
C1691 C1690 1.397 . S
C1691 C1692 1.334 . S
C1692 H1663 0.950 . S
C1692 C1691 1.334 . S
C1692 C1693 1.287 . S
C1693 C1692 1.287 . S
C1693 C1694 1.524 . S
C1693 H1696 0.999 . S
C1694 H1664 0.950 . S
C1694 C1693 1.524 . S
C1694 C1695 1.415 . S
C1695 H1665 0.950 . S
C1695 C1690 1.363 . S
C1695 C1694 1.415 . S
H1696 C1693 0.999 . S
H1697 C1678 0.913 . S
H1698 C1716 0.951 . S
H1699 C1718 0.951 . S
H1700 C1720 0.950 . S
H1701 C1721 0.950 . S
H1702 C1723 0.950 . S
H1703 C1726 0.950 . S
H1704 C1727 0.950 . S
H1705 C1729 0.950 . S
H1706 C1730 0.950 . S
H1707 C1731 0.951 . S
H1708 C1733 0.951 . S
H1709 C1735 0.950 . S
H1710 C1736 0.950 . S
H1711 C1738 0.950 . S
H1712 C1741 0.950 . S
H1713 C1742 0.950 . S
H1714 C1744 0.950 . S
H1715 C1745 0.950 . S
C1716 H1698 0.951 . S
C1716 C1717 1.366 . S
C1716 C1718 1.388 . S
C1717 C1716 1.366 . S
C1717 C1721 1.385 . S
C1718 H1699 0.951 . S
C1718 C1716 1.388 . S
C1718 C1719 1.366 1_655 S
C1719 C1718 1.366 1_455 S
C1719 C1720 1.414 . S
C1719 C1722 1.499 . S
C1720 H1700 0.950 . S
C1720 C1719 1.414 . S
C1720 C1721 1.374 1_455 S
C1721 H1701 0.950 . S
C1721 C1717 1.385 . S
C1721 C1720 1.374 1_655 S
C1722 C1719 1.499 . S
C1722 C1723 1.373 . S
C1722 C1724 1.389 . S
C1723 H1702 0.950 . S
C1723 C1722 1.373 . S
C1723 C1739 1.377 . S
C1724 C1722 1.389 . S
C1724 C1725 1.524 . S
C1724 C1738 1.377 . S
C1725 C1724 1.524 . S
C1725 C1726 1.397 . S
C1725 C1730 1.363 . S
C1726 H1703 0.950 . S
C1726 C1725 1.397 . S
C1726 C1727 1.334 1_455 S
C1727 H1704 0.950 . S
C1727 C1726 1.334 1_655 S
C1727 C1728 1.287 . S
C1728 C1727 1.287 . S
C1728 C1729 1.524 . S
C1728 H1747 0.913 . S
C1729 H1705 0.950 . S
C1729 C1728 1.524 . S
C1729 C1730 1.415 1_655 S
C1730 H1706 0.950 . S
C1730 C1725 1.363 . S
C1730 C1729 1.415 1_455 S
C1731 H1707 0.951 . S
C1731 C1732 1.366 . S
C1731 C1733 1.388 . S
C1732 C1731 1.366 . S
C1732 C1736 1.385 . S
C1733 H1708 0.951 . S
C1733 C1731 1.388 . S
C1733 C1734 1.366 . S
C1734 C1733 1.366 . S
C1734 C1735 1.414 . S
C1734 C1737 1.499 . S
C1735 H1709 0.950 . S
C1735 C1734 1.414 . S
C1735 C1736 1.374 . S
C1736 H1710 0.950 . S
C1736 C1732 1.385 . S
C1736 C1735 1.374 . S
C1737 C1734 1.499 . S
C1737 C1738 1.373 . S
C1737 C1739 1.389 . S
C1738 H1711 0.950 . S
C1738 C1724 1.377 . S
C1738 C1737 1.373 . S
C1739 C1723 1.377 . S
C1739 C1737 1.389 . S
C1739 C1740 1.524 . S
C1740 C1739 1.524 . S
C1740 C1741 1.397 . S
C1740 C1745 1.363 . S
C1741 H1712 0.950 . S
C1741 C1740 1.397 . S
C1741 C1742 1.334 . S
C1742 H1713 0.950 . S
C1742 C1741 1.334 . S
C1742 C1743 1.287 . S
C1743 C1742 1.287 . S
C1743 C1744 1.524 . S
C1743 H1746 0.999 . S
C1744 H1714 0.950 . S
C1744 C1743 1.524 . S
C1744 C1745 1.415 . S
C1745 H1715 0.950 . S
C1745 C1740 1.363 . S
C1745 C1744 1.415 . S
H1746 C1743 0.999 . S
H1747 C1728 0.913 . S
H1748 C1766 0.951 . S
H1749 C1768 0.951 . S
H1750 C1770 0.950 . S
H1751 C1771 0.950 . S
H1752 C1773 0.950 . S
H1753 C1776 0.950 . S
H1754 C1777 0.950 . S
H1755 C1779 0.950 . S
H1756 C1780 0.950 . S
H1757 C1781 0.951 . S
H1758 C1783 0.951 . S
H1759 C1785 0.950 . S
H1760 C1786 0.950 . S
H1761 C1788 0.950 . S
H1762 C1791 0.950 . S
H1763 C1792 0.950 . S
H1764 C1794 0.950 . S
H1765 C1795 0.950 . S
C1766 H1748 0.951 . S
C1766 C1767 1.366 . S
C1766 C1768 1.388 . S
C1767 C1766 1.366 . S
C1767 C1771 1.385 . S
C1768 H1749 0.951 . S
C1768 C1766 1.388 . S
C1768 C1769 1.366 . S
C1769 C1768 1.366 . S
C1769 C1770 1.414 . S
C1769 C1772 1.499 . S
C1770 H1750 0.950 . S
C1770 C1769 1.414 . S
C1770 C1771 1.374 . S
C1771 H1751 0.950 . S
C1771 C1767 1.385 . S
C1771 C1770 1.374 . S
C1772 C1769 1.499 . S
C1772 C1773 1.373 . S
C1772 C1774 1.389 . S
C1773 H1752 0.950 . S
C1773 C1772 1.373 . S
C1773 C1789 1.377 . S
C1774 C1772 1.389 . S
C1774 C1775 1.524 . S
C1774 C1788 1.377 . S
C1775 C1774 1.524 . S
C1775 C1776 1.397 . S
C1775 C1780 1.363 . S
C1776 H1753 0.950 . S
C1776 C1775 1.397 . S
C1776 C1777 1.334 . S
C1777 H1754 0.950 . S
C1777 C1776 1.334 . S
C1777 C1778 1.287 . S
C1778 C1777 1.287 . S
C1778 C1779 1.524 . S
C1778 H1797 0.913 . S
C1779 H1755 0.950 . S
C1779 C1778 1.524 . S
C1779 C1780 1.415 . S
C1780 H1756 0.950 . S
C1780 C1775 1.363 . S
C1780 C1779 1.415 . S
C1781 H1757 0.951 . S
C1781 C1782 1.366 . S
C1781 C1783 1.388 . S
C1782 C1781 1.366 . S
C1782 C1786 1.385 . S
C1783 H1758 0.951 . S
C1783 C1781 1.388 . S
C1783 C1784 1.366 . S
C1784 C1783 1.366 . S
C1784 C1785 1.414 . S
C1784 C1787 1.499 . S
C1785 H1759 0.950 . S
C1785 C1784 1.414 . S
C1785 C1786 1.374 . S
C1786 H1760 0.950 . S
C1786 C1782 1.385 . S
C1786 C1785 1.374 . S
C1787 C1784 1.499 . S
C1787 C1788 1.373 . S
C1787 C1789 1.389 . S
C1788 H1761 0.950 . S
C1788 C1774 1.377 . S
C1788 C1787 1.373 . S
C1789 C1773 1.377 . S
C1789 C1787 1.389 . S
C1789 C1790 1.524 . S
C1790 C1789 1.524 . S
C1790 C1791 1.397 . S
C1790 C1795 1.363 . S
C1791 H1762 0.950 . S
C1791 C1790 1.397 . S
C1791 C1792 1.334 . S
C1792 H1763 0.950 . S
C1792 C1791 1.334 . S
C1792 C1793 1.287 . S
C1793 C1792 1.287 . S
C1793 C1794 1.524 . S
C1793 H1796 0.999 . S
C1794 H1764 0.950 . S
C1794 C1793 1.524 . S
C1794 C1795 1.415 . S
C1795 H1765 0.950 . S
C1795 C1790 1.363 . S
C1795 C1794 1.415 . S
H1796 C1793 0.999 . S
H1797 C1778 0.913 . S
H1798 C1816 0.951 . S
H1799 C1818 0.951 . S
H1800 C1820 0.950 . S
H1801 C1821 0.950 . S
H1802 C1823 0.950 . S
H1803 C1826 0.950 . S
H1804 C1827 0.950 . S
H1805 C1829 0.950 . S
H1806 C1830 0.950 . S
H1807 C1831 0.951 . S
H1808 C1833 0.951 . S
H1809 C1835 0.950 . S
H1810 C1836 0.950 . S
H1811 C1838 0.950 . S
H1812 C1841 0.950 . S
H1813 C1842 0.950 . S
H1814 C1844 0.950 . S
H1815 C1845 0.950 . S
C1816 H1798 0.951 . S
C1816 C1817 1.366 . S
C1816 C1818 1.388 . S
C1817 C1816 1.366 . S
C1817 C1821 1.385 . S
C1818 H1799 0.951 . S
C1818 C1816 1.388 . S
C1818 C1819 1.366 . S
C1819 C1818 1.366 . S
C1819 C1820 1.414 . S
C1819 C1822 1.499 . S
C1820 H1800 0.950 . S
C1820 C1819 1.414 . S
C1820 C1821 1.374 . S
C1821 H1801 0.950 . S
C1821 C1817 1.385 . S
C1821 C1820 1.374 . S
C1822 C1819 1.499 . S
C1822 C1823 1.373 . S
C1822 C1824 1.389 . S
C1823 H1802 0.950 . S
C1823 C1822 1.373 . S
C1823 C1839 1.377 . S
C1824 C1822 1.389 . S
C1824 C1825 1.524 . S
C1824 C1838 1.377 . S
C1825 C1824 1.524 . S
C1825 C1826 1.397 . S
C1825 C1830 1.363 . S
C1826 H1803 0.950 . S
C1826 C1825 1.397 . S
C1826 C1827 1.334 . S
C1827 H1804 0.950 . S
C1827 C1826 1.334 . S
C1827 C1828 1.287 . S
C1828 C1827 1.287 . S
C1828 C1829 1.524 . S
C1828 H1847 0.913 . S
C1829 H1805 0.950 . S
C1829 C1828 1.524 . S
C1829 C1830 1.415 . S
C1830 H1806 0.950 . S
C1830 C1825 1.363 . S
C1830 C1829 1.415 . S
C1831 H1807 0.951 . S
C1831 C1832 1.366 . S
C1831 C1833 1.388 . S
C1832 C1831 1.366 . S
C1832 C1836 1.385 . S
C1833 H1808 0.951 . S
C1833 C1831 1.388 . S
C1833 C1834 1.366 . S
C1834 C1833 1.366 . S
C1834 C1835 1.414 . S
C1834 C1837 1.499 . S
C1835 H1809 0.950 . S
C1835 C1834 1.414 . S
C1835 C1836 1.374 . S
C1836 H1810 0.950 . S
C1836 C1832 1.385 . S
C1836 C1835 1.374 . S
C1837 C1834 1.499 . S
C1837 C1838 1.373 . S
C1837 C1839 1.389 . S
C1838 H1811 0.950 . S
C1838 C1824 1.377 . S
C1838 C1837 1.373 . S
C1839 C1823 1.377 . S
C1839 C1837 1.389 . S
C1839 C1840 1.524 . S
C1840 C1839 1.524 . S
C1840 C1841 1.397 . S
C1840 C1845 1.363 . S
C1841 H1812 0.950 . S
C1841 C1840 1.397 . S
C1841 C1842 1.334 . S
C1842 H1813 0.950 . S
C1842 C1841 1.334 . S
C1842 C1843 1.287 . S
C1843 C1842 1.287 . S
C1843 C1844 1.524 . S
C1843 H1846 0.999 . S
C1844 H1814 0.950 . S
C1844 C1843 1.524 . S
C1844 C1845 1.415 . S
C1845 H1815 0.950 . S
C1845 C1840 1.363 . S
C1845 C1844 1.415 . S
H1846 C1843 0.999 . S
H1847 C1828 0.913 . S
H1848 C1866 0.951 . S
H1849 C1868 0.951 . S
H1850 C1870 0.950 . S
H1851 C1871 0.950 . S
H1852 C1873 0.950 . S
H1853 C1876 0.950 . S
H1854 C1877 0.950 . S
H1855 C1879 0.950 . S
H1856 C1880 0.950 . S
H1857 C1881 0.951 . S
H1858 C1883 0.951 . S
H1859 C1885 0.950 . S
H1860 C1886 0.950 . S
H1861 C1888 0.950 . S
H1862 C1891 0.950 . S
H1863 C1892 0.950 . S
H1864 C1894 0.950 . S
H1865 C1895 0.950 . S
C1866 H1848 0.951 . S
C1866 C1867 1.366 . S
C1866 C1868 1.388 . S
C1867 C1866 1.366 . S
C1867 C1871 1.385 . S
C1868 H1849 0.951 . S
C1868 C1866 1.388 . S
C1868 C1869 1.366 . S
C1869 C1868 1.366 . S
C1869 C1870 1.414 . S
C1869 C1872 1.499 . S
C1870 H1850 0.950 . S
C1870 C1869 1.414 . S
C1870 C1871 1.374 . S
C1871 H1851 0.950 . S
C1871 C1867 1.385 . S
C1871 C1870 1.374 . S
C1872 C1869 1.499 . S
C1872 C1873 1.373 . S
C1872 C1874 1.389 . S
C1873 H1852 0.950 . S
C1873 C1872 1.373 . S
C1873 C1889 1.377 . S
C1874 C1872 1.389 . S
C1874 C1875 1.524 . S
C1874 C1888 1.377 . S
C1875 C1874 1.524 . S
C1875 C1876 1.397 . S
C1875 C1880 1.363 . S
C1876 H1853 0.950 . S
C1876 C1875 1.397 . S
C1876 C1877 1.334 . S
C1877 H1854 0.950 . S
C1877 C1876 1.334 . S
C1877 C1878 1.287 . S
C1878 C1877 1.287 . S
C1878 C1879 1.524 . S
C1878 H1897 0.913 . S
C1879 H1855 0.950 . S
C1879 C1878 1.524 . S
C1879 C1880 1.415 . S
C1880 H1856 0.950 . S
C1880 C1875 1.363 . S
C1880 C1879 1.415 . S
C1881 H1857 0.951 . S
C1881 C1882 1.366 . S
C1881 C1883 1.388 . S
C1882 C1881 1.366 . S
C1882 C1886 1.385 . S
C1883 H1858 0.951 . S
C1883 C1881 1.388 . S
C1883 C1884 1.366 . S
C1884 C1883 1.366 . S
C1884 C1885 1.414 . S
C1884 C1887 1.499 . S
C1885 H1859 0.950 . S
C1885 C1884 1.414 . S
C1885 C1886 1.374 . S
C1886 H1860 0.950 . S
C1886 C1882 1.385 . S
C1886 C1885 1.374 . S
C1887 C1884 1.499 . S
C1887 C1888 1.373 . S
C1887 C1889 1.389 . S
C1888 H1861 0.950 . S
C1888 C1874 1.377 . S
C1888 C1887 1.373 . S
C1889 C1873 1.377 . S
C1889 C1887 1.389 . S
C1889 C1890 1.524 . S
C1890 C1889 1.524 . S
C1890 C1891 1.397 . S
C1890 C1895 1.363 . S
C1891 H1862 0.950 . S
C1891 C1890 1.397 . S
C1891 C1892 1.334 . S
C1892 H1863 0.950 . S
C1892 C1891 1.334 . S
C1892 C1893 1.287 . S
C1893 C1892 1.287 . S
C1893 C1894 1.524 . S
C1893 H1896 0.999 . S
C1894 H1864 0.950 . S
C1894 C1893 1.524 . S
C1894 C1895 1.415 . S
C1895 H1865 0.950 . S
C1895 C1890 1.363 . S
C1895 C1894 1.415 . S
H1896 C1893 0.999 . S
H1897 C1878 0.913 . S
H1898 C1916 0.951 . S
H1899 C1918 0.951 . S
H1900 C1920 0.950 . S
H1901 C1921 0.950 . S
H1902 C1923 0.950 . S
H1903 C1926 0.950 . S
H1904 C1927 0.950 . S
H1905 C1929 0.950 . S
H1906 C1930 0.950 . S
H1907 C1931 0.951 . S
H1908 C1933 0.951 . S
H1909 C1935 0.950 . S
H1910 C1936 0.950 . S
H1911 C1938 0.950 . S
H1912 C1941 0.950 . S
H1913 C1942 0.950 . S
H1914 C1944 0.950 . S
H1915 C1945 0.950 . S
C1916 H1898 0.951 . S
C1916 C1917 1.366 . S
C1916 C1918 1.388 . S
C1917 C1916 1.366 . S
C1917 C1921 1.385 . S
C1918 H1899 0.951 . S
C1918 C1916 1.388 . S
C1918 C1919 1.366 . S
C1919 C1918 1.366 . S
C1919 C1920 1.414 . S
C1919 C1922 1.499 . S
C1920 H1900 0.950 . S
C1920 C1919 1.414 . S
C1920 C1921 1.374 . S
C1921 H1901 0.950 . S
C1921 C1917 1.385 . S
C1921 C1920 1.374 . S
C1922 C1919 1.499 . S
C1922 C1923 1.373 . S
C1922 C1924 1.389 . S
C1923 H1902 0.950 . S
C1923 C1922 1.373 . S
C1923 C1939 1.377 . S
C1924 C1922 1.389 . S
C1924 C1925 1.524 . S
C1924 C1938 1.377 . S
C1925 C1924 1.524 . S
C1925 C1926 1.397 . S
C1925 C1930 1.363 . S
C1926 H1903 0.950 . S
C1926 C1925 1.397 . S
C1926 C1927 1.334 . S
C1927 H1904 0.950 . S
C1927 C1926 1.334 . S
C1927 C1928 1.287 . S
C1928 C1927 1.287 . S
C1928 C1929 1.524 . S
C1928 H1947 0.913 . S
C1929 H1905 0.950 . S
C1929 C1928 1.524 . S
C1929 C1930 1.415 . S
C1930 H1906 0.950 . S
C1930 C1925 1.363 . S
C1930 C1929 1.415 . S
C1931 H1907 0.951 . S
C1931 C1932 1.366 . S
C1931 C1933 1.388 . S
C1932 C1931 1.366 . S
C1932 C1936 1.385 . S
C1933 H1908 0.951 . S
C1933 C1931 1.388 . S
C1933 C1934 1.366 . S
C1934 C1933 1.366 . S
C1934 C1935 1.414 . S
C1934 C1937 1.499 . S
C1935 H1909 0.950 . S
C1935 C1934 1.414 . S
C1935 C1936 1.374 . S
C1936 H1910 0.950 . S
C1936 C1932 1.385 . S
C1936 C1935 1.374 . S
C1937 C1934 1.499 . S
C1937 C1938 1.373 . S
C1937 C1939 1.389 . S
C1938 H1911 0.950 . S
C1938 C1924 1.377 . S
C1938 C1937 1.373 . S
C1939 C1923 1.377 . S
C1939 C1937 1.389 . S
C1939 C1940 1.524 . S
C1940 C1939 1.524 . S
C1940 C1941 1.397 . S
C1940 C1945 1.363 . S
C1941 H1912 0.950 . S
C1941 C1940 1.397 . S
C1941 C1942 1.334 . S
C1942 H1913 0.950 . S
C1942 C1941 1.334 . S
C1942 C1943 1.287 . S
C1943 C1942 1.287 . S
C1943 C1944 1.524 . S
C1943 H1946 0.999 . S
C1944 H1914 0.950 . S
C1944 C1943 1.524 . S
C1944 C1945 1.415 . S
C1945 H1915 0.950 . S
C1945 C1940 1.363 . S
C1945 C1944 1.415 . S
H1946 C1943 0.999 . S
H1947 C1928 0.913 . S
H1948 C1966 0.951 . S
H1949 C1968 0.951 . S
H1950 C1970 0.950 . S
H1951 C1971 0.950 . S
H1952 C1973 0.950 . S
H1953 C1976 0.950 . S
H1954 C1977 0.950 . S
H1955 C1979 0.950 . S
H1956 C1980 0.950 . S
H1957 C1981 0.951 . S
H1958 C1983 0.951 . S
H1959 C1985 0.950 . S
H1960 C1986 0.950 . S
H1961 C1988 0.950 . S
H1962 C1991 0.950 . S
H1963 C1992 0.950 . S
H1964 C1994 0.950 . S
H1965 C1995 0.950 . S
C1966 H1948 0.951 . S
C1966 C1967 1.366 . S
C1966 C1968 1.388 . S
C1967 C1966 1.366 . S
C1967 C1971 1.385 . S
C1968 H1949 0.951 . S
C1968 C1966 1.388 . S
C1968 C1969 1.366 . S
C1969 C1968 1.366 . S
C1969 C1970 1.414 . S
C1969 C1972 1.499 . S
C1970 H1950 0.950 . S
C1970 C1969 1.414 . S
C1970 C1971 1.374 . S
C1971 H1951 0.950 . S
C1971 C1967 1.385 . S
C1971 C1970 1.374 . S
C1972 C1969 1.499 . S
C1972 C1973 1.373 . S
C1972 C1974 1.389 . S
C1973 H1952 0.950 . S
C1973 C1972 1.373 . S
C1973 C1989 1.377 . S
C1974 C1972 1.389 . S
C1974 C1975 1.524 . S
C1974 C1988 1.377 . S
C1975 C1974 1.524 . S
C1975 C1976 1.397 . S
C1975 C1980 1.363 . S
C1976 H1953 0.950 . S
C1976 C1975 1.397 . S
C1976 C1977 1.334 . S
C1977 H1954 0.950 . S
C1977 C1976 1.334 . S
C1977 C1978 1.287 . S
C1978 C1977 1.287 . S
C1978 C1979 1.524 . S
C1978 H1997 0.913 . S
C1979 H1955 0.950 . S
C1979 C1978 1.524 . S
C1979 C1980 1.415 . S
C1980 H1956 0.950 . S
C1980 C1975 1.363 . S
C1980 C1979 1.415 . S
C1981 H1957 0.951 . S
C1981 C1982 1.366 . S
C1981 C1983 1.388 . S
C1982 C1981 1.366 . S
C1982 C1986 1.385 . S
C1983 H1958 0.951 . S
C1983 C1981 1.388 . S
C1983 C1984 1.366 . S
C1984 C1983 1.366 . S
C1984 C1985 1.414 . S
C1984 C1987 1.499 . S
C1985 H1959 0.950 . S
C1985 C1984 1.414 . S
C1985 C1986 1.374 . S
C1986 H1960 0.950 . S
C1986 C1982 1.385 . S
C1986 C1985 1.374 . S
C1987 C1984 1.499 . S
C1987 C1988 1.373 . S
C1987 C1989 1.389 . S
C1988 H1961 0.950 . S
C1988 C1974 1.377 . S
C1988 C1987 1.373 . S
C1989 C1973 1.377 . S
C1989 C1987 1.389 . S
C1989 C1990 1.524 . S
C1990 C1989 1.524 . S
C1990 C1991 1.397 . S
C1990 C1995 1.363 . S
C1991 H1962 0.950 . S
C1991 C1990 1.397 . S
C1991 C1992 1.334 . S
C1992 H1963 0.950 . S
C1992 C1991 1.334 . S
C1992 C1993 1.287 . S
C1993 C1992 1.287 . S
C1993 C1994 1.524 . S
C1993 H1996 0.999 . S
C1994 H1964 0.950 . S
C1994 C1993 1.524 . S
C1994 C1995 1.415 . S
C1995 H1965 0.950 . S
C1995 C1990 1.363 . S
C1995 C1994 1.415 . S
H1996 C1993 0.999 . S
H1997 C1978 0.913 . S
H1998 C2016 0.951 . S
H1999 C2018 0.951 . S
H2000 C2020 0.950 . S
H2001 C2021 0.950 . S
H2002 C2023 0.950 . S
H2003 C2026 0.950 . S
H2004 C2027 0.950 . S
H2005 C2029 0.950 . S
H2006 C2030 0.950 . S
H2007 C2031 0.951 . S
H2008 C2033 0.965 . S
H2009 C2035 0.950 . S
H2010 C2036 0.950 . S
H2011 C2038 0.950 . S
H2012 C2041 0.950 1_655 S
H2013 C2042 0.950 . S
H2014 C2044 0.950 . S
H2015 C2045 0.950 . S
C2016 H1998 0.951 . S
C2016 C2017 1.366 . S
C2016 C2018 1.388 . S
C2017 C2016 1.366 . S
C2017 C2021 1.385 . S
C2018 H1999 0.951 . S
C2018 C2016 1.388 . S
C2018 C2019 1.366 . S
C2019 C2018 1.366 . S
C2019 C2020 1.414 . S
C2019 C2022 1.499 . S
C2020 H2000 0.950 . S
C2020 C2019 1.414 . S
C2020 C2021 1.374 . S
C2021 H2001 0.950 . S
C2021 C2017 1.385 . S
C2021 C2020 1.374 . S
C2022 C2019 1.499 . S
C2022 C2023 1.373 . S
C2022 C2024 1.389 . S
C2023 H2002 0.950 . S
C2023 C2022 1.373 . S
C2023 C2039 1.377 . S
C2024 C2022 1.389 . S
C2024 C2025 1.524 . S
C2024 C2038 1.377 . S
C2025 C2024 1.524 . S
C2025 C2026 1.397 . S
C2025 C2030 1.363 . S
C2026 H2003 0.950 . S
C2026 C2025 1.397 . S
C2026 C2027 1.334 . S
C2027 H2004 0.950 . S
C2027 C2026 1.334 . S
C2027 C2028 1.287 . S
C2028 C2027 1.287 . S
C2028 C2029 1.524 . S
C2028 H2047 0.913 . S
C2029 H2005 0.950 . S
C2029 C2028 1.524 . S
C2029 C2030 1.415 . S
C2030 H2006 0.950 . S
C2030 C2025 1.363 . S
C2030 C2029 1.415 . S
C2031 H2007 0.951 . S
C2031 C2032 1.366 . S
C2031 C2033 1.371 1_655 S
C2032 C2031 1.366 . S
C2032 C2036 1.385 . S
C2033 H2008 0.965 . S
C2033 C2031 1.371 1_455 S
C2033 C2034 1.369 . S
C2034 C2033 1.369 . S
C2034 C2035 1.414 1_455 S
C2034 C2037 1.499 . S
C2035 H2009 0.950 . S
C2035 C2034 1.414 1_655 S
C2035 C2036 1.374 . S
C2036 H2010 0.950 . S
C2036 C2032 1.385 . S
C2036 C2035 1.374 . S
C2037 C2034 1.499 . S
C2037 C2038 1.373 . S
C2037 C2039 1.389 . S
C2038 H2011 0.950 . S
C2038 C2024 1.377 . S
C2038 C2037 1.373 . S
C2039 C2023 1.377 . S
C2039 C2037 1.389 . S
C2039 C2040 1.524 . S
C2040 C2039 1.524 . S
C2040 C2041 1.397 . S
C2040 C2045 1.363 . S
C2041 H2012 0.950 1_455 S
C2041 C2040 1.397 . S
C2041 C2042 1.334 1_455 S
C2042 H2013 0.950 . S
C2042 C2041 1.334 1_655 S
C2042 C2043 1.287 1_655 S
C2043 C2042 1.287 1_455 S
C2043 C2044 1.524 . S
C2043 H2046 0.999 1_455 S
C2044 H2014 0.950 . S
C2044 C2043 1.524 . S
C2044 C2045 1.415 . S
C2045 H2015 0.950 . S
C2045 C2040 1.363 . S
C2045 C2044 1.415 . S
H2046 C2043 0.999 1_655 S
H2047 C2028 0.913 . S
H2048 C2066 0.951 . S
H2049 C2068 0.951 . S
H2050 C2070 0.950 . S
H2051 C2071 0.950 . S
H2052 C2073 0.950 . S
H2053 C2076 0.950 . S
H2054 C2077 0.950 . S
H2055 C2079 0.950 . S
H2056 C2080 0.950 . S
H2057 C2081 0.951 . S
H2058 C2083 0.951 . S
H2059 C2085 0.950 . S
H2060 C2086 0.950 . S
H2061 C2088 0.950 . S
H2062 C2091 0.950 . S
H2063 C2092 0.950 . S
H2064 C2094 0.950 . S
H2065 C2095 0.950 . S
C2066 H2048 0.951 . S
C2066 C2067 1.366 . S
C2066 C2068 1.388 . S
C2067 C2066 1.366 . S
C2067 C2071 1.385 . S
C2068 H2049 0.951 . S
C2068 C2066 1.388 . S
C2068 C2069 1.366 . S
C2069 C2068 1.366 . S
C2069 C2070 1.414 . S
C2069 C2072 1.499 . S
C2070 H2050 0.950 . S
C2070 C2069 1.414 . S
C2070 C2071 1.374 . S
C2071 H2051 0.950 . S
C2071 C2067 1.385 . S
C2071 C2070 1.374 . S
C2072 C2069 1.499 . S
C2072 C2073 1.373 . S
C2072 C2074 1.389 . S
C2073 H2052 0.950 . S
C2073 C2072 1.373 . S
C2073 C2089 1.377 . S
C2074 C2072 1.389 . S
C2074 C2075 1.524 . S
C2074 C2088 1.377 . S
C2075 C2074 1.524 . S
C2075 C2076 1.397 . S
C2075 C2080 1.363 . S
C2076 H2053 0.950 . S
C2076 C2075 1.397 . S
C2076 C2077 1.334 . S
C2077 H2054 0.950 . S
C2077 C2076 1.334 . S
C2077 C2078 1.287 . S
C2078 C2077 1.287 . S
C2078 C2079 1.524 . S
C2078 H2097 0.913 . S
C2079 H2055 0.950 . S
C2079 C2078 1.524 . S
C2079 C2080 1.415 . S
C2080 H2056 0.950 . S
C2080 C2075 1.363 . S
C2080 C2079 1.415 . S
C2081 H2057 0.951 . S
C2081 C2082 1.366 . S
C2081 C2083 1.388 . S
C2082 C2081 1.366 . S
C2082 C2086 1.385 . S
C2083 H2058 0.951 . S
C2083 C2081 1.388 . S
C2083 C2084 1.366 . S
C2084 C2083 1.366 . S
C2084 C2085 1.414 . S
C2084 C2087 1.499 . S
C2085 H2059 0.950 . S
C2085 C2084 1.414 . S
C2085 C2086 1.374 . S
C2086 H2060 0.950 . S
C2086 C2082 1.385 . S
C2086 C2085 1.374 . S
C2087 C2084 1.499 . S
C2087 C2088 1.373 . S
C2087 C2089 1.389 . S
C2088 H2061 0.950 . S
C2088 C2074 1.377 . S
C2088 C2087 1.373 . S
C2089 C2073 1.377 . S
C2089 C2087 1.389 . S
C2089 C2090 1.524 . S
C2090 C2089 1.524 . S
C2090 C2091 1.397 . S
C2090 C2095 1.363 . S
C2091 H2062 0.950 . S
C2091 C2090 1.397 . S
C2091 C2092 1.334 . S
C2092 H2063 0.950 . S
C2092 C2091 1.334 . S
C2092 C2093 1.287 . S
C2093 C2092 1.287 . S
C2093 C2094 1.524 . S
C2093 H2096 0.999 . S
C2094 H2064 0.950 . S
C2094 C2093 1.524 . S
C2094 C2095 1.415 . S
C2095 H2065 0.950 . S
C2095 C2090 1.363 . S
C2095 C2094 1.415 . S
H2096 C2093 0.999 . S
H2097 C2078 0.913 . S
H2098 C2116 0.951 . S
H2099 C2118 0.951 . S
H2100 C2120 0.950 . S
H2101 C2121 0.950 . S
H2102 C2123 0.950 . S
H2103 C2126 0.950 . S
H2104 C2127 0.950 . S
H2105 C2129 0.950 . S
H2106 C2130 0.950 . S
H2107 C2131 0.951 . S
H2108 C2133 0.951 . S
H2109 C2135 0.950 . S
H2110 C2136 0.950 . S
H2111 C2138 0.950 . S
H2112 C2141 0.950 . S
H2113 C2142 0.950 . S
H2114 C2144 0.950 . S
H2115 C2145 0.950 . S
C2116 H2098 0.951 . S
C2116 C2117 1.366 . S
C2116 C2118 1.388 . S
C2117 C2116 1.366 . S
C2117 C2121 1.385 . S
C2118 H2099 0.951 . S
C2118 C2116 1.388 . S
C2118 C2119 1.366 . S
C2119 C2118 1.366 . S
C2119 C2120 1.414 . S
C2119 C2122 1.499 . S
C2120 H2100 0.950 . S
C2120 C2119 1.414 . S
C2120 C2121 1.374 . S
C2121 H2101 0.950 . S
C2121 C2117 1.385 . S
C2121 C2120 1.374 . S
C2122 C2119 1.499 . S
C2122 C2123 1.373 . S
C2122 C2124 1.389 . S
C2123 H2102 0.950 . S
C2123 C2122 1.373 . S
C2123 C2139 1.377 . S
C2124 C2122 1.389 . S
C2124 C2125 1.524 . S
C2124 C2138 1.377 . S
C2125 C2124 1.524 . S
C2125 C2126 1.397 . S
C2125 C2130 1.363 . S
C2126 H2103 0.950 . S
C2126 C2125 1.397 . S
C2126 C2127 1.334 . S
C2127 H2104 0.950 . S
C2127 C2126 1.334 . S
C2127 C2128 1.287 . S
C2128 C2127 1.287 . S
C2128 C2129 1.524 . S
C2128 H2147 0.913 . S
C2129 H2105 0.950 . S
C2129 C2128 1.524 . S
C2129 C2130 1.415 . S
C2130 H2106 0.950 . S
C2130 C2125 1.363 . S
C2130 C2129 1.415 . S
C2131 H2107 0.951 . S
C2131 C2132 1.366 . S
C2131 C2133 1.388 . S
C2132 C2131 1.366 . S
C2132 C2136 1.385 . S
C2133 H2108 0.951 . S
C2133 C2131 1.388 . S
C2133 C2134 1.366 . S
C2134 C2133 1.366 . S
C2134 C2135 1.414 . S
C2134 C2137 1.499 . S
C2135 H2109 0.950 . S
C2135 C2134 1.414 . S
C2135 C2136 1.374 . S
C2136 H2110 0.950 . S
C2136 C2132 1.385 . S
C2136 C2135 1.374 . S
C2137 C2134 1.499 . S
C2137 C2138 1.373 . S
C2137 C2139 1.389 . S
C2138 H2111 0.950 . S
C2138 C2124 1.377 . S
C2138 C2137 1.373 . S
C2139 C2123 1.377 . S
C2139 C2137 1.389 . S
C2139 C2140 1.524 . S
C2140 C2139 1.524 . S
C2140 C2141 1.397 . S
C2140 C2145 1.363 . S
C2141 H2112 0.950 . S
C2141 C2140 1.397 . S
C2141 C2142 1.334 . S
C2142 H2113 0.950 . S
C2142 C2141 1.334 . S
C2142 C2143 1.287 . S
C2143 C2142 1.287 . S
C2143 C2144 1.524 . S
C2143 H2146 0.999 . S
C2144 H2114 0.950 . S
C2144 C2143 1.524 . S
C2144 C2145 1.415 . S
C2145 H2115 0.950 . S
C2145 C2140 1.363 . S
C2145 C2144 1.415 . S
H2146 C2143 0.999 . S
H2147 C2128 0.913 . S
H2148 C2166 0.951 . S
H2149 C2168 0.951 . S
H2150 C2170 0.950 . S
H2151 C2171 0.950 . S
H2152 C2173 0.950 . S
H2153 C2176 0.950 . S
H2154 C2177 0.950 . S
H2155 C2179 0.950 . S
H2156 C2180 0.950 . S
H2157 C2181 0.951 . S
H2158 C2183 0.951 . S
H2159 C2185 0.950 . S
H2160 C2186 0.950 . S
H2161 C2188 0.950 . S
H2162 C2191 0.950 . S
H2163 C2192 0.950 . S
H2164 C2194 0.950 . S
H2165 C2195 0.950 . S
C2166 H2148 0.951 . S
C2166 C2167 1.366 . S
C2166 C2168 1.388 . S
C2167 C2166 1.366 . S
C2167 C2171 1.385 . S
C2168 H2149 0.951 . S
C2168 C2166 1.388 . S
C2168 C2169 1.366 . S
C2169 C2168 1.366 . S
C2169 C2170 1.414 . S
C2169 C2172 1.499 . S
C2170 H2150 0.950 . S
C2170 C2169 1.414 . S
C2170 C2171 1.374 . S
C2171 H2151 0.950 . S
C2171 C2167 1.385 . S
C2171 C2170 1.374 . S
C2172 C2169 1.499 . S
C2172 C2173 1.373 . S
C2172 C2174 1.389 . S
C2173 H2152 0.950 . S
C2173 C2172 1.373 . S
C2173 C2189 1.377 . S
C2174 C2172 1.389 . S
C2174 C2175 1.524 . S
C2174 C2188 1.377 . S
C2175 C2174 1.524 . S
C2175 C2176 1.397 . S
C2175 C2180 1.363 . S
C2176 H2153 0.950 . S
C2176 C2175 1.397 . S
C2176 C2177 1.334 . S
C2177 H2154 0.950 . S
C2177 C2176 1.334 . S
C2177 C2178 1.287 . S
C2178 C2177 1.287 . S
C2178 C2179 1.524 . S
C2178 H2197 0.913 . S
C2179 H2155 0.950 . S
C2179 C2178 1.524 . S
C2179 C2180 1.415 . S
C2180 H2156 0.950 . S
C2180 C2175 1.363 . S
C2180 C2179 1.415 . S
C2181 H2157 0.951 . S
C2181 C2182 1.366 . S
C2181 C2183 1.388 . S
C2182 C2181 1.366 . S
C2182 C2186 1.385 . S
C2183 H2158 0.951 . S
C2183 C2181 1.388 . S
C2183 C2184 1.366 . S
C2184 C2183 1.366 . S
C2184 C2185 1.414 . S
C2184 C2187 1.499 . S
C2185 H2159 0.950 . S
C2185 C2184 1.414 . S
C2185 C2186 1.374 . S
C2186 H2160 0.950 . S
C2186 C2182 1.385 . S
C2186 C2185 1.374 . S
C2187 C2184 1.499 . S
C2187 C2188 1.373 . S
C2187 C2189 1.389 . S
C2188 H2161 0.950 . S
C2188 C2174 1.377 . S
C2188 C2187 1.373 . S
C2189 C2173 1.377 . S
C2189 C2187 1.389 . S
C2189 C2190 1.524 . S
C2190 C2189 1.524 . S
C2190 C2191 1.397 . S
C2190 C2195 1.363 . S
C2191 H2162 0.950 . S
C2191 C2190 1.397 . S
C2191 C2192 1.334 . S
C2192 H2163 0.950 . S
C2192 C2191 1.334 . S
C2192 C2193 1.287 . S
C2193 C2192 1.287 . S
C2193 C2194 1.524 . S
C2193 H2196 0.999 . S
C2194 H2164 0.950 . S
C2194 C2193 1.524 . S
C2194 C2195 1.415 . S
C2195 H2165 0.950 . S
C2195 C2190 1.363 . S
C2195 C2194 1.415 . S
H2196 C2193 0.999 . S
H2197 C2178 0.913 . S
H2198 C2216 0.951 . S
H2199 C2218 0.951 . S
H2200 C2220 0.950 . S
H2201 C2221 0.950 . S
H2202 C2223 0.950 . S
H2203 C2226 0.950 . S
H2204 C2227 0.950 . S
H2205 C2229 0.950 . S
H2206 C2230 0.950 . S
H2207 C2231 0.951 . S
H2208 C2233 0.951 . S
H2209 C2235 0.950 . S
H2210 C2236 0.950 . S
H2211 C2238 0.950 . S
H2212 C2241 0.950 . S
H2213 C2242 0.950 . S
H2214 C2244 0.950 . S
H2215 C2245 0.950 . S
C2216 H2198 0.951 . S
C2216 C2217 1.366 . S
C2216 C2218 1.388 . S
C2217 C2216 1.366 . S
C2217 C2221 1.385 . S
C2218 H2199 0.951 . S
C2218 C2216 1.388 . S
C2218 C2219 1.366 . S
C2219 C2218 1.366 . S
C2219 C2220 1.414 . S
C2219 C2222 1.499 . S
C2220 H2200 0.950 . S
C2220 C2219 1.414 . S
C2220 C2221 1.374 . S
C2221 H2201 0.950 . S
C2221 C2217 1.385 . S
C2221 C2220 1.374 . S
C2222 C2219 1.499 . S
C2222 C2223 1.373 . S
C2222 C2224 1.389 . S
C2223 H2202 0.950 . S
C2223 C2222 1.373 . S
C2223 C2239 1.377 . S
C2224 C2222 1.389 . S
C2224 C2225 1.524 . S
C2224 C2238 1.377 . S
C2225 C2224 1.524 . S
C2225 C2226 1.397 . S
C2225 C2230 1.363 . S
C2226 H2203 0.950 . S
C2226 C2225 1.397 . S
C2226 C2227 1.334 . S
C2227 H2204 0.950 . S
C2227 C2226 1.334 . S
C2227 C2228 1.287 . S
C2228 C2227 1.287 . S
C2228 C2229 1.524 . S
C2228 H2247 0.913 . S
C2229 H2205 0.950 . S
C2229 C2228 1.524 . S
C2229 C2230 1.415 . S
C2230 H2206 0.950 . S
C2230 C2225 1.363 . S
C2230 C2229 1.415 . S
C2231 H2207 0.951 . S
C2231 C2232 1.366 . S
C2231 C2233 1.388 1_655 S
C2232 C2231 1.366 . S
C2232 C2236 1.385 . S
C2233 H2208 0.951 . S
C2233 C2231 1.388 1_455 S
C2233 C2234 1.366 . S
C2234 C2233 1.366 . S
C2234 C2235 1.414 1_455 S
C2234 C2237 1.499 . S
C2235 H2209 0.950 . S
C2235 C2234 1.414 1_655 S
C2235 C2236 1.374 . S
C2236 H2210 0.950 . S
C2236 C2232 1.385 . S
C2236 C2235 1.374 . S
C2237 C2234 1.499 . S
C2237 C2238 1.373 . S
C2237 C2239 1.389 . S
C2238 H2211 0.950 . S
C2238 C2224 1.377 . S
C2238 C2237 1.373 . S
C2239 C2223 1.377 . S
C2239 C2237 1.389 . S
C2239 C2240 1.524 . S
C2240 C2239 1.524 . S
C2240 C2241 1.397 . S
C2240 C2245 1.363 . S
C2241 H2212 0.950 . S
C2241 C2240 1.397 . S
C2241 C2242 1.334 . S
C2242 H2213 0.950 . S
C2242 C2241 1.334 . S
C2242 C2243 1.287 . S
C2243 C2242 1.287 . S
C2243 C2244 1.524 . S
C2243 H2246 0.999 . S
C2244 H2214 0.950 . S
C2244 C2243 1.524 . S
C2244 C2245 1.415 . S
C2245 H2215 0.950 . S
C2245 C2240 1.363 . S
C2245 C2244 1.415 . S
H2246 C2243 0.999 . S
H2247 C2228 0.913 . S
H2248 C2266 0.951 . S
H2249 C2268 0.951 . S
H2250 C2270 0.950 . S
H2251 C2271 0.950 . S
H2252 C2273 0.950 . S
H2253 C2276 0.950 . S
H2254 C2277 0.950 . S
H2255 C2279 0.950 . S
H2256 C2280 0.950 . S
H2257 C2281 0.951 . S
H2258 C2283 0.951 . S
H2259 C2285 0.950 . S
H2260 C2286 0.950 . S
H2261 C2288 0.950 . S
H2262 C2291 0.950 . S
H2263 C2292 0.950 . S
H2264 C2294 0.950 . S
H2265 C2295 0.950 . S
C2266 H2248 0.951 . S
C2266 C2267 1.366 . S
C2266 C2268 1.388 . S
C2267 C2266 1.366 . S
C2267 C2271 1.385 . S
C2268 H2249 0.951 . S
C2268 C2266 1.388 . S
C2268 C2269 1.366 . S
C2269 C2268 1.366 . S
C2269 C2270 1.414 . S
C2269 C2272 1.499 . S
C2270 H2250 0.950 . S
C2270 C2269 1.414 . S
C2270 C2271 1.374 . S
C2271 H2251 0.950 . S
C2271 C2267 1.385 . S
C2271 C2270 1.374 . S
C2272 C2269 1.499 . S
C2272 C2273 1.373 . S
C2272 C2274 1.389 . S
C2273 H2252 0.950 . S
C2273 C2272 1.373 . S
C2273 C2289 1.377 . S
C2274 C2272 1.389 . S
C2274 C2275 1.524 . S
C2274 C2288 1.377 . S
C2275 C2274 1.524 . S
C2275 C2276 1.397 . S
C2275 C2280 1.363 . S
C2276 H2253 0.950 . S
C2276 C2275 1.397 . S
C2276 C2277 1.334 . S
C2277 H2254 0.950 . S
C2277 C2276 1.334 . S
C2277 C2278 1.287 . S
C2278 C2277 1.287 . S
C2278 C2279 1.524 . S
C2278 H2297 0.913 . S
C2279 H2255 0.950 . S
C2279 C2278 1.524 . S
C2279 C2280 1.415 . S
C2280 H2256 0.950 . S
C2280 C2275 1.363 . S
C2280 C2279 1.415 . S
C2281 H2257 0.951 . S
C2281 C2282 1.366 . S
C2281 C2283 1.388 . S
C2282 C2281 1.366 . S
C2282 C2286 1.385 . S
C2283 H2258 0.951 . S
C2283 C2281 1.388 . S
C2283 C2284 1.366 . S
C2284 C2283 1.366 . S
C2284 C2285 1.414 . S
C2284 C2287 1.499 . S
C2285 H2259 0.950 . S
C2285 C2284 1.414 . S
C2285 C2286 1.374 . S
C2286 H2260 0.950 . S
C2286 C2282 1.385 . S
C2286 C2285 1.374 . S
C2287 C2284 1.499 . S
C2287 C2288 1.373 . S
C2287 C2289 1.389 . S
C2288 H2261 0.950 . S
C2288 C2274 1.377 . S
C2288 C2287 1.373 . S
C2289 C2273 1.377 . S
C2289 C2287 1.389 . S
C2289 C2290 1.524 . S
C2290 C2289 1.524 . S
C2290 C2291 1.397 . S
C2290 C2295 1.363 . S
C2291 H2262 0.950 . S
C2291 C2290 1.397 . S
C2291 C2292 1.334 . S
C2292 H2263 0.950 . S
C2292 C2291 1.334 . S
C2292 C2293 1.287 . S
C2293 C2292 1.287 . S
C2293 C2294 1.524 . S
C2293 H2296 0.999 . S
C2294 H2264 0.950 . S
C2294 C2293 1.524 . S
C2294 C2295 1.415 . S
C2295 H2265 0.950 . S
C2295 C2290 1.363 . S
C2295 C2294 1.415 . S
H2296 C2293 0.999 . S
H2297 C2278 0.913 . S
H2298 C2316 0.951 . S
H2299 C2318 0.951 . S
H2300 C2320 0.950 . S
H2301 C2321 0.950 . S
H2302 C2323 0.950 . S
H2303 C2326 0.950 . S
H2304 C2327 0.950 . S
H2305 C2329 0.950 . S
H2306 C2330 0.950 . S
H2307 C2331 0.951 . S
H2308 C2333 0.951 . S
H2309 C2335 0.950 . S
H2310 C2336 0.950 . S
H2311 C2338 0.950 . S
H2312 C2341 0.950 . S
H2313 C2342 0.950 . S
H2314 C2344 0.950 . S
H2315 C2345 0.950 . S
C2316 H2298 0.951 . S
C2316 C2317 1.366 . S
C2316 C2318 1.388 1_655 S
C2317 C2316 1.366 . S
C2317 C2321 1.385 . S
C2318 H2299 0.951 . S
C2318 C2316 1.388 1_455 S
C2318 C2319 1.366 . S
C2319 C2318 1.366 . S
C2319 C2320 1.414 1_455 S
C2319 C2322 1.499 . S
C2320 H2300 0.950 . S
C2320 C2319 1.414 1_655 S
C2320 C2321 1.374 . S
C2321 H2301 0.950 . S
C2321 C2317 1.385 . S
C2321 C2320 1.374 . S
C2322 C2319 1.499 . S
C2322 C2323 1.373 . S
C2322 C2324 1.389 . S
C2323 H2302 0.950 . S
C2323 C2322 1.373 . S
C2323 C2339 1.377 . S
C2324 C2322 1.389 . S
C2324 C2325 1.524 . S
C2324 C2338 1.377 . S
C2325 C2324 1.524 . S
C2325 C2326 1.397 . S
C2325 C2330 1.363 . S
C2326 H2303 0.950 . S
C2326 C2325 1.397 . S
C2326 C2327 1.334 . S
C2327 H2304 0.950 . S
C2327 C2326 1.334 . S
C2327 C2328 1.287 . S
C2328 C2327 1.287 . S
C2328 C2329 1.524 . S
C2328 H2347 0.913 . S
C2329 H2305 0.950 . S
C2329 C2328 1.524 . S
C2329 C2330 1.415 . S
C2330 H2306 0.950 . S
C2330 C2325 1.363 . S
C2330 C2329 1.415 . S
C2331 H2307 0.951 . S
C2331 C2332 1.366 . S
C2331 C2333 1.388 . S
C2332 C2331 1.366 . S
C2332 C2336 1.385 . S
C2333 H2308 0.951 . S
C2333 C2331 1.388 . S
C2333 C2334 1.366 . S
C2334 C2333 1.366 . S
C2334 C2335 1.414 . S
C2334 C2337 1.499 . S
C2335 H2309 0.950 . S
C2335 C2334 1.414 . S
C2335 C2336 1.374 . S
C2336 H2310 0.950 . S
C2336 C2332 1.385 . S
C2336 C2335 1.374 . S
C2337 C2334 1.499 . S
C2337 C2338 1.373 . S
C2337 C2339 1.389 . S
C2338 H2311 0.950 . S
C2338 C2324 1.377 . S
C2338 C2337 1.373 . S
C2339 C2323 1.377 . S
C2339 C2337 1.389 . S
C2339 C2340 1.524 . S
C2340 C2339 1.524 . S
C2340 C2341 1.397 . S
C2340 C2345 1.363 . S
C2341 H2312 0.950 . S
C2341 C2340 1.397 . S
C2341 C2342 1.334 . S
C2342 H2313 0.950 . S
C2342 C2341 1.334 . S
C2342 C2343 1.287 . S
C2343 C2342 1.287 . S
C2343 C2344 1.524 . S
C2343 H2346 0.999 . S
C2344 H2314 0.950 . S
C2344 C2343 1.524 . S
C2344 C2345 1.415 . S
C2345 H2315 0.950 . S
C2345 C2340 1.363 . S
C2345 C2344 1.415 . S
H2346 C2343 0.999 . S
H2347 C2328 0.913 . S
H2348 C2366 0.951 . S
H2349 C2368 0.951 . S
H2350 C2370 0.950 . S
H2351 C2371 0.950 . S
H2352 C2373 0.950 . S
H2353 C2376 0.950 . S
H2354 C2377 0.950 . S
H2355 C2379 0.950 . S
H2356 C2380 0.950 . S
H2357 C2381 0.951 . S
H2358 C2383 0.951 . S
H2359 C2385 0.950 . S
H2360 C2386 0.950 . S
H2361 C2388 0.950 . S
H2362 C2391 0.950 . S
H2363 C2392 0.950 . S
H2364 C2394 0.950 . S
H2365 C2395 0.950 . S
C2366 H2348 0.951 . S
C2366 C2367 1.366 . S
C2366 C2368 1.388 . S
C2367 C2366 1.366 . S
C2367 C2371 1.385 . S
C2368 H2349 0.951 . S
C2368 C2366 1.388 . S
C2368 C2369 1.366 . S
C2369 C2368 1.366 . S
C2369 C2370 1.414 . S
C2369 C2372 1.499 . S
C2370 H2350 0.950 . S
C2370 C2369 1.414 . S
C2370 C2371 1.374 . S
C2371 H2351 0.950 . S
C2371 C2367 1.385 . S
C2371 C2370 1.374 . S
C2372 C2369 1.499 . S
C2372 C2373 1.373 . S
C2372 C2374 1.389 . S
C2373 H2352 0.950 . S
C2373 C2372 1.373 . S
C2373 C2389 1.377 . S
C2374 C2372 1.389 . S
C2374 C2375 1.524 . S
C2374 C2388 1.377 . S
C2375 C2374 1.524 . S
C2375 C2376 1.397 . S
C2375 C2380 1.363 . S
C2376 H2353 0.950 . S
C2376 C2375 1.397 . S
C2376 C2377 1.334 . S
C2377 H2354 0.950 . S
C2377 C2376 1.334 . S
C2377 C2378 1.287 . S
C2378 C2377 1.287 . S
C2378 C2379 1.524 . S
C2378 H2397 0.913 . S
C2379 H2355 0.950 . S
C2379 C2378 1.524 . S
C2379 C2380 1.415 . S
C2380 H2356 0.950 . S
C2380 C2375 1.363 . S
C2380 C2379 1.415 . S
C2381 H2357 0.951 . S
C2381 C2382 1.366 . S
C2381 C2383 1.388 . S
C2382 C2381 1.366 . S
C2382 C2386 1.385 . S
C2383 H2358 0.951 . S
C2383 C2381 1.388 . S
C2383 C2384 1.366 . S
C2384 C2383 1.366 . S
C2384 C2385 1.414 . S
C2384 C2387 1.499 . S
C2385 H2359 0.950 . S
C2385 C2384 1.414 . S
C2385 C2386 1.374 . S
C2386 H2360 0.950 . S
C2386 C2382 1.385 . S
C2386 C2385 1.374 . S
C2387 C2384 1.499 . S
C2387 C2388 1.373 . S
C2387 C2389 1.389 . S
C2388 H2361 0.950 . S
C2388 C2374 1.377 . S
C2388 C2387 1.373 . S
C2389 C2373 1.377 . S
C2389 C2387 1.389 . S
C2389 C2390 1.524 . S
C2390 C2389 1.524 . S
C2390 C2391 1.397 . S
C2390 C2395 1.363 . S
C2391 H2362 0.950 . S
C2391 C2390 1.397 . S
C2391 C2392 1.334 . S
C2392 H2363 0.950 . S
C2392 C2391 1.334 . S
C2392 C2393 1.287 . S
C2393 C2392 1.287 . S
C2393 C2394 1.524 . S
C2393 H2396 0.999 . S
C2394 H2364 0.950 . S
C2394 C2393 1.524 . S
C2394 C2395 1.415 . S
C2395 H2365 0.950 . S
C2395 C2390 1.363 . S
C2395 C2394 1.415 . S
H2396 C2393 0.999 . S
H2397 C2378 0.913 . S
H2398 C2416 0.951 . S
H2399 C2418 0.951 . S
H2400 C2420 0.950 . S
H2401 C2421 0.950 . S
H2402 C2423 0.950 . S
H2403 C2426 0.950 . S
H2404 C2427 0.950 . S
H2405 C2429 0.950 . S
H2406 C2430 0.950 . S
H2407 C2431 0.951 . S
H2408 C2433 0.951 . S
H2409 C2435 0.950 . S
H2410 C2436 0.950 . S
H2411 C2438 0.950 . S
H2412 C2441 0.950 . S
H2413 C2442 0.950 . S
H2414 C2444 0.950 . S
H2415 C2445 0.950 . S
C2416 H2398 0.951 . S
C2416 C2417 1.366 . S
C2416 C2418 1.388 . S
C2417 C2416 1.366 . S
C2417 C2421 1.385 . S
C2418 H2399 0.951 . S
C2418 C2416 1.388 . S
C2418 C2419 1.366 . S
C2419 C2418 1.366 . S
C2419 C2420 1.414 . S
C2419 C2422 1.499 . S
C2420 H2400 0.950 . S
C2420 C2419 1.414 . S
C2420 C2421 1.374 . S
C2421 H2401 0.950 . S
C2421 C2417 1.385 . S
C2421 C2420 1.374 . S
C2422 C2419 1.499 . S
C2422 C2423 1.373 . S
C2422 C2424 1.389 . S
C2423 H2402 0.950 . S
C2423 C2422 1.373 . S
C2423 C2439 1.377 . S
C2424 C2422 1.389 . S
C2424 C2425 1.524 . S
C2424 C2438 1.377 . S
C2425 C2424 1.524 . S
C2425 C2426 1.397 . S
C2425 C2430 1.363 . S
C2426 H2403 0.950 . S
C2426 C2425 1.397 . S
C2426 C2427 1.334 . S
C2427 H2404 0.950 . S
C2427 C2426 1.334 . S
C2427 C2428 1.287 . S
C2428 C2427 1.287 . S
C2428 C2429 1.524 . S
C2428 H2447 0.913 . S
C2429 H2405 0.950 . S
C2429 C2428 1.524 . S
C2429 C2430 1.415 . S
C2430 H2406 0.950 . S
C2430 C2425 1.363 . S
C2430 C2429 1.415 . S
C2431 H2407 0.951 . S
C2431 C2432 1.366 . S
C2431 C2433 1.388 . S
C2432 C2431 1.366 . S
C2432 C2436 1.385 . S
C2433 H2408 0.951 . S
C2433 C2431 1.388 . S
C2433 C2434 1.366 . S
C2434 C2433 1.366 . S
C2434 C2435 1.414 . S
C2434 C2437 1.499 . S
C2435 H2409 0.950 . S
C2435 C2434 1.414 . S
C2435 C2436 1.374 . S
C2436 H2410 0.950 . S
C2436 C2432 1.385 . S
C2436 C2435 1.374 . S
C2437 C2434 1.499 . S
C2437 C2438 1.373 . S
C2437 C2439 1.389 . S
C2438 H2411 0.950 . S
C2438 C2424 1.377 . S
C2438 C2437 1.373 . S
C2439 C2423 1.377 . S
C2439 C2437 1.389 . S
C2439 C2440 1.524 . S
C2440 C2439 1.524 . S
C2440 C2441 1.397 . S
C2440 C2445 1.363 . S
C2441 H2412 0.950 . S
C2441 C2440 1.397 . S
C2441 C2442 1.334 . S
C2442 H2413 0.950 . S
C2442 C2441 1.334 . S
C2442 C2443 1.287 . S
C2443 C2442 1.287 . S
C2443 C2444 1.524 . S
C2443 H2446 0.999 . S
C2444 H2414 0.950 . S
C2444 C2443 1.524 . S
C2444 C2445 1.415 . S
C2445 H2415 0.950 . S
C2445 C2440 1.363 . S
C2445 C2444 1.415 . S
H2446 C2443 0.999 . S
H2447 C2428 0.913 . S
H2448 C2466 0.951 . S
H2449 C2468 0.951 . S
H2450 C2470 0.950 . S
H2451 C2471 0.950 . S
H2452 C2473 0.950 . S
H2453 C2476 0.950 . S
H2454 C2477 0.950 . S
H2455 C2479 0.950 . S
H2456 C2480 0.950 . S
H2457 C2481 0.951 . S
H2458 C2483 0.951 . S
H2459 C2485 0.950 . S
H2460 C2486 0.950 . S
H2461 C2488 0.950 . S
H2462 C2491 0.950 . S
H2463 C2492 0.950 . S
H2464 C2494 0.950 . S
H2465 C2495 0.950 . S
C2466 H2448 0.951 . S
C2466 C2467 1.366 . S
C2466 C2468 1.388 . S
C2467 C2466 1.366 . S
C2467 C2471 1.385 . S
C2468 H2449 0.951 . S
C2468 C2466 1.388 . S
C2468 C2469 1.366 . S
C2469 C2468 1.366 . S
C2469 C2470 1.414 . S
C2469 C2472 1.499 . S
C2470 H2450 0.950 . S
C2470 C2469 1.414 . S
C2470 C2471 1.374 . S
C2471 H2451 0.950 . S
C2471 C2467 1.385 . S
C2471 C2470 1.374 . S
C2472 C2469 1.499 . S
C2472 C2473 1.373 . S
C2472 C2474 1.389 . S
C2473 H2452 0.950 . S
C2473 C2472 1.373 . S
C2473 C2489 1.377 . S
C2474 C2472 1.389 . S
C2474 C2475 1.524 . S
C2474 C2488 1.377 . S
C2475 C2474 1.524 . S
C2475 C2476 1.397 . S
C2475 C2480 1.363 . S
C2476 H2453 0.950 . S
C2476 C2475 1.397 . S
C2476 C2477 1.334 . S
C2477 H2454 0.950 . S
C2477 C2476 1.334 . S
C2477 C2478 1.287 . S
C2478 C2477 1.287 . S
C2478 C2479 1.524 . S
C2478 H2497 0.913 . S
C2479 H2455 0.950 . S
C2479 C2478 1.524 . S
C2479 C2480 1.415 . S
C2480 H2456 0.950 . S
C2480 C2475 1.363 . S
C2480 C2479 1.415 . S
C2481 H2457 0.951 . S
C2481 C2482 1.366 . S
C2481 C2483 1.388 . S
C2482 C2481 1.366 . S
C2482 C2486 1.385 . S
C2483 H2458 0.951 . S
C2483 C2481 1.388 . S
C2483 C2484 1.366 . S
C2484 C2483 1.366 . S
C2484 C2485 1.414 . S
C2484 C2487 1.499 . S
C2485 H2459 0.950 . S
C2485 C2484 1.414 . S
C2485 C2486 1.374 . S
C2486 H2460 0.950 . S
C2486 C2482 1.385 . S
C2486 C2485 1.374 . S
C2487 C2484 1.499 . S
C2487 C2488 1.373 . S
C2487 C2489 1.389 . S
C2488 H2461 0.950 . S
C2488 C2474 1.377 . S
C2488 C2487 1.373 . S
C2489 C2473 1.377 . S
C2489 C2487 1.389 . S
C2489 C2490 1.524 . S
C2490 C2489 1.524 . S
C2490 C2491 1.397 . S
C2490 C2495 1.363 . S
C2491 H2462 0.950 . S
C2491 C2490 1.397 . S
C2491 C2492 1.334 . S
C2492 H2463 0.950 . S
C2492 C2491 1.334 . S
C2492 C2493 1.287 . S
C2493 C2492 1.287 . S
C2493 C2494 1.524 . S
C2493 H2496 0.999 . S
C2494 H2464 0.950 . S
C2494 C2493 1.524 . S
C2494 C2495 1.415 . S
C2495 H2465 0.950 . S
C2495 C2490 1.363 . S
C2495 C2494 1.415 . S
H2496 C2493 0.999 . S
H2497 C2478 0.913 . S
H2498 C2516 0.951 . S
H2499 C2518 0.951 . S
H2500 C2520 0.950 . S
H2501 C2521 0.950 . S
H2502 C2523 0.950 . S
H2503 C2526 0.950 . S
H2504 C2527 0.950 . S
H2505 C2529 0.950 . S
H2506 C2530 0.950 . S
H2507 C2531 0.951 . S
H2508 C2533 0.951 . S
H2509 C2535 0.950 . S
H2510 C2536 0.950 . S
H2511 C2538 0.950 . S
H2512 C2541 0.950 . S
H2513 C2542 0.950 . S
H2514 C2544 0.950 . S
H2515 C2545 0.950 . S
C2516 H2498 0.951 . S
C2516 C2517 1.366 . S
C2516 C2518 1.388 . S
C2517 C2516 1.366 . S
C2517 C2521 1.385 . S
C2518 H2499 0.951 . S
C2518 C2516 1.388 . S
C2518 C2519 1.366 . S
C2519 C2518 1.366 . S
C2519 C2520 1.414 . S
C2519 C2522 1.499 . S
C2520 H2500 0.950 . S
C2520 C2519 1.414 . S
C2520 C2521 1.374 . S
C2521 H2501 0.950 . S
C2521 C2517 1.385 . S
C2521 C2520 1.374 . S
C2522 C2519 1.499 . S
C2522 C2523 1.373 . S
C2522 C2524 1.389 . S
C2523 H2502 0.950 . S
C2523 C2522 1.373 . S
C2523 C2539 1.377 . S
C2524 C2522 1.389 . S
C2524 C2525 1.524 . S
C2524 C2538 1.377 . S
C2525 C2524 1.524 . S
C2525 C2526 1.397 . S
C2525 C2530 1.363 . S
C2526 H2503 0.950 . S
C2526 C2525 1.397 . S
C2526 C2527 1.334 . S
C2527 H2504 0.950 . S
C2527 C2526 1.334 . S
C2527 C2528 1.287 . S
C2528 C2527 1.287 . S
C2528 C2529 1.524 . S
C2528 H2547 0.913 . S
C2529 H2505 0.950 . S
C2529 C2528 1.524 . S
C2529 C2530 1.415 . S
C2530 H2506 0.950 . S
C2530 C2525 1.363 . S
C2530 C2529 1.415 . S
C2531 H2507 0.951 . S
C2531 C2532 1.366 . S
C2531 C2533 1.388 . S
C2532 C2531 1.366 . S
C2532 C2536 1.385 . S
C2533 H2508 0.951 . S
C2533 C2531 1.388 . S
C2533 C2534 1.366 . S
C2534 C2533 1.366 . S
C2534 C2535 1.414 . S
C2534 C2537 1.499 . S
C2535 H2509 0.950 . S
C2535 C2534 1.414 . S
C2535 C2536 1.374 . S
C2536 H2510 0.950 . S
C2536 C2532 1.385 . S
C2536 C2535 1.374 . S
C2537 C2534 1.499 . S
C2537 C2538 1.373 . S
C2537 C2539 1.389 . S
C2538 H2511 0.950 . S
C2538 C2524 1.377 . S
C2538 C2537 1.373 . S
C2539 C2523 1.377 . S
C2539 C2537 1.389 . S
C2539 C2540 1.524 . S
C2540 C2539 1.524 . S
C2540 C2541 1.397 . S
C2540 C2545 1.363 . S
C2541 H2512 0.950 . S
C2541 C2540 1.397 . S
C2541 C2542 1.334 . S
C2542 H2513 0.950 . S
C2542 C2541 1.334 . S
C2542 C2543 1.287 . S
C2543 C2542 1.287 . S
C2543 C2544 1.524 . S
C2543 H2546 0.999 . S
C2544 H2514 0.950 . S
C2544 C2543 1.524 . S
C2544 C2545 1.415 . S
C2545 H2515 0.950 . S
C2545 C2540 1.363 . S
C2545 C2544 1.415 . S
H2546 C2543 0.999 . S
H2547 C2528 0.913 . S
H2548 C2566 0.951 . S
H2549 C2568 0.951 . S
H2550 C2570 0.950 . S
H2551 C2571 0.950 . S
H2552 C2573 0.950 . S
H2553 C2576 0.950 . S
H2554 C2577 0.950 . S
H2555 C2579 0.950 . S
H2556 C2580 0.950 . S
H2557 C2581 0.951 . S
H2558 C2583 0.951 . S
H2559 C2585 0.950 . S
H2560 C2586 0.950 . S
H2561 C2588 0.950 . S
H2562 C2591 0.950 . S
H2563 C2592 0.950 . S
H2564 C2594 0.950 . S
H2565 C2595 0.950 . S
C2566 H2548 0.951 . S
C2566 C2567 1.366 . S
C2566 C2568 1.388 . S
C2567 C2566 1.366 . S
C2567 C2571 1.385 . S
C2568 H2549 0.951 . S
C2568 C2566 1.388 . S
C2568 C2569 1.366 . S
C2569 C2568 1.366 . S
C2569 C2570 1.414 . S
C2569 C2572 1.499 . S
C2570 H2550 0.950 . S
C2570 C2569 1.414 . S
C2570 C2571 1.374 . S
C2571 H2551 0.950 . S
C2571 C2567 1.385 . S
C2571 C2570 1.374 . S
C2572 C2569 1.499 . S
C2572 C2573 1.373 . S
C2572 C2574 1.389 . S
C2573 H2552 0.950 . S
C2573 C2572 1.373 . S
C2573 C2589 1.377 . S
C2574 C2572 1.389 . S
C2574 C2575 1.524 . S
C2574 C2588 1.377 . S
C2575 C2574 1.524 . S
C2575 C2576 1.397 . S
C2575 C2580 1.363 . S
C2576 H2553 0.950 . S
C2576 C2575 1.397 . S
C2576 C2577 1.334 . S
C2577 H2554 0.950 . S
C2577 C2576 1.334 . S
C2577 C2578 1.287 . S
C2578 C2577 1.287 . S
C2578 C2579 1.524 . S
C2578 H2597 0.913 . S
C2579 H2555 0.950 . S
C2579 C2578 1.524 . S
C2579 C2580 1.415 . S
C2580 H2556 0.950 . S
C2580 C2575 1.363 . S
C2580 C2579 1.415 . S
C2581 H2557 0.951 . S
C2581 C2582 1.366 . S
C2581 C2583 1.388 . S
C2582 C2581 1.366 . S
C2582 C2586 1.385 . S
C2583 H2558 0.951 . S
C2583 C2581 1.388 . S
C2583 C2584 1.366 . S
C2584 C2583 1.366 . S
C2584 C2585 1.414 . S
C2584 C2587 1.499 . S
C2585 H2559 0.950 . S
C2585 C2584 1.414 . S
C2585 C2586 1.374 . S
C2586 H2560 0.950 . S
C2586 C2582 1.385 . S
C2586 C2585 1.374 . S
C2587 C2584 1.499 . S
C2587 C2588 1.373 . S
C2587 C2589 1.389 . S
C2588 H2561 0.950 . S
C2588 C2574 1.377 . S
C2588 C2587 1.373 . S
C2589 C2573 1.377 . S
C2589 C2587 1.389 . S
C2589 C2590 1.524 . S
C2590 C2589 1.524 . S
C2590 C2591 1.397 . S
C2590 C2595 1.363 . S
C2591 H2562 0.950 . S
C2591 C2590 1.397 . S
C2591 C2592 1.334 . S
C2592 H2563 0.950 . S
C2592 C2591 1.334 . S
C2592 C2593 1.287 . S
C2593 C2592 1.287 . S
C2593 C2594 1.524 . S
C2593 H2596 0.999 . S
C2594 H2564 0.950 . S
C2594 C2593 1.524 . S
C2594 C2595 1.415 . S
C2595 H2565 0.950 . S
C2595 C2590 1.363 . S
C2595 C2594 1.415 . S
H2596 C2593 0.999 . S
H2597 C2578 0.913 . S
H2598 C2616 0.951 . S
H2599 C2618 0.951 . S
H2600 C2620 0.950 . S
H2601 C2621 0.950 . S
H2602 C2623 0.950 . S
H2603 C2626 0.950 . S
H2604 C2627 0.950 . S
H2605 C2629 0.950 . S
H2606 C2630 0.950 . S
H2607 C2631 0.951 . S
H2608 C2633 0.951 . S
H2609 C2635 0.950 . S
H2610 C2636 0.950 . S
H2611 C2638 0.950 . S
H2612 C2641 0.935 1_655 S
H2613 C2642 0.950 . S
H2614 C2644 0.950 . S
H2615 C2645 0.950 . S
C2616 H2598 0.951 . S
C2616 C2617 1.366 . S
C2616 C2618 1.388 . S
C2617 C2616 1.366 . S
C2617 C2621 1.385 . S
C2618 H2599 0.951 . S
C2618 C2616 1.388 . S
C2618 C2619 1.366 . S
C2619 C2618 1.366 . S
C2619 C2620 1.414 . S
C2619 C2622 1.499 . S
C2620 H2600 0.950 . S
C2620 C2619 1.414 . S
C2620 C2621 1.374 . S
C2621 H2601 0.950 . S
C2621 C2617 1.385 . S
C2621 C2620 1.374 . S
C2622 C2619 1.499 . S
C2622 C2623 1.373 . S
C2622 C2624 1.389 . S
C2623 H2602 0.950 . S
C2623 C2622 1.373 . S
C2623 C2639 1.377 . S
C2624 C2622 1.389 . S
C2624 C2625 1.524 . S
C2624 C2638 1.377 . S
C2625 C2624 1.524 . S
C2625 C2626 1.397 . S
C2625 C2630 1.363 . S
C2626 H2603 0.950 . S
C2626 C2625 1.397 . S
C2626 C2627 1.334 . S
C2627 H2604 0.950 . S
C2627 C2626 1.334 . S
C2627 C2628 1.287 . S
C2628 C2627 1.287 . S
C2628 C2629 1.524 . S
C2628 H2647 0.913 . S
C2629 H2605 0.950 . S
C2629 C2628 1.524 . S
C2629 C2630 1.415 . S
C2630 H2606 0.950 . S
C2630 C2625 1.363 . S
C2630 C2629 1.415 . S
C2631 H2607 0.951 . S
C2631 C2632 1.366 . S
C2631 C2633 1.388 . S
C2632 C2631 1.366 . S
C2632 C2636 1.385 . S
C2633 H2608 0.951 . S
C2633 C2631 1.388 . S
C2633 C2634 1.366 1_455 S
C2634 C2633 1.366 1_655 S
C2634 C2635 1.414 . S
C2634 C2637 1.499 . S
C2635 H2609 0.950 . S
C2635 C2634 1.414 . S
C2635 C2636 1.374 1_655 S
C2636 H2610 0.950 . S
C2636 C2632 1.385 . S
C2636 C2635 1.374 1_455 S
C2637 C2634 1.499 . S
C2637 C2638 1.373 . S
C2637 C2639 1.389 . S
C2638 H2611 0.950 . S
C2638 C2624 1.377 . S
C2638 C2637 1.373 . S
C2639 C2623 1.377 . S
C2639 C2637 1.389 . S
C2639 C2640 1.524 . S
C2640 C2639 1.524 . S
C2640 C2641 1.397 1_655 S
C2640 C2645 1.363 . S
C2641 H2612 0.935 1_455 S
C2641 C2640 1.397 1_455 S
C2641 C2642 1.334 . S
C2642 H2613 0.950 . S
C2642 C2641 1.334 . S
C2642 C2643 1.287 . S
C2643 C2642 1.287 . S
C2643 C2644 1.524 . S
C2643 H2646 0.999 . S
C2644 H2614 0.950 . S
C2644 C2643 1.524 . S
C2644 C2645 1.415 1_455 S
C2645 H2615 0.950 . S
C2645 C2640 1.363 . S
C2645 C2644 1.415 1_655 S
H2646 C2643 0.999 . S
H2647 C2628 0.913 . S
H2648 C2666 0.951 . S
H2649 C2668 0.951 . S
H2650 C2670 0.950 . S
H2651 C2671 0.950 . S
H2652 C2673 0.950 . S
H2653 C2676 0.950 . S
H2654 C2677 0.950 . S
H2655 C2679 0.950 . S
H2656 C2680 0.950 . S
H2657 C2681 0.951 . S
H2658 C2683 0.951 . S
H2659 C2685 0.950 . S
H2660 C2686 0.950 . S
H2661 C2688 0.950 . S
H2662 C2691 0.950 . S
H2663 C2692 0.950 . S
H2664 C2694 0.950 . S
H2665 C2695 0.950 . S
C2666 H2648 0.951 . S
C2666 C2667 1.366 . S
C2666 C2668 1.388 . S
C2667 C2666 1.366 . S
C2667 C2671 1.385 . S
C2668 H2649 0.951 . S
C2668 C2666 1.388 . S
C2668 C2669 1.366 . S
C2669 C2668 1.366 . S
C2669 C2670 1.414 . S
C2669 C2672 1.499 . S
C2670 H2650 0.950 . S
C2670 C2669 1.414 . S
C2670 C2671 1.374 . S
C2671 H2651 0.950 . S
C2671 C2667 1.385 . S
C2671 C2670 1.374 . S
C2672 C2669 1.499 . S
C2672 C2673 1.373 . S
C2672 C2674 1.389 . S
C2673 H2652 0.950 . S
C2673 C2672 1.373 . S
C2673 C2689 1.377 . S
C2674 C2672 1.389 . S
C2674 C2675 1.524 . S
C2674 C2688 1.377 . S
C2675 C2674 1.524 . S
C2675 C2676 1.397 . S
C2675 C2680 1.363 . S
C2676 H2653 0.950 . S
C2676 C2675 1.397 . S
C2676 C2677 1.334 . S
C2677 H2654 0.950 . S
C2677 C2676 1.334 . S
C2677 C2678 1.287 . S
C2678 C2677 1.287 . S
C2678 C2679 1.524 . S
C2678 H2697 0.913 . S
C2679 H2655 0.950 . S
C2679 C2678 1.524 . S
C2679 C2680 1.415 . S
C2680 H2656 0.950 . S
C2680 C2675 1.363 . S
C2680 C2679 1.415 . S
C2681 H2657 0.951 . S
C2681 C2682 1.366 . S
C2681 C2683 1.388 . S
C2682 C2681 1.366 . S
C2682 C2686 1.385 . S
C2683 H2658 0.951 . S
C2683 C2681 1.388 . S
C2683 C2684 1.366 . S
C2684 C2683 1.366 . S
C2684 C2685 1.414 . S
C2684 C2687 1.499 . S
C2685 H2659 0.950 . S
C2685 C2684 1.414 . S
C2685 C2686 1.374 . S
C2686 H2660 0.950 . S
C2686 C2682 1.385 . S
C2686 C2685 1.374 . S
C2687 C2684 1.499 . S
C2687 C2688 1.373 . S
C2687 C2689 1.389 . S
C2688 H2661 0.950 . S
C2688 C2674 1.377 . S
C2688 C2687 1.373 . S
C2689 C2673 1.377 . S
C2689 C2687 1.389 . S
C2689 C2690 1.524 . S
C2690 C2689 1.524 . S
C2690 C2691 1.397 . S
C2690 C2695 1.363 . S
C2691 H2662 0.950 . S
C2691 C2690 1.397 . S
C2691 C2692 1.334 . S
C2692 H2663 0.950 . S
C2692 C2691 1.334 . S
C2692 C2693 1.287 . S
C2693 C2692 1.287 . S
C2693 C2694 1.524 . S
C2693 H2696 0.999 . S
C2694 H2664 0.950 . S
C2694 C2693 1.524 . S
C2694 C2695 1.415 . S
C2695 H2665 0.950 . S
C2695 C2690 1.363 . S
C2695 C2694 1.415 . S
H2696 C2693 0.999 . S
H2697 C2678 0.913 . S
H2698 C2716 0.951 . S
H2699 C2718 0.946 1_655 S
H2700 C2720 0.950 . S
H2701 C2721 0.950 . S
H2702 C2723 0.950 . S
H2703 C2726 0.950 . S
H2704 C2727 0.950 . S
H2705 C2729 0.950 . S
H2706 C2730 0.950 . S
H2707 C2731 0.951 . S
H2708 C2733 0.951 . S
H2709 C2735 0.950 . S
H2710 C2736 0.950 . S
H2711 C2738 0.950 . S
H2712 C2741 0.950 . S
H2713 C2742 0.950 . S
H2714 C2744 0.950 . S
H2715 C2745 0.950 . S
C2716 H2698 0.951 . S
C2716 C2717 1.366 . S
C2716 C2718 1.394 . S
C2717 C2716 1.366 . S
C2717 C2721 1.385 . S
C2718 H2699 0.946 1_455 S
C2718 C2716 1.394 . S
C2718 C2719 1.364 1_455 S
C2719 C2718 1.364 1_655 S
C2719 C2720 1.414 1_655 S
C2719 C2722 1.499 . S
C2720 H2700 0.950 . S
C2720 C2719 1.414 1_455 S
C2720 C2721 1.374 . S
C2721 H2701 0.950 . S
C2721 C2717 1.385 . S
C2721 C2720 1.374 . S
C2722 C2719 1.499 . S
C2722 C2723 1.373 . S
C2722 C2724 1.389 . S
C2723 H2702 0.950 . S
C2723 C2722 1.373 . S
C2723 C2739 1.377 . S
C2724 C2722 1.389 . S
C2724 C2725 1.524 . S
C2724 C2738 1.377 . S
C2725 C2724 1.524 . S
C2725 C2726 1.397 . S
C2725 C2730 1.363 . S
C2726 H2703 0.950 . S
C2726 C2725 1.397 . S
C2726 C2727 1.334 . S
C2727 H2704 0.950 . S
C2727 C2726 1.334 . S
C2727 C2728 1.287 . S
C2728 C2727 1.287 . S
C2728 C2729 1.524 . S
C2728 H2747 0.913 . S
C2729 H2705 0.950 . S
C2729 C2728 1.524 . S
C2729 C2730 1.415 . S
C2730 H2706 0.950 . S
C2730 C2725 1.363 . S
C2730 C2729 1.415 . S
C2731 H2707 0.951 . S
C2731 C2732 1.366 . S
C2731 C2733 1.388 . S
C2732 C2731 1.366 . S
C2732 C2736 1.385 . S
C2733 H2708 0.951 . S
C2733 C2731 1.388 . S
C2733 C2734 1.366 . S
C2734 C2733 1.366 . S
C2734 C2735 1.414 . S
C2734 C2737 1.499 . S
C2735 H2709 0.950 . S
C2735 C2734 1.414 . S
C2735 C2736 1.374 . S
C2736 H2710 0.950 . S
C2736 C2732 1.385 . S
C2736 C2735 1.374 . S
C2737 C2734 1.499 . S
C2737 C2738 1.373 . S
C2737 C2739 1.389 . S
C2738 H2711 0.950 . S
C2738 C2724 1.377 . S
C2738 C2737 1.373 . S
C2739 C2723 1.377 . S
C2739 C2737 1.389 . S
C2739 C2740 1.524 . S
C2740 C2739 1.524 . S
C2740 C2741 1.397 . S
C2740 C2745 1.363 . S
C2741 H2712 0.950 . S
C2741 C2740 1.397 . S
C2741 C2742 1.334 . S
C2742 H2713 0.950 . S
C2742 C2741 1.334 . S
C2742 C2743 1.287 . S
C2743 C2742 1.287 . S
C2743 C2744 1.524 . S
C2743 H2746 0.999 . S
C2744 H2714 0.950 . S
C2744 C2743 1.524 . S
C2744 C2745 1.415 . S
C2745 H2715 0.950 . S
C2745 C2740 1.363 . S
C2745 C2744 1.415 . S
H2746 C2743 0.999 . S
H2747 C2728 0.913 . S
H2748 C2766 0.951 . S
H2749 C2768 0.951 . S
H2750 C2770 0.950 . S
H2751 C2771 0.950 . S
H2752 C2773 0.950 . S
H2753 C2776 0.950 . S
H2754 C2777 0.950 . S
H2755 C2779 0.950 . S
H2756 C2780 0.950 . S
H2757 C2781 0.951 . S
H2758 C2783 0.951 . S
H2759 C2785 0.950 . S
H2760 C2786 0.950 . S
H2761 C2788 0.950 . S
H2762 C2791 0.950 . S
H2763 C2792 0.950 . S
H2764 C2794 0.950 . S
H2765 C2795 0.950 . S
C2766 H2748 0.951 . S
C2766 C2767 1.366 . S
C2766 C2768 1.388 . S
C2767 C2766 1.366 . S
C2767 C2771 1.385 . S
C2768 H2749 0.951 . S
C2768 C2766 1.388 . S
C2768 C2769 1.366 . S
C2769 C2768 1.366 . S
C2769 C2770 1.414 . S
C2769 C2772 1.499 . S
C2770 H2750 0.950 . S
C2770 C2769 1.414 . S
C2770 C2771 1.374 . S
C2771 H2751 0.950 . S
C2771 C2767 1.385 . S
C2771 C2770 1.374 . S
C2772 C2769 1.499 . S
C2772 C2773 1.373 . S
C2772 C2774 1.389 . S
C2773 H2752 0.950 . S
C2773 C2772 1.373 . S
C2773 C2789 1.377 . S
C2774 C2772 1.389 . S
C2774 C2775 1.524 . S
C2774 C2788 1.377 . S
C2775 C2774 1.524 . S
C2775 C2776 1.397 . S
C2775 C2780 1.363 . S
C2776 H2753 0.950 . S
C2776 C2775 1.397 . S
C2776 C2777 1.334 . S
C2777 H2754 0.950 . S
C2777 C2776 1.334 . S
C2777 C2778 1.287 . S
C2778 C2777 1.287 . S
C2778 C2779 1.524 . S
C2778 H2797 0.913 . S
C2779 H2755 0.950 . S
C2779 C2778 1.524 . S
C2779 C2780 1.415 . S
C2780 H2756 0.950 . S
C2780 C2775 1.363 . S
C2780 C2779 1.415 . S
C2781 H2757 0.951 . S
C2781 C2782 1.366 . S
C2781 C2783 1.388 . S
C2782 C2781 1.366 . S
C2782 C2786 1.385 . S
C2783 H2758 0.951 . S
C2783 C2781 1.388 . S
C2783 C2784 1.366 . S
C2784 C2783 1.366 . S
C2784 C2785 1.414 . S
C2784 C2787 1.499 . S
C2785 H2759 0.950 . S
C2785 C2784 1.414 . S
C2785 C2786 1.374 . S
C2786 H2760 0.950 . S
C2786 C2782 1.385 . S
C2786 C2785 1.374 . S
C2787 C2784 1.499 . S
C2787 C2788 1.373 . S
C2787 C2789 1.389 . S
C2788 H2761 0.950 . S
C2788 C2774 1.377 . S
C2788 C2787 1.373 . S
C2789 C2773 1.377 . S
C2789 C2787 1.389 . S
C2789 C2790 1.524 . S
C2790 C2789 1.524 . S
C2790 C2791 1.397 . S
C2790 C2795 1.363 . S
C2791 H2762 0.950 . S
C2791 C2790 1.397 . S
C2791 C2792 1.334 . S
C2792 H2763 0.950 . S
C2792 C2791 1.334 . S
C2792 C2793 1.287 . S
C2793 C2792 1.287 . S
C2793 C2794 1.524 . S
C2793 H2796 0.999 . S
C2794 H2764 0.950 . S
C2794 C2793 1.524 . S
C2794 C2795 1.415 . S
C2795 H2765 0.950 . S
C2795 C2790 1.363 . S
C2795 C2794 1.415 . S
H2796 C2793 0.999 . S
H2797 C2778 0.913 . S
H2798 C2816 0.951 . S
H2799 C2818 0.951 . S
H2800 C2820 0.950 . S
H2801 C2821 0.950 . S
H2802 C2823 0.950 . S
H2803 C2826 0.950 . S
H2804 C2827 0.950 . S
H2805 C2829 0.950 . S
H2806 C2830 0.950 . S
H2807 C2831 0.951 . S
H2808 C2833 0.951 . S
H2809 C2835 0.950 . S
H2810 C2836 0.950 . S
H2811 C2838 0.950 . S
H2812 C2841 0.950 . S
H2813 C2842 0.950 . S
H2814 C2844 0.950 . S
H2815 C2845 0.950 . S
C2816 H2798 0.951 . S
C2816 C2817 1.366 . S
C2816 C2818 1.388 . S
C2817 C2816 1.366 . S
C2817 C2821 1.385 . S
C2818 H2799 0.951 . S
C2818 C2816 1.388 . S
C2818 C2819 1.366 . S
C2819 C2818 1.366 . S
C2819 C2820 1.414 . S
C2819 C2822 1.499 . S
C2820 H2800 0.950 . S
C2820 C2819 1.414 . S
C2820 C2821 1.374 . S
C2821 H2801 0.950 . S
C2821 C2817 1.385 . S
C2821 C2820 1.374 . S
C2822 C2819 1.499 . S
C2822 C2823 1.373 . S
C2822 C2824 1.389 . S
C2823 H2802 0.950 . S
C2823 C2822 1.373 . S
C2823 C2839 1.377 . S
C2824 C2822 1.389 . S
C2824 C2825 1.524 . S
C2824 C2838 1.377 . S
C2825 C2824 1.524 . S
C2825 C2826 1.397 . S
C2825 C2830 1.363 . S
C2826 H2803 0.950 . S
C2826 C2825 1.397 . S
C2826 C2827 1.334 . S
C2827 H2804 0.950 . S
C2827 C2826 1.334 . S
C2827 C2828 1.287 . S
C2828 C2827 1.287 . S
C2828 C2829 1.524 . S
C2828 H2847 0.913 . S
C2829 H2805 0.950 . S
C2829 C2828 1.524 . S
C2829 C2830 1.415 . S
C2830 H2806 0.950 . S
C2830 C2825 1.363 . S
C2830 C2829 1.415 . S
C2831 H2807 0.951 . S
C2831 C2832 1.366 . S
C2831 C2833 1.388 . S
C2832 C2831 1.366 . S
C2832 C2836 1.385 . S
C2833 H2808 0.951 . S
C2833 C2831 1.388 . S
C2833 C2834 1.366 . S
C2834 C2833 1.366 . S
C2834 C2835 1.414 . S
C2834 C2837 1.499 . S
C2835 H2809 0.950 . S
C2835 C2834 1.414 . S
C2835 C2836 1.374 . S
C2836 H2810 0.950 . S
C2836 C2832 1.385 . S
C2836 C2835 1.374 . S
C2837 C2834 1.499 . S
C2837 C2838 1.373 . S
C2837 C2839 1.389 . S
C2838 H2811 0.950 . S
C2838 C2824 1.377 . S
C2838 C2837 1.373 . S
C2839 C2823 1.377 . S
C2839 C2837 1.389 . S
C2839 C2840 1.524 . S
C2840 C2839 1.524 . S
C2840 C2841 1.397 . S
C2840 C2845 1.363 . S
C2841 H2812 0.950 . S
C2841 C2840 1.397 . S
C2841 C2842 1.334 . S
C2842 H2813 0.950 . S
C2842 C2841 1.334 . S
C2842 C2843 1.287 . S
C2843 C2842 1.287 . S
C2843 C2844 1.524 . S
C2843 H2846 0.999 . S
C2844 H2814 0.950 . S
C2844 C2843 1.524 . S
C2844 C2845 1.415 . S
C2845 H2815 0.950 . S
C2845 C2840 1.363 . S
C2845 C2844 1.415 . S
H2846 C2843 0.999 . S
H2847 C2828 0.913 . S
H2848 C2866 0.951 . S
H2849 C2868 0.951 . S
H2850 C2870 0.950 . S
H2851 C2871 0.950 . S
H2852 C2873 0.950 . S
H2853 C2876 0.950 . S
H2854 C2877 0.950 . S
H2855 C2879 0.950 . S
H2856 C2880 0.950 . S
H2857 C2881 0.951 . S
H2858 C2883 0.951 . S
H2859 C2885 0.950 . S
H2860 C2886 0.950 . S
H2861 C2888 0.950 . S
H2862 C2891 0.950 . S
H2863 C2892 0.950 . S
H2864 C2894 0.950 . S
H2865 C2895 0.950 . S
C2866 H2848 0.951 . S
C2866 C2867 1.366 . S
C2866 C2868 1.388 . S
C2867 C2866 1.366 . S
C2867 C2871 1.385 . S
C2868 H2849 0.951 . S
C2868 C2866 1.388 . S
C2868 C2869 1.366 . S
C2869 C2868 1.366 . S
C2869 C2870 1.414 . S
C2869 C2872 1.499 . S
C2870 H2850 0.950 . S
C2870 C2869 1.414 . S
C2870 C2871 1.374 . S
C2871 H2851 0.950 . S
C2871 C2867 1.385 . S
C2871 C2870 1.374 . S
C2872 C2869 1.499 . S
C2872 C2873 1.373 . S
C2872 C2874 1.389 . S
C2873 H2852 0.950 . S
C2873 C2872 1.373 . S
C2873 C2889 1.377 . S
C2874 C2872 1.389 . S
C2874 C2875 1.524 . S
C2874 C2888 1.377 . S
C2875 C2874 1.524 . S
C2875 C2876 1.397 . S
C2875 C2880 1.363 . S
C2876 H2853 0.950 . S
C2876 C2875 1.397 . S
C2876 C2877 1.334 . S
C2877 H2854 0.950 . S
C2877 C2876 1.334 . S
C2877 C2878 1.287 . S
C2878 C2877 1.287 . S
C2878 C2879 1.524 . S
C2878 H2897 0.913 . S
C2879 H2855 0.950 . S
C2879 C2878 1.524 . S
C2879 C2880 1.415 . S
C2880 H2856 0.950 . S
C2880 C2875 1.363 . S
C2880 C2879 1.415 . S
C2881 H2857 0.951 . S
C2881 C2882 1.366 . S
C2881 C2883 1.388 . S
C2882 C2881 1.366 . S
C2882 C2886 1.385 . S
C2883 H2858 0.951 . S
C2883 C2881 1.388 . S
C2883 C2884 1.366 . S
C2884 C2883 1.366 . S
C2884 C2885 1.414 . S
C2884 C2887 1.499 . S
C2885 H2859 0.950 . S
C2885 C2884 1.414 . S
C2885 C2886 1.374 . S
C2886 H2860 0.950 . S
C2886 C2882 1.385 . S
C2886 C2885 1.374 . S
C2887 C2884 1.499 . S
C2887 C2888 1.373 . S
C2887 C2889 1.389 . S
C2888 H2861 0.950 . S
C2888 C2874 1.377 . S
C2888 C2887 1.373 . S
C2889 C2873 1.377 . S
C2889 C2887 1.389 . S
C2889 C2890 1.524 . S
C2890 C2889 1.524 . S
C2890 C2891 1.397 . S
C2890 C2895 1.363 . S
C2891 H2862 0.950 . S
C2891 C2890 1.397 . S
C2891 C2892 1.334 . S
C2892 H2863 0.950 . S
C2892 C2891 1.334 . S
C2892 C2893 1.287 . S
C2893 C2892 1.287 . S
C2893 C2894 1.524 . S
C2893 H2896 0.999 . S
C2894 H2864 0.950 . S
C2894 C2893 1.524 . S
C2894 C2895 1.415 . S
C2895 H2865 0.950 . S
C2895 C2890 1.363 . S
C2895 C2894 1.415 . S
H2896 C2893 0.999 . S
H2897 C2878 0.913 . S
H2898 C2916 0.951 . S
H2899 C2918 0.951 . S
H2900 C2920 0.950 . S
H2901 C2921 0.950 . S
H2902 C2923 0.950 . S
H2903 C2926 0.950 . S
H2904 C2927 0.950 . S
H2905 C2929 0.950 . S
H2906 C2930 0.950 . S
H2907 C2931 0.951 . S
H2908 C2933 0.951 . S
H2909 C2935 0.950 . S
H2910 C2936 0.950 . S
H2911 C2938 0.950 . S
H2912 C2941 0.950 . S
H2913 C2942 0.950 . S
H2914 C2944 0.950 . S
H2915 C2945 0.950 . S
C2916 H2898 0.951 . S
C2916 C2917 1.366 . S
C2916 C2918 1.388 . S
C2917 C2916 1.366 . S
C2917 C2921 1.385 . S
C2918 H2899 0.951 . S
C2918 C2916 1.388 . S
C2918 C2919 1.366 . S
C2919 C2918 1.366 . S
C2919 C2920 1.414 . S
C2919 C2922 1.499 . S
C2920 H2900 0.950 . S
C2920 C2919 1.414 . S
C2920 C2921 1.374 . S
C2921 H2901 0.950 . S
C2921 C2917 1.385 . S
C2921 C2920 1.374 . S
C2922 C2919 1.499 . S
C2922 C2923 1.373 . S
C2922 C2924 1.389 . S
C2923 H2902 0.950 . S
C2923 C2922 1.373 . S
C2923 C2939 1.377 . S
C2924 C2922 1.389 . S
C2924 C2925 1.524 . S
C2924 C2938 1.377 . S
C2925 C2924 1.524 . S
C2925 C2926 1.397 . S
C2925 C2930 1.363 . S
C2926 H2903 0.950 . S
C2926 C2925 1.397 . S
C2926 C2927 1.334 . S
C2927 H2904 0.950 . S
C2927 C2926 1.334 . S
C2927 C2928 1.287 . S
C2928 C2927 1.287 . S
C2928 C2929 1.524 . S
C2928 H2947 0.913 . S
C2929 H2905 0.950 . S
C2929 C2928 1.524 . S
C2929 C2930 1.415 . S
C2930 H2906 0.950 . S
C2930 C2925 1.363 . S
C2930 C2929 1.415 . S
C2931 H2907 0.951 . S
C2931 C2932 1.366 . S
C2931 C2933 1.388 . S
C2932 C2931 1.366 . S
C2932 C2936 1.385 . S
C2933 H2908 0.951 . S
C2933 C2931 1.388 . S
C2933 C2934 1.366 . S
C2934 C2933 1.366 . S
C2934 C2935 1.414 . S
C2934 C2937 1.499 . S
C2935 H2909 0.950 . S
C2935 C2934 1.414 . S
C2935 C2936 1.374 . S
C2936 H2910 0.950 . S
C2936 C2932 1.385 . S
C2936 C2935 1.374 . S
C2937 C2934 1.499 . S
C2937 C2938 1.373 . S
C2937 C2939 1.389 . S
C2938 H2911 0.950 . S
C2938 C2924 1.377 . S
C2938 C2937 1.373 . S
C2939 C2923 1.377 . S
C2939 C2937 1.389 . S
C2939 C2940 1.524 . S
C2940 C2939 1.524 . S
C2940 C2941 1.397 . S
C2940 C2945 1.363 . S
C2941 H2912 0.950 . S
C2941 C2940 1.397 . S
C2941 C2942 1.334 . S
C2942 H2913 0.950 . S
C2942 C2941 1.334 . S
C2942 C2943 1.287 . S
C2943 C2942 1.287 . S
C2943 C2944 1.524 . S
C2943 H2946 0.999 . S
C2944 H2914 0.950 . S
C2944 C2943 1.524 . S
C2944 C2945 1.415 . S
C2945 H2915 0.950 . S
C2945 C2940 1.363 . S
C2945 C2944 1.415 . S
H2946 C2943 0.999 . S
H2947 C2928 0.913 . S
H2948 C2966 0.951 . S
H2949 C2968 0.951 . S
H2950 C2970 0.950 . S
H2951 C2971 0.950 . S
H2952 C2973 0.950 . S
H2953 C2976 0.950 . S
H2954 C2977 0.950 . S
H2955 C2979 0.950 . S
H2956 C2980 0.950 . S
H2957 C2981 0.951 . S
H2958 C2983 0.951 . S
H2959 C2985 0.950 . S
H2960 C2986 0.950 . S
H2961 C2988 0.950 . S
H2962 C2991 0.950 . S
H2963 C2992 0.950 . S
H2964 C2994 0.950 . S
H2965 C2995 0.950 . S
C2966 H2948 0.951 . S
C2966 C2967 1.366 . S
C2966 C2968 1.388 . S
C2967 C2966 1.366 . S
C2967 C2971 1.385 . S
C2968 H2949 0.951 . S
C2968 C2966 1.388 . S
C2968 C2969 1.366 . S
C2969 C2968 1.366 . S
C2969 C2970 1.414 . S
C2969 C2972 1.499 . S
C2970 H2950 0.950 . S
C2970 C2969 1.414 . S
C2970 C2971 1.374 . S
C2971 H2951 0.950 . S
C2971 C2967 1.385 . S
C2971 C2970 1.374 . S
C2972 C2969 1.499 . S
C2972 C2973 1.373 . S
C2972 C2974 1.389 . S
C2973 H2952 0.950 . S
C2973 C2972 1.373 . S
C2973 C2989 1.377 . S
C2974 C2972 1.389 . S
C2974 C2975 1.524 . S
C2974 C2988 1.377 . S
C2975 C2974 1.524 . S
C2975 C2976 1.397 . S
C2975 C2980 1.363 . S
C2976 H2953 0.950 . S
C2976 C2975 1.397 . S
C2976 C2977 1.334 . S
C2977 H2954 0.950 . S
C2977 C2976 1.334 . S
C2977 C2978 1.287 . S
C2978 C2977 1.287 . S
C2978 C2979 1.524 . S
C2978 H2997 0.913 . S
C2979 H2955 0.950 . S
C2979 C2978 1.524 . S
C2979 C2980 1.415 . S
C2980 H2956 0.950 . S
C2980 C2975 1.363 . S
C2980 C2979 1.415 . S
C2981 H2957 0.951 . S
C2981 C2982 1.366 . S
C2981 C2983 1.388 . S
C2982 C2981 1.366 . S
C2982 C2986 1.385 . S
C2983 H2958 0.951 . S
C2983 C2981 1.388 . S
C2983 C2984 1.366 . S
C2984 C2983 1.366 . S
C2984 C2985 1.414 . S
C2984 C2987 1.499 . S
C2985 H2959 0.950 . S
C2985 C2984 1.414 . S
C2985 C2986 1.374 . S
C2986 H2960 0.950 . S
C2986 C2982 1.385 . S
C2986 C2985 1.374 . S
C2987 C2984 1.499 . S
C2987 C2988 1.373 . S
C2987 C2989 1.389 . S
C2988 H2961 0.950 . S
C2988 C2974 1.377 . S
C2988 C2987 1.373 . S
C2989 C2973 1.377 . S
C2989 C2987 1.389 . S
C2989 C2990 1.524 . S
C2990 C2989 1.524 . S
C2990 C2991 1.397 . S
C2990 C2995 1.363 . S
C2991 H2962 0.950 . S
C2991 C2990 1.397 . S
C2991 C2992 1.334 . S
C2992 H2963 0.950 . S
C2992 C2991 1.334 . S
C2992 C2993 1.287 . S
C2993 C2992 1.287 . S
C2993 C2994 1.524 . S
C2993 H2996 0.999 . S
C2994 H2964 0.950 . S
C2994 C2993 1.524 . S
C2994 C2995 1.415 . S
C2995 H2965 0.950 . S
C2995 C2990 1.363 . S
C2995 C2994 1.415 . S
H2996 C2993 0.999 . S
H2997 C2978 0.913 . S
H2998 C3016 0.951 . S
H2999 C3018 0.940 1_554 S
H3000 C3020 0.950 . S
H3001 C3021 0.950 . S
H3002 C3023 0.950 . S
H3003 C3026 0.950 . S
H3004 C3027 0.950 . S
H3005 C3029 0.950 . S
H3006 C3030 0.950 1_554 S
H3007 C3031 0.951 . S
H3008 C3033 0.940 1_556 S
H3009 C3035 0.950 . S
H3010 C3036 0.950 . S
H3011 C3038 0.950 . S
H3012 C3041 0.950 . S
H3013 C3042 0.950 . S
H3014 C3044 0.950 . S
H3015 C3045 0.950 1_556 S
C3016 H2998 0.951 . S
C3016 C3017 1.366 . S
C3016 C3018 1.388 . S
C3017 C3016 1.366 . S
C3017 C3021 1.385 . S
C3018 H2999 0.940 1_556 S
C3018 C3016 1.388 . S
C3018 C3019 1.366 . S
C3019 C3018 1.366 . S
C3019 C3020 1.414 . S
C3019 C3022 1.499 . S
C3020 H3000 0.950 . S
C3020 C3019 1.414 . S
C3020 C3021 1.374 . S
C3021 H3001 0.950 . S
C3021 C3017 1.385 . S
C3021 C3020 1.374 . S
C3022 C3019 1.499 . S
C3022 C3023 1.373 . S
C3022 C3024 1.389 . S
C3023 H3002 0.950 . S
C3023 C3022 1.373 . S
C3023 C3039 1.377 1_556 S
C3024 C3022 1.389 . S
C3024 C3025 1.524 . S
C3024 C3038 1.377 1_556 S
C3025 C3024 1.524 . S
C3025 C3026 1.397 . S
C3025 C3030 1.363 . S
C3026 H3003 0.950 . S
C3026 C3025 1.397 . S
C3026 C3027 1.334 . S
C3027 H3004 0.950 . S
C3027 C3026 1.334 . S
C3027 C3028 1.287 . S
C3028 C3027 1.287 . S
C3028 C3029 1.524 . S
C3028 H3047 0.913 . S
C3029 H3005 0.950 . S
C3029 C3028 1.524 . S
C3029 C3030 1.415 . S
C3030 H3006 0.950 1_556 S
C3030 C3025 1.363 . S
C3030 C3029 1.415 . S
C3031 H3007 0.951 . S
C3031 C3032 1.366 . S
C3031 C3033 1.388 . S
C3032 C3031 1.366 . S
C3032 C3036 1.385 . S
C3033 H3008 0.940 1_554 S
C3033 C3031 1.388 . S
C3033 C3034 1.366 . S
C3034 C3033 1.366 . S
C3034 C3035 1.414 . S
C3034 C3037 1.499 . S
C3035 H3009 0.950 . S
C3035 C3034 1.414 . S
C3035 C3036 1.374 . S
C3036 H3010 0.950 . S
C3036 C3032 1.385 . S
C3036 C3035 1.374 . S
C3037 C3034 1.499 . S
C3037 C3038 1.373 . S
C3037 C3039 1.389 . S
C3038 H3011 0.950 . S
C3038 C3024 1.377 1_554 S
C3038 C3037 1.373 . S
C3039 C3023 1.377 1_554 S
C3039 C3037 1.389 . S
C3039 C3040 1.524 . S
C3040 C3039 1.524 . S
C3040 C3041 1.397 . S
C3040 C3045 1.363 . S
C3041 H3012 0.950 . S
C3041 C3040 1.397 . S
C3041 C3042 1.334 . S
C3042 H3013 0.950 . S
C3042 C3041 1.334 . S
C3042 C3043 1.287 . S
C3043 C3042 1.287 . S
C3043 C3044 1.524 . S
C3043 H3046 0.999 . S
C3044 H3014 0.950 . S
C3044 C3043 1.524 . S
C3044 C3045 1.415 . S
C3045 H3015 0.950 1_554 S
C3045 C3040 1.363 . S
C3045 C3044 1.415 . S
H3046 C3043 0.999 . S
H3047 C3028 0.913 . S
H3048 C3066 0.951 . S
H3049 C3068 0.951 . S
H3050 C3070 0.950 . S
H3051 C3071 0.950 . S
H3052 C3073 0.950 . S
H3053 C3076 0.950 . S
H3054 C3077 0.950 . S
H3055 C3079 0.950 . S
H3056 C3080 0.950 . S
H3057 C3081 0.951 . S
H3058 C3083 0.951 . S
H3059 C3085 0.950 . S
H3060 C3086 0.950 . S
H3061 C3088 0.950 . S
H3062 C3091 0.950 . S
H3063 C3092 0.950 . S
H3064 C3094 0.950 . S
H3065 C3095 0.950 . S
C3066 H3048 0.951 . S
C3066 C3067 1.366 . S
C3066 C3068 1.388 . S
C3067 C3066 1.366 . S
C3067 C3071 1.385 . S
C3068 H3049 0.951 . S
C3068 C3066 1.388 . S
C3068 C3069 1.366 . S
C3069 C3068 1.366 . S
C3069 C3070 1.414 . S
C3069 C3072 1.499 . S
C3070 H3050 0.950 . S
C3070 C3069 1.414 . S
C3070 C3071 1.374 . S
C3071 H3051 0.950 . S
C3071 C3067 1.385 . S
C3071 C3070 1.374 . S
C3072 C3069 1.499 . S
C3072 C3073 1.373 . S
C3072 C3074 1.389 . S
C3073 H3052 0.950 . S
C3073 C3072 1.373 . S
C3073 C3089 1.377 . S
C3074 C3072 1.389 . S
C3074 C3075 1.524 . S
C3074 C3088 1.377 . S
C3075 C3074 1.524 . S
C3075 C3076 1.397 . S
C3075 C3080 1.363 . S
C3076 H3053 0.950 . S
C3076 C3075 1.397 . S
C3076 C3077 1.334 . S
C3077 H3054 0.950 . S
C3077 C3076 1.334 . S
C3077 C3078 1.287 . S
C3078 C3077 1.287 . S
C3078 C3079 1.524 . S
C3078 H3097 0.913 . S
C3079 H3055 0.950 . S
C3079 C3078 1.524 . S
C3079 C3080 1.415 . S
C3080 H3056 0.950 . S
C3080 C3075 1.363 . S
C3080 C3079 1.415 . S
C3081 H3057 0.951 . S
C3081 C3082 1.366 . S
C3081 C3083 1.388 . S
C3082 C3081 1.366 . S
C3082 C3086 1.385 . S
C3083 H3058 0.951 . S
C3083 C3081 1.388 . S
C3083 C3084 1.366 . S
C3084 C3083 1.366 . S
C3084 C3085 1.414 . S
C3084 C3087 1.499 . S
C3085 H3059 0.950 . S
C3085 C3084 1.414 . S
C3085 C3086 1.374 . S
C3086 H3060 0.950 . S
C3086 C3082 1.385 . S
C3086 C3085 1.374 . S
C3087 C3084 1.499 . S
C3087 C3088 1.373 . S
C3087 C3089 1.389 . S
C3088 H3061 0.950 . S
C3088 C3074 1.377 . S
C3088 C3087 1.373 . S
C3089 C3073 1.377 . S
C3089 C3087 1.389 . S
C3089 C3090 1.524 . S
C3090 C3089 1.524 . S
C3090 C3091 1.397 . S
C3090 C3095 1.363 . S
C3091 H3062 0.950 . S
C3091 C3090 1.397 . S
C3091 C3092 1.334 . S
C3092 H3063 0.950 . S
C3092 C3091 1.334 . S
C3092 C3093 1.287 . S
C3093 C3092 1.287 . S
C3093 C3094 1.524 . S
C3093 H3096 1.060 . S
C3094 H3064 0.950 . S
C3094 C3093 1.524 . S
C3094 C3095 1.415 . S
C3095 H3065 0.950 . S
C3095 C3090 1.363 . S
C3095 C3094 1.415 . S
H3096 C3093 1.060 . S
H3097 C3078 0.913 . S
H3098 C3116 0.951 . S
H3099 C3118 0.951 . S
H3100 C3120 0.950 . S
H3101 C3121 0.950 . S
H3102 C3123 0.950 . S
H3103 C3126 0.950 . S
H3104 C3127 0.950 . S
H3105 C3129 0.950 . S
H3106 C3130 0.950 . S
H3107 C3131 0.951 . S
H3108 C3133 0.951 . S
H3109 C3135 0.950 . S
H3110 C3136 0.950 . S
H3111 C3138 0.950 . S
H3112 C3141 0.950 . S
H3113 C3142 0.950 . S
H3114 C3144 0.950 . S
H3115 C3145 0.950 . S
C3116 H3098 0.951 . S
C3116 C3117 1.366 . S
C3116 C3118 1.388 . S
C3117 C3116 1.366 . S
C3117 C3121 1.385 . S
C3118 H3099 0.951 . S
C3118 C3116 1.388 . S
C3118 C3119 1.366 . S
C3119 C3118 1.366 . S
C3119 C3120 1.414 . S
C3119 C3122 1.499 . S
C3120 H3100 0.950 . S
C3120 C3119 1.414 . S
C3120 C3121 1.374 . S
C3121 H3101 0.950 . S
C3121 C3117 1.385 . S
C3121 C3120 1.374 . S
C3122 C3119 1.499 . S
C3122 C3123 1.373 . S
C3122 C3124 1.389 . S
C3123 H3102 0.950 . S
C3123 C3122 1.373 . S
C3123 C3139 1.377 . S
C3124 C3122 1.389 . S
C3124 C3125 1.524 . S
C3124 C3138 1.377 . S
C3125 C3124 1.524 . S
C3125 C3126 1.397 . S
C3125 C3130 1.363 . S
C3126 H3103 0.950 . S
C3126 C3125 1.397 . S
C3126 C3127 1.334 . S
C3127 H3104 0.950 . S
C3127 C3126 1.334 . S
C3127 C3128 1.287 . S
C3128 C3127 1.287 . S
C3128 C3129 1.524 . S
C3128 H3147 0.913 . S
C3129 H3105 0.950 . S
C3129 C3128 1.524 . S
C3129 C3130 1.415 . S
C3130 H3106 0.950 . S
C3130 C3125 1.363 . S
C3130 C3129 1.415 . S
C3131 H3107 0.951 . S
C3131 C3132 1.366 . S
C3131 C3133 1.388 . S
C3132 C3131 1.366 . S
C3132 C3136 1.385 . S
C3133 H3108 0.951 . S
C3133 C3131 1.388 . S
C3133 C3134 1.366 . S
C3134 C3133 1.366 . S
C3134 C3135 1.414 . S
C3134 C3137 1.499 . S
C3135 H3109 0.950 . S
C3135 C3134 1.414 . S
C3135 C3136 1.374 . S
C3136 H3110 0.950 . S
C3136 C3132 1.385 . S
C3136 C3135 1.374 . S
C3137 C3134 1.499 . S
C3137 C3138 1.373 . S
C3137 C3139 1.389 . S
C3138 H3111 0.950 . S
C3138 C3124 1.377 . S
C3138 C3137 1.373 . S
C3139 C3123 1.377 . S
C3139 C3137 1.389 . S
C3139 C3140 1.524 . S
C3140 C3139 1.524 . S
C3140 C3141 1.397 . S
C3140 C3145 1.363 . S
C3141 H3112 0.950 . S
C3141 C3140 1.397 . S
C3141 C3142 1.334 . S
C3142 H3113 0.950 . S
C3142 C3141 1.334 . S
C3142 C3143 1.287 . S
C3143 C3142 1.287 . S
C3143 C3144 1.524 . S
C3143 H3146 0.999 . S
C3144 H3114 0.950 . S
C3144 C3143 1.524 . S
C3144 C3145 1.415 . S
C3145 H3115 0.950 . S
C3145 C3140 1.363 . S
C3145 C3144 1.415 . S
H3146 C3143 0.999 . S
H3147 C3128 0.913 . S
H3148 C3166 0.951 . S
H3149 C3168 0.951 . S
H3150 C3170 0.950 . S
H3151 C3171 0.950 . S
H3152 C3173 0.950 . S
H3153 C3176 0.950 . S
H3154 C3177 0.950 . S
H3155 C3179 0.950 . S
H3156 C3180 0.950 . S
H3157 C3181 0.951 . S
H3158 C3183 0.951 . S
H3159 C3185 0.950 . S
H3160 C3186 0.950 . S
H3161 C3188 0.950 . S
H3162 C3191 0.950 . S
H3163 C3192 0.950 . S
H3164 C3194 0.950 . S
H3165 C3195 0.950 . S
C3166 H3148 0.951 . S
C3166 C3167 1.366 . S
C3166 C3168 1.388 . S
C3167 C3166 1.366 . S
C3167 C3171 1.385 . S
C3168 H3149 0.951 . S
C3168 C3166 1.388 . S
C3168 C3169 1.366 . S
C3169 C3168 1.366 . S
C3169 C3170 1.414 . S
C3169 C3172 1.499 . S
C3170 H3150 0.950 . S
C3170 C3169 1.414 . S
C3170 C3171 1.374 . S
C3171 H3151 0.950 . S
C3171 C3167 1.385 . S
C3171 C3170 1.374 . S
C3172 C3169 1.499 . S
C3172 C3173 1.373 . S
C3172 C3174 1.389 . S
C3173 H3152 0.950 . S
C3173 C3172 1.373 . S
C3173 C3189 1.377 . S
C3174 C3172 1.389 . S
C3174 C3175 1.524 . S
C3174 C3188 1.377 . S
C3175 C3174 1.524 . S
C3175 C3176 1.397 . S
C3175 C3180 1.363 . S
C3176 H3153 0.950 . S
C3176 C3175 1.397 . S
C3176 C3177 1.334 . S
C3177 H3154 0.950 . S
C3177 C3176 1.334 . S
C3177 C3178 1.287 . S
C3178 C3177 1.287 . S
C3178 C3179 1.524 . S
C3178 H3197 0.913 . S
C3179 H3155 0.950 . S
C3179 C3178 1.524 . S
C3179 C3180 1.415 . S
C3180 H3156 0.950 . S
C3180 C3175 1.363 . S
C3180 C3179 1.415 . S
C3181 H3157 0.951 . S
C3181 C3182 1.366 . S
C3181 C3183 1.388 . S
C3182 C3181 1.366 . S
C3182 C3186 1.385 . S
C3183 H3158 0.951 . S
C3183 C3181 1.388 . S
C3183 C3184 1.366 . S
C3184 C3183 1.366 . S
C3184 C3185 1.414 . S
C3184 C3187 1.499 . S
C3185 H3159 0.950 . S
C3185 C3184 1.414 . S
C3185 C3186 1.374 . S
C3186 H3160 0.950 . S
C3186 C3182 1.385 . S
C3186 C3185 1.374 . S
C3187 C3184 1.499 . S
C3187 C3188 1.373 . S
C3187 C3189 1.389 . S
C3188 H3161 0.950 . S
C3188 C3174 1.377 . S
C3188 C3187 1.373 . S
C3189 C3173 1.377 . S
C3189 C3187 1.389 . S
C3189 C3190 1.524 . S
C3190 C3189 1.524 . S
C3190 C3191 1.397 . S
C3190 C3195 1.363 . S
C3191 H3162 0.950 . S
C3191 C3190 1.397 . S
C3191 C3192 1.334 . S
C3192 H3163 0.950 . S
C3192 C3191 1.334 . S
C3192 C3193 1.287 . S
C3193 C3192 1.287 . S
C3193 C3194 1.524 . S
C3193 H3196 0.999 . S
C3194 H3164 0.950 . S
C3194 C3193 1.524 . S
C3194 C3195 1.415 . S
C3195 H3165 0.950 . S
C3195 C3190 1.363 . S
C3195 C3194 1.415 . S
H3196 C3193 0.999 . S
H3197 C3178 0.913 . S
H3198 C3216 0.951 . S
H3199 C3218 0.951 . S
H3200 C3220 0.950 1_556 S
H3201 C3221 0.949 . S
H3202 C3223 0.950 . S
H3203 C3226 0.950 . S
H3204 C3227 0.950 . S
H3205 C3229 0.950 . S
H3206 C3230 0.950 . S
H3207 C3231 0.951 . S
H3208 C3233 0.951 . S
H3209 C3235 0.950 1_554 S
H3210 C3236 0.949 . S
H3211 C3238 0.950 . S
H3212 C3241 0.950 . S
H3213 C3242 0.950 . S
H3214 C3244 0.950 . S
H3215 C3245 0.950 . S
C3216 H3198 0.951 . S
C3216 C3217 1.366 . S
C3216 C3218 1.388 . S
C3217 C3216 1.366 . S
C3217 C3221 1.385 . S
C3218 H3199 0.951 . S
C3218 C3216 1.388 . S
C3218 C3219 1.366 . S
C3219 C3218 1.366 . S
C3219 C3220 1.414 . S
C3219 C3222 1.499 . S
C3220 H3200 0.950 1_554 S
C3220 C3219 1.414 . S
C3220 C3221 1.374 . S
C3221 H3201 0.949 . S
C3221 C3217 1.385 . S
C3221 C3220 1.374 . S
C3222 C3219 1.499 . S
C3222 C3223 1.373 1_554 S
C3222 C3224 1.389 . S
C3223 H3202 0.950 . S
C3223 C3222 1.373 1_556 S
C3223 C3239 1.377 . S
C3224 C3222 1.389 . S
C3224 C3225 1.524 . S
C3224 C3238 1.377 . S
C3225 C3224 1.524 . S
C3225 C3226 1.397 . S
C3225 C3230 1.363 . S
C3226 H3203 0.950 . S
C3226 C3225 1.397 . S
C3226 C3227 1.334 . S
C3227 H3204 0.950 . S
C3227 C3226 1.334 . S
C3227 C3228 1.287 . S
C3228 C3227 1.287 . S
C3228 C3229 1.524 . S
C3228 H3247 0.913 . S
C3229 H3205 0.950 . S
C3229 C3228 1.524 . S
C3229 C3230 1.415 . S
C3230 H3206 0.950 . S
C3230 C3225 1.363 . S
C3230 C3229 1.415 . S
C3231 H3207 0.951 . S
C3231 C3232 1.366 . S
C3231 C3233 1.388 . S
C3232 C3231 1.366 . S
C3232 C3236 1.385 . S
C3233 H3208 0.951 . S
C3233 C3231 1.388 . S
C3233 C3234 1.366 . S
C3234 C3233 1.366 . S
C3234 C3235 1.414 . S
C3234 C3237 1.499 . S
C3235 H3209 0.950 1_556 S
C3235 C3234 1.414 . S
C3235 C3236 1.374 . S
C3236 H3210 0.949 . S
C3236 C3232 1.385 . S
C3236 C3235 1.374 . S
C3237 C3234 1.499 . S
C3237 C3238 1.373 1_556 S
C3237 C3239 1.389 . S
C3238 H3211 0.950 . S
C3238 C3224 1.377 . S
C3238 C3237 1.373 1_554 S
C3239 C3223 1.377 . S
C3239 C3237 1.389 . S
C3239 C3240 1.524 . S
C3240 C3239 1.524 . S
C3240 C3241 1.397 . S
C3240 C3245 1.363 . S
C3241 H3212 0.950 . S
C3241 C3240 1.397 . S
C3241 C3242 1.334 . S
C3242 H3213 0.950 . S
C3242 C3241 1.334 . S
C3242 C3243 1.287 . S
C3243 C3242 1.287 . S
C3243 C3244 1.524 . S
C3243 H3246 0.999 . S
C3244 H3214 0.950 . S
C3244 C3243 1.524 . S
C3244 C3245 1.415 . S
C3245 H3215 0.950 . S
C3245 C3240 1.363 . S
C3245 C3244 1.415 . S
H3246 C3243 0.999 . S
H3247 C3228 0.913 . S
H3248 C3266 0.951 . S
H3249 C3268 0.951 . S
H3250 C3270 0.950 . S
H3251 C3271 0.950 . S
H3252 C3273 0.950 . S
H3253 C3276 0.950 . S
H3254 C3277 0.950 . S
H3255 C3279 0.950 . S
H3256 C3280 0.950 . S
H3257 C3281 0.951 . S
H3258 C3283 0.951 . S
H3259 C3285 0.950 . S
H3260 C3286 0.950 . S
H3261 C3288 0.950 . S
H3262 C3291 0.950 . S
H3263 C3292 0.950 . S
H3264 C3294 0.950 . S
H3265 C3295 0.950 . S
C3266 H3248 0.951 . S
C3266 C3267 1.366 . S
C3266 C3268 1.388 . S
C3267 C3266 1.366 . S
C3267 C3271 1.385 . S
C3268 H3249 0.951 . S
C3268 C3266 1.388 . S
C3268 C3269 1.366 . S
C3269 C3268 1.366 . S
C3269 C3270 1.414 . S
C3269 C3272 1.499 . S
C3270 H3250 0.950 . S
C3270 C3269 1.414 . S
C3270 C3271 1.374 . S
C3271 H3251 0.950 . S
C3271 C3267 1.385 . S
C3271 C3270 1.374 . S
C3272 C3269 1.499 . S
C3272 C3273 1.373 . S
C3272 C3274 1.389 . S
C3273 H3252 0.950 . S
C3273 C3272 1.373 . S
C3273 C3289 1.377 1_565 S
C3274 C3272 1.389 . S
C3274 C3275 1.524 . S
C3274 C3288 1.377 1_565 S
C3275 C3274 1.524 . S
C3275 C3276 1.397 . S
C3275 C3280 1.363 1_565 S
C3276 H3253 0.950 . S
C3276 C3275 1.397 . S
C3276 C3277 1.334 . S
C3277 H3254 0.950 . S
C3277 C3276 1.334 . S
C3277 C3278 1.287 . S
C3278 C3277 1.287 . S
C3278 C3279 1.524 1_565 S
C3278 H3297 0.913 . S
C3279 H3255 0.950 . S
C3279 C3278 1.524 1_545 S
C3279 C3280 1.415 . S
C3280 H3256 0.950 . S
C3280 C3275 1.363 1_545 S
C3280 C3279 1.415 . S
C3281 H3257 0.951 . S
C3281 C3282 1.366 . S
C3281 C3283 1.388 . S
C3282 C3281 1.366 . S
C3282 C3286 1.385 . S
C3283 H3258 0.951 . S
C3283 C3281 1.388 . S
C3283 C3284 1.366 . S
C3284 C3283 1.366 . S
C3284 C3285 1.414 . S
C3284 C3287 1.499 . S
C3285 H3259 0.950 . S
C3285 C3284 1.414 . S
C3285 C3286 1.374 . S
C3286 H3260 0.950 . S
C3286 C3282 1.385 . S
C3286 C3285 1.374 . S
C3287 C3284 1.499 . S
C3287 C3288 1.373 . S
C3287 C3289 1.389 . S
C3288 H3261 0.950 . S
C3288 C3274 1.377 1_545 S
C3288 C3287 1.373 . S
C3289 C3273 1.377 1_545 S
C3289 C3287 1.389 . S
C3289 C3290 1.524 . S
C3290 C3289 1.524 . S
C3290 C3291 1.397 . S
C3290 C3295 1.363 1_545 S
C3291 H3262 0.950 . S
C3291 C3290 1.397 . S
C3291 C3292 1.334 . S
C3292 H3263 0.950 . S
C3292 C3291 1.334 . S
C3292 C3293 1.287 . S
C3293 C3292 1.287 . S
C3293 C3294 1.524 1_545 S
C3293 H3296 0.999 . S
C3294 H3264 0.950 . S
C3294 C3293 1.524 1_565 S
C3294 C3295 1.415 . S
C3295 H3265 0.950 . S
C3295 C3290 1.363 1_565 S
C3295 C3294 1.415 . S
H3296 C3293 0.999 . S
H3297 C3278 0.913 . S
H3298 C3316 0.950 . S
H3299 C3318 0.951 1_556 S
H3300 C3320 0.950 . S
H3301 C3321 0.950 . S
H3302 C3323 0.950 . S
H3303 C3326 0.950 1_554 S
H3304 C3327 0.950 . S
H3305 C3329 0.950 . S
H3306 C3330 0.950 . S
H3307 C3331 0.950 . S
H3308 C3333 0.951 1_554 S
H3309 C3335 0.950 . S
H3310 C3336 0.950 . S
H3311 C3338 0.950 . S
H3312 C3341 0.950 1_556 S
H3313 C3342 0.950 . S
H3314 C3344 0.950 . S
H3315 C3345 0.950 . S
C3316 H3298 0.950 . S
C3316 C3317 1.366 . S
C3316 C3318 1.388 . S
C3317 C3316 1.366 . S
C3317 C3321 1.385 . S
C3318 H3299 0.951 1_554 S
C3318 C3316 1.388 . S
C3318 C3319 1.366 . S
C3319 C3318 1.366 . S
C3319 C3320 1.414 . S
C3319 C3322 1.499 . S
C3320 H3300 0.950 . S
C3320 C3319 1.414 . S
C3320 C3321 1.374 . S
C3321 H3301 0.950 . S
C3321 C3317 1.385 . S
C3321 C3320 1.374 . S
C3322 C3319 1.499 . S
C3322 C3323 1.373 . S
C3322 C3324 1.389 1_554 S
C3323 H3302 0.950 . S
C3323 C3322 1.373 . S
C3323 C3339 1.377 . S
C3324 C3322 1.389 1_556 S
C3324 C3325 1.524 . S
C3324 C3338 1.377 . S
C3325 C3324 1.524 . S
C3325 C3326 1.397 . S
C3325 C3330 1.363 . S
C3326 H3303 0.950 1_556 S
C3326 C3325 1.397 . S
C3326 C3327 1.334 . S
C3327 H3304 0.950 . S
C3327 C3326 1.334 . S
C3327 C3328 1.287 . S
C3328 C3327 1.287 . S
C3328 C3329 1.524 . S
C3328 H3347 0.913 . S
C3329 H3305 0.950 . S
C3329 C3328 1.524 . S
C3329 C3330 1.415 . S
C3330 H3306 0.950 . S
C3330 C3325 1.363 . S
C3330 C3329 1.415 . S
C3331 H3307 0.950 . S
C3331 C3332 1.366 . S
C3331 C3333 1.388 . S
C3332 C3331 1.366 . S
C3332 C3336 1.385 . S
C3333 H3308 0.951 1_556 S
C3333 C3331 1.388 . S
C3333 C3334 1.366 . S
C3334 C3333 1.366 . S
C3334 C3335 1.414 . S
C3334 C3337 1.499 . S
C3335 H3309 0.950 . S
C3335 C3334 1.414 . S
C3335 C3336 1.374 . S
C3336 H3310 0.950 . S
C3336 C3332 1.385 . S
C3336 C3335 1.374 . S
C3337 C3334 1.499 . S
C3337 C3338 1.373 . S
C3337 C3339 1.389 1_556 S
C3338 H3311 0.950 . S
C3338 C3324 1.377 . S
C3338 C3337 1.373 . S
C3339 C3323 1.377 . S
C3339 C3337 1.389 1_554 S
C3339 C3340 1.524 . S
C3340 C3339 1.524 . S
C3340 C3341 1.397 . S
C3340 C3345 1.363 . S
C3341 H3312 0.950 1_554 S
C3341 C3340 1.397 . S
C3341 C3342 1.334 . S
C3342 H3313 0.950 . S
C3342 C3341 1.334 . S
C3342 C3343 1.287 . S
C3343 C3342 1.287 . S
C3343 C3344 1.524 . S
C3343 H3346 0.999 . S
C3344 H3314 0.950 . S
C3344 C3343 1.524 . S
C3344 C3345 1.415 . S
C3345 H3315 0.950 . S
C3345 C3340 1.363 . S
C3345 C3344 1.415 . S
H3346 C3343 0.999 . S
H3347 C3328 0.913 . S
H3348 C3366 0.951 . S
H3349 C3368 0.951 . S
H3350 C3370 0.950 . S
H3351 C3371 0.950 . S
H3352 C3373 0.950 . S
H3353 C3376 0.950 . S
H3354 C3377 0.950 . S
H3355 C3379 0.950 . S
H3356 C3380 0.950 . S
H3357 C3381 0.951 . S
H3358 C3383 0.951 . S
H3359 C3385 0.950 . S
H3360 C3386 0.950 . S
H3361 C3388 0.950 . S
H3362 C3391 0.950 . S
H3363 C3392 0.950 . S
H3364 C3394 0.950 . S
H3365 C3395 0.950 . S
C3366 H3348 0.951 . S
C3366 C3367 1.366 . S
C3366 C3368 1.388 . S
C3367 C3366 1.366 . S
C3367 C3371 1.385 . S
C3368 H3349 0.951 . S
C3368 C3366 1.388 . S
C3368 C3369 1.366 . S
C3369 C3368 1.366 . S
C3369 C3370 1.414 . S
C3369 C3372 1.499 . S
C3370 H3350 0.950 . S
C3370 C3369 1.414 . S
C3370 C3371 1.374 . S
C3371 H3351 0.950 . S
C3371 C3367 1.385 . S
C3371 C3370 1.374 . S
C3372 C3369 1.499 . S
C3372 C3373 1.373 . S
C3372 C3374 1.389 . S
C3373 H3352 0.950 . S
C3373 C3372 1.373 . S
C3373 C3389 1.377 1_545 S
C3374 C3372 1.389 . S
C3374 C3375 1.524 . S
C3374 C3388 1.377 1_545 S
C3375 C3374 1.524 . S
C3375 C3376 1.397 . S
C3375 C3380 1.363 . S
C3376 H3353 0.950 . S
C3376 C3375 1.397 . S
C3376 C3377 1.334 . S
C3377 H3354 0.950 . S
C3377 C3376 1.334 . S
C3377 C3378 1.287 . S
C3378 C3377 1.287 . S
C3378 C3379 1.524 . S
C3378 H3397 0.913 . S
C3379 H3355 0.950 . S
C3379 C3378 1.524 . S
C3379 C3380 1.415 . S
C3380 H3356 0.950 . S
C3380 C3375 1.363 . S
C3380 C3379 1.415 . S
C3381 H3357 0.951 . S
C3381 C3382 1.366 . S
C3381 C3383 1.388 . S
C3382 C3381 1.366 . S
C3382 C3386 1.385 . S
C3383 H3358 0.951 . S
C3383 C3381 1.388 . S
C3383 C3384 1.366 . S
C3384 C3383 1.366 . S
C3384 C3385 1.414 . S
C3384 C3387 1.499 . S
C3385 H3359 0.950 . S
C3385 C3384 1.414 . S
C3385 C3386 1.374 . S
C3386 H3360 0.950 . S
C3386 C3382 1.385 . S
C3386 C3385 1.374 . S
C3387 C3384 1.499 . S
C3387 C3388 1.373 . S
C3387 C3389 1.389 . S
C3388 H3361 0.950 . S
C3388 C3374 1.377 1_565 S
C3388 C3387 1.373 . S
C3389 C3373 1.377 1_565 S
C3389 C3387 1.389 . S
C3389 C3390 1.524 . S
C3390 C3389 1.524 . S
C3390 C3391 1.397 . S
C3390 C3395 1.363 . S
C3391 H3362 0.950 . S
C3391 C3390 1.397 . S
C3391 C3392 1.334 . S
C3392 H3363 0.950 . S
C3392 C3391 1.334 . S
C3392 C3393 1.287 . S
C3393 C3392 1.287 . S
C3393 C3394 1.524 . S
C3393 H3396 0.999 . S
C3394 H3364 0.950 . S
C3394 C3393 1.524 . S
C3394 C3395 1.415 . S
C3395 H3365 0.950 . S
C3395 C3390 1.363 . S
C3395 C3394 1.415 . S
H3396 C3393 0.999 . S
H3397 C3378 0.913 . S
H3398 C3416 0.951 . S
H3399 C3418 0.951 . S
H3400 C3420 0.950 . S
H3401 C3421 0.950 . S
H3402 C3423 0.950 . S
H3403 C3426 0.950 . S
H3404 C3427 0.950 . S
H3405 C3429 0.950 . S
H3406 C3430 0.950 . S
H3407 C3431 0.951 . S
H3408 C3433 0.951 . S
H3409 C3435 0.950 . S
H3410 C3436 0.950 . S
H3411 C3438 0.950 . S
H3412 C3441 0.950 . S
H3413 C3442 0.950 . S
H3414 C3444 0.950 . S
H3415 C3445 0.950 . S
C3416 H3398 0.951 . S
C3416 C3417 1.366 . S
C3416 C3418 1.388 . S
C3417 C3416 1.366 . S
C3417 C3421 1.385 . S
C3418 H3399 0.951 . S
C3418 C3416 1.388 . S
C3418 C3419 1.366 . S
C3419 C3418 1.366 . S
C3419 C3420 1.414 . S
C3419 C3422 1.499 . S
C3420 H3400 0.950 . S
C3420 C3419 1.414 . S
C3420 C3421 1.374 . S
C3421 H3401 0.950 . S
C3421 C3417 1.385 . S
C3421 C3420 1.374 . S
C3422 C3419 1.499 . S
C3422 C3423 1.373 . S
C3422 C3424 1.389 . S
C3423 H3402 0.950 . S
C3423 C3422 1.373 . S
C3423 C3439 1.377 . S
C3424 C3422 1.389 . S
C3424 C3425 1.524 . S
C3424 C3438 1.377 . S
C3425 C3424 1.524 . S
C3425 C3426 1.397 . S
C3425 C3430 1.363 . S
C3426 H3403 0.950 . S
C3426 C3425 1.397 . S
C3426 C3427 1.334 . S
C3427 H3404 0.950 . S
C3427 C3426 1.334 . S
C3427 C3428 1.287 . S
C3428 C3427 1.287 . S
C3428 C3429 1.524 . S
C3428 H3447 0.913 . S
C3429 H3405 0.950 . S
C3429 C3428 1.524 . S
C3429 C3430 1.415 . S
C3430 H3406 0.950 . S
C3430 C3425 1.363 . S
C3430 C3429 1.415 . S
C3431 H3407 0.951 . S
C3431 C3432 1.366 . S
C3431 C3433 1.388 . S
C3432 C3431 1.366 . S
C3432 C3436 1.385 . S
C3433 H3408 0.951 . S
C3433 C3431 1.388 . S
C3433 C3434 1.366 . S
C3434 C3433 1.366 . S
C3434 C3435 1.414 . S
C3434 C3437 1.499 . S
C3435 H3409 0.950 . S
C3435 C3434 1.414 . S
C3435 C3436 1.374 . S
C3436 H3410 0.950 . S
C3436 C3432 1.385 . S
C3436 C3435 1.374 . S
C3437 C3434 1.499 . S
C3437 C3438 1.373 . S
C3437 C3439 1.389 . S
C3438 H3411 0.950 . S
C3438 C3424 1.377 . S
C3438 C3437 1.373 . S
C3439 C3423 1.377 . S
C3439 C3437 1.389 . S
C3439 C3440 1.524 . S
C3440 C3439 1.524 . S
C3440 C3441 1.397 . S
C3440 C3445 1.363 . S
C3441 H3412 0.950 . S
C3441 C3440 1.397 . S
C3441 C3442 1.334 . S
C3442 H3413 0.950 . S
C3442 C3441 1.334 . S
C3442 C3443 1.287 . S
C3443 C3442 1.287 . S
C3443 C3444 1.524 . S
C3443 H3446 0.999 . S
C3444 H3414 0.950 . S
C3444 C3443 1.524 . S
C3444 C3445 1.415 . S
C3445 H3415 0.950 . S
C3445 C3440 1.363 . S
C3445 C3444 1.415 . S
H3446 C3443 0.999 . S
H3447 C3428 0.913 . S
H3448 C3466 0.951 . S
H3449 C3468 0.951 . S
H3450 C3470 0.950 . S
H3451 C3471 0.950 . S
H3452 C3473 0.950 . S
H3453 C3476 0.950 . S
H3454 C3477 0.950 . S
H3455 C3479 0.950 . S
H3456 C3480 0.950 . S
H3457 C3481 0.951 . S
H3458 C3483 0.951 . S
H3459 C3485 0.950 . S
H3460 C3486 0.950 . S
H3461 C3488 0.950 . S
H3462 C3491 0.950 . S
H3463 C3492 0.950 . S
H3464 C3494 0.950 . S
H3465 C3495 0.950 . S
C3466 H3448 0.951 . S
C3466 C3467 1.366 . S
C3466 C3468 1.388 . S
C3467 C3466 1.366 . S
C3467 C3471 1.385 . S
C3468 H3449 0.951 . S
C3468 C3466 1.388 . S
C3468 C3469 1.366 . S
C3469 C3468 1.366 . S
C3469 C3470 1.414 . S
C3469 C3472 1.499 . S
C3470 H3450 0.950 . S
C3470 C3469 1.414 . S
C3470 C3471 1.374 . S
C3471 H3451 0.950 . S
C3471 C3467 1.385 . S
C3471 C3470 1.374 . S
C3472 C3469 1.499 . S
C3472 C3473 1.373 . S
C3472 C3474 1.389 . S
C3473 H3452 0.950 . S
C3473 C3472 1.373 . S
C3473 C3489 1.377 1_545 S
C3474 C3472 1.389 . S
C3474 C3475 1.524 . S
C3474 C3488 1.377 1_545 S
C3475 C3474 1.524 . S
C3475 C3476 1.397 . S
C3475 C3480 1.363 . S
C3476 H3453 0.950 . S
C3476 C3475 1.397 . S
C3476 C3477 1.334 . S
C3477 H3454 0.950 . S
C3477 C3476 1.334 . S
C3477 C3478 1.287 . S
C3478 C3477 1.287 . S
C3478 C3479 1.524 . S
C3478 H3497 0.913 . S
C3479 H3455 0.950 . S
C3479 C3478 1.524 . S
C3479 C3480 1.415 . S
C3480 H3456 0.950 . S
C3480 C3475 1.363 . S
C3480 C3479 1.415 . S
C3481 H3457 0.951 . S
C3481 C3482 1.366 . S
C3481 C3483 1.388 . S
C3482 C3481 1.366 . S
C3482 C3486 1.385 . S
C3483 H3458 0.951 . S
C3483 C3481 1.388 . S
C3483 C3484 1.366 . S
C3484 C3483 1.366 . S
C3484 C3485 1.414 . S
C3484 C3487 1.499 . S
C3485 H3459 0.950 . S
C3485 C3484 1.414 . S
C3485 C3486 1.374 . S
C3486 H3460 0.950 . S
C3486 C3482 1.385 . S
C3486 C3485 1.374 . S
C3487 C3484 1.499 . S
C3487 C3488 1.373 . S
C3487 C3489 1.389 . S
C3488 H3461 0.950 . S
C3488 C3474 1.377 1_565 S
C3488 C3487 1.373 . S
C3489 C3473 1.377 1_565 S
C3489 C3487 1.389 . S
C3489 C3490 1.524 . S
C3490 C3489 1.524 . S
C3490 C3491 1.397 . S
C3490 C3495 1.363 . S
C3491 H3462 0.950 . S
C3491 C3490 1.397 . S
C3491 C3492 1.334 . S
C3492 H3463 0.950 . S
C3492 C3491 1.334 . S
C3492 C3493 1.287 . S
C3493 C3492 1.287 . S
C3493 C3494 1.524 . S
C3493 H3496 0.999 . S
C3494 H3464 0.950 . S
C3494 C3493 1.524 . S
C3494 C3495 1.415 . S
C3495 H3465 0.950 . S
C3495 C3490 1.363 . S
C3495 C3494 1.415 . S
H3496 C3493 0.999 . S
H3497 C3478 0.913 . S
H3498 C3516 0.951 . S
H3499 C3518 0.951 . S
H3500 C3520 0.950 . S
H3501 C3521 0.950 . S
H3502 C3523 0.950 . S
H3503 C3526 0.950 . S
H3504 C3527 0.950 . S
H3505 C3529 0.950 . S
H3506 C3530 0.950 . S
H3507 C3531 0.951 . S
H3508 C3533 0.951 . S
H3509 C3535 0.950 . S
H3510 C3536 0.950 . S
H3511 C3538 0.950 . S
H3512 C3541 0.950 . S
H3513 C3542 0.950 . S
H3514 C3544 0.950 . S
H3515 C3545 0.950 . S
C3516 H3498 0.951 . S
C3516 C3517 1.366 . S
C3516 C3518 1.388 . S
C3517 C3516 1.366 . S
C3517 C3521 1.385 . S
C3518 H3499 0.951 . S
C3518 C3516 1.388 . S
C3518 C3519 1.366 . S
C3519 C3518 1.366 . S
C3519 C3520 1.414 . S
C3519 C3522 1.499 . S
C3520 H3500 0.950 . S
C3520 C3519 1.414 . S
C3520 C3521 1.374 . S
C3521 H3501 0.950 . S
C3521 C3517 1.385 . S
C3521 C3520 1.374 . S
C3522 C3519 1.499 . S
C3522 C3523 1.373 1_554 S
C3522 C3524 1.389 . S
C3523 H3502 0.950 . S
C3523 C3522 1.373 1_556 S
C3523 C3539 1.377 . S
C3524 C3522 1.389 . S
C3524 C3525 1.524 . S
C3524 C3538 1.377 . S
C3525 C3524 1.524 . S
C3525 C3526 1.397 . S
C3525 C3530 1.363 . S
C3526 H3503 0.950 . S
C3526 C3525 1.397 . S
C3526 C3527 1.334 . S
C3527 H3504 0.950 . S
C3527 C3526 1.334 . S
C3527 C3528 1.287 . S
C3528 C3527 1.287 . S
C3528 C3529 1.524 . S
C3528 H3547 0.913 . S
C3529 H3505 0.950 . S
C3529 C3528 1.524 . S
C3529 C3530 1.415 . S
C3530 H3506 0.950 . S
C3530 C3525 1.363 . S
C3530 C3529 1.415 . S
C3531 H3507 0.951 . S
C3531 C3532 1.366 . S
C3531 C3533 1.388 . S
C3532 C3531 1.366 . S
C3532 C3536 1.385 . S
C3533 H3508 0.951 . S
C3533 C3531 1.388 . S
C3533 C3534 1.366 . S
C3534 C3533 1.366 . S
C3534 C3535 1.414 . S
C3534 C3537 1.499 . S
C3535 H3509 0.950 . S
C3535 C3534 1.414 . S
C3535 C3536 1.374 . S
C3536 H3510 0.950 . S
C3536 C3532 1.385 . S
C3536 C3535 1.374 . S
C3537 C3534 1.499 . S
C3537 C3538 1.373 1_556 S
C3537 C3539 1.389 . S
C3538 H3511 0.950 . S
C3538 C3524 1.377 . S
C3538 C3537 1.373 1_554 S
C3539 C3523 1.377 . S
C3539 C3537 1.389 . S
C3539 C3540 1.524 . S
C3540 C3539 1.524 . S
C3540 C3541 1.397 . S
C3540 C3545 1.363 . S
C3541 H3512 0.950 . S
C3541 C3540 1.397 . S
C3541 C3542 1.334 . S
C3542 H3513 0.950 . S
C3542 C3541 1.334 . S
C3542 C3543 1.287 . S
C3543 C3542 1.287 . S
C3543 C3544 1.524 . S
C3543 H3546 0.999 . S
C3544 H3514 0.950 . S
C3544 C3543 1.524 . S
C3544 C3545 1.415 . S
C3545 H3515 0.950 . S
C3545 C3540 1.363 . S
C3545 C3544 1.415 . S
H3546 C3543 0.999 . S
H3547 C3528 0.913 . S
H3548 C3566 0.951 . S
H3549 C3568 0.951 . S
H3550 C3570 0.950 . S
H3551 C3571 0.950 . S
H3552 C3573 0.950 . S
H3553 C3576 0.950 . S
H3554 C3577 0.950 . S
H3555 C3579 0.950 . S
H3556 C3580 0.950 . S
H3557 C3581 0.951 . S
H3558 C3583 0.951 . S
H3559 C3585 0.950 . S
H3560 C3586 0.950 . S
H3561 C3588 0.950 . S
H3562 C3591 0.950 . S
H3563 C3592 0.950 . S
H3564 C3594 0.950 . S
H3565 C3595 0.950 . S
C3566 H3548 0.951 . S
C3566 C3567 1.366 . S
C3566 C3568 1.388 . S
C3567 C3566 1.366 . S
C3567 C3571 1.385 . S
C3568 H3549 0.951 . S
C3568 C3566 1.388 . S
C3568 C3569 1.366 . S
C3569 C3568 1.366 . S
C3569 C3570 1.414 . S
C3569 C3572 1.499 . S
C3570 H3550 0.950 . S
C3570 C3569 1.414 . S
C3570 C3571 1.374 . S
C3571 H3551 0.950 . S
C3571 C3567 1.385 . S
C3571 C3570 1.374 . S
C3572 C3569 1.499 . S
C3572 C3573 1.373 . S
C3572 C3574 1.389 . S
C3573 H3552 0.950 . S
C3573 C3572 1.373 . S
C3573 C3589 1.377 1_545 S
C3574 C3572 1.389 . S
C3574 C3575 1.524 . S
C3574 C3588 1.377 1_545 S
C3575 C3574 1.524 . S
C3575 C3576 1.397 . S
C3575 C3580 1.363 . S
C3576 H3553 0.950 . S
C3576 C3575 1.397 . S
C3576 C3577 1.334 . S
C3577 H3554 0.950 . S
C3577 C3576 1.334 . S
C3577 C3578 1.287 . S
C3578 C3577 1.287 . S
C3578 C3579 1.524 . S
C3578 H3597 0.913 . S
C3579 H3555 0.950 . S
C3579 C3578 1.524 . S
C3579 C3580 1.415 . S
C3580 H3556 0.950 . S
C3580 C3575 1.363 . S
C3580 C3579 1.415 . S
C3581 H3557 0.951 . S
C3581 C3582 1.366 . S
C3581 C3583 1.388 . S
C3582 C3581 1.366 . S
C3582 C3586 1.385 . S
C3583 H3558 0.951 . S
C3583 C3581 1.388 . S
C3583 C3584 1.366 . S
C3584 C3583 1.366 . S
C3584 C3585 1.414 . S
C3584 C3587 1.499 . S
C3585 H3559 0.950 . S
C3585 C3584 1.414 . S
C3585 C3586 1.374 . S
C3586 H3560 0.950 . S
C3586 C3582 1.385 . S
C3586 C3585 1.374 . S
C3587 C3584 1.499 . S
C3587 C3588 1.373 . S
C3587 C3589 1.389 . S
C3588 H3561 0.950 . S
C3588 C3574 1.377 1_565 S
C3588 C3587 1.373 . S
C3589 C3573 1.377 1_565 S
C3589 C3587 1.389 . S
C3589 C3590 1.524 . S
C3590 C3589 1.524 . S
C3590 C3591 1.397 . S
C3590 C3595 1.363 . S
C3591 H3562 0.950 . S
C3591 C3590 1.397 . S
C3591 C3592 1.334 . S
C3592 H3563 0.950 . S
C3592 C3591 1.334 . S
C3592 C3593 1.287 . S
C3593 C3592 1.287 . S
C3593 C3594 1.524 . S
C3593 H3596 0.999 . S
C3594 H3564 0.950 . S
C3594 C3593 1.524 . S
C3594 C3595 1.415 . S
C3595 H3565 0.950 . S
C3595 C3590 1.363 . S
C3595 C3594 1.415 . S
H3596 C3593 0.999 . S
H3597 C3578 0.913 . S
H3598 C3616 0.951 . S
H3599 C3618 0.951 . S
H3600 C3620 0.950 . S
H3601 C3621 0.950 . S
H3602 C3623 0.950 . S
H3603 C3626 0.950 . S
H3604 C3627 0.950 . S
H3605 C3629 0.950 . S
H3606 C3630 0.950 . S
H3607 C3631 0.951 . S
H3608 C3633 0.951 . S
H3609 C3635 0.950 . S
H3610 C3636 0.950 . S
H3611 C3638 0.950 . S
H3612 C3641 0.950 . S
H3613 C3642 0.950 . S
H3614 C3644 0.950 . S
H3615 C3645 0.950 . S
C3616 H3598 0.951 . S
C3616 C3617 1.366 . S
C3616 C3618 1.388 . S
C3617 C3616 1.366 . S
C3617 C3621 1.385 . S
C3618 H3599 0.951 . S
C3618 C3616 1.388 . S
C3618 C3619 1.366 . S
C3619 C3618 1.366 . S
C3619 C3620 1.414 . S
C3619 C3622 1.499 . S
C3620 H3600 0.950 . S
C3620 C3619 1.414 . S
C3620 C3621 1.374 . S
C3621 H3601 0.950 . S
C3621 C3617 1.385 . S
C3621 C3620 1.374 . S
C3622 C3619 1.499 . S
C3622 C3623 1.373 . S
C3622 C3624 1.389 . S
C3623 H3602 0.950 . S
C3623 C3622 1.373 . S
C3623 C3639 1.377 . S
C3624 C3622 1.389 . S
C3624 C3625 1.524 . S
C3624 C3638 1.377 . S
C3625 C3624 1.524 . S
C3625 C3626 1.397 . S
C3625 C3630 1.363 . S
C3626 H3603 0.950 . S
C3626 C3625 1.397 . S
C3626 C3627 1.334 . S
C3627 H3604 0.950 . S
C3627 C3626 1.334 . S
C3627 C3628 1.287 . S
C3628 C3627 1.287 . S
C3628 C3629 1.524 . S
C3628 H3647 0.913 . S
C3629 H3605 0.950 . S
C3629 C3628 1.524 . S
C3629 C3630 1.415 . S
C3630 H3606 0.950 . S
C3630 C3625 1.363 . S
C3630 C3629 1.415 . S
C3631 H3607 0.951 . S
C3631 C3632 1.366 . S
C3631 C3633 1.388 . S
C3632 C3631 1.366 . S
C3632 C3636 1.385 . S
C3633 H3608 0.951 . S
C3633 C3631 1.388 . S
C3633 C3634 1.366 . S
C3634 C3633 1.366 . S
C3634 C3635 1.414 . S
C3634 C3637 1.499 . S
C3635 H3609 0.950 . S
C3635 C3634 1.414 . S
C3635 C3636 1.374 . S
C3636 H3610 0.950 . S
C3636 C3632 1.385 . S
C3636 C3635 1.374 . S
C3637 C3634 1.499 . S
C3637 C3638 1.373 . S
C3637 C3639 1.389 . S
C3638 H3611 0.950 . S
C3638 C3624 1.377 . S
C3638 C3637 1.373 . S
C3639 C3623 1.377 . S
C3639 C3637 1.389 . S
C3639 C3640 1.524 . S
C3640 C3639 1.524 . S
C3640 C3641 1.397 . S
C3640 C3645 1.363 . S
C3641 H3612 0.950 . S
C3641 C3640 1.397 . S
C3641 C3642 1.334 . S
C3642 H3613 0.950 . S
C3642 C3641 1.334 . S
C3642 C3643 1.287 . S
C3643 C3642 1.287 . S
C3643 C3644 1.524 . S
C3643 H3646 0.999 . S
C3644 H3614 0.950 . S
C3644 C3643 1.524 . S
C3644 C3645 1.415 . S
C3645 H3615 0.950 . S
C3645 C3640 1.363 . S
C3645 C3644 1.415 . S
H3646 C3643 0.999 . S
H3647 C3628 0.913 . S
C467 C7 1.301 . S
C482 C301 1.313 . S
C517 C315 1.302 . S
C532 C21 1.301 . S
C567 C35 1.302 . S
C582 C329 1.301 . S
C617 C287 1.302 . S
C632 C49 1.313 . S
C667 C63 1.301 . S
C682 C273 1.302 . S
C717 C77 1.302 . S
C732 C231 1.302 . S
C767 C245 1.313 . S
C782 C91 1.302 . S
C817 C105 1.313 . S
C832 C259 1.302 . S
C867 C119 1.301 . S
C882 C413 1.314 . S
C917 C133 1.302 . S
C932 C427 1.302 . S
C967 C441 1.301 . S
C982 C147 1.302 . S
C1017 C399 1.302 . S
C1032 C161 1.313 . S
C1067 C175 1.302 . S
C1082 C385 1.301 . S
C1117 C343 1.302 . S
C1132 C189 1.302 . S
C1167 C203 1.301 . S
C1182 C357 1.314 . S
C1217 C371 1.301 . S
C1232 C217 1.314 . S
C1267 C9 1.266 . S
C1282 C129 1.321 . S
C1317 C23 1.266 . S
C1332 C367 1.321 . S
C1367 C157 1.321 . S
C1382 C37 1.266 . S
C1417 C51 1.266 . S
C1432 C339 1.321 . S
C1467 C65 1.266 . S
C1482 C213 1.321 . S
C1517 C395 1.321 . S
C1532 C79 1.265 . S
C1567 C185 1.321 . S
C1582 C93 1.265 . S
C1617 C423 1.321 . S
C1632 C107 1.265 . S
C1667 C121 1.266 . S
C1682 C17 1.321 . S
C1717 C255 1.321 . S
C1732 C135 1.265 . S
C1767 C45 1.321 . S
C1782 C149 1.266 . S
C1817 C163 1.265 . S
C1832 C227 1.321 . S
C1867 C101 1.321 . S
C1882 C177 1.266 . S
C1917 C283 1.321 . S
C1932 C191 1.266 . S
C1967 C73 1.321 . S
C1982 C205 1.266 . S
C2017 C219 1.265 . S
C2032 C311 1.321 . S
C2067 C353 1.321 . S
C2082 C233 1.266 . S
C2117 C143 1.321 . S
C2132 C247 1.265 . S
C2167 C381 1.321 . S
C2182 C261 1.266 . S
C2217 C275 1.266 . S
C2232 C115 1.321 . S
C2267 C437 1.321 . S
C2282 C289 1.266 . S
C2317 C171 1.321 . S
C2332 C303 1.266 . S
C2367 C409 1.321 . S
C2382 C317 1.265 . S
C2417 C331 1.266 . S
C2432 C199 1.321 . S
C2467 C345 1.265 . S
C2482 C241 1.321 . S
C2517 C31 1.321 . S
C2532 C359 1.266 . S
C2567 C373 1.265 . S
C2582 C269 1.321 . S
C2617 C387 1.265 . S
C2632 C3 1.321 . S
C2667 C401 1.266 . S
C2682 C325 1.321 . S
C2717 C59 1.321 . S
C2732 C415 1.266 . S
C2767 C297 1.321 . S
C2782 C429 1.265 . S
C2817 C443 1.265 . S
C2832 C87 1.321 . S
C2867 C8 1.186 . S
C2882 C64 1.187 . S
C2917 C22 1.186 . S
C2932 C78 1.186 . S
C2967 C92 1.187 . S
C2982 C36 1.186 . S
C3017 C106 1.186 . S
C3032 C50 1.186 . S
C3067 C176 1.186 . S
C3082 C120 1.187 . S
C3117 C190 1.187 . S
C3132 C134 1.187 . S
C3167 C204 1.187 . S
C3182 C148 1.186 . S
C3217 C218 1.186 . S
C3232 C162 1.187 . S
C3267 C232 1.186 . S
C3282 C288 1.186 . S
C3317 C246 1.186 . S
C3332 C302 1.187 . S
C3367 C260 1.186 . S
C3382 C316 1.187 . S
C3417 C330 1.187 . S
C3432 C274 1.187 . S
C3467 C344 1.187 . S
C3482 C400 1.187 . S
C3517 C414 1.186 . S
C3532 C358 1.186 . S
C3567 C428 1.187 . S
C3582 C372 1.187 . S
C3617 C442 1.186 . S
C3632 C386 1.186 . S
