# Generated by pormake.
# Topology umm, (4)-cn, num edge types: 1
# Building blocks:
#     Node 0, Type 0, BuildingBlock: ICAMEG_clean_sbu_1, # of connection points: 4
#     Node 1, Type 0, BuildingBlock: ICAMEG_clean_sbu_1, # of connection points: 4
#     Node 2, Type 0, BuildingBlock: ICAMEG_clean_sbu_1, # of connection points: 4
#     Node 3, Type 0, BuildingBlock: ICAMEG_clean_sbu_1, # of connection points: 4
#     Node 4, Type 0, BuildingBlock: ICAMEG_clean_sbu_1, # of connection points: 4
#     Node 5, Type 0, BuildingBlock: ICAMEG_clean_sbu_1, # of connection points: 4
#     Node 6, Type 0, BuildingBlock: ICAMEG_clean_sbu_1, # of connection points: 4
#     Node 7, Type 0, BuildingBlock: ICAMEG_clean_sbu_1, # of connection points: 4
#     Node 8, Type 0, BuildingBlock: ICAMEG_clean_sbu_1, # of connection points: 4
#     Node 9, Type 0, BuildingBlock: ICAMEG_clean_sbu_1, # of connection points: 4
#     Node 10, Type 0, BuildingBlock: ICAMEG_clean_sbu_1, # of connection points: 4
#     Node 11, Type 0, BuildingBlock: ICAMEG_clean_sbu_1, # of connection points: 4
#     Edge 12, Type (0, 0), BuildingBlock: UVAHIK_clean_linker_0, # of connection points: 2
#     Edge 13, Type (0, 0), BuildingBlock: UVAHIK_clean_linker_0, # of connection points: 2
#     Edge 14, Type (0, 0), BuildingBlock: UVAHIK_clean_linker_0, # of connection points: 2
#     Edge 15, Type (0, 0), BuildingBlock: UVAHIK_clean_linker_0, # of connection points: 2
#     Edge 16, Type (0, 0), BuildingBlock: UVAHIK_clean_linker_0, # of connection points: 2
#     Edge 17, Type (0, 0), BuildingBlock: UVAHIK_clean_linker_0, # of connection points: 2
#     Edge 18, Type (0, 0), BuildingBlock: UVAHIK_clean_linker_0, # of connection points: 2
#     Edge 19, Type (0, 0), BuildingBlock: UVAHIK_clean_linker_0, # of connection points: 2
#     Edge 20, Type (0, 0), BuildingBlock: UVAHIK_clean_linker_0, # of connection points: 2
#     Edge 21, Type (0, 0), BuildingBlock: UVAHIK_clean_linker_0, # of connection points: 2
#     Edge 22, Type (0, 0), BuildingBlock: UVAHIK_clean_linker_0, # of connection points: 2
#     Edge 23, Type (0, 0), BuildingBlock: UVAHIK_clean_linker_0, # of connection points: 2
#     Edge 24, Type (0, 0), BuildingBlock: UVAHIK_clean_linker_0, # of connection points: 2
#     Edge 25, Type (0, 0), BuildingBlock: UVAHIK_clean_linker_0, # of connection points: 2
#     Edge 26, Type (0, 0), BuildingBlock: UVAHIK_clean_linker_0, # of connection points: 2
#     Edge 27, Type (0, 0), BuildingBlock: UVAHIK_clean_linker_0, # of connection points: 2
#     Edge 28, Type (0, 0), BuildingBlock: UVAHIK_clean_linker_0, # of connection points: 2
#     Edge 29, Type (0, 0), BuildingBlock: UVAHIK_clean_linker_0, # of connection points: 2
#     Edge 30, Type (0, 0), BuildingBlock: UVAHIK_clean_linker_0, # of connection points: 2
#     Edge 31, Type (0, 0), BuildingBlock: UVAHIK_clean_linker_0, # of connection points: 2
#     Edge 32, Type (0, 0), BuildingBlock: UVAHIK_clean_linker_0, # of connection points: 2
#     Edge 33, Type (0, 0), BuildingBlock: UVAHIK_clean_linker_0, # of connection points: 2
#     Edge 34, Type (0, 0), BuildingBlock: UVAHIK_clean_linker_0, # of connection points: 2
#     Edge 35, Type (0, 0), BuildingBlock: UVAHIK_clean_linker_0, # of connection points: 2
# Relax obj value: 0.067
# Max RMSD: 0.165
# Mean RMSD: 0.165
data_MOF--net-umm--node1-ICAMEG_clean_sbu_1--edge1-UVAHIK_clean_linker_0
_symmetry_space_group_name_H-M    P1
_symmetry_Int_Tables_number       1
_symmetry_cell_setting            triclinic
loop_
_symmetry_equiv_pos_as_xyz
'x, y, z'
_cell_length_a     77.304254
_cell_length_b     77.33047
_cell_length_c     38.613076
_cell_angle_alpha  90.015935
_cell_angle_beta   89.995733
_cell_angle_gamma 120.00402
loop_
_atom_site_label
_atom_site_type_symbol
_atom_site_fract_x
_atom_site_fract_y
_atom_site_fract_z
_atom_type_partial_charge
Co0 Co 0.37439 0.5082 0.05398 0.0
Co1 Co 0.40932 0.55657 0.07674 0.0
O2 O 0.38241 0.53344 0.07759 0.0
C3 C 0.34815 0.52202 0.02645 0.0
O4 O 0.36453 0.53929 0.02227 0.0
C5 C 0.4 0.54767 0.15039 0.0
O6 O 0.3923 0.52878 0.14213 0.0
O7 O 0.42105 0.53971 0.08883 0.0
O8 O 0.39971 0.50899 0.06838 0.0
H9 H 0.48226 0.59413 0.04612 0.0
H10 H 0.34653 0.51067 0.10388 0.0
O11 O 0.34911 0.50726 0.03891 0.0
H12 H 0.35978 0.45907 0.15059 0.0
H13 H 0.32478 0.43801 0.01754 0.0
H14 H 0.39473 0.49256 0.0094 0.0
H15 H 0.37518 0.47616 0.0957 0.0
H16 H 0.33578 0.47002 0.0476 0.0
O17 O 0.40723 0.56108 0.12707 0.0
H18 H 0.44808 0.56512 0.04653 0.0
H19 H 0.42798 0.59736 0.10743 0.0
H20 H 0.38442 0.46075 0.97917 0.0
H21 H 0.33067 0.49382 0.1587 0.0
H22 H 0.34921 0.4332 0.98315 0.0
H23 H 0.33733 0.46787 0.18246 0.0
O24 O 0.3874 0.52223 0.01027 0.0
H25 H 0.36027 0.58082 0.08901 0.0
H26 H 0.4178 0.5874 0.02272 0.0
H27 H 0.40245 0.6075 0.00601 0.0
H28 H 0.37347 0.60427 0.03926 0.0
H29 H 0.37599 0.5609 0.10467 0.0
H30 H 0.46197 0.62668 0.10795 0.0
H31 H 0.48937 0.6252 0.07699 0.0
O32 O 0.41228 0.55247 0.02662 0.0
C33 C 0.41622 0.52168 0.08245 0.0
C34 C 0.47042 0.595 0.05955 0.0
C35 C 0.45904 0.61325 0.09429 0.0
N36 N 0.43601 0.57965 0.07659 0.0
C37 C 0.45103 0.57865 0.05975 0.0
C38 C 0.43983 0.59661 0.09394 0.0
C39 C 0.47441 0.61241 0.07692 0.0
C40 C 0.34932 0.49924 0.11387 0.0
N41 N 0.36169 0.49434 0.09654 0.0
C42 C 0.34038 0.48982 0.145 0.0
C43 C 0.34414 0.47528 0.15835 0.0
C44 C 0.35675 0.47035 0.14049 0.0
C45 C 0.36547 0.48011 0.10947 0.0
C46 C 0.34017 0.44988 0.01568 0.0
C47 C 0.37942 0.48058 0.01146 0.0
C48 C 0.34648 0.46804 0.0326 0.0
N49 N 0.36592 0.48305 0.03053 0.0
C50 C 0.37365 0.46263 -0.00581 0.0
C51 C 0.35389 0.44719 -0.0036 0.0
C52 C 0.40272 0.53912 0.00383 0.0
C53 C 0.37294 0.58242 0.0744 0.0
C54 C 0.40519 0.58591 0.03731 0.0
C55 C 0.39658 0.59735 0.02776 0.0
C56 C 0.38033 0.59554 0.04645 0.0
N57 N 0.39785 0.57307 0.06477 0.0
C58 C 0.38195 0.57125 0.08325 0.0
Co59 Co 0.86944 0.37414 0.39257 0.0
Co60 Co 0.85782 0.41094 0.41016 0.0
O61 O 0.85295 0.38373 0.4142 0.0
C62 C 0.82891 0.34785 0.36695 0.0
O63 O 0.82869 0.36437 0.36017 0.0
C64 C 0.85623 0.40364 0.48495 0.0
O65 O 0.86722 0.39538 0.47918 0.0
O66 O 0.88613 0.42194 0.42349 0.0
O67 O 0.89458 0.3996 0.40461 0.0
H68 H 0.8959 0.48287 0.3734 0.0
H69 H 0.83915 0.34886 0.44484 0.0
O70 O 0.84449 0.34872 0.37996 0.0
H71 H 0.90377 0.36192 0.49253 0.0
H72 H 0.88765 0.32174 0.36397 0.0
H73 H 0.9051 0.39184 0.34702 0.0
H74 H 0.90212 0.37547 0.43558 0.0
H75 H 0.86765 0.33476 0.39147 0.0
O76 O 0.85074 0.41048 0.45993 0.0
H77 H 0.88929 0.44825 0.37773 0.0
H78 H 0.83679 0.43181 0.43626 0.0
H79 H 0.92563 0.3795 0.31929 0.0
H80 H 0.8401 0.33487 0.50175 0.0
H81 H 0.91693 0.34421 0.32771 0.0
H82 H 0.87259 0.34144 0.526 0.0
O83 O 0.86844 0.38564 0.34713 0.0
H84 H 0.78388 0.36453 0.42175 0.0
H85 H 0.83685 0.41903 0.35299 0.0
H86 H 0.80167 0.40451 0.33495 0.0
H87 H 0.77491 0.37705 0.36945 0.0
H88 H 0.81926 0.37939 0.4387 0.0
H89 H 0.84291 0.46629 0.43282 0.0
H90 H 0.87261 0.49207 0.40108 0.0
O91 O 0.86526 0.41224 0.36043 0.0
C92 C 0.89893 0.41649 0.41774 0.0
C93 C 0.88286 0.47175 0.38717 0.0
C94 C 0.85314 0.46245 0.42055 0.0
N95 N 0.86255 0.43799 0.40688 0.0
C96 C 0.879 0.45211 0.3896 0.0
C97 C 0.84976 0.44296 0.42245 0.0
C98 C 0.8698 0.4769 0.40274 0.0
C99 C 0.85332 0.3516 0.45505 0.0
N100 N 0.87055 0.36289 0.43685 0.0
C101 C 0.85378 0.34372 0.48736 0.0
C102 C 0.87202 0.34744 0.50098 0.0
C103 C 0.88952 0.35894 0.48223 0.0
C104 C 0.8885 0.36662 0.45003 0.0
C105 C 0.89163 0.33716 0.36019 0.0
C106 C 0.90133 0.37651 0.35101 0.0
C107 C 0.88034 0.3446 0.37564 0.0
N108 N 0.88535 0.36409 0.37112 0.0
C109 C 0.91296 0.36959 0.33515 0.0
C110 C 0.90806 0.34978 0.33985 0.0
C111 C 0.86802 0.40137 0.33891 0.0
C112 C 0.7954 0.37654 0.40659 0.0
C113 C 0.82528 0.40708 0.36812 0.0
C114 C 0.80539 0.39894 0.35782 0.0
C115 C 0.79038 0.38355 0.3772 0.0
N116 N 0.83008 0.40013 0.39698 0.0
C117 C 0.81545 0.38507 0.41615 0.0
Co118 Co 0.4936 0.87128 0.72452 0.0
Co119 Co 0.44464 0.85767 0.74294 0.0
O120 O 0.46767 0.85383 0.746 0.0
C121 C 0.47998 0.83156 0.69562 0.0
O122 O 0.46306 0.83113 0.68979 0.0
C123 C 0.45117 0.85636 0.81755 0.0
O124 O 0.47037 0.8675 0.81138 0.0
O125 O 0.46127 0.88615 0.75612 0.0
O126 O 0.49269 0.89565 0.73934 0.0
H127 H 0.40821 0.89347 0.70774 0.0
H128 H 0.48929 0.83988 0.77372 0.0
O129 O 0.49459 0.84699 0.70917 0.0
H130 H 0.54016 0.90358 0.82528 0.0
H131 H 0.56452 0.89162 0.69369 0.0
H132 H 0.51085 0.90806 0.68183 0.0
H133 H 0.52469 0.9031 0.76916 0.0
H134 H 0.53165 0.87042 0.721 0.0
O135 O 0.43865 0.8506 0.79281 0.0
H136 H 0.43706 0.88812 0.71099 0.0
H137 H 0.40302 0.83547 0.7703 0.0
H138 H 0.54354 0.92978 0.65435 0.0
H139 H 0.50451 0.83967 0.82974 0.0
H140 H 0.57065 0.92159 0.66021 0.0
H141 H 0.5301 0.8717 0.85594 0.0
O142 O 0.48096 0.87136 0.67971 0.0
H143 H 0.41992 0.78425 0.75427 0.0
H144 H 0.41516 0.83582 0.68671 0.0
H145 H 0.39541 0.80053 0.66891 0.0
H146 H 0.39773 0.77447 0.70279 0.0
H147 H 0.43951 0.81974 0.77104 0.0
H148 H 0.37384 0.84033 0.76795 0.0
H149 H 0.37631 0.86946 0.73637 0.0
O150 O 0.45008 0.86503 0.6932 0.0
C151 C 0.47958 0.89934 0.75193 0.0
C152 C 0.40692 0.88067 0.72146 0.0
C153 C 0.38764 0.85086 0.75529 0.0
N154 N 0.42166 0.86139 0.74051 0.0
C155 C 0.42319 0.87753 0.7233 0.0
C156 C 0.40421 0.8482 0.75658 0.0
C157 C 0.38903 0.86721 0.73756 0.0
C158 C 0.50057 0.85386 0.78478 0.0
N159 N 0.50617 0.87147 0.76811 0.0
C160 C 0.50907 0.85365 0.81658 0.0
C161 C 0.5234 0.87163 0.83129 0.0
C162 C 0.52904 0.88953 0.81412 0.0
C163 C 0.52019 0.88917 0.78239 0.0
C164 C 0.55285 0.89537 0.69104 0.0
C165 C 0.52263 0.90451 0.68472 0.0
C166 C 0.53421 0.88341 0.70639 0.0
N167 N 0.51944 0.88814 0.70331 0.0
C168 C 0.54108 0.91681 0.669 0.0
C169 C 0.55628 0.91219 0.67226 0.0
C170 C 0.46415 0.86954 0.6716 0.0
C171 C 0.41873 0.79546 0.73938 0.0
C172 C 0.41624 0.82457 0.7016 0.0
C173 C 0.405 0.8046 0.69142 0.0
C174 C 0.4063 0.78999 0.71046 0.0
N175 N 0.42839 0.82981 0.73001 0.0
C176 C 0.42971 0.81556 0.74884 0.0
Co177 Co 0.61807 0.49363 0.04994 0.0
Co178 Co 0.584 0.44501 0.07289 0.0
O179 O 0.61059 0.46855 0.07367 0.0
C180 C 0.64403 0.47976 0.0215 0.0
O181 O 0.62753 0.46258 0.01751 0.0
C182 C 0.59308 0.45443 0.14645 0.0
O183 O 0.60061 0.4733 0.13813 0.0
O184 O 0.57159 0.46139 0.08412 0.0
O185 O 0.59281 0.49259 0.06542 0.0
H186 H 0.51128 0.40567 0.04123 0.0
H187 H 0.64665 0.49157 0.09873 0.0
O188 O 0.64328 0.49465 0.03391 0.0
H189 H 0.63348 0.54304 0.14641 0.0
H190 H 0.66688 0.56375 0.01203 0.0
H191 H 0.59695 0.50891 0.00655 0.0
H192 H 0.61751 0.52567 0.09198 0.0
H193 H 0.65645 0.5319 0.04224 0.0
O194 O 0.58606 0.44096 0.12325 0.0
H195 H 0.54511 0.43523 0.04162 0.0
H196 H 0.56609 0.40451 0.10457 0.0
H197 H 0.60668 0.54055 0.9762 0.0
H198 H 0.66308 0.50869 0.15306 0.0
H199 H 0.64188 0.56824 0.97884 0.0
H200 H 0.65647 0.53459 0.1773 0.0
O201 O 0.60455 0.47946 0.00656 0.0
H202 H 0.63454 0.42279 0.08704 0.0
H203 H 0.57638 0.4139 0.01987 0.0
H204 H 0.59261 0.39446 0.00421 0.0
H205 H 0.62192 0.39886 0.0379 0.0
H206 H 0.61793 0.44202 0.10169 0.0
H207 H 0.53245 0.37467 0.10511 0.0
H208 H 0.50478 0.37511 0.07315 0.0
O209 O 0.58114 0.44858 0.02274 0.0
C210 C 0.57624 0.47948 0.07873 0.0
C211 C 0.52323 0.40527 0.05514 0.0
C212 C 0.5351 0.38788 0.09102 0.0
N213 N 0.55759 0.42151 0.07277 0.0
C214 C 0.54242 0.42193 0.05535 0.0
C215 C 0.55411 0.40482 0.09066 0.0
C216 C 0.51959 0.38813 0.07308 0.0
C217 C 0.64387 0.50297 0.10892 0.0
N218 N 0.63122 0.50769 0.09212 0.0
C219 C 0.65314 0.51255 0.13978 0.0
C220 C 0.6494 0.52705 0.1534 0.0
C221 C 0.63649 0.53179 0.13609 0.0
C222 C 0.62746 0.52188 0.10532 0.0
C223 C 0.65149 0.55181 0.01076 0.0
C224 C 0.61226 0.52095 0.00803 0.0
C225 C 0.64551 0.53375 0.02776 0.0
N226 N 0.62607 0.51866 0.02643 0.0
C227 C 0.6177 0.53881 0.9907 0.0
C228 C 0.63745 0.55433 0.99215 0.0
C229 C 0.58988 0.46214 -1e-05 0.0
C230 C 0.62174 0.42068 0.07225 0.0
C231 C 0.58912 0.41588 0.03468 0.0
C232 C 0.59823 0.40482 0.02571 0.0
C233 C 0.61467 0.40729 0.04464 0.0
N234 N 0.59614 0.42899 0.06181 0.0
C235 C 0.61222 0.43146 0.08053 0.0
Co236 Co 0.12752 0.61967 0.38222 0.0
Co237 Co 0.14364 0.58661 0.40335 0.0
O238 O 0.14585 0.61281 0.405 0.0
C239 C 0.16707 0.64706 0.35401 0.0
O240 O 0.16827 0.63096 0.34838 0.0
C241 C 0.144 0.5952 0.47738 0.0
O242 O 0.13195 0.60205 0.4701 0.0
O243 O 0.11492 0.5734 0.4158 0.0
O244 O 0.10388 0.59379 0.3972 0.0
H245 H 0.11167 0.5141 0.37096 0.0
H246 H 0.15777 0.64833 0.43151 0.0
O247 O 0.15116 0.64551 0.36684 0.0
H248 H 0.0925 0.63231 0.48051 0.0
H249 H 0.10373 0.66701 0.34749 0.0
H250 H 0.0911 0.59801 0.33902 0.0
H251 H 0.09442 0.61734 0.42526 0.0
H252 H 0.12608 0.65733 0.37643 0.0
O253 O 0.15056 0.58873 0.45341 0.0
H254 H 0.11489 0.54748 0.37241 0.0
H255 H 0.16769 0.56971 0.43282 0.0
H256 H 0.06826 0.60698 0.30991 0.0
H257 H 0.15653 0.66378 0.48665 0.0
H258 H 0.07453 0.64171 0.31407 0.0
H259 H 0.12372 0.65573 0.51157 0.0
O260 O 0.12853 0.60687 0.33814 0.0
H261 H 0.21612 0.63862 0.41514 0.0
H262 H 0.16702 0.58005 0.34859 0.0
H263 H 0.20251 0.59719 0.33148 0.0
H264 H 0.22733 0.6267 0.36486 0.0
H265 H 0.18045 0.62112 0.43122 0.0
H266 H 0.16496 0.53653 0.43228 0.0
H267 H 0.13683 0.50847 0.40105 0.0
O268 O 0.13645 0.58367 0.35351 0.0
C269 C 0.10101 0.57741 0.41046 0.0
C270 C 0.12404 0.52623 0.38454 0.0
C271 C 0.15393 0.53881 0.41898 0.0
N272 N 0.14157 0.56057 0.40236 0.0
C273 C 0.12597 0.54517 0.38535 0.0
C274 C 0.15539 0.55756 0.41924 0.0
C275 C 0.13815 0.52307 0.40146 0.0
C276 C 0.14344 0.64492 0.44199 0.0
N277 N 0.12619 0.63203 0.42509 0.0
C278 C 0.14283 0.65364 0.47331 0.0
C279 C 0.12441 0.6491 0.4873 0.0
C280 C 0.10689 0.63594 0.4699 0.0
C281 C 0.10807 0.62748 0.43867 0.0
C282 C 0.10081 0.65182 0.34557 0.0
C283 C 0.09383 0.61311 0.34115 0.0
C284 C 0.11343 0.64626 0.36185 0.0
N285 N 0.10977 0.62708 0.35968 0.0
C286 C 0.08089 0.61812 0.32452 0.0
C287 C 0.08443 0.63761 0.32682 0.0
C288 C 0.13129 0.59232 0.33112 0.0
C289 C 0.20546 0.62573 0.40049 0.0
C290 C 0.17773 0.59288 0.36326 0.0
C291 C 0.19781 0.6025 0.35347 0.0
C292 C 0.21173 0.61905 0.37223 0.0
N293 N 0.1717 0.59951 0.39102 0.0
C294 C 0.18526 0.61571 0.40956 0.0
Co295 Co 0.50354 0.12605 0.717 0.0
Co296 Co 0.55297 0.14262 0.73751 0.0
O297 O 0.52892 0.14483 0.7388 0.0
C298 C 0.51551 0.16474 0.68511 0.0
O299 O 0.53301 0.16614 0.68101 0.0
C300 C 0.54457 0.14343 0.81136 0.0
O301 O 0.52564 0.13168 0.80378 0.0
O302 O 0.53755 0.11397 0.75047 0.0
O303 O 0.50571 0.1028 0.73419 0.0
H304 H 0.59371 0.11077 0.70568 0.0
H305 H 0.50558 0.15765 0.76333 0.0
O306 O 0.50127 0.14922 0.69915 0.0
H307 H 0.45647 0.09391 0.81717 0.0
H308 H 0.43218 0.10158 0.68264 0.0
H309 H 0.48843 0.08863 0.67655 0.0
H310 H 0.47294 0.09423 0.76226 0.0
H311 H 0.46442 0.12456 0.71043 0.0
O312 O 0.55774 0.14972 0.78763 0.0
H313 H 0.56348 0.11389 0.7069 0.0
H314 H 0.59387 0.16677 0.76714 0.0
H315 H 0.45642 0.06516 0.64865 0.0
H316 H 0.48933 0.15801 0.81808 0.0
H317 H 0.42801 0.07158 0.65161 0.0
H318 H 0.46463 0.12597 0.84543 0.0
O319 O 0.51705 0.12588 0.67328 0.0
H320 H 0.57322 0.21507 0.74797 0.0
H321 H 0.58288 0.16574 0.6826 0.0
H322 H 0.60111 0.20112 0.66486 0.0
H323 H 0.59631 0.22605 0.69764 0.0
H324 H 0.55519 0.17951 0.76469 0.0
H325 H 0.62439 0.16414 0.76682 0.0
H326 H 0.62445 0.13602 0.7358 0.0
O327 O 0.54868 0.13519 0.68767 0.0
C328 C 0.51945 0.10009 0.74682 0.0
C329 C 0.59389 0.12313 0.71917 0.0
C330 C 0.6111 0.15307 0.75353 0.0
N331 N 0.57698 0.1406 0.73677 0.0
C332 C 0.57684 0.12501 0.71986 0.0
C333 C 0.59377 0.15447 0.75366 0.0
C334 C 0.61113 0.13729 0.73611 0.0
C335 C 0.49469 0.14365 0.77488 0.0
N336 N 0.49014 0.12595 0.75953 0.0
C337 C 0.48561 0.14395 0.80597 0.0
C338 C 0.47177 0.12597 0.82132 0.0
C339 C 0.4672 0.10797 0.80549 0.0
C340 C 0.4766 0.10824 0.77445 0.0
C341 C 0.44443 0.09859 0.68126 0.0
C342 C 0.47609 0.09143 0.67817 0.0
C343 C 0.46272 0.11156 0.69689 0.0
N344 N 0.4782 0.10781 0.69541 0.0
C345 C 0.45802 0.07814 0.66222 0.0
C346 C 0.4421 0.08176 0.66386 0.0
C347 C 0.5345 0.12917 0.66578 0.0
C348 C 0.57548 0.20436 0.73356 0.0
C349 C 0.58073 0.17651 0.69701 0.0
C350 C 0.59111 0.19652 0.68687 0.0
C351 C 0.58841 0.2105 0.70528 0.0
N352 N 0.56808 0.1706 0.72478 0.0
C353 C 0.56539 0.18423 0.74301 0.0
Co354 Co 0.49419 0.62307 0.59894 0.0
Co355 Co 0.44578 0.58656 0.58016 0.0
O356 O 0.46829 0.61373 0.57675 0.0
C357 C 0.47984 0.64916 0.62498 0.0
O358 O 0.463 0.63259 0.63093 0.0
C359 C 0.45216 0.59415 0.50549 0.0
O360 O 0.47137 0.60235 0.51169 0.0
O361 O 0.46307 0.57546 0.56727 0.0
O362 O 0.49386 0.59768 0.58645 0.0
H363 H 0.41121 0.51443 0.61584 0.0
H364 H 0.48969 0.64885 0.5471 0.0
O365 O 0.49464 0.64841 0.61211 0.0
H366 H 0.54149 0.63602 0.4999 0.0
H367 H 0.56463 0.67509 0.62957 0.0
H368 H 0.51169 0.6049 0.64445 0.0
H369 H 0.52582 0.622 0.55636 0.0
H370 H 0.53184 0.66237 0.60129 0.0
O371 O 0.43963 0.58729 0.53023 0.0
H372 H 0.43941 0.54899 0.6123 0.0
H373 H 0.4041 0.56604 0.55297 0.0
H374 H 0.54431 0.61693 0.67294 0.0
H375 H 0.5051 0.66331 0.49068 0.0
H376 H 0.57105 0.65227 0.66557 0.0
H377 H 0.53116 0.65686 0.46667 0.0
O378 O 0.48133 0.61121 0.644 0.0
H379 H 0.4188 0.63337 0.56792 0.0
H380 H 0.41624 0.57836 0.63655 0.0
H381 H 0.39562 0.593 0.65407 0.0
H382 H 0.39683 0.62072 0.61964 0.0
H383 H 0.43929 0.6184 0.55148 0.0
H384 H 0.37557 0.53162 0.55561 0.0
H385 H 0.37901 0.50556 0.58735 0.0
O386 O 0.45143 0.58495 0.63002 0.0
C387 C 0.4813 0.58084 0.57318 0.0
C388 C 0.4095 0.52567 0.60207 0.0
C389 C 0.38951 0.53532 0.56822 0.0
N390 N 0.42332 0.55955 0.58281 0.0
C391 C 0.42539 0.54528 0.60009 0.0
C392 C 0.40572 0.55477 0.56679 0.0
C393 C 0.39144 0.5207 0.58604 0.0
C394 C 0.50116 0.64615 0.53699 0.0
N395 N 0.50691 0.63468 0.55506 0.0
C396 C 0.50977 0.6543 0.50496 0.0
C397 C 0.52437 0.65065 0.49148 0.0
C398 C 0.53016 0.63895 0.51009 0.0
C399 C 0.5212 0.63101 0.54201 0.0
C400 C 0.55312 0.65965 0.63289 0.0
C401 C 0.52332 0.62025 0.64091 0.0
C402 C 0.53452 0.65237 0.617 0.0
N403 N 0.51997 0.63287 0.62094 0.0
C404 C 0.54173 0.627 0.6572 0.0
C405 C 0.55671 0.64683 0.65308 0.0
C406 C 0.465 0.59556 0.65184 0.0
C407 C 0.41809 0.62126 0.58306 0.0
C408 C 0.41686 0.59042 0.62145 0.0
C409 C 0.40512 0.59863 0.63146 0.0
C410 C 0.4058 0.61417 0.61211 0.0
N411 N 0.42888 0.59746 0.59291 0.0
C412 C 0.42959 0.61266 0.57377 0.0
Co413 Co 0.86533 0.48866 0.93682 0.0
Co414 Co 0.85084 0.44014 0.91351 0.0
O415 O 0.84776 0.46368 0.91279 0.0
C416 C 0.82515 0.47579 0.96285 0.0
O417 O 0.82381 0.45838 0.96788 0.0
C418 C 0.85072 0.44936 0.83997 0.0
O419 O 0.8624 0.46816 0.84838 0.0
O420 O 0.87949 0.45649 0.90147 0.0
O421 O 0.88956 0.48713 0.92307 0.0
H422 H 0.88462 0.40102 0.94383 0.0
H423 H 0.83592 0.48735 0.88595 0.0
O424 O 0.84125 0.49033 0.95097 0.0
H425 H 0.90186 0.53791 0.84127 0.0
H426 H 0.8875 0.55911 0.97392 0.0
H427 H 0.90083 0.50319 0.98231 0.0
H428 H 0.89908 0.52035 0.8961 0.0
H429 H 0.86608 0.52741 0.94325 0.0
O430 O 0.84423 0.43587 0.86316 0.0
H431 H 0.88035 0.43057 0.94362 0.0
H432 H 0.8279 0.39948 0.88253 0.0
H433 H 0.92273 0.53467 0.01316 0.0
H434 H 0.83801 0.5047 0.83118 0.0
H435 H 0.91611 0.5629 0.00905 0.0
H436 H 0.87117 0.53013 0.80844 0.0
O437 O 0.86345 0.47423 0.98048 0.0
H438 H 0.7779 0.41761 0.9012 0.0
H439 H 0.82789 0.40938 0.96733 0.0
H440 H 0.79236 0.38994 0.98393 0.0
H441 H 0.76709 0.394 0.95076 0.0
H442 H 0.8136 0.43686 0.88563 0.0
H443 H 0.83169 0.36964 0.88181 0.0
H444 H 0.86017 0.37027 0.91276 0.0
O445 O 0.85787 0.44399 0.96367 0.0
C446 C 0.89302 0.47431 0.90849 0.0
C447 C 0.8721 0.40053 0.9304 0.0
C448 C 0.8424 0.38292 0.89555 0.0
N449 N 0.85376 0.41665 0.91348 0.0
C450 C 0.86956 0.41718 0.93031 0.0
C451 C 0.84034 0.39987 0.89602 0.0
C452 C 0.85838 0.38329 0.91292 0.0
C453 C 0.85039 0.49856 0.87642 0.0
N454 N 0.86735 0.50289 0.89428 0.0
C455 C 0.85148 0.50826 0.84531 0.0
C456 C 0.8701 0.5225 0.83253 0.0
C457 C 0.88732 0.52687 0.85092 0.0
C458 C 0.88566 0.51684 0.88191 0.0
C459 C 0.89056 0.54693 0.97583 0.0
C460 C 0.89795 0.51547 0.98021 0.0
C461 C 0.87847 0.52895 0.95858 0.0
N462 N 0.88234 0.51356 0.96074 0.0
C463 C 0.91036 0.53323 -0.00218 0.0
C464 C 0.90662 0.54905 -0.00446 0.0
C465 C 0.86164 0.45722 0.98669 0.0
C466 C 0.78876 0.41565 0.91576 0.0
C467 C 0.81698 0.41123 0.95277 0.0
C468 C 0.79688 0.40016 0.96226 0.0
C469 C 0.78271 0.40244 0.94361 0.0
N470 N 0.82279 0.42416 0.92541 0.0
C471 C 0.80898 0.42644 0.90697 0.0
Co472 Co 0.37694 0.86996 0.26953 0.0
Co473 Co 0.4105 0.85485 0.24592 0.0
O474 O 0.38401 0.85207 0.24567 0.0
C475 C 0.35051 0.83025 0.29823 0.0
O476 O 0.36681 0.82918 0.30214 0.0
C477 C 0.40098 0.85487 0.17239 0.0
O478 O 0.39367 0.86639 0.18081 0.0
O479 O 0.4231 0.88362 0.23424 0.0
O480 O 0.40228 0.89394 0.25373 0.0
H481 H 0.48337 0.88771 0.27628 0.0
H482 H 0.34792 0.8394 0.22109 0.0
O483 O 0.3516 0.84604 0.28584 0.0
H484 H 0.36176 0.9042 0.17321 0.0
H485 H 0.329 0.89231 0.30795 0.0
H486 H 0.39861 0.90637 0.31273 0.0
H487 H 0.3778 0.90269 0.22746 0.0
H488 H 0.3389 0.8705 0.27762 0.0
O489 O 0.40804 0.84843 0.19554 0.0
H490 H 0.44969 0.88381 0.27641 0.0
H491 H 0.42786 0.83178 0.21406 0.0
H492 H 0.38942 0.92866 0.34321 0.0
H493 H 0.33141 0.84022 0.16695 0.0
H494 H 0.35439 0.92168 0.34091 0.0
H495 H 0.33836 0.87281 0.1426 0.0
O496 O 0.39057 0.86923 0.31275 0.0
H497 H 0.35936 0.78218 0.23315 0.0
H498 H 0.41819 0.83143 0.29899 0.0
H499 H 0.40177 0.79584 0.31518 0.0
H500 H 0.37212 0.77094 0.28216 0.0
H501 H 0.37616 0.81794 0.21797 0.0
H502 H 0.46134 0.8352 0.213 0.0
H503 H 0.48936 0.86328 0.2444 0.0
O504 O 0.41377 0.86158 0.29604 0.0
C505 C 0.41868 0.89721 0.23993 0.0
C506 C 0.47127 0.87537 0.26261 0.0
C507 C 0.45891 0.84591 0.22706 0.0
N508 N 0.43679 0.85748 0.24557 0.0
C509 C 0.45215 0.87305 0.26269 0.0
C510 C 0.43999 0.84407 0.22772 0.0
C511 C 0.47462 0.86167 0.24469 0.0
C512 C 0.35085 0.85362 0.21086 0.0
N513 N 0.36372 0.87097 0.22751 0.0
C514 C 0.34153 0.854 0.18011 0.0
C515 C 0.34546 0.87229 0.16643 0.0
C516 C 0.3586 0.88991 0.18358 0.0
C517 C 0.36767 0.88896 0.21424 0.0
C518 C 0.34433 0.89554 0.30906 0.0
C519 C 0.38337 0.90333 0.31141 0.0
C520 C 0.35 0.88323 0.29199 0.0
N521 N 0.36935 0.88729 0.29313 0.0
C522 C 0.37824 0.91596 0.32881 0.0
C523 C 0.35858 0.91202 0.32755 0.0
C524 C 0.40525 0.86655 0.31902 0.0
C525 C 0.37231 0.79288 0.24765 0.0
C526 C 0.4053 0.82069 0.28448 0.0
C527 C 0.39608 0.80055 0.29374 0.0
C528 C 0.37946 0.78659 0.27519 0.0
N529 N 0.3982 0.82673 0.25742 0.0
C530 C 0.38193 0.81313 0.23907 0.0
Co531 Co 0.50373 0.37491 0.59566 0.0
Co532 Co 0.55321 0.40768 0.57555 0.0
O533 O 0.5287 0.38199 0.57172 0.0
C534 C 0.51508 0.34598 0.61865 0.0
O535 O 0.53272 0.36161 0.62437 0.0
C536 C 0.54461 0.40255 0.50114 0.0
O537 O 0.52575 0.39563 0.50897 0.0
O538 O 0.53839 0.4221 0.56724 0.0
O539 O 0.50665 0.40151 0.58419 0.0
H540 H 0.59572 0.47834 0.61697 0.0
H541 H 0.50436 0.3476 0.54225 0.0
O542 O 0.50084 0.34832 0.6076 0.0
H543 H 0.45613 0.36676 0.49977 0.0
H544 H 0.43238 0.32773 0.62952 0.0
H545 H 0.48993 0.39574 0.64304 0.0
H546 H 0.47334 0.37953 0.55564 0.0
H547 H 0.46414 0.33767 0.59932 0.0
O548 O 0.55767 0.40765 0.52486 0.0
H549 H 0.5649 0.44558 0.61252 0.0
H550 H 0.59391 0.42481 0.54486 0.0
H551 H 0.45842 0.3865 0.67349 0.0
H552 H 0.48736 0.33434 0.48639 0.0
H553 H 0.42936 0.35228 0.66681 0.0
H554 H 0.46309 0.34397 0.46476 0.0
O555 O 0.51779 0.38595 0.64037 0.0
H556 H 0.57151 0.35497 0.55171 0.0
H557 H 0.58305 0.41091 0.62801 0.0
H558 H 0.6006 0.39225 0.63973 0.0
H559 H 0.59486 0.36405 0.60141 0.0
H560 H 0.55416 0.37394 0.54108 0.0
H561 H 0.625 0.45739 0.54833 0.0
H562 H 0.62606 0.4844 0.58472 0.0
O563 O 0.54932 0.40857 0.62609 0.0
C564 C 0.52056 0.41829 0.57288 0.0
C565 C 0.59547 0.46666 0.60114 0.0
C566 C 0.6119 0.45492 0.56259 0.0
N567 N 0.57768 0.43324 0.57876 0.0
C568 C 0.57808 0.44807 0.59861 0.0
C569 C 0.59425 0.43651 0.56068 0.0
C570 C 0.61248 0.47006 0.58301 0.0
C571 C 0.49367 0.35169 0.53319 0.0
N572 N 0.48977 0.36423 0.55227 0.0
C573 C 0.48415 0.34421 0.50146 0.0
C574 C 0.47056 0.34964 0.48931 0.0
C575 C 0.46666 0.36244 0.50894 0.0
C576 C 0.47648 0.36966 0.54051 0.0
C577 C 0.44491 0.34271 0.63256 0.0
C578 C 0.4773 0.38087 0.63981 0.0
C579 C 0.46293 0.3484 0.61558 0.0
N580 N 0.47878 0.36732 0.61917 0.0
C581 C 0.45952 0.3757 0.65721 0.0
C582 C 0.44323 0.35649 0.65348 0.0
C583 C 0.53543 0.39961 0.6482 0.0
C584 C 0.57419 0.36727 0.5685 0.0
C585 C 0.58048 0.39866 0.61122 0.0
C586 C 0.59048 0.38817 0.61796 0.0
C587 C 0.58727 0.37236 0.59643 0.0
N588 N 0.56769 0.39359 0.58375 0.0
C589 C 0.56448 0.37812 0.56252 0.0
Co590 Co 0.12395 0.50351 0.92579 0.0
Co591 Co 0.13736 0.55228 0.90628 0.0
O592 O 0.14116 0.52923 0.90361 0.0
C593 C 0.16398 0.51758 0.95363 0.0
O594 O 0.1643 0.53448 0.9592 0.0
C595 C 0.13776 0.54446 0.83219 0.0
O596 O 0.12658 0.52543 0.83954 0.0
O597 O 0.10867 0.53555 0.8945 0.0
O598 O 0.0994 0.50422 0.91145 0.0
H599 H 0.10227 0.58933 0.94204 0.0
H600 H 0.15498 0.50745 0.876 0.0
O601 O 0.14845 0.50277 0.9407 0.0
H602 H 0.09087 0.45612 0.82634 0.0
H603 H 0.1041 0.43296 0.95821 0.0
H604 H 0.08752 0.48655 0.96942 0.0
H605 H 0.09179 0.47201 0.88225 0.0
H606 H 0.125 0.46559 0.92999 0.0
O607 O 0.14372 0.55753 0.85606 0.0
H608 H 0.10747 0.56038 0.9392 0.0
H609 H 0.15915 0.59346 0.87708 0.0
H610 H 0.06611 0.4541 -0.00218 0.0
H611 H 0.15475 0.49182 0.82018 0.0
H612 H 0.07437 0.42703 -0.00771 0.0
H613 H 0.12251 0.46601 0.79494 0.0
O614 O 0.1242 0.51655 0.97029 0.0
H615 H 0.21062 0.57674 0.89211 0.0
H616 H 0.16002 0.58245 0.96111 0.0
H617 H 0.19556 0.60237 0.97738 0.0
H618 H 0.22114 0.59957 0.94277 0.0
H619 H 0.1749 0.55699 0.87688 0.0
H620 H 0.15443 0.62272 0.87901 0.0
H621 H 0.12586 0.62079 0.9118 0.0
O622 O 0.13069 0.54744 0.95633 0.0
C623 C 0.09553 0.51727 0.89917 0.0
C624 C 0.11482 0.59039 0.92778 0.0
C625 C 0.14408 0.60912 0.89237 0.0
N626 N 0.13371 0.57531 0.9083 0.0
C627 C 0.11788 0.57407 0.92618 0.0
C628 C 0.14666 0.5925 0.89133 0.0
C629 C 0.12805 0.60803 0.91078 0.0
C630 C 0.14091 0.49607 0.86537 0.0
N631 N 0.12343 0.49057 0.88245 0.0
C632 C 0.14087 0.48734 0.83368 0.0
C633 C 0.12277 0.47288 0.8195 0.0
C634 C 0.10501 0.46734 0.83709 0.0
C635 C 0.10562 0.47642 0.8687 0.0
C636 C 0.10032 0.44461 0.96073 0.0
C637 C 0.0911 0.47478 0.96668 0.0
C638 C 0.11211 0.46312 0.94486 0.0
N639 N 0.10734 0.47786 0.94776 0.0
C640 C 0.07898 0.45647 0.98292 0.0
C641 C 0.08363 0.44129 0.97984 0.0
C642 C 0.12624 0.53348 0.97816 0.0
C643 C 0.19962 0.57814 0.90731 0.0
C644 C 0.17106 0.58116 0.94591 0.0
C645 C 0.19117 0.5925 0.95522 0.0
C646 C 0.20551 0.59093 0.93577 0.0
N647 N 0.16541 0.56866 0.91794 0.0
C648 C 0.17939 0.56707 0.89871 0.0
Co649 Co 0.61999 0.12772 0.26145 0.0
Co650 Co 0.58497 0.14138 0.24057 0.0
O651 O 0.61185 0.14515 0.23885 0.0
C652 C 0.6459 0.16746 0.29053 0.0
O653 O 0.62939 0.16808 0.295 0.0
C654 C 0.59366 0.14252 0.16627 0.0
O655 O 0.60158 0.13133 0.17309 0.0
O656 O 0.57315 0.11283 0.22781 0.0
O657 O 0.5948 0.10335 0.24624 0.0
H658 H 0.51228 0.1058 0.27295 0.0
H659 H 0.64777 0.15891 0.21263 0.0
O660 O 0.64515 0.15198 0.27737 0.0
H661 H 0.63517 0.09495 0.16261 0.0
H662 H 0.66997 0.1072 0.29566 0.0
H663 H 0.59981 0.09109 0.30446 0.0
H664 H 0.61958 0.09568 0.21792 0.0
H665 H 0.65876 0.12841 0.26699 0.0
O666 O 0.58667 0.14835 0.19056 0.0
H667 H 0.54647 0.11102 0.27135 0.0
H668 H 0.56604 0.16367 0.21156 0.0
H669 H 0.61033 0.06937 0.33328 0.0
H670 H 0.66381 0.15887 0.15742 0.0
H671 H 0.64564 0.07739 0.32897 0.0
H672 H 0.65749 0.12671 0.132 0.0
O673 O 0.60677 0.12785 0.30559 0.0
H674 H 0.63397 0.21474 0.22931 0.0
H675 H 0.57678 0.16341 0.29569 0.0
H676 H 0.59221 0.19875 0.31313 0.0
H677 H 0.62103 0.22469 0.27984 0.0
H678 H 0.61817 0.17921 0.21291 0.0
H679 H 0.53202 0.15893 0.21227 0.0
H680 H 0.50488 0.12987 0.24326 0.0
O681 O 0.5824 0.13412 0.29041 0.0
C682 C 0.57813 0.09961 0.23297 0.0
C683 C 0.524 0.11857 0.25948 0.0
C684 C 0.53507 0.14838 0.22539 0.0
N685 N 0.55827 0.13774 0.2417 0.0
C686 C 0.54339 0.12164 0.25858 0.0
C687 C 0.55429 0.15097 0.22504 0.0
C688 C 0.51985 0.13206 0.24279 0.0
C689 C 0.64512 0.14487 0.20191 0.0
N690 N 0.63284 0.12733 0.21856 0.0
C691 C 0.65417 0.14494 0.17057 0.0
C692 C 0.65058 0.12688 0.15629 0.0
C693 C 0.63805 0.10905 0.17344 0.0
C694 C 0.62923 0.10956 0.20471 0.0
C695 C 0.65453 0.10352 0.29764 0.0
C696 C 0.61517 0.09457 0.30224 0.0
C697 C 0.64811 0.11548 0.28151 0.0
N698 N 0.62861 0.11085 0.28376 0.0
C699 C 0.62105 0.08227 0.31872 0.0
C700 C 0.64087 0.08679 0.31632 0.0
C701 C 0.59167 0.12967 0.31274 0.0
C702 C 0.62138 0.20359 0.24395 0.0
C703 C 0.58931 0.17462 0.28107 0.0
C704 C 0.59797 0.19461 0.29104 0.0
C705 C 0.61413 0.20915 0.27234 0.0
N706 N 0.59651 0.16928 0.25318 0.0
C707 C 0.61232 0.18346 0.23468 0.0
C708 C 0.41677 0.57286 0.19707 0.0
C709 C 0.40201 0.55361 0.18701 0.0
C710 C 0.42003 0.57802 0.23202 0.0
C711 C 0.41116 0.55443 0.3185 0.0
H712 H 0.43186 0.6089 0.35013 0.0
C713 C 0.42493 0.57693 0.46215 0.0
C714 C 0.4448 0.5914 0.46962 0.0
C715 C 0.41819 0.57316 0.42801 0.0
C716 C 0.42608 0.59365 0.34151 0.0
H717 H 0.37832 0.52499 0.20523 0.0
H718 H 0.38334 0.53425 0.26629 0.0
H719 H 0.42149 0.60039 0.28983 0.0
H720 H 0.47297 0.61385 0.44754 0.0
H721 H 0.46094 0.60749 0.38757 0.0
H722 H 0.4154 0.54773 0.37053 0.0
C723 C 0.39296 0.54516 0.24735 0.0
C724 C 0.42023 0.58876 0.30701 0.0
C725 C 0.38996 0.53987 0.21238 0.0
C726 C 0.45761 0.60255 0.44244 0.0
C727 C 0.45074 0.59901 0.40827 0.0
C728 C 0.41663 0.55926 0.35307 0.0
C729 C 0.40834 0.56415 0.25767 0.0
C730 C 0.41298 0.56912 0.29494 0.0
C731 C 0.43109 0.58404 0.40084 0.0
C732 C 0.42436 0.57894 0.3647 0.0
H733 H 0.42638 0.58372 0.17803 0.0
H734 H 0.43223 0.59265 0.23886 0.0
H735 H 0.40609 0.53927 0.31013 0.0
H736 H 0.41471 0.56807 0.48257 0.0
H737 H 0.40296 0.5616 0.42277 0.0
C738 C 0.85265 0.39509 0.54794 0.0
C739 C 0.85137 0.40639 0.52064 0.0
C740 C 0.84909 0.3986 0.58197 0.0
C741 C 0.85502 0.43841 0.63707 0.0
H742 H 0.81816 0.39738 0.69988 0.0
C743 C 0.84849 0.45758 0.77824 0.0
C744 C 0.84655 0.4436 0.8033 0.0
C745 C 0.84596 0.45243 0.74319 0.0
C746 C 0.82869 0.40898 0.68282 0.0
H747 H 0.84507 0.42998 0.50732 0.0
H748 H 0.83943 0.43643 0.56695 0.0
H749 H 0.81994 0.38896 0.63949 0.0
H750 H 0.84009 0.41321 0.81171 0.0
H751 H 0.83662 0.40452 0.75074 0.0
H752 H 0.86473 0.45825 0.68023 0.0
C753 C 0.84295 0.42475 0.56188 0.0
C754 C 0.82959 0.40414 0.64827 0.0
C755 C 0.84613 0.421 0.52785 0.0
C756 C 0.84156 0.42426 0.79289 0.0
C757 C 0.83942 0.41924 0.75787 0.0
C758 C 0.85443 0.44318 0.6717 0.0
C759 C 0.84458 0.41371 0.58918 0.0
C760 C 0.84283 0.41881 0.62526 0.0
C761 C 0.84186 0.43334 0.7325 0.0
C762 C 0.84136 0.4285 0.69512 0.0
H763 H 0.85657 0.38367 0.54303 0.0
H764 H 0.85053 0.39001 0.60278 0.0
H765 H 0.8655 0.44991 0.61974 0.0
H766 H 0.85211 0.47253 0.78568 0.0
H767 H 0.84747 0.46354 0.7245 0.0
C768 C 0.42394 0.84669 0.86073 0.0
C769 C 0.44379 0.85193 0.85341 0.0
C770 C 0.41723 0.84407 0.89485 0.0
C771 C 0.42479 0.83206 0.98179 0.0
H772 H 0.40637 0.86797 0.01191 0.0
C773 C 0.417 0.84562 0.12566 0.0
C774 C 0.40269 0.85073 0.13575 0.0
C775 C 0.4199 0.84326 0.09075 0.0
C776 C 0.41099 0.85747 0.00389 0.0
H777 H 0.47191 0.85767 0.87574 0.0
H778 H 0.4599 0.85257 0.9357 0.0
H779 H 0.4153 0.8679 0.95151 0.0
H780 H 0.37945 0.85638 0.11766 0.0
H781 H 0.38383 0.85137 0.05662 0.0
H782 H 0.42012 0.82124 0.0338 0.0
C783 C 0.44972 0.85073 0.91488 0.0
C784 C 0.41625 0.85758 0.96934 0.0
C785 C 0.45658 0.85373 0.88072 0.0
C786 C 0.39075 0.85266 0.11046 0.0
C787 C 0.39337 0.84991 0.07551 0.0
C788 C 0.41914 0.83164 0.01627 0.0
C789 C 0.43011 0.84625 0.92214 0.0
C790 C 0.42346 0.8451 0.9582 0.0
C791 C 0.40826 0.84557 0.06517 0.0
C792 C 0.4125 0.8446 0.0279 0.0
H793 H 0.41375 0.84525 0.8402 0.0
H794 H 0.40203 0.84057 0.89998 0.0
H795 H 0.43016 0.82219 0.97353 0.0
H796 H 0.42653 0.84418 0.14463 0.0
H797 H 0.43176 0.84032 0.08389 0.0
C798 C 0.60301 0.46214 0.20851 0.0
C799 C 0.59107 0.44846 0.18299 0.0
C800 C 0.60021 0.45655 0.24335 0.0
C801 C 0.57419 0.41211 0.30135 0.0
H802 H 0.57819 0.45168 0.36753 0.0
C803 C 0.53764 0.39617 0.43785 0.0
C804 C 0.55117 0.40615 0.46487 0.0
C805 C 0.54393 0.40046 0.40345 0.0
C806 C 0.57715 0.44057 0.34925 0.0
H807 H 0.56697 0.41826 0.17352 0.0
H808 H 0.56144 0.40883 0.23404 0.0
H809 H 0.58705 0.4612 0.30722 0.0
H810 H 0.58183 0.42828 0.47735 0.0
H811 H 0.59255 0.43613 0.41717 0.0
H812 H 0.56321 0.39129 0.34357 0.0
C813 C 0.57345 0.42361 0.22745 0.0
C814 C 0.58238 0.44601 0.31479 0.0
C815 C 0.57652 0.42906 0.19269 0.0
C816 C 0.5711 0.4203 0.45701 0.0
C817 C 0.57724 0.42485 0.42271 0.0
C818 C 0.56856 0.4066 0.33571 0.0
C819 C 0.58514 0.43732 0.25327 0.0
C820 C 0.58086 0.43182 0.29035 0.0
C821 C 0.56368 0.41505 0.39578 0.0
C822 C 0.56996 0.42079 0.35975 0.0
H823 H 0.61448 0.47714 0.20158 0.0
H824 H 0.60977 0.46737 0.26247 0.0
H825 H 0.57321 0.40088 0.28344 0.0
H826 H 0.52223 0.38516 0.44331 0.0
H827 H 0.53327 0.39284 0.38284 0.0
C828 C 0.15516 0.57966 0.52196 0.0
C829 C 0.14841 0.59298 0.51363 0.0
C830 C 0.15741 0.57585 0.55641 0.0
C831 C 0.165 0.59419 0.64417 0.0
H832 H 0.13037 0.53891 0.67067 0.0
C833 C 0.14688 0.57018 0.7864 0.0
C834 C 0.14258 0.55094 0.79601 0.0
C835 C 0.15023 0.57603 0.7518 0.0
C836 C 0.14052 0.55431 0.66374 0.0
H837 H 0.13976 0.6136 0.53455 0.0
H838 H 0.14415 0.60717 0.59517 0.0
H839 H 0.13231 0.54858 0.61028 0.0
H840 H 0.13938 0.52303 0.77758 0.0
H841 H 0.14617 0.53351 0.7172 0.0
H842 H 0.17362 0.59998 0.69735 0.0
C843 C 0.14748 0.59961 0.57485 0.0
C844 C 0.14148 0.55984 0.62916 0.0
C845 C 0.14488 0.60317 0.54031 0.0
C846 C 0.14241 0.53787 0.77068 0.0
C847 C 0.14619 0.54387 0.73611 0.0
C848 C 0.16438 0.58861 0.67873 0.0
C849 C 0.15331 0.58558 0.58305 0.0
C850 C 0.1535 0.57983 0.61926 0.0
C851 C 0.14976 0.56289 0.72614 0.0
C852 C 0.15186 0.56864 0.68904 0.0
H853 H 0.15799 0.57157 0.50194 0.0
H854 H 0.16196 0.56501 0.56232 0.0
H855 H 0.17447 0.60968 0.63686 0.0
H856 H 0.14697 0.58051 0.80548 0.0
H857 H 0.15252 0.59063 0.74515 0.0
C858 C 0.60195 0.14465 0.1032 0.0
C859 C 0.59105 0.14691 0.13018 0.0
C860 C 0.59832 0.14757 0.06884 0.0
C861 C 0.55834 0.14112 0.01388 0.0
H862 H 0.59872 0.17678 0.94895 0.0
C863 C 0.53732 0.14628 0.8734 0.0
C864 C 0.55087 0.14786 0.84774 0.0
C865 C 0.54299 0.14908 0.90819 0.0
C866 C 0.5873 0.16656 0.96662 0.0
H867 H 0.56812 0.15436 0.14254 0.0
H868 H 0.5615 0.15889 0.08249 0.0
H869 H 0.60787 0.17582 0.00922 0.0
H870 H 0.58103 0.15392 0.83801 0.0
H871 H 0.59062 0.15783 0.89857 0.0
H872 H 0.53794 0.13092 0.97153 0.0
C873 C 0.57294 0.15509 0.08802 0.0
C874 C 0.59256 0.16613 0.00108 0.0
C875 C 0.5768 0.15254 0.1223 0.0
C876 C 0.57031 0.15274 0.8573 0.0
C877 C 0.57585 0.15512 0.89208 0.0
C878 C 0.55315 0.14122 0.97936 0.0
C879 C 0.58351 0.15241 0.06107 0.0
C880 C 0.5781 0.15338 0.02487 0.0
C881 C 0.56218 0.15306 0.91805 0.0
C882 C 0.56757 0.15389 0.95521 0.0
H883 H 0.61307 0.1404 0.10861 0.0
H884 H 0.60655 0.14534 0.04829 0.0
H885 H 0.54701 0.13101 0.03184 0.0
H886 H 0.52231 0.14276 0.86661 0.0
H887 H 0.53222 0.14787 0.92736 0.0
C888 C 0.31127 0.50109 0.01625 0.0
C889 C 0.32866 0.51995 0.01735 0.0
C890 C 0.2929 0.49932 0.00753 0.0
C891 C 0.27112 0.52737 0.96577 0.0
H892 H 0.22317 0.49035 0.01574 0.0
C893 C 0.20041 0.5338 0.96632 0.0
C894 C 0.18208 0.51628 0.96042 0.0
C895 C 0.21776 0.53288 0.97165 0.0
C896 C 0.23642 0.50057 0.00133 0.0
H897 H 0.34038 0.55177 0.01079 0.0
H898 H 0.3084 0.54875 -0.00353 0.0
H899 H 0.25466 0.49134 0.02817 0.0
H900 H 0.1675 0.48404 0.9559 0.0
H901 H 0.19799 0.48245 0.96585 0.0
H902 H 0.25298 0.53702 0.93976 0.0
C903 C 0.30895 0.53525 0.00138 0.0
C904 C 0.25443 0.50113 0.00835 0.0
C905 C 0.3273 0.53699 0.00981 0.0
C906 C 0.18142 0.49778 0.96037 0.0
C907 C 0.19881 0.49686 0.96617 0.0
C908 C 0.25319 0.52694 0.95903 0.0
C909 C 0.29153 0.5164 -4e-05 0.0
C910 C 0.27207 0.51475 0.991 0.0
C911 C 0.21715 0.51443 0.97154 0.0
C912 C 0.23574 0.51374 0.97707 0.0
H913 H 0.31188 0.48768 0.02184 0.0
H914 H 0.27982 0.48457 0.00633 0.0
H915 H 0.28429 0.53769 0.95131 0.0
H916 H 0.20144 0.54829 0.96641 0.0
H917 H 0.23168 0.54663 0.97613 0.0
C918 C 0.81158 0.31059 0.36074 0.0
C919 C 0.81081 0.32837 0.36062 0.0
C920 C 0.79429 0.29223 0.35475 0.0
C921 C 0.73979 0.26747 0.36062 0.0
H922 H 0.73931 0.23104 0.29109 0.0
C923 C 0.66636 0.2032 0.30801 0.0
C924 C 0.66526 0.18495 0.30007 0.0
C925 C 0.68455 0.21986 0.31691 0.0
C926 C 0.73925 0.24086 0.31101 0.0
H927 H 0.79132 0.34085 0.35448 0.0
H928 H 0.76121 0.30885 0.34447 0.0
H929 H 0.77051 0.26161 0.30448 0.0
H930 H 0.68239 0.16982 0.29531 0.0
H931 H 0.71419 0.19888 0.31169 0.0
H932 H 0.70869 0.24685 0.36752 0.0
C933 C 0.77515 0.3091 0.34913 0.0
C934 C 0.75711 0.25838 0.31859 0.0
C935 C 0.79243 0.32743 0.35463 0.0
C936 C 0.68278 0.18371 0.30122 0.0
C937 C 0.70101 0.20039 0.31044 0.0
C938 C 0.72201 0.24991 0.35334 0.0
C939 C 0.7759 0.29133 0.34911 0.0
C940 C 0.75745 0.27201 0.343 0.0
C941 C 0.7021 0.21866 0.31844 0.0
C942 C 0.72141 0.23656 0.32796 0.0
H943 H 0.82555 0.31087 0.36526 0.0
H944 H 0.79522 0.27871 0.355 0.0
H945 H 0.73972 0.27758 0.37998 0.0
H946 H 0.65317 0.20472 0.30698 0.0
H947 H 0.68488 0.23378 0.32211 0.0
C948 C 0.50021 0.8146 0.68827 0.0
C949 C 0.48157 0.81367 0.68827 0.0
C950 C 0.50143 0.79742 0.68202 0.0
C951 C 0.47205 0.74308 0.68862 0.0
H952 H 0.50819 0.74235 0.61975 0.0
C953 C 0.46403 0.66946 0.63999 0.0
C954 C 0.48136 0.66856 0.63276 0.0
C955 C 0.46523 0.68765 0.64754 0.0
C956 C 0.49825 0.74237 0.63948 0.0
H957 H 0.44964 0.79405 0.68178 0.0
H958 H 0.45181 0.76414 0.67132 0.0
H959 H 0.50844 0.7735 0.63193 0.0
H960 H 0.51359 0.68603 0.62771 0.0
H961 H 0.51576 0.71787 0.64179 0.0
H962 H 0.46195 0.71216 0.69665 0.0
C963 C 0.46544 0.77812 0.67609 0.0
C964 C 0.49837 0.76019 0.64635 0.0
C965 C 0.46423 0.79528 0.68186 0.0
C966 C 0.49996 0.68628 0.63311 0.0
C967 C 0.50119 0.70452 0.64101 0.0
C968 C 0.47207 0.72536 0.68206 0.0
C969 C 0.48402 0.779 0.67622 0.0
C970 C 0.48502 0.7606 0.67056 0.0
C971 C 0.48382 0.7054 0.64843 0.0
C972 C 0.4849 0.72467 0.65696 0.0
H973 H 0.51383 0.82859 0.6931 0.0
H974 H 0.51593 0.79845 0.68237 0.0
H975 H 0.46185 0.74309 0.70785 0.0
H976 H 0.44944 0.6561 0.63952 0.0
H977 H 0.4515 0.68781 0.6523 0.0
C978 C 0.68119 0.49987 0.01327 0.0
C979 C 0.6634 0.48133 0.01311 0.0
C980 C 0.69946 0.50103 0.00579 0.0
C981 C 0.72061 0.47193 0.96575 0.0
H982 H 0.7675 0.50639 0.02049 0.0
C983 C 0.7886 0.46105 0.97313 0.0
C984 C 0.80752 0.47805 0.9687 0.0
C985 C 0.7717 0.46295 0.97707 0.0
C986 C 0.75457 0.49687 0.00478 0.0
H987 H 0.65084 0.44945 0.00545 0.0
H988 H 0.68253 0.45141 -0.00675 0.0
H989 H 0.73654 0.50705 0.02972 0.0
H990 H 0.82363 0.5104 0.96554 0.0
H991 H 0.79394 0.51369 0.97306 0.0
H992 H 0.73846 0.4613 0.94166 0.0
C993 C 0.68243 0.46515 -0.0018 0.0
C994 C 0.73686 0.49728 0.00995 0.0
C995 C 0.66423 0.46401 0.00542 0.0
C996 C 0.80923 0.49703 0.96888 0.0
C997 C 0.7923 0.49893 0.97329 0.0
C998 C 0.73821 0.47139 0.96086 0.0
C999 C 0.70027 0.48366 -0.00182 0.0
C1000 C 0.71958 0.48455 0.99087 0.0
C1001 C 0.77336 0.48188 0.97703 0.0
C1002 C 0.75525 0.48362 0.98068 0.0
H1003 H 0.68101 0.51349 0.01907 0.0
H1004 H 0.7129 0.51554 0.00569 0.0
H1005 H 0.70774 0.46229 0.95001 0.0
H1006 H 0.78676 0.44621 0.97301 0.0
H1007 H 0.75729 0.44957 0.98032 0.0
C1008 C 0.18346 0.68436 0.34932 0.0
C1009 C 0.18481 0.6669 0.34828 0.0
C1010 C 0.20059 0.70311 0.34528 0.0
C1011 C 0.25465 0.72857 0.35731 0.0
H1012 H 0.2574 0.76703 0.28991 0.0
C1013 C 0.32957 0.79428 0.31384 0.0
C1014 C 0.33093 0.81271 0.30657 0.0
C1015 C 0.31112 0.77747 0.32085 0.0
C1016 C 0.25679 0.75662 0.3093 0.0
H1017 H 0.20513 0.65539 0.34206 0.0
H1018 H 0.2349 0.68802 0.33548 0.0
H1019 H 0.22595 0.73581 0.29861 0.0
H1020 H 0.31402 0.82803 0.30118 0.0
H1021 H 0.28173 0.79866 0.31423 0.0
H1022 H 0.2853 0.7492 0.36833 0.0
C1023 C 0.22064 0.68722 0.33939 0.0
C1024 C 0.2388 0.73874 0.31417 0.0
C1025 C 0.20355 0.66853 0.34292 0.0
C1026 C 0.31343 0.81401 0.30665 0.0
C1027 C 0.29492 0.79716 0.31394 0.0
C1028 C 0.27253 0.74647 0.35275 0.0
C1029 C 0.21935 0.70468 0.34074 0.0
C1030 C 0.23772 0.72439 0.33768 0.0
C1031 C 0.29356 0.77868 0.32109 0.0
C1032 C 0.27397 0.76053 0.32813 0.0
H1033 H 0.16921 0.68355 0.3534 0.0
H1034 H 0.19925 0.71639 0.34648 0.0
H1035 H 0.2541 0.71788 0.37606 0.0
H1036 H 0.34273 0.79271 0.3136 0.0
H1037 H 0.31061 0.76341 0.32544 0.0
C1038 C 0.49375 0.17987 0.67563 0.0
C1039 C 0.51269 0.18151 0.67447 0.0
C1040 C 0.49139 0.19602 0.66603 0.0
C1041 C 0.5171 0.2443 0.61873 0.0
H1042 H 0.48467 0.25825 0.67602 0.0
C1043 C 0.52912 0.32338 0.62536 0.0
C1044 C 0.51232 0.32579 0.62289 0.0
C1045 C 0.52684 0.3044 0.62847 0.0
C1046 C 0.49353 0.25434 0.65951 0.0
H1047 H 0.54401 0.20137 0.6626 0.0
H1048 H 0.53998 0.22948 0.64662 0.0
H1049 H 0.48493 0.22726 0.68725 0.0
H1050 H 0.47993 0.31025 0.62207 0.0
H1051 H 0.47596 0.27686 0.62837 0.0
H1052 H 0.52634 0.2718 0.59201 0.0
C1053 C 0.52683 0.21565 0.65408 0.0
C1054 C 0.49367 0.2366 0.66585 0.0
C1055 C 0.52917 0.19954 0.66349 0.0
C1056 C 0.49314 0.30881 0.62391 0.0
C1057 C 0.49085 0.28976 0.62758 0.0
C1058 C 0.5171 0.26207 0.61264 0.0
C1059 C 0.50794 0.21411 0.65519 0.0
C1060 C 0.50585 0.23164 0.64605 0.0
C1061 C 0.50772 0.28743 0.62961 0.0
C1062 C 0.50568 0.26747 0.63346 0.0
H1063 H 0.48075 0.16613 0.68393 0.0
H1064 H 0.47661 0.19431 0.66692 0.0
H1065 H 0.52625 0.24068 0.60243 0.0
H1066 H 0.5441 0.33615 0.62452 0.0
H1067 H 0.54008 0.30302 0.63042 0.0
C1068 C 0.44745 0.52738 0.11198 0.0
C1069 C 0.43119 0.51563 0.09011 0.0
C1070 C 0.46274 0.52297 0.11645 0.0
C1071 C 0.49921 0.51958 0.10143 0.0
H1072 H 0.48991 0.4655 0.09837 0.0
C1073 C 0.56201 0.50215 0.07188 0.0
C1074 C 0.56105 0.48515 0.08692 0.0
C1075 C 0.54649 0.50623 0.07669 0.0
C1076 C 0.49282 0.48071 0.09982 0.0
H1077 H 0.41791 0.48959 0.05669 0.0
H1078 H 0.44485 0.48223 0.0636 0.0
H1079 H 0.46162 0.47102 0.10041 0.0
H1080 H 0.54358 0.45974 0.1205 0.0
H1081 H 0.5169 0.46722 0.12982 0.0
H1082 H 0.5304 0.52927 0.10173 0.0
C1083 C 0.44563 0.49464 0.07792 0.0
C1084 C 0.47655 0.48388 0.10046 0.0
C1085 C 0.4302 0.49892 0.07379 0.0
C1086 C 0.54467 0.47284 0.10817 0.0
C1087 C 0.52929 0.47705 0.11333 0.0
C1088 C 0.51548 0.51641 0.10118 0.0
C1089 C 0.46228 0.50683 0.09882 0.0
C1090 C 0.47953 0.50336 0.10076 0.0
C1091 C 0.52977 0.49354 0.09704 0.0
C1092 C 0.5125 0.49695 0.09986 0.0
H1093 H 0.44855 0.54024 0.12528 0.0
H1094 H 0.47506 0.53239 0.1334 0.0
H1095 H 0.50213 0.53481 0.10122 0.0
H1096 H 0.57438 0.51191 0.05528 0.0
H1097 H 0.54729 0.51892 0.06337 0.0
C1098 C 0.925 0.44729 0.44739 0.0
C1099 C 0.9201 0.43117 0.42495 0.0
C1100 C 0.94481 0.46246 0.45134 0.0
C1101 C 0.98437 0.49897 0.4355 0.0
H1102 H 0.02922 0.48994 0.42811 0.0
C1103 C 0.06396 0.56256 0.40463 0.0
C1104 C 0.0803 0.56169 0.41854 0.0
C1105 C 0.0445 0.54675 0.40946 0.0
C1106 C 0.01691 0.49277 0.43076 0.0
H1107 H 0.93222 0.41795 0.39001 0.0
H1108 H 0.96671 0.44472 0.39597 0.0
H1109 H 0.99548 0.46154 0.43097 0.0
H1110 H 0.08893 0.54394 0.44993 0.0
H1111 H 0.05501 0.51673 0.45929 0.0
H1112 H 0.00579 0.53016 0.43624 0.0
C1113 C 0.95534 0.44549 0.41115 0.0
C1114 C 0.9975 0.47644 0.43187 0.0
C1115 C 0.93552 0.43014 0.40758 0.0
C1116 C 0.07669 0.54501 0.43854 0.0
C1117 C 0.05722 0.52932 0.44371 0.0
C1118 C 0.00378 0.51528 0.43478 0.0
C1119 C 0.96019 0.46205 0.43255 0.0
C1120 C 0.98095 0.47932 0.43379 0.0
C1121 C 0.0409 0.5298 0.4287 0.0
C1122 C 0.0203 0.51242 0.43189 0.0
H1123 H 0.91348 0.44838 0.46152 0.0
H1124 H 0.94801 0.47468 0.46875 0.0
H1125 H 0.97204 0.50185 0.43651 0.0
H1126 H 0.06619 0.57513 0.38898 0.0
H1127 H 0.03237 0.54757 0.39709 0.0
C1128 C 0.49714 0.06303 0.74307 0.0
C1129 C 0.51443 0.07957 0.75628 0.0
C1130 C 0.49347 0.04367 0.74904 0.0
C1131 C 0.48438 0.00325 0.77517 0.0
H1132 H 0.53008 0.99534 0.77235 0.0
C1133 C 0.47378 0.92436 0.78298 0.0
C1134 C 0.48558 0.9202 0.76062 0.0
C1135 C 0.47822 0.944 0.7885 0.0
C1136 C 0.51713 0.99724 0.77298 0.0
H1137 H 0.54085 0.08872 0.78782 0.0
H1138 H 0.53407 0.05496 0.7993 0.0
H1139 H 0.53524 0.02897 0.76988 0.0
H1140 H 0.51169 0.93343 0.72741 0.0
H1141 H 0.519 0.96758 0.73588 0.0
H1142 H 0.4662 0.97151 0.77586 0.0
C1143 C 0.52368 0.05692 0.7833 0.0
C1144 C 0.5201 0.0166 0.77213 0.0
C1145 C 0.5275 0.07629 0.77691 0.0
C1146 C 0.50234 0.93615 0.74487 0.0
C1147 C 0.5066 0.95578 0.74993 0.0
C1148 C 0.4814 0.98389 0.77551 0.0
C1149 C 0.50684 0.04037 0.76882 0.0
C1150 C 0.50374 0.01985 0.77271 0.0
C1151 C 0.49437 0.95994 0.77133 0.0
C1152 C 0.49772 0.98061 0.77394 0.0
H1153 H 0.48679 0.06502 0.72698 0.0
H1154 H 0.4805 0.03137 0.737 0.0
H1155 H 0.47144 0.00515 0.7763 0.0
H1156 H 0.4609 0.9124 0.79588 0.0
H1157 H 0.46877 0.94664 0.80585 0.0
C1158 C 0.47658 0.55011 0.54332 0.0
C1159 C 0.48771 0.56611 0.56603 0.0
C1160 C 0.4811 0.53487 0.53944 0.0
C1161 C 0.48376 0.49815 0.55503 0.0
H1162 H 0.5375 0.50682 0.56276 0.0
C1163 C 0.49898 0.43363 0.58168 0.0
C1164 C 0.51608 0.43457 0.56711 0.0
C1165 C 0.49563 0.44971 0.57847 0.0
C1166 C 0.5224 0.5041 0.56005 0.0
H1167 H 0.51279 0.57902 0.60157 0.0
H1168 H 0.5203 0.55211 0.5957 0.0
H1169 H 0.53236 0.53536 0.56076 0.0
H1170 H 0.54266 0.45283 0.53647 0.0
H1171 H 0.53647 0.48054 0.52991 0.0
H1172 H 0.47383 0.46695 0.55328 0.0
C1173 C 0.50832 0.55151 0.58027 0.0
C1174 C 0.51943 0.52051 0.55942 0.0
C1175 C 0.50397 0.56693 0.58377 0.0
C1176 C 0.52942 0.45169 0.54832 0.0
C1177 C 0.52595 0.46766 0.54476 0.0
C1178 C 0.48674 0.48177 0.55527 0.0
C1179 C 0.49668 0.53507 0.55857 0.0
C1180 C 0.50005 0.51774 0.55725 0.0
C1181 C 0.50917 0.46702 0.56023 0.0
C1182 C 0.50607 0.48451 0.55818 0.0
H1183 H 0.46411 0.54918 0.52892 0.0
H1184 H 0.47215 0.52275 0.52178 0.0
H1185 H 0.46858 0.49536 0.55388 0.0
H1186 H 0.48845 0.42071 0.59647 0.0
H1187 H 0.4827 0.44877 0.59117 0.0
C1188 C 0.06996 0.5237 0.87179 0.0
C1189 C 0.0745 0.5113 0.89178 0.0
C1190 C 0.05021 0.5193 0.8679 0.0
C1191 C 0.01024 0.51513 0.88491 0.0
H1192 H 0.96561 0.46093 0.88376 0.0
C1193 C 0.92988 0.4965 0.91681 0.0
C1194 C 0.91391 0.48004 0.90043 0.0
C1195 C 0.9495 0.50071 0.9116 0.0
C1196 C 0.97786 0.47619 0.88352 0.0
H1197 H 0.06178 0.48414 0.92234 0.0
H1198 H 0.02745 0.47679 0.91649 0.0
H1199 H -0.00053 0.46671 0.88019 0.0
H1200 H 0.90608 0.45572 0.86427 0.0
H1201 H 0.94027 0.46346 0.85429 0.0
H1202 H 0.98863 0.52464 0.88732 0.0
C1203 C 0.03906 0.48972 0.90318 0.0
C1204 C 0.99733 0.47949 0.882 0.0
C1205 C 0.0588 0.49398 0.9067 0.0
C1206 C 0.91804 0.46838 0.87764 0.0
C1207 C 0.93765 0.47274 0.87208 0.0
C1208 C 0.99076 0.51184 0.88604 0.0
C1209 C 0.03455 0.50252 0.88426 0.0
C1210 C 0.01379 0.49899 0.88319 0.0
C1211 C 0.95361 0.48871 0.88952 0.0
C1212 C 0.97432 0.49232 0.88588 0.0
H1213 H 0.08169 0.53705 0.85959 0.0
H1214 H 0.04728 0.52923 0.85244 0.0
H1215 H 0.0225 0.53036 0.88634 0.0
H1216 H 0.92721 0.50573 0.93464 0.0
H1217 H 0.96135 0.51297 0.92584 0.0
C1218 C 0.45003 0.92197 0.20961 0.0
C1219 C 0.43389 0.91802 0.2314 0.0
C1220 C 0.46532 0.94155 0.20384 0.0
C1221 C 0.50185 0.98197 0.21532 0.0
H1222 H 0.49216 0.02652 0.21558 0.0
C1223 C 0.56452 0.06284 0.24027 0.0
C1224 C 0.56316 0.07862 0.22503 0.0
C1225 C 0.54912 0.04312 0.23614 0.0
C1226 C 0.49519 0.01429 0.21485 0.0
H1227 H 0.42092 0.93163 0.26351 0.0
H1228 H 0.44785 0.96568 0.25444 0.0
H1229 H 0.46406 0.99264 0.21586 0.0
H1230 H 0.54513 0.08594 0.1917 0.0
H1231 H 0.51868 0.05155 0.18345 0.0
H1232 H 0.53298 0.00361 0.21334 0.0
C1233 C 0.44853 0.95372 0.24109 0.0
C1234 C 0.47902 0.9948 0.2156 0.0
C1235 C 0.4331 0.93414 0.24649 0.0
C1236 C 0.54654 0.07415 0.20415 0.0
C1237 C 0.53128 0.05442 0.19963 0.0
C1238 C 0.51803 0.00146 0.21415 0.0
C1239 C 0.46499 0.95767 0.22007 0.0
C1240 C 0.48213 0.97838 0.21645 0.0
C1241 C 0.53213 0.03868 0.21626 0.0
C1242 C 0.51493 0.01789 0.2145 0.0
H1243 H 0.45099 0.90989 0.19726 0.0
H1244 H 0.4775 0.94402 0.18687 0.0
H1245 H 0.5049 0.96975 0.21635 0.0
H1246 H 0.57708 0.06575 0.2566 0.0
H1247 H 0.55024 0.03148 0.24972 0.0
C1248 C 0.45139 0.56937 0.69732 0.0
C1249 C 0.46105 0.58963 0.68833 0.0
C1250 C 0.44647 0.56354 0.73174 0.0
C1251 C 0.45493 0.58355 0.82216 0.0
H1252 H 0.40639 0.53333 0.83904 0.0
C1253 C 0.39603 0.53768 0.94051 0.0
C1254 C 0.40972 0.54375 0.96789 0.0
C1255 C 0.40276 0.54297 0.90651 0.0
C1256 C 0.41983 0.54755 0.83493 0.0
H1257 H 0.47318 0.61976 0.70771 0.0
H1258 H 0.46356 0.60966 0.76759 0.0
H1259 H 0.41708 0.54381 0.78018 0.0
H1260 H 0.44109 0.55933 0.98157 0.0
H1261 H 0.45296 0.56747 0.92227 0.0
H1262 H 0.45681 0.58805 0.87679 0.0
C1263 C 0.46047 0.59819 0.74856 0.0
C1264 C 0.42624 0.55341 0.80098 0.0
C1265 C 0.46591 0.60404 0.71423 0.0
C1266 C 0.43024 0.55469 0.96081 0.0
C1267 C 0.43701 0.55949 0.92679 0.0
C1268 C 0.44823 0.57795 0.85608 0.0
C1269 C 0.45054 0.57783 0.75778 0.0
C1270 C 0.44392 0.57147 0.79409 0.0
C1271 C 0.42337 0.55395 0.89915 0.0
C1272 C 0.4306 0.55984 0.86297 0.0
H1273 H 0.44769 0.55803 0.67771 0.0
H1274 H 0.4394 0.54778 0.73778 0.0
H1275 H 0.46879 0.5974 0.81811 0.0
H1276 H 0.3801 0.52938 0.94549 0.0
H1277 H 0.39174 0.53877 0.88618 0.0
C1278 C 0.8809 0.42727 0.29293 0.0
C1279 C 0.87002 0.40708 0.30229 0.0
C1280 C 0.88173 0.43294 0.25843 0.0
C1281 C 0.86918 0.41246 0.16835 0.0
H1282 H 0.87167 0.46303 0.15121 0.0
C1283 C 0.85648 0.45865 0.05009 0.0
C1284 C 0.86382 0.45236 0.02259 0.0
C1285 C 0.85791 0.4533 0.08405 0.0
C1286 C 0.87064 0.44871 0.1554 0.0
H1287 H 0.85149 0.3769 0.2835 0.0
H1288 H 0.85184 0.38674 0.22348 0.0
H1289 H 0.87215 0.45275 0.21009 0.0
H1290 H 0.87902 0.43623 0.00868 0.0
H1291 H 0.88271 0.42795 0.0679 0.0
H1292 H 0.86605 0.4077 0.11379 0.0
C1293 C 0.86049 0.39826 0.24226 0.0
C1294 C 0.87137 0.44297 0.18935 0.0
C1295 C 0.86016 0.39257 0.27668 0.0
C1296 C 0.87303 0.44105 0.02952 0.0
C1297 C 0.87498 0.43618 0.06351 0.0
C1298 C 0.86791 0.41796 0.13443 0.0
C1299 C 0.87115 0.41856 0.23268 0.0
C1300 C 0.87071 0.42478 0.19634 0.0
C1301 C 0.86723 0.44202 0.09126 0.0
C1302 C 0.86867 0.43619 0.12745 0.0
H1303 H 0.88879 0.43869 0.31232 0.0
H1304 H 0.8906 0.44864 0.25209 0.0
H1305 H 0.86895 0.39851 0.17247 0.0
H1306 H 0.84914 0.46723 0.04524 0.0
H1307 H 0.85135 0.45773 0.10449 0.0
C1308 C 0.47359 0.87358 0.60876 0.0
C1309 C 0.46034 0.87215 0.63502 0.0
C1310 C 0.46932 0.87505 0.5741 0.0
C1311 C 0.43922 0.88805 0.5175 0.0
H1312 H 0.44248 0.85146 0.45271 0.0
C1313 C 0.40245 0.87167 0.38247 0.0
C1314 C 0.41276 0.86901 0.3549 0.0
C1315 C 0.40948 0.87356 0.41637 0.0
C1316 C 0.44178 0.86201 0.47031 0.0
H1317 H 0.43252 0.87176 0.64549 0.0
H1318 H 0.42518 0.87433 0.58516 0.0
H1319 H 0.45333 0.85279 0.51233 0.0
H1320 H 0.43887 0.86677 0.3413 0.0
H1321 H 0.45124 0.87046 0.40013 0.0
H1322 H 0.42762 0.89724 0.47552 0.0
C1323 C 0.43887 0.87438 0.59139 0.0
C1324 C 0.448 0.86275 0.50444 0.0
C1325 C 0.44303 0.87275 0.62595 0.0
C1326 C 0.43042 0.86862 0.36191 0.0
C1327 C 0.43749 0.87064 0.3957 0.0
C1328 C 0.43311 0.8874 0.48328 0.0
C1329 C 0.45184 0.87531 0.56513 0.0
C1330 C 0.44659 0.87562 0.52842 0.0
C1331 C 0.42702 0.87296 0.42335 0.0
C1332 C 0.43416 0.87424 0.45939 0.0
H1333 H 0.48708 0.87321 0.61488 0.0
H1334 H 0.47965 0.87591 0.55429 0.0
H1335 H 0.43818 0.89826 0.53544 0.0
H1336 H 0.38879 0.87201 0.37797 0.0
H1337 H 0.40093 0.87508 0.43717 0.0
C1338 C 0.55886 0.42222 0.69336 0.0
C1339 C 0.54026 0.40564 0.68477 0.0
C1340 C 0.56354 0.42837 0.72759 0.0
C1341 C 0.54091 0.42485 0.81303 0.0
H1342 H 0.5949 0.44322 0.84527 0.0
C1343 C 0.56499 0.43948 0.95644 0.0
C1344 C 0.58311 0.45698 0.96384 0.0
C1345 C 0.55908 0.43382 0.92229 0.0
C1346 C 0.57984 0.43834 0.83646 0.0
H1347 H 0.51203 0.38243 0.70555 0.0
H1348 H 0.52047 0.39297 0.76575 0.0
H1349 H 0.58575 0.43105 0.78617 0.0
H1350 H 0.60898 0.48252 0.94122 0.0
H1351 H 0.59864 0.47244 0.88137 0.0
H1352 H 0.535 0.43182 0.86382 0.0
C1353 C 0.53125 0.40139 0.74574 0.0
C1354 C 0.57458 0.43137 0.80267 0.0
C1355 C 0.52647 0.39528 0.7113 0.0
C1356 C 0.59496 0.46895 0.93637 0.0
C1357 C 0.58912 0.46316 0.90216 0.0
C1358 C 0.54615 0.43168 0.84699 0.0
C1359 C 0.54985 0.418 0.75418 0.0
C1360 C 0.5551 0.42468 0.79051 0.0
C1361 C 0.57124 0.44544 0.8949 0.0
C1362 C 0.56568 0.43857 0.85887 0.0
H1363 H 0.56982 0.43068 0.67361 0.0
H1364 H 0.57784 0.44146 0.73315 0.0
H1365 H 0.52587 0.42005 0.80426 0.0
H1366 H 0.55546 0.42997 0.97701 0.0
H1367 H 0.54529 0.42002 0.91731 0.0
C1368 C 0.12363 0.55502 0.02367 0.0
C1369 C 0.12392 0.53754 0.0147 0.0
C1370 C 0.12222 0.55936 0.05821 0.0
C1371 C 0.13413 0.55031 0.14485 0.0
H1372 H 0.10003 0.571 0.17465 0.0
C1373 C 0.12876 0.56732 0.28757 0.0
C1374 C 0.12862 0.58505 0.2951 0.0
C1375 C 0.12655 0.56042 0.25367 0.0
C1376 C 0.10977 0.56543 0.16663 0.0
H1377 H 0.12249 0.51066 0.03499 0.0
H1378 H 0.12018 0.5184 0.09552 0.0
H1379 H 0.09868 0.56043 0.11461 0.0
H1380 H 0.12584 0.60932 0.27287 0.0
H1381 H 0.12247 0.59748 0.21335 0.0
H1382 H 0.14564 0.55574 0.19639 0.0
C1383 C 0.12112 0.52872 0.07565 0.0
C1384 C 0.10893 0.55932 0.13236 0.0
C1385 C 0.12238 0.52429 0.04102 0.0
C1386 C 0.126 0.59561 0.26794 0.0
C1387 C 0.12393 0.58876 0.23388 0.0
C1388 C 0.13507 0.55653 0.179 0.0
C1389 C 0.12119 0.54638 0.08452 0.0
C1390 C 0.12117 0.55179 0.12117 0.0
C1391 C 0.12433 0.57116 0.2264 0.0
C1392 C 0.12295 0.56422 0.19024 0.0
H1393 H 0.12471 0.56553 0.00406 0.0
H1394 H 0.12251 0.57317 0.0644 0.0
H1395 H 0.14397 0.54487 0.13671 0.0
H1396 H 0.13054 0.55867 0.30787 0.0
H1397 H 0.12654 0.54662 0.24884 0.0
C1398 C 0.55717 0.12785 0.62097 0.0
C1399 C 0.53884 0.1265 0.62955 0.0
C1400 C 0.56165 0.12606 0.58666 0.0
C1401 C 0.55008 0.13366 0.49862 0.0
H1402 H 0.57489 0.10265 0.47244 0.0
C1403 C 0.56615 0.12552 0.35659 0.0
C1404 C 0.58463 0.127 0.34893 0.0
C1405 C 0.55965 0.12373 0.39071 0.0
C1406 C 0.56815 0.11153 0.47942 0.0
H1407 H 0.51069 0.1218 0.60881 0.0
H1408 H 0.51867 0.11881 0.54876 0.0
H1409 H 0.56492 0.10244 0.53256 0.0
H1410 H 0.61062 0.12743 0.37113 0.0
H1411 H 0.59946 0.12479 0.43097 0.0
H1412 H 0.55372 0.1432 0.44593 0.0
C1413 C 0.52954 0.12134 0.56871 0.0
C1414 C 0.56239 0.11135 0.51376 0.0
C1415 C 0.52497 0.12298 0.60309 0.0
C1416 C 0.59631 0.12629 0.37617 0.0
C1417 C 0.58985 0.12467 0.41044 0.0
C1418 C 0.55595 0.13396 0.4644 0.0
C1419 C 0.54798 0.12302 0.56019 0.0
C1420 C 0.55335 0.12246 0.52364 0.0
C1421 C 0.57154 0.12358 0.41807 0.0
C1422 C 0.56507 0.12292 0.45441 0.0
H1423 H 0.56818 0.13049 0.64069 0.0
H1424 H 0.57606 0.12761 0.58074 0.0
H1425 H 0.54345 0.14264 0.50568 0.0
H1426 H 0.55665 0.12578 0.33623 0.0
H1427 H 0.54529 0.1225 0.39565 0.0
loop_
_geom_bond_atom_site_label_1
_geom_bond_atom_site_label_2
_geom_bond_distance
_geom_bond_site_symmetry_2
_ccdc_geom_bond_type
Co0 O2 2.143 . S
Co0 O8 2.074 . S
Co0 O11 2.093 . S
Co0 O24 2.097 1_554 S
Co0 N41 2.151 . S
Co0 N49 2.214 1_554 S
Co1 O2 2.160 . S
Co1 O7 2.058 . S
Co1 O17 2.057 . S
Co1 O32 2.037 . S
Co1 N36 2.145 . S
Co1 N57 2.257 . S
O2 Co0 2.143 . S
O2 Co1 2.160 . S
C3 O4 1.278 . S
C3 O11 1.224 . S
O4 C3 1.278 . S
C5 O6 1.245 . S
C5 O17 1.232 . S
O6 C5 1.245 . S
O7 Co1 2.058 . S
O7 C33 1.269 . S
O8 Co0 2.074 . S
O8 C33 1.257 . S
H9 C34 0.930 . S
H10 C40 0.930 . S
O11 Co0 2.093 . S
O11 C3 1.224 . S
H12 C44 0.929 . S
H13 C46 0.930 . S
H14 C47 0.930 . S
H15 C45 0.929 . S
H16 C48 0.928 . S
O17 Co1 2.057 . S
O17 C5 1.232 . S
H18 C37 0.929 . S
H19 C38 0.929 . S
H20 C50 0.931 . S
H21 C42 0.929 . S
H22 C51 0.930 . S
H23 C43 0.931 . S
O24 Co0 2.097 1_556 S
O24 C52 1.214 . S
H25 C53 0.929 . S
H26 C54 0.929 . S
H27 C55 0.930 . S
H28 C56 0.929 . S
H29 C58 0.930 . S
H30 C35 0.930 . S
H31 C39 0.930 . S
O32 Co1 2.037 . S
O32 C52 1.234 1_554 S
C33 O7 1.269 . S
C33 O8 1.257 . S
C34 H9 0.930 . S
C34 C37 1.388 . S
C34 C39 1.418 . S
C35 H30 0.930 . S
C35 C38 1.404 . S
C35 C39 1.353 . S
N36 Co1 2.145 . S
N36 C37 1.397 . S
N36 C38 1.334 . S
C37 H18 0.929 . S
C37 C34 1.388 . S
C37 N36 1.397 . S
C38 H19 0.929 . S
C38 C35 1.404 . S
C38 N36 1.334 . S
C39 H31 0.930 . S
C39 C34 1.418 . S
C39 C35 1.353 . S
C40 H10 0.930 . S
C40 N41 1.330 . S
C40 C42 1.446 . S
N41 Co0 2.151 . S
N41 C40 1.330 . S
N41 C45 1.418 . S
C42 H21 0.929 . S
C42 C40 1.446 . S
C42 C43 1.332 . S
C43 H23 0.931 . S
C43 C42 1.332 . S
C43 C44 1.267 . S
C44 H12 0.929 . S
C44 C43 1.267 . S
C44 C45 1.251 . S
C45 H15 0.929 . S
C45 N41 1.418 . S
C45 C44 1.251 . S
C46 H13 0.930 . S
C46 C48 1.406 . S
C46 C51 1.261 . S
C47 H14 0.930 . S
C47 N49 1.325 . S
C47 C50 1.357 . S
C48 H16 0.928 . S
C48 C46 1.406 . S
C48 N49 1.261 . S
N49 Co0 2.214 1_556 S
N49 C47 1.325 . S
N49 C48 1.261 . S
C50 H20 0.931 . S
C50 C47 1.357 . S
C50 C51 1.312 . S
C51 H22 0.930 . S
C51 C46 1.261 . S
C51 C50 1.312 . S
C52 O24 1.214 . S
C52 O32 1.234 1_556 S
C53 H25 0.929 . S
C53 C56 1.391 . S
C53 C58 1.391 . S
C54 H26 0.929 . S
C54 C55 1.390 . S
C54 N57 1.391 . S
C55 H27 0.930 . S
C55 C54 1.390 . S
C55 C56 1.392 . S
C56 H28 0.929 . S
C56 C53 1.391 . S
C56 C55 1.392 . S
N57 Co1 2.257 . S
N57 C54 1.391 . S
N57 C58 1.388 . S
C58 H29 0.930 . S
C58 C53 1.391 . S
C58 N57 1.388 . S
Co59 O61 2.143 . S
Co59 O67 2.074 . S
Co59 O70 2.093 . S
Co59 O83 2.097 . S
Co59 N100 2.151 . S
Co59 N108 2.214 . S
Co60 O61 2.160 . S
Co60 O66 2.058 . S
Co60 O76 2.057 . S
Co60 O91 2.037 . S
Co60 N95 2.145 . S
Co60 N116 2.257 . S
O61 Co59 2.143 . S
O61 Co60 2.160 . S
C62 O63 1.278 . S
C62 O70 1.224 . S
O63 C62 1.278 . S
C64 O65 1.245 . S
C64 O76 1.232 . S
O65 C64 1.245 . S
O66 Co60 2.058 . S
O66 C92 1.269 . S
O67 Co59 2.074 . S
O67 C92 1.257 . S
H68 C93 0.930 . S
H69 C99 0.930 . S
O70 Co59 2.093 . S
O70 C62 1.224 . S
H71 C103 0.929 . S
H72 C105 0.930 . S
H73 C106 0.930 . S
H74 C104 0.929 . S
H75 C107 0.928 . S
O76 Co60 2.057 . S
O76 C64 1.232 . S
H77 C96 0.929 . S
H78 C97 0.929 . S
H79 C109 0.931 . S
H80 C101 0.929 . S
H81 C110 0.930 . S
H82 C102 0.931 . S
O83 Co59 2.097 . S
O83 C111 1.214 . S
H84 C112 0.929 . S
H85 C113 0.929 . S
H86 C114 0.930 . S
H87 C115 0.929 . S
H88 C117 0.930 . S
H89 C94 0.930 . S
H90 C98 0.930 . S
O91 Co60 2.037 . S
O91 C111 1.234 . S
C92 O66 1.269 . S
C92 O67 1.257 . S
C93 H68 0.930 . S
C93 C96 1.388 . S
C93 C98 1.418 . S
C94 H89 0.930 . S
C94 C97 1.404 . S
C94 C98 1.353 . S
N95 Co60 2.145 . S
N95 C96 1.397 . S
N95 C97 1.334 . S
C96 H77 0.929 . S
C96 C93 1.388 . S
C96 N95 1.397 . S
C97 H78 0.929 . S
C97 C94 1.404 . S
C97 N95 1.334 . S
C98 H90 0.930 . S
C98 C93 1.418 . S
C98 C94 1.353 . S
C99 H69 0.930 . S
C99 N100 1.330 . S
C99 C101 1.446 . S
N100 Co59 2.151 . S
N100 C99 1.330 . S
N100 C104 1.418 . S
C101 H80 0.929 . S
C101 C99 1.446 . S
C101 C102 1.332 . S
C102 H82 0.931 . S
C102 C101 1.332 . S
C102 C103 1.267 . S
C103 H71 0.929 . S
C103 C102 1.267 . S
C103 C104 1.251 . S
C104 H74 0.929 . S
C104 N100 1.418 . S
C104 C103 1.251 . S
C105 H72 0.930 . S
C105 C107 1.406 . S
C105 C110 1.261 . S
C106 H73 0.930 . S
C106 N108 1.325 . S
C106 C109 1.357 . S
C107 H75 0.928 . S
C107 C105 1.406 . S
C107 N108 1.261 . S
N108 Co59 2.214 . S
N108 C106 1.325 . S
N108 C107 1.261 . S
C109 H79 0.931 . S
C109 C106 1.357 . S
C109 C110 1.312 . S
C110 H81 0.930 . S
C110 C105 1.261 . S
C110 C109 1.312 . S
C111 O83 1.214 . S
C111 O91 1.234 . S
C112 H84 0.929 . S
C112 C115 1.391 . S
C112 C117 1.391 . S
C113 H85 0.929 . S
C113 C114 1.390 . S
C113 N116 1.391 . S
C114 H86 0.930 . S
C114 C113 1.390 . S
C114 C115 1.392 . S
C115 H87 0.929 . S
C115 C112 1.391 . S
C115 C114 1.392 . S
N116 Co60 2.257 . S
N116 C113 1.391 . S
N116 C117 1.388 . S
C117 H88 0.930 . S
C117 C112 1.391 . S
C117 N116 1.388 . S
Co118 O120 2.143 . S
Co118 O126 2.074 . S
Co118 O129 2.093 . S
Co118 O142 2.097 . S
Co118 N159 2.151 . S
Co118 N167 2.214 . S
Co119 O120 2.160 . S
Co119 O125 2.058 . S
Co119 O135 2.057 . S
Co119 O150 2.037 . S
Co119 N154 2.145 . S
Co119 N175 2.257 . S
O120 Co118 2.143 . S
O120 Co119 2.160 . S
C121 O122 1.278 . S
C121 O129 1.224 . S
O122 C121 1.278 . S
C123 O124 1.245 . S
C123 O135 1.232 . S
O124 C123 1.245 . S
O125 Co119 2.058 . S
O125 C151 1.269 . S
O126 Co118 2.074 . S
O126 C151 1.257 . S
H127 C152 0.930 . S
H128 C158 0.930 . S
O129 Co118 2.093 . S
O129 C121 1.224 . S
H130 C162 0.929 . S
H131 C164 0.930 . S
H132 C165 0.930 . S
H133 C163 0.929 . S
H134 C166 0.928 . S
O135 Co119 2.057 . S
O135 C123 1.232 . S
H136 C155 0.929 . S
H137 C156 0.929 . S
H138 C168 0.931 . S
H139 C160 0.929 . S
H140 C169 0.930 . S
H141 C161 0.931 . S
O142 Co118 2.097 . S
O142 C170 1.214 . S
H143 C171 0.929 . S
H144 C172 0.929 . S
H145 C173 0.930 . S
H146 C174 0.929 . S
H147 C176 0.930 . S
H148 C153 0.930 . S
H149 C157 0.930 . S
O150 Co119 2.037 . S
O150 C170 1.234 . S
C151 O125 1.269 . S
C151 O126 1.257 . S
C152 H127 0.930 . S
C152 C155 1.388 . S
C152 C157 1.418 . S
C153 H148 0.930 . S
C153 C156 1.404 . S
C153 C157 1.353 . S
N154 Co119 2.145 . S
N154 C155 1.397 . S
N154 C156 1.334 . S
C155 H136 0.929 . S
C155 C152 1.388 . S
C155 N154 1.397 . S
C156 H137 0.929 . S
C156 C153 1.404 . S
C156 N154 1.334 . S
C157 H149 0.930 . S
C157 C152 1.418 . S
C157 C153 1.353 . S
C158 H128 0.930 . S
C158 N159 1.330 . S
C158 C160 1.446 . S
N159 Co118 2.151 . S
N159 C158 1.330 . S
N159 C163 1.418 . S
C160 H139 0.929 . S
C160 C158 1.446 . S
C160 C161 1.332 . S
C161 H141 0.931 . S
C161 C160 1.332 . S
C161 C162 1.267 . S
C162 H130 0.929 . S
C162 C161 1.267 . S
C162 C163 1.251 . S
C163 H133 0.929 . S
C163 N159 1.418 . S
C163 C162 1.251 . S
C164 H131 0.930 . S
C164 C166 1.406 . S
C164 C169 1.261 . S
C165 H132 0.930 . S
C165 N167 1.325 . S
C165 C168 1.357 . S
C166 H134 0.928 . S
C166 C164 1.406 . S
C166 N167 1.261 . S
N167 Co118 2.214 . S
N167 C165 1.325 . S
N167 C166 1.261 . S
C168 H138 0.931 . S
C168 C165 1.357 . S
C168 C169 1.312 . S
C169 H140 0.930 . S
C169 C164 1.261 . S
C169 C168 1.312 . S
C170 O142 1.214 . S
C170 O150 1.234 . S
C171 H143 0.929 . S
C171 C174 1.391 . S
C171 C176 1.391 . S
C172 H144 0.929 . S
C172 C173 1.390 . S
C172 N175 1.391 . S
C173 H145 0.930 . S
C173 C172 1.390 . S
C173 C174 1.392 . S
C174 H146 0.929 . S
C174 C171 1.391 . S
C174 C173 1.392 . S
N175 Co119 2.257 . S
N175 C172 1.391 . S
N175 C176 1.388 . S
C176 H147 0.930 . S
C176 C171 1.391 . S
C176 N175 1.388 . S
Co177 O179 2.143 . S
Co177 O185 2.074 . S
Co177 O188 2.093 . S
Co177 O201 2.097 1_554 S
Co177 N218 2.151 . S
Co177 N226 2.214 1_554 S
Co178 O179 2.160 . S
Co178 O184 2.058 . S
Co178 O194 2.057 . S
Co178 O209 2.037 . S
Co178 N213 2.145 . S
Co178 N234 2.257 . S
O179 Co177 2.143 . S
O179 Co178 2.160 . S
C180 O181 1.278 . S
C180 O188 1.224 . S
O181 C180 1.278 . S
C182 O183 1.245 . S
C182 O194 1.232 . S
O183 C182 1.245 . S
O184 Co178 2.058 . S
O184 C210 1.269 . S
O185 Co177 2.074 . S
O185 C210 1.257 . S
H186 C211 0.930 . S
H187 C217 0.930 . S
O188 Co177 2.093 . S
O188 C180 1.224 . S
H189 C221 0.929 . S
H190 C223 0.930 . S
H191 C224 0.930 . S
H192 C222 0.929 . S
H193 C225 0.928 . S
O194 Co178 2.057 . S
O194 C182 1.232 . S
H195 C214 0.929 . S
H196 C215 0.929 . S
H197 C227 0.931 . S
H198 C219 0.929 . S
H199 C228 0.930 . S
H200 C220 0.931 . S
O201 Co177 2.097 1_556 S
O201 C229 1.214 . S
H202 C230 0.929 . S
H203 C231 0.929 . S
H204 C232 0.930 . S
H205 C233 0.929 . S
H206 C235 0.930 . S
H207 C212 0.930 . S
H208 C216 0.930 . S
O209 Co178 2.037 . S
O209 C229 1.234 1_554 S
C210 O184 1.269 . S
C210 O185 1.257 . S
C211 H186 0.930 . S
C211 C214 1.388 . S
C211 C216 1.418 . S
C212 H207 0.930 . S
C212 C215 1.404 . S
C212 C216 1.353 . S
N213 Co178 2.145 . S
N213 C214 1.397 . S
N213 C215 1.334 . S
C214 H195 0.929 . S
C214 C211 1.388 . S
C214 N213 1.397 . S
C215 H196 0.929 . S
C215 C212 1.404 . S
C215 N213 1.334 . S
C216 H208 0.930 . S
C216 C211 1.418 . S
C216 C212 1.353 . S
C217 H187 0.930 . S
C217 N218 1.330 . S
C217 C219 1.446 . S
N218 Co177 2.151 . S
N218 C217 1.330 . S
N218 C222 1.418 . S
C219 H198 0.929 . S
C219 C217 1.446 . S
C219 C220 1.332 . S
C220 H200 0.931 . S
C220 C219 1.332 . S
C220 C221 1.267 . S
C221 H189 0.929 . S
C221 C220 1.267 . S
C221 C222 1.251 . S
C222 H192 0.929 . S
C222 N218 1.418 . S
C222 C221 1.251 . S
C223 H190 0.930 . S
C223 C225 1.406 . S
C223 C228 1.261 . S
C224 H191 0.930 . S
C224 N226 1.325 . S
C224 C227 1.357 . S
C225 H193 0.928 . S
C225 C223 1.406 . S
C225 N226 1.261 . S
N226 Co177 2.214 1_556 S
N226 C224 1.325 . S
N226 C225 1.261 . S
C227 H197 0.931 . S
C227 C224 1.357 . S
C227 C228 1.312 . S
C228 H199 0.930 . S
C228 C223 1.261 . S
C228 C227 1.312 . S
C229 O201 1.214 . S
C229 O209 1.234 1_556 S
C230 H202 0.929 . S
C230 C233 1.391 . S
C230 C235 1.391 . S
C231 H203 0.929 . S
C231 C232 1.390 . S
C231 N234 1.391 . S
C232 H204 0.930 . S
C232 C231 1.390 . S
C232 C233 1.392 . S
C233 H205 0.929 . S
C233 C230 1.391 . S
C233 C232 1.392 . S
N234 Co178 2.257 . S
N234 C231 1.391 . S
N234 C235 1.388 . S
C235 H206 0.930 . S
C235 C230 1.391 . S
C235 N234 1.388 . S
Co236 O238 2.143 . S
Co236 O244 2.074 . S
Co236 O247 2.093 . S
Co236 O260 2.097 . S
Co236 N277 2.151 . S
Co236 N285 2.214 . S
Co237 O238 2.160 . S
Co237 O243 2.058 . S
Co237 O253 2.057 . S
Co237 O268 2.037 . S
Co237 N272 2.145 . S
Co237 N293 2.257 . S
O238 Co236 2.143 . S
O238 Co237 2.160 . S
C239 O240 1.278 . S
C239 O247 1.224 . S
O240 C239 1.278 . S
C241 O242 1.245 . S
C241 O253 1.232 . S
O242 C241 1.245 . S
O243 Co237 2.058 . S
O243 C269 1.269 . S
O244 Co236 2.074 . S
O244 C269 1.257 . S
H245 C270 0.930 . S
H246 C276 0.930 . S
O247 Co236 2.093 . S
O247 C239 1.224 . S
H248 C280 0.929 . S
H249 C282 0.930 . S
H250 C283 0.930 . S
H251 C281 0.929 . S
H252 C284 0.928 . S
O253 Co237 2.057 . S
O253 C241 1.232 . S
H254 C273 0.929 . S
H255 C274 0.929 . S
H256 C286 0.931 . S
H257 C278 0.929 . S
H258 C287 0.930 . S
H259 C279 0.931 . S
O260 Co236 2.097 . S
O260 C288 1.214 . S
H261 C289 0.929 . S
H262 C290 0.929 . S
H263 C291 0.930 . S
H264 C292 0.929 . S
H265 C294 0.930 . S
H266 C271 0.930 . S
H267 C275 0.930 . S
O268 Co237 2.037 . S
O268 C288 1.234 . S
C269 O243 1.269 . S
C269 O244 1.257 . S
C270 H245 0.930 . S
C270 C273 1.388 . S
C270 C275 1.418 . S
C271 H266 0.930 . S
C271 C274 1.404 . S
C271 C275 1.353 . S
N272 Co237 2.145 . S
N272 C273 1.397 . S
N272 C274 1.334 . S
C273 H254 0.929 . S
C273 C270 1.388 . S
C273 N272 1.397 . S
C274 H255 0.929 . S
C274 C271 1.404 . S
C274 N272 1.334 . S
C275 H267 0.930 . S
C275 C270 1.418 . S
C275 C271 1.353 . S
C276 H246 0.930 . S
C276 N277 1.330 . S
C276 C278 1.446 . S
N277 Co236 2.151 . S
N277 C276 1.330 . S
N277 C281 1.418 . S
C278 H257 0.929 . S
C278 C276 1.446 . S
C278 C279 1.332 . S
C279 H259 0.931 . S
C279 C278 1.332 . S
C279 C280 1.267 . S
C280 H248 0.929 . S
C280 C279 1.267 . S
C280 C281 1.251 . S
C281 H251 0.929 . S
C281 N277 1.418 . S
C281 C280 1.251 . S
C282 H249 0.930 . S
C282 C284 1.406 . S
C282 C287 1.261 . S
C283 H250 0.930 . S
C283 N285 1.325 . S
C283 C286 1.357 . S
C284 H252 0.928 . S
C284 C282 1.406 . S
C284 N285 1.261 . S
N285 Co236 2.214 . S
N285 C283 1.325 . S
N285 C284 1.261 . S
C286 H256 0.931 . S
C286 C283 1.357 . S
C286 C287 1.312 . S
C287 H258 0.930 . S
C287 C282 1.261 . S
C287 C286 1.312 . S
C288 O260 1.214 . S
C288 O268 1.234 . S
C289 H261 0.929 . S
C289 C292 1.391 . S
C289 C294 1.391 . S
C290 H262 0.929 . S
C290 C291 1.390 . S
C290 N293 1.391 . S
C291 H263 0.930 . S
C291 C290 1.390 . S
C291 C292 1.392 . S
C292 H264 0.929 . S
C292 C289 1.391 . S
C292 C291 1.392 . S
N293 Co237 2.257 . S
N293 C290 1.391 . S
N293 C294 1.388 . S
C294 H265 0.930 . S
C294 C289 1.391 . S
C294 N293 1.388 . S
Co295 O297 2.143 . S
Co295 O303 2.074 . S
Co295 O306 2.093 . S
Co295 O319 2.097 . S
Co295 N336 2.151 . S
Co295 N344 2.214 . S
Co296 O297 2.160 . S
Co296 O302 2.058 . S
Co296 O312 2.057 . S
Co296 O327 2.037 . S
Co296 N331 2.145 . S
Co296 N352 2.257 . S
O297 Co295 2.143 . S
O297 Co296 2.160 . S
C298 O299 1.278 . S
C298 O306 1.224 . S
O299 C298 1.278 . S
C300 O301 1.245 . S
C300 O312 1.232 . S
O301 C300 1.245 . S
O302 Co296 2.058 . S
O302 C328 1.269 . S
O303 Co295 2.074 . S
O303 C328 1.257 . S
H304 C329 0.930 . S
H305 C335 0.930 . S
O306 Co295 2.093 . S
O306 C298 1.224 . S
H307 C339 0.929 . S
H308 C341 0.930 . S
H309 C342 0.930 . S
H310 C340 0.929 . S
H311 C343 0.928 . S
O312 Co296 2.057 . S
O312 C300 1.232 . S
H313 C332 0.929 . S
H314 C333 0.929 . S
H315 C345 0.931 . S
H316 C337 0.929 . S
H317 C346 0.930 . S
H318 C338 0.931 . S
O319 Co295 2.097 . S
O319 C347 1.214 . S
H320 C348 0.929 . S
H321 C349 0.929 . S
H322 C350 0.930 . S
H323 C351 0.929 . S
H324 C353 0.930 . S
H325 C330 0.930 . S
H326 C334 0.930 . S
O327 Co296 2.037 . S
O327 C347 1.234 . S
C328 O302 1.269 . S
C328 O303 1.257 . S
C329 H304 0.930 . S
C329 C332 1.388 . S
C329 C334 1.418 . S
C330 H325 0.930 . S
C330 C333 1.404 . S
C330 C334 1.353 . S
N331 Co296 2.145 . S
N331 C332 1.397 . S
N331 C333 1.334 . S
C332 H313 0.929 . S
C332 C329 1.388 . S
C332 N331 1.397 . S
C333 H314 0.929 . S
C333 C330 1.404 . S
C333 N331 1.334 . S
C334 H326 0.930 . S
C334 C329 1.418 . S
C334 C330 1.353 . S
C335 H305 0.930 . S
C335 N336 1.330 . S
C335 C337 1.446 . S
N336 Co295 2.151 . S
N336 C335 1.330 . S
N336 C340 1.418 . S
C337 H316 0.929 . S
C337 C335 1.446 . S
C337 C338 1.332 . S
C338 H318 0.931 . S
C338 C337 1.332 . S
C338 C339 1.267 . S
C339 H307 0.929 . S
C339 C338 1.267 . S
C339 C340 1.251 . S
C340 H310 0.929 . S
C340 N336 1.418 . S
C340 C339 1.251 . S
C341 H308 0.930 . S
C341 C343 1.406 . S
C341 C346 1.261 . S
C342 H309 0.930 . S
C342 N344 1.325 . S
C342 C345 1.357 . S
C343 H311 0.928 . S
C343 C341 1.406 . S
C343 N344 1.261 . S
N344 Co295 2.214 . S
N344 C342 1.325 . S
N344 C343 1.261 . S
C345 H315 0.931 . S
C345 C342 1.357 . S
C345 C346 1.312 . S
C346 H317 0.930 . S
C346 C341 1.261 . S
C346 C345 1.312 . S
C347 O319 1.214 . S
C347 O327 1.234 . S
C348 H320 0.929 . S
C348 C351 1.391 . S
C348 C353 1.391 . S
C349 H321 0.929 . S
C349 C350 1.390 . S
C349 N352 1.391 . S
C350 H322 0.930 . S
C350 C349 1.390 . S
C350 C351 1.392 . S
C351 H323 0.929 . S
C351 C348 1.391 . S
C351 C350 1.392 . S
N352 Co296 2.257 . S
N352 C349 1.391 . S
N352 C353 1.388 . S
C353 H324 0.930 . S
C353 C348 1.391 . S
C353 N352 1.388 . S
Co354 O356 2.143 . S
Co354 O362 2.074 . S
Co354 O365 2.093 . S
Co354 O378 2.097 . S
Co354 N395 2.151 . S
Co354 N403 2.214 . S
Co355 O356 2.160 . S
Co355 O361 2.058 . S
Co355 O371 2.057 . S
Co355 O386 2.037 . S
Co355 N390 2.145 . S
Co355 N411 2.257 . S
O356 Co354 2.143 . S
O356 Co355 2.160 . S
C357 O358 1.278 . S
C357 O365 1.224 . S
O358 C357 1.278 . S
C359 O360 1.245 . S
C359 O371 1.232 . S
O360 C359 1.245 . S
O361 Co355 2.058 . S
O361 C387 1.269 . S
O362 Co354 2.074 . S
O362 C387 1.257 . S
H363 C388 0.930 . S
H364 C394 0.930 . S
O365 Co354 2.093 . S
O365 C357 1.224 . S
H366 C398 0.929 . S
H367 C400 0.930 . S
H368 C401 0.930 . S
H369 C399 0.929 . S
H370 C402 0.928 . S
O371 Co355 2.057 . S
O371 C359 1.232 . S
H372 C391 0.929 . S
H373 C392 0.929 . S
H374 C404 0.931 . S
H375 C396 0.929 . S
H376 C405 0.930 . S
H377 C397 0.931 . S
O378 Co354 2.097 . S
O378 C406 1.214 . S
H379 C407 0.929 . S
H380 C408 0.929 . S
H381 C409 0.930 . S
H382 C410 0.929 . S
H383 C412 0.930 . S
H384 C389 0.930 . S
H385 C393 0.930 . S
O386 Co355 2.037 . S
O386 C406 1.234 . S
C387 O361 1.269 . S
C387 O362 1.257 . S
C388 H363 0.930 . S
C388 C391 1.388 . S
C388 C393 1.418 . S
C389 H384 0.930 . S
C389 C392 1.404 . S
C389 C393 1.353 . S
N390 Co355 2.145 . S
N390 C391 1.397 . S
N390 C392 1.334 . S
C391 H372 0.929 . S
C391 C388 1.388 . S
C391 N390 1.397 . S
C392 H373 0.929 . S
C392 C389 1.404 . S
C392 N390 1.334 . S
C393 H385 0.930 . S
C393 C388 1.418 . S
C393 C389 1.353 . S
C394 H364 0.930 . S
C394 N395 1.330 . S
C394 C396 1.446 . S
N395 Co354 2.151 . S
N395 C394 1.330 . S
N395 C399 1.418 . S
C396 H375 0.929 . S
C396 C394 1.446 . S
C396 C397 1.332 . S
C397 H377 0.931 . S
C397 C396 1.332 . S
C397 C398 1.267 . S
C398 H366 0.929 . S
C398 C397 1.267 . S
C398 C399 1.251 . S
C399 H369 0.929 . S
C399 N395 1.418 . S
C399 C398 1.251 . S
C400 H367 0.930 . S
C400 C402 1.406 . S
C400 C405 1.261 . S
C401 H368 0.930 . S
C401 N403 1.325 . S
C401 C404 1.357 . S
C402 H370 0.928 . S
C402 C400 1.406 . S
C402 N403 1.261 . S
N403 Co354 2.214 . S
N403 C401 1.325 . S
N403 C402 1.261 . S
C404 H374 0.931 . S
C404 C401 1.357 . S
C404 C405 1.312 . S
C405 H376 0.930 . S
C405 C400 1.261 . S
C405 C404 1.312 . S
C406 O378 1.214 . S
C406 O386 1.234 . S
C407 H379 0.929 . S
C407 C410 1.391 . S
C407 C412 1.391 . S
C408 H380 0.929 . S
C408 C409 1.390 . S
C408 N411 1.391 . S
C409 H381 0.930 . S
C409 C408 1.390 . S
C409 C410 1.392 . S
C410 H382 0.929 . S
C410 C407 1.391 . S
C410 C409 1.392 . S
N411 Co355 2.257 . S
N411 C408 1.391 . S
N411 C412 1.388 . S
C412 H383 0.930 . S
C412 C407 1.391 . S
C412 N411 1.388 . S
Co413 O415 2.143 . S
Co413 O421 2.074 . S
Co413 O424 2.093 . S
Co413 O437 2.097 1_556 S
Co413 N454 2.151 . S
Co413 N462 2.214 1_556 S
Co414 O415 2.160 . S
Co414 O420 2.058 . S
Co414 O430 2.057 . S
Co414 O445 2.037 . S
Co414 N449 2.145 . S
Co414 N470 2.257 . S
O415 Co413 2.143 . S
O415 Co414 2.160 . S
C416 O417 1.278 . S
C416 O424 1.224 . S
O417 C416 1.278 . S
C418 O419 1.245 . S
C418 O430 1.232 . S
O419 C418 1.245 . S
O420 Co414 2.058 . S
O420 C446 1.269 . S
O421 Co413 2.074 . S
O421 C446 1.257 . S
H422 C447 0.930 . S
H423 C453 0.930 . S
O424 Co413 2.093 . S
O424 C416 1.224 . S
H425 C457 0.929 . S
H426 C459 0.930 . S
H427 C460 0.930 . S
H428 C458 0.929 . S
H429 C461 0.928 . S
O430 Co414 2.057 . S
O430 C418 1.232 . S
H431 C450 0.929 . S
H432 C451 0.929 . S
H433 C463 0.931 . S
H434 C455 0.929 . S
H435 C464 0.930 . S
H436 C456 0.931 . S
O437 Co413 2.097 1_554 S
O437 C465 1.214 . S
H438 C466 0.929 . S
H439 C467 0.929 . S
H440 C468 0.930 . S
H441 C469 0.929 . S
H442 C471 0.930 . S
H443 C448 0.930 . S
H444 C452 0.930 . S
O445 Co414 2.037 . S
O445 C465 1.234 1_556 S
C446 O420 1.269 . S
C446 O421 1.257 . S
C447 H422 0.930 . S
C447 C450 1.388 . S
C447 C452 1.418 . S
C448 H443 0.930 . S
C448 C451 1.404 . S
C448 C452 1.353 . S
N449 Co414 2.145 . S
N449 C450 1.397 . S
N449 C451 1.334 . S
C450 H431 0.929 . S
C450 C447 1.388 . S
C450 N449 1.397 . S
C451 H432 0.929 . S
C451 C448 1.404 . S
C451 N449 1.334 . S
C452 H444 0.930 . S
C452 C447 1.418 . S
C452 C448 1.353 . S
C453 H423 0.930 . S
C453 N454 1.330 . S
C453 C455 1.446 . S
N454 Co413 2.151 . S
N454 C453 1.330 . S
N454 C458 1.418 . S
C455 H434 0.929 . S
C455 C453 1.446 . S
C455 C456 1.332 . S
C456 H436 0.931 . S
C456 C455 1.332 . S
C456 C457 1.267 . S
C457 H425 0.929 . S
C457 C456 1.267 . S
C457 C458 1.251 . S
C458 H428 0.929 . S
C458 N454 1.418 . S
C458 C457 1.251 . S
C459 H426 0.930 . S
C459 C461 1.406 . S
C459 C464 1.261 . S
C460 H427 0.930 . S
C460 N462 1.325 . S
C460 C463 1.357 . S
C461 H429 0.928 . S
C461 C459 1.406 . S
C461 N462 1.261 . S
N462 Co413 2.214 1_554 S
N462 C460 1.325 . S
N462 C461 1.261 . S
C463 H433 0.931 . S
C463 C460 1.357 . S
C463 C464 1.312 . S
C464 H435 0.930 . S
C464 C459 1.261 . S
C464 C463 1.312 . S
C465 O437 1.214 . S
C465 O445 1.234 1_554 S
C466 H438 0.929 . S
C466 C469 1.391 . S
C466 C471 1.391 . S
C467 H439 0.929 . S
C467 C468 1.390 . S
C467 N470 1.391 . S
C468 H440 0.930 . S
C468 C467 1.390 . S
C468 C469 1.392 . S
C469 H441 0.929 . S
C469 C466 1.391 . S
C469 C468 1.392 . S
N470 Co414 2.257 . S
N470 C467 1.391 . S
N470 C471 1.388 . S
C471 H442 0.930 . S
C471 C466 1.391 . S
C471 N470 1.388 . S
Co472 O474 2.143 . S
Co472 O480 2.074 . S
Co472 O483 2.093 . S
Co472 O496 2.097 . S
Co472 N513 2.151 . S
Co472 N521 2.214 . S
Co473 O474 2.160 . S
Co473 O479 2.058 . S
Co473 O489 2.057 . S
Co473 O504 2.037 . S
Co473 N508 2.145 . S
Co473 N529 2.257 . S
O474 Co472 2.143 . S
O474 Co473 2.160 . S
C475 O476 1.278 . S
C475 O483 1.224 . S
O476 C475 1.278 . S
C477 O478 1.245 . S
C477 O489 1.232 . S
O478 C477 1.245 . S
O479 Co473 2.058 . S
O479 C505 1.269 . S
O480 Co472 2.074 . S
O480 C505 1.257 . S
H481 C506 0.930 . S
H482 C512 0.930 . S
O483 Co472 2.093 . S
O483 C475 1.224 . S
H484 C516 0.929 . S
H485 C518 0.930 . S
H486 C519 0.930 . S
H487 C517 0.929 . S
H488 C520 0.928 . S
O489 Co473 2.057 . S
O489 C477 1.232 . S
H490 C509 0.929 . S
H491 C510 0.929 . S
H492 C522 0.931 . S
H493 C514 0.929 . S
H494 C523 0.930 . S
H495 C515 0.931 . S
O496 Co472 2.097 . S
O496 C524 1.214 . S
H497 C525 0.929 . S
H498 C526 0.929 . S
H499 C527 0.930 . S
H500 C528 0.929 . S
H501 C530 0.930 . S
H502 C507 0.930 . S
H503 C511 0.930 . S
O504 Co473 2.037 . S
O504 C524 1.234 . S
C505 O479 1.269 . S
C505 O480 1.257 . S
C506 H481 0.930 . S
C506 C509 1.388 . S
C506 C511 1.418 . S
C507 H502 0.930 . S
C507 C510 1.404 . S
C507 C511 1.353 . S
N508 Co473 2.145 . S
N508 C509 1.397 . S
N508 C510 1.334 . S
C509 H490 0.929 . S
C509 C506 1.388 . S
C509 N508 1.397 . S
C510 H491 0.929 . S
C510 C507 1.404 . S
C510 N508 1.334 . S
C511 H503 0.930 . S
C511 C506 1.418 . S
C511 C507 1.353 . S
C512 H482 0.930 . S
C512 N513 1.330 . S
C512 C514 1.446 . S
N513 Co472 2.151 . S
N513 C512 1.330 . S
N513 C517 1.418 . S
C514 H493 0.929 . S
C514 C512 1.446 . S
C514 C515 1.332 . S
C515 H495 0.931 . S
C515 C514 1.332 . S
C515 C516 1.267 . S
C516 H484 0.929 . S
C516 C515 1.267 . S
C516 C517 1.251 . S
C517 H487 0.929 . S
C517 N513 1.418 . S
C517 C516 1.251 . S
C518 H485 0.930 . S
C518 C520 1.406 . S
C518 C523 1.261 . S
C519 H486 0.930 . S
C519 N521 1.325 . S
C519 C522 1.357 . S
C520 H488 0.928 . S
C520 C518 1.406 . S
C520 N521 1.261 . S
N521 Co472 2.214 . S
N521 C519 1.325 . S
N521 C520 1.261 . S
C522 H492 0.931 . S
C522 C519 1.357 . S
C522 C523 1.312 . S
C523 H494 0.930 . S
C523 C518 1.261 . S
C523 C522 1.312 . S
C524 O496 1.214 . S
C524 O504 1.234 . S
C525 H497 0.929 . S
C525 C528 1.391 . S
C525 C530 1.391 . S
C526 H498 0.929 . S
C526 C527 1.390 . S
C526 N529 1.391 . S
C527 H499 0.930 . S
C527 C526 1.390 . S
C527 C528 1.392 . S
C528 H500 0.929 . S
C528 C525 1.391 . S
C528 C527 1.392 . S
N529 Co473 2.257 . S
N529 C526 1.391 . S
N529 C530 1.388 . S
C530 H501 0.930 . S
C530 C525 1.391 . S
C530 N529 1.388 . S
Co531 O533 2.143 . S
Co531 O539 2.074 . S
Co531 O542 2.093 . S
Co531 O555 2.097 . S
Co531 N572 2.151 . S
Co531 N580 2.214 . S
Co532 O533 2.160 . S
Co532 O538 2.058 . S
Co532 O548 2.057 . S
Co532 O563 2.037 . S
Co532 N567 2.145 . S
Co532 N588 2.257 . S
O533 Co531 2.143 . S
O533 Co532 2.160 . S
C534 O535 1.278 . S
C534 O542 1.224 . S
O535 C534 1.278 . S
C536 O537 1.245 . S
C536 O548 1.232 . S
O537 C536 1.245 . S
O538 Co532 2.058 . S
O538 C564 1.269 . S
O539 Co531 2.074 . S
O539 C564 1.257 . S
H540 C565 0.930 . S
H541 C571 0.930 . S
O542 Co531 2.093 . S
O542 C534 1.224 . S
H543 C575 0.929 . S
H544 C577 0.930 . S
H545 C578 0.930 . S
H546 C576 0.929 . S
H547 C579 0.928 . S
O548 Co532 2.057 . S
O548 C536 1.232 . S
H549 C568 0.929 . S
H550 C569 0.929 . S
H551 C581 0.931 . S
H552 C573 0.929 . S
H553 C582 0.930 . S
H554 C574 0.931 . S
O555 Co531 2.097 . S
O555 C583 1.214 . S
H556 C584 0.929 . S
H557 C585 0.929 . S
H558 C586 0.930 . S
H559 C587 0.929 . S
H560 C589 0.930 . S
H561 C566 0.930 . S
H562 C570 0.930 . S
O563 Co532 2.037 . S
O563 C583 1.234 . S
C564 O538 1.269 . S
C564 O539 1.257 . S
C565 H540 0.930 . S
C565 C568 1.388 . S
C565 C570 1.418 . S
C566 H561 0.930 . S
C566 C569 1.404 . S
C566 C570 1.353 . S
N567 Co532 2.145 . S
N567 C568 1.397 . S
N567 C569 1.334 . S
C568 H549 0.929 . S
C568 C565 1.388 . S
C568 N567 1.397 . S
C569 H550 0.929 . S
C569 C566 1.404 . S
C569 N567 1.334 . S
C570 H562 0.930 . S
C570 C565 1.418 . S
C570 C566 1.353 . S
C571 H541 0.930 . S
C571 N572 1.330 . S
C571 C573 1.446 . S
N572 Co531 2.151 . S
N572 C571 1.330 . S
N572 C576 1.418 . S
C573 H552 0.929 . S
C573 C571 1.446 . S
C573 C574 1.332 . S
C574 H554 0.931 . S
C574 C573 1.332 . S
C574 C575 1.267 . S
C575 H543 0.929 . S
C575 C574 1.267 . S
C575 C576 1.251 . S
C576 H546 0.929 . S
C576 N572 1.418 . S
C576 C575 1.251 . S
C577 H544 0.930 . S
C577 C579 1.406 . S
C577 C582 1.261 . S
C578 H545 0.930 . S
C578 N580 1.325 . S
C578 C581 1.357 . S
C579 H547 0.928 . S
C579 C577 1.406 . S
C579 N580 1.261 . S
N580 Co531 2.214 . S
N580 C578 1.325 . S
N580 C579 1.261 . S
C581 H551 0.931 . S
C581 C578 1.357 . S
C581 C582 1.312 . S
C582 H553 0.930 . S
C582 C577 1.261 . S
C582 C581 1.312 . S
C583 O555 1.214 . S
C583 O563 1.234 . S
C584 H556 0.929 . S
C584 C587 1.391 . S
C584 C589 1.391 . S
C585 H557 0.929 . S
C585 C586 1.390 . S
C585 N588 1.391 . S
C586 H558 0.930 . S
C586 C585 1.390 . S
C586 C587 1.392 . S
C587 H559 0.929 . S
C587 C584 1.391 . S
C587 C586 1.392 . S
N588 Co532 2.257 . S
N588 C585 1.391 . S
N588 C589 1.388 . S
C589 H560 0.930 . S
C589 C584 1.391 . S
C589 N588 1.388 . S
Co590 O592 2.143 . S
Co590 O598 2.074 . S
Co590 O601 2.093 . S
Co590 O614 2.097 1_556 S
Co590 N631 2.151 . S
Co590 N639 2.214 1_556 S
Co591 O592 2.160 . S
Co591 O597 2.058 . S
Co591 O607 2.057 . S
Co591 O622 2.037 . S
Co591 N626 2.145 . S
Co591 N647 2.257 . S
O592 Co590 2.143 . S
O592 Co591 2.160 . S
C593 O594 1.278 . S
C593 O601 1.224 . S
O594 C593 1.278 . S
C595 O596 1.245 . S
C595 O607 1.232 . S
O596 C595 1.245 . S
O597 Co591 2.058 . S
O597 C623 1.269 . S
O598 Co590 2.074 . S
O598 C623 1.257 . S
H599 C624 0.930 . S
H600 C630 0.930 . S
O601 Co590 2.093 . S
O601 C593 1.224 . S
H602 C634 0.929 . S
H603 C636 0.930 . S
H604 C637 0.930 . S
H605 C635 0.929 . S
H606 C638 0.928 . S
O607 Co591 2.057 . S
O607 C595 1.232 . S
H608 C627 0.929 . S
H609 C628 0.929 . S
H610 C640 0.931 . S
H611 C632 0.929 . S
H612 C641 0.930 . S
H613 C633 0.931 . S
O614 Co590 2.097 1_554 S
O614 C642 1.214 . S
H615 C643 0.929 . S
H616 C644 0.929 . S
H617 C645 0.930 . S
H618 C646 0.929 . S
H619 C648 0.930 . S
H620 C625 0.930 . S
H621 C629 0.930 . S
O622 Co591 2.037 . S
O622 C642 1.234 1_556 S
C623 O597 1.269 . S
C623 O598 1.257 . S
C624 H599 0.930 . S
C624 C627 1.388 . S
C624 C629 1.418 . S
C625 H620 0.930 . S
C625 C628 1.404 . S
C625 C629 1.353 . S
N626 Co591 2.145 . S
N626 C627 1.397 . S
N626 C628 1.334 . S
C627 H608 0.929 . S
C627 C624 1.388 . S
C627 N626 1.397 . S
C628 H609 0.929 . S
C628 C625 1.404 . S
C628 N626 1.334 . S
C629 H621 0.930 . S
C629 C624 1.418 . S
C629 C625 1.353 . S
C630 H600 0.930 . S
C630 N631 1.330 . S
C630 C632 1.446 . S
N631 Co590 2.151 . S
N631 C630 1.330 . S
N631 C635 1.418 . S
C632 H611 0.929 . S
C632 C630 1.446 . S
C632 C633 1.332 . S
C633 H613 0.931 . S
C633 C632 1.332 . S
C633 C634 1.267 . S
C634 H602 0.929 . S
C634 C633 1.267 . S
C634 C635 1.251 . S
C635 H605 0.929 . S
C635 N631 1.418 . S
C635 C634 1.251 . S
C636 H603 0.930 . S
C636 C638 1.406 . S
C636 C641 1.261 . S
C637 H604 0.930 . S
C637 N639 1.325 . S
C637 C640 1.357 . S
C638 H606 0.928 . S
C638 C636 1.406 . S
C638 N639 1.261 . S
N639 Co590 2.214 1_554 S
N639 C637 1.325 . S
N639 C638 1.261 . S
C640 H610 0.931 . S
C640 C637 1.357 . S
C640 C641 1.312 . S
C641 H612 0.930 . S
C641 C636 1.261 . S
C641 C640 1.312 . S
C642 O614 1.214 . S
C642 O622 1.234 1_554 S
C643 H615 0.929 . S
C643 C646 1.391 . S
C643 C648 1.391 . S
C644 H616 0.929 . S
C644 C645 1.390 . S
C644 N647 1.391 . S
C645 H617 0.930 . S
C645 C644 1.390 . S
C645 C646 1.392 . S
C646 H618 0.929 . S
C646 C643 1.391 . S
C646 C645 1.392 . S
N647 Co591 2.257 . S
N647 C644 1.391 . S
N647 C648 1.388 . S
C648 H619 0.930 . S
C648 C643 1.391 . S
C648 N647 1.388 . S
Co649 O651 2.143 . S
Co649 O657 2.074 . S
Co649 O660 2.093 . S
Co649 O673 2.097 . S
Co649 N690 2.151 . S
Co649 N698 2.214 . S
Co650 O651 2.160 . S
Co650 O656 2.058 . S
Co650 O666 2.057 . S
Co650 O681 2.037 . S
Co650 N685 2.145 . S
Co650 N706 2.257 . S
O651 Co649 2.143 . S
O651 Co650 2.160 . S
C652 O653 1.278 . S
C652 O660 1.224 . S
O653 C652 1.278 . S
C654 O655 1.245 . S
C654 O666 1.232 . S
O655 C654 1.245 . S
O656 Co650 2.058 . S
O656 C682 1.269 . S
O657 Co649 2.074 . S
O657 C682 1.257 . S
H658 C683 0.930 . S
H659 C689 0.930 . S
O660 Co649 2.093 . S
O660 C652 1.224 . S
H661 C693 0.929 . S
H662 C695 0.930 . S
H663 C696 0.930 . S
H664 C694 0.929 . S
H665 C697 0.928 . S
O666 Co650 2.057 . S
O666 C654 1.232 . S
H667 C686 0.929 . S
H668 C687 0.929 . S
H669 C699 0.931 . S
H670 C691 0.929 . S
H671 C700 0.930 . S
H672 C692 0.931 . S
O673 Co649 2.097 . S
O673 C701 1.214 . S
H674 C702 0.929 . S
H675 C703 0.929 . S
H676 C704 0.930 . S
H677 C705 0.929 . S
H678 C707 0.930 . S
H679 C684 0.930 . S
H680 C688 0.930 . S
O681 Co650 2.037 . S
O681 C701 1.234 . S
C682 O656 1.269 . S
C682 O657 1.257 . S
C683 H658 0.930 . S
C683 C686 1.388 . S
C683 C688 1.418 . S
C684 H679 0.930 . S
C684 C687 1.404 . S
C684 C688 1.353 . S
N685 Co650 2.145 . S
N685 C686 1.397 . S
N685 C687 1.334 . S
C686 H667 0.929 . S
C686 C683 1.388 . S
C686 N685 1.397 . S
C687 H668 0.929 . S
C687 C684 1.404 . S
C687 N685 1.334 . S
C688 H680 0.930 . S
C688 C683 1.418 . S
C688 C684 1.353 . S
C689 H659 0.930 . S
C689 N690 1.330 . S
C689 C691 1.446 . S
N690 Co649 2.151 . S
N690 C689 1.330 . S
N690 C694 1.418 . S
C691 H670 0.929 . S
C691 C689 1.446 . S
C691 C692 1.332 . S
C692 H672 0.931 . S
C692 C691 1.332 . S
C692 C693 1.267 . S
C693 H661 0.929 . S
C693 C692 1.267 . S
C693 C694 1.251 . S
C694 H664 0.929 . S
C694 N690 1.418 . S
C694 C693 1.251 . S
C695 H662 0.930 . S
C695 C697 1.406 . S
C695 C700 1.261 . S
C696 H663 0.930 . S
C696 N698 1.325 . S
C696 C699 1.357 . S
C697 H665 0.928 . S
C697 C695 1.406 . S
C697 N698 1.261 . S
N698 Co649 2.214 . S
N698 C696 1.325 . S
N698 C697 1.261 . S
C699 H669 0.931 . S
C699 C696 1.357 . S
C699 C700 1.312 . S
C700 H671 0.930 . S
C700 C695 1.261 . S
C700 C699 1.312 . S
C701 O673 1.214 . S
C701 O681 1.234 . S
C702 H674 0.929 . S
C702 C705 1.391 . S
C702 C707 1.391 . S
C703 H675 0.929 . S
C703 C704 1.390 . S
C703 N706 1.391 . S
C704 H676 0.930 . S
C704 C703 1.390 . S
C704 C705 1.392 . S
C705 H677 0.929 . S
C705 C702 1.391 . S
C705 C704 1.392 . S
N706 Co650 2.257 . S
N706 C703 1.391 . S
N706 C707 1.388 . S
C707 H678 0.930 . S
C707 C702 1.391 . S
C707 N706 1.388 . S
C708 C709 1.349 . S
C708 C710 1.327 . S
C708 H733 0.950 . S
C709 C708 1.349 . S
C709 C725 1.349 . S
C710 C708 1.327 . S
C710 C729 1.429 . S
C710 H734 0.950 . S
C711 C728 1.574 . S
C711 C730 1.368 . S
C711 H735 0.949 . S
H712 C716 0.949 . S
C713 C714 1.349 . S
C713 C715 1.327 . S
C713 H736 0.950 . S
C714 C713 1.349 . S
C714 C726 1.349 . S
C715 C713 1.327 . S
C715 C731 1.429 . S
C715 H737 0.950 . S
C716 H712 0.949 . S
C716 C724 1.574 . S
C716 C732 1.368 . S
H717 C725 0.950 . S
H718 C723 0.950 . S
H719 C724 0.949 . S
H720 C726 0.950 . S
H721 C727 0.950 . S
H722 C728 0.949 . S
C723 H718 0.950 . S
C723 C725 1.327 . S
C723 C729 1.429 . S
C724 C716 1.574 . S
C724 H719 0.949 . S
C724 C730 1.368 . S
C725 C709 1.349 . S
C725 H717 0.950 . S
C725 C723 1.327 . S
C726 C714 1.349 . S
C726 H720 0.950 . S
C726 C727 1.327 . S
C727 H721 0.950 . S
C727 C726 1.327 . S
C727 C731 1.429 . S
C728 C711 1.574 . S
C728 H722 0.949 . S
C728 C732 1.368 . S
C729 C710 1.429 . S
C729 C723 1.429 . S
C729 C730 1.523 . S
C730 C711 1.368 . S
C730 C724 1.368 . S
C730 C729 1.523 . S
C731 C715 1.429 . S
C731 C727 1.429 . S
C731 C732 1.523 . S
C732 C716 1.368 . S
C732 C728 1.368 . S
C732 C731 1.523 . S
H733 C708 0.950 . S
H734 C710 0.950 . S
H735 C711 0.949 . S
H736 C713 0.950 . S
H737 C715 0.950 . S
C738 C739 1.349 . S
C738 C740 1.327 . S
C738 H763 0.950 . S
C739 C738 1.349 . S
C739 C755 1.349 . S
C740 C738 1.327 . S
C740 C759 1.429 . S
C740 H764 0.950 . S
C741 C758 1.574 . S
C741 C760 1.368 . S
C741 H765 0.949 . S
H742 C746 0.949 . S
C743 C744 1.349 . S
C743 C745 1.327 . S
C743 H766 0.950 . S
C744 C743 1.349 . S
C744 C756 1.349 . S
C745 C743 1.327 . S
C745 C761 1.429 . S
C745 H767 0.950 . S
C746 H742 0.949 . S
C746 C754 1.574 . S
C746 C762 1.368 . S
H747 C755 0.950 . S
H748 C753 0.950 . S
H749 C754 0.949 . S
H750 C756 0.950 . S
H751 C757 0.950 . S
H752 C758 0.949 . S
C753 H748 0.950 . S
C753 C755 1.327 . S
C753 C759 1.429 . S
C754 C746 1.574 . S
C754 H749 0.949 . S
C754 C760 1.368 . S
C755 C739 1.349 . S
C755 H747 0.950 . S
C755 C753 1.327 . S
C756 C744 1.349 . S
C756 H750 0.950 . S
C756 C757 1.327 . S
C757 H751 0.950 . S
C757 C756 1.327 . S
C757 C761 1.429 . S
C758 C741 1.574 . S
C758 H752 0.949 . S
C758 C762 1.368 . S
C759 C740 1.429 . S
C759 C753 1.429 . S
C759 C760 1.523 . S
C760 C741 1.368 . S
C760 C754 1.368 . S
C760 C759 1.523 . S
C761 C745 1.429 . S
C761 C757 1.429 . S
C761 C762 1.523 . S
C762 C746 1.368 . S
C762 C758 1.368 . S
C762 C761 1.523 . S
H763 C738 0.950 . S
H764 C740 0.950 . S
H765 C741 0.949 . S
H766 C743 0.950 . S
H767 C745 0.950 . S
C768 C769 1.349 . S
C768 C770 1.327 . S
C768 H793 0.950 . S
C769 C768 1.349 . S
C769 C785 1.349 . S
C770 C768 1.327 . S
C770 C789 1.429 . S
C770 H794 0.950 . S
C771 C788 1.574 1_556 S
C771 C790 1.368 . S
C771 H795 0.949 . S
H772 C776 0.949 . S
C773 C774 1.349 . S
C773 C775 1.327 . S
C773 H796 0.950 . S
C774 C773 1.349 . S
C774 C786 1.349 . S
C775 C773 1.327 . S
C775 C791 1.429 . S
C775 H797 0.950 . S
C776 H772 0.949 . S
C776 C784 1.574 1_554 S
C776 C792 1.368 . S
H777 C785 0.950 . S
H778 C783 0.950 . S
H779 C784 0.949 . S
H780 C786 0.950 . S
H781 C787 0.950 . S
H782 C788 0.949 . S
C783 H778 0.950 . S
C783 C785 1.327 . S
C783 C789 1.429 . S
C784 C776 1.574 1_556 S
C784 H779 0.949 . S
C784 C790 1.368 . S
C785 C769 1.349 . S
C785 H777 0.950 . S
C785 C783 1.327 . S
C786 C774 1.349 . S
C786 H780 0.950 . S
C786 C787 1.327 . S
C787 H781 0.950 . S
C787 C786 1.327 . S
C787 C791 1.429 . S
C788 C771 1.574 1_554 S
C788 H782 0.949 . S
C788 C792 1.368 . S
C789 C770 1.429 . S
C789 C783 1.429 . S
C789 C790 1.523 . S
C790 C771 1.368 . S
C790 C784 1.368 . S
C790 C789 1.523 . S
C791 C775 1.429 . S
C791 C787 1.429 . S
C791 C792 1.523 . S
C792 C776 1.368 . S
C792 C788 1.368 . S
C792 C791 1.523 . S
H793 C768 0.950 . S
H794 C770 0.950 . S
H795 C771 0.949 . S
H796 C773 0.950 . S
H797 C775 0.950 . S
C798 C799 1.349 . S
C798 C800 1.327 . S
C798 H823 0.950 . S
C799 C798 1.349 . S
C799 C815 1.349 . S
C800 C798 1.327 . S
C800 C819 1.429 . S
C800 H824 0.950 . S
C801 C818 1.574 . S
C801 C820 1.368 . S
C801 H825 0.949 . S
H802 C806 0.949 . S
C803 C804 1.349 . S
C803 C805 1.327 . S
C803 H826 0.950 . S
C804 C803 1.349 . S
C804 C816 1.349 . S
C805 C803 1.327 . S
C805 C821 1.429 . S
C805 H827 0.950 . S
C806 H802 0.949 . S
C806 C814 1.574 . S
C806 C822 1.368 . S
H807 C815 0.950 . S
H808 C813 0.950 . S
H809 C814 0.949 . S
H810 C816 0.950 . S
H811 C817 0.950 . S
H812 C818 0.949 . S
C813 H808 0.950 . S
C813 C815 1.327 . S
C813 C819 1.429 . S
C814 C806 1.574 . S
C814 H809 0.949 . S
C814 C820 1.368 . S
C815 C799 1.349 . S
C815 H807 0.950 . S
C815 C813 1.327 . S
C816 C804 1.349 . S
C816 H810 0.950 . S
C816 C817 1.327 . S
C817 H811 0.950 . S
C817 C816 1.327 . S
C817 C821 1.429 . S
C818 C801 1.574 . S
C818 H812 0.949 . S
C818 C822 1.368 . S
C819 C800 1.429 . S
C819 C813 1.429 . S
C819 C820 1.523 . S
C820 C801 1.368 . S
C820 C814 1.368 . S
C820 C819 1.523 . S
C821 C805 1.429 . S
C821 C817 1.429 . S
C821 C822 1.523 . S
C822 C806 1.368 . S
C822 C818 1.368 . S
C822 C821 1.523 . S
H823 C798 0.950 . S
H824 C800 0.950 . S
H825 C801 0.949 . S
H826 C803 0.950 . S
H827 C805 0.950 . S
C828 C829 1.349 . S
C828 C830 1.327 . S
C828 H853 0.950 . S
C829 C828 1.349 . S
C829 C845 1.349 . S
C830 C828 1.327 . S
C830 C849 1.429 . S
C830 H854 0.950 . S
C831 C848 1.574 . S
C831 C850 1.368 . S
C831 H855 0.949 . S
H832 C836 0.949 . S
C833 C834 1.349 . S
C833 C835 1.327 . S
C833 H856 0.950 . S
C834 C833 1.349 . S
C834 C846 1.349 . S
C835 C833 1.327 . S
C835 C851 1.429 . S
C835 H857 0.950 . S
C836 H832 0.949 . S
C836 C844 1.574 . S
C836 C852 1.368 . S
H837 C845 0.950 . S
H838 C843 0.950 . S
H839 C844 0.949 . S
H840 C846 0.950 . S
H841 C847 0.950 . S
H842 C848 0.949 . S
C843 H838 0.950 . S
C843 C845 1.327 . S
C843 C849 1.429 . S
C844 C836 1.574 . S
C844 H839 0.949 . S
C844 C850 1.368 . S
C845 C829 1.349 . S
C845 H837 0.950 . S
C845 C843 1.327 . S
C846 C834 1.349 . S
C846 H840 0.950 . S
C846 C847 1.327 . S
C847 H841 0.950 . S
C847 C846 1.327 . S
C847 C851 1.429 . S
C848 C831 1.574 . S
C848 H842 0.949 . S
C848 C852 1.368 . S
C849 C830 1.429 . S
C849 C843 1.429 . S
C849 C850 1.523 . S
C850 C831 1.368 . S
C850 C844 1.368 . S
C850 C849 1.523 . S
C851 C835 1.429 . S
C851 C847 1.429 . S
C851 C852 1.523 . S
C852 C836 1.368 . S
C852 C848 1.368 . S
C852 C851 1.523 . S
H853 C828 0.950 . S
H854 C830 0.950 . S
H855 C831 0.949 . S
H856 C833 0.950 . S
H857 C835 0.950 . S
C858 C859 1.349 . S
C858 C860 1.327 . S
C858 H883 0.950 . S
C859 C858 1.349 . S
C859 C875 1.349 . S
C860 C858 1.327 . S
C860 C879 1.429 . S
C860 H884 0.950 . S
C861 C878 1.574 1_554 S
C861 C880 1.368 . S
C861 H885 0.949 . S
H862 C866 0.949 . S
C863 C864 1.349 . S
C863 C865 1.327 . S
C863 H886 0.950 . S
C864 C863 1.349 . S
C864 C876 1.349 . S
C865 C863 1.327 . S
C865 C881 1.429 . S
C865 H887 0.950 . S
C866 H862 0.949 . S
C866 C874 1.574 1_556 S
C866 C882 1.368 . S
H867 C875 0.950 . S
H868 C873 0.950 . S
H869 C874 0.949 . S
H870 C876 0.950 . S
H871 C877 0.950 . S
H872 C878 0.949 . S
C873 H868 0.950 . S
C873 C875 1.327 . S
C873 C879 1.429 . S
C874 C866 1.574 1_554 S
C874 H869 0.949 . S
C874 C880 1.368 . S
C875 C859 1.349 . S
C875 H867 0.950 . S
C875 C873 1.327 . S
C876 C864 1.349 . S
C876 H870 0.950 . S
C876 C877 1.327 . S
C877 H871 0.950 . S
C877 C876 1.327 . S
C877 C881 1.429 . S
C878 C861 1.574 1_556 S
C878 H872 0.949 . S
C878 C882 1.368 . S
C879 C860 1.429 . S
C879 C873 1.429 . S
C879 C880 1.523 . S
C880 C861 1.368 . S
C880 C874 1.368 . S
C880 C879 1.523 . S
C881 C865 1.429 . S
C881 C877 1.429 . S
C881 C882 1.523 . S
C882 C866 1.368 . S
C882 C878 1.368 . S
C882 C881 1.523 . S
H883 C858 0.950 . S
H884 C860 0.950 . S
H885 C861 0.949 . S
H886 C863 0.950 . S
H887 C865 0.950 . S
C888 C889 1.349 . S
C888 C890 1.327 . S
C888 H913 0.950 . S
C889 C888 1.349 . S
C889 C905 1.349 . S
C890 C888 1.327 . S
C890 C909 1.429 . S
C890 H914 0.950 . S
C891 C908 1.574 . S
C891 C910 1.368 1_556 S
C891 H915 0.949 . S
H892 C896 0.949 . S
C893 C894 1.349 . S
C893 C895 1.327 . S
C893 H916 0.950 . S
C894 C893 1.349 . S
C894 C906 1.349 . S
C895 C893 1.327 . S
C895 C911 1.429 . S
C895 H917 0.950 . S
C896 H892 0.949 . S
C896 C904 1.574 . S
C896 C912 1.368 1_554 S
H897 C905 0.950 . S
H898 C903 0.950 1_556 S
H899 C904 0.949 . S
H900 C906 0.950 . S
H901 C907 0.950 1_554 S
H902 C908 0.949 . S
C903 H898 0.950 1_554 S
C903 C905 1.327 . S
C903 C909 1.429 . S
C904 C896 1.574 . S
C904 H899 0.949 . S
C904 C910 1.368 . S
C905 C889 1.349 . S
C905 H897 0.950 . S
C905 C903 1.327 . S
C906 C894 1.349 . S
C906 H900 0.950 . S
C906 C907 1.327 . S
C907 H901 0.950 1_556 S
C907 C906 1.327 . S
C907 C911 1.429 . S
C908 C891 1.574 . S
C908 H902 0.949 . S
C908 C912 1.368 . S
C909 C890 1.429 . S
C909 C903 1.429 . S
C909 C910 1.523 . S
C910 C891 1.368 1_554 S
C910 C904 1.368 . S
C910 C909 1.523 . S
C911 C895 1.429 . S
C911 C907 1.429 . S
C911 C912 1.523 . S
C912 C896 1.368 1_556 S
C912 C908 1.368 . S
C912 C911 1.523 . S
H913 C888 0.950 . S
H914 C890 0.950 . S
H915 C891 0.949 . S
H916 C893 0.950 . S
H917 C895 0.950 . S
C918 C919 1.349 . S
C918 C920 1.327 . S
C918 H943 0.950 . S
C919 C918 1.349 . S
C919 C935 1.349 . S
C920 C918 1.327 . S
C920 C939 1.429 . S
C920 H944 0.950 . S
C921 C938 1.574 . S
C921 C940 1.368 . S
C921 H945 0.949 . S
H922 C926 0.949 . S
C923 C924 1.349 . S
C923 C925 1.327 . S
C923 H946 0.950 . S
C924 C923 1.349 . S
C924 C936 1.349 . S
C925 C923 1.327 . S
C925 C941 1.429 . S
C925 H947 0.950 . S
C926 H922 0.949 . S
C926 C934 1.574 . S
C926 C942 1.368 . S
H927 C935 0.950 . S
H928 C933 0.950 . S
H929 C934 0.949 . S
H930 C936 0.950 . S
H931 C937 0.950 . S
H932 C938 0.949 . S
C933 H928 0.950 . S
C933 C935 1.327 . S
C933 C939 1.429 . S
C934 C926 1.574 . S
C934 H929 0.949 . S
C934 C940 1.368 . S
C935 C919 1.349 . S
C935 H927 0.950 . S
C935 C933 1.327 . S
C936 C924 1.349 . S
C936 H930 0.950 . S
C936 C937 1.327 . S
C937 H931 0.950 . S
C937 C936 1.327 . S
C937 C941 1.429 . S
C938 C921 1.574 . S
C938 H932 0.949 . S
C938 C942 1.368 . S
C939 C920 1.429 . S
C939 C933 1.429 . S
C939 C940 1.523 . S
C940 C921 1.368 . S
C940 C934 1.368 . S
C940 C939 1.523 . S
C941 C925 1.429 . S
C941 C937 1.429 . S
C941 C942 1.523 . S
C942 C926 1.368 . S
C942 C938 1.368 . S
C942 C941 1.523 . S
H943 C918 0.950 . S
H944 C920 0.950 . S
H945 C921 0.949 . S
H946 C923 0.950 . S
H947 C925 0.950 . S
C948 C949 1.349 . S
C948 C950 1.327 . S
C948 H973 0.950 . S
C949 C948 1.349 . S
C949 C965 1.349 . S
C950 C948 1.327 . S
C950 C969 1.429 . S
C950 H974 0.950 . S
C951 C968 1.574 . S
C951 C970 1.368 . S
C951 H975 0.949 . S
H952 C956 0.949 . S
C953 C954 1.349 . S
C953 C955 1.327 . S
C953 H976 0.950 . S
C954 C953 1.349 . S
C954 C966 1.349 . S
C955 C953 1.327 . S
C955 C971 1.429 . S
C955 H977 0.950 . S
C956 H952 0.949 . S
C956 C964 1.574 . S
C956 C972 1.368 . S
H957 C965 0.950 . S
H958 C963 0.950 . S
H959 C964 0.949 . S
H960 C966 0.950 . S
H961 C967 0.950 . S
H962 C968 0.949 . S
C963 H958 0.950 . S
C963 C965 1.327 . S
C963 C969 1.429 . S
C964 C956 1.574 . S
C964 H959 0.949 . S
C964 C970 1.368 . S
C965 C949 1.349 . S
C965 H957 0.950 . S
C965 C963 1.327 . S
C966 C954 1.349 . S
C966 H960 0.950 . S
C966 C967 1.327 . S
C967 H961 0.950 . S
C967 C966 1.327 . S
C967 C971 1.429 . S
C968 C951 1.574 . S
C968 H962 0.949 . S
C968 C972 1.368 . S
C969 C950 1.429 . S
C969 C963 1.429 . S
C969 C970 1.523 . S
C970 C951 1.368 . S
C970 C964 1.368 . S
C970 C969 1.523 . S
C971 C955 1.429 . S
C971 C967 1.429 . S
C971 C972 1.523 . S
C972 C956 1.368 . S
C972 C968 1.368 . S
C972 C971 1.523 . S
H973 C948 0.950 . S
H974 C950 0.950 . S
H975 C951 0.949 . S
H976 C953 0.950 . S
H977 C955 0.950 . S
C978 C979 1.349 . S
C978 C980 1.327 . S
C978 H1003 0.950 . S
C979 C978 1.349 . S
C979 C995 1.349 . S
C980 C978 1.327 . S
C980 C999 1.429 . S
C980 H1004 0.950 . S
C981 C998 1.574 . S
C981 C1000 1.368 1_556 S
C981 H1005 0.949 . S
H982 C986 0.949 . S
C983 C984 1.349 . S
C983 C985 1.327 . S
C983 H1006 0.950 . S
C984 C983 1.349 . S
C984 C996 1.349 . S
C985 C983 1.327 . S
C985 C1001 1.429 . S
C985 H1007 0.950 . S
C986 H982 0.949 . S
C986 C994 1.574 . S
C986 C1002 1.368 1_554 S
H987 C995 0.950 . S
H988 C993 0.950 1_556 S
H989 C994 0.949 . S
H990 C996 0.950 . S
H991 C997 0.950 1_554 S
H992 C998 0.949 . S
C993 H988 0.950 1_554 S
C993 C995 1.327 . S
C993 C999 1.429 . S
C994 C986 1.574 . S
C994 H989 0.949 . S
C994 C1000 1.368 . S
C995 C979 1.349 . S
C995 H987 0.950 . S
C995 C993 1.327 . S
C996 C984 1.349 . S
C996 H990 0.950 . S
C996 C997 1.327 . S
C997 H991 0.950 1_556 S
C997 C996 1.327 . S
C997 C1001 1.429 . S
C998 C981 1.574 . S
C998 H992 0.949 . S
C998 C1002 1.368 . S
C999 C980 1.429 . S
C999 C993 1.429 . S
C999 C1000 1.523 . S
C1000 C981 1.368 1_554 S
C1000 C994 1.368 . S
C1000 C999 1.523 . S
C1001 C985 1.429 . S
C1001 C997 1.429 . S
C1001 C1002 1.523 . S
C1002 C986 1.368 1_556 S
C1002 C998 1.368 . S
C1002 C1001 1.523 . S
H1003 C978 0.950 . S
H1004 C980 0.950 . S
H1005 C981 0.949 . S
H1006 C983 0.950 . S
H1007 C985 0.950 . S
C1008 C1009 1.349 . S
C1008 C1010 1.327 . S
C1008 H1033 0.950 . S
C1009 C1008 1.349 . S
C1009 C1025 1.349 . S
C1010 C1008 1.327 . S
C1010 C1029 1.429 . S
C1010 H1034 0.950 . S
C1011 C1028 1.574 . S
C1011 C1030 1.368 . S
C1011 H1035 0.949 . S
H1012 C1016 0.949 . S
C1013 C1014 1.349 . S
C1013 C1015 1.327 . S
C1013 H1036 0.950 . S
C1014 C1013 1.349 . S
C1014 C1026 1.349 . S
C1015 C1013 1.327 . S
C1015 C1031 1.429 . S
C1015 H1037 0.950 . S
C1016 H1012 0.949 . S
C1016 C1024 1.574 . S
C1016 C1032 1.368 . S
H1017 C1025 0.950 . S
H1018 C1023 0.950 . S
H1019 C1024 0.949 . S
H1020 C1026 0.950 . S
H1021 C1027 0.950 . S
H1022 C1028 0.949 . S
C1023 H1018 0.950 . S
C1023 C1025 1.327 . S
C1023 C1029 1.429 . S
C1024 C1016 1.574 . S
C1024 H1019 0.949 . S
C1024 C1030 1.368 . S
C1025 C1009 1.349 . S
C1025 H1017 0.950 . S
C1025 C1023 1.327 . S
C1026 C1014 1.349 . S
C1026 H1020 0.950 . S
C1026 C1027 1.327 . S
C1027 H1021 0.950 . S
C1027 C1026 1.327 . S
C1027 C1031 1.429 . S
C1028 C1011 1.574 . S
C1028 H1022 0.949 . S
C1028 C1032 1.368 . S
C1029 C1010 1.429 . S
C1029 C1023 1.429 . S
C1029 C1030 1.523 . S
C1030 C1011 1.368 . S
C1030 C1024 1.368 . S
C1030 C1029 1.523 . S
C1031 C1015 1.429 . S
C1031 C1027 1.429 . S
C1031 C1032 1.523 . S
C1032 C1016 1.368 . S
C1032 C1028 1.368 . S
C1032 C1031 1.523 . S
H1033 C1008 0.950 . S
H1034 C1010 0.950 . S
H1035 C1011 0.949 . S
H1036 C1013 0.950 . S
H1037 C1015 0.950 . S
C1038 C1039 1.349 . S
C1038 C1040 1.327 . S
C1038 H1063 0.950 . S
C1039 C1038 1.349 . S
C1039 C1055 1.349 . S
C1040 C1038 1.327 . S
C1040 C1059 1.429 . S
C1040 H1064 0.950 . S
C1041 C1058 1.574 . S
C1041 C1060 1.368 . S
C1041 H1065 0.949 . S
H1042 C1046 0.949 . S
C1043 C1044 1.349 . S
C1043 C1045 1.327 . S
C1043 H1066 0.950 . S
C1044 C1043 1.349 . S
C1044 C1056 1.349 . S
C1045 C1043 1.327 . S
C1045 C1061 1.429 . S
C1045 H1067 0.950 . S
C1046 H1042 0.949 . S
C1046 C1054 1.574 . S
C1046 C1062 1.368 . S
H1047 C1055 0.950 . S
H1048 C1053 0.950 . S
H1049 C1054 0.949 . S
H1050 C1056 0.950 . S
H1051 C1057 0.950 . S
H1052 C1058 0.949 . S
C1053 H1048 0.950 . S
C1053 C1055 1.327 . S
C1053 C1059 1.429 . S
C1054 C1046 1.574 . S
C1054 H1049 0.949 . S
C1054 C1060 1.368 . S
C1055 C1039 1.349 . S
C1055 H1047 0.950 . S
C1055 C1053 1.327 . S
C1056 C1044 1.349 . S
C1056 H1050 0.950 . S
C1056 C1057 1.327 . S
C1057 H1051 0.950 . S
C1057 C1056 1.327 . S
C1057 C1061 1.429 . S
C1058 C1041 1.574 . S
C1058 H1052 0.949 . S
C1058 C1062 1.368 . S
C1059 C1040 1.429 . S
C1059 C1053 1.429 . S
C1059 C1060 1.523 . S
C1060 C1041 1.368 . S
C1060 C1054 1.368 . S
C1060 C1059 1.523 . S
C1061 C1045 1.429 . S
C1061 C1057 1.429 . S
C1061 C1062 1.523 . S
C1062 C1046 1.368 . S
C1062 C1058 1.368 . S
C1062 C1061 1.523 . S
H1063 C1038 0.950 . S
H1064 C1040 0.950 . S
H1065 C1041 0.949 . S
H1066 C1043 0.950 . S
H1067 C1045 0.950 . S
C1068 C1069 1.349 . S
C1068 C1070 1.327 . S
C1068 H1093 0.950 . S
C1069 C1068 1.349 . S
C1069 C1085 1.349 . S
C1070 C1068 1.327 . S
C1070 C1089 1.429 . S
C1070 H1094 0.950 . S
C1071 C1088 1.574 . S
C1071 C1090 1.368 . S
C1071 H1095 0.949 . S
H1072 C1076 0.949 . S
C1073 C1074 1.349 . S
C1073 C1075 1.327 . S
C1073 H1096 0.950 . S
C1074 C1073 1.349 . S
C1074 C1086 1.349 . S
C1075 C1073 1.327 . S
C1075 C1091 1.429 . S
C1075 H1097 0.950 . S
C1076 H1072 0.949 . S
C1076 C1084 1.574 . S
C1076 C1092 1.368 . S
H1077 C1085 0.950 . S
H1078 C1083 0.950 . S
H1079 C1084 0.949 . S
H1080 C1086 0.950 . S
H1081 C1087 0.950 . S
H1082 C1088 0.949 . S
C1083 H1078 0.950 . S
C1083 C1085 1.327 . S
C1083 C1089 1.429 . S
C1084 C1076 1.574 . S
C1084 H1079 0.949 . S
C1084 C1090 1.368 . S
C1085 C1069 1.349 . S
C1085 H1077 0.950 . S
C1085 C1083 1.327 . S
C1086 C1074 1.349 . S
C1086 H1080 0.950 . S
C1086 C1087 1.327 . S
C1087 H1081 0.950 . S
C1087 C1086 1.327 . S
C1087 C1091 1.429 . S
C1088 C1071 1.574 . S
C1088 H1082 0.949 . S
C1088 C1092 1.368 . S
C1089 C1070 1.429 . S
C1089 C1083 1.429 . S
C1089 C1090 1.523 . S
C1090 C1071 1.368 . S
C1090 C1084 1.368 . S
C1090 C1089 1.523 . S
C1091 C1075 1.429 . S
C1091 C1087 1.429 . S
C1091 C1092 1.523 . S
C1092 C1076 1.368 . S
C1092 C1088 1.368 . S
C1092 C1091 1.523 . S
H1093 C1068 0.950 . S
H1094 C1070 0.950 . S
H1095 C1071 0.949 . S
H1096 C1073 0.950 . S
H1097 C1075 0.950 . S
C1098 C1099 1.349 . S
C1098 C1100 1.327 . S
C1098 H1123 0.950 . S
C1099 C1098 1.349 . S
C1099 C1115 1.349 . S
C1100 C1098 1.327 . S
C1100 C1119 1.429 . S
C1100 H1124 0.950 . S
C1101 C1118 1.574 1_655 S
C1101 C1120 1.368 . S
C1101 H1125 0.949 . S
H1102 C1106 0.949 . S
C1103 C1104 1.349 . S
C1103 C1105 1.327 . S
C1103 H1126 0.950 . S
C1104 C1103 1.349 . S
C1104 C1116 1.349 . S
C1105 C1103 1.327 . S
C1105 C1121 1.429 . S
C1105 H1127 0.950 . S
C1106 H1102 0.949 . S
C1106 C1114 1.574 1_455 S
C1106 C1122 1.368 . S
H1107 C1115 0.950 . S
H1108 C1113 0.950 . S
H1109 C1114 0.949 . S
H1110 C1116 0.950 . S
H1111 C1117 0.950 . S
H1112 C1118 0.949 . S
C1113 H1108 0.950 . S
C1113 C1115 1.327 . S
C1113 C1119 1.429 . S
C1114 C1106 1.574 1_655 S
C1114 H1109 0.949 . S
C1114 C1120 1.368 . S
C1115 C1099 1.349 . S
C1115 H1107 0.950 . S
C1115 C1113 1.327 . S
C1116 C1104 1.349 . S
C1116 H1110 0.950 . S
C1116 C1117 1.327 . S
C1117 H1111 0.950 . S
C1117 C1116 1.327 . S
C1117 C1121 1.429 . S
C1118 C1101 1.574 1_455 S
C1118 H1112 0.949 . S
C1118 C1122 1.368 . S
C1119 C1100 1.429 . S
C1119 C1113 1.429 . S
C1119 C1120 1.523 . S
C1120 C1101 1.368 . S
C1120 C1114 1.368 . S
C1120 C1119 1.523 . S
C1121 C1105 1.429 . S
C1121 C1117 1.429 . S
C1121 C1122 1.523 . S
C1122 C1106 1.368 . S
C1122 C1118 1.368 . S
C1122 C1121 1.523 . S
H1123 C1098 0.950 . S
H1124 C1100 0.950 . S
H1125 C1101 0.949 . S
H1126 C1103 0.950 . S
H1127 C1105 0.950 . S
C1128 C1129 1.349 . S
C1128 C1130 1.327 . S
C1128 H1153 0.950 . S
C1129 C1128 1.349 . S
C1129 C1145 1.349 . S
C1130 C1128 1.327 . S
C1130 C1149 1.429 . S
C1130 H1154 0.950 . S
C1131 C1148 1.574 1_545 S
C1131 C1150 1.368 . S
C1131 H1155 0.949 . S
H1132 C1136 0.949 . S
C1133 C1134 1.349 . S
C1133 C1135 1.327 . S
C1133 H1156 0.950 . S
C1134 C1133 1.349 . S
C1134 C1146 1.349 . S
C1135 C1133 1.327 . S
C1135 C1151 1.429 . S
C1135 H1157 0.950 . S
C1136 H1132 0.949 . S
C1136 C1144 1.574 1_565 S
C1136 C1152 1.368 . S
H1137 C1145 0.950 . S
H1138 C1143 0.950 . S
H1139 C1144 0.949 . S
H1140 C1146 0.950 . S
H1141 C1147 0.950 . S
H1142 C1148 0.949 . S
C1143 H1138 0.950 . S
C1143 C1145 1.327 . S
C1143 C1149 1.429 . S
C1144 C1136 1.574 1_545 S
C1144 H1139 0.949 . S
C1144 C1150 1.368 . S
C1145 C1129 1.349 . S
C1145 H1137 0.950 . S
C1145 C1143 1.327 . S
C1146 C1134 1.349 . S
C1146 H1140 0.950 . S
C1146 C1147 1.327 . S
C1147 H1141 0.950 . S
C1147 C1146 1.327 . S
C1147 C1151 1.429 . S
C1148 C1131 1.574 1_565 S
C1148 H1142 0.949 . S
C1148 C1152 1.368 . S
C1149 C1130 1.429 . S
C1149 C1143 1.429 . S
C1149 C1150 1.523 . S
C1150 C1131 1.368 . S
C1150 C1144 1.368 . S
C1150 C1149 1.523 . S
C1151 C1135 1.429 . S
C1151 C1147 1.429 . S
C1151 C1152 1.523 . S
C1152 C1136 1.368 . S
C1152 C1148 1.368 . S
C1152 C1151 1.523 . S
H1153 C1128 0.950 . S
H1154 C1130 0.950 . S
H1155 C1131 0.949 . S
H1156 C1133 0.950 . S
H1157 C1135 0.950 . S
C1158 C1159 1.349 . S
C1158 C1160 1.327 . S
C1158 H1183 0.950 . S
C1159 C1158 1.349 . S
C1159 C1175 1.349 . S
C1160 C1158 1.327 . S
C1160 C1179 1.429 . S
C1160 H1184 0.950 . S
C1161 C1178 1.574 . S
C1161 C1180 1.368 . S
C1161 H1185 0.949 . S
H1162 C1166 0.949 . S
C1163 C1164 1.349 . S
C1163 C1165 1.327 . S
C1163 H1186 0.950 . S
C1164 C1163 1.349 . S
C1164 C1176 1.349 . S
C1165 C1163 1.327 . S
C1165 C1181 1.429 . S
C1165 H1187 0.950 . S
C1166 H1162 0.949 . S
C1166 C1174 1.574 . S
C1166 C1182 1.368 . S
H1167 C1175 0.950 . S
H1168 C1173 0.950 . S
H1169 C1174 0.949 . S
H1170 C1176 0.950 . S
H1171 C1177 0.950 . S
H1172 C1178 0.949 . S
C1173 H1168 0.950 . S
C1173 C1175 1.327 . S
C1173 C1179 1.429 . S
C1174 C1166 1.574 . S
C1174 H1169 0.949 . S
C1174 C1180 1.368 . S
C1175 C1159 1.349 . S
C1175 H1167 0.950 . S
C1175 C1173 1.327 . S
C1176 C1164 1.349 . S
C1176 H1170 0.950 . S
C1176 C1177 1.327 . S
C1177 H1171 0.950 . S
C1177 C1176 1.327 . S
C1177 C1181 1.429 . S
C1178 C1161 1.574 . S
C1178 H1172 0.949 . S
C1178 C1182 1.368 . S
C1179 C1160 1.429 . S
C1179 C1173 1.429 . S
C1179 C1180 1.523 . S
C1180 C1161 1.368 . S
C1180 C1174 1.368 . S
C1180 C1179 1.523 . S
C1181 C1165 1.429 . S
C1181 C1177 1.429 . S
C1181 C1182 1.523 . S
C1182 C1166 1.368 . S
C1182 C1178 1.368 . S
C1182 C1181 1.523 . S
H1183 C1158 0.950 . S
H1184 C1160 0.950 . S
H1185 C1161 0.949 . S
H1186 C1163 0.950 . S
H1187 C1165 0.950 . S
C1188 C1189 1.349 . S
C1188 C1190 1.327 . S
C1188 H1213 0.950 . S
C1189 C1188 1.349 . S
C1189 C1205 1.349 . S
C1190 C1188 1.327 . S
C1190 C1209 1.429 . S
C1190 H1214 0.950 . S
C1191 C1208 1.574 1_455 S
C1191 C1210 1.368 . S
C1191 H1215 0.949 . S
H1192 C1196 0.949 . S
C1193 C1194 1.349 . S
C1193 C1195 1.327 . S
C1193 H1216 0.950 . S
C1194 C1193 1.349 . S
C1194 C1206 1.349 . S
C1195 C1193 1.327 . S
C1195 C1211 1.429 . S
C1195 H1217 0.950 . S
C1196 H1192 0.949 . S
C1196 C1204 1.574 1_655 S
C1196 C1212 1.368 . S
H1197 C1205 0.950 . S
H1198 C1203 0.950 . S
H1199 C1204 0.949 . S
H1200 C1206 0.950 . S
H1201 C1207 0.950 . S
H1202 C1208 0.949 . S
C1203 H1198 0.950 . S
C1203 C1205 1.327 . S
C1203 C1209 1.429 . S
C1204 C1196 1.574 1_455 S
C1204 H1199 0.949 . S
C1204 C1210 1.368 . S
C1205 C1189 1.349 . S
C1205 H1197 0.950 . S
C1205 C1203 1.327 . S
C1206 C1194 1.349 . S
C1206 H1200 0.950 . S
C1206 C1207 1.327 . S
C1207 H1201 0.950 . S
C1207 C1206 1.327 . S
C1207 C1211 1.429 . S
C1208 C1191 1.574 1_655 S
C1208 H1202 0.949 . S
C1208 C1212 1.368 . S
C1209 C1190 1.429 . S
C1209 C1203 1.429 . S
C1209 C1210 1.523 . S
C1210 C1191 1.368 . S
C1210 C1204 1.368 . S
C1210 C1209 1.523 . S
C1211 C1195 1.429 . S
C1211 C1207 1.429 . S
C1211 C1212 1.523 . S
C1212 C1196 1.368 . S
C1212 C1208 1.368 . S
C1212 C1211 1.523 . S
H1213 C1188 0.950 . S
H1214 C1190 0.950 . S
H1215 C1191 0.949 . S
H1216 C1193 0.950 . S
H1217 C1195 0.950 . S
C1218 C1219 1.349 . S
C1218 C1220 1.327 . S
C1218 H1243 0.950 . S
C1219 C1218 1.349 . S
C1219 C1235 1.349 . S
C1220 C1218 1.327 . S
C1220 C1239 1.429 . S
C1220 H1244 0.950 . S
C1221 C1238 1.574 1_565 S
C1221 C1240 1.368 . S
C1221 H1245 0.949 . S
H1222 C1226 0.949 . S
C1223 C1224 1.349 . S
C1223 C1225 1.327 . S
C1223 H1246 0.950 . S
C1224 C1223 1.349 . S
C1224 C1236 1.349 . S
C1225 C1223 1.327 . S
C1225 C1241 1.429 . S
C1225 H1247 0.950 . S
C1226 H1222 0.949 . S
C1226 C1234 1.574 1_545 S
C1226 C1242 1.368 . S
H1227 C1235 0.950 . S
H1228 C1233 0.950 . S
H1229 C1234 0.949 . S
H1230 C1236 0.950 . S
H1231 C1237 0.950 . S
H1232 C1238 0.949 . S
C1233 H1228 0.950 . S
C1233 C1235 1.327 . S
C1233 C1239 1.429 . S
C1234 C1226 1.574 1_565 S
C1234 H1229 0.949 . S
C1234 C1240 1.368 . S
C1235 C1219 1.349 . S
C1235 H1227 0.950 . S
C1235 C1233 1.327 . S
C1236 C1224 1.349 . S
C1236 H1230 0.950 . S
C1236 C1237 1.327 . S
C1237 H1231 0.950 . S
C1237 C1236 1.327 . S
C1237 C1241 1.429 . S
C1238 C1221 1.574 1_545 S
C1238 H1232 0.949 . S
C1238 C1242 1.368 . S
C1239 C1220 1.429 . S
C1239 C1233 1.429 . S
C1239 C1240 1.523 . S
C1240 C1221 1.368 . S
C1240 C1234 1.368 . S
C1240 C1239 1.523 . S
C1241 C1225 1.429 . S
C1241 C1237 1.429 . S
C1241 C1242 1.523 . S
C1242 C1226 1.368 . S
C1242 C1238 1.368 . S
C1242 C1241 1.523 . S
H1243 C1218 0.950 . S
H1244 C1220 0.950 . S
H1245 C1221 0.949 . S
H1246 C1223 0.950 . S
H1247 C1225 0.950 . S
C1248 C1249 1.349 . S
C1248 C1250 1.327 . S
C1248 H1273 0.950 . S
C1249 C1248 1.349 . S
C1249 C1265 1.349 . S
C1250 C1248 1.327 . S
C1250 C1269 1.429 . S
C1250 H1274 0.950 . S
C1251 C1268 1.574 . S
C1251 C1270 1.368 . S
C1251 H1275 0.949 . S
H1252 C1256 0.949 . S
C1253 C1254 1.349 . S
C1253 C1255 1.327 . S
C1253 H1276 0.950 . S
C1254 C1253 1.349 . S
C1254 C1266 1.349 . S
C1255 C1253 1.327 . S
C1255 C1271 1.429 . S
C1255 H1277 0.950 . S
C1256 H1252 0.949 . S
C1256 C1264 1.574 . S
C1256 C1272 1.368 . S
H1257 C1265 0.950 . S
H1258 C1263 0.950 . S
H1259 C1264 0.949 . S
H1260 C1266 0.950 . S
H1261 C1267 0.950 . S
H1262 C1268 0.949 . S
C1263 H1258 0.950 . S
C1263 C1265 1.327 . S
C1263 C1269 1.429 . S
C1264 C1256 1.574 . S
C1264 H1259 0.949 . S
C1264 C1270 1.368 . S
C1265 C1249 1.349 . S
C1265 H1257 0.950 . S
C1265 C1263 1.327 . S
C1266 C1254 1.349 . S
C1266 H1260 0.950 . S
C1266 C1267 1.327 . S
C1267 H1261 0.950 . S
C1267 C1266 1.327 . S
C1267 C1271 1.429 . S
C1268 C1251 1.574 . S
C1268 H1262 0.949 . S
C1268 C1272 1.368 . S
C1269 C1250 1.429 . S
C1269 C1263 1.429 . S
C1269 C1270 1.523 . S
C1270 C1251 1.368 . S
C1270 C1264 1.368 . S
C1270 C1269 1.523 . S
C1271 C1255 1.429 . S
C1271 C1267 1.429 . S
C1271 C1272 1.523 . S
C1272 C1256 1.368 . S
C1272 C1268 1.368 . S
C1272 C1271 1.523 . S
H1273 C1248 0.950 . S
H1274 C1250 0.950 . S
H1275 C1251 0.949 . S
H1276 C1253 0.950 . S
H1277 C1255 0.950 . S
C1278 C1279 1.349 . S
C1278 C1280 1.327 . S
C1278 H1303 0.950 . S
C1279 C1278 1.349 . S
C1279 C1295 1.349 . S
C1280 C1278 1.327 . S
C1280 C1299 1.429 . S
C1280 H1304 0.950 . S
C1281 C1298 1.574 . S
C1281 C1300 1.368 . S
C1281 H1305 0.949 . S
H1282 C1286 0.949 . S
C1283 C1284 1.349 . S
C1283 C1285 1.327 . S
C1283 H1306 0.950 . S
C1284 C1283 1.349 . S
C1284 C1296 1.349 . S
C1285 C1283 1.327 . S
C1285 C1301 1.429 . S
C1285 H1307 0.950 . S
C1286 H1282 0.949 . S
C1286 C1294 1.574 . S
C1286 C1302 1.368 . S
H1287 C1295 0.950 . S
H1288 C1293 0.950 . S
H1289 C1294 0.949 . S
H1290 C1296 0.950 . S
H1291 C1297 0.950 . S
H1292 C1298 0.949 . S
C1293 H1288 0.950 . S
C1293 C1295 1.327 . S
C1293 C1299 1.429 . S
C1294 C1286 1.574 . S
C1294 H1289 0.949 . S
C1294 C1300 1.368 . S
C1295 C1279 1.349 . S
C1295 H1287 0.950 . S
C1295 C1293 1.327 . S
C1296 C1284 1.349 . S
C1296 H1290 0.950 . S
C1296 C1297 1.327 . S
C1297 H1291 0.950 . S
C1297 C1296 1.327 . S
C1297 C1301 1.429 . S
C1298 C1281 1.574 . S
C1298 H1292 0.949 . S
C1298 C1302 1.368 . S
C1299 C1280 1.429 . S
C1299 C1293 1.429 . S
C1299 C1300 1.523 . S
C1300 C1281 1.368 . S
C1300 C1294 1.368 . S
C1300 C1299 1.523 . S
C1301 C1285 1.429 . S
C1301 C1297 1.429 . S
C1301 C1302 1.523 . S
C1302 C1286 1.368 . S
C1302 C1298 1.368 . S
C1302 C1301 1.523 . S
H1303 C1278 0.950 . S
H1304 C1280 0.950 . S
H1305 C1281 0.949 . S
H1306 C1283 0.950 . S
H1307 C1285 0.950 . S
C1308 C1309 1.349 . S
C1308 C1310 1.327 . S
C1308 H1333 0.950 . S
C1309 C1308 1.349 . S
C1309 C1325 1.349 . S
C1310 C1308 1.327 . S
C1310 C1329 1.429 . S
C1310 H1334 0.950 . S
C1311 C1328 1.574 . S
C1311 C1330 1.368 . S
C1311 H1335 0.949 . S
H1312 C1316 0.949 . S
C1313 C1314 1.349 . S
C1313 C1315 1.327 . S
C1313 H1336 0.950 . S
C1314 C1313 1.349 . S
C1314 C1326 1.349 . S
C1315 C1313 1.327 . S
C1315 C1331 1.429 . S
C1315 H1337 0.950 . S
C1316 H1312 0.949 . S
C1316 C1324 1.574 . S
C1316 C1332 1.368 . S
H1317 C1325 0.950 . S
H1318 C1323 0.950 . S
H1319 C1324 0.949 . S
H1320 C1326 0.950 . S
H1321 C1327 0.950 . S
H1322 C1328 0.949 . S
C1323 H1318 0.950 . S
C1323 C1325 1.327 . S
C1323 C1329 1.429 . S
C1324 C1316 1.574 . S
C1324 H1319 0.949 . S
C1324 C1330 1.368 . S
C1325 C1309 1.349 . S
C1325 H1317 0.950 . S
C1325 C1323 1.327 . S
C1326 C1314 1.349 . S
C1326 H1320 0.950 . S
C1326 C1327 1.327 . S
C1327 H1321 0.950 . S
C1327 C1326 1.327 . S
C1327 C1331 1.429 . S
C1328 C1311 1.574 . S
C1328 H1322 0.949 . S
C1328 C1332 1.368 . S
C1329 C1310 1.429 . S
C1329 C1323 1.429 . S
C1329 C1330 1.523 . S
C1330 C1311 1.368 . S
C1330 C1324 1.368 . S
C1330 C1329 1.523 . S
C1331 C1315 1.429 . S
C1331 C1327 1.429 . S
C1331 C1332 1.523 . S
C1332 C1316 1.368 . S
C1332 C1328 1.368 . S
C1332 C1331 1.523 . S
H1333 C1308 0.950 . S
H1334 C1310 0.950 . S
H1335 C1311 0.949 . S
H1336 C1313 0.950 . S
H1337 C1315 0.950 . S
C1338 C1339 1.349 . S
C1338 C1340 1.327 . S
C1338 H1363 0.950 . S
C1339 C1338 1.349 . S
C1339 C1355 1.349 . S
C1340 C1338 1.327 . S
C1340 C1359 1.429 . S
C1340 H1364 0.950 . S
C1341 C1358 1.574 . S
C1341 C1360 1.368 . S
C1341 H1365 0.949 . S
H1342 C1346 0.949 . S
C1343 C1344 1.349 . S
C1343 C1345 1.327 . S
C1343 H1366 0.950 . S
C1344 C1343 1.349 . S
C1344 C1356 1.349 . S
C1345 C1343 1.327 . S
C1345 C1361 1.429 . S
C1345 H1367 0.950 . S
C1346 H1342 0.949 . S
C1346 C1354 1.574 . S
C1346 C1362 1.368 . S
H1347 C1355 0.950 . S
H1348 C1353 0.950 . S
H1349 C1354 0.949 . S
H1350 C1356 0.950 . S
H1351 C1357 0.950 . S
H1352 C1358 0.949 . S
C1353 H1348 0.950 . S
C1353 C1355 1.327 . S
C1353 C1359 1.429 . S
C1354 C1346 1.574 . S
C1354 H1349 0.949 . S
C1354 C1360 1.368 . S
C1355 C1339 1.349 . S
C1355 H1347 0.950 . S
C1355 C1353 1.327 . S
C1356 C1344 1.349 . S
C1356 H1350 0.950 . S
C1356 C1357 1.327 . S
C1357 H1351 0.950 . S
C1357 C1356 1.327 . S
C1357 C1361 1.429 . S
C1358 C1341 1.574 . S
C1358 H1352 0.949 . S
C1358 C1362 1.368 . S
C1359 C1340 1.429 . S
C1359 C1353 1.429 . S
C1359 C1360 1.523 . S
C1360 C1341 1.368 . S
C1360 C1354 1.368 . S
C1360 C1359 1.523 . S
C1361 C1345 1.429 . S
C1361 C1357 1.429 . S
C1361 C1362 1.523 . S
C1362 C1346 1.368 . S
C1362 C1358 1.368 . S
C1362 C1361 1.523 . S
H1363 C1338 0.950 . S
H1364 C1340 0.950 . S
H1365 C1341 0.949 . S
H1366 C1343 0.950 . S
H1367 C1345 0.950 . S
C1368 C1369 1.349 . S
C1368 C1370 1.327 . S
C1368 H1393 0.950 . S
C1369 C1368 1.349 . S
C1369 C1385 1.349 . S
C1370 C1368 1.327 . S
C1370 C1389 1.429 . S
C1370 H1394 0.950 . S
C1371 C1388 1.574 . S
C1371 C1390 1.368 . S
C1371 H1395 0.949 . S
H1372 C1376 0.949 . S
C1373 C1374 1.349 . S
C1373 C1375 1.327 . S
C1373 H1396 0.950 . S
C1374 C1373 1.349 . S
C1374 C1386 1.349 . S
C1375 C1373 1.327 . S
C1375 C1391 1.429 . S
C1375 H1397 0.950 . S
C1376 H1372 0.949 . S
C1376 C1384 1.574 . S
C1376 C1392 1.368 . S
H1377 C1385 0.950 . S
H1378 C1383 0.950 . S
H1379 C1384 0.949 . S
H1380 C1386 0.950 . S
H1381 C1387 0.950 . S
H1382 C1388 0.949 . S
C1383 H1378 0.950 . S
C1383 C1385 1.327 . S
C1383 C1389 1.429 . S
C1384 C1376 1.574 . S
C1384 H1379 0.949 . S
C1384 C1390 1.368 . S
C1385 C1369 1.349 . S
C1385 H1377 0.950 . S
C1385 C1383 1.327 . S
C1386 C1374 1.349 . S
C1386 H1380 0.950 . S
C1386 C1387 1.327 . S
C1387 H1381 0.950 . S
C1387 C1386 1.327 . S
C1387 C1391 1.429 . S
C1388 C1371 1.574 . S
C1388 H1382 0.949 . S
C1388 C1392 1.368 . S
C1389 C1370 1.429 . S
C1389 C1383 1.429 . S
C1389 C1390 1.523 . S
C1390 C1371 1.368 . S
C1390 C1384 1.368 . S
C1390 C1389 1.523 . S
C1391 C1375 1.429 . S
C1391 C1387 1.429 . S
C1391 C1392 1.523 . S
C1392 C1376 1.368 . S
C1392 C1388 1.368 . S
C1392 C1391 1.523 . S
H1393 C1368 0.950 . S
H1394 C1370 0.950 . S
H1395 C1371 0.949 . S
H1396 C1373 0.950 . S
H1397 C1375 0.950 . S
C1398 C1399 1.349 . S
C1398 C1400 1.327 . S
C1398 H1423 0.950 . S
C1399 C1398 1.349 . S
C1399 C1415 1.349 . S
C1400 C1398 1.327 . S
C1400 C1419 1.429 . S
C1400 H1424 0.950 . S
C1401 C1418 1.574 . S
C1401 C1420 1.368 . S
C1401 H1425 0.949 . S
H1402 C1406 0.949 . S
C1403 C1404 1.349 . S
C1403 C1405 1.327 . S
C1403 H1426 0.950 . S
C1404 C1403 1.349 . S
C1404 C1416 1.349 . S
C1405 C1403 1.327 . S
C1405 C1421 1.429 . S
C1405 H1427 0.950 . S
C1406 H1402 0.949 . S
C1406 C1414 1.574 . S
C1406 C1422 1.368 . S
H1407 C1415 0.950 . S
H1408 C1413 0.950 . S
H1409 C1414 0.949 . S
H1410 C1416 0.950 . S
H1411 C1417 0.950 . S
H1412 C1418 0.949 . S
C1413 H1408 0.950 . S
C1413 C1415 1.327 . S
C1413 C1419 1.429 . S
C1414 C1406 1.574 . S
C1414 H1409 0.949 . S
C1414 C1420 1.368 . S
C1415 C1399 1.349 . S
C1415 H1407 0.950 . S
C1415 C1413 1.327 . S
C1416 C1404 1.349 . S
C1416 H1410 0.950 . S
C1416 C1417 1.327 . S
C1417 H1411 0.950 . S
C1417 C1416 1.327 . S
C1417 C1421 1.429 . S
C1418 C1401 1.574 . S
C1418 H1412 0.949 . S
C1418 C1422 1.368 . S
C1419 C1400 1.429 . S
C1419 C1413 1.429 . S
C1419 C1420 1.523 . S
C1420 C1401 1.368 . S
C1420 C1414 1.368 . S
C1420 C1419 1.523 . S
C1421 C1405 1.429 . S
C1421 C1417 1.429 . S
C1421 C1422 1.523 . S
C1422 C1406 1.368 . S
C1422 C1418 1.368 . S
C1422 C1421 1.523 . S
H1423 C1398 0.950 . S
H1424 C1400 0.950 . S
H1425 C1401 0.949 . S
H1426 C1403 0.950 . S
H1427 C1405 0.950 . S
C709 C5 1.620 . S
C714 C359 1.620 . S
C739 C64 1.620 . S
C744 C418 1.620 . S
C769 C123 1.620 . S
C774 C477 1.620 . S
C799 C182 1.620 . S
C804 C536 1.620 . S
C829 C241 1.620 . S
C834 C595 1.620 . S
C859 C654 1.620 . S
C864 C300 1.620 . S
C889 C3 1.323 . S
C894 C593 1.323 . S
C919 C62 1.323 . S
C924 C652 1.324 . S
C949 C121 1.324 . S
C954 C357 1.324 . S
C979 C180 1.323 . S
C984 C416 1.323 . S
C1009 C239 1.323 . S
C1014 C475 1.324 . S
C1039 C298 1.324 . S
C1044 C534 1.324 . S
C1069 C33 1.297 . S
C1074 C210 1.297 . S
C1099 C92 1.298 . S
C1104 C269 1.298 . S
C1129 C328 1.299 . S
C1134 C151 1.299 . S
C1159 C387 1.299 . S
C1164 C564 1.299 . S
C1189 C623 1.297 . S
C1194 C446 1.297 . S
C1219 C505 1.297 . S
C1224 C682 1.297 . S
C1249 C406 0.724 . S
C1254 C52 0.724 . S
C1279 C111 0.724 . S
C1284 C465 0.724 . S
C1309 C170 0.724 . S
C1314 C524 0.724 . S
C1339 C583 0.724 . S
C1344 C229 0.724 . S
C1369 C642 0.724 . S
C1374 C288 0.724 . S
C1399 C347 0.724 . S
C1404 C701 0.724 . S
