# Generated by pormake.
# Topology fno, (5)-cn, num edge types: 1
# Building blocks:
#     Node 0, Type 0, BuildingBlock: XOMCOT_clean_sbu_1, # of connection points: 5
#     Node 1, Type 0, BuildingBlock: XOMCOT_clean_sbu_1, # of connection points: 5
#     Node 2, Type 0, BuildingBlock: XOMCOT_clean_sbu_1, # of connection points: 5
#     Node 3, Type 0, BuildingBlock: XOMCOT_clean_sbu_1, # of connection points: 5
#     Node 4, Type 0, BuildingBlock: XOMCOT_clean_sbu_1, # of connection points: 5
#     Node 5, Type 0, BuildingBlock: XOMCOT_clean_sbu_1, # of connection points: 5
#     Node 6, Type 0, BuildingBlock: XOMCOT_clean_sbu_1, # of connection points: 5
#     Node 7, Type 0, BuildingBlock: XOMCOT_clean_sbu_1, # of connection points: 5
#     Node 8, Type 0, BuildingBlock: XOMCOT_clean_sbu_1, # of connection points: 5
#     Node 9, Type 0, BuildingBlock: XOMCOT_clean_sbu_1, # of connection points: 5
#     Node 10, Type 0, BuildingBlock: XOMCOT_clean_sbu_1, # of connection points: 5
#     Node 11, Type 0, BuildingBlock: XOMCOT_clean_sbu_1, # of connection points: 5
#     Node 12, Type 0, BuildingBlock: XOMCOT_clean_sbu_1, # of connection points: 5
#     Node 13, Type 0, BuildingBlock: XOMCOT_clean_sbu_1, # of connection points: 5
#     Node 14, Type 0, BuildingBlock: XOMCOT_clean_sbu_1, # of connection points: 5
#     Node 15, Type 0, BuildingBlock: XOMCOT_clean_sbu_1, # of connection points: 5
#     Node 16, Type 0, BuildingBlock: XOMCOT_clean_sbu_1, # of connection points: 5
#     Node 17, Type 0, BuildingBlock: XOMCOT_clean_sbu_1, # of connection points: 5
#     Node 18, Type 0, BuildingBlock: XOMCOT_clean_sbu_1, # of connection points: 5
#     Node 19, Type 0, BuildingBlock: XOMCOT_clean_sbu_1, # of connection points: 5
#     Node 20, Type 0, BuildingBlock: XOMCOT_clean_sbu_1, # of connection points: 5
#     Node 21, Type 0, BuildingBlock: XOMCOT_clean_sbu_1, # of connection points: 5
#     Node 22, Type 0, BuildingBlock: XOMCOT_clean_sbu_1, # of connection points: 5
#     Node 23, Type 0, BuildingBlock: XOMCOT_clean_sbu_1, # of connection points: 5
#     Node 24, Type 0, BuildingBlock: XOMCOT_clean_sbu_1, # of connection points: 5
#     Node 25, Type 0, BuildingBlock: XOMCOT_clean_sbu_1, # of connection points: 5
#     Node 26, Type 0, BuildingBlock: XOMCOT_clean_sbu_1, # of connection points: 5
#     Node 27, Type 0, BuildingBlock: XOMCOT_clean_sbu_1, # of connection points: 5
#     Node 28, Type 0, BuildingBlock: XOMCOT_clean_sbu_1, # of connection points: 5
#     Node 29, Type 0, BuildingBlock: XOMCOT_clean_sbu_1, # of connection points: 5
#     Node 30, Type 0, BuildingBlock: XOMCOT_clean_sbu_1, # of connection points: 5
#     Node 31, Type 0, BuildingBlock: XOMCOT_clean_sbu_1, # of connection points: 5
#     Node 32, Type 0, BuildingBlock: XOMCOT_clean_sbu_1, # of connection points: 5
#     Node 33, Type 0, BuildingBlock: XOMCOT_clean_sbu_1, # of connection points: 5
#     Node 34, Type 0, BuildingBlock: XOMCOT_clean_sbu_1, # of connection points: 5
#     Node 35, Type 0, BuildingBlock: XOMCOT_clean_sbu_1, # of connection points: 5
#     Node 36, Type 0, BuildingBlock: XOMCOT_clean_sbu_1, # of connection points: 5
#     Node 37, Type 0, BuildingBlock: XOMCOT_clean_sbu_1, # of connection points: 5
#     Node 38, Type 0, BuildingBlock: XOMCOT_clean_sbu_1, # of connection points: 5
#     Node 39, Type 0, BuildingBlock: XOMCOT_clean_sbu_1, # of connection points: 5
#     Node 40, Type 0, BuildingBlock: XOMCOT_clean_sbu_1, # of connection points: 5
#     Node 41, Type 0, BuildingBlock: XOMCOT_clean_sbu_1, # of connection points: 5
#     Node 42, Type 0, BuildingBlock: XOMCOT_clean_sbu_1, # of connection points: 5
#     Node 43, Type 0, BuildingBlock: XOMCOT_clean_sbu_1, # of connection points: 5
#     Node 44, Type 0, BuildingBlock: XOMCOT_clean_sbu_1, # of connection points: 5
#     Node 45, Type 0, BuildingBlock: XOMCOT_clean_sbu_1, # of connection points: 5
#     Node 46, Type 0, BuildingBlock: XOMCOT_clean_sbu_1, # of connection points: 5
#     Node 47, Type 0, BuildingBlock: XOMCOT_clean_sbu_1, # of connection points: 5
#     Edge 48, Type (0, 0), None
#     Edge 49, Type (0, 0), None
#     Edge 50, Type (0, 0), None
#     Edge 51, Type (0, 0), None
#     Edge 52, Type (0, 0), None
#     Edge 53, Type (0, 0), None
#     Edge 54, Type (0, 0), None
#     Edge 55, Type (0, 0), None
#     Edge 56, Type (0, 0), None
#     Edge 57, Type (0, 0), None
#     Edge 58, Type (0, 0), None
#     Edge 59, Type (0, 0), None
#     Edge 60, Type (0, 0), None
#     Edge 61, Type (0, 0), None
#     Edge 62, Type (0, 0), None
#     Edge 63, Type (0, 0), None
#     Edge 64, Type (0, 0), None
#     Edge 65, Type (0, 0), None
#     Edge 66, Type (0, 0), None
#     Edge 67, Type (0, 0), None
#     Edge 68, Type (0, 0), None
#     Edge 69, Type (0, 0), None
#     Edge 70, Type (0, 0), None
#     Edge 71, Type (0, 0), None
#     Edge 72, Type (0, 0), None
#     Edge 73, Type (0, 0), None
#     Edge 74, Type (0, 0), None
#     Edge 75, Type (0, 0), None
#     Edge 76, Type (0, 0), None
#     Edge 77, Type (0, 0), None
#     Edge 78, Type (0, 0), None
#     Edge 79, Type (0, 0), None
#     Edge 80, Type (0, 0), None
#     Edge 81, Type (0, 0), None
#     Edge 82, Type (0, 0), None
#     Edge 83, Type (0, 0), None
#     Edge 84, Type (0, 0), None
#     Edge 85, Type (0, 0), None
#     Edge 86, Type (0, 0), None
#     Edge 87, Type (0, 0), None
#     Edge 88, Type (0, 0), None
#     Edge 89, Type (0, 0), None
#     Edge 90, Type (0, 0), None
#     Edge 91, Type (0, 0), None
#     Edge 92, Type (0, 0), None
#     Edge 93, Type (0, 0), None
#     Edge 94, Type (0, 0), None
#     Edge 95, Type (0, 0), None
#     Edge 96, Type (0, 0), None
#     Edge 97, Type (0, 0), None
#     Edge 98, Type (0, 0), None
#     Edge 99, Type (0, 0), None
#     Edge 100, Type (0, 0), None
#     Edge 101, Type (0, 0), None
#     Edge 102, Type (0, 0), None
#     Edge 103, Type (0, 0), None
#     Edge 104, Type (0, 0), None
#     Edge 105, Type (0, 0), None
#     Edge 106, Type (0, 0), None
#     Edge 107, Type (0, 0), None
#     Edge 108, Type (0, 0), None
#     Edge 109, Type (0, 0), None
#     Edge 110, Type (0, 0), None
#     Edge 111, Type (0, 0), None
#     Edge 112, Type (0, 0), None
#     Edge 113, Type (0, 0), None
#     Edge 114, Type (0, 0), None
#     Edge 115, Type (0, 0), None
#     Edge 116, Type (0, 0), None
#     Edge 117, Type (0, 0), None
#     Edge 118, Type (0, 0), None
#     Edge 119, Type (0, 0), None
#     Edge 120, Type (0, 0), None
#     Edge 121, Type (0, 0), None
#     Edge 122, Type (0, 0), None
#     Edge 123, Type (0, 0), None
#     Edge 124, Type (0, 0), None
#     Edge 125, Type (0, 0), None
#     Edge 126, Type (0, 0), None
#     Edge 127, Type (0, 0), None
#     Edge 128, Type (0, 0), None
#     Edge 129, Type (0, 0), None
#     Edge 130, Type (0, 0), None
#     Edge 131, Type (0, 0), None
#     Edge 132, Type (0, 0), None
#     Edge 133, Type (0, 0), None
#     Edge 134, Type (0, 0), None
#     Edge 135, Type (0, 0), None
#     Edge 136, Type (0, 0), None
#     Edge 137, Type (0, 0), None
#     Edge 138, Type (0, 0), None
#     Edge 139, Type (0, 0), None
#     Edge 140, Type (0, 0), None
#     Edge 141, Type (0, 0), None
#     Edge 142, Type (0, 0), None
#     Edge 143, Type (0, 0), None
#     Edge 144, Type (0, 0), None
#     Edge 145, Type (0, 0), None
#     Edge 146, Type (0, 0), None
#     Edge 147, Type (0, 0), None
#     Edge 148, Type (0, 0), None
#     Edge 149, Type (0, 0), None
#     Edge 150, Type (0, 0), None
#     Edge 151, Type (0, 0), None
#     Edge 152, Type (0, 0), None
#     Edge 153, Type (0, 0), None
#     Edge 154, Type (0, 0), None
#     Edge 155, Type (0, 0), None
#     Edge 156, Type (0, 0), None
#     Edge 157, Type (0, 0), None
#     Edge 158, Type (0, 0), None
#     Edge 159, Type (0, 0), None
#     Edge 160, Type (0, 0), None
#     Edge 161, Type (0, 0), None
#     Edge 162, Type (0, 0), None
#     Edge 163, Type (0, 0), None
#     Edge 164, Type (0, 0), None
#     Edge 165, Type (0, 0), None
#     Edge 166, Type (0, 0), None
#     Edge 167, Type (0, 0), None
# Relax obj value: 0.473
# Max RMSD: 0.303
# Mean RMSD: 0.188
data_MOF--net-fno--node1-XOMCOT_clean_sbu_1--edge1-none
_symmetry_space_group_name_H-M    P1
_symmetry_Int_Tables_number       1
_symmetry_cell_setting            triclinic
loop_
_symmetry_equiv_pos_as_xyz
'x, y, z'
_cell_length_a     28.822644
_cell_length_b     28.488085
_cell_length_c     28.796627
_cell_angle_alpha  91.118843
_cell_angle_beta   90.184842
_cell_angle_gamma 91.890342
loop_
_atom_site_label
_atom_site_type_symbol
_atom_site_fract_x
_atom_site_fract_y
_atom_site_fract_z
_atom_type_partial_charge
C0 C 0.16066 0.31606 0.04431 0.0
C1 C 0.15754 0.32181 0.99748 0.0
N2 N 0.1281 0.35593 0.98865 0.0
N3 N 0.13432 0.34821 0.06514 0.0
C4 C 0.1131 0.3706 0.03036 0.0
H5 H 0.18434 0.29387 0.0622 0.0
Co6 Co 0.13649 0.36105 0.12756 0.0
C7 C 0.13363 0.4627 0.09579 0.0
O8 O 0.15452 0.45669 0.05609 0.0
N9 N 0.13764 0.37492 0.19237 0.0
C10 C 0.15936 0.4167 0.25549 0.0
C11 C 0.14868 0.41853 0.20956 0.0
C12 C 0.14056 0.34705 0.22992 0.0
N13 N 0.15531 0.37185 0.2682 0.0
O14 O 0.06918 0.33353 0.13154 0.0
H15 H 0.15576 0.44905 0.1893 0.0
H16 H 0.13544 0.30924 0.22851 0.0
O17 O 0.11676 0.42736 0.11846 0.0
C18 C 0.05311 0.29366 0.11377 0.0
O19 O 0.0813 0.26702 0.09019 0.0
N20 N 0.20296 0.38364 0.12358 0.0
C21 C 0.2845 0.44147 0.12841 0.0
C22 C 0.26156 0.43222 0.08604 0.0
C23 C 0.2223 0.40195 0.08413 0.0
C24 C 0.2311 0.3838 0.16217 0.0
C25 C 0.27037 0.41419 0.16622 0.0
H26 H 0.20664 0.39604 0.05055 0.0
H27 H 0.22234 0.3625 0.19154 0.0
H28 H 0.08977 0.39921 0.03528 0.0
H29 H 0.17934 0.30696 0.97176 0.0
H30 H 0.17075 0.44598 0.27775 0.0
H31 H 0.27354 0.44802 0.05423 0.0
H32 H 0.28882 0.41649 0.19898 0.0
C33 C 0.97085 0.82092 0.30371 0.0
C34 C 0.95723 0.82371 0.25858 0.0
N35 N 0.91209 0.83374 0.25648 0.0
N36 N 0.9338 0.8276 0.33112 0.0
C37 C 0.89753 0.83048 0.30073 0.0
H38 H 1.00664 0.82287 0.31499 0.0
Co39 Co 0.93651 0.85259 0.39291 0.0
C40 C 0.83622 0.88811 0.39058 0.0
O41 O 0.81801 0.87187 0.42912 0.0
N42 N 0.93606 0.87747 0.45618 0.0
C43 C 0.9227 0.93167 0.51116 0.0
C44 C 0.90678 0.91085 0.4715 0.0
C45 C 0.96841 0.87689 0.49077 0.0
N46 N 0.96151 0.91089 0.52358 0.0
O47 O 0.9976 0.82049 0.40483 0.0
H48 H 0.87994 0.92679 0.45251 0.0
H49 H 0.99834 0.85493 0.49006 0.0
O50 O 0.87822 0.88043 0.38046 0.0
C51 C 1.00605 0.77733 0.39356 0.0
O52 O 0.9731 0.75111 0.37359 0.0
N53 N 0.96612 0.9124 0.37071 0.0
C54 C 0.90954 0.98863 0.36718 0.0
C55 C 0.92169 0.96538 0.32585 0.0
C56 C 0.95144 0.92757 0.32834 0.0
C57 C 0.97209 0.94756 0.40336 0.0
C58 C 0.94007 0.98387 0.40489 0.0
H59 H 0.95869 0.90884 0.29674 0.0
H60 H 0.99443 0.94294 0.43296 0.0
H61 H 0.86221 0.83603 0.31095 0.0
H62 H 0.98021 0.82616 0.23009 0.0
H63 H 0.90733 0.96112 0.52869 0.0
H64 H 0.90588 0.9732 0.29294 0.0
H65 H 0.9375 1.00521 0.43614 0.0
C66 C 0.49554 0.71256 0.7265 0.0
C67 C 0.48021 0.71702 0.77131 0.0
N68 N 0.43369 0.72198 0.77057 0.0
N69 N 0.45908 0.71663 0.69797 0.0
C70 C 0.42369 0.72837 0.72562 0.0
H71 H 0.52836 0.69837 0.71609 0.0
Co72 Co 0.45283 0.67989 0.64518 0.0
C73 C 0.34873 0.70416 0.61862 0.0
O74 O 0.32603 0.74324 0.6155 0.0
N75 N 0.44519 0.6396 0.59044 0.0
C76 C 0.4179 0.57886 0.54627 0.0
C77 C 0.41893 0.59899 0.58926 0.0
C78 C 0.45735 0.64421 0.54521 0.0
N79 N 0.44153 0.60728 0.51816 0.0
O80 O 0.49239 0.73056 0.61137 0.0
H81 H 0.39581 0.58659 0.61562 0.0
H82 H 0.47412 0.67559 0.53163 0.0
O83 O 0.39253 0.70796 0.62859 0.0
C84 C 0.50513 0.77328 0.62451 0.0
O85 O 0.47964 0.79627 0.65438 0.0
N86 N 0.42341 0.63199 0.68203 0.0
C87 C 0.37712 0.54819 0.7 0.0
C88 C 0.35551 0.59049 0.70892 0.0
C89 C 0.37932 0.63234 0.69926 0.0
C90 C 0.44864 0.59254 0.68722 0.0
C91 C 0.42562 0.5492 0.69509 0.0
H92 H 0.36003 0.66367 0.70091 0.0
H93 H 0.48471 0.59304 0.67688 0.0
H94 H 0.38876 0.73183 0.71299 0.0
H95 H 0.49995 0.70725 0.80135 0.0
H96 H 0.39559 0.54938 0.53512 0.0
H97 H 0.31864 0.59088 0.71602 0.0
H98 H 0.44406 0.51705 0.68976 0.0
C99 C 0.64112 0.2307 0.96688 0.0
C100 C 0.6667 0.22871 1.00673 0.0
N101 N 0.65914 0.18614 0.02504 0.0
N102 N 0.61915 0.18861 0.95875 0.0
C103 C 0.62906 0.16285 0.9962 0.0
H104 H 0.64429 0.25845 0.94186 0.0
Co105 Co 0.60605 0.16678 0.89848 0.0
C106 C 0.66613 0.07478 0.90988 0.0
O107 O 0.69784 0.08685 0.87931 0.0
N108 N 0.5952 0.1455 0.8351 0.0
C109 C 0.62668 0.11555 0.77077 0.0
C110 C 0.61457 0.10718 0.81596 0.0
C111 C 0.59001 0.17396 0.79804 0.0
N112 N 0.61149 0.15787 0.75926 0.0
O113 O 0.57259 0.22757 0.88528 0.0
H114 H 0.62277 0.07583 0.83383 0.0
H115 H 0.57627 0.20878 0.80081 0.0
O116 O 0.6313 0.10154 0.91655 0.0
C117 C 0.54642 0.25221 0.91243 0.0
O118 O 0.54398 0.24228 0.95666 0.0
N119 N 0.66717 0.19133 0.87961 0.0
C120 C 0.75298 0.19148 0.83637 0.0
C121 C 0.74867 0.17707 0.88223 0.0
C122 C 0.70539 0.17771 0.9035 0.0
C123 C 0.6743 0.21734 0.84058 0.0
C124 C 0.71649 0.21527 0.81651 0.0
H125 H 0.70197 0.16104 0.93665 0.0
H126 H 0.64672 0.23689 0.82587 0.0
H127 H 0.61938 0.12601 0.99935 0.0
H128 H 0.69253 0.25466 1.01843 0.0
H129 H 0.6482 0.09337 0.74968 0.0
H130 H 0.77684 0.16015 0.89941 0.0
H131 H 0.71979 0.22993 0.78222 0.0
C132 C 0.14107 0.73072 0.46687 0.0
C133 C 0.16663 0.72873 0.50672 0.0
N134 N 0.1591 0.68617 0.52503 0.0
N135 N 0.11912 0.68861 0.45873 0.0
C136 C 0.12903 0.66286 0.49619 0.0
H137 H 0.14424 0.75847 0.44185 0.0
Co138 Co 0.10604 0.66678 0.39846 0.0
C139 C 0.16614 0.57479 0.40988 0.0
O140 O 0.19784 0.58686 0.3793 0.0
N141 N 0.09521 0.64551 0.33508 0.0
C142 C 0.12671 0.61555 0.27076 0.0
C143 C 0.11459 0.60718 0.31594 0.0
C144 C 0.09004 0.67397 0.29802 0.0
N145 N 0.11152 0.65788 0.25924 0.0
O146 O 0.07259 0.72757 0.38526 0.0
H147 H 0.12278 0.57583 0.33382 0.0
H148 H 0.0763 0.70879 0.30079 0.0
O149 O 0.1313 0.60154 0.41655 0.0
C150 C 0.0464 0.75217 0.41243 0.0
O151 O 0.0439 0.74218 0.45665 0.0
N152 N 0.16717 0.69134 0.37962 0.0
C153 C 0.253 0.69147 0.33641 0.0
C154 C 0.24866 0.67707 0.38228 0.0
C155 C 0.20538 0.67772 0.40352 0.0
C156 C 0.17431 0.71734 0.34059 0.0
C157 C 0.21652 0.71526 0.31653 0.0
H158 H 0.20195 0.66105 0.43667 0.0
H159 H 0.14675 0.73689 0.32586 0.0
H160 H 0.11936 0.62602 0.49933 0.0
H161 H 0.19245 0.7547 0.51843 0.0
H162 H 0.14823 0.59338 0.24968 0.0
H163 H 0.27683 0.66016 0.39947 0.0
H164 H 0.21983 0.7299 0.28223 0.0
C165 C 0.6606 0.81601 0.54433 0.0
C166 C 0.65748 0.82174 0.4975 0.0
N167 N 0.62807 0.85589 0.48867 0.0
N168 N 0.63429 0.84818 0.56516 0.0
C169 C 0.61308 0.87058 0.53037 0.0
H170 H 0.68427 0.7938 0.56222 0.0
Co171 Co 0.63647 0.86102 0.62758 0.0
C172 C 0.63364 0.96269 0.59581 0.0
O173 O 0.65453 0.95667 0.55611 0.0
N174 N 0.63764 0.8749 0.6924 0.0
C175 C 0.65937 0.91669 0.75551 0.0
C176 C 0.64868 0.91852 0.70959 0.0
C177 C 0.64058 0.84703 0.72995 0.0
N178 N 0.65534 0.87183 0.76822 0.0
O179 O 0.56917 0.83352 0.63157 0.0
H180 H 0.65574 0.94903 0.68933 0.0
H181 H 0.63546 0.80922 0.72854 0.0
O182 O 0.61676 0.92735 0.61848 0.0
C183 C 0.55313 0.79361 0.61385 0.0
O184 O 0.58134 0.76693 0.59036 0.0
N185 N 0.70295 0.8836 0.62359 0.0
C186 C 0.78448 0.94144 0.62839 0.0
C187 C 0.76153 0.93217 0.58602 0.0
C188 C 0.72228 0.9019 0.58412 0.0
C189 C 0.73108 0.88378 0.66217 0.0
C190 C 0.77035 0.91417 0.66621 0.0
H191 H 0.70662 0.89598 0.55056 0.0
H192 H 0.72233 0.86249 0.69155 0.0
H193 H 0.58978 0.89922 0.53529 0.0
H194 H 0.67926 0.80686 0.47179 0.0
H195 H 0.67076 0.94597 0.77776 0.0
H196 H 0.77351 0.94796 0.5542 0.0
H197 H 0.78881 0.91649 0.69896 0.0
C198 C 0.47077 0.32095 0.80372 0.0
C199 C 0.45711 0.32377 0.7586 0.0
N200 N 0.41197 0.33379 0.75655 0.0
N201 N 0.43374 0.32761 0.83116 0.0
C202 C 0.39745 0.3305 0.80081 0.0
H203 H 0.50657 0.32291 0.81497 0.0
Co204 Co 0.4365 0.35263 0.89294 0.0
C205 C 0.33621 0.38819 0.89064 0.0
O206 O 0.31799 0.37198 0.92919 0.0
N207 N 0.43608 0.37753 0.9562 0.0
C208 C 0.42276 0.43174 1.01118 0.0
C209 C 0.40682 0.41092 0.97152 0.0
C210 C 0.46844 0.37694 0.99079 0.0
N211 N 0.46156 0.41095 0.0236 0.0
O212 O 0.49759 0.32051 0.90485 0.0
H213 H 0.37998 0.42686 0.95254 0.0
H214 H 0.49836 0.35496 0.99008 0.0
O215 O 0.37821 0.38049 0.88051 0.0
C216 C 0.50606 0.27736 0.89356 0.0
O217 O 0.47314 0.25113 0.87355 0.0
N218 N 0.46612 0.41243 0.87071 0.0
C219 C 0.40957 0.48868 0.86714 0.0
C220 C 0.42172 0.4654 0.82582 0.0
C221 C 0.45145 0.42758 0.82833 0.0
C222 C 0.47209 0.4476 0.90335 0.0
C223 C 0.44007 0.48392 0.90486 0.0
H224 H 0.45872 0.40885 0.79674 0.0
H225 H 0.49442 0.44299 0.93296 0.0
H226 H 0.36214 0.33604 0.81106 0.0
H227 H 0.48007 0.32629 0.7301 0.0
H228 H 0.4074 0.4612 0.02871 0.0
H229 H 0.40593 0.47322 0.7929 0.0
H230 H 0.4375 0.50527 0.9361 0.0
C231 C 0.99578 0.2123 0.22639 0.0
C232 C 0.98051 0.21661 0.27123 0.0
N233 N 0.934 0.22168 0.27057 0.0
N234 N 0.95929 0.21653 0.19792 0.0
C235 C 0.92396 0.22824 0.22566 0.0
H236 H 0.02855 0.19807 0.21589 0.0
Co237 Co 0.95292 0.17989 0.14509 0.0
C238 C 0.84873 0.20417 0.11882 0.0
O239 O 0.826 0.24325 0.11588 0.0
N240 N 0.94516 0.13967 0.09031 0.0
C241 C 0.91773 0.07897 0.04618 0.0
C242 C 0.91876 0.09914 0.08915 0.0
C243 C 0.9574 0.14418 0.04509 0.0
N244 N 0.94148 0.10728 1.01807 0.0
O245 O 0.99238 0.23061 0.11127 0.0
H246 H 0.89561 0.08683 0.11551 0.0
H247 H 0.97429 0.17549 0.03151 0.0
O248 O 0.89255 0.20796 0.1287 0.0
C249 C 1.00513 0.27331 0.12446 0.0
O250 O 0.9797 0.29625 0.15442 0.0
N251 N 0.92359 0.13193 0.18193 0.0
C252 C 0.87735 0.0481 0.1998 0.0
C253 C 0.85575 0.09038 0.20887 0.0
C254 C 0.87954 0.13225 0.19926 0.0
C255 C 0.94884 0.09247 0.18694 0.0
C256 C 0.92584 0.04912 0.19476 0.0
H257 H 0.86025 0.16358 0.20101 0.0
H258 H 0.98488 0.09299 0.17651 0.0
H259 H 0.88901 0.23176 0.21309 0.0
H260 H 1.00027 0.20669 0.30121 0.0
H261 H 0.89534 0.04953 0.03503 0.0
H262 H 0.8189 0.09075 0.21607 0.0
H263 H 0.94427 1.01697 0.18931 0.0
C264 C 0.18234 0.06998 0.387 0.0
C265 C 0.22705 0.07888 0.40174 0.0
N266 N 0.23435 0.12581 0.40573 0.0
N267 N 0.16109 0.11108 0.38196 0.0
C268 C 0.19488 0.14432 0.38981 0.0
H269 H 0.16499 0.03573 0.38579 0.0
Co270 Co 0.0965 0.11684 0.38526 0.0
C271 C 0.12652 0.20883 0.45347 0.0
O272 O 0.16901 0.19923 0.4658 0.0
N273 N 0.02974 0.12525 0.38883 0.0
C274 C 0.97132 0.17113 0.41016 0.0
C275 C 1.0142 0.16955 0.38923 0.0
C276 C 0.99291 0.10041 0.40653 0.0
N277 N 0.95796 0.12736 0.42165 0.0
O278 O 0.09095 0.05765 0.34078 0.0
H279 H 0.03479 0.20009 0.37925 0.0
H280 H 0.99067 0.06306 0.40838 0.0
O281 O 0.10286 0.17954 0.42644 0.0
C282 C 0.07892 1.01689 0.32218 0.0
O283 O 0.04773 0.99029 0.34293 0.0
N284 N 0.09649 0.07922 0.4402 0.0
C285 C 0.05473 0.08739 0.52348 0.0
C286 C 0.10122 0.10214 0.51924 0.0
C287 C 0.12208 0.09745 0.47638 0.0
C288 C 0.06259 0.04664 0.45056 0.0
C289 C 0.03761 0.05299 0.49198 0.0
H290 H 0.15484 0.11547 0.47098 0.0
H291 H 0.0491 1.02277 0.42404 0.0
H292 H 0.18937 0.18148 0.38753 0.0
H293 H 0.25111 0.0525 0.41178 0.0
H294 H 0.95373 0.20252 0.41939 0.0
H295 H 0.11785 0.1239 0.54551 0.0
H296 H 1.00424 0.03534 0.49677 0.0
C297 C 0.22412 1.02179 0.59301 0.0
C298 C 0.19106 0.05614 0.59395 0.0
N299 N 0.16109 0.04652 0.62815 0.0
N300 N 0.21529 0.99011 0.62648 0.0
C301 C 0.17578 1.00661 0.64594 0.0
H302 H 0.24974 1.01779 0.56602 0.0
Co303 Co 0.22674 0.92437 0.62143 0.0
C304 C 0.13069 0.89953 0.64932 0.0
O305 O 0.14788 0.8671 0.67531 0.0
N306 N 0.22978 0.85728 0.61106 0.0
C307 C 0.17355 0.8041 0.59464 0.0
C308 C 0.19715 0.84299 0.57942 0.0
C309 C 0.23022 0.82031 0.64019 0.0
N310 N 0.19356 0.7906 0.6341 0.0
O311 O 0.23755 0.9308 0.55196 0.0
H312 H 0.18429 0.86422 0.55183 0.0
H313 H 0.25825 0.81278 0.66329 0.0
O314 O 0.15649 0.91818 0.618 0.0
C315 C 0.28008 0.92458 0.53899 0.0
O316 O 0.31096 0.91658 0.57127 0.0
N317 N 0.22771 0.91791 0.69141 0.0
C318 C 0.2013 0.86609 0.76751 0.0
C319 C 0.18539 0.91181 0.7626 0.0
C320 C 0.20088 0.93829 0.72497 0.0
C321 C 0.25774 0.88628 0.7087 0.0
C322 C 0.24268 0.85601 0.74463 0.0
H323 H 0.19143 0.97419 0.72451 0.0
H324 H 0.2888 0.87847 0.68941 0.0
H325 H 0.1532 0.98701 0.66804 0.0
H326 H 0.18701 0.08271 0.56833 0.0
H327 H 0.14227 0.78891 0.57896 0.0
H328 H 0.1589 0.92539 0.78523 0.0
H329 H 0.2607 0.82414 0.75152 0.0
C330 C 0.46197 0.9736 0.85761 0.0
C331 C 0.50924 0.96873 0.85673 0.0
N332 N 0.52239 0.95071 0.89733 0.0
N333 N 0.44491 0.95921 0.89888 0.0
C334 C 0.48345 0.94739 0.92303 0.0
H335 H 0.44174 0.984 0.82831 0.0
Co336 Co 0.38159 0.94554 0.91506 0.0
C337 C 0.40656 0.87507 0.99117 0.0
O338 O 0.38691 0.84055 0.96762 0.0
N339 N 0.31752 0.93076 0.93572 0.0
C340 C 0.24483 0.93661 0.96316 0.0
C341 C 0.28564 0.96101 0.95095 0.0
C342 C 0.29612 0.88818 0.94439 0.0
N343 N 0.25086 0.89022 0.95647 0.0
O344 O 0.3613 0.98232 0.85578 0.0
H345 H 0.29148 0.99865 0.95282 0.0
H346 H 0.31254 0.85518 0.94065 0.0
O347 O 0.40435 0.9167 0.97533 0.0
C348 C 0.35069 0.98266 0.81158 0.0
O349 O 0.34503 0.94284 0.78832 0.0
N350 N 0.38281 0.88769 0.87876 0.0
C351 C 0.36658 0.79357 0.8783 0.0
C352 C 0.41264 0.81067 0.87724 0.0
C353 C 0.42009 0.85913 0.87904 0.0
C354 C 0.34262 0.87019 0.85849 0.0
C355 C 0.33273 0.82176 0.85942 0.0
H356 H 0.45421 0.87159 0.88885 0.0
H357 H 0.31408 0.89294 0.8523 0.0
H358 H 0.48303 0.93268 0.9573 0.0
H359 H 0.5317 0.97517 0.82727 0.0
H360 H 0.21357 0.95255 0.97521 0.0
H361 H 0.44105 0.78844 0.88587 0.0
H362 H 0.29716 0.80902 0.85521 0.0
C363 C 0.34574 0.07527 0.11823 0.0
C364 C 0.34123 0.03577 0.14452 0.0
N365 N 0.38075 1.01213 0.14129 0.0
N366 N 0.38851 0.07766 0.0991 0.0
C367 C 0.40831 0.03717 0.11214 0.0
H368 H 0.32155 0.10346 0.11856 0.0
Co369 Co 0.41742 0.13668 0.08631 0.0
C370 C 0.5145 0.12051 0.13017 0.0
O371 O 0.51431 0.15979 0.15501 0.0
N372 N 0.44614 0.19709 0.07606 0.0
C373 C 0.4993 0.25402 0.09188 0.0
C374 C 0.49197 0.20886 0.07431 0.0
C375 C 0.42642 0.23797 0.08825 0.0
N376 N 0.4577 0.27149 0.10183 0.0
O377 O 0.35522 0.15951 0.06094 0.0
H378 H 0.51902 0.18499 0.06525 0.0
H379 H 0.38956 0.24253 0.09037 0.0
O380 O 0.47983 0.1098 0.10338 0.0
C381 C 0.34909 0.17604 1.01971 0.0
O382 O 0.38586 0.18576 0.99441 0.0
N383 N 0.40596 0.15504 0.15141 0.0
C384 C 0.40923 0.18979 0.24384 0.0
C385 C 0.43218 0.14925 0.23078 0.0
C386 C 0.4278 0.13111 0.18554 0.0
C387 C 0.37802 0.19064 0.16507 0.0
C388 C 0.3802 0.20937 0.2106 0.0
H389 H 0.44299 0.09777 0.17827 0.0
H390 H 0.35303 0.20424 0.14136 0.0
H391 H 0.44425 0.02934 0.10585 0.0
H392 H 0.31199 0.02657 0.16645 0.0
H393 H 0.53246 0.27189 0.09847 0.0
H394 H 0.45 0.12933 0.25664 0.0
H395 H 0.35703 0.2369 0.22074 0.0
C396 C 0.2121 0.95382 0.24355 0.0
C397 C 0.25733 0.94287 0.23511 0.0
N398 N 0.25992 0.89583 0.23001 0.0
N399 N 0.186 0.91374 0.24317 0.0
C400 C 0.21699 0.87913 0.23929 0.0
H401 H 0.19906 0.98846 0.24006 0.0
Co402 Co 0.12587 0.90189 0.22036 0.0
C403 C 0.14444 0.83709 0.1347 0.0
O404 O 0.11867 0.86353 0.10898 0.0
N405 N 0.06589 0.88297 0.19735 0.0
C406 C 0.0329 0.81972 0.16274 0.0
C407 C 0.06177 0.83576 0.19769 0.0
C408 C 0.03398 0.89482 0.16481 0.0
N409 N 1.01374 0.85682 0.14264 0.0
O410 O 0.09938 0.95271 0.267 0.0
H411 H 0.08257 0.81386 0.21919 0.0
H412 H 1.02396 0.93015 0.15829 0.0
O413 O 0.1512 0.84888 0.17763 0.0
C414 C 0.10256 0.99722 0.27905 0.0
O415 O 0.128 0.02626 0.25425 0.0
N416 N 0.13544 0.94682 0.1723 0.0
C417 C 0.12408 0.96444 0.07984 0.0
C418 C 0.16789 0.95218 0.09629 0.0
C419 C 0.17241 0.94209 0.14316 0.0
C420 C 0.10108 0.97577 0.15968 0.0
C421 C 0.09323 0.98333 0.11242 0.0
H422 H 0.20193 0.92243 0.15328 0.0
H423 H 0.07466 0.98517 0.18438 0.0
H424 H 0.20724 0.8423 0.2352 0.0
H425 H 0.28414 0.96815 0.22571 0.0
H426 H 1.02516 0.78304 0.15493 0.0
H427 H 0.19531 0.94211 0.07299 0.0
H428 H 0.06068 0.99776 0.10191 0.0
C429 C 0.41944 0.8287 0.48545 0.0
C430 C 0.43234 0.7833 0.47753 0.0
N431 N 0.414 0.768 0.4366 0.0
N432 N 0.39281 0.84226 0.45 0.0
C433 C 0.38708 0.80309 0.42247 0.0
H434 H 0.43396 0.8524 0.5119 0.0
Co435 Co 0.3951 0.90675 0.43679 0.0
C436 C 0.35218 0.8956 0.33585 0.0
O437 O 0.31393 0.87575 0.31866 0.0
N438 N 0.39876 0.97247 0.42505 0.0
C439 C 0.38054 0.04403 0.40252 0.0
C440 C 0.36555 0.99769 0.40508 0.0
C441 C 0.43306 1.00506 0.43538 0.0
N442 N 0.42356 0.04847 0.4208 0.0
O443 O 0.33931 0.91626 0.47949 0.0
H444 H 0.33228 0.98347 0.39313 0.0
H445 H 0.46307 0.9986 0.45631 0.0
O446 O 0.35603 0.89677 0.38059 0.0
C447 C 0.29644 0.92477 0.48914 0.0
O448 O 0.2671 0.93273 0.45546 0.0
N449 N 0.44963 0.89629 0.40063 0.0
C450 C 0.52319 0.89966 0.33892 0.0
C451 C 0.48759 0.86594 0.33289 0.0
C452 C 0.45132 0.86465 0.36436 0.0
C453 C 0.49 0.91882 0.41373 0.0
C454 C 0.52644 0.92344 0.38226 0.0
H455 H 0.42276 0.84157 0.35524 0.0
H456 H 0.49382 0.93381 0.44815 0.0
H457 H 0.36868 0.80233 0.38963 0.0
H458 H 0.45764 0.76506 0.49774 0.0
H459 H 0.36124 0.07168 0.38765 0.0
H460 H 0.48524 0.84334 0.30235 0.0
H461 H 0.55634 0.9451 0.39232 0.0
C462 C 0.4596 0.08422 0.73876 0.0
C463 C 0.50185 0.09722 0.72043 0.0
N464 N 0.5027 0.08306 0.67553 0.0
N465 N 0.43354 0.06304 0.70485 0.0
C466 C 0.46338 0.05716 0.66955 0.0
H467 H 0.44632 0.09965 0.7703 0.0
Co468 Co 0.37244 0.07528 0.68683 0.0
C469 C 0.41465 0.11454 0.5941 0.0
O470 O 0.41676 0.07262 0.57441 0.0
N471 N 0.30958 0.08809 0.66247 0.0
C472 C 0.27471 0.11883 0.60057 0.0
C473 C 0.30811 0.08932 0.61558 0.0
C474 C 0.27114 0.11303 0.67425 0.0
N475 N 0.25101 0.13424 0.63758 0.0
O476 O 0.34941 0.02959 0.73935 0.0
H477 H 0.3318 0.07154 0.59301 0.0
H478 H 0.25717 0.11561 0.70881 0.0
O479 O 0.39767 0.11858 0.63526 0.0
C480 C 0.35772 0.02739 0.78393 0.0
O481 O 0.37843 0.0633 0.80538 0.0
N482 N 0.372 0.12918 0.72663 0.0
C483 C 0.33268 0.21292 0.71778 0.0
C484 C 0.37999 0.20984 0.70879 0.0
C485 C 0.3999 0.16684 0.71487 0.0
C486 C 0.33291 0.13708 0.75125 0.0
C487 C 0.3119 0.18026 0.74729 0.0
H488 H 0.43359 0.16218 0.69957 0.0
H489 H 0.31191 0.10763 0.76279 0.0
H490 H 0.45317 0.04122 0.63694 0.0
H491 H 0.52592 0.12264 0.73625 0.0
H492 H 0.26851 0.12804 0.56486 0.0
H493 H 0.39879 0.23679 0.69001 0.0
H494 H 0.27655 0.1835 0.75865 0.0
C495 C 0.24734 0.28872 0.91045 0.0
C496 C 0.23612 0.32477 0.88122 0.0
N497 N 0.24044 0.31047 0.83646 0.0
N498 N 0.25597 0.25028 0.88485 0.0
C499 C 0.25749 0.26695 0.84081 0.0
H500 H 0.24821 0.29027 0.94787 0.0
Co501 Co 0.2598 0.18412 0.89528 0.0
C502 C 0.18663 0.19294 0.82121 0.0
O503 O 0.17035 0.23026 0.84218 0.0
N504 N 0.26961 0.11962 0.89937 0.0
C505 C 0.2714 0.05904 0.85063 0.0
C506 C 0.2883 0.10359 0.85996 0.0
C507 C 0.24755 0.0816 0.91776 0.0
N508 N 0.24447 0.04579 0.88626 0.0
O509 O 0.2984 0.19389 0.95487 0.0
H510 H 0.30608 0.12643 0.83633 0.0
H511 H 0.22599 0.08329 0.94842 0.0
O512 O 0.22375 0.1736 0.83618 0.0
C513 C 0.30208 0.17603 0.99577 0.0
O514 O 0.26846 0.14839 1.0112 0.0
N515 N 0.19779 0.17613 0.92372 0.0
C516 C 0.10227 0.18353 0.91035 0.0
C517 C 0.12735 0.21729 0.93774 0.0
C518 C 0.17528 0.21097 0.94644 0.0
C519 C 0.17064 0.13988 0.90461 0.0
C520 C 0.12328 0.14179 0.90015 0.0
H521 H 0.19516 0.2355 0.96758 0.0
H522 H 0.18402 0.11456 0.88072 0.0
H523 H 0.26619 0.24521 0.81119 0.0
H524 H 0.22341 0.35714 0.89367 0.0
H525 H 0.27277 0.04076 0.81747 0.0
H526 H 0.11068 0.24845 0.95021 0.0
H527 H 0.10567 0.11457 0.8793 0.0
C528 C 0.91945 0.32868 0.98544 0.0
C529 C 0.93233 0.28328 0.97751 0.0
N530 N 0.91399 0.26799 0.93658 0.0
N531 N 0.89281 0.34226 0.94999 0.0
C532 C 0.88708 0.3031 0.92245 0.0
H533 H 0.93397 0.35238 1.01189 0.0
Co534 Co 0.89511 0.40675 0.93679 0.0
C535 C 0.85217 0.39561 0.83586 0.0
O536 O 0.81391 0.37578 0.81867 0.0
N537 N 0.89877 0.47248 0.92505 0.0
C538 C 0.88055 0.54402 0.9025 0.0
C539 C 0.86556 0.49769 0.90507 0.0
C540 C 0.93307 0.50506 0.93536 0.0
N541 N 0.92357 0.54847 0.92078 0.0
O542 O 0.83932 0.41626 0.9795 0.0
H543 H 0.83229 0.48346 0.89313 0.0
H544 H 0.96309 0.49861 0.9563 0.0
O545 O 0.85603 0.39678 0.8806 0.0
C546 C 0.79645 0.42478 0.98915 0.0
O547 O 0.76711 0.43275 0.95548 0.0
N548 N 0.94964 0.3963 0.90063 0.0
C549 C 1.0232 0.39969 0.83892 0.0
C550 C 0.9876 0.36596 0.83288 0.0
C551 C 0.95134 0.36466 0.86435 0.0
C552 C 0.99001 0.41883 0.91372 0.0
C553 C 1.02644 0.42346 0.88225 0.0
H554 H 0.92277 0.34158 0.85523 0.0
H555 H 0.99383 0.43381 0.94815 0.0
H556 H 0.86867 0.30235 0.88961 0.0
H557 H 0.95762 0.26504 0.99772 0.0
H558 H 0.86125 0.57167 0.88761 0.0
H559 H 0.98526 0.34336 0.80233 0.0
H560 H 0.05634 0.44513 0.89232 0.0
C561 C 0.9596 0.58426 0.23877 0.0
C562 C 1.00185 0.59726 0.22045 0.0
N563 N 1.00271 0.5831 0.17555 0.0
N564 N 0.93355 0.56306 0.20486 0.0
C565 C 0.96339 0.55719 0.16956 0.0
H566 H 0.94632 0.59968 0.27031 0.0
Co567 Co 0.87244 0.57529 0.18684 0.0
C568 C 0.91464 0.61453 0.0941 0.0
O569 O 0.91675 0.57261 0.07443 0.0
N570 N 0.80958 0.5881 0.16247 0.0
C571 C 0.77471 0.61882 0.10055 0.0
C572 C 0.80811 0.58931 0.11558 0.0
C573 C 0.77115 0.61305 0.17424 0.0
N574 N 0.75101 0.63424 0.13756 0.0
O575 O 0.84941 0.5296 0.23936 0.0
H576 H 0.8318 0.57152 0.09301 0.0
H577 H 0.75717 0.61564 0.2088 0.0
O578 O 0.89767 0.61859 0.13527 0.0
C579 C 0.85772 0.5274 0.28394 0.0
O580 O 0.87843 0.56332 0.30539 0.0
N581 N 0.872 0.6292 0.22663 0.0
C582 C 0.8327 0.71295 0.2178 0.0
C583 C 0.88001 0.70987 0.20884 0.0
C584 C 0.8999 0.66686 0.21488 0.0
C585 C 0.8329 0.6371 0.25124 0.0
C586 C 0.8119 0.68028 0.2473 0.0
H587 H 0.93359 0.66219 0.19958 0.0
H588 H 0.8119 0.60765 0.26278 0.0
H589 H 0.95319 0.54124 0.13695 0.0
H590 H 1.02592 0.62269 0.23627 0.0
H591 H 0.76851 0.62801 0.06484 0.0
H592 H 0.89883 0.73683 0.19008 0.0
H593 H 0.77655 0.68352 0.25864 0.0
C594 C 0.74731 0.78868 0.41049 0.0
C595 C 0.73609 0.82473 0.38125 0.0
N596 N 0.74045 0.81044 0.33649 0.0
N597 N 0.75597 0.75025 0.38488 0.0
C598 C 0.75751 0.76693 0.34085 0.0
H599 H 0.74816 0.79023 0.44791 0.0
Co600 Co 0.75981 0.6841 0.39529 0.0
C601 C 0.68666 0.69293 0.32121 0.0
O602 O 0.67036 0.73023 0.3422 0.0
N603 N 0.76963 0.6196 0.39937 0.0
C604 C 0.7714 0.55904 0.35061 0.0
C605 C 0.78832 0.60358 0.35995 0.0
C606 C 0.74757 0.58158 0.41775 0.0
N607 N 0.74448 0.54578 0.38624 0.0
O608 O 0.79841 0.69386 0.45489 0.0
H609 H 0.8061 0.62642 0.33633 0.0
H610 H 0.72601 0.58327 0.44842 0.0
O611 O 0.72378 0.67359 0.33619 0.0
C612 C 0.80207 0.67602 0.4958 0.0
O613 O 0.76844 0.6484 0.51123 0.0
N614 N 0.69781 0.67609 0.42373 0.0
C615 C 0.60228 0.68347 0.41038 0.0
C616 C 0.62736 0.71722 0.43778 0.0
C617 C 0.67529 0.7109 0.44648 0.0
C618 C 0.67066 0.63984 0.4046 0.0
C619 C 0.6233 0.64174 0.40015 0.0
H620 H 0.69517 0.73542 0.46763 0.0
H621 H 0.68405 0.61454 0.38069 0.0
H622 H 0.76624 0.74519 0.31124 0.0
H623 H 0.72338 0.8571 0.39369 0.0
H624 H 0.77276 0.54077 0.31744 0.0
H625 H 0.61068 0.74838 0.45027 0.0
H626 H 0.60569 0.61454 0.37928 0.0
C627 C 0.96196 0.47368 0.35767 0.0
C628 C 1.00924 0.46881 0.3568 0.0
N629 N 1.02238 0.45076 0.39739 0.0
N630 N 0.94489 0.45926 0.39893 0.0
C631 C 0.98343 0.44743 0.42308 0.0
H632 H 0.94175 0.48411 0.32837 0.0
Co633 Co 0.88158 0.44557 0.41508 0.0
C634 C 0.90654 0.3751 0.49117 0.0
O635 O 0.88692 0.34059 0.46759 0.0
N636 N 0.8175 0.43078 0.43572 0.0
C637 C 0.74481 0.43663 0.46314 0.0
C638 C 0.78562 0.46103 0.45094 0.0
C639 C 0.7961 0.3882 0.44439 0.0
N640 N 0.75084 0.39023 0.45646 0.0
O641 O 0.86129 0.48236 0.3558 0.0
H642 H 0.79145 0.49867 0.45282 0.0
H643 H 0.81253 0.35521 0.44066 0.0
O644 O 0.90432 0.41674 0.47535 0.0
C645 C 0.85069 0.48268 0.3116 0.0
O646 O 0.84507 0.44286 0.28833 0.0
N647 N 0.88281 0.38773 0.37876 0.0
C648 C 0.86663 0.2936 0.37828 0.0
C649 C 0.91268 0.31073 0.37718 0.0
C650 C 0.9201 0.35919 0.37901 0.0
C651 C 0.84262 0.37021 0.3585 0.0
C652 C 0.83276 0.32178 0.35943 0.0
H653 H 0.95423 0.37167 0.38878 0.0
H654 H 0.81407 0.39295 0.35232 0.0
H655 H 0.983 0.4327 0.45734 0.0
H656 H 0.03171 0.47526 0.32735 0.0
H657 H 0.71354 0.45256 0.47519 0.0
H658 H 0.94112 0.28852 0.38578 0.0
H659 H 0.79719 0.30901 0.35525 0.0
C660 C 0.68228 0.56999 0.88702 0.0
C661 C 0.727 0.57888 0.90175 0.0
N662 N 0.73432 0.62581 0.90573 0.0
N663 N 0.66104 0.61111 0.88198 0.0
C664 C 0.69485 0.64434 0.88982 0.0
H665 H 0.66492 0.53575 0.88581 0.0
Co666 Co 0.59646 0.61689 0.88525 0.0
C667 C 0.62648 0.70885 0.95348 0.0
O668 O 0.66896 0.69923 0.9658 0.0
N669 N 0.52969 0.62533 0.88878 0.0
C670 C 0.47126 0.67121 0.91006 0.0
C671 C 0.51416 0.66963 0.88917 0.0
C672 C 0.49285 0.60049 0.90645 0.0
N673 N 0.45789 0.62745 0.92154 0.0
O674 O 0.59091 0.5577 0.84075 0.0
H675 H 0.53478 0.70016 0.8792 0.0
H676 H 0.4906 0.56314 0.9083 0.0
O677 O 0.60282 0.67957 0.92644 0.0
C678 C 0.57887 0.51694 0.82217 0.0
O679 O 0.54769 0.49034 0.84294 0.0
N680 N 0.5964 0.57926 0.94018 0.0
C681 C 0.55465 0.58742 0.02348 0.0
C682 C 0.60115 0.60214 1.01924 0.0
C683 C 0.622 0.59747 0.97637 0.0
C684 C 0.56248 0.54671 0.95053 0.0
C685 C 0.5375 0.55305 0.99196 0.0
H686 H 0.65477 0.61547 0.97098 0.0
H687 H 0.54899 0.52284 0.92401 0.0
H688 H 0.68936 0.6815 0.88754 0.0
H689 H 0.75105 0.55249 0.91178 0.0
H690 H 0.45367 0.70262 0.91929 0.0
H691 H 0.6178 0.62387 0.04552 0.0
H692 H 0.50412 0.53542 0.99674 0.0
C693 C 0.92101 0.72167 0.03452 0.0
C694 C 0.91412 0.69772 0.07558 0.0
N695 N 0.92688 0.65319 0.06865 0.0
N696 N 0.93888 0.69266 1.00191 0.0
C697 C 0.94451 0.65217 0.02522 0.0
H698 H 0.90742 0.75568 0.02712 0.0
Co699 Co 0.92538 0.69649 0.93668 0.0
C700 C 0.9508 0.5885 0.92648 0.0
O701 O 0.99463 0.58574 0.93859 0.0
N702 N 0.90901 0.69609 0.87053 0.0
C703 C 0.86433 0.67129 0.81035 0.0
C704 C 0.8717 0.66912 0.85641 0.0
C705 C 0.92664 0.71075 0.82901 0.0
N706 N 0.89898 0.69677 0.79218 0.0
O707 O 0.9935 0.71523 0.92221 0.0
H708 H 0.85175 0.64563 0.87733 0.0
H709 H 0.96014 0.7286 0.8255 0.0
O710 O 0.932 0.62846 0.92752 0.0
C711 C 1.01485 0.75279 0.93935 0.0
O712 O 0.99338 0.77791 0.97081 0.0
N713 N 0.86119 0.68463 0.95181 0.0
C714 C 0.7729 0.64965 0.92958 0.0
C715 C 0.80202 0.62436 0.95839 0.0
C716 C 0.84622 0.64245 0.96914 0.0
C717 C 0.82927 0.71471 0.93526 0.0
C718 C 0.78475 0.69728 0.92226 0.0
H719 H 0.86979 0.61935 0.98557 0.0
H720 H 0.84069 0.74921 0.924 0.0
H721 H 0.95546 0.62012 1.00926 0.0
H722 H 0.89577 0.71031 0.1057 0.0
H723 H 0.83868 0.65039 0.79071 0.0
H724 H 0.79283 0.58903 0.96892 0.0
H725 H 0.76237 0.7192 0.90245 0.0
C726 C 0.03358 0.18909 0.57993 0.0
C727 C 1.02146 0.16168 0.54146 0.0
N728 N 1.02518 0.11576 0.55174 0.0
N729 N 0.04446 0.16029 0.61446 0.0
C730 C 0.03275 0.11703 0.59765 0.0
H731 H 0.04134 0.22642 0.57969 0.0
Co732 Co 0.07915 0.16261 0.66925 0.0
C733 C 0.12164 0.06844 0.64146 0.0
O734 O 0.08918 0.04457 0.66377 0.0
N735 N 0.11134 0.15768 0.72814 0.0
C736 C 0.16438 0.12639 0.7743 0.0
C737 C 0.13293 0.11789 0.73975 0.0
C738 C 0.12559 0.18834 0.76239 0.0
N739 N 0.16047 0.17101 0.78795 0.0
O740 O 0.03626 0.21385 0.69464 0.0
H741 H 0.1269 0.08368 0.72532 0.0
H742 H 0.11416 0.2241 0.76549 0.0
O743 O 0.12035 0.11321 0.64198 0.0
C744 C 1.02459 0.25583 0.68324 0.0
O745 O 0.04807 0.27808 0.65099 0.0
N746 N 0.12671 0.20771 0.64459 0.0
C747 C 0.21275 0.1668 0.63726 0.0
C748 C 0.18627 0.17442 0.59688 0.0
C749 C 0.14316 0.19627 0.60135 0.0
C750 C 0.16093 0.22067 0.67541 0.0
C751 C 0.20151 0.19449 0.67636 0.0
H752 H 0.12159 0.19881 0.57101 0.0
H753 H 0.15422 0.24585 0.70278 0.0
H754 H 0.03709 0.08568 0.61694 0.0
H755 H 1.02031 0.17466 0.50643 0.0
H756 H 0.18738 0.10132 0.78919 0.0
H757 H 0.19659 0.16129 0.56316 0.0
H758 H 0.22345 0.19667 0.70653 0.0
C759 C 0.60387 0.33521 0.32468 0.0
C760 C 0.62698 0.32926 0.28355 0.0
N761 N 0.67319 0.33111 0.29174 0.0
N762 N 0.6348 0.33686 0.35961 0.0
C763 C 0.67546 0.32744 0.33843 0.0
H764 H 0.56779 0.34394 0.32828 0.0
Co765 Co 0.62064 0.36961 0.41525 0.0
C766 C 0.72122 0.35141 0.4618 0.0
O767 O 0.73922 0.31229 0.47579 0.0
N768 N 0.60387 0.40213 0.46957 0.0
C769 C 0.56475 0.44924 0.51664 0.0
C770 C 0.5624 0.42148 0.47688 0.0
C771 C 0.63 0.41696 0.50623 0.0
N772 N 0.60782 0.44704 0.53483 0.0
O773 O 0.5778 0.31319 0.43567 0.0
H774 H 0.53295 0.41721 0.45362 0.0
H775 H 0.66418 0.40465 0.51266 0.0
O776 O 0.67866 0.34815 0.44663 0.0
C777 C 0.56012 0.2732 0.41993 0.0
O778 O 0.57679 0.25422 0.38188 0.0
N779 N 0.65578 0.42545 0.39462 0.0
C780 C 0.71131 0.50703 0.38397 0.0
C781 C 0.72485 0.46458 0.36505 0.0
C782 C 0.69864 0.42423 0.3742 0.0
C783 C 0.63787 0.46874 0.40333 0.0
C784 C 0.66615 0.50973 0.40148 0.0
H785 H 0.71776 0.39344 0.37123 0.0
H786 H 0.60263 0.47195 0.41488 0.0
H787 H 0.70785 0.32389 0.35683 0.0
H788 H 0.61132 0.33258 0.2497 0.0
H789 H 0.53654 0.46881 0.53115 0.0
H790 H 0.75926 0.46125 0.3507 0.0
H791 H 0.65289 0.54262 0.414 0.0
C792 C 0.45133 0.82268 0.09095 0.0
C793 C 0.43824 0.8213 0.04528 0.0
N794 N 0.42916 0.86504 0.03167 0.0
N795 N 0.45054 0.86723 0.10754 0.0
C796 C 0.43901 0.89273 0.06949 0.0
H797 H 0.4551 0.79181 0.11146 0.0
Co798 Co 0.44081 0.88182 0.17198 0.0
C799 C 0.39128 0.97405 0.16682 0.0
O800 O 0.36494 0.9626 0.20212 0.0
N801 N 0.4286 0.89822 0.23785 0.0
C802 C 0.41537 0.94386 0.30129 0.0
C803 C 0.44014 0.93953 0.25994 0.0
C804 C 0.39888 0.87752 0.26864 0.0
N805 N 0.38843 0.90477 0.30592 0.0
O806 O 0.4669 0.81836 0.19049 0.0
H807 H 0.46228 0.96672 0.24517 0.0
H808 H 0.38804 0.8412 0.26731 0.0
O809 O 0.42284 0.94626 0.15362 0.0
C810 C 0.48181 0.77806 0.20349 0.0
O811 O 0.45763 0.75454 0.23436 0.0
N812 N 0.37728 0.85707 0.16352 0.0
C813 C 0.29181 0.87273 0.19938 0.0
C814 C 0.30449 0.89335 0.15737 0.0
C815 C 0.34749 0.88314 0.1385 0.0
C816 C 0.35765 0.82328 0.19085 0.0
C817 C 0.31458 0.83207 0.21197 0.0
H818 H 0.35944 0.90394 0.10985 0.0
H819 H 0.37863 0.79595 0.20445 0.0
H820 H 0.43142 0.92965 0.07094 0.0
H821 H 0.43241 0.78949 0.025 0.0
H822 H 0.41505 0.97452 0.32395 0.0
H823 H 0.285 0.92158 0.14311 0.0
H824 H 0.30304 0.81171 0.24137 0.0
C825 C 0.95127 0.32269 0.59095 0.0
C826 C 0.93818 0.32131 0.54529 0.0
N827 N 0.92913 0.36506 0.53168 0.0
N828 N 0.95052 0.36724 0.60754 0.0
C829 C 0.93901 0.39274 0.56949 0.0
H830 H 0.95503 0.29181 0.61146 0.0
Co831 Co 0.94079 0.38182 0.67199 0.0
C832 C 0.89125 0.47404 0.66686 0.0
O833 O 0.8649 0.46255 0.70214 0.0
N834 N 0.92859 0.39821 0.73785 0.0
C835 C 0.91537 0.44385 0.80129 0.0
C836 C 0.94014 0.43951 0.75994 0.0
C837 C 0.89887 0.37751 0.76864 0.0
N838 N 0.88842 0.40477 0.80592 0.0
O839 O 0.96687 0.31835 0.69048 0.0
H840 H 0.96229 0.4667 0.74517 0.0
H841 H 0.88802 0.3412 0.76732 0.0
O842 O 0.92282 0.44626 0.65364 0.0
C843 C 0.98178 0.27805 0.70347 0.0
O844 O 0.9576 0.25452 0.73434 0.0
N845 N 0.87726 0.35708 0.66352 0.0
C846 C 0.79177 0.37277 0.69931 0.0
C847 C 0.80448 0.39336 0.65729 0.0
C848 C 0.84749 0.38313 0.63847 0.0
C849 C 0.85761 0.3233 0.69086 0.0
C850 C 0.81453 0.33212 0.71195 0.0
H851 H 0.85946 0.40393 0.60982 0.0
H852 H 0.87858 0.29597 0.70448 0.0
H853 H 0.93144 0.42967 0.57095 0.0
H854 H 0.93231 0.2895 0.52501 0.0
H855 H 0.91506 0.47452 0.82396 0.0
H856 H 0.785 0.42157 0.643 0.0
H857 H 0.80297 0.31178 0.74135 0.0
C858 C 0.42099 0.22169 0.53453 0.0
C859 C 0.4141 0.19773 0.57559 0.0
N860 N 0.42688 0.15321 0.56867 0.0
N861 N 0.43888 0.19269 0.50193 0.0
C862 C 0.44453 0.15221 0.52524 0.0
H863 H 0.40739 0.25569 0.52713 0.0
Co864 Co 0.42538 0.1965 0.4367 0.0
C865 C 0.45079 0.0885 0.42651 0.0
O866 O 0.49463 0.08573 0.43861 0.0
N867 N 0.40901 0.19607 0.37056 0.0
C868 C 0.36436 0.17116 0.31036 0.0
C869 C 0.37169 0.16909 0.35644 0.0
C870 C 0.42668 0.21066 0.32902 0.0
N871 N 0.39908 0.19654 0.29221 0.0
O872 O 0.4935 0.21523 0.42222 0.0
H873 H 0.35171 0.14564 0.37738 0.0
H874 H 0.46018 0.22852 0.32552 0.0
O875 O 0.43199 0.12846 0.42756 0.0
C876 C 0.51484 0.2528 0.43935 0.0
O877 O 0.49338 0.27793 0.4708 0.0
N878 N 0.36119 0.18465 0.45184 0.0
C879 C 0.27291 0.14967 0.4296 0.0
C880 C 0.30202 0.12438 0.45843 0.0
C881 C 0.34623 0.14248 0.46918 0.0
C882 C 0.32928 0.21473 0.43528 0.0
C883 C 0.28475 0.1973 0.42229 0.0
H884 H 0.36979 0.11938 0.48562 0.0
H885 H 0.34069 0.24922 0.42402 0.0
H886 H 0.45551 0.12017 0.50928 0.0
H887 H 0.39573 0.21031 0.6057 0.0
H888 H 0.33872 0.15025 0.29073 0.0
H889 H 0.29283 0.08906 0.46896 0.0
H890 H 0.26238 0.21921 0.40246 0.0
C891 C 0.53357 0.68912 0.07994 0.0
C892 C 0.52141 0.66172 0.04148 0.0
N893 N 0.52511 0.6158 0.05176 0.0
N894 N 0.54445 0.66031 0.11447 0.0
C895 C 0.5327 0.61706 0.09766 0.0
H896 H 0.54134 0.72644 0.0797 0.0
Co897 Co 0.57916 0.66262 0.16925 0.0
C898 C 0.62159 0.56843 0.14143 0.0
O899 O 0.58913 0.5446 0.16377 0.0
N900 N 0.61139 0.65768 0.22812 0.0
C901 C 0.66445 0.6264 0.27426 0.0
C902 C 0.63301 0.6179 0.2397 0.0
C903 C 0.62563 0.68833 0.26238 0.0
N904 N 0.66051 0.671 0.28794 0.0
O905 O 0.53629 0.71387 0.19465 0.0
H906 H 0.62702 0.58369 0.22525 0.0
H907 H 0.61417 0.72408 0.2655 0.0
O908 O 0.62033 0.61321 0.14195 0.0
C909 C 0.52462 0.75584 0.18325 0.0
O910 O 0.54809 0.77809 0.151 0.0
N911 N 0.62672 0.70771 0.14457 0.0
C912 C 0.71276 0.66681 0.13724 0.0
C913 C 0.68627 0.67441 0.09686 0.0
C914 C 0.64316 0.69626 0.10132 0.0
C915 C 0.66094 0.72068 0.17538 0.0
C916 C 0.70153 0.69451 0.17633 0.0
H917 H 0.62158 0.69878 0.07099 0.0
H918 H 0.65422 0.74584 0.20276 0.0
H919 H 0.53704 0.58571 0.11694 0.0
H920 H 0.52026 0.67471 1.00645 0.0
H921 H 0.68747 0.60134 0.28914 0.0
H922 H 0.69658 0.66127 0.06313 0.0
H923 H 0.72347 0.6967 0.20649 0.0
C924 C 0.10383 0.83526 0.82471 0.0
C925 C 0.12691 0.82939 0.78354 0.0
N926 N 0.1731 0.83123 0.79175 0.0
N927 N 0.13479 0.83686 0.85963 0.0
C928 C 0.17545 0.82748 0.83842 0.0
H929 H 0.06776 0.84399 0.82835 0.0
Co930 Co 0.12064 0.86961 0.91527 0.0
C931 C 0.22123 0.8514 0.96182 0.0
O932 O 0.23922 0.81227 0.9758 0.0
N933 N 0.10388 0.90212 0.9696 0.0
C934 C 0.06476 0.94925 1.01665 0.0
C935 C 0.06241 0.92148 0.97689 0.0
C936 C 0.13 0.91694 1.00626 0.0
N937 N 0.10781 0.94699 0.03487 0.0
O938 O 0.07781 0.81318 0.93569 0.0
H939 H 0.03298 0.91725 0.95361 0.0
H940 H 0.16419 0.90464 1.01269 0.0
O941 O 0.17867 0.84815 0.94665 0.0
C942 C 0.06012 0.77319 0.91994 0.0
O943 O 0.07678 0.75423 0.88187 0.0
N944 N 0.15578 0.92545 0.89464 0.0
C945 C 0.21131 1.00703 0.884 0.0
C946 C 0.22485 0.96458 0.86508 0.0
C947 C 0.19864 0.92424 0.87424 0.0
C948 C 0.13787 0.96874 0.90335 0.0
C949 C 0.16614 1.00974 0.90149 0.0
H950 H 0.21777 0.89344 0.87127 0.0
H951 H 0.10263 0.97195 0.91489 0.0
H952 H 0.20786 0.82392 0.85678 0.0
H953 H 0.11125 0.83278 0.74971 0.0
H954 H 0.03656 0.96886 0.03113 0.0
H955 H 0.25927 0.96126 0.85074 0.0
H956 H 0.15288 0.04262 0.914 0.0
C957 C 0.03859 0.94845 0.7118 0.0
C958 C 0.078 0.92334 0.70912 0.0
N959 N 0.09208 0.92149 0.66468 0.0
N960 N 1.02465 0.95899 0.66864 0.0
C961 C 0.0609 0.94649 0.64126 0.0
H962 H 1.01871 0.95343 0.74313 0.0
Co963 Co 0.96216 0.97383 0.6547 0.0
C964 C 0.98466 0.92112 0.56373 0.0
O965 O 1.01031 0.88879 0.58171 0.0
N966 N 0.90064 0.99032 0.64191 0.0
C967 C 0.83945 1.00343 0.59792 0.0
C968 C 0.88608 1.01374 0.60477 0.0
C969 C 0.86154 0.97019 0.65982 0.0
N970 N 0.82449 0.97387 0.6313 0.0
O971 O 0.95161 0.99721 0.72042 0.0
H972 H 0.90886 0.03219 0.58099 0.0
H973 H 0.86249 0.9461 0.68834 0.0
O974 O 0.97099 0.95615 0.5887 0.0
C975 C 0.95768 0.04187 0.7294 0.0
O976 O 0.97372 0.06893 0.69631 0.0
N977 N 0.94101 0.90664 0.66135 0.0
C978 C 0.94771 0.81447 0.62643 0.0
C979 C 0.97099 0.82876 0.66746 0.0
C980 C 0.96475 0.87432 0.68595 0.0
C981 C 0.91182 0.88916 0.62648 0.0
C982 C 0.91422 0.84336 0.60919 0.0
H983 H 0.9814 0.8836 0.71835 0.0
H984 H 0.89274 0.91176 0.60453 0.0
H985 H 0.06343 0.9534 0.60457 0.0
H986 H 0.09487 0.90802 0.73815 0.0
H987 H 0.81957 1.01329 0.56792 0.0
H988 H 0.99426 0.80539 0.68444 0.0
H989 H 0.89437 0.83289 0.57847 0.0
C990 C 0.80546 0.05585 0.35426 0.0
C991 C 0.83824 0.02642 0.33646 0.0
N992 N 0.8668 1.01424 0.37111 0.0
N993 N 0.8153 0.06545 0.39937 0.0
C994 C 0.84945 0.03548 0.40945 0.0
H995 H 0.78299 0.0766 0.33329 0.0
Co996 Co 0.81826 0.1292 0.41978 0.0
C997 C 0.9252 0.11496 0.45399 0.0
O998 O 0.93782 0.09084 0.48998 0.0
N999 N 0.82255 0.19248 0.44007 0.0
C1000 C 0.87988 0.24486 0.44739 0.0
C1001 C 0.85893 0.20656 0.46686 0.0
C1002 C 0.81639 0.22898 0.41171 0.0
N1003 N 0.85404 0.25803 0.41125 0.0
O1004 O 0.78688 0.11412 0.48071 0.0
H1005 H 0.87382 0.18644 0.49425 0.0
H1006 H 0.78762 0.23119 0.38792 0.0
O1007 O 0.88131 0.11799 0.44658 0.0
C1008 C 0.74588 0.12711 0.49261 0.0
O1009 O 0.72011 0.14736 0.46165 0.0
N1010 N 0.84681 0.14562 0.36091 0.0
C1011 C 0.90274 0.19439 0.2992 0.0
C1012 C 0.91767 0.15288 0.31873 0.0
C1013 C 0.88894 0.12891 0.34926 0.0
C1014 C 0.82676 0.17496 0.33026 0.0
C1015 C 0.855 0.20278 0.3013 0.0
H1016 H 0.90161 0.09796 0.36463 0.0
H1017 H 0.78992 0.18066 0.33177 0.0
H1018 H 0.86556 0.03427 0.44329 0.0
H1019 H 0.84314 1.01871 0.29993 0.0
H1020 H 0.91363 0.25945 0.45681 0.0
H1021 H 0.95166 0.13944 0.31169 0.0
H1022 H 0.84001 0.23057 0.28167 0.0
C1023 C 0.60518 0.07368 0.18789 0.0
C1024 C 0.5583 0.07978 0.18486 0.0
N1025 N 0.54661 0.08797 0.14044 0.0
N1026 N 0.62445 0.07871 0.14557 0.0
C1027 C 0.58716 0.08398 0.11692 0.0
H1028 H 0.62424 0.07397 0.22026 0.0
Co1029 Co 0.68776 0.10137 0.13671 0.0
C1030 C 0.68133 0.16931 0.06235 0.0
O1031 O 0.71268 0.19607 0.08412 0.0
N1032 N 0.75276 0.12329 0.12543 0.0
C1033 C 0.8153 0.13545 0.08022 0.0
C1034 C 0.77329 0.11115 0.08499 0.0
C1035 C 0.78501 0.15457 0.14449 0.0
N1036 N 0.82363 0.1623 0.11839 0.0
O1037 O 0.70601 0.07179 0.19393 0.0
H1038 H 0.75694 0.08853 0.05867 0.0
H1039 H 0.78141 0.17353 0.17654 0.0
O1040 O 0.66965 0.12912 0.0783 0.0
C1041 C 0.70726 0.02704 0.19645 0.0
O1042 O 0.69956 1.00115 0.15883 0.0
N1043 N 0.67145 0.15823 0.16945 0.0
C1044 C 0.67803 0.25271 0.16307 0.0
C1045 C 0.63557 0.23014 0.15285 0.0
C1046 C 0.63376 0.1818 0.15431 0.0
C1047 C 0.70081 0.18173 0.19949 0.0
C1048 C 0.70794 0.23031 0.1937 0.0
H1049 H 0.6066 0.16546 0.13413 0.0
H1050 H 0.72418 0.16249 0.22087 0.0
H1051 H 0.59082 0.09522 0.08141 0.0
H1052 H 0.53582 0.08546 0.21441 0.0
H1053 H 0.8357 0.13674 0.04897 0.0
H1054 H 0.6083 0.24752 0.1347 0.0
H1055 H 0.73885 0.24781 0.20786 0.0
C1056 C 0.70563 0.96977 0.95656 0.0
C1057 C 0.71286 1.01349 0.9385 0.0
N1058 N 0.6718 0.03383 0.93359 0.0
N1059 N 0.65969 0.95956 0.96077 0.0
C1060 C 0.6402 1.00157 0.94991 0.0
H1061 H 0.73316 0.94648 0.9643 0.0
Co1062 Co 0.63459 0.89502 0.97219 0.0
C1063 C 0.56549 0.93555 0.90767 0.0
O1064 O 0.59961 0.9442 0.87849 0.0
N1065 N 0.61091 0.83083 0.98328 0.0
C1066 C 0.56588 0.7661 0.96913 0.0
C1067 C 0.56646 0.81379 0.98078 0.0
C1068 C 0.63629 0.79155 0.97703 0.0
N1069 N 0.60998 0.75202 0.96679 0.0
O1070 O 0.69449 0.87987 1.00378 0.0
H1071 H 0.53635 0.83548 0.98113 0.0
H1072 H 0.67372 0.79309 0.97373 0.0
O1073 O 0.5736 0.91404 0.94569 0.0
C1074 C 0.73363 0.86978 1.02241 0.0
O1075 O 0.76794 0.85821 0.99504 0.0
N1076 N 0.65256 0.8718 0.9109 0.0
C1077 C 0.6607 0.85755 0.81524 0.0
C1078 C 0.69879 0.87481 0.84182 0.0
C1079 C 0.69446 0.88016 0.89012 0.0
C1080 C 0.61835 0.84779 0.88567 0.0
C1081 C 0.62202 0.83981 0.83814 0.0
H1082 H 0.72388 0.89365 0.90966 0.0
H1083 H 0.58484 0.83987 0.90014 0.0
H1084 H 0.60336 1.00743 0.95048 0.0
H1085 H 0.74626 0.02905 0.92908 0.0
H1086 H 0.53536 0.7442 0.96148 0.0
H1087 H 0.73006 0.88776 0.82493 0.0
H1088 H 0.59195 0.82649 0.81873 0.0
C1089 C 0.84157 0.12092 0.79319 0.0
C1090 C 0.79533 0.1315 0.79415 0.0
N1091 N 0.79159 0.17616 0.80939 0.0
N1092 N 0.86728 0.15855 0.80853 0.0
C1093 C 0.83559 0.19204 0.8163 0.0
H1094 H 0.85439 0.08657 0.78594 0.0
Co1095 Co 0.93044 0.16492 0.82697 0.0
C1096 C 0.92877 0.22982 0.91191 0.0
O1097 O 0.95966 0.20329 0.931 0.0
N1098 N 0.99412 0.1777 0.84416 0.0
C1099 C 0.0503 0.23148 0.86219 0.0
C1100 C 1.01036 0.22207 0.83685 0.0
C1101 C 1.02692 0.16053 0.8727 0.0
N1102 N 0.05992 0.19293 0.88589 0.0
O1103 O 0.94767 0.11019 0.7814 0.0
H1104 H 0.99239 0.24741 0.81667 0.0
H1105 H 1.02779 0.12535 0.88483 0.0
O1106 O 0.91456 0.21999 0.87022 0.0
C1107 C 0.94323 0.06485 0.77455 0.0
O1108 O 0.92152 0.03873 0.80521 0.0
N1109 N 0.91911 0.1229 0.87697 0.0
C1110 C 0.93122 0.1076 0.96968 0.0
C1111 C 0.89112 0.12876 0.95445 0.0
C1112 C 0.88478 0.13464 0.90721 0.0
C1113 C 0.94994 0.09033 0.89014 0.0
C1114 C 0.9581 0.08351 0.93745 0.0
H1115 H 0.85721 0.1567 0.89685 0.0
H1116 H 0.97357 0.07558 0.86527 0.0
H1117 H 0.84361 0.22616 0.83182 0.0
H1118 H 0.76647 0.10647 0.78971 0.0
H1119 H 0.07128 0.26352 0.86175 0.0
H1120 H 0.86755 0.14466 0.97868 0.0
H1121 H 0.98678 0.06279 0.94858 0.0
C1122 C 0.6594 0.23486 0.56674 0.0
C1123 C 0.65316 0.28222 0.57131 0.0
N1124 N 0.65831 0.29504 0.61634 0.0
N1125 N 0.66819 0.21662 0.60869 0.0
C1126 C 0.66932 0.25489 0.63817 0.0
H1127 H 0.65298 0.21443 0.53521 0.0
Co1128 Co 0.66147 0.14998 0.61832 0.0
C1129 C 0.61889 0.18094 0.71845 0.0
O1130 O 0.60148 0.22251 0.71308 0.0
N1131 N 0.65294 0.08328 0.62876 0.0
C1132 C 0.61384 1.01943 0.65448 0.0
C1133 C 0.62429 0.06592 0.66216 0.0
C1134 C 0.65957 0.045 0.601 0.0
N1135 N 0.63543 1.00628 0.61569 0.0
O1136 O 0.68792 0.13813 0.55367 0.0
H1137 H 0.60489 0.08627 0.68636 0.0
H1138 H 0.67873 0.0461 0.5688 0.0
O1139 O 0.63882 0.16035 0.68401 0.0
C1140 C 0.72914 0.12543 0.54219 0.0
O1141 O 0.75849 0.11487 0.57504 0.0
N1142 N 0.59854 0.15055 0.59484 0.0
C1143 C 0.52523 0.10924 0.63912 0.0
C1144 C 0.53384 0.15783 0.64463 0.0
C1145 C 0.57001 0.17868 0.61966 0.0
C1146 C 0.57935 0.11008 0.57563 0.0
C1147 C 0.54286 0.08701 0.59928 0.0
H1148 H 0.58062 0.21437 0.62852 0.0
H1149 H 0.59833 0.09055 0.54981 0.0
H1150 H 0.67368 0.25275 0.67532 0.0
H1151 H 0.64211 0.30488 0.54386 0.0
H1152 H 0.58928 0.99797 0.67388 0.0
H1153 H 0.51676 0.17806 0.67138 0.0
H1154 H 0.53376 0.05064 0.59096 0.0
C1155 C 0.78347 0.93838 0.29563 0.0
C1156 C 0.82119 0.92104 0.31653 0.0
N1157 N 0.81109 0.91392 0.36127 0.0
N1158 N 0.74872 0.94257 0.32679 0.0
C1159 C 0.76813 0.92992 0.36738 0.0
H1160 H 0.78075 0.9409 0.25844 0.0
Co1161 Co 0.68785 0.9336 0.30515 0.0
C1162 C 0.72417 0.82773 0.29486 0.0
O1163 O 0.7226 0.79928 0.25842 0.0
N1164 N 0.62921 0.92387 0.28135 0.0
C1165 C 0.56859 0.87617 0.26921 0.0
C1166 C 0.6133 0.88678 0.2556 0.0
C1167 C 0.59279 0.93863 0.30563 0.0
N1168 N 0.55693 0.90736 0.30288 0.0
O1169 O 0.70492 0.95961 0.24536 0.0
H1170 H 0.63487 0.86394 0.23518 0.0
H1171 H 0.59634 0.96629 0.33172 0.0
O1172 O 0.70713 0.86872 0.28907 0.0
C1173 C 0.70752 1.0044 0.24219 0.0
O1174 O 0.70346 0.03047 0.27998 0.0
N1175 N 0.66558 0.91139 0.36258 0.0
C1176 C 0.62827 0.87965 0.44541 0.0
C1177 C 0.64627 0.92585 0.44229 0.0
C1178 C 0.66377 0.94154 0.39985 0.0
C1179 C 0.6423 0.86868 0.36401 0.0
C1180 C 0.62366 0.85236 0.40507 0.0
H1181 H 0.67824 0.97691 0.39726 0.0
H1182 H 0.63948 0.84576 0.33389 0.0
H1183 H 0.75039 0.92833 0.40017 0.0
H1184 H 0.8518 0.91054 0.29856 0.0
H1185 H 0.54966 0.8439 0.26012 0.0
H1186 H 0.64977 0.94847 0.47254 0.0
H1187 H 0.60965 0.81692 0.40651 0.0
C1188 C 0.79633 0.77509 0.11989 0.0
C1189 C 0.80281 0.7327 0.14071 0.0
N1190 N 0.80514 0.73956 0.18725 0.0
N1191 N 0.79935 0.80864 0.15342 0.0
C1192 C 0.79988 0.78533 0.19374 0.0
H1193 H 0.7997 0.78155 0.08314 0.0
Co1194 Co 0.81657 0.87169 0.15217 0.0
C1195 C 0.89431 0.85975 0.22158 0.0
O1196 O 0.92374 0.88176 0.19464 0.0
N1197 N 0.8286 0.93666 0.15565 0.0
C1198 C 0.81465 1.01242 0.15089 0.0
C1199 C 0.80157 0.9682 0.13549 0.0
C1200 C 0.85743 0.96308 0.18389 0.0
N1201 N 0.84972 1.00917 0.18134 0.0
O1202 O 0.78479 0.87584 0.08953 0.0
H1203 H 0.77306 0.95989 0.11208 0.0
H1204 H 0.8823 0.94982 0.2076 0.0
O1205 O 0.85055 0.86353 0.21431 0.0
C1206 C 0.74274 0.87413 0.0738 0.0
O1207 O 0.70786 0.8731 0.103 0.0
N1208 N 0.87501 0.86069 0.11866 0.0
C1209 C 0.97124 0.85495 0.11534 0.0
C1210 C 0.94315 0.81409 0.11639 0.0
C1211 C 0.8956 0.81812 0.121 0.0
C1212 C 0.90106 0.89739 0.10081 0.0
C1213 C 0.94999 0.89605 0.10085 0.0
H1214 H 0.87858 0.78802 0.13481 0.0
H1215 H 0.88546 0.93025 0.09303 0.0
H1216 H 0.80306 0.80152 0.22777 0.0
H1217 H 0.8137 0.70153 0.12261 0.0
H1218 H 0.79986 0.04462 0.14021 0.0
H1219 H 0.95717 0.78037 0.12376 0.0
H1220 H 0.97028 0.92813 0.09556 0.0
C1221 C 0.15944 0.73484 0.06671 0.0
C1222 C 0.15319 0.78221 0.07127 0.0
N1223 N 0.15829 0.79502 0.11631 0.0
N1224 N 0.16822 0.71661 0.10866 0.0
C1225 C 0.16934 0.75489 0.13814 0.0
H1226 H 0.15304 0.71441 0.03518 0.0
Co1227 Co 0.1615 0.64997 0.11831 0.0
C1228 C 0.11894 0.68095 0.21844 0.0
O1229 O 0.10153 0.72252 0.21307 0.0
N1230 N 0.15295 0.58328 0.12875 0.0
C1231 C 0.11384 0.51944 0.15447 0.0
C1232 C 0.1243 0.56592 0.16216 0.0
C1233 C 0.15958 0.54501 0.10099 0.0
N1234 N 0.13543 0.50629 0.11568 0.0
O1235 O 0.18793 0.63811 0.05365 0.0
H1236 H 0.10491 0.58628 0.18636 0.0
H1237 H 0.17873 0.5461 0.06879 0.0
O1238 O 0.13886 0.66036 0.184 0.0
C1239 C 0.22913 0.62537 0.04215 0.0
O1240 O 0.25848 0.6148 0.07499 0.0
N1241 N 0.09856 0.65055 0.09484 0.0
C1242 C 1.02524 0.60927 0.13913 0.0
C1243 C 0.03387 0.65785 0.14464 0.0
C1244 C 0.07004 0.6787 0.11966 0.0
C1245 C 0.07935 0.61009 0.07564 0.0
C1246 C 0.04286 0.58703 0.0993 0.0
H1247 H 0.08066 0.71438 0.12851 0.0
H1248 H 0.09832 0.59055 0.04981 0.0
H1249 H 0.17373 0.75275 0.17529 0.0
H1250 H 0.14216 0.80487 0.04381 0.0
H1251 H 0.08929 0.49798 0.17387 0.0
H1252 H 1.0168 0.6781 0.17139 0.0
H1253 H 0.03376 0.55066 0.09098 0.0
C1254 C 0.28348 0.43839 0.79564 0.0
C1255 C 0.32119 0.42108 0.81657 0.0
N1256 N 0.31109 0.41399 0.8613 0.0
N1257 N 0.24873 0.4426 0.8268 0.0
C1258 C 0.26813 0.42999 0.8674 0.0
H1259 H 0.28076 0.44087 0.75845 0.0
Co1260 Co 0.18786 0.43364 0.80515 0.0
C1261 C 0.22415 0.32777 0.79484 0.0
O1262 O 0.22254 0.29932 0.7584 0.0
N1263 N 0.12921 0.42393 0.78134 0.0
C1264 C 0.06859 0.37623 0.76919 0.0
C1265 C 0.1133 0.38685 0.75558 0.0
C1266 C 0.09279 0.43868 0.80563 0.0
N1267 N 0.05694 0.4074 0.80287 0.0
O1268 O 0.20494 0.45965 0.74535 0.0
H1269 H 0.13487 0.36402 0.73516 0.0
H1270 H 0.09634 0.46633 0.83173 0.0
O1271 O 0.20712 0.36876 0.78906 0.0
C1272 C 0.20756 0.50444 0.74216 0.0
O1273 O 0.20349 0.53052 0.77995 0.0
N1274 N 0.16558 0.41144 0.86256 0.0
C1275 C 0.12828 0.37969 0.9454 0.0
C1276 C 0.14627 0.4259 0.94228 0.0
C1277 C 0.16377 0.44159 0.89984 0.0
C1278 C 0.14231 0.36873 0.864 0.0
C1279 C 0.12367 0.35241 0.90506 0.0
H1280 H 0.17823 0.47697 0.89725 0.0
H1281 H 0.13948 0.34581 0.83387 0.0
H1282 H 0.25037 0.42841 0.90019 0.0
H1283 H 0.35182 0.41058 0.79862 0.0
H1284 H 0.04967 0.34396 0.76009 0.0
H1285 H 0.14977 0.44852 0.97253 0.0
H1286 H 0.10966 0.31696 0.90649 0.0
C1287 C 0.29617 0.27517 0.61997 0.0
C1288 C 0.30273 0.23277 0.64073 0.0
N1289 N 0.3051 0.23957 0.68727 0.0
N1290 N 0.29922 0.30868 0.65355 0.0
C1291 C 0.29983 0.28532 0.69383 0.0
H1292 H 0.29949 0.28169 0.58323 0.0
Co1293 Co 0.3164 0.37175 0.65232 0.0
C1294 C 0.39415 0.35985 0.7217 0.0
O1295 O 0.42355 0.38195 0.69479 0.0
N1296 N 0.32842 0.43673 0.65582 0.0
C1297 C 0.31466 0.51251 0.65083 0.0
C1298 C 0.30157 0.46829 0.63543 0.0
C1299 C 0.35714 0.46316 0.68417 0.0
N1300 N 0.34954 0.50925 0.68148 0.0
O1301 O 0.28461 0.37588 0.58967 0.0
H1302 H 0.2732 0.46 0.61185 0.0
H1303 H 0.38184 0.44988 0.70806 0.0
O1304 O 0.35038 0.36358 0.71445 0.0
C1305 C 0.2426 0.37427 0.57386 0.0
O1306 O 0.20765 0.37339 0.60298 0.0
N1307 N 0.37485 0.36079 0.6188 0.0
C1308 C 0.47108 0.35507 0.61546 0.0
C1309 C 0.44299 0.31421 0.61646 0.0
C1310 C 0.39544 0.31823 0.6211 0.0
C1311 C 0.4009 0.39751 0.60098 0.0
C1312 C 0.44983 0.39617 0.60102 0.0
H1313 H 0.37843 0.28811 0.63487 0.0
H1314 H 0.38529 0.43038 0.59323 0.0
H1315 H 0.30304 0.30147 0.72788 0.0
H1316 H 0.3136 0.20162 0.62257 0.0
H1317 H 0.3 0.54472 0.63999 0.0
H1318 H 0.45701 0.28048 0.6238 0.0
H1319 H 0.47011 0.42827 0.59578 0.0
C1320 C 0.10518 0.57359 0.68784 0.0
C1321 C 0.05829 0.57961 0.68478 0.0
N1322 N 0.04656 0.58779 0.64036 0.0
N1323 N 0.12445 0.5787 0.64554 0.0
C1324 C 0.08716 0.58393 0.61689 0.0
H1325 H 0.12423 0.57389 0.72021 0.0
Co1326 Co 0.18775 0.60139 0.63667 0.0
C1327 C 0.18129 0.66933 0.56233 0.0
O1328 O 0.21264 0.69609 0.5841 0.0
N1329 N 0.25273 0.62332 0.62536 0.0
C1330 C 0.31532 0.63534 0.58018 0.0
C1331 C 0.27329 0.61108 0.58497 0.0
C1332 C 0.28495 0.65467 0.64435 0.0
N1333 N 0.32361 0.6623 0.61828 0.0
O1334 O 0.20603 0.57181 0.69388 0.0
H1335 H 0.25696 0.58837 0.55871 0.0
H1336 H 0.28131 0.67377 0.67631 0.0
O1337 O 0.16962 0.62913 0.57827 0.0
C1338 C 0.2073 0.52706 0.69641 0.0
O1339 O 0.19961 0.50115 0.6588 0.0
N1340 N 0.17142 0.65823 0.66942 0.0
C1341 C 0.17795 0.75271 0.66306 0.0
C1342 C 0.1355 0.73012 0.65283 0.0
C1343 C 0.13372 0.68178 0.65429 0.0
C1344 C 0.20077 0.68174 0.69946 0.0
C1345 C 0.20786 0.73033 0.6937 0.0
H1346 H 0.10656 0.66542 0.6341 0.0
H1347 H 0.22418 0.6625 0.7208 0.0
H1348 H 0.09082 0.59522 0.58139 0.0
H1349 H 0.0358 0.58522 0.71434 0.0
H1350 H 0.33577 0.63649 0.54896 0.0
H1351 H 0.10823 0.74749 0.63467 0.0
H1352 H 0.23876 0.74783 0.70786 0.0
C1353 C 0.5386 0.44833 0.21183 0.0
C1354 C 0.57799 0.4232 0.20913 0.0
N1355 N 0.59208 0.4214 0.16469 0.0
N1356 N 0.52467 0.45894 0.16869 0.0
C1357 C 0.56092 0.44646 0.1413 0.0
H1358 H 0.51871 0.45329 0.24317 0.0
Co1359 Co 0.46219 0.47381 0.15475 0.0
C1360 C 0.4847 0.42115 0.06376 0.0
O1361 O 0.51034 0.38881 0.08172 0.0
N1362 N 0.40067 0.49033 0.14196 0.0
C1363 C 0.33949 0.50346 0.09797 0.0
C1364 C 0.38612 0.51376 0.10483 0.0
C1365 C 0.36157 0.4702 0.15986 0.0
N1366 N 0.32452 0.47389 0.13133 0.0
O1367 O 0.45163 0.49715 0.22048 0.0
H1368 H 0.40891 0.53222 0.08106 0.0
H1369 H 0.36251 0.44609 0.18837 0.0
O1370 O 0.47103 0.45617 0.08874 0.0
C1371 C 0.45769 0.54182 0.22947 0.0
O1372 O 0.47373 0.56889 0.19639 0.0
N1373 N 0.44101 0.40662 0.16135 0.0
C1374 C 0.4477 0.31448 0.12636 0.0
C1375 C 0.47097 0.32873 0.1674 0.0
C1376 C 0.46473 0.37427 0.18593 0.0
C1377 C 0.41183 0.38918 0.12646 0.0
C1378 C 0.41422 0.34339 0.10913 0.0
H1379 H 0.48137 0.38352 0.21835 0.0
H1380 H 0.39276 0.4118 0.10452 0.0
H1381 H 0.56347 0.45342 0.10462 0.0
H1382 H 0.59482 0.40782 0.23814 0.0
H1383 H 0.31961 0.51334 0.06797 0.0
H1384 H 0.49423 0.30534 0.18437 0.0
H1385 H 0.39438 0.33295 0.0784 0.0
C1386 C 0.72411 0.52179 0.09303 0.0
C1387 C 0.69103 0.55614 0.09394 0.0
N1388 N 0.66102 0.54649 0.1281 0.0
N1389 N 0.71525 0.49011 0.12649 0.0
C1390 C 0.67571 0.50659 0.14591 0.0
H1391 H 0.74975 0.5178 0.06607 0.0
Co1392 Co 0.72674 0.42438 0.12145 0.0
C1393 C 0.6307 0.39946 0.14932 0.0
O1394 O 0.64789 0.36702 0.17529 0.0
N1395 N 0.72983 0.35729 0.11108 0.0
C1396 C 0.67365 0.30407 0.09463 0.0
C1397 C 0.69722 0.34298 0.07943 0.0
C1398 C 0.73028 0.32033 0.14021 0.0
N1399 N 0.69365 0.29059 0.1341 0.0
O1400 O 0.73756 0.43082 0.05197 0.0
H1401 H 0.68434 0.36421 0.05184 0.0
H1402 H 0.7583 0.31282 0.16333 0.0
O1403 O 0.65649 0.41814 0.11801 0.0
C1404 C 0.78009 0.42458 0.03901 0.0
O1405 O 0.81097 0.41658 0.07129 0.0
N1406 N 0.72769 0.41792 0.19143 0.0
C1407 C 0.70132 0.36603 0.26751 0.0
C1408 C 0.68535 0.41173 0.2626 0.0
C1409 C 0.7008 0.43824 0.22498 0.0
C1410 C 0.75776 0.38633 0.20872 0.0
C1411 C 0.74273 0.35603 0.24465 0.0
H1412 H 0.69126 0.47411 0.22451 0.0
H1413 H 0.78882 0.37856 0.18944 0.0
H1414 H 0.65312 0.48698 0.16801 0.0
H1415 H 0.68701 0.58271 0.06834 0.0
H1416 H 0.64238 0.28887 0.07895 0.0
H1417 H 0.65882 0.42526 0.28523 0.0
H1418 H 0.7608 0.32419 0.25154 0.0
C1419 C 0.84571 0.57529 0.61832 0.0
C1420 C 0.84121 0.53579 0.64463 0.0
N1421 N 0.88074 0.51217 0.6414 0.0
N1422 N 0.88847 0.57768 0.59917 0.0
C1423 C 0.90827 0.53718 0.61221 0.0
H1424 H 0.82152 0.60348 0.61865 0.0
Co1425 Co 0.91739 0.63668 0.58636 0.0
C1426 C 1.01449 0.62042 0.63017 0.0
O1427 O 1.01442 0.65969 0.65502 0.0
N1428 N 0.94613 0.69708 0.5761 0.0
C1429 C 0.9993 0.75398 0.59199 0.0
C1430 C 0.99196 0.70884 0.57438 0.0
C1431 C 0.92641 0.73796 0.58831 0.0
N1432 N 0.95771 0.77145 0.60196 0.0
O1433 O 0.85519 0.65952 0.56099 0.0
H1434 H 1.019 0.68496 0.56531 0.0
H1435 H 0.88956 0.74254 0.59041 0.0
O1436 O 0.97978 0.60978 0.60342 0.0
C1437 C 0.84908 0.67602 0.51975 0.0
O1438 O 0.88585 0.68574 0.49445 0.0
N1439 N 0.90594 0.65507 0.65145 0.0
C1440 C 0.90915 0.68993 0.74383 0.0
C1441 C 0.93217 0.6494 0.73084 0.0
C1442 C 0.92782 0.63122 0.68561 0.0
C1443 C 0.87795 0.69065 0.66507 0.0
C1444 C 0.88011 0.70945 0.71057 0.0
H1445 H 0.94303 0.59788 0.67839 0.0
H1446 H 0.85296 0.7042 0.64134 0.0
H1447 H 0.94421 0.52934 0.60589 0.0
H1448 H 0.81197 0.52659 0.66655 0.0
H1449 H 0.03246 0.77184 0.59859 0.0
H1450 H 0.95001 0.62955 0.75674 0.0
H1451 H 0.85691 0.73696 0.72068 0.0
C1452 C 0.71205 0.45384 0.74357 0.0
C1453 C 0.75727 0.44292 0.73503 0.0
N1454 N 0.75983 0.39589 0.72986 0.0
N1455 N 0.68596 0.41375 0.74322 0.0
C1456 C 0.71696 0.37915 0.73928 0.0
H1457 H 0.69898 0.48848 0.74012 0.0
Co1458 Co 0.62582 0.4019 0.7204 0.0
C1459 C 0.64436 0.33707 0.63476 0.0
O1460 O 0.61855 0.36348 0.60904 0.0
N1461 N 0.56584 0.38299 0.6974 0.0
C1462 C 0.53276 0.31977 0.66282 0.0
C1463 C 0.5617 0.33578 0.69771 0.0
C1464 C 0.53387 0.39489 0.66494 0.0
N1465 N 0.51354 0.3569 0.64284 0.0
O1466 O 0.59934 0.45274 0.76703 0.0
H1467 H 0.58252 0.31386 0.71917 0.0
H1468 H 0.52388 0.43023 0.65842 0.0
O1469 O 0.65114 0.34887 0.67769 0.0
C1470 C 0.60251 0.49726 0.77905 0.0
O1471 O 0.62793 0.5263 0.75422 0.0
N1472 N 0.63541 0.44681 0.67231 0.0
C1473 C 0.62405 0.46438 0.57985 0.0
C1474 C 0.66785 0.4521 0.5963 0.0
C1475 C 0.67237 0.44204 0.64318 0.0
C1476 C 0.60106 0.47576 0.65968 0.0
C1477 C 0.59321 0.4833 0.61241 0.0
H1478 H 0.70189 0.42238 0.65331 0.0
H1479 H 0.57465 0.4852 0.68437 0.0
H1480 H 0.70722 0.34231 0.73522 0.0
H1481 H 0.78406 0.46821 0.72559 0.0
H1482 H 0.52499 0.2831 0.65498 0.0
H1483 H 0.69528 0.44202 0.57302 0.0
H1484 H 0.56068 0.49775 0.60189 0.0
C1485 C 0.30546 0.55585 0.85416 0.0
C1486 C 0.33827 0.52645 0.83638 0.0
N1487 N 0.36682 0.51429 0.87104 0.0
N1488 N 0.31526 0.56546 0.89927 0.0
C1489 C 0.34944 0.53552 0.90936 0.0
H1490 H 0.28297 0.57657 0.83317 0.0
Co1491 Co 0.31814 0.6292 0.91971 0.0
C1492 C 0.42512 0.61506 0.95388 0.0
O1493 O 0.43775 0.59098 0.9899 0.0
N1494 N 0.32236 0.69247 0.94004 0.0
C1495 C 0.37972 0.74481 0.94743 0.0
C1496 C 0.35872 0.70654 0.96688 0.0
C1497 C 0.31626 0.72899 0.91169 0.0
N1498 N 0.35393 0.758 0.91126 0.0
O1499 O 0.28683 0.61405 0.98065 0.0
H1500 H 0.37356 0.68639 0.99428 0.0
H1501 H 0.28751 0.73123 0.88787 0.0
O1502 O 0.38124 0.61807 0.94645 0.0
C1503 C 0.24585 0.62707 0.99257 0.0
O1504 O 0.22007 0.64735 0.96163 0.0
N1505 N 0.34663 0.64568 0.86083 0.0
C1506 C 0.40247 0.69461 0.79917 0.0
C1507 C 0.41749 0.65312 0.81868 0.0
C1508 C 0.38879 0.62907 0.84917 0.0
C1509 C 0.32652 0.675 0.8302 0.0
C1510 C 0.35471 0.7029 0.80125 0.0
H1511 H 0.40152 0.59812 0.86451 0.0
H1512 H 0.28967 0.68064 0.83173 0.0
H1513 H 0.36554 0.53432 0.94322 0.0
H1514 H 0.34318 0.51873 0.79985 0.0
H1515 H 0.41348 0.75938 0.95688 0.0
H1516 H 0.4515 0.63976 0.81162 0.0
H1517 H 0.33967 0.73067 0.78163 0.0
C1518 C 0.20564 0.46977 0.45654 0.0
C1519 C 0.21287 0.5135 0.43848 0.0
N1520 N 0.17181 0.53384 0.43359 0.0
N1521 N 0.1597 0.45957 0.46077 0.0
C1522 C 0.14021 0.50158 0.44992 0.0
H1523 H 0.23317 0.44648 0.46426 0.0
Co1524 Co 0.1346 0.39502 0.47218 0.0
C1525 C 0.06548 0.43559 0.40772 0.0
O1526 O 0.09959 0.44424 0.37854 0.0
N1527 N 0.11093 0.33082 0.48326 0.0
C1528 C 0.06591 0.26608 0.46911 0.0
C1529 C 0.06648 0.31377 0.48076 0.0
C1530 C 0.13632 0.29155 0.47699 0.0
N1531 N 0.11002 0.25201 0.46677 0.0
O1532 O 0.19455 0.37983 0.50366 0.0
H1533 H 0.03636 0.33546 0.48111 0.0
H1534 H 0.17375 0.29309 0.4737 0.0
O1535 O 0.07359 0.41407 0.44574 0.0
C1536 C 0.23361 0.36977 0.52246 0.0
O1537 O 0.26797 0.358 0.49524 0.0
N1538 N 0.15252 0.37183 0.41088 0.0
C1539 C 0.16066 0.35756 0.31522 0.0
C1540 C 0.19875 0.3748 0.3418 0.0
C1541 C 0.19442 0.38015 0.3901 0.0
C1542 C 0.1183 0.34783 0.38564 0.0
C1543 C 0.12196 0.33985 0.33811 0.0
H1544 H 0.22385 0.39362 0.40964 0.0
H1545 H 0.08479 0.33993 0.40012 0.0
H1546 H 0.10337 0.50745 0.45051 0.0
H1547 H 0.24626 0.52905 0.42904 0.0
H1548 H 0.03539 0.24417 0.46147 0.0
H1549 H 0.23003 0.38772 0.32491 0.0
H1550 H 0.09189 0.32655 0.31871 0.0
C1551 C 0.34157 0.62086 0.29329 0.0
C1552 C 0.29533 0.63146 0.29424 0.0
N1553 N 0.29161 0.67612 0.30945 0.0
N1554 N 0.36729 0.6585 0.3086 0.0
C1555 C 0.3356 0.692 0.31635 0.0
H1556 H 0.35439 0.58651 0.28607 0.0
Co1557 Co 0.43044 0.66487 0.32704 0.0
C1558 C 0.42879 0.72981 0.41195 0.0
O1559 O 0.45969 0.7033 0.43105 0.0
N1560 N 0.49412 0.67764 0.34422 0.0
C1561 C 0.55032 0.73141 0.36221 0.0
C1562 C 0.51037 0.722 0.33688 0.0
C1563 C 0.52691 0.66047 0.37278 0.0
N1564 N 0.55993 0.69288 0.38594 0.0
O1565 O 0.44766 0.61012 0.28149 0.0
H1566 H 0.49242 0.74733 0.31668 0.0
H1567 H 0.52778 0.6253 0.38492 0.0
O1568 O 0.41457 0.71996 0.37027 0.0
C1569 C 0.44324 0.56478 0.27463 0.0
O1570 O 0.42153 0.53865 0.30529 0.0
N1571 N 0.41911 0.62287 0.37706 0.0
C1572 C 0.43124 0.6076 0.46978 0.0
C1573 C 0.39116 0.62881 0.45456 0.0
C1574 C 0.38479 0.63465 0.40731 0.0
C1575 C 0.44992 0.59028 0.39024 0.0
C1576 C 0.45808 0.58347 0.43754 0.0
H1577 H 0.35724 0.65672 0.39695 0.0
H1578 H 0.47354 0.57552 0.36537 0.0
H1579 H 0.34363 0.72613 0.33185 0.0
H1580 H 0.26647 0.60642 0.28982 0.0
H1581 H 0.57132 0.76344 0.36175 0.0
H1582 H 0.36762 0.64475 0.47878 0.0
H1583 H 0.48674 0.56273 0.44867 0.0
loop_
_geom_bond_atom_site_label_1
_geom_bond_atom_site_label_2
_geom_bond_distance
_geom_bond_site_symmetry_2
_ccdc_geom_bond_type
C0 C1 1.351 1_554 S
C0 N3 1.368 . S
C0 H5 0.931 . S
C1 C0 1.351 1_556 S
C1 N2 1.373 . S
C1 H29 0.930 . S
N2 C1 1.373 . S
N2 C4 1.340 1_556 S
N3 C0 1.368 . S
N3 C4 1.321 . S
N3 Co6 2.135 . S
C4 N2 1.340 1_554 S
C4 N3 1.321 . S
C4 H28 0.930 . S
H5 C0 0.931 . S
Co6 N3 2.135 . S
Co6 N9 2.121 . S
Co6 O14 2.055 . S
Co6 O17 2.039 . S
Co6 N20 2.140 . S
C7 O8 1.227 . S
C7 O17 1.265 . S
O8 C7 1.227 . S
N9 Co6 2.121 . S
N9 C11 1.375 . S
N9 C12 1.313 . S
C10 C11 1.338 . S
C10 N13 1.377 . S
C10 H30 0.930 . S
C11 N9 1.375 . S
C11 C10 1.338 . S
C11 H15 0.931 . S
C12 N9 1.313 . S
C12 N13 1.344 . S
C12 H16 0.930 . S
N13 C10 1.377 . S
N13 C12 1.344 . S
O14 Co6 2.055 . S
O14 C18 1.253 . S
H15 C11 0.931 . S
H16 C12 0.930 . S
O17 Co6 2.039 . S
O17 C7 1.265 . S
C18 O14 1.253 . S
C18 O19 1.227 . S
O19 C18 1.227 . S
N20 Co6 2.140 . S
N20 C23 1.346 . S
N20 C24 1.345 . S
C21 C22 1.387 . S
C21 C25 1.391 . S
C22 C21 1.387 . S
C22 C23 1.369 . S
C22 H31 0.929 . S
C23 N20 1.346 . S
C23 C22 1.369 . S
C23 H26 0.928 . S
C24 N20 1.345 . S
C24 C25 1.371 . S
C24 H27 0.931 . S
C25 C21 1.391 . S
C25 C24 1.371 . S
C25 H32 0.930 . S
H26 C23 0.928 . S
H27 C24 0.931 . S
H28 C4 0.930 . S
H29 C1 0.930 . S
H30 C10 0.930 . S
H31 C22 0.929 . S
H32 C25 0.930 . S
C33 C34 1.351 . S
C33 N36 1.368 . S
C33 H38 0.931 . S
C34 C33 1.351 . S
C34 N35 1.373 . S
C34 H62 0.930 . S
N35 C34 1.373 . S
N35 C37 1.340 . S
N36 C33 1.368 . S
N36 C37 1.321 . S
N36 Co39 2.135 . S
C37 N35 1.340 . S
C37 N36 1.321 . S
C37 H61 0.930 . S
H38 C33 0.931 . S
Co39 N36 2.135 . S
Co39 N42 2.121 . S
Co39 O47 2.055 . S
Co39 O50 2.039 . S
Co39 N53 2.140 . S
C40 O41 1.227 . S
C40 O50 1.265 . S
O41 C40 1.227 . S
N42 Co39 2.121 . S
N42 C44 1.375 . S
N42 C45 1.313 . S
C43 C44 1.338 . S
C43 N46 1.377 . S
C43 H63 0.930 . S
C44 N42 1.375 . S
C44 C43 1.338 . S
C44 H48 0.931 . S
C45 N42 1.313 . S
C45 N46 1.344 . S
C45 H49 0.930 . S
N46 C43 1.377 . S
N46 C45 1.344 . S
O47 Co39 2.055 . S
O47 C51 1.253 . S
H48 C44 0.931 . S
H49 C45 0.930 . S
O50 Co39 2.039 . S
O50 C40 1.265 . S
C51 O47 1.253 . S
C51 O52 1.227 . S
O52 C51 1.227 . S
N53 Co39 2.140 . S
N53 C56 1.346 . S
N53 C57 1.345 . S
C54 C55 1.387 . S
C54 C58 1.391 . S
C55 C54 1.387 . S
C55 C56 1.369 . S
C55 H64 0.929 . S
C56 N53 1.346 . S
C56 C55 1.369 . S
C56 H59 0.928 . S
C57 N53 1.345 . S
C57 C58 1.371 . S
C57 H60 0.931 . S
C58 C54 1.391 . S
C58 C57 1.371 . S
C58 H65 0.930 . S
H59 C56 0.928 . S
H60 C57 0.931 . S
H61 C37 0.930 . S
H62 C34 0.930 . S
H63 C43 0.930 . S
H64 C55 0.929 . S
H65 C58 0.930 . S
C66 C67 1.351 . S
C66 N69 1.368 . S
C66 H71 0.931 . S
C67 C66 1.351 . S
C67 N68 1.373 . S
C67 H95 0.930 . S
N68 C67 1.373 . S
N68 C70 1.340 . S
N69 C66 1.368 . S
N69 C70 1.321 . S
N69 Co72 2.135 . S
C70 N68 1.340 . S
C70 N69 1.321 . S
C70 H94 0.930 . S
H71 C66 0.931 . S
Co72 N69 2.135 . S
Co72 N75 2.121 . S
Co72 O80 2.055 . S
Co72 O83 2.039 . S
Co72 N86 2.140 . S
C73 O74 1.227 . S
C73 O83 1.265 . S
O74 C73 1.227 . S
N75 Co72 2.121 . S
N75 C77 1.375 . S
N75 C78 1.313 . S
C76 C77 1.338 . S
C76 N79 1.377 . S
C76 H96 0.930 . S
C77 N75 1.375 . S
C77 C76 1.338 . S
C77 H81 0.931 . S
C78 N75 1.313 . S
C78 N79 1.344 . S
C78 H82 0.930 . S
N79 C76 1.377 . S
N79 C78 1.344 . S
O80 Co72 2.055 . S
O80 C84 1.253 . S
H81 C77 0.931 . S
H82 C78 0.930 . S
O83 Co72 2.039 . S
O83 C73 1.265 . S
C84 O80 1.253 . S
C84 O85 1.227 . S
O85 C84 1.227 . S
N86 Co72 2.140 . S
N86 C89 1.346 . S
N86 C90 1.345 . S
C87 C88 1.387 . S
C87 C91 1.391 . S
C88 C87 1.387 . S
C88 C89 1.369 . S
C88 H97 0.929 . S
C89 N86 1.346 . S
C89 C88 1.369 . S
C89 H92 0.928 . S
C90 N86 1.345 . S
C90 C91 1.371 . S
C90 H93 0.931 . S
C91 C87 1.391 . S
C91 C90 1.371 . S
C91 H98 0.930 . S
H92 C89 0.928 . S
H93 C90 0.931 . S
H94 C70 0.930 . S
H95 C67 0.930 . S
H96 C76 0.930 . S
H97 C88 0.929 . S
H98 C91 0.930 . S
C99 C100 1.351 . S
C99 N102 1.368 . S
C99 H104 0.931 . S
C100 C99 1.351 . S
C100 N101 1.373 1_556 S
C100 H128 0.930 1_556 S
N101 C100 1.373 1_554 S
N101 C103 1.340 1_554 S
N102 C99 1.368 . S
N102 C103 1.321 . S
N102 Co105 2.135 . S
C103 N101 1.340 1_556 S
C103 N102 1.321 . S
C103 H127 0.930 . S
H104 C99 0.931 . S
Co105 N102 2.135 . S
Co105 N108 2.121 . S
Co105 O113 2.055 . S
Co105 O116 2.039 . S
Co105 N119 2.140 . S
C106 O107 1.227 . S
C106 O116 1.265 . S
O107 C106 1.227 . S
N108 Co105 2.121 . S
N108 C110 1.375 . S
N108 C111 1.313 . S
C109 C110 1.338 . S
C109 N112 1.377 . S
C109 H129 0.930 . S
C110 N108 1.375 . S
C110 C109 1.338 . S
C110 H114 0.931 . S
C111 N108 1.313 . S
C111 N112 1.344 . S
C111 H115 0.930 . S
N112 C109 1.377 . S
N112 C111 1.344 . S
O113 Co105 2.055 . S
O113 C117 1.253 . S
H114 C110 0.931 . S
H115 C111 0.930 . S
O116 Co105 2.039 . S
O116 C106 1.265 . S
C117 O113 1.253 . S
C117 O118 1.227 . S
O118 C117 1.227 . S
N119 Co105 2.140 . S
N119 C122 1.346 . S
N119 C123 1.345 . S
C120 C121 1.387 . S
C120 C124 1.391 . S
C121 C120 1.387 . S
C121 C122 1.369 . S
C121 H130 0.929 . S
C122 N119 1.346 . S
C122 C121 1.369 . S
C122 H125 0.928 . S
C123 N119 1.345 . S
C123 C124 1.371 . S
C123 H126 0.931 . S
C124 C120 1.391 . S
C124 C123 1.371 . S
C124 H131 0.930 . S
H125 C122 0.928 . S
H126 C123 0.931 . S
H127 C103 0.930 . S
H128 C100 0.930 1_554 S
H129 C109 0.930 . S
H130 C121 0.929 . S
H131 C124 0.930 . S
C132 C133 1.351 . S
C132 N135 1.368 . S
C132 H137 0.931 . S
C133 C132 1.351 . S
C133 N134 1.373 . S
C133 H161 0.930 . S
N134 C133 1.373 . S
N134 C136 1.340 . S
N135 C132 1.368 . S
N135 C136 1.321 . S
N135 Co138 2.135 . S
C136 N134 1.340 . S
C136 N135 1.321 . S
C136 H160 0.930 . S
H137 C132 0.931 . S
Co138 N135 2.135 . S
Co138 N141 2.121 . S
Co138 O146 2.055 . S
Co138 O149 2.039 . S
Co138 N152 2.140 . S
C139 O140 1.227 . S
C139 O149 1.265 . S
O140 C139 1.227 . S
N141 Co138 2.121 . S
N141 C143 1.375 . S
N141 C144 1.313 . S
C142 C143 1.338 . S
C142 N145 1.377 . S
C142 H162 0.930 . S
C143 N141 1.375 . S
C143 C142 1.338 . S
C143 H147 0.931 . S
C144 N141 1.313 . S
C144 N145 1.344 . S
C144 H148 0.930 . S
N145 C142 1.377 . S
N145 C144 1.344 . S
O146 Co138 2.055 . S
O146 C150 1.253 . S
H147 C143 0.931 . S
H148 C144 0.930 . S
O149 Co138 2.039 . S
O149 C139 1.265 . S
C150 O146 1.253 . S
C150 O151 1.227 . S
O151 C150 1.227 . S
N152 Co138 2.140 . S
N152 C155 1.346 . S
N152 C156 1.345 . S
C153 C154 1.387 . S
C153 C157 1.391 . S
C154 C153 1.387 . S
C154 C155 1.369 . S
C154 H163 0.929 . S
C155 N152 1.346 . S
C155 C154 1.369 . S
C155 H158 0.928 . S
C156 N152 1.345 . S
C156 C157 1.371 . S
C156 H159 0.931 . S
C157 C153 1.391 . S
C157 C156 1.371 . S
C157 H164 0.930 . S
H158 C155 0.928 . S
H159 C156 0.931 . S
H160 C136 0.930 . S
H161 C133 0.930 . S
H162 C142 0.930 . S
H163 C154 0.929 . S
H164 C157 0.930 . S
C165 C166 1.351 . S
C165 N168 1.368 . S
C165 H170 0.931 . S
C166 C165 1.351 . S
C166 N167 1.373 . S
C166 H194 0.930 . S
N167 C166 1.373 . S
N167 C169 1.340 . S
N168 C165 1.368 . S
N168 C169 1.321 . S
N168 Co171 2.135 . S
C169 N167 1.340 . S
C169 N168 1.321 . S
C169 H193 0.930 . S
H170 C165 0.931 . S
Co171 N168 2.135 . S
Co171 N174 2.121 . S
Co171 O179 2.055 . S
Co171 O182 2.039 . S
Co171 N185 2.140 . S
C172 O173 1.227 . S
C172 O182 1.265 . S
O173 C172 1.227 . S
N174 Co171 2.121 . S
N174 C176 1.375 . S
N174 C177 1.313 . S
C175 C176 1.338 . S
C175 N178 1.377 . S
C175 H195 0.930 . S
C176 N174 1.375 . S
C176 C175 1.338 . S
C176 H180 0.931 . S
C177 N174 1.313 . S
C177 N178 1.344 . S
C177 H181 0.930 . S
N178 C175 1.377 . S
N178 C177 1.344 . S
O179 Co171 2.055 . S
O179 C183 1.253 . S
H180 C176 0.931 . S
H181 C177 0.930 . S
O182 Co171 2.039 . S
O182 C172 1.265 . S
C183 O179 1.253 . S
C183 O184 1.227 . S
O184 C183 1.227 . S
N185 Co171 2.140 . S
N185 C188 1.346 . S
N185 C189 1.345 . S
C186 C187 1.387 . S
C186 C190 1.391 . S
C187 C186 1.387 . S
C187 C188 1.369 . S
C187 H196 0.929 . S
C188 N185 1.346 . S
C188 C187 1.369 . S
C188 H191 0.928 . S
C189 N185 1.345 . S
C189 C190 1.371 . S
C189 H192 0.931 . S
C190 C186 1.391 . S
C190 C189 1.371 . S
C190 H197 0.930 . S
H191 C188 0.928 . S
H192 C189 0.931 . S
H193 C169 0.930 . S
H194 C166 0.930 . S
H195 C175 0.930 . S
H196 C187 0.929 . S
H197 C190 0.930 . S
C198 C199 1.351 . S
C198 N201 1.368 . S
C198 H203 0.931 . S
C199 C198 1.351 . S
C199 N200 1.373 . S
C199 H227 0.930 . S
N200 C199 1.373 . S
N200 C202 1.340 . S
N201 C198 1.368 . S
N201 C202 1.321 . S
N201 Co204 2.135 . S
C202 N200 1.340 . S
C202 N201 1.321 . S
C202 H226 0.930 . S
H203 C198 0.931 . S
Co204 N201 2.135 . S
Co204 N207 2.121 . S
Co204 O212 2.055 . S
Co204 O215 2.039 . S
Co204 N218 2.140 . S
C205 O206 1.227 . S
C205 O215 1.265 . S
O206 C205 1.227 . S
N207 Co204 2.121 . S
N207 C209 1.375 . S
N207 C210 1.313 . S
C208 C209 1.338 . S
C208 N211 1.377 . S
C208 H228 0.930 1_556 S
C209 N207 1.375 . S
C209 C208 1.338 . S
C209 H213 0.931 . S
C210 N207 1.313 . S
C210 N211 1.344 . S
C210 H214 0.930 . S
N211 C208 1.377 . S
N211 C210 1.344 . S
O212 Co204 2.055 . S
O212 C216 1.253 . S
H213 C209 0.931 . S
H214 C210 0.930 . S
O215 Co204 2.039 . S
O215 C205 1.265 . S
C216 O212 1.253 . S
C216 O217 1.227 . S
O217 C216 1.227 . S
N218 Co204 2.140 . S
N218 C221 1.346 . S
N218 C222 1.345 . S
C219 C220 1.387 . S
C219 C223 1.391 . S
C220 C219 1.387 . S
C220 C221 1.369 . S
C220 H229 0.929 . S
C221 N218 1.346 . S
C221 C220 1.369 . S
C221 H224 0.928 . S
C222 N218 1.345 . S
C222 C223 1.371 . S
C222 H225 0.931 . S
C223 C219 1.391 . S
C223 C222 1.371 . S
C223 H230 0.930 . S
H224 C221 0.928 . S
H225 C222 0.931 . S
H226 C202 0.930 . S
H227 C199 0.930 . S
H228 C208 0.930 1_554 S
H229 C220 0.929 . S
H230 C223 0.930 . S
C231 C232 1.351 . S
C231 N234 1.368 . S
C231 H236 0.931 . S
C232 C231 1.351 . S
C232 N233 1.373 . S
C232 H260 0.930 . S
N233 C232 1.373 . S
N233 C235 1.340 . S
N234 C231 1.368 . S
N234 C235 1.321 . S
N234 Co237 2.135 . S
C235 N233 1.340 . S
C235 N234 1.321 . S
C235 H259 0.930 . S
H236 C231 0.931 . S
Co237 N234 2.135 . S
Co237 N240 2.121 . S
Co237 O245 2.055 . S
Co237 O248 2.039 . S
Co237 N251 2.140 . S
C238 O239 1.227 . S
C238 O248 1.265 . S
O239 C238 1.227 . S
N240 Co237 2.121 . S
N240 C242 1.375 . S
N240 C243 1.313 . S
C241 C242 1.338 1_556 S
C241 N244 1.377 . S
C241 H261 0.930 . S
C242 N240 1.375 . S
C242 C241 1.338 1_554 S
C242 H246 0.931 . S
C243 N240 1.313 . S
C243 N244 1.344 1_554 S
C243 H247 0.930 . S
N244 C241 1.377 . S
N244 C243 1.344 1_556 S
O245 Co237 2.055 . S
O245 C249 1.253 . S
H246 C242 0.931 . S
H247 C243 0.930 . S
O248 Co237 2.039 . S
O248 C238 1.265 . S
C249 O245 1.253 . S
C249 O250 1.227 . S
O250 C249 1.227 . S
N251 Co237 2.140 . S
N251 C254 1.346 . S
N251 C255 1.345 . S
C252 C253 1.387 . S
C252 C256 1.391 . S
C253 C252 1.387 . S
C253 C254 1.369 . S
C253 H262 0.929 . S
C254 N251 1.346 . S
C254 C253 1.369 . S
C254 H257 0.928 . S
C255 N251 1.345 . S
C255 C256 1.371 . S
C255 H258 0.931 . S
C256 C252 1.391 . S
C256 C255 1.371 . S
C256 H263 0.930 . S
H257 C254 0.928 . S
H258 C255 0.931 . S
H259 C235 0.930 . S
H260 C232 0.930 . S
H261 C241 0.930 . S
H262 C253 0.929 . S
H263 C256 0.930 . S
C264 C265 1.351 . S
C264 N267 1.368 . S
C264 H269 0.931 . S
C265 C264 1.351 . S
C265 N266 1.373 . S
C265 H293 0.930 . S
N266 C265 1.373 . S
N266 C268 1.340 . S
N267 C264 1.368 . S
N267 C268 1.321 . S
N267 Co270 2.135 . S
C268 N266 1.340 . S
C268 N267 1.321 . S
C268 H292 0.930 . S
H269 C264 0.931 . S
Co270 N267 2.135 . S
Co270 N273 2.121 . S
Co270 O278 2.055 . S
Co270 O281 2.039 . S
Co270 N284 2.140 . S
C271 O272 1.227 . S
C271 O281 1.265 . S
O272 C271 1.227 . S
N273 Co270 2.121 . S
N273 C275 1.375 1_455 S
N273 C276 1.313 1_455 S
C274 C275 1.338 . S
C274 N277 1.377 . S
C274 H294 0.930 . S
C275 N273 1.375 1_655 S
C275 C274 1.338 . S
C275 H279 0.931 1_655 S
C276 N273 1.313 1_655 S
C276 N277 1.344 . S
C276 H280 0.930 . S
N277 C274 1.377 . S
N277 C276 1.344 . S
O278 Co270 2.055 . S
O278 C282 1.253 . S
H279 C275 0.931 1_455 S
H280 C276 0.930 . S
O281 Co270 2.039 . S
O281 C271 1.265 . S
C282 O278 1.253 . S
C282 O283 1.227 . S
O283 C282 1.227 . S
N284 Co270 2.140 . S
N284 C287 1.346 . S
N284 C288 1.345 . S
C285 C286 1.387 . S
C285 C289 1.391 . S
C286 C285 1.387 . S
C286 C287 1.369 . S
C286 H295 0.929 . S
C287 N284 1.346 . S
C287 C286 1.369 . S
C287 H290 0.928 . S
C288 N284 1.345 . S
C288 C289 1.371 . S
C288 H291 0.931 . S
C289 C285 1.391 . S
C289 C288 1.371 . S
C289 H296 0.930 . S
H290 C287 0.928 . S
H291 C288 0.931 . S
H292 C268 0.930 . S
H293 C265 0.930 . S
H294 C274 0.930 . S
H295 C286 0.929 . S
H296 C289 0.930 . S
C297 C298 1.351 1_565 S
C297 N300 1.368 . S
C297 H302 0.931 . S
C298 C297 1.351 1_545 S
C298 N299 1.373 . S
C298 H326 0.930 . S
N299 C298 1.373 . S
N299 C301 1.340 . S
N300 C297 1.368 . S
N300 C301 1.321 1_565 S
N300 Co303 2.135 . S
C301 N299 1.340 . S
C301 N300 1.321 1_545 S
C301 H325 0.930 1_545 S
H302 C297 0.931 . S
Co303 N300 2.135 . S
Co303 N306 2.121 . S
Co303 O311 2.055 . S
Co303 O314 2.039 . S
Co303 N317 2.140 . S
C304 O305 1.227 . S
C304 O314 1.265 . S
O305 C304 1.227 . S
N306 Co303 2.121 . S
N306 C308 1.375 . S
N306 C309 1.313 . S
C307 C308 1.338 . S
C307 N310 1.377 . S
C307 H327 0.930 . S
C308 N306 1.375 . S
C308 C307 1.338 . S
C308 H312 0.931 . S
C309 N306 1.313 . S
C309 N310 1.344 . S
C309 H313 0.930 . S
N310 C307 1.377 . S
N310 C309 1.344 . S
O311 Co303 2.055 . S
O311 C315 1.253 . S
H312 C308 0.931 . S
H313 C309 0.930 . S
O314 Co303 2.039 . S
O314 C304 1.265 . S
C315 O311 1.253 . S
C315 O316 1.227 . S
O316 C315 1.227 . S
N317 Co303 2.140 . S
N317 C320 1.346 . S
N317 C321 1.345 . S
C318 C319 1.387 . S
C318 C322 1.391 . S
C319 C318 1.387 . S
C319 C320 1.369 . S
C319 H328 0.929 . S
C320 N317 1.346 . S
C320 C319 1.369 . S
C320 H323 0.928 . S
C321 N317 1.345 . S
C321 C322 1.371 . S
C321 H324 0.931 . S
C322 C318 1.391 . S
C322 C321 1.371 . S
C322 H329 0.930 . S
H323 C320 0.928 . S
H324 C321 0.931 . S
H325 C301 0.930 1_565 S
H326 C298 0.930 . S
H327 C307 0.930 . S
H328 C319 0.929 . S
H329 C322 0.930 . S
C330 C331 1.351 . S
C330 N333 1.368 . S
C330 H335 0.931 . S
C331 C330 1.351 . S
C331 N332 1.373 . S
C331 H359 0.930 . S
N332 C331 1.373 . S
N332 C334 1.340 . S
N333 C330 1.368 . S
N333 C334 1.321 . S
N333 Co336 2.135 . S
C334 N332 1.340 . S
C334 N333 1.321 . S
C334 H358 0.930 . S
H335 C330 0.931 . S
Co336 N333 2.135 . S
Co336 N339 2.121 . S
Co336 O344 2.055 . S
Co336 O347 2.039 . S
Co336 N350 2.140 . S
C337 O338 1.227 . S
C337 O347 1.265 . S
O338 C337 1.227 . S
N339 Co336 2.121 . S
N339 C341 1.375 . S
N339 C342 1.313 . S
C340 C341 1.338 . S
C340 N343 1.377 . S
C340 H360 0.930 . S
C341 N339 1.375 . S
C341 C340 1.338 . S
C341 H345 0.931 . S
C342 N339 1.313 . S
C342 N343 1.344 . S
C342 H346 0.930 . S
N343 C340 1.377 . S
N343 C342 1.344 . S
O344 Co336 2.055 . S
O344 C348 1.253 . S
H345 C341 0.931 . S
H346 C342 0.930 . S
O347 Co336 2.039 . S
O347 C337 1.265 . S
C348 O344 1.253 . S
C348 O349 1.227 . S
O349 C348 1.227 . S
N350 Co336 2.140 . S
N350 C353 1.346 . S
N350 C354 1.345 . S
C351 C352 1.387 . S
C351 C355 1.391 . S
C352 C351 1.387 . S
C352 C353 1.369 . S
C352 H361 0.929 . S
C353 N350 1.346 . S
C353 C352 1.369 . S
C353 H356 0.928 . S
C354 N350 1.345 . S
C354 C355 1.371 . S
C354 H357 0.931 . S
C355 C351 1.391 . S
C355 C354 1.371 . S
C355 H362 0.930 . S
H356 C353 0.928 . S
H357 C354 0.931 . S
H358 C334 0.930 . S
H359 C331 0.930 . S
H360 C340 0.930 . S
H361 C352 0.929 . S
H362 C355 0.930 . S
C363 C364 1.351 1_545 S
C363 N366 1.368 . S
C363 H368 0.931 . S
C364 C363 1.351 1_565 S
C364 N365 1.373 . S
C364 H392 0.930 . S
N365 C364 1.373 . S
N365 C367 1.340 1_565 S
N366 C363 1.368 . S
N366 C367 1.321 . S
N366 Co369 2.135 . S
C367 N365 1.340 1_545 S
C367 N366 1.321 . S
C367 H391 0.930 . S
H368 C363 0.931 . S
Co369 N366 2.135 . S
Co369 N372 2.121 . S
Co369 O377 2.055 . S
Co369 O380 2.039 . S
Co369 N383 2.140 . S
C370 O371 1.227 . S
C370 O380 1.265 . S
O371 C370 1.227 . S
N372 Co369 2.121 . S
N372 C374 1.375 . S
N372 C375 1.313 . S
C373 C374 1.338 . S
C373 N376 1.377 . S
C373 H393 0.930 . S
C374 N372 1.375 . S
C374 C373 1.338 . S
C374 H378 0.931 . S
C375 N372 1.313 . S
C375 N376 1.344 . S
C375 H379 0.930 . S
N376 C373 1.377 . S
N376 C375 1.344 . S
O377 Co369 2.055 . S
O377 C381 1.253 . S
H378 C374 0.931 . S
H379 C375 0.930 . S
O380 Co369 2.039 . S
O380 C370 1.265 . S
C381 O377 1.253 . S
C381 O382 1.227 . S
O382 C381 1.227 . S
N383 Co369 2.140 . S
N383 C386 1.346 . S
N383 C387 1.345 . S
C384 C385 1.387 . S
C384 C388 1.391 . S
C385 C384 1.387 . S
C385 C386 1.369 . S
C385 H394 0.929 . S
C386 N383 1.346 . S
C386 C385 1.369 . S
C386 H389 0.928 . S
C387 N383 1.345 . S
C387 C388 1.371 . S
C387 H390 0.931 . S
C388 C384 1.391 . S
C388 C387 1.371 . S
C388 H395 0.930 . S
H389 C386 0.928 . S
H390 C387 0.931 . S
H391 C367 0.930 . S
H392 C364 0.930 . S
H393 C373 0.930 . S
H394 C385 0.929 . S
H395 C388 0.930 . S
C396 C397 1.351 . S
C396 N399 1.368 . S
C396 H401 0.931 . S
C397 C396 1.351 . S
C397 N398 1.373 . S
C397 H425 0.930 . S
N398 C397 1.373 . S
N398 C400 1.340 . S
N399 C396 1.368 . S
N399 C400 1.321 . S
N399 Co402 2.135 . S
C400 N398 1.340 . S
C400 N399 1.321 . S
C400 H424 0.930 . S
H401 C396 0.931 . S
Co402 N399 2.135 . S
Co402 N405 2.121 . S
Co402 O410 2.055 . S
Co402 O413 2.039 . S
Co402 N416 2.140 . S
C403 O404 1.227 . S
C403 O413 1.265 . S
O404 C403 1.227 . S
N405 Co402 2.121 . S
N405 C407 1.375 . S
N405 C408 1.313 1_455 S
C406 C407 1.338 1_655 S
C406 N409 1.377 . S
C406 H426 0.930 . S
C407 N405 1.375 . S
C407 C406 1.338 1_455 S
C407 H411 0.931 . S
C408 N405 1.313 1_655 S
C408 N409 1.344 . S
C408 H412 0.930 1_655 S
N409 C406 1.377 . S
N409 C408 1.344 . S
O410 Co402 2.055 . S
O410 C414 1.253 . S
H411 C407 0.931 . S
H412 C408 0.930 1_455 S
O413 Co402 2.039 . S
O413 C403 1.265 . S
C414 O410 1.253 . S
C414 O415 1.227 . S
O415 C414 1.227 . S
N416 Co402 2.140 . S
N416 C419 1.346 . S
N416 C420 1.345 . S
C417 C418 1.387 . S
C417 C421 1.391 . S
C418 C417 1.387 . S
C418 C419 1.369 . S
C418 H427 0.929 . S
C419 N416 1.346 . S
C419 C418 1.369 . S
C419 H422 0.928 . S
C420 N416 1.345 . S
C420 C421 1.371 . S
C420 H423 0.931 . S
C421 C417 1.391 . S
C421 C420 1.371 . S
C421 H428 0.930 . S
H422 C419 0.928 . S
H423 C420 0.931 . S
H424 C400 0.930 . S
H425 C397 0.930 . S
H426 C406 0.930 . S
H427 C418 0.929 . S
H428 C421 0.930 . S
C429 C430 1.351 . S
C429 N432 1.368 . S
C429 H434 0.931 . S
C430 C429 1.351 . S
C430 N431 1.373 . S
C430 H458 0.930 . S
N431 C430 1.373 . S
N431 C433 1.340 . S
N432 C429 1.368 . S
N432 C433 1.321 . S
N432 Co435 2.135 . S
C433 N431 1.340 . S
C433 N432 1.321 . S
C433 H457 0.930 . S
H434 C429 0.931 . S
Co435 N432 2.135 . S
Co435 N438 2.121 . S
Co435 O443 2.055 . S
Co435 O446 2.039 . S
Co435 N449 2.140 . S
C436 O437 1.227 . S
C436 O446 1.265 . S
O437 C436 1.227 . S
N438 Co435 2.121 . S
N438 C440 1.375 . S
N438 C441 1.313 . S
C439 C440 1.338 1_545 S
C439 N442 1.377 . S
C439 H459 0.930 . S
C440 N438 1.375 . S
C440 C439 1.338 1_565 S
C440 H444 0.931 . S
C441 N438 1.313 . S
C441 N442 1.344 1_565 S
C441 H445 0.930 . S
N442 C439 1.377 . S
N442 C441 1.344 1_545 S
O443 Co435 2.055 . S
O443 C447 1.253 . S
H444 C440 0.931 . S
H445 C441 0.930 . S
O446 Co435 2.039 . S
O446 C436 1.265 . S
C447 O443 1.253 . S
C447 O448 1.227 . S
O448 C447 1.227 . S
N449 Co435 2.140 . S
N449 C452 1.346 . S
N449 C453 1.345 . S
C450 C451 1.387 . S
C450 C454 1.391 . S
C451 C450 1.387 . S
C451 C452 1.369 . S
C451 H460 0.929 . S
C452 N449 1.346 . S
C452 C451 1.369 . S
C452 H455 0.928 . S
C453 N449 1.345 . S
C453 C454 1.371 . S
C453 H456 0.931 . S
C454 C450 1.391 . S
C454 C453 1.371 . S
C454 H461 0.930 . S
H455 C452 0.928 . S
H456 C453 0.931 . S
H457 C433 0.930 . S
H458 C430 0.930 . S
H459 C439 0.930 . S
H460 C451 0.929 . S
H461 C454 0.930 . S
C462 C463 1.351 . S
C462 N465 1.368 . S
C462 H467 0.931 . S
C463 C462 1.351 . S
C463 N464 1.373 . S
C463 H491 0.930 . S
N464 C463 1.373 . S
N464 C466 1.340 . S
N465 C462 1.368 . S
N465 C466 1.321 . S
N465 Co468 2.135 . S
C466 N464 1.340 . S
C466 N465 1.321 . S
C466 H490 0.930 . S
H467 C462 0.931 . S
Co468 N465 2.135 . S
Co468 N471 2.121 . S
Co468 O476 2.055 1_545 S
Co468 O479 2.039 . S
Co468 N482 2.140 . S
C469 O470 1.227 . S
C469 O479 1.265 . S
O470 C469 1.227 . S
N471 Co468 2.121 . S
N471 C473 1.375 . S
N471 C474 1.313 . S
C472 C473 1.338 . S
C472 N475 1.377 . S
C472 H492 0.930 . S
C473 N471 1.375 . S
C473 C472 1.338 . S
C473 H477 0.931 . S
C474 N471 1.313 . S
C474 N475 1.344 . S
C474 H478 0.930 . S
N475 C472 1.377 . S
N475 C474 1.344 . S
O476 Co468 2.055 1_565 S
O476 C480 1.253 1_565 S
H477 C473 0.931 . S
H478 C474 0.930 . S
O479 Co468 2.039 . S
O479 C469 1.265 . S
C480 O476 1.253 1_545 S
C480 O481 1.227 . S
O481 C480 1.227 . S
N482 Co468 2.140 . S
N482 C485 1.346 . S
N482 C486 1.345 . S
C483 C484 1.387 . S
C483 C487 1.391 . S
C484 C483 1.387 . S
C484 C485 1.369 . S
C484 H493 0.929 . S
C485 N482 1.346 . S
C485 C484 1.369 . S
C485 H488 0.928 . S
C486 N482 1.345 . S
C486 C487 1.371 . S
C486 H489 0.931 . S
C487 C483 1.391 . S
C487 C486 1.371 . S
C487 H494 0.930 . S
H488 C485 0.928 . S
H489 C486 0.931 . S
H490 C466 0.930 . S
H491 C463 0.930 . S
H492 C472 0.930 . S
H493 C484 0.929 . S
H494 C487 0.930 . S
C495 C496 1.351 . S
C495 N498 1.368 . S
C495 H500 0.931 . S
C496 C495 1.351 . S
C496 N497 1.373 . S
C496 H524 0.930 . S
N497 C496 1.373 . S
N497 C499 1.340 . S
N498 C495 1.368 . S
N498 C499 1.321 . S
N498 Co501 2.135 . S
C499 N497 1.340 . S
C499 N498 1.321 . S
C499 H523 0.930 . S
H500 C495 0.931 . S
Co501 N498 2.135 . S
Co501 N504 2.121 . S
Co501 O509 2.055 . S
Co501 O512 2.039 . S
Co501 N515 2.140 . S
C502 O503 1.227 . S
C502 O512 1.265 . S
O503 C502 1.227 . S
N504 Co501 2.121 . S
N504 C506 1.375 . S
N504 C507 1.313 . S
C505 C506 1.338 . S
C505 N508 1.377 . S
C505 H525 0.930 1_545 S
C506 N504 1.375 . S
C506 C505 1.338 . S
C506 H510 0.931 . S
C507 N504 1.313 . S
C507 N508 1.344 . S
C507 H511 0.930 . S
N508 C505 1.377 . S
N508 C507 1.344 . S
O509 Co501 2.055 . S
O509 C513 1.253 . S
H510 C506 0.931 . S
H511 C507 0.930 . S
O512 Co501 2.039 . S
O512 C502 1.265 . S
C513 O509 1.253 . S
C513 O514 1.227 . S
O514 C513 1.227 . S
N515 Co501 2.140 . S
N515 C518 1.346 . S
N515 C519 1.345 . S
C516 C517 1.387 . S
C516 C520 1.391 . S
C517 C516 1.387 . S
C517 C518 1.369 . S
C517 H526 0.929 . S
C518 N515 1.346 . S
C518 C517 1.369 . S
C518 H521 0.928 . S
C519 N515 1.345 . S
C519 C520 1.371 . S
C519 H522 0.931 . S
C520 C516 1.391 . S
C520 C519 1.371 . S
C520 H527 0.930 . S
H521 C518 0.928 . S
H522 C519 0.931 . S
H523 C499 0.930 . S
H524 C496 0.930 . S
H525 C505 0.930 1_565 S
H526 C517 0.929 . S
H527 C520 0.930 . S
C528 C529 1.351 . S
C528 N531 1.368 . S
C528 H533 0.931 . S
C529 C528 1.351 . S
C529 N530 1.373 . S
C529 H557 0.930 . S
N530 C529 1.373 . S
N530 C532 1.340 . S
N531 C528 1.368 . S
N531 C532 1.321 . S
N531 Co534 2.135 . S
C532 N530 1.340 . S
C532 N531 1.321 . S
C532 H556 0.930 . S
H533 C528 0.931 . S
Co534 N531 2.135 . S
Co534 N537 2.121 . S
Co534 O542 2.055 . S
Co534 O545 2.039 . S
Co534 N548 2.140 . S
C535 O536 1.227 . S
C535 O545 1.265 . S
O536 C535 1.227 . S
N537 Co534 2.121 . S
N537 C539 1.375 . S
N537 C540 1.313 . S
C538 C539 1.338 . S
C538 N541 1.377 . S
C538 H558 0.930 . S
C539 N537 1.375 . S
C539 C538 1.338 . S
C539 H543 0.931 . S
C540 N537 1.313 . S
C540 N541 1.344 . S
C540 H544 0.930 . S
N541 C538 1.377 . S
N541 C540 1.344 . S
O542 Co534 2.055 . S
O542 C546 1.253 . S
H543 C539 0.931 . S
H544 C540 0.930 . S
O545 Co534 2.039 . S
O545 C535 1.265 . S
C546 O542 1.253 . S
C546 O547 1.227 . S
O547 C546 1.227 . S
N548 Co534 2.140 . S
N548 C551 1.346 . S
N548 C552 1.345 . S
C549 C550 1.387 1_455 S
C549 C553 1.391 1_455 S
C550 C549 1.387 1_655 S
C550 C551 1.369 . S
C550 H559 0.929 1_655 S
C551 N548 1.346 . S
C551 C550 1.369 . S
C551 H554 0.928 . S
C552 N548 1.345 . S
C552 C553 1.371 . S
C552 H555 0.931 . S
C553 C549 1.391 1_655 S
C553 C552 1.371 . S
C553 H560 0.939 . S
H554 C551 0.928 . S
H555 C552 0.931 . S
H556 C532 0.930 . S
H557 C529 0.930 . S
H558 C538 0.930 . S
H559 C550 0.929 1_455 S
H560 C553 0.939 . S
C561 C562 1.351 . S
C561 N564 1.368 . S
C561 H566 0.931 . S
C562 C561 1.351 . S
C562 N563 1.373 . S
C562 H590 0.930 1_655 S
N563 C562 1.373 . S
N563 C565 1.340 . S
N564 C561 1.368 . S
N564 C565 1.321 . S
N564 Co567 2.135 . S
C565 N563 1.340 . S
C565 N564 1.321 . S
C565 H589 0.930 . S
H566 C561 0.931 . S
Co567 N564 2.135 . S
Co567 N570 2.121 . S
Co567 O575 2.055 . S
Co567 O578 2.039 . S
Co567 N581 2.140 . S
C568 O569 1.227 . S
C568 O578 1.265 . S
O569 C568 1.227 . S
N570 Co567 2.121 . S
N570 C572 1.375 . S
N570 C573 1.313 . S
C571 C572 1.338 . S
C571 N574 1.377 . S
C571 H591 0.930 . S
C572 N570 1.375 . S
C572 C571 1.338 . S
C572 H576 0.931 . S
C573 N570 1.313 . S
C573 N574 1.344 . S
C573 H577 0.930 . S
N574 C571 1.377 . S
N574 C573 1.344 . S
O575 Co567 2.055 . S
O575 C579 1.253 . S
H576 C572 0.931 . S
H577 C573 0.930 . S
O578 Co567 2.039 . S
O578 C568 1.265 . S
C579 O575 1.253 . S
C579 O580 1.227 . S
O580 C579 1.227 . S
N581 Co567 2.140 . S
N581 C584 1.346 . S
N581 C585 1.345 . S
C582 C583 1.387 . S
C582 C586 1.391 . S
C583 C582 1.387 . S
C583 C584 1.369 . S
C583 H592 0.929 . S
C584 N581 1.346 . S
C584 C583 1.369 . S
C584 H587 0.928 . S
C585 N581 1.345 . S
C585 C586 1.371 . S
C585 H588 0.931 . S
C586 C582 1.391 . S
C586 C585 1.371 . S
C586 H593 0.930 . S
H587 C584 0.928 . S
H588 C585 0.931 . S
H589 C565 0.930 . S
H590 C562 0.930 1_455 S
H591 C571 0.930 . S
H592 C583 0.929 . S
H593 C586 0.930 . S
C594 C595 1.351 . S
C594 N597 1.368 . S
C594 H599 0.931 . S
C595 C594 1.351 . S
C595 N596 1.373 . S
C595 H623 0.930 . S
N596 C595 1.373 . S
N596 C598 1.340 . S
N597 C594 1.368 . S
N597 C598 1.321 . S
N597 Co600 2.135 . S
C598 N596 1.340 . S
C598 N597 1.321 . S
C598 H622 0.930 . S
H599 C594 0.931 . S
Co600 N597 2.135 . S
Co600 N603 2.121 . S
Co600 O608 2.055 . S
Co600 O611 2.039 . S
Co600 N614 2.140 . S
C601 O602 1.227 . S
C601 O611 1.265 . S
O602 C601 1.227 . S
N603 Co600 2.121 . S
N603 C605 1.375 . S
N603 C606 1.313 . S
C604 C605 1.338 . S
C604 N607 1.377 . S
C604 H624 0.930 . S
C605 N603 1.375 . S
C605 C604 1.338 . S
C605 H609 0.931 . S
C606 N603 1.313 . S
C606 N607 1.344 . S
C606 H610 0.930 . S
N607 C604 1.377 . S
N607 C606 1.344 . S
O608 Co600 2.055 . S
O608 C612 1.253 . S
H609 C605 0.931 . S
H610 C606 0.930 . S
O611 Co600 2.039 . S
O611 C601 1.265 . S
C612 O608 1.253 . S
C612 O613 1.227 . S
O613 C612 1.227 . S
N614 Co600 2.140 . S
N614 C617 1.346 . S
N614 C618 1.345 . S
C615 C616 1.387 . S
C615 C619 1.391 . S
C616 C615 1.387 . S
C616 C617 1.369 . S
C616 H625 0.929 . S
C617 N614 1.346 . S
C617 C616 1.369 . S
C617 H620 0.928 . S
C618 N614 1.345 . S
C618 C619 1.371 . S
C618 H621 0.931 . S
C619 C615 1.391 . S
C619 C618 1.371 . S
C619 H626 0.930 . S
H620 C617 0.928 . S
H621 C618 0.931 . S
H622 C598 0.930 . S
H623 C595 0.930 . S
H624 C604 0.930 . S
H625 C616 0.929 . S
H626 C619 0.930 . S
C627 C628 1.351 . S
C627 N630 1.368 . S
C627 H632 0.931 . S
C628 C627 1.351 . S
C628 N629 1.373 . S
C628 H656 0.930 1_655 S
N629 C628 1.373 . S
N629 C631 1.340 . S
N630 C627 1.368 . S
N630 C631 1.321 . S
N630 Co633 2.135 . S
C631 N629 1.340 . S
C631 N630 1.321 . S
C631 H655 0.930 . S
H632 C627 0.931 . S
Co633 N630 2.135 . S
Co633 N636 2.121 . S
Co633 O641 2.055 . S
Co633 O644 2.039 . S
Co633 N647 2.140 . S
C634 O635 1.227 . S
C634 O644 1.265 . S
O635 C634 1.227 . S
N636 Co633 2.121 . S
N636 C638 1.375 . S
N636 C639 1.313 . S
C637 C638 1.338 . S
C637 N640 1.377 . S
C637 H657 0.930 . S
C638 N636 1.375 . S
C638 C637 1.338 . S
C638 H642 0.931 . S
C639 N636 1.313 . S
C639 N640 1.344 . S
C639 H643 0.930 . S
N640 C637 1.377 . S
N640 C639 1.344 . S
O641 Co633 2.055 . S
O641 C645 1.253 . S
H642 C638 0.931 . S
H643 C639 0.930 . S
O644 Co633 2.039 . S
O644 C634 1.265 . S
C645 O641 1.253 . S
C645 O646 1.227 . S
O646 C645 1.227 . S
N647 Co633 2.140 . S
N647 C650 1.346 . S
N647 C651 1.345 . S
C648 C649 1.387 . S
C648 C652 1.391 . S
C649 C648 1.387 . S
C649 C650 1.369 . S
C649 H658 0.929 . S
C650 N647 1.346 . S
C650 C649 1.369 . S
C650 H653 0.928 . S
C651 N647 1.345 . S
C651 C652 1.371 . S
C651 H654 0.931 . S
C652 C648 1.391 . S
C652 C651 1.371 . S
C652 H659 0.930 . S
H653 C650 0.928 . S
H654 C651 0.931 . S
H655 C631 0.930 . S
H656 C628 0.930 1_455 S
H657 C637 0.930 . S
H658 C649 0.929 . S
H659 C652 0.930 . S
C660 C661 1.351 . S
C660 N663 1.368 . S
C660 H665 0.931 . S
C661 C660 1.351 . S
C661 N662 1.373 . S
C661 H689 0.930 . S
N662 C661 1.373 . S
N662 C664 1.340 . S
N663 C660 1.368 . S
N663 C664 1.321 . S
N663 Co666 2.135 . S
C664 N662 1.340 . S
C664 N663 1.321 . S
C664 H688 0.930 . S
H665 C660 0.931 . S
Co666 N663 2.135 . S
Co666 N669 2.121 . S
Co666 O674 2.055 . S
Co666 O677 2.039 . S
Co666 N680 2.140 . S
C667 O668 1.227 . S
C667 O677 1.265 . S
O668 C667 1.227 . S
N669 Co666 2.121 . S
N669 C671 1.375 . S
N669 C672 1.313 . S
C670 C671 1.338 . S
C670 N673 1.377 . S
C670 H690 0.930 . S
C671 N669 1.375 . S
C671 C670 1.338 . S
C671 H675 0.931 . S
C672 N669 1.313 . S
C672 N673 1.344 . S
C672 H676 0.930 . S
N673 C670 1.377 . S
N673 C672 1.344 . S
O674 Co666 2.055 . S
O674 C678 1.253 . S
H675 C671 0.931 . S
H676 C672 0.930 . S
O677 Co666 2.039 . S
O677 C667 1.265 . S
C678 O674 1.253 . S
C678 O679 1.227 . S
O679 C678 1.227 . S
N680 Co666 2.140 . S
N680 C683 1.346 . S
N680 C684 1.345 . S
C681 C682 1.380 1_554 S
C681 C685 1.391 1_554 S
C682 C681 1.380 1_556 S
C682 C683 1.386 . S
C682 H691 0.919 1_556 S
C683 N680 1.346 . S
C683 C682 1.386 . S
C683 H686 0.928 . S
C684 N680 1.345 . S
C684 C685 1.371 . S
C684 H687 0.931 . S
C685 C681 1.391 1_556 S
C685 C684 1.371 . S
C685 H692 0.930 . S
H686 C683 0.928 . S
H687 C684 0.931 . S
H688 C664 0.930 . S
H689 C661 0.930 . S
H690 C670 0.930 . S
H691 C682 0.919 1_554 S
H692 C685 0.930 . S
C693 C694 1.351 1_556 S
C693 N696 1.368 . S
C693 H698 0.931 . S
C694 C693 1.351 1_554 S
C694 N695 1.373 . S
C694 H722 0.930 . S
N695 C694 1.373 . S
N695 C697 1.340 . S
N696 C693 1.368 . S
N696 C697 1.321 1_556 S
N696 Co699 2.135 . S
C697 N695 1.340 . S
C697 N696 1.321 1_554 S
C697 H721 0.927 1_554 S
H698 C693 0.931 . S
Co699 N696 2.135 . S
Co699 N702 2.121 . S
Co699 O707 2.055 . S
Co699 O710 2.039 . S
Co699 N713 2.140 . S
C700 O701 1.227 . S
C700 O710 1.265 . S
O701 C700 1.227 . S
N702 Co699 2.121 . S
N702 C704 1.375 . S
N702 C705 1.313 . S
C703 C704 1.338 . S
C703 N706 1.377 . S
C703 H723 0.930 . S
C704 N702 1.375 . S
C704 C703 1.338 . S
C704 H708 0.931 . S
C705 N702 1.313 . S
C705 N706 1.344 . S
C705 H709 0.930 . S
N706 C703 1.377 . S
N706 C705 1.344 . S
O707 Co699 2.055 . S
O707 C711 1.253 . S
H708 C704 0.931 . S
H709 C705 0.930 . S
O710 Co699 2.039 . S
O710 C700 1.265 . S
C711 O707 1.253 . S
C711 O712 1.227 . S
O712 C711 1.227 . S
N713 Co699 2.140 . S
N713 C716 1.346 . S
N713 C717 1.345 . S
C714 C715 1.387 . S
C714 C718 1.391 . S
C715 C714 1.387 . S
C715 C716 1.369 . S
C715 H724 0.929 . S
C716 N713 1.346 . S
C716 C715 1.369 . S
C716 H719 0.928 . S
C717 N713 1.345 . S
C717 C718 1.371 . S
C717 H720 0.931 . S
C718 C714 1.391 . S
C718 C717 1.371 . S
C718 H725 0.930 . S
H719 C716 0.928 . S
H720 C717 0.931 . S
H721 C697 0.927 1_556 S
H722 C694 0.930 . S
H723 C703 0.930 . S
H724 C715 0.929 . S
H725 C718 0.930 . S
C726 C727 1.351 . S
C726 N729 1.368 . S
C726 H731 0.931 . S
C727 C726 1.351 . S
C727 N728 1.373 . S
C727 H755 0.930 . S
N728 C727 1.373 . S
N728 C730 1.340 . S
N729 C726 1.368 . S
N729 C730 1.321 . S
N729 Co732 2.135 . S
C730 N728 1.340 . S
C730 N729 1.321 . S
C730 H754 0.930 . S
H731 C726 0.931 . S
Co732 N729 2.135 . S
Co732 N735 2.121 . S
Co732 O740 2.063 . S
Co732 O743 2.039 . S
Co732 N746 2.140 . S
C733 O734 1.227 . S
C733 O743 1.265 . S
O734 C733 1.227 . S
N735 Co732 2.121 . S
N735 C737 1.375 . S
N735 C738 1.313 . S
C736 C737 1.338 . S
C736 N739 1.377 . S
C736 H756 0.930 . S
C737 N735 1.375 . S
C737 C736 1.338 . S
C737 H741 0.931 . S
C738 N735 1.313 . S
C738 N739 1.344 . S
C738 H742 0.930 . S
N739 C736 1.377 . S
N739 C738 1.344 . S
O740 Co732 2.063 . S
O740 C744 1.255 . S
H741 C737 0.931 . S
H742 C738 0.930 . S
O743 Co732 2.039 . S
O743 C733 1.265 . S
C744 O740 1.255 . S
C744 O745 1.227 . S
O745 C744 1.227 . S
N746 Co732 2.140 . S
N746 C749 1.346 . S
N746 C750 1.345 . S
C747 C748 1.387 . S
C747 C751 1.391 . S
C748 C747 1.387 . S
C748 C749 1.369 . S
C748 H757 0.929 . S
C749 N746 1.346 . S
C749 C748 1.369 . S
C749 H752 0.928 . S
C750 N746 1.345 . S
C750 C751 1.371 . S
C750 H753 0.931 . S
C751 C747 1.391 . S
C751 C750 1.371 . S
C751 H758 0.930 . S
H752 C749 0.928 . S
H753 C750 0.931 . S
H754 C730 0.930 . S
H755 C727 0.930 . S
H756 C736 0.930 . S
H757 C748 0.929 . S
H758 C751 0.930 . S
C759 C760 1.351 . S
C759 N762 1.368 . S
C759 H764 0.931 . S
C760 C759 1.351 . S
C760 N761 1.373 . S
C760 H788 0.930 . S
N761 C760 1.373 . S
N761 C763 1.340 . S
N762 C759 1.368 . S
N762 C763 1.321 . S
N762 Co765 2.135 . S
C763 N761 1.340 . S
C763 N762 1.321 . S
C763 H787 0.930 . S
H764 C759 0.931 . S
Co765 N762 2.135 . S
Co765 N768 2.121 . S
Co765 O773 2.055 . S
Co765 O776 2.039 . S
Co765 N779 2.140 . S
C766 O767 1.227 . S
C766 O776 1.265 . S
O767 C766 1.227 . S
N768 Co765 2.121 . S
N768 C770 1.375 . S
N768 C771 1.313 . S
C769 C770 1.338 . S
C769 N772 1.377 . S
C769 H789 0.930 . S
C770 N768 1.375 . S
C770 C769 1.338 . S
C770 H774 0.931 . S
C771 N768 1.313 . S
C771 N772 1.344 . S
C771 H775 0.930 . S
N772 C769 1.377 . S
N772 C771 1.344 . S
O773 Co765 2.055 . S
O773 C777 1.253 . S
H774 C770 0.931 . S
H775 C771 0.930 . S
O776 Co765 2.039 . S
O776 C766 1.265 . S
C777 O773 1.253 . S
C777 O778 1.227 . S
O778 C777 1.227 . S
N779 Co765 2.140 . S
N779 C782 1.346 . S
N779 C783 1.345 . S
C780 C781 1.387 . S
C780 C784 1.391 . S
C781 C780 1.387 . S
C781 C782 1.369 . S
C781 H790 0.929 . S
C782 N779 1.346 . S
C782 C781 1.369 . S
C782 H785 0.928 . S
C783 N779 1.345 . S
C783 C784 1.371 . S
C783 H786 0.931 . S
C784 C780 1.391 . S
C784 C783 1.371 . S
C784 H791 0.930 . S
H785 C782 0.928 . S
H786 C783 0.931 . S
H787 C763 0.930 . S
H788 C760 0.930 . S
H789 C769 0.930 . S
H790 C781 0.929 . S
H791 C784 0.930 . S
C792 C793 1.351 . S
C792 N795 1.368 . S
C792 H797 0.931 . S
C793 C792 1.351 . S
C793 N794 1.376 . S
C793 H821 0.930 1_554 S
N794 C793 1.376 . S
N794 C796 1.349 . S
N795 C792 1.368 . S
N795 C796 1.321 . S
N795 Co798 2.135 . S
C796 N794 1.349 . S
C796 N795 1.321 . S
C796 H820 0.930 . S
H797 C792 0.931 . S
Co798 N795 2.135 . S
Co798 N801 2.121 . S
Co798 O806 2.055 . S
Co798 O809 2.039 . S
Co798 N812 2.140 . S
C799 O800 1.227 . S
C799 O809 1.265 . S
O800 C799 1.227 . S
N801 Co798 2.121 . S
N801 C803 1.375 . S
N801 C804 1.313 . S
C802 C803 1.338 . S
C802 N805 1.377 . S
C802 H822 0.930 . S
C803 N801 1.375 . S
C803 C802 1.338 . S
C803 H807 0.931 . S
C804 N801 1.313 . S
C804 N805 1.344 . S
C804 H808 0.930 . S
N805 C802 1.377 . S
N805 C804 1.344 . S
O806 Co798 2.055 . S
O806 C810 1.253 . S
H807 C803 0.931 . S
H808 C804 0.930 . S
O809 Co798 2.039 . S
O809 C799 1.265 . S
C810 O806 1.253 . S
C810 O811 1.227 . S
O811 C810 1.227 . S
N812 Co798 2.140 . S
N812 C815 1.346 . S
N812 C816 1.345 . S
C813 C814 1.387 . S
C813 C817 1.391 . S
C814 C813 1.387 . S
C814 C815 1.369 . S
C814 H823 0.929 . S
C815 N812 1.346 . S
C815 C814 1.369 . S
C815 H818 0.928 . S
C816 N812 1.345 . S
C816 C817 1.371 . S
C816 H819 0.931 . S
C817 C813 1.391 . S
C817 C816 1.371 . S
C817 H824 0.930 . S
H818 C815 0.928 . S
H819 C816 0.931 . S
H820 C796 0.930 . S
H821 C793 0.930 1_556 S
H822 C802 0.930 . S
H823 C814 0.929 . S
H824 C817 0.930 . S
C825 C826 1.351 . S
C825 N828 1.368 . S
C825 H830 0.931 . S
C826 C825 1.351 . S
C826 N827 1.373 . S
C826 H854 0.930 . S
N827 C826 1.373 . S
N827 C829 1.340 . S
N828 C825 1.368 . S
N828 C829 1.321 . S
N828 Co831 2.135 . S
C829 N827 1.340 . S
C829 N828 1.321 . S
C829 H853 0.930 . S
H830 C825 0.931 . S
Co831 N828 2.135 . S
Co831 N834 2.121 . S
Co831 O839 2.055 . S
Co831 O842 2.039 . S
Co831 N845 2.140 . S
C832 O833 1.227 . S
C832 O842 1.265 . S
O833 C832 1.227 . S
N834 Co831 2.121 . S
N834 C836 1.375 . S
N834 C837 1.313 . S
C835 C836 1.338 . S
C835 N838 1.377 . S
C835 H855 0.930 . S
C836 N834 1.375 . S
C836 C835 1.338 . S
C836 H840 0.931 . S
C837 N834 1.313 . S
C837 N838 1.344 . S
C837 H841 0.930 . S
N838 C835 1.377 . S
N838 C837 1.344 . S
O839 Co831 2.055 . S
O839 C843 1.253 . S
H840 C836 0.931 . S
H841 C837 0.930 . S
O842 Co831 2.039 . S
O842 C832 1.265 . S
C843 O839 1.253 . S
C843 O844 1.227 . S
O844 C843 1.227 . S
N845 Co831 2.140 . S
N845 C848 1.346 . S
N845 C849 1.345 . S
C846 C847 1.387 . S
C846 C850 1.391 . S
C847 C846 1.387 . S
C847 C848 1.369 . S
C847 H856 0.929 . S
C848 N845 1.346 . S
C848 C847 1.369 . S
C848 H851 0.928 . S
C849 N845 1.345 . S
C849 C850 1.371 . S
C849 H852 0.931 . S
C850 C846 1.391 . S
C850 C849 1.371 . S
C850 H857 0.930 . S
H851 C848 0.928 . S
H852 C849 0.931 . S
H853 C829 0.930 . S
H854 C826 0.930 . S
H855 C835 0.930 . S
H856 C847 0.929 . S
H857 C850 0.930 . S
C858 C859 1.351 . S
C858 N861 1.368 . S
C858 H863 0.931 . S
C859 C858 1.351 . S
C859 N860 1.373 . S
C859 H887 0.930 . S
N860 C859 1.373 . S
N860 C862 1.340 . S
N861 C858 1.368 . S
N861 C862 1.321 . S
N861 Co864 2.135 . S
C862 N860 1.340 . S
C862 N861 1.321 . S
C862 H886 0.930 . S
H863 C858 0.931 . S
Co864 N861 2.135 . S
Co864 N867 2.121 . S
Co864 O872 2.055 . S
Co864 O875 2.039 . S
Co864 N878 2.140 . S
C865 O866 1.227 . S
C865 O875 1.265 . S
O866 C865 1.227 . S
N867 Co864 2.121 . S
N867 C869 1.375 . S
N867 C870 1.313 . S
C868 C869 1.338 . S
C868 N871 1.377 . S
C868 H888 0.930 . S
C869 N867 1.375 . S
C869 C868 1.338 . S
C869 H873 0.931 . S
C870 N867 1.313 . S
C870 N871 1.344 . S
C870 H874 0.930 . S
N871 C868 1.377 . S
N871 C870 1.344 . S
O872 Co864 2.055 . S
O872 C876 1.253 . S
H873 C869 0.931 . S
H874 C870 0.930 . S
O875 Co864 2.039 . S
O875 C865 1.265 . S
C876 O872 1.253 . S
C876 O877 1.227 . S
O877 C876 1.227 . S
N878 Co864 2.140 . S
N878 C881 1.346 . S
N878 C882 1.345 . S
C879 C880 1.387 . S
C879 C883 1.391 . S
C880 C879 1.387 . S
C880 C881 1.369 . S
C880 H889 0.929 . S
C881 N878 1.346 . S
C881 C880 1.369 . S
C881 H884 0.928 . S
C882 N878 1.345 . S
C882 C883 1.371 . S
C882 H885 0.931 . S
C883 C879 1.391 . S
C883 C882 1.371 . S
C883 H890 0.930 . S
H884 C881 0.928 . S
H885 C882 0.931 . S
H886 C862 0.930 . S
H887 C859 0.930 . S
H888 C868 0.930 . S
H889 C880 0.929 . S
H890 C883 0.930 . S
C891 C892 1.351 . S
C891 N894 1.368 . S
C891 H896 0.931 . S
C892 C891 1.351 . S
C892 N893 1.373 . S
C892 H920 0.930 . S
N893 C892 1.373 . S
N893 C895 1.340 . S
N894 C891 1.368 . S
N894 C895 1.321 . S
N894 Co897 2.135 . S
C895 N893 1.340 . S
C895 N894 1.321 . S
C895 H919 0.930 . S
H896 C891 0.931 . S
Co897 N894 2.135 . S
Co897 N900 2.121 . S
Co897 O905 2.055 . S
Co897 O908 2.039 . S
Co897 N911 2.140 . S
C898 O899 1.227 . S
C898 O908 1.265 . S
O899 C898 1.227 . S
N900 Co897 2.121 . S
N900 C902 1.375 . S
N900 C903 1.313 . S
C901 C902 1.338 . S
C901 N904 1.377 . S
C901 H921 0.930 . S
C902 N900 1.375 . S
C902 C901 1.338 . S
C902 H906 0.931 . S
C903 N900 1.313 . S
C903 N904 1.344 . S
C903 H907 0.930 . S
N904 C901 1.377 . S
N904 C903 1.344 . S
O905 Co897 2.055 . S
O905 C909 1.253 . S
H906 C902 0.931 . S
H907 C903 0.930 . S
O908 Co897 2.039 . S
O908 C898 1.265 . S
C909 O905 1.253 . S
C909 O910 1.227 . S
O910 C909 1.227 . S
N911 Co897 2.140 . S
N911 C914 1.346 . S
N911 C915 1.345 . S
C912 C913 1.387 . S
C912 C916 1.391 . S
C913 C912 1.387 . S
C913 C914 1.369 . S
C913 H922 0.929 . S
C914 N911 1.346 . S
C914 C913 1.369 . S
C914 H917 0.928 . S
C915 N911 1.345 . S
C915 C916 1.371 . S
C915 H918 0.931 . S
C916 C912 1.391 . S
C916 C915 1.371 . S
C916 H923 0.930 . S
H917 C914 0.928 . S
H918 C915 0.931 . S
H919 C895 0.930 . S
H920 C892 0.930 . S
H921 C901 0.930 . S
H922 C913 0.929 . S
H923 C916 0.930 . S
C924 C925 1.351 . S
C924 N927 1.368 . S
C924 H929 0.931 . S
C925 C924 1.351 . S
C925 N926 1.373 . S
C925 H953 0.930 . S
N926 C925 1.373 . S
N926 C928 1.340 . S
N927 C924 1.368 . S
N927 C928 1.321 . S
N927 Co930 2.135 . S
C928 N926 1.340 . S
C928 N927 1.321 . S
C928 H952 0.930 . S
H929 C924 0.931 . S
Co930 N927 2.135 . S
Co930 N933 2.121 . S
Co930 O938 2.055 . S
Co930 O941 2.039 . S
Co930 N944 2.140 . S
C931 O932 1.227 . S
C931 O941 1.265 . S
O932 C931 1.227 . S
N933 Co930 2.121 . S
N933 C935 1.375 . S
N933 C936 1.313 . S
C934 C935 1.338 1_554 S
C934 N937 1.377 . S
C934 H954 0.930 . S
C935 N933 1.375 . S
C935 C934 1.338 1_556 S
C935 H939 0.931 . S
C936 N933 1.313 . S
C936 N937 1.344 1_556 S
C936 H940 0.930 . S
N937 C934 1.377 . S
N937 C936 1.344 1_554 S
O938 Co930 2.055 . S
O938 C942 1.253 . S
H939 C935 0.931 . S
H940 C936 0.930 . S
O941 Co930 2.039 . S
O941 C931 1.265 . S
C942 O938 1.253 . S
C942 O943 1.227 . S
O943 C942 1.227 . S
N944 Co930 2.140 . S
N944 C947 1.346 . S
N944 C948 1.345 . S
C945 C946 1.387 1_545 S
C945 C949 1.391 1_545 S
C946 C945 1.387 1_565 S
C946 C947 1.369 . S
C946 H955 0.929 1_565 S
C947 N944 1.346 . S
C947 C946 1.369 . S
C947 H950 0.928 . S
C948 N944 1.345 . S
C948 C949 1.371 . S
C948 H951 0.931 . S
C949 C945 1.391 1_565 S
C949 C948 1.371 . S
C949 H956 0.930 . S
H950 C947 0.928 . S
H951 C948 0.931 . S
H952 C928 0.930 . S
H953 C925 0.930 . S
H954 C934 0.930 . S
H955 C946 0.929 1_545 S
H956 C949 0.930 . S
C957 C958 1.351 . S
C957 N960 1.368 1_455 S
C957 H962 0.931 1_455 S
C958 C957 1.351 . S
C958 N959 1.373 . S
C958 H986 0.930 . S
N959 C958 1.373 . S
N959 C961 1.340 . S
N960 C957 1.368 1_655 S
N960 C961 1.321 1_655 S
N960 Co963 2.135 . S
C961 N959 1.340 . S
C961 N960 1.321 1_455 S
C961 H985 0.930 . S
H962 C957 0.931 1_655 S
Co963 N960 2.135 . S
Co963 N966 2.121 . S
Co963 O971 2.055 . S
Co963 O974 2.039 . S
Co963 N977 2.140 . S
C964 O965 1.227 . S
C964 O974 1.265 . S
O965 C964 1.227 . S
N966 Co963 2.121 . S
N966 C968 1.375 . S
N966 C969 1.313 . S
C967 C968 1.338 . S
C967 N970 1.377 . S
C967 H987 0.930 . S
C968 N966 1.375 . S
C968 C967 1.338 . S
C968 H972 0.931 . S
C969 N966 1.313 . S
C969 N970 1.344 . S
C969 H973 0.930 . S
N970 C967 1.377 . S
N970 C969 1.344 . S
O971 Co963 2.055 . S
O971 C975 1.253 . S
H972 C968 0.931 . S
H973 C969 0.930 . S
O974 Co963 2.039 . S
O974 C964 1.265 . S
C975 O971 1.253 . S
C975 O976 1.227 . S
O976 C975 1.227 . S
N977 Co963 2.140 . S
N977 C980 1.346 . S
N977 C981 1.345 . S
C978 C979 1.387 . S
C978 C982 1.391 . S
C979 C978 1.387 . S
C979 C980 1.369 . S
C979 H988 0.929 . S
C980 N977 1.346 . S
C980 C979 1.369 . S
C980 H983 0.928 . S
C981 N977 1.345 . S
C981 C982 1.371 . S
C981 H984 0.931 . S
C982 C978 1.391 . S
C982 C981 1.371 . S
C982 H989 0.930 . S
H983 C980 0.928 . S
H984 C981 0.931 . S
H985 C961 0.930 . S
H986 C958 0.930 . S
H987 C967 0.930 . S
H988 C979 0.929 . S
H989 C982 0.930 . S
C990 C991 1.351 1_545 S
C990 N993 1.368 . S
C990 H995 0.931 . S
C991 C990 1.351 1_565 S
C991 N992 1.373 . S
C991 H1019 0.930 . S
N992 C991 1.373 . S
N992 C994 1.340 1_565 S
N993 C990 1.368 . S
N993 C994 1.321 . S
N993 Co996 2.135 . S
C994 N992 1.340 1_545 S
C994 N993 1.321 . S
C994 H1018 0.930 . S
H995 C990 0.931 . S
Co996 N993 2.135 . S
Co996 N999 2.121 . S
Co996 O1004 2.055 . S
Co996 O1007 2.039 . S
Co996 N1010 2.140 . S
C997 O998 1.227 . S
C997 O1007 1.265 . S
O998 C997 1.227 . S
N999 Co996 2.121 . S
N999 C1001 1.375 . S
N999 C1002 1.313 . S
C1000 C1001 1.338 . S
C1000 N1003 1.377 . S
C1000 H1020 0.930 . S
C1001 N999 1.375 . S
C1001 C1000 1.338 . S
C1001 H1005 0.931 . S
C1002 N999 1.313 . S
C1002 N1003 1.344 . S
C1002 H1006 0.930 . S
N1003 C1000 1.377 . S
N1003 C1002 1.344 . S
O1004 Co996 2.055 . S
O1004 C1008 1.253 . S
H1005 C1001 0.931 . S
H1006 C1002 0.930 . S
O1007 Co996 2.039 . S
O1007 C997 1.265 . S
C1008 O1004 1.253 . S
C1008 O1009 1.227 . S
O1009 C1008 1.227 . S
N1010 Co996 2.140 . S
N1010 C1013 1.346 . S
N1010 C1014 1.345 . S
C1011 C1012 1.387 . S
C1011 C1015 1.391 . S
C1012 C1011 1.387 . S
C1012 C1013 1.369 . S
C1012 H1021 0.929 . S
C1013 N1010 1.346 . S
C1013 C1012 1.369 . S
C1013 H1016 0.928 . S
C1014 N1010 1.345 . S
C1014 C1015 1.371 . S
C1014 H1017 0.931 . S
C1015 C1011 1.391 . S
C1015 C1014 1.371 . S
C1015 H1022 0.930 . S
H1016 C1013 0.928 . S
H1017 C1014 0.931 . S
H1018 C994 0.930 . S
H1019 C991 0.930 . S
H1020 C1000 0.930 . S
H1021 C1012 0.929 . S
H1022 C1015 0.930 . S
C1023 C1024 1.351 . S
C1023 N1026 1.368 . S
C1023 H1028 0.931 . S
C1024 C1023 1.351 . S
C1024 N1025 1.373 . S
C1024 H1052 0.930 . S
N1025 C1024 1.373 . S
N1025 C1027 1.340 . S
N1026 C1023 1.368 . S
N1026 C1027 1.321 . S
N1026 Co1029 2.135 . S
C1027 N1025 1.340 . S
C1027 N1026 1.321 . S
C1027 H1051 0.930 . S
H1028 C1023 0.931 . S
Co1029 N1026 2.135 . S
Co1029 N1032 2.121 . S
Co1029 O1037 2.055 . S
Co1029 O1040 2.039 . S
Co1029 N1043 2.140 . S
C1030 O1031 1.227 . S
C1030 O1040 1.265 . S
O1031 C1030 1.227 . S
N1032 Co1029 2.121 . S
N1032 C1034 1.375 . S
N1032 C1035 1.313 . S
C1033 C1034 1.338 . S
C1033 N1036 1.377 . S
C1033 H1053 0.930 . S
C1034 N1032 1.375 . S
C1034 C1033 1.338 . S
C1034 H1038 0.931 . S
C1035 N1032 1.313 . S
C1035 N1036 1.344 . S
C1035 H1039 0.930 . S
N1036 C1033 1.377 . S
N1036 C1035 1.344 . S
O1037 Co1029 2.055 . S
O1037 C1041 1.253 . S
H1038 C1034 0.931 . S
H1039 C1035 0.930 . S
O1040 Co1029 2.039 . S
O1040 C1030 1.265 . S
C1041 O1037 1.253 . S
C1041 O1042 1.227 . S
O1042 C1041 1.227 . S
N1043 Co1029 2.140 . S
N1043 C1046 1.346 . S
N1043 C1047 1.345 . S
C1044 C1045 1.387 . S
C1044 C1048 1.391 . S
C1045 C1044 1.387 . S
C1045 C1046 1.369 . S
C1045 H1054 0.929 . S
C1046 N1043 1.346 . S
C1046 C1045 1.369 . S
C1046 H1049 0.928 . S
C1047 N1043 1.345 . S
C1047 C1048 1.371 . S
C1047 H1050 0.931 . S
C1048 C1044 1.391 . S
C1048 C1047 1.371 . S
C1048 H1055 0.930 . S
H1049 C1046 0.928 . S
H1050 C1047 0.931 . S
H1051 C1027 0.930 . S
H1052 C1024 0.930 . S
H1053 C1033 0.930 . S
H1054 C1045 0.929 . S
H1055 C1048 0.930 . S
C1056 C1057 1.351 1_565 S
C1056 N1059 1.368 . S
C1056 H1061 0.931 . S
C1057 C1056 1.351 1_545 S
C1057 N1058 1.373 . S
C1057 H1085 0.930 . S
N1058 C1057 1.373 . S
N1058 C1060 1.340 1_545 S
N1059 C1056 1.368 . S
N1059 C1060 1.321 . S
N1059 Co1062 2.135 . S
C1060 N1058 1.340 1_565 S
C1060 N1059 1.321 . S
C1060 H1084 0.930 . S
H1061 C1056 0.931 . S
Co1062 N1059 2.135 . S
Co1062 N1065 2.121 . S
Co1062 O1070 2.055 . S
Co1062 O1073 2.039 . S
Co1062 N1076 2.140 . S
C1063 O1064 1.227 . S
C1063 O1073 1.265 . S
O1064 C1063 1.227 . S
N1065 Co1062 2.121 . S
N1065 C1067 1.375 . S
N1065 C1068 1.313 . S
C1066 C1067 1.338 . S
C1066 N1069 1.377 . S
C1066 H1086 0.930 . S
C1067 N1065 1.375 . S
C1067 C1066 1.338 . S
C1067 H1071 0.931 . S
C1068 N1065 1.313 . S
C1068 N1069 1.344 . S
C1068 H1072 0.930 . S
N1069 C1066 1.377 . S
N1069 C1068 1.344 . S
O1070 Co1062 2.055 . S
O1070 C1074 1.253 . S
H1071 C1067 0.931 . S
H1072 C1068 0.930 . S
O1073 Co1062 2.039 . S
O1073 C1063 1.265 . S
C1074 O1070 1.253 . S
C1074 O1075 1.227 . S
O1075 C1074 1.227 . S
N1076 Co1062 2.140 . S
N1076 C1079 1.346 . S
N1076 C1080 1.345 . S
C1077 C1078 1.387 . S
C1077 C1081 1.391 . S
C1078 C1077 1.387 . S
C1078 C1079 1.369 . S
C1078 H1087 0.929 . S
C1079 N1076 1.346 . S
C1079 C1078 1.369 . S
C1079 H1082 0.928 . S
C1080 N1076 1.345 . S
C1080 C1081 1.371 . S
C1080 H1083 0.931 . S
C1081 C1077 1.391 . S
C1081 C1080 1.371 . S
C1081 H1088 0.930 . S
H1082 C1079 0.928 . S
H1083 C1080 0.931 . S
H1084 C1060 0.930 . S
H1085 C1057 0.930 . S
H1086 C1066 0.930 . S
H1087 C1078 0.929 . S
H1088 C1081 0.930 . S
C1089 C1090 1.351 . S
C1089 N1092 1.368 . S
C1089 H1094 0.931 . S
C1090 C1089 1.351 . S
C1090 N1091 1.373 . S
C1090 H1118 0.930 . S
N1091 C1090 1.373 . S
N1091 C1093 1.340 . S
N1092 C1089 1.368 . S
N1092 C1093 1.321 . S
N1092 Co1095 2.135 . S
C1093 N1091 1.340 . S
C1093 N1092 1.321 . S
C1093 H1117 0.930 . S
H1094 C1089 0.931 . S
Co1095 N1092 2.135 . S
Co1095 N1098 2.121 . S
Co1095 O1103 2.055 . S
Co1095 O1106 2.039 . S
Co1095 N1109 2.140 . S
C1096 O1097 1.227 . S
C1096 O1106 1.265 . S
O1097 C1096 1.227 . S
N1098 Co1095 2.121 . S
N1098 C1100 1.375 . S
N1098 C1101 1.313 . S
C1099 C1100 1.338 1_455 S
C1099 N1102 1.377 . S
C1099 H1119 0.930 . S
C1100 N1098 1.375 . S
C1100 C1099 1.338 1_655 S
C1100 H1104 0.931 . S
C1101 N1098 1.313 . S
C1101 N1102 1.344 1_655 S
C1101 H1105 0.930 . S
N1102 C1099 1.377 . S
N1102 C1101 1.344 1_455 S
O1103 Co1095 2.055 . S
O1103 C1107 1.253 . S
H1104 C1100 0.931 . S
H1105 C1101 0.930 . S
O1106 Co1095 2.039 . S
O1106 C1096 1.265 . S
C1107 O1103 1.253 . S
C1107 O1108 1.227 . S
O1108 C1107 1.227 . S
N1109 Co1095 2.140 . S
N1109 C1112 1.346 . S
N1109 C1113 1.345 . S
C1110 C1111 1.387 . S
C1110 C1114 1.391 . S
C1111 C1110 1.387 . S
C1111 C1112 1.369 . S
C1111 H1120 0.929 . S
C1112 N1109 1.346 . S
C1112 C1111 1.369 . S
C1112 H1115 0.928 . S
C1113 N1109 1.345 . S
C1113 C1114 1.371 . S
C1113 H1116 0.931 . S
C1114 C1110 1.391 . S
C1114 C1113 1.371 . S
C1114 H1121 0.930 . S
H1115 C1112 0.928 . S
H1116 C1113 0.931 . S
H1117 C1093 0.930 . S
H1118 C1090 0.930 . S
H1119 C1099 0.930 . S
H1120 C1111 0.929 . S
H1121 C1114 0.930 . S
C1122 C1123 1.351 . S
C1122 N1125 1.368 . S
C1122 H1127 0.931 . S
C1123 C1122 1.351 . S
C1123 N1124 1.373 . S
C1123 H1151 0.930 . S
N1124 C1123 1.373 . S
N1124 C1126 1.340 . S
N1125 C1122 1.368 . S
N1125 C1126 1.321 . S
N1125 Co1128 2.135 . S
C1126 N1124 1.340 . S
C1126 N1125 1.321 . S
C1126 H1150 0.930 . S
H1127 C1122 0.931 . S
Co1128 N1125 2.135 . S
Co1128 N1131 2.121 . S
Co1128 O1136 2.055 . S
Co1128 O1139 2.039 . S
Co1128 N1142 2.140 . S
C1129 O1130 1.227 . S
C1129 O1139 1.265 . S
O1130 C1129 1.227 . S
N1131 Co1128 2.121 . S
N1131 C1133 1.375 . S
N1131 C1134 1.313 . S
C1132 C1133 1.338 1_565 S
C1132 N1135 1.377 . S
C1132 H1152 0.930 . S
C1133 N1131 1.375 . S
C1133 C1132 1.338 1_545 S
C1133 H1137 0.931 . S
C1134 N1131 1.313 . S
C1134 N1135 1.344 1_545 S
C1134 H1138 0.930 . S
N1135 C1132 1.377 . S
N1135 C1134 1.344 1_565 S
O1136 Co1128 2.055 . S
O1136 C1140 1.253 . S
H1137 C1133 0.931 . S
H1138 C1134 0.930 . S
O1139 Co1128 2.039 . S
O1139 C1129 1.265 . S
C1140 O1136 1.253 . S
C1140 O1141 1.227 . S
O1141 C1140 1.227 . S
N1142 Co1128 2.140 . S
N1142 C1145 1.346 . S
N1142 C1146 1.345 . S
C1143 C1144 1.387 . S
C1143 C1147 1.391 . S
C1144 C1143 1.387 . S
C1144 C1145 1.369 . S
C1144 H1153 0.929 . S
C1145 N1142 1.346 . S
C1145 C1144 1.369 . S
C1145 H1148 0.928 . S
C1146 N1142 1.345 . S
C1146 C1147 1.371 . S
C1146 H1149 0.931 . S
C1147 C1143 1.391 . S
C1147 C1146 1.371 . S
C1147 H1154 0.930 . S
H1148 C1145 0.928 . S
H1149 C1146 0.931 . S
H1150 C1126 0.930 . S
H1151 C1123 0.930 . S
H1152 C1132 0.930 . S
H1153 C1144 0.929 . S
H1154 C1147 0.930 . S
C1155 C1156 1.351 . S
C1155 N1158 1.368 . S
C1155 H1160 0.931 . S
C1156 C1155 1.351 . S
C1156 N1157 1.373 . S
C1156 H1184 0.930 . S
N1157 C1156 1.373 . S
N1157 C1159 1.340 . S
N1158 C1155 1.368 . S
N1158 C1159 1.321 . S
N1158 Co1161 2.135 . S
C1159 N1157 1.340 . S
C1159 N1158 1.321 . S
C1159 H1183 0.930 . S
H1160 C1155 0.931 . S
Co1161 N1158 2.135 . S
Co1161 N1164 2.121 . S
Co1161 O1169 2.055 . S
Co1161 O1172 2.039 . S
Co1161 N1175 2.140 . S
C1162 O1163 1.227 . S
C1162 O1172 1.265 . S
O1163 C1162 1.227 . S
N1164 Co1161 2.121 . S
N1164 C1166 1.375 . S
N1164 C1167 1.313 . S
C1165 C1166 1.338 . S
C1165 N1168 1.377 . S
C1165 H1185 0.930 . S
C1166 N1164 1.375 . S
C1166 C1165 1.338 . S
C1166 H1170 0.931 . S
C1167 N1164 1.313 . S
C1167 N1168 1.344 . S
C1167 H1171 0.930 . S
N1168 C1165 1.377 . S
N1168 C1167 1.344 . S
O1169 Co1161 2.055 . S
O1169 C1173 1.253 . S
H1170 C1166 0.931 . S
H1171 C1167 0.930 . S
O1172 Co1161 2.039 . S
O1172 C1162 1.265 . S
C1173 O1169 1.253 . S
C1173 O1174 1.227 . S
O1174 C1173 1.227 . S
N1175 Co1161 2.140 . S
N1175 C1178 1.346 . S
N1175 C1179 1.345 . S
C1176 C1177 1.387 . S
C1176 C1180 1.391 . S
C1177 C1176 1.387 . S
C1177 C1178 1.369 . S
C1177 H1186 0.929 . S
C1178 N1175 1.346 . S
C1178 C1177 1.369 . S
C1178 H1181 0.928 . S
C1179 N1175 1.345 . S
C1179 C1180 1.371 . S
C1179 H1182 0.931 . S
C1180 C1176 1.391 . S
C1180 C1179 1.371 . S
C1180 H1187 0.930 . S
H1181 C1178 0.928 . S
H1182 C1179 0.931 . S
H1183 C1159 0.930 . S
H1184 C1156 0.930 . S
H1185 C1165 0.930 . S
H1186 C1177 0.929 . S
H1187 C1180 0.930 . S
C1188 C1189 1.351 . S
C1188 N1191 1.368 . S
C1188 H1193 0.931 . S
C1189 C1188 1.351 . S
C1189 N1190 1.373 . S
C1189 H1217 0.930 . S
N1190 C1189 1.373 . S
N1190 C1192 1.340 . S
N1191 C1188 1.368 . S
N1191 C1192 1.321 . S
N1191 Co1194 2.135 . S
C1192 N1190 1.340 . S
C1192 N1191 1.321 . S
C1192 H1216 0.930 . S
H1193 C1188 0.931 . S
Co1194 N1191 2.135 . S
Co1194 N1197 2.121 . S
Co1194 O1202 2.055 . S
Co1194 O1205 2.039 . S
Co1194 N1208 2.140 . S
C1195 O1196 1.227 . S
C1195 O1205 1.265 . S
O1196 C1195 1.227 . S
N1197 Co1194 2.121 . S
N1197 C1199 1.375 . S
N1197 C1200 1.313 . S
C1198 C1199 1.338 . S
C1198 N1201 1.377 1_565 S
C1198 H1218 0.930 1_565 S
C1199 N1197 1.375 . S
C1199 C1198 1.338 . S
C1199 H1203 0.931 . S
C1200 N1197 1.313 . S
C1200 N1201 1.344 1_565 S
C1200 H1204 0.930 . S
N1201 C1198 1.377 1_545 S
N1201 C1200 1.344 1_545 S
O1202 Co1194 2.055 . S
O1202 C1206 1.253 . S
H1203 C1199 0.931 . S
H1204 C1200 0.930 . S
O1205 Co1194 2.039 . S
O1205 C1195 1.265 . S
C1206 O1202 1.253 . S
C1206 O1207 1.227 . S
O1207 C1206 1.227 . S
N1208 Co1194 2.140 . S
N1208 C1211 1.346 . S
N1208 C1212 1.345 . S
C1209 C1210 1.387 . S
C1209 C1213 1.391 . S
C1210 C1209 1.387 . S
C1210 C1211 1.369 . S
C1210 H1219 0.929 . S
C1211 N1208 1.346 . S
C1211 C1210 1.369 . S
C1211 H1214 0.928 . S
C1212 N1208 1.345 . S
C1212 C1213 1.371 . S
C1212 H1215 0.931 . S
C1213 C1209 1.391 . S
C1213 C1212 1.371 . S
C1213 H1220 0.930 . S
H1214 C1211 0.928 . S
H1215 C1212 0.931 . S
H1216 C1192 0.930 . S
H1217 C1189 0.930 . S
H1218 C1198 0.930 1_545 S
H1219 C1210 0.929 . S
H1220 C1213 0.930 . S
C1221 C1222 1.351 . S
C1221 N1224 1.368 . S
C1221 H1226 0.931 . S
C1222 C1221 1.351 . S
C1222 N1223 1.373 . S
C1222 H1250 0.930 . S
N1223 C1222 1.373 . S
N1223 C1225 1.340 . S
N1224 C1221 1.368 . S
N1224 C1225 1.321 . S
N1224 Co1227 2.135 . S
C1225 N1223 1.340 . S
C1225 N1224 1.321 . S
C1225 H1249 0.930 . S
H1226 C1221 0.931 . S
Co1227 N1224 2.135 . S
Co1227 N1230 2.121 . S
Co1227 O1235 2.055 . S
Co1227 O1238 2.039 . S
Co1227 N1241 2.140 . S
C1228 O1229 1.227 . S
C1228 O1238 1.265 . S
O1229 C1228 1.227 . S
N1230 Co1227 2.121 . S
N1230 C1232 1.375 . S
N1230 C1233 1.313 . S
C1231 C1232 1.338 . S
C1231 N1234 1.377 . S
C1231 H1251 0.930 . S
C1232 N1230 1.375 . S
C1232 C1231 1.338 . S
C1232 H1236 0.931 . S
C1233 N1230 1.313 . S
C1233 N1234 1.344 . S
C1233 H1237 0.930 . S
N1234 C1231 1.377 . S
N1234 C1233 1.344 . S
O1235 Co1227 2.055 . S
O1235 C1239 1.253 . S
H1236 C1232 0.931 . S
H1237 C1233 0.930 . S
O1238 Co1227 2.039 . S
O1238 C1228 1.265 . S
C1239 O1235 1.253 . S
C1239 O1240 1.227 . S
O1240 C1239 1.227 . S
N1241 Co1227 2.140 . S
N1241 C1244 1.346 . S
N1241 C1245 1.345 . S
C1242 C1243 1.387 1_655 S
C1242 C1246 1.391 1_655 S
C1243 C1242 1.387 1_455 S
C1243 C1244 1.369 . S
C1243 H1252 0.929 1_455 S
C1244 N1241 1.346 . S
C1244 C1243 1.369 . S
C1244 H1247 0.928 . S
C1245 N1241 1.345 . S
C1245 C1246 1.371 . S
C1245 H1248 0.931 . S
C1246 C1242 1.391 1_455 S
C1246 C1245 1.371 . S
C1246 H1253 0.930 . S
H1247 C1244 0.928 . S
H1248 C1245 0.931 . S
H1249 C1225 0.930 . S
H1250 C1222 0.930 . S
H1251 C1231 0.930 . S
H1252 C1243 0.929 1_655 S
H1253 C1246 0.930 . S
C1254 C1255 1.351 . S
C1254 N1257 1.368 . S
C1254 H1259 0.931 . S
C1255 C1254 1.351 . S
C1255 N1256 1.373 . S
C1255 H1283 0.930 . S
N1256 C1255 1.373 . S
N1256 C1258 1.340 . S
N1257 C1254 1.368 . S
N1257 C1258 1.321 . S
N1257 Co1260 2.135 . S
C1258 N1256 1.340 . S
C1258 N1257 1.321 . S
C1258 H1282 0.930 . S
H1259 C1254 0.931 . S
Co1260 N1257 2.135 . S
Co1260 N1263 2.121 . S
Co1260 O1268 2.055 . S
Co1260 O1271 2.039 . S
Co1260 N1274 2.140 . S
C1261 O1262 1.227 . S
C1261 O1271 1.265 . S
O1262 C1261 1.227 . S
N1263 Co1260 2.121 . S
N1263 C1265 1.375 . S
N1263 C1266 1.313 . S
C1264 C1265 1.338 . S
C1264 N1267 1.377 . S
C1264 H1284 0.930 . S
C1265 N1263 1.375 . S
C1265 C1264 1.338 . S
C1265 H1269 0.931 . S
C1266 N1263 1.313 . S
C1266 N1267 1.344 . S
C1266 H1270 0.930 . S
N1267 C1264 1.377 . S
N1267 C1266 1.344 . S
O1268 Co1260 2.055 . S
O1268 C1272 1.253 . S
H1269 C1265 0.931 . S
H1270 C1266 0.930 . S
O1271 Co1260 2.039 . S
O1271 C1261 1.265 . S
C1272 O1268 1.253 . S
C1272 O1273 1.227 . S
O1273 C1272 1.227 . S
N1274 Co1260 2.140 . S
N1274 C1277 1.346 . S
N1274 C1278 1.345 . S
C1275 C1276 1.387 . S
C1275 C1279 1.391 . S
C1276 C1275 1.387 . S
C1276 C1277 1.369 . S
C1276 H1285 0.929 . S
C1277 N1274 1.346 . S
C1277 C1276 1.369 . S
C1277 H1280 0.928 . S
C1278 N1274 1.345 . S
C1278 C1279 1.371 . S
C1278 H1281 0.931 . S
C1279 C1275 1.391 . S
C1279 C1278 1.371 . S
C1279 H1286 0.930 . S
H1280 C1277 0.928 . S
H1281 C1278 0.931 . S
H1282 C1258 0.930 . S
H1283 C1255 0.930 . S
H1284 C1264 0.930 . S
H1285 C1276 0.929 . S
H1286 C1279 0.930 . S
C1287 C1288 1.351 . S
C1287 N1290 1.368 . S
C1287 H1292 0.931 . S
C1288 C1287 1.351 . S
C1288 N1289 1.373 . S
C1288 H1316 0.930 . S
N1289 C1288 1.373 . S
N1289 C1291 1.340 . S
N1290 C1287 1.368 . S
N1290 C1291 1.321 . S
N1290 Co1293 2.135 . S
C1291 N1289 1.340 . S
C1291 N1290 1.321 . S
C1291 H1315 0.930 . S
H1292 C1287 0.931 . S
Co1293 N1290 2.135 . S
Co1293 N1296 2.121 . S
Co1293 O1301 2.055 . S
Co1293 O1304 2.039 . S
Co1293 N1307 2.140 . S
C1294 O1295 1.227 . S
C1294 O1304 1.265 . S
O1295 C1294 1.227 . S
N1296 Co1293 2.121 . S
N1296 C1298 1.375 . S
N1296 C1299 1.313 . S
C1297 C1298 1.338 . S
C1297 N1300 1.377 . S
C1297 H1317 0.930 . S
C1298 N1296 1.375 . S
C1298 C1297 1.338 . S
C1298 H1302 0.931 . S
C1299 N1296 1.313 . S
C1299 N1300 1.344 . S
C1299 H1303 0.930 . S
N1300 C1297 1.377 . S
N1300 C1299 1.344 . S
O1301 Co1293 2.055 . S
O1301 C1305 1.253 . S
H1302 C1298 0.931 . S
H1303 C1299 0.930 . S
O1304 Co1293 2.039 . S
O1304 C1294 1.265 . S
C1305 O1301 1.253 . S
C1305 O1306 1.227 . S
O1306 C1305 1.227 . S
N1307 Co1293 2.140 . S
N1307 C1310 1.346 . S
N1307 C1311 1.345 . S
C1308 C1309 1.387 . S
C1308 C1312 1.391 . S
C1309 C1308 1.387 . S
C1309 C1310 1.369 . S
C1309 H1318 0.929 . S
C1310 N1307 1.346 . S
C1310 C1309 1.369 . S
C1310 H1313 0.928 . S
C1311 N1307 1.345 . S
C1311 C1312 1.371 . S
C1311 H1314 0.931 . S
C1312 C1308 1.391 . S
C1312 C1311 1.371 . S
C1312 H1319 0.930 . S
H1313 C1310 0.928 . S
H1314 C1311 0.931 . S
H1315 C1291 0.930 . S
H1316 C1288 0.930 . S
H1317 C1297 0.930 . S
H1318 C1309 0.929 . S
H1319 C1312 0.930 . S
C1320 C1321 1.351 . S
C1320 N1323 1.368 . S
C1320 H1325 0.931 . S
C1321 C1320 1.351 . S
C1321 N1322 1.373 . S
C1321 H1349 0.930 1_455 S
N1322 C1321 1.373 . S
N1322 C1324 1.340 . S
N1323 C1320 1.368 . S
N1323 C1324 1.321 . S
N1323 Co1326 2.135 . S
C1324 N1322 1.340 . S
C1324 N1323 1.321 . S
C1324 H1348 0.930 . S
H1325 C1320 0.931 . S
Co1326 N1323 2.135 . S
Co1326 N1329 2.121 . S
Co1326 O1334 2.055 . S
Co1326 O1337 2.039 . S
Co1326 N1340 2.140 . S
C1327 O1328 1.227 . S
C1327 O1337 1.265 . S
O1328 C1327 1.227 . S
N1329 Co1326 2.121 . S
N1329 C1331 1.375 . S
N1329 C1332 1.313 . S
C1330 C1331 1.338 . S
C1330 N1333 1.377 . S
C1330 H1350 0.930 . S
C1331 N1329 1.375 . S
C1331 C1330 1.338 . S
C1331 H1335 0.931 . S
C1332 N1329 1.313 . S
C1332 N1333 1.344 . S
C1332 H1336 0.930 . S
N1333 C1330 1.377 . S
N1333 C1332 1.344 . S
O1334 Co1326 2.055 . S
O1334 C1338 1.253 . S
H1335 C1331 0.931 . S
H1336 C1332 0.930 . S
O1337 Co1326 2.039 . S
O1337 C1327 1.265 . S
C1338 O1334 1.253 . S
C1338 O1339 1.227 . S
O1339 C1338 1.227 . S
N1340 Co1326 2.140 . S
N1340 C1343 1.346 . S
N1340 C1344 1.345 . S
C1341 C1342 1.387 . S
C1341 C1345 1.391 . S
C1342 C1341 1.387 . S
C1342 C1343 1.369 . S
C1342 H1351 0.929 . S
C1343 N1340 1.346 . S
C1343 C1342 1.369 . S
C1343 H1346 0.928 . S
C1344 N1340 1.345 . S
C1344 C1345 1.371 . S
C1344 H1347 0.931 . S
C1345 C1341 1.391 . S
C1345 C1344 1.371 . S
C1345 H1352 0.930 . S
H1346 C1343 0.928 . S
H1347 C1344 0.931 . S
H1348 C1324 0.930 . S
H1349 C1321 0.930 1_655 S
H1350 C1330 0.930 . S
H1351 C1342 0.929 . S
H1352 C1345 0.930 . S
C1353 C1354 1.351 . S
C1353 N1356 1.368 . S
C1353 H1358 0.931 . S
C1354 C1353 1.351 . S
C1354 N1355 1.373 . S
C1354 H1382 0.930 . S
N1355 C1354 1.373 . S
N1355 C1357 1.340 . S
N1356 C1353 1.368 . S
N1356 C1357 1.321 . S
N1356 Co1359 2.135 . S
C1357 N1355 1.340 . S
C1357 N1356 1.321 . S
C1357 H1381 0.930 . S
H1358 C1353 0.931 . S
Co1359 N1356 2.135 . S
Co1359 N1362 2.121 . S
Co1359 O1367 2.055 . S
Co1359 O1370 2.039 . S
Co1359 N1373 2.140 . S
C1360 O1361 1.227 . S
C1360 O1370 1.265 . S
O1361 C1360 1.227 . S
N1362 Co1359 2.121 . S
N1362 C1364 1.375 . S
N1362 C1365 1.313 . S
C1363 C1364 1.338 . S
C1363 N1366 1.377 . S
C1363 H1383 0.930 . S
C1364 N1362 1.375 . S
C1364 C1363 1.338 . S
C1364 H1368 0.931 . S
C1365 N1362 1.313 . S
C1365 N1366 1.344 . S
C1365 H1369 0.930 . S
N1366 C1363 1.377 . S
N1366 C1365 1.344 . S
O1367 Co1359 2.055 . S
O1367 C1371 1.253 . S
H1368 C1364 0.931 . S
H1369 C1365 0.930 . S
O1370 Co1359 2.039 . S
O1370 C1360 1.265 . S
C1371 O1367 1.253 . S
C1371 O1372 1.227 . S
O1372 C1371 1.227 . S
N1373 Co1359 2.140 . S
N1373 C1376 1.346 . S
N1373 C1377 1.345 . S
C1374 C1375 1.387 . S
C1374 C1378 1.391 . S
C1375 C1374 1.387 . S
C1375 C1376 1.369 . S
C1375 H1384 0.929 . S
C1376 N1373 1.346 . S
C1376 C1375 1.369 . S
C1376 H1379 0.928 . S
C1377 N1373 1.345 . S
C1377 C1378 1.371 . S
C1377 H1380 0.931 . S
C1378 C1374 1.391 . S
C1378 C1377 1.371 . S
C1378 H1385 0.930 . S
H1379 C1376 0.928 . S
H1380 C1377 0.931 . S
H1381 C1357 0.930 . S
H1382 C1354 0.930 . S
H1383 C1363 0.930 . S
H1384 C1375 0.929 . S
H1385 C1378 0.930 . S
C1386 C1387 1.351 . S
C1386 N1389 1.368 . S
C1386 H1391 0.931 . S
C1387 C1386 1.351 . S
C1387 N1388 1.373 . S
C1387 H1415 0.930 . S
N1388 C1387 1.373 . S
N1388 C1390 1.340 . S
N1389 C1386 1.368 . S
N1389 C1390 1.321 . S
N1389 Co1392 2.135 . S
C1390 N1388 1.340 . S
C1390 N1389 1.321 . S
C1390 H1414 0.930 . S
H1391 C1386 0.931 . S
Co1392 N1389 2.135 . S
Co1392 N1395 2.121 . S
Co1392 O1400 2.055 . S
Co1392 O1403 2.039 . S
Co1392 N1406 2.140 . S
C1393 O1394 1.227 . S
C1393 O1403 1.265 . S
O1394 C1393 1.227 . S
N1395 Co1392 2.121 . S
N1395 C1397 1.375 . S
N1395 C1398 1.313 . S
C1396 C1397 1.338 . S
C1396 N1399 1.377 . S
C1396 H1416 0.930 . S
C1397 N1395 1.375 . S
C1397 C1396 1.338 . S
C1397 H1401 0.931 . S
C1398 N1395 1.313 . S
C1398 N1399 1.344 . S
C1398 H1402 0.930 . S
N1399 C1396 1.377 . S
N1399 C1398 1.344 . S
O1400 Co1392 2.055 . S
O1400 C1404 1.253 . S
H1401 C1397 0.931 . S
H1402 C1398 0.930 . S
O1403 Co1392 2.039 . S
O1403 C1393 1.265 . S
C1404 O1400 1.253 . S
C1404 O1405 1.227 . S
O1405 C1404 1.227 . S
N1406 Co1392 2.140 . S
N1406 C1409 1.346 . S
N1406 C1410 1.345 . S
C1407 C1408 1.387 . S
C1407 C1411 1.391 . S
C1408 C1407 1.387 . S
C1408 C1409 1.369 . S
C1408 H1417 0.929 . S
C1409 N1406 1.346 . S
C1409 C1408 1.369 . S
C1409 H1412 0.928 . S
C1410 N1406 1.345 . S
C1410 C1411 1.371 . S
C1410 H1413 0.931 . S
C1411 C1407 1.391 . S
C1411 C1410 1.371 . S
C1411 H1418 0.930 . S
H1412 C1409 0.928 . S
H1413 C1410 0.931 . S
H1414 C1390 0.930 . S
H1415 C1387 0.930 . S
H1416 C1396 0.930 . S
H1417 C1408 0.929 . S
H1418 C1411 0.930 . S
C1419 C1420 1.351 . S
C1419 N1422 1.368 . S
C1419 H1424 0.931 . S
C1420 C1419 1.351 . S
C1420 N1421 1.373 . S
C1420 H1448 0.930 . S
N1421 C1420 1.373 . S
N1421 C1423 1.340 . S
N1422 C1419 1.368 . S
N1422 C1423 1.321 . S
N1422 Co1425 2.135 . S
C1423 N1421 1.340 . S
C1423 N1422 1.321 . S
C1423 H1447 0.930 . S
H1424 C1419 0.931 . S
Co1425 N1422 2.135 . S
Co1425 N1428 2.121 . S
Co1425 O1433 2.055 . S
Co1425 O1436 2.039 . S
Co1425 N1439 2.140 . S
C1426 O1427 1.227 . S
C1426 O1436 1.265 . S
O1427 C1426 1.227 . S
N1428 Co1425 2.121 . S
N1428 C1430 1.375 . S
N1428 C1431 1.313 . S
C1429 C1430 1.338 . S
C1429 N1432 1.377 . S
C1429 H1449 0.930 . S
C1430 N1428 1.375 . S
C1430 C1429 1.338 . S
C1430 H1434 0.931 . S
C1431 N1428 1.313 . S
C1431 N1432 1.344 . S
C1431 H1435 0.930 . S
N1432 C1429 1.377 . S
N1432 C1431 1.344 . S
O1433 Co1425 2.055 . S
O1433 C1437 1.253 . S
H1434 C1430 0.931 . S
H1435 C1431 0.930 . S
O1436 Co1425 2.039 . S
O1436 C1426 1.265 . S
C1437 O1433 1.253 . S
C1437 O1438 1.227 . S
O1438 C1437 1.227 . S
N1439 Co1425 2.140 . S
N1439 C1442 1.346 . S
N1439 C1443 1.345 . S
C1440 C1441 1.387 . S
C1440 C1444 1.391 . S
C1441 C1440 1.387 . S
C1441 C1442 1.369 . S
C1441 H1450 0.929 . S
C1442 N1439 1.346 . S
C1442 C1441 1.369 . S
C1442 H1445 0.928 . S
C1443 N1439 1.345 . S
C1443 C1444 1.371 . S
C1443 H1446 0.931 . S
C1444 C1440 1.391 . S
C1444 C1443 1.371 . S
C1444 H1451 0.930 . S
H1445 C1442 0.928 . S
H1446 C1443 0.931 . S
H1447 C1423 0.930 . S
H1448 C1420 0.930 . S
H1449 C1429 0.930 . S
H1450 C1441 0.929 . S
H1451 C1444 0.930 . S
C1452 C1453 1.351 . S
C1452 N1455 1.368 . S
C1452 H1457 0.931 . S
C1453 C1452 1.351 . S
C1453 N1454 1.373 . S
C1453 H1481 0.930 . S
N1454 C1453 1.373 . S
N1454 C1456 1.340 . S
N1455 C1452 1.368 . S
N1455 C1456 1.321 . S
N1455 Co1458 2.135 . S
C1456 N1454 1.340 . S
C1456 N1455 1.321 . S
C1456 H1480 0.930 . S
H1457 C1452 0.931 . S
Co1458 N1455 2.135 . S
Co1458 N1461 2.121 . S
Co1458 O1466 2.055 . S
Co1458 O1469 2.039 . S
Co1458 N1472 2.140 . S
C1459 O1460 1.227 . S
C1459 O1469 1.265 . S
O1460 C1459 1.227 . S
N1461 Co1458 2.121 . S
N1461 C1463 1.375 . S
N1461 C1464 1.313 . S
C1462 C1463 1.338 . S
C1462 N1465 1.377 . S
C1462 H1482 0.930 . S
C1463 N1461 1.375 . S
C1463 C1462 1.338 . S
C1463 H1467 0.931 . S
C1464 N1461 1.313 . S
C1464 N1465 1.344 . S
C1464 H1468 0.930 . S
N1465 C1462 1.377 . S
N1465 C1464 1.344 . S
O1466 Co1458 2.055 . S
O1466 C1470 1.253 . S
H1467 C1463 0.931 . S
H1468 C1464 0.930 . S
O1469 Co1458 2.039 . S
O1469 C1459 1.265 . S
C1470 O1466 1.253 . S
C1470 O1471 1.227 . S
O1471 C1470 1.227 . S
N1472 Co1458 2.140 . S
N1472 C1475 1.346 . S
N1472 C1476 1.345 . S
C1473 C1474 1.387 . S
C1473 C1477 1.391 . S
C1474 C1473 1.387 . S
C1474 C1475 1.369 . S
C1474 H1483 0.929 . S
C1475 N1472 1.346 . S
C1475 C1474 1.369 . S
C1475 H1478 0.928 . S
C1476 N1472 1.345 . S
C1476 C1477 1.371 . S
C1476 H1479 0.931 . S
C1477 C1473 1.391 . S
C1477 C1476 1.371 . S
C1477 H1484 0.930 . S
H1478 C1475 0.928 . S
H1479 C1476 0.931 . S
H1480 C1456 0.930 . S
H1481 C1453 0.930 . S
H1482 C1462 0.930 . S
H1483 C1474 0.929 . S
H1484 C1477 0.930 . S
C1485 C1486 1.351 . S
C1485 N1488 1.368 . S
C1485 H1490 0.931 . S
C1486 C1485 1.351 . S
C1486 N1487 1.373 . S
C1486 H1514 0.930 . S
N1487 C1486 1.373 . S
N1487 C1489 1.340 . S
N1488 C1485 1.368 . S
N1488 C1489 1.321 . S
N1488 Co1491 2.135 . S
C1489 N1487 1.340 . S
C1489 N1488 1.321 . S
C1489 H1513 0.930 . S
H1490 C1485 0.931 . S
Co1491 N1488 2.135 . S
Co1491 N1494 2.121 . S
Co1491 O1499 2.055 . S
Co1491 O1502 2.039 . S
Co1491 N1505 2.140 . S
C1492 O1493 1.227 . S
C1492 O1502 1.265 . S
O1493 C1492 1.227 . S
N1494 Co1491 2.121 . S
N1494 C1496 1.375 . S
N1494 C1497 1.313 . S
C1495 C1496 1.338 . S
C1495 N1498 1.377 . S
C1495 H1515 0.930 . S
C1496 N1494 1.375 . S
C1496 C1495 1.338 . S
C1496 H1500 0.931 . S
C1497 N1494 1.313 . S
C1497 N1498 1.344 . S
C1497 H1501 0.930 . S
N1498 C1495 1.377 . S
N1498 C1497 1.344 . S
O1499 Co1491 2.055 . S
O1499 C1503 1.253 . S
H1500 C1496 0.931 . S
H1501 C1497 0.930 . S
O1502 Co1491 2.039 . S
O1502 C1492 1.265 . S
C1503 O1499 1.253 . S
C1503 O1504 1.227 . S
O1504 C1503 1.227 . S
N1505 Co1491 2.140 . S
N1505 C1508 1.346 . S
N1505 C1509 1.345 . S
C1506 C1507 1.387 . S
C1506 C1510 1.391 . S
C1507 C1506 1.387 . S
C1507 C1508 1.369 . S
C1507 H1516 0.929 . S
C1508 N1505 1.346 . S
C1508 C1507 1.369 . S
C1508 H1511 0.928 . S
C1509 N1505 1.345 . S
C1509 C1510 1.371 . S
C1509 H1512 0.931 . S
C1510 C1506 1.391 . S
C1510 C1509 1.371 . S
C1510 H1517 0.930 . S
H1511 C1508 0.928 . S
H1512 C1509 0.931 . S
H1513 C1489 0.930 . S
H1514 C1486 0.930 . S
H1515 C1495 0.930 . S
H1516 C1507 0.929 . S
H1517 C1510 0.930 . S
C1518 C1519 1.351 . S
C1518 N1521 1.368 . S
C1518 H1523 0.931 . S
C1519 C1518 1.351 . S
C1519 N1520 1.373 . S
C1519 H1547 0.930 . S
N1520 C1519 1.373 . S
N1520 C1522 1.340 . S
N1521 C1518 1.368 . S
N1521 C1522 1.321 . S
N1521 Co1524 2.135 . S
C1522 N1520 1.340 . S
C1522 N1521 1.321 . S
C1522 H1546 0.930 . S
H1523 C1518 0.931 . S
Co1524 N1521 2.135 . S
Co1524 N1527 2.121 . S
Co1524 O1532 2.055 . S
Co1524 O1535 2.039 . S
Co1524 N1538 2.140 . S
C1525 O1526 1.227 . S
C1525 O1535 1.265 . S
O1526 C1525 1.227 . S
N1527 Co1524 2.121 . S
N1527 C1529 1.375 . S
N1527 C1530 1.313 . S
C1528 C1529 1.338 . S
C1528 N1531 1.377 . S
C1528 H1548 0.930 . S
C1529 N1527 1.375 . S
C1529 C1528 1.338 . S
C1529 H1533 0.931 . S
C1530 N1527 1.313 . S
C1530 N1531 1.344 . S
C1530 H1534 0.930 . S
N1531 C1528 1.377 . S
N1531 C1530 1.344 . S
O1532 Co1524 2.055 . S
O1532 C1536 1.253 . S
H1533 C1529 0.931 . S
H1534 C1530 0.930 . S
O1535 Co1524 2.039 . S
O1535 C1525 1.265 . S
C1536 O1532 1.253 . S
C1536 O1537 1.227 . S
O1537 C1536 1.227 . S
N1538 Co1524 2.140 . S
N1538 C1541 1.346 . S
N1538 C1542 1.345 . S
C1539 C1540 1.387 . S
C1539 C1543 1.391 . S
C1540 C1539 1.387 . S
C1540 C1541 1.369 . S
C1540 H1549 0.929 . S
C1541 N1538 1.346 . S
C1541 C1540 1.369 . S
C1541 H1544 0.928 . S
C1542 N1538 1.345 . S
C1542 C1543 1.371 . S
C1542 H1545 0.931 . S
C1543 C1539 1.391 . S
C1543 C1542 1.371 . S
C1543 H1550 0.930 . S
H1544 C1541 0.928 . S
H1545 C1542 0.931 . S
H1546 C1522 0.930 . S
H1547 C1519 0.930 . S
H1548 C1528 0.930 . S
H1549 C1540 0.929 . S
H1550 C1543 0.930 . S
C1551 C1552 1.351 . S
C1551 N1554 1.368 . S
C1551 H1556 0.931 . S
C1552 C1551 1.351 . S
C1552 N1553 1.373 . S
C1552 H1580 0.930 . S
N1553 C1552 1.373 . S
N1553 C1555 1.340 . S
N1554 C1551 1.368 . S
N1554 C1555 1.321 . S
N1554 Co1557 2.135 . S
C1555 N1553 1.340 . S
C1555 N1554 1.321 . S
C1555 H1579 0.930 . S
H1556 C1551 0.931 . S
Co1557 N1554 2.135 . S
Co1557 N1560 2.121 . S
Co1557 O1565 2.055 . S
Co1557 O1568 2.039 . S
Co1557 N1571 2.140 . S
C1558 O1559 1.227 . S
C1558 O1568 1.265 . S
O1559 C1558 1.227 . S
N1560 Co1557 2.121 . S
N1560 C1562 1.375 . S
N1560 C1563 1.313 . S
C1561 C1562 1.338 . S
C1561 N1564 1.377 . S
C1561 H1581 0.930 . S
C1562 N1560 1.375 . S
C1562 C1561 1.338 . S
C1562 H1566 0.931 . S
C1563 N1560 1.313 . S
C1563 N1564 1.344 . S
C1563 H1567 0.930 . S
N1564 C1561 1.377 . S
N1564 C1563 1.344 . S
O1565 Co1557 2.055 . S
O1565 C1569 1.253 . S
H1566 C1562 0.931 . S
H1567 C1563 0.930 . S
O1568 Co1557 2.039 . S
O1568 C1558 1.265 . S
C1569 O1565 1.253 . S
C1569 O1570 1.227 . S
O1570 C1569 1.227 . S
N1571 Co1557 2.140 . S
N1571 C1574 1.346 . S
N1571 C1575 1.345 . S
C1572 C1573 1.387 . S
C1572 C1576 1.391 . S
C1573 C1572 1.387 . S
C1573 C1574 1.369 . S
C1573 H1582 0.929 . S
C1574 N1571 1.346 . S
C1574 C1573 1.369 . S
C1574 H1577 0.928 . S
C1575 N1571 1.345 . S
C1575 C1576 1.371 . S
C1575 H1578 0.931 . S
C1576 C1572 1.391 . S
C1576 C1575 1.371 . S
C1576 H1583 0.930 . S
H1577 C1574 0.928 . S
H1578 C1575 0.931 . S
H1579 C1555 0.930 . S
H1580 C1552 0.930 . S
H1581 C1561 0.930 . S
H1582 C1573 0.929 . S
H1583 C1576 0.930 . S
N2 C1275 2.827 . S
N35 C1195 2.739 . S
N79 C1572 1.899 . S
C1129 N112 2.537 . S
N134 C1327 2.318 . S
C1077 N178 1.791 . S
N211 C1360 2.850 1_556 S
N233 C1011 2.671 . S
C997 N277 1.962 . S
N310 C1341 2.563 . S
N332 C1063 1.798 . S
C1374 N376 2.449 . S
N409 C1209 3.025 . S
N431 C1558 2.317 . S
C1143 N464 2.429 . S
N497 C1261 2.088 . S
C799 N365 2.129 . S
C700 N541 1.595 . S
N574 C912 3.409 . S
C780 N607 2.677 . S
C813 N398 2.085 . S
N299 C733 3.696 . S
C766 N640 2.372 . S
C714 N662 2.106 . S
C568 N695 2.848 . S
C502 N739 3.702 . S
C1473 N772 1.885 . S
N805 C436 2.308 . S
C634 N827 2.601 . S
N871 C384 1.925 . S
C681 N893 1.776 . S
C318 N926 2.451 . S
C304 N959 1.469 . S
C648 N1003 2.019 . S
N1025 C370 1.558 . S
N1069 C667 2.393 . S
N1102 C516 3.471 . S
N1124 C1459 2.512 . S
N1168 C450 3.183 . S
N1190 C582 2.328 . S
C106 N1058 2.229 . S
C7 N1234 1.569 . S
C205 N1256 2.770 . S
C87 N1300 3.049 . S
N1091 C120 2.174 . S
C54 N992 3.505 . S
C73 N1333 2.457 . S
N1366 C21 2.435 . S
C1176 N167 2.827 . S
C1294 N200 2.739 . S
N244 C1110 1.899 . S
C1228 N145 2.537 . S
N101 C1030 2.318 . S
N13 C1539 1.791 . S
C964 N46 2.850 . S
N68 C1506 2.671 . S
N673 C1492 1.962 . S
N1399 C1044 2.563 . S
N629 C1525 1.798 1_655 S
C978 N1432 2.449 . S
N1465 C1308 3.025 . S
N530 C1096 2.317 . S
C1242 N563 2.429 . S
N596 C1162 2.088 . S
C832 N1421 2.129 . S
N442 C865 1.595 . S
N475 C747 3.409 . S
C945 N508 2.677 . S
C846 N1454 2.085 . S
C898 N1388 3.696 . S
N343 C931 2.372 . S
C879 N266 2.106 . S
C469 N860 2.848 . S
C601 N904 3.702 . S
C417 N937 1.885 . S
N838 C535 2.308 . S
C337 N794 2.599 1_556 S
N706 C1440 1.925 . S
C285 N728 1.776 . S
C1407 N761 2.451 . S
C1393 N1355 1.469 . S
N1498 C351 2.019 . S
C1426 N1322 1.558 1_655 S
N1531 C271 2.393 . S
C615 N1564 3.471 . S
C403 N1223 2.512 . S
N1267 C549 3.183 . S
C483 N1289 2.328 . S
N1520 C139 2.229 . S
C172 N1135 1.569 . S
C40 N1157 2.770 . S
N1201 C252 3.049 . S
N1553 C153 2.174 . S
N1487 C219 3.505 . S
N1036 C238 2.457 . S
C186 N970 2.435 . S
C249 C18 3.170 1_655 S
C150 C51 2.966 1_455 S
C183 C84 3.170 . S
C216 C117 2.966 . S
C414 C282 3.035 1_565 S
C447 C315 3.065 . S
C480 C348 3.137 1_545 S
C513 C381 3.234 1_556 S
C1404 C546 3.065 1_554 S
C579 C645 3.137 . S
C612 C1437 3.234 . S
C678 C1470 3.035 . S
C711 C942 3.033 1_655 S
C843 C744 3.297 1_655 S
C876 C777 3.033 . S
C909 C810 3.297 . S
C1107 C975 3.180 1_545 S
C1008 C1140 2.975 . S
C1041 C1173 3.035 1_545 S
C1074 C1206 2.990 1_556 S
C1503 C1239 2.975 1_556 S
C1338 C1272 3.035 . S
C1305 C1536 2.990 . S
C1569 C1371 3.180 . S
