# Generated by pormake.
# Topology wjz, (5)-cn, num edge types: 1
# Building blocks:
#     Node 0, Type 0, BuildingBlock: BEQFEK_clean_sbu_0, # of connection points: 5
#     Node 1, Type 0, BuildingBlock: BEQFEK_clean_sbu_0, # of connection points: 5
#     Node 2, Type 0, BuildingBlock: BEQFEK_clean_sbu_0, # of connection points: 5
#     Node 3, Type 0, BuildingBlock: BEQFEK_clean_sbu_0, # of connection points: 5
#     Node 4, Type 0, BuildingBlock: BEQFEK_clean_sbu_0, # of connection points: 5
#     Node 5, Type 0, BuildingBlock: BEQFEK_clean_sbu_0, # of connection points: 5
#     Node 6, Type 0, BuildingBlock: BEQFEK_clean_sbu_0, # of connection points: 5
#     Node 7, Type 0, BuildingBlock: BEQFEK_clean_sbu_0, # of connection points: 5
#     Node 8, Type 0, BuildingBlock: BEQFEK_clean_sbu_0, # of connection points: 5
#     Node 9, Type 0, BuildingBlock: BEQFEK_clean_sbu_0, # of connection points: 5
#     Node 10, Type 0, BuildingBlock: BEQFEK_clean_sbu_0, # of connection points: 5
#     Node 11, Type 0, BuildingBlock: BEQFEK_clean_sbu_0, # of connection points: 5
#     Edge 12, Type (0, 0), None
#     Edge 13, Type (0, 0), None
#     Edge 14, Type (0, 0), None
#     Edge 15, Type (0, 0), None
#     Edge 16, Type (0, 0), None
#     Edge 17, Type (0, 0), None
#     Edge 18, Type (0, 0), None
#     Edge 19, Type (0, 0), None
#     Edge 20, Type (0, 0), None
#     Edge 21, Type (0, 0), None
#     Edge 22, Type (0, 0), None
#     Edge 23, Type (0, 0), None
#     Edge 24, Type (0, 0), None
#     Edge 25, Type (0, 0), None
#     Edge 26, Type (0, 0), None
#     Edge 27, Type (0, 0), None
#     Edge 28, Type (0, 0), None
#     Edge 29, Type (0, 0), None
#     Edge 30, Type (0, 0), None
#     Edge 31, Type (0, 0), None
#     Edge 32, Type (0, 0), None
#     Edge 33, Type (0, 0), None
#     Edge 34, Type (0, 0), None
#     Edge 35, Type (0, 0), None
#     Edge 36, Type (0, 0), None
#     Edge 37, Type (0, 0), None
#     Edge 38, Type (0, 0), None
#     Edge 39, Type (0, 0), None
#     Edge 40, Type (0, 0), None
#     Edge 41, Type (0, 0), None
# Relax obj value: 0.320
# Max RMSD: 0.245
# Mean RMSD: 0.245
data_MOF--net-wjz--node1-BEQFEK_clean_sbu_0--edge1-none
_symmetry_space_group_name_H-M    P1
_symmetry_Int_Tables_number       1
_symmetry_cell_setting            triclinic
loop_
_symmetry_equiv_pos_as_xyz
'x, y, z'
_cell_length_a     32.976372
_cell_length_b     32.975971
_cell_length_c     10.121446
_cell_angle_alpha  89.999246
_cell_angle_beta   90.001476
_cell_angle_gamma 120.00342
loop_
_atom_site_label
_atom_site_type_symbol
_atom_site_fract_x
_atom_site_fract_y
_atom_site_fract_z
_atom_type_partial_charge
Co0 Co 0.34976 0.45311 0.98053 0.0
Co1 Co 0.39131 0.50316 0.24688 0.0
C2 C 0.39743 0.41857 0.1698 0.0
O3 O 0.37656 0.41297 0.05828 0.0
O4 O 0.40621 0.45308 0.24257 0.0
C5 C 0.36311 0.45257 0.72657 0.0
O6 O 0.3952 0.44379 0.77162 0.0
C7 C 0.40758 0.4983 0.52156 0.0
C8 C 0.35702 0.51702 0.60129 0.0
C9 C 0.37758 0.49006 0.62643 0.0
N10 N 0.40034 0.52349 0.42924 0.0
N11 N 0.37242 0.53721 0.48187 0.0
C12 C 0.43729 0.47635 0.503 0.0
H13 H 0.46093 0.49155 0.41717 0.0
H14 H 0.41431 0.43807 0.49009 0.0
H15 H 0.45911 0.48235 0.59215 0.0
C16 C 0.26011 0.43545 0.10959 0.0
N17 N 0.30732 0.45749 0.10187 0.0
N18 N 0.32467 0.47208 0.21995 0.0
C19 C 0.28935 0.45318 0.30899 0.0
C20 C 0.2468 0.43406 0.24289 0.0
C21 C 0.23007 0.40363 1.00155 0.0
H22 H 0.24846 0.38715 0.9532 0.0
H23 H 0.19613 0.37547 0.03991 0.0
H24 H 0.22468 0.42432 0.92434 0.0
O25 O 0.40112 0.51477 0.92968 0.0
O26 O 0.43323 0.55574 0.10834 0.0
H27 H 0.28643 0.44115 0.518 0.0
H28 H 0.26724 0.3898 0.41978 0.0
C29 C 0.29332 0.42773 0.42618 0.0
H30 H 0.3279 0.43004 0.42868 0.0
H31 H 0.35806 0.55417 0.42889 0.0
O32 O 0.32694 0.44064 0.79756 0.0
C33 C 0.43129 0.5523 0.98144 0.0
Co34 Co 0.90472 0.34571 0.14716 0.0
Co35 Co 0.89622 0.38726 0.4135 0.0
C36 C 0.98693 0.39338 0.33643 0.0
O37 O 0.97165 0.37251 0.22491 0.0
O38 O 0.96121 0.40217 0.4092 0.0
C39 C 0.91861 0.35905 0.89321 0.0
O40 O 0.95947 0.39114 0.93825 0.0
C41 C 0.91734 0.40352 0.68818 0.0
C42 C 0.84806 0.35296 0.76791 0.0
C43 C 0.89559 0.37352 0.79306 0.0
N44 N 0.88491 0.39628 0.59586 0.0
N45 N 0.84327 0.36836 0.64849 0.0
C46 C 0.96901 0.43324 0.66963 0.0
H47 H 0.97745 0.45688 0.58381 0.0
H48 H 0.98431 0.41026 0.65673 0.0
H49 H 0.98483 0.45506 0.75879 0.0
C50 C 0.83272 0.25606 0.27624 0.0
N51 N 0.85789 0.30327 0.26851 0.0
N52 N 0.86066 0.32062 0.38659 0.0
C53 C 0.84425 0.2853 0.47563 0.0
C54 C 0.82081 0.24275 0.40955 0.0
C55 C 0.83449 0.22602 0.16819 0.0
H56 H 0.86936 0.2444 0.11983 0.0
H57 H 0.82871 0.19207 0.20654 0.0
H58 H 0.8084 0.22063 0.091 0.0
O59 O 0.89442 0.39707 0.0963 0.0
O60 O 0.88556 0.42918 0.27496 0.0
H61 H 0.85339 0.28239 0.68464 0.0
H62 H 0.88554 0.2632 0.58638 0.0
C63 C 0.87369 0.28928 0.5928 0.0
H64 H 0.90596 0.32386 0.59528 0.0
H65 H 0.81196 0.354 0.5955 0.0
O66 O 0.89435 0.32288 0.9642 0.0
C67 C 0.88706 0.42724 0.14806 0.0
Co68 Co 0.5671 0.90068 0.31389 0.0
Co69 Co 0.51705 0.89216 0.58023 0.0
C70 C 0.60163 0.98288 0.50316 0.0
O71 O 0.60723 0.96761 0.39164 0.0
O72 O 0.56713 0.95716 0.57593 0.0
C73 C 0.56764 0.91457 0.05993 0.0
O74 O 0.57641 0.95543 0.10498 0.0
C75 C 0.5219 0.91329 0.85491 0.0
C76 C 0.50319 0.84402 0.93465 0.0
C77 C 0.53015 0.89154 0.95979 0.0
N78 N 0.49672 0.88086 0.7626 0.0
N79 N 0.483 0.83922 0.81523 0.0
C80 C 0.54385 0.96496 0.83635 0.0
H81 H 0.52865 0.97339 0.75052 0.0
H82 H 0.58214 0.98027 0.82345 0.0
H83 H 0.53785 0.98078 0.9255 0.0
C84 C 0.58476 0.82869 0.44295 0.0
N85 N 0.56271 0.85385 0.43523 0.0
N86 N 0.54813 0.85661 0.55331 0.0
C87 C 0.56703 0.84019 0.64235 0.0
C88 C 0.58615 0.81677 0.57625 0.0
C89 C 0.61657 0.83047 0.3349 0.0
H90 H 0.63305 0.86534 0.28655 0.0
H91 H 0.64473 0.82469 0.37325 0.0
H92 H 0.59587 0.80438 0.2577 0.0
O93 O 0.50544 0.89037 0.26303 0.0
O94 O 0.46447 0.8815 0.44169 0.0
H95 H 0.57906 0.84931 0.85136 0.0
H96 H 0.63041 0.88148 0.75314 0.0
C97 C 0.59248 0.86962 0.75955 0.0
H98 H 0.59017 0.90189 0.76204 0.0
H99 H 0.46604 0.8079 0.76225 0.0
O100 O 0.57956 0.89032 0.13093 0.0
C101 C 0.4679 0.883 0.31479 0.0
Co102 Co 0.6745 0.56305 0.48053 0.0
Co103 Co 0.63296 0.513 0.74687 0.0
C104 C 0.62684 0.59759 0.6698 0.0
O105 O 0.64771 0.60319 0.55828 0.0
O106 O 0.61805 0.56308 0.74257 0.0
C107 C 0.66115 0.5636 0.22657 0.0
O108 O 0.62906 0.57236 0.27161 0.0
C109 C 0.61669 0.51786 0.02155 0.0
C110 C 0.66725 0.49915 0.1013 0.0
C111 C 0.64669 0.52611 0.12643 0.0
N112 N 0.62393 0.49267 0.92924 0.0
N113 N 0.65186 0.47895 0.98188 0.0
C114 C 0.58697 0.5398 1.00298 0.0
H115 H 0.56334 0.5246 0.91716 0.0
H116 H 0.60995 0.57809 0.99008 0.0
H117 H 0.56515 0.5338 0.09214 0.0
C118 C 0.76415 0.58071 0.60958 0.0
N119 N 0.71694 0.55867 0.60187 0.0
N120 N 0.6996 0.54408 0.71995 0.0
C121 C 0.73492 0.56298 0.80898 0.0
C122 C 0.77746 0.5821 0.74288 0.0
C123 C 0.79419 0.61253 0.50153 0.0
H124 H 0.7758 0.62901 0.45319 0.0
H125 H 0.82813 0.64069 0.53988 0.0
H126 H 0.79958 0.59183 0.42433 0.0
O127 O 0.62314 0.50139 0.42967 0.0
O128 O 0.59104 0.46042 0.60833 0.0
H129 H 0.73784 0.57502 1.01799 0.0
H130 H 0.75703 0.62637 0.91977 0.0
C131 C 0.73095 0.58844 0.92618 0.0
H132 H 0.69637 0.58612 0.92868 0.0
H133 H 0.66621 0.462 0.9289 0.0
O134 O 0.69733 0.57552 0.29756 0.0
C135 C 0.59297 0.46386 0.48143 0.0
Co136 Co 0.11954 0.67045 0.64715 0.0
Co137 Co 0.12804 0.6289 0.9135 0.0
C138 C 0.03733 0.62278 0.83642 0.0
O139 O 0.05261 0.64365 0.7249 0.0
O140 O 0.06305 0.61399 0.90919 0.0
C141 C 0.10565 0.6571 0.39319 0.0
O142 O 0.06479 0.62501 0.43823 0.0
C143 C 0.10691 0.61263 0.18818 0.0
C144 C 0.17619 0.6632 0.26791 0.0
C145 C 0.12867 0.64264 0.29305 0.0
N146 N 0.13935 0.61988 0.09586 0.0
N147 N 0.18099 0.64781 0.14849 0.0
C148 C 0.05525 0.58291 0.16962 0.0
H149 H 0.04681 0.55928 0.08379 0.0
H150 H 0.03994 0.60589 0.15671 0.0
H151 H 0.03943 0.56109 0.25877 0.0
C152 C 0.19153 0.7601 0.77622 0.0
N153 N 0.16636 0.71289 0.7685 0.0
N154 N 0.1636 0.69554 0.88658 0.0
C155 C 0.18001 0.73086 0.97562 0.0
C156 C 0.20345 0.77341 0.90954 0.0
C157 C 0.18977 0.79014 0.66817 0.0
H158 H 0.1549 0.77176 0.6198 0.0
H159 H 0.19556 0.82409 0.70651 0.0
H160 H 0.21586 0.79552 0.59098 0.0
O161 O 0.12984 0.61909 0.59629 0.0
O162 O 0.1387 0.58698 0.77495 0.0
H163 H 0.17087 0.73377 0.18462 0.0
H164 H 0.13872 0.75296 0.08635 0.0
C165 C 0.15057 0.72688 0.09279 0.0
H166 H 0.1183 0.6923 0.09526 0.0
H167 H 0.2123 0.66216 0.09551 0.0
O168 O 0.1299 0.69328 0.46419 0.0
C169 C 0.1372 0.58892 0.64805 0.0
Co170 Co 0.45716 0.11548 0.81388 0.0
Co171 Co 0.50721 0.12399 0.08023 0.0
C172 C 0.42263 0.03327 1.00315 0.0
O173 O 0.41703 0.04854 0.89163 0.0
O174 O 0.45713 0.05899 0.07592 0.0
C175 C 0.45662 0.10159 0.55992 0.0
O176 O 0.44785 0.06072 0.60497 0.0
C177 C 0.50235 0.10286 0.35491 0.0
C178 C 0.52107 0.17213 0.43465 0.0
C179 C 0.49411 0.12461 0.45979 0.0
N180 N 0.52754 0.13529 0.2626 0.0
N181 N 0.54127 0.17693 0.31523 0.0
C182 C 0.48041 0.05119 0.33635 0.0
H183 H 0.4956 0.04276 0.25052 0.0
H184 H 0.44212 0.03588 0.32344 0.0
H185 H 0.48641 0.03537 0.4255 0.0
C186 C 0.43951 0.18747 0.94294 0.0
N187 N 0.46155 0.1623 0.93522 0.0
N188 N 0.47613 0.15954 0.0533 0.0
C189 C 0.45723 0.17596 0.14234 0.0
C190 C 0.43812 0.19939 0.07624 0.0
C191 C 0.40769 0.18569 0.83489 0.0
H192 H 0.39121 0.15082 0.78653 0.0
H193 H 0.37953 0.19147 0.87324 0.0
H194 H 0.42839 0.21178 0.75769 0.0
O195 O 0.51882 0.12578 0.76303 0.0
O196 O 0.55979 0.13465 0.94169 0.0
H197 H 0.44521 0.16685 0.35135 0.0
H198 H 0.39385 0.13468 0.25313 0.0
C199 C 0.43178 0.14654 0.25954 0.0
H200 H 0.43409 0.11426 0.26203 0.0
H201 H 0.55822 0.20825 0.26225 0.0
O202 O 0.4447 0.12583 0.63091 0.0
C203 C 0.55636 0.13315 0.81479 0.0
Co204 Co 0.56683 0.67021 0.89247 0.0
Co205 Co 0.5169 0.62875 0.62587 0.0
C206 C 0.60161 0.62281 0.70345 0.0
O207 O 0.60711 0.64356 0.8151 0.0
O208 O 0.56714 0.61407 0.6306 0.0
C209 C 0.56726 0.65649 0.14597 0.0
O210 O 0.57619 0.62457 0.10042 0.0
C211 C 0.5219 0.61212 0.35132 0.0
C212 C 0.50218 0.66176 0.27019 0.0
C213 C 0.52963 0.64169 0.24573 0.0
N214 N 0.49659 0.61929 0.44344 0.0
N215 N 0.48226 0.64661 0.39003 0.0
C216 C 0.54438 0.58291 0.37039 0.0
H217 H 0.52934 0.55925 0.45621 0.0
H218 H 0.58261 0.60626 0.38342 0.0
H219 H 0.53869 0.56112 0.28137 0.0
C220 C 0.58394 0.75991 0.76445 0.0
N221 N 0.5625 0.71271 0.77126 0.0
N222 N 0.5478 0.69549 0.65305 0.0
C223 C 0.56585 0.73105 0.56464 0.0
C224 C 0.58478 0.77339 0.63167 0.0
C225 C 0.61421 0.79016 0.87447 0.0
H226 H 0.63085 0.77236 0.92528 0.0
H227 H 0.64219 0.82446 0.83764 0.0
H228 H 0.59223 0.79479 0.94909 0.0
O229 O 0.50514 0.61883 0.94285 0.0
O230 O 0.46426 0.58669 0.76412 0.0
H231 H 0.57551 0.73459 0.35472 0.0
H232 H 0.62805 0.75395 0.44806 0.0
C233 C 0.59016 0.72769 0.44406 0.0
H234 H 0.58832 0.69336 0.43948 0.0
H235 H 0.46504 0.66078 0.44258 0.0
O236 O 0.57915 0.69278 0.07557 0.0
C237 C 0.46764 0.58864 0.89102 0.0
Co238 Co 0.90471 0.56278 0.05909 0.0
Co239 Co 0.89622 0.51285 0.79249 0.0
C240 C 0.98687 0.59755 0.87006 0.0
O241 O 0.97163 0.60305 0.98171 0.0
O242 O 0.96114 0.56308 0.79721 0.0
C243 C 0.91885 0.56321 0.31259 0.0
O244 O 0.9597 0.57213 0.26704 0.0
C245 C 0.91785 0.51784 0.51794 0.0
C246 C 0.84849 0.49813 0.43681 0.0
C247 C 0.89601 0.52557 0.41235 0.0
N248 N 0.88537 0.49253 0.61006 0.0
N249 N 0.84372 0.47821 0.55665 0.0
C250 C 0.96954 0.54033 0.53701 0.0
H251 H 0.97816 0.52528 0.62283 0.0
H252 H 0.98443 0.57856 0.55003 0.0
H253 H 0.98565 0.53464 0.44799 0.0
C254 C 0.83211 0.57988 0.93108 0.0
N255 N 0.85787 0.55845 0.93788 0.0
N256 N 0.86039 0.54374 0.81967 0.0
C257 C 0.84288 0.5618 0.73126 0.0
C258 C 0.81947 0.58073 0.7983 0.0
C259 C 0.83214 0.61016 0.0411 0.0
H260 H 0.86658 0.6268 0.0919 0.0
H261 H 0.82582 0.63814 1.00426 0.0
H262 H 0.80553 0.58818 0.11572 0.0
O263 O 0.89438 0.50109 0.10947 0.0
O264 O 0.88564 0.46021 0.93074 0.0
H265 H 0.84898 0.57144 0.52134 0.0
H266 H 0.88218 0.62399 0.61466 0.0
C267 C 0.87055 0.5861 0.61067 0.0
H268 H 0.90303 0.58426 0.60608 0.0
H269 H 0.81233 0.46099 0.6092 0.0
O270 O 0.89444 0.57509 0.24218 0.0
C271 C 0.88707 0.46359 0.05764 0.0
Co272 Co 0.35 0.90064 0.22581 0.0
Co273 Co 0.39146 0.89217 0.95921 0.0
C274 C 0.3974 0.98281 0.03679 0.0
O275 O 0.37665 0.96756 0.14844 0.0
O276 O 0.40615 0.95709 0.96394 0.0
C277 C 0.36372 0.91478 0.47931 0.0
O278 O 0.39564 0.95563 0.43376 0.0
C279 C 0.40808 0.91378 0.68466 0.0
C280 C 0.35843 0.84443 0.60356 0.0
C281 C 0.37851 0.89195 0.57908 0.0
N282 N 0.40092 0.88131 0.77679 0.0
N283 N 0.37359 0.83966 0.7234 0.0
C284 C 0.4373 0.96548 0.70373 0.0
H285 H 0.46096 0.97411 0.78954 0.0
H286 H 0.41395 0.98037 0.71674 0.0
H287 H 0.45909 0.98159 0.6147 0.0
C288 C 0.2603 0.82804 0.09777 0.0
N289 N 0.3075 0.8538 0.10459 0.0
N290 N 0.32473 0.85633 0.98639 0.0
C291 C 0.28917 0.83883 0.89796 0.0
C292 C 0.24682 0.81541 0.96498 0.0
C293 C 0.23005 0.82806 0.20779 0.0
H294 H 0.24785 0.8625 0.2586 0.0
H295 H 0.19576 0.82174 0.17094 0.0
H296 H 0.22542 0.80145 0.2824 0.0
O297 O 0.40137 0.89032 0.27621 0.0
O298 O 0.43351 0.88159 0.09747 0.0
H299 H 0.28563 0.84498 0.68805 0.0
H300 H 0.26628 0.87816 0.78144 0.0
C301 C 0.29254 0.86652 0.77742 0.0
H302 H 0.32687 0.89901 0.77286 0.0
H303 H 0.35942 0.80827 0.77596 0.0
O304 O 0.32742 0.89037 0.4089 0.0
C305 C 0.43156 0.88302 0.22437 0.0
Co306 Co 0.45743 0.34595 0.39246 0.0
Co307 Co 0.50736 0.3874 0.12586 0.0
C308 C 0.42266 0.39334 0.20344 0.0
O309 O 0.41716 0.3726 0.31509 0.0
O310 O 0.45713 0.40209 0.13059 0.0
C311 C 0.45701 0.35967 0.64596 0.0
O312 O 0.44808 0.39159 0.6004 0.0
C313 C 0.50237 0.40404 0.85131 0.0
C314 C 0.52209 0.3544 0.77019 0.0
C315 C 0.49464 0.37447 0.74573 0.0
N316 N 0.52768 0.39687 0.94343 0.0
N317 N 0.542 0.36955 0.89003 0.0
C318 C 0.47988 0.43324 0.87038 0.0
H319 H 0.49492 0.45691 0.95619 0.0
H320 H 0.44165 0.40989 0.8834 0.0
H321 H 0.48557 0.45503 0.78136 0.0
C322 C 0.44033 0.25625 0.26444 0.0
N323 N 0.46177 0.30345 0.27125 0.0
N324 N 0.47647 0.32067 0.15305 0.0
C325 C 0.45841 0.28511 0.06463 0.0
C326 C 0.43949 0.24277 0.13166 0.0
C327 C 0.41005 0.226 0.37446 0.0
H328 H 0.39342 0.2438 0.42526 0.0
H329 H 0.38208 0.1917 0.33762 0.0
H330 H 0.43203 0.22137 0.44908 0.0
O331 O 0.51913 0.39733 0.44285 0.0
O332 O 0.56 0.42947 0.26412 0.0
H333 H 0.44876 0.28157 0.85471 0.0
H334 H 0.39622 0.26221 0.94803 0.0
C335 C 0.43411 0.28847 0.94405 0.0
H336 H 0.43595 0.3228 0.93946 0.0
H337 H 0.55923 0.35539 0.94259 0.0
O338 O 0.44512 0.32337 0.57556 0.0
C339 C 0.55662 0.42752 0.39101 0.0
Co340 Co 0.11956 0.45338 0.55909 0.0
Co341 Co 0.12804 0.50331 0.29248 0.0
C342 C 0.03739 0.41861 0.37007 0.0
O343 O 0.05263 0.41311 0.48172 0.0
O344 O 0.06312 0.45308 0.29721 0.0
C345 C 0.10541 0.45296 0.81258 0.0
O346 O 0.06456 0.44403 0.76702 0.0
C347 C 0.10641 0.49832 1.01793 0.0
C348 C 0.17577 0.51805 0.93681 0.0
C349 C 0.12825 0.4906 0.91234 0.0
N350 N 0.13888 0.52363 0.11005 0.0
N351 N 0.18053 0.53796 0.05665 0.0
C352 C 0.05471 0.47582 0.037 0.0
H353 H 0.04609 0.49087 0.12282 0.0
H354 H 0.03983 0.4376 0.05003 0.0
H355 H 0.0386 0.48151 0.94798 0.0
C356 C 0.19216 0.43628 0.43108 0.0
N357 N 0.16639 0.45772 0.43788 0.0
N358 N 0.16388 0.47242 0.31967 0.0
C359 C 0.18139 0.45437 0.23126 0.0
C360 C 0.2048 0.43544 0.29831 0.0
C361 C 0.19213 0.40601 0.5411 0.0
H362 H 0.15769 0.38937 0.59191 0.0
H363 H 0.19845 0.37803 0.50427 0.0
H364 H 0.21874 0.42799 0.61572 0.0
O365 O 0.12988 0.51508 0.60947 0.0
O366 O 0.13862 0.55595 0.43074 0.0
H367 H 0.1753 0.44474 0.02134 0.0
H368 H 0.1421 0.39219 0.11462 0.0
C369 C 0.15373 0.43008 0.11066 0.0
H370 H 0.12124 0.43191 0.10605 0.0
H371 H 0.21192 0.55519 0.1092 0.0
O372 O 0.12982 0.44108 0.74219 0.0
C373 C 0.13719 0.55257 0.55763 0.0
Co374 Co 0.67426 0.11552 0.72582 0.0
Co375 Co 0.6328 0.12399 0.45922 0.0
C376 C 0.62686 0.03334 0.5368 0.0
O377 O 0.6476 0.04859 0.64845 0.0
O378 O 0.61811 0.05907 0.46395 0.0
C379 C 0.66054 0.10137 0.97932 0.0
O380 O 0.62862 0.06052 0.93376 0.0
C381 C 0.61617 0.10236 0.18466 0.0
C382 C 0.66582 0.17172 0.10356 0.0
C383 C 0.64574 0.1242 0.07908 0.0
N384 N 0.62333 0.13484 0.27679 0.0
N385 N 0.65066 0.17649 0.22339 0.0
C386 C 0.58696 0.05066 0.20373 0.0
H387 H 0.56329 0.04204 0.28954 0.0
H388 H 0.61031 0.03578 0.21675 0.0
H389 H 0.56517 0.03456 0.1147 0.0
C390 C 0.76396 0.18812 0.59778 0.0
N391 N 0.71675 0.16235 0.6046 0.0
N392 N 0.69953 0.15982 0.4864 0.0
C393 C 0.73509 0.17733 0.39797 0.0
C394 C 0.77743 0.20075 0.465 0.0
C395 C 0.79421 0.1881 0.70781 0.0
H396 H 0.77641 0.15366 0.75863 0.0
H397 H 0.8285 0.19442 0.67097 0.0
H398 H 0.79884 0.21472 0.78241 0.0
O399 O 0.62288 0.12583 0.77621 0.0
O400 O 0.59074 0.13457 0.59747 0.0
H401 H 0.73863 0.17119 0.18806 0.0
H402 H 0.75798 0.13801 0.28144 0.0
C403 C 0.73172 0.14964 0.27742 0.0
H404 H 0.69739 0.11715 0.27285 0.0
H405 H 0.66483 0.20788 0.27595 0.0
O406 O 0.69683 0.12578 0.90892 0.0
C407 C 0.59269 0.13314 0.72437 0.0
loop_
_geom_bond_atom_site_label_1
_geom_bond_atom_site_label_2
_geom_bond_distance
_geom_bond_site_symmetry_2
_ccdc_geom_bond_type
Co0 O3 1.970 1_556 S
Co0 N17 1.989 1_556 S
Co0 O25 1.967 . S
Co0 O32 1.920 . S
Co1 O4 1.966 . S
Co1 N10 2.022 . S
Co1 N18 1.993 . S
Co1 O26 1.941 . S
C2 O3 1.258 . S
C2 O4 1.263 . S
O3 Co0 1.970 1_554 S
O3 C2 1.258 . S
O4 Co1 1.966 . S
O4 C2 1.263 . S
C5 O6 1.235 . S
C5 O32 1.289 . S
O6 C5 1.235 . S
C7 C9 1.400 . S
C7 N10 1.351 . S
C7 C12 1.501 . S
C8 C9 1.387 . S
C8 N11 1.341 . S
C9 C7 1.400 . S
C9 C8 1.387 . S
N10 Co1 2.022 . S
N10 C7 1.351 . S
N10 N11 1.365 . S
N11 C8 1.341 . S
N11 N10 1.365 . S
N11 H31 0.862 . S
C12 C7 1.501 . S
C12 H13 0.961 . S
C12 H14 0.961 . S
C12 H15 0.960 . S
H13 C12 0.961 . S
H14 C12 0.961 . S
H15 C12 0.960 . S
C16 N17 1.342 . S
C16 C20 1.401 . S
C16 C21 1.499 1_554 S
N17 Co0 1.989 1_554 S
N17 C16 1.342 . S
N17 N18 1.388 . S
N18 Co1 1.993 . S
N18 N17 1.388 . S
N18 C19 1.346 . S
C19 N18 1.346 . S
C19 C20 1.396 . S
C19 C29 1.510 . S
C20 C16 1.401 . S
C20 C19 1.396 . S
C21 C16 1.499 1_556 S
C21 H22 0.959 . S
C21 H23 0.960 . S
C21 H24 0.961 . S
H22 C21 0.959 . S
H23 C21 0.960 . S
H24 C21 0.961 . S
O25 Co0 1.967 . S
O25 C33 1.258 1_556 S
O26 Co1 1.941 . S
O26 C33 1.266 . S
H27 C29 0.959 . S
H28 C29 0.961 . S
C29 C19 1.510 . S
C29 H27 0.959 . S
C29 H28 0.961 . S
C29 H30 0.960 . S
H30 C29 0.960 . S
H31 N11 0.862 . S
O32 Co0 1.920 . S
O32 C5 1.289 . S
C33 O25 1.258 1_554 S
C33 O26 1.266 . S
Co34 O37 1.970 . S
Co34 N51 1.989 . S
Co34 O59 1.967 . S
Co34 O66 1.920 1_554 S
Co35 O38 1.966 . S
Co35 N44 2.022 . S
Co35 N52 1.993 . S
Co35 O60 1.941 . S
C36 O37 1.258 . S
C36 O38 1.263 . S
O37 Co34 1.970 . S
O37 C36 1.258 . S
O38 Co35 1.966 . S
O38 C36 1.263 . S
C39 O40 1.235 . S
C39 O66 1.289 . S
O40 C39 1.235 . S
C41 C43 1.400 . S
C41 N44 1.351 . S
C41 C46 1.501 . S
C42 C43 1.387 . S
C42 N45 1.341 . S
C43 C41 1.400 . S
C43 C42 1.387 . S
N44 Co35 2.022 . S
N44 C41 1.351 . S
N44 N45 1.365 . S
N45 C42 1.341 . S
N45 N44 1.365 . S
N45 H65 0.862 . S
C46 C41 1.501 . S
C46 H47 0.961 . S
C46 H48 0.961 . S
C46 H49 0.960 . S
H47 C46 0.961 . S
H48 C46 0.961 . S
H49 C46 0.960 . S
C50 N51 1.342 . S
C50 C54 1.401 . S
C50 C55 1.499 . S
N51 Co34 1.989 . S
N51 C50 1.342 . S
N51 N52 1.388 . S
N52 Co35 1.993 . S
N52 N51 1.388 . S
N52 C53 1.346 . S
C53 N52 1.346 . S
C53 C54 1.396 . S
C53 C63 1.510 . S
C54 C50 1.401 . S
C54 C53 1.396 . S
C55 C50 1.499 . S
C55 H56 0.959 . S
C55 H57 0.960 . S
C55 H58 0.961 . S
H56 C55 0.959 . S
H57 C55 0.960 . S
H58 C55 0.961 . S
O59 Co34 1.967 . S
O59 C67 1.258 . S
O60 Co35 1.941 . S
O60 C67 1.266 . S
H61 C63 0.959 . S
H62 C63 0.961 . S
C63 C53 1.510 . S
C63 H61 0.959 . S
C63 H62 0.961 . S
C63 H64 0.960 . S
H64 C63 0.960 . S
H65 N45 0.862 . S
O66 Co34 1.920 1_556 S
O66 C39 1.289 . S
C67 O59 1.258 . S
C67 O60 1.266 . S
Co68 O71 1.970 . S
Co68 N85 1.989 . S
Co68 O93 1.967 . S
Co68 O100 1.920 . S
Co69 O72 1.966 . S
Co69 N78 2.022 . S
Co69 N86 1.993 . S
Co69 O94 1.941 . S
C70 O71 1.258 . S
C70 O72 1.263 . S
O71 Co68 1.970 . S
O71 C70 1.258 . S
O72 Co69 1.966 . S
O72 C70 1.263 . S
C73 O74 1.235 . S
C73 O100 1.289 . S
O74 C73 1.235 . S
C75 C77 1.400 . S
C75 N78 1.351 . S
C75 C80 1.501 . S
C76 C77 1.387 . S
C76 N79 1.341 . S
C77 C75 1.400 . S
C77 C76 1.387 . S
N78 Co69 2.022 . S
N78 C75 1.351 . S
N78 N79 1.365 . S
N79 C76 1.341 . S
N79 N78 1.365 . S
N79 H99 0.862 . S
C80 C75 1.501 . S
C80 H81 0.961 . S
C80 H82 0.961 . S
C80 H83 0.960 . S
H81 C80 0.961 . S
H82 C80 0.961 . S
H83 C80 0.960 . S
C84 N85 1.342 . S
C84 C88 1.401 . S
C84 C89 1.499 . S
N85 Co68 1.989 . S
N85 C84 1.342 . S
N85 N86 1.388 . S
N86 Co69 1.993 . S
N86 N85 1.388 . S
N86 C87 1.346 . S
C87 N86 1.346 . S
C87 C88 1.396 . S
C87 C97 1.510 . S
C88 C84 1.401 . S
C88 C87 1.396 . S
C89 C84 1.499 . S
C89 H90 0.959 . S
C89 H91 0.960 . S
C89 H92 0.961 . S
H90 C89 0.959 . S
H91 C89 0.960 . S
H92 C89 0.961 . S
O93 Co68 1.967 . S
O93 C101 1.258 . S
O94 Co69 1.941 . S
O94 C101 1.266 . S
H95 C97 0.959 . S
H96 C97 0.961 . S
C97 C87 1.510 . S
C97 H95 0.959 . S
C97 H96 0.961 . S
C97 H98 0.960 . S
H98 C97 0.960 . S
H99 N79 0.862 . S
O100 Co68 1.920 . S
O100 C73 1.289 . S
C101 O93 1.258 . S
C101 O94 1.266 . S
Co102 O105 1.970 . S
Co102 N119 1.989 . S
Co102 O127 1.967 . S
Co102 O134 1.920 . S
Co103 O106 1.966 . S
Co103 N112 2.022 . S
Co103 N120 1.993 . S
Co103 O128 1.941 . S
C104 O105 1.258 . S
C104 O106 1.263 . S
O105 Co102 1.970 . S
O105 C104 1.258 . S
O106 Co103 1.966 . S
O106 C104 1.263 . S
C107 O108 1.235 . S
C107 O134 1.289 . S
O108 C107 1.235 . S
C109 C111 1.400 . S
C109 N112 1.351 1_554 S
C109 C114 1.501 . S
C110 C111 1.387 . S
C110 N113 1.341 1_554 S
C111 C109 1.400 . S
C111 C110 1.387 . S
N112 Co103 2.022 . S
N112 C109 1.351 1_556 S
N112 N113 1.365 . S
N113 C110 1.341 1_556 S
N113 N112 1.365 . S
N113 H133 0.862 . S
C114 C109 1.501 . S
C114 H115 0.961 1_554 S
C114 H116 0.961 . S
C114 H117 0.960 . S
H115 C114 0.961 1_556 S
H116 C114 0.961 . S
H117 C114 0.960 . S
C118 N119 1.342 . S
C118 C122 1.401 . S
C118 C123 1.499 . S
N119 Co102 1.989 . S
N119 C118 1.342 . S
N119 N120 1.388 . S
N120 Co103 1.993 . S
N120 N119 1.388 . S
N120 C121 1.346 . S
C121 N120 1.346 . S
C121 C122 1.396 . S
C121 C131 1.510 . S
C122 C118 1.401 . S
C122 C121 1.396 . S
C123 C118 1.499 . S
C123 H124 0.959 . S
C123 H125 0.960 . S
C123 H126 0.961 . S
H124 C123 0.959 . S
H125 C123 0.960 . S
H126 C123 0.961 . S
O127 Co102 1.967 . S
O127 C135 1.258 . S
O128 Co103 1.941 . S
O128 C135 1.266 . S
H129 C131 0.959 . S
H130 C131 0.961 . S
C131 C121 1.510 . S
C131 H129 0.959 . S
C131 H130 0.961 . S
C131 H132 0.960 . S
H132 C131 0.960 . S
H133 N113 0.862 . S
O134 Co102 1.920 . S
O134 C107 1.289 . S
C135 O127 1.258 . S
C135 O128 1.266 . S
Co136 O139 1.970 . S
Co136 N153 1.989 . S
Co136 O161 1.967 . S
Co136 O168 1.920 . S
Co137 O140 1.966 . S
Co137 N146 2.022 1_556 S
Co137 N154 1.993 . S
Co137 O162 1.941 . S
C138 O139 1.258 . S
C138 O140 1.263 . S
O139 Co136 1.970 . S
O139 C138 1.258 . S
O140 Co137 1.966 . S
O140 C138 1.263 . S
C141 O142 1.235 . S
C141 O168 1.289 . S
O142 C141 1.235 . S
C143 C145 1.400 . S
C143 N146 1.351 . S
C143 C148 1.501 . S
C144 C145 1.387 . S
C144 N147 1.341 . S
C145 C143 1.400 . S
C145 C144 1.387 . S
N146 Co137 2.022 1_554 S
N146 C143 1.351 . S
N146 N147 1.365 . S
N147 C144 1.341 . S
N147 N146 1.365 . S
N147 H167 0.862 . S
C148 C143 1.501 . S
C148 H149 0.961 . S
C148 H150 0.961 . S
C148 H151 0.960 . S
H149 C148 0.961 . S
H150 C148 0.961 . S
H151 C148 0.960 . S
C152 N153 1.342 . S
C152 C156 1.401 . S
C152 C157 1.499 . S
N153 Co136 1.989 . S
N153 C152 1.342 . S
N153 N154 1.388 . S
N154 Co137 1.993 . S
N154 N153 1.388 . S
N154 C155 1.346 . S
C155 N154 1.346 . S
C155 C156 1.396 . S
C155 C165 1.510 1_556 S
C156 C152 1.401 . S
C156 C155 1.396 . S
C157 C152 1.499 . S
C157 H158 0.959 . S
C157 H159 0.960 . S
C157 H160 0.961 . S
H158 C157 0.959 . S
H159 C157 0.960 . S
H160 C157 0.961 . S
O161 Co136 1.967 . S
O161 C169 1.258 . S
O162 Co137 1.941 . S
O162 C169 1.266 . S
H163 C165 0.959 . S
H164 C165 0.961 . S
C165 C155 1.510 1_554 S
C165 H163 0.959 . S
C165 H164 0.961 . S
C165 H166 0.960 . S
H166 C165 0.960 . S
H167 N147 0.862 . S
O168 Co136 1.920 . S
O168 C141 1.289 . S
C169 O161 1.258 . S
C169 O162 1.266 . S
Co170 O173 1.970 . S
Co170 N187 1.989 . S
Co170 O195 1.967 . S
Co170 O202 1.920 . S
Co171 O174 1.966 . S
Co171 N180 2.022 . S
Co171 N188 1.993 . S
Co171 O196 1.941 1_554 S
C172 O173 1.258 . S
C172 O174 1.263 1_556 S
O173 Co170 1.970 . S
O173 C172 1.258 . S
O174 Co171 1.966 . S
O174 C172 1.263 1_554 S
C175 O176 1.235 . S
C175 O202 1.289 . S
O176 C175 1.235 . S
C177 C179 1.400 . S
C177 N180 1.351 . S
C177 C182 1.501 . S
C178 C179 1.387 . S
C178 N181 1.341 . S
C179 C177 1.400 . S
C179 C178 1.387 . S
N180 Co171 2.022 . S
N180 C177 1.351 . S
N180 N181 1.365 . S
N181 C178 1.341 . S
N181 N180 1.365 . S
N181 H201 0.862 . S
C182 C177 1.501 . S
C182 H183 0.961 . S
C182 H184 0.961 . S
C182 H185 0.960 . S
H183 C182 0.961 . S
H184 C182 0.961 . S
H185 C182 0.960 . S
C186 N187 1.342 . S
C186 C190 1.401 . S
C186 C191 1.499 . S
N187 Co170 1.989 . S
N187 C186 1.342 . S
N187 N188 1.388 1_556 S
N188 Co171 1.993 . S
N188 N187 1.388 1_554 S
N188 C189 1.346 . S
C189 N188 1.346 . S
C189 C190 1.397 1_554 S
C189 C199 1.510 . S
C190 C186 1.401 . S
C190 C189 1.397 1_556 S
C191 C186 1.499 . S
C191 H192 0.959 . S
C191 H193 0.960 . S
C191 H194 0.961 . S
H192 C191 0.959 . S
H193 C191 0.960 . S
H194 C191 0.961 . S
O195 Co170 1.967 . S
O195 C203 1.258 . S
O196 Co171 1.941 1_556 S
O196 C203 1.266 . S
H197 C199 0.959 . S
H198 C199 0.961 . S
C199 C189 1.510 . S
C199 H197 0.959 . S
C199 H198 0.961 . S
C199 H200 0.960 . S
H200 C199 0.960 . S
H201 N181 0.862 . S
O202 Co170 1.920 . S
O202 C175 1.289 . S
C203 O195 1.258 . S
C203 O196 1.266 . S
Co204 O207 1.970 . S
Co204 N221 1.989 . S
Co204 O229 1.967 . S
Co204 O236 1.920 1_556 S
Co205 O208 1.966 . S
Co205 N214 2.022 . S
Co205 N222 1.993 . S
Co205 O230 1.941 . S
C206 O207 1.258 . S
C206 O208 1.263 . S
O207 Co204 1.970 . S
O207 C206 1.258 . S
O208 Co205 1.966 . S
O208 C206 1.263 . S
C209 O210 1.235 . S
C209 O236 1.289 . S
O210 C209 1.235 . S
C211 C213 1.400 . S
C211 N214 1.351 . S
C211 C216 1.501 . S
C212 C213 1.387 . S
C212 N215 1.341 . S
C213 C211 1.400 . S
C213 C212 1.387 . S
N214 Co205 2.022 . S
N214 C211 1.351 . S
N214 N215 1.365 . S
N215 C212 1.341 . S
N215 N214 1.365 . S
N215 H235 0.862 . S
C216 C211 1.501 . S
C216 H217 0.961 . S
C216 H218 0.961 . S
C216 H219 0.960 . S
H217 C216 0.961 . S
H218 C216 0.961 . S
H219 C216 0.960 . S
C220 N221 1.342 . S
C220 C224 1.401 . S
C220 C225 1.499 . S
N221 Co204 1.989 . S
N221 C220 1.342 . S
N221 N222 1.388 . S
N222 Co205 1.993 . S
N222 N221 1.388 . S
N222 C223 1.346 . S
C223 N222 1.346 . S
C223 C224 1.396 . S
C223 C233 1.510 . S
C224 C220 1.401 . S
C224 C223 1.396 . S
C225 C220 1.499 . S
C225 H226 0.959 . S
C225 H227 0.960 . S
C225 H228 0.961 . S
H226 C225 0.959 . S
H227 C225 0.960 . S
H228 C225 0.961 . S
O229 Co204 1.967 . S
O229 C237 1.258 . S
O230 Co205 1.941 . S
O230 C237 1.266 . S
H231 C233 0.959 . S
H232 C233 0.961 . S
C233 C223 1.510 . S
C233 H231 0.959 . S
C233 H232 0.961 . S
C233 H234 0.960 . S
H234 C233 0.960 . S
H235 N215 0.862 . S
O236 Co204 1.920 1_554 S
O236 C209 1.289 . S
C237 O229 1.258 . S
C237 O230 1.266 . S
Co238 O241 1.970 1_554 S
Co238 N255 1.989 1_554 S
Co238 O263 1.967 . S
Co238 O270 1.920 . S
Co239 O242 1.966 . S
Co239 N248 2.022 . S
Co239 N256 1.993 . S
Co239 O264 1.941 . S
C240 O241 1.258 . S
C240 O242 1.263 . S
O241 Co238 1.970 1_556 S
O241 C240 1.258 . S
O242 Co239 1.966 . S
O242 C240 1.263 . S
C243 O244 1.235 . S
C243 O270 1.289 . S
O244 C243 1.235 . S
C245 C247 1.400 . S
C245 N248 1.351 . S
C245 C250 1.501 . S
C246 C247 1.387 . S
C246 N249 1.341 . S
C247 C245 1.400 . S
C247 C246 1.387 . S
N248 Co239 2.022 . S
N248 C245 1.351 . S
N248 N249 1.365 . S
N249 C246 1.341 . S
N249 N248 1.365 . S
N249 H269 0.862 . S
C250 C245 1.501 . S
C250 H251 0.961 . S
C250 H252 0.961 . S
C250 H253 0.960 . S
H251 C250 0.961 . S
H252 C250 0.961 . S
H253 C250 0.960 . S
C254 N255 1.342 . S
C254 C258 1.401 . S
C254 C259 1.499 1_556 S
N255 Co238 1.989 1_556 S
N255 C254 1.342 . S
N255 N256 1.388 . S
N256 Co239 1.993 . S
N256 N255 1.388 . S
N256 C257 1.346 . S
C257 N256 1.346 . S
C257 C258 1.396 . S
C257 C267 1.510 . S
C258 C254 1.401 . S
C258 C257 1.396 . S
C259 C254 1.499 1_554 S
C259 H260 0.959 . S
C259 H261 0.960 . S
C259 H262 0.961 . S
H260 C259 0.959 . S
H261 C259 0.960 . S
H262 C259 0.961 . S
O263 Co238 1.967 . S
O263 C271 1.258 1_554 S
O264 Co239 1.941 . S
O264 C271 1.266 . S
H265 C267 0.959 . S
H266 C267 0.961 . S
C267 C257 1.510 . S
C267 H265 0.959 . S
C267 H266 0.961 . S
C267 H268 0.960 . S
H268 C267 0.960 . S
H269 N249 0.862 . S
O270 Co238 1.920 . S
O270 C243 1.289 . S
C271 O263 1.258 1_556 S
C271 O264 1.266 . S
Co272 O275 1.970 . S
Co272 N289 1.989 . S
Co272 O297 1.967 . S
Co272 O304 1.920 . S
Co273 O276 1.966 . S
Co273 N282 2.022 . S
Co273 N290 1.993 . S
Co273 O298 1.941 1_556 S
C274 O275 1.258 . S
C274 O276 1.263 1_554 S
O275 Co272 1.970 . S
O275 C274 1.258 . S
O276 Co273 1.966 . S
O276 C274 1.263 1_556 S
C277 O278 1.235 . S
C277 O304 1.289 . S
O278 C277 1.235 . S
C279 C281 1.400 . S
C279 N282 1.351 . S
C279 C284 1.501 . S
C280 C281 1.387 . S
C280 N283 1.341 . S
C281 C279 1.400 . S
C281 C280 1.387 . S
N282 Co273 2.022 . S
N282 C279 1.351 . S
N282 N283 1.365 . S
N283 C280 1.341 . S
N283 N282 1.365 . S
N283 H303 0.862 . S
C284 C279 1.501 . S
C284 H285 0.961 . S
C284 H286 0.961 . S
C284 H287 0.960 . S
H285 C284 0.961 . S
H286 C284 0.961 . S
H287 C284 0.960 . S
C288 N289 1.342 . S
C288 C292 1.401 . S
C288 C293 1.499 . S
N289 Co272 1.989 . S
N289 C288 1.342 . S
N289 N290 1.388 1_554 S
N290 Co273 1.993 . S
N290 N289 1.388 1_556 S
N290 C291 1.346 . S
C291 N290 1.346 . S
C291 C292 1.396 1_556 S
C291 C301 1.510 . S
C292 C288 1.401 . S
C292 C291 1.396 1_554 S
C293 C288 1.499 . S
C293 H294 0.959 . S
C293 H295 0.960 . S
C293 H296 0.961 . S
H294 C293 0.959 . S
H295 C293 0.960 . S
H296 C293 0.961 . S
O297 Co272 1.967 . S
O297 C305 1.258 . S
O298 Co273 1.941 1_554 S
O298 C305 1.266 . S
H299 C301 0.959 . S
H300 C301 0.961 . S
C301 C291 1.510 . S
C301 H299 0.959 . S
C301 H300 0.961 . S
C301 H302 0.960 . S
H302 C301 0.960 . S
H303 N283 0.862 . S
O304 Co272 1.920 . S
O304 C277 1.289 . S
C305 O297 1.258 . S
C305 O298 1.266 . S
Co306 O309 1.970 . S
Co306 N323 1.989 . S
Co306 O331 1.967 . S
Co306 O338 1.920 . S
Co307 O310 1.966 . S
Co307 N316 2.022 1_554 S
Co307 N324 1.993 . S
Co307 O332 1.941 . S
C308 O309 1.258 . S
C308 O310 1.263 . S
O309 Co306 1.970 . S
O309 C308 1.258 . S
O310 Co307 1.966 . S
O310 C308 1.263 . S
C311 O312 1.235 . S
C311 O338 1.289 . S
O312 C311 1.235 . S
C313 C315 1.400 . S
C313 N316 1.351 . S
C313 C318 1.501 . S
C314 C315 1.387 . S
C314 N317 1.341 . S
C315 C313 1.400 . S
C315 C314 1.387 . S
N316 Co307 2.022 1_556 S
N316 C313 1.351 . S
N316 N317 1.365 . S
N317 C314 1.341 . S
N317 N316 1.365 . S
N317 H337 0.862 . S
C318 C313 1.501 . S
C318 H319 0.961 . S
C318 H320 0.961 . S
C318 H321 0.960 . S
H319 C318 0.961 . S
H320 C318 0.961 . S
H321 C318 0.960 . S
C322 N323 1.342 . S
C322 C326 1.401 . S
C322 C327 1.499 . S
N323 Co306 1.989 . S
N323 C322 1.342 . S
N323 N324 1.388 . S
N324 Co307 1.993 . S
N324 N323 1.388 . S
N324 C325 1.346 . S
C325 N324 1.346 . S
C325 C326 1.396 . S
C325 C335 1.510 1_554 S
C326 C322 1.401 . S
C326 C325 1.396 . S
C327 C322 1.499 . S
C327 H328 0.959 . S
C327 H329 0.960 . S
C327 H330 0.961 . S
H328 C327 0.959 . S
H329 C327 0.960 . S
H330 C327 0.961 . S
O331 Co306 1.967 . S
O331 C339 1.258 . S
O332 Co307 1.941 . S
O332 C339 1.266 . S
H333 C335 0.959 . S
H334 C335 0.961 . S
C335 C325 1.510 1_556 S
C335 H333 0.959 . S
C335 H334 0.961 . S
C335 H336 0.960 . S
H336 C335 0.960 . S
H337 N317 0.862 . S
O338 Co306 1.920 . S
O338 C311 1.289 . S
C339 O331 1.258 . S
C339 O332 1.266 . S
Co340 O343 1.970 . S
Co340 N357 1.989 . S
Co340 O365 1.967 . S
Co340 O372 1.920 . S
Co341 O344 1.966 . S
Co341 N350 2.022 . S
Co341 N358 1.993 . S
Co341 O366 1.941 . S
C342 O343 1.258 . S
C342 O344 1.263 . S
O343 Co340 1.970 . S
O343 C342 1.258 . S
O344 Co341 1.966 . S
O344 C342 1.263 . S
C345 O346 1.235 . S
C345 O372 1.289 . S
O346 C345 1.235 . S
C347 C349 1.400 . S
C347 N350 1.351 1_556 S
C347 C352 1.501 . S
C348 C349 1.387 . S
C348 N351 1.341 1_556 S
C349 C347 1.400 . S
C349 C348 1.387 . S
N350 Co341 2.022 . S
N350 C347 1.351 1_554 S
N350 N351 1.365 . S
N351 C348 1.341 1_554 S
N351 N350 1.365 . S
N351 H371 0.862 . S
C352 C347 1.501 . S
C352 H353 0.961 1_556 S
C352 H354 0.961 . S
C352 H355 0.960 . S
H353 C352 0.961 1_554 S
H354 C352 0.961 . S
H355 C352 0.960 . S
C356 N357 1.342 . S
C356 C360 1.401 . S
C356 C361 1.499 . S
N357 Co340 1.989 . S
N357 C356 1.342 . S
N357 N358 1.388 . S
N358 Co341 1.993 . S
N358 N357 1.388 . S
N358 C359 1.346 . S
C359 N358 1.346 . S
C359 C360 1.396 . S
C359 C369 1.510 . S
C360 C356 1.401 . S
C360 C359 1.396 . S
C361 C356 1.499 . S
C361 H362 0.959 . S
C361 H363 0.960 . S
C361 H364 0.961 . S
H362 C361 0.959 . S
H363 C361 0.960 . S
H364 C361 0.961 . S
O365 Co340 1.967 . S
O365 C373 1.258 . S
O366 Co341 1.941 . S
O366 C373 1.266 . S
H367 C369 0.959 . S
H368 C369 0.961 . S
C369 C359 1.510 . S
C369 H367 0.959 . S
C369 H368 0.961 . S
C369 H370 0.960 . S
H370 C369 0.960 . S
H371 N351 0.862 . S
O372 Co340 1.920 . S
O372 C345 1.289 . S
C373 O365 1.258 . S
C373 O366 1.266 . S
Co374 O377 1.970 . S
Co374 N391 1.989 . S
Co374 O399 1.967 . S
Co374 O406 1.920 . S
Co375 O378 1.966 . S
Co375 N384 2.022 . S
Co375 N392 1.993 . S
Co375 O400 1.941 . S
C376 O377 1.258 . S
C376 O378 1.263 . S
O377 Co374 1.970 . S
O377 C376 1.258 . S
O378 Co375 1.966 . S
O378 C376 1.263 . S
C379 O380 1.235 . S
C379 O406 1.289 . S
O380 C379 1.235 . S
C381 C383 1.400 . S
C381 N384 1.351 . S
C381 C386 1.501 . S
C382 C383 1.387 . S
C382 N385 1.341 . S
C383 C381 1.400 . S
C383 C382 1.387 . S
N384 Co375 2.022 . S
N384 C381 1.351 . S
N384 N385 1.365 . S
N385 C382 1.341 . S
N385 N384 1.365 . S
N385 H405 0.862 . S
C386 C381 1.501 . S
C386 H387 0.961 . S
C386 H388 0.961 . S
C386 H389 0.960 . S
H387 C386 0.961 . S
H388 C386 0.961 . S
H389 C386 0.960 . S
C390 N391 1.342 . S
C390 C394 1.401 . S
C390 C395 1.499 . S
N391 Co374 1.989 . S
N391 C390 1.342 . S
N391 N392 1.388 . S
N392 Co375 1.993 . S
N392 N391 1.388 . S
N392 C393 1.346 . S
C393 N392 1.346 . S
C393 C394 1.396 . S
C393 C403 1.510 . S
C394 C390 1.401 . S
C394 C393 1.396 . S
C395 C390 1.499 . S
C395 H396 0.959 . S
C395 H397 0.960 . S
C395 H398 0.961 . S
H396 C395 0.959 . S
H397 C395 0.960 . S
H398 C395 0.961 . S
O399 Co374 1.967 . S
O399 C407 1.258 . S
O400 Co375 1.941 . S
O400 C407 1.266 . S
H401 C403 0.959 . S
H402 C403 0.961 . S
C403 C393 1.510 . S
C403 H401 0.959 . S
C403 H402 0.961 . S
C403 H404 0.960 . S
H404 C403 0.960 . S
H405 N385 0.862 . S
O406 Co374 1.920 . S
O406 C379 1.289 . S
C407 O399 1.258 . S
C407 O400 1.266 . S
C9 C5 2.740 . S
C39 C43 2.741 . S
C73 C77 2.741 1_554 S
C111 C107 2.740 . S
C145 C141 2.741 . S
C175 C179 2.741 . S
C213 C209 2.740 . S
C247 C243 2.741 . S
C277 C281 2.741 . S
C315 C311 2.740 . S
C349 C345 2.741 . S
C379 C383 2.741 1_556 S
C237 C33 2.631 1_556 S
C67 C271 2.632 1_554 S
C305 C101 2.632 . S
C339 C135 2.631 . S
C373 C169 2.632 . S
C407 C203 2.632 . S
C20 C360 2.120 . S
C54 C394 2.120 . S
C88 C224 2.120 . S
C258 C122 2.120 . S
C292 C156 2.121 1_554 S
C326 C190 2.121 1_554 S
C2 C308 1.847 . S
C36 C342 1.847 1_655 S
C376 C70 1.847 1_545 S
C104 C206 1.847 . S
C138 C240 1.847 1_455 S
C172 C274 1.847 1_546 S
