# Generated by pormake.
# Topology swa, (7)-cn, num edge types: 1
# Building blocks:
#     Node 0, Type 0, BuildingBlock: NUHQUE_clean_sbu_2, # of connection points: 7
#     Node 1, Type 0, BuildingBlock: NUHQUE_clean_sbu_2, # of connection points: 7
#     Node 2, Type 0, BuildingBlock: NUHQUE_clean_sbu_2, # of connection points: 7
#     Node 3, Type 0, BuildingBlock: NUHQUE_clean_sbu_2, # of connection points: 7
#     Node 4, Type 0, BuildingBlock: NUHQUE_clean_sbu_2, # of connection points: 7
#     Node 5, Type 0, BuildingBlock: NUHQUE_clean_sbu_2, # of connection points: 7
#     Node 6, Type 0, BuildingBlock: NUHQUE_clean_sbu_2, # of connection points: 7
#     Node 7, Type 0, BuildingBlock: NUHQUE_clean_sbu_2, # of connection points: 7
#     Node 8, Type 0, BuildingBlock: NUHQUE_clean_sbu_2, # of connection points: 7
#     Node 9, Type 0, BuildingBlock: NUHQUE_clean_sbu_2, # of connection points: 7
#     Node 10, Type 0, BuildingBlock: NUHQUE_clean_sbu_2, # of connection points: 7
#     Node 11, Type 0, BuildingBlock: NUHQUE_clean_sbu_2, # of connection points: 7
#     Node 12, Type 0, BuildingBlock: NUHQUE_clean_sbu_2, # of connection points: 7
#     Node 13, Type 0, BuildingBlock: NUHQUE_clean_sbu_2, # of connection points: 7
#     Node 14, Type 0, BuildingBlock: NUHQUE_clean_sbu_2, # of connection points: 7
#     Node 15, Type 0, BuildingBlock: NUHQUE_clean_sbu_2, # of connection points: 7
#     Node 16, Type 0, BuildingBlock: NUHQUE_clean_sbu_2, # of connection points: 7
#     Node 17, Type 0, BuildingBlock: NUHQUE_clean_sbu_2, # of connection points: 7
#     Node 18, Type 0, BuildingBlock: NUHQUE_clean_sbu_2, # of connection points: 7
#     Node 19, Type 0, BuildingBlock: NUHQUE_clean_sbu_2, # of connection points: 7
#     Node 20, Type 0, BuildingBlock: NUHQUE_clean_sbu_2, # of connection points: 7
#     Node 21, Type 0, BuildingBlock: NUHQUE_clean_sbu_2, # of connection points: 7
#     Node 22, Type 0, BuildingBlock: NUHQUE_clean_sbu_2, # of connection points: 7
#     Node 23, Type 0, BuildingBlock: NUHQUE_clean_sbu_2, # of connection points: 7
#     Node 24, Type 0, BuildingBlock: NUHQUE_clean_sbu_2, # of connection points: 7
#     Node 25, Type 0, BuildingBlock: NUHQUE_clean_sbu_2, # of connection points: 7
#     Node 26, Type 0, BuildingBlock: NUHQUE_clean_sbu_2, # of connection points: 7
#     Node 27, Type 0, BuildingBlock: NUHQUE_clean_sbu_2, # of connection points: 7
#     Node 28, Type 0, BuildingBlock: NUHQUE_clean_sbu_2, # of connection points: 7
#     Node 29, Type 0, BuildingBlock: NUHQUE_clean_sbu_2, # of connection points: 7
#     Node 30, Type 0, BuildingBlock: NUHQUE_clean_sbu_2, # of connection points: 7
#     Node 31, Type 0, BuildingBlock: NUHQUE_clean_sbu_2, # of connection points: 7
#     Node 32, Type 0, BuildingBlock: NUHQUE_clean_sbu_2, # of connection points: 7
#     Node 33, Type 0, BuildingBlock: NUHQUE_clean_sbu_2, # of connection points: 7
#     Node 34, Type 0, BuildingBlock: NUHQUE_clean_sbu_2, # of connection points: 7
#     Node 35, Type 0, BuildingBlock: NUHQUE_clean_sbu_2, # of connection points: 7
#     Node 36, Type 0, BuildingBlock: NUHQUE_clean_sbu_2, # of connection points: 7
#     Node 37, Type 0, BuildingBlock: NUHQUE_clean_sbu_2, # of connection points: 7
#     Node 38, Type 0, BuildingBlock: NUHQUE_clean_sbu_2, # of connection points: 7
#     Node 39, Type 0, BuildingBlock: NUHQUE_clean_sbu_2, # of connection points: 7
#     Node 40, Type 0, BuildingBlock: NUHQUE_clean_sbu_2, # of connection points: 7
#     Node 41, Type 0, BuildingBlock: NUHQUE_clean_sbu_2, # of connection points: 7
#     Node 42, Type 0, BuildingBlock: NUHQUE_clean_sbu_2, # of connection points: 7
#     Node 43, Type 0, BuildingBlock: NUHQUE_clean_sbu_2, # of connection points: 7
#     Node 44, Type 0, BuildingBlock: NUHQUE_clean_sbu_2, # of connection points: 7
#     Node 45, Type 0, BuildingBlock: NUHQUE_clean_sbu_2, # of connection points: 7
#     Node 46, Type 0, BuildingBlock: NUHQUE_clean_sbu_2, # of connection points: 7
#     Node 47, Type 0, BuildingBlock: NUHQUE_clean_sbu_2, # of connection points: 7
#     Edge 48, Type (0, 0), BuildingBlock: XIVTED_clean_linker_0, # of connection points: 2
#     Edge 49, Type (0, 0), BuildingBlock: XIVTED_clean_linker_0, # of connection points: 2
#     Edge 50, Type (0, 0), BuildingBlock: XIVTED_clean_linker_0, # of connection points: 2
#     Edge 51, Type (0, 0), BuildingBlock: XIVTED_clean_linker_0, # of connection points: 2
#     Edge 52, Type (0, 0), BuildingBlock: XIVTED_clean_linker_0, # of connection points: 2
#     Edge 53, Type (0, 0), BuildingBlock: XIVTED_clean_linker_0, # of connection points: 2
#     Edge 54, Type (0, 0), BuildingBlock: XIVTED_clean_linker_0, # of connection points: 2
#     Edge 55, Type (0, 0), BuildingBlock: XIVTED_clean_linker_0, # of connection points: 2
#     Edge 56, Type (0, 0), BuildingBlock: XIVTED_clean_linker_0, # of connection points: 2
#     Edge 57, Type (0, 0), BuildingBlock: XIVTED_clean_linker_0, # of connection points: 2
#     Edge 58, Type (0, 0), BuildingBlock: XIVTED_clean_linker_0, # of connection points: 2
#     Edge 59, Type (0, 0), BuildingBlock: XIVTED_clean_linker_0, # of connection points: 2
#     Edge 60, Type (0, 0), BuildingBlock: XIVTED_clean_linker_0, # of connection points: 2
#     Edge 61, Type (0, 0), BuildingBlock: XIVTED_clean_linker_0, # of connection points: 2
#     Edge 62, Type (0, 0), BuildingBlock: XIVTED_clean_linker_0, # of connection points: 2
#     Edge 63, Type (0, 0), BuildingBlock: XIVTED_clean_linker_0, # of connection points: 2
#     Edge 64, Type (0, 0), BuildingBlock: XIVTED_clean_linker_0, # of connection points: 2
#     Edge 65, Type (0, 0), BuildingBlock: XIVTED_clean_linker_0, # of connection points: 2
#     Edge 66, Type (0, 0), BuildingBlock: XIVTED_clean_linker_0, # of connection points: 2
#     Edge 67, Type (0, 0), BuildingBlock: XIVTED_clean_linker_0, # of connection points: 2
#     Edge 68, Type (0, 0), BuildingBlock: XIVTED_clean_linker_0, # of connection points: 2
#     Edge 69, Type (0, 0), BuildingBlock: XIVTED_clean_linker_0, # of connection points: 2
#     Edge 70, Type (0, 0), BuildingBlock: XIVTED_clean_linker_0, # of connection points: 2
#     Edge 71, Type (0, 0), BuildingBlock: XIVTED_clean_linker_0, # of connection points: 2
#     Edge 72, Type (0, 0), BuildingBlock: XIVTED_clean_linker_0, # of connection points: 2
#     Edge 73, Type (0, 0), BuildingBlock: XIVTED_clean_linker_0, # of connection points: 2
#     Edge 74, Type (0, 0), BuildingBlock: XIVTED_clean_linker_0, # of connection points: 2
#     Edge 75, Type (0, 0), BuildingBlock: XIVTED_clean_linker_0, # of connection points: 2
#     Edge 76, Type (0, 0), BuildingBlock: XIVTED_clean_linker_0, # of connection points: 2
#     Edge 77, Type (0, 0), BuildingBlock: XIVTED_clean_linker_0, # of connection points: 2
#     Edge 78, Type (0, 0), BuildingBlock: XIVTED_clean_linker_0, # of connection points: 2
#     Edge 79, Type (0, 0), BuildingBlock: XIVTED_clean_linker_0, # of connection points: 2
#     Edge 80, Type (0, 0), BuildingBlock: XIVTED_clean_linker_0, # of connection points: 2
#     Edge 81, Type (0, 0), BuildingBlock: XIVTED_clean_linker_0, # of connection points: 2
#     Edge 82, Type (0, 0), BuildingBlock: XIVTED_clean_linker_0, # of connection points: 2
#     Edge 83, Type (0, 0), BuildingBlock: XIVTED_clean_linker_0, # of connection points: 2
#     Edge 84, Type (0, 0), BuildingBlock: XIVTED_clean_linker_0, # of connection points: 2
#     Edge 85, Type (0, 0), BuildingBlock: XIVTED_clean_linker_0, # of connection points: 2
#     Edge 86, Type (0, 0), BuildingBlock: XIVTED_clean_linker_0, # of connection points: 2
#     Edge 87, Type (0, 0), BuildingBlock: XIVTED_clean_linker_0, # of connection points: 2
#     Edge 88, Type (0, 0), BuildingBlock: XIVTED_clean_linker_0, # of connection points: 2
#     Edge 89, Type (0, 0), BuildingBlock: XIVTED_clean_linker_0, # of connection points: 2
#     Edge 90, Type (0, 0), BuildingBlock: XIVTED_clean_linker_0, # of connection points: 2
#     Edge 91, Type (0, 0), BuildingBlock: XIVTED_clean_linker_0, # of connection points: 2
#     Edge 92, Type (0, 0), BuildingBlock: XIVTED_clean_linker_0, # of connection points: 2
#     Edge 93, Type (0, 0), BuildingBlock: XIVTED_clean_linker_0, # of connection points: 2
#     Edge 94, Type (0, 0), BuildingBlock: XIVTED_clean_linker_0, # of connection points: 2
#     Edge 95, Type (0, 0), BuildingBlock: XIVTED_clean_linker_0, # of connection points: 2
#     Edge 96, Type (0, 0), BuildingBlock: XIVTED_clean_linker_0, # of connection points: 2
#     Edge 97, Type (0, 0), BuildingBlock: XIVTED_clean_linker_0, # of connection points: 2
#     Edge 98, Type (0, 0), BuildingBlock: XIVTED_clean_linker_0, # of connection points: 2
#     Edge 99, Type (0, 0), BuildingBlock: XIVTED_clean_linker_0, # of connection points: 2
#     Edge 100, Type (0, 0), BuildingBlock: XIVTED_clean_linker_0, # of connection points: 2
#     Edge 101, Type (0, 0), BuildingBlock: XIVTED_clean_linker_0, # of connection points: 2
#     Edge 102, Type (0, 0), BuildingBlock: XIVTED_clean_linker_0, # of connection points: 2
#     Edge 103, Type (0, 0), BuildingBlock: XIVTED_clean_linker_0, # of connection points: 2
#     Edge 104, Type (0, 0), BuildingBlock: XIVTED_clean_linker_0, # of connection points: 2
#     Edge 105, Type (0, 0), BuildingBlock: XIVTED_clean_linker_0, # of connection points: 2
#     Edge 106, Type (0, 0), BuildingBlock: XIVTED_clean_linker_0, # of connection points: 2
#     Edge 107, Type (0, 0), BuildingBlock: XIVTED_clean_linker_0, # of connection points: 2
#     Edge 108, Type (0, 0), BuildingBlock: XIVTED_clean_linker_0, # of connection points: 2
#     Edge 109, Type (0, 0), BuildingBlock: XIVTED_clean_linker_0, # of connection points: 2
#     Edge 110, Type (0, 0), BuildingBlock: XIVTED_clean_linker_0, # of connection points: 2
#     Edge 111, Type (0, 0), BuildingBlock: XIVTED_clean_linker_0, # of connection points: 2
#     Edge 112, Type (0, 0), BuildingBlock: XIVTED_clean_linker_0, # of connection points: 2
#     Edge 113, Type (0, 0), BuildingBlock: XIVTED_clean_linker_0, # of connection points: 2
#     Edge 114, Type (0, 0), BuildingBlock: XIVTED_clean_linker_0, # of connection points: 2
#     Edge 115, Type (0, 0), BuildingBlock: XIVTED_clean_linker_0, # of connection points: 2
#     Edge 116, Type (0, 0), BuildingBlock: XIVTED_clean_linker_0, # of connection points: 2
#     Edge 117, Type (0, 0), BuildingBlock: XIVTED_clean_linker_0, # of connection points: 2
#     Edge 118, Type (0, 0), BuildingBlock: XIVTED_clean_linker_0, # of connection points: 2
#     Edge 119, Type (0, 0), BuildingBlock: XIVTED_clean_linker_0, # of connection points: 2
#     Edge 120, Type (0, 0), BuildingBlock: XIVTED_clean_linker_0, # of connection points: 2
#     Edge 121, Type (0, 0), BuildingBlock: XIVTED_clean_linker_0, # of connection points: 2
#     Edge 122, Type (0, 0), BuildingBlock: XIVTED_clean_linker_0, # of connection points: 2
#     Edge 123, Type (0, 0), BuildingBlock: XIVTED_clean_linker_0, # of connection points: 2
#     Edge 124, Type (0, 0), BuildingBlock: XIVTED_clean_linker_0, # of connection points: 2
#     Edge 125, Type (0, 0), BuildingBlock: XIVTED_clean_linker_0, # of connection points: 2
#     Edge 126, Type (0, 0), BuildingBlock: XIVTED_clean_linker_0, # of connection points: 2
#     Edge 127, Type (0, 0), BuildingBlock: XIVTED_clean_linker_0, # of connection points: 2
#     Edge 128, Type (0, 0), BuildingBlock: XIVTED_clean_linker_0, # of connection points: 2
#     Edge 129, Type (0, 0), BuildingBlock: XIVTED_clean_linker_0, # of connection points: 2
#     Edge 130, Type (0, 0), BuildingBlock: XIVTED_clean_linker_0, # of connection points: 2
#     Edge 131, Type (0, 0), BuildingBlock: XIVTED_clean_linker_0, # of connection points: 2
#     Edge 132, Type (0, 0), BuildingBlock: XIVTED_clean_linker_0, # of connection points: 2
#     Edge 133, Type (0, 0), BuildingBlock: XIVTED_clean_linker_0, # of connection points: 2
#     Edge 134, Type (0, 0), BuildingBlock: XIVTED_clean_linker_0, # of connection points: 2
#     Edge 135, Type (0, 0), BuildingBlock: XIVTED_clean_linker_0, # of connection points: 2
#     Edge 136, Type (0, 0), BuildingBlock: XIVTED_clean_linker_0, # of connection points: 2
#     Edge 137, Type (0, 0), BuildingBlock: XIVTED_clean_linker_0, # of connection points: 2
#     Edge 138, Type (0, 0), BuildingBlock: XIVTED_clean_linker_0, # of connection points: 2
#     Edge 139, Type (0, 0), BuildingBlock: XIVTED_clean_linker_0, # of connection points: 2
#     Edge 140, Type (0, 0), BuildingBlock: XIVTED_clean_linker_0, # of connection points: 2
#     Edge 141, Type (0, 0), BuildingBlock: XIVTED_clean_linker_0, # of connection points: 2
#     Edge 142, Type (0, 0), BuildingBlock: XIVTED_clean_linker_0, # of connection points: 2
#     Edge 143, Type (0, 0), BuildingBlock: XIVTED_clean_linker_0, # of connection points: 2
#     Edge 144, Type (0, 0), BuildingBlock: XIVTED_clean_linker_0, # of connection points: 2
#     Edge 145, Type (0, 0), BuildingBlock: XIVTED_clean_linker_0, # of connection points: 2
#     Edge 146, Type (0, 0), BuildingBlock: XIVTED_clean_linker_0, # of connection points: 2
#     Edge 147, Type (0, 0), BuildingBlock: XIVTED_clean_linker_0, # of connection points: 2
#     Edge 148, Type (0, 0), BuildingBlock: XIVTED_clean_linker_0, # of connection points: 2
#     Edge 149, Type (0, 0), BuildingBlock: XIVTED_clean_linker_0, # of connection points: 2
#     Edge 150, Type (0, 0), BuildingBlock: XIVTED_clean_linker_0, # of connection points: 2
#     Edge 151, Type (0, 0), BuildingBlock: XIVTED_clean_linker_0, # of connection points: 2
#     Edge 152, Type (0, 0), BuildingBlock: XIVTED_clean_linker_0, # of connection points: 2
#     Edge 153, Type (0, 0), BuildingBlock: XIVTED_clean_linker_0, # of connection points: 2
#     Edge 154, Type (0, 0), BuildingBlock: XIVTED_clean_linker_0, # of connection points: 2
#     Edge 155, Type (0, 0), BuildingBlock: XIVTED_clean_linker_0, # of connection points: 2
#     Edge 156, Type (0, 0), BuildingBlock: XIVTED_clean_linker_0, # of connection points: 2
#     Edge 157, Type (0, 0), BuildingBlock: XIVTED_clean_linker_0, # of connection points: 2
#     Edge 158, Type (0, 0), BuildingBlock: XIVTED_clean_linker_0, # of connection points: 2
#     Edge 159, Type (0, 0), BuildingBlock: XIVTED_clean_linker_0, # of connection points: 2
#     Edge 160, Type (0, 0), BuildingBlock: XIVTED_clean_linker_0, # of connection points: 2
#     Edge 161, Type (0, 0), BuildingBlock: XIVTED_clean_linker_0, # of connection points: 2
#     Edge 162, Type (0, 0), BuildingBlock: XIVTED_clean_linker_0, # of connection points: 2
#     Edge 163, Type (0, 0), BuildingBlock: XIVTED_clean_linker_0, # of connection points: 2
#     Edge 164, Type (0, 0), BuildingBlock: XIVTED_clean_linker_0, # of connection points: 2
#     Edge 165, Type (0, 0), BuildingBlock: XIVTED_clean_linker_0, # of connection points: 2
#     Edge 166, Type (0, 0), BuildingBlock: XIVTED_clean_linker_0, # of connection points: 2
#     Edge 167, Type (0, 0), BuildingBlock: XIVTED_clean_linker_0, # of connection points: 2
#     Edge 168, Type (0, 0), BuildingBlock: XIVTED_clean_linker_0, # of connection points: 2
#     Edge 169, Type (0, 0), BuildingBlock: XIVTED_clean_linker_0, # of connection points: 2
#     Edge 170, Type (0, 0), BuildingBlock: XIVTED_clean_linker_0, # of connection points: 2
#     Edge 171, Type (0, 0), BuildingBlock: XIVTED_clean_linker_0, # of connection points: 2
#     Edge 172, Type (0, 0), BuildingBlock: XIVTED_clean_linker_0, # of connection points: 2
#     Edge 173, Type (0, 0), BuildingBlock: XIVTED_clean_linker_0, # of connection points: 2
#     Edge 174, Type (0, 0), BuildingBlock: XIVTED_clean_linker_0, # of connection points: 2
#     Edge 175, Type (0, 0), BuildingBlock: XIVTED_clean_linker_0, # of connection points: 2
#     Edge 176, Type (0, 0), BuildingBlock: XIVTED_clean_linker_0, # of connection points: 2
#     Edge 177, Type (0, 0), BuildingBlock: XIVTED_clean_linker_0, # of connection points: 2
#     Edge 178, Type (0, 0), BuildingBlock: XIVTED_clean_linker_0, # of connection points: 2
#     Edge 179, Type (0, 0), BuildingBlock: XIVTED_clean_linker_0, # of connection points: 2
#     Edge 180, Type (0, 0), BuildingBlock: XIVTED_clean_linker_0, # of connection points: 2
#     Edge 181, Type (0, 0), BuildingBlock: XIVTED_clean_linker_0, # of connection points: 2
#     Edge 182, Type (0, 0), BuildingBlock: XIVTED_clean_linker_0, # of connection points: 2
#     Edge 183, Type (0, 0), BuildingBlock: XIVTED_clean_linker_0, # of connection points: 2
#     Edge 184, Type (0, 0), BuildingBlock: XIVTED_clean_linker_0, # of connection points: 2
#     Edge 185, Type (0, 0), BuildingBlock: XIVTED_clean_linker_0, # of connection points: 2
#     Edge 186, Type (0, 0), BuildingBlock: XIVTED_clean_linker_0, # of connection points: 2
#     Edge 187, Type (0, 0), BuildingBlock: XIVTED_clean_linker_0, # of connection points: 2
#     Edge 188, Type (0, 0), BuildingBlock: XIVTED_clean_linker_0, # of connection points: 2
#     Edge 189, Type (0, 0), BuildingBlock: XIVTED_clean_linker_0, # of connection points: 2
#     Edge 190, Type (0, 0), BuildingBlock: XIVTED_clean_linker_0, # of connection points: 2
#     Edge 191, Type (0, 0), BuildingBlock: XIVTED_clean_linker_0, # of connection points: 2
#     Edge 192, Type (0, 0), BuildingBlock: XIVTED_clean_linker_0, # of connection points: 2
#     Edge 193, Type (0, 0), BuildingBlock: XIVTED_clean_linker_0, # of connection points: 2
#     Edge 194, Type (0, 0), BuildingBlock: XIVTED_clean_linker_0, # of connection points: 2
#     Edge 195, Type (0, 0), BuildingBlock: XIVTED_clean_linker_0, # of connection points: 2
#     Edge 196, Type (0, 0), BuildingBlock: XIVTED_clean_linker_0, # of connection points: 2
#     Edge 197, Type (0, 0), BuildingBlock: XIVTED_clean_linker_0, # of connection points: 2
#     Edge 198, Type (0, 0), BuildingBlock: XIVTED_clean_linker_0, # of connection points: 2
#     Edge 199, Type (0, 0), BuildingBlock: XIVTED_clean_linker_0, # of connection points: 2
#     Edge 200, Type (0, 0), BuildingBlock: XIVTED_clean_linker_0, # of connection points: 2
#     Edge 201, Type (0, 0), BuildingBlock: XIVTED_clean_linker_0, # of connection points: 2
#     Edge 202, Type (0, 0), BuildingBlock: XIVTED_clean_linker_0, # of connection points: 2
#     Edge 203, Type (0, 0), BuildingBlock: XIVTED_clean_linker_0, # of connection points: 2
#     Edge 204, Type (0, 0), BuildingBlock: XIVTED_clean_linker_0, # of connection points: 2
#     Edge 205, Type (0, 0), BuildingBlock: XIVTED_clean_linker_0, # of connection points: 2
#     Edge 206, Type (0, 0), BuildingBlock: XIVTED_clean_linker_0, # of connection points: 2
#     Edge 207, Type (0, 0), BuildingBlock: XIVTED_clean_linker_0, # of connection points: 2
#     Edge 208, Type (0, 0), BuildingBlock: XIVTED_clean_linker_0, # of connection points: 2
#     Edge 209, Type (0, 0), BuildingBlock: XIVTED_clean_linker_0, # of connection points: 2
#     Edge 210, Type (0, 0), BuildingBlock: XIVTED_clean_linker_0, # of connection points: 2
#     Edge 211, Type (0, 0), BuildingBlock: XIVTED_clean_linker_0, # of connection points: 2
#     Edge 212, Type (0, 0), BuildingBlock: XIVTED_clean_linker_0, # of connection points: 2
#     Edge 213, Type (0, 0), BuildingBlock: XIVTED_clean_linker_0, # of connection points: 2
#     Edge 214, Type (0, 0), BuildingBlock: XIVTED_clean_linker_0, # of connection points: 2
#     Edge 215, Type (0, 0), BuildingBlock: XIVTED_clean_linker_0, # of connection points: 2
# Relax obj value: 0.245
# Max RMSD: 0.240
# Mean RMSD: 0.240
data_MOF--net-swa--node1-NUHQUE_clean_sbu_2--edge1-XIVTED_clean_linker_0
_symmetry_space_group_name_H-M    P1
_symmetry_Int_Tables_number       1
_symmetry_cell_setting            triclinic
loop_
_symmetry_equiv_pos_as_xyz
'x, y, z'
_cell_length_a     71.035507
_cell_length_b     71.099307
_cell_length_c     71.032574
_cell_angle_alpha  89.9894
_cell_angle_beta   90.008132
_cell_angle_gamma 89.982055
loop_
_atom_site_label
_atom_site_type_symbol
_atom_site_fract_x
_atom_site_fract_y
_atom_site_fract_z
_atom_type_partial_charge
O0 O 0.11779 0.63493 0.13166 0.0
Tb1 Tb 0.09263 0.64492 0.11731 0.0
Eu2 Eu 0.08274 0.65598 0.16644 0.0
C3 C 0.13321 0.64488 0.12931 0.0
O4 O 0.1324 0.66011 0.11888 0.0
C5 C 0.10258 0.68239 0.13691 0.0
O6 O 0.05841 0.67647 0.16389 0.0
C7 C 0.09245 0.65081 0.20131 0.0
C8 C 0.05101 0.68006 0.14729 0.0
O9 O 0.05755 0.67116 0.13253 0.0
C10 C 0.05836 0.62801 0.14024 0.0
C11 C 0.08675 0.6404 0.21832 0.0
C12 C 0.10057 0.63473 0.23133 0.0
C13 C 0.09535 0.62612 0.24837 0.0
C14 C 0.0762 0.62318 0.25217 0.0
C15 C 0.06227 0.62937 0.23965 0.0
C16 C 0.0676 0.63772 0.22258 0.0
O17 O 0.09374 0.67482 0.12262 0.0
O18 O 0.10538 0.67311 0.1526 0.0
O19 O 0.0943 0.65776 0.08948 0.0
O20 O 0.09719 0.62817 0.09169 0.0
C21 C 0.09688 0.64235 0.08008 0.0
O22 O 0.06738 0.63002 0.15634 0.0
O23 O 0.06466 0.63493 0.12426 0.0
O24 O 0.08111 0.66431 0.19572 0.0
O25 O 0.09958 0.64096 0.18734 0.0
H26 H 0.11529 0.63754 0.22847 0.0
H27 H 0.07205 0.61757 0.26575 0.0
H28 H 0.05685 0.64275 0.21297 0.0
O29 O 0.86331 0.11542 0.13156 0.0
Tb30 Tb 0.85406 0.09067 0.11627 0.0
Eu31 Eu 0.84318 0.08377 0.165 0.0
C32 C 0.85402 0.13111 0.12853 0.0
O33 O 0.83961 0.13086 0.11695 0.0
C34 C 0.81628 0.10158 0.13465 0.0
O35 O 0.8226 0.05961 0.16352 0.0
C36 C 0.84792 0.09512 0.19942 0.0
C37 C 0.82038 0.05065 0.14751 0.0
O38 O 0.83009 0.056 0.13278 0.0
C39 C 0.8722 0.05781 0.1404 0.0
C40 C 0.85766 0.09022 0.21712 0.0
C41 C 0.86571 0.10467 0.22805 0.0
C42 C 0.874 0.10055 0.24551 0.0
C43 C 0.87415 0.08193 0.25191 0.0
C44 C 0.86475 0.06763 0.24206 0.0
C45 C 0.8571 0.07173 0.22428 0.0
O46 O 0.82398 0.0922 0.12078 0.0
O47 O 0.8257 0.10541 0.15003 0.0
O48 O 0.87084 0.10008 0.09204 0.0
O49 O 0.84368 0.0887 0.08738 0.0
C50 C 0.85838 0.09588 0.07928 0.0
O51 O 0.86865 0.06651 0.15645 0.0
O52 O 0.866 0.06375 0.12396 0.0
O53 O 0.83417 0.08395 0.1941 0.0
O54 O 0.85832 0.10122 0.18533 0.0
H55 H 0.86501 0.11913 0.22326 0.0
H56 H 0.88038 0.07888 0.2655 0.0
H57 H 0.84979 0.06084 0.21652 0.0
O58 O 0.38605 0.87328 0.12389 0.0
Tb59 Tb 0.41075 0.85707 0.1154 0.0
Eu60 Eu 0.42052 0.84624 0.16468 0.0
C61 C 0.3758 0.86972 0.13889 0.0
O62 O 0.38232 0.85834 0.15182 0.0
C63 C 0.3963 0.81959 0.13587 0.0
O64 O 0.4457 0.82724 0.16159 0.0
C65 C 0.41236 0.85145 0.19982 0.0
C66 C 0.44978 0.81978 0.14515 0.0
O67 O 0.43957 0.82426 0.13044 0.0
C68 C 0.44491 0.87238 0.13873 0.0
C69 C 0.41737 0.86255 0.21659 0.0
C70 C 0.40284 0.86918 0.22821 0.0
C71 C 0.40687 0.87699 0.24592 0.0
C72 C 0.42576 0.87877 0.25154 0.0
C73 C 0.44043 0.87197 0.24021 0.0
C74 C 0.43617 0.86412 0.22259 0.0
O75 O 0.4014 0.82848 0.12045 0.0
O76 O 0.39949 0.82568 0.15304 0.0
O77 O 0.40966 0.87318 0.08908 0.0
O78 O 0.41277 0.84357 0.08786 0.0
C79 C 0.41138 0.8588 0.07791 0.0
O80 O 0.43428 0.87263 0.15382 0.0
O81 O 0.43956 0.86334 0.12356 0.0
O82 O 0.42481 0.8391 0.19393 0.0
O83 O 0.40338 0.86011 0.18612 0.0
H84 H 0.38832 0.86717 0.22396 0.0
H85 H 0.42897 0.88364 0.26564 0.0
H86 H 0.44743 0.85841 0.21401 0.0
O87 O 0.63789 0.38445 0.12898 0.0
Tb88 Tb 0.64751 0.40941 0.11415 0.0
Eu89 Eu 0.65786 0.41784 0.16317 0.0
C90 C 0.64742 0.36889 0.12596 0.0
O91 O 0.66208 0.36947 0.11471 0.0
C92 C 0.6848 0.39841 0.13361 0.0
O93 O 0.67834 0.44216 0.16146 0.0
C94 C 0.65247 0.40741 0.1978 0.0
C95 C 0.68241 0.4497 0.14504 0.0
O96 O 0.67393 0.44333 0.12997 0.0
C97 C 0.63017 0.44323 0.13739 0.0
C98 C 0.64284 0.4128 0.2154 0.0
C99 C 0.63556 0.39862 0.22719 0.0
C100 C 0.62818 0.40319 0.24498 0.0
C101 C 0.62845 0.42197 0.25092 0.0
C102 C 0.6362 0.43611 0.23963 0.0
C103 C 0.64289 0.43162 0.22162 0.0
O104 O 0.67746 0.4072 0.11915 0.0
O105 O 0.67513 0.39542 0.14903 0.0
O106 O 0.6586 0.4098 0.08547 0.0
O107 O 0.63021 0.40166 0.08971 0.0
C108 C 0.64331 0.40425 0.07716 0.0
O109 O 0.63224 0.43404 0.15339 0.0
O110 O 0.63718 0.43718 0.12134 0.0
O111 O 0.6665 0.41818 0.19237 0.0
O112 O 0.64204 0.40129 0.18376 0.0
H113 H 0.63615 0.38403 0.22278 0.0
H114 H 0.62361 0.42551 0.26497 0.0
H115 H 0.64916 0.44253 0.21301 0.0
O116 O 0.11872 0.8733 0.37521 0.0
Tb117 Tb 0.09245 0.85968 0.38334 0.0
Eu118 Eu 0.0847 0.84326 0.33414 0.0
C119 C 0.12802 0.87073 0.35943 0.0
O120 O 0.12037 0.86111 0.34573 0.0
C121 C 0.10297 0.82052 0.36734 0.0
O122 O 0.06085 0.8223 0.33665 0.0
C123 C 0.0957 0.84647 0.29939 0.0
C124 C 0.05165 0.82053 0.35263 0.0
O125 O 0.05598 0.83162 0.36671 0.0
C126 C 0.05828 0.87311 0.35724 0.0
C127 C 0.09026 0.85486 0.28118 0.0
C128 C 0.1043 0.8628 0.26963 0.0
C129 C 0.09984 0.86933 0.25149 0.0
C130 C 0.08132 0.86756 0.24497 0.0
C131 C 0.06737 0.85918 0.25604 0.0
C132 C 0.0717 0.85329 0.27435 0.0
O133 O 0.09186 0.8296 0.37886 0.0
O134 O 0.10665 0.82727 0.3506 0.0
O135 O 0.08839 0.8749 0.41 0.0
O136 O 0.09653 0.84626 0.41062 0.0
C137 C 0.09246 0.86075 0.42089 0.0
O138 O 0.06693 0.86876 0.34136 0.0
O139 O 0.06491 0.86895 0.37407 0.0
O140 O 0.08533 0.83248 0.30562 0.0
O141 O 0.1012 0.85803 0.31275 0.0
H142 H 0.11874 0.86342 0.27455 0.0
H143 H 0.07792 0.87165 0.23064 0.0
H144 H 0.06093 0.84653 0.28279 0.0
O145 O 0.63684 0.11542 0.36841 0.0
Tb146 Tb 0.64385 0.09042 0.38464 0.0
Eu147 Eu 0.65654 0.08349 0.33652 0.0
C148 C 0.62002 0.12313 0.36896 0.0
O149 O 0.60623 0.11401 0.37723 0.0
C150 C 0.68142 0.10268 0.36768 0.0
O151 O 0.67822 0.06028 0.33831 0.0
C152 C 0.65206 0.09451 0.30197 0.0
C153 C 0.68127 0.05167 0.35441 0.0
O154 O 0.67109 0.0563 0.36909 0.0
C155 C 0.62798 0.05633 0.36033 0.0
C156 C 0.64372 0.08884 0.28381 0.0
C157 C 0.6357 0.10273 0.27215 0.0
C158 C 0.62961 0.09819 0.25388 0.0
C159 C 0.63187 0.07975 0.24733 0.0
C160 C 0.64039 0.06595 0.2585 0.0
C161 C 0.64582 0.07035 0.27696 0.0
O162 O 0.6739 0.09253 0.38106 0.0
O163 O 0.67226 0.10615 0.35205 0.0
O164 O 0.62698 0.09974 0.40888 0.0
O165 O 0.65428 0.08857 0.41347 0.0
C166 C 0.63955 0.09566 0.42161 0.0
O167 O 0.63194 0.06477 0.34425 0.0
O168 O 0.63306 0.06297 0.37689 0.0
O169 O 0.66662 0.0847 0.30782 0.0
O170 O 0.64054 0.09948 0.31561 0.0
H171 H 0.63478 0.11715 0.27704 0.0
H172 H 0.62809 0.07634 0.23293 0.0
H173 H 0.65271 0.05974 0.28548 0.0
O174 O 0.37976 0.62566 0.37482 0.0
Tb175 Tb 0.40375 0.64172 0.38534 0.0
Eu176 Eu 0.41495 0.65361 0.33601 0.0
C177 C 0.36989 0.63001 0.35978 0.0
O178 O 0.37642 0.64246 0.3479 0.0
C179 C 0.39086 0.68011 0.36528 0.0
O180 O 0.44089 0.67151 0.33953 0.0
C181 C 0.40692 0.64931 0.30061 0.0
C182 C 0.44484 0.67888 0.35604 0.0
O183 O 0.43406 0.67486 0.37049 0.0
C184 C 0.43849 0.62688 0.36239 0.0
C185 C 0.41271 0.6393 0.28338 0.0
C186 C 0.39888 0.63385 0.27028 0.0
C187 C 0.40406 0.62651 0.25264 0.0
C188 C 0.42326 0.62445 0.24842 0.0
C189 C 0.43719 0.63018 0.26117 0.0
C190 C 0.43186 0.63736 0.27876 0.0
O191 O 0.39503 0.67061 0.38064 0.0
O192 O 0.39436 0.67438 0.34804 0.0
O193 O 0.39986 0.62483 0.41096 0.0
O194 O 0.40527 0.65396 0.41358 0.0
C195 C 0.40196 0.63858 0.42284 0.0
O196 O 0.42811 0.62697 0.34709 0.0
O197 O 0.43273 0.63524 0.37784 0.0
O198 O 0.41866 0.66207 0.30703 0.0
O199 O 0.39862 0.63954 0.31398 0.0
H200 H 0.38413 0.63604 0.27355 0.0
H201 H 0.42743 0.6199 0.23447 0.0
H202 H 0.4426 0.64214 0.28849 0.0
O203 O 0.86141 0.38329 0.36827 0.0
Tb204 Tb 0.85206 0.40877 0.3823 0.0
Eu205 Eu 0.84166 0.41635 0.33338 0.0
C206 C 0.85169 0.36794 0.37168 0.0
O207 O 0.83698 0.36902 0.38282 0.0
C208 C 0.81466 0.39796 0.36319 0.0
O209 O 0.8203 0.43986 0.33528 0.0
C210 C 0.84673 0.40545 0.2989 0.0
C211 C 0.81715 0.44806 0.35157 0.0
O212 O 0.82722 0.44301 0.36617 0.0
C213 C 0.87042 0.44172 0.35845 0.0
C214 C 0.8572 0.41022 0.28158 0.0
C215 C 0.86619 0.39577 0.27142 0.0
C216 C 0.87504 0.39965 0.25417 0.0
C217 C 0.87488 0.41812 0.24731 0.0
C218 C 0.86478 0.4324 0.25645 0.0
C219 C 0.85647 0.42851 0.27396 0.0
O220 O 0.82208 0.40723 0.37729 0.0
O221 O 0.82437 0.3943 0.34795 0.0
O222 O 0.86896 0.40183 0.40723 0.0
O223 O 0.84049 0.41005 0.41074 0.0
C224 C 0.85566 0.40487 0.41946 0.0
O225 O 0.86725 0.43307 0.34233 0.0
O226 O 0.86359 0.43588 0.37466 0.0
O227 O 0.83334 0.41712 0.30409 0.0
O228 O 0.85643 0.39856 0.31311 0.0
H229 H 0.86573 0.38143 0.27661 0.0
H230 H 0.88148 0.42108 0.23387 0.0
H231 H 0.84855 0.4394 0.2811 0.0
O232 O 0.12496 0.11507 0.63079 0.0
Tb233 Tb 0.11418 0.09241 0.64851 0.0
Eu234 Eu 0.16305 0.081 0.65819 0.0
C235 C 0.13866 0.12643 0.63586 0.0
O236 O 0.14895 0.12221 0.65054 0.0
C237 C 0.13529 0.10558 0.68625 0.0
O238 O 0.16072 0.0549 0.67608 0.0
C239 C 0.19786 0.08979 0.65189 0.0
C240 C 0.14485 0.05118 0.68488 0.0
O241 O 0.13033 0.06231 0.6823 0.0
C242 C 0.13572 0.05803 0.63273 0.0
C243 C 0.21413 0.08544 0.63979 0.0
C244 C 0.22658 0.10001 0.63503 0.0
C245 C 0.24387 0.09604 0.6263 0.0
C246 C 0.2483 0.07729 0.62191 0.0
C247 C 0.23616 0.06252 0.62686 0.0
C248 C 0.21889 0.06673 0.63548 0.0
O249 O 0.11966 0.10299 0.67661 0.0
O250 O 0.15212 0.10018 0.68077 0.0
O251 O 0.08842 0.09521 0.63168 0.0
O252 O 0.08612 0.09131 0.66114 0.0
C253 C 0.07672 0.09359 0.64565 0.0
O254 O 0.15083 0.06854 0.63178 0.0
O255 O 0.1214 0.06328 0.64308 0.0
O256 O 0.19261 0.07658 0.66373 0.0
O257 O 0.18372 0.09913 0.64438 0.0
H258 H 0.22328 0.11434 0.63912 0.0
H259 H 0.26214 0.074 0.61638 0.0
H260 H 0.20963 0.05538 0.63973 0.0
O261 O 0.38511 0.13188 0.63735 0.0
Tb262 Tb 0.41114 0.11793 0.64527 0.0
Eu263 Eu 0.41878 0.16631 0.65753 0.0
C264 C 0.37041 0.12905 0.64822 0.0
O265 O 0.37245 0.1187 0.6634 0.0
C266 C 0.40425 0.13496 0.6839 0.0
O267 O 0.44254 0.16502 0.67867 0.0
C268 C 0.40751 0.2007 0.65289 0.0
C269 C 0.45291 0.14976 0.68001 0.0
O270 O 0.45015 0.136 0.66805 0.0
C271 C 0.44417 0.14209 0.62722 0.0
C272 C 0.41338 0.21794 0.64288 0.0
C273 C 0.39958 0.23016 0.63563 0.0
C274 C 0.40477 0.24733 0.6273 0.0
C275 C 0.42393 0.25205 0.62619 0.0
C276 C 0.43781 0.24028 0.63378 0.0
C277 C 0.4325 0.22312 0.64196 0.0
O278 O 0.41511 0.12315 0.67491 0.0
O279 O 0.39821 0.15013 0.67535 0.0
O280 O 0.40791 0.09052 0.65872 0.0
O281 O 0.40748 0.09191 0.62894 0.0
C282 C 0.40638 0.08073 0.64342 0.0
O283 O 0.43648 0.15826 0.63223 0.0
O284 O 0.43769 0.12552 0.63245 0.0
O285 O 0.4184 0.19528 0.66683 0.0
O286 O 0.40116 0.18665 0.6426 0.0
H287 H 0.38481 0.22654 0.63695 0.0
H288 H 0.42799 0.2657 0.62074 0.0
H289 H 0.4432 0.21409 0.64803 0.0
O290 O 0.37414 0.38382 0.62897 0.0
Tb291 Tb 0.38526 0.40659 0.64634 0.0
Eu292 Eu 0.33597 0.41737 0.65755 0.0
C293 C 0.35961 0.37331 0.63358 0.0
O294 O 0.34867 0.37855 0.64743 0.0
C295 C 0.36492 0.39276 0.68434 0.0
O296 O 0.3382 0.44339 0.6755 0.0
C297 C 0.301 0.40851 0.65173 0.0
C298 C 0.35421 0.44726 0.68395 0.0
O299 O 0.36879 0.43631 0.68098 0.0
C300 C 0.36288 0.44172 0.63221 0.0
C301 C 0.28417 0.41444 0.64113 0.0
C302 C 0.27141 0.40074 0.63468 0.0
C303 C 0.25412 0.40609 0.62661 0.0
C304 C 0.24992 0.42531 0.62495 0.0
C305 C 0.26232 0.4391 0.63166 0.0
C306 C 0.27957 0.43361 0.6395 0.0
O307 O 0.38036 0.3963 0.67469 0.0
O308 O 0.34781 0.39739 0.679 0.0
O309 O 0.41067 0.40299 0.62908 0.0
O310 O 0.41365 0.40738 0.65837 0.0
C311 C 0.42272 0.40451 0.64277 0.0
O312 O 0.34761 0.43135 0.63156 0.0
O313 O 0.37795 0.43584 0.64115 0.0
O314 O 0.30664 0.41992 0.66515 0.0
O315 O 0.31494 0.40083 0.64224 0.0
H316 H 0.27465 0.38596 0.63658 0.0
H317 H 0.23617 0.42958 0.61985 0.0
H318 H 0.28903 0.44424 0.64499 0.0
O319 O 0.11587 0.37312 0.62912 0.0
Tb320 Tb 0.09265 0.383 0.64667 0.0
Eu321 Eu 0.08153 0.334 0.65698 0.0
C322 C 0.12712 0.35913 0.63367 0.0
O323 O 0.12236 0.34778 0.64737 0.0
C324 C 0.10665 0.3619 0.68413 0.0
O325 O 0.05582 0.33758 0.67527 0.0
C326 C 0.08931 0.29882 0.65133 0.0
C327 C 0.05246 0.35394 0.68324 0.0
O328 O 0.06381 0.36808 0.67981 0.0
C329 C 0.05795 0.36099 0.63134 0.0
C330 C 0.08368 0.28231 0.64012 0.0
C331 C 0.09763 0.26984 0.63364 0.0
C332 C 0.09263 0.25268 0.62515 0.0
C333 C 0.07346 0.24835 0.62297 0.0
C334 C 0.0594 0.26049 0.62964 0.0
C335 C 0.06458 0.27759 0.63796 0.0
O336 O 0.10297 0.37755 0.67491 0.0
O337 O 0.10209 0.34495 0.67833 0.0
O338 O 0.09499 0.40899 0.63016 0.0
O339 O 0.09134 0.41086 0.65968 0.0
C340 C 0.09338 0.42048 0.64429 0.0
O341 O 0.06835 0.34576 0.63065 0.0
O342 O 0.06351 0.37568 0.641 0.0
O343 O 0.07714 0.30476 0.66396 0.0
O344 O 0.09827 0.31251 0.64264 0.0
H345 H 0.11235 0.27316 0.63593 0.0
H346 H 0.06943 0.23467 0.61758 0.0
H347 H 0.05373 0.28681 0.64347 0.0
O348 O 0.12665 0.3833 0.87264 0.0
Tb349 Tb 0.11531 0.40471 0.85379 0.0
Eu350 Eu 0.16424 0.41596 0.84425 0.0
C351 C 0.14032 0.37166 0.8681 0.0
O352 O 0.15041 0.37497 0.85304 0.0
C353 C 0.13678 0.39047 0.81667 0.0
O354 O 0.16185 0.44173 0.82596 0.0
C355 C 0.19917 0.40779 0.85108 0.0
C356 C 0.14604 0.44491 0.81687 0.0
O357 O 0.13184 0.43334 0.81926 0.0
C358 C 0.13617 0.44041 0.86796 0.0
C359 C 0.21569 0.41384 0.86211 0.0
C360 C 0.22856 0.40023 0.86853 0.0
C361 C 0.24577 0.40567 0.87671 0.0
C362 C 0.24972 0.42493 0.87862 0.0
C363 C 0.23719 0.43865 0.87197 0.0
C364 C 0.22006 0.43304 0.86395 0.0
O365 O 0.12107 0.3933 0.82608 0.0
O366 O 0.15357 0.39593 0.82223 0.0
O367 O 0.08959 0.40129 0.87059 0.0
O368 O 0.08719 0.4051 0.84115 0.0
C369 C 0.07783 0.40256 0.85663 0.0
O370 O 0.15161 0.43038 0.86954 0.0
O371 O 0.12192 0.43419 0.85803 0.0
O372 O 0.19371 0.41924 0.83762 0.0
O373 O 0.18512 0.39973 0.86011 0.0
H374 H 0.22552 0.38543 0.86643 0.0
H375 H 0.26339 0.4293 0.88378 0.0
H376 H 0.21054 0.44362 0.85842 0.0
O377 O 0.11552 0.12841 0.87181 0.0
Tb378 Tb 0.0916 0.11853 0.85524 0.0
Eu379 Eu 0.08022 0.16791 0.8448 0.0
C380 C 0.1259 0.14306 0.86734 0.0
O381 O 0.11985 0.15487 0.85457 0.0
C382 C 0.10458 0.13958 0.81736 0.0
O383 O 0.05434 0.16519 0.82655 0.0
C384 C 0.08879 0.20277 0.85122 0.0
C385 C 0.05061 0.14896 0.81847 0.0
O386 O 0.06165 0.13456 0.82191 0.0
C387 C 0.0569 0.14071 0.87048 0.0
C388 C 0.08366 0.21885 0.8633 0.0
C389 C 0.09794 0.23054 0.87042 0.0
C390 C 0.09339 0.2472 0.88007 0.0
C391 C 0.07438 0.25192 0.88264 0.0
C392 C 0.06 0.24073 0.87509 0.0
C393 C 0.0647 0.22397 0.8658 0.0
O394 O 0.10093 0.124 0.8267 0.0
O395 O 0.10026 0.15663 0.82309 0.0
O396 O 0.09348 0.09258 0.87189 0.0
O397 O 0.09096 0.09065 0.84225 0.0
C398 C 0.09249 0.08105 0.85771 0.0
O399 O 0.06731 0.15592 0.87114 0.0
O400 O 0.0625 0.12592 0.86099 0.0
O401 O 0.07622 0.19743 0.83873 0.0
O402 O 0.0978 0.18867 0.85916 0.0
H403 H 0.11257 0.22709 0.86776 0.0
H404 H 0.07079 0.26536 0.88892 0.0
H405 H 0.05361 0.21543 0.85973 0.0
O406 O 0.36755 0.11715 0.86486 0.0
Tb407 Tb 0.38348 0.09319 0.85449 0.0
Eu408 Eu 0.33583 0.08454 0.84113 0.0
C409 C 0.36805 0.13274 0.85491 0.0
O410 O 0.37733 0.13279 0.83893 0.0
C411 C 0.36757 0.10007 0.8153 0.0
O412 O 0.33595 0.0607 0.82003 0.0
C413 C 0.30187 0.09667 0.84692 0.0
C414 C 0.35138 0.0508 0.81744 0.0
O415 O 0.36612 0.05433 0.82796 0.0
C416 C 0.36071 0.05816 0.86969 0.0
C417 C 0.28459 0.09084 0.85681 0.0
C418 C 0.27162 0.10458 0.86276 0.0
C419 C 0.25432 0.09926 0.87077 0.0
C420 C 0.25025 0.08006 0.87283 0.0
C421 C 0.26284 0.0662 0.86661 0.0
C422 C 0.28011 0.07166 0.85876 0.0
O423 O 0.3796 0.08971 0.82458 0.0
O424 O 0.35182 0.10528 0.82334 0.0
O425 O 0.41037 0.10166 0.8424 0.0
O426 O 0.40952 0.09408 0.87125 0.0
C427 C 0.42037 0.09956 0.85752 0.0
O428 O 0.34435 0.06612 0.86579 0.0
O429 O 0.37702 0.06521 0.86444 0.0
O430 O 0.30671 0.08629 0.8324 0.0
O431 O 0.31627 0.10188 0.85736 0.0
H432 H 0.27478 0.11935 0.86066 0.0
H433 H 0.23652 0.07582 0.87798 0.0
H434 H 0.2898 0.06101 0.85369 0.0
O435 O 0.38462 0.37295 0.87211 0.0
Tb436 Tb 0.40758 0.38292 0.85428 0.0
Eu437 Eu 0.41822 0.33384 0.84552 0.0
C438 C 0.37301 0.35943 0.86711 0.0
O439 O 0.37727 0.34877 0.8527 0.0
C440 C 0.39411 0.36151 0.81679 0.0
O441 O 0.44503 0.33572 0.82876 0.0
C442 C 0.409 0.29916 0.8518 0.0
C443 C 0.44813 0.35056 0.81815 0.0
O444 O 0.43593 0.36442 0.81828 0.0
C445 C 0.44205 0.36117 0.87002 0.0
C446 C 0.41282 0.28232 0.86335 0.0
C447 C 0.39748 0.27241 0.87094 0.0
C448 C 0.4001 0.25476 0.87943 0.0
C449 C 0.41844 0.24759 0.88103 0.0
C450 C 0.4338 0.25657 0.87238 0.0
C451 C 0.43095 0.27428 0.86405 0.0
O452 O 0.39655 0.37713 0.82643 0.0
O453 O 0.39963 0.34472 0.82231 0.0
O454 O 0.40549 0.4093 0.87021 0.0
O455 O 0.409 0.41044 0.84063 0.0
C456 C 0.40711 0.42044 0.85578 0.0
O457 O 0.43134 0.34623 0.87153 0.0
O458 O 0.43672 0.3753 0.85943 0.0
O459 O 0.42208 0.30428 0.83976 0.0
O460 O 0.40011 0.31339 0.8597 0.0
H461 H 0.38334 0.27788 0.86914 0.0
H462 H 0.4205 0.23396 0.8875 0.0
H463 H 0.44252 0.28119 0.85693 0.0
O464 O 0.62821 0.12417 0.11799 0.0
Tb465 Tb 0.64522 0.11286 0.09507 0.0
Eu466 Eu 0.65651 0.16193 0.08277 0.0
C467 C 0.63249 0.13933 0.12768 0.0
O468 O 0.64587 0.15044 0.12164 0.0
C469 C 0.68343 0.13369 0.10786 0.0
O470 O 0.67512 0.15782 0.05745 0.0
C471 C 0.65167 0.19743 0.08971 0.0
C472 C 0.68178 0.14106 0.05337 0.0
O473 O 0.67698 0.12658 0.06376 0.0
C474 C 0.63009 0.1348 0.06007 0.0
C475 C 0.6403 0.21414 0.08489 0.0
C476 C 0.63429 0.22609 0.09947 0.0
C477 C 0.62594 0.24355 0.09539 0.0
C478 C 0.62318 0.24867 0.07649 0.0
C479 C 0.62955 0.23717 0.06179 0.0
C480 C 0.63787 0.21977 0.06604 0.0
O481 O 0.67368 0.11824 0.1048 0.0
O482 O 0.6781 0.15074 0.10301 0.0
O483 O 0.62896 0.08714 0.10042 0.0
O484 O 0.65778 0.0848 0.0933 0.0
C485 C 0.64274 0.07543 0.09767 0.0
O486 O 0.62981 0.15007 0.07045 0.0
O487 O 0.63869 0.11957 0.06597 0.0
O488 O 0.66309 0.19098 0.07667 0.0
O489 O 0.64371 0.18413 0.09985 0.0
H490 H 0.63708 0.22227 0.11399 0.0
H491 H 0.61786 0.26258 0.07319 0.0
H492 H 0.64323 0.2111 0.0547 0.0
O493 O 0.62736 0.37206 0.38127 0.0
Tb494 Tb 0.64406 0.38355 0.4044 0.0
Eu495 Eu 0.65578 0.33422 0.4156 0.0
C496 C 0.63276 0.35788 0.37065 0.0
O497 O 0.64698 0.34749 0.37602 0.0
C498 C 0.68277 0.36376 0.39174 0.0
O499 O 0.6736 0.33603 0.4418 0.0
C500 C 0.65041 0.29948 0.40562 0.0
C501 C 0.68178 0.35209 0.44596 0.0
O502 O 0.67843 0.3668 0.43529 0.0
C503 C 0.62997 0.36109 0.43978 0.0
C504 C 0.64028 0.282 0.41054 0.0
C505 C 0.6334 0.27031 0.39604 0.0
C506 C 0.62607 0.25244 0.4003 0.0
C507 C 0.62606 0.24623 0.419 0.0
C508 C 0.63357 0.25734 0.43338 0.0
C509 C 0.64004 0.27548 0.42928 0.0
O510 O 0.67262 0.37899 0.3946 0.0
O511 O 0.67776 0.34661 0.39652 0.0
O512 O 0.62705 0.40904 0.39998 0.0
O513 O 0.65612 0.41186 0.40568 0.0
C514 C 0.64073 0.42101 0.40208 0.0
O515 O 0.62972 0.3456 0.4297 0.0
O516 O 0.63846 0.37632 0.43365 0.0
O517 O 0.66355 0.30494 0.41744 0.0
O518 O 0.64077 0.31351 0.39831 0.0
H519 H 0.63441 0.27477 0.38148 0.0
H520 H 0.62141 0.23205 0.42222 0.0
H521 H 0.6462 0.28387 0.44044 0.0
O522 O 0.12983 0.6417 0.38561 0.0
Tb523 Tb 0.11411 0.64809 0.41105 0.0
Eu524 Eu 0.16161 0.66176 0.41755 0.0
C525 C 0.13043 0.62456 0.37871 0.0
O526 O 0.12386 0.6106 0.38888 0.0
C527 C 0.12979 0.68633 0.39995 0.0
O528 O 0.15954 0.68391 0.44031 0.0
C529 C 0.19611 0.65731 0.40639 0.0
C530 C 0.14385 0.68568 0.45 0.0
O531 O 0.12996 0.674 0.44668 0.0
C532 C 0.13871 0.63201 0.44485 0.0
C533 C 0.21366 0.64803 0.41254 0.0
C534 C 0.22591 0.64038 0.39896 0.0
C535 C 0.24305 0.63213 0.40443 0.0
C536 C 0.24776 0.63161 0.4236 0.0
C537 C 0.23601 0.63965 0.43721 0.0
C538 C 0.21889 0.64778 0.43167 0.0
O539 O 0.11741 0.67821 0.41088 0.0
O540 O 0.14522 0.67738 0.39527 0.0
O541 O 0.09031 0.63065 0.40177 0.0
O542 O 0.08502 0.65788 0.41271 0.0
C543 C 0.07728 0.6429 0.40574 0.0
O544 O 0.15474 0.63758 0.43724 0.0
O545 O 0.12203 0.63606 0.43784 0.0
O546 O 0.19042 0.67168 0.41655 0.0
O547 O 0.18227 0.64631 0.40082 0.0
H548 H 0.22226 0.64114 0.38415 0.0
H549 H 0.26134 0.62607 0.42788 0.0
H550 H 0.20984 0.65413 0.4422 0.0
O551 O 0.87081 0.12677 0.3835 0.0
Tb552 Tb 0.8543 0.11415 0.4062 0.0
Eu553 Eu 0.84269 0.16166 0.41864 0.0
C554 C 0.86417 0.13961 0.3719 0.0
O555 O 0.84814 0.14783 0.37577 0.0
C556 C 0.81477 0.13304 0.39519 0.0
O557 O 0.82495 0.15931 0.44479 0.0
C558 C 0.84852 0.1962 0.40879 0.0
C559 C 0.8185 0.14267 0.44959 0.0
O560 O 0.82275 0.12797 0.43926 0.0
C561 C 0.86865 0.13481 0.44234 0.0
C562 C 0.86023 0.21271 0.41315 0.0
C563 C 0.86548 0.22483 0.39846 0.0
C564 C 0.87375 0.24236 0.40237 0.0
C565 C 0.87718 0.24733 0.42121 0.0
C566 C 0.87174 0.23549 0.43605 0.0
C567 C 0.86363 0.21799 0.43191 0.0
O568 O 0.82544 0.11802 0.39693 0.0
O569 O 0.81965 0.15004 0.4005 0.0
O570 O 0.87158 0.08894 0.4016 0.0
O571 O 0.84238 0.08588 0.40675 0.0
C572 C 0.85791 0.07692 0.40344 0.0
O573 O 0.86885 0.15054 0.43269 0.0
O574 O 0.86022 0.11981 0.43568 0.0
O575 O 0.83633 0.19115 0.42179 0.0
O576 O 0.85657 0.18193 0.40011 0.0
H577 H 0.86211 0.22108 0.38405 0.0
H578 H 0.88231 0.26132 0.42443 0.0
H579 H 0.85902 0.20898 0.44333 0.0
O580 O 0.37105 0.86046 0.3844 0.0
Tb581 Tb 0.38611 0.85016 0.40891 0.0
Eu582 Eu 0.3375 0.84073 0.41702 0.0
C583 C 0.37322 0.85118 0.36857 0.0
O584 O 0.38383 0.83606 0.36846 0.0
C585 C 0.36633 0.81307 0.39777 0.0
O586 O 0.34038 0.82032 0.44125 0.0
C587 C 0.30247 0.84509 0.40762 0.0
C588 C 0.35697 0.81681 0.44869 0.0
O589 O 0.37168 0.82603 0.44252 0.0
C590 C 0.36285 0.87026 0.44083 0.0
C591 C 0.28549 0.85566 0.41309 0.0
C592 C 0.27299 0.86183 0.39902 0.0
C593 C 0.2559 0.87053 0.40389 0.0
C594 C 0.25156 0.87307 0.423 0.0
C595 C 0.26367 0.86661 0.43718 0.0
C596 C 0.28075 0.85809 0.43217 0.0
O597 O 0.38094 0.82028 0.40641 0.0
O598 O 0.35105 0.82295 0.39471 0.0
O599 O 0.41039 0.86654 0.39913 0.0
O600 O 0.41495 0.83979 0.41154 0.0
C601 C 0.42309 0.85426 0.40394 0.0
O602 O 0.3469 0.8673 0.43181 0.0
O603 O 0.37884 0.8624 0.43581 0.0
O604 O 0.30837 0.83221 0.41953 0.0
O605 O 0.31622 0.85462 0.39969 0.0
H606 H 0.27631 0.85937 0.38433 0.0
H607 H 0.23795 0.87876 0.4269 0.0
H608 H 0.29004 0.85288 0.4431 0.0
O609 O 0.87313 0.37182 0.11901 0.0
Tb610 Tb 0.85583 0.38339 0.09637 0.0
Eu611 Eu 0.84505 0.33544 0.08454 0.0
C612 C 0.86774 0.35764 0.12962 0.0
O613 O 0.85286 0.34794 0.12474 0.0
C614 C 0.81725 0.36358 0.10903 0.0
O615 O 0.82744 0.33819 0.05832 0.0
C616 C 0.8508 0.30065 0.09355 0.0
C617 C 0.81918 0.35436 0.05471 0.0
O618 O 0.82214 0.36863 0.06605 0.0
C619 C 0.87099 0.36218 0.06121 0.0
C620 C 0.86263 0.28423 0.08911 0.0
C621 C 0.86887 0.27272 0.1039 0.0
C622 C 0.87719 0.25517 0.10018 0.0
C623 C 0.87984 0.24964 0.08137 0.0
C624 C 0.87342 0.26086 0.06645 0.0
C625 C 0.86516 0.27833 0.07039 0.0
O626 O 0.82769 0.37875 0.1072 0.0
O627 O 0.82204 0.34674 0.10308 0.0
O628 O 0.8723 0.40923 0.10012 0.0
O629 O 0.84306 0.41123 0.09453 0.0
C630 C 0.8583 0.42076 0.09764 0.0
O631 O 0.87149 0.34675 0.07127 0.0
O632 O 0.86135 0.37676 0.06706 0.0
O633 O 0.8388 0.30602 0.08051 0.0
O634 O 0.85865 0.31469 0.10274 0.0
H635 H 0.86613 0.27689 0.11833 0.0
H636 H 0.88504 0.23563 0.07831 0.0
H637 H 0.85974 0.28679 0.05891 0.0
O638 O 0.12926 0.86948 0.11564 0.0
Tb639 Tb 0.11693 0.85188 0.09368 0.0
Eu640 Eu 0.16574 0.83996 0.08175 0.0
C641 C 0.14331 0.86405 0.12642 0.0
O642 O 0.15289 0.84901 0.12183 0.0
C643 C 0.13679 0.81349 0.107 0.0
O644 O 0.16359 0.82215 0.05553 0.0
C645 C 0.20059 0.84579 0.09111 0.0
C646 C 0.14757 0.81373 0.0516 0.0
O647 O 0.13299 0.81669 0.06258 0.0
C648 C 0.13863 0.86583 0.05824 0.0
C649 C 0.21716 0.85703 0.08564 0.0
C650 C 0.22999 0.86296 0.09954 0.0
C651 C 0.24698 0.87178 0.09443 0.0
C652 C 0.25085 0.87464 0.07527 0.0
C653 C 0.23842 0.86841 0.06127 0.0
C654 C 0.22144 0.85989 0.06652 0.0
O655 O 0.12162 0.82391 0.10486 0.0
O656 O 0.15372 0.81795 0.10097 0.0
O657 O 0.09171 0.8691 0.09859 0.0
O658 O 0.08846 0.84019 0.09237 0.0
C659 C 0.07955 0.85563 0.09628 0.0
O660 O 0.15413 0.86621 0.06829 0.0
O661 O 0.12372 0.85676 0.06426 0.0
O662 O 0.19519 0.83287 0.07903 0.0
O663 O 0.18647 0.85463 0.09921 0.0
H664 H 0.22704 0.86011 0.11424 0.0
H665 H 0.26441 0.88028 0.07113 0.0
H666 H 0.21196 0.85479 0.0557 0.0
O667 O 0.37241 0.63317 0.11374 0.0
Tb668 Tb 0.38374 0.65008 0.09073 0.0
Eu669 Eu 0.33539 0.66019 0.07871 0.0
C670 C 0.35913 0.63903 0.12524 0.0
O671 O 0.34937 0.65403 0.12084 0.0
C672 C 0.36347 0.68864 0.10259 0.0
O673 O 0.33765 0.67808 0.05259 0.0
C674 C 0.30081 0.65407 0.08853 0.0
C675 C 0.35382 0.68621 0.04867 0.0
O676 O 0.3683 0.68311 0.05972 0.0
C677 C 0.36271 0.63459 0.05562 0.0
C678 C 0.28446 0.64161 0.08552 0.0
C679 C 0.27463 0.63479 0.10129 0.0
C680 C 0.25754 0.62507 0.09908 0.0
C681 C 0.25089 0.62159 0.08081 0.0
C682 C 0.25968 0.62951 0.06498 0.0
C683 C 0.27686 0.63899 0.0674 0.0
O684 O 0.37886 0.67849 0.1007 0.0
O685 O 0.34663 0.68343 0.09695 0.0
O686 O 0.40908 0.63277 0.09404 0.0
O687 O 0.41204 0.66214 0.09012 0.0
C688 C 0.42108 0.64649 0.0926 0.0
O689 O 0.34725 0.63387 0.06566 0.0
O690 O 0.37712 0.64452 0.06142 0.0
O691 O 0.30568 0.66515 0.07452 0.0
O692 O 0.31523 0.6473 0.09803 0.0
H693 H 0.2797 0.63802 0.11532 0.0
H694 H 0.23768 0.61422 0.07903 0.0
H695 H 0.28362 0.64549 0.05538 0.0
O696 O 0.88282 0.37515 0.87564 0.0
Tb697 Tb 0.90556 0.3578 0.88684 0.0
Eu698 Eu 0.91699 0.34638 0.83816 0.0
C699 C 0.87208 0.37021 0.86138 0.0
O700 O 0.87707 0.35597 0.85083 0.0
C701 C 0.89204 0.31955 0.86671 0.0
O702 O 0.9428 0.32853 0.84227 0.0
C703 C 0.90961 0.35069 0.80268 0.0
C704 C 0.94619 0.32085 0.85876 0.0
O705 O 0.93487 0.32448 0.8729 0.0
C706 C 0.94031 0.37277 0.86457 0.0
C707 C 0.91463 0.36146 0.78565 0.0
C708 C 0.90021 0.36683 0.77322 0.0
C709 C 0.90451 0.37446 0.75549 0.0
C710 C 0.92346 0.37719 0.75057 0.0
C711 C 0.93802 0.37143 0.76258 0.0
C712 C 0.93355 0.36382 0.78025 0.0
O713 O 0.89506 0.32953 0.88203 0.0
O714 O 0.8971 0.32462 0.84963 0.0
O715 O 0.90109 0.37451 0.91245 0.0
O716 O 0.90764 0.34559 0.91504 0.0
C717 C 0.90383 0.36084 0.9243 0.0
O718 O 0.92983 0.37307 0.84937 0.0
O719 O 0.93467 0.36376 0.87967 0.0
O720 O 0.92235 0.33895 0.80917 0.0
O721 O 0.9 0.35934 0.81596 0.0
H722 H 0.88566 0.36404 0.7769 0.0
H723 H 0.92693 0.38196 0.73649 0.0
H724 H 0.94478 0.3589 0.78934 0.0
O725 O 0.13998 0.88687 0.87194 0.0
Tb726 Tb 0.14589 0.91303 0.88664 0.0
Eu727 Eu 0.15918 0.91984 0.83908 0.0
C728 C 0.15023 0.87224 0.87678 0.0
O729 O 0.16343 0.87444 0.88954 0.0
C730 C 0.18504 0.90453 0.87103 0.0
O731 O 0.18041 0.94342 0.84061 0.0
C732 C 0.15512 0.90784 0.80486 0.0
C733 C 0.18177 0.95352 0.85606 0.0
O734 O 0.16997 0.95033 0.86989 0.0
C735 C 0.12825 0.94583 0.86181 0.0
C736 C 0.14515 0.91291 0.78739 0.0
C737 C 0.13989 0.89859 0.7748 0.0
C738 C 0.1318 0.90308 0.75732 0.0
C739 C 0.12877 0.92203 0.7527 0.0
C740 C 0.13455 0.93648 0.7648 0.0
C741 C 0.14255 0.93187 0.78227 0.0
O742 O 0.17603 0.91501 0.88319 0.0
O743 O 0.17666 0.89914 0.85551 0.0
O744 O 0.12866 0.90373 0.91058 0.0
O745 O 0.15606 0.9144 0.9156 0.0
C746 C 0.14114 0.90743 0.92348 0.0
O747 O 0.13397 0.93814 0.84588 0.0
O748 O 0.13267 0.93926 0.87858 0.0
O749 O 0.16867 0.91928 0.81014 0.0
O750 O 0.14483 0.90157 0.81896 0.0
H751 H 0.14277 0.88402 0.77828 0.0
H752 H 0.12356 0.92563 0.73881 0.0
H753 H 0.14733 0.94301 0.79153 0.0
O754 O 0.61684 0.13635 0.87084 0.0
Tb755 Tb 0.59189 0.1455 0.88602 0.0
Eu756 Eu 0.58376 0.15722 0.83735 0.0
C757 C 0.63247 0.14571 0.87411 0.0
O758 O 0.63198 0.15997 0.88585 0.0
C759 C 0.60277 0.18319 0.86751 0.0
O760 O 0.55983 0.17805 0.83964 0.0
C761 C 0.59398 0.15258 0.80258 0.0
C762 C 0.55119 0.18036 0.85584 0.0
O763 O 0.55672 0.17061 0.87048 0.0
C764 C 0.55791 0.12877 0.8623 0.0
C765 C 0.58794 0.1431 0.78515 0.0
C766 C 0.60163 0.13697 0.7722 0.0
C767 C 0.59624 0.1293 0.75476 0.0
C768 C 0.577 0.12766 0.7506 0.0
C769 C 0.56322 0.13407 0.76318 0.0
C770 C 0.56873 0.14166 0.78054 0.0
O771 O 0.59358 0.17558 0.88157 0.0
O772 O 0.60625 0.1737 0.8521 0.0
O773 O 0.60013 0.1282 0.9103 0.0
O774 O 0.59107 0.15625 0.9148 0.0
C775 C 0.59707 0.14107 0.92298 0.0
O776 O 0.56672 0.13181 0.84622 0.0
O777 O 0.56435 0.13458 0.87868 0.0
O778 O 0.5834 0.1666 0.80837 0.0
O779 O 0.6002 0.14188 0.81637 0.0
H780 H 0.61643 0.1387 0.77548 0.0
H781 H 0.57269 0.12274 0.7368 0.0
H782 H 0.55812 0.1469 0.79018 0.0
O783 O 0.36153 0.61471 0.86887 0.0
Tb784 Tb 0.35491 0.58876 0.88357 0.0
Eu785 Eu 0.34245 0.58201 0.83568 0.0
C786 C 0.35156 0.62959 0.87349 0.0
O787 O 0.33803 0.62766 0.88595 0.0
C788 C 0.31615 0.59749 0.8669 0.0
O789 O 0.32074 0.5589 0.83769 0.0
C790 C 0.34703 0.59324 0.80124 0.0
C791 C 0.31955 0.54895 0.85324 0.0
O792 O 0.33184 0.55189 0.86669 0.0
C793 C 0.37305 0.55592 0.85908 0.0
C794 C 0.35704 0.58743 0.78399 0.0
C795 C 0.36392 0.60124 0.77158 0.0
C796 C 0.3723 0.59606 0.75441 0.0
C797 C 0.37387 0.5769 0.74992 0.0
C798 C 0.36665 0.563 0.76188 0.0
C799 C 0.35838 0.5683 0.77901 0.0
O800 O 0.32484 0.58707 0.87936 0.0
O801 O 0.32506 0.60307 0.85174 0.0
O802 O 0.34431 0.58673 0.91236 0.0
O803 O 0.37136 0.59846 0.9079 0.0
C804 C 0.35883 0.59415 0.92056 0.0
O805 O 0.36713 0.56316 0.843 0.0
O806 O 0.36869 0.56279 0.87575 0.0
O807 O 0.3331 0.58233 0.80668 0.0
O808 O 0.35736 0.59956 0.81529 0.0
H809 H 0.36227 0.616 0.77506 0.0
H810 H 0.37936 0.57278 0.73628 0.0
H811 H 0.35257 0.55758 0.78818 0.0
O812 O 0.88174 0.13296 0.63285 0.0
Tb813 Tb 0.90637 0.14176 0.61701 0.0
Eu814 Eu 0.91486 0.15593 0.66477 0.0
C815 C 0.86636 0.14313 0.63135 0.0
O816 O 0.86673 0.1584 0.62097 0.0
C817 C 0.89897 0.18121 0.63283 0.0
O818 O 0.93878 0.17674 0.66236 0.0
C819 C 0.90451 0.15258 0.69966 0.0
C820 C 0.94833 0.17823 0.64657 0.0
O821 O 0.94461 0.16666 0.63271 0.0
C822 C 0.94033 0.12569 0.64092 0.0
C823 C 0.91054 0.1433 0.71728 0.0
C824 C 0.89682 0.1365 0.72985 0.0
C825 C 0.90212 0.12892 0.74736 0.0
C826 C 0.92128 0.12811 0.75207 0.0
C827 C 0.93509 0.1353 0.73997 0.0
C828 C 0.92969 0.14276 0.72249 0.0
O829 O 0.90917 0.17178 0.62076 0.0
O830 O 0.89378 0.17333 0.64869 0.0
O831 O 0.90183 0.12454 0.5916 0.0
O832 O 0.90198 0.15423 0.58931 0.0
C833 C 0.9002 0.13865 0.58001 0.0
O834 O 0.93203 0.13017 0.65696 0.0
O835 O 0.93379 0.13066 0.62428 0.0
O836 O 0.91539 0.16617 0.69345 0.0
O837 O 0.89778 0.14181 0.68616 0.0
H838 H 0.88204 0.13759 0.72623 0.0
H839 H 0.92542 0.1232 0.76593 0.0
H840 H 0.94033 0.14855 0.71321 0.0
O841 O 0.36962 0.88429 0.61787 0.0
Tb842 Tb 0.35774 0.91161 0.61061 0.0
Eu843 Eu 0.34091 0.91824 0.65924 0.0
C844 C 0.36927 0.87601 0.6344 0.0
O845 O 0.36251 0.88488 0.64906 0.0
C846 C 0.31923 0.89824 0.62629 0.0
O847 O 0.3188 0.94055 0.65458 0.0
C848 C 0.34187 0.90906 0.69461 0.0
C849 C 0.31752 0.94985 0.63863 0.0
O850 O 0.32968 0.94643 0.62517 0.0
C851 C 0.37185 0.94465 0.63774 0.0
C852 C 0.35088 0.91471 0.7124 0.0
C853 C 0.35642 0.90063 0.72513 0.0
C854 C 0.36423 0.90542 0.74263 0.0
C855 C 0.36667 0.92446 0.74716 0.0
C856 C 0.36072 0.9387 0.73486 0.0
C857 C 0.35291 0.93377 0.71738 0.0
O858 O 0.32763 0.90944 0.61433 0.0
O859 O 0.32647 0.89512 0.64296 0.0
O860 O 0.37482 0.91137 0.58487 0.0
O861 O 0.34524 0.91418 0.58267 0.0
C862 C 0.36081 0.91314 0.57323 0.0
O863 O 0.36675 0.93597 0.65335 0.0
O864 O 0.36783 0.93849 0.62075 0.0
O865 O 0.3294 0.92067 0.68742 0.0
O866 O 0.35281 0.90125 0.68191 0.0
H867 H 0.35415 0.88595 0.72165 0.0
H868 H 0.37178 0.92825 0.76104 0.0
H869 H 0.34813 0.94473 0.7079 0.0
O870 O 0.61771 0.37272 0.62484 0.0
Tb871 Tb 0.59428 0.35582 0.61435 0.0
Eu872 Eu 0.58362 0.34453 0.66401 0.0
C873 C 0.62827 0.36813 0.63935 0.0
O874 O 0.62266 0.35487 0.6508 0.0
C875 C 0.60803 0.31785 0.63483 0.0
O876 O 0.55755 0.32664 0.66139 0.0
C877 C 0.59258 0.34972 0.69908 0.0
C878 C 0.55361 0.31861 0.64518 0.0
O879 O 0.56453 0.32196 0.63065 0.0
C880 C 0.55957 0.37044 0.63731 0.0
C881 C 0.58746 0.35976 0.71655 0.0
C882 C 0.60186 0.36696 0.72816 0.0
C883 C 0.59761 0.37407 0.74615 0.0
C884 C 0.57893 0.37365 0.75245 0.0
C885 C 0.56462 0.36601 0.74133 0.0
C886 C 0.56876 0.3596 0.72316 0.0
O887 O 0.60413 0.32735 0.61938 0.0
O888 O 0.6038 0.32334 0.65199 0.0
O889 O 0.59786 0.37261 0.58861 0.0
O890 O 0.59287 0.34341 0.58615 0.0
C891 C 0.59594 0.35878 0.5768 0.0
O892 O 0.57011 0.37082 0.6525 0.0
O893 O 0.56522 0.36167 0.62205 0.0
O894 O 0.58082 0.3367 0.69324 0.0
O895 O 0.60035 0.35936 0.68529 0.0
H896 H 0.61639 0.36632 0.72354 0.0
H897 H 0.57565 0.37803 0.76672 0.0
H898 H 0.55767 0.35326 0.71481 0.0
O899 O 0.13647 0.61501 0.63029 0.0
Tb900 Tb 0.14557 0.58906 0.617 0.0
Eu901 Eu 0.15602 0.58184 0.66618 0.0
C902 C 0.14602 0.63013 0.62556 0.0
O903 O 0.16003 0.62835 0.61363 0.0
C904 C 0.18232 0.60115 0.63653 0.0
O905 O 0.17769 0.55871 0.66337 0.0
C906 C 0.1516 0.59161 0.7011 0.0
C907 C 0.18051 0.55064 0.64696 0.0
O908 O 0.16994 0.55552 0.63267 0.0
C909 C 0.12717 0.55627 0.64134 0.0
C910 C 0.14159 0.58567 0.71828 0.0
C911 C 0.13503 0.59941 0.73094 0.0
C912 C 0.12658 0.59408 0.74801 0.0
C913 C 0.12472 0.57491 0.75225 0.0
C914 C 0.1318 0.56109 0.7401 0.0
C915 C 0.14002 0.56651 0.72299 0.0
O916 O 0.17543 0.59125 0.62259 0.0
O917 O 0.17234 0.60463 0.65164 0.0
O918 O 0.15768 0.58691 0.58883 0.0
O919 O 0.12949 0.59635 0.59163 0.0
C920 C 0.14294 0.5927 0.57972 0.0
O921 O 0.13043 0.56506 0.65737 0.0
O922 O 0.13364 0.56214 0.62498 0.0
O923 O 0.16517 0.5805 0.69522 0.0
O924 O 0.14136 0.59863 0.68735 0.0
H925 H 0.13696 0.6142 0.72775 0.0
H926 H 0.11916 0.57073 0.76585 0.0
H927 H 0.14568 0.55584 0.71367 0.0
O928 O 0.86947 0.88334 0.3604 0.0
Tb929 Tb 0.88372 0.90816 0.34974 0.0
Eu930 Eu 0.83448 0.91666 0.34053 0.0
C931 C 0.8712 0.86776 0.35062 0.0
O932 O 0.88091 0.86812 0.3349 0.0
C933 C 0.86339 0.89782 0.31273 0.0
O934 O 0.8358 0.94123 0.32042 0.0
C935 C 0.79974 0.90721 0.34667 0.0
C936 C 0.8519 0.94969 0.31715 0.0
O937 O 0.86716 0.94374 0.32559 0.0
C938 C 0.86099 0.94145 0.36825 0.0
C939 C 0.78312 0.91345 0.35744 0.0
C940 C 0.77086 0.89988 0.36497 0.0
C941 C 0.7542 0.90537 0.37409 0.0
C942 C 0.74998 0.92457 0.37567 0.0
C943 C 0.76176 0.93828 0.36774 0.0
C944 C 0.77847 0.93266 0.35881 0.0
O945 O 0.8775 0.90723 0.31995 0.0
O946 O 0.848 0.89459 0.32238 0.0
O947 O 0.90949 0.9027 0.36597 0.0
O948 O 0.91143 0.90692 0.33651 0.0
C949 C 0.92096 0.90355 0.35171 0.0
O950 O 0.84498 0.93226 0.36628 0.0
O951 O 0.87689 0.93569 0.36072 0.0
O952 O 0.80507 0.9181 0.33271 0.0
O953 O 0.8139 0.90009 0.35628 0.0
H954 H 0.77402 0.88505 0.36326 0.0
H955 H 0.73664 0.92881 0.38178 0.0
H956 H 0.78753 0.94319 0.35251 0.0
O957 O 0.61721 0.87214 0.37446 0.0
Tb958 Tb 0.59471 0.88213 0.35613 0.0
Eu959 Eu 0.58303 0.83275 0.34613 0.0
C960 C 0.62842 0.85798 0.37042 0.0
O961 O 0.62401 0.84656 0.35665 0.0
C962 C 0.60925 0.86007 0.31928 0.0
O963 O 0.55745 0.83748 0.32793 0.0
C964 C 0.58917 0.79717 0.35148 0.0
C965 C 0.55472 0.85394 0.31991 0.0
O966 O 0.56672 0.86759 0.32313 0.0
C967 C 0.56014 0.86021 0.37153 0.0
C968 C 0.58335 0.78064 0.36267 0.0
C969 C 0.59727 0.76855 0.36992 0.0
C970 C 0.59228 0.75146 0.37855 0.0
C971 C 0.57315 0.74678 0.38012 0.0
C972 C 0.55913 0.75841 0.37257 0.0
C973 C 0.56426 0.77546 0.36404 0.0
O974 O 0.60577 0.87587 0.32833 0.0
O975 O 0.60414 0.84322 0.32503 0.0
O976 O 0.59748 0.90832 0.37225 0.0
O977 O 0.59346 0.90988 0.34278 0.0
C978 C 0.59581 0.91968 0.35801 0.0
O979 O 0.57079 0.84518 0.37257 0.0
O980 O 0.5656 0.87482 0.3617 0.0
O981 O 0.57693 0.80376 0.33926 0.0
O982 O 0.59903 0.81037 0.35996 0.0
H983 H 0.61201 0.77209 0.36813 0.0
H984 H 0.56919 0.73315 0.38571 0.0
H985 H 0.55344 0.78425 0.35785 0.0
O986 O 0.62441 0.6153 0.37223 0.0
Tb987 Tb 0.61332 0.59323 0.35397 0.0
Eu988 Eu 0.66261 0.58285 0.3434 0.0
C989 C 0.63872 0.62617 0.36781 0.0
O990 O 0.64948 0.62162 0.35356 0.0
C991 C 0.63394 0.60798 0.31648 0.0
O992 O 0.66073 0.55659 0.32583 0.0
C993 C 0.69759 0.59148 0.34961 0.0
C994 C 0.64593 0.55387 0.31505 0.0
O995 O 0.63206 0.56605 0.31556 0.0
C996 C 0.6354 0.5578 0.36747 0.0
C997 C 0.71447 0.58516 0.35993 0.0
C998 C 0.72741 0.59863 0.36653 0.0
C999 C 0.74471 0.59299 0.37438 0.0
C1000 C 0.74873 0.57371 0.37574 0.0
C1001 C 0.73618 0.56015 0.36884 0.0
C1002 C 0.71896 0.56592 0.36113 0.0
O1003 O 0.61846 0.60476 0.32616 0.0
O1004 O 0.65096 0.60275 0.32164 0.0
O1005 O 0.58772 0.59608 0.37109 0.0
O1006 O 0.58507 0.5927 0.34163 0.0
C1007 C 0.57582 0.59495 0.35723 0.0
O1008 O 0.65059 0.56821 0.36885 0.0
O1009 O 0.62073 0.56381 0.35798 0.0
O1010 O 0.69196 0.58058 0.33577 0.0
O1011 O 0.68363 0.5988 0.35938 0.0
H1012 H 0.7243 0.61348 0.36491 0.0
H1013 H 0.76243 0.56921 0.38074 0.0
H1014 H 0.70941 0.55546 0.35544 0.0
O1015 O 0.88358 0.62404 0.37165 0.0
Tb1016 Tb 0.90667 0.61413 0.35396 0.0
Eu1017 Eu 0.91792 0.66283 0.34361 0.0
C1018 C 0.87244 0.63812 0.3671 0.0
O1019 O 0.87729 0.64939 0.35336 0.0
C1020 C 0.89236 0.63515 0.31655 0.0
O1021 O 0.94352 0.65888 0.32539 0.0
C1022 C 0.91113 0.69826 0.3486 0.0
C1023 C 0.94669 0.64269 0.31703 0.0
O1024 O 0.93529 0.62852 0.3202 0.0
C1025 C 0.94113 0.63612 0.36952 0.0
C1026 C 0.91631 0.71489 0.35987 0.0
C1027 C 0.90188 0.72671 0.36637 0.0
C1028 C 0.90609 0.74428 0.37436 0.0
C1029 C 0.92503 0.74958 0.3764 0.0
C1030 C 0.93964 0.73807 0.36975 0.0
C1031 C 0.9352 0.7206 0.36167 0.0
O1032 O 0.89562 0.61958 0.32603 0.0
O1033 O 0.89757 0.65207 0.32192 0.0
O1034 O 0.90387 0.58789 0.36995 0.0
O1035 O 0.90878 0.58656 0.34056 0.0
C1036 C 0.90618 0.57668 0.35568 0.0
O1037 O 0.9305 0.65116 0.37024 0.0
O1038 O 0.93578 0.6215 0.35966 0.0
O1039 O 0.92386 0.69183 0.33682 0.0
O1040 O 0.90113 0.68498 0.35679 0.0
H1041 H 0.88732 0.7227 0.36418 0.0
H1042 H 0.92837 0.76357 0.38147 0.0
H1043 H 0.94641 0.71189 0.35608 0.0
O1044 O 0.87037 0.61469 0.13733 0.0
Tb1045 Tb 0.88489 0.58999 0.1479 0.0
Eu1046 Eu 0.83625 0.58291 0.15687 0.0
C1047 C 0.87293 0.63051 0.14652 0.0
O1048 O 0.88359 0.63042 0.16162 0.0
C1049 C 0.86514 0.60161 0.1847 0.0
O1050 O 0.83692 0.55903 0.17776 0.0
C1051 C 0.80191 0.59341 0.15056 0.0
C1052 C 0.8528 0.55017 0.18109 0.0
O1053 O 0.8681 0.55538 0.17224 0.0
C1054 C 0.86199 0.55676 0.12945 0.0
C1055 C 0.78488 0.58787 0.14016 0.0
C1056 C 0.77264 0.602 0.1338 0.0
C1057 C 0.75504 0.59736 0.12607 0.0
C1058 C 0.75015 0.57831 0.1242 0.0
C1059 C 0.76211 0.56402 0.13074 0.0
C1060 C 0.77958 0.56887 0.1386 0.0
O1061 O 0.8792 0.59197 0.17773 0.0
O1062 O 0.84999 0.60502 0.17476 0.0
O1063 O 0.91305 0.5892 0.16012 0.0
O1064 O 0.91007 0.59732 0.13155 0.0
C1065 C 0.92202 0.5945 0.14514 0.0
O1066 O 0.8459 0.56572 0.13181 0.0
O1067 O 0.87798 0.56263 0.13669 0.0
O1068 O 0.80684 0.58251 0.16467 0.0
O1069 O 0.81626 0.59978 0.14071 0.0
H1070 H 0.77642 0.61665 0.13576 0.0
H1071 H 0.7362 0.57459 0.11926 0.0
H1072 H 0.78869 0.55792 0.14408 0.0
O1073 O 0.88491 0.87402 0.12607 0.0
Tb1074 Tb 0.90755 0.88463 0.14395 0.0
Eu1075 Eu 0.918 0.83544 0.15382 0.0
C1076 C 0.87458 0.85928 0.13039 0.0
O1077 O 0.87989 0.84834 0.14423 0.0
C1078 C 0.89332 0.86385 0.18147 0.0
O1079 O 0.94509 0.83577 0.17012 0.0
C1080 C 0.90847 0.80093 0.14709 0.0
C1081 C 0.9488 0.84959 0.18183 0.0
O1082 O 0.93696 0.86371 0.18317 0.0
C1083 C 0.94265 0.8627 0.12984 0.0
C1084 C 0.91397 0.78402 0.13647 0.0
C1085 C 0.89973 0.77206 0.12984 0.0
C1086 C 0.90416 0.75424 0.12258 0.0
C1087 C 0.92316 0.74886 0.1213 0.0
C1088 C 0.93756 0.76056 0.12806 0.0
C1089 C 0.9329 0.77825 0.1355 0.0
O1090 O 0.89588 0.8793 0.17159 0.0
O1091 O 0.89915 0.847 0.17651 0.0
O1092 O 0.9056 0.91073 0.12753 0.0
O1093 O 0.90835 0.91235 0.15718 0.0
C1094 C 0.90672 0.9221 0.14183 0.0
O1095 O 0.93203 0.84772 0.1282 0.0
O1096 O 0.93692 0.87705 0.1399 0.0
O1097 O 0.91973 0.80598 0.16086 0.0
O1098 O 0.9013 0.8152 0.13768 0.0
H1099 H 0.88512 0.77618 0.13143 0.0
H1100 H 0.92668 0.73474 0.11675 0.0
H1101 H 0.94391 0.78712 0.14123 0.0
O1102 O 0.63047 0.88227 0.13252 0.0
Tb1103 Tb 0.61968 0.90475 0.15042 0.0
Eu1104 Eu 0.66919 0.91538 0.15895 0.0
C1105 C 0.64456 0.8712 0.1372 0.0
O1106 O 0.65531 0.87578 0.15144 0.0
C1107 C 0.64123 0.89155 0.18788 0.0
O1108 O 0.66907 0.94265 0.175 0.0
C1109 C 0.70349 0.90523 0.15147 0.0
C1110 C 0.65497 0.94653 0.18635 0.0
O1111 O 0.64084 0.93469 0.1875 0.0
C1112 C 0.64107 0.9397 0.13529 0.0
C1113 C 0.7203 0.91036 0.14036 0.0
C1114 C 0.73097 0.896 0.13185 0.0
C1115 C 0.74826 0.90013 0.12315 0.0
C1116 C 0.75452 0.91883 0.12281 0.0
C1117 C 0.74486 0.93309 0.13246 0.0
C1118 C 0.72736 0.9289 0.14064 0.0
O1119 O 0.62551 0.89389 0.17832 0.0
O1120 O 0.65799 0.89707 0.18225 0.0
O1121 O 0.59394 0.90201 0.13352 0.0
O1122 O 0.59153 0.90528 0.16302 0.0
C1123 C 0.58217 0.90315 0.14748 0.0
O1124 O 0.65628 0.92936 0.13357 0.0
O1125 O 0.62703 0.93402 0.14584 0.0
O1126 O 0.69888 0.91668 0.16524 0.0
O1127 O 0.68885 0.8982 0.1425 0.0
H1128 H 0.72625 0.88153 0.13275 0.0
H1129 H 0.76796 0.92201 0.11635 0.0
H1130 H 0.71987 0.93973 0.14832 0.0
O1131 O 0.61403 0.63028 0.13657 0.0
Tb1132 Tb 0.58906 0.61574 0.14648 0.0
Eu1133 Eu 0.58186 0.66435 0.15714 0.0
C1134 C 0.62973 0.6269 0.14573 0.0
O1135 O 0.62931 0.61539 0.16019 0.0
C1136 C 0.60126 0.63458 0.18384 0.0
O1137 O 0.55815 0.66162 0.17821 0.0
C1138 C 0.59197 0.69912 0.15265 0.0
C1139 C 0.55061 0.64505 0.18148 0.0
O1140 O 0.55645 0.63055 0.17175 0.0
C1141 C 0.55641 0.63986 0.12833 0.0
C1142 C 0.58687 0.7163 0.1422 0.0
C1143 C 0.60123 0.72842 0.13597 0.0
C1144 C 0.59681 0.74584 0.12768 0.0
C1145 C 0.57781 0.75079 0.12542 0.0
C1146 C 0.56336 0.73904 0.13191 0.0
C1147 C 0.56794 0.72169 0.14011 0.0
O1148 O 0.59212 0.62036 0.17646 0.0
O1149 O 0.60426 0.6501 0.17434 0.0
O1150 O 0.58692 0.58702 0.15713 0.0
O1151 O 0.59721 0.59131 0.12944 0.0
C1152 C 0.59325 0.57873 0.14214 0.0
O1153 O 0.56591 0.65556 0.13101 0.0
O1154 O 0.56177 0.62359 0.13535 0.0
O1155 O 0.5801 0.69351 0.16569 0.0
O1156 O 0.59945 0.68521 0.14299 0.0
H1157 H 0.61583 0.72457 0.13821 0.0
H1158 H 0.57422 0.76462 0.12008 0.0
H1159 H 0.55679 0.71274 0.14544 0.0
O1160 O 0.36267 0.87182 0.88478 0.0
Tb1161 Tb 0.35681 0.88573 0.91134 0.0
Eu1162 Eu 0.34421 0.83824 0.91701 0.0
C1163 C 0.35192 0.87639 0.87043 0.0
O1164 O 0.33825 0.88856 0.87305 0.0
C1165 C 0.31766 0.87011 0.90383 0.0
O1166 O 0.32294 0.83916 0.94058 0.0
C1167 C 0.34837 0.8044 0.90418 0.0
C1168 C 0.32211 0.85407 0.95149 0.0
O1169 O 0.33463 0.86743 0.94934 0.0
C1170 C 0.3755 0.86052 0.94318 0.0
C1171 C 0.35829 0.78691 0.9092 0.0
C1172 C 0.36363 0.77438 0.89488 0.0
C1173 C 0.37142 0.75678 0.89939 0.0
C1174 C 0.37408 0.752 0.91838 0.0
C1175 C 0.36823 0.76408 0.93282 0.0
C1176 C 0.36059 0.78168 0.92818 0.0
O1177 O 0.32691 0.88163 0.91477 0.0
O1178 O 0.32607 0.85509 0.89726 0.0
O1179 O 0.37347 0.91069 0.90389 0.0
O1180 O 0.34514 0.91405 0.91266 0.0
C1181 C 0.36012 0.92283 0.90709 0.0
O1182 O 0.36924 0.84468 0.93574 0.0
O1183 O 0.37103 0.87735 0.93686 0.0
O1184 O 0.33464 0.80942 0.91553 0.0
O1185 O 0.35873 0.81861 0.89832 0.0
H1186 H 0.36096 0.77797 0.88028 0.0
H1187 H 0.37901 0.73801 0.92198 0.0
H1188 H 0.35576 0.79094 0.9393 0.0
O1189 O 0.36944 0.62729 0.61728 0.0
Tb1190 Tb 0.35215 0.61557 0.59475 0.0
Eu1191 Eu 0.34121 0.66467 0.58332 0.0
C1192 C 0.36405 0.64124 0.62819 0.0
O1193 O 0.34939 0.6513 0.62339 0.0
C1194 C 0.31376 0.6358 0.60756 0.0
O1195 O 0.32376 0.66329 0.55688 0.0
C1196 C 0.34745 0.69933 0.59297 0.0
C1197 C 0.3148 0.6476 0.55291 0.0
O1198 O 0.31717 0.63296 0.56393 0.0
C1199 C 0.36643 0.63731 0.55931 0.0
C1200 C 0.35842 0.71599 0.58728 0.0
C1201 C 0.3642 0.729 0.60105 0.0
C1202 C 0.37263 0.7461 0.59575 0.0
C1203 C 0.37524 0.74993 0.57654 0.0
C1204 C 0.3691 0.73734 0.56266 0.0
C1205 C 0.36099 0.72021 0.56811 0.0
O1206 O 0.32386 0.62046 0.60514 0.0
O1207 O 0.31879 0.65278 0.60219 0.0
O1208 O 0.36932 0.5902 0.59903 0.0
O1209 O 0.34014 0.58722 0.59394 0.0
C1210 C 0.35565 0.57817 0.59727 0.0
O1211 O 0.36712 0.65277 0.56939 0.0
O1212 O 0.35727 0.62247 0.56537 0.0
O1213 O 0.33408 0.69412 0.5813 0.0
O1214 O 0.35661 0.6851 0.60053 0.0
H1215 H 0.36151 0.72612 0.6158 0.0
H1216 H 0.38059 0.76357 0.57229 0.0
H1217 H 0.35595 0.71057 0.55741 0.0
O1218 O 0.87028 0.36071 0.6143 0.0
Tb1219 Tb 0.885 0.35294 0.58865 0.0
Eu1220 Eu 0.837 0.33996 0.58105 0.0
C1221 C 0.87405 0.35081 0.62946 0.0
O1222 O 0.88578 0.33659 0.62811 0.0
C1223 C 0.86825 0.31428 0.59821 0.0
O1224 O 0.83994 0.31893 0.55738 0.0
C1225 C 0.80202 0.3435 0.59102 0.0
C1226 C 0.8559 0.31745 0.5481 0.0
O1227 O 0.86974 0.32891 0.5522 0.0
C1228 C 0.86064 0.37022 0.55542 0.0
C1229 C 0.78456 0.35312 0.58504 0.0
C1230 C 0.77231 0.36042 0.5988 0.0
C1231 C 0.75503 0.36858 0.59358 0.0
C1232 C 0.75025 0.36944 0.57444 0.0
C1233 C 0.76203 0.36181 0.56059 0.0
C1234 C 0.77926 0.35375 0.56592 0.0
O1235 O 0.88091 0.32284 0.58793 0.0
O1236 O 0.85261 0.32294 0.60282 0.0
O1237 O 0.91374 0.34206 0.58788 0.0
O1238 O 0.90937 0.37012 0.59689 0.0
C1239 C 0.92198 0.35718 0.59389 0.0
O1240 O 0.84462 0.36559 0.56364 0.0
O1241 O 0.87728 0.36515 0.56185 0.0
O1242 O 0.80821 0.33002 0.57997 0.0
O1243 O 0.81555 0.35401 0.59807 0.0
H1244 H 0.77601 0.35934 0.61357 0.0
H1245 H 0.73656 0.37481 0.57033 0.0
H1246 H 0.78829 0.34765 0.55524 0.0
O1247 O 0.13944 0.87199 0.61459 0.0
Tb1248 Tb 0.14584 0.88635 0.58837 0.0
Eu1249 Eu 0.15804 0.83886 0.58237 0.0
C1250 C 0.1493 0.87721 0.62936 0.0
O1251 O 0.16245 0.89 0.62711 0.0
C1252 C 0.18452 0.87003 0.59753 0.0
O1253 O 0.17955 0.84006 0.55903 0.0
C1254 C 0.15335 0.80472 0.59412 0.0
C1255 C 0.18115 0.85535 0.54875 0.0
O1256 O 0.1694 0.86929 0.55157 0.0
C1257 C 0.12754 0.86169 0.55593 0.0
C1258 C 0.14333 0.78755 0.58831 0.0
C1259 C 0.13739 0.77474 0.60214 0.0
C1260 C 0.12931 0.75748 0.59697 0.0
C1261 C 0.127 0.75332 0.57779 0.0
C1262 C 0.13324 0.76576 0.56379 0.0
C1263 C 0.14123 0.78301 0.56914 0.0
O1264 O 0.17599 0.88245 0.58695 0.0
O1265 O 0.17542 0.85507 0.60328 0.0
O1266 O 0.1286 0.9102 0.59767 0.0
O1267 O 0.15572 0.91534 0.5863 0.0
C1268 C 0.14083 0.92314 0.59343 0.0
O1269 O 0.13319 0.84575 0.56363 0.0
O1270 O 0.13231 0.8784 0.5623 0.0
O1271 O 0.16741 0.80994 0.58328 0.0
O1272 O 0.14299 0.81885 0.60017 0.0
H1273 H 0.13972 0.77791 0.61689 0.0
H1274 H 0.12181 0.73957 0.5737 0.0
H1275 H 0.14631 0.7926 0.55841 0.0
O1276 O 0.62724 0.13049 0.61598 0.0
Tb1277 Tb 0.61716 0.14799 0.59283 0.0
Eu1278 Eu 0.66598 0.15602 0.58179 0.0
C1279 C 0.64131 0.13533 0.62703 0.0
O1280 O 0.65237 0.14915 0.62196 0.0
C1281 C 0.63883 0.18539 0.60579 0.0
O1282 O 0.66443 0.17258 0.55485 0.0
C1283 C 0.70046 0.14892 0.59126 0.0
C1284 C 0.64978 0.18345 0.55173 0.0
O1285 O 0.63603 0.1838 0.56405 0.0
C1286 C 0.6381 0.13218 0.55798 0.0
C1287 C 0.71686 0.1367 0.58762 0.0
C1288 C 0.72652 0.12906 0.60308 0.0
C1289 C 0.74376 0.11975 0.60057 0.0
C1290 C 0.7507 0.11728 0.58223 0.0
C1291 C 0.74202 0.12596 0.5667 0.0
C1292 C 0.72474 0.13522 0.56949 0.0
O1293 O 0.62312 0.1758 0.60373 0.0
O1294 O 0.6555 0.17977 0.59996 0.0
O1295 O 0.59092 0.13186 0.59487 0.0
O1296 O 0.58955 0.16148 0.59184 0.0
C1297 C 0.57968 0.14623 0.59353 0.0
O1298 O 0.65316 0.1303 0.56848 0.0
O1299 O 0.62434 0.14311 0.56354 0.0
O1300 O 0.69574 0.16092 0.57798 0.0
O1301 O 0.68596 0.1416 0.60021 0.0
H1302 H 0.72125 0.13146 0.61721 0.0
H1303 H 0.76396 0.11004 0.58031 0.0
H1304 H 0.71803 0.1424 0.55784 0.0
O1305 O 0.13787 0.62863 0.88462 0.0
Tb1306 Tb 0.14363 0.61309 0.91029 0.0
Eu1307 Eu 0.15878 0.65988 0.91602 0.0
C1308 C 0.12081 0.62947 0.87752 0.0
O1309 O 0.10663 0.62304 0.88751 0.0
C1310 C 0.18228 0.62723 0.89853 0.0
O1311 O 0.18046 0.65615 0.93896 0.0
C1312 C 0.15659 0.69477 0.90553 0.0
C1313 C 0.18006 0.64092 0.94945 0.0
O1314 O 0.16715 0.62817 0.94625 0.0
C1315 C 0.12726 0.63877 0.94302 0.0
C1316 C 0.14794 0.71271 0.91138 0.0
C1317 C 0.14288 0.72587 0.89749 0.0
C1318 C 0.13567 0.74355 0.90259 0.0
C1319 C 0.13335 0.74783 0.92172 0.0
C1320 C 0.13894 0.73518 0.93577 0.0
C1321 C 0.14613 0.71751 0.93056 0.0
O1322 O 0.17384 0.61585 0.91026 0.0
O1323 O 0.17426 0.64317 0.89388 0.0
O1324 O 0.12731 0.58904 0.8997 0.0
O1325 O 0.15288 0.58411 0.91429 0.0
C1326 C 0.13891 0.57615 0.90566 0.0
O1327 O 0.13393 0.65435 0.93535 0.0
O1328 O 0.13039 0.62182 0.93622 0.0
O1329 O 0.17008 0.68818 0.91636 0.0
O1330 O 0.14523 0.68163 0.89905 0.0
H1331 H 0.14512 0.7226 0.88275 0.0
H1332 H 0.1287 0.76181 0.92574 0.0
H1333 H 0.1507 0.70776 0.94137 0.0
O1334 O 0.87046 0.13132 0.88495 0.0
Tb1335 Tb 0.8829 0.14778 0.90772 0.0
Eu1336 Eu 0.83479 0.15779 0.92135 0.0
C1337 C 0.85718 0.13776 0.87374 0.0
O1338 O 0.84814 0.15313 0.87835 0.0
C1339 C 0.86232 0.18679 0.89747 0.0
O1340 O 0.83859 0.17473 0.94784 0.0
C1341 C 0.79961 0.15261 0.91316 0.0
C1342 C 0.85509 0.18234 0.95141 0.0
O1343 O 0.8691 0.17931 0.93976 0.0
C1344 C 0.86243 0.1313 0.94271 0.0
C1345 C 0.7832 0.14012 0.91593 0.0
C1346 C 0.77344 0.13357 0.9 0.0
C1347 C 0.75631 0.1239 0.90194 0.0
C1348 C 0.74956 0.12003 0.9201 0.0
C1349 C 0.75822 0.12768 0.93616 0.0
C1350 C 0.7754 0.13728 0.93395 0.0
O1351 O 0.87764 0.1764 0.89847 0.0
O1352 O 0.84561 0.18161 0.90357 0.0
O1353 O 0.90812 0.13093 0.90187 0.0
O1354 O 0.91125 0.15974 0.90869 0.0
C1355 C 0.92019 0.14445 0.90429 0.0
O1356 O 0.84705 0.13081 0.93251 0.0
O1357 O 0.87704 0.14097 0.93694 0.0
O1358 O 0.8054 0.16245 0.92774 0.0
O1359 O 0.8134 0.14658 0.90231 0.0
H1360 H 0.7786 0.13703 0.88606 0.0
H1361 H 0.7364 0.11252 0.92162 0.0
H1362 H 0.78207 0.14366 0.94607 0.0
O1363 O 0.62855 0.37097 0.88234 0.0
Tb1364 Tb 0.61661 0.35437 0.9053 0.0
Eu1365 Eu 0.66531 0.34325 0.91822 0.0
C1366 C 0.6425 0.36525 0.87156 0.0
O1367 O 0.65239 0.35056 0.8766 0.0
C1368 C 0.63699 0.31556 0.89392 0.0
O1369 O 0.66163 0.32609 0.94464 0.0
C1370 C 0.70067 0.34845 0.91074 0.0
C1371 C 0.64525 0.31824 0.94824 0.0
O1372 O 0.63107 0.32141 0.93684 0.0
C1373 C 0.63799 0.36962 0.94045 0.0
C1374 C 0.71717 0.35987 0.91623 0.0
C1375 C 0.72897 0.36725 0.90213 0.0
C1376 C 0.74603 0.37611 0.90689 0.0
C1377 C 0.75097 0.37773 0.92597 0.0
C1378 C 0.73961 0.37006 0.94014 0.0
C1379 C 0.72259 0.36136 0.93524 0.0
O1380 O 0.62163 0.32571 0.89608 0.0
O1381 O 0.65401 0.32076 0.89909 0.0
O1382 O 0.59121 0.37133 0.90043 0.0
O1383 O 0.58829 0.34229 0.90619 0.0
C1384 C 0.57921 0.35768 0.90249 0.0
O1385 O 0.65331 0.37001 0.93017 0.0
O1386 O 0.62302 0.36057 0.93456 0.0
O1387 O 0.69448 0.33632 0.92325 0.0
O1388 O 0.68713 0.35674 0.90115 0.0
H1389 H 0.72525 0.3654 0.88744 0.0
H1390 H 0.76459 0.38347 0.92976 0.0
H1391 H 0.71401 0.35512 0.94619 0.0
H1392 H 0.11896 0.69692 0.1057 0.0
H1393 H 0.1102 0.8018 0.13244 0.0
H1394 H 0.10373 0.71059 0.16287 0.0
H1395 H 0.15784 0.78238 0.10006 0.0
H1396 H 0.10439 0.76923 0.14253 0.0
H1397 H 0.13016 0.72918 0.1013 0.0
C1398 C 0.11811 0.70674 0.11734 0.0
C1399 C 0.1105 0.70126 0.13467 0.0
C1400 C 0.1163 0.77227 0.1335 0.0
C1401 C 0.1228 0.73799 0.12963 0.0
C1402 C 0.11956 0.79074 0.12769 0.0
C1403 C 0.13446 0.79471 0.11535 0.0
C1404 C 0.1277 0.75779 0.12646 0.0
C1405 C 0.14623 0.77993 0.10962 0.0
C1406 C 0.12456 0.72502 0.11487 0.0
C1407 C 0.10966 0.71439 0.14936 0.0
N1408 N 0.14236 0.76203 0.11492 0.0
N1409 N 0.11544 0.73238 0.14641 0.0
H1410 H 0.69627 0.10743 0.133 0.0
H1411 H 0.80058 0.11614 0.10298 0.0
H1412 H 0.71413 0.15475 0.09939 0.0
H1413 H 0.78856 0.10313 0.16105 0.0
H1414 H 0.76793 0.12662 0.09894 0.0
H1415 H 0.72929 0.10183 0.14183 0.0
C1416 C 0.7071 0.11677 0.12773 0.0
C1417 C 0.70256 0.13157 0.1155 0.0
C1418 C 0.77254 0.12163 0.11259 0.0
C1419 C 0.73999 0.12497 0.12505 0.0
C1420 C 0.79104 0.11558 0.11487 0.0
C1421 C 0.7971 0.10884 0.13236 0.0
C1422 C 0.75996 0.12031 0.12776 0.0
C1423 C 0.78431 0.10838 0.14739 0.0
C1424 C 0.72583 0.11361 0.13279 0.0
C1425 C 0.71706 0.14328 0.10898 0.0
N1426 N 0.76614 0.11375 0.14467 0.0
N1427 N 0.73521 0.13949 0.11353 0.0
H1428 H 0.39943 0.78985 0.15986 0.0
H1429 H 0.34136 0.71908 0.09538 0.0
H1430 H 0.37459 0.80651 0.10696 0.0
H1431 H 0.38994 0.70156 0.12746 0.0
H1432 H 0.34657 0.75145 0.10585 0.0
H1433 H 0.38892 0.75752 0.15418 0.0
C1434 C 0.39144 0.78678 0.14724 0.0
C1435 C 0.38792 0.80079 0.13378 0.0
C1436 C 0.35592 0.74044 0.11074 0.0
C1437 C 0.37586 0.76408 0.12737 0.0
C1438 C 0.35293 0.72199 0.10489 0.0
C1439 C 0.36533 0.70768 0.1105 0.0
C1440 C 0.37118 0.7445 0.12254 0.0
C1441 C 0.38017 0.71224 0.12269 0.0
C1442 C 0.38559 0.76835 0.14399 0.0
C1443 C 0.37769 0.79605 0.11759 0.0
N1444 N 0.38271 0.73032 0.12833 0.0
N1445 N 0.372 0.77803 0.11481 0.0
H1446 H 0.7006 0.38263 0.10259 0.0
H1447 H 0.80457 0.38973 0.13441 0.0
H1448 H 0.71207 0.39676 0.16052 0.0
H1449 H 0.78627 0.34308 0.10009 0.0
H1450 H 0.77157 0.39584 0.14287 0.0
H1451 H 0.73302 0.37135 0.09929 0.0
C1452 C 0.70997 0.38325 0.11461 0.0
C1453 C 0.70381 0.39056 0.13184 0.0
C1454 C 0.77492 0.38408 0.13377 0.0
C1455 C 0.74073 0.37814 0.12807 0.0
C1456 C 0.79365 0.38063 0.1289 0.0
C1457 C 0.79809 0.36591 0.11654 0.0
C1458 C 0.76066 0.37307 0.12572 0.0
C1459 C 0.78345 0.35451 0.10976 0.0
C1460 C 0.72835 0.37674 0.11277 0.0
C1461 C 0.71638 0.39107 0.14705 0.0
N1462 N 0.76532 0.35857 0.11414 0.0
N1463 N 0.73446 0.38523 0.14474 0.0
H1464 H 0.09439 0.80141 0.39936 0.0
H1465 H 0.14899 0.70693 0.37331 0.0
H1466 H 0.12454 0.79553 0.34686 0.0
H1467 H 0.10392 0.71073 0.41393 0.0
H1468 H 0.14374 0.74014 0.36511 0.0
H1469 H 0.10187 0.76902 0.40699 0.0
C1470 C 0.10266 0.79333 0.38942 0.0
C1471 C 0.10869 0.80118 0.37233 0.0
C1472 C 0.13502 0.7336 0.37577 0.0
C1473 C 0.11731 0.76388 0.38107 0.0
C1474 C 0.13801 0.71472 0.38047 0.0
C1475 C 0.12684 0.70607 0.39428 0.0
C1476 C 0.12098 0.74383 0.38518 0.0
C1477 C 0.11281 0.71676 0.40312 0.0
C1478 C 0.10687 0.77477 0.39378 0.0
C1479 C 0.1195 0.78999 0.36013 0.0
N1480 N 0.11035 0.73506 0.39848 0.0
N1481 N 0.12346 0.77182 0.36472 0.0
H1482 H 0.80165 0.10685 0.37002 0.0
H1483 H 0.69693 0.11665 0.39962 0.0
H1484 H 0.78396 0.1534 0.4048 0.0
H1485 H 0.70941 0.10423 0.34152 0.0
H1486 H 0.72977 0.12621 0.40427 0.0
H1487 H 0.76857 0.10154 0.36119 0.0
C1488 C 0.79084 0.11603 0.37562 0.0
C1489 C 0.79546 0.13058 0.38812 0.0
C1490 C 0.72522 0.12156 0.39047 0.0
C1491 C 0.75799 0.12434 0.3785 0.0
C1492 C 0.7066 0.11608 0.38784 0.0
C1493 C 0.70061 0.1098 0.37016 0.0
C1494 C 0.73797 0.12012 0.37547 0.0
C1495 C 0.71359 0.10921 0.3553 0.0
C1496 C 0.77209 0.11305 0.37053 0.0
C1497 C 0.78099 0.14211 0.39502 0.0
N1498 N 0.73186 0.11403 0.35836 0.0
N1499 N 0.76283 0.13854 0.39037 0.0
H1500 H 0.33919 0.7861 0.39871 0.0
H1501 H 0.39793 0.71003 0.34267 0.0
H1502 H 0.39633 0.79639 0.38097 0.0
H1503 H 0.36811 0.69408 0.39316 0.0
H1504 H 0.38981 0.74293 0.3487 0.0
H1505 H 0.34259 0.75299 0.389 0.0
C1506 C 0.3523 0.78142 0.3925 0.0
C1507 C 0.36755 0.79379 0.39062 0.0
C1508 C 0.38482 0.73213 0.35824 0.0
C1509 C 0.37129 0.75656 0.37927 0.0
C1510 C 0.3893 0.7134 0.35478 0.0
C1511 C 0.38369 0.69938 0.3675 0.0
C1512 C 0.37431 0.73677 0.37424 0.0
C1513 C 0.37276 0.70454 0.38311 0.0
C1514 C 0.35424 0.76264 0.3871 0.0
C1515 C 0.38433 0.78716 0.3827 0.0
N1516 N 0.36837 0.72292 0.38607 0.0
N1517 N 0.38573 0.76896 0.37717 0.0
H1518 H 0.71353 0.34262 0.39982 0.0
H1519 H 0.78714 0.39703 0.33651 0.0
H1520 H 0.6956 0.3906 0.36713 0.0
H1521 H 0.79881 0.38259 0.39433 0.0
H1522 H 0.75427 0.38683 0.34103 0.0
H1523 H 0.74611 0.34904 0.39077 0.0
C1524 C 0.7164 0.35426 0.3904 0.0
C1525 C 0.70191 0.36617 0.38424 0.0
C1526 C 0.76417 0.38577 0.35259 0.0
C1527 C 0.73896 0.37336 0.37379 0.0
C1528 C 0.78281 0.39145 0.35003 0.0
C1529 C 0.79549 0.39063 0.36512 0.0
C1530 C 0.75857 0.37873 0.37015 0.0
C1531 C 0.78933 0.3835 0.38242 0.0
C1532 C 0.73496 0.35794 0.38538 0.0
C1533 C 0.70644 0.38119 0.37225 0.0
N1534 N 0.77127 0.37767 0.38445 0.0
N1535 N 0.72466 0.38439 0.36736 0.0
H1536 H 0.15879 0.10028 0.71606 0.0
H1537 H 0.09929 0.16285 0.78736 0.0
H1538 H 0.10822 0.12965 0.69944 0.0
H1539 H 0.12779 0.1119 0.80419 0.0
H1540 H 0.10938 0.15734 0.75486 0.0
H1541 H 0.15417 0.11128 0.74834 0.0
C1542 C 0.1469 0.10932 0.71913 0.0
C1543 C 0.13377 0.11398 0.70512 0.0
C1544 C 0.1136 0.14755 0.76576 0.0
C1545 C 0.12858 0.12661 0.74185 0.0
C1546 C 0.10799 0.15071 0.78428 0.0
C1547 C 0.11266 0.13772 0.7984 0.0
C1548 C 0.12422 0.13151 0.76148 0.0
C1549 C 0.12378 0.12214 0.79364 0.0
C1550 C 0.14426 0.11548 0.73753 0.0
C1551 C 0.11856 0.12561 0.70989 0.0
N1552 N 0.12919 0.11944 0.77552 0.0
N1553 N 0.11634 0.13154 0.72793 0.0
H1554 H 0.41903 0.10802 0.70652 0.0
H1555 H 0.34861 0.12505 0.79251 0.0
H1556 H 0.37693 0.15184 0.70564 0.0
H1557 H 0.39734 0.08874 0.79417 0.0
H1558 H 0.3573 0.13442 0.76037 0.0
H1559 H 0.40977 0.10006 0.73837 0.0
C1560 C 0.4078 0.116 0.71304 0.0
C1561 C 0.39871 0.13061 0.7034 0.0
C1562 C 0.36606 0.12444 0.76786 0.0
C1563 C 0.38798 0.12153 0.74007 0.0
C1564 C 0.36109 0.11906 0.78613 0.0
C1565 C 0.37226 0.10609 0.79601 0.0
C1566 C 0.38219 0.11668 0.75948 0.0
C1567 C 0.38831 0.0988 0.78714 0.0
C1568 C 0.40253 0.11146 0.7313 0.0
C1569 C 0.38432 0.1405 0.71264 0.0
N1570 N 0.39274 0.10416 0.7694 0.0
N1571 N 0.37932 0.13573 0.73051 0.0
H1572 H 0.39364 0.37068 0.69763 0.0
H1573 H 0.36929 0.38781 0.80365 0.0
H1574 H 0.34098 0.3962 0.71409 0.0
H1575 H 0.40148 0.33924 0.7865 0.0
H1576 H 0.35972 0.39252 0.77084 0.0
H1577 H 0.39815 0.3601 0.73018 0.0
C1578 C 0.38296 0.37387 0.70803 0.0
C1579 C 0.36696 0.38436 0.7032 0.0
C1580 C 0.36864 0.38067 0.77435 0.0
C1581 C 0.37217 0.37265 0.74029 0.0
C1582 C 0.37413 0.37802 0.79301 0.0
C1583 C 0.38618 0.36314 0.79773 0.0
C1584 C 0.37568 0.36865 0.76034 0.0
C1585 C 0.39207 0.35082 0.78344 0.0
C1586 C 0.38549 0.36778 0.72653 0.0
C1587 C 0.35349 0.38807 0.71719 0.0
N1588 N 0.38701 0.35404 0.7653 0.0
N1589 N 0.35655 0.38249 0.7352 0.0
H1590 H 0.10986 0.36637 0.80328 0.0
H1591 H 0.12934 0.38987 0.69778 0.0
H1592 H 0.1601 0.39636 0.78685 0.0
H1593 H 0.1025 0.33772 0.71355 0.0
H1594 H 0.1397 0.39388 0.73046 0.0
H1595 H 0.10552 0.35662 0.77047 0.0
C1596 C 0.1201 0.37067 0.79282 0.0
C1597 C 0.13532 0.3822 0.79773 0.0
C1598 C 0.1318 0.38142 0.72664 0.0
C1599 C 0.13024 0.37149 0.76035 0.0
C1600 C 0.12584 0.37918 0.70807 0.0
C1601 C 0.11503 0.36348 0.70302 0.0
C1602 C 0.12646 0.36813 0.74025 0.0
C1603 C 0.11089 0.35 0.71685 0.0
C1604 C 0.11765 0.36507 0.77417 0.0
C1605 C 0.14821 0.38738 0.78366 0.0
N1606 N 0.11633 0.35279 0.73494 0.0
N1607 N 0.14519 0.38226 0.76551 0.0
H1608 H 0.86972 0.30653 0.89535 0.0
H1609 H 0.88845 0.20007 0.87247 0.0
H1610 H 0.89631 0.28933 0.84347 0.0
H1611 H 0.84057 0.21732 0.90569 0.0
H1612 H 0.89294 0.2328 0.8627 0.0
H1613 H 0.8599 0.27393 0.90063 0.0
C1614 C 0.87329 0.29595 0.88498 0.0
C1615 C 0.88388 0.30061 0.86899 0.0
C1616 C 0.88131 0.22934 0.87193 0.0
C1617 C 0.87302 0.2634 0.8751 0.0
C1618 C 0.8788 0.21071 0.87756 0.0
C1619 C 0.86415 0.20602 0.88992 0.0
C1620 C 0.86937 0.24336 0.87907 0.0
C1621 C 0.85199 0.22033 0.89606 0.0
C1622 C 0.86764 0.27739 0.88797 0.0
C1623 C 0.88809 0.28636 0.85596 0.0
N1624 N 0.85504 0.23843 0.89079 0.0
N1625 N 0.88291 0.26833 0.85945 0.0
H1626 H 0.20728 0.87935 0.85174 0.0
H1627 H 0.29527 0.89665 0.9197 0.0
H1628 H 0.20691 0.91594 0.90027 0.0
H1629 H 0.2953 0.8536 0.87683 0.0
H1630 H 0.26302 0.9044 0.91156 0.0
H1631 H 0.23967 0.87013 0.85954 0.0
C1632 C 0.21399 0.88543 0.86401 0.0
C1633 C 0.20441 0.89845 0.87536 0.0
C1634 C 0.27 0.89322 0.90391 0.0
C1635 C 0.24126 0.88803 0.88429 0.0
C1636 C 0.28848 0.88882 0.90852 0.0
C1637 C 0.29799 0.87448 0.89889 0.0
C1638 C 0.26088 0.8833 0.88946 0.0
C1639 C 0.28842 0.86473 0.88463 0.0
C1640 C 0.23242 0.88013 0.86847 0.0
C1641 C 0.21371 0.90584 0.89112 0.0
N1642 N 0.27034 0.86937 0.88027 0.0
N1643 N 0.2316 0.90056 0.89506 0.0
H1644 H 0.60448 0.2103 0.84052 0.0
H1645 H 0.65744 0.28491 0.90397 0.0
H1646 H 0.61724 0.19956 0.89891 0.0
H1647 H 0.61123 0.30223 0.86848 0.0
H1648 H 0.65095 0.25211 0.89579 0.0
H1649 H 0.6148 0.2431 0.84472 0.0
C1650 C 0.60969 0.21482 0.85412 0.0
C1651 C 0.61 0.2024 0.86944 0.0
C1652 C 0.64246 0.26316 0.88961 0.0
C1653 C 0.62207 0.23931 0.87412 0.0
C1654 C 0.6462 0.28184 0.89412 0.0
C1655 C 0.63479 0.29623 0.88689 0.0
C1656 C 0.62751 0.25895 0.87748 0.0
C1657 C 0.62026 0.29147 0.8744 0.0
C1658 C 0.61546 0.23343 0.85649 0.0
C1659 C 0.6167 0.20883 0.88683 0.0
N1660 N 0.61701 0.27315 0.87003 0.0
N1661 N 0.62262 0.22688 0.88868 0.0
H1662 H 0.29477 0.62468 0.84936 0.0
H1663 H 0.20205 0.59537 0.90595 0.0
H1664 H 0.29204 0.58084 0.89134 0.0
H1665 H 0.20602 0.64806 0.87593 0.0
H1666 H 0.2341 0.58803 0.8968 0.0
H1667 H 0.26143 0.63191 0.85545 0.0
C1668 C 0.28716 0.61658 0.85979 0.0
C1669 C 0.29618 0.60222 0.86994 0.0
C1670 C 0.22802 0.60121 0.89217 0.0
C1671 C 0.25829 0.61025 0.8768 0.0
C1672 C 0.20965 0.60541 0.89736 0.0
C1673 C 0.20138 0.62245 0.89185 0.0
C1674 C 0.23832 0.61409 0.88132 0.0
C1675 C 0.21192 0.6348 0.88057 0.0
C1676 C 0.26821 0.62073 0.86327 0.0
C1677 C 0.28573 0.59215 0.8833 0.0
N1678 N 0.22994 0.63041 0.87571 0.0
N1679 N 0.26738 0.59634 0.88629 0.0
H1680 H 0.84831 0.29261 0.62356 0.0
H1681 H 0.91273 0.20258 0.60437 0.0
H1682 H 0.89685 0.29161 0.58697 0.0
H1683 H 0.87377 0.20457 0.651 0.0
H1684 H 0.90477 0.23477 0.59662 0.0
H1685 H 0.85531 0.26 0.63286 0.0
C1686 C 0.8604 0.28557 0.61751 0.0
C1687 C 0.872 0.29483 0.60446 0.0
C1688 C 0.89794 0.22827 0.60859 0.0
C1689 C 0.87997 0.25776 0.61491 0.0
C1690 C 0.90244 0.20979 0.61301 0.0
C1691 C 0.8939 0.20085 0.62838 0.0
C1692 C 0.88469 0.238 0.61953 0.0
C1693 C 0.88072 0.211 0.63906 0.0
C1694 C 0.8644 0.26702 0.62286 0.0
C1695 C 0.88752 0.2851 0.5971 0.0
N1696 N 0.87645 0.22909 0.6344 0.0
N1697 N 0.89097 0.26714 0.60237 0.0
H1698 H 0.20522 0.85269 0.6253 0.0
H1699 H 0.3003 0.9032 0.59341 0.0
H1700 H 0.20932 0.89352 0.58048 0.0
H1701 H 0.29445 0.87817 0.64853 0.0
H1702 H 0.26792 0.89497 0.5865 0.0
H1703 H 0.23875 0.85776 0.63238 0.0
C1704 C 0.21317 0.86267 0.61696 0.0
C1705 C 0.20451 0.87276 0.60234 0.0
C1706 C 0.27368 0.89123 0.60011 0.0
C1707 C 0.24261 0.8784 0.61017 0.0
C1708 C 0.29224 0.89588 0.60408 0.0
C1709 C 0.30008 0.89158 0.62169 0.0
C1710 C 0.26277 0.88211 0.61378 0.0
C1711 C 0.28893 0.88187 0.63482 0.0
C1712 C 0.23222 0.86557 0.62103 0.0
C1713 C 0.21537 0.88554 0.59198 0.0
N1714 N 0.27073 0.87751 0.63063 0.0
N1715 N 0.23384 0.88793 0.59605 0.0
H1716 H 0.61317 0.19863 0.6312 0.0
H1717 H 0.62956 0.30444 0.60577 0.0
H1718 H 0.66089 0.21564 0.59765 0.0
H1719 H 0.60513 0.28826 0.65903 0.0
H1720 H 0.64011 0.27192 0.60124 0.0
H1721 H 0.60864 0.23144 0.64069 0.0
C1722 C 0.62282 0.20925 0.62604 0.0
C1723 C 0.63739 0.20449 0.61363 0.0
C1724 C 0.63269 0.27562 0.61403 0.0
C1725 C 0.63208 0.24189 0.62406 0.0
C1726 C 0.6266 0.2941 0.61658 0.0
C1727 C 0.61641 0.299 0.63276 0.0
C1728 C 0.62812 0.26194 0.62754 0.0
C1729 C 0.61301 0.2851 0.64638 0.0
C1730 C 0.62027 0.22791 0.63149 0.0
C1731 C 0.64954 0.21874 0.60735 0.0
N1732 N 0.61858 0.2671 0.64332 0.0
N1733 N 0.64641 0.23689 0.61237 0.0
H1734 H 0.20946 0.60346 0.66353 0.0
H1735 H 0.28301 0.65681 0.59909 0.0
H1736 H 0.19814 0.61625 0.60525 0.0
H1737 H 0.30102 0.60974 0.63304 0.0
H1738 H 0.25045 0.65066 0.60843 0.0
H1739 H 0.2422 0.61412 0.65907 0.0
C1740 C 0.21382 0.60881 0.64993 0.0
C1741 C 0.20129 0.609 0.63469 0.0
C1742 C 0.26162 0.64193 0.61405 0.0
C1743 C 0.23805 0.62143 0.62972 0.0
C1744 C 0.28016 0.64545 0.60885 0.0
C1745 C 0.29466 0.63368 0.61526 0.0
C1746 C 0.25764 0.62682 0.62604 0.0
C1747 C 0.29017 0.61902 0.6277 0.0
C1748 C 0.23239 0.61476 0.64741 0.0
C1749 C 0.2075 0.61584 0.61729 0.0
N1750 N 0.27196 0.61597 0.63273 0.0
N1751 N 0.22547 0.62192 0.61528 0.0
H1752 H 0.86736 0.88978 0.19334 0.0
H1753 H 0.89476 0.88184 0.29809 0.0
H1754 H 0.90067 0.84272 0.21249 0.0
H1755 H 0.83721 0.89583 0.2847 0.0
H1756 H 0.89914 0.87042 0.26587 0.0
H1757 H 0.85724 0.89529 0.22597 0.0
C1758 C 0.8723 0.88047 0.20436 0.0
C1759 C 0.88489 0.86582 0.2003 0.0
C1760 C 0.8855 0.87578 0.27008 0.0
C1761 C 0.87379 0.87228 0.23732 0.0
C1762 C 0.88303 0.88237 0.28835 0.0
C1763 C 0.86561 0.88971 0.2939 0.0
C1764 C 0.87063 0.87716 0.25718 0.0
C1765 C 0.85081 0.89012 0.28085 0.0
C1766 C 0.86648 0.88357 0.22287 0.0
C1767 C 0.89089 0.85412 0.21503 0.0
N1768 N 0.85374 0.88424 0.26287 0.0
N1769 N 0.88559 0.85785 0.23299 0.0
H1770 H 0.60512 0.83592 0.28977 0.0
H1771 H 0.66441 0.89799 0.21775 0.0
H1772 H 0.63271 0.88756 0.30594 0.0
H1773 H 0.61472 0.86707 0.20139 0.0
H1774 H 0.65976 0.8876 0.25026 0.0
H1775 H 0.61575 0.84078 0.25738 0.0
C1776 C 0.61375 0.84807 0.2866 0.0
C1777 C 0.61796 0.86145 0.30051 0.0
C1778 C 0.65006 0.88293 0.23947 0.0
C1779 C 0.63013 0.86695 0.26363 0.0
C1780 C 0.65273 0.88872 0.22093 0.0
C1781 C 0.63983 0.88345 0.20691 0.0
C1782 C 0.6346 0.87153 0.24391 0.0
C1783 C 0.62487 0.87158 0.21183 0.0
C1784 C 0.61967 0.85087 0.26812 0.0
C1785 C 0.62903 0.87701 0.29558 0.0
N1786 N 0.62263 0.86601 0.22999 0.0
N1787 N 0.63473 0.87938 0.27748 0.0
H1788 H 0.61728 0.60356 0.19937 0.0
H1789 H 0.60725 0.6328 0.30372 0.0
H1790 H 0.60217 0.66104 0.21153 0.0
H1791 H 0.65553 0.60053 0.28584 0.0
H1792 H 0.60168 0.64183 0.27075 0.0
H1793 H 0.62799 0.59984 0.23198 0.0
C1794 C 0.61635 0.61541 0.20893 0.0
C1795 C 0.60894 0.63263 0.20291 0.0
C1796 C 0.61366 0.63306 0.2742 0.0
C1797 C 0.62063 0.62836 0.24004 0.0
C1798 C 0.61681 0.62788 0.29291 0.0
C1799 C 0.63187 0.61594 0.29745 0.0
C1800 C 0.6253 0.62571 0.26004 0.0
C1801 C 0.64384 0.60988 0.28295 0.0
C1802 C 0.62251 0.61332 0.22741 0.0
C1803 C 0.60797 0.64759 0.21573 0.0
N1804 N 0.64007 0.61452 0.26482 0.0
N1805 N 0.61345 0.64503 0.2339 0.0
H1806 H 0.8671 0.60884 0.3041 0.0
H1807 H 0.89622 0.61751 0.20009 0.0
H1808 H 0.89949 0.65689 0.28594 0.0
H1809 H 0.8384 0.60347 0.21212 0.0
H1810 H 0.89984 0.62885 0.23247 0.0
H1811 H 0.85765 0.60339 0.27125 0.0
C1812 C 0.87195 0.61839 0.29325 0.0
C1813 C 0.88409 0.6333 0.29765 0.0
C1814 C 0.88631 0.62349 0.22792 0.0
C1815 C 0.87381 0.62689 0.26039 0.0
C1816 C 0.88428 0.61695 0.20957 0.0
C1817 C 0.867 0.60963 0.2036 0.0
C1818 C 0.87114 0.62207 0.24046 0.0
C1819 C 0.8519 0.60917 0.2163 0.0
C1820 C 0.86652 0.61532 0.27462 0.0
C1821 C 0.89002 0.64529 0.28313 0.0
N1822 N 0.8544 0.615 0.23436 0.0
N1823 N 0.88515 0.64158 0.26505 0.0
H1824 H 0.10022 0.61107 0.05777 0.0
H1825 H 0.12017 0.67038 0.96426 0.0
H1826 H 0.0984 0.67166 0.05554 0.0
H1827 H 0.11394 0.60994 0.96494 0.0
H1828 H 0.11057 0.67128 0.99726 0.0
H1829 H 0.10432 0.61034 0.02348 0.0
C1830 C 0.10065 0.6242 0.05003 0.0
C1831 C 0.09907 0.64144 0.05944 0.0
C1832 C 0.11109 0.65784 0.99011 0.0
C1833 C 0.10374 0.64078 0.02033 0.0
C1834 C 0.11648 0.65732 0.97119 0.0
C1835 C 0.11805 0.64004 0.96174 0.0
C1836 C 0.10737 0.64096 0.99973 0.0
C1837 C 0.11308 0.6236 0.97159 0.0
C1838 C 0.10292 0.6238 0.03048 0.0
C1839 C 0.09963 0.65806 0.0488 0.0
N1840 N 0.10819 0.62446 0.99006 0.0
N1841 N 0.10203 0.65733 0.02984 0.0
H1842 H 0.88813 0.11121 0.06017 0.0
H1843 H 0.83377 0.11299 0.96121 0.0
H1844 H 0.83231 0.08882 0.05208 0.0
H1845 H 0.89092 0.13229 0.96864 0.0
H1846 H 0.83335 0.10295 0.99415 0.0
H1847 H 0.88982 0.11815 0.0264 0.0
C1848 C 0.87628 0.10768 0.05125 0.0
C1849 C 0.86005 0.09948 0.05888 0.0
C1850 C 0.84603 0.10927 0.98853 0.0
C1851 C 0.8618 0.10741 0.0203 0.0
C1852 C 0.84629 0.11497 0.96969 0.0
C1853 C 0.86238 0.12356 0.96211 0.0
C1854 C 0.86194 0.11223 0.99992 0.0
C1855 C 0.87817 0.12578 0.97384 0.0
C1856 C 0.87723 0.11164 0.03198 0.0
C1857 C 0.84508 0.09518 0.04674 0.0
N1858 N 0.87751 0.12026 0.99214 0.0
N1859 N 0.84628 0.09927 0.02807 0.0
H1860 H 0.38511 0.82916 0.9638 0.0
H1861 H 0.40878 0.88967 0.05517 0.0
H1862 H 0.38997 0.88974 0.96374 0.0
H1863 H 0.41139 0.82909 0.05373 0.0
H1864 H 0.40432 0.88994 0.02099 0.0
H1865 H 0.39756 0.82863 0.99584 0.0
C1866 C 0.38908 0.84233 0.97035 0.0
C1867 C 0.38621 0.85955 0.96108 0.0
C1868 C 0.40606 0.87658 0.0281 0.0
C1869 C 0.40023 0.85903 0.99791 0.0
C1870 C 0.40858 0.87645 0.0476 0.0
C1871 C 0.4103 0.85934 0.05721 0.0
C1872 C 0.40509 0.85946 0.01823 0.0
C1873 C 0.41002 0.84258 0.0468 0.0
C1874 C 0.39614 0.84202 0.98871 0.0
C1875 C 0.3917 0.87613 0.97035 0.0
N1876 N 0.40726 0.84305 0.02788 0.0
N1877 N 0.39819 0.87547 0.98831 0.0
H1878 H 0.6125 0.39168 0.0577 0.0
H1879 H 0.66741 0.3864 0.95915 0.0
H1880 H 0.67025 0.4088 0.0503 0.0
H1881 H 0.6094 0.36973 0.96631 0.0
H1882 H 0.66821 0.39624 0.99211 0.0
H1883 H 0.61057 0.38491 0.02391 0.0
C1884 C 0.62473 0.39409 0.04893 0.0
C1885 C 0.64156 0.40076 0.05675 0.0
C1886 C 0.65527 0.39053 0.98644 0.0
C1887 C 0.63953 0.39303 0.01816 0.0
C1888 C 0.65478 0.38495 0.96758 0.0
C1889 C 0.63832 0.37717 0.95991 0.0
C1890 C 0.6392 0.38828 0.99777 0.0
C1891 C 0.62242 0.37561 0.97159 0.0
C1892 C 0.62365 0.39023 0.02965 0.0
C1893 C 0.65701 0.40364 0.0448 0.0
N1894 N 0.62329 0.38103 0.98992 0.0
N1895 N 0.65565 0.39971 0.02612 0.0
H1896 H 0.11842 0.83047 0.53504 0.0
H1897 H 0.08837 0.89083 0.44474 0.0
H1898 H 0.11312 0.89101 0.53533 0.0
H1899 H 0.0989 0.83109 0.44402 0.0
H1900 H 0.09274 0.89075 0.47904 0.0
H1901 H 0.10618 0.82998 0.50297 0.0
C1902 C 0.11442 0.84365 0.52852 0.0
C1903 C 0.11708 0.86083 0.53788 0.0
C1904 C 0.09392 0.87764 0.47138 0.0
C1905 C 0.10323 0.86036 0.50098 0.0
C1906 C 0.09142 0.8777 0.45185 0.0
C1907 C 0.09346 0.86098 0.4416 0.0
C1908 C 0.09844 0.86073 0.48064 0.0
C1909 C 0.09736 0.84432 0.45142 0.0
C1910 C 0.10749 0.84336 0.51013 0.0
C1911 C 0.11153 0.87743 0.52864 0.0
N1912 N 0.09984 0.84463 0.47036 0.0
N1913 N 0.10508 0.8768 0.51064 0.0
H1914 H 0.61028 0.11179 0.44093 0.0
H1915 H 0.66576 0.11242 0.53939 0.0
H1916 H 0.66569 0.0882 0.44858 0.0
H1917 H 0.60968 0.13472 0.53212 0.0
H1918 H 0.66545 0.10215 0.50651 0.0
H1919 H 0.60921 0.11915 0.47466 0.0
C1920 C 0.62216 0.10807 0.44975 0.0
C1921 C 0.6381 0.09942 0.442 0.0
C1922 C 0.65317 0.1092 0.51215 0.0
C1923 C 0.63707 0.10783 0.48051 0.0
C1924 C 0.65333 0.11503 0.53095 0.0
C1925 C 0.63776 0.12452 0.53855 0.0
C1926 C 0.63735 0.11289 0.50083 0.0
C1927 C 0.62205 0.12752 0.52689 0.0
C1928 C 0.62157 0.11228 0.46898 0.0
C1929 C 0.65313 0.09491 0.45401 0.0
N1930 N 0.62229 0.12182 0.50863 0.0
N1931 N 0.65228 0.09923 0.47263 0.0
H1932 H 0.39232 0.60779 0.44383 0.0
H1933 H 0.38296 0.66642 0.53988 0.0
H1934 H 0.40524 0.66685 0.44856 0.0
H1935 H 0.36778 0.60786 0.53448 0.0
H1936 H 0.39362 0.66624 0.50715 0.0
H1937 H 0.38568 0.6069 0.47768 0.0
C1938 C 0.3939 0.62053 0.45204 0.0
C1939 C 0.39927 0.63743 0.44342 0.0
C1940 C 0.38807 0.6534 0.51317 0.0
C1941 C 0.39162 0.63659 0.48209 0.0
C1942 C 0.38201 0.65348 0.5319 0.0
C1943 C 0.37437 0.63715 0.53998 0.0
C1944 C 0.38649 0.63689 0.5024 0.0
C1945 C 0.37349 0.62081 0.52887 0.0
C1946 C 0.39008 0.62004 0.47135 0.0
C1947 C 0.40109 0.65354 0.45468 0.0
N1948 N 0.37938 0.62113 0.51066 0.0
N1949 N 0.3972 0.65275 0.4734 0.0
H1950 H 0.8869 0.39573 0.44006 0.0
H1951 H 0.82952 0.38239 0.53579 0.0
H1952 H 0.82773 0.40818 0.44546 0.0
H1953 H 0.89016 0.37924 0.53227 0.0
H1954 H 0.82863 0.3932 0.50315 0.0
H1955 H 0.88851 0.39043 0.47412 0.0
C1956 C 0.87428 0.39742 0.44846 0.0
C1957 C 0.85715 0.40231 0.44 0.0
C1958 C 0.84214 0.39035 0.50961 0.0
C1959 C 0.85881 0.39624 0.47887 0.0
C1960 C 0.84267 0.38423 0.5283 0.0
C1961 C 0.85993 0.37972 0.53683 0.0
C1962 C 0.85897 0.39183 0.4993 0.0
C1963 C 0.87649 0.38241 0.52633 0.0
C1964 C 0.87519 0.39445 0.46789 0.0
C1965 C 0.84121 0.40438 0.45147 0.0
N1966 N 0.87558 0.38807 0.50809 0.0
N1967 N 0.84239 0.4012 0.4703 0.0
H1968 H 0.96023 0.11437 0.67216 0.0
H1969 H 0.05524 0.09827 0.61409 0.0
H1970 H 0.96336 0.11614 0.61144 0.0
H1971 H 0.05134 0.09241 0.67439 0.0
H1972 H 0.02106 0.10262 0.61264 0.0
H1973 H 0.99288 0.1037 0.67312 0.0
C1974 C 0.96765 0.11227 0.65901 0.0
C1975 C 0.959 0.11636 0.6417 0.0
C1976 C 0.02764 0.10024 0.62619 0.0
C1977 C 0.99656 0.10435 0.64274 0.0
C1978 C 0.04714 0.09779 0.627 0.0
C1979 C 0.05606 0.0951 0.64438 0.0
C1980 C 0.01704 0.10012 0.64291 0.0
C1981 C 0.04497 0.09453 0.6607 0.0
C1982 C 0.98635 0.10622 0.65958 0.0
C1983 C 0.96941 0.1133 0.62514 0.0
N1984 N 0.02605 0.09715 0.65959 0.0
N1985 N 0.98767 0.10769 0.62609 0.0
H1986 H 0.3864 0.96594 0.6091 0.0
H1987 H 0.40243 0.05703 0.67323 0.0
H1988 H 0.37776 0.96644 0.6693 0.0
H1989 H 0.40388 0.05776 0.61254 0.0
H1990 H 0.39686 0.0231 0.67243 0.0
H1991 H 0.39678 0.99852 0.61062 0.0
C1992 C 0.38689 0.97279 0.62271 0.0
C1993 C 0.381 0.96338 0.6391 0.0
C1994 C 0.39846 0.03064 0.65928 0.0
C1995 C 0.3928 0.00095 0.64085 0.0
C1996 C 0.40163 0.05001 0.65972 0.0
C1997 C 0.40352 0.06018 0.6429 0.0
C1998 C 0.39722 0.02135 0.64188 0.0
C1999 C 0.40242 0.05042 0.62581 0.0
C2000 C 0.39277 0.99148 0.62353 0.0
C2001 C 0.38211 0.97307 0.65629 0.0
N2002 N 0.3993 0.03154 0.62573 0.0
N2003 N 0.38773 0.99137 0.65669 0.0
H2004 H 0.44324 0.39628 0.61127 0.0
H2005 H 0.54062 0.38549 0.66756 0.0
H2006 H 0.4489 0.4065 0.67083 0.0
H2007 H 0.53407 0.3728 0.60847 0.0
H2008 H 0.50772 0.39566 0.66858 0.0
H2009 H 0.47711 0.38999 0.60949 0.0
C2010 C 0.45166 0.39733 0.62394 0.0
C2011 C 0.44329 0.40186 0.64122 0.0
C2012 C 0.51353 0.39076 0.65536 0.0
C2013 C 0.48202 0.39461 0.63937 0.0
C2014 C 0.53235 0.385 0.65475 0.0
C2015 C 0.54017 0.3782 0.63791 0.0
C2016 C 0.5024 0.38974 0.63902 0.0
C2017 C 0.52869 0.37786 0.6218 0.0
C2018 C 0.47098 0.3937 0.62295 0.0
C2019 C 0.45482 0.40301 0.65723 0.0
N2020 N 0.51041 0.38346 0.62278 0.0
N2021 N 0.47357 0.39934 0.65594 0.0
H2022 H 0.11488 0.53644 0.67227 0.0
H2023 H 0.09791 0.44236 0.61301 0.0
H2024 H 0.11769 0.53364 0.61158 0.0
H2025 H 0.09236 0.44547 0.67338 0.0
H2026 H 0.10252 0.47647 0.61202 0.0
H2027 H 0.10359 0.504 0.67282 0.0
C2028 C 0.11286 0.52915 0.65903 0.0
C2029 C 0.11745 0.53781 0.64186 0.0
C2030 C 0.10015 0.46974 0.62548 0.0
C2031 C 0.10474 0.5005 0.64243 0.0
C2032 C 0.09753 0.45028 0.62604 0.0
C2033 C 0.09488 0.44114 0.64331 0.0
C2034 C 0.10022 0.4801 0.64235 0.0
C2035 C 0.09445 0.45201 0.65978 0.0
C2036 C 0.10648 0.51056 0.65937 0.0
C2037 C 0.11451 0.52757 0.62518 0.0
N2038 N 0.09723 0.47091 0.65891 0.0
N2039 N 0.10854 0.50944 0.62591 0.0
H2040 H 0.05218 0.40469 0.82811 0.0
H2041 H 0.96524 0.37586 0.89373 0.0
H2042 H 0.05663 0.39562 0.88797 0.0
H2043 H 0.96004 0.38621 0.83406 0.0
H2044 H 0.99828 0.38496 0.89213 0.0
H2045 H 0.01813 0.39971 0.83019 0.0
C2046 C 0.04594 0.40175 0.84171 0.0
C2047 C 0.05719 0.40049 0.85789 0.0
C2048 C 0.98991 0.38538 0.87939 0.0
C2049 C 0.01829 0.39473 0.86039 0.0
C2050 C 0.97099 0.3802 0.88029 0.0
C2051 C 0.95981 0.38017 0.86398 0.0
C2052 C 0.99784 0.39052 0.86204 0.0
C2053 C 0.96809 0.38601 0.847 0.0
C2054 C 0.02651 0.39891 0.8429 0.0
C2055 C 0.04844 0.39667 0.87516 0.0
N2056 N 0.98663 0.39081 0.84645 0.0
N2057 N 0.02952 0.39383 0.87594 0.0
H2058 H 0.11762 0.96581 0.83037 0.0
H2059 H 0.09591 0.05912 0.88914 0.0
H2060 H 0.11611 0.96782 0.89114 0.0
H2061 H 0.09296 0.05613 0.82858 0.0
H2062 H 0.1009 0.02505 0.89024 0.0
H2063 H 0.10579 0.99804 0.82943 0.0
C2064 C 0.11455 0.97287 0.84353 0.0
C2065 C 0.11809 0.96406 0.86087 0.0
C2066 C 0.099 0.0318 0.87671 0.0
C2067 C 0.10475 0.00115 0.85986 0.0
C2068 C 0.09618 0.05124 0.87609 0.0
C2069 C 0.09416 0.0604 0.85875 0.0
C2070 C 0.09993 0.02149 0.85983 0.0
C2071 C 0.09455 0.04957 0.84225 0.0
C2072 C 0.10783 0.99134 0.84297 0.0
C2073 C 0.11376 0.97401 0.87742 0.0
N2074 N 0.09754 0.03071 0.84318 0.0
N2075 N 0.10754 0.99206 0.8765 0.0
H2076 H 0.44374 0.10768 0.82845 0.0
H2077 H 0.53574 0.11811 0.89211 0.0
H2078 H 0.44377 0.09723 0.88825 0.0
H2079 H 0.53614 0.12083 0.83137 0.0
H2080 H 0.50255 0.10923 0.89113 0.0
H2081 H 0.4778 0.11193 0.82942 0.0
C2082 C 0.45096 0.10629 0.84181 0.0
C2083 C 0.44095 0.10219 0.85832 0.0
C2084 C 0.50996 0.11155 0.87802 0.0
C2085 C 0.48002 0.10701 0.85956 0.0
C2086 C 0.52896 0.11658 0.87854 0.0
C2087 C 0.5388 0.12035 0.86179 0.0
C2088 C 0.50064 0.11042 0.86063 0.0
C2089 C 0.5292 0.11809 0.84465 0.0
C2090 C 0.47043 0.10864 0.84235 0.0
C2091 C 0.45099 0.10045 0.87523 0.0
N2092 N 0.51063 0.11347 0.84454 0.0
N2093 N 0.47 0.10297 0.87544 0.0
H2094 H 0.38639 0.53525 0.88887 0.0
H2095 H 0.40802 0.44449 0.82596 0.0
H2096 H 0.38258 0.53462 0.82816 0.0
H2097 H 0.40319 0.44335 0.88647 0.0
H2098 H 0.40365 0.47863 0.82654 0.0
H2099 H 0.3979 0.50297 0.88814 0.0
C2100 C 0.38822 0.52848 0.87534 0.0
C2101 C 0.38324 0.53769 0.85855 0.0
C2102 C 0.40368 0.47095 0.83971 0.0
C2103 C 0.39632 0.50052 0.8577 0.0
C2104 C 0.40618 0.45148 0.83939 0.0
C2105 C 0.40581 0.44113 0.85619 0.0
C2106 C 0.40083 0.48014 0.85698 0.0
C2107 C 0.40345 0.45084 0.87319 0.0
C2108 C 0.39473 0.50996 0.87497 0.0
C2109 C 0.38608 0.5281 0.84149 0.0
N2110 N 0.40095 0.4698 0.87315 0.0
N2111 N 0.39225 0.50999 0.84152 0.0
H2112 H 0.61137 0.96416 0.13479 0.0
H2113 H 0.67113 0.05002 0.09308 0.0
H2114 H 0.66946 0.95924 0.1176 0.0
H2115 H 0.61277 0.05425 0.10924 0.0
H2116 H 0.67035 0.01633 0.10019 0.0
H2117 H 0.61117 0.99662 0.12374 0.0
C2118 C 0.62408 0.96985 0.12858 0.0
C2119 C 0.6405 0.95893 0.12722 0.0
C2120 C 0.65767 0.02458 0.10207 0.0
C2121 C 0.64036 0.99628 0.11458 0.0
C2122 C 0.65811 0.0438 0.098 0.0
C2123 C 0.642 0.05489 0.10064 0.0
C2124 C 0.64101 0.01641 0.10891 0.0
C2125 C 0.62551 0.04617 0.10704 0.0
C2126 C 0.62394 0.98844 0.12227 0.0
C2127 C 0.65649 0.96711 0.11896 0.0
N2128 N 0.62546 0.02746 0.11105 0.0
N2129 N 0.65605 0.98532 0.11306 0.0
H2130 H 0.66882 0.44688 0.40581 0.0
H2131 H 0.6062 0.53265 0.36796 0.0
H2132 H 0.60999 0.44188 0.39173 0.0
H2133 H 0.66467 0.53816 0.38358 0.0
H2134 H 0.60695 0.49984 0.378 0.0
H2135 H 0.66722 0.48062 0.39918 0.0
C2136 C 0.65552 0.45293 0.40144 0.0
C2137 C 0.63951 0.44159 0.39927 0.0
C2138 C 0.6196 0.50823 0.37935 0.0
C2139 C 0.63759 0.4802 0.39154 0.0
C2140 C 0.61919 0.52702 0.37361 0.0
C2141 C 0.63542 0.53824 0.37486 0.0
C2142 C 0.63639 0.50047 0.38634 0.0
C2143 C 0.65181 0.53009 0.38235 0.0
C2144 C 0.65462 0.4722 0.39764 0.0
C2145 C 0.62266 0.45014 0.39357 0.0
N2146 N 0.65189 0.5117 0.38771 0.0
N2147 N 0.62216 0.46891 0.38981 0.0
H2148 H 0.05887 0.61268 0.3905 0.0
H2149 H 0.9589 0.66506 0.38805 0.0
H2150 H 0.04953 0.66838 0.41263 0.0
H2151 H 0.96763 0.6082 0.36855 0.0
H2152 H 0.99173 0.66609 0.39839 0.0
H2153 H 0.02517 0.61029 0.3834 0.0
C2154 C 0.04969 0.62435 0.39394 0.0
C2155 C 0.05694 0.64076 0.4021 0.0
C2156 C 0.98642 0.65335 0.39195 0.0
C2157 C 0.01847 0.63821 0.394 0.0
C2158 C 0.96764 0.65274 0.38608 0.0
C2159 C 0.96047 0.63655 0.37735 0.0
C2160 C 0.99815 0.63768 0.38902 0.0
C2161 C 0.97252 0.62102 0.37516 0.0
C2162 C 0.03047 0.623 0.3899 0.0
C2163 C 0.04448 0.65549 0.40629 0.0
N2164 N 0.99076 0.62201 0.38085 0.0
N2165 N 0.02588 0.6539 0.40213 0.0
H2166 H 0.88928 0.05599 0.39564 0.0
H2167 H 0.8308 0.96069 0.38296 0.0
H2168 H 0.82969 0.05128 0.40623 0.0
H2169 H 0.89093 0.96479 0.37479 0.0
H2170 H 0.83056 0.99312 0.39429 0.0
H2171 H 0.89065 0.02195 0.39033 0.0
C2172 C 0.87653 0.04774 0.39696 0.0
C2173 C 0.85934 0.05638 0.40124 0.0
C2174 C 0.84384 0.98685 0.3902 0.0
C2175 C 0.86072 0.01758 0.39517 0.0
C2176 C 0.844 0.96828 0.38379 0.0
C2177 C 0.86088 0.96 0.37774 0.0
C2178 C 0.86067 0.99725 0.39049 0.0
C2179 C 0.87753 0.97058 0.37916 0.0
C2180 C 0.87729 0.02834 0.39395 0.0
C2181 C 0.84321 0.04512 0.40285 0.0
N2182 N 0.87697 0.98869 0.3852 0.0
N2183 N 0.84427 0.02632 0.3997 0.0
H2184 H 0.44211 0.88394 0.38864 0.0
H2185 H 0.54179 0.83112 0.38933 0.0
H2186 H 0.45039 0.82851 0.41188 0.0
H2187 H 0.53383 0.88821 0.37013 0.0
H2188 H 0.50864 0.83013 0.39869 0.0
H2189 H 0.47597 0.88602 0.3825 0.0
C2190 C 0.4511 0.87225 0.39251 0.0
C2191 C 0.44351 0.85603 0.40072 0.0
C2192 C 0.5142 0.84291 0.39254 0.0
C2193 C 0.48219 0.85821 0.39372 0.0
C2194 C 0.53315 0.8435 0.38724 0.0
C2195 C 0.54062 0.85974 0.37885 0.0
C2196 C 0.50263 0.85865 0.38938 0.0
C2197 C 0.52871 0.87534 0.37646 0.0
C2198 C 0.47041 0.87342 0.38902 0.0
C2199 C 0.45572 0.84127 0.40549 0.0
N2200 N 0.51032 0.87436 0.38159 0.0
N2201 N 0.47446 0.84267 0.40185 0.0
H2202 H 0.89231 0.53469 0.12066 0.0
H2203 H 0.82933 0.4455 0.09395 0.0
H2204 H 0.83162 0.53621 0.11708 0.0
H2205 H 0.88909 0.44285 0.10435 0.0
H2206 H 0.8304 0.47963 0.098 0.0
H2207 H 0.89183 0.50218 0.10993 0.0
C2208 C 0.87887 0.5283 0.11739 0.0
C2209 C 0.86195 0.5382 0.12 0.0
C2210 C 0.84331 0.47162 0.09928 0.0
C2211 C 0.86134 0.50079 0.10782 0.0
C2212 C 0.84271 0.45215 0.09698 0.0
C2213 C 0.85914 0.4414 0.09897 0.0
C2214 C 0.86048 0.48039 0.10361 0.0
C2215 C 0.8761 0.45067 0.10281 0.0
C2216 C 0.87862 0.50967 0.11131 0.0
C2217 C 0.84501 0.52914 0.11537 0.0
N2218 N 0.87633 0.46965 0.1051 0.0
N2219 N 0.84513 0.51088 0.10968 0.0
H2220 H 0.05325 0.82807 0.09188 0.0
H2221 H 0.96826 0.89145 0.13012 0.0
H2222 H 0.05917 0.8865 0.107 0.0
H2223 H 0.96182 0.8335 0.11316 0.0
H2224 H 0.00116 0.89032 0.1203 0.0
H2225 H 0.01945 0.83017 0.09818 0.0
C2226 C 0.04738 0.84139 0.09642 0.0
C2227 C 0.05899 0.85714 0.09898 0.0
C2228 C 0.99254 0.87787 0.11861 0.0
C2229 C 0.02033 0.85964 0.10632 0.0
C2230 C 0.97371 0.8785 0.12421 0.0
C2231 C 0.96222 0.86251 0.12254 0.0
C2232 C 1.00004 0.86111 0.11133 0.0
C2233 C 0.97011 0.84617 0.11473 0.0
C2234 C 0.02809 0.84258 0.10003 0.0
C2235 C 0.05069 0.87403 0.10488 0.0
N2236 N 0.98855 0.84586 0.10952 0.0
N2237 N 0.03188 0.87481 0.10844 0.0
H2238 H 0.53774 0.67105 0.11503 0.0
H2239 H 0.44181 0.61462 0.09823 0.0
H2240 H 0.53273 0.61068 0.11981 0.0
H2241 H 0.44703 0.67468 0.09154 0.0
H2242 H 0.47582 0.6126 0.10349 0.0
H2243 H 0.50541 0.67239 0.10338 0.0
C2244 C 0.52998 0.65804 0.11338 0.0
C2245 C 0.53797 0.64074 0.1186 0.0
C2246 C 0.46957 0.62622 0.10073 0.0
C2247 C 0.50082 0.64222 0.10547 0.0
C2248 C 0.45017 0.62736 0.09775 0.0
C2249 C 0.44166 0.64485 0.09458 0.0
C2250 C 0.48049 0.64271 0.10064 0.0
C2251 C 0.45308 0.66092 0.09403 0.0
C2252 C 0.51146 0.65883 0.10679 0.0
C2253 C 0.52716 0.62437 0.11613 0.0
N2254 N 0.4719 0.6595 0.09716 0.0
N2255 N 0.50911 0.62554 0.10993 0.0
H2256 H 0.88739 0.33305 0.04169 0.0
H2257 H 0.89422 0.39153 0.94539 0.0
H2258 H 0.8724 0.39169 0.03655 0.0
H2259 H 0.90812 0.33266 0.94997 0.0
H2260 H 0.88854 0.39246 0.97939 0.0
H2261 H 0.89755 0.33321 0.00878 0.0
C2262 C 0.8864 0.34601 0.03373 0.0
C2263 C 0.87892 0.36235 0.04191 0.0
C2264 C 0.89294 0.37935 0.973 0.0
C2265 C 0.89041 0.36259 0.00416 0.0
C2266 C 0.8962 0.37884 0.95361 0.0
C2267 C 0.90156 0.36198 0.94491 0.0
C2268 C 0.89502 0.36286 0.98375 0.0
C2269 C 0.90394 0.34594 0.95616 0.0
C2270 C 0.89216 0.34607 0.0149 0.0
C2271 C 0.87797 0.37871 0.03085 0.0
N2272 N 0.90057 0.34674 0.97498 0.0
N2273 N 0.88354 0.37838 0.01255 0.0
H2274 H 0.16707 0.88469 0.04007 0.0
H2275 H 0.11138 0.89149 0.94212 0.0
H2276 H 0.10985 0.86561 0.03258 0.0
H2277 H 0.16732 0.91341 0.95077 0.0
H2278 H 0.11003 0.88286 0.97553 0.0
H2279 H 0.16698 0.89632 0.0077 0.0
C2280 C 0.15444 0.88305 0.03169 0.0
C2281 C 0.13846 0.8741 0.03909 0.0
C2282 C 0.12256 0.88966 0.97015 0.0
C2283 C 0.1383 0.8873 0.0019 0.0
C2284 C 0.12331 0.89459 0.9511 0.0
C2285 C 0.13949 0.90312 0.94373 0.0
C2286 C 0.13814 0.89324 0.98184 0.0
C2287 C 0.15458 0.90682 0.95591 0.0
C2288 C 0.1544 0.88969 0.01317 0.0
C2289 C 0.12251 0.87238 0.0275 0.0
N2290 N 0.15357 0.90179 0.97434 0.0
N2291 N 0.12287 0.87883 0.00948 0.0
H2292 H 0.61374 0.16446 0.04133 0.0
H2293 H 0.61007 0.11036 0.9423 0.0
H2294 H 0.63008 0.10642 0.03404 0.0
H2295 H 0.59179 0.16768 0.95 0.0
H2296 H 0.61647 0.10825 0.97616 0.0
H2297 H 0.60436 0.16554 0.00822 0.0
C2298 C 0.6152 0.15189 0.03285 0.0
C2299 C 0.62275 0.13534 0.04053 0.0
C2300 C 0.61098 0.12127 0.97047 0.0
C2301 C 0.6122 0.13652 0.00251 0.0
C2302 C 0.60734 0.12246 0.95115 0.0
C2303 C 0.60044 0.13922 0.9434 0.0
C2304 C 0.60773 0.13699 0.98206 0.0
C2305 C 0.59714 0.1545 0.95545 0.0
C2306 C 0.60989 0.15253 0.01391 0.0
C2307 C 0.62436 0.11951 0.02878 0.0
N2308 N 0.60087 0.15304 0.97416 0.0
N2309 N 0.61923 0.12053 0.01038 0.0
H2310 H 0.33252 0.58696 0.94746 0.0
H2311 H 0.3918 0.63501 0.03039 0.0
H2312 H 0.38795 0.61046 0.93985 0.0
H2313 H 0.33458 0.61563 0.03694 0.0
H2314 H 0.39161 0.6237 0.99799 0.0
H2315 H 0.33398 0.59502 0.98089 0.0
C2316 C 0.34505 0.59373 0.95288 0.0
C2317 C 0.36013 0.59811 0.94091 0.0
C2318 C 0.37912 0.62182 0.00652 0.0
C2319 C 0.36189 0.60742 0.97915 0.0
C2320 C 0.37922 0.62825 0.02508 0.0
C2321 C 0.36314 0.62636 0.03644 0.0
C2322 C 0.36283 0.6134 0.99918 0.0
C2323 C 0.34728 0.61743 0.02873 0.0
C2324 C 0.34587 0.59835 0.97196 0.0
C2325 C 0.37602 0.60687 0.94863 0.0
N2326 N 0.34751 0.61136 0.01056 0.0
N2327 N 0.37647 0.61129 0.96726 0.0
H2328 H 0.89899 0.16777 0.55534 0.0
H2329 H 0.87078 0.10476 0.46645 0.0
H2330 H 0.8939 0.10739 0.55805 0.0
H2331 H 0.88222 0.16432 0.46331 0.0
H2332 H 0.87961 0.10516 0.4997 0.0
H2333 H 0.89305 0.16654 0.52154 0.0
C2334 C 0.89664 0.15422 0.54878 0.0
C2335 C 0.89689 0.13765 0.55949 0.0
C2336 C 0.88033 0.11811 0.4917 0.0
C2337 C 0.89002 0.13612 0.5207 0.0
C2338 C 0.87532 0.11791 0.47268 0.0
C2339 C 0.87573 0.13455 0.462 0.0
C2340 C 0.88569 0.1351 0.50022 0.0
C2341 C 0.8817 0.15113 0.47091 0.0
C2342 C 0.89328 0.15352 0.52945 0.0
C2343 C 0.8938 0.12049 0.55027 0.0
N2344 N 0.88632 0.151 0.4895 0.0
N2345 N 0.89041 0.12017 0.53139 0.0
H2346 H 0.33233 0.88526 0.4593 0.0
H2347 H 0.39223 0.90872 0.55148 0.0
H2348 H 0.39291 0.88086 0.46247 0.0
H2349 H 0.33183 0.91391 0.54822 0.0
H2350 H 0.39315 0.90244 0.5176 0.0
H2351 H 0.3322 0.89981 0.49045 0.0
C2352 C 0.34563 0.88759 0.46639 0.0
C2353 C 0.36263 0.88158 0.45832 0.0
C2354 C 0.3797 0.90517 0.52424 0.0
C2355 C 0.36255 0.89809 0.49407 0.0
C2356 C 0.3792 0.90877 0.54356 0.0
C2357 C 0.36193 0.91166 0.5526 0.0
C2358 C 0.36278 0.90434 0.51399 0.0
C2359 C 0.34543 0.91163 0.54175 0.0
C2360 C 0.34554 0.89586 0.48422 0.0
C2361 C 0.37942 0.88504 0.46819 0.0
N2362 N 0.34624 0.90782 0.52303 0.0
N2363 N 0.37893 0.89287 0.48561 0.0
H2364 H 0.60455 0.38975 0.55562 0.0
H2365 H 0.61492 0.33134 0.4595 0.0
H2366 H 0.59342 0.33031 0.55115 0.0
H2367 H 0.62764 0.3905 0.4646 0.0
H2368 H 0.60474 0.33112 0.4924 0.0
H2369 H 0.61085 0.39077 0.52172 0.0
C2370 C 0.6033 0.37695 0.54746 0.0
C2371 C 0.59851 0.35992 0.55617 0.0
C2372 C 0.60965 0.34418 0.48628 0.0
C2373 C 0.60579 0.3609 0.51741 0.0
C2374 C 0.61542 0.34433 0.46745 0.0
C2375 C 0.62223 0.36095 0.45921 0.0
C2376 C 0.61067 0.36076 0.49701 0.0
C2377 C 0.62257 0.37732 0.47031 0.0
C2378 C 0.60693 0.37751 0.52811 0.0
C2379 C 0.59711 0.34373 0.54496 0.0
N2380 N 0.61698 0.37679 0.48861 0.0
N2381 N 0.60081 0.3446 0.52619 0.0
H2382 H 0.10886 0.62042 0.46636 0.0
H2383 H 0.17179 0.5899 0.55463 0.0
H2384 H 0.16967 0.62173 0.4659 0.0
H2385 H 0.11253 0.60256 0.55824 0.0
H2386 H 0.17087 0.59666 0.52083 0.0
H2387 H 0.1097 0.60861 0.49853 0.0
C2388 C 0.12243 0.61802 0.47289 0.0
C2389 C 0.13924 0.62227 0.46335 0.0
C2390 C 0.15805 0.59786 0.52899 0.0
C2391 C 0.14021 0.60879 0.50041 0.0
C2392 C 0.15855 0.59397 0.54825 0.0
C2393 C 0.14221 0.59576 0.5592 0.0
C2394 C 0.14105 0.60343 0.52059 0.0
C2395 C 0.12544 0.60109 0.55028 0.0
C2396 C 0.12286 0.61135 0.49134 0.0
C2397 C 0.15634 0.61876 0.47266 0.0
N2398 N 0.12529 0.60476 0.53148 0.0
N2399 N 0.15638 0.61233 0.49071 0.0
H2400 H 0.94535 0.90298 0.32217 0.0
H2401 H 0.0359 0.88438 0.38658 0.0
H2402 H 0.94335 0.89841 0.38268 0.0
H2403 H 0.03662 0.8804 0.32589 0.0
H2404 H 0.0029 0.89353 0.38526 0.0
H2405 H 0.97945 0.89822 0.32322 0.0
C2406 C 0.95213 0.90102 0.3357 0.0
C2407 C 0.94156 0.901 0.35237 0.0
C2408 C 0.01031 0.8908 0.37222 0.0
C2409 C 0.98056 0.89564 0.35369 0.0
C2410 C 0.02924 0.88564 0.37292 0.0
C2411 C 0.03914 0.88144 0.3563 0.0
C2412 C 0.00109 0.89183 0.35478 0.0
C2413 C 0.02962 0.88344 0.33907 0.0
C2414 C 0.97158 0.89831 0.33628 0.0
C2415 C 0.95101 0.89844 0.3695 0.0
N2416 N 0.01111 0.88836 0.33878 0.0
N2417 N 0.96998 0.89584 0.36972 0.0
H2418 H 0.61736 0.0357 0.32929 0.0
H2419 H 0.60048 0.94183 0.38907 0.0
H2420 H 0.61849 0.03361 0.39006 0.0
H2421 H 0.5951 0.94446 0.32866 0.0
H2422 H 0.60515 0.97594 0.38979 0.0
H2423 H 0.60691 0.00296 0.32879 0.0
C2424 C 0.61517 0.02849 0.34255 0.0
C2425 C 0.61898 0.03748 0.35975 0.0
C2426 C 0.60282 0.96911 0.37638 0.0
C2427 C 0.60722 -0.00018 0.35924 0.0
C2428 C 0.60017 0.94964 0.37597 0.0
C2429 C 0.5975 0.94036 0.35878 0.0
C2430 C 0.60292 0.97935 0.35943 0.0
C2431 C 0.59717 0.9511 0.34222 0.0
C2432 C 0.60926 0.00974 0.34224 0.0
C2433 C 0.61587 0.02731 0.37644 0.0
N2434 N 0.59998 0.97001 0.34293 0.0
N2435 N 0.61036 0.00903 0.37575 0.0
H2436 H 0.55485 0.60175 0.38878 0.0
H2437 H 0.45791 0.61307 0.33184 0.0
H2438 H 0.54996 0.59353 0.32884 0.0
H2439 H 0.46361 0.62352 0.39145 0.0
H2440 H 0.49094 0.60334 0.33083 0.0
H2441 H 0.52086 0.60737 0.39042 0.0
C2442 C 0.54658 0.60101 0.37599 0.0
C2443 C 0.55519 0.59724 0.35865 0.0
C2444 C 0.48492 0.60764 0.34415 0.0
C2445 C 0.51632 0.60371 0.36035 0.0
C2446 C 0.46601 0.61314 0.34476 0.0
C2447 C 0.45792 0.6192 0.36175 0.0
C2448 C 0.49585 0.6082 0.36065 0.0
C2449 C 0.4692 0.61904 0.378 0.0
C2450 C 0.52718 0.60424 0.37691 0.0
C2451 C 0.54385 0.59644 0.3425 0.0
N2452 N 0.48757 0.61373 0.37703 0.0
N2453 N 0.52502 0.59973 0.34372 0.0
H2454 H 0.90846 0.55236 0.32614 0.0
H2455 H 0.88136 0.46292 0.38871 0.0
H2456 H 0.90046 0.55414 0.38629 0.0
H2457 H 0.88222 0.46239 0.32789 0.0
H2458 H 0.89335 0.49499 0.38827 0.0
H2459 H 0.90355 0.5183 0.32679 0.0
C2460 C 0.90582 0.54553 0.33951 0.0
C2461 C 0.90471 0.55602 0.35618 0.0
C2462 C 0.89109 0.48781 0.37502 0.0
C2463 C 0.89907 0.51714 0.35705 0.0
C2464 C 0.88427 0.46943 0.37523 0.0
C2465 C 0.88052 0.45995 0.35829 0.0
C2466 C 0.89417 0.49687 0.35774 0.0
C2467 C 0.88478 0.46914 0.34131 0.0
C2468 C 0.90301 0.5261 0.33987 0.0
C2469 C 0.90132 0.54653 0.37312 0.0
N2470 N 0.89119 0.48717 0.34147 0.0
N2471 N 0.89852 0.52762 0.37311 0.0
H2472 H 0.03515 0.62172 0.1101 0.0
H2473 H 0.94746 0.59058 0.17347 0.0
H2474 H 0.03806 0.6148 0.17046 0.0
H2475 H 0.94317 0.60448 0.11453 0.0
H2476 H 0.98142 0.59595 0.172 0.0
H2477 H 0.00242 0.61156 0.11084 0.0
C2478 C 0.02902 0.61785 0.12351 0.0
C2479 C 0.03942 0.61928 0.14028 0.0
C2480 C 0.9731 0.59776 0.15936 0.0
C2481 C 0.00175 0.60775 0.14118 0.0
C2482 C 0.95372 0.5947 0.16019 0.0
C2483 C 0.94256 0.59718 0.1441 0.0
C2484 C 0.98137 0.60331 0.14229 0.0
C2485 C 0.95132 0.60249 0.12726 0.0
C2486 C 0.01025 0.61212 0.1239 0.0
C2487 C 0.03063 0.61399 0.15718 0.0
N2488 N 0.97023 0.60542 0.12679 0.0
N2489 N 0.01227 0.60859 0.15721 0.0
H2490 H 0.90267 0.94449 0.11079 0.0
H2491 H 0.88345 0.03735 0.17133 0.0
H2492 H 0.9069 0.94659 0.17131 0.0
H2493 H 0.88274 0.03581 0.11054 0.0
H2494 H 0.89484 0.00492 0.17159 0.0
H2495 H 0.89778 0.97859 0.1103 0.0
C2496 C 0.9027 0.95218 0.12395 0.0
C2497 C 0.90507 0.94276 0.14111 0.0
C2498 C 0.89239 0.01176 0.15819 0.0
C2499 C 0.89941 0.98169 0.14074 0.0
C2500 C 0.88596 0.03035 0.15803 0.0
C2501 C 0.88194 0.03935 0.1409 0.0
C2502 C 0.89475 0.00206 0.14111 0.0
C2503 C 0.88547 0.02946 0.12412 0.0
C2504 C 0.89993 0.97163 0.12369 0.0
C2505 C 0.90504 0.95334 0.15778 0.0
N2506 N 0.89147 0.01133 0.12466 0.0
N2507 N 0.90211 0.97223 0.15719 0.0
H2508 H 0.46986 0.87629 0.1097 0.0
H2509 H 0.55643 0.90478 0.17597 0.0
H2510 H 0.4644 0.88568 0.1695 0.0
H2511 H 0.56101 0.89685 0.11597 0.0
H2512 H 0.5224 0.89969 0.17374 0.0
H2513 H 0.50278 0.88579 0.11152 0.0
C2514 C 0.47552 0.8805 0.12322 0.0
C2515 C 0.46431 0.88008 0.13949 0.0
C2516 C 0.53081 0.89917 0.16104 0.0
C2517 C 0.50221 0.89087 0.1417 0.0
C2518 C 0.55023 0.90208 0.16231 0.0
C2519 C 0.56151 0.90116 0.14613 0.0
C2520 C 0.52262 0.89525 0.14345 0.0
C2521 C 0.55279 0.89763 0.12879 0.0
C2522 C 0.49437 0.88592 0.12424 0.0
C2523 C 0.47248 0.88578 0.15658 0.0
N2524 N 0.53389 0.89471 0.12792 0.0
N2525 N 0.49096 0.8908 0.15725 0.0
H2526 H 0.60577 0.55916 0.11145 0.0
H2527 H 0.61459 0.46199 0.16748 0.0
H2528 H 0.58778 0.55195 0.16898 0.0
H2529 H 0.62541 0.46761 0.1079 0.0
H2530 H 0.60347 0.49452 0.16808 0.0
H2531 H 0.61216 0.52533 0.1096 0.0
C2532 C 0.60308 0.55041 0.12365 0.0
C2533 C 0.59632 0.5583 0.1404 0.0
C2534 C 0.6081 0.48856 0.15484 0.0
C2535 C 0.60364 0.51969 0.13848 0.0
C2536 C 0.61442 0.46994 0.15447 0.0
C2537 C 0.62107 0.46201 0.13764 0.0
C2538 C 0.60856 0.49939 0.13829 0.0
C2539 C 0.6205 0.47308 0.12124 0.0
C2540 C 0.60669 0.53112 0.1226 0.0
C2541 C 0.59304 0.54639 0.1558 0.0
N2542 N 0.61454 0.49122 0.12202 0.0
N2543 N 0.59684 0.5277 0.15452 0.0
H2544 H 0.39065 0.94373 0.89632 0.0
H2545 H 0.33053 0.03777 0.88281 0.0
H2546 H 0.33186 0.94831 0.91077 0.0
H2547 H 0.39105 0.03554 0.87713 0.0
H2548 H 0.33085 0.00532 0.89411 0.0
H2549 H 0.39129 0.97762 0.88988 0.0
C2550 C 0.37793 0.95192 0.89823 0.0
C2551 C 0.36118 0.94329 0.904 0.0
C2552 C 0.34407 0.01201 0.89056 0.0
C2553 C 0.36171 0.98189 0.89661 0.0
C2554 C 0.34391 0.03058 0.88414 0.0
C2555 C 0.36077 0.03943 0.87887 0.0
C2556 C 0.3612 0.00214 0.89158 0.0
C2557 C 0.37767 0.02933 0.88093 0.0
C2558 C 0.37828 0.97123 0.89459 0.0
C2559 C 0.34507 0.95446 0.90629 0.0
N2560 N 0.37742 0.0112 0.88694 0.0
N2561 N 0.3457 0.97316 0.90247 0.0
H2562 H 0.39201 0.46688 0.63033 0.0
H2563 H 0.32763 0.55213 0.59437 0.0
H2564 H 0.33303 0.46104 0.61686 0.0
H2565 H 0.38682 0.55755 0.60668 0.0
H2566 H 0.32968 0.51839 0.6009 0.0
H2567 H 0.39076 0.49961 0.62006 0.0
C2568 C 0.37881 0.47242 0.62508 0.0
C2569 C 0.36258 0.46114 0.62453 0.0
C2570 C 0.34226 0.52691 0.60207 0.0
C2571 C 0.36104 0.4988 0.61282 0.0
C2572 C 0.3411 0.54617 0.59833 0.0
C2573 C 0.35708 0.55762 0.60004 0.0
C2574 C 0.35954 0.51903 0.60764 0.0
C2575 C 0.37416 0.5492 0.60522 0.0
C2576 C 0.37811 0.49115 0.61923 0.0
C2577 C 0.3459 0.46916 0.61755 0.0
N2578 N 0.37493 0.53043 0.60892 0.0
N2579 N 0.34554 0.48751 0.61208 0.0
H2580 H 0.94135 0.38757 0.60753 0.0
H2581 H 0.03948 0.332 0.61355 0.0
H2582 H 0.94884 0.33035 0.58884 0.0
H2583 H 0.03226 0.38968 0.63116 0.0
H2584 H 0.00674 0.33162 0.60288 0.0
H2585 H 0.97504 0.38914 0.61491 0.0
C2586 C 0.95013 0.37539 0.60489 0.0
C2587 C 0.94235 0.3588 0.59762 0.0
C2588 C 0.01237 0.3444 0.60898 0.0
C2589 C 0.98081 0.36041 0.60606 0.0
C2590 C 0.03109 0.34463 0.61503 0.0
C2591 C 0.03866 0.36087 0.62334 0.0
C2592 C 0.00109 0.36049 0.61127 0.0
C2593 C 0.02705 0.37681 0.62491 0.0
C2594 C 0.96934 0.37627 0.60911 0.0
C2595 C 0.9543 0.3434 0.59447 0.0
N2596 N 0.00886 0.37618 0.61903 0.0
N2597 N 0.97291 0.34455 0.59877 0.0
H2598 H 0.16401 0.0407 0.61288 0.0
H2599 H 0.11084 0.94143 0.60913 0.0
H2600 H 0.10758 0.03182 0.63366 0.0
H2601 H 0.16632 0.9508 0.58633 0.0
H2602 H 0.10871 0.97496 0.61678 0.0
H2603 H 0.16449 0.00827 0.60148 0.0
C2604 C 0.15167 0.032 0.61492 0.0
C2605 C 0.13577 0.03898 0.62434 0.0
C2606 C 0.12131 0.96972 0.61 0.0
C2607 C 0.13627 0.00179 0.61143 0.0
C2608 C 0.12251 0.9506 0.60564 0.0
C2609 C 0.13879 0.94341 0.59717 0.0
C2610 C 0.13655 0.98166 0.60592 0.0
C2611 C 0.15353 0.95582 0.59291 0.0
C2612 C 0.15196 0.01346 0.60842 0.0
C2613 C 0.12018 0.02704 0.62655 0.0
N2614 N 0.1521 0.97434 0.59742 0.0
N2615 N 0.12087 0.00902 0.62026 0.0
H2616 H 0.55534 0.17578 0.59243 0.0
H2617 H 0.46533 0.11221 0.61501 0.0
H2618 H 0.55709 0.11536 0.59748 0.0
H2619 H 0.46499 0.17296 0.61669 0.0
H2620 H 0.49763 0.11305 0.6035 0.0
H2621 H 0.52117 0.17486 0.59663 0.0
C2622 C 0.54848 0.1623 0.59429 0.0
C2623 C 0.55899 0.14562 0.59477 0.0
C2624 C 0.49042 0.1262 0.6062 0.0
C2625 C 0.51997 0.14445 0.59958 0.0
C2626 C 0.4719 0.12576 0.61271 0.0
C2627 C 0.46241 0.14255 0.61709 0.0
C2628 C 0.49959 0.14355 0.60404 0.0
C2629 C 0.47172 0.15964 0.61366 0.0
C2630 C 0.52899 0.16178 0.59668 0.0
C2631 C 0.54946 0.12854 0.59714 0.0
N2632 N 0.48985 0.15969 0.60753 0.0
N2633 N 0.53047 0.12839 0.59957 0.0
H2634 H 0.10748 0.46589 0.86487 0.0
H2635 H 0.16372 0.54895 0.91606 0.0
H2636 H 0.1633 0.45937 0.88806 0.0
H2637 H 0.11108 0.55709 0.88692 0.0
H2638 H 0.16243 0.51544 0.9085 0.0
H2639 H 0.10724 0.49852 0.87541 0.0
C2640 C 0.11966 0.47126 0.87229 0.0
C2641 C 0.13548 0.45983 0.87552 0.0
C2642 C 0.15111 0.52451 0.90381 0.0
C2643 C 0.13526 0.49734 0.88761 0.0
C2644 C 0.15181 0.54363 0.90816 0.0
C2645 C 0.13749 0.55577 0.90205 0.0
C2646 C 0.13595 0.51744 0.89329 0.0
C2647 C 0.12241 0.54818 0.89187 0.0
C2648 C 0.11951 0.48995 0.87828 0.0
C2649 C 0.15081 0.46763 0.88523 0.0
N2650 N 0.12205 0.52948 0.88775 0.0
N2651 N 0.15034 0.48591 0.89088 0.0
H2652 H 0.0379 0.17027 0.88671 0.0
H2653 H 0.94061 0.11356 0.89397 0.0
H2654 H 0.03165 0.11172 0.87182 0.0
H2655 H 0.94633 0.17226 0.90812 0.0
H2656 H 0.97451 0.1121 0.88783 0.0
H2657 H 0.00498 0.17078 0.89683 0.0
C2658 C 0.02969 0.15747 0.88573 0.0
C2659 C 0.03757 0.14095 0.8783 0.0
C2660 C 0.96838 0.12529 0.89237 0.0
C2661 C 0.99982 0.14147 0.88975 0.0
C2662 C 0.94905 0.1261 0.89587 0.0
C2663 C 0.94071 0.14306 0.90147 0.0
C2664 C 0.97943 0.14157 0.89444 0.0
C2665 C 0.95224 0.15891 0.90376 0.0
C2666 C 0.01087 0.15779 0.89146 0.0
C2667 C 0.02619 0.12482 0.87735 0.0
N2668 N 0.97101 0.15781 0.90016 0.0
N2669 N 0.00791 0.12551 0.8829 0.0
H2670 H 0.46107 0.33191 0.88684 0.0
H2671 H 0.55853 0.38865 0.89281 0.0
H2672 H 0.4675 0.38999 0.8703 0.0
H2673 H 0.55318 0.32974 0.90619 0.0
H2674 H 0.52457 0.39006 0.88698 0.0
H2675 H 0.49412 0.33148 0.89662 0.0
C2676 C 0.46935 0.34462 0.88543 0.0
C2677 C 0.46149 0.36099 0.87764 0.0
C2678 C 0.53079 0.37683 0.89128 0.0
C2679 C 0.49937 0.36055 0.88871 0.0
C2680 C 0.55016 0.37605 0.89462 0.0
C2681 C 0.55863 0.35905 0.89991 0.0
C2682 C 0.51982 0.36048 0.89323 0.0
C2683 C 0.54718 0.34312 0.90207 0.0
C2684 C 0.48825 0.34435 0.89096 0.0
C2685 C 0.47295 0.37702 0.87613 0.0
N2686 N 0.52837 0.3442 0.89866 0.0
N2687 N 0.49129 0.37637 0.88152 0.0
H2688 H 0.14657 0.6087 0.13136 0.0
H2689 H 0.2495 0.65016 0.1271 0.0
H2690 H 0.1622 0.6664 0.14136 0.0
H2691 H 0.23435 0.59495 0.107 0.0
H2692 H 0.21998 0.65162 0.14437 0.0
H2693 H 0.17992 0.5997 0.13364 0.0
C2694 C 0.15695 0.61934 0.13469 0.0
C2695 C 0.15178 0.63834 0.13583 0.0
C2696 C 0.2233 0.63894 0.1366 0.0
C2697 C 0.18973 0.62827 0.13836 0.0
C2698 C 0.24034 0.63798 0.12689 0.0
C2699 C 0.24417 0.62264 0.11505 0.0
C2700 C 0.2099 0.62459 0.13426 0.0
C2701 C 0.23166 0.60732 0.11547 0.0
C2702 C 0.17597 0.61424 0.13589 0.0
C2703 C 0.16571 0.65163 0.14006 0.0
N2704 N 0.21481 0.6089 0.12441 0.0
N2705 N 0.18406 0.64639 0.1409 0.0
H2706 H 0.85269 0.2475 0.12886 0.0
H2707 H 0.89045 0.14305 0.13229 0.0
H2708 H 0.9058 0.22956 0.10545 0.0
H2709 H 0.83289 0.16064 0.13994 0.0
H2710 H 0.90048 0.17602 0.13499 0.0
H2711 H 0.85062 0.21796 0.14601 0.0
C2712 C 0.86431 0.23769 0.12785 0.0
C2713 C 0.8792 0.2408 0.11524 0.0
C2714 C 0.88573 0.17256 0.13668 0.0
C2715 C 0.87655 0.20665 0.13442 0.0
C2716 C 0.88003 0.15378 0.13524 0.0
C2717 C 0.86081 0.14932 0.13554 0.0
C2718 C 0.87207 0.18675 0.1386 0.0
C2719 C 0.84782 0.16365 0.13929 0.0
C2720 C 0.86301 0.22069 0.13754 0.0
C2721 C 0.89379 0.22746 0.11458 0.0
N2722 N 0.85366 0.18176 0.14041 0.0
N2723 N 0.89187 0.21072 0.12362 0.0
H2724 H 0.25931 0.84905 0.12312 0.0
H2725 H 0.34782 0.85731 0.16253 0.0
H2726 H 0.26992 0.90269 0.09682 0.0
H2727 H 0.35753 0.89385 0.11499 0.0
H2728 H 0.31392 0.86095 0.15796 0.0
H2729 H 0.28921 0.85164 0.13974 0.0
C2730 C 0.2676 0.86172 0.12138 0.0
C2731 C 0.26219 0.87556 0.10836 0.0
C2732 C 0.32344 0.8682 0.14854 0.0
C2733 C 0.29668 0.87861 0.12727 0.0
C2734 C 0.34285 0.86633 0.15129 0.0
C2735 C 0.35558 0.87497 0.13887 0.0
C2736 C 0.31673 0.87877 0.13322 0.0
C2737 C 0.34827 0.88665 0.12471 0.0
C2738 C 0.28478 0.8632 0.13089 0.0
C2739 C 0.27371 0.89152 0.10647 0.0
N2740 N 0.32935 0.88804 0.12216 0.0
N2741 N 0.29057 0.8924 0.11546 0.0
H2742 H 0.59648 0.26808 0.10062 0.0
H2743 H 0.6687 0.34045 0.13955 0.0
H2744 H 0.65087 0.25311 0.12305 0.0
H2745 H 0.61142 0.3552 0.12619 0.0
H2746 H 0.65958 0.30746 0.14138 0.0
H2747 H 0.5983 0.29815 0.11723 0.0
C2748 C 0.60854 0.27089 0.10953 0.0
C2749 C 0.62375 0.25826 0.11008 0.0
C2750 C 0.64882 0.31786 0.13852 0.0
C2751 C 0.62609 0.29274 0.12886 0.0
C2752 C 0.65405 0.33671 0.13753 0.0
C2753 C 0.64081 0.35042 0.1325 0.0
C2754 C 0.63034 0.31262 0.13377 0.0
C2755 C 0.62202 0.34496 0.13007 0.0
C2756 C 0.60959 0.28807 0.11899 0.0
C2757 C 0.63888 0.26245 0.12206 0.0
N2758 N 0.61741 0.32637 0.13021 0.0
N2759 N 0.63988 0.27952 0.13058 0.0
H2760 H 0.1554 0.85717 0.33567 0.0
H2761 H 0.24386 0.84818 0.37486 0.0
H2762 H 0.14686 0.89518 0.38225 0.0
H2763 H 0.23378 0.90195 0.40107 0.0
H2764 H 0.21439 0.8514 0.35763 0.0
H2765 H 0.18946 0.86041 0.33975 0.0
C2766 C 0.16069 0.86643 0.34656 0.0
C2767 C 0.14827 0.87559 0.35892 0.0
C2768 C 0.21886 0.86287 0.36657 0.0
C2769 C 0.18719 0.87895 0.36402 0.0
C2770 C 0.23579 0.86101 0.37644 0.0
C2771 C 0.24116 0.87469 0.38964 0.0
C2772 C 0.2072 0.8785 0.37 0.0
C2773 C 0.22999 0.8909 0.39129 0.0
C2774 C 0.18016 0.86808 0.34904 0.0
C2775 C 0.1559 0.88755 0.37264 0.0
N2776 N 0.21336 0.89216 0.38194 0.0
N2777 N 0.17484 0.88872 0.37494 0.0
H2778 H 0.64642 0.14701 0.35398 0.0
H2779 H 0.59242 0.23497 0.39487 0.0
H2780 H 0.58905 0.14566 0.37396 0.0
H2781 H 0.64924 0.2371 0.3739 0.0
H2782 H 0.58814 0.20452 0.37948 0.0
H2783 H 0.64511 0.18134 0.35364 0.0
C2784 C 0.6334 0.1539 0.35793 0.0
C2785 C 0.61796 0.1434 0.36443 0.0
C2786 C 0.60139 0.21183 0.37773 0.0
C2787 C 0.61645 0.1828 0.36426 0.0
C2788 C 0.60374 0.22932 0.38635 0.0
C2789 C 0.62121 0.23848 0.38564 0.0
C2790 C 0.61677 0.20326 0.3687 0.0
C2791 C 0.63553 0.2305 0.37467 0.0
C2792 C 0.63267 0.17355 0.35775 0.0
C2793 C 0.60141 0.15314 0.36913 0.0
N2794 N 0.63316 0.21312 0.36698 0.0
N2795 N 0.60122 0.17227 0.3693 0.0
H2796 H 0.34168 0.64551 0.33844 0.0
H2797 H 0.26355 0.59959 0.40428 0.0
H2798 H 0.35218 0.60225 0.37976 0.0
H2799 H 0.25585 0.65129 0.3735 0.0
H2800 H 0.29301 0.59423 0.38733 0.0
H2801 H 0.30782 0.64147 0.34334 0.0
C2802 C 0.33689 0.6348 0.34818 0.0
C2803 C 0.34981 0.62445 0.359 0.0
C2804 C 0.28468 0.60654 0.38396 0.0
C2805 C 0.31109 0.61985 0.36469 0.0
C2806 C 0.26784 0.60956 0.39357 0.0
C2807 C 0.25744 0.62609 0.39053 0.0
C2808 C 0.29125 0.62017 0.37127 0.0
C2809 C 0.26349 0.63842 0.37634 0.0
C2810 C 0.31754 0.63259 0.35102 0.0
C2811 C 0.34274 0.61075 0.37135 0.0
N2812 N 0.28021 0.63541 0.36749 0.0
N2813 N 0.32388 0.60904 0.37405 0.0
H2814 H 0.84821 0.25093 0.37484 0.0
H2815 H 0.88789 0.35488 0.36902 0.0
H2816 H 0.90222 0.268 0.39678 0.0
H2817 H 0.83001 0.33845 0.36131 0.0
H2818 H 0.89713 0.32158 0.36769 0.0
H2819 H 0.84604 0.28063 0.3579 0.0
C2820 C 0.85996 0.26061 0.37558 0.0
C2821 C 0.87523 0.25715 0.38765 0.0
C2822 C 0.88248 0.32534 0.36573 0.0
C2823 C 0.87251 0.29148 0.3687 0.0
C2824 C 0.87724 0.34431 0.36638 0.0
C2825 C 0.85815 0.34925 0.3656 0.0
C2826 C 0.8685 0.31142 0.36413 0.0
C2827 C 0.84485 0.3351 0.36228 0.0
C2828 C 0.85861 0.27769 0.36603 0.0
C2829 C 0.88996 0.27034 0.38803 0.0
N2830 N 0.85024 0.31681 0.36192 0.0
N2831 N 0.88804 0.28714 0.37909 0.0
H2832 H 0.12286 0.24228 0.64686 0.0
H2833 H 0.11998 0.14035 0.60506 0.0
H2834 H 0.09439 0.22856 0.59499 0.0
H2835 H 0.15798 0.15688 0.64949 0.0
H2836 H 0.11479 0.17347 0.59765 0.0
H2837 H 0.14038 0.21286 0.64465 0.0
C2838 C 0.12069 0.23338 0.63468 0.0
C2839 C 0.10682 0.23775 0.62129 0.0
C2840 C 0.12458 0.16988 0.60877 0.0
C2841 C 0.12645 0.20368 0.61898 0.0
C2842 C 0.12756 0.15092 0.613 0.0
C2843 C 0.13912 0.14581 0.62819 0.0
C2844 C 0.13297 0.18383 0.62001 0.0
C2845 C 0.14873 0.16014 0.63783 0.0
C2846 C 0.13061 0.21645 0.6335 0.0
C2847 C 0.10459 0.22552 0.6059 0.0
N2848 N 0.14512 0.1785 0.63386 0.0
N2849 N 0.11396 0.20887 0.60538 0.0
H2850 H 0.26871 0.10267 0.59737 0.0
H2851 H 0.34158 0.13953 0.67083 0.0
H2852 H 0.254 0.12164 0.65314 0.0
H2853 H 0.35569 0.13004 0.6126 0.0
H2854 H 0.30831 0.14013 0.66244 0.0
H2855 H 0.29875 0.11926 0.60002 0.0
C2856 C 0.27158 0.11077 0.60996 0.0
C2857 C 0.259 0.11043 0.62521 0.0
C2858 C 0.31862 0.13834 0.65135 0.0
C2859 C 0.29342 0.12922 0.62847 0.0
C2860 C 0.33762 0.13803 0.65617 0.0
C2861 C 0.35128 0.13445 0.64241 0.0
C2862 C 0.31321 0.13446 0.63273 0.0
C2863 C 0.34552 0.13275 0.62362 0.0
C2864 C 0.28874 0.12025 0.61148 0.0
C2865 C 0.26329 0.1214 0.64106 0.0
N2866 N 0.32683 0.13226 0.61937 0.0
N2867 N 0.28031 0.12997 0.64245 0.0
H2868 H 0.33834 0.34416 0.64723 0.0
H2869 H 0.40376 0.26939 0.5957 0.0
H2870 H 0.37913 0.3576 0.60425 0.0
H2871 H 0.37406 0.25887 0.64759 0.0
H2872 H 0.38648 0.29893 0.59217 0.0
H2873 H 0.34314 0.31073 0.6408 0.0
C2874 C 0.34794 0.34014 0.6361 0.0
C2875 C 0.35868 0.35372 0.62655 0.0
C2876 C 0.38342 0.28996 0.6041 0.0
C2877 C 0.36425 0.31546 0.61922 0.0
C2878 C 0.39324 0.27308 0.6061 0.0
C2879 C 0.39063 0.26186 0.62217 0.0
C2880 C 0.37093 0.2957 0.6183 0.0
C2881 C 0.3766 0.26713 0.63504 0.0
C2882 C 0.35072 0.32102 0.63251 0.0
C2883 C 0.3708 0.34762 0.61219 0.0
N2884 N 0.36754 0.28387 0.63303 0.0
N2885 N 0.37348 0.32893 0.60917 0.0
H2886 H 0.24325 0.37564 0.64775 0.0
H2887 H 0.14172 0.37899 0.604 0.0
H2888 H 0.23017 0.40517 0.59632 0.0
H2889 H 0.15751 0.34008 0.64788 0.0
H2890 H 0.17499 0.38483 0.59773 0.0
H2891 H 0.21366 0.35838 0.64491 0.0
C2892 C 0.23444 0.3781 0.63554 0.0
C2893 C 0.23905 0.39215 0.62244 0.0
C2894 C 0.17122 0.37472 0.60848 0.0
C2895 C 0.20485 0.3728 0.61938 0.0
C2896 C 0.15218 0.37136 0.61205 0.0
C2897 C 0.14679 0.35928 0.62671 0.0
C2898 C 0.18499 0.36619 0.61987 0.0
C2899 C 0.16099 0.34967 0.63657 0.0
C2900 C 0.21743 0.36833 0.634 0.0
C2901 C 0.22696 0.39478 0.60699 0.0
N2902 N 0.17943 0.35363 0.63325 0.0
N2903 N 0.21026 0.38551 0.6061 0.0
H2904 H 0.12108 0.35941 0.89917 0.0
H2905 H 0.09776 0.26744 0.91263 0.0
H2906 H 0.16006 0.34058 0.85656 0.0
H2907 H 0.12156 0.26012 0.85729 0.0
H2908 H 0.11551 0.29664 0.91608 0.0
H2909 H 0.11527 0.32692 0.90783 0.0
C2910 C 0.12887 0.34844 0.89201 0.0
C2911 C 0.14078 0.35275 0.87685 0.0
C2912 C 0.11695 0.28869 0.90318 0.0
C2913 C 0.13429 0.31519 0.88677 0.0
C2914 C 0.107 0.27185 0.90134 0.0
C2915 C 0.10788 0.26157 0.88449 0.0
C2916 C 0.12755 0.29545 0.8879 0.0
C2917 C 0.12035 0.26768 0.87046 0.0
C2918 C 0.12563 0.32974 0.89705 0.0
C2919 C 0.15056 0.33793 0.86818 0.0
N2920 N 0.1294 0.28442 0.87233 0.0
N2921 N 0.14675 0.31981 0.87295 0.0
H2922 H 0.15381 0.16696 0.85533 0.0
H2923 H 0.24262 0.12864 0.84869 0.0
H2924 H 0.14387 0.11995 0.89248 0.0
H2925 H 0.2309 0.1009 0.90139 0.0
H2926 H 0.21284 0.14539 0.85123 0.0
H2927 H 0.18764 0.16279 0.85968 0.0
C2928 C 0.15872 0.15591 0.86462 0.0
C2929 C 0.14594 0.14349 0.87319 0.0
C2930 C 0.21697 0.1362 0.86264 0.0
C2931 C 0.18476 0.13823 0.87775 0.0
C2932 C 0.2341 0.12661 0.86117 0.0
C2933 C 0.23916 0.11315 0.87471 0.0
C2934 C 0.20479 0.13225 0.87777 0.0
C2935 C 0.22738 0.1109 0.89044 0.0
C2936 C 0.17811 0.15338 0.8669 0.0
C2937 C 0.15316 0.12965 0.88529 0.0
N2938 N 0.2106 0.12002 0.89133 0.0
N2939 N 0.17206 0.12724 0.887 0.0
H2940 H 0.36717 0.14393 0.89185 0.0
H2941 H 0.37015 0.24879 0.85605 0.0
H2942 H 0.3549 0.16285 0.83551 0.0
H2943 H 0.39391 0.22998 0.90869 0.0
H2944 H 0.3522 0.21974 0.85411 0.0
H2945 H 0.36526 0.17662 0.90284 0.0
C2946 C 0.36342 0.15489 0.88193 0.0
C2947 C 0.36159 0.15084 0.8627 0.0
C2948 C 0.36092 0.22216 0.86638 0.0
C2949 C 0.35947 0.18807 0.87507 0.0
C2950 C 0.37104 0.23892 0.86763 0.0
C2951 C 0.38407 0.24159 0.88226 0.0
C2952 C 0.36403 0.20789 0.87971 0.0
C2953 C 0.38449 0.22821 0.89684 0.0
C2954 C 0.36242 0.17353 0.88818 0.0
C2955 C 0.35677 0.16549 0.85041 0.0
N2956 N 0.37509 0.21166 0.89492 0.0
N2957 N 0.35618 0.18348 0.85674 0.0
H2958 H 0.35888 0.37917 0.89714 0.0
H2959 H 0.25661 0.37545 0.85522 0.0
H2960 H 0.34241 0.34033 0.85344 0.0
H2961 H 0.27029 0.40478 0.9066 0.0
H2962 H 0.28634 0.3584 0.85748 0.0
H2963 H 0.32569 0.38487 0.90405 0.0
C2964 C 0.3483 0.37153 0.88926 0.0
C2965 C 0.35347 0.35953 0.87445 0.0
C2966 C 0.28269 0.36827 0.8685 0.0
C2967 C 0.31537 0.36626 0.88205 0.0
C2968 C 0.26558 0.37792 0.8673 0.0
C2969 C 0.26107 0.39186 0.88055 0.0
C2970 C 0.29548 0.37275 0.88292 0.0
C2971 C 0.2734 0.3945 0.8958 0.0
C2972 C 0.32931 0.3748 0.89319 0.0
C2973 C 0.33912 0.34989 0.86484 0.0
N2974 N 0.2902 0.38536 0.89635 0.0
N2975 N 0.32074 0.35377 0.86853 0.0
H2976 H 0.64317 0.16492 0.15466 0.0
H2977 H 0.64794 0.1306 0.24451 0.0
H2978 H 0.60613 0.11767 0.1456 0.0
H2979 H 0.59853 0.09808 0.23128 0.0
H2980 H 0.64412 0.14784 0.21518 0.0
H2981 H 0.6374 0.16255 0.18842 0.0
C2982 C 0.63361 0.1542 0.15974 0.0
C2983 C 0.62558 0.1411 0.14729 0.0
C2984 C 0.63359 0.13752 0.21886 0.0
C2985 C 0.61943 0.13782 0.18609 0.0
C2986 C 0.63577 0.12769 0.23578 0.0
C2987 C 0.62368 0.11275 0.24016 0.0
C2988 C 0.61921 0.13225 0.20626 0.0
C2989 C 0.6083 0.10936 0.22825 0.0
C2990 C 0.63049 0.15268 0.17912 0.0
C2991 C 0.613 0.1278 0.15467 0.0
N2992 N 0.60676 0.11872 0.21165 0.0
N2993 N 0.61059 0.1263 0.17357 0.0
H2994 H 0.59621 0.40184 0.26628 0.0
H2995 H 0.64736 0.33696 0.34169 0.0
H2996 H 0.6481 0.37212 0.25603 0.0
H2997 H 0.60331 0.37682 0.35438 0.0
H2998 H 0.64138 0.34158 0.30812 0.0
H2999 H 0.59231 0.38434 0.29566 0.0
C3000 C 0.60648 0.39118 0.26996 0.0
C3001 C 0.62266 0.38863 0.25889 0.0
C3002 C 0.63275 0.349 0.31826 0.0
C3003 C 0.61849 0.36883 0.29264 0.0
C3004 C 0.6361 0.34632 0.33747 0.0
C3005 C 0.6261 0.35685 0.3509 0.0
C3006 C 0.61927 0.36222 0.31246 0.0
C3007 C 0.6116 0.36866 0.34454 0.0
C3008 C 0.60431 0.38128 0.28677 0.0
C3009 C 0.63546 0.37456 0.26419 0.0
N3010 N 0.60882 0.37124 0.32578 0.0
N3011 N 0.63332 0.36546 0.28091 0.0
H3012 H 0.12163 0.65045 0.26245 0.0
H3013 H 0.12692 0.59224 0.35792 0.0
H3014 H 0.09969 0.5944 0.26973 0.0
H3015 H 0.1416 0.65093 0.35282 0.0
H3016 H 0.12547 0.59002 0.32364 0.0
H3017 H 0.13751 0.64781 0.29294 0.0
C3018 C 0.12069 0.63734 0.27017 0.0
C3019 C 0.10914 0.6227 0.26369 0.0
C3020 C 0.12935 0.6033 0.33 0.0
C3021 C 0.12689 0.61973 0.29873 0.0
C3022 C 0.13025 0.60457 0.34961 0.0
C3023 C 0.13396 0.62191 0.3583 0.0
C3024 C 0.13212 0.61949 0.319 0.0
C3025 C 0.13834 0.63735 0.34675 0.0
C3026 C 0.1296 0.63591 0.28767 0.0
C3027 C 0.10826 0.6061 0.27437 0.0
N3028 N 0.13698 0.63586 0.32772 0.0
N3029 N 0.11673 0.60518 0.29149 0.0
H3030 H 0.89561 0.12239 0.35756 0.0
H3031 H 0.90738 0.10502 0.26422 0.0
H3032 H 0.85079 0.16041 0.34225 0.0
H3033 H 0.8519 0.12885 0.25881 0.0
H3034 H 0.91116 0.12122 0.29429 0.0
H3035 H 0.90384 0.11929 0.32457 0.0
C3036 C 0.88783 0.13053 0.34728 0.0
C3037 C 0.87225 0.14138 0.35271 0.0
C3038 C 0.89818 0.12309 0.28657 0.0
C3039 C 0.88168 0.13804 0.31452 0.0
C3040 C 0.89621 0.11415 0.26917 0.0
C3041 C 0.8792 0.1154 0.25919 0.0
C3042 C 0.88281 0.13296 0.29423 0.0
C3043 C 0.86521 0.12746 0.26611 0.0
C3044 C 0.89262 0.12885 0.32828 0.0
C3045 C 0.86276 0.15166 0.33873 0.0
N3046 N 0.86714 0.13541 0.28342 0.0
N3047 N 0.86735 0.14941 0.32028 0.0
H3048 H 0.40256 0.90552 0.27174 0.0
H3049 H 0.35916 0.83185 0.33895 0.0
H3050 H 0.37733 0.85351 0.25326 0.0
H3051 H 0.37376 0.88782 0.35698 0.0
H3052 H 0.35773 0.84288 0.3065 0.0
H3053 H 0.38474 0.9033 0.30109 0.0
C3054 C 0.39284 0.89393 0.27362 0.0
C3055 C 0.39185 0.87941 0.26026 0.0
C3056 C 0.36077 0.85295 0.31752 0.0
C3057 C 0.37163 0.87662 0.29386 0.0
C3058 C 0.36154 0.84662 0.33605 0.0
C3059 C 0.36687 0.85891 0.35048 0.0
C3060 C 0.36608 0.87154 0.31335 0.0
C3061 C 0.36971 0.87792 0.34613 0.0
C3062 C 0.38264 0.89267 0.29038 0.0
C3063 C 0.37874 0.86494 0.26322 0.0
N3064 N 0.36983 0.88358 0.32783 0.0
N3065 N 0.36952 0.86366 0.2799 0.0
H3066 H 0.90781 0.39751 0.23391 0.0
H3067 H 0.85491 0.33497 0.15808 0.0
H3068 H 0.85572 0.36807 0.24389 0.0
H3069 H 0.89775 0.37613 0.14545 0.0
H3070 H 0.86241 0.33792 0.19151 0.0
H3071 H 0.91157 0.38022 0.20437 0.0
C3072 C 0.89752 0.38688 0.23022 0.0
C3073 C 0.8812 0.38452 0.24114 0.0
C3074 C 0.87045 0.34598 0.18138 0.0
C3075 C 0.88526 0.36495 0.20727 0.0
C3076 C 0.86622 0.34429 0.16225 0.0
C3077 C 0.87539 0.3557 0.14894 0.0
C3078 C 0.88399 0.35911 0.18725 0.0
C3079 C 0.89006 0.36733 0.15523 0.0
C3080 C 0.8996 0.37713 0.21329 0.0
C3081 C 0.86843 0.37044 0.23583 0.0
N3082 N 0.89368 0.36898 0.17395 0.0
N3083 N 0.87049 0.3615 0.21902 0.0
H3084 H 0.12574 0.89504 0.14127 0.0
H3085 H 0.13265 0.85136 0.24236 0.0
H3086 H 0.16406 0.85023 0.15588 0.0
H3087 H 0.09969 0.90047 0.22895 0.0
H3088 H 0.1503 0.85564 0.21311 0.0
H3089 H 0.12195 0.90216 0.17465 0.0
C3090 C 0.1337 0.88696 0.15146 0.0
C3091 C 0.14485 0.8717 0.14576 0.0
C3092 C 0.13957 0.86581 0.21678 0.0
C3093 C 0.14029 0.87954 0.1841 0.0
C3094 C 0.12961 0.86346 0.2336 0.0
C3095 C 0.11446 0.87537 0.23786 0.0
C3096 C 0.13415 0.88004 0.20411 0.0
C3097 C 0.11105 0.89076 0.22596 0.0
C3098 C 0.13151 0.89102 0.17057 0.0
C3099 C 0.15503 0.86192 0.15962 0.0
N3100 N 0.1205 0.89241 0.20942 0.0
N3101 N 0.15216 0.8657 0.17816 0.0
H3102 H 0.37473 0.64949 0.24273 0.0
H3103 H 0.33596 0.65005 0.15415 0.0
H3104 H 0.40205 0.59763 0.22706 0.0
H3105 H 0.38119 0.61163 0.14116 0.0
H3106 H 0.34026 0.6433 0.18753 0.0
H3107 H 0.35757 0.64908 0.21316 0.0
C3108 C 0.37659 0.63762 0.23336 0.0
C3109 C 0.39004 0.62371 0.23731 0.0
C3110 C 0.34929 0.63634 0.17745 0.0
C3111 C 0.37042 0.62311 0.20308 0.0
C3112 C 0.34667 0.64001 0.15829 0.0
C3113 C 0.35857 0.63179 0.14481 0.0
C3114 C 0.36409 0.62451 0.18318 0.0
C3115 C 0.37191 0.6186 0.15103 0.0
C3116 C 0.36675 0.63738 0.21632 0.0
C3117 C 0.39207 0.60884 0.22444 0.0
N3118 N 0.3745 0.61562 0.16975 0.0
N3119 N 0.38268 0.60915 0.20776 0.0
H3120 H 0.85705 0.40065 0.87965 0.0
H3121 H 0.75667 0.35542 0.8761 0.0
H3122 H 0.84232 0.35568 0.84161 0.0
H3123 H 0.76869 0.40733 0.90514 0.0
H3124 H 0.7859 0.35894 0.85841 0.0
H3125 H 0.82364 0.40708 0.8844 0.0
C3126 C 0.8468 0.39239 0.87196 0.0
C3127 C 0.8525 0.37734 0.86054 0.0
C3128 C 0.78195 0.36982 0.86832 0.0
C3129 C 0.81416 0.38438 0.86619 0.0
C3130 C 0.76513 0.36789 0.87833 0.0
C3131 C 0.7604 0.38089 0.89243 0.0
C3132 C 0.79424 0.38472 0.87262 0.0
C3133 C 0.77203 0.39671 0.89474 0.0
C3134 C 0.82768 0.39606 0.87469 0.0
C3135 C 0.83858 0.36727 0.85076 0.0
N3136 N 0.78861 0.39796 0.88528 0.0
N3137 N 0.82005 0.37068 0.85415 0.0
H3138 H 0.17534 0.84528 0.86729 0.0
H3139 H 0.10573 0.76736 0.89781 0.0
H3140 H 0.11578 0.85564 0.87205 0.0
H3141 H 0.16129 0.75537 0.8766 0.0
H3142 H 0.10694 0.79824 0.88267 0.0
H3143 H 0.16907 0.81165 0.86464 0.0
C3144 C 0.16088 0.84043 0.86727 0.0
C3145 C 0.14605 0.85311 0.87009 0.0
C3146 C 0.11865 0.78866 0.88081 0.0
C3147 C 0.13874 0.81461 0.86774 0.0
C3148 C 0.11793 0.77102 0.88942 0.0
C3149 C 0.13356 0.75895 0.88868 0.0
C3150 C 0.13528 0.79439 0.87177 0.0
C3151 C 0.14898 0.76429 0.87758 0.0
C3152 C 0.15727 0.82123 0.86577 0.0
C3153 C 0.12757 0.84623 0.86992 0.0
N3154 N 0.14965 0.78181 0.86996 0.0
N3155 N 0.12444 0.82734 0.86931 0.0
H3156 H 0.74866 0.14977 0.87454 0.0
H3157 H 0.6453 0.10963 0.86935 0.0
H3158 H 0.73284 0.09421 0.89313 0.0
H3159 H 0.66153 0.16769 0.86316 0.0
H3160 H 0.6785 0.10041 0.866 0.0
H3161 H 0.71914 0.15211 0.85739 0.0
C3162 C 0.73936 0.13771 0.87443 0.0
C3163 C 0.74299 0.12201 0.88586 0.0
C3164 C 0.6747 0.11512 0.8648 0.0
C3165 C 0.70873 0.12495 0.86679 0.0
C3166 C 0.65577 0.12035 0.86661 0.0
C3167 C 0.65085 0.13945 0.86687 0.0
C3168 C 0.6886 0.12912 0.8631 0.0
C3169 C 0.66488 0.15283 0.86337 0.0
C3170 C 0.72232 0.13917 0.86478 0.0
C3171 C 0.73031 0.10685 0.88501 0.0
N3172 N 0.68314 0.14744 0.8619 0.0
N3173 N 0.71345 0.10891 0.87616 0.0
H3174 H 0.4011 0.73278 0.89393 0.0
H3175 H 0.38631 0.64299 0.86303 0.0
H3176 H 0.3456 0.74589 0.87319 0.0
H3177 H 0.32829 0.65953 0.86965 0.0
H3178 H 0.39505 0.67626 0.86007 0.0
H3179 H 0.39922 0.70209 0.8788 0.0
C3180 C 0.38883 0.72945 0.88551 0.0
C3181 C 0.37337 0.74174 0.88506 0.0
C3182 C 0.38039 0.6726 0.86198 0.0
C3183 C 0.37097 0.70656 0.86773 0.0
C3184 C 0.37538 0.65361 0.86344 0.0
C3185 C 0.35663 0.64863 0.86708 0.0
C3186 C 0.36648 0.68653 0.86419 0.0
C3187 C 0.34298 0.66286 0.86732 0.0
C3188 C 0.38775 0.7119 0.87677 0.0
C3189 C 0.35781 0.7368 0.87395 0.0
N3190 N 0.3482 0.68116 0.86616 0.0
N3191 N 0.35679 0.71937 0.86619 0.0
H3192 H 0.83749 0.16399 0.64497 0.0
H3193 H 0.76727 0.08971 0.6078 0.0
H3194 H 0.85359 0.10685 0.63275 0.0
H3195 H 0.75112 0.14408 0.62935 0.0
H3196 H 0.7968 0.09195 0.6253 0.0
H3197 H 0.80483 0.15393 0.64798 0.0
C3198 C 0.83414 0.1492 0.64339 0.0
C3199 C 0.84809 0.13627 0.63827 0.0
C3200 C 0.78654 0.10312 0.62672 0.0
C3201 C 0.81066 0.12469 0.64097 0.0
C3202 C 0.76963 0.10181 0.61675 0.0
C3203 C 0.75698 0.11701 0.61657 0.0
C3204 C 0.79084 0.11983 0.63637 0.0
C3205 C 0.76054 0.13213 0.62877 0.0
C3206 C 0.81548 0.14342 0.6451 0.0
C3207 C 0.84314 0.11726 0.63657 0.0
N3208 N 0.77737 0.13341 0.63772 0.0
N3209 N 0.8247 0.1121 0.63736 0.0
H3210 H 0.34943 0.75881 0.62387 0.0
H3211 H 0.35654 0.84943 0.65951 0.0
H3212 H 0.40352 0.76895 0.59827 0.0
H3213 H 0.39286 0.85657 0.61138 0.0
H3214 H 0.36042 0.81522 0.65685 0.0
H3215 H 0.3515 0.78928 0.63957 0.0
C3216 C 0.36209 0.76712 0.62214 0.0
C3217 C 0.3762 0.76145 0.60952 0.0
C3218 C 0.36761 0.82427 0.64695 0.0
C3219 C 0.37864 0.7965 0.6273 0.0
C3220 C 0.36558 0.84381 0.6486 0.0
C3221 C 0.37413 0.85581 0.63543 0.0
C3222 C 0.37835 0.81681 0.63208 0.0
C3223 C 0.38575 0.84781 0.62162 0.0
C3224 C 0.36327 0.78461 0.63111 0.0
C3225 C 0.39216 0.77294 0.60762 0.0
N3226 N 0.3874 0.82884 0.62024 0.0
N3227 N 0.39273 0.79008 0.61602 0.0
H3228 H 0.6444 0.39722 0.61987 0.0
H3229 H 0.74365 0.34893 0.62479 0.0
H3230 H 0.65764 0.35286 0.65918 0.0
H3231 H 0.73293 0.40015 0.59408 0.0
H3232 H 0.71428 0.35359 0.64211 0.0
H3233 H 0.67799 0.40212 0.61467 0.0
C3234 C 0.65438 0.38878 0.62772 0.0
C3235 C 0.64817 0.37437 0.6397 0.0
C3236 C 0.71855 0.36407 0.63191 0.0
C3237 C 0.68673 0.37963 0.63351 0.0
C3238 C 0.73543 0.36148 0.62211 0.0
C3239 C 0.74056 0.37397 0.6077 0.0
C3240 C 0.70665 0.37914 0.62709 0.0
C3241 C 0.72927 0.38994 0.60478 0.0
C3242 C 0.6736 0.39157 0.62474 0.0
C3243 C 0.66177 0.364 0.64965 0.0
N3244 N 0.71267 0.39185 0.61407 0.0
N3245 N 0.68039 0.36654 0.64601 0.0
H3246 H 0.0991 0.73371 0.60025 0.0
H3247 H 0.11046 0.64376 0.63247 0.0
H3248 H 0.15324 0.74599 0.62476 0.0
H3249 H 0.16897 0.65976 0.63176 0.0
H3250 H 0.10173 0.67715 0.63424 0.0
H3251 H 0.09938 0.70311 0.61568 0.0
C3252 C 0.11073 0.7302 0.60948 0.0
C3253 C 0.12633 0.74224 0.61093 0.0
C3254 C 0.11648 0.67336 0.63389 0.0
C3255 C 0.12682 0.70719 0.62875 0.0
C3256 C 0.12144 0.6543 0.63314 0.0
C3257 C 0.14042 0.64915 0.6315 0.0
C3258 C 0.13068 0.68715 0.63298 0.0
C3259 C 0.15415 0.66324 0.63256 0.0
C3260 C 0.11086 0.71271 0.61842 0.0
C3261 C 0.14096 0.73712 0.62315 0.0
N3262 N 0.14901 0.6816 0.63299 0.0
N3263 N 0.14108 0.71977 0.63117 0.0
H3264 H 0.85686 0.83834 0.3312 0.0
H3265 H 0.90198 0.7697 0.40327 0.0
H3266 H 0.8733 0.85541 0.38702 0.0
H3267 H 0.87676 0.75238 0.35081 0.0
H3268 H 0.88431 0.79916 0.40158 0.0
H3269 H 0.85617 0.80569 0.34164 0.0
C3270 C 0.85983 0.83518 0.34583 0.0
C3271 C 0.86543 0.84942 0.35822 0.0
C3272 C 0.8822 0.78869 0.39072 0.0
C3273 C 0.86545 0.81207 0.37015 0.0
C3274 C 0.8923 0.77186 0.39168 0.0
C3275 C 0.89124 0.75878 0.37691 0.0
C3276 C 0.87117 0.79251 0.37474 0.0
C3277 C 0.8782 0.76211 0.36244 0.0
C3278 C 0.85948 0.81654 0.35181 0.0
C3279 C 0.86901 0.84473 0.37704 0.0
N3280 N 0.86905 0.77884 0.36149 0.0
N3281 N 0.8695 0.82634 0.38233 0.0
H3282 H 0.73488 0.903 0.40735 0.0
H3283 H 0.64227 0.87872 0.39973 0.0
H3284 H 0.7399 0.8766 0.35296 0.0
H3285 H 0.65909 0.83827 0.35769 0.0
H3286 H 0.67513 0.88529 0.40617 0.0
H3287 H 0.7057 0.8857 0.41277 0.0
C3288 C 0.72993 0.89331 0.39667 0.0
C3289 C 0.73959 0.89149 0.37954 0.0
C3290 C 0.67184 0.87446 0.396 0.0
C3291 C 0.70567 0.87235 0.38516 0.0
C3292 C 0.65292 0.87078 0.39224 0.0
C3293 C 0.64788 0.85817 0.37792 0.0
C3294 C 0.6859 0.86553 0.38527 0.0
C3295 C 0.66231 0.84825 0.36874 0.0
C3296 C 0.7131 0.88362 0.39964 0.0
C3297 C 0.73281 0.87851 0.36632 0.0
N3298 N 0.68065 0.85247 0.37226 0.0
N3299 N 0.71607 0.86971 0.36925 0.0
H3300 H 0.65967 0.65599 0.35515 0.0
H3301 H 0.59385 0.72844 0.40953 0.0
H3302 H 0.61917 0.64064 0.39777 0.0
H3303 H 0.62283 0.74065 0.35758 0.0
H3304 H 0.61139 0.69893 0.41196 0.0
H3305 H 0.65452 0.68912 0.36274 0.0
C3306 C 0.65006 0.65952 0.36645 0.0
C3307 C 0.6395 0.6455 0.37555 0.0
C3308 C 0.61423 0.70828 0.40026 0.0
C3309 C 0.63352 0.68343 0.3842 0.0
C3310 C 0.60425 0.72513 0.39887 0.0
C3311 C 0.60656 0.73684 0.3831 0.0
C3312 C 0.62662 0.70307 0.38577 0.0
C3313 C 0.6205 0.73204 0.36993 0.0
C3314 C 0.64708 0.67848 0.3707 0.0
C3315 C 0.62736 0.65098 0.39015 0.0
N3316 N 0.62973 0.71534 0.37136 0.0
N3317 N 0.62448 0.66952 0.39382 0.0
H3318 H 0.75588 0.62348 0.35346 0.0
H3319 H 0.85763 0.61831 0.39671 0.0
H3320 H 0.76883 0.59331 0.40455 0.0
H3321 H 0.84225 0.65756 0.35299 0.0
H3322 H 0.82429 0.6129 0.40306 0.0
H3323 H 0.78577 0.64023 0.35623 0.0
C3324 C 0.76473 0.62078 0.36558 0.0
C3325 C 0.75998 0.6067 0.3786 0.0
C3326 C 0.82817 0.62299 0.39232 0.0
C3327 C 0.79453 0.62546 0.38157 0.0
C3328 C 0.84725 0.6261 0.38871 0.0
C3329 C 0.85277 0.63815 0.37407 0.0
C3330 C 0.81449 0.63175 0.38101 0.0
C3331 C 0.83867 0.64798 0.36428 0.0
C3332 C 0.78191 0.63025 0.36708 0.0
C3333 C 0.77213 0.60374 0.39394 0.0
N3334 N 0.82019 0.64427 0.36765 0.0
N3335 N 0.78899 0.61273 0.39479 0.0
H3336 H 0.87184 0.6418 0.1097 0.0
H3337 H 0.87399 0.74711 0.14539 0.0
H3338 H 0.86054 0.6606 0.16626 0.0
H3339 H 0.90098 0.72768 0.09455 0.0
H3340 H 0.85657 0.71768 0.14702 0.0
H3341 H 0.87043 0.67461 0.09891 0.0
C3342 C 0.86837 0.65277 0.11969 0.0
C3343 C 0.86665 0.64868 0.13892 0.0
C3344 C 0.86592 0.72005 0.13521 0.0
C3345 C 0.86505 0.68594 0.12679 0.0
C3346 C 0.87577 0.73697 0.13415 0.0
C3347 C 0.88938 0.73967 0.12007 0.0
C3348 C 0.86985 0.70568 0.12224 0.0
C3349 C 0.89103 0.72593 0.10596 0.0
C3350 C 0.86766 0.67146 0.11356 0.0
C3351 C 0.86226 0.66331 0.15135 0.0
N3352 N 0.88175 0.7093 0.10765 0.0
N3353 N 0.86187 0.68133 0.14513 0.0
H3354 H 0.75816 0.86912 0.14356 0.0
H3355 H 0.84739 0.83346 0.13972 0.0
H3356 H 0.77041 0.89784 0.09154 0.0
H3357 H 0.8572 0.88175 0.10422 0.0
H3358 H 0.81378 0.83577 0.13298 0.0
H3359 H 0.78776 0.85223 0.1409 0.0
C3360 C 0.76668 0.87124 0.1311 0.0
C3361 C 0.76194 0.88517 0.11793 0.0
C3362 C 0.82324 0.84585 0.12662 0.0
C3363 C 0.79624 0.86603 0.11484 0.0
C3364 C 0.84253 0.84441 0.13029 0.0
C3365 C 0.85512 0.85777 0.12295 0.0
C3366 C 0.8165 0.86087 0.11566 0.0
C3367 C 0.848 0.87137 0.11053 0.0
C3368 C 0.78377 0.8616 0.12959 0.0
C3369 C 0.77371 0.88747 0.1022 0.0
N3370 N 0.82915 0.87275 0.10752 0.0
N3371 N 0.79055 0.87842 0.10137 0.0
H3372 H 0.6268 0.75535 0.14997 0.0
H3373 H 0.66805 0.84229 0.14752 0.0
H3374 H 0.59974 0.76992 0.09759 0.0
H3375 H 0.62197 0.85548 0.11016 0.0
H3376 H 0.66331 0.80893 0.14102 0.0
H3377 H 0.64503 0.78417 0.14826 0.0
C3378 C 0.62521 0.76427 0.13771 0.0
C3379 C 0.61149 0.76032 0.12406 0.0
C3380 C 0.65423 0.81908 0.13422 0.0
C3381 C 0.63233 0.79368 0.12199 0.0
C3382 C 0.65709 0.83821 0.13774 0.0
C3383 C 0.64502 0.85171 0.12981 0.0
C3384 C 0.63906 0.81344 0.12283 0.0
C3385 C 0.63135 0.84557 0.11693 0.0
C3386 C 0.63568 0.78087 0.13672 0.0
C3387 C 0.60989 0.7726 0.10864 0.0
N3388 N 0.62855 0.82688 0.1141 0.0
N3389 N 0.61984 0.78892 0.10825 0.0
H3390 H 0.74648 0.62684 0.14925 0.0
H3391 H 0.64244 0.62855 0.10941 0.0
H3392 H 0.72937 0.60057 0.09723 0.0
H3393 H 0.65885 0.63931 0.16681 0.0
H3394 H 0.67571 0.63028 0.09999 0.0
H3395 H 0.71669 0.64378 0.15009 0.0
C3396 C 0.73677 0.62512 0.13762 0.0
C3397 C 0.74022 0.61187 0.12339 0.0
C3398 C 0.67193 0.63287 0.11454 0.0
C3399 C 0.70584 0.63085 0.1246 0.0
C3400 C 0.65299 0.632 0.11987 0.0
C3401 C 0.6481 0.63349 0.13892 0.0
C3402 C 0.68585 0.63541 0.12839 0.0
C3403 C 0.66219 0.63781 0.15201 0.0
C3404 C 0.71965 0.6347 0.13821 0.0
C3405 C 0.72702 0.61027 0.10875 0.0
N3406 N 0.68047 0.63836 0.14655 0.0
N3407 N 0.71019 0.61928 0.10995 0.0
H3408 H 0.39463 0.90076 0.76593 0.0
H3409 H 0.32677 0.86666 0.84357 0.0
H3410 H 0.33953 0.87836 0.75397 0.0
H3411 H 0.3863 0.87267 0.8535 0.0
H3412 H 0.33282 0.86457 0.80984 0.0
H3413 H 0.3943 0.88458 0.7963 0.0
C3414 C 0.38272 0.89194 0.76948 0.0
C3415 C 0.36692 0.89119 0.75763 0.0
C3416 C 0.34467 0.86585 0.81934 0.0
C3417 C 0.36623 0.873 0.79246 0.0
C3418 C 0.34119 0.86705 0.8386 0.0
C3419 C 0.35605 0.8701 0.85117 0.0
C3420 C 0.36309 0.8684 0.8126 0.0
C3421 C 0.37448 0.8704 0.84415 0.0
C3422 C 0.38252 0.8827 0.78682 0.0
C3423 C 0.35194 0.87942 0.76276 0.0
N3424 N 0.37746 0.87012 0.82523 0.0
N3425 N 0.35175 0.87118 0.78001 0.0
H3426 H 0.40357 0.59741 0.73184 0.0
H3427 H 0.3502 0.66204 0.6576 0.0
H3428 H 0.35136 0.62634 0.74291 0.0
H3429 H 0.39396 0.62229 0.6436 0.0
H3430 H 0.35697 0.65718 0.69097 0.0
H3431 H 0.40647 0.61464 0.70219 0.0
C3432 C 0.39295 0.60774 0.72825 0.0
C3433 C 0.37699 0.61015 0.73967 0.0
C3434 C 0.36535 0.64983 0.68058 0.0
C3435 C 0.38016 0.62982 0.70571 0.0
C3436 C 0.36156 0.65265 0.66149 0.0
C3437 C 0.37124 0.64222 0.64775 0.0
C3438 C 0.37896 0.63656 0.68597 0.0
C3439 C 0.38591 0.63038 0.65369 0.0
C3440 C 0.3946 0.61754 0.7113 0.0
C3441 C 0.36384 0.62396 0.7345 0.0
N3442 N 0.38911 0.62764 0.67236 0.0
N3443 N 0.36553 0.63301 0.71771 0.0
H3444 H 0.89906 0.40295 0.72993 0.0
H3445 H 0.86375 0.32846 0.65852 0.0
H3446 H 0.87766 0.3486 0.7463 0.0
H3447 H 0.87135 0.38662 0.64329 0.0
H3448 H 0.86215 0.33752 0.69158 0.0
H3449 H 0.88271 0.39994 0.69978 0.0
C3450 C 0.89042 0.39065 0.7274 0.0
C3451 C 0.89004 0.37584 0.74048 0.0
C3452 C 0.86369 0.34844 0.68106 0.0
C3453 C 0.87162 0.3721 0.70591 0.0
C3454 C 0.86459 0.34324 0.66218 0.0
C3455 C 0.86792 0.35681 0.6483 0.0
C3456 C 0.86681 0.36729 0.68613 0.0
C3457 C 0.86882 0.37575 0.65367 0.0
C3458 C 0.8811 0.38891 0.71017 0.0
C3459 C 0.87847 0.36032 0.7366 0.0
N3460 N 0.86881 0.38041 0.67226 0.0
N3461 N 0.87011 0.35865 0.71949 0.0
H3462 H 0.10172 0.89728 0.73389 0.0
H3463 H 0.11495 0.86649 0.6436 0.0
H3464 H 0.15782 0.87741 0.74569 0.0
H3465 H 0.17324 0.87385 0.65881 0.0
H3466 H 0.10698 0.86365 0.67712 0.0
H3467 H 0.10316 0.88229 0.70308 0.0
C3468 C 0.11405 0.88908 0.73025 0.0
C3469 C 0.12978 0.88883 0.74221 0.0
C3470 C 0.12153 0.8657 0.67312 0.0
C3471 C 0.13166 0.87165 0.70689 0.0
C3472 C 0.12609 0.86709 0.65399 0.0
C3473 C 0.14469 0.87089 0.64856 0.0
C3474 C 0.13573 0.86813 0.68674 0.0
C3475 C 0.15865 0.87138 0.66249 0.0
C3476 C 0.11487 0.88042 0.71263 0.0
C3477 C 0.1454 0.87801 0.73688 0.0
N3478 N 0.15385 0.87027 0.68093 0.0
N3479 N 0.14616 0.87032 0.71938 0.0
H3480 H 0.62631 0.15085 0.7439 0.0
H3481 H 0.66525 0.14589 0.65546 0.0
H3482 H 0.5973 0.09929 0.73052 0.0
H3483 H 0.61775 0.10985 0.64394 0.0
H3484 H 0.66072 0.14056 0.68909 0.0
H3485 H 0.64334 0.14862 0.71429 0.0
C3486 C 0.62404 0.13866 0.73505 0.0
C3487 C 0.61016 0.12538 0.7396 0.0
C3488 C 0.65127 0.13381 0.67925 0.0
C3489 C 0.6296 0.12268 0.70539 0.0
C3490 C 0.654 0.13665 0.65997 0.0
C3491 C 0.64155 0.12871 0.64683 0.0
C3492 C 0.63585 0.12306 0.68543 0.0
C3493 C 0.62748 0.11657 0.65353 0.0
C3494 C 0.6338 0.13737 0.71801 0.0
C3495 C 0.60763 0.11004 0.72739 0.0
N3496 N 0.62485 0.11436 0.67236 0.0
N3497 N 0.61693 0.10933 0.71069 0.0
H3498 H 0.0889 0.62557 0.85612 0.0
H3499 H 0.14933 0.62173 0.76201 0.0
H3500 H 0.14746 0.64132 0.85226 0.0
H3501 H 0.09419 0.59729 0.76855 0.0
H3502 H 0.14534 0.63791 0.79218 0.0
H3503 H 0.0874 0.62421 0.82179 0.0
C3504 C 0.10134 0.62916 0.84807 0.0
C3505 C 0.11846 0.63312 0.85712 0.0
C3506 C 0.13392 0.62938 0.7868 0.0
C3507 C 0.11686 0.6314 0.81779 0.0
C3508 C 0.13612 0.6203 0.76949 0.0
C3509 C 0.12216 0.60798 0.76294 0.0
C3510 C 0.11766 0.62607 0.79759 0.0
C3511 C 0.10539 0.60648 0.77327 0.0
C3512 C 0.10048 0.62831 0.82844 0.0
C3513 C 0.13405 0.63785 0.84591 0.0
N3514 N 0.10373 0.61515 0.79023 0.0
N3515 N 0.13297 0.63653 0.82684 0.0
H3516 H 0.83703 0.15242 0.84424 0.0
H3517 H 0.90114 0.09806 0.77041 0.0
H3518 H 0.87517 0.10727 0.85832 0.0
H3519 H 0.8716 0.1497 0.75849 0.0
H3520 H 0.8839 0.09541 0.80008 0.0
H3521 H 0.84181 0.14558 0.81087 0.0
C3522 C 0.84606 0.14076 0.84037 0.0
C3523 C 0.85607 0.13068 0.85413 0.0
C3524 C 0.88086 0.1071 0.79079 0.0
C3525 C 0.86167 0.1229 0.81591 0.0
C3526 C 0.89065 0.10859 0.77383 0.0
C3527 C 0.88805 0.12431 0.76214 0.0
C3528 C 0.86844 0.12149 0.79617 0.0
C3529 C 0.87411 0.13739 0.76711 0.0
C3530 C 0.84883 0.13693 0.82128 0.0
C3531 C 0.86742 0.11563 0.84821 0.0
N3532 N 0.86509 0.13589 0.78394 0.0
N3533 N 0.87015 0.11241 0.82955 0.0
H3534 H 0.5997 0.40549 0.76814 0.0
H3535 H 0.66301 0.35069 0.84226 0.0
H3536 H 0.62843 0.3534 0.75644 0.0
H3537 H 0.62457 0.39567 0.85598 0.0
H3538 H 0.65872 0.35769 0.80884 0.0
H3539 H 0.61729 0.40824 0.79761 0.0
C3540 C 0.61019 0.39495 0.77151 0.0
C3541 C 0.61242 0.37905 0.76001 0.0
C3542 C 0.65155 0.36629 0.81919 0.0
C3543 C 0.63228 0.38186 0.79387 0.0
C3544 C 0.65403 0.36235 0.83831 0.0
C3545 C 0.64379 0.37234 0.85197 0.0
C3546 C 0.6388 0.38035 0.81369 0.0
C3547 C 0.63249 0.38738 0.84595 0.0
C3548 C 0.62013 0.39645 0.78839 0.0
C3549 C 0.62625 0.36585 0.76494 0.0
N3550 N 0.63007 0.39073 0.82726 0.0
N3551 N 0.63538 0.36733 0.78173 0.0
H3552 H 0.96843 0.67042 0.30156 0.0
H3553 H 0.04168 0.60054 0.25471 0.0
H3554 H 0.9607 0.6102 0.30191 0.0
H3555 H 0.03844 0.65936 0.24027 0.0
H3556 H 0.01176 0.6034 0.27162 0.0
H3557 H 0.9944 0.66658 0.27932 0.0
C3558 C 0.97221 0.65638 0.29697 0.0
C3559 C 0.96247 0.64059 0.30367 0.0
C3560 C 0.01741 0.6156 0.26446 0.0
C3561 C 0.99214 0.6361 0.27822 0.0
C3562 C 0.03442 0.61395 0.25477 0.0
C3563 C 0.04248 0.62974 0.24613 0.0
C3564 C 0.00863 0.63325 0.26579 0.0
C3565 C 0.0326 0.64682 0.24664 0.0
C3566 C 0.98694 0.65421 0.28417 0.0
C3567 C 0.96786 0.62275 0.29713 0.0
N3568 N 0.01633 0.6482 0.25659 0.0
N3569 N 0.98245 0.62098 0.28488 0.0
H3570 H 0.87422 0.97997 0.32236 0.0
H3571 H 0.86357 0.03169 0.22675 0.0
H3572 H 0.83215 0.95743 0.28481 0.0
H3573 H 0.85694 0.06174 0.27925 0.0
H3574 H 0.85886 0.00194 0.24401 0.0
H3575 H 0.87622 0.00812 0.30264 0.0
C3576 C 0.8655 0.98093 0.30987 0.0
C3577 C 0.85293 0.96651 0.30518 0.0
C3578 C 0.85845 0.01518 0.25155 0.0
C3579 C 0.85551 0.9983 0.28249 0.0
C3580 C 0.86111 0.03211 0.24178 0.0
C3581 C 0.86124 0.0493 0.25159 0.0
C3582 C 0.85625 0.01557 0.27116 0.0
C3583 C 0.85787 0.04891 0.27111 0.0
C3584 C 0.86663 0.99694 0.29871 0.0
C3585 C 0.84187 0.96842 0.2889 0.0
N3586 N 0.85586 0.03234 0.28026 0.0
N3587 N 0.84352 0.98406 0.27794 0.0
H3588 H 0.54149 0.88745 0.30656 0.0
H3589 H 0.46275 0.84076 0.24118 0.0
H3590 H 0.53166 0.82761 0.30373 0.0
H3591 H 0.46106 0.89885 0.2586 0.0
H3592 H 0.49174 0.83649 0.25931 0.0
H3593 H 0.51525 0.89245 0.28486 0.0
C3594 C 0.53383 0.87535 0.30136 0.0
C3595 C 0.53871 0.85707 0.30702 0.0
C3596 C 0.48513 0.85022 0.25899 0.0
C3597 C 0.50883 0.86272 0.28203 0.0
C3598 C 0.46873 0.85273 0.24847 0.0
C3599 C 0.45954 0.8702 0.24839 0.0
C3600 C 0.49245 0.86533 0.26939 0.0
C3601 C 0.4677 0.88514 0.25837 0.0
C3602 C 0.51886 0.87824 0.28898 0.0
C3603 C 0.52829 0.84193 0.29983 0.0
N3604 N 0.48368 0.88235 0.26853 0.0
N3605 N 0.51385 0.84509 0.28766 0.0
H3606 H 0.62512 0.47055 0.22591 0.0
H3607 H 0.62034 0.54752 0.28702 0.0
H3608 H 0.65436 0.44422 0.27212 0.0
H3609 H 0.66946 0.52341 0.31346 0.0
H3610 H 0.61869 0.52043 0.26602 0.0
H3611 H 0.62814 0.50104 0.24197 0.0
C3612 C 0.63221 0.47127 0.23939 0.0
C3613 C 0.63921 0.45493 0.24792 0.0
C3614 C 0.63007 0.52122 0.27612 0.0
C3615 C 0.64243 0.48938 0.26647 0.0
C3616 C 0.63088 0.53658 0.28831 0.0
C3617 C 0.64505 0.53769 0.30205 0.0
C3618 C 0.6435 0.50682 0.27775 0.0
C3619 C 0.65831 0.52313 0.30308 0.0
C3620 C 0.63374 0.48857 0.24866 0.0
C3621 C 0.64846 0.4565 0.26529 0.0
N3622 N 0.65709 0.5082 0.2912 0.0
N3623 N 0.64978 0.47341 0.274 0.0
H3624 H 0.06197 0.83752 0.22536 0.0
H3625 H 0.97573 0.82217 0.18304 0.0
H3626 H 0.03188 0.87084 0.26612 0.0
H3627 H 0.96038 0.87531 0.20814 0.0
H3628 H 0.00372 0.82129 0.20281 0.0
H3629 H 0.03292 0.83302 0.2078 0.0
C3630 C 0.04905 0.84357 0.23077 0.0
C3631 C 0.04919 0.85453 0.24715 0.0
C3632 C 0.99443 0.83331 0.20381 0.0
C3633 C 0.01572 0.84923 0.22732 0.0
C3634 C 0.97834 0.83375 0.19259 0.0
C3635 C 0.96584 0.84898 0.19372 0.0
C3636 C 0.99816 0.84831 0.21615 0.0
C3637 C 0.96977 0.86342 0.20663 0.0
C3638 C 0.03241 0.84086 0.22084 0.0
C3639 C 0.03221 0.86219 0.25358 0.0
N3640 N 0.98563 0.86275 0.21732 0.0
N3641 N 0.01612 0.85961 0.24347 0.0
H3642 H 0.66168 0.0611 0.22735 0.0
H3643 H 0.68118 0.97476 0.18661 0.0
H3644 H 0.63068 0.03006 0.26923 0.0
H3645 H 0.62915 0.95743 0.21279 0.0
H3646 H 0.68081 0.00328 0.20569 0.0
H3647 H 0.66752 0.03201 0.21027 0.0
C3648 C 0.65638 0.04801 0.23308 0.0
C3649 C 0.64566 0.04789 0.24965 0.0
C3650 C 0.66932 0.9934 0.20709 0.0
C3651 C 0.65255 0.01437 0.23037 0.0
C3652 C 0.6696 0.97702 0.19628 0.0
C3653 C 0.65503 0.96382 0.1979 0.0
C3654 C 0.65429 0.99666 0.21955 0.0
C3655 C 0.64055 0.96735 0.2109 0.0
C3656 C 0.65987 0.03135 0.22343 0.0
C3657 C 0.63907 0.03064 0.25652 0.0
N3658 N 0.64053 0.98345 0.22121 0.0
N3659 N 0.6424 0.01453 0.24667 0.0
H3660 H 0.46124 0.66013 0.26292 0.0
H3661 H 0.53407 0.61215 0.19197 0.0
H3662 H 0.45769 0.60265 0.24389 0.0
H3663 H 0.53388 0.67164 0.20419 0.0
H3664 H 0.50921 0.60759 0.21502 0.0
H3665 H 0.49119 0.66348 0.24615 0.0
C3666 C 0.46703 0.64807 0.25562 0.0
C3667 C 0.45697 0.63111 0.25467 0.0
C3668 C 0.51462 0.62165 0.21276 0.0
C3669 C 0.49092 0.63494 0.2352 0.0
C3670 C 0.52882 0.6243 0.19953 0.0
C3671 C 0.53593 0.64237 0.19597 0.0
C3672 C 0.50735 0.63718 0.22254 0.0
C3673 C 0.52868 0.6575 0.20638 0.0
C3674 C 0.484 0.65005 0.24589 0.0
C3675 C 0.46495 0.61601 0.24482 0.0
N3676 N 0.51468 0.65458 0.21913 0.0
N3677 N 0.48136 0.61833 0.23533 0.0
H3678 H 0.83222 0.54342 0.21313 0.0
H3679 H 0.85794 0.43728 0.21893 0.0
H3680 H 0.87489 0.51951 0.17713 0.0
H3681 H 0.86249 0.46862 0.27089 0.0
H3682 H 0.85451 0.46665 0.20183 0.0
H3683 H 0.83419 0.51519 0.23339 0.0
C3684 C 0.84192 0.53223 0.20951 0.0
C3685 C 0.85343 0.53366 0.19352 0.0
C3686 C 0.85622 0.46703 0.21698 0.0
C3687 C 0.85542 0.50173 0.21611 0.0
C3688 C 0.85842 0.45031 0.2268 0.0
C3689 C 0.86124 0.45043 0.24639 0.0
C3690 C 0.85623 0.48406 0.22677 0.0
C3691 C 0.86057 0.46784 0.2558 0.0
C3692 C 0.84311 0.51633 0.22108 0.0
C3693 C 0.86586 0.51894 0.1894 0.0
N3694 N 0.85816 0.48408 0.24586 0.0
N3695 N 0.86634 0.50345 0.20049 0.0
H3696 H 0.29042 0.96123 0.66367 0.0
H3697 H 0.25475 0.04512 0.59786 0.0
H3698 H 0.31083 0.97118 0.60729 0.0
H3699 H 0.23452 0.03562 0.65433 0.0
H3700 H 0.27215 0.01549 0.59949 0.0
H3701 H 0.26708 0.98611 0.65919 0.0
C3702 C 0.28994 0.96858 0.65032 0.0
C3703 C 0.30274 0.96424 0.6359 0.0
C3704 C 0.26367 0.01972 0.61142 0.0
C3705 C 0.27603 0.99271 0.63067 0.0
C3706 C 0.2537 0.03661 0.61046 0.0
C3707 C 0.24328 0.04291 0.62602 0.0
C3708 C 0.26336 0.00913 0.62812 0.0
C3709 C 0.24228 0.03126 0.64196 0.0
C3710 C 0.27658 0.98276 0.64775 0.0
C3711 C 0.30137 0.97415 0.61886 0.0
N3712 N 0.25241 0.01507 0.64269 0.0
N3713 N 0.28835 0.98799 0.61677 0.0
H3714 H 0.46012 0.24264 0.66503 0.0
H3715 H 0.53944 0.30334 0.61288 0.0
H3716 H 0.45947 0.25494 0.6056 0.0
H3717 H 0.53145 0.30369 0.67312 0.0
H3718 H 0.5132 0.2814 0.60984 0.0
H3719 H 0.48975 0.26013 0.66797 0.0
C3720 C 0.46648 0.24863 0.65253 0.0
C3721 C 0.45737 0.2474 0.63505 0.0
C3722 C 0.5172 0.28624 0.62373 0.0
C3723 C 0.49097 0.26762 0.63834 0.0
C3724 C 0.53218 0.2988 0.62549 0.0
C3725 C 0.53758 0.30547 0.64328 0.0
C3726 C 0.5076 0.28016 0.63989 0.0
C3727 C 0.52767 0.29902 0.65912 0.0
C3728 C 0.48324 0.25879 0.65425 0.0
C3729 C 0.46603 0.25566 0.61934 0.0
N3730 N 0.51314 0.28671 0.65705 0.0
N3731 N 0.48229 0.2655 0.62137 0.0
H3732 H 0.19139 0.53443 0.614 0.0
H3733 H 0.26288 0.46243 0.66224 0.0
H3734 H 0.20388 0.53474 0.67349 0.0
H3735 H 0.24598 0.46018 0.60397 0.0
H3736 H 0.24575 0.49214 0.66571 0.0
H3737 H 0.21512 0.51024 0.60941 0.0
C3738 C 0.19915 0.52943 0.62614 0.0
C3739 C 0.19546 0.53645 0.64422 0.0
C3740 C 0.24605 0.48531 0.65209 0.0
C3741 C 0.22279 0.50864 0.639 0.0
C3742 C 0.25599 0.46847 0.65005 0.0
C3743 C 0.2557 0.45882 0.63282 0.0
C3744 C 0.23581 0.49249 0.63677 0.0
C3745 C 0.24636 0.46711 0.61755 0.0
C3746 C 0.21278 0.51562 0.62347 0.0
C3747 C 0.20616 0.52958 0.65934 0.0
N3748 N 0.23663 0.48336 0.61993 0.0
N3749 N 0.21926 0.51591 0.65641 0.0
H3750 H 0.03891 0.24425 0.60146 0.0
H3751 H 0.96159 0.20375 0.67248 0.0
H3752 H 0.03563 0.26037 0.65989 0.0
H3753 H 0.96745 0.18668 0.61444 0.0
H3754 H 0.98597 0.22764 0.66742 0.0
H3755 H 0.00951 0.2268 0.60496 0.0
C3756 C 0.03177 0.24439 0.61493 0.0
C3757 C 0.03975 0.25361 0.63043 0.0
C3758 C 0.9818 0.21873 0.65578 0.0
C3759 C 0.00632 0.23339 0.63471 0.0
C3760 C 0.96795 0.20506 0.65868 0.0
C3761 C 0.96265 0.19305 0.64393 0.0
C3762 C 0.99035 0.22038 0.638 0.0
C3763 C 0.97123 0.19546 0.6263 0.0
C3764 C 0.01504 0.23437 0.61698 0.0
C3765 C 0.02989 0.25349 0.64757 0.0
N3766 N 0.98469 0.20876 0.62387 0.0
N3767 N 0.01382 0.24327 0.64934 0.0
H3768 H 0.25293 0.45983 0.89988 0.0
H3769 H 0.29337 0.53609 0.82772 0.0
H3770 H 0.23698 0.46194 0.84135 0.0
H3771 H 0.31095 0.53041 0.88562 0.0
H3772 H 0.26915 0.51208 0.8332 0.0
H3773 H 0.27009 0.48932 0.89594 0.0
C3774 C 0.25275 0.46675 0.88629 0.0
C3775 C 0.24368 0.45841 0.87089 0.0
C3776 C 0.27825 0.51622 0.84472 0.0
C3777 C 0.26362 0.49192 0.8661 0.0
C3778 C 0.29209 0.52987 0.84158 0.0
C3779 C 0.30437 0.53505 0.85615 0.0
C3780 C 0.27668 0.50781 0.86257 0.0
C3781 C 0.30198 0.52667 0.87388 0.0
C3782 C 0.26261 0.48353 0.88399 0.0
C3783 C 0.24375 0.46797 0.85359 0.0
N3784 N 0.28852 0.51343 0.87654 0.0
N3785 N 0.25386 0.48409 0.85157 0.0
H3786 H 0.03916 0.25665 0.90339 0.0
H3787 H 0.96825 0.30496 0.8315 0.0
H3788 H 0.0374 0.2432 0.8442 0.0
H3789 H 0.95999 0.30647 0.89169 0.0
H3790 H 0.99406 0.28268 0.83598 0.0
H3791 H 0.01003 0.27475 0.89974 0.0
C3792 C 0.03242 0.25723 0.88972 0.0
C3793 C 0.04066 0.24844 0.87408 0.0
C3794 C 0.98654 0.28781 0.84821 0.0
C3795 C 0.00768 0.26938 0.8697 0.0
C3796 C 0.97189 0.30064 0.84566 0.0
C3797 C 0.96202 0.30763 0.86125 0.0
C3798 C 0.99149 0.28212 0.86649 0.0
C3799 C 0.96725 0.30144 0.87928 0.0
C3800 C 0.01585 0.26758 0.88762 0.0
C3801 C 0.03141 0.24961 0.85666 0.0
N3802 N 0.98172 0.28912 0.88141 0.0
N3803 N 0.01555 0.26012 0.85489 0.0
H3804 H 0.19085 0.97276 0.88792 0.0
H3805 H 0.26368 0.04145 0.8371 0.0
H3806 H 0.20657 0.96701 0.8295 0.0
H3807 H 0.24684 0.04619 0.89522 0.0
H3808 H 0.24668 0.01152 0.83498 0.0
H3809 H 0.21441 0.99728 0.89157 0.0
C3810 C 0.19928 0.97665 0.87582 0.0
C3811 C 0.19656 0.96798 0.8583 0.0
C3812 C 0.24698 0.01895 0.84828 0.0
C3813 C 0.22371 0.99618 0.86242 0.0
C3814 C 0.25683 0.03592 0.84955 0.0
C3815 C 0.2565 0.04635 0.86632 0.0
C3816 C 0.23674 0.01244 0.8639 0.0
C3817 C 0.24724 0.03868 0.88197 0.0
C3818 C 0.21282 0.99064 0.87795 0.0
C3819 C 0.2081 0.97345 0.84322 0.0
N3820 N 0.23756 0.02231 0.88031 0.0
N3821 N 0.22108 0.98734 0.84558 0.0
H3822 H 0.54409 0.21385 0.83783 0.0
H3823 H 0.43842 0.21869 0.86651 0.0
H3824 H 0.5208 0.17476 0.87802 0.0
H3825 H 0.47046 0.27024 0.87091 0.0
H3826 H 0.46752 0.20132 0.86275 0.0
H3827 H 0.51604 0.23403 0.84198 0.0
C3828 C 0.53306 0.20953 0.84743 0.0
C3829 C 0.53464 0.19268 0.85761 0.0
C3830 C 0.46812 0.21644 0.86461 0.0
C3831 C 0.50286 0.21526 0.8621 0.0
C3832 C 0.45152 0.22644 0.86705 0.0
C3833 C 0.45184 0.24606 0.86973 0.0
C3834 C 0.48527 0.22603 0.86416 0.0
C3835 C 0.46943 0.25518 0.86902 0.0
C3836 C 0.51725 0.22106 0.84988 0.0
C3837 C 0.52012 0.18769 0.86998 0.0
N3838 N 0.48551 0.24508 0.86623 0.0
N3839 N 0.50471 0.19881 0.87169 0.0
H3840 H 0.60135 0.25409 0.0417 0.0
H3841 H 0.67274 0.30254 0.97031 0.0
H3842 H 0.66017 0.23938 0.03876 0.0
H3843 H 0.61249 0.30403 0.96253 0.0
H3844 H 0.66845 0.28023 0.99621 0.0
H3845 H 0.60492 0.27269 0.01288 0.0
C3846 C 0.61492 0.25449 0.03474 0.0
C3847 C 0.63047 0.24516 0.04254 0.0
C3848 C 0.65618 0.28539 0.98877 0.0
C3849 C 0.6348 0.26675 0.00994 0.0
C3850 C 0.65861 0.29823 0.97409 0.0
C3851 C 0.64295 0.3052 0.96429 0.0
C3852 C 0.63794 0.27966 0.99384 0.0
C3853 C 0.62497 0.29902 0.9697 0.0
C3854 C 0.61698 0.26514 0.01836 0.0
C3855 C 0.64778 0.24619 0.03307 0.0
N3856 N 0.62295 0.2867 0.98418 0.0
N3857 N 0.64955 0.25702 0.01741 0.0
H3858 H 0.67191 0.18184 0.52026 0.0
H3859 H 0.62142 0.26836 0.46844 0.0
H3860 H 0.62548 0.21242 0.54479 0.0
H3861 H 0.65455 0.22636 0.43984 0.0
H3862 H 0.62661 0.25145 0.49831 0.0
H3863 H 0.66949 0.20153 0.49213 0.0
C3864 C 0.66126 0.19273 0.51975 0.0
C3865 C 0.64879 0.19541 0.53479 0.0
C3866 C 0.63279 0.24603 0.48547 0.0
C3867 C 0.64602 0.21804 0.50278 0.0
C3868 C 0.62989 0.25569 0.46855 0.0
C3869 C 0.6374 0.24853 0.45179 0.0
C3870 C 0.64349 0.22937 0.48551 0.0
C3871 C 0.64834 0.23213 0.4525 0.0
C3872 C 0.65986 0.20394 0.50371 0.0
C3873 C 0.63526 0.20976 0.53341 0.0
N3874 N 0.65103 0.22308 0.46907 0.0
N3875 N 0.63423 0.22056 0.51767 0.0
H3876 H 0.24107 0.67135 0.4583 0.0
H3877 H 0.29651 0.61653 0.53972 0.0
H3878 H 0.24781 0.61114 0.45993 0.0
H3879 H 0.30268 0.67611 0.52974 0.0
H3880 H 0.27436 0.61478 0.51354 0.0
H3881 H 0.25878 0.67376 0.48792 0.0
C3882 C 0.24586 0.65863 0.46519 0.0
C3883 C 0.243 0.64102 0.45678 0.0
C3884 C 0.28053 0.62825 0.51708 0.0
C3885 C 0.26342 0.64364 0.4903 0.0
C3886 C 0.29322 0.62927 0.53202 0.0
C3887 C 0.30158 0.64648 0.53686 0.0
C3888 C 0.27603 0.64457 0.50692 0.0
C3889 C 0.29668 0.66252 0.52641 0.0
C3890 C 0.25613 0.66001 0.48193 0.0
C3891 C 0.24975 0.62496 0.46602 0.0
N3892 N 0.28422 0.66118 0.51191 0.0
N3893 N 0.25972 0.62666 0.48224 0.0
H3894 H 0.83047 0.29133 0.53513 0.0
H3895 H 0.89977 0.25447 0.45447 0.0
H3896 H 0.88772 0.31038 0.52786 0.0
H3897 H 0.84287 0.23445 0.46146 0.0
H3898 H 0.89672 0.27224 0.48376 0.0
H3899 H 0.83555 0.26806 0.5102 0.0
C3900 C 0.8441 0.29059 0.52834 0.0
C3901 C 0.85862 0.30295 0.53345 0.0
C3902 C 0.88498 0.26375 0.47906 0.0
C3903 C 0.86457 0.27634 0.50505 0.0
C3904 C 0.88675 0.25356 0.46237 0.0
C3905 C 0.87154 0.24306 0.45549 0.0
C3906 C 0.86778 0.26359 0.48884 0.0
C3907 C 0.85501 0.24227 0.46632 0.0
C3908 C 0.84702 0.27727 0.51416 0.0
C3909 C 0.87605 0.30127 0.52428 0.0
N3910 N 0.85348 0.25261 0.48233 0.0
N3911 N 0.87849 0.28831 0.51049 0.0
H3912 H 0.2066 0.82871 0.53688 0.0
H3913 H 0.24822 0.89583 0.45675 0.0
H3914 H 0.19015 0.88656 0.52839 0.0
H3915 H 0.26309 0.83726 0.46206 0.0
H3916 H 0.23085 0.8938 0.48634 0.0
H3917 H 0.23067 0.83242 0.51241 0.0
C3918 C 0.20809 0.84219 0.52994 0.0
C3919 C 0.19619 0.85727 0.53451 0.0
C3920 C 0.23813 0.88143 0.48122 0.0
C3921 C 0.22373 0.86166 0.50669 0.0
C3922 C 0.2481 0.88263 0.46438 0.0
C3923 C 0.25693 0.86666 0.45691 0.0
C3924 C 0.23679 0.86406 0.49058 0.0
C3925 C 0.25649 0.84992 0.46739 0.0
C3926 C 0.22186 0.84432 0.51602 0.0
C3927 C 0.19884 0.87447 0.52518 0.0
N3928 N 0.24631 0.84897 0.48357 0.0
N3929 N 0.21223 0.87615 0.51168 0.0
H3930 H 0.90098 0.24264 0.04652 0.0
H3931 H 0.82813 0.19803 0.97406 0.0
H3932 H 0.84269 0.2594 0.04355 0.0
H3933 H 0.88828 0.19517 0.96592 0.0
H3934 H 0.83315 0.21933 0.00065 0.0
H3935 H 0.89682 0.22444 0.0175 0.0
C3936 C 0.88741 0.24273 0.03955 0.0
C3937 C 0.87219 0.25258 0.04736 0.0
C3938 C 0.84524 0.21409 0.99298 0.0
C3939 C 0.86719 0.23153 0.01453 0.0
C3940 C 0.84238 0.20183 0.9779 0.0
C3941 C 0.85781 0.1948 0.9678 0.0
C3942 C 0.86365 0.21915 0.99814 0.0
C3943 C 0.87598 0.20029 0.97332 0.0
C3944 C 0.88502 0.23234 0.02305 0.0
C3945 C 0.85486 0.2522 0.03786 0.0
N3946 N 0.87841 0.21205 0.98819 0.0
N3947 N 0.85277 0.24164 0.02207 0.0
H3948 H 0.29523 0.82845 0.96244 0.0
H3949 H 0.25404 0.89728 0.0413 0.0
H3950 H 0.31392 0.88546 0.97181 0.0
H3951 H 0.23835 0.83888 0.03666 0.0
H3952 H 0.27155 0.8946 0.01184 0.0
H3953 H 0.27057 0.83312 0.98617 0.0
C3954 C 0.29412 0.84194 0.96943 0.0
C3955 C 0.30681 0.85649 0.96535 0.0
C3956 C 0.26404 0.88242 0.01708 0.0
C3957 C 0.27861 0.86199 0.99225 0.0
C3958 C 0.25398 0.884 0.03383 0.0
C3959 C 0.24493 0.86824 0.04147 0.0
C3960 C 0.26524 0.86489 0.00801 0.0
C3961 C 0.24513 0.85138 0.0312 0.0
C3962 C 0.28002 0.84462 0.98291 0.0
C3963 C 0.30463 0.87374 0.97469 0.0
N3964 N 0.25542 0.85005 0.01512 0.0
N3965 N 0.29088 0.87597 0.98774 0.0
H3966 H 0.27375 0.62873 0.02845 0.0
H3967 H 0.17412 0.61993 0.98066 0.0
H3968 H 0.2217 0.63348 0.0597 0.0
H3969 H 0.21533 0.65614 0.95458 0.0
H3970 H 0.19487 0.61638 0.0078 0.0
H3971 H 0.25554 0.63155 0.99905 0.0
C3972 C 0.2586 0.63023 0.02922 0.0
C3973 C 0.2493 0.63039 0.04673 0.0
C3974 C 0.1994 0.625 0.99607 0.0
C3975 C 0.22862 0.63318 0.01331 0.0
C3976 C 0.18762 0.62701 0.98058 0.0
C3977 C 0.193 0.63846 0.96546 0.0
C3978 C 0.21684 0.63417 0.9963 0.0
C3979 C 0.21064 0.64735 0.96611 0.0
C3980 C 0.24829 0.63182 0.01247 0.0
C3981 C 0.22959 0.63241 0.04673 0.0
N3982 N 0.22207 0.64497 0.98134 0.0
N3983 N 0.21996 0.6335 0.03034 0.0
H3984 H 0.03032 0.32677 0.69941 0.0
H3985 H 0.95827 0.39914 0.74513 0.0
H3986 H 0.03836 0.3869 0.69706 0.0
H3987 H 0.9612 0.34088 0.76174 0.0
H3988 H 0.98745 0.39512 0.72717 0.0
H3989 H 0.00423 0.33154 0.72145 0.0
C3990 C 0.02658 0.34097 0.7035 0.0
C3991 C 0.03648 0.35646 0.69634 0.0
C3992 C 0.98188 0.38329 0.735 0.0
C3993 C 0.00671 0.36202 0.72153 0.0
C3994 C 0.9653 0.38561 0.74528 0.0
C3995 C 0.9574 0.37034 0.75496 0.0
C3996 C 0.9904 0.36548 0.73409 0.0
C3997 C 0.96696 0.35306 0.75464 0.0
C3998 C 0.01179 0.34368 0.71617 0.0
C3999 C 0.03111 0.37454 0.70222 0.0
N4000 N 0.98282 0.35102 0.74413 0.0
N4001 N 0.01652 0.37683 0.71436 0.0
H4002 H 0.1054 0.95634 0.74946 0.0
H4003 H 0.1734 0.02964 0.69942 0.0
H4004 H 0.16452 0.96031 0.76254 0.0
H4005 H 0.11304 0.0365 0.70074 0.0
H4006 H 0.17053 0.00361 0.72183 0.0
H4007 H 0.10771 0.98565 0.73149 0.0
C4008 C 0.11877 0.96365 0.74886 0.0
C4009 C 0.13477 0.956 0.75752 0.0
C4010 C 0.15793 0.01089 0.71728 0.0
C4011 C 0.13769 0.98915 0.73657 0.0
C4012 C 0.15955 0.02565 0.70438 0.0
C4013 C 0.14343 0.0352 0.69814 0.0
C4014 C 0.14005 0.00549 0.72378 0.0
C4015 C 0.12585 0.02952 0.70515 0.0
C4016 C 0.12012 0.98031 0.73856 0.0
C4017 C 0.15181 0.96588 0.75623 0.0
N4018 N 0.12461 0.01496 0.71749 0.0
N4019 N 0.1529 0.98182 0.74568 0.0
H4020 H 0.54231 0.10571 0.74812 0.0
H4021 H 0.46535 0.17602 0.70567 0.0
H4022 H 0.53969 0.1645 0.76271 0.0
H4023 H 0.47221 0.11798 0.68915 0.0
H4024 H 0.48938 0.1714 0.7301 0.0
H4025 H 0.51287 0.10901 0.7307 0.0
C4026 C 0.53527 0.11923 0.74796 0.0
C4027 C 0.54345 0.13488 0.7567 0.0
C4028 C 0.4855 0.15968 0.72118 0.0
C4029 C 0.51002 0.13895 0.73642 0.0
C4030 C 0.47184 0.16232 0.70721 0.0
C4031 C 0.46696 0.14744 0.69519 0.0
C4032 C 0.4942 0.14202 0.72313 0.0
C4033 C 0.47569 0.12995 0.69791 0.0
C4034 C 0.51853 0.12116 0.73793 0.0
C4035 C 0.53377 0.15208 0.75617 0.0
N4036 N 0.48891 0.12776 0.7115 0.0
N4037 N 0.51769 0.15375 0.7459 0.0
H4038 H 0.3259 0.46937 0.6981 0.0
H4039 H 0.39533 0.5415 0.74811 0.0
H4040 H 0.38613 0.4615 0.69998 0.0
H4041 H 0.33564 0.54056 0.75893 0.0
H4042 H 0.39237 0.51187 0.73082 0.0
H4043 H 0.32906 0.49567 0.72014 0.0
C4044 C 0.33978 0.47318 0.70312 0.0
C4045 C 0.35578 0.46329 0.69711 0.0
C4046 C 0.37995 0.51796 0.73723 0.0
C4047 C 0.35949 0.4933 0.72234 0.0
C4048 C 0.38167 0.5348 0.74714 0.0
C4049 C 0.36571 0.5434 0.75494 0.0
C4050 C 0.36208 0.50984 0.73479 0.0
C4051 C 0.3483 0.53426 0.75325 0.0
C4052 C 0.34156 0.4881 0.7158 0.0
C4053 C 0.3734 0.46875 0.70419 0.0
N4054 N 0.34689 0.5181 0.74311 0.0
N4055 N 0.3748 0.48346 0.71632 0.0
H4056 H 0.95701 0.16683 0.74181 0.0
H4057 H 0.03692 0.11646 0.80333 0.0
H4058 H 0.95708 0.10766 0.75505 0.0
H4059 H 0.0281 0.17653 0.80325 0.0
H4060 H 0.0108 0.11292 0.78132 0.0
H4061 H 0.98658 0.17041 0.75936 0.0
C4062 C 0.96352 0.15452 0.74801 0.0
C4063 C 0.95465 0.13692 0.74702 0.0
C4064 C 0.01459 0.12689 0.78608 0.0
C4065 C 0.98817 0.14094 0.7673 0.0
C4066 C 0.02951 0.12894 0.79867 0.0
C4067 C 0.03464 0.14683 0.80525 0.0
C4068 C 0.00476 0.14285 0.77985 0.0
C4069 C 0.02452 0.16247 0.79866 0.0
C4070 C 0.98024 0.1566 0.7582 0.0
C4071 C 0.96349 0.12147 0.75555 0.0
N4072 N 0.01005 0.16012 0.7863 0.0
N4073 N 0.9797 0.12385 0.76541 0.0
H4074 H 0.32349 0.03777 0.79381 0.0
H4075 H 0.39001 0.95814 0.75015 0.0
H4076 H 0.38235 0.0307 0.80718 0.0
H4077 H 0.33124 0.96344 0.736 0.0
H4078 H 0.38813 0.98754 0.76779 0.0
H4079 H 0.32641 0.01292 0.76997 0.0
C4080 C 0.33701 0.03106 0.7917 0.0
C4081 C 0.35264 0.03619 0.80265 0.0
C4082 C 0.37567 0.98248 0.76062 0.0
C4083 C 0.35612 0.00794 0.77538 0.0
C4084 C 0.37679 0.96576 0.75047 0.0
C4085 C 0.36074 0.95837 0.74171 0.0
C4086 C 0.35829 0.9918 0.76227 0.0
C4087 C 0.34395 0.96876 0.7425 0.0
C4088 C 0.33868 0.01693 0.77807 0.0
C4089 C 0.36985 0.02711 0.79923 0.0
N4090 N 0.34307 0.98483 0.75288 0.0
N4091 N 0.37109 0.01342 0.786 0.0
H4092 H 0.47894 0.32745 0.81804 0.0
H4093 H 0.52976 0.3799 0.732 0.0
H4094 H 0.45505 0.3757 0.78989 0.0
H4095 H 0.55826 0.34307 0.77088 0.0
H4096 H 0.50027 0.37494 0.7496 0.0
H4097 H 0.50644 0.32957 0.79746 0.0
C4098 C 0.47946 0.33846 0.80751 0.0
C4099 C 0.46477 0.35151 0.80577 0.0
C4100 C 0.51298 0.36786 0.75417 0.0
C4101 C 0.49608 0.35393 0.7821 0.0
C4102 C 0.52968 0.37062 0.7441 0.0
C4103 C 0.54631 0.36198 0.75019 0.0
C4104 C 0.51303 0.35622 0.7702 0.0
C4105 C 0.54566 0.35008 0.76591 0.0
C4106 C 0.49515 0.33967 0.79577 0.0
C4107 C 0.46616 0.36546 0.79183 0.0
N4108 N 0.5293 0.34759 0.77541 0.0
N4109 N 0.48155 0.36631 0.78052 0.0
H4110 H 0.1739 0.46789 0.80329 0.0
H4111 H 0.10339 0.53939 0.75421 0.0
H4112 H 0.11394 0.45836 0.80057 0.0
H4113 H 0.16291 0.53877 0.74236 0.0
H4114 H 0.1068 0.5096 0.77117 0.0
H4115 H 0.17024 0.49433 0.78149 0.0
C4116 C 0.15998 0.47136 0.79812 0.0
C4117 C 0.14419 0.46097 0.80381 0.0
C4118 C 0.11907 0.5158 0.76459 0.0
C4119 C 0.13992 0.49113 0.7789 0.0
C4120 C 0.1171 0.53273 0.75488 0.0
C4121 C 0.13289 0.54146 0.74688 0.0
C4122 C 0.13702 0.50775 0.76664 0.0
C4123 C 0.15037 0.53237 0.74819 0.0
C4124 C 0.15792 0.48636 0.78558 0.0
C4125 C 0.1265 0.466 0.79657 0.0
N4126 N 0.15203 0.51613 0.75816 0.0
N4127 N 0.12482 0.48081 0.78461 0.0
H4128 H 0.74763 0.95964 0.3964 0.0
H4129 H 0.70393 0.0366 0.32682 0.0
H4130 H 0.75983 0.96137 0.33696 0.0
H4131 H 0.69211 0.03335 0.38634 0.0
H4132 H 0.7272 0.01137 0.33052 0.0
H4133 H 0.73059 0.98933 0.39346 0.0
C4134 C 0.74699 0.96648 0.38278 0.0
C4135 C 0.75502 0.958 0.36688 0.0
C4136 C 0.71959 0.01629 0.34277 0.0
C4137 C 0.73522 0.99182 0.36328 0.0
C4138 C 0.70628 0.03065 0.34066 0.0
C4139 C 0.69591 0.03696 0.35625 0.0
C4140 C 0.72254 0.00822 0.36061 0.0
C4141 C 0.69962 0.02883 0.37387 0.0
C4142 C 0.7372 0.98339 0.38107 0.0
C4143 C 0.75389 0.96749 0.34958 0.0
N4144 N 0.71252 0.01485 0.37554 0.0
N4145 N 0.74391 0.98378 0.34817 0.0
H4146 H 0.46677 0.69474 0.32851 0.0
H4147 H 0.53748 0.74339 0.4006 0.0
H4148 H 0.45893 0.69338 0.38876 0.0
H4149 H 0.53717 0.75572 0.34117 0.0
H4150 H 0.50827 0.72554 0.39671 0.0
H4151 H 0.49269 0.717 0.3328 0.0
C4152 C 0.47051 0.6991 0.34264 0.0
C4153 C 0.46072 0.69212 0.35831 0.0
C4154 C 0.51441 0.7324 0.38456 0.0
C4155 C 0.49032 0.71762 0.36331 0.0
C4156 C 0.53101 0.74263 0.3868 0.0
C4157 C 0.53968 0.75103 0.37119 0.0
C4158 C 0.50659 0.73029 0.36651 0.0
C4159 C 0.53082 0.74959 0.3536 0.0
C4160 C 0.48523 0.7119 0.34507 0.0
C4161 C 0.4661 0.69836 0.37628 0.0
N4162 N 0.51489 0.73918 0.35167 0.0
N4163 N 0.4806 0.71065 0.37829 0.0
H4164 H 0.79429 0.46385 0.32448 0.0
H4165 H 0.7509 0.5383 0.39673 0.0
H4166 H 0.80614 0.46506 0.38408 0.0
H4167 H 0.73702 0.53765 0.33766 0.0
H4168 H 0.76793 0.50873 0.39277 0.0
H4169 H 0.77065 0.48861 0.32916 0.0
C4170 C 0.79188 0.46925 0.33853 0.0
C4171 C 0.80236 0.46253 0.35387 0.0
C4172 C 0.76093 0.51485 0.38069 0.0
C4173 C 0.77534 0.49068 0.35934 0.0
C4174 C 0.75114 0.53167 0.383 0.0
C4175 C 0.74265 0.54041 0.36749 0.0
C4176 C 0.76251 0.50683 0.36267 0.0
C4177 C 0.74332 0.53128 0.34998 0.0
C4178 C 0.77836 0.48333 0.3412 0.0
C4179 C 0.79857 0.46994 0.37179 0.0
N4180 N 0.75337 0.5151 0.34796 0.0
N4181 N 0.78547 0.48364 0.37399 0.0
H4182 H 0.03751 0.79561 0.32652 0.0
H4183 H 0.95936 0.75607 0.39744 0.0
H4184 H 0.0321 0.8125 0.38464 0.0
H4185 H 0.96349 0.73857 0.33947 0.0
H4186 H 0.98837 0.77413 0.39371 0.0
H4187 H 0.01238 0.77244 0.33142 0.0
C4188 C 0.03109 0.79442 0.3403 0.0
C4189 C 0.03681 0.80613 0.35514 0.0
C4190 C 0.9831 0.76615 0.38184 0.0
C4191 C 0.0082 0.77964 0.36087 0.0
C4192 C 0.96658 0.7558 0.38401 0.0
C4193 C 0.95898 0.74589 0.36873 0.0
C4194 C 0.99204 0.76679 0.3642 0.0
C4195 C 0.96894 0.74591 0.35165 0.0
C4196 C 0.01679 0.78117 0.3431 0.0
C4197 C 0.02808 0.80391 0.37273 0.0
N4198 N 0.98484 0.75642 0.34976 0.0
N4199 N 0.0142 0.79101 0.37506 0.0
H4200 H 0.7036 0.46657 0.17281 0.0
H4201 H 0.74569 0.5437 0.1026 0.0
H4202 H 0.69324 0.46763 0.11293 0.0
H4203 H 0.76121 0.54046 0.16118 0.0
H4204 H 0.72834 0.51423 0.10587 0.0
H4205 H 0.72617 0.4924 0.16888 0.0
C4206 C 0.70609 0.47218 0.15886 0.0
C4207 C 0.6964 0.46502 0.14321 0.0
C4208 C 0.73574 0.51977 0.11798 0.0
C4209 C 0.7222 0.49445 0.1386 0.0
C4210 C 0.74569 0.53656 0.11607 0.0
C4211 C 0.75484 0.54451 0.13164 0.0
C4212 C 0.73468 0.51097 0.13567 0.0
C4213 C 0.75444 0.53471 0.1488 0.0
C4214 C 0.71902 0.48687 0.15661 0.0
C4215 C 0.70027 0.47276 0.12544 0.0
N4216 N 0.74429 0.51856 0.15044 0.0
N4217 N 0.71276 0.48708 0.12365 0.0
H4218 H 0.03364 0.70207 0.17416 0.0
H4219 H 0.95829 0.74282 0.10101 0.0
H4220 H 0.03354 0.6899 0.11462 0.0
H4221 H 0.96026 0.75991 0.15921 0.0
H4222 H 0.98738 0.72508 0.10557 0.0
H4223 H 0.00789 0.72457 0.16909 0.0
C4224 C 0.02826 0.70415 0.16005 0.0
C4225 C 0.03569 0.69398 0.14482 0.0
C4226 C 0.98163 0.73289 0.11732 0.0
C4227 C 0.00635 0.71969 0.13891 0.0
C4228 C 0.96506 0.74307 0.11468 0.0
C4229 C 0.95687 0.75281 0.12975 0.0
C4230 C 0.98999 0.73221 0.13525 0.0
C4231 C 0.96621 0.7527 0.14718 0.0
C4232 C 0.01361 0.71703 0.15715 0.0
C4233 C 0.02822 0.69731 0.12682 0.0
N4234 N 0.98216 0.74234 0.14953 0.0
N4235 N 0.01396 0.70977 0.1244 0.0
H4236 H 0.82617 0.02028 0.12546 0.0
H4237 H 0.7296 0.96905 0.13442 0.0
H4238 H 0.78717 0.04318 0.16599 0.0
H4239 H 0.7822 0.93887 0.13962 0.0
H4240 H 0.74693 0.99869 0.13953 0.0
H4241 H 0.80637 0.99232 0.12269 0.0
C4242 C 0.81335 0.01945 0.13369 0.0
C4243 C 0.80829 0.03393 0.14605 0.0
C4244 C 0.75448 0.98546 0.13952 0.0
C4245 C 0.7855 0.00226 0.14262 0.0
C4246 C 0.74468 0.96858 0.13661 0.0
C4247 C 0.75448 0.95139 0.13599 0.0
C4248 C 0.77413 0.98502 0.14147 0.0
C4249 C 0.77405 0.95171 0.13906 0.0
C4250 C 0.80214 0.00352 0.13213 0.0
C4251 C 0.79157 0.03215 0.15646 0.0
N4252 N 0.78322 0.96823 0.14134 0.0
N4253 N 0.78058 0.01656 0.15441 0.0
H4254 H 0.54322 0.75496 0.10326 0.0
H4255 H 0.47016 0.80284 0.17319 0.0
H4256 H 0.53986 0.74088 0.1622 0.0
H4257 H 0.46456 0.80533 0.11272 0.0
H4258 H 0.49573 0.78008 0.16949 0.0
H4259 H 0.51392 0.77286 0.10619 0.0
C4260 C 0.53607 0.75536 0.11672 0.0
C4261 C 0.54391 0.74648 0.13251 0.0
C4262 C 0.48882 0.78552 0.15704 0.0
C4263 C 0.51072 0.76724 0.13612 0.0
C4264 C 0.47431 0.79861 0.15914 0.0
C4265 C 0.46529 0.80607 0.14324 0.0
C4266 C 0.49448 0.78003 0.13891 0.0
C4267 C 0.47115 0.79998 0.12538 0.0
C4268 C 0.5194 0.7656 0.11842 0.0
C4269 C 0.53417 0.74742 0.14966 0.0
N4270 N 0.48546 0.78742 0.12369 0.0
N4271 N 0.51821 0.75787 0.15108 0.0
H4272 H 0.32591 0.70157 0.02679 0.0
H4273 H 0.39648 0.74753 0.95305 0.0
H4274 H 0.38626 0.70037 0.03378 0.0
H4275 H 0.33787 0.76296 0.95628 0.0
H4276 H 0.39314 0.72997 0.98252 0.0
H4277 H 0.32983 0.7233 0.00029 0.0
C4278 C 0.33997 0.70585 0.02274 0.0
C4279 C 0.35578 0.6991 0.03246 0.0
C4280 C 0.38107 0.73745 0.97696 0.0
C4281 C 0.36036 0.72393 0.00223 0.0
C4282 C 0.38301 0.74751 0.96021 0.0
C4283 C 0.36745 0.75673 0.95231 0.0
C4284 C 0.36335 0.73629 0.98568 0.0
C4285 C 0.35026 0.7562 0.96203 0.0
C4286 C 0.34219 0.71835 0.00771 0.0
C4287 C 0.37367 0.70521 0.02668 0.0
N4288 N 0.34859 0.7459 0.97808 0.0
N4289 N 0.37548 0.71716 0.01188 0.0
H4290 H 0.33941 0.73623 0.5382 0.0
H4291 H 0.38959 0.80626 0.46595 0.0
H4292 H 0.39739 0.75374 0.54236 0.0
H4293 H 0.32995 0.79456 0.46522 0.0
H4294 H 0.39353 0.78324 0.49101 0.0
H4295 H 0.33682 0.75301 0.50821 0.0
C4296 C 0.35174 0.74318 0.53254 0.0
C4297 C 0.36862 0.74372 0.5428 0.0
C4298 C 0.37958 0.78562 0.48534 0.0
C4299 C 0.36564 0.76325 0.50879 0.0
C4300 C 0.37729 0.79883 0.47104 0.0
C4301 C 0.35935 0.80251 0.46361 0.0
C4302 C 0.36383 0.77599 0.49235 0.0
C4303 C 0.344 0.79228 0.47066 0.0
C4304 C 0.35019 0.75293 0.51554 0.0
C4305 C 0.38407 0.75315 0.53496 0.0
N4306 N 0.34657 0.77955 0.48474 0.0
N4307 N 0.38216 0.7627 0.51852 0.0
H4308 H 0.75864 0.33048 0.53856 0.0
H4309 H 0.69793 0.38396 0.46003 0.0
H4310 H 0.74822 0.39021 0.53877 0.0
H4311 H 0.69651 0.32376 0.46782 0.0
H4312 H 0.72045 0.38644 0.48583 0.0
H4313 H 0.74065 0.32783 0.50916 0.0
C4314 C 0.75298 0.34309 0.53213 0.0
C4315 C 0.75487 0.36059 0.54105 0.0
C4316 C 0.71524 0.37268 0.48189 0.0
C4317 C 0.73408 0.35765 0.50774 0.0
C4318 C 0.70235 0.37124 0.46717 0.0
C4319 C 0.6952 0.35362 0.46183 0.0
C4320 C 0.72119 0.35638 0.49134 0.0
C4321 C 0.70153 0.33764 0.47156 0.0
C4322 C 0.74254 0.34154 0.51551 0.0
C4323 C 0.74702 0.37646 0.53233 0.0
N4324 N 0.71418 0.33939 0.48586 0.0
N4325 N 0.73688 0.3746 0.51623 0.0
H4326 H 0.16265 0.76685 0.53886 0.0
H4327 H 0.11184 0.69506 0.46888 0.0
H4328 H 0.10481 0.74917 0.54391 0.0
H4329 H 0.17052 0.71007 0.46407 0.0
H4330 H 0.10821 0.71818 0.49384 0.0
H4331 H 0.16479 0.7501 0.50877 0.0
C4332 C 0.15026 0.75985 0.53339 0.0
C4333 C 0.13355 0.75926 0.54394 0.0
C4334 C 0.12189 0.71654 0.4873 0.0
C4335 C 0.13601 0.73979 0.50978 0.0
C4336 C 0.12399 0.70326 0.47304 0.0
C4337 C 0.14158 0.70044 0.46451 0.0
C4338 C 0.1375 0.72708 0.49324 0.0
C4339 C 0.15674 0.71169 0.47036 0.0
C4340 C 0.15155 0.75014 0.51631 0.0
C4341 C 0.11801 0.74979 0.53631 0.0
N4342 N 0.15439 0.72441 0.48451 0.0
N4343 N 0.11967 0.74029 0.51982 0.0
H4344 H 0.72777 0.12841 0.5303 0.0
H4345 H 0.82167 0.11509 0.47566 0.0
H4346 H 0.78035 0.12828 0.56115 0.0
H4347 H 0.78903 0.16428 0.46163 0.0
H4348 H 0.802 0.11051 0.50376 0.0
H4349 H 0.74574 0.13315 0.50112 0.0
C4350 C 0.74296 0.12924 0.53107 0.0
C4351 C 0.75241 0.12761 0.54844 0.0
C4352 C 0.79914 0.12221 0.49441 0.0
C4353 C 0.77283 0.13238 0.51506 0.0
C4354 C 0.81028 0.12484 0.47849 0.0
C4355 C 0.80695 0.14015 0.46654 0.0
C4356 C 0.78423 0.13461 0.49796 0.0
C4357 C 0.79208 0.15244 0.47072 0.0
C4358 C 0.75313 0.13189 0.5144 0.0
C4359 C 0.77224 0.12864 0.54827 0.0
N4360 N 0.78106 0.14931 0.48608 0.0
N4361 N 0.78175 0.13072 0.53187 0.0
H4362 H 0.11552 0.79854 0.03675 0.0
H4363 H 0.16909 0.73622 0.9596 0.0
H4364 H 0.17591 0.79855 0.0301 0.0
H4365 H 0.11021 0.75048 0.95619 0.0
H4366 H 0.17127 0.75381 0.98927 0.0
H4367 H 0.11297 0.7764 0.01059 0.0
C4368 C 0.12827 0.79388 0.0298 0.0
C4369 C 0.14596 0.80052 0.03556 0.0
C4370 C 0.15782 0.75284 0.98217 0.0
C4371 C 0.14312 0.77495 0.00569 0.0
C4372 C 0.15652 0.74261 0.9654 0.0
C4373 C 0.13944 0.7419 0.95551 0.0
C4374 C 0.14188 0.76226 0.98913 0.0
C4375 C 0.12363 0.75072 0.96342 0.0
C4376 C 0.12678 0.78122 0.01487 0.0
C4377 C 0.16198 0.79392 0.02603 0.0
N4378 N 0.12525 0.76061 0.97971 0.0
N4379 N 0.16018 0.78148 0.01157 0.0
H4380 H 0.71989 0.12956 0.94183 0.0
H4381 H 0.7076 0.16586 0.03937 0.0
H4382 H 0.77245 0.12763 0.97266 0.0
H4383 H 0.68483 0.11026 0.03082 0.0
H4384 H 0.72837 0.16108 0.01198 0.0
H4385 H 0.703 0.13094 0.97146 0.0
C4386 C 0.72801 0.12899 0.9547 0.0
C4387 C 0.74784 0.12798 0.95449 0.0
C4388 C 0.71893 0.14994 0.01635 0.0
C4389 C 0.72821 0.13084 0.98849 0.0
C4390 C 0.70701 0.15268 0.03174 0.0
C4391 C 0.69451 0.13843 0.03723 0.0
C4392 C 0.71787 0.13308 0.00621 0.0
C4393 C 0.69433 0.12154 0.02702 0.0
C4394 C 0.71823 0.13006 0.9716 0.0
C4395 C 0.75726 0.12847 0.97195 0.0
N4396 N 0.70561 0.11945 0.01171 0.0
N4397 N 0.74735 0.13008 0.9883 0.0
H4398 H 0.75458 0.39816 0.96171 0.0
H4399 H 0.80465 0.32672 0.03202 0.0
H4400 H 0.74295 0.33865 0.96194 0.0
H4401 H 0.80378 0.38676 0.04099 0.0
H4402 H 0.78255 0.33073 0.00586 0.0
H4403 H 0.77259 0.39441 0.99086 0.0
C4404 C 0.75554 0.38437 0.96814 0.0
C4405 C 0.74727 0.3687 0.95948 0.0
C4406 C 0.78714 0.343 0.01363 0.0
C4407 C 0.76819 0.36419 0.99249 0.0
C4408 C 0.79985 0.34074 0.02847 0.0
C4409 C 0.80612 0.35643 0.03865 0.0
C4410 C 0.78084 0.36112 0.00881 0.0
C4411 C 0.79934 0.37426 0.03351 0.0
C4412 C 0.76586 0.38221 0.98471 0.0
C4413 C 0.74897 0.35111 0.96829 0.0
N4414 N 0.78716 0.37613 0.01889 0.0
N4415 N 0.75946 0.34928 0.98419 0.0
loop_
_geom_bond_atom_site_label_1
_geom_bond_atom_site_label_2
_geom_bond_distance
_geom_bond_site_symmetry_2
_ccdc_geom_bond_type
O0 Tb1 2.292 . S
O0 C3 1.255 . S
Tb1 O0 2.292 . S
Tb1 O17 2.326 . S
Tb1 O19 2.500 . S
Tb1 O20 2.473 . S
Tb1 O23 2.324 . S
Eu2 O6 2.292 . S
Eu2 C7 2.852 . S
Eu2 O18 2.324 . S
Eu2 O22 2.326 . S
Eu2 O24 2.500 . S
Eu2 O25 2.473 . S
C3 O0 1.255 . S
C3 O4 1.247 . S
O4 C3 1.247 . S
C5 O17 1.242 . S
C5 O18 1.258 . S
O6 Eu2 2.292 . S
O6 C8 1.255 . S
C7 Eu2 2.852 . S
C7 C11 1.503 . S
C7 O24 1.273 . S
C7 O25 1.257 . S
C8 O6 1.255 . S
C8 O9 1.247 . S
O9 C8 1.247 . S
C10 O22 1.242 . S
C10 O23 1.258 . S
C11 C7 1.503 . S
C11 C12 1.379 . S
C11 C16 1.392 . S
C12 C11 1.379 . S
C12 C13 1.404 . S
C12 H26 0.929 . S
C13 C12 1.404 . S
C13 C14 1.389 . S
C14 C13 1.389 . S
C14 C15 1.399 . S
C14 H27 0.931 . S
C15 C14 1.399 . S
C15 C16 1.390 . S
C16 C11 1.392 . S
C16 C15 1.390 . S
C16 H28 0.929 . S
O17 Tb1 2.326 . S
O17 C5 1.242 . S
O18 Eu2 2.324 . S
O18 C5 1.258 . S
O19 Tb1 2.500 . S
O19 C21 1.273 . S
O20 Tb1 2.473 . S
O20 C21 1.257 . S
C21 O19 1.273 . S
C21 O20 1.257 . S
O22 Eu2 2.326 . S
O22 C10 1.242 . S
O23 Tb1 2.324 . S
O23 C10 1.258 . S
O24 Eu2 2.500 . S
O24 C7 1.273 . S
O25 Eu2 2.473 . S
O25 C7 1.257 . S
H26 C12 0.929 . S
H27 C14 0.931 . S
H28 C16 0.929 . S
O29 Tb30 2.292 . S
O29 C32 1.255 . S
Tb30 O29 2.292 . S
Tb30 O46 2.326 . S
Tb30 O48 2.500 . S
Tb30 O49 2.473 . S
Tb30 O52 2.324 . S
Eu31 O35 2.292 . S
Eu31 C36 2.852 . S
Eu31 O47 2.324 . S
Eu31 O51 2.326 . S
Eu31 O53 2.500 . S
Eu31 O54 2.473 . S
C32 O29 1.255 . S
C32 O33 1.247 . S
O33 C32 1.247 . S
C34 O46 1.242 . S
C34 O47 1.258 . S
O35 Eu31 2.292 . S
O35 C37 1.255 . S
C36 Eu31 2.852 . S
C36 C40 1.503 . S
C36 O53 1.273 . S
C36 O54 1.257 . S
C37 O35 1.255 . S
C37 O38 1.247 . S
O38 C37 1.247 . S
C39 O51 1.242 . S
C39 O52 1.258 . S
C40 C36 1.503 . S
C40 C41 1.379 . S
C40 C45 1.392 . S
C41 C40 1.379 . S
C41 C42 1.404 . S
C41 H55 0.929 . S
C42 C41 1.404 . S
C42 C43 1.389 . S
C43 C42 1.389 . S
C43 C44 1.399 . S
C43 H56 0.931 . S
C44 C43 1.399 . S
C44 C45 1.390 . S
C45 C40 1.392 . S
C45 C44 1.390 . S
C45 H57 0.929 . S
O46 Tb30 2.326 . S
O46 C34 1.242 . S
O47 Eu31 2.324 . S
O47 C34 1.258 . S
O48 Tb30 2.500 . S
O48 C50 1.273 . S
O49 Tb30 2.473 . S
O49 C50 1.257 . S
C50 O48 1.273 . S
C50 O49 1.257 . S
O51 Eu31 2.326 . S
O51 C39 1.242 . S
O52 Tb30 2.324 . S
O52 C39 1.258 . S
O53 Eu31 2.500 . S
O53 C36 1.273 . S
O54 Eu31 2.473 . S
O54 C36 1.257 . S
H55 C41 0.929 . S
H56 C43 0.931 . S
H57 C45 0.929 . S
O58 Tb59 2.292 . S
O58 C61 1.255 . S
Tb59 O58 2.292 . S
Tb59 O75 2.326 . S
Tb59 O77 2.500 . S
Tb59 O78 2.473 . S
Tb59 O81 2.324 . S
Eu60 O64 2.292 . S
Eu60 C65 2.852 . S
Eu60 O76 2.324 . S
Eu60 O80 2.326 . S
Eu60 O82 2.500 . S
Eu60 O83 2.473 . S
C61 O58 1.255 . S
C61 O62 1.247 . S
O62 C61 1.247 . S
C63 O75 1.242 . S
C63 O76 1.258 . S
O64 Eu60 2.292 . S
O64 C66 1.255 . S
C65 Eu60 2.852 . S
C65 C69 1.503 . S
C65 O82 1.273 . S
C65 O83 1.257 . S
C66 O64 1.255 . S
C66 O67 1.247 . S
O67 C66 1.247 . S
C68 O80 1.242 . S
C68 O81 1.258 . S
C69 C65 1.503 . S
C69 C70 1.379 . S
C69 C74 1.392 . S
C70 C69 1.379 . S
C70 C71 1.404 . S
C70 H84 0.929 . S
C71 C70 1.404 . S
C71 C72 1.389 . S
C72 C71 1.389 . S
C72 C73 1.399 . S
C72 H85 0.931 . S
C73 C72 1.399 . S
C73 C74 1.390 . S
C74 C69 1.392 . S
C74 C73 1.390 . S
C74 H86 0.929 . S
O75 Tb59 2.326 . S
O75 C63 1.242 . S
O76 Eu60 2.324 . S
O76 C63 1.258 . S
O77 Tb59 2.500 . S
O77 C79 1.273 . S
O78 Tb59 2.473 . S
O78 C79 1.257 . S
C79 O77 1.273 . S
C79 O78 1.257 . S
O80 Eu60 2.326 . S
O80 C68 1.242 . S
O81 Tb59 2.324 . S
O81 C68 1.258 . S
O82 Eu60 2.500 . S
O82 C65 1.273 . S
O83 Eu60 2.473 . S
O83 C65 1.257 . S
H84 C70 0.929 . S
H85 C72 0.931 . S
H86 C74 0.929 . S
O87 Tb88 2.292 . S
O87 C90 1.255 . S
Tb88 O87 2.292 . S
Tb88 O104 2.326 . S
Tb88 O106 2.500 . S
Tb88 O107 2.473 . S
Tb88 O110 2.324 . S
Eu89 O93 2.292 . S
Eu89 C94 2.852 . S
Eu89 O105 2.324 . S
Eu89 O109 2.326 . S
Eu89 O111 2.500 . S
Eu89 O112 2.473 . S
C90 O87 1.255 . S
C90 O91 1.247 . S
O91 C90 1.247 . S
C92 O104 1.242 . S
C92 O105 1.258 . S
O93 Eu89 2.292 . S
O93 C95 1.255 . S
C94 Eu89 2.852 . S
C94 C98 1.503 . S
C94 O111 1.273 . S
C94 O112 1.257 . S
C95 O93 1.255 . S
C95 O96 1.247 . S
O96 C95 1.247 . S
C97 O109 1.242 . S
C97 O110 1.258 . S
C98 C94 1.503 . S
C98 C99 1.379 . S
C98 C103 1.392 . S
C99 C98 1.379 . S
C99 C100 1.404 . S
C99 H113 0.929 . S
C100 C99 1.404 . S
C100 C101 1.389 . S
C101 C100 1.389 . S
C101 C102 1.399 . S
C101 H114 0.931 . S
C102 C101 1.399 . S
C102 C103 1.390 . S
C103 C98 1.392 . S
C103 C102 1.390 . S
C103 H115 0.929 . S
O104 Tb88 2.326 . S
O104 C92 1.242 . S
O105 Eu89 2.324 . S
O105 C92 1.258 . S
O106 Tb88 2.500 . S
O106 C108 1.273 . S
O107 Tb88 2.473 . S
O107 C108 1.257 . S
C108 O106 1.273 . S
C108 O107 1.257 . S
O109 Eu89 2.326 . S
O109 C97 1.242 . S
O110 Tb88 2.324 . S
O110 C97 1.258 . S
O111 Eu89 2.500 . S
O111 C94 1.273 . S
O112 Eu89 2.473 . S
O112 C94 1.257 . S
H113 C99 0.929 . S
H114 C101 0.931 . S
H115 C103 0.929 . S
O116 Tb117 2.292 . S
O116 C119 1.255 . S
Tb117 O116 2.292 . S
Tb117 O133 2.326 . S
Tb117 O135 2.500 . S
Tb117 O136 2.473 . S
Tb117 O139 2.324 . S
Eu118 O122 2.292 . S
Eu118 C123 2.852 . S
Eu118 O134 2.324 . S
Eu118 O138 2.326 . S
Eu118 O140 2.500 . S
Eu118 O141 2.473 . S
C119 O116 1.255 . S
C119 O120 1.247 . S
O120 C119 1.247 . S
C121 O133 1.242 . S
C121 O134 1.258 . S
O122 Eu118 2.292 . S
O122 C124 1.255 . S
C123 Eu118 2.852 . S
C123 C127 1.503 . S
C123 O140 1.273 . S
C123 O141 1.257 . S
C124 O122 1.255 . S
C124 O125 1.247 . S
O125 C124 1.247 . S
C126 O138 1.242 . S
C126 O139 1.258 . S
C127 C123 1.503 . S
C127 C128 1.379 . S
C127 C132 1.392 . S
C128 C127 1.379 . S
C128 C129 1.404 . S
C128 H142 0.929 . S
C129 C128 1.404 . S
C129 C130 1.389 . S
C130 C129 1.389 . S
C130 C131 1.399 . S
C130 H143 0.931 . S
C131 C130 1.399 . S
C131 C132 1.390 . S
C132 C127 1.392 . S
C132 C131 1.390 . S
C132 H144 0.929 . S
O133 Tb117 2.326 . S
O133 C121 1.242 . S
O134 Eu118 2.324 . S
O134 C121 1.258 . S
O135 Tb117 2.500 . S
O135 C137 1.273 . S
O136 Tb117 2.473 . S
O136 C137 1.257 . S
C137 O135 1.273 . S
C137 O136 1.257 . S
O138 Eu118 2.326 . S
O138 C126 1.242 . S
O139 Tb117 2.324 . S
O139 C126 1.258 . S
O140 Eu118 2.500 . S
O140 C123 1.273 . S
O141 Eu118 2.473 . S
O141 C123 1.257 . S
H142 C128 0.929 . S
H143 C130 0.931 . S
H144 C132 0.929 . S
O145 Tb146 2.292 . S
O145 C148 1.255 . S
Tb146 O145 2.292 . S
Tb146 O162 2.326 . S
Tb146 O164 2.500 . S
Tb146 O165 2.473 . S
Tb146 O168 2.324 . S
Eu147 O151 2.292 . S
Eu147 C152 2.852 . S
Eu147 O163 2.324 . S
Eu147 O167 2.326 . S
Eu147 O169 2.500 . S
Eu147 O170 2.473 . S
C148 O145 1.255 . S
C148 O149 1.247 . S
O149 C148 1.247 . S
C150 O162 1.242 . S
C150 O163 1.258 . S
O151 Eu147 2.292 . S
O151 C153 1.255 . S
C152 Eu147 2.852 . S
C152 C156 1.503 . S
C152 O169 1.273 . S
C152 O170 1.257 . S
C153 O151 1.255 . S
C153 O154 1.247 . S
O154 C153 1.247 . S
C155 O167 1.242 . S
C155 O168 1.258 . S
C156 C152 1.503 . S
C156 C157 1.379 . S
C156 C161 1.392 . S
C157 C156 1.379 . S
C157 C158 1.404 . S
C157 H171 0.929 . S
C158 C157 1.404 . S
C158 C159 1.389 . S
C159 C158 1.389 . S
C159 C160 1.399 . S
C159 H172 0.931 . S
C160 C159 1.399 . S
C160 C161 1.390 . S
C161 C156 1.392 . S
C161 C160 1.390 . S
C161 H173 0.929 . S
O162 Tb146 2.326 . S
O162 C150 1.242 . S
O163 Eu147 2.324 . S
O163 C150 1.258 . S
O164 Tb146 2.500 . S
O164 C166 1.273 . S
O165 Tb146 2.473 . S
O165 C166 1.257 . S
C166 O164 1.273 . S
C166 O165 1.257 . S
O167 Eu147 2.326 . S
O167 C155 1.242 . S
O168 Tb146 2.324 . S
O168 C155 1.258 . S
O169 Eu147 2.500 . S
O169 C152 1.273 . S
O170 Eu147 2.473 . S
O170 C152 1.257 . S
H171 C157 0.929 . S
H172 C159 0.931 . S
H173 C161 0.929 . S
O174 Tb175 2.292 . S
O174 C177 1.255 . S
Tb175 O174 2.292 . S
Tb175 O191 2.326 . S
Tb175 O193 2.500 . S
Tb175 O194 2.473 . S
Tb175 O197 2.324 . S
Eu176 O180 2.292 . S
Eu176 C181 2.852 . S
Eu176 O192 2.324 . S
Eu176 O196 2.326 . S
Eu176 O198 2.500 . S
Eu176 O199 2.473 . S
C177 O174 1.255 . S
C177 O178 1.247 . S
O178 C177 1.247 . S
C179 O191 1.242 . S
C179 O192 1.258 . S
O180 Eu176 2.292 . S
O180 C182 1.255 . S
C181 Eu176 2.852 . S
C181 C185 1.503 . S
C181 O198 1.273 . S
C181 O199 1.257 . S
C182 O180 1.255 . S
C182 O183 1.247 . S
O183 C182 1.247 . S
C184 O196 1.242 . S
C184 O197 1.258 . S
C185 C181 1.503 . S
C185 C186 1.379 . S
C185 C190 1.392 . S
C186 C185 1.379 . S
C186 C187 1.404 . S
C186 H200 0.929 . S
C187 C186 1.404 . S
C187 C188 1.389 . S
C188 C187 1.389 . S
C188 C189 1.399 . S
C188 H201 0.931 . S
C189 C188 1.399 . S
C189 C190 1.390 . S
C190 C185 1.392 . S
C190 C189 1.390 . S
C190 H202 0.929 . S
O191 Tb175 2.326 . S
O191 C179 1.242 . S
O192 Eu176 2.324 . S
O192 C179 1.258 . S
O193 Tb175 2.500 . S
O193 C195 1.273 . S
O194 Tb175 2.473 . S
O194 C195 1.257 . S
C195 O193 1.273 . S
C195 O194 1.257 . S
O196 Eu176 2.326 . S
O196 C184 1.242 . S
O197 Tb175 2.324 . S
O197 C184 1.258 . S
O198 Eu176 2.500 . S
O198 C181 1.273 . S
O199 Eu176 2.473 . S
O199 C181 1.257 . S
H200 C186 0.929 . S
H201 C188 0.931 . S
H202 C190 0.929 . S
O203 Tb204 2.292 . S
O203 C206 1.255 . S
Tb204 O203 2.292 . S
Tb204 O220 2.326 . S
Tb204 O222 2.500 . S
Tb204 O223 2.473 . S
Tb204 O226 2.324 . S
Eu205 O209 2.292 . S
Eu205 C210 2.852 . S
Eu205 O221 2.324 . S
Eu205 O225 2.326 . S
Eu205 O227 2.500 . S
Eu205 O228 2.473 . S
C206 O203 1.255 . S
C206 O207 1.247 . S
O207 C206 1.247 . S
C208 O220 1.242 . S
C208 O221 1.258 . S
O209 Eu205 2.292 . S
O209 C211 1.255 . S
C210 Eu205 2.852 . S
C210 C214 1.503 . S
C210 O227 1.273 . S
C210 O228 1.257 . S
C211 O209 1.255 . S
C211 O212 1.247 . S
O212 C211 1.247 . S
C213 O225 1.242 . S
C213 O226 1.258 . S
C214 C210 1.503 . S
C214 C215 1.379 . S
C214 C219 1.392 . S
C215 C214 1.379 . S
C215 C216 1.404 . S
C215 H229 0.929 . S
C216 C215 1.404 . S
C216 C217 1.389 . S
C217 C216 1.389 . S
C217 C218 1.399 . S
C217 H230 0.931 . S
C218 C217 1.399 . S
C218 C219 1.390 . S
C219 C214 1.392 . S
C219 C218 1.390 . S
C219 H231 0.929 . S
O220 Tb204 2.326 . S
O220 C208 1.242 . S
O221 Eu205 2.324 . S
O221 C208 1.258 . S
O222 Tb204 2.500 . S
O222 C224 1.273 . S
O223 Tb204 2.473 . S
O223 C224 1.257 . S
C224 O222 1.273 . S
C224 O223 1.257 . S
O225 Eu205 2.326 . S
O225 C213 1.242 . S
O226 Tb204 2.324 . S
O226 C213 1.258 . S
O227 Eu205 2.500 . S
O227 C210 1.273 . S
O228 Eu205 2.473 . S
O228 C210 1.257 . S
H229 C215 0.929 . S
H230 C217 0.931 . S
H231 C219 0.929 . S
O232 Tb233 2.292 . S
O232 C235 1.255 . S
Tb233 O232 2.292 . S
Tb233 O249 2.326 . S
Tb233 O251 2.500 . S
Tb233 O252 2.473 . S
Tb233 O255 2.324 . S
Eu234 O238 2.292 . S
Eu234 C239 2.852 . S
Eu234 O250 2.324 . S
Eu234 O254 2.326 . S
Eu234 O256 2.500 . S
Eu234 O257 2.473 . S
C235 O232 1.255 . S
C235 O236 1.247 . S
O236 C235 1.247 . S
C237 O249 1.242 . S
C237 O250 1.258 . S
O238 Eu234 2.292 . S
O238 C240 1.255 . S
C239 Eu234 2.852 . S
C239 C243 1.503 . S
C239 O256 1.273 . S
C239 O257 1.257 . S
C240 O238 1.255 . S
C240 O241 1.247 . S
O241 C240 1.247 . S
C242 O254 1.242 . S
C242 O255 1.258 . S
C243 C239 1.503 . S
C243 C244 1.379 . S
C243 C248 1.392 . S
C244 C243 1.379 . S
C244 C245 1.404 . S
C244 H258 0.929 . S
C245 C244 1.404 . S
C245 C246 1.389 . S
C246 C245 1.389 . S
C246 C247 1.399 . S
C246 H259 0.931 . S
C247 C246 1.399 . S
C247 C248 1.390 . S
C248 C243 1.392 . S
C248 C247 1.390 . S
C248 H260 0.929 . S
O249 Tb233 2.326 . S
O249 C237 1.242 . S
O250 Eu234 2.324 . S
O250 C237 1.258 . S
O251 Tb233 2.500 . S
O251 C253 1.273 . S
O252 Tb233 2.473 . S
O252 C253 1.257 . S
C253 O251 1.273 . S
C253 O252 1.257 . S
O254 Eu234 2.326 . S
O254 C242 1.242 . S
O255 Tb233 2.324 . S
O255 C242 1.258 . S
O256 Eu234 2.500 . S
O256 C239 1.273 . S
O257 Eu234 2.473 . S
O257 C239 1.257 . S
H258 C244 0.929 . S
H259 C246 0.931 . S
H260 C248 0.929 . S
O261 Tb262 2.292 . S
O261 C264 1.255 . S
Tb262 O261 2.292 . S
Tb262 O278 2.326 . S
Tb262 O280 2.500 . S
Tb262 O281 2.473 . S
Tb262 O284 2.324 . S
Eu263 O267 2.292 . S
Eu263 C268 2.852 . S
Eu263 O279 2.324 . S
Eu263 O283 2.326 . S
Eu263 O285 2.500 . S
Eu263 O286 2.473 . S
C264 O261 1.255 . S
C264 O265 1.247 . S
O265 C264 1.247 . S
C266 O278 1.242 . S
C266 O279 1.258 . S
O267 Eu263 2.292 . S
O267 C269 1.255 . S
C268 Eu263 2.852 . S
C268 C272 1.503 . S
C268 O285 1.273 . S
C268 O286 1.257 . S
C269 O267 1.255 . S
C269 O270 1.247 . S
O270 C269 1.247 . S
C271 O283 1.242 . S
C271 O284 1.258 . S
C272 C268 1.503 . S
C272 C273 1.379 . S
C272 C277 1.392 . S
C273 C272 1.379 . S
C273 C274 1.404 . S
C273 H287 0.929 . S
C274 C273 1.404 . S
C274 C275 1.389 . S
C275 C274 1.389 . S
C275 C276 1.399 . S
C275 H288 0.931 . S
C276 C275 1.399 . S
C276 C277 1.390 . S
C277 C272 1.392 . S
C277 C276 1.390 . S
C277 H289 0.929 . S
O278 Tb262 2.326 . S
O278 C266 1.242 . S
O279 Eu263 2.324 . S
O279 C266 1.258 . S
O280 Tb262 2.500 . S
O280 C282 1.273 . S
O281 Tb262 2.473 . S
O281 C282 1.257 . S
C282 O280 1.273 . S
C282 O281 1.257 . S
O283 Eu263 2.326 . S
O283 C271 1.242 . S
O284 Tb262 2.324 . S
O284 C271 1.258 . S
O285 Eu263 2.500 . S
O285 C268 1.273 . S
O286 Eu263 2.473 . S
O286 C268 1.257 . S
H287 C273 0.929 . S
H288 C275 0.931 . S
H289 C277 0.929 . S
O290 Tb291 2.292 . S
O290 C293 1.255 . S
Tb291 O290 2.292 . S
Tb291 O307 2.326 . S
Tb291 O309 2.500 . S
Tb291 O310 2.473 . S
Tb291 O313 2.324 . S
Eu292 O296 2.292 . S
Eu292 C297 2.852 . S
Eu292 O308 2.324 . S
Eu292 O312 2.326 . S
Eu292 O314 2.500 . S
Eu292 O315 2.473 . S
C293 O290 1.255 . S
C293 O294 1.247 . S
O294 C293 1.247 . S
C295 O307 1.242 . S
C295 O308 1.258 . S
O296 Eu292 2.292 . S
O296 C298 1.255 . S
C297 Eu292 2.852 . S
C297 C301 1.503 . S
C297 O314 1.273 . S
C297 O315 1.257 . S
C298 O296 1.255 . S
C298 O299 1.247 . S
O299 C298 1.247 . S
C300 O312 1.242 . S
C300 O313 1.258 . S
C301 C297 1.503 . S
C301 C302 1.379 . S
C301 C306 1.392 . S
C302 C301 1.379 . S
C302 C303 1.404 . S
C302 H316 0.929 . S
C303 C302 1.404 . S
C303 C304 1.389 . S
C304 C303 1.389 . S
C304 C305 1.399 . S
C304 H317 0.931 . S
C305 C304 1.399 . S
C305 C306 1.390 . S
C306 C301 1.392 . S
C306 C305 1.390 . S
C306 H318 0.929 . S
O307 Tb291 2.326 . S
O307 C295 1.242 . S
O308 Eu292 2.324 . S
O308 C295 1.258 . S
O309 Tb291 2.500 . S
O309 C311 1.273 . S
O310 Tb291 2.473 . S
O310 C311 1.257 . S
C311 O309 1.273 . S
C311 O310 1.257 . S
O312 Eu292 2.326 . S
O312 C300 1.242 . S
O313 Tb291 2.324 . S
O313 C300 1.258 . S
O314 Eu292 2.500 . S
O314 C297 1.273 . S
O315 Eu292 2.473 . S
O315 C297 1.257 . S
H316 C302 0.929 . S
H317 C304 0.931 . S
H318 C306 0.929 . S
O319 Tb320 2.292 . S
O319 C322 1.255 . S
Tb320 O319 2.292 . S
Tb320 O336 2.326 . S
Tb320 O338 2.500 . S
Tb320 O339 2.473 . S
Tb320 O342 2.324 . S
Eu321 O325 2.292 . S
Eu321 C326 2.852 . S
Eu321 O337 2.324 . S
Eu321 O341 2.326 . S
Eu321 O343 2.500 . S
Eu321 O344 2.473 . S
C322 O319 1.255 . S
C322 O323 1.247 . S
O323 C322 1.247 . S
C324 O336 1.242 . S
C324 O337 1.258 . S
O325 Eu321 2.292 . S
O325 C327 1.255 . S
C326 Eu321 2.852 . S
C326 C330 1.503 . S
C326 O343 1.273 . S
C326 O344 1.257 . S
C327 O325 1.255 . S
C327 O328 1.247 . S
O328 C327 1.247 . S
C329 O341 1.242 . S
C329 O342 1.258 . S
C330 C326 1.503 . S
C330 C331 1.379 . S
C330 C335 1.392 . S
C331 C330 1.379 . S
C331 C332 1.404 . S
C331 H345 0.929 . S
C332 C331 1.404 . S
C332 C333 1.389 . S
C333 C332 1.389 . S
C333 C334 1.399 . S
C333 H346 0.931 . S
C334 C333 1.399 . S
C334 C335 1.390 . S
C335 C330 1.392 . S
C335 C334 1.390 . S
C335 H347 0.929 . S
O336 Tb320 2.326 . S
O336 C324 1.242 . S
O337 Eu321 2.324 . S
O337 C324 1.258 . S
O338 Tb320 2.500 . S
O338 C340 1.273 . S
O339 Tb320 2.473 . S
O339 C340 1.257 . S
C340 O338 1.273 . S
C340 O339 1.257 . S
O341 Eu321 2.326 . S
O341 C329 1.242 . S
O342 Tb320 2.324 . S
O342 C329 1.258 . S
O343 Eu321 2.500 . S
O343 C326 1.273 . S
O344 Eu321 2.473 . S
O344 C326 1.257 . S
H345 C331 0.929 . S
H346 C333 0.931 . S
H347 C335 0.929 . S
O348 Tb349 2.292 . S
O348 C351 1.255 . S
Tb349 O348 2.292 . S
Tb349 O365 2.326 . S
Tb349 O367 2.500 . S
Tb349 O368 2.473 . S
Tb349 O371 2.324 . S
Eu350 O354 2.292 . S
Eu350 C355 2.852 . S
Eu350 O366 2.324 . S
Eu350 O370 2.326 . S
Eu350 O372 2.500 . S
Eu350 O373 2.473 . S
C351 O348 1.255 . S
C351 O352 1.247 . S
O352 C351 1.247 . S
C353 O365 1.242 . S
C353 O366 1.258 . S
O354 Eu350 2.292 . S
O354 C356 1.255 . S
C355 Eu350 2.852 . S
C355 C359 1.503 . S
C355 O372 1.273 . S
C355 O373 1.257 . S
C356 O354 1.255 . S
C356 O357 1.247 . S
O357 C356 1.247 . S
C358 O370 1.242 . S
C358 O371 1.258 . S
C359 C355 1.503 . S
C359 C360 1.379 . S
C359 C364 1.392 . S
C360 C359 1.379 . S
C360 C361 1.404 . S
C360 H374 0.929 . S
C361 C360 1.404 . S
C361 C362 1.389 . S
C362 C361 1.389 . S
C362 C363 1.399 . S
C362 H375 0.931 . S
C363 C362 1.399 . S
C363 C364 1.390 . S
C364 C359 1.392 . S
C364 C363 1.390 . S
C364 H376 0.929 . S
O365 Tb349 2.326 . S
O365 C353 1.242 . S
O366 Eu350 2.324 . S
O366 C353 1.258 . S
O367 Tb349 2.500 . S
O367 C369 1.273 . S
O368 Tb349 2.473 . S
O368 C369 1.257 . S
C369 O367 1.273 . S
C369 O368 1.257 . S
O370 Eu350 2.326 . S
O370 C358 1.242 . S
O371 Tb349 2.324 . S
O371 C358 1.258 . S
O372 Eu350 2.500 . S
O372 C355 1.273 . S
O373 Eu350 2.473 . S
O373 C355 1.257 . S
H374 C360 0.929 . S
H375 C362 0.931 . S
H376 C364 0.929 . S
O377 Tb378 2.292 . S
O377 C380 1.255 . S
Tb378 O377 2.292 . S
Tb378 O394 2.326 . S
Tb378 O396 2.500 . S
Tb378 O397 2.473 . S
Tb378 O400 2.324 . S
Eu379 O383 2.292 . S
Eu379 C384 2.852 . S
Eu379 O395 2.324 . S
Eu379 O399 2.326 . S
Eu379 O401 2.500 . S
Eu379 O402 2.473 . S
C380 O377 1.255 . S
C380 O381 1.247 . S
O381 C380 1.247 . S
C382 O394 1.242 . S
C382 O395 1.258 . S
O383 Eu379 2.292 . S
O383 C385 1.255 . S
C384 Eu379 2.852 . S
C384 C388 1.503 . S
C384 O401 1.273 . S
C384 O402 1.257 . S
C385 O383 1.255 . S
C385 O386 1.247 . S
O386 C385 1.247 . S
C387 O399 1.242 . S
C387 O400 1.258 . S
C388 C384 1.503 . S
C388 C389 1.379 . S
C388 C393 1.392 . S
C389 C388 1.379 . S
C389 C390 1.404 . S
C389 H403 0.929 . S
C390 C389 1.404 . S
C390 C391 1.389 . S
C391 C390 1.389 . S
C391 C392 1.399 . S
C391 H404 0.931 . S
C392 C391 1.399 . S
C392 C393 1.390 . S
C393 C388 1.392 . S
C393 C392 1.390 . S
C393 H405 0.929 . S
O394 Tb378 2.326 . S
O394 C382 1.242 . S
O395 Eu379 2.324 . S
O395 C382 1.258 . S
O396 Tb378 2.500 . S
O396 C398 1.273 . S
O397 Tb378 2.473 . S
O397 C398 1.257 . S
C398 O396 1.273 . S
C398 O397 1.257 . S
O399 Eu379 2.326 . S
O399 C387 1.242 . S
O400 Tb378 2.324 . S
O400 C387 1.258 . S
O401 Eu379 2.500 . S
O401 C384 1.273 . S
O402 Eu379 2.473 . S
O402 C384 1.257 . S
H403 C389 0.929 . S
H404 C391 0.931 . S
H405 C393 0.929 . S
O406 Tb407 2.292 . S
O406 C409 1.255 . S
Tb407 O406 2.292 . S
Tb407 O423 2.326 . S
Tb407 O425 2.500 . S
Tb407 O426 2.473 . S
Tb407 O429 2.324 . S
Eu408 O412 2.292 . S
Eu408 C413 2.852 . S
Eu408 O424 2.324 . S
Eu408 O428 2.326 . S
Eu408 O430 2.500 . S
Eu408 O431 2.473 . S
C409 O406 1.255 . S
C409 O410 1.247 . S
O410 C409 1.247 . S
C411 O423 1.242 . S
C411 O424 1.258 . S
O412 Eu408 2.292 . S
O412 C414 1.255 . S
C413 Eu408 2.852 . S
C413 C417 1.503 . S
C413 O430 1.273 . S
C413 O431 1.257 . S
C414 O412 1.255 . S
C414 O415 1.247 . S
O415 C414 1.247 . S
C416 O428 1.242 . S
C416 O429 1.258 . S
C417 C413 1.503 . S
C417 C418 1.379 . S
C417 C422 1.392 . S
C418 C417 1.379 . S
C418 C419 1.404 . S
C418 H432 0.929 . S
C419 C418 1.404 . S
C419 C420 1.389 . S
C420 C419 1.389 . S
C420 C421 1.399 . S
C420 H433 0.931 . S
C421 C420 1.399 . S
C421 C422 1.390 . S
C422 C417 1.392 . S
C422 C421 1.390 . S
C422 H434 0.929 . S
O423 Tb407 2.326 . S
O423 C411 1.242 . S
O424 Eu408 2.324 . S
O424 C411 1.258 . S
O425 Tb407 2.500 . S
O425 C427 1.273 . S
O426 Tb407 2.473 . S
O426 C427 1.257 . S
C427 O425 1.273 . S
C427 O426 1.257 . S
O428 Eu408 2.326 . S
O428 C416 1.242 . S
O429 Tb407 2.324 . S
O429 C416 1.258 . S
O430 Eu408 2.500 . S
O430 C413 1.273 . S
O431 Eu408 2.473 . S
O431 C413 1.257 . S
H432 C418 0.929 . S
H433 C420 0.931 . S
H434 C422 0.929 . S
O435 Tb436 2.292 . S
O435 C438 1.255 . S
Tb436 O435 2.292 . S
Tb436 O452 2.326 . S
Tb436 O454 2.500 . S
Tb436 O455 2.473 . S
Tb436 O458 2.324 . S
Eu437 O441 2.292 . S
Eu437 C442 2.852 . S
Eu437 O453 2.324 . S
Eu437 O457 2.326 . S
Eu437 O459 2.500 . S
Eu437 O460 2.473 . S
C438 O435 1.255 . S
C438 O439 1.247 . S
O439 C438 1.247 . S
C440 O452 1.242 . S
C440 O453 1.258 . S
O441 Eu437 2.292 . S
O441 C443 1.255 . S
C442 Eu437 2.852 . S
C442 C446 1.503 . S
C442 O459 1.273 . S
C442 O460 1.257 . S
C443 O441 1.255 . S
C443 O444 1.247 . S
O444 C443 1.247 . S
C445 O457 1.242 . S
C445 O458 1.258 . S
C446 C442 1.503 . S
C446 C447 1.379 . S
C446 C451 1.392 . S
C447 C446 1.379 . S
C447 C448 1.404 . S
C447 H461 0.929 . S
C448 C447 1.404 . S
C448 C449 1.389 . S
C449 C448 1.389 . S
C449 C450 1.399 . S
C449 H462 0.931 . S
C450 C449 1.399 . S
C450 C451 1.390 . S
C451 C446 1.392 . S
C451 C450 1.390 . S
C451 H463 0.929 . S
O452 Tb436 2.326 . S
O452 C440 1.242 . S
O453 Eu437 2.324 . S
O453 C440 1.258 . S
O454 Tb436 2.500 . S
O454 C456 1.273 . S
O455 Tb436 2.473 . S
O455 C456 1.257 . S
C456 O454 1.273 . S
C456 O455 1.257 . S
O457 Eu437 2.326 . S
O457 C445 1.242 . S
O458 Tb436 2.324 . S
O458 C445 1.258 . S
O459 Eu437 2.500 . S
O459 C442 1.273 . S
O460 Eu437 2.473 . S
O460 C442 1.257 . S
H461 C447 0.929 . S
H462 C449 0.931 . S
H463 C451 0.929 . S
O464 Tb465 2.292 . S
O464 C467 1.255 . S
Tb465 O464 2.292 . S
Tb465 O481 2.326 . S
Tb465 O483 2.500 . S
Tb465 O484 2.473 . S
Tb465 O487 2.324 . S
Eu466 O470 2.292 . S
Eu466 C471 2.852 . S
Eu466 O482 2.324 . S
Eu466 O486 2.326 . S
Eu466 O488 2.500 . S
Eu466 O489 2.473 . S
C467 O464 1.255 . S
C467 O468 1.247 . S
O468 C467 1.247 . S
C469 O481 1.242 . S
C469 O482 1.258 . S
O470 Eu466 2.292 . S
O470 C472 1.255 . S
C471 Eu466 2.852 . S
C471 C475 1.503 . S
C471 O488 1.273 . S
C471 O489 1.257 . S
C472 O470 1.255 . S
C472 O473 1.247 . S
O473 C472 1.247 . S
C474 O486 1.242 . S
C474 O487 1.258 . S
C475 C471 1.503 . S
C475 C476 1.379 . S
C475 C480 1.392 . S
C476 C475 1.379 . S
C476 C477 1.404 . S
C476 H490 0.929 . S
C477 C476 1.404 . S
C477 C478 1.389 . S
C478 C477 1.389 . S
C478 C479 1.399 . S
C478 H491 0.931 . S
C479 C478 1.399 . S
C479 C480 1.390 . S
C480 C475 1.392 . S
C480 C479 1.390 . S
C480 H492 0.929 . S
O481 Tb465 2.326 . S
O481 C469 1.242 . S
O482 Eu466 2.324 . S
O482 C469 1.258 . S
O483 Tb465 2.500 . S
O483 C485 1.273 . S
O484 Tb465 2.473 . S
O484 C485 1.257 . S
C485 O483 1.273 . S
C485 O484 1.257 . S
O486 Eu466 2.326 . S
O486 C474 1.242 . S
O487 Tb465 2.324 . S
O487 C474 1.258 . S
O488 Eu466 2.500 . S
O488 C471 1.273 . S
O489 Eu466 2.473 . S
O489 C471 1.257 . S
H490 C476 0.929 . S
H491 C478 0.931 . S
H492 C480 0.929 . S
O493 Tb494 2.292 . S
O493 C496 1.255 . S
Tb494 O493 2.292 . S
Tb494 O510 2.326 . S
Tb494 O512 2.500 . S
Tb494 O513 2.473 . S
Tb494 O516 2.324 . S
Eu495 O499 2.292 . S
Eu495 C500 2.852 . S
Eu495 O511 2.324 . S
Eu495 O515 2.326 . S
Eu495 O517 2.500 . S
Eu495 O518 2.473 . S
C496 O493 1.255 . S
C496 O497 1.247 . S
O497 C496 1.247 . S
C498 O510 1.242 . S
C498 O511 1.258 . S
O499 Eu495 2.292 . S
O499 C501 1.255 . S
C500 Eu495 2.852 . S
C500 C504 1.503 . S
C500 O517 1.273 . S
C500 O518 1.257 . S
C501 O499 1.255 . S
C501 O502 1.247 . S
O502 C501 1.247 . S
C503 O515 1.242 . S
C503 O516 1.258 . S
C504 C500 1.503 . S
C504 C505 1.379 . S
C504 C509 1.392 . S
C505 C504 1.379 . S
C505 C506 1.404 . S
C505 H519 0.929 . S
C506 C505 1.404 . S
C506 C507 1.389 . S
C507 C506 1.389 . S
C507 C508 1.399 . S
C507 H520 0.931 . S
C508 C507 1.399 . S
C508 C509 1.390 . S
C509 C504 1.392 . S
C509 C508 1.390 . S
C509 H521 0.929 . S
O510 Tb494 2.326 . S
O510 C498 1.242 . S
O511 Eu495 2.324 . S
O511 C498 1.258 . S
O512 Tb494 2.500 . S
O512 C514 1.273 . S
O513 Tb494 2.473 . S
O513 C514 1.257 . S
C514 O512 1.273 . S
C514 O513 1.257 . S
O515 Eu495 2.326 . S
O515 C503 1.242 . S
O516 Tb494 2.324 . S
O516 C503 1.258 . S
O517 Eu495 2.500 . S
O517 C500 1.273 . S
O518 Eu495 2.473 . S
O518 C500 1.257 . S
H519 C505 0.929 . S
H520 C507 0.931 . S
H521 C509 0.929 . S
O522 Tb523 2.292 . S
O522 C525 1.255 . S
Tb523 O522 2.292 . S
Tb523 O539 2.326 . S
Tb523 O541 2.500 . S
Tb523 O542 2.473 . S
Tb523 O545 2.324 . S
Eu524 O528 2.292 . S
Eu524 C529 2.852 . S
Eu524 O540 2.324 . S
Eu524 O544 2.326 . S
Eu524 O546 2.500 . S
Eu524 O547 2.473 . S
C525 O522 1.255 . S
C525 O526 1.247 . S
O526 C525 1.247 . S
C527 O539 1.242 . S
C527 O540 1.258 . S
O528 Eu524 2.292 . S
O528 C530 1.255 . S
C529 Eu524 2.852 . S
C529 C533 1.503 . S
C529 O546 1.273 . S
C529 O547 1.257 . S
C530 O528 1.255 . S
C530 O531 1.247 . S
O531 C530 1.247 . S
C532 O544 1.242 . S
C532 O545 1.258 . S
C533 C529 1.503 . S
C533 C534 1.379 . S
C533 C538 1.392 . S
C534 C533 1.379 . S
C534 C535 1.404 . S
C534 H548 0.929 . S
C535 C534 1.404 . S
C535 C536 1.389 . S
C536 C535 1.389 . S
C536 C537 1.399 . S
C536 H549 0.931 . S
C537 C536 1.399 . S
C537 C538 1.390 . S
C538 C533 1.392 . S
C538 C537 1.390 . S
C538 H550 0.929 . S
O539 Tb523 2.326 . S
O539 C527 1.242 . S
O540 Eu524 2.324 . S
O540 C527 1.258 . S
O541 Tb523 2.500 . S
O541 C543 1.273 . S
O542 Tb523 2.473 . S
O542 C543 1.257 . S
C543 O541 1.273 . S
C543 O542 1.257 . S
O544 Eu524 2.326 . S
O544 C532 1.242 . S
O545 Tb523 2.324 . S
O545 C532 1.258 . S
O546 Eu524 2.500 . S
O546 C529 1.273 . S
O547 Eu524 2.473 . S
O547 C529 1.257 . S
H548 C534 0.929 . S
H549 C536 0.931 . S
H550 C538 0.929 . S
O551 Tb552 2.292 . S
O551 C554 1.255 . S
Tb552 O551 2.292 . S
Tb552 O568 2.326 . S
Tb552 O570 2.500 . S
Tb552 O571 2.473 . S
Tb552 O574 2.324 . S
Eu553 O557 2.292 . S
Eu553 C558 2.852 . S
Eu553 O569 2.324 . S
Eu553 O573 2.326 . S
Eu553 O575 2.500 . S
Eu553 O576 2.473 . S
C554 O551 1.255 . S
C554 O555 1.247 . S
O555 C554 1.247 . S
C556 O568 1.242 . S
C556 O569 1.258 . S
O557 Eu553 2.292 . S
O557 C559 1.255 . S
C558 Eu553 2.852 . S
C558 C562 1.503 . S
C558 O575 1.273 . S
C558 O576 1.257 . S
C559 O557 1.255 . S
C559 O560 1.247 . S
O560 C559 1.247 . S
C561 O573 1.242 . S
C561 O574 1.258 . S
C562 C558 1.503 . S
C562 C563 1.379 . S
C562 C567 1.392 . S
C563 C562 1.379 . S
C563 C564 1.404 . S
C563 H577 0.929 . S
C564 C563 1.404 . S
C564 C565 1.389 . S
C565 C564 1.389 . S
C565 C566 1.399 . S
C565 H578 0.931 . S
C566 C565 1.399 . S
C566 C567 1.390 . S
C567 C562 1.392 . S
C567 C566 1.390 . S
C567 H579 0.929 . S
O568 Tb552 2.326 . S
O568 C556 1.242 . S
O569 Eu553 2.324 . S
O569 C556 1.258 . S
O570 Tb552 2.500 . S
O570 C572 1.273 . S
O571 Tb552 2.473 . S
O571 C572 1.257 . S
C572 O570 1.273 . S
C572 O571 1.257 . S
O573 Eu553 2.326 . S
O573 C561 1.242 . S
O574 Tb552 2.324 . S
O574 C561 1.258 . S
O575 Eu553 2.500 . S
O575 C558 1.273 . S
O576 Eu553 2.473 . S
O576 C558 1.257 . S
H577 C563 0.929 . S
H578 C565 0.931 . S
H579 C567 0.929 . S
O580 Tb581 2.292 . S
O580 C583 1.255 . S
Tb581 O580 2.292 . S
Tb581 O597 2.326 . S
Tb581 O599 2.500 . S
Tb581 O600 2.473 . S
Tb581 O603 2.324 . S
Eu582 O586 2.292 . S
Eu582 C587 2.852 . S
Eu582 O598 2.324 . S
Eu582 O602 2.326 . S
Eu582 O604 2.500 . S
Eu582 O605 2.473 . S
C583 O580 1.255 . S
C583 O584 1.247 . S
O584 C583 1.247 . S
C585 O597 1.242 . S
C585 O598 1.258 . S
O586 Eu582 2.292 . S
O586 C588 1.255 . S
C587 Eu582 2.852 . S
C587 C591 1.503 . S
C587 O604 1.273 . S
C587 O605 1.257 . S
C588 O586 1.255 . S
C588 O589 1.247 . S
O589 C588 1.247 . S
C590 O602 1.242 . S
C590 O603 1.258 . S
C591 C587 1.503 . S
C591 C592 1.379 . S
C591 C596 1.392 . S
C592 C591 1.379 . S
C592 C593 1.404 . S
C592 H606 0.929 . S
C593 C592 1.404 . S
C593 C594 1.389 . S
C594 C593 1.389 . S
C594 C595 1.399 . S
C594 H607 0.931 . S
C595 C594 1.399 . S
C595 C596 1.390 . S
C596 C591 1.392 . S
C596 C595 1.390 . S
C596 H608 0.929 . S
O597 Tb581 2.326 . S
O597 C585 1.242 . S
O598 Eu582 2.324 . S
O598 C585 1.258 . S
O599 Tb581 2.500 . S
O599 C601 1.273 . S
O600 Tb581 2.473 . S
O600 C601 1.257 . S
C601 O599 1.273 . S
C601 O600 1.257 . S
O602 Eu582 2.326 . S
O602 C590 1.242 . S
O603 Tb581 2.324 . S
O603 C590 1.258 . S
O604 Eu582 2.500 . S
O604 C587 1.273 . S
O605 Eu582 2.473 . S
O605 C587 1.257 . S
H606 C592 0.929 . S
H607 C594 0.931 . S
H608 C596 0.929 . S
O609 Tb610 2.292 . S
O609 C612 1.255 . S
Tb610 O609 2.292 . S
Tb610 O626 2.326 . S
Tb610 O628 2.500 . S
Tb610 O629 2.473 . S
Tb610 O632 2.324 . S
Eu611 O615 2.292 . S
Eu611 C616 2.852 . S
Eu611 O627 2.324 . S
Eu611 O631 2.326 . S
Eu611 O633 2.500 . S
Eu611 O634 2.473 . S
C612 O609 1.255 . S
C612 O613 1.247 . S
O613 C612 1.247 . S
C614 O626 1.242 . S
C614 O627 1.258 . S
O615 Eu611 2.292 . S
O615 C617 1.255 . S
C616 Eu611 2.852 . S
C616 C620 1.503 . S
C616 O633 1.273 . S
C616 O634 1.257 . S
C617 O615 1.255 . S
C617 O618 1.247 . S
O618 C617 1.247 . S
C619 O631 1.242 . S
C619 O632 1.258 . S
C620 C616 1.503 . S
C620 C621 1.379 . S
C620 C625 1.392 . S
C621 C620 1.379 . S
C621 C622 1.404 . S
C621 H635 0.929 . S
C622 C621 1.404 . S
C622 C623 1.389 . S
C623 C622 1.389 . S
C623 C624 1.399 . S
C623 H636 0.931 . S
C624 C623 1.399 . S
C624 C625 1.390 . S
C625 C620 1.392 . S
C625 C624 1.390 . S
C625 H637 0.929 . S
O626 Tb610 2.326 . S
O626 C614 1.242 . S
O627 Eu611 2.324 . S
O627 C614 1.258 . S
O628 Tb610 2.500 . S
O628 C630 1.273 . S
O629 Tb610 2.473 . S
O629 C630 1.257 . S
C630 O628 1.273 . S
C630 O629 1.257 . S
O631 Eu611 2.326 . S
O631 C619 1.242 . S
O632 Tb610 2.324 . S
O632 C619 1.258 . S
O633 Eu611 2.500 . S
O633 C616 1.273 . S
O634 Eu611 2.473 . S
O634 C616 1.257 . S
H635 C621 0.929 . S
H636 C623 0.931 . S
H637 C625 0.929 . S
O638 Tb639 2.292 . S
O638 C641 1.255 . S
Tb639 O638 2.292 . S
Tb639 O655 2.326 . S
Tb639 O657 2.500 . S
Tb639 O658 2.473 . S
Tb639 O661 2.324 . S
Eu640 O644 2.292 . S
Eu640 C645 2.852 . S
Eu640 O656 2.324 . S
Eu640 O660 2.326 . S
Eu640 O662 2.500 . S
Eu640 O663 2.473 . S
C641 O638 1.255 . S
C641 O642 1.247 . S
O642 C641 1.247 . S
C643 O655 1.242 . S
C643 O656 1.258 . S
O644 Eu640 2.292 . S
O644 C646 1.255 . S
C645 Eu640 2.852 . S
C645 C649 1.503 . S
C645 O662 1.273 . S
C645 O663 1.257 . S
C646 O644 1.255 . S
C646 O647 1.247 . S
O647 C646 1.247 . S
C648 O660 1.242 . S
C648 O661 1.258 . S
C649 C645 1.503 . S
C649 C650 1.379 . S
C649 C654 1.392 . S
C650 C649 1.379 . S
C650 C651 1.404 . S
C650 H664 0.929 . S
C651 C650 1.404 . S
C651 C652 1.389 . S
C652 C651 1.389 . S
C652 C653 1.399 . S
C652 H665 0.931 . S
C653 C652 1.399 . S
C653 C654 1.390 . S
C654 C649 1.392 . S
C654 C653 1.390 . S
C654 H666 0.929 . S
O655 Tb639 2.326 . S
O655 C643 1.242 . S
O656 Eu640 2.324 . S
O656 C643 1.258 . S
O657 Tb639 2.500 . S
O657 C659 1.273 . S
O658 Tb639 2.473 . S
O658 C659 1.257 . S
C659 O657 1.273 . S
C659 O658 1.257 . S
O660 Eu640 2.326 . S
O660 C648 1.242 . S
O661 Tb639 2.324 . S
O661 C648 1.258 . S
O662 Eu640 2.500 . S
O662 C645 1.273 . S
O663 Eu640 2.473 . S
O663 C645 1.257 . S
H664 C650 0.929 . S
H665 C652 0.931 . S
H666 C654 0.929 . S
O667 Tb668 2.292 . S
O667 C670 1.255 . S
Tb668 O667 2.292 . S
Tb668 O684 2.326 . S
Tb668 O686 2.500 . S
Tb668 O687 2.473 . S
Tb668 O690 2.324 . S
Eu669 O673 2.292 . S
Eu669 C674 2.852 . S
Eu669 O685 2.324 . S
Eu669 O689 2.326 . S
Eu669 O691 2.500 . S
Eu669 O692 2.473 . S
C670 O667 1.255 . S
C670 O671 1.247 . S
O671 C670 1.247 . S
C672 O684 1.242 . S
C672 O685 1.258 . S
O673 Eu669 2.292 . S
O673 C675 1.255 . S
C674 Eu669 2.852 . S
C674 C678 1.503 . S
C674 O691 1.273 . S
C674 O692 1.257 . S
C675 O673 1.255 . S
C675 O676 1.247 . S
O676 C675 1.247 . S
C677 O689 1.242 . S
C677 O690 1.258 . S
C678 C674 1.503 . S
C678 C679 1.379 . S
C678 C683 1.392 . S
C679 C678 1.379 . S
C679 C680 1.404 . S
C679 H693 0.929 . S
C680 C679 1.404 . S
C680 C681 1.389 . S
C681 C680 1.389 . S
C681 C682 1.399 . S
C681 H694 0.931 . S
C682 C681 1.399 . S
C682 C683 1.390 . S
C683 C678 1.392 . S
C683 C682 1.390 . S
C683 H695 0.929 . S
O684 Tb668 2.326 . S
O684 C672 1.242 . S
O685 Eu669 2.324 . S
O685 C672 1.258 . S
O686 Tb668 2.500 . S
O686 C688 1.273 . S
O687 Tb668 2.473 . S
O687 C688 1.257 . S
C688 O686 1.273 . S
C688 O687 1.257 . S
O689 Eu669 2.326 . S
O689 C677 1.242 . S
O690 Tb668 2.324 . S
O690 C677 1.258 . S
O691 Eu669 2.500 . S
O691 C674 1.273 . S
O692 Eu669 2.473 . S
O692 C674 1.257 . S
H693 C679 0.929 . S
H694 C681 0.931 . S
H695 C683 0.929 . S
O696 Tb697 2.292 . S
O696 C699 1.255 . S
Tb697 O696 2.292 . S
Tb697 O713 2.326 . S
Tb697 O715 2.500 . S
Tb697 O716 2.473 . S
Tb697 O719 2.324 . S
Eu698 O702 2.292 . S
Eu698 C703 2.852 . S
Eu698 O714 2.324 . S
Eu698 O718 2.326 . S
Eu698 O720 2.500 . S
Eu698 O721 2.473 . S
C699 O696 1.255 . S
C699 O700 1.247 . S
O700 C699 1.247 . S
C701 O713 1.242 . S
C701 O714 1.258 . S
O702 Eu698 2.292 . S
O702 C704 1.255 . S
C703 Eu698 2.852 . S
C703 C707 1.503 . S
C703 O720 1.273 . S
C703 O721 1.257 . S
C704 O702 1.255 . S
C704 O705 1.247 . S
O705 C704 1.247 . S
C706 O718 1.242 . S
C706 O719 1.258 . S
C707 C703 1.503 . S
C707 C708 1.379 . S
C707 C712 1.392 . S
C708 C707 1.379 . S
C708 C709 1.404 . S
C708 H722 0.929 . S
C709 C708 1.404 . S
C709 C710 1.389 . S
C710 C709 1.389 . S
C710 C711 1.399 . S
C710 H723 0.931 . S
C711 C710 1.399 . S
C711 C712 1.390 . S
C712 C707 1.392 . S
C712 C711 1.390 . S
C712 H724 0.929 . S
O713 Tb697 2.326 . S
O713 C701 1.242 . S
O714 Eu698 2.324 . S
O714 C701 1.258 . S
O715 Tb697 2.500 . S
O715 C717 1.273 . S
O716 Tb697 2.473 . S
O716 C717 1.257 . S
C717 O715 1.273 . S
C717 O716 1.257 . S
O718 Eu698 2.326 . S
O718 C706 1.242 . S
O719 Tb697 2.324 . S
O719 C706 1.258 . S
O720 Eu698 2.500 . S
O720 C703 1.273 . S
O721 Eu698 2.473 . S
O721 C703 1.257 . S
H722 C708 0.929 . S
H723 C710 0.931 . S
H724 C712 0.929 . S
O725 Tb726 2.292 . S
O725 C728 1.255 . S
Tb726 O725 2.292 . S
Tb726 O742 2.326 . S
Tb726 O744 2.500 . S
Tb726 O745 2.473 . S
Tb726 O748 2.324 . S
Eu727 O731 2.292 . S
Eu727 C732 2.852 . S
Eu727 O743 2.324 . S
Eu727 O747 2.326 . S
Eu727 O749 2.500 . S
Eu727 O750 2.473 . S
C728 O725 1.255 . S
C728 O729 1.247 . S
O729 C728 1.247 . S
C730 O742 1.242 . S
C730 O743 1.258 . S
O731 Eu727 2.292 . S
O731 C733 1.255 . S
C732 Eu727 2.852 . S
C732 C736 1.503 . S
C732 O749 1.273 . S
C732 O750 1.257 . S
C733 O731 1.255 . S
C733 O734 1.247 . S
O734 C733 1.247 . S
C735 O747 1.242 . S
C735 O748 1.258 . S
C736 C732 1.503 . S
C736 C737 1.379 . S
C736 C741 1.392 . S
C737 C736 1.379 . S
C737 C738 1.404 . S
C737 H751 0.929 . S
C738 C737 1.404 . S
C738 C739 1.389 . S
C739 C738 1.389 . S
C739 C740 1.399 . S
C739 H752 0.931 . S
C740 C739 1.399 . S
C740 C741 1.390 . S
C741 C736 1.392 . S
C741 C740 1.390 . S
C741 H753 0.929 . S
O742 Tb726 2.326 . S
O742 C730 1.242 . S
O743 Eu727 2.324 . S
O743 C730 1.258 . S
O744 Tb726 2.500 . S
O744 C746 1.273 . S
O745 Tb726 2.473 . S
O745 C746 1.257 . S
C746 O744 1.273 . S
C746 O745 1.257 . S
O747 Eu727 2.326 . S
O747 C735 1.242 . S
O748 Tb726 2.324 . S
O748 C735 1.258 . S
O749 Eu727 2.500 . S
O749 C732 1.273 . S
O750 Eu727 2.473 . S
O750 C732 1.257 . S
H751 C737 0.929 . S
H752 C739 0.931 . S
H753 C741 0.929 . S
O754 Tb755 2.292 . S
O754 C757 1.255 . S
Tb755 O754 2.292 . S
Tb755 O771 2.326 . S
Tb755 O773 2.500 . S
Tb755 O774 2.473 . S
Tb755 O777 2.324 . S
Eu756 O760 2.292 . S
Eu756 C761 2.852 . S
Eu756 O772 2.324 . S
Eu756 O776 2.326 . S
Eu756 O778 2.500 . S
Eu756 O779 2.473 . S
C757 O754 1.255 . S
C757 O758 1.247 . S
O758 C757 1.247 . S
C759 O771 1.242 . S
C759 O772 1.258 . S
O760 Eu756 2.292 . S
O760 C762 1.255 . S
C761 Eu756 2.852 . S
C761 C765 1.503 . S
C761 O778 1.273 . S
C761 O779 1.257 . S
C762 O760 1.255 . S
C762 O763 1.247 . S
O763 C762 1.247 . S
C764 O776 1.242 . S
C764 O777 1.258 . S
C765 C761 1.503 . S
C765 C766 1.379 . S
C765 C770 1.392 . S
C766 C765 1.379 . S
C766 C767 1.404 . S
C766 H780 0.929 . S
C767 C766 1.404 . S
C767 C768 1.389 . S
C768 C767 1.389 . S
C768 C769 1.399 . S
C768 H781 0.931 . S
C769 C768 1.399 . S
C769 C770 1.390 . S
C770 C765 1.392 . S
C770 C769 1.390 . S
C770 H782 0.929 . S
O771 Tb755 2.326 . S
O771 C759 1.242 . S
O772 Eu756 2.324 . S
O772 C759 1.258 . S
O773 Tb755 2.500 . S
O773 C775 1.273 . S
O774 Tb755 2.473 . S
O774 C775 1.257 . S
C775 O773 1.273 . S
C775 O774 1.257 . S
O776 Eu756 2.326 . S
O776 C764 1.242 . S
O777 Tb755 2.324 . S
O777 C764 1.258 . S
O778 Eu756 2.500 . S
O778 C761 1.273 . S
O779 Eu756 2.473 . S
O779 C761 1.257 . S
H780 C766 0.929 . S
H781 C768 0.931 . S
H782 C770 0.929 . S
O783 Tb784 2.292 . S
O783 C786 1.255 . S
Tb784 O783 2.292 . S
Tb784 O800 2.326 . S
Tb784 O802 2.500 . S
Tb784 O803 2.473 . S
Tb784 O806 2.324 . S
Eu785 O789 2.292 . S
Eu785 C790 2.852 . S
Eu785 O801 2.324 . S
Eu785 O805 2.326 . S
Eu785 O807 2.500 . S
Eu785 O808 2.473 . S
C786 O783 1.255 . S
C786 O787 1.247 . S
O787 C786 1.247 . S
C788 O800 1.242 . S
C788 O801 1.258 . S
O789 Eu785 2.292 . S
O789 C791 1.255 . S
C790 Eu785 2.852 . S
C790 C794 1.503 . S
C790 O807 1.273 . S
C790 O808 1.257 . S
C791 O789 1.255 . S
C791 O792 1.247 . S
O792 C791 1.247 . S
C793 O805 1.242 . S
C793 O806 1.258 . S
C794 C790 1.503 . S
C794 C795 1.379 . S
C794 C799 1.392 . S
C795 C794 1.379 . S
C795 C796 1.404 . S
C795 H809 0.929 . S
C796 C795 1.404 . S
C796 C797 1.389 . S
C797 C796 1.389 . S
C797 C798 1.399 . S
C797 H810 0.931 . S
C798 C797 1.399 . S
C798 C799 1.390 . S
C799 C794 1.392 . S
C799 C798 1.390 . S
C799 H811 0.929 . S
O800 Tb784 2.326 . S
O800 C788 1.242 . S
O801 Eu785 2.324 . S
O801 C788 1.258 . S
O802 Tb784 2.500 . S
O802 C804 1.273 . S
O803 Tb784 2.473 . S
O803 C804 1.257 . S
C804 O802 1.273 . S
C804 O803 1.257 . S
O805 Eu785 2.326 . S
O805 C793 1.242 . S
O806 Tb784 2.324 . S
O806 C793 1.258 . S
O807 Eu785 2.500 . S
O807 C790 1.273 . S
O808 Eu785 2.473 . S
O808 C790 1.257 . S
H809 C795 0.929 . S
H810 C797 0.931 . S
H811 C799 0.929 . S
O812 Tb813 2.292 . S
O812 C815 1.255 . S
Tb813 O812 2.292 . S
Tb813 O829 2.326 . S
Tb813 O831 2.500 . S
Tb813 O832 2.473 . S
Tb813 O835 2.324 . S
Eu814 O818 2.292 . S
Eu814 C819 2.852 . S
Eu814 O830 2.324 . S
Eu814 O834 2.326 . S
Eu814 O836 2.500 . S
Eu814 O837 2.473 . S
C815 O812 1.255 . S
C815 O816 1.247 . S
O816 C815 1.247 . S
C817 O829 1.242 . S
C817 O830 1.258 . S
O818 Eu814 2.292 . S
O818 C820 1.255 . S
C819 Eu814 2.852 . S
C819 C823 1.503 . S
C819 O836 1.273 . S
C819 O837 1.257 . S
C820 O818 1.255 . S
C820 O821 1.247 . S
O821 C820 1.247 . S
C822 O834 1.242 . S
C822 O835 1.258 . S
C823 C819 1.503 . S
C823 C824 1.379 . S
C823 C828 1.392 . S
C824 C823 1.379 . S
C824 C825 1.404 . S
C824 H838 0.929 . S
C825 C824 1.404 . S
C825 C826 1.389 . S
C826 C825 1.389 . S
C826 C827 1.399 . S
C826 H839 0.931 . S
C827 C826 1.399 . S
C827 C828 1.390 . S
C828 C823 1.392 . S
C828 C827 1.390 . S
C828 H840 0.929 . S
O829 Tb813 2.326 . S
O829 C817 1.242 . S
O830 Eu814 2.324 . S
O830 C817 1.258 . S
O831 Tb813 2.500 . S
O831 C833 1.273 . S
O832 Tb813 2.473 . S
O832 C833 1.257 . S
C833 O831 1.273 . S
C833 O832 1.257 . S
O834 Eu814 2.326 . S
O834 C822 1.242 . S
O835 Tb813 2.324 . S
O835 C822 1.258 . S
O836 Eu814 2.500 . S
O836 C819 1.273 . S
O837 Eu814 2.473 . S
O837 C819 1.257 . S
H838 C824 0.929 . S
H839 C826 0.931 . S
H840 C828 0.929 . S
O841 Tb842 2.292 . S
O841 C844 1.255 . S
Tb842 O841 2.292 . S
Tb842 O858 2.326 . S
Tb842 O860 2.500 . S
Tb842 O861 2.473 . S
Tb842 O864 2.324 . S
Eu843 O847 2.292 . S
Eu843 C848 2.852 . S
Eu843 O859 2.324 . S
Eu843 O863 2.326 . S
Eu843 O865 2.500 . S
Eu843 O866 2.473 . S
C844 O841 1.255 . S
C844 O845 1.247 . S
O845 C844 1.247 . S
C846 O858 1.242 . S
C846 O859 1.258 . S
O847 Eu843 2.292 . S
O847 C849 1.255 . S
C848 Eu843 2.852 . S
C848 C852 1.503 . S
C848 O865 1.273 . S
C848 O866 1.257 . S
C849 O847 1.255 . S
C849 O850 1.247 . S
O850 C849 1.247 . S
C851 O863 1.242 . S
C851 O864 1.258 . S
C852 C848 1.503 . S
C852 C853 1.379 . S
C852 C857 1.392 . S
C853 C852 1.379 . S
C853 C854 1.404 . S
C853 H867 0.929 . S
C854 C853 1.404 . S
C854 C855 1.389 . S
C855 C854 1.389 . S
C855 C856 1.399 . S
C855 H868 0.931 . S
C856 C855 1.399 . S
C856 C857 1.390 . S
C857 C852 1.392 . S
C857 C856 1.390 . S
C857 H869 0.929 . S
O858 Tb842 2.326 . S
O858 C846 1.242 . S
O859 Eu843 2.324 . S
O859 C846 1.258 . S
O860 Tb842 2.500 . S
O860 C862 1.273 . S
O861 Tb842 2.473 . S
O861 C862 1.257 . S
C862 O860 1.273 . S
C862 O861 1.257 . S
O863 Eu843 2.326 . S
O863 C851 1.242 . S
O864 Tb842 2.324 . S
O864 C851 1.258 . S
O865 Eu843 2.500 . S
O865 C848 1.273 . S
O866 Eu843 2.473 . S
O866 C848 1.257 . S
H867 C853 0.929 . S
H868 C855 0.931 . S
H869 C857 0.929 . S
O870 Tb871 2.292 . S
O870 C873 1.255 . S
Tb871 O870 2.292 . S
Tb871 O887 2.326 . S
Tb871 O889 2.500 . S
Tb871 O890 2.473 . S
Tb871 O893 2.324 . S
Eu872 O876 2.292 . S
Eu872 C877 2.852 . S
Eu872 O888 2.324 . S
Eu872 O892 2.326 . S
Eu872 O894 2.500 . S
Eu872 O895 2.473 . S
C873 O870 1.255 . S
C873 O874 1.247 . S
O874 C873 1.247 . S
C875 O887 1.242 . S
C875 O888 1.258 . S
O876 Eu872 2.292 . S
O876 C878 1.255 . S
C877 Eu872 2.852 . S
C877 C881 1.503 . S
C877 O894 1.273 . S
C877 O895 1.257 . S
C878 O876 1.255 . S
C878 O879 1.247 . S
O879 C878 1.247 . S
C880 O892 1.242 . S
C880 O893 1.258 . S
C881 C877 1.503 . S
C881 C882 1.379 . S
C881 C886 1.392 . S
C882 C881 1.379 . S
C882 C883 1.404 . S
C882 H896 0.929 . S
C883 C882 1.404 . S
C883 C884 1.389 . S
C884 C883 1.389 . S
C884 C885 1.399 . S
C884 H897 0.931 . S
C885 C884 1.399 . S
C885 C886 1.390 . S
C886 C881 1.392 . S
C886 C885 1.390 . S
C886 H898 0.929 . S
O887 Tb871 2.326 . S
O887 C875 1.242 . S
O888 Eu872 2.324 . S
O888 C875 1.258 . S
O889 Tb871 2.500 . S
O889 C891 1.273 . S
O890 Tb871 2.473 . S
O890 C891 1.257 . S
C891 O889 1.273 . S
C891 O890 1.257 . S
O892 Eu872 2.326 . S
O892 C880 1.242 . S
O893 Tb871 2.324 . S
O893 C880 1.258 . S
O894 Eu872 2.500 . S
O894 C877 1.273 . S
O895 Eu872 2.473 . S
O895 C877 1.257 . S
H896 C882 0.929 . S
H897 C884 0.931 . S
H898 C886 0.929 . S
O899 Tb900 2.292 . S
O899 C902 1.255 . S
Tb900 O899 2.292 . S
Tb900 O916 2.326 . S
Tb900 O918 2.500 . S
Tb900 O919 2.473 . S
Tb900 O922 2.324 . S
Eu901 O905 2.292 . S
Eu901 C906 2.852 . S
Eu901 O917 2.324 . S
Eu901 O921 2.326 . S
Eu901 O923 2.500 . S
Eu901 O924 2.473 . S
C902 O899 1.255 . S
C902 O903 1.247 . S
O903 C902 1.247 . S
C904 O916 1.242 . S
C904 O917 1.258 . S
O905 Eu901 2.292 . S
O905 C907 1.255 . S
C906 Eu901 2.852 . S
C906 C910 1.503 . S
C906 O923 1.273 . S
C906 O924 1.257 . S
C907 O905 1.255 . S
C907 O908 1.247 . S
O908 C907 1.247 . S
C909 O921 1.242 . S
C909 O922 1.258 . S
C910 C906 1.503 . S
C910 C911 1.379 . S
C910 C915 1.392 . S
C911 C910 1.379 . S
C911 C912 1.404 . S
C911 H925 0.929 . S
C912 C911 1.404 . S
C912 C913 1.389 . S
C913 C912 1.389 . S
C913 C914 1.399 . S
C913 H926 0.931 . S
C914 C913 1.399 . S
C914 C915 1.390 . S
C915 C910 1.392 . S
C915 C914 1.390 . S
C915 H927 0.929 . S
O916 Tb900 2.326 . S
O916 C904 1.242 . S
O917 Eu901 2.324 . S
O917 C904 1.258 . S
O918 Tb900 2.500 . S
O918 C920 1.273 . S
O919 Tb900 2.473 . S
O919 C920 1.257 . S
C920 O918 1.273 . S
C920 O919 1.257 . S
O921 Eu901 2.326 . S
O921 C909 1.242 . S
O922 Tb900 2.324 . S
O922 C909 1.258 . S
O923 Eu901 2.500 . S
O923 C906 1.273 . S
O924 Eu901 2.473 . S
O924 C906 1.257 . S
H925 C911 0.929 . S
H926 C913 0.931 . S
H927 C915 0.929 . S
O928 Tb929 2.292 . S
O928 C931 1.255 . S
Tb929 O928 2.292 . S
Tb929 O945 2.326 . S
Tb929 O947 2.500 . S
Tb929 O948 2.473 . S
Tb929 O951 2.324 . S
Eu930 O934 2.292 . S
Eu930 C935 2.852 . S
Eu930 O946 2.324 . S
Eu930 O950 2.326 . S
Eu930 O952 2.500 . S
Eu930 O953 2.473 . S
C931 O928 1.255 . S
C931 O932 1.247 . S
O932 C931 1.247 . S
C933 O945 1.242 . S
C933 O946 1.258 . S
O934 Eu930 2.292 . S
O934 C936 1.255 . S
C935 Eu930 2.852 . S
C935 C939 1.503 . S
C935 O952 1.273 . S
C935 O953 1.257 . S
C936 O934 1.255 . S
C936 O937 1.247 . S
O937 C936 1.247 . S
C938 O950 1.242 . S
C938 O951 1.258 . S
C939 C935 1.503 . S
C939 C940 1.379 . S
C939 C944 1.392 . S
C940 C939 1.379 . S
C940 C941 1.404 . S
C940 H954 0.929 . S
C941 C940 1.404 . S
C941 C942 1.389 . S
C942 C941 1.389 . S
C942 C943 1.399 . S
C942 H955 0.931 . S
C943 C942 1.399 . S
C943 C944 1.390 . S
C944 C939 1.392 . S
C944 C943 1.390 . S
C944 H956 0.929 . S
O945 Tb929 2.326 . S
O945 C933 1.242 . S
O946 Eu930 2.324 . S
O946 C933 1.258 . S
O947 Tb929 2.500 . S
O947 C949 1.273 . S
O948 Tb929 2.473 . S
O948 C949 1.257 . S
C949 O947 1.273 . S
C949 O948 1.257 . S
O950 Eu930 2.326 . S
O950 C938 1.242 . S
O951 Tb929 2.324 . S
O951 C938 1.258 . S
O952 Eu930 2.500 . S
O952 C935 1.273 . S
O953 Eu930 2.473 . S
O953 C935 1.257 . S
H954 C940 0.929 . S
H955 C942 0.931 . S
H956 C944 0.929 . S
O957 Tb958 2.292 . S
O957 C960 1.255 . S
Tb958 O957 2.292 . S
Tb958 O974 2.326 . S
Tb958 O976 2.500 . S
Tb958 O977 2.473 . S
Tb958 O980 2.324 . S
Eu959 O963 2.292 . S
Eu959 C964 2.852 . S
Eu959 O975 2.324 . S
Eu959 O979 2.326 . S
Eu959 O981 2.500 . S
Eu959 O982 2.473 . S
C960 O957 1.255 . S
C960 O961 1.247 . S
O961 C960 1.247 . S
C962 O974 1.242 . S
C962 O975 1.258 . S
O963 Eu959 2.292 . S
O963 C965 1.255 . S
C964 Eu959 2.852 . S
C964 C968 1.503 . S
C964 O981 1.273 . S
C964 O982 1.257 . S
C965 O963 1.255 . S
C965 O966 1.247 . S
O966 C965 1.247 . S
C967 O979 1.242 . S
C967 O980 1.258 . S
C968 C964 1.503 . S
C968 C969 1.379 . S
C968 C973 1.392 . S
C969 C968 1.379 . S
C969 C970 1.404 . S
C969 H983 0.929 . S
C970 C969 1.404 . S
C970 C971 1.389 . S
C971 C970 1.389 . S
C971 C972 1.399 . S
C971 H984 0.931 . S
C972 C971 1.399 . S
C972 C973 1.390 . S
C973 C968 1.392 . S
C973 C972 1.390 . S
C973 H985 0.929 . S
O974 Tb958 2.326 . S
O974 C962 1.242 . S
O975 Eu959 2.324 . S
O975 C962 1.258 . S
O976 Tb958 2.500 . S
O976 C978 1.273 . S
O977 Tb958 2.473 . S
O977 C978 1.257 . S
C978 O976 1.273 . S
C978 O977 1.257 . S
O979 Eu959 2.326 . S
O979 C967 1.242 . S
O980 Tb958 2.324 . S
O980 C967 1.258 . S
O981 Eu959 2.500 . S
O981 C964 1.273 . S
O982 Eu959 2.473 . S
O982 C964 1.257 . S
H983 C969 0.929 . S
H984 C971 0.931 . S
H985 C973 0.929 . S
O986 Tb987 2.292 . S
O986 C989 1.255 . S
Tb987 O986 2.292 . S
Tb987 O1003 2.326 . S
Tb987 O1005 2.500 . S
Tb987 O1006 2.473 . S
Tb987 O1009 2.324 . S
Eu988 O992 2.292 . S
Eu988 C993 2.852 . S
Eu988 O1004 2.324 . S
Eu988 O1008 2.326 . S
Eu988 O1010 2.500 . S
Eu988 O1011 2.473 . S
C989 O986 1.255 . S
C989 O990 1.247 . S
O990 C989 1.247 . S
C991 O1003 1.242 . S
C991 O1004 1.258 . S
O992 Eu988 2.292 . S
O992 C994 1.255 . S
C993 Eu988 2.852 . S
C993 C997 1.503 . S
C993 O1010 1.273 . S
C993 O1011 1.257 . S
C994 O992 1.255 . S
C994 O995 1.247 . S
O995 C994 1.247 . S
C996 O1008 1.242 . S
C996 O1009 1.258 . S
C997 C993 1.503 . S
C997 C998 1.379 . S
C997 C1002 1.392 . S
C998 C997 1.379 . S
C998 C999 1.404 . S
C998 H1012 0.929 . S
C999 C998 1.404 . S
C999 C1000 1.389 . S
C1000 C999 1.389 . S
C1000 C1001 1.399 . S
C1000 H1013 0.931 . S
C1001 C1000 1.399 . S
C1001 C1002 1.390 . S
C1002 C997 1.392 . S
C1002 C1001 1.390 . S
C1002 H1014 0.929 . S
O1003 Tb987 2.326 . S
O1003 C991 1.242 . S
O1004 Eu988 2.324 . S
O1004 C991 1.258 . S
O1005 Tb987 2.500 . S
O1005 C1007 1.273 . S
O1006 Tb987 2.473 . S
O1006 C1007 1.257 . S
C1007 O1005 1.273 . S
C1007 O1006 1.257 . S
O1008 Eu988 2.326 . S
O1008 C996 1.242 . S
O1009 Tb987 2.324 . S
O1009 C996 1.258 . S
O1010 Eu988 2.500 . S
O1010 C993 1.273 . S
O1011 Eu988 2.473 . S
O1011 C993 1.257 . S
H1012 C998 0.929 . S
H1013 C1000 0.931 . S
H1014 C1002 0.929 . S
O1015 Tb1016 2.292 . S
O1015 C1018 1.255 . S
Tb1016 O1015 2.292 . S
Tb1016 O1032 2.326 . S
Tb1016 O1034 2.500 . S
Tb1016 O1035 2.473 . S
Tb1016 O1038 2.324 . S
Eu1017 O1021 2.292 . S
Eu1017 C1022 2.852 . S
Eu1017 O1033 2.324 . S
Eu1017 O1037 2.326 . S
Eu1017 O1039 2.500 . S
Eu1017 O1040 2.473 . S
C1018 O1015 1.255 . S
C1018 O1019 1.247 . S
O1019 C1018 1.247 . S
C1020 O1032 1.242 . S
C1020 O1033 1.258 . S
O1021 Eu1017 2.292 . S
O1021 C1023 1.255 . S
C1022 Eu1017 2.852 . S
C1022 C1026 1.503 . S
C1022 O1039 1.273 . S
C1022 O1040 1.257 . S
C1023 O1021 1.255 . S
C1023 O1024 1.247 . S
O1024 C1023 1.247 . S
C1025 O1037 1.242 . S
C1025 O1038 1.258 . S
C1026 C1022 1.503 . S
C1026 C1027 1.379 . S
C1026 C1031 1.392 . S
C1027 C1026 1.379 . S
C1027 C1028 1.404 . S
C1027 H1041 0.929 . S
C1028 C1027 1.404 . S
C1028 C1029 1.389 . S
C1029 C1028 1.389 . S
C1029 C1030 1.399 . S
C1029 H1042 0.931 . S
C1030 C1029 1.399 . S
C1030 C1031 1.390 . S
C1031 C1026 1.392 . S
C1031 C1030 1.390 . S
C1031 H1043 0.929 . S
O1032 Tb1016 2.326 . S
O1032 C1020 1.242 . S
O1033 Eu1017 2.324 . S
O1033 C1020 1.258 . S
O1034 Tb1016 2.500 . S
O1034 C1036 1.273 . S
O1035 Tb1016 2.473 . S
O1035 C1036 1.257 . S
C1036 O1034 1.273 . S
C1036 O1035 1.257 . S
O1037 Eu1017 2.326 . S
O1037 C1025 1.242 . S
O1038 Tb1016 2.324 . S
O1038 C1025 1.258 . S
O1039 Eu1017 2.500 . S
O1039 C1022 1.273 . S
O1040 Eu1017 2.473 . S
O1040 C1022 1.257 . S
H1041 C1027 0.929 . S
H1042 C1029 0.931 . S
H1043 C1031 0.929 . S
O1044 Tb1045 2.292 . S
O1044 C1047 1.255 . S
Tb1045 O1044 2.292 . S
Tb1045 O1061 2.326 . S
Tb1045 O1063 2.500 . S
Tb1045 O1064 2.473 . S
Tb1045 O1067 2.324 . S
Eu1046 O1050 2.292 . S
Eu1046 C1051 2.852 . S
Eu1046 O1062 2.324 . S
Eu1046 O1066 2.326 . S
Eu1046 O1068 2.500 . S
Eu1046 O1069 2.473 . S
C1047 O1044 1.255 . S
C1047 O1048 1.247 . S
O1048 C1047 1.247 . S
C1049 O1061 1.242 . S
C1049 O1062 1.258 . S
O1050 Eu1046 2.292 . S
O1050 C1052 1.255 . S
C1051 Eu1046 2.852 . S
C1051 C1055 1.503 . S
C1051 O1068 1.273 . S
C1051 O1069 1.257 . S
C1052 O1050 1.255 . S
C1052 O1053 1.247 . S
O1053 C1052 1.247 . S
C1054 O1066 1.242 . S
C1054 O1067 1.258 . S
C1055 C1051 1.503 . S
C1055 C1056 1.379 . S
C1055 C1060 1.392 . S
C1056 C1055 1.379 . S
C1056 C1057 1.404 . S
C1056 H1070 0.929 . S
C1057 C1056 1.404 . S
C1057 C1058 1.389 . S
C1058 C1057 1.389 . S
C1058 C1059 1.399 . S
C1058 H1071 0.931 . S
C1059 C1058 1.399 . S
C1059 C1060 1.390 . S
C1060 C1055 1.392 . S
C1060 C1059 1.390 . S
C1060 H1072 0.929 . S
O1061 Tb1045 2.326 . S
O1061 C1049 1.242 . S
O1062 Eu1046 2.324 . S
O1062 C1049 1.258 . S
O1063 Tb1045 2.500 . S
O1063 C1065 1.273 . S
O1064 Tb1045 2.473 . S
O1064 C1065 1.257 . S
C1065 O1063 1.273 . S
C1065 O1064 1.257 . S
O1066 Eu1046 2.326 . S
O1066 C1054 1.242 . S
O1067 Tb1045 2.324 . S
O1067 C1054 1.258 . S
O1068 Eu1046 2.500 . S
O1068 C1051 1.273 . S
O1069 Eu1046 2.473 . S
O1069 C1051 1.257 . S
H1070 C1056 0.929 . S
H1071 C1058 0.931 . S
H1072 C1060 0.929 . S
O1073 Tb1074 2.292 . S
O1073 C1076 1.255 . S
Tb1074 O1073 2.292 . S
Tb1074 O1090 2.326 . S
Tb1074 O1092 2.500 . S
Tb1074 O1093 2.473 . S
Tb1074 O1096 2.324 . S
Eu1075 O1079 2.292 . S
Eu1075 C1080 2.852 . S
Eu1075 O1091 2.324 . S
Eu1075 O1095 2.326 . S
Eu1075 O1097 2.500 . S
Eu1075 O1098 2.473 . S
C1076 O1073 1.255 . S
C1076 O1077 1.247 . S
O1077 C1076 1.247 . S
C1078 O1090 1.242 . S
C1078 O1091 1.258 . S
O1079 Eu1075 2.292 . S
O1079 C1081 1.255 . S
C1080 Eu1075 2.852 . S
C1080 C1084 1.503 . S
C1080 O1097 1.273 . S
C1080 O1098 1.257 . S
C1081 O1079 1.255 . S
C1081 O1082 1.247 . S
O1082 C1081 1.247 . S
C1083 O1095 1.242 . S
C1083 O1096 1.258 . S
C1084 C1080 1.503 . S
C1084 C1085 1.379 . S
C1084 C1089 1.392 . S
C1085 C1084 1.379 . S
C1085 C1086 1.404 . S
C1085 H1099 0.929 . S
C1086 C1085 1.404 . S
C1086 C1087 1.389 . S
C1087 C1086 1.389 . S
C1087 C1088 1.399 . S
C1087 H1100 0.931 . S
C1088 C1087 1.399 . S
C1088 C1089 1.390 . S
C1089 C1084 1.392 . S
C1089 C1088 1.390 . S
C1089 H1101 0.929 . S
O1090 Tb1074 2.326 . S
O1090 C1078 1.242 . S
O1091 Eu1075 2.324 . S
O1091 C1078 1.258 . S
O1092 Tb1074 2.500 . S
O1092 C1094 1.273 . S
O1093 Tb1074 2.473 . S
O1093 C1094 1.257 . S
C1094 O1092 1.273 . S
C1094 O1093 1.257 . S
O1095 Eu1075 2.326 . S
O1095 C1083 1.242 . S
O1096 Tb1074 2.324 . S
O1096 C1083 1.258 . S
O1097 Eu1075 2.500 . S
O1097 C1080 1.273 . S
O1098 Eu1075 2.473 . S
O1098 C1080 1.257 . S
H1099 C1085 0.929 . S
H1100 C1087 0.931 . S
H1101 C1089 0.929 . S
O1102 Tb1103 2.292 . S
O1102 C1105 1.255 . S
Tb1103 O1102 2.292 . S
Tb1103 O1119 2.326 . S
Tb1103 O1121 2.500 . S
Tb1103 O1122 2.473 . S
Tb1103 O1125 2.324 . S
Eu1104 O1108 2.292 . S
Eu1104 C1109 2.852 . S
Eu1104 O1120 2.324 . S
Eu1104 O1124 2.326 . S
Eu1104 O1126 2.500 . S
Eu1104 O1127 2.473 . S
C1105 O1102 1.255 . S
C1105 O1106 1.247 . S
O1106 C1105 1.247 . S
C1107 O1119 1.242 . S
C1107 O1120 1.258 . S
O1108 Eu1104 2.292 . S
O1108 C1110 1.255 . S
C1109 Eu1104 2.852 . S
C1109 C1113 1.503 . S
C1109 O1126 1.273 . S
C1109 O1127 1.257 . S
C1110 O1108 1.255 . S
C1110 O1111 1.247 . S
O1111 C1110 1.247 . S
C1112 O1124 1.242 . S
C1112 O1125 1.258 . S
C1113 C1109 1.503 . S
C1113 C1114 1.379 . S
C1113 C1118 1.392 . S
C1114 C1113 1.379 . S
C1114 C1115 1.404 . S
C1114 H1128 0.929 . S
C1115 C1114 1.404 . S
C1115 C1116 1.389 . S
C1116 C1115 1.389 . S
C1116 C1117 1.399 . S
C1116 H1129 0.931 . S
C1117 C1116 1.399 . S
C1117 C1118 1.390 . S
C1118 C1113 1.392 . S
C1118 C1117 1.390 . S
C1118 H1130 0.929 . S
O1119 Tb1103 2.326 . S
O1119 C1107 1.242 . S
O1120 Eu1104 2.324 . S
O1120 C1107 1.258 . S
O1121 Tb1103 2.500 . S
O1121 C1123 1.273 . S
O1122 Tb1103 2.473 . S
O1122 C1123 1.257 . S
C1123 O1121 1.273 . S
C1123 O1122 1.257 . S
O1124 Eu1104 2.326 . S
O1124 C1112 1.242 . S
O1125 Tb1103 2.324 . S
O1125 C1112 1.258 . S
O1126 Eu1104 2.500 . S
O1126 C1109 1.273 . S
O1127 Eu1104 2.473 . S
O1127 C1109 1.257 . S
H1128 C1114 0.929 . S
H1129 C1116 0.931 . S
H1130 C1118 0.929 . S
O1131 Tb1132 2.292 . S
O1131 C1134 1.255 . S
Tb1132 O1131 2.292 . S
Tb1132 O1148 2.326 . S
Tb1132 O1150 2.500 . S
Tb1132 O1151 2.473 . S
Tb1132 O1154 2.324 . S
Eu1133 O1137 2.292 . S
Eu1133 C1138 2.852 . S
Eu1133 O1149 2.324 . S
Eu1133 O1153 2.326 . S
Eu1133 O1155 2.500 . S
Eu1133 O1156 2.473 . S
C1134 O1131 1.255 . S
C1134 O1135 1.247 . S
O1135 C1134 1.247 . S
C1136 O1148 1.242 . S
C1136 O1149 1.258 . S
O1137 Eu1133 2.292 . S
O1137 C1139 1.255 . S
C1138 Eu1133 2.852 . S
C1138 C1142 1.503 . S
C1138 O1155 1.273 . S
C1138 O1156 1.257 . S
C1139 O1137 1.255 . S
C1139 O1140 1.247 . S
O1140 C1139 1.247 . S
C1141 O1153 1.242 . S
C1141 O1154 1.258 . S
C1142 C1138 1.503 . S
C1142 C1143 1.379 . S
C1142 C1147 1.392 . S
C1143 C1142 1.379 . S
C1143 C1144 1.404 . S
C1143 H1157 0.929 . S
C1144 C1143 1.404 . S
C1144 C1145 1.389 . S
C1145 C1144 1.389 . S
C1145 C1146 1.399 . S
C1145 H1158 0.931 . S
C1146 C1145 1.399 . S
C1146 C1147 1.390 . S
C1147 C1142 1.392 . S
C1147 C1146 1.390 . S
C1147 H1159 0.929 . S
O1148 Tb1132 2.326 . S
O1148 C1136 1.242 . S
O1149 Eu1133 2.324 . S
O1149 C1136 1.258 . S
O1150 Tb1132 2.500 . S
O1150 C1152 1.273 . S
O1151 Tb1132 2.473 . S
O1151 C1152 1.257 . S
C1152 O1150 1.273 . S
C1152 O1151 1.257 . S
O1153 Eu1133 2.326 . S
O1153 C1141 1.242 . S
O1154 Tb1132 2.324 . S
O1154 C1141 1.258 . S
O1155 Eu1133 2.500 . S
O1155 C1138 1.273 . S
O1156 Eu1133 2.473 . S
O1156 C1138 1.257 . S
H1157 C1143 0.929 . S
H1158 C1145 0.931 . S
H1159 C1147 0.929 . S
O1160 Tb1161 2.292 . S
O1160 C1163 1.255 . S
Tb1161 O1160 2.292 . S
Tb1161 O1177 2.326 . S
Tb1161 O1179 2.500 . S
Tb1161 O1180 2.473 . S
Tb1161 O1183 2.324 . S
Eu1162 O1166 2.292 . S
Eu1162 C1167 2.852 . S
Eu1162 O1178 2.324 . S
Eu1162 O1182 2.326 . S
Eu1162 O1184 2.500 . S
Eu1162 O1185 2.473 . S
C1163 O1160 1.255 . S
C1163 O1164 1.247 . S
O1164 C1163 1.247 . S
C1165 O1177 1.242 . S
C1165 O1178 1.258 . S
O1166 Eu1162 2.292 . S
O1166 C1168 1.255 . S
C1167 Eu1162 2.852 . S
C1167 C1171 1.503 . S
C1167 O1184 1.273 . S
C1167 O1185 1.257 . S
C1168 O1166 1.255 . S
C1168 O1169 1.247 . S
O1169 C1168 1.247 . S
C1170 O1182 1.242 . S
C1170 O1183 1.258 . S
C1171 C1167 1.503 . S
C1171 C1172 1.379 . S
C1171 C1176 1.392 . S
C1172 C1171 1.379 . S
C1172 C1173 1.404 . S
C1172 H1186 0.929 . S
C1173 C1172 1.404 . S
C1173 C1174 1.389 . S
C1174 C1173 1.389 . S
C1174 C1175 1.399 . S
C1174 H1187 0.931 . S
C1175 C1174 1.399 . S
C1175 C1176 1.390 . S
C1176 C1171 1.392 . S
C1176 C1175 1.390 . S
C1176 H1188 0.929 . S
O1177 Tb1161 2.326 . S
O1177 C1165 1.242 . S
O1178 Eu1162 2.324 . S
O1178 C1165 1.258 . S
O1179 Tb1161 2.500 . S
O1179 C1181 1.273 . S
O1180 Tb1161 2.473 . S
O1180 C1181 1.257 . S
C1181 O1179 1.273 . S
C1181 O1180 1.257 . S
O1182 Eu1162 2.326 . S
O1182 C1170 1.242 . S
O1183 Tb1161 2.324 . S
O1183 C1170 1.258 . S
O1184 Eu1162 2.500 . S
O1184 C1167 1.273 . S
O1185 Eu1162 2.473 . S
O1185 C1167 1.257 . S
H1186 C1172 0.929 . S
H1187 C1174 0.931 . S
H1188 C1176 0.929 . S
O1189 Tb1190 2.292 . S
O1189 C1192 1.255 . S
Tb1190 O1189 2.292 . S
Tb1190 O1206 2.326 . S
Tb1190 O1208 2.500 . S
Tb1190 O1209 2.473 . S
Tb1190 O1212 2.324 . S
Eu1191 O1195 2.292 . S
Eu1191 C1196 2.852 . S
Eu1191 O1207 2.324 . S
Eu1191 O1211 2.326 . S
Eu1191 O1213 2.500 . S
Eu1191 O1214 2.473 . S
C1192 O1189 1.255 . S
C1192 O1193 1.247 . S
O1193 C1192 1.247 . S
C1194 O1206 1.242 . S
C1194 O1207 1.258 . S
O1195 Eu1191 2.292 . S
O1195 C1197 1.255 . S
C1196 Eu1191 2.852 . S
C1196 C1200 1.503 . S
C1196 O1213 1.273 . S
C1196 O1214 1.257 . S
C1197 O1195 1.255 . S
C1197 O1198 1.247 . S
O1198 C1197 1.247 . S
C1199 O1211 1.242 . S
C1199 O1212 1.258 . S
C1200 C1196 1.503 . S
C1200 C1201 1.379 . S
C1200 C1205 1.392 . S
C1201 C1200 1.379 . S
C1201 C1202 1.404 . S
C1201 H1215 0.929 . S
C1202 C1201 1.404 . S
C1202 C1203 1.389 . S
C1203 C1202 1.389 . S
C1203 C1204 1.399 . S
C1203 H1216 0.931 . S
C1204 C1203 1.399 . S
C1204 C1205 1.390 . S
C1205 C1200 1.392 . S
C1205 C1204 1.390 . S
C1205 H1217 0.929 . S
O1206 Tb1190 2.326 . S
O1206 C1194 1.242 . S
O1207 Eu1191 2.324 . S
O1207 C1194 1.258 . S
O1208 Tb1190 2.500 . S
O1208 C1210 1.273 . S
O1209 Tb1190 2.473 . S
O1209 C1210 1.257 . S
C1210 O1208 1.273 . S
C1210 O1209 1.257 . S
O1211 Eu1191 2.326 . S
O1211 C1199 1.242 . S
O1212 Tb1190 2.324 . S
O1212 C1199 1.258 . S
O1213 Eu1191 2.500 . S
O1213 C1196 1.273 . S
O1214 Eu1191 2.473 . S
O1214 C1196 1.257 . S
H1215 C1201 0.929 . S
H1216 C1203 0.931 . S
H1217 C1205 0.929 . S
O1218 Tb1219 2.292 . S
O1218 C1221 1.255 . S
Tb1219 O1218 2.292 . S
Tb1219 O1235 2.326 . S
Tb1219 O1237 2.500 . S
Tb1219 O1238 2.473 . S
Tb1219 O1241 2.324 . S
Eu1220 O1224 2.292 . S
Eu1220 C1225 2.852 . S
Eu1220 O1236 2.324 . S
Eu1220 O1240 2.326 . S
Eu1220 O1242 2.500 . S
Eu1220 O1243 2.473 . S
C1221 O1218 1.255 . S
C1221 O1222 1.247 . S
O1222 C1221 1.247 . S
C1223 O1235 1.242 . S
C1223 O1236 1.258 . S
O1224 Eu1220 2.292 . S
O1224 C1226 1.255 . S
C1225 Eu1220 2.852 . S
C1225 C1229 1.503 . S
C1225 O1242 1.273 . S
C1225 O1243 1.257 . S
C1226 O1224 1.255 . S
C1226 O1227 1.247 . S
O1227 C1226 1.247 . S
C1228 O1240 1.242 . S
C1228 O1241 1.258 . S
C1229 C1225 1.503 . S
C1229 C1230 1.379 . S
C1229 C1234 1.392 . S
C1230 C1229 1.379 . S
C1230 C1231 1.404 . S
C1230 H1244 0.929 . S
C1231 C1230 1.404 . S
C1231 C1232 1.389 . S
C1232 C1231 1.389 . S
C1232 C1233 1.399 . S
C1232 H1245 0.931 . S
C1233 C1232 1.399 . S
C1233 C1234 1.390 . S
C1234 C1229 1.392 . S
C1234 C1233 1.390 . S
C1234 H1246 0.929 . S
O1235 Tb1219 2.326 . S
O1235 C1223 1.242 . S
O1236 Eu1220 2.324 . S
O1236 C1223 1.258 . S
O1237 Tb1219 2.500 . S
O1237 C1239 1.273 . S
O1238 Tb1219 2.473 . S
O1238 C1239 1.257 . S
C1239 O1237 1.273 . S
C1239 O1238 1.257 . S
O1240 Eu1220 2.326 . S
O1240 C1228 1.242 . S
O1241 Tb1219 2.324 . S
O1241 C1228 1.258 . S
O1242 Eu1220 2.500 . S
O1242 C1225 1.273 . S
O1243 Eu1220 2.473 . S
O1243 C1225 1.257 . S
H1244 C1230 0.929 . S
H1245 C1232 0.931 . S
H1246 C1234 0.929 . S
O1247 Tb1248 2.292 . S
O1247 C1250 1.255 . S
Tb1248 O1247 2.292 . S
Tb1248 O1264 2.326 . S
Tb1248 O1266 2.500 . S
Tb1248 O1267 2.473 . S
Tb1248 O1270 2.324 . S
Eu1249 O1253 2.292 . S
Eu1249 C1254 2.852 . S
Eu1249 O1265 2.324 . S
Eu1249 O1269 2.326 . S
Eu1249 O1271 2.500 . S
Eu1249 O1272 2.473 . S
C1250 O1247 1.255 . S
C1250 O1251 1.247 . S
O1251 C1250 1.247 . S
C1252 O1264 1.242 . S
C1252 O1265 1.258 . S
O1253 Eu1249 2.292 . S
O1253 C1255 1.255 . S
C1254 Eu1249 2.852 . S
C1254 C1258 1.503 . S
C1254 O1271 1.273 . S
C1254 O1272 1.257 . S
C1255 O1253 1.255 . S
C1255 O1256 1.247 . S
O1256 C1255 1.247 . S
C1257 O1269 1.242 . S
C1257 O1270 1.258 . S
C1258 C1254 1.503 . S
C1258 C1259 1.379 . S
C1258 C1263 1.392 . S
C1259 C1258 1.379 . S
C1259 C1260 1.404 . S
C1259 H1273 0.929 . S
C1260 C1259 1.404 . S
C1260 C1261 1.389 . S
C1261 C1260 1.389 . S
C1261 C1262 1.399 . S
C1261 H1274 0.931 . S
C1262 C1261 1.399 . S
C1262 C1263 1.390 . S
C1263 C1258 1.392 . S
C1263 C1262 1.390 . S
C1263 H1275 0.929 . S
O1264 Tb1248 2.326 . S
O1264 C1252 1.242 . S
O1265 Eu1249 2.324 . S
O1265 C1252 1.258 . S
O1266 Tb1248 2.500 . S
O1266 C1268 1.273 . S
O1267 Tb1248 2.473 . S
O1267 C1268 1.257 . S
C1268 O1266 1.273 . S
C1268 O1267 1.257 . S
O1269 Eu1249 2.326 . S
O1269 C1257 1.242 . S
O1270 Tb1248 2.324 . S
O1270 C1257 1.258 . S
O1271 Eu1249 2.500 . S
O1271 C1254 1.273 . S
O1272 Eu1249 2.473 . S
O1272 C1254 1.257 . S
H1273 C1259 0.929 . S
H1274 C1261 0.931 . S
H1275 C1263 0.929 . S
O1276 Tb1277 2.292 . S
O1276 C1279 1.255 . S
Tb1277 O1276 2.292 . S
Tb1277 O1293 2.326 . S
Tb1277 O1295 2.500 . S
Tb1277 O1296 2.473 . S
Tb1277 O1299 2.324 . S
Eu1278 O1282 2.292 . S
Eu1278 C1283 2.852 . S
Eu1278 O1294 2.324 . S
Eu1278 O1298 2.326 . S
Eu1278 O1300 2.500 . S
Eu1278 O1301 2.473 . S
C1279 O1276 1.255 . S
C1279 O1280 1.247 . S
O1280 C1279 1.247 . S
C1281 O1293 1.242 . S
C1281 O1294 1.258 . S
O1282 Eu1278 2.292 . S
O1282 C1284 1.255 . S
C1283 Eu1278 2.852 . S
C1283 C1287 1.503 . S
C1283 O1300 1.273 . S
C1283 O1301 1.257 . S
C1284 O1282 1.255 . S
C1284 O1285 1.247 . S
O1285 C1284 1.247 . S
C1286 O1298 1.242 . S
C1286 O1299 1.258 . S
C1287 C1283 1.503 . S
C1287 C1288 1.379 . S
C1287 C1292 1.392 . S
C1288 C1287 1.379 . S
C1288 C1289 1.404 . S
C1288 H1302 0.929 . S
C1289 C1288 1.404 . S
C1289 C1290 1.389 . S
C1290 C1289 1.389 . S
C1290 C1291 1.399 . S
C1290 H1303 0.931 . S
C1291 C1290 1.399 . S
C1291 C1292 1.390 . S
C1292 C1287 1.392 . S
C1292 C1291 1.390 . S
C1292 H1304 0.929 . S
O1293 Tb1277 2.326 . S
O1293 C1281 1.242 . S
O1294 Eu1278 2.324 . S
O1294 C1281 1.258 . S
O1295 Tb1277 2.500 . S
O1295 C1297 1.273 . S
O1296 Tb1277 2.473 . S
O1296 C1297 1.257 . S
C1297 O1295 1.273 . S
C1297 O1296 1.257 . S
O1298 Eu1278 2.326 . S
O1298 C1286 1.242 . S
O1299 Tb1277 2.324 . S
O1299 C1286 1.258 . S
O1300 Eu1278 2.500 . S
O1300 C1283 1.273 . S
O1301 Eu1278 2.473 . S
O1301 C1283 1.257 . S
H1302 C1288 0.929 . S
H1303 C1290 0.931 . S
H1304 C1292 0.929 . S
O1305 Tb1306 2.292 . S
O1305 C1308 1.255 . S
Tb1306 O1305 2.292 . S
Tb1306 O1322 2.326 . S
Tb1306 O1324 2.500 . S
Tb1306 O1325 2.473 . S
Tb1306 O1328 2.324 . S
Eu1307 O1311 2.292 . S
Eu1307 C1312 2.852 . S
Eu1307 O1323 2.324 . S
Eu1307 O1327 2.326 . S
Eu1307 O1329 2.500 . S
Eu1307 O1330 2.473 . S
C1308 O1305 1.255 . S
C1308 O1309 1.247 . S
O1309 C1308 1.247 . S
C1310 O1322 1.242 . S
C1310 O1323 1.258 . S
O1311 Eu1307 2.292 . S
O1311 C1313 1.255 . S
C1312 Eu1307 2.852 . S
C1312 C1316 1.503 . S
C1312 O1329 1.273 . S
C1312 O1330 1.257 . S
C1313 O1311 1.255 . S
C1313 O1314 1.247 . S
O1314 C1313 1.247 . S
C1315 O1327 1.242 . S
C1315 O1328 1.258 . S
C1316 C1312 1.503 . S
C1316 C1317 1.379 . S
C1316 C1321 1.392 . S
C1317 C1316 1.379 . S
C1317 C1318 1.404 . S
C1317 H1331 0.929 . S
C1318 C1317 1.404 . S
C1318 C1319 1.389 . S
C1319 C1318 1.389 . S
C1319 C1320 1.399 . S
C1319 H1332 0.931 . S
C1320 C1319 1.399 . S
C1320 C1321 1.390 . S
C1321 C1316 1.392 . S
C1321 C1320 1.390 . S
C1321 H1333 0.929 . S
O1322 Tb1306 2.326 . S
O1322 C1310 1.242 . S
O1323 Eu1307 2.324 . S
O1323 C1310 1.258 . S
O1324 Tb1306 2.500 . S
O1324 C1326 1.273 . S
O1325 Tb1306 2.473 . S
O1325 C1326 1.257 . S
C1326 O1324 1.273 . S
C1326 O1325 1.257 . S
O1327 Eu1307 2.326 . S
O1327 C1315 1.242 . S
O1328 Tb1306 2.324 . S
O1328 C1315 1.258 . S
O1329 Eu1307 2.500 . S
O1329 C1312 1.273 . S
O1330 Eu1307 2.473 . S
O1330 C1312 1.257 . S
H1331 C1317 0.929 . S
H1332 C1319 0.931 . S
H1333 C1321 0.929 . S
O1334 Tb1335 2.292 . S
O1334 C1337 1.255 . S
Tb1335 O1334 2.292 . S
Tb1335 O1351 2.326 . S
Tb1335 O1353 2.500 . S
Tb1335 O1354 2.473 . S
Tb1335 O1357 2.324 . S
Eu1336 O1340 2.292 . S
Eu1336 C1341 2.852 . S
Eu1336 O1352 2.324 . S
Eu1336 O1356 2.326 . S
Eu1336 O1358 2.500 . S
Eu1336 O1359 2.473 . S
C1337 O1334 1.255 . S
C1337 O1338 1.247 . S
O1338 C1337 1.247 . S
C1339 O1351 1.242 . S
C1339 O1352 1.258 . S
O1340 Eu1336 2.292 . S
O1340 C1342 1.255 . S
C1341 Eu1336 2.852 . S
C1341 C1345 1.503 . S
C1341 O1358 1.273 . S
C1341 O1359 1.257 . S
C1342 O1340 1.255 . S
C1342 O1343 1.247 . S
O1343 C1342 1.247 . S
C1344 O1356 1.242 . S
C1344 O1357 1.258 . S
C1345 C1341 1.503 . S
C1345 C1346 1.379 . S
C1345 C1350 1.392 . S
C1346 C1345 1.379 . S
C1346 C1347 1.404 . S
C1346 H1360 0.929 . S
C1347 C1346 1.404 . S
C1347 C1348 1.389 . S
C1348 C1347 1.389 . S
C1348 C1349 1.399 . S
C1348 H1361 0.931 . S
C1349 C1348 1.399 . S
C1349 C1350 1.390 . S
C1350 C1345 1.392 . S
C1350 C1349 1.390 . S
C1350 H1362 0.929 . S
O1351 Tb1335 2.326 . S
O1351 C1339 1.242 . S
O1352 Eu1336 2.324 . S
O1352 C1339 1.258 . S
O1353 Tb1335 2.500 . S
O1353 C1355 1.273 . S
O1354 Tb1335 2.473 . S
O1354 C1355 1.257 . S
C1355 O1353 1.273 . S
C1355 O1354 1.257 . S
O1356 Eu1336 2.326 . S
O1356 C1344 1.242 . S
O1357 Tb1335 2.324 . S
O1357 C1344 1.258 . S
O1358 Eu1336 2.500 . S
O1358 C1341 1.273 . S
O1359 Eu1336 2.473 . S
O1359 C1341 1.257 . S
H1360 C1346 0.929 . S
H1361 C1348 0.931 . S
H1362 C1350 0.929 . S
O1363 Tb1364 2.292 . S
O1363 C1366 1.255 . S
Tb1364 O1363 2.292 . S
Tb1364 O1380 2.326 . S
Tb1364 O1382 2.500 . S
Tb1364 O1383 2.473 . S
Tb1364 O1386 2.324 . S
Eu1365 O1369 2.292 . S
Eu1365 C1370 2.852 . S
Eu1365 O1381 2.324 . S
Eu1365 O1385 2.326 . S
Eu1365 O1387 2.500 . S
Eu1365 O1388 2.473 . S
C1366 O1363 1.255 . S
C1366 O1367 1.247 . S
O1367 C1366 1.247 . S
C1368 O1380 1.242 . S
C1368 O1381 1.258 . S
O1369 Eu1365 2.292 . S
O1369 C1371 1.255 . S
C1370 Eu1365 2.852 . S
C1370 C1374 1.503 . S
C1370 O1387 1.273 . S
C1370 O1388 1.257 . S
C1371 O1369 1.255 . S
C1371 O1372 1.247 . S
O1372 C1371 1.247 . S
C1373 O1385 1.242 . S
C1373 O1386 1.258 . S
C1374 C1370 1.503 . S
C1374 C1375 1.379 . S
C1374 C1379 1.392 . S
C1375 C1374 1.379 . S
C1375 C1376 1.404 . S
C1375 H1389 0.929 . S
C1376 C1375 1.404 . S
C1376 C1377 1.389 . S
C1377 C1376 1.389 . S
C1377 C1378 1.399 . S
C1377 H1390 0.931 . S
C1378 C1377 1.399 . S
C1378 C1379 1.390 . S
C1379 C1374 1.392 . S
C1379 C1378 1.390 . S
C1379 H1391 0.929 . S
O1380 Tb1364 2.326 . S
O1380 C1368 1.242 . S
O1381 Eu1365 2.324 . S
O1381 C1368 1.258 . S
O1382 Tb1364 2.500 . S
O1382 C1384 1.273 . S
O1383 Tb1364 2.473 . S
O1383 C1384 1.257 . S
C1384 O1382 1.273 . S
C1384 O1383 1.257 . S
O1385 Eu1365 2.326 . S
O1385 C1373 1.242 . S
O1386 Tb1364 2.324 . S
O1386 C1373 1.258 . S
O1387 Eu1365 2.500 . S
O1387 C1370 1.273 . S
O1388 Eu1365 2.473 . S
O1388 C1370 1.257 . S
H1389 C1375 0.929 . S
H1390 C1377 0.931 . S
H1391 C1379 0.929 . S
H1392 C1398 0.930 . S
H1393 C1402 0.930 . S
H1394 C1407 0.929 . S
H1395 C1405 0.929 . S
H1396 C1400 0.929 . S
H1397 C1406 0.929 . S
C1398 H1392 0.930 . S
C1398 C1399 1.367 . S
C1398 C1406 1.378 . S
C1399 C1398 1.367 . S
C1399 C1407 1.433 . S
C1400 H1396 0.929 . S
C1400 C1402 1.378 . S
C1400 C1404 1.350 . S
C1401 C1404 1.463 . S
C1401 C1406 1.350 . S
C1401 N1409 1.427 . S
C1402 H1393 0.930 . S
C1402 C1400 1.378 . S
C1402 C1403 1.367 . S
C1403 C1402 1.367 . S
C1403 C1405 1.433 . S
C1404 C1400 1.350 . S
C1404 C1401 1.463 . S
C1404 N1408 1.427 . S
C1405 H1395 0.929 . S
C1405 C1403 1.433 . S
C1405 N1408 1.384 . S
C1406 H1397 0.929 . S
C1406 C1398 1.378 . S
C1406 C1401 1.350 . S
C1407 H1394 0.929 . S
C1407 C1399 1.433 . S
C1407 N1409 1.384 . S
N1408 C1404 1.427 . S
N1408 C1405 1.384 . S
N1409 C1401 1.427 . S
N1409 C1407 1.384 . S
H1410 C1416 0.930 . S
H1411 C1420 0.930 . S
H1412 C1425 0.929 . S
H1413 C1423 0.929 . S
H1414 C1418 0.929 . S
H1415 C1424 0.929 . S
C1416 H1410 0.930 . S
C1416 C1417 1.367 . S
C1416 C1424 1.378 . S
C1417 C1416 1.367 . S
C1417 C1425 1.433 . S
C1418 H1414 0.929 . S
C1418 C1420 1.378 . S
C1418 C1422 1.350 . S
C1419 C1422 1.463 . S
C1419 C1424 1.350 . S
C1419 N1427 1.427 . S
C1420 H1411 0.930 . S
C1420 C1418 1.378 . S
C1420 C1421 1.367 . S
C1421 C1420 1.367 . S
C1421 C1423 1.433 . S
C1422 C1418 1.350 . S
C1422 C1419 1.463 . S
C1422 N1426 1.427 . S
C1423 H1413 0.929 . S
C1423 C1421 1.433 . S
C1423 N1426 1.384 . S
C1424 H1415 0.929 . S
C1424 C1416 1.378 . S
C1424 C1419 1.350 . S
C1425 H1412 0.929 . S
C1425 C1417 1.433 . S
C1425 N1427 1.384 . S
N1426 C1422 1.427 . S
N1426 C1423 1.384 . S
N1427 C1419 1.427 . S
N1427 C1425 1.384 . S
H1428 C1434 0.930 . S
H1429 C1438 0.930 . S
H1430 C1443 0.929 . S
H1431 C1441 0.929 . S
H1432 C1436 0.929 . S
H1433 C1442 0.929 . S
C1434 H1428 0.930 . S
C1434 C1435 1.367 . S
C1434 C1442 1.378 . S
C1435 C1434 1.367 . S
C1435 C1443 1.433 . S
C1436 H1432 0.929 . S
C1436 C1438 1.378 . S
C1436 C1440 1.350 . S
C1437 C1440 1.463 . S
C1437 C1442 1.350 . S
C1437 N1445 1.427 . S
C1438 H1429 0.930 . S
C1438 C1436 1.378 . S
C1438 C1439 1.367 . S
C1439 C1438 1.367 . S
C1439 C1441 1.433 . S
C1440 C1436 1.350 . S
C1440 C1437 1.463 . S
C1440 N1444 1.427 . S
C1441 H1431 0.929 . S
C1441 C1439 1.433 . S
C1441 N1444 1.384 . S
C1442 H1433 0.929 . S
C1442 C1434 1.378 . S
C1442 C1437 1.350 . S
C1443 H1430 0.929 . S
C1443 C1435 1.433 . S
C1443 N1445 1.384 . S
N1444 C1440 1.427 . S
N1444 C1441 1.384 . S
N1445 C1437 1.427 . S
N1445 C1443 1.384 . S
H1446 C1452 0.930 . S
H1447 C1456 0.930 . S
H1448 C1461 0.929 . S
H1449 C1459 0.929 . S
H1450 C1454 0.929 . S
H1451 C1460 0.929 . S
C1452 H1446 0.930 . S
C1452 C1453 1.367 . S
C1452 C1460 1.378 . S
C1453 C1452 1.367 . S
C1453 C1461 1.433 . S
C1454 H1450 0.929 . S
C1454 C1456 1.378 . S
C1454 C1458 1.350 . S
C1455 C1458 1.463 . S
C1455 C1460 1.350 . S
C1455 N1463 1.427 . S
C1456 H1447 0.930 . S
C1456 C1454 1.378 . S
C1456 C1457 1.367 . S
C1457 C1456 1.367 . S
C1457 C1459 1.433 . S
C1458 C1454 1.350 . S
C1458 C1455 1.463 . S
C1458 N1462 1.427 . S
C1459 H1449 0.929 . S
C1459 C1457 1.433 . S
C1459 N1462 1.384 . S
C1460 H1451 0.929 . S
C1460 C1452 1.378 . S
C1460 C1455 1.350 . S
C1461 H1448 0.929 . S
C1461 C1453 1.433 . S
C1461 N1463 1.384 . S
N1462 C1458 1.427 . S
N1462 C1459 1.384 . S
N1463 C1455 1.427 . S
N1463 C1461 1.384 . S
H1464 C1470 0.930 . S
H1465 C1474 0.930 . S
H1466 C1479 0.929 . S
H1467 C1477 0.929 . S
H1468 C1472 0.929 . S
H1469 C1478 0.929 . S
C1470 H1464 0.930 . S
C1470 C1471 1.367 . S
C1470 C1478 1.378 . S
C1471 C1470 1.367 . S
C1471 C1479 1.433 . S
C1472 H1468 0.929 . S
C1472 C1474 1.378 . S
C1472 C1476 1.350 . S
C1473 C1476 1.463 . S
C1473 C1478 1.350 . S
C1473 N1481 1.427 . S
C1474 H1465 0.930 . S
C1474 C1472 1.378 . S
C1474 C1475 1.367 . S
C1475 C1474 1.367 . S
C1475 C1477 1.433 . S
C1476 C1472 1.350 . S
C1476 C1473 1.463 . S
C1476 N1480 1.427 . S
C1477 H1467 0.929 . S
C1477 C1475 1.433 . S
C1477 N1480 1.384 . S
C1478 H1469 0.929 . S
C1478 C1470 1.378 . S
C1478 C1473 1.350 . S
C1479 H1466 0.929 . S
C1479 C1471 1.433 . S
C1479 N1481 1.384 . S
N1480 C1476 1.427 . S
N1480 C1477 1.384 . S
N1481 C1473 1.427 . S
N1481 C1479 1.384 . S
H1482 C1488 0.930 . S
H1483 C1492 0.930 . S
H1484 C1497 0.929 . S
H1485 C1495 0.929 . S
H1486 C1490 0.929 . S
H1487 C1496 0.929 . S
C1488 H1482 0.930 . S
C1488 C1489 1.367 . S
C1488 C1496 1.378 . S
C1489 C1488 1.367 . S
C1489 C1497 1.433 . S
C1490 H1486 0.929 . S
C1490 C1492 1.378 . S
C1490 C1494 1.350 . S
C1491 C1494 1.463 . S
C1491 C1496 1.350 . S
C1491 N1499 1.427 . S
C1492 H1483 0.930 . S
C1492 C1490 1.378 . S
C1492 C1493 1.367 . S
C1493 C1492 1.367 . S
C1493 C1495 1.433 . S
C1494 C1490 1.350 . S
C1494 C1491 1.463 . S
C1494 N1498 1.427 . S
C1495 H1485 0.929 . S
C1495 C1493 1.433 . S
C1495 N1498 1.384 . S
C1496 H1487 0.929 . S
C1496 C1488 1.378 . S
C1496 C1491 1.350 . S
C1497 H1484 0.929 . S
C1497 C1489 1.433 . S
C1497 N1499 1.384 . S
N1498 C1494 1.427 . S
N1498 C1495 1.384 . S
N1499 C1491 1.427 . S
N1499 C1497 1.384 . S
H1500 C1506 0.930 . S
H1501 C1510 0.930 . S
H1502 C1515 0.929 . S
H1503 C1513 0.929 . S
H1504 C1508 0.929 . S
H1505 C1514 0.929 . S
C1506 H1500 0.930 . S
C1506 C1507 1.367 . S
C1506 C1514 1.378 . S
C1507 C1506 1.367 . S
C1507 C1515 1.433 . S
C1508 H1504 0.929 . S
C1508 C1510 1.378 . S
C1508 C1512 1.350 . S
C1509 C1512 1.463 . S
C1509 C1514 1.350 . S
C1509 N1517 1.427 . S
C1510 H1501 0.930 . S
C1510 C1508 1.378 . S
C1510 C1511 1.367 . S
C1511 C1510 1.367 . S
C1511 C1513 1.433 . S
C1512 C1508 1.350 . S
C1512 C1509 1.463 . S
C1512 N1516 1.427 . S
C1513 H1503 0.929 . S
C1513 C1511 1.433 . S
C1513 N1516 1.384 . S
C1514 H1505 0.929 . S
C1514 C1506 1.378 . S
C1514 C1509 1.350 . S
C1515 H1502 0.929 . S
C1515 C1507 1.433 . S
C1515 N1517 1.384 . S
N1516 C1512 1.427 . S
N1516 C1513 1.384 . S
N1517 C1509 1.427 . S
N1517 C1515 1.384 . S
H1518 C1524 0.930 . S
H1519 C1528 0.930 . S
H1520 C1533 0.929 . S
H1521 C1531 0.929 . S
H1522 C1526 0.929 . S
H1523 C1532 0.929 . S
C1524 H1518 0.930 . S
C1524 C1525 1.367 . S
C1524 C1532 1.378 . S
C1525 C1524 1.367 . S
C1525 C1533 1.433 . S
C1526 H1522 0.929 . S
C1526 C1528 1.378 . S
C1526 C1530 1.350 . S
C1527 C1530 1.463 . S
C1527 C1532 1.350 . S
C1527 N1535 1.427 . S
C1528 H1519 0.930 . S
C1528 C1526 1.378 . S
C1528 C1529 1.367 . S
C1529 C1528 1.367 . S
C1529 C1531 1.433 . S
C1530 C1526 1.350 . S
C1530 C1527 1.463 . S
C1530 N1534 1.427 . S
C1531 H1521 0.929 . S
C1531 C1529 1.433 . S
C1531 N1534 1.384 . S
C1532 H1523 0.929 . S
C1532 C1524 1.378 . S
C1532 C1527 1.350 . S
C1533 H1520 0.929 . S
C1533 C1525 1.433 . S
C1533 N1535 1.384 . S
N1534 C1530 1.427 . S
N1534 C1531 1.384 . S
N1535 C1527 1.427 . S
N1535 C1533 1.384 . S
H1536 C1542 0.930 . S
H1537 C1546 0.930 . S
H1538 C1551 0.929 . S
H1539 C1549 0.929 . S
H1540 C1544 0.929 . S
H1541 C1550 0.929 . S
C1542 H1536 0.930 . S
C1542 C1543 1.367 . S
C1542 C1550 1.378 . S
C1543 C1542 1.367 . S
C1543 C1551 1.433 . S
C1544 H1540 0.929 . S
C1544 C1546 1.378 . S
C1544 C1548 1.350 . S
C1545 C1548 1.463 . S
C1545 C1550 1.350 . S
C1545 N1553 1.427 . S
C1546 H1537 0.930 . S
C1546 C1544 1.378 . S
C1546 C1547 1.367 . S
C1547 C1546 1.367 . S
C1547 C1549 1.433 . S
C1548 C1544 1.350 . S
C1548 C1545 1.463 . S
C1548 N1552 1.427 . S
C1549 H1539 0.929 . S
C1549 C1547 1.433 . S
C1549 N1552 1.384 . S
C1550 H1541 0.929 . S
C1550 C1542 1.378 . S
C1550 C1545 1.350 . S
C1551 H1538 0.929 . S
C1551 C1543 1.433 . S
C1551 N1553 1.384 . S
N1552 C1548 1.427 . S
N1552 C1549 1.384 . S
N1553 C1545 1.427 . S
N1553 C1551 1.384 . S
H1554 C1560 0.930 . S
H1555 C1564 0.930 . S
H1556 C1569 0.929 . S
H1557 C1567 0.929 . S
H1558 C1562 0.929 . S
H1559 C1568 0.929 . S
C1560 H1554 0.930 . S
C1560 C1561 1.367 . S
C1560 C1568 1.378 . S
C1561 C1560 1.367 . S
C1561 C1569 1.433 . S
C1562 H1558 0.929 . S
C1562 C1564 1.378 . S
C1562 C1566 1.350 . S
C1563 C1566 1.463 . S
C1563 C1568 1.350 . S
C1563 N1571 1.427 . S
C1564 H1555 0.930 . S
C1564 C1562 1.378 . S
C1564 C1565 1.367 . S
C1565 C1564 1.367 . S
C1565 C1567 1.433 . S
C1566 C1562 1.350 . S
C1566 C1563 1.463 . S
C1566 N1570 1.427 . S
C1567 H1557 0.929 . S
C1567 C1565 1.433 . S
C1567 N1570 1.384 . S
C1568 H1559 0.929 . S
C1568 C1560 1.378 . S
C1568 C1563 1.350 . S
C1569 H1556 0.929 . S
C1569 C1561 1.433 . S
C1569 N1571 1.384 . S
N1570 C1566 1.427 . S
N1570 C1567 1.384 . S
N1571 C1563 1.427 . S
N1571 C1569 1.384 . S
H1572 C1578 0.930 . S
H1573 C1582 0.930 . S
H1574 C1587 0.929 . S
H1575 C1585 0.929 . S
H1576 C1580 0.929 . S
H1577 C1586 0.929 . S
C1578 H1572 0.930 . S
C1578 C1579 1.367 . S
C1578 C1586 1.378 . S
C1579 C1578 1.367 . S
C1579 C1587 1.433 . S
C1580 H1576 0.929 . S
C1580 C1582 1.378 . S
C1580 C1584 1.350 . S
C1581 C1584 1.463 . S
C1581 C1586 1.350 . S
C1581 N1589 1.427 . S
C1582 H1573 0.930 . S
C1582 C1580 1.378 . S
C1582 C1583 1.367 . S
C1583 C1582 1.367 . S
C1583 C1585 1.433 . S
C1584 C1580 1.350 . S
C1584 C1581 1.463 . S
C1584 N1588 1.427 . S
C1585 H1575 0.929 . S
C1585 C1583 1.433 . S
C1585 N1588 1.384 . S
C1586 H1577 0.929 . S
C1586 C1578 1.378 . S
C1586 C1581 1.350 . S
C1587 H1574 0.929 . S
C1587 C1579 1.433 . S
C1587 N1589 1.384 . S
N1588 C1584 1.427 . S
N1588 C1585 1.384 . S
N1589 C1581 1.427 . S
N1589 C1587 1.384 . S
H1590 C1596 0.930 . S
H1591 C1600 0.930 . S
H1592 C1605 0.929 . S
H1593 C1603 0.929 . S
H1594 C1598 0.929 . S
H1595 C1604 0.929 . S
C1596 H1590 0.930 . S
C1596 C1597 1.367 . S
C1596 C1604 1.378 . S
C1597 C1596 1.367 . S
C1597 C1605 1.433 . S
C1598 H1594 0.929 . S
C1598 C1600 1.378 . S
C1598 C1602 1.350 . S
C1599 C1602 1.463 . S
C1599 C1604 1.350 . S
C1599 N1607 1.427 . S
C1600 H1591 0.930 . S
C1600 C1598 1.378 . S
C1600 C1601 1.367 . S
C1601 C1600 1.367 . S
C1601 C1603 1.433 . S
C1602 C1598 1.350 . S
C1602 C1599 1.463 . S
C1602 N1606 1.427 . S
C1603 H1593 0.929 . S
C1603 C1601 1.433 . S
C1603 N1606 1.384 . S
C1604 H1595 0.929 . S
C1604 C1596 1.378 . S
C1604 C1599 1.350 . S
C1605 H1592 0.929 . S
C1605 C1597 1.433 . S
C1605 N1607 1.384 . S
N1606 C1602 1.427 . S
N1606 C1603 1.384 . S
N1607 C1599 1.427 . S
N1607 C1605 1.384 . S
H1608 C1614 0.930 . S
H1609 C1618 0.930 . S
H1610 C1623 0.929 . S
H1611 C1621 0.929 . S
H1612 C1616 0.929 . S
H1613 C1622 0.929 . S
C1614 H1608 0.930 . S
C1614 C1615 1.367 . S
C1614 C1622 1.378 . S
C1615 C1614 1.367 . S
C1615 C1623 1.433 . S
C1616 H1612 0.929 . S
C1616 C1618 1.378 . S
C1616 C1620 1.350 . S
C1617 C1620 1.463 . S
C1617 C1622 1.350 . S
C1617 N1625 1.427 . S
C1618 H1609 0.930 . S
C1618 C1616 1.378 . S
C1618 C1619 1.367 . S
C1619 C1618 1.367 . S
C1619 C1621 1.433 . S
C1620 C1616 1.350 . S
C1620 C1617 1.463 . S
C1620 N1624 1.427 . S
C1621 H1611 0.929 . S
C1621 C1619 1.433 . S
C1621 N1624 1.384 . S
C1622 H1613 0.929 . S
C1622 C1614 1.378 . S
C1622 C1617 1.350 . S
C1623 H1610 0.929 . S
C1623 C1615 1.433 . S
C1623 N1625 1.384 . S
N1624 C1620 1.427 . S
N1624 C1621 1.384 . S
N1625 C1617 1.427 . S
N1625 C1623 1.384 . S
H1626 C1632 0.930 . S
H1627 C1636 0.930 . S
H1628 C1641 0.929 . S
H1629 C1639 0.929 . S
H1630 C1634 0.929 . S
H1631 C1640 0.929 . S
C1632 H1626 0.930 . S
C1632 C1633 1.367 . S
C1632 C1640 1.378 . S
C1633 C1632 1.367 . S
C1633 C1641 1.433 . S
C1634 H1630 0.929 . S
C1634 C1636 1.378 . S
C1634 C1638 1.350 . S
C1635 C1638 1.463 . S
C1635 C1640 1.350 . S
C1635 N1643 1.427 . S
C1636 H1627 0.930 . S
C1636 C1634 1.378 . S
C1636 C1637 1.367 . S
C1637 C1636 1.367 . S
C1637 C1639 1.433 . S
C1638 C1634 1.350 . S
C1638 C1635 1.463 . S
C1638 N1642 1.427 . S
C1639 H1629 0.929 . S
C1639 C1637 1.433 . S
C1639 N1642 1.384 . S
C1640 H1631 0.929 . S
C1640 C1632 1.378 . S
C1640 C1635 1.350 . S
C1641 H1628 0.929 . S
C1641 C1633 1.433 . S
C1641 N1643 1.384 . S
N1642 C1638 1.427 . S
N1642 C1639 1.384 . S
N1643 C1635 1.427 . S
N1643 C1641 1.384 . S
H1644 C1650 0.930 . S
H1645 C1654 0.930 . S
H1646 C1659 0.929 . S
H1647 C1657 0.929 . S
H1648 C1652 0.929 . S
H1649 C1658 0.929 . S
C1650 H1644 0.930 . S
C1650 C1651 1.367 . S
C1650 C1658 1.378 . S
C1651 C1650 1.367 . S
C1651 C1659 1.433 . S
C1652 H1648 0.929 . S
C1652 C1654 1.378 . S
C1652 C1656 1.350 . S
C1653 C1656 1.463 . S
C1653 C1658 1.350 . S
C1653 N1661 1.427 . S
C1654 H1645 0.930 . S
C1654 C1652 1.378 . S
C1654 C1655 1.367 . S
C1655 C1654 1.367 . S
C1655 C1657 1.433 . S
C1656 C1652 1.350 . S
C1656 C1653 1.463 . S
C1656 N1660 1.427 . S
C1657 H1647 0.929 . S
C1657 C1655 1.433 . S
C1657 N1660 1.384 . S
C1658 H1649 0.929 . S
C1658 C1650 1.378 . S
C1658 C1653 1.350 . S
C1659 H1646 0.929 . S
C1659 C1651 1.433 . S
C1659 N1661 1.384 . S
N1660 C1656 1.427 . S
N1660 C1657 1.384 . S
N1661 C1653 1.427 . S
N1661 C1659 1.384 . S
H1662 C1668 0.930 . S
H1663 C1672 0.930 . S
H1664 C1677 0.929 . S
H1665 C1675 0.929 . S
H1666 C1670 0.929 . S
H1667 C1676 0.929 . S
C1668 H1662 0.930 . S
C1668 C1669 1.367 . S
C1668 C1676 1.378 . S
C1669 C1668 1.367 . S
C1669 C1677 1.433 . S
C1670 H1666 0.929 . S
C1670 C1672 1.378 . S
C1670 C1674 1.350 . S
C1671 C1674 1.463 . S
C1671 C1676 1.350 . S
C1671 N1679 1.427 . S
C1672 H1663 0.930 . S
C1672 C1670 1.378 . S
C1672 C1673 1.367 . S
C1673 C1672 1.367 . S
C1673 C1675 1.433 . S
C1674 C1670 1.350 . S
C1674 C1671 1.463 . S
C1674 N1678 1.427 . S
C1675 H1665 0.929 . S
C1675 C1673 1.433 . S
C1675 N1678 1.384 . S
C1676 H1667 0.929 . S
C1676 C1668 1.378 . S
C1676 C1671 1.350 . S
C1677 H1664 0.929 . S
C1677 C1669 1.433 . S
C1677 N1679 1.384 . S
N1678 C1674 1.427 . S
N1678 C1675 1.384 . S
N1679 C1671 1.427 . S
N1679 C1677 1.384 . S
H1680 C1686 0.930 . S
H1681 C1690 0.930 . S
H1682 C1695 0.929 . S
H1683 C1693 0.929 . S
H1684 C1688 0.929 . S
H1685 C1694 0.929 . S
C1686 H1680 0.930 . S
C1686 C1687 1.367 . S
C1686 C1694 1.378 . S
C1687 C1686 1.367 . S
C1687 C1695 1.433 . S
C1688 H1684 0.929 . S
C1688 C1690 1.378 . S
C1688 C1692 1.350 . S
C1689 C1692 1.463 . S
C1689 C1694 1.350 . S
C1689 N1697 1.427 . S
C1690 H1681 0.930 . S
C1690 C1688 1.378 . S
C1690 C1691 1.367 . S
C1691 C1690 1.367 . S
C1691 C1693 1.433 . S
C1692 C1688 1.350 . S
C1692 C1689 1.463 . S
C1692 N1696 1.427 . S
C1693 H1683 0.929 . S
C1693 C1691 1.433 . S
C1693 N1696 1.384 . S
C1694 H1685 0.929 . S
C1694 C1686 1.378 . S
C1694 C1689 1.350 . S
C1695 H1682 0.929 . S
C1695 C1687 1.433 . S
C1695 N1697 1.384 . S
N1696 C1692 1.427 . S
N1696 C1693 1.384 . S
N1697 C1689 1.427 . S
N1697 C1695 1.384 . S
H1698 C1704 0.930 . S
H1699 C1708 0.930 . S
H1700 C1713 0.929 . S
H1701 C1711 0.929 . S
H1702 C1706 0.929 . S
H1703 C1712 0.929 . S
C1704 H1698 0.930 . S
C1704 C1705 1.367 . S
C1704 C1712 1.378 . S
C1705 C1704 1.367 . S
C1705 C1713 1.433 . S
C1706 H1702 0.929 . S
C1706 C1708 1.378 . S
C1706 C1710 1.350 . S
C1707 C1710 1.463 . S
C1707 C1712 1.350 . S
C1707 N1715 1.427 . S
C1708 H1699 0.930 . S
C1708 C1706 1.378 . S
C1708 C1709 1.367 . S
C1709 C1708 1.367 . S
C1709 C1711 1.433 . S
C1710 C1706 1.350 . S
C1710 C1707 1.463 . S
C1710 N1714 1.427 . S
C1711 H1701 0.929 . S
C1711 C1709 1.433 . S
C1711 N1714 1.384 . S
C1712 H1703 0.929 . S
C1712 C1704 1.378 . S
C1712 C1707 1.350 . S
C1713 H1700 0.929 . S
C1713 C1705 1.433 . S
C1713 N1715 1.384 . S
N1714 C1710 1.427 . S
N1714 C1711 1.384 . S
N1715 C1707 1.427 . S
N1715 C1713 1.384 . S
H1716 C1722 0.930 . S
H1717 C1726 0.930 . S
H1718 C1731 0.929 . S
H1719 C1729 0.929 . S
H1720 C1724 0.929 . S
H1721 C1730 0.929 . S
C1722 H1716 0.930 . S
C1722 C1723 1.367 . S
C1722 C1730 1.378 . S
C1723 C1722 1.367 . S
C1723 C1731 1.433 . S
C1724 H1720 0.929 . S
C1724 C1726 1.378 . S
C1724 C1728 1.350 . S
C1725 C1728 1.463 . S
C1725 C1730 1.350 . S
C1725 N1733 1.427 . S
C1726 H1717 0.930 . S
C1726 C1724 1.378 . S
C1726 C1727 1.367 . S
C1727 C1726 1.367 . S
C1727 C1729 1.433 . S
C1728 C1724 1.350 . S
C1728 C1725 1.463 . S
C1728 N1732 1.427 . S
C1729 H1719 0.929 . S
C1729 C1727 1.433 . S
C1729 N1732 1.384 . S
C1730 H1721 0.929 . S
C1730 C1722 1.378 . S
C1730 C1725 1.350 . S
C1731 H1718 0.929 . S
C1731 C1723 1.433 . S
C1731 N1733 1.384 . S
N1732 C1728 1.427 . S
N1732 C1729 1.384 . S
N1733 C1725 1.427 . S
N1733 C1731 1.384 . S
H1734 C1740 0.930 . S
H1735 C1744 0.930 . S
H1736 C1749 0.929 . S
H1737 C1747 0.929 . S
H1738 C1742 0.929 . S
H1739 C1748 0.929 . S
C1740 H1734 0.930 . S
C1740 C1741 1.367 . S
C1740 C1748 1.378 . S
C1741 C1740 1.367 . S
C1741 C1749 1.433 . S
C1742 H1738 0.929 . S
C1742 C1744 1.378 . S
C1742 C1746 1.350 . S
C1743 C1746 1.463 . S
C1743 C1748 1.350 . S
C1743 N1751 1.427 . S
C1744 H1735 0.930 . S
C1744 C1742 1.378 . S
C1744 C1745 1.367 . S
C1745 C1744 1.367 . S
C1745 C1747 1.433 . S
C1746 C1742 1.350 . S
C1746 C1743 1.463 . S
C1746 N1750 1.427 . S
C1747 H1737 0.929 . S
C1747 C1745 1.433 . S
C1747 N1750 1.384 . S
C1748 H1739 0.929 . S
C1748 C1740 1.378 . S
C1748 C1743 1.350 . S
C1749 H1736 0.929 . S
C1749 C1741 1.433 . S
C1749 N1751 1.384 . S
N1750 C1746 1.427 . S
N1750 C1747 1.384 . S
N1751 C1743 1.427 . S
N1751 C1749 1.384 . S
H1752 C1758 0.930 . S
H1753 C1762 0.930 . S
H1754 C1767 0.929 . S
H1755 C1765 0.929 . S
H1756 C1760 0.929 . S
H1757 C1766 0.929 . S
C1758 H1752 0.930 . S
C1758 C1759 1.367 . S
C1758 C1766 1.378 . S
C1759 C1758 1.367 . S
C1759 C1767 1.433 . S
C1760 H1756 0.929 . S
C1760 C1762 1.378 . S
C1760 C1764 1.350 . S
C1761 C1764 1.463 . S
C1761 C1766 1.350 . S
C1761 N1769 1.427 . S
C1762 H1753 0.930 . S
C1762 C1760 1.378 . S
C1762 C1763 1.367 . S
C1763 C1762 1.367 . S
C1763 C1765 1.433 . S
C1764 C1760 1.350 . S
C1764 C1761 1.463 . S
C1764 N1768 1.427 . S
C1765 H1755 0.929 . S
C1765 C1763 1.433 . S
C1765 N1768 1.384 . S
C1766 H1757 0.929 . S
C1766 C1758 1.378 . S
C1766 C1761 1.350 . S
C1767 H1754 0.929 . S
C1767 C1759 1.433 . S
C1767 N1769 1.384 . S
N1768 C1764 1.427 . S
N1768 C1765 1.384 . S
N1769 C1761 1.427 . S
N1769 C1767 1.384 . S
H1770 C1776 0.930 . S
H1771 C1780 0.930 . S
H1772 C1785 0.929 . S
H1773 C1783 0.929 . S
H1774 C1778 0.929 . S
H1775 C1784 0.929 . S
C1776 H1770 0.930 . S
C1776 C1777 1.367 . S
C1776 C1784 1.378 . S
C1777 C1776 1.367 . S
C1777 C1785 1.433 . S
C1778 H1774 0.929 . S
C1778 C1780 1.378 . S
C1778 C1782 1.350 . S
C1779 C1782 1.463 . S
C1779 C1784 1.350 . S
C1779 N1787 1.427 . S
C1780 H1771 0.930 . S
C1780 C1778 1.378 . S
C1780 C1781 1.367 . S
C1781 C1780 1.367 . S
C1781 C1783 1.433 . S
C1782 C1778 1.350 . S
C1782 C1779 1.463 . S
C1782 N1786 1.427 . S
C1783 H1773 0.929 . S
C1783 C1781 1.433 . S
C1783 N1786 1.384 . S
C1784 H1775 0.929 . S
C1784 C1776 1.378 . S
C1784 C1779 1.350 . S
C1785 H1772 0.929 . S
C1785 C1777 1.433 . S
C1785 N1787 1.384 . S
N1786 C1782 1.427 . S
N1786 C1783 1.384 . S
N1787 C1779 1.427 . S
N1787 C1785 1.384 . S
H1788 C1794 0.930 . S
H1789 C1798 0.930 . S
H1790 C1803 0.929 . S
H1791 C1801 0.929 . S
H1792 C1796 0.929 . S
H1793 C1802 0.929 . S
C1794 H1788 0.930 . S
C1794 C1795 1.367 . S
C1794 C1802 1.378 . S
C1795 C1794 1.367 . S
C1795 C1803 1.433 . S
C1796 H1792 0.929 . S
C1796 C1798 1.378 . S
C1796 C1800 1.350 . S
C1797 C1800 1.463 . S
C1797 C1802 1.350 . S
C1797 N1805 1.427 . S
C1798 H1789 0.930 . S
C1798 C1796 1.378 . S
C1798 C1799 1.367 . S
C1799 C1798 1.367 . S
C1799 C1801 1.433 . S
C1800 C1796 1.350 . S
C1800 C1797 1.463 . S
C1800 N1804 1.427 . S
C1801 H1791 0.929 . S
C1801 C1799 1.433 . S
C1801 N1804 1.384 . S
C1802 H1793 0.929 . S
C1802 C1794 1.378 . S
C1802 C1797 1.350 . S
C1803 H1790 0.929 . S
C1803 C1795 1.433 . S
C1803 N1805 1.384 . S
N1804 C1800 1.427 . S
N1804 C1801 1.384 . S
N1805 C1797 1.427 . S
N1805 C1803 1.384 . S
H1806 C1812 0.930 . S
H1807 C1816 0.930 . S
H1808 C1821 0.929 . S
H1809 C1819 0.929 . S
H1810 C1814 0.929 . S
H1811 C1820 0.929 . S
C1812 H1806 0.930 . S
C1812 C1813 1.367 . S
C1812 C1820 1.378 . S
C1813 C1812 1.367 . S
C1813 C1821 1.433 . S
C1814 H1810 0.929 . S
C1814 C1816 1.378 . S
C1814 C1818 1.350 . S
C1815 C1818 1.463 . S
C1815 C1820 1.350 . S
C1815 N1823 1.427 . S
C1816 H1807 0.930 . S
C1816 C1814 1.378 . S
C1816 C1817 1.367 . S
C1817 C1816 1.367 . S
C1817 C1819 1.433 . S
C1818 C1814 1.350 . S
C1818 C1815 1.463 . S
C1818 N1822 1.427 . S
C1819 H1809 0.929 . S
C1819 C1817 1.433 . S
C1819 N1822 1.384 . S
C1820 H1811 0.929 . S
C1820 C1812 1.378 . S
C1820 C1815 1.350 . S
C1821 H1808 0.929 . S
C1821 C1813 1.433 . S
C1821 N1823 1.384 . S
N1822 C1818 1.427 . S
N1822 C1819 1.384 . S
N1823 C1815 1.427 . S
N1823 C1821 1.384 . S
H1824 C1830 0.930 . S
H1825 C1834 0.930 . S
H1826 C1839 0.929 . S
H1827 C1837 0.929 . S
H1828 C1832 0.951 . S
H1829 C1838 0.929 . S
C1830 H1824 0.930 . S
C1830 C1831 1.367 . S
C1830 C1838 1.378 . S
C1831 C1830 1.367 . S
C1831 C1839 1.433 . S
C1832 H1828 0.951 . S
C1832 C1834 1.344 1_554 S
C1832 C1836 1.361 . S
C1833 C1836 1.463 . S
C1833 C1838 1.350 . S
C1833 N1841 1.427 . S
C1834 H1825 0.930 . S
C1834 C1832 1.344 1_556 S
C1834 C1835 1.367 . S
C1835 C1834 1.367 . S
C1835 C1837 1.433 . S
C1836 C1832 1.361 . S
C1836 C1833 1.463 . S
C1836 N1840 1.427 1_554 S
C1837 H1827 0.929 . S
C1837 C1835 1.433 . S
C1837 N1840 1.384 . S
C1838 H1829 0.929 . S
C1838 C1830 1.378 . S
C1838 C1833 1.350 . S
C1839 H1826 0.929 . S
C1839 C1831 1.433 . S
C1839 N1841 1.384 . S
N1840 C1836 1.427 1_556 S
N1840 C1837 1.384 . S
N1841 C1833 1.427 . S
N1841 C1839 1.384 . S
H1842 C1848 0.930 . S
H1843 C1852 0.930 . S
H1844 C1857 0.929 . S
H1845 C1855 0.929 . S
H1846 C1850 0.907 1_554 S
H1847 C1856 0.929 . S
C1848 H1842 0.930 . S
C1848 C1849 1.367 . S
C1848 C1856 1.378 . S
C1849 C1848 1.367 . S
C1849 C1857 1.433 . S
C1850 H1846 0.907 1_556 S
C1850 C1852 1.378 . S
C1850 C1854 1.350 1_556 S
C1851 C1854 1.463 . S
C1851 C1856 1.350 . S
C1851 N1859 1.427 . S
C1852 H1843 0.930 . S
C1852 C1850 1.378 . S
C1852 C1853 1.367 . S
C1853 C1852 1.367 . S
C1853 C1855 1.433 . S
C1854 C1850 1.350 1_554 S
C1854 C1851 1.463 . S
C1854 N1858 1.412 1_554 S
C1855 H1845 0.929 . S
C1855 C1853 1.433 . S
C1855 N1858 1.425 . S
C1856 H1847 0.929 . S
C1856 C1848 1.378 . S
C1856 C1851 1.350 . S
C1857 H1844 0.929 . S
C1857 C1849 1.433 . S
C1857 N1859 1.384 . S
N1858 C1854 1.412 1_556 S
N1858 C1855 1.425 . S
N1859 C1851 1.427 . S
N1859 C1857 1.384 . S
H1860 C1866 0.930 . S
H1861 C1870 0.930 . S
H1862 C1875 0.929 . S
H1863 C1873 0.929 . S
H1864 C1868 0.929 . S
H1865 C1874 0.929 1_554 S
C1866 H1860 0.930 . S
C1866 C1867 1.367 . S
C1866 C1874 1.378 . S
C1867 C1866 1.367 . S
C1867 C1875 1.433 . S
C1868 H1864 0.929 . S
C1868 C1870 1.378 . S
C1868 C1872 1.350 . S
C1869 C1872 1.463 . S
C1869 C1874 1.350 1_554 S
C1869 N1877 1.427 1_554 S
C1870 H1861 0.930 . S
C1870 C1868 1.378 . S
C1870 C1871 1.367 . S
C1871 C1870 1.367 . S
C1871 C1873 1.433 . S
C1872 C1868 1.350 . S
C1872 C1869 1.463 . S
C1872 N1876 1.427 . S
C1873 H1863 0.929 . S
C1873 C1871 1.433 . S
C1873 N1876 1.384 . S
C1874 H1865 0.929 1_556 S
C1874 C1866 1.378 . S
C1874 C1869 1.350 1_556 S
C1875 H1862 0.929 . S
C1875 C1867 1.433 . S
C1875 N1877 1.384 . S
N1876 C1872 1.427 . S
N1876 C1873 1.384 . S
N1877 C1869 1.427 1_556 S
N1877 C1875 1.384 . S
H1878 C1884 0.930 . S
H1879 C1888 0.930 . S
H1880 C1893 0.929 . S
H1881 C1891 0.929 . S
H1882 C1886 0.967 . S
H1883 C1892 0.929 . S
C1884 H1878 0.930 . S
C1884 C1885 1.367 . S
C1884 C1892 1.378 . S
C1885 C1884 1.367 . S
C1885 C1893 1.433 . S
C1886 H1882 0.967 . S
C1886 C1888 1.322 1_554 S
C1886 C1890 1.368 . S
C1887 C1890 1.463 . S
C1887 C1892 1.350 . S
C1887 N1895 1.427 . S
C1888 H1879 0.930 . S
C1888 C1886 1.322 1_556 S
C1888 C1889 1.367 . S
C1889 C1888 1.367 . S
C1889 C1891 1.433 . S
C1890 C1886 1.368 . S
C1890 C1887 1.463 . S
C1890 N1894 1.427 1_554 S
C1891 H1881 0.929 . S
C1891 C1889 1.433 . S
C1891 N1894 1.384 . S
C1892 H1883 0.929 . S
C1892 C1884 1.378 . S
C1892 C1887 1.350 . S
C1893 H1880 0.929 . S
C1893 C1885 1.433 . S
C1893 N1895 1.384 . S
N1894 C1890 1.427 1_556 S
N1894 C1891 1.384 . S
N1895 C1887 1.427 . S
N1895 C1893 1.384 . S
H1896 C1902 0.930 . S
H1897 C1906 0.930 . S
H1898 C1911 0.929 . S
H1899 C1909 0.929 . S
H1900 C1904 0.929 . S
H1901 C1910 0.929 . S
C1902 H1896 0.930 . S
C1902 C1903 1.367 . S
C1902 C1910 1.378 . S
C1903 C1902 1.367 . S
C1903 C1911 1.433 . S
C1904 H1900 0.929 . S
C1904 C1906 1.378 . S
C1904 C1908 1.350 . S
C1905 C1908 1.463 . S
C1905 C1910 1.350 . S
C1905 N1913 1.427 . S
C1906 H1897 0.930 . S
C1906 C1904 1.378 . S
C1906 C1907 1.367 . S
C1907 C1906 1.367 . S
C1907 C1909 1.433 . S
C1908 C1904 1.350 . S
C1908 C1905 1.463 . S
C1908 N1912 1.427 . S
C1909 H1899 0.929 . S
C1909 C1907 1.433 . S
C1909 N1912 1.384 . S
C1910 H1901 0.929 . S
C1910 C1902 1.378 . S
C1910 C1905 1.350 . S
C1911 H1898 0.929 . S
C1911 C1903 1.433 . S
C1911 N1913 1.384 . S
N1912 C1908 1.427 . S
N1912 C1909 1.384 . S
N1913 C1905 1.427 . S
N1913 C1911 1.384 . S
H1914 C1920 0.930 . S
H1915 C1924 0.930 . S
H1916 C1929 0.929 . S
H1917 C1927 0.929 . S
H1918 C1922 0.929 . S
H1919 C1928 0.929 . S
C1920 H1914 0.930 . S
C1920 C1921 1.367 . S
C1920 C1928 1.378 . S
C1921 C1920 1.367 . S
C1921 C1929 1.433 . S
C1922 H1918 0.929 . S
C1922 C1924 1.378 . S
C1922 C1926 1.350 . S
C1923 C1926 1.463 . S
C1923 C1928 1.350 . S
C1923 N1931 1.427 . S
C1924 H1915 0.930 . S
C1924 C1922 1.378 . S
C1924 C1925 1.367 . S
C1925 C1924 1.367 . S
C1925 C1927 1.433 . S
C1926 C1922 1.350 . S
C1926 C1923 1.463 . S
C1926 N1930 1.427 . S
C1927 H1917 0.929 . S
C1927 C1925 1.433 . S
C1927 N1930 1.384 . S
C1928 H1919 0.929 . S
C1928 C1920 1.378 . S
C1928 C1923 1.350 . S
C1929 H1916 0.929 . S
C1929 C1921 1.433 . S
C1929 N1931 1.384 . S
N1930 C1926 1.427 . S
N1930 C1927 1.384 . S
N1931 C1923 1.427 . S
N1931 C1929 1.384 . S
H1932 C1938 0.930 . S
H1933 C1942 0.930 . S
H1934 C1947 0.929 . S
H1935 C1945 0.929 . S
H1936 C1940 0.929 . S
H1937 C1946 0.929 . S
C1938 H1932 0.930 . S
C1938 C1939 1.367 . S
C1938 C1946 1.378 . S
C1939 C1938 1.367 . S
C1939 C1947 1.433 . S
C1940 H1936 0.929 . S
C1940 C1942 1.378 . S
C1940 C1944 1.350 . S
C1941 C1944 1.463 . S
C1941 C1946 1.350 . S
C1941 N1949 1.427 . S
C1942 H1933 0.930 . S
C1942 C1940 1.378 . S
C1942 C1943 1.367 . S
C1943 C1942 1.367 . S
C1943 C1945 1.433 . S
C1944 C1940 1.350 . S
C1944 C1941 1.463 . S
C1944 N1948 1.427 . S
C1945 H1935 0.929 . S
C1945 C1943 1.433 . S
C1945 N1948 1.384 . S
C1946 H1937 0.929 . S
C1946 C1938 1.378 . S
C1946 C1941 1.350 . S
C1947 H1934 0.929 . S
C1947 C1939 1.433 . S
C1947 N1949 1.384 . S
N1948 C1944 1.427 . S
N1948 C1945 1.384 . S
N1949 C1941 1.427 . S
N1949 C1947 1.384 . S
H1950 C1956 0.930 . S
H1951 C1960 0.930 . S
H1952 C1965 0.929 . S
H1953 C1963 0.929 . S
H1954 C1958 0.929 . S
H1955 C1964 0.929 . S
C1956 H1950 0.930 . S
C1956 C1957 1.367 . S
C1956 C1964 1.378 . S
C1957 C1956 1.367 . S
C1957 C1965 1.433 . S
C1958 H1954 0.929 . S
C1958 C1960 1.378 . S
C1958 C1962 1.350 . S
C1959 C1962 1.463 . S
C1959 C1964 1.350 . S
C1959 N1967 1.427 . S
C1960 H1951 0.930 . S
C1960 C1958 1.378 . S
C1960 C1961 1.367 . S
C1961 C1960 1.367 . S
C1961 C1963 1.433 . S
C1962 C1958 1.350 . S
C1962 C1959 1.463 . S
C1962 N1966 1.427 . S
C1963 H1953 0.929 . S
C1963 C1961 1.433 . S
C1963 N1966 1.384 . S
C1964 H1955 0.929 . S
C1964 C1956 1.378 . S
C1964 C1959 1.350 . S
C1965 H1952 0.929 . S
C1965 C1957 1.433 . S
C1965 N1967 1.384 . S
N1966 C1962 1.427 . S
N1966 C1963 1.384 . S
N1967 C1959 1.427 . S
N1967 C1965 1.384 . S
H1968 C1974 0.930 . S
H1969 C1978 0.930 . S
H1970 C1983 0.929 . S
H1971 C1981 0.929 . S
H1972 C1976 0.929 . S
H1973 C1982 0.929 1_455 S
C1974 H1968 0.930 . S
C1974 C1975 1.367 . S
C1974 C1982 1.378 . S
C1975 C1974 1.367 . S
C1975 C1983 1.433 . S
C1976 H1972 0.929 . S
C1976 C1978 1.378 . S
C1976 C1980 1.350 . S
C1977 C1980 1.463 . S
C1977 C1982 1.350 1_455 S
C1977 N1985 1.427 1_455 S
C1978 H1969 0.930 . S
C1978 C1976 1.378 . S
C1978 C1979 1.367 . S
C1979 C1978 1.367 . S
C1979 C1981 1.433 . S
C1980 C1976 1.350 . S
C1980 C1977 1.463 . S
C1980 N1984 1.427 . S
C1981 H1971 0.929 . S
C1981 C1979 1.433 . S
C1981 N1984 1.384 . S
C1982 H1973 0.929 1_655 S
C1982 C1974 1.378 . S
C1982 C1977 1.350 1_655 S
C1983 H1970 0.929 . S
C1983 C1975 1.433 . S
C1983 N1985 1.384 . S
N1984 C1980 1.427 . S
N1984 C1981 1.384 . S
N1985 C1977 1.427 1_655 S
N1985 C1983 1.384 . S
H1986 C1992 0.930 . S
H1987 C1996 0.930 . S
H1988 C2001 0.929 . S
H1989 C1999 0.929 . S
H1990 C1994 0.929 . S
H1991 C2000 0.929 . S
C1992 H1986 0.930 . S
C1992 C1993 1.367 . S
C1992 C2000 1.378 . S
C1993 C1992 1.367 . S
C1993 C2001 1.433 . S
C1994 H1990 0.929 . S
C1994 C1996 1.378 . S
C1994 C1998 1.350 . S
C1995 C1998 1.463 . S
C1995 C2000 1.350 1_545 S
C1995 N2003 1.443 . S
C1996 H1987 0.930 . S
C1996 C1994 1.378 . S
C1996 C1997 1.367 . S
C1997 C1996 1.367 . S
C1997 C1999 1.433 . S
C1998 C1994 1.350 . S
C1998 C1995 1.463 . S
C1998 N2002 1.427 . S
C1999 H1989 0.929 . S
C1999 C1997 1.433 . S
C1999 N2002 1.384 . S
C2000 H1991 0.929 . S
C2000 C1992 1.378 . S
C2000 C1995 1.350 1_565 S
C2001 H1988 0.929 . S
C2001 C1993 1.433 . S
C2001 N2003 1.333 1_565 S
N2002 C1998 1.427 . S
N2002 C1999 1.384 . S
N2003 C1995 1.443 . S
N2003 C2001 1.333 1_545 S
H2004 C2010 0.930 . S
H2005 C2014 0.930 . S
H2006 C2019 0.929 . S
H2007 C2017 0.929 . S
H2008 C2012 0.929 . S
H2009 C2018 0.929 . S
C2010 H2004 0.930 . S
C2010 C2011 1.367 . S
C2010 C2018 1.378 . S
C2011 C2010 1.367 . S
C2011 C2019 1.433 . S
C2012 H2008 0.929 . S
C2012 C2014 1.378 . S
C2012 C2016 1.350 . S
C2013 C2016 1.463 . S
C2013 C2018 1.350 . S
C2013 N2021 1.427 . S
C2014 H2005 0.930 . S
C2014 C2012 1.378 . S
C2014 C2015 1.367 . S
C2015 C2014 1.367 . S
C2015 C2017 1.433 . S
C2016 C2012 1.350 . S
C2016 C2013 1.463 . S
C2016 N2020 1.427 . S
C2017 H2007 0.929 . S
C2017 C2015 1.433 . S
C2017 N2020 1.384 . S
C2018 H2009 0.929 . S
C2018 C2010 1.378 . S
C2018 C2013 1.350 . S
C2019 H2006 0.929 . S
C2019 C2011 1.433 . S
C2019 N2021 1.384 . S
N2020 C2016 1.427 . S
N2020 C2017 1.384 . S
N2021 C2013 1.427 . S
N2021 C2019 1.384 . S
H2022 C2028 0.930 . S
H2023 C2032 0.930 . S
H2024 C2037 0.929 . S
H2025 C2035 0.929 . S
H2026 C2030 0.929 . S
H2027 C2036 0.929 . S
C2028 H2022 0.930 . S
C2028 C2029 1.367 . S
C2028 C2036 1.378 . S
C2029 C2028 1.367 . S
C2029 C2037 1.433 . S
C2030 H2026 0.929 . S
C2030 C2032 1.378 . S
C2030 C2034 1.350 . S
C2031 C2034 1.463 . S
C2031 C2036 1.350 . S
C2031 N2039 1.427 . S
C2032 H2023 0.930 . S
C2032 C2030 1.378 . S
C2032 C2033 1.367 . S
C2033 C2032 1.367 . S
C2033 C2035 1.433 . S
C2034 C2030 1.350 . S
C2034 C2031 1.463 . S
C2034 N2038 1.427 . S
C2035 H2025 0.929 . S
C2035 C2033 1.433 . S
C2035 N2038 1.384 . S
C2036 H2027 0.929 . S
C2036 C2028 1.378 . S
C2036 C2031 1.350 . S
C2037 H2024 0.929 . S
C2037 C2029 1.433 . S
C2037 N2039 1.384 . S
N2038 C2034 1.427 . S
N2038 C2035 1.384 . S
N2039 C2031 1.427 . S
N2039 C2037 1.384 . S
H2040 C2046 0.930 . S
H2041 C2050 0.930 . S
H2042 C2055 0.929 . S
H2043 C2053 0.929 . S
H2044 C2048 0.929 . S
H2045 C2054 0.929 . S
C2046 H2040 0.930 . S
C2046 C2047 1.367 . S
C2046 C2054 1.378 . S
C2047 C2046 1.367 . S
C2047 C2055 1.433 . S
C2048 H2044 0.929 . S
C2048 C2050 1.378 . S
C2048 C2052 1.350 1_655 S
C2049 C2052 1.463 . S
C2049 C2054 1.350 . S
C2049 N2057 1.427 . S
C2050 H2041 0.930 . S
C2050 C2048 1.378 . S
C2050 C2051 1.367 . S
C2051 C2050 1.367 . S
C2051 C2053 1.433 . S
C2052 C2048 1.350 1_455 S
C2052 C2049 1.463 . S
C2052 N2056 1.436 . S
C2053 H2043 0.929 . S
C2053 C2051 1.433 . S
C2053 N2056 1.357 1_655 S
C2054 H2045 0.929 . S
C2054 C2046 1.378 . S
C2054 C2049 1.350 . S
C2055 H2042 0.929 . S
C2055 C2047 1.433 . S
C2055 N2057 1.384 . S
N2056 C2052 1.436 . S
N2056 C2053 1.357 1_455 S
N2057 C2049 1.427 . S
N2057 C2055 1.384 . S
H2058 C2064 0.930 . S
H2059 C2068 0.930 . S
H2060 C2073 0.929 . S
H2061 C2071 0.929 . S
H2062 C2066 0.929 . S
H2063 C2072 0.929 1_545 S
C2064 H2058 0.930 . S
C2064 C2065 1.367 . S
C2064 C2072 1.378 . S
C2065 C2064 1.367 . S
C2065 C2073 1.433 . S
C2066 H2062 0.929 . S
C2066 C2068 1.378 . S
C2066 C2070 1.350 . S
C2067 C2070 1.463 . S
C2067 C2072 1.350 1_545 S
C2067 N2075 1.427 1_545 S
C2068 H2059 0.930 . S
C2068 C2066 1.378 . S
C2068 C2069 1.367 . S
C2069 C2068 1.367 . S
C2069 C2071 1.433 . S
C2070 C2066 1.350 . S
C2070 C2067 1.463 . S
C2070 N2074 1.427 . S
C2071 H2061 0.929 . S
C2071 C2069 1.433 . S
C2071 N2074 1.384 . S
C2072 H2063 0.929 1_565 S
C2072 C2064 1.378 . S
C2072 C2067 1.350 1_565 S
C2073 H2060 0.929 . S
C2073 C2065 1.433 . S
C2073 N2075 1.384 . S
N2074 C2070 1.427 . S
N2074 C2071 1.384 . S
N2075 C2067 1.427 1_565 S
N2075 C2073 1.384 . S
H2076 C2082 0.930 . S
H2077 C2086 0.930 . S
H2078 C2091 0.929 . S
H2079 C2089 0.929 . S
H2080 C2084 0.929 . S
H2081 C2090 0.929 . S
C2082 H2076 0.930 . S
C2082 C2083 1.367 . S
C2082 C2090 1.378 . S
C2083 C2082 1.367 . S
C2083 C2091 1.433 . S
C2084 H2080 0.929 . S
C2084 C2086 1.378 . S
C2084 C2088 1.350 . S
C2085 C2088 1.463 . S
C2085 C2090 1.350 . S
C2085 N2093 1.427 . S
C2086 H2077 0.930 . S
C2086 C2084 1.378 . S
C2086 C2087 1.367 . S
C2087 C2086 1.367 . S
C2087 C2089 1.433 . S
C2088 C2084 1.350 . S
C2088 C2085 1.463 . S
C2088 N2092 1.427 . S
C2089 H2079 0.929 . S
C2089 C2087 1.433 . S
C2089 N2092 1.384 . S
C2090 H2081 0.929 . S
C2090 C2082 1.378 . S
C2090 C2085 1.350 . S
C2091 H2078 0.929 . S
C2091 C2083 1.433 . S
C2091 N2093 1.384 . S
N2092 C2088 1.427 . S
N2092 C2089 1.384 . S
N2093 C2085 1.427 . S
N2093 C2091 1.384 . S
H2094 C2100 0.930 . S
H2095 C2104 0.930 . S
H2096 C2109 0.929 . S
H2097 C2107 0.929 . S
H2098 C2102 0.929 . S
H2099 C2108 0.929 . S
C2100 H2094 0.930 . S
C2100 C2101 1.367 . S
C2100 C2108 1.378 . S
C2101 C2100 1.367 . S
C2101 C2109 1.433 . S
C2102 H2098 0.929 . S
C2102 C2104 1.378 . S
C2102 C2106 1.350 . S
C2103 C2106 1.463 . S
C2103 C2108 1.350 . S
C2103 N2111 1.427 . S
C2104 H2095 0.930 . S
C2104 C2102 1.378 . S
C2104 C2105 1.367 . S
C2105 C2104 1.367 . S
C2105 C2107 1.433 . S
C2106 C2102 1.350 . S
C2106 C2103 1.463 . S
C2106 N2110 1.427 . S
C2107 H2097 0.929 . S
C2107 C2105 1.433 . S
C2107 N2110 1.384 . S
C2108 H2099 0.929 . S
C2108 C2100 1.378 . S
C2108 C2103 1.350 . S
C2109 H2096 0.929 . S
C2109 C2101 1.433 . S
C2109 N2111 1.384 . S
N2110 C2106 1.427 . S
N2110 C2107 1.384 . S
N2111 C2103 1.427 . S
N2111 C2109 1.384 . S
H2112 C2118 0.930 . S
H2113 C2122 0.930 . S
H2114 C2127 0.929 . S
H2115 C2125 0.929 . S
H2116 C2120 0.929 . S
H2117 C2126 0.939 . S
C2118 H2112 0.930 . S
C2118 C2119 1.367 . S
C2118 C2126 1.378 . S
C2119 C2118 1.367 . S
C2119 C2127 1.433 . S
C2120 H2116 0.929 . S
C2120 C2122 1.378 . S
C2120 C2124 1.350 . S
C2121 C2124 1.463 . S
C2121 C2126 1.350 1_545 S
C2121 N2129 1.428 . S
C2122 H2113 0.930 . S
C2122 C2120 1.378 . S
C2122 C2123 1.367 . S
C2123 C2122 1.367 . S
C2123 C2125 1.433 . S
C2124 C2120 1.350 . S
C2124 C2121 1.463 . S
C2124 N2128 1.427 . S
C2125 H2115 0.929 . S
C2125 C2123 1.433 . S
C2125 N2128 1.384 . S
C2126 H2117 0.939 . S
C2126 C2118 1.378 . S
C2126 C2121 1.350 1_565 S
C2127 H2114 0.929 . S
C2127 C2119 1.433 . S
C2127 N2129 1.380 1_565 S
N2128 C2124 1.427 . S
N2128 C2125 1.384 . S
N2129 C2121 1.428 . S
N2129 C2127 1.380 1_545 S
H2130 C2136 0.930 . S
H2131 C2140 0.930 . S
H2132 C2145 0.929 . S
H2133 C2143 0.929 . S
H2134 C2138 0.929 . S
H2135 C2144 0.929 . S
C2136 H2130 0.930 . S
C2136 C2137 1.367 . S
C2136 C2144 1.378 . S
C2137 C2136 1.367 . S
C2137 C2145 1.433 . S
C2138 H2134 0.929 . S
C2138 C2140 1.378 . S
C2138 C2142 1.350 . S
C2139 C2142 1.463 . S
C2139 C2144 1.350 . S
C2139 N2147 1.427 . S
C2140 H2131 0.930 . S
C2140 C2138 1.378 . S
C2140 C2141 1.367 . S
C2141 C2140 1.367 . S
C2141 C2143 1.433 . S
C2142 C2138 1.350 . S
C2142 C2139 1.463 . S
C2142 N2146 1.427 . S
C2143 H2133 0.929 . S
C2143 C2141 1.433 . S
C2143 N2146 1.384 . S
C2144 H2135 0.929 . S
C2144 C2136 1.378 . S
C2144 C2139 1.350 . S
C2145 H2132 0.929 . S
C2145 C2137 1.433 . S
C2145 N2147 1.384 . S
N2146 C2142 1.427 . S
N2146 C2143 1.384 . S
N2147 C2139 1.427 . S
N2147 C2145 1.384 . S
H2148 C2154 0.930 . S
H2149 C2158 0.930 . S
H2150 C2163 0.929 . S
H2151 C2161 0.929 . S
H2152 C2156 0.927 . S
H2153 C2162 0.929 . S
C2154 H2148 0.930 . S
C2154 C2155 1.367 . S
C2154 C2162 1.378 . S
C2155 C2154 1.367 . S
C2155 C2163 1.433 . S
C2156 H2152 0.927 . S
C2156 C2158 1.380 1_455 S
C2156 C2160 1.349 . S
C2157 C2160 1.463 . S
C2157 C2162 1.350 . S
C2157 N2165 1.427 . S
C2158 H2149 0.930 . S
C2158 C2156 1.380 1_655 S
C2158 C2159 1.367 . S
C2159 C2158 1.367 . S
C2159 C2161 1.433 . S
C2160 C2156 1.349 . S
C2160 C2157 1.463 . S
C2160 N2164 1.427 1_455 S
C2161 H2151 0.929 . S
C2161 C2159 1.433 . S
C2161 N2164 1.384 . S
C2162 H2153 0.929 . S
C2162 C2154 1.378 . S
C2162 C2157 1.350 . S
C2163 H2150 0.929 . S
C2163 C2155 1.433 . S
C2163 N2165 1.384 . S
N2164 C2160 1.427 1_655 S
N2164 C2161 1.384 . S
N2165 C2157 1.427 . S
N2165 C2163 1.384 . S
H2166 C2172 0.930 . S
H2167 C2176 0.930 . S
H2168 C2181 0.929 . S
H2169 C2179 0.929 . S
H2170 C2174 0.929 1_545 S
H2171 C2180 0.929 . S
C2172 H2166 0.930 . S
C2172 C2173 1.367 . S
C2172 C2180 1.378 . S
C2173 C2172 1.367 . S
C2173 C2181 1.433 . S
C2174 H2170 0.929 1_565 S
C2174 C2176 1.378 . S
C2174 C2178 1.350 1_565 S
C2175 C2178 1.463 . S
C2175 C2180 1.350 . S
C2175 N2183 1.427 . S
C2176 H2167 0.930 . S
C2176 C2174 1.378 . S
C2176 C2177 1.367 . S
C2177 C2176 1.367 . S
C2177 C2179 1.433 . S
C2178 C2174 1.350 1_545 S
C2178 C2175 1.463 . S
C2178 N2182 1.427 1_545 S
C2179 H2169 0.929 . S
C2179 C2177 1.433 . S
C2179 N2182 1.384 . S
C2180 H2171 0.929 . S
C2180 C2172 1.378 . S
C2180 C2175 1.350 . S
C2181 H2168 0.929 . S
C2181 C2173 1.433 . S
C2181 N2183 1.384 . S
N2182 C2178 1.427 1_565 S
N2182 C2179 1.384 . S
N2183 C2175 1.427 . S
N2183 C2181 1.384 . S
H2184 C2190 0.930 . S
H2185 C2194 0.930 . S
H2186 C2199 0.929 . S
H2187 C2197 0.929 . S
H2188 C2192 0.929 . S
H2189 C2198 0.929 . S
C2190 H2184 0.930 . S
C2190 C2191 1.367 . S
C2190 C2198 1.378 . S
C2191 C2190 1.367 . S
C2191 C2199 1.433 . S
C2192 H2188 0.929 . S
C2192 C2194 1.378 . S
C2192 C2196 1.350 . S
C2193 C2196 1.463 . S
C2193 C2198 1.350 . S
C2193 N2201 1.427 . S
C2194 H2185 0.930 . S
C2194 C2192 1.378 . S
C2194 C2195 1.367 . S
C2195 C2194 1.367 . S
C2195 C2197 1.433 . S
C2196 C2192 1.350 . S
C2196 C2193 1.463 . S
C2196 N2200 1.427 . S
C2197 H2187 0.929 . S
C2197 C2195 1.433 . S
C2197 N2200 1.384 . S
C2198 H2189 0.929 . S
C2198 C2190 1.378 . S
C2198 C2193 1.350 . S
C2199 H2186 0.929 . S
C2199 C2191 1.433 . S
C2199 N2201 1.384 . S
N2200 C2196 1.427 . S
N2200 C2197 1.384 . S
N2201 C2193 1.427 . S
N2201 C2199 1.384 . S
H2202 C2208 0.930 . S
H2203 C2212 0.930 . S
H2204 C2217 0.929 . S
H2205 C2215 0.929 . S
H2206 C2210 0.929 . S
H2207 C2216 0.929 . S
C2208 H2202 0.930 . S
C2208 C2209 1.367 . S
C2208 C2216 1.378 . S
C2209 C2208 1.367 . S
C2209 C2217 1.433 . S
C2210 H2206 0.929 . S
C2210 C2212 1.378 . S
C2210 C2214 1.350 . S
C2211 C2214 1.463 . S
C2211 C2216 1.350 . S
C2211 N2219 1.427 . S
C2212 H2203 0.930 . S
C2212 C2210 1.378 . S
C2212 C2213 1.367 . S
C2213 C2212 1.367 . S
C2213 C2215 1.433 . S
C2214 C2210 1.350 . S
C2214 C2211 1.463 . S
C2214 N2218 1.427 . S
C2215 H2205 0.929 . S
C2215 C2213 1.433 . S
C2215 N2218 1.384 . S
C2216 H2207 0.929 . S
C2216 C2208 1.378 . S
C2216 C2211 1.350 . S
C2217 H2204 0.929 . S
C2217 C2209 1.433 . S
C2217 N2219 1.384 . S
N2218 C2214 1.427 . S
N2218 C2215 1.384 . S
N2219 C2211 1.427 . S
N2219 C2217 1.384 . S
H2220 C2226 0.930 . S
H2221 C2230 0.930 . S
H2222 C2235 0.929 . S
H2223 C2233 0.929 . S
H2224 C2228 0.917 1_455 S
H2225 C2234 0.929 . S
C2226 H2220 0.930 . S
C2226 C2227 1.367 . S
C2226 C2234 1.378 . S
C2227 C2226 1.367 . S
C2227 C2235 1.433 . S
C2228 H2224 0.917 1_655 S
C2228 C2230 1.378 . S
C2228 C2232 1.350 1_655 S
C2229 C2232 1.463 . S
C2229 C2234 1.350 . S
C2229 N2237 1.427 . S
C2230 H2221 0.930 . S
C2230 C2228 1.378 . S
C2230 C2231 1.367 . S
C2231 C2230 1.367 . S
C2231 C2233 1.433 . S
C2232 C2228 1.350 1_455 S
C2232 C2229 1.463 . S
C2232 N2236 1.419 1_455 S
C2233 H2223 0.929 . S
C2233 C2231 1.433 . S
C2233 N2236 1.408 . S
C2234 H2225 0.929 . S
C2234 C2226 1.378 . S
C2234 C2229 1.350 . S
C2235 H2222 0.929 . S
C2235 C2227 1.433 . S
C2235 N2237 1.384 . S
N2236 C2232 1.419 1_655 S
N2236 C2233 1.408 . S
N2237 C2229 1.427 . S
N2237 C2235 1.384 . S
H2238 C2244 0.930 . S
H2239 C2248 0.930 . S
H2240 C2253 0.929 . S
H2241 C2251 0.929 . S
H2242 C2246 0.929 . S
H2243 C2252 0.929 . S
C2244 H2238 0.930 . S
C2244 C2245 1.367 . S
C2244 C2252 1.378 . S
C2245 C2244 1.367 . S
C2245 C2253 1.433 . S
C2246 H2242 0.929 . S
C2246 C2248 1.378 . S
C2246 C2250 1.350 . S
C2247 C2250 1.463 . S
C2247 C2252 1.350 . S
C2247 N2255 1.427 . S
C2248 H2239 0.930 . S
C2248 C2246 1.378 . S
C2248 C2249 1.367 . S
C2249 C2248 1.367 . S
C2249 C2251 1.433 . S
C2250 C2246 1.350 . S
C2250 C2247 1.463 . S
C2250 N2254 1.427 . S
C2251 H2241 0.929 . S
C2251 C2249 1.433 . S
C2251 N2254 1.384 . S
C2252 H2243 0.929 . S
C2252 C2244 1.378 . S
C2252 C2247 1.350 . S
C2253 H2240 0.929 . S
C2253 C2245 1.433 . S
C2253 N2255 1.384 . S
N2254 C2250 1.427 . S
N2254 C2251 1.384 . S
N2255 C2247 1.427 . S
N2255 C2253 1.384 . S
H2256 C2262 0.930 . S
H2257 C2266 0.930 . S
H2258 C2271 0.929 . S
H2259 C2269 0.929 . S
H2260 C2264 0.929 . S
H2261 C2270 0.950 . S
C2262 H2256 0.930 . S
C2262 C2263 1.367 . S
C2262 C2270 1.378 . S
C2263 C2262 1.367 . S
C2263 C2271 1.433 . S
C2264 H2260 0.929 . S
C2264 C2266 1.378 . S
C2264 C2268 1.350 . S
C2265 C2268 1.463 . S
C2265 C2270 1.350 1_556 S
C2265 N2273 1.434 . S
C2266 H2257 0.930 . S
C2266 C2264 1.378 . S
C2266 C2267 1.367 . S
C2267 C2266 1.367 . S
C2267 C2269 1.433 . S
C2268 C2264 1.350 . S
C2268 C2265 1.463 . S
C2268 N2272 1.427 . S
C2269 H2259 0.929 . S
C2269 C2267 1.433 . S
C2269 N2272 1.384 . S
C2270 H2261 0.950 . S
C2270 C2262 1.378 . S
C2270 C2265 1.350 1_554 S
C2271 H2258 0.929 . S
C2271 C2263 1.433 . S
C2271 N2273 1.363 1_554 S
N2272 C2268 1.427 . S
N2272 C2269 1.384 . S
N2273 C2265 1.434 . S
N2273 C2271 1.363 1_556 S
H2274 C2280 0.930 . S
H2275 C2284 0.930 . S
H2276 C2289 0.929 . S
H2277 C2287 0.929 . S
H2278 C2282 0.929 . S
H2279 C2288 0.919 1_556 S
C2280 H2274 0.930 . S
C2280 C2281 1.367 . S
C2280 C2288 1.393 . S
C2281 C2280 1.367 . S
C2281 C2289 1.433 . S
C2282 H2278 0.929 . S
C2282 C2284 1.378 . S
C2282 C2286 1.350 . S
C2283 C2286 1.463 . S
C2283 C2288 1.344 1_556 S
C2283 N2291 1.427 1_556 S
C2284 H2275 0.930 . S
C2284 C2282 1.378 . S
C2284 C2285 1.367 . S
C2285 C2284 1.367 . S
C2285 C2287 1.433 . S
C2286 C2282 1.350 . S
C2286 C2283 1.463 . S
C2286 N2290 1.427 . S
C2287 H2277 0.929 . S
C2287 C2285 1.433 . S
C2287 N2290 1.384 . S
C2288 H2279 0.919 1_554 S
C2288 C2280 1.393 . S
C2288 C2283 1.344 1_554 S
C2289 H2276 0.929 . S
C2289 C2281 1.433 . S
C2289 N2291 1.384 . S
N2290 C2286 1.427 . S
N2290 C2287 1.384 . S
N2291 C2283 1.427 1_554 S
N2291 C2289 1.384 . S
H2292 C2298 0.930 . S
H2293 C2302 0.930 . S
H2294 C2307 0.929 . S
H2295 C2305 0.929 . S
H2296 C2300 0.929 . S
H2297 C2306 0.950 . S
C2298 H2292 0.930 . S
C2298 C2299 1.367 . S
C2298 C2306 1.378 . S
C2299 C2298 1.367 . S
C2299 C2307 1.433 . S
C2300 H2296 0.929 . S
C2300 C2302 1.378 . S
C2300 C2304 1.350 . S
C2301 C2304 1.463 . S
C2301 C2306 1.350 1_556 S
C2301 N2309 1.434 . S
C2302 H2293 0.930 . S
C2302 C2300 1.378 . S
C2302 C2303 1.367 . S
C2303 C2302 1.367 . S
C2303 C2305 1.433 . S
C2304 C2300 1.350 . S
C2304 C2301 1.463 . S
C2304 N2308 1.427 . S
C2305 H2295 0.929 . S
C2305 C2303 1.433 . S
C2305 N2308 1.384 . S
C2306 H2297 0.950 . S
C2306 C2298 1.378 . S
C2306 C2301 1.350 1_554 S
C2307 H2294 0.929 . S
C2307 C2299 1.433 . S
C2307 N2309 1.361 1_554 S
N2308 C2304 1.427 . S
N2308 C2305 1.384 . S
N2309 C2301 1.434 . S
N2309 C2307 1.361 1_556 S
H2310 C2316 0.930 . S
H2311 C2320 0.930 . S
H2312 C2325 0.929 . S
H2313 C2323 0.929 . S
H2314 C2318 0.929 . S
H2315 C2324 0.929 . S
C2316 H2310 0.930 . S
C2316 C2317 1.367 . S
C2316 C2324 1.378 . S
C2317 C2316 1.367 . S
C2317 C2325 1.433 . S
C2318 H2314 0.929 . S
C2318 C2320 1.378 . S
C2318 C2322 1.350 1_554 S
C2319 C2322 1.463 . S
C2319 C2324 1.350 . S
C2319 N2327 1.427 . S
C2320 H2311 0.930 . S
C2320 C2318 1.378 . S
C2320 C2321 1.367 . S
C2321 C2320 1.367 . S
C2321 C2323 1.433 . S
C2322 C2318 1.350 1_556 S
C2322 C2319 1.463 . S
C2322 N2326 1.427 . S
C2323 H2313 0.929 . S
C2323 C2321 1.433 . S
C2323 N2326 1.384 1_554 S
C2324 H2315 0.929 . S
C2324 C2316 1.378 . S
C2324 C2319 1.350 . S
C2325 H2312 0.929 . S
C2325 C2317 1.433 . S
C2325 N2327 1.384 . S
N2326 C2322 1.427 . S
N2326 C2323 1.384 1_556 S
N2327 C2319 1.427 . S
N2327 C2325 1.384 . S
H2328 C2334 0.930 . S
H2329 C2338 0.930 . S
H2330 C2343 0.929 . S
H2331 C2341 0.929 . S
H2332 C2336 0.929 . S
H2333 C2342 0.929 . S
C2334 H2328 0.930 . S
C2334 C2335 1.367 . S
C2334 C2342 1.378 . S
C2335 C2334 1.367 . S
C2335 C2343 1.433 . S
C2336 H2332 0.929 . S
C2336 C2338 1.378 . S
C2336 C2340 1.350 . S
C2337 C2340 1.463 . S
C2337 C2342 1.350 . S
C2337 N2345 1.427 . S
C2338 H2329 0.930 . S
C2338 C2336 1.378 . S
C2338 C2339 1.367 . S
C2339 C2338 1.367 . S
C2339 C2341 1.433 . S
C2340 C2336 1.350 . S
C2340 C2337 1.463 . S
C2340 N2344 1.427 . S
C2341 H2331 0.929 . S
C2341 C2339 1.433 . S
C2341 N2344 1.384 . S
C2342 H2333 0.929 . S
C2342 C2334 1.378 . S
C2342 C2337 1.350 . S
C2343 H2330 0.929 . S
C2343 C2335 1.433 . S
C2343 N2345 1.384 . S
N2344 C2340 1.427 . S
N2344 C2341 1.384 . S
N2345 C2337 1.427 . S
N2345 C2343 1.384 . S
H2346 C2352 0.930 . S
H2347 C2356 0.930 . S
H2348 C2361 0.929 . S
H2349 C2359 0.929 . S
H2350 C2354 0.929 . S
H2351 C2360 0.929 . S
C2352 H2346 0.930 . S
C2352 C2353 1.367 . S
C2352 C2360 1.378 . S
C2353 C2352 1.367 . S
C2353 C2361 1.433 . S
C2354 H2350 0.929 . S
C2354 C2356 1.378 . S
C2354 C2358 1.350 . S
C2355 C2358 1.463 . S
C2355 C2360 1.350 . S
C2355 N2363 1.427 . S
C2356 H2347 0.930 . S
C2356 C2354 1.378 . S
C2356 C2357 1.367 . S
C2357 C2356 1.367 . S
C2357 C2359 1.433 . S
C2358 C2354 1.350 . S
C2358 C2355 1.463 . S
C2358 N2362 1.427 . S
C2359 H2349 0.929 . S
C2359 C2357 1.433 . S
C2359 N2362 1.384 . S
C2360 H2351 0.929 . S
C2360 C2352 1.378 . S
C2360 C2355 1.350 . S
C2361 H2348 0.929 . S
C2361 C2353 1.433 . S
C2361 N2363 1.384 . S
N2362 C2358 1.427 . S
N2362 C2359 1.384 . S
N2363 C2355 1.427 . S
N2363 C2361 1.384 . S
H2364 C2370 0.930 . S
H2365 C2374 0.930 . S
H2366 C2379 0.929 . S
H2367 C2377 0.929 . S
H2368 C2372 0.929 . S
H2369 C2378 0.929 . S
C2370 H2364 0.930 . S
C2370 C2371 1.367 . S
C2370 C2378 1.378 . S
C2371 C2370 1.367 . S
C2371 C2379 1.433 . S
C2372 H2368 0.929 . S
C2372 C2374 1.378 . S
C2372 C2376 1.350 . S
C2373 C2376 1.463 . S
C2373 C2378 1.350 . S
C2373 N2381 1.427 . S
C2374 H2365 0.930 . S
C2374 C2372 1.378 . S
C2374 C2375 1.367 . S
C2375 C2374 1.367 . S
C2375 C2377 1.433 . S
C2376 C2372 1.350 . S
C2376 C2373 1.463 . S
C2376 N2380 1.427 . S
C2377 H2367 0.929 . S
C2377 C2375 1.433 . S
C2377 N2380 1.384 . S
C2378 H2369 0.929 . S
C2378 C2370 1.378 . S
C2378 C2373 1.350 . S
C2379 H2366 0.929 . S
C2379 C2371 1.433 . S
C2379 N2381 1.384 . S
N2380 C2376 1.427 . S
N2380 C2377 1.384 . S
N2381 C2373 1.427 . S
N2381 C2379 1.384 . S
H2382 C2388 0.930 . S
H2383 C2392 0.930 . S
H2384 C2397 0.929 . S
H2385 C2395 0.929 . S
H2386 C2390 0.929 . S
H2387 C2396 0.929 . S
C2388 H2382 0.930 . S
C2388 C2389 1.367 . S
C2388 C2396 1.378 . S
C2389 C2388 1.367 . S
C2389 C2397 1.433 . S
C2390 H2386 0.929 . S
C2390 C2392 1.378 . S
C2390 C2394 1.350 . S
C2391 C2394 1.463 . S
C2391 C2396 1.350 . S
C2391 N2399 1.427 . S
C2392 H2383 0.930 . S
C2392 C2390 1.378 . S
C2392 C2393 1.367 . S
C2393 C2392 1.367 . S
C2393 C2395 1.433 . S
C2394 C2390 1.350 . S
C2394 C2391 1.463 . S
C2394 N2398 1.427 . S
C2395 H2385 0.929 . S
C2395 C2393 1.433 . S
C2395 N2398 1.384 . S
C2396 H2387 0.929 . S
C2396 C2388 1.378 . S
C2396 C2391 1.350 . S
C2397 H2384 0.929 . S
C2397 C2389 1.433 . S
C2397 N2399 1.384 . S
N2398 C2394 1.427 . S
N2398 C2395 1.384 . S
N2399 C2391 1.427 . S
N2399 C2397 1.384 . S
H2400 C2406 0.930 . S
H2401 C2410 0.930 . S
H2402 C2415 0.929 . S
H2403 C2413 0.929 . S
H2404 C2408 0.929 . S
H2405 C2414 0.929 . S
C2406 H2400 0.930 . S
C2406 C2407 1.367 . S
C2406 C2414 1.378 . S
C2407 C2406 1.367 . S
C2407 C2415 1.433 . S
C2408 H2404 0.929 . S
C2408 C2410 1.378 . S
C2408 C2412 1.350 1_455 S
C2409 C2412 1.463 . S
C2409 C2414 1.350 . S
C2409 N2417 1.427 . S
C2410 H2401 0.930 . S
C2410 C2408 1.378 . S
C2410 C2411 1.367 . S
C2411 C2410 1.367 . S
C2411 C2413 1.433 . S
C2412 C2408 1.350 1_655 S
C2412 C2409 1.463 . S
C2412 N2416 1.438 . S
C2413 H2403 0.929 . S
C2413 C2411 1.433 . S
C2413 N2416 1.349 1_455 S
C2414 H2405 0.929 . S
C2414 C2406 1.378 . S
C2414 C2409 1.350 . S
C2415 H2402 0.929 . S
C2415 C2407 1.433 . S
C2415 N2417 1.384 . S
N2416 C2412 1.438 . S
N2416 C2413 1.349 1_655 S
N2417 C2409 1.427 . S
N2417 C2415 1.384 . S
H2418 C2424 0.930 . S
H2419 C2428 0.930 . S
H2420 C2433 0.929 . S
H2421 C2431 0.929 . S
H2422 C2426 0.929 . S
H2423 C2432 0.914 1_565 S
C2424 H2418 0.930 . S
C2424 C2425 1.367 . S
C2424 C2432 1.403 . S
C2425 C2424 1.367 . S
C2425 C2433 1.433 . S
C2426 H2422 0.929 . S
C2426 C2428 1.378 . S
C2426 C2430 1.350 . S
C2427 C2430 1.463 . S
C2427 C2432 1.341 1_565 S
C2427 N2435 1.427 1_565 S
C2428 H2419 0.930 . S
C2428 C2426 1.378 . S
C2428 C2429 1.367 . S
C2429 C2428 1.367 . S
C2429 C2431 1.433 . S
C2430 C2426 1.350 . S
C2430 C2427 1.463 . S
C2430 N2434 1.427 . S
C2431 H2421 0.929 . S
C2431 C2429 1.433 . S
C2431 N2434 1.384 . S
C2432 H2423 0.914 1_545 S
C2432 C2424 1.403 . S
C2432 C2427 1.341 1_545 S
C2433 H2420 0.929 . S
C2433 C2425 1.433 . S
C2433 N2435 1.384 . S
N2434 C2430 1.427 . S
N2434 C2431 1.384 . S
N2435 C2427 1.427 1_545 S
N2435 C2433 1.384 . S
H2436 C2442 0.930 . S
H2437 C2446 0.930 . S
H2438 C2451 0.929 . S
H2439 C2449 0.929 . S
H2440 C2444 0.929 . S
H2441 C2450 0.929 . S
C2442 H2436 0.930 . S
C2442 C2443 1.367 . S
C2442 C2450 1.378 . S
C2443 C2442 1.367 . S
C2443 C2451 1.433 . S
C2444 H2440 0.929 . S
C2444 C2446 1.378 . S
C2444 C2448 1.350 . S
C2445 C2448 1.463 . S
C2445 C2450 1.350 . S
C2445 N2453 1.427 . S
C2446 H2437 0.930 . S
C2446 C2444 1.378 . S
C2446 C2447 1.367 . S
C2447 C2446 1.367 . S
C2447 C2449 1.433 . S
C2448 C2444 1.350 . S
C2448 C2445 1.463 . S
C2448 N2452 1.427 . S
C2449 H2439 0.929 . S
C2449 C2447 1.433 . S
C2449 N2452 1.384 . S
C2450 H2441 0.929 . S
C2450 C2442 1.378 . S
C2450 C2445 1.350 . S
C2451 H2438 0.929 . S
C2451 C2443 1.433 . S
C2451 N2453 1.384 . S
N2452 C2448 1.427 . S
N2452 C2449 1.384 . S
N2453 C2445 1.427 . S
N2453 C2451 1.384 . S
H2454 C2460 0.930 . S
H2455 C2464 0.930 . S
H2456 C2469 0.929 . S
H2457 C2467 0.929 . S
H2458 C2462 0.929 . S
H2459 C2468 0.929 . S
C2460 H2454 0.930 . S
C2460 C2461 1.367 . S
C2460 C2468 1.378 . S
C2461 C2460 1.367 . S
C2461 C2469 1.433 . S
C2462 H2458 0.929 . S
C2462 C2464 1.378 . S
C2462 C2466 1.350 . S
C2463 C2466 1.463 . S
C2463 C2468 1.350 . S
C2463 N2471 1.427 . S
C2464 H2455 0.930 . S
C2464 C2462 1.378 . S
C2464 C2465 1.367 . S
C2465 C2464 1.367 . S
C2465 C2467 1.433 . S
C2466 C2462 1.350 . S
C2466 C2463 1.463 . S
C2466 N2470 1.427 . S
C2467 H2457 0.929 . S
C2467 C2465 1.433 . S
C2467 N2470 1.384 . S
C2468 H2459 0.929 . S
C2468 C2460 1.378 . S
C2468 C2463 1.350 . S
C2469 H2456 0.929 . S
C2469 C2461 1.433 . S
C2469 N2471 1.384 . S
N2470 C2466 1.427 . S
N2470 C2467 1.384 . S
N2471 C2463 1.427 . S
N2471 C2469 1.384 . S
H2472 C2478 0.930 . S
H2473 C2482 0.930 . S
H2474 C2487 0.929 . S
H2475 C2485 0.929 . S
H2476 C2480 0.929 . S
H2477 C2486 0.929 . S
C2478 H2472 0.930 . S
C2478 C2479 1.367 . S
C2478 C2486 1.378 . S
C2479 C2478 1.367 . S
C2479 C2487 1.433 . S
C2480 H2476 0.929 . S
C2480 C2482 1.378 . S
C2480 C2484 1.350 . S
C2481 C2484 1.463 . S
C2481 C2486 1.350 1_655 S
C2481 N2489 1.445 . S
C2482 H2473 0.930 . S
C2482 C2480 1.378 . S
C2482 C2483 1.367 . S
C2483 C2482 1.367 . S
C2483 C2485 1.433 . S
C2484 C2480 1.350 . S
C2484 C2481 1.463 . S
C2484 N2488 1.427 . S
C2485 H2475 0.929 . S
C2485 C2483 1.433 . S
C2485 N2488 1.384 . S
C2486 H2477 0.929 . S
C2486 C2478 1.378 . S
C2486 C2481 1.350 1_455 S
C2487 H2474 0.929 . S
C2487 C2479 1.433 . S
C2487 N2489 1.325 1_455 S
N2488 C2484 1.427 . S
N2488 C2485 1.384 . S
N2489 C2481 1.445 . S
N2489 C2487 1.325 1_655 S
H2490 C2496 0.930 . S
H2491 C2500 0.930 . S
H2492 C2505 0.929 . S
H2493 C2503 0.929 . S
H2494 C2498 0.929 1_565 S
H2495 C2504 0.929 . S
C2496 H2490 0.930 . S
C2496 C2497 1.367 . S
C2496 C2504 1.378 . S
C2497 C2496 1.367 . S
C2497 C2505 1.433 . S
C2498 H2494 0.929 1_545 S
C2498 C2500 1.378 . S
C2498 C2502 1.350 1_545 S
C2499 C2502 1.463 . S
C2499 C2504 1.350 . S
C2499 N2507 1.427 . S
C2500 H2491 0.930 . S
C2500 C2498 1.378 . S
C2500 C2501 1.367 . S
C2501 C2500 1.367 . S
C2501 C2503 1.433 . S
C2502 C2498 1.350 1_565 S
C2502 C2499 1.463 . S
C2502 N2506 1.427 1_565 S
C2503 H2493 0.929 . S
C2503 C2501 1.433 . S
C2503 N2506 1.384 . S
C2504 H2495 0.929 . S
C2504 C2496 1.378 . S
C2504 C2499 1.350 . S
C2505 H2492 0.929 . S
C2505 C2497 1.433 . S
C2505 N2507 1.384 . S
N2506 C2502 1.427 1_545 S
N2506 C2503 1.384 . S
N2507 C2499 1.427 . S
N2507 C2505 1.384 . S
H2508 C2514 0.930 . S
H2509 C2518 0.930 . S
H2510 C2523 0.929 . S
H2511 C2521 0.929 . S
H2512 C2516 0.929 . S
H2513 C2522 0.929 . S
C2514 H2508 0.930 . S
C2514 C2515 1.367 . S
C2514 C2522 1.378 . S
C2515 C2514 1.367 . S
C2515 C2523 1.433 . S
C2516 H2512 0.929 . S
C2516 C2518 1.378 . S
C2516 C2520 1.350 . S
C2517 C2520 1.463 . S
C2517 C2522 1.350 . S
C2517 N2525 1.427 . S
C2518 H2509 0.930 . S
C2518 C2516 1.378 . S
C2518 C2519 1.367 . S
C2519 C2518 1.367 . S
C2519 C2521 1.433 . S
C2520 C2516 1.350 . S
C2520 C2517 1.463 . S
C2520 N2524 1.427 . S
C2521 H2511 0.929 . S
C2521 C2519 1.433 . S
C2521 N2524 1.384 . S
C2522 H2513 0.929 . S
C2522 C2514 1.378 . S
C2522 C2517 1.350 . S
C2523 H2510 0.929 . S
C2523 C2515 1.433 . S
C2523 N2525 1.384 . S
N2524 C2520 1.427 . S
N2524 C2521 1.384 . S
N2525 C2517 1.427 . S
N2525 C2523 1.384 . S
H2526 C2532 0.930 . S
H2527 C2536 0.930 . S
H2528 C2541 0.929 . S
H2529 C2539 0.929 . S
H2530 C2534 0.929 . S
H2531 C2540 0.929 . S
C2532 H2526 0.930 . S
C2532 C2533 1.367 . S
C2532 C2540 1.378 . S
C2533 C2532 1.367 . S
C2533 C2541 1.433 . S
C2534 H2530 0.929 . S
C2534 C2536 1.378 . S
C2534 C2538 1.350 . S
C2535 C2538 1.463 . S
C2535 C2540 1.350 . S
C2535 N2543 1.427 . S
C2536 H2527 0.930 . S
C2536 C2534 1.378 . S
C2536 C2537 1.367 . S
C2537 C2536 1.367 . S
C2537 C2539 1.433 . S
C2538 C2534 1.350 . S
C2538 C2535 1.463 . S
C2538 N2542 1.427 . S
C2539 H2529 0.929 . S
C2539 C2537 1.433 . S
C2539 N2542 1.384 . S
C2540 H2531 0.929 . S
C2540 C2532 1.378 . S
C2540 C2535 1.350 . S
C2541 H2528 0.929 . S
C2541 C2533 1.433 . S
C2541 N2543 1.384 . S
N2542 C2538 1.427 . S
N2542 C2539 1.384 . S
N2543 C2535 1.427 . S
N2543 C2541 1.384 . S
H2544 C2550 0.930 . S
H2545 C2554 0.930 . S
H2546 C2559 0.929 . S
H2547 C2557 0.929 . S
H2548 C2552 0.929 1_565 S
H2549 C2558 0.929 . S
C2550 H2544 0.930 . S
C2550 C2551 1.367 . S
C2550 C2558 1.378 . S
C2551 C2550 1.367 . S
C2551 C2559 1.433 . S
C2552 H2548 0.929 1_545 S
C2552 C2554 1.378 . S
C2552 C2556 1.350 1_545 S
C2553 C2556 1.463 . S
C2553 C2558 1.350 . S
C2553 N2561 1.427 . S
C2554 H2545 0.930 . S
C2554 C2552 1.378 . S
C2554 C2555 1.367 . S
C2555 C2554 1.367 . S
C2555 C2557 1.433 . S
C2556 C2552 1.350 1_565 S
C2556 C2553 1.463 . S
C2556 N2560 1.427 1_565 S
C2557 H2547 0.929 . S
C2557 C2555 1.433 . S
C2557 N2560 1.384 . S
C2558 H2549 0.929 . S
C2558 C2550 1.378 . S
C2558 C2553 1.350 . S
C2559 H2546 0.929 . S
C2559 C2551 1.433 . S
C2559 N2561 1.384 . S
N2560 C2556 1.427 1_545 S
N2560 C2557 1.384 . S
N2561 C2553 1.427 . S
N2561 C2559 1.384 . S
H2562 C2568 0.930 . S
H2563 C2572 0.930 . S
H2564 C2577 0.929 . S
H2565 C2575 0.929 . S
H2566 C2570 0.929 . S
H2567 C2576 0.929 . S
C2568 H2562 0.930 . S
C2568 C2569 1.367 . S
C2568 C2576 1.378 . S
C2569 C2568 1.367 . S
C2569 C2577 1.433 . S
C2570 H2566 0.929 . S
C2570 C2572 1.378 . S
C2570 C2574 1.350 . S
C2571 C2574 1.463 . S
C2571 C2576 1.350 . S
C2571 N2579 1.427 . S
C2572 H2563 0.930 . S
C2572 C2570 1.378 . S
C2572 C2573 1.367 . S
C2573 C2572 1.367 . S
C2573 C2575 1.433 . S
C2574 C2570 1.350 . S
C2574 C2571 1.463 . S
C2574 N2578 1.427 . S
C2575 H2565 0.929 . S
C2575 C2573 1.433 . S
C2575 N2578 1.384 . S
C2576 H2567 0.929 . S
C2576 C2568 1.378 . S
C2576 C2571 1.350 . S
C2577 H2564 0.929 . S
C2577 C2569 1.433 . S
C2577 N2579 1.384 . S
N2578 C2574 1.427 . S
N2578 C2575 1.384 . S
N2579 C2571 1.427 . S
N2579 C2577 1.384 . S
H2580 C2586 0.930 . S
H2581 C2590 0.930 . S
H2582 C2595 0.929 . S
H2583 C2593 0.929 . S
H2584 C2588 0.963 . S
H2585 C2594 0.929 . S
C2586 H2580 0.930 . S
C2586 C2587 1.367 . S
C2586 C2594 1.378 . S
C2587 C2586 1.367 . S
C2587 C2595 1.433 . S
C2588 H2584 0.963 . S
C2588 C2590 1.328 1_655 S
C2588 C2592 1.367 . S
C2589 C2592 1.463 . S
C2589 C2594 1.350 . S
C2589 N2597 1.427 . S
C2590 H2581 0.930 . S
C2590 C2588 1.328 1_455 S
C2590 C2591 1.367 . S
C2591 C2590 1.367 . S
C2591 C2593 1.433 . S
C2592 C2588 1.367 . S
C2592 C2589 1.463 . S
C2592 N2596 1.427 1_655 S
C2593 H2583 0.929 . S
C2593 C2591 1.433 . S
C2593 N2596 1.384 . S
C2594 H2585 0.929 . S
C2594 C2586 1.378 . S
C2594 C2589 1.350 . S
C2595 H2582 0.929 . S
C2595 C2587 1.433 . S
C2595 N2597 1.384 . S
N2596 C2592 1.427 1_455 S
N2596 C2593 1.384 . S
N2597 C2589 1.427 . S
N2597 C2595 1.384 . S
H2598 C2604 0.930 . S
H2599 C2608 0.930 . S
H2600 C2613 0.929 . S
H2601 C2611 0.929 . S
H2602 C2606 0.929 . S
H2603 C2612 0.946 . S
C2604 H2598 0.930 . S
C2604 C2605 1.367 . S
C2604 C2612 1.352 1_545 S
C2605 C2604 1.367 . S
C2605 C2613 1.433 . S
C2606 H2602 0.929 . S
C2606 C2608 1.378 . S
C2606 C2610 1.350 . S
C2607 C2610 1.463 . S
C2607 C2612 1.359 . S
C2607 N2615 1.427 1_565 S
C2608 H2599 0.930 . S
C2608 C2606 1.378 . S
C2608 C2609 1.367 . S
C2609 C2608 1.367 . S
C2609 C2611 1.433 . S
C2610 C2606 1.350 . S
C2610 C2607 1.463 . S
C2610 N2614 1.427 . S
C2611 H2601 0.929 . S
C2611 C2609 1.433 . S
C2611 N2614 1.384 . S
C2612 H2603 0.946 . S
C2612 C2604 1.352 1_565 S
C2612 C2607 1.359 . S
C2613 H2600 0.929 . S
C2613 C2605 1.433 . S
C2613 N2615 1.384 . S
N2614 C2610 1.427 . S
N2614 C2611 1.384 . S
N2615 C2607 1.427 1_545 S
N2615 C2613 1.384 . S
H2616 C2622 0.930 . S
H2617 C2626 0.930 . S
H2618 C2631 0.929 . S
H2619 C2629 0.929 . S
H2620 C2624 0.929 . S
H2621 C2630 0.929 . S
C2622 H2616 0.930 . S
C2622 C2623 1.367 . S
C2622 C2630 1.378 . S
C2623 C2622 1.367 . S
C2623 C2631 1.433 . S
C2624 H2620 0.929 . S
C2624 C2626 1.378 . S
C2624 C2628 1.350 . S
C2625 C2628 1.463 . S
C2625 C2630 1.350 . S
C2625 N2633 1.427 . S
C2626 H2617 0.930 . S
C2626 C2624 1.378 . S
C2626 C2627 1.367 . S
C2627 C2626 1.367 . S
C2627 C2629 1.433 . S
C2628 C2624 1.350 . S
C2628 C2625 1.463 . S
C2628 N2632 1.427 . S
C2629 H2619 0.929 . S
C2629 C2627 1.433 . S
C2629 N2632 1.384 . S
C2630 H2621 0.929 . S
C2630 C2622 1.378 . S
C2630 C2625 1.350 . S
C2631 H2618 0.929 . S
C2631 C2623 1.433 . S
C2631 N2633 1.384 . S
N2632 C2628 1.427 . S
N2632 C2629 1.384 . S
N2633 C2625 1.427 . S
N2633 C2631 1.384 . S
H2634 C2640 0.930 . S
H2635 C2644 0.930 . S
H2636 C2649 0.929 . S
H2637 C2647 0.929 . S
H2638 C2642 0.929 . S
H2639 C2648 0.929 . S
C2640 H2634 0.930 . S
C2640 C2641 1.367 . S
C2640 C2648 1.378 . S
C2641 C2640 1.367 . S
C2641 C2649 1.433 . S
C2642 H2638 0.929 . S
C2642 C2644 1.378 . S
C2642 C2646 1.350 . S
C2643 C2646 1.463 . S
C2643 C2648 1.350 . S
C2643 N2651 1.427 . S
C2644 H2635 0.930 . S
C2644 C2642 1.378 . S
C2644 C2645 1.367 . S
C2645 C2644 1.367 . S
C2645 C2647 1.433 . S
C2646 C2642 1.350 . S
C2646 C2643 1.463 . S
C2646 N2650 1.427 . S
C2647 H2637 0.929 . S
C2647 C2645 1.433 . S
C2647 N2650 1.384 . S
C2648 H2639 0.929 . S
C2648 C2640 1.378 . S
C2648 C2643 1.350 . S
C2649 H2636 0.929 . S
C2649 C2641 1.433 . S
C2649 N2651 1.384 . S
N2650 C2646 1.427 . S
N2650 C2647 1.384 . S
N2651 C2643 1.427 . S
N2651 C2649 1.384 . S
H2652 C2658 0.930 . S
H2653 C2662 0.930 . S
H2654 C2667 0.929 . S
H2655 C2665 0.929 . S
H2656 C2660 0.929 . S
H2657 C2666 0.929 1_655 S
C2658 H2652 0.930 . S
C2658 C2659 1.367 . S
C2658 C2666 1.378 . S
C2659 C2658 1.367 . S
C2659 C2667 1.433 . S
C2660 H2656 0.929 . S
C2660 C2662 1.378 . S
C2660 C2664 1.350 . S
C2661 C2664 1.463 . S
C2661 C2666 1.350 1_655 S
C2661 N2669 1.427 1_655 S
C2662 H2653 0.930 . S
C2662 C2660 1.378 . S
C2662 C2663 1.367 . S
C2663 C2662 1.367 . S
C2663 C2665 1.433 . S
C2664 C2660 1.350 . S
C2664 C2661 1.463 . S
C2664 N2668 1.427 . S
C2665 H2655 0.929 . S
C2665 C2663 1.433 . S
C2665 N2668 1.384 . S
C2666 H2657 0.929 1_455 S
C2666 C2658 1.378 . S
C2666 C2661 1.350 1_455 S
C2667 H2654 0.929 . S
C2667 C2659 1.433 . S
C2667 N2669 1.384 . S
N2668 C2664 1.427 . S
N2668 C2665 1.384 . S
N2669 C2661 1.427 1_455 S
N2669 C2667 1.384 . S
H2670 C2676 0.930 . S
H2671 C2680 0.930 . S
H2672 C2685 0.929 . S
H2673 C2683 0.929 . S
H2674 C2678 0.929 . S
H2675 C2684 0.929 . S
C2676 H2670 0.930 . S
C2676 C2677 1.367 . S
C2676 C2684 1.378 . S
C2677 C2676 1.367 . S
C2677 C2685 1.433 . S
C2678 H2674 0.929 . S
C2678 C2680 1.378 . S
C2678 C2682 1.350 . S
C2679 C2682 1.463 . S
C2679 C2684 1.350 . S
C2679 N2687 1.427 . S
C2680 H2671 0.930 . S
C2680 C2678 1.378 . S
C2680 C2681 1.367 . S
C2681 C2680 1.367 . S
C2681 C2683 1.433 . S
C2682 C2678 1.350 . S
C2682 C2679 1.463 . S
C2682 N2686 1.427 . S
C2683 H2673 0.929 . S
C2683 C2681 1.433 . S
C2683 N2686 1.384 . S
C2684 H2675 0.929 . S
C2684 C2676 1.378 . S
C2684 C2679 1.350 . S
C2685 H2672 0.929 . S
C2685 C2677 1.433 . S
C2685 N2687 1.384 . S
N2686 C2682 1.427 . S
N2686 C2683 1.384 . S
N2687 C2679 1.427 . S
N2687 C2685 1.384 . S
H2688 C2694 0.930 . S
H2689 C2698 0.930 . S
H2690 C2703 0.929 . S
H2691 C2701 0.929 . S
H2692 C2696 0.929 . S
H2693 C2702 0.929 . S
C2694 H2688 0.930 . S
C2694 C2695 1.367 . S
C2694 C2702 1.378 . S
C2695 C2694 1.367 . S
C2695 C2703 1.433 . S
C2696 H2692 0.929 . S
C2696 C2698 1.378 . S
C2696 C2700 1.350 . S
C2697 C2700 1.463 . S
C2697 C2702 1.350 . S
C2697 N2705 1.427 . S
C2698 H2689 0.930 . S
C2698 C2696 1.378 . S
C2698 C2699 1.367 . S
C2699 C2698 1.367 . S
C2699 C2701 1.433 . S
C2700 C2696 1.350 . S
C2700 C2697 1.463 . S
C2700 N2704 1.427 . S
C2701 H2691 0.929 . S
C2701 C2699 1.433 . S
C2701 N2704 1.384 . S
C2702 H2693 0.929 . S
C2702 C2694 1.378 . S
C2702 C2697 1.350 . S
C2703 H2690 0.929 . S
C2703 C2695 1.433 . S
C2703 N2705 1.384 . S
N2704 C2700 1.427 . S
N2704 C2701 1.384 . S
N2705 C2697 1.427 . S
N2705 C2703 1.384 . S
H2706 C2712 0.930 . S
H2707 C2716 0.930 . S
H2708 C2721 0.929 . S
H2709 C2719 0.929 . S
H2710 C2714 0.929 . S
H2711 C2720 0.929 . S
C2712 H2706 0.930 . S
C2712 C2713 1.367 . S
C2712 C2720 1.378 . S
C2713 C2712 1.367 . S
C2713 C2721 1.433 . S
C2714 H2710 0.929 . S
C2714 C2716 1.378 . S
C2714 C2718 1.350 . S
C2715 C2718 1.463 . S
C2715 C2720 1.350 . S
C2715 N2723 1.427 . S
C2716 H2707 0.930 . S
C2716 C2714 1.378 . S
C2716 C2717 1.367 . S
C2717 C2716 1.367 . S
C2717 C2719 1.433 . S
C2718 C2714 1.350 . S
C2718 C2715 1.463 . S
C2718 N2722 1.427 . S
C2719 H2709 0.929 . S
C2719 C2717 1.433 . S
C2719 N2722 1.384 . S
C2720 H2711 0.929 . S
C2720 C2712 1.378 . S
C2720 C2715 1.350 . S
C2721 H2708 0.929 . S
C2721 C2713 1.433 . S
C2721 N2723 1.384 . S
N2722 C2718 1.427 . S
N2722 C2719 1.384 . S
N2723 C2715 1.427 . S
N2723 C2721 1.384 . S
H2724 C2730 0.930 . S
H2725 C2734 0.930 . S
H2726 C2739 0.929 . S
H2727 C2737 0.929 . S
H2728 C2732 0.929 . S
H2729 C2738 0.929 . S
C2730 H2724 0.930 . S
C2730 C2731 1.367 . S
C2730 C2738 1.378 . S
C2731 C2730 1.367 . S
C2731 C2739 1.433 . S
C2732 H2728 0.929 . S
C2732 C2734 1.378 . S
C2732 C2736 1.350 . S
C2733 C2736 1.463 . S
C2733 C2738 1.350 . S
C2733 N2741 1.427 . S
C2734 H2725 0.930 . S
C2734 C2732 1.378 . S
C2734 C2735 1.367 . S
C2735 C2734 1.367 . S
C2735 C2737 1.433 . S
C2736 C2732 1.350 . S
C2736 C2733 1.463 . S
C2736 N2740 1.427 . S
C2737 H2727 0.929 . S
C2737 C2735 1.433 . S
C2737 N2740 1.384 . S
C2738 H2729 0.929 . S
C2738 C2730 1.378 . S
C2738 C2733 1.350 . S
C2739 H2726 0.929 . S
C2739 C2731 1.433 . S
C2739 N2741 1.384 . S
N2740 C2736 1.427 . S
N2740 C2737 1.384 . S
N2741 C2733 1.427 . S
N2741 C2739 1.384 . S
H2742 C2748 0.930 . S
H2743 C2752 0.930 . S
H2744 C2757 0.929 . S
H2745 C2755 0.929 . S
H2746 C2750 0.929 . S
H2747 C2756 0.929 . S
C2748 H2742 0.930 . S
C2748 C2749 1.367 . S
C2748 C2756 1.378 . S
C2749 C2748 1.367 . S
C2749 C2757 1.433 . S
C2750 H2746 0.929 . S
C2750 C2752 1.378 . S
C2750 C2754 1.350 . S
C2751 C2754 1.463 . S
C2751 C2756 1.350 . S
C2751 N2759 1.427 . S
C2752 H2743 0.930 . S
C2752 C2750 1.378 . S
C2752 C2753 1.367 . S
C2753 C2752 1.367 . S
C2753 C2755 1.433 . S
C2754 C2750 1.350 . S
C2754 C2751 1.463 . S
C2754 N2758 1.427 . S
C2755 H2745 0.929 . S
C2755 C2753 1.433 . S
C2755 N2758 1.384 . S
C2756 H2747 0.929 . S
C2756 C2748 1.378 . S
C2756 C2751 1.350 . S
C2757 H2744 0.929 . S
C2757 C2749 1.433 . S
C2757 N2759 1.384 . S
N2758 C2754 1.427 . S
N2758 C2755 1.384 . S
N2759 C2751 1.427 . S
N2759 C2757 1.384 . S
H2760 C2766 0.930 . S
H2761 C2770 0.930 . S
H2762 C2775 0.929 . S
H2763 C2773 0.929 . S
H2764 C2768 0.929 . S
H2765 C2774 0.929 . S
C2766 H2760 0.930 . S
C2766 C2767 1.367 . S
C2766 C2774 1.378 . S
C2767 C2766 1.367 . S
C2767 C2775 1.433 . S
C2768 H2764 0.929 . S
C2768 C2770 1.378 . S
C2768 C2772 1.350 . S
C2769 C2772 1.463 . S
C2769 C2774 1.350 . S
C2769 N2777 1.427 . S
C2770 H2761 0.930 . S
C2770 C2768 1.378 . S
C2770 C2771 1.367 . S
C2771 C2770 1.367 . S
C2771 C2773 1.433 . S
C2772 C2768 1.350 . S
C2772 C2769 1.463 . S
C2772 N2776 1.427 . S
C2773 H2763 0.929 . S
C2773 C2771 1.433 . S
C2773 N2776 1.384 . S
C2774 H2765 0.929 . S
C2774 C2766 1.378 . S
C2774 C2769 1.350 . S
C2775 H2762 0.929 . S
C2775 C2767 1.433 . S
C2775 N2777 1.384 . S
N2776 C2772 1.427 . S
N2776 C2773 1.384 . S
N2777 C2769 1.427 . S
N2777 C2775 1.384 . S
H2778 C2784 0.930 . S
H2779 C2788 0.930 . S
H2780 C2793 0.929 . S
H2781 C2791 0.929 . S
H2782 C2786 0.929 . S
H2783 C2792 0.929 . S
C2784 H2778 0.930 . S
C2784 C2785 1.367 . S
C2784 C2792 1.378 . S
C2785 C2784 1.367 . S
C2785 C2793 1.433 . S
C2786 H2782 0.929 . S
C2786 C2788 1.378 . S
C2786 C2790 1.350 . S
C2787 C2790 1.463 . S
C2787 C2792 1.350 . S
C2787 N2795 1.427 . S
C2788 H2779 0.930 . S
C2788 C2786 1.378 . S
C2788 C2789 1.367 . S
C2789 C2788 1.367 . S
C2789 C2791 1.433 . S
C2790 C2786 1.350 . S
C2790 C2787 1.463 . S
C2790 N2794 1.427 . S
C2791 H2781 0.929 . S
C2791 C2789 1.433 . S
C2791 N2794 1.384 . S
C2792 H2783 0.929 . S
C2792 C2784 1.378 . S
C2792 C2787 1.350 . S
C2793 H2780 0.929 . S
C2793 C2785 1.433 . S
C2793 N2795 1.384 . S
N2794 C2790 1.427 . S
N2794 C2791 1.384 . S
N2795 C2787 1.427 . S
N2795 C2793 1.384 . S
H2796 C2802 0.930 . S
H2797 C2806 0.930 . S
H2798 C2811 0.929 . S
H2799 C2809 0.929 . S
H2800 C2804 0.929 . S
H2801 C2810 0.929 . S
C2802 H2796 0.930 . S
C2802 C2803 1.367 . S
C2802 C2810 1.378 . S
C2803 C2802 1.367 . S
C2803 C2811 1.433 . S
C2804 H2800 0.929 . S
C2804 C2806 1.378 . S
C2804 C2808 1.350 . S
C2805 C2808 1.463 . S
C2805 C2810 1.350 . S
C2805 N2813 1.427 . S
C2806 H2797 0.930 . S
C2806 C2804 1.378 . S
C2806 C2807 1.367 . S
C2807 C2806 1.367 . S
C2807 C2809 1.433 . S
C2808 C2804 1.350 . S
C2808 C2805 1.463 . S
C2808 N2812 1.427 . S
C2809 H2799 0.929 . S
C2809 C2807 1.433 . S
C2809 N2812 1.384 . S
C2810 H2801 0.929 . S
C2810 C2802 1.378 . S
C2810 C2805 1.350 . S
C2811 H2798 0.929 . S
C2811 C2803 1.433 . S
C2811 N2813 1.384 . S
N2812 C2808 1.427 . S
N2812 C2809 1.384 . S
N2813 C2805 1.427 . S
N2813 C2811 1.384 . S
H2814 C2820 0.930 . S
H2815 C2824 0.930 . S
H2816 C2829 0.929 . S
H2817 C2827 0.929 . S
H2818 C2822 0.929 . S
H2819 C2828 0.929 . S
C2820 H2814 0.930 . S
C2820 C2821 1.367 . S
C2820 C2828 1.378 . S
C2821 C2820 1.367 . S
C2821 C2829 1.433 . S
C2822 H2818 0.929 . S
C2822 C2824 1.378 . S
C2822 C2826 1.350 . S
C2823 C2826 1.463 . S
C2823 C2828 1.350 . S
C2823 N2831 1.427 . S
C2824 H2815 0.930 . S
C2824 C2822 1.378 . S
C2824 C2825 1.367 . S
C2825 C2824 1.367 . S
C2825 C2827 1.433 . S
C2826 C2822 1.350 . S
C2826 C2823 1.463 . S
C2826 N2830 1.427 . S
C2827 H2817 0.929 . S
C2827 C2825 1.433 . S
C2827 N2830 1.384 . S
C2828 H2819 0.929 . S
C2828 C2820 1.378 . S
C2828 C2823 1.350 . S
C2829 H2816 0.929 . S
C2829 C2821 1.433 . S
C2829 N2831 1.384 . S
N2830 C2826 1.427 . S
N2830 C2827 1.384 . S
N2831 C2823 1.427 . S
N2831 C2829 1.384 . S
H2832 C2838 0.930 . S
H2833 C2842 0.930 . S
H2834 C2847 0.929 . S
H2835 C2845 0.929 . S
H2836 C2840 0.929 . S
H2837 C2846 0.929 . S
C2838 H2832 0.930 . S
C2838 C2839 1.367 . S
C2838 C2846 1.378 . S
C2839 C2838 1.367 . S
C2839 C2847 1.433 . S
C2840 H2836 0.929 . S
C2840 C2842 1.378 . S
C2840 C2844 1.350 . S
C2841 C2844 1.463 . S
C2841 C2846 1.350 . S
C2841 N2849 1.427 . S
C2842 H2833 0.930 . S
C2842 C2840 1.378 . S
C2842 C2843 1.367 . S
C2843 C2842 1.367 . S
C2843 C2845 1.433 . S
C2844 C2840 1.350 . S
C2844 C2841 1.463 . S
C2844 N2848 1.427 . S
C2845 H2835 0.929 . S
C2845 C2843 1.433 . S
C2845 N2848 1.384 . S
C2846 H2837 0.929 . S
C2846 C2838 1.378 . S
C2846 C2841 1.350 . S
C2847 H2834 0.929 . S
C2847 C2839 1.433 . S
C2847 N2849 1.384 . S
N2848 C2844 1.427 . S
N2848 C2845 1.384 . S
N2849 C2841 1.427 . S
N2849 C2847 1.384 . S
H2850 C2856 0.930 . S
H2851 C2860 0.930 . S
H2852 C2865 0.929 . S
H2853 C2863 0.929 . S
H2854 C2858 0.929 . S
H2855 C2864 0.929 . S
C2856 H2850 0.930 . S
C2856 C2857 1.367 . S
C2856 C2864 1.378 . S
C2857 C2856 1.367 . S
C2857 C2865 1.433 . S
C2858 H2854 0.929 . S
C2858 C2860 1.378 . S
C2858 C2862 1.350 . S
C2859 C2862 1.463 . S
C2859 C2864 1.350 . S
C2859 N2867 1.427 . S
C2860 H2851 0.930 . S
C2860 C2858 1.378 . S
C2860 C2861 1.367 . S
C2861 C2860 1.367 . S
C2861 C2863 1.433 . S
C2862 C2858 1.350 . S
C2862 C2859 1.463 . S
C2862 N2866 1.427 . S
C2863 H2853 0.929 . S
C2863 C2861 1.433 . S
C2863 N2866 1.384 . S
C2864 H2855 0.929 . S
C2864 C2856 1.378 . S
C2864 C2859 1.350 . S
C2865 H2852 0.929 . S
C2865 C2857 1.433 . S
C2865 N2867 1.384 . S
N2866 C2862 1.427 . S
N2866 C2863 1.384 . S
N2867 C2859 1.427 . S
N2867 C2865 1.384 . S
H2868 C2874 0.930 . S
H2869 C2878 0.930 . S
H2870 C2883 0.929 . S
H2871 C2881 0.929 . S
H2872 C2876 0.929 . S
H2873 C2882 0.929 . S
C2874 H2868 0.930 . S
C2874 C2875 1.367 . S
C2874 C2882 1.378 . S
C2875 C2874 1.367 . S
C2875 C2883 1.433 . S
C2876 H2872 0.929 . S
C2876 C2878 1.378 . S
C2876 C2880 1.350 . S
C2877 C2880 1.463 . S
C2877 C2882 1.350 . S
C2877 N2885 1.427 . S
C2878 H2869 0.930 . S
C2878 C2876 1.378 . S
C2878 C2879 1.367 . S
C2879 C2878 1.367 . S
C2879 C2881 1.433 . S
C2880 C2876 1.350 . S
C2880 C2877 1.463 . S
C2880 N2884 1.427 . S
C2881 H2871 0.929 . S
C2881 C2879 1.433 . S
C2881 N2884 1.384 . S
C2882 H2873 0.929 . S
C2882 C2874 1.378 . S
C2882 C2877 1.350 . S
C2883 H2870 0.929 . S
C2883 C2875 1.433 . S
C2883 N2885 1.384 . S
N2884 C2880 1.427 . S
N2884 C2881 1.384 . S
N2885 C2877 1.427 . S
N2885 C2883 1.384 . S
H2886 C2892 0.930 . S
H2887 C2896 0.930 . S
H2888 C2901 0.929 . S
H2889 C2899 0.929 . S
H2890 C2894 0.929 . S
H2891 C2900 0.929 . S
C2892 H2886 0.930 . S
C2892 C2893 1.367 . S
C2892 C2900 1.378 . S
C2893 C2892 1.367 . S
C2893 C2901 1.433 . S
C2894 H2890 0.929 . S
C2894 C2896 1.378 . S
C2894 C2898 1.350 . S
C2895 C2898 1.463 . S
C2895 C2900 1.350 . S
C2895 N2903 1.427 . S
C2896 H2887 0.930 . S
C2896 C2894 1.378 . S
C2896 C2897 1.367 . S
C2897 C2896 1.367 . S
C2897 C2899 1.433 . S
C2898 C2894 1.350 . S
C2898 C2895 1.463 . S
C2898 N2902 1.427 . S
C2899 H2889 0.929 . S
C2899 C2897 1.433 . S
C2899 N2902 1.384 . S
C2900 H2891 0.929 . S
C2900 C2892 1.378 . S
C2900 C2895 1.350 . S
C2901 H2888 0.929 . S
C2901 C2893 1.433 . S
C2901 N2903 1.384 . S
N2902 C2898 1.427 . S
N2902 C2899 1.384 . S
N2903 C2895 1.427 . S
N2903 C2901 1.384 . S
H2904 C2910 0.930 . S
H2905 C2914 0.930 . S
H2906 C2919 0.929 . S
H2907 C2917 0.929 . S
H2908 C2912 0.929 . S
H2909 C2918 0.929 . S
C2910 H2904 0.930 . S
C2910 C2911 1.367 . S
C2910 C2918 1.378 . S
C2911 C2910 1.367 . S
C2911 C2919 1.433 . S
C2912 H2908 0.929 . S
C2912 C2914 1.378 . S
C2912 C2916 1.350 . S
C2913 C2916 1.463 . S
C2913 C2918 1.350 . S
C2913 N2921 1.427 . S
C2914 H2905 0.930 . S
C2914 C2912 1.378 . S
C2914 C2915 1.367 . S
C2915 C2914 1.367 . S
C2915 C2917 1.433 . S
C2916 C2912 1.350 . S
C2916 C2913 1.463 . S
C2916 N2920 1.427 . S
C2917 H2907 0.929 . S
C2917 C2915 1.433 . S
C2917 N2920 1.384 . S
C2918 H2909 0.929 . S
C2918 C2910 1.378 . S
C2918 C2913 1.350 . S
C2919 H2906 0.929 . S
C2919 C2911 1.433 . S
C2919 N2921 1.384 . S
N2920 C2916 1.427 . S
N2920 C2917 1.384 . S
N2921 C2913 1.427 . S
N2921 C2919 1.384 . S
H2922 C2928 0.930 . S
H2923 C2932 0.930 . S
H2924 C2937 0.929 . S
H2925 C2935 0.929 . S
H2926 C2930 0.929 . S
H2927 C2936 0.929 . S
C2928 H2922 0.930 . S
C2928 C2929 1.367 . S
C2928 C2936 1.378 . S
C2929 C2928 1.367 . S
C2929 C2937 1.433 . S
C2930 H2926 0.929 . S
C2930 C2932 1.378 . S
C2930 C2934 1.350 . S
C2931 C2934 1.463 . S
C2931 C2936 1.350 . S
C2931 N2939 1.427 . S
C2932 H2923 0.930 . S
C2932 C2930 1.378 . S
C2932 C2933 1.367 . S
C2933 C2932 1.367 . S
C2933 C2935 1.433 . S
C2934 C2930 1.350 . S
C2934 C2931 1.463 . S
C2934 N2938 1.427 . S
C2935 H2925 0.929 . S
C2935 C2933 1.433 . S
C2935 N2938 1.384 . S
C2936 H2927 0.929 . S
C2936 C2928 1.378 . S
C2936 C2931 1.350 . S
C2937 H2924 0.929 . S
C2937 C2929 1.433 . S
C2937 N2939 1.384 . S
N2938 C2934 1.427 . S
N2938 C2935 1.384 . S
N2939 C2931 1.427 . S
N2939 C2937 1.384 . S
H2940 C2946 0.930 . S
H2941 C2950 0.930 . S
H2942 C2955 0.929 . S
H2943 C2953 0.929 . S
H2944 C2948 0.929 . S
H2945 C2954 0.929 . S
C2946 H2940 0.930 . S
C2946 C2947 1.367 . S
C2946 C2954 1.378 . S
C2947 C2946 1.367 . S
C2947 C2955 1.433 . S
C2948 H2944 0.929 . S
C2948 C2950 1.378 . S
C2948 C2952 1.350 . S
C2949 C2952 1.463 . S
C2949 C2954 1.350 . S
C2949 N2957 1.427 . S
C2950 H2941 0.930 . S
C2950 C2948 1.378 . S
C2950 C2951 1.367 . S
C2951 C2950 1.367 . S
C2951 C2953 1.433 . S
C2952 C2948 1.350 . S
C2952 C2949 1.463 . S
C2952 N2956 1.427 . S
C2953 H2943 0.929 . S
C2953 C2951 1.433 . S
C2953 N2956 1.384 . S
C2954 H2945 0.929 . S
C2954 C2946 1.378 . S
C2954 C2949 1.350 . S
C2955 H2942 0.929 . S
C2955 C2947 1.433 . S
C2955 N2957 1.384 . S
N2956 C2952 1.427 . S
N2956 C2953 1.384 . S
N2957 C2949 1.427 . S
N2957 C2955 1.384 . S
H2958 C2964 0.930 . S
H2959 C2968 0.930 . S
H2960 C2973 0.929 . S
H2961 C2971 0.929 . S
H2962 C2966 0.929 . S
H2963 C2972 0.929 . S
C2964 H2958 0.930 . S
C2964 C2965 1.367 . S
C2964 C2972 1.378 . S
C2965 C2964 1.367 . S
C2965 C2973 1.433 . S
C2966 H2962 0.929 . S
C2966 C2968 1.378 . S
C2966 C2970 1.350 . S
C2967 C2970 1.463 . S
C2967 C2972 1.350 . S
C2967 N2975 1.427 . S
C2968 H2959 0.930 . S
C2968 C2966 1.378 . S
C2968 C2969 1.367 . S
C2969 C2968 1.367 . S
C2969 C2971 1.433 . S
C2970 C2966 1.350 . S
C2970 C2967 1.463 . S
C2970 N2974 1.427 . S
C2971 H2961 0.929 . S
C2971 C2969 1.433 . S
C2971 N2974 1.384 . S
C2972 H2963 0.929 . S
C2972 C2964 1.378 . S
C2972 C2967 1.350 . S
C2973 H2960 0.929 . S
C2973 C2965 1.433 . S
C2973 N2975 1.384 . S
N2974 C2970 1.427 . S
N2974 C2971 1.384 . S
N2975 C2967 1.427 . S
N2975 C2973 1.384 . S
H2976 C2982 0.930 . S
H2977 C2986 0.930 . S
H2978 C2991 0.929 . S
H2979 C2989 0.929 . S
H2980 C2984 0.929 . S
H2981 C2990 0.929 . S
C2982 H2976 0.930 . S
C2982 C2983 1.367 . S
C2982 C2990 1.378 . S
C2983 C2982 1.367 . S
C2983 C2991 1.433 . S
C2984 H2980 0.929 . S
C2984 C2986 1.378 . S
C2984 C2988 1.350 . S
C2985 C2988 1.463 . S
C2985 C2990 1.350 . S
C2985 N2993 1.427 . S
C2986 H2977 0.930 . S
C2986 C2984 1.378 . S
C2986 C2987 1.367 . S
C2987 C2986 1.367 . S
C2987 C2989 1.433 . S
C2988 C2984 1.350 . S
C2988 C2985 1.463 . S
C2988 N2992 1.427 . S
C2989 H2979 0.929 . S
C2989 C2987 1.433 . S
C2989 N2992 1.384 . S
C2990 H2981 0.929 . S
C2990 C2982 1.378 . S
C2990 C2985 1.350 . S
C2991 H2978 0.929 . S
C2991 C2983 1.433 . S
C2991 N2993 1.384 . S
N2992 C2988 1.427 . S
N2992 C2989 1.384 . S
N2993 C2985 1.427 . S
N2993 C2991 1.384 . S
H2994 C3000 0.930 . S
H2995 C3004 0.930 . S
H2996 C3009 0.929 . S
H2997 C3007 0.929 . S
H2998 C3002 0.929 . S
H2999 C3008 0.929 . S
C3000 H2994 0.930 . S
C3000 C3001 1.367 . S
C3000 C3008 1.378 . S
C3001 C3000 1.367 . S
C3001 C3009 1.433 . S
C3002 H2998 0.929 . S
C3002 C3004 1.378 . S
C3002 C3006 1.350 . S
C3003 C3006 1.463 . S
C3003 C3008 1.350 . S
C3003 N3011 1.427 . S
C3004 H2995 0.930 . S
C3004 C3002 1.378 . S
C3004 C3005 1.367 . S
C3005 C3004 1.367 . S
C3005 C3007 1.433 . S
C3006 C3002 1.350 . S
C3006 C3003 1.463 . S
C3006 N3010 1.427 . S
C3007 H2997 0.929 . S
C3007 C3005 1.433 . S
C3007 N3010 1.384 . S
C3008 H2999 0.929 . S
C3008 C3000 1.378 . S
C3008 C3003 1.350 . S
C3009 H2996 0.929 . S
C3009 C3001 1.433 . S
C3009 N3011 1.384 . S
N3010 C3006 1.427 . S
N3010 C3007 1.384 . S
N3011 C3003 1.427 . S
N3011 C3009 1.384 . S
H3012 C3018 0.930 . S
H3013 C3022 0.930 . S
H3014 C3027 0.929 . S
H3015 C3025 0.929 . S
H3016 C3020 0.929 . S
H3017 C3026 0.929 . S
C3018 H3012 0.930 . S
C3018 C3019 1.367 . S
C3018 C3026 1.378 . S
C3019 C3018 1.367 . S
C3019 C3027 1.433 . S
C3020 H3016 0.929 . S
C3020 C3022 1.378 . S
C3020 C3024 1.350 . S
C3021 C3024 1.463 . S
C3021 C3026 1.350 . S
C3021 N3029 1.427 . S
C3022 H3013 0.930 . S
C3022 C3020 1.378 . S
C3022 C3023 1.367 . S
C3023 C3022 1.367 . S
C3023 C3025 1.433 . S
C3024 C3020 1.350 . S
C3024 C3021 1.463 . S
C3024 N3028 1.427 . S
C3025 H3015 0.929 . S
C3025 C3023 1.433 . S
C3025 N3028 1.384 . S
C3026 H3017 0.929 . S
C3026 C3018 1.378 . S
C3026 C3021 1.350 . S
C3027 H3014 0.929 . S
C3027 C3019 1.433 . S
C3027 N3029 1.384 . S
N3028 C3024 1.427 . S
N3028 C3025 1.384 . S
N3029 C3021 1.427 . S
N3029 C3027 1.384 . S
H3030 C3036 0.930 . S
H3031 C3040 0.930 . S
H3032 C3045 0.929 . S
H3033 C3043 0.929 . S
H3034 C3038 0.929 . S
H3035 C3044 0.929 . S
C3036 H3030 0.930 . S
C3036 C3037 1.367 . S
C3036 C3044 1.378 . S
C3037 C3036 1.367 . S
C3037 C3045 1.433 . S
C3038 H3034 0.929 . S
C3038 C3040 1.378 . S
C3038 C3042 1.350 . S
C3039 C3042 1.463 . S
C3039 C3044 1.350 . S
C3039 N3047 1.427 . S
C3040 H3031 0.930 . S
C3040 C3038 1.378 . S
C3040 C3041 1.367 . S
C3041 C3040 1.367 . S
C3041 C3043 1.433 . S
C3042 C3038 1.350 . S
C3042 C3039 1.463 . S
C3042 N3046 1.427 . S
C3043 H3033 0.929 . S
C3043 C3041 1.433 . S
C3043 N3046 1.384 . S
C3044 H3035 0.929 . S
C3044 C3036 1.378 . S
C3044 C3039 1.350 . S
C3045 H3032 0.929 . S
C3045 C3037 1.433 . S
C3045 N3047 1.384 . S
N3046 C3042 1.427 . S
N3046 C3043 1.384 . S
N3047 C3039 1.427 . S
N3047 C3045 1.384 . S
H3048 C3054 0.930 . S
H3049 C3058 0.930 . S
H3050 C3063 0.929 . S
H3051 C3061 0.929 . S
H3052 C3056 0.929 . S
H3053 C3062 0.929 . S
C3054 H3048 0.930 . S
C3054 C3055 1.367 . S
C3054 C3062 1.378 . S
C3055 C3054 1.367 . S
C3055 C3063 1.433 . S
C3056 H3052 0.929 . S
C3056 C3058 1.378 . S
C3056 C3060 1.350 . S
C3057 C3060 1.463 . S
C3057 C3062 1.350 . S
C3057 N3065 1.427 . S
C3058 H3049 0.930 . S
C3058 C3056 1.378 . S
C3058 C3059 1.367 . S
C3059 C3058 1.367 . S
C3059 C3061 1.433 . S
C3060 C3056 1.350 . S
C3060 C3057 1.463 . S
C3060 N3064 1.427 . S
C3061 H3051 0.929 . S
C3061 C3059 1.433 . S
C3061 N3064 1.384 . S
C3062 H3053 0.929 . S
C3062 C3054 1.378 . S
C3062 C3057 1.350 . S
C3063 H3050 0.929 . S
C3063 C3055 1.433 . S
C3063 N3065 1.384 . S
N3064 C3060 1.427 . S
N3064 C3061 1.384 . S
N3065 C3057 1.427 . S
N3065 C3063 1.384 . S
H3066 C3072 0.930 . S
H3067 C3076 0.930 . S
H3068 C3081 0.929 . S
H3069 C3079 0.929 . S
H3070 C3074 0.929 . S
H3071 C3080 0.929 . S
C3072 H3066 0.930 . S
C3072 C3073 1.367 . S
C3072 C3080 1.378 . S
C3073 C3072 1.367 . S
C3073 C3081 1.433 . S
C3074 H3070 0.929 . S
C3074 C3076 1.378 . S
C3074 C3078 1.350 . S
C3075 C3078 1.463 . S
C3075 C3080 1.350 . S
C3075 N3083 1.427 . S
C3076 H3067 0.930 . S
C3076 C3074 1.378 . S
C3076 C3077 1.367 . S
C3077 C3076 1.367 . S
C3077 C3079 1.433 . S
C3078 C3074 1.350 . S
C3078 C3075 1.463 . S
C3078 N3082 1.427 . S
C3079 H3069 0.929 . S
C3079 C3077 1.433 . S
C3079 N3082 1.384 . S
C3080 H3071 0.929 . S
C3080 C3072 1.378 . S
C3080 C3075 1.350 . S
C3081 H3068 0.929 . S
C3081 C3073 1.433 . S
C3081 N3083 1.384 . S
N3082 C3078 1.427 . S
N3082 C3079 1.384 . S
N3083 C3075 1.427 . S
N3083 C3081 1.384 . S
H3084 C3090 0.930 . S
H3085 C3094 0.930 . S
H3086 C3099 0.929 . S
H3087 C3097 0.929 . S
H3088 C3092 0.929 . S
H3089 C3098 0.929 . S
C3090 H3084 0.930 . S
C3090 C3091 1.367 . S
C3090 C3098 1.378 . S
C3091 C3090 1.367 . S
C3091 C3099 1.433 . S
C3092 H3088 0.929 . S
C3092 C3094 1.378 . S
C3092 C3096 1.350 . S
C3093 C3096 1.463 . S
C3093 C3098 1.350 . S
C3093 N3101 1.427 . S
C3094 H3085 0.930 . S
C3094 C3092 1.378 . S
C3094 C3095 1.367 . S
C3095 C3094 1.367 . S
C3095 C3097 1.433 . S
C3096 C3092 1.350 . S
C3096 C3093 1.463 . S
C3096 N3100 1.427 . S
C3097 H3087 0.929 . S
C3097 C3095 1.433 . S
C3097 N3100 1.384 . S
C3098 H3089 0.929 . S
C3098 C3090 1.378 . S
C3098 C3093 1.350 . S
C3099 H3086 0.929 . S
C3099 C3091 1.433 . S
C3099 N3101 1.384 . S
N3100 C3096 1.427 . S
N3100 C3097 1.384 . S
N3101 C3093 1.427 . S
N3101 C3099 1.384 . S
H3102 C3108 0.930 . S
H3103 C3112 0.930 . S
H3104 C3117 0.929 . S
H3105 C3115 0.929 . S
H3106 C3110 0.929 . S
H3107 C3116 0.929 . S
C3108 H3102 0.930 . S
C3108 C3109 1.367 . S
C3108 C3116 1.378 . S
C3109 C3108 1.367 . S
C3109 C3117 1.433 . S
C3110 H3106 0.929 . S
C3110 C3112 1.378 . S
C3110 C3114 1.350 . S
C3111 C3114 1.463 . S
C3111 C3116 1.350 . S
C3111 N3119 1.427 . S
C3112 H3103 0.930 . S
C3112 C3110 1.378 . S
C3112 C3113 1.367 . S
C3113 C3112 1.367 . S
C3113 C3115 1.433 . S
C3114 C3110 1.350 . S
C3114 C3111 1.463 . S
C3114 N3118 1.427 . S
C3115 H3105 0.929 . S
C3115 C3113 1.433 . S
C3115 N3118 1.384 . S
C3116 H3107 0.929 . S
C3116 C3108 1.378 . S
C3116 C3111 1.350 . S
C3117 H3104 0.929 . S
C3117 C3109 1.433 . S
C3117 N3119 1.384 . S
N3118 C3114 1.427 . S
N3118 C3115 1.384 . S
N3119 C3111 1.427 . S
N3119 C3117 1.384 . S
H3120 C3126 0.930 . S
H3121 C3130 0.930 . S
H3122 C3135 0.929 . S
H3123 C3133 0.929 . S
H3124 C3128 0.929 . S
H3125 C3134 0.929 . S
C3126 H3120 0.930 . S
C3126 C3127 1.367 . S
C3126 C3134 1.378 . S
C3127 C3126 1.367 . S
C3127 C3135 1.433 . S
C3128 H3124 0.929 . S
C3128 C3130 1.378 . S
C3128 C3132 1.350 . S
C3129 C3132 1.463 . S
C3129 C3134 1.350 . S
C3129 N3137 1.427 . S
C3130 H3121 0.930 . S
C3130 C3128 1.378 . S
C3130 C3131 1.367 . S
C3131 C3130 1.367 . S
C3131 C3133 1.433 . S
C3132 C3128 1.350 . S
C3132 C3129 1.463 . S
C3132 N3136 1.427 . S
C3133 H3123 0.929 . S
C3133 C3131 1.433 . S
C3133 N3136 1.384 . S
C3134 H3125 0.929 . S
C3134 C3126 1.378 . S
C3134 C3129 1.350 . S
C3135 H3122 0.929 . S
C3135 C3127 1.433 . S
C3135 N3137 1.384 . S
N3136 C3132 1.427 . S
N3136 C3133 1.384 . S
N3137 C3129 1.427 . S
N3137 C3135 1.384 . S
H3138 C3144 0.930 . S
H3139 C3148 0.930 . S
H3140 C3153 0.929 . S
H3141 C3151 0.929 . S
H3142 C3146 0.929 . S
H3143 C3152 0.929 . S
C3144 H3138 0.930 . S
C3144 C3145 1.367 . S
C3144 C3152 1.378 . S
C3145 C3144 1.367 . S
C3145 C3153 1.433 . S
C3146 H3142 0.929 . S
C3146 C3148 1.378 . S
C3146 C3150 1.350 . S
C3147 C3150 1.463 . S
C3147 C3152 1.350 . S
C3147 N3155 1.427 . S
C3148 H3139 0.930 . S
C3148 C3146 1.378 . S
C3148 C3149 1.367 . S
C3149 C3148 1.367 . S
C3149 C3151 1.433 . S
C3150 C3146 1.350 . S
C3150 C3147 1.463 . S
C3150 N3154 1.427 . S
C3151 H3141 0.929 . S
C3151 C3149 1.433 . S
C3151 N3154 1.384 . S
C3152 H3143 0.929 . S
C3152 C3144 1.378 . S
C3152 C3147 1.350 . S
C3153 H3140 0.929 . S
C3153 C3145 1.433 . S
C3153 N3155 1.384 . S
N3154 C3150 1.427 . S
N3154 C3151 1.384 . S
N3155 C3147 1.427 . S
N3155 C3153 1.384 . S
H3156 C3162 0.930 . S
H3157 C3166 0.930 . S
H3158 C3171 0.929 . S
H3159 C3169 0.929 . S
H3160 C3164 0.929 . S
H3161 C3170 0.929 . S
C3162 H3156 0.930 . S
C3162 C3163 1.367 . S
C3162 C3170 1.378 . S
C3163 C3162 1.367 . S
C3163 C3171 1.433 . S
C3164 H3160 0.929 . S
C3164 C3166 1.378 . S
C3164 C3168 1.350 . S
C3165 C3168 1.463 . S
C3165 C3170 1.350 . S
C3165 N3173 1.427 . S
C3166 H3157 0.930 . S
C3166 C3164 1.378 . S
C3166 C3167 1.367 . S
C3167 C3166 1.367 . S
C3167 C3169 1.433 . S
C3168 C3164 1.350 . S
C3168 C3165 1.463 . S
C3168 N3172 1.427 . S
C3169 H3159 0.929 . S
C3169 C3167 1.433 . S
C3169 N3172 1.384 . S
C3170 H3161 0.929 . S
C3170 C3162 1.378 . S
C3170 C3165 1.350 . S
C3171 H3158 0.929 . S
C3171 C3163 1.433 . S
C3171 N3173 1.384 . S
N3172 C3168 1.427 . S
N3172 C3169 1.384 . S
N3173 C3165 1.427 . S
N3173 C3171 1.384 . S
H3174 C3180 0.930 . S
H3175 C3184 0.930 . S
H3176 C3189 0.929 . S
H3177 C3187 0.929 . S
H3178 C3182 0.929 . S
H3179 C3188 0.929 . S
C3180 H3174 0.930 . S
C3180 C3181 1.367 . S
C3180 C3188 1.378 . S
C3181 C3180 1.367 . S
C3181 C3189 1.433 . S
C3182 H3178 0.929 . S
C3182 C3184 1.378 . S
C3182 C3186 1.350 . S
C3183 C3186 1.463 . S
C3183 C3188 1.350 . S
C3183 N3191 1.427 . S
C3184 H3175 0.930 . S
C3184 C3182 1.378 . S
C3184 C3185 1.367 . S
C3185 C3184 1.367 . S
C3185 C3187 1.433 . S
C3186 C3182 1.350 . S
C3186 C3183 1.463 . S
C3186 N3190 1.427 . S
C3187 H3177 0.929 . S
C3187 C3185 1.433 . S
C3187 N3190 1.384 . S
C3188 H3179 0.929 . S
C3188 C3180 1.378 . S
C3188 C3183 1.350 . S
C3189 H3176 0.929 . S
C3189 C3181 1.433 . S
C3189 N3191 1.384 . S
N3190 C3186 1.427 . S
N3190 C3187 1.384 . S
N3191 C3183 1.427 . S
N3191 C3189 1.384 . S
H3192 C3198 0.930 . S
H3193 C3202 0.930 . S
H3194 C3207 0.929 . S
H3195 C3205 0.929 . S
H3196 C3200 0.929 . S
H3197 C3206 0.929 . S
C3198 H3192 0.930 . S
C3198 C3199 1.367 . S
C3198 C3206 1.378 . S
C3199 C3198 1.367 . S
C3199 C3207 1.433 . S
C3200 H3196 0.929 . S
C3200 C3202 1.378 . S
C3200 C3204 1.350 . S
C3201 C3204 1.463 . S
C3201 C3206 1.350 . S
C3201 N3209 1.427 . S
C3202 H3193 0.930 . S
C3202 C3200 1.378 . S
C3202 C3203 1.367 . S
C3203 C3202 1.367 . S
C3203 C3205 1.433 . S
C3204 C3200 1.350 . S
C3204 C3201 1.463 . S
C3204 N3208 1.427 . S
C3205 H3195 0.929 . S
C3205 C3203 1.433 . S
C3205 N3208 1.384 . S
C3206 H3197 0.929 . S
C3206 C3198 1.378 . S
C3206 C3201 1.350 . S
C3207 H3194 0.929 . S
C3207 C3199 1.433 . S
C3207 N3209 1.384 . S
N3208 C3204 1.427 . S
N3208 C3205 1.384 . S
N3209 C3201 1.427 . S
N3209 C3207 1.384 . S
H3210 C3216 0.930 . S
H3211 C3220 0.930 . S
H3212 C3225 0.929 . S
H3213 C3223 0.929 . S
H3214 C3218 0.929 . S
H3215 C3224 0.929 . S
C3216 H3210 0.930 . S
C3216 C3217 1.367 . S
C3216 C3224 1.378 . S
C3217 C3216 1.367 . S
C3217 C3225 1.433 . S
C3218 H3214 0.929 . S
C3218 C3220 1.378 . S
C3218 C3222 1.350 . S
C3219 C3222 1.463 . S
C3219 C3224 1.350 . S
C3219 N3227 1.427 . S
C3220 H3211 0.930 . S
C3220 C3218 1.378 . S
C3220 C3221 1.367 . S
C3221 C3220 1.367 . S
C3221 C3223 1.433 . S
C3222 C3218 1.350 . S
C3222 C3219 1.463 . S
C3222 N3226 1.427 . S
C3223 H3213 0.929 . S
C3223 C3221 1.433 . S
C3223 N3226 1.384 . S
C3224 H3215 0.929 . S
C3224 C3216 1.378 . S
C3224 C3219 1.350 . S
C3225 H3212 0.929 . S
C3225 C3217 1.433 . S
C3225 N3227 1.384 . S
N3226 C3222 1.427 . S
N3226 C3223 1.384 . S
N3227 C3219 1.427 . S
N3227 C3225 1.384 . S
H3228 C3234 0.930 . S
H3229 C3238 0.930 . S
H3230 C3243 0.929 . S
H3231 C3241 0.929 . S
H3232 C3236 0.929 . S
H3233 C3242 0.929 . S
C3234 H3228 0.930 . S
C3234 C3235 1.367 . S
C3234 C3242 1.378 . S
C3235 C3234 1.367 . S
C3235 C3243 1.433 . S
C3236 H3232 0.929 . S
C3236 C3238 1.378 . S
C3236 C3240 1.350 . S
C3237 C3240 1.463 . S
C3237 C3242 1.350 . S
C3237 N3245 1.427 . S
C3238 H3229 0.930 . S
C3238 C3236 1.378 . S
C3238 C3239 1.367 . S
C3239 C3238 1.367 . S
C3239 C3241 1.433 . S
C3240 C3236 1.350 . S
C3240 C3237 1.463 . S
C3240 N3244 1.427 . S
C3241 H3231 0.929 . S
C3241 C3239 1.433 . S
C3241 N3244 1.384 . S
C3242 H3233 0.929 . S
C3242 C3234 1.378 . S
C3242 C3237 1.350 . S
C3243 H3230 0.929 . S
C3243 C3235 1.433 . S
C3243 N3245 1.384 . S
N3244 C3240 1.427 . S
N3244 C3241 1.384 . S
N3245 C3237 1.427 . S
N3245 C3243 1.384 . S
H3246 C3252 0.930 . S
H3247 C3256 0.930 . S
H3248 C3261 0.929 . S
H3249 C3259 0.929 . S
H3250 C3254 0.929 . S
H3251 C3260 0.929 . S
C3252 H3246 0.930 . S
C3252 C3253 1.367 . S
C3252 C3260 1.378 . S
C3253 C3252 1.367 . S
C3253 C3261 1.433 . S
C3254 H3250 0.929 . S
C3254 C3256 1.378 . S
C3254 C3258 1.350 . S
C3255 C3258 1.463 . S
C3255 C3260 1.350 . S
C3255 N3263 1.427 . S
C3256 H3247 0.930 . S
C3256 C3254 1.378 . S
C3256 C3257 1.367 . S
C3257 C3256 1.367 . S
C3257 C3259 1.433 . S
C3258 C3254 1.350 . S
C3258 C3255 1.463 . S
C3258 N3262 1.427 . S
C3259 H3249 0.929 . S
C3259 C3257 1.433 . S
C3259 N3262 1.384 . S
C3260 H3251 0.929 . S
C3260 C3252 1.378 . S
C3260 C3255 1.350 . S
C3261 H3248 0.929 . S
C3261 C3253 1.433 . S
C3261 N3263 1.384 . S
N3262 C3258 1.427 . S
N3262 C3259 1.384 . S
N3263 C3255 1.427 . S
N3263 C3261 1.384 . S
H3264 C3270 0.930 . S
H3265 C3274 0.930 . S
H3266 C3279 0.929 . S
H3267 C3277 0.929 . S
H3268 C3272 0.929 . S
H3269 C3278 0.929 . S
C3270 H3264 0.930 . S
C3270 C3271 1.367 . S
C3270 C3278 1.378 . S
C3271 C3270 1.367 . S
C3271 C3279 1.433 . S
C3272 H3268 0.929 . S
C3272 C3274 1.378 . S
C3272 C3276 1.350 . S
C3273 C3276 1.463 . S
C3273 C3278 1.350 . S
C3273 N3281 1.427 . S
C3274 H3265 0.930 . S
C3274 C3272 1.378 . S
C3274 C3275 1.367 . S
C3275 C3274 1.367 . S
C3275 C3277 1.433 . S
C3276 C3272 1.350 . S
C3276 C3273 1.463 . S
C3276 N3280 1.427 . S
C3277 H3267 0.929 . S
C3277 C3275 1.433 . S
C3277 N3280 1.384 . S
C3278 H3269 0.929 . S
C3278 C3270 1.378 . S
C3278 C3273 1.350 . S
C3279 H3266 0.929 . S
C3279 C3271 1.433 . S
C3279 N3281 1.384 . S
N3280 C3276 1.427 . S
N3280 C3277 1.384 . S
N3281 C3273 1.427 . S
N3281 C3279 1.384 . S
H3282 C3288 0.930 . S
H3283 C3292 0.930 . S
H3284 C3297 0.929 . S
H3285 C3295 0.929 . S
H3286 C3290 0.929 . S
H3287 C3296 0.929 . S
C3288 H3282 0.930 . S
C3288 C3289 1.367 . S
C3288 C3296 1.378 . S
C3289 C3288 1.367 . S
C3289 C3297 1.433 . S
C3290 H3286 0.929 . S
C3290 C3292 1.378 . S
C3290 C3294 1.350 . S
C3291 C3294 1.463 . S
C3291 C3296 1.350 . S
C3291 N3299 1.427 . S
C3292 H3283 0.930 . S
C3292 C3290 1.378 . S
C3292 C3293 1.367 . S
C3293 C3292 1.367 . S
C3293 C3295 1.433 . S
C3294 C3290 1.350 . S
C3294 C3291 1.463 . S
C3294 N3298 1.427 . S
C3295 H3285 0.929 . S
C3295 C3293 1.433 . S
C3295 N3298 1.384 . S
C3296 H3287 0.929 . S
C3296 C3288 1.378 . S
C3296 C3291 1.350 . S
C3297 H3284 0.929 . S
C3297 C3289 1.433 . S
C3297 N3299 1.384 . S
N3298 C3294 1.427 . S
N3298 C3295 1.384 . S
N3299 C3291 1.427 . S
N3299 C3297 1.384 . S
H3300 C3306 0.930 . S
H3301 C3310 0.930 . S
H3302 C3315 0.929 . S
H3303 C3313 0.929 . S
H3304 C3308 0.929 . S
H3305 C3314 0.929 . S
C3306 H3300 0.930 . S
C3306 C3307 1.367 . S
C3306 C3314 1.378 . S
C3307 C3306 1.367 . S
C3307 C3315 1.433 . S
C3308 H3304 0.929 . S
C3308 C3310 1.378 . S
C3308 C3312 1.350 . S
C3309 C3312 1.463 . S
C3309 C3314 1.350 . S
C3309 N3317 1.427 . S
C3310 H3301 0.930 . S
C3310 C3308 1.378 . S
C3310 C3311 1.367 . S
C3311 C3310 1.367 . S
C3311 C3313 1.433 . S
C3312 C3308 1.350 . S
C3312 C3309 1.463 . S
C3312 N3316 1.427 . S
C3313 H3303 0.929 . S
C3313 C3311 1.433 . S
C3313 N3316 1.384 . S
C3314 H3305 0.929 . S
C3314 C3306 1.378 . S
C3314 C3309 1.350 . S
C3315 H3302 0.929 . S
C3315 C3307 1.433 . S
C3315 N3317 1.384 . S
N3316 C3312 1.427 . S
N3316 C3313 1.384 . S
N3317 C3309 1.427 . S
N3317 C3315 1.384 . S
H3318 C3324 0.930 . S
H3319 C3328 0.930 . S
H3320 C3333 0.929 . S
H3321 C3331 0.929 . S
H3322 C3326 0.929 . S
H3323 C3332 0.929 . S
C3324 H3318 0.930 . S
C3324 C3325 1.367 . S
C3324 C3332 1.378 . S
C3325 C3324 1.367 . S
C3325 C3333 1.433 . S
C3326 H3322 0.929 . S
C3326 C3328 1.378 . S
C3326 C3330 1.350 . S
C3327 C3330 1.463 . S
C3327 C3332 1.350 . S
C3327 N3335 1.427 . S
C3328 H3319 0.930 . S
C3328 C3326 1.378 . S
C3328 C3329 1.367 . S
C3329 C3328 1.367 . S
C3329 C3331 1.433 . S
C3330 C3326 1.350 . S
C3330 C3327 1.463 . S
C3330 N3334 1.427 . S
C3331 H3321 0.929 . S
C3331 C3329 1.433 . S
C3331 N3334 1.384 . S
C3332 H3323 0.929 . S
C3332 C3324 1.378 . S
C3332 C3327 1.350 . S
C3333 H3320 0.929 . S
C3333 C3325 1.433 . S
C3333 N3335 1.384 . S
N3334 C3330 1.427 . S
N3334 C3331 1.384 . S
N3335 C3327 1.427 . S
N3335 C3333 1.384 . S
H3336 C3342 0.930 . S
H3337 C3346 0.930 . S
H3338 C3351 0.929 . S
H3339 C3349 0.929 . S
H3340 C3344 0.929 . S
H3341 C3350 0.929 . S
C3342 H3336 0.930 . S
C3342 C3343 1.367 . S
C3342 C3350 1.378 . S
C3343 C3342 1.367 . S
C3343 C3351 1.433 . S
C3344 H3340 0.929 . S
C3344 C3346 1.378 . S
C3344 C3348 1.350 . S
C3345 C3348 1.463 . S
C3345 C3350 1.350 . S
C3345 N3353 1.427 . S
C3346 H3337 0.930 . S
C3346 C3344 1.378 . S
C3346 C3347 1.367 . S
C3347 C3346 1.367 . S
C3347 C3349 1.433 . S
C3348 C3344 1.350 . S
C3348 C3345 1.463 . S
C3348 N3352 1.427 . S
C3349 H3339 0.929 . S
C3349 C3347 1.433 . S
C3349 N3352 1.384 . S
C3350 H3341 0.929 . S
C3350 C3342 1.378 . S
C3350 C3345 1.350 . S
C3351 H3338 0.929 . S
C3351 C3343 1.433 . S
C3351 N3353 1.384 . S
N3352 C3348 1.427 . S
N3352 C3349 1.384 . S
N3353 C3345 1.427 . S
N3353 C3351 1.384 . S
H3354 C3360 0.930 . S
H3355 C3364 0.930 . S
H3356 C3369 0.929 . S
H3357 C3367 0.929 . S
H3358 C3362 0.929 . S
H3359 C3368 0.929 . S
C3360 H3354 0.930 . S
C3360 C3361 1.367 . S
C3360 C3368 1.378 . S
C3361 C3360 1.367 . S
C3361 C3369 1.433 . S
C3362 H3358 0.929 . S
C3362 C3364 1.378 . S
C3362 C3366 1.350 . S
C3363 C3366 1.463 . S
C3363 C3368 1.350 . S
C3363 N3371 1.427 . S
C3364 H3355 0.930 . S
C3364 C3362 1.378 . S
C3364 C3365 1.367 . S
C3365 C3364 1.367 . S
C3365 C3367 1.433 . S
C3366 C3362 1.350 . S
C3366 C3363 1.463 . S
C3366 N3370 1.427 . S
C3367 H3357 0.929 . S
C3367 C3365 1.433 . S
C3367 N3370 1.384 . S
C3368 H3359 0.929 . S
C3368 C3360 1.378 . S
C3368 C3363 1.350 . S
C3369 H3356 0.929 . S
C3369 C3361 1.433 . S
C3369 N3371 1.384 . S
N3370 C3366 1.427 . S
N3370 C3367 1.384 . S
N3371 C3363 1.427 . S
N3371 C3369 1.384 . S
H3372 C3378 0.930 . S
H3373 C3382 0.930 . S
H3374 C3387 0.929 . S
H3375 C3385 0.929 . S
H3376 C3380 0.929 . S
H3377 C3386 0.929 . S
C3378 H3372 0.930 . S
C3378 C3379 1.367 . S
C3378 C3386 1.378 . S
C3379 C3378 1.367 . S
C3379 C3387 1.433 . S
C3380 H3376 0.929 . S
C3380 C3382 1.378 . S
C3380 C3384 1.350 . S
C3381 C3384 1.463 . S
C3381 C3386 1.350 . S
C3381 N3389 1.427 . S
C3382 H3373 0.930 . S
C3382 C3380 1.378 . S
C3382 C3383 1.367 . S
C3383 C3382 1.367 . S
C3383 C3385 1.433 . S
C3384 C3380 1.350 . S
C3384 C3381 1.463 . S
C3384 N3388 1.427 . S
C3385 H3375 0.929 . S
C3385 C3383 1.433 . S
C3385 N3388 1.384 . S
C3386 H3377 0.929 . S
C3386 C3378 1.378 . S
C3386 C3381 1.350 . S
C3387 H3374 0.929 . S
C3387 C3379 1.433 . S
C3387 N3389 1.384 . S
N3388 C3384 1.427 . S
N3388 C3385 1.384 . S
N3389 C3381 1.427 . S
N3389 C3387 1.384 . S
H3390 C3396 0.930 . S
H3391 C3400 0.930 . S
H3392 C3405 0.929 . S
H3393 C3403 0.929 . S
H3394 C3398 0.929 . S
H3395 C3404 0.929 . S
C3396 H3390 0.930 . S
C3396 C3397 1.367 . S
C3396 C3404 1.378 . S
C3397 C3396 1.367 . S
C3397 C3405 1.433 . S
C3398 H3394 0.929 . S
C3398 C3400 1.378 . S
C3398 C3402 1.350 . S
C3399 C3402 1.463 . S
C3399 C3404 1.350 . S
C3399 N3407 1.427 . S
C3400 H3391 0.930 . S
C3400 C3398 1.378 . S
C3400 C3401 1.367 . S
C3401 C3400 1.367 . S
C3401 C3403 1.433 . S
C3402 C3398 1.350 . S
C3402 C3399 1.463 . S
C3402 N3406 1.427 . S
C3403 H3393 0.929 . S
C3403 C3401 1.433 . S
C3403 N3406 1.384 . S
C3404 H3395 0.929 . S
C3404 C3396 1.378 . S
C3404 C3399 1.350 . S
C3405 H3392 0.929 . S
C3405 C3397 1.433 . S
C3405 N3407 1.384 . S
N3406 C3402 1.427 . S
N3406 C3403 1.384 . S
N3407 C3399 1.427 . S
N3407 C3405 1.384 . S
H3408 C3414 0.930 . S
H3409 C3418 0.930 . S
H3410 C3423 0.929 . S
H3411 C3421 0.929 . S
H3412 C3416 0.929 . S
H3413 C3422 0.929 . S
C3414 H3408 0.930 . S
C3414 C3415 1.367 . S
C3414 C3422 1.378 . S
C3415 C3414 1.367 . S
C3415 C3423 1.433 . S
C3416 H3412 0.929 . S
C3416 C3418 1.378 . S
C3416 C3420 1.350 . S
C3417 C3420 1.463 . S
C3417 C3422 1.350 . S
C3417 N3425 1.427 . S
C3418 H3409 0.930 . S
C3418 C3416 1.378 . S
C3418 C3419 1.367 . S
C3419 C3418 1.367 . S
C3419 C3421 1.433 . S
C3420 C3416 1.350 . S
C3420 C3417 1.463 . S
C3420 N3424 1.427 . S
C3421 H3411 0.929 . S
C3421 C3419 1.433 . S
C3421 N3424 1.384 . S
C3422 H3413 0.929 . S
C3422 C3414 1.378 . S
C3422 C3417 1.350 . S
C3423 H3410 0.929 . S
C3423 C3415 1.433 . S
C3423 N3425 1.384 . S
N3424 C3420 1.427 . S
N3424 C3421 1.384 . S
N3425 C3417 1.427 . S
N3425 C3423 1.384 . S
H3426 C3432 0.930 . S
H3427 C3436 0.930 . S
H3428 C3441 0.929 . S
H3429 C3439 0.929 . S
H3430 C3434 0.929 . S
H3431 C3440 0.929 . S
C3432 H3426 0.930 . S
C3432 C3433 1.367 . S
C3432 C3440 1.378 . S
C3433 C3432 1.367 . S
C3433 C3441 1.433 . S
C3434 H3430 0.929 . S
C3434 C3436 1.378 . S
C3434 C3438 1.350 . S
C3435 C3438 1.463 . S
C3435 C3440 1.350 . S
C3435 N3443 1.427 . S
C3436 H3427 0.930 . S
C3436 C3434 1.378 . S
C3436 C3437 1.367 . S
C3437 C3436 1.367 . S
C3437 C3439 1.433 . S
C3438 C3434 1.350 . S
C3438 C3435 1.463 . S
C3438 N3442 1.427 . S
C3439 H3429 0.929 . S
C3439 C3437 1.433 . S
C3439 N3442 1.384 . S
C3440 H3431 0.929 . S
C3440 C3432 1.378 . S
C3440 C3435 1.350 . S
C3441 H3428 0.929 . S
C3441 C3433 1.433 . S
C3441 N3443 1.384 . S
N3442 C3438 1.427 . S
N3442 C3439 1.384 . S
N3443 C3435 1.427 . S
N3443 C3441 1.384 . S
H3444 C3450 0.930 . S
H3445 C3454 0.930 . S
H3446 C3459 0.929 . S
H3447 C3457 0.929 . S
H3448 C3452 0.929 . S
H3449 C3458 0.929 . S
C3450 H3444 0.930 . S
C3450 C3451 1.367 . S
C3450 C3458 1.378 . S
C3451 C3450 1.367 . S
C3451 C3459 1.433 . S
C3452 H3448 0.929 . S
C3452 C3454 1.378 . S
C3452 C3456 1.350 . S
C3453 C3456 1.463 . S
C3453 C3458 1.350 . S
C3453 N3461 1.427 . S
C3454 H3445 0.930 . S
C3454 C3452 1.378 . S
C3454 C3455 1.367 . S
C3455 C3454 1.367 . S
C3455 C3457 1.433 . S
C3456 C3452 1.350 . S
C3456 C3453 1.463 . S
C3456 N3460 1.427 . S
C3457 H3447 0.929 . S
C3457 C3455 1.433 . S
C3457 N3460 1.384 . S
C3458 H3449 0.929 . S
C3458 C3450 1.378 . S
C3458 C3453 1.350 . S
C3459 H3446 0.929 . S
C3459 C3451 1.433 . S
C3459 N3461 1.384 . S
N3460 C3456 1.427 . S
N3460 C3457 1.384 . S
N3461 C3453 1.427 . S
N3461 C3459 1.384 . S
H3462 C3468 0.930 . S
H3463 C3472 0.930 . S
H3464 C3477 0.929 . S
H3465 C3475 0.929 . S
H3466 C3470 0.929 . S
H3467 C3476 0.929 . S
C3468 H3462 0.930 . S
C3468 C3469 1.367 . S
C3468 C3476 1.378 . S
C3469 C3468 1.367 . S
C3469 C3477 1.433 . S
C3470 H3466 0.929 . S
C3470 C3472 1.378 . S
C3470 C3474 1.350 . S
C3471 C3474 1.463 . S
C3471 C3476 1.350 . S
C3471 N3479 1.427 . S
C3472 H3463 0.930 . S
C3472 C3470 1.378 . S
C3472 C3473 1.367 . S
C3473 C3472 1.367 . S
C3473 C3475 1.433 . S
C3474 C3470 1.350 . S
C3474 C3471 1.463 . S
C3474 N3478 1.427 . S
C3475 H3465 0.929 . S
C3475 C3473 1.433 . S
C3475 N3478 1.384 . S
C3476 H3467 0.929 . S
C3476 C3468 1.378 . S
C3476 C3471 1.350 . S
C3477 H3464 0.929 . S
C3477 C3469 1.433 . S
C3477 N3479 1.384 . S
N3478 C3474 1.427 . S
N3478 C3475 1.384 . S
N3479 C3471 1.427 . S
N3479 C3477 1.384 . S
H3480 C3486 0.930 . S
H3481 C3490 0.930 . S
H3482 C3495 0.929 . S
H3483 C3493 0.929 . S
H3484 C3488 0.929 . S
H3485 C3494 0.929 . S
C3486 H3480 0.930 . S
C3486 C3487 1.367 . S
C3486 C3494 1.378 . S
C3487 C3486 1.367 . S
C3487 C3495 1.433 . S
C3488 H3484 0.929 . S
C3488 C3490 1.378 . S
C3488 C3492 1.350 . S
C3489 C3492 1.463 . S
C3489 C3494 1.350 . S
C3489 N3497 1.427 . S
C3490 H3481 0.930 . S
C3490 C3488 1.378 . S
C3490 C3491 1.367 . S
C3491 C3490 1.367 . S
C3491 C3493 1.433 . S
C3492 C3488 1.350 . S
C3492 C3489 1.463 . S
C3492 N3496 1.427 . S
C3493 H3483 0.929 . S
C3493 C3491 1.433 . S
C3493 N3496 1.384 . S
C3494 H3485 0.929 . S
C3494 C3486 1.378 . S
C3494 C3489 1.350 . S
C3495 H3482 0.929 . S
C3495 C3487 1.433 . S
C3495 N3497 1.384 . S
N3496 C3492 1.427 . S
N3496 C3493 1.384 . S
N3497 C3489 1.427 . S
N3497 C3495 1.384 . S
H3498 C3504 0.930 . S
H3499 C3508 0.930 . S
H3500 C3513 0.929 . S
H3501 C3511 0.929 . S
H3502 C3506 0.929 . S
H3503 C3512 0.929 . S
C3504 H3498 0.930 . S
C3504 C3505 1.367 . S
C3504 C3512 1.378 . S
C3505 C3504 1.367 . S
C3505 C3513 1.433 . S
C3506 H3502 0.929 . S
C3506 C3508 1.378 . S
C3506 C3510 1.350 . S
C3507 C3510 1.463 . S
C3507 C3512 1.350 . S
C3507 N3515 1.427 . S
C3508 H3499 0.930 . S
C3508 C3506 1.378 . S
C3508 C3509 1.367 . S
C3509 C3508 1.367 . S
C3509 C3511 1.433 . S
C3510 C3506 1.350 . S
C3510 C3507 1.463 . S
C3510 N3514 1.427 . S
C3511 H3501 0.929 . S
C3511 C3509 1.433 . S
C3511 N3514 1.384 . S
C3512 H3503 0.929 . S
C3512 C3504 1.378 . S
C3512 C3507 1.350 . S
C3513 H3500 0.929 . S
C3513 C3505 1.433 . S
C3513 N3515 1.384 . S
N3514 C3510 1.427 . S
N3514 C3511 1.384 . S
N3515 C3507 1.427 . S
N3515 C3513 1.384 . S
H3516 C3522 0.930 . S
H3517 C3526 0.930 . S
H3518 C3531 0.929 . S
H3519 C3529 0.929 . S
H3520 C3524 0.929 . S
H3521 C3530 0.929 . S
C3522 H3516 0.930 . S
C3522 C3523 1.367 . S
C3522 C3530 1.378 . S
C3523 C3522 1.367 . S
C3523 C3531 1.433 . S
C3524 H3520 0.929 . S
C3524 C3526 1.378 . S
C3524 C3528 1.350 . S
C3525 C3528 1.463 . S
C3525 C3530 1.350 . S
C3525 N3533 1.427 . S
C3526 H3517 0.930 . S
C3526 C3524 1.378 . S
C3526 C3527 1.367 . S
C3527 C3526 1.367 . S
C3527 C3529 1.433 . S
C3528 C3524 1.350 . S
C3528 C3525 1.463 . S
C3528 N3532 1.427 . S
C3529 H3519 0.929 . S
C3529 C3527 1.433 . S
C3529 N3532 1.384 . S
C3530 H3521 0.929 . S
C3530 C3522 1.378 . S
C3530 C3525 1.350 . S
C3531 H3518 0.929 . S
C3531 C3523 1.433 . S
C3531 N3533 1.384 . S
N3532 C3528 1.427 . S
N3532 C3529 1.384 . S
N3533 C3525 1.427 . S
N3533 C3531 1.384 . S
H3534 C3540 0.930 . S
H3535 C3544 0.930 . S
H3536 C3549 0.929 . S
H3537 C3547 0.929 . S
H3538 C3542 0.929 . S
H3539 C3548 0.929 . S
C3540 H3534 0.930 . S
C3540 C3541 1.367 . S
C3540 C3548 1.378 . S
C3541 C3540 1.367 . S
C3541 C3549 1.433 . S
C3542 H3538 0.929 . S
C3542 C3544 1.378 . S
C3542 C3546 1.350 . S
C3543 C3546 1.463 . S
C3543 C3548 1.350 . S
C3543 N3551 1.427 . S
C3544 H3535 0.930 . S
C3544 C3542 1.378 . S
C3544 C3545 1.367 . S
C3545 C3544 1.367 . S
C3545 C3547 1.433 . S
C3546 C3542 1.350 . S
C3546 C3543 1.463 . S
C3546 N3550 1.427 . S
C3547 H3537 0.929 . S
C3547 C3545 1.433 . S
C3547 N3550 1.384 . S
C3548 H3539 0.929 . S
C3548 C3540 1.378 . S
C3548 C3543 1.350 . S
C3549 H3536 0.929 . S
C3549 C3541 1.433 . S
C3549 N3551 1.384 . S
N3550 C3546 1.427 . S
N3550 C3547 1.384 . S
N3551 C3543 1.427 . S
N3551 C3549 1.384 . S
H3552 C3558 0.930 . S
H3553 C3562 0.930 . S
H3554 C3567 0.929 . S
H3555 C3565 0.929 . S
H3556 C3560 0.929 . S
H3557 C3566 0.929 . S
C3558 H3552 0.930 . S
C3558 C3559 1.367 1_455 S
C3558 C3566 1.378 . S
C3559 C3558 1.367 1_655 S
C3559 C3567 1.433 . S
C3560 H3556 0.929 . S
C3560 C3562 1.378 . S
C3560 C3564 1.350 . S
C3561 C3564 1.463 . S
C3561 C3566 1.350 . S
C3561 N3569 1.427 . S
C3562 H3553 0.930 . S
C3562 C3560 1.378 . S
C3562 C3563 1.367 . S
C3563 C3562 1.367 . S
C3563 C3565 1.433 . S
C3564 C3560 1.350 . S
C3564 C3561 1.463 . S
C3564 N3568 1.427 . S
C3565 H3555 0.929 . S
C3565 C3563 1.433 . S
C3565 N3568 1.384 . S
C3566 H3557 0.929 . S
C3566 C3558 1.378 . S
C3566 C3561 1.350 . S
C3567 H3554 0.929 . S
C3567 C3559 1.433 . S
C3567 N3569 1.384 1_655 S
N3568 C3564 1.427 . S
N3568 C3565 1.384 . S
N3569 C3561 1.427 . S
N3569 C3567 1.384 1_455 S
H3570 C3576 0.930 . S
H3571 C3580 0.930 . S
H3572 C3585 0.929 . S
H3573 C3583 0.929 . S
H3574 C3578 0.929 . S
H3575 C3584 0.929 . S
C3576 H3570 0.930 . S
C3576 C3577 1.367 1_545 S
C3576 C3584 1.378 . S
C3577 C3576 1.367 1_565 S
C3577 C3585 1.433 . S
C3578 H3574 0.929 . S
C3578 C3580 1.378 . S
C3578 C3582 1.350 . S
C3579 C3582 1.463 . S
C3579 C3584 1.350 . S
C3579 N3587 1.427 1_545 S
C3580 H3571 0.930 . S
C3580 C3578 1.378 . S
C3580 C3581 1.367 . S
C3581 C3580 1.367 . S
C3581 C3583 1.433 . S
C3582 C3578 1.350 . S
C3582 C3579 1.463 . S
C3582 N3586 1.427 . S
C3583 H3573 0.929 . S
C3583 C3581 1.433 . S
C3583 N3586 1.384 . S
C3584 H3575 0.929 . S
C3584 C3576 1.378 . S
C3584 C3579 1.350 . S
C3585 H3572 0.929 . S
C3585 C3577 1.433 . S
C3585 N3587 1.384 . S
N3586 C3582 1.427 . S
N3586 C3583 1.384 . S
N3587 C3579 1.427 1_565 S
N3587 C3585 1.384 . S
H3588 C3594 0.930 . S
H3589 C3598 0.930 . S
H3590 C3603 0.929 . S
H3591 C3601 0.929 . S
H3592 C3596 0.929 . S
H3593 C3602 0.929 . S
C3594 H3588 0.930 . S
C3594 C3595 1.367 . S
C3594 C3602 1.378 . S
C3595 C3594 1.367 . S
C3595 C3603 1.433 . S
C3596 H3592 0.929 . S
C3596 C3598 1.378 . S
C3596 C3600 1.350 . S
C3597 C3600 1.463 . S
C3597 C3602 1.350 . S
C3597 N3605 1.427 . S
C3598 H3589 0.930 . S
C3598 C3596 1.378 . S
C3598 C3599 1.367 . S
C3599 C3598 1.367 . S
C3599 C3601 1.433 . S
C3600 C3596 1.350 . S
C3600 C3597 1.463 . S
C3600 N3604 1.427 . S
C3601 H3591 0.929 . S
C3601 C3599 1.433 . S
C3601 N3604 1.384 . S
C3602 H3593 0.929 . S
C3602 C3594 1.378 . S
C3602 C3597 1.350 . S
C3603 H3590 0.929 . S
C3603 C3595 1.433 . S
C3603 N3605 1.384 . S
N3604 C3600 1.427 . S
N3604 C3601 1.384 . S
N3605 C3597 1.427 . S
N3605 C3603 1.384 . S
H3606 C3612 0.930 . S
H3607 C3616 0.930 . S
H3608 C3621 0.929 . S
H3609 C3619 0.929 . S
H3610 C3614 0.929 . S
H3611 C3620 0.929 . S
C3612 H3606 0.930 . S
C3612 C3613 1.367 . S
C3612 C3620 1.378 . S
C3613 C3612 1.367 . S
C3613 C3621 1.433 . S
C3614 H3610 0.929 . S
C3614 C3616 1.378 . S
C3614 C3618 1.350 . S
C3615 C3618 1.463 . S
C3615 C3620 1.350 . S
C3615 N3623 1.427 . S
C3616 H3607 0.930 . S
C3616 C3614 1.378 . S
C3616 C3617 1.367 . S
C3617 C3616 1.367 . S
C3617 C3619 1.433 . S
C3618 C3614 1.350 . S
C3618 C3615 1.463 . S
C3618 N3622 1.427 . S
C3619 H3609 0.929 . S
C3619 C3617 1.433 . S
C3619 N3622 1.384 . S
C3620 H3611 0.929 . S
C3620 C3612 1.378 . S
C3620 C3615 1.350 . S
C3621 H3608 0.929 . S
C3621 C3613 1.433 . S
C3621 N3623 1.384 . S
N3622 C3618 1.427 . S
N3622 C3619 1.384 . S
N3623 C3615 1.427 . S
N3623 C3621 1.384 . S
H3624 C3630 0.930 . S
H3625 C3634 0.930 . S
H3626 C3639 0.929 . S
H3627 C3637 0.929 . S
H3628 C3632 0.929 . S
H3629 C3638 0.929 . S
C3630 H3624 0.930 . S
C3630 C3631 1.367 . S
C3630 C3638 1.378 . S
C3631 C3630 1.367 . S
C3631 C3639 1.433 . S
C3632 H3628 0.929 . S
C3632 C3634 1.378 . S
C3632 C3636 1.350 1_655 S
C3633 C3636 1.463 . S
C3633 C3638 1.350 . S
C3633 N3641 1.427 . S
C3634 H3625 0.930 . S
C3634 C3632 1.378 . S
C3634 C3635 1.367 . S
C3635 C3634 1.367 . S
C3635 C3637 1.433 1_655 S
C3636 C3632 1.350 1_455 S
C3636 C3633 1.463 . S
C3636 N3640 1.427 . S
C3637 H3627 0.929 . S
C3637 C3635 1.433 1_455 S
C3637 N3640 1.384 . S
C3638 H3629 0.929 . S
C3638 C3630 1.378 . S
C3638 C3633 1.350 . S
C3639 H3626 0.929 . S
C3639 C3631 1.433 . S
C3639 N3641 1.384 . S
N3640 C3636 1.427 . S
N3640 C3637 1.384 . S
N3641 C3633 1.427 . S
N3641 C3639 1.384 . S
H3642 C3648 0.930 . S
H3643 C3652 0.930 . S
H3644 C3657 0.929 . S
H3645 C3655 0.929 . S
H3646 C3650 0.929 . S
H3647 C3656 0.929 . S
C3648 H3642 0.930 . S
C3648 C3649 1.367 . S
C3648 C3656 1.378 . S
C3649 C3648 1.367 . S
C3649 C3657 1.433 . S
C3650 H3646 0.929 . S
C3650 C3652 1.378 . S
C3650 C3654 1.350 1_565 S
C3651 C3654 1.463 . S
C3651 C3656 1.350 . S
C3651 N3659 1.427 . S
C3652 H3643 0.930 . S
C3652 C3650 1.378 . S
C3652 C3653 1.367 . S
C3653 C3652 1.367 . S
C3653 C3655 1.433 1_565 S
C3654 C3650 1.350 1_545 S
C3654 C3651 1.463 . S
C3654 N3658 1.427 . S
C3655 H3645 0.929 . S
C3655 C3653 1.433 1_545 S
C3655 N3658 1.384 . S
C3656 H3647 0.929 . S
C3656 C3648 1.378 . S
C3656 C3651 1.350 . S
C3657 H3644 0.929 . S
C3657 C3649 1.433 . S
C3657 N3659 1.384 . S
N3658 C3654 1.427 . S
N3658 C3655 1.384 . S
N3659 C3651 1.427 . S
N3659 C3657 1.384 . S
H3660 C3666 0.930 . S
H3661 C3670 0.930 . S
H3662 C3675 0.929 . S
H3663 C3673 0.929 . S
H3664 C3668 0.929 . S
H3665 C3674 0.929 . S
C3666 H3660 0.930 . S
C3666 C3667 1.367 . S
C3666 C3674 1.378 . S
C3667 C3666 1.367 . S
C3667 C3675 1.433 . S
C3668 H3664 0.929 . S
C3668 C3670 1.378 . S
C3668 C3672 1.350 . S
C3669 C3672 1.463 . S
C3669 C3674 1.350 . S
C3669 N3677 1.427 . S
C3670 H3661 0.930 . S
C3670 C3668 1.378 . S
C3670 C3671 1.367 . S
C3671 C3670 1.367 . S
C3671 C3673 1.433 . S
C3672 C3668 1.350 . S
C3672 C3669 1.463 . S
C3672 N3676 1.427 . S
C3673 H3663 0.929 . S
C3673 C3671 1.433 . S
C3673 N3676 1.384 . S
C3674 H3665 0.929 . S
C3674 C3666 1.378 . S
C3674 C3669 1.350 . S
C3675 H3662 0.929 . S
C3675 C3667 1.433 . S
C3675 N3677 1.384 . S
N3676 C3672 1.427 . S
N3676 C3673 1.384 . S
N3677 C3669 1.427 . S
N3677 C3675 1.384 . S
H3678 C3684 0.930 . S
H3679 C3688 0.930 . S
H3680 C3693 0.929 . S
H3681 C3691 0.929 . S
H3682 C3686 0.929 . S
H3683 C3692 0.929 . S
C3684 H3678 0.930 . S
C3684 C3685 1.367 . S
C3684 C3692 1.378 . S
C3685 C3684 1.367 . S
C3685 C3693 1.433 . S
C3686 H3682 0.929 . S
C3686 C3688 1.378 . S
C3686 C3690 1.350 . S
C3687 C3690 1.463 . S
C3687 C3692 1.350 . S
C3687 N3695 1.427 . S
C3688 H3679 0.930 . S
C3688 C3686 1.378 . S
C3688 C3689 1.367 . S
C3689 C3688 1.367 . S
C3689 C3691 1.433 . S
C3690 C3686 1.350 . S
C3690 C3687 1.463 . S
C3690 N3694 1.427 . S
C3691 H3681 0.929 . S
C3691 C3689 1.433 . S
C3691 N3694 1.384 . S
C3692 H3683 0.929 . S
C3692 C3684 1.378 . S
C3692 C3687 1.350 . S
C3693 H3680 0.929 . S
C3693 C3685 1.433 . S
C3693 N3695 1.384 . S
N3694 C3690 1.427 . S
N3694 C3691 1.384 . S
N3695 C3687 1.427 . S
N3695 C3693 1.384 . S
H3696 C3702 0.930 . S
H3697 C3706 0.930 . S
H3698 C3711 0.929 . S
H3699 C3709 0.929 . S
H3700 C3704 0.929 . S
H3701 C3710 0.929 . S
C3702 H3696 0.930 . S
C3702 C3703 1.367 1_545 S
C3702 C3710 1.378 . S
C3703 C3702 1.367 1_565 S
C3703 C3711 1.433 . S
C3704 H3700 0.929 . S
C3704 C3706 1.378 . S
C3704 C3708 1.350 . S
C3705 C3708 1.463 . S
C3705 C3710 1.350 . S
C3705 N3713 1.427 . S
C3706 H3697 0.930 . S
C3706 C3704 1.378 . S
C3706 C3707 1.367 . S
C3707 C3706 1.367 . S
C3707 C3709 1.433 . S
C3708 C3704 1.350 . S
C3708 C3705 1.463 . S
C3708 N3712 1.427 . S
C3709 H3699 0.929 . S
C3709 C3707 1.433 . S
C3709 N3712 1.384 . S
C3710 H3701 0.929 . S
C3710 C3702 1.378 . S
C3710 C3705 1.350 . S
C3711 H3698 0.929 . S
C3711 C3703 1.433 . S
C3711 N3713 1.384 1_565 S
N3712 C3708 1.427 . S
N3712 C3709 1.384 . S
N3713 C3705 1.427 . S
N3713 C3711 1.384 1_545 S
H3714 C3720 0.930 . S
H3715 C3724 0.930 . S
H3716 C3729 0.929 . S
H3717 C3727 0.929 . S
H3718 C3722 0.929 . S
H3719 C3728 0.929 . S
C3720 H3714 0.930 . S
C3720 C3721 1.367 . S
C3720 C3728 1.378 . S
C3721 C3720 1.367 . S
C3721 C3729 1.433 . S
C3722 H3718 0.929 . S
C3722 C3724 1.378 . S
C3722 C3726 1.350 . S
C3723 C3726 1.463 . S
C3723 C3728 1.350 . S
C3723 N3731 1.427 . S
C3724 H3715 0.930 . S
C3724 C3722 1.378 . S
C3724 C3725 1.367 . S
C3725 C3724 1.367 . S
C3725 C3727 1.433 . S
C3726 C3722 1.350 . S
C3726 C3723 1.463 . S
C3726 N3730 1.427 . S
C3727 H3717 0.929 . S
C3727 C3725 1.433 . S
C3727 N3730 1.384 . S
C3728 H3719 0.929 . S
C3728 C3720 1.378 . S
C3728 C3723 1.350 . S
C3729 H3716 0.929 . S
C3729 C3721 1.433 . S
C3729 N3731 1.384 . S
N3730 C3726 1.427 . S
N3730 C3727 1.384 . S
N3731 C3723 1.427 . S
N3731 C3729 1.384 . S
H3732 C3738 0.930 . S
H3733 C3742 0.930 . S
H3734 C3747 0.929 . S
H3735 C3745 0.929 . S
H3736 C3740 0.929 . S
H3737 C3746 0.929 . S
C3738 H3732 0.930 . S
C3738 C3739 1.367 . S
C3738 C3746 1.378 . S
C3739 C3738 1.367 . S
C3739 C3747 1.433 . S
C3740 H3736 0.929 . S
C3740 C3742 1.378 . S
C3740 C3744 1.350 . S
C3741 C3744 1.463 . S
C3741 C3746 1.350 . S
C3741 N3749 1.427 . S
C3742 H3733 0.930 . S
C3742 C3740 1.378 . S
C3742 C3743 1.367 . S
C3743 C3742 1.367 . S
C3743 C3745 1.433 . S
C3744 C3740 1.350 . S
C3744 C3741 1.463 . S
C3744 N3748 1.427 . S
C3745 H3735 0.929 . S
C3745 C3743 1.433 . S
C3745 N3748 1.384 . S
C3746 H3737 0.929 . S
C3746 C3738 1.378 . S
C3746 C3741 1.350 . S
C3747 H3734 0.929 . S
C3747 C3739 1.433 . S
C3747 N3749 1.384 . S
N3748 C3744 1.427 . S
N3748 C3745 1.384 . S
N3749 C3741 1.427 . S
N3749 C3747 1.384 . S
H3750 C3756 0.930 . S
H3751 C3760 0.930 . S
H3752 C3765 0.929 . S
H3753 C3763 0.929 . S
H3754 C3758 0.930 . S
H3755 C3764 0.929 . S
C3756 H3750 0.930 . S
C3756 C3757 1.367 . S
C3756 C3764 1.378 . S
C3757 C3756 1.367 . S
C3757 C3765 1.433 . S
C3758 H3754 0.930 . S
C3758 C3760 1.378 1_455 S
C3758 C3762 1.350 . S
C3759 C3762 1.463 . S
C3759 C3764 1.350 . S
C3759 N3767 1.427 . S
C3760 H3751 0.930 . S
C3760 C3758 1.378 1_655 S
C3760 C3761 1.367 . S
C3761 C3760 1.367 . S
C3761 C3763 1.433 1_655 S
C3762 C3758 1.350 . S
C3762 C3759 1.463 . S
C3762 N3766 1.427 . S
C3763 H3753 0.929 . S
C3763 C3761 1.433 1_455 S
C3763 N3766 1.384 . S
C3764 H3755 0.929 . S
C3764 C3756 1.378 . S
C3764 C3759 1.350 . S
C3765 H3752 0.929 . S
C3765 C3757 1.433 . S
C3765 N3767 1.384 . S
N3766 C3762 1.427 . S
N3766 C3763 1.384 . S
N3767 C3759 1.427 . S
N3767 C3765 1.384 . S
H3768 C3774 0.930 . S
H3769 C3778 0.930 . S
H3770 C3783 0.929 . S
H3771 C3781 0.929 . S
H3772 C3776 0.929 . S
H3773 C3782 0.929 . S
C3774 H3768 0.930 . S
C3774 C3775 1.367 . S
C3774 C3782 1.378 . S
C3775 C3774 1.367 . S
C3775 C3783 1.433 . S
C3776 H3772 0.929 . S
C3776 C3778 1.378 . S
C3776 C3780 1.350 . S
C3777 C3780 1.463 . S
C3777 C3782 1.350 . S
C3777 N3785 1.427 . S
C3778 H3769 0.930 . S
C3778 C3776 1.378 . S
C3778 C3779 1.367 . S
C3779 C3778 1.367 . S
C3779 C3781 1.433 . S
C3780 C3776 1.350 . S
C3780 C3777 1.463 . S
C3780 N3784 1.427 . S
C3781 H3771 0.929 . S
C3781 C3779 1.433 . S
C3781 N3784 1.384 . S
C3782 H3773 0.929 . S
C3782 C3774 1.378 . S
C3782 C3777 1.350 . S
C3783 H3770 0.929 . S
C3783 C3775 1.433 . S
C3783 N3785 1.384 . S
N3784 C3780 1.427 . S
N3784 C3781 1.384 . S
N3785 C3777 1.427 . S
N3785 C3783 1.384 . S
H3786 C3792 0.930 . S
H3787 C3796 0.935 . S
H3788 C3801 0.929 . S
H3789 C3799 0.929 . S
H3790 C3794 0.929 . S
H3791 C3800 0.929 . S
C3792 H3786 0.930 . S
C3792 C3793 1.367 . S
C3792 C3800 1.378 . S
C3793 C3792 1.367 . S
C3793 C3801 1.433 . S
C3794 H3790 0.929 . S
C3794 C3796 1.364 1_455 S
C3794 C3798 1.350 . S
C3795 C3798 1.463 . S
C3795 C3800 1.350 . S
C3795 N3803 1.427 . S
C3796 H3787 0.935 . S
C3796 C3794 1.364 1_655 S
C3796 C3797 1.376 . S
C3797 C3796 1.376 . S
C3797 C3799 1.433 . S
C3798 C3794 1.350 . S
C3798 C3795 1.463 . S
C3798 N3802 1.427 . S
C3799 H3789 0.929 . S
C3799 C3797 1.433 . S
C3799 N3802 1.384 1_655 S
C3800 H3791 0.929 . S
C3800 C3792 1.378 . S
C3800 C3795 1.350 . S
C3801 H3788 0.929 . S
C3801 C3793 1.433 . S
C3801 N3803 1.384 . S
N3802 C3798 1.427 . S
N3802 C3799 1.384 1_455 S
N3803 C3795 1.427 . S
N3803 C3801 1.384 . S
H3804 C3810 0.930 . S
H3805 C3814 0.930 . S
H3806 C3819 0.929 . S
H3807 C3817 0.929 . S
H3808 C3812 0.929 . S
H3809 C3818 0.929 . S
C3810 H3804 0.930 . S
C3810 C3811 1.367 1_545 S
C3810 C3818 1.378 . S
C3811 C3810 1.367 1_565 S
C3811 C3819 1.433 . S
C3812 H3808 0.929 . S
C3812 C3814 1.378 . S
C3812 C3816 1.350 . S
C3813 C3816 1.463 . S
C3813 C3818 1.350 . S
C3813 N3821 1.427 . S
C3814 H3805 0.930 . S
C3814 C3812 1.378 . S
C3814 C3815 1.367 . S
C3815 C3814 1.367 . S
C3815 C3817 1.433 . S
C3816 C3812 1.350 . S
C3816 C3813 1.463 . S
C3816 N3820 1.427 . S
C3817 H3807 0.929 . S
C3817 C3815 1.433 . S
C3817 N3820 1.384 . S
C3818 H3809 0.929 . S
C3818 C3810 1.378 . S
C3818 C3813 1.350 . S
C3819 H3806 0.929 . S
C3819 C3811 1.433 . S
C3819 N3821 1.384 1_565 S
N3820 C3816 1.427 . S
N3820 C3817 1.384 . S
N3821 C3813 1.427 . S
N3821 C3819 1.384 1_545 S
H3822 C3828 0.930 . S
H3823 C3832 0.930 . S
H3824 C3837 0.929 . S
H3825 C3835 0.929 . S
H3826 C3830 0.929 . S
H3827 C3836 0.929 . S
C3828 H3822 0.930 . S
C3828 C3829 1.367 . S
C3828 C3836 1.378 . S
C3829 C3828 1.367 . S
C3829 C3837 1.433 . S
C3830 H3826 0.929 . S
C3830 C3832 1.378 . S
C3830 C3834 1.350 . S
C3831 C3834 1.463 . S
C3831 C3836 1.350 . S
C3831 N3839 1.427 . S
C3832 H3823 0.930 . S
C3832 C3830 1.378 . S
C3832 C3833 1.367 . S
C3833 C3832 1.367 . S
C3833 C3835 1.433 . S
C3834 C3830 1.350 . S
C3834 C3831 1.463 . S
C3834 N3838 1.427 . S
C3835 H3825 0.929 . S
C3835 C3833 1.433 . S
C3835 N3838 1.384 . S
C3836 H3827 0.929 . S
C3836 C3828 1.378 . S
C3836 C3831 1.350 . S
C3837 H3824 0.929 . S
C3837 C3829 1.433 . S
C3837 N3839 1.384 . S
N3838 C3834 1.427 . S
N3838 C3835 1.384 . S
N3839 C3831 1.427 . S
N3839 C3837 1.384 . S
H3840 C3846 0.930 . S
H3841 C3850 0.930 . S
H3842 C3855 0.929 . S
H3843 C3853 0.929 . S
H3844 C3848 0.929 . S
H3845 C3854 0.929 . S
C3846 H3840 0.930 . S
C3846 C3847 1.367 . S
C3846 C3854 1.378 . S
C3847 C3846 1.367 . S
C3847 C3855 1.433 . S
C3848 H3844 0.929 . S
C3848 C3850 1.378 . S
C3848 C3852 1.350 . S
C3849 C3852 1.463 . S
C3849 C3854 1.350 . S
C3849 N3857 1.427 . S
C3850 H3841 0.930 . S
C3850 C3848 1.378 . S
C3850 C3851 1.367 1_554 S
C3851 C3850 1.367 1_556 S
C3851 C3853 1.433 . S
C3852 C3848 1.350 . S
C3852 C3849 1.463 . S
C3852 N3856 1.427 1_554 S
C3853 H3843 0.929 . S
C3853 C3851 1.433 . S
C3853 N3856 1.384 . S
C3854 H3845 0.929 . S
C3854 C3846 1.378 . S
C3854 C3849 1.350 . S
C3855 H3842 0.929 . S
C3855 C3847 1.433 . S
C3855 N3857 1.384 . S
N3856 C3852 1.427 1_556 S
N3856 C3853 1.384 . S
N3857 C3849 1.427 . S
N3857 C3855 1.384 . S
H3858 C3864 0.930 . S
H3859 C3868 0.930 . S
H3860 C3873 0.929 . S
H3861 C3871 0.929 . S
H3862 C3866 0.929 . S
H3863 C3872 0.929 . S
C3864 H3858 0.930 . S
C3864 C3865 1.367 . S
C3864 C3872 1.378 . S
C3865 C3864 1.367 . S
C3865 C3873 1.433 . S
C3866 H3862 0.929 . S
C3866 C3868 1.378 . S
C3866 C3870 1.350 . S
C3867 C3870 1.463 . S
C3867 C3872 1.350 . S
C3867 N3875 1.427 . S
C3868 H3859 0.930 . S
C3868 C3866 1.378 . S
C3868 C3869 1.367 . S
C3869 C3868 1.367 . S
C3869 C3871 1.433 . S
C3870 C3866 1.350 . S
C3870 C3867 1.463 . S
C3870 N3874 1.427 . S
C3871 H3861 0.929 . S
C3871 C3869 1.433 . S
C3871 N3874 1.384 . S
C3872 H3863 0.929 . S
C3872 C3864 1.378 . S
C3872 C3867 1.350 . S
C3873 H3860 0.929 . S
C3873 C3865 1.433 . S
C3873 N3875 1.384 . S
N3874 C3870 1.427 . S
N3874 C3871 1.384 . S
N3875 C3867 1.427 . S
N3875 C3873 1.384 . S
H3876 C3882 0.930 . S
H3877 C3886 0.930 . S
H3878 C3891 0.929 . S
H3879 C3889 0.929 . S
H3880 C3884 0.929 . S
H3881 C3890 0.929 . S
C3882 H3876 0.930 . S
C3882 C3883 1.367 . S
C3882 C3890 1.378 . S
C3883 C3882 1.367 . S
C3883 C3891 1.433 . S
C3884 H3880 0.929 . S
C3884 C3886 1.378 . S
C3884 C3888 1.350 . S
C3885 C3888 1.463 . S
C3885 C3890 1.350 . S
C3885 N3893 1.427 . S
C3886 H3877 0.930 . S
C3886 C3884 1.378 . S
C3886 C3887 1.367 . S
C3887 C3886 1.367 . S
C3887 C3889 1.433 . S
C3888 C3884 1.350 . S
C3888 C3885 1.463 . S
C3888 N3892 1.427 . S
C3889 H3879 0.929 . S
C3889 C3887 1.433 . S
C3889 N3892 1.384 . S
C3890 H3881 0.929 . S
C3890 C3882 1.378 . S
C3890 C3885 1.350 . S
C3891 H3878 0.929 . S
C3891 C3883 1.433 . S
C3891 N3893 1.384 . S
N3892 C3888 1.427 . S
N3892 C3889 1.384 . S
N3893 C3885 1.427 . S
N3893 C3891 1.384 . S
H3894 C3900 0.930 . S
H3895 C3904 0.930 . S
H3896 C3909 0.929 . S
H3897 C3907 0.929 . S
H3898 C3902 0.929 . S
H3899 C3908 0.929 . S
C3900 H3894 0.930 . S
C3900 C3901 1.367 . S
C3900 C3908 1.378 . S
C3901 C3900 1.367 . S
C3901 C3909 1.433 . S
C3902 H3898 0.929 . S
C3902 C3904 1.378 . S
C3902 C3906 1.350 . S
C3903 C3906 1.463 . S
C3903 C3908 1.350 . S
C3903 N3911 1.427 . S
C3904 H3895 0.930 . S
C3904 C3902 1.378 . S
C3904 C3905 1.367 . S
C3905 C3904 1.367 . S
C3905 C3907 1.433 . S
C3906 C3902 1.350 . S
C3906 C3903 1.463 . S
C3906 N3910 1.427 . S
C3907 H3897 0.929 . S
C3907 C3905 1.433 . S
C3907 N3910 1.384 . S
C3908 H3899 0.929 . S
C3908 C3900 1.378 . S
C3908 C3903 1.350 . S
C3909 H3896 0.929 . S
C3909 C3901 1.433 . S
C3909 N3911 1.384 . S
N3910 C3906 1.427 . S
N3910 C3907 1.384 . S
N3911 C3903 1.427 . S
N3911 C3909 1.384 . S
H3912 C3918 0.930 . S
H3913 C3922 0.930 . S
H3914 C3927 0.929 . S
H3915 C3925 0.929 . S
H3916 C3920 0.929 . S
H3917 C3926 0.929 . S
C3918 H3912 0.930 . S
C3918 C3919 1.367 . S
C3918 C3926 1.378 . S
C3919 C3918 1.367 . S
C3919 C3927 1.433 . S
C3920 H3916 0.929 . S
C3920 C3922 1.378 . S
C3920 C3924 1.350 . S
C3921 C3924 1.463 . S
C3921 C3926 1.350 . S
C3921 N3929 1.427 . S
C3922 H3913 0.930 . S
C3922 C3920 1.378 . S
C3922 C3923 1.367 . S
C3923 C3922 1.367 . S
C3923 C3925 1.433 . S
C3924 C3920 1.350 . S
C3924 C3921 1.463 . S
C3924 N3928 1.427 . S
C3925 H3915 0.929 . S
C3925 C3923 1.433 . S
C3925 N3928 1.384 . S
C3926 H3917 0.929 . S
C3926 C3918 1.378 . S
C3926 C3921 1.350 . S
C3927 H3914 0.929 . S
C3927 C3919 1.433 . S
C3927 N3929 1.384 . S
N3928 C3924 1.427 . S
N3928 C3925 1.384 . S
N3929 C3921 1.427 . S
N3929 C3927 1.384 . S
H3930 C3936 0.930 . S
H3931 C3940 0.936 . S
H3932 C3945 0.929 . S
H3933 C3943 0.929 . S
H3934 C3938 0.929 . S
H3935 C3944 0.929 . S
C3936 H3930 0.930 . S
C3936 C3937 1.367 . S
C3936 C3944 1.378 . S
C3937 C3936 1.367 . S
C3937 C3945 1.433 . S
C3938 H3934 0.929 . S
C3938 C3940 1.378 . S
C3938 C3942 1.350 . S
C3939 C3942 1.463 . S
C3939 C3944 1.350 . S
C3939 N3947 1.427 . S
C3940 H3931 0.936 . S
C3940 C3938 1.378 . S
C3940 C3941 1.367 1_554 S
C3941 C3940 1.367 1_556 S
C3941 C3943 1.433 . S
C3942 C3938 1.350 . S
C3942 C3939 1.463 . S
C3942 N3946 1.427 . S
C3943 H3933 0.929 . S
C3943 C3941 1.433 . S
C3943 N3946 1.384 1_556 S
C3944 H3935 0.929 . S
C3944 C3936 1.378 . S
C3944 C3939 1.350 . S
C3945 H3932 0.929 . S
C3945 C3937 1.433 . S
C3945 N3947 1.384 . S
N3946 C3942 1.427 . S
N3946 C3943 1.384 1_554 S
N3947 C3939 1.427 . S
N3947 C3945 1.384 . S
H3948 C3954 0.930 . S
H3949 C3958 0.930 . S
H3950 C3963 0.929 . S
H3951 C3961 0.929 . S
H3952 C3956 0.929 . S
H3953 C3962 0.929 . S
C3954 H3948 0.930 . S
C3954 C3955 1.367 1_554 S
C3954 C3962 1.378 . S
C3955 C3954 1.367 1_556 S
C3955 C3963 1.433 . S
C3956 H3952 0.929 . S
C3956 C3958 1.378 . S
C3956 C3960 1.350 . S
C3957 C3960 1.463 . S
C3957 C3962 1.350 . S
C3957 N3965 1.427 1_554 S
C3958 H3949 0.930 . S
C3958 C3956 1.378 . S
C3958 C3959 1.367 . S
C3959 C3958 1.367 . S
C3959 C3961 1.433 . S
C3960 C3956 1.350 . S
C3960 C3957 1.463 . S
C3960 N3964 1.427 . S
C3961 H3951 0.929 . S
C3961 C3959 1.433 . S
C3961 N3964 1.384 . S
C3962 H3953 0.929 . S
C3962 C3954 1.378 . S
C3962 C3957 1.350 . S
C3963 H3950 0.929 . S
C3963 C3955 1.433 . S
C3963 N3965 1.384 . S
N3964 C3960 1.427 . S
N3964 C3961 1.384 . S
N3965 C3957 1.427 1_556 S
N3965 C3963 1.384 . S
H3966 C3972 0.930 . S
H3967 C3976 0.930 . S
H3968 C3981 0.929 . S
H3969 C3979 0.929 . S
H3970 C3974 0.929 . S
H3971 C3980 0.929 . S
C3972 H3966 0.930 . S
C3972 C3973 1.367 . S
C3972 C3980 1.378 . S
C3973 C3972 1.367 . S
C3973 C3981 1.433 . S
C3974 H3970 0.929 . S
C3974 C3976 1.378 . S
C3974 C3978 1.350 . S
C3975 C3978 1.463 . S
C3975 C3980 1.350 . S
C3975 N3983 1.427 . S
C3976 H3967 0.930 . S
C3976 C3974 1.378 . S
C3976 C3977 1.367 1_554 S
C3977 C3976 1.367 1_556 S
C3977 C3979 1.433 . S
C3978 C3974 1.350 . S
C3978 C3975 1.463 . S
C3978 N3982 1.427 1_554 S
C3979 H3969 0.929 . S
C3979 C3977 1.433 . S
C3979 N3982 1.384 . S
C3980 H3971 0.929 . S
C3980 C3972 1.378 . S
C3980 C3975 1.350 . S
C3981 H3968 0.929 . S
C3981 C3973 1.433 . S
C3981 N3983 1.384 . S
N3982 C3978 1.427 1_556 S
N3982 C3979 1.384 . S
N3983 C3975 1.427 . S
N3983 C3981 1.384 . S
H3984 C3990 0.930 . S
H3985 C3994 0.930 . S
H3986 C3999 0.934 . S
H3987 C3997 0.929 . S
H3988 C3992 0.929 . S
H3989 C3998 0.929 . S
C3990 H3984 0.930 . S
C3990 C3991 1.367 . S
C3990 C3998 1.378 1_455 S
C3991 C3990 1.367 . S
C3991 C3999 1.433 1_455 S
C3992 H3988 0.929 . S
C3992 C3994 1.378 . S
C3992 C3996 1.350 . S
C3993 C3996 1.463 . S
C3993 C3998 1.350 . S
C3993 N4001 1.427 . S
C3994 H3985 0.930 . S
C3994 C3992 1.378 . S
C3994 C3995 1.367 . S
C3995 C3994 1.367 . S
C3995 C3997 1.433 . S
C3996 C3992 1.350 . S
C3996 C3993 1.463 . S
C3996 N4000 1.427 . S
C3997 H3987 0.929 . S
C3997 C3995 1.433 . S
C3997 N4000 1.384 . S
C3998 H3989 0.929 . S
C3998 C3990 1.378 1_655 S
C3998 C3993 1.350 . S
C3999 H3986 0.934 . S
C3999 C3991 1.433 1_655 S
C3999 N4001 1.384 . S
N4000 C3996 1.427 . S
N4000 C3997 1.384 . S
N4001 C3993 1.427 . S
N4001 C3999 1.384 . S
H4002 C4008 0.930 . S
H4003 C4012 0.930 . S
H4004 C4017 0.929 . S
H4005 C4015 0.929 . S
H4006 C4010 0.929 . S
H4007 C4016 0.929 . S
C4008 H4002 0.930 . S
C4008 C4009 1.367 . S
C4008 C4016 1.378 . S
C4009 C4008 1.367 . S
C4009 C4017 1.433 . S
C4010 H4006 0.929 . S
C4010 C4012 1.378 . S
C4010 C4014 1.350 . S
C4011 C4014 1.463 . S
C4011 C4016 1.350 . S
C4011 N4019 1.427 . S
C4012 H4003 0.930 . S
C4012 C4010 1.378 . S
C4012 C4013 1.367 1_565 S
C4013 C4012 1.367 1_545 S
C4013 C4015 1.433 . S
C4014 C4010 1.350 . S
C4014 C4011 1.463 . S
C4014 N4018 1.427 1_565 S
C4015 H4005 0.929 . S
C4015 C4013 1.433 . S
C4015 N4018 1.384 . S
C4016 H4007 0.929 . S
C4016 C4008 1.378 . S
C4016 C4011 1.350 . S
C4017 H4004 0.929 . S
C4017 C4009 1.433 . S
C4017 N4019 1.384 . S
N4018 C4014 1.427 1_545 S
N4018 C4015 1.384 . S
N4019 C4011 1.427 . S
N4019 C4017 1.384 . S
H4020 C4026 0.930 . S
H4021 C4030 0.930 . S
H4022 C4035 0.929 . S
H4023 C4033 0.929 . S
H4024 C4028 0.929 . S
H4025 C4034 0.929 . S
C4026 H4020 0.930 . S
C4026 C4027 1.367 . S
C4026 C4034 1.378 . S
C4027 C4026 1.367 . S
C4027 C4035 1.433 . S
C4028 H4024 0.929 . S
C4028 C4030 1.378 . S
C4028 C4032 1.350 . S
C4029 C4032 1.463 . S
C4029 C4034 1.350 . S
C4029 N4037 1.427 . S
C4030 H4021 0.930 . S
C4030 C4028 1.378 . S
C4030 C4031 1.367 . S
C4031 C4030 1.367 . S
C4031 C4033 1.433 . S
C4032 C4028 1.350 . S
C4032 C4029 1.463 . S
C4032 N4036 1.427 . S
C4033 H4023 0.929 . S
C4033 C4031 1.433 . S
C4033 N4036 1.384 . S
C4034 H4025 0.929 . S
C4034 C4026 1.378 . S
C4034 C4029 1.350 . S
C4035 H4022 0.929 . S
C4035 C4027 1.433 . S
C4035 N4037 1.384 . S
N4036 C4032 1.427 . S
N4036 C4033 1.384 . S
N4037 C4029 1.427 . S
N4037 C4035 1.384 . S
H4038 C4044 0.930 . S
H4039 C4048 0.930 . S
H4040 C4053 0.929 . S
H4041 C4051 0.929 . S
H4042 C4046 0.929 . S
H4043 C4052 0.929 . S
C4044 H4038 0.930 . S
C4044 C4045 1.367 . S
C4044 C4052 1.378 . S
C4045 C4044 1.367 . S
C4045 C4053 1.433 . S
C4046 H4042 0.929 . S
C4046 C4048 1.378 . S
C4046 C4050 1.350 . S
C4047 C4050 1.463 . S
C4047 C4052 1.350 . S
C4047 N4055 1.427 . S
C4048 H4039 0.930 . S
C4048 C4046 1.378 . S
C4048 C4049 1.367 . S
C4049 C4048 1.367 . S
C4049 C4051 1.433 . S
C4050 C4046 1.350 . S
C4050 C4047 1.463 . S
C4050 N4054 1.427 . S
C4051 H4041 0.929 . S
C4051 C4049 1.433 . S
C4051 N4054 1.384 . S
C4052 H4043 0.929 . S
C4052 C4044 1.378 . S
C4052 C4047 1.350 . S
C4053 H4040 0.929 . S
C4053 C4045 1.433 . S
C4053 N4055 1.384 . S
N4054 C4050 1.427 . S
N4054 C4051 1.384 . S
N4055 C4047 1.427 . S
N4055 C4053 1.384 . S
H4056 C4062 0.930 . S
H4057 C4066 0.930 . S
H4058 C4071 0.929 . S
H4059 C4069 0.922 1_455 S
H4060 C4064 0.929 . S
H4061 C4070 0.929 . S
C4062 H4056 0.930 . S
C4062 C4063 1.367 . S
C4062 C4070 1.378 . S
C4063 C4062 1.367 . S
C4063 C4071 1.433 . S
C4064 H4060 0.929 . S
C4064 C4066 1.378 1_655 S
C4064 C4068 1.350 . S
C4065 C4068 1.463 . S
C4065 C4070 1.350 . S
C4065 N4073 1.427 . S
C4066 H4057 0.930 . S
C4066 C4064 1.378 1_455 S
C4066 C4067 1.367 . S
C4067 C4066 1.367 . S
C4067 C4069 1.411 1_455 S
C4068 C4064 1.350 . S
C4068 C4065 1.463 . S
C4068 N4072 1.427 . S
C4069 H4059 0.922 1_655 S
C4069 C4067 1.411 1_655 S
C4069 N4072 1.414 . S
C4070 H4061 0.929 . S
C4070 C4062 1.378 . S
C4070 C4065 1.350 . S
C4071 H4058 0.929 . S
C4071 C4063 1.433 . S
C4071 N4073 1.384 . S
N4072 C4068 1.427 . S
N4072 C4069 1.414 . S
N4073 C4065 1.427 . S
N4073 C4071 1.384 . S
H4074 C4080 0.928 1_545 S
H4075 C4084 0.930 . S
H4076 C4089 0.929 . S
H4077 C4087 0.929 . S
H4078 C4082 0.929 . S
H4079 C4088 0.929 . S
C4080 H4074 0.928 1_565 S
C4080 C4081 1.358 1_565 S
C4080 C4088 1.390 . S
C4081 C4080 1.358 1_545 S
C4081 C4089 1.433 . S
C4082 H4078 0.929 . S
C4082 C4084 1.378 . S
C4082 C4086 1.350 . S
C4083 C4086 1.463 . S
C4083 C4088 1.350 . S
C4083 N4091 1.427 . S
C4084 H4075 0.930 . S
C4084 C4082 1.378 . S
C4084 C4085 1.367 . S
C4085 C4084 1.367 . S
C4085 C4087 1.433 . S
C4086 C4082 1.350 . S
C4086 C4083 1.463 . S
C4086 N4090 1.427 . S
C4087 H4077 0.929 . S
C4087 C4085 1.433 . S
C4087 N4090 1.384 . S
C4088 H4079 0.929 . S
C4088 C4080 1.390 . S
C4088 C4083 1.350 . S
C4089 H4076 0.929 . S
C4089 C4081 1.433 . S
C4089 N4091 1.384 1_545 S
N4090 C4086 1.427 . S
N4090 C4087 1.384 . S
N4091 C4083 1.427 . S
N4091 C4089 1.384 1_565 S
H4092 C4098 0.930 . S
H4093 C4102 0.930 . S
H4094 C4107 0.929 . S
H4095 C4105 0.929 . S
H4096 C4100 0.929 . S
H4097 C4106 0.929 . S
C4098 H4092 0.930 . S
C4098 C4099 1.367 . S
C4098 C4106 1.378 . S
C4099 C4098 1.367 . S
C4099 C4107 1.433 . S
C4100 H4096 0.929 . S
C4100 C4102 1.378 . S
C4100 C4104 1.350 . S
C4101 C4104 1.463 . S
C4101 C4106 1.350 . S
C4101 N4109 1.427 . S
C4102 H4093 0.930 . S
C4102 C4100 1.378 . S
C4102 C4103 1.367 . S
C4103 C4102 1.367 . S
C4103 C4105 1.433 . S
C4104 C4100 1.350 . S
C4104 C4101 1.463 . S
C4104 N4108 1.427 . S
C4105 H4095 0.929 . S
C4105 C4103 1.433 . S
C4105 N4108 1.384 . S
C4106 H4097 0.929 . S
C4106 C4098 1.378 . S
C4106 C4101 1.350 . S
C4107 H4094 0.929 . S
C4107 C4099 1.433 . S
C4107 N4109 1.384 . S
N4108 C4104 1.427 . S
N4108 C4105 1.384 . S
N4109 C4101 1.427 . S
N4109 C4107 1.384 . S
H4110 C4116 0.930 . S
H4111 C4120 0.930 . S
H4112 C4125 0.929 . S
H4113 C4123 0.929 . S
H4114 C4118 0.929 . S
H4115 C4124 0.929 . S
C4116 H4110 0.930 . S
C4116 C4117 1.367 . S
C4116 C4124 1.378 . S
C4117 C4116 1.367 . S
C4117 C4125 1.433 . S
C4118 H4114 0.929 . S
C4118 C4120 1.378 . S
C4118 C4122 1.350 . S
C4119 C4122 1.463 . S
C4119 C4124 1.350 . S
C4119 N4127 1.427 . S
C4120 H4111 0.930 . S
C4120 C4118 1.378 . S
C4120 C4121 1.367 . S
C4121 C4120 1.367 . S
C4121 C4123 1.433 . S
C4122 C4118 1.350 . S
C4122 C4119 1.463 . S
C4122 N4126 1.427 . S
C4123 H4113 0.929 . S
C4123 C4121 1.433 . S
C4123 N4126 1.384 . S
C4124 H4115 0.929 . S
C4124 C4116 1.378 . S
C4124 C4119 1.350 . S
C4125 H4112 0.929 . S
C4125 C4117 1.433 . S
C4125 N4127 1.384 . S
N4126 C4122 1.427 . S
N4126 C4123 1.384 . S
N4127 C4119 1.427 . S
N4127 C4125 1.384 . S
H4128 C4134 0.930 . S
H4129 C4138 0.930 . S
H4130 C4143 0.929 . S
H4131 C4141 0.929 . S
H4132 C4136 0.929 . S
H4133 C4142 0.929 . S
C4134 H4128 0.930 . S
C4134 C4135 1.367 . S
C4134 C4142 1.378 . S
C4135 C4134 1.367 . S
C4135 C4143 1.433 . S
C4136 H4132 0.929 . S
C4136 C4138 1.378 . S
C4136 C4140 1.350 . S
C4137 C4140 1.463 . S
C4137 C4142 1.350 . S
C4137 N4145 1.427 . S
C4138 H4129 0.930 . S
C4138 C4136 1.378 . S
C4138 C4139 1.367 1_565 S
C4139 C4138 1.367 1_545 S
C4139 C4141 1.433 . S
C4140 C4136 1.350 . S
C4140 C4137 1.463 . S
C4140 N4144 1.427 1_565 S
C4141 H4131 0.929 . S
C4141 C4139 1.433 . S
C4141 N4144 1.384 . S
C4142 H4133 0.929 . S
C4142 C4134 1.378 . S
C4142 C4137 1.350 . S
C4143 H4130 0.929 . S
C4143 C4135 1.433 . S
C4143 N4145 1.384 . S
N4144 C4140 1.427 1_545 S
N4144 C4141 1.384 . S
N4145 C4137 1.427 . S
N4145 C4143 1.384 . S
H4146 C4152 0.930 . S
H4147 C4156 0.930 . S
H4148 C4161 0.929 . S
H4149 C4159 0.929 . S
H4150 C4154 0.929 . S
H4151 C4160 0.929 . S
C4152 H4146 0.930 . S
C4152 C4153 1.367 . S
C4152 C4160 1.378 . S
C4153 C4152 1.367 . S
C4153 C4161 1.433 . S
C4154 H4150 0.929 . S
C4154 C4156 1.378 . S
C4154 C4158 1.350 . S
C4155 C4158 1.463 . S
C4155 C4160 1.350 . S
C4155 N4163 1.427 . S
C4156 H4147 0.930 . S
C4156 C4154 1.378 . S
C4156 C4157 1.367 . S
C4157 C4156 1.367 . S
C4157 C4159 1.433 . S
C4158 C4154 1.350 . S
C4158 C4155 1.463 . S
C4158 N4162 1.427 . S
C4159 H4149 0.929 . S
C4159 C4157 1.433 . S
C4159 N4162 1.384 . S
C4160 H4151 0.929 . S
C4160 C4152 1.378 . S
C4160 C4155 1.350 . S
C4161 H4148 0.929 . S
C4161 C4153 1.433 . S
C4161 N4163 1.384 . S
N4162 C4158 1.427 . S
N4162 C4159 1.384 . S
N4163 C4155 1.427 . S
N4163 C4161 1.384 . S
H4164 C4170 0.930 . S
H4165 C4174 0.930 . S
H4166 C4179 0.929 . S
H4167 C4177 0.929 . S
H4168 C4172 0.929 . S
H4169 C4178 0.929 . S
C4170 H4164 0.930 . S
C4170 C4171 1.367 . S
C4170 C4178 1.378 . S
C4171 C4170 1.367 . S
C4171 C4179 1.433 . S
C4172 H4168 0.929 . S
C4172 C4174 1.378 . S
C4172 C4176 1.350 . S
C4173 C4176 1.463 . S
C4173 C4178 1.350 . S
C4173 N4181 1.427 . S
C4174 H4165 0.930 . S
C4174 C4172 1.378 . S
C4174 C4175 1.367 . S
C4175 C4174 1.367 . S
C4175 C4177 1.433 . S
C4176 C4172 1.350 . S
C4176 C4173 1.463 . S
C4176 N4180 1.427 . S
C4177 H4167 0.929 . S
C4177 C4175 1.433 . S
C4177 N4180 1.384 . S
C4178 H4169 0.929 . S
C4178 C4170 1.378 . S
C4178 C4173 1.350 . S
C4179 H4166 0.929 . S
C4179 C4171 1.433 . S
C4179 N4181 1.384 . S
N4180 C4176 1.427 . S
N4180 C4177 1.384 . S
N4181 C4173 1.427 . S
N4181 C4179 1.384 . S
H4182 C4188 0.930 . S
H4183 C4192 0.930 . S
H4184 C4197 0.929 . S
H4185 C4195 0.929 . S
H4186 C4190 0.929 . S
H4187 C4196 0.929 . S
C4188 H4182 0.930 . S
C4188 C4189 1.367 . S
C4188 C4196 1.378 . S
C4189 C4188 1.367 . S
C4189 C4197 1.433 1_455 S
C4190 H4186 0.929 . S
C4190 C4192 1.378 . S
C4190 C4194 1.350 . S
C4191 C4194 1.463 . S
C4191 C4196 1.350 1_655 S
C4191 N4199 1.427 . S
C4192 H4183 0.930 . S
C4192 C4190 1.378 . S
C4192 C4193 1.367 . S
C4193 C4192 1.367 . S
C4193 C4195 1.433 . S
C4194 C4190 1.350 . S
C4194 C4191 1.463 . S
C4194 N4198 1.427 . S
C4195 H4185 0.929 . S
C4195 C4193 1.433 . S
C4195 N4198 1.384 . S
C4196 H4187 0.929 . S
C4196 C4188 1.378 . S
C4196 C4191 1.350 1_455 S
C4197 H4184 0.929 . S
C4197 C4189 1.433 1_655 S
C4197 N4199 1.384 . S
N4198 C4194 1.427 . S
N4198 C4195 1.384 . S
N4199 C4191 1.427 . S
N4199 C4197 1.384 . S
H4200 C4206 0.930 . S
H4201 C4210 0.930 . S
H4202 C4215 0.929 . S
H4203 C4213 0.929 . S
H4204 C4208 0.929 . S
H4205 C4214 0.929 . S
C4206 H4200 0.930 . S
C4206 C4207 1.367 . S
C4206 C4214 1.378 . S
C4207 C4206 1.367 . S
C4207 C4215 1.433 . S
C4208 H4204 0.929 . S
C4208 C4210 1.378 . S
C4208 C4212 1.350 . S
C4209 C4212 1.463 . S
C4209 C4214 1.350 . S
C4209 N4217 1.427 . S
C4210 H4201 0.930 . S
C4210 C4208 1.378 . S
C4210 C4211 1.367 . S
C4211 C4210 1.367 . S
C4211 C4213 1.433 . S
C4212 C4208 1.350 . S
C4212 C4209 1.463 . S
C4212 N4216 1.427 . S
C4213 H4203 0.929 . S
C4213 C4211 1.433 . S
C4213 N4216 1.384 . S
C4214 H4205 0.929 . S
C4214 C4206 1.378 . S
C4214 C4209 1.350 . S
C4215 H4202 0.929 . S
C4215 C4207 1.433 . S
C4215 N4217 1.384 . S
N4216 C4212 1.427 . S
N4216 C4213 1.384 . S
N4217 C4209 1.427 . S
N4217 C4215 1.384 . S
H4218 C4224 0.930 . S
H4219 C4228 0.930 . S
H4220 C4233 0.929 . S
H4221 C4231 0.929 . S
H4222 C4226 0.929 . S
H4223 C4232 0.929 . S
C4224 H4218 0.930 . S
C4224 C4225 1.367 1_655 S
C4224 C4232 1.378 . S
C4225 C4224 1.367 1_455 S
C4225 C4233 1.433 . S
C4226 H4222 0.929 . S
C4226 C4228 1.378 . S
C4226 C4230 1.350 . S
C4227 C4230 1.463 . S
C4227 C4232 1.350 . S
C4227 N4235 1.427 1_655 S
C4228 H4219 0.930 . S
C4228 C4226 1.378 . S
C4228 C4229 1.367 . S
C4229 C4228 1.367 . S
C4229 C4231 1.433 . S
C4230 C4226 1.350 . S
C4230 C4227 1.463 . S
C4230 N4234 1.427 . S
C4231 H4221 0.929 . S
C4231 C4229 1.433 . S
C4231 N4234 1.384 . S
C4232 H4223 0.929 . S
C4232 C4224 1.378 . S
C4232 C4227 1.350 . S
C4233 H4220 0.929 . S
C4233 C4225 1.433 . S
C4233 N4235 1.384 . S
N4234 C4230 1.427 . S
N4234 C4231 1.384 . S
N4235 C4227 1.427 1_455 S
N4235 C4233 1.384 . S
H4236 C4242 0.930 . S
H4237 C4246 0.930 . S
H4238 C4251 0.929 . S
H4239 C4249 0.929 . S
H4240 C4244 0.929 . S
H4241 C4250 0.929 . S
C4242 H4236 0.930 . S
C4242 C4243 1.367 1_565 S
C4242 C4250 1.378 . S
C4243 C4242 1.367 1_545 S
C4243 C4251 1.433 . S
C4244 H4240 0.929 . S
C4244 C4246 1.378 . S
C4244 C4248 1.350 . S
C4245 C4248 1.463 . S
C4245 C4250 1.350 . S
C4245 N4253 1.427 1_565 S
C4246 H4237 0.930 . S
C4246 C4244 1.378 . S
C4246 C4247 1.367 . S
C4247 C4246 1.367 . S
C4247 C4249 1.433 . S
C4248 C4244 1.350 . S
C4248 C4245 1.463 . S
C4248 N4252 1.427 . S
C4249 H4239 0.929 . S
C4249 C4247 1.433 . S
C4249 N4252 1.384 . S
C4250 H4241 0.929 . S
C4250 C4242 1.378 . S
C4250 C4245 1.350 . S
C4251 H4238 0.929 . S
C4251 C4243 1.433 . S
C4251 N4253 1.384 . S
N4252 C4248 1.427 . S
N4252 C4249 1.384 . S
N4253 C4245 1.427 1_545 S
N4253 C4251 1.384 . S
H4254 C4260 0.930 . S
H4255 C4264 0.930 . S
H4256 C4269 0.929 . S
H4257 C4267 0.929 . S
H4258 C4262 0.929 . S
H4259 C4268 0.929 . S
C4260 H4254 0.930 . S
C4260 C4261 1.367 . S
C4260 C4268 1.378 . S
C4261 C4260 1.367 . S
C4261 C4269 1.433 . S
C4262 H4258 0.929 . S
C4262 C4264 1.378 . S
C4262 C4266 1.350 . S
C4263 C4266 1.463 . S
C4263 C4268 1.350 . S
C4263 N4271 1.427 . S
C4264 H4255 0.930 . S
C4264 C4262 1.378 . S
C4264 C4265 1.367 . S
C4265 C4264 1.367 . S
C4265 C4267 1.433 . S
C4266 C4262 1.350 . S
C4266 C4263 1.463 . S
C4266 N4270 1.427 . S
C4267 H4257 0.929 . S
C4267 C4265 1.433 . S
C4267 N4270 1.384 . S
C4268 H4259 0.929 . S
C4268 C4260 1.378 . S
C4268 C4263 1.350 . S
C4269 H4256 0.929 . S
C4269 C4261 1.433 . S
C4269 N4271 1.384 . S
N4270 C4266 1.427 . S
N4270 C4267 1.384 . S
N4271 C4263 1.427 . S
N4271 C4269 1.384 . S
H4272 C4278 0.930 . S
H4273 C4282 0.930 . S
H4274 C4287 0.929 . S
H4275 C4285 0.929 . S
H4276 C4280 0.929 . S
H4277 C4286 0.929 . S
C4278 H4272 0.930 . S
C4278 C4279 1.367 1_556 S
C4278 C4286 1.378 . S
C4279 C4278 1.367 1_554 S
C4279 C4287 1.433 . S
C4280 H4276 0.929 . S
C4280 C4282 1.378 . S
C4280 C4284 1.350 . S
C4281 C4284 1.463 . S
C4281 C4286 1.350 . S
C4281 N4289 1.411 1_556 S
C4282 H4273 0.930 . S
C4282 C4280 1.378 . S
C4282 C4283 1.367 . S
C4283 C4282 1.367 . S
C4283 C4285 1.433 . S
C4284 C4280 1.350 . S
C4284 C4281 1.463 . S
C4284 N4288 1.427 . S
C4285 H4275 0.929 . S
C4285 C4283 1.433 . S
C4285 N4288 1.384 . S
C4286 H4277 0.929 . S
C4286 C4278 1.378 . S
C4286 C4281 1.350 . S
C4287 H4274 0.929 . S
C4287 C4279 1.433 . S
C4287 N4289 1.396 . S
N4288 C4284 1.427 . S
N4288 C4285 1.384 . S
N4289 C4281 1.411 1_554 S
N4289 C4287 1.396 . S
H4290 C4296 0.930 . S
H4291 C4300 0.930 . S
H4292 C4305 0.929 . S
H4293 C4303 0.929 . S
H4294 C4298 0.929 . S
H4295 C4304 0.929 . S
C4296 H4290 0.930 . S
C4296 C4297 1.367 . S
C4296 C4304 1.378 . S
C4297 C4296 1.367 . S
C4297 C4305 1.433 . S
C4298 H4294 0.929 . S
C4298 C4300 1.378 . S
C4298 C4302 1.350 . S
C4299 C4302 1.463 . S
C4299 C4304 1.350 . S
C4299 N4307 1.427 . S
C4300 H4291 0.930 . S
C4300 C4298 1.378 . S
C4300 C4301 1.367 . S
C4301 C4300 1.367 . S
C4301 C4303 1.433 . S
C4302 C4298 1.350 . S
C4302 C4299 1.463 . S
C4302 N4306 1.427 . S
C4303 H4293 0.929 . S
C4303 C4301 1.433 . S
C4303 N4306 1.384 . S
C4304 H4295 0.929 . S
C4304 C4296 1.378 . S
C4304 C4299 1.350 . S
C4305 H4292 0.929 . S
C4305 C4297 1.433 . S
C4305 N4307 1.384 . S
N4306 C4302 1.427 . S
N4306 C4303 1.384 . S
N4307 C4299 1.427 . S
N4307 C4305 1.384 . S
H4308 C4314 0.930 . S
H4309 C4318 0.930 . S
H4310 C4323 0.929 . S
H4311 C4321 0.929 . S
H4312 C4316 0.929 . S
H4313 C4322 0.929 . S
C4314 H4308 0.930 . S
C4314 C4315 1.367 . S
C4314 C4322 1.378 . S
C4315 C4314 1.367 . S
C4315 C4323 1.433 . S
C4316 H4312 0.929 . S
C4316 C4318 1.378 . S
C4316 C4320 1.350 . S
C4317 C4320 1.463 . S
C4317 C4322 1.350 . S
C4317 N4325 1.427 . S
C4318 H4309 0.930 . S
C4318 C4316 1.378 . S
C4318 C4319 1.367 . S
C4319 C4318 1.367 . S
C4319 C4321 1.433 . S
C4320 C4316 1.350 . S
C4320 C4317 1.463 . S
C4320 N4324 1.427 . S
C4321 H4311 0.929 . S
C4321 C4319 1.433 . S
C4321 N4324 1.384 . S
C4322 H4313 0.929 . S
C4322 C4314 1.378 . S
C4322 C4317 1.350 . S
C4323 H4310 0.929 . S
C4323 C4315 1.433 . S
C4323 N4325 1.384 . S
N4324 C4320 1.427 . S
N4324 C4321 1.384 . S
N4325 C4317 1.427 . S
N4325 C4323 1.384 . S
H4326 C4332 0.930 . S
H4327 C4336 0.930 . S
H4328 C4341 0.929 . S
H4329 C4339 0.929 . S
H4330 C4334 0.929 . S
H4331 C4340 0.929 . S
C4332 H4326 0.930 . S
C4332 C4333 1.367 . S
C4332 C4340 1.378 . S
C4333 C4332 1.367 . S
C4333 C4341 1.433 . S
C4334 H4330 0.929 . S
C4334 C4336 1.378 . S
C4334 C4338 1.350 . S
C4335 C4338 1.463 . S
C4335 C4340 1.350 . S
C4335 N4343 1.427 . S
C4336 H4327 0.930 . S
C4336 C4334 1.378 . S
C4336 C4337 1.367 . S
C4337 C4336 1.367 . S
C4337 C4339 1.433 . S
C4338 C4334 1.350 . S
C4338 C4335 1.463 . S
C4338 N4342 1.427 . S
C4339 H4329 0.929 . S
C4339 C4337 1.433 . S
C4339 N4342 1.384 . S
C4340 H4331 0.929 . S
C4340 C4332 1.378 . S
C4340 C4335 1.350 . S
C4341 H4328 0.929 . S
C4341 C4333 1.433 . S
C4341 N4343 1.384 . S
N4342 C4338 1.427 . S
N4342 C4339 1.384 . S
N4343 C4335 1.427 . S
N4343 C4341 1.384 . S
H4344 C4350 0.930 . S
H4345 C4354 0.930 . S
H4346 C4359 0.929 . S
H4347 C4357 0.929 . S
H4348 C4352 0.929 . S
H4349 C4358 0.929 . S
C4350 H4344 0.930 . S
C4350 C4351 1.367 . S
C4350 C4358 1.378 . S
C4351 C4350 1.367 . S
C4351 C4359 1.433 . S
C4352 H4348 0.929 . S
C4352 C4354 1.378 . S
C4352 C4356 1.350 . S
C4353 C4356 1.463 . S
C4353 C4358 1.350 . S
C4353 N4361 1.427 . S
C4354 H4345 0.930 . S
C4354 C4352 1.378 . S
C4354 C4355 1.367 . S
C4355 C4354 1.367 . S
C4355 C4357 1.433 . S
C4356 C4352 1.350 . S
C4356 C4353 1.463 . S
C4356 N4360 1.427 . S
C4357 H4347 0.929 . S
C4357 C4355 1.433 . S
C4357 N4360 1.384 . S
C4358 H4349 0.929 . S
C4358 C4350 1.378 . S
C4358 C4353 1.350 . S
C4359 H4346 0.929 . S
C4359 C4351 1.433 . S
C4359 N4361 1.384 . S
N4360 C4356 1.427 . S
N4360 C4357 1.384 . S
N4361 C4353 1.427 . S
N4361 C4359 1.384 . S
H4362 C4368 0.930 . S
H4363 C4372 0.930 . S
H4364 C4377 0.929 . S
H4365 C4375 0.929 . S
H4366 C4370 0.929 . S
H4367 C4376 0.929 . S
C4368 H4362 0.930 . S
C4368 C4369 1.367 . S
C4368 C4376 1.378 . S
C4369 C4368 1.367 . S
C4369 C4377 1.433 1_554 S
C4370 H4366 0.929 . S
C4370 C4372 1.378 . S
C4370 C4374 1.350 . S
C4371 C4374 1.463 . S
C4371 C4376 1.350 1_556 S
C4371 N4379 1.427 . S
C4372 H4363 0.930 . S
C4372 C4370 1.378 . S
C4372 C4373 1.367 . S
C4373 C4372 1.367 . S
C4373 C4375 1.433 . S
C4374 C4370 1.350 . S
C4374 C4371 1.463 . S
C4374 N4378 1.427 . S
C4375 H4365 0.929 . S
C4375 C4373 1.433 . S
C4375 N4378 1.384 . S
C4376 H4367 0.929 . S
C4376 C4368 1.378 . S
C4376 C4371 1.350 1_554 S
C4377 H4364 0.929 . S
C4377 C4369 1.433 1_556 S
C4377 N4379 1.384 . S
N4378 C4374 1.427 . S
N4378 C4375 1.384 . S
N4379 C4371 1.427 . S
N4379 C4377 1.384 . S
H4380 C4386 0.930 . S
H4381 C4390 0.930 . S
H4382 C4395 0.929 . S
H4383 C4393 0.929 . S
H4384 C4388 0.929 . S
H4385 C4394 0.929 . S
C4386 H4380 0.930 . S
C4386 C4387 1.367 . S
C4386 C4394 1.378 . S
C4387 C4386 1.367 . S
C4387 C4395 1.433 . S
C4388 H4384 0.929 . S
C4388 C4390 1.378 . S
C4388 C4392 1.350 1_554 S
C4389 C4392 1.463 . S
C4389 C4394 1.350 . S
C4389 N4397 1.427 . S
C4390 H4381 0.930 . S
C4390 C4388 1.378 . S
C4390 C4391 1.367 . S
C4391 C4390 1.367 . S
C4391 C4393 1.433 1_554 S
C4392 C4388 1.350 1_556 S
C4392 C4389 1.463 . S
C4392 N4396 1.427 . S
C4393 H4383 0.929 . S
C4393 C4391 1.433 1_556 S
C4393 N4396 1.384 . S
C4394 H4385 0.929 . S
C4394 C4386 1.378 . S
C4394 C4389 1.350 . S
C4395 H4382 0.929 . S
C4395 C4387 1.433 . S
C4395 N4397 1.384 . S
N4396 C4392 1.427 . S
N4396 C4393 1.384 . S
N4397 C4389 1.427 . S
N4397 C4395 1.384 . S
H4398 C4404 0.930 . S
H4399 C4408 0.930 . S
H4400 C4413 0.929 . S
H4401 C4411 0.929 . S
H4402 C4406 0.933 . S
H4403 C4412 0.929 . S
C4404 H4398 0.930 . S
C4404 C4405 1.367 . S
C4404 C4412 1.378 . S
C4405 C4404 1.367 . S
C4405 C4413 1.433 . S
C4406 H4402 0.933 . S
C4406 C4408 1.393 . S
C4406 C4410 1.331 1_554 S
C4407 C4410 1.463 . S
C4407 C4412 1.350 . S
C4407 N4415 1.427 . S
C4408 H4399 0.930 . S
C4408 C4406 1.393 . S
C4408 C4409 1.367 . S
C4409 C4408 1.367 . S
C4409 C4411 1.433 1_554 S
C4410 C4406 1.331 1_556 S
C4410 C4407 1.463 . S
C4410 N4414 1.427 . S
C4411 H4401 0.929 . S
C4411 C4409 1.433 1_556 S
C4411 N4414 1.384 . S
C4412 H4403 0.929 . S
C4412 C4404 1.378 . S
C4412 C4407 1.350 . S
C4413 H4400 0.929 . S
C4413 C4405 1.433 . S
C4413 N4415 1.384 . S
N4414 C4410 1.427 . S
N4414 C4411 1.384 . S
N4415 C4407 1.427 . S
N4415 C4413 1.384 . S
C1399 C5 2.768 . S
C1403 C643 2.765 . S
C1417 C469 2.767 . S
C1421 C34 2.761 . S
C1435 C63 2.762 . S
C1439 C672 2.755 . S
C1453 C92 2.760 . S
C1457 C614 2.767 . S
C1471 C121 2.757 . S
C1475 C527 2.764 . S
C1489 C556 2.767 . S
C1493 C150 2.760 . S
C1507 C585 2.763 . S
C1511 C179 2.756 . S
C1525 C498 2.755 . S
C1529 C208 2.757 . S
C1543 C237 2.756 . S
C1547 C382 2.756 . S
C1561 C266 2.760 . S
C1565 C411 2.767 . S
C1579 C295 2.767 . S
C1583 C440 2.767 . S
C1597 C353 2.768 . S
C1601 C324 2.766 . S
C1615 C701 2.765 . S
C1619 C1339 2.768 . S
C1633 C730 2.764 . S
C1637 C1165 2.757 . S
C1651 C759 2.756 . S
C1655 C1368 2.756 . S
C1669 C788 2.767 . S
C1673 C1310 2.760 . S
C1687 C1223 2.766 . S
C1691 C817 2.759 . S
C1705 C1252 2.764 . S
C1709 C846 2.757 . S
C1723 C1281 2.767 . S
C1727 C875 2.761 . S
C1741 C904 2.755 . S
C1745 C1194 2.758 . S
C1759 C1078 2.767 . S
C1763 C933 2.760 . S
C1777 C962 2.758 . S
C1781 C1107 2.755 . S
C1795 C1136 2.766 . S
C1799 C991 2.768 . S
C1813 C1020 2.765 . S
C1817 C1049 2.768 . S
C1831 C21 1.785 . S
C1835 C1315 1.839 . S
C1849 C50 1.780 . S
C1853 C1344 1.843 . S
C1867 C1170 1.843 . S
C1871 C79 1.779 . S
C1885 C108 1.789 . S
C1889 C1373 1.837 . S
C1903 C1257 1.842 . S
C1907 C137 1.780 . S
C1921 C166 1.782 . S
C1925 C1286 1.841 . S
C1939 C195 1.781 . S
C1943 C1199 1.842 . S
C1957 C224 1.783 . S
C1961 C1228 1.840 . S
C1975 C822 1.842 . S
C1979 C253 1.780 . S
C1993 C851 1.840 . S
C1997 C282 1.786 . S
C2011 C311 1.781 . S
C2015 C880 1.842 . S
C2029 C909 1.843 . S
C2033 C340 1.779 . S
C2047 C369 1.788 . S
C2051 C706 1.839 . S
C2065 C735 1.843 . S
C2069 C398 1.779 . S
C2083 C427 1.783 . S
C2087 C764 1.841 . S
C2101 C793 1.836 . S
C2105 C456 1.792 . S
C2119 C1112 1.838 . S
C2123 C485 1.789 . S
C2137 C514 1.792 . S
C2141 C996 1.836 . S
C2155 C543 1.783 . S
C2159 C1025 1.840 . S
C2173 C572 1.781 . S
C2177 C938 1.842 . S
C2191 C601 1.781 . S
C2195 C967 1.843 . S
C2209 C1054 1.836 . S
C2213 C630 1.792 . S
C2227 C659 1.790 . S
C2231 C1083 1.838 . S
C2245 C1141 1.842 . S
C2249 C688 1.780 . S
C2263 C619 1.842 . S
C2267 C717 1.781 . S
C2281 C648 1.841 . S
C2285 C746 1.782 . S
C2299 C474 1.842 . S
C2303 C775 1.781 . S
C2317 C804 1.785 . S
C2321 C677 1.841 . S
C2335 C833 1.792 . S
C2339 C561 1.836 . S
C2353 C590 1.841 . S
C2357 C862 1.782 . S
C2371 C891 1.779 . S
C2375 C503 1.843 . S
C2389 C532 1.842 . S
C2393 C920 1.783 . S
C2407 C949 1.787 . S
C2411 C126 1.839 . S
C2425 C155 1.841 . S
C2429 C978 1.782 . S
C2443 C1007 1.780 . S
C2447 C184 1.842 . S
C2461 C1036 1.792 . S
C2465 C213 1.836 . S
C2479 C10 1.842 . S
C2483 C1065 1.783 . S
C2497 C1094 1.779 . S
C2501 C39 1.843 . S
C2515 C68 1.838 . S
C2519 C1123 1.789 . S
C2533 C1152 1.786 . S
C2537 C97 1.838 . S
C2551 C1181 1.779 . S
C2555 C416 1.843 . S
C2569 C300 1.838 . S
C2573 C1210 1.790 . S
C2587 C1239 1.786 . S
C2591 C329 1.839 . S
C2605 C242 1.839 . S
C2609 C1268 1.784 . S
C2623 C1297 1.791 . S
C2627 C271 1.836 . S
C2641 C358 1.836 . S
C2645 C1326 1.792 . S
C2659 C387 1.843 . S
C2663 C1355 1.779 . S
C2677 C445 1.842 . S
C2681 C1384 1.780 . S
C2695 C3 1.711 . S
C2699 C680 1.459 . S
C2713 C622 1.449 . S
C2717 C32 1.711 . S
C2731 C651 1.449 . S
C2735 C61 1.710 . S
C2749 C477 1.463 . S
C2753 C90 1.708 . S
C2767 C119 1.710 . S
C2771 C593 1.449 . S
C2785 C148 1.708 . S
C2789 C506 1.474 . S
C2803 C177 1.708 . S
C2807 C535 1.473 . S
C2821 C564 1.451 . S
C2825 C206 1.711 . S
C2839 C332 1.462 . S
C2843 C235 1.711 . S
C2857 C245 1.466 . S
C2861 C264 1.707 . S
C2875 C293 1.707 . S
C2879 C274 1.469 . S
C2893 C303 1.468 . S
C2897 C322 1.710 . S
C2911 C351 1.709 . S
C2915 C390 1.474 . S
C2929 C380 1.710 . S
C2933 C419 1.449 . S
C2947 C409 1.711 . S
C2951 C448 1.459 . S
C2965 C438 1.711 . S
C2969 C361 1.451 . S
C2983 C467 1.710 . S
C2987 C158 1.450 . S
C3001 C100 1.468 . S
C3005 C496 1.707 . S
C3019 C13 1.449 . S
C3023 C525 1.711 . S
C3037 C554 1.709 . S
C3041 C42 1.474 . S
C3055 C71 1.456 . S
C3059 C583 1.708 . S
C3073 C216 1.459 . S
C3077 C612 1.708 . S
C3091 C641 1.711 . S
C3095 C129 1.459 . S
C3109 C187 1.449 . S
C3113 C670 1.711 . S
C3127 C699 1.710 . S
C3131 C1376 1.468 . S
C3145 C728 1.708 . S
C3149 C1318 1.457 . S
C3163 C1347 1.454 . S
C3167 C757 1.711 . S
C3181 C1173 1.474 . S
C3185 C786 1.709 . S
C3199 C815 1.709 . S
C3203 C1289 1.453 . S
C3217 C1202 1.450 . S
C3221 C844 1.710 . S
C3235 C873 1.710 . S
C3239 C1231 1.468 . S
C3253 C1260 1.473 . S
C3257 C902 1.709 . S
C3271 C931 1.709 . S
C3275 C1028 1.455 . S
C3289 C941 1.474 . S
C3293 C960 1.709 . S
C3307 C989 1.708 . S
C3311 C970 1.473 . S
C3325 C999 1.459 . S
C3329 C1018 1.711 . S
C3343 C1047 1.710 . S
C3347 C1086 1.468 . S
C3361 C1115 1.449 . S
C3365 C1076 1.710 . S
C3379 C1144 1.449 . S
C3383 C1105 1.710 . S
C3397 C1057 1.459 . S
C3401 C1134 1.711 . S
C3415 C854 1.452 . S
C3419 C1163 1.709 . S
C3433 C796 1.458 . S
C3437 C1192 1.708 . S
C3451 C709 1.469 . S
C3455 C1221 1.707 . S
C3469 C738 1.474 . S
C3473 C1250 1.709 . S
C3487 C767 1.449 . S
C3491 C1279 1.710 . S
C3505 C1308 1.711 . S
C3509 C912 1.449 . S
C3523 C1337 1.707 . S
C3527 C825 1.469 . S
C3541 C883 1.469 . S
C3545 C1366 1.707 . S
C3559 C1023 0.901 . S
C3563 C15 0.946 . S
C3577 C936 0.897 . S
C3581 C44 0.943 . S
C3595 C965 0.872 . S
C3599 C73 0.932 . S
C3613 C102 0.944 . S
C3617 C994 0.900 . S
C3631 C131 0.934 . S
C3635 C1081 0.875 . S
C3649 C160 0.934 . S
C3653 C1110 0.875 . S
C3667 C189 0.940 . S
C3671 C1139 0.890 . S
C3685 C1052 0.877 . S
C3689 C218 0.935 . S
C3703 C849 0.903 . S
C3707 C247 0.946 . S
C3721 C276 0.931 . S
C3725 C878 0.869 . S
C3739 C907 0.869 . S
C3743 C305 0.931 . S
C3757 C334 0.939 . S
C3761 C820 0.886 . S
C3775 C363 0.942 . S
C3779 C791 0.893 . S
C3793 C392 0.944 . S
C3797 C704 0.898 . S
C3811 C733 0.887 . S
C3815 C421 0.938 . S
C3829 C762 0.876 . S
C3833 C450 0.935 . S
C3847 C479 0.948 . S
C3851 C1371 0.906 . S
C3865 C1284 0.906 . S
C3869 C508 0.948 . S
C3883 C537 0.931 . S
C3887 C1197 0.869 . S
C3901 C1226 0.903 . S
C3905 C566 0.947 . S
C3919 C1255 0.903 . S
C3923 C595 0.946 . S
C3937 C624 0.945 . S
C3941 C1342 0.900 . S
C3955 C1168 0.906 . S
C3959 C653 0.948 . S
C3973 C682 0.946 . S
C3977 C1313 0.904 . S
C3991 C327 0.890 . S
C3995 C711 0.941 . S
C4009 C740 0.948 . S
C4013 C240 0.906 . S
C4027 C769 0.942 . S
C4031 C269 0.893 . S
C4045 C298 0.906 . S
C4049 C798 0.948 . S
C4063 C827 0.934 . S
C4067 C385 0.876 . S
C4081 C414 0.899 . S
C4085 C856 0.945 . S
C4099 C443 0.903 . S
C4103 C885 0.946 . S
C4117 C356 0.906 . S
C4121 C914 0.948 . S
C4135 C943 0.948 . S
C4139 C153 0.906 . S
C4153 C182 0.885 . S
C4157 C972 0.938 . S
C4171 C211 0.889 . S
C4175 C1001 0.940 . S
C4189 C124 0.882 . S
C4193 C1030 0.937 . S
C4207 C95 0.882 . S
C4211 C1059 0.937 . S
C4225 C8 0.906 . S
C4229 C1088 0.948 . S
C4243 C37 0.895 . S
C4247 C1117 0.942 . S
C4261 C1146 0.947 . S
C4265 C66 0.904 . S
C4279 C675 0.904 . S
C4283 C1175 0.947 . S
C4297 C1204 0.942 . S
C4301 C588 0.894 . S
C4315 C1233 0.943 . S
C4319 C501 0.896 . S
C4333 C1262 0.935 . S
C4337 C530 0.878 . S
C4351 C1291 0.945 . S
C4355 C559 0.900 . S
C4369 C646 0.869 . S
C4373 C1320 0.931 . S
C4387 C1349 0.935 . S
C4391 C472 0.876 . S
C4405 C1378 0.938 . S
C4409 C617 0.883 . S
