# Generated by pormake.
# Topology cag, (4)-cn, num edge types: 1
# Building blocks:
#     Node 0, Type 0, BuildingBlock: QUQFOY_clean_sbu_1, # of connection points: 4
#     Node 1, Type 0, BuildingBlock: QUQFOY_clean_sbu_1, # of connection points: 4
#     Node 2, Type 0, BuildingBlock: QUQFOY_clean_sbu_1, # of connection points: 4
#     Node 3, Type 0, BuildingBlock: QUQFOY_clean_sbu_1, # of connection points: 4
#     Node 4, Type 0, BuildingBlock: QUQFOY_clean_sbu_1, # of connection points: 4
#     Node 5, Type 0, BuildingBlock: QUQFOY_clean_sbu_1, # of connection points: 4
#     Node 6, Type 0, BuildingBlock: QUQFOY_clean_sbu_1, # of connection points: 4
#     Node 7, Type 0, BuildingBlock: QUQFOY_clean_sbu_1, # of connection points: 4
#     Node 8, Type 0, BuildingBlock: QUQFOY_clean_sbu_1, # of connection points: 4
#     Node 9, Type 0, BuildingBlock: QUQFOY_clean_sbu_1, # of connection points: 4
#     Node 10, Type 0, BuildingBlock: QUQFOY_clean_sbu_1, # of connection points: 4
#     Node 11, Type 0, BuildingBlock: QUQFOY_clean_sbu_1, # of connection points: 4
#     Node 12, Type 0, BuildingBlock: QUQFOY_clean_sbu_1, # of connection points: 4
#     Node 13, Type 0, BuildingBlock: QUQFOY_clean_sbu_1, # of connection points: 4
#     Node 14, Type 0, BuildingBlock: QUQFOY_clean_sbu_1, # of connection points: 4
#     Node 15, Type 0, BuildingBlock: QUQFOY_clean_sbu_1, # of connection points: 4
#     Edge 16, Type (0, 0), BuildingBlock: MIFKUJ_clean_linker_0, # of connection points: 2
#     Edge 17, Type (0, 0), BuildingBlock: MIFKUJ_clean_linker_0, # of connection points: 2
#     Edge 18, Type (0, 0), BuildingBlock: MIFKUJ_clean_linker_0, # of connection points: 2
#     Edge 19, Type (0, 0), BuildingBlock: MIFKUJ_clean_linker_0, # of connection points: 2
#     Edge 20, Type (0, 0), BuildingBlock: MIFKUJ_clean_linker_0, # of connection points: 2
#     Edge 21, Type (0, 0), BuildingBlock: MIFKUJ_clean_linker_0, # of connection points: 2
#     Edge 22, Type (0, 0), BuildingBlock: MIFKUJ_clean_linker_0, # of connection points: 2
#     Edge 23, Type (0, 0), BuildingBlock: MIFKUJ_clean_linker_0, # of connection points: 2
#     Edge 24, Type (0, 0), BuildingBlock: MIFKUJ_clean_linker_0, # of connection points: 2
#     Edge 25, Type (0, 0), BuildingBlock: MIFKUJ_clean_linker_0, # of connection points: 2
#     Edge 26, Type (0, 0), BuildingBlock: MIFKUJ_clean_linker_0, # of connection points: 2
#     Edge 27, Type (0, 0), BuildingBlock: MIFKUJ_clean_linker_0, # of connection points: 2
#     Edge 28, Type (0, 0), BuildingBlock: MIFKUJ_clean_linker_0, # of connection points: 2
#     Edge 29, Type (0, 0), BuildingBlock: MIFKUJ_clean_linker_0, # of connection points: 2
#     Edge 30, Type (0, 0), BuildingBlock: MIFKUJ_clean_linker_0, # of connection points: 2
#     Edge 31, Type (0, 0), BuildingBlock: MIFKUJ_clean_linker_0, # of connection points: 2
#     Edge 32, Type (0, 0), BuildingBlock: MIFKUJ_clean_linker_0, # of connection points: 2
#     Edge 33, Type (0, 0), BuildingBlock: MIFKUJ_clean_linker_0, # of connection points: 2
#     Edge 34, Type (0, 0), BuildingBlock: MIFKUJ_clean_linker_0, # of connection points: 2
#     Edge 35, Type (0, 0), BuildingBlock: MIFKUJ_clean_linker_0, # of connection points: 2
#     Edge 36, Type (0, 0), BuildingBlock: MIFKUJ_clean_linker_0, # of connection points: 2
#     Edge 37, Type (0, 0), BuildingBlock: MIFKUJ_clean_linker_0, # of connection points: 2
#     Edge 38, Type (0, 0), BuildingBlock: MIFKUJ_clean_linker_0, # of connection points: 2
#     Edge 39, Type (0, 0), BuildingBlock: MIFKUJ_clean_linker_0, # of connection points: 2
#     Edge 40, Type (0, 0), BuildingBlock: MIFKUJ_clean_linker_0, # of connection points: 2
#     Edge 41, Type (0, 0), BuildingBlock: MIFKUJ_clean_linker_0, # of connection points: 2
#     Edge 42, Type (0, 0), BuildingBlock: MIFKUJ_clean_linker_0, # of connection points: 2
#     Edge 43, Type (0, 0), BuildingBlock: MIFKUJ_clean_linker_0, # of connection points: 2
#     Edge 44, Type (0, 0), BuildingBlock: MIFKUJ_clean_linker_0, # of connection points: 2
#     Edge 45, Type (0, 0), BuildingBlock: MIFKUJ_clean_linker_0, # of connection points: 2
#     Edge 46, Type (0, 0), BuildingBlock: MIFKUJ_clean_linker_0, # of connection points: 2
#     Edge 47, Type (0, 0), BuildingBlock: MIFKUJ_clean_linker_0, # of connection points: 2
# Relax obj value: 0.138
# Max RMSD: 0.201
# Mean RMSD: 0.180
data_MOF--net-cag--node1-QUQFOY_clean_sbu_1--edge1-MIFKUJ_clean_linker_0
_symmetry_space_group_name_H-M    P1
_symmetry_Int_Tables_number       1
_symmetry_cell_setting            triclinic
loop_
_symmetry_equiv_pos_as_xyz
'x, y, z'
_cell_length_a     54.0169
_cell_length_b     71.233082
_cell_length_c     53.771255
_cell_angle_alpha  90.001198
_cell_angle_beta   89.995734
_cell_angle_gamma 89.99876
loop_
_atom_site_label
_atom_site_type_symbol
_atom_site_fract_x
_atom_site_fract_y
_atom_site_fract_z
_atom_type_partial_charge
O0 O 0.27998 0.15273 0.10225 0.0
Cd1 Cd 0.2948 0.1541 0.06714 0.0
Cd2 Cd 0.29103 0.1141 0.07065 0.0
O3 O 0.27603 0.12196 0.10432 0.0
O4 O 0.29339 0.18139 0.05972 0.0
O5 O 0.2732 0.16023 0.03757 0.0
C6 C 0.27857 0.17764 0.04165 0.0
C7 C 0.27369 0.08691 0.05346 0.0
C8 C 0.27357 0.1381 0.11405 0.0
C9 C 0.34184 0.1315 0.06398 0.0
O10 O 0.32885 0.11671 0.06613 0.0
O11 O 0.33175 0.14761 0.06376 0.0
O12 O 0.28679 0.08646 0.0734 0.0
O13 O 0.27032 0.10296 0.04285 0.0
O14 O 0.22389 0.84783 0.60771 0.0
Cd15 Cd 0.21016 0.84888 0.57182 0.0
Cd16 Cd 0.21495 0.88781 0.58113 0.0
O17 O 0.23227 0.87792 0.61236 0.0
O18 O 0.20994 0.82193 0.56222 0.0
O19 O 0.2322 0.84315 0.54234 0.0
C20 C 0.22537 0.82587 0.54475 0.0
C21 C 0.23166 0.91485 0.56305 0.0
C22 C 0.23262 0.86123 0.62061 0.0
C23 C 0.16374 0.87221 0.57319 0.0
O24 O 0.17689 0.88595 0.58043 0.0
O25 O 0.17365 0.85669 0.56718 0.0
O26 O 0.2208 0.91527 0.58433 0.0
O27 O 0.2333 0.89888 0.55181 0.0
O28 O 0.28053 0.84346 0.89476 0.0
Cd29 Cd 0.29489 0.84227 0.93011 0.0
Cd30 Cd 0.29293 0.88183 0.92591 0.0
O31 O 0.27951 0.87431 0.89143 0.0
O32 O 0.29189 0.81526 0.93869 0.0
O33 O 0.27283 0.83759 0.95982 0.0
C34 C 0.27731 0.81994 0.95659 0.0
C35 C 0.27502 0.9086 0.94361 0.0
C36 C 0.27593 0.85812 0.88218 0.0
C37 C 0.34277 0.86364 0.93449 0.0
O38 O 0.33035 0.87871 0.93239 0.0
O39 O 0.33214 0.84774 0.93386 0.0
O40 O 0.2892 0.90958 0.92444 0.0
O41 O 0.27074 0.89222 0.95294 0.0
O42 O 0.22461 0.15234 0.38804 0.0
Cd43 Cd 0.21069 0.15507 0.42349 0.0
Cd44 Cd 0.21234 0.11521 0.42089 0.0
O45 O 0.22629 0.12143 0.38627 0.0
O46 O 0.2132 0.18259 0.42893 0.0
O47 O 0.23267 0.16195 0.45253 0.0
C48 C 0.22778 0.17926 0.44734 0.0
C49 C 0.22974 0.08927 0.44103 0.0
C50 C 0.2295 0.13737 0.37621 0.0
C51 C 0.16265 0.13385 0.4288 0.0
O52 O 0.17486 0.11873 0.42624 0.0
O53 O 0.17354 0.14966 0.42851 0.0
O54 O 0.21608 0.08745 0.42159 0.0
O55 O 0.23383 0.10603 0.4492 0.0
O56 O 0.66871 0.8393 0.90466 0.0
Cd57 Cd 0.65403 0.86264 0.88765 0.0
Cd58 Cd 0.65825 0.87843 0.93368 0.0
O59 O 0.67646 0.85334 0.94042 0.0
O60 O 0.65944 0.86025 0.85122 0.0
O61 O 0.67761 0.88203 0.87439 0.0
C62 C 0.67443 0.8743 0.85287 0.0
C63 C 0.67369 0.90601 0.95155 0.0
C64 C 0.67758 0.8389 0.92653 0.0
C65 C 0.60681 0.87335 0.91229 0.0
O66 O 0.62009 0.87815 0.93071 0.0
O67 O 0.61677 0.86725 0.89249 0.0
O68 O 0.6632 0.89318 0.96472 0.0
O69 O 0.67635 0.9029 0.92803 0.0
O70 O 0.83423 0.16066 0.40802 0.0
Cd71 Cd 0.84872 0.1363 0.39316 0.0
Cd72 Cd 0.8464 0.12432 0.4406 0.0
O73 O 0.82871 0.14967 0.44597 0.0
O74 O 0.84401 0.13793 0.35652 0.0
O75 O 0.8248 0.11699 0.38011 0.0
C76 C 0.82858 0.1242 0.35839 0.0
C77 C 0.82965 0.09638 0.45563 0.0
C78 C 0.82668 0.1629 0.43021 0.0
C79 C 0.89693 0.12745 0.41823 0.0
O80 O 0.88439 0.1247 0.43788 0.0
O81 O 0.8861 0.1314 0.39792 0.0
O82 O 0.83913 0.1087 0.4704 0.0
O83 O 0.8288 0.10026 0.43217 0.0
O84 O 0.66698 0.15825 0.09369 0.0
Cd85 Cd 0.65332 0.13483 0.11135 0.0
Cd86 Cd 0.65657 0.11885 0.06565 0.0
O87 O 0.67294 0.14442 0.05746 0.0
O88 O 0.66034 0.13731 0.14749 0.0
O89 O 0.67752 0.11554 0.12359 0.0
C90 C 0.67532 0.12331 0.14521 0.0
C91 C 0.67329 0.0913 0.04903 0.0
C92 C 0.67449 0.15886 0.07131 0.0
C93 C 0.60572 0.12282 0.08862 0.0
O94 O 0.61859 0.11786 0.06998 0.0
O95 O 0.61603 0.12971 0.10777 0.0
O96 O 0.66173 0.10328 0.03536 0.0
O97 O 0.67634 0.09532 0.07226 0.0
O98 O 0.83473 0.84357 0.58773 0.0
Cd99 Cd 0.84901 0.86754 0.60431 0.0
Cd100 Cd 0.84844 0.88025 0.55722 0.0
O101 O 0.83073 0.85535 0.54997 0.0
O102 O 0.84277 0.86487 0.64066 0.0
O103 O 0.82464 0.8865 0.61736 0.0
C104 C 0.82738 0.87864 0.63884 0.0
C105 C 0.83197 0.90896 0.54478 0.0
C106 C 0.828 0.84186 0.56518 0.0
C107 C 0.89807 0.87655 0.58081 0.0
O108 O 0.88622 0.87903 0.56069 0.0
O109 O 0.88659 0.87302 0.60093 0.0
O110 O 0.84157 0.89749 0.52891 0.0
O111 O 0.83099 0.90381 0.56781 0.0
O112 O 0.78215 0.65527 0.10999 0.0
Cd113 Cd 0.79322 0.65293 0.07332 0.0
Cd114 Cd 0.78398 0.61588 0.08351 0.0
O115 O 0.76528 0.6272 0.11324 0.0
O116 O 0.79495 0.67958 0.06257 0.0
O117 O 0.76933 0.65907 0.04559 0.0
C118 C 0.77764 0.67605 0.04679 0.0
C119 C 0.76585 0.59097 0.06202 0.0
C120 C 0.7693 0.64344 0.12205 0.0
C121 C 0.83665 0.62739 0.07475 0.0
O122 O 0.82231 0.6154 0.08469 0.0
O123 O 0.82812 0.64274 0.06636 0.0
O124 O 0.77449 0.58892 0.08417 0.0
O125 O 0.76694 0.60747 0.05208 0.0
O126 O 0.72259 0.34953 0.60431 0.0
Cd127 Cd 0.70859 0.34903 0.56879 0.0
Cd128 Cd 0.71202 0.38883 0.57388 0.0
O129 O 0.72718 0.38024 0.6072 0.0
O130 O 0.71029 0.32216 0.55897 0.0
O131 O 0.73113 0.34445 0.53947 0.0
C132 C 0.72545 0.3269 0.54159 0.0
C133 C 0.72886 0.41639 0.55715 0.0
C134 C 0.72921 0.36393 0.61654 0.0
C135 C 0.66139 0.37139 0.56597 0.0
O136 O 0.6742 0.38615 0.56927 0.0
O137 O 0.67168 0.35538 0.56485 0.0
O138 O 0.71588 0.41649 0.57719 0.0
O139 O 0.73257 0.40046 0.54634 0.0
O140 O 0.77226 0.35039 0.89166 0.0
Cd141 Cd 0.7862 0.3478 0.92703 0.0
Cd142 Cd 0.78571 0.38817 0.92398 0.0
O143 O 0.77299 0.38129 0.88901 0.0
O144 O 0.78349 0.32031 0.93272 0.0
O145 O 0.76418 0.34112 0.95616 0.0
C146 C 0.7689 0.32377 0.95107 0.0
C147 C 0.76921 0.41577 0.94093 0.0
C148 C 0.7688 0.36535 0.87932 0.0
C149 C 0.83463 0.36856 0.93292 0.0
O150 O 0.82278 0.38391 0.93114 0.0
O151 O 0.82348 0.35289 0.93154 0.0
O152 O 0.78375 0.41602 0.92202 0.0
O153 O 0.76376 0.39968 0.95052 0.0
O154 O 0.70856 0.6584 0.39494 0.0
Cd155 Cd 0.69878 0.65618 0.43184 0.0
Cd156 Cd 0.70765 0.61838 0.42331 0.0
O157 O 0.72205 0.62931 0.39086 0.0
O158 O 0.69837 0.68237 0.4445 0.0
O159 O 0.72458 0.66085 0.45824 0.0
C160 C 0.71647 0.67791 0.45893 0.0
C161 C 0.72833 0.59304 0.44153 0.0
C162 C 0.71897 0.64571 0.38207 0.0
C163 C 0.65528 0.63036 0.43505 0.0
O164 O 0.66957 0.61741 0.42744 0.0
O165 O 0.66373 0.64666 0.43943 0.0
O166 O 0.71663 0.59136 0.4208 0.0
O167 O 0.72893 0.60942 0.45182 0.0
O168 O 0.16097 0.33942 0.90354 0.0
Cd169 Cd 0.14611 0.36259 0.8862 0.0
Cd170 Cd 0.15049 0.37846 0.93202 0.0
O171 O 0.1692 0.35368 0.939 0.0
O172 O 0.15229 0.35944 0.85004 0.0
O173 O 0.16933 0.38207 0.87254 0.0
C174 C 0.16698 0.37369 0.85133 0.0
C175 C 0.16567 0.40623 0.9495 0.0
C176 C 0.17024 0.33918 0.92524 0.0
C177 C 0.09895 0.37322 0.91071 0.0
O178 O 0.11235 0.3778 0.92915 0.0
O179 O 0.10882 0.3673 0.89076 0.0
O180 O 0.15539 0.39342 0.96286 0.0
O181 O 0.16819 0.40302 0.92599 0.0
O182 O 0.33373 0.66149 0.40515 0.0
Cd183 Cd 0.34734 0.63701 0.38992 0.0
Cd184 Cd 0.33933 0.62283 0.43574 0.0
O185 O 0.32146 0.64831 0.44016 0.0
O186 O 0.34366 0.63856 0.35317 0.0
O187 O 0.32263 0.61852 0.37663 0.0
C188 C 0.32731 0.62541 0.35489 0.0
C189 C 0.32102 0.59529 0.45035 0.0
C190 C 0.3227 0.66257 0.42598 0.0
C191 C 0.39211 0.62486 0.41804 0.0
O192 O 0.37756 0.62218 0.43626 0.0
O193 O 0.38362 0.63 0.39708 0.0
O194 O 0.32963 0.60778 0.46536 0.0
O195 O 0.32187 0.59877 0.42678 0.0
O196 O 0.16132 0.65716 0.09375 0.0
Cd197 Cd 0.14897 0.63241 0.10974 0.0
Cd198 Cd 0.1525 0.61965 0.06314 0.0
O199 O 0.17127 0.64442 0.05774 0.0
O200 O 0.15558 0.63412 0.14605 0.0
O201 O 0.17486 0.6141 0.12112 0.0
C202 C 0.1719 0.62108 0.1431 0.0
C203 C 0.16794 0.59163 0.04698 0.0
C204 C 0.17109 0.65848 0.0723 0.0
C205 C 0.10166 0.62211 0.08522 0.0
O206 O 0.11446 0.6208 0.06549 0.0
O207 O 0.11213 0.62523 0.10596 0.0
O208 O 0.15826 0.60426 0.03284 0.0
O209 O 0.16981 0.59524 0.07045 0.0
O210 O 0.33446 0.34354 0.58886 0.0
Cd211 Cd 0.34909 0.3665 0.60682 0.0
Cd212 Cd 0.34546 0.3828 0.56128 0.0
O213 O 0.32821 0.35764 0.5529 0.0
O214 O 0.3438 0.36216 0.64293 0.0
O215 O 0.32574 0.38524 0.62214 0.0
C216 C 0.32884 0.37628 0.64281 0.0
C217 C 0.3279 0.41083 0.54727 0.0
C218 C 0.32649 0.34317 0.56664 0.0
C219 C 0.39657 0.37819 0.58305 0.0
O220 O 0.38356 0.38324 0.56454 0.0
O221 O 0.38636 0.3715 0.60239 0.0
O222 O 0.33862 0.39933 0.53223 0.0
O223 O 0.32648 0.40615 0.57044 0.0
H224 H 0.24772 0.17508 0.00109 0.0
H225 H 0.22814 0.2011 0.97845 0.0
H226 H 0.26482 0.24081 0.0265 0.0
H227 H 0.28434 0.21513 0.04904 0.0
H228 H 0.21467 0.2475 0.0219 0.0
H229 H 0.28509 0.2343 0.96858 0.0
H230 H 0.311 0.21409 0.94195 0.0
H231 H 0.24905 0.20411 0.89369 0.0
H232 H 0.22267 0.22408 0.92024 0.0
H233 H 0.1997 0.3353 0.96617 0.0
H234 H 0.21704 0.30641 0.98318 0.0
H235 H 0.18335 0.27463 0.92382 0.0
H236 H 0.16661 0.30364 0.90617 0.0
H237 H 0.2279 0.26155 0.93251 0.0
H238 H 0.15786 0.27564 0.98296 0.0
H239 H 0.13054 0.29512 0.00911 0.0
H240 H 0.18898 0.30201 0.06246 0.0
H241 H 0.21678 0.28278 0.03645 0.0
C242 C 0.25171 0.18937 0.00669 0.0
C243 C 0.26755 0.19304 0.02688 0.0
C244 C 0.24057 0.20419 0.99373 0.0
C245 C 0.24507 0.22286 0.00084 0.0
C246 C 0.26104 0.2265 0.02079 0.0
C247 C 0.27225 0.21178 0.0336 0.0
C248 C 0.23274 0.23877 0.98814 0.0
C249 C 0.2177 0.25068 0.0024 0.0
C250 C 0.23598 0.24247 0.96251 0.0
C251 C 0.25185 0.2305 0.94655 0.0
C252 C 0.27694 0.22766 0.95241 0.0
C253 C 0.29172 0.21628 0.93731 0.0
C254 C 0.28166 0.20777 0.91618 0.0
C255 C 0.25681 0.21068 0.91008 0.0
C256 C 0.24194 0.22204 0.92514 0.0
C257 C 0.19603 0.32218 0.95667 0.0
C258 C 0.18162 0.32175 0.93493 0.0
C259 C 0.20586 0.30565 0.96649 0.0
C260 C 0.20104 0.28828 0.95509 0.0
C261 C 0.18721 0.28785 0.933 0.0
C262 C 0.17762 0.30444 0.92297 0.0
C263 C 0.21032 0.27062 0.96645 0.0
C264 C 0.22465 0.25833 0.95196 0.0
C265 C 0.20617 0.2664 0.99185 0.0
C266 C 0.18946 0.27788 0.00765 0.0
C267 C 0.16494 0.28141 0.00019 0.0
C268 C 0.14936 0.2924 0.015 0.0
C269 C 0.15804 0.29983 0.03741 0.0
C270 C 0.18229 0.29625 0.04509 0.0
C271 C 0.19796 0.28529 0.03033 0.0
H272 H 0.14595 0.30834 0.04884 0.0
H273 H 0.29313 0.19897 0.90451 0.0
H274 H 0.32963 0.69752 0.40578 0.0
H275 H 0.3127 0.72741 0.42065 0.0
H276 H 0.27411 0.69828 0.4793 0.0
H277 H 0.29097 0.66843 0.46473 0.0
H278 H 0.24487 0.72499 0.4546 0.0
H279 H 0.32641 0.71993 0.4922 0.0
H280 H 0.37183 0.71647 0.49107 0.0
H281 H 0.37778 0.76648 0.44689 0.0
H282 H 0.33233 0.77009 0.44748 0.0
H283 H 0.2163 0.78846 0.54853 0.0
H284 H 0.23238 0.76325 0.52273 0.0
H285 H 0.2721 0.80352 0.478 0.0
H286 H 0.25638 0.82905 0.50435 0.0
H287 H 0.30074 0.77406 0.48841 0.0
H288 H 0.2201 0.78182 0.45519 0.0
H289 H 0.17474 0.78567 0.45567 0.0
H290 H 0.16666 0.7314 0.48948 0.0
H291 H 0.212 0.72733 0.48953 0.0
C292 C 0.31743 0.69747 0.42176 0.0
C293 C 0.31172 0.6806 0.43413 0.0
C294 C 0.30785 0.71455 0.43026 0.0
C295 C 0.29227 0.71503 0.45114 0.0
C296 C 0.28609 0.69819 0.46314 0.0
C297 C 0.29583 0.68116 0.45484 0.0
C298 C 0.28272 0.73305 0.461 0.0
C299 C 0.25704 0.73571 0.4621 0.0
C300 C 0.29868 0.74729 0.4699 0.0
C301 C 0.32598 0.74515 0.46962 0.0
C302 C 0.33739 0.73009 0.48205 0.0
C303 C 0.36314 0.72812 0.48155 0.0
C304 C 0.37767 0.74121 0.46884 0.0
C305 C 0.36649 0.75633 0.45668 0.0
C306 C 0.34075 0.75835 0.4571 0.0
C307 C 0.22836 0.79205 0.53315 0.0
C308 C 0.23497 0.8108 0.52843 0.0
C309 C 0.23744 0.77758 0.51829 0.0
C310 C 0.25307 0.7815 0.49811 0.0
C311 C 0.25991 0.80019 0.49338 0.0
C312 C 0.25089 0.81475 0.50841 0.0
C313 C 0.26276 0.76582 0.48271 0.0
C314 C 0.28849 0.76356 0.48052 0.0
C315 C 0.24682 0.752 0.47257 0.0
C316 C 0.21949 0.75433 0.47249 0.0
C317 C 0.20867 0.77076 0.46288 0.0
C318 C 0.18295 0.77297 0.46303 0.0
C319 C 0.16783 0.7588 0.47263 0.0
C320 C 0.1784 0.74237 0.48205 0.0
C321 C 0.20411 0.74009 0.48195 0.0
H322 H 0.14793 0.76054 0.47274 0.0
H323 H 0.3976 0.73966 0.46848 0.0
H324 H 0.28074 0.78217 0.95063 0.0
H325 H 0.26011 0.7577 0.97447 0.0
H326 H 0.22689 0.79959 0.02177 0.0
H327 H 0.24755 0.82446 0.99773 0.0
H328 H 0.24715 0.76651 0.04736 0.0
H329 H 0.19091 0.78235 0.98191 0.0
H330 H 0.17875 0.78934 0.9387 0.0
H331 H 0.20197 0.73429 0.91604 0.0
H332 H 0.21462 0.72706 0.95906 0.0
H333 H 0.16783 0.69305 0.09469 0.0
H334 H 0.18359 0.72302 0.07889 0.0
H335 H 0.21429 0.69456 0.01511 0.0
H336 H 0.19822 0.66479 0.03039 0.0
H337 H 0.18982 0.72477 0.00105 0.0
H338 H 0.25029 0.71005 0.0646 0.0
H339 H 0.26369 0.70261 0.10733 0.0
H340 H 0.23362 0.75487 0.13325 0.0
H341 H 0.21973 0.7625 0.0907 0.0
C342 C 0.26918 0.78627 0.96617 0.0
C343 C 0.26566 0.80529 0.97219 0.0
C344 C 0.25738 0.77224 0.97976 0.0
C345 C 0.24183 0.77687 0.9997 0.0
C346 C 0.23882 0.79578 0.00638 0.0
C347 C 0.25054 0.80993 0.9926 0.0
C348 C 0.22823 0.76173 0.01269 0.0
C349 C 0.2342 0.75758 0.03748 0.0
C350 C 0.21164 0.74999 0.9996 0.0
C351 C 0.20386 0.75422 0.9737 0.0
C352 C 0.19359 0.77178 0.96769 0.0
C353 C 0.18658 0.77578 0.94323 0.0
C354 C 0.18962 0.76228 0.92463 0.0
C355 C 0.19963 0.74473 0.93046 0.0
C356 C 0.20669 0.74067 0.95489 0.0
C357 C 0.17807 0.69318 0.07738 0.0
C358 C 0.1817 0.67653 0.06376 0.0
C359 C 0.18711 0.71031 0.06841 0.0
C360 C 0.20019 0.71103 0.04585 0.0
C361 C 0.20413 0.69437 0.03249 0.0
C362 C 0.19498 0.67733 0.0413 0.0
C363 C 0.20934 0.72907 0.03554 0.0
C364 C 0.20245 0.73382 0.01117 0.0
C365 C 0.22515 0.74124 0.04902 0.0
C366 C 0.23371 0.73674 0.07454 0.0
C367 C 0.24637 0.71989 0.07945 0.0
C368 C 0.25408 0.71565 0.10363 0.0
C369 C 0.24944 0.72823 0.12301 0.0
C370 C 0.23716 0.74512 0.11823 0.0
C371 C 0.22937 0.74941 0.09409 0.0
H372 H 0.25541 0.72491 0.14171 0.0
H373 H 0.18418 0.7654 0.9057 0.0
H374 H 0.32474 0.30852 0.58868 0.0
H375 H 0.30775 0.27948 0.57139 0.0
H376 H 0.28688 0.30904 0.50461 0.0
H377 H 0.30374 0.33813 0.5217 0.0
H378 H 0.24973 0.2861 0.52245 0.0
H379 H 0.3375 0.28198 0.505 0.0
H380 H 0.38176 0.28178 0.51625 0.0
H381 H 0.36978 0.23431 0.56397 0.0
H382 H 0.32535 0.23439 0.55325 0.0
H383 H 0.22785 0.21615 0.43467 0.0
H384 H 0.24446 0.24248 0.45815 0.0
H385 H 0.26805 0.2047 0.51624 0.0
H386 H 0.25201 0.17799 0.49225 0.0
H387 H 0.30269 0.23027 0.50767 0.0
H388 H 0.21596 0.23248 0.52327 0.0
H389 H 0.1715 0.23243 0.51291 0.0
H390 H 0.18073 0.28308 0.47063 0.0
H391 H 0.22533 0.2833 0.48045 0.0
C392 C 0.31647 0.30887 0.57033 0.0
C393 C 0.31565 0.32566 0.55654 0.0
C394 C 0.30687 0.29224 0.56046 0.0
C395 C 0.29625 0.2921 0.53666 0.0
C396 C 0.29503 0.30886 0.52302 0.0
C397 C 0.30474 0.32547 0.5328 0.0
C398 C 0.28636 0.27451 0.52582 0.0
C399 C 0.26133 0.27394 0.51901 0.0
C400 C 0.30134 0.25844 0.5222 0.0
C401 C 0.32806 0.25833 0.52854 0.0
C402 C 0.34426 0.2716 0.51805 0.0
C403 C 0.36938 0.27149 0.5243 0.0
C404 C 0.37856 0.25808 0.54087 0.0
C405 C 0.36264 0.24471 0.55117 0.0
C406 C 0.33749 0.24478 0.545 0.0
C407 C 0.23654 0.21338 0.45246 0.0
C408 C 0.23842 0.19499 0.46172 0.0
C409 C 0.24594 0.22849 0.46593 0.0
C410 C 0.25699 0.22564 0.48924 0.0
C411 C 0.25942 0.20724 0.49837 0.0
C412 C 0.25023 0.19201 0.48469 0.0
C413 C 0.26611 0.24198 0.50374 0.0
C414 C 0.29097 0.24233 0.51132 0.0
C415 C 0.25091 0.25782 0.50829 0.0
C416 C 0.22404 0.25783 0.50247 0.0
C417 C 0.20854 0.24354 0.51164 0.0
C418 C 0.18331 0.24349 0.50587 0.0
C419 C 0.1733 0.25772 0.49108 0.0
C420 C 0.18851 0.27206 0.48207 0.0
C421 C 0.21376 0.27217 0.48776 0.0
H422 H 0.15376 0.25765 0.48664 0.0
H423 H 0.39801 0.25801 0.54568 0.0
H424 H 0.78821 0.71328 0.04995 0.0
H425 H 0.76958 0.739 0.0267 0.0
H426 H 0.72491 0.69962 0.98555 0.0
H427 H 0.74345 0.67354 0.00903 0.0
H428 H 0.74816 0.72939 0.95611 0.0
H429 H 0.69692 0.72134 0.02826 0.0
H430 H 0.68875 0.7174 0.07307 0.0
H431 H 0.72236 0.77085 0.08794 0.0
H432 H 0.73107 0.775 0.04324 0.0
H433 H 0.67197 0.80329 0.90834 0.0
H434 H 0.6877 0.77409 0.92624 0.0
H435 H 0.72389 0.80561 0.98437 0.0
H436 H 0.70743 0.83474 0.96712 0.0
H437 H 0.70139 0.77732 0.00385 0.0
H438 H 0.75559 0.7849 0.93337 0.0
H439 H 0.76582 0.78916 0.88903 0.0
H440 H 0.72898 0.73746 0.87128 0.0
H441 H 0.71825 0.733 0.9155 0.0
C442 C 0.77454 0.70999 0.03587 0.0
C443 C 0.7672 0.69135 0.03142 0.0
C444 C 0.76389 0.72474 0.02263 0.0
C445 C 0.74575 0.72119 0.00461 0.0
C446 C 0.73888 0.70259 0.99946 0.0
C447 C 0.74942 0.68775 0.01291 0.0
C448 C 0.7336 0.73715 0.99191 0.0
C449 C 0.73753 0.73974 0.96637 0.0
C450 C 0.72024 0.75078 0.00552 0.0
C451 C 0.71482 0.74841 0.03241 0.0
C452 C 0.70274 0.73219 0.0411 0.0
C453 C 0.69798 0.72993 0.06648 0.0
C454 C 0.70508 0.74385 0.08335 0.0
C455 C 0.71689 0.76008 0.07486 0.0
C456 C 0.72171 0.7624 0.0495 0.0
C457 C 0.68344 0.804 0.92483 0.0
C458 C 0.68846 0.82133 0.93632 0.0
C459 C 0.69251 0.78729 0.93499 0.0
C460 C 0.70721 0.78762 0.95654 0.0
C461 C 0.71253 0.80496 0.96779 0.0
C462 C 0.70317 0.82162 0.95787 0.0
C463 C 0.71639 0.76995 0.96799 0.0
C464 C 0.71183 0.76698 0.9934 0.0
C465 C 0.72937 0.7561 0.95426 0.0
C466 C 0.73589 0.75872 0.9277 0.0
C467 C 0.74951 0.77451 0.91998 0.0
C468 C 0.75543 0.77695 0.89488 0.0
C469 C 0.74799 0.76362 0.87734 0.0
C470 C 0.73469 0.74779 0.88488 0.0
C471 C 0.7287 0.74529 0.90996 0.0
H472 H 0.75259 0.76553 0.85791 0.0
H473 H 0.70138 0.74207 0.10299 0.0
H474 H 0.81388 0.19278 0.40077 0.0
H475 H 0.79851 0.22351 0.41421 0.0
H476 H 0.80114 0.20531 0.49065 0.0
H477 H 0.81639 0.17461 0.47748 0.0
H478 H 0.75621 0.23299 0.4409 0.0
H479 H 0.82171 0.24214 0.52561 0.0
H480 H 0.86403 0.23318 0.53809 0.0
H481 H 0.88578 0.23013 0.46139 0.0
H482 H 0.84371 0.23934 0.44845 0.0
H483 H 0.70979 0.29091 0.53591 0.0
H484 H 0.72839 0.26623 0.51066 0.0
H485 H 0.78404 0.30506 0.4849 0.0
H486 H 0.76532 0.33005 0.51018 0.0
H487 H 0.80356 0.27113 0.5018 0.0
H488 H 0.7419 0.29178 0.44492 0.0
H489 H 0.70013 0.30124 0.43131 0.0
H490 H 0.67229 0.24643 0.44924 0.0
H491 H 0.71382 0.23672 0.4633 0.0
C492 C 0.81113 0.1953 0.42044 0.0
C493 C 0.81641 0.18124 0.43806 0.0
C494 C 0.80232 0.21285 0.42806 0.0
C495 C 0.79899 0.21672 0.45341 0.0
C496 C 0.80392 0.20266 0.471 0.0
C497 C 0.8125 0.18509 0.46341 0.0
C498 C 0.79012 0.23538 0.46169 0.0
C499 C 0.7666 0.24141 0.45408 0.0
C500 C 0.80398 0.24653 0.47845 0.0
C501 C 0.82948 0.2413 0.48607 0.0
C502 C 0.83555 0.23966 0.51141 0.0
C503 C 0.8595 0.23452 0.51856 0.0
C504 C 0.87757 0.23104 0.50054 0.0
C505 C 0.87175 0.23277 0.47533 0.0
C506 C 0.84784 0.23792 0.46808 0.0
C507 C 0.72587 0.29429 0.52474 0.0
C508 C 0.73612 0.31242 0.52506 0.0
C509 C 0.73641 0.28017 0.51022 0.0
C510 C 0.75746 0.28386 0.49578 0.0
C511 C 0.76771 0.30198 0.49587 0.0
C512 C 0.75698 0.31622 0.51024 0.0
C513 C 0.76926 0.26838 0.48171 0.0
C514 C 0.79332 0.26289 0.48831 0.0
C515 C 0.75599 0.25782 0.46384 0.0
C516 C 0.73097 0.26356 0.4553 0.0
C517 C 0.72684 0.28178 0.44613 0.0
C518 C 0.70321 0.28719 0.4383 0.0
C519 C 0.68357 0.27445 0.43944 0.0
C520 C 0.68753 0.25628 0.44837 0.0
C521 C 0.71112 0.25081 0.45623 0.0
H522 H 0.66528 0.27866 0.43338 0.0
H523 H 0.89609 0.22705 0.50611 0.0
H524 H 0.74231 0.32544 0.99464 0.0
H525 H 0.72421 0.29899 0.01768 0.0
H526 H 0.7523 0.26054 0.96251 0.0
H527 H 0.77039 0.28665 0.93959 0.0
H528 H 0.70299 0.25418 0.97446 0.0
H529 H 0.7814 0.26476 0.01642 0.0
H530 H 0.81176 0.2838 0.0396 0.0
H531 H 0.75851 0.2929 0.09766 0.0
H532 H 0.72772 0.2741 0.07464 0.0
H533 H 0.69732 0.16433 0.02651 0.0
H534 H 0.71144 0.19393 0.00864 0.0
H535 H 0.68717 0.22344 0.07434 0.0
H536 H 0.67355 0.19377 0.09268 0.0
H537 H 0.73026 0.23683 0.05952 0.0
H538 H 0.65291 0.22457 0.02045 0.0
H539 H 0.62148 0.20612 0.9979 0.0
H540 H 0.67031 0.20135 0.9352 0.0
H541 H 0.70218 0.21956 0.95751 0.0
C542 C 0.74461 0.31134 0.98747 0.0
C543 C 0.75782 0.30813 0.96534 0.0
C544 C 0.73432 0.29627 0.00065 0.0
C545 C 0.737 0.27783 0.99179 0.0
C546 C 0.74999 0.27467 0.96962 0.0
C547 C 0.76041 0.28962 0.95661 0.0
C548 C 0.72636 0.26163 0.00535 0.0
C549 C 0.70904 0.2503 0.993 0.0
C550 C 0.73365 0.25697 0.02984 0.0
C551 C 0.75217 0.26823 0.04367 0.0
C552 C 0.7761 0.27096 0.03402 0.0
C553 C 0.7934 0.28168 0.04715 0.0
C554 C 0.78704 0.28961 0.07005 0.0
C555 C 0.76339 0.28678 0.0799 0.0
C556 C 0.74602 0.2761 0.06683 0.0
C557 C 0.69505 0.1771 0.03723 0.0
C558 C 0.68416 0.17669 0.06097 0.0
C559 C 0.70301 0.19404 0.02693 0.0
C560 C 0.6999 0.21097 0.03994 0.0
C561 C 0.68964 0.21057 0.06391 0.0
C562 C 0.68185 0.19358 0.07434 0.0
C563 C 0.70732 0.22905 0.02838 0.0
C564 C 0.72395 0.24078 0.0411 0.0
C565 C 0.69917 0.23421 0.00429 0.0
C566 C 0.68001 0.22332 0.99074 0.0
C567 C 0.65701 0.21948 0.00192 0.0
C568 C 0.63911 0.20908 0.98917 0.0
C569 C 0.64391 0.20253 0.96516 0.0
C570 C 0.66662 0.20642 0.95381 0.0
C571 C 0.6846 0.2168 0.96649 0.0
H572 H 0.63003 0.19448 0.95532 0.0
H573 H 0.80046 0.29789 0.08019 0.0
H574 H 0.80367 0.81488 0.59201 0.0
H575 H 0.78592 0.78551 0.57639 0.0
H576 H 0.8129 0.79853 0.50278 0.0
H577 H 0.82932 0.82824 0.51802 0.0
H578 H 0.77004 0.78668 0.49792 0.0
H579 H 0.83974 0.76377 0.54311 0.0
H580 H 0.86737 0.75964 0.5792 0.0
H581 H 0.80802 0.73444 0.62053 0.0
H582 H 0.77993 0.73864 0.58477 0.0
H583 H 0.76399 0.67895 0.4766 0.0
H584 H 0.78434 0.70545 0.49744 0.0
H585 H 0.71497 0.73551 0.49855 0.0
H586 H 0.69497 0.70955 0.47683 0.0
H587 H 0.78135 0.72484 0.5388 0.0
H588 H 0.72292 0.7806 0.48594 0.0
H589 H 0.70088 0.78386 0.44598 0.0
H590 H 0.74809 0.74212 0.41325 0.0
H591 H 0.77062 0.7388 0.45289 0.0
C592 C 0.80579 0.81141 0.57251 0.0
C593 C 0.81773 0.82387 0.55619 0.0
C594 C 0.79582 0.79456 0.56362 0.0
C595 C 0.79829 0.78962 0.53841 0.0
C596 C 0.81058 0.802 0.52225 0.0
C597 C 0.81999 0.819 0.53099 0.0
C598 C 0.78722 0.77201 0.52846 0.0
C599 C 0.77261 0.77319 0.50692 0.0
C600 C 0.79085 0.75425 0.53981 0.0
C601 C 0.80768 0.75169 0.56134 0.0
C602 C 0.83254 0.75747 0.55996 0.0
C603 C 0.84829 0.7551 0.58034 0.0
C604 C 0.83944 0.74683 0.60217 0.0
C605 C 0.81484 0.74087 0.60362 0.0
C606 C 0.799 0.74323 0.58329 0.0
C607 C 0.75309 0.69114 0.4816 0.0
C608 C 0.72803 0.69237 0.47478 0.0
C609 C 0.76469 0.70625 0.49353 0.0
C610 C 0.75132 0.72266 0.49902 0.0
C611 C 0.72584 0.72322 0.49388 0.0
C612 C 0.7144 0.70835 0.48155 0.0
C613 C 0.76412 0.73968 0.50851 0.0
C614 C 0.77891 0.73838 0.5299 0.0
C615 C 0.76155 0.75726 0.49649 0.0
C616 C 0.74827 0.75933 0.47247 0.0
C617 C 0.72865 0.77217 0.47018 0.0
C618 C 0.71607 0.77402 0.44759 0.0
C619 C 0.72303 0.76316 0.42711 0.0
C620 C 0.74266 0.75048 0.42915 0.0
C621 C 0.75532 0.7486 0.45168 0.0
H622 H 0.71325 0.7646 0.40965 0.0
H623 H 0.85166 0.745 0.61793 0.0
H624 H 0.2641 0.07862 0.0047 0.0
H625 H 0.2544 0.04766 0.98744 0.0
H626 H 0.25071 0.02475 0.0617 0.0
H627 H 0.26158 0.05537 0.0788 0.0
H628 H 0.27916 0.00432 0.03626 0.0
H629 H 0.19844 0.02871 0.02141 0.0
H630 H 0.16701 0.05111 0.00641 0.0
H631 H 0.19191 0.04306 0.93133 0.0
H632 H 0.22373 0.0208 0.9459 0.0
H633 H 0.25491 0.91323 0.99005 0.0
H634 H 0.2443 0.94306 0.01026 0.0
H635 H 0.26251 0.97288 0.94289 0.0
H636 H 0.27312 0.9433 0.92268 0.0
H637 H 0.22134 0.98823 0.96785 0.0
H638 H 0.30572 0.96781 0.98498 0.0
H639 H 0.3369 0.94531 0.0003 0.0
H640 H 0.30318 0.94606 0.07263 0.0
H641 H 0.27158 0.96839 0.0576 0.0
C642 C 0.26073 0.06703 0.01728 0.0
C643 C 0.26382 0.0693 0.04302 0.0
C644 C 0.25504 0.04934 0.00744 0.0
C645 C 0.25172 0.0338 0.02326 0.0
C646 C 0.25334 0.03644 0.04908 0.0
C647 C 0.25953 0.05395 0.05884 0.0
C648 C 0.24946 0.01448 0.013 0.0
C649 C 0.26601 0.00076 0.02174 0.0
C650 C 0.23274 0.0098 0.99367 0.0
C651 C 0.21361 0.02318 0.98479 0.0
C652 C 0.19735 0.03182 0.00172 0.0
C653 C 0.17943 0.04448 0.99329 0.0
C654 C 0.1775 0.04853 0.96794 0.0
C655 C 0.19344 0.03991 0.95096 0.0
C656 C 0.2114 0.02725 0.9593 0.0
C657 C 0.25617 0.92611 0.97943 0.0
C658 C 0.26517 0.92597 0.95491 0.0
C659 C 0.2501 0.94312 0.99097 0.0
C660 C 0.25284 0.96016 0.9781 0.0
C661 C 0.26023 0.95989 0.95313 0.0
C662 C 0.26648 0.94297 0.94168 0.0
C663 C 0.25096 0.97838 0.99121 0.0
C664 C 0.23391 0.99184 0.98284 0.0
C665 C 0.26707 0.98288 0.01104 0.0
C666 C 0.28614 0.96957 0.0201 0.0
C667 C 0.30485 0.96306 0.0041 0.0
C668 C 0.32261 0.95036 0.01273 0.0
C669 C 0.32197 0.94421 0.0374 0.0
C670 C 0.30362 0.9508 0.05351 0.0
C671 C 0.28579 0.96348 0.04495 0.0
H672 H 0.33574 0.93438 0.04406 0.0
H673 H 0.16362 0.05833 0.96145 0.0
H674 H 0.24119 0.92192 0.51391 0.0
H675 H 0.25019 0.95244 0.49503 0.0
H676 H 0.25195 0.97787 0.56789 0.0
H677 H 0.24206 0.94761 0.58667 0.0
H678 H 0.2232 0.99698 0.54002 0.0
H679 H 0.30501 0.97337 0.53003 0.0
H680 H 0.33755 0.95091 0.51785 0.0
H681 H 0.31547 0.95562 0.4414 0.0
H682 H 0.28255 0.97791 0.45315 0.0
H683 H 0.24776 0.0866 0.48857 0.0
H684 H 0.25772 0.05767 0.51127 0.0
H685 H 0.2428 0.02513 0.44531 0.0
H686 H 0.23279 0.05381 0.42264 0.0
H687 H 0.28331 0.01135 0.47292 0.0
H688 H 0.19793 0.03109 0.48508 0.0
H689 H 0.1655 0.0536 0.49747 0.0
H690 H 0.19584 0.05604 0.57122 0.0
H691 H 0.22867 0.03372 0.55912 0.0
C692 C 0.24395 0.93397 0.52588 0.0
C693 C 0.24071 0.93244 0.55172 0.0
C694 C 0.24924 0.9514 0.5151 0.0
C695 C 0.25187 0.9675 0.53004 0.0
C696 C 0.24989 0.96571 0.55596 0.0
C697 C 0.24425 0.9484 0.56667 0.0
C698 C 0.25403 0.98644 0.51864 0.0
C699 C 0.2368 1.0002 0.52579 0.0
C700 C 0.27139 0.99063 0.49969 0.0
C701 C 0.29117 0.97722 0.49251 0.0
C702 C 0.30696 0.96951 0.51064 0.0
C703 C 0.3255 0.95682 0.50381 0.0
C704 C 0.32855 0.95181 0.47888 0.0
C705 C 0.31308 0.95951 0.46071 0.0
C706 C 0.2945 0.97219 0.46744 0.0
C707 C 0.24709 0.07331 0.47882 0.0
C708 C 0.2392 0.07243 0.45394 0.0
C709 C 0.25276 0.05682 0.49178 0.0
C710 C 0.25079 0.03928 0.47998 0.0
C711 C 0.24448 0.03852 0.45473 0.0
C712 C 0.23858 0.05492 0.44187 0.0
C713 C 0.2525 0.0216 0.49436 0.0
C714 C 0.27022 0.00812 0.48761 0.0
C715 C 0.23571 0.01762 0.51382 0.0
C716 C 0.21591 0.03094 0.52112 0.0
C717 C 0.19779 0.03655 0.50387 0.0
C718 C 0.17932 0.04925 0.51085 0.0
C719 C 0.17866 0.0563 0.5351 0.0
C720 C 0.19641 0.05061 0.55243 0.0
C721 C 0.21495 0.03794 0.54553 0.0
H722 H 0.16434 0.06612 0.54047 0.0
H723 H 0.34291 0.94199 0.47363 0.0
H724 H 0.69699 0.93612 0.92975 0.0
H725 H 0.70362 0.96732 0.94802 0.0
H726 H 0.6719 0.9482 0.01711 0.0
H727 H 0.66546 0.91713 0.99925 0.0
H728 H 0.6496 0.98045 0.99814 0.0
H729 H 0.7309 0.95658 0.01594 0.0
H730 H 0.77109 0.94211 0.00572 0.0
H731 H 0.78766 0.98771 0.95622 0.0
H732 H 0.74739 0.00233 0.96588 0.0
H733 H 0.69876 0.06282 0.07212 0.0
H734 H 0.70561 0.03092 0.05617 0.0
H735 H 0.67096 0.0463 0.98691 0.0
H736 H 0.66433 0.07808 0.00239 0.0
H737 H 0.72841 0.01543 0.00864 0.0
H738 H 0.62668 0.01162 0.97907 0.0
H739 H 0.58655 0.02612 0.98969 0.0
H740 H 0.61121 0.03479 0.06474 0.0
H741 H 0.6513 0.02006 0.05466 0.0
C742 C 0.69182 0.9385 0.94896 0.0
C743 C 0.68057 0.92418 0.96299 0.0
C744 C 0.69567 0.95629 0.95937 0.0
C745 C 0.68819 0.96003 0.98389 0.0
C746 C 0.67775 0.94559 0.99815 0.0
C747 C 0.67413 0.92782 0.98788 0.0
C748 C 0.68927 0.97932 0.99415 0.0
C749 C 0.66686 0.98805 0.00047 0.0
C750 C 0.71178 0.9892 0.99725 0.0
C751 C 0.73602 0.98046 0.99145 0.0
C752 C 0.74301 0.96344 0.0027 0.0
C753 C 0.76583 0.95523 0.99705 0.0
C754 C 0.78189 0.96396 0.98028 0.0
C755 C 0.77519 0.98095 0.96918 0.0
C756 C 0.75238 0.98922 0.97476 0.0
C757 C 0.69308 0.0595 0.05331 0.0
C758 C 0.68081 0.07293 0.03861 0.0
C759 C 0.69711 0.04132 0.04421 0.0
C760 C 0.68865 0.03631 0.02045 0.0
C761 C 0.67757 0.04993 0.00531 0.0
C762 C 0.67377 0.06809 0.01425 0.0
C763 C 0.68875 0.01646 0.01236 0.0
C764 C 0.71124 0.00772 0.00634 0.0
C765 C 0.66632 0.00645 0.00958 0.0
C766 C 0.64207 0.01493 0.01602 0.0
C767 C 0.62348 0.01655 0.99786 0.0
C768 C 0.60075 0.02481 0.00379 0.0
C769 C 0.59636 0.03143 0.02785 0.0
C770 C 0.61466 0.02972 0.04608 0.0
C771 C 0.6374 0.02144 0.04026 0.0
H772 H 0.57877 0.03785 0.03239 0.0
H773 H 0.79956 0.95758 0.97593 0.0
H774 H 0.82246 0.08641 0.50403 0.0
H775 H 0.8156 0.05492 0.52054 0.0
H776 H 0.81355 0.03274 0.4459 0.0
H777 H 0.81977 0.06438 0.42919 0.0
H778 H 0.78102 0.01459 0.47493 0.0
H779 H 0.86678 0.03162 0.48001 0.0
H780 H 0.90249 0.05135 0.49156 0.0
H781 H 0.88409 0.04525 0.56883 0.0
H782 H 0.84804 0.02569 0.5577 0.0
H783 H 0.82547 0.92173 0.4974 0.0
H784 H 0.81748 0.95397 0.48414 0.0
H785 H 0.81313 0.97147 0.5608 0.0
H786 H 0.82103 0.93916 0.57427 0.0
H787 H 0.84618 0.99234 0.53293 0.0
H788 H 0.76203 0.97196 0.52637 0.0
H789 H 0.72798 0.95122 0.51305 0.0
H790 H 0.74533 0.96231 0.43652 0.0
H791 H 0.77973 0.98291 0.44937 0.0
C792 C 0.82016 0.07488 0.4911 0.0
C793 C 0.82194 0.07784 0.46531 0.0
C794 C 0.81632 0.05687 0.50057 0.0
C795 C 0.81463 0.0414 0.48448 0.0
C796 C 0.81492 0.04446 0.45867 0.0
C797 C 0.81851 0.06255 0.44915 0.0
C798 C 0.81435 0.022 0.4946 0.0
C799 C 0.79535 0.00967 0.48747 0.0
C800 C 0.83287 0.01564 0.51125 0.0
C801 C 0.85455 0.02738 0.518 0.0
C802 C 0.87024 0.03461 0.49945 0.0
C803 C 0.89055 0.04574 0.50592 0.0
C804 C 0.89551 0.0496 0.53091 0.0
C805 C 0.8802 0.04228 0.54948 0.0
C806 C 0.85983 0.03117 0.5431 0.0
C807 C 0.8224 0.93237 0.51146 0.0
C808 C 0.82399 0.92792 0.5369 0.0
C809 C 0.81773 0.95078 0.50384 0.0
C810 C 0.81462 0.96509 0.52148 0.0
C811 C 0.81542 0.9606 0.5469 0.0
C812 C 0.81986 0.94213 0.55455 0.0
C813 C 0.81283 0.98493 0.51333 0.0
C814 C 0.83162 0.99732 0.52069 0.0
C815 C 0.79433 0.9912 0.49665 0.0
C816 C 0.7736 0.97886 0.48885 0.0
C817 C 0.75872 0.96985 0.50669 0.0
C818 C 0.73933 0.95815 0.49923 0.0
C819 C 0.73452 0.95542 0.47395 0.0
C820 C 0.74908 0.96442 0.45609 0.0
C821 C 0.76851 0.97614 0.46346 0.0
H822 H 0.7195 0.94635 0.46821 0.0
H823 H 0.91126 0.05821 0.53588 0.0
H824 H 0.76503 0.44925 0.9173 0.0
H825 H 0.75568 0.47974 0.93566 0.0
H826 H 0.74467 0.45342 0.00709 0.0
H827 H 0.75319 0.42261 0.98848 0.0
H828 H 0.71319 0.48251 0.00117 0.0
H829 H 0.80055 0.47242 0.99171 0.0
H830 H 0.83892 0.46464 0.9691 0.0
H831 H 0.82721 0.51134 0.92 0.0
H832 H 0.78856 0.51925 0.94212 0.0
H833 H 0.75337 0.55672 0.08066 0.0
H834 H 0.74476 0.52806 0.05734 0.0
H835 H 0.74981 0.55895 0.98853 0.0
H836 H 0.75838 0.58782 0.01183 0.0
H837 H 0.78129 0.52862 0.99079 0.0
H838 H 0.69549 0.54057 0.00519 0.0
H839 H 0.65841 0.548 0.03004 0.0
H840 H 0.66872 0.4977 0.07279 0.0
H841 H 0.70609 0.49009 0.04844 0.0
C842 C 0.76024 0.4499 0.93684 0.0
C843 C 0.76019 0.43361 0.95157 0.0
C844 C 0.75493 0.46734 0.94732 0.0
C845 C 0.75009 0.46892 0.97287 0.0
C846 C 0.7485 0.45254 0.98735 0.0
C847 C 0.75342 0.43496 0.97673 0.0
C848 C 0.74888 0.48773 0.98471 0.0
C849 C 0.72813 0.49256 0.99908 0.0
C850 C 0.76823 0.50096 0.98165 0.0
C851 C 0.79153 0.4963 0.9684 0.0
C852 C 0.80607 0.48095 0.97598 0.0
C853 C 0.82787 0.47652 0.96327 0.0
C854 C 0.83546 0.48745 0.94308 0.0
C855 C 0.82129 0.50286 0.93561 0.0
C856 C 0.79943 0.50733 0.94823 0.0
C857 C 0.75215 0.55751 0.06058 0.0
C858 C 0.75675 0.57449 0.04805 0.0
C859 C 0.74707 0.54113 0.04729 0.0
C860 C 0.74658 0.54139 0.02122 0.0
C861 C 0.75004 0.55849 0.00867 0.0
C862 C 0.75488 0.57496 0.02199 0.0
C863 C 0.74558 0.52348 0.00723 0.0
C864 C 0.76611 0.51873 0.99259 0.0
C865 C 0.72621 0.51031 0.01039 0.0
C866 C 0.70373 0.51483 0.02509 0.0
C867 C 0.68998 0.53117 0.02003 0.0
C868 C 0.66888 0.5354 0.034 0.0
C869 C 0.66124 0.52335 0.05301 0.0
C870 C 0.67467 0.50703 0.05806 0.0
C871 C 0.6958 0.50273 0.04415 0.0
H872 H 0.6449 0.52665 0.06381 0.0
H873 H 0.85235 0.48401 0.93327 0.0
H874 H 0.7428 0.42388 0.50913 0.0
H875 H 0.75197 0.45475 0.49124 0.0
H876 H 0.74521 0.47993 0.56394 0.0
H877 H 0.73522 0.44935 0.58164 0.0
H878 H 0.71793 0.498 0.53319 0.0
H879 H 0.80182 0.47705 0.53165 0.0
H880 H 0.83655 0.45569 0.52241 0.0
H881 H 0.82206 0.4609 0.4442 0.0
H882 H 0.78701 0.48208 0.45298 0.0
H883 H 0.74285 0.5892 0.49007 0.0
H884 H 0.75273 0.55981 0.51161 0.0
H885 H 0.74681 0.52961 0.44235 0.0
H886 H 0.73695 0.55881 0.42076 0.0
H887 H 0.78438 0.51539 0.47381 0.0
H888 H 0.69753 0.53272 0.47657 0.0
H889 H 0.66279 0.5541 0.48574 0.0
H890 H 0.68381 0.55538 0.56274 0.0
H891 H 0.71892 0.53421 0.55392 0.0
C892 C 0.74373 0.43597 0.52131 0.0
C893 C 0.73806 0.43426 0.54671 0.0
C894 C 0.7491 0.4536 0.51111 0.0
C895 C 0.74936 0.46971 0.52625 0.0
C896 C 0.74499 0.46777 0.55185 0.0
C897 C 0.73928 0.45026 0.56194 0.0
C898 C 0.75152 0.48878 0.51522 0.0
C899 C 0.73284 0.50187 0.52067 0.0
C900 C 0.77058 0.49378 0.49837 0.0
C901 C 0.79165 0.48104 0.493 0.0
C902 C 0.80591 0.47352 0.51249 0.0
C903 C 0.82568 0.46147 0.50733 0.0
C904 C 0.83147 0.45691 0.48274 0.0
C905 C 0.81754 0.46443 0.46324 0.0
C906 C 0.79774 0.47648 0.4683 0.0
C907 C 0.74426 0.57638 0.47935 0.0
C908 C 0.73878 0.57625 0.45381 0.0
C909 C 0.74988 0.55961 0.49167 0.0
C910 C 0.75021 0.54253 0.47859 0.0
C911 C 0.74666 0.54263 0.45277 0.0
C912 C 0.74086 0.55933 0.4405 0.0
C913 C 0.75095 0.52438 0.49202 0.0
C914 C 0.7699 0.51149 0.48679 0.0
C915 C 0.7322 0.51949 0.50918 0.0
C916 C 0.711 0.53208 0.51453 0.0
C917 C 0.69485 0.53768 0.49541 0.0
C918 C 0.67508 0.54974 0.50055 0.0
C919 C 0.67114 0.55614 0.52479 0.0
C920 C 0.68692 0.55045 0.54396 0.0
C921 C 0.70675 0.53842 0.53891 0.0
H922 H 0.65582 0.56547 0.52874 0.0
H923 H 0.84679 0.44758 0.47878 0.0
H924 H 0.15771 0.57822 0.00073 0.0
H925 H 0.16357 0.54628 0.98541 0.0
H926 H 0.19919 0.53095 0.05419 0.0
H927 H 0.19297 0.56295 0.07004 0.0
H928 H 0.22108 0.51604 0.0042 0.0
H929 H 0.14688 0.51922 0.0554 0.0
H930 H 0.1072 0.53338 0.06819 0.0
H931 H 0.07827 0.52536 0.99457 0.0
H932 H 0.11796 0.51142 0.98125 0.0
H933 H 0.15915 0.41709 0.99757 0.0
H934 H 0.16587 0.44813 0.01541 0.0
H935 H 0.19423 0.46786 0.94515 0.0
H936 H 0.18741 0.43668 0.92695 0.0
H937 H 0.14249 0.48013 0.99865 0.0
H938 H 0.23742 0.50345 0.96017 0.0
H939 H 0.27726 0.48941 0.94759 0.0
H940 H 0.26508 0.44328 0.99751 0.0
H941 H 0.22536 0.45717 0.01064 0.0
C942 C 0.16718 0.56819 0.01251 0.0
C943 C 0.17472 0.57307 0.0367 0.0
C944 C 0.17054 0.54996 0.00367 0.0
C945 C 0.18176 0.53634 0.0187 0.0
C946 C 0.1906 0.54136 0.04231 0.0
C947 C 0.18692 0.55959 0.05136 0.0
C948 C 0.18175 0.51652 0.01062 0.0
C949 C 0.20397 0.50811 0.00301 0.0
C950 C 0.1594 0.50626 0.00924 0.0
C951 C 0.13546 0.51446 0.01728 0.0
C952 C 0.13213 0.52063 0.04189 0.0
C953 C 0.10963 0.52859 0.04924 0.0
C954 C 0.09025 0.53031 0.03219 0.0
C955 C 0.09331 0.52404 0.00776 0.0
C956 C 0.1158 0.5161 0.0003 0.0
C957 C 0.16713 0.42792 0.98592 0.0
C958 C 0.17261 0.42444 0.96077 0.0
C959 C 0.17092 0.44567 0.99618 0.0
C960 C 0.18051 0.46027 0.98161 0.0
C961 C 0.18696 0.45671 0.95675 0.0
C962 C 0.18301 0.43892 0.94637 0.0
C963 C 0.18185 0.4795 0.99203 0.0
C964 C 0.15972 0.48792 -7e-05 0.0
C965 C 0.20431 0.48965 0.99371 0.0
C966 C 0.22829 0.48127 0.98618 0.0
C967 C 0.24329 0.49035 0.96852 0.0
C968 C 0.26584 0.48241 0.96129 0.0
C969 C 0.27365 0.46544 0.97168 0.0
C970 C 0.25896 0.45639 0.9894 0.0
C971 C 0.2364 0.46427 0.9967 0.0
H972 H 0.29111 0.45931 0.96605 0.0
H973 H 0.07284 0.53646 0.03792 0.0
H974 H 0.30796 0.58673 0.49794 0.0
H975 H 0.30076 0.55558 0.51543 0.0
H976 H 0.30911 0.53104 0.44255 0.0
H977 H 0.31554 0.56233 0.42478 0.0
H978 H 0.27508 0.5122 0.46855 0.0
H979 H 0.35811 0.5338 0.48304 0.0
H980 H 0.39022 0.55575 0.49779 0.0
H981 H 0.36267 0.55083 0.57242 0.0
H982 H 0.33016 0.52904 0.55804 0.0
H983 H 0.32431 0.42262 0.49918 0.0
H984 H 0.31474 0.45412 0.48426 0.0
H985 H 0.30233 0.47249 0.55968 0.0
H986 H 0.31205 0.44088 0.57485 0.0
H987 H 0.33473 0.49491 0.5349 0.0
H988 H 0.25427 0.46943 0.51931 0.0
H989 H 0.22422 0.4465 0.50292 0.0
H990 H 0.24927 0.45742 0.42853 0.0
H991 H 0.27973 0.48023 0.44449 0.0
C992 C 0.3078 0.57474 0.48555 0.0
C993 C 0.31262 0.57694 0.46003 0.0
C994 C 0.30377 0.55693 0.4956 0.0
C995 C 0.30501 0.54092 0.48041 0.0
C996 C 0.3082 0.54318 0.45465 0.0
C997 C 0.31189 0.56107 0.44452 0.0
C998 C 0.30506 0.52186 0.49163 0.0
C999 C 0.2882 0.50837 0.48295 0.0
C1000 C 0.32195 0.51692 0.51071 0.0
C1001 C 0.34154 0.52996 0.51942 0.0
C1002 C 0.35879 0.53751 0.50257 0.0
C1003 C 0.37708 0.54991 0.51086 0.0
C1004 C 0.37844 0.55473 0.53602 0.0
C1005 C 0.36156 0.54712 0.55294 0.0
C1006 C 0.34321 0.53474 0.54473 0.0
C1007 C 0.31917 0.43326 0.51261 0.0
C1008 C 0.31905 0.42927 0.53823 0.0
C1009 C 0.31356 0.45126 0.50401 0.0
C1010 C 0.30766 0.46563 0.52083 0.0
C1011 C 0.30676 0.46157 0.54638 0.0
C1012 C 0.31226 0.4435 0.55501 0.0
C1013 C 0.30477 0.48521 0.51183 0.0
C1014 C 0.32128 0.49879 0.52081 0.0
C1015 C 0.28781 0.49009 0.49282 0.0
C1016 C 0.26941 0.47645 0.48313 0.0
C1017 C 0.2535 0.46684 0.49947 0.0
C1018 C 0.23637 0.45388 0.49025 0.0
C1019 C 0.23487 0.45048 0.4647 0.0
C1020 C 0.25046 0.46007 0.44831 0.0
C1021 C 0.26764 0.47303 0.45744 0.0
H1022 H 0.2216 0.44044 0.45761 0.0
H1023 H 0.39261 0.56432 0.54241 0.0
H1024 H 0.57198 0.1445 0.11289 0.0
H1025 H 0.52709 0.14411 0.10815 0.0
H1026 H 0.53298 0.09727 0.05748 0.0
H1027 H 0.57811 0.09841 0.06107 0.0
H1028 H 0.5021 0.11973 0.03935 0.0
H1029 H 0.5103 0.09353 0.12023 0.0
H1030 H 0.52454 0.09091 0.16365 0.0
H1031 H 0.48788 0.14262 0.18174 0.0
H1032 H 0.47368 0.14569 0.13833 0.0
H1033 H 0.37 0.1009 0.05184 0.0
H1034 H 0.41516 0.09791 0.05491 0.0
H1035 H 0.42022 0.15534 0.07967 0.0
H1036 H 0.37529 0.15863 0.0761 0.0
H1037 H 0.44444 0.12489 0.11084 0.0
H1038 H 0.43826 0.15004 0.02684 0.0
H1039 H 0.42294 0.14972 0.98364 0.0
H1040 H 0.45484 0.09515 0.9725 0.0
H1041 H 0.47005 0.09504 0.01578 0.0
C1042 C 0.56367 0.134 0.10095 0.0
C1043 C 0.57849 0.12145 0.08739 0.0
C1044 C 0.53796 0.1337 0.09834 0.0
C1045 C 0.52648 0.12043 0.08278 0.0
C1046 C 0.54132 0.10765 0.06958 0.0
C1047 C 0.5671 0.10826 0.0717 0.0
C1048 C 0.49915 0.12052 0.07939 0.0
C1049 C 0.48956 0.12052 0.05507 0.0
C1050 C 0.48259 0.1217 0.0998 0.0
C1051 C 0.4911 0.11992 0.12596 0.0
C1052 C 0.50542 0.10441 0.13342 0.0
C1053 C 0.51346 0.10284 0.15804 0.0
C1054 C 0.50717 0.11661 0.17543 0.0
C1055 C 0.49276 0.13197 0.16824 0.0
C1056 C 0.48469 0.13363 0.14364 0.0
C1057 C 0.38077 0.11294 0.05766 0.0
C1058 C 0.36912 0.13 0.06372 0.0
C1059 C 0.4065 0.11121 0.0594 0.0
C1060 C 0.42085 0.1264 0.06758 0.0
C1061 C 0.40935 0.14349 0.07334 0.0
C1062 C 0.38372 0.14535 0.07115 0.0
C1063 C 0.44782 0.12434 0.071 0.0
C1064 C 0.45719 0.12394 0.09528 0.0
C1065 C 0.46408 0.12232 0.05065 0.0
C1066 C 0.45503 0.12244 0.02462 0.0
C1067 C 0.44179 0.13789 0.01526 0.0
C1068 C 0.43317 0.13781 0.99074 0.0
C1069 C 0.43784 0.1224 0.97536 0.0
C1070 C 0.4512 0.10706 0.98444 0.0
C1071 C 0.45983 0.10707 0.00896 0.0
H1072 H 0.43116 0.12236 0.95638 0.0
H1073 H 0.51342 0.11536 0.19448 0.0
H1074 H 0.92949 0.88356 0.61969 0.0
H1075 H 0.97497 0.88395 0.6187 0.0
H1076 H 0.97362 0.8705 0.54055 0.0
H1077 H 0.92833 0.87061 0.54115 0.0
H1078 H 0.00601 0.84693 0.57746 0.0
H1079 H 0.98654 0.91005 0.54726 0.0
H1080 H 0.96633 0.94096 0.55115 0.0
H1081 H 0.00428 0.95062 0.62014 0.0
H1082 H 0.02442 0.91961 0.61683 0.0
H1083 H 0.13089 0.8545 0.54269 0.0
H1084 H 0.08572 0.85638 0.54395 0.0
H1085 H 0.0902 0.89466 0.6061 0.0
H1086 H 0.13536 0.89375 0.60373 0.0
H1087 H 0.05529 0.90569 0.57934 0.0
H1088 H 0.07591 0.84543 0.61172 0.0
H1089 H 0.09553 0.81418 0.61274 0.0
H1090 H 0.05533 0.79809 0.54723 0.0
H1091 H 0.0357 0.82934 0.54563 0.0
C1092 C 0.93891 0.88076 0.6023 0.0
C1093 C 0.9254 0.8771 0.58048 0.0
C1094 C 0.96481 0.88101 0.60177 0.0
C1095 C 0.97747 0.87725 0.57955 0.0
C1096 C 0.96406 0.87344 0.55784 0.0
C1097 C 0.93824 0.87359 0.55821 0.0
C1098 C 0.00476 0.87707 0.5789 0.0
C1099 C 0.01689 0.85973 0.57761 0.0
C1100 C 0.01873 0.89378 0.58006 0.0
C1101 C 0.00673 0.91243 0.58195 0.0
C1102 C 0.99036 0.91868 0.56339 0.0
C1103 C 0.97897 0.93623 0.56545 0.0
C1104 C 0.98395 0.94772 0.58592 0.0
C1105 C 0.0004 0.94169 0.60432 0.0
C1106 C 0.01182 0.92414 0.60235 0.0
C1107 C 0.12217 0.86341 0.55647 0.0
C1108 C 0.13654 0.87393 0.57315 0.0
C1109 C 0.09635 0.86436 0.55735 0.0
C1110 C 0.08443 0.87529 0.57556 0.0
C1111 C 0.09887 0.88609 0.59191 0.0
C1112 C 0.12468 0.88555 0.59057 0.0
C1113 C 0.05696 0.87543 0.5776 0.0
C1114 C 0.04465 0.89278 0.57925 0.0
C1115 C 0.04283 0.85864 0.57749 0.0
C1116 C 0.05451 0.83979 0.57843 0.0
C1117 C 0.07138 0.83527 0.59744 0.0
C1118 C 0.08248 0.81755 0.59814 0.0
C1119 C 0.07673 0.80417 0.58003 0.0
C1120 C 0.0598 0.80847 0.56123 0.0
C1121 C 0.04865 0.82618 0.56043 0.0
H1122 H 0.08535 0.79046 0.5806 0.0
H1123 H 0.97512 0.96131 0.58748 0.0
H1124 H 0.37587 0.83682 0.9206 0.0
H1125 H 0.42082 0.83944 0.91911 0.0
H1126 H 0.41638 0.89505 0.95077 0.0
H1127 H 0.37116 0.89286 0.95096 0.0
H1128 H 0.4472 0.89622 0.91558 0.0
H1129 H 0.43809 0.85476 0.9842 0.0
H1130 H 0.423 0.82729 0.00759 0.0
H1131 H 0.45846 0.79038 0.95547 0.0
H1132 H 0.4735 0.81764 0.93155 0.0
H1133 H 0.57906 0.89487 0.94377 0.0
H1134 H 0.53395 0.89433 0.949 0.0
H1135 H 0.52813 0.85207 0.89192 0.0
H1136 H 0.5731 0.85286 0.88606 0.0
H1137 H 0.50362 0.84528 0.94289 0.0
H1138 H 0.51053 0.88929 0.87387 0.0
H1139 H 0.52643 0.91797 0.85376 0.0
H1140 H 0.49588 0.95156 0.91254 0.0
H1141 H 0.48011 0.92303 0.9332 0.0
C1142 C 0.38449 0.84952 0.92752 0.0
C1143 C 0.37003 0.86462 0.93597 0.0
C1144 C 0.41024 0.85098 0.92679 0.0
C1145 C 0.42213 0.86733 0.93522 0.0
C1146 C 0.40769 0.88229 0.94415 0.0
C1147 C 0.38187 0.881 0.94435 0.0
C1148 C 0.44951 0.86914 0.93347 0.0
C1149 C 0.45947 0.88518 0.922 0.0
C1150 C 0.4657 0.85472 0.94159 0.0
C1151 C 0.45676 0.83826 0.95596 0.0
C1152 C 0.44253 0.84079 0.97762 0.0
C1153 C 0.43401 0.82525 0.99099 0.0
C1154 C 0.43972 0.8071 0.98299 0.0
C1155 C 0.45403 0.80445 0.96163 0.0
C1156 C 0.46259 0.81994 0.94818 0.0
C1157 C 0.56814 0.88559 0.93219 0.0
C1158 C 0.57957 0.87392 0.91449 0.0
C1159 C 0.54244 0.88531 0.9352 0.0
C1160 C 0.52789 0.87313 0.92087 0.0
C1161 C 0.53918 0.86154 0.90313 0.0
C1162 C 0.5648 0.86209 0.89973 0.0
C1163 C 0.50089 0.87212 0.92482 0.0
C1164 C 0.49114 0.85628 0.93674 0.0
C1165 C 0.48498 0.88688 0.91767 0.0
C1166 C 0.49443 0.90401 0.90523 0.0
C1167 C 0.50744 0.90277 0.88265 0.0
C1168 C 0.51637 0.91901 0.87111 0.0
C1169 C 0.51224 0.93657 0.88191 0.0
C1170 C 0.49911 0.93795 0.90422 0.0
C1171 C 0.49016 0.92175 0.91584 0.0
H1172 H 0.51916 0.94913 0.87294 0.0
H1173 H 0.4331 0.79509 0.99337 0.0
H1174 H 0.13327 0.10264 0.43176 0.0
H1175 H 0.0881 0.10134 0.43123 0.0
H1176 H 0.08493 0.16183 0.4288 0.0
H1177 H 0.1301 0.1633 0.42977 0.0
H1178 H 0.05017 0.14849 0.45897 0.0
H1179 H 0.07796 0.13617 0.37606 0.0
H1180 H 0.10215 0.12015 0.34347 0.0
H1181 H 0.06681 0.0679 0.36152 0.0
H1182 H 0.04265 0.08358 0.39447 0.0
H1183 H 0.92978 0.13633 0.38131 0.0
H1184 H 0.9749 0.13724 0.38406 0.0
H1185 H 0.97121 0.11778 0.45994 0.0
H1186 H 0.92607 0.11717 0.45755 0.0
H1187 H 0.00944 0.11172 0.39209 0.0
H1188 H 0.01686 0.13849 0.49363 0.0
H1189 H 0.99278 0.15757 0.52332 0.0
H1190 H 0.95768 0.18641 0.46271 0.0
H1191 H 0.98179 0.16769 0.43268 0.0
C1192 C 0.12299 0.11568 0.43133 0.0
C1193 C 0.13532 0.13307 0.43061 0.0
C1194 C 0.09717 0.11491 0.43093 0.0
C1195 C 0.08318 0.13148 0.42956 0.0
C1196 C 0.09538 0.14887 0.42979 0.0
C1197 C 0.12121 0.14967 0.4303 0.0
C1198 C 0.05587 0.13069 0.4271 0.0
C1199 C 0.04126 0.14041 0.4444 0.0
C1200 C 0.04426 0.12047 0.40776 0.0
C1201 C 0.05868 0.11101 0.38789 0.0
C1202 C 0.07548 0.12124 0.3732 0.0
C1203 C 0.08917 0.11222 0.35465 0.0
C1204 C 0.08607 0.09301 0.35047 0.0
C1205 C 0.06922 0.08278 0.3648 0.0
C1206 C 0.05551 0.09172 0.38341 0.0
C1207 C 0.93855 0.13216 0.39857 0.0
C1208 C 0.9243 0.12681 0.41928 0.0
C1209 C 0.96436 0.13266 0.40008 0.0
C1210 C 0.9764 0.12783 0.4223 0.0
C1211 C 0.96227 0.1219 0.44275 0.0
C1212 C 0.93647 0.12149 0.44132 0.0
C1213 C 0.00372 0.1293 0.42418 0.0
C1214 C 0.01834 0.11972 0.40675 0.0
C1215 C 0.01533 0.14005 0.44301 0.0
C1216 C 0.00094 0.15153 0.46093 0.0
C1217 C 0.00406 0.14895 0.48665 0.0
C1218 C 0.9904 0.15969 0.50354 0.0
C1219 C 0.97364 0.17315 0.49491 0.0
C1220 C 0.97059 0.17593 0.46937 0.0
C1221 C 0.98422 0.16524 0.45241 0.0
H1222 H 0.96307 0.18144 0.50801 0.0
H1223 H 0.09668 0.08605 0.33609 0.0
H1224 H 0.06924 0.61349 0.12263 0.0
H1225 H 0.02391 0.61192 0.12001 0.0
H1226 H 0.02736 0.62638 0.04224 0.0
H1227 H 0.07258 0.6275 0.04447 0.0
H1228 H 0.99396 0.64911 0.07619 0.0
H1229 H 0.01447 0.58577 0.05017 0.0
H1230 H 0.03469 0.555 0.05537 0.0
H1231 H 0.99467 0.54608 0.12335 0.0
H1232 H 0.97446 0.57696 0.11873 0.0
H1233 H 0.86985 0.64115 0.04134 0.0
H1234 H 0.91483 0.63776 0.0421 0.0
H1235 H 0.90934 0.60366 0.10825 0.0
H1236 H 0.86417 0.60615 0.10668 0.0
H1237 H 0.9445 0.59052 0.08144 0.0
H1238 H 0.92406 0.65217 0.1097 0.0
H1239 H 0.90443 0.68341 0.10818 0.0
H1240 H 0.94476 0.69648 0.04157 0.0
H1241 H 0.96439 0.66521 0.04251 0.0
C1242 C 0.06033 0.61622 0.10496 0.0
C1243 C 0.07443 0.62062 0.08376 0.0
C1244 C 0.03451 0.61527 0.10349 0.0
C1245 C 0.02246 0.61901 0.08093 0.0
C1246 C 0.03644 0.62341 0.05977 0.0
C1247 C 0.06223 0.62399 0.06109 0.0
C1248 C 0.99517 0.61904 0.07954 0.0
C1249 C 0.98307 0.63632 0.07701 0.0
C1250 C 0.98117 0.60237 0.08154 0.0
C1251 C 0.99318 0.58377 0.08425 0.0
C1252 C 0.01017 0.57734 0.06636 0.0
C1253 C 0.02159 0.55985 0.06917 0.0
C1254 C 0.01604 0.54861 0.08972 0.0
C1255 C 0.99898 0.55481 0.10746 0.0
C1256 C 0.98753 0.5723 0.10474 0.0
C1257 C 0.87825 0.63278 0.05589 0.0
C1258 C 0.86359 0.62405 0.07409 0.0
C1259 C 0.90397 0.63094 0.05642 0.0
C1260 C 0.91558 0.6209 0.07566 0.0
C1261 C 0.90086 0.61157 0.0933 0.0
C1262 C 0.87506 0.61302 0.09242 0.0
C1263 C 0.94301 0.62067 0.07778 0.0
C1264 C 0.95523 0.60338 0.08059 0.0
C1265 C 0.95717 0.63741 0.07659 0.0
C1266 C 0.94552 0.65628 0.07605 0.0
C1267 C 0.92863 0.66166 0.09464 0.0
C1268 C 0.91751 0.67938 0.09389 0.0
C1269 C 0.9233 0.6919 0.07476 0.0
C1270 C 0.94027 0.68676 0.05637 0.0
C1271 C 0.95141 0.66905 0.05701 0.0
H1272 H 0.91467 0.70561 0.07421 0.0
H1273 H 0.0249 0.53508 0.09187 0.0
H1274 H 0.63313 0.40261 0.55742 0.0
H1275 H 0.588 0.40498 0.55863 0.0
H1276 H 0.58296 0.34576 0.57491 0.0
H1277 H 0.62793 0.34316 0.57268 0.0
H1278 H 0.54815 0.35408 0.54483 0.0
H1279 H 0.57738 0.38077 0.62079 0.0
H1280 H 0.60201 0.4018 0.64753 0.0
H1281 H 0.56702 0.44983 0.61448 0.0
H1282 H 0.5424 0.42908 0.58729 0.0
H1283 H 0.43041 0.35846 0.61019 0.0
H1284 H 0.47555 0.35887 0.60571 0.0
H1285 H 0.46955 0.40115 0.5487 0.0
H1286 H 0.4243 0.40049 0.5525 0.0
H1287 H 0.50889 0.40222 0.59868 0.0
H1288 H 0.4814 0.37174 0.5203 0.0
H1289 H 0.45597 0.34822 0.49833 0.0
H1290 H 0.48772 0.30437 0.54289 0.0
H1291 H 0.51306 0.32771 0.56536 0.0
C1292 C 0.62237 0.39008 0.56106 0.0
C1293 C 0.63409 0.37272 0.56505 0.0
C1294 C 0.59658 0.39147 0.56191 0.0
C1295 C 0.58206 0.37563 0.56736 0.0
C1296 C 0.59373 0.3582 0.5707 0.0
C1297 C 0.61947 0.35673 0.56944 0.0
C1298 C 0.55476 0.37719 0.56995 0.0
C1299 C 0.5397 0.3646 0.55669 0.0
C1300 C 0.54352 0.39086 0.58547 0.0
C1301 C 0.55825 0.40338 0.60181 0.0
C1302 C 0.57507 0.39582 0.61909 0.0
C1303 C 0.58901 0.40769 0.63435 0.0
C1304 C 0.58613 0.42714 0.63265 0.0
C1305 C 0.56926 0.43476 0.61574 0.0
C1306 C 0.5553 0.42296 0.60041 0.0
C1307 C 0.43869 0.36796 0.59683 0.0
C1308 C 0.42384 0.3794 0.58162 0.0
C1309 C 0.46443 0.36814 0.5943 0.0
C1310 C 0.47568 0.37999 0.57684 0.0
C1311 C 0.46105 0.3919 0.56222 0.0
C1312 C 0.43527 0.39146 0.56438 0.0
C1313 C 0.50273 0.37936 0.57332 0.0
C1314 C 0.51759 0.39196 0.5866 0.0
C1315 C 0.51385 0.36548 0.55833 0.0
C1316 C 0.49885 0.35147 0.54467 0.0
C1317 C 0.48275 0.35711 0.52557 0.0
C1318 C 0.46841 0.34381 0.51299 0.0
C1319 C 0.47017 0.32482 0.51927 0.0
C1320 C 0.48634 0.31908 0.53808 0.0
C1321 C 0.5007 0.33234 0.55073 0.0
H1322 H 0.45905 0.31454 0.50952 0.0
H1323 H 0.59693 0.4363 0.64448 0.0
H1324 H 0.07189 0.39188 0.94577 0.0
H1325 H 0.02698 0.39205 0.95081 0.0
H1326 H 0.01947 0.35623 0.88651 0.0
H1327 H 0.06437 0.35656 0.88083 0.0
H1328 H 0.98481 0.38129 0.88551 0.0
H1329 H 0.01561 0.33914 0.94747 0.0
H1330 H 0.0414 0.32899 0.98284 0.0
H1331 H 0.00892 0.3717 0.02878 0.0
H1332 H 0.98316 0.38228 0.99357 0.0
H1333 H 0.86695 0.3407 0.92046 0.0
H1334 H 0.91216 0.34269 0.91864 0.0
H1335 H 0.9093 0.39911 0.94742 0.0
H1336 H 0.86395 0.39751 0.94867 0.0
H1337 H 0.94826 0.36405 0.96711 0.0
H1338 H 0.92058 0.40748 0.90063 0.0
H1339 H 0.89374 0.41466 0.86474 0.0
H1340 H 0.9199 0.36528 0.8272 0.0
H1341 H 0.94666 0.3577 0.86309 0.0
C1342 C 0.06067 0.3841 0.93263 0.0
C1343 C 0.07169 0.37411 0.91298 0.0
C1344 C 0.035 0.38413 0.93561 0.0
C1345 C 0.01986 0.37384 0.91935 0.0
C1346 C 0.03077 0.36423 0.89935 0.0
C1347 C 0.05644 0.36441 0.89613 0.0
C1348 C 0.99267 0.37295 0.92329 0.0
C1349 C 0.97694 0.37743 0.90336 0.0
C1350 C 0.98222 0.36796 0.94658 0.0
C1351 C 0.99764 0.36162 0.96781 0.0
C1352 C 0.0141 0.34646 0.96506 0.0
C1353 C 0.02869 0.34062 0.98509 0.0
C1354 C 0.02685 0.34973 0.00802 0.0
C1355 C 0.01036 0.36468 0.01099 0.0
C1356 C 0.99574 0.37059 0.99101 0.0
C1357 C 0.87592 0.35346 0.92672 0.0
C1358 C 0.86191 0.36899 0.93462 0.0
C1359 C 0.9017 0.35455 0.92562 0.0
C1360 C 0.91385 0.37106 0.93279 0.0
C1361 C 0.90009 0.38629 0.94177 0.0
C1362 C 0.87426 0.38535 0.94242 0.0
C1363 C 0.94085 0.37265 0.92953 0.0
C1364 C 0.95639 0.36812 0.94946 0.0
C1365 C 0.95117 0.37732 0.90623 0.0
C1366 C 0.93536 0.38193 0.8846 0.0
C1367 C 0.92041 0.39807 0.88481 0.0
C1368 C 0.90527 0.40223 0.86446 0.0
C1369 C 0.90507 0.3904 0.84373 0.0
C1370 C 0.92005 0.37441 0.84329 0.0
C1371 C 0.93522 0.37019 0.86361 0.0
H1372 H 0.89337 0.39368 0.82799 0.0
H1373 H 0.03816 0.34518 0.02351 0.0
H1374 H 0.61886 0.65597 0.44442 0.0
H1375 H 0.57434 0.6507 0.44515 0.0
H1376 H 0.58601 0.59156 0.43226 0.0
H1377 H 0.63076 0.59681 0.43083 0.0
H1378 H 0.55139 0.60373 0.40281 0.0
H1379 H 0.5661 0.6081 0.48947 0.0
H1380 H 0.58271 0.62134 0.52841 0.0
H1381 H 0.53999 0.67149 0.51738 0.0
H1382 H 0.52338 0.65866 0.47818 0.0
H1383 H 0.41617 0.60919 0.45773 0.0
H1384 H 0.46079 0.60541 0.46341 0.0
H1385 H 0.47367 0.63139 0.39207 0.0
H1386 H 0.42914 0.63473 0.38595 0.0
H1387 H 0.49594 0.62983 0.46774 0.0
H1388 H 0.52498 0.61493 0.36519 0.0
H1389 H 0.50845 0.59867 0.32825 0.0
H1390 H 0.46364 0.56359 0.37505 0.0
H1391 H 0.48015 0.57945 0.41229 0.0
C1392 C 0.61203 0.64178 0.442 0.0
C1393 C 0.6284 0.6268 0.43754 0.0
C1394 C 0.58652 0.63878 0.44255 0.0
C1395 C 0.57681 0.62069 0.43905 0.0
C1396 C 0.59309 0.60563 0.43503 0.0
C1397 C 0.61867 0.60865 0.43428 0.0
C1398 C 0.5496 0.61783 0.43822 0.0
C1399 C 0.53926 0.60931 0.4171 0.0
C1400 C 0.53377 0.62469 0.45713 0.0
C1401 C 0.54361 0.63245 0.48079 0.0
C1402 C 0.56036 0.622 0.49526 0.0
C1403 C 0.56976 0.62943 0.51739 0.0
C1404 C 0.56244 0.64726 0.52534 0.0
C1405 C 0.54565 0.65768 0.5112 0.0
C1406 C 0.53621 0.65033 0.48903 0.0
C1407 C 0.4285 0.61399 0.44317 0.0
C1408 C 0.41909 0.62223 0.42135 0.0
C1409 C 0.454 0.61183 0.44647 0.0
C1410 C 0.4706 0.6179 0.42806 0.0
C1411 C 0.46124 0.62621 0.40631 0.0
C1412 C 0.43575 0.6282 0.40289 0.0
C1413 C 0.49773 0.6163 0.43194 0.0
C1414 C 0.50805 0.62402 0.45361 0.0
C1415 C 0.51353 0.60825 0.41383 0.0
C1416 C 0.50368 0.59849 0.39153 0.0
C1417 C 0.5117 0.60368 0.36761 0.0
C1418 C 0.50231 0.59455 0.34662 0.0
C1419 C 0.48496 0.58014 0.3493 0.0
C1420 C 0.47702 0.5748 0.37299 0.0
C1421 C 0.48636 0.58387 0.39405 0.0
H1422 H 0.4777 0.5731 0.33302 0.0
H1423 H 0.56974 0.65298 0.54248 0.0
H1424 H 0.25949 0.10971 0.14513 0.0
H1425 H 0.25033 0.11181 0.18939 0.0
H1426 H 0.25944 0.17194 0.18658 0.0
H1427 H 0.26905 0.16997 0.14221 0.0
H1428 H 0.28529 0.15706 0.22416 0.0
H1429 H 0.20236 0.15281 0.19462 0.0
H1430 H 0.16738 0.14007 0.1705 0.0
H1431 H 0.17358 0.08758 0.20926 0.0
H1432 H 0.20884 0.09992 0.23339 0.0
H1433 H 0.23923 0.16886 0.34863 0.0
H1434 H 0.24648 0.17059 0.3038 0.0
H1435 H 0.24318 0.1102 0.29901 0.0
H1436 H 0.23588 0.10828 0.34373 0.0
H1437 H 0.21269 0.12776 0.26521 0.0
H1438 H 0.29734 0.13196 0.29298 0.0
H1439 H 0.33212 0.14512 0.31702 0.0
H1440 H 0.32188 0.19854 0.28148 0.0
H1441 H 0.28679 0.18576 0.25746 0.0
C1442 C 0.25923 0.12343 0.15379 0.0
C1443 C 0.2651 0.13966 0.14013 0.0
C1444 C 0.25389 0.12461 0.17911 0.0
C1445 C 0.25408 0.14205 0.19124 0.0
C1446 C 0.25923 0.15836 0.17755 0.0
C1447 C 0.2646 0.15719 0.15219 0.0
C1448 C 0.25039 0.14302 0.21849 0.0
C1449 C 0.26919 0.15097 0.23313 0.0
C1450 C 0.22961 0.13475 0.23016 0.0
C1451 C 0.2084 0.12725 0.21568 0.0
C1452 C 0.19641 0.1385 0.19787 0.0
C1453 C 0.1765 0.13136 0.18422 0.0
C1454 C 0.1683 0.11301 0.18831 0.0
C1455 C 0.17996 0.10178 0.2061 0.0
C1456 C 0.1999 0.10885 0.21979 0.0
C1457 C 0.24037 0.15593 0.33811 0.0
C1458 C 0.23686 0.13843 0.34975 0.0
C1459 C 0.24455 0.15695 0.31251 0.0
C1460 C 0.2453 0.14052 0.29815 0.0
C1461 C 0.24254 0.12304 0.3098 0.0
C1462 C 0.23849 0.12198 0.33538 0.0
C1463 C 0.24776 0.14152 0.27081 0.0
C1464 C 0.22869 0.13397 0.25619 0.0
C1465 C 0.2682 0.15025 0.25917 0.0
C1466 C 0.28926 0.15796 0.27364 0.0
C1467 C 0.30235 0.14656 0.29047 0.0
C1468 C 0.32216 0.15394 0.30405 0.0
C1469 C 0.32916 0.17267 0.30084 0.0
C1470 C 0.3164 0.18404 0.28398 0.0
C1471 C 0.29657 0.17674 0.27036 0.0
H1472 H 0.3445 0.17835 0.31136 0.0
H1473 H 0.15288 0.10751 0.17772 0.0
H1474 H 0.26556 0.82598 0.85612 0.0
H1475 H 0.25658 0.82324 0.81168 0.0
H1476 H 0.26054 0.88348 0.80429 0.0
H1477 H 0.26894 0.88639 0.84863 0.0
H1478 H 0.22341 0.8701 0.77773 0.0
H1479 H 0.3098 0.85457 0.78923 0.0
H1480 H 0.34473 0.83673 0.80697 0.0
H1481 H 0.31551 0.78574 0.7761 0.0
H1482 H 0.28022 0.80326 0.75843 0.0
H1483 H 0.25054 0.88699 0.65353 0.0
H1484 H 0.25724 0.88278 0.69796 0.0
H1485 H 0.23946 0.82399 0.69134 0.0
H1486 H 0.23256 0.82802 0.64658 0.0
H1487 H 0.28028 0.83272 0.7247 0.0
H1488 H 0.19563 0.84975 0.70978 0.0
H1489 H 0.16214 0.86862 0.69117 0.0
H1490 H 0.18941 0.91784 0.72824 0.0
H1491 H 0.22331 0.89931 0.74676 0.0
C1492 C 0.26426 0.83866 0.84508 0.0
C1493 C 0.26815 0.8564 0.8559 0.0
C1494 C 0.25925 0.83705 0.81967 0.0
C1495 C 0.25831 0.85314 0.80462 0.0
C1496 C 0.26124 0.87088 0.81555 0.0
C1497 C 0.26609 0.87251 0.84093 0.0
C1498 C 0.25502 0.85165 0.77733 0.0
C1499 C 0.23593 0.86199 0.76616 0.0
C1500 C 0.27099 0.84071 0.76226 0.0
C1501 C 0.29224 0.83018 0.77277 0.0
C1502 C 0.31073 0.83953 0.78639 0.0
C1503 C 0.3306 0.82949 0.7964 0.0
C1504 C 0.33229 0.81011 0.79273 0.0
C1505 C 0.31415 0.80075 0.77897 0.0
C1506 C 0.29422 0.81073 0.76894 0.0
C1507 C 0.24841 0.87307 0.66134 0.0
C1508 C 0.24068 0.85788 0.64653 0.0
C1509 C 0.25222 0.87071 0.68677 0.0
C1510 C 0.24841 0.85316 0.69789 0.0
C1511 C 0.24234 0.83766 0.68302 0.0
C1512 C 0.2384 0.84002 0.65749 0.0
C1513 C 0.24909 0.85152 0.72526 0.0
C1514 C 0.2676 0.84059 0.73638 0.0
C1515 C 0.2327 0.86202 0.74033 0.0
C1516 C 0.21212 0.87316 0.72951 0.0
C1517 C 0.19459 0.86462 0.71382 0.0
C1518 C 0.17552 0.87525 0.70331 0.0
C1519 C 0.17368 0.89442 0.70848 0.0
C1520 C 0.19087 0.90299 0.72424 0.0
C1521 C 0.21 0.89243 0.73477 0.0
H1522 H 0.1589 0.90263 0.70032 0.0
H1523 H 0.34769 0.80235 0.80049 0.0
H1524 H 0.65858 0.87485 0.80497 0.0
H1525 H 0.68305 0.88155 0.7678 0.0
H1526 H 0.74685 0.89289 0.81381 0.0
H1527 H 0.72177 0.8875 0.85111 0.0
H1528 H 0.7498 0.91432 0.77632 0.0
H1529 H 0.73506 0.84844 0.78467 0.0
H1530 H 0.71045 0.81951 0.78954 0.0
H1531 H 0.67336 0.83064 0.72047 0.0
H1532 H 0.69754 0.85978 0.71534 0.0
H1533 H 0.83853 0.874 0.68783 0.0
H1534 H 0.81135 0.87953 0.72357 0.0
H1535 H 0.75452 0.90035 0.67455 0.0
H1536 H 0.78193 0.89544 0.63868 0.0
H1537 H 0.74722 0.8647 0.71162 0.0
H1538 H 0.76816 0.93083 0.70408 0.0
H1539 H 0.79765 0.95716 0.70114 0.0
H1540 H 0.82915 0.94176 0.77156 0.0
H1541 H 0.80009 0.91514 0.77472 0.0
C1542 C 0.67772 0.8791 0.8071 0.0
C1543 C 0.6884 0.88051 0.83081 0.0
C1544 C 0.69177 0.88279 0.78586 0.0
C1545 C 0.71708 0.88713 0.78787 0.0
C1546 C 0.72743 0.88946 0.81167 0.0
C1547 C 0.71313 0.88635 0.83299 0.0
C1548 C 0.733 0.88813 0.76526 0.0
C1549 C 0.74925 0.9034 0.76228 0.0
C1550 C 0.73245 0.87392 0.74677 0.0
C1551 C 0.71791 0.85639 0.74976 0.0
C1552 C 0.72153 0.84478 0.77061 0.0
C1553 C 0.70768 0.82834 0.7734 0.0
C1554 C 0.6903 0.82327 0.75537 0.0
C1555 C 0.68679 0.83461 0.73445 0.0
C1556 C 0.70057 0.85108 0.73158 0.0
C1557 C 0.82044 0.88013 0.68472 0.0
C1558 C 0.81229 0.88427 0.6605 0.0
C1559 C 0.805 0.88332 0.70513 0.0
C1560 C 0.78105 0.8904 0.70161 0.0
C1561 C 0.77307 0.89503 0.67756 0.0
C1562 C 0.78873 0.89225 0.65715 0.0
C1563 C 0.7636 0.89088 0.72276 0.0
C1564 C 0.74733 0.87573 0.72554 0.0
C1565 C 0.76473 0.90484 0.74135 0.0
C1566 C 0.78214 0.92087 0.73949 0.0
C1567 C 0.78156 0.93292 0.7188 0.0
C1568 C 0.79815 0.94794 0.71713 0.0
C1569 C 0.81531 0.9511 0.73611 0.0
C1570 C 0.81587 0.93928 0.75685 0.0
C1571 C 0.79933 0.92424 0.7586 0.0
H1572 H 0.82814 0.96273 0.73478 0.0
H1573 H 0.67959 0.81053 0.75756 0.0
H1574 H 0.84467 0.12329 0.31058 0.0
H1575 H 0.82021 0.11684 0.27333 0.0
H1576 H 0.75614 0.1059 0.31913 0.0
H1577 H 0.78116 0.11112 0.35651 0.0
H1578 H 0.75314 0.08461 0.2811 0.0
H1579 H 0.76851 0.15029 0.29113 0.0
H1580 H 0.79342 0.17899 0.29675 0.0
H1581 H 0.83041 0.16864 0.2274 0.0
H1582 H 0.80592 0.13972 0.22153 0.0
H1583 H 0.66477 0.1275 0.19438 0.0
H1584 H 0.69207 0.12103 0.22973 0.0
H1585 H 0.7479 0.09999 0.17971 0.0
H1586 H 0.72033 0.10584 0.14421 0.0
H1587 H 0.75608 0.13523 0.21776 0.0
H1588 H 0.73452 0.06937 0.20839 0.0
H1589 H 0.70482 0.04323 0.20475 0.0
H1590 H 0.67358 0.0576 0.27568 0.0
H1591 H 0.70286 0.08403 0.27955 0.0
C1592 C 0.82548 0.11916 0.31265 0.0
C1593 C 0.81469 0.11787 0.33633 0.0
C1594 C 0.81145 0.1156 0.29137 0.0
C1595 C 0.78607 0.11148 0.29331 0.0
C1596 C 0.77562 0.10917 0.31707 0.0
C1597 C 0.78989 0.11218 0.33843 0.0
C1598 C 0.77017 0.11087 0.27069 0.0
C1599 C 0.75378 0.09574 0.26734 0.0
C1600 C 0.77085 0.12535 0.25259 0.0
C1601 C 0.78559 0.14274 0.25603 0.0
C1602 C 0.78208 0.15407 0.27717 0.0
C1603 C 0.79611 0.17038 0.28038 0.0
C1604 C 0.81354 0.1756 0.26248 0.0
C1605 C 0.81694 0.16455 0.24128 0.0
C1606 C 0.80298 0.14821 0.23799 0.0
C1607 C 0.68266 0.12113 0.19095 0.0
C1608 C 0.69049 0.11721 0.16657 0.0
C1609 C 0.69816 0.11739 0.21115 0.0
C1610 C 0.72186 0.10997 0.20724 0.0
C1611 C 0.72953 0.10556 0.18302 0.0
C1612 C 0.71379 0.10889 0.16282 0.0
C1613 C 0.73946 0.10898 0.22821 0.0
C1614 C 0.7559 0.12397 0.23137 0.0
C1615 C 0.73825 0.09471 0.24639 0.0
C1616 C 0.7207 0.07881 0.24412 0.0
C1617 C 0.72113 0.0671 0.22308 0.0
C1618 C 0.70442 0.05219 0.221 0.0
C1619 C 0.68727 0.04879 0.23993 0.0
C1620 C 0.68685 0.06027 0.26101 0.0
C1621 C 0.70352 0.0752 0.26316 0.0
H1622 H 0.67436 0.03724 0.2383 0.0
H1623 H 0.82438 0.18824 0.265 0.0
H1624 H 0.69934 0.67208 0.35097 0.0
H1625 H 0.70612 0.67495 0.30615 0.0
H1626 H 0.76131 0.63121 0.30967 0.0
H1627 H 0.75371 0.62765 0.35419 0.0
H1628 H 0.74088 0.68305 0.27515 0.0
H1629 H 0.75859 0.60319 0.26068 0.0
H1630 H 0.74695 0.57309 0.28015 0.0
H1631 H 0.68133 0.59842 0.31025 0.0
H1632 H 0.6924 0.62859 0.29069 0.0
H1633 H 0.79182 0.666 0.15601 0.0
H1634 H 0.78087 0.66985 0.19974 0.0
H1635 H 0.71591 0.63548 0.18862 0.0
H1636 H 0.72784 0.6306 0.14525 0.0
H1637 H 0.73632 0.62393 0.22661 0.0
H1638 H 0.71464 0.68549 0.20085 0.0
H1639 H 0.71971 0.71628 0.18051 0.0
H1640 H 0.78096 0.72893 0.22857 0.0
H1641 H 0.77648 0.69811 0.24898 0.0
C1642 C 0.71313 0.66323 0.34221 0.0
C1643 C 0.72575 0.64944 0.35596 0.0
C1644 C 0.71701 0.66491 0.3166 0.0
C1645 C 0.73378 0.65298 0.30442 0.0
C1646 C 0.74773 0.64018 0.31852 0.0
C1647 C 0.74348 0.63822 0.34398 0.0
C1648 C 0.73568 0.6531 0.27688 0.0
C1649 C 0.73986 0.67015 0.26448 0.0
C1650 C 0.73345 0.63637 0.26285 0.0
C1651 C 0.72647 0.61819 0.27441 0.0
C1652 C 0.74163 0.60231 0.27136 0.0
C1653 C 0.73513 0.58525 0.28243 0.0
C1654 C 0.71345 0.58386 0.29649 0.0
C1655 C 0.69816 0.59953 0.29943 0.0
C1656 C 0.70455 0.61662 0.28837 0.0
C1657 C 0.775 0.65953 0.16285 0.0
C1658 C 0.7607 0.64795 0.14735 0.0
C1659 C 0.76864 0.66183 0.18784 0.0
C1660 C 0.74739 0.65312 0.19757 0.0
C1661 C 0.73247 0.64227 0.18168 0.0
C1662 C 0.73923 0.63952 0.15688 0.0
C1663 C 0.74195 0.65388 0.22467 0.0
C1664 C 0.73716 0.63693 0.2371 0.0
C1665 C 0.74259 0.67082 0.2385 0.0
C1666 C 0.74533 0.68941 0.22632 0.0
C1667 C 0.7293 0.69478 0.20697 0.0
C1668 C 0.73205 0.71225 0.19545 0.0
C1669 C 0.75067 0.72453 0.20321 0.0
C1670 C 0.76655 0.71939 0.22256 0.0
C1671 C 0.76389 0.70193 0.23414 0.0
H1672 H 0.75278 0.73805 0.19426 0.0
H1673 H 0.70848 0.57065 0.30507 0.0
H1674 H 0.72784 0.33239 0.64561 0.0
H1675 H 0.73606 0.33033 0.69025 0.0
H1676 H 0.75658 0.38884 0.69136 0.0
H1677 H 0.74853 0.39105 0.64677 0.0
H1678 H 0.78718 0.36705 0.72054 0.0
H1679 H 0.69972 0.37671 0.70763 0.0
H1680 H 0.65867 0.36938 0.69008 0.0
H1681 H 0.65988 0.31545 0.72574 0.0
H1682 H 0.70114 0.32237 0.74322 0.0
H1683 H 0.76929 0.39358 0.845 0.0
H1684 H 0.76338 0.39083 0.80015 0.0
H1685 H 0.7477 0.33179 0.80823 0.0
H1686 H 0.75373 0.33433 0.85326 0.0
H1687 H 0.71576 0.35092 0.77462 0.0
H1688 H 0.80215 0.34234 0.79008 0.0
H1689 H 0.84305 0.34998 0.80773 0.0
H1690 H 0.84382 0.40202 0.76745 0.0
H1691 H 0.80271 0.39483 0.74985 0.0
C1692 C 0.73447 0.34475 0.65525 0.0
C1693 C 0.7373 0.36194 0.64268 0.0
C1694 C 0.73905 0.34356 0.68077 0.0
C1695 C 0.74657 0.3595 0.6941 0.0
C1696 C 0.7507 0.3764 0.68138 0.0
C1697 C 0.74602 0.37764 0.65591 0.0
C1698 C 0.74878 0.35895 0.7215 0.0
C1699 C 0.77154 0.36365 0.73238 0.0
C1700 C 0.72847 0.35412 0.73687 0.0
C1701 C 0.70363 0.34997 0.72648 0.0
C1702 C 0.69133 0.36323 0.71155 0.0
C1703 C 0.66801 0.35916 0.70165 0.0
C1704 C 0.65671 0.34193 0.70673 0.0
C1705 C 0.66868 0.32877 0.72178 0.0
C1706 C 0.69203 0.33276 0.7317 0.0
C1707 C 0.76426 0.38004 0.83735 0.0
C1708 C 0.76214 0.36413 0.85269 0.0
C1709 C 0.76102 0.37849 0.8117 0.0
C1710 C 0.75547 0.36106 0.80095 0.0
C1711 C 0.75211 0.34534 0.81626 0.0
C1712 C 0.75559 0.34682 0.84194 0.0
C1713 C 0.75406 0.35924 0.77362 0.0
C1714 C 0.73146 0.35412 0.76277 0.0
C1715 C 0.77451 0.36371 0.75828 0.0
C1716 C 0.79924 0.36812 0.76882 0.0
C1717 C 0.81093 0.35549 0.78516 0.0
C1718 C 0.83417 0.35973 0.79512 0.0
C1719 C 0.846 0.37649 0.78875 0.0
C1720 C 0.83462 0.38905 0.77238 0.0
C1721 C 0.81135 0.38489 0.76239 0.0
H1722 H 0.86402 0.37972 0.79642 0.0
H1723 H 0.63865 0.33881 0.69905 0.0
H1724 H 0.28732 0.39822 0.64659 0.0
H1725 H 0.26109 0.40241 0.68335 0.0
H1726 H 0.31249 0.3697 0.72691 0.0
H1727 H 0.33827 0.36502 0.6902 0.0
H1728 H 0.26864 0.35672 0.73324 0.0
H1729 H 0.3044 0.418 0.73548 0.0
H1730 H 0.31664 0.44895 0.71905 0.0
H1731 H 0.24038 0.46255 0.7055 0.0
H1732 H 0.2277 0.43157 0.72155 0.0
H1733 H 0.20654 0.39781 0.84966 0.0
H1734 H 0.23475 0.40286 0.81454 0.0
H1735 H 0.18914 0.3673 0.76856 0.0
H1736 H 0.16123 0.36193 0.8035 0.0
H1737 H 0.23235 0.41575 0.76597 0.0
H1738 H 0.22595 0.33767 0.73716 0.0
H1739 H 0.21659 0.30695 0.75619 0.0
H1740 H 0.24048 0.32753 0.82731 0.0
H1741 H 0.25032 0.35826 0.80864 0.0
C1742 C 0.2932 0.3922 0.66412 0.0
C1743 C 0.31473 0.38115 0.66548 0.0
C1744 C 0.27825 0.39466 0.68515 0.0
C1745 C 0.2848 0.38638 0.70795 0.0
C1746 C 0.30694 0.37612 0.70951 0.0
C1747 C 0.32169 0.37348 0.68851 0.0
C1748 C 0.26766 0.38685 0.72958 0.0
C1749 C 0.26082 0.36968 0.74037 0.0
C1750 C 0.25757 0.40373 0.73915 0.0
C1751 C 0.26512 0.42239 0.72952 0.0
C1752 C 0.29025 0.42753 0.72882 0.0
C1753 C 0.29727 0.44509 0.71961 0.0
C1754 C 0.27931 0.45769 0.71118 0.0
C1755 C 0.25428 0.45277 0.71201 0.0
C1756 C 0.24716 0.43522 0.72119 0.0
C1757 C 0.20231 0.39134 0.83194 0.0
C1758 C 0.18188 0.37924 0.82945 0.0
C1759 C 0.2184 0.39428 0.81188 0.0
C1760 C 0.21425 0.38519 0.78909 0.0
C1761 C 0.1929 0.3742 0.78611 0.0
C1762 C 0.17696 0.37115 0.80612 0.0
C1763 C 0.23325 0.38563 0.76918 0.0
C1764 C 0.24032 0.40289 0.75875 0.0
C1765 C 0.24407 0.36886 0.7602 0.0
C1766 C 0.23864 0.35031 0.77153 0.0
C1767 C 0.22931 0.3356 0.75684 0.0
C1768 C 0.22391 0.3182 0.76756 0.0
C1769 C 0.22787 0.31531 0.79296 0.0
C1770 C 0.23734 0.3298 0.80766 0.0
C1771 C 0.24281 0.34722 0.79702 0.0
H1772 H 0.22364 0.30184 0.80123 0.0
H1773 H 0.28478 0.47129 0.70406 0.0
H1774 H 0.28028 0.61164 0.35278 0.0
H1775 H 0.25563 0.60567 0.31552 0.0
H1776 H 0.31894 0.61874 0.26958 0.0
H1777 H 0.34305 0.6259 0.30684 0.0
H1778 H 0.28325 0.63575 0.25156 0.0
H1779 H 0.29234 0.57218 0.27663 0.0
H1780 H 0.29164 0.54486 0.30476 0.0
H1781 H 0.21328 0.55151 0.31486 0.0
H1782 H 0.21355 0.57904 0.28705 0.0
H1783 H 0.21892 0.60712 0.14126 0.0
H1784 H 0.24714 0.6023 0.1765 0.0
H1785 H 0.18872 0.61712 0.22746 0.0
H1786 H 0.16068 0.62257 0.19238 0.0
H1787 H 0.22414 0.58316 0.23995 0.0
H1788 H 0.21945 0.65024 0.21804 0.0
H1789 H 0.22196 0.67604 0.18753 0.0
H1790 H 0.29613 0.65961 0.16874 0.0
H1791 H 0.29387 0.63351 0.19891 0.0
C1792 C 0.28899 0.61294 0.33471 0.0
C1793 C 0.31351 0.61927 0.33265 0.0
C1794 C 0.27494 0.60941 0.31337 0.0
C1795 C 0.28541 0.61152 0.28956 0.0
C1796 C 0.31031 0.61708 0.28764 0.0
C1797 C 0.32413 0.62111 0.30894 0.0
C1798 C 0.26992 0.60954 0.26676 0.0
C1799 C 0.27078 0.62398 0.24894 0.0
C1800 C 0.25329 0.59436 0.26316 0.0
C1801 C 0.25301 0.57778 0.27989 0.0
C1802 C 0.27498 0.5679 0.28499 0.0
C1803 C 0.27466 0.55236 0.30086 0.0
C1804 C 0.25244 0.54648 0.31163 0.0
C1805 C 0.23048 0.55609 0.30651 0.0
C1806 C 0.2307 0.57166 0.29067 0.0
C1807 C 0.21198 0.60898 0.16 0.0
C1808 C 0.18769 0.61532 0.16414 0.0
C1809 C 0.22809 0.60622 0.18005 0.0
C1810 C 0.21991 0.60935 0.20448 0.0
C1811 C 0.19525 0.61455 0.20871 0.0
C1812 C 0.17934 0.61774 0.18869 0.0
C1813 C 0.23766 0.60932 0.22538 0.0
C1814 C 0.23706 0.59463 0.2427 0.0
C1815 C 0.25493 0.62401 0.22833 0.0
C1816 C 0.25638 0.63982 0.21047 0.0
C1817 C 0.2362 0.65203 0.20722 0.0
C1818 C 0.23759 0.66672 0.19004 0.0
C1819 C 0.25916 0.66943 0.17614 0.0
C1820 C 0.27942 0.65747 0.17948 0.0
C1821 C 0.27809 0.64274 0.19662 0.0
H1822 H 0.26021 0.68081 0.16284 0.0
H1823 H 0.25224 0.53444 0.32392 0.0
loop_
_geom_bond_atom_site_label_1
_geom_bond_atom_site_label_2
_geom_bond_distance
_geom_bond_site_symmetry_2
_ccdc_geom_bond_type
O0 Cd1 2.223 . S
O0 C8 1.315 . S
Cd1 O0 2.223 . S
Cd1 O4 2.297 . S
Cd1 O5 2.439 . S
Cd1 O11 2.240 . S
Cd2 O3 2.240 . S
Cd2 O10 2.223 . S
Cd2 O12 2.297 . S
Cd2 O13 2.439 . S
O3 Cd2 2.240 . S
O3 C8 1.279 . S
O4 Cd1 2.297 . S
O4 C6 1.247 . S
O5 Cd1 2.439 . S
O5 C6 1.208 . S
C6 O4 1.247 . S
C6 O5 1.208 . S
C7 O12 1.247 . S
C7 O13 1.208 . S
C8 O0 1.315 . S
C8 O3 1.279 . S
C9 O10 1.315 . S
C9 O11 1.279 . S
O10 Cd2 2.223 . S
O10 C9 1.315 . S
O11 Cd1 2.240 . S
O11 C9 1.279 . S
O12 Cd2 2.297 . S
O12 C7 1.247 . S
O13 Cd2 2.439 . S
O13 C7 1.208 . S
O14 Cd15 2.223 . S
O14 C22 1.315 . S
Cd15 O14 2.223 . S
Cd15 O18 2.297 . S
Cd15 O19 2.439 . S
Cd15 O25 2.240 . S
Cd16 O17 2.240 . S
Cd16 O24 2.223 . S
Cd16 O26 2.297 . S
Cd16 O27 2.439 . S
O17 Cd16 2.240 . S
O17 C22 1.279 . S
O18 Cd15 2.297 . S
O18 C20 1.247 . S
O19 Cd15 2.439 . S
O19 C20 1.208 . S
C20 O18 1.247 . S
C20 O19 1.208 . S
C21 O26 1.247 . S
C21 O27 1.208 . S
C22 O14 1.315 . S
C22 O17 1.279 . S
C23 O24 1.315 . S
C23 O25 1.279 . S
O24 Cd16 2.223 . S
O24 C23 1.315 . S
O25 Cd15 2.240 . S
O25 C23 1.279 . S
O26 Cd16 2.297 . S
O26 C21 1.247 . S
O27 Cd16 2.439 . S
O27 C21 1.208 . S
O28 Cd29 2.223 . S
O28 C36 1.315 . S
Cd29 O28 2.223 . S
Cd29 O32 2.297 . S
Cd29 O33 2.439 . S
Cd29 O39 2.240 . S
Cd30 O31 2.240 . S
Cd30 O38 2.223 . S
Cd30 O40 2.297 . S
Cd30 O41 2.439 . S
O31 Cd30 2.240 . S
O31 C36 1.279 . S
O32 Cd29 2.297 . S
O32 C34 1.247 . S
O33 Cd29 2.439 . S
O33 C34 1.208 . S
C34 O32 1.247 . S
C34 O33 1.208 . S
C35 O40 1.247 . S
C35 O41 1.208 . S
C36 O28 1.315 . S
C36 O31 1.279 . S
C37 O38 1.315 . S
C37 O39 1.279 . S
O38 Cd30 2.223 . S
O38 C37 1.315 . S
O39 Cd29 2.240 . S
O39 C37 1.279 . S
O40 Cd30 2.297 . S
O40 C35 1.247 . S
O41 Cd30 2.439 . S
O41 C35 1.208 . S
O42 Cd43 2.223 . S
O42 C50 1.315 . S
Cd43 O42 2.223 . S
Cd43 O46 2.297 . S
Cd43 O47 2.439 . S
Cd43 O53 2.240 . S
Cd44 O45 2.240 . S
Cd44 O52 2.223 . S
Cd44 O54 2.297 . S
Cd44 O55 2.439 . S
O45 Cd44 2.240 . S
O45 C50 1.279 . S
O46 Cd43 2.297 . S
O46 C48 1.247 . S
O47 Cd43 2.439 . S
O47 C48 1.208 . S
C48 O46 1.247 . S
C48 O47 1.208 . S
C49 O54 1.247 . S
C49 O55 1.208 . S
C50 O42 1.315 . S
C50 O45 1.279 . S
C51 O52 1.315 . S
C51 O53 1.279 . S
O52 Cd44 2.223 . S
O52 C51 1.315 . S
O53 Cd43 2.240 . S
O53 C51 1.279 . S
O54 Cd44 2.297 . S
O54 C49 1.247 . S
O55 Cd44 2.439 . S
O55 C49 1.208 . S
O56 Cd57 2.223 . S
O56 C64 1.315 . S
Cd57 O56 2.223 . S
Cd57 O60 2.297 . S
Cd57 O61 2.439 . S
Cd57 O67 2.240 . S
Cd58 O59 2.240 . S
Cd58 O66 2.223 . S
Cd58 O68 2.297 . S
Cd58 O69 2.439 . S
O59 Cd58 2.240 . S
O59 C64 1.279 . S
O60 Cd57 2.297 . S
O60 C62 1.247 . S
O61 Cd57 2.439 . S
O61 C62 1.208 . S
C62 O60 1.247 . S
C62 O61 1.208 . S
C63 O68 1.247 . S
C63 O69 1.208 . S
C64 O56 1.315 . S
C64 O59 1.279 . S
C65 O66 1.315 . S
C65 O67 1.279 . S
O66 Cd58 2.223 . S
O66 C65 1.315 . S
O67 Cd57 2.240 . S
O67 C65 1.279 . S
O68 Cd58 2.297 . S
O68 C63 1.247 . S
O69 Cd58 2.439 . S
O69 C63 1.208 . S
O70 Cd71 2.223 . S
O70 C78 1.315 . S
Cd71 O70 2.223 . S
Cd71 O74 2.297 . S
Cd71 O75 2.439 . S
Cd71 O81 2.240 . S
Cd72 O73 2.240 . S
Cd72 O80 2.223 . S
Cd72 O82 2.297 . S
Cd72 O83 2.439 . S
O73 Cd72 2.240 . S
O73 C78 1.279 . S
O74 Cd71 2.297 . S
O74 C76 1.247 . S
O75 Cd71 2.439 . S
O75 C76 1.208 . S
C76 O74 1.247 . S
C76 O75 1.208 . S
C77 O82 1.247 . S
C77 O83 1.208 . S
C78 O70 1.315 . S
C78 O73 1.279 . S
C79 O80 1.315 . S
C79 O81 1.279 . S
O80 Cd72 2.223 . S
O80 C79 1.315 . S
O81 Cd71 2.240 . S
O81 C79 1.279 . S
O82 Cd72 2.297 . S
O82 C77 1.247 . S
O83 Cd72 2.439 . S
O83 C77 1.208 . S
O84 Cd85 2.223 . S
O84 C92 1.315 . S
Cd85 O84 2.223 . S
Cd85 O88 2.297 . S
Cd85 O89 2.439 . S
Cd85 O95 2.240 . S
Cd86 O87 2.240 . S
Cd86 O94 2.223 . S
Cd86 O96 2.297 . S
Cd86 O97 2.439 . S
O87 Cd86 2.240 . S
O87 C92 1.279 . S
O88 Cd85 2.297 . S
O88 C90 1.247 . S
O89 Cd85 2.439 . S
O89 C90 1.208 . S
C90 O88 1.247 . S
C90 O89 1.208 . S
C91 O96 1.247 . S
C91 O97 1.208 . S
C92 O84 1.315 . S
C92 O87 1.279 . S
C93 O94 1.315 . S
C93 O95 1.279 . S
O94 Cd86 2.223 . S
O94 C93 1.315 . S
O95 Cd85 2.240 . S
O95 C93 1.279 . S
O96 Cd86 2.297 . S
O96 C91 1.247 . S
O97 Cd86 2.439 . S
O97 C91 1.208 . S
O98 Cd99 2.223 . S
O98 C106 1.315 . S
Cd99 O98 2.223 . S
Cd99 O102 2.297 . S
Cd99 O103 2.439 . S
Cd99 O109 2.240 . S
Cd100 O101 2.240 . S
Cd100 O108 2.223 . S
Cd100 O110 2.297 . S
Cd100 O111 2.439 . S
O101 Cd100 2.240 . S
O101 C106 1.279 . S
O102 Cd99 2.297 . S
O102 C104 1.247 . S
O103 Cd99 2.439 . S
O103 C104 1.208 . S
C104 O102 1.247 . S
C104 O103 1.208 . S
C105 O110 1.247 . S
C105 O111 1.208 . S
C106 O98 1.315 . S
C106 O101 1.279 . S
C107 O108 1.315 . S
C107 O109 1.279 . S
O108 Cd100 2.223 . S
O108 C107 1.315 . S
O109 Cd99 2.240 . S
O109 C107 1.279 . S
O110 Cd100 2.297 . S
O110 C105 1.247 . S
O111 Cd100 2.439 . S
O111 C105 1.208 . S
O112 Cd113 2.223 . S
O112 C120 1.315 . S
Cd113 O112 2.223 . S
Cd113 O116 2.297 . S
Cd113 O117 2.439 . S
Cd113 O123 2.240 . S
Cd114 O115 2.240 . S
Cd114 O122 2.223 . S
Cd114 O124 2.297 . S
Cd114 O125 2.439 . S
O115 Cd114 2.240 . S
O115 C120 1.279 . S
O116 Cd113 2.297 . S
O116 C118 1.247 . S
O117 Cd113 2.439 . S
O117 C118 1.208 . S
C118 O116 1.247 . S
C118 O117 1.208 . S
C119 O124 1.247 . S
C119 O125 1.208 . S
C120 O112 1.315 . S
C120 O115 1.279 . S
C121 O122 1.315 . S
C121 O123 1.279 . S
O122 Cd114 2.223 . S
O122 C121 1.315 . S
O123 Cd113 2.240 . S
O123 C121 1.279 . S
O124 Cd114 2.297 . S
O124 C119 1.247 . S
O125 Cd114 2.439 . S
O125 C119 1.208 . S
O126 Cd127 2.223 . S
O126 C134 1.315 . S
Cd127 O126 2.223 . S
Cd127 O130 2.297 . S
Cd127 O131 2.439 . S
Cd127 O137 2.240 . S
Cd128 O129 2.240 . S
Cd128 O136 2.223 . S
Cd128 O138 2.297 . S
Cd128 O139 2.439 . S
O129 Cd128 2.240 . S
O129 C134 1.279 . S
O130 Cd127 2.297 . S
O130 C132 1.247 . S
O131 Cd127 2.439 . S
O131 C132 1.208 . S
C132 O130 1.247 . S
C132 O131 1.208 . S
C133 O138 1.247 . S
C133 O139 1.208 . S
C134 O126 1.315 . S
C134 O129 1.279 . S
C135 O136 1.315 . S
C135 O137 1.279 . S
O136 Cd128 2.223 . S
O136 C135 1.315 . S
O137 Cd127 2.240 . S
O137 C135 1.279 . S
O138 Cd128 2.297 . S
O138 C133 1.247 . S
O139 Cd128 2.439 . S
O139 C133 1.208 . S
O140 Cd141 2.223 . S
O140 C148 1.315 . S
Cd141 O140 2.223 . S
Cd141 O144 2.297 . S
Cd141 O145 2.439 . S
Cd141 O151 2.240 . S
Cd142 O143 2.240 . S
Cd142 O150 2.223 . S
Cd142 O152 2.297 . S
Cd142 O153 2.439 . S
O143 Cd142 2.240 . S
O143 C148 1.279 . S
O144 Cd141 2.297 . S
O144 C146 1.247 . S
O145 Cd141 2.439 . S
O145 C146 1.208 . S
C146 O144 1.247 . S
C146 O145 1.208 . S
C147 O152 1.247 . S
C147 O153 1.208 . S
C148 O140 1.315 . S
C148 O143 1.279 . S
C149 O150 1.315 . S
C149 O151 1.279 . S
O150 Cd142 2.223 . S
O150 C149 1.315 . S
O151 Cd141 2.240 . S
O151 C149 1.279 . S
O152 Cd142 2.297 . S
O152 C147 1.247 . S
O153 Cd142 2.439 . S
O153 C147 1.208 . S
O154 Cd155 2.223 . S
O154 C162 1.315 . S
Cd155 O154 2.223 . S
Cd155 O158 2.297 . S
Cd155 O159 2.439 . S
Cd155 O165 2.240 . S
Cd156 O157 2.240 . S
Cd156 O164 2.223 . S
Cd156 O166 2.297 . S
Cd156 O167 2.439 . S
O157 Cd156 2.240 . S
O157 C162 1.279 . S
O158 Cd155 2.297 . S
O158 C160 1.247 . S
O159 Cd155 2.439 . S
O159 C160 1.208 . S
C160 O158 1.247 . S
C160 O159 1.208 . S
C161 O166 1.247 . S
C161 O167 1.208 . S
C162 O154 1.315 . S
C162 O157 1.279 . S
C163 O164 1.315 . S
C163 O165 1.279 . S
O164 Cd156 2.223 . S
O164 C163 1.315 . S
O165 Cd155 2.240 . S
O165 C163 1.279 . S
O166 Cd156 2.297 . S
O166 C161 1.247 . S
O167 Cd156 2.439 . S
O167 C161 1.208 . S
O168 Cd169 2.223 . S
O168 C176 1.315 . S
Cd169 O168 2.223 . S
Cd169 O172 2.297 . S
Cd169 O173 2.439 . S
Cd169 O179 2.240 . S
Cd170 O171 2.240 . S
Cd170 O178 2.223 . S
Cd170 O180 2.297 . S
Cd170 O181 2.439 . S
O171 Cd170 2.240 . S
O171 C176 1.279 . S
O172 Cd169 2.297 . S
O172 C174 1.247 . S
O173 Cd169 2.439 . S
O173 C174 1.208 . S
C174 O172 1.247 . S
C174 O173 1.208 . S
C175 O180 1.247 . S
C175 O181 1.208 . S
C176 O168 1.315 . S
C176 O171 1.279 . S
C177 O178 1.315 . S
C177 O179 1.279 . S
O178 Cd170 2.223 . S
O178 C177 1.315 . S
O179 Cd169 2.240 . S
O179 C177 1.279 . S
O180 Cd170 2.297 . S
O180 C175 1.247 . S
O181 Cd170 2.439 . S
O181 C175 1.208 . S
O182 Cd183 2.223 . S
O182 C190 1.315 . S
Cd183 O182 2.223 . S
Cd183 O186 2.297 . S
Cd183 O187 2.439 . S
Cd183 O193 2.240 . S
Cd184 O185 2.240 . S
Cd184 O192 2.223 . S
Cd184 O194 2.297 . S
Cd184 O195 2.439 . S
O185 Cd184 2.240 . S
O185 C190 1.279 . S
O186 Cd183 2.297 . S
O186 C188 1.247 . S
O187 Cd183 2.439 . S
O187 C188 1.208 . S
C188 O186 1.247 . S
C188 O187 1.208 . S
C189 O194 1.247 . S
C189 O195 1.208 . S
C190 O182 1.315 . S
C190 O185 1.279 . S
C191 O192 1.315 . S
C191 O193 1.279 . S
O192 Cd184 2.223 . S
O192 C191 1.315 . S
O193 Cd183 2.240 . S
O193 C191 1.279 . S
O194 Cd184 2.297 . S
O194 C189 1.247 . S
O195 Cd184 2.439 . S
O195 C189 1.208 . S
O196 Cd197 2.223 . S
O196 C204 1.315 . S
Cd197 O196 2.223 . S
Cd197 O200 2.297 . S
Cd197 O201 2.439 . S
Cd197 O207 2.240 . S
Cd198 O199 2.240 . S
Cd198 O206 2.223 . S
Cd198 O208 2.297 . S
Cd198 O209 2.439 . S
O199 Cd198 2.240 . S
O199 C204 1.279 . S
O200 Cd197 2.297 . S
O200 C202 1.247 . S
O201 Cd197 2.439 . S
O201 C202 1.208 . S
C202 O200 1.247 . S
C202 O201 1.208 . S
C203 O208 1.247 . S
C203 O209 1.208 . S
C204 O196 1.315 . S
C204 O199 1.279 . S
C205 O206 1.315 . S
C205 O207 1.279 . S
O206 Cd198 2.223 . S
O206 C205 1.315 . S
O207 Cd197 2.240 . S
O207 C205 1.279 . S
O208 Cd198 2.297 . S
O208 C203 1.247 . S
O209 Cd198 2.439 . S
O209 C203 1.208 . S
O210 Cd211 2.223 . S
O210 C218 1.315 . S
Cd211 O210 2.223 . S
Cd211 O214 2.297 . S
Cd211 O215 2.439 . S
Cd211 O221 2.240 . S
Cd212 O213 2.240 . S
Cd212 O220 2.223 . S
Cd212 O222 2.297 . S
Cd212 O223 2.439 . S
O213 Cd212 2.240 . S
O213 C218 1.279 . S
O214 Cd211 2.297 . S
O214 C216 1.247 . S
O215 Cd211 2.439 . S
O215 C216 1.208 . S
C216 O214 1.247 . S
C216 O215 1.208 . S
C217 O222 1.247 . S
C217 O223 1.208 . S
C218 O210 1.315 . S
C218 O213 1.279 . S
C219 O220 1.315 . S
C219 O221 1.279 . S
O220 Cd212 2.223 . S
O220 C219 1.315 . S
O221 Cd211 2.240 . S
O221 C219 1.279 . S
O222 Cd212 2.297 . S
O222 C217 1.247 . S
O223 Cd212 2.439 . S
O223 C217 1.208 . S
H224 C242 0.951 . S
H225 C244 0.951 . S
H226 C246 0.950 . S
H227 C247 0.950 . S
H228 C249 0.950 . S
H229 C252 0.950 . S
H230 C253 0.950 . S
H231 C255 0.950 . S
H232 C256 0.950 . S
H233 C257 0.951 . S
H234 C259 0.951 . S
H235 C261 0.950 . S
H236 C262 0.950 . S
H237 C264 0.950 . S
H238 C267 0.950 . S
H239 C268 0.950 . S
H240 C270 0.950 . S
H241 C271 0.963 . S
C242 H224 0.951 . S
C242 C243 1.366 . S
C242 C244 1.388 . S
C243 C242 1.366 . S
C243 C247 1.385 . S
C244 H225 0.951 . S
C244 C242 1.388 . S
C244 C245 1.366 . S
C245 C244 1.366 . S
C245 C246 1.414 . S
C245 C248 1.499 1_554 S
C246 H226 0.950 . S
C246 C245 1.414 . S
C246 C247 1.374 . S
C247 H227 0.950 . S
C247 C243 1.385 . S
C247 C246 1.374 . S
C248 C245 1.499 1_556 S
C248 C249 1.373 1_556 S
C248 C250 1.389 . S
C249 H228 0.950 . S
C249 C248 1.373 1_554 S
C249 C265 1.377 1_554 S
C250 C248 1.389 . S
C250 C251 1.524 . S
C250 C264 1.377 . S
C251 C250 1.524 . S
C251 C252 1.397 . S
C251 C256 1.363 . S
C252 H229 0.950 . S
C252 C251 1.397 . S
C252 C253 1.334 . S
C253 H230 0.950 . S
C253 C252 1.334 . S
C253 C254 1.287 . S
C254 C253 1.287 . S
C254 C255 1.524 . S
C254 H273 0.913 . S
C255 H231 0.950 . S
C255 C254 1.524 . S
C255 C256 1.415 . S
C256 H232 0.950 . S
C256 C251 1.363 . S
C256 C255 1.415 . S
C257 H233 0.951 . S
C257 C258 1.366 . S
C257 C259 1.388 . S
C258 C257 1.366 . S
C258 C262 1.385 . S
C259 H234 0.951 . S
C259 C257 1.388 . S
C259 C260 1.366 . S
C260 C259 1.366 . S
C260 C261 1.414 . S
C260 C263 1.499 . S
C261 H235 0.950 . S
C261 C260 1.414 . S
C261 C262 1.374 . S
C262 H236 0.950 . S
C262 C258 1.385 . S
C262 C261 1.374 . S
C263 C260 1.499 . S
C263 C264 1.373 . S
C263 C265 1.389 . S
C264 H237 0.950 . S
C264 C250 1.377 . S
C264 C263 1.373 . S
C265 C249 1.377 1_556 S
C265 C263 1.389 . S
C265 C266 1.524 . S
C266 C265 1.524 . S
C266 C267 1.397 1_556 S
C266 C271 1.364 . S
C267 H238 0.950 . S
C267 C266 1.397 1_554 S
C267 C268 1.334 . S
C268 H239 0.950 . S
C268 C267 1.334 . S
C268 C269 1.287 . S
C269 C268 1.287 . S
C269 C270 1.524 . S
C269 H272 0.999 . S
C270 H240 0.950 . S
C270 C269 1.524 . S
C270 C271 1.403 1_554 S
C271 H241 0.963 . S
C271 C266 1.364 . S
C271 C270 1.403 1_556 S
H272 C269 0.999 . S
H273 C254 0.913 . S
H274 C292 0.951 . S
H275 C294 0.951 . S
H276 C296 0.950 . S
H277 C297 0.950 . S
H278 C299 0.950 . S
H279 C302 0.950 . S
H280 C303 0.950 . S
H281 C305 0.950 . S
H282 C306 0.950 . S
H283 C307 0.951 . S
H284 C309 0.951 . S
H285 C311 0.950 . S
H286 C312 0.950 . S
H287 C314 0.950 . S
H288 C317 0.950 . S
H289 C318 0.950 . S
H290 C320 0.950 . S
H291 C321 0.950 . S
C292 H274 0.951 . S
C292 C293 1.366 . S
C292 C294 1.388 . S
C293 C292 1.366 . S
C293 C297 1.385 . S
C294 H275 0.951 . S
C294 C292 1.388 . S
C294 C295 1.366 . S
C295 C294 1.366 . S
C295 C296 1.414 . S
C295 C298 1.499 . S
C296 H276 0.950 . S
C296 C295 1.414 . S
C296 C297 1.374 . S
C297 H277 0.950 . S
C297 C293 1.385 . S
C297 C296 1.374 . S
C298 C295 1.499 . S
C298 C299 1.373 . S
C298 C300 1.389 . S
C299 H278 0.950 . S
C299 C298 1.373 . S
C299 C315 1.377 . S
C300 C298 1.389 . S
C300 C301 1.524 . S
C300 C314 1.377 . S
C301 C300 1.524 . S
C301 C302 1.397 . S
C301 C306 1.363 . S
C302 H279 0.950 . S
C302 C301 1.397 . S
C302 C303 1.334 . S
C303 H280 0.950 . S
C303 C302 1.334 . S
C303 C304 1.287 . S
C304 C303 1.287 . S
C304 C305 1.524 . S
C304 H323 0.913 . S
C305 H281 0.950 . S
C305 C304 1.524 . S
C305 C306 1.415 . S
C306 H282 0.950 . S
C306 C301 1.363 . S
C306 C305 1.415 . S
C307 H283 0.951 . S
C307 C308 1.366 . S
C307 C309 1.388 . S
C308 C307 1.366 . S
C308 C312 1.385 . S
C309 H284 0.951 . S
C309 C307 1.388 . S
C309 C310 1.366 . S
C310 C309 1.366 . S
C310 C311 1.414 . S
C310 C313 1.499 . S
C311 H285 0.950 . S
C311 C310 1.414 . S
C311 C312 1.374 . S
C312 H286 0.950 . S
C312 C308 1.385 . S
C312 C311 1.374 . S
C313 C310 1.499 . S
C313 C314 1.373 . S
C313 C315 1.389 . S
C314 H287 0.950 . S
C314 C300 1.377 . S
C314 C313 1.373 . S
C315 C299 1.377 . S
C315 C313 1.389 . S
C315 C316 1.524 . S
C316 C315 1.524 . S
C316 C317 1.397 . S
C316 C321 1.363 . S
C317 H288 0.950 . S
C317 C316 1.397 . S
C317 C318 1.334 . S
C318 H289 0.950 . S
C318 C317 1.334 . S
C318 C319 1.287 . S
C319 C318 1.287 . S
C319 C320 1.524 . S
C319 H322 0.999 . S
C320 H290 0.950 . S
C320 C319 1.524 . S
C320 C321 1.415 . S
C321 H291 0.950 . S
C321 C316 1.363 . S
C321 C320 1.415 . S
H322 C319 0.999 . S
H323 C304 0.913 . S
H324 C342 0.951 . S
H325 C344 0.951 . S
H326 C346 0.950 . S
H327 C347 0.950 . S
H328 C349 0.950 . S
H329 C352 0.950 . S
H330 C353 0.950 . S
H331 C355 0.950 . S
H332 C356 0.950 . S
H333 C357 0.951 . S
H334 C359 0.951 . S
H335 C361 0.950 . S
H336 C362 0.950 . S
H337 C364 0.950 . S
H338 C367 0.950 . S
H339 C368 0.950 . S
H340 C370 0.950 . S
H341 C371 0.950 . S
C342 H324 0.951 . S
C342 C343 1.366 . S
C342 C344 1.388 . S
C343 C342 1.366 . S
C343 C347 1.385 . S
C344 H325 0.951 . S
C344 C342 1.388 . S
C344 C345 1.366 . S
C345 C344 1.366 . S
C345 C346 1.414 . S
C345 C348 1.499 1_556 S
C346 H326 0.950 . S
C346 C345 1.414 . S
C346 C347 1.374 . S
C347 H327 0.950 . S
C347 C343 1.385 . S
C347 C346 1.374 . S
C348 C345 1.499 1_554 S
C348 C349 1.373 . S
C348 C350 1.390 1_554 S
C349 H328 0.950 . S
C349 C348 1.373 . S
C349 C365 1.377 . S
C350 C348 1.390 1_556 S
C350 C351 1.524 . S
C350 C364 1.377 1_556 S
C351 C350 1.524 . S
C351 C352 1.397 . S
C351 C356 1.363 . S
C352 H329 0.950 . S
C352 C351 1.397 . S
C352 C353 1.334 . S
C353 H330 0.950 . S
C353 C352 1.334 . S
C353 C354 1.287 . S
C354 C353 1.287 . S
C354 C355 1.524 . S
C354 H373 0.913 . S
C355 H331 0.950 . S
C355 C354 1.524 . S
C355 C356 1.415 . S
C356 H332 0.950 . S
C356 C351 1.363 . S
C356 C355 1.415 . S
C357 H333 0.951 . S
C357 C358 1.366 . S
C357 C359 1.388 . S
C358 C357 1.366 . S
C358 C362 1.385 . S
C359 H334 0.951 . S
C359 C357 1.388 . S
C359 C360 1.366 . S
C360 C359 1.366 . S
C360 C361 1.414 . S
C360 C363 1.499 . S
C361 H335 0.950 . S
C361 C360 1.414 . S
C361 C362 1.374 . S
C362 H336 0.950 . S
C362 C358 1.385 . S
C362 C361 1.374 . S
C363 C360 1.499 . S
C363 C364 1.373 . S
C363 C365 1.389 . S
C364 H337 0.950 . S
C364 C350 1.377 1_554 S
C364 C363 1.373 . S
C365 C349 1.377 . S
C365 C363 1.389 . S
C365 C366 1.524 . S
C366 C365 1.524 . S
C366 C367 1.397 . S
C366 C371 1.363 . S
C367 H338 0.950 . S
C367 C366 1.397 . S
C367 C368 1.334 . S
C368 H339 0.950 . S
C368 C367 1.334 . S
C368 C369 1.287 . S
C369 C368 1.287 . S
C369 C370 1.524 . S
C369 H372 0.999 . S
C370 H340 0.950 . S
C370 C369 1.524 . S
C370 C371 1.415 . S
C371 H341 0.950 . S
C371 C366 1.363 . S
C371 C370 1.415 . S
H372 C369 0.999 . S
H373 C354 0.913 . S
H374 C392 0.951 . S
H375 C394 0.951 . S
H376 C396 0.950 . S
H377 C397 0.950 . S
H378 C399 0.950 . S
H379 C402 0.950 . S
H380 C403 0.950 . S
H381 C405 0.950 . S
H382 C406 0.950 . S
H383 C407 0.951 . S
H384 C409 0.951 . S
H385 C411 0.950 . S
H386 C412 0.950 . S
H387 C414 0.950 . S
H388 C417 0.950 . S
H389 C418 0.950 . S
H390 C420 0.950 . S
H391 C421 0.950 . S
C392 H374 0.951 . S
C392 C393 1.366 . S
C392 C394 1.388 . S
C393 C392 1.366 . S
C393 C397 1.385 . S
C394 H375 0.951 . S
C394 C392 1.388 . S
C394 C395 1.366 . S
C395 C394 1.366 . S
C395 C396 1.414 . S
C395 C398 1.499 . S
C396 H376 0.950 . S
C396 C395 1.414 . S
C396 C397 1.374 . S
C397 H377 0.950 . S
C397 C393 1.385 . S
C397 C396 1.374 . S
C398 C395 1.499 . S
C398 C399 1.373 . S
C398 C400 1.389 . S
C399 H378 0.950 . S
C399 C398 1.373 . S
C399 C415 1.377 . S
C400 C398 1.389 . S
C400 C401 1.524 . S
C400 C414 1.377 . S
C401 C400 1.524 . S
C401 C402 1.397 . S
C401 C406 1.363 . S
C402 H379 0.950 . S
C402 C401 1.397 . S
C402 C403 1.334 . S
C403 H380 0.950 . S
C403 C402 1.334 . S
C403 C404 1.287 . S
C404 C403 1.287 . S
C404 C405 1.524 . S
C404 H423 0.913 . S
C405 H381 0.950 . S
C405 C404 1.524 . S
C405 C406 1.415 . S
C406 H382 0.950 . S
C406 C401 1.363 . S
C406 C405 1.415 . S
C407 H383 0.951 . S
C407 C408 1.366 . S
C407 C409 1.388 . S
C408 C407 1.366 . S
C408 C412 1.385 . S
C409 H384 0.951 . S
C409 C407 1.388 . S
C409 C410 1.366 . S
C410 C409 1.366 . S
C410 C411 1.414 . S
C410 C413 1.499 . S
C411 H385 0.950 . S
C411 C410 1.414 . S
C411 C412 1.374 . S
C412 H386 0.950 . S
C412 C408 1.385 . S
C412 C411 1.374 . S
C413 C410 1.499 . S
C413 C414 1.373 . S
C413 C415 1.389 . S
C414 H387 0.950 . S
C414 C400 1.377 . S
C414 C413 1.373 . S
C415 C399 1.377 . S
C415 C413 1.389 . S
C415 C416 1.524 . S
C416 C415 1.524 . S
C416 C417 1.397 . S
C416 C421 1.363 . S
C417 H388 0.950 . S
C417 C416 1.397 . S
C417 C418 1.334 . S
C418 H389 0.950 . S
C418 C417 1.334 . S
C418 C419 1.287 . S
C419 C418 1.287 . S
C419 C420 1.524 . S
C419 H422 0.999 . S
C420 H390 0.950 . S
C420 C419 1.524 . S
C420 C421 1.415 . S
C421 H391 0.950 . S
C421 C416 1.363 . S
C421 C420 1.415 . S
H422 C419 0.999 . S
H423 C404 0.913 . S
H424 C442 0.951 . S
H425 C444 0.951 . S
H426 C446 0.950 . S
H427 C447 0.950 . S
H428 C449 0.950 . S
H429 C452 0.950 . S
H430 C453 0.950 . S
H431 C455 0.950 . S
H432 C456 0.950 . S
H433 C457 0.951 . S
H434 C459 0.951 . S
H435 C461 0.950 . S
H436 C462 0.950 . S
H437 C464 0.950 . S
H438 C467 0.950 . S
H439 C468 0.950 . S
H440 C470 0.950 . S
H441 C471 0.950 . S
C442 H424 0.951 . S
C442 C443 1.366 . S
C442 C444 1.388 . S
C443 C442 1.366 . S
C443 C447 1.385 . S
C444 H425 0.951 . S
C444 C442 1.388 . S
C444 C445 1.366 . S
C445 C444 1.366 . S
C445 C446 1.414 . S
C445 C448 1.498 1_554 S
C446 H426 0.950 . S
C446 C445 1.414 . S
C446 C447 1.374 . S
C447 H427 0.950 . S
C447 C443 1.385 . S
C447 C446 1.374 . S
C448 C445 1.498 1_556 S
C448 C449 1.374 . S
C448 C450 1.389 1_556 S
C449 H428 0.950 . S
C449 C448 1.374 . S
C449 C465 1.377 . S
C450 C448 1.389 1_554 S
C450 C451 1.524 . S
C450 C464 1.377 1_554 S
C451 C450 1.524 . S
C451 C452 1.397 . S
C451 C456 1.363 . S
C452 H429 0.950 . S
C452 C451 1.397 . S
C452 C453 1.334 . S
C453 H430 0.950 . S
C453 C452 1.334 . S
C453 C454 1.287 . S
C454 C453 1.287 . S
C454 C455 1.524 . S
C454 H473 0.913 . S
C455 H431 0.950 . S
C455 C454 1.524 . S
C455 C456 1.415 . S
C456 H432 0.950 . S
C456 C451 1.363 . S
C456 C455 1.415 . S
C457 H433 0.951 . S
C457 C458 1.366 . S
C457 C459 1.388 . S
C458 C457 1.366 . S
C458 C462 1.385 . S
C459 H434 0.951 . S
C459 C457 1.388 . S
C459 C460 1.366 . S
C460 C459 1.366 . S
C460 C461 1.414 . S
C460 C463 1.499 . S
C461 H435 0.950 . S
C461 C460 1.414 . S
C461 C462 1.374 . S
C462 H436 0.950 . S
C462 C458 1.385 . S
C462 C461 1.374 . S
C463 C460 1.499 . S
C463 C464 1.373 . S
C463 C465 1.389 . S
C464 H437 0.950 . S
C464 C450 1.377 1_556 S
C464 C463 1.373 . S
C465 C449 1.377 . S
C465 C463 1.389 . S
C465 C466 1.524 . S
C466 C465 1.524 . S
C466 C467 1.397 . S
C466 C471 1.363 . S
C467 H438 0.950 . S
C467 C466 1.397 . S
C467 C468 1.334 . S
C468 H439 0.950 . S
C468 C467 1.334 . S
C468 C469 1.287 . S
C469 C468 1.287 . S
C469 C470 1.524 . S
C469 H472 0.999 . S
C470 H440 0.950 . S
C470 C469 1.524 . S
C470 C471 1.415 . S
C471 H441 0.950 . S
C471 C466 1.363 . S
C471 C470 1.415 . S
H472 C469 0.999 . S
H473 C454 0.913 . S
H474 C492 0.951 . S
H475 C494 0.951 . S
H476 C496 0.950 . S
H477 C497 0.950 . S
H478 C499 0.950 . S
H479 C502 0.950 . S
H480 C503 0.950 . S
H481 C505 0.950 . S
H482 C506 0.950 . S
H483 C507 0.951 . S
H484 C509 0.951 . S
H485 C511 0.950 . S
H486 C512 0.950 . S
H487 C514 0.950 . S
H488 C517 0.950 . S
H489 C518 0.950 . S
H490 C520 0.950 . S
H491 C521 0.950 . S
C492 H474 0.951 . S
C492 C493 1.366 . S
C492 C494 1.388 . S
C493 C492 1.366 . S
C493 C497 1.385 . S
C494 H475 0.951 . S
C494 C492 1.388 . S
C494 C495 1.366 . S
C495 C494 1.366 . S
C495 C496 1.414 . S
C495 C498 1.499 . S
C496 H476 0.950 . S
C496 C495 1.414 . S
C496 C497 1.374 . S
C497 H477 0.950 . S
C497 C493 1.385 . S
C497 C496 1.374 . S
C498 C495 1.499 . S
C498 C499 1.373 . S
C498 C500 1.389 . S
C499 H478 0.950 . S
C499 C498 1.373 . S
C499 C515 1.377 . S
C500 C498 1.389 . S
C500 C501 1.524 . S
C500 C514 1.377 . S
C501 C500 1.524 . S
C501 C502 1.397 . S
C501 C506 1.363 . S
C502 H479 0.950 . S
C502 C501 1.397 . S
C502 C503 1.334 . S
C503 H480 0.950 . S
C503 C502 1.334 . S
C503 C504 1.287 . S
C504 C503 1.287 . S
C504 C505 1.524 . S
C504 H523 0.913 . S
C505 H481 0.950 . S
C505 C504 1.524 . S
C505 C506 1.415 . S
C506 H482 0.950 . S
C506 C501 1.363 . S
C506 C505 1.415 . S
C507 H483 0.951 . S
C507 C508 1.366 . S
C507 C509 1.388 . S
C508 C507 1.366 . S
C508 C512 1.385 . S
C509 H484 0.951 . S
C509 C507 1.388 . S
C509 C510 1.366 . S
C510 C509 1.366 . S
C510 C511 1.414 . S
C510 C513 1.499 . S
C511 H485 0.950 . S
C511 C510 1.414 . S
C511 C512 1.374 . S
C512 H486 0.950 . S
C512 C508 1.385 . S
C512 C511 1.374 . S
C513 C510 1.499 . S
C513 C514 1.373 . S
C513 C515 1.389 . S
C514 H487 0.950 . S
C514 C500 1.377 . S
C514 C513 1.373 . S
C515 C499 1.377 . S
C515 C513 1.389 . S
C515 C516 1.524 . S
C516 C515 1.524 . S
C516 C517 1.397 . S
C516 C521 1.363 . S
C517 H488 0.950 . S
C517 C516 1.397 . S
C517 C518 1.334 . S
C518 H489 0.950 . S
C518 C517 1.334 . S
C518 C519 1.287 . S
C519 C518 1.287 . S
C519 C520 1.524 . S
C519 H522 0.999 . S
C520 H490 0.950 . S
C520 C519 1.524 . S
C520 C521 1.415 . S
C521 H491 0.950 . S
C521 C516 1.363 . S
C521 C520 1.415 . S
H522 C519 0.999 . S
H523 C504 0.913 . S
H524 C542 0.951 . S
H525 C544 0.951 1_554 S
H526 C546 0.950 . S
H527 C547 0.950 . S
H528 C549 0.950 . S
H529 C552 0.950 . S
H530 C553 0.950 . S
H531 C555 0.950 . S
H532 C556 0.950 . S
H533 C557 0.951 . S
H534 C559 0.951 . S
H535 C561 0.950 . S
H536 C562 0.950 . S
H537 C564 0.950 . S
H538 C567 0.950 . S
H539 C568 0.950 . S
H540 C570 0.950 . S
H541 C571 0.950 . S
C542 H524 0.951 . S
C542 C543 1.366 . S
C542 C544 1.388 . S
C543 C542 1.366 . S
C543 C547 1.385 . S
C544 H525 0.951 1_556 S
C544 C542 1.388 . S
C544 C545 1.366 . S
C545 C544 1.366 . S
C545 C546 1.414 . S
C545 C548 1.499 1_556 S
C546 H526 0.950 . S
C546 C545 1.414 . S
C546 C547 1.374 . S
C547 H527 0.950 . S
C547 C543 1.385 . S
C547 C546 1.374 . S
C548 C545 1.499 1_554 S
C548 C549 1.373 1_554 S
C548 C550 1.389 . S
C549 H528 0.950 . S
C549 C548 1.373 1_556 S
C549 C565 1.355 1_556 S
C550 C548 1.389 . S
C550 C551 1.524 . S
C550 C564 1.377 . S
C551 C550 1.524 . S
C551 C552 1.397 . S
C551 C556 1.363 . S
C552 H529 0.950 . S
C552 C551 1.397 . S
C552 C553 1.334 . S
C553 H530 0.950 . S
C553 C552 1.334 . S
C553 C554 1.287 . S
C554 C553 1.287 . S
C554 C555 1.524 . S
C554 H573 0.913 . S
C555 H531 0.950 . S
C555 C554 1.524 . S
C555 C556 1.415 . S
C556 H532 0.950 . S
C556 C551 1.363 . S
C556 C555 1.415 . S
C557 H533 0.951 . S
C557 C558 1.366 . S
C557 C559 1.388 . S
C558 C557 1.366 . S
C558 C562 1.385 . S
C559 H534 0.951 . S
C559 C557 1.388 . S
C559 C560 1.366 . S
C560 C559 1.366 . S
C560 C561 1.414 . S
C560 C563 1.499 . S
C561 H535 0.950 . S
C561 C560 1.414 . S
C561 C562 1.374 . S
C562 H536 0.950 . S
C562 C558 1.385 . S
C562 C561 1.374 . S
C563 C560 1.499 . S
C563 C564 1.373 . S
C563 C565 1.437 . S
C564 H537 0.950 . S
C564 C550 1.377 . S
C564 C563 1.373 . S
C565 C549 1.355 1_554 S
C565 C563 1.437 . S
C565 C566 1.497 1_554 S
C566 C565 1.497 1_556 S
C566 C567 1.397 . S
C566 C571 1.363 . S
C567 H538 0.950 . S
C567 C566 1.397 . S
C567 C568 1.334 . S
C568 H539 0.950 . S
C568 C567 1.334 . S
C568 C569 1.287 . S
C569 C568 1.287 . S
C569 C570 1.524 . S
C569 H572 0.999 . S
C570 H540 0.950 . S
C570 C569 1.524 . S
C570 C571 1.415 . S
C571 H541 0.950 . S
C571 C566 1.363 . S
C571 C570 1.415 . S
H572 C569 0.999 . S
H573 C554 0.913 . S
H574 C592 0.951 . S
H575 C594 0.951 . S
H576 C596 0.950 . S
H577 C597 0.950 . S
H578 C599 0.950 . S
H579 C602 0.950 . S
H580 C603 0.950 . S
H581 C605 0.950 . S
H582 C606 0.950 . S
H583 C607 0.951 . S
H584 C609 0.951 . S
H585 C611 0.950 . S
H586 C612 0.950 . S
H587 C614 0.950 . S
H588 C617 0.950 . S
H589 C618 0.950 . S
H590 C620 0.950 . S
H591 C621 0.950 . S
C592 H574 0.951 . S
C592 C593 1.366 . S
C592 C594 1.388 . S
C593 C592 1.366 . S
C593 C597 1.385 . S
C594 H575 0.951 . S
C594 C592 1.388 . S
C594 C595 1.366 . S
C595 C594 1.366 . S
C595 C596 1.414 . S
C595 C598 1.499 . S
C596 H576 0.950 . S
C596 C595 1.414 . S
C596 C597 1.374 . S
C597 H577 0.950 . S
C597 C593 1.385 . S
C597 C596 1.374 . S
C598 C595 1.499 . S
C598 C599 1.373 . S
C598 C600 1.389 . S
C599 H578 0.950 . S
C599 C598 1.373 . S
C599 C615 1.377 . S
C600 C598 1.389 . S
C600 C601 1.524 . S
C600 C614 1.377 . S
C601 C600 1.524 . S
C601 C602 1.397 . S
C601 C606 1.363 . S
C602 H579 0.950 . S
C602 C601 1.397 . S
C602 C603 1.334 . S
C603 H580 0.950 . S
C603 C602 1.334 . S
C603 C604 1.287 . S
C604 C603 1.287 . S
C604 C605 1.524 . S
C604 H623 0.913 . S
C605 H581 0.950 . S
C605 C604 1.524 . S
C605 C606 1.415 . S
C606 H582 0.950 . S
C606 C601 1.363 . S
C606 C605 1.415 . S
C607 H583 0.951 . S
C607 C608 1.366 . S
C607 C609 1.388 . S
C608 C607 1.366 . S
C608 C612 1.385 . S
C609 H584 0.951 . S
C609 C607 1.388 . S
C609 C610 1.366 . S
C610 C609 1.366 . S
C610 C611 1.414 . S
C610 C613 1.499 . S
C611 H585 0.950 . S
C611 C610 1.414 . S
C611 C612 1.374 . S
C612 H586 0.950 . S
C612 C608 1.385 . S
C612 C611 1.374 . S
C613 C610 1.499 . S
C613 C614 1.373 . S
C613 C615 1.389 . S
C614 H587 0.950 . S
C614 C600 1.377 . S
C614 C613 1.373 . S
C615 C599 1.377 . S
C615 C613 1.389 . S
C615 C616 1.524 . S
C616 C615 1.524 . S
C616 C617 1.397 . S
C616 C621 1.363 . S
C617 H588 0.950 . S
C617 C616 1.397 . S
C617 C618 1.334 . S
C618 H589 0.950 . S
C618 C617 1.334 . S
C618 C619 1.287 . S
C619 C618 1.287 . S
C619 C620 1.524 . S
C619 H622 0.999 . S
C620 H590 0.950 . S
C620 C619 1.524 . S
C620 C621 1.415 . S
C621 H591 0.950 . S
C621 C616 1.363 . S
C621 C620 1.415 . S
H622 C619 0.999 . S
H623 C604 0.913 . S
H624 C642 0.951 1_556 S
H625 C644 0.985 . S
H626 C646 0.950 . S
H627 C647 0.950 . S
H628 C649 0.950 . S
H629 C652 0.950 . S
H630 C653 0.950 . S
H631 C655 0.950 . S
H632 C656 0.950 . S
H633 C657 0.951 1_554 S
H634 C659 0.985 . S
H635 C661 0.950 . S
H636 C662 0.950 . S
H637 C664 0.950 . S
H638 C667 0.950 . S
H639 C668 0.950 . S
H640 C670 0.950 . S
H641 C671 0.950 . S
C642 H624 0.951 1_554 S
C642 C643 1.366 . S
C642 C644 1.377 1_554 S
C643 C642 1.366 . S
C643 C647 1.385 . S
C644 H625 0.985 . S
C644 C642 1.377 1_556 S
C644 C645 1.343 1_556 S
C645 C644 1.343 1_554 S
C645 C646 1.414 . S
C645 C648 1.499 . S
C646 H626 0.950 . S
C646 C645 1.414 . S
C646 C647 1.374 . S
C647 H627 0.950 . S
C647 C643 1.385 . S
C647 C646 1.374 . S
C648 C645 1.499 . S
C648 C649 1.373 . S
C648 C650 1.389 1_554 S
C649 H628 0.950 . S
C649 C648 1.373 . S
C649 C665 1.377 1_545 S
C650 C648 1.389 1_556 S
C650 C651 1.524 . S
C650 C664 1.377 1_545 S
C651 C650 1.524 . S
C651 C652 1.397 . S
C651 C656 1.363 . S
C652 H629 0.950 . S
C652 C651 1.397 . S
C652 C653 1.334 . S
C653 H630 0.950 . S
C653 C652 1.334 . S
C653 C654 1.287 . S
C654 C653 1.287 . S
C654 C655 1.524 . S
C654 H673 0.913 . S
C655 H631 0.950 . S
C655 C654 1.524 . S
C655 C656 1.415 . S
C656 H632 0.950 . S
C656 C651 1.363 . S
C656 C655 1.415 . S
C657 H633 0.951 1_556 S
C657 C658 1.366 . S
C657 C659 1.377 1_556 S
C658 C657 1.366 . S
C658 C662 1.385 . S
C659 H634 0.985 . S
C659 C657 1.377 1_554 S
C659 C660 1.343 1_554 S
C660 C659 1.343 1_556 S
C660 C661 1.414 . S
C660 C663 1.499 . S
C661 H635 0.950 . S
C661 C660 1.414 . S
C661 C662 1.374 . S
C662 H636 0.950 . S
C662 C658 1.385 . S
C662 C661 1.374 . S
C663 C660 1.499 . S
C663 C664 1.373 . S
C663 C665 1.389 1_556 S
C664 H637 0.950 . S
C664 C650 1.377 1_565 S
C664 C663 1.373 . S
C665 C649 1.377 1_565 S
C665 C663 1.389 1_554 S
C665 C666 1.524 . S
C666 C665 1.524 . S
C666 C667 1.397 . S
C666 C671 1.363 . S
C667 H638 0.950 . S
C667 C666 1.397 . S
C667 C668 1.334 . S
C668 H639 0.950 . S
C668 C667 1.334 . S
C668 C669 1.287 . S
C669 C668 1.287 . S
C669 C670 1.524 . S
C669 H672 0.999 . S
C670 H640 0.950 . S
C670 C669 1.524 . S
C670 C671 1.415 . S
C671 H641 0.950 . S
C671 C666 1.363 . S
C671 C670 1.415 . S
H672 C669 0.999 . S
H673 C654 0.913 . S
H674 C692 0.951 . S
H675 C694 0.951 . S
H676 C696 0.950 . S
H677 C697 0.950 . S
H678 C699 0.950 . S
H679 C702 0.950 . S
H680 C703 0.950 . S
H681 C705 0.950 . S
H682 C706 0.950 . S
H683 C707 0.951 . S
H684 C709 0.951 . S
H685 C711 0.950 . S
H686 C712 0.950 . S
H687 C714 0.950 . S
H688 C717 0.950 . S
H689 C718 0.950 . S
H690 C720 0.950 . S
H691 C721 0.950 . S
C692 H674 0.951 . S
C692 C693 1.366 . S
C692 C694 1.388 . S
C693 C692 1.366 . S
C693 C697 1.385 . S
C694 H675 0.951 . S
C694 C692 1.388 . S
C694 C695 1.366 . S
C695 C694 1.366 . S
C695 C696 1.414 . S
C695 C698 1.499 . S
C696 H676 0.950 . S
C696 C695 1.414 . S
C696 C697 1.374 . S
C697 H677 0.950 . S
C697 C693 1.385 . S
C697 C696 1.374 . S
C698 C695 1.499 . S
C698 C699 1.373 . S
C698 C700 1.389 . S
C699 H678 0.950 . S
C699 C698 1.373 . S
C699 C715 1.377 1_565 S
C700 C698 1.389 . S
C700 C701 1.524 . S
C700 C714 1.377 1_565 S
C701 C700 1.524 . S
C701 C702 1.397 . S
C701 C706 1.363 . S
C702 H679 0.950 . S
C702 C701 1.397 . S
C702 C703 1.334 . S
C703 H680 0.950 . S
C703 C702 1.334 . S
C703 C704 1.287 . S
C704 C703 1.287 . S
C704 C705 1.524 . S
C704 H723 0.913 . S
C705 H681 0.950 . S
C705 C704 1.524 . S
C705 C706 1.415 . S
C706 H682 0.950 . S
C706 C701 1.363 . S
C706 C705 1.415 . S
C707 H683 0.951 . S
C707 C708 1.366 . S
C707 C709 1.388 . S
C708 C707 1.366 . S
C708 C712 1.385 . S
C709 H684 0.951 . S
C709 C707 1.388 . S
C709 C710 1.366 . S
C710 C709 1.366 . S
C710 C711 1.414 . S
C710 C713 1.499 . S
C711 H685 0.950 . S
C711 C710 1.414 . S
C711 C712 1.374 . S
C712 H686 0.950 . S
C712 C708 1.385 . S
C712 C711 1.374 . S
C713 C710 1.499 . S
C713 C714 1.373 . S
C713 C715 1.389 . S
C714 H687 0.950 . S
C714 C700 1.377 1_545 S
C714 C713 1.373 . S
C715 C699 1.377 1_545 S
C715 C713 1.389 . S
C715 C716 1.524 . S
C716 C715 1.524 . S
C716 C717 1.397 . S
C716 C721 1.363 . S
C717 H688 0.950 . S
C717 C716 1.397 . S
C717 C718 1.334 . S
C718 H689 0.950 . S
C718 C717 1.334 . S
C718 C719 1.287 . S
C719 C718 1.287 . S
C719 C720 1.524 . S
C719 H722 0.999 . S
C720 H690 0.950 . S
C720 C719 1.524 . S
C720 C721 1.415 . S
C721 H691 0.950 . S
C721 C716 1.363 . S
C721 C720 1.415 . S
H722 C719 0.999 . S
H723 C704 0.913 . S
H724 C742 0.951 . S
H725 C744 0.951 . S
H726 C746 0.950 . S
H727 C747 0.950 . S
H728 C749 0.950 . S
H729 C752 0.950 . S
H730 C753 0.950 . S
H731 C755 0.950 . S
H732 C756 0.965 . S
H733 C757 0.951 . S
H734 C759 0.951 . S
H735 C761 0.950 . S
H736 C762 0.950 . S
H737 C764 0.950 . S
H738 C767 0.950 . S
H739 C768 0.950 . S
H740 C770 0.950 . S
H741 C771 0.965 . S
C742 H724 0.951 . S
C742 C743 1.366 . S
C742 C744 1.388 . S
C743 C742 1.366 . S
C743 C747 1.385 . S
C744 H725 0.951 . S
C744 C742 1.388 . S
C744 C745 1.366 . S
C745 C744 1.366 . S
C745 C746 1.414 . S
C745 C748 1.499 . S
C746 H726 0.950 . S
C746 C745 1.414 . S
C746 C747 1.374 . S
C747 H727 0.950 . S
C747 C743 1.385 . S
C747 C746 1.374 . S
C748 C745 1.499 . S
C748 C749 1.373 . S
C748 C750 1.389 1_556 S
C749 H728 0.950 . S
C749 C748 1.373 . S
C749 C765 1.377 1_565 S
C750 C748 1.389 1_554 S
C750 C751 1.524 . S
C750 C764 1.377 1_565 S
C751 C750 1.524 . S
C751 C752 1.397 . S
C751 C756 1.363 . S
C752 H729 0.950 . S
C752 C751 1.397 . S
C752 C753 1.334 . S
C753 H730 0.950 . S
C753 C752 1.334 . S
C753 C754 1.287 . S
C754 C753 1.287 . S
C754 C755 1.524 . S
C754 H773 0.913 . S
C755 H731 0.950 . S
C755 C754 1.524 . S
C755 C756 1.415 . S
C756 H732 0.965 . S
C756 C751 1.363 . S
C756 C755 1.415 . S
C757 H733 0.951 . S
C757 C758 1.366 . S
C757 C759 1.388 . S
C758 C757 1.366 . S
C758 C762 1.385 . S
C759 H734 0.951 . S
C759 C757 1.388 . S
C759 C760 1.366 . S
C760 C759 1.366 . S
C760 C761 1.414 . S
C760 C763 1.499 . S
C761 H735 0.950 . S
C761 C760 1.414 . S
C761 C762 1.374 . S
C762 H736 0.950 . S
C762 C758 1.385 . S
C762 C761 1.374 . S
C763 C760 1.499 . S
C763 C764 1.373 . S
C763 C765 1.389 1_554 S
C764 H737 0.950 . S
C764 C750 1.377 1_545 S
C764 C763 1.373 . S
C765 C749 1.377 1_545 S
C765 C763 1.389 1_556 S
C765 C766 1.524 . S
C766 C765 1.524 . S
C766 C767 1.397 . S
C766 C771 1.363 . S
C767 H738 0.950 . S
C767 C766 1.397 . S
C767 C768 1.334 . S
C768 H739 0.950 . S
C768 C767 1.334 . S
C768 C769 1.287 . S
C769 C768 1.287 . S
C769 C770 1.524 . S
C769 H772 0.999 . S
C770 H740 0.950 . S
C770 C769 1.524 . S
C770 C771 1.415 . S
C771 H741 0.965 . S
C771 C766 1.363 . S
C771 C770 1.415 . S
H772 C769 0.999 . S
H773 C754 0.913 . S
H774 C792 0.951 . S
H775 C794 0.951 . S
H776 C796 0.950 . S
H777 C797 0.950 . S
H778 C799 0.950 . S
H779 C802 0.950 . S
H780 C803 0.950 . S
H781 C805 0.950 . S
H782 C806 0.950 . S
H783 C807 0.951 . S
H784 C809 0.951 . S
H785 C811 0.950 . S
H786 C812 0.950 . S
H787 C814 0.950 . S
H788 C817 0.950 . S
H789 C818 0.950 . S
H790 C820 0.950 . S
H791 C821 0.950 . S
C792 H774 0.951 . S
C792 C793 1.366 . S
C792 C794 1.388 . S
C793 C792 1.366 . S
C793 C797 1.385 . S
C794 H775 0.951 . S
C794 C792 1.388 . S
C794 C795 1.366 . S
C795 C794 1.366 . S
C795 C796 1.414 . S
C795 C798 1.499 . S
C796 H776 0.950 . S
C796 C795 1.414 . S
C796 C797 1.374 . S
C797 H777 0.950 . S
C797 C793 1.385 . S
C797 C796 1.374 . S
C798 C795 1.499 . S
C798 C799 1.373 . S
C798 C800 1.389 . S
C799 H778 0.950 . S
C799 C798 1.373 . S
C799 C815 1.377 1_545 S
C800 C798 1.389 . S
C800 C801 1.524 . S
C800 C814 1.377 1_545 S
C801 C800 1.524 . S
C801 C802 1.397 . S
C801 C806 1.363 . S
C802 H779 0.950 . S
C802 C801 1.397 . S
C802 C803 1.334 . S
C803 H780 0.950 . S
C803 C802 1.334 . S
C803 C804 1.287 . S
C804 C803 1.287 . S
C804 C805 1.524 . S
C804 H823 0.913 . S
C805 H781 0.950 . S
C805 C804 1.524 . S
C805 C806 1.415 . S
C806 H782 0.950 . S
C806 C801 1.363 . S
C806 C805 1.415 . S
C807 H783 0.951 . S
C807 C808 1.366 . S
C807 C809 1.388 . S
C808 C807 1.366 . S
C808 C812 1.385 . S
C809 H784 0.951 . S
C809 C807 1.388 . S
C809 C810 1.366 . S
C810 C809 1.366 . S
C810 C811 1.414 . S
C810 C813 1.499 . S
C811 H785 0.950 . S
C811 C810 1.414 . S
C811 C812 1.374 . S
C812 H786 0.950 . S
C812 C808 1.385 . S
C812 C811 1.374 . S
C813 C810 1.499 . S
C813 C814 1.373 . S
C813 C815 1.389 . S
C814 H787 0.950 . S
C814 C800 1.377 1_565 S
C814 C813 1.373 . S
C815 C799 1.377 1_565 S
C815 C813 1.389 . S
C815 C816 1.524 . S
C816 C815 1.524 . S
C816 C817 1.397 . S
C816 C821 1.363 . S
C817 H788 0.950 . S
C817 C816 1.397 . S
C817 C818 1.334 . S
C818 H789 0.950 . S
C818 C817 1.334 . S
C818 C819 1.287 . S
C819 C818 1.287 . S
C819 C820 1.524 . S
C819 H822 0.999 . S
C820 H790 0.950 . S
C820 C819 1.524 . S
C820 C821 1.415 . S
C821 H791 0.950 . S
C821 C816 1.363 . S
C821 C820 1.415 . S
H822 C819 0.999 . S
H823 C804 0.913 . S
H824 C842 0.951 . S
H825 C844 0.951 . S
H826 C846 0.950 . S
H827 C847 0.950 1_554 S
H828 C849 0.950 . S
H829 C852 0.950 1_554 S
H830 C853 0.950 . S
H831 C855 0.950 . S
H832 C856 0.950 . S
H833 C857 0.951 . S
H834 C859 0.951 . S
H835 C861 0.950 . S
H836 C862 0.950 1_556 S
H837 C864 0.950 . S
H838 C867 0.950 1_556 S
H839 C868 0.950 . S
H840 C870 0.950 . S
H841 C871 0.950 . S
C842 H824 0.951 . S
C842 C843 1.366 . S
C842 C844 1.388 . S
C843 C842 1.366 . S
C843 C847 1.385 . S
C844 H825 0.951 . S
C844 C842 1.388 . S
C844 C845 1.366 . S
C845 C844 1.366 . S
C845 C846 1.414 1_556 S
C845 C848 1.499 . S
C846 H826 0.950 . S
C846 C845 1.414 1_554 S
C846 C847 1.374 1_554 S
C847 H827 0.950 1_556 S
C847 C843 1.385 . S
C847 C846 1.374 1_556 S
C848 C845 1.499 . S
C848 C849 1.373 1_556 S
C848 C850 1.389 . S
C849 H828 0.950 . S
C849 C848 1.373 1_554 S
C849 C865 1.377 . S
C850 C848 1.389 . S
C850 C851 1.524 . S
C850 C864 1.377 . S
C851 C850 1.524 . S
C851 C852 1.397 . S
C851 C856 1.363 . S
C852 H829 0.950 1_556 S
C852 C851 1.397 . S
C852 C853 1.334 . S
C853 H830 0.950 . S
C853 C852 1.334 . S
C853 C854 1.287 . S
C854 C853 1.287 . S
C854 C855 1.524 . S
C854 H873 0.913 . S
C855 H831 0.950 . S
C855 C854 1.524 . S
C855 C856 1.415 . S
C856 H832 0.950 . S
C856 C851 1.363 . S
C856 C855 1.415 . S
C857 H833 0.951 . S
C857 C858 1.366 . S
C857 C859 1.388 . S
C858 C857 1.366 . S
C858 C862 1.385 . S
C859 H834 0.951 . S
C859 C857 1.388 . S
C859 C860 1.366 . S
C860 C859 1.366 . S
C860 C861 1.414 1_554 S
C860 C863 1.499 . S
C861 H835 0.950 . S
C861 C860 1.414 1_556 S
C861 C862 1.374 1_556 S
C862 H836 0.950 1_554 S
C862 C858 1.385 . S
C862 C861 1.374 1_554 S
C863 C860 1.499 . S
C863 C864 1.373 1_554 S
C863 C865 1.389 . S
C864 H837 0.950 . S
C864 C850 1.377 . S
C864 C863 1.373 1_556 S
C865 C849 1.377 . S
C865 C863 1.389 . S
C865 C866 1.524 . S
C866 C865 1.524 . S
C866 C867 1.397 . S
C866 C871 1.363 . S
C867 H838 0.950 1_554 S
C867 C866 1.397 . S
C867 C868 1.334 . S
C868 H839 0.950 . S
C868 C867 1.334 . S
C868 C869 1.287 . S
C869 C868 1.287 . S
C869 C870 1.524 . S
C869 H872 0.999 . S
C870 H840 0.950 . S
C870 C869 1.524 . S
C870 C871 1.415 . S
C871 H841 0.950 . S
C871 C866 1.363 . S
C871 C870 1.415 . S
H872 C869 0.999 . S
H873 C854 0.913 . S
H874 C892 0.951 . S
H875 C894 0.951 . S
H876 C896 0.950 . S
H877 C897 0.950 . S
H878 C899 0.950 . S
H879 C902 0.950 . S
H880 C903 0.950 . S
H881 C905 0.950 . S
H882 C906 0.950 . S
H883 C907 0.951 . S
H884 C909 0.951 . S
H885 C911 0.950 . S
H886 C912 0.950 . S
H887 C914 0.950 . S
H888 C917 0.950 . S
H889 C918 0.950 . S
H890 C920 0.950 . S
H891 C921 0.950 . S
C892 H874 0.951 . S
C892 C893 1.366 . S
C892 C894 1.388 . S
C893 C892 1.366 . S
C893 C897 1.385 . S
C894 H875 0.951 . S
C894 C892 1.388 . S
C894 C895 1.366 . S
C895 C894 1.366 . S
C895 C896 1.414 . S
C895 C898 1.499 . S
C896 H876 0.950 . S
C896 C895 1.414 . S
C896 C897 1.374 . S
C897 H877 0.950 . S
C897 C893 1.385 . S
C897 C896 1.374 . S
C898 C895 1.499 . S
C898 C899 1.373 . S
C898 C900 1.389 . S
C899 H878 0.950 . S
C899 C898 1.373 . S
C899 C915 1.377 . S
C900 C898 1.389 . S
C900 C901 1.524 . S
C900 C914 1.377 . S
C901 C900 1.524 . S
C901 C902 1.397 . S
C901 C906 1.363 . S
C902 H879 0.950 . S
C902 C901 1.397 . S
C902 C903 1.334 . S
C903 H880 0.950 . S
C903 C902 1.334 . S
C903 C904 1.287 . S
C904 C903 1.287 . S
C904 C905 1.524 . S
C904 H923 0.913 . S
C905 H881 0.950 . S
C905 C904 1.524 . S
C905 C906 1.415 . S
C906 H882 0.950 . S
C906 C901 1.363 . S
C906 C905 1.415 . S
C907 H883 0.951 . S
C907 C908 1.366 . S
C907 C909 1.388 . S
C908 C907 1.366 . S
C908 C912 1.385 . S
C909 H884 0.951 . S
C909 C907 1.388 . S
C909 C910 1.366 . S
C910 C909 1.366 . S
C910 C911 1.414 . S
C910 C913 1.499 . S
C911 H885 0.950 . S
C911 C910 1.414 . S
C911 C912 1.374 . S
C912 H886 0.950 . S
C912 C908 1.385 . S
C912 C911 1.374 . S
C913 C910 1.499 . S
C913 C914 1.373 . S
C913 C915 1.389 . S
C914 H887 0.950 . S
C914 C900 1.377 . S
C914 C913 1.373 . S
C915 C899 1.377 . S
C915 C913 1.389 . S
C915 C916 1.524 . S
C916 C915 1.524 . S
C916 C917 1.397 . S
C916 C921 1.363 . S
C917 H888 0.950 . S
C917 C916 1.397 . S
C917 C918 1.334 . S
C918 H889 0.950 . S
C918 C917 1.334 . S
C918 C919 1.287 . S
C919 C918 1.287 . S
C919 C920 1.524 . S
C919 H922 0.999 . S
C920 H890 0.950 . S
C920 C919 1.524 . S
C920 C921 1.415 . S
C921 H891 0.950 . S
C921 C916 1.363 . S
C921 C920 1.415 . S
H922 C919 0.999 . S
H923 C904 0.913 . S
H924 C942 0.951 . S
H925 C944 0.951 . S
H926 C946 0.950 . S
H927 C947 0.950 . S
H928 C949 0.950 . S
H929 C952 0.950 . S
H930 C953 0.950 . S
H931 C955 0.950 . S
H932 C956 0.950 . S
H933 C957 0.951 . S
H934 C959 0.951 . S
H935 C961 0.950 . S
H936 C962 0.950 . S
H937 C964 0.950 . S
H938 C967 0.950 . S
H939 C968 0.950 . S
H940 C970 0.950 . S
H941 C971 0.950 . S
C942 H924 0.951 . S
C942 C943 1.366 . S
C942 C944 1.388 . S
C943 C942 1.366 . S
C943 C947 1.385 . S
C944 H925 0.951 . S
C944 C942 1.388 . S
C944 C945 1.366 . S
C945 C944 1.366 . S
C945 C946 1.414 . S
C945 C948 1.499 . S
C946 H926 0.950 . S
C946 C945 1.414 . S
C946 C947 1.374 . S
C947 H927 0.950 . S
C947 C943 1.385 . S
C947 C946 1.374 . S
C948 C945 1.499 . S
C948 C949 1.390 . S
C948 C950 1.389 . S
C949 H928 0.950 . S
C949 C948 1.390 . S
C949 C965 1.360 1_554 S
C950 C948 1.389 . S
C950 C951 1.524 . S
C950 C964 1.360 1_554 S
C951 C950 1.524 . S
C951 C952 1.397 . S
C951 C956 1.363 . S
C952 H929 0.950 . S
C952 C951 1.397 . S
C952 C953 1.334 . S
C953 H930 0.950 . S
C953 C952 1.334 . S
C953 C954 1.287 . S
C954 C953 1.287 . S
C954 C955 1.524 . S
C954 H973 0.913 . S
C955 H931 0.950 . S
C955 C954 1.524 . S
C955 C956 1.415 . S
C956 H932 0.950 . S
C956 C951 1.363 . S
C956 C955 1.415 . S
C957 H933 0.951 . S
C957 C958 1.366 . S
C957 C959 1.388 . S
C958 C957 1.366 . S
C958 C962 1.385 . S
C959 H934 0.951 . S
C959 C957 1.388 . S
C959 C960 1.366 . S
C960 C959 1.366 . S
C960 C961 1.414 . S
C960 C963 1.499 . S
C961 H935 0.950 . S
C961 C960 1.414 . S
C961 C962 1.374 . S
C962 H936 0.950 . S
C962 C958 1.385 . S
C962 C961 1.374 . S
C963 C960 1.499 . S
C963 C964 1.390 . S
C963 C965 1.389 . S
C964 H937 0.950 . S
C964 C950 1.360 1_556 S
C964 C963 1.390 . S
C965 C949 1.360 1_556 S
C965 C963 1.389 . S
C965 C966 1.524 . S
C966 C965 1.524 . S
C966 C967 1.397 . S
C966 C971 1.363 . S
C967 H938 0.950 . S
C967 C966 1.397 . S
C967 C968 1.334 . S
C968 H939 0.950 . S
C968 C967 1.334 . S
C968 C969 1.287 . S
C969 C968 1.287 . S
C969 C970 1.524 . S
C969 H972 0.999 . S
C970 H940 0.950 . S
C970 C969 1.524 . S
C970 C971 1.415 . S
C971 H941 0.950 . S
C971 C966 1.363 . S
C971 C970 1.415 . S
H972 C969 0.999 . S
H973 C954 0.913 . S
H974 C992 0.951 . S
H975 C994 0.951 . S
H976 C996 0.950 . S
H977 C997 0.950 . S
H978 C999 0.950 . S
H979 C1002 0.950 . S
H980 C1003 0.950 . S
H981 C1005 0.950 . S
H982 C1006 0.950 . S
H983 C1007 0.951 . S
H984 C1009 0.951 . S
H985 C1011 0.950 . S
H986 C1012 0.950 . S
H987 C1014 0.950 . S
H988 C1017 0.950 . S
H989 C1018 0.950 . S
H990 C1020 0.950 . S
H991 C1021 0.950 . S
C992 H974 0.951 . S
C992 C993 1.366 . S
C992 C994 1.388 . S
C993 C992 1.366 . S
C993 C997 1.385 . S
C994 H975 0.951 . S
C994 C992 1.388 . S
C994 C995 1.366 . S
C995 C994 1.366 . S
C995 C996 1.414 . S
C995 C998 1.499 . S
C996 H976 0.950 . S
C996 C995 1.414 . S
C996 C997 1.374 . S
C997 H977 0.950 . S
C997 C993 1.385 . S
C997 C996 1.374 . S
C998 C995 1.499 . S
C998 C999 1.373 . S
C998 C1000 1.389 . S
C999 H978 0.950 . S
C999 C998 1.373 . S
C999 C1015 1.377 . S
C1000 C998 1.389 . S
C1000 C1001 1.524 . S
C1000 C1014 1.377 . S
C1001 C1000 1.524 . S
C1001 C1002 1.397 . S
C1001 C1006 1.363 . S
C1002 H979 0.950 . S
C1002 C1001 1.397 . S
C1002 C1003 1.334 . S
C1003 H980 0.950 . S
C1003 C1002 1.334 . S
C1003 C1004 1.287 . S
C1004 C1003 1.287 . S
C1004 C1005 1.524 . S
C1004 H1023 0.913 . S
C1005 H981 0.950 . S
C1005 C1004 1.524 . S
C1005 C1006 1.415 . S
C1006 H982 0.950 . S
C1006 C1001 1.363 . S
C1006 C1005 1.415 . S
C1007 H983 0.951 . S
C1007 C1008 1.366 . S
C1007 C1009 1.388 . S
C1008 C1007 1.366 . S
C1008 C1012 1.385 . S
C1009 H984 0.951 . S
C1009 C1007 1.388 . S
C1009 C1010 1.366 . S
C1010 C1009 1.366 . S
C1010 C1011 1.414 . S
C1010 C1013 1.499 . S
C1011 H985 0.950 . S
C1011 C1010 1.414 . S
C1011 C1012 1.374 . S
C1012 H986 0.950 . S
C1012 C1008 1.385 . S
C1012 C1011 1.374 . S
C1013 C1010 1.499 . S
C1013 C1014 1.373 . S
C1013 C1015 1.389 . S
C1014 H987 0.950 . S
C1014 C1000 1.377 . S
C1014 C1013 1.373 . S
C1015 C999 1.377 . S
C1015 C1013 1.389 . S
C1015 C1016 1.524 . S
C1016 C1015 1.524 . S
C1016 C1017 1.397 . S
C1016 C1021 1.363 . S
C1017 H988 0.950 . S
C1017 C1016 1.397 . S
C1017 C1018 1.334 . S
C1018 H989 0.950 . S
C1018 C1017 1.334 . S
C1018 C1019 1.287 . S
C1019 C1018 1.287 . S
C1019 C1020 1.524 . S
C1019 H1022 0.999 . S
C1020 H990 0.950 . S
C1020 C1019 1.524 . S
C1020 C1021 1.415 . S
C1021 H991 0.950 . S
C1021 C1016 1.363 . S
C1021 C1020 1.415 . S
H1022 C1019 0.999 . S
H1023 C1004 0.913 . S
H1024 C1042 0.951 . S
H1025 C1044 0.951 . S
H1026 C1046 0.950 . S
H1027 C1047 0.950 . S
H1028 C1049 0.950 . S
H1029 C1052 0.950 . S
H1030 C1053 0.950 . S
H1031 C1055 0.950 . S
H1032 C1056 0.950 . S
H1033 C1057 0.951 . S
H1034 C1059 0.951 . S
H1035 C1061 0.950 . S
H1036 C1062 0.950 . S
H1037 C1064 0.950 . S
H1038 C1067 0.950 . S
H1039 C1068 0.938 1_556 S
H1040 C1070 0.950 . S
H1041 C1071 0.950 . S
C1042 H1024 0.951 . S
C1042 C1043 1.366 . S
C1042 C1044 1.388 . S
C1043 C1042 1.366 . S
C1043 C1047 1.385 . S
C1044 H1025 0.951 . S
C1044 C1042 1.388 . S
C1044 C1045 1.366 . S
C1045 C1044 1.366 . S
C1045 C1046 1.414 . S
C1045 C1048 1.499 . S
C1046 H1026 0.950 . S
C1046 C1045 1.414 . S
C1046 C1047 1.374 . S
C1047 H1027 0.950 . S
C1047 C1043 1.385 . S
C1047 C1046 1.374 . S
C1048 C1045 1.499 . S
C1048 C1049 1.373 . S
C1048 C1050 1.389 . S
C1049 H1028 0.950 . S
C1049 C1048 1.373 . S
C1049 C1065 1.377 . S
C1050 C1048 1.389 . S
C1050 C1051 1.524 . S
C1050 C1064 1.377 . S
C1051 C1050 1.524 . S
C1051 C1052 1.397 . S
C1051 C1056 1.363 . S
C1052 H1029 0.950 . S
C1052 C1051 1.397 . S
C1052 C1053 1.334 . S
C1053 H1030 0.950 . S
C1053 C1052 1.334 . S
C1053 C1054 1.287 . S
C1054 C1053 1.287 . S
C1054 C1055 1.524 . S
C1054 H1073 0.913 . S
C1055 H1031 0.950 . S
C1055 C1054 1.524 . S
C1055 C1056 1.415 . S
C1056 H1032 0.950 . S
C1056 C1051 1.363 . S
C1056 C1055 1.415 . S
C1057 H1033 0.951 . S
C1057 C1058 1.366 . S
C1057 C1059 1.388 . S
C1058 C1057 1.366 . S
C1058 C1062 1.385 . S
C1059 H1034 0.951 . S
C1059 C1057 1.388 . S
C1059 C1060 1.366 . S
C1060 C1059 1.366 . S
C1060 C1061 1.414 . S
C1060 C1063 1.499 . S
C1061 H1035 0.950 . S
C1061 C1060 1.414 . S
C1061 C1062 1.374 . S
C1062 H1036 0.950 . S
C1062 C1058 1.385 . S
C1062 C1061 1.374 . S
C1063 C1060 1.499 . S
C1063 C1064 1.373 . S
C1063 C1065 1.389 . S
C1064 H1037 0.950 . S
C1064 C1050 1.377 . S
C1064 C1063 1.373 . S
C1065 C1049 1.377 . S
C1065 C1063 1.389 . S
C1065 C1066 1.524 . S
C1066 C1065 1.524 . S
C1066 C1067 1.397 . S
C1066 C1071 1.363 . S
C1067 H1038 0.950 . S
C1067 C1066 1.397 . S
C1067 C1068 1.334 . S
C1068 H1039 0.938 1_554 S
C1068 C1067 1.334 . S
C1068 C1069 1.287 . S
C1069 C1068 1.287 . S
C1069 C1070 1.524 . S
C1069 H1072 0.999 1_554 S
C1070 H1040 0.950 . S
C1070 C1069 1.524 . S
C1070 C1071 1.415 . S
C1071 H1041 0.950 . S
C1071 C1066 1.363 . S
C1071 C1070 1.415 . S
H1072 C1069 0.999 1_556 S
H1073 C1054 0.913 . S
H1074 C1092 0.951 . S
H1075 C1094 0.951 . S
H1076 C1096 0.950 . S
H1077 C1097 0.950 . S
H1078 C1099 0.950 . S
H1079 C1102 0.950 . S
H1080 C1103 0.950 1_655 S
H1081 C1105 0.950 . S
H1082 C1106 0.950 . S
H1083 C1107 0.951 . S
H1084 C1109 0.951 . S
H1085 C1111 0.950 . S
H1086 C1112 0.950 . S
H1087 C1114 0.950 . S
H1088 C1117 0.950 . S
H1089 C1118 0.950 . S
H1090 C1120 0.950 . S
H1091 C1121 0.950 . S
C1092 H1074 0.951 . S
C1092 C1093 1.366 . S
C1092 C1094 1.388 . S
C1093 C1092 1.366 . S
C1093 C1097 1.385 . S
C1094 H1075 0.951 . S
C1094 C1092 1.388 . S
C1094 C1095 1.384 . S
C1095 C1094 1.384 . S
C1095 C1096 1.433 . S
C1095 C1098 1.463 1_655 S
C1096 H1076 0.950 . S
C1096 C1095 1.433 . S
C1096 C1097 1.374 . S
C1097 H1077 0.950 . S
C1097 C1093 1.385 . S
C1097 C1096 1.374 . S
C1098 C1095 1.463 1_455 S
C1098 C1099 1.373 . S
C1098 C1100 1.389 . S
C1099 H1078 0.950 . S
C1099 C1098 1.373 . S
C1099 C1115 1.377 . S
C1100 C1098 1.389 . S
C1100 C1101 1.524 . S
C1100 C1114 1.377 . S
C1101 C1100 1.524 . S
C1101 C1102 1.397 . S
C1101 C1106 1.363 . S
C1102 H1079 0.950 . S
C1102 C1101 1.397 . S
C1102 C1103 1.334 . S
C1103 H1080 0.950 1_455 S
C1103 C1102 1.334 . S
C1103 C1104 1.287 . S
C1104 C1103 1.287 . S
C1104 C1105 1.524 . S
C1104 H1123 0.922 . S
C1105 H1081 0.950 . S
C1105 C1104 1.524 . S
C1105 C1106 1.415 . S
C1106 H1082 0.950 . S
C1106 C1101 1.363 . S
C1106 C1105 1.415 . S
C1107 H1083 0.951 . S
C1107 C1108 1.366 . S
C1107 C1109 1.388 . S
C1108 C1107 1.366 . S
C1108 C1112 1.385 . S
C1109 H1084 0.951 . S
C1109 C1107 1.388 . S
C1109 C1110 1.366 . S
C1110 C1109 1.366 . S
C1110 C1111 1.414 . S
C1110 C1113 1.499 . S
C1111 H1085 0.950 . S
C1111 C1110 1.414 . S
C1111 C1112 1.374 . S
C1112 H1086 0.950 . S
C1112 C1108 1.385 . S
C1112 C1111 1.374 . S
C1113 C1110 1.499 . S
C1113 C1114 1.373 . S
C1113 C1115 1.389 . S
C1114 H1087 0.950 . S
C1114 C1100 1.377 . S
C1114 C1113 1.373 . S
C1115 C1099 1.377 . S
C1115 C1113 1.389 . S
C1115 C1116 1.524 . S
C1116 C1115 1.524 . S
C1116 C1117 1.397 . S
C1116 C1121 1.363 . S
C1117 H1088 0.950 . S
C1117 C1116 1.397 . S
C1117 C1118 1.334 . S
C1118 H1089 0.950 . S
C1118 C1117 1.334 . S
C1118 C1119 1.287 . S
C1119 C1118 1.287 . S
C1119 C1120 1.524 . S
C1119 H1122 0.999 . S
C1120 H1090 0.950 . S
C1120 C1119 1.524 . S
C1120 C1121 1.415 . S
C1121 H1091 0.950 . S
C1121 C1116 1.363 . S
C1121 C1120 1.415 . S
H1122 C1119 0.999 . S
H1123 C1104 0.922 . S
H1124 C1142 0.951 . S
H1125 C1144 0.951 . S
H1126 C1146 0.950 . S
H1127 C1147 0.950 . S
H1128 C1149 0.950 . S
H1129 C1152 0.950 . S
H1130 C1153 0.950 . S
H1131 C1155 0.950 . S
H1132 C1156 0.950 . S
H1133 C1157 0.951 . S
H1134 C1159 0.951 . S
H1135 C1161 0.950 . S
H1136 C1162 0.950 . S
H1137 C1164 0.950 . S
H1138 C1167 0.950 . S
H1139 C1168 0.950 . S
H1140 C1170 0.950 . S
H1141 C1171 0.950 . S
C1142 H1124 0.951 . S
C1142 C1143 1.366 . S
C1142 C1144 1.388 . S
C1143 C1142 1.366 . S
C1143 C1147 1.385 . S
C1144 H1125 0.951 . S
C1144 C1142 1.388 . S
C1144 C1145 1.366 . S
C1145 C1144 1.366 . S
C1145 C1146 1.414 . S
C1145 C1148 1.499 . S
C1146 H1126 0.950 . S
C1146 C1145 1.414 . S
C1146 C1147 1.374 . S
C1147 H1127 0.950 . S
C1147 C1143 1.385 . S
C1147 C1146 1.374 . S
C1148 C1145 1.499 . S
C1148 C1149 1.373 . S
C1148 C1150 1.389 . S
C1149 H1128 0.950 . S
C1149 C1148 1.373 . S
C1149 C1165 1.377 . S
C1150 C1148 1.389 . S
C1150 C1151 1.524 . S
C1150 C1164 1.377 . S
C1151 C1150 1.524 . S
C1151 C1152 1.397 . S
C1151 C1156 1.363 . S
C1152 H1129 0.950 . S
C1152 C1151 1.397 . S
C1152 C1153 1.334 . S
C1153 H1130 0.950 . S
C1153 C1152 1.334 . S
C1153 C1154 1.287 . S
C1154 C1153 1.287 . S
C1154 C1155 1.524 . S
C1154 H1173 0.913 . S
C1155 H1131 0.950 . S
C1155 C1154 1.524 . S
C1155 C1156 1.415 . S
C1156 H1132 0.950 . S
C1156 C1151 1.363 . S
C1156 C1155 1.415 . S
C1157 H1133 0.951 . S
C1157 C1158 1.366 . S
C1157 C1159 1.388 . S
C1158 C1157 1.366 . S
C1158 C1162 1.385 . S
C1159 H1134 0.951 . S
C1159 C1157 1.388 . S
C1159 C1160 1.366 . S
C1160 C1159 1.366 . S
C1160 C1161 1.414 . S
C1160 C1163 1.499 . S
C1161 H1135 0.950 . S
C1161 C1160 1.414 . S
C1161 C1162 1.374 . S
C1162 H1136 0.950 . S
C1162 C1158 1.385 . S
C1162 C1161 1.374 . S
C1163 C1160 1.499 . S
C1163 C1164 1.373 . S
C1163 C1165 1.389 . S
C1164 H1137 0.950 . S
C1164 C1150 1.377 . S
C1164 C1163 1.373 . S
C1165 C1149 1.377 . S
C1165 C1163 1.389 . S
C1165 C1166 1.524 . S
C1166 C1165 1.524 . S
C1166 C1167 1.397 . S
C1166 C1171 1.363 . S
C1167 H1138 0.950 . S
C1167 C1166 1.397 . S
C1167 C1168 1.334 . S
C1168 H1139 0.950 . S
C1168 C1167 1.334 . S
C1168 C1169 1.287 . S
C1169 C1168 1.287 . S
C1169 C1170 1.524 . S
C1169 H1172 0.999 . S
C1170 H1140 0.950 . S
C1170 C1169 1.524 . S
C1170 C1171 1.415 . S
C1171 H1141 0.950 . S
C1171 C1166 1.363 . S
C1171 C1170 1.415 . S
H1172 C1169 0.999 . S
H1173 C1154 0.913 . S
H1174 C1192 0.951 . S
H1175 C1194 0.951 . S
H1176 C1196 0.950 . S
H1177 C1197 0.950 . S
H1178 C1199 0.950 . S
H1179 C1202 0.950 . S
H1180 C1203 0.950 . S
H1181 C1205 0.950 . S
H1182 C1206 0.950 . S
H1183 C1207 0.951 . S
H1184 C1209 0.951 . S
H1185 C1211 0.950 . S
H1186 C1212 0.950 . S
H1187 C1214 0.950 . S
H1188 C1217 0.950 . S
H1189 C1218 0.950 1_655 S
H1190 C1220 0.950 . S
H1191 C1221 0.950 . S
C1192 H1174 0.951 . S
C1192 C1193 1.366 . S
C1192 C1194 1.388 . S
C1193 C1192 1.366 . S
C1193 C1197 1.385 . S
C1194 H1175 0.951 . S
C1194 C1192 1.388 . S
C1194 C1195 1.366 . S
C1195 C1194 1.366 . S
C1195 C1196 1.414 . S
C1195 C1198 1.499 . S
C1196 H1176 0.950 . S
C1196 C1195 1.414 . S
C1196 C1197 1.374 . S
C1197 H1177 0.950 . S
C1197 C1193 1.385 . S
C1197 C1196 1.374 . S
C1198 C1195 1.499 . S
C1198 C1199 1.373 . S
C1198 C1200 1.389 . S
C1199 H1178 0.950 . S
C1199 C1198 1.373 . S
C1199 C1215 1.377 . S
C1200 C1198 1.389 . S
C1200 C1201 1.524 . S
C1200 C1214 1.377 . S
C1201 C1200 1.524 . S
C1201 C1202 1.397 . S
C1201 C1206 1.363 . S
C1202 H1179 0.950 . S
C1202 C1201 1.397 . S
C1202 C1203 1.334 . S
C1203 H1180 0.950 . S
C1203 C1202 1.334 . S
C1203 C1204 1.287 . S
C1204 C1203 1.287 . S
C1204 C1205 1.524 . S
C1204 H1223 0.913 . S
C1205 H1181 0.950 . S
C1205 C1204 1.524 . S
C1205 C1206 1.415 . S
C1206 H1182 0.950 . S
C1206 C1201 1.363 . S
C1206 C1205 1.415 . S
C1207 H1183 0.951 . S
C1207 C1208 1.366 . S
C1207 C1209 1.388 . S
C1208 C1207 1.366 . S
C1208 C1212 1.385 . S
C1209 H1184 0.951 . S
C1209 C1207 1.388 . S
C1209 C1210 1.383 . S
C1210 C1209 1.383 . S
C1210 C1211 1.433 . S
C1210 C1213 1.464 1_655 S
C1211 H1185 0.950 . S
C1211 C1210 1.433 . S
C1211 C1212 1.374 . S
C1212 H1186 0.950 . S
C1212 C1208 1.385 . S
C1212 C1211 1.374 . S
C1213 C1210 1.464 1_455 S
C1213 C1214 1.373 . S
C1213 C1215 1.389 . S
C1214 H1187 0.950 . S
C1214 C1200 1.377 . S
C1214 C1213 1.373 . S
C1215 C1199 1.377 . S
C1215 C1213 1.389 . S
C1215 C1216 1.524 . S
C1216 C1215 1.524 . S
C1216 C1217 1.397 . S
C1216 C1221 1.363 . S
C1217 H1188 0.950 . S
C1217 C1216 1.397 . S
C1217 C1218 1.334 . S
C1218 H1189 0.950 1_455 S
C1218 C1217 1.334 . S
C1218 C1219 1.287 . S
C1219 C1218 1.287 . S
C1219 C1220 1.524 . S
C1219 H1222 0.999 . S
C1220 H1190 0.950 . S
C1220 C1219 1.524 . S
C1220 C1221 1.415 . S
C1221 H1191 0.950 . S
C1221 C1216 1.363 . S
C1221 C1220 1.415 . S
H1222 C1219 0.999 . S
H1223 C1204 0.913 . S
H1224 C1242 0.951 . S
H1225 C1244 0.951 . S
H1226 C1246 0.950 . S
H1227 C1247 0.950 . S
H1228 C1249 0.950 . S
H1229 C1252 0.950 . S
H1230 C1253 0.950 1_455 S
H1231 C1255 0.950 . S
H1232 C1256 0.950 . S
H1233 C1257 0.951 . S
H1234 C1259 0.951 . S
H1235 C1261 0.950 . S
H1236 C1262 0.950 . S
H1237 C1264 0.950 . S
H1238 C1267 0.950 . S
H1239 C1268 0.950 . S
H1240 C1270 0.950 1_556 S
H1241 C1271 0.950 . S
C1242 H1224 0.951 . S
C1242 C1243 1.366 . S
C1242 C1244 1.388 . S
C1243 C1242 1.366 . S
C1243 C1247 1.385 . S
C1244 H1225 0.951 . S
C1244 C1242 1.388 . S
C1244 C1245 1.384 . S
C1245 C1244 1.384 . S
C1245 C1246 1.433 . S
C1245 C1248 1.463 1_455 S
C1246 H1226 0.950 . S
C1246 C1245 1.433 . S
C1246 C1247 1.374 . S
C1247 H1227 0.950 . S
C1247 C1243 1.385 . S
C1247 C1246 1.374 . S
C1248 C1245 1.463 1_655 S
C1248 C1249 1.373 . S
C1248 C1250 1.389 . S
C1249 H1228 0.950 . S
C1249 C1248 1.373 . S
C1249 C1265 1.377 . S
C1250 C1248 1.389 . S
C1250 C1251 1.524 . S
C1250 C1264 1.377 . S
C1251 C1250 1.524 . S
C1251 C1252 1.397 . S
C1251 C1256 1.363 . S
C1252 H1229 0.950 . S
C1252 C1251 1.397 . S
C1252 C1253 1.334 . S
C1253 H1230 0.950 1_655 S
C1253 C1252 1.334 . S
C1253 C1254 1.287 . S
C1254 C1253 1.287 . S
C1254 C1255 1.524 . S
C1254 H1273 0.926 . S
C1255 H1231 0.950 . S
C1255 C1254 1.524 . S
C1255 C1256 1.415 . S
C1256 H1232 0.950 . S
C1256 C1251 1.363 . S
C1256 C1255 1.415 . S
C1257 H1233 0.951 . S
C1257 C1258 1.366 . S
C1257 C1259 1.388 . S
C1258 C1257 1.366 . S
C1258 C1262 1.385 . S
C1259 H1234 0.951 . S
C1259 C1257 1.388 . S
C1259 C1260 1.366 . S
C1260 C1259 1.366 . S
C1260 C1261 1.414 . S
C1260 C1263 1.499 . S
C1261 H1235 0.950 . S
C1261 C1260 1.414 . S
C1261 C1262 1.374 . S
C1262 H1236 0.950 . S
C1262 C1258 1.385 . S
C1262 C1261 1.374 . S
C1263 C1260 1.499 . S
C1263 C1264 1.373 . S
C1263 C1265 1.389 . S
C1264 H1237 0.950 . S
C1264 C1250 1.377 . S
C1264 C1263 1.373 . S
C1265 C1249 1.377 . S
C1265 C1263 1.389 . S
C1265 C1266 1.524 . S
C1266 C1265 1.524 . S
C1266 C1267 1.397 . S
C1266 C1271 1.363 . S
C1267 H1238 0.950 . S
C1267 C1266 1.397 . S
C1267 C1268 1.334 . S
C1268 H1239 0.950 . S
C1268 C1267 1.334 . S
C1268 C1269 1.287 . S
C1269 C1268 1.287 . S
C1269 C1270 1.524 . S
C1269 H1272 0.999 . S
C1270 H1240 0.950 1_554 S
C1270 C1269 1.524 . S
C1270 C1271 1.415 . S
C1271 H1241 0.950 . S
C1271 C1266 1.363 . S
C1271 C1270 1.415 . S
H1272 C1269 0.999 . S
H1273 C1254 0.926 . S
H1274 C1292 0.951 . S
H1275 C1294 0.951 . S
H1276 C1296 0.950 . S
H1277 C1297 0.950 . S
H1278 C1299 0.950 . S
H1279 C1302 0.950 . S
H1280 C1303 0.950 . S
H1281 C1305 0.950 . S
H1282 C1306 0.950 . S
H1283 C1307 0.951 . S
H1284 C1309 0.951 . S
H1285 C1311 0.950 . S
H1286 C1312 0.950 . S
H1287 C1314 0.950 . S
H1288 C1317 0.950 . S
H1289 C1318 0.950 . S
H1290 C1320 0.950 . S
H1291 C1321 0.950 . S
C1292 H1274 0.951 . S
C1292 C1293 1.366 . S
C1292 C1294 1.388 . S
C1293 C1292 1.366 . S
C1293 C1297 1.385 . S
C1294 H1275 0.951 . S
C1294 C1292 1.388 . S
C1294 C1295 1.366 . S
C1295 C1294 1.366 . S
C1295 C1296 1.414 . S
C1295 C1298 1.499 . S
C1296 H1276 0.950 . S
C1296 C1295 1.414 . S
C1296 C1297 1.374 . S
C1297 H1277 0.950 . S
C1297 C1293 1.385 . S
C1297 C1296 1.374 . S
C1298 C1295 1.499 . S
C1298 C1299 1.373 . S
C1298 C1300 1.389 . S
C1299 H1278 0.950 . S
C1299 C1298 1.373 . S
C1299 C1315 1.377 . S
C1300 C1298 1.389 . S
C1300 C1301 1.524 . S
C1300 C1314 1.377 . S
C1301 C1300 1.524 . S
C1301 C1302 1.397 . S
C1301 C1306 1.363 . S
C1302 H1279 0.950 . S
C1302 C1301 1.397 . S
C1302 C1303 1.334 . S
C1303 H1280 0.950 . S
C1303 C1302 1.334 . S
C1303 C1304 1.287 . S
C1304 C1303 1.287 . S
C1304 C1305 1.524 . S
C1304 H1323 0.913 . S
C1305 H1281 0.950 . S
C1305 C1304 1.524 . S
C1305 C1306 1.415 . S
C1306 H1282 0.950 . S
C1306 C1301 1.363 . S
C1306 C1305 1.415 . S
C1307 H1283 0.951 . S
C1307 C1308 1.366 . S
C1307 C1309 1.388 . S
C1308 C1307 1.366 . S
C1308 C1312 1.385 . S
C1309 H1284 0.951 . S
C1309 C1307 1.388 . S
C1309 C1310 1.366 . S
C1310 C1309 1.366 . S
C1310 C1311 1.414 . S
C1310 C1313 1.499 . S
C1311 H1285 0.950 . S
C1311 C1310 1.414 . S
C1311 C1312 1.374 . S
C1312 H1286 0.950 . S
C1312 C1308 1.385 . S
C1312 C1311 1.374 . S
C1313 C1310 1.499 . S
C1313 C1314 1.373 . S
C1313 C1315 1.389 . S
C1314 H1287 0.950 . S
C1314 C1300 1.377 . S
C1314 C1313 1.373 . S
C1315 C1299 1.377 . S
C1315 C1313 1.389 . S
C1315 C1316 1.524 . S
C1316 C1315 1.524 . S
C1316 C1317 1.397 . S
C1316 C1321 1.363 . S
C1317 H1288 0.950 . S
C1317 C1316 1.397 . S
C1317 C1318 1.334 . S
C1318 H1289 0.950 . S
C1318 C1317 1.334 . S
C1318 C1319 1.287 . S
C1319 C1318 1.287 . S
C1319 C1320 1.524 . S
C1319 H1322 0.999 . S
C1320 H1290 0.950 . S
C1320 C1319 1.524 . S
C1320 C1321 1.415 . S
C1321 H1291 0.950 . S
C1321 C1316 1.363 . S
C1321 C1320 1.415 . S
H1322 C1319 0.999 . S
H1323 C1304 0.913 . S
H1324 C1342 0.951 . S
H1325 C1344 0.951 . S
H1326 C1346 0.950 . S
H1327 C1347 0.950 . S
H1328 C1349 0.950 . S
H1329 C1352 0.950 . S
H1330 C1353 0.950 1_455 S
H1331 C1355 0.950 . S
H1332 C1356 0.950 . S
H1333 C1357 0.951 . S
H1334 C1359 0.951 . S
H1335 C1361 0.950 . S
H1336 C1362 0.950 . S
H1337 C1364 0.950 . S
H1338 C1367 0.950 . S
H1339 C1368 0.950 . S
H1340 C1370 0.950 . S
H1341 C1371 0.950 . S
C1342 H1324 0.951 . S
C1342 C1343 1.366 . S
C1342 C1344 1.388 . S
C1343 C1342 1.366 . S
C1343 C1347 1.385 . S
C1344 H1325 0.951 . S
C1344 C1342 1.388 . S
C1344 C1345 1.384 . S
C1345 C1344 1.384 . S
C1345 C1346 1.431 . S
C1345 C1348 1.465 1_455 S
C1346 H1326 0.950 . S
C1346 C1345 1.431 . S
C1346 C1347 1.374 . S
C1347 H1327 0.950 . S
C1347 C1343 1.385 . S
C1347 C1346 1.374 . S
C1348 C1345 1.465 1_655 S
C1348 C1349 1.373 . S
C1348 C1350 1.389 . S
C1349 H1328 0.950 . S
C1349 C1348 1.373 . S
C1349 C1365 1.377 . S
C1350 C1348 1.389 . S
C1350 C1351 1.524 . S
C1350 C1364 1.377 . S
C1351 C1350 1.524 . S
C1351 C1352 1.397 . S
C1351 C1356 1.363 . S
C1352 H1329 0.950 . S
C1352 C1351 1.397 . S
C1352 C1353 1.334 . S
C1353 H1330 0.950 1_655 S
C1353 C1352 1.334 . S
C1353 C1354 1.287 1_556 S
C1354 C1353 1.287 1_554 S
C1354 C1355 1.524 . S
C1354 H1373 0.913 . S
C1355 H1331 0.950 . S
C1355 C1354 1.524 . S
C1355 C1356 1.415 1_554 S
C1356 H1332 0.950 . S
C1356 C1351 1.363 . S
C1356 C1355 1.415 1_556 S
C1357 H1333 0.951 . S
C1357 C1358 1.366 . S
C1357 C1359 1.388 . S
C1358 C1357 1.366 . S
C1358 C1362 1.385 . S
C1359 H1334 0.951 . S
C1359 C1357 1.388 . S
C1359 C1360 1.366 . S
C1360 C1359 1.366 . S
C1360 C1361 1.414 . S
C1360 C1363 1.499 . S
C1361 H1335 0.950 . S
C1361 C1360 1.414 . S
C1361 C1362 1.374 . S
C1362 H1336 0.950 . S
C1362 C1358 1.385 . S
C1362 C1361 1.374 . S
C1363 C1360 1.499 . S
C1363 C1364 1.373 . S
C1363 C1365 1.389 . S
C1364 H1337 0.950 . S
C1364 C1350 1.377 . S
C1364 C1363 1.373 . S
C1365 C1349 1.377 . S
C1365 C1363 1.389 . S
C1365 C1366 1.524 . S
C1366 C1365 1.524 . S
C1366 C1367 1.397 . S
C1366 C1371 1.363 . S
C1367 H1338 0.950 . S
C1367 C1366 1.397 . S
C1367 C1368 1.334 . S
C1368 H1339 0.950 . S
C1368 C1367 1.334 . S
C1368 C1369 1.287 . S
C1369 C1368 1.287 . S
C1369 C1370 1.524 . S
C1369 H1372 0.999 . S
C1370 H1340 0.950 . S
C1370 C1369 1.524 . S
C1370 C1371 1.415 . S
C1371 H1341 0.950 . S
C1371 C1366 1.363 . S
C1371 C1370 1.415 . S
H1372 C1369 0.999 . S
H1373 C1354 0.913 . S
H1374 C1392 0.951 . S
H1375 C1394 0.951 . S
H1376 C1396 0.950 . S
H1377 C1397 0.950 . S
H1378 C1399 0.950 . S
H1379 C1402 0.950 . S
H1380 C1403 0.950 . S
H1381 C1405 0.950 . S
H1382 C1406 0.950 . S
H1383 C1407 0.951 . S
H1384 C1409 0.951 . S
H1385 C1411 0.950 . S
H1386 C1412 0.950 . S
H1387 C1414 0.950 . S
H1388 C1417 0.950 . S
H1389 C1418 0.950 . S
H1390 C1420 0.950 . S
H1391 C1421 0.950 . S
C1392 H1374 0.951 . S
C1392 C1393 1.366 . S
C1392 C1394 1.388 . S
C1393 C1392 1.366 . S
C1393 C1397 1.385 . S
C1394 H1375 0.951 . S
C1394 C1392 1.388 . S
C1394 C1395 1.366 . S
C1395 C1394 1.366 . S
C1395 C1396 1.414 . S
C1395 C1398 1.499 . S
C1396 H1376 0.950 . S
C1396 C1395 1.414 . S
C1396 C1397 1.374 . S
C1397 H1377 0.950 . S
C1397 C1393 1.385 . S
C1397 C1396 1.374 . S
C1398 C1395 1.499 . S
C1398 C1399 1.373 . S
C1398 C1400 1.389 . S
C1399 H1378 0.950 . S
C1399 C1398 1.373 . S
C1399 C1415 1.377 . S
C1400 C1398 1.389 . S
C1400 C1401 1.524 . S
C1400 C1414 1.377 . S
C1401 C1400 1.524 . S
C1401 C1402 1.397 . S
C1401 C1406 1.363 . S
C1402 H1379 0.950 . S
C1402 C1401 1.397 . S
C1402 C1403 1.334 . S
C1403 H1380 0.950 . S
C1403 C1402 1.334 . S
C1403 C1404 1.287 . S
C1404 C1403 1.287 . S
C1404 C1405 1.524 . S
C1404 H1423 0.913 . S
C1405 H1381 0.950 . S
C1405 C1404 1.524 . S
C1405 C1406 1.415 . S
C1406 H1382 0.950 . S
C1406 C1401 1.363 . S
C1406 C1405 1.415 . S
C1407 H1383 0.951 . S
C1407 C1408 1.366 . S
C1407 C1409 1.388 . S
C1408 C1407 1.366 . S
C1408 C1412 1.385 . S
C1409 H1384 0.951 . S
C1409 C1407 1.388 . S
C1409 C1410 1.366 . S
C1410 C1409 1.366 . S
C1410 C1411 1.414 . S
C1410 C1413 1.499 . S
C1411 H1385 0.950 . S
C1411 C1410 1.414 . S
C1411 C1412 1.374 . S
C1412 H1386 0.950 . S
C1412 C1408 1.385 . S
C1412 C1411 1.374 . S
C1413 C1410 1.499 . S
C1413 C1414 1.373 . S
C1413 C1415 1.389 . S
C1414 H1387 0.950 . S
C1414 C1400 1.377 . S
C1414 C1413 1.373 . S
C1415 C1399 1.377 . S
C1415 C1413 1.389 . S
C1415 C1416 1.524 . S
C1416 C1415 1.524 . S
C1416 C1417 1.397 . S
C1416 C1421 1.363 . S
C1417 H1388 0.950 . S
C1417 C1416 1.397 . S
C1417 C1418 1.334 . S
C1418 H1389 0.950 . S
C1418 C1417 1.334 . S
C1418 C1419 1.287 . S
C1419 C1418 1.287 . S
C1419 C1420 1.524 . S
C1419 H1422 0.999 . S
C1420 H1390 0.950 . S
C1420 C1419 1.524 . S
C1420 C1421 1.415 . S
C1421 H1391 0.950 . S
C1421 C1416 1.363 . S
C1421 C1420 1.415 . S
H1422 C1419 0.999 . S
H1423 C1404 0.913 . S
H1424 C1442 0.951 . S
H1425 C1444 0.951 . S
H1426 C1446 0.950 . S
H1427 C1447 0.950 . S
H1428 C1449 0.950 . S
H1429 C1452 0.950 . S
H1430 C1453 0.950 . S
H1431 C1455 0.950 . S
H1432 C1456 0.950 . S
H1433 C1457 0.951 . S
H1434 C1459 0.951 . S
H1435 C1461 0.950 . S
H1436 C1462 0.950 . S
H1437 C1464 0.950 . S
H1438 C1467 0.950 . S
H1439 C1468 0.950 . S
H1440 C1470 0.950 . S
H1441 C1471 0.950 . S
C1442 H1424 0.951 . S
C1442 C1443 1.366 . S
C1442 C1444 1.388 . S
C1443 C1442 1.366 . S
C1443 C1447 1.385 . S
C1444 H1425 0.951 . S
C1444 C1442 1.388 . S
C1444 C1445 1.366 . S
C1445 C1444 1.366 . S
C1445 C1446 1.414 . S
C1445 C1448 1.499 . S
C1446 H1426 0.950 . S
C1446 C1445 1.414 . S
C1446 C1447 1.374 . S
C1447 H1427 0.950 . S
C1447 C1443 1.385 . S
C1447 C1446 1.374 . S
C1448 C1445 1.499 . S
C1448 C1449 1.373 . S
C1448 C1450 1.389 . S
C1449 H1428 0.950 . S
C1449 C1448 1.373 . S
C1449 C1465 1.377 . S
C1450 C1448 1.389 . S
C1450 C1451 1.524 . S
C1450 C1464 1.377 . S
C1451 C1450 1.524 . S
C1451 C1452 1.397 . S
C1451 C1456 1.363 . S
C1452 H1429 0.950 . S
C1452 C1451 1.397 . S
C1452 C1453 1.334 . S
C1453 H1430 0.950 . S
C1453 C1452 1.334 . S
C1453 C1454 1.287 . S
C1454 C1453 1.287 . S
C1454 C1455 1.524 . S
C1454 H1473 0.913 . S
C1455 H1431 0.950 . S
C1455 C1454 1.524 . S
C1455 C1456 1.415 . S
C1456 H1432 0.950 . S
C1456 C1451 1.363 . S
C1456 C1455 1.415 . S
C1457 H1433 0.951 . S
C1457 C1458 1.366 . S
C1457 C1459 1.388 . S
C1458 C1457 1.366 . S
C1458 C1462 1.385 . S
C1459 H1434 0.951 . S
C1459 C1457 1.388 . S
C1459 C1460 1.366 . S
C1460 C1459 1.366 . S
C1460 C1461 1.414 . S
C1460 C1463 1.499 . S
C1461 H1435 0.950 . S
C1461 C1460 1.414 . S
C1461 C1462 1.374 . S
C1462 H1436 0.950 . S
C1462 C1458 1.385 . S
C1462 C1461 1.374 . S
C1463 C1460 1.499 . S
C1463 C1464 1.373 . S
C1463 C1465 1.389 . S
C1464 H1437 0.950 . S
C1464 C1450 1.377 . S
C1464 C1463 1.373 . S
C1465 C1449 1.377 . S
C1465 C1463 1.389 . S
C1465 C1466 1.524 . S
C1466 C1465 1.524 . S
C1466 C1467 1.397 . S
C1466 C1471 1.363 . S
C1467 H1438 0.950 . S
C1467 C1466 1.397 . S
C1467 C1468 1.334 . S
C1468 H1439 0.950 . S
C1468 C1467 1.334 . S
C1468 C1469 1.287 . S
C1469 C1468 1.287 . S
C1469 C1470 1.524 . S
C1469 H1472 0.999 . S
C1470 H1440 0.950 . S
C1470 C1469 1.524 . S
C1470 C1471 1.415 . S
C1471 H1441 0.950 . S
C1471 C1466 1.363 . S
C1471 C1470 1.415 . S
H1472 C1469 0.999 . S
H1473 C1454 0.913 . S
H1474 C1492 0.951 . S
H1475 C1494 0.951 . S
H1476 C1496 0.950 . S
H1477 C1497 0.950 . S
H1478 C1499 0.950 . S
H1479 C1502 0.950 . S
H1480 C1503 0.950 . S
H1481 C1505 0.950 . S
H1482 C1506 0.950 . S
H1483 C1507 0.951 . S
H1484 C1509 0.951 . S
H1485 C1511 0.950 . S
H1486 C1512 0.950 . S
H1487 C1514 0.950 . S
H1488 C1517 0.950 . S
H1489 C1518 0.950 . S
H1490 C1520 0.950 . S
H1491 C1521 0.950 . S
C1492 H1474 0.951 . S
C1492 C1493 1.366 . S
C1492 C1494 1.388 . S
C1493 C1492 1.366 . S
C1493 C1497 1.385 . S
C1494 H1475 0.951 . S
C1494 C1492 1.388 . S
C1494 C1495 1.366 . S
C1495 C1494 1.366 . S
C1495 C1496 1.414 . S
C1495 C1498 1.499 . S
C1496 H1476 0.950 . S
C1496 C1495 1.414 . S
C1496 C1497 1.374 . S
C1497 H1477 0.950 . S
C1497 C1493 1.385 . S
C1497 C1496 1.374 . S
C1498 C1495 1.499 . S
C1498 C1499 1.373 . S
C1498 C1500 1.389 . S
C1499 H1478 0.950 . S
C1499 C1498 1.373 . S
C1499 C1515 1.377 . S
C1500 C1498 1.389 . S
C1500 C1501 1.524 . S
C1500 C1514 1.377 . S
C1501 C1500 1.524 . S
C1501 C1502 1.397 . S
C1501 C1506 1.363 . S
C1502 H1479 0.950 . S
C1502 C1501 1.397 . S
C1502 C1503 1.334 . S
C1503 H1480 0.950 . S
C1503 C1502 1.334 . S
C1503 C1504 1.287 . S
C1504 C1503 1.287 . S
C1504 C1505 1.524 . S
C1504 H1523 0.913 . S
C1505 H1481 0.950 . S
C1505 C1504 1.524 . S
C1505 C1506 1.415 . S
C1506 H1482 0.950 . S
C1506 C1501 1.363 . S
C1506 C1505 1.415 . S
C1507 H1483 0.951 . S
C1507 C1508 1.366 . S
C1507 C1509 1.388 . S
C1508 C1507 1.366 . S
C1508 C1512 1.385 . S
C1509 H1484 0.951 . S
C1509 C1507 1.388 . S
C1509 C1510 1.366 . S
C1510 C1509 1.366 . S
C1510 C1511 1.414 . S
C1510 C1513 1.499 . S
C1511 H1485 0.950 . S
C1511 C1510 1.414 . S
C1511 C1512 1.374 . S
C1512 H1486 0.950 . S
C1512 C1508 1.385 . S
C1512 C1511 1.374 . S
C1513 C1510 1.499 . S
C1513 C1514 1.373 . S
C1513 C1515 1.389 . S
C1514 H1487 0.950 . S
C1514 C1500 1.377 . S
C1514 C1513 1.373 . S
C1515 C1499 1.377 . S
C1515 C1513 1.389 . S
C1515 C1516 1.524 . S
C1516 C1515 1.524 . S
C1516 C1517 1.397 . S
C1516 C1521 1.363 . S
C1517 H1488 0.950 . S
C1517 C1516 1.397 . S
C1517 C1518 1.334 . S
C1518 H1489 0.950 . S
C1518 C1517 1.334 . S
C1518 C1519 1.287 . S
C1519 C1518 1.287 . S
C1519 C1520 1.524 . S
C1519 H1522 0.999 . S
C1520 H1490 0.950 . S
C1520 C1519 1.524 . S
C1520 C1521 1.415 . S
C1521 H1491 0.950 . S
C1521 C1516 1.363 . S
C1521 C1520 1.415 . S
H1522 C1519 0.999 . S
H1523 C1504 0.913 . S
H1524 C1542 0.951 . S
H1525 C1544 0.951 . S
H1526 C1546 0.950 . S
H1527 C1547 0.950 . S
H1528 C1549 0.950 . S
H1529 C1552 0.950 . S
H1530 C1553 0.950 . S
H1531 C1555 0.950 . S
H1532 C1556 0.950 . S
H1533 C1557 0.951 . S
H1534 C1559 0.951 . S
H1535 C1561 0.950 . S
H1536 C1562 0.950 . S
H1537 C1564 0.950 . S
H1538 C1567 0.950 . S
H1539 C1568 0.950 . S
H1540 C1570 0.950 . S
H1541 C1571 0.950 . S
C1542 H1524 0.951 . S
C1542 C1543 1.366 . S
C1542 C1544 1.388 . S
C1543 C1542 1.366 . S
C1543 C1547 1.385 . S
C1544 H1525 0.951 . S
C1544 C1542 1.388 . S
C1544 C1545 1.366 . S
C1545 C1544 1.366 . S
C1545 C1546 1.414 . S
C1545 C1548 1.499 . S
C1546 H1526 0.950 . S
C1546 C1545 1.414 . S
C1546 C1547 1.374 . S
C1547 H1527 0.950 . S
C1547 C1543 1.385 . S
C1547 C1546 1.374 . S
C1548 C1545 1.499 . S
C1548 C1549 1.373 . S
C1548 C1550 1.389 . S
C1549 H1528 0.950 . S
C1549 C1548 1.373 . S
C1549 C1565 1.377 . S
C1550 C1548 1.389 . S
C1550 C1551 1.524 . S
C1550 C1564 1.377 . S
C1551 C1550 1.524 . S
C1551 C1552 1.397 . S
C1551 C1556 1.363 . S
C1552 H1529 0.950 . S
C1552 C1551 1.397 . S
C1552 C1553 1.334 . S
C1553 H1530 0.950 . S
C1553 C1552 1.334 . S
C1553 C1554 1.287 . S
C1554 C1553 1.287 . S
C1554 C1555 1.524 . S
C1554 H1573 0.913 . S
C1555 H1531 0.950 . S
C1555 C1554 1.524 . S
C1555 C1556 1.415 . S
C1556 H1532 0.950 . S
C1556 C1551 1.363 . S
C1556 C1555 1.415 . S
C1557 H1533 0.951 . S
C1557 C1558 1.366 . S
C1557 C1559 1.388 . S
C1558 C1557 1.366 . S
C1558 C1562 1.385 . S
C1559 H1534 0.951 . S
C1559 C1557 1.388 . S
C1559 C1560 1.366 . S
C1560 C1559 1.366 . S
C1560 C1561 1.414 . S
C1560 C1563 1.499 . S
C1561 H1535 0.950 . S
C1561 C1560 1.414 . S
C1561 C1562 1.374 . S
C1562 H1536 0.950 . S
C1562 C1558 1.385 . S
C1562 C1561 1.374 . S
C1563 C1560 1.499 . S
C1563 C1564 1.373 . S
C1563 C1565 1.389 . S
C1564 H1537 0.950 . S
C1564 C1550 1.377 . S
C1564 C1563 1.373 . S
C1565 C1549 1.377 . S
C1565 C1563 1.389 . S
C1565 C1566 1.524 . S
C1566 C1565 1.524 . S
C1566 C1567 1.397 . S
C1566 C1571 1.363 . S
C1567 H1538 0.950 . S
C1567 C1566 1.397 . S
C1567 C1568 1.334 . S
C1568 H1539 0.950 . S
C1568 C1567 1.334 . S
C1568 C1569 1.287 . S
C1569 C1568 1.287 . S
C1569 C1570 1.524 . S
C1569 H1572 0.999 . S
C1570 H1540 0.950 . S
C1570 C1569 1.524 . S
C1570 C1571 1.415 . S
C1571 H1541 0.950 . S
C1571 C1566 1.363 . S
C1571 C1570 1.415 . S
H1572 C1569 0.999 . S
H1573 C1554 0.913 . S
H1574 C1592 0.951 . S
H1575 C1594 0.951 . S
H1576 C1596 0.950 . S
H1577 C1597 0.950 . S
H1578 C1599 0.950 . S
H1579 C1602 0.950 . S
H1580 C1603 0.950 . S
H1581 C1605 0.950 . S
H1582 C1606 0.950 . S
H1583 C1607 0.951 . S
H1584 C1609 0.951 . S
H1585 C1611 0.950 . S
H1586 C1612 0.950 . S
H1587 C1614 0.950 . S
H1588 C1617 0.950 . S
H1589 C1618 0.950 . S
H1590 C1620 0.950 . S
H1591 C1621 0.950 . S
C1592 H1574 0.951 . S
C1592 C1593 1.366 . S
C1592 C1594 1.388 . S
C1593 C1592 1.366 . S
C1593 C1597 1.385 . S
C1594 H1575 0.951 . S
C1594 C1592 1.388 . S
C1594 C1595 1.366 . S
C1595 C1594 1.366 . S
C1595 C1596 1.414 . S
C1595 C1598 1.499 . S
C1596 H1576 0.950 . S
C1596 C1595 1.414 . S
C1596 C1597 1.374 . S
C1597 H1577 0.950 . S
C1597 C1593 1.385 . S
C1597 C1596 1.374 . S
C1598 C1595 1.499 . S
C1598 C1599 1.373 . S
C1598 C1600 1.389 . S
C1599 H1578 0.950 . S
C1599 C1598 1.373 . S
C1599 C1615 1.377 . S
C1600 C1598 1.389 . S
C1600 C1601 1.524 . S
C1600 C1614 1.377 . S
C1601 C1600 1.524 . S
C1601 C1602 1.397 . S
C1601 C1606 1.363 . S
C1602 H1579 0.950 . S
C1602 C1601 1.397 . S
C1602 C1603 1.334 . S
C1603 H1580 0.950 . S
C1603 C1602 1.334 . S
C1603 C1604 1.287 . S
C1604 C1603 1.287 . S
C1604 C1605 1.524 . S
C1604 H1623 0.913 . S
C1605 H1581 0.950 . S
C1605 C1604 1.524 . S
C1605 C1606 1.415 . S
C1606 H1582 0.950 . S
C1606 C1601 1.363 . S
C1606 C1605 1.415 . S
C1607 H1583 0.951 . S
C1607 C1608 1.366 . S
C1607 C1609 1.388 . S
C1608 C1607 1.366 . S
C1608 C1612 1.385 . S
C1609 H1584 0.951 . S
C1609 C1607 1.388 . S
C1609 C1610 1.366 . S
C1610 C1609 1.366 . S
C1610 C1611 1.414 . S
C1610 C1613 1.499 . S
C1611 H1585 0.950 . S
C1611 C1610 1.414 . S
C1611 C1612 1.374 . S
C1612 H1586 0.950 . S
C1612 C1608 1.385 . S
C1612 C1611 1.374 . S
C1613 C1610 1.499 . S
C1613 C1614 1.373 . S
C1613 C1615 1.389 . S
C1614 H1587 0.950 . S
C1614 C1600 1.377 . S
C1614 C1613 1.373 . S
C1615 C1599 1.377 . S
C1615 C1613 1.389 . S
C1615 C1616 1.524 . S
C1616 C1615 1.524 . S
C1616 C1617 1.397 . S
C1616 C1621 1.363 . S
C1617 H1588 0.950 . S
C1617 C1616 1.397 . S
C1617 C1618 1.334 . S
C1618 H1589 0.950 . S
C1618 C1617 1.334 . S
C1618 C1619 1.287 . S
C1619 C1618 1.287 . S
C1619 C1620 1.524 . S
C1619 H1622 0.999 . S
C1620 H1590 0.950 . S
C1620 C1619 1.524 . S
C1620 C1621 1.415 . S
C1621 H1591 0.950 . S
C1621 C1616 1.363 . S
C1621 C1620 1.415 . S
H1622 C1619 0.999 . S
H1623 C1604 0.913 . S
H1624 C1642 0.951 . S
H1625 C1644 0.951 . S
H1626 C1646 0.950 . S
H1627 C1647 0.950 . S
H1628 C1649 0.950 . S
H1629 C1652 0.950 . S
H1630 C1653 0.950 . S
H1631 C1655 0.950 . S
H1632 C1656 0.950 . S
H1633 C1657 0.951 . S
H1634 C1659 0.951 . S
H1635 C1661 0.950 . S
H1636 C1662 0.950 . S
H1637 C1664 0.950 . S
H1638 C1667 0.950 . S
H1639 C1668 0.950 . S
H1640 C1670 0.950 . S
H1641 C1671 0.950 . S
C1642 H1624 0.951 . S
C1642 C1643 1.366 . S
C1642 C1644 1.388 . S
C1643 C1642 1.366 . S
C1643 C1647 1.385 . S
C1644 H1625 0.951 . S
C1644 C1642 1.388 . S
C1644 C1645 1.366 . S
C1645 C1644 1.366 . S
C1645 C1646 1.414 . S
C1645 C1648 1.499 . S
C1646 H1626 0.950 . S
C1646 C1645 1.414 . S
C1646 C1647 1.374 . S
C1647 H1627 0.950 . S
C1647 C1643 1.385 . S
C1647 C1646 1.374 . S
C1648 C1645 1.499 . S
C1648 C1649 1.373 . S
C1648 C1650 1.389 . S
C1649 H1628 0.950 . S
C1649 C1648 1.373 . S
C1649 C1665 1.377 . S
C1650 C1648 1.389 . S
C1650 C1651 1.524 . S
C1650 C1664 1.377 . S
C1651 C1650 1.524 . S
C1651 C1652 1.397 . S
C1651 C1656 1.363 . S
C1652 H1629 0.950 . S
C1652 C1651 1.397 . S
C1652 C1653 1.334 . S
C1653 H1630 0.950 . S
C1653 C1652 1.334 . S
C1653 C1654 1.287 . S
C1654 C1653 1.287 . S
C1654 C1655 1.524 . S
C1654 H1673 0.913 . S
C1655 H1631 0.950 . S
C1655 C1654 1.524 . S
C1655 C1656 1.415 . S
C1656 H1632 0.950 . S
C1656 C1651 1.363 . S
C1656 C1655 1.415 . S
C1657 H1633 0.951 . S
C1657 C1658 1.366 . S
C1657 C1659 1.388 . S
C1658 C1657 1.366 . S
C1658 C1662 1.385 . S
C1659 H1634 0.951 . S
C1659 C1657 1.388 . S
C1659 C1660 1.366 . S
C1660 C1659 1.366 . S
C1660 C1661 1.414 . S
C1660 C1663 1.499 . S
C1661 H1635 0.950 . S
C1661 C1660 1.414 . S
C1661 C1662 1.374 . S
C1662 H1636 0.950 . S
C1662 C1658 1.385 . S
C1662 C1661 1.374 . S
C1663 C1660 1.499 . S
C1663 C1664 1.373 . S
C1663 C1665 1.389 . S
C1664 H1637 0.950 . S
C1664 C1650 1.377 . S
C1664 C1663 1.373 . S
C1665 C1649 1.377 . S
C1665 C1663 1.389 . S
C1665 C1666 1.524 . S
C1666 C1665 1.524 . S
C1666 C1667 1.397 . S
C1666 C1671 1.363 . S
C1667 H1638 0.950 . S
C1667 C1666 1.397 . S
C1667 C1668 1.334 . S
C1668 H1639 0.950 . S
C1668 C1667 1.334 . S
C1668 C1669 1.287 . S
C1669 C1668 1.287 . S
C1669 C1670 1.524 . S
C1669 H1672 0.999 . S
C1670 H1640 0.950 . S
C1670 C1669 1.524 . S
C1670 C1671 1.415 . S
C1671 H1641 0.950 . S
C1671 C1666 1.363 . S
C1671 C1670 1.415 . S
H1672 C1669 0.999 . S
H1673 C1654 0.913 . S
H1674 C1692 0.951 . S
H1675 C1694 0.951 . S
H1676 C1696 0.950 . S
H1677 C1697 0.950 . S
H1678 C1699 0.950 . S
H1679 C1702 0.950 . S
H1680 C1703 0.950 . S
H1681 C1705 0.950 . S
H1682 C1706 0.950 . S
H1683 C1707 0.951 . S
H1684 C1709 0.951 . S
H1685 C1711 0.950 . S
H1686 C1712 0.950 . S
H1687 C1714 0.950 . S
H1688 C1717 0.950 . S
H1689 C1718 0.950 . S
H1690 C1720 0.950 . S
H1691 C1721 0.950 . S
C1692 H1674 0.951 . S
C1692 C1693 1.366 . S
C1692 C1694 1.388 . S
C1693 C1692 1.366 . S
C1693 C1697 1.385 . S
C1694 H1675 0.951 . S
C1694 C1692 1.388 . S
C1694 C1695 1.366 . S
C1695 C1694 1.366 . S
C1695 C1696 1.414 . S
C1695 C1698 1.499 . S
C1696 H1676 0.950 . S
C1696 C1695 1.414 . S
C1696 C1697 1.374 . S
C1697 H1677 0.950 . S
C1697 C1693 1.385 . S
C1697 C1696 1.374 . S
C1698 C1695 1.499 . S
C1698 C1699 1.373 . S
C1698 C1700 1.389 . S
C1699 H1678 0.950 . S
C1699 C1698 1.373 . S
C1699 C1715 1.377 . S
C1700 C1698 1.389 . S
C1700 C1701 1.524 . S
C1700 C1714 1.377 . S
C1701 C1700 1.524 . S
C1701 C1702 1.397 . S
C1701 C1706 1.363 . S
C1702 H1679 0.950 . S
C1702 C1701 1.397 . S
C1702 C1703 1.334 . S
C1703 H1680 0.950 . S
C1703 C1702 1.334 . S
C1703 C1704 1.287 . S
C1704 C1703 1.287 . S
C1704 C1705 1.524 . S
C1704 H1723 0.913 . S
C1705 H1681 0.950 . S
C1705 C1704 1.524 . S
C1705 C1706 1.415 . S
C1706 H1682 0.950 . S
C1706 C1701 1.363 . S
C1706 C1705 1.415 . S
C1707 H1683 0.951 . S
C1707 C1708 1.366 . S
C1707 C1709 1.388 . S
C1708 C1707 1.366 . S
C1708 C1712 1.385 . S
C1709 H1684 0.951 . S
C1709 C1707 1.388 . S
C1709 C1710 1.366 . S
C1710 C1709 1.366 . S
C1710 C1711 1.414 . S
C1710 C1713 1.499 . S
C1711 H1685 0.950 . S
C1711 C1710 1.414 . S
C1711 C1712 1.374 . S
C1712 H1686 0.950 . S
C1712 C1708 1.385 . S
C1712 C1711 1.374 . S
C1713 C1710 1.499 . S
C1713 C1714 1.373 . S
C1713 C1715 1.389 . S
C1714 H1687 0.950 . S
C1714 C1700 1.377 . S
C1714 C1713 1.373 . S
C1715 C1699 1.377 . S
C1715 C1713 1.389 . S
C1715 C1716 1.524 . S
C1716 C1715 1.524 . S
C1716 C1717 1.397 . S
C1716 C1721 1.363 . S
C1717 H1688 0.950 . S
C1717 C1716 1.397 . S
C1717 C1718 1.334 . S
C1718 H1689 0.950 . S
C1718 C1717 1.334 . S
C1718 C1719 1.287 . S
C1719 C1718 1.287 . S
C1719 C1720 1.524 . S
C1719 H1722 0.999 . S
C1720 H1690 0.950 . S
C1720 C1719 1.524 . S
C1720 C1721 1.415 . S
C1721 H1691 0.950 . S
C1721 C1716 1.363 . S
C1721 C1720 1.415 . S
H1722 C1719 0.999 . S
H1723 C1704 0.913 . S
H1724 C1742 0.951 . S
H1725 C1744 0.951 . S
H1726 C1746 0.950 . S
H1727 C1747 0.950 . S
H1728 C1749 0.950 . S
H1729 C1752 0.950 . S
H1730 C1753 0.950 . S
H1731 C1755 0.950 . S
H1732 C1756 0.950 . S
H1733 C1757 0.951 . S
H1734 C1759 0.951 . S
H1735 C1761 0.950 . S
H1736 C1762 0.950 . S
H1737 C1764 0.950 . S
H1738 C1767 0.950 . S
H1739 C1768 0.950 . S
H1740 C1770 0.950 . S
H1741 C1771 0.950 . S
C1742 H1724 0.951 . S
C1742 C1743 1.366 . S
C1742 C1744 1.388 . S
C1743 C1742 1.366 . S
C1743 C1747 1.385 . S
C1744 H1725 0.951 . S
C1744 C1742 1.388 . S
C1744 C1745 1.366 . S
C1745 C1744 1.366 . S
C1745 C1746 1.414 . S
C1745 C1748 1.499 . S
C1746 H1726 0.950 . S
C1746 C1745 1.414 . S
C1746 C1747 1.374 . S
C1747 H1727 0.950 . S
C1747 C1743 1.385 . S
C1747 C1746 1.374 . S
C1748 C1745 1.499 . S
C1748 C1749 1.373 . S
C1748 C1750 1.389 . S
C1749 H1728 0.950 . S
C1749 C1748 1.373 . S
C1749 C1765 1.377 . S
C1750 C1748 1.389 . S
C1750 C1751 1.524 . S
C1750 C1764 1.377 . S
C1751 C1750 1.524 . S
C1751 C1752 1.397 . S
C1751 C1756 1.363 . S
C1752 H1729 0.950 . S
C1752 C1751 1.397 . S
C1752 C1753 1.334 . S
C1753 H1730 0.950 . S
C1753 C1752 1.334 . S
C1753 C1754 1.287 . S
C1754 C1753 1.287 . S
C1754 C1755 1.524 . S
C1754 H1773 0.913 . S
C1755 H1731 0.950 . S
C1755 C1754 1.524 . S
C1755 C1756 1.415 . S
C1756 H1732 0.950 . S
C1756 C1751 1.363 . S
C1756 C1755 1.415 . S
C1757 H1733 0.951 . S
C1757 C1758 1.366 . S
C1757 C1759 1.388 . S
C1758 C1757 1.366 . S
C1758 C1762 1.385 . S
C1759 H1734 0.951 . S
C1759 C1757 1.388 . S
C1759 C1760 1.366 . S
C1760 C1759 1.366 . S
C1760 C1761 1.414 . S
C1760 C1763 1.499 . S
C1761 H1735 0.950 . S
C1761 C1760 1.414 . S
C1761 C1762 1.374 . S
C1762 H1736 0.950 . S
C1762 C1758 1.385 . S
C1762 C1761 1.374 . S
C1763 C1760 1.499 . S
C1763 C1764 1.373 . S
C1763 C1765 1.389 . S
C1764 H1737 0.950 . S
C1764 C1750 1.377 . S
C1764 C1763 1.373 . S
C1765 C1749 1.377 . S
C1765 C1763 1.389 . S
C1765 C1766 1.524 . S
C1766 C1765 1.524 . S
C1766 C1767 1.397 . S
C1766 C1771 1.363 . S
C1767 H1738 0.950 . S
C1767 C1766 1.397 . S
C1767 C1768 1.334 . S
C1768 H1739 0.950 . S
C1768 C1767 1.334 . S
C1768 C1769 1.287 . S
C1769 C1768 1.287 . S
C1769 C1770 1.524 . S
C1769 H1772 0.999 . S
C1770 H1740 0.950 . S
C1770 C1769 1.524 . S
C1770 C1771 1.415 . S
C1771 H1741 0.950 . S
C1771 C1766 1.363 . S
C1771 C1770 1.415 . S
H1772 C1769 0.999 . S
H1773 C1754 0.913 . S
H1774 C1792 0.951 . S
H1775 C1794 0.951 . S
H1776 C1796 0.950 . S
H1777 C1797 0.950 . S
H1778 C1799 0.950 . S
H1779 C1802 0.950 . S
H1780 C1803 0.950 . S
H1781 C1805 0.950 . S
H1782 C1806 0.950 . S
H1783 C1807 0.951 . S
H1784 C1809 0.951 . S
H1785 C1811 0.950 . S
H1786 C1812 0.950 . S
H1787 C1814 0.950 . S
H1788 C1817 0.950 . S
H1789 C1818 0.950 . S
H1790 C1820 0.950 . S
H1791 C1821 0.950 . S
C1792 H1774 0.951 . S
C1792 C1793 1.366 . S
C1792 C1794 1.388 . S
C1793 C1792 1.366 . S
C1793 C1797 1.385 . S
C1794 H1775 0.951 . S
C1794 C1792 1.388 . S
C1794 C1795 1.366 . S
C1795 C1794 1.366 . S
C1795 C1796 1.414 . S
C1795 C1798 1.499 . S
C1796 H1776 0.950 . S
C1796 C1795 1.414 . S
C1796 C1797 1.374 . S
C1797 H1777 0.950 . S
C1797 C1793 1.385 . S
C1797 C1796 1.374 . S
C1798 C1795 1.499 . S
C1798 C1799 1.373 . S
C1798 C1800 1.389 . S
C1799 H1778 0.950 . S
C1799 C1798 1.373 . S
C1799 C1815 1.377 . S
C1800 C1798 1.389 . S
C1800 C1801 1.524 . S
C1800 C1814 1.377 . S
C1801 C1800 1.524 . S
C1801 C1802 1.397 . S
C1801 C1806 1.363 . S
C1802 H1779 0.950 . S
C1802 C1801 1.397 . S
C1802 C1803 1.334 . S
C1803 H1780 0.950 . S
C1803 C1802 1.334 . S
C1803 C1804 1.287 . S
C1804 C1803 1.287 . S
C1804 C1805 1.524 . S
C1804 H1823 0.913 . S
C1805 H1781 0.950 . S
C1805 C1804 1.524 . S
C1805 C1806 1.415 . S
C1806 H1782 0.950 . S
C1806 C1801 1.363 . S
C1806 C1805 1.415 . S
C1807 H1783 0.951 . S
C1807 C1808 1.366 . S
C1807 C1809 1.388 . S
C1808 C1807 1.366 . S
C1808 C1812 1.385 . S
C1809 H1784 0.951 . S
C1809 C1807 1.388 . S
C1809 C1810 1.366 . S
C1810 C1809 1.366 . S
C1810 C1811 1.414 . S
C1810 C1813 1.499 . S
C1811 H1785 0.950 . S
C1811 C1810 1.414 . S
C1811 C1812 1.374 . S
C1812 H1786 0.950 . S
C1812 C1808 1.385 . S
C1812 C1811 1.374 . S
C1813 C1810 1.499 . S
C1813 C1814 1.373 . S
C1813 C1815 1.389 . S
C1814 H1787 0.950 . S
C1814 C1800 1.377 . S
C1814 C1813 1.373 . S
C1815 C1799 1.377 . S
C1815 C1813 1.389 . S
C1815 C1816 1.524 . S
C1816 C1815 1.524 . S
C1816 C1817 1.397 . S
C1816 C1821 1.363 . S
C1817 H1788 0.950 . S
C1817 C1816 1.397 . S
C1817 C1818 1.334 . S
C1818 H1789 0.950 . S
C1818 C1817 1.334 . S
C1818 C1819 1.287 . S
C1819 C1818 1.287 . S
C1819 C1820 1.524 . S
C1819 H1822 0.999 . S
C1820 H1790 0.950 . S
C1820 C1819 1.524 . S
C1820 C1821 1.415 . S
C1821 H1791 0.950 . S
C1821 C1816 1.363 . S
C1821 C1820 1.415 . S
H1822 C1819 0.999 . S
H1823 C1804 0.913 . S
C243 C6 1.602 . S
C258 C176 1.668 . S
C293 C190 1.668 . S
C308 C20 1.603 . S
C343 C34 1.603 . S
C358 C204 1.668 . S
C393 C218 1.668 . S
C408 C48 1.603 . S
C443 C118 1.603 . S
C458 C64 1.668 . S
C493 C78 1.668 . S
C508 C132 1.603 . S
C543 C146 1.603 . S
C558 C92 1.668 . S
C593 C106 1.668 . S
C608 C160 1.603 . S
C643 C7 1.670 . S
C658 C35 1.670 . S
C693 C21 1.671 . S
C708 C49 1.671 . S
C743 C63 1.395 . S
C758 C91 1.395 . S
C793 C77 1.394 . S
C808 C105 1.394 . S
C843 C147 1.671 . S
C858 C119 1.671 . S
C893 C133 1.671 . S
C908 C161 1.671 . S
C943 C203 1.394 . S
C958 C175 1.394 . S
C993 C189 1.395 . S
C1008 C217 1.395 . S
C1043 C93 1.524 . S
C1058 C9 1.545 . S
C1093 C107 1.525 . S
C1108 C23 1.545 . S
C1143 C37 1.545 . S
C1158 C65 1.525 . S
C1193 C51 1.545 . S
C1208 C79 1.525 . S
C1243 C205 1.525 . S
C1258 C121 1.545 . S
C1293 C135 1.545 . S
C1308 C219 1.524 . S
C1343 C177 1.524 . S
C1358 C149 1.545 . S
C1393 C163 1.545 . S
C1408 C191 1.524 . S
C1443 C8 1.504 . S
C1458 C50 1.504 . S
C1493 C36 1.504 . S
C1508 C22 1.504 . S
C1543 C62 1.591 . S
C1558 C104 1.591 . S
C1593 C76 1.591 . S
C1608 C90 1.591 . S
C1643 C162 1.504 . S
C1658 C120 1.504 . S
C1693 C134 1.504 . S
C1708 C148 1.504 . S
C1743 C216 1.591 . S
C1758 C174 1.591 . S
C1793 C188 1.591 . S
C1808 C202 1.591 . S
