# Generated by pormake.
# Topology qtz-e, (6)-cn, num edge types: 1
# Building blocks:
#     Node 0, Type 0, BuildingBlock: BETDAH_clean_sbu_0, # of connection points: 6
#     Node 1, Type 0, BuildingBlock: BETDAH_clean_sbu_0, # of connection points: 6
#     Node 2, Type 0, BuildingBlock: BETDAH_clean_sbu_0, # of connection points: 6
#     Node 3, Type 0, BuildingBlock: BETDAH_clean_sbu_0, # of connection points: 6
#     Node 4, Type 0, BuildingBlock: BETDAH_clean_sbu_0, # of connection points: 6
#     Node 5, Type 0, BuildingBlock: BETDAH_clean_sbu_0, # of connection points: 6
#     Edge 6, Type (0, 0), BuildingBlock: EZIPEK_clean_linker_0, # of connection points: 2
#     Edge 7, Type (0, 0), BuildingBlock: EZIPEK_clean_linker_0, # of connection points: 2
#     Edge 8, Type (0, 0), BuildingBlock: EZIPEK_clean_linker_0, # of connection points: 2
#     Edge 9, Type (0, 0), BuildingBlock: EZIPEK_clean_linker_0, # of connection points: 2
#     Edge 10, Type (0, 0), BuildingBlock: EZIPEK_clean_linker_0, # of connection points: 2
#     Edge 11, Type (0, 0), BuildingBlock: EZIPEK_clean_linker_0, # of connection points: 2
#     Edge 12, Type (0, 0), BuildingBlock: EZIPEK_clean_linker_0, # of connection points: 2
#     Edge 13, Type (0, 0), BuildingBlock: EZIPEK_clean_linker_0, # of connection points: 2
#     Edge 14, Type (0, 0), BuildingBlock: EZIPEK_clean_linker_0, # of connection points: 2
#     Edge 15, Type (0, 0), BuildingBlock: EZIPEK_clean_linker_0, # of connection points: 2
#     Edge 16, Type (0, 0), BuildingBlock: EZIPEK_clean_linker_0, # of connection points: 2
#     Edge 17, Type (0, 0), BuildingBlock: EZIPEK_clean_linker_0, # of connection points: 2
#     Edge 18, Type (0, 0), BuildingBlock: EZIPEK_clean_linker_0, # of connection points: 2
#     Edge 19, Type (0, 0), BuildingBlock: EZIPEK_clean_linker_0, # of connection points: 2
#     Edge 20, Type (0, 0), BuildingBlock: EZIPEK_clean_linker_0, # of connection points: 2
#     Edge 21, Type (0, 0), BuildingBlock: EZIPEK_clean_linker_0, # of connection points: 2
#     Edge 22, Type (0, 0), BuildingBlock: EZIPEK_clean_linker_0, # of connection points: 2
#     Edge 23, Type (0, 0), BuildingBlock: EZIPEK_clean_linker_0, # of connection points: 2
# Relax obj value: 0.088
# Max RMSD: 0.183
# Mean RMSD: 0.183
data_MOF--net-qtz-e--node1-BETDAH_clean_sbu_0--edge1-EZIPEK_clean_linker_0
_symmetry_space_group_name_H-M    P1
_symmetry_Int_Tables_number       1
_symmetry_cell_setting            triclinic
loop_
_symmetry_equiv_pos_as_xyz
'x, y, z'
_cell_length_a     19.346329
_cell_length_b     19.284865
_cell_length_c     41.980541
_cell_angle_alpha  90.393395
_cell_angle_beta   89.945902
_cell_angle_gamma 120.04607
loop_
_atom_site_label
_atom_site_type_symbol
_atom_site_fract_x
_atom_site_fract_y
_atom_site_fract_z
_atom_type_partial_charge
Ho0 Ho 0.22741 0.52564 0.08633 0.0
Ho1 Ho 0.1581 0.35485 0.05813 0.0
C2 C 0.14289 0.36824 0.13432 0.0
C3 C 0.24395 0.64958 0.11615 0.0
C4 C 0.26083 0.67503 0.14951 0.0
C5 C 0.20456 0.6849 0.16698 0.0
C6 C 0.21575 0.70151 0.19946 0.0
C7 C 0.28379 0.70926 0.21466 0.0
C8 C 0.34132 0.70176 0.19718 0.0
C9 C 0.32961 0.68397 0.16478 0.0
C10 C 0.33585 0.48202 0.07623 0.0
C11 C 0.24107 0.51465 1.01303 0.0
C12 C 0.14743 0.24016 1.02142 0.0
C13 C 0.17877 0.23633 0.98907 0.0
C14 C 0.19628 0.17545 0.9817 0.0
C15 C 0.22311 0.16932 0.95111 0.0
C16 C 0.23307 0.22387 0.92691 0.0
C17 C 0.21661 0.28551 0.93444 0.0
C18 C 0.18955 0.29146 0.96497 0.0
C19 C 0.05765 0.4125 0.06322 0.0
O20 O 0.18507 0.4471 0.13037 0.0
O21 O 0.12574 0.3179 0.10971 0.0
O22 O 0.3019 0.64912 0.10018 0.0
O23 O 0.17425 0.58588 0.11084 0.0
O24 O 0.35006 0.55504 0.07437 0.0
O25 O 0.2659 0.43567 0.08652 0.0
O26 O 0.22495 0.44051 1.0181 0.0
O27 O 0.23447 0.5586 0.03554 0.0
O28 O 0.09382 0.26249 1.02251 0.0
O29 O 0.19909 0.27169 0.04479 0.0
O30 O 0.03317 0.33642 0.06583 0.0
O31 O 0.12922 0.44941 0.05541 0.0
H32 H 0.15121 0.67809 0.15564 0.0
H33 H 0.17123 0.70786 0.21282 0.0
H34 H 0.39432 0.7083 0.20876 0.0
H35 H 0.37371 0.676 0.1519 0.0
H36 H 0.18875 0.1321 0.99963 0.0
H37 H 0.23626 0.12187 0.94632 0.0
H38 H 0.22429 0.32902 0.91654 0.0
H39 H 0.17647 0.33898 0.96958 0.0
Ho40 Ho 0.69829 0.23705 0.41238 0.0
Ho41 Ho 0.79328 0.15848 0.38729 0.0
C42 C 0.76062 0.1447 0.4618 0.0
C43 C 0.60615 0.27484 0.44254 0.0
C44 C 0.59161 0.27473 0.47679 0.0
C45 C 0.58556 0.21239 0.49584 0.0
C46 C 0.57792 0.21511 0.52865 0.0
C47 C 0.57627 0.28011 0.54288 0.0
C48 C 0.58347 0.34323 0.52413 0.0
C49 C 0.59127 0.34055 0.49111 0.0
C50 C 0.8524 0.33849 0.40041 0.0
C51 C 0.72012 0.23802 0.33904 0.0
C52 C 0.89494 0.14004 0.3524 0.0
C53 C 0.9339 0.17072 0.32065 0.0
C54 C 0.00875 0.17868 0.31364 0.0
C55 C 0.04586 0.20845 0.28393 0.0
C56 C 0.00878 0.23068 0.26041 0.0
C57 C 0.93394 0.22241 0.26746 0.0
C58 C 0.89737 0.19307 0.29709 0.0
C59 C 0.63342 0.0631 0.39471 0.0
O60 O 0.71282 0.1743 0.45577 0.0
O61 O 0.8064 0.13959 0.43934 0.0
O62 O 0.67843 0.32768 0.43377 0.0
O63 O 0.58033 0.20455 0.42906 0.0
O64 O 0.79563 0.35401 0.39528 0.0
O65 O 0.82542 0.2707 0.41338 0.0
O66 O 0.78005 0.22658 0.34631 0.0
O67 O 0.66843 0.23277 0.36076 0.0
O68 O 0.81787 0.0899 0.35239 0.0
O69 O 0.91606 0.19255 0.37559 0.0
O70 O 0.6831 0.03702 0.39927 0.0
O71 O 0.67053 0.13265 0.3844 0.0
H72 H 0.58673 0.16149 0.48548 0.0
H73 H 0.57165 0.16567 0.54293 0.0
H74 H 0.58124 0.39321 0.53496 0.0
H75 H 0.59723 0.38973 0.47676 0.0
H76 H 0.03888 0.16236 0.33125 0.0
H77 H 0.10395 0.215 0.27942 0.0
H78 H 0.90421 0.23989 0.25011 0.0
H79 H 0.84068 0.18852 0.30164 0.0
Ho80 Ho 0.45379 0.68876 0.75619 0.0
Ho81 Ho 0.62335 0.80935 0.72251 0.0
C82 C 0.62193 0.77605 0.79794 0.0
C83 C 0.33592 0.56713 0.78192 0.0
C84 C 0.30846 0.56264 0.81434 0.0
C85 C 0.34341 0.63331 0.83263 0.0
C86 C 0.33055 0.63006 0.86514 0.0
C87 C 0.28227 0.55617 0.87956 0.0
C88 C 0.24477 0.48546 0.8613 0.0
C89 C 0.25837 0.48868 0.82856 0.0
C90 C 0.48585 0.84201 0.76065 0.0
C91 C 0.45358 0.72515 0.68311 0.0
C92 C 0.72945 0.91247 0.68351 0.0
C93 C 0.72923 0.95164 0.65281 0.0
C94 C 0.66413 0.91571 0.63146 0.0
C95 C 0.66828 0.94899 0.60126 0.0
C96 C 0.73785 0.01873 0.59146 0.0
C97 C 0.80216 0.05564 0.61305 0.0
C98 C 0.79785 0.02253 0.64331 0.0
C99 C 0.5784 0.65321 0.7282 0.0
O100 O 0.54556 0.71875 0.7955 0.0
O101 O 0.66348 0.82457 0.77403 0.0
O102 O 0.32645 0.61646 0.76353 0.0
O103 O 0.40785 0.57722 0.78049 0.0
O104 O 0.42146 0.78089 0.77125 0.0
O105 O 0.52876 0.81645 0.74865 0.0
O106 O 0.52759 0.78524 0.68628 0.0
O107 O 0.41488 0.67271 0.70566 0.0
O108 O 0.70163 0.83519 0.68212 0.0
O109 O 0.70754 0.93385 0.70965 0.0
O110 O 0.65306 0.70939 0.72828 0.0
O111 O 0.53526 0.68259 0.72241 0.0
H112 H 0.38397 0.69059 0.82203 0.0
H113 H 0.36011 0.68469 0.87922 0.0
H114 H 0.20789 0.42807 0.87257 0.0
H115 H 0.23275 0.43373 0.81468 0.0
H116 H 0.61066 0.8607 0.63768 0.0
H117 H 0.61771 0.91927 0.58523 0.0
H118 H 0.8565 0.10931 0.6062 0.0
H119 H 0.84919 0.0513 0.65901 0.0
Ho120 Ho 0.75413 0.45721 0.08162 0.0
Ho121 Ho 0.78298 0.62503 0.05853 0.0
C122 C 0.82359 0.61292 0.13149 0.0
C123 C 0.76974 0.34462 0.10634 0.0
C124 C 0.75976 0.31962 0.13986 0.0
C125 C 0.8137 0.37032 0.16329 0.0
C126 C 0.79789 0.35191 0.19539 0.0
C127 C 0.72733 0.28338 0.20461 0.0
C128 C 0.67347 0.23223 0.18145 0.0
C129 C 0.69016 0.24967 0.14923 0.0
C130 C 0.62534 0.47159 0.08524 0.0
C131 C 0.71787 0.473 1.00842 0.0
C132 C 0.75779 0.72668 0.02786 0.0
C133 C 0.7431 0.73694 0.99371 0.0
C134 C 0.69631 0.77103 0.98587 0.0
C135 C 0.68413 0.78383 0.95392 0.0
C136 C 0.72249 0.76793 0.92833 0.0
C137 C 0.75968 0.7229 0.93664 0.0
C138 C 0.7719 0.70993 0.96864 0.0
C139 C 0.90489 0.59586 0.05382 0.0
O140 O 0.81216 0.54042 0.12436 0.0
O141 O 0.80769 0.65552 0.11093 0.0
O142 O 0.70422 0.33162 0.09206 0.0
O143 O 0.83047 0.41535 0.10001 0.0
O144 O 0.62317 0.40355 0.0853 0.0
O145 O 0.69615 0.52848 0.08941 0.0
O146 O 0.73223 0.5459 1.01541 0.0
O147 O 0.72809 0.42803 0.0295 0.0
O148 O 0.82928 0.74005 0.0354 0.0
O149 O 0.70115 0.66371 0.04228 0.0
O150 O 0.91639 0.66714 0.06013 0.0
O151 O 0.83271 0.54844 0.04879 0.0
H152 H 0.86683 0.42559 0.15702 0.0
H153 H 0.84005 0.39177 0.21311 0.0
H154 H 0.61885 0.1789 0.18836 0.0
H155 H 0.64731 0.21 0.13167 0.0
H156 H 0.66842 0.78747 1.00456 0.0
H157 H 0.64306 0.80531 0.94985 0.0
H158 H 0.77863 0.6955 0.91881 0.0
H159 H 0.80349 0.6781 0.97373 0.0
Ho160 Ho 0.28605 0.76634 0.421 0.0
Ho161 Ho 0.15472 0.79697 0.39402 0.0
C162 C 0.18224 0.81833 0.46911 0.0
C163 C 0.40217 0.77054 0.45214 0.0
C164 C 0.40287 0.75445 0.48588 0.0
C165 C 0.47487 0.78483 0.50264 0.0
C166 C 0.47351 0.7744 0.53554 0.0
C167 C 0.4002 0.73445 0.55159 0.0
C168 C 0.32841 0.70425 0.53482 0.0
C169 C 0.32973 0.71406 0.50207 0.0
C170 C 0.14746 0.63392 0.40856 0.0
C171 C 0.26661 0.75872 0.34728 0.0
C172 C 0.03766 0.7814 0.35831 0.0
C173 C 0.01001 0.75823 0.32455 0.0
C174 C 0.00355 0.68905 0.31 0.0
C175 C 0.97414 0.66714 0.27864 0.0
C176 C 0.95079 0.71395 0.26102 0.0
C177 C 0.95839 0.78355 0.27536 0.0
C178 C -0.01253 0.80528 0.30669 0.0
C179 C 0.30237 0.92513 0.40246 0.0
O180 O 0.24433 0.80762 0.46439 0.0
O181 O 0.1316 0.80911 0.44586 0.0
O182 O 0.35225 0.70865 0.435 0.0
O183 O 0.39742 0.8344 0.44628 0.0
O184 O 0.21631 0.6389 0.40594 0.0
O185 O 0.15414 0.69755 0.42064 0.0
O186 O 0.1956 0.75072 0.35269 0.0
O187 O 0.3212 0.78111 0.36985 0.0
O188 O 0.10362 0.84958 0.36289 0.0
O189 O 0.03242 0.72541 0.37735 0.0
O190 O 0.23828 0.9306 0.40511 0.0
O191 O 0.28396 0.85712 0.39255 0.0
H192 H 0.53158 0.81734 0.49042 0.0
H193 H 0.52926 0.79798 0.54852 0.0
H194 H 0.27171 0.67332 0.54712 0.0
H195 H 0.27365 0.69114 0.48939 0.0
H196 H 0.02062 0.65147 0.32291 0.0
H197 H 0.96909 0.6133 0.26817 0.0
H198 H 0.94094 0.82073 0.26238 0.0
H199 H -0.00836 0.85877 0.31714 0.0
Ho200 Ho 0.50443 0.2775 0.74648 0.0
Ho201 Ho 0.33175 0.1597 0.72402 0.0
C202 C 0.35308 0.21115 0.79807 0.0
C203 C 0.62645 0.39487 0.77329 0.0
C204 C 0.64624 0.40453 0.80715 0.0
C205 C 0.60341 0.3389 0.82734 0.0
C206 C 0.61512 0.34785 0.86006 0.0
C207 C 0.67169 0.42191 0.87291 0.0
C208 C 0.71662 0.48725 0.85275 0.0
C209 C 0.70317 0.47878 0.81987 0.0
C210 C 0.46856 0.12585 0.74451 0.0
C211 C 0.48558 0.22936 0.67442 0.0
C212 C 0.2149 0.03939 0.69405 0.0
C213 C 0.20242 0.00037 0.66184 0.0
C214 C 0.24312 0.96 0.65245 0.0
C215 C 0.23436 0.92832 0.62144 0.0
C216 C 0.18261 0.93357 0.59923 0.0
C217 C 0.1382 0.96942 0.60929 0.0
C218 C 0.1487 0.00315 0.63998 0.0
C219 C 0.38297 0.31717 0.71962 0.0
O220 O 0.43058 0.25362 0.79168 0.0
O221 O 0.30073 0.16594 0.77566 0.0
O222 O 0.62902 0.33512 0.75946 0.0
O223 O 0.56164 0.39708 0.76626 0.0
O224 O 0.53913 0.18591 0.73909 0.0
O225 O 0.42059 0.14877 0.75364 0.0
O226 O 0.41233 0.17305 0.68229 0.0
O227 O 0.52825 0.28913 0.6943 0.0
O228 O 0.22413 0.11142 0.69499 0.0
O229 O 0.26269 0.03198 0.71408 0.0
O230 O 0.30922 0.26537 0.72664 0.0
O231 O 0.42062 0.28193 0.71422 0.0
H232 H 0.56001 0.28084 0.81783 0.0
H233 H 0.58011 0.29713 0.8754 0.0
H234 H 0.76016 0.54494 0.86259 0.0
H235 H 0.73613 0.52998 0.80453 0.0
H236 H 0.28405 0.95525 0.66866 0.0
H237 H 0.26886 0.90043 0.61463 0.0
H238 H 0.0968 0.97318 0.59303 0.0
H239 H 0.11505 0.0321 0.64656 0.0
C240 C 0.28846 0.68334 0.30393 0.0
C241 C 0.28711 0.75268 0.31421 0.0
C242 C 0.30801 0.80222 0.25978 0.0
C243 C 0.29465 0.72688 0.24899 0.0
N244 N 0.2648 0.59186 0.26009 0.0
N245 N 0.28778 0.87534 0.30208 0.0
C246 C 0.284 0.66651 0.27084 0.0
C247 C 0.29538 0.81181 0.29223 0.0
N248 N 0.29258 0.63318 0.3257 0.0
N249 N 0.33317 0.86449 0.23898 0.0
H250 H 0.27913 0.88497 0.32582 0.0
H251 H 0.28404 0.91508 0.28647 0.0
H252 H 0.34366 0.8593 0.21493 0.0
H253 H 0.35118 0.92295 0.24615 0.0
H254 H 0.301 0.58558 0.31944 0.0
H255 H 0.29451 0.64332 0.35019 0.0
H256 H 0.24729 0.54301 0.27505 0.0
H257 H 0.26016 0.5768 0.23597 0.0
C258 C 0.59633 0.28197 0.63298 0.0
C259 C 0.51421 0.23258 0.64102 0.0
C260 C 0.47614 0.22805 0.58552 0.0
C261 C 0.557 0.27528 0.577 0.0
N262 N 0.69625 0.34055 0.59101 0.0
N263 N 0.3896 0.12407 0.62076 0.0
C264 C 0.61809 0.30078 0.60033 0.0
C265 C 0.45737 0.19572 0.61625 0.0
N266 N 0.65327 0.3071 0.65626 0.0
N267 N 0.41689 0.21167 0.56402 0.0
H268 H 0.38349 0.0884 0.6402 0.0
H269 H 0.34876 0.09349 0.60254 0.0
H270 H 0.42802 0.23274 0.54069 0.0
H271 H 0.35713 0.18449 0.57076 0.0
H272 H 0.71253 0.35138 0.65311 0.0
H273 H 0.64117 0.28151 0.67885 0.0
H274 H 0.74418 0.35453 0.60608 0.0
H275 H 0.71323 0.35722 0.56743 0.0
C276 C 0.21041 0.56212 0.96258 0.0
C277 C 0.26214 0.54494 0.98051 0.0
C278 C 0.32866 0.53811 0.93229 0.0
C279 C 0.27579 0.55331 0.91429 0.0
N280 N 0.1786 0.59654 0.91134 0.0
N281 N 0.38455 0.54183 0.9843 0.0
C282 C 0.22074 0.57109 0.92918 0.0
C283 C 0.32584 0.54084 0.96586 0.0
N284 N 0.14896 0.56558 0.97709 0.0
N285 N 0.38035 0.5197 0.91731 0.0
H286 H 0.38516 0.54751 1.00905 0.0
H287 H 0.43634 0.54549 0.97519 0.0
H288 H 0.38627 0.51985 0.8926 0.0
H289 H 0.41394 0.4994 0.92921 0.0
H290 H 0.1032 0.56718 0.96475 0.0
H291 H 0.14126 0.56361 1.00163 0.0
H292 H 0.14492 0.61984 0.92107 0.0
H293 H 0.18135 0.59954 0.88654 0.0
C294 C 0.7015 0.18278 0.2842 0.0
C295 C 0.70567 0.24321 0.30495 0.0
C296 C 0.69988 0.31714 0.25909 0.0
C297 C 0.7115 0.26476 0.23876 0.0
N298 N 0.73414 0.15302 0.23235 0.0
N299 N 0.71414 0.37142 0.31244 0.0
C300 C 0.71405 0.19823 0.2513 0.0
C301 C 0.70518 0.31104 0.29257 0.0
N302 N 0.68653 0.11076 0.29598 0.0
N303 N 0.68273 0.37173 0.24631 0.0
H304 H 0.71797 0.36887 0.33713 0.0
H305 H 0.72353 0.42637 0.30428 0.0
H306 H 0.67646 0.37572 0.22182 0.0
H307 H 0.66681 0.40684 0.25996 0.0
H308 H 0.67329 0.06139 0.28157 0.0
H309 H 0.68251 0.09901 0.32025 0.0
H310 H 0.74602 0.10978 0.2413 0.0
H311 H 0.74658 0.1635 0.20814 0.0
C312 C 0.40995 0.65156 0.63143 0.0
C313 C 0.41692 0.71399 0.65162 0.0
C314 C 0.40105 0.78399 0.60663 0.0
C315 C 0.39845 0.72391 0.58621 0.0
N316 N 0.38001 0.59162 0.57862 0.0
N317 N 0.39454 0.82419 0.66092 0.0
C318 C 0.39577 0.6544 0.5985 0.0
C319 C 0.40442 0.77538 0.63994 0.0
N320 N 0.42141 0.5923 0.64339 0.0
N321 N 0.40316 0.85032 0.59411 0.0
H322 H 0.39519 0.81725 0.68555 0.0
H323 H 0.3777 0.86547 0.65416 0.0
H324 H 0.39798 0.85725 0.56975 0.0
H325 H 0.41427 0.90039 0.60759 0.0
H326 H 0.42706 0.55076 0.62935 0.0
H327 H 0.42843 0.58613 0.6676 0.0
H328 H 0.36899 0.53597 0.58653 0.0
H329 H 0.37186 0.59289 0.55412 0.0
C330 C 0.73886 0.41535 0.95721 0.0
C331 C 0.69795 0.4477 0.9746 0.0
C332 C 0.64414 0.46728 0.92464 0.0
C333 C 0.68117 0.43098 0.90778 0.0
N334 N 0.75135 0.35705 0.90778 0.0
N335 N 0.59672 0.48689 0.97507 0.0
C336 C 0.72399 0.40017 0.92406 0.0
C337 C 0.64609 0.46833 0.95833 0.0
N338 N 0.79644 0.40465 0.97138 0.0
N339 N 0.60804 0.50203 0.90847 0.0
H340 H 0.59596 0.48943 0.99979 0.0
H341 H 0.55107 0.49264 0.96459 0.0
H342 H 0.60049 0.49827 0.88381 0.0
H343 H 0.59005 0.53915 0.91931 0.0
H344 H 0.8346 0.39121 0.95871 0.0
H345 H 0.81225 0.41593 0.99525 0.0
H346 H 0.77308 0.32374 0.91898 0.0
H347 H 0.74724 0.34969 0.88309 0.0
C348 C 0.42294 0.43059 0.05653 0.0
C349 C 0.40297 0.46829 0.08081 0.0
C350 C 0.53337 0.51794 0.10611 0.0
C351 C 0.55195 0.47628 0.08269 0.0
N352 N 0.50696 0.37933 0.03902 0.0
N353 N 0.42915 0.53155 0.13247 0.0
C354 C 0.49434 0.42809 0.05911 0.0
C355 C 0.45529 0.5071 0.10677 0.0
N356 N 0.376 0.40082 0.03001 0.0
N357 N 0.58935 0.56732 0.12782 0.0
H358 H 0.37148 0.52287 0.13391 0.0
H359 H 0.46129 0.55295 0.15361 0.0
H360 H 0.64584 0.57396 0.12979 0.0
H361 H 0.58175 0.60642 0.14269 0.0
H362 H 0.39341 0.38321 1.00941 0.0
H363 H 0.32186 0.39924 0.02769 0.0
H364 H 0.46161 0.3339 1.02545 0.0
H365 H 0.5617 0.3822 0.03612 0.0
C366 C 0.03085 0.52062 0.43554 0.0
C367 C 0.07368 0.55549 0.40722 0.0
C368 C -0.01539 0.43285 0.3777 0.0
C369 C 0.93415 0.40504 0.40457 0.0
N370 N 0.90422 0.42526 0.4586 0.0
N371 N 0.09131 0.54598 0.35067 0.0
C372 C 0.95588 0.44951 0.43346 0.0
C373 C 0.05095 0.51167 0.3781 0.0
N374 N 0.06402 0.55243 0.46449 0.0
N375 N 0.96976 0.38331 0.35206 0.0
H376 H 0.14188 0.60247 0.35015 0.0
H377 H 0.07172 0.52089 0.32812 0.0
H378 H 0.92267 0.32452 0.35169 0.0
H379 H 0.00839 0.39715 0.33282 0.0
H380 H 0.03814 0.52545 0.48606 0.0
H381 H 0.12221 0.60009 0.46674 0.0
H382 H 0.91372 0.46057 0.47883 0.0
H383 H 0.8492 0.37237 0.45832 0.0
C384 C 0.47838 0.01301 0.72307 0.0
C385 C 0.45905 0.04636 0.74925 0.0
C386 C 0.46532 0.94945 0.78448 0.0
C387 C 0.49341 0.92212 0.75853 0.0
N388 N 0.5492 0.94741 0.70556 0.0
N389 N 0.44754 0.05601 0.80624 0.0
C390 C 0.50708 0.95995 0.72858 0.0
C391 C 0.4557 0.01713 0.7804 0.0
N392 N 0.46869 0.03177 0.69275 0.0
N393 N 0.44745 0.91077 0.81306 0.0
H394 H 0.43816 0.1045 0.80447 0.0
H395 H 0.45536 0.04348 0.82962 0.0
H396 H 0.46003 0.86559 0.81833 0.0
H397 H 0.4165 0.92102 0.83108 0.0
H398 H 0.47605 0.00454 0.67252 0.0
H399 H 0.44387 0.06753 0.68814 0.0
H400 H 0.566 0.97847 0.68412 0.0
H401 H 0.57692 0.91463 0.70988 0.0
C402 C 0.50696 0.52131 0.75352 0.0
C403 C 0.5461 0.56617 0.72633 0.0
C404 C 0.4708 0.44667 0.69301 0.0
C405 C 0.42409 0.40528 0.72003 0.0
N406 N 0.38614 0.40952 0.77426 0.0
N407 N 0.56888 0.57382 0.66991 0.0
C408 C 0.43834 0.44467 0.74975 0.0
C409 C 0.52955 0.52917 0.69592 0.0
N410 N 0.53675 0.55164 0.783 0.0
N411 N 0.45867 0.40662 0.6647 0.0
H412 H 0.61501 0.63318 0.67189 0.0
H413 H 0.55488 0.55339 0.64651 0.0
H414 H 0.41135 0.34841 0.6611 0.0
H415 H 0.49632 0.42971 0.64513 0.0
H416 H 0.51437 0.51891 0.80386 0.0
H417 H 0.58874 0.60688 0.78586 0.0
H418 H 0.39039 0.43918 0.79564 0.0
H419 H 0.33443 0.35383 0.7721 0.0
C420 C -0.01015 0.46766 0.0305 0.0
C421 C 0.0085 0.45078 0.06104 0.0
C422 C -0.01425 0.55338 0.08514 0.0
C423 C 0.96247 0.56711 0.05506 0.0
N424 N 0.95696 0.5519 0.99829 0.0
N425 N 0.00717 0.4624 0.11773 0.0
C426 C 0.96897 0.52833 0.02741 0.0
C427 C 0.00215 0.48983 0.08847 0.0
N428 N -0.00982 0.42376 1.00485 0.0
N429 N -0.00843 0.60089 0.11039 0.0
H430 H 0.01296 0.41174 0.12033 0.0
H431 H -0.00137 0.48481 0.13904 0.0
H432 H -0.01715 0.64956 0.10772 0.0
H433 H 0.01233 0.59733 0.13282 0.0
H434 H 0.97324 0.42912 0.98192 0.0
H435 H 0.00362 0.37789 1.00694 0.0
H436 H 0.96397 0.52981 0.97662 0.0
H437 H 0.94426 0.59825 0.99587 0.0
C438 C 0.43046 -0.00396 0.43171 0.0
C439 C 0.38679 0.98907 0.40371 0.0
C440 C 0.50036 0.01416 0.37096 0.0
C441 C 0.54536 0.02081 0.39849 0.0
N442 N 0.5534 0.01341 0.45533 0.0
N443 N 0.3891 0.02226 0.34893 0.0
C444 C 0.51072 0.01137 0.42915 0.0
C445 C 0.42547 0.00933 0.37411 0.0
N446 N 0.39352 0.98597 0.4604 0.0
N447 N 0.52666 0.00571 0.34186 0.0
H448 H 0.33389 0.0192 0.35146 0.0
H449 H 0.41685 0.04301 0.32697 0.0
H450 H 0.57545 -0.0031 0.33988 0.0
H451 H 0.49399 -0.00452 0.3209 0.0
H452 H 0.41944 0.98849 0.48237 0.0
H453 H 0.33599 0.97769 0.46185 0.0
H454 H 0.53366 0.00832 0.47869 0.0
H455 H 0.60832 0.01612 0.45327 0.0
C456 C 0.36415 0.2844 0.85177 0.0
C457 C 0.32512 0.21352 0.83203 0.0
C458 C 0.22171 0.15083 0.874 0.0
C459 C 0.26381 0.21879 0.89418 0.0
N460 N 0.38285 0.33943 0.90589 0.0
N461 N 0.2316 0.07078 0.83153 0.0
C462 C 0.33763 0.28241 0.88384 0.0
C463 C 0.25787 0.14435 0.84515 0.0
N464 N 0.42363 0.35519 0.84 0.0
N465 N 0.14619 0.09286 0.8819 0.0
H466 H 0.26126 0.06118 0.81279 0.0
H467 H 0.1873 0.01783 0.84163 0.0
H468 H 0.11751 0.09605 0.90245 0.0
H469 H 0.10957 0.04602 0.86653 0.0
H470 H 0.44482 0.40979 0.85183 0.0
H471 H 0.44731 0.36284 0.81733 0.0
H472 H 0.44137 0.3853 0.90219 0.0
H473 H 0.44137 0.3853 0.90219 0.0
C474 C 0.06383 0.22273 0.20579 0.0
C475 C 0.0496 0.26759 0.22923 0.0
C476 C 0.09478 0.37863 0.19109 0.0
C477 C 0.11475 0.33602 0.16794 0.0
N478 N 0.14307 0.22818 0.16021 0.0
N479 N 0.07514 0.39721 0.24694 0.0
C480 C 0.10622 0.26097 0.17727 0.0
C481 C 0.07253 0.34824 0.22268 0.0
N482 N 0.03549 0.14292 0.21027 0.0
N483 N 0.09262 0.44618 0.18326 0.0
H484 H 0.06068 0.37789 0.27042 0.0
H485 H 0.09993 0.4589 0.24447 0.0
H486 H 0.10767 0.47369 0.16131 0.0
H487 H 0.068 0.47166 0.19811 0.0
H488 H 0.0368 0.10555 0.19252 0.0
H489 H 0.00432 0.11279 0.23065 0.0
H490 H 0.14408 0.17712 0.16747 0.0
H491 H 0.18188 0.25771 0.14144 0.0
C492 C 0.74563 0.12462 0.55331 0.0
C493 C 0.74462 0.05132 0.55822 0.0
C494 C 0.74924 0.03593 0.49989 0.0
C495 C 0.75907 0.11358 0.49506 0.0
N496 N 0.78315 0.23825 0.51881 0.0
N497 N 0.76072 0.94461 0.53613 0.0
C498 C 0.76163 0.15958 0.52227 0.0
C499 C 0.75095 0.00926 0.53147 0.0
N500 N 0.72896 0.16002 0.57814 0.0
N501 N 0.73352 0.9851 0.47463 0.0
H502 H 0.76228 0.92307 0.55868 0.0
H503 H 0.77472 0.91703 0.51781 0.0
H504 H 0.72942 0.00014 0.45126 0.0
H505 H 0.71631 0.92489 0.47721 0.0
H506 H 0.71955 0.20828 0.57532 0.0
H507 H 0.71704 0.13646 0.60109 0.0
H508 H 0.79321 0.27681 0.53797 0.0
H509 H 0.79958 0.26745 0.49699 0.0
C510 C 0.71659 0.7618 0.836 0.0
C511 C 0.66086 0.78779 0.83005 0.0
C512 C 0.67794 0.83504 0.88568 0.0
C513 C 0.7162 0.79059 0.89351 0.0
N514 N 0.82303 0.77691 0.87052 0.0
N515 N 0.59109 0.85355 0.84967 0.0
C516 C 0.75026 0.7712 0.86716 0.0
C517 C 0.64225 0.82557 0.85507 0.0
N518 N 0.73727 0.72746 0.81209 0.0
N519 N 0.68858 0.89696 0.9049 0.0
H520 H 0.56864 0.85319 0.82709 0.0
H521 H 0.56844 0.87321 0.86797 0.0
H522 H 0.72884 0.91658 0.92393 0.0
H523 H 0.66803 0.93602 0.89912 0.0
H524 H 0.7699 0.69868 0.81613 0.0
H525 H 0.71793 0.7239 0.78866 0.0
H526 H 0.85405 0.7699 0.85164 0.0
H527 H 0.85781 0.80214 0.89091 0.0
C528 C 0.83598 0.62887 0.22318 0.0
C529 C 0.91695 0.68966 0.22778 0.0
C530 C 0.93066 0.71157 0.16964 0.0
C531 C 0.85288 0.64457 0.16469 0.0
N532 N 0.73122 0.53783 0.18681 0.0
N533 N 0.04485 0.78143 0.2051 0.0
C534 C 0.80558 0.60272 0.19156 0.0
C535 C 0.96507 0.72917 0.2009 0.0
N536 N 0.78754 0.5976 0.24915 0.0
N537 N 0.97155 0.75949 0.14458 0.0
H538 H 0.07207 0.79609 0.22749 0.0
H539 H 0.08529 0.80484 0.18637 0.0
H540 H 0.94914 0.74879 0.12142 0.0
H541 H 0.02461 0.81379 0.14715 0.0
H542 H 0.72604 0.5598 0.24781 0.0
H543 H 0.80798 0.61415 0.27249 0.0
H544 H 0.69575 0.50029 0.20486 0.0
H545 H 0.70519 0.51935 0.16435 0.0
C546 C 0.19656 0.95473 0.539 0.0
C547 C 0.17575 0.90225 0.5655 0.0
C548 C 0.15602 0.79338 0.52864 0.0
C549 C 0.17227 0.84455 0.50199 0.0
N550 N 0.19145 0.97 0.48194 0.0
N551 N 0.11683 0.76652 0.58419 0.0
C552 C 0.18682 0.92374 0.50724 0.0
C553 C 0.15017 0.82006 0.55989 0.0
N554 N 0.22997 0.03529 0.54404 0.0
N555 N 0.14638 0.71893 0.52418 0.0
H556 H 0.10899 0.78315 0.60701 0.0
H557 H 0.08957 0.70474 0.58104 0.0
H558 H 0.14528 0.69571 0.50167 0.0
H559 H 0.14422 0.68236 0.54275 0.0
H560 H 0.25594 0.07754 0.52604 0.0
H561 H 0.23839 0.06089 0.56661 0.0
H562 H 0.19267 0.02439 0.48433 0.0
H563 H 0.18694 0.95109 0.4584 0.0
loop_
_geom_bond_atom_site_label_1
_geom_bond_atom_site_label_2
_geom_bond_distance
_geom_bond_site_symmetry_2
_ccdc_geom_bond_type
Ho0 C3 2.811 . S
Ho0 O20 2.322 . S
Ho0 O22 2.378 . S
Ho0 O23 2.524 . S
Ho0 O24 2.381 . S
Ho0 O25 2.669 . S
Ho0 O27 2.346 . S
Ho0 O31 2.305 . S
Ho1 C12 2.811 1_554 S
Ho1 O21 2.346 . S
Ho1 O25 2.305 . S
Ho1 O26 2.322 1_554 S
Ho1 O28 2.378 1_554 S
Ho1 O29 2.524 1_554 S
Ho1 O30 2.381 . S
Ho1 O31 2.669 . S
C2 O20 1.259 . S
C2 O21 1.268 . S
C3 Ho0 2.811 . S
C3 C4 1.488 . S
C3 O22 1.215 . S
C3 O23 1.289 . S
C4 C3 1.488 . S
C4 C5 1.348 . S
C4 C9 1.413 . S
C5 C4 1.348 . S
C5 C6 1.442 . S
C5 H32 0.930 . S
C6 C5 1.442 . S
C6 C7 1.381 . S
C6 H33 0.931 . S
C7 C6 1.381 . S
C7 C8 1.321 . S
C8 C7 1.321 . S
C8 C9 1.403 . S
C8 H34 0.934 . S
C9 C4 1.413 . S
C9 C8 1.403 . S
C9 H35 0.930 . S
C10 O24 1.275 . S
C10 O25 1.256 . S
C11 O26 1.259 . S
C11 O27 1.268 1_556 S
C12 Ho1 2.811 1_556 S
C12 C13 1.488 . S
C12 O28 1.215 . S
C12 O29 1.289 . S
C13 C12 1.488 . S
C13 C14 1.348 . S
C13 C18 1.413 . S
C14 C13 1.348 . S
C14 C15 1.442 . S
C14 H36 0.930 . S
C15 C14 1.442 . S
C15 C16 1.381 . S
C15 H37 0.931 . S
C16 C15 1.381 . S
C16 C17 1.321 . S
C17 C16 1.321 . S
C17 C18 1.403 . S
C17 H38 0.934 . S
C18 C13 1.413 . S
C18 C17 1.403 . S
C18 H39 0.930 . S
C19 O30 1.275 . S
C19 O31 1.256 . S
O20 Ho0 2.322 . S
O20 C2 1.259 . S
O21 Ho1 2.346 . S
O21 C2 1.268 . S
O22 Ho0 2.378 . S
O22 C3 1.215 . S
O23 Ho0 2.524 . S
O23 C3 1.289 . S
O24 Ho0 2.381 . S
O24 C10 1.275 . S
O25 Ho0 2.669 . S
O25 Ho1 2.305 . S
O25 C10 1.256 . S
O26 Ho1 2.322 1_556 S
O26 C11 1.259 . S
O27 Ho0 2.346 . S
O27 C11 1.268 1_554 S
O28 Ho1 2.378 1_556 S
O28 C12 1.215 . S
O29 Ho1 2.524 1_556 S
O29 C12 1.289 . S
O30 Ho1 2.381 . S
O30 C19 1.275 . S
O31 Ho0 2.305 . S
O31 Ho1 2.669 . S
O31 C19 1.256 . S
H32 C5 0.930 . S
H33 C6 0.931 . S
H34 C8 0.934 . S
H35 C9 0.930 . S
H36 C14 0.930 . S
H37 C15 0.931 . S
H38 C17 0.934 . S
H39 C18 0.930 . S
Ho40 C43 2.811 . S
Ho40 O60 2.322 . S
Ho40 O62 2.378 . S
Ho40 O63 2.524 . S
Ho40 O64 2.381 . S
Ho40 O65 2.669 . S
Ho40 O67 2.346 . S
Ho40 O71 2.305 . S
Ho41 C52 2.811 . S
Ho41 O61 2.346 . S
Ho41 O65 2.305 . S
Ho41 O66 2.322 . S
Ho41 O68 2.378 . S
Ho41 O69 2.524 . S
Ho41 O70 2.381 . S
Ho41 O71 2.669 . S
C42 O60 1.259 . S
C42 O61 1.268 . S
C43 Ho40 2.811 . S
C43 C44 1.488 . S
C43 O62 1.215 . S
C43 O63 1.289 . S
C44 C43 1.488 . S
C44 C45 1.348 . S
C44 C49 1.413 . S
C45 C44 1.348 . S
C45 C46 1.442 . S
C45 H72 0.930 . S
C46 C45 1.442 . S
C46 C47 1.381 . S
C46 H73 0.931 . S
C47 C46 1.381 . S
C47 C48 1.321 . S
C48 C47 1.321 . S
C48 C49 1.403 . S
C48 H74 0.934 . S
C49 C44 1.413 . S
C49 C48 1.403 . S
C49 H75 0.930 . S
C50 O64 1.275 . S
C50 O65 1.256 . S
C51 O66 1.259 . S
C51 O67 1.268 . S
C52 Ho41 2.811 . S
C52 C53 1.488 . S
C52 O68 1.215 . S
C52 O69 1.289 . S
C53 C52 1.488 . S
C53 C54 1.348 1_655 S
C53 C58 1.413 . S
C54 C53 1.348 1_455 S
C54 C55 1.442 . S
C54 H76 0.930 . S
C55 C54 1.442 . S
C55 C56 1.381 . S
C55 H77 0.931 . S
C56 C55 1.381 . S
C56 C57 1.321 1_455 S
C57 C56 1.321 1_655 S
C57 C58 1.403 . S
C57 H78 0.934 . S
C58 C53 1.413 . S
C58 C57 1.403 . S
C58 H79 0.930 . S
C59 O70 1.275 . S
C59 O71 1.256 . S
O60 Ho40 2.322 . S
O60 C42 1.259 . S
O61 Ho41 2.346 . S
O61 C42 1.268 . S
O62 Ho40 2.378 . S
O62 C43 1.215 . S
O63 Ho40 2.524 . S
O63 C43 1.289 . S
O64 Ho40 2.381 . S
O64 C50 1.275 . S
O65 Ho40 2.669 . S
O65 Ho41 2.305 . S
O65 C50 1.256 . S
O66 Ho41 2.322 . S
O66 C51 1.259 . S
O67 Ho40 2.346 . S
O67 C51 1.268 . S
O68 Ho41 2.378 . S
O68 C52 1.215 . S
O69 Ho41 2.524 . S
O69 C52 1.289 . S
O70 Ho41 2.381 . S
O70 C59 1.275 . S
O71 Ho40 2.305 . S
O71 Ho41 2.669 . S
O71 C59 1.256 . S
H72 C45 0.930 . S
H73 C46 0.931 . S
H74 C48 0.934 . S
H75 C49 0.930 . S
H76 C54 0.930 . S
H77 C55 0.931 . S
H78 C57 0.934 . S
H79 C58 0.930 . S
Ho80 C83 2.811 . S
Ho80 O100 2.322 . S
Ho80 O102 2.378 . S
Ho80 O103 2.524 . S
Ho80 O104 2.381 . S
Ho80 O105 2.669 . S
Ho80 O107 2.346 . S
Ho80 O111 2.305 . S
Ho81 C92 2.811 . S
Ho81 O101 2.346 . S
Ho81 O105 2.305 . S
Ho81 O106 2.322 . S
Ho81 O108 2.378 . S
Ho81 O109 2.524 . S
Ho81 O110 2.381 . S
Ho81 O111 2.669 . S
C82 O100 1.259 . S
C82 O101 1.268 . S
C83 Ho80 2.811 . S
C83 C84 1.488 . S
C83 O102 1.215 . S
C83 O103 1.289 . S
C84 C83 1.488 . S
C84 C85 1.348 . S
C84 C89 1.413 . S
C85 C84 1.348 . S
C85 C86 1.442 . S
C85 H112 0.930 . S
C86 C85 1.442 . S
C86 C87 1.381 . S
C86 H113 0.931 . S
C87 C86 1.381 . S
C87 C88 1.321 . S
C88 C87 1.321 . S
C88 C89 1.403 . S
C88 H114 0.934 . S
C89 C84 1.413 . S
C89 C88 1.403 . S
C89 H115 0.930 . S
C90 O104 1.275 . S
C90 O105 1.256 . S
C91 O106 1.259 . S
C91 O107 1.268 . S
C92 Ho81 2.811 . S
C92 C93 1.488 . S
C92 O108 1.215 . S
C92 O109 1.289 . S
C93 C92 1.488 . S
C93 C94 1.348 1_565 S
C93 C98 1.413 . S
C94 C93 1.348 1_545 S
C94 C95 1.442 . S
C94 H116 0.930 . S
C95 C94 1.442 . S
C95 C96 1.381 . S
C95 H117 0.931 . S
C96 C95 1.381 . S
C96 C97 1.321 1_545 S
C97 C96 1.321 1_565 S
C97 C98 1.403 . S
C97 H118 0.934 . S
C98 C93 1.413 . S
C98 C97 1.403 . S
C98 H119 0.930 . S
C99 O110 1.275 . S
C99 O111 1.256 . S
O100 Ho80 2.322 . S
O100 C82 1.259 . S
O101 Ho81 2.346 . S
O101 C82 1.268 . S
O102 Ho80 2.378 . S
O102 C83 1.215 . S
O103 Ho80 2.524 . S
O103 C83 1.289 . S
O104 Ho80 2.381 . S
O104 C90 1.275 . S
O105 Ho80 2.669 . S
O105 Ho81 2.305 . S
O105 C90 1.256 . S
O106 Ho81 2.322 . S
O106 C91 1.259 . S
O107 Ho80 2.346 . S
O107 C91 1.268 . S
O108 Ho81 2.378 . S
O108 C92 1.215 . S
O109 Ho81 2.524 . S
O109 C92 1.289 . S
O110 Ho81 2.381 . S
O110 C99 1.275 . S
O111 Ho80 2.305 . S
O111 Ho81 2.669 . S
O111 C99 1.256 . S
H112 C85 0.930 . S
H113 C86 0.931 . S
H114 C88 0.934 . S
H115 C89 0.930 . S
H116 C94 0.930 . S
H117 C95 0.931 . S
H118 C97 0.934 . S
H119 C98 0.930 . S
Ho120 C123 2.811 . S
Ho120 O140 2.322 . S
Ho120 O142 2.378 . S
Ho120 O143 2.524 . S
Ho120 O144 2.381 . S
Ho120 O145 2.669 . S
Ho120 O147 2.346 . S
Ho120 O151 2.305 . S
Ho121 C132 2.811 1_554 S
Ho121 O141 2.346 . S
Ho121 O145 2.305 . S
Ho121 O146 2.322 1_554 S
Ho121 O148 2.378 1_554 S
Ho121 O149 2.524 1_554 S
Ho121 O150 2.381 . S
Ho121 O151 2.669 . S
C122 O140 1.259 . S
C122 O141 1.268 . S
C123 Ho120 2.811 . S
C123 C124 1.488 . S
C123 O142 1.215 . S
C123 O143 1.289 . S
C124 C123 1.488 . S
C124 C125 1.348 . S
C124 C129 1.413 . S
C125 C124 1.348 . S
C125 C126 1.442 . S
C125 H152 0.930 . S
C126 C125 1.442 . S
C126 C127 1.381 . S
C126 H153 0.931 . S
C127 C126 1.381 . S
C127 C128 1.321 . S
C128 C127 1.321 . S
C128 C129 1.403 . S
C128 H154 0.934 . S
C129 C124 1.413 . S
C129 C128 1.403 . S
C129 H155 0.930 . S
C130 O144 1.275 . S
C130 O145 1.256 . S
C131 O146 1.259 . S
C131 O147 1.268 1_556 S
C132 Ho121 2.811 1_556 S
C132 C133 1.488 . S
C132 O148 1.215 . S
C132 O149 1.289 . S
C133 C132 1.488 . S
C133 C134 1.348 . S
C133 C138 1.413 . S
C134 C133 1.348 . S
C134 C135 1.442 . S
C134 H156 0.930 . S
C135 C134 1.442 . S
C135 C136 1.381 . S
C135 H157 0.931 . S
C136 C135 1.381 . S
C136 C137 1.321 . S
C137 C136 1.321 . S
C137 C138 1.403 . S
C137 H158 0.934 . S
C138 C133 1.413 . S
C138 C137 1.403 . S
C138 H159 0.930 . S
C139 O150 1.275 . S
C139 O151 1.256 . S
O140 Ho120 2.322 . S
O140 C122 1.259 . S
O141 Ho121 2.346 . S
O141 C122 1.268 . S
O142 Ho120 2.378 . S
O142 C123 1.215 . S
O143 Ho120 2.524 . S
O143 C123 1.289 . S
O144 Ho120 2.381 . S
O144 C130 1.275 . S
O145 Ho120 2.669 . S
O145 Ho121 2.305 . S
O145 C130 1.256 . S
O146 Ho121 2.322 1_556 S
O146 C131 1.259 . S
O147 Ho120 2.346 . S
O147 C131 1.268 1_554 S
O148 Ho121 2.378 1_556 S
O148 C132 1.215 . S
O149 Ho121 2.524 1_556 S
O149 C132 1.289 . S
O150 Ho121 2.381 . S
O150 C139 1.275 . S
O151 Ho120 2.305 . S
O151 Ho121 2.669 . S
O151 C139 1.256 . S
H152 C125 0.930 . S
H153 C126 0.931 . S
H154 C128 0.934 . S
H155 C129 0.930 . S
H156 C134 0.930 . S
H157 C135 0.931 . S
H158 C137 0.934 . S
H159 C138 0.930 . S
Ho160 C163 2.811 . S
Ho160 O180 2.322 . S
Ho160 O182 2.378 . S
Ho160 O183 2.524 . S
Ho160 O184 2.381 . S
Ho160 O185 2.669 . S
Ho160 O187 2.346 . S
Ho160 O191 2.305 . S
Ho161 C172 2.811 . S
Ho161 O181 2.346 . S
Ho161 O185 2.305 . S
Ho161 O186 2.322 . S
Ho161 O188 2.378 . S
Ho161 O189 2.524 . S
Ho161 O190 2.381 . S
Ho161 O191 2.669 . S
C162 O180 1.259 . S
C162 O181 1.268 . S
C163 Ho160 2.811 . S
C163 C164 1.488 . S
C163 O182 1.215 . S
C163 O183 1.289 . S
C164 C163 1.488 . S
C164 C165 1.348 . S
C164 C169 1.413 . S
C165 C164 1.348 . S
C165 C166 1.442 . S
C165 H192 0.930 . S
C166 C165 1.442 . S
C166 C167 1.381 . S
C166 H193 0.931 . S
C167 C166 1.381 . S
C167 C168 1.321 . S
C168 C167 1.321 . S
C168 C169 1.403 . S
C168 H194 0.934 . S
C169 C164 1.413 . S
C169 C168 1.403 . S
C169 H195 0.930 . S
C170 O184 1.275 . S
C170 O185 1.256 . S
C171 O186 1.259 . S
C171 O187 1.268 . S
C172 Ho161 2.811 . S
C172 C173 1.488 . S
C172 O188 1.215 . S
C172 O189 1.289 . S
C173 C172 1.488 . S
C173 C174 1.348 1_455 S
C173 C178 1.413 . S
C174 C173 1.348 1_655 S
C174 C175 1.442 . S
C174 H196 0.930 . S
C175 C174 1.442 . S
C175 C176 1.381 . S
C175 H197 0.931 . S
C176 C175 1.381 . S
C176 C177 1.321 1_655 S
C177 C176 1.321 1_455 S
C177 C178 1.403 . S
C177 H198 0.934 . S
C178 C173 1.413 . S
C178 C177 1.403 . S
C178 H199 0.930 . S
C179 O190 1.275 . S
C179 O191 1.256 . S
O180 Ho160 2.322 . S
O180 C162 1.259 . S
O181 Ho161 2.346 . S
O181 C162 1.268 . S
O182 Ho160 2.378 . S
O182 C163 1.215 . S
O183 Ho160 2.524 . S
O183 C163 1.289 . S
O184 Ho160 2.381 . S
O184 C170 1.275 . S
O185 Ho160 2.669 . S
O185 Ho161 2.305 . S
O185 C170 1.256 . S
O186 Ho161 2.322 . S
O186 C171 1.259 . S
O187 Ho160 2.346 . S
O187 C171 1.268 . S
O188 Ho161 2.378 . S
O188 C172 1.215 . S
O189 Ho161 2.524 . S
O189 C172 1.289 . S
O190 Ho161 2.381 . S
O190 C179 1.275 . S
O191 Ho160 2.305 . S
O191 Ho161 2.669 . S
O191 C179 1.256 . S
H192 C165 0.930 . S
H193 C166 0.931 . S
H194 C168 0.934 . S
H195 C169 0.930 . S
H196 C174 0.930 . S
H197 C175 0.931 . S
H198 C177 0.934 . S
H199 C178 0.930 . S
Ho200 C203 2.811 . S
Ho200 O220 2.322 . S
Ho200 O222 2.378 . S
Ho200 O223 2.524 . S
Ho200 O224 2.381 . S
Ho200 O225 2.669 . S
Ho200 O227 2.346 . S
Ho200 O231 2.305 . S
Ho201 C212 2.811 . S
Ho201 O221 2.346 . S
Ho201 O225 2.305 . S
Ho201 O226 2.322 . S
Ho201 O228 2.378 . S
Ho201 O229 2.524 . S
Ho201 O230 2.381 . S
Ho201 O231 2.669 . S
C202 O220 1.259 . S
C202 O221 1.268 . S
C203 Ho200 2.811 . S
C203 C204 1.488 . S
C203 O222 1.215 . S
C203 O223 1.289 . S
C204 C203 1.488 . S
C204 C205 1.348 . S
C204 C209 1.413 . S
C205 C204 1.348 . S
C205 C206 1.442 . S
C205 H232 0.930 . S
C206 C205 1.442 . S
C206 C207 1.381 . S
C206 H233 0.931 . S
C207 C206 1.381 . S
C207 C208 1.321 . S
C208 C207 1.321 . S
C208 C209 1.403 . S
C208 H234 0.934 . S
C209 C204 1.413 . S
C209 C208 1.403 . S
C209 H235 0.930 . S
C210 O224 1.275 . S
C210 O225 1.256 . S
C211 O226 1.259 . S
C211 O227 1.268 . S
C212 Ho201 2.811 . S
C212 C213 1.488 . S
C212 O228 1.215 . S
C212 O229 1.289 . S
C213 C212 1.488 . S
C213 C214 1.348 1_545 S
C213 C218 1.413 . S
C214 C213 1.348 1_565 S
C214 C215 1.442 . S
C214 H236 0.930 . S
C215 C214 1.442 . S
C215 C216 1.381 . S
C215 H237 0.931 . S
C216 C215 1.381 . S
C216 C217 1.321 1_565 S
C217 C216 1.321 1_545 S
C217 C218 1.403 . S
C217 H238 0.934 . S
C218 C213 1.413 . S
C218 C217 1.403 . S
C218 H239 0.930 . S
C219 O230 1.275 . S
C219 O231 1.256 . S
O220 Ho200 2.322 . S
O220 C202 1.259 . S
O221 Ho201 2.346 . S
O221 C202 1.268 . S
O222 Ho200 2.378 . S
O222 C203 1.215 . S
O223 Ho200 2.524 . S
O223 C203 1.289 . S
O224 Ho200 2.381 . S
O224 C210 1.275 . S
O225 Ho200 2.669 . S
O225 Ho201 2.305 . S
O225 C210 1.256 . S
O226 Ho201 2.322 . S
O226 C211 1.259 . S
O227 Ho200 2.346 . S
O227 C211 1.268 . S
O228 Ho201 2.378 . S
O228 C212 1.215 . S
O229 Ho201 2.524 . S
O229 C212 1.289 . S
O230 Ho201 2.381 . S
O230 C219 1.275 . S
O231 Ho200 2.305 . S
O231 Ho201 2.669 . S
O231 C219 1.256 . S
H232 C205 0.930 . S
H233 C206 0.931 . S
H234 C208 0.934 . S
H235 C209 0.930 . S
H236 C214 0.930 . S
H237 C215 0.931 . S
H238 C217 0.934 . S
H239 C218 0.930 . S
C240 C241 1.363 . S
C240 C246 1.379 . S
C240 N248 1.356 . S
C241 C240 1.363 . S
C241 C247 1.363 . S
C242 C243 1.363 . S
C242 C247 1.379 . S
C242 N249 1.356 . S
C243 C242 1.363 . S
C243 C246 1.363 . S
N244 C246 1.356 . S
N244 H256 0.984 . S
N244 H257 0.985 . S
N245 C247 1.356 . S
N245 H250 0.984 . S
N245 H251 0.985 . S
C246 C240 1.379 . S
C246 C243 1.363 . S
C246 N244 1.356 . S
C247 C241 1.363 . S
C247 C242 1.379 . S
C247 N245 1.356 . S
N248 C240 1.356 . S
N248 H254 0.984 . S
N248 H255 0.984 . S
N249 C242 1.356 . S
N249 H252 0.984 . S
N249 H253 0.985 . S
H250 N245 0.984 . S
H251 N245 0.985 . S
H252 N249 0.984 . S
H253 N249 0.985 . S
H254 N248 0.984 . S
H255 N248 0.984 . S
H256 N244 0.984 . S
H257 N244 0.985 . S
C258 C259 1.363 . S
C258 C264 1.379 . S
C258 N266 1.356 . S
C259 C258 1.363 . S
C259 C265 1.363 . S
C260 C261 1.363 . S
C260 C265 1.379 . S
C260 N267 1.356 . S
C261 C260 1.363 . S
C261 C264 1.363 . S
N262 C264 1.356 . S
N262 H274 0.984 . S
N262 H275 0.985 . S
N263 C265 1.356 . S
N263 H268 0.984 . S
N263 H269 0.985 . S
C264 C258 1.379 . S
C264 C261 1.363 . S
C264 N262 1.356 . S
C265 C259 1.363 . S
C265 C260 1.379 . S
C265 N263 1.356 . S
N266 C258 1.356 . S
N266 H272 0.984 . S
N266 H273 0.984 . S
N267 C260 1.356 . S
N267 H270 0.984 . S
N267 H271 0.985 . S
H268 N263 0.984 . S
H269 N263 0.985 . S
H270 N267 0.984 . S
H271 N267 0.985 . S
H272 N266 0.984 . S
H273 N266 0.984 . S
H274 N262 0.984 . S
H275 N262 0.985 . S
C276 C277 1.363 . S
C276 C282 1.379 . S
C276 N284 1.356 . S
C277 C276 1.363 . S
C277 C283 1.363 . S
C278 C279 1.363 . S
C278 C283 1.379 . S
C278 N285 1.356 . S
C279 C278 1.363 . S
C279 C282 1.363 . S
N280 C282 1.356 . S
N280 H292 0.984 . S
N280 H293 0.985 . S
N281 C283 1.356 . S
N281 H286 0.984 . S
N281 H287 0.985 . S
C282 C276 1.379 . S
C282 C279 1.363 . S
C282 N280 1.356 . S
C283 C277 1.363 . S
C283 C278 1.379 . S
C283 N281 1.356 . S
N284 C276 1.356 . S
N284 H290 0.984 . S
N284 H291 0.984 1_556 S
N285 C278 1.356 . S
N285 H288 0.984 . S
N285 H289 0.985 . S
H286 N281 0.984 . S
H287 N281 0.985 . S
H288 N285 0.984 . S
H289 N285 0.985 . S
H290 N284 0.984 . S
H291 N284 0.984 1_554 S
H292 N280 0.984 . S
H293 N280 0.985 . S
C294 C295 1.363 . S
C294 C300 1.379 . S
C294 N302 1.356 . S
C295 C294 1.363 . S
C295 C301 1.363 . S
C296 C297 1.363 . S
C296 C301 1.379 . S
C296 N303 1.356 . S
C297 C296 1.363 . S
C297 C300 1.363 . S
N298 C300 1.356 . S
N298 H310 0.984 . S
N298 H311 0.985 . S
N299 C301 1.356 . S
N299 H304 0.984 . S
N299 H305 0.985 . S
C300 C294 1.379 . S
C300 C297 1.363 . S
C300 N298 1.356 . S
C301 C295 1.363 . S
C301 C296 1.379 . S
C301 N299 1.356 . S
N302 C294 1.356 . S
N302 H308 0.984 . S
N302 H309 0.984 . S
N303 C296 1.356 . S
N303 H306 0.984 . S
N303 H307 0.985 . S
H304 N299 0.984 . S
H305 N299 0.985 . S
H306 N303 0.984 . S
H307 N303 0.985 . S
H308 N302 0.984 . S
H309 N302 0.984 . S
H310 N298 0.984 . S
H311 N298 0.985 . S
C312 C313 1.363 . S
C312 C318 1.379 . S
C312 N320 1.356 . S
C313 C312 1.363 . S
C313 C319 1.363 . S
C314 C315 1.363 . S
C314 C319 1.379 . S
C314 N321 1.356 . S
C315 C314 1.363 . S
C315 C318 1.363 . S
N316 C318 1.356 . S
N316 H328 0.984 . S
N316 H329 0.985 . S
N317 C319 1.356 . S
N317 H322 0.984 . S
N317 H323 0.985 . S
C318 C312 1.379 . S
C318 C315 1.363 . S
C318 N316 1.356 . S
C319 C313 1.363 . S
C319 C314 1.379 . S
C319 N317 1.356 . S
N320 C312 1.356 . S
N320 H326 0.984 . S
N320 H327 0.984 . S
N321 C314 1.356 . S
N321 H324 0.984 . S
N321 H325 0.985 . S
H322 N317 0.984 . S
H323 N317 0.985 . S
H324 N321 0.984 . S
H325 N321 0.985 . S
H326 N320 0.984 . S
H327 N320 0.984 . S
H328 N316 0.984 . S
H329 N316 0.985 . S
C330 C331 1.363 . S
C330 C336 1.379 . S
C330 N338 1.356 . S
C331 C330 1.363 . S
C331 C337 1.363 . S
C332 C333 1.363 . S
C332 C337 1.379 . S
C332 N339 1.356 . S
C333 C332 1.363 . S
C333 C336 1.363 . S
N334 C336 1.356 . S
N334 H346 0.984 . S
N334 H347 0.985 . S
N335 C337 1.356 . S
N335 H340 0.984 . S
N335 H341 0.985 . S
C336 C330 1.379 . S
C336 C333 1.363 . S
C336 N334 1.356 . S
C337 C331 1.363 . S
C337 C332 1.379 . S
C337 N335 1.356 . S
N338 C330 1.356 . S
N338 H344 0.984 . S
N338 H345 0.984 . S
N339 C332 1.356 . S
N339 H342 0.984 . S
N339 H343 0.985 . S
H340 N335 0.984 . S
H341 N335 0.985 . S
H342 N339 0.984 . S
H343 N339 0.985 . S
H344 N338 0.984 . S
H345 N338 0.984 . S
H346 N334 0.984 . S
H347 N334 0.985 . S
C348 C349 1.363 . S
C348 C354 1.379 . S
C348 N356 1.356 . S
C349 C348 1.363 . S
C349 C355 1.363 . S
C350 C351 1.363 . S
C350 C355 1.379 . S
C350 N357 1.356 . S
C351 C350 1.363 . S
C351 C354 1.363 . S
N352 C354 1.356 . S
N352 H364 0.984 1_554 S
N352 H365 0.985 . S
N353 C355 1.356 . S
N353 H358 0.984 . S
N353 H359 0.985 . S
C354 C348 1.379 . S
C354 C351 1.363 . S
C354 N352 1.356 . S
C355 C349 1.363 . S
C355 C350 1.379 . S
C355 N353 1.356 . S
N356 C348 1.356 . S
N356 H362 0.984 1_554 S
N356 H363 0.984 . S
N357 C350 1.356 . S
N357 H360 0.984 . S
N357 H361 0.985 . S
H358 N353 0.984 . S
H359 N353 0.985 . S
H360 N357 0.984 . S
H361 N357 0.985 . S
H362 N356 0.984 1_556 S
H363 N356 0.984 . S
H364 N352 0.984 1_556 S
H365 N352 0.985 . S
C366 C367 1.363 . S
C366 C372 1.379 . S
C366 N374 1.356 . S
C367 C366 1.363 . S
C367 C373 1.363 1_455 S
C368 C369 1.363 . S
C368 C373 1.379 . S
C368 N375 1.356 . S
C369 C368 1.363 . S
C369 C372 1.363 1_655 S
N370 C372 1.356 . S
N370 H382 0.984 . S
N370 H383 0.985 . S
N371 C373 1.356 . S
N371 H376 0.984 . S
N371 H377 0.985 . S
C372 C366 1.379 . S
C372 C369 1.363 1_455 S
C372 N370 1.356 . S
C373 C367 1.363 1_655 S
C373 C368 1.379 . S
C373 N371 1.356 . S
N374 C366 1.356 . S
N374 H380 0.984 . S
N374 H381 0.984 . S
N375 C368 1.356 . S
N375 H378 0.984 . S
N375 H379 0.985 . S
H376 N371 0.984 . S
H377 N371 0.985 . S
H378 N375 0.984 . S
H379 N375 0.985 . S
H380 N374 0.984 . S
H381 N374 0.984 . S
H382 N370 0.984 . S
H383 N370 0.985 . S
C384 C385 1.363 1_565 S
C384 C390 1.379 . S
C384 N392 1.356 . S
C385 C384 1.363 1_545 S
C385 C391 1.363 . S
C386 C387 1.363 1_545 S
C386 C391 1.379 . S
C386 N393 1.356 . S
C387 C386 1.363 1_565 S
C387 C390 1.363 . S
N388 C390 1.356 . S
N388 H400 0.984 . S
N388 H401 0.985 . S
N389 C391 1.356 . S
N389 H394 0.984 . S
N389 H395 0.985 . S
C390 C384 1.379 . S
C390 C387 1.363 . S
C390 N388 1.356 . S
C391 C385 1.363 . S
C391 C386 1.379 . S
C391 N389 1.356 . S
N392 C384 1.356 . S
N392 H398 0.984 . S
N392 H399 0.984 . S
N393 C386 1.356 . S
N393 H396 0.984 . S
N393 H397 0.985 . S
H394 N389 0.984 . S
H395 N389 0.985 . S
H396 N393 0.984 . S
H397 N393 0.985 . S
H398 N392 0.984 . S
H399 N392 0.984 . S
H400 N388 0.984 . S
H401 N388 0.985 . S
C402 C403 1.363 . S
C402 C408 1.379 . S
C402 N410 1.356 . S
C403 C402 1.363 . S
C403 C409 1.363 . S
C404 C405 1.363 . S
C404 C409 1.379 . S
C404 N411 1.356 . S
C405 C404 1.363 . S
C405 C408 1.363 . S
N406 C408 1.356 . S
N406 H418 0.984 . S
N406 H419 0.985 . S
N407 C409 1.356 . S
N407 H412 0.984 . S
N407 H413 0.985 . S
C408 C402 1.379 . S
C408 C405 1.363 . S
C408 N406 1.356 . S
C409 C403 1.363 . S
C409 C404 1.379 . S
C409 N407 1.356 . S
N410 C402 1.356 . S
N410 H416 0.984 . S
N410 H417 0.984 . S
N411 C404 1.356 . S
N411 H414 0.984 . S
N411 H415 0.985 . S
H412 N407 0.984 . S
H413 N407 0.985 . S
H414 N411 0.984 . S
H415 N411 0.985 . S
H416 N410 0.984 . S
H417 N410 0.984 . S
H418 N406 0.984 . S
H419 N406 0.985 . S
C420 C421 1.363 . S
C420 C426 1.379 . S
C420 N428 1.356 1_554 S
C421 C420 1.363 . S
C421 C427 1.363 1_455 S
C422 C423 1.363 . S
C422 C427 1.379 . S
C422 N429 1.356 . S
C423 C422 1.363 . S
C423 C426 1.363 1_655 S
N424 C426 1.356 1_556 S
N424 H436 0.984 . S
N424 H437 0.985 1_556 S
N425 C427 1.356 . S
N425 H430 0.984 . S
N425 H431 0.985 . S
C426 C420 1.379 . S
C426 C423 1.363 1_455 S
C426 N424 1.356 1_554 S
C427 C421 1.363 1_655 S
C427 C422 1.379 . S
C427 N425 1.356 . S
N428 C420 1.356 1_556 S
N428 H434 0.984 . S
N428 H435 0.984 1_556 S
N429 C422 1.356 . S
N429 H432 0.984 . S
N429 H433 0.985 . S
H430 N425 0.984 . S
H431 N425 0.985 . S
H432 N429 0.984 . S
H433 N429 0.985 . S
H434 N428 0.984 . S
H435 N428 0.984 1_554 S
H436 N424 0.984 . S
H437 N424 0.985 1_554 S
C438 C439 1.363 1_545 S
C438 C444 1.379 . S
C438 N446 1.356 . S
C439 C438 1.363 1_565 S
C439 C445 1.363 . S
C440 C441 1.363 1_565 S
C440 C445 1.379 . S
C440 N447 1.356 . S
C441 C440 1.363 1_545 S
C441 C444 1.363 . S
N442 C444 1.356 . S
N442 H454 0.984 . S
N442 H455 0.985 . S
N443 C445 1.356 . S
N443 H448 0.984 . S
N443 H449 0.985 . S
C444 C438 1.379 . S
C444 C441 1.363 . S
C444 N442 1.356 . S
C445 C439 1.363 . S
C445 C440 1.379 . S
C445 N443 1.356 . S
N446 C438 1.356 . S
N446 H452 0.984 . S
N446 H453 0.984 . S
N447 C440 1.356 . S
N447 H450 0.984 . S
N447 H451 0.985 . S
H448 N443 0.984 . S
H449 N443 0.985 . S
H450 N447 0.984 . S
H451 N447 0.985 . S
H452 N446 0.984 . S
H453 N446 0.984 . S
H454 N442 0.984 . S
H455 N442 0.985 . S
C456 C457 1.363 . S
C456 C462 1.379 . S
C456 N464 1.356 . S
C457 C456 1.363 . S
C457 C463 1.363 . S
C458 C459 1.363 . S
C458 C463 1.379 . S
C458 N465 1.356 . S
C459 C458 1.363 . S
C459 C462 1.363 . S
N460 C462 1.356 . S
N460 H472 0.984 . S
N460 H473 0.985 . S
N461 C463 1.356 . S
N461 H466 0.984 . S
N461 H467 0.985 . S
C462 C456 1.379 . S
C462 C459 1.363 . S
C462 N460 1.356 . S
C463 C457 1.363 . S
C463 C458 1.379 . S
C463 N461 1.356 . S
N464 C456 1.356 . S
N464 H470 0.984 . S
N464 H471 0.984 . S
N465 C458 1.356 . S
N465 H468 0.984 . S
N465 H469 0.985 . S
H466 N461 0.984 . S
H467 N461 0.985 . S
H468 N465 0.984 . S
H469 N465 0.985 . S
H470 N464 0.984 . S
H471 N464 0.984 . S
H472 N460 0.984 . S
H473 N460 0.985 . S
C474 C475 1.363 . S
C474 C480 1.379 . S
C474 N482 1.356 . S
C475 C474 1.363 . S
C475 C481 1.363 . S
C476 C477 1.363 . S
C476 C481 1.379 . S
C476 N483 1.356 . S
C477 C476 1.363 . S
C477 C480 1.363 . S
N478 C480 1.356 . S
N478 H490 0.984 . S
N478 H491 0.985 . S
N479 C481 1.356 . S
N479 H484 0.984 . S
N479 H485 0.985 . S
C480 C474 1.379 . S
C480 C477 1.363 . S
C480 N478 1.356 . S
C481 C475 1.363 . S
C481 C476 1.379 . S
C481 N479 1.356 . S
N482 C474 1.356 . S
N482 H488 0.984 . S
N482 H489 0.984 . S
N483 C476 1.356 . S
N483 H486 0.984 . S
N483 H487 0.985 . S
H484 N479 0.984 . S
H485 N479 0.985 . S
H486 N483 0.984 . S
H487 N483 0.985 . S
H488 N482 0.984 . S
H489 N482 0.984 . S
H490 N478 0.984 . S
H491 N478 0.985 . S
C492 C493 1.363 . S
C492 C498 1.379 . S
C492 N500 1.356 . S
C493 C492 1.363 . S
C493 C499 1.363 . S
C494 C495 1.363 . S
C494 C499 1.379 . S
C494 N501 1.356 . S
C495 C494 1.363 . S
C495 C498 1.363 . S
N496 C498 1.356 . S
N496 H508 0.984 . S
N496 H509 0.985 . S
N497 C499 1.356 1_565 S
N497 H502 0.984 . S
N497 H503 0.985 . S
C498 C492 1.379 . S
C498 C495 1.363 . S
C498 N496 1.356 . S
C499 C493 1.363 . S
C499 C494 1.379 . S
C499 N497 1.356 1_545 S
N500 C492 1.356 . S
N500 H506 0.984 . S
N500 H507 0.984 . S
N501 C494 1.356 . S
N501 H504 0.984 . S
N501 H505 0.985 1_545 S
H502 N497 0.984 . S
H503 N497 0.985 . S
H504 N501 0.984 . S
H505 N501 0.985 1_565 S
H506 N500 0.984 . S
H507 N500 0.984 . S
H508 N496 0.984 . S
H509 N496 0.985 . S
C510 C511 1.363 . S
C510 C516 1.379 . S
C510 N518 1.356 . S
C511 C510 1.363 . S
C511 C517 1.363 . S
C512 C513 1.363 . S
C512 C517 1.379 . S
C512 N519 1.356 . S
C513 C512 1.363 . S
C513 C516 1.363 . S
N514 C516 1.356 . S
N514 H526 0.984 . S
N514 H527 0.985 . S
N515 C517 1.356 . S
N515 H520 0.984 . S
N515 H521 0.985 . S
C516 C510 1.379 . S
C516 C513 1.363 . S
C516 N514 1.356 . S
C517 C511 1.363 . S
C517 C512 1.379 . S
C517 N515 1.356 . S
N518 C510 1.356 . S
N518 H524 0.984 . S
N518 H525 0.984 . S
N519 C512 1.356 . S
N519 H522 0.984 . S
N519 H523 0.985 . S
H520 N515 0.984 . S
H521 N515 0.985 . S
H522 N519 0.984 . S
H523 N519 0.985 . S
H524 N518 0.984 . S
H525 N518 0.984 . S
H526 N514 0.984 . S
H527 N514 0.985 . S
C528 C529 1.363 . S
C528 C534 1.379 . S
C528 N536 1.356 . S
C529 C528 1.363 . S
C529 C535 1.363 . S
C530 C531 1.363 . S
C530 C535 1.379 . S
C530 N537 1.356 . S
C531 C530 1.363 . S
C531 C534 1.363 . S
N532 C534 1.356 . S
N532 H544 0.984 . S
N532 H545 0.985 . S
N533 C535 1.356 1_455 S
N533 H538 0.984 . S
N533 H539 0.985 . S
C534 C528 1.379 . S
C534 C531 1.363 . S
C534 N532 1.356 . S
C535 C529 1.363 . S
C535 C530 1.379 . S
C535 N533 1.356 1_655 S
N536 C528 1.356 . S
N536 H542 0.984 . S
N536 H543 0.984 . S
N537 C530 1.356 . S
N537 H540 0.984 . S
N537 H541 0.985 . S
H538 N533 0.984 . S
H539 N533 0.985 . S
H540 N537 0.984 . S
H541 N537 0.985 . S
H542 N536 0.984 . S
H543 N536 0.984 . S
H544 N532 0.984 . S
H545 N532 0.985 . S
C546 C547 1.363 1_545 S
C546 C552 1.379 1_545 S
C546 N554 1.356 . S
C547 C546 1.363 1_565 S
C547 C553 1.363 . S
C548 C549 1.363 . S
C548 C553 1.379 . S
C548 N555 1.356 . S
C549 C548 1.363 . S
C549 C552 1.363 . S
N550 C552 1.356 1_545 S
N550 H562 0.984 . S
N550 H563 0.985 1_545 S
N551 C553 1.356 . S
N551 H556 0.984 . S
N551 H557 0.985 . S
C552 C546 1.379 1_565 S
C552 C549 1.363 . S
C552 N550 1.356 1_565 S
C553 C547 1.363 . S
C553 C548 1.379 . S
C553 N551 1.356 . S
N554 C546 1.356 . S
N554 H560 0.984 . S
N554 H561 0.984 . S
N555 C548 1.356 . S
N555 H558 0.984 . S
N555 H559 0.985 . S
H556 N551 0.984 . S
H557 N551 0.985 . S
H558 N555 0.984 . S
H559 N555 0.985 . S
H560 N554 0.984 . S
H561 N554 0.984 . S
H562 N550 0.984 . S
H563 N550 0.985 1_565 S
C241 C171 1.234 . S
C243 C7 1.243 . S
C259 C211 1.234 . S
C261 C47 1.243 . S
C277 C11 1.234 . S
C279 C87 1.243 . S
C295 C51 1.234 . S
C297 C127 1.243 . S
C313 C91 1.234 . S
C315 C167 1.243 . S
C331 C131 1.234 . S
C333 C207 1.243 . S
C349 C10 1.267 . S
C351 C130 1.267 . S
C367 C170 1.269 . S
C369 C50 1.269 . S
C385 C210 1.267 . S
C387 C90 1.267 . S
C403 C99 1.505 . S
C405 C219 1.505 . S
C421 C19 1.504 . S
C423 C139 1.504 . S
C439 C179 1.505 . S
C441 C59 1.505 . S
C457 C202 1.436 . S
C459 C16 1.386 . S
C475 C56 1.387 . S
C477 C2 1.437 . S
C493 C96 1.386 . S
C495 C42 1.437 . S
C511 C82 1.437 . S
C513 C136 1.386 . S
C529 C176 1.386 . S
C531 C122 1.437 . S
C547 C216 1.386 . S
C549 C162 1.437 . S
