# Generated by pormake.
# Topology wko, (6)-cn, num edge types: 1
# Building blocks:
#     Node 0, Type 0, BuildingBlock: IZENUY_clean_sbu_0, # of connection points: 6
#     Node 1, Type 0, BuildingBlock: IZENUY_clean_sbu_0, # of connection points: 6
#     Node 2, Type 0, BuildingBlock: IZENUY_clean_sbu_0, # of connection points: 6
#     Node 3, Type 0, BuildingBlock: IZENUY_clean_sbu_0, # of connection points: 6
#     Node 4, Type 0, BuildingBlock: IZENUY_clean_sbu_0, # of connection points: 6
#     Node 5, Type 0, BuildingBlock: IZENUY_clean_sbu_0, # of connection points: 6
#     Node 6, Type 0, BuildingBlock: IZENUY_clean_sbu_0, # of connection points: 6
#     Node 7, Type 0, BuildingBlock: IZENUY_clean_sbu_0, # of connection points: 6
#     Node 8, Type 0, BuildingBlock: IZENUY_clean_sbu_0, # of connection points: 6
#     Node 9, Type 0, BuildingBlock: IZENUY_clean_sbu_0, # of connection points: 6
#     Node 10, Type 0, BuildingBlock: IZENUY_clean_sbu_0, # of connection points: 6
#     Node 11, Type 0, BuildingBlock: IZENUY_clean_sbu_0, # of connection points: 6
#     Edge 12, Type (0, 0), BuildingBlock: KIFKEQ_clean_linker_1, # of connection points: 2
#     Edge 13, Type (0, 0), BuildingBlock: KIFKEQ_clean_linker_1, # of connection points: 2
#     Edge 14, Type (0, 0), BuildingBlock: KIFKEQ_clean_linker_1, # of connection points: 2
#     Edge 15, Type (0, 0), BuildingBlock: KIFKEQ_clean_linker_1, # of connection points: 2
#     Edge 16, Type (0, 0), BuildingBlock: KIFKEQ_clean_linker_1, # of connection points: 2
#     Edge 17, Type (0, 0), BuildingBlock: KIFKEQ_clean_linker_1, # of connection points: 2
#     Edge 18, Type (0, 0), BuildingBlock: KIFKEQ_clean_linker_1, # of connection points: 2
#     Edge 19, Type (0, 0), BuildingBlock: KIFKEQ_clean_linker_1, # of connection points: 2
#     Edge 20, Type (0, 0), BuildingBlock: KIFKEQ_clean_linker_1, # of connection points: 2
#     Edge 21, Type (0, 0), BuildingBlock: KIFKEQ_clean_linker_1, # of connection points: 2
#     Edge 22, Type (0, 0), BuildingBlock: KIFKEQ_clean_linker_1, # of connection points: 2
#     Edge 23, Type (0, 0), BuildingBlock: KIFKEQ_clean_linker_1, # of connection points: 2
#     Edge 24, Type (0, 0), BuildingBlock: KIFKEQ_clean_linker_1, # of connection points: 2
#     Edge 25, Type (0, 0), BuildingBlock: KIFKEQ_clean_linker_1, # of connection points: 2
#     Edge 26, Type (0, 0), BuildingBlock: KIFKEQ_clean_linker_1, # of connection points: 2
#     Edge 27, Type (0, 0), BuildingBlock: KIFKEQ_clean_linker_1, # of connection points: 2
#     Edge 28, Type (0, 0), BuildingBlock: KIFKEQ_clean_linker_1, # of connection points: 2
#     Edge 29, Type (0, 0), BuildingBlock: KIFKEQ_clean_linker_1, # of connection points: 2
#     Edge 30, Type (0, 0), BuildingBlock: KIFKEQ_clean_linker_1, # of connection points: 2
#     Edge 31, Type (0, 0), BuildingBlock: KIFKEQ_clean_linker_1, # of connection points: 2
#     Edge 32, Type (0, 0), BuildingBlock: KIFKEQ_clean_linker_1, # of connection points: 2
#     Edge 33, Type (0, 0), BuildingBlock: KIFKEQ_clean_linker_1, # of connection points: 2
#     Edge 34, Type (0, 0), BuildingBlock: KIFKEQ_clean_linker_1, # of connection points: 2
#     Edge 35, Type (0, 0), BuildingBlock: KIFKEQ_clean_linker_1, # of connection points: 2
#     Edge 36, Type (0, 0), BuildingBlock: KIFKEQ_clean_linker_1, # of connection points: 2
#     Edge 37, Type (0, 0), BuildingBlock: KIFKEQ_clean_linker_1, # of connection points: 2
#     Edge 38, Type (0, 0), BuildingBlock: KIFKEQ_clean_linker_1, # of connection points: 2
#     Edge 39, Type (0, 0), BuildingBlock: KIFKEQ_clean_linker_1, # of connection points: 2
#     Edge 40, Type (0, 0), BuildingBlock: KIFKEQ_clean_linker_1, # of connection points: 2
#     Edge 41, Type (0, 0), BuildingBlock: KIFKEQ_clean_linker_1, # of connection points: 2
#     Edge 42, Type (0, 0), BuildingBlock: KIFKEQ_clean_linker_1, # of connection points: 2
#     Edge 43, Type (0, 0), BuildingBlock: KIFKEQ_clean_linker_1, # of connection points: 2
#     Edge 44, Type (0, 0), BuildingBlock: KIFKEQ_clean_linker_1, # of connection points: 2
#     Edge 45, Type (0, 0), BuildingBlock: KIFKEQ_clean_linker_1, # of connection points: 2
#     Edge 46, Type (0, 0), BuildingBlock: KIFKEQ_clean_linker_1, # of connection points: 2
#     Edge 47, Type (0, 0), BuildingBlock: KIFKEQ_clean_linker_1, # of connection points: 2
# Relax obj value: 0.320
# Max RMSD: 0.278
# Mean RMSD: 0.278
data_MOF--net-wko--node1-IZENUY_clean_sbu_0--edge1-KIFKEQ_clean_linker_1
_symmetry_space_group_name_H-M    P1
_symmetry_Int_Tables_number       1
_symmetry_cell_setting            triclinic
loop_
_symmetry_equiv_pos_as_xyz
'x, y, z'
_cell_length_a     45.526533
_cell_length_b     45.52822
_cell_length_c     30.058814
_cell_angle_alpha  90.136869
_cell_angle_beta   89.849767
_cell_angle_gamma 119.92775
loop_
_atom_site_label
_atom_site_type_symbol
_atom_site_fract_x
_atom_site_fract_y
_atom_site_fract_z
_atom_type_partial_charge
Fe0 Fe 0.38148 0.35436 0.40599 0.0
Fe1 Fe 0.35588 0.28364 0.44527 0.0
O2 O 0.38437 0.31691 0.40985 0.0
Fe3 Fe 0.41618 0.31371 0.37921 0.0
O4 O 0.45025 0.35257 0.40345 0.0
O5 O 0.42622 0.38315 0.39283 0.0
O6 O 0.39214 0.36384 0.46455 0.0
C7 C 0.37638 0.34312 0.49558 0.0
C8 C 0.38887 0.34213 0.319 0.0
O9 O 0.35491 0.3124 0.48728 0.0
C10 C 0.36306 0.24802 0.37089 0.0
O11 O 0.33606 0.33376 0.41818 0.0
O12 O 0.31849 0.2794 0.41727 0.0
O13 O 0.41221 0.33603 0.33047 0.0
O14 O 0.37091 0.34632 0.34768 0.0
C15 C 0.41641 0.28576 0.46329 0.0
O16 O 0.35269 0.24901 0.40979 0.0
O17 O 0.38565 0.27456 0.35228 0.0
C18 C 0.31232 0.30346 0.41487 0.0
O19 O 0.39023 0.2856 0.47696 0.0
O20 O 0.42494 0.29063 0.42267 0.0
C21 C 0.45234 0.38116 0.40097 0.0
Fe22 Fe 0.12354 0.4024 0.53951 0.0
Fe23 Fe 0.04912 0.37035 0.56905 0.0
O24 O 0.08883 0.37194 0.57175 0.0
Fe25 Fe 0.09357 0.34352 0.60721 0.0
O26 O 0.12711 0.3781 0.63759 0.0
O27 O 0.15627 0.40972 0.58087 0.0
O28 O 0.12133 0.43772 0.56467 0.0
C29 C 0.09528 0.44074 0.56443 0.0
C30 C 0.13285 0.34743 0.53057 0.0
O31 O 0.06653 0.41539 0.55641 0.0
C32 C 1.02935 0.30074 0.57875 0.0
O33 O 0.0967 0.39994 0.49235 0.0
O34 O 0.04536 0.35932 0.51071 0.0
O35 O 0.12358 0.33888 0.57057 0.0
O36 O 0.12894 0.37001 0.51181 0.0
C37 C 0.0562 0.36552 0.65837 0.0
O38 O 1.02352 0.32505 0.58144 0.0
O39 O 0.05933 0.30612 0.58065 0.0
C40 C 0.06707 0.37693 0.48154 0.0
O41 O 0.0512 0.38132 0.62755 0.0
O42 O 0.06516 0.34384 0.65004 0.0
C43 C 0.15341 0.4028 0.62192 0.0
Fe44 Fe 0.69986 0.04178 0.73831 0.0
Fe45 Fe 0.77044 0.08805 0.77784 0.0
O46 O 0.73741 0.08205 0.74107 0.0
Fe47 Fe 0.74111 0.11607 0.70784 0.0
O48 O 0.70254 0.11284 0.73123 0.0
O49 O 0.67153 0.05789 0.72352 0.0
O50 O 0.69017 0.04434 0.7965 0.0
C51 C 0.71067 0.05021 0.82808 0.0
C52 C 0.71206 0.05867 0.65048 0.0
O53 O 0.7416 0.05988 0.82077 0.0
C54 C 0.80613 0.12687 0.70127 0.0
O55 O 0.72046 1.01729 0.75224 0.0
O56 O 0.77494 0.05406 0.75272 0.0
O57 O 0.7185 0.08847 0.66028 0.0
O58 O 0.70754 0.03727 0.68029 0.0
C59 C 0.76895 0.14729 0.79044 0.0
O60 O 0.8052 0.11801 0.74146 0.0
O61 O 0.77976 0.12251 0.6818 0.0
C62 C 0.75087 0.0239 0.75001 0.0
O63 O 0.76819 0.12156 0.8068 0.0
O64 O 0.7649 0.14952 0.74925 0.0
C65 C 0.67385 0.08639 0.72975 0.0
Fe66 Fe 0.70775 0.76853 0.93857 0.0
Fe67 Fe 0.64939 0.73517 0.87187 0.0
O68 O 0.68081 0.73332 0.90478 0.0
Fe69 Fe 0.68471 0.69649 0.90426 0.0
O70 O 0.69502 0.69874 0.96376 0.0
O71 O 0.69284 0.74326 0.98845 0.0
O72 O 0.67565 0.78075 0.94933 0.0
C73 C 0.64372 0.76225 0.94996 0.0
C74 C 0.75187 0.7439 0.91164 0.0
O75 O 0.62853 0.73942 0.92118 0.0
C76 C 0.67451 0.70705 0.81345 0.0
O77 O 0.72441 0.79648 0.89039 0.0
O78 O 0.67401 0.78124 0.86355 0.0
O79 O 0.72931 0.72007 0.88878 0.0
O80 O 0.74439 0.76205 0.93572 0.0
C81 C 0.61534 0.66679 0.90001 0.0
O82 O 0.66841 0.73076 0.82133 0.0
O83 O 0.675 0.68839 0.84451 0.0
C84 C 0.70565 0.80181 0.86461 0.0
O85 O 0.61873 0.68957 0.87315 0.0
O86 O 0.64068 0.66944 0.92041 0.0
C87 C 0.69251 0.7158 -0.00452 0.0
Fe88 Fe 1.00877 0.67097 0.0756 0.0
Fe89 Fe 0.9583 0.69255 0.10894 0.0
O90 O 0.96784 0.66648 0.07497 0.0
Fe91 Fe 0.93558 0.63539 0.04089 0.0
O92 O 0.95113 0.6051 0.04173 0.0
O93 O 0.99239 0.62672 0.09015 0.0
O94 O 1.01493 0.67985 0.13558 0.0
C95 C 0.99394 0.67518 0.16644 0.0
C96 C 0.98986 0.66239 0.9842 0.0
O97 O 0.96712 0.67609 0.15884 0.0
C98 C 0.92484 0.6915 0.0335 0.0
O99 O 1.02938 0.71583 0.06178 0.0
O100 O 1.00153 0.72942 0.10916 0.0
O101 O 0.95971 0.65537 -0.00861 0.0
O102 O 1.00874 0.66262 0.01546 0.0
C103 C 0.90003 0.62845 0.11655 0.0
O104 O 0.94829 0.71014 0.06035 0.0
O105 O 0.91394 0.65985 0.03222 0.0
C106 C 1.0276 0.73772 0.08562 0.0
O107 O 0.91357 0.66039 0.11674 0.0
O108 O 0.90975 0.61377 0.08952 0.0
C109 C 0.97073 0.60174 0.06821 0.0
Fe110 Fe 0.32116 0.92459 0.20923 0.0
Fe111 Fe 0.35985 0.99827 0.24348 0.0
O112 O 0.32293 0.95761 0.24264 0.0
Fe113 Fe 0.28737 0.94902 0.27625 0.0
O114 O 0.27333 0.90407 0.2838 0.0
O115 O 0.31539 0.8985 0.25809 0.0
O116 O 0.36652 0.93844 0.21167 0.0
C117 C 0.38984 0.95858 0.23733 0.0
C118 C 0.25472 0.91574 0.20076 0.0
O119 O 0.3873 0.98137 0.25774 0.0
C120 C 0.3134 1.01887 0.25416 0.0
O121 O 0.32706 0.9486 0.15919 0.0
O122 O 0.36798 0.99819 0.18344 0.0
O123 O 0.26005 0.93961 0.22741 0.0
O124 O 0.27526 0.90449 0.1992 0.0
C125 C 0.34053 0.98317 0.33414 0.0
O126 O 0.33645 1.01984 0.22987 0.0
O127 O 0.29498 0.99272 0.27705 0.0
C128 C 0.35021 0.9787 0.15205 0.0
O129 O 0.35726 1.00425 0.30362 0.0
O130 O 0.31234 0.957 0.32626 0.0
C131 C 0.29078 0.88954 0.28442 0.0
Fe132 Fe 0.7059 0.67221 0.4046 0.0
Fe133 Fe 0.77869 0.69547 0.37287 0.0
O134 O 0.74289 0.66859 0.40601 0.0
Fe135 Fe 0.74454 0.63764 0.43987 0.0
O136 O 0.6992 0.60625 0.43722 0.0
O137 O 0.67884 0.62788 0.38986 0.0
O138 O 0.70912 0.68105 0.34459 0.0
C139 C 0.72647 0.67749 0.31407 0.0
C140 C 0.71511 0.66296 0.4963 0.0
O141 O 0.75425 0.67871 0.32245 0.0
C142 C 0.81044 0.69514 0.44915 0.0
O143 O 0.72906 0.71717 0.41854 0.0
O144 O 0.771 0.73148 0.37201 0.0
O145 O 0.73854 0.65629 0.48956 0.0
O146 O 0.69714 0.66381 0.46455 0.0
C147 C 0.77542 0.63243 0.36531 0.0
O148 O 0.8054 0.71347 0.42206 0.0
O149 O 0.79033 0.66335 0.45014 0.0
C150 C 0.75238 0.73923 0.39461 0.0
O151 O 0.79285 0.66442 0.3656 0.0
O152 O 0.75053 0.61706 0.39129 0.0
C153 C 0.67618 0.60275 0.41077 0.0
Fe154 Fe 0.09498 0.75963 0.53925 0.0
Fe155 Fe 0.12339 0.7291 0.6068 0.0
O156 O 0.08923 0.72571 0.57409 0.0
Fe157 Fe 0.0492 0.68788 0.57547 0.0
O158 O 0.05152 0.68017 0.51653 0.0
O159 O 0.06656 0.73215 0.49573 0.0
O160 O 0.12836 0.75797 0.50902 0.0
C161 C 0.15424 0.75874 0.52486 0.0
C162 C 1.0309 0.73911 0.56805 0.0
O163 O 0.15675 0.7545 0.56595 0.0
C164 C 0.06598 0.69716 0.66367 0.0
O165 O 0.12506 0.79343 0.57646 0.0
O166 O 0.12883 0.76665 0.63506 0.0
O167 O 1.02439 0.70875 0.56453 0.0
O168 O 0.06104 0.76333 0.56595 0.0
C169 C 0.09494 0.66281 0.58014 0.0
O170 O 0.09597 0.70456 0.65347 0.0
O171 O 0.04469 0.69345 0.63416 0.0
C172 C 0.13327 0.79343 0.61671 0.0
O173 O 0.12113 0.6917 0.58134 0.0
O174 O 0.06599 0.65947 0.58664 0.0
C175 C 0.05673 0.70151 0.4864 0.0
Fe176 Fe 0.3782 0.03472 0.7446 0.0
Fe177 Fe 0.35148 0.07877 0.70506 0.0
O178 O 0.37999 0.07444 0.74076 0.0
Fe179 Fe 0.41058 0.10957 0.77201 0.0
O180 O 0.44569 0.10676 0.74732 0.0
O181 O 0.42332 0.05212 0.75715 0.0
O182 O 0.38873 0.03584 0.68587 0.0
C183 C 0.37229 0.04003 0.65509 0.0
C184 C 0.38524 0.05395 0.83169 0.0
O185 O 0.35061 0.04892 0.66365 0.0
C186 C 0.35585 0.11936 0.77997 0.0
O187 O 0.33272 1.00932 0.73305 0.0
O188 O 0.31434 0.04563 0.73338 0.0
O189 O 0.40811 0.08351 0.8203 0.0
O190 O 0.36757 0.03188 0.80296 0.0
C191 C 0.4111 0.13768 0.68792 0.0
O192 O 0.34789 0.11019 0.73989 0.0
O193 O 0.37821 0.11541 0.79925 0.0
C194 C 0.30868 1.01558 0.73636 0.0
O195 O 0.386 0.11111 0.67342 0.0
O196 O 0.41805 0.1415 0.72908 0.0
C197 C 0.44883 0.08082 0.74929 0.0
Fe198 Fe 0.36985 0.37319 0.90761 0.0
Fe199 Fe 0.29863 0.34648 0.86938 0.0
O200 O 0.33167 0.37474 0.90523 0.0
Fe201 Fe 0.32754 0.4051 0.93797 0.0
O202 O 0.36549 0.44051 0.91364 0.0
O203 O 0.39741 0.41773 0.92225 0.0
O204 O 0.3789 0.3853 0.84944 0.0
C205 C 0.35822 0.37007 0.81822 0.0
C206 C 0.35786 0.37822 -0.00464 0.0
O207 O 0.32769 0.34779 0.82607 0.0
C208 C 0.26283 0.35057 0.94589 0.0
O209 O 0.35058 0.32833 0.89356 0.0
O210 O 0.29585 0.30883 0.89508 0.0
O211 O 0.35116 0.40137 0.98522 0.0
O212 O 0.36233 0.36114 0.96562 0.0
C213 C 0.29793 0.40601 0.85573 0.0
O214 O 0.26383 0.34132 0.90628 0.0
O215 O 0.28928 0.37296 0.96491 0.0
C216 C 0.3207 0.30376 0.89655 0.0
O217 O 0.29909 0.38109 0.83983 0.0
O218 O 0.3028 0.41335 0.89663 0.0
C219 C 0.39449 0.4434 0.91489 0.0
Fe220 Fe 1.01395 0.35126 0.06924 0.0
Fe221 Fe 0.96474 0.27924 0.03511 0.0
O222 O 0.97331 0.31437 0.0695 0.0
Fe223 Fe 0.94029 0.31223 0.1032 0.0
O224 O 0.95446 0.35769 0.10222 0.0
O225 O 0.99701 0.37881 0.05547 0.0
O226 O 1.02023 0.34929 0.00909 0.0
C227 C 0.99921 0.33301 0.97834 0.0
C228 C 0.99409 0.34046 0.16055 0.0
O229 O 0.97293 0.30481 0.98572 0.0
C230 C 0.93154 0.24591 0.11023 0.0
O231 O 0.03541 0.32763 0.08234 0.0
O232 O 1.00834 0.28672 0.03434 0.0
O233 O 0.96413 0.31721 0.15303 0.0
O234 O 1.0136 0.35875 0.12947 0.0
C235 C 0.90537 0.28302 0.02755 0.0
O236 O 0.95528 0.25141 0.08335 0.0
O237 O 0.92001 0.2662 0.11197 0.0
C238 C 0.03428 0.3046 0.05784 0.0
O239 O 0.91981 0.26546 0.02755 0.0
O240 O 0.91437 0.30731 0.05446 0.0
C241 C 0.97447 0.38123 0.07672 0.0
Fe242 Fe 0.68564 1.00665 0.2395 0.0
Fe243 Fe 0.71073 0.96062 0.2007 0.0
O244 O 0.68283 0.96625 0.2366 0.0
Fe245 Fe 0.65154 0.93183 0.26848 0.0
O246 O 0.61699 0.93608 0.24487 0.0
O247 O 0.64096 0.99094 0.25291 0.0
O248 O 0.67462 1.00457 0.18097 0.0
C249 C 0.69006 0.99916 0.14984 0.0
C250 C 0.67916 0.9887 0.32713 0.0
O251 O 0.71131 0.98961 0.15801 0.0
C252 C 0.70463 0.9192 0.276 0.0
O253 O 0.73106 0.03108 0.22688 0.0
O254 O 0.74863 0.99415 0.22734 0.0
O255 O 0.65622 0.95885 0.31674 0.0
O256 O 0.69648 1.01047 0.29785 0.0
C257 C 0.64983 0.90212 0.1849 0.0
O258 O 0.71435 0.92971 0.23668 0.0
O259 O 0.68252 0.92379 0.29498 0.0
C260 C 0.75482 0.02441 0.22952 0.0
O261 O 0.67578 0.92779 0.17022 0.0
O262 O 0.64209 0.89919 0.22577 0.0
C263 C 0.61481 0.96257 0.24629 0.0
H264 H 0.42033 0.2959 0.55217 0.0
H265 H 0.45316 0.25375 0.44751 0.0
H266 H 0.43509 0.2671 0.60744 0.0
H267 H 0.46964 0.22568 0.50341 0.0
H268 H 0.41477 0.13234 0.59868 0.0
H269 H 0.43253 0.17689 0.54424 0.0
H270 H 0.46877 0.25162 0.64967 0.0
H271 H 0.44935 0.20616 0.70478 0.0
C272 C 0.43167 0.28116 0.54109 0.0
C273 C 0.43445 0.27603 0.49554 0.0
C274 C 0.44068 0.26496 0.57295 0.0
C275 C 0.45285 0.24329 0.55999 0.0
C276 C 0.45951 0.2415 0.51449 0.0
C277 C 0.4503 0.25772 0.48243 0.0
C278 C 0.427 0.15831 0.61032 0.0
C279 C 0.42954 0.16569 0.65603 0.0
C280 C 0.43777 0.18407 0.57892 0.0
C281 C 0.45154 0.21798 0.59242 0.0
C282 C 0.45753 0.22568 0.63814 0.0
C283 C 0.44656 0.1997 0.66975 0.0
H284 H 0.32609 0.43876 0.77883 0.0
H285 H 0.24039 0.40884 0.8657 0.0
H286 H 0.29812 0.45325 0.72088 0.0
H287 H 0.21091 0.42039 0.80722 0.0
H288 H 0.21516 0.40842 0.61237 0.0
H289 H 0.25655 0.42177 0.67101 0.0
H290 H 0.19866 0.45033 0.75757 0.0
H291 H 0.15596 0.43397 0.69955 0.0
C292 C 0.30149 0.4361 0.78568 0.0
C293 C 0.28527 0.42288 0.82643 0.0
C294 C 0.28517 0.44387 0.75233 0.0
C295 C 0.25172 0.43723 0.75851 0.0
C296 C 0.2367 0.42634 0.80087 0.0
C297 C 0.25351 0.41957 0.83464 0.0
C298 C 0.21199 0.4185 0.64357 0.0
C299 C 0.18255 0.42007 0.65181 0.0
C300 C 0.23578 0.42635 0.6774 0.0
C301 C 0.23086 0.43661 0.71983 0.0
C302 C 0.20289 0.44146 0.72608 0.0
C303 C 0.17863 0.43258 0.6927 0.0
H304 H 0.84952 0.2217 0.02945 0.0
H305 H 0.89537 0.31742 0.96066 0.0
H306 H 0.80823 0.19575 0.97047 0.0
H307 H 0.85341 0.29157 0.90077 0.0
H308 H 0.82297 0.21104 0.7826 0.0
H309 H 0.84859 0.25169 0.84346 0.0
H310 H 0.76204 0.18882 0.92666 0.0
H311 H 0.73765 0.14756 0.86647 0.0
C312 C 0.8497 0.23748 0.00238 0.0
C313 C 0.87529 0.27145 -0.00051 0.0
C314 C 0.82595 0.2227 0.96848 0.0
C315 C 0.82751 0.2415 0.93054 0.0
C316 C 0.85166 0.27634 0.92935 0.0
C317 C 0.87539 0.29126 0.96376 0.0
C318 C 0.80898 0.20672 0.8134 0.0
C319 C 0.77865 0.17623 0.82031 0.0
C320 C 0.82354 0.23001 0.84832 0.0
C321 C 0.80771 0.22315 0.89037 0.0
C322 C 0.77531 0.19447 0.89512 0.0
C323 C 0.76119 0.17096 0.86063 0.0
H324 H 0.6149 0.83354 0.20121 0.0
H325 H 0.64169 0.90774 0.09704 0.0
H326 H 0.59543 0.7886 0.14498 0.0
H327 H 0.62343 0.8637 0.04133 0.0
H328 H 0.60123 0.78816 0.94156 0.0
H329 H 0.58496 0.81354 0.00202 0.0
H330 H 0.63091 0.7775 0.09712 0.0
H331 H 0.64581 0.75167 0.03707 0.0
C332 C 0.61573 0.84009 0.16643 0.0
C333 C 0.63062 0.87412 0.15331 0.0
C334 C 0.60475 0.81445 0.13421 0.0
C335 C 0.60842 0.82254 0.08851 0.0
C336 C 0.61997 0.85629 0.07599 0.0
C337 C 0.63096 0.88173 0.10801 0.0
C338 C 0.60641 0.78458 0.97567 0.0
C339 C 0.62507 0.76848 0.98504 0.0
C340 C 0.59738 0.79925 0.01026 0.0
C341 C 0.60722 0.79819 0.05444 0.0
C342 C 0.62268 0.77879 0.06377 0.0
C343 C 0.6316 0.76423 0.02933 0.0
H344 H 0.73814 0.58618 0.30167 0.0
H345 H 0.83765 0.6392 0.36049 0.0
H346 H 0.76107 0.56912 0.23894 0.0
H347 H 0.86043 0.62181 0.29887 0.0
H348 H 0.89865 0.59031 0.18647 0.0
H349 H 0.86094 0.57572 0.25117 0.0
H350 H 0.80193 0.61161 0.18185 0.0
H351 H 0.83987 0.62655 0.11796 0.0
C352 C 0.76454 0.5928 0.30211 0.0
C353 C 0.78623 0.61388 0.33565 0.0
C354 C 0.77769 0.58324 0.26622 0.0
C355 C 0.81254 0.59417 0.26398 0.0
C356 C 0.83342 0.61258 0.29986 0.0
C357 C 0.82046 0.62268 0.33508 0.0
C358 C 0.87661 0.59346 0.18447 0.0
C359 C 0.87182 0.60923 0.14741 0.0
C360 C 0.85521 0.58537 0.22151 0.0
C361 C 0.82857 0.59265 0.22162 0.0
C362 C 0.82192 0.60527 0.18261 0.0
C363 C 0.84362 0.61388 0.14603 0.0
H364 H 0.15333 0.7262 0.4496 0.0
H365 H 0.21833 0.81255 0.53096 0.0
H366 H 0.19455 0.74864 0.38914 0.0
H367 H 0.25891 0.83636 0.46966 0.0
H368 H 0.32477 0.88007 0.35228 0.0
H369 H 0.29832 0.83934 0.41334 0.0
H370 H 0.20279 0.79384 0.34293 0.0
H371 H 0.22936 0.83385 0.28276 0.0
C372 C 0.177 0.7496 0.45479 0.0
C373 C 0.18278 0.76787 0.49449 0.0
C374 C 0.2005 0.76261 0.42015 0.0
C375 C 0.22967 0.79475 0.42402 0.0
C376 C 0.23687 0.81147 0.46548 0.0
C377 C 0.21361 0.79798 0.50061 0.0
C378 C 0.29855 0.86022 0.34929 0.0
C379 C 0.27899 0.85971 0.31301 0.0
C380 C 0.28328 0.83721 0.38438 0.0
C381 C 0.24833 0.81343 0.38336 0.0
C382 C 0.2298 0.81131 0.34488 0.0
C383 C 0.24495 0.83431 0.31026 0.0
H384 H 0.46477 0.4463 0.39784 0.0
H385 H 0.51594 0.38827 0.40885 0.0
H386 H 0.51898 0.49854 0.39925 0.0
H387 H 0.5706 0.44091 0.40935 0.0
H388 H 0.62107 0.58527 0.3573 0.0
H389 H 0.56821 0.53132 0.35415 0.0
H390 H 0.60597 0.49053 0.45404 0.0
H391 H 0.65916 0.54426 0.45648 0.0
C392 C 0.48761 0.44461 0.4004 0.0
C393 C 0.48585 0.41291 0.40308 0.0
C394 C 0.51883 0.47471 0.40087 0.0
C395 C 0.54934 0.47411 0.40398 0.0
C396 C 0.54765 0.44242 0.40723 0.0
C397 C 0.51628 0.41218 0.40679 0.0
C398 C 0.61822 0.56478 0.37847 0.0
C399 C 0.64444 0.56931 0.40732 0.0
C400 C 0.58775 0.53382 0.37687 0.0
C401 C 0.58257 0.50651 0.40412 0.0
C402 C 0.60908 0.51081 0.43227 0.0
C403 C 0.63959 0.54177 0.43384 0.0
H404 H 0.0459 0.45383 0.59052 0.0
H405 H 0.1507 0.50391 0.54924 0.0
H406 H 0.04798 0.50802 0.59456 0.0
H407 H 0.15251 0.55858 0.55125 0.0
H408 H 0.14991 0.65472 0.59726 0.0
H409 H 0.1519 0.60198 0.59501 0.0
H410 H 0.04853 0.54876 0.54754 0.0
H411 H 0.04622 0.60077 0.55183 0.0
C412 C 0.06941 0.47651 0.58201 0.0
C413 C 0.09804 0.47449 0.56917 0.0
C414 C 0.07056 0.5077 0.58395 0.0
C415 C 0.10021 0.53788 0.57233 0.0
C416 C 0.12925 0.536 0.56063 0.0
C417 C 0.12822 0.50464 0.55933 0.0
C418 C 0.12772 0.6317 0.5862 0.0
C419 C 0.09777 0.63185 0.57527 0.0
C420 C 0.12886 0.60144 0.58475 0.0
C421 C 0.10019 0.57076 0.57181 0.0
C422 C 0.0708 0.57147 0.55909 0.0
C423 C 0.06952 0.60145 0.56119 0.0
H424 H 0.61056 0.03699 0.70655 0.0
H425 H 0.66515 0.13987 0.75569 0.0
H426 H 0.55798 0.03797 0.71019 0.0
H427 H 0.61164 0.14049 0.76071 0.0
H428 H 0.50968 0.1361 0.72414 0.0
H429 H 0.56508 0.13958 0.71876 0.0
H430 H 0.52025 0.03638 0.76555 0.0
H431 H 0.46534 0.03259 0.76954 0.0
C432 C 0.61136 0.05986 0.71847 0.0
C433 C 0.64217 0.08827 0.73122 0.0
C434 C 0.58102 0.06034 0.72079 0.0
C435 C 0.58032 0.0891 0.73646 0.0
C436 C 0.61122 0.11794 0.74832 0.0
C437 C 0.64187 0.11755 0.74564 0.0
C438 C 0.51175 0.11419 0.73322 0.0
C439 C 0.48292 0.08395 0.74682 0.0
C440 C 0.54354 0.11625 0.73038 0.0
C441 C 0.54717 0.08814 0.74121 0.0
C442 C 0.5184 0.0583 0.75583 0.0
C443 C 0.48679 0.05617 0.75834 0.0
H444 H 0.45972 0.45652 0.91524 0.0
H445 H 0.40056 0.50677 0.90851 0.0
H446 H 0.51152 0.51086 0.91296 0.0
H447 H 0.45304 0.56177 0.90698 0.0
H448 H 0.55633 0.64998 0.85582 0.0
H449 H 0.50231 0.5971 0.86004 0.0
H450 H 0.54411 0.5598 0.95914 0.0
H451 H 0.59826 0.61228 0.95429 0.0
C452 C 0.45769 0.4792 0.91348 0.0
C453 C 0.42581 0.47715 0.91231 0.0
C454 C 0.48755 0.5105 0.91249 0.0
C455 C 0.48657 0.54081 0.91034 0.0
C456 C 0.45473 0.5389 0.90847 0.0
C457 C 0.42465 0.50739 0.90949 0.0
C458 C 0.55399 0.63055 0.87866 0.0
C459 C 0.58186 0.63533 0.9044 0.0
C460 C 0.52289 0.60028 0.88126 0.0
C461 C 0.51885 0.57402 0.90965 0.0
C462 C 0.54646 0.57921 0.93626 0.0
C463 C 0.57754 0.60942 0.93364 0.0
H464 H 0.99807 0.42918 0.01078 0.0
H465 H 0.94831 0.40583 0.13886 0.0
H466 H 0.99661 0.48227 0.00879 0.0
H467 H 0.94757 0.45916 0.13716 0.0
H468 H 0.99385 0.57771 0.13505 0.0
H469 H 0.99424 0.52407 0.13698 0.0
H470 H 0.94849 0.49865 0.00678 0.0
H471 H 0.94738 0.55181 0.00511 0.0
C472 C 0.98689 0.43539 0.0385 0.0
C473 C 0.97324 0.41322 0.07491 0.0
C474 C 0.98596 0.4657 0.03728 0.0
C475 C 0.97205 0.47486 0.07289 0.0
C476 C 0.95862 0.45285 0.1094 0.0
C477 C 0.95888 0.42222 0.11019 0.0
C478 C 0.98377 0.56062 0.10692 0.0
C479 C 0.97051 0.56901 0.06999 0.0
C480 C 0.98391 0.5299 0.10809 0.0
C481 C 0.97148 0.50725 0.07197 0.0
C482 C 0.95842 0.51572 0.03496 0.0
C483 C 0.95761 0.54606 0.03417 0.0
H484 H 0.44536 0.99735 0.28958 0.0
H485 H 0.40686 0.91654 0.19248 0.0
H486 H 0.49851 0.99673 0.29247 0.0
H487 H 0.46036 0.91645 0.19469 0.0
H488 H 0.55137 0.90579 0.24014 0.0
H489 H 0.49648 0.90338 0.23973 0.0
H490 H 0.54739 1.01265 0.2467 0.0
H491 H 0.60186 1.01503 0.24801 0.0
C492 C 0.44818 0.97943 0.26881 0.0
C493 C 0.42175 0.95713 0.24062 0.0
C494 C 0.47882 0.97921 0.27026 0.0
C495 C 0.48397 0.95673 0.24352 0.0
C496 C 0.45728 0.93392 0.21604 0.0
C497 C 0.42659 0.9341 0.21462 0.0
C498 C 0.55083 0.92928 0.24155 0.0
C499 C 0.58115 0.96058 0.24434 0.0
C500 C 0.51932 0.92792 0.24114 0.0
C501 C 0.51737 0.95782 0.24353 0.0
C502 C 0.54776 0.98905 0.24574 0.0
C503 C 0.57913 0.99042 0.24616 0.0
H504 H 0.39161 0.40524 0.52987 0.0
H505 H 0.37265 0.30566 0.56692 0.0
H506 H 0.395 0.42037 0.60924 0.0
H507 H 0.37766 0.32129 0.64525 0.0
H508 H 0.3266 0.38101 0.75009 0.0
H509 H 0.33965 0.38321 0.67076 0.0
H510 H 0.42676 0.37324 0.7017 0.0
H511 H 0.41442 0.37239 0.78165 0.0
C512 C 0.38893 0.38696 0.55486 0.0
C513 C 0.38165 0.35424 0.54242 0.0
C514 C 0.39098 0.39562 0.60001 0.0
C515 C 0.38701 0.37205 0.63298 0.0
C516 C 0.38133 0.34001 0.62035 0.0
C517 C 0.37823 0.33104 0.57558 0.0
C518 C 0.34906 0.38022 0.73992 0.0
C519 C 0.36947 0.37634 0.77162 0.0
C520 C 0.35663 0.38175 0.69471 0.0
C521 C 0.38424 0.37856 0.68045 0.0
C522 C 0.40553 0.37609 0.7122 0.0
C523 C 0.39848 0.37554 0.75767 0.0
H524 H 0.05907 0.38425 0.94592 0.0
H525 H 0.95708 0.31043 0.90636 0.0
H526 H 0.07364 0.40093 0.86835 0.0
H527 H 0.97188 0.32708 0.82886 0.0
H528 H 1.00603 0.37575 0.69253 0.0
H529 H 0.99214 0.37545 0.77177 0.0
H530 H 0.07876 0.36565 0.8073 0.0
H531 H 0.09222 0.3656 0.72901 0.0
C532 C 0.03965 0.37189 0.92081 0.0
C533 C 1.00713 0.34553 0.93214 0.0
C534 C 0.048 0.3815 0.87646 0.0
C535 C 1.02392 0.36516 0.84272 0.0
C536 C 0.99083 0.34028 0.85429 0.0
C537 C 0.98253 0.33047 0.89859 0.0
C538 C 1.02231 0.37419 0.71751 0.0
C539 C 0.04988 0.37027 0.70501 0.0
C540 C 1.01436 0.37391 0.76261 0.0
C541 C 0.0344 0.37052 0.79551 0.0
C542 C 0.06309 0.36866 0.78272 0.0
C543 C 0.0706 0.36831 0.73795 0.0
H544 H 0.6558 0.994 0.86269 0.0
H545 H 0.73982 0.09197 0.89786 0.0
H546 H 0.64314 0.98056 0.94217 0.0
H547 H 0.72649 0.07911 0.97675 0.0
H548 H 0.67669 0.04744 0.11646 0.0
H549 H 0.674 0.06008 0.03746 0.0
H550 H 0.68829 0.97659 -0.00043 0.0
H551 H 0.69233 0.96485 0.07776 0.0
C552 C 0.67081 1.01296 0.88738 0.0
C553 C 0.69884 0.04388 0.8745 0.0
C554 C 0.66363 1.00531 0.93263 0.0
C555 C 0.68379 0.02892 0.96534 0.0
C556 C 0.71037 0.06068 0.95216 0.0
C557 C 0.71809 0.06792 0.90715 0.0
C558 C 0.67882 0.03162 0.09116 0.0
C559 C 0.685 1.00537 0.10307 0.0
C560 C 0.67722 0.03878 0.04617 0.0
C561 C 0.68064 1.01906 0.01268 0.0
C562 C 0.68513 0.99184 0.02479 0.0
C563 C 0.68771 0.98534 0.06948 0.0
H564 H 0.7549 0.66657 0.24011 0.0
H565 H 0.67478 0.68542 0.28189 0.0
H566 H 0.74202 0.67091 0.16254 0.0
H567 H 0.66177 0.68932 0.20432 0.0
H568 H 0.6945 0.65988 0.02529 0.0
H569 H 0.69796 0.64495 0.10245 0.0
H570 H 0.69462 0.73337 0.14755 0.0
H571 H 0.69146 0.74846 0.07117 0.0
C572 C 0.73429 0.67122 0.23278 0.0
C573 C 0.71624 0.67621 0.26719 0.0
C574 C 0.72675 0.67341 0.18834 0.0
C575 C 0.7011 0.68074 0.1775 0.0
C576 C 0.68198 0.68409 0.21182 0.0
C577 C 0.6894 0.68175 0.25622 0.0
C578 C 0.69421 0.67597 0.05171 0.0
C579 C 0.69257 0.70532 0.042 0.0
C580 C 0.69626 0.66743 0.09581 0.0
C581 C 0.69637 0.68791 0.13091 0.0
C582 C 0.69397 0.71677 0.12121 0.0
C583 C 0.69223 0.72545 0.07731 0.0
H584 H 0.09086 0.73832 0.41498 0.0
H585 H 1.0057 0.64166 0.45247 0.0
H586 H 0.07568 0.72557 0.33698 0.0
H587 H 0.9901 0.62886 0.37358 0.0
H588 H 0.95268 0.65679 0.23966 0.0
H589 H 0.96861 0.65653 0.31711 0.0
H590 H 0.07032 0.68532 0.2756 0.0
H591 H 0.05465 0.68579 0.19823 0.0
C592 C 0.06907 0.71412 0.40633 0.0
C593 C 0.04924 0.69106 0.43956 0.0
C594 C 0.06054 0.70671 0.36169 0.0
C595 C 1.0317 0.67626 0.3493 0.0
C596 C 1.0124 0.65258 0.38241 0.0
C597 C 1.02137 0.65978 0.42732 0.0
C598 C 0.97837 0.66278 0.247 0.0
C599 C 1.00258 0.67193 0.21287 0.0
C600 C 0.98734 0.66223 0.29129 0.0
C601 C 1.02072 0.67105 0.30226 0.0
C602 C 0.04448 0.67867 0.268 0.0
C603 C 0.03547 0.67895 0.22373 0.0
H604 H 0.39069 0.04319 0.36764 0.0
H605 H 0.31799 0.94042 0.40566 0.0
H606 H 0.4066 0.05735 0.44549 0.0
H607 H 0.33405 0.95482 0.48354 0.0
H608 H 0.38487 0.99121 0.62068 0.0
H609 H 0.38408 0.97694 0.54136 0.0
H610 H 0.36825 0.05989 0.50597 0.0
H611 H 0.36819 0.0734 0.58409 0.0
C612 C 0.37845 0.0235 0.39247 0.0
C613 C 0.35259 0.99087 0.3806 0.0
C614 C 0.38765 0.03162 0.43697 0.0
C615 C 0.37146 1.00719 0.47039 0.0
C616 C 0.34711 0.97402 0.45834 0.0
C617 C 0.33764 0.96595 0.41384 0.0
C618 C 0.38182 1.00659 0.59571 0.0
C619 C 0.37642 0.03325 0.60828 0.0
C620 C 0.38126 0.99842 0.55057 0.0
C621 C 0.37625 1.01745 0.5177 0.0
C622 C 0.37261 0.04509 0.53051 0.0
C623 C 0.37238 0.05268 0.57526 0.0
H624 H 0.39524 0.23281 0.30548 0.0
H625 H 0.30475 0.18736 0.3862 0.0
H626 H 0.37977 0.17782 0.27429 0.0
H627 H 0.2878 0.13232 0.35287 0.0
H628 H 0.28815 0.03333 0.32832 0.0
H629 H 0.29744 0.08792 0.35308 0.0
H630 H 0.34826 0.1327 0.22895 0.0
H631 H 0.34078 0.07803 0.2056 0.0
C632 C 0.37155 0.21111 0.31589 0.0
C633 C 0.35136 0.21463 0.34862 0.0
C634 C 0.36244 0.17931 0.29764 0.0
C635 C 0.3324 0.14994 0.31079 0.0
C636 C 0.31154 0.15383 0.34238 0.0
C637 C 0.32108 0.18558 0.36136 0.0
C638 C 0.30084 0.05467 0.30589 0.0
C639 C 0.31374 0.05111 0.26488 0.0
C640 C 0.30614 0.08629 0.32013 0.0
C641 C 0.32398 0.11544 0.29349 0.0
C642 C 0.33524 0.11138 0.25127 0.0
C643 C 0.33055 0.0798 0.23743 0.0
H644 H 0.27659 0.32327 0.36294 0.0
H645 H 0.2719 0.27285 0.48596 0.0
H646 H 0.22689 0.32686 0.38492 0.0
H647 H 0.22411 0.27879 0.51019 0.0
H648 H 0.1339 0.28854 0.54669 0.0
H649 H 0.17008 0.26959 0.51192 0.0
H650 H 0.21526 0.35964 0.42982 0.0
H651 H 0.17763 0.37691 0.46231 0.0
C652 C 0.26429 0.31223 0.39432 0.0
C653 C 0.27765 0.2973 0.42243 0.0
C654 C 0.23618 0.3149 0.40753 0.0
C655 C 0.22158 0.304 0.4501 0.0
C656 C 0.234 0.28724 0.47704 0.0
C657 C 0.26149 0.28369 0.46317 0.0
C658 C 0.15125 0.30391 0.52067 0.0
C659 C 0.15282 0.33424 0.50733 0.0
C660 C 0.17231 0.29322 0.50085 0.0
C661 C 0.19611 0.31298 0.46786 0.0
C662 C 0.19698 0.34301 0.45411 0.0
C663 C 0.17544 0.35322 0.47315 0.0
H664 H 0.82154 0.17085 0.63226 0.0
H665 H 0.86585 0.12755 0.718 0.0
H666 H 0.87617 0.20701 0.5985 0.0
H667 H 0.92068 0.16219 0.68194 0.0
H668 H 1.01993 0.2619 0.65124 0.0
H669 H 0.96621 0.2156 0.67771 0.0
H670 H 0.91942 0.21639 0.55283 0.0
H671 H 0.9728 0.26474 0.52857 0.0
C672 C 0.84292 0.16847 0.64321 0.0
C673 C 0.83928 0.14638 0.67806 0.0
C674 C 0.87449 0.18913 0.62341 0.0
C675 C 0.90345 0.18784 0.63701 0.0
C676 C 0.89943 0.16468 0.67089 0.0
C677 C 0.86786 0.14453 0.69148 0.0
C678 C 0.99832 0.25134 0.62904 0.0
C679 C 1.00051 0.26659 0.58772 0.0
C680 C 0.96727 0.22471 0.64422 0.0
C681 C 0.93774 0.21225 0.61802 0.0
C682 C 0.94099 0.22582 0.5749 0.0
C683 C 0.9718 0.25312 0.56039 0.0
H684 H 0.72513 0.96706 0.69982 0.0
H685 H 0.78811 1.01523 0.81406 0.0
H686 H 0.72144 0.91353 0.72012 0.0
H687 H 0.78281 0.9612 0.83642 0.0
H688 H 0.77037 0.85768 0.86581 0.0
H689 H 0.78957 0.91262 0.82991 0.0
H690 H 0.68941 0.87471 0.77478 0.0
H691 H 0.67098 0.82035 0.80865 0.0
C692 C 0.73892 0.96628 0.72871 0.0
C693 C 0.757 0.99519 0.75525 0.0
C694 C 0.73642 0.9355 0.74085 0.0
C695 C 0.75094 0.93258 0.78076 0.0
C696 C 0.77134 0.9623 0.80543 0.0
C697 C 0.77449 0.99338 0.7926 0.0
C698 C 0.7527 0.86105 0.84541 0.0
C699 C 0.71905 0.83454 0.84042 0.0
C700 C 0.76364 0.89263 0.825 0.0
C701 C 0.74118 0.89835 0.79914 0.0
C702 C 0.70786 0.87139 0.79341 0.0
C703 C 0.69707 0.84005 0.81344 0.0
H704 H 0.77985 0.71184 0.86475 0.0
H705 H 0.79812 0.77785 0.97736 0.0
H706 H 0.82753 0.70497 0.88705 0.0
H707 H 0.8444 0.76964 0.00093 0.0
H708 H 0.93389 0.75641 0.03248 0.0
H709 H 0.89846 0.77526 -0.00499 0.0
H710 H 0.836 0.67432 0.94203 0.0
H711 H 0.87179 0.65624 0.97734 0.0
C712 C 0.7943 0.72528 0.8939 0.0
C713 C 0.78479 0.7451 0.9194 0.0
C714 C 0.8215 0.72106 0.90708 0.0
C715 C 0.83957 0.73607 0.94656 0.0
C716 C 0.83145 0.75776 0.97027 0.0
C717 C 0.80462 0.76238 0.95673 0.0
C718 C 0.91287 0.73847 0.01226 0.0
C719 C 0.90566 0.70472 0.00837 0.0
C720 C 0.89236 0.74919 -0.00906 0.0
C721 C 0.86408 0.72638 0.96533 0.0
C722 C 0.85774 0.69299 0.96053 0.0
C723 C 0.87823 0.68243 0.98142 0.0
H724 H 0.19675 0.92128 0.20641 0.0
H725 H 0.23748 0.86471 0.14107 0.0
H726 H 0.14149 0.88396 0.17228 0.0
H727 H 0.18278 0.82706 0.10898 0.0
H728 H 0.08648 0.76853 0.03662 0.0
H729 H 0.1407 0.81693 0.05809 0.0
H730 H 0.09499 0.8285 0.17817 0.0
H731 H 0.0406 0.78129 0.1555 0.0
C732 C 0.19408 0.90116 0.18454 0.0
C733 C 0.22171 0.89604 0.17687 0.0
C734 C 0.16225 0.87948 0.1652 0.0
C735 C 0.15724 0.85213 0.13774 0.0
C736 C 0.18533 0.84796 0.12907 0.0
C737 C 0.21693 0.86957 0.14805 0.0
C738 C 0.08784 0.78188 0.06711 0.0
C739 C 0.05908 0.77072 0.09436 0.0
C740 C 0.11912 0.80953 0.07979 0.0
C741 C 0.12277 0.8265 0.12054 0.0
C742 C 0.09347 0.8165 0.14647 0.0
C743 C 0.06209 0.78917 0.13344 0.0
H744 H 0.97361 0.71364 0.61772 0.0
H745 H 1.02287 0.77638 0.50367 0.0
H746 H 0.92055 0.71081 0.59696 0.0
H747 H 0.96931 0.77169 0.4806 0.0
H748 H 0.86692 0.75966 0.44716 0.0
H749 H 0.92135 0.77872 0.48446 0.0
H750 H 0.88118 0.67949 0.5437 0.0
H751 H 0.82737 0.66142 0.50878 0.0
C752 C 0.97316 0.72751 0.58873 0.0
C753 C 1.00227 0.74537 0.56247 0.0
C754 C 0.94262 0.72548 0.57627 0.0
C755 C 0.94009 0.74011 0.53618 0.0
C756 C 0.97003 0.76017 0.51172 0.0
C757 C 1.00086 0.76295 0.52495 0.0
C758 C 0.86968 0.74224 0.46886 0.0
C759 C 0.84272 0.70891 0.47459 0.0
C760 C 0.90099 0.75306 0.49005 0.0
C761 C 0.90602 0.73077 0.51737 0.0
C762 C 0.87851 0.69787 0.52397 0.0
C763 C 0.84745 0.68726 0.50327 0.0
H764 H 0.1782 0.80828 0.68439 0.0
H765 H 0.13228 0.85251 0.60333 0.0
H766 H 0.21458 0.86276 0.71852 0.0
H767 H 0.16705 0.90705 0.63985 0.0
H768 H 0.26758 1.00623 0.66653 0.0
H769 H 0.22045 0.95253 0.64173 0.0
H770 H 0.225 0.90595 0.76503 0.0
H771 H 0.27416 0.95934 0.78747 0.0
C772 C 0.17528 0.82959 0.67467 0.0
C773 C 0.1525 0.82608 0.64089 0.0
C774 C 0.19605 0.86104 0.69466 0.0
C775 C 0.19413 0.88991 0.68231 0.0
C776 C 0.17008 0.88589 0.6498 0.0
C777 C 0.14986 0.85449 0.62898 0.0
C778 C 0.25768 0.98468 0.68882 0.0
C779 C 0.27423 0.98689 0.72902 0.0
C780 C 0.23056 0.95365 0.67461 0.0
C781 C 0.21892 0.92418 0.70076 0.0
C782 C 0.23376 0.92749 0.743 0.0
C783 C 0.26155 0.95828 0.75649 0.0
H784 H 0.32028 0.14742 0.74351 0.0
H785 H 0.36022 0.13593 0.86834 0.0
H786 H 0.30457 0.18581 0.77896 0.0
H787 H 0.3435 0.17342 0.90417 0.0
H788 H 0.36299 0.28247 0.9259 0.0
H789 H 0.36502 0.23256 0.90246 0.0
H790 H 0.27092 0.19696 0.83112 0.0
H791 H 0.26946 0.24797 0.8541 0.0
C792 C 0.32508 0.1525 0.77876 0.0
C793 C 0.34204 0.13895 0.80286 0.0
C794 C 0.31582 0.1744 0.79924 0.0
C795 C 0.32304 0.18314 0.84446 0.0
C796 C 0.33816 0.16791 0.8691 0.0
C797 C 0.34767 0.14627 0.84856 0.0
C798 C 0.34223 0.26358 0.90616 0.0
C799 C 0.31616 0.26928 0.89172 0.0
C800 C 0.3433 0.23475 0.89277 0.0
C801 C 0.31831 0.21067 0.86442 0.0
C802 C 0.29089 0.2152 0.8524 0.0
C803 C 0.28975 0.24418 0.86606 0.0
H804 H 0.24788 0.38165 0.01287 0.0
H805 H 0.20194 0.29291 0.92893 0.0
H806 H 0.19283 0.36671 0.04319 0.0
H807 H 0.14672 0.27637 0.96146 0.0
H808 H 0.04912 0.27986 0.98361 0.0
H809 H 0.10348 0.28768 0.96049 0.0
H810 H 0.14662 0.33541 0.08674 0.0
H811 H 0.09227 0.32952 0.10844 0.0
C812 C 0.22604 0.35838 0.00165 0.0
C813 C 0.22945 0.3386 0.96821 0.0
C814 C 0.1942 0.34958 0.01938 0.0
C815 C 0.16465 0.32024 0.00498 0.0
C816 C 0.16841 0.29962 0.97287 0.0
C817 C 0.20025 0.30889 0.95438 0.0
C818 C 0.07004 0.29157 0.00683 0.0
C819 C 0.06619 0.30414 0.04794 0.0
C820 C 0.10151 0.29598 -0.00644 0.0
C821 C 0.13016 0.31253 0.02131 0.0
C822 C 0.12572 0.3234 0.06361 0.0
C823 C 0.09433 0.31964 0.07648 0.0
H824 H 0.78739 0.08176 0.2788 0.0
H825 H 0.79921 0.03238 0.16332 0.0
H826 H 0.83713 0.13481 0.25689 0.0
H827 H 0.8477 0.08596 0.13926 0.0
H828 H 0.9388 0.18886 0.10612 0.0
H829 H 0.90305 0.13401 0.14245 0.0
H830 H 0.8445 0.17424 0.20383 0.0
H831 H 0.88052 0.22838 0.16977 0.0
C832 C 0.80126 0.08216 0.24924 0.0
C833 C 0.78966 0.05297 0.22298 0.0
C834 C 0.82948 0.11272 0.23611 0.0
C835 C 0.84609 0.11524 0.19541 0.0
C836 C 0.83588 0.08526 0.17083 0.0
C837 C 0.80807 0.0544 0.18466 0.0
C838 C 0.91863 0.18601 0.12804 0.0
C839 C 0.91257 0.21315 0.13471 0.0
C840 C 0.89792 0.15446 0.14868 0.0
C841 C 0.87071 0.14936 0.17645 0.0
C842 C 0.86549 0.17695 0.18377 0.0
C843 C 0.88611 0.20823 0.16357 0.0
H844 H 0.72528 0.77172 0.44277 0.0
H845 H 0.77775 0.77821 0.32024 0.0
H846 H 0.71844 0.81917 0.41901 0.0
H847 H 0.769 0.82364 0.29502 0.0
H848 H 0.76248 0.9158 0.26041 0.0
H849 H 0.77906 0.87766 0.29432 0.0
H850 H 0.68749 0.83322 0.37373 0.0
H851 H 0.67251 0.87285 0.34208 0.0
C852 C 0.73558 0.78344 0.41089 0.0
C853 C 0.75219 0.77112 0.38364 0.0
C854 C 0.73127 0.81048 0.3968 0.0
C855 C 0.74267 0.82546 0.3545 0.0
C856 C 0.76025 0.81365 0.32803 0.0
C857 C 0.76522 0.78723 0.34255 0.0
C858 C 0.74619 0.89814 0.28556 0.0
C859 C 0.71618 0.89751 0.29843 0.0
C860 C 0.75549 0.87588 0.30488 0.0
C861 C 0.73461 0.85167 0.33688 0.0
C862 C 0.70485 0.85162 0.3501 0.0
C863 C 0.696 0.87436 0.33156 0.0
H864 H 0.34137 0.35458 0.28202 0.0
H865 H 0.42593 0.34051 0.2481 0.0
H866 H 0.33388 0.36268 0.20376 0.0
H867 H 0.41878 0.34933 0.16986 0.0
H868 H 0.37223 0.33128 0.03021 0.0
H869 H 0.37943 0.32206 0.10832 0.0
H870 H 0.36263 0.40426 0.14545 0.0
H871 H 0.35473 0.41308 0.06763 0.0
C872 C 0.35849 0.35339 0.25793 0.0
C873 C 0.38436 0.34705 0.27139 0.0
C874 C 0.35427 0.3582 0.21308 0.0
C875 C 0.37582 0.35679 0.18064 0.0
C876 C 0.40154 0.35021 0.19401 0.0
C877 C 0.40575 0.34537 0.2389 0.0
C878 C 0.37013 0.34743 0.05502 0.0
C879 C 0.36294 0.37294 0.04263 0.0
C880 C 0.37442 0.34224 0.09976 0.0
C881 C 0.37157 0.36241 0.13306 0.0
C882 C 0.36451 0.38797 0.12064 0.0
C883 C 0.3602 0.39316 0.07596 0.0
H884 H 1.01331 0.32228 0.4436 0.0
H885 H 0.09839 0.42093 0.4128 0.0
H886 H 0.99696 0.31403 0.36568 0.0
H887 H 0.08121 0.41335 0.335 0.0
H888 H 0.05928 0.37378 0.19153 0.0
H889 H 0.07769 0.38271 0.26908 0.0
H890 H 0.973 0.33313 0.31179 0.0
H891 H 0.95479 0.32301 0.2348 0.0
C892 C 1.02829 0.34237 0.42021 0.0
C893 C 0.05702 0.3723 0.43432 0.0
C894 C 1.01885 0.33773 0.37554 0.0
C895 C 0.03761 0.36314 0.34403 0.0
C896 C 0.06644 0.39308 0.35821 0.0
C897 C 0.07616 0.39752 0.40286 0.0
C898 C 0.0403 0.36491 0.21761 0.0
C899 C 1.00564 0.34751 0.20715 0.0
C900 C 0.0508 0.37013 0.26202 0.0
C901 C 1.02681 0.35841 0.29674 0.0
C902 C 0.99217 0.34175 0.28601 0.0
C903 C 0.98172 0.33614 0.2418 0.0
H904 H 0.74462 0.09761 0.57877 0.0
H905 H 0.66896 0.99612 0.61628 0.0
H906 H 0.73787 0.08056 0.50103 0.0
H907 H 0.6601 0.97935 0.53834 0.0
H908 H 0.67184 0.9494 0.39891 0.0
H909 H 0.68102 0.9662 0.47682 0.0
H910 H 0.70417 0.06736 0.43955 0.0
H911 H 0.69739 0.05088 0.36159 0.0
C912 C 0.72616 0.07171 0.57015 0.0
C913 C 0.70731 0.04817 0.6034 0.0
C914 C 0.72203 0.06191 0.52549 0.0
C915 C 0.69824 0.0285 0.51287 0.0
C916 C 0.67919 1.00508 0.54647 0.0
C917 C 0.68402 1.0147 0.59124 0.0
C918 C 0.67897 0.97523 0.40759 0.0
C919 C 0.68397 0.99886 0.37435 0.0
C920 C 0.684 0.98489 0.45233 0.0
C921 C 0.6933 1.01824 0.465 0.0
C922 C 0.69784 0.0417 0.43141 0.0
C923 C 0.69368 0.03223 0.38661 0.0
H924 H 0.74732 0.66129 0.57193 0.0
H925 H 0.6664 0.67716 0.52574 0.0
H926 H 0.73632 0.67122 0.64799 0.0
H927 H 0.65506 0.68656 0.60237 0.0
H928 H 0.67363 0.74046 0.73831 0.0
H929 H 0.68216 0.72885 0.66166 0.0
H930 H 0.69351 0.64487 0.706 0.0
H931 H 0.68559 0.65676 0.78277 0.0
C932 C 0.72701 0.66667 0.57797 0.0
C933 C 0.70771 0.66837 0.54264 0.0
C934 C 0.72059 0.67217 0.62169 0.0
C935 C 0.69475 0.67956 0.63123 0.0
C936 C 0.67537 0.68123 0.596 0.0
C937 C 0.68176 0.67566 0.55215 0.0
C938 C 0.67786 0.71945 0.73177 0.0
C939 C 0.67899 0.69958 0.76676 0.0
C940 C 0.68253 0.71269 0.68777 0.0
C941 C 0.68851 0.68596 0.67777 0.0
C942 C 0.68936 0.66592 0.71269 0.0
C943 C 0.68467 0.67264 0.75669 0.0
H944 H 0.10637 0.7155 0.73729 0.0
H945 H 1.00141 0.6653 0.69654 0.0
H946 H 0.08882 0.70767 0.81502 0.0
H947 H 0.98381 0.65624 0.77408 0.0
H948 H 0.96346 0.67845 0.9135 0.0
H949 H 0.98262 0.687 0.83674 0.0
H950 H 0.06272 0.66671 0.87256 0.0
H951 H 0.04421 0.65943 0.95003 0.0
C952 C 0.07953 0.70242 0.74495 0.0
C953 C 0.05528 0.6911 0.71078 0.0
C954 C 0.06946 0.69778 0.78953 0.0
C955 C 0.03489 0.68143 0.80091 0.0
C956 C 1.01066 0.66957 0.76661 0.0
C957 C 1.02074 0.67456 0.72209 0.0
C958 C 0.98518 0.67581 0.90503 0.0
C959 C 1.00223 0.6681 0.93779 0.0
C960 C 0.99605 0.68051 0.8609 0.0
C961 C 1.02402 0.67721 0.84826 0.0
C962 C 0.04131 0.6698 0.88116 0.0
C963 C 1.03063 0.66548 0.92554 0.0
H964 H 0.42943 0.08572 0.90031 0.0
H965 H 0.33092 1.00023 0.87013 0.0
H966 H 0.42247 0.06814 0.97805 0.0
H967 H 0.32331 0.98349 0.94783 0.0
H968 H 0.33324 0.94023 0.07699 0.0
H969 H 0.34318 0.95929 0.00031 0.0
H970 H 0.3922 0.06347 0.04496 0.0
H971 H 0.38343 0.04422 0.12214 0.0
C972 C 0.40617 0.06335 0.91038 0.0
C973 C 0.38085 0.04416 0.87907 0.0
C974 C 0.4021 0.05337 0.95497 0.0
C975 C 0.37244 0.02423 0.96922 0.0
C976 C 0.34685 1.00557 0.93792 0.0
C977 C 0.35111 1.01527 0.89335 0.0
C978 C 0.34624 0.96722 0.07049 0.0
C979 C 0.35745 0.99073 0.10559 0.0
C980 C 0.35175 0.97818 0.02645 0.0
C981 C 0.36813 1.01293 0.01633 0.0
C982 C 0.3798 0.03652 0.0515 0.0
C983 C 0.37468 0.02552 0.09573 0.0
loop_
_geom_bond_atom_site_label_1
_geom_bond_atom_site_label_2
_geom_bond_distance
_geom_bond_site_symmetry_2
_ccdc_geom_bond_type
Fe0 O2 1.918 . S
Fe0 O5 1.997 . S
Fe0 O6 2.002 . S
Fe0 O11 1.976 . S
Fe0 O14 1.996 . S
Fe1 O2 1.918 . S
Fe1 O9 1.997 . S
Fe1 O12 1.996 . S
Fe1 O16 1.976 . S
Fe1 O19 2.002 . S
O2 Fe0 1.918 . S
O2 Fe1 1.918 . S
O2 Fe3 1.918 . S
Fe3 O2 1.918 . S
Fe3 O4 2.002 . S
Fe3 O13 1.976 . S
Fe3 O17 1.996 . S
Fe3 O20 1.997 . S
O4 Fe3 2.002 . S
O4 C21 1.295 . S
O5 Fe0 1.997 . S
O5 C21 1.235 . S
O6 Fe0 2.002 . S
O6 C7 1.295 . S
C7 O6 1.295 . S
C7 O9 1.235 . S
C8 O13 1.287 . S
C8 O14 1.255 . S
O9 Fe1 1.997 . S
O9 C7 1.235 . S
C10 O16 1.287 . S
C10 O17 1.255 . S
O11 Fe0 1.976 . S
O11 C18 1.287 . S
O12 Fe1 1.996 . S
O12 C18 1.255 . S
O13 Fe3 1.976 . S
O13 C8 1.287 . S
O14 Fe0 1.996 . S
O14 C8 1.255 . S
C15 O19 1.295 . S
C15 O20 1.235 . S
O16 Fe1 1.976 . S
O16 C10 1.287 . S
O17 Fe3 1.996 . S
O17 C10 1.255 . S
C18 O11 1.287 . S
C18 O12 1.255 . S
O19 Fe1 2.002 . S
O19 C15 1.295 . S
O20 Fe3 1.997 . S
O20 C15 1.235 . S
C21 O4 1.295 . S
C21 O5 1.235 . S
Fe22 O24 1.918 . S
Fe22 O27 1.997 . S
Fe22 O28 2.002 . S
Fe22 O33 1.976 . S
Fe22 O36 1.996 . S
Fe23 O24 1.918 . S
Fe23 O31 1.997 . S
Fe23 O34 1.996 . S
Fe23 O38 1.976 1_455 S
Fe23 O41 2.002 . S
O24 Fe22 1.918 . S
O24 Fe23 1.918 . S
O24 Fe25 1.918 . S
Fe25 O24 1.918 . S
Fe25 O26 2.002 . S
Fe25 O35 1.976 . S
Fe25 O39 1.996 . S
Fe25 O42 1.997 . S
O26 Fe25 2.002 . S
O26 C43 1.295 . S
O27 Fe22 1.997 . S
O27 C43 1.235 . S
O28 Fe22 2.002 . S
O28 C29 1.295 . S
C29 O28 1.295 . S
C29 O31 1.235 . S
C30 O35 1.287 . S
C30 O36 1.255 . S
O31 Fe23 1.997 . S
O31 C29 1.235 . S
C32 O38 1.287 . S
C32 O39 1.255 1_655 S
O33 Fe22 1.976 . S
O33 C40 1.287 . S
O34 Fe23 1.996 . S
O34 C40 1.255 . S
O35 Fe25 1.976 . S
O35 C30 1.287 . S
O36 Fe22 1.996 . S
O36 C30 1.255 . S
C37 O41 1.295 . S
C37 O42 1.235 . S
O38 Fe23 1.976 1_655 S
O38 C32 1.287 . S
O39 Fe25 1.996 . S
O39 C32 1.255 1_455 S
C40 O33 1.287 . S
C40 O34 1.255 . S
O41 Fe23 2.002 . S
O41 C37 1.295 . S
O42 Fe25 1.997 . S
O42 C37 1.235 . S
C43 O26 1.295 . S
C43 O27 1.235 . S
Fe44 O46 1.918 . S
Fe44 O49 1.997 . S
Fe44 O50 2.002 . S
Fe44 O55 1.976 1_545 S
Fe44 O58 1.996 . S
Fe45 O46 1.918 . S
Fe45 O53 1.997 . S
Fe45 O56 1.996 . S
Fe45 O60 1.976 . S
Fe45 O63 2.002 . S
O46 Fe44 1.918 . S
O46 Fe45 1.918 . S
O46 Fe47 1.918 . S
Fe47 O46 1.918 . S
Fe47 O48 2.002 . S
Fe47 O57 1.976 . S
Fe47 O61 1.996 . S
Fe47 O64 1.997 . S
O48 Fe47 2.002 . S
O48 C65 1.295 . S
O49 Fe44 1.997 . S
O49 C65 1.235 . S
O50 Fe44 2.002 . S
O50 C51 1.295 . S
C51 O50 1.295 . S
C51 O53 1.235 . S
C52 O57 1.287 . S
C52 O58 1.255 . S
O53 Fe45 1.997 . S
O53 C51 1.235 . S
C54 O60 1.287 . S
C54 O61 1.255 . S
O55 Fe44 1.976 1_565 S
O55 C62 1.287 . S
O56 Fe45 1.996 . S
O56 C62 1.255 1_545 S
O57 Fe47 1.976 . S
O57 C52 1.287 . S
O58 Fe44 1.996 . S
O58 C52 1.255 . S
C59 O63 1.295 . S
C59 O64 1.235 . S
O60 Fe45 1.976 . S
O60 C54 1.287 . S
O61 Fe47 1.996 . S
O61 C54 1.255 . S
C62 O55 1.287 . S
C62 O56 1.255 1_565 S
O63 Fe45 2.002 . S
O63 C59 1.295 . S
O64 Fe47 1.997 . S
O64 C59 1.235 . S
C65 O48 1.295 . S
C65 O49 1.235 . S
Fe66 O68 1.918 . S
Fe66 O71 1.997 1_556 S
Fe66 O72 2.002 . S
Fe66 O77 1.976 . S
Fe66 O80 1.996 . S
Fe67 O68 1.918 . S
Fe67 O75 1.997 . S
Fe67 O78 1.996 . S
Fe67 O82 1.976 . S
Fe67 O85 2.002 . S
O68 Fe66 1.918 . S
O68 Fe67 1.918 . S
O68 Fe69 1.918 . S
Fe69 O68 1.918 . S
Fe69 O70 2.002 . S
Fe69 O79 1.976 . S
Fe69 O83 1.996 . S
Fe69 O86 1.997 . S
O70 Fe69 2.002 . S
O70 C87 1.295 1_556 S
O71 Fe66 1.997 1_554 S
O71 C87 1.235 . S
O72 Fe66 2.002 . S
O72 C73 1.295 . S
C73 O72 1.295 . S
C73 O75 1.235 . S
C74 O79 1.287 . S
C74 O80 1.255 . S
O75 Fe67 1.997 . S
O75 C73 1.235 . S
C76 O82 1.287 . S
C76 O83 1.255 . S
O77 Fe66 1.976 . S
O77 C84 1.287 . S
O78 Fe67 1.996 . S
O78 C84 1.255 . S
O79 Fe69 1.976 . S
O79 C74 1.287 . S
O80 Fe66 1.996 . S
O80 C74 1.255 . S
C81 O85 1.295 . S
C81 O86 1.235 . S
O82 Fe67 1.976 . S
O82 C76 1.287 . S
O83 Fe69 1.996 . S
O83 C76 1.255 . S
C84 O77 1.287 . S
C84 O78 1.255 . S
O85 Fe67 2.002 . S
O85 C81 1.295 . S
O86 Fe69 1.997 . S
O86 C81 1.235 . S
C87 O70 1.295 1_554 S
C87 O71 1.235 . S
Fe88 O90 1.918 . S
Fe88 O93 1.997 . S
Fe88 O94 2.002 . S
Fe88 O99 1.976 1_655 S
Fe88 O102 1.996 . S
Fe89 O90 1.918 . S
Fe89 O97 1.997 . S
Fe89 O100 1.996 . S
Fe89 O104 1.976 . S
Fe89 O107 2.002 . S
O90 Fe88 1.918 . S
O90 Fe89 1.918 . S
O90 Fe91 1.918 . S
Fe91 O90 1.918 . S
Fe91 O92 2.002 . S
Fe91 O101 1.976 1_554 S
Fe91 O105 1.996 . S
Fe91 O108 1.997 . S
O92 Fe91 2.002 . S
O92 C109 1.295 . S
O93 Fe88 1.997 . S
O93 C109 1.235 . S
O94 Fe88 2.002 . S
O94 C95 1.295 . S
C95 O94 1.295 . S
C95 O97 1.235 . S
C96 O101 1.287 . S
C96 O102 1.255 1_556 S
O97 Fe89 1.997 . S
O97 C95 1.235 . S
C98 O104 1.287 . S
C98 O105 1.255 . S
O99 Fe88 1.976 1_455 S
O99 C106 1.287 . S
O100 Fe89 1.996 . S
O100 C106 1.255 1_655 S
O101 Fe91 1.976 1_556 S
O101 C96 1.287 . S
O102 Fe88 1.996 . S
O102 C96 1.255 1_554 S
C103 O107 1.295 . S
C103 O108 1.235 . S
O104 Fe89 1.976 . S
O104 C98 1.287 . S
O105 Fe91 1.996 . S
O105 C98 1.255 . S
C106 O99 1.287 . S
C106 O100 1.255 1_455 S
O107 Fe89 2.002 . S
O107 C103 1.295 . S
O108 Fe91 1.997 . S
O108 C103 1.235 . S
C109 O92 1.295 . S
C109 O93 1.235 . S
Fe110 O112 1.918 . S
Fe110 O115 1.997 . S
Fe110 O116 2.002 . S
Fe110 O121 1.976 . S
Fe110 O124 1.996 . S
Fe111 O112 1.918 . S
Fe111 O119 1.997 . S
Fe111 O122 1.996 . S
Fe111 O126 1.976 1_565 S
Fe111 O129 2.002 . S
O112 Fe110 1.918 . S
O112 Fe111 1.918 . S
O112 Fe113 1.918 . S
Fe113 O112 1.918 . S
Fe113 O114 2.002 . S
Fe113 O123 1.976 . S
Fe113 O127 1.996 . S
Fe113 O130 1.997 . S
O114 Fe113 2.002 . S
O114 C131 1.295 . S
O115 Fe110 1.997 . S
O115 C131 1.235 . S
O116 Fe110 2.002 . S
O116 C117 1.295 . S
C117 O116 1.295 . S
C117 O119 1.235 . S
C118 O123 1.287 . S
C118 O124 1.255 . S
O119 Fe111 1.997 . S
O119 C117 1.235 . S
C120 O126 1.287 . S
C120 O127 1.255 1_545 S
O121 Fe110 1.976 . S
O121 C128 1.287 . S
O122 Fe111 1.996 . S
O122 C128 1.255 . S
O123 Fe113 1.976 . S
O123 C118 1.287 . S
O124 Fe110 1.996 . S
O124 C118 1.255 . S
C125 O129 1.295 . S
C125 O130 1.235 . S
O126 Fe111 1.976 1_545 S
O126 C120 1.287 . S
O127 Fe113 1.996 . S
O127 C120 1.255 1_565 S
C128 O121 1.287 . S
C128 O122 1.255 . S
O129 Fe111 2.002 . S
O129 C125 1.295 . S
O130 Fe113 1.997 . S
O130 C125 1.235 . S
C131 O114 1.295 . S
C131 O115 1.235 . S
Fe132 O134 1.918 . S
Fe132 O137 1.997 . S
Fe132 O138 2.002 . S
Fe132 O143 1.976 . S
Fe132 O146 1.996 . S
Fe133 O134 1.918 . S
Fe133 O141 1.997 . S
Fe133 O144 1.996 . S
Fe133 O148 1.976 . S
Fe133 O151 2.002 . S
O134 Fe132 1.918 . S
O134 Fe133 1.918 . S
O134 Fe135 1.918 . S
Fe135 O134 1.918 . S
Fe135 O136 2.002 . S
Fe135 O145 1.976 . S
Fe135 O149 1.996 . S
Fe135 O152 1.997 . S
O136 Fe135 2.002 . S
O136 C153 1.295 . S
O137 Fe132 1.997 . S
O137 C153 1.235 . S
O138 Fe132 2.002 . S
O138 C139 1.295 . S
C139 O138 1.295 . S
C139 O141 1.235 . S
C140 O145 1.287 . S
C140 O146 1.255 . S
O141 Fe133 1.997 . S
O141 C139 1.235 . S
C142 O148 1.287 . S
C142 O149 1.255 . S
O143 Fe132 1.976 . S
O143 C150 1.287 . S
O144 Fe133 1.996 . S
O144 C150 1.255 . S
O145 Fe135 1.976 . S
O145 C140 1.287 . S
O146 Fe132 1.996 . S
O146 C140 1.255 . S
C147 O151 1.295 . S
C147 O152 1.235 . S
O148 Fe133 1.976 . S
O148 C142 1.287 . S
O149 Fe135 1.996 . S
O149 C142 1.255 . S
C150 O143 1.287 . S
C150 O144 1.255 . S
O151 Fe133 2.002 . S
O151 C147 1.295 . S
O152 Fe135 1.997 . S
O152 C147 1.235 . S
C153 O136 1.295 . S
C153 O137 1.235 . S
Fe154 O156 1.918 . S
Fe154 O159 1.997 . S
Fe154 O160 2.002 . S
Fe154 O165 1.976 . S
Fe154 O168 1.996 . S
Fe155 O156 1.918 . S
Fe155 O163 1.997 . S
Fe155 O166 1.996 . S
Fe155 O170 1.976 . S
Fe155 O173 2.002 . S
O156 Fe154 1.918 . S
O156 Fe155 1.918 . S
O156 Fe157 1.918 . S
Fe157 O156 1.918 . S
Fe157 O158 2.002 . S
Fe157 O167 1.976 1_455 S
Fe157 O171 1.996 . S
Fe157 O174 1.997 . S
O158 Fe157 2.002 . S
O158 C175 1.295 . S
O159 Fe154 1.997 . S
O159 C175 1.235 . S
O160 Fe154 2.002 . S
O160 C161 1.295 . S
C161 O160 1.295 . S
C161 O163 1.235 . S
C162 O167 1.287 . S
C162 O168 1.255 1_655 S
O163 Fe155 1.997 . S
O163 C161 1.235 . S
C164 O170 1.287 . S
C164 O171 1.255 . S
O165 Fe154 1.976 . S
O165 C172 1.287 . S
O166 Fe155 1.996 . S
O166 C172 1.255 . S
O167 Fe157 1.976 1_655 S
O167 C162 1.287 . S
O168 Fe154 1.996 . S
O168 C162 1.255 1_455 S
C169 O173 1.295 . S
C169 O174 1.235 . S
O170 Fe155 1.976 . S
O170 C164 1.287 . S
O171 Fe157 1.996 . S
O171 C164 1.255 . S
C172 O165 1.287 . S
C172 O166 1.255 . S
O173 Fe155 2.002 . S
O173 C169 1.295 . S
O174 Fe157 1.997 . S
O174 C169 1.235 . S
C175 O158 1.295 . S
C175 O159 1.235 . S
Fe176 O178 1.918 . S
Fe176 O181 1.997 . S
Fe176 O182 2.002 . S
Fe176 O187 1.976 1_545 S
Fe176 O190 1.996 . S
Fe177 O178 1.918 . S
Fe177 O185 1.997 . S
Fe177 O188 1.996 . S
Fe177 O192 1.976 . S
Fe177 O195 2.002 . S
O178 Fe176 1.918 . S
O178 Fe177 1.918 . S
O178 Fe179 1.918 . S
Fe179 O178 1.918 . S
Fe179 O180 2.002 . S
Fe179 O189 1.976 . S
Fe179 O193 1.996 . S
Fe179 O196 1.997 . S
O180 Fe179 2.002 . S
O180 C197 1.295 . S
O181 Fe176 1.997 . S
O181 C197 1.235 . S
O182 Fe176 2.002 . S
O182 C183 1.295 . S
C183 O182 1.295 . S
C183 O185 1.235 . S
C184 O189 1.287 . S
C184 O190 1.255 . S
O185 Fe177 1.997 . S
O185 C183 1.235 . S
C186 O192 1.287 . S
C186 O193 1.255 . S
O187 Fe176 1.976 1_565 S
O187 C194 1.287 . S
O188 Fe177 1.996 . S
O188 C194 1.255 1_545 S
O189 Fe179 1.976 . S
O189 C184 1.287 . S
O190 Fe176 1.996 . S
O190 C184 1.255 . S
C191 O195 1.295 . S
C191 O196 1.235 . S
O192 Fe177 1.976 . S
O192 C186 1.287 . S
O193 Fe179 1.996 . S
O193 C186 1.255 . S
C194 O187 1.287 . S
C194 O188 1.255 1_565 S
O195 Fe177 2.002 . S
O195 C191 1.295 . S
O196 Fe179 1.997 . S
O196 C191 1.235 . S
C197 O180 1.295 . S
C197 O181 1.235 . S
Fe198 O200 1.918 . S
Fe198 O203 1.997 . S
Fe198 O204 2.002 . S
Fe198 O209 1.976 . S
Fe198 O212 1.996 . S
Fe199 O200 1.918 . S
Fe199 O207 1.997 . S
Fe199 O210 1.996 . S
Fe199 O214 1.976 . S
Fe199 O217 2.002 . S
O200 Fe198 1.918 . S
O200 Fe199 1.918 . S
O200 Fe201 1.918 . S
Fe201 O200 1.918 . S
Fe201 O202 2.002 . S
Fe201 O211 1.976 1_556 S
Fe201 O215 1.996 . S
Fe201 O218 1.997 . S
O202 Fe201 2.002 . S
O202 C219 1.295 . S
O203 Fe198 1.997 . S
O203 C219 1.235 . S
O204 Fe198 2.002 . S
O204 C205 1.295 . S
C205 O204 1.295 . S
C205 O207 1.235 . S
C206 O211 1.287 . S
C206 O212 1.255 1_554 S
O207 Fe199 1.997 . S
O207 C205 1.235 . S
C208 O214 1.287 . S
C208 O215 1.255 . S
O209 Fe198 1.976 . S
O209 C216 1.287 . S
O210 Fe199 1.996 . S
O210 C216 1.255 . S
O211 Fe201 1.976 1_554 S
O211 C206 1.287 . S
O212 Fe198 1.996 . S
O212 C206 1.255 1_556 S
C213 O217 1.295 . S
C213 O218 1.235 . S
O214 Fe199 1.976 . S
O214 C208 1.287 . S
O215 Fe201 1.996 . S
O215 C208 1.255 . S
C216 O209 1.287 . S
C216 O210 1.255 . S
O217 Fe199 2.002 . S
O217 C213 1.295 . S
O218 Fe201 1.997 . S
O218 C213 1.235 . S
C219 O202 1.295 . S
C219 O203 1.235 . S
Fe220 O222 1.918 . S
Fe220 O225 1.997 . S
Fe220 O226 2.002 . S
Fe220 O231 1.976 1_655 S
Fe220 O234 1.996 . S
Fe221 O222 1.918 . S
Fe221 O229 1.997 1_554 S
Fe221 O232 1.996 . S
Fe221 O236 1.976 . S
Fe221 O239 2.002 . S
O222 Fe220 1.918 . S
O222 Fe221 1.918 . S
O222 Fe223 1.918 . S
Fe223 O222 1.918 . S
Fe223 O224 2.002 . S
Fe223 O233 1.976 . S
Fe223 O237 1.996 . S
Fe223 O240 1.997 . S
O224 Fe223 2.002 . S
O224 C241 1.295 . S
O225 Fe220 1.997 . S
O225 C241 1.235 . S
O226 Fe220 2.002 . S
O226 C227 1.295 1_554 S
C227 O226 1.295 1_556 S
C227 O229 1.235 . S
C228 O233 1.287 . S
C228 O234 1.255 . S
O229 Fe221 1.997 1_556 S
O229 C227 1.235 . S
C230 O236 1.287 . S
C230 O237 1.255 . S
O231 Fe220 1.976 1_455 S
O231 C238 1.287 . S
O232 Fe221 1.996 . S
O232 C238 1.255 1_655 S
O233 Fe223 1.976 . S
O233 C228 1.287 . S
O234 Fe220 1.996 . S
O234 C228 1.255 . S
C235 O239 1.295 . S
C235 O240 1.235 . S
O236 Fe221 1.976 . S
O236 C230 1.287 . S
O237 Fe223 1.996 . S
O237 C230 1.255 . S
C238 O231 1.287 . S
C238 O232 1.255 1_455 S
O239 Fe221 2.002 . S
O239 C235 1.295 . S
O240 Fe223 1.997 . S
O240 C235 1.235 . S
C241 O224 1.295 . S
C241 O225 1.235 . S
Fe242 O244 1.918 . S
Fe242 O247 1.997 . S
Fe242 O248 2.002 . S
Fe242 O253 1.976 1_565 S
Fe242 O256 1.996 . S
Fe243 O244 1.918 . S
Fe243 O251 1.997 . S
Fe243 O254 1.996 . S
Fe243 O258 1.976 . S
Fe243 O261 2.002 . S
O244 Fe242 1.918 . S
O244 Fe243 1.918 . S
O244 Fe245 1.918 . S
Fe245 O244 1.918 . S
Fe245 O246 2.002 . S
Fe245 O255 1.976 . S
Fe245 O259 1.996 . S
Fe245 O262 1.997 . S
O246 Fe245 2.002 . S
O246 C263 1.295 . S
O247 Fe242 1.997 . S
O247 C263 1.235 . S
O248 Fe242 2.002 . S
O248 C249 1.295 . S
C249 O248 1.295 . S
C249 O251 1.235 . S
C250 O255 1.287 . S
C250 O256 1.255 . S
O251 Fe243 1.997 . S
O251 C249 1.235 . S
C252 O258 1.287 . S
C252 O259 1.255 . S
O253 Fe242 1.976 1_545 S
O253 C260 1.287 . S
O254 Fe243 1.996 . S
O254 C260 1.255 1_565 S
O255 Fe245 1.976 . S
O255 C250 1.287 . S
O256 Fe242 1.996 . S
O256 C250 1.255 . S
C257 O261 1.295 . S
C257 O262 1.235 . S
O258 Fe243 1.976 . S
O258 C252 1.287 . S
O259 Fe245 1.996 . S
O259 C252 1.255 . S
C260 O253 1.287 . S
C260 O254 1.255 1_545 S
O261 Fe243 2.002 . S
O261 C257 1.295 . S
O262 Fe245 1.997 . S
O262 C257 1.235 . S
C263 O246 1.295 . S
C263 O247 1.235 . S
H264 C272 0.950 . S
H265 C277 0.950 . S
H266 C274 0.950 . S
H267 C276 0.950 . S
H268 C278 0.950 . S
H269 C280 0.950 . S
H270 C282 0.950 . S
H271 C283 0.950 . S
C272 H264 0.950 . S
C272 C273 1.386 . S
C272 C274 1.391 . S
C273 C272 1.386 . S
C273 C277 1.393 . S
C274 H266 0.950 . S
C274 C272 1.391 . S
C274 C275 1.400 . S
C275 C274 1.400 . S
C275 C276 1.398 . S
C275 C281 1.491 . S
C276 H267 0.950 . S
C276 C275 1.398 . S
C276 C277 1.391 . S
C277 H265 0.950 . S
C277 C273 1.393 . S
C277 C276 1.391 . S
C278 H268 0.950 . S
C278 C279 1.386 . S
C278 C280 1.391 . S
C279 C278 1.386 . S
C279 C283 1.393 . S
C280 H269 0.950 . S
C280 C278 1.391 . S
C280 C281 1.400 . S
C281 C275 1.491 . S
C281 C280 1.400 . S
C281 C282 1.398 . S
C282 H270 0.950 . S
C282 C281 1.398 . S
C282 C283 1.391 . S
C283 H271 0.950 . S
C283 C279 1.393 . S
C283 C282 1.391 . S
H284 C292 0.950 . S
H285 C297 0.950 . S
H286 C294 0.950 . S
H287 C296 0.950 . S
H288 C298 0.950 . S
H289 C300 0.950 . S
H290 C302 0.950 . S
H291 C303 0.950 . S
C292 H284 0.950 . S
C292 C293 1.386 . S
C292 C294 1.391 . S
C293 C292 1.386 . S
C293 C297 1.393 . S
C294 H286 0.950 . S
C294 C292 1.391 . S
C294 C295 1.400 . S
C295 C294 1.400 . S
C295 C296 1.398 . S
C295 C301 1.491 . S
C296 H287 0.950 . S
C296 C295 1.398 . S
C296 C297 1.391 . S
C297 H285 0.950 . S
C297 C293 1.393 . S
C297 C296 1.391 . S
C298 H288 0.950 . S
C298 C299 1.386 . S
C298 C300 1.391 . S
C299 C298 1.386 . S
C299 C303 1.393 . S
C300 H289 0.950 . S
C300 C298 1.391 . S
C300 C301 1.400 . S
C301 C295 1.491 . S
C301 C300 1.400 . S
C301 C302 1.398 . S
C302 H290 0.950 . S
C302 C301 1.398 . S
C302 C303 1.391 . S
C303 H291 0.950 . S
C303 C299 1.393 . S
C303 C302 1.391 . S
H304 C312 0.963 . S
H305 C317 0.950 . S
H306 C314 0.950 . S
H307 C316 0.950 . S
H308 C318 0.950 . S
H309 C320 0.950 . S
H310 C322 0.950 . S
H311 C323 0.950 . S
C312 H304 0.963 . S
C312 C313 1.387 . S
C312 C314 1.377 1_554 S
C313 C312 1.387 . S
C313 C317 1.393 1_554 S
C314 H306 0.950 . S
C314 C312 1.377 1_556 S
C314 C315 1.400 . S
C315 C314 1.400 . S
C315 C316 1.398 . S
C315 C321 1.491 . S
C316 H307 0.950 . S
C316 C315 1.398 . S
C316 C317 1.391 . S
C317 H305 0.950 . S
C317 C313 1.393 1_556 S
C317 C316 1.391 . S
C318 H308 0.950 . S
C318 C319 1.386 . S
C318 C320 1.391 . S
C319 C318 1.386 . S
C319 C323 1.393 . S
C320 H309 0.950 . S
C320 C318 1.391 . S
C320 C321 1.400 . S
C321 C315 1.491 . S
C321 C320 1.400 . S
C321 C322 1.398 . S
C322 H310 0.950 . S
C322 C321 1.398 . S
C322 C323 1.391 . S
C323 H311 0.950 . S
C323 C319 1.393 . S
C323 C322 1.391 . S
H324 C332 0.950 . S
H325 C337 0.950 . S
H326 C334 0.950 . S
H327 C336 0.950 . S
H328 C338 0.950 . S
H329 C340 0.950 . S
H330 C342 0.950 . S
H331 C343 0.950 . S
C332 H324 0.950 . S
C332 C333 1.386 . S
C332 C334 1.391 . S
C333 C332 1.386 . S
C333 C337 1.393 . S
C334 H326 0.950 . S
C334 C332 1.391 . S
C334 C335 1.400 . S
C335 C334 1.400 . S
C335 C336 1.398 . S
C335 C341 1.491 . S
C336 H327 0.950 . S
C336 C335 1.398 . S
C336 C337 1.391 . S
C337 H325 0.950 . S
C337 C333 1.393 . S
C337 C336 1.391 . S
C338 H328 0.950 . S
C338 C339 1.386 . S
C338 C340 1.391 1_556 S
C339 C338 1.386 . S
C339 C343 1.393 1_556 S
C340 H329 0.950 . S
C340 C338 1.391 1_554 S
C340 C341 1.400 . S
C341 C335 1.491 . S
C341 C340 1.400 . S
C341 C342 1.398 . S
C342 H330 0.950 . S
C342 C341 1.398 . S
C342 C343 1.391 . S
C343 H331 0.950 . S
C343 C339 1.393 1_554 S
C343 C342 1.391 . S
H344 C352 0.950 . S
H345 C357 0.950 . S
H346 C354 0.950 . S
H347 C356 0.950 . S
H348 C358 0.950 . S
H349 C360 0.950 . S
H350 C362 0.950 . S
H351 C363 0.950 . S
C352 H344 0.950 . S
C352 C353 1.386 . S
C352 C354 1.391 . S
C353 C352 1.386 . S
C353 C357 1.393 . S
C354 H346 0.950 . S
C354 C352 1.391 . S
C354 C355 1.400 . S
C355 C354 1.400 . S
C355 C356 1.398 . S
C355 C361 1.491 . S
C356 H347 0.950 . S
C356 C355 1.398 . S
C356 C357 1.391 . S
C357 H345 0.950 . S
C357 C353 1.393 . S
C357 C356 1.391 . S
C358 H348 0.950 . S
C358 C359 1.386 . S
C358 C360 1.391 . S
C359 C358 1.386 . S
C359 C363 1.393 . S
C360 H349 0.950 . S
C360 C358 1.391 . S
C360 C361 1.400 . S
C361 C355 1.491 . S
C361 C360 1.400 . S
C361 C362 1.398 . S
C362 H350 0.950 . S
C362 C361 1.398 . S
C362 C363 1.391 . S
C363 H351 0.950 . S
C363 C359 1.393 . S
C363 C362 1.391 . S
H364 C372 0.950 . S
H365 C377 0.950 . S
H366 C374 0.950 . S
H367 C376 0.950 . S
H368 C378 0.950 . S
H369 C380 0.950 . S
H370 C382 0.950 . S
H371 C383 0.950 . S
C372 H364 0.950 . S
C372 C373 1.386 . S
C372 C374 1.391 . S
C373 C372 1.386 . S
C373 C377 1.393 . S
C374 H366 0.950 . S
C374 C372 1.391 . S
C374 C375 1.400 . S
C375 C374 1.400 . S
C375 C376 1.398 . S
C375 C381 1.491 . S
C376 H367 0.950 . S
C376 C375 1.398 . S
C376 C377 1.391 . S
C377 H365 0.950 . S
C377 C373 1.393 . S
C377 C376 1.391 . S
C378 H368 0.950 . S
C378 C379 1.386 . S
C378 C380 1.391 . S
C379 C378 1.386 . S
C379 C383 1.393 . S
C380 H369 0.950 . S
C380 C378 1.391 . S
C380 C381 1.400 . S
C381 C375 1.491 . S
C381 C380 1.400 . S
C381 C382 1.398 . S
C382 H370 0.950 . S
C382 C381 1.398 . S
C382 C383 1.391 . S
C383 H371 0.950 . S
C383 C379 1.393 . S
C383 C382 1.391 . S
H384 C392 0.950 . S
H385 C397 0.950 . S
H386 C394 0.950 . S
H387 C396 0.950 . S
H388 C398 0.950 . S
H389 C400 0.950 . S
H390 C402 0.950 . S
H391 C403 0.950 . S
C392 H384 0.950 . S
C392 C393 1.386 . S
C392 C394 1.391 . S
C393 C392 1.386 . S
C393 C397 1.393 . S
C394 H386 0.950 . S
C394 C392 1.391 . S
C394 C395 1.400 . S
C395 C394 1.400 . S
C395 C396 1.398 . S
C395 C401 1.491 . S
C396 H387 0.950 . S
C396 C395 1.398 . S
C396 C397 1.391 . S
C397 H385 0.950 . S
C397 C393 1.393 . S
C397 C396 1.391 . S
C398 H388 0.950 . S
C398 C399 1.386 . S
C398 C400 1.391 . S
C399 C398 1.386 . S
C399 C403 1.393 . S
C400 H389 0.950 . S
C400 C398 1.391 . S
C400 C401 1.400 . S
C401 C395 1.491 . S
C401 C400 1.400 . S
C401 C402 1.398 . S
C402 H390 0.950 . S
C402 C401 1.398 . S
C402 C403 1.391 . S
C403 H391 0.950 . S
C403 C399 1.393 . S
C403 C402 1.391 . S
H404 C412 0.950 . S
H405 C417 0.950 . S
H406 C414 0.950 . S
H407 C416 0.950 . S
H408 C418 0.950 . S
H409 C420 0.950 . S
H410 C422 0.950 . S
H411 C423 0.950 . S
C412 H404 0.950 . S
C412 C413 1.386 . S
C412 C414 1.391 . S
C413 C412 1.386 . S
C413 C417 1.393 . S
C414 H406 0.950 . S
C414 C412 1.391 . S
C414 C415 1.400 . S
C415 C414 1.400 . S
C415 C416 1.398 . S
C415 C421 1.491 . S
C416 H407 0.950 . S
C416 C415 1.398 . S
C416 C417 1.391 . S
C417 H405 0.950 . S
C417 C413 1.393 . S
C417 C416 1.391 . S
C418 H408 0.950 . S
C418 C419 1.386 . S
C418 C420 1.391 . S
C419 C418 1.386 . S
C419 C423 1.393 . S
C420 H409 0.950 . S
C420 C418 1.391 . S
C420 C421 1.400 . S
C421 C415 1.491 . S
C421 C420 1.400 . S
C421 C422 1.398 . S
C422 H410 0.950 . S
C422 C421 1.398 . S
C422 C423 1.391 . S
C423 H411 0.950 . S
C423 C419 1.393 . S
C423 C422 1.391 . S
H424 C432 0.950 . S
H425 C437 0.950 . S
H426 C434 0.950 . S
H427 C436 0.950 . S
H428 C438 0.950 . S
H429 C440 0.950 . S
H430 C442 0.950 . S
H431 C443 0.950 . S
C432 H424 0.950 . S
C432 C433 1.386 . S
C432 C434 1.391 . S
C433 C432 1.386 . S
C433 C437 1.393 . S
C434 H426 0.950 . S
C434 C432 1.391 . S
C434 C435 1.400 . S
C435 C434 1.400 . S
C435 C436 1.398 . S
C435 C441 1.491 . S
C436 H427 0.950 . S
C436 C435 1.398 . S
C436 C437 1.391 . S
C437 H425 0.950 . S
C437 C433 1.393 . S
C437 C436 1.391 . S
C438 H428 0.950 . S
C438 C439 1.386 . S
C438 C440 1.391 . S
C439 C438 1.386 . S
C439 C443 1.393 . S
C440 H429 0.950 . S
C440 C438 1.391 . S
C440 C441 1.400 . S
C441 C435 1.491 . S
C441 C440 1.400 . S
C441 C442 1.398 . S
C442 H430 0.950 . S
C442 C441 1.398 . S
C442 C443 1.391 . S
C443 H431 0.950 . S
C443 C439 1.393 . S
C443 C442 1.391 . S
H444 C452 0.950 . S
H445 C457 0.950 . S
H446 C454 0.950 . S
H447 C456 0.950 . S
H448 C458 0.950 . S
H449 C460 0.950 . S
H450 C462 0.950 . S
H451 C463 0.950 . S
C452 H444 0.950 . S
C452 C453 1.386 . S
C452 C454 1.391 . S
C453 C452 1.386 . S
C453 C457 1.393 . S
C454 H446 0.950 . S
C454 C452 1.391 . S
C454 C455 1.400 . S
C455 C454 1.400 . S
C455 C456 1.398 . S
C455 C461 1.491 . S
C456 H447 0.950 . S
C456 C455 1.398 . S
C456 C457 1.391 . S
C457 H445 0.950 . S
C457 C453 1.393 . S
C457 C456 1.391 . S
C458 H448 0.950 . S
C458 C459 1.386 . S
C458 C460 1.391 . S
C459 C458 1.386 . S
C459 C463 1.393 . S
C460 H449 0.950 . S
C460 C458 1.391 . S
C460 C461 1.400 . S
C461 C455 1.491 . S
C461 C460 1.400 . S
C461 C462 1.398 . S
C462 H450 0.950 . S
C462 C461 1.398 . S
C462 C463 1.391 . S
C463 H451 0.950 . S
C463 C459 1.393 . S
C463 C462 1.391 . S
H464 C472 0.950 . S
H465 C477 0.950 . S
H466 C474 0.950 . S
H467 C476 0.950 . S
H468 C478 0.950 . S
H469 C480 0.950 . S
H470 C482 0.950 . S
H471 C483 0.950 . S
C472 H464 0.950 . S
C472 C473 1.386 . S
C472 C474 1.391 . S
C473 C472 1.386 . S
C473 C477 1.393 . S
C474 H466 0.950 . S
C474 C472 1.391 . S
C474 C475 1.400 . S
C475 C474 1.400 . S
C475 C476 1.398 . S
C475 C481 1.491 . S
C476 H467 0.950 . S
C476 C475 1.398 . S
C476 C477 1.391 . S
C477 H465 0.950 . S
C477 C473 1.393 . S
C477 C476 1.391 . S
C478 H468 0.950 . S
C478 C479 1.386 . S
C478 C480 1.391 . S
C479 C478 1.386 . S
C479 C483 1.393 . S
C480 H469 0.950 . S
C480 C478 1.391 . S
C480 C481 1.400 . S
C481 C475 1.491 . S
C481 C480 1.400 . S
C481 C482 1.398 . S
C482 H470 0.950 . S
C482 C481 1.398 . S
C482 C483 1.391 . S
C483 H471 0.950 . S
C483 C479 1.393 . S
C483 C482 1.391 . S
H484 C492 0.950 . S
H485 C497 0.950 . S
H486 C494 0.950 . S
H487 C496 0.950 . S
H488 C498 0.950 . S
H489 C500 0.950 . S
H490 C502 0.950 . S
H491 C503 0.950 . S
C492 H484 0.950 . S
C492 C493 1.386 . S
C492 C494 1.391 . S
C493 C492 1.386 . S
C493 C497 1.393 . S
C494 H486 0.950 . S
C494 C492 1.391 . S
C494 C495 1.400 . S
C495 C494 1.400 . S
C495 C496 1.398 . S
C495 C501 1.491 . S
C496 H487 0.950 . S
C496 C495 1.398 . S
C496 C497 1.391 . S
C497 H485 0.950 . S
C497 C493 1.393 . S
C497 C496 1.391 . S
C498 H488 0.950 . S
C498 C499 1.386 . S
C498 C500 1.391 . S
C499 C498 1.386 . S
C499 C503 1.393 . S
C500 H489 0.950 . S
C500 C498 1.391 . S
C500 C501 1.400 . S
C501 C495 1.491 . S
C501 C500 1.400 . S
C501 C502 1.398 . S
C502 H490 0.950 . S
C502 C501 1.398 . S
C502 C503 1.391 . S
C503 H491 0.950 . S
C503 C499 1.393 . S
C503 C502 1.391 . S
H504 C512 0.950 . S
H505 C517 0.950 . S
H506 C514 0.950 . S
H507 C516 0.950 . S
H508 C518 0.950 . S
H509 C520 0.950 . S
H510 C522 0.950 . S
H511 C523 0.950 . S
C512 H504 0.950 . S
C512 C513 1.386 . S
C512 C514 1.391 . S
C513 C512 1.386 . S
C513 C517 1.393 . S
C514 H506 0.950 . S
C514 C512 1.391 . S
C514 C515 1.400 . S
C515 C514 1.400 . S
C515 C516 1.398 . S
C515 C521 1.491 . S
C516 H507 0.950 . S
C516 C515 1.398 . S
C516 C517 1.391 . S
C517 H505 0.950 . S
C517 C513 1.393 . S
C517 C516 1.391 . S
C518 H508 0.950 . S
C518 C519 1.386 . S
C518 C520 1.391 . S
C519 C518 1.386 . S
C519 C523 1.393 . S
C520 H509 0.950 . S
C520 C518 1.391 . S
C520 C521 1.400 . S
C521 C515 1.491 . S
C521 C520 1.400 . S
C521 C522 1.398 . S
C522 H510 0.950 . S
C522 C521 1.398 . S
C522 C523 1.391 . S
C523 H511 0.950 . S
C523 C519 1.393 . S
C523 C522 1.391 . S
H524 C532 0.950 . S
H525 C537 0.950 . S
H526 C534 0.950 . S
H527 C536 0.950 . S
H528 C538 0.950 . S
H529 C540 0.950 . S
H530 C542 0.950 . S
H531 C543 0.950 . S
C532 H524 0.950 . S
C532 C533 1.386 . S
C532 C534 1.391 1_655 S
C533 C532 1.386 . S
C533 C537 1.393 . S
C534 H526 0.950 . S
C534 C532 1.391 1_455 S
C534 C535 1.400 1_455 S
C535 C534 1.400 1_655 S
C535 C536 1.398 . S
C535 C541 1.491 1_655 S
C536 H527 0.950 . S
C536 C535 1.398 . S
C536 C537 1.391 . S
C537 H525 0.950 . S
C537 C533 1.393 . S
C537 C536 1.391 . S
C538 H528 0.950 . S
C538 C539 1.386 . S
C538 C540 1.391 1_455 S
C539 C538 1.386 . S
C539 C543 1.393 . S
C540 H529 0.950 . S
C540 C538 1.391 1_655 S
C540 C541 1.400 1_655 S
C541 C535 1.491 1_455 S
C541 C540 1.400 1_455 S
C541 C542 1.398 . S
C542 H530 0.950 . S
C542 C541 1.398 . S
C542 C543 1.391 . S
C543 H531 0.950 . S
C543 C539 1.393 . S
C543 C542 1.391 . S
H544 C552 0.950 . S
H545 C557 0.950 . S
H546 C554 0.950 . S
H547 C556 0.950 . S
H548 C558 0.950 . S
H549 C560 0.950 . S
H550 C562 0.950 . S
H551 C563 0.950 . S
C552 H544 0.950 . S
C552 C553 1.386 1_565 S
C552 C554 1.391 . S
C553 C552 1.386 1_545 S
C553 C557 1.393 . S
C554 H546 0.950 . S
C554 C552 1.391 . S
C554 C555 1.400 1_565 S
C555 C554 1.400 1_545 S
C555 C556 1.398 . S
C555 C561 1.491 1_546 S
C556 H547 0.950 . S
C556 C555 1.398 . S
C556 C557 1.391 . S
C557 H545 0.950 . S
C557 C553 1.393 . S
C557 C556 1.391 . S
C558 H548 0.950 . S
C558 C559 1.386 1_545 S
C558 C560 1.391 . S
C559 C558 1.386 1_565 S
C559 C563 1.393 . S
C560 H549 0.950 . S
C560 C558 1.391 . S
C560 C561 1.400 1_545 S
C561 C555 1.491 1_564 S
C561 C560 1.400 1_565 S
C561 C562 1.398 . S
C562 H550 0.950 . S
C562 C561 1.398 . S
C562 C563 1.391 . S
C563 H551 0.950 . S
C563 C559 1.393 . S
C563 C562 1.391 . S
H564 C572 0.950 . S
H565 C577 0.950 . S
H566 C574 0.950 . S
H567 C576 0.950 . S
H568 C578 0.950 . S
H569 C580 0.950 . S
H570 C582 0.950 . S
H571 C583 0.950 . S
C572 H564 0.950 . S
C572 C573 1.386 . S
C572 C574 1.391 . S
C573 C572 1.386 . S
C573 C577 1.393 . S
C574 H566 0.950 . S
C574 C572 1.391 . S
C574 C575 1.400 . S
C575 C574 1.400 . S
C575 C576 1.398 . S
C575 C581 1.491 . S
C576 H567 0.950 . S
C576 C575 1.398 . S
C576 C577 1.391 . S
C577 H565 0.950 . S
C577 C573 1.393 . S
C577 C576 1.391 . S
C578 H568 0.950 . S
C578 C579 1.386 . S
C578 C580 1.391 . S
C579 C578 1.386 . S
C579 C583 1.393 . S
C580 H569 0.950 . S
C580 C578 1.391 . S
C580 C581 1.400 . S
C581 C575 1.491 . S
C581 C580 1.400 . S
C581 C582 1.398 . S
C582 H570 0.950 . S
C582 C581 1.398 . S
C582 C583 1.391 . S
C583 H571 0.950 . S
C583 C579 1.393 . S
C583 C582 1.391 . S
H584 C592 0.950 . S
H585 C597 0.950 . S
H586 C594 0.950 . S
H587 C596 0.950 . S
H588 C598 0.950 . S
H589 C600 0.950 . S
H590 C602 0.950 . S
H591 C603 0.950 . S
C592 H584 0.950 . S
C592 C593 1.386 . S
C592 C594 1.391 . S
C593 C592 1.386 . S
C593 C597 1.393 1_455 S
C594 H586 0.950 . S
C594 C592 1.391 . S
C594 C595 1.400 . S
C595 C594 1.400 . S
C595 C596 1.398 1_455 S
C595 C601 1.491 1_455 S
C596 H587 0.950 . S
C596 C595 1.398 1_655 S
C596 C597 1.391 . S
C597 H585 0.950 . S
C597 C593 1.393 1_655 S
C597 C596 1.391 . S
C598 H588 0.950 . S
C598 C599 1.386 . S
C598 C600 1.391 . S
C599 C598 1.386 . S
C599 C603 1.393 1_655 S
C600 H589 0.950 . S
C600 C598 1.391 . S
C600 C601 1.400 . S
C601 C595 1.491 1_655 S
C601 C600 1.400 . S
C601 C602 1.398 1_655 S
C602 H590 0.950 . S
C602 C601 1.398 1_455 S
C602 C603 1.391 . S
C603 H591 0.950 . S
C603 C599 1.393 1_455 S
C603 C602 1.391 . S
H604 C612 0.950 . S
H605 C617 0.950 . S
H606 C614 0.950 . S
H607 C616 0.950 . S
H608 C618 0.950 . S
H609 C620 0.950 . S
H610 C622 0.950 . S
H611 C623 0.950 . S
C612 H604 0.950 . S
C612 C613 1.386 1_545 S
C612 C614 1.391 . S
C613 C612 1.386 1_565 S
C613 C617 1.393 . S
C614 H606 0.950 . S
C614 C612 1.391 . S
C614 C615 1.400 1_545 S
C615 C614 1.400 1_565 S
C615 C616 1.398 . S
C615 C621 1.491 1_565 S
C616 H607 0.950 . S
C616 C615 1.398 . S
C616 C617 1.391 . S
C617 H605 0.950 . S
C617 C613 1.393 . S
C617 C616 1.391 . S
C618 H608 0.950 . S
C618 C619 1.386 1_565 S
C618 C620 1.391 . S
C619 C618 1.386 1_545 S
C619 C623 1.393 . S
C620 H609 0.950 . S
C620 C618 1.391 . S
C620 C621 1.400 1_565 S
C621 C615 1.491 1_545 S
C621 C620 1.400 1_545 S
C621 C622 1.398 . S
C622 H610 0.950 . S
C622 C621 1.398 . S
C622 C623 1.391 . S
C623 H611 0.950 . S
C623 C619 1.393 . S
C623 C622 1.391 . S
H624 C632 0.950 . S
H625 C637 0.950 . S
H626 C634 0.950 . S
H627 C636 0.950 . S
H628 C638 0.950 . S
H629 C640 0.950 . S
H630 C642 0.950 . S
H631 C643 0.950 . S
C632 H624 0.950 . S
C632 C633 1.386 . S
C632 C634 1.391 . S
C633 C632 1.386 . S
C633 C637 1.393 . S
C634 H626 0.950 . S
C634 C632 1.391 . S
C634 C635 1.400 . S
C635 C634 1.400 . S
C635 C636 1.398 . S
C635 C641 1.491 . S
C636 H627 0.950 . S
C636 C635 1.398 . S
C636 C637 1.391 . S
C637 H625 0.950 . S
C637 C633 1.393 . S
C637 C636 1.391 . S
C638 H628 0.950 . S
C638 C639 1.386 . S
C638 C640 1.391 . S
C639 C638 1.386 . S
C639 C643 1.393 . S
C640 H629 0.950 . S
C640 C638 1.391 . S
C640 C641 1.400 . S
C641 C635 1.491 . S
C641 C640 1.400 . S
C641 C642 1.398 . S
C642 H630 0.950 . S
C642 C641 1.398 . S
C642 C643 1.391 . S
C643 H631 0.950 . S
C643 C639 1.393 . S
C643 C642 1.391 . S
H644 C652 0.950 . S
H645 C657 0.950 . S
H646 C654 0.950 . S
H647 C656 0.950 . S
H648 C658 0.950 . S
H649 C660 0.950 . S
H650 C662 0.950 . S
H651 C663 0.950 . S
C652 H644 0.950 . S
C652 C653 1.386 . S
C652 C654 1.391 . S
C653 C652 1.386 . S
C653 C657 1.393 . S
C654 H646 0.950 . S
C654 C652 1.391 . S
C654 C655 1.400 . S
C655 C654 1.400 . S
C655 C656 1.398 . S
C655 C661 1.491 . S
C656 H647 0.950 . S
C656 C655 1.398 . S
C656 C657 1.391 . S
C657 H645 0.950 . S
C657 C653 1.393 . S
C657 C656 1.391 . S
C658 H648 0.950 . S
C658 C659 1.386 . S
C658 C660 1.391 . S
C659 C658 1.386 . S
C659 C663 1.393 . S
C660 H649 0.950 . S
C660 C658 1.391 . S
C660 C661 1.400 . S
C661 C655 1.491 . S
C661 C660 1.400 . S
C661 C662 1.398 . S
C662 H650 0.950 . S
C662 C661 1.398 . S
C662 C663 1.391 . S
C663 H651 0.950 . S
C663 C659 1.393 . S
C663 C662 1.391 . S
H664 C672 0.950 . S
H665 C677 0.950 . S
H666 C674 0.950 . S
H667 C676 0.950 . S
H668 C678 0.950 . S
H669 C680 0.950 . S
H670 C682 0.950 . S
H671 C683 0.950 . S
C672 H664 0.950 . S
C672 C673 1.386 . S
C672 C674 1.391 . S
C673 C672 1.386 . S
C673 C677 1.393 . S
C674 H666 0.950 . S
C674 C672 1.391 . S
C674 C675 1.400 . S
C675 C674 1.400 . S
C675 C676 1.398 . S
C675 C681 1.491 . S
C676 H667 0.950 . S
C676 C675 1.398 . S
C676 C677 1.391 . S
C677 H665 0.950 . S
C677 C673 1.393 . S
C677 C676 1.391 . S
C678 H668 0.950 . S
C678 C679 1.386 . S
C678 C680 1.391 . S
C679 C678 1.386 . S
C679 C683 1.393 . S
C680 H669 0.950 . S
C680 C678 1.391 . S
C680 C681 1.400 . S
C681 C675 1.491 . S
C681 C680 1.400 . S
C681 C682 1.398 . S
C682 H670 0.950 . S
C682 C681 1.398 . S
C682 C683 1.391 . S
C683 H671 0.950 . S
C683 C679 1.393 . S
C683 C682 1.391 . S
H684 C692 0.950 . S
H685 C697 0.950 . S
H686 C694 0.950 . S
H687 C696 0.950 . S
H688 C698 0.950 . S
H689 C700 0.950 . S
H690 C702 0.950 . S
H691 C703 0.950 . S
C692 H684 0.950 . S
C692 C693 1.386 . S
C692 C694 1.391 . S
C693 C692 1.386 . S
C693 C697 1.393 . S
C694 H686 0.950 . S
C694 C692 1.391 . S
C694 C695 1.400 . S
C695 C694 1.400 . S
C695 C696 1.398 . S
C695 C701 1.491 . S
C696 H687 0.950 . S
C696 C695 1.398 . S
C696 C697 1.391 . S
C697 H685 0.950 . S
C697 C693 1.393 . S
C697 C696 1.391 . S
C698 H688 0.950 . S
C698 C699 1.386 . S
C698 C700 1.391 . S
C699 C698 1.386 . S
C699 C703 1.393 . S
C700 H689 0.950 . S
C700 C698 1.391 . S
C700 C701 1.400 . S
C701 C695 1.491 . S
C701 C700 1.400 . S
C701 C702 1.398 . S
C702 H690 0.950 . S
C702 C701 1.398 . S
C702 C703 1.391 . S
C703 H691 0.950 . S
C703 C699 1.393 . S
C703 C702 1.391 . S
H704 C712 0.950 . S
H705 C717 0.950 . S
H706 C714 0.950 1_554 S
H707 C716 0.950 . S
H708 C718 0.949 1_556 S
H709 C720 0.950 . S
H710 C722 0.950 . S
H711 C723 0.950 . S
C712 H704 0.950 . S
C712 C713 1.386 . S
C712 C714 1.391 . S
C713 C712 1.386 . S
C713 C717 1.393 . S
C714 H706 0.950 1_556 S
C714 C712 1.391 . S
C714 C715 1.400 . S
C715 C714 1.400 . S
C715 C716 1.398 . S
C715 C721 1.491 . S
C716 H707 0.950 . S
C716 C715 1.398 . S
C716 C717 1.391 . S
C717 H705 0.950 . S
C717 C713 1.393 . S
C717 C716 1.391 . S
C718 H708 0.949 1_554 S
C718 C719 1.386 . S
C718 C720 1.391 1_554 S
C719 C718 1.386 . S
C719 C723 1.393 . S
C720 H709 0.950 . S
C720 C718 1.391 1_556 S
C720 C721 1.400 . S
C721 C715 1.491 . S
C721 C720 1.400 . S
C721 C722 1.398 1_556 S
C722 H710 0.950 . S
C722 C721 1.398 1_554 S
C722 C723 1.391 . S
C723 H711 0.950 . S
C723 C719 1.393 . S
C723 C722 1.391 . S
H724 C732 0.950 . S
H725 C737 0.950 . S
H726 C734 0.950 . S
H727 C736 0.950 . S
H728 C738 0.950 . S
H729 C740 0.950 . S
H730 C742 0.950 . S
H731 C743 0.950 . S
C732 H724 0.950 . S
C732 C733 1.386 . S
C732 C734 1.391 . S
C733 C732 1.386 . S
C733 C737 1.393 . S
C734 H726 0.950 . S
C734 C732 1.391 . S
C734 C735 1.400 . S
C735 C734 1.400 . S
C735 C736 1.398 . S
C735 C741 1.491 . S
C736 H727 0.950 . S
C736 C735 1.398 . S
C736 C737 1.391 . S
C737 H725 0.950 . S
C737 C733 1.393 . S
C737 C736 1.391 . S
C738 H728 0.950 . S
C738 C739 1.386 . S
C738 C740 1.391 . S
C739 C738 1.386 . S
C739 C743 1.393 . S
C740 H729 0.950 . S
C740 C738 1.391 . S
C740 C741 1.400 . S
C741 C735 1.491 . S
C741 C740 1.400 . S
C741 C742 1.398 . S
C742 H730 0.950 . S
C742 C741 1.398 . S
C742 C743 1.391 . S
C743 H731 0.950 . S
C743 C739 1.393 . S
C743 C742 1.391 . S
H744 C752 0.950 . S
H745 C757 0.950 . S
H746 C754 0.950 . S
H747 C756 0.950 . S
H748 C758 0.950 . S
H749 C760 0.950 . S
H750 C762 0.950 . S
H751 C763 0.950 . S
C752 H744 0.950 . S
C752 C753 1.386 . S
C752 C754 1.391 . S
C753 C752 1.386 . S
C753 C757 1.393 . S
C754 H746 0.950 . S
C754 C752 1.391 . S
C754 C755 1.400 . S
C755 C754 1.400 . S
C755 C756 1.398 . S
C755 C761 1.491 . S
C756 H747 0.950 . S
C756 C755 1.398 . S
C756 C757 1.391 . S
C757 H745 0.950 . S
C757 C753 1.393 . S
C757 C756 1.391 . S
C758 H748 0.950 . S
C758 C759 1.386 . S
C758 C760 1.391 . S
C759 C758 1.386 . S
C759 C763 1.393 . S
C760 H749 0.950 . S
C760 C758 1.391 . S
C760 C761 1.400 . S
C761 C755 1.491 . S
C761 C760 1.400 . S
C761 C762 1.398 . S
C762 H750 0.950 . S
C762 C761 1.398 . S
C762 C763 1.391 . S
C763 H751 0.950 . S
C763 C759 1.393 . S
C763 C762 1.391 . S
H764 C772 0.950 . S
H765 C777 0.950 . S
H766 C774 0.950 . S
H767 C776 0.950 . S
H768 C778 0.950 . S
H769 C780 0.950 . S
H770 C782 0.950 . S
H771 C783 0.950 . S
C772 H764 0.950 . S
C772 C773 1.386 . S
C772 C774 1.391 . S
C773 C772 1.386 . S
C773 C777 1.393 . S
C774 H766 0.950 . S
C774 C772 1.391 . S
C774 C775 1.400 . S
C775 C774 1.400 . S
C775 C776 1.398 . S
C775 C781 1.491 . S
C776 H767 0.950 . S
C776 C775 1.398 . S
C776 C777 1.391 . S
C777 H765 0.950 . S
C777 C773 1.393 . S
C777 C776 1.391 . S
C778 H768 0.950 . S
C778 C779 1.386 . S
C778 C780 1.391 . S
C779 C778 1.386 . S
C779 C783 1.393 . S
C780 H769 0.950 . S
C780 C778 1.391 . S
C780 C781 1.400 . S
C781 C775 1.491 . S
C781 C780 1.400 . S
C781 C782 1.398 . S
C782 H770 0.950 . S
C782 C781 1.398 . S
C782 C783 1.391 . S
C783 H771 0.950 . S
C783 C779 1.393 . S
C783 C782 1.391 . S
H784 C792 0.950 . S
H785 C797 0.950 . S
H786 C794 0.950 . S
H787 C796 0.950 . S
H788 C798 0.950 . S
H789 C800 0.950 . S
H790 C802 0.950 . S
H791 C803 0.950 . S
C792 H784 0.950 . S
C792 C793 1.386 . S
C792 C794 1.391 . S
C793 C792 1.386 . S
C793 C797 1.393 . S
C794 H786 0.950 . S
C794 C792 1.391 . S
C794 C795 1.400 . S
C795 C794 1.400 . S
C795 C796 1.398 . S
C795 C801 1.491 . S
C796 H787 0.950 . S
C796 C795 1.398 . S
C796 C797 1.391 . S
C797 H785 0.950 . S
C797 C793 1.393 . S
C797 C796 1.391 . S
C798 H788 0.950 . S
C798 C799 1.386 . S
C798 C800 1.391 . S
C799 C798 1.386 . S
C799 C803 1.393 . S
C800 H789 0.950 . S
C800 C798 1.391 . S
C800 C801 1.400 . S
C801 C795 1.491 . S
C801 C800 1.400 . S
C801 C802 1.398 . S
C802 H790 0.950 . S
C802 C801 1.398 . S
C802 C803 1.391 . S
C803 H791 0.950 . S
C803 C799 1.393 . S
C803 C802 1.391 . S
H804 C812 0.950 . S
H805 C817 0.950 . S
H806 C814 0.950 . S
H807 C816 0.950 . S
H808 C818 0.950 . S
H809 C820 0.950 . S
H810 C822 0.950 1_556 S
H811 C823 0.950 . S
C812 H804 0.950 . S
C812 C813 1.386 . S
C812 C814 1.391 . S
C813 C812 1.386 . S
C813 C817 1.393 1_556 S
C814 H806 0.950 . S
C814 C812 1.391 . S
C814 C815 1.400 1_556 S
C815 C814 1.400 1_554 S
C815 C816 1.398 . S
C815 C821 1.491 . S
C816 H807 0.950 . S
C816 C815 1.398 . S
C816 C817 1.391 . S
C817 H805 0.950 . S
C817 C813 1.393 1_554 S
C817 C816 1.391 . S
C818 H808 0.950 . S
C818 C819 1.386 . S
C818 C820 1.391 . S
C819 C818 1.386 . S
C819 C823 1.393 . S
C820 H809 0.950 . S
C820 C818 1.391 . S
C820 C821 1.400 . S
C821 C815 1.491 . S
C821 C820 1.400 . S
C821 C822 1.398 . S
C822 H810 0.950 1_554 S
C822 C821 1.398 . S
C822 C823 1.391 . S
C823 H811 0.950 . S
C823 C819 1.393 . S
C823 C822 1.391 . S
H824 C832 0.950 . S
H825 C837 0.950 . S
H826 C834 0.950 . S
H827 C836 0.950 . S
H828 C838 0.950 . S
H829 C840 0.950 . S
H830 C842 0.950 . S
H831 C843 0.950 . S
C832 H824 0.950 . S
C832 C833 1.386 . S
C832 C834 1.391 . S
C833 C832 1.386 . S
C833 C837 1.393 . S
C834 H826 0.950 . S
C834 C832 1.391 . S
C834 C835 1.400 . S
C835 C834 1.400 . S
C835 C836 1.398 . S
C835 C841 1.491 . S
C836 H827 0.950 . S
C836 C835 1.398 . S
C836 C837 1.391 . S
C837 H825 0.950 . S
C837 C833 1.393 . S
C837 C836 1.391 . S
C838 H828 0.950 . S
C838 C839 1.386 . S
C838 C840 1.391 . S
C839 C838 1.386 . S
C839 C843 1.393 . S
C840 H829 0.950 . S
C840 C838 1.391 . S
C840 C841 1.400 . S
C841 C835 1.491 . S
C841 C840 1.400 . S
C841 C842 1.398 . S
C842 H830 0.950 . S
C842 C841 1.398 . S
C842 C843 1.391 . S
C843 H831 0.950 . S
C843 C839 1.393 . S
C843 C842 1.391 . S
H844 C852 0.950 . S
H845 C857 0.950 . S
H846 C854 0.950 . S
H847 C856 0.950 . S
H848 C858 0.950 . S
H849 C860 0.950 . S
H850 C862 0.950 . S
H851 C863 0.950 . S
C852 H844 0.950 . S
C852 C853 1.386 . S
C852 C854 1.391 . S
C853 C852 1.386 . S
C853 C857 1.393 . S
C854 H846 0.950 . S
C854 C852 1.391 . S
C854 C855 1.400 . S
C855 C854 1.400 . S
C855 C856 1.398 . S
C855 C861 1.491 . S
C856 H847 0.950 . S
C856 C855 1.398 . S
C856 C857 1.391 . S
C857 H845 0.950 . S
C857 C853 1.393 . S
C857 C856 1.391 . S
C858 H848 0.950 . S
C858 C859 1.386 . S
C858 C860 1.391 . S
C859 C858 1.386 . S
C859 C863 1.393 . S
C860 H849 0.950 . S
C860 C858 1.391 . S
C860 C861 1.400 . S
C861 C855 1.491 . S
C861 C860 1.400 . S
C861 C862 1.398 . S
C862 H850 0.950 . S
C862 C861 1.398 . S
C862 C863 1.391 . S
C863 H851 0.950 . S
C863 C859 1.393 . S
C863 C862 1.391 . S
H864 C872 0.950 . S
H865 C877 0.950 . S
H866 C874 0.950 . S
H867 C876 0.950 . S
H868 C878 0.950 . S
H869 C880 0.950 . S
H870 C882 0.950 . S
H871 C883 0.950 . S
C872 H864 0.950 . S
C872 C873 1.386 . S
C872 C874 1.391 . S
C873 C872 1.386 . S
C873 C877 1.393 . S
C874 H866 0.950 . S
C874 C872 1.391 . S
C874 C875 1.400 . S
C875 C874 1.400 . S
C875 C876 1.398 . S
C875 C881 1.491 . S
C876 H867 0.950 . S
C876 C875 1.398 . S
C876 C877 1.391 . S
C877 H865 0.950 . S
C877 C873 1.393 . S
C877 C876 1.391 . S
C878 H868 0.950 . S
C878 C879 1.386 . S
C878 C880 1.391 . S
C879 C878 1.386 . S
C879 C883 1.393 . S
C880 H869 0.950 . S
C880 C878 1.391 . S
C880 C881 1.400 . S
C881 C875 1.491 . S
C881 C880 1.400 . S
C881 C882 1.398 . S
C882 H870 0.950 . S
C882 C881 1.398 . S
C882 C883 1.391 . S
C883 H871 0.950 . S
C883 C879 1.393 . S
C883 C882 1.391 . S
H884 C892 0.950 . S
H885 C897 0.950 . S
H886 C894 0.950 1_655 S
H887 C896 0.950 . S
H888 C898 0.950 . S
H889 C900 0.950 1_455 S
H890 C902 0.950 . S
H891 C903 0.950 . S
C892 H884 0.950 . S
C892 C893 1.386 . S
C892 C894 1.391 . S
C893 C892 1.386 . S
C893 C897 1.393 . S
C894 H886 0.950 1_455 S
C894 C892 1.391 . S
C894 C895 1.400 . S
C895 C894 1.400 . S
C895 C896 1.398 . S
C895 C901 1.491 1_455 S
C896 H887 0.950 . S
C896 C895 1.398 . S
C896 C897 1.391 . S
C897 H885 0.950 . S
C897 C893 1.393 . S
C897 C896 1.391 . S
C898 H888 0.950 . S
C898 C899 1.386 . S
C898 C900 1.391 . S
C899 C898 1.386 . S
C899 C903 1.393 . S
C900 H889 0.950 1_655 S
C900 C898 1.391 . S
C900 C901 1.400 . S
C901 C895 1.491 1_655 S
C901 C900 1.400 . S
C901 C902 1.398 . S
C902 H890 0.950 . S
C902 C901 1.398 . S
C902 C903 1.391 . S
C903 H891 0.950 . S
C903 C899 1.393 . S
C903 C902 1.391 . S
H904 C912 0.950 . S
H905 C917 0.950 1_565 S
H906 C914 0.950 . S
H907 C916 0.950 . S
H908 C918 0.950 . S
H909 C920 0.950 . S
H910 C922 0.950 . S
H911 C923 0.950 1_545 S
C912 H904 0.950 . S
C912 C913 1.386 . S
C912 C914 1.391 . S
C913 C912 1.386 . S
C913 C917 1.393 . S
C914 H906 0.950 . S
C914 C912 1.391 . S
C914 C915 1.400 . S
C915 C914 1.400 . S
C915 C916 1.398 1_545 S
C915 C921 1.491 1_545 S
C916 H907 0.950 . S
C916 C915 1.398 1_565 S
C916 C917 1.391 1_565 S
C917 H905 0.950 1_545 S
C917 C913 1.393 . S
C917 C916 1.391 1_545 S
C918 H908 0.950 . S
C918 C919 1.386 . S
C918 C920 1.391 . S
C919 C918 1.386 . S
C919 C923 1.393 . S
C920 H909 0.950 . S
C920 C918 1.391 . S
C920 C921 1.400 . S
C921 C915 1.491 1_565 S
C921 C920 1.400 . S
C921 C922 1.398 1_565 S
C922 H910 0.950 . S
C922 C921 1.398 1_545 S
C922 C923 1.391 1_545 S
C923 H911 0.950 1_565 S
C923 C919 1.393 . S
C923 C922 1.391 1_565 S
H924 C932 0.950 . S
H925 C937 0.950 . S
H926 C934 0.950 . S
H927 C936 0.950 . S
H928 C938 0.950 . S
H929 C940 0.950 . S
H930 C942 0.950 . S
H931 C943 0.950 . S
C932 H924 0.950 . S
C932 C933 1.386 . S
C932 C934 1.391 . S
C933 C932 1.386 . S
C933 C937 1.393 . S
C934 H926 0.950 . S
C934 C932 1.391 . S
C934 C935 1.400 . S
C935 C934 1.400 . S
C935 C936 1.398 . S
C935 C941 1.491 . S
C936 H927 0.950 . S
C936 C935 1.398 . S
C936 C937 1.391 . S
C937 H925 0.950 . S
C937 C933 1.393 . S
C937 C936 1.391 . S
C938 H928 0.950 . S
C938 C939 1.386 . S
C938 C940 1.391 . S
C939 C938 1.386 . S
C939 C943 1.393 . S
C940 H929 0.950 . S
C940 C938 1.391 . S
C940 C941 1.400 . S
C941 C935 1.491 . S
C941 C940 1.400 . S
C941 C942 1.398 . S
C942 H930 0.950 . S
C942 C941 1.398 . S
C942 C943 1.391 . S
C943 H931 0.950 . S
C943 C939 1.393 . S
C943 C942 1.391 . S
H944 C952 0.950 . S
H945 C957 0.950 . S
H946 C954 0.950 . S
H947 C956 0.950 . S
H948 C958 0.950 . S
H949 C960 0.950 . S
H950 C962 0.950 . S
H951 C963 0.950 . S
C952 H944 0.950 . S
C952 C953 1.386 . S
C952 C954 1.391 . S
C953 C952 1.386 . S
C953 C957 1.393 1_455 S
C954 H946 0.950 . S
C954 C952 1.391 . S
C954 C955 1.400 . S
C955 C954 1.400 . S
C955 C956 1.398 1_455 S
C955 C961 1.491 1_455 S
C956 H947 0.950 . S
C956 C955 1.398 1_655 S
C956 C957 1.391 . S
C957 H945 0.950 . S
C957 C953 1.393 1_655 S
C957 C956 1.391 . S
C958 H948 0.950 . S
C958 C959 1.386 . S
C958 C960 1.391 . S
C959 C958 1.386 . S
C959 C963 1.393 1_655 S
C960 H949 0.950 . S
C960 C958 1.391 . S
C960 C961 1.400 . S
C961 C955 1.491 1_655 S
C961 C960 1.400 . S
C961 C962 1.398 1_655 S
C962 H950 0.950 . S
C962 C961 1.398 1_455 S
C962 C963 1.391 . S
C963 H951 0.950 . S
C963 C959 1.393 1_455 S
C963 C962 1.391 . S
H964 C972 0.950 . S
H965 C977 0.950 . S
H966 C974 0.950 . S
H967 C976 0.950 . S
H968 C978 0.950 . S
H969 C980 0.950 . S
H970 C982 0.950 . S
H971 C983 0.950 . S
C972 H964 0.950 . S
C972 C973 1.386 . S
C972 C974 1.391 . S
C973 C972 1.386 . S
C973 C977 1.393 . S
C974 H966 0.950 . S
C974 C972 1.391 . S
C974 C975 1.400 . S
C975 C974 1.400 . S
C975 C976 1.398 1_545 S
C975 C981 1.491 1_546 S
C976 H967 0.950 . S
C976 C975 1.398 1_565 S
C976 C977 1.391 1_565 S
C977 H965 0.950 . S
C977 C973 1.393 . S
C977 C976 1.391 1_545 S
C978 H968 0.950 . S
C978 C979 1.386 . S
C978 C980 1.391 . S
C979 C978 1.386 . S
C979 C983 1.393 . S
C980 H969 0.950 . S
C980 C978 1.391 . S
C980 C981 1.400 . S
C981 C975 1.491 1_564 S
C981 C980 1.400 . S
C981 C982 1.398 1_565 S
C982 H970 0.950 . S
C982 C981 1.398 1_545 S
C982 C983 1.391 1_545 S
C983 H971 0.950 . S
C983 C979 1.393 . S
C983 C982 1.391 1_565 S
C273 C15 0.901 . S
C279 C191 0.908 . S
C293 C213 0.896 . S
C299 C43 0.905 . S
C313 C235 0.909 . S
C319 C59 0.891 . S
C333 C257 0.921 . S
C339 C73 0.885 . S
C353 C147 0.890 . S
C359 C103 0.917 . S
C373 C161 0.888 . S
C379 C131 0.913 . S
C393 C21 1.596 . S
C399 C153 1.588 . S
C413 C29 1.596 . S
C419 C169 1.594 . S
C433 C65 1.589 . S
C439 C197 1.597 . S
C453 C219 1.594 . S
C459 C81 1.595 . S
C473 C241 1.593 . S
C479 C109 1.585 . S
C493 C117 1.597 . S
C499 C263 1.591 . S
C513 C7 0.927 . S
C519 C205 0.914 . S
C533 C227 0.914 . S
C539 C37 0.926 . S
C553 C51 0.910 . S
C559 C249 0.934 . S
C573 C139 0.914 . S
C579 C87 0.931 . S
C593 C175 0.934 . S
C599 C95 0.909 . S
C613 C125 0.909 . S
C619 C183 0.932 . S
C633 C10 1.599 . S
C639 C120 1.595 . S
C653 C18 1.585 . S
C659 C30 1.592 . S
C673 C54 1.600 . S
C679 C32 1.594 . S
C693 C62 1.591 . S
C699 C84 1.602 . S
C713 C74 1.594 . S
C719 C98 1.600 . S
C733 C118 1.597 . S
C739 C106 1.580 . S
C753 C162 1.587 . S
C759 C142 1.590 . S
C773 C172 1.598 . S
C779 C194 1.596 . S
C793 C186 1.596 . S
C799 C216 1.581 . S
C813 C208 1.605 . S
C819 C238 1.589 . S
C833 C260 1.595 . S
C839 C230 1.598 . S
C853 C150 1.596 . S
C859 C252 1.598 . S
C873 C8 1.332 . S
C879 C206 1.326 . S
C893 C40 1.326 . S
C899 C228 1.323 . S
C913 C52 1.323 . S
C919 C250 1.329 . S
C933 C140 1.326 . S
C939 C76 1.332 . S
C953 C164 1.323 . S
C959 C96 1.329 . S
C973 C184 1.323 . S
C979 C128 1.326 . S
