# Generated by pormake.
# Topology wkr, (6)-cn, num edge types: 1
# Building blocks:
#     Node 0, Type 0, BuildingBlock: VOLQOD_clean_sbu_1, # of connection points: 6
#     Node 1, Type 0, BuildingBlock: VOLQOD_clean_sbu_1, # of connection points: 6
#     Node 2, Type 0, BuildingBlock: VOLQOD_clean_sbu_1, # of connection points: 6
#     Node 3, Type 0, BuildingBlock: VOLQOD_clean_sbu_1, # of connection points: 6
#     Node 4, Type 0, BuildingBlock: VOLQOD_clean_sbu_1, # of connection points: 6
#     Node 5, Type 0, BuildingBlock: VOLQOD_clean_sbu_1, # of connection points: 6
#     Node 6, Type 0, BuildingBlock: VOLQOD_clean_sbu_1, # of connection points: 6
#     Node 7, Type 0, BuildingBlock: VOLQOD_clean_sbu_1, # of connection points: 6
#     Node 8, Type 0, BuildingBlock: VOLQOD_clean_sbu_1, # of connection points: 6
#     Node 9, Type 0, BuildingBlock: VOLQOD_clean_sbu_1, # of connection points: 6
#     Node 10, Type 0, BuildingBlock: VOLQOD_clean_sbu_1, # of connection points: 6
#     Node 11, Type 0, BuildingBlock: VOLQOD_clean_sbu_1, # of connection points: 6
#     Node 12, Type 0, BuildingBlock: VOLQOD_clean_sbu_1, # of connection points: 6
#     Node 13, Type 0, BuildingBlock: VOLQOD_clean_sbu_1, # of connection points: 6
#     Node 14, Type 0, BuildingBlock: VOLQOD_clean_sbu_1, # of connection points: 6
#     Node 15, Type 0, BuildingBlock: VOLQOD_clean_sbu_1, # of connection points: 6
#     Node 16, Type 0, BuildingBlock: VOLQOD_clean_sbu_1, # of connection points: 6
#     Node 17, Type 0, BuildingBlock: VOLQOD_clean_sbu_1, # of connection points: 6
#     Node 18, Type 0, BuildingBlock: VOLQOD_clean_sbu_1, # of connection points: 6
#     Node 19, Type 0, BuildingBlock: VOLQOD_clean_sbu_1, # of connection points: 6
#     Node 20, Type 0, BuildingBlock: VOLQOD_clean_sbu_1, # of connection points: 6
#     Node 21, Type 0, BuildingBlock: VOLQOD_clean_sbu_1, # of connection points: 6
#     Node 22, Type 0, BuildingBlock: VOLQOD_clean_sbu_1, # of connection points: 6
#     Node 23, Type 0, BuildingBlock: VOLQOD_clean_sbu_1, # of connection points: 6
#     Edge 24, Type (0, 0), None
#     Edge 25, Type (0, 0), None
#     Edge 26, Type (0, 0), None
#     Edge 27, Type (0, 0), None
#     Edge 28, Type (0, 0), None
#     Edge 29, Type (0, 0), None
#     Edge 30, Type (0, 0), None
#     Edge 31, Type (0, 0), None
#     Edge 32, Type (0, 0), None
#     Edge 33, Type (0, 0), None
#     Edge 34, Type (0, 0), None
#     Edge 35, Type (0, 0), None
#     Edge 36, Type (0, 0), None
#     Edge 37, Type (0, 0), None
#     Edge 38, Type (0, 0), None
#     Edge 39, Type (0, 0), None
#     Edge 40, Type (0, 0), None
#     Edge 41, Type (0, 0), None
#     Edge 42, Type (0, 0), None
#     Edge 43, Type (0, 0), None
#     Edge 44, Type (0, 0), None
#     Edge 45, Type (0, 0), None
#     Edge 46, Type (0, 0), None
#     Edge 47, Type (0, 0), None
#     Edge 48, Type (0, 0), None
#     Edge 49, Type (0, 0), None
#     Edge 50, Type (0, 0), None
#     Edge 51, Type (0, 0), None
#     Edge 52, Type (0, 0), None
#     Edge 53, Type (0, 0), None
#     Edge 54, Type (0, 0), None
#     Edge 55, Type (0, 0), None
#     Edge 56, Type (0, 0), None
#     Edge 57, Type (0, 0), None
#     Edge 58, Type (0, 0), None
#     Edge 59, Type (0, 0), None
#     Edge 60, Type (0, 0), None
#     Edge 61, Type (0, 0), None
#     Edge 62, Type (0, 0), None
#     Edge 63, Type (0, 0), None
#     Edge 64, Type (0, 0), None
#     Edge 65, Type (0, 0), None
#     Edge 66, Type (0, 0), None
#     Edge 67, Type (0, 0), None
#     Edge 68, Type (0, 0), None
#     Edge 69, Type (0, 0), None
#     Edge 70, Type (0, 0), None
#     Edge 71, Type (0, 0), None
#     Edge 72, Type (0, 0), None
#     Edge 73, Type (0, 0), None
#     Edge 74, Type (0, 0), None
#     Edge 75, Type (0, 0), None
#     Edge 76, Type (0, 0), None
#     Edge 77, Type (0, 0), None
#     Edge 78, Type (0, 0), None
#     Edge 79, Type (0, 0), None
#     Edge 80, Type (0, 0), None
#     Edge 81, Type (0, 0), None
#     Edge 82, Type (0, 0), None
#     Edge 83, Type (0, 0), None
#     Edge 84, Type (0, 0), None
#     Edge 85, Type (0, 0), None
#     Edge 86, Type (0, 0), None
#     Edge 87, Type (0, 0), None
#     Edge 88, Type (0, 0), None
#     Edge 89, Type (0, 0), None
#     Edge 90, Type (0, 0), None
#     Edge 91, Type (0, 0), None
#     Edge 92, Type (0, 0), None
#     Edge 93, Type (0, 0), None
#     Edge 94, Type (0, 0), None
#     Edge 95, Type (0, 0), None
# Relax obj value: 0.727
# Max RMSD: 0.278
# Mean RMSD: 0.278
data_MOF--net-wkr--node1-VOLQOD_clean_sbu_1--edge1-none
_symmetry_space_group_name_H-M    P1
_symmetry_Int_Tables_number       1
_symmetry_cell_setting            triclinic
loop_
_symmetry_equiv_pos_as_xyz
'x, y, z'
_cell_length_a     26.707977
_cell_length_b     26.707506
_cell_length_c     26.420529
_cell_angle_alpha  90.044111
_cell_angle_beta   89.976504
_cell_angle_gamma 119.99851
loop_
_atom_site_label
_atom_site_type_symbol
_atom_site_fract_x
_atom_site_fract_y
_atom_site_fract_z
_atom_type_partial_charge
O0 O 0.4488 0.0263 0.17224 0.0
Zn1 Zn 0.41589 0.09191 0.16233 0.0
O2 O 0.48808 0.1612 0.14868 0.0
Zn3 Zn 0.51245 0.2224 0.19322 0.0
Zn4 Zn 0.53567 0.13618 0.16954 0.0
Zn5 Zn 0.52259 0.1968 0.08878 0.0
O6 O 0.56747 0.28986 0.15804 0.0
O7 O 0.53141 0.27465 0.08081 0.0
O8 O 0.39599 0.13863 0.23212 0.0
O9 O 0.44619 0.23216 0.21487 0.0
O10 O 0.56132 0.21619 0.24684 0.0
O11 O 0.52044 0.12203 0.23976 0.0
O12 O 0.60942 0.19746 0.15889 0.0
O13 O 0.37124 0.06874 0.08378 0.0
O14 O 0.59987 0.20206 0.07623 0.0
O15 O 0.45466 0.13945 0.06495 0.0
C16 C 0.49639 0.02647 0.15852 0.0
C17 C 0.56198 0.30851 0.11576 0.0
C18 C 0.55786 0.16876 0.25934 0.0
C19 C 0.40872 0.1926 0.24261 0.0
C20 C 0.63118 0.21321 0.11547 0.0
C21 C 0.40759 0.0997 0.0491 0.0
O22 O 0.53722 0.0719 0.14035 0.0
O23 O 0.42258 0.4487 0.17235 0.0
Zn24 Zn 0.32409 0.41588 0.16224 0.0
O25 O 0.32701 0.48797 0.1486 0.0
Zn26 Zn 0.29038 0.51259 0.19307 0.0
Zn27 Zn 0.39977 0.53554 0.16916 0.0
Zn28 Zn 0.32551 0.52232 0.08883 0.0
O29 O 0.27823 0.56786 0.15787 0.0
O30 O 0.25629 0.5308 0.08103 0.0
O31 O 0.25744 0.39602 0.23196 0.0
O32 O 0.21433 0.44648 0.21484 0.0
O33 O 0.34557 0.56128 0.24666 0.0
O34 O 0.39903 0.52058 0.23937 0.0
O35 O 0.41248 0.60936 0.15856 0.0
O36 O 0.30274 0.37151 0.08361 0.0
O37 O 0.39725 0.59975 0.07603 0.0
O38 O 0.31517 0.45483 0.06423 0.0
C39 C 0.46999 0.49614 0.15841 0.0
C40 C 0.25349 0.56184 0.1158 0.0
C41 C 0.38955 0.55782 0.25911 0.0
C42 C 0.2163 0.40887 0.24248 0.0
C43 C 0.418 0.63109 0.11521 0.0
C44 C 0.30794 0.40763 0.04876 0.0
O45 O 0.46538 0.53678 0.13981 0.0
O46 O 0.9739 0.42248 0.17242 0.0
Zn47 Zn 0.90807 0.32403 0.16223 0.0
O48 O 0.83922 0.32688 0.1486 0.0
Zn49 Zn 0.77784 0.29046 0.19295 0.0
Zn50 Zn 0.86451 0.39979 0.16883 0.0
Zn51 Zn 0.80319 0.32516 0.08914 0.0
O52 O 0.71039 0.27845 0.15772 0.0
O53 O 0.72557 0.2559 0.08119 0.0
O54 O 0.86134 0.25743 0.23191 0.0
O55 O 0.76775 0.21442 0.21487 0.0
O56 O 0.78458 0.3458 0.24643 0.0
O57 O 0.87875 0.39936 0.23905 0.0
O58 O 0.80352 0.41265 0.15825 0.0
O59 O 0.93013 0.30278 0.08345 0.0
O60 O 0.7968 0.39643 0.07588 0.0
O61 O 0.85926 0.3152 0.06167 0.0
C62 C 0.97399 0.46989 0.15829 0.0
C63 C 0.69168 0.25346 0.11572 0.0
C64 C 0.83204 0.3898 0.25885 0.0
C65 C 0.80734 0.21634 0.24246 0.0
C66 C 0.7868 0.41773 0.11499 0.0
C67 C 0.8998 0.3079 0.04783 0.0
O68 O 0.92887 0.46525 0.13934 0.0
O69 O 0.55147 0.97377 0.1724 0.0
Zn70 Zn 0.58409 0.90793 0.16227 0.0
O71 O 0.51243 0.83909 0.14863 0.0
Zn72 Zn 0.48748 0.77771 0.19297 0.0
Zn73 Zn 0.46482 0.86434 0.16892 0.0
Zn74 Zn 0.47807 0.80319 0.08915 0.0
O75 O 0.43213 0.71022 0.15771 0.0
O76 O 0.46957 0.72553 0.08107 0.0
O77 O 0.60394 0.86126 0.23202 0.0
O78 O 0.55346 0.76767 0.21493 0.0
O79 O 0.43879 0.78439 0.24642 0.0
O80 O 0.47953 0.87857 0.23916 0.0
O81 O 0.39101 0.80329 0.15831 0.0
O82 O 0.62742 0.92992 0.08348 0.0
O83 O 0.40038 0.79674 0.0759 0.0
O84 O 0.54407 0.85919 0.06155 0.0
C85 C 0.50411 0.97382 0.1583 0.0
C86 C 0.43822 0.69158 0.1156 0.0
C87 C 0.44226 0.83186 0.25886 0.0
C88 C 0.59107 0.80728 0.24257 0.0
C89 C 0.36915 0.78662 0.11504 0.0
C90 C 0.59196 0.89973 0.04779 0.0
O91 O 0.46358 0.92864 0.13946 0.0
O92 O 0.57777 0.55137 0.17236 0.0
Zn93 Zn 0.67624 0.58405 0.16243 0.0
O94 O 0.67346 0.51236 0.14878 0.0
Zn95 Zn 0.71014 0.48768 0.19317 0.0
Zn96 Zn 0.60078 0.46468 0.1694 0.0
Zn97 Zn 0.67449 0.47777 0.0892 0.0
O98 O 0.7226 0.4326 0.15795 0.0
O99 O 0.7434 0.46882 0.08082 0.0
O100 O 0.74275 0.60399 0.23224 0.0
O101 O 0.78613 0.55383 0.21497 0.0
O102 O 0.6549 0.43878 0.24667 0.0
O103 O 0.60166 0.47971 0.23965 0.0
O104 O 0.58827 0.39093 0.15871 0.0
O105 O 0.69769 0.62745 0.08373 0.0
O106 O 0.60293 0.40029 0.07615 0.0
O107 O 0.68474 0.54397 0.06181 0.0
C108 C 0.53037 0.50386 0.1585 0.0
C109 C 0.74661 0.43806 0.11557 0.0
C110 C 0.61091 0.44224 0.25916 0.0
C111 C 0.78398 0.59128 0.24274 0.0
C112 C 0.58246 0.36906 0.11536 0.0
C113 C 0.69225 0.5919 0.04805 0.0
O114 O 0.535 0.46312 0.14013 0.0
O115 O 0.02644 0.57767 0.17227 0.0
Zn116 Zn 0.09215 0.67618 0.16244 0.0
O117 O 0.16125 0.67334 0.14882 0.0
Zn118 Zn 0.22253 0.7102 0.1933 0.0
Zn119 Zn 0.13634 0.60076 0.1697 0.0
Zn120 Zn 0.19673 0.67416 0.08908 0.0
O121 O 0.29006 0.72279 0.15811 0.0
O122 O 0.27465 0.74299 0.08072 0.0
O123 O 0.13873 0.74274 0.23227 0.0
O124 O 0.23225 0.78619 0.21496 0.0
O125 O 0.2164 0.65509 0.24687 0.0
O126 O 0.12224 0.60193 0.23993 0.0
O127 O 0.19769 0.58838 0.15899 0.0
O128 O 0.06966 0.6977 0.08383 0.0
O129 O 0.20211 0.60226 0.07632 0.0
O130 O 0.14018 0.68469 0.06335 0.0
C131 C 0.02665 0.53026 0.15858 0.0
C132 C 0.3086 0.74652 0.11565 0.0
C133 C 0.16897 0.61112 0.25938 0.0
C134 C 0.19267 0.78402 0.24275 0.0
C135 C 0.21334 0.58221 0.11557 0.0
C136 C 0.1001 0.69218 0.04861 0.0
O137 O 0.07214 0.53486 0.14055 0.0
O138 O 0.97344 0.55106 0.36661 0.0
Zn139 Zn 0.90741 0.58339 0.37734 0.0
O140 O 0.83886 0.51132 0.39062 0.0
Zn141 Zn 0.77678 0.4837 0.34673 0.0
Zn142 Zn 0.86483 0.46377 0.37142 0.0
Zn143 Zn 0.80346 0.47802 0.45044 0.0
O144 O 0.70991 0.42895 0.38383 0.0
O145 O 0.72665 0.47091 0.45859 0.0
O146 O 0.86013 0.60386 0.30859 0.0
O147 O 0.76566 0.548 0.32165 0.0
O148 O 0.78392 0.43379 0.29476 0.0
O149 O 0.87841 0.47631 0.30092 0.0
O150 O 0.80491 0.3896 0.38283 0.0
O151 O 0.93003 0.62687 0.45613 0.0
O152 O 0.79607 0.40014 0.46461 0.0
O153 O 0.85941 0.54364 0.47814 0.0
C154 C 0.97396 0.50411 0.3813 0.0
C155 C 0.69202 0.43763 0.42535 0.0
C156 C 0.83165 0.43804 0.282 0.0
C157 C 0.80582 0.58898 0.29685 0.0
C158 C 0.78719 0.36837 0.42606 0.0
C159 C 0.90002 0.59145 0.49186 0.0
O160 O 0.92944 0.46417 0.40146 0.0
O161 O 0.42258 0.97352 0.36668 0.0
Zn162 Zn 0.32418 0.90762 0.37733 0.0
O163 O 0.32776 0.8388 0.3906 0.0
Zn164 Zn 0.29314 0.77681 0.34661 0.0
Zn165 Zn 0.40114 0.86468 0.37112 0.0
Zn166 Zn 0.32588 0.80357 0.45066 0.0
O167 O 0.281 0.71 0.38369 0.0
O168 O 0.25625 0.72669 0.45872 0.0
O169 O 0.25636 0.86025 0.30857 0.0
O170 O 0.21769 0.76579 0.32168 0.0
O171 O 0.35005 0.78378 0.29453 0.0
O172 O 0.40194 0.87826 0.30062 0.0
O173 O 0.41522 0.80464 0.38253 0.0
O174 O 0.30325 0.93104 0.456 0.0
O175 O 0.3968 0.79683 0.4645 0.0
O176 O 0.31586 0.86038 0.47603 0.0
C177 C 0.47005 0.97392 0.3812 0.0
C178 C 0.25464 0.6921 0.42527 0.0
C179 C 0.3935 0.83148 0.28174 0.0
C180 C 0.21688 0.80593 0.29686 0.0
C181 C 0.41917 0.7874 0.42585 0.0
C182 C 0.30874 0.90054 0.4911 0.0
O183 O 0.4655 0.92927 0.40106 0.0
O184 O 0.44927 0.42262 0.36675 0.0
Zn185 Zn 0.41666 0.32417 0.37723 0.0
O186 O 0.48924 0.32777 0.39051 0.0
Zn187 Zn 0.51637 0.29296 0.34644 0.0
Zn188 Zn 0.53675 0.40099 0.37065 0.0
Zn189 Zn 0.52274 0.32635 0.45078 0.0
O190 O 0.57086 0.28062 0.38353 0.0
O191 O 0.53031 0.2569 0.45898 0.0
O192 O 0.3962 0.25637 0.3084 0.0
O193 O 0.45179 0.21751 0.32163 0.0
O194 O 0.56648 0.34973 0.2943 0.0
O195 O 0.52368 0.40141 0.30014 0.0
O196 O 0.61079 0.41483 0.38214 0.0
O197 O 0.37184 0.30312 0.45581 0.0
O198 O 0.60021 0.39762 0.4643 0.0
O199 O 0.4552 0.31602 0.47484 0.0
C200 C 0.4965 0.47009 0.38103 0.0
C201 C 0.56284 0.25479 0.42533 0.0
C202 C 0.56222 0.39316 0.28144 0.0
C203 C 0.41094 0.21681 0.29672 0.0
C204 C 0.632 0.41937 0.42555 0.0
C205 C 0.40817 0.30882 0.4906 0.0
O206 O 0.53682 0.46557 0.40042 0.0
O207 O 0.0269 0.44937 0.36675 0.0
Zn208 Zn 0.09283 0.41687 0.37712 0.0
O209 O 0.16161 0.48918 0.39037 0.0
Zn210 Zn 0.22365 0.51636 0.34638 0.0
Zn211 Zn 0.13604 0.53679 0.37051 0.0
Zn212 Zn 0.19646 0.52281 0.45047 0.0
O213 O 0.29056 0.57079 0.38345 0.0
O214 O 0.27355 0.53059 0.45902 0.0
O215 O 0.14003 0.39633 0.30825 0.0
O216 O 0.23447 0.45176 0.32159 0.0
O217 O 0.21706 0.56655 0.29426 0.0
O218 O 0.12259 0.52367 0.29998 0.0
O219 O 0.19631 0.61081 0.38204 0.0
O220 O 0.0698 0.37273 0.45574 0.0
O221 O 0.20285 0.60032 0.4642 0.0
O222 O 0.14009 0.45619 0.47652 0.0
C223 C 0.02669 0.49663 0.381 0.0
C224 C 0.30827 0.56299 0.4254 0.0
C225 C 0.16937 0.56229 0.28139 0.0
C226 C 0.19431 0.411 0.29659 0.0
C227 C 0.21294 0.63207 0.42546 0.0
C228 C 0.0999 0.40864 0.49109 0.0
O229 O 0.07161 0.53703 0.40024 0.0
O230 O 0.57773 0.02697 0.36668 0.0
Zn231 Zn 0.67612 0.09299 0.37715 0.0
O232 O 0.67264 0.16159 0.39043 0.0
Zn233 Zn 0.70732 0.22368 0.3465 0.0
Zn234 Zn 0.59933 0.13588 0.37084 0.0
Zn235 Zn 0.67409 0.19658 0.45036 0.0
O236 O 0.71977 0.29064 0.38359 0.0
O237 O 0.74347 0.2736 0.4589 0.0
O238 O 0.74376 0.14014 0.30827 0.0
O239 O 0.78271 0.23459 0.32157 0.0
O240 O 0.65039 0.21688 0.29449 0.0
O241 O 0.59871 0.12239 0.30031 0.0
O242 O 0.5854 0.19602 0.38235 0.0
O243 O 0.6972 0.07047 0.45587 0.0
O244 O 0.60335 0.20355 0.46437 0.0
O245 O 0.68406 0.14074 0.47795 0.0
C246 C 0.53026 0.02665 0.38111 0.0
C247 C 0.74545 0.30834 0.42549 0.0
C248 C 0.60694 0.16917 0.28165 0.0
C249 C 0.78332 0.19441 0.29658 0.0
C250 C 0.58121 0.21312 0.42569 0.0
C251 C 0.69144 0.10025 0.49165 0.0
O252 O 0.53482 0.07143 0.4007 0.0
O253 O 0.55097 0.57777 0.36659 0.0
Zn254 Zn 0.58319 0.67611 0.37722 0.0
O255 O 0.51133 0.67266 0.39056 0.0
Zn256 Zn 0.4837 0.70715 0.34668 0.0
Zn257 Zn 0.46374 0.59919 0.37127 0.0
Zn258 Zn 0.47792 0.67453 0.45033 0.0
O259 O 0.42903 0.71944 0.38377 0.0
O260 O 0.47057 0.74408 0.4587 0.0
O261 O 0.60371 0.74377 0.30842 0.0
O262 O 0.54803 0.78254 0.3216 0.0
O263 O 0.43369 0.6501 0.29474 0.0
O264 O 0.47633 0.59825 0.30075 0.0
O265 O 0.3896 0.58501 0.38273 0.0
O266 O 0.6261 0.69704 0.45604 0.0
O267 O 0.40002 0.60412 0.46455 0.0
O268 O 0.54281 0.68413 0.47948 0.0
C269 C 0.50398 0.53031 0.38124 0.0
C270 C 0.43742 0.74563 0.42546 0.0
C271 C 0.43794 0.60663 0.28194 0.0
C272 C 0.58891 0.78325 0.2967 0.0
C273 C 0.3683 0.58134 0.42597 0.0
C274 C 0.59102 0.69151 0.49222 0.0
O275 O 0.46397 0.53488 0.40127 0.0
O276 O 0.55171 0.9741 0.8673 0.0
Zn277 Zn 0.58462 0.90848 0.87715 0.0
O278 O 0.51249 0.8392 0.89091 0.0
Zn279 Zn 0.48806 0.77795 0.84646 0.0
Zn280 Zn 0.46486 0.8642 0.87013 0.0
Zn281 Zn 0.47794 0.80362 0.95081 0.0
O282 O 0.43311 0.71049 0.88171 0.0
O283 O 0.46913 0.72577 0.95896 0.0
O284 O 0.60454 0.86175 0.80743 0.0
O285 O 0.55433 0.76823 0.82472 0.0
O286 O 0.43909 0.7841 0.79289 0.0
O287 O 0.47997 0.87827 0.7999 0.0
O288 O 0.39112 0.80294 0.88085 0.0
O289 O 0.62928 0.93158 0.95563 0.0
O290 O 0.40074 0.79846 0.9635 0.0
O291 O 0.54584 0.86095 0.97448 0.0
C292 C 0.50414 0.97392 0.88108 0.0
C293 C 0.43858 0.69186 0.92402 0.0
C294 C 0.44254 0.83152 0.78035 0.0
C295 C 0.59181 0.80777 0.79698 0.0
C296 C 0.36939 0.78729 0.92429 0.0
C297 C 0.5929 0.90069 0.99033 0.0
O298 O 0.46335 0.9285 0.8993 0.0
O299 O 0.57793 0.55169 0.86729 0.0
Zn300 Zn 0.67644 0.58457 0.87739 0.0
O301 O 0.67355 0.5124 0.89113 0.0
Zn302 Zn 0.71017 0.48779 0.84665 0.0
Zn303 Zn 0.60078 0.46487 0.87056 0.0
Zn304 Zn 0.67507 0.47807 0.95101 0.0
O305 O 0.72239 0.43259 0.8819 0.0
O306 O 0.74432 0.46962 0.95876 0.0
O307 O 0.7431 0.6044 0.80769 0.0
O308 O 0.78619 0.55392 0.82482 0.0
O309 O 0.65497 0.43905 0.79308 0.0
O310 O 0.60149 0.47974 0.80032 0.0
O311 O 0.58808 0.39107 0.8812 0.0
O312 O 0.69781 0.62925 0.95596 0.0
O313 O 0.60323 0.40067 0.96374 0.0
O314 O 0.68544 0.54597 0.97466 0.0
C315 C 0.53052 0.50424 0.88124 0.0
C316 C 0.74713 0.4386 0.92398 0.0
C317 C 0.611 0.44252 0.78059 0.0
C318 C 0.78424 0.59153 0.79718 0.0
C319 C 0.58251 0.36934 0.92455 0.0
C320 C 0.69262 0.59296 0.9906 0.0
O321 O 0.53517 0.46363 0.89987 0.0
O322 O 0.02658 0.5779 0.86718 0.0
Zn323 Zn 0.09231 0.67638 0.87742 0.0
O324 O 0.16141 0.67352 0.89117 0.0
Zn325 Zn 0.22272 0.70994 0.84678 0.0
Zn326 Zn 0.13603 0.60062 0.87087 0.0
Zn327 Zn 0.19741 0.67527 0.95088 0.0
O328 O 0.29015 0.72205 0.88209 0.0
O329 O 0.27502 0.74459 0.95867 0.0
O330 O 0.13912 0.74299 0.80773 0.0
O331 O 0.23273 0.78594 0.82476 0.0
O332 O 0.21604 0.65457 0.79331 0.0
O333 O 0.12186 0.60103 0.80061 0.0
O334 O 0.19697 0.58774 0.88152 0.0
O335 O 0.06946 0.69765 0.95608 0.0
O336 O 0.20348 0.60376 0.96394 0.0
O337 O 0.14045 0.68541 0.97617 0.0
C338 C 0.02651 0.5305 0.88133 0.0
C339 C 0.30888 0.74705 0.92408 0.0
C340 C 0.16859 0.61058 0.78084 0.0
C341 C 0.19314 0.78405 0.79718 0.0
C342 C 0.2136 0.58258 0.92481 0.0
C343 C 0.10026 0.69258 0.99117 0.0
O344 O 0.07162 0.53517 0.90031 0.0
O345 O 0.44903 0.0266 0.86719 0.0
Zn346 Zn 0.41638 0.0924 0.87732 0.0
O347 O 0.48807 0.16132 0.89106 0.0
Zn348 Zn 0.51299 0.22269 0.84671 0.0
Zn349 Zn 0.53567 0.13606 0.87073 0.0
Zn350 Zn 0.52246 0.1972 0.95061 0.0
O351 O 0.56824 0.29019 0.882 0.0
O352 O 0.531 0.2749 0.95873 0.0
O353 O 0.39652 0.13908 0.80758 0.0
O354 O 0.44697 0.23266 0.82472 0.0
O355 O 0.56176 0.21608 0.79327 0.0
O356 O 0.52105 0.1219 0.80047 0.0
O357 O 0.60946 0.1971 0.88142 0.0
O358 O 0.37292 0.07027 0.95604 0.0
O359 O 0.60006 0.20343 0.96385 0.0
O360 O 0.45624 0.14105 0.97778 0.0
C361 C 0.49639 0.02656 0.8813 0.0
C362 C 0.56224 0.30883 0.92415 0.0
C363 C 0.5583 0.16863 0.78079 0.0
C364 C 0.40938 0.19306 0.79705 0.0
C365 C 0.63131 0.21365 0.9247 0.0
C366 C 0.40841 0.10056 0.99166 0.0
O367 O 0.53691 0.07175 0.90015 0.0
O368 O 0.42275 0.44899 0.86727 0.0
Zn369 Zn 0.32425 0.41626 0.87723 0.0
O370 O 0.32703 0.48807 0.89095 0.0
Zn371 Zn 0.29039 0.51277 0.84655 0.0
Zn372 Zn 0.39973 0.5357 0.87033 0.0
Zn373 Zn 0.32596 0.52262 0.95065 0.0
O374 O 0.27785 0.56777 0.88186 0.0
O375 O 0.25701 0.5315 0.95898 0.0
O376 O 0.25772 0.39635 0.80743 0.0
O377 O 0.21443 0.44662 0.82465 0.0
O378 O 0.34567 0.56173 0.79308 0.0
O379 O 0.39893 0.52081 0.80005 0.0
O380 O 0.41227 0.60943 0.88109 0.0
O381 O 0.30281 0.37249 0.95586 0.0
O382 O 0.39763 0.60006 0.96366 0.0
O383 O 0.31563 0.45594 0.97705 0.0
C384 C 0.47014 0.4965 0.88116 0.0
C385 C 0.2538 0.56226 0.92422 0.0
C386 C 0.38965 0.55827 0.78056 0.0
C387 C 0.21652 0.40911 0.79692 0.0
C388 C 0.41809 0.6313 0.92445 0.0
C389 C 0.30819 0.40822 0.99131 0.0
O390 O 0.46549 0.53721 0.89959 0.0
O391 O 0.9741 0.42271 0.86735 0.0
Zn392 Zn 0.90851 0.32417 0.87721 0.0
O393 O 0.83916 0.32701 0.89096 0.0
Zn394 Zn 0.77796 0.29013 0.84643 0.0
Zn395 Zn 0.86413 0.39956 0.87 0.0
Zn396 Zn 0.80371 0.32616 0.95097 0.0
O397 O 0.71044 0.27743 0.88168 0.0
O398 O 0.72578 0.25727 0.95913 0.0
O399 O 0.86184 0.25763 0.80735 0.0
O400 O 0.76833 0.21418 0.82471 0.0
O401 O 0.78401 0.34524 0.79286 0.0
O402 O 0.87818 0.39841 0.79974 0.0
O403 O 0.80282 0.41193 0.88078 0.0
O404 O 0.93173 0.30262 0.9557 0.0
O405 O 0.79862 0.39828 0.96348 0.0
O406 O 0.86112 0.31547 0.9745 0.0
C407 C 0.97387 0.47011 0.88103 0.0
C408 C 0.69187 0.25371 0.92414 0.0
C409 C 0.83143 0.38921 0.7803 0.0
C410 C 0.80789 0.21635 0.7969 0.0
C411 C 0.78727 0.4182 0.92421 0.0
C412 C 0.9008 0.30809 0.99039 0.0
O413 O 0.92837 0.46549 0.8991 0.0
O414 O 0.02703 0.44928 0.67308 0.0
Zn415 Zn 0.09291 0.41678 0.6623 0.0
O416 O 0.16179 0.48915 0.64887 0.0
Zn417 Zn 0.22377 0.51666 0.69283 0.0
Zn418 Zn 0.13572 0.53658 0.66818 0.0
Zn419 Zn 0.19714 0.52241 0.58876 0.0
O420 O 0.29064 0.57126 0.65566 0.0
O421 O 0.27395 0.5295 0.58078 0.0
O422 O 0.1403 0.39643 0.73108 0.0
O423 O 0.23476 0.45228 0.71795 0.0
O424 O 0.2167 0.56663 0.7448 0.0
O425 O 0.1222 0.52409 0.73871 0.0
O426 O 0.19561 0.61069 0.6567 0.0
O427 O 0.06935 0.37233 0.58365 0.0
O428 O 0.20407 0.60015 0.57482 0.0
O429 O 0.14014 0.45549 0.56369 0.0
C430 C 0.02655 0.49626 0.65839 0.0
C431 C 0.30855 0.56265 0.61412 0.0
C432 C 0.16898 0.56238 0.75761 0.0
C433 C 0.19462 0.41133 0.74281 0.0
C434 C 0.21316 0.63192 0.61343 0.0
C435 C 0.09995 0.40827 0.54857 0.0
O436 O 0.07107 0.53617 0.63819 0.0
O437 O 0.57792 0.02683 0.67302 0.0
Zn438 Zn 0.67635 0.09265 0.66239 0.0
O439 O 0.67281 0.16165 0.64894 0.0
Zn440 Zn 0.70741 0.22362 0.69293 0.0
Zn441 Zn 0.59942 0.13572 0.66845 0.0
Zn442 Zn 0.67468 0.19685 0.58869 0.0
O443 O 0.71968 0.29043 0.65575 0.0
O444 O 0.74436 0.27374 0.58067 0.0
O445 O 0.74418 0.14009 0.73111 0.0
O446 O 0.78279 0.23455 0.71798 0.0
O447 O 0.65046 0.21672 0.74497 0.0
O448 O 0.59861 0.12223 0.73897 0.0
O449 O 0.58533 0.19572 0.65696 0.0
O450 O 0.69733 0.06871 0.58385 0.0
O451 O 0.60358 0.20332 0.57496 0.0
O452 O 0.68481 0.1394 0.56504 0.0
C453 C 0.53047 0.02645 0.65847 0.0
C454 C 0.74604 0.30833 0.61416 0.0
C455 C 0.60703 0.16902 0.75781 0.0
C456 C 0.78364 0.19442 0.7428 0.0
C457 C 0.58128 0.21285 0.61363 0.0
C458 C 0.69184 0.09953 0.54913 0.0
O459 O 0.53506 0.07109 0.63856 0.0
O460 O 0.55127 0.57777 0.67288 0.0
Zn461 Zn 0.58404 0.67625 0.66231 0.0
O462 O 0.51118 0.67266 0.64889 0.0
Zn463 Zn 0.48414 0.70747 0.69306 0.0
Zn464 Zn 0.4638 0.59946 0.66888 0.0
Zn465 Zn 0.47778 0.67411 0.58827 0.0
O466 O 0.42977 0.71991 0.65592 0.0
O467 O 0.47022 0.74361 0.58039 0.0
O468 O 0.60438 0.74401 0.7312 0.0
O469 O 0.54877 0.78286 0.71795 0.0
O470 O 0.43399 0.65068 0.74521 0.0
O471 O 0.47681 0.59903 0.73943 0.0
O472 O 0.3898 0.58561 0.65735 0.0
O473 O 0.62971 0.69732 0.58382 0.0
O474 O 0.40035 0.60258 0.57513 0.0
O475 O 0.54644 0.68459 0.56672 0.0
C476 C 0.50402 0.5303 0.65861 0.0
C477 C 0.43777 0.74575 0.61411 0.0
C478 C 0.43827 0.60728 0.75812 0.0
C479 C 0.5896 0.78355 0.74288 0.0
C480 C 0.36859 0.58098 0.61392 0.0
C481 C 0.59289 0.69169 0.54966 0.0
O482 O 0.46374 0.53485 0.63917 0.0
O483 O 0.97365 0.55105 0.67294 0.0
Zn484 Zn 0.90785 0.58371 0.66252 0.0
O485 O 0.83876 0.5111 0.6491 0.0
Zn486 Zn 0.77681 0.48399 0.69315 0.0
Zn487 Zn 0.86445 0.46362 0.66905 0.0
Zn488 Zn 0.80398 0.47755 0.58868 0.0
O489 O 0.70992 0.42973 0.65599 0.0
O490 O 0.72688 0.4698 0.58033 0.0
O491 O 0.86055 0.60412 0.73141 0.0
O492 O 0.7661 0.54864 0.71806 0.0
O493 O 0.78334 0.4337 0.74524 0.0
O494 O 0.87782 0.47663 0.73961 0.0
O495 O 0.80425 0.38963 0.65743 0.0
O496 O 0.93179 0.62879 0.58404 0.0
O497 O 0.79798 0.40014 0.57521 0.0
O498 O 0.86138 0.54541 0.5653 0.0
C499 C 0.97384 0.50378 0.65868 0.0
C500 C 0.69219 0.43749 0.61402 0.0
C501 C 0.83102 0.43798 0.75817 0.0
C502 C 0.80626 0.58941 0.74307 0.0
C503 C 0.78774 0.36838 0.61399 0.0
C504 C 0.90109 0.59235 0.54933 0.0
O505 O 0.92894 0.46343 0.63937 0.0
O506 O 0.4228 0.97345 0.67301 0.0
Zn507 Zn 0.32437 0.90753 0.6625 0.0
O508 O 0.32783 0.83868 0.64909 0.0
Zn509 Zn 0.29313 0.77666 0.69305 0.0
Zn510 Zn 0.40112 0.86447 0.66874 0.0
Zn511 Zn 0.32634 0.8037 0.58894 0.0
O512 O 0.28055 0.70969 0.65589 0.0
O513 O 0.25693 0.72668 0.5805 0.0
O514 O 0.25673 0.86031 0.73139 0.0
O515 O 0.21779 0.76586 0.71805 0.0
O516 O 0.35008 0.7834 0.74505 0.0
O517 O 0.40175 0.87789 0.7393 0.0
O518 O 0.41505 0.80437 0.65715 0.0
O519 O 0.3033 0.93073 0.58391 0.0
O520 O 0.39734 0.7971 0.57508 0.0
O521 O 0.31619 0.86027 0.5632 0.0
C522 C 0.47024 0.97374 0.65856 0.0
C523 C 0.25487 0.69197 0.61398 0.0
C524 C 0.39352 0.8311 0.75793 0.0
C525 C 0.21718 0.80602 0.74306 0.0
C526 C 0.41936 0.7874 0.61378 0.0
C527 C 0.30893 0.90049 0.54857 0.0
O528 O 0.46565 0.92896 0.63893 0.0
O529 O 0.44951 0.42262 0.67308 0.0
Zn530 Zn 0.41714 0.32424 0.6624 0.0
O531 O 0.48927 0.32769 0.64898 0.0
Zn532 Zn 0.51686 0.29321 0.69287 0.0
Zn533 Zn 0.53676 0.40116 0.66829 0.0
Zn534 Zn 0.52262 0.32578 0.58901 0.0
O535 O 0.5714 0.2808 0.6557 0.0
O536 O 0.5299 0.25618 0.58072 0.0
O537 O 0.39672 0.25657 0.73121 0.0
O538 O 0.45249 0.21788 0.71805 0.0
O539 O 0.56694 0.35031 0.74479 0.0
O540 O 0.52428 0.40216 0.73883 0.0
O541 O 0.61087 0.41537 0.65675 0.0
O542 O 0.37336 0.3033 0.5837 0.0
O543 O 0.60041 0.39642 0.57488 0.0
O544 O 0.45661 0.31595 0.56202 0.0
C545 C 0.4965 0.47007 0.65841 0.0
C546 C 0.56301 0.25461 0.614 0.0
C547 C 0.56267 0.39377 0.75762 0.0
C548 C 0.41158 0.21713 0.74293 0.0
C549 C 0.63214 0.41911 0.61348 0.0
C550 C 0.40889 0.30875 0.54806 0.0
O551 O 0.53647 0.46545 0.63831 0.0
loop_
_geom_bond_atom_site_label_1
_geom_bond_atom_site_label_2
_geom_bond_distance
_geom_bond_site_symmetry_2
_ccdc_geom_bond_type
O0 Zn1 1.953 . S
O0 C16 1.225 . S
Zn1 O0 1.953 . S
Zn1 O2 1.949 . S
Zn1 O8 1.919 . S
Zn1 O13 1.924 . S
O2 Zn1 1.949 . S
O2 Zn3 1.923 . S
O2 Zn4 1.950 . S
O2 Zn5 1.945 . S
Zn3 O2 1.923 . S
Zn3 O6 1.933 . S
Zn3 O9 1.941 . S
Zn3 O10 1.965 . S
Zn4 O2 1.950 . S
Zn4 O11 1.938 . S
Zn4 O12 1.906 . S
Zn4 O22 1.953 . S
Zn5 O2 1.945 . S
Zn5 O7 1.932 . S
Zn5 O14 1.977 . S
Zn5 O15 1.910 . S
O6 Zn3 1.933 . S
O6 C17 1.226 . S
O7 Zn5 1.932 . S
O7 C17 1.307 . S
O8 Zn1 1.919 . S
O8 C19 1.253 . S
O9 Zn3 1.941 . S
O9 C19 1.283 . S
O10 Zn3 1.965 . S
O10 C18 1.303 . S
O11 Zn4 1.938 . S
O11 C18 1.247 . S
O12 Zn4 1.906 . S
O12 C20 1.304 . S
O13 Zn1 1.924 . S
O13 C21 1.311 . S
O14 Zn5 1.977 . S
O14 C20 1.272 . S
O15 Zn5 1.910 . S
O15 C21 1.231 . S
C16 O0 1.225 . S
C16 O22 1.298 . S
C17 O6 1.226 . S
C17 O7 1.307 . S
C18 O10 1.303 . S
C18 O11 1.247 . S
C19 O8 1.253 . S
C19 O9 1.283 . S
C20 O12 1.304 . S
C20 O14 1.272 . S
C21 O13 1.311 . S
C21 O15 1.231 . S
O22 Zn4 1.953 . S
O22 C16 1.298 . S
O23 Zn24 1.953 . S
O23 C39 1.225 . S
Zn24 O23 1.953 . S
Zn24 O25 1.949 . S
Zn24 O31 1.919 . S
Zn24 O36 1.924 . S
O25 Zn24 1.949 . S
O25 Zn26 1.923 . S
O25 Zn27 1.950 . S
O25 Zn28 1.945 . S
Zn26 O25 1.923 . S
Zn26 O29 1.933 . S
Zn26 O32 1.941 . S
Zn26 O33 1.965 . S
Zn27 O25 1.950 . S
Zn27 O34 1.938 . S
Zn27 O35 1.906 . S
Zn27 O45 1.953 . S
Zn28 O25 1.945 . S
Zn28 O30 1.932 . S
Zn28 O37 1.977 . S
Zn28 O38 1.910 . S
O29 Zn26 1.933 . S
O29 C40 1.226 . S
O30 Zn28 1.932 . S
O30 C40 1.307 . S
O31 Zn24 1.919 . S
O31 C42 1.253 . S
O32 Zn26 1.941 . S
O32 C42 1.283 . S
O33 Zn26 1.965 . S
O33 C41 1.303 . S
O34 Zn27 1.938 . S
O34 C41 1.247 . S
O35 Zn27 1.906 . S
O35 C43 1.304 . S
O36 Zn24 1.924 . S
O36 C44 1.311 . S
O37 Zn28 1.977 . S
O37 C43 1.272 . S
O38 Zn28 1.910 . S
O38 C44 1.231 . S
C39 O23 1.225 . S
C39 O45 1.298 . S
C40 O29 1.226 . S
C40 O30 1.307 . S
C41 O33 1.303 . S
C41 O34 1.247 . S
C42 O31 1.253 . S
C42 O32 1.283 . S
C43 O35 1.304 . S
C43 O37 1.272 . S
C44 O36 1.311 . S
C44 O38 1.231 . S
O45 Zn27 1.953 . S
O45 C39 1.298 . S
O46 Zn47 1.953 . S
O46 C62 1.225 . S
Zn47 O46 1.953 . S
Zn47 O48 1.949 . S
Zn47 O54 1.919 . S
Zn47 O59 1.924 . S
O48 Zn47 1.949 . S
O48 Zn49 1.923 . S
O48 Zn50 1.950 . S
O48 Zn51 1.945 . S
Zn49 O48 1.923 . S
Zn49 O52 1.933 . S
Zn49 O55 1.941 . S
Zn49 O56 1.965 . S
Zn50 O48 1.950 . S
Zn50 O57 1.938 . S
Zn50 O58 1.906 . S
Zn50 O68 1.953 . S
Zn51 O48 1.945 . S
Zn51 O53 1.932 . S
Zn51 O60 1.977 . S
Zn51 O61 1.910 . S
O52 Zn49 1.933 . S
O52 C63 1.226 . S
O53 Zn51 1.932 . S
O53 C63 1.307 . S
O54 Zn47 1.919 . S
O54 C65 1.253 . S
O55 Zn49 1.941 . S
O55 C65 1.283 . S
O56 Zn49 1.965 . S
O56 C64 1.303 . S
O57 Zn50 1.938 . S
O57 C64 1.247 . S
O58 Zn50 1.906 . S
O58 C66 1.304 . S
O59 Zn47 1.924 . S
O59 C67 1.311 . S
O60 Zn51 1.977 . S
O60 C66 1.272 . S
O61 Zn51 1.910 . S
O61 C67 1.231 . S
C62 O46 1.225 . S
C62 O68 1.298 . S
C63 O52 1.226 . S
C63 O53 1.307 . S
C64 O56 1.303 . S
C64 O57 1.247 . S
C65 O54 1.253 . S
C65 O55 1.283 . S
C66 O58 1.304 . S
C66 O60 1.272 . S
C67 O59 1.311 . S
C67 O61 1.231 . S
O68 Zn50 1.953 . S
O68 C62 1.298 . S
O69 Zn70 1.953 . S
O69 C85 1.225 . S
Zn70 O69 1.953 . S
Zn70 O71 1.949 . S
Zn70 O77 1.919 . S
Zn70 O82 1.924 . S
O71 Zn70 1.949 . S
O71 Zn72 1.923 . S
O71 Zn73 1.950 . S
O71 Zn74 1.945 . S
Zn72 O71 1.923 . S
Zn72 O75 1.933 . S
Zn72 O78 1.941 . S
Zn72 O79 1.965 . S
Zn73 O71 1.950 . S
Zn73 O80 1.938 . S
Zn73 O81 1.906 . S
Zn73 O91 1.953 . S
Zn74 O71 1.945 . S
Zn74 O76 1.932 . S
Zn74 O83 1.977 . S
Zn74 O84 1.910 . S
O75 Zn72 1.933 . S
O75 C86 1.226 . S
O76 Zn74 1.932 . S
O76 C86 1.307 . S
O77 Zn70 1.919 . S
O77 C88 1.253 . S
O78 Zn72 1.941 . S
O78 C88 1.283 . S
O79 Zn72 1.965 . S
O79 C87 1.303 . S
O80 Zn73 1.938 . S
O80 C87 1.247 . S
O81 Zn73 1.906 . S
O81 C89 1.304 . S
O82 Zn70 1.924 . S
O82 C90 1.311 . S
O83 Zn74 1.977 . S
O83 C89 1.272 . S
O84 Zn74 1.910 . S
O84 C90 1.231 . S
C85 O69 1.225 . S
C85 O91 1.298 . S
C86 O75 1.226 . S
C86 O76 1.307 . S
C87 O79 1.303 . S
C87 O80 1.247 . S
C88 O77 1.253 . S
C88 O78 1.283 . S
C89 O81 1.304 . S
C89 O83 1.272 . S
C90 O82 1.311 . S
C90 O84 1.231 . S
O91 Zn73 1.953 . S
O91 C85 1.298 . S
O92 Zn93 1.953 . S
O92 C108 1.225 . S
Zn93 O92 1.953 . S
Zn93 O94 1.949 . S
Zn93 O100 1.919 . S
Zn93 O105 1.924 . S
O94 Zn93 1.949 . S
O94 Zn95 1.923 . S
O94 Zn96 1.950 . S
O94 Zn97 1.945 . S
Zn95 O94 1.923 . S
Zn95 O98 1.933 . S
Zn95 O101 1.941 . S
Zn95 O102 1.965 . S
Zn96 O94 1.950 . S
Zn96 O103 1.938 . S
Zn96 O104 1.906 . S
Zn96 O114 1.953 . S
Zn97 O94 1.945 . S
Zn97 O99 1.932 . S
Zn97 O106 1.977 . S
Zn97 O107 1.910 . S
O98 Zn95 1.933 . S
O98 C109 1.226 . S
O99 Zn97 1.932 . S
O99 C109 1.307 . S
O100 Zn93 1.919 . S
O100 C111 1.253 . S
O101 Zn95 1.941 . S
O101 C111 1.283 . S
O102 Zn95 1.965 . S
O102 C110 1.303 . S
O103 Zn96 1.938 . S
O103 C110 1.247 . S
O104 Zn96 1.906 . S
O104 C112 1.304 . S
O105 Zn93 1.924 . S
O105 C113 1.311 . S
O106 Zn97 1.977 . S
O106 C112 1.272 . S
O107 Zn97 1.910 . S
O107 C113 1.231 . S
C108 O92 1.225 . S
C108 O114 1.298 . S
C109 O98 1.226 . S
C109 O99 1.307 . S
C110 O102 1.303 . S
C110 O103 1.247 . S
C111 O100 1.253 . S
C111 O101 1.283 . S
C112 O104 1.304 . S
C112 O106 1.272 . S
C113 O105 1.311 . S
C113 O107 1.231 . S
O114 Zn96 1.953 . S
O114 C108 1.298 . S
O115 Zn116 1.953 . S
O115 C131 1.225 . S
Zn116 O115 1.953 . S
Zn116 O117 1.949 . S
Zn116 O123 1.919 . S
Zn116 O128 1.924 . S
O117 Zn116 1.949 . S
O117 Zn118 1.923 . S
O117 Zn119 1.950 . S
O117 Zn120 1.945 . S
Zn118 O117 1.923 . S
Zn118 O121 1.933 . S
Zn118 O124 1.941 . S
Zn118 O125 1.965 . S
Zn119 O117 1.950 . S
Zn119 O126 1.938 . S
Zn119 O127 1.906 . S
Zn119 O137 1.953 . S
Zn120 O117 1.945 . S
Zn120 O122 1.932 . S
Zn120 O129 1.977 . S
Zn120 O130 1.910 . S
O121 Zn118 1.933 . S
O121 C132 1.226 . S
O122 Zn120 1.932 . S
O122 C132 1.307 . S
O123 Zn116 1.919 . S
O123 C134 1.253 . S
O124 Zn118 1.941 . S
O124 C134 1.283 . S
O125 Zn118 1.965 . S
O125 C133 1.303 . S
O126 Zn119 1.938 . S
O126 C133 1.247 . S
O127 Zn119 1.906 . S
O127 C135 1.304 . S
O128 Zn116 1.924 . S
O128 C136 1.311 . S
O129 Zn120 1.977 . S
O129 C135 1.272 . S
O130 Zn120 1.910 . S
O130 C136 1.231 . S
C131 O115 1.225 . S
C131 O137 1.298 . S
C132 O121 1.226 . S
C132 O122 1.307 . S
C133 O125 1.303 . S
C133 O126 1.247 . S
C134 O123 1.253 . S
C134 O124 1.283 . S
C135 O127 1.304 . S
C135 O129 1.272 . S
C136 O128 1.311 . S
C136 O130 1.231 . S
O137 Zn119 1.953 . S
O137 C131 1.298 . S
O138 Zn139 1.953 . S
O138 C154 1.225 . S
Zn139 O138 1.953 . S
Zn139 O140 1.949 . S
Zn139 O146 1.919 . S
Zn139 O151 1.924 . S
O140 Zn139 1.949 . S
O140 Zn141 1.923 . S
O140 Zn142 1.950 . S
O140 Zn143 1.945 . S
Zn141 O140 1.923 . S
Zn141 O144 1.933 . S
Zn141 O147 1.941 . S
Zn141 O148 1.965 . S
Zn142 O140 1.950 . S
Zn142 O149 1.938 . S
Zn142 O150 1.906 . S
Zn142 O160 1.953 . S
Zn143 O140 1.945 . S
Zn143 O145 1.932 . S
Zn143 O152 1.977 . S
Zn143 O153 1.910 . S
O144 Zn141 1.933 . S
O144 C155 1.226 . S
O145 Zn143 1.932 . S
O145 C155 1.307 . S
O146 Zn139 1.919 . S
O146 C157 1.253 . S
O147 Zn141 1.941 . S
O147 C157 1.283 . S
O148 Zn141 1.965 . S
O148 C156 1.303 . S
O149 Zn142 1.938 . S
O149 C156 1.247 . S
O150 Zn142 1.906 . S
O150 C158 1.304 . S
O151 Zn139 1.924 . S
O151 C159 1.311 . S
O152 Zn143 1.977 . S
O152 C158 1.272 . S
O153 Zn143 1.910 . S
O153 C159 1.231 . S
C154 O138 1.225 . S
C154 O160 1.298 . S
C155 O144 1.226 . S
C155 O145 1.307 . S
C156 O148 1.303 . S
C156 O149 1.247 . S
C157 O146 1.253 . S
C157 O147 1.283 . S
C158 O150 1.304 . S
C158 O152 1.272 . S
C159 O151 1.311 . S
C159 O153 1.231 . S
O160 Zn142 1.953 . S
O160 C154 1.298 . S
O161 Zn162 1.953 . S
O161 C177 1.225 . S
Zn162 O161 1.953 . S
Zn162 O163 1.949 . S
Zn162 O169 1.919 . S
Zn162 O174 1.924 . S
O163 Zn162 1.949 . S
O163 Zn164 1.923 . S
O163 Zn165 1.950 . S
O163 Zn166 1.945 . S
Zn164 O163 1.923 . S
Zn164 O167 1.933 . S
Zn164 O170 1.941 . S
Zn164 O171 1.965 . S
Zn165 O163 1.950 . S
Zn165 O172 1.938 . S
Zn165 O173 1.906 . S
Zn165 O183 1.953 . S
Zn166 O163 1.945 . S
Zn166 O168 1.932 . S
Zn166 O175 1.977 . S
Zn166 O176 1.910 . S
O167 Zn164 1.933 . S
O167 C178 1.226 . S
O168 Zn166 1.932 . S
O168 C178 1.307 . S
O169 Zn162 1.919 . S
O169 C180 1.253 . S
O170 Zn164 1.941 . S
O170 C180 1.283 . S
O171 Zn164 1.965 . S
O171 C179 1.303 . S
O172 Zn165 1.938 . S
O172 C179 1.247 . S
O173 Zn165 1.906 . S
O173 C181 1.304 . S
O174 Zn162 1.924 . S
O174 C182 1.311 . S
O175 Zn166 1.977 . S
O175 C181 1.272 . S
O176 Zn166 1.910 . S
O176 C182 1.231 . S
C177 O161 1.225 . S
C177 O183 1.298 . S
C178 O167 1.226 . S
C178 O168 1.307 . S
C179 O171 1.303 . S
C179 O172 1.247 . S
C180 O169 1.253 . S
C180 O170 1.283 . S
C181 O173 1.304 . S
C181 O175 1.272 . S
C182 O174 1.311 . S
C182 O176 1.231 . S
O183 Zn165 1.953 . S
O183 C177 1.298 . S
O184 Zn185 1.953 . S
O184 C200 1.225 . S
Zn185 O184 1.953 . S
Zn185 O186 1.949 . S
Zn185 O192 1.919 . S
Zn185 O197 1.924 . S
O186 Zn185 1.949 . S
O186 Zn187 1.923 . S
O186 Zn188 1.950 . S
O186 Zn189 1.945 . S
Zn187 O186 1.923 . S
Zn187 O190 1.933 . S
Zn187 O193 1.941 . S
Zn187 O194 1.965 . S
Zn188 O186 1.950 . S
Zn188 O195 1.938 . S
Zn188 O196 1.906 . S
Zn188 O206 1.953 . S
Zn189 O186 1.945 . S
Zn189 O191 1.932 . S
Zn189 O198 1.977 . S
Zn189 O199 1.910 . S
O190 Zn187 1.933 . S
O190 C201 1.226 . S
O191 Zn189 1.932 . S
O191 C201 1.307 . S
O192 Zn185 1.919 . S
O192 C203 1.253 . S
O193 Zn187 1.941 . S
O193 C203 1.283 . S
O194 Zn187 1.965 . S
O194 C202 1.303 . S
O195 Zn188 1.938 . S
O195 C202 1.247 . S
O196 Zn188 1.906 . S
O196 C204 1.304 . S
O197 Zn185 1.924 . S
O197 C205 1.311 . S
O198 Zn189 1.977 . S
O198 C204 1.272 . S
O199 Zn189 1.910 . S
O199 C205 1.231 . S
C200 O184 1.225 . S
C200 O206 1.298 . S
C201 O190 1.226 . S
C201 O191 1.307 . S
C202 O194 1.303 . S
C202 O195 1.247 . S
C203 O192 1.253 . S
C203 O193 1.283 . S
C204 O196 1.304 . S
C204 O198 1.272 . S
C205 O197 1.311 . S
C205 O199 1.231 . S
O206 Zn188 1.953 . S
O206 C200 1.298 . S
O207 Zn208 1.953 . S
O207 C223 1.225 . S
Zn208 O207 1.953 . S
Zn208 O209 1.949 . S
Zn208 O215 1.919 . S
Zn208 O220 1.924 . S
O209 Zn208 1.949 . S
O209 Zn210 1.923 . S
O209 Zn211 1.950 . S
O209 Zn212 1.945 . S
Zn210 O209 1.923 . S
Zn210 O213 1.933 . S
Zn210 O216 1.941 . S
Zn210 O217 1.965 . S
Zn211 O209 1.950 . S
Zn211 O218 1.938 . S
Zn211 O219 1.906 . S
Zn211 O229 1.953 . S
Zn212 O209 1.945 . S
Zn212 O214 1.932 . S
Zn212 O221 1.977 . S
Zn212 O222 1.910 . S
O213 Zn210 1.933 . S
O213 C224 1.226 . S
O214 Zn212 1.932 . S
O214 C224 1.307 . S
O215 Zn208 1.919 . S
O215 C226 1.253 . S
O216 Zn210 1.941 . S
O216 C226 1.283 . S
O217 Zn210 1.965 . S
O217 C225 1.303 . S
O218 Zn211 1.938 . S
O218 C225 1.247 . S
O219 Zn211 1.906 . S
O219 C227 1.304 . S
O220 Zn208 1.924 . S
O220 C228 1.311 . S
O221 Zn212 1.977 . S
O221 C227 1.272 . S
O222 Zn212 1.910 . S
O222 C228 1.231 . S
C223 O207 1.225 . S
C223 O229 1.298 . S
C224 O213 1.226 . S
C224 O214 1.307 . S
C225 O217 1.303 . S
C225 O218 1.247 . S
C226 O215 1.253 . S
C226 O216 1.283 . S
C227 O219 1.304 . S
C227 O221 1.272 . S
C228 O220 1.311 . S
C228 O222 1.231 . S
O229 Zn211 1.953 . S
O229 C223 1.298 . S
O230 Zn231 1.953 . S
O230 C246 1.225 . S
Zn231 O230 1.953 . S
Zn231 O232 1.949 . S
Zn231 O238 1.919 . S
Zn231 O243 1.924 . S
O232 Zn231 1.949 . S
O232 Zn233 1.923 . S
O232 Zn234 1.950 . S
O232 Zn235 1.945 . S
Zn233 O232 1.923 . S
Zn233 O236 1.933 . S
Zn233 O239 1.941 . S
Zn233 O240 1.965 . S
Zn234 O232 1.950 . S
Zn234 O241 1.938 . S
Zn234 O242 1.906 . S
Zn234 O252 1.953 . S
Zn235 O232 1.945 . S
Zn235 O237 1.932 . S
Zn235 O244 1.977 . S
Zn235 O245 1.910 . S
O236 Zn233 1.933 . S
O236 C247 1.226 . S
O237 Zn235 1.932 . S
O237 C247 1.307 . S
O238 Zn231 1.919 . S
O238 C249 1.253 . S
O239 Zn233 1.941 . S
O239 C249 1.283 . S
O240 Zn233 1.965 . S
O240 C248 1.303 . S
O241 Zn234 1.938 . S
O241 C248 1.247 . S
O242 Zn234 1.906 . S
O242 C250 1.304 . S
O243 Zn231 1.924 . S
O243 C251 1.311 . S
O244 Zn235 1.977 . S
O244 C250 1.272 . S
O245 Zn235 1.910 . S
O245 C251 1.231 . S
C246 O230 1.225 . S
C246 O252 1.298 . S
C247 O236 1.226 . S
C247 O237 1.307 . S
C248 O240 1.303 . S
C248 O241 1.247 . S
C249 O238 1.253 . S
C249 O239 1.283 . S
C250 O242 1.304 . S
C250 O244 1.272 . S
C251 O243 1.311 . S
C251 O245 1.231 . S
O252 Zn234 1.953 . S
O252 C246 1.298 . S
O253 Zn254 1.953 . S
O253 C269 1.225 . S
Zn254 O253 1.953 . S
Zn254 O255 1.949 . S
Zn254 O261 1.919 . S
Zn254 O266 1.924 . S
O255 Zn254 1.949 . S
O255 Zn256 1.923 . S
O255 Zn257 1.950 . S
O255 Zn258 1.945 . S
Zn256 O255 1.923 . S
Zn256 O259 1.933 . S
Zn256 O262 1.941 . S
Zn256 O263 1.965 . S
Zn257 O255 1.950 . S
Zn257 O264 1.938 . S
Zn257 O265 1.906 . S
Zn257 O275 1.953 . S
Zn258 O255 1.945 . S
Zn258 O260 1.932 . S
Zn258 O267 1.977 . S
Zn258 O268 1.910 . S
O259 Zn256 1.933 . S
O259 C270 1.226 . S
O260 Zn258 1.932 . S
O260 C270 1.307 . S
O261 Zn254 1.919 . S
O261 C272 1.253 . S
O262 Zn256 1.941 . S
O262 C272 1.283 . S
O263 Zn256 1.965 . S
O263 C271 1.303 . S
O264 Zn257 1.938 . S
O264 C271 1.247 . S
O265 Zn257 1.906 . S
O265 C273 1.304 . S
O266 Zn254 1.924 . S
O266 C274 1.311 . S
O267 Zn258 1.977 . S
O267 C273 1.272 . S
O268 Zn258 1.910 . S
O268 C274 1.231 . S
C269 O253 1.225 . S
C269 O275 1.298 . S
C270 O259 1.226 . S
C270 O260 1.307 . S
C271 O263 1.303 . S
C271 O264 1.247 . S
C272 O261 1.253 . S
C272 O262 1.283 . S
C273 O265 1.304 . S
C273 O267 1.272 . S
C274 O266 1.311 . S
C274 O268 1.231 . S
O275 Zn257 1.953 . S
O275 C269 1.298 . S
O276 Zn277 1.953 . S
O276 C292 1.225 . S
Zn277 O276 1.953 . S
Zn277 O278 1.949 . S
Zn277 O284 1.919 . S
Zn277 O289 1.924 . S
O278 Zn277 1.949 . S
O278 Zn279 1.923 . S
O278 Zn280 1.950 . S
O278 Zn281 1.945 . S
Zn279 O278 1.923 . S
Zn279 O282 1.933 . S
Zn279 O285 1.941 . S
Zn279 O286 1.965 . S
Zn280 O278 1.950 . S
Zn280 O287 1.938 . S
Zn280 O288 1.906 . S
Zn280 O298 1.953 . S
Zn281 O278 1.945 . S
Zn281 O283 1.932 . S
Zn281 O290 1.977 . S
Zn281 O291 1.910 . S
O282 Zn279 1.933 . S
O282 C293 1.226 . S
O283 Zn281 1.932 . S
O283 C293 1.307 . S
O284 Zn277 1.919 . S
O284 C295 1.253 . S
O285 Zn279 1.941 . S
O285 C295 1.283 . S
O286 Zn279 1.965 . S
O286 C294 1.303 . S
O287 Zn280 1.938 . S
O287 C294 1.247 . S
O288 Zn280 1.906 . S
O288 C296 1.304 . S
O289 Zn277 1.924 . S
O289 C297 1.311 . S
O290 Zn281 1.977 . S
O290 C296 1.272 . S
O291 Zn281 1.910 . S
O291 C297 1.231 . S
C292 O276 1.225 . S
C292 O298 1.298 . S
C293 O282 1.226 . S
C293 O283 1.307 . S
C294 O286 1.303 . S
C294 O287 1.247 . S
C295 O284 1.253 . S
C295 O285 1.283 . S
C296 O288 1.304 . S
C296 O290 1.272 . S
C297 O289 1.311 . S
C297 O291 1.231 . S
O298 Zn280 1.953 . S
O298 C292 1.298 . S
O299 Zn300 1.953 . S
O299 C315 1.225 . S
Zn300 O299 1.953 . S
Zn300 O301 1.949 . S
Zn300 O307 1.919 . S
Zn300 O312 1.924 . S
O301 Zn300 1.949 . S
O301 Zn302 1.923 . S
O301 Zn303 1.950 . S
O301 Zn304 1.945 . S
Zn302 O301 1.923 . S
Zn302 O305 1.933 . S
Zn302 O308 1.941 . S
Zn302 O309 1.965 . S
Zn303 O301 1.950 . S
Zn303 O310 1.938 . S
Zn303 O311 1.906 . S
Zn303 O321 1.953 . S
Zn304 O301 1.945 . S
Zn304 O306 1.932 . S
Zn304 O313 1.977 . S
Zn304 O314 1.910 . S
O305 Zn302 1.933 . S
O305 C316 1.226 . S
O306 Zn304 1.932 . S
O306 C316 1.307 . S
O307 Zn300 1.919 . S
O307 C318 1.253 . S
O308 Zn302 1.941 . S
O308 C318 1.283 . S
O309 Zn302 1.965 . S
O309 C317 1.303 . S
O310 Zn303 1.938 . S
O310 C317 1.247 . S
O311 Zn303 1.906 . S
O311 C319 1.304 . S
O312 Zn300 1.924 . S
O312 C320 1.311 . S
O313 Zn304 1.977 . S
O313 C319 1.272 . S
O314 Zn304 1.910 . S
O314 C320 1.231 . S
C315 O299 1.225 . S
C315 O321 1.298 . S
C316 O305 1.226 . S
C316 O306 1.307 . S
C317 O309 1.303 . S
C317 O310 1.247 . S
C318 O307 1.253 . S
C318 O308 1.283 . S
C319 O311 1.304 . S
C319 O313 1.272 . S
C320 O312 1.311 . S
C320 O314 1.231 . S
O321 Zn303 1.953 . S
O321 C315 1.298 . S
O322 Zn323 1.953 . S
O322 C338 1.225 . S
Zn323 O322 1.953 . S
Zn323 O324 1.949 . S
Zn323 O330 1.919 . S
Zn323 O335 1.924 . S
O324 Zn323 1.949 . S
O324 Zn325 1.923 . S
O324 Zn326 1.950 . S
O324 Zn327 1.945 . S
Zn325 O324 1.923 . S
Zn325 O328 1.933 . S
Zn325 O331 1.941 . S
Zn325 O332 1.965 . S
Zn326 O324 1.950 . S
Zn326 O333 1.938 . S
Zn326 O334 1.906 . S
Zn326 O344 1.953 . S
Zn327 O324 1.945 . S
Zn327 O329 1.932 . S
Zn327 O336 1.977 . S
Zn327 O337 1.910 . S
O328 Zn325 1.933 . S
O328 C339 1.226 . S
O329 Zn327 1.932 . S
O329 C339 1.307 . S
O330 Zn323 1.919 . S
O330 C341 1.253 . S
O331 Zn325 1.941 . S
O331 C341 1.283 . S
O332 Zn325 1.965 . S
O332 C340 1.303 . S
O333 Zn326 1.938 . S
O333 C340 1.247 . S
O334 Zn326 1.906 . S
O334 C342 1.304 . S
O335 Zn323 1.924 . S
O335 C343 1.311 . S
O336 Zn327 1.977 . S
O336 C342 1.272 . S
O337 Zn327 1.910 . S
O337 C343 1.231 . S
C338 O322 1.225 . S
C338 O344 1.298 . S
C339 O328 1.226 . S
C339 O329 1.307 . S
C340 O332 1.303 . S
C340 O333 1.247 . S
C341 O330 1.253 . S
C341 O331 1.283 . S
C342 O334 1.304 . S
C342 O336 1.272 . S
C343 O335 1.311 . S
C343 O337 1.231 . S
O344 Zn326 1.953 . S
O344 C338 1.298 . S
O345 Zn346 1.953 . S
O345 C361 1.225 . S
Zn346 O345 1.953 . S
Zn346 O347 1.949 . S
Zn346 O353 1.919 . S
Zn346 O358 1.924 . S
O347 Zn346 1.949 . S
O347 Zn348 1.923 . S
O347 Zn349 1.950 . S
O347 Zn350 1.945 . S
Zn348 O347 1.923 . S
Zn348 O351 1.933 . S
Zn348 O354 1.941 . S
Zn348 O355 1.965 . S
Zn349 O347 1.950 . S
Zn349 O356 1.938 . S
Zn349 O357 1.906 . S
Zn349 O367 1.953 . S
Zn350 O347 1.945 . S
Zn350 O352 1.932 . S
Zn350 O359 1.977 . S
Zn350 O360 1.910 . S
O351 Zn348 1.933 . S
O351 C362 1.226 . S
O352 Zn350 1.932 . S
O352 C362 1.307 . S
O353 Zn346 1.919 . S
O353 C364 1.253 . S
O354 Zn348 1.941 . S
O354 C364 1.283 . S
O355 Zn348 1.965 . S
O355 C363 1.303 . S
O356 Zn349 1.938 . S
O356 C363 1.247 . S
O357 Zn349 1.906 . S
O357 C365 1.304 . S
O358 Zn346 1.924 . S
O358 C366 1.311 . S
O359 Zn350 1.977 . S
O359 C365 1.272 . S
O360 Zn350 1.910 . S
O360 C366 1.231 . S
C361 O345 1.225 . S
C361 O367 1.298 . S
C362 O351 1.226 . S
C362 O352 1.307 . S
C363 O355 1.303 . S
C363 O356 1.247 . S
C364 O353 1.253 . S
C364 O354 1.283 . S
C365 O357 1.304 . S
C365 O359 1.272 . S
C366 O358 1.311 . S
C366 O360 1.231 . S
O367 Zn349 1.953 . S
O367 C361 1.298 . S
O368 Zn369 1.953 . S
O368 C384 1.225 . S
Zn369 O368 1.953 . S
Zn369 O370 1.949 . S
Zn369 O376 1.919 . S
Zn369 O381 1.924 . S
O370 Zn369 1.949 . S
O370 Zn371 1.923 . S
O370 Zn372 1.950 . S
O370 Zn373 1.945 . S
Zn371 O370 1.923 . S
Zn371 O374 1.933 . S
Zn371 O377 1.941 . S
Zn371 O378 1.965 . S
Zn372 O370 1.950 . S
Zn372 O379 1.938 . S
Zn372 O380 1.906 . S
Zn372 O390 1.953 . S
Zn373 O370 1.945 . S
Zn373 O375 1.932 . S
Zn373 O382 1.977 . S
Zn373 O383 1.910 . S
O374 Zn371 1.933 . S
O374 C385 1.226 . S
O375 Zn373 1.932 . S
O375 C385 1.307 . S
O376 Zn369 1.919 . S
O376 C387 1.253 . S
O377 Zn371 1.941 . S
O377 C387 1.283 . S
O378 Zn371 1.965 . S
O378 C386 1.303 . S
O379 Zn372 1.938 . S
O379 C386 1.247 . S
O380 Zn372 1.906 . S
O380 C388 1.304 . S
O381 Zn369 1.924 . S
O381 C389 1.311 . S
O382 Zn373 1.977 . S
O382 C388 1.272 . S
O383 Zn373 1.910 . S
O383 C389 1.231 . S
C384 O368 1.225 . S
C384 O390 1.298 . S
C385 O374 1.226 . S
C385 O375 1.307 . S
C386 O378 1.303 . S
C386 O379 1.247 . S
C387 O376 1.253 . S
C387 O377 1.283 . S
C388 O380 1.304 . S
C388 O382 1.272 . S
C389 O381 1.311 . S
C389 O383 1.231 . S
O390 Zn372 1.953 . S
O390 C384 1.298 . S
O391 Zn392 1.953 . S
O391 C407 1.225 . S
Zn392 O391 1.953 . S
Zn392 O393 1.949 . S
Zn392 O399 1.919 . S
Zn392 O404 1.924 . S
O393 Zn392 1.949 . S
O393 Zn394 1.923 . S
O393 Zn395 1.950 . S
O393 Zn396 1.945 . S
Zn394 O393 1.923 . S
Zn394 O397 1.933 . S
Zn394 O400 1.941 . S
Zn394 O401 1.965 . S
Zn395 O393 1.950 . S
Zn395 O402 1.938 . S
Zn395 O403 1.906 . S
Zn395 O413 1.953 . S
Zn396 O393 1.945 . S
Zn396 O398 1.932 . S
Zn396 O405 1.977 . S
Zn396 O406 1.910 . S
O397 Zn394 1.933 . S
O397 C408 1.226 . S
O398 Zn396 1.932 . S
O398 C408 1.307 . S
O399 Zn392 1.919 . S
O399 C410 1.253 . S
O400 Zn394 1.941 . S
O400 C410 1.283 . S
O401 Zn394 1.965 . S
O401 C409 1.303 . S
O402 Zn395 1.938 . S
O402 C409 1.247 . S
O403 Zn395 1.906 . S
O403 C411 1.304 . S
O404 Zn392 1.924 . S
O404 C412 1.311 . S
O405 Zn396 1.977 . S
O405 C411 1.272 . S
O406 Zn396 1.910 . S
O406 C412 1.231 . S
C407 O391 1.225 . S
C407 O413 1.298 . S
C408 O397 1.226 . S
C408 O398 1.307 . S
C409 O401 1.303 . S
C409 O402 1.247 . S
C410 O399 1.253 . S
C410 O400 1.283 . S
C411 O403 1.304 . S
C411 O405 1.272 . S
C412 O404 1.311 . S
C412 O406 1.231 . S
O413 Zn395 1.953 . S
O413 C407 1.298 . S
O414 Zn415 1.953 . S
O414 C430 1.225 . S
Zn415 O414 1.953 . S
Zn415 O416 1.949 . S
Zn415 O422 1.919 . S
Zn415 O427 1.924 . S
O416 Zn415 1.949 . S
O416 Zn417 1.923 . S
O416 Zn418 1.950 . S
O416 Zn419 1.945 . S
Zn417 O416 1.923 . S
Zn417 O420 1.933 . S
Zn417 O423 1.941 . S
Zn417 O424 1.965 . S
Zn418 O416 1.950 . S
Zn418 O425 1.938 . S
Zn418 O426 1.906 . S
Zn418 O436 1.953 . S
Zn419 O416 1.945 . S
Zn419 O421 1.932 . S
Zn419 O428 1.977 . S
Zn419 O429 1.910 . S
O420 Zn417 1.933 . S
O420 C431 1.226 . S
O421 Zn419 1.932 . S
O421 C431 1.307 . S
O422 Zn415 1.919 . S
O422 C433 1.253 . S
O423 Zn417 1.941 . S
O423 C433 1.283 . S
O424 Zn417 1.965 . S
O424 C432 1.303 . S
O425 Zn418 1.938 . S
O425 C432 1.247 . S
O426 Zn418 1.906 . S
O426 C434 1.304 . S
O427 Zn415 1.924 . S
O427 C435 1.311 . S
O428 Zn419 1.977 . S
O428 C434 1.272 . S
O429 Zn419 1.910 . S
O429 C435 1.231 . S
C430 O414 1.225 . S
C430 O436 1.298 . S
C431 O420 1.226 . S
C431 O421 1.307 . S
C432 O424 1.303 . S
C432 O425 1.247 . S
C433 O422 1.253 . S
C433 O423 1.283 . S
C434 O426 1.304 . S
C434 O428 1.272 . S
C435 O427 1.311 . S
C435 O429 1.231 . S
O436 Zn418 1.953 . S
O436 C430 1.298 . S
O437 Zn438 1.953 . S
O437 C453 1.225 . S
Zn438 O437 1.953 . S
Zn438 O439 1.949 . S
Zn438 O445 1.919 . S
Zn438 O450 1.924 . S
O439 Zn438 1.949 . S
O439 Zn440 1.923 . S
O439 Zn441 1.950 . S
O439 Zn442 1.945 . S
Zn440 O439 1.923 . S
Zn440 O443 1.933 . S
Zn440 O446 1.941 . S
Zn440 O447 1.965 . S
Zn441 O439 1.950 . S
Zn441 O448 1.938 . S
Zn441 O449 1.906 . S
Zn441 O459 1.953 . S
Zn442 O439 1.945 . S
Zn442 O444 1.932 . S
Zn442 O451 1.977 . S
Zn442 O452 1.910 . S
O443 Zn440 1.933 . S
O443 C454 1.226 . S
O444 Zn442 1.932 . S
O444 C454 1.307 . S
O445 Zn438 1.919 . S
O445 C456 1.253 . S
O446 Zn440 1.941 . S
O446 C456 1.283 . S
O447 Zn440 1.965 . S
O447 C455 1.303 . S
O448 Zn441 1.938 . S
O448 C455 1.247 . S
O449 Zn441 1.906 . S
O449 C457 1.304 . S
O450 Zn438 1.924 . S
O450 C458 1.311 . S
O451 Zn442 1.977 . S
O451 C457 1.272 . S
O452 Zn442 1.910 . S
O452 C458 1.231 . S
C453 O437 1.225 . S
C453 O459 1.298 . S
C454 O443 1.226 . S
C454 O444 1.307 . S
C455 O447 1.303 . S
C455 O448 1.247 . S
C456 O445 1.253 . S
C456 O446 1.283 . S
C457 O449 1.304 . S
C457 O451 1.272 . S
C458 O450 1.311 . S
C458 O452 1.231 . S
O459 Zn441 1.953 . S
O459 C453 1.298 . S
O460 Zn461 1.953 . S
O460 C476 1.225 . S
Zn461 O460 1.953 . S
Zn461 O462 1.949 . S
Zn461 O468 1.919 . S
Zn461 O473 1.924 . S
O462 Zn461 1.949 . S
O462 Zn463 1.923 . S
O462 Zn464 1.950 . S
O462 Zn465 1.945 . S
Zn463 O462 1.923 . S
Zn463 O466 1.933 . S
Zn463 O469 1.941 . S
Zn463 O470 1.965 . S
Zn464 O462 1.950 . S
Zn464 O471 1.938 . S
Zn464 O472 1.906 . S
Zn464 O482 1.953 . S
Zn465 O462 1.945 . S
Zn465 O467 1.932 . S
Zn465 O474 1.977 . S
Zn465 O475 1.910 . S
O466 Zn463 1.933 . S
O466 C477 1.226 . S
O467 Zn465 1.932 . S
O467 C477 1.307 . S
O468 Zn461 1.919 . S
O468 C479 1.253 . S
O469 Zn463 1.941 . S
O469 C479 1.283 . S
O470 Zn463 1.965 . S
O470 C478 1.303 . S
O471 Zn464 1.938 . S
O471 C478 1.247 . S
O472 Zn464 1.906 . S
O472 C480 1.304 . S
O473 Zn461 1.924 . S
O473 C481 1.311 . S
O474 Zn465 1.977 . S
O474 C480 1.272 . S
O475 Zn465 1.910 . S
O475 C481 1.231 . S
C476 O460 1.225 . S
C476 O482 1.298 . S
C477 O466 1.226 . S
C477 O467 1.307 . S
C478 O470 1.303 . S
C478 O471 1.247 . S
C479 O468 1.253 . S
C479 O469 1.283 . S
C480 O472 1.304 . S
C480 O474 1.272 . S
C481 O473 1.311 . S
C481 O475 1.231 . S
O482 Zn464 1.953 . S
O482 C476 1.298 . S
O483 Zn484 1.953 . S
O483 C499 1.225 . S
Zn484 O483 1.953 . S
Zn484 O485 1.949 . S
Zn484 O491 1.919 . S
Zn484 O496 1.924 . S
O485 Zn484 1.949 . S
O485 Zn486 1.923 . S
O485 Zn487 1.950 . S
O485 Zn488 1.945 . S
Zn486 O485 1.923 . S
Zn486 O489 1.933 . S
Zn486 O492 1.941 . S
Zn486 O493 1.965 . S
Zn487 O485 1.950 . S
Zn487 O494 1.938 . S
Zn487 O495 1.906 . S
Zn487 O505 1.953 . S
Zn488 O485 1.945 . S
Zn488 O490 1.932 . S
Zn488 O497 1.977 . S
Zn488 O498 1.910 . S
O489 Zn486 1.933 . S
O489 C500 1.226 . S
O490 Zn488 1.932 . S
O490 C500 1.307 . S
O491 Zn484 1.919 . S
O491 C502 1.253 . S
O492 Zn486 1.941 . S
O492 C502 1.283 . S
O493 Zn486 1.965 . S
O493 C501 1.303 . S
O494 Zn487 1.938 . S
O494 C501 1.247 . S
O495 Zn487 1.906 . S
O495 C503 1.304 . S
O496 Zn484 1.924 . S
O496 C504 1.311 . S
O497 Zn488 1.977 . S
O497 C503 1.272 . S
O498 Zn488 1.910 . S
O498 C504 1.231 . S
C499 O483 1.225 . S
C499 O505 1.298 . S
C500 O489 1.226 . S
C500 O490 1.307 . S
C501 O493 1.303 . S
C501 O494 1.247 . S
C502 O491 1.253 . S
C502 O492 1.283 . S
C503 O495 1.304 . S
C503 O497 1.272 . S
C504 O496 1.311 . S
C504 O498 1.231 . S
O505 Zn487 1.953 . S
O505 C499 1.298 . S
O506 Zn507 1.953 . S
O506 C522 1.225 . S
Zn507 O506 1.953 . S
Zn507 O508 1.949 . S
Zn507 O514 1.919 . S
Zn507 O519 1.924 . S
O508 Zn507 1.949 . S
O508 Zn509 1.923 . S
O508 Zn510 1.950 . S
O508 Zn511 1.945 . S
Zn509 O508 1.923 . S
Zn509 O512 1.933 . S
Zn509 O515 1.941 . S
Zn509 O516 1.965 . S
Zn510 O508 1.950 . S
Zn510 O517 1.938 . S
Zn510 O518 1.906 . S
Zn510 O528 1.953 . S
Zn511 O508 1.945 . S
Zn511 O513 1.932 . S
Zn511 O520 1.977 . S
Zn511 O521 1.910 . S
O512 Zn509 1.933 . S
O512 C523 1.226 . S
O513 Zn511 1.932 . S
O513 C523 1.307 . S
O514 Zn507 1.919 . S
O514 C525 1.253 . S
O515 Zn509 1.941 . S
O515 C525 1.283 . S
O516 Zn509 1.965 . S
O516 C524 1.303 . S
O517 Zn510 1.938 . S
O517 C524 1.247 . S
O518 Zn510 1.906 . S
O518 C526 1.304 . S
O519 Zn507 1.924 . S
O519 C527 1.311 . S
O520 Zn511 1.977 . S
O520 C526 1.272 . S
O521 Zn511 1.910 . S
O521 C527 1.231 . S
C522 O506 1.225 . S
C522 O528 1.298 . S
C523 O512 1.226 . S
C523 O513 1.307 . S
C524 O516 1.303 . S
C524 O517 1.247 . S
C525 O514 1.253 . S
C525 O515 1.283 . S
C526 O518 1.304 . S
C526 O520 1.272 . S
C527 O519 1.311 . S
C527 O521 1.231 . S
O528 Zn510 1.953 . S
O528 C522 1.298 . S
O529 Zn530 1.953 . S
O529 C545 1.225 . S
Zn530 O529 1.953 . S
Zn530 O531 1.949 . S
Zn530 O537 1.919 . S
Zn530 O542 1.924 . S
O531 Zn530 1.949 . S
O531 Zn532 1.923 . S
O531 Zn533 1.950 . S
O531 Zn534 1.945 . S
Zn532 O531 1.923 . S
Zn532 O535 1.933 . S
Zn532 O538 1.941 . S
Zn532 O539 1.965 . S
Zn533 O531 1.950 . S
Zn533 O540 1.938 . S
Zn533 O541 1.906 . S
Zn533 O551 1.953 . S
Zn534 O531 1.945 . S
Zn534 O536 1.932 . S
Zn534 O543 1.977 . S
Zn534 O544 1.910 . S
O535 Zn532 1.933 . S
O535 C546 1.226 . S
O536 Zn534 1.932 . S
O536 C546 1.307 . S
O537 Zn530 1.919 . S
O537 C548 1.253 . S
O538 Zn532 1.941 . S
O538 C548 1.283 . S
O539 Zn532 1.965 . S
O539 C547 1.303 . S
O540 Zn533 1.938 . S
O540 C547 1.247 . S
O541 Zn533 1.906 . S
O541 C549 1.304 . S
O542 Zn530 1.924 . S
O542 C550 1.311 . S
O543 Zn534 1.977 . S
O543 C549 1.272 . S
O544 Zn534 1.910 . S
O544 C550 1.231 . S
C545 O529 1.225 . S
C545 O551 1.298 . S
C546 O535 1.226 . S
C546 O536 1.307 . S
C547 O539 1.303 . S
C547 O540 1.247 . S
C548 O537 1.253 . S
C548 O538 1.283 . S
C549 O541 1.304 . S
C549 O543 1.272 . S
C550 O542 1.311 . S
C550 O544 1.231 . S
O551 Zn533 1.953 . S
O551 C545 1.298 . S
C203 C19 3.169 . S
C42 C226 3.169 . S
C65 C249 3.169 . S
C88 C272 3.169 . S
C111 C157 3.169 . S
C180 C134 3.169 . S
C479 C295 3.169 . S
C502 C318 3.169 . S
C525 C341 3.169 . S
C364 C548 3.169 . S
C433 C387 3.169 . S
C456 C410 3.169 . S
C16 C85 3.316 1_545 S
C108 C39 3.316 . S
C62 C131 3.316 1_655 S
C154 C223 3.316 1_655 S
C177 C246 3.317 1_565 S
C200 C269 3.316 . S
C361 C292 3.316 1_545 S
C315 C384 3.316 . S
C407 C338 3.316 1_655 S
C430 C499 3.316 1_455 S
C453 C522 3.316 1_545 S
C545 C476 3.316 . S
C18 C248 1.329 . S
C271 C41 1.329 . S
C64 C156 1.328 . S
C87 C179 1.329 . S
C202 C110 1.329 . S
C225 C133 1.329 . S
C294 C524 1.329 . S
C317 C547 1.329 . S
C340 C432 1.329 . S
C363 C455 1.329 . S
C478 C386 1.329 . S
C501 C409 1.329 . S
C17 C112 1.922 . S
C135 C40 1.922 . S
C63 C20 1.922 . S
C43 C86 1.922 . S
C66 C109 1.922 . S
C89 C132 1.922 . S
C155 C204 1.922 . S
C227 C178 1.922 . S
C201 C250 1.922 . S
C224 C273 1.922 . S
C158 C247 1.922 . S
C270 C181 1.922 . S
C293 C388 1.922 . S
C411 C316 1.922 . S
C296 C339 1.922 . S
C362 C319 1.922 . S
C342 C385 1.922 . S
C408 C365 1.922 . S
C431 C480 1.922 . S
C503 C454 1.922 . S
C526 C477 1.922 . S
C500 C549 1.922 . S
C434 C523 1.922 . S
C546 C457 1.922 . S
C366 C21 1.619 1_556 S
C389 C44 1.620 1_556 S
C67 C412 1.619 1_554 S
C297 C90 1.619 1_556 S
C320 C113 1.620 1_556 S
C136 C343 1.619 1_554 S
C504 C159 1.619 . S
C527 C182 1.619 . S
C205 C550 1.619 . S
C435 C228 1.619 . S
C251 C458 1.619 . S
C481 C274 1.619 . S
