# Generated by pormake.
# Topology wlq, (5)-cn, num edge types: 1
# Building blocks:
#     Node 0, Type 0, BuildingBlock: BEQFEK_clean_sbu_0, # of connection points: 5
#     Node 1, Type 0, BuildingBlock: BEQFEK_clean_sbu_0, # of connection points: 5
#     Node 2, Type 0, BuildingBlock: BEQFEK_clean_sbu_0, # of connection points: 5
#     Node 3, Type 0, BuildingBlock: BEQFEK_clean_sbu_0, # of connection points: 5
#     Node 4, Type 0, BuildingBlock: BEQFEK_clean_sbu_0, # of connection points: 5
#     Node 5, Type 0, BuildingBlock: BEQFEK_clean_sbu_0, # of connection points: 5
#     Node 6, Type 0, BuildingBlock: BEQFEK_clean_sbu_0, # of connection points: 5
#     Node 7, Type 0, BuildingBlock: BEQFEK_clean_sbu_0, # of connection points: 5
#     Node 8, Type 0, BuildingBlock: BEQFEK_clean_sbu_0, # of connection points: 5
#     Node 9, Type 0, BuildingBlock: BEQFEK_clean_sbu_0, # of connection points: 5
#     Node 10, Type 0, BuildingBlock: BEQFEK_clean_sbu_0, # of connection points: 5
#     Node 11, Type 0, BuildingBlock: BEQFEK_clean_sbu_0, # of connection points: 5
#     Node 12, Type 0, BuildingBlock: BEQFEK_clean_sbu_0, # of connection points: 5
#     Node 13, Type 0, BuildingBlock: BEQFEK_clean_sbu_0, # of connection points: 5
#     Node 14, Type 0, BuildingBlock: BEQFEK_clean_sbu_0, # of connection points: 5
#     Node 15, Type 0, BuildingBlock: BEQFEK_clean_sbu_0, # of connection points: 5
#     Node 16, Type 0, BuildingBlock: BEQFEK_clean_sbu_0, # of connection points: 5
#     Node 17, Type 0, BuildingBlock: BEQFEK_clean_sbu_0, # of connection points: 5
#     Node 18, Type 0, BuildingBlock: BEQFEK_clean_sbu_0, # of connection points: 5
#     Node 19, Type 0, BuildingBlock: BEQFEK_clean_sbu_0, # of connection points: 5
#     Node 20, Type 0, BuildingBlock: BEQFEK_clean_sbu_0, # of connection points: 5
#     Node 21, Type 0, BuildingBlock: BEQFEK_clean_sbu_0, # of connection points: 5
#     Node 22, Type 0, BuildingBlock: BEQFEK_clean_sbu_0, # of connection points: 5
#     Node 23, Type 0, BuildingBlock: BEQFEK_clean_sbu_0, # of connection points: 5
#     Node 24, Type 0, BuildingBlock: BEQFEK_clean_sbu_0, # of connection points: 5
#     Node 25, Type 0, BuildingBlock: BEQFEK_clean_sbu_0, # of connection points: 5
#     Node 26, Type 0, BuildingBlock: BEQFEK_clean_sbu_0, # of connection points: 5
#     Node 27, Type 0, BuildingBlock: BEQFEK_clean_sbu_0, # of connection points: 5
#     Node 28, Type 0, BuildingBlock: BEQFEK_clean_sbu_0, # of connection points: 5
#     Node 29, Type 0, BuildingBlock: BEQFEK_clean_sbu_0, # of connection points: 5
#     Node 30, Type 0, BuildingBlock: BEQFEK_clean_sbu_0, # of connection points: 5
#     Node 31, Type 0, BuildingBlock: BEQFEK_clean_sbu_0, # of connection points: 5
#     Node 32, Type 0, BuildingBlock: BEQFEK_clean_sbu_0, # of connection points: 5
#     Node 33, Type 0, BuildingBlock: BEQFEK_clean_sbu_0, # of connection points: 5
#     Node 34, Type 0, BuildingBlock: BEQFEK_clean_sbu_0, # of connection points: 5
#     Node 35, Type 0, BuildingBlock: BEQFEK_clean_sbu_0, # of connection points: 5
#     Edge 36, Type (0, 0), None
#     Edge 37, Type (0, 0), None
#     Edge 38, Type (0, 0), None
#     Edge 39, Type (0, 0), None
#     Edge 40, Type (0, 0), None
#     Edge 41, Type (0, 0), None
#     Edge 42, Type (0, 0), None
#     Edge 43, Type (0, 0), None
#     Edge 44, Type (0, 0), None
#     Edge 45, Type (0, 0), None
#     Edge 46, Type (0, 0), None
#     Edge 47, Type (0, 0), None
#     Edge 48, Type (0, 0), None
#     Edge 49, Type (0, 0), None
#     Edge 50, Type (0, 0), None
#     Edge 51, Type (0, 0), None
#     Edge 52, Type (0, 0), None
#     Edge 53, Type (0, 0), None
#     Edge 54, Type (0, 0), None
#     Edge 55, Type (0, 0), None
#     Edge 56, Type (0, 0), None
#     Edge 57, Type (0, 0), None
#     Edge 58, Type (0, 0), None
#     Edge 59, Type (0, 0), None
#     Edge 60, Type (0, 0), None
#     Edge 61, Type (0, 0), None
#     Edge 62, Type (0, 0), None
#     Edge 63, Type (0, 0), None
#     Edge 64, Type (0, 0), None
#     Edge 65, Type (0, 0), None
#     Edge 66, Type (0, 0), None
#     Edge 67, Type (0, 0), None
#     Edge 68, Type (0, 0), None
#     Edge 69, Type (0, 0), None
#     Edge 70, Type (0, 0), None
#     Edge 71, Type (0, 0), None
#     Edge 72, Type (0, 0), None
#     Edge 73, Type (0, 0), None
#     Edge 74, Type (0, 0), None
#     Edge 75, Type (0, 0), None
#     Edge 76, Type (0, 0), None
#     Edge 77, Type (0, 0), None
#     Edge 78, Type (0, 0), None
#     Edge 79, Type (0, 0), None
#     Edge 80, Type (0, 0), None
#     Edge 81, Type (0, 0), None
#     Edge 82, Type (0, 0), None
#     Edge 83, Type (0, 0), None
#     Edge 84, Type (0, 0), None
#     Edge 85, Type (0, 0), None
#     Edge 86, Type (0, 0), None
#     Edge 87, Type (0, 0), None
#     Edge 88, Type (0, 0), None
#     Edge 89, Type (0, 0), None
#     Edge 90, Type (0, 0), None
#     Edge 91, Type (0, 0), None
#     Edge 92, Type (0, 0), None
#     Edge 93, Type (0, 0), None
#     Edge 94, Type (0, 0), None
#     Edge 95, Type (0, 0), None
#     Edge 96, Type (0, 0), None
#     Edge 97, Type (0, 0), None
#     Edge 98, Type (0, 0), None
#     Edge 99, Type (0, 0), None
#     Edge 100, Type (0, 0), None
#     Edge 101, Type (0, 0), None
#     Edge 102, Type (0, 0), None
#     Edge 103, Type (0, 0), None
#     Edge 104, Type (0, 0), None
#     Edge 105, Type (0, 0), None
#     Edge 106, Type (0, 0), None
#     Edge 107, Type (0, 0), None
#     Edge 108, Type (0, 0), None
#     Edge 109, Type (0, 0), None
#     Edge 110, Type (0, 0), None
#     Edge 111, Type (0, 0), None
#     Edge 112, Type (0, 0), None
#     Edge 113, Type (0, 0), None
#     Edge 114, Type (0, 0), None
#     Edge 115, Type (0, 0), None
#     Edge 116, Type (0, 0), None
#     Edge 117, Type (0, 0), None
#     Edge 118, Type (0, 0), None
#     Edge 119, Type (0, 0), None
#     Edge 120, Type (0, 0), None
#     Edge 121, Type (0, 0), None
#     Edge 122, Type (0, 0), None
#     Edge 123, Type (0, 0), None
#     Edge 124, Type (0, 0), None
#     Edge 125, Type (0, 0), None
# Relax obj value: 0.179
# Max RMSD: 0.171
# Mean RMSD: 0.171
data_MOF--net-wlq--node1-BEQFEK_clean_sbu_0--edge1-none
_symmetry_space_group_name_H-M    P1
_symmetry_Int_Tables_number       1
_symmetry_cell_setting            triclinic
loop_
_symmetry_equiv_pos_as_xyz
'x, y, z'
_cell_length_a     35.398779
_cell_length_b     35.398862
_cell_length_c     21.477016
_cell_angle_alpha  90.001561
_cell_angle_beta   89.999743
_cell_angle_gamma 119.99795
loop_
_atom_site_label
_atom_site_type_symbol
_atom_site_fract_x
_atom_site_fract_y
_atom_site_fract_z
_atom_type_partial_charge
Co0 Co 0.20759 0.17642 0.94409 0.0
Co1 Co 0.23991 0.2009 0.08371 0.0
C2 C 0.30094 0.23918 0.97317 0.0
O3 O 0.27027 0.21643 0.93586 0.0
O4 O 0.29427 0.2378 0.03191 0.0
C5 C 0.20451 0.20569 0.82762 0.0
O6 O 0.23023 0.24184 0.85781 0.0
C7 C 0.24965 0.24707 0.20463 0.0
C8 C 0.2549 0.20223 0.2702 0.0
C9 C 0.25086 0.23915 0.26777 0.0
N10 N 0.2519 0.21591 0.1714 0.0
N11 N 0.25628 0.18991 0.21128 0.0
C12 C 0.24643 0.2839 0.17667 0.0
H13 H 0.27751 0.31436 0.18618 0.0
H14 H 0.24091 0.27923 0.12578 0.0
H15 H 0.22018 0.28755 0.19878 0.0
C16 C 0.14343 0.20046 0.98719 0.0
N17 N 0.17988 0.19827 0.99678 0.0
N18 N 0.18934 0.203 0.05663 0.0
C19 C 0.15696 0.20477 0.08749 0.0
C20 C 0.12815 0.2055 0.04436 0.0
C21 C 0.12018 0.19081 0.92586 0.0
H22 H 0.11845 0.16135 0.90507 0.0
H23 H 0.13878 0.21863 0.89376 0.0
H24 H 0.08643 0.18477 0.93033 0.0
O25 O 0.19958 0.12058 0.97853 0.0
O26 O 0.22532 0.13971 0.075 0.0
H27 H 0.16881 0.18448 0.1768 0.0
H28 H 0.11362 0.17023 0.16308 0.0
C29 C 0.14801 0.19612 0.15574 0.0
H30 H 0.15246 0.22585 0.17952 0.0
H31 H 0.25752 0.16212 0.19844 0.0
O32 O 0.18654 0.1696 0.8567 0.0
C33 C 0.20869 0.11134 0.0319 0.0
Co34 Co 0.80699 0.02727 0.94409 0.0
Co35 Co 0.78251 0.03512 0.08371 0.0
C36 C 0.74423 0.05788 0.97318 0.0
O37 O 0.76697 0.04995 0.93587 0.0
O38 O 0.74561 0.05258 0.03192 0.0
C39 C 0.77772 -0.00507 0.82762 0.0
O40 O 0.74157 0.9845 0.85781 0.0
C41 C 0.73633 -0.00131 0.20463 0.0
C42 C 0.78118 0.04878 0.27021 0.0
C43 C 0.74425 0.00781 0.26777 0.0
N44 N 0.7675 0.03211 0.17141 0.0
N45 N 0.7935 0.06248 0.21129 0.0
C46 C 0.6995 0.95866 0.17667 0.0
H47 H 0.66905 0.95928 0.18616 0.0
H48 H 0.70417 0.95779 0.12578 0.0
H49 H 0.69584 0.92875 0.19878 0.0
C50 C 0.78294 0.93907 0.9872 0.0
N51 N 0.78514 0.97772 0.99679 0.0
N52 N 0.7804 0.98245 0.05664 0.0
C53 C 0.77862 0.94829 0.0875 0.0
C54 C 0.77789 0.91875 0.04436 0.0
C55 C 0.79258 0.92547 0.92587 0.0
H56 H 0.82204 0.95319 0.90507 0.0
H57 H 0.76476 0.91625 0.89376 0.0
H58 H 0.79862 0.89776 0.93034 0.0
O59 O 0.86283 0.0751 0.97854 0.0
O60 O 0.8437 0.08172 0.07501 0.0
H61 H 0.79892 0.98043 0.17681 0.0
H62 H 0.81316 0.93949 0.16309 0.0
C63 C 0.78727 0.94799 0.15575 0.0
H64 H 0.75754 0.92272 0.17952 0.0
H65 H 0.82129 0.0915 0.19846 0.0
O66 O 0.8138 0.01304 0.85671 0.0
C67 C 0.87207 0.09345 0.03191 0.0
Co68 Co 0.95612 0.77582 0.94409 0.0
Co69 Co 0.94829 0.7435 0.08371 0.0
C70 C 0.92553 0.68247 0.97318 0.0
O71 O 0.93345 0.71313 0.93587 0.0
O72 O 0.93082 0.68914 0.03192 0.0
C73 C 0.98847 0.7789 0.82761 0.0
O74 O -0.0011 0.75317 0.8578 0.0
C75 C 0.98473 0.73376 0.20463 0.0
C76 C 0.93463 0.7285 0.27021 0.0
C77 C 0.9756 0.73255 0.26777 0.0
N78 N 0.95131 0.73151 0.1714 0.0
N79 N 0.92093 0.72713 0.21129 0.0
C80 C 0.02477 0.73699 0.17667 0.0
H81 H 0.02417 0.70593 0.18618 0.0
H82 H 0.02563 0.74251 0.12578 0.0
H83 H 0.05467 0.76325 0.19877 0.0
C84 C 0.04432 0.83998 0.98719 0.0
N85 N 0.00568 0.80353 0.99679 0.0
N86 N 0.00095 0.79407 0.05664 0.0
C87 C 0.03511 0.82645 0.08749 0.0
C88 C 0.06464 0.85526 0.04436 0.0
C89 C 0.05792 0.86322 0.92586 0.0
H90 H 0.0302 0.86496 0.90507 0.0
H91 H 0.06713 0.84461 0.89375 0.0
H92 H 0.08563 0.89697 0.93033 0.0
O93 O 0.90829 0.78383 0.97854 0.0
O94 O 0.90168 0.75809 0.07501 0.0
H95 H 0.00297 0.81461 0.17681 0.0
H96 H 0.04389 0.86979 0.16307 0.0
C97 C 0.0354 0.83541 0.15574 0.0
H98 H 0.06069 0.83097 0.17952 0.0
H99 H 0.8919 0.72588 0.19846 0.0
O100 O 0.97035 0.79687 0.85671 0.0
C101 C 0.88994 0.77472 0.03192 0.0
Co102 Co 0.17313 0.21106 0.64387 0.0
Co103 Co 0.19724 0.24354 0.50427 0.0
C104 C 0.23626 0.30439 0.61479 0.0
O105 O 0.21352 0.27375 0.65216 0.0
O106 O 0.23451 0.29777 0.55601 0.0
C107 C 0.20258 0.20756 0.76008 0.0
O108 O 0.23873 0.23318 0.7298 0.0
C109 C 0.24328 0.25435 0.38308 0.0
C110 C 0.19697 0.25723 0.3177 0.0
C111 C 0.23471 0.25462 0.31998 0.0
N112 N 0.2116 0.25555 0.41643 0.0
N113 N 0.18472 0.25856 0.37667 0.0
C114 C 0.28111 0.25304 0.4111 0.0
H115 H 0.31022 0.2859 0.40581 0.0
H116 H 0.27518 0.24461 0.46117 0.0
H117 H 0.28806 0.2297 0.38645 0.0
C118 C 0.19709 0.14694 0.60014 0.0
N119 N 0.19465 0.18327 0.59071 0.0
N120 N 0.19966 0.19301 0.53094 0.0
C121 C 0.20212 0.16103 0.49998 0.0
C122 C 0.20277 0.1321 0.543 0.0
C123 C 0.18729 0.12344 0.66127 0.0
H124 H 0.15794 0.12186 0.68223 0.0
H125 H 0.21516 0.14175 0.69341 0.0
H126 H 0.18099 0.08962 0.65641 0.0
O127 O 0.11719 0.20316 0.61015 0.0
O128 O 0.13602 0.22887 0.51365 0.0
H129 H 0.18221 0.17281 0.41046 0.0
H130 H 0.17085 0.11835 0.42226 0.0
C131 C 0.19513 0.15305 0.43133 0.0
H132 H 0.22604 0.15992 0.40863 0.0
H133 H 0.15645 0.25881 0.38966 0.0
O134 O 0.16645 0.18985 0.73113 0.0
C135 C 0.10778 0.21226 0.55691 0.0
Co136 Co 0.77234 0.95818 0.64387 0.0
Co137 Co 0.73987 0.94981 0.50427 0.0
C138 C 0.67902 0.92798 0.61479 0.0
O139 O 0.70966 0.93589 0.65216 0.0
O140 O 0.68564 0.93286 0.55601 0.0
C141 C 0.77584 0.99114 0.76008 0.0
O142 O 0.75022 0.00166 0.72981 0.0
C143 C 0.72904 0.98502 0.38308 0.0
C144 C 0.72619 0.93586 0.31769 0.0
C145 C 0.72878 0.9762 0.31998 0.0
N146 N 0.72784 0.95216 0.41643 0.0
N147 N 0.72486 0.92228 0.37667 0.0
C148 C 0.73033 0.02416 0.4111 0.0
H149 H 0.69746 0.02038 0.40585 0.0
H150 H 0.73879 0.02668 0.46116 0.0
H151 H 0.75364 0.05445 0.38642 0.0
C152 C 0.83646 0.04626 0.60013 0.0
N153 N 0.80013 0.00749 0.59071 0.0
N154 N 0.79039 0.00276 0.53094 0.0
C155 C 0.82237 0.0372 0.49998 0.0
C156 C 0.8513 0.06678 0.54299 0.0
C157 C 0.85997 0.05996 0.66126 0.0
H158 H 0.86155 0.0322 0.68222 0.0
H159 H 0.84166 0.06953 0.6934 0.0
H160 H 0.89379 0.08748 0.6564 0.0
O161 O 0.78025 0.91014 0.61015 0.0
O162 O 0.75453 0.90326 0.51365 0.0
H163 H 0.81059 0.00551 0.41045 0.0
H164 H 0.86504 0.04863 0.42223 0.0
C165 C 0.83034 0.0382 0.43132 0.0
H166 H 0.82345 0.06222 0.40863 0.0
H167 H 0.72461 0.89376 0.38965 0.0
O168 O 0.79356 0.97271 0.73113 0.0
C169 C 0.77115 0.89163 0.55691 0.0
Co170 Co 0.02522 0.81028 0.64387 0.0
Co171 Co 0.0336 0.78617 0.50427 0.0
C172 C 0.05543 0.74715 0.61479 0.0
O173 O 0.04752 0.76989 0.65216 0.0
O174 O 0.05055 0.74889 0.55601 0.0
C175 C -0.00774 0.78082 0.76007 0.0
O176 O 0.98174 0.74468 0.7298 0.0
C177 C -0.00161 0.74012 0.38308 0.0
C178 C 0.04755 0.78645 0.3177 0.0
C179 C 0.00721 0.7487 0.31998 0.0
N180 N 0.03125 0.7718 0.41643 0.0
N181 N 0.06113 0.7987 0.37667 0.0
C182 C 0.95926 0.70228 0.41109 0.0
H183 H 0.96306 0.67319 0.40587 0.0
H184 H 0.95673 0.70822 0.46115 0.0
H185 H 0.92897 0.69528 0.38641 0.0
C186 C 0.93714 0.78631 0.60013 0.0
N187 N 0.97591 0.78875 0.59071 0.0
N188 N 0.98064 0.78374 0.53094 0.0
C189 C 0.9462 0.78127 0.49998 0.0
C190 C 0.91662 0.78062 0.54299 0.0
C191 C 0.92344 0.79612 0.66126 0.0
H192 H 0.9512 0.82547 0.68222 0.0
H193 H 0.91387 0.76825 0.6934 0.0
H194 H 0.89592 0.80242 0.65639 0.0
O195 O 0.07326 0.86622 0.61016 0.0
O196 O 0.08014 0.84738 0.51366 0.0
H197 H 0.97789 0.80118 0.41045 0.0
H198 H 0.93475 0.8125 0.42223 0.0
C199 C 0.9452 0.78824 0.43132 0.0
H200 H 0.92118 0.75732 0.40863 0.0
H201 H 0.08965 0.82697 0.38966 0.0
O202 O 0.01069 0.81696 0.73113 0.0
C203 C 0.09177 0.87563 0.55692 0.0
Co204 Co 0.77287 0.80992 0.14405 0.0
Co205 Co 0.74055 0.78544 1.00443 0.0
C206 C 0.67951 0.74717 0.11497 0.0
O207 O 0.71018 0.76991 0.15228 0.0
O208 O 0.68619 0.74855 0.05622 0.0
C209 C 0.77594 0.78064 0.26053 0.0
O210 O 0.75021 0.7445 0.23034 0.0
C211 C 0.73081 0.73926 0.88351 0.0
C212 C 0.72555 0.7841 0.81794 0.0
C213 C 0.7296 0.74718 0.82037 0.0
N214 N 0.72856 0.77043 0.91674 0.0
N215 N 0.72417 0.79642 0.87685 0.0
C216 C 0.73405 0.70245 0.91147 0.0
H217 H 0.70299 0.67198 0.90192 0.0
H218 H 0.73954 0.7071 0.96236 0.0
H219 H 0.76032 0.69882 0.88938 0.0
C220 C 0.83702 0.78586 0.10095 0.0
N221 N 0.80057 0.78806 0.09136 0.0
N222 N 0.79111 0.78333 0.03151 0.0
C223 C 0.82349 0.78155 1.00065 0.0
C224 C 0.85229 0.78081 0.04379 0.0
C225 C 0.86026 0.7955 0.16228 0.0
H226 H 0.862 0.82496 0.18307 0.0
H227 H 0.84165 0.76768 0.19439 0.0
H228 H 0.89401 0.80153 0.15782 0.0
O229 O 0.78089 0.86576 0.10961 0.0
O230 O 0.75515 0.84664 0.01313 0.0
H231 H 0.81165 0.80186 0.91134 0.0
H232 H 0.86684 0.81614 0.9251 0.0
C233 C 0.83246 0.79023 0.93241 0.0
H234 H 0.82803 0.76052 0.90861 0.0
H235 H 0.72292 0.82421 0.88969 0.0
O236 O 0.79392 0.81673 0.23144 0.0
C237 C 0.77179 0.87501 0.05623 0.0
Co238 Co 0.17348 0.95907 0.14404 0.0
Co239 Co 0.19795 0.95122 1.00442 0.0
C240 C 0.23622 0.92845 0.11496 0.0
O241 O 0.21348 0.93638 0.15227 0.0
O242 O 0.23484 0.93374 0.05622 0.0
C243 C 0.20275 0.99141 0.26052 0.0
O244 O 0.2389 0.00183 0.23033 0.0
C245 C 0.24413 0.98764 0.88351 0.0
C246 C 0.19928 0.93756 0.81792 0.0
C247 C 0.23621 0.97853 0.82036 0.0
N248 N 0.21296 0.95423 0.91673 0.0
N249 N 0.18696 0.92386 0.87684 0.0
C250 C 0.28096 0.02768 0.91147 0.0
H251 H 0.31141 0.02706 0.90197 0.0
H252 H 0.27629 0.02854 0.96236 0.0
H253 H 0.28462 0.05758 0.88936 0.0
C254 C 0.19754 0.04727 0.10093 0.0
N255 N 0.19534 0.00862 0.09135 0.0
N256 N 0.20007 0.00389 0.0315 0.0
C257 C 0.20185 0.03805 1.00064 0.0
C258 C 0.2026 0.0676 0.04377 0.0
C259 C 0.1879 0.06088 0.16226 0.0
H260 H 0.15844 0.03316 0.18306 0.0
H261 H 0.21572 0.07009 0.19438 0.0
H262 H 0.18186 0.08859 0.1578 0.0
O263 O 0.11763 0.91125 0.1096 0.0
O264 O 0.13676 0.90463 0.01312 0.0
H265 H 0.18155 0.00591 0.91133 0.0
H266 H 0.1673 0.04685 0.92506 0.0
C267 C 0.19319 0.03835 0.93239 0.0
H268 H 0.22292 0.06362 0.90861 0.0
H269 H 0.15916 0.89484 0.88967 0.0
O270 O 0.16667 0.97331 0.23143 0.0
C271 C 0.10838 0.8929 0.05622 0.0
Co272 Co 0.02433 0.21052 0.14405 0.0
Co273 Co 0.03218 0.24284 1.00443 0.0
C274 C 0.05494 0.30387 0.11496 0.0
O275 O 0.04701 0.27321 0.15227 0.0
O276 O 0.04965 0.2972 0.05622 0.0
C277 C -0.00801 0.20745 0.26053 0.0
O278 O 0.98157 0.23318 0.23034 0.0
C279 C -0.00426 0.25258 0.88351 0.0
C280 C 0.04584 0.25784 0.81793 0.0
C281 C 0.00486 0.25379 0.82037 0.0
N282 N 0.02916 0.25483 0.91674 0.0
N283 N 0.05953 0.25921 0.87685 0.0
C284 C 0.95569 0.24935 0.91147 0.0
H285 H 0.95629 0.28041 0.90194 0.0
H286 H 0.95484 0.24385 0.96237 0.0
H287 H 0.92579 0.22309 0.88938 0.0
C288 C 0.93613 0.14637 0.10094 0.0
N289 N 0.97478 0.18282 0.09135 0.0
N290 N 0.97951 0.19228 0.0315 0.0
C291 C 0.94535 0.1599 1.00065 0.0
C292 C 0.91581 0.1311 0.04378 0.0
C293 C 0.92253 0.12313 0.16227 0.0
H294 H 0.95025 0.12139 0.18307 0.0
H295 H 0.91332 0.14174 0.19439 0.0
H296 H 0.89482 0.08938 0.15781 0.0
O297 O 0.07216 0.2025 0.1096 0.0
O298 O 0.07877 0.22824 0.01312 0.0
H299 H 0.97749 0.17174 0.91134 0.0
H300 H 0.93658 0.11655 0.92508 0.0
C301 C 0.94506 0.15094 0.9324 0.0
H302 H 0.91978 0.15537 0.90861 0.0
H303 H 0.08856 0.26046 0.88968 0.0
O304 O 0.0101 0.18947 0.23143 0.0
C305 C 0.09051 0.2116 0.05622 0.0
Co306 Co 0.80733 0.77528 0.44427 0.0
Co307 Co 0.78323 0.7428 0.58387 0.0
C308 C 0.74422 0.68195 0.47334 0.0
O309 O 0.76695 0.7126 0.43598 0.0
O310 O 0.74596 0.68857 0.53213 0.0
C311 C 0.77787 0.77877 0.32807 0.0
O312 O 0.74173 0.75315 0.35834 0.0
C313 C 0.73719 0.73198 0.70505 0.0
C314 C 0.7835 0.72913 0.77044 0.0
C315 C 0.74576 0.73172 0.76816 0.0
N316 N 0.76886 0.73078 0.6717 0.0
N317 N 0.79575 0.7278 0.71147 0.0
C318 C 0.69935 0.73327 0.67704 0.0
H319 H 0.67025 0.70041 0.68232 0.0
H320 H 0.70528 0.74171 0.62697 0.0
H321 H 0.69238 0.7566 0.7017 0.0
C322 C 0.78335 0.83939 0.488 0.0
N323 N 0.7858 0.80306 0.49743 0.0
N324 N 0.78079 0.79332 0.5572 0.0
C325 C 0.77832 0.8253 0.58816 0.0
C326 C 0.77765 0.85422 0.54514 0.0
C327 C 0.79316 0.86289 0.42688 0.0
H328 H 0.8225 0.86448 0.40592 0.0
H329 H 0.76528 0.84459 0.39473 0.0
H330 H 0.79945 0.89671 0.43174 0.0
O331 O 0.86328 0.78319 0.47798 0.0
O332 O 0.84445 0.75748 0.57448 0.0
H333 H 0.79824 0.81352 0.67768 0.0
H334 H 0.80958 0.86798 0.66589 0.0
C335 C 0.78531 0.83328 0.65681 0.0
H336 H 0.7544 0.8264 0.67951 0.0
H337 H 0.82403 0.72755 0.69848 0.0
O338 O 0.81401 0.79649 0.357 0.0
C339 C 0.87269 0.7741 0.53122 0.0
Co340 Co 0.20811 0.02816 0.44427 0.0
Co341 Co 0.24059 0.03653 0.58387 0.0
C342 C 0.30145 0.05838 0.47335 0.0
O343 O 0.2708 0.05046 0.43598 0.0
O344 O 0.29482 0.0535 0.53213 0.0
C345 C 0.20462 -0.00479 0.32806 0.0
O346 O 0.23025 0.98469 0.35833 0.0
C347 C 0.25143 0.00132 0.70506 0.0
C348 C 0.25426 0.05048 0.77045 0.0
C349 C 0.25168 0.01014 0.76816 0.0
N350 N 0.25262 0.03419 0.67171 0.0
N351 N 0.25559 0.06406 0.71148 0.0
C352 C 0.25015 0.96219 0.67704 0.0
H353 H 0.28303 0.96599 0.68228 0.0
H354 H 0.24168 0.95967 0.62698 0.0
H355 H 0.22685 0.9319 0.70172 0.0
C356 C 0.14401 0.94007 0.48801 0.0
N357 N 0.18034 0.97884 0.49744 0.0
N358 N 0.19008 0.98358 0.5572 0.0
C359 C 0.15811 0.94913 0.58816 0.0
C360 C 0.12919 0.91955 0.54515 0.0
C361 C 0.1205 0.92637 0.42688 0.0
H362 H 0.11892 0.95413 0.40593 0.0
H363 H 0.13881 0.9168 0.39474 0.0
H364 H 0.08669 0.89885 0.43174 0.0
O365 O 0.2002 0.07618 0.47799 0.0
O366 O 0.22591 0.08307 0.57449 0.0
H367 H 0.16988 0.98083 0.67769 0.0
H368 H 0.11543 0.9377 0.6659 0.0
C369 C 0.15013 0.94814 0.65682 0.0
H370 H 0.15703 0.92412 0.67951 0.0
H371 H 0.25583 0.09258 0.69849 0.0
O372 O 0.1869 0.01362 0.35701 0.0
C373 C 0.20929 0.09469 0.53123 0.0
Co374 Co 0.95524 0.17607 0.44427 0.0
Co375 Co 0.94686 0.20017 0.58387 0.0
C376 C 0.92502 0.23918 0.47334 0.0
O377 O 0.93293 0.21644 0.43598 0.0
O378 O 0.9299 0.23744 0.53213 0.0
C379 C 0.98819 0.20553 0.32806 0.0
O380 O -0.00129 0.24167 0.35834 0.0
C381 C 0.98207 0.24621 0.70506 0.0
C382 C 0.93291 0.19989 0.77044 0.0
C383 C 0.97325 0.23764 0.76816 0.0
N384 N 0.94921 0.21454 0.67171 0.0
N385 N 0.91933 0.18764 0.71147 0.0
C386 C 0.0212 0.28406 0.67705 0.0
H387 H 0.01742 0.31315 0.6823 0.0
H388 H 0.02372 0.27812 0.62698 0.0
H389 H 0.0515 0.29104 0.70172 0.0
C390 C 0.04333 0.20005 0.488 0.0
N391 N 0.00455 0.1976 0.49743 0.0
N392 N -0.00018 0.20261 0.5572 0.0
C393 C 0.03427 0.20509 0.58816 0.0
C394 C 0.06385 0.20575 0.54514 0.0
C395 C 0.05703 0.19025 0.42688 0.0
H396 H 0.02927 0.1609 0.40592 0.0
H397 H 0.0666 0.21812 0.39473 0.0
H398 H 0.08455 0.18395 0.43174 0.0
O399 O 0.90721 0.12012 0.47799 0.0
O400 O 0.90033 0.13895 0.57448 0.0
H401 H 0.00258 0.18517 0.67768 0.0
H402 H 0.0457 0.17383 0.66589 0.0
C403 C 0.03527 0.1981 0.65681 0.0
H404 H 0.05929 0.22902 0.67951 0.0
H405 H 0.89081 0.15937 0.69848 0.0
O406 O 0.96977 0.16939 0.357 0.0
C407 C 0.8887 0.11071 0.53122 0.0
Co408 Co 0.87425 0.50975 0.27742 0.0
Co409 Co 0.90657 0.53424 0.41704 0.0
C410 C 0.96761 0.57252 0.3065 0.0
O411 O 0.93694 0.54977 0.26919 0.0
O412 O 0.96093 0.57114 0.36525 0.0
C413 C 0.87117 0.53902 0.16095 0.0
O414 O 0.89689 0.57517 0.19114 0.0
C415 C 0.91631 0.58041 0.53796 0.0
C416 C 0.92158 0.53558 0.60353 0.0
C417 C 0.91752 0.5725 0.6011 0.0
N418 N 0.91857 0.54925 0.50473 0.0
N419 N 0.92296 0.52326 0.54461 0.0
C420 C 0.91307 0.61723 0.51 0.0
H421 H 0.94412 0.6477 0.51955 0.0
H422 H 0.90757 0.61258 0.45911 0.0
H423 H 0.88679 0.62084 0.53209 0.0
C424 C 0.81009 0.53379 0.32052 0.0
N425 N 0.84655 0.53161 0.33012 0.0
N426 N 0.856 0.53634 0.38997 0.0
C427 C 0.82362 0.5381 0.42082 0.0
C428 C 0.79481 0.53883 0.37769 0.0
C429 C 0.78685 0.52415 0.25919 0.0
H430 H 0.78511 0.49469 0.23839 0.0
H431 H 0.80545 0.55197 0.22708 0.0
H432 H 0.7531 0.51811 0.26366 0.0
O433 O 0.86625 0.45391 0.31186 0.0
O434 O 0.89199 0.47305 0.40834 0.0
H435 H 0.83547 0.51781 0.51013 0.0
H436 H 0.78028 0.50352 0.49638 0.0
C437 C 0.81466 0.52943 0.48907 0.0
H438 H 0.81909 0.55915 0.51285 0.0
H439 H 0.92421 0.49548 0.53177 0.0
O440 O 0.8532 0.50294 0.19004 0.0
C441 C 0.87536 0.44467 0.36524 0.0
Co442 Co 0.47365 0.36061 0.27743 0.0
Co443 Co 0.44917 0.36846 0.41705 0.0
C444 C 0.41089 0.39121 0.30651 0.0
O445 O 0.43363 0.38328 0.2692 0.0
O446 O 0.41227 0.38592 0.36525 0.0
C447 C 0.44438 0.32826 0.16095 0.0
O448 O 0.40823 0.31784 0.19113 0.0
C449 C 0.40299 0.33203 0.53796 0.0
C450 C 0.44785 0.38212 0.60354 0.0
C451 C 0.41091 0.34115 0.60111 0.0
N452 N 0.43416 0.36544 0.50474 0.0
N453 N 0.46017 0.39582 0.54463 0.0
C454 C 0.36617 0.292 0.51 0.0
H455 H 0.33571 0.29262 0.51949 0.0
H456 H 0.37084 0.29113 0.45912 0.0
H457 H 0.3625 0.26209 0.53212 0.0
C458 C 0.44961 0.27241 0.32054 0.0
N459 N 0.4518 0.31106 0.33013 0.0
N460 N 0.44707 0.31578 0.38998 0.0
C461 C 0.44529 0.28163 0.42083 0.0
C462 C 0.44456 0.25209 0.3777 0.0
C463 C 0.45925 0.25881 0.25921 0.0
H464 H 0.48871 0.28653 0.23841 0.0
H465 H 0.43143 0.24959 0.2271 0.0
H466 H 0.46529 0.2311 0.26367 0.0
O467 O 0.52949 0.40844 0.31187 0.0
O468 O 0.51036 0.41506 0.40835 0.0
H469 H 0.46558 0.31377 0.51015 0.0
H470 H 0.47982 0.27283 0.49643 0.0
C471 C 0.45394 0.28133 0.48908 0.0
H472 H 0.42421 0.25606 0.51286 0.0
H473 H 0.48796 0.42484 0.53179 0.0
O474 O 0.48047 0.34638 0.19004 0.0
C475 C 0.53873 0.42679 0.36525 0.0
Co476 Co 0.62279 0.10916 0.27742 0.0
Co477 Co 0.61495 0.07684 0.41705 0.0
C478 C 0.5922 0.0158 0.30651 0.0
O479 O 0.60012 0.04647 0.2692 0.0
O480 O 0.59749 0.02247 0.36525 0.0
C481 C 0.65514 0.11223 0.16095 0.0
O482 O 0.66556 0.08651 0.19113 0.0
C483 C 0.6514 0.0671 0.53796 0.0
C484 C 0.60129 0.06183 0.60354 0.0
C485 C 0.64227 0.06588 0.6011 0.0
N486 N 0.61798 0.06484 0.50474 0.0
N487 N 0.5876 0.06046 0.54462 0.0
C488 C 0.69144 0.07033 0.51 0.0
H489 H 0.69085 0.03927 0.51952 0.0
H490 H 0.6923 0.07584 0.45911 0.0
H491 H 0.72134 0.0966 0.53209 0.0
C492 C 0.71099 0.17331 0.32053 0.0
N493 N 0.67235 0.13686 0.33012 0.0
N494 N 0.66762 0.1274 0.38997 0.0
C495 C 0.70177 0.15979 0.42082 0.0
C496 C 0.73131 0.18859 0.37769 0.0
C497 C 0.72459 0.19656 0.25919 0.0
H498 H 0.69687 0.19829 0.2384 0.0
H499 H 0.7338 0.17795 0.22709 0.0
H500 H 0.7523 0.2303 0.26366 0.0
O501 O 0.57496 0.11716 0.31187 0.0
O502 O 0.56835 0.09142 0.40835 0.0
H503 H 0.66964 0.14794 0.51014 0.0
H504 H 0.71055 0.20313 0.4964 0.0
C505 C 0.70207 0.16874 0.48907 0.0
H506 H 0.72735 0.16431 0.51285 0.0
H507 H 0.55856 0.05921 0.53179 0.0
O508 O 0.63702 0.1302 0.19004 0.0
C509 C 0.55661 0.10805 0.36525 0.0
Co510 Co 0.83979 0.5444 0.97721 0.0
Co511 Co 0.8639 0.57688 0.83761 0.0
C512 C 0.90293 0.63772 0.94813 0.0
O513 O 0.88018 0.60708 0.9855 0.0
O514 O 0.90118 0.6311 0.88934 0.0
C515 C 0.86925 0.54089 0.09341 0.0
O516 O 0.90539 0.56651 0.06313 0.0
C517 C 0.90994 0.5877 0.71642 0.0
C518 C 0.86363 0.59056 0.65103 0.0
C519 C 0.90137 0.58796 0.65331 0.0
N520 N 0.87827 0.5889 0.74977 0.0
N521 N 0.85138 0.59189 0.71001 0.0
C522 C 0.94778 0.58639 0.74443 0.0
H523 H 0.97688 0.61926 0.73915 0.0
H524 H 0.94185 0.57795 0.79449 0.0
H525 H 0.95474 0.56306 0.71977 0.0
C526 C 0.86375 0.48028 0.93347 0.0
N527 N 0.86131 0.51661 0.92404 0.0
N528 N 0.86633 0.52635 0.86428 0.0
C529 C 0.86879 0.49437 0.83331 0.0
C530 C 0.86943 0.46544 0.87633 0.0
C531 C 0.85394 0.45677 0.99459 0.0
H532 H 0.8246 0.45519 0.01555 0.0
H533 H 0.88182 0.47507 0.02674 0.0
H534 H 0.84764 0.42295 0.98973 0.0
O535 O 0.78385 0.5365 0.94349 0.0
O536 O 0.80269 0.56221 0.84699 0.0
H537 H 0.84888 0.50615 0.74379 0.0
H538 H 0.83753 0.45169 0.75558 0.0
C539 C 0.86181 0.48639 0.76466 0.0
H540 H 0.89272 0.49327 0.74196 0.0
H541 H 0.82311 0.59214 0.723 0.0
O542 O 0.83311 0.52319 0.06447 0.0
C543 C 0.77444 0.5456 0.89025 0.0
Co544 Co 0.43901 0.29152 0.9772 0.0
Co545 Co 0.40653 0.28315 0.8376 0.0
C546 C 0.34569 0.26132 0.94813 0.0
O547 O 0.37633 0.26923 0.98549 0.0
O548 O 0.3523 0.26619 0.88934 0.0
C549 C 0.44251 0.32447 0.09341 0.0
O550 O 0.4169 0.335 0.06314 0.0
C551 C 0.39571 0.31836 0.71642 0.0
C552 C 0.39285 0.2692 0.65102 0.0
C553 C 0.39545 0.30954 0.65331 0.0
N554 N 0.39451 0.28549 0.74976 0.0
N555 N 0.39152 0.25562 0.71 0.0
C556 C 0.397 0.3575 0.74443 0.0
H557 H 0.36413 0.35372 0.73918 0.0
H558 H 0.40546 0.36001 0.7945 0.0
H559 H 0.42032 0.38779 0.71976 0.0
C560 C 0.50313 0.3796 0.93347 0.0
N561 N 0.4668 0.34083 0.92404 0.0
N562 N 0.45706 0.3361 0.86427 0.0
C563 C 0.48903 0.37054 0.83331 0.0
C564 C 0.51796 0.40012 0.87633 0.0
C565 C 0.52663 0.3933 0.99459 0.0
H566 H 0.52822 0.36554 0.01555 0.0
H567 H 0.50833 0.40287 0.02674 0.0
H568 H 0.56045 0.42082 0.98973 0.0
O569 O 0.44692 0.24348 0.94348 0.0
O570 O 0.4212 0.2366 0.84699 0.0
H571 H 0.47725 0.33885 0.74379 0.0
H572 H 0.53171 0.38196 0.75557 0.0
C573 C 0.49701 0.37153 0.76466 0.0
H574 H 0.49012 0.39556 0.74196 0.0
H575 H 0.39128 0.22709 0.72298 0.0
O576 O 0.46023 0.30605 0.06447 0.0
C577 C 0.43782 0.22497 0.89024 0.0
Co578 Co 0.69189 0.14361 0.97721 0.0
Co579 Co 0.70026 0.1195 0.83761 0.0
C580 C 0.72209 0.08048 0.94813 0.0
O581 O 0.71418 0.10322 0.9855 0.0
O582 O 0.71722 0.08222 0.88934 0.0
C583 C 0.65893 0.11415 0.09341 0.0
O584 O 0.6484 0.07801 0.06313 0.0
C585 C 0.66506 0.07346 0.71641 0.0
C586 C 0.71422 0.11978 0.65103 0.0
C587 C 0.67388 0.08203 0.65331 0.0
N588 N 0.69792 0.10513 0.74977 0.0
N589 N 0.7278 0.13203 0.71001 0.0
C590 C 0.62592 0.03561 0.74443 0.0
H591 H 0.62972 0.00652 0.73919 0.0
H592 H 0.6234 0.04155 0.79448 0.0
H593 H 0.59563 0.02862 0.71974 0.0
C594 C 0.60381 0.11964 0.93347 0.0
N595 N 0.64258 0.12208 0.92404 0.0
N596 N 0.64731 0.11707 0.86428 0.0
C597 C 0.61286 0.1146 0.83331 0.0
C598 C 0.58328 0.11395 0.87633 0.0
C599 C 0.59011 0.12945 0.99459 0.0
H600 H 0.61787 0.1588 0.01555 0.0
H601 H 0.58054 0.10158 0.02673 0.0
H602 H 0.56259 0.13575 0.98973 0.0
O603 O 0.73992 0.19955 0.94349 0.0
O604 O 0.7468 0.18071 0.84699 0.0
H605 H 0.64455 0.13451 0.74379 0.0
H606 H 0.60142 0.14583 0.75556 0.0
C607 C 0.61186 0.12157 0.76465 0.0
H608 H 0.58784 0.09065 0.74197 0.0
H609 H 0.75631 0.16031 0.723 0.0
O610 O 0.67736 0.15029 0.06447 0.0
C611 C 0.75843 0.20896 0.89025 0.0
Co612 Co 0.43955 0.14326 0.47739 0.0
Co613 Co 0.40722 0.11878 0.33776 0.0
C614 C 0.34619 0.08051 0.4483 0.0
O615 O 0.37686 0.10325 0.48561 0.0
O616 O 0.35286 0.08189 0.38956 0.0
C617 C 0.44262 0.11398 0.59386 0.0
O618 O 0.41689 0.07784 0.56366 0.0
C619 C 0.39748 0.0726 0.21685 0.0
C620 C 0.39223 0.11745 0.15127 0.0
C621 C 0.39627 0.08052 0.1537 0.0
N622 N 0.39523 0.10377 0.25007 0.0
N623 N 0.39085 0.12977 0.21019 0.0
C624 C 0.4007 0.03578 0.2448 0.0
H625 H 0.36964 0.00532 0.23527 0.0
H626 H 0.40621 0.04044 0.2957 0.0
H627 H 0.42696 0.03214 0.22271 0.0
C628 C 0.50369 0.1192 0.43428 0.0
N629 N 0.46724 0.1214 0.42469 0.0
N630 N 0.45778 0.11667 0.36484 0.0
C631 C 0.49016 0.11489 0.33398 0.0
C632 C 0.51896 0.11414 0.37712 0.0
C633 C 0.52694 0.12884 0.49561 0.0
H634 H 0.52868 0.1583 0.51641 0.0
H635 H 0.50833 0.10102 0.52772 0.0
H636 H 0.56069 0.13488 0.49114 0.0
O637 O 0.44756 0.19911 0.44294 0.0
O638 O 0.42182 0.17998 0.34646 0.0
H639 H 0.47832 0.13519 0.24468 0.0
H640 H 0.53351 0.14946 0.25842 0.0
C641 C 0.49912 0.12356 0.26574 0.0
H642 H 0.49468 0.09384 0.24195 0.0
H643 H 0.38961 0.15756 0.22302 0.0
O644 O 0.46059 0.15007 0.56477 0.0
C645 C 0.43846 0.20835 0.38957 0.0
Co646 Co 0.84014 0.29241 0.47738 0.0
Co647 Co 0.86462 0.28455 0.33775 0.0
C648 C 0.90289 0.26179 0.44829 0.0
O649 O 0.88015 0.26972 0.4856 0.0
O650 O 0.90151 0.26708 0.38955 0.0
C651 C 0.86941 0.32475 0.59386 0.0
O652 O 0.90556 0.33516 0.56367 0.0
C653 C 0.9108 0.32098 0.21684 0.0
C654 C 0.86594 0.27089 0.15126 0.0
C655 C 0.90288 0.31187 0.1537 0.0
N656 N 0.87963 0.28757 0.25006 0.0
N657 N 0.85363 0.2572 0.21018 0.0
C658 C 0.94762 0.36102 0.2448 0.0
H659 H 0.97808 0.3604 0.2353 0.0
H660 H 0.94296 0.36188 0.29569 0.0
H661 H 0.95128 0.39092 0.2227 0.0
C662 C 0.86421 0.38061 0.43427 0.0
N663 N 0.862 0.34196 0.42468 0.0
N664 N 0.86673 0.33723 0.36483 0.0
C665 C 0.86852 0.37139 0.33398 0.0
C666 C 0.86926 0.40093 0.37711 0.0
C667 C 0.85457 0.39422 0.4956 0.0
H668 H 0.82511 0.3665 0.5164 0.0
H669 H 0.88239 0.40343 0.52771 0.0
H670 H 0.84853 0.42193 0.49114 0.0
O671 O 0.78429 0.24458 0.44293 0.0
O672 O 0.80342 0.23796 0.34645 0.0
H673 H 0.84821 0.33925 0.24467 0.0
H674 H 0.83396 0.38018 0.2584 0.0
C675 C 0.85985 0.37168 0.26573 0.0
H676 H 0.88958 0.39696 0.24195 0.0
H677 H 0.82583 0.22817 0.22301 0.0
O678 O 0.83333 0.30664 0.56476 0.0
C679 C 0.77505 0.22623 0.38955 0.0
Co680 Co 0.691 0.54385 0.47738 0.0
Co681 Co 0.69884 0.57617 0.33776 0.0
C682 C 0.7216 0.63721 0.4483 0.0
O683 O 0.71368 0.60654 0.48561 0.0
O684 O 0.71632 0.63054 0.38955 0.0
C685 C 0.65865 0.54079 0.59386 0.0
O686 O 0.64823 0.56651 0.56367 0.0
C687 C 0.66241 0.58592 0.21684 0.0
C688 C 0.7125 0.59116 0.15126 0.0
C689 C 0.67153 0.58713 0.1537 0.0
N690 N 0.69583 0.58817 0.25006 0.0
N691 N 0.7262 0.59254 0.21018 0.0
C692 C 0.62237 0.58271 0.2448 0.0
H693 H 0.62299 0.61379 0.2353 0.0
H694 H 0.62151 0.57719 0.29569 0.0
H695 H 0.59247 0.55646 0.22269 0.0
C696 C 0.60279 0.47971 0.43427 0.0
N697 N 0.64144 0.51616 0.42468 0.0
N698 N 0.64617 0.52562 0.36483 0.0
C699 C 0.61201 0.49324 0.33398 0.0
C700 C 0.58247 0.46444 0.37711 0.0
C701 C 0.58919 0.45646 0.4956 0.0
H702 H 0.61691 0.45472 0.51639 0.0
H703 H 0.57998 0.47507 0.52772 0.0
H704 H 0.56148 0.42272 0.49113 0.0
O705 O 0.73882 0.53583 0.44293 0.0
O706 O 0.74543 0.56157 0.34646 0.0
H707 H 0.64415 0.50508 0.24467 0.0
H708 H 0.60322 0.4499 0.2584 0.0
C709 C 0.61171 0.48428 0.26573 0.0
H710 H 0.58644 0.48873 0.24195 0.0
H711 H 0.75523 0.59378 0.22301 0.0
O712 O 0.67676 0.52281 0.56477 0.0
C713 C 0.75717 0.54493 0.38955 0.0
Co714 Co 0.474 0.10861 0.7776 0.0
Co715 Co 0.4499 0.07614 0.9172 0.0
C716 C 0.41088 0.01529 0.80668 0.0
O717 O 0.43362 0.04593 0.76931 0.0
O718 O 0.41263 0.02191 0.86546 0.0
C719 C 0.44454 0.11211 0.6614 0.0
O720 O 0.4084 0.08648 0.69167 0.0
C721 C 0.40385 0.06532 0.03839 0.0
C722 C 0.45017 0.06246 0.10378 0.0
C723 C 0.41242 0.06506 0.1015 0.0
N724 N 0.43553 0.06412 1.00504 0.0
N725 N 0.46242 0.06113 0.0448 0.0
C726 C 0.36602 0.06662 0.01038 0.0
H727 H 0.33692 0.03375 0.01566 0.0
H728 H 0.37195 0.07505 0.96031 0.0
H729 H 0.35906 0.08995 0.03503 0.0
C730 C 0.45002 0.17272 0.82134 0.0
N731 N 0.45247 0.1364 0.83076 0.0
N732 N 0.44746 0.12666 0.89053 0.0
C733 C 0.44499 0.15863 0.92149 0.0
C734 C 0.44432 0.18755 0.87847 0.0
C735 C 0.45982 0.19622 0.76021 0.0
H736 H 0.48917 0.19781 0.73925 0.0
H737 H 0.43195 0.17792 0.72806 0.0
H738 H 0.46612 0.23004 0.76507 0.0
O739 O 0.52994 0.11652 0.81132 0.0
O740 O 0.51111 0.09082 0.90782 0.0
H741 H 0.46491 0.14686 0.01101 0.0
H742 H 0.47626 0.20132 0.99921 0.0
C743 C 0.45198 0.16662 0.99014 0.0
H744 H 0.42107 0.15975 0.01285 0.0
H745 H 0.49069 0.06088 0.03182 0.0
O746 O 0.48068 0.12983 0.69034 0.0
C747 C 0.53936 0.10743 0.86456 0.0
Co748 Co 0.87477 0.36149 0.7776 0.0
Co749 Co 0.90725 0.36987 0.9172 0.0
C750 C 0.9681 0.39171 0.80668 0.0
O751 O 0.93746 0.3838 0.76931 0.0
O752 O 0.96148 0.38683 0.86547 0.0
C753 C 0.87128 0.32854 0.6614 0.0
O754 O 0.89691 0.31802 0.69167 0.0
C755 C 0.91809 0.33466 0.03839 0.0
C756 C 0.92093 0.38382 0.10378 0.0
C757 C 0.91834 0.34348 0.1015 0.0
N758 N 0.91928 0.36752 1.00504 0.0
N759 N 0.92226 0.3974 0.04481 0.0
C760 C 0.9168 0.29553 0.01037 0.0
H761 H 0.94968 0.29931 0.01562 0.0
H762 H 0.90835 0.29301 0.96031 0.0
H763 H 0.8935 0.26523 0.03505 0.0
C764 C 0.81067 0.2734 0.82134 0.0
N765 N 0.847 0.31218 0.83077 0.0
N766 N 0.85674 0.31691 0.89053 0.0
C767 C 0.82477 0.28247 0.9215 0.0
C768 C 0.79585 0.25288 0.87848 0.0
C769 C 0.78717 0.2597 0.76022 0.0
H770 H 0.78558 0.28746 0.73926 0.0
H771 H 0.80547 0.25013 0.72807 0.0
H772 H 0.75335 0.23218 0.76508 0.0
O773 O 0.86686 0.40952 0.81132 0.0
O774 O 0.89257 0.4164 0.90782 0.0
H775 H 0.83654 0.31416 0.01102 0.0
H776 H 0.78209 0.27103 0.99923 0.0
C777 C 0.81679 0.28147 0.99015 0.0
H778 H 0.82368 0.25745 0.01285 0.0
H779 H 0.92249 0.42592 0.03182 0.0
O780 O 0.85356 0.34696 0.69034 0.0
C781 C 0.87595 0.42803 0.86456 0.0
Co782 Co 0.62191 0.5094 0.7776 0.0
Co783 Co 0.61353 0.53351 0.9172 0.0
C784 C 0.59168 0.57251 0.80668 0.0
O785 O 0.59959 0.54978 0.76931 0.0
O786 O 0.59656 0.57077 0.86546 0.0
C787 C 0.65486 0.53886 0.6614 0.0
O788 O 0.66537 0.575 0.69167 0.0
C789 C 0.64873 0.57955 0.03839 0.0
C790 C 0.59958 0.53323 0.10378 0.0
C791 C 0.63992 0.57098 0.1015 0.0
N792 N 0.61587 0.54787 1.00504 0.0
N793 N 0.586 0.52098 0.04481 0.0
C794 C 0.68786 0.6174 0.01038 0.0
H795 H 0.68407 0.64648 0.01561 0.0
H796 H 0.69039 0.61146 0.96032 0.0
H797 H 0.71815 0.62439 0.03506 0.0
C798 C 0.71 0.53339 0.82134 0.0
N799 N 0.67122 0.53094 0.83077 0.0
N800 N 0.66648 0.53595 0.89053 0.0
C801 C 0.70093 0.53843 0.92149 0.0
C802 C 0.73052 0.53909 0.87848 0.0
C803 C 0.7237 0.52359 0.76021 0.0
H804 H 0.69594 0.49424 0.73925 0.0
H805 H 0.73326 0.55146 0.72807 0.0
H806 H 0.75122 0.51729 0.76508 0.0
O807 O 0.57388 0.45346 0.81132 0.0
O808 O 0.56699 0.47229 0.90782 0.0
H809 H 0.66924 0.51851 0.01102 0.0
H810 H 0.71237 0.50718 0.99923 0.0
C811 C 0.70193 0.53145 0.99015 0.0
H812 H 0.72595 0.56236 0.01285 0.0
H813 H 0.55748 0.4927 0.03182 0.0
O814 O 0.63644 0.50272 0.69034 0.0
C815 C 0.55537 0.44404 0.86456 0.0
Co816 Co 0.54092 0.84309 0.61075 0.0
Co817 Co 0.57324 0.86757 0.75037 0.0
C818 C 0.63427 0.90585 0.63984 0.0
O819 O 0.60361 0.8831 0.60253 0.0
O820 O 0.6276 0.90447 0.69858 0.0
C821 C 0.53784 0.87236 0.49428 0.0
O822 O 0.56356 0.90851 0.52447 0.0
C823 C 0.58298 0.91375 0.87129 0.0
C824 C 0.58825 0.86891 0.93686 0.0
C825 C 0.58419 0.90583 0.93443 0.0
N826 N 0.58523 0.88258 0.83806 0.0
N827 N 0.58963 0.85659 0.87794 0.0
C828 C 0.57974 0.95056 0.84334 0.0
H829 H 0.6108 0.98103 0.85288 0.0
H830 H 0.57424 0.94591 0.79244 0.0
H831 H 0.55347 0.95418 0.86543 0.0
C832 C 0.47676 0.86713 0.65386 0.0
N833 N 0.51322 0.86494 0.66345 0.0
N834 N 0.52267 0.86967 0.7233 0.0
C835 C 0.49029 0.87144 0.75415 0.0
C836 C 0.46148 0.87217 0.71102 0.0
C837 C 0.45352 0.85749 0.59252 0.0
H838 H 0.45178 0.82803 0.57173 0.0
H839 H 0.47212 0.88531 0.56042 0.0
H840 H 0.41977 0.85145 0.59699 0.0
O841 O 0.53291 0.78725 0.6452 0.0
O842 O 0.55865 0.80638 0.74167 0.0
H843 H 0.50214 0.85115 0.84346 0.0
H844 H 0.44695 0.83686 0.82972 0.0
C845 C 0.48133 0.86277 0.8224 0.0
H846 H 0.48576 0.89249 0.84619 0.0
H847 H 0.59088 0.82881 0.8651 0.0
O848 O 0.51987 0.83627 0.52337 0.0
C849 C 0.54202 0.77801 0.69857 0.0
Co850 Co 0.14032 0.69394 0.61076 0.0
Co851 Co 0.11584 0.70179 0.75038 0.0
C852 C 0.07756 0.72453 0.63984 0.0
O853 O 0.10031 0.71661 0.60253 0.0
O854 O 0.07894 0.71925 0.69859 0.0
C855 C 0.11105 0.66159 0.49428 0.0
O856 O 0.0749 0.65117 0.52447 0.0
C857 C 0.06966 0.66536 0.87129 0.0
C858 C 0.11451 0.71545 0.93687 0.0
C859 C 0.07758 0.67448 0.93444 0.0
N860 N 0.10083 0.69877 0.83807 0.0
N861 N 0.12683 0.72915 0.87796 0.0
C862 C 0.03284 0.62532 0.84333 0.0
H863 H 0.00238 0.62594 0.85283 0.0
H864 H 0.0375 0.62446 0.79244 0.0
H865 H 0.02918 0.59542 0.86544 0.0
C866 C 0.11628 0.60574 0.65387 0.0
N867 N 0.11847 0.64439 0.66346 0.0
N868 N 0.11373 0.64911 0.72331 0.0
C869 C 0.11196 0.61496 0.75416 0.0
C870 C 0.11123 0.58542 0.71103 0.0
C871 C 0.12592 0.59213 0.59254 0.0
H872 H 0.15538 0.61986 0.57174 0.0
H873 H 0.0981 0.58292 0.56043 0.0
H874 H 0.13196 0.56443 0.597 0.0
O875 O 0.19616 0.74177 0.6452 0.0
O876 O 0.17703 0.74839 0.74168 0.0
H877 H 0.13225 0.6471 0.84348 0.0
H878 H 0.1465 0.60616 0.82975 0.0
C879 C 0.12061 0.61466 0.82241 0.0
H880 H 0.09088 0.58939 0.84619 0.0
H881 H 0.15462 0.75817 0.86512 0.0
O882 O 0.14714 0.67971 0.52338 0.0
C883 C 0.2054 0.76012 0.69858 0.0
Co884 Co 0.28945 0.44249 0.61076 0.0
Co885 Co 0.28161 0.41017 0.75038 0.0
C886 C 0.25887 0.34914 0.63984 0.0
O887 O 0.26679 0.3798 0.60253 0.0
O888 O 0.26415 0.3558 0.69858 0.0
C889 C 0.3218 0.44557 0.49428 0.0
O890 O 0.33223 0.41985 0.52447 0.0
C891 C 0.31805 0.40042 0.87129 0.0
C892 C 0.26795 0.39516 0.93687 0.0
C893 C 0.30892 0.39921 0.93444 0.0
N894 N 0.28463 0.39817 0.83807 0.0
N895 N 0.25425 0.39379 0.87795 0.0
C896 C 0.35809 0.40365 0.84334 0.0
H897 H 0.3575 0.37259 0.85285 0.0
H898 H 0.35895 0.40917 0.79245 0.0
H899 H 0.38799 0.42991 0.86544 0.0
C900 C 0.37765 0.50665 0.65386 0.0
N901 N 0.339 0.47019 0.66345 0.0
N902 N 0.33428 0.46073 0.7233 0.0
C903 C 0.36843 0.49312 0.75416 0.0
C904 C 0.39797 0.52192 0.71102 0.0
C905 C 0.39125 0.52989 0.59253 0.0
H906 H 0.36352 0.53163 0.57174 0.0
H907 H 0.40046 0.51128 0.56042 0.0
H908 H 0.41896 0.56364 0.597 0.0
O909 O 0.24162 0.45049 0.6452 0.0
O910 O 0.23501 0.42475 0.74168 0.0
H911 H 0.3363 0.48127 0.84347 0.0
H912 H 0.37721 0.53645 0.82974 0.0
C913 C 0.36873 0.50207 0.82241 0.0
H914 H 0.39401 0.49763 0.84618 0.0
H915 H 0.22522 0.39254 0.86511 0.0
O916 O 0.30368 0.46354 0.52337 0.0
C917 C 0.22327 0.44138 0.69858 0.0
Co918 Co 0.50646 0.87773 0.31054 0.0
Co919 Co 0.53057 0.91021 0.17094 0.0
C920 C 0.56959 0.97105 0.28146 0.0
O921 O 0.54685 0.94041 0.31883 0.0
O922 O 0.56785 0.96444 0.22268 0.0
C923 C 0.53592 0.87423 0.42674 0.0
O924 O 0.57206 0.89984 0.39647 0.0
C925 C 0.57661 0.92103 0.04975 0.0
C926 C 0.5303 0.9239 0.98437 0.0
C927 C 0.56804 0.92129 0.98665 0.0
N928 N 0.54494 0.92223 0.0831 0.0
N929 N 0.51805 0.92523 0.04334 0.0
C930 C 0.61444 0.91972 0.07776 0.0
H931 H 0.64355 0.95258 0.07248 0.0
H932 H 0.60852 0.91128 0.12783 0.0
H933 H 0.6214 0.89638 0.0531 0.0
C934 C 0.53042 0.81361 0.2668 0.0
N935 N 0.52799 0.84994 0.25738 0.0
N936 N 0.533 0.85968 0.19761 0.0
C937 C 0.53546 0.8277 0.16665 0.0
C938 C 0.53611 0.79877 0.20967 0.0
C939 C 0.52062 0.79011 0.32793 0.0
H940 H 0.49127 0.78852 0.34889 0.0
H941 H 0.54849 0.80841 0.36007 0.0
H942 H 0.51432 0.75629 0.32307 0.0
O943 O 0.45053 0.86983 0.27682 0.0
O944 O 0.46936 0.89554 0.18032 0.0
H945 H 0.51555 0.83948 0.07712 0.0
H946 H 0.50419 0.78502 0.08892 0.0
C947 C 0.52847 0.81972 0.09799 0.0
H948 H 0.55938 0.82659 0.0753 0.0
H949 H 0.48978 0.92548 0.05633 0.0
O950 O 0.49978 0.85652 0.3978 0.0
C951 C 0.44111 0.87893 0.22358 0.0
Co952 Co 0.10568 0.62485 0.31053 0.0
Co953 Co 0.0732 0.61648 0.17094 0.0
C954 C 0.01235 0.59466 0.28146 0.0
O955 O 0.04299 0.60256 0.31883 0.0
O956 O 0.01897 0.59953 0.22267 0.0
C957 C 0.10918 0.6578 0.42674 0.0
O958 O 0.08356 0.66833 0.39648 0.0
C959 C 0.06237 0.6517 0.04975 0.0
C960 C 0.05951 0.60252 0.98436 0.0
C961 C 0.06211 0.64287 0.98664 0.0
N962 N 0.06117 0.61883 0.0831 0.0
N963 N 0.05818 0.58895 0.04333 0.0
C964 C 0.06367 0.69083 0.07776 0.0
H965 H 0.0308 0.68706 0.07251 0.0
H966 H 0.07212 0.69335 0.12782 0.0
H967 H 0.08698 0.72112 0.05309 0.0
C968 C 0.1698 0.71293 0.2668 0.0
N969 N 0.13346 0.67416 0.25737 0.0
N970 N 0.12372 0.66943 0.19761 0.0
C971 C 0.1557 0.70387 0.16664 0.0
C972 C 0.18463 0.73345 0.20966 0.0
C973 C 0.1933 0.72663 0.32793 0.0
H974 H 0.19489 0.69887 0.34888 0.0
H975 H 0.175 0.7362 0.36007 0.0
H976 H 0.22712 0.75415 0.32307 0.0
O977 O 0.11357 0.57681 0.27681 0.0
O978 O 0.08786 0.56993 0.18032 0.0
H979 H 0.14392 0.67218 0.07712 0.0
H980 H 0.19838 0.71529 0.0889 0.0
C981 C 0.16367 0.70486 0.09799 0.0
H982 H 0.15679 0.72889 0.07529 0.0
H983 H 0.05794 0.56042 0.05632 0.0
O984 O 0.12689 0.63938 0.3978 0.0
C985 C 0.10448 0.5583 0.22358 0.0
Co986 Co 0.35855 0.47694 0.31054 0.0
Co987 Co 0.36692 0.45283 0.17094 0.0
C988 C 0.38875 0.41381 0.28146 0.0
O989 O 0.38084 0.43656 0.31883 0.0
O990 O 0.38387 0.41556 0.22268 0.0
C991 C 0.32559 0.44749 0.42674 0.0
O992 O 0.31506 0.41135 0.39646 0.0
C993 C 0.3317 0.40679 0.04975 0.0
C994 C 0.38088 0.4531 0.98437 0.0
C995 C 0.34053 0.41536 0.98665 0.0
N996 N 0.36457 0.43846 0.0831 0.0
N997 N 0.39445 0.46535 0.04334 0.0
C998 C 0.29256 0.36895 0.07776 0.0
H999 H 0.29633 0.33985 0.07249 0.0
H1000 H 0.29005 0.37489 0.12783 0.0
H1001 H 0.26228 0.36199 0.0531 0.0
C1002 C 0.27047 0.45298 0.2668 0.0
N1003 N 0.30924 0.45542 0.25738 0.0
N1004 N 0.31397 0.4504 0.19761 0.0
C1005 C 0.27953 0.44794 0.16665 0.0
C1006 C 0.24995 0.44729 0.20967 0.0
C1007 C 0.25677 0.46278 0.32793 0.0
H1008 H 0.28453 0.49213 0.34889 0.0
H1009 H 0.2472 0.43491 0.36007 0.0
H1010 H 0.22924 0.46908 0.32307 0.0
O1011 O 0.40659 0.53288 0.27682 0.0
O1012 O 0.41346 0.51404 0.18032 0.0
H1013 H 0.31122 0.46785 0.07712 0.0
H1014 H 0.2681 0.4792 0.08892 0.0
C1015 C 0.27853 0.45492 0.09799 0.0
H1016 H 0.2545 0.42401 0.0753 0.0
H1017 H 0.42298 0.49362 0.05633 0.0
O1018 O 0.34402 0.48363 0.3978 0.0
C1019 C 0.4251 0.54229 0.22358 0.0
Co1020 Co 0.10621 0.47659 0.81072 0.0
Co1021 Co 0.07388 0.45211 0.6711 0.0
C1022 C 0.01285 0.41384 0.78163 0.0
O1023 O 0.04352 0.43658 0.81894 0.0
O1024 O 0.01952 0.41522 0.72289 0.0
C1025 C 0.10927 0.44731 0.92719 0.0
O1026 O 0.08355 0.41116 0.897 0.0
C1027 C 0.06414 0.40593 0.55018 0.0
C1028 C 0.05889 0.45078 0.4846 0.0
C1029 C 0.06293 0.41385 0.48704 0.0
N1030 N 0.06188 0.4371 0.5834 0.0
N1031 N 0.05751 0.4631 0.54352 0.0
C1032 C 0.06736 0.36911 0.57813 0.0
H1033 H 0.03629 0.33865 0.56861 0.0
H1034 H 0.07287 0.37377 0.62903 0.0
H1035 H 0.09362 0.36547 0.55604 0.0
C1036 C 0.17035 0.45252 0.76761 0.0
N1037 N 0.1339 0.45472 0.75802 0.0
N1038 N 0.12444 0.44999 0.69817 0.0
C1039 C 0.15682 0.44821 0.66731 0.0
C1040 C 0.18562 0.44747 0.71045 0.0
C1041 C 0.19359 0.46217 0.82894 0.0
H1042 H 0.19534 0.49163 0.84974 0.0
H1043 H 0.17499 0.43435 0.86105 0.0
H1044 H 0.22734 0.4682 0.82447 0.0
O1045 O 0.11423 0.53243 0.77628 0.0
O1046 O 0.08848 0.5133 0.6798 0.0
H1047 H 0.14498 0.46852 0.57801 0.0
H1048 H 0.20016 0.48279 0.59175 0.0
C1049 C 0.16578 0.45689 0.59907 0.0
H1050 H 0.16134 0.42717 0.57528 0.0
H1051 H 0.05626 0.49088 0.55636 0.0
O1052 O 0.12725 0.4834 0.8981 0.0
C1053 C 0.10512 0.54168 0.7229 0.0
Co1054 Co 0.5068 0.62574 0.81071 0.0
Co1055 Co 0.53128 0.61788 0.67109 0.0
C1056 C 0.56955 0.59513 0.78163 0.0
O1057 O 0.5468 0.60305 0.81894 0.0
O1058 O 0.56817 0.60041 0.72289 0.0
C1059 C 0.53607 0.65808 0.92719 0.0
O1060 O 0.57222 0.6685 0.897 0.0
C1061 C 0.57746 0.65431 0.55018 0.0
C1062 C 0.5326 0.60422 0.4846 0.0
C1063 C 0.56954 0.64519 0.48703 0.0
N1064 N 0.54628 0.6209 0.5834 0.0
N1065 N 0.52028 0.59053 0.54351 0.0
C1066 C 0.61428 0.69435 0.57814 0.0
H1067 H 0.64474 0.69373 0.56863 0.0
H1068 H 0.60962 0.69521 0.62903 0.0
H1069 H 0.61794 0.72425 0.55604 0.0
C1070 C 0.53087 0.71394 0.76761 0.0
N1071 N 0.52866 0.67529 0.75802 0.0
N1072 N 0.53339 0.67056 0.69817 0.0
C1073 C 0.53518 0.70472 0.66731 0.0
C1074 C 0.53593 0.73427 0.71044 0.0
C1075 C 0.52123 0.72755 0.82893 0.0
H1076 H 0.49177 0.69983 0.84973 0.0
H1077 H 0.54905 0.73676 0.86104 0.0
H1078 H 0.51519 0.75526 0.82447 0.0
O1079 O 0.45095 0.57791 0.77627 0.0
O1080 O 0.47008 0.57129 0.67979 0.0
H1081 H 0.51487 0.67258 0.578 0.0
H1082 H 0.50063 0.71351 0.59173 0.0
C1083 C 0.52652 0.70501 0.59906 0.0
H1084 H 0.55624 0.73029 0.57528 0.0
H1085 H 0.49249 0.5615 0.55635 0.0
O1086 O 0.49999 0.63997 0.8981 0.0
C1087 C 0.44171 0.55956 0.72289 0.0
Co1088 Co 0.35766 0.87718 0.81072 0.0
Co1089 Co 0.36551 0.90951 0.67109 0.0
C1090 C 0.38827 0.97054 0.78163 0.0
O1091 O 0.38035 0.93987 0.81894 0.0
O1092 O 0.38298 0.96387 0.72289 0.0
C1093 C 0.32533 0.87412 0.9272 0.0
O1094 O 0.31491 0.89985 0.89701 0.0
C1095 C 0.32907 0.91925 0.55018 0.0
C1096 C 0.37917 0.92451 0.4846 0.0
C1097 C 0.33819 0.92046 0.48703 0.0
N1098 N 0.36249 0.9215 0.5834 0.0
N1099 N 0.39287 0.92589 0.54352 0.0
C1100 C 0.28902 0.91601 0.57814 0.0
H1101 H 0.2896 0.94707 0.5686 0.0
H1102 H 0.28817 0.91051 0.62903 0.0
H1103 H 0.25912 0.88974 0.55605 0.0
C1104 C 0.26946 0.81304 0.76761 0.0
N1105 N 0.30811 0.84949 0.75802 0.0
N1106 N 0.31284 0.85895 0.69817 0.0
C1107 C 0.27868 0.82657 0.66732 0.0
C1108 C 0.24914 0.79777 0.71045 0.0
C1109 C 0.25586 0.7898 0.82894 0.0
H1110 H 0.28358 0.78805 0.84973 0.0
H1111 H 0.24665 0.80841 0.86105 0.0
H1112 H 0.22815 0.75605 0.82448 0.0
O1113 O 0.40549 0.86916 0.77627 0.0
O1114 O 0.4121 0.89491 0.67979 0.0
H1115 H 0.31082 0.8384 0.578 0.0
H1116 H 0.26992 0.78322 0.59176 0.0
C1117 C 0.27839 0.8176 0.59907 0.0
H1118 H 0.25311 0.82203 0.57528 0.0
H1119 H 0.4219 0.92714 0.55635 0.0
O1120 O 0.34344 0.85614 0.8981 0.0
C1121 C 0.42384 0.87827 0.72289 0.0
Co1122 Co 0.14066 0.44195 0.11093 0.0
Co1123 Co 0.11656 0.40947 0.25053 0.0
C1124 C 0.07754 0.34862 0.14001 0.0
O1125 O 0.10028 0.37926 0.10264 0.0
O1126 O 0.07929 0.35524 0.1988 0.0
C1127 C 0.1112 0.44544 0.99473 0.0
O1128 O 0.07506 0.41982 0.025 0.0
C1129 C 0.07051 0.39864 0.37172 0.0
C1130 C 0.11683 0.39579 0.43711 0.0
C1131 C 0.07908 0.39839 0.43483 0.0
N1132 N 0.10219 0.39745 0.33837 0.0
N1133 N 0.12908 0.39446 0.37814 0.0
C1134 C 0.03267 0.39994 0.34371 0.0
H1135 H 0.00358 0.36708 0.34898 0.0
H1136 H 0.0386 0.40838 0.29364 0.0
H1137 H 0.02571 0.42327 0.36837 0.0
C1138 C 0.11667 0.50605 0.15467 0.0
N1139 N 0.11912 0.46973 0.1641 0.0
N1140 N 0.11411 0.45999 0.22386 0.0
C1141 C 0.11164 0.49196 0.25482 0.0
C1142 C 0.11098 0.52088 0.2118 0.0
C1143 C 0.12648 0.52956 0.09354 0.0
H1144 H 0.15583 0.53114 0.07259 0.0
H1145 H 0.09861 0.51125 0.0614 0.0
H1146 H 0.13278 0.56338 0.0984 0.0
O1147 O 0.1966 0.44986 0.14465 0.0
O1148 O 0.17777 0.42415 0.24115 0.0
H1149 H 0.13157 0.48019 0.34435 0.0
H1150 H 0.14291 0.53465 0.33255 0.0
C1151 C 0.11863 0.49995 0.32348 0.0
H1152 H 0.08772 0.49307 0.34618 0.0
H1153 H 0.15735 0.39421 0.36515 0.0
O1154 O 0.14734 0.46316 0.02367 0.0
C1155 C 0.20602 0.44077 0.1979 0.0
Co1156 Co 0.54144 0.69482 0.11094 0.0
Co1157 Co 0.57392 0.7032 0.25054 0.0
C1158 C 0.63477 0.72503 0.14001 0.0
O1159 O 0.60412 0.71712 0.10264 0.0
O1160 O 0.62815 0.72016 0.1988 0.0
C1161 C 0.53795 0.66187 0.99473 0.0
O1162 O 0.56357 0.65135 0.025 0.0
C1163 C 0.58475 0.66798 0.37172 0.0
C1164 C 0.5876 0.71715 0.43712 0.0
C1165 C 0.585 0.6768 0.43483 0.0
N1166 N 0.58594 0.70085 0.33838 0.0
N1167 N 0.58893 0.73073 0.37814 0.0
C1168 C 0.58345 0.62884 0.34371 0.0
H1169 H 0.61631 0.63261 0.34898 0.0
H1170 H 0.57501 0.62633 0.29364 0.0
H1171 H 0.56012 0.59855 0.36837 0.0
C1172 C 0.47734 0.60673 0.15467 0.0
N1173 N 0.51366 0.64551 0.1641 0.0
N1174 N 0.5234 0.65024 0.22386 0.0
C1175 C 0.49143 0.6158 0.25483 0.0
C1176 C 0.46251 0.58621 0.21181 0.0
C1177 C 0.45383 0.59303 0.09354 0.0
H1178 H 0.45224 0.62079 0.07259 0.0
H1179 H 0.47214 0.58347 0.0614 0.0
H1180 H 0.42002 0.56551 0.0984 0.0
O1181 O 0.53353 0.74285 0.14466 0.0
O1182 O 0.55924 0.74974 0.24116 0.0
H1183 H 0.5032 0.6475 0.34435 0.0
H1184 H 0.44874 0.60439 0.33255 0.0
C1185 C 0.48344 0.61481 0.32348 0.0
H1186 H 0.49032 0.59078 0.34618 0.0
H1187 H 0.58918 0.75925 0.36516 0.0
O1188 O 0.52023 0.68029 0.02367 0.0
C1189 C 0.54262 0.76136 0.1979 0.0
Co1190 Co 0.28858 0.84273 0.11093 0.0
Co1191 Co 0.2802 0.86684 0.25053 0.0
C1192 C 0.25836 0.90585 0.14001 0.0
O1193 O 0.26627 0.88311 0.10264 0.0
O1194 O 0.26323 0.9041 0.19879 0.0
C1195 C 0.32153 0.87219 0.99473 0.0
O1196 O 0.33205 0.90833 0.02501 0.0
C1197 C 0.3154 0.91288 0.37172 0.0
C1198 C 0.26624 0.86656 0.43711 0.0
C1199 C 0.30658 0.90431 0.43483 0.0
N1200 N 0.28254 0.8812 0.33837 0.0
N1201 N 0.25266 0.85431 0.37813 0.0
C1202 C 0.35453 0.95073 0.34371 0.0
H1203 H 0.35075 0.97982 0.34896 0.0
H1204 H 0.35705 0.94479 0.29365 0.0
H1205 H 0.38483 0.95771 0.36838 0.0
C1206 C 0.37666 0.86672 0.15467 0.0
N1207 N 0.33789 0.86427 0.1641 0.0
N1208 N 0.33315 0.86928 0.22386 0.0
C1209 C 0.3676 0.87176 0.25483 0.0
C1210 C 0.39719 0.87242 0.21181 0.0
C1211 C 0.39037 0.85691 0.09355 0.0
H1212 H 0.36261 0.82756 0.07259 0.0
H1213 H 0.39994 0.88478 0.0614 0.0
H1214 H 0.41789 0.85061 0.09841 0.0
O1215 O 0.24055 0.78679 0.14465 0.0
O1216 O 0.23366 0.80562 0.24115 0.0
H1217 H 0.33591 0.85184 0.34435 0.0
H1218 H 0.37904 0.84051 0.33256 0.0
C1219 C 0.3686 0.86478 0.32348 0.0
H1220 H 0.39262 0.89569 0.34618 0.0
H1221 H 0.22415 0.82603 0.36514 0.0
O1222 O 0.30311 0.83605 0.02367 0.0
C1223 C 0.22204 0.77737 0.19789 0.0
loop_
_geom_bond_atom_site_label_1
_geom_bond_atom_site_label_2
_geom_bond_distance
_geom_bond_site_symmetry_2
_ccdc_geom_bond_type
Co0 O3 1.970 . S
Co0 N17 1.989 . S
Co0 O25 1.967 . S
Co0 O32 1.920 . S
Co1 O4 1.966 . S
Co1 N10 2.022 . S
Co1 N18 1.993 . S
Co1 O26 1.941 . S
C2 O3 1.258 . S
C2 O4 1.263 1_556 S
O3 Co0 1.970 . S
O3 C2 1.258 . S
O4 Co1 1.966 . S
O4 C2 1.263 1_554 S
C5 O6 1.235 . S
C5 O32 1.289 . S
O6 C5 1.235 . S
C7 C9 1.400 . S
C7 N10 1.351 . S
C7 C12 1.501 . S
C8 C9 1.387 . S
C8 N11 1.341 . S
C9 C7 1.400 . S
C9 C8 1.387 . S
N10 Co1 2.022 . S
N10 C7 1.351 . S
N10 N11 1.365 . S
N11 C8 1.341 . S
N11 N10 1.365 . S
N11 H31 0.862 . S
C12 C7 1.501 . S
C12 H13 0.961 . S
C12 H14 0.961 . S
C12 H15 0.960 . S
H13 C12 0.961 . S
H14 C12 0.961 . S
H15 C12 0.960 . S
C16 N17 1.342 . S
C16 C20 1.401 1_556 S
C16 C21 1.499 . S
N17 Co0 1.989 . S
N17 C16 1.342 . S
N17 N18 1.388 1_556 S
N18 Co1 1.993 . S
N18 N17 1.388 1_554 S
N18 C19 1.346 . S
C19 N18 1.346 . S
C19 C20 1.396 . S
C19 C29 1.510 . S
C20 C16 1.401 1_554 S
C20 C19 1.396 . S
C21 C16 1.499 . S
C21 H22 0.959 . S
C21 H23 0.960 . S
C21 H24 0.961 . S
H22 C21 0.959 . S
H23 C21 0.960 . S
H24 C21 0.961 . S
O25 Co0 1.967 . S
O25 C33 1.258 1_556 S
O26 Co1 1.941 . S
O26 C33 1.266 . S
H27 C29 0.959 . S
H28 C29 0.961 . S
C29 C19 1.510 . S
C29 H27 0.959 . S
C29 H28 0.961 . S
C29 H30 0.960 . S
H30 C29 0.960 . S
H31 N11 0.862 . S
O32 Co0 1.920 . S
O32 C5 1.289 . S
C33 O25 1.258 1_554 S
C33 O26 1.266 . S
Co34 O37 1.970 . S
Co34 N51 1.989 1_545 S
Co34 O59 1.967 . S
Co34 O66 1.920 . S
Co35 O38 1.966 . S
Co35 N44 2.022 . S
Co35 N52 1.993 1_545 S
Co35 O60 1.941 . S
C36 O37 1.258 . S
C36 O38 1.263 1_556 S
O37 Co34 1.970 . S
O37 C36 1.258 . S
O38 Co35 1.966 . S
O38 C36 1.263 1_554 S
C39 O40 1.235 . S
C39 O66 1.289 1_565 S
O40 C39 1.235 . S
C41 C43 1.400 . S
C41 N44 1.351 . S
C41 C46 1.501 . S
C42 C43 1.387 . S
C42 N45 1.341 . S
C43 C41 1.400 . S
C43 C42 1.387 . S
N44 Co35 2.022 . S
N44 C41 1.351 . S
N44 N45 1.365 . S
N45 C42 1.341 . S
N45 N44 1.365 . S
N45 H65 0.862 . S
C46 C41 1.501 . S
C46 H47 0.961 . S
C46 H48 0.961 1_545 S
C46 H49 0.960 . S
H47 C46 0.961 . S
H48 C46 0.961 1_565 S
H49 C46 0.960 . S
C50 N51 1.342 . S
C50 C54 1.401 1_556 S
C50 C55 1.499 . S
N51 Co34 1.989 1_565 S
N51 C50 1.342 . S
N51 N52 1.388 1_556 S
N52 Co35 1.993 1_565 S
N52 N51 1.388 1_554 S
N52 C53 1.346 . S
C53 N52 1.346 . S
C53 C54 1.396 . S
C53 C63 1.510 . S
C54 C50 1.401 1_554 S
C54 C53 1.396 . S
C55 C50 1.499 . S
C55 H56 0.959 . S
C55 H57 0.960 . S
C55 H58 0.961 . S
H56 C55 0.959 . S
H57 C55 0.960 . S
H58 C55 0.961 . S
O59 Co34 1.967 . S
O59 C67 1.258 1_556 S
O60 Co35 1.941 . S
O60 C67 1.266 . S
H61 C63 0.959 . S
H62 C63 0.961 . S
C63 C53 1.510 . S
C63 H61 0.959 . S
C63 H62 0.961 . S
C63 H64 0.960 . S
H64 C63 0.960 . S
H65 N45 0.862 . S
O66 Co34 1.920 . S
O66 C39 1.289 1_545 S
C67 O59 1.258 1_554 S
C67 O60 1.266 . S
Co68 O71 1.970 . S
Co68 N85 1.989 1_655 S
Co68 O93 1.967 . S
Co68 O100 1.920 . S
Co69 O72 1.966 . S
Co69 N78 2.022 . S
Co69 N86 1.993 1_655 S
Co69 O94 1.941 . S
C70 O71 1.258 . S
C70 O72 1.263 1_556 S
O71 Co68 1.970 . S
O71 C70 1.258 . S
O72 Co69 1.966 . S
O72 C70 1.263 1_554 S
C73 O74 1.235 . S
C73 O100 1.289 1_455 S
O74 C73 1.235 . S
C75 C77 1.400 . S
C75 N78 1.351 . S
C75 C80 1.501 . S
C76 C77 1.387 . S
C76 N79 1.341 . S
C77 C75 1.400 . S
C77 C76 1.387 . S
N78 Co69 2.022 . S
N78 C75 1.351 . S
N78 N79 1.365 . S
N79 C76 1.341 . S
N79 N78 1.365 . S
N79 H99 0.862 . S
C80 C75 1.501 . S
C80 H81 0.961 . S
C80 H82 0.961 1_655 S
C80 H83 0.960 . S
H81 C80 0.961 . S
H82 C80 0.961 1_455 S
H83 C80 0.960 . S
C84 N85 1.342 . S
C84 C88 1.401 1_556 S
C84 C89 1.499 . S
N85 Co68 1.989 1_455 S
N85 C84 1.342 . S
N85 N86 1.388 1_556 S
N86 Co69 1.993 1_455 S
N86 N85 1.388 1_554 S
N86 C87 1.346 . S
C87 N86 1.346 . S
C87 C88 1.396 . S
C87 C97 1.510 . S
C88 C84 1.401 1_554 S
C88 C87 1.396 . S
C89 C84 1.499 . S
C89 H90 0.959 . S
C89 H91 0.960 . S
C89 H92 0.961 . S
H90 C89 0.959 . S
H91 C89 0.960 . S
H92 C89 0.961 . S
O93 Co68 1.967 . S
O93 C101 1.258 1_556 S
O94 Co69 1.941 . S
O94 C101 1.266 . S
H95 C97 0.959 . S
H96 C97 0.961 . S
C97 C87 1.510 . S
C97 H95 0.959 . S
C97 H96 0.961 . S
C97 H98 0.960 . S
H98 C97 0.960 . S
H99 N79 0.862 . S
O100 Co68 1.920 . S
O100 C73 1.289 1_655 S
C101 O93 1.258 1_554 S
C101 O94 1.266 . S
Co102 O105 1.970 . S
Co102 N119 1.989 . S
Co102 O127 1.967 . S
Co102 O134 1.920 . S
Co103 O106 1.966 . S
Co103 N112 2.022 . S
Co103 N120 1.993 . S
Co103 O128 1.941 . S
C104 O105 1.258 . S
C104 O106 1.263 . S
O105 Co102 1.970 . S
O105 C104 1.258 . S
O106 Co103 1.966 . S
O106 C104 1.263 . S
C107 O108 1.235 . S
C107 O134 1.289 . S
O108 C107 1.235 . S
C109 C111 1.400 . S
C109 N112 1.351 . S
C109 C114 1.501 . S
C110 C111 1.387 . S
C110 N113 1.341 . S
C111 C109 1.400 . S
C111 C110 1.387 . S
N112 Co103 2.022 . S
N112 C109 1.351 . S
N112 N113 1.365 . S
N113 C110 1.341 . S
N113 N112 1.365 . S
N113 H133 0.862 . S
C114 C109 1.501 . S
C114 H115 0.961 . S
C114 H116 0.961 . S
C114 H117 0.960 . S
H115 C114 0.961 . S
H116 C114 0.961 . S
H117 C114 0.960 . S
C118 N119 1.342 . S
C118 C122 1.401 . S
C118 C123 1.499 . S
N119 Co102 1.989 . S
N119 C118 1.342 . S
N119 N120 1.388 . S
N120 Co103 1.993 . S
N120 N119 1.388 . S
N120 C121 1.346 . S
C121 N120 1.346 . S
C121 C122 1.396 . S
C121 C131 1.510 . S
C122 C118 1.401 . S
C122 C121 1.396 . S
C123 C118 1.499 . S
C123 H124 0.959 . S
C123 H125 0.960 . S
C123 H126 0.961 . S
H124 C123 0.959 . S
H125 C123 0.960 . S
H126 C123 0.961 . S
O127 Co102 1.967 . S
O127 C135 1.258 . S
O128 Co103 1.941 . S
O128 C135 1.266 . S
H129 C131 0.959 . S
H130 C131 0.961 . S
C131 C121 1.510 . S
C131 H129 0.959 . S
C131 H130 0.961 . S
C131 H132 0.960 . S
H132 C131 0.960 . S
H133 N113 0.862 . S
O134 Co102 1.920 . S
O134 C107 1.289 . S
C135 O127 1.258 . S
C135 O128 1.266 . S
Co136 O139 1.970 . S
Co136 N153 1.989 1_565 S
Co136 O161 1.967 . S
Co136 O168 1.920 . S
Co137 O140 1.966 . S
Co137 N146 2.022 . S
Co137 N154 1.993 1_565 S
Co137 O162 1.941 . S
C138 O139 1.258 . S
C138 O140 1.263 . S
O139 Co136 1.970 . S
O139 C138 1.258 . S
O140 Co137 1.966 . S
O140 C138 1.263 . S
C141 O142 1.235 . S
C141 O168 1.289 1_545 S
O142 C141 1.235 . S
C143 C145 1.400 . S
C143 N146 1.351 . S
C143 C148 1.501 . S
C144 C145 1.387 . S
C144 N147 1.341 . S
C145 C143 1.400 . S
C145 C144 1.387 . S
N146 Co137 2.022 . S
N146 C143 1.351 . S
N146 N147 1.365 . S
N147 C144 1.341 . S
N147 N146 1.365 . S
N147 H167 0.862 . S
C148 C143 1.501 . S
C148 H149 0.961 . S
C148 H150 0.961 1_565 S
C148 H151 0.960 . S
H149 C148 0.961 . S
H150 C148 0.961 1_545 S
H151 C148 0.960 . S
C152 N153 1.342 . S
C152 C156 1.401 . S
C152 C157 1.499 . S
N153 Co136 1.989 1_545 S
N153 C152 1.342 . S
N153 N154 1.388 . S
N154 Co137 1.993 1_545 S
N154 N153 1.388 . S
N154 C155 1.346 . S
C155 N154 1.346 . S
C155 C156 1.396 . S
C155 C165 1.510 . S
C156 C152 1.401 . S
C156 C155 1.396 . S
C157 C152 1.499 . S
C157 H158 0.959 . S
C157 H159 0.960 . S
C157 H160 0.961 . S
H158 C157 0.959 . S
H159 C157 0.960 . S
H160 C157 0.961 . S
O161 Co136 1.967 . S
O161 C169 1.258 . S
O162 Co137 1.941 . S
O162 C169 1.266 . S
H163 C165 0.959 . S
H164 C165 0.961 . S
C165 C155 1.510 . S
C165 H163 0.959 . S
C165 H164 0.961 . S
C165 H166 0.960 . S
H166 C165 0.960 . S
H167 N147 0.862 . S
O168 Co136 1.920 . S
O168 C141 1.289 1_565 S
C169 O161 1.258 . S
C169 O162 1.266 . S
Co170 O173 1.970 . S
Co170 N187 1.989 1_455 S
Co170 O195 1.967 . S
Co170 O202 1.920 . S
Co171 O174 1.966 . S
Co171 N180 2.022 . S
Co171 N188 1.993 1_455 S
Co171 O196 1.941 . S
C172 O173 1.258 . S
C172 O174 1.263 . S
O173 Co170 1.970 . S
O173 C172 1.258 . S
O174 Co171 1.966 . S
O174 C172 1.263 . S
C175 O176 1.235 . S
C175 O202 1.289 1_655 S
O176 C175 1.235 . S
C177 C179 1.400 . S
C177 N180 1.351 . S
C177 C182 1.501 . S
C178 C179 1.387 . S
C178 N181 1.341 . S
C179 C177 1.400 . S
C179 C178 1.387 . S
N180 Co171 2.022 . S
N180 C177 1.351 . S
N180 N181 1.365 . S
N181 C178 1.341 . S
N181 N180 1.365 . S
N181 H201 0.862 . S
C182 C177 1.501 . S
C182 H183 0.961 . S
C182 H184 0.961 1_455 S
C182 H185 0.960 . S
H183 C182 0.961 . S
H184 C182 0.961 1_655 S
H185 C182 0.960 . S
C186 N187 1.342 . S
C186 C190 1.401 . S
C186 C191 1.499 . S
N187 Co170 1.989 1_655 S
N187 C186 1.342 . S
N187 N188 1.388 . S
N188 Co171 1.993 1_655 S
N188 N187 1.388 . S
N188 C189 1.346 . S
C189 N188 1.346 . S
C189 C190 1.396 . S
C189 C199 1.510 . S
C190 C186 1.401 . S
C190 C189 1.396 . S
C191 C186 1.499 . S
C191 H192 0.959 . S
C191 H193 0.960 . S
C191 H194 0.961 . S
H192 C191 0.959 . S
H193 C191 0.960 . S
H194 C191 0.961 . S
O195 Co170 1.967 . S
O195 C203 1.258 . S
O196 Co171 1.941 . S
O196 C203 1.266 . S
H197 C199 0.959 . S
H198 C199 0.961 . S
C199 C189 1.510 . S
C199 H197 0.959 . S
C199 H198 0.961 . S
C199 H200 0.960 . S
H200 C199 0.960 . S
H201 N181 0.862 . S
O202 Co170 1.920 . S
O202 C175 1.289 1_455 S
C203 O195 1.258 . S
C203 O196 1.266 . S
Co204 O207 1.970 . S
Co204 N221 1.989 . S
Co204 O229 1.967 . S
Co204 O236 1.920 . S
Co205 O208 1.966 1_556 S
Co205 N214 2.022 . S
Co205 N222 1.993 1_556 S
Co205 O230 1.941 1_556 S
C206 O207 1.258 . S
C206 O208 1.263 . S
O207 Co204 1.970 . S
O207 C206 1.258 . S
O208 Co205 1.966 1_554 S
O208 C206 1.263 . S
C209 O210 1.235 . S
C209 O236 1.289 . S
O210 C209 1.235 . S
C211 C213 1.400 . S
C211 N214 1.351 . S
C211 C216 1.501 . S
C212 C213 1.387 . S
C212 N215 1.341 . S
C213 C211 1.400 . S
C213 C212 1.387 . S
N214 Co205 2.022 . S
N214 C211 1.351 . S
N214 N215 1.365 . S
N215 C212 1.341 . S
N215 N214 1.365 . S
N215 H235 0.862 . S
C216 C211 1.501 . S
C216 H217 0.961 . S
C216 H218 0.961 . S
C216 H219 0.960 . S
H217 C216 0.961 . S
H218 C216 0.961 . S
H219 C216 0.960 . S
C220 N221 1.342 . S
C220 C224 1.401 . S
C220 C225 1.499 . S
N221 Co204 1.989 . S
N221 C220 1.342 . S
N221 N222 1.388 . S
N222 Co205 1.993 1_554 S
N222 N221 1.388 . S
N222 C223 1.346 1_554 S
C223 N222 1.346 1_556 S
C223 C224 1.396 1_556 S
C223 C233 1.510 . S
C224 C220 1.401 . S
C224 C223 1.396 1_554 S
C225 C220 1.499 . S
C225 H226 0.959 . S
C225 H227 0.960 . S
C225 H228 0.961 . S
H226 C225 0.959 . S
H227 C225 0.960 . S
H228 C225 0.961 . S
O229 Co204 1.967 . S
O229 C237 1.258 . S
O230 Co205 1.941 1_554 S
O230 C237 1.266 . S
H231 C233 0.959 . S
H232 C233 0.961 . S
C233 C223 1.510 . S
C233 H231 0.959 . S
C233 H232 0.961 . S
C233 H234 0.960 . S
H234 C233 0.960 . S
H235 N215 0.862 . S
O236 Co204 1.920 . S
O236 C209 1.289 . S
C237 O229 1.258 . S
C237 O230 1.266 . S
Co238 O241 1.970 . S
Co238 N255 1.989 1_565 S
Co238 O263 1.967 . S
Co238 O270 1.920 . S
Co239 O242 1.966 1_556 S
Co239 N248 2.022 . S
Co239 N256 1.993 1_566 S
Co239 O264 1.941 1_556 S
C240 O241 1.258 . S
C240 O242 1.263 . S
O241 Co238 1.970 . S
O241 C240 1.258 . S
O242 Co239 1.966 1_554 S
O242 C240 1.263 . S
C243 O244 1.235 . S
C243 O270 1.289 1_545 S
O244 C243 1.235 . S
C245 C247 1.400 . S
C245 N248 1.351 . S
C245 C250 1.501 . S
C246 C247 1.387 . S
C246 N249 1.341 . S
C247 C245 1.400 . S
C247 C246 1.387 . S
N248 Co239 2.022 . S
N248 C245 1.351 . S
N248 N249 1.365 . S
N249 C246 1.341 . S
N249 N248 1.365 . S
N249 H269 0.862 . S
C250 C245 1.501 . S
C250 H251 0.961 . S
C250 H252 0.961 1_565 S
C250 H253 0.960 . S
H251 C250 0.961 . S
H252 C250 0.961 1_545 S
H253 C250 0.960 . S
C254 N255 1.342 . S
C254 C258 1.401 . S
C254 C259 1.499 . S
N255 Co238 1.989 1_545 S
N255 C254 1.342 . S
N255 N256 1.388 . S
N256 Co239 1.993 1_544 S
N256 N255 1.388 . S
N256 C257 1.346 1_554 S
C257 N256 1.346 1_556 S
C257 C258 1.396 1_556 S
C257 C267 1.510 . S
C258 C254 1.401 . S
C258 C257 1.396 1_554 S
C259 C254 1.499 . S
C259 H260 0.959 . S
C259 H261 0.960 . S
C259 H262 0.961 . S
H260 C259 0.959 . S
H261 C259 0.960 . S
H262 C259 0.961 . S
O263 Co238 1.967 . S
O263 C271 1.258 . S
O264 Co239 1.941 1_554 S
O264 C271 1.266 . S
H265 C267 0.959 . S
H266 C267 0.961 . S
C267 C257 1.510 . S
C267 H265 0.959 . S
C267 H266 0.961 . S
C267 H268 0.960 . S
H268 C267 0.960 . S
H269 N249 0.862 . S
O270 Co238 1.920 . S
O270 C243 1.289 1_565 S
C271 O263 1.258 . S
C271 O264 1.266 . S
Co272 O275 1.970 . S
Co272 N289 1.989 1_455 S
Co272 O297 1.967 . S
Co272 O304 1.920 . S
Co273 O276 1.966 1_556 S
Co273 N282 2.022 . S
Co273 N290 1.993 1_456 S
Co273 O298 1.941 1_556 S
C274 O275 1.258 . S
C274 O276 1.263 . S
O275 Co272 1.970 . S
O275 C274 1.258 . S
O276 Co273 1.966 1_554 S
O276 C274 1.263 . S
C277 O278 1.235 . S
C277 O304 1.289 1_655 S
O278 C277 1.235 . S
C279 C281 1.400 . S
C279 N282 1.351 . S
C279 C284 1.501 . S
C280 C281 1.387 . S
C280 N283 1.341 . S
C281 C279 1.400 . S
C281 C280 1.387 . S
N282 Co273 2.022 . S
N282 C279 1.351 . S
N282 N283 1.365 . S
N283 C280 1.341 . S
N283 N282 1.365 . S
N283 H303 0.862 . S
C284 C279 1.501 . S
C284 H285 0.961 . S
C284 H286 0.961 1_455 S
C284 H287 0.960 . S
H285 C284 0.961 . S
H286 C284 0.961 1_655 S
H287 C284 0.960 . S
C288 N289 1.342 . S
C288 C292 1.401 . S
C288 C293 1.499 . S
N289 Co272 1.989 1_655 S
N289 C288 1.342 . S
N289 N290 1.388 . S
N290 Co273 1.993 1_654 S
N290 N289 1.388 . S
N290 C291 1.346 1_554 S
C291 N290 1.346 1_556 S
C291 C292 1.396 1_556 S
C291 C301 1.510 . S
C292 C288 1.401 . S
C292 C291 1.396 1_554 S
C293 C288 1.499 . S
C293 H294 0.959 . S
C293 H295 0.960 . S
C293 H296 0.961 . S
H294 C293 0.959 . S
H295 C293 0.960 . S
H296 C293 0.961 . S
O297 Co272 1.967 . S
O297 C305 1.258 . S
O298 Co273 1.941 1_554 S
O298 C305 1.266 . S
H299 C301 0.959 . S
H300 C301 0.961 . S
C301 C291 1.510 . S
C301 H299 0.959 . S
C301 H300 0.961 . S
C301 H302 0.960 . S
H302 C301 0.960 . S
H303 N283 0.862 . S
O304 Co272 1.920 . S
O304 C277 1.289 1_455 S
C305 O297 1.258 . S
C305 O298 1.266 . S
Co306 O309 1.970 . S
Co306 N323 1.989 . S
Co306 O331 1.967 . S
Co306 O338 1.920 . S
Co307 O310 1.966 . S
Co307 N316 2.022 . S
Co307 N324 1.993 . S
Co307 O332 1.941 . S
C308 O309 1.258 . S
C308 O310 1.263 . S
O309 Co306 1.970 . S
O309 C308 1.258 . S
O310 Co307 1.966 . S
O310 C308 1.263 . S
C311 O312 1.235 . S
C311 O338 1.289 . S
O312 C311 1.235 . S
C313 C315 1.400 . S
C313 N316 1.351 . S
C313 C318 1.501 . S
C314 C315 1.387 . S
C314 N317 1.341 . S
C315 C313 1.400 . S
C315 C314 1.387 . S
N316 Co307 2.022 . S
N316 C313 1.351 . S
N316 N317 1.365 . S
N317 C314 1.341 . S
N317 N316 1.365 . S
N317 H337 0.862 . S
C318 C313 1.501 . S
C318 H319 0.961 . S
C318 H320 0.961 . S
C318 H321 0.960 . S
H319 C318 0.961 . S
H320 C318 0.961 . S
H321 C318 0.960 . S
C322 N323 1.342 . S
C322 C326 1.401 . S
C322 C327 1.499 . S
N323 Co306 1.989 . S
N323 C322 1.342 . S
N323 N324 1.388 . S
N324 Co307 1.993 . S
N324 N323 1.388 . S
N324 C325 1.346 . S
C325 N324 1.346 . S
C325 C326 1.396 . S
C325 C335 1.510 . S
C326 C322 1.401 . S
C326 C325 1.396 . S
C327 C322 1.499 . S
C327 H328 0.959 . S
C327 H329 0.960 . S
C327 H330 0.961 . S
H328 C327 0.959 . S
H329 C327 0.960 . S
H330 C327 0.961 . S
O331 Co306 1.967 . S
O331 C339 1.258 . S
O332 Co307 1.941 . S
O332 C339 1.266 . S
H333 C335 0.959 . S
H334 C335 0.961 . S
C335 C325 1.510 . S
C335 H333 0.959 . S
C335 H334 0.961 . S
C335 H336 0.960 . S
H336 C335 0.960 . S
H337 N317 0.862 . S
O338 Co306 1.920 . S
O338 C311 1.289 . S
C339 O331 1.258 . S
C339 O332 1.266 . S
Co340 O343 1.970 . S
Co340 N357 1.989 1_545 S
Co340 O365 1.967 . S
Co340 O372 1.920 . S
Co341 O344 1.966 . S
Co341 N350 2.022 . S
Co341 N358 1.993 1_545 S
Co341 O366 1.941 . S
C342 O343 1.258 . S
C342 O344 1.263 . S
O343 Co340 1.970 . S
O343 C342 1.258 . S
O344 Co341 1.966 . S
O344 C342 1.263 . S
C345 O346 1.235 . S
C345 O372 1.289 1_565 S
O346 C345 1.235 . S
C347 C349 1.400 . S
C347 N350 1.351 . S
C347 C352 1.501 . S
C348 C349 1.387 . S
C348 N351 1.341 . S
C349 C347 1.400 . S
C349 C348 1.387 . S
N350 Co341 2.022 . S
N350 C347 1.351 . S
N350 N351 1.365 . S
N351 C348 1.341 . S
N351 N350 1.365 . S
N351 H371 0.862 . S
C352 C347 1.501 . S
C352 H353 0.961 . S
C352 H354 0.961 1_545 S
C352 H355 0.960 . S
H353 C352 0.961 . S
H354 C352 0.961 1_565 S
H355 C352 0.960 . S
C356 N357 1.342 . S
C356 C360 1.401 . S
C356 C361 1.499 . S
N357 Co340 1.989 1_565 S
N357 C356 1.342 . S
N357 N358 1.388 . S
N358 Co341 1.993 1_565 S
N358 N357 1.388 . S
N358 C359 1.346 . S
C359 N358 1.346 . S
C359 C360 1.396 . S
C359 C369 1.510 . S
C360 C356 1.401 . S
C360 C359 1.396 . S
C361 C356 1.499 . S
C361 H362 0.959 . S
C361 H363 0.960 . S
C361 H364 0.961 . S
H362 C361 0.959 . S
H363 C361 0.960 . S
H364 C361 0.961 . S
O365 Co340 1.967 . S
O365 C373 1.258 . S
O366 Co341 1.941 . S
O366 C373 1.266 . S
H367 C369 0.959 . S
H368 C369 0.961 . S
C369 C359 1.510 . S
C369 H367 0.959 . S
C369 H368 0.961 . S
C369 H370 0.960 . S
H370 C369 0.960 . S
H371 N351 0.862 . S
O372 Co340 1.920 . S
O372 C345 1.289 1_545 S
C373 O365 1.258 . S
C373 O366 1.266 . S
Co374 O377 1.970 . S
Co374 N391 1.989 1_655 S
Co374 O399 1.967 . S
Co374 O406 1.920 . S
Co375 O378 1.966 . S
Co375 N384 2.022 . S
Co375 N392 1.993 1_655 S
Co375 O400 1.941 . S
C376 O377 1.258 . S
C376 O378 1.263 . S
O377 Co374 1.970 . S
O377 C376 1.258 . S
O378 Co375 1.966 . S
O378 C376 1.263 . S
C379 O380 1.235 . S
C379 O406 1.289 1_455 S
O380 C379 1.235 . S
C381 C383 1.400 . S
C381 N384 1.351 . S
C381 C386 1.501 . S
C382 C383 1.387 . S
C382 N385 1.341 . S
C383 C381 1.400 . S
C383 C382 1.387 . S
N384 Co375 2.022 . S
N384 C381 1.351 . S
N384 N385 1.365 . S
N385 C382 1.341 . S
N385 N384 1.365 . S
N385 H405 0.862 . S
C386 C381 1.501 . S
C386 H387 0.961 . S
C386 H388 0.961 1_655 S
C386 H389 0.960 . S
H387 C386 0.961 . S
H388 C386 0.961 1_455 S
H389 C386 0.960 . S
C390 N391 1.342 . S
C390 C394 1.401 . S
C390 C395 1.499 . S
N391 Co374 1.989 1_455 S
N391 C390 1.342 . S
N391 N392 1.388 . S
N392 Co375 1.993 1_455 S
N392 N391 1.388 . S
N392 C393 1.346 . S
C393 N392 1.346 . S
C393 C394 1.396 . S
C393 C403 1.510 . S
C394 C390 1.401 . S
C394 C393 1.396 . S
C395 C390 1.499 . S
C395 H396 0.959 . S
C395 H397 0.960 . S
C395 H398 0.961 . S
H396 C395 0.959 . S
H397 C395 0.960 . S
H398 C395 0.961 . S
O399 Co374 1.967 . S
O399 C407 1.258 . S
O400 Co375 1.941 . S
O400 C407 1.266 . S
H401 C403 0.959 . S
H402 C403 0.961 . S
C403 C393 1.510 . S
C403 H401 0.959 . S
C403 H402 0.961 . S
C403 H404 0.960 . S
H404 C403 0.960 . S
H405 N385 0.862 . S
O406 Co374 1.920 . S
O406 C379 1.289 1_655 S
C407 O399 1.258 . S
C407 O400 1.266 . S
Co408 O411 1.970 . S
Co408 N425 1.989 . S
Co408 O433 1.967 . S
Co408 O440 1.920 . S
Co409 O412 1.966 . S
Co409 N418 2.022 . S
Co409 N426 1.993 . S
Co409 O434 1.941 . S
C410 O411 1.258 . S
C410 O412 1.263 . S
O411 Co408 1.970 . S
O411 C410 1.258 . S
O412 Co409 1.966 . S
O412 C410 1.263 . S
C413 O414 1.235 . S
C413 O440 1.289 . S
O414 C413 1.235 . S
C415 C417 1.400 . S
C415 N418 1.351 . S
C415 C420 1.501 . S
C416 C417 1.387 . S
C416 N419 1.341 . S
C417 C415 1.400 . S
C417 C416 1.387 . S
N418 Co409 2.022 . S
N418 C415 1.351 . S
N418 N419 1.365 . S
N419 C416 1.341 . S
N419 N418 1.365 . S
N419 H439 0.862 . S
C420 C415 1.501 . S
C420 H421 0.961 . S
C420 H422 0.961 . S
C420 H423 0.960 1_655 S
H421 C420 0.961 . S
H422 C420 0.961 . S
H423 C420 0.960 1_455 S
C424 N425 1.342 . S
C424 C428 1.401 . S
C424 C429 1.499 . S
N425 Co408 1.989 . S
N425 C424 1.342 . S
N425 N426 1.388 . S
N426 Co409 1.993 . S
N426 N425 1.388 . S
N426 C427 1.346 . S
C427 N426 1.346 . S
C427 C428 1.396 . S
C427 C437 1.510 . S
C428 C424 1.401 . S
C428 C427 1.396 . S
C429 C424 1.499 . S
C429 H430 0.959 . S
C429 H431 0.960 . S
C429 H432 0.961 . S
H430 C429 0.959 . S
H431 C429 0.960 . S
H432 C429 0.961 . S
O433 Co408 1.967 . S
O433 C441 1.258 . S
O434 Co409 1.941 . S
O434 C441 1.266 . S
H435 C437 0.959 . S
H436 C437 0.961 . S
C437 C427 1.510 . S
C437 H435 0.959 . S
C437 H436 0.961 . S
C437 H438 0.960 . S
H438 C437 0.960 . S
H439 N419 0.862 . S
O440 Co408 1.920 . S
O440 C413 1.289 . S
C441 O433 1.258 . S
C441 O434 1.266 . S
Co442 O445 1.970 . S
Co442 N459 1.989 . S
Co442 O467 1.967 . S
Co442 O474 1.920 . S
Co443 O446 1.966 . S
Co443 N452 2.022 . S
Co443 N460 1.993 . S
Co443 O468 1.941 . S
C444 O445 1.258 . S
C444 O446 1.263 . S
O445 Co442 1.970 . S
O445 C444 1.258 . S
O446 Co443 1.966 . S
O446 C444 1.263 . S
C447 O448 1.235 . S
C447 O474 1.289 . S
O448 C447 1.235 . S
C449 C451 1.400 . S
C449 N452 1.351 . S
C449 C454 1.501 . S
C450 C451 1.387 . S
C450 N453 1.341 . S
C451 C449 1.400 . S
C451 C450 1.387 . S
N452 Co443 2.022 . S
N452 C449 1.351 . S
N452 N453 1.365 . S
N453 C450 1.341 . S
N453 N452 1.365 . S
N453 H473 0.862 . S
C454 C449 1.501 . S
C454 H455 0.961 . S
C454 H456 0.961 . S
C454 H457 0.960 . S
H455 C454 0.961 . S
H456 C454 0.961 . S
H457 C454 0.960 . S
C458 N459 1.342 . S
C458 C462 1.401 . S
C458 C463 1.499 . S
N459 Co442 1.989 . S
N459 C458 1.342 . S
N459 N460 1.388 . S
N460 Co443 1.993 . S
N460 N459 1.388 . S
N460 C461 1.346 . S
C461 N460 1.346 . S
C461 C462 1.396 . S
C461 C471 1.510 . S
C462 C458 1.401 . S
C462 C461 1.396 . S
C463 C458 1.499 . S
C463 H464 0.959 . S
C463 H465 0.960 . S
C463 H466 0.961 . S
H464 C463 0.959 . S
H465 C463 0.960 . S
H466 C463 0.961 . S
O467 Co442 1.967 . S
O467 C475 1.258 . S
O468 Co443 1.941 . S
O468 C475 1.266 . S
H469 C471 0.959 . S
H470 C471 0.961 . S
C471 C461 1.510 . S
C471 H469 0.959 . S
C471 H470 0.961 . S
C471 H472 0.960 . S
H472 C471 0.960 . S
H473 N453 0.862 . S
O474 Co442 1.920 . S
O474 C447 1.289 . S
C475 O467 1.258 . S
C475 O468 1.266 . S
Co476 O479 1.970 . S
Co476 N493 1.989 . S
Co476 O501 1.967 . S
Co476 O508 1.920 . S
Co477 O480 1.966 . S
Co477 N486 2.022 . S
Co477 N494 1.993 . S
Co477 O502 1.941 . S
C478 O479 1.258 . S
C478 O480 1.263 . S
O479 Co476 1.970 . S
O479 C478 1.258 . S
O480 Co477 1.966 . S
O480 C478 1.263 . S
C481 O482 1.235 . S
C481 O508 1.289 . S
O482 C481 1.235 . S
C483 C485 1.400 . S
C483 N486 1.351 . S
C483 C488 1.501 . S
C484 C485 1.387 . S
C484 N487 1.341 . S
C485 C483 1.400 . S
C485 C484 1.387 . S
N486 Co477 2.022 . S
N486 C483 1.351 . S
N486 N487 1.365 . S
N487 C484 1.341 . S
N487 N486 1.365 . S
N487 H507 0.862 . S
C488 C483 1.501 . S
C488 H489 0.961 . S
C488 H490 0.961 . S
C488 H491 0.960 1_545 S
H489 C488 0.961 . S
H490 C488 0.961 . S
H491 C488 0.960 1_565 S
C492 N493 1.342 . S
C492 C496 1.401 . S
C492 C497 1.499 . S
N493 Co476 1.989 . S
N493 C492 1.342 . S
N493 N494 1.388 . S
N494 Co477 1.993 . S
N494 N493 1.388 . S
N494 C495 1.346 . S
C495 N494 1.346 . S
C495 C496 1.396 . S
C495 C505 1.510 . S
C496 C492 1.401 . S
C496 C495 1.396 . S
C497 C492 1.499 . S
C497 H498 0.959 . S
C497 H499 0.960 . S
C497 H500 0.961 . S
H498 C497 0.959 . S
H499 C497 0.960 . S
H500 C497 0.961 . S
O501 Co476 1.967 . S
O501 C509 1.258 . S
O502 Co477 1.941 . S
O502 C509 1.266 . S
H503 C505 0.959 . S
H504 C505 0.961 . S
C505 C495 1.510 . S
C505 H503 0.959 . S
C505 H504 0.961 . S
C505 H506 0.960 . S
H506 C505 0.960 . S
H507 N487 0.862 . S
O508 Co476 1.920 . S
O508 C481 1.289 . S
C509 O501 1.258 . S
C509 O502 1.266 . S
Co510 O513 1.970 . S
Co510 N527 1.989 . S
Co510 O535 1.967 . S
Co510 O542 1.920 1_556 S
Co511 O514 1.966 . S
Co511 N520 2.022 . S
Co511 N528 1.993 . S
Co511 O536 1.941 . S
C512 O513 1.258 . S
C512 O514 1.263 . S
O513 Co510 1.970 . S
O513 C512 1.258 . S
O514 Co511 1.966 . S
O514 C512 1.263 . S
C515 O516 1.235 . S
C515 O542 1.289 . S
O516 C515 1.235 . S
C517 C519 1.400 . S
C517 N520 1.351 . S
C517 C522 1.501 . S
C518 C519 1.387 . S
C518 N521 1.341 . S
C519 C517 1.400 . S
C519 C518 1.387 . S
N520 Co511 2.022 . S
N520 C517 1.351 . S
N520 N521 1.365 . S
N521 C518 1.341 . S
N521 N520 1.365 . S
N521 H541 0.862 . S
C522 C517 1.501 . S
C522 H523 0.961 . S
C522 H524 0.961 . S
C522 H525 0.960 . S
H523 C522 0.961 . S
H524 C522 0.961 . S
H525 C522 0.960 . S
C526 N527 1.342 . S
C526 C530 1.401 . S
C526 C531 1.499 . S
N527 Co510 1.989 . S
N527 C526 1.342 . S
N527 N528 1.388 . S
N528 Co511 1.993 . S
N528 N527 1.388 . S
N528 C529 1.346 . S
C529 N528 1.346 . S
C529 C530 1.396 . S
C529 C539 1.510 . S
C530 C526 1.401 . S
C530 C529 1.396 . S
C531 C526 1.499 . S
C531 H532 0.959 1_556 S
C531 H533 0.960 1_556 S
C531 H534 0.961 . S
H532 C531 0.959 1_554 S
H533 C531 0.960 1_554 S
H534 C531 0.961 . S
O535 Co510 1.967 . S
O535 C543 1.258 . S
O536 Co511 1.941 . S
O536 C543 1.266 . S
H537 C539 0.959 . S
H538 C539 0.961 . S
C539 C529 1.510 . S
C539 H537 0.959 . S
C539 H538 0.961 . S
C539 H540 0.960 . S
H540 C539 0.960 . S
H541 N521 0.862 . S
O542 Co510 1.920 1_554 S
O542 C515 1.289 . S
C543 O535 1.258 . S
C543 O536 1.266 . S
Co544 O547 1.970 . S
Co544 N561 1.989 . S
Co544 O569 1.967 . S
Co544 O576 1.920 1_556 S
Co545 O548 1.966 . S
Co545 N554 2.022 . S
Co545 N562 1.993 . S
Co545 O570 1.941 . S
C546 O547 1.258 . S
C546 O548 1.263 . S
O547 Co544 1.970 . S
O547 C546 1.258 . S
O548 Co545 1.966 . S
O548 C546 1.263 . S
C549 O550 1.235 . S
C549 O576 1.289 . S
O550 C549 1.235 . S
C551 C553 1.400 . S
C551 N554 1.351 . S
C551 C556 1.501 . S
C552 C553 1.387 . S
C552 N555 1.341 . S
C553 C551 1.400 . S
C553 C552 1.387 . S
N554 Co545 2.022 . S
N554 C551 1.351 . S
N554 N555 1.365 . S
N555 C552 1.341 . S
N555 N554 1.365 . S
N555 H575 0.862 . S
C556 C551 1.501 . S
C556 H557 0.961 . S
C556 H558 0.961 . S
C556 H559 0.960 . S
H557 C556 0.961 . S
H558 C556 0.961 . S
H559 C556 0.960 . S
C560 N561 1.342 . S
C560 C564 1.401 . S
C560 C565 1.499 . S
N561 Co544 1.989 . S
N561 C560 1.342 . S
N561 N562 1.388 . S
N562 Co545 1.993 . S
N562 N561 1.388 . S
N562 C563 1.346 . S
C563 N562 1.346 . S
C563 C564 1.396 . S
C563 C573 1.510 . S
C564 C560 1.401 . S
C564 C563 1.396 . S
C565 C560 1.499 . S
C565 H566 0.959 1_556 S
C565 H567 0.960 1_556 S
C565 H568 0.961 . S
H566 C565 0.959 1_554 S
H567 C565 0.960 1_554 S
H568 C565 0.961 . S
O569 Co544 1.967 . S
O569 C577 1.258 . S
O570 Co545 1.941 . S
O570 C577 1.266 . S
H571 C573 0.959 . S
H572 C573 0.961 . S
C573 C563 1.510 . S
C573 H571 0.959 . S
C573 H572 0.961 . S
C573 H574 0.960 . S
H574 C573 0.960 . S
H575 N555 0.862 . S
O576 Co544 1.920 1_554 S
O576 C549 1.289 . S
C577 O569 1.258 . S
C577 O570 1.266 . S
Co578 O581 1.970 . S
Co578 N595 1.989 . S
Co578 O603 1.967 . S
Co578 O610 1.920 1_556 S
Co579 O582 1.966 . S
Co579 N588 2.022 . S
Co579 N596 1.993 . S
Co579 O604 1.941 . S
C580 O581 1.258 . S
C580 O582 1.263 . S
O581 Co578 1.970 . S
O581 C580 1.258 . S
O582 Co579 1.966 . S
O582 C580 1.263 . S
C583 O584 1.235 . S
C583 O610 1.289 . S
O584 C583 1.235 . S
C585 C587 1.400 . S
C585 N588 1.351 . S
C585 C590 1.501 . S
C586 C587 1.387 . S
C586 N589 1.341 . S
C587 C585 1.400 . S
C587 C586 1.387 . S
N588 Co579 2.022 . S
N588 C585 1.351 . S
N588 N589 1.365 . S
N589 C586 1.341 . S
N589 N588 1.365 . S
N589 H609 0.862 . S
C590 C585 1.501 . S
C590 H591 0.961 . S
C590 H592 0.961 . S
C590 H593 0.960 . S
H591 C590 0.961 . S
H592 C590 0.961 . S
H593 C590 0.960 . S
C594 N595 1.342 . S
C594 C598 1.401 . S
C594 C599 1.499 . S
N595 Co578 1.989 . S
N595 C594 1.342 . S
N595 N596 1.388 . S
N596 Co579 1.993 . S
N596 N595 1.388 . S
N596 C597 1.346 . S
C597 N596 1.346 . S
C597 C598 1.396 . S
C597 C607 1.510 . S
C598 C594 1.401 . S
C598 C597 1.396 . S
C599 C594 1.499 . S
C599 H600 0.959 1_556 S
C599 H601 0.960 1_556 S
C599 H602 0.961 . S
H600 C599 0.959 1_554 S
H601 C599 0.960 1_554 S
H602 C599 0.961 . S
O603 Co578 1.967 . S
O603 C611 1.258 . S
O604 Co579 1.941 . S
O604 C611 1.266 . S
H605 C607 0.959 . S
H606 C607 0.961 . S
C607 C597 1.510 . S
C607 H605 0.959 . S
C607 H606 0.961 . S
C607 H608 0.960 . S
H608 C607 0.960 . S
H609 N589 0.862 . S
O610 Co578 1.920 1_554 S
O610 C583 1.289 . S
C611 O603 1.258 . S
C611 O604 1.266 . S
Co612 O615 1.970 . S
Co612 N629 1.989 . S
Co612 O637 1.967 . S
Co612 O644 1.920 . S
Co613 O616 1.966 . S
Co613 N622 2.022 . S
Co613 N630 1.993 . S
Co613 O638 1.941 . S
C614 O615 1.258 . S
C614 O616 1.263 . S
O615 Co612 1.970 . S
O615 C614 1.258 . S
O616 Co613 1.966 . S
O616 C614 1.263 . S
C617 O618 1.235 . S
C617 O644 1.289 . S
O618 C617 1.235 . S
C619 C621 1.400 . S
C619 N622 1.351 . S
C619 C624 1.501 . S
C620 C621 1.387 . S
C620 N623 1.341 . S
C621 C619 1.400 . S
C621 C620 1.387 . S
N622 Co613 2.022 . S
N622 C619 1.351 . S
N622 N623 1.365 . S
N623 C620 1.341 . S
N623 N622 1.365 . S
N623 H643 0.862 . S
C624 C619 1.501 . S
C624 H625 0.961 . S
C624 H626 0.961 . S
C624 H627 0.960 . S
H625 C624 0.961 . S
H626 C624 0.961 . S
H627 C624 0.960 . S
C628 N629 1.342 . S
C628 C632 1.401 . S
C628 C633 1.499 . S
N629 Co612 1.989 . S
N629 C628 1.342 . S
N629 N630 1.388 . S
N630 Co613 1.993 . S
N630 N629 1.388 . S
N630 C631 1.346 . S
C631 N630 1.346 . S
C631 C632 1.396 . S
C631 C641 1.510 . S
C632 C628 1.401 . S
C632 C631 1.396 . S
C633 C628 1.499 . S
C633 H634 0.959 . S
C633 H635 0.960 . S
C633 H636 0.961 . S
H634 C633 0.959 . S
H635 C633 0.960 . S
H636 C633 0.961 . S
O637 Co612 1.967 . S
O637 C645 1.258 . S
O638 Co613 1.941 . S
O638 C645 1.266 . S
H639 C641 0.959 . S
H640 C641 0.961 . S
C641 C631 1.510 . S
C641 H639 0.959 . S
C641 H640 0.961 . S
C641 H642 0.960 . S
H642 C641 0.960 . S
H643 N623 0.862 . S
O644 Co612 1.920 . S
O644 C617 1.289 . S
C645 O637 1.258 . S
C645 O638 1.266 . S
Co646 O649 1.970 . S
Co646 N663 1.989 . S
Co646 O671 1.967 . S
Co646 O678 1.920 . S
Co647 O650 1.966 . S
Co647 N656 2.022 . S
Co647 N664 1.993 . S
Co647 O672 1.941 . S
C648 O649 1.258 . S
C648 O650 1.263 . S
O649 Co646 1.970 . S
O649 C648 1.258 . S
O650 Co647 1.966 . S
O650 C648 1.263 . S
C651 O652 1.235 . S
C651 O678 1.289 . S
O652 C651 1.235 . S
C653 C655 1.400 . S
C653 N656 1.351 . S
C653 C658 1.501 . S
C654 C655 1.387 . S
C654 N657 1.341 . S
C655 C653 1.400 . S
C655 C654 1.387 . S
N656 Co647 2.022 . S
N656 C653 1.351 . S
N656 N657 1.365 . S
N657 C654 1.341 . S
N657 N656 1.365 . S
N657 H677 0.862 . S
C658 C653 1.501 . S
C658 H659 0.961 . S
C658 H660 0.961 . S
C658 H661 0.960 . S
H659 C658 0.961 . S
H660 C658 0.961 . S
H661 C658 0.960 . S
C662 N663 1.342 . S
C662 C666 1.401 . S
C662 C667 1.499 . S
N663 Co646 1.989 . S
N663 C662 1.342 . S
N663 N664 1.388 . S
N664 Co647 1.993 . S
N664 N663 1.388 . S
N664 C665 1.346 . S
C665 N664 1.346 . S
C665 C666 1.396 . S
C665 C675 1.510 . S
C666 C662 1.401 . S
C666 C665 1.396 . S
C667 C662 1.499 . S
C667 H668 0.959 . S
C667 H669 0.960 . S
C667 H670 0.961 . S
H668 C667 0.959 . S
H669 C667 0.960 . S
H670 C667 0.961 . S
O671 Co646 1.967 . S
O671 C679 1.258 . S
O672 Co647 1.941 . S
O672 C679 1.266 . S
H673 C675 0.959 . S
H674 C675 0.961 . S
C675 C665 1.510 . S
C675 H673 0.959 . S
C675 H674 0.961 . S
C675 H676 0.960 . S
H676 C675 0.960 . S
H677 N657 0.862 . S
O678 Co646 1.920 . S
O678 C651 1.289 . S
C679 O671 1.258 . S
C679 O672 1.266 . S
Co680 O683 1.970 . S
Co680 N697 1.989 . S
Co680 O705 1.967 . S
Co680 O712 1.920 . S
Co681 O684 1.966 . S
Co681 N690 2.022 . S
Co681 N698 1.993 . S
Co681 O706 1.941 . S
C682 O683 1.258 . S
C682 O684 1.263 . S
O683 Co680 1.970 . S
O683 C682 1.258 . S
O684 Co681 1.966 . S
O684 C682 1.263 . S
C685 O686 1.235 . S
C685 O712 1.289 . S
O686 C685 1.235 . S
C687 C689 1.400 . S
C687 N690 1.351 . S
C687 C692 1.501 . S
C688 C689 1.387 . S
C688 N691 1.341 . S
C689 C687 1.400 . S
C689 C688 1.387 . S
N690 Co681 2.022 . S
N690 C687 1.351 . S
N690 N691 1.365 . S
N691 C688 1.341 . S
N691 N690 1.365 . S
N691 H711 0.862 . S
C692 C687 1.501 . S
C692 H693 0.961 . S
C692 H694 0.961 . S
C692 H695 0.960 . S
H693 C692 0.961 . S
H694 C692 0.961 . S
H695 C692 0.960 . S
C696 N697 1.342 . S
C696 C700 1.401 . S
C696 C701 1.499 . S
N697 Co680 1.989 . S
N697 C696 1.342 . S
N697 N698 1.388 . S
N698 Co681 1.993 . S
N698 N697 1.388 . S
N698 C699 1.346 . S
C699 N698 1.346 . S
C699 C700 1.396 . S
C699 C709 1.510 . S
C700 C696 1.401 . S
C700 C699 1.396 . S
C701 C696 1.499 . S
C701 H702 0.959 . S
C701 H703 0.960 . S
C701 H704 0.961 . S
H702 C701 0.959 . S
H703 C701 0.960 . S
H704 C701 0.961 . S
O705 Co680 1.967 . S
O705 C713 1.258 . S
O706 Co681 1.941 . S
O706 C713 1.266 . S
H707 C709 0.959 . S
H708 C709 0.961 . S
C709 C699 1.510 . S
C709 H707 0.959 . S
C709 H708 0.961 . S
C709 H710 0.960 . S
H710 C709 0.960 . S
H711 N691 0.862 . S
O712 Co680 1.920 . S
O712 C685 1.289 . S
C713 O705 1.258 . S
C713 O706 1.266 . S
Co714 O717 1.970 . S
Co714 N731 1.989 . S
Co714 O739 1.967 . S
Co714 O746 1.920 . S
Co715 O718 1.966 . S
Co715 N724 2.022 1_556 S
Co715 N732 1.993 . S
Co715 O740 1.941 . S
C716 O717 1.258 . S
C716 O718 1.263 . S
O717 Co714 1.970 . S
O717 C716 1.258 . S
O718 Co715 1.966 . S
O718 C716 1.263 . S
C719 O720 1.235 . S
C719 O746 1.289 . S
O720 C719 1.235 . S
C721 C723 1.400 . S
C721 N724 1.351 . S
C721 C726 1.501 . S
C722 C723 1.387 . S
C722 N725 1.341 . S
C723 C721 1.400 . S
C723 C722 1.387 . S
N724 Co715 2.022 1_554 S
N724 C721 1.351 . S
N724 N725 1.365 . S
N725 C722 1.341 . S
N725 N724 1.365 . S
N725 H745 0.862 . S
C726 C721 1.501 . S
C726 H727 0.961 1_554 S
C726 H728 0.961 . S
C726 H729 0.960 1_545 S
H727 C726 0.961 1_556 S
H728 C726 0.961 . S
H729 C726 0.960 1_565 S
C730 N731 1.342 . S
C730 C734 1.401 . S
C730 C735 1.499 . S
N731 Co714 1.989 . S
N731 C730 1.342 . S
N731 N732 1.388 . S
N732 Co715 1.993 . S
N732 N731 1.388 . S
N732 C733 1.346 . S
C733 N732 1.346 . S
C733 C734 1.396 . S
C733 C743 1.510 . S
C734 C730 1.401 . S
C734 C733 1.396 . S
C735 C730 1.499 . S
C735 H736 0.959 . S
C735 H737 0.960 . S
C735 H738 0.961 . S
H736 C735 0.959 . S
H737 C735 0.960 . S
H738 C735 0.961 . S
O739 Co714 1.967 . S
O739 C747 1.258 . S
O740 Co715 1.941 . S
O740 C747 1.266 . S
H741 C743 0.959 . S
H742 C743 0.961 . S
C743 C733 1.510 . S
C743 H741 0.959 . S
C743 H742 0.961 . S
C743 H744 0.960 . S
H744 C743 0.960 . S
H745 N725 0.862 . S
O746 Co714 1.920 . S
O746 C719 1.289 . S
C747 O739 1.258 . S
C747 O740 1.266 . S
Co748 O751 1.970 . S
Co748 N765 1.989 . S
Co748 O773 1.967 . S
Co748 O780 1.920 . S
Co749 O752 1.966 . S
Co749 N758 2.022 1_556 S
Co749 N766 1.993 . S
Co749 O774 1.941 . S
C750 O751 1.258 . S
C750 O752 1.263 . S
O751 Co748 1.970 . S
O751 C750 1.258 . S
O752 Co749 1.966 . S
O752 C750 1.263 . S
C753 O754 1.235 . S
C753 O780 1.289 . S
O754 C753 1.235 . S
C755 C757 1.400 . S
C755 N758 1.351 . S
C755 C760 1.501 . S
C756 C757 1.387 . S
C756 N759 1.341 . S
C757 C755 1.400 . S
C757 C756 1.387 . S
N758 Co749 2.022 1_554 S
N758 C755 1.351 . S
N758 N759 1.365 . S
N759 C756 1.341 . S
N759 N758 1.365 . S
N759 H779 0.862 . S
C760 C755 1.501 . S
C760 H761 0.961 1_554 S
C760 H762 0.961 . S
C760 H763 0.960 1_655 S
H761 C760 0.961 1_556 S
H762 C760 0.961 . S
H763 C760 0.960 1_455 S
C764 N765 1.342 . S
C764 C768 1.401 . S
C764 C769 1.499 . S
N765 Co748 1.989 . S
N765 C764 1.342 . S
N765 N766 1.388 . S
N766 Co749 1.993 . S
N766 N765 1.388 . S
N766 C767 1.346 . S
C767 N766 1.346 . S
C767 C768 1.396 . S
C767 C777 1.510 . S
C768 C764 1.401 . S
C768 C767 1.396 . S
C769 C764 1.499 . S
C769 H770 0.959 . S
C769 H771 0.960 . S
C769 H772 0.961 . S
H770 C769 0.959 . S
H771 C769 0.960 . S
H772 C769 0.961 . S
O773 Co748 1.967 . S
O773 C781 1.258 . S
O774 Co749 1.941 . S
O774 C781 1.266 . S
H775 C777 0.959 . S
H776 C777 0.961 . S
C777 C767 1.510 . S
C777 H775 0.959 . S
C777 H776 0.961 . S
C777 H778 0.960 . S
H778 C777 0.960 . S
H779 N759 0.862 . S
O780 Co748 1.920 . S
O780 C753 1.289 . S
C781 O773 1.258 . S
C781 O774 1.266 . S
Co782 O785 1.970 . S
Co782 N799 1.989 . S
Co782 O807 1.967 . S
Co782 O814 1.920 . S
Co783 O786 1.966 . S
Co783 N792 2.022 1_556 S
Co783 N800 1.993 . S
Co783 O808 1.941 . S
C784 O785 1.258 . S
C784 O786 1.263 . S
O785 Co782 1.970 . S
O785 C784 1.258 . S
O786 Co783 1.966 . S
O786 C784 1.263 . S
C787 O788 1.235 . S
C787 O814 1.289 . S
O788 C787 1.235 . S
C789 C791 1.400 . S
C789 N792 1.351 . S
C789 C794 1.501 . S
C790 C791 1.387 . S
C790 N793 1.341 . S
C791 C789 1.400 . S
C791 C790 1.387 . S
N792 Co783 2.022 1_554 S
N792 C789 1.351 . S
N792 N793 1.365 . S
N793 C790 1.341 . S
N793 N792 1.365 . S
N793 H813 0.862 . S
C794 C789 1.501 . S
C794 H795 0.961 1_554 S
C794 H796 0.961 . S
C794 H797 0.960 . S
H795 C794 0.961 1_556 S
H796 C794 0.961 . S
H797 C794 0.960 . S
C798 N799 1.342 . S
C798 C802 1.401 . S
C798 C803 1.499 . S
N799 Co782 1.989 . S
N799 C798 1.342 . S
N799 N800 1.388 . S
N800 Co783 1.993 . S
N800 N799 1.388 . S
N800 C801 1.346 . S
C801 N800 1.346 . S
C801 C802 1.396 . S
C801 C811 1.510 . S
C802 C798 1.401 . S
C802 C801 1.396 . S
C803 C798 1.499 . S
C803 H804 0.959 . S
C803 H805 0.960 . S
C803 H806 0.961 . S
H804 C803 0.959 . S
H805 C803 0.960 . S
H806 C803 0.961 . S
O807 Co782 1.967 . S
O807 C815 1.258 . S
O808 Co783 1.941 . S
O808 C815 1.266 . S
H809 C811 0.959 . S
H810 C811 0.961 . S
C811 C801 1.510 . S
C811 H809 0.959 . S
C811 H810 0.961 . S
C811 H812 0.960 . S
H812 C811 0.960 . S
H813 N793 0.862 . S
O814 Co782 1.920 . S
O814 C787 1.289 . S
C815 O807 1.258 . S
C815 O808 1.266 . S
Co816 O819 1.970 . S
Co816 N833 1.989 . S
Co816 O841 1.967 . S
Co816 O848 1.920 . S
Co817 O820 1.966 . S
Co817 N826 2.022 . S
Co817 N834 1.993 . S
Co817 O842 1.941 . S
C818 O819 1.258 . S
C818 O820 1.263 . S
O819 Co816 1.970 . S
O819 C818 1.258 . S
O820 Co817 1.966 . S
O820 C818 1.263 . S
C821 O822 1.235 . S
C821 O848 1.289 . S
O822 C821 1.235 . S
C823 C825 1.400 . S
C823 N826 1.351 . S
C823 C828 1.501 . S
C824 C825 1.387 . S
C824 N827 1.341 . S
C825 C823 1.400 . S
C825 C824 1.387 . S
N826 Co817 2.022 . S
N826 C823 1.351 . S
N826 N827 1.365 . S
N827 C824 1.341 . S
N827 N826 1.365 . S
N827 H847 0.862 . S
C828 C823 1.501 . S
C828 H829 0.961 . S
C828 H830 0.961 . S
C828 H831 0.960 . S
H829 C828 0.961 . S
H830 C828 0.961 . S
H831 C828 0.960 . S
C832 N833 1.342 . S
C832 C836 1.401 . S
C832 C837 1.499 . S
N833 Co816 1.989 . S
N833 C832 1.342 . S
N833 N834 1.388 . S
N834 Co817 1.993 . S
N834 N833 1.388 . S
N834 C835 1.346 . S
C835 N834 1.346 . S
C835 C836 1.396 . S
C835 C845 1.510 . S
C836 C832 1.401 . S
C836 C835 1.396 . S
C837 C832 1.499 . S
C837 H838 0.959 . S
C837 H839 0.960 . S
C837 H840 0.961 . S
H838 C837 0.959 . S
H839 C837 0.960 . S
H840 C837 0.961 . S
O841 Co816 1.967 . S
O841 C849 1.258 . S
O842 Co817 1.941 . S
O842 C849 1.266 . S
H843 C845 0.959 . S
H844 C845 0.961 . S
C845 C835 1.510 . S
C845 H843 0.959 . S
C845 H844 0.961 . S
C845 H846 0.960 . S
H846 C845 0.960 . S
H847 N827 0.862 . S
O848 Co816 1.920 . S
O848 C821 1.289 . S
C849 O841 1.258 . S
C849 O842 1.266 . S
Co850 O853 1.970 . S
Co850 N867 1.989 . S
Co850 O875 1.967 . S
Co850 O882 1.920 . S
Co851 O854 1.966 . S
Co851 N860 2.022 . S
Co851 N868 1.993 . S
Co851 O876 1.941 . S
C852 O853 1.258 . S
C852 O854 1.263 . S
O853 Co850 1.970 . S
O853 C852 1.258 . S
O854 Co851 1.966 . S
O854 C852 1.263 . S
C855 O856 1.235 . S
C855 O882 1.289 . S
O856 C855 1.235 . S
C857 C859 1.400 . S
C857 N860 1.351 . S
C857 C862 1.501 . S
C858 C859 1.387 . S
C858 N861 1.341 . S
C859 C857 1.400 . S
C859 C858 1.387 . S
N860 Co851 2.022 . S
N860 C857 1.351 . S
N860 N861 1.365 . S
N861 C858 1.341 . S
N861 N860 1.365 . S
N861 H881 0.862 . S
C862 C857 1.501 . S
C862 H863 0.961 . S
C862 H864 0.961 . S
C862 H865 0.960 . S
H863 C862 0.961 . S
H864 C862 0.961 . S
H865 C862 0.960 . S
C866 N867 1.342 . S
C866 C870 1.401 . S
C866 C871 1.499 . S
N867 Co850 1.989 . S
N867 C866 1.342 . S
N867 N868 1.388 . S
N868 Co851 1.993 . S
N868 N867 1.388 . S
N868 C869 1.346 . S
C869 N868 1.346 . S
C869 C870 1.396 . S
C869 C879 1.510 . S
C870 C866 1.401 . S
C870 C869 1.396 . S
C871 C866 1.499 . S
C871 H872 0.959 . S
C871 H873 0.960 . S
C871 H874 0.961 . S
H872 C871 0.959 . S
H873 C871 0.960 . S
H874 C871 0.961 . S
O875 Co850 1.967 . S
O875 C883 1.258 . S
O876 Co851 1.941 . S
O876 C883 1.266 . S
H877 C879 0.959 . S
H878 C879 0.961 . S
C879 C869 1.510 . S
C879 H877 0.959 . S
C879 H878 0.961 . S
C879 H880 0.960 . S
H880 C879 0.960 . S
H881 N861 0.862 . S
O882 Co850 1.920 . S
O882 C855 1.289 . S
C883 O875 1.258 . S
C883 O876 1.266 . S
Co884 O887 1.970 . S
Co884 N901 1.989 . S
Co884 O909 1.967 . S
Co884 O916 1.920 . S
Co885 O888 1.966 . S
Co885 N894 2.022 . S
Co885 N902 1.993 . S
Co885 O910 1.941 . S
C886 O887 1.258 . S
C886 O888 1.263 . S
O887 Co884 1.970 . S
O887 C886 1.258 . S
O888 Co885 1.966 . S
O888 C886 1.263 . S
C889 O890 1.235 . S
C889 O916 1.289 . S
O890 C889 1.235 . S
C891 C893 1.400 . S
C891 N894 1.351 . S
C891 C896 1.501 . S
C892 C893 1.387 . S
C892 N895 1.341 . S
C893 C891 1.400 . S
C893 C892 1.387 . S
N894 Co885 2.022 . S
N894 C891 1.351 . S
N894 N895 1.365 . S
N895 C892 1.341 . S
N895 N894 1.365 . S
N895 H915 0.862 . S
C896 C891 1.501 . S
C896 H897 0.961 . S
C896 H898 0.961 . S
C896 H899 0.960 . S
H897 C896 0.961 . S
H898 C896 0.961 . S
H899 C896 0.960 . S
C900 N901 1.342 . S
C900 C904 1.401 . S
C900 C905 1.499 . S
N901 Co884 1.989 . S
N901 C900 1.342 . S
N901 N902 1.388 . S
N902 Co885 1.993 . S
N902 N901 1.388 . S
N902 C903 1.346 . S
C903 N902 1.346 . S
C903 C904 1.396 . S
C903 C913 1.510 . S
C904 C900 1.401 . S
C904 C903 1.396 . S
C905 C900 1.499 . S
C905 H906 0.959 . S
C905 H907 0.960 . S
C905 H908 0.961 . S
H906 C905 0.959 . S
H907 C905 0.960 . S
H908 C905 0.961 . S
O909 Co884 1.967 . S
O909 C917 1.258 . S
O910 Co885 1.941 . S
O910 C917 1.266 . S
H911 C913 0.959 . S
H912 C913 0.961 . S
C913 C903 1.510 . S
C913 H911 0.959 . S
C913 H912 0.961 . S
C913 H914 0.960 . S
H914 C913 0.960 . S
H915 N895 0.862 . S
O916 Co884 1.920 . S
O916 C889 1.289 . S
C917 O909 1.258 . S
C917 O910 1.266 . S
Co918 O921 1.970 . S
Co918 N935 1.989 . S
Co918 O943 1.967 . S
Co918 O950 1.920 . S
Co919 O922 1.966 . S
Co919 N928 2.022 . S
Co919 N936 1.993 . S
Co919 O944 1.941 . S
C920 O921 1.258 . S
C920 O922 1.263 . S
O921 Co918 1.970 . S
O921 C920 1.258 . S
O922 Co919 1.966 . S
O922 C920 1.263 . S
C923 O924 1.235 . S
C923 O950 1.289 . S
O924 C923 1.235 . S
C925 C927 1.400 1_554 S
C925 N928 1.351 . S
C925 C930 1.501 . S
C926 C927 1.387 . S
C926 N929 1.341 1_556 S
C927 C925 1.400 1_556 S
C927 C926 1.387 . S
N928 Co919 2.022 . S
N928 C925 1.351 . S
N928 N929 1.365 . S
N929 C926 1.341 1_554 S
N929 N928 1.365 . S
N929 H949 0.862 . S
C930 C925 1.501 . S
C930 H931 0.961 . S
C930 H932 0.961 . S
C930 H933 0.960 1_565 S
H931 C930 0.961 . S
H932 C930 0.961 . S
H933 C930 0.960 1_545 S
C934 N935 1.342 . S
C934 C938 1.401 . S
C934 C939 1.499 . S
N935 Co918 1.989 . S
N935 C934 1.342 . S
N935 N936 1.388 . S
N936 Co919 1.993 . S
N936 N935 1.388 . S
N936 C937 1.346 . S
C937 N936 1.346 . S
C937 C938 1.396 . S
C937 C947 1.510 . S
C938 C934 1.401 . S
C938 C937 1.396 . S
C939 C934 1.499 . S
C939 H940 0.959 . S
C939 H941 0.960 . S
C939 H942 0.961 . S
H940 C939 0.959 . S
H941 C939 0.960 . S
H942 C939 0.961 . S
O943 Co918 1.967 . S
O943 C951 1.258 . S
O944 Co919 1.941 . S
O944 C951 1.266 . S
H945 C947 0.959 . S
H946 C947 0.961 . S
C947 C937 1.510 . S
C947 H945 0.959 . S
C947 H946 0.961 . S
C947 H948 0.960 . S
H948 C947 0.960 . S
H949 N929 0.862 . S
O950 Co918 1.920 . S
O950 C923 1.289 . S
C951 O943 1.258 . S
C951 O944 1.266 . S
Co952 O955 1.970 . S
Co952 N969 1.989 . S
Co952 O977 1.967 . S
Co952 O984 1.920 . S
Co953 O956 1.966 . S
Co953 N962 2.022 . S
Co953 N970 1.993 . S
Co953 O978 1.941 . S
C954 O955 1.258 . S
C954 O956 1.263 . S
O955 Co952 1.970 . S
O955 C954 1.258 . S
O956 Co953 1.966 . S
O956 C954 1.263 . S
C957 O958 1.235 . S
C957 O984 1.289 . S
O958 C957 1.235 . S
C959 C961 1.400 1_554 S
C959 N962 1.351 . S
C959 C964 1.501 . S
C960 C961 1.387 . S
C960 N963 1.341 1_556 S
C961 C959 1.400 1_556 S
C961 C960 1.387 . S
N962 Co953 2.022 . S
N962 C959 1.351 . S
N962 N963 1.365 . S
N963 C960 1.341 1_554 S
N963 N962 1.365 . S
N963 H983 0.862 . S
C964 C959 1.501 . S
C964 H965 0.961 . S
C964 H966 0.961 . S
C964 H967 0.960 1_455 S
H965 C964 0.961 . S
H966 C964 0.961 . S
H967 C964 0.960 1_655 S
C968 N969 1.342 . S
C968 C972 1.401 . S
C968 C973 1.499 . S
N969 Co952 1.989 . S
N969 C968 1.342 . S
N969 N970 1.388 . S
N970 Co953 1.993 . S
N970 N969 1.388 . S
N970 C971 1.346 . S
C971 N970 1.346 . S
C971 C972 1.396 . S
C971 C981 1.510 . S
C972 C968 1.401 . S
C972 C971 1.396 . S
C973 C968 1.499 . S
C973 H974 0.959 . S
C973 H975 0.960 . S
C973 H976 0.961 . S
H974 C973 0.959 . S
H975 C973 0.960 . S
H976 C973 0.961 . S
O977 Co952 1.967 . S
O977 C985 1.258 . S
O978 Co953 1.941 . S
O978 C985 1.266 . S
H979 C981 0.959 . S
H980 C981 0.961 . S
C981 C971 1.510 . S
C981 H979 0.959 . S
C981 H980 0.961 . S
C981 H982 0.960 . S
H982 C981 0.960 . S
H983 N963 0.862 . S
O984 Co952 1.920 . S
O984 C957 1.289 . S
C985 O977 1.258 . S
C985 O978 1.266 . S
Co986 O989 1.970 . S
Co986 N1003 1.989 . S
Co986 O1011 1.967 . S
Co986 O1018 1.920 . S
Co987 O990 1.966 . S
Co987 N996 2.022 . S
Co987 N1004 1.993 . S
Co987 O1012 1.941 . S
C988 O989 1.258 . S
C988 O990 1.263 . S
O989 Co986 1.970 . S
O989 C988 1.258 . S
O990 Co987 1.966 . S
O990 C988 1.263 . S
C991 O992 1.235 . S
C991 O1018 1.289 . S
O992 C991 1.235 . S
C993 C995 1.400 1_554 S
C993 N996 1.351 . S
C993 C998 1.501 . S
C994 C995 1.387 . S
C994 N997 1.341 1_556 S
C995 C993 1.400 1_556 S
C995 C994 1.387 . S
N996 Co987 2.022 . S
N996 C993 1.351 . S
N996 N997 1.365 . S
N997 C994 1.341 1_554 S
N997 N996 1.365 . S
N997 H1017 0.862 . S
C998 C993 1.501 . S
C998 H999 0.961 . S
C998 H1000 0.961 . S
C998 H1001 0.960 . S
H999 C998 0.961 . S
H1000 C998 0.961 . S
H1001 C998 0.960 . S
C1002 N1003 1.342 . S
C1002 C1006 1.401 . S
C1002 C1007 1.499 . S
N1003 Co986 1.989 . S
N1003 C1002 1.342 . S
N1003 N1004 1.388 . S
N1004 Co987 1.993 . S
N1004 N1003 1.388 . S
N1004 C1005 1.346 . S
C1005 N1004 1.346 . S
C1005 C1006 1.396 . S
C1005 C1015 1.510 . S
C1006 C1002 1.401 . S
C1006 C1005 1.396 . S
C1007 C1002 1.499 . S
C1007 H1008 0.959 . S
C1007 H1009 0.960 . S
C1007 H1010 0.961 . S
H1008 C1007 0.959 . S
H1009 C1007 0.960 . S
H1010 C1007 0.961 . S
O1011 Co986 1.967 . S
O1011 C1019 1.258 . S
O1012 Co987 1.941 . S
O1012 C1019 1.266 . S
H1013 C1015 0.959 . S
H1014 C1015 0.961 . S
C1015 C1005 1.510 . S
C1015 H1013 0.959 . S
C1015 H1014 0.961 . S
C1015 H1016 0.960 . S
H1016 C1015 0.960 . S
H1017 N997 0.862 . S
O1018 Co986 1.920 . S
O1018 C991 1.289 . S
C1019 O1011 1.258 . S
C1019 O1012 1.266 . S
Co1020 O1023 1.970 . S
Co1020 N1037 1.989 . S
Co1020 O1045 1.967 . S
Co1020 O1052 1.920 . S
Co1021 O1024 1.966 . S
Co1021 N1030 2.022 . S
Co1021 N1038 1.993 . S
Co1021 O1046 1.941 . S
C1022 O1023 1.258 . S
C1022 O1024 1.263 . S
O1023 Co1020 1.970 . S
O1023 C1022 1.258 . S
O1024 Co1021 1.966 . S
O1024 C1022 1.263 . S
C1025 O1026 1.235 . S
C1025 O1052 1.289 . S
O1026 C1025 1.235 . S
C1027 C1029 1.400 . S
C1027 N1030 1.351 . S
C1027 C1032 1.501 . S
C1028 C1029 1.387 . S
C1028 N1031 1.341 . S
C1029 C1027 1.400 . S
C1029 C1028 1.387 . S
N1030 Co1021 2.022 . S
N1030 C1027 1.351 . S
N1030 N1031 1.365 . S
N1031 C1028 1.341 . S
N1031 N1030 1.365 . S
N1031 H1051 0.862 . S
C1032 C1027 1.501 . S
C1032 H1033 0.961 . S
C1032 H1034 0.961 . S
C1032 H1035 0.960 1_455 S
H1033 C1032 0.961 . S
H1034 C1032 0.961 . S
H1035 C1032 0.960 1_655 S
C1036 N1037 1.342 . S
C1036 C1040 1.401 . S
C1036 C1041 1.499 . S
N1037 Co1020 1.989 . S
N1037 C1036 1.342 . S
N1037 N1038 1.388 . S
N1038 Co1021 1.993 . S
N1038 N1037 1.388 . S
N1038 C1039 1.346 . S
C1039 N1038 1.346 . S
C1039 C1040 1.396 . S
C1039 C1049 1.510 . S
C1040 C1036 1.401 . S
C1040 C1039 1.396 . S
C1041 C1036 1.499 . S
C1041 H1042 0.959 . S
C1041 H1043 0.960 . S
C1041 H1044 0.961 . S
H1042 C1041 0.959 . S
H1043 C1041 0.960 . S
H1044 C1041 0.961 . S
O1045 Co1020 1.967 . S
O1045 C1053 1.258 . S
O1046 Co1021 1.941 . S
O1046 C1053 1.266 . S
H1047 C1049 0.959 . S
H1048 C1049 0.961 . S
C1049 C1039 1.510 . S
C1049 H1047 0.959 . S
C1049 H1048 0.961 . S
C1049 H1050 0.960 . S
H1050 C1049 0.960 . S
H1051 N1031 0.862 . S
O1052 Co1020 1.920 . S
O1052 C1025 1.289 . S
C1053 O1045 1.258 . S
C1053 O1046 1.266 . S
Co1054 O1057 1.970 . S
Co1054 N1071 1.989 . S
Co1054 O1079 1.967 . S
Co1054 O1086 1.920 . S
Co1055 O1058 1.966 . S
Co1055 N1064 2.022 . S
Co1055 N1072 1.993 . S
Co1055 O1080 1.941 . S
C1056 O1057 1.258 . S
C1056 O1058 1.263 . S
O1057 Co1054 1.970 . S
O1057 C1056 1.258 . S
O1058 Co1055 1.966 . S
O1058 C1056 1.263 . S
C1059 O1060 1.235 . S
C1059 O1086 1.289 . S
O1060 C1059 1.235 . S
C1061 C1063 1.400 . S
C1061 N1064 1.351 . S
C1061 C1066 1.501 . S
C1062 C1063 1.387 . S
C1062 N1065 1.341 . S
C1063 C1061 1.400 . S
C1063 C1062 1.387 . S
N1064 Co1055 2.022 . S
N1064 C1061 1.351 . S
N1064 N1065 1.365 . S
N1065 C1062 1.341 . S
N1065 N1064 1.365 . S
N1065 H1085 0.862 . S
C1066 C1061 1.501 . S
C1066 H1067 0.961 . S
C1066 H1068 0.961 . S
C1066 H1069 0.960 . S
H1067 C1066 0.961 . S
H1068 C1066 0.961 . S
H1069 C1066 0.960 . S
C1070 N1071 1.342 . S
C1070 C1074 1.401 . S
C1070 C1075 1.499 . S
N1071 Co1054 1.989 . S
N1071 C1070 1.342 . S
N1071 N1072 1.388 . S
N1072 Co1055 1.993 . S
N1072 N1071 1.388 . S
N1072 C1073 1.346 . S
C1073 N1072 1.346 . S
C1073 C1074 1.396 . S
C1073 C1083 1.510 . S
C1074 C1070 1.401 . S
C1074 C1073 1.396 . S
C1075 C1070 1.499 . S
C1075 H1076 0.959 . S
C1075 H1077 0.960 . S
C1075 H1078 0.961 . S
H1076 C1075 0.959 . S
H1077 C1075 0.960 . S
H1078 C1075 0.961 . S
O1079 Co1054 1.967 . S
O1079 C1087 1.258 . S
O1080 Co1055 1.941 . S
O1080 C1087 1.266 . S
H1081 C1083 0.959 . S
H1082 C1083 0.961 . S
C1083 C1073 1.510 . S
C1083 H1081 0.959 . S
C1083 H1082 0.961 . S
C1083 H1084 0.960 . S
H1084 C1083 0.960 . S
H1085 N1065 0.862 . S
O1086 Co1054 1.920 . S
O1086 C1059 1.289 . S
C1087 O1079 1.258 . S
C1087 O1080 1.266 . S
Co1088 O1091 1.970 . S
Co1088 N1105 1.989 . S
Co1088 O1113 1.967 . S
Co1088 O1120 1.920 . S
Co1089 O1092 1.966 . S
Co1089 N1098 2.022 . S
Co1089 N1106 1.993 . S
Co1089 O1114 1.941 . S
C1090 O1091 1.258 . S
C1090 O1092 1.263 . S
O1091 Co1088 1.970 . S
O1091 C1090 1.258 . S
O1092 Co1089 1.966 . S
O1092 C1090 1.263 . S
C1093 O1094 1.235 . S
C1093 O1120 1.289 . S
O1094 C1093 1.235 . S
C1095 C1097 1.400 . S
C1095 N1098 1.351 . S
C1095 C1100 1.501 . S
C1096 C1097 1.387 . S
C1096 N1099 1.341 . S
C1097 C1095 1.400 . S
C1097 C1096 1.387 . S
N1098 Co1089 2.022 . S
N1098 C1095 1.351 . S
N1098 N1099 1.365 . S
N1099 C1096 1.341 . S
N1099 N1098 1.365 . S
N1099 H1119 0.862 . S
C1100 C1095 1.501 . S
C1100 H1101 0.961 . S
C1100 H1102 0.961 . S
C1100 H1103 0.960 1_565 S
H1101 C1100 0.961 . S
H1102 C1100 0.961 . S
H1103 C1100 0.960 1_545 S
C1104 N1105 1.342 . S
C1104 C1108 1.401 . S
C1104 C1109 1.499 . S
N1105 Co1088 1.989 . S
N1105 C1104 1.342 . S
N1105 N1106 1.388 . S
N1106 Co1089 1.993 . S
N1106 N1105 1.388 . S
N1106 C1107 1.346 . S
C1107 N1106 1.346 . S
C1107 C1108 1.396 . S
C1107 C1117 1.510 . S
C1108 C1104 1.401 . S
C1108 C1107 1.396 . S
C1109 C1104 1.499 . S
C1109 H1110 0.959 . S
C1109 H1111 0.960 . S
C1109 H1112 0.961 . S
H1110 C1109 0.959 . S
H1111 C1109 0.960 . S
H1112 C1109 0.961 . S
O1113 Co1088 1.967 . S
O1113 C1121 1.258 . S
O1114 Co1089 1.941 . S
O1114 C1121 1.266 . S
H1115 C1117 0.959 . S
H1116 C1117 0.961 . S
C1117 C1107 1.510 . S
C1117 H1115 0.959 . S
C1117 H1116 0.961 . S
C1117 H1118 0.960 . S
H1118 C1117 0.960 . S
H1119 N1099 0.862 . S
O1120 Co1088 1.920 . S
O1120 C1093 1.289 . S
C1121 O1113 1.258 . S
C1121 O1114 1.266 . S
Co1122 O1125 1.970 . S
Co1122 N1139 1.989 . S
Co1122 O1147 1.967 . S
Co1122 O1154 1.920 . S
Co1123 O1126 1.966 . S
Co1123 N1132 2.022 . S
Co1123 N1140 1.993 . S
Co1123 O1148 1.941 . S
C1124 O1125 1.258 . S
C1124 O1126 1.263 . S
O1125 Co1122 1.970 . S
O1125 C1124 1.258 . S
O1126 Co1123 1.966 . S
O1126 C1124 1.263 . S
C1127 O1128 1.235 . S
C1127 O1154 1.289 1_556 S
O1128 C1127 1.235 . S
C1129 C1131 1.400 . S
C1129 N1132 1.351 . S
C1129 C1134 1.501 . S
C1130 C1131 1.387 . S
C1130 N1133 1.341 . S
C1131 C1129 1.400 . S
C1131 C1130 1.387 . S
N1132 Co1123 2.022 . S
N1132 C1129 1.351 . S
N1132 N1133 1.365 . S
N1133 C1130 1.341 . S
N1133 N1132 1.365 . S
N1133 H1153 0.862 . S
C1134 C1129 1.501 . S
C1134 H1135 0.961 . S
C1134 H1136 0.961 . S
C1134 H1137 0.960 . S
H1135 C1134 0.961 . S
H1136 C1134 0.961 . S
H1137 C1134 0.960 . S
C1138 N1139 1.342 . S
C1138 C1142 1.401 . S
C1138 C1143 1.499 . S
N1139 Co1122 1.989 . S
N1139 C1138 1.342 . S
N1139 N1140 1.388 . S
N1140 Co1123 1.993 . S
N1140 N1139 1.388 . S
N1140 C1141 1.346 . S
C1141 N1140 1.346 . S
C1141 C1142 1.396 . S
C1141 C1151 1.510 . S
C1142 C1138 1.401 . S
C1142 C1141 1.396 . S
C1143 C1138 1.499 . S
C1143 H1144 0.959 . S
C1143 H1145 0.960 . S
C1143 H1146 0.961 . S
H1144 C1143 0.959 . S
H1145 C1143 0.960 . S
H1146 C1143 0.961 . S
O1147 Co1122 1.967 . S
O1147 C1155 1.258 . S
O1148 Co1123 1.941 . S
O1148 C1155 1.266 . S
H1149 C1151 0.959 . S
H1150 C1151 0.961 . S
C1151 C1141 1.510 . S
C1151 H1149 0.959 . S
C1151 H1150 0.961 . S
C1151 H1152 0.960 . S
H1152 C1151 0.960 . S
H1153 N1133 0.862 . S
O1154 Co1122 1.920 . S
O1154 C1127 1.289 1_554 S
C1155 O1147 1.258 . S
C1155 O1148 1.266 . S
Co1156 O1159 1.970 . S
Co1156 N1173 1.989 . S
Co1156 O1181 1.967 . S
Co1156 O1188 1.920 . S
Co1157 O1160 1.966 . S
Co1157 N1166 2.022 . S
Co1157 N1174 1.993 . S
Co1157 O1182 1.941 . S
C1158 O1159 1.258 . S
C1158 O1160 1.263 . S
O1159 Co1156 1.970 . S
O1159 C1158 1.258 . S
O1160 Co1157 1.966 . S
O1160 C1158 1.263 . S
C1161 O1162 1.235 . S
C1161 O1188 1.289 1_556 S
O1162 C1161 1.235 . S
C1163 C1165 1.400 . S
C1163 N1166 1.351 . S
C1163 C1168 1.501 . S
C1164 C1165 1.387 . S
C1164 N1167 1.341 . S
C1165 C1163 1.400 . S
C1165 C1164 1.387 . S
N1166 Co1157 2.022 . S
N1166 C1163 1.351 . S
N1166 N1167 1.365 . S
N1167 C1164 1.341 . S
N1167 N1166 1.365 . S
N1167 H1187 0.862 . S
C1168 C1163 1.501 . S
C1168 H1169 0.961 . S
C1168 H1170 0.961 . S
C1168 H1171 0.960 . S
H1169 C1168 0.961 . S
H1170 C1168 0.961 . S
H1171 C1168 0.960 . S
C1172 N1173 1.342 . S
C1172 C1176 1.401 . S
C1172 C1177 1.499 . S
N1173 Co1156 1.989 . S
N1173 C1172 1.342 . S
N1173 N1174 1.388 . S
N1174 Co1157 1.993 . S
N1174 N1173 1.388 . S
N1174 C1175 1.346 . S
C1175 N1174 1.346 . S
C1175 C1176 1.396 . S
C1175 C1185 1.510 . S
C1176 C1172 1.401 . S
C1176 C1175 1.396 . S
C1177 C1172 1.499 . S
C1177 H1178 0.959 . S
C1177 H1179 0.960 . S
C1177 H1180 0.961 . S
H1178 C1177 0.959 . S
H1179 C1177 0.960 . S
H1180 C1177 0.961 . S
O1181 Co1156 1.967 . S
O1181 C1189 1.258 . S
O1182 Co1157 1.941 . S
O1182 C1189 1.266 . S
H1183 C1185 0.959 . S
H1184 C1185 0.961 . S
C1185 C1175 1.510 . S
C1185 H1183 0.959 . S
C1185 H1184 0.961 . S
C1185 H1186 0.960 . S
H1186 C1185 0.960 . S
H1187 N1167 0.862 . S
O1188 Co1156 1.920 . S
O1188 C1161 1.289 1_554 S
C1189 O1181 1.258 . S
C1189 O1182 1.266 . S
Co1190 O1193 1.970 . S
Co1190 N1207 1.989 . S
Co1190 O1215 1.967 . S
Co1190 O1222 1.920 . S
Co1191 O1194 1.966 . S
Co1191 N1200 2.022 . S
Co1191 N1208 1.993 . S
Co1191 O1216 1.941 . S
C1192 O1193 1.258 . S
C1192 O1194 1.263 . S
O1193 Co1190 1.970 . S
O1193 C1192 1.258 . S
O1194 Co1191 1.966 . S
O1194 C1192 1.263 . S
C1195 O1196 1.235 . S
C1195 O1222 1.289 1_556 S
O1196 C1195 1.235 . S
C1197 C1199 1.400 . S
C1197 N1200 1.351 . S
C1197 C1202 1.501 . S
C1198 C1199 1.387 . S
C1198 N1201 1.341 . S
C1199 C1197 1.400 . S
C1199 C1198 1.387 . S
N1200 Co1191 2.022 . S
N1200 C1197 1.351 . S
N1200 N1201 1.365 . S
N1201 C1198 1.341 . S
N1201 N1200 1.365 . S
N1201 H1221 0.862 . S
C1202 C1197 1.501 . S
C1202 H1203 0.961 . S
C1202 H1204 0.961 . S
C1202 H1205 0.960 . S
H1203 C1202 0.961 . S
H1204 C1202 0.961 . S
H1205 C1202 0.960 . S
C1206 N1207 1.342 . S
C1206 C1210 1.401 . S
C1206 C1211 1.499 . S
N1207 Co1190 1.989 . S
N1207 C1206 1.342 . S
N1207 N1208 1.388 . S
N1208 Co1191 1.993 . S
N1208 N1207 1.388 . S
N1208 C1209 1.346 . S
C1209 N1208 1.346 . S
C1209 C1210 1.396 . S
C1209 C1219 1.510 . S
C1210 C1206 1.401 . S
C1210 C1209 1.396 . S
C1211 C1206 1.499 . S
C1211 H1212 0.959 . S
C1211 H1213 0.960 . S
C1211 H1214 0.961 . S
H1212 C1211 0.959 . S
H1213 C1211 0.960 . S
H1214 C1211 0.961 . S
O1215 Co1190 1.967 . S
O1215 C1223 1.258 . S
O1216 Co1191 1.941 . S
O1216 C1223 1.266 . S
H1217 C1219 0.959 . S
H1218 C1219 0.961 . S
C1219 C1209 1.510 . S
C1219 H1217 0.959 . S
C1219 H1218 0.961 . S
C1219 H1220 0.960 . S
H1220 C1219 0.960 . S
H1221 N1201 0.862 . S
O1222 Co1190 1.920 . S
O1222 C1195 1.289 1_554 S
C1223 O1215 1.258 . S
C1223 O1216 1.266 . S
C546 C2 2.033 . S
C580 C36 2.033 . S
C512 C70 2.033 . S
C104 C886 2.033 . S
C818 C138 2.033 . S
C852 C172 2.033 . S
C206 C1158 2.033 . S
C1192 C240 2.033 . S
C274 C1124 2.033 . S
C682 C308 2.033 . S
C342 C614 2.033 . S
C648 C376 2.033 . S
C410 C954 2.033 1_655 S
C988 C444 2.033 . S
C920 C478 2.033 1_565 S
C1090 C716 2.033 1_565 S
C750 C1022 2.033 1_655 S
C1056 C784 2.033 . S
C111 C9 1.070 . S
C145 C43 1.070 1_565 S
C77 C179 1.070 1_655 S
C315 C213 1.070 . S
C247 C349 1.070 1_565 S
C383 C281 1.070 1_655 S
C417 C519 1.070 . S
C451 C553 1.070 . S
C587 C485 1.070 . S
C723 C621 1.070 . S
C757 C655 1.070 . S
C791 C689 1.070 . S
C825 C927 1.070 . S
C961 C859 1.070 . S
C893 C995 1.070 . S
C1029 C1131 1.070 . S
C1063 C1165 1.070 . S
C1199 C1097 1.070 . S
C33 C258 1.672 . S
C292 C67 1.672 . S
C224 C101 1.672 . S
C135 C394 1.672 . S
C326 C169 1.672 . S
C360 C203 1.672 . S
C237 C54 1.672 . S
C88 C271 1.672 . S
C20 C305 1.672 . S
C190 C339 1.672 . S
C122 C373 1.672 . S
C407 C156 1.672 . S
C441 C666 1.672 . S
C475 C700 1.672 . S
C509 C632 1.672 . S
C802 C543 1.672 . S
C577 C734 1.672 . S
C611 C768 1.672 . S
C645 C462 1.672 . S
C496 C679 1.672 . S
C713 C428 1.672 . S
C747 C598 1.672 . S
C781 C530 1.672 . S
C815 C564 1.672 . S
C849 C1074 1.672 . S
C1108 C883 1.672 . S
C917 C1040 1.672 . S
C951 C1210 1.672 . S
C985 C1142 1.672 . S
C1019 C1176 1.672 . S
C870 C1053 1.672 . S
C904 C1087 1.672 . S
C836 C1121 1.672 . S
C1006 C1155 1.672 . S
C1189 C938 1.672 . S
C1223 C972 1.672 . S
C107 C5 1.239 . S
C39 C141 1.239 1_565 S
C175 C73 1.239 1_655 S
C311 C209 1.239 . S
C345 C243 1.239 1_565 S
C277 C379 1.239 1_655 S
C515 C413 1.239 . S
C447 C549 1.239 . S
C583 C481 1.239 . S
C719 C617 1.239 . S
C753 C651 1.239 . S
C685 C787 1.239 . S
C923 C821 1.239 . S
C855 C957 1.239 . S
C991 C889 1.239 . S
C1025 C1127 1.239 . S
C1059 C1161 1.239 . S
C1093 C1195 1.239 . S
