# Generated by pormake.
# Topology yfq, (5)-cn, num edge types: 1
# Building blocks:
#     Node 0, Type 0, BuildingBlock: BEQFEK_clean_sbu_0, # of connection points: 5
#     Node 1, Type 0, BuildingBlock: BEQFEK_clean_sbu_0, # of connection points: 5
#     Node 2, Type 0, BuildingBlock: BEQFEK_clean_sbu_0, # of connection points: 5
#     Node 3, Type 0, BuildingBlock: BEQFEK_clean_sbu_0, # of connection points: 5
#     Node 4, Type 0, BuildingBlock: BEQFEK_clean_sbu_0, # of connection points: 5
#     Node 5, Type 0, BuildingBlock: BEQFEK_clean_sbu_0, # of connection points: 5
#     Node 6, Type 0, BuildingBlock: BEQFEK_clean_sbu_0, # of connection points: 5
#     Node 7, Type 0, BuildingBlock: BEQFEK_clean_sbu_0, # of connection points: 5
#     Node 8, Type 0, BuildingBlock: BEQFEK_clean_sbu_0, # of connection points: 5
#     Node 9, Type 0, BuildingBlock: BEQFEK_clean_sbu_0, # of connection points: 5
#     Node 10, Type 0, BuildingBlock: BEQFEK_clean_sbu_0, # of connection points: 5
#     Node 11, Type 0, BuildingBlock: BEQFEK_clean_sbu_0, # of connection points: 5
#     Node 12, Type 0, BuildingBlock: BEQFEK_clean_sbu_0, # of connection points: 5
#     Node 13, Type 0, BuildingBlock: BEQFEK_clean_sbu_0, # of connection points: 5
#     Node 14, Type 0, BuildingBlock: BEQFEK_clean_sbu_0, # of connection points: 5
#     Node 15, Type 0, BuildingBlock: BEQFEK_clean_sbu_0, # of connection points: 5
#     Node 16, Type 0, BuildingBlock: BEQFEK_clean_sbu_0, # of connection points: 5
#     Node 17, Type 0, BuildingBlock: BEQFEK_clean_sbu_0, # of connection points: 5
#     Node 18, Type 0, BuildingBlock: BEQFEK_clean_sbu_0, # of connection points: 5
#     Node 19, Type 0, BuildingBlock: BEQFEK_clean_sbu_0, # of connection points: 5
#     Node 20, Type 0, BuildingBlock: BEQFEK_clean_sbu_0, # of connection points: 5
#     Node 21, Type 0, BuildingBlock: BEQFEK_clean_sbu_0, # of connection points: 5
#     Node 22, Type 0, BuildingBlock: BEQFEK_clean_sbu_0, # of connection points: 5
#     Node 23, Type 0, BuildingBlock: BEQFEK_clean_sbu_0, # of connection points: 5
#     Node 24, Type 0, BuildingBlock: BEQFEK_clean_sbu_0, # of connection points: 5
#     Node 25, Type 0, BuildingBlock: BEQFEK_clean_sbu_0, # of connection points: 5
#     Node 26, Type 0, BuildingBlock: BEQFEK_clean_sbu_0, # of connection points: 5
#     Node 27, Type 0, BuildingBlock: BEQFEK_clean_sbu_0, # of connection points: 5
#     Node 28, Type 0, BuildingBlock: BEQFEK_clean_sbu_0, # of connection points: 5
#     Node 29, Type 0, BuildingBlock: BEQFEK_clean_sbu_0, # of connection points: 5
#     Node 30, Type 0, BuildingBlock: BEQFEK_clean_sbu_0, # of connection points: 5
#     Node 31, Type 0, BuildingBlock: BEQFEK_clean_sbu_0, # of connection points: 5
#     Edge 32, Type (0, 0), BuildingBlock: XIVTED_clean_linker_0, # of connection points: 2
#     Edge 33, Type (0, 0), BuildingBlock: XIVTED_clean_linker_0, # of connection points: 2
#     Edge 34, Type (0, 0), BuildingBlock: XIVTED_clean_linker_0, # of connection points: 2
#     Edge 35, Type (0, 0), BuildingBlock: XIVTED_clean_linker_0, # of connection points: 2
#     Edge 36, Type (0, 0), BuildingBlock: XIVTED_clean_linker_0, # of connection points: 2
#     Edge 37, Type (0, 0), BuildingBlock: XIVTED_clean_linker_0, # of connection points: 2
#     Edge 38, Type (0, 0), BuildingBlock: XIVTED_clean_linker_0, # of connection points: 2
#     Edge 39, Type (0, 0), BuildingBlock: XIVTED_clean_linker_0, # of connection points: 2
#     Edge 40, Type (0, 0), BuildingBlock: XIVTED_clean_linker_0, # of connection points: 2
#     Edge 41, Type (0, 0), BuildingBlock: XIVTED_clean_linker_0, # of connection points: 2
#     Edge 42, Type (0, 0), BuildingBlock: XIVTED_clean_linker_0, # of connection points: 2
#     Edge 43, Type (0, 0), BuildingBlock: XIVTED_clean_linker_0, # of connection points: 2
#     Edge 44, Type (0, 0), BuildingBlock: XIVTED_clean_linker_0, # of connection points: 2
#     Edge 45, Type (0, 0), BuildingBlock: XIVTED_clean_linker_0, # of connection points: 2
#     Edge 46, Type (0, 0), BuildingBlock: XIVTED_clean_linker_0, # of connection points: 2
#     Edge 47, Type (0, 0), BuildingBlock: XIVTED_clean_linker_0, # of connection points: 2
#     Edge 48, Type (0, 0), BuildingBlock: XIVTED_clean_linker_0, # of connection points: 2
#     Edge 49, Type (0, 0), BuildingBlock: XIVTED_clean_linker_0, # of connection points: 2
#     Edge 50, Type (0, 0), BuildingBlock: XIVTED_clean_linker_0, # of connection points: 2
#     Edge 51, Type (0, 0), BuildingBlock: XIVTED_clean_linker_0, # of connection points: 2
#     Edge 52, Type (0, 0), BuildingBlock: XIVTED_clean_linker_0, # of connection points: 2
#     Edge 53, Type (0, 0), BuildingBlock: XIVTED_clean_linker_0, # of connection points: 2
#     Edge 54, Type (0, 0), BuildingBlock: XIVTED_clean_linker_0, # of connection points: 2
#     Edge 55, Type (0, 0), BuildingBlock: XIVTED_clean_linker_0, # of connection points: 2
#     Edge 56, Type (0, 0), BuildingBlock: XIVTED_clean_linker_0, # of connection points: 2
#     Edge 57, Type (0, 0), BuildingBlock: XIVTED_clean_linker_0, # of connection points: 2
#     Edge 58, Type (0, 0), BuildingBlock: XIVTED_clean_linker_0, # of connection points: 2
#     Edge 59, Type (0, 0), BuildingBlock: XIVTED_clean_linker_0, # of connection points: 2
#     Edge 60, Type (0, 0), BuildingBlock: XIVTED_clean_linker_0, # of connection points: 2
#     Edge 61, Type (0, 0), BuildingBlock: XIVTED_clean_linker_0, # of connection points: 2
#     Edge 62, Type (0, 0), BuildingBlock: XIVTED_clean_linker_0, # of connection points: 2
#     Edge 63, Type (0, 0), BuildingBlock: XIVTED_clean_linker_0, # of connection points: 2
#     Edge 64, Type (0, 0), BuildingBlock: XIVTED_clean_linker_0, # of connection points: 2
#     Edge 65, Type (0, 0), BuildingBlock: XIVTED_clean_linker_0, # of connection points: 2
#     Edge 66, Type (0, 0), BuildingBlock: XIVTED_clean_linker_0, # of connection points: 2
#     Edge 67, Type (0, 0), BuildingBlock: XIVTED_clean_linker_0, # of connection points: 2
#     Edge 68, Type (0, 0), BuildingBlock: XIVTED_clean_linker_0, # of connection points: 2
#     Edge 69, Type (0, 0), BuildingBlock: XIVTED_clean_linker_0, # of connection points: 2
#     Edge 70, Type (0, 0), BuildingBlock: XIVTED_clean_linker_0, # of connection points: 2
#     Edge 71, Type (0, 0), BuildingBlock: XIVTED_clean_linker_0, # of connection points: 2
#     Edge 72, Type (0, 0), BuildingBlock: XIVTED_clean_linker_0, # of connection points: 2
#     Edge 73, Type (0, 0), BuildingBlock: XIVTED_clean_linker_0, # of connection points: 2
#     Edge 74, Type (0, 0), BuildingBlock: XIVTED_clean_linker_0, # of connection points: 2
#     Edge 75, Type (0, 0), BuildingBlock: XIVTED_clean_linker_0, # of connection points: 2
#     Edge 76, Type (0, 0), BuildingBlock: XIVTED_clean_linker_0, # of connection points: 2
#     Edge 77, Type (0, 0), BuildingBlock: XIVTED_clean_linker_0, # of connection points: 2
#     Edge 78, Type (0, 0), BuildingBlock: XIVTED_clean_linker_0, # of connection points: 2
#     Edge 79, Type (0, 0), BuildingBlock: XIVTED_clean_linker_0, # of connection points: 2
#     Edge 80, Type (0, 0), BuildingBlock: XIVTED_clean_linker_0, # of connection points: 2
#     Edge 81, Type (0, 0), BuildingBlock: XIVTED_clean_linker_0, # of connection points: 2
#     Edge 82, Type (0, 0), BuildingBlock: XIVTED_clean_linker_0, # of connection points: 2
#     Edge 83, Type (0, 0), BuildingBlock: XIVTED_clean_linker_0, # of connection points: 2
#     Edge 84, Type (0, 0), BuildingBlock: XIVTED_clean_linker_0, # of connection points: 2
#     Edge 85, Type (0, 0), BuildingBlock: XIVTED_clean_linker_0, # of connection points: 2
#     Edge 86, Type (0, 0), BuildingBlock: XIVTED_clean_linker_0, # of connection points: 2
#     Edge 87, Type (0, 0), BuildingBlock: XIVTED_clean_linker_0, # of connection points: 2
#     Edge 88, Type (0, 0), BuildingBlock: XIVTED_clean_linker_0, # of connection points: 2
#     Edge 89, Type (0, 0), BuildingBlock: XIVTED_clean_linker_0, # of connection points: 2
#     Edge 90, Type (0, 0), BuildingBlock: XIVTED_clean_linker_0, # of connection points: 2
#     Edge 91, Type (0, 0), BuildingBlock: XIVTED_clean_linker_0, # of connection points: 2
#     Edge 92, Type (0, 0), BuildingBlock: XIVTED_clean_linker_0, # of connection points: 2
#     Edge 93, Type (0, 0), BuildingBlock: XIVTED_clean_linker_0, # of connection points: 2
#     Edge 94, Type (0, 0), BuildingBlock: XIVTED_clean_linker_0, # of connection points: 2
#     Edge 95, Type (0, 0), BuildingBlock: XIVTED_clean_linker_0, # of connection points: 2
#     Edge 96, Type (0, 0), BuildingBlock: XIVTED_clean_linker_0, # of connection points: 2
#     Edge 97, Type (0, 0), BuildingBlock: XIVTED_clean_linker_0, # of connection points: 2
#     Edge 98, Type (0, 0), BuildingBlock: XIVTED_clean_linker_0, # of connection points: 2
#     Edge 99, Type (0, 0), BuildingBlock: XIVTED_clean_linker_0, # of connection points: 2
#     Edge 100, Type (0, 0), BuildingBlock: XIVTED_clean_linker_0, # of connection points: 2
#     Edge 101, Type (0, 0), BuildingBlock: XIVTED_clean_linker_0, # of connection points: 2
#     Edge 102, Type (0, 0), BuildingBlock: XIVTED_clean_linker_0, # of connection points: 2
#     Edge 103, Type (0, 0), BuildingBlock: XIVTED_clean_linker_0, # of connection points: 2
#     Edge 104, Type (0, 0), BuildingBlock: XIVTED_clean_linker_0, # of connection points: 2
#     Edge 105, Type (0, 0), BuildingBlock: XIVTED_clean_linker_0, # of connection points: 2
#     Edge 106, Type (0, 0), BuildingBlock: XIVTED_clean_linker_0, # of connection points: 2
#     Edge 107, Type (0, 0), BuildingBlock: XIVTED_clean_linker_0, # of connection points: 2
#     Edge 108, Type (0, 0), BuildingBlock: XIVTED_clean_linker_0, # of connection points: 2
#     Edge 109, Type (0, 0), BuildingBlock: XIVTED_clean_linker_0, # of connection points: 2
#     Edge 110, Type (0, 0), BuildingBlock: XIVTED_clean_linker_0, # of connection points: 2
#     Edge 111, Type (0, 0), BuildingBlock: XIVTED_clean_linker_0, # of connection points: 2
# Relax obj value: 0.339
# Max RMSD: 0.196
# Mean RMSD: 0.196
data_MOF--net-yfq--node1-BEQFEK_clean_sbu_0--edge1-XIVTED_clean_linker_0
_symmetry_space_group_name_H-M    P1
_symmetry_Int_Tables_number       1
_symmetry_cell_setting            triclinic
loop_
_symmetry_equiv_pos_as_xyz
'x, y, z'
_cell_length_a     57.002432
_cell_length_b     56.984587
_cell_length_c     62.313782
_cell_angle_alpha  90.004947
_cell_angle_beta   90.001305
_cell_angle_gamma 89.984468
loop_
_atom_site_label
_atom_site_type_symbol
_atom_site_fract_x
_atom_site_fract_y
_atom_site_fract_z
_atom_type_partial_charge
Co0 Co 0.11393 0.20679 0.30345 0.0
Co1 Co 0.10942 0.1725 0.26383 0.0
C2 C 0.07539 0.21155 0.27096 0.0
O3 O 0.08627 0.21848 0.28762 0.0
O4 O 0.08221 0.19377 0.26031 0.0
C5 C 0.11994 0.25161 0.32202 0.0
O6 O 0.11529 0.25823 0.30227 0.0
C7 C 0.10327 0.15675 0.21903 0.0
C8 C 0.12802 0.127 0.21722 0.0
C9 C 0.11304 0.14061 0.20487 0.0
N10 N 0.11261 0.15328 0.23863 0.0
N11 N 0.12709 0.13521 0.23748 0.0
C12 C 0.08441 0.17436 0.21447 0.0
H13 H 0.07057 0.17299 0.22689 0.0
H14 H 0.09194 0.1923 0.21515 0.0
H15 H 0.07603 0.1714 0.19866 0.0
C16 C 0.16036 0.21451 0.28506 0.0
N17 N 0.13954 0.20353 0.28508 0.0
N18 N 0.13761 0.1905 0.26771 0.0
C19 C 0.15705 0.19366 0.25562 0.0
C20 C 0.17193 0.20906 0.26627 0.0
C21 C 0.16956 0.22924 0.3031 0.0
H22 H 0.16326 0.22236 0.31871 0.0
H23 H 0.16341 0.24756 0.30107 0.0
H24 H 0.18903 0.22935 0.30319 0.0
O25 O 0.10663 0.17667 0.31658 0.0
O26 O 0.10241 0.15184 0.28925 0.0
H27 H 0.16484 0.16502 0.23475 0.0
H28 H 0.17478 0.19304 0.2249 0.0
C29 C 0.16041 0.18391 0.23354 0.0
H30 H 0.14394 0.18571 0.22423 0.0
H31 H 0.13698 0.129 0.25038 0.0
O32 O 0.1205 0.22984 0.32639 0.0
C33 C 0.10221 0.15628 0.30934 0.0
Co34 Co 0.03978 0.86393 0.55392 0.0
Co35 Co 0.07328 0.85875 0.51374 0.0
C36 C 0.03371 0.82541 0.52161 0.0
O37 O 0.02696 0.83648 0.53824 0.0
O38 O 0.05147 0.83201 0.51085 0.0
C39 C 0.99566 0.87156 0.57371 0.0
O40 O 0.98824 0.86709 0.55417 0.0
C41 C 0.08643 0.85374 0.46818 0.0
C42 C 0.11994 0.87314 0.46682 0.0
C43 C 0.10377 0.86143 0.45413 0.0
N44 N 0.09185 0.86115 0.4881 0.0
N45 N 0.11206 0.87246 0.48719 0.0
C46 C 0.06582 0.83835 0.46326 0.0
H47 H 0.066 0.82302 0.47418 0.0
H48 H 0.04935 0.84826 0.46611 0.0
H49 H 0.06619 0.83154 0.44662 0.0
C50 C 0.03439 0.91141 0.53631 0.0
N51 N 0.04376 0.88977 0.53569 0.0
N52 N 0.05643 0.88745 0.51814 0.0
C53 C 0.05449 0.90737 0.50651 0.0
C54 C 0.0407 0.92317 0.51782 0.0
C55 C 0.01852 0.92022 0.55369 0.0
H56 H 0.02471 0.91392 0.56953 0.0
H57 H 0.00051 0.91363 0.55079 0.0
H58 H 0.01776 0.93964 0.55403 0.0
O59 O 0.0701 0.85553 0.56643 0.0
O60 O 0.0943 0.85127 0.53861 0.0
H61 H 0.08444 0.91133 0.4863 0.0
H62 H 0.05922 0.92783 0.47756 0.0
C63 C 0.06507 0.91104 0.48481 0.0
H64 H 0.06015 0.89628 0.47412 0.0
H65 H 0.12018 0.88025 0.5004 0.0
O66 O 0.01757 0.87122 0.57749 0.0
C67 C 0.09025 0.85085 0.55876 0.0
Co68 Co 0.37556 0.79636 0.8078 0.0
Co69 Co 0.38494 0.82553 0.76582 0.0
C70 C 0.4156 0.78568 0.77724 0.0
O71 O 0.4037 0.78248 0.79427 0.0
O72 O 0.41002 0.80153 0.76381 0.0
C73 C 0.36562 0.75298 0.8271 0.0
O74 O 0.36939 0.74605 0.80728 0.0
C75 C 0.3886 0.83483 0.71979 0.0
C76 C 0.38313 0.87318 0.71795 0.0
C77 C 0.38725 0.85346 0.70549 0.0
N78 N 0.38518 0.84314 0.73974 0.0
N79 N 0.38196 0.86608 0.73855 0.0
C80 C 0.39507 0.80988 0.71508 0.0
H81 H 0.41421 0.80772 0.71762 0.0
H82 H 0.3859 0.7979 0.72634 0.0
H83 H 0.39106 0.80489 0.69831 0.0
C84 C 0.32872 0.79224 0.78856 0.0
N85 N 0.35087 0.80032 0.78826 0.0
N86 N 0.35472 0.81149 0.7701 0.0
C87 C 0.33518 0.80998 0.75791 0.0
C88 C 0.31814 0.7978 0.76927 0.0
C89 C 0.31837 0.77801 0.80642 0.0
H90 H 0.32521 0.78414 0.82208 0.0
H91 H 0.32306 0.7593 0.8041 0.0
H92 H 0.29899 0.7793 0.80671 0.0
O93 O 0.38449 0.82669 0.81953 0.0
O94 O 0.39381 0.84699 0.7902 0.0
H95 H 0.3387 0.83803 0.73528 0.0
H96 H 0.31438 0.81854 0.72997 0.0
C97 C 0.33281 0.81951 0.73565 0.0
H98 H 0.34403 0.8092 0.72461 0.0
H99 H 0.37896 0.87687 0.75179 0.0
O100 O 0.36693 0.77474 0.83144 0.0
C101 C 0.39224 0.8452 0.81059 0.0
Co102 Co 0.45284 0.12759 0.05574 0.0
Co103 Co 0.42304 0.13618 0.014 0.0
C104 C 0.46089 0.16893 0.02604 0.0
O105 O 0.46461 0.15693 0.04291 0.0
O106 O 0.44555 0.16271 0.01234 0.0
C107 C 0.49687 0.11992 0.07448 0.0
O108 O 0.50335 0.12495 0.05477 0.0
C109 C 0.41281 0.14037 0.9681 0.0
C110 C 0.37499 0.13197 0.96662 0.0
C111 C 0.3941 0.13794 0.95402 0.0
N112 N 0.40514 0.13581 0.98808 0.0
N113 N 0.38251 0.13084 0.9871 0.0
C114 C 0.43709 0.14884 0.96318 0.0
H115 H 0.4378 0.16805 0.96601 0.0
H116 H 0.44994 0.14042 0.97411 0.0
H117 H 0.44205 0.14554 0.94627 0.0
C118 C 0.46111 0.08235 0.0351 0.0
N119 N 0.45091 0.10357 0.03547 0.0
N120 N 0.43917 0.10688 0.01753 0.0
C121 C 0.4421 0.0878 0.0049 0.0
C122 C 0.45636 0.0719 0.01563 0.0
C123 C 0.47452 0.07171 0.05333 0.0
H124 H 0.46708 0.07748 0.06889 0.0
H125 H 0.49314 0.0772 0.05232 0.0
H126 H 0.47394 0.05225 0.05254 0.0
O127 O 0.42203 0.13374 0.06776 0.0
O128 O 0.40125 0.14313 0.03874 0.0
H129 H 0.41362 0.08935 0.98255 0.0
H130 H 0.43552 0.06747 0.97616 0.0
C131 C 0.43266 0.08538 0.98261 0.0
H132 H 0.4416 0.09811 0.97196 0.0
H133 H 0.37222 0.12666 0.0004 0.0
O134 O 0.47513 0.11961 0.07899 0.0
C135 C 0.40312 0.14076 0.05906 0.0
Co136 Co 0.11608 0.79312 0.19127 0.0
Co137 Co 0.10977 0.82174 0.23405 0.0
C138 C 0.07537 0.78549 0.22224 0.0
O139 O 0.08677 0.78197 0.20495 0.0
O140 O 0.08249 0.80014 0.23625 0.0
C141 C 0.12296 0.7494 0.17144 0.0
O142 O 0.11816 0.74235 0.19103 0.0
C143 C 0.10622 0.83446 0.27989 0.0
C144 C 0.12603 0.86778 0.28065 0.0
C145 C 0.11432 0.85189 0.29361 0.0
N146 N 0.11289 0.83984 0.25976 0.0
N147 N 0.1245 0.8599 0.26033 0.0
C148 C 0.09446 0.81194 0.28597 0.0
H149 H 0.09967 0.79773 0.27478 0.0
H150 H 0.099 0.80676 0.30263 0.0
H151 H 0.07517 0.81427 0.28486 0.0
C152 C 0.16182 0.78288 0.21046 0.0
N153 N 0.14091 0.79375 0.21081 0.0
N154 N 0.13821 0.80456 0.22931 0.0
C155 C 0.15724 0.80016 0.24163 0.0
C156 C 0.17262 0.78611 0.23005 0.0
C157 C 0.17192 0.77041 0.19143 0.0
H158 H 0.1657 0.77859 0.17633 0.0
H159 H 0.16652 0.75172 0.1918 0.0
H160 H 0.19139 0.771 0.1918 0.0
O161 O 0.11027 0.82434 0.17996 0.0
O162 O 0.10233 0.84415 0.20987 0.0
H163 H 0.16105 0.82708 0.26522 0.0
H164 H 0.17562 0.79995 0.27208 0.0
C165 C 0.1598 0.80768 0.2645 0.0
H166 H 0.14409 0.80222 0.27369 0.0
H167 H 0.13201 0.86785 0.2469 0.0
O168 O 0.12304 0.77126 0.16741 0.0
C169 C 0.10379 0.84301 0.18944 0.0
Co170 Co 0.45101 0.87095 0.44212 0.0
Co171 Co 0.42253 0.86123 0.48446 0.0
C172 C 0.46305 0.83148 0.47293 0.0
O173 O 0.46574 0.84333 0.4558 0.0
O174 O 0.44715 0.83672 0.48644 0.0
C175 C 0.49387 0.88106 0.42179 0.0
O176 O 0.50143 0.87725 0.4414 0.0
C177 C 0.41324 0.8574 0.53057 0.0
C178 C 0.375 0.86358 0.53235 0.0
C179 C 0.39461 0.8591 0.54484 0.0
N180 N 0.40503 0.86098 0.51061 0.0
N181 N 0.38216 0.86461 0.51177 0.0
C182 C 0.43806 0.85049 0.5353 0.0
H183 H 0.44029 0.83164 0.53133 0.0
H184 H 0.45028 0.86059 0.52497 0.0
H185 H 0.44267 0.85294 0.55241 0.0
C186 C 0.45464 0.91792 0.46118 0.0
N187 N 0.44679 0.89569 0.46156 0.0
N188 N 0.43589 0.89171 0.47983 0.0
C189 C 0.4373 0.91128 0.492 0.0
C190 C 0.44916 0.92846 0.48053 0.0
C191 C 0.46878 0.92831 0.44329 0.0
H192 H 0.46248 0.92159 0.42764 0.0
H193 H 0.48746 0.92342 0.44543 0.0
H194 H 0.46765 0.9477 0.44313 0.0
O195 O 0.42073 0.86122 0.43079 0.0
O196 O 0.40099 0.85168 0.46036 0.0
H197 H 0.40957 0.90765 0.51493 0.0
H198 H 0.42921 0.93186 0.52021 0.0
C199 C 0.42811 0.91348 0.51439 0.0
H200 H 0.43851 0.90209 0.52522 0.0
H201 H 0.37145 0.86785 0.49851 0.0
O202 O 0.47198 0.8798 0.41804 0.0
C203 C 0.4025 0.85314 0.43995 0.0
Co204 Co 0.3793 0.20215 0.69075 0.0
Co205 Co 0.38669 0.17309 0.73317 0.0
C206 C 0.42019 0.21022 0.72101 0.0
O207 O 0.40864 0.21378 0.70383 0.0
O208 O 0.41339 0.19531 0.73487 0.0
C209 C 0.37234 0.2459 0.67101 0.0
O210 O 0.37772 0.25285 0.69051 0.0
C211 C 0.38988 0.16336 0.77929 0.0
C212 C 0.38181 0.12547 0.78083 0.0
C213 C 0.3874 0.1447 0.79342 0.0
N214 N 0.38571 0.15554 0.75929 0.0
N215 N 0.3809 0.13288 0.76032 0.0
C216 C 0.39809 0.18772 0.78426 0.0
H217 H 0.39112 0.2003 0.77226 0.0
H218 H 0.39287 0.19329 0.8006 0.0
H219 H 0.41753 0.18812 0.78337 0.0
C220 C 0.33388 0.21171 0.71084 0.0
N221 N 0.35487 0.20099 0.71078 0.0
N222 N 0.35772 0.1895 0.72892 0.0
C223 C 0.33857 0.19306 0.74133 0.0
C224 C 0.32312 0.2075 0.73027 0.0
C225 C 0.32379 0.22529 0.69246 0.0
H226 H 0.32941 0.21753 0.67699 0.0
H227 H 0.32986 0.24375 0.69338 0.0
H228 H 0.30433 0.22535 0.69316 0.0
O229 O 0.38537 0.17096 0.67932 0.0
O230 O 0.3939 0.15082 0.70893 0.0
H231 H 0.33964 0.16507 0.76423 0.0
H232 H 0.31772 0.18717 0.76987 0.0
C233 C 0.33573 0.18412 0.76374 0.0
H234 H 0.34829 0.19329 0.77441 0.0
H235 H 0.37708 0.12246 0.747 0.0
O236 O 0.37175 0.22404 0.66699 0.0
C237 C 0.39207 0.1522 0.68853 0.0
Co238 Co 0.04319 0.12592 0.94254 0.0
Co239 Co 0.07245 0.13426 0.9847 0.0
C240 C 0.03293 0.16551 0.974 0.0
O241 O 0.02967 0.15384 0.95684 0.0
O242 O 0.04886 0.15976 0.98732 0.0
C243 C -0.00033 0.11641 0.92305 0.0
O244 O 0.9926 0.11991 0.94287 0.0
C245 C 0.08443 0.13828 0.03052 0.0
C246 C 0.12028 0.12355 0.03124 0.0
C247 C 0.10276 0.13258 0.04425 0.0
N248 N 0.09085 0.13286 0.01034 0.0
N249 N 0.11239 0.12428 0.01087 0.0
C250 C 0.06041 0.1466 0.03657 0.0
H251 H 0.04723 0.14004 0.02493 0.0
H252 H 0.05565 0.14063 0.05295 0.0
H253 H 0.06011 0.16607 0.03623 0.0
C254 C 0.03848 0.07884 0.96111 0.0
N255 N 0.0469 0.10086 0.96164 0.0
N256 N 0.05771 0.10447 0.98001 0.0
C257 C 0.05545 0.08499 0.99219 0.0
C258 C 0.04332 0.06817 0.98052 0.0
C259 C 0.02455 0.06872 0.94295 0.0
H260 H 0.03081 0.07587 0.92745 0.0
H261 H 0.00578 0.07322 0.94515 0.0
H262 H 0.026 0.04935 0.94244 0.0
O263 O 0.07353 0.13464 0.93082 0.0
O264 O 0.09391 0.14318 0.96028 0.0
H265 H 0.06 0.06508 0.02149 0.0
H266 H 0.05551 0.09627 0.0249 0.0
C267 C 0.06396 0.08268 0.01479 0.0
H268 H 0.08319 0.08551 0.01525 0.0
H269 H 0.12145 0.11831 0.99739 0.0
O270 O 0.02144 0.11784 0.91883 0.0
C271 C 0.09214 0.14195 0.93988 0.0
Co272 Co 0.87864 0.79324 0.69351 0.0
Co273 Co 0.88754 0.82267 0.73535 0.0
C274 C 0.92024 0.78486 0.72285 0.0
O275 O 0.90806 0.78123 0.70607 0.0
O276 O 0.91411 0.80013 0.73668 0.0
C277 C 0.87058 0.74944 0.67456 0.0
O278 O 0.87588 0.74276 0.69416 0.0
C279 C 0.89204 0.83246 0.78128 0.0
C280 C 0.88258 0.87001 0.78328 0.0
C281 C 0.88907 0.85086 0.79563 0.0
N282 N 0.88725 0.84033 0.76142 0.0
N283 N 0.88168 0.8628 0.7627 0.0
C284 C 0.90109 0.80829 0.78585 0.0
H285 H 0.89183 0.79526 0.77569 0.0
H286 H 0.8994 0.80349 0.80299 0.0
H287 H 0.91996 0.80764 0.78153 0.0
C288 C 0.83342 0.785 0.71423 0.0
N289 N 0.85471 0.79505 0.71388 0.0
N290 N 0.85816 0.80662 0.7319 0.0
C291 C 0.8391 0.8037 0.74456 0.0
C292 C 0.82304 0.78964 0.73377 0.0
C293 C 0.82256 0.77203 0.69583 0.0
H294 H 0.82837 0.77968 0.68037 0.0
H295 H 0.82786 0.75333 0.69654 0.0
H296 H 0.80312 0.77283 0.69667 0.0
O297 O 0.88491 0.82409 0.68163 0.0
O298 O 0.89444 0.84467 0.71072 0.0
H299 H 0.84048 0.83212 0.76698 0.0
H300 H 0.8191 0.80982 0.7736 0.0
C301 C 0.83684 0.81301 0.76691 0.0
H302 H 0.8499 0.80427 0.77736 0.0
H303 H 0.87714 0.87318 0.74954 0.0
O304 O 0.87033 0.77122 0.6702 0.0
C305 C 0.89208 0.84293 0.69039 0.0
Co306 Co 0.95792 0.12971 0.44832 0.0
Co307 Co 0.92227 0.13427 0.48678 0.0
C308 C 0.96228 0.16783 0.48105 0.0
O309 O 0.97002 0.15684 0.46474 0.0
O310 O 0.94383 0.16122 0.49082 0.0
C311 C 0.00268 0.12334 0.4289 0.0
O312 O 0.01002 0.12844 0.44834 0.0
C313 C 0.90976 0.13718 0.53213 0.0
C314 C 0.87331 0.12408 0.53275 0.0
C315 C 0.89119 0.13232 0.54581 0.0
N316 N 0.90316 0.13217 0.51194 0.0
N317 N 0.88128 0.1245 0.51238 0.0
C318 C 0.93413 0.14435 0.53822 0.0
H319 H 0.94699 0.13699 0.52667 0.0
H320 H 0.93854 0.13832 0.55467 0.0
H321 H 0.93542 0.16378 0.5377 0.0
C322 C 0.96263 0.08207 0.46554 0.0
N323 N 0.95319 0.10367 0.46606 0.0
N324 N 0.93912 0.10548 0.48274 0.0
C325 C 0.93985 0.08509 0.49378 0.0
C326 C 0.95461 0.06966 0.48309 0.0
C327 C 0.98012 0.07394 0.44921 0.0
H328 H 0.97447 0.07945 0.43295 0.0
H329 H 0.99738 0.08198 0.45279 0.0
H330 H 0.9823 0.05463 0.44937 0.0
O331 O 0.92814 0.13821 0.43483 0.0
O332 O 0.90217 0.14188 0.46133 0.0
H333 H 0.90798 0.08378 0.51181 0.0
H334 H 0.92944 0.06208 0.51971 0.0
C335 C 0.92695 0.08045 0.51424 0.0
H336 H 0.93338 0.09257 0.52684 0.0
H337 H 0.87196 0.11911 0.49883 0.0
O338 O 0.98077 0.12273 0.4252 0.0
C339 C 0.90748 0.14259 0.44144 0.0
Co340 Co 0.61511 0.2053 0.19542 0.0
Co341 Co 0.61083 0.17056 0.23461 0.0
C342 C 0.57718 0.21029 0.22834 0.0
O343 O 0.58804 0.21763 0.2118 0.0
O344 O 0.58387 0.19211 0.23848 0.0
C345 C 0.62115 0.24981 0.17556 0.0
O346 O 0.61566 0.25727 0.19488 0.0
C347 C 0.60815 0.15826 0.28008 0.0
C348 C 0.62247 0.12225 0.2808 0.0
C349 C 0.61372 0.13993 0.29381 0.0
N350 N 0.61327 0.1517 0.25989 0.0
N351 N 0.62165 0.13008 0.2604 0.0
C352 C 0.60021 0.18242 0.28611 0.0
H353 H 0.60729 0.19549 0.27461 0.0
H354 H 0.60597 0.18701 0.3026 0.0
H355 H 0.58077 0.18314 0.28544 0.0
C356 C 0.66265 0.21091 0.21266 0.0
N357 N 0.64125 0.20103 0.21317 0.0
N358 N 0.63948 0.18745 0.23019 0.0
C359 C 0.65967 0.18897 0.24146 0.0
C360 C 0.67494 0.20373 0.2306 0.0
C361 C 0.67046 0.22837 0.19617 0.0
H362 H 0.6622 0.24555 0.19965 0.0
H363 H 0.68972 0.23087 0.19623 0.0
H364 H 0.66503 0.22247 0.17997 0.0
O365 O 0.60651 0.17528 0.18241 0.0
O366 O 0.60299 0.15005 0.20952 0.0
H367 H 0.68239 0.18001 0.26806 0.0
H368 H 0.65173 0.1837 0.27462 0.0
C369 C 0.66417 0.17698 0.26241 0.0
H370 H 0.66125 0.15786 0.26058 0.0
H371 H 0.62732 0.12087 0.24688 0.0
O372 O 0.62199 0.22786 0.17202 0.0
C373 C 0.60208 0.15482 0.18953 0.0
Co374 Co 0.54596 0.86638 0.94223 0.0
Co375 Co 0.57414 0.85961 0.9852 0.0
C376 C 0.53824 0.82529 0.97268 0.0
O377 O 0.53495 0.83684 0.95545 0.0
O378 O 0.5526 0.83233 0.98695 0.0
C379 C 0.50224 0.87336 0.92284 0.0
O380 O 0.4956 0.8689 0.94262 0.0
C381 C 0.58581 0.85546 0.03113 0.0
C382 C 0.61967 0.87427 0.03267 0.0
C383 C 0.60318 0.86286 0.04523 0.0
N384 N 0.59181 0.86221 0.01118 0.0
N385 N 0.61218 0.87322 0.0122 0.0
C386 C 0.56284 0.84429 0.03669 0.0
H387 H 0.54908 0.84988 0.02519 0.0
H388 H 0.55734 0.84897 0.05323 0.0
H389 H 0.56469 0.82495 0.03563 0.0
C390 C 0.53553 0.91185 0.96172 0.0
N391 N 0.54631 0.8909 0.96205 0.0
N392 N 0.55699 0.88806 0.98059 0.0
C393 C 0.55258 0.90705 0.99297 0.0
C394 C 0.53866 0.92251 0.98137 0.0
C395 C 0.52339 0.9222 0.94262 0.0
H396 H 0.53158 0.91587 0.92757 0.0
H397 H 0.50461 0.91714 0.94287 0.0
H398 H 0.52431 0.94166 0.94304 0.0
O399 O 0.5773 0.86108 0.93113 0.0
O400 O 0.59677 0.85259 0.96112 0.0
H401 H 0.57957 0.9102 0.01657 0.0
H402 H 0.55292 0.92572 0.02327 0.0
C403 C 0.56015 0.90958 0.01583 0.0
H404 H 0.55416 0.89414 0.02513 0.0
H405 H 0.62063 0.88063 0.99898 0.0
O406 O 0.52401 0.87331 0.91843 0.0
C407 C 0.59587 0.85451 0.9407 0.0
Co408 Co 0.87903 0.2013 0.80954 0.0
Co409 Co 0.88658 0.17366 0.76624 0.0
C410 C 0.91951 0.21081 0.77864 0.0
O411 O 0.90799 0.21344 0.79599 0.0
O412 O 0.91295 0.19628 0.76432 0.0
C413 C 0.87088 0.24483 0.82891 0.0
O414 O 0.87494 0.25151 0.80907 0.0
C415 C 0.89282 0.15935 0.72074 0.0
C416 C 0.86799 0.12968 0.7187 0.0
C417 C 0.88301 0.14331 0.70645 0.0
N418 N 0.88349 0.15568 0.74032 0.0
N419 N 0.86892 0.13771 0.73899 0.0
C420 C 0.91156 0.1771 0.71633 0.0
H421 H 0.92446 0.17709 0.72963 0.0
H422 H 0.90355 0.19481 0.71539 0.0
H423 H 0.92105 0.17321 0.70121 0.0
C424 C 0.83337 0.2107 0.79009 0.0
N425 N 0.85443 0.20016 0.78985 0.0
N426 N 0.85784 0.1902 0.77106 0.0
C427 C 0.83926 0.19509 0.75836 0.0
C428 C 0.82329 0.20831 0.77007 0.0
C429 C 0.82253 0.22216 0.80931 0.0
H430 H 0.82899 0.21387 0.82428 0.0
H431 H 0.82701 0.24109 0.80942 0.0
H432 H 0.80312 0.22066 0.8087 0.0
O433 O 0.88558 0.17014 0.8205 0.0
O434 O 0.89448 0.15121 0.79032 0.0
H435 H 0.83319 0.17056 0.73309 0.0
H436 H 0.8245 0.20015 0.7267 0.0
C437 C 0.83792 0.18932 0.73497 0.0
H438 H 0.85524 0.19225 0.72733 0.0
H439 H 0.85906 0.13136 0.75186 0.0
O440 O 0.87157 0.22308 0.83338 0.0
C441 C 0.89272 0.15188 0.81076 0.0
Co442 Co 0.54328 0.12733 0.55708 0.0
Co443 Co 0.57107 0.13677 0.51421 0.0
C444 C 0.53194 0.16757 0.52643 0.0
O445 O 0.52951 0.15565 0.54358 0.0
O446 O 0.5472 0.16201 0.51241 0.0
C447 C 0.50006 0.11769 0.57676 0.0
O448 O 0.49292 0.12182 0.55706 0.0
C449 C 0.5845 0.1434 0.4686 0.0
C450 C 0.61682 0.1221 0.46691 0.0
C451 C 0.60146 0.13509 0.45441 0.0
N452 N 0.58932 0.13509 0.48835 0.0
N453 N 0.60887 0.12268 0.48724 0.0
C454 C 0.56476 0.15996 0.46393 0.0
H455 H 0.56374 0.17338 0.47674 0.0
H456 H 0.54797 0.15011 0.46371 0.0
H457 H 0.56725 0.16916 0.44842 0.0
C458 C 0.53763 0.08086 0.53749 0.0
N459 N 0.54638 0.10276 0.53738 0.0
N460 N 0.5562 0.10702 0.51868 0.0
C461 C 0.55273 0.08825 0.50583 0.0
C462 C 0.54107 0.07104 0.51746 0.0
C463 C 0.52448 0.07019 0.55587 0.0
H464 H 0.53123 0.07703 0.57132 0.0
H465 H 0.50559 0.07453 0.55433 0.0
H466 H 0.52614 0.05083 0.55593 0.0
O467 O 0.57386 0.1358 0.56837 0.0
O468 O 0.59292 0.14549 0.53847 0.0
H469 H 0.57869 0.086 0.48126 0.0
H470 H 0.55149 0.07181 0.4745 0.0
C471 C 0.55935 0.08725 0.48262 0.0
H472 H 0.55358 0.10355 0.47446 0.0
H473 H 0.61638 0.11398 0.50027 0.0
O474 O 0.52187 0.11876 0.58089 0.0
C475 C 0.59196 0.14373 0.5589 0.0
Co476 Co 0.61936 0.79484 0.30926 0.0
Co477 Co 0.60991 0.8219 0.26599 0.0
C478 C 0.57937 0.78276 0.27861 0.0
O479 O 0.59116 0.78067 0.29587 0.0
O480 O 0.58497 0.7978 0.26442 0.0
C481 C 0.62953 0.75188 0.329 0.0
O482 O 0.62581 0.74479 0.30922 0.0
C483 C 0.60306 0.83423 0.2202 0.0
C484 C 0.62326 0.86722 0.21798 0.0
C485 C 0.61068 0.85125 0.20577 0.0
N486 N 0.61132 0.83964 0.23984 0.0
N487 N 0.62311 0.85954 0.2384 0.0
C488 C 0.58707 0.81395 0.21588 0.0
H489 H 0.57327 0.81332 0.22837 0.0
H490 H 0.59723 0.79736 0.21666 0.0
H491 H 0.57829 0.81546 0.20007 0.0
C492 C 0.66604 0.78952 0.28998 0.0
N493 N 0.644 0.7979 0.28961 0.0
N494 N 0.63976 0.80743 0.27077 0.0
C495 C 0.65869 0.80411 0.25811 0.0
C496 C 0.67598 0.79288 0.26999 0.0
C497 C 0.67684 0.77693 0.30863 0.0
H498 H 0.66965 0.78373 0.32393 0.0
H499 H 0.67303 0.7579 0.30728 0.0
H500 H 0.69614 0.7791 0.30883 0.0
O501 O 0.61063 0.82555 0.32017 0.0
O502 O 0.60087 0.84403 0.28995 0.0
H503 H 0.66059 0.82987 0.23334 0.0
H504 H 0.67555 0.80294 0.22697 0.0
C505 C 0.65982 0.81051 0.23485 0.0
H506 H 0.64377 0.80426 0.22658 0.0
H507 H 0.63159 0.86756 0.2513 0.0
O508 O 0.62801 0.77365 0.33323 0.0
C509 C 0.60259 0.84342 0.3104 0.0
Co510 Co 0.95322 0.86968 0.05834 0.0
Co511 Co 0.92373 0.86001 0.01653 0.0
C512 C 0.96432 0.83001 0.02754 0.0
O513 O 0.96755 0.84192 0.04455 0.0
O514 O 0.94808 0.83525 0.01439 0.0
C515 C 0.99664 0.88008 0.07756 0.0
O516 O 0.00357 0.87635 0.05774 0.0
C517 C 0.91436 0.85657 0.97049 0.0
C518 C 0.87587 0.86084 0.96882 0.0
C519 C 0.89565 0.85746 0.95627 0.0
N520 N 0.90604 0.85953 0.99049 0.0
N521 N 0.88302 0.86204 0.98941 0.0
C522 C 0.93948 0.85096 0.96561 0.0
H523 H 0.95119 0.85973 0.97735 0.0
H524 H 0.94442 0.85611 0.94909 0.0
H525 H 0.94207 0.83174 0.96716 0.0
C526 C 0.95652 0.91661 0.03913 0.0
N527 N 0.94873 0.89435 0.03885 0.0
N528 N 0.93741 0.8904 0.02079 0.0
C529 C 0.93848 0.91001 0.00865 0.0
C530 C 0.95056 0.92716 0.01993 0.0
C531 C 0.97085 0.9271 0.05685 0.0
H532 H 0.9649 0.92027 0.07257 0.0
H533 H 0.98955 0.92248 0.05441 0.0
H534 H 0.96946 0.94648 0.05708 0.0
O535 O 0.92303 0.86027 0.0702 0.0
O536 O 0.90242 0.85112 0.041 0.0
H537 H 0.92903 0.93089 0.981 0.0
H538 H 0.93906 0.90154 0.97526 0.0
C539 C 0.9286 0.91237 0.98651 0.0
H540 H 0.91023 0.90602 0.98628 0.0
H541 H 0.87219 0.86456 0.00271 0.0
O542 O 0.97489 0.87859 0.08192 0.0
C543 C 0.90442 0.8526 0.06137 0.0
Co544 Co 0.61601 0.70347 0.8084 0.0
Co545 Co 0.60829 0.67665 0.76476 0.0
C546 C 0.57524 0.71346 0.77804 0.0
O547 O 0.58682 0.71589 0.79538 0.0
O548 O 0.58189 0.69926 0.76347 0.0
C549 C 0.62447 0.74642 0.82878 0.0
O550 O 0.61996 0.75379 0.80922 0.0
C551 C 0.6017 0.66352 0.71906 0.0
C552 C 0.62499 0.63264 0.71666 0.0
C553 C 0.61058 0.64714 0.70461 0.0
N554 N 0.61092 0.65917 0.73855 0.0
N555 N 0.62461 0.64052 0.73701 0.0
C556 C 0.58379 0.68219 0.71489 0.0
H557 H 0.57051 0.68204 0.72786 0.0
H558 H 0.59249 0.69961 0.7149 0.0
H559 H 0.5746 0.67943 0.69942 0.0
C560 C 0.6617 0.71306 0.78894 0.0
N561 N 0.64052 0.70276 0.78855 0.0
N562 N 0.63714 0.69294 0.76969 0.0
C563 C 0.6559 0.69761 0.75714 0.0
C564 C 0.67193 0.71062 0.76899 0.0
C565 C 0.6726 0.72415 0.80832 0.0
H566 H 0.66617 0.7156 0.82316 0.0
H567 H 0.66812 0.74308 0.80871 0.0
H568 H 0.69201 0.72263 0.80768 0.0
O569 O 0.60948 0.67207 0.81888 0.0
O570 O 0.60045 0.65375 0.78844 0.0
H571 H 0.66144 0.6726 0.73216 0.0
H572 H 0.67155 0.70174 0.72572 0.0
C573 C 0.65752 0.69158 0.73382 0.0
H574 H 0.6405 0.69517 0.72586 0.0
H575 H 0.63413 0.6335 0.74979 0.0
O576 O 0.62382 0.72453 0.83264 0.0
C577 C 0.60224 0.65402 0.80887 0.0
Co578 Co 0.54285 0.36929 0.05744 0.0
Co579 Co 0.57218 0.36032 0.01547 0.0
C580 C 0.53399 0.32804 0.02781 0.0
O581 O 0.53051 0.34012 0.04469 0.0
O582 O 0.54938 0.33403 0.01408 0.0
C583 C 0.49916 0.37689 0.07695 0.0
O584 O 0.49223 0.37134 0.05749 0.0
C585 C 0.58172 0.35597 0.96946 0.0
C586 C 0.6196 0.36396 0.9675 0.0
C587 C 0.60024 0.35822 0.95514 0.0
N588 N 0.58975 0.36042 0.98934 0.0
N589 N 0.61241 0.36513 0.98808 0.0
C590 C 0.55728 0.34779 0.96482 0.0
H591 H 0.54471 0.35611 0.97609 0.0
H592 H 0.552 0.35146 0.94806 0.0
H593 H 0.55646 0.32854 0.96735 0.0
C594 C 0.53427 0.41434 0.03652 0.0
N595 N 0.54474 0.39326 0.03709 0.0
N596 N 0.5563 0.38978 0.01906 0.0
C597 C 0.55299 0.40865 0.00623 0.0
C598 C 0.53867 0.42454 0.01689 0.0
C599 C 0.5204 0.4249 0.0545 0.0
H600 H 0.52793 0.41967 0.07019 0.0
H601 H 0.50197 0.41879 0.05349 0.0
H602 H 0.52037 0.44435 0.05339 0.0
O603 O 0.57372 0.36272 0.06916 0.0
O604 O 0.59418 0.35317 0.04 0.0
H605 H 0.58091 0.40639 0.98332 0.0
H606 H 0.55942 0.42882 0.97741 0.0
C607 C 0.56198 0.41082 0.98377 0.0
H608 H 0.55245 0.39835 0.97328 0.0
H609 H 0.62295 0.3692 0.00125 0.0
O610 O 0.52101 0.37756 0.08098 0.0
C611 C 0.5925 0.3555 0.06034 0.0
Co612 Co 0.87942 0.28774 0.303 0.0
Co613 Co 0.88455 0.32372 0.26476 0.0
C614 C 0.91862 0.28404 0.27178 0.0
O615 O 0.90701 0.27576 0.28745 0.0
O616 O 0.91226 0.30269 0.2622 0.0
C617 C 0.87375 0.24304 0.32225 0.0
O618 O 0.87982 0.23603 0.30295 0.0
C619 C 0.88548 0.33513 0.2186 0.0
C620 C 0.87879 0.37328 0.21873 0.0
C621 C 0.88267 0.35442 0.20509 0.0
N622 N 0.88308 0.34232 0.23909 0.0
N623 N 0.87911 0.36516 0.23902 0.0
C624 C 0.89126 0.3104 0.21231 0.0
H625 H 0.89777 0.30017 0.22609 0.0
H626 H 0.87523 0.3015 0.20641 0.0
H627 H 0.90458 0.31025 0.19932 0.0
C628 C 0.83252 0.28217 0.28456 0.0
N629 N 0.85395 0.29197 0.28453 0.0
N630 N 0.85578 0.30661 0.26825 0.0
C631 C 0.83539 0.30621 0.25719 0.0
C632 C 0.82013 0.29078 0.26722 0.0
C633 C 0.82463 0.26383 0.30019 0.0
H634 H 0.82896 0.26942 0.31676 0.0
H635 H 0.8339 0.24718 0.29669 0.0
H636 H 0.80554 0.26042 0.2992 0.0
O637 O 0.88711 0.31783 0.31646 0.0
O638 O 0.89075 0.34421 0.29025 0.0
H639 H 0.81112 0.32077 0.23413 0.0
H640 H 0.83957 0.3131 0.22375 0.0
C641 C 0.8302 0.32062 0.23771 0.0
H642 H 0.83634 0.33888 0.24017 0.0
H643 H 0.87658 0.3752 0.25283 0.0
O644 O 0.87216 0.2649 0.32603 0.0
C645 C 0.89111 0.33869 0.31011 0.0
Co646 Co 0.95497 0.63081 0.55467 0.0
Co647 Co 0.92022 0.63508 0.51555 0.0
C648 C 0.95964 0.66906 0.52212 0.0
O649 O 0.96707 0.65818 0.53859 0.0
O650 O 0.94158 0.6622 0.5119 0.0
C651 C -0.00053 0.62471 0.57434 0.0
O652 O 0.00676 0.62986 0.5549 0.0
C653 C 0.90935 0.63597 0.4699 0.0
C654 C 0.87102 0.63023 0.46914 0.0
C655 C 0.89035 0.63403 0.4561 0.0
N656 N 0.90164 0.63322 0.49012 0.0
N657 N 0.87872 0.62976 0.48959 0.0
C658 C 0.93407 0.6426 0.46447 0.0
H659 H 0.9464 0.63454 0.47611 0.0
H660 H 0.93891 0.63738 0.44795 0.0
H661 H 0.93584 0.66195 0.46572 0.0
C662 C 0.96078 0.5833 0.53729 0.0
N663 N 0.95097 0.60473 0.53672 0.0
N664 N 0.93715 0.60638 0.51984 0.0
C665 C 0.93833 0.58602 0.50879 0.0
C666 C 0.95325 0.57082 0.51958 0.0
C667 C 0.97828 0.57548 0.55375 0.0
H668 H 0.97244 0.58096 0.56995 0.0
H669 H 0.99546 0.58371 0.55021 0.0
H670 H 0.98078 0.55622 0.55373 0.0
O671 O 0.92478 0.63893 0.56769 0.0
O672 O 0.89958 0.64251 0.54057 0.0
H673 H 0.92644 0.56216 0.48411 0.0
H674 H 0.93368 0.59135 0.47514 0.0
C675 C 0.92559 0.58108 0.4883 0.0
H676 H 0.90698 0.58646 0.48984 0.0
H677 H 0.86831 0.62731 0.50319 0.0
O678 O 0.97757 0.62405 0.57807 0.0
C679 C 0.90429 0.6432 0.56057 0.0
Co680 Co 0.61946 0.29425 0.69154 0.0
Co681 Co 0.61018 0.32255 0.73412 0.0
C682 C 0.57904 0.28351 0.72166 0.0
O683 O 0.59102 0.28069 0.70463 0.0
O684 O 0.58463 0.29895 0.7355 0.0
C685 C 0.62867 0.25106 0.67162 0.0
O686 O 0.62455 0.24387 0.6913 0.0
C687 C 0.60584 0.33173 0.78026 0.0
C688 C 0.61367 0.36965 0.78233 0.0
C689 C 0.60803 0.35021 0.79464 0.0
N690 N 0.61023 0.33985 0.7604 0.0
N691 N 0.61486 0.36253 0.76174 0.0
C692 C 0.59774 0.30723 0.78482 0.0
H693 H 0.60659 0.29467 0.77388 0.0
H694 H 0.60083 0.30211 0.80172 0.0
H695 H 0.57861 0.3062 0.78167 0.0
C696 C 0.66526 0.28727 0.71162 0.0
N697 N 0.64372 0.29676 0.71157 0.0
N698 N 0.64005 0.30772 0.72987 0.0
C699 C 0.65921 0.30493 0.74241 0.0
C700 C 0.67558 0.29162 0.73124 0.0
C701 C 0.6762 0.27462 0.69308 0.0
H702 H 0.67001 0.28218 0.6777 0.0
H703 H 0.67138 0.2558 0.69378 0.0
H704 H 0.69562 0.27588 0.69378 0.0
O705 O 0.61159 0.32509 0.68036 0.0
O706 O 0.60206 0.34471 0.71002 0.0
H707 H 0.65681 0.33225 0.76587 0.0
H708 H 0.67902 0.31049 0.77165 0.0
C709 C 0.66116 0.31331 0.76509 0.0
H710 H 0.64845 0.30363 0.77521 0.0
H711 H 0.61885 0.37315 0.7486 0.0
O712 O 0.62792 0.27292 0.6676 0.0
C713 C 0.60403 0.34349 0.68962 0.0
Co714 Co 0.95243 0.36588 0.94262 0.0
Co715 Co 0.92373 0.35897 0.98524 0.0
C716 C 0.95999 0.32479 0.97331 0.0
O717 O 0.96344 0.33645 0.95615 0.0
O718 O 0.94536 0.33168 0.98742 0.0
C719 C 0.99635 0.37334 0.92358 0.0
O720 O 0.00295 0.36912 0.94342 0.0
C721 C 0.91012 0.35469 0.0308 0.0
C722 C 0.87783 0.37615 0.03162 0.0
C723 C 0.89296 0.36337 0.04448 0.0
N724 N 0.90533 0.36205 0.01076 0.0
N725 N 0.88585 0.37463 0.01135 0.0
C726 C 0.93199 0.34176 0.0369 0.0
H727 H 0.92923 0.32271 0.03424 0.0
H728 H 0.94683 0.3475 0.02665 0.0
H729 H 0.93652 0.34468 0.05401 0.0
C730 C 0.96209 0.41156 0.96208 0.0
N731 N 0.95158 0.39048 0.96234 0.0
N732 N 0.94085 0.38747 0.98082 0.0
C733 C 0.94503 0.40643 0.99329 0.0
C734 C 0.95876 0.42214 0.98177 0.0
C735 C 0.97405 0.4221 0.94297 0.0
H736 H 0.966 0.41557 0.92793 0.0
H737 H 0.99291 0.41737 0.94323 0.0
H738 H 0.97275 0.44154 0.94335 0.0
O739 O 0.92135 0.36022 0.93107 0.0
O740 O 0.90157 0.35171 0.96085 0.0
H741 H 0.91831 0.41114 0.01691 0.0
H742 H 0.94626 0.4237 0.02425 0.0
C743 C 0.93759 0.40865 0.01622 0.0
H744 H 0.94201 0.39232 0.02497 0.0
H745 H 0.87849 0.38288 0.99799 0.0
O746 O 0.97462 0.37294 0.91907 0.0
C747 C 0.90272 0.35349 0.94044 0.0
Co748 Co 0.87581 0.70335 0.19445 0.0
Co749 Co 0.88527 0.67355 0.236 0.0
C750 C 0.91569 0.71382 0.22534 0.0
O751 O 0.90376 0.71715 0.20834 0.0
O752 O 0.91027 0.69768 0.23855 0.0
C753 C 0.866 0.74694 0.17521 0.0
O754 O 0.86984 0.75399 0.19498 0.0
C755 C 0.88854 0.66255 0.28183 0.0
C756 C 0.88288 0.62418 0.28225 0.0
C757 C 0.88693 0.64332 0.29544 0.0
N758 N 0.88532 0.6551 0.26157 0.0
N759 N 0.88199 0.63215 0.26192 0.0
C760 C 0.89504 0.68725 0.28747 0.0
H761 H 0.88613 0.69973 0.27649 0.0
H762 H 0.89076 0.69158 0.30434 0.0
H763 H 0.91424 0.68941 0.28528 0.0
C764 C 0.82891 0.7069 0.21354 0.0
N765 N 0.85111 0.69897 0.21384 0.0
N766 N 0.85496 0.68751 0.23185 0.0
C767 C 0.83531 0.68861 0.24395 0.0
C768 C 0.81825 0.70084 0.23266 0.0
C769 C 0.81856 0.7214 0.19587 0.0
H770 H 0.82524 0.71535 0.18012 0.0
H771 H 0.82352 0.74002 0.19828 0.0
H772 H 0.79916 0.72035 0.19573 0.0
O773 O 0.88487 0.67328 0.18227 0.0
O774 O 0.89426 0.65257 0.21131 0.0
H775 H 0.83868 0.66006 0.26606 0.0
H776 H 0.81444 0.67957 0.27171 0.0
C777 C 0.83287 0.67862 0.26603 0.0
H778 H 0.84415 0.68862 0.27726 0.0
H779 H 0.87908 0.62194 0.24828 0.0
O780 O 0.86715 0.72515 0.17099 0.0
C781 C 0.89267 0.65466 0.19095 0.0
Co782 Co 0.54414 0.63092 0.44098 0.0
Co783 Co 0.57224 0.63821 0.48394 0.0
C784 C 0.53627 0.67239 0.47098 0.0
O785 O 0.53291 0.66065 0.45386 0.0
O786 O 0.55066 0.66548 0.48527 0.0
C787 C 0.50056 0.62316 0.42144 0.0
O788 O 0.49372 0.62769 0.44115 0.0
C789 C 0.58362 0.64307 0.52986 0.0
C790 C 0.61771 0.62474 0.53178 0.0
C791 C 0.60102 0.63613 0.54413 0.0
N792 N 0.5898 0.6361 0.51002 0.0
N793 N 0.61031 0.62536 0.51127 0.0
C794 C 0.56045 0.65401 0.53517 0.0
H795 H 0.5621 0.67338 0.53409 0.0
H796 H 0.54688 0.64825 0.52356 0.0
H797 H 0.55483 0.64932 0.55167 0.0
C798 C 0.53406 0.58544 0.46089 0.0
N799 N 0.54458 0.60653 0.46106 0.0
N800 N 0.55524 0.60963 0.47958 0.0
C801 C 0.5511 0.5907 0.49209 0.0
C802 C 0.53736 0.57495 0.48062 0.0
C803 C 0.52217 0.57475 0.44181 0.0
H804 H 0.53036 0.58106 0.42676 0.0
H805 H 0.50333 0.57958 0.44192 0.0
H806 H 0.52336 0.55532 0.44238 0.0
O807 O 0.57555 0.63638 0.42989 0.0
O808 O 0.59493 0.64498 0.45989 0.0
H809 H 0.57816 0.58781 0.51565 0.0
H810 H 0.55147 0.57253 0.52266 0.0
C811 C 0.55874 0.58849 0.51496 0.0
H812 H 0.55283 0.6041 0.52407 0.0
H813 H 0.61893 0.61787 0.49818 0.0
O814 O 0.52235 0.62351 0.41715 0.0
C815 C 0.59409 0.64302 0.43948 0.0
Co816 Co 0.38279 0.2897 0.19518 0.0
Co817 Co 0.38646 0.3229 0.23565 0.0
C818 C 0.42122 0.28463 0.22778 0.0
O819 O 0.4106 0.27786 0.2109 0.0
O820 O 0.41394 0.30198 0.23878 0.0
C821 C 0.3765 0.24556 0.175 0.0
O822 O 0.38134 0.23797 0.19442 0.0
C823 C 0.39159 0.33762 0.28085 0.0
C824 C 0.36792 0.36827 0.28232 0.0
C825 C 0.38212 0.35409 0.29487 0.0
N826 N 0.38284 0.34154 0.2611 0.0
N827 N 0.36896 0.36009 0.26206 0.0
C828 C 0.40966 0.31928 0.28567 0.0
H829 H 0.42407 0.32053 0.27379 0.0
H830 H 0.40161 0.30162 0.28425 0.0
H831 H 0.41745 0.3215 0.30183 0.0
C832 C 0.33618 0.28099 0.21314 0.0
N833 N 0.35695 0.2921 0.21351 0.0
N834 N 0.35858 0.30472 0.23114 0.0
C835 C 0.33904 0.3012 0.243 0.0
C836 C 0.32438 0.28595 0.23194 0.0
C837 C 0.32715 0.26675 0.19471 0.0
H838 H 0.33348 0.27412 0.1793 0.0
H839 H 0.33335 0.2484 0.19633 0.0
H840 H 0.30767 0.26656 0.19453 0.0
O841 O 0.38986 0.32038 0.18286 0.0
O842 O 0.3934 0.34432 0.21092 0.0
H843 H 0.33141 0.3296 0.26421 0.0
H844 H 0.32063 0.30159 0.27339 0.0
C845 C 0.33537 0.31058 0.26516 0.0
H846 H 0.35159 0.30823 0.27474 0.0
H847 H 0.35967 0.36677 0.24898 0.0
O848 O 0.37626 0.26752 0.17147 0.0
C849 C 0.39391 0.34057 0.19073 0.0
Co850 Co 0.45108 0.62801 0.93983 0.0
Co851 Co 0.42324 0.63674 0.98274 0.0
C852 C 0.46278 0.66745 0.97079 0.0
O853 O 0.46527 0.65583 0.9535 0.0
O854 O 0.44727 0.66185 0.98455 0.0
C855 C 0.49406 0.61843 0.91989 0.0
O856 O 0.50117 0.62217 0.93966 0.0
C857 C 0.4143 0.64026 0.029 0.0
C858 C 0.37627 0.63308 0.03103 0.0
C859 C 0.39582 0.63818 0.04337 0.0
N860 N 0.40607 0.63635 0.00909 0.0
N861 N 0.38332 0.63209 0.01041 0.0
C862 C 0.43893 0.6479 0.03363 0.0
H863 H 0.45129 0.63936 0.02232 0.0
H864 H 0.44414 0.64405 0.05038 0.0
H865 H 0.44015 0.66714 0.03115 0.0
C866 C 0.45756 0.58165 0.95904 0.0
N867 N 0.4482 0.60326 0.95935 0.0
N868 N 0.43757 0.60674 0.97785 0.0
C869 C 0.44053 0.58739 0.99013 0.0
C870 C 0.45352 0.57111 0.97859 0.0
C871 C 0.47027 0.57098 0.94041 0.0
H872 H 0.46289 0.57748 0.92508 0.0
H873 H 0.48914 0.57558 0.94135 0.0
H874 H 0.46887 0.55155 0.94083 0.0
O875 O 0.42034 0.63682 0.92892 0.0
O876 O 0.40108 0.64577 0.95891 0.0
H877 H 0.4139 0.58996 0.01424 0.0
H878 H 0.43519 0.56703 0.01903 0.0
C879 C 0.43269 0.58515 0.01294 0.0
H880 H 0.44298 0.59734 0.0231 0.0
H881 H 0.37261 0.62852 0.99723 0.0
O882 O 0.47226 0.61967 0.91574 0.0
C883 C 0.40213 0.64441 0.93847 0.0
Co884 Co 0.12035 0.70252 0.69277 0.0
Co885 Co 0.11128 0.67359 0.73504 0.0
C886 C 0.0798 0.71245 0.72327 0.0
O887 O 0.09164 0.71552 0.70617 0.0
O888 O 0.08571 0.69704 0.73702 0.0
C889 C 0.1288 0.7461 0.67324 0.0
O890 O 0.1242 0.75317 0.69287 0.0
C891 C 0.10413 0.66009 0.78044 0.0
C892 C 0.12496 0.62747 0.78238 0.0
C893 C 0.1119 0.64295 0.79469 0.0
N894 N 0.11276 0.65522 0.76082 0.0
N895 N 0.12492 0.63552 0.76207 0.0
C896 C 0.08763 0.67995 0.78488 0.0
H897 H 0.07372 0.6802 0.77248 0.0
H898 H 0.09733 0.6968 0.78401 0.0
H899 H 0.07901 0.67823 0.80074 0.0
C900 C 0.16657 0.70865 0.71258 0.0
N901 N 0.14483 0.69953 0.71252 0.0
N902 N 0.14081 0.68899 0.73094 0.0
C903 C 0.15959 0.69229 0.7438 0.0
C904 C 0.17655 0.70462 0.73245 0.0
C905 C 0.17687 0.72264 0.69455 0.0
H906 H 0.17054 0.71589 0.67892 0.0
H907 H 0.1716 0.74127 0.69633 0.0
H908 H 0.19629 0.7219 0.69467 0.0
O909 O 0.11262 0.672 0.68104 0.0
O910 O 0.10302 0.65195 0.71042 0.0
H911 H 0.16198 0.66545 0.76756 0.0
H912 H 0.17642 0.69235 0.77497 0.0
C913 C 0.16085 0.68485 0.76679 0.0
H914 H 0.14468 0.69041 0.77528 0.0
H915 H 0.13375 0.62792 0.74915 0.0
O916 O 0.12859 0.72425 0.66916 0.0
C917 C 0.10499 0.6535 0.69004 0.0
Co918 Co 0.03476 0.36458 0.44935 0.0
Co919 Co 0.07158 0.35972 0.48671 0.0
C920 C 0.03149 0.326 0.48151 0.0
O921 O 0.02317 0.33716 0.46556 0.0
O922 O 0.0502 0.3326 0.49086 0.0
C923 C 0.98957 0.37035 0.43061 0.0
O924 O 0.98258 0.3641 0.44988 0.0
C925 C 0.08403 0.35752 0.53186 0.0
C926 C 0.12193 0.36551 0.53198 0.0
C927 C 0.10324 0.36014 0.54538 0.0
N928 N 0.09109 0.36102 0.51155 0.0
N929 N 0.11379 0.36569 0.51167 0.0
C930 C 0.05893 0.35365 0.53798 0.0
H931 H 0.04708 0.36073 0.52542 0.0
H932 H 0.05492 0.36218 0.55357 0.0
H933 H 0.05562 0.33453 0.53945 0.0
C934 C 0.03 0.41181 0.4674 0.0
N935 N 0.03975 0.39035 0.46738 0.0
N936 N 0.05468 0.38859 0.48343 0.0
C937 C 0.05445 0.409 0.49448 0.0
C938 C 0.03891 0.42428 0.48457 0.0
C939 C 0.0113 0.4196 0.45208 0.0
H940 H 0.99478 0.41026 0.45589 0.0
H941 H 0.00784 0.43869 0.45309 0.0
H942 H 0.01656 0.41524 0.43542 0.0
O943 O 0.06427 0.35646 0.43507 0.0
O944 O 0.09108 0.35269 0.46083 0.0
H945 H 0.06853 0.43291 0.51811 0.0
H946 H 0.06156 0.40393 0.5278 0.0
C947 C 0.06878 0.41394 0.51406 0.0
H948 H 0.08715 0.40824 0.5114 0.0
H949 H 0.12366 0.36923 0.49794 0.0
O950 O 0.01141 0.37187 0.42679 0.0
C951 C 0.08517 0.35219 0.44109 0.0
Co952 Co 0.37892 0.70103 0.30713 0.0
Co953 Co 0.38692 0.67258 0.26451 0.0
C954 C 0.42018 0.70965 0.27739 0.0
O955 O 0.40837 0.71299 0.29445 0.0
O956 O 0.41358 0.69492 0.26328 0.0
C957 C 0.37103 0.7444 0.32705 0.0
O958 O 0.37565 0.75148 0.30743 0.0
C959 C 0.39083 0.66349 0.21836 0.0
C960 C 0.38185 0.62584 0.21611 0.0
C961 C 0.38807 0.64516 0.2039 0.0
N962 N 0.38621 0.65539 0.23818 0.0
N963 N 0.3809 0.63287 0.23674 0.0
C964 C 0.39965 0.68776 0.21391 0.0
H965 H 0.39147 0.70047 0.22514 0.0
H966 H 0.39636 0.69319 0.19713 0.0
H967 H 0.41887 0.6881 0.2167 0.0
C968 C 0.33345 0.71029 0.28693 0.0
N969 N 0.35462 0.69994 0.28695 0.0
N970 N 0.35776 0.68877 0.26868 0.0
C971 C 0.33866 0.69225 0.2562 0.0
C972 C 0.32288 0.70626 0.26736 0.0
C973 C 0.3229 0.7231 0.30556 0.0
H974 H 0.32886 0.71525 0.32089 0.0
H975 H 0.32824 0.74179 0.30497 0.0
H976 H 0.30345 0.72241 0.30489 0.0
O977 O 0.38515 0.66981 0.31828 0.0
O978 O 0.39417 0.65006 0.28858 0.0
H979 H 0.33977 0.66451 0.23307 0.0
H980 H 0.31838 0.68704 0.22718 0.0
C981 C 0.33617 0.68362 0.23365 0.0
H982 H 0.34915 0.69265 0.22331 0.0
H983 H 0.3766 0.6223 0.24984 0.0
O984 O 0.37117 0.72254 0.33108 0.0
C985 C 0.39218 0.65123 0.30898 0.0
Co986 Co 0.04439 0.62916 0.05792 0.0
Co987 Co 0.07278 0.63628 0.01515 0.0
C988 C 0.03712 0.67078 0.02795 0.0
O989 O 0.03365 0.659 0.04502 0.0
O990 O 0.05146 0.6638 0.01365 0.0
C991 C 0.00066 0.62229 0.07743 0.0
O992 O 0.99388 0.62677 0.05769 0.0
C993 C 0.08474 0.64087 0.96931 0.0
C994 C 0.1184 0.62171 0.96773 0.0
C995 C 0.10209 0.63342 0.95521 0.0
N996 N 0.09058 0.63385 0.98923 0.0
N997 N 0.11084 0.62263 0.98818 0.0
C998 C 0.06188 0.65229 0.96377 0.0
H999 H 0.04803 0.64673 0.97519 0.0
H1000 H 0.05639 0.6478 0.94718 0.0
H1001 H 0.06389 0.67161 0.96497 0.0
C1002 C 0.03391 0.58389 0.03799 0.0
N1003 N 0.04462 0.60487 0.03785 0.0
N1004 N 0.05545 0.60786 0.0194 0.0
C1005 C 0.05124 0.58894 0.0069 0.0
C1006 C 0.03729 0.57332 0.01831 0.0
C1007 C 0.02181 0.57337 0.05704 0.0
H1008 H 0.03003 0.5796 0.07212 0.0
H1009 H 0.00305 0.57848 0.05688 0.0
H1010 H 0.02275 0.55392 0.05651 0.0
O1011 O 0.07574 0.63411 0.06917 0.0
O1012 O 0.09536 0.64288 0.03935 0.0
H1013 H 0.07845 0.58545 0.98355 0.0
H1014 H 0.05147 0.57084 0.97629 0.0
C1015 C 0.05905 0.58661 0.98408 0.0
H1016 H 0.05361 0.60237 0.97496 0.0
H1017 H 0.11915 0.61498 0.00136 0.0
O1018 O 0.02246 0.62218 0.08169 0.0
C1019 C 0.09438 0.64072 0.05974 0.0
Co1020 Co 0.11875 0.29352 0.80792 0.0
Co1021 Co 0.11066 0.32317 0.766 0.0
C1022 C 0.07823 0.28478 0.77732 0.0
O1023 O 0.09001 0.2812 0.79436 0.0
O1024 O 0.08439 0.30035 0.76381 0.0
C1025 C 0.12672 0.24969 0.82717 0.0
O1026 O 0.12217 0.24285 0.80746 0.0
C1027 C 0.10694 0.33463 0.72015 0.0
C1028 C 0.11858 0.37159 0.71953 0.0
C1029 C 0.11119 0.35339 0.70639 0.0
N1030 N 0.11161 0.34152 0.74035 0.0
N1031 N 0.11837 0.36368 0.73989 0.0
C1032 C 0.10052 0.30998 0.71428 0.0
H1033 H 0.10624 0.29759 0.72698 0.0
H1034 H 0.10868 0.30491 0.69878 0.0
H1035 H 0.08118 0.30867 0.71269 0.0
C1036 C 0.1645 0.28563 0.78797 0.0
N1037 N 0.14326 0.29581 0.78813 0.0
N1038 N 0.14009 0.30741 0.77007 0.0
C1039 C 0.15929 0.30439 0.75762 0.0
C1040 C 0.17512 0.29025 0.76856 0.0
C1041 C 0.17485 0.27193 0.80616 0.0
H1042 H 0.16892 0.2792 0.82173 0.0
H1043 H 0.16931 0.25334 0.80488 0.0
H1044 H 0.19431 0.27244 0.80555 0.0
O1045 O 0.11167 0.32422 0.81982 0.0
O1046 O 0.10286 0.3448 0.79056 0.0
H1047 H 0.15779 0.33245 0.73482 0.0
H1048 H 0.17983 0.31056 0.72895 0.0
C1049 C 0.16184 0.31343 0.73521 0.0
H1050 H 0.14927 0.30421 0.72462 0.0
H1051 H 0.12332 0.37326 0.75343 0.0
O1052 O 0.12656 0.2715 0.83145 0.0
C1053 C 0.10459 0.34302 0.81093 0.0
Co1054 Co 0.45188 0.36812 0.55734 0.0
Co1055 Co 0.42282 0.36124 0.51492 0.0
C1056 C 0.4593 0.32705 0.52682 0.0
O1057 O 0.46301 0.33862 0.54398 0.0
O1058 O 0.44451 0.33405 0.5129 0.0
C1059 C 0.4956 0.3751 0.57721 0.0
O1060 O 0.50276 0.37025 0.55766 0.0
C1061 C 0.4103 0.35695 0.46919 0.0
C1062 C 0.37627 0.3755 0.46816 0.0
C1063 C 0.3926 0.36418 0.45536 0.0
N1064 N 0.40464 0.36371 0.48922 0.0
N1065 N 0.38417 0.37458 0.48851 0.0
C1066 C 0.43327 0.34596 0.4633 0.0
H1067 H 0.44717 0.35158 0.47463 0.0
H1068 H 0.43847 0.35075 0.44671 0.0
H1069 H 0.43157 0.32659 0.4643 0.0
C1070 C 0.46171 0.4137 0.53763 0.0
N1071 N 0.45103 0.3927 0.53752 0.0
N1072 N 0.43985 0.38984 0.51924 0.0
C1073 C 0.44377 0.40887 0.50679 0.0
C1074 C 0.45792 0.42443 0.51807 0.0
C1075 C 0.47439 0.42398 0.55646 0.0
H1076 H 0.46636 0.4179 0.57167 0.0
H1077 H 0.49304 0.41849 0.55599 0.0
H1078 H 0.47382 0.44345 0.55597 0.0
O1079 O 0.42076 0.36245 0.56888 0.0
O1080 O 0.40065 0.354 0.53927 0.0
H1081 H 0.41619 0.41205 0.48377 0.0
H1082 H 0.44277 0.42731 0.47636 0.0
C1083 C 0.43562 0.4113 0.48408 0.0
H1084 H 0.44127 0.39576 0.47475 0.0
H1085 H 0.37591 0.38196 0.50185 0.0
O1086 O 0.47373 0.37531 0.58112 0.0
C1087 C 0.40202 0.35578 0.55966 0.0
H1088 H 0.08775 0.16851 0.07007 0.0
H1089 H 0.11399 0.10125 0.17994 0.0
H1090 H 0.12005 0.10012 0.07212 0.0
H1091 H 0.10836 0.17661 0.17576 0.0
H1092 H 0.1112 0.099 0.14071 0.0
H1093 H 0.08958 0.1703 0.10934 0.0
C1094 C 0.09499 0.15378 0.07882 0.0
C1095 C 0.10352 0.13402 0.06792 0.0
C1096 C 0.11032 0.11599 0.14845 0.0
C1097 C 0.10581 0.13599 0.11271 0.0
C1098 C 0.11186 0.11729 0.1708 0.0
C1099 C 0.11052 0.13907 0.18123 0.0
C1100 C 0.10744 0.13664 0.13644 0.0
C1101 C 0.10824 0.15934 0.16857 0.0
C1102 C 0.09621 0.15489 0.10118 0.0
C1103 C 0.11327 0.11566 0.07997 0.0
N1104 N 0.1066 0.15762 0.14687 0.0
N1105 N 0.11401 0.11699 0.10175 0.0
H1106 H 0.06755 0.86483 0.42511 0.0
H1107 H 0.14898 0.86386 0.32152 0.0
H1108 H 0.14254 0.8557 0.42903 0.0
H1109 H 0.07632 0.843 0.31933 0.0
H1110 H 0.14654 0.86596 0.36075 0.0
H1111 H 0.06996 0.8615 0.38606 0.0
C1112 C 0.08446 0.86151 0.41782 0.0
C1113 C 0.10477 0.85949 0.43042 0.0
C1114 C 0.13118 0.86081 0.35169 0.0
C1115 C 0.10779 0.85703 0.38565 0.0
C1116 C 0.13252 0.85971 0.32934 0.0
C1117 C 0.11289 0.85297 0.31727 0.0
C1118 C 0.10989 0.85565 0.36198 0.0
C1119 C 0.09196 0.84784 0.32812 0.0
C1120 C 0.08584 0.85993 0.3955 0.0
C1121 C 0.12641 0.85691 0.41993 0.0
N1122 N 0.09096 0.84941 0.34989 0.0
N1123 N 0.12736 0.85576 0.39815 0.0
H1124 H 0.36343 0.82551 0.67731 0.0
H1125 H 0.42335 0.88202 0.57303 0.0
H1126 H 0.41405 0.88157 0.6801 0.0
H1127 H 0.36538 0.83358 0.57026 0.0
H1128 H 0.42241 0.87989 0.61228 0.0
H1129 H 0.36601 0.82597 0.63809 0.0
C1130 C 0.37543 0.83761 0.66962 0.0
C1131 C 0.38903 0.8531 0.68187 0.0
C1132 C 0.41 0.86958 0.60312 0.0
C1133 C 0.39163 0.85422 0.63707 0.0
C1134 C 0.41073 0.87057 0.58073 0.0
C1135 C 0.39482 0.85744 0.56848 0.0
C1136 C 0.39316 0.85542 0.6133 0.0
C1137 C 0.37812 0.84374 0.5792 0.0
C1138 C 0.3767 0.83807 0.64725 0.0
C1139 C 0.40349 0.86917 0.67116 0.0
N1140 N 0.37778 0.84298 0.60101 0.0
N1141 N 0.40451 0.86925 0.64935 0.0
H1142 H 0.41345 0.115 0.81789 0.0
H1143 H 0.36386 0.16342 0.92957 0.0
H1144 H 0.36541 0.17318 0.82242 0.0
H1145 H 0.42299 0.11657 0.925 0.0
H1146 H 0.3627 0.16588 0.89028 0.0
H1147 H 0.41585 0.11385 0.85717 0.0
C1148 C 0.40359 0.12766 0.82722 0.0
C1149 C 0.38968 0.14457 0.81701 0.0
C1150 C 0.37609 0.15526 0.89786 0.0
C1151 C 0.39194 0.14317 0.86181 0.0
C1152 C 0.37672 0.15384 0.92023 0.0
C1153 C 0.39391 0.14026 0.93043 0.0
C1154 C 0.39249 0.14259 0.88563 0.0
C1155 C 0.40995 0.12785 0.91771 0.0
C1156 C 0.40497 0.12704 0.84959 0.0
C1157 C 0.37694 0.16037 0.82972 0.0
N1158 N 0.40883 0.12926 0.89595 0.0
N1159 N 0.37832 0.15925 0.85148 0.0
H1160 H 0.92238 0.88266 0.9281 0.0
H1161 H 0.86866 0.82033 0.82379 0.0
H1162 H 0.8686 0.82962 0.93085 0.0
H1163 H 0.91262 0.88176 0.82103 0.0
H1164 H 0.87107 0.82115 0.86303 0.0
H1165 H 0.92174 0.88036 0.88885 0.0
C1166 C 0.91076 0.87021 0.92039 0.0
C1167 C 0.89595 0.85585 0.93263 0.0
C1168 C 0.88034 0.83437 0.85387 0.0
C1169 C 0.89463 0.85354 0.88782 0.0
C1170 C 0.87919 0.83373 0.83149 0.0
C1171 C 0.89098 0.85065 0.81925 0.0
C1172 C 0.89332 0.85212 0.86406 0.0
C1173 C 0.90352 0.86825 0.82997 0.0
C1174 C 0.91019 0.86909 0.89801 0.0
C1175 C 0.88046 0.84078 0.92191 0.0
N1176 N 0.90448 0.86847 0.85178 0.0
N1177 N 0.88028 0.83991 0.9001 0.0
H1178 H 0.88034 0.10386 0.68189 0.0
H1179 H 0.90747 0.16829 0.57085 0.0
H1180 H 0.88978 0.17879 0.67692 0.0
H1181 H 0.87269 0.10122 0.5744 0.0
H1182 H 0.90632 0.17092 0.6101 0.0
H1183 H 0.8824 0.10101 0.64273 0.0
C1184 C 0.88317 0.11967 0.6726 0.0
C1185 C 0.88566 0.14149 0.68281 0.0
C1186 C 0.89898 0.15562 0.60228 0.0
C1187 C 0.88791 0.13836 0.638 0.0
C1188 C 0.89979 0.15402 0.57993 0.0
C1189 C 0.89044 0.13436 0.56946 0.0
C1190 C 0.88893 0.1373 0.61423 0.0
C1191 C 0.88014 0.11665 0.58192 0.0
C1192 C 0.88427 0.11803 0.65026 0.0
C1193 C 0.88891 0.16145 0.66992 0.0
N1194 N 0.87982 0.11844 0.60368 0.0
N1195 N 0.89007 0.15939 0.64821 0.0
H1196 H 0.64615 0.12345 0.32214 0.0
H1197 H 0.56511 0.13686 0.4252 0.0
H1198 H 0.57727 0.15451 0.31909 0.0
H1199 H 0.64067 0.13583 0.42938 0.0
H1200 H 0.56812 0.13904 0.38618 0.0
H1201 H 0.64333 0.12288 0.36145 0.0
C1202 C 0.63044 0.13013 0.32979 0.0
C1203 C 0.61204 0.13933 0.31747 0.0
C1204 C 0.58403 0.13867 0.39567 0.0
C1205 C 0.60855 0.13846 0.3622 0.0
C1206 C 0.58235 0.13779 0.41801 0.0
C1207 C 0.6027 0.13715 0.4307 0.0
C1208 C 0.6062 0.1382 0.38588 0.0
C1209 C 0.62453 0.13667 0.42025 0.0
C1210 C 0.62889 0.12992 0.35216 0.0
C1211 C 0.59202 0.1477 0.32808 0.0
N1212 N 0.62571 0.13715 0.39846 0.0
N1213 N 0.59074 0.14696 0.34986 0.0
H1214 H 0.616 0.8967 0.07364 0.0
H1215 H 0.6106 0.81467 0.17678 0.0
H1216 H 0.59214 0.82499 0.07049 0.0
H1217 H 0.60693 0.89018 0.18066 0.0
H1218 H 0.60748 0.81733 0.13774 0.0
H1219 H 0.61706 0.89388 0.11284 0.0
C1220 C 0.61096 0.88037 0.08125 0.0
C1221 C 0.60368 0.86114 0.06889 0.0
C1222 C 0.60703 0.83328 0.14718 0.0
C1223 C 0.6051 0.85769 0.11362 0.0
C1224 C 0.60847 0.83178 0.16951 0.0
C1225 C 0.60809 0.85222 0.1821 0.0
C1226 C 0.60586 0.85539 0.13731 0.0
C1227 C 0.60693 0.87397 0.17159 0.0
C1228 C 0.61145 0.87881 0.10358 0.0
C1229 C 0.59741 0.84035 0.07949 0.0
N1230 N 0.6059 0.875 0.14982 0.0
N1231 N 0.59837 0.83912 0.10128 0.0
H1232 H 0.58867 0.67408 0.56882 0.0
H1233 H 0.60951 0.60756 0.6802 0.0
H1234 H 0.61491 0.60326 0.57309 0.0
H1235 H 0.60624 0.68299 0.67516 0.0
H1236 H 0.60657 0.60479 0.64111 0.0
H1237 H 0.58981 0.67686 0.60809 0.0
C1238 C 0.59442 0.65905 0.57805 0.0
C1239 C 0.60143 0.63831 0.56777 0.0
C1240 C 0.60624 0.62194 0.64859 0.0
C1241 C 0.60296 0.6414 0.61254 0.0
C1242 C 0.60787 0.62353 0.67089 0.0
C1243 C 0.6074 0.6455 0.68104 0.0
C1244 C 0.60419 0.64248 0.6363 0.0
C1245 C 0.6056 0.66564 0.66816 0.0
C1246 C 0.59525 0.6607 0.60041 0.0
C1247 C 0.60933 0.61955 0.58043 0.0
N1248 N 0.60396 0.66365 0.64646 0.0
N1249 N 0.60974 0.62148 0.60216 0.0
H1250 H 0.57115 0.38016 0.92667 0.0
H1251 H 0.62986 0.32099 0.8231 0.0
H1252 H 0.62969 0.33246 0.9301 0.0
H1253 H 0.58237 0.37972 0.8197 0.0
H1254 H 0.6271 0.32194 0.86233 0.0
H1255 H 0.57203 0.3773 0.88744 0.0
C1256 C 0.5839 0.36874 0.91912 0.0
C1257 C 0.60001 0.35605 0.93154 0.0
C1258 C 0.61714 0.33452 0.85302 0.0
C1259 C 0.60154 0.35312 0.88677 0.0
C1260 C 0.6185 0.33379 0.83065 0.0
C1261 C 0.60585 0.34994 0.81824 0.0
C1262 C 0.60304 0.35155 0.86302 0.0
C1263 C 0.59218 0.36682 0.82878 0.0
C1264 C 0.58459 0.36731 0.89676 0.0
C1265 C 0.61682 0.34229 0.92101 0.0
N1266 N 0.59102 0.36712 0.85057 0.0
N1267 N 0.61709 0.34108 0.89922 0.0
H1268 H 0.89515 0.3922 0.18075 0.0
H1269 H 0.89778 0.32416 0.06941 0.0
H1270 H 0.87174 0.32046 0.17465 0.0
H1271 H 0.8849 0.39861 0.07297 0.0
H1272 H 0.89513 0.32194 0.10872 0.0
H1273 H 0.89764 0.39465 0.14158 0.0
C1274 C 0.89074 0.37687 0.17129 0.0
C1275 C 0.88403 0.3558 0.18127 0.0
C1276 C 0.89291 0.33874 0.10086 0.0
C1277 C 0.88704 0.35851 0.13645 0.0
C1278 C 0.89457 0.34003 0.07852 0.0
C1279 C 0.89169 0.36161 0.06808 0.0
C1280 C 0.88874 0.35925 0.11277 0.0
C1281 C 0.8872 0.38164 0.08051 0.0
C1282 C 0.89218 0.37833 0.14895 0.0
C1283 C 0.87825 0.33666 0.16805 0.0
N1284 N 0.88606 0.38003 0.10225 0.0
N1285 N 0.88011 0.33841 0.14636 0.0
H1286 H 0.91302 0.61368 0.31991 0.0
H1287 H 0.86139 0.66086 0.43155 0.0
H1288 H 0.86304 0.6702 0.32451 0.0
H1289 H 0.91758 0.61049 0.4271 0.0
H1290 H 0.8607 0.66363 0.39228 0.0
H1291 H 0.91414 0.61138 0.35917 0.0
C1292 C 0.90247 0.62574 0.32926 0.0
C1293 C 0.88842 0.64257 0.31907 0.0
C1294 C 0.87333 0.65211 0.39988 0.0
C1295 C 0.88923 0.63984 0.36387 0.0
C1296 C 0.87367 0.65051 0.42225 0.0
C1297 C 0.88998 0.63591 0.43248 0.0
C1298 C 0.88917 0.6387 0.38769 0.0
C1299 C 0.9053 0.62258 0.41979 0.0
C1300 C 0.90309 0.62445 0.35162 0.0
C1301 C 0.87475 0.65755 0.3318 0.0
N1302 N 0.90454 0.6243 0.39805 0.0
N1303 N 0.87547 0.65583 0.35356 0.0
H1304 H 0.40391 0.32633 0.43022 0.0
H1305 H 0.38326 0.39372 0.31934 0.0
H1306 H 0.37836 0.39746 0.42689 0.0
H1307 H 0.38454 0.31824 0.32433 0.0
H1308 H 0.38596 0.39635 0.35853 0.0
H1309 H 0.40191 0.32388 0.39099 0.0
C1310 C 0.39812 0.34149 0.4212 0.0
C1311 C 0.39157 0.36223 0.43173 0.0
C1312 C 0.38588 0.37922 0.351 0.0
C1313 C 0.38905 0.35952 0.38699 0.0
C1314 C 0.38439 0.37771 0.32866 0.0
C1315 C 0.38452 0.35575 0.3185 0.0
C1316 C 0.38747 0.3586 0.36325 0.0
C1317 C 0.38556 0.33555 0.33137 0.0
C1318 C 0.39679 0.34003 0.39885 0.0
C1319 C 0.3836 0.38117 0.41934 0.0
N1320 N 0.38715 0.33746 0.35306 0.0
N1321 N 0.38271 0.37943 0.3976 0.0
H1322 H 0.42456 0.61551 0.07169 0.0
H1323 H 0.367 0.6751 0.1756 0.0
H1324 H 0.3669 0.66431 0.06859 0.0
H1325 H 0.41301 0.61518 0.17869 0.0
H1326 H 0.36983 0.67439 0.13637 0.0
H1327 H 0.42372 0.61807 0.11095 0.0
C1328 C 0.41202 0.62711 0.07932 0.0
C1329 C 0.39615 0.64018 0.06699 0.0
C1330 C 0.37945 0.66149 0.14561 0.0
C1331 C 0.39466 0.64278 0.11177 0.0
C1332 C 0.37806 0.66208 0.16798 0.0
C1333 C 0.39027 0.64553 0.1803 0.0
C1334 C 0.39315 0.6442 0.13553 0.0
C1335 C 0.40355 0.62839 0.16968 0.0
C1336 C 0.41135 0.62836 0.10169 0.0
C1337 C 0.37959 0.65417 0.0776 0.0
N1338 N 0.40475 0.62823 0.14789 0.0
N1339 N 0.37935 0.65522 0.0994 0.0
H1340 H 0.0914 0.67162 0.93027 0.0
H1341 H 0.10794 0.60359 0.81919 0.0
H1342 H 0.11471 0.59975 0.92652 0.0
H1343 H 0.11122 0.67903 0.82413 0.0
H1344 H 0.10507 0.60116 0.85835 0.0
H1345 H 0.09287 0.67407 0.89098 0.0
C1346 C 0.09659 0.65631 0.92115 0.0
C1347 C 0.1027 0.63537 0.93157 0.0
C1348 C 0.10616 0.61825 0.85081 0.0
C1349 C 0.10454 0.63805 0.8868 0.0
C1350 C 0.10774 0.61965 0.82849 0.0
C1351 C 0.10902 0.64156 0.81829 0.0
C1352 C 0.10587 0.63893 0.86306 0.0
C1353 C 0.10911 0.66181 0.83116 0.0
C1354 C 0.0976 0.65776 0.89878 0.0
C1355 C 0.10985 0.6162 0.91906 0.0
N1356 N 0.10741 0.66001 0.85286 0.0
N1357 N 0.11042 0.61794 0.89731 0.0
H1358 H 0.13895 0.37871 0.67943 0.0
H1359 H 0.07872 0.33047 0.57214 0.0
H1360 H 0.08018 0.33101 0.67918 0.0
H1361 H 0.13089 0.38529 0.57268 0.0
H1362 H 0.0802 0.3291 0.61123 0.0
H1363 H 0.13729 0.38028 0.64028 0.0
C1364 C 0.12575 0.36847 0.67114 0.0
C1365 C 0.11004 0.35426 0.68263 0.0
C1366 C 0.09121 0.34155 0.60282 0.0
C1367 C 0.108 0.35601 0.63775 0.0
C1368 C 0.09018 0.34253 0.58046 0.0
C1369 C 0.10419 0.35853 0.56911 0.0
C1370 C 0.10657 0.35648 0.61396 0.0
C1371 C 0.11963 0.37284 0.5808 0.0
C1372 C 0.12484 0.36935 0.64878 0.0
C1373 C 0.09321 0.34152 0.67104 0.0
N1374 N 0.12034 0.37154 0.60257 0.0
N1375 N 0.09268 0.34265 0.64925 0.0
H1376 H 0.93 0.23767 0.27493 0.0
H1377 H 0.06404 0.25764 0.27632 0.0
H1378 H 0.95793 0.30478 0.25555 0.0
H1379 H 0.03646 0.19196 0.25287 0.0
H1380 H 0.02537 0.27559 0.27111 0.0
H1381 H 0.96877 0.22009 0.26925 0.0
C1382 C 0.94424 0.24861 0.26923 0.0
C1383 C 0.94089 0.27269 0.26579 0.0
C1384 C 0.02795 0.25737 0.26676 0.0
C1385 C 0.9851 0.25289 0.25974 0.0
C1386 C 0.04991 0.24712 0.2698 0.0
C1387 C 0.05332 0.22331 0.26508 0.0
C1388 C 0.00919 0.24349 0.2596 0.0
C1389 C 0.0345 0.21041 0.25664 0.0
C1390 C 0.96625 0.23857 0.2659 0.0
C1391 C 0.95984 0.28612 0.25834 0.0
N1392 N 0.01303 0.22055 0.25459 0.0
N1393 N 0.98133 0.27612 0.25599 0.0
H1394 H 0.93865 0.70789 0.50527 0.0
H1395 H 0.05345 0.78688 0.50305 0.0
H1396 H 0.00576 0.68124 0.52607 0.0
H1397 H 0.98785 0.81316 0.52792 0.0
H1398 H 0.03537 0.74809 0.49861 0.0
H1399 H 0.95635 0.74687 0.5007 0.0
C1400 C 0.95721 0.71013 0.50839 0.0
C1401 C 0.9708 0.69145 0.51618 0.0
C1402 C 0.02492 0.76252 0.50469 0.0
C1403 C 0.99099 0.73558 0.51067 0.0
C1404 C 0.03512 0.78461 0.50713 0.0
C1405 C 0.02211 0.80313 0.516 0.0
C1406 C 0.00145 0.75919 0.51063 0.0
C1407 C -0.00152 0.79924 0.52118 0.0
C1408 C 0.96719 0.73232 0.5059 0.0
C1409 C 0.9947 0.69529 0.52018 0.0
N1410 N 0.98885 0.77763 0.5184 0.0
N1411 N 0.00409 0.71698 0.51736 0.0
H1412 H 0.44445 0.78318 0.74171 0.0
H1413 H 0.551 0.73567 0.80967 0.0
H1414 H 0.43793 0.75894 0.80713 0.0
H1415 H 0.54718 0.71872 0.74218 0.0
H1416 H 0.51169 0.75205 0.80774 0.0
H1417 H 0.48387 0.76554 0.74018 0.0
C1418 C 0.45114 0.77397 0.75562 0.0
C1419 C 0.43789 0.77267 0.77462 0.0
C1420 C 0.51949 0.7448 0.79333 0.0
C1421 C 0.48285 0.75315 0.77307 0.0
C1422 C 0.54203 0.73559 0.79435 0.0
C1423 C 0.5524 0.72562 0.77607 0.0
C1424 C 0.50722 0.74443 0.77385 0.0
C1425 C 0.53977 0.72608 0.75668 0.0
C1426 C 0.47357 0.76397 0.75471 0.0
C1427 C 0.44743 0.76048 0.79215 0.0
N1428 N 0.51775 0.7354 0.75604 0.0
N1429 N 0.46941 0.75152 0.79104 0.0
H1430 H 0.46443 0.19731 0.99022 0.0
H1431 H 0.50801 0.30564 0.05812 0.0
H1432 H 0.48475 0.19268 0.05688 0.0
H1433 H 0.53125 0.299 0.99238 0.0
H1434 H 0.49058 0.26681 0.05586 0.0
H1435 H 0.48188 0.23688 0.98873 0.0
C1436 C 0.47266 0.20449 0.00444 0.0
C1437 C 0.47306 0.1917 0.02372 0.0
C1438 C 0.49941 0.27391 0.0419 0.0
C1439 C 0.49233 0.23672 0.0222 0.0
C1440 C 0.50925 0.29615 0.04309 0.0
C1441 C 0.52133 0.30555 0.02545 0.0
C1442 C 0.50128 0.26097 0.02287 0.0
C1443 C 0.52226 0.29232 0.00641 0.0
C1444 C 0.48258 0.22696 0.00354 0.0
C1445 C 0.484 0.2018 0.04166 0.0
N1446 N 0.51232 0.27058 0.00558 0.0
N1447 N 0.4929 0.22379 0.04052 0.0
H1448 H 0.94563 0.71479 0.26025 0.0
H1449 H 0.04985 0.76384 0.19122 0.0
H1450 H 0.93656 0.7428 0.19635 0.0
H1451 H 0.04806 0.78108 0.25872 0.0
H1452 H 0.01042 0.74797 0.19407 0.0
H1453 H 0.98491 0.73282 0.26151 0.0
C1454 C 0.95171 0.72492 0.24664 0.0
C1455 C 0.93782 0.7271 0.22809 0.0
C1456 C 0.01868 0.75518 0.20828 0.0
C1457 C 0.98259 0.74708 0.22932 0.0
C1458 C 0.04128 0.76409 0.20674 0.0
C1459 C 0.05228 0.77394 0.22476 0.0
C1460 C 0.00697 0.75568 0.22803 0.0
C1461 C 0.04015 0.77376 0.24442 0.0
C1462 C 0.97405 0.73515 0.2474 0.0
C1463 C 0.94658 0.74048 0.21095 0.0
N1464 N 0.01806 0.76465 0.24559 0.0
N1465 N 0.9685 0.74961 0.21187 0.0
H1466 H 0.51644 0.69816 0.43911 0.0
H1467 H 0.465 0.80179 0.50793 0.0
H1468 H 0.53046 0.6997 0.50722 0.0
H1469 H 0.49215 0.81102 0.44375 0.0
H1470 H 0.48366 0.76285 0.5092 0.0
H1471 H 0.50051 0.73765 0.44144 0.0
C1472 C 0.51596 0.7067 0.45464 0.0
C1473 C 0.52486 0.6956 0.47301 0.0
C1474 C 0.48568 0.77366 0.49502 0.0
C1475 C 0.50659 0.74096 0.4757 0.0
C1476 C 0.47508 0.79582 0.49425 0.0
C1477 C 0.47681 0.80964 0.47562 0.0
C1478 C 0.49757 0.76522 0.47688 0.0
C1479 C 0.49017 0.80102 0.45841 0.0
C1480 C 0.50705 0.72934 0.45589 0.0
C1481 C 0.52386 0.70769 0.49266 0.0
N1482 N 0.49969 0.77926 0.45934 0.0
N1483 N 0.51473 0.72979 0.49355 0.0
H1484 H 0.44666 0.21587 0.75776 0.0
H1485 H 0.55904 0.25428 0.69236 0.0
H1486 H 0.44622 0.23082 0.6898 0.0
H1487 H 0.54854 0.28222 0.75613 0.0
H1488 H 0.52045 0.23627 0.69405 0.0
H1489 H 0.48645 0.23274 0.76001 0.0
C1490 C 0.45483 0.22279 0.7434 0.0
C1491 C 0.44313 0.22195 0.72355 0.0
C1492 C 0.52667 0.24624 0.70772 0.0
C1493 C 0.48839 0.24048 0.72598 0.0
C1494 C 0.54877 0.25644 0.70686 0.0
C1495 C 0.55697 0.27009 0.72404 0.0
C1496 C 0.51268 0.24936 0.72597 0.0
C1497 C 0.5428 0.27204 0.74244 0.0
C1498 C 0.47742 0.23238 0.74472 0.0
C1499 C 0.45448 0.23116 0.70544 0.0
N1500 N 0.5212 0.26181 0.74293 0.0
N1501 N 0.47654 0.23977 0.70706 0.0
H1502 H 0.03173 0.19486 0.00935 0.0
H1503 H 0.98161 0.29988 0.94187 0.0
H1504 H 0.00404 0.18684 0.94521 0.0
H1505 H 0.96467 0.29685 0.0094 0.0
H1506 H 0.99783 0.26056 0.94411 0.0
H1507 H 0.01334 0.23397 0.0112 0.0
C1508 C 0.02161 0.20114 0.9958 0.0
C1509 C 0.01962 0.1876 0.97701 0.0
C1510 C 0.99061 0.26852 0.95846 0.0
C1511 C -0.00081 0.23216 0.97895 0.0
C1512 C 0.9815 0.29107 0.95727 0.0
C1513 C 0.97164 0.3017 0.97548 0.0
C1514 C 0.99032 0.25647 0.97805 0.0
C1515 C 0.972 0.28923 0.99496 0.0
C1516 C 0.01116 0.22338 0.99691 0.0
C1517 C 0.00623 0.1966 0.95998 0.0
N1518 N 0.98131 0.26719 0.99579 0.0
N1519 N 0.99688 0.2184 0.96125 0.0
H1520 H 0.94308 0.75999 0.69204 0.0
H1521 H 0.05203 0.71704 0.75937 0.0
H1522 H 0.94964 0.78222 0.75806 0.0
H1523 H 0.05616 0.73665 0.69251 0.0
H1524 H 0.01261 0.73468 0.76103 0.0
H1525 H 0.98229 0.74338 0.69381 0.0
C1526 C 0.95264 0.76118 0.70702 0.0
C1527 C 0.94306 0.7727 0.7249 0.0
C1528 C 0.02239 0.73523 0.74613 0.0
C1529 C 0.98812 0.75361 0.72694 0.0
C1530 C 0.04479 0.72518 0.74513 0.0
C1531 C 0.05737 0.72523 0.72573 0.0
C1532 C 0.01246 0.7448 0.72748 0.0
C1533 C 0.04718 0.73613 0.70781 0.0
C1534 C 0.97511 0.75183 0.70794 0.0
C1535 C 0.95642 0.77363 0.74386 0.0
N1536 N 0.02524 0.74516 0.70906 0.0
N1537 N 0.97837 0.76415 0.74443 0.0
H1538 H 0.9853 0.31377 0.47845 0.0
H1539 H 0.00828 0.18017 0.4762 0.0
H1540 H 0.05287 0.28718 0.49805 0.0
H1541 H 0.94188 0.20615 0.4995 0.0
H1542 H 0.02534 0.21918 0.48189 0.0
H1543 H 0.96856 0.27459 0.48389 0.0
C1544 C 0.99651 0.29975 0.4842 0.0
C1545 C 0.02048 0.30362 0.48774 0.0
C1546 C 0.00715 0.21617 0.48611 0.0
C1547 C 0.00165 0.25889 0.49345 0.0
C1548 C 0.99741 0.19401 0.4828 0.0
C1549 C 0.97364 0.19003 0.48731 0.0
C1550 C 0.99282 0.23457 0.49333 0.0
C1551 C 0.9603 0.20851 0.49586 0.0
C1552 C 0.98695 0.27749 0.48736 0.0
C1553 C 0.03427 0.2849 0.4952 0.0
N1554 N 0.96995 0.23017 0.49816 0.0
N1555 N 0.02476 0.26316 0.49736 0.0
H1556 H 0.45962 0.30499 0.24602 0.0
H1557 H 0.53845 0.18991 0.24594 0.0
H1558 H 0.43364 0.23876 0.22232 0.0
H1559 H 0.56533 0.25649 0.22397 0.0
H1560 H 0.49963 0.20795 0.25047 0.0
H1561 H 0.49845 0.28706 0.25099 0.0
C1562 C 0.46197 0.28657 0.24231 0.0
C1563 C 0.44354 0.27331 0.23361 0.0
C1564 C 0.51421 0.21861 0.24504 0.0
C1565 C 0.48745 0.25283 0.23962 0.0
C1566 C 0.5363 0.20844 0.24256 0.0
C1567 C 0.55499 0.22175 0.23441 0.0
C1568 C 0.51104 0.24234 0.23988 0.0
C1569 C 0.55127 0.24563 0.23012 0.0
C1570 C 0.48407 0.27645 0.24506 0.0
C1571 C 0.44751 0.24958 0.2289 0.0
N1572 N 0.52966 0.25521 0.2329 0.0
N1573 N 0.46909 0.24004 0.23199 0.0
H1574 H 0.53176 0.79851 0.00919 0.0
H1575 H 0.49307 0.68704 0.94216 0.0
H1576 H 0.51888 0.79921 0.94088 0.0
H1577 H 0.46431 0.69744 0.00563 0.0
H1578 H 0.51204 0.72512 0.94455 0.0
H1579 H 0.51463 0.75877 0.01089 0.0
C1580 C 0.52527 0.7904 0.99464 0.0
C1581 C 0.52671 0.80219 0.97487 0.0
C1582 C 0.50169 0.71898 0.95801 0.0
C1583 C 0.5079 0.75698 0.97668 0.0
C1584 C 0.49092 0.69718 0.95674 0.0
C1585 C 0.47675 0.68912 0.97362 0.0
C1586 C 0.49859 0.73285 0.97635 0.0
C1587 C 0.47487 0.70309 0.99216 0.0
C1588 C 0.51554 0.76784 0.99564 0.0
C1589 C 0.51806 0.79091 0.95649 0.0
N1590 N 0.48563 0.72443 0.99303 0.0
N1591 N 0.50928 0.76889 0.95782 0.0
H1592 H 0.94321 0.23437 0.80973 0.0
H1593 H 0.04904 0.28318 0.74188 0.0
H1594 H 0.94746 0.21575 0.74262 0.0
H1595 H 0.05589 0.25785 0.80695 0.0
H1596 H 0.00969 0.26527 0.74022 0.0
H1597 H 0.98205 0.25167 0.80743 0.0
C1598 C 0.95217 0.23411 0.79441 0.0
C1599 C 0.94208 0.22338 0.77637 0.0
C1600 C 0.02006 0.26355 0.75469 0.0
C1601 C 0.98672 0.2433 0.77372 0.0
C1602 C 0.04242 0.27372 0.75569 0.0
C1603 C 0.05574 0.27216 0.77464 0.0
C1604 C 0.01096 0.25232 0.77291 0.0
C1605 C 0.04633 0.25964 0.79203 0.0
C1606 C 0.97444 0.24387 0.79318 0.0
C1607 C 0.95469 0.22367 0.75695 0.0
N1608 N 0.02444 0.25052 0.79083 0.0
N1609 N 0.97646 0.23354 0.7561 0.0
H1610 H 0.46391 0.29986 0.49033 0.0
H1611 H 0.5043 0.1884 0.55656 0.0
H1612 H 0.48033 0.30123 0.55799 0.0
H1613 H 0.52894 0.19734 0.49149 0.0
H1614 H 0.48636 0.22705 0.55493 0.0
H1615 H 0.48045 0.25991 0.48829 0.0
C1616 C 0.47108 0.29187 0.50467 0.0
C1617 C 0.47074 0.30391 0.52436 0.0
C1618 C 0.49558 0.22048 0.54096 0.0
C1619 C 0.48893 0.25841 0.5222 0.0
C1620 C 0.50573 0.19833 0.5418 0.0
C1621 C 0.51845 0.18966 0.52421 0.0
C1622 C 0.4978 0.23407 0.52234 0.0
C1623 C 0.51951 0.20344 0.5055 0.0
C1624 C 0.48047 0.26917 0.50347 0.0
C1625 C 0.48026 0.29274 0.54245 0.0
N1626 N 0.50934 0.22508 0.50504 0.0
N1627 N 0.48869 0.27058 0.54097 0.0
H1628 H 0.44787 0.7146 0.24131 0.0
H1629 H 0.55792 0.7561 0.30912 0.0
H1630 H 0.44529 0.73084 0.30898 0.0
H1631 H 0.55038 0.77866 0.24328 0.0
H1632 H 0.5193 0.73813 0.30727 0.0
H1633 H 0.48776 0.73121 0.23988 0.0
C1634 C 0.45559 0.72176 0.25578 0.0
C1635 C 0.44323 0.72134 0.2753 0.0
C1636 C 0.52616 0.74692 0.29319 0.0
C1637 C 0.48868 0.73962 0.27382 0.0
C1638 C 0.5483 0.75707 0.29415 0.0
C1639 C 0.55735 0.7692 0.27639 0.0
C1640 C 0.51298 0.74857 0.27427 0.0
C1641 C 0.54398 0.76971 0.25742 0.0
C1642 C 0.47826 0.73119 0.25493 0.0
C1643 C 0.45404 0.73085 0.29357 0.0
N1644 N 0.52235 0.75956 0.25685 0.0
N1645 N 0.4762 0.73934 0.29242 0.0
H1646 H 0.01742 0.69638 0.05996 0.0
H1647 H 0.9655 0.80048 0.9924 0.0
H1648 H 0.03148 0.69844 0.99186 0.0
H1649 H 0.99393 0.80936 0.05617 0.0
H1650 H 0.98416 0.76155 0.99064 0.0
H1651 H 0.00159 0.7359 0.05791 0.0
C1652 C 0.01699 0.70504 0.04449 0.0
C1653 C 0.02587 0.69407 0.02604 0.0
C1654 C 0.98646 0.77228 0.00483 0.0
C1655 C 0.00767 0.73948 0.02368 0.0
C1656 C 0.97586 0.79443 0.00588 0.0
C1657 C 0.97795 0.80814 0.02455 0.0
C1658 C -0.00129 0.76376 0.02273 0.0
C1659 C 0.99166 0.79944 0.0415 0.0
C1660 C 0.00811 0.7277 0.0434 0.0
C1661 C 0.02489 0.70632 0.00648 0.0
N1662 N 0.00117 0.7777 0.0403 0.0
N1663 N 0.0158 0.72845 0.00575 0.0
H1664 H 0.1177 0.29938 0.31849 0.0
H1665 H 0.11785 0.31735 0.4452 0.0
H1666 H 0.13077 0.24408 0.36432 0.0
H1667 H 0.08857 0.36612 0.39957 0.0
H1668 H 0.13499 0.29505 0.41539 0.0
H1669 H 0.11888 0.32794 0.34766 0.0
C1670 C 0.12108 0.29325 0.33465 0.0
C1671 C 0.12357 0.26925 0.33906 0.0
C1672 C 0.12534 0.31099 0.41197 0.0
C1673 C 0.12499 0.30187 0.37249 0.0
C1674 C 0.11578 0.32383 0.42897 0.0
C1675 C 0.10151 0.34332 0.42472 0.0
C1676 C 0.12063 0.31789 0.39074 0.0
C1677 C 0.0992 0.35094 0.40344 0.0
C1678 C 0.12181 0.30959 0.35129 0.0
C1679 C 0.1283 0.26238 0.36027 0.0
N1680 N 0.10835 0.33801 0.3872 0.0
N1681 N 0.12853 0.27859 0.37626 0.0
H1682 H 0.93137 0.86944 0.69691 0.0
H1683 H 0.94797 0.87548 0.57059 0.0
H1684 H 0.87696 0.85537 0.65059 0.0
H1685 H 0.0047 0.87954 0.61634 0.0
H1686 H 0.91996 0.87955 0.59995 0.0
H1687 H 0.95576 0.88567 0.66817 0.0
C1688 C 0.92415 0.8707 0.68086 0.0
C1689 C 0.90233 0.86067 0.67598 0.0
C1690 C 0.93854 0.87986 0.60356 0.0
C1691 C 0.93024 0.87857 0.64307 0.0
C1692 C 0.95456 0.87743 0.5868 0.0
C1693 C 0.97871 0.8766 0.59107 0.0
C1694 C 0.94669 0.88129 0.6248 0.0
C1695 C 0.98622 0.87966 0.61235 0.0
C1696 C 0.93821 0.87967 0.66441 0.0
C1697 C 0.89388 0.86261 0.65492 0.0
N1698 N 0.97025 0.88151 0.62847 0.0
N1699 N 0.90804 0.87089 0.63915 0.0
H1700 H 0.37626 0.68354 0.94767 0.0
H1701 H 0.36004 0.70562 0.82268 0.0
H1702 H 0.38824 0.63184 0.89833 0.0
H1703 H 0.36096 0.76053 0.87041 0.0
H1704 H 0.35828 0.67649 0.8513 0.0
H1705 H 0.35794 0.70916 0.9209 0.0
C1706 C 0.37419 0.6772 0.93139 0.0
C1707 C 0.38413 0.65577 0.92505 0.0
C1708 C 0.35853 0.69492 0.85552 0.0
C1709 C 0.3637 0.68502 0.89441 0.0
C1710 C 0.35961 0.71158 0.83918 0.0
C1711 C 0.36124 0.73553 0.84418 0.0
C1712 C 0.35925 0.70222 0.87704 0.0
C1713 C 0.36015 0.74222 0.86584 0.0
C1714 C 0.36398 0.69193 0.91607 0.0
C1715 C 0.38111 0.64843 0.90376 0.0
N1716 N 0.35962 0.72562 0.88151 0.0
N1717 N 0.37154 0.66321 0.88911 0.0
H1718 H 0.54451 0.11912 0.06987 0.0
H1719 H 0.56601 0.12405 0.19595 0.0
H1720 H 0.4899 0.11105 0.11731 0.0
H1721 H 0.61495 0.14818 0.14805 0.0
H1722 H 0.54204 0.10653 0.16745 0.0
H1723 H 0.57377 0.11752 0.0984 0.0
C1724 C 0.53866 0.11675 0.08627 0.0
C1725 C 0.51469 0.1158 0.09128 0.0
C1726 C 0.55838 0.11508 0.16326 0.0
C1727 C 0.54813 0.11395 0.12401 0.0
C1728 C 0.57217 0.12484 0.17952 0.0
C1729 C 0.59223 0.13783 0.17421 0.0
C1730 C 0.5649 0.1183 0.1417 0.0
C1731 C 0.59938 0.13855 0.15271 0.0
C1732 C 0.5554 0.11578 0.10254 0.0
C1733 C 0.50819 0.11229 0.11277 0.0
N1734 N 0.58554 0.12926 0.13719 0.0
N1735 N 0.52482 0.11185 0.12841 0.0
H1736 H 0.10883 0.62582 0.09905 0.0
H1737 H 0.13298 0.75768 0.12903 0.0
H1738 H 0.1201 0.68017 0.05206 0.0
H1739 H 0.12538 0.7017 0.17517 0.0
H1740 H 0.13748 0.72844 0.10062 0.0
H1741 H 0.12564 0.6512 0.12654 0.0
C1742 C 0.1157 0.64281 0.09439 0.0
C1743 C 0.1127 0.65112 0.0734 0.0
C1744 C 0.1352 0.72254 0.117 0.0
C1745 C 0.13094 0.68067 0.10487 0.0
C1746 C 0.13249 0.73924 0.13322 0.0
C1747 C 0.12821 0.73211 0.15442 0.0
C1748 C 0.13345 0.69856 0.12202 0.0
C1749 C 0.12816 0.70801 0.15898 0.0
C1750 C 0.12508 0.65742 0.11012 0.0
C1751 C 0.12195 0.67318 0.06813 0.0
N1752 N 0.13037 0.69212 0.14288 0.0
N1753 N 0.13002 0.68752 0.08393 0.0
H1754 H 0.61643 0.85953 0.34946 0.0
H1755 H 0.48481 0.88643 0.37877 0.0
H1756 H 0.56192 0.86705 0.302 0.0
H1757 H 0.54149 0.88519 0.42469 0.0
H1758 H 0.51361 0.88753 0.3497 0.0
H1759 H 0.59101 0.8781 0.37593 0.0
C1760 C 0.59933 0.86581 0.34447 0.0
C1761 C 0.5911 0.86148 0.32365 0.0
C1762 C 0.51975 0.88743 0.36615 0.0
C1763 C 0.5615 0.88187 0.35404 0.0
C1764 C 0.5033 0.88672 0.38276 0.0
C1765 C 0.51077 0.88515 0.40418 0.0
C1766 C 0.5438 0.88641 0.37101 0.0
C1767 C 0.53493 0.88591 0.40841 0.0
C1768 C 0.58472 0.87627 0.35962 0.0
C1769 C 0.56887 0.87001 0.31794 0.0
N1770 N 0.55056 0.88612 0.39198 0.0
N1771 N 0.55455 0.87924 0.33323 0.0
H1772 H 0.36245 0.23803 0.62848 0.0
H1773 H 0.38817 0.37003 0.59935 0.0
H1774 H 0.37056 0.2936 0.67497 0.0
H1775 H 0.37642 0.31624 0.55192 0.0
H1776 H 0.37144 0.34442 0.62668 0.0
H1777 H 0.3587 0.26754 0.60018 0.0
C1778 C 0.36319 0.25643 0.63278 0.0
C1779 C 0.36739 0.26335 0.65405 0.0
C1780 C 0.3719 0.33836 0.61022 0.0
C1781 C 0.36301 0.2972 0.62178 0.0
C1782 C 0.38124 0.35311 0.59457 0.0
C1783 C 0.38401 0.34505 0.57347 0.0
C1784 C 0.36583 0.31521 0.60478 0.0
C1785 C 0.37471 0.32305 0.56807 0.0
C1786 C 0.36093 0.27328 0.61662 0.0
C1787 C 0.36781 0.28743 0.65874 0.0
N1788 N 0.36664 0.30857 0.58377 0.0
N1789 N 0.366 0.30345 0.6427 0.0
H1790 H 0.95227 0.11076 0.92709 0.0
H1791 H 0.93175 0.12578 0.80186 0.0
H1792 H 0.00766 0.1114 0.87985 0.0
H1793 H 0.87914 0.13735 0.85044 0.0
H1794 H 0.957 0.10759 0.82895 0.0
H1795 H 0.92346 0.1084 0.89823 0.0
C1796 C 0.9584 0.11016 0.91065 0.0
C1797 C 0.98239 0.11187 0.90585 0.0
C1798 C 0.93965 0.11348 0.83354 0.0
C1799 C 0.94944 0.10917 0.87271 0.0
C1800 C 0.92511 0.1236 0.81802 0.0
C1801 C 0.90355 0.13346 0.82407 0.0
C1802 C 0.93242 0.11323 0.85512 0.0
C1803 C 0.89584 0.13029 0.84524 0.0
C1804 C 0.94193 0.10872 0.89417 0.0
C1805 C 0.98931 0.11055 0.88426 0.0
N1806 N 0.91046 0.12087 0.86011 0.0
N1807 N 0.97289 0.10965 0.86846 0.0
H1808 H 0.85939 0.75692 0.63229 0.0
H1809 H 0.89669 0.62891 0.60151 0.0
H1810 H 0.87115 0.70171 0.6785 0.0
H1811 H 0.8743 0.67996 0.55476 0.0
H1812 H 0.87898 0.65255 0.6298 0.0
H1813 H 0.85725 0.72741 0.6039 0.0
C1814 C 0.86123 0.73857 0.63651 0.0
C1815 C 0.86605 0.7318 0.65771 0.0
C1816 C 0.87735 0.65838 0.61332 0.0
C1817 C 0.86362 0.69797 0.62533 0.0
C1818 C 0.88734 0.64478 0.59717 0.0
C1819 C 0.88718 0.65273 0.5759 0.0
C1820 C 0.86776 0.68039 0.6082 0.0
C1821 C 0.87483 0.67332 0.57104 0.0
C1822 C 0.85988 0.72171 0.6203 0.0
C1823 C 0.86788 0.70778 0.66231 0.0
N1824 N 0.86615 0.68684 0.58717 0.0
N1825 N 0.86705 0.69177 0.6462 0.0
H1826 H 0.05058 0.12313 0.43139 0.0
H1827 H 0.06509 0.12644 0.30448 0.0
H1828 H 0.9936 0.11373 0.38657 0.0
H1829 H 0.11786 0.14835 0.34978 0.0
H1830 H 0.0424 0.10951 0.33414 0.0
H1831 H 0.07832 0.12087 0.40164 0.0
C1832 C 0.0439 0.12036 0.41532 0.0
C1833 C 0.0197 0.11918 0.4114 0.0
C1834 C 0.05928 0.11741 0.33749 0.0
C1835 C 0.05139 0.11657 0.37724 0.0
C1836 C 0.07235 0.1268 0.32055 0.0
C1837 C 0.09316 0.13904 0.32483 0.0
C1838 C 0.06723 0.12031 0.3587 0.0
C1839 C 0.10172 0.13928 0.34592 0.0
C1840 C 0.05977 0.11899 0.39833 0.0
C1841 C 0.01209 0.11517 0.39027 0.0
N1842 N 0.08853 0.13044 0.36212 0.0
N1843 N 0.02787 0.11435 0.37393 0.0
H1844 H 0.60607 0.37129 0.09958 0.0
H1845 H 0.63216 0.24053 0.13354 0.0
H1846 H 0.61776 0.31536 0.05425 0.0
H1847 H 0.62171 0.29772 0.17797 0.0
H1848 H 0.63607 0.26894 0.10437 0.0
H1849 H 0.6224 0.34678 0.12796 0.0
C1850 C 0.61289 0.35411 0.09548 0.0
C1851 C 0.61024 0.34515 0.07467 0.0
C1852 C 0.63327 0.27529 0.12055 0.0
C1853 C 0.62797 0.3166 0.10718 0.0
C1854 C 0.63092 0.25907 0.13721 0.0
C1855 C 0.62605 0.26674 0.15815 0.0
C1856 C 0.63061 0.29935 0.12485 0.0
C1857 C 0.625 0.29097 0.16201 0.0
C1858 C 0.62201 0.34 0.11173 0.0
C1859 C 0.6194 0.32285 0.07015 0.0
N1860 N 0.62693 0.30637 0.14548 0.0
N1861 N 0.62727 0.30904 0.08643 0.0
H1862 H 0.45488 0.87802 0.92782 0.0
H1863 H 0.43177 0.87081 0.80239 0.0
H1864 H 0.50937 0.88044 0.87976 0.0
H1865 H 0.37976 0.85759 0.85116 0.0
H1866 H 0.45789 0.88683 0.82993 0.0
H1867 H 0.42552 0.88204 0.8996 0.0
C1868 C 0.4607 0.87958 0.91133 0.0
C1869 C 0.48459 0.87831 0.90608 0.0
C1870 C 0.44049 0.88105 0.8345 0.0
C1871 C 0.45102 0.88295 0.87367 0.0
C1872 C 0.42547 0.87217 0.81874 0.0
C1873 C 0.4038 0.86246 0.82464 0.0
C1874 C 0.43365 0.88019 0.85616 0.0
C1875 C 0.39653 0.86455 0.84605 0.0
C1876 C 0.44391 0.88199 0.89523 0.0
C1877 C 0.4911 0.88091 0.88449 0.0
N1878 N 0.41161 0.87277 0.86112 0.0
N1879 N 0.47438 0.88275 0.86902 0.0
H1880 H 0.8757 0.31509 0.9492 0.0
H1881 H 0.86578 0.29218 0.82395 0.0
H1882 H 0.88962 0.36668 0.90021 0.0
H1883 H 0.86443 0.23772 0.87209 0.0
H1884 H 0.86231 0.32158 0.85221 0.0
H1885 H 0.85839 0.28947 0.92194 0.0
C1886 C 0.8742 0.32145 0.93288 0.0
C1887 C 0.88451 0.34279 0.92681 0.0
C1888 C 0.86245 0.30318 0.85659 0.0
C1889 C 0.86531 0.31348 0.89559 0.0
C1890 C 0.86454 0.28637 0.84046 0.0
C1891 C 0.86599 0.26248 0.84571 0.0
C1892 C 0.86198 0.2961 0.87817 0.0
C1893 C 0.86381 0.25599 0.86735 0.0
C1894 C 0.86459 0.30669 0.91727 0.0
C1895 C 0.8822 0.35014 0.90544 0.0
N1896 N 0.86228 0.27273 0.88283 0.0
N1897 N 0.87328 0.3353 0.89051 0.0
H1898 H 0.50837 0.10958 0.61952 0.0
H1899 H 0.37756 0.13861 0.64885 0.0
H1900 H 0.45238 0.11488 0.57313 0.0
H1901 H 0.43103 0.12571 0.69633 0.0
H1902 H 0.40245 0.12048 0.6217 0.0
H1903 H 0.47915 0.10714 0.64815 0.0
C1904 C 0.48993 0.10994 0.61532 0.0
C1905 C 0.48281 0.11302 0.59395 0.0
C1906 C 0.40858 0.12101 0.63814 0.0
C1907 C 0.44928 0.11023 0.62662 0.0
C1908 C 0.39425 0.13119 0.65368 0.0
C1909 C 0.40245 0.13398 0.67473 0.0
C1910 C 0.43148 0.11413 0.64363 0.0
C1911 C 0.42414 0.12401 0.68021 0.0
C1912 C 0.47324 0.10844 0.63168 0.0
C1913 C 0.4587 0.11299 0.58942 0.0
N1914 N 0.43824 0.11511 0.6646 0.0
N1915 N 0.44283 0.11202 0.60563 0.0
H1916 H 0.63673 0.75998 0.37194 0.0
H1917 H 0.60851 0.62877 0.39994 0.0
H1918 H 0.63327 0.70428 0.3251 0.0
H1919 H 0.62047 0.68187 0.44798 0.0
H1920 H 0.62701 0.65395 0.37323 0.0
H1921 H 0.63909 0.73056 0.40041 0.0
C1922 C 0.63677 0.74157 0.36762 0.0
C1923 C 0.63421 0.73457 0.34615 0.0
C1924 C 0.62621 0.65993 0.38971 0.0
C1925 C 0.6369 0.70081 0.37863 0.0
C1926 C 0.61581 0.64543 0.405 0.0
C1927 C 0.61262 0.65345 0.42606 0.0
C1928 C 0.63289 0.68282 0.39545 0.0
C1929 C 0.62246 0.67511 0.43184 0.0
C1930 C 0.63823 0.72476 0.38388 0.0
C1931 C 0.63473 0.7105 0.34146 0.0
N1932 N 0.63155 0.68938 0.41646 0.0
N1933 N 0.63564 0.6945 0.35758 0.0
H1934 H 0.06564 0.87034 0.1984 0.0
H1935 H 0.04404 0.88527 0.07319 0.0
H1936 H 0.11707 0.85633 0.1493 0.0
H1937 H 0.98907 0.88522 0.12084 0.0
H1938 H 0.07314 0.88704 0.10184 0.0
H1939 H 0.04051 0.88885 0.17137 0.0
C1940 C 0.07207 0.87204 0.18211 0.0
C1941 C 0.09324 0.86145 0.17594 0.0
C1942 C 0.05471 0.88698 0.10604 0.0
C1943 C 0.0645 0.88207 0.14499 0.0
C1944 C 0.03806 0.88591 0.08968 0.0
C1945 C 0.01409 0.88451 0.09465 0.0
C1946 C 0.04738 0.88652 0.12755 0.0
C1947 C 0.00738 0.88584 0.11629 0.0
C1948 C 0.0576 0.88235 0.16664 0.0
C1949 C 0.10068 0.86399 0.15461 0.0
N1950 N 0.02397 0.88639 0.13198 0.0
N1951 N 0.08613 0.87366 0.13982 0.0
H1952 H 0.63361 0.73758 0.87127 0.0
H1953 H 0.61097 0.86945 0.90163 0.0
H1954 H 0.62831 0.79404 0.82534 0.0
H1955 H 0.6211 0.81478 0.94851 0.0
H1956 H 0.62798 0.84408 0.87425 0.0
H1957 H 0.63821 0.76652 0.89993 0.0
C1958 C 0.63367 0.75605 0.86718 0.0
C1959 C 0.62997 0.76343 0.84595 0.0
C1960 C 0.62714 0.83778 0.89062 0.0
C1961 C 0.63531 0.79662 0.87864 0.0
C1962 C 0.61763 0.85238 0.9063 0.0
C1963 C 0.61427 0.844 0.92721 0.0
C1964 C 0.63272 0.81445 0.89584 0.0
C1965 C 0.62325 0.82183 0.9325 0.0
C1966 C 0.63642 0.77257 0.88354 0.0
C1967 C 0.63061 0.78756 0.84153 0.0
N1968 N 0.63143 0.80749 0.91674 0.0
N1969 N 0.63284 0.80327 0.85777 0.0
H1970 H 0.37893 0.3503 0.15038 0.0
H1971 H 0.50711 0.38726 0.11936 0.0
H1972 H 0.43102 0.36993 0.19718 0.0
H1973 H 0.45141 0.37651 0.07347 0.0
H1974 H 0.47791 0.38888 0.14806 0.0
H1975 H 0.40245 0.36872 0.1224 0.0
C1976 C 0.395 0.35924 0.15483 0.0
C1977 C 0.40325 0.3584 0.17599 0.0
C1978 C 0.47204 0.38657 0.13167 0.0
C1979 C 0.43081 0.37856 0.14399 0.0
C1980 C 0.48872 0.38554 0.11528 0.0
C1981 C 0.48173 0.38116 0.09406 0.0
C1982 C 0.44823 0.38299 0.12679 0.0
C1983 C 0.45766 0.37944 0.08965 0.0
C1984 C 0.40854 0.36961 0.13884 0.0
C1985 C 0.42412 0.3702 0.18099 0.0
N1986 N 0.44183 0.37999 0.10591 0.0
N1987 N 0.43756 0.37925 0.16498 0.0
H1988 H 0.87663 0.17897 0.44609 0.0
H1989 H 0.87484 0.19521 0.31929 0.0
H1990 H 0.90162 0.12795 0.40041 0.0
H1991 H 0.86324 0.2514 0.36454 0.0
H1992 H 0.8731 0.16708 0.34874 0.0
H1993 H 0.8596 0.20164 0.41644 0.0
C1994 C 0.87772 0.17209 0.42991 0.0
C1995 C 0.89078 0.15181 0.42555 0.0
C1996 C 0.87063 0.18554 0.3522 0.0
C1997 C 0.87186 0.17766 0.39173 0.0
C1998 C 0.87169 0.20163 0.33539 0.0
C1999 C 0.86975 0.22574 0.33953 0.0
C2000 C 0.86776 0.1936 0.37334 0.0
C2001 C 0.86525 0.23299 0.36068 0.0
C2002 C 0.86824 0.18514 0.41299 0.0
C2003 C 0.89191 0.14371 0.40434 0.0
N2004 N 0.86477 0.217 0.37686 0.0
N2005 N 0.88291 0.15685 0.38817 0.0
H2006 H 0.04715 0.6212 0.57101 0.0
H2007 H 0.06486 0.62842 0.69709 0.0
H2008 H 0.99074 0.6169 0.61706 0.0
H2009 H 0.11936 0.64005 0.65032 0.0
H2010 H 0.03984 0.61236 0.66872 0.0
H2011 H 0.07537 0.61735 0.60021 0.0
C2012 C 0.04068 0.61927 0.58725 0.0
C2013 C 0.01656 0.61993 0.59165 0.0
C2014 C 0.05752 0.61779 0.66478 0.0
C2015 C 0.04882 0.61552 0.62522 0.0
C2016 C 0.07192 0.62666 0.68103 0.0
C2017 C 0.09401 0.63593 0.6759 0.0
C2018 C 0.0654 0.61825 0.64339 0.0
C2019 C 0.10226 0.6334 0.65483 0.0
C2020 C 0.05682 0.61696 0.60393 0.0
C2021 C 0.0092 0.61689 0.61298 0.0
N2022 N 0.08778 0.62523 0.63926 0.0
N2023 N 0.02528 0.61518 0.62902 0.0
H2024 H 0.63372 0.20359 0.67546 0.0
H2025 H 0.61751 0.18321 0.55021 0.0
H2026 H 0.6334 0.25916 0.62839 0.0
H2027 H 0.60594 0.1307 0.59889 0.0
H2028 H 0.63566 0.20855 0.57729 0.0
H2029 H 0.63524 0.17483 0.64652 0.0
C2030 C 0.63422 0.20977 0.65903 0.0
C2031 C 0.63286 0.2338 0.65432 0.0
C2032 C 0.62974 0.19121 0.58191 0.0
C2033 C 0.63456 0.20092 0.62107 0.0
C2034 C 0.61963 0.17664 0.56641 0.0
C2035 C 0.60987 0.15504 0.57246 0.0
C2036 C 0.63009 0.18398 0.60348 0.0
C2037 C 0.61294 0.14742 0.59367 0.0
C2038 C 0.63516 0.19332 0.6425 0.0
C2039 C 0.63402 0.24078 0.63274 0.0
N2040 N 0.62241 0.16204 0.6085 0.0
N2041 N 0.63442 0.22439 0.61688 0.0
H2042 H 0.06602 0.37011 0.80293 0.0
H2043 H 0.0438 0.37746 0.92846 0.0
H2044 H 0.11782 0.35497 0.85142 0.0
H2045 H 0.98917 0.38076 0.88057 0.0
H2046 H 0.07311 0.38112 0.90014 0.0
H2047 H 0.0406 0.3869 0.83063 0.0
C2048 C 0.07246 0.37122 0.81925 0.0
C2049 C 0.09381 0.36073 0.82503 0.0
C2050 C 0.0547 0.38136 0.89584 0.0
C2051 C 0.06474 0.37934 0.85673 0.0
C2052 C 0.03794 0.37916 0.912 0.0
C2053 C 0.01402 0.37821 0.90682 0.0
C2054 C 0.04751 0.38245 0.8743 0.0
C2055 C 0.00746 0.38097 0.88525 0.0
C2056 C 0.05782 0.38053 0.83511 0.0
C2057 C 0.10127 0.36252 0.84641 0.0
N2058 N 0.02414 0.3826 0.86973 0.0
N2059 N 0.08656 0.37117 0.86157 0.0
H2060 H 0.86227 0.79456 0.17901 0.0
H2061 H 0.87722 0.81402 0.0534 0.0
H2062 H 0.8605 0.73885 0.13208 0.0
H2063 H 0.8926 0.86579 0.10188 0.0
H2064 H 0.85864 0.78949 0.08089 0.0
H2065 H 0.86142 0.82325 0.14997 0.0
C2066 C 0.86142 0.78834 0.1626 0.0
C2067 C 0.86204 0.76427 0.15794 0.0
C2068 C 0.86553 0.80651 0.08538 0.0
C2069 C 0.8611 0.79706 0.12461 0.0
C2070 C 0.87591 0.82061 0.06967 0.0
C2071 C 0.88681 0.84172 0.07553 0.0
C2072 C 0.86603 0.81374 0.10695 0.0
C2073 C 0.88473 0.84941 0.09682 0.0
C2074 C 0.86088 0.80475 0.14602 0.0
C2075 C 0.86048 0.75725 0.13639 0.0
N2076 N 0.87493 0.83525 0.11183 0.0
N2077 N 0.86046 0.77359 0.12048 0.0
H2078 H 0.43123 0.62497 0.3007 0.0
H2079 H 0.45322 0.6179 0.42618 0.0
H2080 H 0.3787 0.63791 0.34906 0.0
H2081 H 0.50805 0.61584 0.37844 0.0
H2082 H 0.4241 0.61335 0.39782 0.0
H2083 H 0.45698 0.60862 0.32835 0.0
C2084 C 0.42471 0.62342 0.31697 0.0
C2085 C 0.40303 0.63323 0.32274 0.0
C2086 C 0.44251 0.61358 0.39355 0.0
C2087 C 0.4325 0.61517 0.35441 0.0
C2088 C 0.45916 0.6163 0.40974 0.0
C2089 C 0.48308 0.61784 0.40462 0.0
C2090 C 0.44978 0.61259 0.37203 0.0
C2091 C 0.48976 0.61517 0.38307 0.0
C2092 C 0.43954 0.61438 0.3328 0.0
C2093 C 0.39548 0.63089 0.34405 0.0
N2094 N 0.47317 0.61304 0.36752 0.0
N2095 N 0.41039 0.62255 0.35921 0.0
H2096 H 0.38977 0.1246 0.09823 0.0
H2097 H 0.36544 0.25525 0.13309 0.0
H2098 H 0.37774 0.18086 0.05333 0.0
H2099 H 0.37529 0.19765 0.17718 0.0
H2100 H 0.36081 0.22708 0.10383 0.0
H2101 H 0.37383 0.14896 0.1269 0.0
C2102 C 0.38293 0.14182 0.09429 0.0
C2103 C 0.38541 0.15093 0.07352 0.0
C2104 C 0.36364 0.22059 0.11995 0.0
C2105 C 0.36815 0.17929 0.10635 0.0
C2106 C 0.36642 0.23667 0.13666 0.0
C2107 C 0.37133 0.2288 0.15754 0.0
C2108 C 0.36592 0.19647 0.12413 0.0
C2109 C 0.37199 0.20454 0.16128 0.0
C2110 C 0.37405 0.15584 0.1107 0.0
C2111 C 0.37624 0.17326 0.0692 0.0
N2112 N 0.36966 0.18926 0.14469 0.0
N2113 N 0.36862 0.18699 0.08563 0.0
H2114 H 0.56316 0.62833 0.79932 0.0
H2115 H 0.54128 0.61188 0.92418 0.0
H2116 H 0.61531 0.63883 0.84851 0.0
H2117 H 0.4863 0.61404 0.87657 0.0
H2118 H 0.57029 0.60944 0.89551 0.0
H2119 H 0.53746 0.61001 0.82598 0.0
C2120 C 0.56961 0.62588 0.81552 0.0
C2121 C 0.59118 0.63548 0.82188 0.0
C2122 C 0.55187 0.61011 0.89132 0.0
C2123 C 0.56179 0.6151 0.85242 0.0
C2124 C 0.53527 0.6116 0.90769 0.0
C2125 C 0.51136 0.61377 0.90275 0.0
C2126 C 0.54455 0.61099 0.86982 0.0
C2127 C 0.5046 0.61283 0.8811 0.0
C2128 C 0.55481 0.61569 0.8308 0.0
C2129 C 0.59862 0.63197 0.84308 0.0
N2130 N 0.52115 0.6119 0.8654 0.0
N2131 N 0.58377 0.62248 0.8577 0.0
H2132 H 0.09937 0.86548 0.59933 0.0
H2133 H 0.13791 0.73783 0.63065 0.0
H2134 H 0.11958 0.81359 0.55252 0.0
H2135 H 0.12851 0.79391 0.67643 0.0
H2136 H 0.1385 0.76679 0.60173 0.0
H2137 H 0.11801 0.84213 0.62732 0.0
C2138 C 0.10842 0.84947 0.5949 0.0
C2139 C 0.10774 0.84125 0.57372 0.0
C2140 C 0.13672 0.7728 0.61813 0.0
C2141 C 0.12825 0.81391 0.60572 0.0
C2142 C 0.13628 0.75625 0.63466 0.0
C2143 C 0.13258 0.76343 0.65594 0.0
C2144 C 0.13322 0.79664 0.62293 0.0
C2145 C 0.13095 0.78754 0.66022 0.0
C2146 C 0.11895 0.83604 0.61088 0.0
C2147 C 0.11972 0.82047 0.56872 0.0
N2148 N 0.13089 0.80323 0.64384 0.0
N2149 N 0.12896 0.80714 0.58474 0.0
H2150 H 0.92684 0.37042 0.30643 0.0
H2151 H 0.94172 0.36842 0.43329 0.0
H2152 H 0.8755 0.34367 0.35094 0.0
H2153 H -0.00201 0.38256 0.38875 0.0
H2154 H 0.91375 0.37089 0.40373 0.0
H2155 H 0.94877 0.3871 0.33668 0.0
C2156 C 0.91971 0.36889 0.32249 0.0
C2157 C 0.8996 0.35539 0.32634 0.0
C2158 C 0.93219 0.37377 0.40046 0.0
C2159 C 0.92464 0.37388 0.36084 0.0
C2160 C 0.94819 0.37229 0.41733 0.0
C2161 C 0.97229 0.37471 0.41339 0.0
C2162 C 0.94034 0.37756 0.37947 0.0
C2163 C 0.97959 0.38012 0.39245 0.0
C2164 C 0.93234 0.37816 0.33976 0.0
C2165 C 0.89116 0.35371 0.34741 0.0
N2166 N 0.96371 0.38101 0.3762 0.0
N2167 N 0.90393 0.36249 0.36392 0.0
H2168 H 0.36572 0.79179 0.32287 0.0
H2169 H 0.37774 0.81309 0.44833 0.0
H2170 H 0.36532 0.73647 0.3702 0.0
H2171 H 0.38904 0.86576 0.39974 0.0
H2172 H 0.36092 0.7872 0.42097 0.0
H2173 H 0.36275 0.82066 0.35161 0.0
C2174 C 0.3648 0.78569 0.33931 0.0
C2175 C 0.36635 0.76171 0.34418 0.0
C2176 C 0.36647 0.80468 0.41642 0.0
C2177 C 0.36297 0.79472 0.3772 0.0
C2178 C 0.37582 0.81956 0.43207 0.0
C2179 C 0.38515 0.84138 0.42614 0.0
C2180 C 0.36648 0.81183 0.39482 0.0
C2181 C 0.38237 0.84887 0.40486 0.0
C2182 C 0.36301 0.8022 0.35572 0.0
C2183 C 0.36459 0.75482 0.36575 0.0
N2184 N 0.37367 0.83396 0.38989 0.0
N2185 N 0.36337 0.77128 0.38151 0.0
H2186 H 0.93182 0.62825 0.19872 0.0
H2187 H 0.95311 0.61886 0.07302 0.0
H2188 H 0.87979 0.643 0.15032 0.0
H2189 H 0.00818 0.6155 0.12049 0.0
H2190 H 0.92405 0.61627 0.10164 0.0
H2191 H 0.95717 0.61134 0.17099 0.0
C2192 C 0.92536 0.62709 0.18241 0.0
C2193 C 0.90392 0.63741 0.17667 0.0
C2194 C 0.94249 0.6158 0.1058 0.0
C2195 C 0.93287 0.61862 0.14494 0.0
C2196 C 0.95911 0.61737 0.08946 0.0
C2197 C 0.9831 0.61797 0.09442 0.0
C2198 C 0.94989 0.615 0.12729 0.0
C2199 C 0.98984 0.61552 0.11598 0.0
C2200 C 0.93993 0.61769 0.16654 0.0
C2201 C 0.89641 0.63556 0.15531 0.0
N2202 N 0.9733 0.61451 0.13166 0.0
N2203 N 0.91104 0.62678 0.14015 0.0
H2204 H 0.1186 0.1809 0.94823 0.0
H2205 H 0.13072 0.20217 0.82277 0.0
H2206 H 0.10473 0.12897 0.89952 0.0
H2207 H 0.13302 0.25725 0.87029 0.0
H2208 H 0.13293 0.1731 0.85141 0.0
H2209 H 0.13632 0.20617 0.92085 0.0
C2210 C 0.12013 0.17443 0.93194 0.0
C2211 C 0.10984 0.15305 0.92598 0.0
C2212 C 0.13327 0.19155 0.85558 0.0
C2213 C 0.12955 0.18191 0.89466 0.0
C2214 C 0.13192 0.20817 0.83922 0.0
C2215 C 0.1311 0.23217 0.84418 0.0
C2216 C 0.1336 0.19894 0.87708 0.0
C2217 C 0.13318 0.23891 0.86577 0.0
C2218 C 0.13 0.18896 0.91628 0.0
C2219 C 0.11215 0.14554 0.90466 0.0
N2220 N 0.13395 0.22236 0.88147 0.0
N2221 N 0.12138 0.16013 0.88969 0.0
H2222 H 0.61858 0.35796 0.65025 0.0
H2223 H 0.48707 0.38429 0.61973 0.0
H2224 H 0.56388 0.36829 0.69709 0.0
H2225 H 0.54335 0.37691 0.57388 0.0
H2226 H 0.51608 0.38742 0.64848 0.0
H2227 H 0.59336 0.37519 0.62287 0.0
C2228 C 0.60151 0.36463 0.6549 0.0
C2229 C 0.5931 0.36136 0.67582 0.0
C2230 C 0.5221 0.38549 0.63209 0.0
C2231 C 0.56376 0.38016 0.64444 0.0
C2232 C 0.50553 0.38358 0.61567 0.0
C2233 C 0.5128 0.37976 0.59443 0.0
C2234 C 0.54608 0.38341 0.62723 0.0
C2235 C 0.53693 0.37937 0.59007 0.0
C2236 C 0.58701 0.37429 0.63922 0.0
C2237 C 0.57094 0.37038 0.68107 0.0
N2238 N 0.55268 0.38082 0.60635 0.0
N2239 N 0.55673 0.37879 0.66532 0.0
H2240 H 0.21188 0.18717 0.25263 0.0
H2241 H 0.28435 0.30764 0.2456 0.0
H2242 H 0.18157 0.25544 0.26348 0.0
H2243 H 0.31453 0.23953 0.23366 0.0
H2244 H 0.24651 0.28878 0.25302 0.0
H2245 H 0.24968 0.20599 0.24483 0.0
C2246 C 0.21321 0.20613 0.25306 0.0
C2247 C 0.19387 0.21986 0.25879 0.0
C2248 C 0.26144 0.27794 0.24885 0.0
C2249 C 0.23671 0.24143 0.25036 0.0
C2250 C 0.28298 0.2887 0.24483 0.0
C2251 C 0.30231 0.27503 0.23896 0.0
C2252 C 0.2594 0.2534 0.24697 0.0
C2253 C 0.29982 0.2506 0.23795 0.0
C2254 C 0.23472 0.21687 0.24882 0.0
C2255 C 0.19629 0.24432 0.25934 0.0
N2256 N 0.2787 0.24053 0.24182 0.0
N2257 N 0.21738 0.25435 0.2553 0.0
H2258 H 0.04854 0.96635 0.53462 0.0
H2259 H 0.94765 0.02713 0.46464 0.0
H2260 H 0.00948 0.93011 0.48563 0.0
H2261 H 0.98328 0.06142 0.51688 0.0
H2262 H 0.96977 0.99115 0.47214 0.0
H2263 H 0.0259 0.002 0.52728 0.0
C2264 C 0.03547 0.96617 0.522 0.0
C2265 C 0.03079 0.94557 0.51059 0.0
C2266 C 0.97257 0.00642 0.48216 0.0
C2267 C 0.00452 0.98575 0.50245 0.0
C2268 C 0.95979 0.02677 0.47803 0.0
C2269 C 0.96371 0.04693 0.4903 0.0
C2270 C 0.98945 0.00646 0.49859 0.0
C2271 C 0.97974 0.046 0.50726 0.0
C2272 C 0.02239 0.98635 0.51797 0.0
C2273 C 0.01362 0.94588 0.49456 0.0
N2274 N 0.99223 0.02609 0.51082 0.0
N2275 N 0.00094 0.96568 0.49102 0.0
H2276 H 0.17904 0.73909 0.76235 0.0
H2277 H 0.31432 0.76565 0.73752 0.0
H2278 H 0.22156 0.69729 0.71988 0.0
H2279 H 0.27348 0.80483 0.78333 0.0
H2280 H 0.27973 0.74182 0.72923 0.0
H2281 H 0.21329 0.76359 0.77036 0.0
C2282 C 0.1958 0.73483 0.75513 0.0
C2283 C 0.19775 0.71623 0.74058 0.0
C2284 C 0.27822 0.75576 0.74095 0.0
C2285 C 0.2366 0.74436 0.749 0.0
C2286 C 0.29783 0.76951 0.74544 0.0
C2287 C 0.29651 0.78707 0.76107 0.0
C2288 C 0.25724 0.75968 0.75226 0.0
C2289 C 0.27501 0.79133 0.77118 0.0
C2290 C 0.21523 0.74892 0.75946 0.0
C2291 C 0.21957 0.71151 0.73126 0.0
N2292 N 0.25619 0.77758 0.76672 0.0
N2293 N 0.23817 0.72562 0.73551 0.0
H2294 H 0.55845 0.96266 0.99696 0.0
H2295 H 0.43567 0.03128 0.002 0.0
H2296 H 0.49203 0.93094 0.98123 0.0
H2297 H 0.50285 0.06411 0.0121 0.0
H2298 H 0.45579 0.9941 0.99424 0.0
H2299 H 0.53812 -0.00018 0.00417 0.0
C2300 C 0.53955 0.96354 0.99536 0.0
C2301 C 0.52678 0.94399 0.98854 0.0
C2302 C 0.46614 0.0095 0.99797 0.0
C2303 C 0.50353 0.9861 0.99623 0.0
C2304 C 0.45466 0.03066 0.00215 0.0
C2305 C 0.46774 0.05053 0.00757 0.0
C2306 C 0.49077 0.0084 0.9994 0.0
C2307 C 0.49226 0.04899 0.00798 0.0
C2308 C 0.52797 0.9847 0.99923 0.0
C2309 C 0.50239 0.94584 0.98638 0.0
N2310 N 0.50301 0.02823 0.00408 0.0
N2311 N 0.49151 0.96658 0.99015 0.0
H2312 H 0.31496 0.75292 0.26556 0.0
H2313 H 0.18101 0.7394 0.22972 0.0
H2314 H 0.28239 0.68621 0.25252 0.0
H2315 H 0.21272 0.80563 0.24616 0.0
H2316 H 0.21801 0.71956 0.23766 0.0
H2317 H 0.278 0.77267 0.25731 0.0
C2318 C 0.29996 0.7425 0.26071 0.0
C2319 C 0.30153 0.718 0.25962 0.0
C2320 C 0.21692 0.7384 0.23966 0.0
C2321 C 0.25923 0.74031 0.25042 0.0
C2322 C 0.19584 0.74969 0.23518 0.0
C2323 C 0.19404 0.7741 0.2373 0.0
C2324 C 0.23635 0.75168 0.24623 0.0
C2325 C 0.21352 0.78674 0.24451 0.0
C2326 C 0.27889 0.75373 0.25611 0.0
C2327 C 0.2818 0.70518 0.25329 0.0
N2328 N 0.23399 0.77537 0.24863 0.0
N2329 N 0.26134 0.71651 0.24899 0.0
H2330 H 0.5059 0.06847 0.48824 0.0
H2331 H 0.48138 0.93258 0.5122 0.0
H2332 H 0.54895 0.02596 0.52968 0.0
H2333 H 0.44175 0.97308 0.46646 0.0
H2334 H 0.50472 0.96746 0.52064 0.0
H2335 H 0.48172 0.03399 0.48022 0.0
C2336 C 0.51049 0.05168 0.49525 0.0
C2337 C 0.52937 0.04979 0.50949 0.0
C2338 C 0.49079 0.96883 0.50889 0.0
C2339 C 0.5016 0.01066 0.50105 0.0
C2340 C 0.47733 0.94904 0.50432 0.0
C2341 C 0.45977 0.95019 0.48867 0.0
C2342 C 0.48658 0.98981 0.49768 0.0
C2343 C 0.45525 0.97168 0.47862 0.0
C2344 C 0.49658 0.03212 0.49091 0.0
C2345 C 0.53448 0.02793 0.51856 0.0
N2346 N 0.46872 0.99068 0.48318 0.0
N2347 N 0.52056 0.00918 0.51429 0.0
H2348 H 0.18115 0.24358 0.76412 0.0
H2349 H 0.31695 0.25427 0.73387 0.0
H2350 H 0.21656 0.3097 0.75552 0.0
H2351 H 0.28167 0.18825 0.74347 0.0
H2352 H 0.28047 0.27497 0.742 0.0
H2353 H 0.21759 0.22297 0.75573 0.0
C2354 C 0.19666 0.25369 0.76017 0.0
C2355 C 0.19608 0.27825 0.76041 0.0
C2356 C 0.28067 0.25597 0.7425 0.0
C2357 C 0.23778 0.25496 0.75114 0.0
C2358 C 0.30146 0.24421 0.73799 0.0
C2359 C 0.3021 0.21964 0.73814 0.0
C2360 C 0.26037 0.24301 0.7471 0.0
C2361 C 0.28177 0.20725 0.74345 0.0
C2362 C 0.21744 0.24196 0.7555 0.0
C2363 C 0.21644 0.2907 0.75527 0.0
N2364 N 0.26159 0.21911 0.74764 0.0
N2365 N 0.2366 0.27888 0.75093 0.0
H2366 H 0.94282 0.97171 0.03392 0.0
H2367 H 0.05068 0.02357 0.96661 0.0
H2368 H 0.98258 0.93141 0.98813 0.0
H2369 H 0.00994 0.06444 0.01123 0.0
H2370 H 0.02644 0.98923 0.97485 0.0
H2371 H 0.96648 0.00632 0.02518 0.0
C2372 C 0.95628 0.9704 0.0217 0.0
C2373 C 0.96091 0.94894 0.01166 0.0
C2374 C 0.0229 0.00563 0.98301 0.0
C2375 C 0.98828 0.98794 0.00194 0.0
C2376 C 0.03684 0.02507 0.97845 0.0
C2377 C 0.03218 0.04659 0.98835 0.0
C2378 C 0.00417 0.00788 0.99753 0.0
C2379 C 0.01408 0.04795 0.00346 0.0
C2380 C 0.96989 0.99 0.01685 0.0
C2381 C 0.9785 0.94783 0.99604 0.0
N2382 N 0.00057 0.02885 0.00752 0.0
N2383 N 0.99174 0.96706 0.99176 0.0
H2384 H 0.78324 0.81113 0.7485 0.0
H2385 H 0.71055 0.69063 0.7506 0.0
H2386 H 0.81368 0.74328 0.73594 0.0
H2387 H 0.68229 0.75687 0.77172 0.0
H2388 H 0.74805 0.71012 0.74294 0.0
H2389 H 0.74565 0.79194 0.75648 0.0
C2390 C 0.78203 0.79218 0.74783 0.0
C2391 C 0.80136 0.77866 0.74167 0.0
C2392 C 0.73361 0.72041 0.7492 0.0
C2393 C 0.7587 0.75671 0.7501 0.0
C2394 C 0.71226 0.70933 0.75335 0.0
C2395 C 0.6936 0.72224 0.76186 0.0
C2396 C 0.73611 0.74453 0.75355 0.0
C2397 C 0.6965 0.74636 0.76535 0.0
C2398 C 0.76062 0.78123 0.75215 0.0
C2399 C 0.799 0.75422 0.7406 0.0
N2400 N 0.71741 0.75675 0.76124 0.0
N2401 N 0.778 0.744 0.74464 0.0
H2402 H 0.81241 0.26561 0.23108 0.0
H2403 H 0.68131 0.23166 0.2653 0.0
H2404 H 0.77755 0.2944 0.28646 0.0
H2405 H 0.71796 0.19994 0.21227 0.0
H2406 H 0.7163 0.25502 0.27344 0.0
H2407 H 0.77695 0.24318 0.22254 0.0
C2408 C 0.797 0.26757 0.2411 0.0
C2409 C 0.79763 0.28169 0.25943 0.0
C2410 C 0.71681 0.24279 0.26014 0.0
C2411 C 0.75749 0.25582 0.2503 0.0
C2412 C 0.697 0.22931 0.25572 0.0
C2413 C 0.69704 0.21399 0.23819 0.0
C2414 C 0.73663 0.2409 0.24683 0.0
C2415 C 0.71748 0.21164 0.22596 0.0
C2416 C 0.77692 0.25459 0.23644 0.0
C2417 C 0.7775 0.2836 0.27216 0.0
N2418 N 0.73647 0.22513 0.23041 0.0
N2419 N 0.75824 0.2706 0.26746 0.0
H2420 H 0.78464 0.18939 0.7509 0.0
H2421 H 0.71554 0.31196 0.74689 0.0
H2422 H 0.81414 0.25484 0.77263 0.0
H2423 H 0.6838 0.24504 0.73298 0.0
H2424 H 0.75234 0.2917 0.7558 0.0
H2425 H 0.74803 0.20997 0.74214 0.0
C2426 C 0.78338 0.20814 0.75359 0.0
C2427 C 0.80211 0.22051 0.76259 0.0
C2428 C 0.73726 0.28145 0.75093 0.0
C2429 C 0.76063 0.24405 0.753 0.0
C2430 C 0.71632 0.29299 0.74605 0.0
C2431 C 0.69687 0.28004 0.73927 0.0
C2432 C 0.73857 0.25688 0.74883 0.0
C2433 C 0.69861 0.25555 0.73807 0.0
C2434 C 0.76253 0.21984 0.7488 0.0
C2435 C 0.79982 0.24472 0.76595 0.0
N2436 N 0.71916 0.24474 0.7427 0.0
N2437 N 0.77939 0.25573 0.76121 0.0
H2438 H 0.72078 0.80198 0.28225 0.0
H2439 H 0.77396 0.69213 0.21859 0.0
H2440 H 0.67945 0.75711 0.24147 0.0
H2441 H 0.81328 0.73332 0.264 0.0
H2442 H 0.73888 0.71535 0.22685 0.0
H2443 H 0.75536 0.77785 0.27462 0.0
C2444 C 0.7192 0.78723 0.27137 0.0
C2445 C 0.6975 0.78144 0.26234 0.0
C2446 C 0.75508 0.71915 0.23523 0.0
C2447 C 0.73654 0.75355 0.25388 0.0
C2448 C 0.77495 0.70578 0.23066 0.0
C2449 C 0.79626 0.71092 0.24074 0.0
C2450 C 0.75674 0.73785 0.24985 0.0
C2451 C 0.79698 0.72882 0.25608 0.0
C2452 C 0.7388 0.77335 0.26717 0.0
C2453 C 0.69607 0.76216 0.24849 0.0
N2454 N 0.77751 0.74184 0.26006 0.0
N2455 N 0.71536 0.74878 0.24474 0.0
H2456 H 0.50031 0.56567 0.98221 0.0
H2457 H 0.49194 0.42956 0.01206 0.0
H2458 H 0.43488 0.52934 0.99176 0.0
H2459 H 0.55738 0.4662 0.00356 0.0
H2460 H 0.47067 0.46562 0.00359 0.0
H2461 H 0.52157 0.52946 0.99014 0.0
C2462 C 0.4905 0.55 0.98628 0.0
C2463 C 0.46594 0.55025 0.98646 0.0
C2464 C 0.48967 0.46581 0.00338 0.0
C2465 C 0.48996 0.50882 0.99517 0.0
C2466 C 0.50176 0.44525 0.00806 0.0
C2467 C 0.52633 0.44513 0.00837 0.0
C2468 C 0.50229 0.4864 0.99908 0.0
C2469 C 0.5384 0.46571 0.00323 0.0
C2470 C 0.50259 0.52936 0.99067 0.0
C2471 C 0.45387 0.5297 0.9917 0.0
N2472 N 0.52622 0.48566 0.99889 0.0
N2473 N 0.46604 0.50968 0.99576 0.0
H2474 H 0.98046 0.5634 0.48459 0.0
H2475 H 0.01382 0.43264 0.52067 0.0
H2476 H 0.9492 0.52817 0.53862 0.0
H2477 H 0.04293 0.46659 0.46498 0.0
H2478 H 0.99157 0.46838 0.52876 0.0
H2479 H 0.00346 0.52803 0.47686 0.0
C2480 C 0.97811 0.54794 0.49448 0.0
C2481 C 0.96306 0.54842 0.51219 0.0
C2482 C 0.00302 0.46815 0.5149 0.0
C2483 C 0.98958 0.50841 0.504 0.0
C2484 C 0.01591 0.44792 0.51051 0.0
C2485 C 0.03009 0.44696 0.49222 0.0
C2486 C 0.00439 0.48739 0.50082 0.0
C2487 C 0.03213 0.46691 0.47927 0.0
C2488 C 0.99141 0.52791 0.49029 0.0
C2489 C 0.96071 0.52825 0.5248 0.0
N2490 N 0.01921 0.48631 0.48371 0.0
N2491 N 0.97401 0.50905 0.52057 0.0
H2492 H 0.05813 0.53436 0.00127 0.0
H2493 H 0.93804 0.46092 0.99928 0.0
H2494 H 0.991 0.56295 0.01943 0.0
H2495 H 0.00502 0.43264 0.98027 0.0
H2496 H 0.95723 0.49839 0.00763 0.0
H2497 H 0.03895 0.49688 0.99296 0.0
C2498 C 0.03931 0.53274 0.00322 0.0
C2499 C 0.02603 0.55152 0.01101 0.0
C2500 C 0.96774 0.48396 0.0017 0.0
C2501 C 0.00409 0.50898 0.00205 0.0
C2502 C 0.95682 0.46261 0.99713 0.0
C2503 C 0.97004 0.44394 0.98905 0.0
C2504 C 0.992 0.48645 0.99811 0.0
C2505 C 0.99426 0.44686 0.98628 0.0
C2506 C 0.02839 0.51139 0.99868 0.0
C2507 C 0.00178 0.54867 0.01359 0.0
N2508 N 0.00448 0.46776 0.99074 0.0
N2509 N 0.99157 0.52775 0.00919 0.0
H2510 H 0.43713 0.46372 0.50157 0.0
H2511 H 0.55796 0.53588 0.49775 0.0
H2512 H 0.50434 0.4343 0.51829 0.0
H2513 H 0.49101 0.56485 0.47954 0.0
H2514 H 0.53852 0.49859 0.50627 0.0
H2515 H 0.45654 0.501 0.49296 0.0
C2516 C 0.456 0.46512 0.50314 0.0
C2517 C 0.46924 0.44615 0.51063 0.0
C2518 C 0.52806 0.51314 0.50049 0.0
C2519 C 0.49146 0.48848 0.50131 0.0
C2520 C 0.53913 0.53438 0.49583 0.0
C2521 C 0.52598 0.55322 0.48797 0.0
C2522 C 0.50373 0.5109 0.49721 0.0
C2523 C 0.50171 0.55053 0.48544 0.0
C2524 C 0.46706 0.48636 0.49843 0.0
C2525 C 0.49358 0.44872 0.51271 0.0
N2526 N 0.49134 0.52971 0.48999 0.0
N2527 N 0.50393 0.46954 0.50815 0.0
loop_
_geom_bond_atom_site_label_1
_geom_bond_atom_site_label_2
_geom_bond_distance
_geom_bond_site_symmetry_2
_ccdc_geom_bond_type
Co0 O3 1.970 . S
Co0 N17 1.989 . S
Co0 O25 1.967 . S
Co0 O32 1.920 . S
Co1 O4 1.966 . S
Co1 N10 2.022 . S
Co1 N18 1.993 . S
Co1 O26 1.941 . S
C2 O3 1.258 . S
C2 O4 1.263 . S
O3 Co0 1.970 . S
O3 C2 1.258 . S
O4 Co1 1.966 . S
O4 C2 1.263 . S
C5 O6 1.235 . S
C5 O32 1.289 . S
O6 C5 1.235 . S
C7 C9 1.400 . S
C7 N10 1.351 . S
C7 C12 1.501 . S
C8 C9 1.387 . S
C8 N11 1.341 . S
C9 C7 1.400 . S
C9 C8 1.387 . S
N10 Co1 2.022 . S
N10 C7 1.351 . S
N10 N11 1.365 . S
N11 C8 1.341 . S
N11 N10 1.365 . S
N11 H31 0.862 . S
C12 C7 1.501 . S
C12 H13 0.961 . S
C12 H14 0.961 . S
C12 H15 0.960 . S
H13 C12 0.961 . S
H14 C12 0.961 . S
H15 C12 0.960 . S
C16 N17 1.342 . S
C16 C20 1.401 . S
C16 C21 1.499 . S
N17 Co0 1.989 . S
N17 C16 1.342 . S
N17 N18 1.388 . S
N18 Co1 1.993 . S
N18 N17 1.388 . S
N18 C19 1.346 . S
C19 N18 1.346 . S
C19 C20 1.396 . S
C19 C29 1.510 . S
C20 C16 1.401 . S
C20 C19 1.396 . S
C21 C16 1.499 . S
C21 H22 0.959 . S
C21 H23 0.960 . S
C21 H24 0.961 . S
H22 C21 0.959 . S
H23 C21 0.960 . S
H24 C21 0.961 . S
O25 Co0 1.967 . S
O25 C33 1.258 . S
O26 Co1 1.941 . S
O26 C33 1.266 . S
H27 C29 0.959 . S
H28 C29 0.961 . S
C29 C19 1.510 . S
C29 H27 0.959 . S
C29 H28 0.961 . S
C29 H30 0.960 . S
H30 C29 0.960 . S
H31 N11 0.862 . S
O32 Co0 1.920 . S
O32 C5 1.289 . S
C33 O25 1.258 . S
C33 O26 1.266 . S
Co34 O37 1.970 . S
Co34 N51 1.989 . S
Co34 O59 1.967 . S
Co34 O66 1.920 . S
Co35 O38 1.966 . S
Co35 N44 2.022 . S
Co35 N52 1.993 . S
Co35 O60 1.941 . S
C36 O37 1.258 . S
C36 O38 1.263 . S
O37 Co34 1.970 . S
O37 C36 1.258 . S
O38 Co35 1.966 . S
O38 C36 1.263 . S
C39 O40 1.235 . S
C39 O66 1.289 1_655 S
O40 C39 1.235 . S
C41 C43 1.400 . S
C41 N44 1.351 . S
C41 C46 1.501 . S
C42 C43 1.387 . S
C42 N45 1.341 . S
C43 C41 1.400 . S
C43 C42 1.387 . S
N44 Co35 2.022 . S
N44 C41 1.351 . S
N44 N45 1.365 . S
N45 C42 1.341 . S
N45 N44 1.365 . S
N45 H65 0.862 . S
C46 C41 1.501 . S
C46 H47 0.961 . S
C46 H48 0.961 . S
C46 H49 0.960 . S
H47 C46 0.961 . S
H48 C46 0.961 . S
H49 C46 0.960 . S
C50 N51 1.342 . S
C50 C54 1.401 . S
C50 C55 1.499 . S
N51 Co34 1.989 . S
N51 C50 1.342 . S
N51 N52 1.388 . S
N52 Co35 1.993 . S
N52 N51 1.388 . S
N52 C53 1.346 . S
C53 N52 1.346 . S
C53 C54 1.396 . S
C53 C63 1.510 . S
C54 C50 1.401 . S
C54 C53 1.396 . S
C55 C50 1.499 . S
C55 H56 0.959 . S
C55 H57 0.960 . S
C55 H58 0.961 . S
H56 C55 0.959 . S
H57 C55 0.960 . S
H58 C55 0.961 . S
O59 Co34 1.967 . S
O59 C67 1.258 . S
O60 Co35 1.941 . S
O60 C67 1.266 . S
H61 C63 0.959 . S
H62 C63 0.961 . S
C63 C53 1.510 . S
C63 H61 0.959 . S
C63 H62 0.961 . S
C63 H64 0.960 . S
H64 C63 0.960 . S
H65 N45 0.862 . S
O66 Co34 1.920 . S
O66 C39 1.289 1_455 S
C67 O59 1.258 . S
C67 O60 1.266 . S
Co68 O71 1.970 . S
Co68 N85 1.989 . S
Co68 O93 1.967 . S
Co68 O100 1.920 . S
Co69 O72 1.966 . S
Co69 N78 2.022 . S
Co69 N86 1.993 . S
Co69 O94 1.941 . S
C70 O71 1.258 . S
C70 O72 1.263 . S
O71 Co68 1.970 . S
O71 C70 1.258 . S
O72 Co69 1.966 . S
O72 C70 1.263 . S
C73 O74 1.235 . S
C73 O100 1.289 . S
O74 C73 1.235 . S
C75 C77 1.400 . S
C75 N78 1.351 . S
C75 C80 1.501 . S
C76 C77 1.387 . S
C76 N79 1.341 . S
C77 C75 1.400 . S
C77 C76 1.387 . S
N78 Co69 2.022 . S
N78 C75 1.351 . S
N78 N79 1.365 . S
N79 C76 1.341 . S
N79 N78 1.365 . S
N79 H99 0.862 . S
C80 C75 1.501 . S
C80 H81 0.961 . S
C80 H82 0.961 . S
C80 H83 0.960 . S
H81 C80 0.961 . S
H82 C80 0.961 . S
H83 C80 0.960 . S
C84 N85 1.342 . S
C84 C88 1.401 . S
C84 C89 1.499 . S
N85 Co68 1.989 . S
N85 C84 1.342 . S
N85 N86 1.388 . S
N86 Co69 1.993 . S
N86 N85 1.388 . S
N86 C87 1.346 . S
C87 N86 1.346 . S
C87 C88 1.396 . S
C87 C97 1.510 . S
C88 C84 1.401 . S
C88 C87 1.396 . S
C89 C84 1.499 . S
C89 H90 0.959 . S
C89 H91 0.960 . S
C89 H92 0.961 . S
H90 C89 0.959 . S
H91 C89 0.960 . S
H92 C89 0.961 . S
O93 Co68 1.967 . S
O93 C101 1.258 . S
O94 Co69 1.941 . S
O94 C101 1.266 . S
H95 C97 0.959 . S
H96 C97 0.961 . S
C97 C87 1.510 . S
C97 H95 0.959 . S
C97 H96 0.961 . S
C97 H98 0.960 . S
H98 C97 0.960 . S
H99 N79 0.862 . S
O100 Co68 1.920 . S
O100 C73 1.289 . S
C101 O93 1.258 . S
C101 O94 1.266 . S
Co102 O105 1.970 . S
Co102 N119 1.989 . S
Co102 O127 1.967 . S
Co102 O134 1.920 . S
Co103 O106 1.966 . S
Co103 N112 2.022 1_554 S
Co103 N120 1.993 . S
Co103 O128 1.941 . S
C104 O105 1.258 . S
C104 O106 1.263 . S
O105 Co102 1.970 . S
O105 C104 1.258 . S
O106 Co103 1.966 . S
O106 C104 1.263 . S
C107 O108 1.235 . S
C107 O134 1.289 . S
O108 C107 1.235 . S
C109 C111 1.400 . S
C109 N112 1.351 . S
C109 C114 1.501 . S
C110 C111 1.387 . S
C110 N113 1.341 . S
C111 C109 1.400 . S
C111 C110 1.387 . S
N112 Co103 2.022 1_556 S
N112 C109 1.351 . S
N112 N113 1.365 . S
N113 C110 1.341 . S
N113 N112 1.365 . S
N113 H133 0.862 . S
C114 C109 1.501 . S
C114 H115 0.961 . S
C114 H116 0.961 . S
C114 H117 0.960 . S
H115 C114 0.961 . S
H116 C114 0.961 . S
H117 C114 0.960 . S
C118 N119 1.342 . S
C118 C122 1.401 . S
C118 C123 1.499 . S
N119 Co102 1.989 . S
N119 C118 1.342 . S
N119 N120 1.388 . S
N120 Co103 1.993 . S
N120 N119 1.388 . S
N120 C121 1.346 . S
C121 N120 1.346 . S
C121 C122 1.396 . S
C121 C131 1.510 1_554 S
C122 C118 1.401 . S
C122 C121 1.396 . S
C123 C118 1.499 . S
C123 H124 0.959 . S
C123 H125 0.960 . S
C123 H126 0.961 . S
H124 C123 0.959 . S
H125 C123 0.960 . S
H126 C123 0.961 . S
O127 Co102 1.967 . S
O127 C135 1.258 . S
O128 Co103 1.941 . S
O128 C135 1.266 . S
H129 C131 0.959 . S
H130 C131 0.961 . S
C131 C121 1.510 1_556 S
C131 H129 0.959 . S
C131 H130 0.961 . S
C131 H132 0.960 . S
H132 C131 0.960 . S
H133 N113 0.862 . S
O134 Co102 1.920 . S
O134 C107 1.289 . S
C135 O127 1.258 . S
C135 O128 1.266 . S
Co136 O139 1.970 . S
Co136 N153 1.989 . S
Co136 O161 1.967 . S
Co136 O168 1.920 . S
Co137 O140 1.966 . S
Co137 N146 2.022 . S
Co137 N154 1.993 . S
Co137 O162 1.941 . S
C138 O139 1.258 . S
C138 O140 1.263 . S
O139 Co136 1.970 . S
O139 C138 1.258 . S
O140 Co137 1.966 . S
O140 C138 1.263 . S
C141 O142 1.235 . S
C141 O168 1.289 . S
O142 C141 1.235 . S
C143 C145 1.400 . S
C143 N146 1.351 . S
C143 C148 1.501 . S
C144 C145 1.387 . S
C144 N147 1.341 . S
C145 C143 1.400 . S
C145 C144 1.387 . S
N146 Co137 2.022 . S
N146 C143 1.351 . S
N146 N147 1.365 . S
N147 C144 1.341 . S
N147 N146 1.365 . S
N147 H167 0.862 . S
C148 C143 1.501 . S
C148 H149 0.961 . S
C148 H150 0.961 . S
C148 H151 0.960 . S
H149 C148 0.961 . S
H150 C148 0.961 . S
H151 C148 0.960 . S
C152 N153 1.342 . S
C152 C156 1.401 . S
C152 C157 1.499 . S
N153 Co136 1.989 . S
N153 C152 1.342 . S
N153 N154 1.388 . S
N154 Co137 1.993 . S
N154 N153 1.388 . S
N154 C155 1.346 . S
C155 N154 1.346 . S
C155 C156 1.396 . S
C155 C165 1.510 . S
C156 C152 1.401 . S
C156 C155 1.396 . S
C157 C152 1.499 . S
C157 H158 0.959 . S
C157 H159 0.960 . S
C157 H160 0.961 . S
H158 C157 0.959 . S
H159 C157 0.960 . S
H160 C157 0.961 . S
O161 Co136 1.967 . S
O161 C169 1.258 . S
O162 Co137 1.941 . S
O162 C169 1.266 . S
H163 C165 0.959 . S
H164 C165 0.961 . S
C165 C155 1.510 . S
C165 H163 0.959 . S
C165 H164 0.961 . S
C165 H166 0.960 . S
H166 C165 0.960 . S
H167 N147 0.862 . S
O168 Co136 1.920 . S
O168 C141 1.289 . S
C169 O161 1.258 . S
C169 O162 1.266 . S
Co170 O173 1.970 . S
Co170 N187 1.989 . S
Co170 O195 1.967 . S
Co170 O202 1.920 . S
Co171 O174 1.966 . S
Co171 N180 2.022 . S
Co171 N188 1.993 . S
Co171 O196 1.941 . S
C172 O173 1.258 . S
C172 O174 1.263 . S
O173 Co170 1.970 . S
O173 C172 1.258 . S
O174 Co171 1.966 . S
O174 C172 1.263 . S
C175 O176 1.235 . S
C175 O202 1.289 . S
O176 C175 1.235 . S
C177 C179 1.400 . S
C177 N180 1.351 . S
C177 C182 1.501 . S
C178 C179 1.387 . S
C178 N181 1.341 . S
C179 C177 1.400 . S
C179 C178 1.387 . S
N180 Co171 2.022 . S
N180 C177 1.351 . S
N180 N181 1.365 . S
N181 C178 1.341 . S
N181 N180 1.365 . S
N181 H201 0.862 . S
C182 C177 1.501 . S
C182 H183 0.961 . S
C182 H184 0.961 . S
C182 H185 0.960 . S
H183 C182 0.961 . S
H184 C182 0.961 . S
H185 C182 0.960 . S
C186 N187 1.342 . S
C186 C190 1.401 . S
C186 C191 1.499 . S
N187 Co170 1.989 . S
N187 C186 1.342 . S
N187 N188 1.388 . S
N188 Co171 1.993 . S
N188 N187 1.388 . S
N188 C189 1.346 . S
C189 N188 1.346 . S
C189 C190 1.396 . S
C189 C199 1.510 . S
C190 C186 1.401 . S
C190 C189 1.396 . S
C191 C186 1.499 . S
C191 H192 0.959 . S
C191 H193 0.960 . S
C191 H194 0.961 . S
H192 C191 0.959 . S
H193 C191 0.960 . S
H194 C191 0.961 . S
O195 Co170 1.967 . S
O195 C203 1.258 . S
O196 Co171 1.941 . S
O196 C203 1.266 . S
H197 C199 0.959 . S
H198 C199 0.961 . S
C199 C189 1.510 . S
C199 H197 0.959 . S
C199 H198 0.961 . S
C199 H200 0.960 . S
H200 C199 0.960 . S
H201 N181 0.862 . S
O202 Co170 1.920 . S
O202 C175 1.289 . S
C203 O195 1.258 . S
C203 O196 1.266 . S
Co204 O207 1.970 . S
Co204 N221 1.989 . S
Co204 O229 1.967 . S
Co204 O236 1.920 . S
Co205 O208 1.966 . S
Co205 N214 2.022 . S
Co205 N222 1.993 . S
Co205 O230 1.941 . S
C206 O207 1.258 . S
C206 O208 1.263 . S
O207 Co204 1.970 . S
O207 C206 1.258 . S
O208 Co205 1.966 . S
O208 C206 1.263 . S
C209 O210 1.235 . S
C209 O236 1.289 . S
O210 C209 1.235 . S
C211 C213 1.400 . S
C211 N214 1.351 . S
C211 C216 1.501 . S
C212 C213 1.387 . S
C212 N215 1.341 . S
C213 C211 1.400 . S
C213 C212 1.387 . S
N214 Co205 2.022 . S
N214 C211 1.351 . S
N214 N215 1.365 . S
N215 C212 1.341 . S
N215 N214 1.365 . S
N215 H235 0.862 . S
C216 C211 1.501 . S
C216 H217 0.961 . S
C216 H218 0.961 . S
C216 H219 0.960 . S
H217 C216 0.961 . S
H218 C216 0.961 . S
H219 C216 0.960 . S
C220 N221 1.342 . S
C220 C224 1.401 . S
C220 C225 1.499 . S
N221 Co204 1.989 . S
N221 C220 1.342 . S
N221 N222 1.388 . S
N222 Co205 1.993 . S
N222 N221 1.388 . S
N222 C223 1.346 . S
C223 N222 1.346 . S
C223 C224 1.396 . S
C223 C233 1.510 . S
C224 C220 1.401 . S
C224 C223 1.396 . S
C225 C220 1.499 . S
C225 H226 0.959 . S
C225 H227 0.960 . S
C225 H228 0.961 . S
H226 C225 0.959 . S
H227 C225 0.960 . S
H228 C225 0.961 . S
O229 Co204 1.967 . S
O229 C237 1.258 . S
O230 Co205 1.941 . S
O230 C237 1.266 . S
H231 C233 0.959 . S
H232 C233 0.961 . S
C233 C223 1.510 . S
C233 H231 0.959 . S
C233 H232 0.961 . S
C233 H234 0.960 . S
H234 C233 0.960 . S
H235 N215 0.862 . S
O236 Co204 1.920 . S
O236 C209 1.289 . S
C237 O229 1.258 . S
C237 O230 1.266 . S
Co238 O241 1.970 . S
Co238 N255 1.989 . S
Co238 O263 1.967 . S
Co238 O270 1.920 . S
Co239 O242 1.966 . S
Co239 N248 2.022 1_556 S
Co239 N256 1.993 . S
Co239 O264 1.941 . S
C240 O241 1.258 . S
C240 O242 1.263 . S
O241 Co238 1.970 . S
O241 C240 1.258 . S
O242 Co239 1.966 . S
O242 C240 1.263 . S
C243 O244 1.235 . S
C243 O270 1.289 1_655 S
O244 C243 1.235 . S
C245 C247 1.400 . S
C245 N248 1.351 . S
C245 C250 1.501 . S
C246 C247 1.387 . S
C246 N249 1.341 . S
C247 C245 1.400 . S
C247 C246 1.387 . S
N248 Co239 2.022 1_554 S
N248 C245 1.351 . S
N248 N249 1.365 . S
N249 C246 1.341 . S
N249 N248 1.365 . S
N249 H269 0.862 . S
C250 C245 1.501 . S
C250 H251 0.961 . S
C250 H252 0.961 . S
C250 H253 0.960 . S
H251 C250 0.961 . S
H252 C250 0.961 . S
H253 C250 0.960 . S
C254 N255 1.342 . S
C254 C258 1.401 . S
C254 C259 1.499 . S
N255 Co238 1.989 . S
N255 C254 1.342 . S
N255 N256 1.388 . S
N256 Co239 1.993 . S
N256 N255 1.388 . S
N256 C257 1.346 . S
C257 N256 1.346 . S
C257 C258 1.396 . S
C257 C267 1.510 1_556 S
C258 C254 1.401 . S
C258 C257 1.396 . S
C259 C254 1.499 . S
C259 H260 0.959 . S
C259 H261 0.960 . S
C259 H262 0.961 . S
H260 C259 0.959 . S
H261 C259 0.960 . S
H262 C259 0.961 . S
O263 Co238 1.967 . S
O263 C271 1.258 . S
O264 Co239 1.941 . S
O264 C271 1.266 . S
H265 C267 0.959 . S
H266 C267 0.961 . S
C267 C257 1.510 1_554 S
C267 H265 0.959 . S
C267 H266 0.961 . S
C267 H268 0.960 . S
H268 C267 0.960 . S
H269 N249 0.862 . S
O270 Co238 1.920 . S
O270 C243 1.289 1_455 S
C271 O263 1.258 . S
C271 O264 1.266 . S
Co272 O275 1.970 . S
Co272 N289 1.989 . S
Co272 O297 1.967 . S
Co272 O304 1.920 . S
Co273 O276 1.966 . S
Co273 N282 2.022 . S
Co273 N290 1.993 . S
Co273 O298 1.941 . S
C274 O275 1.258 . S
C274 O276 1.263 . S
O275 Co272 1.970 . S
O275 C274 1.258 . S
O276 Co273 1.966 . S
O276 C274 1.263 . S
C277 O278 1.235 . S
C277 O304 1.289 . S
O278 C277 1.235 . S
C279 C281 1.400 . S
C279 N282 1.351 . S
C279 C284 1.501 . S
C280 C281 1.387 . S
C280 N283 1.341 . S
C281 C279 1.400 . S
C281 C280 1.387 . S
N282 Co273 2.022 . S
N282 C279 1.351 . S
N282 N283 1.365 . S
N283 C280 1.341 . S
N283 N282 1.365 . S
N283 H303 0.862 . S
C284 C279 1.501 . S
C284 H285 0.961 . S
C284 H286 0.961 . S
C284 H287 0.960 . S
H285 C284 0.961 . S
H286 C284 0.961 . S
H287 C284 0.960 . S
C288 N289 1.342 . S
C288 C292 1.401 . S
C288 C293 1.499 . S
N289 Co272 1.989 . S
N289 C288 1.342 . S
N289 N290 1.388 . S
N290 Co273 1.993 . S
N290 N289 1.388 . S
N290 C291 1.346 . S
C291 N290 1.346 . S
C291 C292 1.396 . S
C291 C301 1.510 . S
C292 C288 1.401 . S
C292 C291 1.396 . S
C293 C288 1.499 . S
C293 H294 0.959 . S
C293 H295 0.960 . S
C293 H296 0.961 . S
H294 C293 0.959 . S
H295 C293 0.960 . S
H296 C293 0.961 . S
O297 Co272 1.967 . S
O297 C305 1.258 . S
O298 Co273 1.941 . S
O298 C305 1.266 . S
H299 C301 0.959 . S
H300 C301 0.961 . S
C301 C291 1.510 . S
C301 H299 0.959 . S
C301 H300 0.961 . S
C301 H302 0.960 . S
H302 C301 0.960 . S
H303 N283 0.862 . S
O304 Co272 1.920 . S
O304 C277 1.289 . S
C305 O297 1.258 . S
C305 O298 1.266 . S
Co306 O309 1.970 . S
Co306 N323 1.989 . S
Co306 O331 1.967 . S
Co306 O338 1.920 . S
Co307 O310 1.966 . S
Co307 N316 2.022 . S
Co307 N324 1.993 . S
Co307 O332 1.941 . S
C308 O309 1.258 . S
C308 O310 1.263 . S
O309 Co306 1.970 . S
O309 C308 1.258 . S
O310 Co307 1.966 . S
O310 C308 1.263 . S
C311 O312 1.235 . S
C311 O338 1.289 1_455 S
O312 C311 1.235 . S
C313 C315 1.400 . S
C313 N316 1.351 . S
C313 C318 1.501 . S
C314 C315 1.387 . S
C314 N317 1.341 . S
C315 C313 1.400 . S
C315 C314 1.387 . S
N316 Co307 2.022 . S
N316 C313 1.351 . S
N316 N317 1.365 . S
N317 C314 1.341 . S
N317 N316 1.365 . S
N317 H337 0.862 . S
C318 C313 1.501 . S
C318 H319 0.961 . S
C318 H320 0.961 . S
C318 H321 0.960 . S
H319 C318 0.961 . S
H320 C318 0.961 . S
H321 C318 0.960 . S
C322 N323 1.342 . S
C322 C326 1.401 . S
C322 C327 1.499 . S
N323 Co306 1.989 . S
N323 C322 1.342 . S
N323 N324 1.388 . S
N324 Co307 1.993 . S
N324 N323 1.388 . S
N324 C325 1.346 . S
C325 N324 1.346 . S
C325 C326 1.396 . S
C325 C335 1.510 . S
C326 C322 1.401 . S
C326 C325 1.396 . S
C327 C322 1.499 . S
C327 H328 0.959 . S
C327 H329 0.960 . S
C327 H330 0.961 . S
H328 C327 0.959 . S
H329 C327 0.960 . S
H330 C327 0.961 . S
O331 Co306 1.967 . S
O331 C339 1.258 . S
O332 Co307 1.941 . S
O332 C339 1.266 . S
H333 C335 0.959 . S
H334 C335 0.961 . S
C335 C325 1.510 . S
C335 H333 0.959 . S
C335 H334 0.961 . S
C335 H336 0.960 . S
H336 C335 0.960 . S
H337 N317 0.862 . S
O338 Co306 1.920 . S
O338 C311 1.289 1_655 S
C339 O331 1.258 . S
C339 O332 1.266 . S
Co340 O343 1.970 . S
Co340 N357 1.989 . S
Co340 O365 1.967 . S
Co340 O372 1.920 . S
Co341 O344 1.966 . S
Co341 N350 2.022 . S
Co341 N358 1.993 . S
Co341 O366 1.941 . S
C342 O343 1.258 . S
C342 O344 1.263 . S
O343 Co340 1.970 . S
O343 C342 1.258 . S
O344 Co341 1.966 . S
O344 C342 1.263 . S
C345 O346 1.235 . S
C345 O372 1.289 . S
O346 C345 1.235 . S
C347 C349 1.400 . S
C347 N350 1.351 . S
C347 C352 1.501 . S
C348 C349 1.387 . S
C348 N351 1.341 . S
C349 C347 1.400 . S
C349 C348 1.387 . S
N350 Co341 2.022 . S
N350 C347 1.351 . S
N350 N351 1.365 . S
N351 C348 1.341 . S
N351 N350 1.365 . S
N351 H371 0.862 . S
C352 C347 1.501 . S
C352 H353 0.961 . S
C352 H354 0.961 . S
C352 H355 0.960 . S
H353 C352 0.961 . S
H354 C352 0.961 . S
H355 C352 0.960 . S
C356 N357 1.342 . S
C356 C360 1.401 . S
C356 C361 1.499 . S
N357 Co340 1.989 . S
N357 C356 1.342 . S
N357 N358 1.388 . S
N358 Co341 1.993 . S
N358 N357 1.388 . S
N358 C359 1.346 . S
C359 N358 1.346 . S
C359 C360 1.396 . S
C359 C369 1.510 . S
C360 C356 1.401 . S
C360 C359 1.396 . S
C361 C356 1.499 . S
C361 H362 0.959 . S
C361 H363 0.960 . S
C361 H364 0.961 . S
H362 C361 0.959 . S
H363 C361 0.960 . S
H364 C361 0.961 . S
O365 Co340 1.967 . S
O365 C373 1.258 . S
O366 Co341 1.941 . S
O366 C373 1.266 . S
H367 C369 0.959 . S
H368 C369 0.961 . S
C369 C359 1.510 . S
C369 H367 0.959 . S
C369 H368 0.961 . S
C369 H370 0.960 . S
H370 C369 0.960 . S
H371 N351 0.862 . S
O372 Co340 1.920 . S
O372 C345 1.289 . S
C373 O365 1.258 . S
C373 O366 1.266 . S
Co374 O377 1.970 . S
Co374 N391 1.989 . S
Co374 O399 1.967 . S
Co374 O406 1.920 . S
Co375 O378 1.966 . S
Co375 N384 2.022 1_556 S
Co375 N392 1.993 . S
Co375 O400 1.941 . S
C376 O377 1.258 . S
C376 O378 1.263 . S
O377 Co374 1.970 . S
O377 C376 1.258 . S
O378 Co375 1.966 . S
O378 C376 1.263 . S
C379 O380 1.235 . S
C379 O406 1.289 . S
O380 C379 1.235 . S
C381 C383 1.400 . S
C381 N384 1.351 . S
C381 C386 1.501 . S
C382 C383 1.387 . S
C382 N385 1.341 . S
C383 C381 1.400 . S
C383 C382 1.387 . S
N384 Co375 2.022 1_554 S
N384 C381 1.351 . S
N384 N385 1.365 . S
N385 C382 1.341 . S
N385 N384 1.365 . S
N385 H405 0.862 . S
C386 C381 1.501 . S
C386 H387 0.961 . S
C386 H388 0.961 . S
C386 H389 0.960 . S
H387 C386 0.961 . S
H388 C386 0.961 . S
H389 C386 0.960 . S
C390 N391 1.342 . S
C390 C394 1.401 . S
C390 C395 1.499 . S
N391 Co374 1.989 . S
N391 C390 1.342 . S
N391 N392 1.388 . S
N392 Co375 1.993 . S
N392 N391 1.388 . S
N392 C393 1.346 . S
C393 N392 1.346 . S
C393 C394 1.396 . S
C393 C403 1.510 1_556 S
C394 C390 1.401 . S
C394 C393 1.396 . S
C395 C390 1.499 . S
C395 H396 0.959 . S
C395 H397 0.960 . S
C395 H398 0.961 . S
H396 C395 0.959 . S
H397 C395 0.960 . S
H398 C395 0.961 . S
O399 Co374 1.967 . S
O399 C407 1.258 . S
O400 Co375 1.941 . S
O400 C407 1.266 . S
H401 C403 0.959 . S
H402 C403 0.961 . S
C403 C393 1.510 1_554 S
C403 H401 0.959 . S
C403 H402 0.961 . S
C403 H404 0.960 . S
H404 C403 0.960 . S
H405 N385 0.862 . S
O406 Co374 1.920 . S
O406 C379 1.289 . S
C407 O399 1.258 . S
C407 O400 1.266 . S
Co408 O411 1.970 . S
Co408 N425 1.989 . S
Co408 O433 1.967 . S
Co408 O440 1.920 . S
Co409 O412 1.966 . S
Co409 N418 2.022 . S
Co409 N426 1.993 . S
Co409 O434 1.941 . S
C410 O411 1.258 . S
C410 O412 1.263 . S
O411 Co408 1.970 . S
O411 C410 1.258 . S
O412 Co409 1.966 . S
O412 C410 1.263 . S
C413 O414 1.235 . S
C413 O440 1.289 . S
O414 C413 1.235 . S
C415 C417 1.400 . S
C415 N418 1.351 . S
C415 C420 1.501 . S
C416 C417 1.387 . S
C416 N419 1.341 . S
C417 C415 1.400 . S
C417 C416 1.387 . S
N418 Co409 2.022 . S
N418 C415 1.351 . S
N418 N419 1.365 . S
N419 C416 1.341 . S
N419 N418 1.365 . S
N419 H439 0.862 . S
C420 C415 1.501 . S
C420 H421 0.961 . S
C420 H422 0.961 . S
C420 H423 0.960 . S
H421 C420 0.961 . S
H422 C420 0.961 . S
H423 C420 0.960 . S
C424 N425 1.342 . S
C424 C428 1.401 . S
C424 C429 1.499 . S
N425 Co408 1.989 . S
N425 C424 1.342 . S
N425 N426 1.388 . S
N426 Co409 1.993 . S
N426 N425 1.388 . S
N426 C427 1.346 . S
C427 N426 1.346 . S
C427 C428 1.396 . S
C427 C437 1.510 . S
C428 C424 1.401 . S
C428 C427 1.396 . S
C429 C424 1.499 . S
C429 H430 0.959 . S
C429 H431 0.960 . S
C429 H432 0.961 . S
H430 C429 0.959 . S
H431 C429 0.960 . S
H432 C429 0.961 . S
O433 Co408 1.967 . S
O433 C441 1.258 . S
O434 Co409 1.941 . S
O434 C441 1.266 . S
H435 C437 0.959 . S
H436 C437 0.961 . S
C437 C427 1.510 . S
C437 H435 0.959 . S
C437 H436 0.961 . S
C437 H438 0.960 . S
H438 C437 0.960 . S
H439 N419 0.862 . S
O440 Co408 1.920 . S
O440 C413 1.289 . S
C441 O433 1.258 . S
C441 O434 1.266 . S
Co442 O445 1.970 . S
Co442 N459 1.989 . S
Co442 O467 1.967 . S
Co442 O474 1.920 . S
Co443 O446 1.966 . S
Co443 N452 2.022 . S
Co443 N460 1.993 . S
Co443 O468 1.941 . S
C444 O445 1.258 . S
C444 O446 1.263 . S
O445 Co442 1.970 . S
O445 C444 1.258 . S
O446 Co443 1.966 . S
O446 C444 1.263 . S
C447 O448 1.235 . S
C447 O474 1.289 . S
O448 C447 1.235 . S
C449 C451 1.400 . S
C449 N452 1.351 . S
C449 C454 1.501 . S
C450 C451 1.387 . S
C450 N453 1.341 . S
C451 C449 1.400 . S
C451 C450 1.387 . S
N452 Co443 2.022 . S
N452 C449 1.351 . S
N452 N453 1.365 . S
N453 C450 1.341 . S
N453 N452 1.365 . S
N453 H473 0.862 . S
C454 C449 1.501 . S
C454 H455 0.961 . S
C454 H456 0.961 . S
C454 H457 0.960 . S
H455 C454 0.961 . S
H456 C454 0.961 . S
H457 C454 0.960 . S
C458 N459 1.342 . S
C458 C462 1.401 . S
C458 C463 1.499 . S
N459 Co442 1.989 . S
N459 C458 1.342 . S
N459 N460 1.388 . S
N460 Co443 1.993 . S
N460 N459 1.388 . S
N460 C461 1.346 . S
C461 N460 1.346 . S
C461 C462 1.396 . S
C461 C471 1.510 . S
C462 C458 1.401 . S
C462 C461 1.396 . S
C463 C458 1.499 . S
C463 H464 0.959 . S
C463 H465 0.960 . S
C463 H466 0.961 . S
H464 C463 0.959 . S
H465 C463 0.960 . S
H466 C463 0.961 . S
O467 Co442 1.967 . S
O467 C475 1.258 . S
O468 Co443 1.941 . S
O468 C475 1.266 . S
H469 C471 0.959 . S
H470 C471 0.961 . S
C471 C461 1.510 . S
C471 H469 0.959 . S
C471 H470 0.961 . S
C471 H472 0.960 . S
H472 C471 0.960 . S
H473 N453 0.862 . S
O474 Co442 1.920 . S
O474 C447 1.289 . S
C475 O467 1.258 . S
C475 O468 1.266 . S
Co476 O479 1.970 . S
Co476 N493 1.989 . S
Co476 O501 1.967 . S
Co476 O508 1.920 . S
Co477 O480 1.966 . S
Co477 N486 2.022 . S
Co477 N494 1.993 . S
Co477 O502 1.941 . S
C478 O479 1.258 . S
C478 O480 1.263 . S
O479 Co476 1.970 . S
O479 C478 1.258 . S
O480 Co477 1.966 . S
O480 C478 1.263 . S
C481 O482 1.235 . S
C481 O508 1.289 . S
O482 C481 1.235 . S
C483 C485 1.400 . S
C483 N486 1.351 . S
C483 C488 1.501 . S
C484 C485 1.387 . S
C484 N487 1.341 . S
C485 C483 1.400 . S
C485 C484 1.387 . S
N486 Co477 2.022 . S
N486 C483 1.351 . S
N486 N487 1.365 . S
N487 C484 1.341 . S
N487 N486 1.365 . S
N487 H507 0.862 . S
C488 C483 1.501 . S
C488 H489 0.961 . S
C488 H490 0.961 . S
C488 H491 0.960 . S
H489 C488 0.961 . S
H490 C488 0.961 . S
H491 C488 0.960 . S
C492 N493 1.342 . S
C492 C496 1.401 . S
C492 C497 1.499 . S
N493 Co476 1.989 . S
N493 C492 1.342 . S
N493 N494 1.388 . S
N494 Co477 1.993 . S
N494 N493 1.388 . S
N494 C495 1.346 . S
C495 N494 1.346 . S
C495 C496 1.396 . S
C495 C505 1.510 . S
C496 C492 1.401 . S
C496 C495 1.396 . S
C497 C492 1.499 . S
C497 H498 0.959 . S
C497 H499 0.960 . S
C497 H500 0.961 . S
H498 C497 0.959 . S
H499 C497 0.960 . S
H500 C497 0.961 . S
O501 Co476 1.967 . S
O501 C509 1.258 . S
O502 Co477 1.941 . S
O502 C509 1.266 . S
H503 C505 0.959 . S
H504 C505 0.961 . S
C505 C495 1.510 . S
C505 H503 0.959 . S
C505 H504 0.961 . S
C505 H506 0.960 . S
H506 C505 0.960 . S
H507 N487 0.862 . S
O508 Co476 1.920 . S
O508 C481 1.289 . S
C509 O501 1.258 . S
C509 O502 1.266 . S
Co510 O513 1.970 . S
Co510 N527 1.989 . S
Co510 O535 1.967 . S
Co510 O542 1.920 . S
Co511 O514 1.966 . S
Co511 N520 2.022 1_554 S
Co511 N528 1.993 . S
Co511 O536 1.941 . S
C512 O513 1.258 . S
C512 O514 1.263 . S
O513 Co510 1.970 . S
O513 C512 1.258 . S
O514 Co511 1.966 . S
O514 C512 1.263 . S
C515 O516 1.235 . S
C515 O542 1.289 1_455 S
O516 C515 1.235 . S
C517 C519 1.400 . S
C517 N520 1.351 . S
C517 C522 1.501 . S
C518 C519 1.387 . S
C518 N521 1.341 . S
C519 C517 1.400 . S
C519 C518 1.387 . S
N520 Co511 2.022 1_556 S
N520 C517 1.351 . S
N520 N521 1.365 . S
N521 C518 1.341 . S
N521 N520 1.365 . S
N521 H541 0.862 . S
C522 C517 1.501 . S
C522 H523 0.961 . S
C522 H524 0.961 . S
C522 H525 0.960 . S
H523 C522 0.961 . S
H524 C522 0.961 . S
H525 C522 0.960 . S
C526 N527 1.342 . S
C526 C530 1.401 . S
C526 C531 1.499 . S
N527 Co510 1.989 . S
N527 C526 1.342 . S
N527 N528 1.388 . S
N528 Co511 1.993 . S
N528 N527 1.388 . S
N528 C529 1.346 . S
C529 N528 1.346 . S
C529 C530 1.396 . S
C529 C539 1.510 1_554 S
C530 C526 1.401 . S
C530 C529 1.396 . S
C531 C526 1.499 . S
C531 H532 0.959 . S
C531 H533 0.960 . S
C531 H534 0.961 . S
H532 C531 0.959 . S
H533 C531 0.960 . S
H534 C531 0.961 . S
O535 Co510 1.967 . S
O535 C543 1.258 . S
O536 Co511 1.941 . S
O536 C543 1.266 . S
H537 C539 0.959 . S
H538 C539 0.961 . S
C539 C529 1.510 1_556 S
C539 H537 0.959 . S
C539 H538 0.961 . S
C539 H540 0.960 . S
H540 C539 0.960 . S
H541 N521 0.862 . S
O542 Co510 1.920 . S
O542 C515 1.289 1_655 S
C543 O535 1.258 . S
C543 O536 1.266 . S
Co544 O547 1.970 . S
Co544 N561 1.989 . S
Co544 O569 1.967 . S
Co544 O576 1.920 . S
Co545 O548 1.966 . S
Co545 N554 2.022 . S
Co545 N562 1.993 . S
Co545 O570 1.941 . S
C546 O547 1.258 . S
C546 O548 1.263 . S
O547 Co544 1.970 . S
O547 C546 1.258 . S
O548 Co545 1.966 . S
O548 C546 1.263 . S
C549 O550 1.235 . S
C549 O576 1.289 . S
O550 C549 1.235 . S
C551 C553 1.400 . S
C551 N554 1.351 . S
C551 C556 1.501 . S
C552 C553 1.387 . S
C552 N555 1.341 . S
C553 C551 1.400 . S
C553 C552 1.387 . S
N554 Co545 2.022 . S
N554 C551 1.351 . S
N554 N555 1.365 . S
N555 C552 1.341 . S
N555 N554 1.365 . S
N555 H575 0.862 . S
C556 C551 1.501 . S
C556 H557 0.961 . S
C556 H558 0.961 . S
C556 H559 0.960 . S
H557 C556 0.961 . S
H558 C556 0.961 . S
H559 C556 0.960 . S
C560 N561 1.342 . S
C560 C564 1.401 . S
C560 C565 1.499 . S
N561 Co544 1.989 . S
N561 C560 1.342 . S
N561 N562 1.388 . S
N562 Co545 1.993 . S
N562 N561 1.388 . S
N562 C563 1.346 . S
C563 N562 1.346 . S
C563 C564 1.396 . S
C563 C573 1.510 . S
C564 C560 1.401 . S
C564 C563 1.396 . S
C565 C560 1.499 . S
C565 H566 0.959 . S
C565 H567 0.960 . S
C565 H568 0.961 . S
H566 C565 0.959 . S
H567 C565 0.960 . S
H568 C565 0.961 . S
O569 Co544 1.967 . S
O569 C577 1.258 . S
O570 Co545 1.941 . S
O570 C577 1.266 . S
H571 C573 0.959 . S
H572 C573 0.961 . S
C573 C563 1.510 . S
C573 H571 0.959 . S
C573 H572 0.961 . S
C573 H574 0.960 . S
H574 C573 0.960 . S
H575 N555 0.862 . S
O576 Co544 1.920 . S
O576 C549 1.289 . S
C577 O569 1.258 . S
C577 O570 1.266 . S
Co578 O581 1.970 . S
Co578 N595 1.989 . S
Co578 O603 1.967 . S
Co578 O610 1.920 . S
Co579 O582 1.966 . S
Co579 N588 2.022 1_554 S
Co579 N596 1.993 . S
Co579 O604 1.941 . S
C580 O581 1.258 . S
C580 O582 1.263 . S
O581 Co578 1.970 . S
O581 C580 1.258 . S
O582 Co579 1.966 . S
O582 C580 1.263 . S
C583 O584 1.235 . S
C583 O610 1.289 . S
O584 C583 1.235 . S
C585 C587 1.400 . S
C585 N588 1.351 . S
C585 C590 1.501 . S
C586 C587 1.387 . S
C586 N589 1.341 . S
C587 C585 1.400 . S
C587 C586 1.387 . S
N588 Co579 2.022 1_556 S
N588 C585 1.351 . S
N588 N589 1.365 . S
N589 C586 1.341 . S
N589 N588 1.365 . S
N589 H609 0.862 . S
C590 C585 1.501 . S
C590 H591 0.961 . S
C590 H592 0.961 . S
C590 H593 0.960 . S
H591 C590 0.961 . S
H592 C590 0.961 . S
H593 C590 0.960 . S
C594 N595 1.342 . S
C594 C598 1.401 . S
C594 C599 1.499 . S
N595 Co578 1.989 . S
N595 C594 1.342 . S
N595 N596 1.388 . S
N596 Co579 1.993 . S
N596 N595 1.388 . S
N596 C597 1.346 . S
C597 N596 1.346 . S
C597 C598 1.396 . S
C597 C607 1.510 1_554 S
C598 C594 1.401 . S
C598 C597 1.396 . S
C599 C594 1.499 . S
C599 H600 0.959 . S
C599 H601 0.960 . S
C599 H602 0.961 . S
H600 C599 0.959 . S
H601 C599 0.960 . S
H602 C599 0.961 . S
O603 Co578 1.967 . S
O603 C611 1.258 . S
O604 Co579 1.941 . S
O604 C611 1.266 . S
H605 C607 0.959 . S
H606 C607 0.961 . S
C607 C597 1.510 1_556 S
C607 H605 0.959 . S
C607 H606 0.961 . S
C607 H608 0.960 . S
H608 C607 0.960 . S
H609 N589 0.862 . S
O610 Co578 1.920 . S
O610 C583 1.289 . S
C611 O603 1.258 . S
C611 O604 1.266 . S
Co612 O615 1.970 . S
Co612 N629 1.989 . S
Co612 O637 1.967 . S
Co612 O644 1.920 . S
Co613 O616 1.966 . S
Co613 N622 2.022 . S
Co613 N630 1.993 . S
Co613 O638 1.941 . S
C614 O615 1.258 . S
C614 O616 1.263 . S
O615 Co612 1.970 . S
O615 C614 1.258 . S
O616 Co613 1.966 . S
O616 C614 1.263 . S
C617 O618 1.235 . S
C617 O644 1.289 . S
O618 C617 1.235 . S
C619 C621 1.400 . S
C619 N622 1.351 . S
C619 C624 1.501 . S
C620 C621 1.387 . S
C620 N623 1.341 . S
C621 C619 1.400 . S
C621 C620 1.387 . S
N622 Co613 2.022 . S
N622 C619 1.351 . S
N622 N623 1.365 . S
N623 C620 1.341 . S
N623 N622 1.365 . S
N623 H643 0.862 . S
C624 C619 1.501 . S
C624 H625 0.961 . S
C624 H626 0.961 . S
C624 H627 0.960 . S
H625 C624 0.961 . S
H626 C624 0.961 . S
H627 C624 0.960 . S
C628 N629 1.342 . S
C628 C632 1.401 . S
C628 C633 1.499 . S
N629 Co612 1.989 . S
N629 C628 1.342 . S
N629 N630 1.388 . S
N630 Co613 1.993 . S
N630 N629 1.388 . S
N630 C631 1.346 . S
C631 N630 1.346 . S
C631 C632 1.396 . S
C631 C641 1.510 . S
C632 C628 1.401 . S
C632 C631 1.396 . S
C633 C628 1.499 . S
C633 H634 0.959 . S
C633 H635 0.960 . S
C633 H636 0.961 . S
H634 C633 0.959 . S
H635 C633 0.960 . S
H636 C633 0.961 . S
O637 Co612 1.967 . S
O637 C645 1.258 . S
O638 Co613 1.941 . S
O638 C645 1.266 . S
H639 C641 0.959 . S
H640 C641 0.961 . S
C641 C631 1.510 . S
C641 H639 0.959 . S
C641 H640 0.961 . S
C641 H642 0.960 . S
H642 C641 0.960 . S
H643 N623 0.862 . S
O644 Co612 1.920 . S
O644 C617 1.289 . S
C645 O637 1.258 . S
C645 O638 1.266 . S
Co646 O649 1.970 . S
Co646 N663 1.989 . S
Co646 O671 1.967 . S
Co646 O678 1.920 . S
Co647 O650 1.966 . S
Co647 N656 2.022 . S
Co647 N664 1.993 . S
Co647 O672 1.941 . S
C648 O649 1.258 . S
C648 O650 1.263 . S
O649 Co646 1.970 . S
O649 C648 1.258 . S
O650 Co647 1.966 . S
O650 C648 1.263 . S
C651 O652 1.235 . S
C651 O678 1.289 1_455 S
O652 C651 1.235 . S
C653 C655 1.400 . S
C653 N656 1.351 . S
C653 C658 1.501 . S
C654 C655 1.387 . S
C654 N657 1.341 . S
C655 C653 1.400 . S
C655 C654 1.387 . S
N656 Co647 2.022 . S
N656 C653 1.351 . S
N656 N657 1.365 . S
N657 C654 1.341 . S
N657 N656 1.365 . S
N657 H677 0.862 . S
C658 C653 1.501 . S
C658 H659 0.961 . S
C658 H660 0.961 . S
C658 H661 0.960 . S
H659 C658 0.961 . S
H660 C658 0.961 . S
H661 C658 0.960 . S
C662 N663 1.342 . S
C662 C666 1.401 . S
C662 C667 1.499 . S
N663 Co646 1.989 . S
N663 C662 1.342 . S
N663 N664 1.388 . S
N664 Co647 1.993 . S
N664 N663 1.388 . S
N664 C665 1.346 . S
C665 N664 1.346 . S
C665 C666 1.396 . S
C665 C675 1.510 . S
C666 C662 1.401 . S
C666 C665 1.396 . S
C667 C662 1.499 . S
C667 H668 0.959 . S
C667 H669 0.960 . S
C667 H670 0.961 . S
H668 C667 0.959 . S
H669 C667 0.960 . S
H670 C667 0.961 . S
O671 Co646 1.967 . S
O671 C679 1.258 . S
O672 Co647 1.941 . S
O672 C679 1.266 . S
H673 C675 0.959 . S
H674 C675 0.961 . S
C675 C665 1.510 . S
C675 H673 0.959 . S
C675 H674 0.961 . S
C675 H676 0.960 . S
H676 C675 0.960 . S
H677 N657 0.862 . S
O678 Co646 1.920 . S
O678 C651 1.289 1_655 S
C679 O671 1.258 . S
C679 O672 1.266 . S
Co680 O683 1.970 . S
Co680 N697 1.989 . S
Co680 O705 1.967 . S
Co680 O712 1.920 . S
Co681 O684 1.966 . S
Co681 N690 2.022 . S
Co681 N698 1.993 . S
Co681 O706 1.941 . S
C682 O683 1.258 . S
C682 O684 1.263 . S
O683 Co680 1.970 . S
O683 C682 1.258 . S
O684 Co681 1.966 . S
O684 C682 1.263 . S
C685 O686 1.235 . S
C685 O712 1.289 . S
O686 C685 1.235 . S
C687 C689 1.400 . S
C687 N690 1.351 . S
C687 C692 1.501 . S
C688 C689 1.387 . S
C688 N691 1.341 . S
C689 C687 1.400 . S
C689 C688 1.387 . S
N690 Co681 2.022 . S
N690 C687 1.351 . S
N690 N691 1.365 . S
N691 C688 1.341 . S
N691 N690 1.365 . S
N691 H711 0.862 . S
C692 C687 1.501 . S
C692 H693 0.961 . S
C692 H694 0.961 . S
C692 H695 0.960 . S
H693 C692 0.961 . S
H694 C692 0.961 . S
H695 C692 0.960 . S
C696 N697 1.342 . S
C696 C700 1.401 . S
C696 C701 1.499 . S
N697 Co680 1.989 . S
N697 C696 1.342 . S
N697 N698 1.388 . S
N698 Co681 1.993 . S
N698 N697 1.388 . S
N698 C699 1.346 . S
C699 N698 1.346 . S
C699 C700 1.396 . S
C699 C709 1.510 . S
C700 C696 1.401 . S
C700 C699 1.396 . S
C701 C696 1.499 . S
C701 H702 0.959 . S
C701 H703 0.960 . S
C701 H704 0.961 . S
H702 C701 0.959 . S
H703 C701 0.960 . S
H704 C701 0.961 . S
O705 Co680 1.967 . S
O705 C713 1.258 . S
O706 Co681 1.941 . S
O706 C713 1.266 . S
H707 C709 0.959 . S
H708 C709 0.961 . S
C709 C699 1.510 . S
C709 H707 0.959 . S
C709 H708 0.961 . S
C709 H710 0.960 . S
H710 C709 0.960 . S
H711 N691 0.862 . S
O712 Co680 1.920 . S
O712 C685 1.289 . S
C713 O705 1.258 . S
C713 O706 1.266 . S
Co714 O717 1.970 . S
Co714 N731 1.989 . S
Co714 O739 1.967 . S
Co714 O746 1.920 . S
Co715 O718 1.966 . S
Co715 N724 2.022 1_556 S
Co715 N732 1.993 . S
Co715 O740 1.941 . S
C716 O717 1.258 . S
C716 O718 1.263 . S
O717 Co714 1.970 . S
O717 C716 1.258 . S
O718 Co715 1.966 . S
O718 C716 1.263 . S
C719 O720 1.235 . S
C719 O746 1.289 1_455 S
O720 C719 1.235 . S
C721 C723 1.400 . S
C721 N724 1.351 . S
C721 C726 1.501 . S
C722 C723 1.387 . S
C722 N725 1.341 . S
C723 C721 1.400 . S
C723 C722 1.387 . S
N724 Co715 2.022 1_554 S
N724 C721 1.351 . S
N724 N725 1.365 . S
N725 C722 1.341 . S
N725 N724 1.365 . S
N725 H745 0.862 . S
C726 C721 1.501 . S
C726 H727 0.961 . S
C726 H728 0.961 . S
C726 H729 0.960 . S
H727 C726 0.961 . S
H728 C726 0.961 . S
H729 C726 0.960 . S
C730 N731 1.342 . S
C730 C734 1.401 . S
C730 C735 1.499 . S
N731 Co714 1.989 . S
N731 C730 1.342 . S
N731 N732 1.388 . S
N732 Co715 1.993 . S
N732 N731 1.388 . S
N732 C733 1.346 . S
C733 N732 1.346 . S
C733 C734 1.396 . S
C733 C743 1.510 1_556 S
C734 C730 1.401 . S
C734 C733 1.396 . S
C735 C730 1.499 . S
C735 H736 0.959 . S
C735 H737 0.960 . S
C735 H738 0.961 . S
H736 C735 0.959 . S
H737 C735 0.960 . S
H738 C735 0.961 . S
O739 Co714 1.967 . S
O739 C747 1.258 . S
O740 Co715 1.941 . S
O740 C747 1.266 . S
H741 C743 0.959 . S
H742 C743 0.961 . S
C743 C733 1.510 1_554 S
C743 H741 0.959 . S
C743 H742 0.961 . S
C743 H744 0.960 . S
H744 C743 0.960 . S
H745 N725 0.862 . S
O746 Co714 1.920 . S
O746 C719 1.289 1_655 S
C747 O739 1.258 . S
C747 O740 1.266 . S
Co748 O751 1.970 . S
Co748 N765 1.989 . S
Co748 O773 1.967 . S
Co748 O780 1.920 . S
Co749 O752 1.966 . S
Co749 N758 2.022 . S
Co749 N766 1.993 . S
Co749 O774 1.941 . S
C750 O751 1.258 . S
C750 O752 1.263 . S
O751 Co748 1.970 . S
O751 C750 1.258 . S
O752 Co749 1.966 . S
O752 C750 1.263 . S
C753 O754 1.235 . S
C753 O780 1.289 . S
O754 C753 1.235 . S
C755 C757 1.400 . S
C755 N758 1.351 . S
C755 C760 1.501 . S
C756 C757 1.387 . S
C756 N759 1.341 . S
C757 C755 1.400 . S
C757 C756 1.387 . S
N758 Co749 2.022 . S
N758 C755 1.351 . S
N758 N759 1.365 . S
N759 C756 1.341 . S
N759 N758 1.365 . S
N759 H779 0.862 . S
C760 C755 1.501 . S
C760 H761 0.961 . S
C760 H762 0.961 . S
C760 H763 0.960 . S
H761 C760 0.961 . S
H762 C760 0.961 . S
H763 C760 0.960 . S
C764 N765 1.342 . S
C764 C768 1.401 . S
C764 C769 1.499 . S
N765 Co748 1.989 . S
N765 C764 1.342 . S
N765 N766 1.388 . S
N766 Co749 1.993 . S
N766 N765 1.388 . S
N766 C767 1.346 . S
C767 N766 1.346 . S
C767 C768 1.396 . S
C767 C777 1.510 . S
C768 C764 1.401 . S
C768 C767 1.396 . S
C769 C764 1.499 . S
C769 H770 0.959 . S
C769 H771 0.960 . S
C769 H772 0.961 . S
H770 C769 0.959 . S
H771 C769 0.960 . S
H772 C769 0.961 . S
O773 Co748 1.967 . S
O773 C781 1.258 . S
O774 Co749 1.941 . S
O774 C781 1.266 . S
H775 C777 0.959 . S
H776 C777 0.961 . S
C777 C767 1.510 . S
C777 H775 0.959 . S
C777 H776 0.961 . S
C777 H778 0.960 . S
H778 C777 0.960 . S
H779 N759 0.862 . S
O780 Co748 1.920 . S
O780 C753 1.289 . S
C781 O773 1.258 . S
C781 O774 1.266 . S
Co782 O785 1.970 . S
Co782 N799 1.989 . S
Co782 O807 1.967 . S
Co782 O814 1.920 . S
Co783 O786 1.966 . S
Co783 N792 2.022 . S
Co783 N800 1.993 . S
Co783 O808 1.941 . S
C784 O785 1.258 . S
C784 O786 1.263 . S
O785 Co782 1.970 . S
O785 C784 1.258 . S
O786 Co783 1.966 . S
O786 C784 1.263 . S
C787 O788 1.235 . S
C787 O814 1.289 . S
O788 C787 1.235 . S
C789 C791 1.400 . S
C789 N792 1.351 . S
C789 C794 1.501 . S
C790 C791 1.387 . S
C790 N793 1.341 . S
C791 C789 1.400 . S
C791 C790 1.387 . S
N792 Co783 2.022 . S
N792 C789 1.351 . S
N792 N793 1.365 . S
N793 C790 1.341 . S
N793 N792 1.365 . S
N793 H813 0.862 . S
C794 C789 1.501 . S
C794 H795 0.961 . S
C794 H796 0.961 . S
C794 H797 0.960 . S
H795 C794 0.961 . S
H796 C794 0.961 . S
H797 C794 0.960 . S
C798 N799 1.342 . S
C798 C802 1.401 . S
C798 C803 1.499 . S
N799 Co782 1.989 . S
N799 C798 1.342 . S
N799 N800 1.388 . S
N800 Co783 1.993 . S
N800 N799 1.388 . S
N800 C801 1.346 . S
C801 N800 1.346 . S
C801 C802 1.396 . S
C801 C811 1.510 . S
C802 C798 1.401 . S
C802 C801 1.396 . S
C803 C798 1.499 . S
C803 H804 0.959 . S
C803 H805 0.960 . S
C803 H806 0.961 . S
H804 C803 0.959 . S
H805 C803 0.960 . S
H806 C803 0.961 . S
O807 Co782 1.967 . S
O807 C815 1.258 . S
O808 Co783 1.941 . S
O808 C815 1.266 . S
H809 C811 0.959 . S
H810 C811 0.961 . S
C811 C801 1.510 . S
C811 H809 0.959 . S
C811 H810 0.961 . S
C811 H812 0.960 . S
H812 C811 0.960 . S
H813 N793 0.862 . S
O814 Co782 1.920 . S
O814 C787 1.289 . S
C815 O807 1.258 . S
C815 O808 1.266 . S
Co816 O819 1.970 . S
Co816 N833 1.989 . S
Co816 O841 1.967 . S
Co816 O848 1.920 . S
Co817 O820 1.966 . S
Co817 N826 2.022 . S
Co817 N834 1.993 . S
Co817 O842 1.941 . S
C818 O819 1.258 . S
C818 O820 1.263 . S
O819 Co816 1.970 . S
O819 C818 1.258 . S
O820 Co817 1.966 . S
O820 C818 1.263 . S
C821 O822 1.235 . S
C821 O848 1.289 . S
O822 C821 1.235 . S
C823 C825 1.400 . S
C823 N826 1.351 . S
C823 C828 1.501 . S
C824 C825 1.387 . S
C824 N827 1.341 . S
C825 C823 1.400 . S
C825 C824 1.387 . S
N826 Co817 2.022 . S
N826 C823 1.351 . S
N826 N827 1.365 . S
N827 C824 1.341 . S
N827 N826 1.365 . S
N827 H847 0.862 . S
C828 C823 1.501 . S
C828 H829 0.961 . S
C828 H830 0.961 . S
C828 H831 0.960 . S
H829 C828 0.961 . S
H830 C828 0.961 . S
H831 C828 0.960 . S
C832 N833 1.342 . S
C832 C836 1.401 . S
C832 C837 1.499 . S
N833 Co816 1.989 . S
N833 C832 1.342 . S
N833 N834 1.388 . S
N834 Co817 1.993 . S
N834 N833 1.388 . S
N834 C835 1.346 . S
C835 N834 1.346 . S
C835 C836 1.396 . S
C835 C845 1.510 . S
C836 C832 1.401 . S
C836 C835 1.396 . S
C837 C832 1.499 . S
C837 H838 0.959 . S
C837 H839 0.960 . S
C837 H840 0.961 . S
H838 C837 0.959 . S
H839 C837 0.960 . S
H840 C837 0.961 . S
O841 Co816 1.967 . S
O841 C849 1.258 . S
O842 Co817 1.941 . S
O842 C849 1.266 . S
H843 C845 0.959 . S
H844 C845 0.961 . S
C845 C835 1.510 . S
C845 H843 0.959 . S
C845 H844 0.961 . S
C845 H846 0.960 . S
H846 C845 0.960 . S
H847 N827 0.862 . S
O848 Co816 1.920 . S
O848 C821 1.289 . S
C849 O841 1.258 . S
C849 O842 1.266 . S
Co850 O853 1.970 . S
Co850 N867 1.989 . S
Co850 O875 1.967 . S
Co850 O882 1.920 . S
Co851 O854 1.966 . S
Co851 N860 2.022 1_556 S
Co851 N868 1.993 . S
Co851 O876 1.941 . S
C852 O853 1.258 . S
C852 O854 1.263 . S
O853 Co850 1.970 . S
O853 C852 1.258 . S
O854 Co851 1.966 . S
O854 C852 1.263 . S
C855 O856 1.235 . S
C855 O882 1.289 . S
O856 C855 1.235 . S
C857 C859 1.400 . S
C857 N860 1.351 . S
C857 C862 1.501 . S
C858 C859 1.387 . S
C858 N861 1.341 . S
C859 C857 1.400 . S
C859 C858 1.387 . S
N860 Co851 2.022 1_554 S
N860 C857 1.351 . S
N860 N861 1.365 . S
N861 C858 1.341 . S
N861 N860 1.365 . S
N861 H881 0.862 . S
C862 C857 1.501 . S
C862 H863 0.961 . S
C862 H864 0.961 . S
C862 H865 0.960 . S
H863 C862 0.961 . S
H864 C862 0.961 . S
H865 C862 0.960 . S
C866 N867 1.342 . S
C866 C870 1.401 . S
C866 C871 1.499 . S
N867 Co850 1.989 . S
N867 C866 1.342 . S
N867 N868 1.388 . S
N868 Co851 1.993 . S
N868 N867 1.388 . S
N868 C869 1.346 . S
C869 N868 1.346 . S
C869 C870 1.396 . S
C869 C879 1.510 1_556 S
C870 C866 1.401 . S
C870 C869 1.396 . S
C871 C866 1.499 . S
C871 H872 0.959 . S
C871 H873 0.960 . S
C871 H874 0.961 . S
H872 C871 0.959 . S
H873 C871 0.960 . S
H874 C871 0.961 . S
O875 Co850 1.967 . S
O875 C883 1.258 . S
O876 Co851 1.941 . S
O876 C883 1.266 . S
H877 C879 0.959 . S
H878 C879 0.961 . S
C879 C869 1.510 1_554 S
C879 H877 0.959 . S
C879 H878 0.961 . S
C879 H880 0.960 . S
H880 C879 0.960 . S
H881 N861 0.862 . S
O882 Co850 1.920 . S
O882 C855 1.289 . S
C883 O875 1.258 . S
C883 O876 1.266 . S
Co884 O887 1.970 . S
Co884 N901 1.989 . S
Co884 O909 1.967 . S
Co884 O916 1.920 . S
Co885 O888 1.966 . S
Co885 N894 2.022 . S
Co885 N902 1.993 . S
Co885 O910 1.941 . S
C886 O887 1.258 . S
C886 O888 1.263 . S
O887 Co884 1.970 . S
O887 C886 1.258 . S
O888 Co885 1.966 . S
O888 C886 1.263 . S
C889 O890 1.235 . S
C889 O916 1.289 . S
O890 C889 1.235 . S
C891 C893 1.400 . S
C891 N894 1.351 . S
C891 C896 1.501 . S
C892 C893 1.387 . S
C892 N895 1.341 . S
C893 C891 1.400 . S
C893 C892 1.387 . S
N894 Co885 2.022 . S
N894 C891 1.351 . S
N894 N895 1.365 . S
N895 C892 1.341 . S
N895 N894 1.365 . S
N895 H915 0.862 . S
C896 C891 1.501 . S
C896 H897 0.961 . S
C896 H898 0.961 . S
C896 H899 0.960 . S
H897 C896 0.961 . S
H898 C896 0.961 . S
H899 C896 0.960 . S
C900 N901 1.342 . S
C900 C904 1.401 . S
C900 C905 1.499 . S
N901 Co884 1.989 . S
N901 C900 1.342 . S
N901 N902 1.388 . S
N902 Co885 1.993 . S
N902 N901 1.388 . S
N902 C903 1.346 . S
C903 N902 1.346 . S
C903 C904 1.396 . S
C903 C913 1.510 . S
C904 C900 1.401 . S
C904 C903 1.396 . S
C905 C900 1.499 . S
C905 H906 0.959 . S
C905 H907 0.960 . S
C905 H908 0.961 . S
H906 C905 0.959 . S
H907 C905 0.960 . S
H908 C905 0.961 . S
O909 Co884 1.967 . S
O909 C917 1.258 . S
O910 Co885 1.941 . S
O910 C917 1.266 . S
H911 C913 0.959 . S
H912 C913 0.961 . S
C913 C903 1.510 . S
C913 H911 0.959 . S
C913 H912 0.961 . S
C913 H914 0.960 . S
H914 C913 0.960 . S
H915 N895 0.862 . S
O916 Co884 1.920 . S
O916 C889 1.289 . S
C917 O909 1.258 . S
C917 O910 1.266 . S
Co918 O921 1.970 . S
Co918 N935 1.989 . S
Co918 O943 1.967 . S
Co918 O950 1.920 . S
Co919 O922 1.966 . S
Co919 N928 2.022 . S
Co919 N936 1.993 . S
Co919 O944 1.941 . S
C920 O921 1.258 . S
C920 O922 1.263 . S
O921 Co918 1.970 . S
O921 C920 1.258 . S
O922 Co919 1.966 . S
O922 C920 1.263 . S
C923 O924 1.235 . S
C923 O950 1.289 1_655 S
O924 C923 1.235 . S
C925 C927 1.400 . S
C925 N928 1.351 . S
C925 C930 1.501 . S
C926 C927 1.387 . S
C926 N929 1.341 . S
C927 C925 1.400 . S
C927 C926 1.387 . S
N928 Co919 2.022 . S
N928 C925 1.351 . S
N928 N929 1.365 . S
N929 C926 1.341 . S
N929 N928 1.365 . S
N929 H949 0.862 . S
C930 C925 1.501 . S
C930 H931 0.961 . S
C930 H932 0.961 . S
C930 H933 0.960 . S
H931 C930 0.961 . S
H932 C930 0.961 . S
H933 C930 0.960 . S
C934 N935 1.342 . S
C934 C938 1.401 . S
C934 C939 1.499 . S
N935 Co918 1.989 . S
N935 C934 1.342 . S
N935 N936 1.388 . S
N936 Co919 1.993 . S
N936 N935 1.388 . S
N936 C937 1.346 . S
C937 N936 1.346 . S
C937 C938 1.396 . S
C937 C947 1.510 . S
C938 C934 1.401 . S
C938 C937 1.396 . S
C939 C934 1.499 . S
C939 H940 0.959 . S
C939 H941 0.960 . S
C939 H942 0.961 . S
H940 C939 0.959 . S
H941 C939 0.960 . S
H942 C939 0.961 . S
O943 Co918 1.967 . S
O943 C951 1.258 . S
O944 Co919 1.941 . S
O944 C951 1.266 . S
H945 C947 0.959 . S
H946 C947 0.961 . S
C947 C937 1.510 . S
C947 H945 0.959 . S
C947 H946 0.961 . S
C947 H948 0.960 . S
H948 C947 0.960 . S
H949 N929 0.862 . S
O950 Co918 1.920 . S
O950 C923 1.289 1_455 S
C951 O943 1.258 . S
C951 O944 1.266 . S
Co952 O955 1.970 . S
Co952 N969 1.989 . S
Co952 O977 1.967 . S
Co952 O984 1.920 . S
Co953 O956 1.966 . S
Co953 N962 2.022 . S
Co953 N970 1.993 . S
Co953 O978 1.941 . S
C954 O955 1.258 . S
C954 O956 1.263 . S
O955 Co952 1.970 . S
O955 C954 1.258 . S
O956 Co953 1.966 . S
O956 C954 1.263 . S
C957 O958 1.235 . S
C957 O984 1.289 . S
O958 C957 1.235 . S
C959 C961 1.400 . S
C959 N962 1.351 . S
C959 C964 1.501 . S
C960 C961 1.387 . S
C960 N963 1.341 . S
C961 C959 1.400 . S
C961 C960 1.387 . S
N962 Co953 2.022 . S
N962 C959 1.351 . S
N962 N963 1.365 . S
N963 C960 1.341 . S
N963 N962 1.365 . S
N963 H983 0.862 . S
C964 C959 1.501 . S
C964 H965 0.961 . S
C964 H966 0.961 . S
C964 H967 0.960 . S
H965 C964 0.961 . S
H966 C964 0.961 . S
H967 C964 0.960 . S
C968 N969 1.342 . S
C968 C972 1.401 . S
C968 C973 1.499 . S
N969 Co952 1.989 . S
N969 C968 1.342 . S
N969 N970 1.388 . S
N970 Co953 1.993 . S
N970 N969 1.388 . S
N970 C971 1.346 . S
C971 N970 1.346 . S
C971 C972 1.396 . S
C971 C981 1.510 . S
C972 C968 1.401 . S
C972 C971 1.396 . S
C973 C968 1.499 . S
C973 H974 0.959 . S
C973 H975 0.960 . S
C973 H976 0.961 . S
H974 C973 0.959 . S
H975 C973 0.960 . S
H976 C973 0.961 . S
O977 Co952 1.967 . S
O977 C985 1.258 . S
O978 Co953 1.941 . S
O978 C985 1.266 . S
H979 C981 0.959 . S
H980 C981 0.961 . S
C981 C971 1.510 . S
C981 H979 0.959 . S
C981 H980 0.961 . S
C981 H982 0.960 . S
H982 C981 0.960 . S
H983 N963 0.862 . S
O984 Co952 1.920 . S
O984 C957 1.289 . S
C985 O977 1.258 . S
C985 O978 1.266 . S
Co986 O989 1.970 . S
Co986 N1003 1.989 . S
Co986 O1011 1.967 . S
Co986 O1018 1.920 . S
Co987 O990 1.966 . S
Co987 N996 2.022 1_554 S
Co987 N1004 1.993 . S
Co987 O1012 1.941 . S
C988 O989 1.258 . S
C988 O990 1.263 . S
O989 Co986 1.970 . S
O989 C988 1.258 . S
O990 Co987 1.966 . S
O990 C988 1.263 . S
C991 O992 1.235 . S
C991 O1018 1.289 1_655 S
O992 C991 1.235 . S
C993 C995 1.400 . S
C993 N996 1.351 . S
C993 C998 1.501 . S
C994 C995 1.387 . S
C994 N997 1.341 . S
C995 C993 1.400 . S
C995 C994 1.387 . S
N996 Co987 2.022 1_556 S
N996 C993 1.351 . S
N996 N997 1.365 . S
N997 C994 1.341 . S
N997 N996 1.365 . S
N997 H1017 0.862 . S
C998 C993 1.501 . S
C998 H999 0.961 . S
C998 H1000 0.961 . S
C998 H1001 0.960 . S
H999 C998 0.961 . S
H1000 C998 0.961 . S
H1001 C998 0.960 . S
C1002 N1003 1.342 . S
C1002 C1006 1.401 . S
C1002 C1007 1.499 . S
N1003 Co986 1.989 . S
N1003 C1002 1.342 . S
N1003 N1004 1.388 . S
N1004 Co987 1.993 . S
N1004 N1003 1.388 . S
N1004 C1005 1.346 . S
C1005 N1004 1.346 . S
C1005 C1006 1.396 . S
C1005 C1015 1.510 1_554 S
C1006 C1002 1.401 . S
C1006 C1005 1.396 . S
C1007 C1002 1.499 . S
C1007 H1008 0.959 . S
C1007 H1009 0.960 . S
C1007 H1010 0.961 . S
H1008 C1007 0.959 . S
H1009 C1007 0.960 . S
H1010 C1007 0.961 . S
O1011 Co986 1.967 . S
O1011 C1019 1.258 . S
O1012 Co987 1.941 . S
O1012 C1019 1.266 . S
H1013 C1015 0.959 . S
H1014 C1015 0.961 . S
C1015 C1005 1.510 1_556 S
C1015 H1013 0.959 . S
C1015 H1014 0.961 . S
C1015 H1016 0.960 . S
H1016 C1015 0.960 . S
H1017 N997 0.862 . S
O1018 Co986 1.920 . S
O1018 C991 1.289 1_455 S
C1019 O1011 1.258 . S
C1019 O1012 1.266 . S
Co1020 O1023 1.970 . S
Co1020 N1037 1.989 . S
Co1020 O1045 1.967 . S
Co1020 O1052 1.920 . S
Co1021 O1024 1.966 . S
Co1021 N1030 2.022 . S
Co1021 N1038 1.993 . S
Co1021 O1046 1.941 . S
C1022 O1023 1.258 . S
C1022 O1024 1.263 . S
O1023 Co1020 1.970 . S
O1023 C1022 1.258 . S
O1024 Co1021 1.966 . S
O1024 C1022 1.263 . S
C1025 O1026 1.235 . S
C1025 O1052 1.289 . S
O1026 C1025 1.235 . S
C1027 C1029 1.400 . S
C1027 N1030 1.351 . S
C1027 C1032 1.501 . S
C1028 C1029 1.387 . S
C1028 N1031 1.341 . S
C1029 C1027 1.400 . S
C1029 C1028 1.387 . S
N1030 Co1021 2.022 . S
N1030 C1027 1.351 . S
N1030 N1031 1.365 . S
N1031 C1028 1.341 . S
N1031 N1030 1.365 . S
N1031 H1051 0.862 . S
C1032 C1027 1.501 . S
C1032 H1033 0.961 . S
C1032 H1034 0.961 . S
C1032 H1035 0.960 . S
H1033 C1032 0.961 . S
H1034 C1032 0.961 . S
H1035 C1032 0.960 . S
C1036 N1037 1.342 . S
C1036 C1040 1.401 . S
C1036 C1041 1.499 . S
N1037 Co1020 1.989 . S
N1037 C1036 1.342 . S
N1037 N1038 1.388 . S
N1038 Co1021 1.993 . S
N1038 N1037 1.388 . S
N1038 C1039 1.346 . S
C1039 N1038 1.346 . S
C1039 C1040 1.396 . S
C1039 C1049 1.510 . S
C1040 C1036 1.401 . S
C1040 C1039 1.396 . S
C1041 C1036 1.499 . S
C1041 H1042 0.959 . S
C1041 H1043 0.960 . S
C1041 H1044 0.961 . S
H1042 C1041 0.959 . S
H1043 C1041 0.960 . S
H1044 C1041 0.961 . S
O1045 Co1020 1.967 . S
O1045 C1053 1.258 . S
O1046 Co1021 1.941 . S
O1046 C1053 1.266 . S
H1047 C1049 0.959 . S
H1048 C1049 0.961 . S
C1049 C1039 1.510 . S
C1049 H1047 0.959 . S
C1049 H1048 0.961 . S
C1049 H1050 0.960 . S
H1050 C1049 0.960 . S
H1051 N1031 0.862 . S
O1052 Co1020 1.920 . S
O1052 C1025 1.289 . S
C1053 O1045 1.258 . S
C1053 O1046 1.266 . S
Co1054 O1057 1.970 . S
Co1054 N1071 1.989 . S
Co1054 O1079 1.967 . S
Co1054 O1086 1.920 . S
Co1055 O1058 1.966 . S
Co1055 N1064 2.022 . S
Co1055 N1072 1.993 . S
Co1055 O1080 1.941 . S
C1056 O1057 1.258 . S
C1056 O1058 1.263 . S
O1057 Co1054 1.970 . S
O1057 C1056 1.258 . S
O1058 Co1055 1.966 . S
O1058 C1056 1.263 . S
C1059 O1060 1.235 . S
C1059 O1086 1.289 . S
O1060 C1059 1.235 . S
C1061 C1063 1.400 . S
C1061 N1064 1.351 . S
C1061 C1066 1.501 . S
C1062 C1063 1.387 . S
C1062 N1065 1.341 . S
C1063 C1061 1.400 . S
C1063 C1062 1.387 . S
N1064 Co1055 2.022 . S
N1064 C1061 1.351 . S
N1064 N1065 1.365 . S
N1065 C1062 1.341 . S
N1065 N1064 1.365 . S
N1065 H1085 0.862 . S
C1066 C1061 1.501 . S
C1066 H1067 0.961 . S
C1066 H1068 0.961 . S
C1066 H1069 0.960 . S
H1067 C1066 0.961 . S
H1068 C1066 0.961 . S
H1069 C1066 0.960 . S
C1070 N1071 1.342 . S
C1070 C1074 1.401 . S
C1070 C1075 1.499 . S
N1071 Co1054 1.989 . S
N1071 C1070 1.342 . S
N1071 N1072 1.388 . S
N1072 Co1055 1.993 . S
N1072 N1071 1.388 . S
N1072 C1073 1.346 . S
C1073 N1072 1.346 . S
C1073 C1074 1.396 . S
C1073 C1083 1.510 . S
C1074 C1070 1.401 . S
C1074 C1073 1.396 . S
C1075 C1070 1.499 . S
C1075 H1076 0.959 . S
C1075 H1077 0.960 . S
C1075 H1078 0.961 . S
H1076 C1075 0.959 . S
H1077 C1075 0.960 . S
H1078 C1075 0.961 . S
O1079 Co1054 1.967 . S
O1079 C1087 1.258 . S
O1080 Co1055 1.941 . S
O1080 C1087 1.266 . S
H1081 C1083 0.959 . S
H1082 C1083 0.961 . S
C1083 C1073 1.510 . S
C1083 H1081 0.959 . S
C1083 H1082 0.961 . S
C1083 H1084 0.960 . S
H1084 C1083 0.960 . S
H1085 N1065 0.862 . S
O1086 Co1054 1.920 . S
O1086 C1059 1.289 . S
C1087 O1079 1.258 . S
C1087 O1080 1.266 . S
H1088 C1094 0.930 . S
H1089 C1098 0.930 . S
H1090 C1103 0.929 . S
H1091 C1101 0.929 . S
H1092 C1096 0.929 . S
H1093 C1102 0.929 . S
C1094 H1088 0.930 . S
C1094 C1095 1.367 . S
C1094 C1102 1.378 . S
C1095 C1094 1.367 . S
C1095 C1103 1.433 . S
C1096 H1092 0.929 . S
C1096 C1098 1.378 . S
C1096 C1100 1.350 . S
C1097 C1100 1.463 . S
C1097 C1102 1.350 . S
C1097 N1105 1.427 . S
C1098 H1089 0.930 . S
C1098 C1096 1.378 . S
C1098 C1099 1.367 . S
C1099 C1098 1.367 . S
C1099 C1101 1.433 . S
C1100 C1096 1.350 . S
C1100 C1097 1.463 . S
C1100 N1104 1.427 . S
C1101 H1091 0.929 . S
C1101 C1099 1.433 . S
C1101 N1104 1.384 . S
C1102 H1093 0.929 . S
C1102 C1094 1.378 . S
C1102 C1097 1.350 . S
C1103 H1090 0.929 . S
C1103 C1095 1.433 . S
C1103 N1105 1.384 . S
N1104 C1100 1.427 . S
N1104 C1101 1.384 . S
N1105 C1097 1.427 . S
N1105 C1103 1.384 . S
H1106 C1112 0.930 . S
H1107 C1116 0.930 . S
H1108 C1121 0.929 . S
H1109 C1119 0.929 . S
H1110 C1114 0.929 . S
H1111 C1120 0.929 . S
C1112 H1106 0.930 . S
C1112 C1113 1.367 . S
C1112 C1120 1.378 . S
C1113 C1112 1.367 . S
C1113 C1121 1.433 . S
C1114 H1110 0.929 . S
C1114 C1116 1.378 . S
C1114 C1118 1.350 . S
C1115 C1118 1.463 . S
C1115 C1120 1.350 . S
C1115 N1123 1.427 . S
C1116 H1107 0.930 . S
C1116 C1114 1.378 . S
C1116 C1117 1.367 . S
C1117 C1116 1.367 . S
C1117 C1119 1.433 . S
C1118 C1114 1.350 . S
C1118 C1115 1.463 . S
C1118 N1122 1.427 . S
C1119 H1109 0.929 . S
C1119 C1117 1.433 . S
C1119 N1122 1.384 . S
C1120 H1111 0.929 . S
C1120 C1112 1.378 . S
C1120 C1115 1.350 . S
C1121 H1108 0.929 . S
C1121 C1113 1.433 . S
C1121 N1123 1.384 . S
N1122 C1118 1.427 . S
N1122 C1119 1.384 . S
N1123 C1115 1.427 . S
N1123 C1121 1.384 . S
H1124 C1130 0.930 . S
H1125 C1134 0.930 . S
H1126 C1139 0.929 . S
H1127 C1137 0.929 . S
H1128 C1132 0.929 . S
H1129 C1138 0.929 . S
C1130 H1124 0.930 . S
C1130 C1131 1.367 . S
C1130 C1138 1.378 . S
C1131 C1130 1.367 . S
C1131 C1139 1.433 . S
C1132 H1128 0.929 . S
C1132 C1134 1.378 . S
C1132 C1136 1.350 . S
C1133 C1136 1.463 . S
C1133 C1138 1.350 . S
C1133 N1141 1.427 . S
C1134 H1125 0.930 . S
C1134 C1132 1.378 . S
C1134 C1135 1.367 . S
C1135 C1134 1.367 . S
C1135 C1137 1.433 . S
C1136 C1132 1.350 . S
C1136 C1133 1.463 . S
C1136 N1140 1.427 . S
C1137 H1127 0.929 . S
C1137 C1135 1.433 . S
C1137 N1140 1.384 . S
C1138 H1129 0.929 . S
C1138 C1130 1.378 . S
C1138 C1133 1.350 . S
C1139 H1126 0.929 . S
C1139 C1131 1.433 . S
C1139 N1141 1.384 . S
N1140 C1136 1.427 . S
N1140 C1137 1.384 . S
N1141 C1133 1.427 . S
N1141 C1139 1.384 . S
H1142 C1148 0.930 . S
H1143 C1152 0.930 . S
H1144 C1157 0.929 . S
H1145 C1155 0.929 . S
H1146 C1150 0.929 . S
H1147 C1156 0.929 . S
C1148 H1142 0.930 . S
C1148 C1149 1.367 . S
C1148 C1156 1.378 . S
C1149 C1148 1.367 . S
C1149 C1157 1.433 . S
C1150 H1146 0.929 . S
C1150 C1152 1.378 . S
C1150 C1154 1.350 . S
C1151 C1154 1.463 . S
C1151 C1156 1.350 . S
C1151 N1159 1.427 . S
C1152 H1143 0.930 . S
C1152 C1150 1.378 . S
C1152 C1153 1.367 . S
C1153 C1152 1.367 . S
C1153 C1155 1.433 . S
C1154 C1150 1.350 . S
C1154 C1151 1.463 . S
C1154 N1158 1.427 . S
C1155 H1145 0.929 . S
C1155 C1153 1.433 . S
C1155 N1158 1.384 . S
C1156 H1147 0.929 . S
C1156 C1148 1.378 . S
C1156 C1151 1.350 . S
C1157 H1144 0.929 . S
C1157 C1149 1.433 . S
C1157 N1159 1.384 . S
N1158 C1154 1.427 . S
N1158 C1155 1.384 . S
N1159 C1151 1.427 . S
N1159 C1157 1.384 . S
H1160 C1166 0.930 . S
H1161 C1170 0.930 . S
H1162 C1175 0.929 . S
H1163 C1173 0.929 . S
H1164 C1168 0.929 . S
H1165 C1174 0.929 . S
C1166 H1160 0.930 . S
C1166 C1167 1.367 . S
C1166 C1174 1.378 . S
C1167 C1166 1.367 . S
C1167 C1175 1.433 . S
C1168 H1164 0.929 . S
C1168 C1170 1.378 . S
C1168 C1172 1.350 . S
C1169 C1172 1.463 . S
C1169 C1174 1.350 . S
C1169 N1177 1.427 . S
C1170 H1161 0.930 . S
C1170 C1168 1.378 . S
C1170 C1171 1.367 . S
C1171 C1170 1.367 . S
C1171 C1173 1.433 . S
C1172 C1168 1.350 . S
C1172 C1169 1.463 . S
C1172 N1176 1.427 . S
C1173 H1163 0.929 . S
C1173 C1171 1.433 . S
C1173 N1176 1.384 . S
C1174 H1165 0.929 . S
C1174 C1166 1.378 . S
C1174 C1169 1.350 . S
C1175 H1162 0.929 . S
C1175 C1167 1.433 . S
C1175 N1177 1.384 . S
N1176 C1172 1.427 . S
N1176 C1173 1.384 . S
N1177 C1169 1.427 . S
N1177 C1175 1.384 . S
H1178 C1184 0.930 . S
H1179 C1188 0.930 . S
H1180 C1193 0.929 . S
H1181 C1191 0.929 . S
H1182 C1186 0.929 . S
H1183 C1192 0.929 . S
C1184 H1178 0.930 . S
C1184 C1185 1.367 . S
C1184 C1192 1.378 . S
C1185 C1184 1.367 . S
C1185 C1193 1.433 . S
C1186 H1182 0.929 . S
C1186 C1188 1.378 . S
C1186 C1190 1.350 . S
C1187 C1190 1.463 . S
C1187 C1192 1.350 . S
C1187 N1195 1.427 . S
C1188 H1179 0.930 . S
C1188 C1186 1.378 . S
C1188 C1189 1.367 . S
C1189 C1188 1.367 . S
C1189 C1191 1.433 . S
C1190 C1186 1.350 . S
C1190 C1187 1.463 . S
C1190 N1194 1.427 . S
C1191 H1181 0.929 . S
C1191 C1189 1.433 . S
C1191 N1194 1.384 . S
C1192 H1183 0.929 . S
C1192 C1184 1.378 . S
C1192 C1187 1.350 . S
C1193 H1180 0.929 . S
C1193 C1185 1.433 . S
C1193 N1195 1.384 . S
N1194 C1190 1.427 . S
N1194 C1191 1.384 . S
N1195 C1187 1.427 . S
N1195 C1193 1.384 . S
H1196 C1202 0.930 . S
H1197 C1206 0.930 . S
H1198 C1211 0.929 . S
H1199 C1209 0.929 . S
H1200 C1204 0.929 . S
H1201 C1210 0.929 . S
C1202 H1196 0.930 . S
C1202 C1203 1.367 . S
C1202 C1210 1.378 . S
C1203 C1202 1.367 . S
C1203 C1211 1.433 . S
C1204 H1200 0.929 . S
C1204 C1206 1.378 . S
C1204 C1208 1.350 . S
C1205 C1208 1.463 . S
C1205 C1210 1.350 . S
C1205 N1213 1.427 . S
C1206 H1197 0.930 . S
C1206 C1204 1.378 . S
C1206 C1207 1.367 . S
C1207 C1206 1.367 . S
C1207 C1209 1.433 . S
C1208 C1204 1.350 . S
C1208 C1205 1.463 . S
C1208 N1212 1.427 . S
C1209 H1199 0.929 . S
C1209 C1207 1.433 . S
C1209 N1212 1.384 . S
C1210 H1201 0.929 . S
C1210 C1202 1.378 . S
C1210 C1205 1.350 . S
C1211 H1198 0.929 . S
C1211 C1203 1.433 . S
C1211 N1213 1.384 . S
N1212 C1208 1.427 . S
N1212 C1209 1.384 . S
N1213 C1205 1.427 . S
N1213 C1211 1.384 . S
H1214 C1220 0.930 . S
H1215 C1224 0.930 . S
H1216 C1229 0.929 . S
H1217 C1227 0.929 . S
H1218 C1222 0.929 . S
H1219 C1228 0.929 . S
C1220 H1214 0.930 . S
C1220 C1221 1.367 . S
C1220 C1228 1.378 . S
C1221 C1220 1.367 . S
C1221 C1229 1.433 . S
C1222 H1218 0.929 . S
C1222 C1224 1.378 . S
C1222 C1226 1.350 . S
C1223 C1226 1.463 . S
C1223 C1228 1.350 . S
C1223 N1231 1.427 . S
C1224 H1215 0.930 . S
C1224 C1222 1.378 . S
C1224 C1225 1.367 . S
C1225 C1224 1.367 . S
C1225 C1227 1.433 . S
C1226 C1222 1.350 . S
C1226 C1223 1.463 . S
C1226 N1230 1.427 . S
C1227 H1217 0.929 . S
C1227 C1225 1.433 . S
C1227 N1230 1.384 . S
C1228 H1219 0.929 . S
C1228 C1220 1.378 . S
C1228 C1223 1.350 . S
C1229 H1216 0.929 . S
C1229 C1221 1.433 . S
C1229 N1231 1.384 . S
N1230 C1226 1.427 . S
N1230 C1227 1.384 . S
N1231 C1223 1.427 . S
N1231 C1229 1.384 . S
H1232 C1238 0.930 . S
H1233 C1242 0.930 . S
H1234 C1247 0.929 . S
H1235 C1245 0.929 . S
H1236 C1240 0.929 . S
H1237 C1246 0.929 . S
C1238 H1232 0.930 . S
C1238 C1239 1.367 . S
C1238 C1246 1.378 . S
C1239 C1238 1.367 . S
C1239 C1247 1.433 . S
C1240 H1236 0.929 . S
C1240 C1242 1.378 . S
C1240 C1244 1.350 . S
C1241 C1244 1.463 . S
C1241 C1246 1.350 . S
C1241 N1249 1.427 . S
C1242 H1233 0.930 . S
C1242 C1240 1.378 . S
C1242 C1243 1.367 . S
C1243 C1242 1.367 . S
C1243 C1245 1.433 . S
C1244 C1240 1.350 . S
C1244 C1241 1.463 . S
C1244 N1248 1.427 . S
C1245 H1235 0.929 . S
C1245 C1243 1.433 . S
C1245 N1248 1.384 . S
C1246 H1237 0.929 . S
C1246 C1238 1.378 . S
C1246 C1241 1.350 . S
C1247 H1234 0.929 . S
C1247 C1239 1.433 . S
C1247 N1249 1.384 . S
N1248 C1244 1.427 . S
N1248 C1245 1.384 . S
N1249 C1241 1.427 . S
N1249 C1247 1.384 . S
H1250 C1256 0.930 . S
H1251 C1260 0.930 . S
H1252 C1265 0.929 . S
H1253 C1263 0.929 . S
H1254 C1258 0.929 . S
H1255 C1264 0.929 . S
C1256 H1250 0.930 . S
C1256 C1257 1.367 . S
C1256 C1264 1.378 . S
C1257 C1256 1.367 . S
C1257 C1265 1.433 . S
C1258 H1254 0.929 . S
C1258 C1260 1.378 . S
C1258 C1262 1.350 . S
C1259 C1262 1.463 . S
C1259 C1264 1.350 . S
C1259 N1267 1.427 . S
C1260 H1251 0.930 . S
C1260 C1258 1.378 . S
C1260 C1261 1.367 . S
C1261 C1260 1.367 . S
C1261 C1263 1.433 . S
C1262 C1258 1.350 . S
C1262 C1259 1.463 . S
C1262 N1266 1.427 . S
C1263 H1253 0.929 . S
C1263 C1261 1.433 . S
C1263 N1266 1.384 . S
C1264 H1255 0.929 . S
C1264 C1256 1.378 . S
C1264 C1259 1.350 . S
C1265 H1252 0.929 . S
C1265 C1257 1.433 . S
C1265 N1267 1.384 . S
N1266 C1262 1.427 . S
N1266 C1263 1.384 . S
N1267 C1259 1.427 . S
N1267 C1265 1.384 . S
H1268 C1274 0.930 . S
H1269 C1278 0.930 . S
H1270 C1283 0.929 . S
H1271 C1281 0.929 . S
H1272 C1276 0.929 . S
H1273 C1282 0.929 . S
C1274 H1268 0.930 . S
C1274 C1275 1.367 . S
C1274 C1282 1.378 . S
C1275 C1274 1.367 . S
C1275 C1283 1.433 . S
C1276 H1272 0.929 . S
C1276 C1278 1.378 . S
C1276 C1280 1.350 . S
C1277 C1280 1.463 . S
C1277 C1282 1.350 . S
C1277 N1285 1.427 . S
C1278 H1269 0.930 . S
C1278 C1276 1.378 . S
C1278 C1279 1.367 . S
C1279 C1278 1.367 . S
C1279 C1281 1.433 . S
C1280 C1276 1.350 . S
C1280 C1277 1.463 . S
C1280 N1284 1.427 . S
C1281 H1271 0.929 . S
C1281 C1279 1.433 . S
C1281 N1284 1.384 . S
C1282 H1273 0.929 . S
C1282 C1274 1.378 . S
C1282 C1277 1.350 . S
C1283 H1270 0.929 . S
C1283 C1275 1.433 . S
C1283 N1285 1.384 . S
N1284 C1280 1.427 . S
N1284 C1281 1.384 . S
N1285 C1277 1.427 . S
N1285 C1283 1.384 . S
H1286 C1292 0.930 . S
H1287 C1296 0.930 . S
H1288 C1301 0.929 . S
H1289 C1299 0.929 . S
H1290 C1294 0.929 . S
H1291 C1300 0.929 . S
C1292 H1286 0.930 . S
C1292 C1293 1.367 . S
C1292 C1300 1.378 . S
C1293 C1292 1.367 . S
C1293 C1301 1.433 . S
C1294 H1290 0.929 . S
C1294 C1296 1.378 . S
C1294 C1298 1.350 . S
C1295 C1298 1.463 . S
C1295 C1300 1.350 . S
C1295 N1303 1.427 . S
C1296 H1287 0.930 . S
C1296 C1294 1.378 . S
C1296 C1297 1.367 . S
C1297 C1296 1.367 . S
C1297 C1299 1.433 . S
C1298 C1294 1.350 . S
C1298 C1295 1.463 . S
C1298 N1302 1.427 . S
C1299 H1289 0.929 . S
C1299 C1297 1.433 . S
C1299 N1302 1.384 . S
C1300 H1291 0.929 . S
C1300 C1292 1.378 . S
C1300 C1295 1.350 . S
C1301 H1288 0.929 . S
C1301 C1293 1.433 . S
C1301 N1303 1.384 . S
N1302 C1298 1.427 . S
N1302 C1299 1.384 . S
N1303 C1295 1.427 . S
N1303 C1301 1.384 . S
H1304 C1310 0.930 . S
H1305 C1314 0.930 . S
H1306 C1319 0.929 . S
H1307 C1317 0.929 . S
H1308 C1312 0.929 . S
H1309 C1318 0.929 . S
C1310 H1304 0.930 . S
C1310 C1311 1.367 . S
C1310 C1318 1.378 . S
C1311 C1310 1.367 . S
C1311 C1319 1.433 . S
C1312 H1308 0.929 . S
C1312 C1314 1.378 . S
C1312 C1316 1.350 . S
C1313 C1316 1.463 . S
C1313 C1318 1.350 . S
C1313 N1321 1.427 . S
C1314 H1305 0.930 . S
C1314 C1312 1.378 . S
C1314 C1315 1.367 . S
C1315 C1314 1.367 . S
C1315 C1317 1.433 . S
C1316 C1312 1.350 . S
C1316 C1313 1.463 . S
C1316 N1320 1.427 . S
C1317 H1307 0.929 . S
C1317 C1315 1.433 . S
C1317 N1320 1.384 . S
C1318 H1309 0.929 . S
C1318 C1310 1.378 . S
C1318 C1313 1.350 . S
C1319 H1306 0.929 . S
C1319 C1311 1.433 . S
C1319 N1321 1.384 . S
N1320 C1316 1.427 . S
N1320 C1317 1.384 . S
N1321 C1313 1.427 . S
N1321 C1319 1.384 . S
H1322 C1328 0.930 . S
H1323 C1332 0.930 . S
H1324 C1337 0.929 . S
H1325 C1335 0.929 . S
H1326 C1330 0.929 . S
H1327 C1336 0.929 . S
C1328 H1322 0.930 . S
C1328 C1329 1.367 . S
C1328 C1336 1.378 . S
C1329 C1328 1.367 . S
C1329 C1337 1.433 . S
C1330 H1326 0.929 . S
C1330 C1332 1.378 . S
C1330 C1334 1.350 . S
C1331 C1334 1.463 . S
C1331 C1336 1.350 . S
C1331 N1339 1.427 . S
C1332 H1323 0.930 . S
C1332 C1330 1.378 . S
C1332 C1333 1.367 . S
C1333 C1332 1.367 . S
C1333 C1335 1.433 . S
C1334 C1330 1.350 . S
C1334 C1331 1.463 . S
C1334 N1338 1.427 . S
C1335 H1325 0.929 . S
C1335 C1333 1.433 . S
C1335 N1338 1.384 . S
C1336 H1327 0.929 . S
C1336 C1328 1.378 . S
C1336 C1331 1.350 . S
C1337 H1324 0.929 . S
C1337 C1329 1.433 . S
C1337 N1339 1.384 . S
N1338 C1334 1.427 . S
N1338 C1335 1.384 . S
N1339 C1331 1.427 . S
N1339 C1337 1.384 . S
H1340 C1346 0.930 . S
H1341 C1350 0.930 . S
H1342 C1355 0.929 . S
H1343 C1353 0.929 . S
H1344 C1348 0.929 . S
H1345 C1354 0.929 . S
C1346 H1340 0.930 . S
C1346 C1347 1.367 . S
C1346 C1354 1.378 . S
C1347 C1346 1.367 . S
C1347 C1355 1.433 . S
C1348 H1344 0.929 . S
C1348 C1350 1.378 . S
C1348 C1352 1.350 . S
C1349 C1352 1.463 . S
C1349 C1354 1.350 . S
C1349 N1357 1.427 . S
C1350 H1341 0.930 . S
C1350 C1348 1.378 . S
C1350 C1351 1.367 . S
C1351 C1350 1.367 . S
C1351 C1353 1.433 . S
C1352 C1348 1.350 . S
C1352 C1349 1.463 . S
C1352 N1356 1.427 . S
C1353 H1343 0.929 . S
C1353 C1351 1.433 . S
C1353 N1356 1.384 . S
C1354 H1345 0.929 . S
C1354 C1346 1.378 . S
C1354 C1349 1.350 . S
C1355 H1342 0.929 . S
C1355 C1347 1.433 . S
C1355 N1357 1.384 . S
N1356 C1352 1.427 . S
N1356 C1353 1.384 . S
N1357 C1349 1.427 . S
N1357 C1355 1.384 . S
H1358 C1364 0.930 . S
H1359 C1368 0.930 . S
H1360 C1373 0.929 . S
H1361 C1371 0.929 . S
H1362 C1366 0.929 . S
H1363 C1372 0.929 . S
C1364 H1358 0.930 . S
C1364 C1365 1.367 . S
C1364 C1372 1.378 . S
C1365 C1364 1.367 . S
C1365 C1373 1.433 . S
C1366 H1362 0.929 . S
C1366 C1368 1.378 . S
C1366 C1370 1.350 . S
C1367 C1370 1.463 . S
C1367 C1372 1.350 . S
C1367 N1375 1.427 . S
C1368 H1359 0.930 . S
C1368 C1366 1.378 . S
C1368 C1369 1.367 . S
C1369 C1368 1.367 . S
C1369 C1371 1.433 . S
C1370 C1366 1.350 . S
C1370 C1367 1.463 . S
C1370 N1374 1.427 . S
C1371 H1361 0.929 . S
C1371 C1369 1.433 . S
C1371 N1374 1.384 . S
C1372 H1363 0.929 . S
C1372 C1364 1.378 . S
C1372 C1367 1.350 . S
C1373 H1360 0.929 . S
C1373 C1365 1.433 . S
C1373 N1375 1.384 . S
N1374 C1370 1.427 . S
N1374 C1371 1.384 . S
N1375 C1367 1.427 . S
N1375 C1373 1.384 . S
H1376 C1382 0.930 . S
H1377 C1386 0.930 . S
H1378 C1391 0.929 . S
H1379 C1389 0.929 . S
H1380 C1384 0.929 . S
H1381 C1390 0.929 . S
C1382 H1376 0.930 . S
C1382 C1383 1.367 . S
C1382 C1390 1.378 . S
C1383 C1382 1.367 . S
C1383 C1391 1.433 . S
C1384 H1380 0.929 . S
C1384 C1386 1.378 . S
C1384 C1388 1.350 . S
C1385 C1388 1.463 1_655 S
C1385 C1390 1.350 . S
C1385 N1393 1.427 . S
C1386 H1377 0.930 . S
C1386 C1384 1.378 . S
C1386 C1387 1.367 . S
C1387 C1386 1.367 . S
C1387 C1389 1.433 . S
C1388 C1384 1.350 . S
C1388 C1385 1.463 1_455 S
C1388 N1392 1.427 . S
C1389 H1379 0.929 . S
C1389 C1387 1.433 . S
C1389 N1392 1.384 . S
C1390 H1381 0.929 . S
C1390 C1382 1.378 . S
C1390 C1385 1.350 . S
C1391 H1378 0.929 . S
C1391 C1383 1.433 . S
C1391 N1393 1.384 . S
N1392 C1388 1.427 . S
N1392 C1389 1.384 . S
N1393 C1385 1.427 . S
N1393 C1391 1.384 . S
H1394 C1400 0.930 . S
H1395 C1404 0.930 . S
H1396 C1409 0.929 1_455 S
H1397 C1407 0.929 1_655 S
H1398 C1402 0.929 . S
H1399 C1408 0.929 . S
C1400 H1394 0.930 . S
C1400 C1401 1.367 . S
C1400 C1408 1.378 . S
C1401 C1400 1.367 . S
C1401 C1409 1.433 . S
C1402 H1398 0.929 . S
C1402 C1404 1.378 . S
C1402 C1406 1.350 . S
C1403 C1406 1.463 1_655 S
C1403 C1408 1.350 . S
C1403 N1411 1.427 1_655 S
C1404 H1395 0.930 . S
C1404 C1402 1.378 . S
C1404 C1405 1.367 . S
C1405 C1404 1.367 . S
C1405 C1407 1.433 . S
C1406 C1402 1.350 . S
C1406 C1403 1.463 1_455 S
C1406 N1410 1.427 1_455 S
C1407 H1397 0.929 1_455 S
C1407 C1405 1.433 . S
C1407 N1410 1.384 1_455 S
C1408 H1399 0.929 . S
C1408 C1400 1.378 . S
C1408 C1403 1.350 . S
C1409 H1396 0.929 1_655 S
C1409 C1401 1.433 . S
C1409 N1411 1.384 1_655 S
N1410 C1406 1.427 1_655 S
N1410 C1407 1.384 1_655 S
N1411 C1403 1.427 1_455 S
N1411 C1409 1.384 1_455 S
H1412 C1418 0.930 . S
H1413 C1422 0.930 . S
H1414 C1427 0.929 . S
H1415 C1425 0.929 . S
H1416 C1420 0.929 . S
H1417 C1426 0.929 . S
C1418 H1412 0.930 . S
C1418 C1419 1.367 . S
C1418 C1426 1.378 . S
C1419 C1418 1.367 . S
C1419 C1427 1.433 . S
C1420 H1416 0.929 . S
C1420 C1422 1.378 . S
C1420 C1424 1.350 . S
C1421 C1424 1.463 . S
C1421 C1426 1.350 . S
C1421 N1429 1.427 . S
C1422 H1413 0.930 . S
C1422 C1420 1.378 . S
C1422 C1423 1.367 . S
C1423 C1422 1.367 . S
C1423 C1425 1.433 . S
C1424 C1420 1.350 . S
C1424 C1421 1.463 . S
C1424 N1428 1.427 . S
C1425 H1415 0.929 . S
C1425 C1423 1.433 . S
C1425 N1428 1.384 . S
C1426 H1417 0.929 . S
C1426 C1418 1.378 . S
C1426 C1421 1.350 . S
C1427 H1414 0.929 . S
C1427 C1419 1.433 . S
C1427 N1429 1.384 . S
N1428 C1424 1.427 . S
N1428 C1425 1.384 . S
N1429 C1421 1.427 . S
N1429 C1427 1.384 . S
H1430 C1436 0.930 1_556 S
H1431 C1440 0.930 . S
H1432 C1445 0.929 . S
H1433 C1443 0.929 1_556 S
H1434 C1438 0.929 . S
H1435 C1444 0.929 1_556 S
C1436 H1430 0.930 1_554 S
C1436 C1437 1.367 . S
C1436 C1444 1.378 . S
C1437 C1436 1.367 . S
C1437 C1445 1.433 . S
C1438 H1434 0.929 . S
C1438 C1440 1.378 . S
C1438 C1442 1.350 . S
C1439 C1442 1.463 . S
C1439 C1444 1.350 . S
C1439 N1447 1.427 . S
C1440 H1431 0.930 . S
C1440 C1438 1.378 . S
C1440 C1441 1.367 . S
C1441 C1440 1.367 . S
C1441 C1443 1.433 . S
C1442 C1438 1.350 . S
C1442 C1439 1.463 . S
C1442 N1446 1.427 . S
C1443 H1433 0.929 1_554 S
C1443 C1441 1.433 . S
C1443 N1446 1.384 . S
C1444 H1435 0.929 1_554 S
C1444 C1436 1.378 . S
C1444 C1439 1.350 . S
C1445 H1432 0.929 . S
C1445 C1437 1.433 . S
C1445 N1447 1.384 . S
N1446 C1442 1.427 . S
N1446 C1443 1.384 . S
N1447 C1439 1.427 . S
N1447 C1445 1.384 . S
H1448 C1454 0.930 . S
H1449 C1458 0.930 . S
H1450 C1463 0.929 . S
H1451 C1461 0.929 . S
H1452 C1456 0.929 . S
H1453 C1462 0.929 . S
C1454 H1448 0.930 . S
C1454 C1455 1.367 . S
C1454 C1462 1.378 . S
C1455 C1454 1.367 . S
C1455 C1463 1.433 . S
C1456 H1452 0.929 . S
C1456 C1458 1.378 . S
C1456 C1460 1.350 . S
C1457 C1460 1.463 1_655 S
C1457 C1462 1.350 . S
C1457 N1465 1.427 . S
C1458 H1449 0.930 . S
C1458 C1456 1.378 . S
C1458 C1459 1.367 . S
C1459 C1458 1.367 . S
C1459 C1461 1.433 . S
C1460 C1456 1.350 . S
C1460 C1457 1.463 1_455 S
C1460 N1464 1.427 . S
C1461 H1451 0.929 . S
C1461 C1459 1.433 . S
C1461 N1464 1.384 . S
C1462 H1453 0.929 . S
C1462 C1454 1.378 . S
C1462 C1457 1.350 . S
C1463 H1450 0.929 . S
C1463 C1455 1.433 . S
C1463 N1465 1.384 . S
N1464 C1460 1.427 . S
N1464 C1461 1.384 . S
N1465 C1457 1.427 . S
N1465 C1463 1.384 . S
H1466 C1472 0.930 . S
H1467 C1476 0.930 . S
H1468 C1481 0.929 . S
H1469 C1479 0.929 . S
H1470 C1474 0.929 . S
H1471 C1480 0.929 . S
C1472 H1466 0.930 . S
C1472 C1473 1.367 . S
C1472 C1480 1.378 . S
C1473 C1472 1.367 . S
C1473 C1481 1.433 . S
C1474 H1470 0.929 . S
C1474 C1476 1.378 . S
C1474 C1478 1.350 . S
C1475 C1478 1.463 . S
C1475 C1480 1.350 . S
C1475 N1483 1.427 . S
C1476 H1467 0.930 . S
C1476 C1474 1.378 . S
C1476 C1477 1.367 . S
C1477 C1476 1.367 . S
C1477 C1479 1.433 . S
C1478 C1474 1.350 . S
C1478 C1475 1.463 . S
C1478 N1482 1.427 . S
C1479 H1469 0.929 . S
C1479 C1477 1.433 . S
C1479 N1482 1.384 . S
C1480 H1471 0.929 . S
C1480 C1472 1.378 . S
C1480 C1475 1.350 . S
C1481 H1468 0.929 . S
C1481 C1473 1.433 . S
C1481 N1483 1.384 . S
N1482 C1478 1.427 . S
N1482 C1479 1.384 . S
N1483 C1475 1.427 . S
N1483 C1481 1.384 . S
H1484 C1490 0.930 . S
H1485 C1494 0.930 . S
H1486 C1499 0.929 . S
H1487 C1497 0.929 . S
H1488 C1492 0.929 . S
H1489 C1498 0.929 . S
C1490 H1484 0.930 . S
C1490 C1491 1.367 . S
C1490 C1498 1.378 . S
C1491 C1490 1.367 . S
C1491 C1499 1.433 . S
C1492 H1488 0.929 . S
C1492 C1494 1.378 . S
C1492 C1496 1.350 . S
C1493 C1496 1.463 . S
C1493 C1498 1.350 . S
C1493 N1501 1.427 . S
C1494 H1485 0.930 . S
C1494 C1492 1.378 . S
C1494 C1495 1.367 . S
C1495 C1494 1.367 . S
C1495 C1497 1.433 . S
C1496 C1492 1.350 . S
C1496 C1493 1.463 . S
C1496 N1500 1.427 . S
C1497 H1487 0.929 . S
C1497 C1495 1.433 . S
C1497 N1500 1.384 . S
C1498 H1489 0.929 . S
C1498 C1490 1.378 . S
C1498 C1493 1.350 . S
C1499 H1486 0.929 . S
C1499 C1491 1.433 . S
C1499 N1501 1.384 . S
N1500 C1496 1.427 . S
N1500 C1497 1.384 . S
N1501 C1493 1.427 . S
N1501 C1499 1.384 . S
H1502 C1508 0.930 1_554 S
H1503 C1512 0.930 . S
H1504 C1517 0.929 . S
H1505 C1515 0.929 1_554 S
H1506 C1510 0.929 . S
H1507 C1516 0.929 1_554 S
C1508 H1502 0.930 1_556 S
C1508 C1509 1.367 . S
C1508 C1516 1.378 . S
C1509 C1508 1.367 . S
C1509 C1517 1.433 . S
C1510 H1506 0.929 . S
C1510 C1512 1.378 . S
C1510 C1514 1.350 . S
C1511 C1514 1.463 1_455 S
C1511 C1516 1.350 . S
C1511 N1519 1.427 . S
C1512 H1503 0.930 . S
C1512 C1510 1.378 . S
C1512 C1513 1.367 . S
C1513 C1512 1.367 . S
C1513 C1515 1.433 . S
C1514 C1510 1.350 . S
C1514 C1511 1.463 1_655 S
C1514 N1518 1.427 . S
C1515 H1505 0.929 1_556 S
C1515 C1513 1.433 . S
C1515 N1518 1.384 . S
C1516 H1507 0.929 1_556 S
C1516 C1508 1.378 . S
C1516 C1511 1.350 . S
C1517 H1504 0.929 . S
C1517 C1509 1.433 . S
C1517 N1519 1.384 . S
N1518 C1514 1.427 . S
N1518 C1515 1.384 . S
N1519 C1511 1.427 . S
N1519 C1517 1.384 . S
H1520 C1526 0.930 . S
H1521 C1530 0.930 . S
H1522 C1535 0.929 . S
H1523 C1533 0.929 . S
H1524 C1528 0.929 . S
H1525 C1534 0.929 . S
C1526 H1520 0.930 . S
C1526 C1527 1.367 . S
C1526 C1534 1.378 . S
C1527 C1526 1.367 . S
C1527 C1535 1.433 . S
C1528 H1524 0.929 . S
C1528 C1530 1.378 . S
C1528 C1532 1.350 . S
C1529 C1532 1.463 1_655 S
C1529 C1534 1.350 . S
C1529 N1537 1.427 . S
C1530 H1521 0.930 . S
C1530 C1528 1.378 . S
C1530 C1531 1.367 . S
C1531 C1530 1.367 . S
C1531 C1533 1.433 . S
C1532 C1528 1.350 . S
C1532 C1529 1.463 1_455 S
C1532 N1536 1.427 . S
C1533 H1523 0.929 . S
C1533 C1531 1.433 . S
C1533 N1536 1.384 . S
C1534 H1525 0.929 . S
C1534 C1526 1.378 . S
C1534 C1529 1.350 . S
C1535 H1522 0.929 . S
C1535 C1527 1.433 . S
C1535 N1537 1.384 . S
N1536 C1532 1.427 . S
N1536 C1533 1.384 . S
N1537 C1529 1.427 . S
N1537 C1535 1.384 . S
H1538 C1544 0.930 1_655 S
H1539 C1548 0.930 1_455 S
H1540 C1553 0.929 . S
H1541 C1551 0.929 . S
H1542 C1546 0.929 . S
H1543 C1552 0.929 . S
C1544 H1538 0.930 1_455 S
C1544 C1545 1.367 . S
C1544 C1552 1.378 1_455 S
C1545 C1544 1.367 . S
C1545 C1553 1.433 . S
C1546 H1542 0.929 . S
C1546 C1548 1.378 1_455 S
C1546 C1550 1.350 1_455 S
C1547 C1550 1.463 1_455 S
C1547 C1552 1.350 1_455 S
C1547 N1555 1.427 . S
C1548 H1539 0.930 1_655 S
C1548 C1546 1.378 1_655 S
C1548 C1549 1.367 . S
C1549 C1548 1.367 . S
C1549 C1551 1.433 . S
C1550 C1546 1.350 1_655 S
C1550 C1547 1.463 1_655 S
C1550 N1554 1.427 . S
C1551 H1541 0.929 . S
C1551 C1549 1.433 . S
C1551 N1554 1.384 . S
C1552 H1543 0.929 . S
C1552 C1544 1.378 1_655 S
C1552 C1547 1.350 1_655 S
C1553 H1540 0.929 . S
C1553 C1545 1.433 . S
C1553 N1555 1.384 . S
N1554 C1550 1.427 . S
N1554 C1551 1.384 . S
N1555 C1547 1.427 . S
N1555 C1553 1.384 . S
H1556 C1562 0.930 . S
H1557 C1566 0.930 . S
H1558 C1571 0.929 . S
H1559 C1569 0.929 . S
H1560 C1564 0.929 . S
H1561 C1570 0.929 . S
C1562 H1556 0.930 . S
C1562 C1563 1.367 . S
C1562 C1570 1.378 . S
C1563 C1562 1.367 . S
C1563 C1571 1.433 . S
C1564 H1560 0.929 . S
C1564 C1566 1.378 . S
C1564 C1568 1.350 . S
C1565 C1568 1.463 . S
C1565 C1570 1.350 . S
C1565 N1573 1.427 . S
C1566 H1557 0.930 . S
C1566 C1564 1.378 . S
C1566 C1567 1.367 . S
C1567 C1566 1.367 . S
C1567 C1569 1.433 . S
C1568 C1564 1.350 . S
C1568 C1565 1.463 . S
C1568 N1572 1.427 . S
C1569 H1559 0.929 . S
C1569 C1567 1.433 . S
C1569 N1572 1.384 . S
C1570 H1561 0.929 . S
C1570 C1562 1.378 . S
C1570 C1565 1.350 . S
C1571 H1558 0.929 . S
C1571 C1563 1.433 . S
C1571 N1573 1.384 . S
N1572 C1568 1.427 . S
N1572 C1569 1.384 . S
N1573 C1565 1.427 . S
N1573 C1571 1.384 . S
H1574 C1580 0.930 1_554 S
H1575 C1584 0.930 . S
H1576 C1589 0.929 . S
H1577 C1587 0.929 1_554 S
H1578 C1582 0.929 . S
H1579 C1588 0.929 1_554 S
C1580 H1574 0.930 1_556 S
C1580 C1581 1.367 . S
C1580 C1588 1.378 . S
C1581 C1580 1.367 . S
C1581 C1589 1.433 . S
C1582 H1578 0.929 . S
C1582 C1584 1.378 . S
C1582 C1586 1.350 . S
C1583 C1586 1.463 . S
C1583 C1588 1.350 . S
C1583 N1591 1.427 . S
C1584 H1575 0.930 . S
C1584 C1582 1.378 . S
C1584 C1585 1.367 . S
C1585 C1584 1.367 . S
C1585 C1587 1.433 . S
C1586 C1582 1.350 . S
C1586 C1583 1.463 . S
C1586 N1590 1.427 . S
C1587 H1577 0.929 1_556 S
C1587 C1585 1.433 . S
C1587 N1590 1.384 . S
C1588 H1579 0.929 1_556 S
C1588 C1580 1.378 . S
C1588 C1583 1.350 . S
C1589 H1576 0.929 . S
C1589 C1581 1.433 . S
C1589 N1591 1.384 . S
N1590 C1586 1.427 . S
N1590 C1587 1.384 . S
N1591 C1583 1.427 . S
N1591 C1589 1.384 . S
H1592 C1598 0.930 . S
H1593 C1602 0.930 . S
H1594 C1607 0.929 . S
H1595 C1605 0.929 . S
H1596 C1600 0.929 . S
H1597 C1606 0.929 . S
C1598 H1592 0.930 . S
C1598 C1599 1.367 . S
C1598 C1606 1.378 . S
C1599 C1598 1.367 . S
C1599 C1607 1.433 . S
C1600 H1596 0.929 . S
C1600 C1602 1.378 . S
C1600 C1604 1.350 . S
C1601 C1604 1.463 1_655 S
C1601 C1606 1.350 . S
C1601 N1609 1.427 . S
C1602 H1593 0.930 . S
C1602 C1600 1.378 . S
C1602 C1603 1.367 . S
C1603 C1602 1.367 . S
C1603 C1605 1.433 . S
C1604 C1600 1.350 . S
C1604 C1601 1.463 1_455 S
C1604 N1608 1.427 . S
C1605 H1595 0.929 . S
C1605 C1603 1.433 . S
C1605 N1608 1.384 . S
C1606 H1597 0.929 . S
C1606 C1598 1.378 . S
C1606 C1601 1.350 . S
C1607 H1594 0.929 . S
C1607 C1599 1.433 . S
C1607 N1609 1.384 . S
N1608 C1604 1.427 . S
N1608 C1605 1.384 . S
N1609 C1601 1.427 . S
N1609 C1607 1.384 . S
H1610 C1616 0.930 . S
H1611 C1620 0.930 . S
H1612 C1625 0.929 . S
H1613 C1623 0.929 . S
H1614 C1618 0.929 . S
H1615 C1624 0.929 . S
C1616 H1610 0.930 . S
C1616 C1617 1.367 . S
C1616 C1624 1.378 . S
C1617 C1616 1.367 . S
C1617 C1625 1.433 . S
C1618 H1614 0.929 . S
C1618 C1620 1.378 . S
C1618 C1622 1.350 . S
C1619 C1622 1.463 . S
C1619 C1624 1.350 . S
C1619 N1627 1.427 . S
C1620 H1611 0.930 . S
C1620 C1618 1.378 . S
C1620 C1621 1.367 . S
C1621 C1620 1.367 . S
C1621 C1623 1.433 . S
C1622 C1618 1.350 . S
C1622 C1619 1.463 . S
C1622 N1626 1.427 . S
C1623 H1613 0.929 . S
C1623 C1621 1.433 . S
C1623 N1626 1.384 . S
C1624 H1615 0.929 . S
C1624 C1616 1.378 . S
C1624 C1619 1.350 . S
C1625 H1612 0.929 . S
C1625 C1617 1.433 . S
C1625 N1627 1.384 . S
N1626 C1622 1.427 . S
N1626 C1623 1.384 . S
N1627 C1619 1.427 . S
N1627 C1625 1.384 . S
H1628 C1634 0.930 . S
H1629 C1638 0.930 . S
H1630 C1643 0.929 . S
H1631 C1641 0.929 . S
H1632 C1636 0.929 . S
H1633 C1642 0.929 . S
C1634 H1628 0.930 . S
C1634 C1635 1.367 . S
C1634 C1642 1.378 . S
C1635 C1634 1.367 . S
C1635 C1643 1.433 . S
C1636 H1632 0.929 . S
C1636 C1638 1.378 . S
C1636 C1640 1.350 . S
C1637 C1640 1.463 . S
C1637 C1642 1.350 . S
C1637 N1645 1.427 . S
C1638 H1629 0.930 . S
C1638 C1636 1.378 . S
C1638 C1639 1.367 . S
C1639 C1638 1.367 . S
C1639 C1641 1.433 . S
C1640 C1636 1.350 . S
C1640 C1637 1.463 . S
C1640 N1644 1.427 . S
C1641 H1631 0.929 . S
C1641 C1639 1.433 . S
C1641 N1644 1.384 . S
C1642 H1633 0.929 . S
C1642 C1634 1.378 . S
C1642 C1637 1.350 . S
C1643 H1630 0.929 . S
C1643 C1635 1.433 . S
C1643 N1645 1.384 . S
N1644 C1640 1.427 . S
N1644 C1641 1.384 . S
N1645 C1637 1.427 . S
N1645 C1643 1.384 . S
H1646 C1652 0.930 . S
H1647 C1656 0.930 1_556 S
H1648 C1661 0.929 1_556 S
H1649 C1659 0.929 . S
H1650 C1654 0.929 1_556 S
H1651 C1660 0.929 . S
C1652 H1646 0.930 . S
C1652 C1653 1.367 . S
C1652 C1660 1.378 . S
C1653 C1652 1.367 . S
C1653 C1661 1.433 . S
C1654 H1650 0.929 1_554 S
C1654 C1656 1.378 . S
C1654 C1658 1.350 . S
C1655 C1658 1.463 1_455 S
C1655 C1660 1.350 . S
C1655 N1663 1.431 . S
C1656 H1647 0.930 1_554 S
C1656 C1654 1.378 . S
C1656 C1657 1.367 . S
C1657 C1656 1.367 . S
C1657 C1659 1.433 . S
C1658 C1654 1.350 . S
C1658 C1655 1.463 1_655 S
C1658 N1662 1.431 . S
C1659 H1649 0.929 . S
C1659 C1657 1.433 . S
C1659 N1662 1.391 . S
C1660 H1651 0.929 . S
C1660 C1652 1.378 . S
C1660 C1655 1.350 . S
C1661 H1648 0.929 1_554 S
C1661 C1653 1.433 . S
C1661 N1663 1.391 . S
N1662 C1658 1.431 . S
N1662 C1659 1.391 . S
N1663 C1655 1.431 . S
N1663 C1661 1.391 . S
H1664 C1670 0.930 . S
H1665 C1674 0.930 . S
H1666 C1679 0.929 . S
H1667 C1677 0.929 . S
H1668 C1672 0.929 . S
H1669 C1678 0.929 . S
C1670 H1664 0.930 . S
C1670 C1671 1.367 . S
C1670 C1678 1.378 . S
C1671 C1670 1.367 . S
C1671 C1679 1.433 . S
C1672 H1668 0.929 . S
C1672 C1674 1.378 . S
C1672 C1676 1.350 . S
C1673 C1676 1.463 . S
C1673 C1678 1.350 . S
C1673 N1681 1.427 . S
C1674 H1665 0.930 . S
C1674 C1672 1.378 . S
C1674 C1675 1.367 . S
C1675 C1674 1.367 . S
C1675 C1677 1.433 . S
C1676 C1672 1.350 . S
C1676 C1673 1.463 . S
C1676 N1680 1.427 . S
C1677 H1667 0.929 . S
C1677 C1675 1.433 . S
C1677 N1680 1.384 . S
C1678 H1669 0.929 . S
C1678 C1670 1.378 . S
C1678 C1673 1.350 . S
C1679 H1666 0.929 . S
C1679 C1671 1.433 . S
C1679 N1681 1.384 . S
N1680 C1676 1.427 . S
N1680 C1677 1.384 . S
N1681 C1673 1.427 . S
N1681 C1679 1.384 . S
H1682 C1688 0.930 . S
H1683 C1692 0.930 . S
H1684 C1697 0.929 . S
H1685 C1695 0.929 . S
H1686 C1690 0.929 . S
H1687 C1696 0.929 . S
C1688 H1682 0.930 . S
C1688 C1689 1.367 . S
C1688 C1696 1.378 . S
C1689 C1688 1.367 . S
C1689 C1697 1.433 . S
C1690 H1686 0.929 . S
C1690 C1692 1.378 . S
C1690 C1694 1.350 . S
C1691 C1694 1.463 . S
C1691 C1696 1.350 . S
C1691 N1699 1.427 . S
C1692 H1683 0.930 . S
C1692 C1690 1.378 . S
C1692 C1693 1.367 . S
C1693 C1692 1.367 . S
C1693 C1695 1.433 . S
C1694 C1690 1.350 . S
C1694 C1691 1.463 . S
C1694 N1698 1.427 . S
C1695 H1685 0.929 . S
C1695 C1693 1.433 . S
C1695 N1698 1.384 . S
C1696 H1687 0.929 . S
C1696 C1688 1.378 . S
C1696 C1691 1.350 . S
C1697 H1684 0.929 . S
C1697 C1689 1.433 . S
C1697 N1699 1.384 . S
N1698 C1694 1.427 . S
N1698 C1695 1.384 . S
N1699 C1691 1.427 . S
N1699 C1697 1.384 . S
H1700 C1706 0.930 . S
H1701 C1710 0.930 . S
H1702 C1715 0.929 . S
H1703 C1713 0.929 . S
H1704 C1708 0.929 . S
H1705 C1714 0.929 . S
C1706 H1700 0.930 . S
C1706 C1707 1.367 . S
C1706 C1714 1.378 . S
C1707 C1706 1.367 . S
C1707 C1715 1.433 . S
C1708 H1704 0.929 . S
C1708 C1710 1.378 . S
C1708 C1712 1.350 . S
C1709 C1712 1.463 . S
C1709 C1714 1.350 . S
C1709 N1717 1.427 . S
C1710 H1701 0.930 . S
C1710 C1708 1.378 . S
C1710 C1711 1.367 . S
C1711 C1710 1.367 . S
C1711 C1713 1.433 . S
C1712 C1708 1.350 . S
C1712 C1709 1.463 . S
C1712 N1716 1.427 . S
C1713 H1703 0.929 . S
C1713 C1711 1.433 . S
C1713 N1716 1.384 . S
C1714 H1705 0.929 . S
C1714 C1706 1.378 . S
C1714 C1709 1.350 . S
C1715 H1702 0.929 . S
C1715 C1707 1.433 . S
C1715 N1717 1.384 . S
N1716 C1712 1.427 . S
N1716 C1713 1.384 . S
N1717 C1709 1.427 . S
N1717 C1715 1.384 . S
H1718 C1724 0.930 . S
H1719 C1728 0.930 . S
H1720 C1733 0.929 . S
H1721 C1731 0.929 . S
H1722 C1726 0.929 . S
H1723 C1732 0.929 . S
C1724 H1718 0.930 . S
C1724 C1725 1.367 . S
C1724 C1732 1.378 . S
C1725 C1724 1.367 . S
C1725 C1733 1.433 . S
C1726 H1722 0.929 . S
C1726 C1728 1.378 . S
C1726 C1730 1.350 . S
C1727 C1730 1.463 . S
C1727 C1732 1.350 . S
C1727 N1735 1.427 . S
C1728 H1719 0.930 . S
C1728 C1726 1.378 . S
C1728 C1729 1.367 . S
C1729 C1728 1.367 . S
C1729 C1731 1.433 . S
C1730 C1726 1.350 . S
C1730 C1727 1.463 . S
C1730 N1734 1.427 . S
C1731 H1721 0.929 . S
C1731 C1729 1.433 . S
C1731 N1734 1.384 . S
C1732 H1723 0.929 . S
C1732 C1724 1.378 . S
C1732 C1727 1.350 . S
C1733 H1720 0.929 . S
C1733 C1725 1.433 . S
C1733 N1735 1.384 . S
N1734 C1730 1.427 . S
N1734 C1731 1.384 . S
N1735 C1727 1.427 . S
N1735 C1733 1.384 . S
H1736 C1742 0.930 . S
H1737 C1746 0.930 . S
H1738 C1751 0.929 . S
H1739 C1749 0.929 . S
H1740 C1744 0.929 . S
H1741 C1750 0.929 . S
C1742 H1736 0.930 . S
C1742 C1743 1.367 . S
C1742 C1750 1.378 . S
C1743 C1742 1.367 . S
C1743 C1751 1.433 . S
C1744 H1740 0.929 . S
C1744 C1746 1.378 . S
C1744 C1748 1.350 . S
C1745 C1748 1.463 . S
C1745 C1750 1.350 . S
C1745 N1753 1.427 . S
C1746 H1737 0.930 . S
C1746 C1744 1.378 . S
C1746 C1747 1.367 . S
C1747 C1746 1.367 . S
C1747 C1749 1.433 . S
C1748 C1744 1.350 . S
C1748 C1745 1.463 . S
C1748 N1752 1.427 . S
C1749 H1739 0.929 . S
C1749 C1747 1.433 . S
C1749 N1752 1.384 . S
C1750 H1741 0.929 . S
C1750 C1742 1.378 . S
C1750 C1745 1.350 . S
C1751 H1738 0.929 . S
C1751 C1743 1.433 . S
C1751 N1753 1.384 . S
N1752 C1748 1.427 . S
N1752 C1749 1.384 . S
N1753 C1745 1.427 . S
N1753 C1751 1.384 . S
H1754 C1760 0.930 . S
H1755 C1764 0.930 . S
H1756 C1769 0.929 . S
H1757 C1767 0.929 . S
H1758 C1762 0.929 . S
H1759 C1768 0.929 . S
C1760 H1754 0.930 . S
C1760 C1761 1.367 . S
C1760 C1768 1.378 . S
C1761 C1760 1.367 . S
C1761 C1769 1.433 . S
C1762 H1758 0.929 . S
C1762 C1764 1.378 . S
C1762 C1766 1.350 . S
C1763 C1766 1.463 . S
C1763 C1768 1.350 . S
C1763 N1771 1.427 . S
C1764 H1755 0.930 . S
C1764 C1762 1.378 . S
C1764 C1765 1.367 . S
C1765 C1764 1.367 . S
C1765 C1767 1.433 . S
C1766 C1762 1.350 . S
C1766 C1763 1.463 . S
C1766 N1770 1.427 . S
C1767 H1757 0.929 . S
C1767 C1765 1.433 . S
C1767 N1770 1.384 . S
C1768 H1759 0.929 . S
C1768 C1760 1.378 . S
C1768 C1763 1.350 . S
C1769 H1756 0.929 . S
C1769 C1761 1.433 . S
C1769 N1771 1.384 . S
N1770 C1766 1.427 . S
N1770 C1767 1.384 . S
N1771 C1763 1.427 . S
N1771 C1769 1.384 . S
H1772 C1778 0.930 . S
H1773 C1782 0.930 . S
H1774 C1787 0.929 . S
H1775 C1785 0.929 . S
H1776 C1780 0.929 . S
H1777 C1786 0.929 . S
C1778 H1772 0.930 . S
C1778 C1779 1.367 . S
C1778 C1786 1.378 . S
C1779 C1778 1.367 . S
C1779 C1787 1.433 . S
C1780 H1776 0.929 . S
C1780 C1782 1.378 . S
C1780 C1784 1.350 . S
C1781 C1784 1.463 . S
C1781 C1786 1.350 . S
C1781 N1789 1.427 . S
C1782 H1773 0.930 . S
C1782 C1780 1.378 . S
C1782 C1783 1.367 . S
C1783 C1782 1.367 . S
C1783 C1785 1.433 . S
C1784 C1780 1.350 . S
C1784 C1781 1.463 . S
C1784 N1788 1.427 . S
C1785 H1775 0.929 . S
C1785 C1783 1.433 . S
C1785 N1788 1.384 . S
C1786 H1777 0.929 . S
C1786 C1778 1.378 . S
C1786 C1781 1.350 . S
C1787 H1774 0.929 . S
C1787 C1779 1.433 . S
C1787 N1789 1.384 . S
N1788 C1784 1.427 . S
N1788 C1785 1.384 . S
N1789 C1781 1.427 . S
N1789 C1787 1.384 . S
H1790 C1796 0.930 . S
H1791 C1800 0.930 . S
H1792 C1805 0.953 . S
H1793 C1803 0.929 . S
H1794 C1798 0.929 . S
H1795 C1804 0.929 . S
C1796 H1790 0.930 . S
C1796 C1797 1.367 . S
C1796 C1804 1.378 . S
C1797 C1796 1.367 . S
C1797 C1805 1.433 . S
C1798 H1794 0.929 . S
C1798 C1800 1.378 . S
C1798 C1802 1.350 . S
C1799 C1802 1.463 . S
C1799 C1804 1.350 . S
C1799 N1807 1.427 . S
C1800 H1791 0.930 . S
C1800 C1798 1.378 . S
C1800 C1801 1.367 . S
C1801 C1800 1.367 . S
C1801 C1803 1.433 . S
C1802 C1798 1.350 . S
C1802 C1799 1.463 . S
C1802 N1806 1.427 . S
C1803 H1793 0.929 . S
C1803 C1801 1.433 . S
C1803 N1806 1.384 . S
C1804 H1795 0.929 . S
C1804 C1796 1.378 . S
C1804 C1799 1.350 . S
C1805 H1792 0.953 . S
C1805 C1797 1.433 . S
C1805 N1807 1.384 . S
N1806 C1802 1.427 . S
N1806 C1803 1.384 . S
N1807 C1799 1.427 . S
N1807 C1805 1.384 . S
H1808 C1814 0.930 . S
H1809 C1818 0.930 . S
H1810 C1823 0.929 . S
H1811 C1821 0.929 . S
H1812 C1816 0.929 . S
H1813 C1822 0.929 . S
C1814 H1808 0.930 . S
C1814 C1815 1.367 . S
C1814 C1822 1.378 . S
C1815 C1814 1.367 . S
C1815 C1823 1.433 . S
C1816 H1812 0.929 . S
C1816 C1818 1.378 . S
C1816 C1820 1.350 . S
C1817 C1820 1.463 . S
C1817 C1822 1.350 . S
C1817 N1825 1.427 . S
C1818 H1809 0.930 . S
C1818 C1816 1.378 . S
C1818 C1819 1.367 . S
C1819 C1818 1.367 . S
C1819 C1821 1.433 . S
C1820 C1816 1.350 . S
C1820 C1817 1.463 . S
C1820 N1824 1.427 . S
C1821 H1811 0.929 . S
C1821 C1819 1.433 . S
C1821 N1824 1.384 . S
C1822 H1813 0.929 . S
C1822 C1814 1.378 . S
C1822 C1817 1.350 . S
C1823 H1810 0.929 . S
C1823 C1815 1.433 . S
C1823 N1825 1.384 . S
N1824 C1820 1.427 . S
N1824 C1821 1.384 . S
N1825 C1817 1.427 . S
N1825 C1823 1.384 . S
H1826 C1832 0.930 . S
H1827 C1836 0.930 . S
H1828 C1841 0.929 . S
H1829 C1839 0.929 . S
H1830 C1834 0.929 . S
H1831 C1840 0.929 . S
C1832 H1826 0.930 . S
C1832 C1833 1.367 . S
C1832 C1840 1.378 . S
C1833 C1832 1.367 . S
C1833 C1841 1.433 . S
C1834 H1830 0.929 . S
C1834 C1836 1.378 . S
C1834 C1838 1.350 . S
C1835 C1838 1.463 . S
C1835 C1840 1.350 . S
C1835 N1843 1.427 . S
C1836 H1827 0.930 . S
C1836 C1834 1.378 . S
C1836 C1837 1.367 . S
C1837 C1836 1.367 . S
C1837 C1839 1.433 . S
C1838 C1834 1.350 . S
C1838 C1835 1.463 . S
C1838 N1842 1.427 . S
C1839 H1829 0.929 . S
C1839 C1837 1.433 . S
C1839 N1842 1.384 . S
C1840 H1831 0.929 . S
C1840 C1832 1.378 . S
C1840 C1835 1.350 . S
C1841 H1828 0.929 . S
C1841 C1833 1.433 . S
C1841 N1843 1.384 . S
N1842 C1838 1.427 . S
N1842 C1839 1.384 . S
N1843 C1835 1.427 . S
N1843 C1841 1.384 . S
H1844 C1850 0.930 . S
H1845 C1854 0.930 . S
H1846 C1859 0.929 . S
H1847 C1857 0.929 . S
H1848 C1852 0.929 . S
H1849 C1858 0.929 . S
C1850 H1844 0.930 . S
C1850 C1851 1.367 . S
C1850 C1858 1.378 . S
C1851 C1850 1.367 . S
C1851 C1859 1.433 . S
C1852 H1848 0.929 . S
C1852 C1854 1.378 . S
C1852 C1856 1.350 . S
C1853 C1856 1.463 . S
C1853 C1858 1.350 . S
C1853 N1861 1.427 . S
C1854 H1845 0.930 . S
C1854 C1852 1.378 . S
C1854 C1855 1.367 . S
C1855 C1854 1.367 . S
C1855 C1857 1.433 . S
C1856 C1852 1.350 . S
C1856 C1853 1.463 . S
C1856 N1860 1.427 . S
C1857 H1847 0.929 . S
C1857 C1855 1.433 . S
C1857 N1860 1.384 . S
C1858 H1849 0.929 . S
C1858 C1850 1.378 . S
C1858 C1853 1.350 . S
C1859 H1846 0.929 . S
C1859 C1851 1.433 . S
C1859 N1861 1.384 . S
N1860 C1856 1.427 . S
N1860 C1857 1.384 . S
N1861 C1853 1.427 . S
N1861 C1859 1.384 . S
H1862 C1868 0.930 . S
H1863 C1872 0.930 . S
H1864 C1877 0.929 . S
H1865 C1875 0.929 . S
H1866 C1870 0.929 . S
H1867 C1876 0.929 . S
C1868 H1862 0.930 . S
C1868 C1869 1.367 . S
C1868 C1876 1.378 . S
C1869 C1868 1.367 . S
C1869 C1877 1.433 . S
C1870 H1866 0.929 . S
C1870 C1872 1.378 . S
C1870 C1874 1.350 . S
C1871 C1874 1.463 . S
C1871 C1876 1.350 . S
C1871 N1879 1.427 . S
C1872 H1863 0.930 . S
C1872 C1870 1.378 . S
C1872 C1873 1.367 . S
C1873 C1872 1.367 . S
C1873 C1875 1.433 . S
C1874 C1870 1.350 . S
C1874 C1871 1.463 . S
C1874 N1878 1.427 . S
C1875 H1865 0.929 . S
C1875 C1873 1.433 . S
C1875 N1878 1.384 . S
C1876 H1867 0.929 . S
C1876 C1868 1.378 . S
C1876 C1871 1.350 . S
C1877 H1864 0.929 . S
C1877 C1869 1.433 . S
C1877 N1879 1.384 . S
N1878 C1874 1.427 . S
N1878 C1875 1.384 . S
N1879 C1871 1.427 . S
N1879 C1877 1.384 . S
H1880 C1886 0.930 . S
H1881 C1890 0.930 . S
H1882 C1895 0.929 . S
H1883 C1893 0.929 . S
H1884 C1888 0.929 . S
H1885 C1894 0.929 . S
C1886 H1880 0.930 . S
C1886 C1887 1.367 . S
C1886 C1894 1.378 . S
C1887 C1886 1.367 . S
C1887 C1895 1.433 . S
C1888 H1884 0.929 . S
C1888 C1890 1.378 . S
C1888 C1892 1.350 . S
C1889 C1892 1.463 . S
C1889 C1894 1.350 . S
C1889 N1897 1.427 . S
C1890 H1881 0.930 . S
C1890 C1888 1.378 . S
C1890 C1891 1.367 . S
C1891 C1890 1.367 . S
C1891 C1893 1.433 . S
C1892 C1888 1.350 . S
C1892 C1889 1.463 . S
C1892 N1896 1.427 . S
C1893 H1883 0.929 . S
C1893 C1891 1.433 . S
C1893 N1896 1.384 . S
C1894 H1885 0.929 . S
C1894 C1886 1.378 . S
C1894 C1889 1.350 . S
C1895 H1882 0.929 . S
C1895 C1887 1.433 . S
C1895 N1897 1.384 . S
N1896 C1892 1.427 . S
N1896 C1893 1.384 . S
N1897 C1889 1.427 . S
N1897 C1895 1.384 . S
H1898 C1904 0.930 . S
H1899 C1908 0.930 . S
H1900 C1913 0.929 . S
H1901 C1911 0.929 . S
H1902 C1906 0.929 . S
H1903 C1912 0.929 . S
C1904 H1898 0.930 . S
C1904 C1905 1.367 . S
C1904 C1912 1.378 . S
C1905 C1904 1.367 . S
C1905 C1913 1.433 . S
C1906 H1902 0.929 . S
C1906 C1908 1.378 . S
C1906 C1910 1.350 . S
C1907 C1910 1.463 . S
C1907 C1912 1.350 . S
C1907 N1915 1.427 . S
C1908 H1899 0.930 . S
C1908 C1906 1.378 . S
C1908 C1909 1.367 . S
C1909 C1908 1.367 . S
C1909 C1911 1.433 . S
C1910 C1906 1.350 . S
C1910 C1907 1.463 . S
C1910 N1914 1.427 . S
C1911 H1901 0.929 . S
C1911 C1909 1.433 . S
C1911 N1914 1.384 . S
C1912 H1903 0.929 . S
C1912 C1904 1.378 . S
C1912 C1907 1.350 . S
C1913 H1900 0.929 . S
C1913 C1905 1.433 . S
C1913 N1915 1.384 . S
N1914 C1910 1.427 . S
N1914 C1911 1.384 . S
N1915 C1907 1.427 . S
N1915 C1913 1.384 . S
H1916 C1922 0.930 . S
H1917 C1926 0.930 . S
H1918 C1931 0.929 . S
H1919 C1929 0.929 . S
H1920 C1924 0.929 . S
H1921 C1930 0.929 . S
C1922 H1916 0.930 . S
C1922 C1923 1.367 . S
C1922 C1930 1.378 . S
C1923 C1922 1.367 . S
C1923 C1931 1.433 . S
C1924 H1920 0.929 . S
C1924 C1926 1.378 . S
C1924 C1928 1.350 . S
C1925 C1928 1.463 . S
C1925 C1930 1.350 . S
C1925 N1933 1.427 . S
C1926 H1917 0.930 . S
C1926 C1924 1.378 . S
C1926 C1927 1.367 . S
C1927 C1926 1.367 . S
C1927 C1929 1.433 . S
C1928 C1924 1.350 . S
C1928 C1925 1.463 . S
C1928 N1932 1.427 . S
C1929 H1919 0.929 . S
C1929 C1927 1.433 . S
C1929 N1932 1.384 . S
C1930 H1921 0.929 . S
C1930 C1922 1.378 . S
C1930 C1925 1.350 . S
C1931 H1918 0.929 . S
C1931 C1923 1.433 . S
C1931 N1933 1.384 . S
N1932 C1928 1.427 . S
N1932 C1929 1.384 . S
N1933 C1925 1.427 . S
N1933 C1931 1.384 . S
H1934 C1940 0.930 . S
H1935 C1944 0.930 . S
H1936 C1949 0.929 . S
H1937 C1947 0.929 1_655 S
H1938 C1942 0.929 . S
H1939 C1948 0.929 . S
C1940 H1934 0.930 . S
C1940 C1941 1.367 . S
C1940 C1948 1.378 . S
C1941 C1940 1.367 . S
C1941 C1949 1.433 . S
C1942 H1938 0.929 . S
C1942 C1944 1.378 . S
C1942 C1946 1.350 . S
C1943 C1946 1.463 . S
C1943 C1948 1.350 . S
C1943 N1951 1.427 . S
C1944 H1935 0.930 . S
C1944 C1942 1.378 . S
C1944 C1945 1.367 . S
C1945 C1944 1.367 . S
C1945 C1947 1.433 . S
C1946 C1942 1.350 . S
C1946 C1943 1.463 . S
C1946 N1950 1.427 . S
C1947 H1937 0.929 1_455 S
C1947 C1945 1.433 . S
C1947 N1950 1.384 . S
C1948 H1939 0.929 . S
C1948 C1940 1.378 . S
C1948 C1943 1.350 . S
C1949 H1936 0.929 . S
C1949 C1941 1.433 . S
C1949 N1951 1.384 . S
N1950 C1946 1.427 . S
N1950 C1947 1.384 . S
N1951 C1943 1.427 . S
N1951 C1949 1.384 . S
H1952 C1958 0.930 . S
H1953 C1962 0.930 . S
H1954 C1967 0.929 . S
H1955 C1965 0.929 . S
H1956 C1960 0.929 . S
H1957 C1966 0.929 . S
C1958 H1952 0.930 . S
C1958 C1959 1.367 . S
C1958 C1966 1.378 . S
C1959 C1958 1.367 . S
C1959 C1967 1.433 . S
C1960 H1956 0.929 . S
C1960 C1962 1.378 . S
C1960 C1964 1.350 . S
C1961 C1964 1.463 . S
C1961 C1966 1.350 . S
C1961 N1969 1.427 . S
C1962 H1953 0.930 . S
C1962 C1960 1.378 . S
C1962 C1963 1.367 . S
C1963 C1962 1.367 . S
C1963 C1965 1.433 . S
C1964 C1960 1.350 . S
C1964 C1961 1.463 . S
C1964 N1968 1.427 . S
C1965 H1955 0.929 . S
C1965 C1963 1.433 . S
C1965 N1968 1.384 . S
C1966 H1957 0.929 . S
C1966 C1958 1.378 . S
C1966 C1961 1.350 . S
C1967 H1954 0.929 . S
C1967 C1959 1.433 . S
C1967 N1969 1.384 . S
N1968 C1964 1.427 . S
N1968 C1965 1.384 . S
N1969 C1961 1.427 . S
N1969 C1967 1.384 . S
H1970 C1976 0.930 . S
H1971 C1980 0.930 . S
H1972 C1985 0.929 . S
H1973 C1983 0.929 . S
H1974 C1978 0.929 . S
H1975 C1984 0.929 . S
C1976 H1970 0.930 . S
C1976 C1977 1.367 . S
C1976 C1984 1.378 . S
C1977 C1976 1.367 . S
C1977 C1985 1.433 . S
C1978 H1974 0.929 . S
C1978 C1980 1.378 . S
C1978 C1982 1.350 . S
C1979 C1982 1.463 . S
C1979 C1984 1.350 . S
C1979 N1987 1.427 . S
C1980 H1971 0.930 . S
C1980 C1978 1.378 . S
C1980 C1981 1.367 . S
C1981 C1980 1.367 . S
C1981 C1983 1.433 . S
C1982 C1978 1.350 . S
C1982 C1979 1.463 . S
C1982 N1986 1.427 . S
C1983 H1973 0.929 . S
C1983 C1981 1.433 . S
C1983 N1986 1.384 . S
C1984 H1975 0.929 . S
C1984 C1976 1.378 . S
C1984 C1979 1.350 . S
C1985 H1972 0.929 . S
C1985 C1977 1.433 . S
C1985 N1987 1.384 . S
N1986 C1982 1.427 . S
N1986 C1983 1.384 . S
N1987 C1979 1.427 . S
N1987 C1985 1.384 . S
H1988 C1994 0.930 . S
H1989 C1998 0.930 . S
H1990 C2003 0.929 . S
H1991 C2001 0.929 . S
H1992 C1996 0.929 . S
H1993 C2002 0.929 . S
C1994 H1988 0.930 . S
C1994 C1995 1.367 . S
C1994 C2002 1.378 . S
C1995 C1994 1.367 . S
C1995 C2003 1.433 . S
C1996 H1992 0.929 . S
C1996 C1998 1.378 . S
C1996 C2000 1.350 . S
C1997 C2000 1.463 . S
C1997 C2002 1.350 . S
C1997 N2005 1.427 . S
C1998 H1989 0.930 . S
C1998 C1996 1.378 . S
C1998 C1999 1.367 . S
C1999 C1998 1.367 . S
C1999 C2001 1.433 . S
C2000 C1996 1.350 . S
C2000 C1997 1.463 . S
C2000 N2004 1.427 . S
C2001 H1991 0.929 . S
C2001 C1999 1.433 . S
C2001 N2004 1.384 . S
C2002 H1993 0.929 . S
C2002 C1994 1.378 . S
C2002 C1997 1.350 . S
C2003 H1990 0.929 . S
C2003 C1995 1.433 . S
C2003 N2005 1.384 . S
N2004 C2000 1.427 . S
N2004 C2001 1.384 . S
N2005 C1997 1.427 . S
N2005 C2003 1.384 . S
H2006 C2012 0.930 . S
H2007 C2016 0.930 . S
H2008 C2021 0.929 1_655 S
H2009 C2019 0.929 . S
H2010 C2014 0.929 . S
H2011 C2020 0.929 . S
C2012 H2006 0.930 . S
C2012 C2013 1.367 . S
C2012 C2020 1.378 . S
C2013 C2012 1.367 . S
C2013 C2021 1.433 . S
C2014 H2010 0.929 . S
C2014 C2016 1.378 . S
C2014 C2018 1.350 . S
C2015 C2018 1.463 . S
C2015 C2020 1.350 . S
C2015 N2023 1.427 . S
C2016 H2007 0.930 . S
C2016 C2014 1.378 . S
C2016 C2017 1.367 . S
C2017 C2016 1.367 . S
C2017 C2019 1.433 . S
C2018 C2014 1.350 . S
C2018 C2015 1.463 . S
C2018 N2022 1.427 . S
C2019 H2009 0.929 . S
C2019 C2017 1.433 . S
C2019 N2022 1.384 . S
C2020 H2011 0.929 . S
C2020 C2012 1.378 . S
C2020 C2015 1.350 . S
C2021 H2008 0.929 1_455 S
C2021 C2013 1.433 . S
C2021 N2023 1.384 . S
N2022 C2018 1.427 . S
N2022 C2019 1.384 . S
N2023 C2015 1.427 . S
N2023 C2021 1.384 . S
H2024 C2030 0.930 . S
H2025 C2034 0.930 . S
H2026 C2039 0.929 . S
H2027 C2037 0.929 . S
H2028 C2032 0.929 . S
H2029 C2038 0.929 . S
C2030 H2024 0.930 . S
C2030 C2031 1.367 . S
C2030 C2038 1.378 . S
C2031 C2030 1.367 . S
C2031 C2039 1.433 . S
C2032 H2028 0.929 . S
C2032 C2034 1.378 . S
C2032 C2036 1.350 . S
C2033 C2036 1.463 . S
C2033 C2038 1.350 . S
C2033 N2041 1.427 . S
C2034 H2025 0.930 . S
C2034 C2032 1.378 . S
C2034 C2035 1.367 . S
C2035 C2034 1.367 . S
C2035 C2037 1.433 . S
C2036 C2032 1.350 . S
C2036 C2033 1.463 . S
C2036 N2040 1.427 . S
C2037 H2027 0.929 . S
C2037 C2035 1.433 . S
C2037 N2040 1.384 . S
C2038 H2029 0.929 . S
C2038 C2030 1.378 . S
C2038 C2033 1.350 . S
C2039 H2026 0.929 . S
C2039 C2031 1.433 . S
C2039 N2041 1.384 . S
N2040 C2036 1.427 . S
N2040 C2037 1.384 . S
N2041 C2033 1.427 . S
N2041 C2039 1.384 . S
H2042 C2048 0.930 . S
H2043 C2052 0.930 . S
H2044 C2057 0.929 . S
H2045 C2055 0.929 . S
H2046 C2050 0.929 . S
H2047 C2056 0.929 . S
C2048 H2042 0.930 . S
C2048 C2049 1.367 . S
C2048 C2056 1.378 . S
C2049 C2048 1.367 . S
C2049 C2057 1.433 . S
C2050 H2046 0.929 . S
C2050 C2052 1.378 . S
C2050 C2054 1.350 . S
C2051 C2054 1.463 . S
C2051 C2056 1.350 . S
C2051 N2059 1.427 . S
C2052 H2043 0.930 . S
C2052 C2050 1.378 . S
C2052 C2053 1.367 . S
C2053 C2052 1.367 . S
C2053 C2055 1.433 . S
C2054 C2050 1.350 . S
C2054 C2051 1.463 . S
C2054 N2058 1.427 . S
C2055 H2045 0.929 . S
C2055 C2053 1.433 . S
C2055 N2058 1.384 . S
C2056 H2047 0.929 . S
C2056 C2048 1.378 . S
C2056 C2051 1.350 . S
C2057 H2044 0.929 . S
C2057 C2049 1.433 . S
C2057 N2059 1.384 . S
N2058 C2054 1.427 . S
N2058 C2055 1.384 . S
N2059 C2051 1.427 . S
N2059 C2057 1.384 . S
H2060 C2066 0.930 . S
H2061 C2070 0.930 . S
H2062 C2075 0.929 . S
H2063 C2073 0.929 . S
H2064 C2068 0.929 . S
H2065 C2074 0.929 . S
C2066 H2060 0.930 . S
C2066 C2067 1.367 . S
C2066 C2074 1.378 . S
C2067 C2066 1.367 . S
C2067 C2075 1.433 . S
C2068 H2064 0.929 . S
C2068 C2070 1.378 . S
C2068 C2072 1.350 . S
C2069 C2072 1.463 . S
C2069 C2074 1.350 . S
C2069 N2077 1.427 . S
C2070 H2061 0.930 . S
C2070 C2068 1.378 . S
C2070 C2071 1.367 . S
C2071 C2070 1.367 . S
C2071 C2073 1.433 . S
C2072 C2068 1.350 . S
C2072 C2069 1.463 . S
C2072 N2076 1.427 . S
C2073 H2063 0.929 . S
C2073 C2071 1.433 . S
C2073 N2076 1.384 . S
C2074 H2065 0.929 . S
C2074 C2066 1.378 . S
C2074 C2069 1.350 . S
C2075 H2062 0.929 . S
C2075 C2067 1.433 . S
C2075 N2077 1.384 . S
N2076 C2072 1.427 . S
N2076 C2073 1.384 . S
N2077 C2069 1.427 . S
N2077 C2075 1.384 . S
H2078 C2084 0.930 . S
H2079 C2088 0.930 . S
H2080 C2093 0.929 . S
H2081 C2091 0.929 . S
H2082 C2086 0.929 . S
H2083 C2092 0.929 . S
C2084 H2078 0.930 . S
C2084 C2085 1.367 . S
C2084 C2092 1.378 . S
C2085 C2084 1.367 . S
C2085 C2093 1.433 . S
C2086 H2082 0.929 . S
C2086 C2088 1.378 . S
C2086 C2090 1.350 . S
C2087 C2090 1.463 . S
C2087 C2092 1.350 . S
C2087 N2095 1.427 . S
C2088 H2079 0.930 . S
C2088 C2086 1.378 . S
C2088 C2089 1.367 . S
C2089 C2088 1.367 . S
C2089 C2091 1.433 . S
C2090 C2086 1.350 . S
C2090 C2087 1.463 . S
C2090 N2094 1.427 . S
C2091 H2081 0.929 . S
C2091 C2089 1.433 . S
C2091 N2094 1.384 . S
C2092 H2083 0.929 . S
C2092 C2084 1.378 . S
C2092 C2087 1.350 . S
C2093 H2080 0.929 . S
C2093 C2085 1.433 . S
C2093 N2095 1.384 . S
N2094 C2090 1.427 . S
N2094 C2091 1.384 . S
N2095 C2087 1.427 . S
N2095 C2093 1.384 . S
H2096 C2102 0.930 . S
H2097 C2106 0.930 . S
H2098 C2111 0.929 . S
H2099 C2109 0.929 . S
H2100 C2104 0.929 . S
H2101 C2110 0.929 . S
C2102 H2096 0.930 . S
C2102 C2103 1.367 . S
C2102 C2110 1.378 . S
C2103 C2102 1.367 . S
C2103 C2111 1.433 . S
C2104 H2100 0.929 . S
C2104 C2106 1.378 . S
C2104 C2108 1.350 . S
C2105 C2108 1.463 . S
C2105 C2110 1.350 . S
C2105 N2113 1.427 . S
C2106 H2097 0.930 . S
C2106 C2104 1.378 . S
C2106 C2107 1.367 . S
C2107 C2106 1.367 . S
C2107 C2109 1.433 . S
C2108 C2104 1.350 . S
C2108 C2105 1.463 . S
C2108 N2112 1.427 . S
C2109 H2099 0.929 . S
C2109 C2107 1.433 . S
C2109 N2112 1.384 . S
C2110 H2101 0.929 . S
C2110 C2102 1.378 . S
C2110 C2105 1.350 . S
C2111 H2098 0.929 . S
C2111 C2103 1.433 . S
C2111 N2113 1.384 . S
N2112 C2108 1.427 . S
N2112 C2109 1.384 . S
N2113 C2105 1.427 . S
N2113 C2111 1.384 . S
H2114 C2120 0.930 . S
H2115 C2124 0.930 . S
H2116 C2129 0.929 . S
H2117 C2127 0.929 . S
H2118 C2122 0.929 . S
H2119 C2128 0.929 . S
C2120 H2114 0.930 . S
C2120 C2121 1.367 . S
C2120 C2128 1.378 . S
C2121 C2120 1.367 . S
C2121 C2129 1.433 . S
C2122 H2118 0.929 . S
C2122 C2124 1.378 . S
C2122 C2126 1.350 . S
C2123 C2126 1.463 . S
C2123 C2128 1.350 . S
C2123 N2131 1.427 . S
C2124 H2115 0.930 . S
C2124 C2122 1.378 . S
C2124 C2125 1.367 . S
C2125 C2124 1.367 . S
C2125 C2127 1.433 . S
C2126 C2122 1.350 . S
C2126 C2123 1.463 . S
C2126 N2130 1.427 . S
C2127 H2117 0.929 . S
C2127 C2125 1.433 . S
C2127 N2130 1.384 . S
C2128 H2119 0.929 . S
C2128 C2120 1.378 . S
C2128 C2123 1.350 . S
C2129 H2116 0.929 . S
C2129 C2121 1.433 . S
C2129 N2131 1.384 . S
N2130 C2126 1.427 . S
N2130 C2127 1.384 . S
N2131 C2123 1.427 . S
N2131 C2129 1.384 . S
H2132 C2138 0.930 . S
H2133 C2142 0.930 . S
H2134 C2147 0.929 . S
H2135 C2145 0.929 . S
H2136 C2140 0.929 . S
H2137 C2146 0.929 . S
C2138 H2132 0.930 . S
C2138 C2139 1.367 . S
C2138 C2146 1.378 . S
C2139 C2138 1.367 . S
C2139 C2147 1.433 . S
C2140 H2136 0.929 . S
C2140 C2142 1.378 . S
C2140 C2144 1.350 . S
C2141 C2144 1.463 . S
C2141 C2146 1.350 . S
C2141 N2149 1.427 . S
C2142 H2133 0.930 . S
C2142 C2140 1.378 . S
C2142 C2143 1.367 . S
C2143 C2142 1.367 . S
C2143 C2145 1.433 . S
C2144 C2140 1.350 . S
C2144 C2141 1.463 . S
C2144 N2148 1.427 . S
C2145 H2135 0.929 . S
C2145 C2143 1.433 . S
C2145 N2148 1.384 . S
C2146 H2137 0.929 . S
C2146 C2138 1.378 . S
C2146 C2141 1.350 . S
C2147 H2134 0.929 . S
C2147 C2139 1.433 . S
C2147 N2149 1.384 . S
N2148 C2144 1.427 . S
N2148 C2145 1.384 . S
N2149 C2141 1.427 . S
N2149 C2147 1.384 . S
H2150 C2156 0.930 . S
H2151 C2160 0.930 . S
H2152 C2165 0.929 . S
H2153 C2163 0.929 1_455 S
H2154 C2158 0.929 . S
H2155 C2164 0.929 . S
C2156 H2150 0.930 . S
C2156 C2157 1.367 . S
C2156 C2164 1.378 . S
C2157 C2156 1.367 . S
C2157 C2165 1.433 . S
C2158 H2154 0.929 . S
C2158 C2160 1.378 . S
C2158 C2162 1.350 . S
C2159 C2162 1.463 . S
C2159 C2164 1.350 . S
C2159 N2167 1.427 . S
C2160 H2151 0.930 . S
C2160 C2158 1.378 . S
C2160 C2161 1.367 . S
C2161 C2160 1.367 . S
C2161 C2163 1.433 . S
C2162 C2158 1.350 . S
C2162 C2159 1.463 . S
C2162 N2166 1.427 . S
C2163 H2153 0.929 1_655 S
C2163 C2161 1.433 . S
C2163 N2166 1.384 . S
C2164 H2155 0.929 . S
C2164 C2156 1.378 . S
C2164 C2159 1.350 . S
C2165 H2152 0.929 . S
C2165 C2157 1.433 . S
C2165 N2167 1.384 . S
N2166 C2162 1.427 . S
N2166 C2163 1.384 . S
N2167 C2159 1.427 . S
N2167 C2165 1.384 . S
H2168 C2174 0.930 . S
H2169 C2178 0.930 . S
H2170 C2183 0.929 . S
H2171 C2181 0.929 . S
H2172 C2176 0.929 . S
H2173 C2182 0.929 . S
C2174 H2168 0.930 . S
C2174 C2175 1.367 . S
C2174 C2182 1.378 . S
C2175 C2174 1.367 . S
C2175 C2183 1.433 . S
C2176 H2172 0.929 . S
C2176 C2178 1.378 . S
C2176 C2180 1.350 . S
C2177 C2180 1.463 . S
C2177 C2182 1.350 . S
C2177 N2185 1.427 . S
C2178 H2169 0.930 . S
C2178 C2176 1.378 . S
C2178 C2179 1.367 . S
C2179 C2178 1.367 . S
C2179 C2181 1.433 . S
C2180 C2176 1.350 . S
C2180 C2177 1.463 . S
C2180 N2184 1.427 . S
C2181 H2171 0.929 . S
C2181 C2179 1.433 . S
C2181 N2184 1.384 . S
C2182 H2173 0.929 . S
C2182 C2174 1.378 . S
C2182 C2177 1.350 . S
C2183 H2170 0.929 . S
C2183 C2175 1.433 . S
C2183 N2185 1.384 . S
N2184 C2180 1.427 . S
N2184 C2181 1.384 . S
N2185 C2177 1.427 . S
N2185 C2183 1.384 . S
H2186 C2192 0.930 . S
H2187 C2196 0.930 . S
H2188 C2201 0.929 . S
H2189 C2199 0.929 . S
H2190 C2194 0.929 . S
H2191 C2200 0.929 . S
C2192 H2186 0.930 . S
C2192 C2193 1.367 . S
C2192 C2200 1.378 . S
C2193 C2192 1.367 . S
C2193 C2201 1.433 . S
C2194 H2190 0.929 . S
C2194 C2196 1.378 . S
C2194 C2198 1.350 . S
C2195 C2198 1.463 . S
C2195 C2200 1.350 . S
C2195 N2203 1.427 . S
C2196 H2187 0.930 . S
C2196 C2194 1.378 . S
C2196 C2197 1.367 . S
C2197 C2196 1.367 . S
C2197 C2199 1.433 . S
C2198 C2194 1.350 . S
C2198 C2195 1.463 . S
C2198 N2202 1.427 . S
C2199 H2189 0.929 . S
C2199 C2197 1.433 . S
C2199 N2202 1.384 . S
C2200 H2191 0.929 . S
C2200 C2192 1.378 . S
C2200 C2195 1.350 . S
C2201 H2188 0.929 . S
C2201 C2193 1.433 . S
C2201 N2203 1.384 . S
N2202 C2198 1.427 . S
N2202 C2199 1.384 . S
N2203 C2195 1.427 . S
N2203 C2201 1.384 . S
H2204 C2210 0.930 . S
H2205 C2214 0.930 . S
H2206 C2219 0.929 . S
H2207 C2217 0.929 . S
H2208 C2212 0.929 . S
H2209 C2218 0.929 . S
C2210 H2204 0.930 . S
C2210 C2211 1.367 . S
C2210 C2218 1.378 . S
C2211 C2210 1.367 . S
C2211 C2219 1.433 . S
C2212 H2208 0.929 . S
C2212 C2214 1.378 . S
C2212 C2216 1.350 . S
C2213 C2216 1.463 . S
C2213 C2218 1.350 . S
C2213 N2221 1.427 . S
C2214 H2205 0.930 . S
C2214 C2212 1.378 . S
C2214 C2215 1.367 . S
C2215 C2214 1.367 . S
C2215 C2217 1.433 . S
C2216 C2212 1.350 . S
C2216 C2213 1.463 . S
C2216 N2220 1.427 . S
C2217 H2207 0.929 . S
C2217 C2215 1.433 . S
C2217 N2220 1.384 . S
C2218 H2209 0.929 . S
C2218 C2210 1.378 . S
C2218 C2213 1.350 . S
C2219 H2206 0.929 . S
C2219 C2211 1.433 . S
C2219 N2221 1.384 . S
N2220 C2216 1.427 . S
N2220 C2217 1.384 . S
N2221 C2213 1.427 . S
N2221 C2219 1.384 . S
H2222 C2228 0.930 . S
H2223 C2232 0.930 . S
H2224 C2237 0.929 . S
H2225 C2235 0.929 . S
H2226 C2230 0.929 . S
H2227 C2236 0.929 . S
C2228 H2222 0.930 . S
C2228 C2229 1.367 . S
C2228 C2236 1.378 . S
C2229 C2228 1.367 . S
C2229 C2237 1.433 . S
C2230 H2226 0.929 . S
C2230 C2232 1.378 . S
C2230 C2234 1.350 . S
C2231 C2234 1.463 . S
C2231 C2236 1.350 . S
C2231 N2239 1.427 . S
C2232 H2223 0.930 . S
C2232 C2230 1.378 . S
C2232 C2233 1.367 . S
C2233 C2232 1.367 . S
C2233 C2235 1.433 . S
C2234 C2230 1.350 . S
C2234 C2231 1.463 . S
C2234 N2238 1.427 . S
C2235 H2225 0.929 . S
C2235 C2233 1.433 . S
C2235 N2238 1.384 . S
C2236 H2227 0.929 . S
C2236 C2228 1.378 . S
C2236 C2231 1.350 . S
C2237 H2224 0.929 . S
C2237 C2229 1.433 . S
C2237 N2239 1.384 . S
N2238 C2234 1.427 . S
N2238 C2235 1.384 . S
N2239 C2231 1.427 . S
N2239 C2237 1.384 . S
H2240 C2246 0.930 . S
H2241 C2250 0.930 . S
H2242 C2255 0.929 . S
H2243 C2253 0.929 . S
H2244 C2248 0.929 . S
H2245 C2254 0.929 . S
C2246 H2240 0.930 . S
C2246 C2247 1.367 . S
C2246 C2254 1.378 . S
C2247 C2246 1.367 . S
C2247 C2255 1.433 . S
C2248 H2244 0.929 . S
C2248 C2250 1.378 . S
C2248 C2252 1.350 . S
C2249 C2252 1.463 . S
C2249 C2254 1.350 . S
C2249 N2257 1.427 . S
C2250 H2241 0.930 . S
C2250 C2248 1.378 . S
C2250 C2251 1.367 . S
C2251 C2250 1.367 . S
C2251 C2253 1.433 . S
C2252 C2248 1.350 . S
C2252 C2249 1.463 . S
C2252 N2256 1.427 . S
C2253 H2243 0.929 . S
C2253 C2251 1.433 . S
C2253 N2256 1.384 . S
C2254 H2245 0.929 . S
C2254 C2246 1.378 . S
C2254 C2249 1.350 . S
C2255 H2242 0.929 . S
C2255 C2247 1.433 . S
C2255 N2257 1.384 . S
N2256 C2252 1.427 . S
N2256 C2253 1.384 . S
N2257 C2249 1.427 . S
N2257 C2255 1.384 . S
H2258 C2264 0.930 . S
H2259 C2268 0.930 . S
H2260 C2273 0.929 . S
H2261 C2271 0.929 . S
H2262 C2266 0.929 1_565 S
H2263 C2272 0.929 1_545 S
C2264 H2258 0.930 . S
C2264 C2265 1.367 . S
C2264 C2272 1.378 . S
C2265 C2264 1.367 . S
C2265 C2273 1.433 . S
C2266 H2262 0.929 1_545 S
C2266 C2268 1.378 . S
C2266 C2270 1.350 . S
C2267 C2270 1.463 1_465 S
C2267 C2272 1.350 . S
C2267 N2275 1.427 . S
C2268 H2259 0.930 . S
C2268 C2266 1.378 . S
C2268 C2269 1.367 . S
C2269 C2268 1.367 . S
C2269 C2271 1.433 . S
C2270 C2266 1.350 . S
C2270 C2267 1.463 1_645 S
C2270 N2274 1.427 . S
C2271 H2261 0.929 . S
C2271 C2269 1.433 . S
C2271 N2274 1.384 . S
C2272 H2263 0.929 1_565 S
C2272 C2264 1.378 . S
C2272 C2267 1.350 . S
C2273 H2260 0.929 . S
C2273 C2265 1.433 . S
C2273 N2275 1.384 . S
N2274 C2270 1.427 . S
N2274 C2271 1.384 . S
N2275 C2267 1.427 . S
N2275 C2273 1.384 . S
H2276 C2282 0.930 . S
H2277 C2286 0.930 . S
H2278 C2291 0.929 . S
H2279 C2289 0.929 . S
H2280 C2284 0.929 . S
H2281 C2290 0.929 . S
C2282 H2276 0.930 . S
C2282 C2283 1.367 . S
C2282 C2290 1.378 . S
C2283 C2282 1.367 . S
C2283 C2291 1.433 . S
C2284 H2280 0.929 . S
C2284 C2286 1.378 . S
C2284 C2288 1.350 . S
C2285 C2288 1.463 . S
C2285 C2290 1.350 . S
C2285 N2293 1.427 . S
C2286 H2277 0.930 . S
C2286 C2284 1.378 . S
C2286 C2287 1.367 . S
C2287 C2286 1.367 . S
C2287 C2289 1.433 . S
C2288 C2284 1.350 . S
C2288 C2285 1.463 . S
C2288 N2292 1.427 . S
C2289 H2279 0.929 . S
C2289 C2287 1.433 . S
C2289 N2292 1.384 . S
C2290 H2281 0.929 . S
C2290 C2282 1.378 . S
C2290 C2285 1.350 . S
C2291 H2278 0.929 . S
C2291 C2283 1.433 . S
C2291 N2293 1.384 . S
N2292 C2288 1.427 . S
N2292 C2289 1.384 . S
N2293 C2285 1.427 . S
N2293 C2291 1.384 . S
H2294 C2300 0.930 . S
H2295 C2304 0.930 . S
H2296 C2309 0.929 . S
H2297 C2307 0.929 . S
H2298 C2302 0.929 1_565 S
H2299 C2308 0.929 1_545 S
C2300 H2294 0.930 . S
C2300 C2301 1.367 . S
C2300 C2308 1.378 . S
C2301 C2300 1.367 . S
C2301 C2309 1.433 . S
C2302 H2298 0.929 1_545 S
C2302 C2304 1.378 . S
C2302 C2306 1.350 . S
C2303 C2306 1.463 1_566 S
C2303 C2308 1.350 . S
C2303 N2311 1.427 . S
C2304 H2295 0.930 . S
C2304 C2302 1.378 . S
C2304 C2305 1.367 . S
C2305 C2304 1.367 . S
C2305 C2307 1.433 . S
C2306 C2302 1.350 . S
C2306 C2303 1.463 1_544 S
C2306 N2310 1.427 . S
C2307 H2297 0.929 . S
C2307 C2305 1.433 . S
C2307 N2310 1.384 . S
C2308 H2299 0.929 1_565 S
C2308 C2300 1.378 . S
C2308 C2303 1.350 . S
C2309 H2296 0.929 . S
C2309 C2301 1.433 . S
C2309 N2311 1.384 . S
N2310 C2306 1.427 . S
N2310 C2307 1.384 . S
N2311 C2303 1.427 . S
N2311 C2309 1.384 . S
H2312 C2318 0.930 . S
H2313 C2322 0.930 . S
H2314 C2327 0.929 . S
H2315 C2325 0.929 . S
H2316 C2320 0.929 . S
H2317 C2326 0.929 . S
C2318 H2312 0.930 . S
C2318 C2319 1.367 . S
C2318 C2326 1.378 . S
C2319 C2318 1.367 . S
C2319 C2327 1.433 . S
C2320 H2316 0.929 . S
C2320 C2322 1.378 . S
C2320 C2324 1.350 . S
C2321 C2324 1.463 . S
C2321 C2326 1.350 . S
C2321 N2329 1.427 . S
C2322 H2313 0.930 . S
C2322 C2320 1.378 . S
C2322 C2323 1.367 . S
C2323 C2322 1.367 . S
C2323 C2325 1.433 . S
C2324 C2320 1.350 . S
C2324 C2321 1.463 . S
C2324 N2328 1.427 . S
C2325 H2315 0.929 . S
C2325 C2323 1.433 . S
C2325 N2328 1.384 . S
C2326 H2317 0.929 . S
C2326 C2318 1.378 . S
C2326 C2321 1.350 . S
C2327 H2314 0.929 . S
C2327 C2319 1.433 . S
C2327 N2329 1.384 . S
N2328 C2324 1.427 . S
N2328 C2325 1.384 . S
N2329 C2321 1.427 . S
N2329 C2327 1.384 . S
H2330 C2336 0.930 . S
H2331 C2340 0.930 . S
H2332 C2345 0.929 . S
H2333 C2343 0.929 . S
H2334 C2338 0.929 . S
H2335 C2344 0.929 . S
C2336 H2330 0.930 . S
C2336 C2337 1.367 . S
C2336 C2344 1.378 . S
C2337 C2336 1.367 . S
C2337 C2345 1.433 . S
C2338 H2334 0.929 . S
C2338 C2340 1.378 . S
C2338 C2342 1.350 . S
C2339 C2342 1.463 1_545 S
C2339 C2344 1.350 . S
C2339 N2347 1.427 . S
C2340 H2331 0.930 . S
C2340 C2338 1.378 . S
C2340 C2341 1.367 . S
C2341 C2340 1.367 . S
C2341 C2343 1.433 . S
C2342 C2338 1.350 . S
C2342 C2339 1.463 1_565 S
C2342 N2346 1.427 . S
C2343 H2333 0.929 . S
C2343 C2341 1.433 . S
C2343 N2346 1.384 . S
C2344 H2335 0.929 . S
C2344 C2336 1.378 . S
C2344 C2339 1.350 . S
C2345 H2332 0.929 . S
C2345 C2337 1.433 . S
C2345 N2347 1.384 . S
N2346 C2342 1.427 . S
N2346 C2343 1.384 . S
N2347 C2339 1.427 . S
N2347 C2345 1.384 . S
H2348 C2354 0.930 . S
H2349 C2358 0.930 . S
H2350 C2363 0.929 . S
H2351 C2361 0.929 . S
H2352 C2356 0.929 . S
H2353 C2362 0.929 . S
C2354 H2348 0.930 . S
C2354 C2355 1.367 . S
C2354 C2362 1.378 . S
C2355 C2354 1.367 . S
C2355 C2363 1.433 . S
C2356 H2352 0.929 . S
C2356 C2358 1.378 . S
C2356 C2360 1.350 . S
C2357 C2360 1.463 . S
C2357 C2362 1.350 . S
C2357 N2365 1.427 . S
C2358 H2349 0.930 . S
C2358 C2356 1.378 . S
C2358 C2359 1.367 . S
C2359 C2358 1.367 . S
C2359 C2361 1.433 . S
C2360 C2356 1.350 . S
C2360 C2357 1.463 . S
C2360 N2364 1.427 . S
C2361 H2351 0.929 . S
C2361 C2359 1.433 . S
C2361 N2364 1.384 . S
C2362 H2353 0.929 . S
C2362 C2354 1.378 . S
C2362 C2357 1.350 . S
C2363 H2350 0.929 . S
C2363 C2355 1.433 . S
C2363 N2365 1.384 . S
N2364 C2360 1.427 . S
N2364 C2361 1.384 . S
N2365 C2357 1.427 . S
N2365 C2363 1.384 . S
H2366 C2372 0.930 . S
H2367 C2376 0.930 . S
H2368 C2381 0.929 . S
H2369 C2379 0.929 . S
H2370 C2374 0.929 . S
H2371 C2380 0.929 . S
C2372 H2366 0.930 . S
C2372 C2373 1.367 . S
C2372 C2380 1.378 . S
C2373 C2372 1.367 . S
C2373 C2381 1.433 1_554 S
C2374 H2370 0.929 . S
C2374 C2376 1.378 . S
C2374 C2378 1.350 . S
C2375 C2378 1.463 1_664 S
C2375 C2380 1.350 . S
C2375 N2383 1.427 1_554 S
C2376 H2367 0.930 . S
C2376 C2374 1.378 . S
C2376 C2377 1.367 . S
C2377 C2376 1.367 . S
C2377 C2379 1.433 1_556 S
C2378 C2374 1.350 . S
C2378 C2375 1.463 1_446 S
C2378 N2382 1.427 1_556 S
C2379 H2369 0.929 . S
C2379 C2377 1.433 1_554 S
C2379 N2382 1.384 . S
C2380 H2371 0.929 . S
C2380 C2372 1.378 . S
C2380 C2375 1.350 . S
C2381 H2368 0.929 . S
C2381 C2373 1.433 1_556 S
C2381 N2383 1.384 . S
N2382 C2378 1.427 1_554 S
N2382 C2379 1.384 . S
N2383 C2375 1.427 1_556 S
N2383 C2381 1.384 . S
H2384 C2390 0.930 . S
H2385 C2394 0.930 . S
H2386 C2399 0.929 . S
H2387 C2397 0.929 . S
H2388 C2392 0.929 . S
H2389 C2398 0.929 . S
C2390 H2384 0.930 . S
C2390 C2391 1.367 . S
C2390 C2398 1.378 . S
C2391 C2390 1.367 . S
C2391 C2399 1.433 . S
C2392 H2388 0.929 . S
C2392 C2394 1.378 . S
C2392 C2396 1.350 . S
C2393 C2396 1.463 . S
C2393 C2398 1.350 . S
C2393 N2401 1.427 . S
C2394 H2385 0.930 . S
C2394 C2392 1.378 . S
C2394 C2395 1.367 . S
C2395 C2394 1.367 . S
C2395 C2397 1.433 . S
C2396 C2392 1.350 . S
C2396 C2393 1.463 . S
C2396 N2400 1.427 . S
C2397 H2387 0.929 . S
C2397 C2395 1.433 . S
C2397 N2400 1.384 . S
C2398 H2389 0.929 . S
C2398 C2390 1.378 . S
C2398 C2393 1.350 . S
C2399 H2386 0.929 . S
C2399 C2391 1.433 . S
C2399 N2401 1.384 . S
N2400 C2396 1.427 . S
N2400 C2397 1.384 . S
N2401 C2393 1.427 . S
N2401 C2399 1.384 . S
H2402 C2408 0.930 . S
H2403 C2412 0.930 . S
H2404 C2417 0.929 . S
H2405 C2415 0.929 . S
H2406 C2410 0.929 . S
H2407 C2416 0.929 . S
C2408 H2402 0.930 . S
C2408 C2409 1.367 . S
C2408 C2416 1.378 . S
C2409 C2408 1.367 . S
C2409 C2417 1.433 . S
C2410 H2406 0.929 . S
C2410 C2412 1.378 . S
C2410 C2414 1.350 . S
C2411 C2414 1.463 . S
C2411 C2416 1.350 . S
C2411 N2419 1.427 . S
C2412 H2403 0.930 . S
C2412 C2410 1.378 . S
C2412 C2413 1.367 . S
C2413 C2412 1.367 . S
C2413 C2415 1.433 . S
C2414 C2410 1.350 . S
C2414 C2411 1.463 . S
C2414 N2418 1.427 . S
C2415 H2405 0.929 . S
C2415 C2413 1.433 . S
C2415 N2418 1.384 . S
C2416 H2407 0.929 . S
C2416 C2408 1.378 . S
C2416 C2411 1.350 . S
C2417 H2404 0.929 . S
C2417 C2409 1.433 . S
C2417 N2419 1.384 . S
N2418 C2414 1.427 . S
N2418 C2415 1.384 . S
N2419 C2411 1.427 . S
N2419 C2417 1.384 . S
H2420 C2426 0.930 . S
H2421 C2430 0.930 . S
H2422 C2435 0.929 . S
H2423 C2433 0.929 . S
H2424 C2428 0.929 . S
H2425 C2434 0.929 . S
C2426 H2420 0.930 . S
C2426 C2427 1.367 . S
C2426 C2434 1.378 . S
C2427 C2426 1.367 . S
C2427 C2435 1.433 . S
C2428 H2424 0.929 . S
C2428 C2430 1.378 . S
C2428 C2432 1.350 . S
C2429 C2432 1.463 . S
C2429 C2434 1.350 . S
C2429 N2437 1.427 . S
C2430 H2421 0.930 . S
C2430 C2428 1.378 . S
C2430 C2431 1.367 . S
C2431 C2430 1.367 . S
C2431 C2433 1.433 . S
C2432 C2428 1.350 . S
C2432 C2429 1.463 . S
C2432 N2436 1.427 . S
C2433 H2423 0.929 . S
C2433 C2431 1.433 . S
C2433 N2436 1.384 . S
C2434 H2425 0.929 . S
C2434 C2426 1.378 . S
C2434 C2429 1.350 . S
C2435 H2422 0.929 . S
C2435 C2427 1.433 . S
C2435 N2437 1.384 . S
N2436 C2432 1.427 . S
N2436 C2433 1.384 . S
N2437 C2429 1.427 . S
N2437 C2435 1.384 . S
H2438 C2444 0.930 . S
H2439 C2448 0.930 . S
H2440 C2453 0.929 . S
H2441 C2451 0.929 . S
H2442 C2446 0.929 . S
H2443 C2452 0.929 . S
C2444 H2438 0.930 . S
C2444 C2445 1.367 . S
C2444 C2452 1.378 . S
C2445 C2444 1.367 . S
C2445 C2453 1.433 . S
C2446 H2442 0.929 . S
C2446 C2448 1.378 . S
C2446 C2450 1.350 . S
C2447 C2450 1.463 . S
C2447 C2452 1.350 . S
C2447 N2455 1.427 . S
C2448 H2439 0.930 . S
C2448 C2446 1.378 . S
C2448 C2449 1.367 . S
C2449 C2448 1.367 . S
C2449 C2451 1.433 . S
C2450 C2446 1.350 . S
C2450 C2447 1.463 . S
C2450 N2454 1.427 . S
C2451 H2441 0.929 . S
C2451 C2449 1.433 . S
C2451 N2454 1.384 . S
C2452 H2443 0.929 . S
C2452 C2444 1.378 . S
C2452 C2447 1.350 . S
C2453 H2440 0.929 . S
C2453 C2445 1.433 . S
C2453 N2455 1.384 . S
N2454 C2450 1.427 . S
N2454 C2451 1.384 . S
N2455 C2447 1.427 . S
N2455 C2453 1.384 . S
H2456 C2462 0.930 . S
H2457 C2466 0.930 . S
H2458 C2471 0.929 . S
H2459 C2469 0.929 . S
H2460 C2464 0.929 . S
H2461 C2470 0.929 . S
C2462 H2456 0.930 . S
C2462 C2463 1.367 . S
C2462 C2470 1.378 . S
C2463 C2462 1.367 . S
C2463 C2471 1.433 1_556 S
C2464 H2460 0.929 . S
C2464 C2466 1.378 . S
C2464 C2468 1.350 . S
C2465 C2468 1.463 1_556 S
C2465 C2470 1.350 . S
C2465 N2473 1.427 1_556 S
C2466 H2457 0.930 . S
C2466 C2464 1.378 . S
C2466 C2467 1.367 . S
C2467 C2466 1.367 . S
C2467 C2469 1.433 1_554 S
C2468 C2464 1.350 . S
C2468 C2465 1.463 1_554 S
C2468 N2472 1.427 1_554 S
C2469 H2459 0.929 . S
C2469 C2467 1.433 1_556 S
C2469 N2472 1.384 . S
C2470 H2461 0.929 . S
C2470 C2462 1.378 . S
C2470 C2465 1.350 . S
C2471 H2458 0.929 . S
C2471 C2463 1.433 1_554 S
C2471 N2473 1.384 . S
N2472 C2468 1.427 1_556 S
N2472 C2469 1.384 . S
N2473 C2465 1.427 1_554 S
N2473 C2471 1.384 . S
H2474 C2480 0.930 . S
H2475 C2484 0.930 . S
H2476 C2489 0.929 . S
H2477 C2487 0.929 . S
H2478 C2482 0.929 . S
H2479 C2488 0.929 . S
C2480 H2474 0.930 . S
C2480 C2481 1.367 . S
C2480 C2488 1.378 . S
C2481 C2480 1.367 . S
C2481 C2489 1.433 . S
C2482 H2478 0.929 . S
C2482 C2484 1.378 . S
C2482 C2486 1.350 . S
C2483 C2486 1.463 1_655 S
C2483 C2488 1.350 . S
C2483 N2491 1.427 . S
C2484 H2475 0.930 . S
C2484 C2482 1.378 . S
C2484 C2485 1.367 . S
C2485 C2484 1.367 . S
C2485 C2487 1.433 . S
C2486 C2482 1.350 . S
C2486 C2483 1.463 1_455 S
C2486 N2490 1.427 . S
C2487 H2477 0.929 . S
C2487 C2485 1.433 . S
C2487 N2490 1.384 . S
C2488 H2479 0.929 . S
C2488 C2480 1.378 . S
C2488 C2483 1.350 . S
C2489 H2476 0.929 . S
C2489 C2481 1.433 . S
C2489 N2491 1.384 . S
N2490 C2486 1.427 . S
N2490 C2487 1.384 . S
N2491 C2483 1.427 . S
N2491 C2489 1.384 . S
H2492 C2498 0.933 1_556 S
H2493 C2502 0.933 1_554 S
H2494 C2507 0.929 . S
H2495 C2505 0.929 . S
H2496 C2500 0.929 . S
H2497 C2506 0.929 . S
C2498 H2492 0.933 1_554 S
C2498 C2499 1.362 . S
C2498 C2506 1.380 1_554 S
C2499 C2498 1.362 . S
C2499 C2507 1.433 . S
C2500 H2496 0.929 . S
C2500 C2502 1.380 1_554 S
C2500 C2504 1.350 1_554 S
C2501 C2504 1.463 1_454 S
C2501 C2506 1.350 1_554 S
C2501 N2509 1.427 1_455 S
C2502 H2493 0.933 1_556 S
C2502 C2500 1.380 1_556 S
C2502 C2503 1.362 . S
C2503 C2502 1.362 . S
C2503 C2505 1.433 . S
C2504 C2500 1.350 1_556 S
C2504 C2501 1.463 1_656 S
C2504 N2508 1.427 1_655 S
C2505 H2495 0.929 . S
C2505 C2503 1.433 . S
C2505 N2508 1.384 1_655 S
C2506 H2497 0.929 . S
C2506 C2498 1.380 1_556 S
C2506 C2501 1.350 1_556 S
C2507 H2494 0.929 . S
C2507 C2499 1.433 . S
C2507 N2509 1.384 1_455 S
N2508 C2504 1.427 1_455 S
N2508 C2505 1.384 1_455 S
N2509 C2501 1.427 1_655 S
N2509 C2507 1.384 1_655 S
H2510 C2516 0.930 . S
H2511 C2520 0.930 . S
H2512 C2525 0.929 . S
H2513 C2523 0.929 . S
H2514 C2518 0.929 . S
H2515 C2524 0.929 . S
C2516 H2510 0.930 . S
C2516 C2517 1.367 . S
C2516 C2524 1.378 . S
C2517 C2516 1.367 . S
C2517 C2525 1.433 . S
C2518 H2514 0.929 . S
C2518 C2520 1.378 . S
C2518 C2522 1.350 . S
C2519 C2522 1.463 . S
C2519 C2524 1.350 . S
C2519 N2527 1.427 . S
C2520 H2511 0.930 . S
C2520 C2518 1.378 . S
C2520 C2521 1.367 . S
C2521 C2520 1.367 . S
C2521 C2523 1.433 . S
C2522 C2518 1.350 . S
C2522 C2519 1.463 . S
C2522 N2526 1.427 . S
C2523 H2513 0.929 . S
C2523 C2521 1.433 . S
C2523 N2526 1.384 . S
C2524 H2515 0.929 . S
C2524 C2516 1.378 . S
C2524 C2519 1.350 . S
C2525 H2512 0.929 . S
C2525 C2517 1.433 . S
C2525 N2527 1.384 . S
N2526 C2522 1.427 . S
N2526 C2523 1.384 . S
N2527 C2519 1.427 . S
N2527 C2525 1.384 . S
C1095 C247 1.604 . S
C1099 C9 1.600 . S
C1113 C43 1.606 . S
C1117 C145 1.602 . S
C1131 C77 1.604 . S
C1135 C179 1.605 . S
C1149 C213 1.601 . S
C1153 C111 1.601 . S
C1167 C519 1.604 . S
C1171 C281 1.605 . S
C1185 C417 1.600 . S
C1189 C315 1.603 . S
C1203 C349 1.601 . S
C1207 C451 1.606 . S
C1221 C383 1.604 . S
C1225 C485 1.606 . S
C1239 C791 1.602 . S
C1243 C553 1.600 . S
C1257 C587 1.605 . S
C1261 C689 1.604 . S
C1275 C621 1.600 . S
C1279 C723 1.601 . S
C1293 C757 1.601 . S
C1297 C655 1.601 . S
C1311 C1063 1.604 . S
C1315 C825 1.600 . S
C1329 C859 1.605 . S
C1333 C961 1.605 . S
C1347 C995 1.603 . S
C1351 C893 1.600 . S
C1365 C1029 1.600 . S
C1369 C927 1.605 . S
C1383 C614 1.172 . S
C1387 C2 1.167 . S
C1401 C648 1.169 . S
C1405 C36 1.173 . S
C1419 C70 1.172 . S
C1423 C546 1.167 . S
C1437 C104 1.174 . S
C1441 C580 1.166 . S
C1455 C750 1.174 . S
C1459 C138 1.166 . S
C1473 C784 1.169 . S
C1477 C172 1.174 . S
C1491 C206 1.173 . S
C1495 C682 1.167 . S
C1509 C240 1.174 . S
C1513 C716 1.167 . S
C1527 C274 1.166 . S
C1531 C886 1.173 . S
C1545 C920 1.172 . S
C1549 C308 1.167 . S
C1563 C818 1.169 . S
C1567 C342 1.174 . S
C1581 C376 1.173 . S
C1585 C852 1.166 . S
C1599 C410 1.169 . S
C1603 C1022 1.174 . S
C1617 C1056 1.174 . S
C1621 C444 1.166 . S
C1635 C954 1.174 . S
C1639 C478 1.166 . S
C1653 C988 1.167 . S
C1657 C512 1.174 . S
C1671 C5 1.009 . S
C1675 C951 1.002 . S
C1689 C305 1.000 . S
C1693 C39 1.008 . S
C1707 C883 0.982 . S
C1711 C73 1.011 . S
C1725 C107 1.007 . S
C1729 C373 0.999 . S
C1743 C1019 1.003 . S
C1747 C141 1.017 . S
C1761 C509 1.004 . S
C1765 C175 1.012 . S
C1779 C209 1.021 . S
C1783 C1087 0.999 . S
C1797 C243 1.019 . S
C1801 C441 0.977 . S
C1815 C277 1.023 . S
C1819 C679 0.996 . S
C1833 C311 1.007 . S
C1837 C33 0.998 . S
C1851 C611 0.983 . S
C1855 C345 1.024 . S
C1869 C379 1.010 . S
C1873 C101 0.983 . S
C1887 C747 0.995 . S
C1891 C413 1.007 . S
C1905 C447 1.024 . S
C1909 C237 0.982 . S
C1923 C481 1.020 . S
C1927 C815 1.000 . S
C1941 C169 0.978 . S
C1945 C515 1.014 . S
C1959 C549 1.024 . S
C1963 C407 0.982 . S
C1977 C849 0.981 . S
C1981 C583 1.023 . S
C1995 C339 0.977 . S
C1999 C617 1.017 . S
C2013 C651 1.018 . S
C2017 C917 0.977 . S
C2031 C685 1.007 . S
C2035 C475 0.997 . S
C2049 C1053 0.998 . S
C2053 C719 1.007 . S
C2067 C753 1.007 . S
C2071 C543 0.998 . S
C2085 C985 0.997 . S
C2089 C787 1.007 . S
C2103 C135 1.000 . S
C2107 C821 1.020 . S
C2121 C577 0.977 . S
C2125 C855 1.016 . S
C2139 C67 0.989 . S
C2143 C889 1.025 . S
C2157 C645 0.992 . S
C2161 C923 1.007 . S
C2175 C957 1.021 . S
C2179 C203 0.978 . S
C2193 C781 1.001 . S
C2197 C991 1.009 . S
C2211 C271 0.994 . S
C2215 C1025 1.007 . S
C2229 C713 0.981 . S
C2233 C1059 1.024 . S
C2247 C20 1.486 . S
C2251 C836 1.486 . S
C2265 C54 1.489 . S
C2269 C326 1.489 . S
C2283 C904 1.477 . S
C2287 C88 1.477 . S
C2301 C394 1.491 . S
C2305 C122 1.491 . S
C2319 C972 1.483 . S
C2323 C156 1.483 . S
C2337 C462 1.477 . S
C2341 C190 1.477 . S
C2355 C1040 1.478 . S
C2359 C224 1.478 . S
C2373 C530 1.486 . S
C2377 C258 1.486 . S
C2391 C292 1.490 . S
C2395 C564 1.490 . S
C2409 C632 1.484 . S
C2413 C360 1.484 . S
C2427 C428 1.487 . S
C2431 C700 1.487 . S
C2445 C496 1.489 . S
C2449 C768 1.489 . S
C2463 C870 1.482 . S
C2467 C598 1.482 . S
C2481 C666 1.482 . S
C2485 C938 1.482 . S
C2499 C1006 1.487 . S
C2503 C734 1.487 . S
C2517 C1074 1.487 . S
C2521 C802 1.487 . S
