# Generated by pormake.
# Topology crb, (4)-cn, num edge types: 1
# Building blocks:
#     Node 0, Type 0, BuildingBlock: QUQFOY_clean_sbu_1, # of connection points: 4
#     Node 1, Type 0, BuildingBlock: QUQFOY_clean_sbu_1, # of connection points: 4
#     Node 2, Type 0, BuildingBlock: QUQFOY_clean_sbu_1, # of connection points: 4
#     Node 3, Type 0, BuildingBlock: QUQFOY_clean_sbu_1, # of connection points: 4
#     Node 4, Type 0, BuildingBlock: QUQFOY_clean_sbu_1, # of connection points: 4
#     Node 5, Type 0, BuildingBlock: QUQFOY_clean_sbu_1, # of connection points: 4
#     Node 6, Type 0, BuildingBlock: QUQFOY_clean_sbu_1, # of connection points: 4
#     Node 7, Type 0, BuildingBlock: QUQFOY_clean_sbu_1, # of connection points: 4
#     Edge 8, Type (0, 0), BuildingBlock: UVAHIK_clean_linker_0, # of connection points: 2
#     Edge 9, Type (0, 0), BuildingBlock: UVAHIK_clean_linker_0, # of connection points: 2
#     Edge 10, Type (0, 0), BuildingBlock: UVAHIK_clean_linker_0, # of connection points: 2
#     Edge 11, Type (0, 0), BuildingBlock: UVAHIK_clean_linker_0, # of connection points: 2
#     Edge 12, Type (0, 0), BuildingBlock: UVAHIK_clean_linker_0, # of connection points: 2
#     Edge 13, Type (0, 0), BuildingBlock: UVAHIK_clean_linker_0, # of connection points: 2
#     Edge 14, Type (0, 0), BuildingBlock: UVAHIK_clean_linker_0, # of connection points: 2
#     Edge 15, Type (0, 0), BuildingBlock: UVAHIK_clean_linker_0, # of connection points: 2
#     Edge 16, Type (0, 0), BuildingBlock: UVAHIK_clean_linker_0, # of connection points: 2
#     Edge 17, Type (0, 0), BuildingBlock: UVAHIK_clean_linker_0, # of connection points: 2
#     Edge 18, Type (0, 0), BuildingBlock: UVAHIK_clean_linker_0, # of connection points: 2
#     Edge 19, Type (0, 0), BuildingBlock: UVAHIK_clean_linker_0, # of connection points: 2
#     Edge 20, Type (0, 0), BuildingBlock: UVAHIK_clean_linker_0, # of connection points: 2
#     Edge 21, Type (0, 0), BuildingBlock: UVAHIK_clean_linker_0, # of connection points: 2
#     Edge 22, Type (0, 0), BuildingBlock: UVAHIK_clean_linker_0, # of connection points: 2
#     Edge 23, Type (0, 0), BuildingBlock: UVAHIK_clean_linker_0, # of connection points: 2
# Relax obj value: 0.155
# Max RMSD: 0.216
# Mean RMSD: 0.216
data_MOF--net-crb--node1-QUQFOY_clean_sbu_1--edge1-UVAHIK_clean_linker_0
_symmetry_space_group_name_H-M    P1
_symmetry_Int_Tables_number       1
_symmetry_cell_setting            triclinic
loop_
_symmetry_equiv_pos_as_xyz
'x, y, z'
_cell_length_a     52.109774
_cell_length_b     64.845334
_cell_length_c     29.756062
_cell_angle_alpha  89.993046
_cell_angle_beta   89.981449
_cell_angle_gamma 90.012662
loop_
_atom_site_label
_atom_site_type_symbol
_atom_site_fract_x
_atom_site_fract_y
_atom_site_fract_z
_atom_type_partial_charge
O0 O 0.29456 0.31453 0.08854 0.0
Cd1 Cd 0.30975 0.33086 0.14168 0.0
Cd2 Cd 0.30628 0.36275 0.07511 0.0
O3 O 0.29047 0.33916 0.03787 0.0
O4 O 0.31301 0.30841 0.18662 0.0
O5 O 0.28814 0.33545 0.19754 0.0
C6 C 0.29701 0.31806 0.21187 0.0
C7 C 0.28592 0.39473 0.07618 0.0
C8 C 0.28785 0.32044 0.04959 0.0
C9 C 0.35833 0.35339 0.11272 0.0
O10 O 0.3455 0.36342 0.08376 0.0
O11 O 0.34733 0.3406 0.13869 0.0
O12 O 0.29807 0.3883 0.04115 0.0
O13 O 0.28478 0.38268 0.11074 0.0
O14 O 0.69442 0.31087 0.12597 0.0
Cd15 Cd 0.67995 0.3269 0.072 0.0
Cd16 Cd 0.68715 0.35966 0.13469 0.0
O17 O 0.70528 0.33662 0.17052 0.0
O18 O 0.67549 0.30385 0.0289 0.0
O19 O 0.70189 0.32977 0.0161 0.0
C20 C 0.69235 0.31235 0.00338 0.0
C21 C 0.70677 0.3919 0.13003 0.0
C22 C 0.70476 0.31744 0.16182 0.0
C23 C 0.63342 0.35069 0.10316 0.0
O24 O 0.64749 0.36008 0.13141 0.0
O25 O 0.64316 0.33802 0.07547 0.0
O26 O 0.69638 0.3855 0.16678 0.0
O27 O 0.70659 0.37969 0.09572 0.0
O28 O 0.68746 0.68682 0.07505 0.0
Cd29 Cd 0.67688 0.67086 0.13229 0.0
Cd30 Cd 0.68382 0.63832 0.07229 0.0
O31 O 0.70032 0.6608 0.03308 0.0
O32 O 0.67381 0.69401 0.1755 0.0
O33 O 0.70218 0.66903 0.18372 0.0
C34 C 0.69257 0.6862 0.19782 0.0
C35 C 0.70476 0.60693 0.08219 0.0
C36 C 0.69796 0.68006 0.03945 0.0
C37 C 0.63102 0.64507 0.10834 0.0
O38 O 0.64433 0.63714 0.07704 0.0
O39 O 0.64112 0.65746 0.13624 0.0
O40 O 0.69386 0.61162 0.04468 0.0
O41 O 0.70446 0.62046 0.11408 0.0
O42 O 0.30132 0.68898 0.13452 0.0
Cd43 Cd 0.31452 0.67262 0.07953 0.0
Cd44 Cd 0.30316 0.64049 0.13801 0.0
O45 O 0.28493 0.66332 0.17372 0.0
O46 O 0.32079 0.69545 0.0365 0.0
O47 O 0.29203 0.67111 0.02422 0.0
C48 C 0.30303 0.68795 0.01135 0.0
C49 C 0.28233 0.60936 0.12422 0.0
C50 C 0.28842 0.68252 0.1679 0.0
C51 C 0.35797 0.64617 0.11198 0.0
O52 O 0.34267 0.63867 0.14093 0.0
O53 O 0.34987 0.65851 0.08206 0.0
O54 O 0.29084 0.61399 0.16363 0.0
O55 O 0.28491 0.62285 0.09255 0.0
O56 O 0.80645 0.8119 0.57524 0.0
Cd57 Cd 0.81685 0.82811 0.6322 0.0
Cd58 Cd 0.80944 0.86088 0.57054 0.0
O59 O 0.79332 0.8377 0.53285 0.0
O60 O 0.82043 0.80506 0.67559 0.0
O61 O 0.79157 0.82969 0.68374 0.0
C62 C 0.80152 0.81265 0.69791 0.0
C63 C 0.78873 0.89274 0.57319 0.0
C64 C 0.79586 0.81848 0.53959 0.0
C65 C 0.86227 0.85445 0.60783 0.0
O66 O 0.84889 0.86224 0.57645 0.0
O67 O 0.85235 0.84197 0.63577 0.0
O68 O 0.8003 0.88648 0.53745 0.0
O69 O 0.78834 0.8806 0.60762 0.0
O70 O 0.19265 0.81584 0.63463 0.0
Cd71 Cd 0.17932 0.83213 0.57965 0.0
Cd72 Cd 0.19 0.8644 0.63888 0.0
O73 O 0.2082 0.84157 0.67467 0.0
O74 O 0.17325 0.8092 0.53677 0.0
O75 O 0.20176 0.83371 0.52422 0.0
C76 C 0.19091 0.81679 0.51149 0.0
C77 C 0.21071 0.89575 0.62667 0.0
C78 C 0.20514 0.82235 0.66841 0.0
C79 C 0.13536 0.85818 0.61186 0.0
O80 O 0.15043 0.86589 0.64088 0.0
O81 O 0.14374 0.84587 0.5821 0.0
O82 O 0.2017 0.89086 0.66559 0.0
O83 O 0.20863 0.88242 0.59456 0.0
O84 O 0.19036 0.18998 0.58888 0.0
Cd85 Cd 0.1803 0.17047 0.64106 0.0
Cd86 Cd 0.19075 0.14181 0.57395 0.0
O87 O 0.20793 0.16685 0.54413 0.0
O88 O 0.17329 0.19046 0.69005 0.0
O89 O 0.20517 0.16806 0.69298 0.0
C90 C 0.19278 0.18314 0.71121 0.0
C91 C 0.21224 0.11039 0.57782 0.0
C92 C 0.20333 0.18554 0.55404 0.0
C93 C 0.1371 0.1443 0.60665 0.0
O94 O 0.15122 0.1396 0.57342 0.0
O95 O 0.14613 0.15457 0.63932 0.0
O96 O 0.20298 0.11718 0.54047 0.0
O97 O 0.21007 0.12189 0.6131 0.0
O98 O 0.80728 0.18737 0.62618 0.0
Cd99 Cd 0.82059 0.17121 0.57112 0.0
Cd100 Cd 0.80972 0.13854 0.62943 0.0
O101 O 0.79224 0.16143 0.6662 0.0
O102 O 0.82591 0.194 0.52764 0.0
O103 O 0.79797 0.16894 0.51621 0.0
C104 C 0.80836 0.18595 0.50282 0.0
C105 C 0.78839 0.1074 0.61799 0.0
C106 C 0.79511 0.18068 0.66016 0.0
C107 C 0.86443 0.14459 0.60169 0.0
O108 O 0.84925 0.13644 0.63 0.0
O109 O 0.85622 0.15759 0.57321 0.0
O110 O 0.79788 0.11221 0.65659 0.0
O111 O 0.7903 0.1207 0.5858 0.0
C112 C 0.26933 0.42548 0.11819 0.0
C113 C 0.27527 0.41585 0.07722 0.0
C114 C 0.26284 0.44642 0.11932 0.0
C115 C 0.27378 0.49356 0.05296 0.0
H116 H 0.22923 0.51851 0.142 0.0
C117 C 0.26813 0.58157 0.07109 0.0
C118 C 0.27194 0.58853 0.1153 0.0
C119 C 0.26211 0.56089 0.06277 0.0
C120 C 0.24169 0.51175 0.11687 0.0
H121 H 0.27718 0.42014 0.00501 0.0
H122 H 0.26521 0.45641 0.00683 0.0
H123 H 0.23026 0.481 0.13408 0.0
H124 H 0.27069 0.57961 0.18556 0.0
H125 H 0.26034 0.54367 0.17106 0.0
H126 H 0.28575 0.52416 0.03653 0.0
C127 C 0.26632 0.44803 0.03826 0.0
C128 C 0.24234 0.49027 0.11242 0.0
C129 C 0.27304 0.42721 0.0372 0.0
C130 C 0.26803 0.57472 0.15107 0.0
C131 C 0.2619 0.55411 0.14278 0.0
C132 C 0.27304 0.51498 0.05727 0.0
C133 C 0.26195 0.45808 0.07943 0.0
C134 C 0.25881 0.48089 0.08103 0.0
C135 C 0.25962 0.54681 0.09851 0.0
C136 C 0.25742 0.52431 0.08991 0.0
H137 H 0.27092 0.41713 0.14959 0.0
H138 H 0.25982 0.45366 0.15167 0.0
H139 H 0.28706 0.48693 0.02897 0.0
H140 H 0.27091 0.59186 0.04282 0.0
H141 H 0.26016 0.55576 0.02829 0.0
C142 C 0.40091 0.34378 0.1453 0.0
C143 C 0.38652 0.35595 0.11542 0.0
C144 C 0.42761 0.34509 0.14606 0.0
C145 C 0.48293 0.37718 0.114 0.0
H146 H 0.51873 0.32475 0.11115 0.0
C147 C 0.5936 0.36783 0.13291 0.0
C148 C 0.60527 0.35376 0.10331 0.0
C149 C 0.56685 0.36967 0.13443 0.0
C150 C 0.50901 0.33951 0.11177 0.0
H151 H 0.38892 0.37964 0.06405 0.0
H152 H 0.43574 0.38187 0.06538 0.0
H153 H 0.47207 0.32528 0.1149 0.0
H154 H 0.59798 0.33108 0.0511 0.0
H155 H 0.55156 0.3343 0.05394 0.0
H156 H 0.52011 0.39135 0.11042 0.0
C157 C 0.42622 0.37136 0.08827 0.0
C158 C 0.48232 0.33982 0.11438 0.0
C159 C 0.39944 0.36999 0.08734 0.0
C160 C 0.58967 0.34198 0.07453 0.0
C161 C 0.56304 0.34374 0.07625 0.0
C162 C 0.50976 0.37687 0.11175 0.0
C163 C 0.44057 0.35865 0.11708 0.0
C164 C 0.46898 0.35863 0.11537 0.0
C165 C 0.55134 0.35737 0.10662 0.0
C166 C 0.52301 0.35801 0.11024 0.0
H167 H 0.39161 0.3329 0.16764 0.0
H168 H 0.43818 0.33532 0.16907 0.0
H169 H 0.47311 0.39189 0.11496 0.0
H170 H 0.60507 0.37717 0.15542 0.0
H171 H 0.55828 0.38025 0.15828 0.0
C172 C 0.72111 0.4246 0.16646 0.0
C173 C 0.71691 0.41315 0.12707 0.0
C174 C 0.72731 0.44552 0.16415 0.0
C175 C 0.74606 0.48797 0.08596 0.0
H176 H 0.70684 0.52139 0.1694 0.0
C177 C 0.71713 0.57226 0.05268 0.0
C178 C 0.71548 0.58604 0.08904 0.0
C179 C 0.72381 0.55166 0.05966 0.0
C180 C 0.71837 0.51234 0.14642 0.0
H181 H 0.71717 0.41436 0.0543 0.0
H182 H 0.7273 0.45104 0.05015 0.0
H183 H 0.70657 0.48416 0.17706 0.0
H184 H 0.72099 0.58929 0.16091 0.0
H185 H 0.73265 0.5532 0.17313 0.0
H186 H 0.75687 0.51636 0.05421 0.0
C187 C 0.72627 0.44382 0.0829 0.0
C188 C 0.71824 0.49092 0.1508 0.0
C189 C 0.72033 0.42279 0.08523 0.0
C190 C 0.72199 0.57904 0.13224 0.0
C191 C 0.72854 0.55836 0.13927 0.0
C192 C 0.74608 0.50945 0.08145 0.0
C193 C 0.72913 0.45556 0.12239 0.0
C194 C 0.7317 0.47841 0.12017 0.0
C195 C 0.72887 0.54433 0.10318 0.0
C196 C 0.73184 0.52184 0.11116 0.0
H197 H 0.71894 0.41753 0.19923 0.0
H198 H 0.73 0.45394 0.19521 0.0
H199 H 0.75697 0.47884 0.06222 0.0
H200 H 0.71235 0.57719 0.01893 0.0
H201 H 0.72365 0.54125 0.0312 0.0
C202 C 0.40071 0.64285 0.07477 0.0
C203 C 0.38554 0.64107 0.11364 0.0
C204 C 0.42709 0.63928 0.07669 0.0
C205 C 0.48062 0.64541 0.15028 0.0
H206 H 0.51741 0.60945 0.06849 0.0
C207 C 0.59073 0.64213 0.15329 0.0
C208 C 0.60338 0.64042 0.11181 0.0
C209 C 0.5643 0.63891 0.15629 0.0
C210 C 0.5075 0.61976 0.09123 0.0
H211 H 0.38595 0.63385 0.18479 0.0
H212 H 0.43244 0.62829 0.18836 0.0
H213 H 0.47054 0.60988 0.06781 0.0
H214 H 0.59847 0.63371 0.04102 0.0
H215 H 0.55219 0.62914 0.04559 0.0
H216 H 0.51712 0.65641 0.17192 0.0
C217 C 0.4237 0.63215 0.15642 0.0
C218 C 0.48068 0.61984 0.09104 0.0
C219 C 0.39718 0.63527 0.15431 0.0
C220 C 0.5892 0.63502 0.07349 0.0
C221 C 0.56265 0.63225 0.07627 0.0
C222 C 0.50739 0.64568 0.14987 0.0
C223 C 0.43885 0.63428 0.11767 0.0
C224 C 0.46707 0.63278 0.12033 0.0
C225 C 0.54977 0.63439 0.11765 0.0
C226 C 0.52125 0.633 0.12005 0.0
H227 H 0.39221 0.64719 0.04292 0.0
H228 H 0.43847 0.64117 0.04648 0.0
H229 H 0.47047 0.65573 0.17275 0.0
H230 H 0.60129 0.64601 0.1835 0.0
H231 H 0.55528 0.64015 0.18895 0.0
C232 C 0.77337 0.92356 0.6164 0.0
C233 C 0.77799 0.91382 0.57503 0.0
C234 C 0.76703 0.94452 0.61789 0.0
C235 C 0.77632 0.99138 0.54986 0.0
H236 H 0.73502 0.01699 0.64274 0.0
C237 C 0.77234 0.07948 0.56683 0.0
C238 C 0.77756 0.08659 0.61048 0.0
C239 C 0.76582 0.05881 0.55952 0.0
C240 C 0.74657 0.01004 0.61653 0.0
H241 H 0.77757 0.9179 0.50271 0.0
H242 H 0.7658 0.95419 0.50521 0.0
H243 H 0.73536 0.97944 0.63539 0.0
H244 H 0.77836 0.07798 0.68094 0.0
H245 H 0.76719 0.04206 0.66818 0.0
H246 H 0.7881 0.02181 0.53173 0.0
C247 C 0.76787 0.94591 0.5366 0.0
C248 C 0.74682 0.98854 0.6124 0.0
C249 C 0.77448 0.92506 0.53515 0.0
C250 C 0.7746 0.07296 0.64685 0.0
C251 C 0.76799 0.05237 0.63958 0.0
C252 C 0.77598 0.01281 0.55387 0.0
C253 C 0.76493 0.95609 0.578 0.0
C254 C 0.76213 0.97893 0.57957 0.0
C255 C 0.76427 0.0449 0.59574 0.0
C256 C 0.76154 0.02238 0.58783 0.0
H257 H 0.77597 0.91528 0.6477 0.0
H258 H 0.7651 0.95187 0.6504 0.0
H259 H 0.78872 0.98457 0.52471 0.0
H260 H 0.77435 0.08962 0.53813 0.0
H261 H 0.76275 0.05356 0.52539 0.0
C262 C 0.0926 0.86086 0.5745 0.0
C263 C 0.10767 0.86287 0.61341 0.0
C264 C 0.06612 0.86392 0.57638 0.0
C265 C 0.01274 0.8566 0.64982 0.0
H266 H 0.9749 0.89196 0.56829 0.0
C267 C 0.9025 0.8578 0.65279 0.0
C268 C 0.88983 0.85942 0.61133 0.0
C269 C 0.92885 0.86144 0.65581 0.0
C270 C 0.9851 0.88181 0.59096 0.0
H271 H 0.10698 0.87002 0.6846 0.0
H272 H 0.06034 0.87469 0.68809 0.0
H273 H 0.02176 0.89248 0.56766 0.0
H274 H 0.8946 0.86636 0.54061 0.0
H275 H 0.94074 0.87166 0.54521 0.0
H276 H 0.97657 0.84484 0.67133 0.0
C277 C 0.06922 0.87104 0.65614 0.0
C278 C 0.01192 0.88228 0.59079 0.0
C279 C 0.09582 0.86842 0.65408 0.0
C280 C 0.90389 0.86511 0.57307 0.0
C281 C 0.93036 0.8683 0.57586 0.0
C282 C 0.98598 0.8558 0.64938 0.0
C283 C 0.05417 0.86864 0.61736 0.0
C284 C 0.02591 0.86956 0.61999 0.0
C285 C 0.94328 0.86631 0.61722 0.0
C286 C 0.97175 0.86825 0.61965 0.0
H287 H 0.10126 0.85669 0.54266 0.0
H288 H 0.05483 0.86185 0.54614 0.0
H289 H 0.02319 0.84645 0.67222 0.0
H290 H 0.89204 0.8537 0.68297 0.0
H291 H 0.9379 0.86028 0.68846 0.0
C292 C 0.22747 0.07806 0.54079 0.0
C293 C 0.22296 0.0893 0.58037 0.0
C294 C 0.23384 0.05716 0.54273 0.0
C295 C 0.25282 0.0145 0.61986 0.0
H296 H 0.21237 0.98132 0.53778 0.0
C297 C 0.22404 0.9304 0.65493 0.0
C298 C 0.22132 0.91661 0.61881 0.0
C299 C 0.23072 0.95096 0.64735 0.0
C300 C 0.22427 0.99028 0.56034 0.0
H301 H 0.22301 0.08775 0.65314 0.0
H302 H 0.23362 0.05116 0.65661 0.0
H303 H 0.21248 0.01857 0.53005 0.0
H304 H 0.22495 0.91327 0.54659 0.0
H305 H 0.23677 0.94925 0.53331 0.0
H306 H 0.26377 0.98606 0.65118 0.0
C307 C 0.23259 0.05853 0.624 0.0
C308 C 0.22434 0.01171 0.55592 0.0
C309 C 0.22639 0.07951 0.62204 0.0
C310 C 0.22677 0.92355 0.5751 0.0
C311 C 0.2334 0.94417 0.56749 0.0
C312 C 0.25272 0.99301 0.62433 0.0
C313 C 0.23563 0.04697 0.5843 0.0
C314 C 0.23819 0.02413 0.58616 0.0
C315 C 0.23482 0.95823 0.60345 0.0
C316 C 0.23799 0.98069 0.59519 0.0
H317 H 0.22528 0.08523 0.50813 0.0
H318 H 0.23661 0.04884 0.51155 0.0
H319 H 0.26401 0.02358 0.64328 0.0
H320 H 0.22007 0.92554 0.68906 0.0
H321 H 0.23138 0.96137 0.67577 0.0
C322 C 0.90735 0.14313 0.56441 0.0
C323 C 0.89201 0.1394 0.60241 0.0
C324 C 0.93371 0.13936 0.56572 0.0
C325 C 0.98683 0.14044 0.64244 0.0
H326 H 0.02427 0.11117 0.54961 0.0
C327 C 0.09662 0.13654 0.64799 0.0
C328 C 0.1097 0.13861 0.607 0.0
C329 C 0.07025 0.13287 0.64869 0.0
C330 C 0.01417 0.11958 0.57557 0.0
H331 H 0.89211 0.1284 0.67126 0.0
H332 H 0.93847 0.12236 0.67384 0.0
H333 H 0.9774 0.1118 0.54787 0.0
H334 H 0.1057 0.13794 0.53457 0.0
H335 H 0.05943 0.13254 0.53557 0.0
H336 H 0.02316 0.14936 0.66888 0.0
C337 C 0.92992 0.128 0.64301 0.0
C338 C 0.98734 0.11979 0.57468 0.0
C339 C 0.90346 0.13141 0.64146 0.0
C340 C 0.09607 0.13632 0.56666 0.0
C341 C 0.06954 0.1331 0.56732 0.0
C342 C 0.01359 0.14056 0.64292 0.0
C343 C 0.94527 0.13213 0.60527 0.0
C344 C 0.97349 0.13036 0.60794 0.0
C345 C 0.0562 0.13168 0.60839 0.0
C346 C 0.02767 0.13027 0.60929 0.0
H347 H 0.89903 0.14918 0.53376 0.0
H348 H 0.9452 0.14282 0.53632 0.0
H349 H 0.97655 0.14895 0.66809 0.0
H350 H 0.10676 0.13794 0.67963 0.0
H351 H 0.06084 0.13128 0.68095 0.0
C352 C 0.23288 0.19813 0.4938 0.0
C353 C 0.21334 0.20223 0.52507 0.0
C354 C 0.24253 0.21385 0.46659 0.0
C355 C 0.2256 0.26235 0.41385 0.0
H356 H 0.2991 0.26769 0.39712 0.0
C357 C 0.26937 0.31779 0.28131 0.0
C358 C 0.28881 0.30885 0.255 0.0
C359 C 0.26082 0.30794 0.32052 0.0
C360 C 0.27852 0.26637 0.4013 0.0
H361 H 0.18847 0.22604 0.55213 0.0
H362 H 0.20508 0.25348 0.50361 0.0
H363 H 0.28251 0.24393 0.45361 0.0
H364 H 0.31497 0.2829 0.24978 0.0
H365 H 0.29995 0.26577 0.317 0.0
H366 H 0.22153 0.28401 0.36 0.0
C367 C 0.21299 0.23809 0.50062 0.0
C368 C 0.26906 0.25281 0.4337 0.0
C369 C 0.20357 0.22241 0.5284 0.0
C370 C 0.29996 0.29024 0.26922 0.0
C371 C 0.29148 0.28047 0.30814 0.0
C372 C 0.23506 0.2758 0.38103 0.0
C373 C 0.23264 0.23395 0.46963 0.0
C374 C 0.24252 0.25026 0.43946 0.0
C375 C 0.27167 0.28906 0.33411 0.0
C376 C 0.26164 0.27749 0.3735 0.0
H377 H 0.24086 0.18278 0.49048 0.0
H378 H 0.25748 0.21019 0.44256 0.0
H379 H 0.20503 0.26061 0.41758 0.0
H380 H 0.26045 0.33214 0.27122 0.0
H381 H 0.24563 0.31503 0.33999 0.0
C382 C 0.73328 0.30905 0.2271 0.0
C383 C 0.7162 0.30249 0.1935 0.0
C384 C 0.74428 0.29477 0.25654 0.0
C385 C 0.73365 0.2446 0.30802 0.0
H386 H 0.80686 0.24576 0.331 0.0
C387 C 0.78117 0.18805 0.43318 0.0
C388 C 0.79977 0.1967 0.46168 0.0
C389 C 0.77208 0.19914 0.39606 0.0
C390 C 0.78635 0.24533 0.3253 0.0
H391 H 0.69703 0.27584 0.16473 0.0
H392 H 0.71591 0.25102 0.21679 0.0
H393 H 0.78842 0.26929 0.27585 0.0
H394 H 0.82371 0.22358 0.47322 0.0
H395 H 0.8075 0.24297 0.40983 0.0
H396 H 0.73128 0.22128 0.35866 0.0
C397 C 0.72088 0.26718 0.22004 0.0
C398 C 0.77584 0.25878 0.29364 0.0
C399 C 0.71018 0.28139 0.19019 0.0
C400 C 0.80945 0.2164 0.45184 0.0
C401 C 0.80027 0.2275 0.41514 0.0
C402 C 0.7441 0.23131 0.34016 0.0
C403 C 0.73809 0.27373 0.25335 0.0
C404 C 0.74937 0.25871 0.28513 0.0
C405 C 0.78132 0.21912 0.38694 0.0
C406 C 0.77054 0.23174 0.3497 0.0
H407 H 0.73834 0.32518 0.23044 0.0
H408 H 0.75734 0.30022 0.28224 0.0
H409 H 0.71313 0.24434 0.30219 0.0
H410 H 0.77341 0.17286 0.43984 0.0
H411 H 0.75772 0.1921 0.37469 0.0
C412 C 0.79312 0.78264 0.50818 0.0
C413 C 0.78643 0.80362 0.50567 0.0
C414 C 0.7844 0.7687 0.47575 0.0
C415 C 0.75733 0.7671 0.36042 0.0
H416 H 0.73548 0.71201 0.39403 0.0
C417 C 0.69486 0.71759 0.24579 0.0
C418 C 0.70341 0.69747 0.23661 0.0
C419 C 0.70619 0.72921 0.27974 0.0
C420 C 0.74179 0.72728 0.38422 0.0
H421 H 0.7649 0.82632 0.46768 0.0
H422 H 0.74914 0.80202 0.41203 0.0
H423 H 0.75292 0.7352 0.45131 0.0
H424 H 0.72994 0.67347 0.25701 0.0
H425 H 0.74958 0.6939 0.31746 0.0
H426 H 0.74539 0.7594 0.29373 0.0
C427 C 0.76171 0.79636 0.43824 0.0
C428 C 0.75182 0.74055 0.41689 0.0
C429 C 0.77062 0.81031 0.47036 0.0
C430 C 0.723 0.68895 0.26327 0.0
C431 C 0.73418 0.70058 0.29782 0.0
C432 C 0.74707 0.75395 0.32803 0.0
C433 C 0.76864 0.77541 0.44029 0.0
C434 C 0.75936 0.76075 0.40546 0.0
C435 C 0.72616 0.72095 0.30567 0.0
C436 C 0.73887 0.73404 0.33972 0.0
H437 H 0.80536 0.77701 0.53491 0.0
H438 H 0.79034 0.75274 0.47811 0.0
H439 H 0.76357 0.78231 0.35011 0.0
H440 H 0.67976 0.72463 0.22602 0.0
H441 H 0.69943 0.74479 0.28556 0.0
C442 C 0.21931 0.81284 0.44361 0.0
C443 C 0.19928 0.80547 0.47092 0.0
C444 C 0.22857 0.80086 0.40792 0.0
C445 C 0.23467 0.7469 0.37552 0.0
H446 H 0.24624 0.76687 0.2544 0.0
C447 C 0.2596 0.69111 0.23253 0.0
C448 C 0.27771 0.69746 0.20044 0.0
C449 C 0.24985 0.70511 0.26382 0.0
C450 C 0.24345 0.76112 0.28822 0.0
H451 H 0.17256 0.78017 0.48101 0.0
H452 H 0.18879 0.7594 0.41931 0.0
H453 H 0.2298 0.79043 0.31186 0.0
H454 H 0.29969 0.72355 0.17583 0.0
H455 H 0.28323 0.74784 0.23124 0.0
H456 H 0.24869 0.71781 0.35278 0.0
C457 C 0.19748 0.7743 0.42564 0.0
C458 C 0.23398 0.77461 0.321 0.0
C459 C 0.18813 0.78628 0.46087 0.0
C460 C 0.28569 0.71818 0.20006 0.0
C461 C 0.27613 0.73215 0.23167 0.0
C462 C 0.24435 0.73351 0.34304 0.0
C463 C 0.21809 0.78127 0.39938 0.0
C464 C 0.22921 0.76752 0.36478 0.0
C465 C 0.2582 0.72575 0.26414 0.0
C466 C 0.24857 0.74035 0.29882 0.0
H467 H 0.22825 0.82759 0.45048 0.0
H468 H 0.24451 0.80655 0.38811 0.0
H469 H 0.23159 0.74114 0.40928 0.0
H470 H 0.25284 0.67532 0.23344 0.0
H471 H 0.23565 0.69973 0.28767 0.0
C472 C 0.20819 0.78665 0.70023 0.0
C473 C 0.21592 0.80742 0.70091 0.0
C474 C 0.21782 0.77268 0.73177 0.0
C475 C 0.24939 0.77127 0.84333 0.0
H476 H 0.26443 0.71449 0.81166 0.0
C477 C 0.30583 0.71849 0.9608 0.0
C478 C 0.29469 0.69928 0.97078 0.0
C479 C 0.29648 0.73048 0.92561 0.0
C480 C 0.26011 0.73027 0.82093 0.0
H481 H 0.24041 0.82968 0.73436 0.0
H482 H 0.25775 0.80527 0.78844 0.0
H483 H 0.24791 0.73809 0.75436 0.0
H484 H 0.26575 0.67716 0.95027 0.0
H485 H 0.24951 0.69823 0.88794 0.0
H486 H 0.26211 0.76356 0.90954 0.0
C487 C 0.24368 0.79983 0.76442 0.0
C488 C 0.2506 0.74379 0.78824 0.0
C489 C 0.23385 0.81384 0.73323 0.0
C490 C 0.27468 0.69191 0.94344 0.0
C491 C 0.26544 0.70392 0.90778 0.0
C492 C 0.25913 0.75786 0.87571 0.0
C493 C 0.23557 0.77913 0.76445 0.0
C494 C 0.24529 0.76451 0.79902 0.0
C495 C 0.2759 0.72352 0.89931 0.0
C496 C 0.26476 0.73729 0.86479 0.0
H497 H 0.19432 0.78123 0.67582 0.0
H498 H 0.2109 0.75693 0.7311 0.0
H499 H 0.2449 0.78693 0.85321 0.0
H500 H 0.32138 0.72459 0.98097 0.0
H501 H 0.30514 0.7454 0.91933 0.0
C502 C 0.27245 0.31077 0.97262 0.0
C503 C 0.27736 0.3052 0.01742 0.0
C504 C 0.26303 0.29626 0.94211 0.0
C505 C 0.2291 0.26637 0.89192 0.0
H506 H 0.25442 0.21012 0.8928 0.0
C507 C 0.18431 0.20575 0.77709 0.0
C508 C 0.20129 0.19292 0.75342 0.0
C509 C 0.19294 0.21753 0.81321 0.0
C510 C 0.24725 0.22579 0.89201 0.0
H511 H 0.27605 0.27997 0.06534 0.0
H512 H 0.25917 0.25479 0.01232 0.0
H513 H 0.2714 0.23508 0.94659 0.0
H514 H 0.24032 0.18152 0.75034 0.0
H515 H 0.25568 0.20254 0.81305 0.0
H516 H 0.20566 0.25744 0.83649 0.0
C517 C 0.26303 0.27029 0.00056 0.0
C518 C 0.25677 0.24004 0.92313 0.0
C519 C 0.27255 0.28478 0.03105 0.0
C520 C 0.22681 0.19126 0.76808 0.0
C521 C 0.23557 0.20327 0.80405 0.0
C522 C 0.21968 0.2522 0.8608 0.0
C523 C 0.25817 0.27585 0.95573 0.0
C524 C 0.24787 0.26053 0.92329 0.0
C525 C 0.21886 0.21699 0.82617 0.0
C526 C 0.22861 0.23173 0.86042 0.0
H527 H 0.2761 0.32632 0.9609 0.0
H528 H 0.25988 0.30099 0.90765 0.0
H529 H 0.22157 0.28194 0.89145 0.0
H530 H 0.16442 0.20713 0.76693 0.0
H531 H 0.17939 0.22749 0.83028 0.0
C532 C 0.72102 0.30967 0.93553 0.0
C533 C 0.70141 0.3015 0.96268 0.0
C534 C 0.73111 0.29806 0.89993 0.0
C535 C 0.74086 0.24444 0.86834 0.0
H536 H 0.75035 0.26409 0.74642 0.0
C537 C 0.767 0.18875 0.72604 0.0
C538 C 0.78437 0.19545 0.69304 0.0
C539 C 0.75709 0.20261 0.75743 0.0
C540 C 0.74817 0.25846 0.78047 0.0
H541 H 0.6762 0.27518 0.97247 0.0
H542 H 0.69389 0.25509 0.91098 0.0
H543 H 0.73281 0.28731 0.80358 0.0
H544 H 0.80489 0.22201 0.66699 0.0
H545 H 0.78812 0.2461 0.72258 0.0
H546 H 0.75651 0.2158 0.84611 0.0
C547 C 0.70162 0.27032 0.91737 0.0
C548 C 0.73808 0.27175 0.81306 0.0
C549 C 0.69144 0.28191 0.95249 0.0
C550 C 0.79148 0.21637 0.69194 0.0
C551 C 0.78175 0.23021 0.72365 0.0
C552 C 0.75116 0.23126 0.83605 0.0
C553 C 0.72188 0.27808 0.89137 0.0
C554 C 0.73398 0.26472 0.85709 0.0
C555 C 0.76453 0.22347 0.75695 0.0
C556 C 0.75458 0.23797 0.79152 0.0
H557 H 0.72905 0.32474 0.94253 0.0
H558 H 0.74676 0.30436 0.88026 0.0
H559 H 0.73832 0.23876 0.9023 0.0
H560 H 0.76092 0.17279 0.72754 0.0
H561 H 0.74344 0.19695 0.78196 0.0
C562 C 0.7235 0.68799 0.97034 0.0
C563 C 0.7075 0.69478 0.00531 0.0
C564 C 0.7326 0.70187 0.93819 0.0
C565 C 0.74245 0.75773 0.91657 0.0
H566 H 0.74998 0.73876 0.7937 0.0
C567 C 0.77106 0.80954 0.76326 0.0
C568 C 0.79086 0.80125 0.73669 0.0
C569 C 0.76002 0.79777 0.79775 0.0
C570 C 0.74801 0.74424 0.82792 0.0
H571 H 0.68837 0.72146 0.03383 0.0
H572 H 0.70367 0.74557 0.977 0.0
H573 H 0.7317 0.71577 0.84988 0.0
H574 H 0.81501 0.77438 0.7262 0.0
H575 H 0.79558 0.75397 0.78563 0.0
H576 H 0.75854 0.78638 0.89382 0.0
C577 C 0.70966 0.72961 0.97494 0.0
C578 C 0.73769 0.73105 0.86021 0.0
C579 C 0.70077 0.71575 0.00739 0.0
C580 C 0.79975 0.78123 0.74591 0.0
C581 C 0.78856 0.76947 0.7798 0.0
C582 C 0.75252 0.77104 0.884 0.0
C583 C 0.72568 0.72283 0.93988 0.0
C584 C 0.73521 0.73746 0.90514 0.0
C585 C 0.76838 0.77749 0.80562 0.0
C586 C 0.75581 0.76425 0.8396 0.0
H587 H 0.72925 0.67198 0.96799 0.0
H588 H 0.74535 0.69615 0.91229 0.0
H589 H 0.74104 0.76313 0.95091 0.0
H590 H 0.76385 0.82493 0.75698 0.0
H591 H 0.74446 0.80427 0.8173 0.0
loop_
_geom_bond_atom_site_label_1
_geom_bond_atom_site_label_2
_geom_bond_distance
_geom_bond_site_symmetry_2
_ccdc_geom_bond_type
O0 Cd1 2.223 . S
O0 C8 1.315 . S
Cd1 O0 2.223 . S
Cd1 O4 2.297 . S
Cd1 O5 2.439 . S
Cd1 O11 2.240 . S
Cd2 O3 2.240 . S
Cd2 O10 2.223 . S
Cd2 O12 2.297 . S
Cd2 O13 2.439 . S
O3 Cd2 2.240 . S
O3 C8 1.279 . S
O4 Cd1 2.297 . S
O4 C6 1.247 . S
O5 Cd1 2.439 . S
O5 C6 1.208 . S
C6 O4 1.247 . S
C6 O5 1.208 . S
C7 O12 1.247 . S
C7 O13 1.208 . S
C8 O0 1.315 . S
C8 O3 1.279 . S
C9 O10 1.315 . S
C9 O11 1.279 . S
O10 Cd2 2.223 . S
O10 C9 1.315 . S
O11 Cd1 2.240 . S
O11 C9 1.279 . S
O12 Cd2 2.297 . S
O12 C7 1.247 . S
O13 Cd2 2.439 . S
O13 C7 1.208 . S
O14 Cd15 2.223 . S
O14 C22 1.315 . S
Cd15 O14 2.223 . S
Cd15 O18 2.297 1_554 S
Cd15 O19 2.439 1_554 S
Cd15 O25 2.240 . S
Cd16 O17 2.240 . S
Cd16 O24 2.223 . S
Cd16 O26 2.297 . S
Cd16 O27 2.439 . S
O17 Cd16 2.240 . S
O17 C22 1.279 . S
O18 Cd15 2.297 1_556 S
O18 C20 1.247 . S
O19 Cd15 2.439 1_556 S
O19 C20 1.208 . S
C20 O18 1.247 . S
C20 O19 1.208 . S
C21 O26 1.247 . S
C21 O27 1.208 . S
C22 O14 1.315 . S
C22 O17 1.279 . S
C23 O24 1.315 . S
C23 O25 1.279 . S
O24 Cd16 2.223 . S
O24 C23 1.315 . S
O25 Cd15 2.240 . S
O25 C23 1.279 . S
O26 Cd16 2.297 . S
O26 C21 1.247 . S
O27 Cd16 2.439 . S
O27 C21 1.208 . S
O28 Cd29 2.223 . S
O28 C36 1.315 . S
Cd29 O28 2.223 . S
Cd29 O32 2.297 . S
Cd29 O33 2.439 . S
Cd29 O39 2.240 . S
Cd30 O31 2.240 . S
Cd30 O38 2.223 . S
Cd30 O40 2.297 . S
Cd30 O41 2.439 . S
O31 Cd30 2.240 . S
O31 C36 1.279 . S
O32 Cd29 2.297 . S
O32 C34 1.247 . S
O33 Cd29 2.439 . S
O33 C34 1.208 . S
C34 O32 1.247 . S
C34 O33 1.208 . S
C35 O40 1.247 . S
C35 O41 1.208 . S
C36 O28 1.315 . S
C36 O31 1.279 . S
C37 O38 1.315 . S
C37 O39 1.279 . S
O38 Cd30 2.223 . S
O38 C37 1.315 . S
O39 Cd29 2.240 . S
O39 C37 1.279 . S
O40 Cd30 2.297 . S
O40 C35 1.247 . S
O41 Cd30 2.439 . S
O41 C35 1.208 . S
O42 Cd43 2.223 . S
O42 C50 1.315 . S
Cd43 O42 2.223 . S
Cd43 O46 2.297 1_554 S
Cd43 O47 2.439 1_554 S
Cd43 O53 2.240 . S
Cd44 O45 2.240 . S
Cd44 O52 2.223 . S
Cd44 O54 2.297 . S
Cd44 O55 2.439 . S
O45 Cd44 2.240 . S
O45 C50 1.279 . S
O46 Cd43 2.297 1_556 S
O46 C48 1.247 . S
O47 Cd43 2.439 1_556 S
O47 C48 1.208 . S
C48 O46 1.247 . S
C48 O47 1.208 . S
C49 O54 1.247 . S
C49 O55 1.208 . S
C50 O42 1.315 . S
C50 O45 1.279 . S
C51 O52 1.315 . S
C51 O53 1.279 . S
O52 Cd44 2.223 . S
O52 C51 1.315 . S
O53 Cd43 2.240 . S
O53 C51 1.279 . S
O54 Cd44 2.297 . S
O54 C49 1.247 . S
O55 Cd44 2.439 . S
O55 C49 1.208 . S
O56 Cd57 2.223 . S
O56 C64 1.315 . S
Cd57 O56 2.223 . S
Cd57 O60 2.297 . S
Cd57 O61 2.439 . S
Cd57 O67 2.240 . S
Cd58 O59 2.240 . S
Cd58 O66 2.223 . S
Cd58 O68 2.297 . S
Cd58 O69 2.439 . S
O59 Cd58 2.240 . S
O59 C64 1.279 . S
O60 Cd57 2.297 . S
O60 C62 1.247 . S
O61 Cd57 2.439 . S
O61 C62 1.208 . S
C62 O60 1.247 . S
C62 O61 1.208 . S
C63 O68 1.247 . S
C63 O69 1.208 . S
C64 O56 1.315 . S
C64 O59 1.279 . S
C65 O66 1.315 . S
C65 O67 1.279 . S
O66 Cd58 2.223 . S
O66 C65 1.315 . S
O67 Cd57 2.240 . S
O67 C65 1.279 . S
O68 Cd58 2.297 . S
O68 C63 1.247 . S
O69 Cd58 2.439 . S
O69 C63 1.208 . S
O70 Cd71 2.223 . S
O70 C78 1.315 . S
Cd71 O70 2.223 . S
Cd71 O74 2.297 . S
Cd71 O75 2.439 . S
Cd71 O81 2.240 . S
Cd72 O73 2.240 . S
Cd72 O80 2.223 . S
Cd72 O82 2.297 . S
Cd72 O83 2.439 . S
O73 Cd72 2.240 . S
O73 C78 1.279 . S
O74 Cd71 2.297 . S
O74 C76 1.247 . S
O75 Cd71 2.439 . S
O75 C76 1.208 . S
C76 O74 1.247 . S
C76 O75 1.208 . S
C77 O82 1.247 . S
C77 O83 1.208 . S
C78 O70 1.315 . S
C78 O73 1.279 . S
C79 O80 1.315 . S
C79 O81 1.279 . S
O80 Cd72 2.223 . S
O80 C79 1.315 . S
O81 Cd71 2.240 . S
O81 C79 1.279 . S
O82 Cd72 2.297 . S
O82 C77 1.247 . S
O83 Cd72 2.439 . S
O83 C77 1.208 . S
O84 Cd85 2.223 . S
O84 C92 1.315 . S
Cd85 O84 2.223 . S
Cd85 O88 2.297 . S
Cd85 O89 2.439 . S
Cd85 O95 2.240 . S
Cd86 O87 2.240 . S
Cd86 O94 2.223 . S
Cd86 O96 2.297 . S
Cd86 O97 2.439 . S
O87 Cd86 2.240 . S
O87 C92 1.279 . S
O88 Cd85 2.297 . S
O88 C90 1.247 . S
O89 Cd85 2.439 . S
O89 C90 1.208 . S
C90 O88 1.247 . S
C90 O89 1.208 . S
C91 O96 1.247 . S
C91 O97 1.208 . S
C92 O84 1.315 . S
C92 O87 1.279 . S
C93 O94 1.315 . S
C93 O95 1.279 . S
O94 Cd86 2.223 . S
O94 C93 1.315 . S
O95 Cd85 2.240 . S
O95 C93 1.279 . S
O96 Cd86 2.297 . S
O96 C91 1.247 . S
O97 Cd86 2.439 . S
O97 C91 1.208 . S
O98 Cd99 2.223 . S
O98 C106 1.315 . S
Cd99 O98 2.223 . S
Cd99 O102 2.297 . S
Cd99 O103 2.439 . S
Cd99 O109 2.240 . S
Cd100 O101 2.240 . S
Cd100 O108 2.223 . S
Cd100 O110 2.297 . S
Cd100 O111 2.439 . S
O101 Cd100 2.240 . S
O101 C106 1.279 . S
O102 Cd99 2.297 . S
O102 C104 1.247 . S
O103 Cd99 2.439 . S
O103 C104 1.208 . S
C104 O102 1.247 . S
C104 O103 1.208 . S
C105 O110 1.247 . S
C105 O111 1.208 . S
C106 O98 1.315 . S
C106 O101 1.279 . S
C107 O108 1.315 . S
C107 O109 1.279 . S
O108 Cd100 2.223 . S
O108 C107 1.315 . S
O109 Cd99 2.240 . S
O109 C107 1.279 . S
O110 Cd100 2.297 . S
O110 C105 1.247 . S
O111 Cd100 2.439 . S
O111 C105 1.208 . S
C112 C113 1.349 . S
C112 C114 1.327 . S
C112 H137 0.950 . S
C113 C112 1.349 . S
C113 C129 1.349 . S
C114 C112 1.327 . S
C114 C133 1.429 . S
C114 H138 0.950 . S
C115 C132 1.574 . S
C115 C134 1.368 . S
C115 H139 0.949 . S
H116 C120 0.949 . S
C117 C118 1.349 . S
C117 C119 1.327 . S
C117 H140 0.950 . S
C118 C117 1.349 . S
C118 C130 1.349 . S
C119 C117 1.327 . S
C119 C135 1.429 . S
C119 H141 0.950 . S
C120 H116 0.949 . S
C120 C128 1.574 . S
C120 C136 1.368 . S
H121 C129 0.950 . S
H122 C127 0.950 . S
H123 C128 0.949 . S
H124 C130 0.950 . S
H125 C131 0.950 . S
H126 C132 0.949 . S
C127 H122 0.950 . S
C127 C129 1.327 . S
C127 C133 1.429 . S
C128 C120 1.574 . S
C128 H123 0.949 . S
C128 C134 1.368 . S
C129 C113 1.349 . S
C129 H121 0.950 . S
C129 C127 1.327 . S
C130 C118 1.349 . S
C130 H124 0.950 . S
C130 C131 1.327 . S
C131 H125 0.950 . S
C131 C130 1.327 . S
C131 C135 1.429 . S
C132 C115 1.574 . S
C132 H126 0.949 . S
C132 C136 1.368 . S
C133 C114 1.429 . S
C133 C127 1.429 . S
C133 C134 1.523 . S
C134 C115 1.368 . S
C134 C128 1.368 . S
C134 C133 1.523 . S
C135 C119 1.429 . S
C135 C131 1.429 . S
C135 C136 1.523 . S
C136 C120 1.368 . S
C136 C132 1.368 . S
C136 C135 1.523 . S
H137 C112 0.950 . S
H138 C114 0.950 . S
H139 C115 0.949 . S
H140 C117 0.950 . S
H141 C119 0.950 . S
C142 C143 1.349 . S
C142 C144 1.327 . S
C142 H167 0.950 . S
C143 C142 1.349 . S
C143 C159 1.349 . S
C144 C142 1.327 . S
C144 C163 1.429 . S
C144 H168 0.950 . S
C145 C162 1.574 . S
C145 C164 1.368 . S
C145 H169 0.949 . S
H146 C150 0.949 . S
C147 C148 1.349 . S
C147 C149 1.327 . S
C147 H170 0.950 . S
C148 C147 1.349 . S
C148 C160 1.349 . S
C149 C147 1.327 . S
C149 C165 1.429 . S
C149 H171 0.950 . S
C150 H146 0.949 . S
C150 C158 1.574 . S
C150 C166 1.368 . S
H151 C159 0.950 . S
H152 C157 0.950 . S
H153 C158 0.949 . S
H154 C160 0.950 . S
H155 C161 0.950 . S
H156 C162 0.949 . S
C157 H152 0.950 . S
C157 C159 1.327 . S
C157 C163 1.429 . S
C158 C150 1.574 . S
C158 H153 0.949 . S
C158 C164 1.368 . S
C159 C143 1.349 . S
C159 H151 0.950 . S
C159 C157 1.327 . S
C160 C148 1.349 . S
C160 H154 0.950 . S
C160 C161 1.327 . S
C161 H155 0.950 . S
C161 C160 1.327 . S
C161 C165 1.429 . S
C162 C145 1.574 . S
C162 H156 0.949 . S
C162 C166 1.368 . S
C163 C144 1.429 . S
C163 C157 1.429 . S
C163 C164 1.523 . S
C164 C145 1.368 . S
C164 C158 1.368 . S
C164 C163 1.523 . S
C165 C149 1.429 . S
C165 C161 1.429 . S
C165 C166 1.523 . S
C166 C150 1.368 . S
C166 C162 1.368 . S
C166 C165 1.523 . S
H167 C142 0.950 . S
H168 C144 0.950 . S
H169 C145 0.949 . S
H170 C147 0.950 . S
H171 C149 0.950 . S
C172 C173 1.349 . S
C172 C174 1.327 . S
C172 H197 0.950 . S
C173 C172 1.349 . S
C173 C189 1.349 . S
C174 C172 1.327 . S
C174 C193 1.429 . S
C174 H198 0.950 . S
C175 C192 1.574 . S
C175 C194 1.368 . S
C175 H199 0.949 . S
H176 C180 0.949 . S
C177 C178 1.349 . S
C177 C179 1.327 . S
C177 H200 0.950 . S
C178 C177 1.349 . S
C178 C190 1.349 . S
C179 C177 1.327 . S
C179 C195 1.429 . S
C179 H201 0.950 . S
C180 H176 0.949 . S
C180 C188 1.574 . S
C180 C196 1.368 . S
H181 C189 0.950 . S
H182 C187 0.950 . S
H183 C188 0.949 . S
H184 C190 0.950 . S
H185 C191 0.950 . S
H186 C192 0.949 . S
C187 H182 0.950 . S
C187 C189 1.327 . S
C187 C193 1.429 . S
C188 C180 1.574 . S
C188 H183 0.949 . S
C188 C194 1.368 . S
C189 C173 1.349 . S
C189 H181 0.950 . S
C189 C187 1.327 . S
C190 C178 1.349 . S
C190 H184 0.950 . S
C190 C191 1.327 . S
C191 H185 0.950 . S
C191 C190 1.327 . S
C191 C195 1.429 . S
C192 C175 1.574 . S
C192 H186 0.949 . S
C192 C196 1.368 . S
C193 C174 1.429 . S
C193 C187 1.429 . S
C193 C194 1.523 . S
C194 C175 1.368 . S
C194 C188 1.368 . S
C194 C193 1.523 . S
C195 C179 1.429 . S
C195 C191 1.429 . S
C195 C196 1.523 . S
C196 C180 1.368 . S
C196 C192 1.368 . S
C196 C195 1.523 . S
H197 C172 0.950 . S
H198 C174 0.950 . S
H199 C175 0.949 . S
H200 C177 0.950 . S
H201 C179 0.950 . S
C202 C203 1.349 . S
C202 C204 1.327 . S
C202 H227 0.950 . S
C203 C202 1.349 . S
C203 C219 1.349 . S
C204 C202 1.327 . S
C204 C223 1.429 . S
C204 H228 0.950 . S
C205 C222 1.574 . S
C205 C224 1.368 . S
C205 H229 0.949 . S
H206 C210 0.949 . S
C207 C208 1.349 . S
C207 C209 1.327 . S
C207 H230 0.950 . S
C208 C207 1.349 . S
C208 C220 1.349 . S
C209 C207 1.327 . S
C209 C225 1.429 . S
C209 H231 0.950 . S
C210 H206 0.949 . S
C210 C218 1.574 . S
C210 C226 1.368 . S
H211 C219 0.950 . S
H212 C217 0.950 . S
H213 C218 0.949 . S
H214 C220 0.950 . S
H215 C221 0.950 . S
H216 C222 0.949 . S
C217 H212 0.950 . S
C217 C219 1.327 . S
C217 C223 1.429 . S
C218 C210 1.574 . S
C218 H213 0.949 . S
C218 C224 1.368 . S
C219 C203 1.349 . S
C219 H211 0.950 . S
C219 C217 1.327 . S
C220 C208 1.349 . S
C220 H214 0.950 . S
C220 C221 1.327 . S
C221 H215 0.950 . S
C221 C220 1.327 . S
C221 C225 1.429 . S
C222 C205 1.574 . S
C222 H216 0.949 . S
C222 C226 1.368 . S
C223 C204 1.429 . S
C223 C217 1.429 . S
C223 C224 1.523 . S
C224 C205 1.368 . S
C224 C218 1.368 . S
C224 C223 1.523 . S
C225 C209 1.429 . S
C225 C221 1.429 . S
C225 C226 1.523 . S
C226 C210 1.368 . S
C226 C222 1.368 . S
C226 C225 1.523 . S
H227 C202 0.950 . S
H228 C204 0.950 . S
H229 C205 0.949 . S
H230 C207 0.950 . S
H231 C209 0.950 . S
C232 C233 1.349 . S
C232 C234 1.327 . S
C232 H257 0.950 . S
C233 C232 1.349 . S
C233 C249 1.349 . S
C234 C232 1.327 . S
C234 C253 1.429 . S
C234 H258 0.950 . S
C235 C252 1.574 1_565 S
C235 C254 1.368 . S
C235 H259 0.949 . S
H236 C240 0.949 . S
C237 C238 1.349 . S
C237 C239 1.327 . S
C237 H260 0.950 . S
C238 C237 1.349 . S
C238 C250 1.349 . S
C239 C237 1.327 . S
C239 C255 1.429 . S
C239 H261 0.950 . S
C240 H236 0.949 . S
C240 C248 1.574 1_545 S
C240 C256 1.368 . S
H241 C249 0.950 . S
H242 C247 0.950 . S
H243 C248 0.949 . S
H244 C250 0.950 . S
H245 C251 0.950 . S
H246 C252 0.949 . S
C247 H242 0.950 . S
C247 C249 1.327 . S
C247 C253 1.429 . S
C248 C240 1.574 1_565 S
C248 H243 0.949 . S
C248 C254 1.368 . S
C249 C233 1.349 . S
C249 H241 0.950 . S
C249 C247 1.327 . S
C250 C238 1.349 . S
C250 H244 0.950 . S
C250 C251 1.327 . S
C251 H245 0.950 . S
C251 C250 1.327 . S
C251 C255 1.429 . S
C252 C235 1.574 1_545 S
C252 H246 0.949 . S
C252 C256 1.368 . S
C253 C234 1.429 . S
C253 C247 1.429 . S
C253 C254 1.523 . S
C254 C235 1.368 . S
C254 C248 1.368 . S
C254 C253 1.523 . S
C255 C239 1.429 . S
C255 C251 1.429 . S
C255 C256 1.523 . S
C256 C240 1.368 . S
C256 C252 1.368 . S
C256 C255 1.523 . S
H257 C232 0.950 . S
H258 C234 0.950 . S
H259 C235 0.949 . S
H260 C237 0.950 . S
H261 C239 0.950 . S
C262 C263 1.349 . S
C262 C264 1.327 . S
C262 H287 0.950 . S
C263 C262 1.349 . S
C263 C279 1.349 . S
C264 C262 1.327 . S
C264 C283 1.429 . S
C264 H288 0.950 . S
C265 C282 1.574 1_455 S
C265 C284 1.368 . S
C265 H289 0.949 . S
H266 C270 0.949 . S
C267 C268 1.349 . S
C267 C269 1.327 . S
C267 H290 0.950 . S
C268 C267 1.349 . S
C268 C280 1.349 . S
C269 C267 1.327 . S
C269 C285 1.429 . S
C269 H291 0.950 . S
C270 H266 0.949 . S
C270 C278 1.574 1_655 S
C270 C286 1.368 . S
H271 C279 0.950 . S
H272 C277 0.950 . S
H273 C278 0.949 . S
H274 C280 0.950 . S
H275 C281 0.950 . S
H276 C282 0.949 . S
C277 H272 0.950 . S
C277 C279 1.327 . S
C277 C283 1.429 . S
C278 C270 1.574 1_455 S
C278 H273 0.949 . S
C278 C284 1.368 . S
C279 C263 1.349 . S
C279 H271 0.950 . S
C279 C277 1.327 . S
C280 C268 1.349 . S
C280 H274 0.950 . S
C280 C281 1.327 . S
C281 H275 0.950 . S
C281 C280 1.327 . S
C281 C285 1.429 . S
C282 C265 1.574 1_655 S
C282 H276 0.949 . S
C282 C286 1.368 . S
C283 C264 1.429 . S
C283 C277 1.429 . S
C283 C284 1.523 . S
C284 C265 1.368 . S
C284 C278 1.368 . S
C284 C283 1.523 . S
C285 C269 1.429 . S
C285 C281 1.429 . S
C285 C286 1.523 . S
C286 C270 1.368 . S
C286 C282 1.368 . S
C286 C285 1.523 . S
H287 C262 0.950 . S
H288 C264 0.950 . S
H289 C265 0.949 . S
H290 C267 0.950 . S
H291 C269 0.950 . S
C292 C293 1.349 . S
C292 C294 1.327 . S
C292 H317 0.950 . S
C293 C292 1.349 . S
C293 C309 1.349 . S
C294 C292 1.327 . S
C294 C313 1.429 . S
C294 H318 0.950 . S
C295 C312 1.574 1_545 S
C295 C314 1.368 . S
C295 H319 0.949 . S
H296 C300 0.949 . S
C297 C298 1.349 . S
C297 C299 1.327 . S
C297 H320 0.950 . S
C298 C297 1.349 . S
C298 C310 1.349 . S
C299 C297 1.327 . S
C299 C315 1.429 . S
C299 H321 0.950 . S
C300 H296 0.949 . S
C300 C308 1.574 1_565 S
C300 C316 1.368 . S
H301 C309 0.950 . S
H302 C307 0.950 . S
H303 C308 0.949 . S
H304 C310 0.950 . S
H305 C311 0.950 . S
H306 C312 0.949 . S
C307 H302 0.950 . S
C307 C309 1.327 . S
C307 C313 1.429 . S
C308 C300 1.574 1_545 S
C308 H303 0.949 . S
C308 C314 1.368 . S
C309 C293 1.349 . S
C309 H301 0.950 . S
C309 C307 1.327 . S
C310 C298 1.349 . S
C310 H304 0.950 . S
C310 C311 1.327 . S
C311 H305 0.950 . S
C311 C310 1.327 . S
C311 C315 1.429 . S
C312 C295 1.574 1_565 S
C312 H306 0.949 . S
C312 C316 1.368 . S
C313 C294 1.429 . S
C313 C307 1.429 . S
C313 C314 1.523 . S
C314 C295 1.368 . S
C314 C308 1.368 . S
C314 C313 1.523 . S
C315 C299 1.429 . S
C315 C311 1.429 . S
C315 C316 1.523 . S
C316 C300 1.368 . S
C316 C312 1.368 . S
C316 C315 1.523 . S
H317 C292 0.950 . S
H318 C294 0.950 . S
H319 C295 0.949 . S
H320 C297 0.950 . S
H321 C299 0.950 . S
C322 C323 1.349 . S
C322 C324 1.327 . S
C322 H347 0.950 . S
C323 C322 1.349 . S
C323 C339 1.349 . S
C324 C322 1.327 . S
C324 C343 1.429 . S
C324 H348 0.950 . S
C325 C342 1.574 1_655 S
C325 C344 1.368 . S
C325 H349 0.949 . S
H326 C330 0.949 . S
C327 C328 1.349 . S
C327 C329 1.327 . S
C327 H350 0.950 . S
C328 C327 1.349 . S
C328 C340 1.349 . S
C329 C327 1.327 . S
C329 C345 1.429 . S
C329 H351 0.950 . S
C330 H326 0.949 . S
C330 C338 1.574 1_455 S
C330 C346 1.368 . S
H331 C339 0.950 . S
H332 C337 0.950 . S
H333 C338 0.949 . S
H334 C340 0.950 . S
H335 C341 0.950 . S
H336 C342 0.949 . S
C337 H332 0.950 . S
C337 C339 1.327 . S
C337 C343 1.429 . S
C338 C330 1.574 1_655 S
C338 H333 0.949 . S
C338 C344 1.368 . S
C339 C323 1.349 . S
C339 H331 0.950 . S
C339 C337 1.327 . S
C340 C328 1.349 . S
C340 H334 0.950 . S
C340 C341 1.327 . S
C341 H335 0.950 . S
C341 C340 1.327 . S
C341 C345 1.429 . S
C342 C325 1.574 1_455 S
C342 H336 0.949 . S
C342 C346 1.368 . S
C343 C324 1.429 . S
C343 C337 1.429 . S
C343 C344 1.523 . S
C344 C325 1.368 . S
C344 C338 1.368 . S
C344 C343 1.523 . S
C345 C329 1.429 . S
C345 C341 1.429 . S
C345 C346 1.523 . S
C346 C330 1.368 . S
C346 C342 1.368 . S
C346 C345 1.523 . S
H347 C322 0.950 . S
H348 C324 0.950 . S
H349 C325 0.949 . S
H350 C327 0.950 . S
H351 C329 0.950 . S
C352 C353 1.349 . S
C352 C354 1.327 . S
C352 H377 0.950 . S
C353 C352 1.349 . S
C353 C369 1.349 . S
C354 C352 1.327 . S
C354 C373 1.429 . S
C354 H378 0.950 . S
C355 C372 1.574 . S
C355 C374 1.368 . S
C355 H379 0.949 . S
H356 C360 0.949 . S
C357 C358 1.349 . S
C357 C359 1.327 . S
C357 H380 0.950 . S
C358 C357 1.349 . S
C358 C370 1.349 . S
C359 C357 1.327 . S
C359 C375 1.429 . S
C359 H381 0.950 . S
C360 H356 0.949 . S
C360 C368 1.574 . S
C360 C376 1.368 . S
H361 C369 0.950 . S
H362 C367 0.950 . S
H363 C368 0.949 . S
H364 C370 0.950 . S
H365 C371 0.950 . S
H366 C372 0.949 . S
C367 H362 0.950 . S
C367 C369 1.327 . S
C367 C373 1.429 . S
C368 C360 1.574 . S
C368 H363 0.949 . S
C368 C374 1.368 . S
C369 C353 1.349 . S
C369 H361 0.950 . S
C369 C367 1.327 . S
C370 C358 1.349 . S
C370 H364 0.950 . S
C370 C371 1.327 . S
C371 H365 0.950 . S
C371 C370 1.327 . S
C371 C375 1.429 . S
C372 C355 1.574 . S
C372 H366 0.949 . S
C372 C376 1.368 . S
C373 C354 1.429 . S
C373 C367 1.429 . S
C373 C374 1.523 . S
C374 C355 1.368 . S
C374 C368 1.368 . S
C374 C373 1.523 . S
C375 C359 1.429 . S
C375 C371 1.429 . S
C375 C376 1.523 . S
C376 C360 1.368 . S
C376 C372 1.368 . S
C376 C375 1.523 . S
H377 C352 0.950 . S
H378 C354 0.950 . S
H379 C355 0.949 . S
H380 C357 0.950 . S
H381 C359 0.950 . S
C382 C383 1.349 . S
C382 C384 1.327 . S
C382 H407 0.950 . S
C383 C382 1.349 . S
C383 C399 1.349 . S
C384 C382 1.327 . S
C384 C403 1.429 . S
C384 H408 0.950 . S
C385 C402 1.574 . S
C385 C404 1.368 . S
C385 H409 0.949 . S
H386 C390 0.949 . S
C387 C388 1.349 . S
C387 C389 1.327 . S
C387 H410 0.950 . S
C388 C387 1.349 . S
C388 C400 1.349 . S
C389 C387 1.327 . S
C389 C405 1.429 . S
C389 H411 0.950 . S
C390 H386 0.949 . S
C390 C398 1.574 . S
C390 C406 1.368 . S
H391 C399 0.950 . S
H392 C397 0.950 . S
H393 C398 0.949 . S
H394 C400 0.950 . S
H395 C401 0.950 . S
H396 C402 0.949 . S
C397 H392 0.950 . S
C397 C399 1.327 . S
C397 C403 1.429 . S
C398 C390 1.574 . S
C398 H393 0.949 . S
C398 C404 1.368 . S
C399 C383 1.349 . S
C399 H391 0.950 . S
C399 C397 1.327 . S
C400 C388 1.349 . S
C400 H394 0.950 . S
C400 C401 1.327 . S
C401 H395 0.950 . S
C401 C400 1.327 . S
C401 C405 1.429 . S
C402 C385 1.574 . S
C402 H396 0.949 . S
C402 C406 1.368 . S
C403 C384 1.429 . S
C403 C397 1.429 . S
C403 C404 1.523 . S
C404 C385 1.368 . S
C404 C398 1.368 . S
C404 C403 1.523 . S
C405 C389 1.429 . S
C405 C401 1.429 . S
C405 C406 1.523 . S
C406 C390 1.368 . S
C406 C402 1.368 . S
C406 C405 1.523 . S
H407 C382 0.950 . S
H408 C384 0.950 . S
H409 C385 0.949 . S
H410 C387 0.950 . S
H411 C389 0.950 . S
C412 C413 1.349 . S
C412 C414 1.327 . S
C412 H437 0.950 . S
C413 C412 1.349 . S
C413 C429 1.349 . S
C414 C412 1.327 . S
C414 C433 1.429 . S
C414 H438 0.950 . S
C415 C432 1.574 . S
C415 C434 1.368 . S
C415 H439 0.949 . S
H416 C420 0.949 . S
C417 C418 1.349 . S
C417 C419 1.327 . S
C417 H440 0.950 . S
C418 C417 1.349 . S
C418 C430 1.349 . S
C419 C417 1.327 . S
C419 C435 1.429 . S
C419 H441 0.950 . S
C420 H416 0.949 . S
C420 C428 1.574 . S
C420 C436 1.368 . S
H421 C429 0.950 . S
H422 C427 0.950 . S
H423 C428 0.949 . S
H424 C430 0.950 . S
H425 C431 0.950 . S
H426 C432 0.949 . S
C427 H422 0.950 . S
C427 C429 1.327 . S
C427 C433 1.429 . S
C428 C420 1.574 . S
C428 H423 0.949 . S
C428 C434 1.368 . S
C429 C413 1.349 . S
C429 H421 0.950 . S
C429 C427 1.327 . S
C430 C418 1.349 . S
C430 H424 0.950 . S
C430 C431 1.327 . S
C431 H425 0.950 . S
C431 C430 1.327 . S
C431 C435 1.429 . S
C432 C415 1.574 . S
C432 H426 0.949 . S
C432 C436 1.368 . S
C433 C414 1.429 . S
C433 C427 1.429 . S
C433 C434 1.523 . S
C434 C415 1.368 . S
C434 C428 1.368 . S
C434 C433 1.523 . S
C435 C419 1.429 . S
C435 C431 1.429 . S
C435 C436 1.523 . S
C436 C420 1.368 . S
C436 C432 1.368 . S
C436 C435 1.523 . S
H437 C412 0.950 . S
H438 C414 0.950 . S
H439 C415 0.949 . S
H440 C417 0.950 . S
H441 C419 0.950 . S
C442 C443 1.349 . S
C442 C444 1.327 . S
C442 H467 0.950 . S
C443 C442 1.349 . S
C443 C459 1.349 . S
C444 C442 1.327 . S
C444 C463 1.429 . S
C444 H468 0.950 . S
C445 C462 1.574 . S
C445 C464 1.368 . S
C445 H469 0.949 . S
H446 C450 0.949 . S
C447 C448 1.349 . S
C447 C449 1.327 . S
C447 H470 0.950 . S
C448 C447 1.349 . S
C448 C460 1.349 . S
C449 C447 1.327 . S
C449 C465 1.429 . S
C449 H471 0.950 . S
C450 H446 0.949 . S
C450 C458 1.574 . S
C450 C466 1.368 . S
H451 C459 0.950 . S
H452 C457 0.950 . S
H453 C458 0.949 . S
H454 C460 0.950 . S
H455 C461 0.950 . S
H456 C462 0.949 . S
C457 H452 0.950 . S
C457 C459 1.327 . S
C457 C463 1.429 . S
C458 C450 1.574 . S
C458 H453 0.949 . S
C458 C464 1.368 . S
C459 C443 1.349 . S
C459 H451 0.950 . S
C459 C457 1.327 . S
C460 C448 1.349 . S
C460 H454 0.950 . S
C460 C461 1.327 . S
C461 H455 0.950 . S
C461 C460 1.327 . S
C461 C465 1.429 . S
C462 C445 1.574 . S
C462 H456 0.949 . S
C462 C466 1.368 . S
C463 C444 1.429 . S
C463 C457 1.429 . S
C463 C464 1.523 . S
C464 C445 1.368 . S
C464 C458 1.368 . S
C464 C463 1.523 . S
C465 C449 1.429 . S
C465 C461 1.429 . S
C465 C466 1.523 . S
C466 C450 1.368 . S
C466 C462 1.368 . S
C466 C465 1.523 . S
H467 C442 0.950 . S
H468 C444 0.950 . S
H469 C445 0.949 . S
H470 C447 0.950 . S
H471 C449 0.950 . S
C472 C473 1.349 . S
C472 C474 1.327 . S
C472 H497 0.950 . S
C473 C472 1.349 . S
C473 C489 1.349 . S
C474 C472 1.327 . S
C474 C493 1.429 . S
C474 H498 0.950 . S
C475 C492 1.574 . S
C475 C494 1.368 . S
C475 H499 0.949 . S
H476 C480 0.949 . S
C477 C478 1.349 . S
C477 C479 1.327 . S
C477 H500 0.950 . S
C478 C477 1.349 . S
C478 C490 1.349 . S
C479 C477 1.327 . S
C479 C495 1.429 . S
C479 H501 0.950 . S
C480 H476 0.949 . S
C480 C488 1.574 . S
C480 C496 1.368 . S
H481 C489 0.950 . S
H482 C487 0.950 . S
H483 C488 0.949 . S
H484 C490 0.950 . S
H485 C491 0.950 . S
H486 C492 0.949 . S
C487 H482 0.950 . S
C487 C489 1.327 . S
C487 C493 1.429 . S
C488 C480 1.574 . S
C488 H483 0.949 . S
C488 C494 1.368 . S
C489 C473 1.349 . S
C489 H481 0.950 . S
C489 C487 1.327 . S
C490 C478 1.349 . S
C490 H484 0.950 . S
C490 C491 1.327 . S
C491 H485 0.950 . S
C491 C490 1.327 . S
C491 C495 1.429 . S
C492 C475 1.574 . S
C492 H486 0.949 . S
C492 C496 1.368 . S
C493 C474 1.429 . S
C493 C487 1.429 . S
C493 C494 1.523 . S
C494 C475 1.368 . S
C494 C488 1.368 . S
C494 C493 1.523 . S
C495 C479 1.429 . S
C495 C491 1.429 . S
C495 C496 1.523 . S
C496 C480 1.368 . S
C496 C492 1.368 . S
C496 C495 1.523 . S
H497 C472 0.950 . S
H498 C474 0.950 . S
H499 C475 0.949 . S
H500 C477 0.950 . S
H501 C479 0.950 . S
C502 C503 1.349 . S
C502 C504 1.327 1_554 S
C502 H527 0.950 . S
C503 C502 1.349 . S
C503 C519 1.349 . S
C504 C502 1.327 1_556 S
C504 C523 1.429 . S
C504 H528 0.950 . S
C505 C522 1.574 . S
C505 C524 1.368 . S
C505 H529 0.949 . S
H506 C510 0.949 . S
C507 C508 1.349 . S
C507 C509 1.327 . S
C507 H530 0.950 . S
C508 C507 1.349 . S
C508 C520 1.349 . S
C509 C507 1.327 . S
C509 C525 1.429 . S
C509 H531 0.950 . S
C510 H506 0.949 . S
C510 C518 1.574 . S
C510 C526 1.368 . S
H511 C519 0.950 . S
H512 C517 0.950 . S
H513 C518 0.949 . S
H514 C520 0.950 . S
H515 C521 0.950 . S
H516 C522 0.949 . S
C517 H512 0.950 . S
C517 C519 1.327 . S
C517 C523 1.429 1_554 S
C518 C510 1.574 . S
C518 H513 0.949 . S
C518 C524 1.368 . S
C519 C503 1.349 . S
C519 H511 0.950 . S
C519 C517 1.327 . S
C520 C508 1.349 . S
C520 H514 0.950 . S
C520 C521 1.327 . S
C521 H515 0.950 . S
C521 C520 1.327 . S
C521 C525 1.429 . S
C522 C505 1.574 . S
C522 H516 0.949 . S
C522 C526 1.368 . S
C523 C504 1.429 . S
C523 C517 1.429 1_556 S
C523 C524 1.523 . S
C524 C505 1.368 . S
C524 C518 1.368 . S
C524 C523 1.523 . S
C525 C509 1.429 . S
C525 C521 1.429 . S
C525 C526 1.523 . S
C526 C510 1.368 . S
C526 C522 1.368 . S
C526 C525 1.523 . S
H527 C502 0.950 . S
H528 C504 0.950 . S
H529 C505 0.949 . S
H530 C507 0.950 . S
H531 C509 0.950 . S
C532 C533 1.349 . S
C532 C534 1.327 . S
C532 H557 0.950 . S
C533 C532 1.349 . S
C533 C549 1.349 . S
C534 C532 1.327 . S
C534 C553 1.429 . S
C534 H558 0.950 . S
C535 C552 1.574 . S
C535 C554 1.368 . S
C535 H559 0.949 . S
H536 C540 0.949 . S
C537 C538 1.349 . S
C537 C539 1.327 . S
C537 H560 0.950 . S
C538 C537 1.349 . S
C538 C550 1.349 . S
C539 C537 1.327 . S
C539 C555 1.429 . S
C539 H561 0.950 . S
C540 H536 0.949 . S
C540 C548 1.574 . S
C540 C556 1.368 . S
H541 C549 0.950 . S
H542 C547 0.950 . S
H543 C548 0.949 . S
H544 C550 0.950 . S
H545 C551 0.950 . S
H546 C552 0.949 . S
C547 H542 0.950 . S
C547 C549 1.327 . S
C547 C553 1.429 . S
C548 C540 1.574 . S
C548 H543 0.949 . S
C548 C554 1.368 . S
C549 C533 1.349 . S
C549 H541 0.950 . S
C549 C547 1.327 . S
C550 C538 1.349 . S
C550 H544 0.950 . S
C550 C551 1.327 . S
C551 H545 0.950 . S
C551 C550 1.327 . S
C551 C555 1.429 . S
C552 C535 1.574 . S
C552 H546 0.949 . S
C552 C556 1.368 . S
C553 C534 1.429 . S
C553 C547 1.429 . S
C553 C554 1.523 . S
C554 C535 1.368 . S
C554 C548 1.368 . S
C554 C553 1.523 . S
C555 C539 1.429 . S
C555 C551 1.429 . S
C555 C556 1.523 . S
C556 C540 1.368 . S
C556 C552 1.368 . S
C556 C555 1.523 . S
H557 C532 0.950 . S
H558 C534 0.950 . S
H559 C535 0.949 . S
H560 C537 0.950 . S
H561 C539 0.950 . S
C562 C563 1.349 . S
C562 C564 1.327 1_554 S
C562 H587 0.950 . S
C563 C562 1.349 . S
C563 C579 1.349 . S
C564 C562 1.327 1_556 S
C564 C583 1.429 . S
C564 H588 0.950 . S
C565 C582 1.574 . S
C565 C584 1.368 . S
C565 H589 0.949 . S
H566 C570 0.949 . S
C567 C568 1.349 . S
C567 C569 1.327 . S
C567 H590 0.950 . S
C568 C567 1.349 . S
C568 C580 1.349 . S
C569 C567 1.327 . S
C569 C585 1.429 . S
C569 H591 0.950 . S
C570 H566 0.949 . S
C570 C578 1.574 . S
C570 C586 1.368 . S
H571 C579 0.950 . S
H572 C577 0.950 . S
H573 C578 0.949 . S
H574 C580 0.950 . S
H575 C581 0.950 . S
H576 C582 0.949 . S
C577 H572 0.950 . S
C577 C579 1.327 . S
C577 C583 1.429 1_554 S
C578 C570 1.574 . S
C578 H573 0.949 . S
C578 C584 1.368 . S
C579 C563 1.349 . S
C579 H571 0.950 . S
C579 C577 1.327 . S
C580 C568 1.349 . S
C580 H574 0.950 . S
C580 C581 1.327 . S
C581 H575 0.950 . S
C581 C580 1.327 . S
C581 C585 1.429 . S
C582 C565 1.574 . S
C582 H576 0.949 . S
C582 C586 1.368 . S
C583 C564 1.429 . S
C583 C577 1.429 1_556 S
C583 C584 1.523 . S
C584 C565 1.368 . S
C584 C578 1.368 . S
C584 C583 1.523 . S
C585 C569 1.429 . S
C585 C581 1.429 . S
C585 C586 1.523 . S
C586 C570 1.368 . S
C586 C582 1.368 . S
C586 C585 1.523 . S
H587 C562 0.950 . S
H588 C564 0.950 . S
H589 C565 0.949 . S
H590 C567 0.950 . S
H591 C569 0.950 . S
C113 C7 1.496 . S
C118 C49 1.496 . S
C143 C9 1.577 . S
C148 C23 1.577 . S
C173 C21 1.496 . S
C178 C35 1.496 . S
C203 C51 1.577 . S
C208 C37 1.577 . S
C233 C63 1.496 . S
C238 C105 1.496 . S
C263 C79 1.577 . S
C268 C65 1.577 . S
C293 C91 1.496 . S
C298 C77 1.496 . S
C323 C107 1.577 . S
C328 C93 1.577 . S
C353 C92 1.543 . S
C358 C6 1.480 . S
C383 C22 1.543 . S
C388 C104 1.480 . S
C413 C64 1.543 . S
C418 C34 1.480 . S
C443 C76 1.480 . S
C448 C50 1.543 . S
C473 C78 1.543 . S
C478 C48 1.480 . S
C503 C8 1.544 . S
C508 C90 1.480 . S
C533 C20 1.480 . S
C538 C106 1.543 . S
C563 C36 1.544 . S
C568 C62 1.480 . S
