# Generated by pormake.
# Topology fcu, (12)-cn, num edge types: 1
# Building blocks:
#     Node 0, Type 0, BuildingBlock: ENOWUB_clean_sbu_0, # of connection points: 12
#     Node 1, Type 0, BuildingBlock: ENOWUB_clean_sbu_0, # of connection points: 12
#     Node 2, Type 0, BuildingBlock: ENOWUB_clean_sbu_0, # of connection points: 12
#     Node 3, Type 0, BuildingBlock: ENOWUB_clean_sbu_0, # of connection points: 12
#     Edge 4, Type (0, 0), BuildingBlock: TEMPAE_clean_linker_10, # of connection points: 2
#     Edge 5, Type (0, 0), BuildingBlock: TEMPAE_clean_linker_10, # of connection points: 2
#     Edge 6, Type (0, 0), BuildingBlock: TEMPAE_clean_linker_10, # of connection points: 2
#     Edge 7, Type (0, 0), BuildingBlock: TEMPAE_clean_linker_10, # of connection points: 2
#     Edge 8, Type (0, 0), BuildingBlock: TEMPAE_clean_linker_10, # of connection points: 2
#     Edge 9, Type (0, 0), BuildingBlock: TEMPAE_clean_linker_10, # of connection points: 2
#     Edge 10, Type (0, 0), BuildingBlock: TEMPAE_clean_linker_10, # of connection points: 2
#     Edge 11, Type (0, 0), BuildingBlock: TEMPAE_clean_linker_10, # of connection points: 2
#     Edge 12, Type (0, 0), BuildingBlock: TEMPAE_clean_linker_10, # of connection points: 2
#     Edge 13, Type (0, 0), BuildingBlock: TEMPAE_clean_linker_10, # of connection points: 2
#     Edge 14, Type (0, 0), BuildingBlock: TEMPAE_clean_linker_10, # of connection points: 2
#     Edge 15, Type (0, 0), BuildingBlock: TEMPAE_clean_linker_10, # of connection points: 2
#     Edge 16, Type (0, 0), BuildingBlock: TEMPAE_clean_linker_10, # of connection points: 2
#     Edge 17, Type (0, 0), BuildingBlock: TEMPAE_clean_linker_10, # of connection points: 2
#     Edge 18, Type (0, 0), BuildingBlock: TEMPAE_clean_linker_10, # of connection points: 2
#     Edge 19, Type (0, 0), BuildingBlock: TEMPAE_clean_linker_10, # of connection points: 2
#     Edge 20, Type (0, 0), BuildingBlock: TEMPAE_clean_linker_10, # of connection points: 2
#     Edge 21, Type (0, 0), BuildingBlock: TEMPAE_clean_linker_10, # of connection points: 2
#     Edge 22, Type (0, 0), BuildingBlock: TEMPAE_clean_linker_10, # of connection points: 2
#     Edge 23, Type (0, 0), BuildingBlock: TEMPAE_clean_linker_10, # of connection points: 2
#     Edge 24, Type (0, 0), BuildingBlock: TEMPAE_clean_linker_10, # of connection points: 2
#     Edge 25, Type (0, 0), BuildingBlock: TEMPAE_clean_linker_10, # of connection points: 2
#     Edge 26, Type (0, 0), BuildingBlock: TEMPAE_clean_linker_10, # of connection points: 2
#     Edge 27, Type (0, 0), BuildingBlock: TEMPAE_clean_linker_10, # of connection points: 2
# Relax obj value: 0.000
# Max RMSD: 0.000
# Mean RMSD: 0.000
data_MOF--net-fcu--node1-ENOWUB_clean_sbu_0--edge1-TEMPAE_clean_linker_10
_symmetry_space_group_name_H-M    P1
_symmetry_Int_Tables_number       1
_symmetry_cell_setting            triclinic
loop_
_symmetry_equiv_pos_as_xyz
'x, y, z'
_cell_length_a     27.116591
_cell_length_b     27.036751
_cell_length_c     27.088675
_cell_angle_alpha  90.843846
_cell_angle_beta   89.930765
_cell_angle_gamma 89.870543
loop_
_atom_site_label
_atom_site_type_symbol
_atom_site_fract_x
_atom_site_fract_y
_atom_site_fract_z
_atom_type_partial_charge
O0 O 0.14368 0.94226 0.01232 0.0
O1 O 0.04315 0.94673 0.04098 0.0
O2 O 0.03985 0.06308 0.96228 0.0
O3 O 0.06169 0.96507 0.9444 0.0
O4 O 0.02257 0.04308 0.05811 0.0
Zr5 Zr 0.08886 0.01301 0.01159 0.0
Zr6 Zr 0.9764 0.97677 0.08686 0.0
Zr7 Zr 0.01431 0.89966 0.97435 0.0
O8 O 0.92538 0.02617 0.03871 0.0
O9 O 0.96448 0.94886 0.92529 0.0
O10 O 0.94722 0.92823 0.02136 0.0
Zr11 Zr 0.97237 0.0914 0.00836 0.0
Zr12 Zr 0.011 0.0152 0.89652 0.0
Zr13 Zr 0.89779 0.97799 0.97202 0.0
O14 O 0.94346 0.04433 0.94195 0.0
O15 O 0.84303 0.04897 0.97042 0.0
O16 O 0.8754 0.89297 0.95343 0.0
O17 O 0.11105 0.09793 0.031 0.0
O18 O 0.97436 0.14632 0.9388 0.0
O19 O 0.01091 0.84481 0.04425 0.0
O20 O 0.02863 0.8753 0.88873 0.0
O21 O 0.95768 0.11589 0.09319 0.0
O22 O 0.89191 0.96179 0.11107 0.0
O23 O 0.09525 0.03547 0.8735 0.0
O24 O 0.9415 0.01072 0.84123 0.0
O25 O 0.04562 0.98066 0.14223 0.0
O26 O 0.88695 0.11635 -0.00196 0.0
O27 O 0.09979 0.87482 0.98478 0.0
O28 O 0.94518 0.84503 0.95744 0.0
O29 O 0.04146 0.14601 0.02576 0.0
O30 O 0.1124 0.00641 0.09745 0.0
O31 O 0.87518 0.98315 0.88573 0.0
O32 O 0.84333 0.96044 0.04173 0.0
O33 O 0.14333 0.03179 0.94296 0.0
C34 C 0.1395 0.89613 0.0004 0.0
O35 O 0.9616 0.04729 0.14168 0.0
O36 O 0.98842 0.89165 0.11204 0.0
C37 C 0.84724 0.09515 0.98226 0.0
C38 C 0.89841 0.85117 0.95113 0.0
C39 C 0.0881 0.1398 0.03293 0.0
C40 C 0.9871 0.1414 0.89318 0.0
C41 C 0.00104 0.85056 0.09056 0.0
C42 C 0.02994 0.89798 0.84711 0.0
C43 C 0.95684 0.09427 0.13529 0.0
C44 C 0.85008 0.95751 0.08885 0.0
C45 C 0.1369 0.03883 0.89637 0.0
C46 C 0.89637 -0.00334 0.84544 0.0
C47 C 0.09111 0.99328 0.13779 0.0
O48 O 0.02584 0.94512 0.8417 0.0
O49 O 0.00152 0.10081 0.87194 0.0
O50 O 0.13684 0.43449 0.52963 0.0
O51 O 0.03726 0.46309 0.5593 0.0
O52 O 0.04659 0.53807 0.43914 0.0
O53 O 0.05524 0.44047 0.46188 0.0
O54 O 0.0282 0.56002 0.5355 0.0
Zr55 Zr 0.08922 0.50632 0.5067 0.0
Zr56 Zr 0.97521 0.51677 0.58695 0.0
Zr57 Zr 0.00149 0.39867 0.51402 0.0
O58 O 0.93079 0.54741 0.5201 0.0
O59 O 0.95827 0.42891 0.44671 0.0
O60 O 0.93905 0.45091 0.54322 0.0
Zr61 Zr 0.98383 0.59025 0.46849 0.0
Zr62 Zr 0.01099 0.47218 0.3954 0.0
Zr63 Zr 0.89683 0.4816 0.47493 0.0
O64 O 0.94863 0.52555 0.42295 0.0
O65 O 0.84876 0.55332 0.45497 0.0
O66 O 0.8644 0.39933 0.48535 0.0
O67 O 0.12153 0.58872 0.49421 0.0
O68 O 0.98996 0.61002 0.38178 0.0
O69 O 0.98487 0.37764 0.59898 0.0
O70 O 0.01036 0.33939 0.44688 0.0
O71 O 0.97673 0.64857 0.53737 0.0
O72 O 0.88881 0.5224 0.60939 0.0
O73 O 0.09687 0.46496 0.37226 0.0
O74 O 0.94075 0.45735 0.34192 0.0
O75 O 0.04661 0.53219 0.63985 0.0
O76 O 0.90048 0.62036 0.45382 0.0
O77 O 0.08364 0.36891 0.53256 0.0
O78 O 0.92861 0.34815 0.50579 0.0
O79 O 0.05826 0.63914 0.46959 0.0
O80 O 0.11516 0.52454 0.59054 0.0
O81 O 0.87178 0.45895 0.39109 0.0
O82 O 0.84195 0.49643 0.54351 0.0
O83 O 0.14406 0.4897 0.4383 0.0
C84 C 0.12688 0.38846 0.53612 0.0
O85 O 0.96823 0.60385 0.60831 0.0
O86 O 0.9708 0.44869 0.64436 0.0
C87 C 0.85765 0.59975 0.45061 0.0
C88 C 0.88317 0.35684 0.49526 0.0
C89 C 0.10366 0.63068 0.48073 0.0
C90 C 0.00187 0.58674 0.3416 0.0
C91 C 0.97485 0.40131 0.63945 0.0
C92 C 0.01049 0.34344 0.3996 0.0
C93 C 0.97137 0.64469 0.58451 0.0
C94 C 0.84734 0.51274 0.58805 0.0
C95 C 0.13848 0.47369 0.39366 0.0
C96 C 0.89393 0.45313 0.34911 0.0
C97 C 0.09371 0.53215 0.6325 0.0
O98 O 0.0106 0.38423 0.37546 0.0
O99 O 0.01304 0.5404 0.3378 0.0
O100 O 0.61242 0.95906 0.39021 0.0
O101 O 0.53756 0.02758 0.4232 0.0
O102 O 0.54594 0.95031 0.54273 0.0
O103 O 0.5254 0.93073 0.44647 0.0
O104 O 0.55628 0.04769 0.52043 0.0
Zr105 Zr 0.58834 0.98127 0.47455 0.0
Zr106 Zr 0.50356 0.09256 0.46965 0.0
Zr107 Zr 0.47374 0.97623 0.39597 0.0
O108 O 0.46025 0.06216 0.53694 0.0
O109 O 0.42946 0.94548 0.46268 0.0
O110 O 0.43932 0.04273 0.44051 0.0
Zr111 Zr 0.51211 0.01693 0.5875 0.0
Zr112 Zr 0.48162 0.90048 0.51355 0.0
Zr113 Zr 0.3973 0.01156 0.50874 0.0
O114 O 0.44822 0.9656 0.56003 0.0
O115 O 0.37236 0.02394 0.59393 0.0
O116 O 0.34178 0.00277 0.43976 0.0
O117 O 0.64432 0.99257 0.54288 0.0
O118 O 0.51315 0.94814 0.64417 0.0
O119 O 0.4709 0.04497 0.33928 0.0
O120 O 0.47324 0.88847 0.37476 0.0
O121 O 0.5196 0.10398 0.60955 0.0
O122 O 0.43271 0.1461 0.48104 0.0
O123 O 0.5541 0.84837 0.50619 0.0
O124 O 0.39744 0.87247 0.52481 0.0
O125 O 0.587 0.11993 0.45193 0.0
O126 O 0.44168 0.03331 0.64165 0.0
O127 O 0.54335 0.96097 0.34142 0.0
O128 O 0.38712 0.9717 0.37475 0.0
O129 O 0.59857 0.01854 0.6097 0.0
O130 O 0.63779 0.05197 0.45524 0.0
O131 O 0.34632 0.94017 0.52171 0.0
O132 O 0.3706 0.09712 0.51072 0.0
O133 O 0.61882 0.89809 0.48405 0.0
C134 C 0.59004 0.95501 0.34824 0.0
O135 O 0.5138 0.14946 0.53882 0.0
O136 O 0.48723 0.11523 0.38496 0.0
C137 C 0.39447 0.03201 0.63538 0.0
C138 C 0.34623 0.98456 0.39578 0.0
C139 C 0.63963 0.00775 0.58792 0.0
C140 C 0.50134 0.90207 0.64012 0.0
C141 C 0.47645 0.09215 0.34437 0.0
C142 C 0.473 0.84718 0.39813 0.0
C143 C 0.51787 0.1451 0.58598 0.0
C144 C 0.38938 0.13915 0.49912 0.0
C145 C 0.59955 0.85615 0.49484 0.0
C146 C 0.35478 0.89361 0.52572 0.0
C147 C 0.62947 0.09835 0.44946 0.0
O148 O 0.47258 0.84234 0.44535 0.0
O149 O 0.48863 0.87938 0.59989 0.0
O150 O 0.61145 0.39373 0.95098 0.0
O151 O 0.53894 0.42769 0.01971 0.0
O152 O 0.54306 0.54503 0.94283 0.0
O153 O 0.52278 0.44979 0.92406 0.0
O154 O 0.56054 0.52562 0.03916 0.0
Zr155 Zr 0.58881 0.47829 0.97193 0.0
Zr156 Zr 0.50933 0.4752 0.08588 0.0
Zr157 Zr 0.47227 0.39997 0.97185 0.0
O158 O 0.46294 0.5418 0.05778 0.0
O159 O 0.42518 0.46598 0.94264 0.0
O160 O 0.44298 0.44606 0.03907 0.0
Zr161 Zr 0.51328 0.59123 0.00949 0.0
Zr162 Zr 0.47639 0.51673 0.89616 0.0
Zr163 Zr 0.39714 0.51275 0.01036 0.0
O164 O 0.44637 0.5638 0.96221 0.0
O165 O 0.37459 0.5974 0.03148 0.0
O166 O 0.34252 0.44197 0.00986 0.0
O167 O 0.64336 0.5492 0.97301 0.0
O168 O 0.5111 0.64765 0.94095 0.0
O169 O 0.4749 0.3442 0.04103 0.0
O170 O 0.45732 0.37723 0.88594 0.0
O171 O 0.52388 0.61439 0.09528 0.0
O172 O 0.4388 0.47498 0.13984 0.0
O173 O 0.54648 0.51367 0.84162 0.0
O174 O 0.39245 0.53799 0.87259 0.0
O175 O 0.59377 0.46169 0.1108 0.0
O176 O 0.44409 0.64544 0.02744 0.0
O177 O 0.54175 0.34583 0.9535 0.0
O178 O 0.3869 0.37478 0.98197 0.0
O179 O 0.59892 0.61626 0.00117 0.0
O180 O 0.6427 0.45934 0.04162 0.0
O181 O 0.34338 0.53172 0.94126 0.0
O182 O 0.37263 0.50332 0.09564 0.0
O183 O 0.613 0.48708 0.88642 0.0
C184 C 0.58853 0.35205 0.94737 0.0
O185 O 0.52029 0.54493 0.14271 0.0
O186 O 0.50306 0.38869 0.10811 0.0
C187 C 0.39747 0.63917 0.03435 0.0
C188 C 0.34697 0.3959 -0.00235 0.0
C189 C 0.63896 0.59517 0.98569 0.0
C190 C 0.5027 0.64238 0.89437 0.0
C191 C 0.48863 0.3484 0.08645 0.0
C192 C 0.45669 0.40068 0.84474 0.0
C193 C 0.5235 0.59214 0.13704 0.0
C194 C 0.39335 0.4879 0.13542 0.0
C195 C 0.59203 0.50111 0.84623 0.0
C196 C 0.35037 0.53998 0.89495 0.0
C197 C 0.63567 0.45685 0.08874 0.0
O198 O 0.46188 0.44777 0.8401 0.0
O199 O 0.49059 0.60165 0.87215 0.0
C200 C 0.94708 0.10807 0.22659 0.0
C201 C 0.95644 0.12682 0.17947 0.0
C202 C 0.95261 0.13816 0.2689 0.0
C203 C 0.96831 0.18768 0.26362 0.0
C204 C 0.97674 0.20698 0.21614 0.0
C205 C 0.97029 0.17648 0.17472 0.0
C206 C 0.94157 0.1171 0.319 0.0
C207 C -0.00606 0.2596 0.20899 0.0
C208 C 0.95109 0.29323 0.35324 0.0
C209 C -0.00088 0.29894 0.37106 0.0
C210 C 0.93906 0.25371 0.32184 0.0
C211 C 0.97655 0.22018 0.3071 0.0
C212 C 0.02452 0.22416 0.32764 0.0
C213 C 0.03525 0.26372 0.35991 0.0
C214 C 0.8873 0.25032 0.30157 0.0
C215 C 0.06535 0.18899 0.3126 0.0
H216 H 0.936 0.06982 0.23043 0.0
H217 H 0.97809 0.19129 0.13858 0.0
H218 H 0.9716 0.12588 0.34546 0.0
H219 H 0.90728 0.13422 0.33375 0.0
H220 H 0.93641 0.07636 0.31735 0.0
H221 H -0.00036 0.26845 0.16947 0.0
H222 H 0.96646 0.28594 0.22465 0.0
H223 H 0.02918 0.26581 0.2289 0.0
H224 H 0.92321 0.32062 0.36284 0.0
H225 H 0.07222 0.26846 0.37442 0.0
H226 H 0.87502 0.21128 0.29875 0.0
H227 H 0.88651 0.2659 0.26391 0.0
H228 H 0.86059 0.27142 0.32489 0.0
H229 H 0.05242 0.15013 0.31398 0.0
H230 H 0.09835 0.19307 0.33657 0.0
H231 H 0.0764 0.19633 0.27393 0.0
C232 C 0.80384 0.98293 0.16363 0.0
C233 C 0.80664 0.95297 0.12112 0.0
C234 C 0.76438 0.979 0.19657 0.0
C235 C 0.72731 0.94324 0.18748 0.0
C236 C 0.72976 0.91286 0.14441 0.0
C237 C 0.76924 0.91862 0.11116 0.0
C238 C 0.76272 0.01297 0.24139 0.0
C239 C 0.69152 0.87357 0.1342 0.0
C240 C 0.66195 0.91428 0.30686 0.0
C241 C 0.62081 0.94551 0.30419 0.0
C242 C 0.69471 0.90951 0.26693 0.0
C243 C 0.68684 0.93791 0.22408 0.0
C244 C 0.6438 0.9674 0.22027 0.0
C245 C 0.61093 0.97035 0.26025 0.0
C246 C 0.73938 0.87655 0.27195 0.0
C247 C 0.63446 -0.00099 0.17574 0.0
H248 H 0.83261 0.00987 0.17097 0.0
H249 H 0.77174 0.89528 0.07835 0.0
H250 H 0.72706 0.03316 0.24278 0.0
H251 H 0.76544 0.99092 0.2755 0.0
H252 H 0.79311 0.04047 0.24154 0.0
H253 H 0.69817 0.85369 0.09861 0.0
H254 H 0.69171 0.84626 0.16438 0.0
H255 H 0.65417 0.89035 0.1334 0.0
H256 H 0.66909 0.89439 0.3406 0.0
H257 H 0.57907 -0.00544 0.25821 0.0
H258 H 0.77257 0.89969 0.27832 0.0
H259 H 0.7456 0.85467 0.23752 0.0
H260 H 0.73566 0.85073 0.30328 0.0
H261 H 0.66089 0.0303 0.17583 0.0
H262 H 0.59643 0.01438 0.17552 0.0
H263 H 0.64048 0.97744 0.14112 0.0
C264 C 0.02213 0.812 0.17036 0.0
C265 C 0.00514 0.80678 0.12181 0.0
C266 C 0.02475 0.77119 0.20137 0.0
C267 C 0.00884 0.72435 0.18364 0.0
C268 C -0.00704 0.71857 0.13414 0.0
C269 C 0.9917 0.75996 0.10356 0.0
C270 C 0.043 0.77862 0.25364 0.0
C271 C 0.9748 0.6695 0.11413 0.0
C272 C 0.04231 0.61665 0.26512 0.0
C273 C 0.00138 0.61602 0.29658 0.0
C274 C 0.04459 0.65046 0.22634 0.0
C275 C 0.00445 0.68309 0.21868 0.0
C276 C 0.96163 0.67981 0.24833 0.0
C277 C 0.96094 0.64673 0.28747 0.0
C278 C 0.09092 0.65329 0.19558 0.0
C279 C 0.91753 0.71299 0.24039 0.0
H280 H 0.03334 0.84813 0.18413 0.0
H281 H 0.97846 0.75602 0.06595 0.0
H282 H 0.01201 0.77365 0.27988 0.0
H283 H 0.07152 0.7506 0.2624 0.0
H284 H 0.05886 0.81605 0.25987 0.0
H285 H 0.97461 0.66847 0.07312 0.0
H286 H -0.00221 0.63847 0.12747 0.0
H287 H 0.93654 0.66336 0.12723 0.0
H288 H 0.07353 0.59276 0.27255 0.0
H289 H 0.92911 0.64555 0.31173 0.0
H290 H 0.11009 0.68871 0.2037 0.0
H291 H 0.08169 0.65281 0.15569 0.0
H292 H 0.11674 0.62234 0.2031 0.0
H293 H 0.92727 0.75171 0.25031 0.0
H294 H 0.88531 0.70195 0.26306 0.0
H295 H 0.9066 0.71228 0.20093 0.0
C296 C 0.2597 0.00824 0.37716 0.0
C297 C 0.30106 0.97872 0.36671 0.0
C298 C 0.21887 0.00745 0.34577 0.0
C299 C 0.21982 0.97621 0.30352 0.0
C300 C 0.25957 0.94321 0.29524 0.0
C301 C 0.29998 0.94501 0.32699 0.0
C302 C 0.17666 0.04279 0.35566 0.0
C303 C 0.26122 0.90882 0.25077 0.0
C304 C 0.10946 0.95953 0.22062 0.0
C305 C 0.12161 0.99158 0.18224 0.0
C306 C 0.14033 0.95513 0.26161 0.0
C307 C 0.18383 0.98368 0.26387 0.0
C308 C 0.19518 0.01752 0.22619 0.0
C309 C 0.1639 0.02091 0.18561 0.0
C310 C 0.12753 0.91852 0.30119 0.0
C311 C 0.24122 0.04895 0.22784 0.0
H312 H 0.26025 0.03393 0.40827 0.0
H313 H 0.33143 0.92112 0.31973 0.0
H314 H 0.17854 0.07374 0.32926 0.0
H315 H 0.14071 0.02405 0.35002 0.0
H316 H 0.17784 0.05854 0.39375 0.0
H317 H 0.29127 0.88099 0.25348 0.0
H318 H 0.22564 0.88913 0.24625 0.0
H319 H 0.26733 0.9307 0.21696 0.0
H320 H 0.07675 0.93665 0.21788 0.0
H321 H 0.17284 0.04621 0.15624 0.0
H322 H 0.13254 0.93524 0.33849 0.0
H323 H 0.15269 0.88619 0.2983 0.0
H324 H 0.08899 0.90505 0.29775 0.0
H325 H 0.24301 0.07012 0.26319 0.0
H326 H 0.2429 0.07548 0.19695 0.0
H327 H 0.27434 0.02482 0.22587 0.0
C328 C 0.00369 0.88321 0.76023 0.0
C329 C 0.02949 0.86701 0.8019 0.0
C330 C -0.00537 0.85106 0.72027 0.0
C331 C 0.01259 0.802 0.72182 0.0
C332 C 0.04163 0.78654 0.76221 0.0
C333 C 0.04924 0.81911 0.80215 0.0
C334 C 0.96369 0.86873 0.67769 0.0
C335 C 0.06317 0.73503 0.76396 0.0
C336 C 0.94651 0.69697 0.65647 0.0
C337 C 0.9762 0.68983 0.61473 0.0
C338 C 0.95656 0.73525 0.69036 0.0
C339 C -0.00164 0.76566 0.68302 0.0
C340 C 0.02787 0.75911 0.6403 0.0
C341 C 0.01569 0.72182 0.60604 0.0
C342 C 0.92371 0.74176 0.73506 0.0
C343 C 0.07321 0.79004 0.63125 0.0
H344 H 0.98799 0.92012 0.76002 0.0
H345 H 0.06957 0.80671 0.83413 0.0
H346 H 0.98387 0.86292 0.64242 0.0
H347 H 0.92919 0.8468 0.6754 0.0
H348 H 0.95376 0.90851 0.68143 0.0
H349 H 0.08832 0.73028 0.7959 0.0
H350 H 0.03303 0.70751 0.76664 0.0
H351 H 0.0839 0.72665 0.72947 0.0
H352 H 0.91615 0.67188 0.66312 0.0
H353 H 0.03908 0.71557 0.57409 0.0
H354 H 0.91182 0.78093 0.73895 0.0
H355 H 0.94455 0.73232 0.76888 0.0
H356 H 0.89039 0.71798 0.73299 0.0
H357 H 0.06205 0.82509 0.61362 0.0
H358 H 0.09956 0.77057 0.60624 0.0
H359 H 0.09274 0.79949 0.66608 0.0
C360 C 0.22594 0.02573 0.8768 0.0
C361 C 0.18091 0.04872 0.86603 0.0
C362 C 0.26579 0.02827 0.84385 0.0
C363 C 0.26061 0.05527 0.79975 0.0
C364 C 0.2167 0.08216 0.791 0.0
C365 C 0.17705 0.07797 0.82392 0.0
C366 C 0.31197 -0.001 0.85438 0.0
C367 C 0.21043 0.11275 0.74524 0.0
C368 C 0.37134 0.07376 0.7153 0.0
C369 C 0.36256 0.03732 0.6791 0.0
C370 C 0.33872 0.08016 0.75533 0.0
C371 C 0.29719 0.04869 0.75931 0.0
C372 C 0.28933 0.01086 0.72348 0.0
C373 C 0.32178 0.00608 0.68356 0.0
C374 C 0.34773 0.12172 0.79198 0.0
C375 C 0.24624 0.9757 0.7269 0.0
H376 H 0.22903 0.00317 0.90942 0.0
H377 H 0.14252 0.09655 0.81603 0.0
H378 H 0.31435 0.96702 0.82831 0.0
H379 H 0.34522 0.02206 0.84863 0.0
H380 H 0.3125 0.98482 0.89267 0.0
H381 H 0.1775 0.13721 0.74764 0.0
H382 H 0.24355 0.13589 0.73905 0.0
H383 H 0.20623 0.08788 0.71257 0.0
H384 H 0.40272 0.09822 0.71144 0.0
H385 H 0.31539 0.97755 0.65574 0.0
H386 H 0.33967 0.11009 0.83024 0.0
H387 H 0.32277 0.15303 0.78348 0.0
H388 H 0.38634 0.13523 0.79027 0.0
H389 H 0.24612 0.9575 0.76335 0.0
H390 H 0.24716 0.94656 0.69755 0.0
H391 H 0.21111 -0.00349 0.72366 0.0
C392 C 0.98968 0.38505 0.72841 0.0
C393 C 0.96824 0.37103 0.68338 0.0
C394 C 0.99023 0.3523 0.76809 0.0
C395 C 0.96792 0.30526 0.76239 0.0
C396 C 0.94295 0.29269 0.71815 0.0
C397 C 0.94392 0.3256 0.6789 0.0
C398 C 0.01756 0.36663 0.81464 0.0
C399 C 0.9178 0.24326 0.71112 0.0
C400 C 0.01896 0.19261 0.82505 0.0
C401 C 0.9843 0.1856 0.86255 0.0
C402 C 0.01545 0.23321 0.79388 0.0
C403 C 0.97559 0.26673 0.79976 0.0
C404 C 0.94112 0.2605 0.8384 0.0
C405 C 0.94623 0.2201 0.86981 0.0
C406 C 0.05343 0.23918 0.75355 0.0
C407 C 0.89762 0.29495 0.84505 0.0
H408 H 0.00856 0.42027 0.7316 0.0
H409 H 0.92675 0.31525 0.64411 0.0
H410 H -0.00489 0.35832 0.84774 0.0
H411 H 0.052 0.34454 0.81704 0.0
H412 H 0.02746 0.40649 0.81557 0.0
H413 H 0.89498 0.24185 0.67708 0.0
H414 H 0.946 0.21353 0.70851 0.0
H415 H 0.89388 0.23515 0.74324 0.0
H416 H 0.04876 0.16618 0.82 0.0
H417 H 0.91929 0.21439 0.89879 0.0
H418 H 0.06848 0.27732 0.75436 0.0
H419 H 0.03585 0.23323 0.71698 0.0
H420 H 0.08452 0.21262 0.75699 0.0
H421 H 0.87726 0.28807 0.8799 0.0
H422 H 0.87175 0.28985 0.81369 0.0
H423 H 0.90985 0.33406 0.84497 0.0
C424 C 0.72584 0.98237 0.60592 0.0
C425 C 0.68467 0.01179 0.61751 0.0
C426 C 0.76659 0.9814 0.63743 0.0
C427 C 0.76586 0.01087 0.68093 0.0
C428 C 0.72601 0.04336 0.69086 0.0
C429 C 0.68564 0.04324 0.659 0.0
C430 C 0.80867 0.94634 0.62599 0.0
C431 C 0.72449 0.0758 0.73678 0.0
C432 C 0.82481 0.96606 0.79735 0.0
C433 C 0.86605 -0.00309 0.80074 0.0
C434 C 0.79319 0.96855 0.75692 0.0
C435 C 0.80304 0.00309 0.71947 0.0
C436 C 0.84577 0.03283 0.72151 0.0
C437 C 0.87709 0.02921 0.76227 0.0
C438 C 0.74807 0.9358 0.75545 0.0
C439 C 0.85699 0.07015 0.68212 0.0
H440 H 0.7252 0.95817 0.57365 0.0
H441 H 0.65422 0.06682 0.66735 0.0
H442 H 0.84468 0.96493 0.63167 0.0
H443 H 0.80719 0.91467 0.65154 0.0
H444 H 0.807 0.93164 0.58751 0.0
H445 H 0.69371 0.10296 0.73596 0.0
H446 H 0.71978 0.05237 0.76974 0.0
H447 H 0.75967 0.09621 0.7413 0.0
H448 H 0.8168 0.94043 0.82671 0.0
H449 H 0.90907 0.0531 0.76492 0.0
H450 H 0.74578 0.91581 0.71948 0.0
H451 H 0.71435 0.95888 0.75924 0.0
H452 H 0.74811 0.9082 0.78545 0.0
H453 H 0.85352 0.05304 0.64482 0.0
H454 H 0.89461 0.08592 0.6861 0.0
H455 H 0.82988 0.10089 0.68448 0.0
C456 C 0.29655 0.32254 0.97422 0.0
C457 C 0.30364 0.36415 0.00469 0.0
C458 C 0.25737 0.29014 0.98259 0.0
C459 C 0.22528 0.29913 0.02306 0.0
C460 C 0.23186 0.34145 0.05362 0.0
C461 C 0.27083 0.37382 0.04374 0.0
C462 C 0.25094 0.24573 0.94869 0.0
C463 C 0.199 0.35156 0.09769 0.0
C464 C 0.10588 0.2279 0.01473 0.0
C465 C 0.11881 0.1843 0.03895 0.0
C466 C 0.13929 0.26718 0.01162 0.0
C467 C 0.18617 0.2628 0.03402 0.0
C468 C 0.19774 0.22057 0.06205 0.0
C469 C 0.164 0.18153 0.06379 0.0
C470 C 0.12588 0.31153 0.98112 0.0
C471 C 0.24703 0.21514 0.08738 0.0
H472 H 0.32179 0.31527 0.94388 0.0
H473 H 0.27672 0.40571 0.06774 0.0
H474 H 0.2565 0.21125 0.9697 0.0
H475 H 0.21287 0.24484 0.93373 0.0
H476 H 0.27731 0.24576 0.91727 0.0
H477 H 0.20665 0.38808 0.11537 0.0
H478 H 0.15963 0.3503 0.08667 0.0
H479 H 0.20467 0.3224 0.12554 0.0
H480 H 0.07101 0.23006 -0.00469 0.0
H481 H 0.17376 0.14803 0.08309 0.0
H482 H 0.14784 0.3109 0.94651 0.0
H483 H 0.13488 0.34636 0.00125 0.0
H484 H 0.08613 0.312 0.97122 0.0
H485 H 0.27627 0.20902 0.05925 0.0
H486 H 0.24753 0.18352 0.11313 0.0
H487 H 0.25646 0.24941 0.10829 0.0
C488 C 0.32147 0.68087 0.06549 0.0
C489 C 0.36693 0.68375 0.04114 0.0
C490 C 0.28807 0.72035 0.06436 0.0
C491 C 0.30027 0.76308 0.0374 0.0
C492 C 0.34751 0.76756 0.01575 0.0
C493 C 0.38055 0.72783 0.01823 0.0
C494 C 0.2384 0.71484 0.08896 0.0
C495 C 0.3617 0.81237 0.98633 0.0
C496 C 0.19091 0.82349 0.9766 0.0
C497 C 0.18295 0.86455 0.00761 0.0
C498 C 0.23018 0.79113 0.98507 0.0
C499 C 0.26138 0.79959 0.02622 0.0
C500 C 0.25399 0.84145 0.05727 0.0
C501 C 0.21499 0.87385 0.04725 0.0
C502 C 0.2376 0.74728 0.95059 0.0
C503 C 0.28609 0.85103 0.1019 0.0
H504 H 0.31124 0.64701 0.08385 0.0
H505 H 0.41568 0.73011 -0.00076 0.0
H506 H 0.22867 0.74889 0.11019 0.0
H507 H 0.20963 0.70921 0.06035 0.0
H508 H 0.23751 0.68288 0.11427 0.0
H509 H 0.40211 0.81409 0.97982 0.0
H510 H 0.34293 0.81073 0.94996 0.0
H511 H 0.34979 0.84699 0.00533 0.0
H512 H 0.16627 0.81661 0.94576 0.0
H513 H 0.20843 0.90542 0.07156 0.0
H514 H 0.23182 0.71244 0.97093 0.0
H515 H 0.27598 0.74672 0.93633 0.0
H516 H 0.21189 0.74777 0.9187 0.0
H517 H 0.2811 0.82088 0.12879 0.0
H518 H 0.27721 0.88681 0.12061 0.0
H519 H 0.32556 0.85111 0.09111 0.0
C520 C 0.60615 0.26355 0.96386 0.0
C521 C 0.61933 0.30758 0.94064 0.0
C522 C 0.6396 0.22414 0.9666 0.0
C523 C 0.68676 0.22883 0.94479 0.0
C524 C 0.69859 0.27153 0.91764 0.0
C525 C 0.66481 0.31072 0.91631 0.0
C526 C 0.62593 0.17933 -0.00373 0.0
C527 C 0.74818 0.27732 0.89293 0.0
C528 C 0.7963 0.16837 0.0055 0.0
C529 C 0.80395 0.12698 0.97481 0.0
C530 C 0.75723 0.20097 -0.00315 0.0
C531 C 0.72588 0.19242 0.95583 0.0
C532 C 0.73308 0.15036 0.92497 0.0
C533 C 0.77188 0.11774 0.93518 0.0
C534 C 0.75014 0.24509 0.03108 0.0
C535 C 0.70102 0.1408 0.88031 0.0
H536 H 0.57106 0.26113 0.98291 0.0
H537 H 0.67475 0.34458 0.8978 0.0
H538 H 0.63559 0.14478 0.97587 0.0
H539 H 0.6472 0.17961 0.03126 0.0
H540 H 0.586 0.17862 0.00546 0.0
H541 H 0.74879 0.30916 0.86746 0.0
H542 H 0.77697 0.28333 0.92146 0.0
H543 H 0.75818 0.24325 0.87186 0.0
H544 H 0.821 0.1753 0.03628 0.0
H545 H 0.77825 0.08601 0.91103 0.0
H546 H 0.71181 0.24594 0.04548 0.0
H547 H 0.756 0.27977 0.01052 0.0
H548 H 0.77596 0.2447 0.06289 0.0
H549 H 0.70972 0.1049 0.86176 0.0
H550 H 0.70627 0.17082 0.85331 0.0
H551 H 0.66152 0.14101 0.89098 0.0
C552 C 0.82277 0.80895 0.92053 0.0
C553 C 0.86773 0.80663 0.94579 0.0
C554 C 0.78905 0.76992 0.92267 0.0
C555 C 0.80035 0.72824 0.95161 0.0
C556 C 0.84697 0.72437 0.97466 0.0
C557 C 0.8804 0.76359 0.97109 0.0
C558 C 0.74011 0.77479 0.8966 0.0
C559 C 0.86011 0.68073 0.00625 0.0
C560 C 0.68897 0.66871 0.00979 0.0
C561 C 0.68252 0.62687 0.97947 0.0
C562 C 0.72832 0.70109 0.00203 0.0
C563 C 0.76127 0.69181 0.96233 0.0
C564 C 0.75541 0.6492 0.93202 0.0
C565 C 0.71625 0.61688 0.94129 0.0
C566 C 0.73394 0.74585 0.03564 0.0
C567 C 0.78935 0.63872 0.88886 0.0
H568 H 0.81324 0.84206 0.90049 0.0
H569 H 0.91507 0.76187 0.99091 0.0
H570 H 0.7312 0.74022 0.87594 0.0
H571 H 0.71045 0.78102 0.92427 0.0
H572 H 0.73978 0.8061 0.87049 0.0
H573 H 0.90006 0.67978 0.01523 0.0
H574 H 0.83903 0.68305 0.04135 0.0
H575 H 0.84997 0.64544 0.98754 0.0
H576 H 0.66306 0.67624 0.0395 0.0
H577 H 0.71096 0.58477 0.91743 0.0
H578 H 0.72859 0.78011 0.01422 0.0
H579 H 0.77174 0.74709 0.05125 0.0
H580 H 0.70702 0.74599 0.06659 0.0
H581 H 0.7855 0.66838 0.86124 0.0
H582 H 0.78129 0.60263 0.87046 0.0
H583 H 0.82834 0.63871 0.90122 0.0
C584 C 0.61111 0.5374 0.76469 0.0
C585 C 0.62307 0.50425 0.8022 0.0
C586 C 0.64235 0.54307 0.72412 0.0
C587 C 0.68607 0.5147 0.72138 0.0
C588 C 0.69737 0.47992 0.75824 0.0
C589 C 0.66572 0.47528 0.79845 0.0
C590 C 0.62958 0.58083 0.6856 0.0
C591 C 0.74355 0.4485 0.75593 0.0
C592 C 0.76056 0.49105 0.6069 0.0
C593 C 0.80249 0.51945 0.61752 0.0
C594 C 0.72005 0.49201 0.63874 0.0
C595 C 0.72181 0.52244 0.68153 0.0
C596 C 0.76209 0.55454 0.68997 0.0
C597 C 0.80234 0.55239 0.65787 0.0
C598 C 0.67729 0.45758 0.62875 0.0
C599 C 0.76436 0.58834 0.73483 0.0
H600 H 0.57818 0.56007 0.76778 0.0
H601 H 0.67455 0.44918 0.82716 0.0
H602 H 0.6524 0.61438 0.69169 0.0
H603 H 0.63765 0.56653 0.64785 0.0
H604 H 0.59013 0.59189 0.68754 0.0
H605 H 0.74531 0.42138 0.78631 0.0
H606 H 0.74541 0.428 0.72019 0.0
H607 H 0.77658 0.47256 0.7583 0.0
H608 H 0.76048 0.4659 0.57534 0.0
H609 H 0.83431 0.57535 0.66527 0.0
H610 H 0.64168 0.47723 0.63408 0.0
H611 H 0.67831 0.42675 0.65535 0.0
H612 H 0.67847 0.4416 0.59074 0.0
H613 H 0.72896 0.60844 0.73987 0.0
H614 H 0.79465 0.61578 0.73216 0.0
H615 H 0.77049 0.56597 0.76831 0.0
C616 C 0.16922 0.509 0.67796 0.0
C617 C 0.12641 0.53791 0.67559 0.0
C618 C 0.20171 0.51348 0.71781 0.0
C619 C 0.19179 0.54868 0.75577 0.0
C620 C 0.14841 0.57797 0.75375 0.0
C621 C 0.11582 0.57184 0.71375 0.0
C622 C 0.24679 0.48051 0.71909 0.0
C623 C 0.13717 0.61683 0.79274 0.0
C624 C 0.26275 0.52309 0.87289 0.0
C625 C 0.30651 0.54907 0.86419 0.0
C626 C 0.22346 0.525 0.8393 0.0
C627 C 0.22775 0.55455 0.79678 0.0
C628 C 0.27024 0.58409 0.79014 0.0
C629 C 0.30951 0.58036 0.82354 0.0
C630 C 0.17899 0.4926 0.84741 0.0
C631 C 0.27543 0.61737 0.74619 0.0
H632 H 0.17706 0.48225 0.64873 0.0
H633 H 0.08284 0.59447 0.71162 0.0
H634 H 0.28067 0.50334 0.71739 0.0
H635 H 0.24785 0.46 0.75426 0.0
H636 H 0.24764 0.45331 0.68794 0.0
H637 H 0.09809 0.62914 0.79129 0.0
H638 H 0.14506 0.603 0.83027 0.0
H639 H 0.16109 0.64944 0.78673 0.0
H640 H 0.26041 0.4988 0.9043 0.0
H641 H 0.3431 0.60104 0.8172 0.0
H642 H 0.17863 0.46237 0.81925 0.0
H643 H 0.14449 0.51419 0.84294 0.0
H644 H 0.17899 0.47583 0.88461 0.0
H645 H 0.2813 0.59454 0.71232 0.0
H646 H 0.30699 0.64324 0.7503 0.0
H647 H 0.24119 0.6392 0.74086 0.0
C648 C 0.18206 0.43533 0.32224 0.0
C649 C 0.18316 0.46646 0.36399 0.0
C650 C 0.22198 0.43336 0.28976 0.0
C651 C 0.26338 0.46366 0.29938 0.0
C652 C 0.26637 0.49208 0.34344 0.0
C653 C 0.22605 0.493 0.37554 0.0
C654 C 0.21807 0.40209 0.24322 0.0
C655 C 0.31017 0.52479 0.3546 0.0
C656 C 0.37295 0.44823 0.2149 0.0
C657 C 0.36216 0.48364 0.17916 0.0
C658 C 0.34158 0.44177 0.25524 0.0
C659 C 0.29915 0.47187 0.25969 0.0
C660 C 0.289 0.50874 0.22455 0.0
C661 C 0.32063 0.51398 0.18442 0.0
C662 C 0.35287 0.40182 0.29199 0.0
C663 C 0.24408 0.54182 0.22862 0.0
H664 H 0.1493 0.41384 0.31396 0.0
H665 H 0.22709 0.51683 0.40807 0.0
H666 H 0.2117 0.42643 0.21121 0.0
H667 H 0.25285 0.38148 0.23621 0.0
H668 H 0.18721 0.37521 0.24506 0.0
H669 H 0.31026 0.53814 0.39359 0.0
H670 H 0.34522 0.50485 0.34702 0.0
H671 H 0.30913 0.55746 0.33028 0.0
H672 H 0.40502 0.42454 0.21053 0.0
H673 H 0.31273 0.54173 0.157 0.0
H674 H 0.32407 0.37278 0.28988 0.0
H675 H 0.35226 0.41728 0.33015 0.0
H676 H 0.38934 0.38417 0.28514 0.0
H677 H 0.2101 0.51918 0.22556 0.0
H678 H 0.24314 0.57028 0.19946 0.0
H679 H 0.24326 0.56083 0.26519 0.0
C680 C 0.71537 0.41631 0.11231 0.0
C681 C 0.67881 0.45203 0.12119 0.0
C682 C 0.75428 0.41007 0.14604 0.0
C683 C 0.75703 0.44131 0.18847 0.0
C684 C 0.72083 0.47839 0.19646 0.0
C685 C 0.6819 0.48281 0.16306 0.0
C686 C 0.79156 0.36939 0.13705 0.0
C687 C 0.72289 0.51327 0.24055 0.0
C688 C 0.821 0.41366 0.30882 0.0
C689 C 0.86289 0.4436 0.3054 0.0
C690 C 0.78835 0.40876 0.26892 0.0
C691 C 0.79711 0.43578 0.22536 0.0
C692 C 0.8408 0.46396 0.22089 0.0
C693 C 0.87354 0.46702 0.26085 0.0
C694 C 0.74292 0.37716 0.27463 0.0
C695 C 0.85107 0.49411 0.17555 0.0
H696 H 0.71256 0.3923 0.08003 0.0
H697 H 0.65372 0.51072 0.16957 0.0
H698 H 0.82937 0.38492 0.13637 0.0
H699 H 0.79018 0.34273 0.16778 0.0
H700 H 0.78485 0.34903 0.10178 0.0
H701 H 0.69315 0.54159 0.2399 0.0
H702 H 0.71936 0.49208 0.27513 0.0
H703 H 0.759 0.53249 0.24172 0.0
H704 H 0.81328 0.39484 0.34305 0.0
H705 H 0.90599 0.49022 0.25825 0.0
H706 H 0.73625 0.35476 0.24066 0.0
H707 H 0.71027 0.40134 0.28056 0.0
H708 H 0.74601 0.35192 0.3065 0.0
H709 H 0.84513 0.47167 0.14149 0.0
H710 H 0.88931 0.50878 0.1752 0.0
H711 H 0.82506 0.52583 0.1745 0.0
C712 C 0.29707 0.83126 0.55847 0.0
C713 C 0.31238 0.86148 0.52017 0.0
C714 C 0.25899 0.7972 0.55063 0.0
C715 C 0.23781 0.79255 0.50295 0.0
C716 C 0.2527 0.82405 0.46455 0.0
C717 C 0.28963 0.85874 0.47394 0.0
C718 C 0.24246 0.76522 0.59276 0.0
C719 C 0.23211 0.81916 0.41289 0.0
C720 C 0.18809 0.66536 0.47475 0.0
C721 C 0.13738 0.67301 0.48095 0.0
C722 C 0.22113 0.70466 0.47975 0.0
C723 C 0.20285 0.75221 0.4925 0.0
C724 C 0.1516 0.76056 0.49718 0.0
C725 C 0.11928 0.7208 0.4906 0.0
C726 C 0.27562 0.69504 0.47269 0.0
C727 C 0.13111 0.81103 0.51053 0.0
H728 H 0.31515 0.83398 0.59409 0.0
H729 H 0.30244 0.88224 0.44444 0.0
H730 H 0.20171 0.76674 0.59653 0.0
H731 H 0.25274 0.72613 0.58501 0.0
H732 H 0.25931 0.77681 0.62845 0.0
H733 H 0.24285 0.8507 0.38933 0.0
H734 H 0.24622 0.78452 0.39544 0.0
H735 H 0.19133 0.81665 0.41357 0.0
H736 H 0.20199 0.62852 0.46645 0.0
H737 H 0.07999 0.72682 0.49499 0.0
H738 H 0.2951 0.70021 0.50838 0.0
H739 H 0.29141 0.72188 0.44643 0.0
H740 H 0.28321 0.65698 0.45858 0.0
H741 H 0.14798 0.82475 0.54543 0.0
H742 H 0.09038 0.81065 0.51502 0.0
H743 H 0.14064 0.83783 0.48146 0.0
C744 C 0.16376 0.30447 0.53109 0.0
C745 C 0.16889 0.35472 0.54325 0.0
C746 C 0.20468 0.27311 0.52973 0.0
C747 C 0.25174 0.29238 0.5416 0.0
C748 C 0.25687 0.34229 0.55694 0.0
C749 C 0.21523 0.37309 0.55741 0.0
C750 C 0.19784 0.21995 0.51301 0.0
C751 C 0.30631 0.36328 0.57181 0.0
C752 C 0.34061 0.18773 0.55934 0.0
C753 C 0.3602 0.18289 0.5117 0.0
C754 C 0.30885 0.2268 0.57144 0.0
C755 C 0.29539 0.26043 0.53434 0.0
C756 C 0.31794 0.25759 0.48712 0.0
C757 C 0.35084 0.21888 0.47651 0.0
C758 C 0.28711 0.22978 0.62274 0.0
C759 C 0.30435 0.29293 0.44664 0.0
H760 H 0.12811 0.29001 0.52008 0.0
H761 H 0.21916 0.41178 0.56771 0.0
H762 H 0.21889 0.21295 0.47844 0.0
H763 H 0.21241 0.19451 0.54127 0.0
H764 H 0.15852 0.21067 0.50616 0.0
H765 H 0.30454 0.40373 0.57951 0.0
H766 H 0.3195 0.34463 0.60551 0.0
H767 H 0.33408 0.35619 0.54242 0.0
H768 H 0.34939 0.1603 0.58685 0.0
H769 H 0.36689 0.21508 0.43995 0.0
H770 H 0.24938 0.214 0.62218 0.0
H771 H 0.2842 0.26875 0.63581 0.0
H772 H 0.30952 0.20871 0.64962 0.0
H773 H 0.26593 0.28561 0.43452 0.0
H774 H 0.32908 0.28908 0.41406 0.0
H775 H 0.30584 0.33172 0.46044 0.0
C776 C 0.81445 0.67497 0.42076 0.0
C777 C 0.8144 0.63206 0.44888 0.0
C778 C 0.77489 0.70829 0.42388 0.0
C779 C 0.73593 0.69896 0.45733 0.0
C780 C 0.73505 0.65475 0.48446 0.0
C781 C 0.7741 0.62141 0.47932 0.0
C782 C 0.7759 0.75448 0.39323 0.0
C783 C 0.69475 0.64423 0.52144 0.0
C784 C 0.67686 0.81261 0.51396 0.0
C785 C 0.63164 0.81331 0.48947 0.0
C786 C 0.71071 0.77463 0.50459 0.0
C787 C 0.69937 0.73792 0.46853 0.0
C788 C 0.65344 0.7385 0.44384 0.0
C789 C 0.61961 0.7761 0.45523 0.0
C790 C 0.75879 0.77421 0.53274 0.0
C791 C 0.64083 0.70084 0.40415 0.0
H792 H 0.84563 0.68274 0.397 0.0
H793 H 0.77449 0.58832 0.5015 0.0
H794 H 0.7396 0.76047 0.37539 0.0
H795 H 0.78326 0.78709 0.41742 0.0
H796 H 0.80484 0.75269 0.36418 0.0
H797 H 0.69787 0.60654 0.53699 0.0
H798 H 0.69668 0.67161 0.55231 0.0
H799 H 0.65794 0.64809 0.5041 0.0
H800 H 0.68576 0.84201 0.54013 0.0
H801 H 0.58474 0.7778 0.43573 0.0
H802 H 0.7901 0.77905 0.50688 0.0
H803 H 0.76389 0.73804 0.55091 0.0
H804 H 0.7605 0.804 0.56139 0.0
H805 H 0.66542 0.70602 0.37187 0.0
H806 H 0.60197 0.70424 0.39164 0.0
H807 H 0.64694 0.66274 0.41752 0.0
C808 C 0.70917 0.12281 0.48445 0.0
C809 C 0.6729 0.12987 0.4485 0.0
C810 C 0.74743 0.15666 0.49042 0.0
C811 C 0.75004 0.19736 0.45842 0.0
C812 C 0.71554 0.2026 0.41962 0.0
C813 C 0.67634 0.16916 0.41581 0.0
C814 C 0.78259 0.15088 0.53325 0.0
C815 C 0.71872 0.24472 0.38376 0.0
C816 C 0.80266 0.31674 0.50809 0.0
C817 C 0.85074 0.31435 0.48973 0.0
C818 C 0.76975 0.27808 0.49899 0.0
C819 C 0.78516 0.23737 0.46928 0.0
C820 C 0.83385 0.2348 0.45073 0.0
C821 C 0.86653 0.27318 0.46205 0.0
C822 C 0.7185 0.28099 0.52084 0.0
C823 C 0.85087 0.19247 0.41789 0.0
H824 H 0.70578 0.09249 0.51005 0.0
H825 H 0.64812 0.17405 0.38796 0.0
H826 H 0.82136 0.15361 0.5206 0.0
H827 H 0.7763 0.18128 0.56054 0.0
H828 H 0.77771 0.11505 0.55222 0.0
H829 H 0.69356 0.23937 0.35179 0.0
H830 H 0.70872 0.27992 0.40284 0.0
H831 H 0.75702 0.24862 0.36984 0.0
H832 H 0.79092 0.34888 0.52953 0.0
H833 H 0.9038 0.27203 0.44756 0.0
H834 H 0.71066 0.24722 0.54227 0.0
H835 H 0.69076 0.28287 0.49087 0.0
H836 H 0.7136 0.31383 0.54553 0.0
H837 H 0.84566 0.15671 0.43669 0.0
H838 H 0.8903 0.19589 0.40729 0.0
H839 H 0.8282 0.19121 0.38382 0.0
C840 C 0.43306 0.32475 0.7972 0.0
C841 C 0.45691 0.37059 0.79907 0.0
C842 C 0.44035 0.29222 0.7571 0.0
C843 C 0.47344 0.30549 0.71903 0.0
C844 C 0.4956 0.35276 0.71954 0.0
C845 C 0.48657 0.38507 0.75938 0.0
C846 C 0.41489 0.24258 0.75687 0.0
C847 C 0.53165 0.36786 0.67998 0.0
C848 C 0.53846 0.1957 0.66036 0.0
C849 C 0.51257 0.19033 0.61604 0.0
C850 C 0.52758 0.23471 0.69317 0.0
C851 C 0.48883 0.26792 0.68184 0.0
C852 C 0.46348 0.2634 0.63641 0.0
C853 C 0.47617 0.2249 0.60366 0.0
C854 C 0.5562 0.23915 0.74084 0.0
C855 C 0.42107 0.29718 0.62368 0.0
H856 H 0.40988 0.31376 0.82778 0.0
H857 H 0.50549 0.42035 0.76102 0.0
H858 H 0.39767 0.235 0.72041 0.0
H859 H 0.4424 0.21294 0.76331 0.0
H860 H 0.38599 0.24042 0.78587 0.0
H861 H 0.54202 0.40751 0.68328 0.0
H862 H 0.56566 0.34517 0.68281 0.0
H863 H 0.51589 0.36093 0.64276 0.0
H864 H 0.56645 0.16874 0.66979 0.0
H865 H 0.45548 0.22005 0.5697 0.0
H866 H 0.53154 0.23133 0.77248 0.0
H867 H 0.57023 0.27741 0.74595 0.0
H868 H 0.58792 0.2131 0.74195 0.0
H869 H 0.38945 0.28959 0.64846 0.0
H870 H 0.40865 0.29192 0.58488 0.0
H871 H 0.43147 0.33648 0.62951 0.0
C872 C 0.54082 0.87554 0.71837 0.0
C873 C 0.50156 0.87249 0.68498 0.0
C874 C 0.54378 0.84286 0.75802 0.0
C875 C 0.50594 0.80755 0.76456 0.0
C876 C 0.46464 0.80677 0.73269 0.0
C877 C 0.4633 0.83889 0.69281 0.0
C878 C 0.58858 0.8442 0.79103 0.0
C879 C 0.42297 0.77042 0.73924 0.0
C880 C 0.52896 0.68127 0.8166 0.0
C881 C 0.50795 0.68617 0.86359 0.0
C882 C 0.53163 0.72173 0.78523 0.0
C883 C 0.51153 0.76771 0.80093 0.0
C884 C 0.49197 0.77335 0.84917 0.0
C885 C 0.49086 0.73239 0.88028 0.0
C886 C 0.55384 0.71455 0.73444 0.0
C887 C 0.46946 0.82156 0.86686 0.0
H888 H 0.57035 0.90168 0.71202 0.0
H889 H 0.43261 0.83727 0.66719 0.0
H890 H 0.57738 0.8446 0.83043 0.0
H891 H 0.61096 0.8103 0.78455 0.0
H892 H 0.61216 0.87695 0.78411 0.0
H893 H 0.39123 0.77837 0.71467 0.0
H894 H 0.43632 0.73239 0.73085 0.0
H895 H 0.40987 0.77112 0.77806 0.0
H896 H 0.54295 0.64557 0.80421 0.0
H897 H 0.47458 0.73595 0.91675 0.0
H898 H 0.58001 0.74485 0.72628 0.0
H899 H 0.52421 0.7156 0.70626 0.0
H900 H 0.57362 0.67867 0.73059 0.0
H901 H 0.49236 0.85347 0.85576 0.0
H902 H 0.46479 0.8227 0.90761 0.0
H903 H 0.43262 0.82607 0.84967 0.0
C904 C 0.53753 0.60928 0.22726 0.0
C905 C 0.51973 0.62418 0.18127 0.0
C906 C 0.53176 0.63993 0.26925 0.0
C907 C 0.507 0.68586 0.26479 0.0
C908 C 0.48791 0.70025 0.21859 0.0
C909 C 0.4949 0.66947 0.17744 0.0
C910 C 0.55371 0.62367 0.31754 0.0
C911 C 0.46044 0.74852 0.21234 0.0
C912 C 0.45083 0.76252 0.3681 0.0
C913 C 0.48314 0.80269 0.36866 0.0
C914 C 0.46002 0.72163 0.33685 0.0
C915 C 0.50294 0.72111 0.30689 0.0
C916 C 0.53772 0.75981 0.3111 0.0
C917 C 0.52694 0.80063 0.34139 0.0
C918 C 0.4225 0.68059 0.33357 0.0
C919 C 0.58488 0.75956 0.28139 0.0
H920 H 0.55657 0.57414 0.23025 0.0
H921 H 0.47992 0.68059 0.14217 0.0
H922 H 0.59167 0.6386 0.32065 0.0
H923 H 0.53216 0.63753 0.34973 0.0
H924 H 0.55617 0.58271 0.31925 0.0
H925 H 0.44521 0.75252 0.17455 0.0
H926 H 0.42957 0.75123 0.23918 0.0
H927 H 0.48561 0.78003 0.21988 0.0
H928 H 0.41752 0.76413 0.39026 0.0
H929 H 0.55257 0.83137 0.34343 0.0
H930 H 0.441 0.64403 0.33565 0.0
H931 H 0.40338 0.68209 0.29741 0.0
H932 H 0.39441 0.68348 0.36337 0.0
H933 H 0.60328 0.72297 0.28356 0.0
H934 H 0.61104 0.78854 0.29436 0.0
H935 H 0.57624 0.76622 0.242 0.0
C936 C 0.49005 0.10669 0.25481 0.0
C937 C 0.47092 0.12268 0.30037 0.0
C938 C 0.49079 0.13856 0.21442 0.0
C939 C 0.47105 0.18686 0.21992 0.0
C940 C 0.44867 0.20179 0.26497 0.0
C941 C 0.44942 0.16964 0.3049 0.0
C942 C 0.51552 0.12169 0.16712 0.0
C943 C 0.42626 0.25267 0.2719 0.0
C944 C 0.5231 0.2958 0.15219 0.0
C945 C 0.48672 0.30385 0.11664 0.0
C946 C 0.51987 0.25576 0.18409 0.0
C947 C 0.47853 0.22396 0.18105 0.0
C948 C 0.44246 0.23097 0.14409 0.0
C949 C 0.44732 0.27071 0.11179 0.0
C950 C 0.55962 0.24881 0.22242 0.0
C951 C 0.39748 0.1983 0.1404 0.0
H952 H 0.50683 0.07034 0.25153 0.0
H953 H 0.43401 0.1816 0.34008 0.0
H954 H 0.49276 0.13137 0.13466 0.0
H955 H 0.55139 0.14095 0.16334 0.0
H956 H 0.52246 0.08117 0.16638 0.0
H957 H 0.40539 0.25628 0.3071 0.0
H958 H 0.45589 0.28091 0.272 0.0
H959 H 0.40106 0.26112 0.2409 0.0
H960 H 0.55387 0.32121 0.15536 0.0
H961 H 0.41908 0.27725 0.0843 0.0
H962 H 0.57279 0.20992 0.22195 0.0
H963 H 0.54433 0.25675 0.25972 0.0
H964 H 0.59169 0.27353 0.21645 0.0
H965 H 0.4083 0.15872 0.14061 0.0
H966 H 0.37568 0.20542 0.10652 0.0
H967 H 0.37342 0.20506 0.17298 0.0
loop_
_geom_bond_atom_site_label_1
_geom_bond_atom_site_label_2
_geom_bond_distance
_geom_bond_site_symmetry_2
_ccdc_geom_bond_type
O0 Zr5 2.207 1_565 S
O0 C34 1.295 . S
O1 Zr5 2.133 1_565 S
O1 Zr6 2.133 1_565 S
O1 Zr7 2.133 . S
O2 Zr5 2.133 1_556 S
O2 Zr11 2.133 1_556 S
O2 Zr12 2.133 . S
O3 Zr5 2.133 1_566 S
O3 Zr7 2.133 1_556 S
O3 Zr12 2.133 1_565 S
O4 Zr5 2.133 . S
O4 Zr6 2.133 . S
O4 Zr11 2.133 . S
Zr5 O0 2.207 1_545 S
Zr5 O1 2.133 1_545 S
Zr5 O2 2.133 1_554 S
Zr5 O3 2.133 1_544 S
Zr5 O4 2.133 . S
Zr5 O17 2.207 . S
Zr5 O30 2.207 . S
Zr5 O33 2.207 1_554 S
Zr6 O1 2.133 1_545 S
Zr6 O4 2.133 . S
Zr6 O8 2.133 1_455 S
Zr6 O10 2.133 1_445 S
Zr6 O22 2.207 1_455 S
Zr6 O25 2.207 . S
Zr6 O35 2.207 . S
Zr6 O36 2.207 1_545 S
Zr7 O1 2.133 . S
Zr7 O3 2.133 1_554 S
Zr7 O9 2.133 1_454 S
Zr7 O10 2.133 1_455 S
Zr7 O19 2.207 . S
Zr7 O20 2.207 1_554 S
Zr7 O27 2.207 . S
Zr7 O28 2.207 1_455 S
O8 Zr6 2.133 1_655 S
O8 Zr11 2.133 1_655 S
O8 Zr13 2.133 . S
O9 Zr7 2.133 1_656 S
O9 Zr12 2.133 1_665 S
O9 Zr13 2.133 1_566 S
O10 Zr6 2.133 1_665 S
O10 Zr7 2.133 1_655 S
O10 Zr13 2.133 1_565 S
Zr11 O2 2.133 1_554 S
Zr11 O4 2.133 . S
Zr11 O8 2.133 1_455 S
Zr11 O14 2.133 1_454 S
Zr11 O18 2.207 1_554 S
Zr11 O21 2.207 . S
Zr11 O26 2.207 1_455 S
Zr11 O29 2.207 . S
Zr12 O2 2.133 . S
Zr12 O3 2.133 1_545 S
Zr12 O9 2.133 1_445 S
Zr12 O14 2.133 1_455 S
Zr12 O23 2.207 . S
Zr12 O24 2.207 1_455 S
Zr12 O48 2.207 1_545 S
Zr12 O49 2.207 . S
Zr13 O8 2.133 . S
Zr13 O9 2.133 1_544 S
Zr13 O10 2.133 1_545 S
Zr13 O14 2.133 1_554 S
Zr13 O15 2.207 . S
Zr13 O16 2.207 1_545 S
Zr13 O31 2.207 1_554 S
Zr13 O32 2.207 . S
O14 Zr11 2.133 1_656 S
O14 Zr12 2.133 1_655 S
O14 Zr13 2.133 1_556 S
O15 Zr13 2.207 . S
O15 C37 1.295 . S
O16 Zr13 2.207 1_565 S
O16 C38 1.295 . S
O17 Zr5 2.207 . S
O17 C39 1.295 . S
O18 Zr11 2.207 1_556 S
O18 C40 1.295 . S
O19 Zr7 2.207 . S
O19 C41 1.295 . S
O20 Zr7 2.207 1_556 S
O20 C42 1.295 . S
O21 Zr11 2.207 . S
O21 C43 1.295 . S
O22 Zr6 2.207 1_655 S
O22 C44 1.295 . S
O23 Zr12 2.207 . S
O23 C45 1.295 . S
O24 Zr12 2.207 1_655 S
O24 C46 1.295 . S
O25 Zr6 2.207 . S
O25 C47 1.295 . S
O26 Zr11 2.207 1_655 S
O26 C37 1.295 . S
O27 Zr7 2.207 . S
O27 C34 1.295 . S
O28 Zr7 2.207 1_655 S
O28 C38 1.295 . S
O29 Zr11 2.207 . S
O29 C39 1.295 . S
O30 Zr5 2.207 . S
O30 C47 1.295 . S
O31 Zr13 2.207 1_556 S
O31 C46 1.295 . S
O32 Zr13 2.207 . S
O32 C44 1.295 . S
O33 Zr5 2.207 1_556 S
O33 C45 1.295 . S
C34 O0 1.295 . S
C34 O27 1.295 . S
O35 Zr6 2.207 . S
O35 C43 1.295 . S
O36 Zr6 2.207 1_565 S
O36 C41 1.295 . S
C37 O15 1.295 . S
C37 O26 1.295 . S
C38 O16 1.295 . S
C38 O28 1.295 . S
C39 O17 1.295 . S
C39 O29 1.295 . S
C40 O18 1.295 . S
C40 O49 1.295 . S
C41 O19 1.295 . S
C41 O36 1.295 . S
C42 O20 1.295 . S
C42 O48 1.295 . S
C43 O21 1.295 . S
C43 O35 1.295 . S
C44 O22 1.295 . S
C44 O32 1.295 . S
C45 O23 1.295 . S
C45 O33 1.295 . S
C46 O24 1.295 . S
C46 O31 1.295 . S
C47 O25 1.295 . S
C47 O30 1.295 . S
O48 Zr12 2.207 1_565 S
O48 C42 1.295 . S
O49 Zr12 2.207 . S
O49 C40 1.295 . S
O50 Zr55 2.207 . S
O50 C84 1.295 . S
O51 Zr55 2.133 . S
O51 Zr56 2.133 . S
O51 Zr57 2.133 . S
O52 Zr55 2.133 . S
O52 Zr61 2.133 . S
O52 Zr62 2.133 . S
O53 Zr55 2.133 . S
O53 Zr57 2.133 . S
O53 Zr62 2.133 . S
O54 Zr55 2.133 . S
O54 Zr56 2.133 . S
O54 Zr61 2.133 . S
Zr55 O50 2.207 . S
Zr55 O51 2.133 . S
Zr55 O52 2.133 . S
Zr55 O53 2.133 . S
Zr55 O54 2.133 . S
Zr55 O67 2.207 . S
Zr55 O80 2.207 . S
Zr55 O83 2.207 . S
Zr56 O51 2.133 . S
Zr56 O54 2.133 . S
Zr56 O58 2.133 1_455 S
Zr56 O60 2.133 1_455 S
Zr56 O72 2.207 1_455 S
Zr56 O75 2.207 . S
Zr56 O85 2.207 . S
Zr56 O86 2.207 . S
Zr57 O51 2.133 . S
Zr57 O53 2.133 . S
Zr57 O59 2.133 1_455 S
Zr57 O60 2.133 1_455 S
Zr57 O69 2.207 . S
Zr57 O70 2.207 . S
Zr57 O77 2.207 . S
Zr57 O78 2.207 1_455 S
O58 Zr56 2.133 1_655 S
O58 Zr61 2.133 1_655 S
O58 Zr63 2.133 . S
O59 Zr57 2.133 1_655 S
O59 Zr62 2.133 1_655 S
O59 Zr63 2.133 . S
O60 Zr56 2.133 1_655 S
O60 Zr57 2.133 1_655 S
O60 Zr63 2.133 . S
Zr61 O52 2.133 . S
Zr61 O54 2.133 . S
Zr61 O58 2.133 1_455 S
Zr61 O64 2.133 1_455 S
Zr61 O68 2.207 . S
Zr61 O71 2.207 . S
Zr61 O76 2.207 1_455 S
Zr61 O79 2.207 . S
Zr62 O52 2.133 . S
Zr62 O53 2.133 . S
Zr62 O59 2.133 1_455 S
Zr62 O64 2.133 1_455 S
Zr62 O73 2.207 . S
Zr62 O74 2.207 1_455 S
Zr62 O98 2.207 . S
Zr62 O99 2.207 . S
Zr63 O58 2.133 . S
Zr63 O59 2.133 . S
Zr63 O60 2.133 . S
Zr63 O64 2.133 . S
Zr63 O65 2.207 . S
Zr63 O66 2.207 . S
Zr63 O81 2.207 . S
Zr63 O82 2.207 . S
O64 Zr61 2.133 1_655 S
O64 Zr62 2.133 1_655 S
O64 Zr63 2.133 . S
O65 Zr63 2.207 . S
O65 C87 1.295 . S
O66 Zr63 2.207 . S
O66 C88 1.295 . S
O67 Zr55 2.207 . S
O67 C89 1.295 . S
O68 Zr61 2.207 . S
O68 C90 1.295 . S
O69 Zr57 2.207 . S
O69 C91 1.295 . S
O70 Zr57 2.207 . S
O70 C92 1.295 . S
O71 Zr61 2.207 . S
O71 C93 1.295 . S
O72 Zr56 2.207 1_655 S
O72 C94 1.295 . S
O73 Zr62 2.207 . S
O73 C95 1.295 . S
O74 Zr62 2.207 1_655 S
O74 C96 1.295 . S
O75 Zr56 2.207 . S
O75 C97 1.295 . S
O76 Zr61 2.207 1_655 S
O76 C87 1.295 . S
O77 Zr57 2.207 . S
O77 C84 1.295 . S
O78 Zr57 2.207 1_655 S
O78 C88 1.295 . S
O79 Zr61 2.207 . S
O79 C89 1.295 . S
O80 Zr55 2.207 . S
O80 C97 1.295 . S
O81 Zr63 2.207 . S
O81 C96 1.295 . S
O82 Zr63 2.207 . S
O82 C94 1.295 . S
O83 Zr55 2.207 . S
O83 C95 1.295 . S
C84 O50 1.295 . S
C84 O77 1.295 . S
O85 Zr56 2.207 . S
O85 C93 1.295 . S
O86 Zr56 2.207 . S
O86 C91 1.295 . S
C87 O65 1.295 . S
C87 O76 1.295 . S
C88 O66 1.295 . S
C88 O78 1.295 . S
C89 O67 1.295 . S
C89 O79 1.295 . S
C90 O68 1.295 . S
C90 O99 1.295 . S
C91 O69 1.295 . S
C91 O86 1.295 . S
C92 O70 1.295 . S
C92 O98 1.295 . S
C93 O71 1.295 . S
C93 O85 1.295 . S
C94 O72 1.295 . S
C94 O82 1.295 . S
C95 O73 1.295 . S
C95 O83 1.295 . S
C96 O74 1.295 . S
C96 O81 1.295 . S
C97 O75 1.295 . S
C97 O80 1.295 . S
O98 Zr62 2.207 . S
O98 C92 1.295 . S
O99 Zr62 2.207 . S
O99 C90 1.295 . S
O100 Zr105 2.207 . S
O100 C134 1.295 . S
O101 Zr105 2.133 . S
O101 Zr106 2.133 . S
O101 Zr107 2.133 . S
O102 Zr105 2.133 1_565 S
O102 Zr111 2.133 1_565 S
O102 Zr112 2.133 . S
O103 Zr105 2.133 1_565 S
O103 Zr107 2.133 1_565 S
O103 Zr112 2.133 . S
O104 Zr105 2.133 . S
O104 Zr106 2.133 . S
O104 Zr111 2.133 . S
Zr105 O100 2.207 . S
Zr105 O101 2.133 . S
Zr105 O102 2.133 1_545 S
Zr105 O103 2.133 1_545 S
Zr105 O104 2.133 . S
Zr105 O117 2.207 . S
Zr105 O130 2.207 . S
Zr105 O133 2.207 1_545 S
Zr106 O101 2.133 . S
Zr106 O104 2.133 . S
Zr106 O108 2.133 . S
Zr106 O110 2.133 . S
Zr106 O122 2.207 . S
Zr106 O125 2.207 . S
Zr106 O135 2.207 . S
Zr106 O136 2.207 . S
Zr107 O101 2.133 . S
Zr107 O103 2.133 1_545 S
Zr107 O109 2.133 1_545 S
Zr107 O110 2.133 . S
Zr107 O119 2.207 . S
Zr107 O120 2.207 1_545 S
Zr107 O127 2.207 . S
Zr107 O128 2.207 . S
O108 Zr106 2.133 . S
O108 Zr111 2.133 . S
O108 Zr113 2.133 . S
O109 Zr107 2.133 1_565 S
O109 Zr112 2.133 . S
O109 Zr113 2.133 1_565 S
O110 Zr106 2.133 . S
O110 Zr107 2.133 . S
O110 Zr113 2.133 . S
Zr111 O102 2.133 1_545 S
Zr111 O104 2.133 . S
Zr111 O108 2.133 . S
Zr111 O114 2.133 1_545 S
Zr111 O118 2.207 1_545 S
Zr111 O121 2.207 . S
Zr111 O126 2.207 . S
Zr111 O129 2.207 . S
Zr112 O102 2.133 . S
Zr112 O103 2.133 . S
Zr112 O109 2.133 . S
Zr112 O114 2.133 . S
Zr112 O123 2.207 . S
Zr112 O124 2.207 . S
Zr112 O148 2.207 . S
Zr112 O149 2.207 . S
Zr113 O108 2.133 . S
Zr113 O109 2.133 1_545 S
Zr113 O110 2.133 . S
Zr113 O114 2.133 1_545 S
Zr113 O115 2.207 . S
Zr113 O116 2.207 . S
Zr113 O131 2.207 1_545 S
Zr113 O132 2.207 . S
O114 Zr111 2.133 1_565 S
O114 Zr112 2.133 . S
O114 Zr113 2.133 1_565 S
O115 Zr113 2.207 . S
O115 C137 1.295 . S
O116 Zr113 2.207 . S
O116 C138 1.295 . S
O117 Zr105 2.207 . S
O117 C139 1.295 . S
O118 Zr111 2.207 1_565 S
O118 C140 1.295 . S
O119 Zr107 2.207 . S
O119 C141 1.295 . S
O120 Zr107 2.207 1_565 S
O120 C142 1.295 . S
O121 Zr111 2.207 . S
O121 C143 1.295 . S
O122 Zr106 2.207 . S
O122 C144 1.295 . S
O123 Zr112 2.207 . S
O123 C145 1.295 . S
O124 Zr112 2.207 . S
O124 C146 1.295 . S
O125 Zr106 2.207 . S
O125 C147 1.295 . S
O126 Zr111 2.207 . S
O126 C137 1.295 . S
O127 Zr107 2.207 . S
O127 C134 1.295 . S
O128 Zr107 2.207 . S
O128 C138 1.295 . S
O129 Zr111 2.207 . S
O129 C139 1.295 . S
O130 Zr105 2.207 . S
O130 C147 1.295 . S
O131 Zr113 2.207 1_565 S
O131 C146 1.295 . S
O132 Zr113 2.207 . S
O132 C144 1.295 . S
O133 Zr105 2.207 1_565 S
O133 C145 1.295 . S
C134 O100 1.295 . S
C134 O127 1.295 . S
O135 Zr106 2.207 . S
O135 C143 1.295 . S
O136 Zr106 2.207 . S
O136 C141 1.295 . S
C137 O115 1.295 . S
C137 O126 1.295 . S
C138 O116 1.295 . S
C138 O128 1.295 . S
C139 O117 1.295 . S
C139 O129 1.295 . S
C140 O118 1.295 . S
C140 O149 1.295 . S
C141 O119 1.295 . S
C141 O136 1.295 . S
C142 O120 1.295 . S
C142 O148 1.295 . S
C143 O121 1.295 . S
C143 O135 1.295 . S
C144 O122 1.295 . S
C144 O132 1.295 . S
C145 O123 1.295 . S
C145 O133 1.295 . S
C146 O124 1.295 . S
C146 O131 1.295 . S
C147 O125 1.295 . S
C147 O130 1.295 . S
O148 Zr112 2.207 . S
O148 C142 1.295 . S
O149 Zr112 2.207 . S
O149 C140 1.295 . S
O150 Zr155 2.207 . S
O150 C184 1.295 . S
O151 Zr155 2.133 . S
O151 Zr156 2.133 . S
O151 Zr157 2.133 . S
O152 Zr155 2.133 1_556 S
O152 Zr161 2.133 1_556 S
O152 Zr162 2.133 . S
O153 Zr155 2.133 1_556 S
O153 Zr157 2.133 1_556 S
O153 Zr162 2.133 . S
O154 Zr155 2.133 . S
O154 Zr156 2.133 . S
O154 Zr161 2.133 . S
Zr155 O150 2.207 . S
Zr155 O151 2.133 . S
Zr155 O152 2.133 1_554 S
Zr155 O153 2.133 1_554 S
Zr155 O154 2.133 . S
Zr155 O167 2.207 . S
Zr155 O180 2.207 . S
Zr155 O183 2.207 1_554 S
Zr156 O151 2.133 . S
Zr156 O154 2.133 . S
Zr156 O158 2.133 . S
Zr156 O160 2.133 . S
Zr156 O172 2.207 . S
Zr156 O175 2.207 . S
Zr156 O185 2.207 . S
Zr156 O186 2.207 . S
Zr157 O151 2.133 . S
Zr157 O153 2.133 1_554 S
Zr157 O159 2.133 1_554 S
Zr157 O160 2.133 . S
Zr157 O169 2.207 . S
Zr157 O170 2.207 1_554 S
Zr157 O177 2.207 . S
Zr157 O178 2.207 . S
O158 Zr156 2.133 . S
O158 Zr161 2.133 . S
O158 Zr163 2.133 . S
O159 Zr157 2.133 1_556 S
O159 Zr162 2.133 . S
O159 Zr163 2.133 1_556 S
O160 Zr156 2.133 . S
O160 Zr157 2.133 . S
O160 Zr163 2.133 . S
Zr161 O152 2.133 1_554 S
Zr161 O154 2.133 . S
Zr161 O158 2.133 . S
Zr161 O164 2.133 1_554 S
Zr161 O168 2.207 1_554 S
Zr161 O171 2.207 . S
Zr161 O176 2.207 . S
Zr161 O179 2.207 . S
Zr162 O152 2.133 . S
Zr162 O153 2.133 . S
Zr162 O159 2.133 . S
Zr162 O164 2.133 . S
Zr162 O173 2.207 . S
Zr162 O174 2.207 . S
Zr162 O198 2.207 . S
Zr162 O199 2.207 . S
Zr163 O158 2.133 . S
Zr163 O159 2.133 1_554 S
Zr163 O160 2.133 . S
Zr163 O164 2.133 1_554 S
Zr163 O165 2.207 . S
Zr163 O166 2.207 . S
Zr163 O181 2.207 1_554 S
Zr163 O182 2.207 . S
O164 Zr161 2.133 1_556 S
O164 Zr162 2.133 . S
O164 Zr163 2.133 1_556 S
O165 Zr163 2.207 . S
O165 C187 1.295 . S
O166 Zr163 2.207 . S
O166 C188 1.295 . S
O167 Zr155 2.207 . S
O167 C189 1.295 . S
O168 Zr161 2.207 1_556 S
O168 C190 1.295 . S
O169 Zr157 2.207 . S
O169 C191 1.295 . S
O170 Zr157 2.207 1_556 S
O170 C192 1.295 . S
O171 Zr161 2.207 . S
O171 C193 1.295 . S
O172 Zr156 2.207 . S
O172 C194 1.295 . S
O173 Zr162 2.207 . S
O173 C195 1.295 . S
O174 Zr162 2.207 . S
O174 C196 1.295 . S
O175 Zr156 2.207 . S
O175 C197 1.295 . S
O176 Zr161 2.207 . S
O176 C187 1.295 . S
O177 Zr157 2.207 . S
O177 C184 1.295 . S
O178 Zr157 2.207 . S
O178 C188 1.295 . S
O179 Zr161 2.207 . S
O179 C189 1.295 . S
O180 Zr155 2.207 . S
O180 C197 1.295 . S
O181 Zr163 2.207 1_556 S
O181 C196 1.295 . S
O182 Zr163 2.207 . S
O182 C194 1.295 . S
O183 Zr155 2.207 1_556 S
O183 C195 1.295 . S
C184 O150 1.295 . S
C184 O177 1.295 . S
O185 Zr156 2.207 . S
O185 C193 1.295 . S
O186 Zr156 2.207 . S
O186 C191 1.295 . S
C187 O165 1.295 . S
C187 O176 1.295 . S
C188 O166 1.295 . S
C188 O178 1.295 . S
C189 O167 1.295 . S
C189 O179 1.295 . S
C190 O168 1.295 . S
C190 O199 1.295 . S
C191 O169 1.295 . S
C191 O186 1.295 . S
C192 O170 1.295 . S
C192 O198 1.295 . S
C193 O171 1.295 . S
C193 O185 1.295 . S
C194 O172 1.295 . S
C194 O182 1.295 . S
C195 O173 1.295 . S
C195 O183 1.295 . S
C196 O174 1.295 . S
C196 O181 1.295 . S
C197 O175 1.295 . S
C197 O180 1.295 . S
O198 Zr162 2.207 . S
O198 C192 1.295 . S
O199 Zr162 2.207 . S
O199 C190 1.295 . S
C200 C201 1.391 1_655 S
C200 C202 1.394 . S
C200 H216 0.931 . S
C201 C200 1.391 1_455 S
C201 C205 1.376 . S
C202 C200 1.394 . S
C202 C203 1.369 1_655 S
C202 C206 1.531 . S
C203 C202 1.369 1_455 S
C203 C204 1.410 . S
C203 C211 1.503 . S
C204 C203 1.410 . S
C204 C205 1.392 . S
C204 C207 1.511 . S
C205 C201 1.376 . S
C205 C204 1.392 . S
C205 H217 0.929 . S
C206 C202 1.531 . S
C206 H218 0.960 . S
C206 H219 0.962 . S
C206 H220 0.960 . S
C207 C204 1.511 . S
C207 H221 0.961 . S
C207 H222 0.961 . S
C207 H223 0.961 . S
C208 C209 1.370 1_655 S
C208 C210 1.363 . S
C208 H224 0.931 . S
C209 C208 1.370 1_455 S
C209 C213 1.408 . S
C210 C208 1.363 . S
C210 C211 1.370 1_655 S
C210 C214 1.524 . S
C211 C203 1.503 . S
C211 C210 1.370 1_455 S
C211 C212 1.403 . S
C212 C211 1.403 . S
C212 C213 1.404 . S
C212 C215 1.539 . S
C213 C209 1.408 . S
C213 C212 1.404 . S
C213 H225 0.930 . S
C214 C210 1.524 . S
C214 H226 0.956 . S
C214 H227 0.961 . S
C214 H228 0.961 . S
C215 C212 1.539 . S
C215 H229 0.958 . S
C215 H230 0.961 . S
C215 H231 0.960 . S
H216 C200 0.931 . S
H217 C205 0.929 . S
H218 C206 0.960 . S
H219 C206 0.962 . S
H220 C206 0.960 . S
H221 C207 0.961 . S
H222 C207 0.961 . S
H223 C207 0.961 . S
H224 C208 0.931 . S
H225 C213 0.930 . S
H226 C214 0.956 . S
H227 C214 0.961 . S
H228 C214 0.961 . S
H229 C215 0.958 . S
H230 C215 0.961 . S
H231 C215 0.960 . S
C232 C233 1.391 . S
C232 C234 1.394 . S
C232 H248 0.931 . S
C233 C232 1.391 . S
C233 C237 1.376 . S
C234 C232 1.394 . S
C234 C235 1.369 . S
C234 C238 1.531 . S
C235 C234 1.369 . S
C235 C236 1.410 . S
C235 C243 1.503 . S
C236 C235 1.410 . S
C236 C237 1.392 . S
C236 C239 1.511 . S
C237 C233 1.376 . S
C237 C236 1.392 . S
C237 H249 0.929 . S
C238 C234 1.531 . S
C238 H250 0.960 . S
C238 H251 0.962 1_545 S
C238 H252 0.960 . S
C239 C236 1.511 . S
C239 H253 0.952 1_545 S
C239 H254 0.953 1_545 S
C239 H255 0.961 . S
C240 C241 1.370 1_565 S
C240 C242 1.363 . S
C240 H256 0.931 . S
C241 C240 1.370 1_545 S
C241 C245 1.408 . S
C242 C240 1.363 . S
C242 C243 1.370 1_565 S
C242 C246 1.524 . S
C243 C235 1.503 . S
C243 C242 1.370 1_545 S
C243 C244 1.403 . S
C244 C243 1.403 . S
C244 C245 1.404 . S
C244 C247 1.539 . S
C245 C241 1.408 . S
C245 C244 1.404 . S
C245 H257 0.930 . S
C246 C242 1.524 . S
C246 H258 0.956 . S
C246 H259 0.961 . S
C246 H260 0.961 . S
C247 C244 1.539 . S
C247 H261 0.958 . S
C247 H262 0.961 . S
C247 H263 0.960 . S
H248 C232 0.931 . S
H249 C237 0.929 . S
H250 C238 0.960 . S
H251 C238 0.962 1_565 S
H252 C238 0.960 . S
H253 C239 0.952 1_565 S
H254 C239 0.953 1_565 S
H255 C239 0.961 . S
H256 C240 0.931 . S
H257 C245 0.930 . S
H258 C246 0.956 . S
H259 C246 0.961 . S
H260 C246 0.961 . S
H261 C247 0.958 . S
H262 C247 0.961 . S
H263 C247 0.960 . S
C264 C265 1.391 1_455 S
C264 C266 1.394 . S
C264 H280 0.931 . S
C265 C264 1.391 1_655 S
C265 C269 1.376 . S
C266 C264 1.394 . S
C266 C267 1.369 1_455 S
C266 C270 1.531 . S
C267 C266 1.369 1_655 S
C267 C268 1.410 . S
C267 C275 1.503 . S
C268 C267 1.410 . S
C268 C269 1.392 . S
C268 C271 1.511 . S
C269 C265 1.376 . S
C269 C268 1.392 . S
C269 H281 0.929 . S
C270 C266 1.531 . S
C270 H282 0.960 . S
C270 H283 0.962 . S
C270 H284 0.960 . S
C271 C268 1.511 . S
C271 H285 0.961 . S
C271 H286 0.961 . S
C271 H287 0.961 . S
C272 C273 1.370 1_455 S
C272 C274 1.363 . S
C272 H288 0.931 . S
C273 C272 1.370 1_655 S
C273 C277 1.408 . S
C274 C272 1.363 . S
C274 C275 1.370 1_455 S
C274 C278 1.524 . S
C275 C267 1.503 . S
C275 C274 1.370 1_655 S
C275 C276 1.403 . S
C276 C275 1.403 . S
C276 C277 1.404 . S
C276 C279 1.539 . S
C277 C273 1.408 . S
C277 C276 1.404 . S
C277 H289 0.930 . S
C278 C274 1.524 . S
C278 H290 0.956 . S
C278 H291 0.961 . S
C278 H292 0.961 . S
C279 C276 1.539 . S
C279 H293 0.958 . S
C279 H294 0.961 . S
C279 H295 0.960 . S
H280 C264 0.931 . S
H281 C269 0.929 . S
H282 C270 0.960 . S
H283 C270 0.962 . S
H284 C270 0.960 . S
H285 C271 0.961 . S
H286 C271 0.961 . S
H287 C271 0.961 . S
H288 C272 0.931 . S
H289 C277 0.930 . S
H290 C278 0.956 . S
H291 C278 0.961 . S
H292 C278 0.961 . S
H293 C279 0.958 . S
H294 C279 0.961 . S
H295 C279 0.960 . S
C296 C297 1.401 . S
C296 C298 1.394 . S
C296 H312 0.931 . S
C297 C296 1.401 . S
C297 C301 1.366 1_545 S
C298 C296 1.394 . S
C298 C299 1.369 . S
C298 C302 1.531 . S
C299 C298 1.369 . S
C299 C300 1.410 1_545 S
C299 C307 1.503 . S
C300 C299 1.410 1_565 S
C300 C301 1.392 . S
C300 C303 1.511 . S
C301 C297 1.366 1_565 S
C301 C300 1.392 . S
C301 H313 0.929 . S
C302 C298 1.531 . S
C302 H314 0.960 . S
C302 H315 0.962 . S
C302 H316 0.960 . S
C303 C300 1.511 . S
C303 H317 0.961 . S
C303 H318 0.961 . S
C303 H319 0.961 . S
C304 C305 1.370 . S
C304 C306 1.363 . S
C304 H320 0.931 . S
C305 C304 1.370 . S
C305 C309 1.409 1_565 S
C306 C304 1.363 . S
C306 C307 1.370 1_565 S
C306 C310 1.524 . S
C307 C299 1.503 . S
C307 C306 1.370 1_545 S
C307 C308 1.403 . S
C308 C307 1.403 . S
C308 C309 1.404 . S
C308 C311 1.539 . S
C309 C305 1.409 1_545 S
C309 C308 1.404 . S
C309 H321 0.930 . S
C310 C306 1.524 . S
C310 H322 0.956 1_565 S
C310 H323 0.961 . S
C310 H324 0.961 . S
C311 C308 1.539 . S
C311 H325 0.958 . S
C311 H326 0.961 1_545 S
C311 H327 0.960 1_545 S
H312 C296 0.931 . S
H313 C301 0.929 . S
H314 C302 0.960 . S
H315 C302 0.962 . S
H316 C302 0.960 . S
H317 C303 0.961 . S
H318 C303 0.961 . S
H319 C303 0.961 . S
H320 C304 0.931 . S
H321 C309 0.930 . S
H322 C310 0.956 1_545 S
H323 C310 0.961 . S
H324 C310 0.961 . S
H325 C311 0.958 . S
H326 C311 0.961 1_565 S
H327 C311 0.960 1_565 S
C328 C329 1.391 1_655 S
C328 C330 1.394 . S
C328 H344 0.931 . S
C329 C328 1.391 1_455 S
C329 C333 1.376 . S
C330 C328 1.394 . S
C330 C331 1.369 1_655 S
C330 C334 1.531 . S
C331 C330 1.369 1_455 S
C331 C332 1.410 . S
C331 C339 1.503 . S
C332 C331 1.410 . S
C332 C333 1.392 . S
C332 C335 1.511 . S
C333 C329 1.376 . S
C333 C332 1.392 . S
C333 H345 0.929 . S
C334 C330 1.531 . S
C334 H346 0.960 . S
C334 H347 0.962 . S
C334 H348 0.960 . S
C335 C332 1.511 . S
C335 H349 0.961 . S
C335 H350 0.961 . S
C335 H351 0.961 . S
C336 C337 1.370 1_655 S
C336 C338 1.363 . S
C336 H352 0.931 . S
C337 C336 1.370 1_455 S
C337 C341 1.408 . S
C338 C336 1.363 . S
C338 C339 1.370 1_655 S
C338 C342 1.524 . S
C339 C331 1.503 . S
C339 C338 1.370 1_455 S
C339 C340 1.403 . S
C340 C339 1.403 . S
C340 C341 1.404 . S
C340 C343 1.539 . S
C341 C337 1.408 . S
C341 C340 1.404 . S
C341 H353 0.930 . S
C342 C338 1.524 . S
C342 H354 0.956 . S
C342 H355 0.961 . S
C342 H356 0.961 . S
C343 C340 1.539 . S
C343 H357 0.958 . S
C343 H358 0.961 . S
C343 H359 0.960 . S
H344 C328 0.931 . S
H345 C333 0.929 . S
H346 C334 0.960 . S
H347 C334 0.962 . S
H348 C334 0.960 . S
H349 C335 0.961 . S
H350 C335 0.961 . S
H351 C335 0.961 . S
H352 C336 0.931 . S
H353 C341 0.930 . S
H354 C342 0.956 . S
H355 C342 0.961 . S
H356 C342 0.961 . S
H357 C343 0.958 . S
H358 C343 0.961 . S
H359 C343 0.960 . S
C360 C361 1.391 . S
C360 C362 1.394 . S
C360 H376 0.931 . S
C361 C360 1.391 . S
C361 C365 1.376 1_565 S
C362 C360 1.394 . S
C362 C363 1.369 . S
C362 C366 1.531 . S
C363 C362 1.369 . S
C363 C364 1.410 . S
C363 C371 1.503 . S
C364 C363 1.410 . S
C364 C365 1.392 1_565 S
C364 C367 1.511 1_565 S
C365 C361 1.376 1_545 S
C365 C364 1.392 1_545 S
C365 H377 0.929 . S
C366 C362 1.531 . S
C366 H378 0.960 . S
C366 H379 0.952 1_565 S
C366 H380 0.960 . S
C367 C364 1.511 1_545 S
C367 H381 0.961 . S
C367 H382 0.961 . S
C367 H383 0.961 1_545 S
C368 C369 1.370 1_545 S
C368 C370 1.363 . S
C368 H384 0.931 . S
C369 C368 1.370 1_565 S
C369 C373 1.408 . S
C370 C368 1.363 . S
C370 C371 1.370 1_545 S
C370 C374 1.524 . S
C371 C363 1.503 . S
C371 C370 1.370 1_565 S
C371 C372 1.403 . S
C372 C371 1.403 . S
C372 C373 1.404 . S
C372 C375 1.539 . S
C373 C369 1.408 . S
C373 C372 1.404 . S
C373 H385 0.930 . S
C374 C370 1.524 . S
C374 H386 0.956 . S
C374 H387 0.961 . S
C374 H388 0.961 . S
C375 C372 1.539 . S
C375 H389 0.958 . S
C375 H390 0.961 . S
C375 H391 0.960 . S
H376 C360 0.931 . S
H377 C365 0.929 . S
H378 C366 0.960 . S
H379 C366 0.952 1_545 S
H380 C366 0.960 . S
H381 C367 0.961 . S
H382 C367 0.961 . S
H383 C367 0.961 1_565 S
H384 C368 0.931 . S
H385 C373 0.930 . S
H386 C374 0.956 . S
H387 C374 0.961 . S
H388 C374 0.961 . S
H389 C375 0.958 . S
H390 C375 0.961 . S
H391 C375 0.960 . S
C392 C393 1.391 1_455 S
C392 C394 1.394 . S
C392 H408 0.931 . S
C393 C392 1.391 1_655 S
C393 C397 1.376 . S
C394 C392 1.394 . S
C394 C395 1.369 1_455 S
C394 C398 1.531 . S
C395 C394 1.369 1_655 S
C395 C396 1.410 . S
C395 C403 1.503 . S
C396 C395 1.410 . S
C396 C397 1.392 . S
C396 C399 1.511 . S
C397 C393 1.376 . S
C397 C396 1.392 . S
C397 H409 0.929 . S
C398 C394 1.531 . S
C398 H410 0.960 . S
C398 H411 0.962 . S
C398 H412 0.960 . S
C399 C396 1.511 . S
C399 H413 0.961 . S
C399 H414 0.961 . S
C399 H415 0.961 . S
C400 C401 1.370 1_455 S
C400 C402 1.363 . S
C400 H416 0.931 . S
C401 C400 1.370 1_655 S
C401 C405 1.408 . S
C402 C400 1.363 . S
C402 C403 1.370 1_455 S
C402 C406 1.524 . S
C403 C395 1.503 . S
C403 C402 1.370 1_655 S
C403 C404 1.403 . S
C404 C403 1.403 . S
C404 C405 1.404 . S
C404 C407 1.539 . S
C405 C401 1.408 . S
C405 C404 1.404 . S
C405 H417 0.930 . S
C406 C402 1.524 . S
C406 H418 0.956 . S
C406 H419 0.961 . S
C406 H420 0.961 . S
C407 C404 1.539 . S
C407 H421 0.958 . S
C407 H422 0.961 . S
C407 H423 0.960 . S
H408 C392 0.931 . S
H409 C397 0.929 . S
H410 C398 0.960 . S
H411 C398 0.962 . S
H412 C398 0.960 . S
H413 C399 0.961 . S
H414 C399 0.961 . S
H415 C399 0.961 . S
H416 C400 0.931 . S
H417 C405 0.930 . S
H418 C406 0.956 . S
H419 C406 0.961 . S
H420 C406 0.961 . S
H421 C407 0.958 . S
H422 C407 0.961 . S
H423 C407 0.960 . S
C424 C425 1.391 1_565 S
C424 C426 1.394 . S
C424 H440 0.931 . S
C425 C424 1.391 1_545 S
C425 C429 1.376 . S
C426 C424 1.394 . S
C426 C427 1.369 1_565 S
C426 C430 1.531 . S
C427 C426 1.369 1_545 S
C427 C428 1.410 . S
C427 C435 1.503 . S
C428 C427 1.410 . S
C428 C429 1.392 . S
C428 C431 1.511 . S
C429 C425 1.376 . S
C429 C428 1.392 . S
C429 H441 0.929 . S
C430 C426 1.531 . S
C430 H442 0.960 . S
C430 H443 0.962 . S
C430 H444 0.960 . S
C431 C428 1.511 . S
C431 H445 0.961 . S
C431 H446 0.961 . S
C431 H447 0.961 . S
C432 C433 1.370 1_565 S
C432 C434 1.363 . S
C432 H448 0.931 . S
C433 C432 1.370 1_545 S
C433 C437 1.408 . S
C434 C432 1.363 . S
C434 C435 1.370 1_565 S
C434 C438 1.524 . S
C435 C427 1.503 . S
C435 C434 1.370 1_545 S
C435 C436 1.403 . S
C436 C435 1.403 . S
C436 C437 1.404 . S
C436 C439 1.539 . S
C437 C433 1.408 . S
C437 C436 1.404 . S
C437 H449 0.930 . S
C438 C434 1.524 . S
C438 H450 0.956 . S
C438 H451 0.961 . S
C438 H452 0.961 . S
C439 C436 1.539 . S
C439 H453 0.958 . S
C439 H454 0.961 . S
C439 H455 0.960 . S
H440 C424 0.931 . S
H441 C429 0.929 . S
H442 C430 0.960 . S
H443 C430 0.962 . S
H444 C430 0.960 . S
H445 C431 0.961 . S
H446 C431 0.961 . S
H447 C431 0.961 . S
H448 C432 0.931 . S
H449 C437 0.930 . S
H450 C438 0.956 . S
H451 C438 0.961 . S
H452 C438 0.961 . S
H453 C439 0.958 . S
H454 C439 0.961 . S
H455 C439 0.960 . S
C456 C457 1.391 1_556 S
C456 C458 1.394 . S
C456 H472 0.931 . S
C457 C456 1.391 1_554 S
C457 C461 1.376 . S
C458 C456 1.394 . S
C458 C459 1.369 1_556 S
C458 C462 1.531 . S
C459 C458 1.369 1_554 S
C459 C460 1.410 . S
C459 C467 1.503 . S
C460 C459 1.410 . S
C460 C461 1.392 . S
C460 C463 1.511 . S
C461 C457 1.376 . S
C461 C460 1.392 . S
C461 H473 0.929 . S
C462 C458 1.531 . S
C462 H474 0.960 1_556 S
C462 H475 0.962 . S
C462 H476 0.960 . S
C463 C460 1.511 . S
C463 H477 0.961 . S
C463 H478 0.961 . S
C463 H479 0.961 . S
C464 C465 1.370 1_556 S
C464 C466 1.363 . S
C464 H480 0.931 . S
C465 C464 1.370 1_554 S
C465 C469 1.408 . S
C466 C464 1.363 . S
C466 C467 1.370 1_556 S
C466 C470 1.524 . S
C467 C459 1.503 . S
C467 C466 1.370 1_554 S
C467 C468 1.403 . S
C468 C467 1.403 . S
C468 C469 1.404 . S
C468 C471 1.539 . S
C469 C465 1.408 . S
C469 C468 1.404 . S
C469 H481 0.930 . S
C470 C466 1.524 . S
C470 H482 0.956 . S
C470 H483 0.961 . S
C470 H484 0.961 . S
C471 C468 1.539 . S
C471 H485 0.958 . S
C471 H486 0.961 . S
C471 H487 0.960 . S
H472 C456 0.931 . S
H473 C461 0.929 . S
H474 C462 0.960 1_554 S
H475 C462 0.962 . S
H476 C462 0.960 . S
H477 C463 0.961 . S
H478 C463 0.961 . S
H479 C463 0.961 . S
H480 C464 0.931 . S
H481 C469 0.930 . S
H482 C470 0.956 . S
H483 C470 0.961 . S
H484 C470 0.961 . S
H485 C471 0.958 . S
H486 C471 0.961 . S
H487 C471 0.960 . S
C488 C489 1.391 . S
C488 C490 1.394 . S
C488 H504 0.931 . S
C489 C488 1.391 . S
C489 C493 1.376 1_554 S
C490 C488 1.394 . S
C490 C491 1.369 . S
C490 C494 1.531 . S
C491 C490 1.369 . S
C491 C492 1.410 1_554 S
C491 C499 1.503 . S
C492 C491 1.410 1_556 S
C492 C493 1.392 . S
C492 C495 1.511 . S
C493 C489 1.376 1_556 S
C493 C492 1.392 . S
C493 H505 0.929 . S
C494 C490 1.531 . S
C494 H506 0.960 . S
C494 H507 0.962 . S
C494 H508 0.960 . S
C495 C492 1.511 . S
C495 H509 0.961 . S
C495 H510 0.961 . S
C495 H511 0.961 1_556 S
C496 C497 1.370 1_556 S
C496 C498 1.363 . S
C496 H512 0.931 . S
C497 C496 1.370 1_554 S
C497 C501 1.408 . S
C498 C496 1.363 . S
C498 C499 1.370 1_556 S
C498 C502 1.524 . S
C499 C491 1.503 . S
C499 C498 1.370 1_554 S
C499 C500 1.403 . S
C500 C499 1.403 . S
C500 C501 1.404 . S
C500 C503 1.539 . S
C501 C497 1.408 . S
C501 C500 1.404 . S
C501 H513 0.930 . S
C502 C498 1.524 . S
C502 H514 0.956 . S
C502 H515 0.961 . S
C502 H516 0.961 . S
C503 C500 1.539 . S
C503 H517 0.958 . S
C503 H518 0.961 . S
C503 H519 0.960 . S
H504 C488 0.931 . S
H505 C493 0.929 . S
H506 C494 0.960 . S
H507 C494 0.962 . S
H508 C494 0.960 . S
H509 C495 0.961 . S
H510 C495 0.961 . S
H511 C495 0.961 1_554 S
H512 C496 0.931 . S
H513 C501 0.930 . S
H514 C502 0.956 . S
H515 C502 0.961 . S
H516 C502 0.961 . S
H517 C503 0.958 . S
H518 C503 0.961 . S
H519 C503 0.960 . S
C520 C521 1.391 . S
C520 C522 1.394 . S
C520 H536 0.931 . S
C521 C520 1.391 . S
C521 C525 1.376 1_556 S
C522 C520 1.394 . S
C522 C523 1.369 . S
C522 C526 1.531 . S
C523 C522 1.369 . S
C523 C524 1.410 1_556 S
C523 C531 1.503 . S
C524 C523 1.410 1_554 S
C524 C525 1.392 . S
C524 C527 1.511 . S
C525 C521 1.376 1_554 S
C525 C524 1.392 . S
C525 H537 0.929 . S
C526 C522 1.531 . S
C526 H538 0.960 . S
C526 H539 0.962 . S
C526 H540 0.960 . S
C527 C524 1.511 . S
C527 H541 0.961 . S
C527 H542 0.961 . S
C527 H543 0.961 1_554 S
C528 C529 1.370 1_554 S
C528 C530 1.363 . S
C528 H544 0.931 . S
C529 C528 1.370 1_556 S
C529 C533 1.408 . S
C530 C528 1.363 . S
C530 C531 1.370 1_554 S
C530 C534 1.524 . S
C531 C523 1.503 . S
C531 C530 1.370 1_556 S
C531 C532 1.403 . S
C532 C531 1.403 . S
C532 C533 1.404 . S
C532 C535 1.539 . S
C533 C529 1.408 . S
C533 C532 1.404 . S
C533 H545 0.930 . S
C534 C530 1.524 . S
C534 H546 0.956 . S
C534 H547 0.961 . S
C534 H548 0.961 . S
C535 C532 1.539 . S
C535 H549 0.958 . S
C535 H550 0.961 . S
C535 H551 0.960 . S
H536 C520 0.931 . S
H537 C525 0.929 . S
H538 C526 0.960 . S
H539 C526 0.962 . S
H540 C526 0.960 . S
H541 C527 0.961 . S
H542 C527 0.961 . S
H543 C527 0.961 1_556 S
H544 C528 0.931 . S
H545 C533 0.930 . S
H546 C534 0.956 . S
H547 C534 0.961 . S
H548 C534 0.961 . S
H549 C535 0.958 . S
H550 C535 0.961 . S
H551 C535 0.960 . S
C552 C553 1.391 . S
C552 C554 1.394 . S
C552 H568 0.931 . S
C553 C552 1.391 . S
C553 C557 1.376 1_556 S
C554 C552 1.394 . S
C554 C555 1.369 . S
C554 C558 1.531 . S
C555 C554 1.369 . S
C555 C556 1.410 1_556 S
C555 C563 1.503 . S
C556 C555 1.410 1_554 S
C556 C557 1.392 . S
C556 C559 1.511 . S
C557 C553 1.376 1_554 S
C557 C556 1.392 . S
C557 H569 0.929 . S
C558 C554 1.531 . S
C558 H570 0.960 . S
C558 H571 0.962 . S
C558 H572 0.960 . S
C559 C556 1.511 . S
C559 H573 0.961 . S
C559 H574 0.961 . S
C559 H575 0.961 . S
C560 C561 1.359 1_554 S
C560 C562 1.363 . S
C560 H576 0.931 . S
C561 C560 1.359 1_556 S
C561 C565 1.421 . S
C562 C560 1.363 . S
C562 C563 1.370 1_554 S
C562 C566 1.524 . S
C563 C555 1.503 . S
C563 C562 1.370 1_556 S
C563 C564 1.403 . S
C564 C563 1.403 . S
C564 C565 1.404 . S
C564 C567 1.539 . S
C565 C561 1.421 . S
C565 C564 1.404 . S
C565 H577 0.930 . S
C566 C562 1.524 . S
C566 H578 0.956 . S
C566 H579 0.961 . S
C566 H580 0.961 . S
C567 C564 1.539 . S
C567 H581 0.958 . S
C567 H582 0.961 . S
C567 H583 0.960 . S
H568 C552 0.931 . S
H569 C557 0.929 . S
H570 C558 0.960 . S
H571 C558 0.962 . S
H572 C558 0.960 . S
H573 C559 0.961 . S
H574 C559 0.961 . S
H575 C559 0.961 . S
H576 C560 0.931 . S
H577 C565 0.930 . S
H578 C566 0.956 . S
H579 C566 0.961 . S
H580 C566 0.961 . S
H581 C567 0.958 . S
H582 C567 0.961 . S
H583 C567 0.960 . S
C584 C585 1.391 . S
C584 C586 1.394 . S
C584 H600 0.931 . S
C585 C584 1.391 . S
C585 C589 1.376 . S
C586 C584 1.394 . S
C586 C587 1.369 . S
C586 C590 1.531 . S
C587 C586 1.369 . S
C587 C588 1.410 . S
C587 C595 1.503 . S
C588 C587 1.410 . S
C588 C589 1.392 . S
C588 C591 1.511 . S
C589 C585 1.376 . S
C589 C588 1.392 . S
C589 H601 0.929 . S
C590 C586 1.531 . S
C590 H602 0.960 . S
C590 H603 0.962 . S
C590 H604 0.960 . S
C591 C588 1.511 . S
C591 H605 0.961 . S
C591 H606 0.961 . S
C591 H607 0.961 . S
C592 C593 1.370 . S
C592 C594 1.363 . S
C592 H608 0.931 . S
C593 C592 1.370 . S
C593 C597 1.408 . S
C594 C592 1.363 . S
C594 C595 1.370 . S
C594 C598 1.524 . S
C595 C587 1.503 . S
C595 C594 1.370 . S
C595 C596 1.403 . S
C596 C595 1.403 . S
C596 C597 1.404 . S
C596 C599 1.539 . S
C597 C593 1.408 . S
C597 C596 1.404 . S
C597 H609 0.930 . S
C598 C594 1.524 . S
C598 H610 0.956 . S
C598 H611 0.961 . S
C598 H612 0.961 . S
C599 C596 1.539 . S
C599 H613 0.958 . S
C599 H614 0.961 . S
C599 H615 0.960 . S
H600 C584 0.931 . S
H601 C589 0.929 . S
H602 C590 0.960 . S
H603 C590 0.962 . S
H604 C590 0.960 . S
H605 C591 0.961 . S
H606 C591 0.961 . S
H607 C591 0.961 . S
H608 C592 0.931 . S
H609 C597 0.930 . S
H610 C598 0.956 . S
H611 C598 0.961 . S
H612 C598 0.961 . S
H613 C599 0.958 . S
H614 C599 0.961 . S
H615 C599 0.960 . S
C616 C617 1.391 . S
C616 C618 1.394 . S
C616 H632 0.931 . S
C617 C616 1.391 . S
C617 C621 1.376 . S
C618 C616 1.394 . S
C618 C619 1.369 . S
C618 C622 1.531 . S
C619 C618 1.369 . S
C619 C620 1.410 . S
C619 C627 1.503 . S
C620 C619 1.410 . S
C620 C621 1.392 . S
C620 C623 1.511 . S
C621 C617 1.376 . S
C621 C620 1.392 . S
C621 H633 0.929 . S
C622 C618 1.531 . S
C622 H634 0.960 . S
C622 H635 0.962 . S
C622 H636 0.960 . S
C623 C620 1.511 . S
C623 H637 0.961 . S
C623 H638 0.961 . S
C623 H639 0.961 . S
C624 C625 1.370 . S
C624 C626 1.363 . S
C624 H640 0.931 . S
C625 C624 1.370 . S
C625 C629 1.408 . S
C626 C624 1.363 . S
C626 C627 1.370 . S
C626 C630 1.524 . S
C627 C619 1.503 . S
C627 C626 1.370 . S
C627 C628 1.403 . S
C628 C627 1.403 . S
C628 C629 1.404 . S
C628 C631 1.539 . S
C629 C625 1.408 . S
C629 C628 1.404 . S
C629 H641 0.930 . S
C630 C626 1.524 . S
C630 H642 0.956 . S
C630 H643 0.961 . S
C630 H644 0.961 . S
C631 C628 1.539 . S
C631 H645 0.958 . S
C631 H646 0.961 . S
C631 H647 0.960 . S
H632 C616 0.931 . S
H633 C621 0.929 . S
H634 C622 0.960 . S
H635 C622 0.962 . S
H636 C622 0.960 . S
H637 C623 0.961 . S
H638 C623 0.961 . S
H639 C623 0.961 . S
H640 C624 0.931 . S
H641 C629 0.930 . S
H642 C630 0.956 . S
H643 C630 0.961 . S
H644 C630 0.961 . S
H645 C631 0.958 . S
H646 C631 0.961 . S
H647 C631 0.960 . S
C648 C649 1.391 . S
C648 C650 1.394 . S
C648 H664 0.931 . S
C649 C648 1.391 . S
C649 C653 1.376 . S
C650 C648 1.394 . S
C650 C651 1.369 . S
C650 C654 1.531 . S
C651 C650 1.369 . S
C651 C652 1.410 . S
C651 C659 1.503 . S
C652 C651 1.410 . S
C652 C653 1.392 . S
C652 C655 1.511 . S
C653 C649 1.376 . S
C653 C652 1.392 . S
C653 H665 0.929 . S
C654 C650 1.531 . S
C654 H666 0.960 . S
C654 H667 0.962 . S
C654 H668 0.960 . S
C655 C652 1.511 . S
C655 H669 0.961 . S
C655 H670 0.961 . S
C655 H671 0.961 . S
C656 C657 1.370 . S
C656 C658 1.363 . S
C656 H672 0.931 . S
C657 C656 1.370 . S
C657 C661 1.408 . S
C658 C656 1.363 . S
C658 C659 1.370 . S
C658 C662 1.524 . S
C659 C651 1.503 . S
C659 C658 1.370 . S
C659 C660 1.403 . S
C660 C659 1.403 . S
C660 C661 1.404 . S
C660 C663 1.539 . S
C661 C657 1.408 . S
C661 C660 1.404 . S
C661 H673 0.930 . S
C662 C658 1.524 . S
C662 H674 0.956 . S
C662 H675 0.961 . S
C662 H676 0.961 . S
C663 C660 1.539 . S
C663 H677 0.958 . S
C663 H678 0.961 . S
C663 H679 0.960 . S
H664 C648 0.931 . S
H665 C653 0.929 . S
H666 C654 0.960 . S
H667 C654 0.962 . S
H668 C654 0.960 . S
H669 C655 0.961 . S
H670 C655 0.961 . S
H671 C655 0.961 . S
H672 C656 0.931 . S
H673 C661 0.930 . S
H674 C662 0.956 . S
H675 C662 0.961 . S
H676 C662 0.961 . S
H677 C663 0.958 . S
H678 C663 0.961 . S
H679 C663 0.960 . S
C680 C681 1.391 . S
C680 C682 1.394 . S
C680 H696 0.931 . S
C681 C680 1.391 . S
C681 C685 1.376 . S
C682 C680 1.394 . S
C682 C683 1.369 . S
C682 C686 1.531 . S
C683 C682 1.369 . S
C683 C684 1.410 . S
C683 C691 1.503 . S
C684 C683 1.410 . S
C684 C685 1.392 . S
C684 C687 1.511 . S
C685 C681 1.376 . S
C685 C684 1.392 . S
C685 H697 0.929 . S
C686 C682 1.531 . S
C686 H698 0.960 . S
C686 H699 0.962 . S
C686 H700 0.960 . S
C687 C684 1.511 . S
C687 H701 0.961 . S
C687 H702 0.961 . S
C687 H703 0.961 . S
C688 C689 1.370 . S
C688 C690 1.363 . S
C688 H704 0.931 . S
C689 C688 1.370 . S
C689 C693 1.408 . S
C690 C688 1.363 . S
C690 C691 1.370 . S
C690 C694 1.524 . S
C691 C683 1.503 . S
C691 C690 1.370 . S
C691 C692 1.403 . S
C692 C691 1.403 . S
C692 C693 1.404 . S
C692 C695 1.539 . S
C693 C689 1.408 . S
C693 C692 1.404 . S
C693 H705 0.930 . S
C694 C690 1.524 . S
C694 H706 0.956 . S
C694 H707 0.961 . S
C694 H708 0.961 . S
C695 C692 1.539 . S
C695 H709 0.958 . S
C695 H710 0.961 . S
C695 H711 0.960 . S
H696 C680 0.931 . S
H697 C685 0.929 . S
H698 C686 0.960 . S
H699 C686 0.962 . S
H700 C686 0.960 . S
H701 C687 0.961 . S
H702 C687 0.961 . S
H703 C687 0.961 . S
H704 C688 0.931 . S
H705 C693 0.930 . S
H706 C694 0.956 . S
H707 C694 0.961 . S
H708 C694 0.961 . S
H709 C695 0.958 . S
H710 C695 0.961 . S
H711 C695 0.960 . S
C712 C713 1.391 . S
C712 C714 1.394 . S
C712 H728 0.931 . S
C713 C712 1.391 . S
C713 C717 1.376 . S
C714 C712 1.394 . S
C714 C715 1.369 . S
C714 C718 1.531 . S
C715 C714 1.369 . S
C715 C716 1.410 . S
C715 C723 1.503 . S
C716 C715 1.410 . S
C716 C717 1.392 . S
C716 C719 1.511 . S
C717 C713 1.376 . S
C717 C716 1.392 . S
C717 H729 0.929 . S
C718 C714 1.531 . S
C718 H730 0.960 . S
C718 H731 0.962 . S
C718 H732 0.960 . S
C719 C716 1.511 . S
C719 H733 0.961 . S
C719 H734 0.961 . S
C719 H735 0.961 . S
C720 C721 1.370 . S
C720 C722 1.363 . S
C720 H736 0.931 . S
C721 C720 1.370 . S
C721 C725 1.408 . S
C722 C720 1.363 . S
C722 C723 1.370 . S
C722 C726 1.524 . S
C723 C715 1.503 . S
C723 C722 1.370 . S
C723 C724 1.403 . S
C724 C723 1.403 . S
C724 C725 1.404 . S
C724 C727 1.539 . S
C725 C721 1.408 . S
C725 C724 1.404 . S
C725 H737 0.930 . S
C726 C722 1.524 . S
C726 H738 0.956 . S
C726 H739 0.961 . S
C726 H740 0.961 . S
C727 C724 1.539 . S
C727 H741 0.958 . S
C727 H742 0.961 . S
C727 H743 0.960 . S
H728 C712 0.931 . S
H729 C717 0.929 . S
H730 C718 0.960 . S
H731 C718 0.962 . S
H732 C718 0.960 . S
H733 C719 0.961 . S
H734 C719 0.961 . S
H735 C719 0.961 . S
H736 C720 0.931 . S
H737 C725 0.930 . S
H738 C726 0.956 . S
H739 C726 0.961 . S
H740 C726 0.961 . S
H741 C727 0.958 . S
H742 C727 0.961 . S
H743 C727 0.960 . S
C744 C745 1.391 . S
C744 C746 1.394 . S
C744 H760 0.931 . S
C745 C744 1.391 . S
C745 C749 1.376 . S
C746 C744 1.394 . S
C746 C747 1.369 . S
C746 C750 1.531 . S
C747 C746 1.369 . S
C747 C748 1.410 . S
C747 C755 1.503 . S
C748 C747 1.410 . S
C748 C749 1.392 . S
C748 C751 1.511 . S
C749 C745 1.376 . S
C749 C748 1.392 . S
C749 H761 0.929 . S
C750 C746 1.531 . S
C750 H762 0.960 . S
C750 H763 0.962 . S
C750 H764 0.960 . S
C751 C748 1.511 . S
C751 H765 0.961 . S
C751 H766 0.961 . S
C751 H767 0.961 . S
C752 C753 1.370 . S
C752 C754 1.363 . S
C752 H768 0.931 . S
C753 C752 1.370 . S
C753 C757 1.408 . S
C754 C752 1.363 . S
C754 C755 1.370 . S
C754 C758 1.524 . S
C755 C747 1.503 . S
C755 C754 1.370 . S
C755 C756 1.403 . S
C756 C755 1.403 . S
C756 C757 1.404 . S
C756 C759 1.539 . S
C757 C753 1.408 . S
C757 C756 1.404 . S
C757 H769 0.930 . S
C758 C754 1.524 . S
C758 H770 0.956 . S
C758 H771 0.961 . S
C758 H772 0.961 . S
C759 C756 1.539 . S
C759 H773 0.958 . S
C759 H774 0.961 . S
C759 H775 0.960 . S
H760 C744 0.931 . S
H761 C749 0.929 . S
H762 C750 0.960 . S
H763 C750 0.962 . S
H764 C750 0.960 . S
H765 C751 0.961 . S
H766 C751 0.961 . S
H767 C751 0.961 . S
H768 C752 0.931 . S
H769 C757 0.930 . S
H770 C758 0.956 . S
H771 C758 0.961 . S
H772 C758 0.961 . S
H773 C759 0.958 . S
H774 C759 0.961 . S
H775 C759 0.960 . S
C776 C777 1.391 . S
C776 C778 1.394 . S
C776 H792 0.931 . S
C777 C776 1.391 . S
C777 C781 1.376 . S
C778 C776 1.394 . S
C778 C779 1.369 . S
C778 C782 1.531 . S
C779 C778 1.369 . S
C779 C780 1.410 . S
C779 C787 1.503 . S
C780 C779 1.410 . S
C780 C781 1.392 . S
C780 C783 1.511 . S
C781 C777 1.376 . S
C781 C780 1.392 . S
C781 H793 0.929 . S
C782 C778 1.531 . S
C782 H794 0.960 . S
C782 H795 0.962 . S
C782 H796 0.960 . S
C783 C780 1.511 . S
C783 H797 0.961 . S
C783 H798 0.961 . S
C783 H799 0.961 . S
C784 C785 1.370 . S
C784 C786 1.363 . S
C784 H800 0.931 . S
C785 C784 1.370 . S
C785 C789 1.408 . S
C786 C784 1.363 . S
C786 C787 1.370 . S
C786 C790 1.524 . S
C787 C779 1.503 . S
C787 C786 1.370 . S
C787 C788 1.403 . S
C788 C787 1.403 . S
C788 C789 1.404 . S
C788 C791 1.539 . S
C789 C785 1.408 . S
C789 C788 1.404 . S
C789 H801 0.930 . S
C790 C786 1.524 . S
C790 H802 0.956 . S
C790 H803 0.961 . S
C790 H804 0.961 . S
C791 C788 1.539 . S
C791 H805 0.958 . S
C791 H806 0.961 . S
C791 H807 0.960 . S
H792 C776 0.931 . S
H793 C781 0.929 . S
H794 C782 0.960 . S
H795 C782 0.962 . S
H796 C782 0.960 . S
H797 C783 0.961 . S
H798 C783 0.961 . S
H799 C783 0.961 . S
H800 C784 0.931 . S
H801 C789 0.930 . S
H802 C790 0.956 . S
H803 C790 0.961 . S
H804 C790 0.961 . S
H805 C791 0.958 . S
H806 C791 0.961 . S
H807 C791 0.960 . S
C808 C809 1.391 . S
C808 C810 1.394 . S
C808 H824 0.931 . S
C809 C808 1.391 . S
C809 C813 1.376 . S
C810 C808 1.394 . S
C810 C811 1.369 . S
C810 C814 1.531 . S
C811 C810 1.369 . S
C811 C812 1.410 . S
C811 C819 1.503 . S
C812 C811 1.410 . S
C812 C813 1.392 . S
C812 C815 1.511 . S
C813 C809 1.376 . S
C813 C812 1.392 . S
C813 H825 0.929 . S
C814 C810 1.531 . S
C814 H826 0.960 . S
C814 H827 0.962 . S
C814 H828 0.960 . S
C815 C812 1.511 . S
C815 H829 0.961 . S
C815 H830 0.961 . S
C815 H831 0.961 . S
C816 C817 1.370 . S
C816 C818 1.363 . S
C816 H832 0.931 . S
C817 C816 1.370 . S
C817 C821 1.408 . S
C818 C816 1.363 . S
C818 C819 1.370 . S
C818 C822 1.524 . S
C819 C811 1.503 . S
C819 C818 1.370 . S
C819 C820 1.403 . S
C820 C819 1.403 . S
C820 C821 1.404 . S
C820 C823 1.539 . S
C821 C817 1.408 . S
C821 C820 1.404 . S
C821 H833 0.930 . S
C822 C818 1.524 . S
C822 H834 0.956 . S
C822 H835 0.961 . S
C822 H836 0.961 . S
C823 C820 1.539 . S
C823 H837 0.958 . S
C823 H838 0.961 . S
C823 H839 0.960 . S
H824 C808 0.931 . S
H825 C813 0.929 . S
H826 C814 0.960 . S
H827 C814 0.962 . S
H828 C814 0.960 . S
H829 C815 0.961 . S
H830 C815 0.961 . S
H831 C815 0.961 . S
H832 C816 0.931 . S
H833 C821 0.930 . S
H834 C822 0.956 . S
H835 C822 0.961 . S
H836 C822 0.961 . S
H837 C823 0.958 . S
H838 C823 0.961 . S
H839 C823 0.960 . S
C840 C841 1.391 . S
C840 C842 1.394 . S
C840 H856 0.931 . S
C841 C840 1.391 . S
C841 C845 1.376 . S
C842 C840 1.394 . S
C842 C843 1.369 . S
C842 C846 1.531 . S
C843 C842 1.369 . S
C843 C844 1.410 . S
C843 C851 1.503 . S
C844 C843 1.410 . S
C844 C845 1.392 . S
C844 C847 1.511 . S
C845 C841 1.376 . S
C845 C844 1.392 . S
C845 H857 0.929 . S
C846 C842 1.531 . S
C846 H858 0.960 . S
C846 H859 0.962 . S
C846 H860 0.960 . S
C847 C844 1.511 . S
C847 H861 0.961 . S
C847 H862 0.961 . S
C847 H863 0.961 . S
C848 C849 1.370 . S
C848 C850 1.363 . S
C848 H864 0.931 . S
C849 C848 1.370 . S
C849 C853 1.408 . S
C850 C848 1.363 . S
C850 C851 1.370 . S
C850 C854 1.524 . S
C851 C843 1.503 . S
C851 C850 1.370 . S
C851 C852 1.403 . S
C852 C851 1.403 . S
C852 C853 1.404 . S
C852 C855 1.539 . S
C853 C849 1.408 . S
C853 C852 1.404 . S
C853 H865 0.930 . S
C854 C850 1.524 . S
C854 H866 0.956 . S
C854 H867 0.961 . S
C854 H868 0.961 . S
C855 C852 1.539 . S
C855 H869 0.958 . S
C855 H870 0.961 . S
C855 H871 0.960 . S
H856 C840 0.931 . S
H857 C845 0.929 . S
H858 C846 0.960 . S
H859 C846 0.962 . S
H860 C846 0.960 . S
H861 C847 0.961 . S
H862 C847 0.961 . S
H863 C847 0.961 . S
H864 C848 0.931 . S
H865 C853 0.930 . S
H866 C854 0.956 . S
H867 C854 0.961 . S
H868 C854 0.961 . S
H869 C855 0.958 . S
H870 C855 0.961 . S
H871 C855 0.960 . S
C872 C873 1.391 . S
C872 C874 1.394 . S
C872 H888 0.931 . S
C873 C872 1.391 . S
C873 C877 1.376 . S
C874 C872 1.394 . S
C874 C875 1.369 . S
C874 C878 1.531 . S
C875 C874 1.369 . S
C875 C876 1.410 . S
C875 C883 1.503 . S
C876 C875 1.410 . S
C876 C877 1.392 . S
C876 C879 1.511 . S
C877 C873 1.376 . S
C877 C876 1.392 . S
C877 H889 0.929 . S
C878 C874 1.531 . S
C878 H890 0.960 . S
C878 H891 0.962 . S
C878 H892 0.960 . S
C879 C876 1.511 . S
C879 H893 0.961 . S
C879 H894 0.961 . S
C879 H895 0.961 . S
C880 C881 1.370 . S
C880 C882 1.363 . S
C880 H896 0.931 . S
C881 C880 1.370 . S
C881 C885 1.408 . S
C882 C880 1.363 . S
C882 C883 1.370 . S
C882 C886 1.524 . S
C883 C875 1.503 . S
C883 C882 1.370 . S
C883 C884 1.403 . S
C884 C883 1.403 . S
C884 C885 1.404 . S
C884 C887 1.539 . S
C885 C881 1.408 . S
C885 C884 1.404 . S
C885 H897 0.930 . S
C886 C882 1.524 . S
C886 H898 0.956 . S
C886 H899 0.961 . S
C886 H900 0.961 . S
C887 C884 1.539 . S
C887 H901 0.958 . S
C887 H902 0.961 . S
C887 H903 0.960 . S
H888 C872 0.931 . S
H889 C877 0.929 . S
H890 C878 0.960 . S
H891 C878 0.962 . S
H892 C878 0.960 . S
H893 C879 0.961 . S
H894 C879 0.961 . S
H895 C879 0.961 . S
H896 C880 0.931 . S
H897 C885 0.930 . S
H898 C886 0.956 . S
H899 C886 0.961 . S
H900 C886 0.961 . S
H901 C887 0.958 . S
H902 C887 0.961 . S
H903 C887 0.960 . S
C904 C905 1.391 . S
C904 C906 1.394 . S
C904 H920 0.931 . S
C905 C904 1.391 . S
C905 C909 1.376 . S
C906 C904 1.394 . S
C906 C907 1.369 . S
C906 C910 1.531 . S
C907 C906 1.369 . S
C907 C908 1.410 . S
C907 C915 1.503 . S
C908 C907 1.410 . S
C908 C909 1.392 . S
C908 C911 1.511 . S
C909 C905 1.376 . S
C909 C908 1.392 . S
C909 H921 0.929 . S
C910 C906 1.531 . S
C910 H922 0.960 . S
C910 H923 0.962 . S
C910 H924 0.960 . S
C911 C908 1.511 . S
C911 H925 0.961 . S
C911 H926 0.961 . S
C911 H927 0.961 . S
C912 C913 1.370 . S
C912 C914 1.363 . S
C912 H928 0.931 . S
C913 C912 1.370 . S
C913 C917 1.408 . S
C914 C912 1.363 . S
C914 C915 1.370 . S
C914 C918 1.524 . S
C915 C907 1.503 . S
C915 C914 1.370 . S
C915 C916 1.403 . S
C916 C915 1.403 . S
C916 C917 1.404 . S
C916 C919 1.539 . S
C917 C913 1.408 . S
C917 C916 1.404 . S
C917 H929 0.930 . S
C918 C914 1.524 . S
C918 H930 0.956 . S
C918 H931 0.961 . S
C918 H932 0.961 . S
C919 C916 1.539 . S
C919 H933 0.958 . S
C919 H934 0.961 . S
C919 H935 0.960 . S
H920 C904 0.931 . S
H921 C909 0.929 . S
H922 C910 0.960 . S
H923 C910 0.962 . S
H924 C910 0.960 . S
H925 C911 0.961 . S
H926 C911 0.961 . S
H927 C911 0.961 . S
H928 C912 0.931 . S
H929 C917 0.930 . S
H930 C918 0.956 . S
H931 C918 0.961 . S
H932 C918 0.961 . S
H933 C919 0.958 . S
H934 C919 0.961 . S
H935 C919 0.960 . S
C936 C937 1.391 . S
C936 C938 1.394 . S
C936 H952 0.931 . S
C937 C936 1.391 . S
C937 C941 1.376 . S
C938 C936 1.394 . S
C938 C939 1.369 . S
C938 C942 1.531 . S
C939 C938 1.369 . S
C939 C940 1.410 . S
C939 C947 1.503 . S
C940 C939 1.410 . S
C940 C941 1.392 . S
C940 C943 1.511 . S
C941 C937 1.376 . S
C941 C940 1.392 . S
C941 H953 0.929 . S
C942 C938 1.531 . S
C942 H954 0.960 . S
C942 H955 0.962 . S
C942 H956 0.960 . S
C943 C940 1.511 . S
C943 H957 0.961 . S
C943 H958 0.961 . S
C943 H959 0.961 . S
C944 C945 1.370 . S
C944 C946 1.363 . S
C944 H960 0.931 . S
C945 C944 1.370 . S
C945 C949 1.408 . S
C946 C944 1.363 . S
C946 C947 1.370 . S
C946 C950 1.524 . S
C947 C939 1.503 . S
C947 C946 1.370 . S
C947 C948 1.403 . S
C948 C947 1.403 . S
C948 C949 1.404 . S
C948 C951 1.539 . S
C949 C945 1.408 . S
C949 C948 1.404 . S
C949 H961 0.930 . S
C950 C946 1.524 . S
C950 H962 0.956 . S
C950 H963 0.961 . S
C950 H964 0.961 . S
C951 C948 1.539 . S
C951 H965 0.958 . S
C951 H966 0.961 . S
C951 H967 0.960 . S
H952 C936 0.931 . S
H953 C941 0.929 . S
H954 C942 0.960 . S
H955 C942 0.962 . S
H956 C942 0.960 . S
H957 C943 0.961 . S
H958 C943 0.961 . S
H959 C943 0.961 . S
H960 C944 0.931 . S
H961 C949 0.930 . S
H962 C950 0.956 . S
H963 C950 0.961 . S
H964 C950 0.961 . S
H965 C951 0.958 . S
H966 C951 0.961 . S
H967 C951 0.960 . S
C201 C43 1.495 . S
C209 C92 1.495 . S
C233 C44 1.495 . S
C241 C134 1.499 . S
C265 C41 1.495 1_655 S
C273 C90 1.499 1_655 S
C297 C138 1.495 . S
C305 C47 1.495 1_565 S
C329 C42 1.495 . S
C337 C93 1.503 . S
C361 C45 1.495 1_565 S
C369 C137 1.499 1_565 S
C393 C91 1.495 1_655 S
C401 C40 1.499 1_655 S
C425 C139 1.495 . S
C433 C46 1.503 . S
C457 C188 1.495 . S
C465 C39 1.495 . S
C489 C187 1.495 . S
C497 C34 1.499 . S
C521 C184 1.495 1_556 S
C529 C37 1.499 1_556 S
C553 C38 1.495 1_556 S
C561 C189 1.503 1_556 S
C585 C195 1.495 . S
C593 C94 1.503 . S
C617 C97 1.495 . S
C625 C196 1.499 . S
C649 C95 1.495 . S
C657 C194 1.495 . S
C681 C197 1.495 . S
C689 C96 1.499 . S
C713 C146 1.495 . S
C721 C89 1.499 . S
C745 C84 1.495 . S
C753 C144 1.495 . S
C777 C87 1.495 . S
C785 C145 1.503 . S
C809 C147 1.495 . S
C817 C88 1.499 . S
C841 C192 1.495 . S
C849 C143 1.499 . S
C873 C140 1.495 . S
C881 C190 1.503 . S
C905 C193 1.495 . S
C913 C142 1.499 . S
C937 C141 1.495 . S
C945 C191 1.495 . S
