# Generated by pormake.
# Topology sml, (6)-cn, num edge types: 1
# Building blocks:
#     Node 0, Type 0, BuildingBlock: UKALOJ_clean_sbu_0, # of connection points: 6
#     Node 1, Type 0, BuildingBlock: UKALOJ_clean_sbu_0, # of connection points: 6
#     Node 2, Type 0, BuildingBlock: UKALOJ_clean_sbu_0, # of connection points: 6
#     Node 3, Type 0, BuildingBlock: UKALOJ_clean_sbu_0, # of connection points: 6
#     Node 4, Type 0, BuildingBlock: UKALOJ_clean_sbu_0, # of connection points: 6
#     Node 5, Type 0, BuildingBlock: UKALOJ_clean_sbu_0, # of connection points: 6
#     Edge 6, Type (0, 0), BuildingBlock: FUNLAD_clean_linker_0, # of connection points: 2
#     Edge 7, Type (0, 0), BuildingBlock: FUNLAD_clean_linker_0, # of connection points: 2
#     Edge 8, Type (0, 0), BuildingBlock: FUNLAD_clean_linker_0, # of connection points: 2
#     Edge 9, Type (0, 0), BuildingBlock: FUNLAD_clean_linker_0, # of connection points: 2
#     Edge 10, Type (0, 0), BuildingBlock: FUNLAD_clean_linker_0, # of connection points: 2
#     Edge 11, Type (0, 0), BuildingBlock: FUNLAD_clean_linker_0, # of connection points: 2
#     Edge 12, Type (0, 0), BuildingBlock: FUNLAD_clean_linker_0, # of connection points: 2
#     Edge 13, Type (0, 0), BuildingBlock: FUNLAD_clean_linker_0, # of connection points: 2
#     Edge 14, Type (0, 0), BuildingBlock: FUNLAD_clean_linker_0, # of connection points: 2
#     Edge 15, Type (0, 0), BuildingBlock: FUNLAD_clean_linker_0, # of connection points: 2
#     Edge 16, Type (0, 0), BuildingBlock: FUNLAD_clean_linker_0, # of connection points: 2
#     Edge 17, Type (0, 0), BuildingBlock: FUNLAD_clean_linker_0, # of connection points: 2
#     Edge 18, Type (0, 0), BuildingBlock: FUNLAD_clean_linker_0, # of connection points: 2
#     Edge 19, Type (0, 0), BuildingBlock: FUNLAD_clean_linker_0, # of connection points: 2
#     Edge 20, Type (0, 0), BuildingBlock: FUNLAD_clean_linker_0, # of connection points: 2
#     Edge 21, Type (0, 0), BuildingBlock: FUNLAD_clean_linker_0, # of connection points: 2
#     Edge 22, Type (0, 0), BuildingBlock: FUNLAD_clean_linker_0, # of connection points: 2
#     Edge 23, Type (0, 0), BuildingBlock: FUNLAD_clean_linker_0, # of connection points: 2
# Relax obj value: 0.291
# Max RMSD: 0.219
# Mean RMSD: 0.219
data_MOF--net-sml--node1-UKALOJ_clean_sbu_0--edge1-FUNLAD_clean_linker_0
_symmetry_space_group_name_H-M    P1
_symmetry_Int_Tables_number       1
_symmetry_cell_setting            triclinic
loop_
_symmetry_equiv_pos_as_xyz
'x, y, z'
_cell_length_a     42.938216
_cell_length_b     42.993929
_cell_length_c     21.589544
_cell_angle_alpha  90.138894
_cell_angle_beta   90.028331
_cell_angle_gamma 119.94457
loop_
_atom_site_label
_atom_site_type_symbol
_atom_site_fract_x
_atom_site_fract_y
_atom_site_fract_z
_atom_type_partial_charge
Zn0 Zn 0.23591 0.41686 0.07525 0.0
O1 O 0.23167 0.46198 0.09767 0.0
C2 C 0.15412 0.37024 0.08179 0.0
Zn3 Zn 0.20542 0.41374 0.98969 0.0
C4 C 0.21543 0.47424 0.06572 0.0
O5 O 0.20033 0.45884 0.0152 0.0
C6 C 0.22637 0.35648 8e-05 0.0
O7 O 0.25684 0.44874 0.95435 0.0
O8 O 0.28755 0.45182 0.03768 0.0
N9 N 0.18428 0.41207 0.90382 0.0
C10 C 0.19284 0.40386 0.84836 0.0
C11 C 0.15342 0.41924 0.83187 0.0
N12 N 0.15978 0.42164 0.89347 0.0
N13 N 0.17363 0.40778 0.80292 0.0
C14 C 0.24633 0.42424 0.21679 0.0
C15 C 0.28586 0.40912 0.234 0.0
N16 N 0.25684 0.41832 0.16126 0.0
N17 N 0.2815 0.40902 0.17201 0.0
N18 N 0.26411 0.41868 0.26283 0.0
H19 H 0.23461 0.46702 0.21846 0.0
H20 H 0.2095 0.43285 0.27401 0.0
H21 H 0.19757 0.42503 0.19339 0.0
C22 C 0.22028 0.43761 0.22626 0.0
C23 C 0.22154 0.3942 0.83731 0.0
H24 H 0.23559 0.40582 0.79298 0.0
H25 H 0.20877 0.36461 0.83361 0.0
H26 H 0.24169 0.40365 0.87478 0.0
O27 O 0.2101 0.36832 0.96703 0.0
O28 O 0.24079 0.37214 0.05073 0.0
C29 C 0.28684 0.46089 0.98187 0.0
O30 O 0.18359 0.38165 0.11097 0.0
O31 O 0.1546 0.37958 0.02592 0.0
Zn32 Zn 0.76828 0.18602 0.29972 0.0
O33 O 0.77389 0.23511 0.27264 0.0
C34 C 0.8496 0.21923 0.29998 0.0
Zn35 Zn 0.79614 0.21406 0.38677 0.0
C36 C 0.78985 0.2642 0.30313 0.0
O37 O 0.80303 0.2644 0.35604 0.0
C38 C 0.77479 0.13565 0.38048 0.0
O39 O 0.74426 0.19932 0.41799 0.0
O40 O 0.71584 0.17023 0.33395 0.0
N41 N 0.81603 0.23496 0.4727 0.0
C42 C 0.80601 0.21972 0.52913 0.0
C43 C 0.84683 0.27417 0.54319 0.0
N44 N 0.84144 0.26879 0.48154 0.0
N45 N 0.82516 0.24363 0.57389 0.0
C46 C 0.75846 0.18033 0.15728 0.0
C47 C 0.71734 0.12598 0.14339 0.0
N48 N 0.74829 0.1652 0.21377 0.0
N49 N 0.72269 0.13144 0.20503 0.0
N50 N 0.73923 0.1564 0.1126 0.0
H51 H 0.77768 0.23536 0.1345 0.0
H52 H 0.80448 0.21765 0.10399 0.0
H53 H 0.80735 0.22918 0.18459 0.0
C54 C 0.78887 0.21764 0.14494 0.0
C55 C 0.77585 0.18226 0.54127 0.0
H56 H 0.757 0.171 0.50204 0.0
H57 H 0.76056 0.1818 0.58302 0.0
H58 H 0.78729 0.16458 0.55011 0.0
O59 O 0.78979 0.16366 0.4142 0.0
O60 O 0.76247 0.13707 0.32779 0.0
C61 C 0.71498 0.18069 0.3888 0.0
O62 O 0.82106 0.20156 0.26822 0.0
O63 O 0.84755 0.22882 0.35477 0.0
Zn64 Zn 0.56322 0.80111 0.7033 0.0
O65 O 0.52019 0.74995 0.72539 0.0
C66 C 0.61293 0.76989 0.7085 0.0
Zn67 Zn 0.5678 0.77599 0.61608 0.0
C68 C 0.50953 0.72214 0.69184 0.0
O69 O 0.52431 0.72481 0.63959 0.0
C70 C 0.62277 0.85449 0.63048 0.0
O71 O 0.53136 0.7907 0.58021 0.0
O72 O 0.52628 0.81551 0.66555 0.0
N73 N 0.57133 0.75775 0.53019 0.0
C74 C 0.57148 0.77127 0.47381 0.0
C75 C 0.57297 0.72294 0.45942 0.0
N76 N 0.57237 0.72776 0.52118 0.0
N77 N 0.57213 0.7498 0.42899 0.0
C78 C 0.5616 0.80746 0.84563 0.0
C79 C 0.55643 0.85382 0.85907 0.0
N80 N 0.55975 0.81962 0.78901 0.0
N81 N 0.55643 0.84838 0.79743 0.0
N82 N 0.56001 0.82865 0.89007 0.0
H83 H 0.55257 0.75471 0.8193 0.0
H84 H 0.54768 0.76047 0.90054 0.0
H85 H 0.5915 0.78116 0.86634 0.0
C86 C 0.56319 0.77392 0.85821 0.0
C87 C 0.57293 0.80637 0.46167 0.0
H88 H 0.58043 0.82372 0.50301 0.0
H89 H 0.54628 0.80117 0.44548 0.0
H90 H 0.59248 0.821 0.42416 0.0
O91 O 0.61232 0.82713 0.59578 0.0
O92 O 0.60607 0.85178 0.68047 0.0
C93 C 0.51789 0.80693 0.60907 0.0
O94 O 0.60078 0.78698 0.73861 0.0
O95 O 0.60322 0.76091 0.65273 0.0
Zn96 Zn 0.78581 0.56434 0.96707 0.0
O97 O 0.7361 0.5183 0.94942 0.0
C98 C 0.7506 0.61071 0.95776 0.0
Zn99 Zn 0.76005 0.5697 0.05264 0.0
C100 C 0.708 0.50724 0.98215 0.0
O101 O 0.70923 0.5242 0.03126 0.0
C102 C 0.8379 0.62685 0.03668 0.0
O103 O 0.7772 0.5352 0.08961 0.0
O104 O 0.80431 0.53145 0.006 0.0
N105 N 0.74253 0.57458 0.13798 0.0
C106 C 0.7604 0.58417 0.19234 0.0
C107 C 0.70762 0.57518 0.2094 0.0
N108 N 0.70974 0.56905 0.14858 0.0
N109 N 0.7393 0.58525 0.23741 0.0
C110 C 0.78641 0.55683 0.82635 0.0
C111 C 0.84224 0.58369 0.80488 0.0
N112 N 0.80428 0.56263 0.88033 0.0
N113 N 0.83901 0.57905 0.86687 0.0
N114 N 0.80956 0.57025 0.7786 0.0
H115 H 0.73565 0.50923 0.83704 0.0
H116 H 0.73724 0.53439 0.77113 0.0
H117 H 0.73421 0.55007 0.84738 0.0
C118 C 0.74618 0.53689 0.81991 0.0
C119 C 0.79761 0.59012 0.20307 0.0
H120 H 0.79818 0.57636 0.24614 0.0
H121 H 0.81658 0.61917 0.20931 0.0
H122 H 0.80748 0.58061 0.16457 0.0
O123 O 0.81076 0.61568 0.07192 0.0
O124 O 0.83526 0.60995 0.98696 0.0
C125 C 0.79556 0.52347 0.06248 0.0
O126 O 0.7675 0.5978 0.92939 0.0
O127 O 0.74286 0.60329 0.0145 0.0
Zn128 Zn 0.18716 0.78312 0.34776 0.0
O129 O 0.23854 0.7994 0.38552 0.0
C130 C 0.20846 0.86122 0.3347 0.0
Zn131 Zn 0.21908 0.81003 0.26329 0.0
C132 C 0.26891 0.81733 0.35938 0.0
O133 O 0.27025 0.82697 0.30333 0.0
C134 C 0.13755 0.7759 0.25249 0.0
O135 O 0.21459 0.76008 0.24346 0.0
O136 O 0.18169 0.73258 0.32467 0.0
N137 N 0.24094 0.82842 0.17741 0.0
C138 C 0.23243 0.81109 0.1224 0.0
C139 C 0.27095 0.86584 0.1045 0.0
N140 N 0.26492 0.86244 0.16617 0.0
N141 N 0.25111 0.83385 0.07632 0.0
C142 C 0.17796 0.77971 0.48991 0.0
C143 C 0.13135 0.72874 0.50532 0.0
N144 N 0.16535 0.76483 0.43375 0.0
N145 N 0.13629 0.73318 0.44343 0.0
N146 N 0.15728 0.75761 0.53516 0.0
H147 H 0.23053 0.81423 0.52786 0.0
H148 H 0.20083 0.83186 0.53147 0.0
H149 H 0.22169 0.83182 0.45926 0.0
C150 C 0.20954 0.81649 0.50179 0.0
C151 C 0.20406 0.77252 0.11242 0.0
H152 H 0.18361 0.76235 0.14928 0.0
H153 H 0.21709 0.75583 0.11127 0.0
H154 H 0.19022 0.76913 0.06741 0.0
O155 O 0.16763 0.79328 0.22517 0.0
O156 O 0.13663 0.76692 0.30877 0.0
C157 C 0.19729 0.73169 0.27521 0.0
O158 O 0.19181 0.83328 0.3678 0.0
O159 O 0.22378 0.85988 0.28528 0.0
Zn160 Zn 0.40326 0.20874 0.61726 0.0
O161 O 0.43973 0.19341 0.58437 0.0
C162 C 0.34631 0.12965 0.62204 0.0
Zn163 Zn 0.40269 0.17952 0.70263 0.0
C164 C 0.4514 0.17569 0.6135 0.0
O165 O 0.44095 0.16577 0.66878 0.0
C166 C 0.35376 0.21187 0.7037 0.0
O167 O 0.44494 0.22965 0.73119 0.0
O168 O 0.44718 0.25881 0.64658 0.0
N169 N 0.40277 0.15947 0.78869 0.0
C170 C 0.3997 0.17152 0.84484 0.0
C171 C 0.40606 0.12602 0.86002 0.0
N172 N 0.40677 0.1312 0.7982 0.0
N173 N 0.40124 0.15079 0.89001 0.0
C174 C 0.39579 0.2123 0.47571 0.0
C175 C 0.409 0.26645 0.45974 0.0
N176 N 0.40315 0.22884 0.53135 0.0
N177 N 0.41144 0.26253 0.52134 0.0
N178 N 0.3989 0.23514 0.43051 0.0
H179 H 0.39941 0.17255 0.41994 0.0
H180 H 0.35774 0.15689 0.45997 0.0
H181 H 0.39702 0.16399 0.50165 0.0
C182 C 0.38726 0.17436 0.46421 0.0
C183 C 0.39735 0.20479 0.85653 0.0
H184 H 0.41284 0.21887 0.89868 0.0
H185 H 0.3689 0.19703 0.86459 0.0
H186 H 0.40752 0.22374 0.81751 0.0
O187 O 0.36372 0.19279 0.73322 0.0
O188 O 0.36716 0.22411 0.65085 0.0
C189 C 0.45879 0.25871 0.70076 0.0
O190 O 0.35868 0.15855 0.59121 0.0
O191 O 0.36078 0.1297 0.67335 0.0
C192 C 0.31015 0.20373 0.78729 0.0
C193 C 0.32773 0.22052 0.73201 0.0
C194 C 0.28786 0.21396 0.81714 0.0
C195 C 0.28279 0.2413 0.79229 0.0
C196 C 0.29867 0.25659 0.73526 0.0
C197 C 0.32106 0.24641 0.70544 0.0
C198 C 0.26248 0.25564 0.82563 0.0
C199 C 0.26091 0.25633 0.88792 0.0
C200 C 0.24753 0.27759 0.92085 0.0
C201 C 0.26365 0.29415 0.9772 0.0
C202 C 0.25553 0.31863 0.00489 0.0
C203 C 0.23089 0.32669 0.97679 0.0
H204 H 0.20681 0.27005 0.85327 0.0
C205 C 0.21264 0.30789 0.92307 0.0
C206 C 0.22083 0.28353 0.89535 0.0
H207 H 0.19274 0.31276 0.90131 0.0
H208 H 0.31393 0.18293 0.808 0.0
H209 H 0.27492 0.2006 0.8598 0.0
H210 H 0.29483 0.27743 0.71481 0.0
H211 H 0.33391 0.25957 0.66255 0.0
H212 H 0.25251 0.27001 0.79826 0.0
H213 H 0.27411 0.24519 0.91558 0.0
H214 H 0.28395 0.2896 -0.00181 0.0
H215 H 0.26975 0.3324 0.04668 0.0
C216 C 0.08707 0.33321 0.08099 0.0
C217 C 0.11966 0.34775 0.11374 0.0
C218 C 0.05437 0.31398 0.11198 0.0
C219 C 0.05364 0.30883 0.17644 0.0
C220 C 0.08621 0.32302 0.20897 0.0
C221 C 0.11893 0.34207 0.17794 0.0
C222 C 0.01952 0.29154 0.21169 0.0
C223 C 0.98798 0.26675 0.18684 0.0
C224 C 0.95278 0.25259 0.21857 0.0
C225 C 0.92138 0.2356 0.18247 0.0
C226 C 0.88778 0.22412 0.20909 0.0
C227 C 0.88486 0.22938 0.27258 0.0
H228 H 0.9728 0.26814 0.31299 0.0
C229 C 0.91605 0.24518 0.30927 0.0
C230 C 0.94965 0.25645 0.28273 0.0
H231 H 0.91458 0.24905 0.35855 0.0
H232 H 0.08676 0.33731 0.03156 0.0
H233 H 0.02985 0.30448 0.08553 0.0
H234 H 0.08635 0.31973 0.25871 0.0
H235 H 0.14359 0.35308 0.20458 0.0
H236 H 0.02084 0.30058 0.25901 0.0
H237 H 0.9875 0.25763 0.1397 0.0
H238 H 0.92288 0.23197 0.13309 0.0
H239 H 0.8642 0.21185 0.17958 0.0
C240 C 0.78349 0.09934 0.46188 0.0
C241 C 0.76991 0.10127 0.40367 0.0
C242 C 0.77521 0.06615 0.48677 0.0
C243 C 0.75302 0.0343 0.45387 0.0
C244 C 0.74176 0.03652 0.39387 0.0
C245 C 0.74998 0.06965 0.36904 0.0
C246 C 0.73853 -0.00169 0.48196 0.0
C247 C 0.73213 0.99257 0.54312 0.0
C248 C 0.70784 0.95647 0.56902 0.0
C249 C 0.68881 0.95402 0.62335 0.0
C250 C 0.66182 0.92075 0.64451 0.0
C251 C 0.65344 0.88927 0.6117 0.0
H252 H 0.71622 0.92535 0.49809 0.0
C253 C 0.67397 0.89148 0.55951 0.0
C254 C 0.70112 0.92472 0.53862 0.0
H255 H 0.66865 0.86757 0.53404 0.0
H256 H 0.79976 0.12335 0.48894 0.0
H257 H 0.78559 0.06555 0.53217 0.0
H258 H 0.725 0.01242 0.36725 0.0
H259 H 0.73956 0.07027 0.32364 0.0
H260 H 0.72769 0.97568 0.45022 0.0
H261 H 0.74027 0.01528 0.57412 0.0
H262 H 0.69371 0.97803 0.64804 0.0
H263 H 0.64675 0.91987 0.68534 0.0
C264 C 0.64117 0.73144 0.7133 0.0
C265 C 0.63607 0.75843 0.73964 0.0
C266 C 0.65981 0.71777 0.7456 0.0
C267 C 0.67423 0.73123 0.8047 0.0
C268 C 0.66998 0.75895 0.83014 0.0
C269 C 0.6512 0.77253 0.79788 0.0
C270 C 0.69119 0.71513 0.84304 0.0
C271 C 0.70464 0.69535 0.81921 0.0
C272 C 0.71779 0.6757 0.85758 0.0
C273 C 0.74023 0.66467 0.82994 0.0
C274 C 0.75129 0.64403 0.8629 0.0
C275 C 0.7399 0.63374 0.92421 0.0
H276 H 0.6883 0.6725 0.94168 0.0
C277 C 0.71769 0.64498 0.95225 0.0
C278 C 0.70655 0.66561 0.91921 0.0
H279 H 0.70827 0.63724 -0.00071 0.0
H280 H 0.62953 0.71982 0.66871 0.0
H281 H 0.6614 0.69568 0.72491 0.0
H282 H 0.68068 0.76972 0.87561 0.0
H283 H 0.64805 0.79365 0.81904 0.0
H284 H 0.69255 0.7199 0.89262 0.0
H285 H 0.70651 0.69349 0.76934 0.0
H286 H 0.74903 0.67177 0.78243 0.0
H287 H 0.76857 0.63592 0.84007 0.0
C288 C 0.07116 0.75194 0.24874 0.0
C289 C 0.10419 0.76569 0.21791 0.0
C290 C 0.03955 0.74116 0.2152 0.0
C291 C 0.04049 0.74384 0.15018 0.0
C292 C 0.07351 0.75776 0.11955 0.0
C293 C 0.10512 0.76892 0.15305 0.0
C294 C 0.00721 0.72891 0.11283 0.0
C295 C 0.97712 0.72802 0.13293 0.0
C296 C 0.94159 0.70682 0.10215 0.0
C297 C 0.91065 0.6984 0.13655 0.0
C298 C 0.87664 0.67391 0.11371 0.0
C299 C 0.87293 0.65716 0.0561 0.0
H300 H 0.96035 0.69951 0.01228 0.0
C301 C 0.90357 0.66779 0.0194 0.0
C302 C 0.93756 0.69257 0.04192 0.0
H303 H 0.9015 0.65602 0.97408 0.0
H304 H 0.06965 0.74908 0.29865 0.0
H305 H 0.01436 0.72948 0.24014 0.0
H306 H 0.07481 0.75963 0.06947 0.0
H307 H 0.13017 0.7793 0.12788 0.0
H308 H 0.0077 0.71709 0.06874 0.0
H309 H 0.97783 0.74087 0.17675 0.0
H310 H 0.91281 0.70947 0.18253 0.0
H311 H 0.85344 0.66711 0.14232 0.0
C312 C 0.29808 0.097 0.5433 0.0
C313 C 0.31647 0.09615 0.59657 0.0
C314 C 0.27261 0.06517 0.51495 0.0
C315 C 0.26516 0.0319 0.53938 0.0
C316 C 0.28163 0.03107 0.59505 0.0
C317 C 0.30717 0.06291 0.62334 0.0
C318 C 0.2425 -0.0023 0.50614 0.0
C319 C 0.24061 -0.00444 0.44384 0.0
C320 C 0.22706 0.96097 0.41078 0.0
C321 C 0.20087 0.92836 0.43672 0.0
C322 C 0.1936 0.89585 0.41008 0.0
C323 C 0.21205 0.89534 0.35667 0.0
H324 H 0.2632 0.98529 0.3333 0.0
C325 C 0.2359 0.9279 0.32777 0.0
C326 C 0.24325 0.96046 0.3546 0.0
H327 H 0.2502 0.92833 0.28618 0.0
H328 H 0.30386 0.12226 0.52269 0.0
H329 H 0.25935 0.06677 0.47342 0.0
H330 H 0.276 0.00572 0.61517 0.0
H331 H 0.32056 0.0614 0.66482 0.0
H332 H 0.23178 0.97329 0.53336 0.0
H333 H 0.2544 0.01986 0.41638 0.0
H334 H 0.1868 0.9278 0.47865 0.0
H335 H 0.17446 0.87115 0.43272 0.0
C336 C 0.18795 0.43288 0.69791 0.0
C337 C 0.17636 0.40347 0.73769 0.0
C338 C 0.19592 0.4301 0.63603 0.0
C339 C 0.19212 0.39766 0.61316 0.0
C340 C 0.17857 0.36775 0.65241 0.0
C341 C 0.17107 0.37073 0.71432 0.0
C342 C 0.20172 0.394 0.54866 0.0
C343 C 0.22847 0.42134 0.51731 0.0
C344 C 0.23835 0.41806 0.4526 0.0
C345 C 0.21374 0.39163 0.41168 0.0
C346 C 0.22306 0.39098 0.35002 0.0
C347 C 0.25682 0.41686 0.32781 0.0
H348 H 0.29199 0.46408 0.46076 0.0
C349 C 0.28183 0.44263 0.36845 0.0
C350 C 0.27259 0.44334 0.43039 0.0
H351 H 0.3079 0.4629 0.35163 0.0
H352 H 0.19219 0.45833 0.71544 0.0
H353 H 0.2052 0.45334 0.60644 0.0
H354 H 0.1749 0.34235 0.63568 0.0
H355 H 0.16195 0.34775 0.74456 0.0
H356 H 0.18777 0.36734 0.52829 0.0
H357 H 0.24462 0.44699 0.54049 0.0
H358 H 0.18679 0.37225 0.42605 0.0
H359 H 0.20344 0.37111 0.31874 0.0
C360 C 0.74505 0.19101 0.01838 0.0
C361 C 0.74365 0.16102 0.04674 0.0
C362 C 0.75406 0.19817 0.9559 0.0
C363 C 0.76181 0.17532 0.92055 0.0
C364 C 0.75809 0.14407 0.94811 0.0
C365 C 0.74915 0.137 0.01078 0.0
C366 C 0.77361 0.18312 0.85499 0.0
C367 C 0.79136 0.21667 0.83167 0.0
C368 C 0.80304 0.22451 0.76607 0.0
C369 C 0.80679 0.25583 0.73875 0.0
C370 C 0.81557 0.26295 0.67604 0.0
C371 C 0.82087 0.23891 0.63977 0.0
H372 H 0.80973 0.17817 0.75041 0.0
C373 C 0.81947 0.20885 0.66787 0.0
C374 C 0.81061 0.20164 0.7304 0.0
H375 H 0.82473 0.19066 0.64109 0.0
H376 H 0.73964 0.20917 0.04493 0.0
H377 H 0.75489 0.22157 0.93567 0.0
H378 H 0.76327 0.12568 0.92165 0.0
H379 H 0.74797 0.1136 0.03183 0.0
H380 H 0.76815 0.16038 0.82573 0.0
H381 H 0.79684 0.23941 0.86097 0.0
H382 H 0.80175 0.27424 0.76545 0.0
H383 H 0.81677 0.28641 0.65521 0.0
C384 C 0.54314 0.75837 0.33784 0.0
C385 C 0.57062 0.75383 0.36337 0.0
C386 C 0.54368 0.76655 0.27528 0.0
C387 C 0.57191 0.77041 0.23703 0.0
C388 C 0.59824 0.76371 0.262 0.0
C389 C 0.59764 0.75552 0.32483 0.0
C390 C 0.57443 0.78095 0.17103 0.0
C391 C 0.56053 0.80078 0.1489 0.0
C392 C 0.56259 0.81087 0.08272 0.0
C393 C 0.53592 0.81714 0.05801 0.0
C394 C 0.53577 0.82442 0.99493 0.0
C395 C 0.56236 0.82561 0.95582 0.0
H396 H 0.61248 0.81154 0.06172 0.0
C397 C 0.59029 0.82168 0.9811 0.0
C398 C 0.59048 0.81439 0.04394 0.0
H399 H 0.61175 0.82382 0.95188 0.0
H400 H 0.5214 0.75592 0.36666 0.0
H401 H 0.52192 0.76972 0.25726 0.0
H402 H 0.61992 0.76587 0.23326 0.0
H403 H 0.61891 0.75184 0.34388 0.0
H404 H 0.58884 0.77252 0.14026 0.0
H405 H 0.54614 0.80922 0.17968 0.0
H406 H 0.5145 0.81524 0.08715 0.0
H407 H 0.5142 0.8277 0.97616 0.0
C408 C 0.81557 0.56934 0.66517 0.0
C409 C 0.80214 0.57799 0.71754 0.0
C410 C 0.80522 0.5739 0.60593 0.0
C411 C 0.78127 0.58707 0.59881 0.0
C412 C 0.76922 0.59714 0.65118 0.0
C413 C 0.78023 0.59339 0.70994 0.0
C414 C 0.76645 0.58815 0.53777 0.0
C415 C 0.78672 0.5988 0.48661 0.0
C416 C 0.7714 0.59786 0.42495 0.0
C417 C 0.79228 0.62436 0.3817 0.0
C418 C 0.78019 0.62177 0.32098 0.0
C419 C 0.74767 0.59195 0.30205 0.0
H420 H 0.72099 0.54833 0.43952 0.0
C421 C 0.72574 0.5665 0.346 0.0
C422 C 0.73749 0.56941 0.4072 0.0
H423 H 0.70062 0.5433 0.33209 0.0
H424 H 0.83285 0.55786 0.6703 0.0
H425 H 0.81464 0.56566 0.56603 0.0
H426 H 0.75102 0.60761 0.64664 0.0
H427 H 0.77056 0.60134 0.74983 0.0
H428 H 0.7384 0.58118 0.5354 0.0
H429 H 0.81553 0.60926 0.49013 0.0
H430 H 0.81831 0.64666 0.39459 0.0
H431 H 0.79691 0.64229 0.28805 0.0
C432 C 0.19618 0.76585 0.62402 0.0
C433 C 0.16408 0.76214 0.60048 0.0
C434 C 0.20578 0.77545 0.68577 0.0
C435 C 0.18304 0.781 0.72566 0.0
C436 C 0.15024 0.776 0.70225 0.0
C437 C 0.14075 0.76648 0.64014 0.0
C438 C 0.19355 0.79401 0.79047 0.0
C439 C 0.21914 0.79135 0.82235 0.0
C440 C 0.22964 0.80471 0.88677 0.0
C441 C 0.24287 0.78773 0.9255 0.0
C442 C 0.25141 0.79836 0.98723 0.0
C443 C 0.24737 0.8265 0.01107 0.0
H444 H 0.21834 0.84861 0.88091 0.0
C445 C 0.23613 0.84491 0.97176 0.0
C446 C 0.22722 0.83407 0.91003 0.0
H447 H 0.23291 0.8667 0.98955 0.0
H448 H 0.2144 0.76246 0.5938 0.0
H449 H 0.23164 0.77977 0.7009 0.0
H450 H 0.13224 0.78019 0.73174 0.0
H451 H 0.11598 0.76393 0.62239 0.0
H452 H 0.17891 0.80539 0.81315 0.0
H453 H 0.23153 0.77699 0.80243 0.0
H454 H 0.24557 0.76546 0.9085 0.0
H455 H 0.26033 0.78408 0.01697 0.0
C456 C 0.42192 0.24484 0.32399 0.0
C457 C 0.39327 0.22761 0.36554 0.0
C458 C 0.41791 0.23319 0.26242 0.0
C459 C 0.38504 0.20418 0.24174 0.0
C460 C 0.35588 0.1885 0.28277 0.0
C461 C 0.36005 0.19991 0.34428 0.0
C462 C 0.38009 0.18968 0.17785 0.0
C463 C 0.40696 0.19021 0.14474 0.0
C464 C 0.40258 0.17586 0.08055 0.0
C465 C 0.42956 0.17006 0.05572 0.0
C466 C 0.42812 0.15971 0.99381 0.0
C467 C 0.39983 0.15533 0.9556 0.0
H468 H 0.3523 0.1745 0.05873 0.0
C469 C 0.37199 0.15937 0.98088 0.0
C470 C 0.37342 0.16984 0.04247 0.0
H471 H 0.34973 0.15568 0.9521 0.0
H472 H 0.44772 0.26623 0.33992 0.0
H473 H 0.44059 0.24671 0.23143 0.0
H474 H 0.33015 0.16651 0.26778 0.0
H475 H 0.33767 0.18648 0.37595 0.0
H476 H 0.35289 0.17612 0.15974 0.0
H477 H 0.43331 0.20092 0.16596 0.0
H478 H 0.45233 0.17447 0.08384 0.0
H479 H 0.44991 0.15685 0.9749 0.0
C480 C 0.18711 0.51302 0.07235 0.0
C481 C 0.21508 0.50648 0.08794 0.0
C482 C 0.18662 0.543 0.09672 0.0
C483 C 0.21447 0.56709 0.13601 0.0
C484 C 0.24274 0.56089 0.15015 0.0
C485 C 0.24283 0.53068 0.12708 0.0
C486 C 0.21596 0.59988 0.16071 0.0
C487 C 0.1867 0.60138 0.1783 0.0
C488 C 0.18965 0.63479 0.20377 0.0
C489 C 0.16586 0.63298 0.2501 0.0
C490 C 0.16871 0.66446 0.27488 0.0
C491 C 0.195 0.69817 0.25269 0.0
H492 H 0.23398 0.67092 0.14478 0.0
C493 C 0.2185 0.69981 0.2059 0.0
C494 C 0.21584 0.66855 0.18164 0.0
H495 H 0.239 0.72535 0.18763 0.0
H496 H 0.16542 0.49471 0.04228 0.0
H497 H 0.16488 0.54764 0.08397 0.0
H498 H 0.26466 0.5793 0.17979 0.0
H499 H 0.26487 0.52642 0.13953 0.0
H500 H 0.24249 0.62301 0.16834 0.0
H501 H 0.1604 0.57727 0.17708 0.0
H502 H 0.14529 0.60722 0.26752 0.0
H503 H 0.15001 0.66239 0.31048 0.0
C504 C 0.64774 0.15436 0.38841 0.0
C505 C 0.68076 0.17144 0.42006 0.0
C506 C 0.61597 0.14715 0.41878 0.0
C507 C 0.61676 0.15698 0.48141 0.0
C508 C 0.64959 0.17276 0.5133 0.0
C509 C 0.68117 0.18007 0.48307 0.0
C510 C 0.58457 0.15253 0.51508 0.0
C511 C 0.55613 0.15141 0.48662 0.0
C512 C 0.52762 0.15459 0.52031 0.0
C513 C 0.50901 0.16861 0.48822 0.0
C514 C 0.48409 0.17495 0.51858 0.0
C515 C 0.47679 0.16709 0.58192 0.0
H516 H 0.53229 0.1334 0.60916 0.0
C517 C 0.4942 0.15161 0.61373 0.0
C518 C 0.51939 0.14536 0.58323 0.0
H519 H 0.48879 0.14481 0.66231 0.0
H520 H 0.6465 0.14697 0.3401 0.0
H521 H 0.59103 0.13391 0.39302 0.0
H522 H 0.65104 0.18035 0.56157 0.0
H523 H 0.70604 0.19284 0.50926 0.0
H524 H 0.58644 0.15448 0.56523 0.0
H525 H 0.55567 0.15246 0.43642 0.0
H526 H 0.51449 0.17567 0.43971 0.0
H527 H 0.47082 0.18646 0.49228 0.0
C528 C 0.31806 0.49243 0.88526 0.0
C529 C 0.31973 0.48718 0.94915 0.0
C530 C 0.3469 0.52057 0.85476 0.0
C531 C 0.37841 0.54411 0.88737 0.0
C532 C 0.38073 0.53778 0.95067 0.0
C533 C 0.35173 0.50947 0.9813 0.0
C534 C 0.4074 0.57753 0.85884 0.0
C535 C 0.411 0.58371 0.79729 0.0
C536 C 0.43611 0.6194 0.77054 0.0
C537 C 0.44884 0.62162 0.70986 0.0
C538 C 0.47205 0.65501 0.68327 0.0
C539 C 0.48255 0.68681 0.71674 0.0
H540 H 0.43542 0.65083 0.84906 0.0
C541 C 0.46883 0.68455 0.77671 0.0
C542 C 0.44584 0.6513 0.80324 0.0
H543 H 0.47616 0.70851 0.80372 0.0
H544 H 0.29382 0.47561 0.85898 0.0
H545 H 0.34335 0.5246 0.80647 0.0
H546 H 0.4046 0.55557 0.97704 0.0
H547 H 0.35378 0.50613 0.03057 0.0
H548 H 0.42588 0.59834 0.89034 0.0
H549 H 0.39523 0.56216 0.76489 0.0
H550 H 0.4412 0.59745 0.68326 0.0
H551 H 0.48214 0.65585 0.63697 0.0
C552 C 0.81804 0.33148 0.29841 0.0
C553 C 0.79416 0.29728 0.27434 0.0
C554 C 0.82373 0.36239 0.26696 0.0
C555 C 0.80549 0.35943 0.211 0.0
C556 C 0.78144 0.32524 0.1877 0.0
C557 C 0.77562 0.2946 0.2191 0.0
C558 C 0.8106 0.3909 0.17478 0.0
C559 C 0.82072 0.42325 0.19975 0.0
C560 C 0.81865 0.45162 0.16411 0.0
C561 C 0.80814 0.47356 0.19501 0.0
C562 C 0.80146 0.49743 0.16193 0.0
C563 C 0.80573 0.50031 0.09721 0.0
H564 H 0.83397 0.43997 0.07482 0.0
C565 C 0.81842 0.47996 0.06661 0.0
C566 C 0.82479 0.45576 0.09976 0.0
H567 H 0.82238 0.48194 0.01692 0.0
H568 H 0.83294 0.33437 0.34059 0.0
H569 H 0.84298 0.38835 0.28577 0.0
H570 H 0.76691 0.32214 0.14495 0.0
H571 H 0.75673 0.26871 0.19948 0.0
H572 H 0.80205 0.38603 0.12662 0.0
H573 H 0.826 0.42749 0.24913 0.0
H574 H 0.80357 0.47113 0.24457 0.0
H575 H 0.79222 0.51312 0.18709 0.0
C576 C 0.33598 0.84361 0.36725 0.0
C577 C 0.30181 0.82597 0.39482 0.0
C578 C 0.36641 0.84971 0.40106 0.0
C579 C 0.36311 0.83834 0.46309 0.0
C580 C 0.32921 0.82212 0.4911 0.0
C581 C 0.29891 0.81566 0.4573 0.0
C582 C 0.39378 0.84111 0.49934 0.0
C583 C 0.42034 0.8378 0.47297 0.0
C584 C 0.44621 0.83174 0.50922 0.0
C585 C 0.45958 0.81118 0.48202 0.0
C586 C 0.48234 0.80289 0.515 0.0
C587 C 0.49306 0.81563 0.57577 0.0
H588 H 0.44774 0.8614 0.59198 0.0
C589 C 0.48023 0.83681 0.60297 0.0
C590 C 0.45696 0.84481 0.57 0.0
H591 H 0.4882 0.84724 0.64954 0.0
H592 H 0.33915 0.85216 0.3194 0.0
H593 H 0.39235 0.86313 0.37848 0.0
H594 H 0.3259 0.81316 0.53876 0.0
H595 H 0.27307 0.80185 0.48007 0.0
H596 H 0.39165 0.84075 0.5495 0.0
H597 H 0.42039 0.8347 0.42301 0.0
H598 H 0.45167 0.80067 0.43544 0.0
H599 H 0.4912 0.78607 0.49281 0.0
C600 C 0.67542 0.45398 0.9133 0.0
C601 C 0.67418 0.47609 0.96014 0.0
C602 C 0.64393 0.4271 0.8864 0.0
C603 C 0.61034 0.4214 0.90612 0.0
C604 C 0.60885 0.44201 0.95542 0.0
C605 C 0.64056 0.46938 0.982 0.0
C606 C 0.57674 0.39302 0.8773 0.0
C607 C 0.57481 0.38457 0.81668 0.0
C608 C 0.54325 0.35329 0.78821 0.0
C609 C 0.53696 0.35321 0.72428 0.0
C610 C 0.50904 0.32282 0.69549 0.0
C611 C 0.48747 0.29174 0.7301 0.0
H612 H 0.52588 0.32095 0.87176 0.0
C613 C 0.49374 0.29199 0.7941 0.0
C614 C 0.52123 0.32235 0.82284 0.0
H615 H 0.47763 0.26849 0.82223 0.0
H616 H 0.70083 0.45757 0.89692 0.0
H617 H 0.64599 0.4106 0.85046 0.0
H618 H 0.58317 0.43755 0.97224 0.0
H619 H 0.63877 0.48583 0.01833 0.0
H620 H 0.55315 0.3792 0.90653 0.0
H621 H 0.59739 0.40104 0.78657 0.0
H622 H 0.55386 0.37661 0.69648 0.0
H623 H 0.50488 0.32338 0.64611 0.0
loop_
_geom_bond_atom_site_label_1
_geom_bond_atom_site_label_2
_geom_bond_distance
_geom_bond_site_symmetry_2
_ccdc_geom_bond_type
Zn0 O1 2.055 . S
Zn0 O8 2.046 . S
Zn0 N16 2.036 . S
Zn0 O28 2.053 . S
Zn0 O30 2.066 . S
O1 Zn0 2.055 . S
O1 C4 1.259 . S
C2 O30 1.256 . S
C2 O31 1.244 1_554 S
Zn3 O5 2.046 . S
Zn3 O7 2.055 . S
Zn3 N9 2.036 . S
Zn3 O27 2.066 . S
Zn3 O31 2.053 . S
C4 O1 1.259 . S
C4 O5 1.254 1_554 S
O5 Zn3 2.046 . S
O5 C4 1.254 1_556 S
C6 O27 1.256 . S
C6 O28 1.244 1_556 S
O7 Zn3 2.055 . S
O7 C29 1.259 . S
O8 Zn0 2.046 . S
O8 C29 1.254 1_554 S
N9 Zn3 2.036 . S
N9 C10 1.298 . S
N9 N12 1.398 . S
C10 N9 1.298 . S
C10 N13 1.367 . S
C10 C23 1.481 . S
C11 N12 1.299 . S
C11 N13 1.379 . S
N12 N9 1.398 . S
N12 C11 1.299 . S
N13 C10 1.367 . S
N13 C11 1.379 . S
C14 N16 1.298 . S
C14 N18 1.367 . S
C14 C22 1.481 . S
C15 N17 1.299 . S
C15 N18 1.379 . S
N16 Zn0 2.036 . S
N16 C14 1.298 . S
N16 N17 1.398 . S
N17 C15 1.299 . S
N17 N16 1.398 . S
N18 C14 1.367 . S
N18 C15 1.379 . S
H19 C22 0.980 . S
H20 C22 0.981 . S
H21 C22 0.981 . S
C22 C14 1.481 . S
C22 H19 0.980 . S
C22 H20 0.981 . S
C22 H21 0.981 . S
C23 C10 1.481 . S
C23 H24 0.980 . S
C23 H25 0.981 . S
C23 H26 0.981 . S
H24 C23 0.980 . S
H25 C23 0.981 . S
H26 C23 0.981 . S
O27 Zn3 2.066 . S
O27 C6 1.256 . S
O28 Zn0 2.053 . S
O28 C6 1.244 1_554 S
C29 O7 1.259 . S
C29 O8 1.254 1_556 S
O30 Zn0 2.066 . S
O30 C2 1.256 . S
O31 C2 1.244 1_556 S
O31 Zn3 2.053 . S
Zn32 O33 2.055 . S
Zn32 O40 2.046 . S
Zn32 N48 2.036 . S
Zn32 O60 2.053 . S
Zn32 O62 2.066 . S
O33 Zn32 2.055 . S
O33 C36 1.259 . S
C34 O62 1.256 . S
C34 O63 1.244 . S
Zn35 O37 2.046 . S
Zn35 O39 2.055 . S
Zn35 N41 2.036 . S
Zn35 O59 2.066 . S
Zn35 O63 2.053 . S
C36 O33 1.259 . S
C36 O37 1.254 . S
O37 Zn35 2.046 . S
O37 C36 1.254 . S
C38 O59 1.256 . S
C38 O60 1.244 . S
O39 Zn35 2.055 . S
O39 C61 1.259 . S
O40 Zn32 2.046 . S
O40 C61 1.254 . S
N41 Zn35 2.036 . S
N41 C42 1.298 . S
N41 N44 1.398 . S
C42 N41 1.298 . S
C42 N45 1.367 . S
C42 C55 1.481 . S
C43 N44 1.299 . S
C43 N45 1.379 . S
N44 N41 1.398 . S
N44 C43 1.299 . S
N45 C42 1.367 . S
N45 C43 1.379 . S
C46 N48 1.298 . S
C46 N50 1.367 . S
C46 C54 1.481 . S
C47 N49 1.299 . S
C47 N50 1.379 . S
N48 Zn32 2.036 . S
N48 C46 1.298 . S
N48 N49 1.398 . S
N49 C47 1.299 . S
N49 N48 1.398 . S
N50 C46 1.367 . S
N50 C47 1.379 . S
H51 C54 0.980 . S
H52 C54 0.981 . S
H53 C54 0.981 . S
C54 C46 1.481 . S
C54 H51 0.980 . S
C54 H52 0.981 . S
C54 H53 0.981 . S
C55 C42 1.481 . S
C55 H56 0.980 . S
C55 H57 0.981 . S
C55 H58 0.981 . S
H56 C55 0.980 . S
H57 C55 0.981 . S
H58 C55 0.981 . S
O59 Zn35 2.066 . S
O59 C38 1.256 . S
O60 Zn32 2.053 . S
O60 C38 1.244 . S
C61 O39 1.259 . S
C61 O40 1.254 . S
O62 Zn32 2.066 . S
O62 C34 1.256 . S
O63 C34 1.244 . S
O63 Zn35 2.053 . S
Zn64 O65 2.055 . S
Zn64 O72 2.046 . S
Zn64 N80 2.036 . S
Zn64 O92 2.053 . S
Zn64 O94 2.066 . S
O65 Zn64 2.055 . S
O65 C68 1.259 . S
C66 O94 1.256 . S
C66 O95 1.244 . S
Zn67 O69 2.046 . S
Zn67 O71 2.055 . S
Zn67 N73 2.036 . S
Zn67 O91 2.066 . S
Zn67 O95 2.053 . S
C68 O65 1.259 . S
C68 O69 1.254 . S
O69 Zn67 2.046 . S
O69 C68 1.254 . S
C70 O91 1.256 . S
C70 O92 1.244 . S
O71 Zn67 2.055 . S
O71 C93 1.259 . S
O72 Zn64 2.046 . S
O72 C93 1.254 . S
N73 Zn67 2.036 . S
N73 C74 1.298 . S
N73 N76 1.398 . S
C74 N73 1.298 . S
C74 N77 1.367 . S
C74 C87 1.481 . S
C75 N76 1.299 . S
C75 N77 1.379 . S
N76 N73 1.398 . S
N76 C75 1.299 . S
N77 C74 1.367 . S
N77 C75 1.379 . S
C78 N80 1.298 . S
C78 N82 1.367 . S
C78 C86 1.481 . S
C79 N81 1.299 . S
C79 N82 1.379 . S
N80 Zn64 2.036 . S
N80 C78 1.298 . S
N80 N81 1.398 . S
N81 C79 1.299 . S
N81 N80 1.398 . S
N82 C78 1.367 . S
N82 C79 1.379 . S
H83 C86 0.980 . S
H84 C86 0.981 . S
H85 C86 0.981 . S
C86 C78 1.481 . S
C86 H83 0.980 . S
C86 H84 0.981 . S
C86 H85 0.981 . S
C87 C74 1.481 . S
C87 H88 0.980 . S
C87 H89 0.981 . S
C87 H90 0.981 . S
H88 C87 0.980 . S
H89 C87 0.981 . S
H90 C87 0.981 . S
O91 Zn67 2.066 . S
O91 C70 1.256 . S
O92 Zn64 2.053 . S
O92 C70 1.244 . S
C93 O71 1.259 . S
C93 O72 1.254 . S
O94 Zn64 2.066 . S
O94 C66 1.256 . S
O95 C66 1.244 . S
O95 Zn67 2.053 . S
Zn96 O97 2.055 . S
Zn96 O104 2.046 . S
Zn96 N112 2.036 . S
Zn96 O124 2.053 . S
Zn96 O126 2.066 . S
O97 Zn96 2.055 . S
O97 C100 1.259 . S
C98 O126 1.256 . S
C98 O127 1.244 1_556 S
Zn99 O101 2.046 . S
Zn99 O103 2.055 . S
Zn99 N105 2.036 . S
Zn99 O123 2.066 . S
Zn99 O127 2.053 . S
C100 O97 1.259 . S
C100 O101 1.254 1_556 S
O101 Zn99 2.046 . S
O101 C100 1.254 1_554 S
C102 O123 1.256 . S
C102 O124 1.244 1_554 S
O103 Zn99 2.055 . S
O103 C125 1.259 . S
O104 Zn96 2.046 . S
O104 C125 1.254 1_556 S
N105 Zn99 2.036 . S
N105 C106 1.298 . S
N105 N108 1.398 . S
C106 N105 1.298 . S
C106 N109 1.367 . S
C106 C119 1.481 . S
C107 N108 1.299 . S
C107 N109 1.379 . S
N108 N105 1.398 . S
N108 C107 1.299 . S
N109 C106 1.367 . S
N109 C107 1.379 . S
C110 N112 1.298 . S
C110 N114 1.367 . S
C110 C118 1.481 . S
C111 N113 1.299 . S
C111 N114 1.379 . S
N112 Zn96 2.036 . S
N112 C110 1.298 . S
N112 N113 1.398 . S
N113 C111 1.299 . S
N113 N112 1.398 . S
N114 C110 1.367 . S
N114 C111 1.379 . S
H115 C118 0.980 . S
H116 C118 0.981 . S
H117 C118 0.981 . S
C118 C110 1.481 . S
C118 H115 0.980 . S
C118 H116 0.981 . S
C118 H117 0.981 . S
C119 C106 1.481 . S
C119 H120 0.980 . S
C119 H121 0.981 . S
C119 H122 0.981 . S
H120 C119 0.980 . S
H121 C119 0.981 . S
H122 C119 0.981 . S
O123 Zn99 2.066 . S
O123 C102 1.256 . S
O124 Zn96 2.053 . S
O124 C102 1.244 1_556 S
C125 O103 1.259 . S
C125 O104 1.254 1_554 S
O126 Zn96 2.066 . S
O126 C98 1.256 . S
O127 C98 1.244 1_554 S
O127 Zn99 2.053 . S
Zn128 O129 2.055 . S
Zn128 O136 2.046 . S
Zn128 N144 2.036 . S
Zn128 O156 2.053 . S
Zn128 O158 2.066 . S
O129 Zn128 2.055 . S
O129 C132 1.259 . S
C130 O158 1.256 . S
C130 O159 1.244 . S
Zn131 O133 2.046 . S
Zn131 O135 2.055 . S
Zn131 N137 2.036 . S
Zn131 O155 2.066 . S
Zn131 O159 2.053 . S
C132 O129 1.259 . S
C132 O133 1.254 . S
O133 Zn131 2.046 . S
O133 C132 1.254 . S
C134 O155 1.256 . S
C134 O156 1.244 . S
O135 Zn131 2.055 . S
O135 C157 1.259 . S
O136 Zn128 2.046 . S
O136 C157 1.254 . S
N137 Zn131 2.036 . S
N137 C138 1.298 . S
N137 N140 1.398 . S
C138 N137 1.298 . S
C138 N141 1.367 . S
C138 C151 1.481 . S
C139 N140 1.299 . S
C139 N141 1.379 . S
N140 N137 1.398 . S
N140 C139 1.299 . S
N141 C138 1.367 . S
N141 C139 1.379 . S
C142 N144 1.298 . S
C142 N146 1.367 . S
C142 C150 1.481 . S
C143 N145 1.299 . S
C143 N146 1.379 . S
N144 Zn128 2.036 . S
N144 C142 1.298 . S
N144 N145 1.398 . S
N145 C143 1.299 . S
N145 N144 1.398 . S
N146 C142 1.367 . S
N146 C143 1.379 . S
H147 C150 0.980 . S
H148 C150 0.981 . S
H149 C150 0.981 . S
C150 C142 1.481 . S
C150 H147 0.980 . S
C150 H148 0.981 . S
C150 H149 0.981 . S
C151 C138 1.481 . S
C151 H152 0.980 . S
C151 H153 0.981 . S
C151 H154 0.981 . S
H152 C151 0.980 . S
H153 C151 0.981 . S
H154 C151 0.981 . S
O155 Zn131 2.066 . S
O155 C134 1.256 . S
O156 Zn128 2.053 . S
O156 C134 1.244 . S
C157 O135 1.259 . S
C157 O136 1.254 . S
O158 Zn128 2.066 . S
O158 C130 1.256 . S
O159 C130 1.244 . S
O159 Zn131 2.053 . S
Zn160 O161 2.055 . S
Zn160 O168 2.046 . S
Zn160 N176 2.036 . S
Zn160 O188 2.053 . S
Zn160 O190 2.066 . S
O161 Zn160 2.055 . S
O161 C164 1.259 . S
C162 O190 1.256 . S
C162 O191 1.244 . S
Zn163 O165 2.046 . S
Zn163 O167 2.055 . S
Zn163 N169 2.036 . S
Zn163 O187 2.066 . S
Zn163 O191 2.053 . S
C164 O161 1.259 . S
C164 O165 1.254 . S
O165 Zn163 2.046 . S
O165 C164 1.254 . S
C166 O187 1.256 . S
C166 O188 1.244 . S
O167 Zn163 2.055 . S
O167 C189 1.259 . S
O168 Zn160 2.046 . S
O168 C189 1.254 . S
N169 Zn163 2.036 . S
N169 C170 1.298 . S
N169 N172 1.398 . S
C170 N169 1.298 . S
C170 N173 1.367 . S
C170 C183 1.481 . S
C171 N172 1.299 . S
C171 N173 1.379 . S
N172 N169 1.398 . S
N172 C171 1.299 . S
N173 C170 1.367 . S
N173 C171 1.379 . S
C174 N176 1.298 . S
C174 N178 1.367 . S
C174 C182 1.481 . S
C175 N177 1.299 . S
C175 N178 1.379 . S
N176 Zn160 2.036 . S
N176 C174 1.298 . S
N176 N177 1.398 . S
N177 C175 1.299 . S
N177 N176 1.398 . S
N178 C174 1.367 . S
N178 C175 1.379 . S
H179 C182 0.980 . S
H180 C182 0.981 . S
H181 C182 0.981 . S
C182 C174 1.481 . S
C182 H179 0.980 . S
C182 H180 0.981 . S
C182 H181 0.981 . S
C183 C170 1.481 . S
C183 H184 0.980 . S
C183 H185 0.981 . S
C183 H186 0.981 . S
H184 C183 0.980 . S
H185 C183 0.981 . S
H186 C183 0.981 . S
O187 Zn163 2.066 . S
O187 C166 1.256 . S
O188 Zn160 2.053 . S
O188 C166 1.244 . S
C189 O167 1.259 . S
C189 O168 1.254 . S
O190 Zn160 2.066 . S
O190 C162 1.256 . S
O191 C162 1.244 . S
O191 Zn163 2.053 . S
C192 C193 1.386 . S
C192 C194 1.383 . S
C192 H208 0.951 . S
C193 C192 1.386 . S
C193 C197 1.383 . S
C194 C192 1.383 . S
C194 C195 1.402 . S
C194 H209 0.951 . S
C195 C194 1.402 . S
C195 C196 1.375 . S
C195 C198 1.481 . S
C196 C195 1.375 . S
C196 C197 1.367 . S
C196 H210 0.951 . S
C197 C193 1.383 . S
C197 C196 1.367 . S
C197 H211 0.950 . S
C198 C195 1.481 . S
C198 C199 1.297 . S
C198 H212 0.950 . S
C199 C198 1.297 . S
C199 C200 1.479 . S
C199 H213 0.950 . S
C200 C199 1.479 . S
C200 C201 1.375 . S
C200 C206 1.404 . S
C201 C200 1.375 . S
C201 C202 1.369 . S
C201 H214 0.950 . S
C202 C201 1.369 . S
C202 C203 1.392 . S
C202 H215 0.951 . S
C203 C202 1.392 . S
C203 C205 1.384 . S
H204 C206 0.949 . S
C205 C203 1.384 . S
C205 C206 1.385 . S
C205 H207 0.950 . S
C206 C200 1.404 . S
C206 H204 0.949 . S
C206 C205 1.385 . S
H207 C205 0.950 . S
H208 C192 0.951 . S
H209 C194 0.951 . S
H210 C196 0.951 . S
H211 C197 0.950 . S
H212 C198 0.950 . S
H213 C199 0.950 . S
H214 C201 0.950 . S
H215 C202 0.951 . S
C216 C217 1.386 . S
C216 C218 1.383 . S
C216 H232 0.951 . S
C217 C216 1.386 . S
C217 C221 1.383 . S
C218 C216 1.383 . S
C218 C219 1.402 . S
C218 H233 0.951 . S
C219 C218 1.402 . S
C219 C220 1.375 . S
C219 C222 1.481 . S
C220 C219 1.375 . S
C220 C221 1.367 . S
C220 H234 0.951 . S
C221 C217 1.383 . S
C221 C220 1.367 . S
C221 H235 0.950 . S
C222 C219 1.481 . S
C222 C223 1.297 1_455 S
C222 H236 0.950 . S
C223 C222 1.297 1_655 S
C223 C224 1.479 . S
C223 H237 0.950 1_655 S
C224 C223 1.479 . S
C224 C225 1.375 . S
C224 C230 1.404 . S
C225 C224 1.375 . S
C225 C226 1.369 . S
C225 H238 0.950 . S
C226 C225 1.369 . S
C226 C227 1.392 . S
C226 H239 0.951 . S
C227 C226 1.392 . S
C227 C229 1.384 . S
H228 C230 0.949 . S
C229 C227 1.384 . S
C229 C230 1.385 . S
C229 H231 0.950 . S
C230 C224 1.404 . S
C230 H228 0.949 . S
C230 C229 1.385 . S
H231 C229 0.950 . S
H232 C216 0.951 . S
H233 C218 0.951 . S
H234 C220 0.951 . S
H235 C221 0.950 . S
H236 C222 0.950 . S
H237 C223 0.950 1_455 S
H238 C225 0.950 . S
H239 C226 0.951 . S
C240 C241 1.386 . S
C240 C242 1.383 . S
C240 H256 0.951 . S
C241 C240 1.386 . S
C241 C245 1.383 . S
C242 C240 1.383 . S
C242 C243 1.402 . S
C242 H257 0.951 . S
C243 C242 1.402 . S
C243 C244 1.375 . S
C243 C246 1.481 . S
C244 C243 1.375 . S
C244 C245 1.367 . S
C244 H258 0.951 . S
C245 C241 1.383 . S
C245 C244 1.367 . S
C245 H259 0.950 . S
C246 C243 1.481 . S
C246 C247 1.297 1_545 S
C246 H260 0.950 1_545 S
C247 C246 1.297 1_565 S
C247 C248 1.479 . S
C247 H261 0.950 1_565 S
C248 C247 1.479 . S
C248 C249 1.375 . S
C248 C254 1.404 . S
C249 C248 1.375 . S
C249 C250 1.369 . S
C249 H262 0.950 . S
C250 C249 1.369 . S
C250 C251 1.392 . S
C250 H263 0.951 . S
C251 C250 1.392 . S
C251 C253 1.384 . S
H252 C254 0.949 . S
C253 C251 1.384 . S
C253 C254 1.385 . S
C253 H255 0.950 . S
C254 C248 1.404 . S
C254 H252 0.949 . S
C254 C253 1.385 . S
H255 C253 0.950 . S
H256 C240 0.951 . S
H257 C242 0.951 . S
H258 C244 0.951 . S
H259 C245 0.950 . S
H260 C246 0.950 1_565 S
H261 C247 0.950 1_545 S
H262 C249 0.950 . S
H263 C250 0.951 . S
C264 C265 1.386 . S
C264 C266 1.383 . S
C264 H280 0.951 . S
C265 C264 1.386 . S
C265 C269 1.383 . S
C266 C264 1.383 . S
C266 C267 1.402 . S
C266 H281 0.951 . S
C267 C266 1.402 . S
C267 C268 1.375 . S
C267 C270 1.481 . S
C268 C267 1.375 . S
C268 C269 1.367 . S
C268 H282 0.951 . S
C269 C265 1.383 . S
C269 C268 1.367 . S
C269 H283 0.950 . S
C270 C267 1.481 . S
C270 C271 1.297 . S
C270 H284 0.950 . S
C271 C270 1.297 . S
C271 C272 1.479 . S
C271 H285 0.950 . S
C272 C271 1.479 . S
C272 C273 1.375 . S
C272 C278 1.404 . S
C273 C272 1.375 . S
C273 C274 1.369 . S
C273 H286 0.950 . S
C274 C273 1.369 . S
C274 C275 1.392 . S
C274 H287 0.951 . S
C275 C274 1.392 . S
C275 C277 1.384 . S
H276 C278 0.949 . S
C277 C275 1.384 . S
C277 C278 1.385 . S
C277 H279 0.950 . S
C278 C272 1.404 . S
C278 H276 0.949 . S
C278 C277 1.385 . S
H279 C277 0.950 . S
H280 C264 0.951 . S
H281 C266 0.951 . S
H282 C268 0.951 . S
H283 C269 0.950 . S
H284 C270 0.950 . S
H285 C271 0.950 . S
H286 C273 0.950 . S
H287 C274 0.951 . S
C288 C289 1.386 . S
C288 C290 1.383 . S
C288 H304 0.951 . S
C289 C288 1.386 . S
C289 C293 1.383 . S
C290 C288 1.383 . S
C290 C291 1.402 . S
C290 H305 0.951 . S
C291 C290 1.402 . S
C291 C292 1.375 . S
C291 C294 1.481 . S
C292 C291 1.375 . S
C292 C293 1.367 . S
C292 H306 0.951 . S
C293 C289 1.383 . S
C293 C292 1.367 . S
C293 H307 0.950 . S
C294 C291 1.481 . S
C294 C295 1.297 1_455 S
C294 H308 0.950 . S
C295 C294 1.297 1_655 S
C295 C296 1.479 . S
C295 H309 0.950 . S
C296 C295 1.479 . S
C296 C297 1.375 . S
C296 C302 1.404 . S
C297 C296 1.375 . S
C297 C298 1.369 . S
C297 H310 0.950 . S
C298 C297 1.369 . S
C298 C299 1.392 . S
C298 H311 0.951 . S
C299 C298 1.392 . S
C299 C301 1.384 . S
H300 C302 0.949 . S
C301 C299 1.384 . S
C301 C302 1.385 . S
C301 H303 0.950 1_554 S
C302 C296 1.404 . S
C302 H300 0.949 . S
C302 C301 1.385 . S
H303 C301 0.950 1_556 S
H304 C288 0.951 . S
H305 C290 0.951 . S
H306 C292 0.951 . S
H307 C293 0.950 . S
H308 C294 0.950 . S
H309 C295 0.950 . S
H310 C297 0.950 . S
H311 C298 0.951 . S
C312 C313 1.386 . S
C312 C314 1.383 . S
C312 H328 0.951 . S
C313 C312 1.386 . S
C313 C317 1.383 . S
C314 C312 1.383 . S
C314 C315 1.402 . S
C314 H329 0.951 . S
C315 C314 1.402 . S
C315 C316 1.375 . S
C315 C318 1.481 . S
C316 C315 1.375 . S
C316 C317 1.367 . S
C316 H330 0.951 . S
C317 C313 1.383 . S
C317 C316 1.367 . S
C317 H331 0.950 . S
C318 C315 1.481 . S
C318 C319 1.297 1_545 S
C318 H332 0.950 . S
C319 C318 1.297 1_565 S
C319 C320 1.479 . S
C319 H333 0.950 1_565 S
C320 C319 1.479 . S
C320 C321 1.375 . S
C320 C326 1.404 . S
C321 C320 1.375 . S
C321 C322 1.369 . S
C321 H334 0.950 . S
C322 C321 1.369 . S
C322 C323 1.392 . S
C322 H335 0.951 . S
C323 C322 1.392 . S
C323 C325 1.384 . S
H324 C326 0.949 . S
C325 C323 1.384 . S
C325 C326 1.385 . S
C325 H327 0.950 . S
C326 C320 1.404 . S
C326 H324 0.949 . S
C326 C325 1.385 . S
H327 C325 0.950 . S
H328 C312 0.951 . S
H329 C314 0.951 . S
H330 C316 0.951 . S
H331 C317 0.950 . S
H332 C318 0.950 . S
H333 C319 0.950 1_545 S
H334 C321 0.950 . S
H335 C322 0.951 . S
C336 C337 1.386 . S
C336 C338 1.383 . S
C336 H352 0.951 . S
C337 C336 1.386 . S
C337 C341 1.383 . S
C338 C336 1.383 . S
C338 C339 1.402 . S
C338 H353 0.951 . S
C339 C338 1.402 . S
C339 C340 1.375 . S
C339 C342 1.481 . S
C340 C339 1.375 . S
C340 C341 1.367 . S
C340 H354 0.951 . S
C341 C337 1.383 . S
C341 C340 1.367 . S
C341 H355 0.950 . S
C342 C339 1.481 . S
C342 C343 1.297 . S
C342 H356 0.950 . S
C343 C342 1.297 . S
C343 C344 1.479 . S
C343 H357 0.950 . S
C344 C343 1.479 . S
C344 C345 1.375 . S
C344 C350 1.404 . S
C345 C344 1.375 . S
C345 C346 1.369 . S
C345 H358 0.950 . S
C346 C345 1.369 . S
C346 C347 1.392 . S
C346 H359 0.951 . S
C347 C346 1.392 . S
C347 C349 1.384 . S
H348 C350 0.949 . S
C349 C347 1.384 . S
C349 C350 1.385 . S
C349 H351 0.950 . S
C350 C344 1.404 . S
C350 H348 0.949 . S
C350 C349 1.385 . S
H351 C349 0.950 . S
H352 C336 0.951 . S
H353 C338 0.951 . S
H354 C340 0.951 . S
H355 C341 0.950 . S
H356 C342 0.950 . S
H357 C343 0.950 . S
H358 C345 0.950 . S
H359 C346 0.951 . S
C360 C361 1.386 1_556 S
C360 C362 1.383 . S
C360 H376 0.951 1_556 S
C361 C360 1.386 1_554 S
C361 C365 1.383 . S
C362 C360 1.383 . S
C362 C363 1.402 . S
C362 H377 0.951 . S
C363 C362 1.402 . S
C363 C364 1.375 . S
C363 C366 1.481 . S
C364 C363 1.375 . S
C364 C365 1.367 1_556 S
C364 H378 0.951 . S
C365 C361 1.383 . S
C365 C364 1.367 1_554 S
C365 H379 0.950 . S
C366 C363 1.481 . S
C366 C367 1.297 . S
C366 H380 0.950 . S
C367 C366 1.297 . S
C367 C368 1.479 . S
C367 H381 0.950 . S
C368 C367 1.479 . S
C368 C369 1.375 . S
C368 C374 1.404 . S
C369 C368 1.375 . S
C369 C370 1.369 . S
C369 H382 0.950 . S
C370 C369 1.369 . S
C370 C371 1.392 . S
C370 H383 0.951 . S
C371 C370 1.392 . S
C371 C373 1.384 . S
H372 C374 0.949 . S
C373 C371 1.384 . S
C373 C374 1.385 . S
C373 H375 0.950 . S
C374 C368 1.404 . S
C374 H372 0.949 . S
C374 C373 1.385 . S
H375 C373 0.950 . S
H376 C360 0.951 1_554 S
H377 C362 0.951 . S
H378 C364 0.951 . S
H379 C365 0.950 . S
H380 C366 0.950 . S
H381 C367 0.950 . S
H382 C369 0.950 . S
H383 C370 0.951 . S
C384 C385 1.386 . S
C384 C386 1.383 . S
C384 H400 0.951 . S
C385 C384 1.386 . S
C385 C389 1.383 . S
C386 C384 1.383 . S
C386 C387 1.402 . S
C386 H401 0.951 . S
C387 C386 1.402 . S
C387 C388 1.375 . S
C387 C390 1.481 . S
C388 C387 1.375 . S
C388 C389 1.367 . S
C388 H402 0.951 . S
C389 C385 1.383 . S
C389 C388 1.367 . S
C389 H403 0.950 . S
C390 C387 1.481 . S
C390 C391 1.297 . S
C390 H404 0.950 . S
C391 C390 1.297 . S
C391 C392 1.479 . S
C391 H405 0.950 . S
C392 C391 1.479 . S
C392 C393 1.375 . S
C392 C398 1.404 . S
C393 C392 1.375 . S
C393 C394 1.369 1_554 S
C393 H406 0.950 . S
C394 C393 1.369 1_556 S
C394 C395 1.392 . S
C394 H407 0.951 . S
C395 C394 1.392 . S
C395 C397 1.380 1_556 S
H396 C398 0.949 . S
C397 C395 1.380 1_554 S
C397 C398 1.392 . S
C397 H399 0.947 1_554 S
C398 C392 1.404 . S
C398 H396 0.949 . S
C398 C397 1.392 . S
H399 C397 0.947 1_556 S
H400 C384 0.951 . S
H401 C386 0.951 . S
H402 C388 0.951 . S
H403 C389 0.950 . S
H404 C390 0.950 . S
H405 C391 0.950 . S
H406 C393 0.950 . S
H407 C394 0.951 . S
C408 C409 1.386 . S
C408 C410 1.383 . S
C408 H424 0.951 . S
C409 C408 1.386 . S
C409 C413 1.383 . S
C410 C408 1.383 . S
C410 C411 1.402 . S
C410 H425 0.951 . S
C411 C410 1.402 . S
C411 C412 1.375 . S
C411 C414 1.481 . S
C412 C411 1.375 . S
C412 C413 1.367 . S
C412 H426 0.951 . S
C413 C409 1.383 . S
C413 C412 1.367 . S
C413 H427 0.950 . S
C414 C411 1.481 . S
C414 C415 1.297 . S
C414 H428 0.950 . S
C415 C414 1.297 . S
C415 C416 1.479 . S
C415 H429 0.950 . S
C416 C415 1.479 . S
C416 C417 1.375 . S
C416 C422 1.404 . S
C417 C416 1.375 . S
C417 C418 1.369 . S
C417 H430 0.950 . S
C418 C417 1.369 . S
C418 C419 1.392 . S
C418 H431 0.951 . S
C419 C418 1.392 . S
C419 C421 1.384 . S
H420 C422 0.949 . S
C421 C419 1.384 . S
C421 C422 1.385 . S
C421 H423 0.950 . S
C422 C416 1.404 . S
C422 H420 0.949 . S
C422 C421 1.385 . S
H423 C421 0.950 . S
H424 C408 0.951 . S
H425 C410 0.951 . S
H426 C412 0.951 . S
H427 C413 0.950 . S
H428 C414 0.950 . S
H429 C415 0.950 . S
H430 C417 0.950 . S
H431 C418 0.951 . S
C432 C433 1.386 . S
C432 C434 1.383 . S
C432 H448 0.951 . S
C433 C432 1.386 . S
C433 C437 1.383 . S
C434 C432 1.383 . S
C434 C435 1.402 . S
C434 H449 0.951 . S
C435 C434 1.402 . S
C435 C436 1.375 . S
C435 C438 1.481 . S
C436 C435 1.375 . S
C436 C437 1.367 . S
C436 H450 0.951 . S
C437 C433 1.383 . S
C437 C436 1.367 . S
C437 H451 0.950 . S
C438 C435 1.481 . S
C438 C439 1.297 . S
C438 H452 0.950 . S
C439 C438 1.297 . S
C439 C440 1.479 . S
C439 H453 0.950 . S
C440 C439 1.479 . S
C440 C441 1.375 . S
C440 C446 1.404 . S
C441 C440 1.375 . S
C441 C442 1.369 1_556 S
C441 H454 0.950 . S
C442 C441 1.369 1_554 S
C442 C443 1.392 . S
C442 H455 0.951 . S
C443 C442 1.392 . S
C443 C445 1.384 . S
H444 C446 0.949 . S
C445 C443 1.384 . S
C445 C446 1.385 1_554 S
C445 H447 0.950 . S
C446 C440 1.404 . S
C446 H444 0.949 . S
C446 C445 1.385 1_556 S
H447 C445 0.950 . S
H448 C432 0.951 . S
H449 C434 0.951 . S
H450 C436 0.951 . S
H451 C437 0.950 . S
H452 C438 0.950 . S
H453 C439 0.950 . S
H454 C441 0.950 . S
H455 C442 0.951 . S
C456 C457 1.386 . S
C456 C458 1.383 . S
C456 H472 0.951 . S
C457 C456 1.386 . S
C457 C461 1.383 . S
C458 C456 1.383 . S
C458 C459 1.402 . S
C458 H473 0.951 . S
C459 C458 1.402 . S
C459 C460 1.375 . S
C459 C462 1.481 . S
C460 C459 1.375 . S
C460 C461 1.367 . S
C460 H474 0.951 . S
C461 C457 1.383 . S
C461 C460 1.367 . S
C461 H475 0.950 . S
C462 C459 1.481 . S
C462 C463 1.297 . S
C462 H476 0.950 . S
C463 C462 1.297 . S
C463 C464 1.479 . S
C463 H477 0.950 . S
C464 C463 1.479 . S
C464 C465 1.375 . S
C464 C470 1.404 . S
C465 C464 1.375 . S
C465 C466 1.369 1_554 S
C465 H478 0.950 . S
C466 C465 1.369 1_556 S
C466 C467 1.392 . S
C466 H479 0.951 . S
C467 C466 1.392 . S
C467 C469 1.384 1_556 S
H468 C470 0.949 . S
C469 C467 1.384 1_554 S
C469 C470 1.385 . S
C469 H471 0.950 1_554 S
C470 C464 1.404 . S
C470 H468 0.949 . S
C470 C469 1.385 . S
H471 C469 0.950 1_556 S
H472 C456 0.951 . S
H473 C458 0.951 . S
H474 C460 0.951 . S
H475 C461 0.950 . S
H476 C462 0.950 . S
H477 C463 0.950 . S
H478 C465 0.950 . S
H479 C466 0.951 . S
C480 C481 1.386 . S
C480 C482 1.383 . S
C480 H496 0.951 . S
C481 C480 1.386 . S
C481 C485 1.383 . S
C482 C480 1.383 . S
C482 C483 1.402 . S
C482 H497 0.951 . S
C483 C482 1.402 . S
C483 C484 1.375 . S
C483 C486 1.481 . S
C484 C483 1.375 . S
C484 C485 1.367 . S
C484 H498 0.951 . S
C485 C481 1.383 . S
C485 C484 1.367 . S
C485 H499 0.950 . S
C486 C483 1.481 . S
C486 C487 1.297 . S
C486 H500 0.950 . S
C487 C486 1.297 . S
C487 C488 1.479 . S
C487 H501 0.950 . S
C488 C487 1.479 . S
C488 C489 1.375 . S
C488 C494 1.404 . S
C489 C488 1.375 . S
C489 C490 1.369 . S
C489 H502 0.950 . S
C490 C489 1.369 . S
C490 C491 1.392 . S
C490 H503 0.951 . S
C491 C490 1.392 . S
C491 C493 1.384 . S
H492 C494 0.949 . S
C493 C491 1.384 . S
C493 C494 1.385 . S
C493 H495 0.950 . S
C494 C488 1.404 . S
C494 H492 0.949 . S
C494 C493 1.385 . S
H495 C493 0.950 . S
H496 C480 0.951 . S
H497 C482 0.951 . S
H498 C484 0.951 . S
H499 C485 0.950 . S
H500 C486 0.950 . S
H501 C487 0.950 . S
H502 C489 0.950 . S
H503 C490 0.951 . S
C504 C505 1.386 . S
C504 C506 1.383 . S
C504 H520 0.951 . S
C505 C504 1.386 . S
C505 C509 1.383 . S
C506 C504 1.383 . S
C506 C507 1.402 . S
C506 H521 0.951 . S
C507 C506 1.402 . S
C507 C508 1.375 . S
C507 C510 1.481 . S
C508 C507 1.375 . S
C508 C509 1.367 . S
C508 H522 0.951 . S
C509 C505 1.383 . S
C509 C508 1.367 . S
C509 H523 0.950 . S
C510 C507 1.481 . S
C510 C511 1.297 . S
C510 H524 0.950 . S
C511 C510 1.297 . S
C511 C512 1.479 . S
C511 H525 0.950 . S
C512 C511 1.479 . S
C512 C513 1.375 . S
C512 C518 1.404 . S
C513 C512 1.375 . S
C513 C514 1.369 . S
C513 H526 0.950 . S
C514 C513 1.369 . S
C514 C515 1.392 . S
C514 H527 0.951 . S
C515 C514 1.392 . S
C515 C517 1.384 . S
H516 C518 0.949 . S
C517 C515 1.384 . S
C517 C518 1.385 . S
C517 H519 0.950 . S
C518 C512 1.404 . S
C518 H516 0.949 . S
C518 C517 1.385 . S
H519 C517 0.950 . S
H520 C504 0.951 . S
H521 C506 0.951 . S
H522 C508 0.951 . S
H523 C509 0.950 . S
H524 C510 0.950 . S
H525 C511 0.950 . S
H526 C513 0.950 . S
H527 C514 0.951 . S
C528 C529 1.386 . S
C528 C530 1.383 . S
C528 H544 0.951 . S
C529 C528 1.386 . S
C529 C533 1.383 . S
C530 C528 1.383 . S
C530 C531 1.402 . S
C530 H545 0.951 . S
C531 C530 1.402 . S
C531 C532 1.375 . S
C531 C534 1.481 . S
C532 C531 1.375 . S
C532 C533 1.367 . S
C532 H546 0.951 . S
C533 C529 1.383 . S
C533 C532 1.367 . S
C533 H547 0.950 1_556 S
C534 C531 1.481 . S
C534 C535 1.297 . S
C534 H548 0.950 . S
C535 C534 1.297 . S
C535 C536 1.479 . S
C535 H549 0.950 . S
C536 C535 1.479 . S
C536 C537 1.375 . S
C536 C542 1.404 . S
C537 C536 1.375 . S
C537 C538 1.369 . S
C537 H550 0.950 . S
C538 C537 1.369 . S
C538 C539 1.392 . S
C538 H551 0.951 . S
C539 C538 1.392 . S
C539 C541 1.384 . S
H540 C542 0.949 . S
C541 C539 1.384 . S
C541 C542 1.385 . S
C541 H543 0.950 . S
C542 C536 1.404 . S
C542 H540 0.949 . S
C542 C541 1.385 . S
H543 C541 0.950 . S
H544 C528 0.951 . S
H545 C530 0.951 . S
H546 C532 0.951 . S
H547 C533 0.950 1_554 S
H548 C534 0.950 . S
H549 C535 0.950 . S
H550 C537 0.950 . S
H551 C538 0.951 . S
C552 C553 1.386 . S
C552 C554 1.383 . S
C552 H568 0.951 . S
C553 C552 1.386 . S
C553 C557 1.383 . S
C554 C552 1.383 . S
C554 C555 1.402 . S
C554 H569 0.951 . S
C555 C554 1.402 . S
C555 C556 1.375 . S
C555 C558 1.481 . S
C556 C555 1.375 . S
C556 C557 1.367 . S
C556 H570 0.951 . S
C557 C553 1.383 . S
C557 C556 1.367 . S
C557 H571 0.950 . S
C558 C555 1.481 . S
C558 C559 1.297 . S
C558 H572 0.950 . S
C559 C558 1.297 . S
C559 C560 1.479 . S
C559 H573 0.950 . S
C560 C559 1.479 . S
C560 C561 1.375 . S
C560 C566 1.404 . S
C561 C560 1.375 . S
C561 C562 1.369 . S
C561 H574 0.950 . S
C562 C561 1.369 . S
C562 C563 1.392 . S
C562 H575 0.951 . S
C563 C562 1.392 . S
C563 C565 1.384 . S
H564 C566 0.949 . S
C565 C563 1.384 . S
C565 C566 1.385 . S
C565 H567 0.950 . S
C566 C560 1.404 . S
C566 H564 0.949 . S
C566 C565 1.385 . S
H567 C565 0.950 . S
H568 C552 0.951 . S
H569 C554 0.951 . S
H570 C556 0.951 . S
H571 C557 0.950 . S
H572 C558 0.950 . S
H573 C559 0.950 . S
H574 C561 0.950 . S
H575 C562 0.951 . S
C576 C577 1.386 . S
C576 C578 1.383 . S
C576 H592 0.951 . S
C577 C576 1.386 . S
C577 C581 1.383 . S
C578 C576 1.383 . S
C578 C579 1.402 . S
C578 H593 0.951 . S
C579 C578 1.402 . S
C579 C580 1.375 . S
C579 C582 1.481 . S
C580 C579 1.375 . S
C580 C581 1.367 . S
C580 H594 0.951 . S
C581 C577 1.383 . S
C581 C580 1.367 . S
C581 H595 0.950 . S
C582 C579 1.481 . S
C582 C583 1.297 . S
C582 H596 0.950 . S
C583 C582 1.297 . S
C583 C584 1.479 . S
C583 H597 0.950 . S
C584 C583 1.479 . S
C584 C585 1.375 . S
C584 C590 1.404 . S
C585 C584 1.375 . S
C585 C586 1.369 . S
C585 H598 0.950 . S
C586 C585 1.369 . S
C586 C587 1.392 . S
C586 H599 0.951 . S
C587 C586 1.392 . S
C587 C589 1.384 . S
H588 C590 0.949 . S
C589 C587 1.384 . S
C589 C590 1.385 . S
C589 H591 0.950 . S
C590 C584 1.404 . S
C590 H588 0.949 . S
C590 C589 1.385 . S
H591 C589 0.950 . S
H592 C576 0.951 . S
H593 C578 0.951 . S
H594 C580 0.951 . S
H595 C581 0.950 . S
H596 C582 0.950 . S
H597 C583 0.950 . S
H598 C585 0.950 . S
H599 C586 0.951 . S
C600 C601 1.386 . S
C600 C602 1.383 . S
C600 H616 0.951 . S
C601 C600 1.386 . S
C601 C605 1.383 . S
C602 C600 1.383 . S
C602 C603 1.402 . S
C602 H617 0.951 . S
C603 C602 1.402 . S
C603 C604 1.375 . S
C603 C606 1.481 . S
C604 C603 1.375 . S
C604 C605 1.367 . S
C604 H618 0.951 . S
C605 C601 1.383 . S
C605 C604 1.367 . S
C605 H619 0.950 1_556 S
C606 C603 1.481 . S
C606 C607 1.297 . S
C606 H620 0.950 . S
C607 C606 1.297 . S
C607 C608 1.479 . S
C607 H621 0.950 . S
C608 C607 1.479 . S
C608 C609 1.375 . S
C608 C614 1.404 . S
C609 C608 1.375 . S
C609 C610 1.369 . S
C609 H622 0.950 . S
C610 C609 1.369 . S
C610 C611 1.392 . S
C610 H623 0.951 . S
C611 C610 1.392 . S
C611 C613 1.384 . S
H612 C614 0.949 . S
C613 C611 1.384 . S
C613 C614 1.385 . S
C613 H615 0.950 . S
C614 C608 1.404 . S
C614 H612 0.949 . S
C614 C613 1.385 . S
H615 C613 0.950 . S
H616 C600 0.951 . S
H617 C602 0.951 . S
H618 C604 0.951 . S
H619 C605 0.950 1_554 S
H620 C606 0.950 . S
H621 C607 0.950 . S
H622 C609 0.950 . S
H623 C610 0.951 . S
C193 C166 1.440 . S
C203 C6 1.462 . S
C217 C2 1.438 . S
C227 C34 1.470 . S
C241 C38 1.458 . S
C251 C70 1.430 . S
C265 C66 1.464 . S
C275 C98 1.432 . S
C289 C134 1.446 . S
C299 C102 1.463 . S
C313 C162 1.438 . S
C323 C130 1.467 . S
C337 N13 0.892 . S
C347 N18 0.887 . S
C361 N50 0.895 . S
C371 N45 0.894 . S
C385 N77 0.905 . S
C395 N82 0.910 . S
C409 N114 0.891 . S
C419 N109 0.881 . S
C433 N146 0.903 . S
C443 N141 0.909 . S
C457 N178 0.899 . S
C467 N173 0.901 . S
C481 C4 1.487 . S
C491 C157 1.527 . S
C505 C61 1.518 . S
C515 C164 1.532 . S
C529 C29 1.495 . S
C539 C68 1.463 . S
C553 C36 1.530 . S
C563 C125 1.500 . S
C577 C132 1.491 . S
C587 C93 1.533 . S
C601 C100 1.509 . S
C611 C189 1.457 . S
