# Generated by pormake.
# Topology zfs, (5)-cn, num edge types: 1
# Building blocks:
#     Node 0, Type 0, BuildingBlock: XOMCOT_clean_sbu_1, # of connection points: 5
#     Node 1, Type 0, BuildingBlock: XOMCOT_clean_sbu_1, # of connection points: 5
#     Node 2, Type 0, BuildingBlock: XOMCOT_clean_sbu_1, # of connection points: 5
#     Node 3, Type 0, BuildingBlock: XOMCOT_clean_sbu_1, # of connection points: 5
#     Node 4, Type 0, BuildingBlock: XOMCOT_clean_sbu_1, # of connection points: 5
#     Node 5, Type 0, BuildingBlock: XOMCOT_clean_sbu_1, # of connection points: 5
#     Node 6, Type 0, BuildingBlock: XOMCOT_clean_sbu_1, # of connection points: 5
#     Node 7, Type 0, BuildingBlock: XOMCOT_clean_sbu_1, # of connection points: 5
#     Edge 8, Type (0, 0), BuildingBlock: CIFDUS_clean_linker_0, # of connection points: 2
#     Edge 9, Type (0, 0), BuildingBlock: CIFDUS_clean_linker_0, # of connection points: 2
#     Edge 10, Type (0, 0), BuildingBlock: CIFDUS_clean_linker_0, # of connection points: 2
#     Edge 11, Type (0, 0), BuildingBlock: CIFDUS_clean_linker_0, # of connection points: 2
#     Edge 12, Type (0, 0), BuildingBlock: CIFDUS_clean_linker_0, # of connection points: 2
#     Edge 13, Type (0, 0), BuildingBlock: CIFDUS_clean_linker_0, # of connection points: 2
#     Edge 14, Type (0, 0), BuildingBlock: CIFDUS_clean_linker_0, # of connection points: 2
#     Edge 15, Type (0, 0), BuildingBlock: CIFDUS_clean_linker_0, # of connection points: 2
#     Edge 16, Type (0, 0), BuildingBlock: CIFDUS_clean_linker_0, # of connection points: 2
#     Edge 17, Type (0, 0), BuildingBlock: CIFDUS_clean_linker_0, # of connection points: 2
#     Edge 18, Type (0, 0), BuildingBlock: CIFDUS_clean_linker_0, # of connection points: 2
#     Edge 19, Type (0, 0), BuildingBlock: CIFDUS_clean_linker_0, # of connection points: 2
#     Edge 20, Type (0, 0), BuildingBlock: CIFDUS_clean_linker_0, # of connection points: 2
#     Edge 21, Type (0, 0), BuildingBlock: CIFDUS_clean_linker_0, # of connection points: 2
#     Edge 22, Type (0, 0), BuildingBlock: CIFDUS_clean_linker_0, # of connection points: 2
#     Edge 23, Type (0, 0), BuildingBlock: CIFDUS_clean_linker_0, # of connection points: 2
#     Edge 24, Type (0, 0), BuildingBlock: CIFDUS_clean_linker_0, # of connection points: 2
#     Edge 25, Type (0, 0), BuildingBlock: CIFDUS_clean_linker_0, # of connection points: 2
#     Edge 26, Type (0, 0), BuildingBlock: CIFDUS_clean_linker_0, # of connection points: 2
#     Edge 27, Type (0, 0), BuildingBlock: CIFDUS_clean_linker_0, # of connection points: 2
# Relax obj value: 0.155
# Max RMSD: 0.157
# Mean RMSD: 0.157
data_MOF--net-zfs--node1-XOMCOT_clean_sbu_1--edge1-CIFDUS_clean_linker_0
_symmetry_space_group_name_H-M    P1
_symmetry_Int_Tables_number       1
_symmetry_cell_setting            triclinic
loop_
_symmetry_equiv_pos_as_xyz
'x, y, z'
_cell_length_a     30.337599
_cell_length_b     30.269442
_cell_length_c     36.213459
_cell_angle_alpha  89.858594
_cell_angle_beta   90.379865
_cell_angle_gamma 89.822819
loop_
_atom_site_label
_atom_site_type_symbol
_atom_site_fract_x
_atom_site_fract_y
_atom_site_fract_z
_atom_type_partial_charge
C0 C 0.12902 0.27157 0.239 0.0
C1 C 0.15582 0.26184 0.26875 0.0
N2 N 0.14148 0.22398 0.28413 0.0
N3 N 0.09767 0.24028 0.2361 0.0
C4 C 0.10647 0.21144 0.26363 0.0
H5 H 0.13168 0.29995 0.22095 0.0
Co6 Co 0.05251 0.23828 0.20135 0.0
C7 C 0.98009 0.2163 0.25454 0.0
O8 O 0.95912 0.25322 0.24672 0.0
N9 N 1.00859 0.23524 0.165 0.0
C10 C 0.95205 0.22071 0.12762 0.0
C11 C 0.9659 0.22276 0.16388 0.0
C12 C 0.01976 0.24003 0.12927 0.0
N13 N 0.98624 0.23138 0.10578 0.0
O14 O 0.07586 0.18323 0.18241 0.0
H15 H 0.94628 0.21319 0.18722 0.0
H16 H 0.05285 0.24799 0.12084 0.0
O17 O 1.01543 0.20616 0.23733 0.0
C18 C 0.10916 0.19118 0.16207 0.0
O19 O 0.12367 0.23204 0.16072 0.0
N20 N 0.0327 0.29518 0.21721 0.0
C21 C 0.01816 0.38428 0.23538 0.0
C22 C 0.02415 0.35219 0.26308 0.0
C23 C 0.03191 0.30802 0.25345 0.0
C24 C 0.02728 0.32618 0.19007 0.0
C25 C 0.01925 0.37044 0.19848 0.0
H26 H 0.03842 0.28428 0.27518 0.0
H27 H 0.031 0.31734 0.16146 0.0
H28 H 0.08693 0.18234 0.26912 0.0
H29 H 0.18362 0.2811 0.27831 0.0
H30 H 0.91962 0.21079 0.11829 0.0
H31 H 0.02467 0.36132 0.29197 0.0
H32 H 1.01483 0.39378 0.17604 0.0
C33 C 0.74761 0.12951 0.47568 0.0
C34 C 0.74977 0.15994 0.5037 0.0
N35 N 0.78229 0.14761 0.52704 0.0
N36 N 0.77867 0.09826 0.48138 0.0
C37 C 0.7994 0.11014 0.51287 0.0
H38 H 0.72511 0.13017 0.45239 0.0
Co39 Co 0.78938 0.05225 0.44905 0.0
C40 C 0.80502 0.97697 0.4987 0.0
O41 O 0.77666 0.95548 0.47788 0.0
N42 N 0.80131 1.00822 0.41435 0.0
C43 C 0.83822 0.96146 0.37834 0.0
C44 C 0.83089 0.97462 0.41418 0.0
C45 C 0.7928 1.01581 0.37832 0.0
N46 N 0.81457 0.98799 0.35592 0.0
O47 O 0.84527 0.07793 0.43647 0.0
H48 H 0.84996 0.96346 0.4377 0.0
H49 H 0.77385 0.04387 0.36856 0.0
O50 O 0.81592 1.01647 0.48982 0.0
C51 C 0.83914 0.10831 0.41246 0.0
O52 O 0.79862 0.11864 0.40273 0.0
N53 N 0.73184 0.0298 0.45924 0.0
C54 C 0.64285 1.01248 0.47315 0.0
C55 C 0.67268 0.01884 0.50231 0.0
C56 C 0.71686 0.02764 0.49482 0.0
C57 C 0.70302 0.02339 0.43061 0.0
C58 C 0.65864 1.01391 0.43696 0.0
H59 H 0.73872 0.0345 0.51776 0.0
H60 H 0.71331 0.02787 0.40254 0.0
H61 H 0.8272 0.09242 0.52463 0.0
H62 H 0.72902 0.18885 0.50672 0.0
H63 H 0.86232 0.93738 0.36935 0.0
H64 H 0.66168 1.01829 0.53071 0.0
H65 H 0.63638 1.01033 0.41365 0.0
C66 C 0.91184 0.75928 0.7274 0.0
C67 C 0.88214 0.76199 0.75581 0.0
N68 N 0.89357 0.79642 0.77728 0.0
N69 N 0.9418 0.79182 0.73104 0.0
C70 C 0.9297 0.81409 0.76154 0.0
H71 H 0.91187 0.73503 0.70551 0.0
Co72 Co 0.9878 0.80211 0.69865 0.0
C73 C 0.05762 0.82358 0.75451 0.0
O74 O 0.08138 0.78976 0.74358 0.0
N75 N 0.03174 0.81327 0.66416 0.0
C76 C 0.08389 0.83993 0.62732 0.0
C77 C 0.07121 0.83386 0.66363 0.0
C78 C 0.02108 0.80808 0.62831 0.0
N79 N 0.0521 0.82336 0.60525 0.0
O80 O 0.96087 0.85723 0.68357 0.0
H81 H 0.08857 0.84633 0.68751 0.0
H82 H 0.98968 0.79492 0.61938 0.0
O83 O 0.02115 0.83264 0.73819 0.0
C84 C 0.9282 0.8509 0.66186 0.0
O85 O 0.91528 0.8101 0.65603 0.0
N86 N 1.01188 0.74509 0.71081 0.0
C87 C 0.02341 0.65371 0.72218 0.0
C88 C 1.01569 0.6823 0.75203 0.0
C89 C 1.01031 0.72782 0.7458 0.0
C90 C 0.02144 0.71785 0.68193 0.0
C91 C 0.02849 0.67274 0.68712 0.0
H92 H 1.00192 0.74871 0.7689 0.0
H93 H 0.02094 0.72985 0.654 0.0
H94 H 0.94664 0.84306 0.77171 0.0
H95 H 0.85474 0.73994 0.76062 0.0
H96 H 0.11342 0.85643 0.618 0.0
H97 H 1.01112 0.66957 0.77969 0.0
H98 H 0.03573 0.6527 0.66319 0.0
C99 C 0.28108 0.91044 0.99232 0.0
C100 C 0.27418 0.88623 0.02392 0.0
N101 N 0.23882 0.90322 0.04129 0.0
N102 N 0.25035 0.94258 0.99002 0.0
C103 C 0.22481 0.93708 0.01993 0.0
H104 H 0.30725 0.90556 0.97258 0.0
Co105 Co 0.24569 0.98494 0.95334 0.0
C106 C 0.2304 0.06598 0.99653 0.0
O107 O 0.26174 0.08391 0.9766 0.0
N108 N 0.23956 0.02576 0.91489 0.0
C109 C 0.20448 0.06904 0.87442 0.0
C110 C 0.21122 0.06014 0.9112 0.0
C111 C 0.24847 1.01385 0.87985 0.0
N112 N 0.2274 0.03932 0.85473 0.0
O113 O 0.18936 0.96094 0.93817 0.0
H114 H 0.19165 0.07425 0.93297 0.0
H115 H 0.26504 0.98327 0.87302 0.0
O116 O 0.21809 0.02643 0.98931 0.0
C117 C 0.19655 0.92688 0.91828 0.0
O118 O 0.2374 0.91321 0.91444 0.0
N119 N 0.30362 1.00486 0.96595 0.0
C120 C 0.39305 1.01439 0.98472 0.0
C121 C 0.36028 1.01644 0.01182 0.0
C122 C 0.31603 1.01102 0.002 0.0
C123 C 0.33505 1.00383 0.93913 0.0
C124 C 0.37978 1.00902 0.94783 0.0
H125 H 0.29193 1.00953 0.02381 0.0
H126 H 0.32616 0.99617 0.91105 0.0
H127 H 0.19634 0.95741 0.02581 0.0
H128 H 0.29428 0.85899 0.03376 0.0
H129 H 0.18114 0.09271 0.8632 0.0
H130 H 0.36883 0.02059 0.04068 0.0
H131 H 0.40391 1.00611 0.92605 0.0
C132 C 0.13675 0.7533 0.27439 0.0
C133 C 0.16578 0.75662 0.24554 0.0
N134 N 0.1526 0.79037 0.22375 0.0
N135 N 0.10538 0.7846 0.27058 0.0
C136 C 0.11605 0.80693 0.23971 0.0
H137 H 0.1379 0.72919 0.29647 0.0
Co138 Co 0.05818 0.79121 0.30192 0.0
C139 C 0.98628 0.81876 0.25065 0.0
O140 O 0.96132 0.78775 0.26491 0.0
N141 N 1.01234 0.79841 0.33568 0.0
C142 C 0.96929 0.83607 0.37424 0.0
C143 C 0.983 0.83208 0.33819 0.0
C144 C 1.01609 0.78313 0.37062 0.0
N145 N 0.99012 0.80496 0.39429 0.0
O146 O 0.08309 0.84503 0.32103 0.0
H147 H 0.97662 0.85633 0.31689 0.0
H148 H 0.04224 0.76133 0.37982 0.0
O149 O 0.02529 0.82463 0.26338 0.0
C150 C 0.10878 0.83558 0.34793 0.0
O151 O 0.11735 0.79367 0.35442 0.0
N152 N 0.03631 0.73559 0.28509 0.0
C153 C 0.02457 0.64749 0.26266 0.0
C154 C 0.02522 0.68207 0.2367 0.0
C155 C 0.03188 0.72565 0.24838 0.0
C156 C 0.03546 0.70228 0.31055 0.0
C157 C 0.02905 0.65838 0.30007 0.0
H158 H 0.03594 0.75095 0.22762 0.0
H159 H 0.04315 0.70872 0.33899 0.0
H160 H 0.09671 0.83397 0.22854 0.0
H161 H 0.19431 0.73584 0.241 0.0
H162 H 0.94938 0.8625 0.38548 0.0
H163 H 0.02226 0.67544 0.20743 0.0
H164 H 0.03058 0.63291 0.3211 0.0
C165 C 0.26921 0.13269 0.53066 0.0
C166 C 0.26417 0.16248 0.5023 0.0
N167 N 0.2346 0.14608 0.47803 0.0
N168 N 0.24324 0.09754 0.5242 0.0
C169 C 0.22233 0.1066 0.49209 0.0
H170 H 0.29048 0.13629 0.55454 0.0
Co171 Co 0.23939 0.05017 0.55591 0.0
C172 C 0.22406 0.97176 0.51036 0.0
O173 O 0.25572 0.95313 0.52995 0.0
N174 N 0.23448 1.00312 0.58986 0.0
C175 C 0.19888 0.95639 0.62675 0.0
C176 C 0.19924 0.97596 0.59251 0.0
C177 C 0.25468 0.99942 0.62306 0.0
N178 N 0.23383 0.97137 0.64586 0.0
O179 O 0.18177 0.06972 0.57075 0.0
H180 H 0.17244 0.97457 0.57272 0.0
H181 H 0.27952 0.02188 0.63295 0.0
O182 O 0.21384 1.01225 0.51636 0.0
C183 C 0.18384 0.09007 0.60158 0.0
O184 O 0.22267 0.09539 0.61722 0.0
N185 N 0.29807 0.03511 0.54352 0.0
C186 C 0.38876 0.03195 0.52938 0.0
C187 C 0.35794 0.02237 0.50142 0.0
C188 C 0.3127 0.02508 0.50884 0.0
C189 C 0.32769 0.04625 0.5703 0.0
C190 C 0.37287 0.0435 0.56431 0.0
H191 H 0.28972 0.02147 0.48616 0.0
H192 H 0.31647 0.06084 0.59563 0.0
H193 H 0.198 0.08509 0.4797 0.0
H194 H 0.28138 0.19357 0.49966 0.0
H195 H 0.17227 0.93707 0.63823 0.0
H196 H 0.36857 1.01522 0.47358 0.0
H197 H 0.39509 0.05212 0.58665 0.0
C198 C 0.90077 0.2943 0.75089 0.0
C199 C 0.87157 0.28385 0.72312 0.0
N200 N 0.87569 0.24044 0.71555 0.0
N201 N 0.92375 0.25782 0.76056 0.0
C202 C 0.90659 0.22532 0.73946 0.0
H203 H 0.90494 0.32662 0.76294 0.0
Co204 Co 0.9676 0.25243 0.79686 0.0
C205 C 1.01027 0.21679 0.72761 0.0
O206 O 0.98643 0.24264 0.70613 0.0
N207 N 1.00925 0.24729 0.83365 0.0
C208 C 0.06907 0.24292 0.86908 0.0
C209 C 0.05367 0.24535 0.83314 0.0
C210 C 0.99841 0.24621 0.86954 0.0
N211 N 0.03398 0.24313 0.89173 0.0
O212 O 0.94156 0.19785 0.81389 0.0
H213 H 0.07347 0.24618 0.80842 0.0
H214 H 0.96489 0.24885 0.87927 0.0
O215 O 1.00656 0.21925 0.76284 0.0
C216 C 0.90599 0.20495 0.83157 0.0
O217 O 0.89039 0.24548 0.83268 0.0
N218 N 0.99102 0.3081 0.78434 0.0
C219 C 1.01389 0.39699 0.77671 0.0
C220 C 0.03109 0.36503 0.75273 0.0
C221 C 0.01999 0.32042 0.7575 0.0
C222 C 0.97516 0.33874 0.80844 0.0
C223 C 0.98626 0.38325 0.80526 0.0
H224 H 0.0351 0.29651 0.73972 0.0
H225 H 0.95292 0.32843 0.83002 0.0
H226 H 0.9186 0.19164 0.74029 0.0
H227 H 0.84943 0.30675 0.70939 0.0
H228 H 0.1032 0.24103 0.87784 0.0
H229 H 0.05321 0.37445 0.73073 0.0
H230 H 0.97229 0.40693 0.82432 0.0
C231 C 0.76385 0.90783 0.01125 0.0
C232 C 0.77322 0.88035 0.98207 0.0
N233 N 0.81155 0.89354 0.96705 0.0
N234 N 0.7959 0.9384 0.01417 0.0
C235 C 0.82463 0.92857 0.9872 0.0
H236 H 0.73546 0.90592 0.02909 0.0
Co237 Co 0.80044 0.9834 0.04864 0.0
C238 C 0.82208 0.05771 0.99812 0.0
O239 O 0.78866 0.07996 0.01171 0.0
N240 N 0.80647 0.02705 0.08479 0.0
C241 C 0.83382 0.07804 0.12278 0.0
C242 C 0.82999 0.06493 0.08653 0.0
C243 C 0.79762 1.01744 0.12034 0.0
N244 N 0.81387 0.04766 0.14394 0.0
O245 O 0.85457 0.95735 0.0674 0.0
H246 H 0.84751 0.08 0.06401 0.0
H247 H 0.78177 0.98716 0.12887 0.0
O248 O 0.8323 0.01988 0.01173 0.0
C249 C 0.8441 0.92475 0.08804 0.0
O250 O 0.8022 0.91441 0.09076 0.0
N251 N 0.74421 1.00548 0.03284 0.0
C252 C 0.6558 0.02142 0.01318 0.0
C253 C 0.68818 1.01607 0.98602 0.0
C254 C 0.73201 1.00771 0.99638 0.0
C255 C 0.71305 1.0109 0.05948 0.0
C256 C 0.66909 0.01962 0.05032 0.0
H257 H 0.75586 1.00129 0.97499 0.0
H258 H 0.72135 1.0064 0.08817 0.0
H259 H 0.85432 0.94726 0.98209 0.0
H260 H 0.75354 0.85268 0.97286 0.0
H261 H 0.85317 0.10549 0.13296 0.0
H262 H 0.67951 1.0162 0.95697 0.0
H263 H 0.6455 0.0237 0.07237 0.0
H264 H 0.98287 0.5777 0.29582 0.0
H265 H 0.06594 0.61031 0.20335 0.0
H266 H 0.07004 0.53262 0.18642 0.0
H267 H 0.05375 0.45504 0.1996 0.0
H268 H 0.97148 0.42145 0.29224 0.0
H269 H 0.96472 0.49967 0.308 0.0
C270 C 1.00192 0.56787 0.27197 0.0
C271 C 0.02389 0.60019 0.25088 0.0
C272 C 1.00487 0.52279 0.26268 0.0
C273 C 0.04794 0.5866 0.21978 0.0
C274 C 0.05074 0.54198 0.21025 0.0
C275 C 0.03371 0.46471 0.22292 0.0
C276 C 1.01309 0.43212 0.24461 0.0
C277 C 0.02972 0.50976 0.23169 0.0
C278 C 0.98816 0.44558 0.27525 0.0
C279 C 0.98404 0.4904 0.28415 0.0
H280 H 0.5936 0.06527 0.51647 0.0
H281 H 0.58469 0.95208 0.44491 0.0
H282 H 0.50507 0.94779 0.45579 0.0
H283 H 0.43804 0.97642 0.48621 0.0
H284 H 0.44805 0.09256 0.55481 0.0
H285 H 0.5271 0.09503 0.54494 0.0
C286 C 0.57427 0.03935 0.5036 0.0
C287 C 0.59494 1.00871 0.48032 0.0
C288 C 0.52868 0.03757 0.50952 0.0
C289 C 0.5694 0.97597 0.46304 0.0
C290 C 0.52396 0.97353 0.46927 0.0
C291 C 0.45746 1.00243 0.49877 0.0
C292 C 0.43696 0.03372 0.5218 0.0
C293 C 0.50318 1.00426 0.49243 0.0
C294 C 0.46285 0.0672 0.53785 0.0
C295 C 0.50816 0.06893 0.53199 0.0
H296 H 0.0498 0.60267 0.78176 0.0
H297 H 0.99228 0.59284 0.67253 0.0
H298 H 0.98888 0.51325 0.67847 0.0
H299 H 0.99833 0.44584 0.71542 0.0
H300 H 0.04816 0.45503 0.82674 0.0
H301 H 0.0578 0.53501 0.81945 0.0
C302 C 0.03629 0.5833 0.75928 0.0
C303 C 0.02218 0.60442 0.72646 0.0
C304 C 0.03281 0.53707 0.76327 0.0
C305 C 1.00496 0.5781 0.69771 0.0
C306 C 1.00242 0.53227 0.70116 0.0
C307 C 1.01185 0.46538 0.73785 0.0
C308 C 0.02295 0.44471 0.77139 0.0
C309 C 1.01601 0.51139 0.73382 0.0
C310 C 0.03956 0.47037 0.8006 0.0
C311 C 0.04497 0.51604 0.79644 0.0
H312 H 0.46255 0.05463 0.95009 0.0
H313 H 0.43091 0.97101 0.04291 0.0
H314 H 0.50852 0.96668 0.05998 0.0
H315 H 0.58552 0.98421 0.04771 0.0
H316 H 0.61857 0.06817 0.95554 0.0
H317 H 0.54055 0.0737 0.93857 0.0
C318 C 0.47267 0.03543 0.97402 0.0
C319 C 0.44066 1.01353 0.99532 0.0
C320 C 0.51771 0.03274 0.98365 0.0
C321 C 0.45449 0.98899 0.02639 0.0
C322 C 0.49902 0.98615 0.03604 0.0
C323 C 0.57578 1.0044 0.02425 0.0
C324 C 0.60814 0.02593 0.00311 0.0
C325 C 0.5309 1.00776 0.01485 0.0
C326 C 0.59461 0.05089 0.97218 0.0
C327 C 0.5499 0.05427 0.96256 0.0
H328 H 0.20086 0.10559 0.41781 0.0
H329 H 0.23368 0.23362 0.46232 0.0
H330 H 0.20931 0.2689 0.40527 0.0
H331 H 0.17728 0.26377 0.34319 0.0
H332 H 0.14218 0.13644 0.29905 0.0
H333 H 0.16802 0.10052 0.3558 0.0
C334 C 0.20229 0.14121 0.41523 0.0
C335 C 0.2193 0.16678 0.4444 0.0
C336 C 0.18769 0.16145 0.38243 0.0
C337 C 0.22146 0.21295 0.44022 0.0
C338 C 0.20727 0.23326 0.40763 0.0
C339 C 0.1758 0.22814 0.34586 0.0
C340 C 0.15803 0.20277 0.31699 0.0
C341 C 0.19039 0.20785 0.37857 0.0
C342 C 0.15544 0.15667 0.32106 0.0
C343 C 0.17032 0.13614 0.35342 0.0
H344 H 0.81184 0.11158 0.59048 0.0
H345 H 0.78481 0.23578 0.53632 0.0
H346 H 0.80974 0.27582 0.59102 0.0
H347 H 0.84161 0.27544 0.65291 0.0
H348 H 0.86657 0.15147 0.70861 0.0
H349 H 0.84049 0.11136 0.65442 0.0
C350 C 0.81164 0.14739 0.59075 0.0
C351 C 0.79671 0.17077 0.5595 0.0
C352 C 0.82569 0.17016 0.62243 0.0
C353 C 0.79586 0.21715 0.56022 0.0
C354 C 0.81024 0.24001 0.5914 0.0
C355 C 0.84068 0.23971 0.65369 0.0
C356 C 0.85639 0.21671 0.68495 0.0
C357 C 0.82533 0.21685 0.62259 0.0
C358 C 0.85542 0.17021 0.68484 0.0
C359 C 0.84034 0.14717 0.65386 0.0
H360 H 0.77349 0.85168 0.90962 0.0
H361 H 0.89893 0.89525 0.95268 0.0
H362 H 0.93558 0.86914 0.89712 0.0
H363 H 0.93193 0.83459 0.83606 0.0
H364 H 0.80682 0.79038 0.79302 0.0
H365 H 0.77015 0.81522 0.84918 0.0
C366 C 0.8089 0.85492 0.90707 0.0
C367 C 0.83333 0.87565 0.93519 0.0
C368 C 0.82981 0.83971 0.87507 0.0
C369 C 0.87919 0.88011 0.93121 0.0
C370 C 0.90024 0.865 0.89952 0.0
C371 C 0.8966 0.83075 0.83887 0.0
C372 C 0.87209 0.81092 0.8104 0.0
C373 C 0.87581 0.84512 0.87115 0.0
C374 C 0.82644 0.80527 0.81471 0.0
C375 C 0.80545 0.81962 0.84672 0.0
H376 H 0.24286 0.82165 0.07086 0.0
H377 H 0.1939 0.95358 0.09007 0.0
H378 H 0.16268 0.93001 0.1487 0.0
H379 H 0.15003 0.8722 0.19478 0.0
H380 H 0.199 0.7403 0.17579 0.0
H381 H 0.23072 0.76394 0.11727 0.0
C382 C 0.22575 0.84534 0.08802 0.0
C383 C 0.22062 0.88923 0.07597 0.0
C384 C 0.2082 0.83167 0.12186 0.0
C385 C 0.19773 0.9194 0.09833 0.0
C386 C 0.18013 0.90604 0.13202 0.0
C387 C 0.16731 0.84855 0.17772 0.0
C388 C 0.17208 0.80458 0.18964 0.0
C389 C 0.18511 0.86226 0.14401 0.0
C390 C 0.19533 0.77449 0.1675 0.0
C391 C 0.21321 0.7879 0.13391 0.0
H392 H 0.04866 0.26815 0.06236 0.0
H393 H 0.92916 0.19076 0.05845 0.0
H394 H 0.93436 0.18665 0.99154 0.0
H395 H 0.97291 0.20473 0.93413 0.0
H396 H 0.09362 0.27937 0.93827 0.0
H397 H 0.08892 0.28306 0.00566 0.0
C398 C 0.02393 0.24978 0.04724 0.0
C399 C 0.98854 0.2298 0.06594 0.0
C400 C 0.02764 0.24661 0.0088 0.0
C401 C 0.95647 0.20707 0.04517 0.0
C402 C 0.95959 0.20434 0.00679 0.0
C403 C 0.9981 0.22189 0.94984 0.0
C404 C 0.03337 0.24212 0.93138 0.0
C405 C 0.99501 0.22401 0.98837 0.0
C406 C 0.06636 0.26338 0.95198 0.0
C407 C 0.06344 0.26578 0.9904 0.0
H408 H 0.82156 0.9729 0.18375 0.0
H409 H 0.81201 0.11461 0.19282 0.0
H410 H 0.81351 0.1087 0.26027 0.0
H411 H 0.81468 0.06297 0.31617 0.0
H412 H 0.82331 0.92123 0.30734 0.0
H413 H 0.82535 0.92724 0.23982 0.0
C414 C 0.81922 1.00242 0.20051 0.0
C415 C 0.81578 0.04414 0.18348 0.0
C416 C 0.81999 0.99868 0.23906 0.0
C417 C 0.81448 0.08223 0.20545 0.0
C418 C 0.81519 0.07882 0.2439 0.0
C419 C 0.81645 0.03338 0.29944 0.0
C420 C 0.81786 0.99161 0.31648 0.0
C421 C 0.81737 0.03719 0.26093 0.0
C422 C 0.82195 0.95363 0.29463 0.0
C423 C 0.82293 0.95709 0.25617 0.0
H424 H 1.00797 0.76609 0.56265 0.0
H425 H 0.08796 0.88351 0.55825 0.0
H426 H 0.07472 0.88909 0.49154 0.0
H427 H 0.03761 0.86153 0.43468 0.0
H428 H 0.95767 0.74467 0.44033 0.0
H429 H 0.97224 0.73845 0.5069 0.0
C430 C 0.0222 0.7932 0.54725 0.0
C431 C 0.04835 0.8247 0.56555 0.0
C432 C 1.01368 0.79664 0.50934 0.0
C433 C 0.06781 0.85875 0.54486 0.0
C434 C 0.05988 0.86219 0.5068 0.0
C435 C 0.023 0.8353 0.45092 0.0
C436 C 0.99572 0.80413 0.43349 0.0
C437 C 0.03228 0.83169 0.48888 0.0
C438 C 0.97791 0.76928 0.45387 0.0
C439 C 0.98654 0.76565 0.49162 0.0
H440 H 0.17167 1.00039 0.69123 0.0
H441 H 0.30499 0.95207 0.68716 0.0
H442 H 0.3152 0.9689 0.753 0.0
H443 H 0.28694 1.00157 0.81035 0.0
H444 H 0.15396 0.05237 0.81303 0.0
H445 H 0.1429 0.03146 0.74875 0.0
C446 C 0.20242 0.99247 0.70523 0.0
C447 C 0.23727 0.97405 0.68516 0.0
C448 C 0.20833 1.0038 0.74235 0.0
C449 C 0.27769 0.96543 0.70272 0.0
C450 C 0.28353 0.97546 0.74004 0.0
C451 C 0.25553 1.00782 0.79683 0.0
C452 C 0.22157 0.02886 0.81632 0.0
C453 C 0.24929 0.99537 0.75993 0.0
C454 C 0.18104 0.03714 0.79847 0.0
C455 C 0.17446 0.02467 0.76184 0.0
H456 H 0.18165 0.20162 0.12102 0.0
H457 H 0.07898 0.1074 0.14372 0.0
H458 H 0.10772 0.0589 0.09491 0.0
H459 H 0.16082 0.04561 0.04315 0.0
H460 H 0.25998 0.14451 0.02142 0.0
H461 H 0.23336 0.18871 0.07207 0.0
C462 C 0.16543 0.17038 0.11562 0.0
C463 C 0.12811 0.15832 0.13606 0.0
C464 C 0.18132 0.14357 0.08719 0.0
C465 C 0.10794 0.11748 0.12858 0.0
C466 C 0.12421 0.08991 0.10046 0.0
C467 C 0.17647 0.07683 0.04956 0.0
C468 C 0.21226 0.09164 0.02803 0.0
C469 C 0.16062 0.10295 0.0791 0.0
C470 C 0.23223 0.13216 0.03698 0.0
C471 C 0.21715 0.15762 0.06619 0.0
H472 H 0.94279 0.24368 0.31757 0.0
H473 H 0.97983 0.12569 0.25905 0.0
H474 H 0.94436 0.08009 0.30658 0.0
H475 H 0.89571 0.07493 0.36164 0.0
H476 H 0.8594 0.19406 0.41886 0.0
H477 H 0.90267 0.23814 0.37574 0.0
C478 C 0.94344 0.20793 0.31542 0.0
C479 C 0.96318 0.18801 0.28465 0.0
C480 C 0.92354 0.18221 0.34293 0.0
C481 C 0.9646 0.1417 0.28247 0.0
C482 C 0.9443 0.1157 0.30962 0.0
C483 C 0.89889 0.11034 0.36537 0.0
C484 C 0.87534 0.13135 0.39377 0.0
C485 C 0.92291 0.13565 0.33967 0.0
C486 C 0.87812 0.17732 0.39766 0.0
C487 C 0.90237 0.20252 0.37274 0.0
H488 H 0.8805 0.99353 0.53997 0.0
H489 H 0.76401 0.9119 0.5355 0.0
H490 H 0.78952 0.87014 0.58866 0.0
H491 H 0.84706 0.85161 0.63267 0.0
H492 H 0.96604 0.92868 0.63781 0.0
H493 H 0.9372 0.97784 0.58904 0.0
C494 C 0.86065 0.9669 0.55097 0.0
C495 C 0.82073 0.95543 0.53324 0.0
C496 C 0.87592 0.94213 0.58174 0.0
C497 C 0.79525 0.92096 0.54797 0.0
C498 C 0.80967 0.89706 0.57858 0.0
C499 C 0.86649 0.8796 0.62356 0.0
C500 C 0.90862 0.88639 0.63869 0.0
C501 C 0.8503 0.90662 0.59508 0.0
C502 C 0.93327 0.92297 0.6268 0.0
C503 C 0.91695 0.95076 0.59862 0.0
H504 H 0.10036 0.79345 0.81485 0.0
H505 H 0.05026 0.9132 0.76549 0.0
H506 H 0.08416 0.95685 0.81529 0.0
H507 H 0.13502 0.96078 0.86986 0.0
H508 H 0.18359 0.83949 0.91792 0.0
H509 H 0.14249 0.7966 0.87248 0.0
C510 C 0.09649 0.8291 0.8152 0.0
C511 C 0.07346 0.85015 0.7863 0.0
C512 C 0.11552 0.85366 0.84402 0.0
C513 C 0.06801 0.89627 0.78741 0.0
C514 C 0.08745 0.92119 0.81587 0.0
C515 C 0.13512 0.92498 0.8711 0.0
C516 C 0.16184 0.90321 0.8975 0.0
C517 C 0.11205 0.9003 0.84405 0.0
C518 C 0.16285 0.85684 0.89813 0.0
C519 C 0.13972 0.83231 0.87192 0.0
H520 H 0.14086 0.81997 0.41585 0.0
H521 H 0.11248 0.92669 0.34023 0.0
H522 H 0.1429 0.97985 0.38496 0.0
H523 H 0.18181 0.9948 0.44504 0.0
H524 H 0.20925 0.88498 0.5181 0.0
H525 H 0.17452 0.83445 0.47506 0.0
C526 C 0.14139 0.85483 0.40885 0.0
C527 C 0.12522 0.8692 0.3744 0.0
C528 C 0.15875 0.88474 0.43444 0.0
C529 C 0.12518 0.91469 0.36642 0.0
C530 C 0.14257 0.94504 0.39202 0.0
C531 C 0.1797 0.95988 0.45151 0.0
C532 C 0.19869 0.9436 0.48453 0.0
C533 C 0.16004 0.93036 0.42605 0.0
C534 C 0.19567 0.89829 0.49264 0.0
C535 C 0.17574 0.86927 0.46806 0.0
H536 H 0.17411 0.10523 0.67456 0.0
H537 H 0.10527 0.11582 0.5703 0.0
H538 H 0.04431 0.15438 0.60074 0.0
H539 H 1.01347 0.18975 0.65616 0.0
H540 H 0.08196 0.17759 0.76057 0.0
H541 H 0.14018 0.1346 0.73088 0.0
C542 C 0.14563 0.11578 0.6585 0.0
C543 C 0.14442 0.10831 0.6201 0.0
C544 C 0.11087 0.13781 0.67619 0.0
C545 C 0.10697 0.12129 0.59982 0.0
C546 C 0.07228 0.14352 0.61721 0.0
C547 C 0.04107 0.17759 0.67248 0.0
C548 C 0.04368 0.1875 0.71048 0.0
C549 C 0.07433 0.15277 0.65523 0.0
C550 C 0.07923 0.17071 0.73131 0.0
C551 C 0.11259 0.14623 0.71431 0.0
H552 H 0.94463 0.14088 0.87509 0.0
H553 H 0.819 0.19511 0.84129 0.0
H554 H 0.78193 0.1522 0.88877 0.0
H555 H 0.78564 0.10572 0.94363 0.0
H556 H 0.90971 0.05007 0.97921 0.0
H557 H 0.94708 0.08693 0.92751 0.0
C558 C 0.90904 0.14214 0.87752 0.0
C559 C 0.88447 0.17099 0.85462 0.0
C560 C 0.88783 0.11791 0.90569 0.0
C561 C 0.83851 0.17309 0.85853 0.0
C562 C 0.81731 0.14879 0.88583 0.0
C563 C 0.82087 0.10144 0.93998 0.0
C564 C 0.84505 0.0759 0.96548 0.0
C565 C 0.84175 0.12226 0.91025 0.0
C566 C 0.89047 0.06982 0.95998 0.0
C567 C 0.91178 0.09093 0.93046 0.0
H568 H 0.93102 0.79008 0.19766 0.0
H569 H 1.0043 0.9049 0.23139 0.0
H570 H 0.97056 0.94798 0.18083 0.0
H571 H 0.91448 0.95402 0.12993 0.0
H572 H 0.84336 0.83709 0.09742 0.0
H573 H 0.88252 0.79372 0.14389 0.0
C574 C 0.93982 0.8245 0.19385 0.0
C575 C 0.9695 0.84448 0.21855 0.0
C576 C 0.92081 0.84863 0.16465 0.0
C577 C 0.9813 0.88884 0.2128 0.0
C578 C 0.96196 0.91345 0.18392 0.0
C579 C 0.90872 0.9188 0.13238 0.0
C580 C 0.87616 0.8987 0.11016 0.0
C581 C 0.93103 0.89388 0.15992 0.0
C582 C 0.86829 0.85323 0.11413 0.0
C583 C 0.89045 0.82843 0.14089 0.0
loop_
_geom_bond_atom_site_label_1
_geom_bond_atom_site_label_2
_geom_bond_distance
_geom_bond_site_symmetry_2
_ccdc_geom_bond_type
C0 C1 1.351 . S
C0 N3 1.368 . S
C0 H5 0.931 . S
C1 C0 1.351 . S
C1 N2 1.373 . S
C1 H29 0.930 . S
N2 C1 1.373 . S
N2 C4 1.340 . S
N3 C0 1.368 . S
N3 C4 1.321 . S
N3 Co6 2.135 . S
C4 N2 1.340 . S
C4 N3 1.321 . S
C4 H28 0.930 . S
H5 C0 0.931 . S
Co6 N3 2.135 . S
Co6 N9 2.121 . S
Co6 O14 2.055 . S
Co6 O17 2.039 . S
Co6 N20 2.140 . S
C7 O8 1.227 . S
C7 O17 1.265 . S
O8 C7 1.227 . S
N9 Co6 2.121 . S
N9 C11 1.375 1_455 S
N9 C12 1.313 . S
C10 C11 1.338 . S
C10 N13 1.377 1_655 S
C10 H30 0.930 . S
C11 N9 1.375 1_655 S
C11 C10 1.338 . S
C11 H15 0.931 . S
C12 N9 1.313 . S
C12 N13 1.344 . S
C12 H16 0.930 . S
N13 C10 1.377 1_455 S
N13 C12 1.344 . S
O14 Co6 2.055 . S
O14 C18 1.253 . S
H15 C11 0.931 . S
H16 C12 0.930 . S
O17 Co6 2.039 . S
O17 C7 1.265 . S
C18 O14 1.253 . S
C18 O19 1.227 . S
O19 C18 1.227 . S
N20 Co6 2.140 . S
N20 C23 1.346 . S
N20 C24 1.345 . S
C21 C22 1.387 . S
C21 C25 1.391 . S
C22 C21 1.387 . S
C22 C23 1.369 . S
C22 H31 0.929 . S
C23 N20 1.346 . S
C23 C22 1.369 . S
C23 H26 0.928 . S
C24 N20 1.345 . S
C24 C25 1.371 . S
C24 H27 0.931 . S
C25 C21 1.391 . S
C25 C24 1.371 . S
C25 H32 0.930 . S
H26 C23 0.928 . S
H27 C24 0.931 . S
H28 C4 0.930 . S
H29 C1 0.930 . S
H30 C10 0.930 . S
H31 C22 0.929 . S
H32 C25 0.930 . S
C33 C34 1.351 . S
C33 N36 1.368 . S
C33 H38 0.931 . S
C34 C33 1.351 . S
C34 N35 1.373 . S
C34 H62 0.930 . S
N35 C34 1.373 . S
N35 C37 1.340 . S
N36 C33 1.368 . S
N36 C37 1.321 . S
N36 Co39 2.135 . S
C37 N35 1.340 . S
C37 N36 1.321 . S
C37 H61 0.930 . S
H38 C33 0.931 . S
Co39 N36 2.135 . S
Co39 N42 2.121 . S
Co39 O47 2.055 . S
Co39 O50 2.039 . S
Co39 N53 2.140 . S
C40 O41 1.227 . S
C40 O50 1.265 . S
O41 C40 1.227 . S
N42 Co39 2.121 . S
N42 C44 1.375 1_545 S
N42 C45 1.313 . S
C43 C44 1.338 . S
C43 N46 1.377 1_565 S
C43 H63 0.930 . S
C44 N42 1.375 1_565 S
C44 C43 1.338 . S
C44 H48 0.931 . S
C45 N42 1.313 . S
C45 N46 1.344 . S
C45 H49 0.930 . S
N46 C43 1.377 1_545 S
N46 C45 1.344 . S
O47 Co39 2.055 . S
O47 C51 1.253 . S
H48 C44 0.931 . S
H49 C45 0.930 . S
O50 Co39 2.039 . S
O50 C40 1.265 . S
C51 O47 1.253 . S
C51 O52 1.227 . S
O52 C51 1.227 . S
N53 Co39 2.140 . S
N53 C56 1.346 . S
N53 C57 1.345 . S
C54 C55 1.387 . S
C54 C58 1.391 . S
C55 C54 1.387 . S
C55 C56 1.369 . S
C55 H64 0.929 . S
C56 N53 1.346 . S
C56 C55 1.369 . S
C56 H59 0.928 . S
C57 N53 1.345 . S
C57 C58 1.371 . S
C57 H60 0.931 . S
C58 C54 1.391 . S
C58 C57 1.371 . S
C58 H65 0.930 . S
H59 C56 0.928 . S
H60 C57 0.931 . S
H61 C37 0.930 . S
H62 C34 0.930 . S
H63 C43 0.930 . S
H64 C55 0.929 . S
H65 C58 0.930 . S
C66 C67 1.351 . S
C66 N69 1.368 . S
C66 H71 0.931 . S
C67 C66 1.351 . S
C67 N68 1.373 . S
C67 H95 0.930 . S
N68 C67 1.373 . S
N68 C70 1.340 . S
N69 C66 1.368 . S
N69 C70 1.321 . S
N69 Co72 2.135 . S
C70 N68 1.340 . S
C70 N69 1.321 . S
C70 H94 0.930 . S
H71 C66 0.931 . S
Co72 N69 2.135 . S
Co72 N75 2.121 . S
Co72 O80 2.055 . S
Co72 O83 2.039 . S
Co72 N86 2.140 . S
C73 O74 1.227 . S
C73 O83 1.265 . S
O74 C73 1.227 . S
N75 Co72 2.121 . S
N75 C77 1.375 1_655 S
N75 C78 1.313 . S
C76 C77 1.338 . S
C76 N79 1.377 1_455 S
C76 H96 0.930 . S
C77 N75 1.375 1_455 S
C77 C76 1.338 . S
C77 H81 0.931 . S
C78 N75 1.313 . S
C78 N79 1.344 . S
C78 H82 0.930 . S
N79 C76 1.377 1_655 S
N79 C78 1.344 . S
O80 Co72 2.055 . S
O80 C84 1.253 . S
H81 C77 0.931 . S
H82 C78 0.930 . S
O83 Co72 2.039 . S
O83 C73 1.265 . S
C84 O80 1.253 . S
C84 O85 1.227 . S
O85 C84 1.227 . S
N86 Co72 2.140 . S
N86 C89 1.346 . S
N86 C90 1.345 . S
C87 C88 1.387 . S
C87 C91 1.391 . S
C88 C87 1.387 . S
C88 C89 1.369 . S
C88 H97 0.929 . S
C89 N86 1.346 . S
C89 C88 1.369 . S
C89 H92 0.928 . S
C90 N86 1.345 . S
C90 C91 1.371 . S
C90 H93 0.931 . S
C91 C87 1.391 . S
C91 C90 1.371 . S
C91 H98 0.930 . S
H92 C89 0.928 . S
H93 C90 0.931 . S
H94 C70 0.930 . S
H95 C67 0.930 . S
H96 C76 0.930 . S
H97 C88 0.929 . S
H98 C91 0.930 . S
C99 C100 1.351 1_556 S
C99 N102 1.368 . S
C99 H104 0.931 . S
C100 C99 1.351 1_554 S
C100 N101 1.373 . S
C100 H128 0.930 . S
N101 C100 1.373 . S
N101 C103 1.340 . S
N102 C99 1.368 . S
N102 C103 1.321 1_556 S
N102 Co105 2.135 . S
C103 N101 1.340 . S
C103 N102 1.321 1_554 S
C103 H127 0.930 . S
H104 C99 0.931 . S
Co105 N102 2.135 . S
Co105 N108 2.121 . S
Co105 O113 2.055 . S
Co105 O116 2.039 . S
Co105 N119 2.140 . S
C106 O107 1.227 1_556 S
C106 O116 1.265 . S
O107 C106 1.227 1_554 S
N108 Co105 2.121 . S
N108 C110 1.375 1_565 S
N108 C111 1.313 . S
C109 C110 1.338 . S
C109 N112 1.377 1_545 S
C109 H129 0.930 . S
C110 N108 1.375 1_545 S
C110 C109 1.338 . S
C110 H114 0.931 . S
C111 N108 1.313 . S
C111 N112 1.344 . S
C111 H115 0.930 . S
N112 C109 1.377 1_565 S
N112 C111 1.344 . S
O113 Co105 2.055 . S
O113 C117 1.253 . S
H114 C110 0.931 . S
H115 C111 0.930 . S
O116 Co105 2.039 . S
O116 C106 1.265 . S
C117 O113 1.253 . S
C117 O118 1.227 . S
O118 C117 1.227 . S
N119 Co105 2.140 . S
N119 C122 1.346 . S
N119 C123 1.345 . S
C120 C121 1.387 . S
C120 C124 1.391 . S
C121 C120 1.387 . S
C121 C122 1.369 . S
C121 H130 0.929 1_556 S
C122 N119 1.346 . S
C122 C121 1.369 . S
C122 H125 0.928 1_556 S
C123 N119 1.345 . S
C123 C124 1.371 . S
C123 H126 0.931 . S
C124 C120 1.391 . S
C124 C123 1.371 . S
C124 H131 0.930 . S
H125 C122 0.928 1_554 S
H126 C123 0.931 . S
H127 C103 0.930 . S
H128 C100 0.930 . S
H129 C109 0.930 . S
H130 C121 0.929 1_554 S
H131 C124 0.930 . S
C132 C133 1.351 . S
C132 N135 1.368 . S
C132 H137 0.931 . S
C133 C132 1.351 . S
C133 N134 1.373 . S
C133 H161 0.930 . S
N134 C133 1.373 . S
N134 C136 1.340 . S
N135 C132 1.368 . S
N135 C136 1.321 . S
N135 Co138 2.135 . S
C136 N134 1.340 . S
C136 N135 1.321 . S
C136 H160 0.930 . S
H137 C132 0.931 . S
Co138 N135 2.135 . S
Co138 N141 2.121 . S
Co138 O146 2.055 . S
Co138 O149 2.039 . S
Co138 N152 2.140 . S
C139 O140 1.227 . S
C139 O149 1.265 . S
O140 C139 1.227 . S
N141 Co138 2.121 . S
N141 C143 1.375 1_455 S
N141 C144 1.313 . S
C142 C143 1.338 . S
C142 N145 1.377 1_655 S
C142 H162 0.930 . S
C143 N141 1.375 1_655 S
C143 C142 1.338 . S
C143 H147 0.931 . S
C144 N141 1.313 . S
C144 N145 1.344 . S
C144 H148 0.930 . S
N145 C142 1.377 1_455 S
N145 C144 1.344 . S
O146 Co138 2.055 . S
O146 C150 1.253 . S
H147 C143 0.931 . S
H148 C144 0.930 . S
O149 Co138 2.039 . S
O149 C139 1.265 . S
C150 O146 1.253 . S
C150 O151 1.227 . S
O151 C150 1.227 . S
N152 Co138 2.140 . S
N152 C155 1.346 . S
N152 C156 1.345 . S
C153 C154 1.387 . S
C153 C157 1.391 . S
C154 C153 1.387 . S
C154 C155 1.369 . S
C154 H163 0.929 . S
C155 N152 1.346 . S
C155 C154 1.369 . S
C155 H158 0.928 . S
C156 N152 1.345 . S
C156 C157 1.371 . S
C156 H159 0.931 . S
C157 C153 1.391 . S
C157 C156 1.371 . S
C157 H164 0.930 . S
H158 C155 0.928 . S
H159 C156 0.931 . S
H160 C136 0.930 . S
H161 C133 0.930 . S
H162 C142 0.930 . S
H163 C154 0.929 . S
H164 C157 0.930 . S
C165 C166 1.351 . S
C165 N168 1.368 . S
C165 H170 0.931 . S
C166 C165 1.351 . S
C166 N167 1.373 . S
C166 H194 0.930 . S
N167 C166 1.373 . S
N167 C169 1.340 . S
N168 C165 1.368 . S
N168 C169 1.321 . S
N168 Co171 2.135 . S
C169 N167 1.340 . S
C169 N168 1.321 . S
C169 H193 0.930 . S
H170 C165 0.931 . S
Co171 N168 2.135 . S
Co171 N174 2.121 . S
Co171 O179 2.055 . S
Co171 O182 2.039 . S
Co171 N185 2.140 . S
C172 O173 1.227 . S
C172 O182 1.265 . S
O173 C172 1.227 . S
N174 Co171 2.121 . S
N174 C176 1.375 1_545 S
N174 C177 1.313 . S
C175 C176 1.338 . S
C175 N178 1.377 1_565 S
C175 H195 0.930 . S
C176 N174 1.375 1_565 S
C176 C175 1.338 . S
C176 H180 0.931 . S
C177 N174 1.313 . S
C177 N178 1.344 . S
C177 H181 0.930 . S
N178 C175 1.377 1_545 S
N178 C177 1.344 . S
O179 Co171 2.055 . S
O179 C183 1.253 . S
H180 C176 0.931 . S
H181 C177 0.930 . S
O182 Co171 2.039 . S
O182 C172 1.265 . S
C183 O179 1.253 . S
C183 O184 1.227 . S
O184 C183 1.227 . S
N185 Co171 2.140 . S
N185 C188 1.346 . S
N185 C189 1.345 . S
C186 C187 1.387 . S
C186 C190 1.391 . S
C187 C186 1.387 . S
C187 C188 1.369 . S
C187 H196 0.929 . S
C188 N185 1.346 . S
C188 C187 1.369 . S
C188 H191 0.928 . S
C189 N185 1.345 . S
C189 C190 1.371 . S
C189 H192 0.931 . S
C190 C186 1.391 . S
C190 C189 1.371 . S
C190 H197 0.930 . S
H191 C188 0.928 . S
H192 C189 0.931 . S
H193 C169 0.930 . S
H194 C166 0.930 . S
H195 C175 0.930 . S
H196 C187 0.929 . S
H197 C190 0.930 . S
C198 C199 1.351 . S
C198 N201 1.368 . S
C198 H203 0.931 . S
C199 C198 1.351 . S
C199 N200 1.373 . S
C199 H227 0.930 . S
N200 C199 1.373 . S
N200 C202 1.340 . S
N201 C198 1.368 . S
N201 C202 1.321 . S
N201 Co204 2.135 . S
C202 N200 1.340 . S
C202 N201 1.321 . S
C202 H226 0.930 . S
H203 C198 0.931 . S
Co204 N201 2.135 . S
Co204 N207 2.121 . S
Co204 O212 2.055 . S
Co204 O215 2.039 . S
Co204 N218 2.140 . S
C205 O206 1.227 . S
C205 O215 1.265 . S
O206 C205 1.227 . S
N207 Co204 2.121 . S
N207 C209 1.375 1_655 S
N207 C210 1.313 . S
C208 C209 1.338 . S
C208 N211 1.377 1_455 S
C208 H228 0.930 . S
C209 N207 1.375 1_455 S
C209 C208 1.338 . S
C209 H213 0.931 . S
C210 N207 1.313 . S
C210 N211 1.344 . S
C210 H214 0.930 . S
N211 C208 1.377 1_655 S
N211 C210 1.344 . S
O212 Co204 2.055 . S
O212 C216 1.253 . S
H213 C209 0.931 . S
H214 C210 0.930 . S
O215 Co204 2.039 . S
O215 C205 1.265 . S
C216 O212 1.253 . S
C216 O217 1.227 . S
O217 C216 1.227 . S
N218 Co204 2.140 . S
N218 C221 1.346 . S
N218 C222 1.345 . S
C219 C220 1.387 . S
C219 C223 1.391 . S
C220 C219 1.387 . S
C220 C221 1.369 . S
C220 H229 0.929 . S
C221 N218 1.346 . S
C221 C220 1.369 . S
C221 H224 0.928 . S
C222 N218 1.345 . S
C222 C223 1.371 . S
C222 H225 0.931 . S
C223 C219 1.391 . S
C223 C222 1.371 . S
C223 H230 0.930 . S
H224 C221 0.928 . S
H225 C222 0.931 . S
H226 C202 0.930 . S
H227 C199 0.930 . S
H228 C208 0.930 . S
H229 C220 0.929 . S
H230 C223 0.930 . S
C231 C232 1.351 1_554 S
C231 N234 1.368 . S
C231 H236 0.931 . S
C232 C231 1.351 1_556 S
C232 N233 1.373 . S
C232 H260 0.930 . S
N233 C232 1.373 . S
N233 C235 1.340 . S
N234 C231 1.368 . S
N234 C235 1.321 1_554 S
N234 Co237 2.135 . S
C235 N233 1.340 . S
C235 N234 1.321 1_556 S
C235 H259 0.930 . S
H236 C231 0.931 . S
Co237 N234 2.135 . S
Co237 N240 2.121 . S
Co237 O245 2.055 . S
Co237 O248 2.039 . S
Co237 N251 2.140 . S
C238 O239 1.227 1_554 S
C238 O248 1.265 . S
O239 C238 1.227 1_556 S
N240 Co237 2.121 . S
N240 C242 1.375 1_565 S
N240 C243 1.313 . S
C241 C242 1.338 . S
C241 N244 1.377 1_545 S
C241 H261 0.930 . S
C242 N240 1.375 1_545 S
C242 C241 1.338 . S
C242 H246 0.931 . S
C243 N240 1.313 . S
C243 N244 1.344 . S
C243 H247 0.930 . S
N244 C241 1.377 1_565 S
N244 C243 1.344 . S
O245 Co237 2.055 . S
O245 C249 1.253 . S
H246 C242 0.931 . S
H247 C243 0.930 . S
O248 Co237 2.039 . S
O248 C238 1.265 . S
C249 O245 1.253 . S
C249 O250 1.227 . S
O250 C249 1.227 . S
N251 Co237 2.140 . S
N251 C254 1.346 . S
N251 C255 1.345 . S
C252 C253 1.387 . S
C252 C256 1.391 . S
C253 C252 1.387 . S
C253 C254 1.369 . S
C253 H262 0.929 1_554 S
C254 N251 1.346 . S
C254 C253 1.369 . S
C254 H257 0.928 1_554 S
C255 N251 1.345 . S
C255 C256 1.371 . S
C255 H258 0.931 . S
C256 C252 1.391 . S
C256 C255 1.371 . S
C256 H263 0.930 . S
H257 C254 0.928 1_556 S
H258 C255 0.931 . S
H259 C235 0.930 . S
H260 C232 0.930 . S
H261 C241 0.930 . S
H262 C253 0.929 1_556 S
H263 C256 0.930 . S
H264 C270 0.930 . S
H265 C273 0.930 . S
H266 C274 0.930 . S
H267 C275 0.930 . S
H268 C278 0.930 . S
H269 C279 0.930 . S
C270 H264 0.930 . S
C270 C271 1.355 . S
C270 C272 1.415 . S
C271 C270 1.355 . S
C271 C273 1.419 . S
C272 C270 1.415 . S
C272 C277 1.425 . S
C272 C279 1.409 . S
C273 H265 0.930 . S
C273 C271 1.419 . S
C273 C274 1.362 . S
C274 H266 0.930 . S
C274 C273 1.362 . S
C274 C277 1.409 . S
C275 H267 0.930 . S
C275 C276 1.355 . S
C275 C277 1.415 . S
C276 C275 1.355 . S
C276 C278 1.419 . S
C277 C272 1.425 . S
C277 C274 1.409 . S
C277 C275 1.415 . S
C278 H268 0.930 . S
C278 C276 1.419 . S
C278 C279 1.362 . S
C279 H269 0.930 . S
C279 C272 1.409 . S
C279 C278 1.362 . S
H280 C286 0.930 . S
H281 C289 0.930 . S
H282 C290 0.930 . S
H283 C291 0.930 . S
H284 C294 0.930 . S
H285 C295 0.930 . S
C286 H280 0.930 . S
C286 C287 1.355 . S
C286 C288 1.415 . S
C287 C286 1.355 . S
C287 C289 1.419 . S
C288 C286 1.415 . S
C288 C293 1.425 . S
C288 C295 1.409 . S
C289 H281 0.930 . S
C289 C287 1.419 . S
C289 C290 1.362 . S
C290 H282 0.930 . S
C290 C289 1.362 . S
C290 C293 1.409 . S
C291 H283 0.930 . S
C291 C292 1.355 . S
C291 C293 1.415 . S
C292 C291 1.355 . S
C292 C294 1.419 . S
C293 C288 1.425 . S
C293 C290 1.409 . S
C293 C291 1.415 . S
C294 H284 0.930 . S
C294 C292 1.419 . S
C294 C295 1.362 . S
C295 H285 0.930 . S
C295 C288 1.409 . S
C295 C294 1.362 . S
H296 C302 0.930 . S
H297 C305 0.930 . S
H298 C306 0.930 . S
H299 C307 0.930 . S
H300 C310 0.930 . S
H301 C311 0.930 . S
C302 H296 0.930 . S
C302 C303 1.355 . S
C302 C304 1.415 . S
C303 C302 1.355 . S
C303 C305 1.419 . S
C304 C302 1.415 . S
C304 C309 1.425 . S
C304 C311 1.409 . S
C305 H297 0.930 . S
C305 C303 1.419 . S
C305 C306 1.362 . S
C306 H298 0.930 . S
C306 C305 1.362 . S
C306 C309 1.409 . S
C307 H299 0.930 . S
C307 C308 1.355 . S
C307 C309 1.415 . S
C308 C307 1.355 . S
C308 C310 1.419 . S
C309 C304 1.425 . S
C309 C306 1.409 . S
C309 C307 1.415 . S
C310 H300 0.930 . S
C310 C308 1.419 . S
C310 C311 1.362 . S
C311 H301 0.930 . S
C311 C304 1.409 . S
C311 C310 1.362 . S
H312 C318 0.930 . S
H313 C321 0.933 . S
H314 C322 0.930 . S
H315 C323 0.930 . S
H316 C326 0.933 . S
H317 C327 0.930 . S
C318 H312 0.930 . S
C318 C319 1.355 . S
C318 C320 1.415 . S
C319 C318 1.355 . S
C319 C321 1.408 1_556 S
C320 C318 1.415 . S
C320 C325 1.425 1_556 S
C320 C327 1.409 . S
C321 H313 0.933 . S
C321 C319 1.408 1_554 S
C321 C322 1.371 . S
C322 H314 0.930 . S
C322 C321 1.371 . S
C322 C325 1.409 . S
C323 H315 0.930 . S
C323 C324 1.355 . S
C323 C325 1.415 . S
C324 C323 1.355 . S
C324 C326 1.408 1_554 S
C325 C320 1.425 1_554 S
C325 C322 1.409 . S
C325 C323 1.415 . S
C326 H316 0.933 . S
C326 C324 1.408 1_556 S
C326 C327 1.371 . S
C327 H317 0.930 . S
C327 C320 1.409 . S
C327 C326 1.371 . S
H328 C334 0.930 . S
H329 C337 0.930 . S
H330 C338 0.930 . S
H331 C339 0.930 . S
H332 C342 0.930 . S
H333 C343 0.930 . S
C334 H328 0.930 . S
C334 C335 1.355 . S
C334 C336 1.415 . S
C335 C334 1.355 . S
C335 C337 1.419 . S
C336 C334 1.415 . S
C336 C341 1.425 . S
C336 C343 1.409 . S
C337 H329 0.930 . S
C337 C335 1.419 . S
C337 C338 1.362 . S
C338 H330 0.930 . S
C338 C337 1.362 . S
C338 C341 1.409 . S
C339 H331 0.930 . S
C339 C340 1.355 . S
C339 C341 1.415 . S
C340 C339 1.355 . S
C340 C342 1.419 . S
C341 C336 1.425 . S
C341 C338 1.409 . S
C341 C339 1.415 . S
C342 H332 0.930 . S
C342 C340 1.419 . S
C342 C343 1.362 . S
C343 H333 0.930 . S
C343 C336 1.409 . S
C343 C342 1.362 . S
H344 C350 0.930 . S
H345 C353 0.930 . S
H346 C354 0.930 . S
H347 C355 0.930 . S
H348 C358 0.930 . S
H349 C359 0.930 . S
C350 H344 0.930 . S
C350 C351 1.355 . S
C350 C352 1.415 . S
C351 C350 1.355 . S
C351 C353 1.419 . S
C352 C350 1.415 . S
C352 C357 1.425 . S
C352 C359 1.409 . S
C353 H345 0.930 . S
C353 C351 1.419 . S
C353 C354 1.362 . S
C354 H346 0.930 . S
C354 C353 1.362 . S
C354 C357 1.409 . S
C355 H347 0.930 . S
C355 C356 1.355 . S
C355 C357 1.415 . S
C356 C355 1.355 . S
C356 C358 1.419 . S
C357 C352 1.425 . S
C357 C354 1.409 . S
C357 C355 1.415 . S
C358 H348 0.930 . S
C358 C356 1.419 . S
C358 C359 1.362 . S
C359 H349 0.930 . S
C359 C352 1.409 . S
C359 C358 1.362 . S
H360 C366 0.930 . S
H361 C369 0.930 . S
H362 C370 0.930 . S
H363 C371 0.930 . S
H364 C374 0.930 . S
H365 C375 0.930 . S
C366 H360 0.930 . S
C366 C367 1.355 . S
C366 C368 1.415 . S
C367 C366 1.355 . S
C367 C369 1.419 . S
C368 C366 1.415 . S
C368 C373 1.425 . S
C368 C375 1.409 . S
C369 H361 0.930 . S
C369 C367 1.419 . S
C369 C370 1.362 . S
C370 H362 0.930 . S
C370 C369 1.362 . S
C370 C373 1.409 . S
C371 H363 0.930 . S
C371 C372 1.355 . S
C371 C373 1.415 . S
C372 C371 1.355 . S
C372 C374 1.419 . S
C373 C368 1.425 . S
C373 C370 1.409 . S
C373 C371 1.415 . S
C374 H364 0.930 . S
C374 C372 1.419 . S
C374 C375 1.362 . S
C375 H365 0.930 . S
C375 C368 1.409 . S
C375 C374 1.362 . S
H376 C382 0.930 . S
H377 C385 0.930 . S
H378 C386 0.930 . S
H379 C387 0.930 . S
H380 C390 0.930 . S
H381 C391 0.930 . S
C382 H376 0.930 . S
C382 C383 1.355 . S
C382 C384 1.415 . S
C383 C382 1.355 . S
C383 C385 1.419 . S
C384 C382 1.415 . S
C384 C389 1.425 . S
C384 C391 1.409 . S
C385 H377 0.930 . S
C385 C383 1.419 . S
C385 C386 1.362 . S
C386 H378 0.930 . S
C386 C385 1.362 . S
C386 C389 1.409 . S
C387 H379 0.930 . S
C387 C388 1.355 . S
C387 C389 1.415 . S
C388 C387 1.355 . S
C388 C390 1.419 . S
C389 C384 1.425 . S
C389 C386 1.409 . S
C389 C387 1.415 . S
C390 H380 0.930 . S
C390 C388 1.419 . S
C390 C391 1.362 . S
C391 H381 0.930 . S
C391 C384 1.409 . S
C391 C390 1.362 . S
H392 C398 0.930 . S
H393 C401 0.930 . S
H394 C402 0.930 . S
H395 C403 0.930 . S
H396 C406 0.930 . S
H397 C407 0.930 . S
C398 H392 0.930 . S
C398 C399 1.355 1_455 S
C398 C400 1.415 . S
C399 C398 1.355 1_655 S
C399 C401 1.419 . S
C400 C398 1.415 . S
C400 C405 1.425 1_454 S
C400 C407 1.409 1_554 S
C401 H393 0.930 . S
C401 C399 1.419 . S
C401 C402 1.362 . S
C402 H394 0.930 . S
C402 C401 1.362 . S
C402 C405 1.409 1_554 S
C403 H395 0.930 . S
C403 C404 1.355 1_655 S
C403 C405 1.415 . S
C404 C403 1.355 1_455 S
C404 C406 1.419 . S
C405 C400 1.425 1_656 S
C405 C402 1.409 1_556 S
C405 C403 1.415 . S
C406 H396 0.930 . S
C406 C404 1.419 . S
C406 C407 1.362 . S
C407 H397 0.930 . S
C407 C400 1.409 1_556 S
C407 C406 1.362 . S
H408 C414 0.930 . S
H409 C417 0.930 . S
H410 C418 0.930 . S
H411 C419 0.930 . S
H412 C422 0.930 . S
H413 C423 0.930 . S
C414 H408 0.930 . S
C414 C415 1.355 1_565 S
C414 C416 1.415 . S
C415 C414 1.355 1_545 S
C415 C417 1.419 . S
C416 C414 1.415 . S
C416 C421 1.425 1_565 S
C416 C423 1.409 . S
C417 H409 0.930 . S
C417 C415 1.419 . S
C417 C418 1.362 . S
C418 H410 0.930 . S
C418 C417 1.362 . S
C418 C421 1.409 . S
C419 H411 0.930 . S
C419 C420 1.355 1_545 S
C419 C421 1.415 . S
C420 C419 1.355 1_565 S
C420 C422 1.419 . S
C421 C416 1.425 1_545 S
C421 C418 1.409 . S
C421 C419 1.415 . S
C422 H412 0.930 . S
C422 C420 1.419 . S
C422 C423 1.362 . S
C423 H413 0.930 . S
C423 C416 1.409 . S
C423 C422 1.362 . S
H424 C430 0.930 . S
H425 C433 0.930 . S
H426 C434 0.930 . S
H427 C435 0.930 . S
H428 C438 0.930 . S
H429 C439 0.930 . S
C430 H424 0.930 . S
C430 C431 1.355 1_455 S
C430 C432 1.415 . S
C431 C430 1.355 1_655 S
C431 C433 1.419 . S
C432 C430 1.415 . S
C432 C437 1.425 1_455 S
C432 C439 1.409 . S
C433 H425 0.930 . S
C433 C431 1.419 . S
C433 C434 1.362 . S
C434 H426 0.930 . S
C434 C433 1.362 . S
C434 C437 1.409 . S
C435 H427 0.930 . S
C435 C436 1.355 1_655 S
C435 C437 1.415 . S
C436 C435 1.355 1_455 S
C436 C438 1.419 . S
C437 C432 1.425 1_655 S
C437 C434 1.409 . S
C437 C435 1.415 . S
C438 H428 0.930 . S
C438 C436 1.419 . S
C438 C439 1.362 . S
C439 H429 0.930 . S
C439 C432 1.409 . S
C439 C438 1.362 . S
H440 C446 0.930 . S
H441 C449 0.930 . S
H442 C450 0.930 . S
H443 C451 0.930 . S
H444 C454 0.930 . S
H445 C455 0.930 . S
C446 H440 0.930 . S
C446 C447 1.355 1_565 S
C446 C448 1.415 . S
C447 C446 1.355 1_545 S
C447 C449 1.419 . S
C448 C446 1.415 . S
C448 C453 1.425 1_565 S
C448 C455 1.409 . S
C449 H441 0.930 . S
C449 C447 1.419 . S
C449 C450 1.362 . S
C450 H442 0.930 . S
C450 C449 1.362 . S
C450 C453 1.409 . S
C451 H443 0.930 . S
C451 C452 1.355 1_545 S
C451 C453 1.415 . S
C452 C451 1.355 1_565 S
C452 C454 1.419 . S
C453 C448 1.425 1_545 S
C453 C450 1.409 . S
C453 C451 1.415 . S
C454 H444 0.930 . S
C454 C452 1.419 . S
C454 C455 1.362 . S
C455 H445 0.930 . S
C455 C448 1.409 . S
C455 C454 1.362 . S
H456 C462 0.930 . S
H457 C465 0.930 . S
H458 C466 0.930 . S
H459 C467 0.930 1_556 S
H460 C470 0.928 . S
H461 C471 0.930 . S
C462 H456 0.930 . S
C462 C463 1.355 . S
C462 C464 1.415 . S
C463 C462 1.355 . S
C463 C465 1.419 . S
C464 C462 1.415 . S
C464 C469 1.425 . S
C464 C471 1.409 . S
C465 H457 0.930 . S
C465 C463 1.419 . S
C465 C466 1.362 . S
C466 H458 0.930 . S
C466 C465 1.362 . S
C466 C469 1.409 . S
C467 H459 0.930 1_554 S
C467 C468 1.355 . S
C467 C469 1.415 . S
C468 C467 1.355 . S
C468 C470 1.419 . S
C469 C464 1.425 . S
C469 C466 1.409 . S
C469 C467 1.415 . S
C470 H460 0.928 . S
C470 C468 1.419 . S
C470 C471 1.362 . S
C471 H461 0.930 . S
C471 C464 1.409 . S
C471 C470 1.362 . S
H472 C478 0.930 . S
H473 C481 0.930 . S
H474 C482 0.930 . S
H475 C483 0.930 . S
H476 C486 0.930 . S
H477 C487 0.930 . S
C478 H472 0.930 . S
C478 C479 1.355 . S
C478 C480 1.415 . S
C479 C478 1.355 . S
C479 C481 1.419 . S
C480 C478 1.415 . S
C480 C485 1.425 . S
C480 C487 1.409 . S
C481 H473 0.930 . S
C481 C479 1.419 . S
C481 C482 1.362 . S
C482 H474 0.930 . S
C482 C481 1.362 . S
C482 C485 1.409 . S
C483 H475 0.930 . S
C483 C484 1.355 . S
C483 C485 1.415 . S
C484 C483 1.355 . S
C484 C486 1.419 . S
C485 C480 1.425 . S
C485 C482 1.409 . S
C485 C483 1.415 . S
C486 H476 0.930 . S
C486 C484 1.419 . S
C486 C487 1.362 . S
C487 H477 0.930 . S
C487 C480 1.409 . S
C487 C486 1.362 . S
H488 C494 0.930 . S
H489 C497 0.930 . S
H490 C498 0.930 . S
H491 C499 0.930 . S
H492 C502 0.930 . S
H493 C503 0.930 . S
C494 H488 0.930 . S
C494 C495 1.355 . S
C494 C496 1.415 . S
C495 C494 1.355 . S
C495 C497 1.419 . S
C496 C494 1.415 . S
C496 C501 1.425 . S
C496 C503 1.409 . S
C497 H489 0.930 . S
C497 C495 1.419 . S
C497 C498 1.362 . S
C498 H490 0.930 . S
C498 C497 1.362 . S
C498 C501 1.409 . S
C499 H491 0.930 . S
C499 C500 1.355 . S
C499 C501 1.415 . S
C500 C499 1.355 . S
C500 C502 1.419 . S
C501 C496 1.425 . S
C501 C498 1.409 . S
C501 C499 1.415 . S
C502 H492 0.930 . S
C502 C500 1.419 . S
C502 C503 1.362 . S
C503 H493 0.930 . S
C503 C496 1.409 . S
C503 C502 1.362 . S
H504 C510 0.930 . S
H505 C513 0.930 . S
H506 C514 0.930 . S
H507 C515 0.930 . S
H508 C518 0.930 . S
H509 C519 0.930 . S
C510 H504 0.930 . S
C510 C511 1.355 . S
C510 C512 1.415 . S
C511 C510 1.355 . S
C511 C513 1.419 . S
C512 C510 1.415 . S
C512 C517 1.425 . S
C512 C519 1.409 . S
C513 H505 0.930 . S
C513 C511 1.419 . S
C513 C514 1.362 . S
C514 H506 0.930 . S
C514 C513 1.362 . S
C514 C517 1.409 . S
C515 H507 0.930 . S
C515 C516 1.355 . S
C515 C517 1.415 . S
C516 C515 1.355 . S
C516 C518 1.419 . S
C517 C512 1.425 . S
C517 C514 1.409 . S
C517 C515 1.415 . S
C518 H508 0.930 . S
C518 C516 1.419 . S
C518 C519 1.362 . S
C519 H509 0.930 . S
C519 C512 1.409 . S
C519 C518 1.362 . S
H520 C526 0.930 . S
H521 C529 0.930 . S
H522 C530 0.930 . S
H523 C531 0.930 . S
H524 C534 0.930 . S
H525 C535 0.930 . S
C526 H520 0.930 . S
C526 C527 1.355 . S
C526 C528 1.415 . S
C527 C526 1.355 . S
C527 C529 1.419 . S
C528 C526 1.415 . S
C528 C533 1.425 . S
C528 C535 1.409 . S
C529 H521 0.930 . S
C529 C527 1.419 . S
C529 C530 1.362 . S
C530 H522 0.930 . S
C530 C529 1.362 . S
C530 C533 1.409 . S
C531 H523 0.930 . S
C531 C532 1.355 . S
C531 C533 1.415 . S
C532 C531 1.355 . S
C532 C534 1.419 . S
C533 C528 1.425 . S
C533 C530 1.409 . S
C533 C531 1.415 . S
C534 H524 0.930 . S
C534 C532 1.419 . S
C534 C535 1.362 . S
C535 H525 0.930 . S
C535 C528 1.409 . S
C535 C534 1.362 . S
H536 C542 0.930 . S
H537 C545 0.930 . S
H538 C546 0.930 . S
H539 C547 0.930 . S
H540 C550 0.930 . S
H541 C551 0.930 . S
C542 H536 0.930 . S
C542 C543 1.355 . S
C542 C544 1.415 . S
C543 C542 1.355 . S
C543 C545 1.419 . S
C544 C542 1.415 . S
C544 C549 1.425 . S
C544 C551 1.409 . S
C545 H537 0.930 . S
C545 C543 1.419 . S
C545 C546 1.362 . S
C546 H538 0.930 . S
C546 C545 1.362 . S
C546 C549 1.409 . S
C547 H539 0.930 . S
C547 C548 1.355 . S
C547 C549 1.415 . S
C548 C547 1.355 . S
C548 C550 1.419 . S
C549 C544 1.425 . S
C549 C546 1.409 . S
C549 C547 1.415 . S
C550 H540 0.930 . S
C550 C548 1.419 . S
C550 C551 1.362 . S
C551 H541 0.930 . S
C551 C544 1.409 . S
C551 C550 1.362 . S
H552 C558 0.930 . S
H553 C561 0.930 . S
H554 C562 0.930 . S
H555 C563 0.930 . S
H556 C566 0.930 . S
H557 C567 0.930 . S
C558 H552 0.930 . S
C558 C559 1.355 . S
C558 C560 1.415 . S
C559 C558 1.355 . S
C559 C561 1.419 . S
C560 C558 1.415 . S
C560 C565 1.425 . S
C560 C567 1.409 . S
C561 H553 0.930 . S
C561 C559 1.419 . S
C561 C562 1.362 . S
C562 H554 0.930 . S
C562 C561 1.362 . S
C562 C565 1.409 . S
C563 H555 0.930 . S
C563 C564 1.355 . S
C563 C565 1.415 . S
C564 C563 1.355 . S
C564 C566 1.419 . S
C565 C560 1.425 . S
C565 C562 1.409 . S
C565 C563 1.415 . S
C566 H556 0.930 . S
C566 C564 1.419 . S
C566 C567 1.362 . S
C567 H557 0.930 . S
C567 C560 1.409 . S
C567 C566 1.362 . S
H568 C574 0.930 . S
H569 C577 0.930 . S
H570 C578 0.930 . S
H571 C579 0.930 . S
H572 C582 0.930 . S
H573 C583 0.930 . S
C574 H568 0.930 . S
C574 C575 1.355 . S
C574 C576 1.415 . S
C575 C574 1.355 . S
C575 C577 1.419 . S
C576 C574 1.415 . S
C576 C581 1.425 . S
C576 C583 1.409 . S
C577 H569 0.930 . S
C577 C575 1.419 . S
C577 C578 1.362 . S
C578 H570 0.930 . S
C578 C577 1.362 . S
C578 C581 1.409 . S
C579 H571 0.930 . S
C579 C580 1.355 . S
C579 C581 1.415 . S
C580 C579 1.355 . S
C580 C582 1.419 . S
C581 C576 1.425 . S
C581 C578 1.409 . S
C581 C579 1.415 . S
C582 H572 0.930 . S
C582 C580 1.419 . S
C582 C583 1.362 . S
C583 H573 0.930 . S
C583 C576 1.409 . S
C583 C582 1.362 . S
C271 C153 1.341 . S
C276 C21 1.313 . S
C287 C54 1.324 . S
C292 C186 1.351 . S
C303 C87 1.354 . S
C308 C219 1.335 . S
C319 C120 1.340 . S
C324 C252 1.312 . S
C335 N167 0.670 . S
C340 N2 0.671 . S
C351 N35 0.733 . S
C356 N200 0.726 . S
C367 N233 0.670 . S
C372 N68 0.671 . S
C383 N101 0.780 . S
C388 N134 0.785 . S
C399 N13 1.095 1_655 S
C404 N211 1.096 1_455 S
C415 N244 1.093 1_545 S
C420 N46 1.097 1_565 S
C431 N79 1.083 . S
C436 N145 1.088 . S
C447 N178 1.087 . S
C452 N112 1.083 . S
C463 C18 1.991 . S
C468 C106 1.969 1_544 S
C479 C7 1.987 1_655 S
C484 C51 2.006 . S
C495 C40 1.978 1_565 S
C500 C84 1.972 . S
C511 C73 1.998 1_455 S
C516 C117 2.005 . S
C527 C150 1.979 . S
C532 C172 1.996 1_565 S
C543 C183 1.979 . S
C548 C205 1.995 1_455 S
C559 C216 2.006 . S
C564 C238 1.995 1_546 S
C575 C139 1.981 1_655 S
C580 C249 2.003 . S
