# Generated by pormake.
# Topology wln, (5)-cn, num edge types: 1
# Building blocks:
#     Node 0, Type 0, BuildingBlock: BEQFEK_clean_sbu_0, # of connection points: 5
#     Node 1, Type 0, BuildingBlock: BEQFEK_clean_sbu_0, # of connection points: 5
#     Node 2, Type 0, BuildingBlock: BEQFEK_clean_sbu_0, # of connection points: 5
#     Node 3, Type 0, BuildingBlock: BEQFEK_clean_sbu_0, # of connection points: 5
#     Node 4, Type 0, BuildingBlock: BEQFEK_clean_sbu_0, # of connection points: 5
#     Node 5, Type 0, BuildingBlock: BEQFEK_clean_sbu_0, # of connection points: 5
#     Node 6, Type 0, BuildingBlock: BEQFEK_clean_sbu_0, # of connection points: 5
#     Node 7, Type 0, BuildingBlock: BEQFEK_clean_sbu_0, # of connection points: 5
#     Node 8, Type 0, BuildingBlock: BEQFEK_clean_sbu_0, # of connection points: 5
#     Node 9, Type 0, BuildingBlock: BEQFEK_clean_sbu_0, # of connection points: 5
#     Node 10, Type 0, BuildingBlock: BEQFEK_clean_sbu_0, # of connection points: 5
#     Node 11, Type 0, BuildingBlock: BEQFEK_clean_sbu_0, # of connection points: 5
#     Node 12, Type 0, BuildingBlock: BEQFEK_clean_sbu_0, # of connection points: 5
#     Node 13, Type 0, BuildingBlock: BEQFEK_clean_sbu_0, # of connection points: 5
#     Node 14, Type 0, BuildingBlock: BEQFEK_clean_sbu_0, # of connection points: 5
#     Node 15, Type 0, BuildingBlock: BEQFEK_clean_sbu_0, # of connection points: 5
#     Node 16, Type 0, BuildingBlock: BEQFEK_clean_sbu_0, # of connection points: 5
#     Node 17, Type 0, BuildingBlock: BEQFEK_clean_sbu_0, # of connection points: 5
#     Node 18, Type 0, BuildingBlock: BEQFEK_clean_sbu_0, # of connection points: 5
#     Node 19, Type 0, BuildingBlock: BEQFEK_clean_sbu_0, # of connection points: 5
#     Node 20, Type 0, BuildingBlock: BEQFEK_clean_sbu_0, # of connection points: 5
#     Node 21, Type 0, BuildingBlock: BEQFEK_clean_sbu_0, # of connection points: 5
#     Node 22, Type 0, BuildingBlock: BEQFEK_clean_sbu_0, # of connection points: 5
#     Node 23, Type 0, BuildingBlock: BEQFEK_clean_sbu_0, # of connection points: 5
#     Node 24, Type 0, BuildingBlock: BEQFEK_clean_sbu_0, # of connection points: 5
#     Node 25, Type 0, BuildingBlock: BEQFEK_clean_sbu_0, # of connection points: 5
#     Node 26, Type 0, BuildingBlock: BEQFEK_clean_sbu_0, # of connection points: 5
#     Node 27, Type 0, BuildingBlock: BEQFEK_clean_sbu_0, # of connection points: 5
#     Node 28, Type 0, BuildingBlock: BEQFEK_clean_sbu_0, # of connection points: 5
#     Node 29, Type 0, BuildingBlock: BEQFEK_clean_sbu_0, # of connection points: 5
#     Node 30, Type 0, BuildingBlock: BEQFEK_clean_sbu_0, # of connection points: 5
#     Node 31, Type 0, BuildingBlock: BEQFEK_clean_sbu_0, # of connection points: 5
#     Node 32, Type 0, BuildingBlock: BEQFEK_clean_sbu_0, # of connection points: 5
#     Node 33, Type 0, BuildingBlock: BEQFEK_clean_sbu_0, # of connection points: 5
#     Node 34, Type 0, BuildingBlock: BEQFEK_clean_sbu_0, # of connection points: 5
#     Node 35, Type 0, BuildingBlock: BEQFEK_clean_sbu_0, # of connection points: 5
#     Edge 36, Type (0, 0), BuildingBlock: ZUJKAS_clean_linker_0, # of connection points: 2
#     Edge 37, Type (0, 0), BuildingBlock: ZUJKAS_clean_linker_0, # of connection points: 2
#     Edge 38, Type (0, 0), BuildingBlock: ZUJKAS_clean_linker_0, # of connection points: 2
#     Edge 39, Type (0, 0), BuildingBlock: ZUJKAS_clean_linker_0, # of connection points: 2
#     Edge 40, Type (0, 0), BuildingBlock: ZUJKAS_clean_linker_0, # of connection points: 2
#     Edge 41, Type (0, 0), BuildingBlock: ZUJKAS_clean_linker_0, # of connection points: 2
#     Edge 42, Type (0, 0), BuildingBlock: ZUJKAS_clean_linker_0, # of connection points: 2
#     Edge 43, Type (0, 0), BuildingBlock: ZUJKAS_clean_linker_0, # of connection points: 2
#     Edge 44, Type (0, 0), BuildingBlock: ZUJKAS_clean_linker_0, # of connection points: 2
#     Edge 45, Type (0, 0), BuildingBlock: ZUJKAS_clean_linker_0, # of connection points: 2
#     Edge 46, Type (0, 0), BuildingBlock: ZUJKAS_clean_linker_0, # of connection points: 2
#     Edge 47, Type (0, 0), BuildingBlock: ZUJKAS_clean_linker_0, # of connection points: 2
#     Edge 48, Type (0, 0), BuildingBlock: ZUJKAS_clean_linker_0, # of connection points: 2
#     Edge 49, Type (0, 0), BuildingBlock: ZUJKAS_clean_linker_0, # of connection points: 2
#     Edge 50, Type (0, 0), BuildingBlock: ZUJKAS_clean_linker_0, # of connection points: 2
#     Edge 51, Type (0, 0), BuildingBlock: ZUJKAS_clean_linker_0, # of connection points: 2
#     Edge 52, Type (0, 0), BuildingBlock: ZUJKAS_clean_linker_0, # of connection points: 2
#     Edge 53, Type (0, 0), BuildingBlock: ZUJKAS_clean_linker_0, # of connection points: 2
#     Edge 54, Type (0, 0), BuildingBlock: ZUJKAS_clean_linker_0, # of connection points: 2
#     Edge 55, Type (0, 0), BuildingBlock: ZUJKAS_clean_linker_0, # of connection points: 2
#     Edge 56, Type (0, 0), BuildingBlock: ZUJKAS_clean_linker_0, # of connection points: 2
#     Edge 57, Type (0, 0), BuildingBlock: ZUJKAS_clean_linker_0, # of connection points: 2
#     Edge 58, Type (0, 0), BuildingBlock: ZUJKAS_clean_linker_0, # of connection points: 2
#     Edge 59, Type (0, 0), BuildingBlock: ZUJKAS_clean_linker_0, # of connection points: 2
#     Edge 60, Type (0, 0), BuildingBlock: ZUJKAS_clean_linker_0, # of connection points: 2
#     Edge 61, Type (0, 0), BuildingBlock: ZUJKAS_clean_linker_0, # of connection points: 2
#     Edge 62, Type (0, 0), BuildingBlock: ZUJKAS_clean_linker_0, # of connection points: 2
#     Edge 63, Type (0, 0), BuildingBlock: ZUJKAS_clean_linker_0, # of connection points: 2
#     Edge 64, Type (0, 0), BuildingBlock: ZUJKAS_clean_linker_0, # of connection points: 2
#     Edge 65, Type (0, 0), BuildingBlock: ZUJKAS_clean_linker_0, # of connection points: 2
#     Edge 66, Type (0, 0), BuildingBlock: ZUJKAS_clean_linker_0, # of connection points: 2
#     Edge 67, Type (0, 0), BuildingBlock: ZUJKAS_clean_linker_0, # of connection points: 2
#     Edge 68, Type (0, 0), BuildingBlock: ZUJKAS_clean_linker_0, # of connection points: 2
#     Edge 69, Type (0, 0), BuildingBlock: ZUJKAS_clean_linker_0, # of connection points: 2
#     Edge 70, Type (0, 0), BuildingBlock: ZUJKAS_clean_linker_0, # of connection points: 2
#     Edge 71, Type (0, 0), BuildingBlock: ZUJKAS_clean_linker_0, # of connection points: 2
#     Edge 72, Type (0, 0), BuildingBlock: ZUJKAS_clean_linker_0, # of connection points: 2
#     Edge 73, Type (0, 0), BuildingBlock: ZUJKAS_clean_linker_0, # of connection points: 2
#     Edge 74, Type (0, 0), BuildingBlock: ZUJKAS_clean_linker_0, # of connection points: 2
#     Edge 75, Type (0, 0), BuildingBlock: ZUJKAS_clean_linker_0, # of connection points: 2
#     Edge 76, Type (0, 0), BuildingBlock: ZUJKAS_clean_linker_0, # of connection points: 2
#     Edge 77, Type (0, 0), BuildingBlock: ZUJKAS_clean_linker_0, # of connection points: 2
#     Edge 78, Type (0, 0), BuildingBlock: ZUJKAS_clean_linker_0, # of connection points: 2
#     Edge 79, Type (0, 0), BuildingBlock: ZUJKAS_clean_linker_0, # of connection points: 2
#     Edge 80, Type (0, 0), BuildingBlock: ZUJKAS_clean_linker_0, # of connection points: 2
#     Edge 81, Type (0, 0), BuildingBlock: ZUJKAS_clean_linker_0, # of connection points: 2
#     Edge 82, Type (0, 0), BuildingBlock: ZUJKAS_clean_linker_0, # of connection points: 2
#     Edge 83, Type (0, 0), BuildingBlock: ZUJKAS_clean_linker_0, # of connection points: 2
#     Edge 84, Type (0, 0), BuildingBlock: ZUJKAS_clean_linker_0, # of connection points: 2
#     Edge 85, Type (0, 0), BuildingBlock: ZUJKAS_clean_linker_0, # of connection points: 2
#     Edge 86, Type (0, 0), BuildingBlock: ZUJKAS_clean_linker_0, # of connection points: 2
#     Edge 87, Type (0, 0), BuildingBlock: ZUJKAS_clean_linker_0, # of connection points: 2
#     Edge 88, Type (0, 0), BuildingBlock: ZUJKAS_clean_linker_0, # of connection points: 2
#     Edge 89, Type (0, 0), BuildingBlock: ZUJKAS_clean_linker_0, # of connection points: 2
#     Edge 90, Type (0, 0), BuildingBlock: ZUJKAS_clean_linker_0, # of connection points: 2
#     Edge 91, Type (0, 0), BuildingBlock: ZUJKAS_clean_linker_0, # of connection points: 2
#     Edge 92, Type (0, 0), BuildingBlock: ZUJKAS_clean_linker_0, # of connection points: 2
#     Edge 93, Type (0, 0), BuildingBlock: ZUJKAS_clean_linker_0, # of connection points: 2
#     Edge 94, Type (0, 0), BuildingBlock: ZUJKAS_clean_linker_0, # of connection points: 2
#     Edge 95, Type (0, 0), BuildingBlock: ZUJKAS_clean_linker_0, # of connection points: 2
#     Edge 96, Type (0, 0), BuildingBlock: ZUJKAS_clean_linker_0, # of connection points: 2
#     Edge 97, Type (0, 0), BuildingBlock: ZUJKAS_clean_linker_0, # of connection points: 2
#     Edge 98, Type (0, 0), BuildingBlock: ZUJKAS_clean_linker_0, # of connection points: 2
#     Edge 99, Type (0, 0), BuildingBlock: ZUJKAS_clean_linker_0, # of connection points: 2
#     Edge 100, Type (0, 0), BuildingBlock: ZUJKAS_clean_linker_0, # of connection points: 2
#     Edge 101, Type (0, 0), BuildingBlock: ZUJKAS_clean_linker_0, # of connection points: 2
#     Edge 102, Type (0, 0), BuildingBlock: ZUJKAS_clean_linker_0, # of connection points: 2
#     Edge 103, Type (0, 0), BuildingBlock: ZUJKAS_clean_linker_0, # of connection points: 2
#     Edge 104, Type (0, 0), BuildingBlock: ZUJKAS_clean_linker_0, # of connection points: 2
#     Edge 105, Type (0, 0), BuildingBlock: ZUJKAS_clean_linker_0, # of connection points: 2
#     Edge 106, Type (0, 0), BuildingBlock: ZUJKAS_clean_linker_0, # of connection points: 2
#     Edge 107, Type (0, 0), BuildingBlock: ZUJKAS_clean_linker_0, # of connection points: 2
#     Edge 108, Type (0, 0), BuildingBlock: ZUJKAS_clean_linker_0, # of connection points: 2
#     Edge 109, Type (0, 0), BuildingBlock: ZUJKAS_clean_linker_0, # of connection points: 2
#     Edge 110, Type (0, 0), BuildingBlock: ZUJKAS_clean_linker_0, # of connection points: 2
#     Edge 111, Type (0, 0), BuildingBlock: ZUJKAS_clean_linker_0, # of connection points: 2
#     Edge 112, Type (0, 0), BuildingBlock: ZUJKAS_clean_linker_0, # of connection points: 2
#     Edge 113, Type (0, 0), BuildingBlock: ZUJKAS_clean_linker_0, # of connection points: 2
#     Edge 114, Type (0, 0), BuildingBlock: ZUJKAS_clean_linker_0, # of connection points: 2
#     Edge 115, Type (0, 0), BuildingBlock: ZUJKAS_clean_linker_0, # of connection points: 2
#     Edge 116, Type (0, 0), BuildingBlock: ZUJKAS_clean_linker_0, # of connection points: 2
#     Edge 117, Type (0, 0), BuildingBlock: ZUJKAS_clean_linker_0, # of connection points: 2
#     Edge 118, Type (0, 0), BuildingBlock: ZUJKAS_clean_linker_0, # of connection points: 2
#     Edge 119, Type (0, 0), BuildingBlock: ZUJKAS_clean_linker_0, # of connection points: 2
#     Edge 120, Type (0, 0), BuildingBlock: ZUJKAS_clean_linker_0, # of connection points: 2
#     Edge 121, Type (0, 0), BuildingBlock: ZUJKAS_clean_linker_0, # of connection points: 2
#     Edge 122, Type (0, 0), BuildingBlock: ZUJKAS_clean_linker_0, # of connection points: 2
#     Edge 123, Type (0, 0), BuildingBlock: ZUJKAS_clean_linker_0, # of connection points: 2
#     Edge 124, Type (0, 0), BuildingBlock: ZUJKAS_clean_linker_0, # of connection points: 2
#     Edge 125, Type (0, 0), BuildingBlock: ZUJKAS_clean_linker_0, # of connection points: 2
# Relax obj value: 0.190
# Max RMSD: 0.175
# Mean RMSD: 0.175
data_MOF--net-wln--node1-BEQFEK_clean_sbu_0--edge1-ZUJKAS_clean_linker_0
_symmetry_space_group_name_H-M    P1
_symmetry_Int_Tables_number       1
_symmetry_cell_setting            triclinic
loop_
_symmetry_equiv_pos_as_xyz
'x, y, z'
_cell_length_a     160.07145
_cell_length_b     160.08013
_cell_length_c     22.785594
_cell_angle_alpha  90.001181
_cell_angle_beta   90.004546
_cell_angle_gamma 120.00234
loop_
_atom_site_label
_atom_site_type_symbol
_atom_site_fract_x
_atom_site_fract_y
_atom_site_fract_z
_atom_type_partial_charge
Co0 Co 0.13966 0.3998 0.96026 0.0
Co1 Co 0.13619 0.39086 0.08524 0.0
C2 C 0.15561 0.39968 0.02358 0.0
O3 O 0.15273 0.40231 0.979 0.0
O4 O 0.14989 0.39514 0.06566 0.0
C5 C 0.14749 0.41226 0.85989 0.0
O6 O 0.1556 0.4164 0.88975 0.0
C7 C 0.13996 0.39461 0.20901 0.0
C8 C 0.12871 0.38123 0.25084 0.0
C9 C 0.13614 0.39049 0.263 0.0
N10 N 0.13485 0.3882 0.1669 0.0
N11 N 0.12821 0.38017 0.19204 0.0
C12 C 0.14839 0.40445 0.19716 0.0
H13 H 0.15217 0.40443 0.15662 0.0
H14 H 0.14581 0.40965 0.19074 0.0
H15 H 0.15355 0.40693 0.23436 0.0
C16 C 0.13226 0.41149 0.01685 0.0
N17 N 0.13495 0.40475 0.01835 0.0
N18 N 0.1329 0.40057 0.07014 0.0
C19 C 0.12851 0.40431 0.10272 0.0
C20 C 0.12811 0.41146 0.07043 0.0
C21 C 0.13378 0.41787 0.96521 0.0
H22 H 0.14116 0.42063 0.94761 0.0
H23 H 0.13284 0.42406 0.9771 0.0
H24 H 0.12857 0.41358 0.9302 0.0
O25 O 0.13085 0.38566 0.95081 0.0
O26 O 0.12777 0.37907 0.03963 0.0
H27 H 0.11735 0.4014 0.1661 0.0
H28 H 0.12873 0.40401 0.19667 0.0
C29 C 0.12361 0.40028 0.16026 0.0
H30 H 0.12103 0.39245 0.16267 0.0
H31 H 0.12316 0.37407 0.16908 0.0
O32 O 0.13995 0.40543 0.88316 0.0
C33 C 0.12662 0.3783 0.98415 0.0
Co34 Co 0.60012 0.73966 0.96489 0.0
Co35 Co 0.61022 0.74471 0.08676 0.0
C36 C 0.60073 0.75539 0.03636 0.0
O37 O 0.59795 0.75022 0.99027 0.0
O38 O 0.60552 0.754 0.0759 0.0
C39 C 0.58872 0.73739 0.86188 0.0
O40 O 0.58695 0.74374 0.88686 0.0
C41 C 0.60902 0.74575 0.21215 0.0
C42 C 0.62225 0.74615 0.24392 0.0
C43 C 0.61386 0.74584 0.26271 0.0
N44 N 0.61427 0.74597 0.16578 0.0
N45 N 0.62226 0.74635 0.18481 0.0
C46 C 0.59906 0.74435 0.20719 0.0
H47 H 0.59591 0.74136 0.16358 0.0
H48 H 0.59431 0.73945 0.24213 0.0
H49 H 0.59945 0.75143 0.21215 0.0
C50 C 0.58884 0.72045 0.02058 0.0
N51 N 0.59576 0.72981 0.02179 0.0
N52 N 0.60027 0.73178 0.07254 0.0
C53 C 0.59647 0.72364 0.10494 0.0
C54 C 0.58904 0.71622 0.07336 0.0
C55 C 0.58205 0.7158 0.9703 0.0
H56 H 0.5859 0.71445 0.93431 0.0
H57 H 0.57963 0.72074 0.95341 0.0
H58 H 0.57567 0.70887 0.98346 0.0
O59 O 0.61407 0.74491 0.94835 0.0
O60 O 0.6214 0.74829 0.03484 0.0
H61 H 0.60836 0.72736 0.16332 0.0
H62 H 0.59853 0.71517 0.17124 0.0
C63 C 0.6004 0.72273 0.16272 0.0
H64 H 0.5973 0.72505 0.19836 0.0
H65 H 0.62751 0.74639 0.15752 0.0
O66 O 0.59367 0.73445 0.8892 0.0
C67 C 0.6217 0.74801 0.97909 0.0
Co68 Co 0.26062 0.86015 0.96017 0.0
Co69 Co 0.2555 0.86462 0.08359 0.0
C70 C 0.24448 0.84482 0.02597 0.0
O71 O 0.24991 0.84726 0.98106 0.0
O72 O 0.24588 0.85089 0.06628 0.0
C73 C 0.26469 0.85192 0.85883 0.0
O74 O 0.2602 0.84369 0.88727 0.0
C75 C 0.25567 0.86131 0.20778 0.0
C76 C 0.25369 0.87274 0.24832 0.0
C77 C 0.25546 0.8653 0.26135 0.0
N78 N 0.25436 0.86632 0.16507 0.0
N79 N 0.25306 0.87308 0.18944 0.0
C80 C 0.25699 0.85281 0.19692 0.0
H81 H 0.26478 0.8553 0.19156 0.0
H82 H 0.25415 0.84766 0.23419 0.0
H83 H 0.25331 0.84902 0.15615 0.0
C84 C 0.27974 0.86754 0.01632 0.0
N85 N 0.27036 0.86504 0.01775 0.0
N86 N 0.2684 0.86753 0.06863 0.0
C87 C 0.27657 0.872 0.10065 0.0
C88 C 0.28399 0.87201 0.06899 0.0
C89 C 0.28444 0.86561 0.96547 0.0
H90 H 0.27959 0.85824 0.9483 0.0
H91 H 0.29144 0.86627 0.97814 0.0
H92 H 0.28566 0.87083 0.92989 0.0
O93 O 0.25556 0.86912 0.9486 0.0
O94 O 0.2523 0.87299 0.03585 0.0
H95 H 0.28507 0.88355 0.16126 0.0
H96 H 0.27628 0.87244 0.19454 0.0
C97 C 0.27764 0.87732 0.15678 0.0
H98 H 0.27247 0.88 0.15813 0.0
H99 H 0.25202 0.87808 0.16591 0.0
O100 O 0.26587 0.85956 0.88334 0.0
C101 C 0.25264 0.87374 0.98008 0.0
Co102 Co 0.40069 0.13955 0.03132 0.0
Co103 Co 0.3915 0.13559 0.90666 0.0
C104 C 0.40055 0.15527 0.96493 0.0
O105 O 0.4032 0.15255 0.0102 0.0
O106 O 0.39593 0.14938 0.92371 0.0
C107 C 0.41318 0.14768 0.13197 0.0
O108 O 0.4172 0.15583 0.10257 0.0
C109 C 0.39422 0.13928 0.78219 0.0
C110 C 0.38171 0.12656 0.74289 0.0
C111 C 0.39028 0.13485 0.72906 0.0
N112 N 0.38842 0.13372 0.82546 0.0
N113 N 0.38085 0.1262 0.80182 0.0
C114 C 0.40332 0.14867 0.79252 0.0
H115 H 0.40169 0.1534 0.81981 0.0
H116 H 0.40854 0.14736 0.81712 0.0
H117 H 0.40662 0.15255 0.75111 0.0
C118 C 0.41209 0.13172 0.97659 0.0
N119 N 0.40545 0.13453 0.97409 0.0
N120 N 0.4013 0.13241 0.92216 0.0
C121 C 0.40505 0.12795 0.89031 0.0
C122 C 0.41205 0.12745 0.9236 0.0
C123 C 0.41781 0.13249 0.03032 0.0
H124 H 0.4128 0.12839 0.06659 0.0
H125 H 0.42201 0.14016 0.04407 0.0
H126 H 0.42278 0.12966 0.0227 0.0
O127 O 0.38663 0.13082 0.04253 0.0
O128 O 0.37984 0.12741 0.95431 0.0
H129 H 0.39393 0.12023 0.82664 0.0
H130 H 0.40456 0.11919 0.81617 0.0
C131 C 0.40191 0.12411 0.82947 0.0
H132 H 0.40487 0.13021 0.79811 0.0
H133 H 0.37532 0.12065 0.82592 0.0
O134 O 0.40647 0.14011 0.10832 0.0
C135 C 0.37919 0.12647 0.00994 0.0
Co136 Co 0.86129 0.2603 0.03119 0.0
Co137 Co 0.86483 0.25472 0.90663 0.0
C138 C 0.84536 0.24423 0.96714 0.0
O139 O 0.84822 0.2497 0.01191 0.0
O140 O 0.8511 0.24543 0.92519 0.0
C141 C 0.85343 0.26519 0.13088 0.0
O142 O 0.84532 0.26138 0.1011 0.0
C143 C 0.86094 0.25323 0.78205 0.0
C144 C 0.87397 0.254 0.7435 0.0
C145 C 0.86551 0.25391 0.72916 0.0
N146 N 0.8666 0.25328 0.82566 0.0
N147 N 0.87429 0.25352 0.80244 0.0
C148 C 0.85139 0.25262 0.79179 0.0
H149 H 0.84691 0.24648 0.82113 0.0
H150 H 0.85251 0.25929 0.81378 0.0
H151 H 0.84735 0.25149 0.75028 0.0
C152 C 0.86915 0.27944 0.97513 0.0
N153 N 0.8662 0.26995 0.97311 0.0
N154 N 0.86806 0.26776 0.92093 0.0
C155 C 0.87243 0.27587 0.8882 0.0
C156 C 0.87321 0.28351 0.92139 0.0
C157 C 0.8688 0.28456 0.02916 0.0
H158 H 0.87269 0.28329 0.06524 0.0
H159 H 0.86117 0.28153 0.04297 0.0
H160 H 0.87209 0.29244 0.02193 0.0
O161 O 0.87004 0.25501 0.04236 0.0
O162 O 0.8731 0.25132 0.95406 0.0
H163 H 0.87999 0.27254 0.82316 0.0
H164 H 0.88031 0.28383 0.81062 0.0
C165 C 0.87581 0.27633 0.82637 0.0
H166 H 0.86946 0.27271 0.79706 0.0
H167 H 0.87995 0.25384 0.82685 0.0
O168 O 0.86087 0.26567 0.10773 0.0
C169 C 0.87425 0.25179 0.00953 0.0
Co170 Co 0.74001 0.59899 0.03646 0.0
Co171 Co 0.74521 0.60887 0.91355 0.0
C172 C 0.75567 0.59927 0.96579 0.0
O173 O 0.75043 0.59658 0.01161 0.0
O174 O 0.7544 0.60408 0.92581 0.0
C175 C 0.73724 0.58713 0.13802 0.0
O176 O 0.74263 0.58442 0.10974 0.0
C177 C 0.74667 0.60738 0.78848 0.0
C178 C 0.74677 0.62032 0.75381 0.0
C179 C 0.74683 0.61202 0.73679 0.0
N180 N 0.74652 0.61266 0.83371 0.0
N181 N 0.74672 0.62047 0.81294 0.0
C182 C 0.74552 0.59755 0.79542 0.0
H183 H 0.7422 0.5944 0.83846 0.0
H184 H 0.74098 0.59267 0.75974 0.0
H185 H 0.75273 0.59816 0.79355 0.0
C186 C 0.72069 0.58815 0.98188 0.0
N187 N 0.73016 0.59471 0.97967 0.0
N188 N 0.73221 0.5991 0.92852 0.0
C189 C 0.72401 0.5956 0.89685 0.0
C190 C 0.71647 0.58851 0.92949 0.0
C191 C 0.71575 0.58221 0.03491 0.0
H192 H 0.71665 0.58707 0.07207 0.0
H193 H 0.71924 0.57797 0.04755 0.0
H194 H 0.70794 0.57726 0.02711 0.0
O195 O 0.74545 0.61297 0.05141 0.0
O196 O 0.74894 0.62023 0.96465 0.0
H197 H 0.72738 0.60696 0.83514 0.0
H198 H 0.71586 0.59623 0.82236 0.0
C199 C 0.72341 0.59897 0.83649 0.0
H200 H 0.72679 0.5963 0.80483 0.0
H201 H 0.74649 0.62571 0.839 0.0
O202 O 0.7349 0.59277 0.11304 0.0
C203 C 0.74864 0.62058 0.02043 0.0
Co204 Co 0.86117 0.60049 0.02808 0.0
Co205 Co 0.86516 0.6099 0.90391 0.0
C206 C 0.84535 0.60028 0.95906 0.0
O207 O 0.84819 0.59784 0.0047 0.0
O208 O 0.8512 0.60499 0.91788 0.0
C209 C 0.85236 0.58827 0.12857 0.0
O210 O 0.84428 0.58498 0.09885 0.0
C211 C 0.86184 0.60813 0.77906 0.0
C212 C 0.87456 0.62104 0.74313 0.0
C213 C 0.86621 0.61268 0.7269 0.0
N214 N 0.86736 0.61352 0.82375 0.0
N215 N 0.87488 0.62131 0.80223 0.0
C216 C 0.85323 0.59828 0.78695 0.0
H217 H 0.85348 0.59525 0.83026 0.0
H218 H 0.85287 0.59333 0.75173 0.0
H219 H 0.84659 0.59882 0.78508 0.0
C220 C 0.86978 0.58977 0.97358 0.0
N221 N 0.86665 0.59616 0.97104 0.0
N222 N 0.86865 0.6003 0.91909 0.0
C223 C 0.87327 0.59676 0.88705 0.0
C224 C 0.87409 0.58994 0.92044 0.0
C225 C 0.86924 0.5842 0.02755 0.0
H226 H 0.87291 0.5893 0.06427 0.0
H227 H 0.86157 0.57952 0.04013 0.0
H228 H 0.87266 0.57972 0.02097 0.0
O229 O 0.8696 0.61454 0.04142 0.0
O230 O 0.87284 0.62144 0.95358 0.0
H231 H 0.88079 0.60778 0.82257 0.0
H232 H 0.88142 0.59696 0.81015 0.0
C233 C 0.87676 0.5998 0.82549 0.0
H234 H 0.87047 0.59699 0.79565 0.0
H235 H 0.88039 0.62662 0.82775 0.0
O236 O 0.86026 0.59444 0.10497 0.0
C237 C 0.87376 0.62203 0.00921 0.0
Co238 Co 0.40235 0.2609 0.03732 0.0
Co239 Co 0.39187 0.2555 0.91639 0.0
C240 C 0.40169 0.2451 0.96573 0.0
O241 O 0.40462 0.25044 0.01109 0.0
O242 O 0.39667 0.24627 0.92672 0.0
C243 C 0.41325 0.26265 0.14152 0.0
O244 O 0.41438 0.25581 0.11783 0.0
C245 C 0.39222 0.25378 0.79058 0.0
C246 C 0.37933 0.25431 0.76143 0.0
C247 C 0.38729 0.25392 0.74096 0.0
N248 N 0.38743 0.25411 0.83798 0.0
N249 N 0.37964 0.25426 0.82051 0.0
C250 C 0.40195 0.25458 0.7935 0.0
H251 H 0.4055 0.25776 0.836 0.0
H252 H 0.40662 0.25909 0.75703 0.0
H253 H 0.40106 0.24727 0.78976 0.0
C254 C 0.41284 0.28015 0.98195 0.0
N255 N 0.40631 0.27066 0.98029 0.0
N256 N 0.40176 0.26854 0.92964 0.0
C257 C 0.40518 0.27669 0.89758 0.0
C258 C 0.41234 0.2843 0.9296 0.0
C259 C 0.41885 0.28516 0.03465 0.0
H260 H 0.41404 0.28404 0.07249 0.0
H261 H 0.42333 0.28189 0.0461 0.0
H262 H 0.42357 0.29301 0.0272 0.0
O263 O 0.38847 0.25549 0.05557 0.0
O264 O 0.38084 0.25191 0.97005 0.0
H265 H 0.39373 0.2735 0.83696 0.0
H266 H 0.4047 0.28469 0.82169 0.0
C267 C 0.40172 0.27718 0.83729 0.0
H268 H 0.40403 0.27343 0.8061 0.0
H269 H 0.37477 0.25474 0.84879 0.0
O270 O 0.40896 0.26618 0.11263 0.0
C271 C 0.38073 0.25228 0.02586 0.0
Co272 Co 0.73966 0.13937 0.03534 0.0
Co273 Co 0.74491 0.1357 0.90995 0.0
C274 C 0.75551 0.15524 0.96964 0.0
O275 O 0.75017 0.15243 0.01496 0.0
O276 O 0.75421 0.14945 0.9278 0.0
C277 C 0.73515 0.14743 0.13541 0.0
O278 O 0.73903 0.15549 0.10509 0.0
C279 C 0.74606 0.13966 0.78568 0.0
C280 C 0.74569 0.12692 0.74557 0.0
C281 C 0.74557 0.13531 0.73227 0.0
N282 N 0.74615 0.13397 0.8286 0.0
N283 N 0.74612 0.12644 0.80448 0.0
C284 C 0.74646 0.14909 0.79661 0.0
H285 H 0.75289 0.15377 0.82354 0.0
H286 H 0.74001 0.14784 0.82186 0.0
H287 H 0.74701 0.15301 0.75543 0.0
C288 C 0.72035 0.13136 0.98118 0.0
N289 N 0.72984 0.13436 0.97819 0.0
N290 N 0.7319 0.13244 0.92578 0.0
C291 C 0.7237 0.12799 0.89391 0.0
C292 C 0.71614 0.12721 0.92787 0.0
C293 C 0.71536 0.13176 0.03572 0.0
H294 H 0.7167 0.12788 0.07155 0.0
H295 H 0.71845 0.13939 0.04947 0.0
H296 H 0.70747 0.12849 0.02915 0.0
O297 O 0.74505 0.13068 0.04557 0.0
O298 O 0.74847 0.1275 0.95681 0.0
H299 H 0.72701 0.12045 0.82853 0.0
H300 H 0.71556 0.11988 0.81739 0.0
C301 C 0.7231 0.12451 0.83217 0.0
H302 H 0.72653 0.13081 0.80238 0.0
H303 H 0.74599 0.12081 0.82822 0.0
O304 O 0.73448 0.13989 0.11256 0.0
C305 C 0.74818 0.12645 0.01236 0.0
Co306 Co 0.5979 0.85838 0.95744 0.0
Co307 Co 0.60855 0.86407 0.07771 0.0
C308 C 0.59891 0.84365 0.03058 0.0
O309 O 0.59582 0.84575 0.98467 0.0
O310 O 0.60391 0.85006 0.06853 0.0
C311 C 0.5873 0.84916 0.85258 0.0
O312 O 0.58656 0.84129 0.87552 0.0
C313 C 0.60778 0.86218 0.2033 0.0
C314 C 0.62098 0.87521 0.23339 0.0
C315 C 0.61272 0.86709 0.25324 0.0
N316 N 0.61285 0.86715 0.15625 0.0
N317 N 0.62082 0.87487 0.17428 0.0
C318 C 0.59787 0.85352 0.19962 0.0
H319 H 0.59454 0.85324 0.15645 0.0
H320 H 0.59319 0.85364 0.23518 0.0
H321 H 0.59839 0.8469 0.20447 0.0
C322 C 0.58681 0.86651 0.0133 0.0
N323 N 0.59377 0.86413 0.01403 0.0
N324 N 0.59848 0.86689 0.06406 0.0
C325 C 0.59476 0.87131 0.09644 0.0
C326 C 0.58719 0.87113 0.06565 0.0
C327 C 0.57982 0.86416 0.96392 0.0
H328 H 0.57746 0.85679 0.9474 0.0
H329 H 0.57343 0.86462 0.97788 0.0
H330 H 0.58348 0.86931 0.9274 0.0
O331 O 0.61179 0.86696 0.9388 0.0
O332 O 0.6195 0.87151 0.02393 0.0
H333 H 0.59696 0.88202 0.16186 0.0
H334 H 0.59601 0.87106 0.18975 0.0
C335 C 0.5989 0.87637 0.15341 0.0
H336 H 0.60686 0.87979 0.15278 0.0
H337 H 0.62595 0.88007 0.14633 0.0
O338 O 0.59128 0.85693 0.88208 0.0
C339 C 0.61955 0.87174 0.96807 0.0
Co340 Co 0.13944 0.73957 0.96426 0.0
Co341 Co 0.13513 0.74475 0.08819 0.0
C342 C 0.15493 0.75552 0.0327 0.0
O343 O 0.15228 0.75027 0.98693 0.0
O344 O 0.149 0.75412 0.07388 0.0
C345 C 0.14837 0.73642 0.8635 0.0
O346 O 0.15645 0.74144 0.89282 0.0
C347 C 0.13842 0.74587 0.21273 0.0
C348 C 0.12607 0.74662 0.24985 0.0
C349 C 0.13422 0.74618 0.26527 0.0
N350 N 0.13301 0.7461 0.16855 0.0
N351 N 0.12569 0.74668 0.19077 0.0
C352 C 0.14682 0.74431 0.2039 0.0
H353 H 0.14651 0.74122 0.15985 0.0
H354 H 0.14692 0.73942 0.23808 0.0
H355 H 0.15361 0.75135 0.20696 0.0
C356 C 0.13176 0.72039 0.02009 0.0
N357 N 0.13434 0.72979 0.02171 0.0
N358 N 0.13212 0.73182 0.07329 0.0
C359 C 0.12787 0.7237 0.1059 0.0
C360 C 0.1276 0.71622 0.07353 0.0
C361 C 0.13342 0.71562 0.9685 0.0
H362 H 0.14077 0.72037 0.95072 0.0
H363 H 0.13263 0.70855 0.98054 0.0
H364 H 0.12815 0.71455 0.93355 0.0
O365 O 0.13059 0.74472 0.95117 0.0
O366 O 0.12713 0.74823 0.03886 0.0
H367 H 0.11758 0.71533 0.17357 0.0
H368 H 0.12887 0.72512 0.19929 0.0
C369 C 0.1233 0.72287 0.16457 0.0
H370 H 0.12008 0.72758 0.16633 0.0
H371 H 0.12029 0.74679 0.16573 0.0
O372 O 0.14043 0.73447 0.88741 0.0
C373 C 0.12622 0.74784 0.98322 0.0
Co374 Co 0.26131 0.40052 0.96253 0.0
Co375 Co 0.25562 0.39121 0.08658 0.0
C376 C 0.24526 0.40038 0.02658 0.0
O377 O 0.25078 0.40304 0.98202 0.0
O378 O 0.24637 0.39573 0.06826 0.0
C379 C 0.26621 0.41323 0.86253 0.0
O380 O 0.2623 0.41749 0.8918 0.0
C381 C 0.25418 0.39357 0.21121 0.0
C382 C 0.25477 0.3812 0.24948 0.0
C383 C 0.2548 0.38962 0.26402 0.0
N384 N 0.25414 0.38794 0.16748 0.0
N385 N 0.25429 0.38043 0.19052 0.0
C386 C 0.25369 0.40258 0.20168 0.0
H387 H 0.24756 0.40099 0.17235 0.0
H388 H 0.26038 0.40809 0.17976 0.0
H389 H 0.2526 0.4055 0.24327 0.0
C390 C 0.2804 0.41169 0.01909 0.0
N391 N 0.27092 0.40515 0.0208 0.0
N392 N 0.2687 0.40101 0.07272 0.0
C393 C 0.2768 0.40469 0.10553 0.0
C394 C 0.28445 0.41161 0.07272 0.0
C395 C 0.28555 0.41728 0.9654 0.0
H396 H 0.2844 0.41218 0.92915 0.0
H397 H 0.28243 0.42179 0.95156 0.0
H398 H 0.2934 0.42194 0.97303 0.0
O399 O 0.25598 0.38649 0.95081 0.0
O400 O 0.25223 0.37958 0.03864 0.0
H401 H 0.27333 0.39364 0.1697 0.0
H402 H 0.28475 0.40448 0.18236 0.0
C403 C 0.27724 0.40162 0.167 0.0
H404 H 0.27375 0.4044 0.19691 0.0
H405 H 0.25452 0.37505 0.16599 0.0
O406 O 0.26675 0.40634 0.88614 0.0
C407 C 0.25274 0.37901 0.98309 0.0
Co408 Co 0.80667 0.73371 0.29626 0.0
Co409 Co 0.80181 0.72418 0.42012 0.0
C410 C 0.82187 0.73336 0.36843 0.0
O411 O 0.81945 0.73598 0.32183 0.0
O412 O 0.81573 0.72874 0.40847 0.0
C413 C 0.81599 0.74564 0.19524 0.0
O414 O 0.82404 0.74844 0.22435 0.0
C415 C 0.80481 0.72588 0.54505 0.0
C416 C 0.79184 0.71318 0.58061 0.0
C417 C 0.80032 0.7214 0.59704 0.0
N418 N 0.79927 0.72059 0.50019 0.0
N419 N 0.79158 0.71293 0.52149 0.0
C420 C 0.81362 0.7356 0.53745 0.0
H421 H 0.81349 0.73873 0.49425 0.0
H422 H 0.81413 0.7406 0.57285 0.0
H423 H 0.82013 0.73482 0.53926 0.0
C424 C 0.79844 0.74494 0.34854 0.0
N425 N 0.80119 0.73827 0.35194 0.0
N426 N 0.7988 0.73406 0.40362 0.0
C427 C 0.79428 0.73782 0.43457 0.0
C428 C 0.79395 0.74487 0.40079 0.0
C429 C 0.7995 0.75073 0.29461 0.0
H430 H 0.79572 0.74576 0.25754 0.0
H431 H 0.80725 0.75504 0.28285 0.0
H432 H 0.7965 0.75559 0.3008 0.0
O433 O 0.79797 0.71971 0.28224 0.0
O434 O 0.79408 0.71274 0.36986 0.0
H435 H 0.7862 0.72681 0.49807 0.0
H436 H 0.78589 0.73782 0.5097 0.0
C437 C 0.79045 0.73479 0.49554 0.0
H438 H 0.79658 0.73739 0.52653 0.0
H439 H 0.78602 0.70771 0.49578 0.0
O440 O 0.80798 0.73986 0.21931 0.0
C441 C 0.79345 0.71222 0.31409 0.0
Co442 Co 0.26601 0.07269 0.2882 0.0
Co443 Co 0.27596 0.07798 0.41098 0.0
C444 C 0.26634 0.08841 0.35868 0.0
O445 O 0.26361 0.08312 0.31308 0.0
O446 O 0.27118 0.08719 0.39864 0.0
C447 C 0.25422 0.07002 0.18652 0.0
O448 O 0.25158 0.07548 0.2147 0.0
C449 C 0.27467 0.07964 0.53617 0.0
C450 C 0.28753 0.07952 0.57029 0.0
C451 C 0.27933 0.07974 0.58767 0.0
N452 N 0.27984 0.07934 0.49071 0.0
N453 N 0.2876 0.07941 0.51116 0.0
C454 C 0.26489 0.07864 0.52968 0.0
H455 H 0.26165 0.07529 0.48686 0.0
H456 H 0.26003 0.07419 0.56566 0.0
H457 H 0.26562 0.0859 0.53137 0.0
C458 C 0.25529 0.05338 0.34283 0.0
N459 N 0.2618 0.06287 0.34509 0.0
N460 N 0.26615 0.06495 0.39638 0.0
C461 C 0.26264 0.05678 0.42826 0.0
C462 C 0.25562 0.04919 0.39547 0.0
C463 C 0.24949 0.04841 0.28943 0.0
H464 H 0.25444 0.04965 0.25216 0.0
H465 H 0.24497 0.05161 0.27743 0.0
H466 H 0.24482 0.04053 0.29635 0.0
O467 O 0.27997 0.07815 0.27294 0.0
O468 O 0.28729 0.08167 0.35952 0.0
H469 H 0.27388 0.06004 0.49065 0.0
H470 H 0.26295 0.04874 0.50443 0.0
C471 C 0.26589 0.05626 0.48911 0.0
H472 H 0.26338 0.0599 0.51981 0.0
H473 H 0.29274 0.07905 0.48489 0.0
O474 O 0.25976 0.06759 0.21167 0.0
C475 C 0.2876 0.08135 0.30372 0.0
Co476 Co 0.92772 0.19222 0.29412 0.0
Co477 Co 0.92309 0.19812 0.41475 0.0
C478 C 0.91209 0.17766 0.36931 0.0
O479 O 0.9172 0.17971 0.32307 0.0
O480 O 0.9136 0.18412 0.40716 0.0
C481 C 0.92822 0.18276 0.18852 0.0
O482 O 0.92057 0.17526 0.21066 0.0
C483 C 0.92159 0.19653 0.54068 0.0
C484 C 0.92286 0.21035 0.56835 0.0
C485 C 0.92206 0.20186 0.58968 0.0
N486 N 0.92212 0.20162 0.49272 0.0
N487 N 0.92271 0.20981 0.50931 0.0
C488 C 0.92194 0.18735 0.53886 0.0
H489 H 0.92507 0.18673 0.49677 0.0
H490 H 0.92628 0.18702 0.57582 0.0
H491 H 0.91449 0.18113 0.54255 0.0
C492 C 0.9472 0.20088 0.34663 0.0
N493 N 0.93777 0.19815 0.34946 0.0
N494 N 0.93595 0.20086 0.40005 0.0
C495 C 0.94423 0.20554 0.43095 0.0
C496 C 0.95162 0.20568 0.39818 0.0
C497 C 0.95191 0.19953 0.29361 0.0
H498 H 0.95072 0.20311 0.25544 0.0
H499 H 0.94847 0.19172 0.28342 0.0
H500 H 0.95977 0.20257 0.29994 0.0
O501 O 0.92248 0.20083 0.27498 0.0
O502 O 0.91954 0.20548 0.3604 0.0
H503 H 0.94174 0.21436 0.49103 0.0
H504 H 0.95258 0.2139 0.50627 0.0
C505 C 0.94502 0.20968 0.49098 0.0
H506 H 0.94104 0.20373 0.52257 0.0
H507 H 0.92341 0.21518 0.48043 0.0
O508 O 0.93264 0.19041 0.21884 0.0
C509 C 0.91961 0.20566 0.30453 0.0
Co510 Co 0.06733 0.47294 0.36621 0.0
Co511 Co 0.05779 0.46846 0.24269 0.0
C512 C 0.06699 0.48839 0.29828 0.0
O513 O 0.06982 0.4859 0.34376 0.0
O514 O 0.06226 0.4823 0.25813 0.0
C515 C 0.0799 0.48114 0.46707 0.0
O516 O 0.08391 0.48939 0.43866 0.0
C517 C 0.06003 0.47167 0.11759 0.0
C518 C 0.04768 0.4585 0.08093 0.0
C519 C 0.05606 0.46687 0.06541 0.0
N520 N 0.05445 0.46624 0.16197 0.0
N521 N 0.04697 0.45846 0.13988 0.0
C522 C 0.069 0.48125 0.12593 0.0
H523 H 0.06737 0.4859 0.15395 0.0
H524 H 0.07454 0.48022 0.1488 0.0
H525 H 0.0719 0.48508 0.08383 0.0
C526 C 0.0785 0.46478 0.31248 0.0
N527 N 0.0719 0.46764 0.30959 0.0
N528 N 0.06766 0.46535 0.258 0.0
C529 C 0.07133 0.46078 0.2266 0.0
C530 C 0.07835 0.46032 0.25999 0.0
C531 C 0.08423 0.46563 0.36632 0.0
H532 H 0.07923 0.46175 0.40304 0.0
H533 H 0.08859 0.47334 0.37896 0.0
H534 H 0.08906 0.46261 0.35951 0.0
O535 O 0.05331 0.46428 0.37909 0.0
O536 O 0.04625 0.46045 0.29173 0.0
H537 H 0.06021 0.45277 0.16359 0.0
H538 H 0.07108 0.45223 0.15177 0.0
C539 C 0.06819 0.45691 0.16582 0.0
H540 H 0.07087 0.46301 0.1346 0.0
H541 H 0.04162 0.45293 0.16511 0.0
O542 O 0.07322 0.47363 0.44275 0.0
C543 C 0.04577 0.45977 0.34749 0.0
Co544 Co 0.52715 0.59401 0.3689 0.0
Co545 Co 0.53175 0.58896 0.24531 0.0
C546 C 0.51177 0.5783 0.29832 0.0
O547 O 0.51435 0.58351 0.34426 0.0
O548 O 0.5178 0.57964 0.25788 0.0
C549 C 0.51798 0.5968 0.46993 0.0
O550 O 0.50991 0.59157 0.44093 0.0
C551 C 0.52868 0.58748 0.12031 0.0
C552 C 0.54162 0.58763 0.08509 0.0
C553 C 0.53317 0.58742 0.06842 0.0
N554 N 0.53421 0.58774 0.16531 0.0
N555 N 0.54187 0.58769 0.14421 0.0
C556 C 0.5199 0.58844 0.12767 0.0
H557 H 0.52004 0.59173 0.17078 0.0
H558 H 0.51943 0.59293 0.09212 0.0
H559 H 0.51337 0.58117 0.12592 0.0
C560 C 0.53545 0.61336 0.31517 0.0
N561 N 0.53259 0.6039 0.31237 0.0
N562 N 0.53486 0.60193 0.26074 0.0
C563 C 0.53941 0.61016 0.22922 0.0
C564 C 0.53989 0.61765 0.26258 0.0
C565 C 0.53457 0.61822 0.36899 0.0
H566 H 0.53837 0.61702 0.40591 0.0
H567 H 0.52685 0.6149 0.38128 0.0
H568 H 0.53766 0.62608 0.36239 0.0
O569 O 0.53582 0.58871 0.38318 0.0
O570 O 0.53953 0.58533 0.29585 0.0
H571 H 0.5474 0.60703 0.16606 0.0
H572 H 0.54778 0.61837 0.15364 0.0
C573 C 0.5432 0.61081 0.16825 0.0
H574 H 0.53705 0.60726 0.13744 0.0
H575 H 0.54742 0.58803 0.17004 0.0
O576 O 0.52597 0.599 0.44566 0.0
C577 C 0.54026 0.58561 0.3516 0.0
Co578 Co 0.40623 0.9321 0.36527 0.0
Co579 Co 0.41132 0.94275 0.24492 0.0
C580 C 0.42193 0.93297 0.29178 0.0
O581 O 0.41665 0.9299 0.33733 0.0
O582 O 0.42067 0.93806 0.25371 0.0
C583 C 0.4052 0.92178 0.4705 0.0
O584 O 0.41257 0.92143 0.44794 0.0
C585 C 0.4129 0.94252 0.11909 0.0
C586 C 0.4121 0.9553 0.09066 0.0
C587 C 0.41263 0.94744 0.06977 0.0
N588 N 0.41252 0.94723 0.16677 0.0
N589 N 0.4122 0.95495 0.14972 0.0
C590 C 0.41226 0.93286 0.12152 0.0
H591 H 0.40907 0.92922 0.1638 0.0
H592 H 0.40782 0.9282 0.08477 0.0
H593 H 0.41962 0.93387 0.11795 0.0
C594 C 0.38689 0.92155 0.3112 0.0
N595 N 0.39634 0.92816 0.30911 0.0
N596 N 0.39833 0.93276 0.25868 0.0
C597 C 0.39012 0.92929 0.22719 0.0
C598 C 0.38261 0.92205 0.25936 0.0
C599 C 0.38202 0.91544 0.36382 0.0
H600 H 0.38316 0.92019 0.40208 0.0
H601 H 0.38538 0.91102 0.37434 0.0
H602 H 0.37416 0.91068 0.35684 0.0
O603 O 0.41162 0.94595 0.38432 0.0
O604 O 0.41491 0.9537 0.29926 0.0
H605 H 0.39305 0.94075 0.16723 0.0
H606 H 0.38194 0.92969 0.15203 0.0
C607 C 0.38949 0.93277 0.16722 0.0
H608 H 0.39328 0.93058 0.13555 0.0
H609 H 0.41166 0.95976 0.17829 0.0
O610 O 0.4011 0.9254 0.44051 0.0
C611 C 0.41469 0.95373 0.35513 0.0
Co612 Co 0.52599 0.93199 0.36481 0.0
Co613 Co 0.53143 0.94231 0.24353 0.0
C614 C 0.51111 0.9328 0.29124 0.0
O615 O 0.51337 0.92987 0.33721 0.0
O616 O 0.51741 0.93772 0.25255 0.0
C617 C 0.51657 0.9213 0.46915 0.0
O618 O 0.50872 0.92053 0.44566 0.0
C619 C 0.52953 0.94193 0.11772 0.0
C620 C 0.54316 0.95459 0.08872 0.0
C621 C 0.53471 0.94676 0.06819 0.0
N622 N 0.53467 0.94666 0.16517 0.0
N623 N 0.54275 0.95431 0.14779 0.0
C624 C 0.52044 0.93233 0.12057 0.0
H625 H 0.51997 0.92872 0.16298 0.0
H626 H 0.52013 0.92761 0.08399 0.0
H627 H 0.51414 0.93343 0.11702 0.0
C628 C 0.53451 0.92113 0.31137 0.0
N629 N 0.53177 0.92782 0.30886 0.0
N630 N 0.53433 0.93229 0.25798 0.0
C631 C 0.53894 0.92865 0.22663 0.0
C632 C 0.53916 0.92144 0.25936 0.0
C633 C 0.53328 0.91512 0.36445 0.0
H634 H 0.53696 0.91993 0.40234 0.0
H635 H 0.5255 0.91076 0.37532 0.0
H636 H 0.5363 0.91028 0.35778 0.0
O637 O 0.5346 0.94587 0.38297 0.0
O638 O 0.5389 0.95334 0.29703 0.0
H639 H 0.54743 0.93991 0.16544 0.0
H640 H 0.54729 0.92873 0.15114 0.0
C641 C 0.54293 0.93193 0.16624 0.0
H642 H 0.5369 0.92973 0.13497 0.0
H643 H 0.54814 0.95911 0.17615 0.0
O644 O 0.5244 0.92536 0.44025 0.0
C645 C 0.53928 0.95354 0.35287 0.0
Co646 Co 0.06793 0.59363 0.36612 0.0
Co647 Co 0.05805 0.58865 0.24339 0.0
C648 C 0.06756 0.57803 0.29426 0.0
O649 O 0.07024 0.58318 0.3404 0.0
O650 O 0.06282 0.57941 0.2544 0.0
C651 C 0.07879 0.5953 0.47023 0.0
O652 O 0.07966 0.58826 0.44711 0.0
C653 C 0.05978 0.5882 0.11812 0.0
C654 C 0.04637 0.58726 0.08477 0.0
C655 C 0.05508 0.58818 0.06715 0.0
N656 N 0.05423 0.58754 0.16387 0.0
N657 N 0.04614 0.58683 0.14389 0.0
C658 C 0.06932 0.58865 0.12417 0.0
H659 H 0.06809 0.58165 0.14153 0.0
H660 H 0.07387 0.59428 0.15657 0.0
H661 H 0.07317 0.59002 0.08176 0.0
C662 C 0.07872 0.61305 0.31308 0.0
N663 N 0.07221 0.60357 0.30998 0.0
N664 N 0.06779 0.60165 0.25895 0.0
C665 C 0.0712 0.60995 0.22834 0.0
C666 C 0.07829 0.61742 0.26146 0.0
C667 C 0.08463 0.61788 0.36645 0.0
H668 H 0.07974 0.61691 0.40358 0.0
H669 H 0.08884 0.61436 0.37875 0.0
H670 H 0.08958 0.6257 0.35933 0.0
O671 O 0.05393 0.58823 0.38186 0.0
O672 O 0.04675 0.58485 0.29478 0.0
H673 H 0.05976 0.60634 0.16669 0.0
H674 H 0.07003 0.61827 0.15667 0.0
C675 C 0.06774 0.61072 0.16862 0.0
H676 H 0.07081 0.60794 0.13563 0.0
H677 H 0.04063 0.58637 0.17056 0.0
O678 O 0.07444 0.59882 0.44179 0.0
C679 C 0.04634 0.58508 0.35056 0.0
Co680 Co 0.40684 0.47334 0.36637 0.0
Co681 Co 0.41189 0.46903 0.24227 0.0
C682 C 0.42266 0.48885 0.29744 0.0
O683 O 0.41742 0.48618 0.34325 0.0
O684 O 0.42129 0.48291 0.25632 0.0
C685 C 0.40359 0.48225 0.46692 0.0
O686 O 0.40836 0.49032 0.4371 0.0
C687 C 0.4129 0.4723 0.11786 0.0
C688 C 0.41336 0.4598 0.08045 0.0
C689 C 0.41303 0.46802 0.06528 0.0
N690 N 0.41313 0.46686 0.16192 0.0
N691 N 0.41354 0.45946 0.13952 0.0
C692 C 0.41148 0.48077 0.12684 0.0
H693 H 0.40844 0.48051 0.17098 0.0
H694 H 0.40661 0.48095 0.09281 0.0
H695 H 0.41856 0.48751 0.1236 0.0
C696 C 0.38759 0.46564 0.31152 0.0
N697 N 0.39698 0.46822 0.30944 0.0
N698 N 0.39896 0.46601 0.25767 0.0
C699 C 0.3908 0.46175 0.22541 0.0
C700 C 0.38335 0.46146 0.25822 0.0
C701 C 0.38289 0.46733 0.36337 0.0
H702 H 0.38189 0.46209 0.39841 0.0
H703 H 0.38765 0.47469 0.38084 0.0
H704 H 0.37579 0.46651 0.35174 0.0
O705 O 0.41203 0.46451 0.37921 0.0
O706 O 0.41538 0.46102 0.29117 0.0
H707 H 0.39459 0.45391 0.16479 0.0
H708 H 0.38236 0.45148 0.15776 0.0
C709 C 0.38991 0.45718 0.16668 0.0
H710 H 0.39219 0.46276 0.132 0.0
H711 H 0.41359 0.45402 0.16446 0.0
O712 O 0.40182 0.47434 0.44337 0.0
C713 C 0.41509 0.46012 0.34679 0.0
Co714 Co 0.26778 0.19425 0.30008 0.0
Co715 Co 0.2769 0.19781 0.42458 0.0
C716 C 0.26757 0.17824 0.36504 0.0
O717 O 0.26502 0.18113 0.32013 0.0
O718 O 0.27224 0.184 0.40668 0.0
C719 C 0.25503 0.18653 0.20014 0.0
O720 O 0.25063 0.1784 0.22973 0.0
C721 C 0.27439 0.19408 0.54917 0.0
C722 C 0.28682 0.20698 0.58758 0.0
C723 C 0.27833 0.19865 0.60199 0.0
N724 N 0.28009 0.19963 0.50553 0.0
N725 N 0.28762 0.20724 0.52865 0.0
C726 C 0.26533 0.18462 0.53951 0.0
H727 H 0.26691 0.18 0.5108 0.0
H728 H 0.25991 0.18585 0.51681 0.0
H729 H 0.26231 0.18066 0.58111 0.0
C730 C 0.25662 0.20229 0.35572 0.0
N731 N 0.26315 0.19933 0.35778 0.0
N732 N 0.26724 0.20124 0.40986 0.0
C733 C 0.26356 0.2057 0.44235 0.0
C734 C 0.25668 0.20643 0.40923 0.0
C735 C 0.25099 0.20176 0.30208 0.0
H736 H 0.25605 0.20571 0.26569 0.0
H737 H 0.24652 0.19411 0.28847 0.0
H738 H 0.24627 0.20489 0.30973 0.0
O739 O 0.28189 0.20278 0.28878 0.0
O740 O 0.28859 0.20592 0.3772 0.0
H741 H 0.27457 0.21319 0.50689 0.0
H742 H 0.26385 0.21403 0.51843 0.0
C743 C 0.2666 0.20924 0.50379 0.0
H744 H 0.26367 0.20299 0.53397 0.0
H745 H 0.29307 0.21281 0.50418 0.0
O746 O 0.26205 0.1939 0.22345 0.0
C747 C 0.2893 0.20696 0.32166 0.0
Co748 Co 0.80804 0.07304 0.29478 0.0
Co749 Co 0.80236 0.07792 0.41534 0.0
C750 C 0.82278 0.0887 0.36846 0.0
O751 O 0.82066 0.08355 0.32233 0.0
O752 O 0.81637 0.08727 0.40651 0.0
C753 C 0.8172 0.07166 0.18941 0.0
O754 O 0.82509 0.07884 0.21182 0.0
C755 C 0.80406 0.07898 0.54122 0.0
C756 C 0.79084 0.07888 0.57022 0.0
C757 C 0.79899 0.07886 0.59072 0.0
N758 N 0.79915 0.07906 0.49376 0.0
N759 N 0.79132 0.07914 0.51116 0.0
C760 C 0.81282 0.0779 0.53837 0.0
H761 H 0.81322 0.07486 0.49539 0.0
H762 H 0.81274 0.07317 0.57423 0.0
H763 H 0.81936 0.08511 0.54336 0.0
C764 C 0.79981 0.05376 0.34992 0.0
N765 N 0.80228 0.06312 0.35114 0.0
N766 N 0.79954 0.06504 0.40134 0.0
C767 C 0.79506 0.05687 0.43337 0.0
C768 C 0.79517 0.04948 0.40213 0.0
C769 C 0.80206 0.04912 0.30005 0.0
H770 H 0.80947 0.05406 0.28379 0.0
H771 H 0.80145 0.04217 0.31341 0.0
H772 H 0.79695 0.04781 0.26354 0.0
O773 O 0.79943 0.07832 0.27627 0.0
O774 O 0.79493 0.08146 0.3616 0.0
H775 H 0.78436 0.04832 0.4988 0.0
H776 H 0.79528 0.05838 0.52666 0.0
C777 C 0.78997 0.05591 0.49028 0.0
H778 H 0.7865 0.06041 0.48951 0.0
H779 H 0.78613 0.079 0.48277 0.0
O780 O 0.80947 0.06788 0.21932 0.0
C781 C 0.79467 0.08129 0.30576 0.0
Co782 Co 0.92708 0.73528 0.29158 0.0
Co783 Co 0.92246 0.72499 0.41281 0.0
C784 C 0.91168 0.73465 0.36659 0.0
O785 O 0.91671 0.73751 0.32003 0.0
O786 O 0.91317 0.72975 0.40487 0.0
C787 C 0.92813 0.74596 0.18808 0.0
O788 O 0.92103 0.7466 0.2124 0.0
C789 C 0.92216 0.72637 0.53796 0.0
C790 C 0.92069 0.71265 0.5698 0.0
C791 C 0.92177 0.72138 0.58831 0.0
N792 N 0.92151 0.72093 0.4916 0.0
N793 N 0.92054 0.71269 0.51061 0.0
C794 C 0.92275 0.73598 0.53306 0.0
H795 H 0.92705 0.73992 0.49396 0.0
H796 H 0.92585 0.74044 0.57291 0.0
H797 H 0.91535 0.73479 0.52697 0.0
C798 C 0.94659 0.74612 0.3436 0.0
N799 N 0.93716 0.73944 0.34662 0.0
N800 N 0.93539 0.73484 0.39697 0.0
C801 C 0.94373 0.73831 0.42713 0.0
C802 C 0.95107 0.74561 0.39449 0.0
C803 C 0.95126 0.75236 0.29114 0.0
H804 H 0.95051 0.74772 0.25302 0.0
H805 H 0.94746 0.75636 0.28012 0.0
H806 H 0.95902 0.75753 0.29874 0.0
O807 O 0.92164 0.72133 0.27382 0.0
O808 O 0.91861 0.71388 0.35987 0.0
H809 H 0.94029 0.72675 0.48758 0.0
H810 H 0.95225 0.737 0.49685 0.0
C811 C 0.94466 0.73472 0.48611 0.0
H812 H 0.94198 0.73774 0.52013 0.0
H813 H 0.91995 0.70719 0.4833 0.0
O814 O 0.93201 0.74192 0.21604 0.0
C815 C 0.91865 0.71365 0.304 0.0
Co816 Co 0.47315 0.0665 0.62816 0.0
Co817 Co 0.46972 0.05764 0.75358 0.0
C818 C 0.48918 0.06668 0.69295 0.0
O819 O 0.48624 0.06914 0.64786 0.0
O820 O 0.48348 0.06217 0.73516 0.0
C821 C 0.48104 0.07911 0.5282 0.0
O822 O 0.4891 0.08336 0.55848 0.0
C823 C 0.4737 0.06054 0.87782 0.0
C824 C 0.46113 0.048 0.91804 0.0
C825 C 0.4694 0.05662 0.93127 0.0
N826 N 0.46808 0.05467 0.83495 0.0
N827 N 0.46066 0.04709 0.85914 0.0
C828 C 0.48302 0.06969 0.86684 0.0
H829 H 0.48771 0.06812 0.83869 0.0
H830 H 0.48159 0.07487 0.84289 0.0
H831 H 0.48701 0.073 0.90797 0.0
C832 C 0.46527 0.07785 0.68342 0.0
N833 N 0.46822 0.07131 0.68581 0.0
N834 N 0.46634 0.06731 0.73813 0.0
C835 C 0.46191 0.07103 0.77039 0.0
C836 C 0.46117 0.07788 0.73692 0.0
C837 C 0.46576 0.08339 0.62944 0.0
H838 H 0.46172 0.07827 0.59348 0.0
H839 H 0.47339 0.08779 0.61531 0.0
H840 H 0.46269 0.08817 0.63696 0.0
O841 O 0.46448 0.0524 0.61811 0.0
O842 O 0.46149 0.04586 0.70701 0.0
H843 H 0.45452 0.06007 0.83537 0.0
H844 H 0.45344 0.07067 0.84588 0.0
C845 C 0.45834 0.06803 0.83184 0.0
H846 H 0.46457 0.0711 0.86224 0.0
H847 H 0.45508 0.0415 0.83544 0.0
O848 O 0.47353 0.07218 0.55105 0.0
C849 C 0.46034 0.04505 0.65154 0.0
Co850 Co 0.93273 0.40578 0.62498 0.0
Co851 Co 0.94243 0.41071 0.74778 0.0
C852 C 0.93342 0.42168 0.69248 0.0
O853 O 0.93038 0.41634 0.64719 0.0
O854 O 0.9382 0.42026 0.73197 0.0
C855 C 0.92026 0.40144 0.52354 0.0
O856 O 0.9163 0.40577 0.55132 0.0
C857 C 0.93925 0.41038 0.87232 0.0
C858 C 0.9526 0.4119 0.91089 0.0
C859 C 0.94348 0.41026 0.92512 0.0
N860 N 0.94545 0.41173 0.82884 0.0
N861 N 0.95349 0.41277 0.85205 0.0
C862 C 0.92947 0.40926 0.86283 0.0
H863 H 0.92947 0.41336 0.82383 0.0
H864 H 0.92412 0.40156 0.85497 0.0
H865 H 0.92718 0.41181 0.90163 0.0
C866 C 0.92115 0.38654 0.68004 0.0
N867 N 0.928 0.39593 0.68184 0.0
N868 N 0.9325 0.39782 0.73253 0.0
C869 C 0.92885 0.3896 0.76404 0.0
C870 C 0.92143 0.38222 0.73227 0.0
C871 C 0.91446 0.3819 0.62934 0.0
H872 H 0.91845 0.38085 0.593 0.0
H873 H 0.91182 0.38672 0.61335 0.0
H874 H 0.9082 0.37483 0.64171 0.0
O875 O 0.94679 0.41103 0.61231 0.0
O876 O 0.95394 0.41404 0.69941 0.0
H877 H 0.94101 0.3936 0.82082 0.0
H878 H 0.93191 0.38103 0.82403 0.0
C879 C 0.93315 0.38847 0.8198 0.0
H880 H 0.9297 0.38986 0.85787 0.0
H881 H 0.95943 0.41374 0.82767 0.0
O882 O 0.92686 0.40053 0.54844 0.0
C883 C 0.95435 0.4139 0.6436 0.0
Co884 Co 0.59453 0.52706 0.63261 0.0
Co885 Co 0.58904 0.53137 0.75538 0.0
C886 C 0.5786 0.5115 0.69896 0.0
O887 O 0.58407 0.51408 0.65416 0.0
O888 O 0.57976 0.51751 0.73917 0.0
C889 C 0.59897 0.51899 0.53149 0.0
O890 O 0.59454 0.51068 0.55913 0.0
C891 C 0.58787 0.52813 0.88051 0.0
C892 C 0.58846 0.54122 0.91674 0.0
C893 C 0.58858 0.53291 0.93258 0.0
N894 N 0.5877 0.53352 0.83592 0.0
N895 N 0.58786 0.54124 0.85775 0.0
C896 C 0.5874 0.51861 0.87246 0.0
H897 H 0.58128 0.51396 0.8434 0.0
H898 H 0.59411 0.51975 0.85093 0.0
H899 H 0.58632 0.51474 0.91459 0.0
C900 C 0.61364 0.53505 0.68885 0.0
N901 N 0.6042 0.53228 0.69036 0.0
N902 N 0.60209 0.53456 0.74151 0.0
C903 C 0.61023 0.5391 0.77384 0.0
C904 C 0.61778 0.53948 0.74168 0.0
C905 C 0.61866 0.53409 0.63609 0.0
H906 H 0.61795 0.53821 0.59914 0.0
H907 H 0.61511 0.5264 0.62276 0.0
H908 H 0.62643 0.53681 0.64459 0.0
O909 O 0.58911 0.53565 0.61902 0.0
O910 O 0.58559 0.53938 0.70579 0.0
H911 H 0.60681 0.54703 0.83569 0.0
H912 H 0.61838 0.54794 0.84805 0.0
C913 C 0.61083 0.54306 0.83419 0.0
H914 H 0.60755 0.53702 0.86593 0.0
H915 H 0.58801 0.54674 0.83234 0.0
O916 O 0.59995 0.52652 0.5565 0.0
C917 C 0.58595 0.5401 0.65004 0.0
Co918 Co 0.73492 0.80776 0.70065 0.0
Co919 Co 0.72493 0.80276 0.57837 0.0
C920 C 0.7342 0.82287 0.62938 0.0
O921 O 0.73699 0.82048 0.67545 0.0
O922 O 0.72948 0.81671 0.58955 0.0
C923 C 0.74623 0.81684 0.80427 0.0
O924 O 0.74789 0.82498 0.7801 0.0
C925 C 0.72591 0.80483 0.45257 0.0
C926 C 0.71288 0.79164 0.42219 0.0
C927 C 0.7211 0.79982 0.40257 0.0
N928 N 0.72081 0.79983 0.49949 0.0
N929 N 0.71294 0.79203 0.48125 0.0
C930 C 0.73574 0.81359 0.45648 0.0
H931 H 0.73902 0.81397 0.50001 0.0
H932 H 0.74052 0.81351 0.42141 0.0
H933 H 0.7351 0.82013 0.45087 0.0
C934 C 0.74633 0.79997 0.645 0.0
N935 N 0.73939 0.80238 0.64363 0.0
N936 N 0.73497 0.79992 0.59261 0.0
C937 C 0.73885 0.79566 0.56015 0.0
C938 C 0.74624 0.79565 0.59199 0.0
C939 C 0.753 0.80198 0.69577 0.0
H940 H 0.74902 0.79681 0.73162 0.0
H941 H 0.75551 0.80936 0.71261 0.0
H942 H 0.75933 0.8013 0.68318 0.0
O943 O 0.72097 0.79899 0.71706 0.0
O944 O 0.71378 0.79506 0.63017 0.0
H945 H 0.72703 0.78738 0.50159 0.0
H946 H 0.73702 0.7853 0.49312 0.0
C947 C 0.73499 0.79086 0.50215 0.0
H948 H 0.738 0.79635 0.4668 0.0
H949 H 0.70783 0.78679 0.50909 0.0
O950 O 0.74136 0.80899 0.77634 0.0
C951 C 0.71339 0.79443 0.68589 0.0
Co952 Co 0.1937 0.92717 0.69397 0.0
Co953 Co 0.19821 0.9218 0.57168 0.0
C954 C 0.17832 0.91107 0.62829 0.0
O955 O 0.18077 0.91661 0.67271 0.0
O956 O 0.18441 0.91228 0.5885 0.0
C957 C 0.18565 0.93154 0.79536 0.0
O958 O 0.17731 0.927 0.76805 0.0
C959 C 0.19524 0.92167 0.44689 0.0
C960 C 0.2073 0.92043 0.40932 0.0
C961 C 0.19969 0.92183 0.39439 0.0
N962 N 0.20017 0.92053 0.49084 0.0
N963 N 0.20729 0.91964 0.46822 0.0
C964 C 0.18644 0.92257 0.45573 0.0
H965 H 0.18221 0.91821 0.49366 0.0
H966 H 0.18866 0.9302 0.46508 0.0
H967 H 0.18177 0.92016 0.41621 0.0
C968 C 0.20135 0.94624 0.63706 0.0
N969 N 0.19878 0.93684 0.6361 0.0
N970 N 0.20123 0.93477 0.58542 0.0
C971 C 0.20573 0.9429 0.553 0.0
C972 C 0.20583 0.9504 0.58426 0.0
C973 C 0.19945 0.95103 0.68751 0.0
H974 H 0.19206 0.94626 0.70446 0.0
H975 H 0.20021 0.95806 0.67448 0.0
H976 H 0.20462 0.95222 0.72337 0.0
O977 O 0.20245 0.92187 0.70731 0.0
O978 O 0.20643 0.91859 0.62058 0.0
H979 H 0.21709 0.95128 0.49092 0.0
H980 H 0.20595 0.94222 0.45923 0.0
C981 C 0.21096 0.94384 0.49666 0.0
H982 H 0.21376 0.93877 0.49608 0.0
H983 H 0.21234 0.91888 0.49304 0.0
O984 O 0.19318 0.9326 0.77007 0.0
C985 C 0.20706 0.91888 0.67636 0.0
Co986 Co 0.07355 0.26545 0.69766 0.0
Co987 Co 0.07867 0.27616 0.57743 0.0
C988 C 0.08947 0.26661 0.62529 0.0
O989 O 0.08416 0.2635 0.67076 0.0
O990 O 0.08814 0.27162 0.58694 0.0
C991 C 0.07234 0.25516 0.80354 0.0
O992 O 0.07975 0.2548 0.78179 0.0
C993 C 0.07992 0.27573 0.45141 0.0
C994 C 0.07951 0.28873 0.42317 0.0
C995 C 0.07966 0.28067 0.40221 0.0
N996 N 0.07989 0.28061 0.49917 0.0
N997 N 0.0798 0.28846 0.48221 0.0
C998 C 0.07901 0.26596 0.45372 0.0
H999 H 0.07604 0.26246 0.49666 0.0
H1000 H 0.07429 0.26129 0.41784 0.0
H1001 H 0.08626 0.26675 0.44829 0.0
C1002 C 0.05443 0.25431 0.64102 0.0
N1003 N 0.06377 0.26129 0.64053 0.0
N1004 N 0.06577 0.26597 0.59038 0.0
C1005 C 0.05766 0.26221 0.55763 0.0
C1006 C 0.05025 0.25464 0.58836 0.0
C1007 C 0.04975 0.24738 0.6906 0.0
H1008 H 0.0547 0.24497 0.70736 0.0
H1009 H 0.04286 0.24101 0.67675 0.0
H1010 H 0.0483 0.25111 0.72691 0.0
O1011 O 0.07867 0.27928 0.71649 0.0
O1012 O 0.082 0.28705 0.63156 0.0
H1013 H 0.04916 0.26421 0.49115 0.0
H1014 H 0.05939 0.26354 0.46447 0.0
C1015 C 0.05677 0.2663 0.50043 0.0
H1016 H 0.06115 0.27427 0.50138 0.0
H1017 H 0.07953 0.2934 0.51087 0.0
O1018 O 0.06832 0.25879 0.77293 0.0
C1019 C 0.08167 0.28706 0.68739 0.0
Co1020 Co 0.19391 0.26624 0.6988 0.0
Co1021 Co 0.19912 0.27629 0.57652 0.0
C1022 C 0.1789 0.26689 0.62653 0.0
O1023 O 0.18121 0.264 0.67244 0.0
O1024 O 0.18515 0.27175 0.58745 0.0
C1025 C 0.18457 0.25462 0.8008 0.0
O1026 O 0.17648 0.25218 0.77294 0.0
C1027 C 0.19644 0.27504 0.45138 0.0
C1028 C 0.20965 0.28769 0.4176 0.0
C1029 C 0.20114 0.27961 0.40006 0.0
N1030 N 0.20189 0.28016 0.49698 0.0
N1031 N 0.20972 0.28779 0.47675 0.0
C1032 C 0.18753 0.26536 0.45758 0.0
H1033 H 0.18752 0.26205 0.50034 0.0
H1034 H 0.187 0.26047 0.4215 0.0
H1035 H 0.1811 0.26628 0.45584 0.0
C1036 C 0.20224 0.25519 0.64544 0.0
N1037 N 0.19952 0.2619 0.64283 0.0
N1038 N 0.20207 0.26633 0.59185 0.0
C1039 C 0.20669 0.26269 0.56068 0.0
C1040 C 0.20689 0.25549 0.59349 0.0
C1041 C 0.20098 0.24915 0.69845 0.0
H1042 H 0.20494 0.25395 0.73587 0.0
H1043 H 0.19322 0.24508 0.71051 0.0
H1044 H 0.20367 0.24406 0.69095 0.0
O1045 O 0.2025 0.2802 0.71462 0.0
O1046 O 0.20677 0.28754 0.62823 0.0
H1047 H 0.21511 0.27404 0.4998 0.0
H1048 H 0.21545 0.26307 0.48678 0.0
C1049 C 0.21084 0.26605 0.50066 0.0
H1050 H 0.20487 0.26365 0.46858 0.0
H1051 H 0.21526 0.29287 0.50321 0.0
O1052 O 0.19257 0.25997 0.77533 0.0
C1053 C 0.20717 0.28783 0.68408 0.0
Co1054 Co 0.73229 0.9269 0.69325 0.0
Co1055 Co 0.72343 0.92199 0.5677 0.0
C1056 C 0.73242 0.91128 0.62564 0.0
O1057 O 0.73491 0.91649 0.67159 0.0
O1058 O 0.72792 0.91268 0.58421 0.0
C1059 C 0.74484 0.93135 0.79369 0.0
O1060 O 0.7491 0.92755 0.76345 0.0
C1061 C 0.72642 0.92123 0.44344 0.0
C1062 C 0.71396 0.92145 0.40326 0.0
C1063 C 0.72257 0.92175 0.39005 0.0
N1064 N 0.72053 0.92095 0.4863 0.0
N1065 N 0.71301 0.92091 0.46214 0.0
C1066 C 0.7355 0.92093 0.45445 0.0
H1067 H 0.73374 0.91434 0.47962 0.0
H1068 H 0.74051 0.92722 0.48156 0.0
H1069 H 0.73909 0.92077 0.4133 0.0
C1070 C 0.74369 0.94632 0.6407 0.0
N1071 N 0.73711 0.93686 0.63707 0.0
N1072 N 0.73314 0.93495 0.58465 0.0
C1073 C 0.73696 0.94322 0.55345 0.0
C1074 C 0.7438 0.95067 0.58784 0.0
C1075 C 0.74918 0.95115 0.69532 0.0
H1076 H 0.74402 0.94979 0.73155 0.0
H1077 H 0.75367 0.94796 0.7081 0.0
H1078 H 0.75385 0.95905 0.68936 0.0
O1079 O 0.7182 0.92146 0.70335 0.0
O1080 O 0.71162 0.91827 0.61454 0.0
H1081 H 0.72619 0.93998 0.48764 0.0
H1082 H 0.73695 0.95156 0.4781 0.0
C1083 C 0.73415 0.94399 0.49183 0.0
H1084 H 0.73718 0.94077 0.46154 0.0
H1085 H 0.70742 0.92088 0.48585 0.0
O1086 O 0.73792 0.93194 0.77077 0.0
C1087 C 0.71084 0.91841 0.67015 0.0
Co1088 Co 0.07268 0.80731 0.69901 0.0
Co1089 Co 0.07777 0.80206 0.57762 0.0
C1090 C 0.08842 0.82232 0.62629 0.0
O1091 O 0.08317 0.81997 0.67206 0.0
O1092 O 0.08712 0.81609 0.58722 0.0
C1093 C 0.07123 0.8165 0.80396 0.0
O1094 O 0.07834 0.8244 0.78112 0.0
C1095 C 0.07938 0.80384 0.45147 0.0
C1096 C 0.07826 0.79009 0.42373 0.0
C1097 C 0.07893 0.79852 0.40244 0.0
N1098 N 0.07895 0.79878 0.49941 0.0
N1099 N 0.07846 0.79064 0.48275 0.0
C1100 C 0.07893 0.81296 0.45336 0.0
H1101 H 0.07583 0.81356 0.49562 0.0
H1102 H 0.07453 0.81323 0.41656 0.0
H1103 H 0.08635 0.81922 0.4494 0.0
C1104 C 0.05338 0.79883 0.64427 0.0
N1105 N 0.06281 0.80157 0.64243 0.0
N1106 N 0.06481 0.79906 0.59166 0.0
C1107 C 0.05662 0.79446 0.55984 0.0
C1108 C 0.04913 0.79421 0.59203 0.0
C1109 C 0.0485 0.80009 0.69673 0.0
H1110 H 0.0493 0.79618 0.73454 0.0
H1111 H 0.0521 0.80785 0.70853 0.0
H1112 H 0.04071 0.79734 0.68872 0.0
O1113 O 0.07803 0.79877 0.71713 0.0
O1114 O 0.08136 0.79463 0.63112 0.0
H1115 H 0.05949 0.78599 0.49909 0.0
H1116 H 0.04843 0.78604 0.48432 0.0
C1117 C 0.05598 0.79045 0.49956 0.0
H1118 H 0.05981 0.79649 0.46824 0.0
H1119 H 0.07783 0.78529 0.51159 0.0
O1120 O 0.06749 0.80874 0.77443 0.0
C1121 C 0.08112 0.79418 0.68693 0.0
Co1122 Co 0.93291 0.52614 0.62859 0.0
Co1123 Co 0.943 0.53126 0.7506 0.0
C1124 C 0.93356 0.51106 0.6996 0.0
O1125 O 0.93065 0.5134 0.65393 0.0
O1126 O 0.93841 0.51728 0.73883 0.0
C1127 C 0.92254 0.51719 0.52299 0.0
O1128 O 0.92221 0.50941 0.54433 0.0
C1129 C 0.94068 0.52974 0.87616 0.0
C1130 C 0.95483 0.54105 0.90955 0.0
C1131 C 0.9456 0.53421 0.92703 0.0
N1132 N 0.94663 0.53389 0.83047 0.0
N1133 N 0.95512 0.54058 0.85056 0.0
C1134 C 0.93054 0.5215 0.87084 0.0
H1135 H 0.92548 0.5243 0.86766 0.0
H1136 H 0.92855 0.51674 0.90991 0.0
H1137 H 0.92968 0.51725 0.83068 0.0
C1138 C 0.92183 0.53437 0.68322 0.0
N1139 N 0.92855 0.53166 0.68518 0.0
N1140 N 0.93323 0.53445 0.73524 0.0
C1141 C 0.92989 0.53938 0.76589 0.0
C1142 C 0.92242 0.53932 0.73451 0.0
C1143 C 0.91499 0.53218 0.63316 0.0
H1144 H 0.91254 0.52481 0.61642 0.0
H1145 H 0.90864 0.53276 0.64659 0.0
H1146 H 0.9188 0.53736 0.59703 0.0
O1147 O 0.94696 0.53478 0.61285 0.0
O1148 O 0.95426 0.53887 0.69956 0.0
H1149 H 0.93384 0.5518 0.82066 0.0
H1150 H 0.93115 0.54101 0.85939 0.0
C1151 C 0.93463 0.5453 0.81949 0.0
H1152 H 0.94241 0.54762 0.82009 0.0
H1153 H 0.96102 0.54498 0.82399 0.0
O1154 O 0.92642 0.52491 0.55299 0.0
C1155 C 0.95458 0.53936 0.64374 0.0
Co1156 Co 0.47426 0.40606 0.62755 0.0
Co1157 Co 0.46936 0.41159 0.74851 0.0
C1158 C 0.48949 0.42203 0.69726 0.0
O1159 O 0.48702 0.41663 0.65217 0.0
O1160 O 0.48336 0.42086 0.7367 0.0
C1161 C 0.4832 0.40377 0.52385 0.0
O1162 O 0.49132 0.4103 0.54795 0.0
C1163 C 0.47159 0.41288 0.87406 0.0
C1164 C 0.45878 0.4134 0.90492 0.0
C1165 C 0.46681 0.41304 0.9243 0.0
N1166 N 0.46662 0.41309 0.82732 0.0
N1167 N 0.45904 0.41356 0.84581 0.0
C1168 C 0.48009 0.41137 0.86979 0.0
H1169 H 0.4803 0.40839 0.82622 0.0
H1170 H 0.47982 0.40642 0.90478 0.0
H1171 H 0.48681 0.41842 0.87523 0.0
C1172 C 0.46615 0.38701 0.68517 0.0
N1173 N 0.46876 0.39642 0.68549 0.0
N1174 N 0.4663 0.39858 0.7359 0.0
C1175 C 0.46185 0.39052 0.76899 0.0
C1176 C 0.4617 0.38295 0.73819 0.0
C1177 C 0.46809 0.38214 0.6353 0.0
H1178 H 0.47543 0.38695 0.61763 0.0
H1179 H 0.46747 0.37521 0.6492 0.0
H1180 H 0.46282 0.38074 0.59965 0.0
O1181 O 0.46565 0.41135 0.61011 0.0
O1182 O 0.46173 0.41503 0.69574 0.0
H1183 H 0.45123 0.38229 0.83549 0.0
H1184 H 0.4624 0.39215 0.86225 0.0
C1185 C 0.457 0.38981 0.82645 0.0
H1186 H 0.45376 0.39452 0.82615 0.0
H1187 H 0.45386 0.4136 0.81818 0.0
O1188 O 0.47536 0.40065 0.55219 0.0
C1189 C 0.46114 0.41457 0.63999 0.0
Co1190 Co 0.59442 0.06666 0.62575 0.0
Co1191 Co 0.58882 0.05738 0.74989 0.0
C1192 C 0.57831 0.06639 0.68917 0.0
O1193 O 0.58386 0.06915 0.6448 0.0
O1194 O 0.57944 0.06173 0.73071 0.0
C1195 C 0.59899 0.07909 0.52502 0.0
O1196 O 0.59482 0.08309 0.55411 0.0
C1197 C 0.58873 0.06089 0.87394 0.0
C1198 C 0.58667 0.04748 0.91482 0.0
C1199 C 0.58846 0.0567 0.92763 0.0
N1200 N 0.58744 0.05456 0.83138 0.0
N1201 N 0.58608 0.0465 0.85596 0.0
C1202 C 0.59012 0.07074 0.86278 0.0
H1203 H 0.58626 0.07076 0.82263 0.0
H1204 H 0.59789 0.07595 0.85601 0.0
H1205 H 0.58749 0.07319 0.90042 0.0
C1206 C 0.61344 0.07821 0.68325 0.0
N1207 N 0.60402 0.07146 0.68419 0.0
N1208 N 0.60185 0.06714 0.73553 0.0
C1209 C 0.60994 0.0708 0.76836 0.0
C1210 C 0.61751 0.07804 0.73673 0.0
C1211 C 0.61835 0.08471 0.63217 0.0
H1212 H 0.61368 0.08739 0.61421 0.0
H1213 H 0.62541 0.09096 0.64485 0.0
H1214 H 0.61947 0.08055 0.59716 0.0
O1215 O 0.58909 0.05256 0.61521 0.0
O1216 O 0.58545 0.04568 0.70321 0.0
H1217 H 0.61814 0.06772 0.83125 0.0
H1218 H 0.60935 0.07026 0.86227 0.0
C1219 C 0.61077 0.06662 0.82544 0.0
H1220 H 0.60551 0.05878 0.82713 0.0
H1221 H 0.58506 0.04045 0.83257 0.0
O1222 O 0.59986 0.0724 0.54895 0.0
C1223 C 0.5859 0.04509 0.64764 0.0
H1224 H 0.11504 0.41453 0.01136 0.0
H1225 H 0.10744 0.4237 0.0452 0.0
H1226 H 0.1238 0.43059 0.20601 0.0
H1227 H 0.13142 0.42144 0.17222 0.0
H1228 H 0.1044 0.4237 0.22429 0.0
H1229 H 0.11893 0.45292 0.0579 0.0
H1230 H 0.11311 0.441 0.02706 0.0
H1231 H 0.12393 0.44514 0.06961 0.0
C1232 C 0.11713 0.41815 0.05343 0.0
C1233 C 0.12385 0.41736 0.08908 0.0
C1234 C 0.11279 0.42338 0.07271 0.0
C1235 C 0.11517 0.42794 0.12776 0.0
C1236 C 0.12191 0.42716 0.1633 0.0
H1237 H 0.09785 0.46862 0.253 0.0
H1238 H 0.10717 0.46086 0.22421 0.0
C1239 C 0.12623 0.42193 0.14406 0.0
C1240 C 0.11029 0.43312 0.14957 0.0
H1241 H 0.10617 0.45161 0.11823 0.0
C1242 C 0.10483 0.42984 0.20132 0.0
C1243 C 0.11097 0.4412 0.11993 0.0
C1244 C 0.11712 0.44535 0.06585 0.0
C1245 C 0.09983 0.43429 0.22348 0.0
C1246 C 0.10019 0.44212 0.19252 0.0
C1247 C 0.10585 0.44555 0.14159 0.0
C1248 C 0.09462 0.44673 0.21168 0.0
C1249 C 0.09428 0.43061 0.28008 0.0
C1250 C 0.0845 0.44136 0.21397 0.0
C1251 C 0.07922 0.44577 0.23055 0.0
C1252 C 0.08397 0.45562 0.24444 0.0
C1253 C 0.09407 0.46099 0.24249 0.0
C1254 C 0.09937 0.45659 0.22594 0.0
H1255 H 0.09688 0.4265 0.3063 0.0
H1256 H 0.09486 0.43663 0.30723 0.0
H1257 H 0.08655 0.42568 0.26989 0.0
H1258 H 0.08069 0.4338 0.2022 0.0
H1259 H 0.07142 0.4415 0.23215 0.0
H1260 H 0.55864 0.62955 0.23304 0.0
H1261 H 0.56625 0.64651 0.20302 0.0
H1262 H 0.53922 0.64589 0.22789 0.0
H1263 H 0.53155 0.62882 0.25671 0.0
H1264 H 0.54825 0.6542 0.12155 0.0
H1265 H 0.57372 0.66992 0.30805 0.0
H1266 H 0.57449 0.66044 0.27094 0.0
H1267 H 0.5636 0.65776 0.30915 0.0
C1268 C 0.55435 0.63307 0.23201 0.0
C1269 C 0.54453 0.62795 0.24677 0.0
C1270 C 0.55871 0.64274 0.2154 0.0
C1271 C 0.55332 0.64748 0.21395 0.0
C1272 C 0.5435 0.64237 0.22897 0.0
H1273 H 0.57924 0.70969 0.17596 0.0
H1274 H 0.56985 0.69293 0.20957 0.0
C1275 C 0.53914 0.63267 0.24556 0.0
C1276 C 0.5579 0.65768 0.19502 0.0
H1277 H 0.57642 0.68025 0.22624 0.0
C1278 C 0.55437 0.65992 0.14463 0.0
C1279 C 0.5658 0.66513 0.22566 0.0
C1280 C 0.56957 0.66323 0.28179 0.0
C1281 C 0.55869 0.6694 0.1231 0.0
C1282 C 0.56686 0.67677 0.15231 0.0
C1283 C 0.57022 0.67457 0.20359 0.0
C1284 C 0.57208 0.68683 0.13038 0.0
C1285 C 0.55445 0.67144 0.06962 0.0
C1286 C 0.57645 0.68895 0.07478 0.0
C1287 C 0.5818 0.69851 0.05559 0.0
C1288 C 0.58293 0.70608 0.09193 0.0
C1289 C 0.5785 0.70395 0.14733 0.0
C1290 C 0.57313 0.69441 0.16645 0.0
H1291 H 0.54681 0.66574 0.0626 0.0
H1292 H 0.55479 0.67852 0.07343 0.0
H1293 H 0.55862 0.67164 0.03027 0.0
H1294 H 0.57592 0.68323 0.0468 0.0
H1295 H 0.58529 0.7 0.01307 0.0
H1296 H 0.30011 0.88458 0.00792 0.0
H1297 H 0.31691 0.89228 0.04145 0.0
H1298 H 0.30748 0.87678 0.20525 0.0
H1299 H 0.2907 0.86913 0.1719 0.0
H1300 H 0.31999 0.89596 0.22127 0.0
H1301 H 0.3347 0.88109 0.05745 0.0
H1302 H 0.32873 0.88693 0.02511 0.0
H1303 H 0.32191 0.8762 0.06825 0.0
C1304 C 0.30167 0.88271 0.05061 0.0
C1305 C 0.29417 0.87624 0.08727 0.0
C1306 C 0.31125 0.88709 0.06971 0.0
C1307 C 0.31346 0.88499 0.12552 0.0
C1308 C 0.30594 0.87847 0.16195 0.0
H1309 H 0.37149 0.90256 0.25053 0.0
H1310 H 0.35445 0.89324 0.22119 0.0
C1311 C 0.29638 0.87412 0.14296 0.0
C1312 C 0.32354 0.88996 0.14721 0.0
H1313 H 0.34617 0.89409 0.11646 0.0
C1314 C 0.32571 0.89551 0.19856 0.0
C1315 C 0.33095 0.88925 0.11796 0.0
C1316 C 0.32896 0.88297 0.06446 0.0
C1317 C 0.33514 0.90055 0.22077 0.0
C1318 C 0.34263 0.90017 0.19013 0.0
C1319 C 0.34042 0.89444 0.13955 0.0
C1320 C 0.35282 0.90577 0.20944 0.0
C1321 C 0.33697 0.90615 0.27716 0.0
C1322 C 0.35752 0.91588 0.21233 0.0
C1323 C 0.36719 0.92116 0.22939 0.0
C1324 C 0.37232 0.91643 0.24306 0.0
C1325 C 0.36763 0.90633 0.2403 0.0
C1326 C 0.35795 0.90103 0.22338 0.0
H1327 H 0.33027 0.90351 0.30343 0.0
H1328 H 0.34247 0.90568 0.30442 0.0
H1329 H 0.33968 0.91386 0.26667 0.0
H1330 H 0.35376 0.91969 0.20074 0.0
H1331 H 0.37068 0.92896 0.2316 0.0
H1332 H 0.46951 0.09736 0.74634 0.0
H1333 H 0.46189 0.10656 0.78032 0.0
H1334 H 0.43469 0.08007 0.79724 0.0
H1335 H 0.44234 0.0709 0.76411 0.0
H1336 H 0.44642 0.10784 0.73592 0.0
H1337 H 0.43826 0.09209 0.95952 0.0
H1338 H 0.44639 0.0908 0.91038 0.0
H1339 H 0.43355 0.08316 0.90253 0.0
C1340 C 0.4619 0.09355 0.75725 0.0
C1341 C 0.4565 0.08346 0.75359 0.0
C1342 C 0.45757 0.09878 0.77664 0.0
C1343 C 0.44778 0.09397 0.79258 0.0
C1344 C 0.44231 0.0839 0.78671 0.0
H1345 H 0.40521 0.10852 0.90005 0.0
H1346 H 0.41449 0.10086 0.86908 0.0
C1347 C 0.44665 0.07868 0.76756 0.0
C1348 C 0.44324 0.09944 0.81505 0.0
H1349 H 0.43064 0.10104 0.93128 0.0
C1350 C 0.44306 0.10644 0.77885 0.0
C1351 C 0.4389 0.09761 0.87123 0.0
C1352 C 0.43935 0.09058 0.91343 0.0
C1353 C 0.43833 0.11142 0.79655 0.0
C1354 C 0.43378 0.10939 0.85202 0.0
C1355 C 0.43412 0.10253 0.88866 0.0
C1356 C 0.4283 0.11405 0.87195 0.0
C1357 C 0.43797 0.11859 0.75516 0.0
C1358 C 0.43304 0.12396 0.88473 0.0
C1359 C 0.42776 0.12831 0.90254 0.0
C1360 C 0.41769 0.12281 0.90749 0.0
C1361 C 0.41298 0.11288 0.89589 0.0
C1362 C 0.41826 0.10852 0.87839 0.0
H1363 H 0.44039 0.1181 0.71021 0.0
H1364 H 0.43054 0.11743 0.75264 0.0
H1365 H 0.44276 0.126 0.77192 0.0
H1366 H 0.44081 0.1283 0.88079 0.0
H1367 H 0.4315 0.13598 0.9116 0.0
H1368 H 0.91191 0.37527 0.83515 0.0
H1369 H 0.90314 0.35844 0.86802 0.0
H1370 H 0.90913 0.3494 0.70257 0.0
H1371 H 0.9179 0.36625 0.66953 0.0
H1372 H 0.89007 0.33772 0.74116 0.0
H1373 H 0.91646 0.34332 0.91654 0.0
H1374 H 0.9116 0.35127 0.9209 0.0
H1375 H 0.91897 0.35205 0.85929 0.0
C1376 C 0.91133 0.36967 0.80587 0.0
C1377 C 0.91558 0.372 0.74996 0.0
C1378 C 0.90635 0.36008 0.82469 0.0
C1379 C 0.90563 0.3527 0.78808 0.0
C1380 C 0.90963 0.355 0.73151 0.0
H1381 H 0.8918 0.29508 0.88754 0.0
H1382 H 0.89941 0.3119 0.85473 0.0
C1383 C 0.91459 0.36459 0.71261 0.0
C1384 C 0.90083 0.34261 0.80915 0.0
H1385 H 0.90211 0.32809 0.91425 0.0
C1386 C 0.89269 0.33559 0.77897 0.0
C1387 C 0.90436 0.33986 0.85804 0.0
C1388 C 0.91338 0.34699 0.89032 0.0
C1389 C 0.88791 0.3259 0.79678 0.0
C1390 C 0.89128 0.3232 0.84663 0.0
C1391 C 0.89948 0.3302 0.87644 0.0
C1392 C 0.88664 0.31309 0.86733 0.0
C1393 C 0.87942 0.31859 0.7613 0.0
C1394 C 0.877 0.30825 0.8863 0.0
C1395 C 0.87264 0.29864 0.90465 0.0
C1396 C 0.87789 0.29377 0.90445 0.0
C1397 C 0.8876 0.29869 0.88714 0.0
C1398 C 0.89194 0.30827 0.86868 0.0
H1399 H 0.87923 0.32137 0.71691 0.0
H1400 H 0.87962 0.31179 0.75643 0.0
H1401 H 0.87264 0.31689 0.78425 0.0
H1402 H 0.87285 0.31191 0.88684 0.0
H1403 H 0.86516 0.29497 0.91829 0.0
H1404 H 0.70531 0.56907 0.91726 0.0
H1405 H 0.68845 0.56002 0.88371 0.0
H1406 H 0.68777 0.58658 0.87263 0.0
H1407 H 0.7046 0.5956 0.9055 0.0
H1408 H 0.6717 0.55868 0.93051 0.0
H1409 H 0.67925 0.57511 0.70865 0.0
H1410 H 0.68866 0.57615 0.75693 0.0
H1411 H 0.68356 0.58383 0.76688 0.0
C1412 C 0.7015 0.57292 0.90778 0.0
C1413 C 0.70619 0.58299 0.91305 0.0
C1414 C 0.69192 0.56778 0.88862 0.0
C1415 C 0.68694 0.57266 0.87446 0.0
C1416 C 0.69155 0.5827 0.88185 0.0
H1417 H 0.6299 0.55841 0.76529 0.0
H1418 H 0.6468 0.56603 0.79716 0.0
C1419 C 0.70112 0.58783 0.90082 0.0
C1420 C 0.67692 0.56729 0.85213 0.0
H1421 H 0.66271 0.56601 0.73671 0.0
C1422 C 0.66973 0.56021 0.88793 0.0
C1423 C 0.6744 0.56928 0.79643 0.0
C1424 C 0.68188 0.57644 0.75471 0.0
C1425 C 0.66003 0.55529 0.87032 0.0
C1426 C 0.6575 0.55745 0.81524 0.0
C1427 C 0.6647 0.56441 0.77902 0.0
C1428 C 0.64736 0.5528 0.79517 0.0
C1429 C 0.6525 0.54804 0.91141 0.0
C1430 C 0.64217 0.54289 0.78262 0.0
C1431 C 0.63256 0.53856 0.76439 0.0
C1432 C 0.62803 0.54408 0.75868 0.0
C1433 C 0.63327 0.55402 0.77008 0.0
C1434 C 0.64288 0.55836 0.78807 0.0
H1435 H 0.65538 0.54855 0.95646 0.0
H1436 H 0.64615 0.54908 0.91371 0.0
H1437 H 0.65 0.54065 0.89461 0.0
H1438 H 0.64557 0.53852 0.78695 0.0
H1439 H 0.62861 0.53088 0.75547 0.0
H1440 H 0.89273 0.59712 0.88703 0.0
H1441 H 0.90049 0.58804 0.85441 0.0
H1442 H 0.87407 0.56133 0.88666 0.0
H1443 H 0.86623 0.57045 0.91767 0.0
H1444 H 0.90349 0.57484 0.91317 0.0
H1445 H 0.88038 0.55808 0.71757 0.0
H1446 H 0.88058 0.56797 0.75696 0.0
H1447 H 0.87381 0.55588 0.78507 0.0
C1448 C 0.88859 0.58931 0.88667 0.0
C1449 C 0.87888 0.58444 0.90386 0.0
C1450 C 0.89302 0.58414 0.86833 0.0
C1451 C 0.8878 0.57402 0.86703 0.0
C1452 C 0.87816 0.56914 0.886 0.0
H1453 H 0.91351 0.5375 0.83877 0.0
H1454 H 0.90487 0.54573 0.87082 0.0
C1455 C 0.87372 0.57433 0.90416 0.0
C1456 C 0.89253 0.56861 0.84644 0.0
H1457 H 0.89127 0.55265 0.7425 0.0
C1458 C 0.90083 0.56999 0.87584 0.0
C1459 C 0.88912 0.56241 0.79718 0.0
C1460 C 0.88054 0.56104 0.76193 0.0
C1461 C 0.90576 0.56525 0.85772 0.0
C1462 C 0.90217 0.55881 0.8096 0.0
C1463 C 0.89394 0.55752 0.77973 0.0
C1464 C 0.90696 0.55345 0.78921 0.0
C1465 C 0.91488 0.56735 0.88951 0.0
C1466 C 0.91068 0.5548 0.73199 0.0
C1467 C 0.91555 0.55005 0.71352 0.0
C1468 C 0.91673 0.54387 0.75199 0.0
C1469 C 0.91278 0.54234 0.80863 0.0
C1470 C 0.90789 0.54704 0.82698 0.0
H1471 H 0.91802 0.57425 0.91424 0.0
H1472 H 0.9132 0.56148 0.92143 0.0
H1473 H 0.92039 0.56771 0.85839 0.0
H1474 H 0.91001 0.5597 0.70211 0.0
H1475 H 0.91862 0.55142 0.66983 0.0
H1476 H 0.44891 0.36685 0.67812 0.0
H1477 H 0.44103 0.35008 0.71236 0.0
H1478 H 0.45685 0.35949 0.87512 0.0
H1479 H 0.46468 0.37626 0.84109 0.0
H1480 H 0.44859 0.33861 0.74755 0.0
H1481 H 0.42887 0.34412 0.93003 0.0
H1482 H 0.43476 0.35289 0.87247 0.0
H1483 H 0.4417 0.35208 0.93199 0.0
C1484 C 0.45076 0.3653 0.72094 0.0
C1485 C 0.45735 0.3728 0.75718 0.0
C1486 C 0.44624 0.35575 0.74051 0.0
C1487 C 0.44824 0.35357 0.79666 0.0
C1488 C 0.45504 0.36104 0.8322 0.0
H1489 H 0.43182 0.29572 0.92153 0.0
H1490 H 0.44088 0.31268 0.89056 0.0
C1491 C 0.45953 0.37059 0.81271 0.0
C1492 C 0.44314 0.34348 0.81811 0.0
H1493 H 0.42803 0.32892 0.9257 0.0
C1494 C 0.44409 0.33648 0.78649 0.0
C1495 C 0.43718 0.34071 0.8685 0.0
C1496 C 0.43547 0.34782 0.90248 0.0
C1497 C 0.4393 0.32678 0.80416 0.0
C1498 C 0.43354 0.32406 0.85542 0.0
C1499 C 0.43253 0.33105 0.88679 0.0
C1500 C 0.42818 0.31393 0.87602 0.0
C1501 C 0.44024 0.31949 0.76699 0.0
C1502 C 0.41808 0.30913 0.88005 0.0
C1503 C 0.41294 0.29953 0.89833 0.0
C1504 C 0.41782 0.29457 0.91276 0.0
C1505 C 0.42793 0.29942 0.91022 0.0
C1506 C 0.43308 0.30905 0.8921 0.0
H1507 H 0.44288 0.32228 0.72211 0.0
H1508 H 0.4455 0.31781 0.7878 0.0
H1509 H 0.43322 0.31268 0.76333 0.0
H1510 H 0.41417 0.31279 0.86833 0.0
H1511 H 0.40514 0.29594 0.90085 0.0
H1512 H 0.70459 0.10851 0.89625 0.0
H1513 H 0.68769 0.10072 0.86456 0.0
H1514 H 0.68756 0.12727 0.89437 0.0
H1515 H 0.70456 0.13513 0.92486 0.0
H1516 H 0.67145 0.09815 0.92452 0.0
H1517 H 0.67813 0.12041 0.72413 0.0
H1518 H 0.68771 0.1201 0.7641 0.0
H1519 H 0.68263 0.12716 0.79098 0.0
C1520 C 0.70093 0.11266 0.8957 0.0
C1521 C 0.70583 0.12242 0.91202 0.0
C1522 C 0.6913 0.10822 0.87787 0.0
C1523 C 0.68644 0.11347 0.87613 0.0
C1524 C 0.69125 0.12315 0.89422 0.0
H1525 H 0.62418 0.08779 0.8393 0.0
H1526 H 0.64092 0.09668 0.87376 0.0
C1527 C 0.7009 0.1276 0.912 0.0
C1528 C 0.67632 0.10874 0.85548 0.0
H1529 H 0.66181 0.10947 0.74803 0.0
C1530 C 0.66933 0.10063 0.88601 0.0
C1531 C 0.67362 0.11192 0.80475 0.0
C1532 C 0.68091 0.12032 0.76866 0.0
C1533 C 0.65968 0.09563 0.86737 0.0
C1534 C 0.65694 0.09894 0.81739 0.0
C1535 C 0.66394 0.10701 0.78663 0.0
C1536 C 0.64688 0.09396 0.79563 0.0
C1537 C 0.65256 0.08672 0.90049 0.0
C1538 C 0.64473 0.08974 0.73959 0.0
C1539 C 0.63519 0.0847 0.71982 0.0
C1540 C 0.62767 0.08385 0.75569 0.0
C1541 C 0.62986 0.08826 0.81115 0.0
C1542 C 0.63939 0.09332 0.83087 0.0
H1543 H 0.65624 0.08382 0.92824 0.0
H1544 H 0.64816 0.08855 0.92968 0.0
H1545 H 0.64761 0.08097 0.86986 0.0
H1546 H 0.65042 0.09018 0.71171 0.0
H1547 H 0.63366 0.08126 0.67716 0.0
H1548 H 0.53054 0.90191 0.25214 0.0
H1549 H 0.538 0.89234 0.22286 0.0
H1550 H 0.56529 0.91853 0.19971 0.0
H1551 H 0.5579 0.92804 0.23047 0.0
H1552 H 0.54684 0.89285 0.11756 0.0
H1553 H 0.57253 0.90231 0.3024 0.0
H1554 H 0.56261 0.90464 0.30401 0.0
H1555 H 0.57354 0.91267 0.26542 0.0
C1556 C 0.53815 0.90557 0.24135 0.0
C1557 C 0.54368 0.91567 0.2433 0.0
C1558 C 0.54239 0.90013 0.22447 0.0
C1559 C 0.55222 0.90472 0.20977 0.0
C1560 C 0.55774 0.91483 0.21189 0.0
H1561 H 0.58317 0.8834 0.00514 0.0
H1562 H 0.57397 0.89092 0.03978 0.0
C1563 C 0.55351 0.92025 0.2289 0.0
C1564 C 0.55665 0.89899 0.19034 0.0
H1565 H 0.57507 0.89468 0.21979 0.0
C1566 C 0.55296 0.89319 0.14012 0.0
C1567 C 0.56456 0.89934 0.22031 0.0
C1568 C 0.56849 0.905 0.27636 0.0
C1569 C 0.55714 0.88793 0.11812 0.0
C1570 C 0.56533 0.88863 0.14657 0.0
C1571 C 0.56885 0.89423 0.19768 0.0
C1572 C 0.57042 0.88369 0.12404 0.0
C1573 C 0.5527 0.8816 0.065 0.0
C1574 C 0.57158 0.87724 0.16016 0.0
C1575 C 0.57687 0.873 0.14054 0.0
C1576 C 0.5811 0.87516 0.08458 0.0
C1577 C 0.57984 0.88152 0.04813 0.0
C1578 C 0.57458 0.88579 0.06783 0.0
H1579 H 0.54506 0.87969 0.059 0.0
H1580 H 0.55676 0.88554 0.02522 0.0
H1581 H 0.55302 0.87484 0.06846 0.0
H1582 H 0.56846 0.87554 0.20373 0.0
H1583 H 0.57771 0.86808 0.16928 0.0
H1584 H 0.11442 0.70019 0.01438 0.0
H1585 H 0.10661 0.68339 0.04816 0.0
H1586 H 0.12344 0.6926 0.20735 0.0
H1587 H 0.1312 0.70939 0.1738 0.0
H1588 H 0.11413 0.67169 0.07945 0.0
H1589 H 0.09577 0.67759 0.26829 0.0
H1590 H 0.1014 0.68632 0.21023 0.0
H1591 H 0.10862 0.68541 0.26754 0.0
C1592 C 0.11651 0.69859 0.05625 0.0
C1593 C 0.12336 0.70603 0.0917 0.0
C1594 C 0.11203 0.68902 0.07558 0.0
C1595 C 0.11432 0.68678 0.13069 0.0
C1596 C 0.1214 0.6942 0.16528 0.0
H1597 H 0.09775 0.62866 0.25131 0.0
H1598 H 0.10688 0.64567 0.22117 0.0
C1599 C 0.12585 0.70376 0.14606 0.0
C1600 C 0.10923 0.6767 0.1522 0.0
H1601 H 0.09464 0.66228 0.2621 0.0
C1602 C 0.10987 0.66962 0.11938 0.0
C1603 C 0.10357 0.67401 0.2039 0.0
C1604 C 0.1022 0.6812 0.23931 0.0
C1605 C 0.10505 0.65992 0.13711 0.0
C1606 C 0.09961 0.65728 0.18964 0.0
C1607 C 0.09892 0.66435 0.22222 0.0
C1608 C 0.09424 0.64715 0.2103 0.0
C1609 C 0.10564 0.65255 0.0987 0.0
C1610 C 0.08417 0.64248 0.2163 0.0
C1611 C 0.079 0.63285 0.23408 0.0
C1612 C 0.08382 0.62775 0.24603 0.0
C1613 C 0.09391 0.63248 0.24184 0.0
C1614 C 0.09909 0.64214 0.22421 0.0
H1615 H 0.10806 0.65532 0.05351 0.0
H1616 H 0.11093 0.65075 0.11781 0.0
H1617 H 0.09855 0.64581 0.09605 0.0
H1618 H 0.08029 0.64625 0.2063 0.0
H1619 H 0.07122 0.62935 0.23794 0.0
H1620 H 0.36745 0.4484 0.31878 0.0
H1621 H 0.35058 0.44052 0.28629 0.0
H1622 H 0.35945 0.45695 0.12557 0.0
H1623 H 0.37631 0.46483 0.15798 0.0
H1624 H 0.33885 0.44828 0.25332 0.0
H1625 H 0.34437 0.4288 0.06922 0.0
H1626 H 0.3531 0.43455 0.12717 0.0
H1627 H 0.35231 0.44164 0.06862 0.0
C1628 C 0.36576 0.4504 0.27688 0.0
C1629 C 0.37313 0.45718 0.2407 0.0
C1630 C 0.35615 0.44588 0.2583 0.0
C1631 C 0.3538 0.44805 0.20317 0.0
C1632 C 0.36114 0.45504 0.16775 0.0
H1633 H 0.29584 0.4311 0.07838 0.0
H1634 H 0.31281 0.4403 0.10931 0.0
C1635 C 0.37074 0.45954 0.1863 0.0
C1636 C 0.34369 0.44288 0.18235 0.0
H1637 H 0.32905 0.42762 0.0755 0.0
C1638 C 0.33669 0.44377 0.21444 0.0
C1639 C 0.3409 0.43691 0.13201 0.0
C1640 C 0.34803 0.43532 0.09746 0.0
C1641 C 0.32697 0.4389 0.19721 0.0
C1642 C 0.32422 0.4331 0.14612 0.0
C1643 C 0.33121 0.43216 0.11431 0.0
C1644 C 0.31407 0.42766 0.12609 0.0
C1645 C 0.31968 0.43981 0.23456 0.0
C1646 C 0.30928 0.41755 0.12361 0.0
C1647 C 0.29966 0.41233 0.1056 0.0
C1648 C 0.2947 0.41715 0.08978 0.0
C1649 C 0.29955 0.42727 0.09084 0.0
C1650 C 0.30918 0.4325 0.10885 0.0
H1651 H 0.32254 0.44264 0.27903 0.0
H1652 H 0.3178 0.44488 0.21317 0.0
H1653 H 0.31296 0.43273 0.23921 0.0
H1654 H 0.31295 0.41369 0.13627 0.0
H1655 H 0.29607 0.40453 0.10424 0.0
H1656 H 0.80256 0.76443 0.40607 0.0
H1657 H 0.7952 0.77403 0.43655 0.0
H1658 H 0.76794 0.74788 0.46148 0.0
H1659 H 0.77523 0.73833 0.42963 0.0
H1660 H 0.76619 0.76207 0.40322 0.0
H1661 H 0.7881 0.7765 0.60595 0.0
H1662 H 0.79499 0.77875 0.5397 0.0
H1663 H 0.78755 0.76658 0.56502 0.0
C1664 C 0.79499 0.76078 0.41779 0.0
C1665 C 0.78945 0.75068 0.41634 0.0
C1666 C 0.79082 0.76624 0.43561 0.0
C1667 C 0.78107 0.76164 0.4524 0.0
C1668 C 0.77549 0.75155 0.4492 0.0
H1669 H 0.74956 0.78285 0.65184 0.0
H1670 H 0.75851 0.77504 0.61735 0.0
C1671 C 0.77965 0.74611 0.43127 0.0
C1672 C 0.77663 0.7673 0.47318 0.0
H1673 H 0.77766 0.78247 0.58192 0.0
C1674 C 0.76871 0.76655 0.4422 0.0
C1675 C 0.77985 0.77303 0.52452 0.0
C1676 C 0.78803 0.77372 0.56115 0.0
C1677 C 0.76392 0.7714 0.46107 0.0
C1678 C 0.76728 0.7773 0.51168 0.0
C1679 C 0.77518 0.77802 0.54282 0.0
C1680 C 0.76246 0.78251 0.53395 0.0
C1681 C 0.75516 0.76995 0.42753 0.0
C1682 C 0.76196 0.78948 0.49914 0.0
C1683 C 0.75686 0.79392 0.51877 0.0
C1684 C 0.75229 0.79154 0.5737 0.0
C1685 C 0.7531 0.78484 0.60949 0.0
C1686 C 0.75817 0.78037 0.58976 0.0
H1687 H 0.75214 0.76342 0.39927 0.0
H1688 H 0.74943 0.76927 0.45791 0.0
H1689 H 0.75723 0.77628 0.39879 0.0
H1690 H 0.7654 0.79139 0.45649 0.0
H1691 H 0.75641 0.79915 0.49077 0.0
H1692 H 0.23612 0.03771 0.40121 0.0
H1693 H 0.227 0.02072 0.43189 0.0
H1694 H 0.2537 0.02071 0.45786 0.0
H1695 H 0.26277 0.03758 0.42569 0.0
H1696 H 0.24001 0.00457 0.39939 0.0
H1697 H 0.22458 0.01111 0.60076 0.0
H1698 H 0.22215 0.01559 0.5345 0.0
H1699 H 0.23435 0.02073 0.56033 0.0
C1700 C 0.23999 0.03402 0.41327 0.0
C1701 C 0.25011 0.0389 0.41191 0.0
C1702 C 0.23481 0.02438 0.43122 0.0
C1703 C 0.23969 0.01952 0.44828 0.0
C1704 C 0.2498 0.02435 0.44537 0.0
H1705 H 0.2185 0.96644 0.64552 0.0
H1706 H 0.22647 0.98325 0.61189 0.0
C1707 C 0.25497 0.03396 0.42729 0.0
C1708 C 0.2343 0.00939 0.46875 0.0
H1709 H 0.21898 0.99478 0.57551 0.0
C1710 C 0.23541 0.00242 0.43786 0.0
C1711 C 0.22841 0.00664 0.51945 0.0
C1712 C 0.22735 0.01391 0.5561 0.0
C1713 C 0.23072 0.99275 0.45605 0.0
C1714 C 0.22463 0.98996 0.50584 0.0
C1715 C 0.22358 0.99694 0.53702 0.0
C1716 C 0.21946 0.97985 0.52699 0.0
C1717 C 0.23253 0.98566 0.42259 0.0
C1718 C 0.21273 0.97242 0.49091 0.0
C1719 C 0.20819 0.96286 0.51007 0.0
C1720 C 0.21022 0.96058 0.56583 0.0
C1721 C 0.21675 0.96804 0.60258 0.0
C1722 C 0.22132 0.97761 0.58333 0.0
H1723 H 0.23919 0.98937 0.39565 0.0
H1724 H 0.23316 0.98058 0.4529 0.0
H1725 H 0.22638 0.9814 0.39254 0.0
H1726 H 0.21104 0.97402 0.4478 0.0
H1727 H 0.2031 0.95722 0.48125 0.0
H1728 H 0.04371 0.24488 0.48566 0.0
H1729 H 0.02697 0.23576 0.4513 0.0
H1730 H 0.0173 0.24189 0.61393 0.0
H1731 H 0.03404 0.25094 0.64857 0.0
H1732 H 0.00589 0.22297 0.57796 0.0
H1733 H 0.01167 0.24836 0.39593 0.0
H1734 H 0.0196 0.24345 0.39412 0.0
H1735 H 0.02038 0.25117 0.45377 0.0
C1736 C 0.03799 0.24424 0.51398 0.0
C1737 C 0.04011 0.24862 0.56952 0.0
C1738 C 0.02846 0.23908 0.4943 0.0
C1739 C 0.02092 0.23831 0.52963 0.0
C1740 C 0.02302 0.24244 0.58592 0.0
H1741 H 0.96362 0.2245 0.42532 0.0
H1742 H 0.9805 0.23208 0.45691 0.0
C1743 C 0.03255 0.24757 0.60572 0.0
C1744 C 0.01086 0.23333 0.50765 0.0
H1745 H 0.99644 0.23406 0.39976 0.0
C1746 C 0.00381 0.22537 0.53898 0.0
C1747 C 0.00817 0.23658 0.45721 0.0
C1748 C 0.01532 0.24541 0.42355 0.0
C1749 C 0.99412 0.22054 0.52108 0.0
C1750 C 0.99147 0.22365 0.46984 0.0
C1751 C 0.99852 0.23163 0.43865 0.0
C1752 C 0.98133 0.21903 0.44936 0.0
C1753 C 0.98677 0.21233 0.5581 0.0
C1754 C 0.97627 0.20924 0.43356 0.0
C1755 C 0.96662 0.2049 0.41602 0.0
C1756 C 0.96194 0.21032 0.41372 0.0
C1757 C 0.96708 0.22017 0.42764 0.0
C1758 C 0.9767 0.22449 0.4454 0.0
H1759 H 0.98953 0.21241 0.60297 0.0
H1760 H 0.98 0.21262 0.56182 0.0
H1761 H 0.98501 0.20538 0.53714 0.0
H1762 H 0.97978 0.20494 0.43502 0.0
H1763 H 0.96277 0.1973 0.40512 0.0
H1764 H 0.22588 0.26229 0.57198 0.0
H1765 H 0.23358 0.25302 0.54167 0.0
H1766 H 0.20606 0.22673 0.55029 0.0
H1767 H 0.19834 0.23604 0.58035 0.0
H1768 H 0.23327 0.23684 0.60323 0.0
H1769 H 0.21661 0.22728 0.38105 0.0
H1770 H 0.21714 0.23705 0.42371 0.0
H1771 H 0.20857 0.22479 0.44211 0.0
C1772 C 0.22151 0.25453 0.56729 0.0
C1773 C 0.21155 0.24984 0.57783 0.0
C1774 C 0.22589 0.24926 0.55017 0.0
C1775 C 0.22035 0.23922 0.54305 0.0
C1776 C 0.21041 0.23449 0.55476 0.0
H1777 H 0.23719 0.19808 0.41836 0.0
H1778 H 0.22796 0.20568 0.45222 0.0
C1779 C 0.20604 0.23978 0.57217 0.0
C1780 C 0.22505 0.23376 0.52347 0.0
H1781 H 0.22677 0.22117 0.40762 0.0
C1782 C 0.23185 0.23339 0.56055 0.0
C1783 C 0.22311 0.22923 0.46791 0.0
C1784 C 0.21601 0.22962 0.42601 0.0
C1785 C 0.23679 0.22862 0.54349 0.0
C1786 C 0.23505 0.22431 0.48725 0.0
C1787 C 0.22811 0.22451 0.4506 0.0
C1788 C 0.24055 0.21977 0.46516 0.0
C1789 C 0.24376 0.22814 0.58612 0.0
C1790 C 0.25062 0.22524 0.45978 0.0
C1791 C 0.25585 0.22092 0.44067 0.0
C1792 C 0.25108 0.21108 0.42627 0.0
C1793 C 0.24099 0.20568 0.42959 0.0
C1794 C 0.23574 0.20999 0.44892 0.0
H1795 H 0.24218 0.22922 0.6321 0.0
H1796 H 0.24354 0.22111 0.58314 0.0
H1797 H 0.2512 0.23395 0.5756 0.0
H1798 H 0.25445 0.23285 0.47055 0.0
H1799 H 0.26364 0.22523 0.43747 0.0
H1800 H 0.73719 0.96269 0.5566 0.0
H1801 H 0.74673 0.97958 0.52548 0.0
H1802 H 0.77293 0.97878 0.55569 0.0
H1803 H 0.76335 0.96178 0.58538 0.0
H1804 H 0.7605 0.99551 0.5855 0.0
H1805 H 0.77615 0.98856 0.38656 0.0
H1806 H 0.7661 0.97906 0.42594 0.0
H1807 H 0.77817 0.98389 0.45345 0.0
C1808 C 0.74499 0.96614 0.55619 0.0
C1809 C 0.74958 0.96098 0.57236 0.0
C1810 C 0.75042 0.97577 0.5387 0.0
C1811 C 0.76053 0.98037 0.53723 0.0
C1812 C 0.76514 0.9753 0.55525 0.0
H1813 H 0.79797 0.04262 0.50484 0.0
H1814 H 0.78998 0.0258 0.5381 0.0
C1815 C 0.75969 0.96565 0.5726 0.0
C1816 C 0.76619 0.99051 0.5171 0.0
H1817 H 0.78193 0.00492 0.41134 0.0
C1818 C 0.7652 0.99758 0.54749 0.0
C1819 C 0.77221 0.99314 0.467 0.0
C1820 C 0.77318 0.98577 0.43092 0.0
C1821 C 0.77009 0.00725 0.52931 0.0
C1822 C 0.77629 0.00993 0.48005 0.0
C1823 C 0.77725 0.00285 0.44943 0.0
C1824 C 0.78161 0.02001 0.45868 0.0
C1825 C 0.76839 0.01446 0.56211 0.0
C1826 C 0.77982 0.02227 0.4022 0.0
C1827 C 0.78443 0.03185 0.38307 0.0
C1828 C 0.79089 0.03929 0.42013 0.0
C1829 C 0.79291 0.03699 0.47584 0.0
C1830 C 0.78834 0.02742 0.49488 0.0
H1831 H 0.76169 0.01086 0.58881 0.0
H1832 H 0.77452 0.01868 0.59229 0.0
H1833 H 0.76787 0.01956 0.53136 0.0
H1834 H 0.77467 0.01665 0.37354 0.0
H1835 H 0.78271 0.03347 0.34008 0.0
H1836 H 0.96176 0.76496 0.41208 0.0
H1837 H 0.97875 0.77424 0.44283 0.0
H1838 H 0.98035 0.74812 0.44285 0.0
H1839 H 0.96344 0.7389 0.41151 0.0
H1840 H 0.98674 0.77113 0.54671 0.0
H1841 H 0.00402 0.76711 0.34597 0.0
H1842 H 0.99179 0.76488 0.34669 0.0
H1843 H 0.99444 0.75593 0.3742 0.0
C1844 C 0.96582 0.76127 0.4181 0.0
C1845 C 0.96139 0.75127 0.40974 0.0
C1846 C 0.97547 0.76654 0.43575 0.0
C1847 C 0.98082 0.76187 0.44453 0.0
C1848 C 0.97639 0.75188 0.43542 0.0
H1849 H 0.03699 0.77536 0.56659 0.0
H1850 H 0.02024 0.76793 0.53242 0.0
C1851 C 0.96675 0.74662 0.41795 0.0
C1852 C 0.9909 0.76733 0.46563 0.0
H1853 H 0.01388 0.77292 0.4314 0.0
C1854 C 0.9927 0.77162 0.52136 0.0
C1855 C 0.99864 0.76793 0.43236 0.0
C1856 C 0.99717 0.7638 0.37124 0.0
C1857 C 0.00202 0.77622 0.54565 0.0
C1858 C 0.00972 0.77666 0.51281 0.0
C1859 C 0.00794 0.77253 0.45658 0.0
C1860 C 0.01966 0.78114 0.53633 0.0
C1861 C 0.00347 0.78027 0.60699 0.0
C1862 C 0.02486 0.79101 0.55003 0.0
C1863 C 0.0344 0.79524 0.56961 0.0
C1864 C 0.03889 0.78967 0.57511 0.0
C1865 C 0.03366 0.77978 0.56223 0.0
C1866 C 0.02413 0.77555 0.54279 0.0
H1867 H 0.99654 0.77736 0.6312 0.0
H1868 H 0.0084 0.77864 0.63239 0.0
H1869 H 0.00677 0.78823 0.60452 0.0
H1870 H 0.0216 0.79548 0.54438 0.0
H1871 H 0.03836 0.8029 0.57905 0.0
H1872 H 0.1699 0.40907 0.94198 0.0
H1873 H 0.18613 0.4112 0.94273 0.0
H1874 H 0.1803 0.39663 0.10961 0.0
H1875 H 0.16412 0.39459 0.10988 0.0
H1876 H 0.19871 0.41323 0.10245 0.0
H1877 H 0.19122 0.38892 0.91115 0.0
H1878 H 0.18909 0.39877 0.89879 0.0
H1879 H 0.18178 0.38953 0.95074 0.0
C1880 C 0.17208 0.40636 0.97904 0.0
C1881 C 0.16566 0.40157 0.02559 0.0
C1882 C 0.18134 0.40755 0.97923 0.0
C1883 C 0.18434 0.40392 0.0257 0.0
C1884 C 0.17809 0.39944 0.07317 0.0
H1885 H 0.23175 0.3954 0.11334 0.0
H1886 H 0.21762 0.39741 0.11334 0.0
C1887 C 0.16884 0.39826 0.07314 0.0
C1888 C 0.19387 0.40452 0.02428 0.0
H1889 H 0.20702 0.39654 0.94943 0.0
C1890 C 0.20055 0.40961 0.06893 0.0
C1891 C 0.19624 0.39978 0.98047 0.0
C1892 C 0.1892 0.39387 0.9328 0.0
C1893 C 0.20955 0.4101 0.07092 0.0
C1894 C 0.21185 0.40524 0.0276 0.0
C1895 C 0.20524 0.40029 0.98243 0.0
C1896 C 0.22086 0.40478 0.02968 0.0
C1897 C 0.21654 0.41585 0.11913 0.0
C1898 C 0.22732 0.40817 0.98233 0.0
C1899 C 0.23541 0.40699 0.98199 0.0
C1900 C 0.23712 0.40231 0.02884 0.0
C1901 C 0.2307 0.39907 0.07667 0.0
C1902 C 0.22263 0.40027 0.07696 0.0
H1903 H 0.21492 0.42128 0.13807 0.0
H1904 H 0.21598 0.41089 0.1549 0.0
H1905 H 0.22409 0.41961 0.10277 0.0
H1906 H 0.22604 0.41161 0.94524 0.0
H1907 H 0.24019 0.40956 0.94443 0.0
H1908 H 0.59234 0.76175 0.95656 0.0
H1909 H 0.59057 0.77602 0.96396 0.0
H1910 H 0.60282 0.78158 0.13784 0.0
H1911 H 0.60475 0.76739 0.13076 0.0
H1912 H 0.58092 0.7816 0.04674 0.0
H1913 H 0.62061 0.80643 0.04647 0.0
H1914 H 0.61519 0.79388 0.02643 0.0
H1915 H 0.61625 0.7973 0.10236 0.0
C1916 C 0.5946 0.76595 0.9966 0.0
C1917 C 0.5988 0.76349 0.04278 0.0
C1918 C 0.59356 0.77409 0.00075 0.0
C1919 C 0.59672 0.77992 0.05101 0.0
C1920 C 0.60051 0.77726 0.09821 0.0
H1921 H 0.60381 0.83637 0.12475 0.0
H1922 H 0.60225 0.82045 0.13391 0.0
C1923 C 0.60158 0.76914 0.09411 0.0
C1924 C 0.59641 0.78901 0.05292 0.0
H1925 H 0.61085 0.81347 0.05872 0.0
C1926 C 0.58745 0.78858 0.04947 0.0
C1927 C 0.60495 0.79809 0.05635 0.0
C1928 C 0.61481 0.79901 0.05761 0.0
C1929 C 0.5868 0.79701 0.04984 0.0
C1930 C 0.59535 0.80609 0.05279 0.0
C1931 C 0.6043 0.8065 0.05678 0.0
C1932 C 0.59529 0.8153 0.04972 0.0
C1933 C 0.57697 0.79614 0.04774 0.0
C1934 C 0.59183 0.81766 -0.00049 0.0
C1935 C 0.5927 0.82676 0.99408 0.0
C1936 C 0.59714 0.83371 0.03859 0.0
C1937 C 0.60038 0.83122 0.08952 0.0
C1938 C 0.59949 0.82212 0.09491 0.0
H1939 H 0.57122 0.78889 0.06229 0.0
H1940 H 0.57673 0.80169 0.07572 0.0
H1941 H 0.57536 0.79721 0.00191 0.0
H1942 H 0.58875 0.81258 0.96357 0.0
H1943 H 0.59016 0.82844 0.95419 0.0
H1944 H 0.23194 0.83689 0.11787 0.0
H1945 H 0.2176 0.8209 0.12313 0.0
H1946 H 0.22367 0.81431 0.95027 0.0
H1947 H 0.23812 0.83026 0.94473 0.0
H1948 H 0.20207 0.81412 0.04675 0.0
H1949 H 0.21794 0.79021 0.04431 0.0
H1950 H 0.22496 0.80294 0.06053 0.0
H1951 H 0.22199 0.7989 0.98588 0.0
C1952 C 0.23031 0.83202 0.08115 0.0
C1953 C 0.23617 0.83488 0.03076 0.0
C1954 C 0.22211 0.82287 0.08431 0.0
C1955 C 0.21963 0.81638 0.03739 0.0
C1956 C 0.22555 0.81913 0.98747 0.0
H1957 H 0.16915 0.76191 0.94927 0.0
H1958 H 0.18507 0.77644 0.95281 0.0
C1959 C 0.23378 0.82828 0.98425 0.0
C1960 C 0.21047 0.80705 0.03903 0.0
H1961 H 0.20091 0.78263 0.03215 0.0
C1962 C 0.20182 0.80723 0.04402 0.0
C1963 C 0.21017 0.79809 0.03507 0.0
C1964 C 0.21926 0.79747 0.03166 0.0
C1965 C 0.19286 0.79869 0.04417 0.0
C1966 C 0.19255 0.78972 0.0403 0.0
C1967 C 0.20119 0.78952 0.03528 0.0
C1968 C 0.18328 0.7805 0.04046 0.0
C1969 C 0.18379 0.79935 0.04696 0.0
C1970 C 0.17713 0.77783 0.08928 0.0
C1971 C 0.16803 0.76955 0.08743 0.0
C1972 C 0.16492 0.76376 0.03674 0.0
C1973 C 0.17129 0.76623 0.98889 0.0
C1974 C 0.18039 0.77452 0.9908 0.0
H1975 H 0.18518 0.80669 0.03551 0.0
H1976 H 0.17819 0.79406 0.01678 0.0
H1977 H 0.18086 0.7977 0.09226 0.0
H1978 H 0.17932 0.78226 0.12846 0.0
H1979 H 0.16336 0.76781 0.12531 0.0
H1980 H 0.41154 0.23996 0.04216 0.0
H1981 H 0.41339 0.22573 0.03753 0.0
H1982 H 0.39794 0.21753 0.87333 0.0
H1983 H 0.39614 0.23181 0.87704 0.0
H1984 H 0.398 0.20697 0.03624 0.0
H1985 H 0.42109 0.21396 0.83993 0.0
H1986 H 0.41998 0.22336 0.87665 0.0
H1987 H 0.4107 0.21522 0.82731 0.0
C1988 C 0.40866 0.23523 0.00454 0.0
C1989 C 0.40366 0.23702 0.96008 0.0
C1990 C 0.40973 0.22709 0.00201 0.0
C1991 C 0.40589 0.22063 0.95484 0.0
C1992 C 0.40112 0.22252 0.90957 0.0
H1993 H 0.39485 0.16327 0.8788 0.0
H1994 H 0.39688 0.17944 0.87685 0.0
C1995 C 0.40005 0.23066 0.91201 0.0
C1996 C 0.40611 0.21149 0.95572 0.0
H1997 H 0.41339 0.19797 0.87852 0.0
C1998 C 0.40146 0.20504 0.00211 0.0
C1999 C 0.41056 0.20898 0.91088 0.0
C2000 C 0.41594 0.21577 0.86111 0.0
C2001 C 0.40091 0.19603 0.00418 0.0
C2002 C 0.40532 0.19348 0.9592 0.0
C2003 C 0.41005 0.19996 0.913 0.0
C2004 C 0.40479 0.18398 0.95857 0.0
C2005 C 0.39535 0.18919 0.05348 0.0
C2006 C 0.40879 0.18127 0.00445 0.0
C2007 C 0.40761 0.17201 0.00593 0.0
C2008 C 0.40246 0.16531 0.96124 0.0
C2009 C 0.39881 0.16821 0.91409 0.0
C2010 C 0.39998 0.17746 0.91279 0.0
H2011 H 0.39051 0.19127 0.07601 0.0
H2012 H 0.39094 0.18169 0.03695 0.0
H2013 H 0.4005 0.18928 0.08646 0.0
H2014 H 0.4127 0.18627 0.03961 0.0
H2015 H 0.41059 0.17005 0.04259 0.0
H2016 H 0.76104 0.16963 0.05155 0.0
H2017 H 0.77552 0.18561 0.05002 0.0
H2018 H 0.7831 0.17949 0.88024 0.0
H2019 H 0.76876 0.1635 0.88147 0.0
H2020 H 0.79781 0.18577 0.96491 0.0
H2021 H 0.78242 0.21011 0.95405 0.0
H2022 H 0.7776 0.2011 0.01074 0.0
H2023 H 0.77553 0.19747 0.9351 0.0
C2024 C 0.76571 0.17172 0.01349 0.0
C2025 C 0.76374 0.16526 0.96669 0.0
C2026 C 0.77395 0.18089 0.01258 0.0
C2027 C 0.78032 0.18376 0.96477 0.0
C2028 C 0.77825 0.17742 0.91743 0.0
H2029 H 0.83686 0.23099 0.87913 0.0
H2030 H 0.82084 0.21668 0.87891 0.0
C2031 C 0.77003 0.16828 0.91824 0.0
C2032 C 0.78954 0.19302 0.96593 0.0
H2033 H 0.79933 0.21749 0.96834 0.0
C2034 C 0.79815 0.19271 0.96543 0.0
C2035 C 0.78993 0.20204 0.9672 0.0
C2036 C 0.78089 0.20276 0.96635 0.0
C2037 C 0.80715 0.20118 0.96633 0.0
C2038 C 0.80756 0.21021 0.96657 0.0
C2039 C 0.79897 0.21055 0.9679 0.0
C2040 C 0.8169 0.21936 0.96478 0.0
C2041 C 0.81616 0.20039 0.96788 0.0
C2042 C 0.81983 0.2258 0.01221 0.0
C2043 C 0.82899 0.23405 0.0124 0.0
C2044 C 0.83535 0.236 0.96499 0.0
C2045 C 0.83219 0.22971 0.91654 0.0
C2046 C 0.82305 0.22149 0.91639 0.0
H2047 H 0.81461 0.19314 0.98268 0.0
H2048 H 0.81928 0.2016 0.9231 0.0
H2049 H 0.82166 0.2059 -0.00248 0.0
H2050 H 0.81515 0.22429 0.04982 0.0
H2051 H 0.83116 0.23876 0.05031 0.0
H2052 H 0.76849 0.60406 0.87506 0.0
H2053 H 0.78266 0.60209 0.87068 0.0
H2054 H 0.77529 0.58797 0.03928 0.0
H2055 H 0.76117 0.59001 0.04458 0.0
H2056 H 0.79408 0.60316 0.03254 0.0
H2057 H 0.78578 0.57857 0.84251 0.0
H2058 H 0.78456 0.58892 0.82738 0.0
H2059 H 0.77666 0.58009 0.8797 0.0
C2060 C 0.7698 0.60041 0.91092 0.0
C2061 C 0.7637 0.59723 0.96032 0.0
C2062 C 0.77787 0.59923 0.90809 0.0
C2063 C 0.77996 0.59478 0.95433 0.0
C2064 C 0.77377 0.59138 0.00299 0.0
H2065 H 0.8308 0.59043 0.03838 0.0
H2066 H 0.81455 0.5882 0.03643 0.0
C2067 C 0.7657 0.59255 0.0059 0.0
C2068 C 0.78905 0.59447 0.95439 0.0
H2069 H 0.80203 0.58652 0.87728 0.0
C2070 C 0.79578 0.59943 -0.00102 0.0
C2071 C 0.79126 0.58966 0.91028 0.0
C2072 C 0.78416 0.58393 0.86252 0.0
C2073 C 0.80478 0.59993 -0.0001 0.0
C2074 C 0.80702 0.59518 0.95561 0.0
C2075 C 0.80027 0.59014 0.91123 0.0
C2076 C 0.81649 0.59564 0.95391 0.0
C2077 C 0.81192 0.60583 0.04719 0.0
C2078 C 0.82282 0.60019 0.90689 0.0
C2079 C 0.8321 0.60143 0.90759 0.0
C2080 C 0.83522 0.59811 0.95539 0.0
C2081 C 0.82869 0.59316 0.00116 0.0
C2082 C 0.8194 0.59191 0.00029 0.0
H2083 H 0.81 0.61084 0.06901 0.0
H2084 H 0.81202 0.60091 0.08115 0.0
H2085 H 0.81932 0.6101 0.02885 0.0
H2086 H 0.82068 0.60307 0.87052 0.0
H2087 H 0.83691 0.60522 0.87142 0.0
H2088 H 0.83662 0.74152 0.28845 0.0
H2089 H 0.85264 0.74322 0.29653 0.0
H2090 H 0.84587 0.7313 0.47121 0.0
H2091 H 0.82981 0.72946 0.46349 0.0
H2092 H 0.86787 0.75298 0.38013 0.0
H2093 H 0.85283 0.71326 0.3813 0.0
H2094 H 0.84578 0.71872 0.36015 0.0
H2095 H 0.84802 0.71771 0.43638 0.0
C2096 C 0.83855 0.73932 0.3288 0.0
C2097 C 0.83188 0.73524 0.37506 0.0
C2098 C 0.84771 0.74032 0.33333 0.0
C2099 C 0.85036 0.73724 0.38406 0.0
C2100 C 0.84389 0.73356 0.43127 0.0
H2101 H 0.89944 0.72976 0.46055 0.0
H2102 H 0.88513 0.73143 0.46937 0.0
C2103 C 0.83472 0.73254 0.42679 0.0
C2104 C 0.85972 0.73749 0.38654 0.0
H2105 H 0.86963 0.72297 0.39415 0.0
C2106 C 0.86828 0.74643 0.38329 0.0
C2107 C 0.8602 0.72893 0.39062 0.0
C2108 C 0.85123 0.7191 0.39182 0.0
C2109 C 0.87734 0.74704 0.38447 0.0
C2110 C 0.87781 0.73846 0.38798 0.0
C2111 C 0.86925 0.72954 0.3918 0.0
C2112 C 0.88706 0.73846 0.38534 0.0
C2113 C 0.88632 0.75684 0.38259 0.0
C2114 C 0.89294 0.74193 0.33535 0.0
C2115 C 0.90114 0.74101 0.33016 0.0
C2116 C 0.90356 0.7365 0.37467 0.0
C2117 C 0.89779 0.73326 0.4254 0.0
C2118 C 0.8896 0.7342 0.43056 0.0
H2119 H 0.88484 0.7626 0.39715 0.0
H2120 H 0.8921 0.75706 0.41066 0.0
H2121 H 0.88903 0.75847 0.3368 0.0
H2122 H 0.891 0.74505 0.29936 0.0
H2123 H 0.90539 0.74356 0.29041 0.0
H2124 H 0.27295 0.16983 0.45043 0.0
H2125 H 0.27074 0.15359 0.45054 0.0
H2126 H 0.25527 0.14744 0.28675 0.0
H2127 H 0.25755 0.16373 0.28567 0.0
H2128 H 0.25403 0.13509 0.44596 0.0
H2129 H 0.27751 0.14242 0.25058 0.0
H2130 H 0.27708 0.15189 0.29095 0.0
H2131 H 0.26762 0.14456 0.24024 0.0
C2132 C 0.26902 0.16502 0.41455 0.0
C2133 C 0.26552 0.16813 0.36769 0.0
C2134 C 0.26775 0.15573 0.41479 0.0
C2135 C 0.26299 0.14939 0.36819 0.0
C2136 C 0.25913 0.15231 0.32257 0.0
H2137 H 0.25687 0.09371 0.28023 0.0
H2138 H 0.25487 0.10786 0.28476 0.0
C2139 C 0.26041 0.16161 0.32218 0.0
C2140 C 0.26239 0.13985 0.36642 0.0
H2141 H 0.26998 0.12663 0.28892 0.0
C2142 C 0.25749 0.13322 0.41159 0.0
C2143 C 0.26694 0.13746 0.32156 0.0
C2144 C 0.27266 0.14447 0.2733 0.0
C2145 C 0.25697 0.12419 0.4129 0.0
C2146 C 0.2616 0.12184 0.36835 0.0
C2147 C 0.2664 0.12844 0.32285 0.0
C2148 C 0.26192 0.11275 0.3689 0.0
C2149 C 0.2514 0.11723 0.46161 0.0
C2150 C 0.26649 0.11078 0.41496 0.0
C2151 C 0.26765 0.10269 0.41259 0.0
C2152 C 0.26432 0.09646 0.36381 0.0
C2153 C 0.25953 0.09835 0.31843 0.0
C2154 C 0.25837 0.10643 0.3209 0.0
H2155 H 0.24609 0.1189 0.48187 0.0
H2156 H 0.24752 0.10968 0.44529 0.0
H2157 H 0.2565 0.11776 0.49635 0.0
H2158 H 0.26946 0.11567 0.45185 0.0
H2159 H 0.27139 0.10147 0.44827 0.0
H2160 H 0.90555 0.16241 0.29327 0.0
H2161 H 0.89106 0.14658 0.30296 0.0
H2162 H 0.88562 0.15451 0.47357 0.0
H2163 H 0.90002 0.17042 0.46409 0.0
H2164 H 0.88505 0.13178 0.3883 0.0
H2165 H 0.86099 0.14753 0.38053 0.0
H2166 H 0.87359 0.15433 0.36098 0.0
H2167 H 0.87006 0.15233 0.43684 0.0
C2168 C 0.90133 0.16078 0.33311 0.0
C2169 C 0.90389 0.16774 0.37759 0.0
C2170 C 0.89306 0.15172 0.33857 0.0
C2171 C 0.88719 0.14945 0.3885 0.0
C2172 C 0.88996 0.1562 0.43418 0.0
H2173 H 0.83 0.10104 0.46196 0.0
H2174 H 0.84605 0.11523 0.47167 0.0
C2175 C 0.89821 0.16528 0.42873 0.0
C2176 C 0.87797 0.1402 0.39141 0.0
H2177 H 0.85356 0.13074 0.39494 0.0
C2178 C 0.87815 0.13153 0.38992 0.0
C2179 C 0.869 0.13992 0.39339 0.0
C2180 C 0.86834 0.14901 0.39252 0.0
C2181 C 0.86958 0.12256 0.39063 0.0
C2182 C 0.86062 0.1223 0.39194 0.0
C2183 C 0.86045 0.13097 0.39421 0.0
C2184 C 0.85129 0.11315 0.3886 0.0
C2185 C 0.87019 0.11346 0.39046 0.0
C2186 C 0.84895 0.10725 0.33877 0.0
C2187 C 0.83978 0.09912 0.33299 0.0
C2188 C 0.83275 0.0968 0.37677 0.0
C2189 C 0.83522 0.10262 0.42731 0.0
C2190 C 0.84439 0.11073 0.43301 0.0
H2191 H 0.87734 0.11481 0.40604 0.0
H2192 H 0.86449 0.10782 0.41856 0.0
H2193 H 0.86915 0.11063 0.34499 0.0
H2194 H 0.8541 0.10909 0.30341 0.0
H2195 H 0.83812 0.09483 0.29343 0.0
H2196 H 0.06182 0.49614 0.20803 0.0
H2197 H 0.06375 0.51223 0.20226 0.0
H2198 H 0.07786 0.51932 0.37092 0.0
H2199 H 0.07612 0.50327 0.37679 0.0
H2200 H 0.05582 0.51943 0.28104 0.0
H2201 H 0.09561 0.54302 0.2721 0.0
H2202 H 0.08968 0.53022 0.25755 0.0
H2203 H 0.09135 0.53456 0.33181 0.0
C2204 C 0.06547 0.50115 0.24358 0.0
C2205 C 0.06882 0.49839 0.29291 0.0
C2206 C 0.06656 0.51035 0.24018 0.0
C2207 C 0.07104 0.517 0.28582 0.0
C2208 C 0.07456 0.51436 0.33464 0.0
H2209 H 0.07616 0.57191 0.37416 0.0
H2210 H 0.0775 0.55737 0.36922 0.0
C2211 C 0.07349 0.50516 0.33808 0.0
C2212 C 0.07131 0.52639 0.28429 0.0
H2213 H 0.08641 0.5508 0.28697 0.0
C2214 C 0.06251 0.52629 0.28186 0.0
C2215 C 0.08005 0.53531 0.28579 0.0
C2216 C 0.08972 0.53583 0.28644 0.0
C2217 C 0.06218 0.53488 0.28185 0.0
C2218 C 0.07091 0.54381 0.2832 0.0
C2219 C 0.07973 0.54393 0.28569 0.0
C2220 C 0.07096 0.55308 0.28335 0.0
C2221 C 0.05248 0.53431 0.28194 0.0
C2222 C 0.06711 0.55563 0.23587 0.0
C2223 C 0.06629 0.56392 0.23856 0.0
C2224 C 0.06937 0.56984 0.2887 0.0
C2225 C 0.07367 0.5675 0.33499 0.0
C2226 C 0.07445 0.5592 0.33227 0.0
H2227 H 0.04658 0.52704 0.29502 0.0
H2228 H 0.05247 0.53974 0.31227 0.0
H2229 H 0.05087 0.53583 0.23711 0.0
H2230 H 0.06453 0.55109 0.19724 0.0
H2231 H 0.06303 0.56553 0.2019 0.0
H2232 H 0.50373 0.56536 0.20813 0.0
H2233 H 0.48762 0.55114 0.20442 0.0
H2234 H 0.48093 0.55864 0.37279 0.0
H2235 H 0.49707 0.57281 0.37744 0.0
H2236 H 0.47738 0.53987 0.36679 0.0
H2237 H 0.46093 0.54792 0.17647 0.0
H2238 H 0.47249 0.54911 0.16134 0.0
H2239 H 0.4716 0.55709 0.21321 0.0
C2240 C 0.4988 0.56407 0.24408 0.0
C2241 C 0.50172 0.57021 0.29324 0.0
C2242 C 0.48956 0.55596 0.24164 0.0
C2243 C 0.48305 0.5539 0.28801 0.0
C2244 C 0.48585 0.56014 0.33641 0.0
H2245 H 0.42779 0.50356 0.37616 0.0
H2246 H 0.442 0.51968 0.37293 0.0
C2247 C 0.49507 0.56824 0.33895 0.0
C2248 C 0.47365 0.5448 0.28847 0.0
H2249 H 0.45261 0.53176 0.21251 0.0
C2250 C 0.47192 0.53813 0.33342 0.0
C2251 C 0.46658 0.54254 0.24459 0.0
C2252 C 0.46793 0.54957 0.19642 0.0
C2253 C 0.4634 0.52916 0.33501 0.0
C2254 C 0.45633 0.52688 0.29104 0.0
C2255 C 0.45803 0.53356 0.24621 0.0
C2256 C 0.44726 0.51746 0.29031 0.0
C2257 C 0.46216 0.52209 0.38273 0.0
C2258 C 0.44531 0.51102 0.24369 0.0
C2259 C 0.43716 0.50181 0.24513 0.0
C2260 C 0.4308 0.49889 0.29327 0.0
C2261 C 0.43258 0.50553 0.33871 0.0
C2262 C 0.44072 0.51474 0.3371 0.0
H2263 H 0.46914 0.524 0.40408 0.0
H2264 H 0.45725 0.52213 0.41695 0.0
H2265 H 0.45894 0.51465 0.36496 0.0
H2266 H 0.45026 0.51302 0.20702 0.0
H2267 H 0.43598 0.49691 0.2092 0.0
H2268 H 0.42686 0.92244 0.36396 0.0
H2269 H 0.44117 0.92075 0.35793 0.0
H2270 H 0.44984 0.93761 0.19899 0.0
H2271 H 0.43546 0.93927 0.20406 0.0
H2272 H 0.45247 0.92115 0.19742 0.0
H2273 H 0.46804 0.94379 0.39646 0.0
H2274 H 0.45615 0.9336 0.40614 0.0
H2275 H 0.45796 0.94317 0.35717 0.0
C2276 C 0.43175 0.92573 0.32737 0.0
C2277 C 0.43007 0.93111 0.28491 0.0
C2278 C 0.43994 0.92477 0.32414 0.0
C2279 C 0.44664 0.92921 0.27865 0.0
C2280 C 0.44477 0.93419 0.23465 0.0
H2281 H 0.50373 0.93855 0.20145 0.0
H2282 H 0.4877 0.93682 0.19546 0.0
C2283 C 0.43656 0.93514 0.23773 0.0
C2284 C 0.45581 0.92905 0.27863 0.0
H2285 H 0.47652 0.93654 0.35695 0.0
C2286 C 0.45775 0.92451 0.2322 0.0
C2287 C 0.46267 0.93349 0.32399 0.0
C2288 C 0.46118 0.93887 0.37355 0.0
C2289 C 0.46633 0.92414 0.23053 0.0
C2290 C 0.47318 0.92856 0.27603 0.0
C2291 C 0.47123 0.9331 0.32234 0.0
C2292 C 0.48253 0.92876 0.2764 0.0
C2293 C 0.46793 0.91889 0.18071 0.0
C2294 C 0.48497 0.92484 0.324 0.0
C2295 C 0.49415 0.92587 0.32786 0.0
C2296 C 0.50111 0.93092 0.28429 0.0
C2297 C 0.49855 0.93461 0.23576 0.0
C2298 C 0.48936 0.93357 0.23201 0.0
H2299 H 0.46106 0.9138 0.1585 0.0
H2300 H 0.47275 0.92422 0.1477 0.0
H2301 H 0.47143 0.91482 0.19654 0.0
H2302 H 0.47981 0.92113 0.35885 0.0
H2303 H 0.49585 0.92292 0.36578 0.0
H2304 H 0.49779 0.06191 0.78019 0.0
H2305 H 0.51397 0.064 0.78025 0.0
H2306 H 0.51962 0.07798 0.61145 0.0
H2307 H 0.50338 0.07583 0.61052 0.0
H2308 H 0.52371 0.06311 0.61586 0.0
H2309 H 0.54047 0.08782 0.8046 0.0
H2310 H 0.52908 0.07738 0.82177 0.0
H2311 H 0.52956 0.08605 0.76971 0.0
C2312 C 0.5025 0.06555 0.74337 0.0
C2313 C 0.49927 0.06869 0.69528 0.0
C2314 C 0.51179 0.0668 0.7437 0.0
C2315 C 0.51804 0.07127 0.69624 0.0
C2316 C 0.51492 0.07457 0.64868 0.0
H2317 H 0.57342 0.0759 0.60834 0.0
H2318 H 0.55929 0.07799 0.60947 0.0
C2319 C 0.50563 0.07333 0.64826 0.0
C2320 C 0.52753 0.07177 0.69419 0.0
H2321 H 0.54867 0.07979 0.76908 0.0
C2322 C 0.52922 0.06686 0.6489 0.0
C2323 C 0.53468 0.07663 0.73756 0.0
C2324 C 0.53342 0.08235 0.78587 0.0
C2325 C 0.53774 0.06639 0.64686 0.0
C2326 C 0.54483 0.07113 0.69074 0.0
C2327 C 0.54321 0.07618 0.73552 0.0
C2328 C 0.55378 0.07057 0.69205 0.0
C2329 C 0.53891 0.06053 0.59902 0.0
C2330 C 0.55555 0.06603 0.73919 0.0
C2331 C 0.56364 0.06488 0.73894 0.0
C2332 C 0.57014 0.06827 0.69149 0.0
C2333 C 0.56852 0.07313 0.64532 0.0
C2334 C 0.56043 0.07429 0.64572 0.0
H2335 H 0.53195 0.05559 0.57717 0.0
H2336 H 0.54394 0.06548 0.56521 0.0
H2337 H 0.54199 0.05619 0.61686 0.0
H2338 H 0.55052 0.06315 0.77551 0.0
H2339 H 0.56468 0.06115 0.7754 0.0
H2340 H 0.93801 0.50317 0.79271 0.0
H2341 H 0.93645 0.4872 0.7983 0.0
H2342 H 0.92372 0.48044 0.62567 0.0
H2343 H 0.92511 0.49633 0.61984 0.0
H2344 H 0.9146 0.46508 0.70695 0.0
H2345 H 0.9544 0.48079 0.70407 0.0
H2346 H 0.94998 0.48526 0.7614 0.0
H2347 H 0.9487 0.48774 0.68604 0.0
C2348 C 0.93481 0.49827 0.75607 0.0
C2349 C 0.93179 0.50109 0.70551 0.0
C2350 C 0.93395 0.48916 0.75929 0.0
C2351 C 0.93014 0.48273 0.71193 0.0
C2352 C 0.92673 0.48533 0.66255 0.0
H2353 H 0.92486 0.42803 0.61372 0.0
H2354 H 0.92326 0.44241 0.62157 0.0
C2355 C 0.92755 0.49443 0.65931 0.0
C2356 C 0.93008 0.47345 0.71268 0.0
H2357 H 0.94497 0.46393 0.71624 0.0
C2358 C 0.92123 0.4648 0.70904 0.0
C2359 C 0.93876 0.47314 0.71514 0.0
C2360 C 0.94851 0.48222 0.71636 0.0
C2361 C 0.92081 0.45582 0.70851 0.0
C2362 C 0.92949 0.45554 0.7108 0.0
C2363 C 0.93833 0.46418 0.71475 0.0
C2364 C 0.92966 0.44638 0.70805 0.0
C2365 C 0.9111 0.44673 0.70633 0.0
C2366 C 0.93384 0.44388 0.75388 0.0
C2367 C 0.93483 0.43572 0.74941 0.0
C2368 C 0.93171 0.42992 0.69875 0.0
C2369 C 0.92732 0.43232 0.65339 0.0
C2370 C 0.92634 0.44051 0.65794 0.0
H2371 H 0.90521 0.44806 0.72024 0.0
H2372 H 0.9096 0.44397 0.66062 0.0
H2373 H 0.91098 0.44105 0.7348 0.0
H2374 H 0.93648 0.44835 0.79281 0.0
H2375 H 0.93821 0.43407 0.78529 0.0
H2376 H 0.4972 0.43571 0.78388 0.0
H2377 H 0.51327 0.45003 0.78635 0.0
H2378 H 0.5206 0.4411 0.62517 0.0
H2379 H 0.50452 0.42684 0.62168 0.0
H2380 H 0.53212 0.45245 0.78518 0.0
H2381 H 0.52482 0.46804 0.58701 0.0
H2382 H 0.51538 0.458 0.62678 0.0
H2383 H 0.52304 0.45612 0.57735 0.0
C2384 C 0.50224 0.43674 0.7491 0.0
C2385 C 0.49951 0.43018 0.70214 0.0
C2386 C 0.51143 0.44493 0.75069 0.0
C2387 C 0.51805 0.4467 0.70539 0.0
C2388 C 0.51552 0.43995 0.65994 0.0
H2389 H 0.57361 0.4967 0.62103 0.0
H2390 H 0.5595 0.4805 0.62489 0.0
C2391 C 0.50633 0.43178 0.65819 0.0
C2392 C 0.52743 0.4558 0.70448 0.0
H2393 H 0.54054 0.47657 0.6264 0.0
C2394 C 0.53398 0.45773 0.75048 0.0
C2395 C 0.52981 0.46267 0.65917 0.0
C2396 C 0.52288 0.46118 0.60999 0.0
C2397 C 0.54292 0.46633 0.75209 0.0
C2398 C 0.54526 0.47322 0.70696 0.0
C2399 C 0.53874 0.47125 0.66075 0.0
C2400 C 0.55426 0.48271 0.70764 0.0
C2401 C 0.54981 0.46793 0.80166 0.0
C2402 C 0.556 0.48931 0.75299 0.0
C2403 C 0.56405 0.49857 0.75096 0.0
C2404 C 0.57048 0.50145 0.70326 0.0
C2405 C 0.56881 0.49474 0.65842 0.0
C2406 C 0.56075 0.48547 0.66052 0.0
H2407 H 0.54818 0.46103 0.82282 0.0
H2408 H 0.55739 0.47164 0.78593 0.0
H2409 H 0.54914 0.47254 0.83554 0.0
H2410 H 0.55097 0.48739 0.78911 0.0
H2411 H 0.56508 0.50355 0.78612 0.0
H2412 H 0.72807 0.89867 0.53434 0.0
H2413 H 0.73 0.8845 0.53031 0.0
H2414 H 0.74273 0.89104 0.70295 0.0
H2415 H 0.74099 0.90537 0.7072 0.0
H2416 H 0.75216 0.88498 0.62089 0.0
H2417 H 0.7125 0.86017 0.62675 0.0
H2418 H 0.71656 0.869 0.56913 0.0
H2419 H 0.71799 0.87282 0.64444 0.0
C2420 C 0.73137 0.89717 0.57132 0.0
C2421 C 0.7343 0.90313 0.62134 0.0
C2422 C 0.73242 0.88903 0.56899 0.0
C2423 C 0.73634 0.88664 0.61674 0.0
C2424 C 0.73963 0.89275 0.66578 0.0
H2425 H 0.74287 0.8377 0.70845 0.0
H2426 H 0.74427 0.85359 0.70246 0.0
C2427 C 0.73861 0.90093 0.66813 0.0
C2428 C 0.73665 0.87755 0.61637 0.0
H2429 H 0.7222 0.85308 0.61119 0.0
C2430 C 0.74562 0.87799 0.61887 0.0
C2431 C 0.7281 0.86847 0.61392 0.0
C2432 C 0.71823 0.86754 0.61394 0.0
C2433 C 0.74627 0.86956 0.61793 0.0
C2434 C 0.73771 0.86048 0.61525 0.0
C2435 C 0.72875 0.86006 0.61281 0.0
C2436 C 0.73779 0.85128 0.61631 0.0
C2437 C 0.7561 0.87042 0.61881 0.0
C2438 C 0.73365 0.84469 0.56993 0.0
C2439 C 0.73278 0.83558 0.5733 0.0
C2440 C 0.73597 0.83284 0.62342 0.0
C2441 C 0.74036 0.83957 0.66915 0.0
C2442 C 0.74123 0.84868 0.66569 0.0
H2443 H 0.76186 0.87774 0.60554 0.0
H2444 H 0.7577 0.86905 0.664 0.0
H2445 H 0.75632 0.86503 0.58916 0.0
H2446 H 0.73092 0.84655 0.53155 0.0
H2447 H 0.72939 0.8306 0.53719 0.0
H2448 H 0.16329 0.90616 0.70426 0.0
H2449 H 0.14715 0.89196 0.69994 0.0
H2450 H 0.15457 0.88311 0.53874 0.0
H2451 H 0.17067 0.89736 0.54199 0.0
H2452 H 0.13594 0.88095 0.53815 0.0
H2453 H 0.14228 0.86481 0.7371 0.0
H2454 H 0.1442 0.87677 0.74731 0.0
H2455 H 0.15193 0.87486 0.69861 0.0
C2456 C 0.16149 0.90123 0.66766 0.0
C2457 C 0.16832 0.90285 0.62382 0.0
C2458 C 0.15227 0.8931 0.66542 0.0
C2459 C 0.14974 0.8864 0.6196 0.0
C2460 C 0.15641 0.88817 0.57464 0.0
H2461 H 0.10176 0.82986 0.53774 0.0
H2462 H 0.11614 0.84586 0.53366 0.0
C2463 C 0.16562 0.89631 0.57671 0.0
C2464 C 0.14027 0.87739 0.61952 0.0
H2465 H 0.12662 0.85662 0.69655 0.0
C2466 C 0.13388 0.87562 0.57274 0.0
C2467 C 0.13764 0.87045 0.66463 0.0
C2468 C 0.14439 0.87174 0.71453 0.0
C2469 C 0.12486 0.86712 0.57029 0.0
C2470 C 0.12225 0.86019 0.6154 0.0
C2471 C 0.12862 0.86199 0.66223 0.0
C2472 C 0.11306 0.85087 0.61458 0.0
C2473 C 0.11815 0.8657 0.51996 0.0
C2474 C 0.10657 0.84837 0.66151 0.0
C2475 C 0.09838 0.83921 0.66426 0.0
C2476 C 0.09656 0.83233 0.62025 0.0
C2477 C 0.10293 0.83497 0.57235 0.0
C2478 C 0.11113 0.84414 0.5697 0.0
H2479 H 0.12005 0.87265 0.49829 0.0
H2480 H 0.1187 0.86094 0.48668 0.0
H2481 H 0.11055 0.86222 0.53508 0.0
H2482 H 0.10795 0.85345 0.69671 0.0
H2483 H 0.09363 0.83744 0.70172 0.0
H2484 H 0.10281 0.27269 0.53656 0.0
H2485 H 0.11715 0.27102 0.53086 0.0
H2486 H 0.10903 0.25484 0.69247 0.0
H2487 H 0.09474 0.25656 0.6991 0.0
H2488 H 0.12776 0.27036 0.69228 0.0
H2489 H 0.12083 0.24805 0.49207 0.0
H2490 H 0.11953 0.25848 0.48222 0.0
H2491 H 0.1114 0.24894 0.5301 0.0
C2492 C 0.10399 0.26866 0.57053 0.0
C2493 C 0.09764 0.2648 0.61849 0.0
C2494 C 0.11217 0.26765 0.56694 0.0
C2495 C 0.11409 0.26272 0.61092 0.0
C2496 C 0.10764 0.25864 0.65794 0.0
H2497 H 0.16355 0.25656 0.69976 0.0
H2498 H 0.14753 0.25485 0.69387 0.0
C2499 C 0.09948 0.25964 0.66164 0.0
C2500 C 0.12325 0.26253 0.6108 0.0
H2501 H 0.13667 0.25527 0.53219 0.0
C2502 C 0.12968 0.26699 0.65755 0.0
C2503 C 0.12575 0.2582 0.56511 0.0
C2504 C 0.11899 0.25307 0.51473 0.0
C2505 C 0.13862 0.26738 0.65948 0.0
C2506 C 0.14112 0.26302 0.61397 0.0
C2507 C 0.1347 0.25857 0.5671 0.0
C2508 C 0.15046 0.2632 0.61414 0.0
C2509 C 0.14543 0.2727 0.70945 0.0
C2510 C 0.15726 0.2681 0.56982 0.0
C2511 C 0.16641 0.26904 0.57275 0.0
C2512 C 0.16891 0.26508 0.62013 0.0
C2513 C 0.16191 0.25979 0.66301 0.0
C2514 C 0.15276 0.25883 0.65988 0.0
H2515 H 0.14348 0.27763 0.73217 0.0
H2516 H 0.14509 0.2674 0.7421 0.0
H2517 H 0.15298 0.27698 0.69359 0.0
H2518 H 0.15559 0.27147 0.53396 0.0
H2519 H 0.1716 0.2731 0.53876 0.0
H2520 H 0.08226 0.28973 0.80622 0.0
H2521 H 0.08846 0.30492 0.85952 0.0
H2522 H 0.09515 0.32042 0.69566 0.0
H2523 H 0.08886 0.30524 0.64168 0.0
H2524 H 0.10722 0.32052 0.85368 0.0
H2525 H 0.08058 0.33129 0.78711 0.0
H2526 H 0.07843 0.31916 0.77794 0.0
H2527 H 0.08598 0.32846 0.7269 0.0
C2528 C 0.08496 0.29635 0.78133 0.0
C2529 C 0.08505 0.29625 0.71955 0.0
C2530 C 0.0885 0.30502 0.81197 0.0
C2531 C 0.09215 0.31377 0.78157 0.0
C2532 C 0.09219 0.31372 0.71996 0.0
H2533 H 0.12268 0.37406 0.8677 0.0
H2534 H 0.11381 0.35817 0.82221 0.0
C2535 C 0.08865 0.30504 0.68919 0.0
C2536 C 0.09641 0.32299 0.81441 0.0
H2537 H 0.09469 0.34318 0.83616 0.0
C2538 C 0.10443 0.32545 0.85034 0.0
C2539 C 0.09275 0.32938 0.80983 0.0
C2540 C 0.08391 0.32692 0.7738 0.0
C2541 C 0.10909 0.33427 0.88048 0.0
C2542 C 0.10551 0.34072 0.87538 0.0
C2543 C 0.0974 0.33821 0.84005 0.0
C2544 C 0.11037 0.35031 0.9041 0.0
C2545 C 0.11801 0.33675 0.91587 0.0
C2546 C 0.11119 0.35116 0.96543 0.0
C2547 C 0.11629 0.36026 0.99176 0.0
C2548 C 0.12062 0.36866 0.95714 0.0
C2549 C 0.11949 0.36776 0.89578 0.0
C2550 C 0.1144 0.35867 0.8696 0.0
H2551 H 0.12104 0.33205 0.90457 0.0
H2552 H 0.12367 0.34439 0.90879 0.0
H2553 H 0.11614 0.33578 0.96322 0.0
H2554 H 0.10796 0.34478 0.99289 0.0
H2555 H 0.11697 0.36069 0.03911 0.0
H2556 H 0.62504 0.74824 0.86116 0.0
H2557 H 0.64058 0.75495 0.81129 0.0
H2558 H 0.65522 0.7629 0.97823 0.0
H2559 H 0.6397 0.75609 0.02876 0.0
H2560 H 0.65535 0.77397 0.81608 0.0
H2561 H 0.66798 0.74942 0.89622 0.0
H2562 H 0.65558 0.74656 0.90246 0.0
H2563 H 0.66448 0.75478 0.95336 0.0
C2564 C 0.63155 0.75132 0.88745 0.0
C2565 C 0.63111 0.75162 0.94906 0.0
C2566 C 0.64043 0.75515 0.8588 0.0
C2567 C 0.64904 0.75931 0.89107 0.0
C2568 C 0.64865 0.75954 0.95254 0.0
H2569 H 0.70968 0.79194 0.80386 0.0
H2570 H 0.69398 0.7831 0.85209 0.0
C2571 C 0.63976 0.7557 0.98132 0.0
C2572 C 0.65844 0.76392 0.86012 0.0
H2573 H 0.67945 0.76348 0.84506 0.0
C2574 C 0.66059 0.77163 0.82205 0.0
C2575 C 0.66528 0.76088 0.86823 0.0
C2576 C 0.6632 0.7524 0.90686 0.0
C2577 C 0.66947 0.77652 0.79272 0.0
C2578 C 0.67632 0.77349 0.80091 0.0
C2579 C 0.67417 0.76576 0.83885 0.0
C2580 C 0.68583 0.7784 0.77127 0.0
C2581 C 0.67155 0.78504 0.75444 0.0
C2582 C 0.68645 0.77851 0.70982 0.0
C2583 C 0.69541 0.78357 0.68201 0.0
C2584 C 0.70393 0.78859 0.71522 0.0
C2585 C 0.70328 0.7882 0.77688 0.0
C2586 C 0.69431 0.78314 0.80458 0.0
H2587 H 0.6666 0.78785 0.76403 0.0
H2588 H 0.6791 0.79098 0.76042 0.0
H2589 H 0.67059 0.78279 0.70772 0.0
H2590 H 0.67999 0.77473 0.68335 0.0
H2591 H 0.69565 0.78365 0.6345 0.0
H2592 H 0.25343 0.87772 0.86306 0.0
H2593 H 0.2469 0.88663 0.81255 0.0
H2594 H 0.23744 0.89211 0.9779 0.0
H2595 H 0.24407 0.88327 0.02931 0.0
H2596 H 0.22761 0.88174 0.81327 0.0
H2597 H 0.251 0.9188 0.89944 0.0
H2598 H 0.25416 0.90946 0.90562 0.0
H2599 H 0.24543 0.9096 0.9546 0.0
C2600 C 0.25006 0.8809 0.88899 0.0
C2601 C 0.24926 0.87976 0.95036 0.0
C2602 C 0.24633 0.88599 0.85992 0.0
C2603 C 0.24177 0.8901 0.89147 0.0
C2604 C 0.24109 0.88914 0.95282 0.0
H2605 H 0.20933 0.9178 0.7945 0.0
H2606 H 0.2181 0.91107 0.84467 0.0
C2607 C 0.24484 0.88405 0.98209 0.0
C2608 C 0.23718 0.89483 0.85946 0.0
H2609 H 0.23746 0.91616 0.84258 0.0
C2610 C 0.2298 0.88928 0.81938 0.0
C2611 C 0.24004 0.90465 0.86775 0.0
C2612 C 0.24814 0.91102 0.90879 0.0
C2613 C 0.22506 0.89324 0.78806 0.0
C2614 C 0.22792 0.90307 0.79619 0.0
C2615 C 0.23531 0.90863 0.83625 0.0
C2616 C 0.22307 0.90761 0.765 0.0
C2617 C 0.21684 0.88678 0.74781 0.0
C2618 C 0.22313 0.90808 0.70345 0.0
C2619 C 0.21807 0.91189 0.67442 0.0
C2620 C 0.21293 0.91536 0.70652 0.0
C2621 C 0.21317 0.91516 0.76827 0.0
C2622 C 0.2182 0.91133 0.79714 0.0
H2623 H 0.21402 0.87902 0.75754 0.0
H2624 H 0.21082 0.88831 0.75149 0.0
H2625 H 0.21943 0.88811 0.70175 0.0
H2626 H 0.22701 0.90543 0.67784 0.0
H2627 H 0.2181 0.91201 0.62689 0.0
H2628 H 0.30571 0.08942 0.35245 0.0
H2629 H 0.32117 0.09616 0.30058 0.0
H2630 H 0.30618 0.08816 0.13485 0.0
H2631 H 0.29076 0.08151 0.18579 0.0
H2632 H 0.32792 0.08714 0.21833 0.0
H2633 H 0.32522 0.11739 0.11876 0.0
H2634 H 0.31778 0.11042 0.17965 0.0
H2635 H 0.31496 0.10563 0.10642 0.0
C2636 C 0.3057 0.08907 0.30498 0.0
C2637 C 0.29699 0.085 0.27333 0.0
C2638 C 0.31453 0.09291 0.27546 0.0
C2639 C 0.3148 0.09278 0.21391 0.0
C2640 C 0.30612 0.08849 0.18233 0.0
H2641 H 0.36138 0.11691 0.95719 0.0
H2642 H 0.34564 0.10791 0.0054 0.0
C2643 C 0.29731 0.08465 0.21166 0.0
C2644 C 0.32414 0.09725 0.18244 0.0
H2645 H 0.33815 0.11535 0.08708 0.0
C2646 C 0.33019 0.09332 0.18973 0.0
C2647 C 0.32703 0.10528 0.14499 0.0
C2648 C 0.32096 0.11 0.1372 0.0
C2649 C 0.33903 0.09717 0.15995 0.0
C2650 C 0.34195 0.10525 0.12281 0.0
C2651 C 0.33587 0.10912 0.11531 0.0
C2652 C 0.35148 0.11008 0.09331 0.0
C2653 C 0.3451 0.09246 0.16782 0.0
C2654 C 0.35996 0.11429 0.12677 0.0
C2655 C 0.36895 0.11942 0.09948 0.0
C2656 C 0.36964 0.12052 0.03806 0.0
C2657 C 0.36112 0.11619 0.00452 0.0
C2658 C 0.35212 0.11105 0.03197 0.0
H2659 H 0.34071 0.08489 0.18326 0.0
H2660 H 0.34873 0.0925 0.12619 0.0
H2661 H 0.35074 0.09651 0.20126 0.0
H2662 H 0.35964 0.11381 0.17421 0.0
H2663 H 0.37534 0.12267 0.12679 0.0
H2664 H 0.88271 0.24239 0.95727 0.0
H2665 H 0.89135 0.23528 0.00587 0.0
H2666 H 0.88796 0.24595 0.17267 0.0
H2667 H 0.87926 0.25297 0.12504 0.0
H2668 H 0.90826 0.24371 0.07858 0.0
H2669 H 0.87569 0.21668 0.19868 0.0
H2670 H 0.87506 0.22347 0.13729 0.0
H2671 H 0.87847 0.22893 0.2087 0.0
C2672 C 0.88385 0.24328 0.00424 0.0
C2673 C 0.88019 0.24816 0.03732 0.0
C2674 C 0.88879 0.23921 0.03189 0.0
C2675 C 0.89012 0.23994 0.09295 0.0
C2676 C 0.88682 0.24514 0.12566 0.0
H2677 H 0.91296 0.21701 0.35168 0.0
H2678 H 0.90648 0.22586 0.2992 0.0
C2679 C 0.88188 0.24917 0.09822 0.0
C2680 C 0.89473 0.23508 0.12299 0.0
H2681 H 0.89055 0.21786 0.22544 0.0
C2682 C 0.9044 0.23803 0.11049 0.0
C2683 C 0.88964 0.22767 0.16456 0.0
C2684 C 0.87912 0.22392 0.17785 0.0
C2685 C 0.90919 0.23389 0.13959 0.0
C2686 C 0.90412 0.22653 0.18146 0.0
C2687 C 0.89444 0.22356 0.1936 0.0
C2688 C 0.90863 0.22167 0.21273 0.0
C2689 C 0.9197 0.2376 0.12624 0.0
C2690 C 0.91196 0.21636 0.18148 0.0
C2691 C 0.91568 0.2113 0.21127 0.0
C2692 C 0.91606 0.21139 0.27302 0.0
C2693 C 0.91278 0.21679 0.30417 0.0
C2694 C 0.90907 0.22185 0.27427 0.0
H2695 H 0.92316 0.24485 0.1056 0.0
H2696 H 0.92375 0.23799 0.16671 0.0
H2697 H 0.92031 0.23259 0.09516 0.0
H2698 H 0.91148 0.21595 0.13405 0.0
H2699 H 0.9181 0.2072 0.18583 0.0
H2700 H 0.75685 0.63864 0.9711 0.0
H2701 H 0.7636 0.65415 0.02235 0.0
H2702 H 0.75532 0.63931 0.18853 0.0
H2703 H 0.74866 0.62384 0.13817 0.0
H2704 H 0.75468 0.66115 0.10236 0.0
H2705 H 0.78447 0.65817 0.20656 0.0
H2706 H 0.77753 0.65065 0.14587 0.0
H2707 H 0.77264 0.64803 0.21891 0.0
C2708 C 0.75644 0.63867 0.01854 0.0
C2709 C 0.75229 0.62999 0.0505 0.0
C2710 C 0.76029 0.64754 0.04771 0.0
C2711 C 0.76009 0.64786 0.10922 0.0
C2712 C 0.75571 0.63922 0.14109 0.0
H2713 H 0.78351 0.69436 0.36579 0.0
H2714 H 0.77467 0.67869 0.31677 0.0
C2715 C 0.75187 0.63037 0.1121 0.0
C2716 C 0.76457 0.65724 0.14032 0.0
H2717 H 0.78247 0.6712 0.23703 0.0
C2718 C 0.76077 0.66337 0.13169 0.0
C2719 C 0.77249 0.66008 0.17865 0.0
C2720 C 0.7771 0.65394 0.18781 0.0
C2721 C 0.76463 0.67225 0.16107 0.0
C2722 C 0.77258 0.67511 0.19924 0.0
C2723 C 0.77634 0.66895 0.20799 0.0
C2724 C 0.77736 0.68462 0.22897 0.0
C2725 C 0.76006 0.67843 0.15176 0.0
C2726 C 0.78181 0.69313 0.19582 0.0
C2727 C 0.78686 0.70209 0.22358 0.0
C2728 C 0.78762 0.70271 0.28518 0.0
C2729 C 0.78306 0.69416 0.31834 0.0
C2730 C 0.77801 0.68519 0.29043 0.0
H2731 H 0.75257 0.67412 0.13493 0.0
H2732 H 0.75995 0.68203 0.19316 0.0
H2733 H 0.76434 0.6841 0.11891 0.0
H2734 H 0.78157 0.69285 0.14831 0.0
H2735 H 0.7903 0.70851 0.19658 0.0
H2736 H 0.91724 0.71035 0.18551 0.0
H2737 H 0.91033 0.69483 0.13505 0.0
H2738 H 0.90481 0.68023 0.30166 0.0
H2739 H 0.9116 0.69571 0.35276 0.0
H2740 H 0.91549 0.68036 0.13853 0.0
H2741 H 0.87829 0.66702 0.22125 0.0
H2742 H 0.88762 0.67952 0.2263 0.0
H2743 H 0.88733 0.67084 0.27754 0.0
C2744 C 0.91458 0.70385 0.21157 0.0
C2745 C 0.9149 0.70428 0.2733 0.0
C2746 C 0.91064 0.69499 0.18257 0.0
C2747 C 0.90693 0.68639 0.21465 0.0
C2748 C 0.90747 0.68679 0.27614 0.0
H2749 H 0.87745 0.62584 0.12621 0.0
H2750 H 0.88609 0.64155 0.17403 0.0
C2751 C 0.9114 0.69565 0.30525 0.0
C2752 C 0.90236 0.67699 0.18372 0.0
H2753 H 0.88105 0.65588 0.16848 0.0
C2754 C 0.90796 0.67501 0.14486 0.0
C2755 C 0.89252 0.67005 0.19198 0.0
C2756 C 0.88605 0.67196 0.2311 0.0
C2757 C 0.90401 0.66616 0.11492 0.0
C2758 C 0.89419 0.65921 0.12352 0.0
C2759 C 0.88859 0.66122 0.16216 0.0
C2760 C 0.88953 0.64974 0.09339 0.0
C2761 C 0.91043 0.66425 0.07542 0.0
C2762 C 0.88861 0.64914 0.03204 0.0
C2763 C 0.88367 0.64014 0.00436 0.0
C2764 C 0.87949 0.63159 0.03766 0.0
C2765 C 0.88055 0.63226 0.0991 0.0
C2766 C 0.88549 0.64124 0.12661 0.0
H2767 H 0.9182 0.66926 0.08454 0.0
H2768 H 0.90892 0.65672 0.08058 0.0
H2769 H 0.90901 0.66526 0.02905 0.0
H2770 H 0.89153 0.65563 0.00567 0.0
H2771 H 0.88296 0.6399 0.95703 0.0
H2772 H 0.36255 0.24447 0.97888 0.0
H2773 H 0.34725 0.23796 0.03185 0.0
H2774 H 0.36255 0.24551 0.19662 0.0
H2775 H 0.37786 0.25193 0.14436 0.0
H2776 H 0.34728 0.22656 0.19218 0.0
H2777 H 0.3357 0.25228 0.11878 0.0
H2778 H 0.33877 0.24681 0.06015 0.0
H2779 H 0.34794 0.25471 0.11083 0.0
C2780 C 0.36268 0.24482 0.02636 0.0
C2781 C 0.37145 0.24873 0.0573 0.0
C2782 C 0.35393 0.24115 0.05655 0.0
C2783 C 0.35379 0.24137 0.11812 0.0
C2784 C 0.36251 0.24531 0.14908 0.0
H2785 H 0.30696 0.21687 0.37587 0.0
H2786 H 0.32282 0.22577 0.32898 0.0
C2787 C 0.37126 0.24899 0.11904 0.0
C2788 C 0.34452 0.23701 0.15046 0.0
H2789 H 0.32403 0.23828 0.16962 0.0
C2790 C 0.34222 0.22917 0.18769 0.0
C2791 C 0.33796 0.24043 0.14437 0.0
C2792 C 0.34023 0.24907 0.1068 0.0
C2793 C 0.3334 0.22447 0.2178 0.0
C2794 C 0.32679 0.22783 0.21132 0.0
C2795 C 0.32913 0.23574 0.17457 0.0
C2796 C 0.31722 0.22295 0.24031 0.0
C2797 C 0.3311 0.21574 0.25471 0.0
C2798 C 0.30882 0.2187 0.20606 0.0
C2799 C 0.29976 0.21367 0.23261 0.0
C2800 C 0.29892 0.21281 0.29411 0.0
C2801 C 0.30735 0.21732 0.32843 0.0
C2802 C 0.31642 0.22238 0.30172 0.0
H2803 H 0.3359 0.21278 0.24417 0.0
H2804 H 0.33211 0.21782 0.30173 0.0
H2805 H 0.32349 0.20996 0.24835 0.0
H2806 H 0.30928 0.2191 0.1586 0.0
H2807 H 0.29344 0.21033 0.20474 0.0
H2808 H 0.78384 0.08854 0.35281 0.0
H2809 H 0.77503 0.09505 0.30011 0.0
H2810 H 0.78391 0.08883 0.13498 0.0
H2811 H 0.79264 0.0822 0.18701 0.0
H2812 H 0.78309 0.11061 0.22238 0.0
H2813 H 0.75485 0.07755 0.11197 0.0
H2814 H 0.76189 0.07715 0.17273 0.0
H2815 H 0.76697 0.08001 0.10022 0.0
C2816 C 0.78385 0.08846 0.30527 0.0
C2817 C 0.78895 0.08484 0.27419 0.0
C2818 C 0.77881 0.09219 0.27525 0.0
C2819 C 0.77872 0.0923 0.21367 0.0
C2820 C 0.78372 0.08862 0.18249 0.0
H2821 H 0.7571 0.11759 0.95874 0.0
H2822 H 0.76438 0.10903 0.00643 0.0
C2823 C 0.78876 0.0849 0.21241 0.0
C2824 C 0.77388 0.09682 0.18218 0.0
H2825 H 0.75612 0.09241 0.08302 0.0
C2826 C 0.77717 0.10662 0.19214 0.0
C2827 C 0.76621 0.0916 0.14237 0.0
C2828 C 0.7622 0.08098 0.13142 0.0
C2829 C 0.77303 0.1114 0.16305 0.0
C2830 C 0.7653 0.10617 0.12371 0.0
C2831 C 0.76206 0.09638 0.11324 0.0
C2832 C 0.76035 0.11075 0.09431 0.0
C2833 C 0.77709 0.12203 0.17399 0.0
C2834 C 0.75547 0.1143 0.12786 0.0
C2835 C 0.75132 0.11918 0.10094 0.0
C2836 C 0.75194 0.12058 0.03975 0.0
C2837 C 0.75652 0.11668 0.00594 0.0
C2838 C 0.76069 0.11178 0.03306 0.0
H2839 H 0.78446 0.12545 0.19299 0.0
H2840 H 0.77734 0.12585 0.13275 0.0
H2841 H 0.77237 0.12302 0.20557 0.0
H2842 H 0.75497 0.1134 0.17509 0.0
H2843 H 0.74777 0.12199 0.12837 0.0
H2844 H 0.69307 0.90975 0.61644 0.0
H2845 H 0.67723 0.90251 0.66402 0.0
H2846 H 0.691 0.91125 0.8332 0.0
H2847 H 0.70679 0.9184 0.78653 0.0
H2848 H 0.67687 0.89173 0.82647 0.0
H2849 H 0.6632 0.91528 0.74234 0.0
H2850 H 0.66744 0.91021 0.68744 0.0
H2851 H 0.6758 0.91872 0.73938 0.0
C2852 C 0.69273 0.91023 0.66371 0.0
C2853 C 0.70121 0.91464 0.69762 0.0
C2854 C 0.68367 0.90613 0.69078 0.0
C2855 C 0.68296 0.90642 0.75208 0.0
C2856 C 0.6914 0.91097 0.78583 0.0
H2857 H 0.63766 0.88275 0.01454 0.0
H2858 H 0.65295 0.89136 0.96144 0.0
C2859 C 0.70043 0.91505 0.75895 0.0
C2860 C 0.67345 0.9015 0.78181 0.0
H2861 H 0.65231 0.90164 0.79809 0.0
C2862 C 0.6715 0.89391 0.82041 0.0
C2863 C 0.66647 0.90434 0.77349 0.0
C2864 C 0.66832 0.91263 0.7338 0.0
C2865 C 0.66272 0.88902 0.85076 0.0
C2866 C 0.65578 0.89194 0.84313 0.0
C2867 C 0.65768 0.89946 0.80401 0.0
C2868 C 0.64649 0.88719 0.87522 0.0
C2869 C 0.66089 0.88067 0.88991 0.0
C2870 C 0.63777 0.88227 0.84426 0.0
C2871 C 0.62902 0.87739 0.87441 0.0
C2872 C 0.62881 0.87737 0.9362 0.0
C2873 C 0.63755 0.88255 0.96702 0.0
C2874 C 0.64631 0.88744 0.93677 0.0
H2875 H 0.66577 0.87781 0.87935 0.0
H2876 H 0.66218 0.88312 0.93626 0.0
H2877 H 0.6533 0.8747 0.88596 0.0
H2878 H 0.63776 0.88204 0.79673 0.0
H2879 H 0.62243 0.87351 0.8492 0.0
H2880 H 0.08257 0.79232 0.80537 0.0
H2881 H 0.08941 0.78364 0.85578 0.0
H2882 H 0.09464 0.77432 0.68918 0.0
H2883 H 0.08794 0.78309 0.63811 0.0
H2884 H 0.08417 0.76408 0.85366 0.0
H2885 H 0.12123 0.78747 0.76768 0.0
H2886 H 0.11197 0.79073 0.76257 0.0
H2887 H 0.1121 0.78217 0.71203 0.0
C2888 C 0.08515 0.78841 0.77931 0.0
C2889 C 0.08479 0.78848 0.71758 0.0
C2890 C 0.08905 0.78344 0.80828 0.0
C2891 C 0.09267 0.77848 0.77619 0.0
C2892 C 0.09206 0.77828 0.71471 0.0
H2893 H 0.12219 0.74747 0.8664 0.0
H2894 H 0.11338 0.75432 0.81805 0.0
C2895 C 0.08819 0.78326 0.68562 0.0
C2896 C 0.09723 0.77363 0.8071 0.0
H2897 H 0.11847 0.77367 0.82144 0.0
C2898 C 0.09167 0.76618 0.8468 0.0
C2899 C 0.10703 0.77643 0.79819 0.0
C2900 C 0.11347 0.78469 0.75824 0.0
C2901 C 0.09562 0.7613 0.87698 0.0
C2902 C 0.1054 0.76406 0.86774 0.0
C2903 C 0.11095 0.77154 0.82822 0.0
C2904 C 0.11008 0.7593 0.89826 0.0
C2905 C 0.08924 0.75311 0.9175 0.0
C2906 C 0.1111 0.75979 0.95955 0.0
C2907 C 0.11614 0.75586 0.98753 0.0
C2908 C 0.1203 0.75144 0.95457 0.0
C2909 C 0.1191 0.75084 0.89323 0.0
C2910 C 0.11407 0.75475 0.86542 0.0
H2911 H 0.08147 0.75035 0.90869 0.0
H2912 H 0.09071 0.74705 0.91313 0.0
H2913 H 0.09074 0.7557 0.96356 0.0
H2914 H 0.10823 0.76344 0.98562 0.0
H2915 H 0.11695 0.75649 0.03478 0.0
H2916 H 0.20899 0.29112 0.8024 0.0
H2917 H 0.21757 0.30661 0.85299 0.0
H2918 H 0.22697 0.32124 0.68666 0.0
H2919 H 0.21827 0.30577 0.63531 0.0
H2920 H 0.23699 0.32092 0.85226 0.0
H2921 H 0.21368 0.33457 0.76438 0.0
H2922 H 0.2105 0.32208 0.7588 0.0
H2923 H 0.21917 0.33087 0.70918 0.0
C2924 C 0.21289 0.29762 0.77639 0.0
C2925 C 0.21286 0.2972 0.71465 0.0
C2926 C 0.21781 0.30647 0.80549 0.0
C2927 C 0.22276 0.31507 0.77357 0.0
C2928 C 0.22301 0.31469 0.71207 0.0
H2929 H 0.2535 0.3754 0.86671 0.0
H2930 H 0.24676 0.35979 0.81812 0.0
C2931 C 0.21807 0.30583 0.68282 0.0
C2932 C 0.22753 0.32445 0.8048 0.0
H2933 H 0.22729 0.34554 0.81979 0.0
C2934 C 0.23487 0.32631 0.84531 0.0
C2935 C 0.22469 0.33142 0.79586 0.0
C2936 C 0.21652 0.32963 0.75513 0.0
C2937 C 0.2396 0.33507 0.87629 0.0
C2938 C 0.2368 0.34206 0.86698 0.0
C2939 C 0.22944 0.34017 0.82665 0.0
C2940 C 0.24147 0.35145 0.89791 0.0
C2941 C 0.24767 0.33685 0.91777 0.0
C2942 C 0.24076 0.35194 0.95911 0.0
C2943 C 0.24462 0.36089 0.98727 0.0
C2944 C 0.24919 0.3695 0.95457 0.0
C2945 C 0.25001 0.36894 0.89336 0.0
C2946 C 0.24617 0.36002 0.86539 0.0
H2947 H 0.25043 0.33181 0.90966 0.0
H2948 H 0.25375 0.34437 0.91371 0.0
H2949 H 0.24497 0.33577 0.96356 0.0
H2950 H 0.23701 0.3454 0.9849 0.0
H2951 H 0.24383 0.36105 0.0344 0.0
H2952 H 0.02773 0.45034 0.29746 0.0
H2953 H 0.01216 0.44167 0.34825 0.0
H2954 H 0.02688 0.44725 0.51446 0.0
H2955 H 0.0424 0.45598 0.46463 0.0
H2956 H 0.00466 0.42546 0.42619 0.0
H2957 H 0.00873 0.4583 0.53554 0.0
H2958 H 0.01617 0.45884 0.47448 0.0
H2959 H 0.01864 0.45621 0.54702 0.0
C2960 C 0.02765 0.44969 0.3448 0.0
C2961 C 0.03632 0.45395 0.37697 0.0
C2962 C 0.01876 0.44473 0.3737 0.0
C2963 C 0.01839 0.44398 0.43514 0.0
C2964 C 0.02701 0.44792 0.46711 0.0
H2965 H 0.97227 0.42134 0.69387 0.0
H2966 H 0.98782 0.42794 0.64356 0.0
C2967 C 0.03588 0.45288 0.43841 0.0
C2968 C 0.009 0.43921 0.46618 0.0
H2969 H 0.99551 0.44336 0.56545 0.0
C2970 C 0.00263 0.42936 0.45649 0.0
C2971 C 0.0064 0.44434 0.50576 0.0
C2972 C 0.0128 0.45503 0.51607 0.0
C2973 C 0.99376 0.42444 0.48617 0.0
C2974 C 0.99116 0.42958 0.52573 0.0
C2975 C 0.99755 0.43943 0.53539 0.0
C2976 C 0.98171 0.42498 0.55616 0.0
C2977 C 0.98734 0.41377 0.47571 0.0
C2978 C 0.97314 0.42116 0.52368 0.0
C2979 C 0.96426 0.41738 0.55219 0.0
C2980 C 0.96377 0.41742 0.61388 0.0
C2981 C 0.97237 0.42117 0.64636 0.0
C2982 C 0.98127 0.42495 0.61771 0.0
H2983 H 0.99145 0.41045 0.45776 0.0
H2984 H 0.98372 0.40998 0.51688 0.0
H2985 H 0.98169 0.41264 0.44334 0.0
H2986 H 0.97333 0.4213 0.47616 0.0
H2987 H 0.95779 0.41459 0.52569 0.0
H2988 H 0.57761 0.54987 0.69897 0.0
H2989 H 0.57073 0.55846 0.64716 0.0
H2990 H 0.57931 0.55207 0.48155 0.0
H2991 H 0.58611 0.54343 0.53239 0.0
H2992 H 0.57957 0.5744 0.56539 0.0
H2993 H 0.54994 0.54115 0.46437 0.0
H2994 H 0.55694 0.54085 0.5256 0.0
H2995 H 0.56183 0.54296 0.4526 0.0
C2996 C 0.57807 0.55032 0.65155 0.0
C2997 C 0.58233 0.54587 0.61987 0.0
C2998 C 0.57415 0.55524 0.62207 0.0
C2999 C 0.57438 0.55575 0.56054 0.0
C3000 C 0.5789 0.5516 0.52899 0.0
H3001 H 0.55016 0.57756 0.30088 0.0
H3002 H 0.55917 0.57098 0.35081 0.0
C3003 C 0.58282 0.54669 0.55827 0.0
C3004 C 0.56976 0.56046 0.52899 0.0
H3005 H 0.55169 0.55601 0.43238 0.0
C3006 C 0.57346 0.5704 0.53644 0.0
C3007 C 0.56181 0.55519 0.49112 0.0
C3008 C 0.55732 0.54443 0.48316 0.0
C3009 C 0.56949 0.57525 0.50628 0.0
C3010 C 0.56151 0.56997 0.46858 0.0
C3011 C 0.55784 0.56004 0.46105 0.0
C3012 C 0.5566 0.57451 0.43818 0.0
C3013 C 0.57397 0.586 0.51425 0.0
C3014 C 0.55215 0.57863 0.47078 0.0
C3015 C 0.54701 0.58238 0.4425 0.0
C3016 C 0.54615 0.58203 0.38093 0.0
C3017 C 0.55069 0.57797 0.34829 0.0
C3018 C 0.55584 0.5742 0.37673 0.0
H3019 H 0.5815 0.58932 0.53063 0.0
H3020 H 0.57397 0.58956 0.4724 0.0
H3021 H 0.56971 0.58745 0.54696 0.0
H3022 H 0.55247 0.57875 0.51828 0.0
H3023 H 0.54358 0.58543 0.46912 0.0
H3024 H 0.41528 0.95642 0.47394 0.0
H3025 H 0.42168 0.97163 0.52719 0.0
H3026 H 0.42872 0.98716 0.36329 0.0
H3027 H 0.42224 0.97195 0.30935 0.0
H3028 H 0.44051 0.98705 0.52218 0.0
H3029 H 0.41438 0.99836 0.45349 0.0
H3030 H 0.41207 0.98617 0.44434 0.0
H3031 H 0.41979 0.99545 0.39368 0.0
C3032 C 0.41811 0.96305 0.44902 0.0
C3033 C 0.41823 0.96295 0.38724 0.0
C3034 C 0.42177 0.97174 0.47963 0.0
C3035 C 0.42556 0.9805 0.44921 0.0
C3036 C 0.42565 0.98045 0.3876 0.0
H3037 H 0.45656 0.04077 0.53506 0.0
H3038 H 0.44765 0.02487 0.48975 0.0
C3039 C 0.42199 0.97175 0.35685 0.0
C3040 C 0.4299 0.98972 0.48205 0.0
H3041 H 0.4285 0.01011 0.50307 0.0
C3042 C 0.43784 0.99206 0.51848 0.0
C3043 C 0.42639 0.99623 0.47704 0.0
C3044 C 0.41763 0.99391 0.44046 0.0
C3045 C 0.44257 0.00087 0.54869 0.0
C3046 C 0.43913 0.00744 0.54312 0.0
C3047 C 0.4311 0.00505 0.50731 0.0
C3048 C 0.44408 0.01703 0.57176 0.0
C3049 C 0.4514 0.00322 0.58462 0.0
C3050 C 0.44485 0.0179 0.63311 0.0
C3051 C 0.44999 0.02701 0.65935 0.0
C3052 C 0.45438 0.0354 0.62462 0.0
C3053 C 0.45332 0.03447 0.56324 0.0
C3054 C 0.44821 0.02539 0.53715 0.0
H3055 H 0.45434 0.99843 0.57364 0.0
H3056 H 0.45715 0.01083 0.57774 0.0
H3057 H 0.44946 0.00226 0.63186 0.0
H3058 H 0.44156 0.01154 0.66066 0.0
H3059 H 0.45061 0.02746 0.70673 0.0
H3060 H 0.55012 0.97154 0.30454 0.0
H3061 H 0.55909 0.98694 0.35621 0.0
H3062 H 0.55035 0.97213 0.52234 0.0
H3063 H 0.54148 0.95671 0.47136 0.0
H3064 H 0.55136 0.99476 0.43337 0.0
H3065 H 0.5794 0.98971 0.5442 0.0
H3066 H 0.57223 0.98218 0.48413 0.0
H3067 H 0.56727 0.98015 0.55697 0.0
C3068 C 0.55017 0.97154 0.35207 0.0
C3069 C 0.54507 0.96287 0.38374 0.0
C3070 C 0.55531 0.98035 0.38151 0.0
C3071 C 0.5555 0.98066 0.44308 0.0
C3072 C 0.55048 0.97204 0.47483 0.0
H3073 H 0.57692 0.02718 0.69942 0.0
H3074 H 0.56977 0.01147 0.65021 0.0
C3075 C 0.54535 0.96323 0.4455 0.0
C3076 C 0.56045 0.99006 0.47405 0.0
H3077 H 0.57815 0.0033 0.57378 0.0
C3078 C 0.55726 0.99666 0.46377 0.0
C3079 C 0.56809 0.99247 0.51404 0.0
C3080 C 0.57203 0.9858 0.52523 0.0
C3081 C 0.56143 0.00556 0.49294 0.0
C3082 C 0.5691 0.00799 0.53271 0.0
C3083 C 0.57227 0.00139 0.54327 0.0
C3084 C 0.57398 0.01745 0.56294 0.0
C3085 C 0.55746 0.01221 0.48178 0.0
C3086 C 0.57893 0.02597 0.53027 0.0
C3087 C 0.583 0.03493 0.55807 0.0
C3088 C 0.58225 0.03555 0.61929 0.0
C3089 C 0.5776 0.02697 0.65222 0.0
C3090 C 0.57351 0.01799 0.62423 0.0
H3091 H 0.55013 0.00832 0.46212 0.0
H3092 H 0.55712 0.01572 0.52306 0.0
H3093 H 0.56227 0.01795 0.4507 0.0
H3094 H 0.57953 0.0257 0.48304 0.0
H3095 H 0.58661 0.04137 0.5313 0.0
H3096 H 0.02841 0.57685 0.29987 0.0
H3097 H 0.0128 0.57001 0.34955 0.0
H3098 H 0.02721 0.57809 0.51718 0.0
H3099 H 0.04282 0.58483 0.4682 0.0
H3100 H 0.01244 0.55904 0.51236 0.0
H3101 H 0.99997 0.58359 0.42969 0.0
H3102 H 0.00353 0.57816 0.37335 0.0
H3103 H 0.01237 0.58643 0.42433 0.0
C3104 C 0.02827 0.57726 0.34728 0.0
C3105 C 0.03688 0.58139 0.38 0.0
C3106 C 0.01934 0.57339 0.37557 0.0
C3107 C 0.01886 0.57366 0.437 0.0
C3108 C 0.02743 0.57786 0.46971 0.0
H3109 H 0.97242 0.55007 0.69421 0.0
H3110 H 0.98803 0.55873 0.64461 0.0
C3111 C 0.03635 0.5817 0.44155 0.0
C3112 C 0.00942 0.56908 0.46753 0.0
H3113 H 0.9885 0.5697 0.48195 0.0
C3114 C 0.00722 0.56141 0.50603 0.0
C3115 C 0.00263 0.57216 0.45893 0.0
C3116 C 0.00475 0.5806 0.41975 0.0
C3117 C 0.99835 0.55662 0.53546 0.0
C3118 C 0.99156 0.5597 0.52695 0.0
C3119 C 0.99374 0.56737 0.48844 0.0
C3120 C 0.98208 0.55493 0.557 0.0
C3121 C 0.99622 0.54814 0.57429 0.0
C3122 C 0.97355 0.55021 0.52409 0.0
C3123 C 0.96461 0.54529 0.55224 0.0
C3124 C 0.96403 0.54505 0.61392 0.0
C3125 C 0.97259 0.55005 0.6467 0.0
C3126 C 0.98153 0.55496 0.61845 0.0
H3127 H 0.0011 0.54524 0.56482 0.0
H3128 H 0.99727 0.55048 0.62086 0.0
H3129 H 0.98864 0.54224 0.56879 0.0
H3130 H 0.97382 0.55015 0.47659 0.0
H3131 H 0.95816 0.54156 0.52556 0.0
H3132 H 0.42278 0.4501 0.29352 0.0
H3133 H 0.42941 0.44096 0.34108 0.0
H3134 H 0.42233 0.44765 0.51075 0.0
H3135 H 0.41559 0.45667 0.46392 0.0
H3136 H 0.44467 0.44829 0.42016 0.0
H3137 H 0.41168 0.41861 0.52203 0.0
H3138 H 0.41126 0.4262 0.46483 0.0
H3139 H 0.41368 0.43041 0.53946 0.0
C3140 C 0.42253 0.44954 0.34093 0.0
C3141 C 0.41864 0.45412 0.37485 0.0
C3142 C 0.42632 0.44431 0.368 0.0
C3143 C 0.42623 0.44351 0.42938 0.0
C3144 C 0.42228 0.44799 0.46329 0.0
H3145 H 0.45119 0.4228 0.68732 0.0
H3146 H 0.44251 0.42947 0.6346 0.0
C3147 C 0.41849 0.45321 0.43635 0.0
C3148 C 0.43084 0.43855 0.45827 0.0
H3149 H 0.42672 0.42055 0.55475 0.0
C3150 C 0.44073 0.44216 0.44911 0.0
C3151 C 0.42568 0.43059 0.49627 0.0
C3152 C 0.41497 0.42616 0.5059 0.0
C3153 C 0.44567 0.4382 0.47812 0.0
C3154 C 0.44054 0.4303 0.51655 0.0
C3155 C 0.43063 0.42662 0.52534 0.0
C3156 C 0.44538 0.42583 0.54836 0.0
C3157 C 0.4564 0.44268 0.46874 0.0
C3158 C 0.44968 0.4214 0.51733 0.0
C3159 C 0.45466 0.41761 0.54719 0.0
C3160 C 0.45539 0.41812 0.60882 0.0
C3161 C 0.45081 0.42232 0.63989 0.0
C3162 C 0.44584 0.42612 0.60988 0.0
H3163 H 0.45961 0.45002 0.44953 0.0
H3164 H 0.46014 0.44314 0.51068 0.0
H3165 H 0.45777 0.43812 0.43797 0.0
H3166 H 0.44925 0.42094 0.46989 0.0
H3167 H 0.45802 0.41436 0.52182 0.0
H3168 H 0.14109 0.409 0.2922 0.0
H3169 H 0.14556 0.41655 0.38868 0.0
H3170 H 0.14021 0.38958 0.46383 0.0
H3171 H 0.13626 0.38212 0.36645 0.0
H3172 H 0.13504 0.41256 0.48493 0.0
H3173 H 0.16635 0.40794 0.53162 0.0
H3174 H 0.16113 0.40618 0.45926 0.0
H3175 H 0.15595 0.39664 0.51291 0.0
C3176 C 0.1412 0.40476 0.3288 0.0
C3177 C 0.13872 0.39507 0.32143 0.0
C3178 C 0.14363 0.40906 0.3841 0.0
C3179 C 0.14349 0.40371 0.43312 0.0
C3180 C 0.14069 0.39393 0.42622 0.0
H3181 H 0.13196 0.40467 0.78693 0.0
H3182 H 0.13212 0.40544 0.68054 0.0
C3183 C 0.13834 0.38965 0.37077 0.0
C3184 C 0.14573 0.40816 0.4921 0.0
H3185 H 0.15859 0.41031 0.61584 0.0
C3186 C 0.14032 0.41223 0.51326 0.0
C3187 C 0.15282 0.40802 0.52843 0.0
C3188 C 0.15946 0.40456 0.50661 0.0
C3189 C 0.14131 0.4155 0.5713 0.0
C3190 C 0.14768 0.41443 0.60935 0.0
C3191 C 0.15361 0.41103 0.58689 0.0
C3192 C 0.14745 0.41552 0.6737 0.0
C3193 C 0.13535 0.41987 0.59149 0.0
C3194 C 0.15602 0.42098 0.70554 0.0
C3195 C 0.15598 0.42043 0.76679 0.0
C3196 C 0.14737 0.41435 0.79693 0.0
C3197 C 0.13872 0.40939 0.76507 0.0
C3198 C 0.13878 0.40991 0.70407 0.0
H3199 H 0.13408 0.42367 0.55481 0.0
H3200 H 0.12821 0.41404 0.60664 0.0
H3201 H 0.1389 0.42504 0.62809 0.0
H3202 H 0.1628 0.42532 0.68287 0.0
H3203 H 0.16276 0.42436 0.79014 0.0
H3204 H 0.61558 0.73481 0.34683 0.0
H3205 H 0.60897 0.73178 0.44646 0.0
H3206 H 0.59775 0.75093 0.41571 0.0
H3207 H 0.60438 0.75401 0.31621 0.0
H3208 H 0.61311 0.7451 0.53481 0.0
H3209 H 0.57413 0.72654 0.47857 0.0
H3210 H 0.58331 0.72832 0.42592 0.0
H3211 H 0.58128 0.73809 0.44412 0.0
C3212 C 0.61172 0.73838 0.36145 0.0
C3213 C 0.61031 0.74448 0.3236 0.0
C3214 C 0.6079 0.7366 0.41808 0.0
C3215 C 0.60266 0.74094 0.43773 0.0
C3216 C 0.6015 0.74727 0.40061 0.0
H3217 H 0.58386 0.74684 0.78077 0.0
H3218 H 0.58561 0.74645 0.67427 0.0
C3219 C 0.6053 0.74903 0.3439 0.0
C3220 C 0.59886 0.73922 0.49824 0.0
H3221 H 0.57821 0.73062 0.57915 0.0
C3222 C 0.60548 0.74187 0.54451 0.0
C3223 C 0.5889 0.73504 0.5105 0.0
C3224 C 0.58147 0.73175 0.46221 0.0
C3225 C 0.60241 0.74059 0.60296 0.0
C3226 C 0.59246 0.73641 0.61528 0.0
C3227 C 0.58582 0.73377 0.56918 0.0
C3228 C 0.58901 0.73497 0.67635 0.0
C3229 C 0.60986 0.74385 0.65124 0.0
C3230 C 0.58981 0.72826 0.71187 0.0
C3231 C 0.58886 0.72848 0.77256 0.0
C3232 C 0.58709 0.73542 0.79844 0.0
C3233 C 0.58529 0.74146 0.76214 0.0
C3234 C 0.58628 0.74125 0.70132 0.0
H3235 H 0.6173 0.74853 0.6344 0.0
H3236 H 0.60838 0.74786 0.68556 0.0
H3237 H 0.60953 0.73743 0.67223 0.0
H3238 H 0.59183 0.72331 0.693 0.0
H3239 H 0.59015 0.72365 0.79937 0.0
H3240 H 0.26884 0.86016 0.29179 0.0
H3241 H 0.2716 0.85547 0.38842 0.0
H3242 H 0.25024 0.86136 0.46213 0.0
H3243 H 0.24701 0.86547 0.36445 0.0
H3244 H 0.2781 0.86559 0.48532 0.0
H3245 H 0.24157 0.83498 0.5283 0.0
H3246 H 0.24529 0.84036 0.45654 0.0
H3247 H 0.24113 0.84567 0.51065 0.0
C3248 C 0.26448 0.86012 0.32808 0.0
C3249 C 0.2574 0.86277 0.32015 0.0
C3250 C 0.26617 0.85758 0.3835 0.0
C3251 C 0.26092 0.85778 0.43217 0.0
C3252 C 0.25413 0.86081 0.42479 0.0
H3253 H 0.27337 0.86773 0.78828 0.0
H3254 H 0.27401 0.86798 0.68191 0.0
C3255 C 0.25236 0.86326 0.36918 0.0
C3256 C 0.26288 0.85529 0.49118 0.0
H3257 H 0.25166 0.84218 0.61329 0.0
C3258 C 0.27235 0.86035 0.51301 0.0
C3259 C 0.25545 0.84824 0.52667 0.0
C3260 C 0.24532 0.84193 0.50404 0.0
C3261 C 0.27445 0.85902 0.57083 0.0
C3262 C 0.26683 0.85268 0.6081 0.0
C3263 C 0.2575 0.84713 0.58498 0.0
C3264 C 0.26806 0.85256 0.67243 0.0
C3265 C 0.28477 0.86456 0.59155 0.0
C3266 C 0.26454 0.84381 0.70285 0.0
C3267 C 0.26399 0.84361 0.76414 0.0
C3268 C 0.26692 0.85218 0.79576 0.0
C3269 C 0.27102 0.86099 0.76529 0.0
C3270 C 0.27149 0.86116 0.70427 0.0
H3271 H 0.28983 0.86575 0.5549 0.0
H3272 H 0.28637 0.87175 0.60764 0.0
H3273 H 0.28616 0.86074 0.62759 0.0
H3274 H 0.26181 0.83708 0.67906 0.0
H3275 H 0.26083 0.83672 0.78638 0.0
H3276 H 0.42437 0.16301 0.20393 0.0
H3277 H 0.42486 0.16279 0.31132 0.0
H3278 H 0.40647 0.13185 0.30968 0.0
H3279 H 0.40618 0.13197 0.20319 0.0
H3280 H 0.40926 0.15742 0.37572 0.0
H3281 H 0.42464 0.13467 0.43828 0.0
H3282 H 0.42603 0.13962 0.36538 0.0
H3283 H 0.41532 0.1285 0.3849 0.0
C3284 C 0.42068 0.15614 0.22646 0.0
C3285 C 0.41514 0.14752 0.19514 0.0
C3286 C 0.42096 0.15603 0.28779 0.0
C3287 C 0.41577 0.1473 0.31854 0.0
C3288 C 0.41073 0.13865 0.28705 0.0
H3289 H 0.38148 0.13402 0.6255 0.0
H3290 H 0.38884 0.13808 0.52772 0.0
C3291 C 0.41048 0.13874 0.22598 0.0
C3292 C 0.41433 0.14725 0.38271 0.0
H3293 H 0.41298 0.13478 0.50701 0.0
C3294 C 0.41029 0.15264 0.40476 0.0
C3295 C 0.41577 0.14112 0.42085 0.0
C3296 C 0.42078 0.13574 0.40113 0.0
C3297 C 0.40708 0.15157 0.46292 0.0
C3298 C 0.40768 0.14475 0.49938 0.0
C3299 C 0.41232 0.13985 0.47858 0.0
C3300 C 0.40324 0.14232 0.55839 0.0
C3301 C 0.40295 0.15768 0.48435 0.0
C3302 C 0.40879 0.14295 0.60752 0.0
C3303 C 0.40456 0.14047 0.66299 0.0
C3304 C 0.39474 0.13746 0.67038 0.0
C3305 C 0.38911 0.13654 0.62101 0.0
C3306 C 0.39333 0.13895 0.56538 0.0
H3307 H 0.40591 0.16453 0.4592 0.0
H3308 H 0.39501 0.15368 0.47798 0.0
H3309 H 0.40448 0.15944 0.53168 0.0
H3310 H 0.4164 0.14534 0.60293 0.0
H3311 H 0.40896 0.14079 0.69994 0.0
H3312 H 0.86738 0.24679 0.62492 0.0
H3313 H 0.86381 0.25049 0.52685 0.0
H3314 H 0.85448 0.26912 0.60345 0.0
H3315 H 0.85861 0.26594 0.70075 0.0
H3316 H 0.84681 0.24736 0.48096 0.0
H3317 H 0.87356 0.28659 0.48251 0.0
H3318 H 0.87351 0.27842 0.53719 0.0
H3319 H 0.86502 0.28264 0.54162 0.0
C3320 C 0.86457 0.25167 0.62064 0.0
C3321 C 0.86299 0.25584 0.67043 0.0
C3322 C 0.86251 0.25376 0.56481 0.0
C3323 C 0.85892 0.26011 0.55796 0.0
C3324 C 0.85734 0.26428 0.60769 0.0
H3325 H 0.8382 0.26161 0.20253 0.0
H3326 H 0.83832 0.26186 0.31011 0.0
C3327 C 0.85951 0.26229 0.66339 0.0
C3328 C 0.85684 0.26232 0.49856 0.0
H3329 H 0.86359 0.28052 0.39907 0.0
C3330 C 0.85041 0.25461 0.46307 0.0
C3331 C 0.86157 0.27181 0.47564 0.0
C3332 C 0.86886 0.28033 0.51095 0.0
C3333 C 0.84887 0.25606 0.40434 0.0
C3334 C 0.85369 0.26553 0.38111 0.0
C3335 C 0.85981 0.27329 0.41735 0.0
C3336 C 0.85367 0.26729 0.31744 0.0
C3337 C 0.84256 0.24735 0.36688 0.0
C3338 C 0.86235 0.27093 0.28632 0.0
C3339 C 0.86233 0.27093 0.22527 0.0
C3340 C 0.85361 0.26723 0.19417 0.0
C3341 C 0.84502 0.26439 0.22532 0.0
C3342 C 0.84506 0.26447 0.28671 0.0
H3343 H 0.84085 0.24049 0.38894 0.0
H3344 H 0.83566 0.24715 0.35761 0.0
H3345 H 0.84612 0.24774 0.32434 0.0
H3346 H 0.86909 0.27322 0.30921 0.0
H3347 H 0.8691 0.27332 0.20259 0.0
H3348 H 0.74533 0.57977 0.21263 0.0
H3349 H 0.74562 0.58065 0.31986 0.0
H3350 H 0.7263 0.5921 0.31475 0.0
H3351 H 0.72587 0.59114 0.20801 0.0
H3352 H 0.75294 0.59843 0.37273 0.0
H3353 H 0.71602 0.57384 0.45432 0.0
H3354 H 0.71998 0.57268 0.38205 0.0
H3355 H 0.71621 0.58139 0.39549 0.0
C3356 C 0.7409 0.58218 0.23441 0.0
C3357 C 0.73568 0.5855 0.20186 0.0
C3358 C 0.74109 0.58269 0.29566 0.0
C3359 C 0.73596 0.5864 0.32519 0.0
C3360 C 0.73018 0.58905 0.29295 0.0
H3361 H 0.73627 0.61346 0.6482 0.0
H3362 H 0.73395 0.60669 0.54917 0.0
C3363 C 0.73001 0.58857 0.23182 0.0
C3364 C 0.73777 0.58894 0.38809 0.0
H3365 H 0.72647 0.58689 0.51865 0.0
C3366 C 0.7472 0.59577 0.405 0.0
C3367 C 0.73024 0.58551 0.42979 0.0
C3368 C 0.72006 0.57788 0.41466 0.0
C3369 C 0.74922 0.59962 0.46187 0.0
C3370 C 0.74163 0.59642 0.50303 0.0
C3371 C 0.73226 0.58936 0.48675 0.0
C3372 C 0.7432 0.6006 0.56255 0.0
C3373 C 0.75937 0.6074 0.4766 0.0
C3374 C 0.74924 0.59947 0.60244 0.0
C3375 C 0.75064 0.6034 0.65873 0.0
C3376 C 0.74591 0.60839 0.67621 0.0
C3377 C 0.74 0.60965 0.63582 0.0
C3378 C 0.73861 0.60573 0.57953 0.0
H3379 H 0.76386 0.6105 0.43665 0.0
H3380 H 0.75933 0.61332 0.50176 0.0
H3381 H 0.76284 0.60428 0.50425 0.0
H3382 H 0.75281 0.5955 0.59019 0.0
H3383 H 0.75542 0.60253 0.68844 0.0
H3384 H 0.87822 0.61425 0.63813 0.0
H3385 H 0.8738 0.6073 0.5396 0.0
H3386 H 0.84368 0.59546 0.58156 0.0
H3387 H 0.84807 0.60271 0.67932 0.0
H3388 H 0.86199 0.58752 0.50971 0.0
H3389 H 0.84697 0.61007 0.42768 0.0
H3390 H 0.85434 0.61313 0.49283 0.0
H3391 H 0.84192 0.60375 0.49522 0.0
C3392 C 0.87066 0.61026 0.62609 0.0
C3393 C 0.86348 0.60889 0.66662 0.0
C3394 C 0.86815 0.60623 0.57007 0.0
C3395 C 0.85842 0.60087 0.55347 0.0
C3396 C 0.85123 0.59962 0.59351 0.0
H3397 H 0.83663 0.58004 0.20106 0.0
H3398 H 0.8368 0.58058 0.3084 0.0
C3399 C 0.85375 0.60367 0.64953 0.0
C3400 C 0.85587 0.59662 0.49409 0.0
H3401 H 0.84647 0.59835 0.36344 0.0
C3402 C 0.85853 0.58982 0.47777 0.0
C3403 C 0.85128 0.5996 0.45285 0.0
C3404 C 0.84852 0.60709 0.46762 0.0
C3405 C 0.85693 0.58607 0.42062 0.0
C3406 C 0.85268 0.58932 0.3788 0.0
C3407 C 0.84967 0.59583 0.39581 0.0
C3408 C 0.85229 0.58701 0.3157 0.0
C3409 C 0.85991 0.57876 0.40533 0.0
C3410 C 0.86091 0.59017 0.28452 0.0
C3411 C 0.86084 0.58989 0.22336 0.0
C3412 C 0.85215 0.58651 0.1923 0.0
C3413 C 0.84344 0.58269 0.22372 0.0
C3414 C 0.84352 0.58301 0.28502 0.0
H3415 H 0.86 0.57473 0.44482 0.0
H3416 H 0.85499 0.57352 0.37216 0.0
H3417 H 0.86731 0.58255 0.3868 0.0
H3418 H 0.86777 0.59344 0.30725 0.0
H3419 H 0.86766 0.59285 0.2004 0.0
H3420 H 0.41729 0.25273 0.22379 0.0
H3421 H 0.41508 0.25299 0.32984 0.0
H3422 H 0.4099 0.27679 0.30966 0.0
H3423 H 0.41202 0.27658 0.20361 0.0
H3424 H 0.42259 0.26804 0.42475 0.0
H3425 H 0.38385 0.25285 0.3673 0.0
H3426 H 0.39259 0.2532 0.31578 0.0
H3427 H 0.39218 0.26398 0.33172 0.0
C3428 C 0.41597 0.25821 0.24202 0.0
C3429 C 0.41461 0.26449 0.20525 0.0
C3430 C 0.41471 0.25834 0.3026 0.0
C3431 C 0.41213 0.26477 0.32701 0.0
C3432 C 0.41175 0.27169 0.29122 0.0
H3433 H 0.38621 0.26559 0.65862 0.0
H3434 H 0.39269 0.26853 0.55868 0.0
C3435 C 0.41298 0.27155 0.2307 0.0
C3436 C 0.40857 0.26339 0.38789 0.0
H3437 H 0.38794 0.25567 0.46738 0.0
C3438 C 0.41504 0.26535 0.43431 0.0
C3439 C 0.39868 0.25983 0.39975 0.0
C3440 C 0.39138 0.25726 0.35114 0.0
C3441 C 0.41187 0.26399 0.49282 0.0
C3442 C 0.40196 0.26039 0.50462 0.0
C3443 C 0.39553 0.25844 0.45806 0.0
C3444 C 0.39807 0.25856 0.56497 0.0
C3445 C 0.41915 0.26656 0.54143 0.0
C3446 C 0.39872 0.25178 0.60078 0.0
C3447 C 0.395 0.25007 0.65771 0.0
C3448 C 0.39057 0.25511 0.67952 0.0
C3449 C 0.38962 0.26163 0.64284 0.0
C3450 C 0.39336 0.26336 0.58601 0.0
H3451 H 0.42662 0.27152 0.52591 0.0
H3452 H 0.41756 0.27001 0.57871 0.0
H3453 H 0.41885 0.25989 0.55781 0.0
H3454 H 0.40205 0.24777 0.5846 0.0
H3455 H 0.39557 0.2448 0.68455 0.0
H3456 H 0.72666 0.13188 0.20799 0.0
H3457 H 0.72633 0.13201 0.3145 0.0
H3458 H 0.7386 0.16292 0.31335 0.0
H3459 H 0.73921 0.16289 0.20595 0.0
H3460 H 0.74902 0.15777 0.37843 0.0
H3461 H 0.71094 0.13504 0.44246 0.0
H3462 H 0.7141 0.12882 0.38947 0.0
H3463 H 0.71444 0.13988 0.36926 0.0
C3464 C 0.72909 0.1387 0.23018 0.0
C3465 C 0.73309 0.14739 0.19857 0.0
C3466 C 0.72879 0.13875 0.29124 0.0
C3467 C 0.73235 0.14746 0.32194 0.0
C3468 C 0.73578 0.15611 0.29042 0.0
H3469 H 0.73294 0.14141 0.70362 0.0
H3470 H 0.73005 0.14601 0.60674 0.0
C3471 C 0.73611 0.15607 0.2291 0.0
C3472 C 0.7338 0.14758 0.38613 0.0
H3473 H 0.72281 0.13534 0.51127 0.0
C3474 C 0.74324 0.15304 0.40781 0.0
C3475 C 0.72626 0.14152 0.42469 0.0
C3476 C 0.71586 0.13607 0.40527 0.0
C3477 C 0.74545 0.15209 0.46604 0.0
C3478 C 0.73806 0.14532 0.50295 0.0
C3479 C 0.72851 0.14037 0.48251 0.0
C3480 C 0.74015 0.14296 0.56196 0.0
C3481 C 0.75571 0.15824 0.48705 0.0
C3482 C 0.74667 0.13956 0.56877 0.0
C3483 C 0.74848 0.13713 0.62431 0.0
C3484 C 0.74379 0.13804 0.67378 0.0
C3485 C 0.73701 0.1411 0.66659 0.0
C3486 C 0.73526 0.1436 0.6112 0.0
H3487 H 0.75955 0.16506 0.46155 0.0
H3488 H 0.75598 0.16006 0.53431 0.0
H3489 H 0.75965 0.15425 0.48074 0.0
H3490 H 0.75027 0.13868 0.53102 0.0
H3491 H 0.75356 0.13457 0.62865 0.0
H3492 H 0.60385 0.84956 0.3081 0.0
H3493 H 0.59736 0.84602 0.4079 0.0
H3494 H 0.6077 0.87628 0.43665 0.0
H3495 H 0.61422 0.87986 0.33672 0.0
H3496 H 0.6121 0.86772 0.52641 0.0
H3497 H 0.57328 0.84586 0.46902 0.0
H3498 H 0.58071 0.8417 0.43583 0.0
H3499 H 0.58239 0.85332 0.41616 0.0
C3500 C 0.60462 0.85544 0.33547 0.0
C3501 C 0.60935 0.86496 0.31448 0.0
C3502 C 0.6009 0.8534 0.39234 0.0
C3503 C 0.60182 0.86086 0.42895 0.0
C3504 C 0.60681 0.87042 0.40869 0.0
H3505 H 0.5881 0.86422 0.79174 0.0
H3506 H 0.59003 0.8667 0.68572 0.0
C3507 C 0.61057 0.87245 0.35188 0.0
C3508 C 0.59798 0.85876 0.48941 0.0
H3509 H 0.57738 0.84586 0.56975 0.0
C3510 C 0.6045 0.86301 0.53589 0.0
C3511 C 0.58806 0.85259 0.50142 0.0
C3512 C 0.58068 0.84817 0.453 0.0
C3513 C 0.6014 0.86111 0.59427 0.0
C3514 C 0.59151 0.85489 0.60631 0.0
C3515 C 0.58495 0.85065 0.56001 0.0
C3516 C 0.58803 0.85257 0.66727 0.0
C3517 C 0.60877 0.86559 0.6428 0.0
C3518 C 0.5857 0.84359 0.69108 0.0
C3519 C 0.58458 0.84213 0.75167 0.0
C3520 C 0.58584 0.84967 0.789 0.0
C3521 C 0.58723 0.85832 0.7642 0.0
C3522 C 0.58833 0.85976 0.7037 0.0
H3523 H 0.61628 0.86882 0.62614 0.0
H3524 H 0.60797 0.87139 0.66419 0.0
H3525 H 0.60761 0.86014 0.67677 0.0
H3526 H 0.58541 0.83796 0.66331 0.0
H3527 H 0.58344 0.83536 0.76939 0.0
H3528 H 0.12226 0.73605 0.35496 0.0
H3529 H 0.12675 0.73349 0.45331 0.0
H3530 H 0.15686 0.75099 0.40879 0.0
H3531 H 0.15243 0.75387 0.31128 0.0
H3532 H 0.13832 0.72514 0.48341 0.0
H3533 H 0.15414 0.76301 0.56165 0.0
H3534 H 0.14659 0.75863 0.49728 0.0
H3535 H 0.15893 0.7614 0.49399 0.0
C3536 C 0.12983 0.73942 0.36638 0.0
C3537 C 0.137 0.74503 0.32523 0.0
C3538 C 0.13238 0.73789 0.42228 0.0
C3539 C 0.14212 0.74205 0.43812 0.0
C3540 C 0.1493 0.74776 0.3974 0.0
H3541 H 0.16408 0.74372 0.79084 0.0
H3542 H 0.16387 0.74379 0.68346 0.0
C3543 C 0.14675 0.7493 0.3415 0.0
C3544 C 0.14471 0.74043 0.49757 0.0
H3545 H 0.15444 0.75183 0.62703 0.0
C3546 C 0.14192 0.73097 0.51478 0.0
C3547 C 0.14948 0.74809 0.53801 0.0
C3548 C 0.15241 0.75835 0.52221 0.0
C3549 C 0.14355 0.72892 0.57209 0.0
C3550 C 0.14796 0.73652 0.61319 0.0
C3551 C 0.15111 0.74603 0.59524 0.0
C3552 C 0.14837 0.73475 0.67651 0.0
C3553 C 0.14044 0.71864 0.5883 0.0
C3554 C 0.13976 0.7294 0.70794 0.0
C3555 C 0.13985 0.72935 0.76912 0.0
C3556 C 0.14855 0.73473 0.79994 0.0
C3557 C 0.15725 0.73952 0.76836 0.0
C3558 C 0.15715 0.73958 0.70703 0.0
H3559 H 0.14032 0.71442 0.54925 0.0
H3560 H 0.14529 0.7183 0.62193 0.0
H3561 H 0.13302 0.71514 0.60651 0.0
H3562 H 0.13289 0.72577 0.68534 0.0
H3563 H 0.13303 0.72556 0.79218 0.0
H3564 H 0.26268 0.42484 0.79013 0.0
H3565 H 0.26292 0.42485 0.68256 0.0
H3566 H 0.27418 0.40536 0.68483 0.0
H3567 H 0.27429 0.40557 0.79144 0.0
H3568 H 0.2815 0.41799 0.59454 0.0
H3569 H 0.2415 0.40097 0.60421 0.0
H3570 H 0.24821 0.41286 0.63504 0.0
H3571 H 0.24873 0.40299 0.66897 0.0
C3572 C 0.26543 0.42076 0.76764 0.0
C3573 C 0.26824 0.41502 0.79919 0.0
C3574 C 0.2655 0.42072 0.70624 0.0
C3575 C 0.26829 0.41487 0.6759 0.0
C3576 C 0.27191 0.40985 0.7074 0.0
H3577 H 0.24759 0.38062 0.36814 0.0
H3578 H 0.25133 0.38785 0.46633 0.0
C3579 C 0.27192 0.40995 0.76846 0.0
C3580 C 0.26653 0.41303 0.61226 0.0
H3581 H 0.24837 0.40182 0.51226 0.0
C3582 C 0.27428 0.41458 0.57618 0.0
C3583 C 0.25707 0.40843 0.58893 0.0
C3584 C 0.24837 0.40613 0.62621 0.0
C3585 C 0.27279 0.41131 0.51796 0.0
C3586 C 0.26331 0.40662 0.4949 0.0
C3587 C 0.25562 0.40542 0.53024 0.0
C3588 C 0.26109 0.40235 0.43545 0.0
C3589 C 0.28129 0.41244 0.48286 0.0
C3590 C 0.26533 0.4081 0.38581 0.0
C3591 C 0.26331 0.40395 0.33004 0.0
C3592 C 0.25677 0.39405 0.32284 0.0
C3593 C 0.25254 0.38829 0.37255 0.0
C3594 C 0.25465 0.39242 0.42844 0.0
H3595 H 0.28751 0.41392 0.51146 0.0
H3596 H 0.27932 0.40587 0.45661 0.0
H3597 H 0.28368 0.41861 0.45222 0.0
H3598 H 0.27023 0.41578 0.39016 0.0
H3599 H 0.267 0.4085 0.29275 0.0
H3600 H 0.83158 0.75309 0.12162 0.0
H3601 H 0.83116 0.75254 0.01427 0.0
H3602 H 0.80042 0.74137 0.01793 0.0
H3603 H 0.80079 0.74199 0.12475 0.0
H3604 H 0.82061 0.73491 0.9598 0.0
H3605 H 0.80877 0.75997 0.87999 0.0
H3606 H 0.81379 0.76092 0.95237 0.0
H3607 H 0.80129 0.75238 0.93826 0.0
C3608 C 0.82478 0.75081 0.09951 0.0
C3609 C 0.81619 0.74746 0.1316 0.0
C3610 C 0.82456 0.7505 0.03821 0.0
C3611 C 0.81577 0.74696 0.00822 0.0
C3612 C 0.80731 0.74429 0.04011 0.0
H3613 H 0.78857 0.72033 0.68622 0.0
H3614 H 0.79329 0.72718 0.7849 0.0
C3615 C 0.80752 0.74457 0.10126 0.0
C3616 C 0.8151 0.74456 0.94513 0.0
H3617 H 0.80591 0.74688 0.81507 0.0
C3618 C 0.81759 0.73767 0.92777 0.0
C3619 C 0.81108 0.74812 0.90375 0.0
C3620 C 0.80867 0.75583 0.91939 0.0
C3621 C 0.81569 0.73386 0.87081 0.0
C3622 C 0.81134 0.73716 0.83003 0.0
C3623 C 0.80918 0.74432 0.8467 0.0
C3624 C 0.80858 0.73298 0.77061 0.0
C3625 C 0.8179 0.72599 0.85566 0.0
C3626 C 0.81562 0.73391 0.73033 0.0
C3627 C 0.81293 0.72993 0.67428 0.0
C3628 C 0.80318 0.72509 0.65738 0.0
C3629 C 0.79614 0.72403 0.69813 0.0
C3630 C 0.79883 0.728 0.75422 0.0
H3631 H 0.81926 0.72282 0.89543 0.0
H3632 H 0.81187 0.72012 0.83058 0.0
H3633 H 0.82446 0.72904 0.82783 0.0
H3634 H 0.82319 0.73777 0.74213 0.0
H3635 H 0.81849 0.73063 0.6443 0.0
H3636 H 0.24708 0.07832 0.11176 0.0
H3637 H 0.2481 0.0787 0.00459 0.0
H3638 H 0.25924 0.05912 0.00979 0.0
H3639 H 0.25814 0.05859 0.1165 0.0
H3640 H 0.26597 0.08589 0.95245 0.0
H3641 H 0.24108 0.04913 0.86949 0.0
H3642 H 0.2399 0.05308 0.94174 0.0
H3643 H 0.24851 0.04918 0.92861 0.0
C3644 C 0.24945 0.07385 0.09001 0.0
C3645 C 0.25265 0.06852 0.1226 0.0
C3646 C 0.25005 0.07409 0.02878 0.0
C3647 C 0.25372 0.06892 -0.00069 0.0
C3648 C 0.25623 0.06304 0.03155 0.0
H3649 H 0.28066 0.06907 0.67593 0.0
H3650 H 0.27394 0.06679 0.77508 0.0
C3651 C 0.25567 0.06281 0.09266 0.0
C3652 C 0.25633 0.07076 0.93652 0.0
H3653 H 0.25419 0.05953 0.80557 0.0
C3654 C 0.26326 0.08017 0.91997 0.0
C3655 C 0.25284 0.06326 0.89456 0.0
C3656 C 0.2451 0.05311 0.90933 0.0
C3657 C 0.26714 0.08221 0.86319 0.0
C3658 C 0.26387 0.07465 0.82174 0.0
C3659 C 0.25671 0.06529 0.83768 0.0
C3660 C 0.26805 0.07623 0.76222 0.0
C3661 C 0.27502 0.09233 0.84882 0.0
C3662 C 0.26703 0.08236 0.72259 0.0
C3663 C 0.27092 0.08373 0.66622 0.0
C3664 C 0.27577 0.07888 0.6484 0.0
C3665 C 0.27694 0.07289 0.68856 0.0
C3666 C 0.27306 0.07153 0.74493 0.0
H3667 H 0.27815 0.09676 0.88895 0.0
H3668 H 0.2809 0.09222 0.8236 0.0
H3669 H 0.27198 0.0959 0.82138 0.0
H3670 H 0.26314 0.08601 0.73508 0.0
H3671 H 0.27012 0.08858 0.63667 0.0
H3672 H 0.93434 0.21434 0.67107 0.0
H3673 H 0.93704 0.2106 0.77113 0.0
H3674 H 0.91468 0.18098 0.74727 0.0
H3675 H 0.91198 0.18468 0.64725 0.0
H3676 H 0.92441 0.20342 0.8635 0.0
H3677 H 0.93733 0.17817 0.8044 0.0
H3678 H 0.93638 0.18605 0.75145 0.0
H3679 H 0.92582 0.17503 0.77328 0.0
C3680 C 0.92998 0.20705 0.68739 0.0
C3681 C 0.92308 0.19975 0.6513 0.0
C3682 C 0.93156 0.20491 0.74426 0.0
C3683 C 0.92625 0.19545 0.76584 0.0
C3684 C 0.91908 0.18824 0.73065 0.0
H3685 H 0.91753 0.16947 0.10447 0.0
H3686 H 0.91842 0.17233 -0.00132 0.0
C3687 C 0.91753 0.19037 0.67371 0.0
C3688 C 0.92794 0.19323 0.82608 0.0
H3689 H 0.93382 0.17881 0.90565 0.0
C3690 C 0.92656 0.19812 0.87272 0.0
C3691 C 0.93074 0.18629 0.83774 0.0
C3692 C 0.93275 0.18114 0.78907 0.0
C3693 C 0.92766 0.19608 0.93099 0.0
C3694 C 0.93034 0.18906 0.9427 0.0
C3695 C 0.93181 0.18421 0.89618 0.0
C3696 C 0.93119 0.18644 0.0035 0.0
C3697 C 0.92569 0.20125 0.97973 0.0
C3698 C 0.93842 0.19321 0.04032 0.0
C3699 C 0.93793 0.19162 0.10071 0.0
C3700 C 0.93019 0.18324 0.12498 0.0
C3701 C 0.92353 0.17604 0.08719 0.0
C3702 C 0.92402 0.17765 0.02674 0.0
H3703 H 0.922 0.20513 0.96351 0.0
H3704 H 0.92116 0.19609 0.01439 0.0
H3705 H 0.93262 0.20662 0.00011 0.0
H3706 H 0.94408 0.19998 0.02276 0.0
H3707 H 0.94326 0.19725 0.12861 0.0
H3708 H 0.07288 0.46517 0.53586 0.0
H3709 H 0.07254 0.46465 0.64238 0.0
H3710 H 0.09082 0.49558 0.64896 0.0
H3711 H 0.0909 0.49623 0.54144 0.0
H3712 H 0.08497 0.47006 0.73307 0.0
H3713 H 0.06643 0.49164 0.72757 0.0
H3714 H 0.06889 0.48697 0.66192 0.0
H3715 H 0.0784 0.49745 0.69754 0.0
C3716 C 0.07696 0.47187 0.55976 0.0
C3717 C 0.08169 0.48077 0.53027 0.0
C3718 C 0.0768 0.47155 0.62077 0.0
C3719 C 0.08143 0.4801 0.65348 0.0
C3720 C 0.08698 0.48893 0.62434 0.0
H3721 H 0.07491 0.4736 0.03595 0.0
H3722 H 0.08212 0.47787 0.93844 0.0
C3723 C 0.08707 0.48927 0.56298 0.0
C3724 C 0.07946 0.47966 0.71713 0.0
H3725 H 0.06755 0.48553 0.81858 0.0
C3726 C 0.08127 0.47353 0.75213 0.0
C3727 C 0.07448 0.48409 0.74137 0.0
C3728 C 0.07184 0.49034 0.70522 0.0
C3729 C 0.07793 0.4714 0.81011 0.0
C3730 C 0.07289 0.47577 0.83412 0.0
C3731 C 0.07141 0.48219 0.79988 0.0
C3732 C 0.06862 0.47341 0.89356 0.0
C3733 C 0.07937 0.4641 0.84385 0.0
C3734 C 0.05866 0.46972 0.90087 0.0
C3735 C 0.05457 0.4676 0.95687 0.0
C3736 C 0.06039 0.46921 0.00635 0.0
C3737 C 0.07031 0.47269 -0.0012 0.0
C3738 C 0.07442 0.47493 0.94297 0.0
H3739 H 0.081 0.45958 0.81426 0.0
H3740 H 0.08556 0.46795 0.87429 0.0
H3741 H 0.07288 0.45928 0.87016 0.0
H3742 H 0.05405 0.46846 0.86317 0.0
H3743 H 0.04689 0.46479 0.96155 0.0
H3744 H 0.50239 0.58871 0.54359 0.0
H3745 H 0.50282 0.58843 0.65089 0.0
H3746 H 0.5336 0.60772 0.64746 0.0
H3747 H 0.53324 0.60814 0.54067 0.0
H3748 H 0.51321 0.5811 0.70481 0.0
H3749 H 0.5254 0.618 0.78604 0.0
H3750 H 0.52037 0.61404 0.71359 0.0
H3751 H 0.53283 0.61784 0.72761 0.0
C3752 C 0.5092 0.59314 0.56575 0.0
C3753 C 0.5178 0.59835 0.53369 0.0
C3754 C 0.50943 0.59295 0.62703 0.0
C3755 C 0.51823 0.59808 0.65706 0.0
C3756 C 0.52671 0.60384 0.62526 0.0
H3757 H 0.54504 0.59804 0.97956 0.0
H3758 H 0.54046 0.60028 0.88075 0.0
C3759 C 0.5265 0.60401 0.56411 0.0
C3760 C 0.51886 0.59627 0.72006 0.0
H3761 H 0.52805 0.6076 0.85061 0.0
C3762 C 0.51627 0.58685 0.73707 0.0
C3763 C 0.52293 0.6038 0.76174 0.0
C3764 C 0.52546 0.61397 0.74647 0.0
C3765 C 0.51809 0.58484 0.79399 0.0
C3766 C 0.52247 0.59244 0.8351 0.0
C3767 C 0.52474 0.6018 0.81875 0.0
C3768 C 0.52514 0.59091 0.89453 0.0
C3769 C 0.51575 0.5747 0.8088 0.0
C3770 C 0.51804 0.58483 0.93458 0.0
C3771 C 0.52064 0.58347 0.99074 0.0
C3772 C 0.53038 0.58829 0.00796 0.0
C3773 C 0.53748 0.59424 0.96741 0.0
C3774 C 0.53488 0.59559 0.91124 0.0
H3775 H 0.51437 0.57021 0.76887 0.0
H3776 H 0.52173 0.57477 0.83394 0.0
H3777 H 0.50917 0.57123 0.83647 0.0
H3778 H 0.51048 0.5812 0.92255 0.0
H3779 H 0.51504 0.57865 0.02056 0.0
H3780 H 0.40072 0.94819 0.98781 0.0
H3781 H 0.39786 0.94173 0.88778 0.0
H3782 H 0.41926 0.93317 0.91285 0.0
H3783 H 0.42212 0.93961 0.01284 0.0
H3784 H 0.41062 0.94675 0.79604 0.0
H3785 H 0.39594 0.90825 0.85469 0.0
H3786 H 0.39724 0.91722 0.90759 0.0
H3787 H 0.40753 0.91624 0.88634 0.0
C3788 C 0.40483 0.94496 0.97179 0.0
C3789 C 0.4115 0.94422 0.00823 0.0
C3790 C 0.40316 0.94123 0.91493 0.0
C3791 C 0.40816 0.93674 0.89365 0.0
C3792 C 0.41509 0.93632 0.92922 0.0
H3793 H 0.41548 0.91845 0.55395 0.0
H3794 H 0.41487 0.92056 0.65984 0.0
C3795 C 0.41674 0.94002 0.98616 0.0
C3796 C 0.40639 0.93284 0.83333 0.0
H3797 H 0.39952 0.91234 0.75353 0.0
C3798 C 0.40811 0.93921 0.78674 0.0
C3799 C 0.40312 0.92299 0.82156 0.0
C3800 C 0.40076 0.91575 0.87018 0.0
C3801 C 0.40687 0.93607 0.72843 0.0
C3802 C 0.40369 0.92625 0.71662 0.0
C3803 C 0.40191 0.91984 0.76307 0.0
C3804 C 0.4026 0.92274 0.65575 0.0
C3805 C 0.40921 0.94332 0.67977 0.0
C3806 C 0.39554 0.92272 0.6193 0.0
C3807 C 0.39587 0.92155 0.55886 0.0
C3808 C 0.40327 0.92038 0.53415 0.0
C3809 C 0.40973 0.91942 0.57157 0.0
C3810 C 0.4094 0.92062 0.63208 0.0
H3811 H 0.41327 0.95086 0.69603 0.0
H3812 H 0.41353 0.94238 0.64493 0.0
H3813 H 0.4024 0.94216 0.65962 0.0
H3814 H 0.39016 0.92423 0.63718 0.0
H3815 H 0.3907 0.92219 0.53126 0.0
H3816 H 0.50283 0.91783 0.55188 0.0
H3817 H 0.5054 0.91982 0.65794 0.0
H3818 H 0.53381 0.92349 0.63645 0.0
H3819 H 0.53136 0.92158 0.53038 0.0
H3820 H 0.51242 0.91159 0.75214 0.0
H3821 H 0.5373 0.9501 0.69491 0.0
H3822 H 0.52862 0.94162 0.64356 0.0
H3823 H 0.53952 0.94142 0.65879 0.0
C3824 C 0.50951 0.91877 0.5698 0.0
C3825 C 0.51699 0.91978 0.53272 0.0
C3826 C 0.51096 0.9199 0.6304 0.0
C3827 C 0.51986 0.92199 0.65445 0.0
C3828 C 0.52694 0.922 0.61828 0.0
H3829 H 0.54726 0.94729 0.98618 0.0
H3830 H 0.54355 0.94078 0.8863 0.0
C3831 C 0.52552 0.92091 0.55776 0.0
C3832 C 0.52223 0.9255 0.71534 0.0
H3833 H 0.53586 0.94596 0.79489 0.0
C3834 C 0.51755 0.91909 0.76174 0.0
C3835 C 0.52889 0.9353 0.72722 0.0
C3836 C 0.53384 0.94256 0.67864 0.0
C3837 C 0.5195 0.92223 0.82025 0.0
C3838 C 0.52612 0.93206 0.83208 0.0
C3839 C 0.5308 0.93844 0.78554 0.0
C3840 C 0.5283 0.93594 0.8924 0.0
C3841 C 0.51457 0.91499 0.86883 0.0
C3842 C 0.521 0.93562 0.92804 0.0
C3843 C 0.52311 0.93935 0.9849 0.0
C3844 C 0.53256 0.94348 0.00679 0.0
C3845 C 0.53992 0.94412 0.97029 0.0
C3846 C 0.5378 0.94036 0.91352 0.0
H3847 H 0.51181 0.90748 0.85329 0.0
H3848 H 0.51957 0.91641 0.90617 0.0
H3849 H 0.50835 0.91556 0.88515 0.0
H3850 H 0.51369 0.93253 0.91178 0.0
H3851 H 0.51736 0.93902 0.01164 0.0
H3852 H 0.07222 0.6032 0.03173 0.0
H3853 H 0.07872 0.60685 0.93191 0.0
H3854 H 0.05316 0.58164 0.86804 0.0
H3855 H 0.04658 0.57806 0.96804 0.0
H3856 H 0.0831 0.59637 0.8567 0.0
H3857 H 0.05493 0.60274 0.7617 0.0
H3858 H 0.05628 0.60193 0.83977 0.0
H3859 H 0.04993 0.59115 0.79619 0.0
C3860 C 0.06805 0.59841 0.99635 0.0
C3861 C 0.05899 0.59027 0.00724 0.0
C3862 C 0.07174 0.60052 0.93948 0.0
C3863 C 0.06638 0.59457 0.89264 0.0
C3864 C 0.05732 0.58642 0.90352 0.0
H3865 H 0.08147 0.5848 0.55463 0.0
H3866 H 0.08069 0.58657 0.66032 0.0
C3867 C 0.0536 0.58435 0.96044 0.0
C3868 C 0.07032 0.59684 0.83243 0.0
H3869 H 0.06489 0.60035 0.69346 0.0
C3870 C 0.07919 0.59736 0.82101 0.0
C3871 C 0.06533 0.59837 0.78637 0.0
C3872 C 0.05614 0.59862 0.79667 0.0
C3873 C 0.08297 0.59891 0.76396 0.0
C3874 C 0.07762 0.59974 0.71724 0.0
C3875 C 0.06898 0.59966 0.72925 0.0
C3876 C 0.08032 0.5999 0.65499 0.0
C3877 C 0.09262 0.59959 0.75439 0.0
C3878 C 0.08058 0.6069 0.6168 0.0
C3879 C 0.08083 0.6058 0.55621 0.0
C3880 C 0.08087 0.59769 0.53294 0.0
C3881 C 0.08146 0.59113 0.57129 0.0
C3882 C 0.08108 0.59218 0.63187 0.0
H3883 H 0.09721 0.60236 0.79421 0.0
H3884 H 0.09148 0.59228 0.74516 0.0
H3885 H 0.09654 0.60437 0.71679 0.0
H3886 H 0.08001 0.61292 0.63377 0.0
H3887 H 0.08045 0.611 0.52762 0.0
H3888 H 0.42124 0.48617 0.01842 0.0
H3889 H 0.41825 0.4907 0.92136 0.0
H3890 H 0.39942 0.46067 0.87964 0.0
H3891 H 0.40218 0.45611 0.97725 0.0
H3892 H 0.42188 0.48512 0.81297 0.0
H3893 H 0.38304 0.47306 0.83763 0.0
H3894 H 0.39081 0.47485 0.89954 0.0
H3895 H 0.38599 0.46396 0.85679 0.0
C3896 C 0.41634 0.48055 0.98892 0.0
C3897 C 0.41177 0.4708 0.00568 0.0
C3898 C 0.41468 0.48314 0.93348 0.0
C3899 C 0.40841 0.47603 0.89411 0.0
C3900 C 0.40406 0.46627 0.91013 0.0
H3901 H 0.39339 0.46689 0.53933 0.0
H3902 H 0.39385 0.46695 0.64625 0.0
C3903 C 0.40574 0.46368 0.96549 0.0
C3904 C 0.40684 0.47872 0.83486 0.0
H3905 H 0.38921 0.47587 0.73918 0.0
C3906 C 0.41478 0.48327 0.797 0.0
C3907 C 0.39756 0.47632 0.81456 0.0
C3908 C 0.38887 0.47186 0.85442 0.0
C3909 C 0.4136 0.48496 0.73808 0.0
C3910 C 0.40424 0.48219 0.71705 0.0
C3911 C 0.39636 0.47801 0.75561 0.0
C3912 C 0.40241 0.48248 0.65379 0.0
C3913 C 0.42228 0.48918 0.69804 0.0
C3914 C 0.40666 0.49124 0.62292 0.0
C3915 C 0.40645 0.49123 0.56159 0.0
C3916 C 0.40198 0.48246 0.53056 0.0
C3917 C 0.397 0.47376 0.56195 0.0
C3918 C 0.39722 0.47378 0.62307 0.0
H3919 H 0.42864 0.4894 0.7191 0.0
H3920 H 0.42062 0.48492 0.65688 0.0
H3921 H 0.42425 0.49666 0.68617 0.0
H3922 H 0.41055 0.49803 0.64612 0.0
H3923 H 0.41028 0.49806 0.53865 0.0
H3924 H 0.24316 0.17143 0.12821 0.0
H3925 H 0.24297 0.17164 0.02064 0.0
H3926 H 0.26285 0.20231 0.02224 0.0
H3927 H 0.26282 0.20225 0.12884 0.0
H3928 H 0.25006 0.19713 0.9327 0.0
H3929 H 0.26659 0.17369 0.94084 0.0
H3930 H 0.25476 0.16869 0.97229 0.0
H3931 H 0.26477 0.179 0.00583 0.0
C3932 C 0.24729 0.17825 0.10558 0.0
C3933 C 0.25319 0.18678 0.13691 0.0
C3934 C 0.24723 0.17834 0.04419 0.0
C3935 C 0.25312 0.18694 0.01364 0.0
C3936 C 0.25831 0.19558 0.04497 0.0
H3937 H 0.28724 0.20031 0.70622 0.0
H3938 H 0.27996 0.1968 0.80425 0.0
C3939 C 0.25832 0.19551 0.10602 0.0
C3940 C 0.25485 0.18697 0.9499 0.0
H3941 H 0.26583 0.17986 0.84927 0.0
C3942 C 0.25338 0.19325 0.91407 0.0
C3943 C 0.25933 0.18201 0.92622 0.0
C3944 C 0.26154 0.17552 0.96319 0.0
C3945 C 0.25662 0.19502 0.8558 0.0
C3946 C 0.26121 0.19016 0.83246 0.0
C3947 C 0.26231 0.18357 0.86749 0.0
C3948 C 0.26551 0.19224 0.77311 0.0
C3949 C 0.25558 0.20248 0.82098 0.0
C3950 C 0.25981 0.19083 0.72338 0.0
C3951 C 0.26398 0.19296 0.66772 0.0
C3952 C 0.27387 0.19623 0.66071 0.0
C3953 C 0.27958 0.19766 0.7105 0.0
C3954 C 0.27542 0.19564 0.76629 0.0
H3955 H 0.25414 0.20722 0.84975 0.0
H3956 H 0.26218 0.20706 0.7949 0.0
H3957 H 0.24942 0.19877 0.79018 0.0
H3958 H 0.25214 0.18812 0.7276 0.0
H3959 H 0.25947 0.19218 0.63033 0.0
H3960 H 0.80191 0.05751 0.1294 0.0
H3961 H 0.79943 0.05674 0.02343 0.0
H3962 H 0.82844 0.08033 -0.00035 0.0
H3963 H 0.83103 0.08118 0.10569 0.0
H3964 H 0.80141 0.07402 0.9713 0.0
H3965 H 0.82423 0.06161 0.86056 0.0
H3966 H 0.82042 0.05872 0.93613 0.0
H3967 H 0.83001 0.07054 0.9171 0.0
C3968 C 0.80787 0.06236 0.10159 0.0
C3969 C 0.81662 0.06953 0.12598 0.0
C3970 C 0.80644 0.06188 0.04105 0.0
C3971 C 0.81374 0.06849 0.00397 0.0
C3972 C 0.82276 0.0751 0.02762 0.0
H3973 H 0.81632 0.08797 0.64748 0.0
H3974 H 0.81973 0.08518 0.74809 0.0
C3975 C 0.82421 0.0756 0.08828 0.0
C3976 C 0.8114 0.06955 0.9428 0.0
H3977 H 0.81708 0.06841 0.79994 0.0
C3978 C 0.80476 0.07271 0.93371 0.0
C3979 C 0.81591 0.06797 0.89429 0.0
C3980 C 0.823 0.06446 0.90215 0.0
C3981 C 0.8026 0.07449 0.87719 0.0
C3982 C 0.80703 0.07283 0.82842 0.0
C3983 C 0.81368 0.06965 0.83749 0.0
C3984 C 0.80494 0.07447 0.76769 0.0
C3985 C 0.79582 0.07843 0.87044 0.0
C3986 C 0.7955 0.06937 0.74556 0.0
C3987 C 0.79354 0.071 0.68837 0.0
C3988 C 0.80102 0.07761 0.65212 0.0
C3989 C 0.81046 0.08272 0.67431 0.0
C3990 C 0.81241 0.08114 0.73167 0.0
H3991 H 0.79523 0.0818 0.9117 0.0
H3992 H 0.79824 0.08388 0.8348 0.0
H3993 H 0.78852 0.07244 0.85923 0.0
H3994 H 0.78967 0.06406 0.77234 0.0
H3995 H 0.78622 0.06692 0.67199 0.0
H3996 H 0.91693 0.74814 0.1061 0.0
H3997 H 0.91763 0.74632 0.00012 0.0
H3998 H 0.9441 0.74568 0.02013 0.0
H3999 H 0.94335 0.74727 0.12644 0.0
H4000 H 0.93061 0.7551 0.90682 0.0
H4001 H 0.92473 0.71863 0.95924 0.0
H4002 H 0.92374 0.72626 0.01369 0.0
H4003 H 0.93541 0.7284 0.99116 0.0
C4004 C 0.92304 0.74788 0.08787 0.0
C4005 C 0.92996 0.74761 0.12458 0.0
C4006 C 0.92343 0.74683 0.0273 0.0
C4007 C 0.93076 0.74558 0.00279 0.0
C4008 C 0.93825 0.7464 0.03862 0.0
H4009 H 0.93711 0.73755 0.63126 0.0
H4010 H 0.93946 0.74377 0.73169 0.0
C4011 C 0.93783 0.74734 0.09923 0.0
C4012 C 0.9299 0.74226 0.94152 0.0
H4013 H 0.92648 0.72299 0.85934 0.0
C4014 C 0.92975 0.74811 0.89622 0.0
C4015 C 0.92855 0.73303 0.92831 0.0
C4016 C 0.92802 0.72616 0.97561 0.0
C4017 C 0.92835 0.74498 0.83768 0.0
C4018 C 0.92726 0.73585 0.82439 0.0
C4019 C 0.92738 0.73001 0.86977 0.0
C4020 C 0.92587 0.73213 0.76376 0.0
C4021 C 0.92778 0.75135 0.7909 0.0
C4022 C 0.91763 0.72333 0.74924 0.0
C4023 C 0.91634 0.71973 0.69212 0.0
C4024 C 0.92322 0.72494 0.6489 0.0
C4025 C 0.93158 0.73358 0.66378 0.0
C4026 C 0.93291 0.73715 0.72089 0.0
H4027 H 0.92608 0.75673 0.80985 0.0
H4028 H 0.93485 0.75535 0.76834 0.0
H4029 H 0.92221 0.74701 0.7576 0.0
H4030 H 0.91217 0.7193 0.78202 0.0
H4031 H 0.90989 0.71299 0.68141 0.0
H4032 H 0.49643 0.0907 0.4578 0.0
H4033 H 0.49648 0.09136 0.35041 0.0
H4034 H 0.46563 0.07232 0.34897 0.0
H4035 H 0.46549 0.07184 0.45548 0.0
H4036 H 0.4916 0.07585 0.28537 0.0
H4037 H 0.46837 0.0906 0.22093 0.0
H4038 H 0.47321 0.09202 0.2942 0.0
H4039 H 0.46225 0.08119 0.27386 0.0
C4040 C 0.48963 0.0869 0.4346 0.0
C4041 C 0.48097 0.08113 0.46505 0.0
C4042 C 0.48967 0.08727 0.37327 0.0
C4043 C 0.48105 0.08195 0.34167 0.0
C4044 C 0.47234 0.07667 0.37229 0.0
H4045 H 0.46876 0.04795 0.03497 0.0
H4046 H 0.47274 0.05536 0.13261 0.0
C4047 C 0.47229 0.07632 0.43335 0.0
C4048 C 0.48122 0.08063 0.2775 0.0
H4049 H 0.46893 0.07918 0.15214 0.0
C4050 C 0.48681 0.0768 0.25591 0.0
C4051 C 0.47508 0.08198 0.23883 0.0
C4052 C 0.46948 0.08678 0.25815 0.0
C4053 C 0.48593 0.07366 0.19768 0.0
C4054 C 0.4791 0.07415 0.16064 0.0
C4055 C 0.47401 0.07861 0.18099 0.0
C4056 C 0.47683 0.0697 0.10162 0.0
C4057 C 0.49223 0.06971 0.17679 0.0
C4058 C 0.47742 0.07521 0.05233 0.0
C4059 C 0.475 0.07095 0.99692 0.0
C4060 C 0.47207 0.06114 0.98976 0.0
C4061 C 0.47122 0.05557 0.03928 0.0
C4062 C 0.47357 0.05982 0.09483 0.0
H4063 H 0.49904 0.07277 0.20242 0.0
H4064 H 0.48834 0.06177 0.18299 0.0
H4065 H 0.49405 0.07129 0.12957 0.0
H4066 H 0.47972 0.0828 0.05678 0.0
H4067 H 0.47527 0.07531 0.95987 0.0
H4068 H 0.92785 0.393 0.4549 0.0
H4069 H 0.92788 0.39246 0.34851 0.0
H4070 H 0.90834 0.40365 0.34196 0.0
H4071 H 0.90859 0.40462 0.44941 0.0
H4072 H 0.91538 0.38458 0.25995 0.0
H4073 H 0.9317 0.42454 0.25855 0.0
H4074 H 0.92982 0.41783 0.32542 0.0
H4075 H 0.91983 0.41789 0.28968 0.0
C4076 C 0.92344 0.39524 0.43109 0.0
C4077 C 0.91843 0.39912 0.46051 0.0
C4078 C 0.92343 0.39487 0.37012 0.0
C4079 C 0.91834 0.39828 0.33734 0.0
C4080 C 0.91255 0.40126 0.36656 0.0
H4081 H 0.92483 0.39711 0.95524 0.0
H4082 H 0.91754 0.39413 0.0523 0.0
C4083 C 0.91264 0.40174 0.42789 0.0
C4084 C 0.92005 0.3996 0.27337 0.0
H4085 H 0.93093 0.41708 0.16903 0.0
C4086 C 0.91866 0.39166 0.2397 0.0
C4087 C 0.92448 0.40888 0.24753 0.0
C4088 C 0.92663 0.4178 0.28208 0.0
C4089 C 0.92197 0.3928 0.18167 0.0
C4090 C 0.9265 0.40211 0.15616 0.0
C4091 C 0.92748 0.40997 0.18892 0.0
C4092 C 0.93081 0.40401 0.09684 0.0
C4093 C 0.92107 0.38414 0.14956 0.0
C4094 C 0.94065 0.41075 0.08938 0.0
C4095 C 0.94477 0.41274 0.03349 0.0
C4096 C 0.9391 0.40807 0.98417 0.0
C4097 C 0.9293 0.40116 0.99194 0.0
C4098 C 0.92516 0.39927 0.04767 0.0
H4099 H 0.91982 0.37822 0.18022 0.0
H4100 H 0.91484 0.38133 0.11908 0.0
H4101 H 0.92766 0.38609 0.12348 0.0
H4102 H 0.94514 0.41446 0.12689 0.0
H4103 H 0.95235 0.41802 0.02877 0.0
H4104 H 0.5815 0.53509 0.03624 0.0
H4105 H 0.58511 0.53165 0.13492 0.0
H4106 H 0.60385 0.52227 0.06051 0.0
H4107 H 0.60078 0.52631 0.9627 0.0
H4108 H 0.58171 0.51475 0.18099 0.0
H4109 H 0.62106 0.54084 0.18333 0.0
H4110 H 0.61316 0.54098 0.12738 0.0
H4111 H 0.61727 0.53239 0.12383 0.0
C4112 C 0.58641 0.53233 0.04116 0.0
C4113 C 0.59061 0.53067 0.99183 0.0
C4114 C 0.58845 0.53034 0.09734 0.0
C4115 C 0.59478 0.52674 0.10499 0.0
C4116 C 0.59904 0.52515 0.05572 0.0
H4117 H 0.59477 0.50399 0.4562 0.0
H4118 H 0.59516 0.50475 0.34872 0.0
C4119 C 0.5971 0.52726 -0.0003 0.0
C4120 C 0.59677 0.52452 0.16461 0.0
H4121 H 0.61472 0.53037 0.26478 0.0
C4122 C 0.58893 0.51812 0.19932 0.0
C4123 C 0.60621 0.52895 0.1882 0.0
C4124 C 0.6149 0.53624 0.154 0.0
C4125 C 0.59019 0.51629 0.25779 0.0
C4126 C 0.59963 0.52073 0.2815 0.0
C4127 C 0.60752 0.52687 0.24613 0.0
C4128 C 0.60127 0.52024 0.34496 0.0
C4129 C 0.58136 0.51005 0.29441 0.0
C4130 C 0.60528 0.52876 0.37802 0.0
C4131 C 0.60523 0.52837 0.43903 0.0
C4132 C 0.60109 0.51944 0.46815 0.0
C4133 C 0.59789 0.51097 0.43498 0.0
C4134 C 0.59803 0.51138 0.37364 0.0
H4135 H 0.57461 0.5088 0.27264 0.0
H4136 H 0.58078 0.50292 0.30162 0.0
H4137 H 0.58186 0.5134 0.33791 0.0
H4138 H 0.60791 0.53569 0.35676 0.0
H4139 H 0.6079 0.53505 0.46326 0.0
H4140 H 0.72963 0.81718 0.34591 0.0
H4141 H 0.736 0.82053 0.24563 0.0
H4142 H 0.7269 0.79042 0.22221 0.0
H4143 H 0.72043 0.78703 0.32214 0.0
H4144 H 0.75008 0.81764 0.19363 0.0
H4145 H 0.71467 0.79606 0.08316 0.0
H4146 H 0.71571 0.79919 0.1599 0.0
H4147 H 0.71722 0.78931 0.13593 0.0
C4148 C 0.72903 0.8113 0.31936 0.0
C4149 C 0.72459 0.80186 0.34159 0.0
C4150 C 0.73266 0.81321 0.2622 0.0
C4151 C 0.73185 0.8057 0.22648 0.0
C4152 C 0.72744 0.79628 0.24876 0.0
H4153 H 0.74478 0.80153 0.86522 0.0
H4154 H 0.74336 0.79937 0.97148 0.0
C4155 C 0.72375 0.79435 0.3057 0.0
C4156 C 0.73554 0.80772 0.1657 0.0
H4157 H 0.72856 0.80193 0.02323 0.0
C4158 C 0.74539 0.81423 0.15626 0.0
C4159 C 0.72937 0.80328 0.11721 0.0
C4160 C 0.71864 0.79664 0.12435 0.0
C4161 C 0.74926 0.81631 0.09934 0.0
C4162 C 0.7431 0.81178 0.05111 0.0
C4163 C 0.73327 0.80528 0.0606 0.0
C4164 C 0.74645 0.8139 0.98976 0.0
C4165 C 0.75989 0.82324 0.09107 0.0
C4166 C 0.74908 0.82293 0.96532 0.0
C4167 C 0.74989 0.82419 0.90449 0.0
C4168 C 0.74797 0.8164 0.8675 0.0
C4169 C 0.74619 0.80764 0.89257 0.0
C4170 C 0.7454 0.80639 0.95325 0.0
H4171 H 0.76399 0.82443 0.13254 0.0
H4172 H 0.76293 0.82054 0.05706 0.0
H4173 H 0.76094 0.83029 0.076 0.0
H4174 H 0.7498 0.82877 0.99283 0.0
H4175 H 0.75129 0.83104 0.88649 0.0
H4176 H 0.20124 0.91431 0.29086 0.0
H4177 H 0.19781 0.91794 0.19233 0.0
H4178 H 0.18985 0.93781 0.2662 0.0
H4179 H 0.19396 0.93477 0.36369 0.0
H4180 H 0.18111 0.9151 0.14789 0.0
H4181 H 0.20822 0.95416 0.14066 0.0
H4182 H 0.20818 0.94629 0.1974 0.0
H4183 H 0.19994 0.95084 0.20085 0.0
C4184 C 0.19882 0.91949 0.2859 0.0
C4185 C 0.19757 0.92402 0.33513 0.0
C4186 C 0.19683 0.92154 0.22976 0.0
C4187 C 0.19361 0.92817 0.22197 0.0
C4188 C 0.19243 0.93275 0.27107 0.0
H4189 H 0.17075 0.92783 0.87037 0.0
H4190 H 0.17154 0.92853 0.97783 0.0
C4191 C 0.19456 0.93082 0.32704 0.0
C4192 C 0.19132 0.93012 0.16242 0.0
H4193 H 0.19749 0.94786 0.06036 0.0
C4194 C 0.18466 0.92227 0.12873 0.0
C4195 C 0.19596 0.93949 0.13779 0.0
C4196 C 0.20354 0.94817 0.1708 0.0
C4197 C 0.18278 0.92344 0.07019 0.0
C4198 C 0.18745 0.93281 0.04538 0.0
C4199 C 0.19383 0.94072 0.07984 0.0
C4200 C 0.18698 0.9343 0.9817 0.0
C4201 C 0.17626 0.91456 0.03466 0.0
C4202 C 0.19548 0.93803 0.9486 0.0
C4203 C 0.19508 0.93782 0.88761 0.0
C4204 C 0.18615 0.93378 0.85852 0.0
C4205 C 0.17772 0.93085 0.89159 0.0
C4206 C 0.17814 0.93117 0.95293 0.0
H4207 H 0.17482 0.90782 0.05724 0.0
H4208 H 0.16924 0.91422 0.02753 0.0
H4209 H 0.17948 0.9148 0.99111 0.0
H4210 H 0.20239 0.94056 0.96989 0.0
H4211 H 0.20173 0.94029 0.86345 0.0
H4212 H 0.08899 0.27284 0.34378 0.0
H4213 H 0.08607 0.26664 0.24313 0.0
H4214 H 0.06426 0.27474 0.22236 0.0
H4215 H 0.06727 0.28109 0.32264 0.0
H4216 H 0.06946 0.25222 0.19285 0.0
H4217 H 0.08128 0.28719 0.08104 0.0
H4218 H 0.08365 0.28642 0.15764 0.0
H4219 H 0.07198 0.28421 0.13447 0.0
C4220 C 0.08357 0.27328 0.31765 0.0
C4221 C 0.07832 0.27739 0.34077 0.0
C4222 C 0.08192 0.26975 0.26029 0.0
C4223 C 0.07501 0.2703 0.22521 0.0
C4224 C 0.06976 0.27442 0.24832 0.0
H4225 H 0.05798 0.25601 0.86301 0.0
H4226 H 0.0571 0.25773 0.96891 0.0
C4227 C 0.07148 0.27803 0.30548 0.0
C4228 C 0.07328 0.26655 0.1645 0.0
H4229 H 0.07384 0.27319 0.02177 0.0
C4230 C 0.07042 0.25679 0.15537 0.0
C4231 C 0.07456 0.27255 0.1158 0.0
C4232 C 0.07813 0.28319 0.12252 0.0
C4233 C 0.06874 0.25287 0.09861 0.0
C4234 C 0.07 0.25887 0.05014 0.0
C4235 C 0.07278 0.26859 0.05931 0.0
C4236 C 0.06905 0.2555 0.98892 0.0
C4237 C 0.0656 0.24235 0.09081 0.0
C4238 C 0.07582 0.25329 0.96557 0.0
C4239 C 0.07637 0.25232 0.90498 0.0
C4240 C 0.07021 0.25365 0.86698 0.0
C4241 C 0.0629 0.25504 0.89105 0.0
C4242 C 0.06237 0.25602 0.95154 0.0
H4243 H 0.06274 0.23823 0.13226 0.0
H4244 H 0.05998 0.23903 0.05625 0.0
H4245 H 0.07188 0.24169 0.07684 0.0
H4246 H 0.08112 0.25299 0.99372 0.0
H4247 H 0.08206 0.25122 0.88785 0.0
H4248 H 0.18323 0.27128 0.3501 0.0
H4249 H 0.17864 0.26421 0.25187 0.0
H4250 H 0.20837 0.27319 0.21443 0.0
H4251 H 0.21297 0.28006 0.31317 0.0
H4252 H 0.18539 0.27355 0.14332 0.0
H4253 H 0.19384 0.24417 0.17292 0.0
H4254 H 0.19246 0.2506 0.2339 0.0
H4255 H 0.20352 0.25592 0.19272 0.0
C4256 C 0.18876 0.27163 0.32116 0.0
C4257 C 0.19842 0.27602 0.3395 0.0
C4258 C 0.18614 0.26764 0.2651 0.0
C4259 C 0.19313 0.26797 0.22666 0.0
C4260 C 0.20284 0.27264 0.24414 0.0
H4261 H 0.19996 0.25856 0.8705 0.0
H4262 H 0.20063 0.25987 0.97722 0.0
C4263 C 0.20547 0.27666 0.30016 0.0
C4264 C 0.19037 0.26378 0.16727 0.0
H4265 H 0.19121 0.24748 0.07445 0.0
C4266 C 0.18651 0.26776 0.12837 0.0
C4267 C 0.19184 0.25621 0.14829 0.0
C4268 C 0.19556 0.2514 0.18926 0.0
C4269 C 0.18454 0.26468 0.06987 0.0
C4270 C 0.18627 0.25729 0.05034 0.0
C4271 C 0.18985 0.25311 0.08977 0.0
C4272 C 0.18536 0.25459 0.98774 0.0
C4273 C 0.18107 0.26971 0.02874 0.0
C4274 C 0.17645 0.25068 0.95878 0.0
C4275 C 0.17604 0.24995 0.8976 0.0
C4276 C 0.18454 0.25312 0.86477 0.0
C4277 C 0.1933 0.25618 0.89449 0.0
C4278 C 0.1937 0.25692 0.9555 0.0
H4279 H 0.18182 0.27642 0.04819 0.0
H4280 H 0.18516 0.27159 0.98685 0.0
H4281 H 0.17334 0.26481 0.0185 0.0
H4282 H 0.16991 0.24867 0.98323 0.0
H4283 H 0.16916 0.24747 0.87603 0.0
H4284 H 0.71398 0.91355 0.28649 0.0
H4285 H 0.72148 0.91684 0.18912 0.0
H4286 H 0.74879 0.93761 0.26498 0.0
H4287 H 0.74121 0.9347 0.36162 0.0
H4288 H 0.74524 0.94449 0.16811 0.0
H4289 H 0.73909 0.90794 0.12267 0.0
H4290 H 0.72803 0.90759 0.14104 0.0
H4291 H 0.73752 0.91161 0.19482 0.0
C4292 C 0.72159 0.91876 0.28223 0.0
C4293 C 0.72711 0.9236 0.33166 0.0
C4294 C 0.72589 0.92057 0.22685 0.0
C4295 C 0.73577 0.92724 0.22018 0.0
C4296 C 0.74121 0.93229 0.26936 0.0
H4297 H 0.75649 0.92767 0.86439 0.0
H4298 H 0.75733 0.92858 0.97174 0.0
C4299 C 0.7369 0.93054 0.32459 0.0
C4300 C 0.74027 0.92927 0.16135 0.0
H4301 H 0.74204 0.91818 0.03829 0.0
C4302 C 0.7447 0.93877 0.14002 0.0
C4303 C 0.73984 0.92188 0.12535 0.0
C4304 C 0.73596 0.91171 0.14742 0.0
C4305 C 0.74806 0.94092 0.0821 0.0
C4306 C 0.74673 0.93334 0.04434 0.0
C4307 C 0.74296 0.92398 0.06701 0.0
C4308 C 0.74794 0.93462 0.98 0.0
C4309 C 0.75282 0.95126 0.06169 0.0
C4310 C 0.74259 0.93795 0.94911 0.0
C4311 C 0.74214 0.93748 0.8881 0.0
C4312 C 0.74691 0.93353 0.85672 0.0
C4313 C 0.75273 0.93072 0.88737 0.0
C4314 C 0.7532 0.93123 0.94866 0.0
H4315 H 0.75669 0.9563 0.0984 0.0
H4316 H 0.758 0.95268 0.02545 0.0
H4317 H 0.74719 0.95285 0.04592 0.0
H4318 H 0.73827 0.94037 0.97223 0.0
H4319 H 0.73763 0.93975 0.86582 0.0
H4320 H 0.05701 0.80137 0.86456 0.0
H4321 H 0.05634 0.79894 0.97058 0.0
H4322 H 0.08032 0.82778 0.9932 0.0
H4323 H 0.08103 0.83032 0.88722 0.0
H4324 H 0.07303 0.80022 0.02203 0.0
H4325 H 0.06246 0.82442 0.13337 0.0
H4326 H 0.05959 0.82086 0.05742 0.0
H4327 H 0.07156 0.83004 0.07766 0.0
C4328 C 0.06196 0.80731 0.89217 0.0
C4329 C 0.06919 0.81598 0.86747 0.0
C4330 C 0.06155 0.8059 0.95273 0.0
C4331 C 0.06829 0.81317 0.98952 0.0
C4332 C 0.07498 0.82213 0.96553 0.0
H4333 H 0.08874 0.81561 0.34355 0.0
H4334 H 0.08592 0.819 0.24288 0.0
C4335 C 0.07539 0.82355 0.90488 0.0
C4336 C 0.06938 0.81083 0.05067 0.0
H4337 H 0.06924 0.81714 0.19343 0.0
C4338 C 0.0721 0.80384 0.05962 0.0
C4339 C 0.06831 0.81568 0.09924 0.0
C4340 C 0.06525 0.82312 0.09174 0.0
C4341 C 0.07395 0.80168 0.11597 0.0
C4342 C 0.07283 0.80649 0.16474 0.0
C4343 C 0.07008 0.81346 0.15585 0.0
C4344 C 0.07454 0.8044 0.22531 0.0
C4345 C 0.07738 0.79448 0.12248 0.0
C4346 C 0.06908 0.79507 0.24854 0.0
C4347 C 0.07073 0.79311 0.3057 0.0
C4348 C 0.07772 0.8005 0.34086 0.0
C4349 C 0.08321 0.80983 0.31753 0.0
C4350 C 0.08161 0.81177 0.26018 0.0
H4351 H 0.08042 0.79354 0.0808 0.0
H4352 H 0.08296 0.79675 0.15724 0.0
H4353 H 0.07118 0.78737 0.13489 0.0
H4354 H 0.06347 0.78933 0.22269 0.0
H4355 H 0.06635 0.78589 0.32297 0.0
H4356 H 0.92842 0.53224 0.96192 0.0
H4357 H 0.92189 0.52954 0.06144 0.0
H4358 H 0.94761 0.53041 0.12712 0.0
H4359 H 0.9542 0.53317 0.02732 0.0
H4360 H 0.91772 0.51474 0.13709 0.0
H4361 H 0.94525 0.54953 0.23254 0.0
H4362 H 0.944 0.54737 0.15443 0.0
H4363 H 0.95056 0.54321 0.19827 0.0
C4364 C 0.93262 0.53173 -0.00253 0.0
C4365 C 0.94172 0.53271 0.98706 0.0
C4366 C 0.92892 0.53027 0.05429 0.0
C4367 C 0.9343 0.52986 0.10157 0.0
C4368 C 0.94342 0.53089 0.09127 0.0
H4369 H 0.92024 0.50446 0.43643 0.0
H4370 H 0.92074 0.50729 0.33119 0.0
C4371 C 0.94716 0.53241 0.03442 0.0
C4372 C 0.9303 0.52814 0.16159 0.0
H4373 H 0.93561 0.53696 0.30083 0.0
C4374 C 0.92155 0.51965 0.17288 0.0
C4375 C 0.93517 0.53468 0.20778 0.0
C4376 C 0.94421 0.54426 0.19758 0.0
C4377 C 0.91782 0.51727 0.22997 0.0
C4378 C 0.9231 0.52345 0.27685 0.0
C4379 C 0.93158 0.53218 0.26494 0.0
C4380 C 0.92058 0.5207 0.33904 0.0
C4381 C 0.90832 0.50812 0.23947 0.0
C4382 C 0.92014 0.52719 0.37851 0.0
C4383 C 0.92004 0.52568 0.43886 0.0
C4384 C 0.92036 0.51763 0.4606 0.0
C4385 C 0.91998 0.51072 0.421 0.0
C4386 C 0.92019 0.5123 0.36067 0.0
H4387 H 0.90365 0.50628 0.2 0.0
H4388 H 0.90968 0.50207 0.24752 0.0
H4389 H 0.90438 0.50875 0.27774 0.0
H4390 H 0.92043 0.53372 0.36269 0.0
H4391 H 0.92025 0.53109 0.46843 0.0
H4392 H 0.48434 0.42107 0.97907 0.0
H4393 H 0.48768 0.41784 0.07877 0.0
H4394 H 0.45723 0.39879 0.10732 0.0
H4395 H 0.45386 0.40198 0.00756 0.0
H4396 H 0.46618 0.41173 0.19697 0.0
H4397 H 0.48676 0.39338 0.14017 0.0
H4398 H 0.49131 0.40504 0.10697 0.0
H4399 H 0.47954 0.39537 0.08721 0.0
C4400 C 0.47838 0.41609 0.00635 0.0
C4401 C 0.46886 0.41162 0.98538 0.0
C4402 C 0.4803 0.41424 0.06318 0.0
C4403 C 0.47272 0.40788 0.09973 0.0
C4404 C 0.46319 0.40363 0.07942 0.0
H4405 H 0.46782 0.39019 0.46166 0.0
H4406 H 0.46564 0.38996 0.35545 0.0
C4407 C 0.46127 0.4055 0.0227 0.0
C4408 C 0.47468 0.40601 0.16023 0.0
H4409 H 0.4867 0.39735 0.24096 0.0
C4410 C 0.47061 0.40852 0.20658 0.0
C4411 C 0.48048 0.40184 0.17243 0.0
C4412 C 0.48471 0.39867 0.1241 0.0
C4413 C 0.47231 0.40713 0.26502 0.0
C4414 C 0.47812 0.40299 0.27725 0.0
C4415 C 0.48221 0.40048 0.23108 0.0
C4416 C 0.48015 0.40153 0.33829 0.0
C4417 C 0.46802 0.41027 0.31337 0.0
C4418 C 0.48921 0.40771 0.3629 0.0
C4419 C 0.49051 0.40786 0.4236 0.0
C4420 C 0.48271 0.40185 0.46023 0.0
C4421 C 0.47392 0.39501 0.43465 0.0
C4422 C 0.47265 0.39485 0.37404 0.0
H4423 H 0.46526 0.41496 0.29673 0.0
H4424 H 0.46192 0.4038 0.3338 0.0
H4425 H 0.47346 0.41423 0.34808 0.0
H4426 H 0.49508 0.41288 0.33568 0.0
H4427 H 0.49738 0.41317 0.44195 0.0
H4428 H 0.60721 0.07161 0.45328 0.0
H4429 H 0.60772 0.07209 0.34685 0.0
H4430 H 0.59637 0.09152 0.34648 0.0
H4431 H 0.59553 0.09083 0.4538 0.0
H4432 H 0.58573 0.07628 0.28094 0.0
H4433 H 0.62367 0.09009 0.21944 0.0
H4434 H 0.62008 0.08059 0.27208 0.0
H4435 H 0.62022 0.09155 0.29251 0.0
C4436 C 0.60502 0.07618 0.4308 0.0
C4437 C 0.6012 0.08108 0.46196 0.0
C4438 C 0.60543 0.07653 0.36976 0.0
C4439 C 0.60218 0.08192 0.33862 0.0
C4440 C 0.59895 0.08734 0.36973 0.0
H4441 H 0.602 0.0752 0.95743 0.0
H4442 H 0.60506 0.08266 0.05416 0.0
C4443 C 0.59848 0.08695 0.43102 0.0
C4444 C 0.60081 0.08063 0.27436 0.0
H4445 H 0.61165 0.07878 0.15018 0.0
C4446 C 0.59146 0.07705 0.25202 0.0
C4447 C 0.60829 0.08176 0.23635 0.0
C4448 C 0.61864 0.08632 0.25635 0.0
C4449 C 0.58925 0.07394 0.19371 0.0
C4450 C 0.59652 0.07417 0.1574 0.0
C4451 C 0.60602 0.07839 0.17848 0.0
C4452 C 0.59436 0.06974 0.09835 0.0
C4453 C 0.5791 0.07031 0.17198 0.0
C4454 C 0.58744 0.05995 0.09119 0.0
C4455 C 0.5855 0.05572 0.03557 0.0
C4456 C 0.59049 0.06121 0.98631 0.0
C4457 C 0.59767 0.07091 0.99396 0.0
C4458 C 0.59954 0.07515 0.04941 0.0
H4459 H 0.57551 0.0736 0.19694 0.0
H4460 H 0.579 0.0719 0.12461 0.0
H4461 H 0.5748 0.06239 0.1784 0.0
H4462 H 0.5836 0.05555 0.12871 0.0
H4463 H 0.58008 0.04818 0.03104 0.0
loop_
_geom_bond_atom_site_label_1
_geom_bond_atom_site_label_2
_geom_bond_distance
_geom_bond_site_symmetry_2
_ccdc_geom_bond_type
Co0 O3 1.970 . S
Co0 N17 1.989 1_556 S
Co0 O25 1.967 . S
Co0 O32 1.920 . S
Co1 O4 1.966 . S
Co1 N10 2.022 . S
Co1 N18 1.993 . S
Co1 O26 1.941 . S
C2 O3 1.258 1_554 S
C2 O4 1.263 . S
O3 Co0 1.970 . S
O3 C2 1.258 1_556 S
O4 Co1 1.966 . S
O4 C2 1.263 . S
C5 O6 1.235 . S
C5 O32 1.289 . S
O6 C5 1.235 . S
C7 C9 1.400 . S
C7 N10 1.351 . S
C7 C12 1.501 . S
C8 C9 1.387 . S
C8 N11 1.341 . S
C9 C7 1.400 . S
C9 C8 1.387 . S
N10 Co1 2.022 . S
N10 C7 1.351 . S
N10 N11 1.365 . S
N11 C8 1.341 . S
N11 N10 1.365 . S
N11 H31 0.862 . S
C12 C7 1.501 . S
C12 H13 0.961 . S
C12 H14 0.961 . S
C12 H15 0.960 . S
H13 C12 0.961 . S
H14 C12 0.961 . S
H15 C12 0.960 . S
C16 N17 1.342 1_556 S
C16 C20 1.401 1_556 S
C16 C21 1.499 . S
N17 Co0 1.989 1_554 S
N17 C16 1.342 1_554 S
N17 N18 1.388 . S
N18 Co1 1.993 . S
N18 N17 1.388 . S
N18 C19 1.346 . S
C19 N18 1.346 . S
C19 C20 1.396 . S
C19 C29 1.510 . S
C20 C16 1.401 1_554 S
C20 C19 1.396 . S
C21 C16 1.499 . S
C21 H22 0.959 . S
C21 H23 0.960 . S
C21 H24 0.961 . S
H22 C21 0.959 . S
H23 C21 0.960 . S
H24 C21 0.961 . S
O25 Co0 1.967 . S
O25 C33 1.258 1_556 S
O26 Co1 1.941 . S
O26 C33 1.266 . S
H27 C29 0.959 . S
H28 C29 0.961 . S
C29 C19 1.510 . S
C29 H27 0.959 . S
C29 H28 0.961 . S
C29 H30 0.960 . S
H30 C29 0.960 . S
H31 N11 0.862 . S
O32 Co0 1.920 . S
O32 C5 1.289 . S
C33 O25 1.258 1_554 S
C33 O26 1.266 . S
Co34 O37 1.970 . S
Co34 N51 1.989 1_556 S
Co34 O59 1.967 . S
Co34 O66 1.920 . S
Co35 O38 1.966 . S
Co35 N44 2.022 . S
Co35 N52 1.993 . S
Co35 O60 1.941 . S
C36 O37 1.258 1_554 S
C36 O38 1.263 . S
O37 Co34 1.970 . S
O37 C36 1.258 1_556 S
O38 Co35 1.966 . S
O38 C36 1.263 . S
C39 O40 1.235 . S
C39 O66 1.289 . S
O40 C39 1.235 . S
C41 C43 1.400 . S
C41 N44 1.351 . S
C41 C46 1.501 . S
C42 C43 1.387 . S
C42 N45 1.341 . S
C43 C41 1.400 . S
C43 C42 1.387 . S
N44 Co35 2.022 . S
N44 C41 1.351 . S
N44 N45 1.365 . S
N45 C42 1.341 . S
N45 N44 1.365 . S
N45 H65 0.862 . S
C46 C41 1.501 . S
C46 H47 0.961 . S
C46 H48 0.961 . S
C46 H49 0.960 . S
H47 C46 0.961 . S
H48 C46 0.961 . S
H49 C46 0.960 . S
C50 N51 1.342 1_556 S
C50 C54 1.401 1_556 S
C50 C55 1.499 . S
N51 Co34 1.989 1_554 S
N51 C50 1.342 1_554 S
N51 N52 1.388 . S
N52 Co35 1.993 . S
N52 N51 1.388 . S
N52 C53 1.346 . S
C53 N52 1.346 . S
C53 C54 1.396 . S
C53 C63 1.510 . S
C54 C50 1.401 1_554 S
C54 C53 1.396 . S
C55 C50 1.499 . S
C55 H56 0.959 . S
C55 H57 0.960 . S
C55 H58 0.961 . S
H56 C55 0.959 . S
H57 C55 0.960 . S
H58 C55 0.961 . S
O59 Co34 1.967 . S
O59 C67 1.258 1_556 S
O60 Co35 1.941 . S
O60 C67 1.266 . S
H61 C63 0.959 . S
H62 C63 0.961 . S
C63 C53 1.510 . S
C63 H61 0.959 . S
C63 H62 0.961 . S
C63 H64 0.960 . S
H64 C63 0.960 . S
H65 N45 0.862 . S
O66 Co34 1.920 . S
O66 C39 1.289 . S
C67 O59 1.258 1_554 S
C67 O60 1.266 . S
Co68 O71 1.970 . S
Co68 N85 1.989 1_556 S
Co68 O93 1.967 . S
Co68 O100 1.920 . S
Co69 O72 1.966 . S
Co69 N78 2.022 . S
Co69 N86 1.993 . S
Co69 O94 1.941 . S
C70 O71 1.258 1_554 S
C70 O72 1.263 . S
O71 Co68 1.970 . S
O71 C70 1.258 1_556 S
O72 Co69 1.966 . S
O72 C70 1.263 . S
C73 O74 1.235 . S
C73 O100 1.289 . S
O74 C73 1.235 . S
C75 C77 1.400 . S
C75 N78 1.351 . S
C75 C80 1.501 . S
C76 C77 1.387 . S
C76 N79 1.341 . S
C77 C75 1.400 . S
C77 C76 1.387 . S
N78 Co69 2.022 . S
N78 C75 1.351 . S
N78 N79 1.365 . S
N79 C76 1.341 . S
N79 N78 1.365 . S
N79 H99 0.862 . S
C80 C75 1.501 . S
C80 H81 0.961 . S
C80 H82 0.961 . S
C80 H83 0.960 . S
H81 C80 0.961 . S
H82 C80 0.961 . S
H83 C80 0.960 . S
C84 N85 1.342 1_556 S
C84 C88 1.401 1_556 S
C84 C89 1.499 . S
N85 Co68 1.989 1_554 S
N85 C84 1.342 1_554 S
N85 N86 1.388 . S
N86 Co69 1.993 . S
N86 N85 1.388 . S
N86 C87 1.346 . S
C87 N86 1.346 . S
C87 C88 1.396 . S
C87 C97 1.510 . S
C88 C84 1.401 1_554 S
C88 C87 1.396 . S
C89 C84 1.499 . S
C89 H90 0.959 . S
C89 H91 0.960 . S
C89 H92 0.961 . S
H90 C89 0.959 . S
H91 C89 0.960 . S
H92 C89 0.961 . S
O93 Co68 1.967 . S
O93 C101 1.258 1_556 S
O94 Co69 1.941 . S
O94 C101 1.266 . S
H95 C97 0.959 . S
H96 C97 0.961 . S
C97 C87 1.510 . S
C97 H95 0.959 . S
C97 H96 0.961 . S
C97 H98 0.960 . S
H98 C97 0.960 . S
H99 N79 0.862 . S
O100 Co68 1.920 . S
O100 C73 1.289 . S
C101 O93 1.258 1_554 S
C101 O94 1.266 . S
Co102 O105 1.970 . S
Co102 N119 1.989 1_554 S
Co102 O127 1.967 . S
Co102 O134 1.920 . S
Co103 O106 1.966 . S
Co103 N112 2.022 . S
Co103 N120 1.993 . S
Co103 O128 1.941 . S
C104 O105 1.258 1_556 S
C104 O106 1.263 . S
O105 Co102 1.970 . S
O105 C104 1.258 1_554 S
O106 Co103 1.966 . S
O106 C104 1.263 . S
C107 O108 1.235 . S
C107 O134 1.289 . S
O108 C107 1.235 . S
C109 C111 1.400 . S
C109 N112 1.351 . S
C109 C114 1.501 . S
C110 C111 1.387 . S
C110 N113 1.341 . S
C111 C109 1.400 . S
C111 C110 1.387 . S
N112 Co103 2.022 . S
N112 C109 1.351 . S
N112 N113 1.365 . S
N113 C110 1.341 . S
N113 N112 1.365 . S
N113 H133 0.862 . S
C114 C109 1.501 . S
C114 H115 0.961 . S
C114 H116 0.961 . S
C114 H117 0.960 . S
H115 C114 0.961 . S
H116 C114 0.961 . S
H117 C114 0.960 . S
C118 N119 1.342 1_554 S
C118 C122 1.401 1_554 S
C118 C123 1.499 . S
N119 Co102 1.989 1_556 S
N119 C118 1.342 1_556 S
N119 N120 1.388 . S
N120 Co103 1.993 . S
N120 N119 1.388 . S
N120 C121 1.346 . S
C121 N120 1.346 . S
C121 C122 1.396 . S
C121 C131 1.510 . S
C122 C118 1.401 1_556 S
C122 C121 1.396 . S
C123 C118 1.499 . S
C123 H124 0.959 . S
C123 H125 0.960 . S
C123 H126 0.961 . S
H124 C123 0.959 . S
H125 C123 0.960 . S
H126 C123 0.961 . S
O127 Co102 1.967 . S
O127 C135 1.258 1_554 S
O128 Co103 1.941 . S
O128 C135 1.266 . S
H129 C131 0.959 . S
H130 C131 0.961 . S
C131 C121 1.510 . S
C131 H129 0.959 . S
C131 H130 0.961 . S
C131 H132 0.960 . S
H132 C131 0.960 . S
H133 N113 0.862 . S
O134 Co102 1.920 . S
O134 C107 1.289 . S
C135 O127 1.258 1_556 S
C135 O128 1.266 . S
Co136 O139 1.970 . S
Co136 N153 1.989 1_554 S
Co136 O161 1.967 . S
Co136 O168 1.920 . S
Co137 O140 1.966 . S
Co137 N146 2.022 . S
Co137 N154 1.993 . S
Co137 O162 1.941 . S
C138 O139 1.258 1_556 S
C138 O140 1.263 . S
O139 Co136 1.970 . S
O139 C138 1.258 1_554 S
O140 Co137 1.966 . S
O140 C138 1.263 . S
C141 O142 1.235 . S
C141 O168 1.289 . S
O142 C141 1.235 . S
C143 C145 1.400 . S
C143 N146 1.351 . S
C143 C148 1.501 . S
C144 C145 1.387 . S
C144 N147 1.341 . S
C145 C143 1.400 . S
C145 C144 1.387 . S
N146 Co137 2.022 . S
N146 C143 1.351 . S
N146 N147 1.365 . S
N147 C144 1.341 . S
N147 N146 1.365 . S
N147 H167 0.862 . S
C148 C143 1.501 . S
C148 H149 0.961 . S
C148 H150 0.961 . S
C148 H151 0.960 . S
H149 C148 0.961 . S
H150 C148 0.961 . S
H151 C148 0.960 . S
C152 N153 1.342 1_554 S
C152 C156 1.401 1_554 S
C152 C157 1.499 . S
N153 Co136 1.989 1_556 S
N153 C152 1.342 1_556 S
N153 N154 1.388 . S
N154 Co137 1.993 . S
N154 N153 1.388 . S
N154 C155 1.346 . S
C155 N154 1.346 . S
C155 C156 1.396 . S
C155 C165 1.510 . S
C156 C152 1.401 1_556 S
C156 C155 1.396 . S
C157 C152 1.499 . S
C157 H158 0.959 . S
C157 H159 0.960 . S
C157 H160 0.961 . S
H158 C157 0.959 . S
H159 C157 0.960 . S
H160 C157 0.961 . S
O161 Co136 1.967 . S
O161 C169 1.258 1_554 S
O162 Co137 1.941 . S
O162 C169 1.266 . S
H163 C165 0.959 . S
H164 C165 0.961 . S
C165 C155 1.510 . S
C165 H163 0.959 . S
C165 H164 0.961 . S
C165 H166 0.960 . S
H166 C165 0.960 . S
H167 N147 0.862 . S
O168 Co136 1.920 . S
O168 C141 1.289 . S
C169 O161 1.258 1_556 S
C169 O162 1.266 . S
Co170 O173 1.970 . S
Co170 N187 1.989 1_554 S
Co170 O195 1.967 . S
Co170 O202 1.920 . S
Co171 O174 1.966 . S
Co171 N180 2.022 . S
Co171 N188 1.993 . S
Co171 O196 1.941 . S
C172 O173 1.258 1_556 S
C172 O174 1.263 . S
O173 Co170 1.970 . S
O173 C172 1.258 1_554 S
O174 Co171 1.966 . S
O174 C172 1.263 . S
C175 O176 1.235 . S
C175 O202 1.289 . S
O176 C175 1.235 . S
C177 C179 1.400 . S
C177 N180 1.351 . S
C177 C182 1.501 . S
C178 C179 1.387 . S
C178 N181 1.341 . S
C179 C177 1.400 . S
C179 C178 1.387 . S
N180 Co171 2.022 . S
N180 C177 1.351 . S
N180 N181 1.365 . S
N181 C178 1.341 . S
N181 N180 1.365 . S
N181 H201 0.862 . S
C182 C177 1.501 . S
C182 H183 0.961 . S
C182 H184 0.961 . S
C182 H185 0.960 . S
H183 C182 0.961 . S
H184 C182 0.961 . S
H185 C182 0.960 . S
C186 N187 1.342 1_554 S
C186 C190 1.401 1_554 S
C186 C191 1.499 . S
N187 Co170 1.989 1_556 S
N187 C186 1.342 1_556 S
N187 N188 1.388 . S
N188 Co171 1.993 . S
N188 N187 1.388 . S
N188 C189 1.346 . S
C189 N188 1.346 . S
C189 C190 1.396 . S
C189 C199 1.510 . S
C190 C186 1.401 1_556 S
C190 C189 1.396 . S
C191 C186 1.499 . S
C191 H192 0.959 . S
C191 H193 0.960 . S
C191 H194 0.961 . S
H192 C191 0.959 . S
H193 C191 0.960 . S
H194 C191 0.961 . S
O195 Co170 1.967 . S
O195 C203 1.258 1_554 S
O196 Co171 1.941 . S
O196 C203 1.266 . S
H197 C199 0.959 . S
H198 C199 0.961 . S
C199 C189 1.510 . S
C199 H197 0.959 . S
C199 H198 0.961 . S
C199 H200 0.960 . S
H200 C199 0.960 . S
H201 N181 0.862 . S
O202 Co170 1.920 . S
O202 C175 1.289 . S
C203 O195 1.258 1_556 S
C203 O196 1.266 . S
Co204 O207 1.970 . S
Co204 N221 1.989 1_554 S
Co204 O229 1.967 . S
Co204 O236 1.920 . S
Co205 O208 1.966 . S
Co205 N214 2.022 . S
Co205 N222 1.993 . S
Co205 O230 1.941 . S
C206 O207 1.258 1_556 S
C206 O208 1.263 . S
O207 Co204 1.970 . S
O207 C206 1.258 1_554 S
O208 Co205 1.966 . S
O208 C206 1.263 . S
C209 O210 1.235 . S
C209 O236 1.289 . S
O210 C209 1.235 . S
C211 C213 1.400 . S
C211 N214 1.351 . S
C211 C216 1.501 . S
C212 C213 1.387 . S
C212 N215 1.341 . S
C213 C211 1.400 . S
C213 C212 1.387 . S
N214 Co205 2.022 . S
N214 C211 1.351 . S
N214 N215 1.365 . S
N215 C212 1.341 . S
N215 N214 1.365 . S
N215 H235 0.862 . S
C216 C211 1.501 . S
C216 H217 0.961 . S
C216 H218 0.961 . S
C216 H219 0.960 . S
H217 C216 0.961 . S
H218 C216 0.961 . S
H219 C216 0.960 . S
C220 N221 1.342 1_554 S
C220 C224 1.401 1_554 S
C220 C225 1.499 . S
N221 Co204 1.989 1_556 S
N221 C220 1.342 1_556 S
N221 N222 1.388 . S
N222 Co205 1.993 . S
N222 N221 1.388 . S
N222 C223 1.346 . S
C223 N222 1.346 . S
C223 C224 1.396 . S
C223 C233 1.510 . S
C224 C220 1.401 1_556 S
C224 C223 1.396 . S
C225 C220 1.499 . S
C225 H226 0.959 . S
C225 H227 0.960 . S
C225 H228 0.961 . S
H226 C225 0.959 . S
H227 C225 0.960 . S
H228 C225 0.961 . S
O229 Co204 1.967 . S
O229 C237 1.258 1_554 S
O230 Co205 1.941 . S
O230 C237 1.266 . S
H231 C233 0.959 . S
H232 C233 0.961 . S
C233 C223 1.510 . S
C233 H231 0.959 . S
C233 H232 0.961 . S
C233 H234 0.960 . S
H234 C233 0.960 . S
H235 N215 0.862 . S
O236 Co204 1.920 . S
O236 C209 1.289 . S
C237 O229 1.258 1_556 S
C237 O230 1.266 . S
Co238 O241 1.970 . S
Co238 N255 1.989 1_554 S
Co238 O263 1.967 . S
Co238 O270 1.920 . S
Co239 O242 1.966 . S
Co239 N248 2.022 . S
Co239 N256 1.993 . S
Co239 O264 1.941 . S
C240 O241 1.258 1_556 S
C240 O242 1.263 . S
O241 Co238 1.970 . S
O241 C240 1.258 1_554 S
O242 Co239 1.966 . S
O242 C240 1.263 . S
C243 O244 1.235 . S
C243 O270 1.289 . S
O244 C243 1.235 . S
C245 C247 1.400 . S
C245 N248 1.351 . S
C245 C250 1.501 . S
C246 C247 1.387 . S
C246 N249 1.341 . S
C247 C245 1.400 . S
C247 C246 1.387 . S
N248 Co239 2.022 . S
N248 C245 1.351 . S
N248 N249 1.365 . S
N249 C246 1.341 . S
N249 N248 1.365 . S
N249 H269 0.862 . S
C250 C245 1.501 . S
C250 H251 0.961 . S
C250 H252 0.961 . S
C250 H253 0.960 . S
H251 C250 0.961 . S
H252 C250 0.961 . S
H253 C250 0.960 . S
C254 N255 1.342 1_554 S
C254 C258 1.401 1_554 S
C254 C259 1.499 . S
N255 Co238 1.989 1_556 S
N255 C254 1.342 1_556 S
N255 N256 1.388 . S
N256 Co239 1.993 . S
N256 N255 1.388 . S
N256 C257 1.346 . S
C257 N256 1.346 . S
C257 C258 1.396 . S
C257 C267 1.510 . S
C258 C254 1.401 1_556 S
C258 C257 1.396 . S
C259 C254 1.499 . S
C259 H260 0.959 . S
C259 H261 0.960 . S
C259 H262 0.961 . S
H260 C259 0.959 . S
H261 C259 0.960 . S
H262 C259 0.961 . S
O263 Co238 1.967 . S
O263 C271 1.258 1_554 S
O264 Co239 1.941 . S
O264 C271 1.266 . S
H265 C267 0.959 . S
H266 C267 0.961 . S
C267 C257 1.510 . S
C267 H265 0.959 . S
C267 H266 0.961 . S
C267 H268 0.960 . S
H268 C267 0.960 . S
H269 N249 0.862 . S
O270 Co238 1.920 . S
O270 C243 1.289 . S
C271 O263 1.258 1_556 S
C271 O264 1.266 . S
Co272 O275 1.970 . S
Co272 N289 1.989 1_554 S
Co272 O297 1.967 . S
Co272 O304 1.920 . S
Co273 O276 1.966 . S
Co273 N282 2.022 . S
Co273 N290 1.993 . S
Co273 O298 1.941 . S
C274 O275 1.258 1_556 S
C274 O276 1.263 . S
O275 Co272 1.970 . S
O275 C274 1.258 1_554 S
O276 Co273 1.966 . S
O276 C274 1.263 . S
C277 O278 1.235 . S
C277 O304 1.289 . S
O278 C277 1.235 . S
C279 C281 1.400 . S
C279 N282 1.351 . S
C279 C284 1.501 . S
C280 C281 1.387 . S
C280 N283 1.341 . S
C281 C279 1.400 . S
C281 C280 1.387 . S
N282 Co273 2.022 . S
N282 C279 1.351 . S
N282 N283 1.365 . S
N283 C280 1.341 . S
N283 N282 1.365 . S
N283 H303 0.862 . S
C284 C279 1.501 . S
C284 H285 0.961 . S
C284 H286 0.961 . S
C284 H287 0.960 . S
H285 C284 0.961 . S
H286 C284 0.961 . S
H287 C284 0.960 . S
C288 N289 1.342 1_554 S
C288 C292 1.401 1_554 S
C288 C293 1.499 . S
N289 Co272 1.989 1_556 S
N289 C288 1.342 1_556 S
N289 N290 1.388 . S
N290 Co273 1.993 . S
N290 N289 1.388 . S
N290 C291 1.346 . S
C291 N290 1.346 . S
C291 C292 1.396 . S
C291 C301 1.510 . S
C292 C288 1.401 1_556 S
C292 C291 1.396 . S
C293 C288 1.499 . S
C293 H294 0.959 . S
C293 H295 0.960 . S
C293 H296 0.961 . S
H294 C293 0.959 . S
H295 C293 0.960 . S
H296 C293 0.961 . S
O297 Co272 1.967 . S
O297 C305 1.258 1_554 S
O298 Co273 1.941 . S
O298 C305 1.266 . S
H299 C301 0.959 . S
H300 C301 0.961 . S
C301 C291 1.510 . S
C301 H299 0.959 . S
C301 H300 0.961 . S
C301 H302 0.960 . S
H302 C301 0.960 . S
H303 N283 0.862 . S
O304 Co272 1.920 . S
O304 C277 1.289 . S
C305 O297 1.258 1_556 S
C305 O298 1.266 . S
Co306 O309 1.970 . S
Co306 N323 1.989 1_556 S
Co306 O331 1.967 . S
Co306 O338 1.920 . S
Co307 O310 1.966 . S
Co307 N316 2.022 . S
Co307 N324 1.993 . S
Co307 O332 1.941 . S
C308 O309 1.258 1_554 S
C308 O310 1.263 . S
O309 Co306 1.970 . S
O309 C308 1.258 1_556 S
O310 Co307 1.966 . S
O310 C308 1.263 . S
C311 O312 1.235 . S
C311 O338 1.289 . S
O312 C311 1.235 . S
C313 C315 1.400 . S
C313 N316 1.351 . S
C313 C318 1.501 . S
C314 C315 1.387 . S
C314 N317 1.341 . S
C315 C313 1.400 . S
C315 C314 1.387 . S
N316 Co307 2.022 . S
N316 C313 1.351 . S
N316 N317 1.365 . S
N317 C314 1.341 . S
N317 N316 1.365 . S
N317 H337 0.862 . S
C318 C313 1.501 . S
C318 H319 0.961 . S
C318 H320 0.961 . S
C318 H321 0.960 . S
H319 C318 0.961 . S
H320 C318 0.961 . S
H321 C318 0.960 . S
C322 N323 1.342 1_556 S
C322 C326 1.401 1_556 S
C322 C327 1.499 . S
N323 Co306 1.989 1_554 S
N323 C322 1.342 1_554 S
N323 N324 1.388 . S
N324 Co307 1.993 . S
N324 N323 1.388 . S
N324 C325 1.346 . S
C325 N324 1.346 . S
C325 C326 1.396 . S
C325 C335 1.510 . S
C326 C322 1.401 1_554 S
C326 C325 1.396 . S
C327 C322 1.499 . S
C327 H328 0.959 . S
C327 H329 0.960 . S
C327 H330 0.961 . S
H328 C327 0.959 . S
H329 C327 0.960 . S
H330 C327 0.961 . S
O331 Co306 1.967 . S
O331 C339 1.258 1_556 S
O332 Co307 1.941 . S
O332 C339 1.266 . S
H333 C335 0.959 . S
H334 C335 0.961 . S
C335 C325 1.510 . S
C335 H333 0.959 . S
C335 H334 0.961 . S
C335 H336 0.960 . S
H336 C335 0.960 . S
H337 N317 0.862 . S
O338 Co306 1.920 . S
O338 C311 1.289 . S
C339 O331 1.258 1_554 S
C339 O332 1.266 . S
Co340 O343 1.970 . S
Co340 N357 1.989 1_556 S
Co340 O365 1.967 . S
Co340 O372 1.920 . S
Co341 O344 1.966 . S
Co341 N350 2.022 . S
Co341 N358 1.993 . S
Co341 O366 1.941 . S
C342 O343 1.258 1_554 S
C342 O344 1.263 . S
O343 Co340 1.970 . S
O343 C342 1.258 1_556 S
O344 Co341 1.966 . S
O344 C342 1.263 . S
C345 O346 1.235 . S
C345 O372 1.289 . S
O346 C345 1.235 . S
C347 C349 1.400 . S
C347 N350 1.351 . S
C347 C352 1.501 . S
C348 C349 1.387 . S
C348 N351 1.341 . S
C349 C347 1.400 . S
C349 C348 1.387 . S
N350 Co341 2.022 . S
N350 C347 1.351 . S
N350 N351 1.365 . S
N351 C348 1.341 . S
N351 N350 1.365 . S
N351 H371 0.862 . S
C352 C347 1.501 . S
C352 H353 0.961 . S
C352 H354 0.961 . S
C352 H355 0.960 . S
H353 C352 0.961 . S
H354 C352 0.961 . S
H355 C352 0.960 . S
C356 N357 1.342 1_556 S
C356 C360 1.401 1_556 S
C356 C361 1.499 . S
N357 Co340 1.989 1_554 S
N357 C356 1.342 1_554 S
N357 N358 1.388 . S
N358 Co341 1.993 . S
N358 N357 1.388 . S
N358 C359 1.346 . S
C359 N358 1.346 . S
C359 C360 1.396 . S
C359 C369 1.510 . S
C360 C356 1.401 1_554 S
C360 C359 1.396 . S
C361 C356 1.499 . S
C361 H362 0.959 . S
C361 H363 0.960 . S
C361 H364 0.961 . S
H362 C361 0.959 . S
H363 C361 0.960 . S
H364 C361 0.961 . S
O365 Co340 1.967 . S
O365 C373 1.258 1_556 S
O366 Co341 1.941 . S
O366 C373 1.266 . S
H367 C369 0.959 . S
H368 C369 0.961 . S
C369 C359 1.510 . S
C369 H367 0.959 . S
C369 H368 0.961 . S
C369 H370 0.960 . S
H370 C369 0.960 . S
H371 N351 0.862 . S
O372 Co340 1.920 . S
O372 C345 1.289 . S
C373 O365 1.258 1_554 S
C373 O366 1.266 . S
Co374 O377 1.970 . S
Co374 N391 1.989 1_556 S
Co374 O399 1.967 . S
Co374 O406 1.920 . S
Co375 O378 1.966 . S
Co375 N384 2.022 . S
Co375 N392 1.993 . S
Co375 O400 1.941 . S
C376 O377 1.258 1_554 S
C376 O378 1.263 . S
O377 Co374 1.970 . S
O377 C376 1.258 1_556 S
O378 Co375 1.966 . S
O378 C376 1.263 . S
C379 O380 1.235 . S
C379 O406 1.289 . S
O380 C379 1.235 . S
C381 C383 1.400 . S
C381 N384 1.351 . S
C381 C386 1.501 . S
C382 C383 1.387 . S
C382 N385 1.341 . S
C383 C381 1.400 . S
C383 C382 1.387 . S
N384 Co375 2.022 . S
N384 C381 1.351 . S
N384 N385 1.365 . S
N385 C382 1.341 . S
N385 N384 1.365 . S
N385 H405 0.862 . S
C386 C381 1.501 . S
C386 H387 0.961 . S
C386 H388 0.961 . S
C386 H389 0.960 . S
H387 C386 0.961 . S
H388 C386 0.961 . S
H389 C386 0.960 . S
C390 N391 1.342 1_556 S
C390 C394 1.401 1_556 S
C390 C395 1.499 . S
N391 Co374 1.989 1_554 S
N391 C390 1.342 1_554 S
N391 N392 1.388 . S
N392 Co375 1.993 . S
N392 N391 1.388 . S
N392 C393 1.346 . S
C393 N392 1.346 . S
C393 C394 1.396 . S
C393 C403 1.510 . S
C394 C390 1.401 1_554 S
C394 C393 1.396 . S
C395 C390 1.499 . S
C395 H396 0.959 . S
C395 H397 0.960 . S
C395 H398 0.961 . S
H396 C395 0.959 . S
H397 C395 0.960 . S
H398 C395 0.961 . S
O399 Co374 1.967 . S
O399 C407 1.258 1_556 S
O400 Co375 1.941 . S
O400 C407 1.266 . S
H401 C403 0.959 . S
H402 C403 0.961 . S
C403 C393 1.510 . S
C403 H401 0.959 . S
C403 H402 0.961 . S
C403 H404 0.960 . S
H404 C403 0.960 . S
H405 N385 0.862 . S
O406 Co374 1.920 . S
O406 C379 1.289 . S
C407 O399 1.258 1_554 S
C407 O400 1.266 . S
Co408 O411 1.970 . S
Co408 N425 1.989 . S
Co408 O433 1.967 . S
Co408 O440 1.920 . S
Co409 O412 1.966 . S
Co409 N418 2.022 . S
Co409 N426 1.993 . S
Co409 O434 1.941 . S
C410 O411 1.258 . S
C410 O412 1.263 . S
O411 Co408 1.970 . S
O411 C410 1.258 . S
O412 Co409 1.966 . S
O412 C410 1.263 . S
C413 O414 1.235 . S
C413 O440 1.289 . S
O414 C413 1.235 . S
C415 C417 1.400 . S
C415 N418 1.351 . S
C415 C420 1.501 . S
C416 C417 1.387 . S
C416 N419 1.341 . S
C417 C415 1.400 . S
C417 C416 1.387 . S
N418 Co409 2.022 . S
N418 C415 1.351 . S
N418 N419 1.365 . S
N419 C416 1.341 . S
N419 N418 1.365 . S
N419 H439 0.862 . S
C420 C415 1.501 . S
C420 H421 0.961 . S
C420 H422 0.961 . S
C420 H423 0.960 . S
H421 C420 0.961 . S
H422 C420 0.961 . S
H423 C420 0.960 . S
C424 N425 1.342 . S
C424 C428 1.401 . S
C424 C429 1.499 . S
N425 Co408 1.989 . S
N425 C424 1.342 . S
N425 N426 1.388 . S
N426 Co409 1.993 . S
N426 N425 1.388 . S
N426 C427 1.346 . S
C427 N426 1.346 . S
C427 C428 1.396 . S
C427 C437 1.510 . S
C428 C424 1.401 . S
C428 C427 1.396 . S
C429 C424 1.499 . S
C429 H430 0.959 . S
C429 H431 0.960 . S
C429 H432 0.961 . S
H430 C429 0.959 . S
H431 C429 0.960 . S
H432 C429 0.961 . S
O433 Co408 1.967 . S
O433 C441 1.258 . S
O434 Co409 1.941 . S
O434 C441 1.266 . S
H435 C437 0.959 . S
H436 C437 0.961 . S
C437 C427 1.510 . S
C437 H435 0.959 . S
C437 H436 0.961 . S
C437 H438 0.960 . S
H438 C437 0.960 . S
H439 N419 0.862 . S
O440 Co408 1.920 . S
O440 C413 1.289 . S
C441 O433 1.258 . S
C441 O434 1.266 . S
Co442 O445 1.970 . S
Co442 N459 1.989 . S
Co442 O467 1.967 . S
Co442 O474 1.920 . S
Co443 O446 1.966 . S
Co443 N452 2.022 . S
Co443 N460 1.993 . S
Co443 O468 1.941 . S
C444 O445 1.258 . S
C444 O446 1.263 . S
O445 Co442 1.970 . S
O445 C444 1.258 . S
O446 Co443 1.966 . S
O446 C444 1.263 . S
C447 O448 1.235 . S
C447 O474 1.289 . S
O448 C447 1.235 . S
C449 C451 1.400 . S
C449 N452 1.351 . S
C449 C454 1.501 . S
C450 C451 1.387 . S
C450 N453 1.341 . S
C451 C449 1.400 . S
C451 C450 1.387 . S
N452 Co443 2.022 . S
N452 C449 1.351 . S
N452 N453 1.365 . S
N453 C450 1.341 . S
N453 N452 1.365 . S
N453 H473 0.862 . S
C454 C449 1.501 . S
C454 H455 0.961 . S
C454 H456 0.961 . S
C454 H457 0.960 . S
H455 C454 0.961 . S
H456 C454 0.961 . S
H457 C454 0.960 . S
C458 N459 1.342 . S
C458 C462 1.401 . S
C458 C463 1.499 . S
N459 Co442 1.989 . S
N459 C458 1.342 . S
N459 N460 1.388 . S
N460 Co443 1.993 . S
N460 N459 1.388 . S
N460 C461 1.346 . S
C461 N460 1.346 . S
C461 C462 1.396 . S
C461 C471 1.510 . S
C462 C458 1.401 . S
C462 C461 1.396 . S
C463 C458 1.499 . S
C463 H464 0.959 . S
C463 H465 0.960 . S
C463 H466 0.961 . S
H464 C463 0.959 . S
H465 C463 0.960 . S
H466 C463 0.961 . S
O467 Co442 1.967 . S
O467 C475 1.258 . S
O468 Co443 1.941 . S
O468 C475 1.266 . S
H469 C471 0.959 . S
H470 C471 0.961 . S
C471 C461 1.510 . S
C471 H469 0.959 . S
C471 H470 0.961 . S
C471 H472 0.960 . S
H472 C471 0.960 . S
H473 N453 0.862 . S
O474 Co442 1.920 . S
O474 C447 1.289 . S
C475 O467 1.258 . S
C475 O468 1.266 . S
Co476 O479 1.970 . S
Co476 N493 1.989 . S
Co476 O501 1.967 . S
Co476 O508 1.920 . S
Co477 O480 1.966 . S
Co477 N486 2.022 . S
Co477 N494 1.993 . S
Co477 O502 1.941 . S
C478 O479 1.258 . S
C478 O480 1.263 . S
O479 Co476 1.970 . S
O479 C478 1.258 . S
O480 Co477 1.966 . S
O480 C478 1.263 . S
C481 O482 1.235 . S
C481 O508 1.289 . S
O482 C481 1.235 . S
C483 C485 1.400 . S
C483 N486 1.351 . S
C483 C488 1.501 . S
C484 C485 1.387 . S
C484 N487 1.341 . S
C485 C483 1.400 . S
C485 C484 1.387 . S
N486 Co477 2.022 . S
N486 C483 1.351 . S
N486 N487 1.365 . S
N487 C484 1.341 . S
N487 N486 1.365 . S
N487 H507 0.862 . S
C488 C483 1.501 . S
C488 H489 0.961 . S
C488 H490 0.961 . S
C488 H491 0.960 . S
H489 C488 0.961 . S
H490 C488 0.961 . S
H491 C488 0.960 . S
C492 N493 1.342 . S
C492 C496 1.401 . S
C492 C497 1.499 . S
N493 Co476 1.989 . S
N493 C492 1.342 . S
N493 N494 1.388 . S
N494 Co477 1.993 . S
N494 N493 1.388 . S
N494 C495 1.346 . S
C495 N494 1.346 . S
C495 C496 1.396 . S
C495 C505 1.510 . S
C496 C492 1.401 . S
C496 C495 1.396 . S
C497 C492 1.499 . S
C497 H498 0.959 . S
C497 H499 0.960 . S
C497 H500 0.961 . S
H498 C497 0.959 . S
H499 C497 0.960 . S
H500 C497 0.961 . S
O501 Co476 1.967 . S
O501 C509 1.258 . S
O502 Co477 1.941 . S
O502 C509 1.266 . S
H503 C505 0.959 . S
H504 C505 0.961 . S
C505 C495 1.510 . S
C505 H503 0.959 . S
C505 H504 0.961 . S
C505 H506 0.960 . S
H506 C505 0.960 . S
H507 N487 0.862 . S
O508 Co476 1.920 . S
O508 C481 1.289 . S
C509 O501 1.258 . S
C509 O502 1.266 . S
Co510 O513 1.970 . S
Co510 N527 1.989 . S
Co510 O535 1.967 . S
Co510 O542 1.920 . S
Co511 O514 1.966 . S
Co511 N520 2.022 . S
Co511 N528 1.993 . S
Co511 O536 1.941 . S
C512 O513 1.258 . S
C512 O514 1.263 . S
O513 Co510 1.970 . S
O513 C512 1.258 . S
O514 Co511 1.966 . S
O514 C512 1.263 . S
C515 O516 1.235 . S
C515 O542 1.289 . S
O516 C515 1.235 . S
C517 C519 1.400 . S
C517 N520 1.351 . S
C517 C522 1.501 . S
C518 C519 1.387 . S
C518 N521 1.341 . S
C519 C517 1.400 . S
C519 C518 1.387 . S
N520 Co511 2.022 . S
N520 C517 1.351 . S
N520 N521 1.365 . S
N521 C518 1.341 . S
N521 N520 1.365 . S
N521 H541 0.862 . S
C522 C517 1.501 . S
C522 H523 0.961 . S
C522 H524 0.961 . S
C522 H525 0.960 . S
H523 C522 0.961 . S
H524 C522 0.961 . S
H525 C522 0.960 . S
C526 N527 1.342 . S
C526 C530 1.401 . S
C526 C531 1.499 . S
N527 Co510 1.989 . S
N527 C526 1.342 . S
N527 N528 1.388 . S
N528 Co511 1.993 . S
N528 N527 1.388 . S
N528 C529 1.346 . S
C529 N528 1.346 . S
C529 C530 1.396 . S
C529 C539 1.510 . S
C530 C526 1.401 . S
C530 C529 1.396 . S
C531 C526 1.499 . S
C531 H532 0.959 . S
C531 H533 0.960 . S
C531 H534 0.961 . S
H532 C531 0.959 . S
H533 C531 0.960 . S
H534 C531 0.961 . S
O535 Co510 1.967 . S
O535 C543 1.258 . S
O536 Co511 1.941 . S
O536 C543 1.266 . S
H537 C539 0.959 . S
H538 C539 0.961 . S
C539 C529 1.510 . S
C539 H537 0.959 . S
C539 H538 0.961 . S
C539 H540 0.960 . S
H540 C539 0.960 . S
H541 N521 0.862 . S
O542 Co510 1.920 . S
O542 C515 1.289 . S
C543 O535 1.258 . S
C543 O536 1.266 . S
Co544 O547 1.970 . S
Co544 N561 1.989 . S
Co544 O569 1.967 . S
Co544 O576 1.920 . S
Co545 O548 1.966 . S
Co545 N554 2.022 . S
Co545 N562 1.993 . S
Co545 O570 1.941 . S
C546 O547 1.258 . S
C546 O548 1.263 . S
O547 Co544 1.970 . S
O547 C546 1.258 . S
O548 Co545 1.966 . S
O548 C546 1.263 . S
C549 O550 1.235 . S
C549 O576 1.289 . S
O550 C549 1.235 . S
C551 C553 1.400 . S
C551 N554 1.351 . S
C551 C556 1.501 . S
C552 C553 1.387 . S
C552 N555 1.341 . S
C553 C551 1.400 . S
C553 C552 1.387 . S
N554 Co545 2.022 . S
N554 C551 1.351 . S
N554 N555 1.365 . S
N555 C552 1.341 . S
N555 N554 1.365 . S
N555 H575 0.862 . S
C556 C551 1.501 . S
C556 H557 0.961 . S
C556 H558 0.961 . S
C556 H559 0.960 . S
H557 C556 0.961 . S
H558 C556 0.961 . S
H559 C556 0.960 . S
C560 N561 1.342 . S
C560 C564 1.401 . S
C560 C565 1.499 . S
N561 Co544 1.989 . S
N561 C560 1.342 . S
N561 N562 1.388 . S
N562 Co545 1.993 . S
N562 N561 1.388 . S
N562 C563 1.346 . S
C563 N562 1.346 . S
C563 C564 1.396 . S
C563 C573 1.510 . S
C564 C560 1.401 . S
C564 C563 1.396 . S
C565 C560 1.499 . S
C565 H566 0.959 . S
C565 H567 0.960 . S
C565 H568 0.961 . S
H566 C565 0.959 . S
H567 C565 0.960 . S
H568 C565 0.961 . S
O569 Co544 1.967 . S
O569 C577 1.258 . S
O570 Co545 1.941 . S
O570 C577 1.266 . S
H571 C573 0.959 . S
H572 C573 0.961 . S
C573 C563 1.510 . S
C573 H571 0.959 . S
C573 H572 0.961 . S
C573 H574 0.960 . S
H574 C573 0.960 . S
H575 N555 0.862 . S
O576 Co544 1.920 . S
O576 C549 1.289 . S
C577 O569 1.258 . S
C577 O570 1.266 . S
Co578 O581 1.970 . S
Co578 N595 1.989 . S
Co578 O603 1.967 . S
Co578 O610 1.920 . S
Co579 O582 1.966 . S
Co579 N588 2.022 . S
Co579 N596 1.993 . S
Co579 O604 1.941 . S
C580 O581 1.258 . S
C580 O582 1.263 . S
O581 Co578 1.970 . S
O581 C580 1.258 . S
O582 Co579 1.966 . S
O582 C580 1.263 . S
C583 O584 1.235 . S
C583 O610 1.289 . S
O584 C583 1.235 . S
C585 C587 1.400 . S
C585 N588 1.351 . S
C585 C590 1.501 . S
C586 C587 1.387 . S
C586 N589 1.341 . S
C587 C585 1.400 . S
C587 C586 1.387 . S
N588 Co579 2.022 . S
N588 C585 1.351 . S
N588 N589 1.365 . S
N589 C586 1.341 . S
N589 N588 1.365 . S
N589 H609 0.862 . S
C590 C585 1.501 . S
C590 H591 0.961 . S
C590 H592 0.961 . S
C590 H593 0.960 . S
H591 C590 0.961 . S
H592 C590 0.961 . S
H593 C590 0.960 . S
C594 N595 1.342 . S
C594 C598 1.401 . S
C594 C599 1.499 . S
N595 Co578 1.989 . S
N595 C594 1.342 . S
N595 N596 1.388 . S
N596 Co579 1.993 . S
N596 N595 1.388 . S
N596 C597 1.346 . S
C597 N596 1.346 . S
C597 C598 1.396 . S
C597 C607 1.510 . S
C598 C594 1.401 . S
C598 C597 1.396 . S
C599 C594 1.499 . S
C599 H600 0.959 . S
C599 H601 0.960 . S
C599 H602 0.961 . S
H600 C599 0.959 . S
H601 C599 0.960 . S
H602 C599 0.961 . S
O603 Co578 1.967 . S
O603 C611 1.258 . S
O604 Co579 1.941 . S
O604 C611 1.266 . S
H605 C607 0.959 . S
H606 C607 0.961 . S
C607 C597 1.510 . S
C607 H605 0.959 . S
C607 H606 0.961 . S
C607 H608 0.960 . S
H608 C607 0.960 . S
H609 N589 0.862 . S
O610 Co578 1.920 . S
O610 C583 1.289 . S
C611 O603 1.258 . S
C611 O604 1.266 . S
Co612 O615 1.970 . S
Co612 N629 1.989 . S
Co612 O637 1.967 . S
Co612 O644 1.920 . S
Co613 O616 1.966 . S
Co613 N622 2.022 . S
Co613 N630 1.993 . S
Co613 O638 1.941 . S
C614 O615 1.258 . S
C614 O616 1.263 . S
O615 Co612 1.970 . S
O615 C614 1.258 . S
O616 Co613 1.966 . S
O616 C614 1.263 . S
C617 O618 1.235 . S
C617 O644 1.289 . S
O618 C617 1.235 . S
C619 C621 1.400 . S
C619 N622 1.351 . S
C619 C624 1.501 . S
C620 C621 1.387 . S
C620 N623 1.341 . S
C621 C619 1.400 . S
C621 C620 1.387 . S
N622 Co613 2.022 . S
N622 C619 1.351 . S
N622 N623 1.365 . S
N623 C620 1.341 . S
N623 N622 1.365 . S
N623 H643 0.862 . S
C624 C619 1.501 . S
C624 H625 0.961 . S
C624 H626 0.961 . S
C624 H627 0.960 . S
H625 C624 0.961 . S
H626 C624 0.961 . S
H627 C624 0.960 . S
C628 N629 1.342 . S
C628 C632 1.401 . S
C628 C633 1.499 . S
N629 Co612 1.989 . S
N629 C628 1.342 . S
N629 N630 1.388 . S
N630 Co613 1.993 . S
N630 N629 1.388 . S
N630 C631 1.346 . S
C631 N630 1.346 . S
C631 C632 1.396 . S
C631 C641 1.510 . S
C632 C628 1.401 . S
C632 C631 1.396 . S
C633 C628 1.499 . S
C633 H634 0.959 . S
C633 H635 0.960 . S
C633 H636 0.961 . S
H634 C633 0.959 . S
H635 C633 0.960 . S
H636 C633 0.961 . S
O637 Co612 1.967 . S
O637 C645 1.258 . S
O638 Co613 1.941 . S
O638 C645 1.266 . S
H639 C641 0.959 . S
H640 C641 0.961 . S
C641 C631 1.510 . S
C641 H639 0.959 . S
C641 H640 0.961 . S
C641 H642 0.960 . S
H642 C641 0.960 . S
H643 N623 0.862 . S
O644 Co612 1.920 . S
O644 C617 1.289 . S
C645 O637 1.258 . S
C645 O638 1.266 . S
Co646 O649 1.970 . S
Co646 N663 1.989 . S
Co646 O671 1.967 . S
Co646 O678 1.920 . S
Co647 O650 1.966 . S
Co647 N656 2.022 . S
Co647 N664 1.993 . S
Co647 O672 1.941 . S
C648 O649 1.258 . S
C648 O650 1.263 . S
O649 Co646 1.970 . S
O649 C648 1.258 . S
O650 Co647 1.966 . S
O650 C648 1.263 . S
C651 O652 1.235 . S
C651 O678 1.289 . S
O652 C651 1.235 . S
C653 C655 1.400 . S
C653 N656 1.351 . S
C653 C658 1.501 . S
C654 C655 1.387 . S
C654 N657 1.341 . S
C655 C653 1.400 . S
C655 C654 1.387 . S
N656 Co647 2.022 . S
N656 C653 1.351 . S
N656 N657 1.365 . S
N657 C654 1.341 . S
N657 N656 1.365 . S
N657 H677 0.862 . S
C658 C653 1.501 . S
C658 H659 0.961 . S
C658 H660 0.961 . S
C658 H661 0.960 . S
H659 C658 0.961 . S
H660 C658 0.961 . S
H661 C658 0.960 . S
C662 N663 1.342 . S
C662 C666 1.401 . S
C662 C667 1.499 . S
N663 Co646 1.989 . S
N663 C662 1.342 . S
N663 N664 1.388 . S
N664 Co647 1.993 . S
N664 N663 1.388 . S
N664 C665 1.346 . S
C665 N664 1.346 . S
C665 C666 1.396 . S
C665 C675 1.510 . S
C666 C662 1.401 . S
C666 C665 1.396 . S
C667 C662 1.499 . S
C667 H668 0.959 . S
C667 H669 0.960 . S
C667 H670 0.961 . S
H668 C667 0.959 . S
H669 C667 0.960 . S
H670 C667 0.961 . S
O671 Co646 1.967 . S
O671 C679 1.258 . S
O672 Co647 1.941 . S
O672 C679 1.266 . S
H673 C675 0.959 . S
H674 C675 0.961 . S
C675 C665 1.510 . S
C675 H673 0.959 . S
C675 H674 0.961 . S
C675 H676 0.960 . S
H676 C675 0.960 . S
H677 N657 0.862 . S
O678 Co646 1.920 . S
O678 C651 1.289 . S
C679 O671 1.258 . S
C679 O672 1.266 . S
Co680 O683 1.970 . S
Co680 N697 1.989 . S
Co680 O705 1.967 . S
Co680 O712 1.920 . S
Co681 O684 1.966 . S
Co681 N690 2.022 . S
Co681 N698 1.993 . S
Co681 O706 1.941 . S
C682 O683 1.258 . S
C682 O684 1.263 . S
O683 Co680 1.970 . S
O683 C682 1.258 . S
O684 Co681 1.966 . S
O684 C682 1.263 . S
C685 O686 1.235 . S
C685 O712 1.289 . S
O686 C685 1.235 . S
C687 C689 1.400 . S
C687 N690 1.351 . S
C687 C692 1.501 . S
C688 C689 1.387 . S
C688 N691 1.341 . S
C689 C687 1.400 . S
C689 C688 1.387 . S
N690 Co681 2.022 . S
N690 C687 1.351 . S
N690 N691 1.365 . S
N691 C688 1.341 . S
N691 N690 1.365 . S
N691 H711 0.862 . S
C692 C687 1.501 . S
C692 H693 0.961 . S
C692 H694 0.961 . S
C692 H695 0.960 . S
H693 C692 0.961 . S
H694 C692 0.961 . S
H695 C692 0.960 . S
C696 N697 1.342 . S
C696 C700 1.401 . S
C696 C701 1.499 . S
N697 Co680 1.989 . S
N697 C696 1.342 . S
N697 N698 1.388 . S
N698 Co681 1.993 . S
N698 N697 1.388 . S
N698 C699 1.346 . S
C699 N698 1.346 . S
C699 C700 1.396 . S
C699 C709 1.510 . S
C700 C696 1.401 . S
C700 C699 1.396 . S
C701 C696 1.499 . S
C701 H702 0.959 . S
C701 H703 0.960 . S
C701 H704 0.961 . S
H702 C701 0.959 . S
H703 C701 0.960 . S
H704 C701 0.961 . S
O705 Co680 1.967 . S
O705 C713 1.258 . S
O706 Co681 1.941 . S
O706 C713 1.266 . S
H707 C709 0.959 . S
H708 C709 0.961 . S
C709 C699 1.510 . S
C709 H707 0.959 . S
C709 H708 0.961 . S
C709 H710 0.960 . S
H710 C709 0.960 . S
H711 N691 0.862 . S
O712 Co680 1.920 . S
O712 C685 1.289 . S
C713 O705 1.258 . S
C713 O706 1.266 . S
Co714 O717 1.970 . S
Co714 N731 1.989 . S
Co714 O739 1.967 . S
Co714 O746 1.920 . S
Co715 O718 1.966 . S
Co715 N724 2.022 . S
Co715 N732 1.993 . S
Co715 O740 1.941 . S
C716 O717 1.258 . S
C716 O718 1.263 . S
O717 Co714 1.970 . S
O717 C716 1.258 . S
O718 Co715 1.966 . S
O718 C716 1.263 . S
C719 O720 1.235 . S
C719 O746 1.289 . S
O720 C719 1.235 . S
C721 C723 1.400 . S
C721 N724 1.351 . S
C721 C726 1.501 . S
C722 C723 1.387 . S
C722 N725 1.341 . S
C723 C721 1.400 . S
C723 C722 1.387 . S
N724 Co715 2.022 . S
N724 C721 1.351 . S
N724 N725 1.365 . S
N725 C722 1.341 . S
N725 N724 1.365 . S
N725 H745 0.862 . S
C726 C721 1.501 . S
C726 H727 0.961 . S
C726 H728 0.961 . S
C726 H729 0.960 . S
H727 C726 0.961 . S
H728 C726 0.961 . S
H729 C726 0.960 . S
C730 N731 1.342 . S
C730 C734 1.401 . S
C730 C735 1.499 . S
N731 Co714 1.989 . S
N731 C730 1.342 . S
N731 N732 1.388 . S
N732 Co715 1.993 . S
N732 N731 1.388 . S
N732 C733 1.346 . S
C733 N732 1.346 . S
C733 C734 1.396 . S
C733 C743 1.510 . S
C734 C730 1.401 . S
C734 C733 1.396 . S
C735 C730 1.499 . S
C735 H736 0.959 . S
C735 H737 0.960 . S
C735 H738 0.961 . S
H736 C735 0.959 . S
H737 C735 0.960 . S
H738 C735 0.961 . S
O739 Co714 1.967 . S
O739 C747 1.258 . S
O740 Co715 1.941 . S
O740 C747 1.266 . S
H741 C743 0.959 . S
H742 C743 0.961 . S
C743 C733 1.510 . S
C743 H741 0.959 . S
C743 H742 0.961 . S
C743 H744 0.960 . S
H744 C743 0.960 . S
H745 N725 0.862 . S
O746 Co714 1.920 . S
O746 C719 1.289 . S
C747 O739 1.258 . S
C747 O740 1.266 . S
Co748 O751 1.970 . S
Co748 N765 1.989 . S
Co748 O773 1.967 . S
Co748 O780 1.920 . S
Co749 O752 1.966 . S
Co749 N758 2.022 . S
Co749 N766 1.993 . S
Co749 O774 1.941 . S
C750 O751 1.258 . S
C750 O752 1.263 . S
O751 Co748 1.970 . S
O751 C750 1.258 . S
O752 Co749 1.966 . S
O752 C750 1.263 . S
C753 O754 1.235 . S
C753 O780 1.289 . S
O754 C753 1.235 . S
C755 C757 1.400 . S
C755 N758 1.351 . S
C755 C760 1.501 . S
C756 C757 1.387 . S
C756 N759 1.341 . S
C757 C755 1.400 . S
C757 C756 1.387 . S
N758 Co749 2.022 . S
N758 C755 1.351 . S
N758 N759 1.365 . S
N759 C756 1.341 . S
N759 N758 1.365 . S
N759 H779 0.862 . S
C760 C755 1.501 . S
C760 H761 0.961 . S
C760 H762 0.961 . S
C760 H763 0.960 . S
H761 C760 0.961 . S
H762 C760 0.961 . S
H763 C760 0.960 . S
C764 N765 1.342 . S
C764 C768 1.401 . S
C764 C769 1.499 . S
N765 Co748 1.989 . S
N765 C764 1.342 . S
N765 N766 1.388 . S
N766 Co749 1.993 . S
N766 N765 1.388 . S
N766 C767 1.346 . S
C767 N766 1.346 . S
C767 C768 1.396 . S
C767 C777 1.510 . S
C768 C764 1.401 . S
C768 C767 1.396 . S
C769 C764 1.499 . S
C769 H770 0.959 . S
C769 H771 0.960 . S
C769 H772 0.961 . S
H770 C769 0.959 . S
H771 C769 0.960 . S
H772 C769 0.961 . S
O773 Co748 1.967 . S
O773 C781 1.258 . S
O774 Co749 1.941 . S
O774 C781 1.266 . S
H775 C777 0.959 . S
H776 C777 0.961 . S
C777 C767 1.510 . S
C777 H775 0.959 . S
C777 H776 0.961 . S
C777 H778 0.960 . S
H778 C777 0.960 . S
H779 N759 0.862 . S
O780 Co748 1.920 . S
O780 C753 1.289 . S
C781 O773 1.258 . S
C781 O774 1.266 . S
Co782 O785 1.970 . S
Co782 N799 1.989 . S
Co782 O807 1.967 . S
Co782 O814 1.920 . S
Co783 O786 1.966 . S
Co783 N792 2.022 . S
Co783 N800 1.993 . S
Co783 O808 1.941 . S
C784 O785 1.258 . S
C784 O786 1.263 . S
O785 Co782 1.970 . S
O785 C784 1.258 . S
O786 Co783 1.966 . S
O786 C784 1.263 . S
C787 O788 1.235 . S
C787 O814 1.289 . S
O788 C787 1.235 . S
C789 C791 1.400 . S
C789 N792 1.351 . S
C789 C794 1.501 . S
C790 C791 1.387 . S
C790 N793 1.341 . S
C791 C789 1.400 . S
C791 C790 1.387 . S
N792 Co783 2.022 . S
N792 C789 1.351 . S
N792 N793 1.365 . S
N793 C790 1.341 . S
N793 N792 1.365 . S
N793 H813 0.862 . S
C794 C789 1.501 . S
C794 H795 0.961 . S
C794 H796 0.961 . S
C794 H797 0.960 . S
H795 C794 0.961 . S
H796 C794 0.961 . S
H797 C794 0.960 . S
C798 N799 1.342 . S
C798 C802 1.401 . S
C798 C803 1.499 . S
N799 Co782 1.989 . S
N799 C798 1.342 . S
N799 N800 1.388 . S
N800 Co783 1.993 . S
N800 N799 1.388 . S
N800 C801 1.346 . S
C801 N800 1.346 . S
C801 C802 1.396 . S
C801 C811 1.510 . S
C802 C798 1.401 . S
C802 C801 1.396 . S
C803 C798 1.499 . S
C803 H804 0.959 . S
C803 H805 0.960 . S
C803 H806 0.961 . S
H804 C803 0.959 . S
H805 C803 0.960 . S
H806 C803 0.961 . S
O807 Co782 1.967 . S
O807 C815 1.258 . S
O808 Co783 1.941 . S
O808 C815 1.266 . S
H809 C811 0.959 . S
H810 C811 0.961 . S
C811 C801 1.510 . S
C811 H809 0.959 . S
C811 H810 0.961 . S
C811 H812 0.960 . S
H812 C811 0.960 . S
H813 N793 0.862 . S
O814 Co782 1.920 . S
O814 C787 1.289 . S
C815 O807 1.258 . S
C815 O808 1.266 . S
Co816 O819 1.970 . S
Co816 N833 1.989 . S
Co816 O841 1.967 . S
Co816 O848 1.920 . S
Co817 O820 1.966 . S
Co817 N826 2.022 . S
Co817 N834 1.993 . S
Co817 O842 1.941 . S
C818 O819 1.258 . S
C818 O820 1.263 . S
O819 Co816 1.970 . S
O819 C818 1.258 . S
O820 Co817 1.966 . S
O820 C818 1.263 . S
C821 O822 1.235 . S
C821 O848 1.289 . S
O822 C821 1.235 . S
C823 C825 1.400 . S
C823 N826 1.351 . S
C823 C828 1.501 . S
C824 C825 1.387 . S
C824 N827 1.341 . S
C825 C823 1.400 . S
C825 C824 1.387 . S
N826 Co817 2.022 . S
N826 C823 1.351 . S
N826 N827 1.365 . S
N827 C824 1.341 . S
N827 N826 1.365 . S
N827 H847 0.862 . S
C828 C823 1.501 . S
C828 H829 0.961 . S
C828 H830 0.961 . S
C828 H831 0.960 . S
H829 C828 0.961 . S
H830 C828 0.961 . S
H831 C828 0.960 . S
C832 N833 1.342 . S
C832 C836 1.401 . S
C832 C837 1.499 . S
N833 Co816 1.989 . S
N833 C832 1.342 . S
N833 N834 1.388 . S
N834 Co817 1.993 . S
N834 N833 1.388 . S
N834 C835 1.346 . S
C835 N834 1.346 . S
C835 C836 1.396 . S
C835 C845 1.510 . S
C836 C832 1.401 . S
C836 C835 1.396 . S
C837 C832 1.499 . S
C837 H838 0.959 . S
C837 H839 0.960 . S
C837 H840 0.961 . S
H838 C837 0.959 . S
H839 C837 0.960 . S
H840 C837 0.961 . S
O841 Co816 1.967 . S
O841 C849 1.258 . S
O842 Co817 1.941 . S
O842 C849 1.266 . S
H843 C845 0.959 . S
H844 C845 0.961 . S
C845 C835 1.510 . S
C845 H843 0.959 . S
C845 H844 0.961 . S
C845 H846 0.960 . S
H846 C845 0.960 . S
H847 N827 0.862 . S
O848 Co816 1.920 . S
O848 C821 1.289 . S
C849 O841 1.258 . S
C849 O842 1.266 . S
Co850 O853 1.970 . S
Co850 N867 1.989 . S
Co850 O875 1.967 . S
Co850 O882 1.920 . S
Co851 O854 1.966 . S
Co851 N860 2.022 . S
Co851 N868 1.993 . S
Co851 O876 1.941 . S
C852 O853 1.258 . S
C852 O854 1.263 . S
O853 Co850 1.970 . S
O853 C852 1.258 . S
O854 Co851 1.966 . S
O854 C852 1.263 . S
C855 O856 1.235 . S
C855 O882 1.289 . S
O856 C855 1.235 . S
C857 C859 1.400 . S
C857 N860 1.351 . S
C857 C862 1.501 . S
C858 C859 1.387 . S
C858 N861 1.341 . S
C859 C857 1.400 . S
C859 C858 1.387 . S
N860 Co851 2.022 . S
N860 C857 1.351 . S
N860 N861 1.365 . S
N861 C858 1.341 . S
N861 N860 1.365 . S
N861 H881 0.862 . S
C862 C857 1.501 . S
C862 H863 0.961 . S
C862 H864 0.961 . S
C862 H865 0.960 . S
H863 C862 0.961 . S
H864 C862 0.961 . S
H865 C862 0.960 . S
C866 N867 1.342 . S
C866 C870 1.401 . S
C866 C871 1.499 . S
N867 Co850 1.989 . S
N867 C866 1.342 . S
N867 N868 1.388 . S
N868 Co851 1.993 . S
N868 N867 1.388 . S
N868 C869 1.346 . S
C869 N868 1.346 . S
C869 C870 1.396 . S
C869 C879 1.510 . S
C870 C866 1.401 . S
C870 C869 1.396 . S
C871 C866 1.499 . S
C871 H872 0.959 . S
C871 H873 0.960 . S
C871 H874 0.961 . S
H872 C871 0.959 . S
H873 C871 0.960 . S
H874 C871 0.961 . S
O875 Co850 1.967 . S
O875 C883 1.258 . S
O876 Co851 1.941 . S
O876 C883 1.266 . S
H877 C879 0.959 . S
H878 C879 0.961 . S
C879 C869 1.510 . S
C879 H877 0.959 . S
C879 H878 0.961 . S
C879 H880 0.960 . S
H880 C879 0.960 . S
H881 N861 0.862 . S
O882 Co850 1.920 . S
O882 C855 1.289 . S
C883 O875 1.258 . S
C883 O876 1.266 . S
Co884 O887 1.970 . S
Co884 N901 1.989 . S
Co884 O909 1.967 . S
Co884 O916 1.920 . S
Co885 O888 1.966 . S
Co885 N894 2.022 . S
Co885 N902 1.993 . S
Co885 O910 1.941 . S
C886 O887 1.258 . S
C886 O888 1.263 . S
O887 Co884 1.970 . S
O887 C886 1.258 . S
O888 Co885 1.966 . S
O888 C886 1.263 . S
C889 O890 1.235 . S
C889 O916 1.289 . S
O890 C889 1.235 . S
C891 C893 1.400 . S
C891 N894 1.351 . S
C891 C896 1.501 . S
C892 C893 1.387 . S
C892 N895 1.341 . S
C893 C891 1.400 . S
C893 C892 1.387 . S
N894 Co885 2.022 . S
N894 C891 1.351 . S
N894 N895 1.365 . S
N895 C892 1.341 . S
N895 N894 1.365 . S
N895 H915 0.862 . S
C896 C891 1.501 . S
C896 H897 0.961 . S
C896 H898 0.961 . S
C896 H899 0.960 . S
H897 C896 0.961 . S
H898 C896 0.961 . S
H899 C896 0.960 . S
C900 N901 1.342 . S
C900 C904 1.401 . S
C900 C905 1.499 . S
N901 Co884 1.989 . S
N901 C900 1.342 . S
N901 N902 1.388 . S
N902 Co885 1.993 . S
N902 N901 1.388 . S
N902 C903 1.346 . S
C903 N902 1.346 . S
C903 C904 1.396 . S
C903 C913 1.510 . S
C904 C900 1.401 . S
C904 C903 1.396 . S
C905 C900 1.499 . S
C905 H906 0.959 . S
C905 H907 0.960 . S
C905 H908 0.961 . S
H906 C905 0.959 . S
H907 C905 0.960 . S
H908 C905 0.961 . S
O909 Co884 1.967 . S
O909 C917 1.258 . S
O910 Co885 1.941 . S
O910 C917 1.266 . S
H911 C913 0.959 . S
H912 C913 0.961 . S
C913 C903 1.510 . S
C913 H911 0.959 . S
C913 H912 0.961 . S
C913 H914 0.960 . S
H914 C913 0.960 . S
H915 N895 0.862 . S
O916 Co884 1.920 . S
O916 C889 1.289 . S
C917 O909 1.258 . S
C917 O910 1.266 . S
Co918 O921 1.970 . S
Co918 N935 1.989 . S
Co918 O943 1.967 . S
Co918 O950 1.920 . S
Co919 O922 1.966 . S
Co919 N928 2.022 . S
Co919 N936 1.993 . S
Co919 O944 1.941 . S
C920 O921 1.258 . S
C920 O922 1.263 . S
O921 Co918 1.970 . S
O921 C920 1.258 . S
O922 Co919 1.966 . S
O922 C920 1.263 . S
C923 O924 1.235 . S
C923 O950 1.289 . S
O924 C923 1.235 . S
C925 C927 1.400 . S
C925 N928 1.351 . S
C925 C930 1.501 . S
C926 C927 1.387 . S
C926 N929 1.341 . S
C927 C925 1.400 . S
C927 C926 1.387 . S
N928 Co919 2.022 . S
N928 C925 1.351 . S
N928 N929 1.365 . S
N929 C926 1.341 . S
N929 N928 1.365 . S
N929 H949 0.862 . S
C930 C925 1.501 . S
C930 H931 0.961 . S
C930 H932 0.961 . S
C930 H933 0.960 . S
H931 C930 0.961 . S
H932 C930 0.961 . S
H933 C930 0.960 . S
C934 N935 1.342 . S
C934 C938 1.401 . S
C934 C939 1.499 . S
N935 Co918 1.989 . S
N935 C934 1.342 . S
N935 N936 1.388 . S
N936 Co919 1.993 . S
N936 N935 1.388 . S
N936 C937 1.346 . S
C937 N936 1.346 . S
C937 C938 1.396 . S
C937 C947 1.510 . S
C938 C934 1.401 . S
C938 C937 1.396 . S
C939 C934 1.499 . S
C939 H940 0.959 . S
C939 H941 0.960 . S
C939 H942 0.961 . S
H940 C939 0.959 . S
H941 C939 0.960 . S
H942 C939 0.961 . S
O943 Co918 1.967 . S
O943 C951 1.258 . S
O944 Co919 1.941 . S
O944 C951 1.266 . S
H945 C947 0.959 . S
H946 C947 0.961 . S
C947 C937 1.510 . S
C947 H945 0.959 . S
C947 H946 0.961 . S
C947 H948 0.960 . S
H948 C947 0.960 . S
H949 N929 0.862 . S
O950 Co918 1.920 . S
O950 C923 1.289 . S
C951 O943 1.258 . S
C951 O944 1.266 . S
Co952 O955 1.970 . S
Co952 N969 1.989 . S
Co952 O977 1.967 . S
Co952 O984 1.920 . S
Co953 O956 1.966 . S
Co953 N962 2.022 . S
Co953 N970 1.993 . S
Co953 O978 1.941 . S
C954 O955 1.258 . S
C954 O956 1.263 . S
O955 Co952 1.970 . S
O955 C954 1.258 . S
O956 Co953 1.966 . S
O956 C954 1.263 . S
C957 O958 1.235 . S
C957 O984 1.289 . S
O958 C957 1.235 . S
C959 C961 1.400 . S
C959 N962 1.351 . S
C959 C964 1.501 . S
C960 C961 1.387 . S
C960 N963 1.341 . S
C961 C959 1.400 . S
C961 C960 1.387 . S
N962 Co953 2.022 . S
N962 C959 1.351 . S
N962 N963 1.365 . S
N963 C960 1.341 . S
N963 N962 1.365 . S
N963 H983 0.862 . S
C964 C959 1.501 . S
C964 H965 0.961 . S
C964 H966 0.961 . S
C964 H967 0.960 . S
H965 C964 0.961 . S
H966 C964 0.961 . S
H967 C964 0.960 . S
C968 N969 1.342 . S
C968 C972 1.401 . S
C968 C973 1.499 . S
N969 Co952 1.989 . S
N969 C968 1.342 . S
N969 N970 1.388 . S
N970 Co953 1.993 . S
N970 N969 1.388 . S
N970 C971 1.346 . S
C971 N970 1.346 . S
C971 C972 1.396 . S
C971 C981 1.510 . S
C972 C968 1.401 . S
C972 C971 1.396 . S
C973 C968 1.499 . S
C973 H974 0.959 . S
C973 H975 0.960 . S
C973 H976 0.961 . S
H974 C973 0.959 . S
H975 C973 0.960 . S
H976 C973 0.961 . S
O977 Co952 1.967 . S
O977 C985 1.258 . S
O978 Co953 1.941 . S
O978 C985 1.266 . S
H979 C981 0.959 . S
H980 C981 0.961 . S
C981 C971 1.510 . S
C981 H979 0.959 . S
C981 H980 0.961 . S
C981 H982 0.960 . S
H982 C981 0.960 . S
H983 N963 0.862 . S
O984 Co952 1.920 . S
O984 C957 1.289 . S
C985 O977 1.258 . S
C985 O978 1.266 . S
Co986 O989 1.970 . S
Co986 N1003 1.989 . S
Co986 O1011 1.967 . S
Co986 O1018 1.920 . S
Co987 O990 1.966 . S
Co987 N996 2.022 . S
Co987 N1004 1.993 . S
Co987 O1012 1.941 . S
C988 O989 1.258 . S
C988 O990 1.263 . S
O989 Co986 1.970 . S
O989 C988 1.258 . S
O990 Co987 1.966 . S
O990 C988 1.263 . S
C991 O992 1.235 . S
C991 O1018 1.289 . S
O992 C991 1.235 . S
C993 C995 1.400 . S
C993 N996 1.351 . S
C993 C998 1.501 . S
C994 C995 1.387 . S
C994 N997 1.341 . S
C995 C993 1.400 . S
C995 C994 1.387 . S
N996 Co987 2.022 . S
N996 C993 1.351 . S
N996 N997 1.365 . S
N997 C994 1.341 . S
N997 N996 1.365 . S
N997 H1017 0.862 . S
C998 C993 1.501 . S
C998 H999 0.961 . S
C998 H1000 0.961 . S
C998 H1001 0.960 . S
H999 C998 0.961 . S
H1000 C998 0.961 . S
H1001 C998 0.960 . S
C1002 N1003 1.342 . S
C1002 C1006 1.401 . S
C1002 C1007 1.499 . S
N1003 Co986 1.989 . S
N1003 C1002 1.342 . S
N1003 N1004 1.388 . S
N1004 Co987 1.993 . S
N1004 N1003 1.388 . S
N1004 C1005 1.346 . S
C1005 N1004 1.346 . S
C1005 C1006 1.396 . S
C1005 C1015 1.510 . S
C1006 C1002 1.401 . S
C1006 C1005 1.396 . S
C1007 C1002 1.499 . S
C1007 H1008 0.959 . S
C1007 H1009 0.960 . S
C1007 H1010 0.961 . S
H1008 C1007 0.959 . S
H1009 C1007 0.960 . S
H1010 C1007 0.961 . S
O1011 Co986 1.967 . S
O1011 C1019 1.258 . S
O1012 Co987 1.941 . S
O1012 C1019 1.266 . S
H1013 C1015 0.959 . S
H1014 C1015 0.961 . S
C1015 C1005 1.510 . S
C1015 H1013 0.959 . S
C1015 H1014 0.961 . S
C1015 H1016 0.960 . S
H1016 C1015 0.960 . S
H1017 N997 0.862 . S
O1018 Co986 1.920 . S
O1018 C991 1.289 . S
C1019 O1011 1.258 . S
C1019 O1012 1.266 . S
Co1020 O1023 1.970 . S
Co1020 N1037 1.989 . S
Co1020 O1045 1.967 . S
Co1020 O1052 1.920 . S
Co1021 O1024 1.966 . S
Co1021 N1030 2.022 . S
Co1021 N1038 1.993 . S
Co1021 O1046 1.941 . S
C1022 O1023 1.258 . S
C1022 O1024 1.263 . S
O1023 Co1020 1.970 . S
O1023 C1022 1.258 . S
O1024 Co1021 1.966 . S
O1024 C1022 1.263 . S
C1025 O1026 1.235 . S
C1025 O1052 1.289 . S
O1026 C1025 1.235 . S
C1027 C1029 1.400 . S
C1027 N1030 1.351 . S
C1027 C1032 1.501 . S
C1028 C1029 1.387 . S
C1028 N1031 1.341 . S
C1029 C1027 1.400 . S
C1029 C1028 1.387 . S
N1030 Co1021 2.022 . S
N1030 C1027 1.351 . S
N1030 N1031 1.365 . S
N1031 C1028 1.341 . S
N1031 N1030 1.365 . S
N1031 H1051 0.862 . S
C1032 C1027 1.501 . S
C1032 H1033 0.961 . S
C1032 H1034 0.961 . S
C1032 H1035 0.960 . S
H1033 C1032 0.961 . S
H1034 C1032 0.961 . S
H1035 C1032 0.960 . S
C1036 N1037 1.342 . S
C1036 C1040 1.401 . S
C1036 C1041 1.499 . S
N1037 Co1020 1.989 . S
N1037 C1036 1.342 . S
N1037 N1038 1.388 . S
N1038 Co1021 1.993 . S
N1038 N1037 1.388 . S
N1038 C1039 1.346 . S
C1039 N1038 1.346 . S
C1039 C1040 1.396 . S
C1039 C1049 1.510 . S
C1040 C1036 1.401 . S
C1040 C1039 1.396 . S
C1041 C1036 1.499 . S
C1041 H1042 0.959 . S
C1041 H1043 0.960 . S
C1041 H1044 0.961 . S
H1042 C1041 0.959 . S
H1043 C1041 0.960 . S
H1044 C1041 0.961 . S
O1045 Co1020 1.967 . S
O1045 C1053 1.258 . S
O1046 Co1021 1.941 . S
O1046 C1053 1.266 . S
H1047 C1049 0.959 . S
H1048 C1049 0.961 . S
C1049 C1039 1.510 . S
C1049 H1047 0.959 . S
C1049 H1048 0.961 . S
C1049 H1050 0.960 . S
H1050 C1049 0.960 . S
H1051 N1031 0.862 . S
O1052 Co1020 1.920 . S
O1052 C1025 1.289 . S
C1053 O1045 1.258 . S
C1053 O1046 1.266 . S
Co1054 O1057 1.970 . S
Co1054 N1071 1.989 . S
Co1054 O1079 1.967 . S
Co1054 O1086 1.920 . S
Co1055 O1058 1.966 . S
Co1055 N1064 2.022 . S
Co1055 N1072 1.993 . S
Co1055 O1080 1.941 . S
C1056 O1057 1.258 . S
C1056 O1058 1.263 . S
O1057 Co1054 1.970 . S
O1057 C1056 1.258 . S
O1058 Co1055 1.966 . S
O1058 C1056 1.263 . S
C1059 O1060 1.235 . S
C1059 O1086 1.289 . S
O1060 C1059 1.235 . S
C1061 C1063 1.400 . S
C1061 N1064 1.351 . S
C1061 C1066 1.501 . S
C1062 C1063 1.387 . S
C1062 N1065 1.341 . S
C1063 C1061 1.400 . S
C1063 C1062 1.387 . S
N1064 Co1055 2.022 . S
N1064 C1061 1.351 . S
N1064 N1065 1.365 . S
N1065 C1062 1.341 . S
N1065 N1064 1.365 . S
N1065 H1085 0.862 . S
C1066 C1061 1.501 . S
C1066 H1067 0.961 . S
C1066 H1068 0.961 . S
C1066 H1069 0.960 . S
H1067 C1066 0.961 . S
H1068 C1066 0.961 . S
H1069 C1066 0.960 . S
C1070 N1071 1.342 . S
C1070 C1074 1.401 . S
C1070 C1075 1.499 . S
N1071 Co1054 1.989 . S
N1071 C1070 1.342 . S
N1071 N1072 1.388 . S
N1072 Co1055 1.993 . S
N1072 N1071 1.388 . S
N1072 C1073 1.346 . S
C1073 N1072 1.346 . S
C1073 C1074 1.396 . S
C1073 C1083 1.510 . S
C1074 C1070 1.401 . S
C1074 C1073 1.396 . S
C1075 C1070 1.499 . S
C1075 H1076 0.959 . S
C1075 H1077 0.960 . S
C1075 H1078 0.961 . S
H1076 C1075 0.959 . S
H1077 C1075 0.960 . S
H1078 C1075 0.961 . S
O1079 Co1054 1.967 . S
O1079 C1087 1.258 . S
O1080 Co1055 1.941 . S
O1080 C1087 1.266 . S
H1081 C1083 0.959 . S
H1082 C1083 0.961 . S
C1083 C1073 1.510 . S
C1083 H1081 0.959 . S
C1083 H1082 0.961 . S
C1083 H1084 0.960 . S
H1084 C1083 0.960 . S
H1085 N1065 0.862 . S
O1086 Co1054 1.920 . S
O1086 C1059 1.289 . S
C1087 O1079 1.258 . S
C1087 O1080 1.266 . S
Co1088 O1091 1.970 . S
Co1088 N1105 1.989 . S
Co1088 O1113 1.967 . S
Co1088 O1120 1.920 . S
Co1089 O1092 1.966 . S
Co1089 N1098 2.022 . S
Co1089 N1106 1.993 . S
Co1089 O1114 1.941 . S
C1090 O1091 1.258 . S
C1090 O1092 1.263 . S
O1091 Co1088 1.970 . S
O1091 C1090 1.258 . S
O1092 Co1089 1.966 . S
O1092 C1090 1.263 . S
C1093 O1094 1.235 . S
C1093 O1120 1.289 . S
O1094 C1093 1.235 . S
C1095 C1097 1.400 . S
C1095 N1098 1.351 . S
C1095 C1100 1.501 . S
C1096 C1097 1.387 . S
C1096 N1099 1.341 . S
C1097 C1095 1.400 . S
C1097 C1096 1.387 . S
N1098 Co1089 2.022 . S
N1098 C1095 1.351 . S
N1098 N1099 1.365 . S
N1099 C1096 1.341 . S
N1099 N1098 1.365 . S
N1099 H1119 0.862 . S
C1100 C1095 1.501 . S
C1100 H1101 0.961 . S
C1100 H1102 0.961 . S
C1100 H1103 0.960 . S
H1101 C1100 0.961 . S
H1102 C1100 0.961 . S
H1103 C1100 0.960 . S
C1104 N1105 1.342 . S
C1104 C1108 1.401 . S
C1104 C1109 1.499 . S
N1105 Co1088 1.989 . S
N1105 C1104 1.342 . S
N1105 N1106 1.388 . S
N1106 Co1089 1.993 . S
N1106 N1105 1.388 . S
N1106 C1107 1.346 . S
C1107 N1106 1.346 . S
C1107 C1108 1.396 . S
C1107 C1117 1.510 . S
C1108 C1104 1.401 . S
C1108 C1107 1.396 . S
C1109 C1104 1.499 . S
C1109 H1110 0.959 . S
C1109 H1111 0.960 . S
C1109 H1112 0.961 . S
H1110 C1109 0.959 . S
H1111 C1109 0.960 . S
H1112 C1109 0.961 . S
O1113 Co1088 1.967 . S
O1113 C1121 1.258 . S
O1114 Co1089 1.941 . S
O1114 C1121 1.266 . S
H1115 C1117 0.959 . S
H1116 C1117 0.961 . S
C1117 C1107 1.510 . S
C1117 H1115 0.959 . S
C1117 H1116 0.961 . S
C1117 H1118 0.960 . S
H1118 C1117 0.960 . S
H1119 N1099 0.862 . S
O1120 Co1088 1.920 . S
O1120 C1093 1.289 . S
C1121 O1113 1.258 . S
C1121 O1114 1.266 . S
Co1122 O1125 1.970 . S
Co1122 N1139 1.989 . S
Co1122 O1147 1.967 . S
Co1122 O1154 1.920 . S
Co1123 O1126 1.966 . S
Co1123 N1132 2.022 . S
Co1123 N1140 1.993 . S
Co1123 O1148 1.941 . S
C1124 O1125 1.258 . S
C1124 O1126 1.263 . S
O1125 Co1122 1.970 . S
O1125 C1124 1.258 . S
O1126 Co1123 1.966 . S
O1126 C1124 1.263 . S
C1127 O1128 1.235 . S
C1127 O1154 1.289 . S
O1128 C1127 1.235 . S
C1129 C1131 1.400 . S
C1129 N1132 1.351 . S
C1129 C1134 1.501 . S
C1130 C1131 1.387 . S
C1130 N1133 1.341 . S
C1131 C1129 1.400 . S
C1131 C1130 1.387 . S
N1132 Co1123 2.022 . S
N1132 C1129 1.351 . S
N1132 N1133 1.365 . S
N1133 C1130 1.341 . S
N1133 N1132 1.365 . S
N1133 H1153 0.862 . S
C1134 C1129 1.501 . S
C1134 H1135 0.961 . S
C1134 H1136 0.961 . S
C1134 H1137 0.960 . S
H1135 C1134 0.961 . S
H1136 C1134 0.961 . S
H1137 C1134 0.960 . S
C1138 N1139 1.342 . S
C1138 C1142 1.401 . S
C1138 C1143 1.499 . S
N1139 Co1122 1.989 . S
N1139 C1138 1.342 . S
N1139 N1140 1.388 . S
N1140 Co1123 1.993 . S
N1140 N1139 1.388 . S
N1140 C1141 1.346 . S
C1141 N1140 1.346 . S
C1141 C1142 1.396 . S
C1141 C1151 1.510 . S
C1142 C1138 1.401 . S
C1142 C1141 1.396 . S
C1143 C1138 1.499 . S
C1143 H1144 0.959 . S
C1143 H1145 0.960 . S
C1143 H1146 0.961 . S
H1144 C1143 0.959 . S
H1145 C1143 0.960 . S
H1146 C1143 0.961 . S
O1147 Co1122 1.967 . S
O1147 C1155 1.258 . S
O1148 Co1123 1.941 . S
O1148 C1155 1.266 . S
H1149 C1151 0.959 . S
H1150 C1151 0.961 . S
C1151 C1141 1.510 . S
C1151 H1149 0.959 . S
C1151 H1150 0.961 . S
C1151 H1152 0.960 . S
H1152 C1151 0.960 . S
H1153 N1133 0.862 . S
O1154 Co1122 1.920 . S
O1154 C1127 1.289 . S
C1155 O1147 1.258 . S
C1155 O1148 1.266 . S
Co1156 O1159 1.970 . S
Co1156 N1173 1.989 . S
Co1156 O1181 1.967 . S
Co1156 O1188 1.920 . S
Co1157 O1160 1.966 . S
Co1157 N1166 2.022 . S
Co1157 N1174 1.993 . S
Co1157 O1182 1.941 . S
C1158 O1159 1.258 . S
C1158 O1160 1.263 . S
O1159 Co1156 1.970 . S
O1159 C1158 1.258 . S
O1160 Co1157 1.966 . S
O1160 C1158 1.263 . S
C1161 O1162 1.235 . S
C1161 O1188 1.289 . S
O1162 C1161 1.235 . S
C1163 C1165 1.400 . S
C1163 N1166 1.351 . S
C1163 C1168 1.501 . S
C1164 C1165 1.387 . S
C1164 N1167 1.341 . S
C1165 C1163 1.400 . S
C1165 C1164 1.387 . S
N1166 Co1157 2.022 . S
N1166 C1163 1.351 . S
N1166 N1167 1.365 . S
N1167 C1164 1.341 . S
N1167 N1166 1.365 . S
N1167 H1187 0.862 . S
C1168 C1163 1.501 . S
C1168 H1169 0.961 . S
C1168 H1170 0.961 . S
C1168 H1171 0.960 . S
H1169 C1168 0.961 . S
H1170 C1168 0.961 . S
H1171 C1168 0.960 . S
C1172 N1173 1.342 . S
C1172 C1176 1.401 . S
C1172 C1177 1.499 . S
N1173 Co1156 1.989 . S
N1173 C1172 1.342 . S
N1173 N1174 1.388 . S
N1174 Co1157 1.993 . S
N1174 N1173 1.388 . S
N1174 C1175 1.346 . S
C1175 N1174 1.346 . S
C1175 C1176 1.396 . S
C1175 C1185 1.510 . S
C1176 C1172 1.401 . S
C1176 C1175 1.396 . S
C1177 C1172 1.499 . S
C1177 H1178 0.959 . S
C1177 H1179 0.960 . S
C1177 H1180 0.961 . S
H1178 C1177 0.959 . S
H1179 C1177 0.960 . S
H1180 C1177 0.961 . S
O1181 Co1156 1.967 . S
O1181 C1189 1.258 . S
O1182 Co1157 1.941 . S
O1182 C1189 1.266 . S
H1183 C1185 0.959 . S
H1184 C1185 0.961 . S
C1185 C1175 1.510 . S
C1185 H1183 0.959 . S
C1185 H1184 0.961 . S
C1185 H1186 0.960 . S
H1186 C1185 0.960 . S
H1187 N1167 0.862 . S
O1188 Co1156 1.920 . S
O1188 C1161 1.289 . S
C1189 O1181 1.258 . S
C1189 O1182 1.266 . S
Co1190 O1193 1.970 . S
Co1190 N1207 1.989 . S
Co1190 O1215 1.967 . S
Co1190 O1222 1.920 . S
Co1191 O1194 1.966 . S
Co1191 N1200 2.022 . S
Co1191 N1208 1.993 . S
Co1191 O1216 1.941 . S
C1192 O1193 1.258 . S
C1192 O1194 1.263 . S
O1193 Co1190 1.970 . S
O1193 C1192 1.258 . S
O1194 Co1191 1.966 . S
O1194 C1192 1.263 . S
C1195 O1196 1.235 . S
C1195 O1222 1.289 . S
O1196 C1195 1.235 . S
C1197 C1199 1.400 . S
C1197 N1200 1.351 . S
C1197 C1202 1.501 . S
C1198 C1199 1.387 . S
C1198 N1201 1.341 . S
C1199 C1197 1.400 . S
C1199 C1198 1.387 . S
N1200 Co1191 2.022 . S
N1200 C1197 1.351 . S
N1200 N1201 1.365 . S
N1201 C1198 1.341 . S
N1201 N1200 1.365 . S
N1201 H1221 0.862 . S
C1202 C1197 1.501 . S
C1202 H1203 0.961 . S
C1202 H1204 0.961 . S
C1202 H1205 0.960 . S
H1203 C1202 0.961 . S
H1204 C1202 0.961 . S
H1205 C1202 0.960 . S
C1206 N1207 1.342 . S
C1206 C1210 1.401 . S
C1206 C1211 1.499 . S
N1207 Co1190 1.989 . S
N1207 C1206 1.342 . S
N1207 N1208 1.388 . S
N1208 Co1191 1.993 . S
N1208 N1207 1.388 . S
N1208 C1209 1.346 . S
C1209 N1208 1.346 . S
C1209 C1210 1.396 . S
C1209 C1219 1.510 . S
C1210 C1206 1.401 . S
C1210 C1209 1.396 . S
C1211 C1206 1.499 . S
C1211 H1212 0.959 . S
C1211 H1213 0.960 . S
C1211 H1214 0.961 . S
H1212 C1211 0.959 . S
H1213 C1211 0.960 . S
H1214 C1211 0.961 . S
O1215 Co1190 1.967 . S
O1215 C1223 1.258 . S
O1216 Co1191 1.941 . S
O1216 C1223 1.266 . S
H1217 C1219 0.959 . S
H1218 C1219 0.961 . S
C1219 C1209 1.510 . S
C1219 H1217 0.959 . S
C1219 H1218 0.961 . S
C1219 H1220 0.960 . S
H1220 C1219 0.960 . S
H1221 N1201 0.862 . S
O1222 Co1190 1.920 . S
O1222 C1195 1.289 . S
C1223 O1215 1.258 . S
C1223 O1216 1.266 . S
H1224 C1232 0.929 1_556 S
H1225 C1234 0.930 . S
H1226 C1236 0.930 . S
H1227 C1239 0.929 . S
H1228 C1242 0.930 . S
H1229 C1244 0.960 . S
H1230 C1244 0.960 . S
H1231 C1244 0.960 . S
C1232 H1224 0.929 1_554 S
C1232 C1233 1.377 . S
C1232 C1234 1.384 . S
C1233 C1232 1.377 . S
C1233 C1239 1.390 . S
C1234 H1225 0.930 . S
C1234 C1232 1.384 . S
C1234 C1235 1.372 . S
C1235 C1234 1.372 . S
C1235 C1236 1.400 . S
C1235 C1240 1.490 . S
C1236 H1226 0.930 . S
C1236 C1235 1.400 . S
C1236 C1239 1.386 . S
H1237 C1253 0.930 . S
H1238 C1254 0.931 . S
C1239 H1227 0.929 . S
C1239 C1233 1.390 . S
C1239 C1236 1.386 . S
C1240 C1235 1.490 . S
C1240 C1242 1.395 . S
C1240 C1243 1.403 . S
H1241 C1247 0.930 . S
C1242 H1228 0.930 . S
C1242 C1240 1.395 . S
C1242 C1245 1.403 . S
C1243 C1240 1.403 . S
C1243 C1244 1.524 . S
C1243 C1247 1.400 . S
C1244 H1229 0.960 . S
C1244 H1230 0.960 . S
C1244 H1231 0.960 . S
C1244 C1243 1.524 . S
C1245 C1242 1.403 . S
C1245 C1246 1.392 . S
C1245 C1249 1.495 . S
C1246 C1245 1.392 . S
C1246 C1247 1.385 . S
C1246 C1248 1.478 . S
C1247 H1241 0.930 . S
C1247 C1243 1.400 . S
C1247 C1246 1.385 . S
C1248 C1246 1.478 . S
C1248 C1250 1.381 . S
C1248 C1254 1.383 . S
C1249 C1245 1.495 . S
C1249 H1255 0.959 . S
C1249 H1256 0.961 . S
C1249 H1257 0.960 . S
C1250 C1248 1.381 . S
C1250 C1251 1.394 . S
C1250 H1258 0.930 . S
C1251 C1250 1.394 . S
C1251 C1252 1.383 . S
C1251 H1259 0.929 . S
C1252 C1251 1.383 . S
C1252 C1253 1.377 . S
C1253 H1237 0.930 . S
C1253 C1252 1.377 . S
C1253 C1254 1.379 . S
C1254 H1238 0.931 . S
C1254 C1248 1.383 . S
C1254 C1253 1.379 . S
H1255 C1249 0.959 . S
H1256 C1249 0.961 . S
H1257 C1249 0.960 . S
H1258 C1250 0.930 . S
H1259 C1251 0.929 . S
H1260 C1268 0.929 . S
H1261 C1270 0.930 . S
H1262 C1272 0.930 . S
H1263 C1275 0.929 . S
H1264 C1278 0.930 . S
H1265 C1280 0.960 . S
H1266 C1280 0.960 . S
H1267 C1280 0.960 . S
C1268 H1260 0.929 . S
C1268 C1269 1.377 . S
C1268 C1270 1.384 . S
C1269 C1268 1.377 . S
C1269 C1275 1.390 . S
C1270 H1261 0.930 . S
C1270 C1268 1.384 . S
C1270 C1271 1.372 . S
C1271 C1270 1.372 . S
C1271 C1272 1.400 . S
C1271 C1276 1.490 . S
C1272 H1262 0.930 . S
C1272 C1271 1.400 . S
C1272 C1275 1.386 . S
H1273 C1289 0.930 . S
H1274 C1290 0.931 . S
C1275 H1263 0.929 . S
C1275 C1269 1.390 . S
C1275 C1272 1.386 . S
C1276 C1271 1.490 . S
C1276 C1278 1.395 . S
C1276 C1279 1.403 . S
H1277 C1283 0.930 . S
C1278 H1264 0.930 . S
C1278 C1276 1.395 . S
C1278 C1281 1.403 . S
C1279 C1276 1.403 . S
C1279 C1280 1.524 . S
C1279 C1283 1.400 . S
C1280 H1265 0.960 . S
C1280 H1266 0.960 . S
C1280 H1267 0.960 . S
C1280 C1279 1.524 . S
C1281 C1278 1.403 . S
C1281 C1282 1.392 . S
C1281 C1285 1.495 . S
C1282 C1281 1.392 . S
C1282 C1283 1.385 . S
C1282 C1284 1.478 . S
C1283 H1277 0.930 . S
C1283 C1279 1.400 . S
C1283 C1282 1.385 . S
C1284 C1282 1.478 . S
C1284 C1286 1.381 . S
C1284 C1290 1.383 . S
C1285 C1281 1.495 . S
C1285 H1291 0.959 . S
C1285 H1292 0.961 . S
C1285 H1293 0.960 . S
C1286 C1284 1.381 . S
C1286 C1287 1.394 . S
C1286 H1294 0.930 . S
C1287 C1286 1.394 . S
C1287 C1288 1.383 . S
C1287 H1295 0.929 . S
C1288 C1287 1.383 . S
C1288 C1289 1.377 . S
C1289 H1273 0.930 . S
C1289 C1288 1.377 . S
C1289 C1290 1.379 . S
C1290 H1274 0.931 . S
C1290 C1284 1.383 . S
C1290 C1289 1.379 . S
H1291 C1285 0.959 . S
H1292 C1285 0.961 . S
H1293 C1285 0.960 . S
H1294 C1286 0.930 . S
H1295 C1287 0.929 . S
H1296 C1304 0.930 . S
H1297 C1306 0.930 . S
H1298 C1308 0.930 . S
H1299 C1311 0.929 . S
H1300 C1314 0.930 . S
H1301 C1316 0.960 . S
H1302 C1316 0.960 . S
H1303 C1316 0.960 . S
C1304 H1296 0.930 . S
C1304 C1305 1.377 . S
C1304 C1306 1.384 . S
C1305 C1304 1.377 . S
C1305 C1311 1.390 . S
C1306 H1297 0.930 . S
C1306 C1304 1.384 . S
C1306 C1307 1.372 . S
C1307 C1306 1.372 . S
C1307 C1308 1.400 . S
C1307 C1312 1.490 . S
C1308 H1298 0.930 . S
C1308 C1307 1.400 . S
C1308 C1311 1.386 . S
H1309 C1325 0.930 . S
H1310 C1326 0.931 . S
C1311 H1299 0.929 . S
C1311 C1305 1.390 . S
C1311 C1308 1.386 . S
C1312 C1307 1.490 . S
C1312 C1314 1.395 . S
C1312 C1315 1.403 . S
H1313 C1319 0.930 . S
C1314 H1300 0.930 . S
C1314 C1312 1.395 . S
C1314 C1317 1.403 . S
C1315 C1312 1.403 . S
C1315 C1316 1.524 . S
C1315 C1319 1.400 . S
C1316 H1301 0.960 . S
C1316 H1302 0.960 . S
C1316 H1303 0.960 . S
C1316 C1315 1.524 . S
C1317 C1314 1.403 . S
C1317 C1318 1.392 . S
C1317 C1321 1.495 . S
C1318 C1317 1.392 . S
C1318 C1319 1.385 . S
C1318 C1320 1.478 . S
C1319 H1313 0.930 . S
C1319 C1315 1.400 . S
C1319 C1318 1.385 . S
C1320 C1318 1.478 . S
C1320 C1322 1.381 . S
C1320 C1326 1.383 . S
C1321 C1317 1.495 . S
C1321 H1327 0.959 . S
C1321 H1328 0.961 . S
C1321 H1329 0.960 . S
C1322 C1320 1.381 . S
C1322 C1323 1.394 . S
C1322 H1330 0.930 . S
C1323 C1322 1.394 . S
C1323 C1324 1.383 . S
C1323 H1331 0.929 . S
C1324 C1323 1.383 . S
C1324 C1325 1.377 . S
C1325 H1309 0.930 . S
C1325 C1324 1.377 . S
C1325 C1326 1.379 . S
C1326 H1310 0.931 . S
C1326 C1320 1.383 . S
C1326 C1325 1.379 . S
H1327 C1321 0.959 . S
H1328 C1321 0.961 . S
H1329 C1321 0.960 . S
H1330 C1322 0.930 . S
H1331 C1323 0.929 . S
H1332 C1340 0.929 . S
H1333 C1342 0.930 . S
H1334 C1344 0.930 . S
H1335 C1347 0.929 . S
H1336 C1350 0.930 . S
H1337 C1352 0.960 . S
H1338 C1352 0.960 . S
H1339 C1352 0.960 . S
C1340 H1332 0.929 . S
C1340 C1341 1.377 . S
C1340 C1342 1.384 . S
C1341 C1340 1.377 . S
C1341 C1347 1.390 . S
C1342 H1333 0.930 . S
C1342 C1340 1.384 . S
C1342 C1343 1.372 . S
C1343 C1342 1.372 . S
C1343 C1344 1.400 . S
C1343 C1348 1.490 . S
C1344 H1334 0.930 . S
C1344 C1343 1.400 . S
C1344 C1347 1.386 . S
H1345 C1361 0.930 . S
H1346 C1362 0.931 . S
C1347 H1335 0.929 . S
C1347 C1341 1.390 . S
C1347 C1344 1.386 . S
C1348 C1343 1.490 . S
C1348 C1350 1.395 . S
C1348 C1351 1.403 . S
H1349 C1355 0.930 . S
C1350 H1336 0.930 . S
C1350 C1348 1.395 . S
C1350 C1353 1.403 . S
C1351 C1348 1.403 . S
C1351 C1352 1.524 . S
C1351 C1355 1.400 . S
C1352 H1337 0.960 . S
C1352 H1338 0.960 . S
C1352 H1339 0.960 . S
C1352 C1351 1.524 . S
C1353 C1350 1.403 . S
C1353 C1354 1.392 . S
C1353 C1357 1.495 . S
C1354 C1353 1.392 . S
C1354 C1355 1.385 . S
C1354 C1356 1.478 . S
C1355 H1349 0.930 . S
C1355 C1351 1.400 . S
C1355 C1354 1.385 . S
C1356 C1354 1.478 . S
C1356 C1358 1.381 . S
C1356 C1362 1.383 . S
C1357 C1353 1.495 . S
C1357 H1363 0.959 . S
C1357 H1364 0.961 . S
C1357 H1365 0.960 . S
C1358 C1356 1.381 . S
C1358 C1359 1.394 . S
C1358 H1366 0.930 . S
C1359 C1358 1.394 . S
C1359 C1360 1.383 . S
C1359 H1367 0.929 . S
C1360 C1359 1.383 . S
C1360 C1361 1.377 . S
C1361 H1345 0.930 . S
C1361 C1360 1.377 . S
C1361 C1362 1.379 . S
C1362 H1346 0.931 . S
C1362 C1356 1.383 . S
C1362 C1361 1.379 . S
H1363 C1357 0.959 . S
H1364 C1357 0.961 . S
H1365 C1357 0.960 . S
H1366 C1358 0.930 . S
H1367 C1359 0.929 . S
H1368 C1376 0.929 . S
H1369 C1378 0.930 . S
H1370 C1380 0.930 . S
H1371 C1383 0.929 . S
H1372 C1386 0.930 . S
H1373 C1388 0.960 . S
H1374 C1388 0.960 . S
H1375 C1388 0.960 . S
C1376 H1368 0.929 . S
C1376 C1377 1.377 . S
C1376 C1378 1.384 . S
C1377 C1376 1.377 . S
C1377 C1383 1.390 . S
C1378 H1369 0.930 . S
C1378 C1376 1.384 . S
C1378 C1379 1.372 . S
C1379 C1378 1.372 . S
C1379 C1380 1.400 . S
C1379 C1384 1.490 . S
C1380 H1370 0.930 . S
C1380 C1379 1.400 . S
C1380 C1383 1.386 . S
H1381 C1397 0.930 . S
H1382 C1398 0.931 . S
C1383 H1371 0.929 . S
C1383 C1377 1.390 . S
C1383 C1380 1.386 . S
C1384 C1379 1.490 . S
C1384 C1386 1.395 . S
C1384 C1387 1.403 . S
H1385 C1391 0.930 . S
C1386 H1372 0.930 . S
C1386 C1384 1.395 . S
C1386 C1389 1.403 . S
C1387 C1384 1.403 . S
C1387 C1388 1.524 . S
C1387 C1391 1.400 . S
C1388 H1373 0.960 . S
C1388 H1374 0.960 . S
C1388 H1375 0.960 . S
C1388 C1387 1.524 . S
C1389 C1386 1.403 . S
C1389 C1390 1.392 . S
C1389 C1393 1.495 . S
C1390 C1389 1.392 . S
C1390 C1391 1.385 . S
C1390 C1392 1.478 . S
C1391 H1385 0.930 . S
C1391 C1387 1.400 . S
C1391 C1390 1.385 . S
C1392 C1390 1.478 . S
C1392 C1394 1.381 . S
C1392 C1398 1.383 . S
C1393 C1389 1.495 . S
C1393 H1399 0.959 . S
C1393 H1400 0.961 . S
C1393 H1401 0.960 . S
C1394 C1392 1.381 . S
C1394 C1395 1.394 . S
C1394 H1402 0.930 . S
C1395 C1394 1.394 . S
C1395 C1396 1.383 . S
C1395 H1403 0.929 . S
C1396 C1395 1.383 . S
C1396 C1397 1.377 . S
C1397 H1381 0.930 . S
C1397 C1396 1.377 . S
C1397 C1398 1.379 . S
C1398 H1382 0.931 . S
C1398 C1392 1.383 . S
C1398 C1397 1.379 . S
H1399 C1393 0.959 . S
H1400 C1393 0.961 . S
H1401 C1393 0.960 . S
H1402 C1394 0.930 . S
H1403 C1395 0.929 . S
H1404 C1412 0.929 . S
H1405 C1414 0.930 . S
H1406 C1416 0.930 . S
H1407 C1419 0.929 . S
H1408 C1422 0.930 . S
H1409 C1424 0.960 . S
H1410 C1424 0.960 . S
H1411 C1424 0.960 . S
C1412 H1404 0.929 . S
C1412 C1413 1.377 . S
C1412 C1414 1.384 . S
C1413 C1412 1.377 . S
C1413 C1419 1.390 . S
C1414 H1405 0.930 . S
C1414 C1412 1.384 . S
C1414 C1415 1.372 . S
C1415 C1414 1.372 . S
C1415 C1416 1.400 . S
C1415 C1420 1.490 . S
C1416 H1406 0.930 . S
C1416 C1415 1.400 . S
C1416 C1419 1.386 . S
H1417 C1433 0.930 . S
H1418 C1434 0.931 . S
C1419 H1407 0.929 . S
C1419 C1413 1.390 . S
C1419 C1416 1.386 . S
C1420 C1415 1.490 . S
C1420 C1422 1.395 . S
C1420 C1423 1.403 . S
H1421 C1427 0.930 . S
C1422 H1408 0.930 . S
C1422 C1420 1.395 . S
C1422 C1425 1.403 . S
C1423 C1420 1.403 . S
C1423 C1424 1.524 . S
C1423 C1427 1.400 . S
C1424 H1409 0.960 . S
C1424 H1410 0.960 . S
C1424 H1411 0.960 . S
C1424 C1423 1.524 . S
C1425 C1422 1.403 . S
C1425 C1426 1.392 . S
C1425 C1429 1.495 . S
C1426 C1425 1.392 . S
C1426 C1427 1.385 . S
C1426 C1428 1.478 . S
C1427 H1421 0.930 . S
C1427 C1423 1.400 . S
C1427 C1426 1.385 . S
C1428 C1426 1.478 . S
C1428 C1430 1.381 . S
C1428 C1434 1.383 . S
C1429 C1425 1.495 . S
C1429 H1435 0.959 . S
C1429 H1436 0.961 . S
C1429 H1437 0.960 . S
C1430 C1428 1.381 . S
C1430 C1431 1.394 . S
C1430 H1438 0.930 . S
C1431 C1430 1.394 . S
C1431 C1432 1.383 . S
C1431 H1439 0.929 . S
C1432 C1431 1.383 . S
C1432 C1433 1.377 . S
C1433 H1417 0.930 . S
C1433 C1432 1.377 . S
C1433 C1434 1.379 . S
C1434 H1418 0.931 . S
C1434 C1428 1.383 . S
C1434 C1433 1.379 . S
H1435 C1429 0.959 . S
H1436 C1429 0.961 . S
H1437 C1429 0.960 . S
H1438 C1430 0.930 . S
H1439 C1431 0.929 . S
H1440 C1448 0.929 . S
H1441 C1450 0.930 . S
H1442 C1452 0.930 . S
H1443 C1455 0.929 1_554 S
H1444 C1458 0.930 . S
H1445 C1460 0.960 . S
H1446 C1460 0.960 . S
H1447 C1460 0.960 . S
C1448 H1440 0.929 . S
C1448 C1449 1.377 . S
C1448 C1450 1.384 . S
C1449 C1448 1.377 . S
C1449 C1455 1.390 . S
C1450 H1441 0.930 . S
C1450 C1448 1.384 . S
C1450 C1451 1.372 . S
C1451 C1450 1.372 . S
C1451 C1452 1.400 . S
C1451 C1456 1.490 . S
C1452 H1442 0.930 . S
C1452 C1451 1.400 . S
C1452 C1455 1.386 . S
H1453 C1469 0.930 . S
H1454 C1470 0.931 . S
C1455 H1443 0.929 1_556 S
C1455 C1449 1.390 . S
C1455 C1452 1.386 . S
C1456 C1451 1.490 . S
C1456 C1458 1.395 . S
C1456 C1459 1.403 . S
H1457 C1463 0.930 . S
C1458 H1444 0.930 . S
C1458 C1456 1.395 . S
C1458 C1461 1.403 . S
C1459 C1456 1.403 . S
C1459 C1460 1.524 . S
C1459 C1463 1.400 . S
C1460 H1445 0.960 . S
C1460 H1446 0.960 . S
C1460 H1447 0.960 . S
C1460 C1459 1.524 . S
C1461 C1458 1.403 . S
C1461 C1462 1.392 . S
C1461 C1465 1.495 . S
C1462 C1461 1.392 . S
C1462 C1463 1.385 . S
C1462 C1464 1.478 . S
C1463 H1457 0.930 . S
C1463 C1459 1.400 . S
C1463 C1462 1.385 . S
C1464 C1462 1.478 . S
C1464 C1466 1.381 . S
C1464 C1470 1.383 . S
C1465 C1461 1.495 . S
C1465 H1471 0.959 . S
C1465 H1472 0.961 . S
C1465 H1473 0.960 . S
C1466 C1464 1.381 . S
C1466 C1467 1.394 . S
C1466 H1474 0.930 . S
C1467 C1466 1.394 . S
C1467 C1468 1.383 . S
C1467 H1475 0.929 . S
C1468 C1467 1.383 . S
C1468 C1469 1.377 . S
C1469 H1453 0.930 . S
C1469 C1468 1.377 . S
C1469 C1470 1.379 . S
C1470 H1454 0.931 . S
C1470 C1464 1.383 . S
C1470 C1469 1.379 . S
H1471 C1465 0.959 . S
H1472 C1465 0.961 . S
H1473 C1465 0.960 . S
H1474 C1466 0.930 . S
H1475 C1467 0.929 . S
H1476 C1484 0.929 . S
H1477 C1486 0.930 . S
H1478 C1488 0.930 . S
H1479 C1491 0.929 . S
H1480 C1494 0.930 . S
H1481 C1496 0.960 . S
H1482 C1496 0.960 . S
H1483 C1496 0.960 . S
C1484 H1476 0.929 . S
C1484 C1485 1.377 . S
C1484 C1486 1.384 . S
C1485 C1484 1.377 . S
C1485 C1491 1.390 . S
C1486 H1477 0.930 . S
C1486 C1484 1.384 . S
C1486 C1487 1.372 . S
C1487 C1486 1.372 . S
C1487 C1488 1.400 . S
C1487 C1492 1.490 . S
C1488 H1478 0.930 . S
C1488 C1487 1.400 . S
C1488 C1491 1.386 . S
H1489 C1505 0.930 1_554 S
H1490 C1506 0.931 . S
C1491 H1479 0.929 . S
C1491 C1485 1.390 . S
C1491 C1488 1.386 . S
C1492 C1487 1.490 . S
C1492 C1494 1.395 . S
C1492 C1495 1.403 . S
H1493 C1499 0.930 . S
C1494 H1480 0.930 . S
C1494 C1492 1.395 . S
C1494 C1497 1.403 . S
C1495 C1492 1.403 . S
C1495 C1496 1.524 . S
C1495 C1499 1.400 . S
C1496 H1481 0.960 . S
C1496 H1482 0.960 . S
C1496 H1483 0.960 . S
C1496 C1495 1.524 . S
C1497 C1494 1.403 . S
C1497 C1498 1.392 . S
C1497 C1501 1.495 . S
C1498 C1497 1.392 . S
C1498 C1499 1.385 . S
C1498 C1500 1.478 . S
C1499 H1493 0.930 . S
C1499 C1495 1.400 . S
C1499 C1498 1.385 . S
C1500 C1498 1.478 . S
C1500 C1502 1.381 . S
C1500 C1506 1.383 . S
C1501 C1497 1.495 . S
C1501 H1507 0.959 . S
C1501 H1508 0.961 . S
C1501 H1509 0.960 . S
C1502 C1500 1.381 . S
C1502 C1503 1.394 . S
C1502 H1510 0.930 . S
C1503 C1502 1.394 . S
C1503 C1504 1.383 . S
C1503 H1511 0.929 . S
C1504 C1503 1.383 . S
C1504 C1505 1.377 . S
C1505 H1489 0.930 1_556 S
C1505 C1504 1.377 . S
C1505 C1506 1.379 . S
C1506 H1490 0.931 . S
C1506 C1500 1.383 . S
C1506 C1505 1.379 . S
H1507 C1501 0.959 . S
H1508 C1501 0.961 . S
H1509 C1501 0.960 . S
H1510 C1502 0.930 . S
H1511 C1503 0.929 . S
H1512 C1520 0.929 . S
H1513 C1522 0.930 . S
H1514 C1524 0.930 . S
H1515 C1527 0.929 . S
H1516 C1530 0.930 . S
H1517 C1532 0.960 . S
H1518 C1532 0.960 . S
H1519 C1532 0.960 . S
C1520 H1512 0.929 . S
C1520 C1521 1.377 . S
C1520 C1522 1.384 . S
C1521 C1520 1.377 . S
C1521 C1527 1.390 . S
C1522 H1513 0.930 . S
C1522 C1520 1.384 . S
C1522 C1523 1.372 . S
C1523 C1522 1.372 . S
C1523 C1524 1.400 . S
C1523 C1528 1.490 . S
C1524 H1514 0.930 . S
C1524 C1523 1.400 . S
C1524 C1527 1.386 . S
H1525 C1541 0.930 . S
H1526 C1542 0.931 . S
C1527 H1515 0.929 . S
C1527 C1521 1.390 . S
C1527 C1524 1.386 . S
C1528 C1523 1.490 . S
C1528 C1530 1.395 . S
C1528 C1531 1.403 . S
H1529 C1535 0.930 . S
C1530 H1516 0.930 . S
C1530 C1528 1.395 . S
C1530 C1533 1.403 . S
C1531 C1528 1.403 . S
C1531 C1532 1.524 . S
C1531 C1535 1.400 . S
C1532 H1517 0.960 . S
C1532 H1518 0.960 . S
C1532 H1519 0.960 . S
C1532 C1531 1.524 . S
C1533 C1530 1.403 . S
C1533 C1534 1.392 . S
C1533 C1537 1.495 . S
C1534 C1533 1.392 . S
C1534 C1535 1.385 . S
C1534 C1536 1.478 . S
C1535 H1529 0.930 . S
C1535 C1531 1.400 . S
C1535 C1534 1.385 . S
C1536 C1534 1.478 . S
C1536 C1538 1.381 . S
C1536 C1542 1.383 . S
C1537 C1533 1.495 . S
C1537 H1543 0.959 . S
C1537 H1544 0.961 . S
C1537 H1545 0.960 . S
C1538 C1536 1.381 . S
C1538 C1539 1.394 . S
C1538 H1546 0.930 . S
C1539 C1538 1.394 . S
C1539 C1540 1.383 . S
C1539 H1547 0.929 . S
C1540 C1539 1.383 . S
C1540 C1541 1.377 . S
C1541 H1525 0.930 . S
C1541 C1540 1.377 . S
C1541 C1542 1.379 . S
C1542 H1526 0.931 . S
C1542 C1536 1.383 . S
C1542 C1541 1.379 . S
H1543 C1537 0.959 . S
H1544 C1537 0.961 . S
H1545 C1537 0.960 . S
H1546 C1538 0.930 . S
H1547 C1539 0.929 . S
H1548 C1556 0.929 . S
H1549 C1558 0.930 . S
H1550 C1560 0.930 . S
H1551 C1563 0.929 . S
H1552 C1566 0.930 . S
H1553 C1568 0.960 . S
H1554 C1568 0.960 . S
H1555 C1568 0.960 . S
C1556 H1548 0.929 . S
C1556 C1557 1.377 . S
C1556 C1558 1.384 . S
C1557 C1556 1.377 . S
C1557 C1563 1.390 . S
C1558 H1549 0.930 . S
C1558 C1556 1.384 . S
C1558 C1559 1.372 . S
C1559 C1558 1.372 . S
C1559 C1560 1.400 . S
C1559 C1564 1.490 . S
C1560 H1550 0.930 . S
C1560 C1559 1.400 . S
C1560 C1563 1.386 . S
H1561 C1577 0.930 . S
H1562 C1578 0.931 . S
C1563 H1551 0.929 . S
C1563 C1557 1.390 . S
C1563 C1560 1.386 . S
C1564 C1559 1.490 . S
C1564 C1566 1.395 . S
C1564 C1567 1.403 . S
H1565 C1571 0.930 . S
C1566 H1552 0.930 . S
C1566 C1564 1.395 . S
C1566 C1569 1.403 . S
C1567 C1564 1.403 . S
C1567 C1568 1.524 . S
C1567 C1571 1.400 . S
C1568 H1553 0.960 . S
C1568 H1554 0.960 . S
C1568 H1555 0.960 . S
C1568 C1567 1.524 . S
C1569 C1566 1.403 . S
C1569 C1570 1.392 . S
C1569 C1573 1.495 . S
C1570 C1569 1.392 . S
C1570 C1571 1.385 . S
C1570 C1572 1.478 . S
C1571 H1565 0.930 . S
C1571 C1567 1.400 . S
C1571 C1570 1.385 . S
C1572 C1570 1.478 . S
C1572 C1574 1.381 . S
C1572 C1578 1.383 . S
C1573 C1569 1.495 . S
C1573 H1579 0.959 . S
C1573 H1580 0.961 . S
C1573 H1581 0.960 . S
C1574 C1572 1.381 . S
C1574 C1575 1.394 . S
C1574 H1582 0.930 . S
C1575 C1574 1.394 . S
C1575 C1576 1.383 . S
C1575 H1583 0.929 . S
C1576 C1575 1.383 . S
C1576 C1577 1.377 . S
C1577 H1561 0.930 . S
C1577 C1576 1.377 . S
C1577 C1578 1.379 . S
C1578 H1562 0.931 . S
C1578 C1572 1.383 . S
C1578 C1577 1.379 . S
H1579 C1573 0.959 . S
H1580 C1573 0.961 . S
H1581 C1573 0.960 . S
H1582 C1574 0.930 . S
H1583 C1575 0.929 . S
H1584 C1592 0.929 1_556 S
H1585 C1594 0.930 . S
H1586 C1596 0.930 . S
H1587 C1599 0.929 . S
H1588 C1602 0.930 . S
H1589 C1604 0.960 . S
H1590 C1604 0.960 . S
H1591 C1604 0.960 . S
C1592 H1584 0.929 1_554 S
C1592 C1593 1.377 . S
C1592 C1594 1.384 . S
C1593 C1592 1.377 . S
C1593 C1599 1.390 . S
C1594 H1585 0.930 . S
C1594 C1592 1.384 . S
C1594 C1595 1.372 . S
C1595 C1594 1.372 . S
C1595 C1596 1.400 . S
C1595 C1600 1.490 . S
C1596 H1586 0.930 . S
C1596 C1595 1.400 . S
C1596 C1599 1.386 . S
H1597 C1613 0.930 . S
H1598 C1614 0.931 . S
C1599 H1587 0.929 . S
C1599 C1593 1.390 . S
C1599 C1596 1.386 . S
C1600 C1595 1.490 . S
C1600 C1602 1.395 . S
C1600 C1603 1.403 . S
H1601 C1607 0.930 . S
C1602 H1588 0.930 . S
C1602 C1600 1.395 . S
C1602 C1605 1.403 . S
C1603 C1600 1.403 . S
C1603 C1604 1.524 . S
C1603 C1607 1.400 . S
C1604 H1589 0.960 . S
C1604 H1590 0.960 . S
C1604 H1591 0.960 . S
C1604 C1603 1.524 . S
C1605 C1602 1.403 . S
C1605 C1606 1.392 . S
C1605 C1609 1.495 . S
C1606 C1605 1.392 . S
C1606 C1607 1.385 . S
C1606 C1608 1.478 . S
C1607 H1601 0.930 . S
C1607 C1603 1.400 . S
C1607 C1606 1.385 . S
C1608 C1606 1.478 . S
C1608 C1610 1.381 . S
C1608 C1614 1.383 . S
C1609 C1605 1.495 . S
C1609 H1615 0.959 . S
C1609 H1616 0.961 . S
C1609 H1617 0.960 . S
C1610 C1608 1.381 . S
C1610 C1611 1.394 . S
C1610 H1618 0.930 . S
C1611 C1610 1.394 . S
C1611 C1612 1.383 . S
C1611 H1619 0.929 . S
C1612 C1611 1.383 . S
C1612 C1613 1.377 . S
C1613 H1597 0.930 . S
C1613 C1612 1.377 . S
C1613 C1614 1.379 . S
C1614 H1598 0.931 . S
C1614 C1608 1.383 . S
C1614 C1613 1.379 . S
H1615 C1609 0.959 . S
H1616 C1609 0.961 . S
H1617 C1609 0.960 . S
H1618 C1610 0.930 . S
H1619 C1611 0.929 . S
H1620 C1628 0.929 . S
H1621 C1630 0.930 . S
H1622 C1632 0.930 . S
H1623 C1635 0.929 . S
H1624 C1638 0.930 . S
H1625 C1640 0.960 . S
H1626 C1640 0.960 . S
H1627 C1640 0.960 . S
C1628 H1620 0.929 . S
C1628 C1629 1.377 . S
C1628 C1630 1.384 . S
C1629 C1628 1.377 . S
C1629 C1635 1.390 . S
C1630 H1621 0.930 . S
C1630 C1628 1.384 . S
C1630 C1631 1.372 . S
C1631 C1630 1.372 . S
C1631 C1632 1.400 . S
C1631 C1636 1.490 . S
C1632 H1622 0.930 . S
C1632 C1631 1.400 . S
C1632 C1635 1.386 . S
H1633 C1649 0.930 . S
H1634 C1650 0.931 . S
C1635 H1623 0.929 . S
C1635 C1629 1.390 . S
C1635 C1632 1.386 . S
C1636 C1631 1.490 . S
C1636 C1638 1.395 . S
C1636 C1639 1.403 . S
H1637 C1643 0.930 . S
C1638 H1624 0.930 . S
C1638 C1636 1.395 . S
C1638 C1641 1.403 . S
C1639 C1636 1.403 . S
C1639 C1640 1.524 . S
C1639 C1643 1.400 . S
C1640 H1625 0.960 . S
C1640 H1626 0.960 . S
C1640 H1627 0.960 . S
C1640 C1639 1.524 . S
C1641 C1638 1.403 . S
C1641 C1642 1.392 . S
C1641 C1645 1.495 . S
C1642 C1641 1.392 . S
C1642 C1643 1.385 . S
C1642 C1644 1.478 . S
C1643 H1637 0.930 . S
C1643 C1639 1.400 . S
C1643 C1642 1.385 . S
C1644 C1642 1.478 . S
C1644 C1646 1.381 . S
C1644 C1650 1.383 . S
C1645 C1641 1.495 . S
C1645 H1651 0.959 . S
C1645 H1652 0.961 . S
C1645 H1653 0.960 . S
C1646 C1644 1.381 . S
C1646 C1647 1.394 . S
C1646 H1654 0.930 . S
C1647 C1646 1.394 . S
C1647 C1648 1.383 . S
C1647 H1655 0.929 . S
C1648 C1647 1.383 . S
C1648 C1649 1.377 . S
C1649 H1633 0.930 . S
C1649 C1648 1.377 . S
C1649 C1650 1.379 . S
C1650 H1634 0.931 . S
C1650 C1644 1.383 . S
C1650 C1649 1.379 . S
H1651 C1645 0.959 . S
H1652 C1645 0.961 . S
H1653 C1645 0.960 . S
H1654 C1646 0.930 . S
H1655 C1647 0.929 . S
H1656 C1664 0.929 . S
H1657 C1666 0.930 . S
H1658 C1668 0.930 . S
H1659 C1671 0.929 . S
H1660 C1674 0.930 . S
H1661 C1676 0.960 . S
H1662 C1676 0.960 . S
H1663 C1676 0.960 . S
C1664 H1656 0.929 . S
C1664 C1665 1.377 . S
C1664 C1666 1.384 . S
C1665 C1664 1.377 . S
C1665 C1671 1.390 . S
C1666 H1657 0.930 . S
C1666 C1664 1.384 . S
C1666 C1667 1.372 . S
C1667 C1666 1.372 . S
C1667 C1668 1.400 . S
C1667 C1672 1.490 . S
C1668 H1658 0.930 . S
C1668 C1667 1.400 . S
C1668 C1671 1.386 . S
H1669 C1685 0.930 . S
H1670 C1686 0.931 . S
C1671 H1659 0.929 . S
C1671 C1665 1.390 . S
C1671 C1668 1.386 . S
C1672 C1667 1.490 . S
C1672 C1674 1.395 . S
C1672 C1675 1.403 . S
H1673 C1679 0.930 . S
C1674 H1660 0.930 . S
C1674 C1672 1.395 . S
C1674 C1677 1.403 . S
C1675 C1672 1.403 . S
C1675 C1676 1.524 . S
C1675 C1679 1.400 . S
C1676 H1661 0.960 . S
C1676 H1662 0.960 . S
C1676 H1663 0.960 . S
C1676 C1675 1.524 . S
C1677 C1674 1.403 . S
C1677 C1678 1.392 . S
C1677 C1681 1.495 . S
C1678 C1677 1.392 . S
C1678 C1679 1.385 . S
C1678 C1680 1.478 . S
C1679 H1673 0.930 . S
C1679 C1675 1.400 . S
C1679 C1678 1.385 . S
C1680 C1678 1.478 . S
C1680 C1682 1.381 . S
C1680 C1686 1.383 . S
C1681 C1677 1.495 . S
C1681 H1687 0.959 . S
C1681 H1688 0.961 . S
C1681 H1689 0.960 . S
C1682 C1680 1.381 . S
C1682 C1683 1.394 . S
C1682 H1690 0.930 . S
C1683 C1682 1.394 . S
C1683 C1684 1.383 . S
C1683 H1691 0.929 . S
C1684 C1683 1.383 . S
C1684 C1685 1.377 . S
C1685 H1669 0.930 . S
C1685 C1684 1.377 . S
C1685 C1686 1.379 . S
C1686 H1670 0.931 . S
C1686 C1680 1.383 . S
C1686 C1685 1.379 . S
H1687 C1681 0.959 . S
H1688 C1681 0.961 . S
H1689 C1681 0.960 . S
H1690 C1682 0.930 . S
H1691 C1683 0.929 . S
H1692 C1700 0.929 . S
H1693 C1702 0.930 . S
H1694 C1704 0.930 . S
H1695 C1707 0.929 . S
H1696 C1710 0.930 . S
H1697 C1712 0.960 . S
H1698 C1712 0.960 . S
H1699 C1712 0.960 . S
C1700 H1692 0.929 . S
C1700 C1701 1.377 . S
C1700 C1702 1.384 . S
C1701 C1700 1.377 . S
C1701 C1707 1.390 . S
C1702 H1693 0.930 . S
C1702 C1700 1.384 . S
C1702 C1703 1.372 . S
C1703 C1702 1.372 . S
C1703 C1704 1.400 . S
C1703 C1708 1.490 . S
C1704 H1694 0.930 . S
C1704 C1703 1.400 . S
C1704 C1707 1.386 . S
H1705 C1721 0.930 . S
H1706 C1722 0.931 . S
C1707 H1695 0.929 . S
C1707 C1701 1.390 . S
C1707 C1704 1.386 . S
C1708 C1703 1.490 . S
C1708 C1710 1.395 . S
C1708 C1711 1.403 . S
H1709 C1715 0.930 . S
C1710 H1696 0.930 . S
C1710 C1708 1.395 . S
C1710 C1713 1.403 1_545 S
C1711 C1708 1.403 . S
C1711 C1712 1.524 . S
C1711 C1715 1.400 1_545 S
C1712 H1697 0.960 . S
C1712 H1698 0.960 . S
C1712 H1699 0.960 . S
C1712 C1711 1.524 . S
C1713 C1710 1.403 1_565 S
C1713 C1714 1.392 . S
C1713 C1717 1.495 . S
C1714 C1713 1.392 . S
C1714 C1715 1.385 . S
C1714 C1716 1.478 . S
C1715 H1709 0.930 . S
C1715 C1711 1.400 1_565 S
C1715 C1714 1.385 . S
C1716 C1714 1.478 . S
C1716 C1718 1.381 . S
C1716 C1722 1.383 . S
C1717 C1713 1.495 . S
C1717 H1723 0.959 . S
C1717 H1724 0.961 . S
C1717 H1725 0.960 . S
C1718 C1716 1.381 . S
C1718 C1719 1.394 . S
C1718 H1726 0.930 . S
C1719 C1718 1.394 . S
C1719 C1720 1.383 . S
C1719 H1727 0.929 . S
C1720 C1719 1.383 . S
C1720 C1721 1.377 . S
C1721 H1705 0.930 . S
C1721 C1720 1.377 . S
C1721 C1722 1.379 . S
C1722 H1706 0.931 . S
C1722 C1716 1.383 . S
C1722 C1721 1.379 . S
H1723 C1717 0.959 . S
H1724 C1717 0.961 . S
H1725 C1717 0.960 . S
H1726 C1718 0.930 . S
H1727 C1719 0.929 . S
H1728 C1736 0.929 . S
H1729 C1738 0.930 . S
H1730 C1740 0.930 . S
H1731 C1743 0.929 . S
H1732 C1746 0.930 . S
H1733 C1748 0.960 . S
H1734 C1748 0.960 . S
H1735 C1748 0.960 . S
C1736 H1728 0.929 . S
C1736 C1737 1.377 . S
C1736 C1738 1.384 . S
C1737 C1736 1.377 . S
C1737 C1743 1.390 . S
C1738 H1729 0.930 . S
C1738 C1736 1.384 . S
C1738 C1739 1.372 . S
C1739 C1738 1.372 . S
C1739 C1740 1.400 . S
C1739 C1744 1.490 . S
C1740 H1730 0.930 . S
C1740 C1739 1.400 . S
C1740 C1743 1.386 . S
H1741 C1757 0.930 . S
H1742 C1758 0.931 . S
C1743 H1731 0.929 . S
C1743 C1737 1.390 . S
C1743 C1740 1.386 . S
C1744 C1739 1.490 . S
C1744 C1746 1.395 . S
C1744 C1747 1.403 . S
H1745 C1751 0.930 . S
C1746 H1732 0.930 . S
C1746 C1744 1.395 . S
C1746 C1749 1.403 1_455 S
C1747 C1744 1.403 . S
C1747 C1748 1.524 . S
C1747 C1751 1.400 1_455 S
C1748 H1733 0.960 . S
C1748 H1734 0.960 . S
C1748 H1735 0.960 . S
C1748 C1747 1.524 . S
C1749 C1746 1.403 1_655 S
C1749 C1750 1.392 . S
C1749 C1753 1.495 . S
C1750 C1749 1.392 . S
C1750 C1751 1.385 . S
C1750 C1752 1.478 . S
C1751 H1745 0.930 . S
C1751 C1747 1.400 1_655 S
C1751 C1750 1.385 . S
C1752 C1750 1.478 . S
C1752 C1754 1.381 . S
C1752 C1758 1.383 . S
C1753 C1749 1.495 . S
C1753 H1759 0.959 . S
C1753 H1760 0.961 . S
C1753 H1761 0.960 . S
C1754 C1752 1.381 . S
C1754 C1755 1.394 . S
C1754 H1762 0.930 . S
C1755 C1754 1.394 . S
C1755 C1756 1.383 . S
C1755 H1763 0.929 . S
C1756 C1755 1.383 . S
C1756 C1757 1.377 . S
C1757 H1741 0.930 . S
C1757 C1756 1.377 . S
C1757 C1758 1.379 . S
C1758 H1742 0.931 . S
C1758 C1752 1.383 . S
C1758 C1757 1.379 . S
H1759 C1753 0.959 . S
H1760 C1753 0.961 . S
H1761 C1753 0.960 . S
H1762 C1754 0.930 . S
H1763 C1755 0.929 . S
H1764 C1772 0.929 . S
H1765 C1774 0.930 . S
H1766 C1776 0.930 . S
H1767 C1779 0.929 . S
H1768 C1782 0.930 . S
H1769 C1784 0.960 . S
H1770 C1784 0.960 . S
H1771 C1784 0.960 . S
C1772 H1764 0.929 . S
C1772 C1773 1.377 . S
C1772 C1774 1.384 . S
C1773 C1772 1.377 . S
C1773 C1779 1.390 . S
C1774 H1765 0.930 . S
C1774 C1772 1.384 . S
C1774 C1775 1.372 . S
C1775 C1774 1.372 . S
C1775 C1776 1.400 . S
C1775 C1780 1.490 . S
C1776 H1766 0.930 . S
C1776 C1775 1.400 . S
C1776 C1779 1.386 . S
H1777 C1793 0.930 . S
H1778 C1794 0.931 . S
C1779 H1767 0.929 . S
C1779 C1773 1.390 . S
C1779 C1776 1.386 . S
C1780 C1775 1.490 . S
C1780 C1782 1.395 . S
C1780 C1783 1.403 . S
H1781 C1787 0.930 . S
C1782 H1768 0.930 . S
C1782 C1780 1.395 . S
C1782 C1785 1.403 . S
C1783 C1780 1.403 . S
C1783 C1784 1.524 . S
C1783 C1787 1.400 . S
C1784 H1769 0.960 . S
C1784 H1770 0.960 . S
C1784 H1771 0.960 . S
C1784 C1783 1.524 . S
C1785 C1782 1.403 . S
C1785 C1786 1.392 . S
C1785 C1789 1.495 . S
C1786 C1785 1.392 . S
C1786 C1787 1.385 . S
C1786 C1788 1.478 . S
C1787 H1781 0.930 . S
C1787 C1783 1.400 . S
C1787 C1786 1.385 . S
C1788 C1786 1.478 . S
C1788 C1790 1.381 . S
C1788 C1794 1.383 . S
C1789 C1785 1.495 . S
C1789 H1795 0.959 . S
C1789 H1796 0.961 . S
C1789 H1797 0.960 . S
C1790 C1788 1.381 . S
C1790 C1791 1.394 . S
C1790 H1798 0.930 . S
C1791 C1790 1.394 . S
C1791 C1792 1.383 . S
C1791 H1799 0.929 . S
C1792 C1791 1.383 . S
C1792 C1793 1.377 . S
C1793 H1777 0.930 . S
C1793 C1792 1.377 . S
C1793 C1794 1.379 . S
C1794 H1778 0.931 . S
C1794 C1788 1.383 . S
C1794 C1793 1.379 . S
H1795 C1789 0.959 . S
H1796 C1789 0.961 . S
H1797 C1789 0.960 . S
H1798 C1790 0.930 . S
H1799 C1791 0.929 . S
H1800 C1808 0.929 . S
H1801 C1810 0.930 . S
H1802 C1812 0.930 . S
H1803 C1815 0.929 . S
H1804 C1818 0.930 . S
H1805 C1820 0.960 . S
H1806 C1820 0.960 . S
H1807 C1820 0.960 . S
C1808 H1800 0.929 . S
C1808 C1809 1.377 . S
C1808 C1810 1.384 . S
C1809 C1808 1.377 . S
C1809 C1815 1.390 . S
C1810 H1801 0.930 . S
C1810 C1808 1.384 . S
C1810 C1811 1.372 . S
C1811 C1810 1.372 . S
C1811 C1812 1.400 . S
C1811 C1816 1.490 . S
C1812 H1802 0.930 . S
C1812 C1811 1.400 . S
C1812 C1815 1.386 . S
H1813 C1829 0.930 . S
H1814 C1830 0.931 . S
C1815 H1803 0.929 . S
C1815 C1809 1.390 . S
C1815 C1812 1.386 . S
C1816 C1811 1.490 . S
C1816 C1818 1.395 . S
C1816 C1819 1.403 . S
H1817 C1823 0.930 . S
C1818 H1804 0.930 . S
C1818 C1816 1.395 . S
C1818 C1821 1.403 1_565 S
C1819 C1816 1.403 . S
C1819 C1820 1.524 . S
C1819 C1823 1.400 1_565 S
C1820 H1805 0.960 . S
C1820 H1806 0.960 . S
C1820 H1807 0.960 . S
C1820 C1819 1.524 . S
C1821 C1818 1.403 1_545 S
C1821 C1822 1.392 . S
C1821 C1825 1.495 . S
C1822 C1821 1.392 . S
C1822 C1823 1.385 . S
C1822 C1824 1.478 . S
C1823 H1817 0.930 . S
C1823 C1819 1.400 1_545 S
C1823 C1822 1.385 . S
C1824 C1822 1.478 . S
C1824 C1826 1.381 . S
C1824 C1830 1.383 . S
C1825 C1821 1.495 . S
C1825 H1831 0.959 . S
C1825 H1832 0.961 . S
C1825 H1833 0.960 . S
C1826 C1824 1.381 . S
C1826 C1827 1.394 . S
C1826 H1834 0.930 . S
C1827 C1826 1.394 . S
C1827 C1828 1.383 . S
C1827 H1835 0.929 . S
C1828 C1827 1.383 . S
C1828 C1829 1.377 . S
C1829 H1813 0.930 . S
C1829 C1828 1.377 . S
C1829 C1830 1.379 . S
C1830 H1814 0.931 . S
C1830 C1824 1.383 . S
C1830 C1829 1.379 . S
H1831 C1825 0.959 . S
H1832 C1825 0.961 . S
H1833 C1825 0.960 . S
H1834 C1826 0.930 . S
H1835 C1827 0.929 . S
H1836 C1844 0.929 . S
H1837 C1846 0.930 . S
H1838 C1848 0.930 . S
H1839 C1851 0.929 . S
H1840 C1854 0.930 . S
H1841 C1856 0.960 1_455 S
H1842 C1856 0.960 . S
H1843 C1856 0.960 . S
C1844 H1836 0.929 . S
C1844 C1845 1.377 . S
C1844 C1846 1.384 . S
C1845 C1844 1.377 . S
C1845 C1851 1.390 . S
C1846 H1837 0.930 . S
C1846 C1844 1.384 . S
C1846 C1847 1.372 . S
C1847 C1846 1.372 . S
C1847 C1848 1.400 . S
C1847 C1852 1.490 . S
C1848 H1838 0.930 . S
C1848 C1847 1.400 . S
C1848 C1851 1.386 . S
H1849 C1865 0.930 . S
H1850 C1866 0.931 . S
C1851 H1839 0.929 . S
C1851 C1845 1.390 . S
C1851 C1848 1.386 . S
C1852 C1847 1.490 . S
C1852 C1854 1.395 . S
C1852 C1855 1.403 . S
H1853 C1859 0.930 . S
C1854 H1840 0.930 . S
C1854 C1852 1.395 . S
C1854 C1857 1.403 1_655 S
C1855 C1852 1.403 . S
C1855 C1856 1.524 . S
C1855 C1859 1.400 1_655 S
C1856 H1841 0.960 1_655 S
C1856 H1842 0.960 . S
C1856 H1843 0.960 . S
C1856 C1855 1.524 . S
C1857 C1854 1.403 1_455 S
C1857 C1858 1.392 . S
C1857 C1861 1.495 . S
C1858 C1857 1.392 . S
C1858 C1859 1.385 . S
C1858 C1860 1.478 . S
C1859 H1853 0.930 . S
C1859 C1855 1.400 1_455 S
C1859 C1858 1.385 . S
C1860 C1858 1.478 . S
C1860 C1862 1.381 . S
C1860 C1866 1.383 . S
C1861 C1857 1.495 . S
C1861 H1867 0.959 1_455 S
C1861 H1868 0.961 . S
C1861 H1869 0.960 . S
C1862 C1860 1.381 . S
C1862 C1863 1.394 . S
C1862 H1870 0.930 . S
C1863 C1862 1.394 . S
C1863 C1864 1.383 . S
C1863 H1871 0.929 . S
C1864 C1863 1.383 . S
C1864 C1865 1.377 . S
C1865 H1849 0.930 . S
C1865 C1864 1.377 . S
C1865 C1866 1.379 . S
C1866 H1850 0.931 . S
C1866 C1860 1.383 . S
C1866 C1865 1.379 . S
H1867 C1861 0.959 1_655 S
H1868 C1861 0.961 . S
H1869 C1861 0.960 . S
H1870 C1862 0.930 . S
H1871 C1863 0.929 . S
H1872 C1880 0.929 . S
H1873 C1882 0.930 . S
H1874 C1884 0.930 . S
H1875 C1887 0.929 . S
H1876 C1890 0.930 . S
H1877 C1892 0.960 . S
H1878 C1892 0.960 . S
H1879 C1892 0.960 . S
C1880 H1872 0.929 . S
C1880 C1881 1.377 . S
C1880 C1882 1.384 . S
C1881 C1880 1.377 . S
C1881 C1887 1.390 . S
C1882 H1873 0.930 . S
C1882 C1880 1.384 . S
C1882 C1883 1.372 . S
C1883 C1882 1.372 . S
C1883 C1884 1.400 . S
C1883 C1888 1.490 . S
C1884 H1874 0.930 . S
C1884 C1883 1.400 . S
C1884 C1887 1.386 . S
H1885 C1901 0.930 . S
H1886 C1902 0.931 . S
C1887 H1875 0.929 . S
C1887 C1881 1.390 . S
C1887 C1884 1.386 . S
C1888 C1883 1.490 . S
C1888 C1890 1.395 . S
C1888 C1891 1.403 1_554 S
H1889 C1895 0.930 . S
C1890 H1876 0.930 . S
C1890 C1888 1.395 . S
C1890 C1893 1.403 . S
C1891 C1888 1.403 1_556 S
C1891 C1892 1.524 . S
C1891 C1895 1.400 . S
C1892 H1877 0.960 . S
C1892 H1878 0.960 . S
C1892 H1879 0.960 . S
C1892 C1891 1.524 . S
C1893 C1890 1.403 . S
C1893 C1894 1.392 . S
C1893 C1897 1.495 . S
C1894 C1893 1.392 . S
C1894 C1895 1.385 1_554 S
C1894 C1896 1.478 . S
C1895 H1889 0.930 . S
C1895 C1891 1.400 . S
C1895 C1894 1.385 1_556 S
C1896 C1894 1.478 . S
C1896 C1898 1.381 . S
C1896 C1902 1.383 . S
C1897 C1893 1.495 . S
C1897 H1903 0.959 . S
C1897 H1904 0.961 . S
C1897 H1905 0.960 . S
C1898 C1896 1.381 . S
C1898 C1899 1.394 . S
C1898 H1906 0.930 . S
C1899 C1898 1.394 . S
C1899 C1900 1.383 . S
C1899 H1907 0.929 . S
C1900 C1899 1.383 . S
C1900 C1901 1.377 . S
C1901 H1885 0.930 . S
C1901 C1900 1.377 . S
C1901 C1902 1.379 . S
C1902 H1886 0.931 . S
C1902 C1896 1.383 . S
C1902 C1901 1.379 . S
H1903 C1897 0.959 . S
H1904 C1897 0.961 . S
H1905 C1897 0.960 . S
H1906 C1898 0.930 . S
H1907 C1899 0.929 . S
H1908 C1916 0.929 . S
H1909 C1918 0.930 . S
H1910 C1920 0.930 . S
H1911 C1923 0.929 . S
H1912 C1926 0.930 1_556 S
H1913 C1928 0.960 . S
H1914 C1928 0.960 . S
H1915 C1928 0.960 . S
C1916 H1908 0.929 . S
C1916 C1917 1.377 1_556 S
C1916 C1918 1.384 . S
C1917 C1916 1.377 1_554 S
C1917 C1923 1.390 . S
C1918 H1909 0.930 . S
C1918 C1916 1.384 . S
C1918 C1919 1.372 1_556 S
C1919 C1918 1.372 1_554 S
C1919 C1920 1.400 . S
C1919 C1924 1.490 . S
C1920 H1910 0.930 . S
C1920 C1919 1.400 . S
C1920 C1923 1.386 . S
H1921 C1937 0.930 . S
H1922 C1938 0.931 . S
C1923 H1911 0.929 . S
C1923 C1917 1.390 . S
C1923 C1920 1.386 . S
C1924 C1919 1.490 . S
C1924 C1926 1.395 . S
C1924 C1927 1.403 . S
H1925 C1931 0.930 . S
C1926 H1912 0.930 1_554 S
C1926 C1924 1.395 . S
C1926 C1929 1.403 . S
C1927 C1924 1.403 . S
C1927 C1928 1.524 . S
C1927 C1931 1.400 . S
C1928 H1913 0.960 . S
C1928 H1914 0.960 . S
C1928 H1915 0.960 . S
C1928 C1927 1.524 . S
C1929 C1926 1.403 . S
C1929 C1930 1.392 . S
C1929 C1933 1.495 1_554 S
C1930 C1929 1.392 . S
C1930 C1931 1.385 . S
C1930 C1932 1.478 . S
C1931 H1925 0.930 . S
C1931 C1927 1.400 . S
C1931 C1930 1.385 . S
C1932 C1930 1.478 . S
C1932 C1934 1.381 1_554 S
C1932 C1938 1.383 . S
C1933 C1929 1.495 1_556 S
C1933 H1939 0.959 . S
C1933 H1940 0.961 1_556 S
C1933 H1941 0.960 . S
C1934 C1932 1.381 1_556 S
C1934 C1935 1.394 . S
C1934 H1942 0.930 . S
C1935 C1934 1.394 . S
C1935 C1936 1.383 1_556 S
C1935 H1943 0.929 . S
C1936 C1935 1.383 1_554 S
C1936 C1937 1.377 . S
C1937 H1921 0.930 . S
C1937 C1936 1.377 . S
C1937 C1938 1.379 . S
C1938 H1922 0.931 . S
C1938 C1932 1.383 . S
C1938 C1937 1.379 . S
H1939 C1933 0.959 . S
H1940 C1933 0.961 1_554 S
H1941 C1933 0.960 . S
H1942 C1934 0.930 . S
H1943 C1935 0.929 . S
H1944 C1952 0.929 . S
H1945 C1954 0.930 . S
H1946 C1956 0.930 . S
H1947 C1959 0.929 . S
H1948 C1962 0.930 . S
H1949 C1964 0.960 . S
H1950 C1964 0.960 . S
H1951 C1964 0.960 . S
C1952 H1944 0.929 . S
C1952 C1953 1.377 . S
C1952 C1954 1.384 . S
C1953 C1952 1.377 . S
C1953 C1959 1.390 1_554 S
C1954 H1945 0.930 . S
C1954 C1952 1.384 . S
C1954 C1955 1.372 . S
C1955 C1954 1.372 . S
C1955 C1956 1.400 1_554 S
C1955 C1960 1.490 . S
C1956 H1946 0.930 . S
C1956 C1955 1.400 1_556 S
C1956 C1959 1.386 . S
H1957 C1973 0.930 . S
H1958 C1974 0.931 . S
C1959 H1947 0.929 . S
C1959 C1953 1.390 1_556 S
C1959 C1956 1.386 . S
C1960 C1955 1.490 . S
C1960 C1962 1.395 . S
C1960 C1963 1.403 . S
H1961 C1967 0.930 . S
C1962 H1948 0.930 . S
C1962 C1960 1.395 . S
C1962 C1965 1.403 . S
C1963 C1960 1.403 . S
C1963 C1964 1.524 . S
C1963 C1967 1.400 . S
C1964 H1949 0.960 . S
C1964 H1950 0.960 . S
C1964 H1951 0.960 . S
C1964 C1963 1.524 . S
C1965 C1962 1.403 . S
C1965 C1966 1.392 . S
C1965 C1969 1.495 . S
C1966 C1965 1.392 . S
C1966 C1967 1.385 . S
C1966 C1968 1.478 . S
C1967 H1961 0.930 . S
C1967 C1963 1.400 . S
C1967 C1966 1.385 . S
C1968 C1966 1.478 . S
C1968 C1970 1.381 . S
C1968 C1974 1.383 1_554 S
C1969 C1965 1.495 . S
C1969 H1975 0.959 . S
C1969 H1976 0.961 1_554 S
C1969 H1977 0.960 . S
C1970 C1968 1.381 . S
C1970 C1971 1.394 . S
C1970 H1978 0.930 . S
C1971 C1970 1.394 . S
C1971 C1972 1.383 . S
C1971 H1979 0.929 . S
C1972 C1971 1.383 . S
C1972 C1973 1.377 1_554 S
C1973 H1957 0.930 . S
C1973 C1972 1.377 1_556 S
C1973 C1974 1.379 . S
C1974 H1958 0.931 . S
C1974 C1968 1.383 1_556 S
C1974 C1973 1.379 . S
H1975 C1969 0.959 . S
H1976 C1969 0.961 1_556 S
H1977 C1969 0.960 . S
H1978 C1970 0.930 . S
H1979 C1971 0.929 . S
H1980 C1988 0.929 . S
H1981 C1990 0.930 . S
H1982 C1992 0.930 . S
H1983 C1995 0.929 . S
H1984 C1998 0.930 . S
H1985 C2000 0.960 . S
H1986 C2000 0.960 . S
H1987 C2000 0.960 . S
C1988 H1980 0.929 . S
C1988 C1989 1.377 . S
C1988 C1990 1.384 . S
C1989 C1988 1.377 . S
C1989 C1995 1.390 . S
C1990 H1981 0.930 . S
C1990 C1988 1.384 . S
C1990 C1991 1.372 . S
C1991 C1990 1.372 . S
C1991 C1992 1.400 . S
C1991 C1996 1.490 . S
C1992 H1982 0.930 . S
C1992 C1991 1.400 . S
C1992 C1995 1.386 . S
H1993 C2009 0.930 . S
H1994 C2010 0.931 . S
C1995 H1983 0.929 . S
C1995 C1989 1.390 . S
C1995 C1992 1.386 . S
C1996 C1991 1.490 . S
C1996 C1998 1.395 1_556 S
C1996 C1999 1.403 . S
H1997 C2003 0.930 . S
C1998 H1984 0.930 . S
C1998 C1996 1.395 1_554 S
C1998 C2001 1.403 . S
C1999 C1996 1.403 . S
C1999 C2000 1.524 . S
C1999 C2003 1.400 . S
C2000 H1985 0.960 . S
C2000 H1986 0.960 . S
C2000 H1987 0.960 . S
C2000 C1999 1.524 . S
C2001 C1998 1.403 . S
C2001 C2002 1.392 1_554 S
C2001 C2005 1.495 . S
C2002 C2001 1.392 1_556 S
C2002 C2003 1.385 . S
C2002 C2004 1.478 . S
C2003 H1997 0.930 . S
C2003 C1999 1.400 . S
C2003 C2002 1.385 . S
C2004 C2002 1.478 . S
C2004 C2006 1.381 . S
C2004 C2010 1.383 . S
C2005 C2001 1.495 . S
C2005 H2011 0.959 . S
C2005 H2012 0.961 . S
C2005 H2013 0.960 . S
C2006 C2004 1.381 . S
C2006 C2007 1.394 . S
C2006 H2014 0.930 . S
C2007 C2006 1.394 . S
C2007 C2008 1.383 . S
C2007 H2015 0.929 . S
C2008 C2007 1.383 . S
C2008 C2009 1.377 . S
C2009 H1993 0.930 . S
C2009 C2008 1.377 . S
C2009 C2010 1.379 . S
C2010 H1994 0.931 . S
C2010 C2004 1.383 . S
C2010 C2009 1.379 . S
H2011 C2005 0.959 . S
H2012 C2005 0.961 . S
H2013 C2005 0.960 . S
H2014 C2006 0.930 . S
H2015 C2007 0.929 . S
H2016 C2024 0.929 . S
H2017 C2026 0.930 . S
H2018 C2028 0.930 . S
H2019 C2031 0.929 . S
H2020 C2034 0.930 . S
H2021 C2036 0.960 . S
H2022 C2036 0.960 1_554 S
H2023 C2036 0.960 . S
C2024 H2016 0.929 . S
C2024 C2025 1.377 1_554 S
C2024 C2026 1.384 . S
C2025 C2024 1.377 1_556 S
C2025 C2031 1.390 . S
C2026 H2017 0.930 . S
C2026 C2024 1.384 . S
C2026 C2027 1.372 1_554 S
C2027 C2026 1.372 1_556 S
C2027 C2028 1.400 . S
C2027 C2032 1.490 . S
C2028 H2018 0.930 . S
C2028 C2027 1.400 . S
C2028 C2031 1.386 . S
H2029 C2045 0.930 . S
H2030 C2046 0.931 . S
C2031 H2019 0.929 . S
C2031 C2025 1.390 . S
C2031 C2028 1.386 . S
C2032 C2027 1.490 . S
C2032 C2034 1.395 . S
C2032 C2035 1.403 . S
H2033 C2039 0.930 . S
C2034 H2020 0.930 . S
C2034 C2032 1.395 . S
C2034 C2037 1.403 . S
C2035 C2032 1.403 . S
C2035 C2036 1.524 . S
C2035 C2039 1.400 . S
C2036 H2021 0.960 . S
C2036 H2022 0.960 1_556 S
C2036 H2023 0.960 . S
C2036 C2035 1.524 . S
C2037 C2034 1.403 . S
C2037 C2038 1.392 . S
C2037 C2041 1.495 . S
C2038 C2037 1.392 . S
C2038 C2039 1.385 . S
C2038 C2040 1.478 . S
C2039 H2033 0.930 . S
C2039 C2035 1.400 . S
C2039 C2038 1.385 . S
C2040 C2038 1.478 . S
C2040 C2042 1.381 1_556 S
C2040 C2046 1.383 . S
C2041 C2037 1.495 . S
C2041 H2047 0.959 . S
C2041 H2048 0.961 . S
C2041 H2049 0.960 . S
C2042 C2040 1.381 1_554 S
C2042 C2043 1.394 . S
C2042 H2050 0.930 . S
C2043 C2042 1.394 . S
C2043 C2044 1.383 1_554 S
C2043 H2051 0.929 . S
C2044 C2043 1.383 1_556 S
C2044 C2045 1.377 . S
C2045 H2029 0.930 . S
C2045 C2044 1.377 . S
C2045 C2046 1.379 . S
C2046 H2030 0.931 . S
C2046 C2040 1.383 . S
C2046 C2045 1.379 . S
H2047 C2041 0.959 . S
H2048 C2041 0.961 . S
H2049 C2041 0.960 . S
H2050 C2042 0.930 . S
H2051 C2043 0.929 . S
H2052 C2060 0.929 . S
H2053 C2062 0.930 . S
H2054 C2064 0.930 . S
H2055 C2067 0.929 . S
H2056 C2070 0.930 . S
H2057 C2072 0.960 . S
H2058 C2072 0.960 . S
H2059 C2072 0.960 . S
C2060 H2052 0.929 . S
C2060 C2061 1.377 . S
C2060 C2062 1.384 . S
C2061 C2060 1.377 . S
C2061 C2067 1.390 . S
C2062 H2053 0.930 . S
C2062 C2060 1.384 . S
C2062 C2063 1.372 . S
C2063 C2062 1.372 . S
C2063 C2064 1.400 . S
C2063 C2068 1.490 . S
C2064 H2054 0.930 . S
C2064 C2063 1.400 . S
C2064 C2067 1.386 . S
H2065 C2081 0.930 . S
H2066 C2082 0.931 1_554 S
C2067 H2055 0.929 . S
C2067 C2061 1.390 . S
C2067 C2064 1.386 . S
C2068 C2063 1.490 . S
C2068 C2070 1.395 1_556 S
C2068 C2071 1.403 . S
H2069 C2075 0.930 . S
C2070 H2056 0.930 . S
C2070 C2068 1.395 1_554 S
C2070 C2073 1.403 . S
C2071 C2068 1.403 . S
C2071 C2072 1.524 . S
C2071 C2075 1.400 . S
C2072 H2057 0.960 . S
C2072 H2058 0.960 . S
C2072 H2059 0.960 . S
C2072 C2071 1.524 . S
C2073 C2070 1.403 . S
C2073 C2074 1.392 1_554 S
C2073 C2077 1.495 . S
C2074 C2073 1.392 1_556 S
C2074 C2075 1.385 . S
C2074 C2076 1.478 . S
C2075 H2069 0.930 . S
C2075 C2071 1.400 . S
C2075 C2074 1.385 . S
C2076 C2074 1.478 . S
C2076 C2078 1.381 . S
C2076 C2082 1.383 . S
C2077 C2073 1.495 . S
C2077 H2083 0.959 . S
C2077 H2084 0.961 . S
C2077 H2085 0.960 . S
C2078 C2076 1.381 . S
C2078 C2079 1.394 . S
C2078 H2086 0.930 . S
C2079 C2078 1.394 . S
C2079 C2080 1.383 . S
C2079 H2087 0.929 . S
C2080 C2079 1.383 . S
C2080 C2081 1.377 . S
C2081 H2065 0.930 . S
C2081 C2080 1.377 . S
C2081 C2082 1.379 . S
C2082 H2066 0.931 1_556 S
C2082 C2076 1.383 . S
C2082 C2081 1.379 . S
H2083 C2077 0.959 . S
H2084 C2077 0.961 . S
H2085 C2077 0.960 . S
H2086 C2078 0.930 . S
H2087 C2079 0.929 . S
H2088 C2096 0.929 . S
H2089 C2098 0.930 . S
H2090 C2100 0.930 . S
H2091 C2103 0.929 . S
H2092 C2106 0.930 . S
H2093 C2108 0.960 . S
H2094 C2108 0.960 . S
H2095 C2108 0.960 . S
C2096 H2088 0.929 . S
C2096 C2097 1.377 . S
C2096 C2098 1.384 . S
C2097 C2096 1.377 . S
C2097 C2103 1.390 . S
C2098 H2089 0.930 . S
C2098 C2096 1.384 . S
C2098 C2099 1.372 . S
C2099 C2098 1.372 . S
C2099 C2100 1.400 . S
C2099 C2104 1.490 . S
C2100 H2090 0.930 . S
C2100 C2099 1.400 . S
C2100 C2103 1.386 . S
H2101 C2117 0.930 . S
H2102 C2118 0.931 . S
C2103 H2091 0.929 . S
C2103 C2097 1.390 . S
C2103 C2100 1.386 . S
C2104 C2099 1.490 . S
C2104 C2106 1.395 . S
C2104 C2107 1.403 . S
H2105 C2111 0.930 . S
C2106 H2092 0.930 . S
C2106 C2104 1.395 . S
C2106 C2109 1.403 . S
C2107 C2104 1.403 . S
C2107 C2108 1.524 . S
C2107 C2111 1.400 . S
C2108 H2093 0.960 . S
C2108 H2094 0.960 . S
C2108 H2095 0.960 . S
C2108 C2107 1.524 . S
C2109 C2106 1.403 . S
C2109 C2110 1.392 . S
C2109 C2113 1.495 . S
C2110 C2109 1.392 . S
C2110 C2111 1.385 . S
C2110 C2112 1.478 . S
C2111 H2105 0.930 . S
C2111 C2107 1.400 . S
C2111 C2110 1.385 . S
C2112 C2110 1.478 . S
C2112 C2114 1.381 . S
C2112 C2118 1.383 . S
C2113 C2109 1.495 . S
C2113 H2119 0.959 . S
C2113 H2120 0.961 . S
C2113 H2121 0.960 . S
C2114 C2112 1.381 . S
C2114 C2115 1.394 . S
C2114 H2122 0.930 . S
C2115 C2114 1.394 . S
C2115 C2116 1.383 . S
C2115 H2123 0.929 . S
C2116 C2115 1.383 . S
C2116 C2117 1.377 . S
C2117 H2101 0.930 . S
C2117 C2116 1.377 . S
C2117 C2118 1.379 . S
C2118 H2102 0.931 . S
C2118 C2112 1.383 . S
C2118 C2117 1.379 . S
H2119 C2113 0.959 . S
H2120 C2113 0.961 . S
H2121 C2113 0.960 . S
H2122 C2114 0.930 . S
H2123 C2115 0.929 . S
H2124 C2132 0.929 . S
H2125 C2134 0.930 . S
H2126 C2136 0.930 . S
H2127 C2139 0.929 . S
H2128 C2142 0.930 . S
H2129 C2144 0.960 . S
H2130 C2144 0.960 . S
H2131 C2144 0.960 . S
C2132 H2124 0.929 . S
C2132 C2133 1.377 . S
C2132 C2134 1.384 . S
C2133 C2132 1.377 . S
C2133 C2139 1.390 . S
C2134 H2125 0.930 . S
C2134 C2132 1.384 . S
C2134 C2135 1.372 . S
C2135 C2134 1.372 . S
C2135 C2136 1.400 . S
C2135 C2140 1.490 . S
C2136 H2126 0.930 . S
C2136 C2135 1.400 . S
C2136 C2139 1.386 . S
H2137 C2153 0.930 . S
H2138 C2154 0.931 . S
C2139 H2127 0.929 . S
C2139 C2133 1.390 . S
C2139 C2136 1.386 . S
C2140 C2135 1.490 . S
C2140 C2142 1.395 . S
C2140 C2143 1.403 . S
H2141 C2147 0.930 . S
C2142 H2128 0.930 . S
C2142 C2140 1.395 . S
C2142 C2145 1.403 . S
C2143 C2140 1.403 . S
C2143 C2144 1.524 . S
C2143 C2147 1.400 . S
C2144 H2129 0.960 . S
C2144 H2130 0.960 . S
C2144 H2131 0.960 . S
C2144 C2143 1.524 . S
C2145 C2142 1.403 . S
C2145 C2146 1.392 . S
C2145 C2149 1.495 . S
C2146 C2145 1.392 . S
C2146 C2147 1.385 . S
C2146 C2148 1.478 . S
C2147 H2141 0.930 . S
C2147 C2143 1.400 . S
C2147 C2146 1.385 . S
C2148 C2146 1.478 . S
C2148 C2150 1.381 . S
C2148 C2154 1.383 . S
C2149 C2145 1.495 . S
C2149 H2155 0.959 . S
C2149 H2156 0.961 . S
C2149 H2157 0.960 . S
C2150 C2148 1.381 . S
C2150 C2151 1.394 . S
C2150 H2158 0.930 . S
C2151 C2150 1.394 . S
C2151 C2152 1.383 . S
C2151 H2159 0.929 . S
C2152 C2151 1.383 . S
C2152 C2153 1.377 . S
C2153 H2137 0.930 . S
C2153 C2152 1.377 . S
C2153 C2154 1.379 . S
C2154 H2138 0.931 . S
C2154 C2148 1.383 . S
C2154 C2153 1.379 . S
H2155 C2149 0.959 . S
H2156 C2149 0.961 . S
H2157 C2149 0.960 . S
H2158 C2150 0.930 . S
H2159 C2151 0.929 . S
H2160 C2168 0.929 . S
H2161 C2170 0.930 . S
H2162 C2172 0.930 . S
H2163 C2175 0.929 . S
H2164 C2178 0.930 . S
H2165 C2180 0.960 . S
H2166 C2180 0.960 . S
H2167 C2180 0.960 . S
C2168 H2160 0.929 . S
C2168 C2169 1.377 . S
C2168 C2170 1.384 . S
C2169 C2168 1.377 . S
C2169 C2175 1.390 . S
C2170 H2161 0.930 . S
C2170 C2168 1.384 . S
C2170 C2171 1.372 . S
C2171 C2170 1.372 . S
C2171 C2172 1.400 . S
C2171 C2176 1.490 . S
C2172 H2162 0.930 . S
C2172 C2171 1.400 . S
C2172 C2175 1.386 . S
H2173 C2189 0.930 . S
H2174 C2190 0.931 . S
C2175 H2163 0.929 . S
C2175 C2169 1.390 . S
C2175 C2172 1.386 . S
C2176 C2171 1.490 . S
C2176 C2178 1.395 . S
C2176 C2179 1.403 . S
H2177 C2183 0.930 . S
C2178 H2164 0.930 . S
C2178 C2176 1.395 . S
C2178 C2181 1.403 . S
C2179 C2176 1.403 . S
C2179 C2180 1.524 . S
C2179 C2183 1.400 . S
C2180 H2165 0.960 . S
C2180 H2166 0.960 . S
C2180 H2167 0.960 . S
C2180 C2179 1.524 . S
C2181 C2178 1.403 . S
C2181 C2182 1.392 . S
C2181 C2185 1.495 . S
C2182 C2181 1.392 . S
C2182 C2183 1.385 . S
C2182 C2184 1.478 . S
C2183 H2177 0.930 . S
C2183 C2179 1.400 . S
C2183 C2182 1.385 . S
C2184 C2182 1.478 . S
C2184 C2186 1.381 . S
C2184 C2190 1.383 . S
C2185 C2181 1.495 . S
C2185 H2191 0.959 . S
C2185 H2192 0.961 . S
C2185 H2193 0.960 . S
C2186 C2184 1.381 . S
C2186 C2187 1.394 . S
C2186 H2194 0.930 . S
C2187 C2186 1.394 . S
C2187 C2188 1.383 . S
C2187 H2195 0.929 . S
C2188 C2187 1.383 . S
C2188 C2189 1.377 . S
C2189 H2173 0.930 . S
C2189 C2188 1.377 . S
C2189 C2190 1.379 . S
C2190 H2174 0.931 . S
C2190 C2184 1.383 . S
C2190 C2189 1.379 . S
H2191 C2185 0.959 . S
H2192 C2185 0.961 . S
H2193 C2185 0.960 . S
H2194 C2186 0.930 . S
H2195 C2187 0.929 . S
H2196 C2204 0.929 . S
H2197 C2206 0.930 . S
H2198 C2208 0.930 . S
H2199 C2211 0.929 . S
H2200 C2214 0.930 . S
H2201 C2216 0.960 . S
H2202 C2216 0.960 . S
H2203 C2216 0.960 . S
C2204 H2196 0.929 . S
C2204 C2205 1.377 . S
C2204 C2206 1.384 . S
C2205 C2204 1.377 . S
C2205 C2211 1.390 . S
C2206 H2197 0.930 . S
C2206 C2204 1.384 . S
C2206 C2207 1.372 . S
C2207 C2206 1.372 . S
C2207 C2208 1.400 . S
C2207 C2212 1.490 . S
C2208 H2198 0.930 . S
C2208 C2207 1.400 . S
C2208 C2211 1.386 . S
H2209 C2225 0.930 . S
H2210 C2226 0.931 . S
C2211 H2199 0.929 . S
C2211 C2205 1.390 . S
C2211 C2208 1.386 . S
C2212 C2207 1.490 . S
C2212 C2214 1.395 . S
C2212 C2215 1.403 . S
H2213 C2219 0.930 . S
C2214 H2200 0.930 . S
C2214 C2212 1.395 . S
C2214 C2217 1.403 . S
C2215 C2212 1.403 . S
C2215 C2216 1.524 . S
C2215 C2219 1.400 . S
C2216 H2201 0.960 . S
C2216 H2202 0.960 . S
C2216 H2203 0.960 . S
C2216 C2215 1.524 . S
C2217 C2214 1.403 . S
C2217 C2218 1.392 . S
C2217 C2221 1.495 . S
C2218 C2217 1.392 . S
C2218 C2219 1.385 . S
C2218 C2220 1.478 . S
C2219 H2213 0.930 . S
C2219 C2215 1.400 . S
C2219 C2218 1.385 . S
C2220 C2218 1.478 . S
C2220 C2222 1.381 . S
C2220 C2226 1.383 . S
C2221 C2217 1.495 . S
C2221 H2227 0.959 . S
C2221 H2228 0.961 . S
C2221 H2229 0.960 . S
C2222 C2220 1.381 . S
C2222 C2223 1.394 . S
C2222 H2230 0.930 . S
C2223 C2222 1.394 . S
C2223 C2224 1.383 . S
C2223 H2231 0.929 . S
C2224 C2223 1.383 . S
C2224 C2225 1.377 . S
C2225 H2209 0.930 . S
C2225 C2224 1.377 . S
C2225 C2226 1.379 . S
C2226 H2210 0.931 . S
C2226 C2220 1.383 . S
C2226 C2225 1.379 . S
H2227 C2221 0.959 . S
H2228 C2221 0.961 . S
H2229 C2221 0.960 . S
H2230 C2222 0.930 . S
H2231 C2223 0.929 . S
H2232 C2240 0.929 . S
H2233 C2242 0.930 . S
H2234 C2244 0.930 . S
H2235 C2247 0.929 . S
H2236 C2250 0.930 . S
H2237 C2252 0.960 . S
H2238 C2252 0.960 . S
H2239 C2252 0.960 . S
C2240 H2232 0.929 . S
C2240 C2241 1.377 . S
C2240 C2242 1.384 . S
C2241 C2240 1.377 . S
C2241 C2247 1.390 . S
C2242 H2233 0.930 . S
C2242 C2240 1.384 . S
C2242 C2243 1.372 . S
C2243 C2242 1.372 . S
C2243 C2244 1.400 . S
C2243 C2248 1.490 . S
C2244 H2234 0.930 . S
C2244 C2243 1.400 . S
C2244 C2247 1.386 . S
H2245 C2261 0.930 . S
H2246 C2262 0.931 . S
C2247 H2235 0.929 . S
C2247 C2241 1.390 . S
C2247 C2244 1.386 . S
C2248 C2243 1.490 . S
C2248 C2250 1.395 . S
C2248 C2251 1.403 . S
H2249 C2255 0.930 . S
C2250 H2236 0.930 . S
C2250 C2248 1.395 . S
C2250 C2253 1.403 . S
C2251 C2248 1.403 . S
C2251 C2252 1.524 . S
C2251 C2255 1.400 . S
C2252 H2237 0.960 . S
C2252 H2238 0.960 . S
C2252 H2239 0.960 . S
C2252 C2251 1.524 . S
C2253 C2250 1.403 . S
C2253 C2254 1.392 . S
C2253 C2257 1.495 . S
C2254 C2253 1.392 . S
C2254 C2255 1.385 . S
C2254 C2256 1.478 . S
C2255 H2249 0.930 . S
C2255 C2251 1.400 . S
C2255 C2254 1.385 . S
C2256 C2254 1.478 . S
C2256 C2258 1.381 . S
C2256 C2262 1.383 . S
C2257 C2253 1.495 . S
C2257 H2263 0.959 . S
C2257 H2264 0.961 . S
C2257 H2265 0.960 . S
C2258 C2256 1.381 . S
C2258 C2259 1.394 . S
C2258 H2266 0.930 . S
C2259 C2258 1.394 . S
C2259 C2260 1.383 . S
C2259 H2267 0.929 . S
C2260 C2259 1.383 . S
C2260 C2261 1.377 . S
C2261 H2245 0.930 . S
C2261 C2260 1.377 . S
C2261 C2262 1.379 . S
C2262 H2246 0.931 . S
C2262 C2256 1.383 . S
C2262 C2261 1.379 . S
H2263 C2257 0.959 . S
H2264 C2257 0.961 . S
H2265 C2257 0.960 . S
H2266 C2258 0.930 . S
H2267 C2259 0.929 . S
H2268 C2276 0.929 . S
H2269 C2278 0.930 . S
H2270 C2280 0.930 . S
H2271 C2283 0.929 . S
H2272 C2286 0.930 . S
H2273 C2288 0.960 . S
H2274 C2288 0.960 . S
H2275 C2288 0.960 . S
C2276 H2268 0.929 . S
C2276 C2277 1.377 . S
C2276 C2278 1.384 . S
C2277 C2276 1.377 . S
C2277 C2283 1.390 . S
C2278 H2269 0.930 . S
C2278 C2276 1.384 . S
C2278 C2279 1.372 . S
C2279 C2278 1.372 . S
C2279 C2280 1.400 . S
C2279 C2284 1.490 . S
C2280 H2270 0.930 . S
C2280 C2279 1.400 . S
C2280 C2283 1.386 . S
H2281 C2297 0.930 . S
H2282 C2298 0.931 . S
C2283 H2271 0.929 . S
C2283 C2277 1.390 . S
C2283 C2280 1.386 . S
C2284 C2279 1.490 . S
C2284 C2286 1.395 . S
C2284 C2287 1.403 . S
H2285 C2291 0.930 . S
C2286 H2272 0.930 . S
C2286 C2284 1.395 . S
C2286 C2289 1.403 . S
C2287 C2284 1.403 . S
C2287 C2288 1.524 . S
C2287 C2291 1.400 . S
C2288 H2273 0.960 . S
C2288 H2274 0.960 . S
C2288 H2275 0.960 . S
C2288 C2287 1.524 . S
C2289 C2286 1.403 . S
C2289 C2290 1.392 . S
C2289 C2293 1.495 . S
C2290 C2289 1.392 . S
C2290 C2291 1.385 . S
C2290 C2292 1.478 . S
C2291 H2285 0.930 . S
C2291 C2287 1.400 . S
C2291 C2290 1.385 . S
C2292 C2290 1.478 . S
C2292 C2294 1.381 . S
C2292 C2298 1.383 . S
C2293 C2289 1.495 . S
C2293 H2299 0.959 . S
C2293 H2300 0.961 . S
C2293 H2301 0.960 . S
C2294 C2292 1.381 . S
C2294 C2295 1.394 . S
C2294 H2302 0.930 . S
C2295 C2294 1.394 . S
C2295 C2296 1.383 . S
C2295 H2303 0.929 . S
C2296 C2295 1.383 . S
C2296 C2297 1.377 . S
C2297 H2281 0.930 . S
C2297 C2296 1.377 . S
C2297 C2298 1.379 . S
C2298 H2282 0.931 . S
C2298 C2292 1.383 . S
C2298 C2297 1.379 . S
H2299 C2293 0.959 . S
H2300 C2293 0.961 . S
H2301 C2293 0.960 . S
H2302 C2294 0.930 . S
H2303 C2295 0.929 . S
H2304 C2312 0.929 . S
H2305 C2314 0.930 . S
H2306 C2316 0.930 . S
H2307 C2319 0.929 . S
H2308 C2322 0.930 . S
H2309 C2324 0.960 . S
H2310 C2324 0.960 . S
H2311 C2324 0.960 . S
C2312 H2304 0.929 . S
C2312 C2313 1.377 . S
C2312 C2314 1.384 . S
C2313 C2312 1.377 . S
C2313 C2319 1.390 . S
C2314 H2305 0.930 . S
C2314 C2312 1.384 . S
C2314 C2315 1.372 . S
C2315 C2314 1.372 . S
C2315 C2316 1.400 . S
C2315 C2320 1.490 . S
C2316 H2306 0.930 . S
C2316 C2315 1.400 . S
C2316 C2319 1.386 . S
H2317 C2333 0.930 . S
H2318 C2334 0.931 . S
C2319 H2307 0.929 . S
C2319 C2313 1.390 . S
C2319 C2316 1.386 . S
C2320 C2315 1.490 . S
C2320 C2322 1.395 . S
C2320 C2323 1.403 . S
H2321 C2327 0.930 . S
C2322 H2308 0.930 . S
C2322 C2320 1.395 . S
C2322 C2325 1.403 . S
C2323 C2320 1.403 . S
C2323 C2324 1.524 . S
C2323 C2327 1.400 . S
C2324 H2309 0.960 . S
C2324 H2310 0.960 . S
C2324 H2311 0.960 . S
C2324 C2323 1.524 . S
C2325 C2322 1.403 . S
C2325 C2326 1.392 . S
C2325 C2329 1.495 . S
C2326 C2325 1.392 . S
C2326 C2327 1.385 . S
C2326 C2328 1.478 . S
C2327 H2321 0.930 . S
C2327 C2323 1.400 . S
C2327 C2326 1.385 . S
C2328 C2326 1.478 . S
C2328 C2330 1.381 . S
C2328 C2334 1.383 . S
C2329 C2325 1.495 . S
C2329 H2335 0.959 . S
C2329 H2336 0.961 . S
C2329 H2337 0.960 . S
C2330 C2328 1.381 . S
C2330 C2331 1.394 . S
C2330 H2338 0.930 . S
C2331 C2330 1.394 . S
C2331 C2332 1.383 . S
C2331 H2339 0.929 . S
C2332 C2331 1.383 . S
C2332 C2333 1.377 . S
C2333 H2317 0.930 . S
C2333 C2332 1.377 . S
C2333 C2334 1.379 . S
C2334 H2318 0.931 . S
C2334 C2328 1.383 . S
C2334 C2333 1.379 . S
H2335 C2329 0.959 . S
H2336 C2329 0.961 . S
H2337 C2329 0.960 . S
H2338 C2330 0.930 . S
H2339 C2331 0.929 . S
H2340 C2348 0.929 . S
H2341 C2350 0.930 . S
H2342 C2352 0.930 . S
H2343 C2355 0.929 . S
H2344 C2358 0.930 . S
H2345 C2360 0.960 . S
H2346 C2360 0.960 . S
H2347 C2360 0.960 . S
C2348 H2340 0.929 . S
C2348 C2349 1.377 . S
C2348 C2350 1.384 . S
C2349 C2348 1.377 . S
C2349 C2355 1.390 . S
C2350 H2341 0.930 . S
C2350 C2348 1.384 . S
C2350 C2351 1.372 . S
C2351 C2350 1.372 . S
C2351 C2352 1.400 . S
C2351 C2356 1.490 . S
C2352 H2342 0.930 . S
C2352 C2351 1.400 . S
C2352 C2355 1.386 . S
H2353 C2369 0.930 . S
H2354 C2370 0.931 . S
C2355 H2343 0.929 . S
C2355 C2349 1.390 . S
C2355 C2352 1.386 . S
C2356 C2351 1.490 . S
C2356 C2358 1.395 . S
C2356 C2359 1.403 . S
H2357 C2363 0.930 . S
C2358 H2344 0.930 . S
C2358 C2356 1.395 . S
C2358 C2361 1.403 . S
C2359 C2356 1.403 . S
C2359 C2360 1.524 . S
C2359 C2363 1.400 . S
C2360 H2345 0.960 . S
C2360 H2346 0.960 . S
C2360 H2347 0.960 . S
C2360 C2359 1.524 . S
C2361 C2358 1.403 . S
C2361 C2362 1.392 . S
C2361 C2365 1.495 . S
C2362 C2361 1.392 . S
C2362 C2363 1.385 . S
C2362 C2364 1.478 . S
C2363 H2357 0.930 . S
C2363 C2359 1.400 . S
C2363 C2362 1.385 . S
C2364 C2362 1.478 . S
C2364 C2366 1.381 . S
C2364 C2370 1.383 . S
C2365 C2361 1.495 . S
C2365 H2371 0.959 . S
C2365 H2372 0.961 . S
C2365 H2373 0.960 . S
C2366 C2364 1.381 . S
C2366 C2367 1.394 . S
C2366 H2374 0.930 . S
C2367 C2366 1.394 . S
C2367 C2368 1.383 . S
C2367 H2375 0.929 . S
C2368 C2367 1.383 . S
C2368 C2369 1.377 . S
C2369 H2353 0.930 . S
C2369 C2368 1.377 . S
C2369 C2370 1.379 . S
C2370 H2354 0.931 . S
C2370 C2364 1.383 . S
C2370 C2369 1.379 . S
H2371 C2365 0.959 . S
H2372 C2365 0.961 . S
H2373 C2365 0.960 . S
H2374 C2366 0.930 . S
H2375 C2367 0.929 . S
H2376 C2384 0.929 . S
H2377 C2386 0.930 . S
H2378 C2388 0.930 . S
H2379 C2391 0.929 . S
H2380 C2394 0.930 . S
H2381 C2396 0.960 . S
H2382 C2396 0.960 . S
H2383 C2396 0.960 . S
C2384 H2376 0.929 . S
C2384 C2385 1.377 . S
C2384 C2386 1.384 . S
C2385 C2384 1.377 . S
C2385 C2391 1.390 . S
C2386 H2377 0.930 . S
C2386 C2384 1.384 . S
C2386 C2387 1.372 . S
C2387 C2386 1.372 . S
C2387 C2388 1.400 . S
C2387 C2392 1.490 . S
C2388 H2378 0.930 . S
C2388 C2387 1.400 . S
C2388 C2391 1.386 . S
H2389 C2405 0.930 . S
H2390 C2406 0.931 . S
C2391 H2379 0.929 . S
C2391 C2385 1.390 . S
C2391 C2388 1.386 . S
C2392 C2387 1.490 . S
C2392 C2394 1.395 . S
C2392 C2395 1.403 . S
H2393 C2399 0.930 . S
C2394 H2380 0.930 . S
C2394 C2392 1.395 . S
C2394 C2397 1.403 . S
C2395 C2392 1.403 . S
C2395 C2396 1.524 . S
C2395 C2399 1.400 . S
C2396 H2381 0.960 . S
C2396 H2382 0.960 . S
C2396 H2383 0.960 . S
C2396 C2395 1.524 . S
C2397 C2394 1.403 . S
C2397 C2398 1.392 . S
C2397 C2401 1.495 . S
C2398 C2397 1.392 . S
C2398 C2399 1.385 . S
C2398 C2400 1.478 . S
C2399 H2393 0.930 . S
C2399 C2395 1.400 . S
C2399 C2398 1.385 . S
C2400 C2398 1.478 . S
C2400 C2402 1.381 . S
C2400 C2406 1.383 . S
C2401 C2397 1.495 . S
C2401 H2407 0.959 . S
C2401 H2408 0.961 . S
C2401 H2409 0.960 . S
C2402 C2400 1.381 . S
C2402 C2403 1.394 . S
C2402 H2410 0.930 . S
C2403 C2402 1.394 . S
C2403 C2404 1.383 . S
C2403 H2411 0.929 . S
C2404 C2403 1.383 . S
C2404 C2405 1.377 . S
C2405 H2389 0.930 . S
C2405 C2404 1.377 . S
C2405 C2406 1.379 . S
C2406 H2390 0.931 . S
C2406 C2400 1.383 . S
C2406 C2405 1.379 . S
H2407 C2401 0.959 . S
H2408 C2401 0.961 . S
H2409 C2401 0.960 . S
H2410 C2402 0.930 . S
H2411 C2403 0.929 . S
H2412 C2420 0.929 . S
H2413 C2422 0.930 . S
H2414 C2424 0.930 . S
H2415 C2427 0.929 . S
H2416 C2430 0.930 . S
H2417 C2432 0.960 . S
H2418 C2432 0.960 . S
H2419 C2432 0.960 . S
C2420 H2412 0.929 . S
C2420 C2421 1.377 . S
C2420 C2422 1.384 . S
C2421 C2420 1.377 . S
C2421 C2427 1.390 . S
C2422 H2413 0.930 . S
C2422 C2420 1.384 . S
C2422 C2423 1.372 . S
C2423 C2422 1.372 . S
C2423 C2424 1.400 . S
C2423 C2428 1.490 . S
C2424 H2414 0.930 . S
C2424 C2423 1.400 . S
C2424 C2427 1.386 . S
H2425 C2441 0.930 . S
H2426 C2442 0.931 . S
C2427 H2415 0.929 . S
C2427 C2421 1.390 . S
C2427 C2424 1.386 . S
C2428 C2423 1.490 . S
C2428 C2430 1.395 . S
C2428 C2431 1.403 . S
H2429 C2435 0.930 . S
C2430 H2416 0.930 . S
C2430 C2428 1.395 . S
C2430 C2433 1.403 . S
C2431 C2428 1.403 . S
C2431 C2432 1.524 . S
C2431 C2435 1.400 . S
C2432 H2417 0.960 . S
C2432 H2418 0.960 . S
C2432 H2419 0.960 . S
C2432 C2431 1.524 . S
C2433 C2430 1.403 . S
C2433 C2434 1.392 . S
C2433 C2437 1.495 . S
C2434 C2433 1.392 . S
C2434 C2435 1.385 . S
C2434 C2436 1.478 . S
C2435 H2429 0.930 . S
C2435 C2431 1.400 . S
C2435 C2434 1.385 . S
C2436 C2434 1.478 . S
C2436 C2438 1.381 . S
C2436 C2442 1.383 . S
C2437 C2433 1.495 . S
C2437 H2443 0.959 . S
C2437 H2444 0.961 . S
C2437 H2445 0.960 . S
C2438 C2436 1.381 . S
C2438 C2439 1.394 . S
C2438 H2446 0.930 . S
C2439 C2438 1.394 . S
C2439 C2440 1.383 . S
C2439 H2447 0.929 . S
C2440 C2439 1.383 . S
C2440 C2441 1.377 . S
C2441 H2425 0.930 . S
C2441 C2440 1.377 . S
C2441 C2442 1.379 . S
C2442 H2426 0.931 . S
C2442 C2436 1.383 . S
C2442 C2441 1.379 . S
H2443 C2437 0.959 . S
H2444 C2437 0.961 . S
H2445 C2437 0.960 . S
H2446 C2438 0.930 . S
H2447 C2439 0.929 . S
H2448 C2456 0.929 . S
H2449 C2458 0.930 . S
H2450 C2460 0.930 . S
H2451 C2463 0.929 . S
H2452 C2466 0.930 . S
H2453 C2468 0.960 . S
H2454 C2468 0.960 . S
H2455 C2468 0.960 . S
C2456 H2448 0.929 . S
C2456 C2457 1.377 . S
C2456 C2458 1.384 . S
C2457 C2456 1.377 . S
C2457 C2463 1.390 . S
C2458 H2449 0.930 . S
C2458 C2456 1.384 . S
C2458 C2459 1.372 . S
C2459 C2458 1.372 . S
C2459 C2460 1.400 . S
C2459 C2464 1.490 . S
C2460 H2450 0.930 . S
C2460 C2459 1.400 . S
C2460 C2463 1.386 . S
H2461 C2477 0.930 . S
H2462 C2478 0.931 . S
C2463 H2451 0.929 . S
C2463 C2457 1.390 . S
C2463 C2460 1.386 . S
C2464 C2459 1.490 . S
C2464 C2466 1.395 . S
C2464 C2467 1.403 . S
H2465 C2471 0.930 . S
C2466 H2452 0.930 . S
C2466 C2464 1.395 . S
C2466 C2469 1.403 . S
C2467 C2464 1.403 . S
C2467 C2468 1.524 . S
C2467 C2471 1.400 . S
C2468 H2453 0.960 . S
C2468 H2454 0.960 . S
C2468 H2455 0.960 . S
C2468 C2467 1.524 . S
C2469 C2466 1.403 . S
C2469 C2470 1.392 . S
C2469 C2473 1.495 . S
C2470 C2469 1.392 . S
C2470 C2471 1.385 . S
C2470 C2472 1.478 . S
C2471 H2465 0.930 . S
C2471 C2467 1.400 . S
C2471 C2470 1.385 . S
C2472 C2470 1.478 . S
C2472 C2474 1.381 . S
C2472 C2478 1.383 . S
C2473 C2469 1.495 . S
C2473 H2479 0.959 . S
C2473 H2480 0.961 . S
C2473 H2481 0.960 . S
C2474 C2472 1.381 . S
C2474 C2475 1.394 . S
C2474 H2482 0.930 . S
C2475 C2474 1.394 . S
C2475 C2476 1.383 . S
C2475 H2483 0.929 . S
C2476 C2475 1.383 . S
C2476 C2477 1.377 . S
C2477 H2461 0.930 . S
C2477 C2476 1.377 . S
C2477 C2478 1.379 . S
C2478 H2462 0.931 . S
C2478 C2472 1.383 . S
C2478 C2477 1.379 . S
H2479 C2473 0.959 . S
H2480 C2473 0.961 . S
H2481 C2473 0.960 . S
H2482 C2474 0.930 . S
H2483 C2475 0.929 . S
H2484 C2492 0.929 . S
H2485 C2494 0.930 . S
H2486 C2496 0.930 . S
H2487 C2499 0.929 . S
H2488 C2502 0.930 . S
H2489 C2504 0.960 . S
H2490 C2504 0.960 . S
H2491 C2504 0.960 . S
C2492 H2484 0.929 . S
C2492 C2493 1.377 . S
C2492 C2494 1.384 . S
C2493 C2492 1.377 . S
C2493 C2499 1.390 . S
C2494 H2485 0.930 . S
C2494 C2492 1.384 . S
C2494 C2495 1.372 . S
C2495 C2494 1.372 . S
C2495 C2496 1.400 . S
C2495 C2500 1.490 . S
C2496 H2486 0.930 . S
C2496 C2495 1.400 . S
C2496 C2499 1.386 . S
H2497 C2513 0.930 . S
H2498 C2514 0.931 . S
C2499 H2487 0.929 . S
C2499 C2493 1.390 . S
C2499 C2496 1.386 . S
C2500 C2495 1.490 . S
C2500 C2502 1.395 . S
C2500 C2503 1.403 . S
H2501 C2507 0.930 . S
C2502 H2488 0.930 . S
C2502 C2500 1.395 . S
C2502 C2505 1.403 . S
C2503 C2500 1.403 . S
C2503 C2504 1.524 . S
C2503 C2507 1.400 . S
C2504 H2489 0.960 . S
C2504 H2490 0.960 . S
C2504 H2491 0.960 . S
C2504 C2503 1.524 . S
C2505 C2502 1.403 . S
C2505 C2506 1.392 . S
C2505 C2509 1.495 . S
C2506 C2505 1.392 . S
C2506 C2507 1.385 . S
C2506 C2508 1.478 . S
C2507 H2501 0.930 . S
C2507 C2503 1.400 . S
C2507 C2506 1.385 . S
C2508 C2506 1.478 . S
C2508 C2510 1.381 . S
C2508 C2514 1.383 . S
C2509 C2505 1.495 . S
C2509 H2515 0.959 . S
C2509 H2516 0.961 . S
C2509 H2517 0.960 . S
C2510 C2508 1.381 . S
C2510 C2511 1.394 . S
C2510 H2518 0.930 . S
C2511 C2510 1.394 . S
C2511 C2512 1.383 . S
C2511 H2519 0.929 . S
C2512 C2511 1.383 . S
C2512 C2513 1.377 . S
C2513 H2497 0.930 . S
C2513 C2512 1.377 . S
C2513 C2514 1.379 . S
C2514 H2498 0.931 . S
C2514 C2508 1.383 . S
C2514 C2513 1.379 . S
H2515 C2509 0.959 . S
H2516 C2509 0.961 . S
H2517 C2509 0.960 . S
H2518 C2510 0.930 . S
H2519 C2511 0.929 . S
H2520 C2528 0.929 . S
H2521 C2530 0.930 . S
H2522 C2532 0.930 . S
H2523 C2535 0.929 . S
H2524 C2538 0.930 . S
H2525 C2540 0.960 . S
H2526 C2540 0.960 . S
H2527 C2540 0.960 . S
C2528 H2520 0.929 . S
C2528 C2529 1.377 . S
C2528 C2530 1.384 . S
C2529 C2528 1.377 . S
C2529 C2535 1.390 . S
C2530 H2521 0.930 . S
C2530 C2528 1.384 . S
C2530 C2531 1.372 . S
C2531 C2530 1.372 . S
C2531 C2532 1.400 . S
C2531 C2536 1.490 . S
C2532 H2522 0.930 . S
C2532 C2531 1.400 . S
C2532 C2535 1.386 . S
H2533 C2549 0.930 . S
H2534 C2550 0.931 . S
C2535 H2523 0.929 . S
C2535 C2529 1.390 . S
C2535 C2532 1.386 . S
C2536 C2531 1.490 . S
C2536 C2538 1.395 . S
C2536 C2539 1.403 . S
H2537 C2543 0.930 . S
C2538 H2524 0.930 . S
C2538 C2536 1.395 . S
C2538 C2541 1.403 . S
C2539 C2536 1.403 . S
C2539 C2540 1.524 . S
C2539 C2543 1.400 . S
C2540 H2525 0.960 . S
C2540 H2526 0.960 . S
C2540 H2527 0.960 . S
C2540 C2539 1.524 . S
C2541 C2538 1.403 . S
C2541 C2542 1.392 . S
C2541 C2545 1.495 . S
C2542 C2541 1.392 . S
C2542 C2543 1.385 . S
C2542 C2544 1.478 . S
C2543 H2537 0.930 . S
C2543 C2539 1.400 . S
C2543 C2542 1.385 . S
C2544 C2542 1.478 . S
C2544 C2546 1.381 . S
C2544 C2550 1.383 . S
C2545 C2541 1.495 . S
C2545 H2551 0.959 . S
C2545 H2552 0.961 . S
C2545 H2553 0.960 . S
C2546 C2544 1.381 . S
C2546 C2547 1.394 . S
C2546 H2554 0.930 . S
C2547 C2546 1.394 . S
C2547 C2548 1.383 . S
C2547 H2555 0.929 1_556 S
C2548 C2547 1.383 . S
C2548 C2549 1.377 . S
C2549 H2533 0.930 . S
C2549 C2548 1.377 . S
C2549 C2550 1.379 . S
C2550 H2534 0.931 . S
C2550 C2544 1.383 . S
C2550 C2549 1.379 . S
H2551 C2545 0.959 . S
H2552 C2545 0.961 . S
H2553 C2545 0.960 . S
H2554 C2546 0.930 . S
H2555 C2547 0.929 1_554 S
H2556 C2564 0.929 . S
H2557 C2566 0.930 . S
H2558 C2568 0.930 . S
H2559 C2571 0.929 1_554 S
H2560 C2574 0.930 . S
H2561 C2576 0.960 . S
H2562 C2576 0.960 . S
H2563 C2576 0.960 . S
C2564 H2556 0.929 . S
C2564 C2565 1.377 . S
C2564 C2566 1.384 . S
C2565 C2564 1.377 . S
C2565 C2571 1.390 . S
C2566 H2557 0.930 . S
C2566 C2564 1.384 . S
C2566 C2567 1.372 . S
C2567 C2566 1.372 . S
C2567 C2568 1.400 . S
C2567 C2572 1.490 . S
C2568 H2558 0.930 . S
C2568 C2567 1.400 . S
C2568 C2571 1.386 . S
H2569 C2585 0.930 . S
H2570 C2586 0.931 . S
C2571 H2559 0.929 1_556 S
C2571 C2565 1.390 . S
C2571 C2568 1.386 . S
C2572 C2567 1.490 . S
C2572 C2574 1.395 . S
C2572 C2575 1.403 . S
H2573 C2579 0.930 . S
C2574 H2560 0.930 . S
C2574 C2572 1.395 . S
C2574 C2577 1.403 . S
C2575 C2572 1.403 . S
C2575 C2576 1.524 . S
C2575 C2579 1.400 . S
C2576 H2561 0.960 . S
C2576 H2562 0.960 . S
C2576 H2563 0.960 . S
C2576 C2575 1.524 . S
C2577 C2574 1.403 . S
C2577 C2578 1.392 . S
C2577 C2581 1.495 . S
C2578 C2577 1.392 . S
C2578 C2579 1.385 . S
C2578 C2580 1.478 . S
C2579 H2573 0.930 . S
C2579 C2575 1.400 . S
C2579 C2578 1.385 . S
C2580 C2578 1.478 . S
C2580 C2582 1.381 . S
C2580 C2586 1.383 . S
C2581 C2577 1.495 . S
C2581 H2587 0.959 . S
C2581 H2588 0.961 . S
C2581 H2589 0.960 . S
C2582 C2580 1.381 . S
C2582 C2583 1.394 . S
C2582 H2590 0.930 . S
C2583 C2582 1.394 . S
C2583 C2584 1.383 . S
C2583 H2591 0.929 . S
C2584 C2583 1.383 . S
C2584 C2585 1.377 . S
C2585 H2569 0.930 . S
C2585 C2584 1.377 . S
C2585 C2586 1.379 . S
C2586 H2570 0.931 . S
C2586 C2580 1.383 . S
C2586 C2585 1.379 . S
H2587 C2581 0.959 . S
H2588 C2581 0.961 . S
H2589 C2581 0.960 . S
H2590 C2582 0.930 . S
H2591 C2583 0.929 . S
H2592 C2600 0.929 . S
H2593 C2602 0.930 . S
H2594 C2604 0.930 . S
H2595 C2607 0.929 . S
H2596 C2610 0.930 . S
H2597 C2612 0.960 . S
H2598 C2612 0.960 . S
H2599 C2612 0.960 . S
C2600 H2592 0.929 . S
C2600 C2601 1.377 . S
C2600 C2602 1.384 . S
C2601 C2600 1.377 . S
C2601 C2607 1.390 . S
C2602 H2593 0.930 . S
C2602 C2600 1.384 . S
C2602 C2603 1.372 . S
C2603 C2602 1.372 . S
C2603 C2604 1.400 . S
C2603 C2608 1.490 . S
C2604 H2594 0.930 . S
C2604 C2603 1.400 . S
C2604 C2607 1.386 . S
H2605 C2621 0.930 . S
H2606 C2622 0.931 . S
C2607 H2595 0.929 . S
C2607 C2601 1.390 . S
C2607 C2604 1.386 . S
C2608 C2603 1.490 . S
C2608 C2610 1.395 . S
C2608 C2611 1.403 . S
H2609 C2615 0.930 . S
C2610 H2596 0.930 . S
C2610 C2608 1.395 . S
C2610 C2613 1.403 . S
C2611 C2608 1.403 . S
C2611 C2612 1.524 . S
C2611 C2615 1.400 . S
C2612 H2597 0.960 . S
C2612 H2598 0.960 . S
C2612 H2599 0.960 . S
C2612 C2611 1.524 . S
C2613 C2610 1.403 . S
C2613 C2614 1.392 . S
C2613 C2617 1.495 . S
C2614 C2613 1.392 . S
C2614 C2615 1.385 . S
C2614 C2616 1.478 . S
C2615 H2609 0.930 . S
C2615 C2611 1.400 . S
C2615 C2614 1.385 . S
C2616 C2614 1.478 . S
C2616 C2618 1.381 . S
C2616 C2622 1.383 . S
C2617 C2613 1.495 . S
C2617 H2623 0.959 . S
C2617 H2624 0.961 . S
C2617 H2625 0.960 . S
C2618 C2616 1.381 . S
C2618 C2619 1.394 . S
C2618 H2626 0.930 . S
C2619 C2618 1.394 . S
C2619 C2620 1.383 . S
C2619 H2627 0.929 . S
C2620 C2619 1.383 . S
C2620 C2621 1.377 . S
C2621 H2605 0.930 . S
C2621 C2620 1.377 . S
C2621 C2622 1.379 . S
C2622 H2606 0.931 . S
C2622 C2616 1.383 . S
C2622 C2621 1.379 . S
H2623 C2617 0.959 . S
H2624 C2617 0.961 . S
H2625 C2617 0.960 . S
H2626 C2618 0.930 . S
H2627 C2619 0.929 . S
H2628 C2636 0.929 . S
H2629 C2638 0.930 . S
H2630 C2640 0.930 . S
H2631 C2643 0.929 . S
H2632 C2646 0.930 . S
H2633 C2648 0.960 . S
H2634 C2648 0.960 . S
H2635 C2648 0.960 . S
C2636 H2628 0.929 . S
C2636 C2637 1.377 . S
C2636 C2638 1.384 . S
C2637 C2636 1.377 . S
C2637 C2643 1.390 . S
C2638 H2629 0.930 . S
C2638 C2636 1.384 . S
C2638 C2639 1.372 . S
C2639 C2638 1.372 . S
C2639 C2640 1.400 . S
C2639 C2644 1.490 . S
C2640 H2630 0.930 . S
C2640 C2639 1.400 . S
C2640 C2643 1.386 . S
H2641 C2657 0.930 1_556 S
H2642 C2658 0.931 . S
C2643 H2631 0.929 . S
C2643 C2637 1.390 . S
C2643 C2640 1.386 . S
C2644 C2639 1.490 . S
C2644 C2646 1.395 . S
C2644 C2647 1.403 . S
H2645 C2651 0.930 . S
C2646 H2632 0.930 . S
C2646 C2644 1.395 . S
C2646 C2649 1.403 . S
C2647 C2644 1.403 . S
C2647 C2648 1.524 . S
C2647 C2651 1.400 . S
C2648 H2633 0.960 . S
C2648 H2634 0.960 . S
C2648 H2635 0.960 . S
C2648 C2647 1.524 . S
C2649 C2646 1.403 . S
C2649 C2650 1.392 . S
C2649 C2653 1.495 . S
C2650 C2649 1.392 . S
C2650 C2651 1.385 . S
C2650 C2652 1.478 . S
C2651 H2645 0.930 . S
C2651 C2647 1.400 . S
C2651 C2650 1.385 . S
C2652 C2650 1.478 . S
C2652 C2654 1.381 . S
C2652 C2658 1.383 . S
C2653 C2649 1.495 . S
C2653 H2659 0.959 . S
C2653 H2660 0.961 . S
C2653 H2661 0.960 . S
C2654 C2652 1.381 . S
C2654 C2655 1.394 . S
C2654 H2662 0.930 . S
C2655 C2654 1.394 . S
C2655 C2656 1.383 . S
C2655 H2663 0.929 . S
C2656 C2655 1.383 . S
C2656 C2657 1.377 . S
C2657 H2641 0.930 1_554 S
C2657 C2656 1.377 . S
C2657 C2658 1.379 . S
C2658 H2642 0.931 . S
C2658 C2652 1.383 . S
C2658 C2657 1.379 . S
H2659 C2653 0.959 . S
H2660 C2653 0.961 . S
H2661 C2653 0.960 . S
H2662 C2654 0.930 . S
H2663 C2655 0.929 . S
H2664 C2672 0.929 . S
H2665 C2674 0.930 . S
H2666 C2676 0.930 . S
H2667 C2679 0.929 . S
H2668 C2682 0.930 . S
H2669 C2684 0.960 . S
H2670 C2684 0.960 . S
H2671 C2684 0.960 . S
C2672 H2664 0.929 . S
C2672 C2673 1.377 . S
C2672 C2674 1.384 . S
C2673 C2672 1.377 . S
C2673 C2679 1.390 . S
C2674 H2665 0.930 . S
C2674 C2672 1.384 . S
C2674 C2675 1.372 . S
C2675 C2674 1.372 . S
C2675 C2676 1.400 . S
C2675 C2680 1.490 . S
C2676 H2666 0.930 . S
C2676 C2675 1.400 . S
C2676 C2679 1.386 . S
H2677 C2693 0.930 . S
H2678 C2694 0.931 . S
C2679 H2667 0.929 . S
C2679 C2673 1.390 . S
C2679 C2676 1.386 . S
C2680 C2675 1.490 . S
C2680 C2682 1.395 . S
C2680 C2683 1.403 . S
H2681 C2687 0.930 . S
C2682 H2668 0.930 . S
C2682 C2680 1.395 . S
C2682 C2685 1.403 . S
C2683 C2680 1.403 . S
C2683 C2684 1.524 . S
C2683 C2687 1.400 . S
C2684 H2669 0.960 . S
C2684 H2670 0.960 . S
C2684 H2671 0.960 . S
C2684 C2683 1.524 . S
C2685 C2682 1.403 . S
C2685 C2686 1.392 . S
C2685 C2689 1.495 . S
C2686 C2685 1.392 . S
C2686 C2687 1.385 . S
C2686 C2688 1.478 . S
C2687 H2681 0.930 . S
C2687 C2683 1.400 . S
C2687 C2686 1.385 . S
C2688 C2686 1.478 . S
C2688 C2690 1.381 . S
C2688 C2694 1.383 . S
C2689 C2685 1.495 . S
C2689 H2695 0.959 . S
C2689 H2696 0.961 . S
C2689 H2697 0.960 . S
C2690 C2688 1.381 . S
C2690 C2691 1.394 . S
C2690 H2698 0.930 . S
C2691 C2690 1.394 . S
C2691 C2692 1.383 . S
C2691 H2699 0.929 . S
C2692 C2691 1.383 . S
C2692 C2693 1.377 . S
C2693 H2677 0.930 . S
C2693 C2692 1.377 . S
C2693 C2694 1.379 . S
C2694 H2678 0.931 . S
C2694 C2688 1.383 . S
C2694 C2693 1.379 . S
H2695 C2689 0.959 . S
H2696 C2689 0.961 . S
H2697 C2689 0.960 . S
H2698 C2690 0.930 . S
H2699 C2691 0.929 . S
H2700 C2708 0.929 1_556 S
H2701 C2710 0.930 . S
H2702 C2712 0.930 . S
H2703 C2715 0.929 . S
H2704 C2718 0.930 . S
H2705 C2720 0.960 . S
H2706 C2720 0.960 . S
H2707 C2720 0.960 . S
C2708 H2700 0.929 1_554 S
C2708 C2709 1.377 . S
C2708 C2710 1.384 . S
C2709 C2708 1.377 . S
C2709 C2715 1.390 . S
C2710 H2701 0.930 . S
C2710 C2708 1.384 . S
C2710 C2711 1.372 . S
C2711 C2710 1.372 . S
C2711 C2712 1.400 . S
C2711 C2716 1.490 . S
C2712 H2702 0.930 . S
C2712 C2711 1.400 . S
C2712 C2715 1.386 . S
H2713 C2729 0.930 . S
H2714 C2730 0.931 . S
C2715 H2703 0.929 . S
C2715 C2709 1.390 . S
C2715 C2712 1.386 . S
C2716 C2711 1.490 . S
C2716 C2718 1.395 . S
C2716 C2719 1.403 . S
H2717 C2723 0.930 . S
C2718 H2704 0.930 . S
C2718 C2716 1.395 . S
C2718 C2721 1.403 . S
C2719 C2716 1.403 . S
C2719 C2720 1.524 . S
C2719 C2723 1.400 . S
C2720 H2705 0.960 . S
C2720 H2706 0.960 . S
C2720 H2707 0.960 . S
C2720 C2719 1.524 . S
C2721 C2718 1.403 . S
C2721 C2722 1.392 . S
C2721 C2725 1.495 . S
C2722 C2721 1.392 . S
C2722 C2723 1.385 . S
C2722 C2724 1.478 . S
C2723 H2717 0.930 . S
C2723 C2719 1.400 . S
C2723 C2722 1.385 . S
C2724 C2722 1.478 . S
C2724 C2726 1.381 . S
C2724 C2730 1.383 . S
C2725 C2721 1.495 . S
C2725 H2731 0.959 . S
C2725 H2732 0.961 . S
C2725 H2733 0.960 . S
C2726 C2724 1.381 . S
C2726 C2727 1.394 . S
C2726 H2734 0.930 . S
C2727 C2726 1.394 . S
C2727 C2728 1.383 . S
C2727 H2735 0.929 . S
C2728 C2727 1.383 . S
C2728 C2729 1.377 . S
C2729 H2713 0.930 . S
C2729 C2728 1.377 . S
C2729 C2730 1.379 . S
C2730 H2714 0.931 . S
C2730 C2724 1.383 . S
C2730 C2729 1.379 . S
H2731 C2725 0.959 . S
H2732 C2725 0.961 . S
H2733 C2725 0.960 . S
H2734 C2726 0.930 . S
H2735 C2727 0.929 . S
H2736 C2744 0.929 . S
H2737 C2746 0.930 . S
H2738 C2748 0.930 . S
H2739 C2751 0.929 . S
H2740 C2754 0.930 . S
H2741 C2756 0.960 . S
H2742 C2756 0.960 . S
H2743 C2756 0.960 . S
C2744 H2736 0.929 . S
C2744 C2745 1.377 . S
C2744 C2746 1.384 . S
C2745 C2744 1.377 . S
C2745 C2751 1.390 . S
C2746 H2737 0.930 . S
C2746 C2744 1.384 . S
C2746 C2747 1.372 . S
C2747 C2746 1.372 . S
C2747 C2748 1.400 . S
C2747 C2752 1.490 . S
C2748 H2738 0.930 . S
C2748 C2747 1.400 . S
C2748 C2751 1.386 . S
H2749 C2765 0.930 . S
H2750 C2766 0.931 . S
C2751 H2739 0.929 . S
C2751 C2745 1.390 . S
C2751 C2748 1.386 . S
C2752 C2747 1.490 . S
C2752 C2754 1.395 . S
C2752 C2755 1.403 . S
H2753 C2759 0.930 . S
C2754 H2740 0.930 . S
C2754 C2752 1.395 . S
C2754 C2757 1.403 . S
C2755 C2752 1.403 . S
C2755 C2756 1.524 . S
C2755 C2759 1.400 . S
C2756 H2741 0.960 . S
C2756 H2742 0.960 . S
C2756 H2743 0.960 . S
C2756 C2755 1.524 . S
C2757 C2754 1.403 . S
C2757 C2758 1.392 . S
C2757 C2761 1.495 . S
C2758 C2757 1.392 . S
C2758 C2759 1.385 . S
C2758 C2760 1.478 . S
C2759 H2753 0.930 . S
C2759 C2755 1.400 . S
C2759 C2758 1.385 . S
C2760 C2758 1.478 . S
C2760 C2762 1.381 . S
C2760 C2766 1.383 . S
C2761 C2757 1.495 . S
C2761 H2767 0.959 . S
C2761 H2768 0.961 . S
C2761 H2769 0.960 . S
C2762 C2760 1.381 . S
C2762 C2763 1.394 1_554 S
C2762 H2770 0.930 . S
C2763 C2762 1.394 1_556 S
C2763 C2764 1.383 1_556 S
C2763 H2771 0.929 . S
C2764 C2763 1.383 1_554 S
C2764 C2765 1.377 . S
C2765 H2749 0.930 . S
C2765 C2764 1.377 . S
C2765 C2766 1.379 . S
C2766 H2750 0.931 . S
C2766 C2760 1.383 . S
C2766 C2765 1.379 . S
H2767 C2761 0.959 . S
H2768 C2761 0.961 . S
H2769 C2761 0.960 . S
H2770 C2762 0.930 . S
H2771 C2763 0.929 . S
H2772 C2780 0.929 1_556 S
H2773 C2782 0.930 . S
H2774 C2784 0.930 . S
H2775 C2787 0.929 . S
H2776 C2790 0.930 . S
H2777 C2792 0.960 . S
H2778 C2792 0.960 . S
H2779 C2792 0.960 . S
C2780 H2772 0.929 1_554 S
C2780 C2781 1.377 . S
C2780 C2782 1.384 . S
C2781 C2780 1.377 . S
C2781 C2787 1.390 . S
C2782 H2773 0.930 . S
C2782 C2780 1.384 . S
C2782 C2783 1.372 . S
C2783 C2782 1.372 . S
C2783 C2784 1.400 . S
C2783 C2788 1.490 . S
C2784 H2774 0.930 . S
C2784 C2783 1.400 . S
C2784 C2787 1.386 . S
H2785 C2801 0.930 . S
H2786 C2802 0.931 . S
C2787 H2775 0.929 . S
C2787 C2781 1.390 . S
C2787 C2784 1.386 . S
C2788 C2783 1.490 . S
C2788 C2790 1.395 . S
C2788 C2791 1.403 . S
H2789 C2795 0.930 . S
C2790 H2776 0.930 . S
C2790 C2788 1.395 . S
C2790 C2793 1.403 . S
C2791 C2788 1.403 . S
C2791 C2792 1.524 . S
C2791 C2795 1.400 . S
C2792 H2777 0.960 . S
C2792 H2778 0.960 . S
C2792 H2779 0.960 . S
C2792 C2791 1.524 . S
C2793 C2790 1.403 . S
C2793 C2794 1.392 . S
C2793 C2797 1.495 . S
C2794 C2793 1.392 . S
C2794 C2795 1.385 . S
C2794 C2796 1.478 . S
C2795 H2789 0.930 . S
C2795 C2791 1.400 . S
C2795 C2794 1.385 . S
C2796 C2794 1.478 . S
C2796 C2798 1.381 . S
C2796 C2802 1.383 . S
C2797 C2793 1.495 . S
C2797 H2803 0.959 . S
C2797 H2804 0.961 . S
C2797 H2805 0.960 . S
C2798 C2796 1.381 . S
C2798 C2799 1.394 . S
C2798 H2806 0.930 . S
C2799 C2798 1.394 . S
C2799 C2800 1.383 . S
C2799 H2807 0.929 . S
C2800 C2799 1.383 . S
C2800 C2801 1.377 . S
C2801 H2785 0.930 . S
C2801 C2800 1.377 . S
C2801 C2802 1.379 . S
C2802 H2786 0.931 . S
C2802 C2796 1.383 . S
C2802 C2801 1.379 . S
H2803 C2797 0.959 . S
H2804 C2797 0.961 . S
H2805 C2797 0.960 . S
H2806 C2798 0.930 . S
H2807 C2799 0.929 . S
H2808 C2816 0.929 . S
H2809 C2818 0.930 . S
H2810 C2820 0.930 . S
H2811 C2823 0.929 . S
H2812 C2826 0.930 . S
H2813 C2828 0.960 . S
H2814 C2828 0.960 . S
H2815 C2828 0.960 . S
C2816 H2808 0.929 . S
C2816 C2817 1.377 . S
C2816 C2818 1.384 . S
C2817 C2816 1.377 . S
C2817 C2823 1.390 . S
C2818 H2809 0.930 . S
C2818 C2816 1.384 . S
C2818 C2819 1.372 . S
C2819 C2818 1.372 . S
C2819 C2820 1.400 . S
C2819 C2824 1.490 . S
C2820 H2810 0.930 . S
C2820 C2819 1.400 . S
C2820 C2823 1.386 . S
H2821 C2837 0.930 1_556 S
H2822 C2838 0.931 . S
C2823 H2811 0.929 . S
C2823 C2817 1.390 . S
C2823 C2820 1.386 . S
C2824 C2819 1.490 . S
C2824 C2826 1.395 . S
C2824 C2827 1.403 . S
H2825 C2831 0.930 . S
C2826 H2812 0.930 . S
C2826 C2824 1.395 . S
C2826 C2829 1.403 . S
C2827 C2824 1.403 . S
C2827 C2828 1.524 . S
C2827 C2831 1.400 . S
C2828 H2813 0.960 . S
C2828 H2814 0.960 . S
C2828 H2815 0.960 . S
C2828 C2827 1.524 . S
C2829 C2826 1.403 . S
C2829 C2830 1.392 . S
C2829 C2833 1.495 . S
C2830 C2829 1.392 . S
C2830 C2831 1.385 . S
C2830 C2832 1.478 . S
C2831 H2825 0.930 . S
C2831 C2827 1.400 . S
C2831 C2830 1.385 . S
C2832 C2830 1.478 . S
C2832 C2834 1.381 . S
C2832 C2838 1.383 . S
C2833 C2829 1.495 . S
C2833 H2839 0.959 . S
C2833 H2840 0.961 . S
C2833 H2841 0.960 . S
C2834 C2832 1.381 . S
C2834 C2835 1.394 . S
C2834 H2842 0.930 . S
C2835 C2834 1.394 . S
C2835 C2836 1.383 . S
C2835 H2843 0.929 . S
C2836 C2835 1.383 . S
C2836 C2837 1.377 . S
C2837 H2821 0.930 1_554 S
C2837 C2836 1.377 . S
C2837 C2838 1.379 . S
C2838 H2822 0.931 . S
C2838 C2832 1.383 . S
C2838 C2837 1.379 . S
H2839 C2833 0.959 . S
H2840 C2833 0.961 . S
H2841 C2833 0.960 . S
H2842 C2834 0.930 . S
H2843 C2835 0.929 . S
H2844 C2852 0.929 . S
H2845 C2854 0.930 . S
H2846 C2856 0.930 . S
H2847 C2859 0.929 . S
H2848 C2862 0.930 . S
H2849 C2864 0.960 . S
H2850 C2864 0.960 . S
H2851 C2864 0.960 . S
C2852 H2844 0.929 . S
C2852 C2853 1.377 . S
C2852 C2854 1.384 . S
C2853 C2852 1.377 . S
C2853 C2859 1.390 . S
C2854 H2845 0.930 . S
C2854 C2852 1.384 . S
C2854 C2855 1.372 . S
C2855 C2854 1.372 . S
C2855 C2856 1.400 . S
C2855 C2860 1.490 . S
C2856 H2846 0.930 . S
C2856 C2855 1.400 . S
C2856 C2859 1.386 . S
H2857 C2873 0.930 1_554 S
H2858 C2874 0.931 . S
C2859 H2847 0.929 . S
C2859 C2853 1.390 . S
C2859 C2856 1.386 . S
C2860 C2855 1.490 . S
C2860 C2862 1.395 . S
C2860 C2863 1.403 . S
H2861 C2867 0.930 . S
C2862 H2848 0.930 . S
C2862 C2860 1.395 . S
C2862 C2865 1.403 . S
C2863 C2860 1.403 . S
C2863 C2864 1.524 . S
C2863 C2867 1.400 . S
C2864 H2849 0.960 . S
C2864 H2850 0.960 . S
C2864 H2851 0.960 . S
C2864 C2863 1.524 . S
C2865 C2862 1.403 . S
C2865 C2866 1.392 . S
C2865 C2869 1.495 . S
C2866 C2865 1.392 . S
C2866 C2867 1.385 . S
C2866 C2868 1.478 . S
C2867 H2861 0.930 . S
C2867 C2863 1.400 . S
C2867 C2866 1.385 . S
C2868 C2866 1.478 . S
C2868 C2870 1.381 . S
C2868 C2874 1.383 . S
C2869 C2865 1.495 . S
C2869 H2875 0.959 . S
C2869 H2876 0.961 . S
C2869 H2877 0.960 . S
C2870 C2868 1.381 . S
C2870 C2871 1.394 . S
C2870 H2878 0.930 . S
C2871 C2870 1.394 . S
C2871 C2872 1.383 . S
C2871 H2879 0.929 . S
C2872 C2871 1.383 . S
C2872 C2873 1.377 . S
C2873 H2857 0.930 1_556 S
C2873 C2872 1.377 . S
C2873 C2874 1.379 . S
C2874 H2858 0.931 . S
C2874 C2868 1.383 . S
C2874 C2873 1.379 . S
H2875 C2869 0.959 . S
H2876 C2869 0.961 . S
H2877 C2869 0.960 . S
H2878 C2870 0.930 . S
H2879 C2871 0.929 . S
H2880 C2888 0.929 . S
H2881 C2890 0.930 . S
H2882 C2892 0.930 . S
H2883 C2895 0.929 . S
H2884 C2898 0.930 . S
H2885 C2900 0.960 . S
H2886 C2900 0.960 . S
H2887 C2900 0.960 . S
C2888 H2880 0.929 . S
C2888 C2889 1.377 . S
C2888 C2890 1.384 . S
C2889 C2888 1.377 . S
C2889 C2895 1.390 . S
C2890 H2881 0.930 . S
C2890 C2888 1.384 . S
C2890 C2891 1.372 . S
C2891 C2890 1.372 . S
C2891 C2892 1.400 . S
C2891 C2896 1.490 . S
C2892 H2882 0.930 . S
C2892 C2891 1.400 . S
C2892 C2895 1.386 . S
H2893 C2909 0.930 . S
H2894 C2910 0.931 . S
C2895 H2883 0.929 . S
C2895 C2889 1.390 . S
C2895 C2892 1.386 . S
C2896 C2891 1.490 . S
C2896 C2898 1.395 . S
C2896 C2899 1.403 . S
H2897 C2903 0.930 . S
C2898 H2884 0.930 . S
C2898 C2896 1.395 . S
C2898 C2901 1.403 . S
C2899 C2896 1.403 . S
C2899 C2900 1.524 . S
C2899 C2903 1.400 . S
C2900 H2885 0.960 . S
C2900 H2886 0.960 . S
C2900 H2887 0.960 . S
C2900 C2899 1.524 . S
C2901 C2898 1.403 . S
C2901 C2902 1.392 . S
C2901 C2905 1.495 . S
C2902 C2901 1.392 . S
C2902 C2903 1.385 . S
C2902 C2904 1.478 . S
C2903 H2897 0.930 . S
C2903 C2899 1.400 . S
C2903 C2902 1.385 . S
C2904 C2902 1.478 . S
C2904 C2906 1.381 . S
C2904 C2910 1.383 . S
C2905 C2901 1.495 . S
C2905 H2911 0.959 . S
C2905 H2912 0.961 . S
C2905 H2913 0.960 . S
C2906 C2904 1.381 . S
C2906 C2907 1.394 . S
C2906 H2914 0.930 . S
C2907 C2906 1.394 . S
C2907 C2908 1.383 . S
C2907 H2915 0.929 . S
C2908 C2907 1.383 . S
C2908 C2909 1.377 . S
C2909 H2893 0.930 . S
C2909 C2908 1.377 . S
C2909 C2910 1.379 . S
C2910 H2894 0.931 . S
C2910 C2904 1.383 . S
C2910 C2909 1.379 . S
H2911 C2905 0.959 . S
H2912 C2905 0.961 . S
H2913 C2905 0.960 . S
H2914 C2906 0.930 . S
H2915 C2907 0.929 . S
H2916 C2924 0.929 . S
H2917 C2926 0.930 . S
H2918 C2928 0.930 . S
H2919 C2931 0.929 . S
H2920 C2934 0.930 . S
H2921 C2936 0.960 . S
H2922 C2936 0.960 . S
H2923 C2936 0.960 . S
C2924 H2916 0.929 . S
C2924 C2925 1.377 . S
C2924 C2926 1.384 . S
C2925 C2924 1.377 . S
C2925 C2931 1.390 . S
C2926 H2917 0.930 . S
C2926 C2924 1.384 . S
C2926 C2927 1.372 . S
C2927 C2926 1.372 . S
C2927 C2928 1.400 . S
C2927 C2932 1.490 . S
C2928 H2918 0.930 . S
C2928 C2927 1.400 . S
C2928 C2931 1.386 . S
H2929 C2945 0.930 . S
H2930 C2946 0.931 . S
C2931 H2919 0.929 . S
C2931 C2925 1.390 . S
C2931 C2928 1.386 . S
C2932 C2927 1.490 . S
C2932 C2934 1.395 . S
C2932 C2935 1.403 . S
H2933 C2939 0.930 . S
C2934 H2920 0.930 . S
C2934 C2932 1.395 . S
C2934 C2937 1.403 . S
C2935 C2932 1.403 . S
C2935 C2936 1.524 . S
C2935 C2939 1.400 . S
C2936 H2921 0.960 . S
C2936 H2922 0.960 . S
C2936 H2923 0.960 . S
C2936 C2935 1.524 . S
C2937 C2934 1.403 . S
C2937 C2938 1.392 . S
C2937 C2941 1.495 . S
C2938 C2937 1.392 . S
C2938 C2939 1.385 . S
C2938 C2940 1.478 . S
C2939 H2933 0.930 . S
C2939 C2935 1.400 . S
C2939 C2938 1.385 . S
C2940 C2938 1.478 . S
C2940 C2942 1.381 . S
C2940 C2946 1.383 . S
C2941 C2937 1.495 . S
C2941 H2947 0.959 . S
C2941 H2948 0.961 . S
C2941 H2949 0.960 . S
C2942 C2940 1.381 . S
C2942 C2943 1.394 . S
C2942 H2950 0.930 . S
C2943 C2942 1.394 . S
C2943 C2944 1.383 . S
C2943 H2951 0.929 1_556 S
C2944 C2943 1.383 . S
C2944 C2945 1.377 . S
C2945 H2929 0.930 . S
C2945 C2944 1.377 . S
C2945 C2946 1.379 . S
C2946 H2930 0.931 . S
C2946 C2940 1.383 . S
C2946 C2945 1.379 . S
H2947 C2941 0.959 . S
H2948 C2941 0.961 . S
H2949 C2941 0.960 . S
H2950 C2942 0.930 . S
H2951 C2943 0.929 1_554 S
H2952 C2960 0.929 . S
H2953 C2962 0.930 . S
H2954 C2964 0.930 . S
H2955 C2967 0.929 . S
H2956 C2970 0.906 . S
H2957 C2972 0.960 . S
H2958 C2972 0.960 . S
H2959 C2972 0.960 . S
C2960 H2952 0.929 . S
C2960 C2961 1.377 . S
C2960 C2962 1.384 . S
C2961 C2960 1.377 . S
C2961 C2967 1.390 . S
C2962 H2953 0.930 . S
C2962 C2960 1.384 . S
C2962 C2963 1.372 . S
C2963 C2962 1.372 . S
C2963 C2964 1.400 . S
C2963 C2968 1.490 . S
C2964 H2954 0.930 . S
C2964 C2963 1.400 . S
C2964 C2967 1.386 . S
H2965 C2981 0.930 . S
H2966 C2982 0.931 . S
C2967 H2955 0.929 . S
C2967 C2961 1.390 . S
C2967 C2964 1.386 . S
C2968 C2963 1.490 . S
C2968 C2970 1.388 . S
C2968 C2971 1.403 . S
H2969 C2975 0.930 . S
C2970 H2956 0.906 . S
C2970 C2968 1.388 . S
C2970 C2973 1.415 1_455 S
C2971 C2968 1.403 . S
C2971 C2972 1.524 . S
C2971 C2975 1.400 1_455 S
C2972 H2957 0.960 . S
C2972 H2958 0.960 . S
C2972 H2959 0.960 . S
C2972 C2971 1.524 . S
C2973 C2970 1.415 1_655 S
C2973 C2974 1.392 . S
C2973 C2977 1.495 . S
C2974 C2973 1.392 . S
C2974 C2975 1.385 . S
C2974 C2976 1.478 . S
C2975 H2969 0.930 . S
C2975 C2971 1.400 1_655 S
C2975 C2974 1.385 . S
C2976 C2974 1.478 . S
C2976 C2978 1.381 . S
C2976 C2982 1.383 . S
C2977 C2973 1.495 . S
C2977 H2983 0.959 . S
C2977 H2984 0.961 . S
C2977 H2985 0.960 . S
C2978 C2976 1.381 . S
C2978 C2979 1.394 . S
C2978 H2986 0.930 . S
C2979 C2978 1.394 . S
C2979 C2980 1.383 . S
C2979 H2987 0.929 . S
C2980 C2979 1.383 . S
C2980 C2981 1.377 . S
C2981 H2965 0.930 . S
C2981 C2980 1.377 . S
C2981 C2982 1.379 . S
C2982 H2966 0.931 . S
C2982 C2976 1.383 . S
C2982 C2981 1.379 . S
H2983 C2977 0.959 . S
H2984 C2977 0.961 . S
H2985 C2977 0.960 . S
H2986 C2978 0.930 . S
H2987 C2979 0.929 . S
H2988 C2996 0.929 . S
H2989 C2998 0.930 . S
H2990 C3000 0.930 . S
H2991 C3003 0.929 . S
H2992 C3006 0.930 . S
H2993 C3008 0.960 . S
H2994 C3008 0.960 . S
H2995 C3008 0.960 . S
C2996 H2988 0.929 . S
C2996 C2997 1.377 . S
C2996 C2998 1.384 . S
C2997 C2996 1.377 . S
C2997 C3003 1.390 . S
C2998 H2989 0.930 . S
C2998 C2996 1.384 . S
C2998 C2999 1.372 . S
C2999 C2998 1.372 . S
C2999 C3000 1.400 . S
C2999 C3004 1.490 . S
C3000 H2990 0.930 . S
C3000 C2999 1.400 . S
C3000 C3003 1.386 . S
H3001 C3017 0.930 . S
H3002 C3018 0.931 . S
C3003 H2991 0.929 . S
C3003 C2997 1.390 . S
C3003 C3000 1.386 . S
C3004 C2999 1.490 . S
C3004 C3006 1.395 . S
C3004 C3007 1.403 . S
H3005 C3011 0.930 . S
C3006 H2992 0.930 . S
C3006 C3004 1.395 . S
C3006 C3009 1.403 . S
C3007 C3004 1.403 . S
C3007 C3008 1.524 . S
C3007 C3011 1.400 . S
C3008 H2993 0.960 . S
C3008 H2994 0.960 . S
C3008 H2995 0.960 . S
C3008 C3007 1.524 . S
C3009 C3006 1.403 . S
C3009 C3010 1.392 . S
C3009 C3013 1.495 . S
C3010 C3009 1.392 . S
C3010 C3011 1.385 . S
C3010 C3012 1.478 . S
C3011 H3005 0.930 . S
C3011 C3007 1.400 . S
C3011 C3010 1.385 . S
C3012 C3010 1.478 . S
C3012 C3014 1.381 . S
C3012 C3018 1.383 . S
C3013 C3009 1.495 . S
C3013 H3019 0.959 . S
C3013 H3020 0.961 . S
C3013 H3021 0.960 . S
C3014 C3012 1.381 . S
C3014 C3015 1.394 . S
C3014 H3022 0.930 . S
C3015 C3014 1.394 . S
C3015 C3016 1.383 . S
C3015 H3023 0.929 . S
C3016 C3015 1.383 . S
C3016 C3017 1.377 . S
C3017 H3001 0.930 . S
C3017 C3016 1.377 . S
C3017 C3018 1.379 . S
C3018 H3002 0.931 . S
C3018 C3012 1.383 . S
C3018 C3017 1.379 . S
H3019 C3013 0.959 . S
H3020 C3013 0.961 . S
H3021 C3013 0.960 . S
H3022 C3014 0.930 . S
H3023 C3015 0.929 . S
H3024 C3032 0.929 . S
H3025 C3034 0.930 . S
H3026 C3036 0.930 . S
H3027 C3039 0.929 . S
H3028 C3042 0.930 . S
H3029 C3044 0.960 1_545 S
H3030 C3044 0.960 . S
H3031 C3044 0.960 . S
C3032 H3024 0.929 . S
C3032 C3033 1.377 . S
C3032 C3034 1.384 . S
C3033 C3032 1.377 . S
C3033 C3039 1.390 . S
C3034 H3025 0.930 . S
C3034 C3032 1.384 . S
C3034 C3035 1.372 . S
C3035 C3034 1.372 . S
C3035 C3036 1.400 . S
C3035 C3040 1.490 . S
C3036 H3026 0.930 . S
C3036 C3035 1.400 . S
C3036 C3039 1.386 . S
H3037 C3053 0.930 . S
H3038 C3054 0.931 . S
C3039 H3027 0.929 . S
C3039 C3033 1.390 . S
C3039 C3036 1.386 . S
C3040 C3035 1.490 . S
C3040 C3042 1.395 . S
C3040 C3043 1.403 . S
H3041 C3047 0.930 . S
C3042 H3028 0.930 . S
C3042 C3040 1.395 . S
C3042 C3045 1.403 1_565 S
C3043 C3040 1.403 . S
C3043 C3044 1.524 . S
C3043 C3047 1.400 1_565 S
C3044 H3029 0.960 1_565 S
C3044 H3030 0.960 . S
C3044 H3031 0.960 . S
C3044 C3043 1.524 . S
C3045 C3042 1.403 1_545 S
C3045 C3046 1.392 . S
C3045 C3049 1.495 . S
C3046 C3045 1.392 . S
C3046 C3047 1.385 . S
C3046 C3048 1.478 . S
C3047 H3041 0.930 . S
C3047 C3043 1.400 1_545 S
C3047 C3046 1.385 . S
C3048 C3046 1.478 . S
C3048 C3050 1.381 . S
C3048 C3054 1.383 . S
C3049 C3045 1.495 . S
C3049 H3055 0.959 1_545 S
C3049 H3056 0.961 . S
C3049 H3057 0.960 . S
C3050 C3048 1.381 . S
C3050 C3051 1.394 . S
C3050 H3058 0.930 . S
C3051 C3050 1.394 . S
C3051 C3052 1.383 . S
C3051 H3059 0.929 . S
C3052 C3051 1.383 . S
C3052 C3053 1.377 . S
C3053 H3037 0.930 . S
C3053 C3052 1.377 . S
C3053 C3054 1.379 . S
C3054 H3038 0.931 . S
C3054 C3048 1.383 . S
C3054 C3053 1.379 . S
H3055 C3049 0.959 1_565 S
H3056 C3049 0.961 . S
H3057 C3049 0.960 . S
H3058 C3050 0.930 . S
H3059 C3051 0.929 . S
H3060 C3068 0.929 . S
H3061 C3070 0.930 . S
H3062 C3072 0.930 . S
H3063 C3075 0.929 . S
H3064 C3078 0.919 . S
H3065 C3080 0.960 . S
H3066 C3080 0.960 . S
H3067 C3080 0.960 . S
C3068 H3060 0.929 . S
C3068 C3069 1.377 . S
C3068 C3070 1.384 . S
C3069 C3068 1.377 . S
C3069 C3075 1.390 . S
C3070 H3061 0.930 . S
C3070 C3068 1.384 . S
C3070 C3071 1.372 . S
C3071 C3070 1.372 . S
C3071 C3072 1.400 . S
C3071 C3076 1.490 . S
C3072 H3062 0.930 . S
C3072 C3071 1.400 . S
C3072 C3075 1.386 . S
H3073 C3089 0.930 . S
H3074 C3090 0.931 . S
C3075 H3063 0.929 . S
C3075 C3069 1.390 . S
C3075 C3072 1.386 . S
C3076 C3071 1.490 . S
C3076 C3078 1.476 . S
C3076 C3079 1.403 . S
H3077 C3083 0.930 . S
C3078 H3064 0.919 . S
C3078 C3076 1.476 . S
C3078 C3081 1.338 1_565 S
C3079 C3076 1.403 . S
C3079 C3080 1.524 . S
C3079 C3083 1.400 1_565 S
C3080 H3065 0.960 . S
C3080 H3066 0.960 . S
C3080 H3067 0.960 . S
C3080 C3079 1.524 . S
C3081 C3078 1.338 1_545 S
C3081 C3082 1.392 . S
C3081 C3085 1.495 . S
C3082 C3081 1.392 . S
C3082 C3083 1.385 . S
C3082 C3084 1.478 . S
C3083 H3077 0.930 . S
C3083 C3079 1.400 1_545 S
C3083 C3082 1.385 . S
C3084 C3082 1.478 . S
C3084 C3086 1.381 . S
C3084 C3090 1.383 . S
C3085 C3081 1.495 . S
C3085 H3091 0.959 . S
C3085 H3092 0.961 . S
C3085 H3093 0.960 . S
C3086 C3084 1.381 . S
C3086 C3087 1.394 . S
C3086 H3094 0.930 . S
C3087 C3086 1.394 . S
C3087 C3088 1.383 . S
C3087 H3095 0.929 . S
C3088 C3087 1.383 . S
C3088 C3089 1.377 . S
C3089 H3073 0.930 . S
C3089 C3088 1.377 . S
C3089 C3090 1.379 . S
C3090 H3074 0.931 . S
C3090 C3084 1.383 . S
C3090 C3089 1.379 . S
H3091 C3085 0.959 . S
H3092 C3085 0.961 . S
H3093 C3085 0.960 . S
H3094 C3086 0.930 . S
H3095 C3087 0.929 . S
H3096 C3104 0.929 . S
H3097 C3106 0.930 . S
H3098 C3108 0.930 . S
H3099 C3111 0.929 . S
H3100 C3114 0.930 . S
H3101 C3116 0.997 . S
H3102 C3116 0.944 1_455 S
H3103 C3116 0.949 1_455 S
C3104 H3096 0.929 . S
C3104 C3105 1.377 . S
C3104 C3106 1.384 . S
C3105 C3104 1.377 . S
C3105 C3111 1.390 . S
C3106 H3097 0.930 . S
C3106 C3104 1.384 . S
C3106 C3107 1.372 . S
C3107 C3106 1.372 . S
C3107 C3108 1.400 . S
C3107 C3112 1.490 . S
C3108 H3098 0.930 . S
C3108 C3107 1.400 . S
C3108 C3111 1.386 . S
H3109 C3125 0.930 . S
H3110 C3126 0.931 . S
C3111 H3099 0.929 . S
C3111 C3105 1.390 . S
C3111 C3108 1.386 . S
C3112 C3107 1.490 . S
C3112 C3114 1.395 . S
C3112 C3115 1.429 . S
H3113 C3119 0.930 . S
C3114 H3100 0.930 . S
C3114 C3112 1.395 . S
C3114 C3117 1.405 . S
C3115 C3112 1.429 . S
C3115 C3116 1.503 1_455 S
C3115 C3119 1.383 1_455 S
C3116 H3101 0.997 . S
C3116 H3102 0.944 1_655 S
C3116 H3103 0.949 1_655 S
C3116 C3115 1.503 1_655 S
C3117 C3114 1.405 . S
C3117 C3118 1.390 1_455 S
C3117 C3121 1.480 . S
C3118 C3117 1.390 1_655 S
C3118 C3119 1.385 . S
C3118 C3120 1.478 . S
C3119 H3113 0.930 . S
C3119 C3115 1.383 1_655 S
C3119 C3118 1.385 . S
C3120 C3118 1.478 . S
C3120 C3122 1.381 . S
C3120 C3126 1.383 . S
C3121 C3117 1.480 . S
C3121 H3127 1.009 . S
C3121 H3128 0.939 1_455 S
C3121 H3129 0.945 1_455 S
C3122 C3120 1.381 . S
C3122 C3123 1.394 . S
C3122 H3130 0.930 . S
C3123 C3122 1.394 . S
C3123 C3124 1.383 . S
C3123 H3131 0.929 . S
C3124 C3123 1.383 . S
C3124 C3125 1.377 . S
C3125 H3109 0.930 . S
C3125 C3124 1.377 . S
C3125 C3126 1.379 . S
C3126 H3110 0.931 . S
C3126 C3120 1.383 . S
C3126 C3125 1.379 . S
H3127 C3121 1.009 . S
H3128 C3121 0.939 1_655 S
H3129 C3121 0.945 1_655 S
H3130 C3122 0.930 . S
H3131 C3123 0.929 . S
H3132 C3140 0.929 . S
H3133 C3142 0.930 . S
H3134 C3144 0.930 . S
H3135 C3147 0.929 . S
H3136 C3150 0.930 . S
H3137 C3152 0.960 . S
H3138 C3152 0.960 . S
H3139 C3152 0.960 . S
C3140 H3132 0.929 . S
C3140 C3141 1.377 . S
C3140 C3142 1.384 . S
C3141 C3140 1.377 . S
C3141 C3147 1.390 . S
C3142 H3133 0.930 . S
C3142 C3140 1.384 . S
C3142 C3143 1.372 . S
C3143 C3142 1.372 . S
C3143 C3144 1.400 . S
C3143 C3148 1.490 . S
C3144 H3134 0.930 . S
C3144 C3143 1.400 . S
C3144 C3147 1.386 . S
H3145 C3161 0.930 . S
H3146 C3162 0.931 . S
C3147 H3135 0.929 . S
C3147 C3141 1.390 . S
C3147 C3144 1.386 . S
C3148 C3143 1.490 . S
C3148 C3150 1.395 . S
C3148 C3151 1.403 . S
H3149 C3155 0.930 . S
C3150 H3136 0.930 . S
C3150 C3148 1.395 . S
C3150 C3153 1.403 . S
C3151 C3148 1.403 . S
C3151 C3152 1.524 . S
C3151 C3155 1.400 . S
C3152 H3137 0.960 . S
C3152 H3138 0.960 . S
C3152 H3139 0.960 . S
C3152 C3151 1.524 . S
C3153 C3150 1.403 . S
C3153 C3154 1.392 . S
C3153 C3157 1.495 . S
C3154 C3153 1.392 . S
C3154 C3155 1.385 . S
C3154 C3156 1.478 . S
C3155 H3149 0.930 . S
C3155 C3151 1.400 . S
C3155 C3154 1.385 . S
C3156 C3154 1.478 . S
C3156 C3158 1.381 . S
C3156 C3162 1.383 . S
C3157 C3153 1.495 . S
C3157 H3163 0.959 . S
C3157 H3164 0.961 . S
C3157 H3165 0.960 . S
C3158 C3156 1.381 . S
C3158 C3159 1.394 . S
C3158 H3166 0.930 . S
C3159 C3158 1.394 . S
C3159 C3160 1.383 . S
C3159 H3167 0.929 . S
C3160 C3159 1.383 . S
C3160 C3161 1.377 . S
C3161 H3145 0.930 . S
C3161 C3160 1.377 . S
C3161 C3162 1.379 . S
C3162 H3146 0.931 . S
C3162 C3156 1.383 . S
C3162 C3161 1.379 . S
H3163 C3157 0.959 . S
H3164 C3157 0.961 . S
H3165 C3157 0.960 . S
H3166 C3158 0.930 . S
H3167 C3159 0.929 . S
H3168 C3176 0.929 . S
H3169 C3178 0.930 . S
H3170 C3180 0.930 . S
H3171 C3183 0.929 . S
H3172 C3186 0.930 . S
H3173 C3188 0.960 . S
H3174 C3188 0.960 . S
H3175 C3188 0.960 . S
C3176 H3168 0.929 . S
C3176 C3177 1.377 . S
C3176 C3178 1.384 . S
C3177 C3176 1.377 . S
C3177 C3183 1.390 . S
C3178 H3169 0.930 . S
C3178 C3176 1.384 . S
C3178 C3179 1.372 . S
C3179 C3178 1.372 . S
C3179 C3180 1.400 . S
C3179 C3184 1.490 . S
C3180 H3170 0.930 . S
C3180 C3179 1.400 . S
C3180 C3183 1.386 . S
H3181 C3197 0.930 . S
H3182 C3198 0.931 . S
C3183 H3171 0.929 . S
C3183 C3177 1.390 . S
C3183 C3180 1.386 . S
C3184 C3179 1.490 . S
C3184 C3186 1.395 . S
C3184 C3187 1.403 . S
H3185 C3191 0.930 . S
C3186 H3172 0.930 . S
C3186 C3184 1.395 . S
C3186 C3189 1.403 . S
C3187 C3184 1.403 . S
C3187 C3188 1.524 . S
C3187 C3191 1.400 . S
C3188 H3173 0.960 . S
C3188 H3174 0.960 . S
C3188 H3175 0.960 . S
C3188 C3187 1.524 . S
C3189 C3186 1.403 . S
C3189 C3190 1.392 . S
C3189 C3193 1.495 . S
C3190 C3189 1.392 . S
C3190 C3191 1.385 . S
C3190 C3192 1.478 . S
C3191 H3185 0.930 . S
C3191 C3187 1.400 . S
C3191 C3190 1.385 . S
C3192 C3190 1.478 . S
C3192 C3194 1.381 . S
C3192 C3198 1.383 . S
C3193 C3189 1.495 . S
C3193 H3199 0.959 . S
C3193 H3200 0.961 . S
C3193 H3201 0.960 . S
C3194 C3192 1.381 . S
C3194 C3195 1.394 . S
C3194 H3202 0.930 . S
C3195 C3194 1.394 . S
C3195 C3196 1.383 . S
C3195 H3203 0.929 . S
C3196 C3195 1.383 . S
C3196 C3197 1.377 . S
C3197 H3181 0.930 . S
C3197 C3196 1.377 . S
C3197 C3198 1.379 . S
C3198 H3182 0.931 . S
C3198 C3192 1.383 . S
C3198 C3197 1.379 . S
H3199 C3193 0.959 . S
H3200 C3193 0.961 . S
H3201 C3193 0.960 . S
H3202 C3194 0.930 . S
H3203 C3195 0.929 . S
H3204 C3212 0.929 . S
H3205 C3214 0.930 . S
H3206 C3216 0.930 . S
H3207 C3219 0.929 . S
H3208 C3222 0.930 . S
H3209 C3224 0.960 . S
H3210 C3224 0.960 . S
H3211 C3224 0.960 . S
C3212 H3204 0.929 . S
C3212 C3213 1.377 . S
C3212 C3214 1.384 . S
C3213 C3212 1.377 . S
C3213 C3219 1.390 . S
C3214 H3205 0.930 . S
C3214 C3212 1.384 . S
C3214 C3215 1.372 . S
C3215 C3214 1.372 . S
C3215 C3216 1.400 . S
C3215 C3220 1.490 . S
C3216 H3206 0.930 . S
C3216 C3215 1.400 . S
C3216 C3219 1.386 . S
H3217 C3233 0.930 . S
H3218 C3234 0.931 . S
C3219 H3207 0.929 . S
C3219 C3213 1.390 . S
C3219 C3216 1.386 . S
C3220 C3215 1.490 . S
C3220 C3222 1.395 . S
C3220 C3223 1.403 . S
H3221 C3227 0.930 . S
C3222 H3208 0.930 . S
C3222 C3220 1.395 . S
C3222 C3225 1.403 . S
C3223 C3220 1.403 . S
C3223 C3224 1.524 . S
C3223 C3227 1.400 . S
C3224 H3209 0.960 . S
C3224 H3210 0.960 . S
C3224 H3211 0.960 . S
C3224 C3223 1.524 . S
C3225 C3222 1.403 . S
C3225 C3226 1.392 . S
C3225 C3229 1.495 . S
C3226 C3225 1.392 . S
C3226 C3227 1.385 . S
C3226 C3228 1.478 . S
C3227 H3221 0.930 . S
C3227 C3223 1.400 . S
C3227 C3226 1.385 . S
C3228 C3226 1.478 . S
C3228 C3230 1.381 . S
C3228 C3234 1.383 . S
C3229 C3225 1.495 . S
C3229 H3235 0.959 . S
C3229 H3236 0.961 . S
C3229 H3237 0.960 . S
C3230 C3228 1.381 . S
C3230 C3231 1.394 . S
C3230 H3238 0.930 . S
C3231 C3230 1.394 . S
C3231 C3232 1.383 . S
C3231 H3239 0.929 . S
C3232 C3231 1.383 . S
C3232 C3233 1.377 . S
C3233 H3217 0.930 . S
C3233 C3232 1.377 . S
C3233 C3234 1.379 . S
C3234 H3218 0.931 . S
C3234 C3228 1.383 . S
C3234 C3233 1.379 . S
H3235 C3229 0.959 . S
H3236 C3229 0.961 . S
H3237 C3229 0.960 . S
H3238 C3230 0.930 . S
H3239 C3231 0.929 . S
H3240 C3248 0.929 . S
H3241 C3250 0.930 . S
H3242 C3252 0.930 . S
H3243 C3255 0.929 . S
H3244 C3258 0.930 . S
H3245 C3260 0.960 . S
H3246 C3260 0.960 . S
H3247 C3260 0.960 . S
C3248 H3240 0.929 . S
C3248 C3249 1.377 . S
C3248 C3250 1.384 . S
C3249 C3248 1.377 . S
C3249 C3255 1.390 . S
C3250 H3241 0.930 . S
C3250 C3248 1.384 . S
C3250 C3251 1.372 . S
C3251 C3250 1.372 . S
C3251 C3252 1.400 . S
C3251 C3256 1.490 . S
C3252 H3242 0.930 . S
C3252 C3251 1.400 . S
C3252 C3255 1.386 . S
H3253 C3269 0.930 . S
H3254 C3270 0.931 . S
C3255 H3243 0.929 . S
C3255 C3249 1.390 . S
C3255 C3252 1.386 . S
C3256 C3251 1.490 . S
C3256 C3258 1.395 . S
C3256 C3259 1.403 . S
H3257 C3263 0.930 . S
C3258 H3244 0.930 . S
C3258 C3256 1.395 . S
C3258 C3261 1.403 . S
C3259 C3256 1.403 . S
C3259 C3260 1.524 . S
C3259 C3263 1.400 . S
C3260 H3245 0.960 . S
C3260 H3246 0.960 . S
C3260 H3247 0.960 . S
C3260 C3259 1.524 . S
C3261 C3258 1.403 . S
C3261 C3262 1.392 . S
C3261 C3265 1.495 . S
C3262 C3261 1.392 . S
C3262 C3263 1.385 . S
C3262 C3264 1.478 . S
C3263 H3257 0.930 . S
C3263 C3259 1.400 . S
C3263 C3262 1.385 . S
C3264 C3262 1.478 . S
C3264 C3266 1.381 . S
C3264 C3270 1.383 . S
C3265 C3261 1.495 . S
C3265 H3271 0.959 . S
C3265 H3272 0.961 . S
C3265 H3273 0.960 . S
C3266 C3264 1.381 . S
C3266 C3267 1.394 . S
C3266 H3274 0.930 . S
C3267 C3266 1.394 . S
C3267 C3268 1.383 . S
C3267 H3275 0.929 . S
C3268 C3267 1.383 . S
C3268 C3269 1.377 . S
C3269 H3253 0.930 . S
C3269 C3268 1.377 . S
C3269 C3270 1.379 . S
C3270 H3254 0.931 . S
C3270 C3264 1.383 . S
C3270 C3269 1.379 . S
H3271 C3265 0.959 . S
H3272 C3265 0.961 . S
H3273 C3265 0.960 . S
H3274 C3266 0.930 . S
H3275 C3267 0.929 . S
H3276 C3284 0.929 . S
H3277 C3286 0.930 . S
H3278 C3288 0.930 . S
H3279 C3291 0.929 . S
H3280 C3294 0.930 . S
H3281 C3296 0.960 . S
H3282 C3296 0.960 . S
H3283 C3296 0.960 . S
C3284 H3276 0.929 . S
C3284 C3285 1.377 . S
C3284 C3286 1.384 . S
C3285 C3284 1.377 . S
C3285 C3291 1.390 . S
C3286 H3277 0.930 . S
C3286 C3284 1.384 . S
C3286 C3287 1.372 . S
C3287 C3286 1.372 . S
C3287 C3288 1.400 . S
C3287 C3292 1.490 . S
C3288 H3278 0.930 . S
C3288 C3287 1.400 . S
C3288 C3291 1.386 . S
H3289 C3305 0.930 . S
H3290 C3306 0.931 . S
C3291 H3279 0.929 . S
C3291 C3285 1.390 . S
C3291 C3288 1.386 . S
C3292 C3287 1.490 . S
C3292 C3294 1.395 . S
C3292 C3295 1.403 . S
H3293 C3299 0.930 . S
C3294 H3280 0.930 . S
C3294 C3292 1.395 . S
C3294 C3297 1.403 . S
C3295 C3292 1.403 . S
C3295 C3296 1.524 . S
C3295 C3299 1.400 . S
C3296 H3281 0.960 . S
C3296 H3282 0.960 . S
C3296 H3283 0.960 . S
C3296 C3295 1.524 . S
C3297 C3294 1.403 . S
C3297 C3298 1.392 . S
C3297 C3301 1.495 . S
C3298 C3297 1.392 . S
C3298 C3299 1.385 . S
C3298 C3300 1.478 . S
C3299 H3293 0.930 . S
C3299 C3295 1.400 . S
C3299 C3298 1.385 . S
C3300 C3298 1.478 . S
C3300 C3302 1.381 . S
C3300 C3306 1.383 . S
C3301 C3297 1.495 . S
C3301 H3307 0.959 . S
C3301 H3308 0.961 . S
C3301 H3309 0.960 . S
C3302 C3300 1.381 . S
C3302 C3303 1.394 . S
C3302 H3310 0.930 . S
C3303 C3302 1.394 . S
C3303 C3304 1.383 . S
C3303 H3311 0.929 . S
C3304 C3303 1.383 . S
C3304 C3305 1.377 . S
C3305 H3289 0.930 . S
C3305 C3304 1.377 . S
C3305 C3306 1.379 . S
C3306 H3290 0.931 . S
C3306 C3300 1.383 . S
C3306 C3305 1.379 . S
H3307 C3301 0.959 . S
H3308 C3301 0.961 . S
H3309 C3301 0.960 . S
H3310 C3302 0.930 . S
H3311 C3303 0.929 . S
H3312 C3320 0.929 . S
H3313 C3322 0.930 . S
H3314 C3324 0.930 . S
H3315 C3327 0.929 . S
H3316 C3330 0.930 . S
H3317 C3332 0.960 . S
H3318 C3332 0.960 . S
H3319 C3332 0.960 . S
C3320 H3312 0.929 . S
C3320 C3321 1.377 . S
C3320 C3322 1.384 . S
C3321 C3320 1.377 . S
C3321 C3327 1.390 . S
C3322 H3313 0.930 . S
C3322 C3320 1.384 . S
C3322 C3323 1.372 . S
C3323 C3322 1.372 . S
C3323 C3324 1.400 . S
C3323 C3328 1.490 . S
C3324 H3314 0.930 . S
C3324 C3323 1.400 . S
C3324 C3327 1.386 . S
H3325 C3341 0.930 . S
H3326 C3342 0.931 . S
C3327 H3315 0.929 . S
C3327 C3321 1.390 . S
C3327 C3324 1.386 . S
C3328 C3323 1.490 . S
C3328 C3330 1.395 . S
C3328 C3331 1.403 . S
H3329 C3335 0.930 . S
C3330 H3316 0.930 . S
C3330 C3328 1.395 . S
C3330 C3333 1.403 . S
C3331 C3328 1.403 . S
C3331 C3332 1.524 . S
C3331 C3335 1.400 . S
C3332 H3317 0.960 . S
C3332 H3318 0.960 . S
C3332 H3319 0.960 . S
C3332 C3331 1.524 . S
C3333 C3330 1.403 . S
C3333 C3334 1.392 . S
C3333 C3337 1.495 . S
C3334 C3333 1.392 . S
C3334 C3335 1.385 . S
C3334 C3336 1.478 . S
C3335 H3329 0.930 . S
C3335 C3331 1.400 . S
C3335 C3334 1.385 . S
C3336 C3334 1.478 . S
C3336 C3338 1.381 . S
C3336 C3342 1.383 . S
C3337 C3333 1.495 . S
C3337 H3343 0.959 . S
C3337 H3344 0.961 . S
C3337 H3345 0.960 . S
C3338 C3336 1.381 . S
C3338 C3339 1.394 . S
C3338 H3346 0.930 . S
C3339 C3338 1.394 . S
C3339 C3340 1.383 . S
C3339 H3347 0.929 . S
C3340 C3339 1.383 . S
C3340 C3341 1.377 . S
C3341 H3325 0.930 . S
C3341 C3340 1.377 . S
C3341 C3342 1.379 . S
C3342 H3326 0.931 . S
C3342 C3336 1.383 . S
C3342 C3341 1.379 . S
H3343 C3337 0.959 . S
H3344 C3337 0.961 . S
H3345 C3337 0.960 . S
H3346 C3338 0.930 . S
H3347 C3339 0.929 . S
H3348 C3356 0.929 . S
H3349 C3358 0.930 . S
H3350 C3360 0.930 . S
H3351 C3363 0.929 . S
H3352 C3366 0.930 . S
H3353 C3368 0.960 . S
H3354 C3368 0.960 . S
H3355 C3368 0.960 . S
C3356 H3348 0.929 . S
C3356 C3357 1.377 . S
C3356 C3358 1.384 . S
C3357 C3356 1.377 . S
C3357 C3363 1.390 . S
C3358 H3349 0.930 . S
C3358 C3356 1.384 . S
C3358 C3359 1.372 . S
C3359 C3358 1.372 . S
C3359 C3360 1.400 . S
C3359 C3364 1.490 . S
C3360 H3350 0.930 . S
C3360 C3359 1.400 . S
C3360 C3363 1.386 . S
H3361 C3377 0.930 . S
H3362 C3378 0.931 . S
C3363 H3351 0.929 . S
C3363 C3357 1.390 . S
C3363 C3360 1.386 . S
C3364 C3359 1.490 . S
C3364 C3366 1.395 . S
C3364 C3367 1.403 . S
H3365 C3371 0.930 . S
C3366 H3352 0.930 . S
C3366 C3364 1.395 . S
C3366 C3369 1.403 . S
C3367 C3364 1.403 . S
C3367 C3368 1.524 . S
C3367 C3371 1.400 . S
C3368 H3353 0.960 . S
C3368 H3354 0.960 . S
C3368 H3355 0.960 . S
C3368 C3367 1.524 . S
C3369 C3366 1.403 . S
C3369 C3370 1.392 . S
C3369 C3373 1.495 . S
C3370 C3369 1.392 . S
C3370 C3371 1.385 . S
C3370 C3372 1.478 . S
C3371 H3365 0.930 . S
C3371 C3367 1.400 . S
C3371 C3370 1.385 . S
C3372 C3370 1.478 . S
C3372 C3374 1.381 . S
C3372 C3378 1.383 . S
C3373 C3369 1.495 . S
C3373 H3379 0.959 . S
C3373 H3380 0.961 . S
C3373 H3381 0.960 . S
C3374 C3372 1.381 . S
C3374 C3375 1.394 . S
C3374 H3382 0.930 . S
C3375 C3374 1.394 . S
C3375 C3376 1.383 . S
C3375 H3383 0.929 . S
C3376 C3375 1.383 . S
C3376 C3377 1.377 . S
C3377 H3361 0.930 . S
C3377 C3376 1.377 . S
C3377 C3378 1.379 . S
C3378 H3362 0.931 . S
C3378 C3372 1.383 . S
C3378 C3377 1.379 . S
H3379 C3373 0.959 . S
H3380 C3373 0.961 . S
H3381 C3373 0.960 . S
H3382 C3374 0.930 . S
H3383 C3375 0.929 . S
H3384 C3392 0.929 . S
H3385 C3394 0.930 . S
H3386 C3396 0.930 . S
H3387 C3399 0.929 . S
H3388 C3402 0.930 . S
H3389 C3404 0.960 . S
H3390 C3404 0.960 . S
H3391 C3404 0.960 . S
C3392 H3384 0.929 . S
C3392 C3393 1.377 . S
C3392 C3394 1.384 . S
C3393 C3392 1.377 . S
C3393 C3399 1.390 . S
C3394 H3385 0.930 . S
C3394 C3392 1.384 . S
C3394 C3395 1.372 . S
C3395 C3394 1.372 . S
C3395 C3396 1.400 . S
C3395 C3400 1.490 . S
C3396 H3386 0.930 . S
C3396 C3395 1.400 . S
C3396 C3399 1.386 . S
H3397 C3413 0.930 . S
H3398 C3414 0.931 . S
C3399 H3387 0.929 . S
C3399 C3393 1.390 . S
C3399 C3396 1.386 . S
C3400 C3395 1.490 . S
C3400 C3402 1.395 . S
C3400 C3403 1.403 . S
H3401 C3407 0.930 . S
C3402 H3388 0.930 . S
C3402 C3400 1.395 . S
C3402 C3405 1.403 . S
C3403 C3400 1.403 . S
C3403 C3404 1.524 . S
C3403 C3407 1.400 . S
C3404 H3389 0.960 . S
C3404 H3390 0.960 . S
C3404 H3391 0.960 . S
C3404 C3403 1.524 . S
C3405 C3402 1.403 . S
C3405 C3406 1.392 . S
C3405 C3409 1.495 . S
C3406 C3405 1.392 . S
C3406 C3407 1.385 . S
C3406 C3408 1.478 . S
C3407 H3401 0.930 . S
C3407 C3403 1.400 . S
C3407 C3406 1.385 . S
C3408 C3406 1.478 . S
C3408 C3410 1.381 . S
C3408 C3414 1.383 . S
C3409 C3405 1.495 . S
C3409 H3415 0.959 . S
C3409 H3416 0.961 . S
C3409 H3417 0.960 . S
C3410 C3408 1.381 . S
C3410 C3411 1.394 . S
C3410 H3418 0.930 . S
C3411 C3410 1.394 . S
C3411 C3412 1.383 . S
C3411 H3419 0.929 . S
C3412 C3411 1.383 . S
C3412 C3413 1.377 . S
C3413 H3397 0.930 . S
C3413 C3412 1.377 . S
C3413 C3414 1.379 . S
C3414 H3398 0.931 . S
C3414 C3408 1.383 . S
C3414 C3413 1.379 . S
H3415 C3409 0.959 . S
H3416 C3409 0.961 . S
H3417 C3409 0.960 . S
H3418 C3410 0.930 . S
H3419 C3411 0.929 . S
H3420 C3428 0.929 . S
H3421 C3430 0.930 . S
H3422 C3432 0.930 . S
H3423 C3435 0.929 . S
H3424 C3438 0.930 . S
H3425 C3440 0.960 . S
H3426 C3440 0.960 . S
H3427 C3440 0.960 . S
C3428 H3420 0.929 . S
C3428 C3429 1.377 . S
C3428 C3430 1.384 . S
C3429 C3428 1.377 . S
C3429 C3435 1.390 . S
C3430 H3421 0.930 . S
C3430 C3428 1.384 . S
C3430 C3431 1.372 . S
C3431 C3430 1.372 . S
C3431 C3432 1.400 . S
C3431 C3436 1.490 . S
C3432 H3422 0.930 . S
C3432 C3431 1.400 . S
C3432 C3435 1.386 . S
H3433 C3449 0.930 . S
H3434 C3450 0.931 . S
C3435 H3423 0.929 . S
C3435 C3429 1.390 . S
C3435 C3432 1.386 . S
C3436 C3431 1.490 . S
C3436 C3438 1.395 . S
C3436 C3439 1.403 . S
H3437 C3443 0.930 . S
C3438 H3424 0.930 . S
C3438 C3436 1.395 . S
C3438 C3441 1.403 . S
C3439 C3436 1.403 . S
C3439 C3440 1.524 . S
C3439 C3443 1.400 . S
C3440 H3425 0.960 . S
C3440 H3426 0.960 . S
C3440 H3427 0.960 . S
C3440 C3439 1.524 . S
C3441 C3438 1.403 . S
C3441 C3442 1.392 . S
C3441 C3445 1.495 . S
C3442 C3441 1.392 . S
C3442 C3443 1.385 . S
C3442 C3444 1.478 . S
C3443 H3437 0.930 . S
C3443 C3439 1.400 . S
C3443 C3442 1.385 . S
C3444 C3442 1.478 . S
C3444 C3446 1.381 . S
C3444 C3450 1.383 . S
C3445 C3441 1.495 . S
C3445 H3451 0.959 . S
C3445 H3452 0.961 . S
C3445 H3453 0.960 . S
C3446 C3444 1.381 . S
C3446 C3447 1.394 . S
C3446 H3454 0.930 . S
C3447 C3446 1.394 . S
C3447 C3448 1.383 . S
C3447 H3455 0.929 . S
C3448 C3447 1.383 . S
C3448 C3449 1.377 . S
C3449 H3433 0.930 . S
C3449 C3448 1.377 . S
C3449 C3450 1.379 . S
C3450 H3434 0.931 . S
C3450 C3444 1.383 . S
C3450 C3449 1.379 . S
H3451 C3445 0.959 . S
H3452 C3445 0.961 . S
H3453 C3445 0.960 . S
H3454 C3446 0.930 . S
H3455 C3447 0.929 . S
H3456 C3464 0.929 . S
H3457 C3466 0.930 . S
H3458 C3468 0.930 . S
H3459 C3471 0.929 . S
H3460 C3474 0.930 . S
H3461 C3476 0.960 . S
H3462 C3476 0.960 . S
H3463 C3476 0.960 . S
C3464 H3456 0.929 . S
C3464 C3465 1.377 . S
C3464 C3466 1.384 . S
C3465 C3464 1.377 . S
C3465 C3471 1.390 . S
C3466 H3457 0.930 . S
C3466 C3464 1.384 . S
C3466 C3467 1.372 . S
C3467 C3466 1.372 . S
C3467 C3468 1.400 . S
C3467 C3472 1.490 . S
C3468 H3458 0.930 . S
C3468 C3467 1.400 . S
C3468 C3471 1.386 . S
H3469 C3485 0.930 . S
H3470 C3486 0.931 . S
C3471 H3459 0.929 . S
C3471 C3465 1.390 . S
C3471 C3468 1.386 . S
C3472 C3467 1.490 . S
C3472 C3474 1.395 . S
C3472 C3475 1.403 . S
H3473 C3479 0.930 . S
C3474 H3460 0.930 . S
C3474 C3472 1.395 . S
C3474 C3477 1.403 . S
C3475 C3472 1.403 . S
C3475 C3476 1.524 . S
C3475 C3479 1.400 . S
C3476 H3461 0.960 . S
C3476 H3462 0.960 . S
C3476 H3463 0.960 . S
C3476 C3475 1.524 . S
C3477 C3474 1.403 . S
C3477 C3478 1.392 . S
C3477 C3481 1.495 . S
C3478 C3477 1.392 . S
C3478 C3479 1.385 . S
C3478 C3480 1.478 . S
C3479 H3473 0.930 . S
C3479 C3475 1.400 . S
C3479 C3478 1.385 . S
C3480 C3478 1.478 . S
C3480 C3482 1.381 . S
C3480 C3486 1.383 . S
C3481 C3477 1.495 . S
C3481 H3487 0.959 . S
C3481 H3488 0.961 . S
C3481 H3489 0.960 . S
C3482 C3480 1.381 . S
C3482 C3483 1.394 . S
C3482 H3490 0.930 . S
C3483 C3482 1.394 . S
C3483 C3484 1.383 . S
C3483 H3491 0.929 . S
C3484 C3483 1.383 . S
C3484 C3485 1.377 . S
C3485 H3469 0.930 . S
C3485 C3484 1.377 . S
C3485 C3486 1.379 . S
C3486 H3470 0.931 . S
C3486 C3480 1.383 . S
C3486 C3485 1.379 . S
H3487 C3481 0.959 . S
H3488 C3481 0.961 . S
H3489 C3481 0.960 . S
H3490 C3482 0.930 . S
H3491 C3483 0.929 . S
H3492 C3500 0.929 . S
H3493 C3502 0.930 . S
H3494 C3504 0.930 . S
H3495 C3507 0.929 . S
H3496 C3510 0.930 . S
H3497 C3512 0.960 . S
H3498 C3512 0.960 . S
H3499 C3512 0.960 . S
C3500 H3492 0.929 . S
C3500 C3501 1.377 . S
C3500 C3502 1.384 . S
C3501 C3500 1.377 . S
C3501 C3507 1.390 . S
C3502 H3493 0.930 . S
C3502 C3500 1.384 . S
C3502 C3503 1.372 . S
C3503 C3502 1.372 . S
C3503 C3504 1.400 . S
C3503 C3508 1.490 . S
C3504 H3494 0.930 . S
C3504 C3503 1.400 . S
C3504 C3507 1.386 . S
H3505 C3521 0.930 . S
H3506 C3522 0.931 . S
C3507 H3495 0.929 . S
C3507 C3501 1.390 . S
C3507 C3504 1.386 . S
C3508 C3503 1.490 . S
C3508 C3510 1.395 . S
C3508 C3511 1.403 . S
H3509 C3515 0.930 . S
C3510 H3496 0.930 . S
C3510 C3508 1.395 . S
C3510 C3513 1.403 . S
C3511 C3508 1.403 . S
C3511 C3512 1.524 . S
C3511 C3515 1.400 . S
C3512 H3497 0.960 . S
C3512 H3498 0.960 . S
C3512 H3499 0.960 . S
C3512 C3511 1.524 . S
C3513 C3510 1.403 . S
C3513 C3514 1.392 . S
C3513 C3517 1.495 . S
C3514 C3513 1.392 . S
C3514 C3515 1.385 . S
C3514 C3516 1.478 . S
C3515 H3509 0.930 . S
C3515 C3511 1.400 . S
C3515 C3514 1.385 . S
C3516 C3514 1.478 . S
C3516 C3518 1.381 . S
C3516 C3522 1.383 . S
C3517 C3513 1.495 . S
C3517 H3523 0.959 . S
C3517 H3524 0.961 . S
C3517 H3525 0.960 . S
C3518 C3516 1.381 . S
C3518 C3519 1.394 . S
C3518 H3526 0.930 . S
C3519 C3518 1.394 . S
C3519 C3520 1.383 . S
C3519 H3527 0.929 . S
C3520 C3519 1.383 . S
C3520 C3521 1.377 . S
C3521 H3505 0.930 . S
C3521 C3520 1.377 . S
C3521 C3522 1.379 . S
C3522 H3506 0.931 . S
C3522 C3516 1.383 . S
C3522 C3521 1.379 . S
H3523 C3517 0.959 . S
H3524 C3517 0.961 . S
H3525 C3517 0.960 . S
H3526 C3518 0.930 . S
H3527 C3519 0.929 . S
H3528 C3536 0.929 . S
H3529 C3538 0.930 . S
H3530 C3540 0.930 . S
H3531 C3543 0.929 . S
H3532 C3546 0.930 . S
H3533 C3548 0.960 . S
H3534 C3548 0.960 . S
H3535 C3548 0.960 . S
C3536 H3528 0.929 . S
C3536 C3537 1.377 . S
C3536 C3538 1.384 . S
C3537 C3536 1.377 . S
C3537 C3543 1.390 . S
C3538 H3529 0.930 . S
C3538 C3536 1.384 . S
C3538 C3539 1.372 . S
C3539 C3538 1.372 . S
C3539 C3540 1.400 . S
C3539 C3544 1.490 . S
C3540 H3530 0.930 . S
C3540 C3539 1.400 . S
C3540 C3543 1.386 . S
H3541 C3557 0.930 . S
H3542 C3558 0.931 . S
C3543 H3531 0.929 . S
C3543 C3537 1.390 . S
C3543 C3540 1.386 . S
C3544 C3539 1.490 . S
C3544 C3546 1.395 . S
C3544 C3547 1.403 . S
H3545 C3551 0.930 . S
C3546 H3532 0.930 . S
C3546 C3544 1.395 . S
C3546 C3549 1.403 . S
C3547 C3544 1.403 . S
C3547 C3548 1.524 . S
C3547 C3551 1.400 . S
C3548 H3533 0.960 . S
C3548 H3534 0.960 . S
C3548 H3535 0.960 . S
C3548 C3547 1.524 . S
C3549 C3546 1.403 . S
C3549 C3550 1.392 . S
C3549 C3553 1.495 . S
C3550 C3549 1.392 . S
C3550 C3551 1.385 . S
C3550 C3552 1.478 . S
C3551 H3545 0.930 . S
C3551 C3547 1.400 . S
C3551 C3550 1.385 . S
C3552 C3550 1.478 . S
C3552 C3554 1.381 . S
C3552 C3558 1.383 . S
C3553 C3549 1.495 . S
C3553 H3559 0.959 . S
C3553 H3560 0.961 . S
C3553 H3561 0.960 . S
C3554 C3552 1.381 . S
C3554 C3555 1.394 . S
C3554 H3562 0.930 . S
C3555 C3554 1.394 . S
C3555 C3556 1.383 . S
C3555 H3563 0.929 . S
C3556 C3555 1.383 . S
C3556 C3557 1.377 . S
C3557 H3541 0.930 . S
C3557 C3556 1.377 . S
C3557 C3558 1.379 . S
C3558 H3542 0.931 . S
C3558 C3552 1.383 . S
C3558 C3557 1.379 . S
H3559 C3553 0.959 . S
H3560 C3553 0.961 . S
H3561 C3553 0.960 . S
H3562 C3554 0.930 . S
H3563 C3555 0.929 . S
H3564 C3572 0.929 . S
H3565 C3574 0.930 . S
H3566 C3576 0.930 . S
H3567 C3579 0.929 . S
H3568 C3582 0.930 . S
H3569 C3584 0.960 . S
H3570 C3584 0.960 . S
H3571 C3584 0.960 . S
C3572 H3564 0.929 . S
C3572 C3573 1.377 . S
C3572 C3574 1.384 . S
C3573 C3572 1.377 . S
C3573 C3579 1.390 . S
C3574 H3565 0.930 . S
C3574 C3572 1.384 . S
C3574 C3575 1.372 . S
C3575 C3574 1.372 . S
C3575 C3576 1.400 . S
C3575 C3580 1.490 . S
C3576 H3566 0.930 . S
C3576 C3575 1.400 . S
C3576 C3579 1.386 . S
H3577 C3593 0.930 . S
H3578 C3594 0.931 . S
C3579 H3567 0.929 . S
C3579 C3573 1.390 . S
C3579 C3576 1.386 . S
C3580 C3575 1.490 . S
C3580 C3582 1.395 . S
C3580 C3583 1.403 . S
H3581 C3587 0.930 . S
C3582 H3568 0.930 . S
C3582 C3580 1.395 . S
C3582 C3585 1.403 . S
C3583 C3580 1.403 . S
C3583 C3584 1.524 . S
C3583 C3587 1.400 . S
C3584 H3569 0.960 . S
C3584 H3570 0.960 . S
C3584 H3571 0.960 . S
C3584 C3583 1.524 . S
C3585 C3582 1.403 . S
C3585 C3586 1.392 . S
C3585 C3589 1.495 . S
C3586 C3585 1.392 . S
C3586 C3587 1.385 . S
C3586 C3588 1.478 . S
C3587 H3581 0.930 . S
C3587 C3583 1.400 . S
C3587 C3586 1.385 . S
C3588 C3586 1.478 . S
C3588 C3590 1.381 . S
C3588 C3594 1.383 . S
C3589 C3585 1.495 . S
C3589 H3595 0.959 . S
C3589 H3596 0.961 . S
C3589 H3597 0.960 . S
C3590 C3588 1.381 . S
C3590 C3591 1.394 . S
C3590 H3598 0.930 . S
C3591 C3590 1.394 . S
C3591 C3592 1.383 . S
C3591 H3599 0.929 . S
C3592 C3591 1.383 . S
C3592 C3593 1.377 . S
C3593 H3577 0.930 . S
C3593 C3592 1.377 . S
C3593 C3594 1.379 . S
C3594 H3578 0.931 . S
C3594 C3588 1.383 . S
C3594 C3593 1.379 . S
H3595 C3589 0.959 . S
H3596 C3589 0.961 . S
H3597 C3589 0.960 . S
H3598 C3590 0.930 . S
H3599 C3591 0.929 . S
H3600 C3608 0.929 . S
H3601 C3610 0.930 . S
H3602 C3612 0.930 . S
H3603 C3615 0.929 . S
H3604 C3618 0.930 . S
H3605 C3620 0.960 . S
H3606 C3620 0.960 . S
H3607 C3620 0.960 . S
C3608 H3600 0.929 . S
C3608 C3609 1.377 . S
C3608 C3610 1.384 . S
C3609 C3608 1.377 . S
C3609 C3615 1.390 . S
C3610 H3601 0.930 . S
C3610 C3608 1.384 . S
C3610 C3611 1.372 . S
C3611 C3610 1.372 . S
C3611 C3612 1.400 . S
C3611 C3616 1.490 1_554 S
C3612 H3602 0.930 . S
C3612 C3611 1.400 . S
C3612 C3615 1.386 . S
H3613 C3629 0.930 . S
H3614 C3630 0.931 . S
C3615 H3603 0.929 . S
C3615 C3609 1.390 . S
C3615 C3612 1.386 . S
C3616 C3611 1.490 1_556 S
C3616 C3618 1.395 . S
C3616 C3619 1.403 . S
H3617 C3623 0.930 . S
C3618 H3604 0.930 . S
C3618 C3616 1.395 . S
C3618 C3621 1.403 . S
C3619 C3616 1.403 . S
C3619 C3620 1.524 . S
C3619 C3623 1.400 . S
C3620 H3605 0.960 . S
C3620 H3606 0.960 . S
C3620 H3607 0.960 . S
C3620 C3619 1.524 . S
C3621 C3618 1.403 . S
C3621 C3622 1.392 . S
C3621 C3625 1.495 . S
C3622 C3621 1.392 . S
C3622 C3623 1.385 . S
C3622 C3624 1.478 . S
C3623 H3617 0.930 . S
C3623 C3619 1.400 . S
C3623 C3622 1.385 . S
C3624 C3622 1.478 . S
C3624 C3626 1.381 . S
C3624 C3630 1.383 . S
C3625 C3621 1.495 . S
C3625 H3631 0.959 . S
C3625 H3632 0.961 . S
C3625 H3633 0.960 . S
C3626 C3624 1.381 . S
C3626 C3627 1.394 . S
C3626 H3634 0.930 . S
C3627 C3626 1.394 . S
C3627 C3628 1.383 . S
C3627 H3635 0.929 . S
C3628 C3627 1.383 . S
C3628 C3629 1.377 . S
C3629 H3613 0.930 . S
C3629 C3628 1.377 . S
C3629 C3630 1.379 . S
C3630 H3614 0.931 . S
C3630 C3624 1.383 . S
C3630 C3629 1.379 . S
H3631 C3625 0.959 . S
H3632 C3625 0.961 . S
H3633 C3625 0.960 . S
H3634 C3626 0.930 . S
H3635 C3627 0.929 . S
H3636 C3644 0.929 . S
H3637 C3646 0.930 . S
H3638 C3648 0.930 . S
H3639 C3651 0.929 . S
H3640 C3654 0.930 . S
H3641 C3656 0.960 . S
H3642 C3656 0.960 . S
H3643 C3656 0.960 . S
C3644 H3636 0.929 . S
C3644 C3645 1.377 . S
C3644 C3646 1.384 . S
C3645 C3644 1.377 . S
C3645 C3651 1.390 . S
C3646 H3637 0.930 . S
C3646 C3644 1.384 . S
C3646 C3647 1.372 . S
C3647 C3646 1.372 . S
C3647 C3648 1.400 . S
C3647 C3652 1.490 1_554 S
C3648 H3638 0.930 . S
C3648 C3647 1.400 . S
C3648 C3651 1.386 . S
H3649 C3665 0.930 . S
H3650 C3666 0.931 . S
C3651 H3639 0.929 . S
C3651 C3645 1.390 . S
C3651 C3648 1.386 . S
C3652 C3647 1.490 1_556 S
C3652 C3654 1.395 . S
C3652 C3655 1.403 . S
H3653 C3659 0.930 . S
C3654 H3640 0.930 . S
C3654 C3652 1.395 . S
C3654 C3657 1.403 . S
C3655 C3652 1.403 . S
C3655 C3656 1.524 . S
C3655 C3659 1.400 . S
C3656 H3641 0.960 . S
C3656 H3642 0.960 . S
C3656 H3643 0.960 . S
C3656 C3655 1.524 . S
C3657 C3654 1.403 . S
C3657 C3658 1.392 . S
C3657 C3661 1.495 . S
C3658 C3657 1.392 . S
C3658 C3659 1.385 . S
C3658 C3660 1.478 . S
C3659 H3653 0.930 . S
C3659 C3655 1.400 . S
C3659 C3658 1.385 . S
C3660 C3658 1.478 . S
C3660 C3662 1.381 . S
C3660 C3666 1.383 . S
C3661 C3657 1.495 . S
C3661 H3667 0.959 . S
C3661 H3668 0.961 . S
C3661 H3669 0.960 . S
C3662 C3660 1.381 . S
C3662 C3663 1.394 . S
C3662 H3670 0.930 . S
C3663 C3662 1.394 . S
C3663 C3664 1.383 . S
C3663 H3671 0.929 . S
C3664 C3663 1.383 . S
C3664 C3665 1.377 . S
C3665 H3649 0.930 . S
C3665 C3664 1.377 . S
C3665 C3666 1.379 . S
C3666 H3650 0.931 . S
C3666 C3660 1.383 . S
C3666 C3665 1.379 . S
H3667 C3661 0.959 . S
H3668 C3661 0.961 . S
H3669 C3661 0.960 . S
H3670 C3662 0.930 . S
H3671 C3663 0.929 . S
H3672 C3680 0.929 . S
H3673 C3682 0.930 . S
H3674 C3684 0.930 . S
H3675 C3687 0.929 . S
H3676 C3690 0.930 . S
H3677 C3692 0.960 . S
H3678 C3692 0.960 . S
H3679 C3692 0.960 . S
C3680 H3672 0.929 . S
C3680 C3681 1.377 . S
C3680 C3682 1.384 . S
C3681 C3680 1.377 . S
C3681 C3687 1.390 . S
C3682 H3673 0.930 . S
C3682 C3680 1.384 . S
C3682 C3683 1.372 . S
C3683 C3682 1.372 . S
C3683 C3684 1.400 . S
C3683 C3688 1.490 . S
C3684 H3674 0.930 . S
C3684 C3683 1.400 . S
C3684 C3687 1.386 . S
H3685 C3701 0.930 . S
H3686 C3702 0.931 . S
C3687 H3675 0.929 . S
C3687 C3681 1.390 . S
C3687 C3684 1.386 . S
C3688 C3683 1.490 . S
C3688 C3690 1.395 . S
C3688 C3691 1.403 . S
H3689 C3695 0.930 . S
C3690 H3676 0.930 . S
C3690 C3688 1.395 . S
C3690 C3693 1.403 . S
C3691 C3688 1.403 . S
C3691 C3692 1.524 . S
C3691 C3695 1.400 . S
C3692 H3677 0.960 . S
C3692 H3678 0.960 . S
C3692 H3679 0.960 . S
C3692 C3691 1.524 . S
C3693 C3690 1.403 . S
C3693 C3694 1.392 . S
C3693 C3697 1.495 . S
C3694 C3693 1.392 . S
C3694 C3695 1.385 . S
C3694 C3696 1.478 1_556 S
C3695 H3689 0.930 . S
C3695 C3691 1.400 . S
C3695 C3694 1.385 . S
C3696 C3694 1.478 1_554 S
C3696 C3698 1.381 . S
C3696 C3702 1.383 . S
C3697 C3693 1.495 . S
C3697 H3703 0.959 . S
C3697 H3704 0.961 . S
C3697 H3705 0.960 . S
C3698 C3696 1.381 . S
C3698 C3699 1.394 . S
C3698 H3706 0.930 . S
C3699 C3698 1.394 . S
C3699 C3700 1.383 . S
C3699 H3707 0.929 . S
C3700 C3699 1.383 . S
C3700 C3701 1.377 . S
C3701 H3685 0.930 . S
C3701 C3700 1.377 . S
C3701 C3702 1.379 . S
C3702 H3686 0.931 . S
C3702 C3696 1.383 . S
C3702 C3701 1.379 . S
H3703 C3697 0.959 . S
H3704 C3697 0.961 . S
H3705 C3697 0.960 . S
H3706 C3698 0.930 . S
H3707 C3699 0.929 . S
H3708 C3716 0.929 . S
H3709 C3718 0.930 . S
H3710 C3720 0.930 . S
H3711 C3723 0.929 . S
H3712 C3726 0.930 . S
H3713 C3728 0.960 . S
H3714 C3728 0.960 . S
H3715 C3728 0.960 . S
C3716 H3708 0.929 . S
C3716 C3717 1.377 . S
C3716 C3718 1.384 . S
C3717 C3716 1.377 . S
C3717 C3723 1.390 . S
C3718 H3709 0.930 . S
C3718 C3716 1.384 . S
C3718 C3719 1.372 . S
C3719 C3718 1.372 . S
C3719 C3720 1.400 . S
C3719 C3724 1.490 . S
C3720 H3710 0.930 . S
C3720 C3719 1.400 . S
C3720 C3723 1.386 . S
H3721 C3737 0.930 1_554 S
H3722 C3738 0.931 . S
C3723 H3711 0.929 . S
C3723 C3717 1.390 . S
C3723 C3720 1.386 . S
C3724 C3719 1.490 . S
C3724 C3726 1.395 . S
C3724 C3727 1.403 . S
H3725 C3731 0.930 . S
C3726 H3712 0.930 . S
C3726 C3724 1.395 . S
C3726 C3729 1.403 . S
C3727 C3724 1.403 . S
C3727 C3728 1.524 . S
C3727 C3731 1.400 . S
C3728 H3713 0.960 . S
C3728 H3714 0.960 . S
C3728 H3715 0.960 . S
C3728 C3727 1.524 . S
C3729 C3726 1.403 . S
C3729 C3730 1.392 . S
C3729 C3733 1.495 . S
C3730 C3729 1.392 . S
C3730 C3731 1.385 . S
C3730 C3732 1.478 . S
C3731 H3725 0.930 . S
C3731 C3727 1.400 . S
C3731 C3730 1.385 . S
C3732 C3730 1.478 . S
C3732 C3734 1.381 . S
C3732 C3738 1.383 . S
C3733 C3729 1.495 . S
C3733 H3739 0.959 . S
C3733 H3740 0.961 . S
C3733 H3741 0.960 . S
C3734 C3732 1.381 . S
C3734 C3735 1.394 . S
C3734 H3742 0.930 . S
C3735 C3734 1.394 . S
C3735 C3736 1.383 1_556 S
C3735 H3743 0.929 1_556 S
C3736 C3735 1.383 1_554 S
C3736 C3737 1.377 1_554 S
C3737 H3721 0.930 1_556 S
C3737 C3736 1.377 1_556 S
C3737 C3738 1.379 . S
C3738 H3722 0.931 . S
C3738 C3732 1.383 . S
C3738 C3737 1.379 . S
H3739 C3733 0.959 . S
H3740 C3733 0.961 . S
H3741 C3733 0.960 . S
H3742 C3734 0.930 . S
H3743 C3735 0.929 1_554 S
H3744 C3752 0.929 . S
H3745 C3754 0.930 . S
H3746 C3756 0.930 . S
H3747 C3759 0.929 . S
H3748 C3762 0.930 . S
H3749 C3764 0.960 . S
H3750 C3764 0.960 . S
H3751 C3764 0.960 . S
C3752 H3744 0.929 . S
C3752 C3753 1.377 . S
C3752 C3754 1.384 . S
C3753 C3752 1.377 . S
C3753 C3759 1.390 . S
C3754 H3745 0.930 . S
C3754 C3752 1.384 . S
C3754 C3755 1.372 . S
C3755 C3754 1.372 . S
C3755 C3756 1.400 . S
C3755 C3760 1.490 . S
C3756 H3746 0.930 . S
C3756 C3755 1.400 . S
C3756 C3759 1.386 . S
H3757 C3773 0.930 1_554 S
H3758 C3774 0.931 . S
C3759 H3747 0.929 . S
C3759 C3753 1.390 . S
C3759 C3756 1.386 . S
C3760 C3755 1.490 . S
C3760 C3762 1.395 . S
C3760 C3763 1.403 . S
H3761 C3767 0.930 . S
C3762 H3748 0.930 . S
C3762 C3760 1.395 . S
C3762 C3765 1.403 . S
C3763 C3760 1.403 . S
C3763 C3764 1.524 . S
C3763 C3767 1.400 . S
C3764 H3749 0.960 . S
C3764 H3750 0.960 . S
C3764 H3751 0.960 . S
C3764 C3763 1.524 . S
C3765 C3762 1.403 . S
C3765 C3766 1.392 . S
C3765 C3769 1.495 . S
C3766 C3765 1.392 . S
C3766 C3767 1.385 . S
C3766 C3768 1.478 . S
C3767 H3761 0.930 . S
C3767 C3763 1.400 . S
C3767 C3766 1.385 . S
C3768 C3766 1.478 . S
C3768 C3770 1.381 . S
C3768 C3774 1.383 . S
C3769 C3765 1.495 . S
C3769 H3775 0.959 . S
C3769 H3776 0.961 . S
C3769 H3777 0.960 . S
C3770 C3768 1.381 . S
C3770 C3771 1.394 . S
C3770 H3778 0.930 . S
C3771 C3770 1.394 . S
C3771 C3772 1.383 1_556 S
C3771 H3779 0.929 1_556 S
C3772 C3771 1.383 1_554 S
C3772 C3773 1.377 1_554 S
C3773 H3757 0.930 1_556 S
C3773 C3772 1.377 1_556 S
C3773 C3774 1.379 . S
C3774 H3758 0.931 . S
C3774 C3768 1.383 . S
C3774 C3773 1.379 . S
H3775 C3769 0.959 . S
H3776 C3769 0.961 . S
H3777 C3769 0.960 . S
H3778 C3770 0.930 . S
H3779 C3771 0.929 1_554 S
H3780 C3788 0.929 1_554 S
H3781 C3790 0.930 . S
H3782 C3792 0.930 . S
H3783 C3795 0.929 1_554 S
H3784 C3798 0.930 . S
H3785 C3800 0.960 . S
H3786 C3800 0.960 . S
H3787 C3800 0.960 . S
C3788 H3780 0.929 1_556 S
C3788 C3789 1.377 1_556 S
C3788 C3790 1.384 . S
C3789 C3788 1.377 1_554 S
C3789 C3795 1.390 1_554 S
C3790 H3781 0.930 . S
C3790 C3788 1.384 . S
C3790 C3791 1.372 . S
C3791 C3790 1.372 . S
C3791 C3792 1.400 . S
C3791 C3796 1.490 . S
C3792 H3782 0.930 . S
C3792 C3791 1.400 . S
C3792 C3795 1.386 . S
H3793 C3809 0.930 . S
H3794 C3810 0.931 . S
C3795 H3783 0.929 1_556 S
C3795 C3789 1.390 1_556 S
C3795 C3792 1.386 . S
C3796 C3791 1.490 . S
C3796 C3798 1.395 . S
C3796 C3799 1.403 . S
H3797 C3803 0.930 . S
C3798 H3784 0.930 . S
C3798 C3796 1.395 . S
C3798 C3801 1.403 . S
C3799 C3796 1.403 . S
C3799 C3800 1.524 . S
C3799 C3803 1.400 . S
C3800 H3785 0.960 . S
C3800 H3786 0.960 . S
C3800 H3787 0.960 . S
C3800 C3799 1.524 . S
C3801 C3798 1.403 . S
C3801 C3802 1.392 . S
C3801 C3805 1.495 . S
C3802 C3801 1.392 . S
C3802 C3803 1.385 . S
C3802 C3804 1.478 . S
C3803 H3797 0.930 . S
C3803 C3799 1.400 . S
C3803 C3802 1.385 . S
C3804 C3802 1.478 . S
C3804 C3806 1.381 . S
C3804 C3810 1.383 . S
C3805 C3801 1.495 . S
C3805 H3811 0.959 . S
C3805 H3812 0.961 . S
C3805 H3813 0.960 . S
C3806 C3804 1.381 . S
C3806 C3807 1.394 . S
C3806 H3814 0.930 . S
C3807 C3806 1.394 . S
C3807 C3808 1.383 . S
C3807 H3815 0.929 . S
C3808 C3807 1.383 . S
C3808 C3809 1.377 . S
C3809 H3793 0.930 . S
C3809 C3808 1.377 . S
C3809 C3810 1.379 . S
C3810 H3794 0.931 . S
C3810 C3804 1.383 . S
C3810 C3809 1.379 . S
H3811 C3805 0.959 . S
H3812 C3805 0.961 . S
H3813 C3805 0.960 . S
H3814 C3806 0.930 . S
H3815 C3807 0.929 . S
H3816 C3824 0.929 . S
H3817 C3826 0.930 . S
H3818 C3828 0.930 . S
H3819 C3831 0.929 . S
H3820 C3834 0.930 . S
H3821 C3836 0.960 . S
H3822 C3836 0.960 . S
H3823 C3836 0.960 . S
C3824 H3816 0.929 . S
C3824 C3825 1.377 . S
C3824 C3826 1.384 . S
C3825 C3824 1.377 . S
C3825 C3831 1.390 . S
C3826 H3817 0.930 . S
C3826 C3824 1.384 . S
C3826 C3827 1.372 . S
C3827 C3826 1.372 . S
C3827 C3828 1.400 . S
C3827 C3832 1.490 . S
C3828 H3818 0.930 . S
C3828 C3827 1.400 . S
C3828 C3831 1.386 . S
H3829 C3845 0.930 1_554 S
H3830 C3846 0.931 . S
C3831 H3819 0.929 . S
C3831 C3825 1.390 . S
C3831 C3828 1.386 . S
C3832 C3827 1.490 . S
C3832 C3834 1.395 . S
C3832 C3835 1.403 . S
H3833 C3839 0.930 . S
C3834 H3820 0.930 . S
C3834 C3832 1.395 . S
C3834 C3837 1.403 . S
C3835 C3832 1.403 . S
C3835 C3836 1.524 . S
C3835 C3839 1.400 . S
C3836 H3821 0.960 . S
C3836 H3822 0.960 . S
C3836 H3823 0.960 . S
C3836 C3835 1.524 . S
C3837 C3834 1.403 . S
C3837 C3838 1.392 . S
C3837 C3841 1.495 . S
C3838 C3837 1.392 . S
C3838 C3839 1.385 . S
C3838 C3840 1.478 . S
C3839 H3833 0.930 . S
C3839 C3835 1.400 . S
C3839 C3838 1.385 . S
C3840 C3838 1.478 . S
C3840 C3842 1.381 . S
C3840 C3846 1.383 . S
C3841 C3837 1.495 . S
C3841 H3847 0.959 . S
C3841 H3848 0.961 . S
C3841 H3849 0.960 . S
C3842 C3840 1.381 . S
C3842 C3843 1.394 . S
C3842 H3850 0.930 . S
C3843 C3842 1.394 . S
C3843 C3844 1.383 1_556 S
C3843 H3851 0.929 1_556 S
C3844 C3843 1.383 1_554 S
C3844 C3845 1.377 1_554 S
C3845 H3829 0.930 1_556 S
C3845 C3844 1.377 1_556 S
C3845 C3846 1.379 . S
C3846 H3830 0.931 . S
C3846 C3840 1.383 . S
C3846 C3845 1.379 . S
H3847 C3841 0.959 . S
H3848 C3841 0.961 . S
H3849 C3841 0.960 . S
H3850 C3842 0.930 . S
H3851 C3843 0.929 1_554 S
H3852 C3860 0.929 1_554 S
H3853 C3862 0.930 . S
H3854 C3864 0.930 . S
H3855 C3867 0.929 . S
H3856 C3870 0.930 . S
H3857 C3872 0.960 . S
H3858 C3872 0.960 . S
H3859 C3872 0.960 . S
C3860 H3852 0.929 1_556 S
C3860 C3861 1.377 1_556 S
C3860 C3862 1.384 . S
C3861 C3860 1.377 1_554 S
C3861 C3867 1.390 1_554 S
C3862 H3853 0.930 . S
C3862 C3860 1.384 . S
C3862 C3863 1.372 . S
C3863 C3862 1.372 . S
C3863 C3864 1.400 . S
C3863 C3868 1.490 . S
C3864 H3854 0.930 . S
C3864 C3863 1.400 . S
C3864 C3867 1.386 . S
H3865 C3881 0.930 . S
H3866 C3882 0.931 . S
C3867 H3855 0.929 . S
C3867 C3861 1.390 1_556 S
C3867 C3864 1.386 . S
C3868 C3863 1.490 . S
C3868 C3870 1.395 . S
C3868 C3871 1.403 . S
H3869 C3875 0.930 . S
C3870 H3856 0.930 . S
C3870 C3868 1.395 . S
C3870 C3873 1.403 . S
C3871 C3868 1.403 . S
C3871 C3872 1.524 . S
C3871 C3875 1.400 . S
C3872 H3857 0.960 . S
C3872 H3858 0.960 . S
C3872 H3859 0.960 . S
C3872 C3871 1.524 . S
C3873 C3870 1.403 . S
C3873 C3874 1.392 . S
C3873 C3877 1.495 . S
C3874 C3873 1.392 . S
C3874 C3875 1.385 . S
C3874 C3876 1.478 . S
C3875 H3869 0.930 . S
C3875 C3871 1.400 . S
C3875 C3874 1.385 . S
C3876 C3874 1.478 . S
C3876 C3878 1.381 . S
C3876 C3882 1.383 . S
C3877 C3873 1.495 . S
C3877 H3883 0.959 . S
C3877 H3884 0.961 . S
C3877 H3885 0.960 . S
C3878 C3876 1.381 . S
C3878 C3879 1.394 . S
C3878 H3886 0.930 . S
C3879 C3878 1.394 . S
C3879 C3880 1.383 . S
C3879 H3887 0.929 . S
C3880 C3879 1.383 . S
C3880 C3881 1.377 . S
C3881 H3865 0.930 . S
C3881 C3880 1.377 . S
C3881 C3882 1.379 . S
C3882 H3866 0.931 . S
C3882 C3876 1.383 . S
C3882 C3881 1.379 . S
H3883 C3877 0.959 . S
H3884 C3877 0.961 . S
H3885 C3877 0.960 . S
H3886 C3878 0.930 . S
H3887 C3879 0.929 . S
H3888 C3896 0.929 1_554 S
H3889 C3898 0.930 . S
H3890 C3900 0.930 . S
H3891 C3903 0.929 1_554 S
H3892 C3906 0.930 . S
H3893 C3908 0.960 . S
H3894 C3908 0.960 . S
H3895 C3908 0.960 . S
C3896 H3888 0.929 1_556 S
C3896 C3897 1.377 1_556 S
C3896 C3898 1.384 . S
C3897 C3896 1.377 1_554 S
C3897 C3903 1.390 1_554 S
C3898 H3889 0.930 . S
C3898 C3896 1.384 . S
C3898 C3899 1.372 . S
C3899 C3898 1.372 . S
C3899 C3900 1.400 . S
C3899 C3904 1.490 . S
C3900 H3890 0.930 . S
C3900 C3899 1.400 . S
C3900 C3903 1.386 . S
H3901 C3917 0.930 . S
H3902 C3918 0.931 . S
C3903 H3891 0.929 1_556 S
C3903 C3897 1.390 1_556 S
C3903 C3900 1.386 . S
C3904 C3899 1.490 . S
C3904 C3906 1.395 . S
C3904 C3907 1.403 . S
H3905 C3911 0.930 . S
C3906 H3892 0.930 . S
C3906 C3904 1.395 . S
C3906 C3909 1.403 . S
C3907 C3904 1.403 . S
C3907 C3908 1.524 . S
C3907 C3911 1.400 . S
C3908 H3893 0.960 . S
C3908 H3894 0.960 . S
C3908 H3895 0.960 . S
C3908 C3907 1.524 . S
C3909 C3906 1.403 . S
C3909 C3910 1.392 . S
C3909 C3913 1.495 . S
C3910 C3909 1.392 . S
C3910 C3911 1.385 . S
C3910 C3912 1.478 . S
C3911 H3905 0.930 . S
C3911 C3907 1.400 . S
C3911 C3910 1.385 . S
C3912 C3910 1.478 . S
C3912 C3914 1.381 . S
C3912 C3918 1.383 . S
C3913 C3909 1.495 . S
C3913 H3919 0.959 . S
C3913 H3920 0.961 . S
C3913 H3921 0.960 . S
C3914 C3912 1.381 . S
C3914 C3915 1.394 . S
C3914 H3922 0.930 . S
C3915 C3914 1.394 . S
C3915 C3916 1.383 . S
C3915 H3923 0.929 . S
C3916 C3915 1.383 . S
C3916 C3917 1.377 . S
C3917 H3901 0.930 . S
C3917 C3916 1.377 . S
C3917 C3918 1.379 . S
C3918 H3902 0.931 . S
C3918 C3912 1.383 . S
C3918 C3917 1.379 . S
H3919 C3913 0.959 . S
H3920 C3913 0.961 . S
H3921 C3913 0.960 . S
H3922 C3914 0.930 . S
H3923 C3915 0.929 . S
H3924 C3932 0.929 . S
H3925 C3934 0.930 . S
H3926 C3936 0.930 . S
H3927 C3939 0.929 . S
H3928 C3942 0.930 . S
H3929 C3944 0.960 . S
H3930 C3944 0.960 . S
H3931 C3944 0.960 . S
C3932 H3924 0.929 . S
C3932 C3933 1.377 . S
C3932 C3934 1.384 . S
C3933 C3932 1.377 . S
C3933 C3939 1.390 . S
C3934 H3925 0.930 . S
C3934 C3932 1.384 . S
C3934 C3935 1.372 . S
C3935 C3934 1.372 . S
C3935 C3936 1.400 . S
C3935 C3940 1.490 1_554 S
C3936 H3926 0.930 . S
C3936 C3935 1.400 . S
C3936 C3939 1.386 . S
H3937 C3953 0.930 . S
H3938 C3954 0.931 . S
C3939 H3927 0.929 . S
C3939 C3933 1.390 . S
C3939 C3936 1.386 . S
C3940 C3935 1.490 1_556 S
C3940 C3942 1.395 . S
C3940 C3943 1.403 . S
H3941 C3947 0.930 . S
C3942 H3928 0.930 . S
C3942 C3940 1.395 . S
C3942 C3945 1.403 . S
C3943 C3940 1.403 . S
C3943 C3944 1.524 . S
C3943 C3947 1.400 . S
C3944 H3929 0.960 . S
C3944 H3930 0.960 . S
C3944 H3931 0.960 . S
C3944 C3943 1.524 . S
C3945 C3942 1.403 . S
C3945 C3946 1.392 . S
C3945 C3949 1.495 . S
C3946 C3945 1.392 . S
C3946 C3947 1.385 . S
C3946 C3948 1.478 . S
C3947 H3941 0.930 . S
C3947 C3943 1.400 . S
C3947 C3946 1.385 . S
C3948 C3946 1.478 . S
C3948 C3950 1.381 . S
C3948 C3954 1.383 . S
C3949 C3945 1.495 . S
C3949 H3955 0.959 . S
C3949 H3956 0.961 . S
C3949 H3957 0.960 . S
C3950 C3948 1.381 . S
C3950 C3951 1.394 . S
C3950 H3958 0.930 . S
C3951 C3950 1.394 . S
C3951 C3952 1.383 . S
C3951 H3959 0.929 . S
C3952 C3951 1.383 . S
C3952 C3953 1.377 . S
C3953 H3937 0.930 . S
C3953 C3952 1.377 . S
C3953 C3954 1.379 . S
C3954 H3938 0.931 . S
C3954 C3948 1.383 . S
C3954 C3953 1.379 . S
H3955 C3949 0.959 . S
H3956 C3949 0.961 . S
H3957 C3949 0.960 . S
H3958 C3950 0.930 . S
H3959 C3951 0.929 . S
H3960 C3968 0.929 . S
H3961 C3970 0.930 . S
H3962 C3972 0.930 . S
H3963 C3975 0.929 . S
H3964 C3978 0.930 . S
H3965 C3980 0.960 . S
H3966 C3980 0.960 . S
H3967 C3980 0.960 . S
C3968 H3960 0.929 . S
C3968 C3969 1.377 . S
C3968 C3970 1.384 . S
C3969 C3968 1.377 . S
C3969 C3975 1.390 . S
C3970 H3961 0.930 . S
C3970 C3968 1.384 . S
C3970 C3971 1.372 . S
C3971 C3970 1.372 . S
C3971 C3972 1.400 . S
C3971 C3976 1.490 1_554 S
C3972 H3962 0.930 . S
C3972 C3971 1.400 . S
C3972 C3975 1.386 . S
H3973 C3989 0.930 . S
H3974 C3990 0.931 . S
C3975 H3963 0.929 . S
C3975 C3969 1.390 . S
C3975 C3972 1.386 . S
C3976 C3971 1.490 1_556 S
C3976 C3978 1.395 . S
C3976 C3979 1.403 . S
H3977 C3983 0.930 . S
C3978 H3964 0.930 . S
C3978 C3976 1.395 . S
C3978 C3981 1.403 . S
C3979 C3976 1.403 . S
C3979 C3980 1.524 . S
C3979 C3983 1.400 . S
C3980 H3965 0.960 . S
C3980 H3966 0.960 . S
C3980 H3967 0.960 . S
C3980 C3979 1.524 . S
C3981 C3978 1.403 . S
C3981 C3982 1.392 . S
C3981 C3985 1.495 . S
C3982 C3981 1.392 . S
C3982 C3983 1.385 . S
C3982 C3984 1.478 . S
C3983 H3977 0.930 . S
C3983 C3979 1.400 . S
C3983 C3982 1.385 . S
C3984 C3982 1.478 . S
C3984 C3986 1.381 . S
C3984 C3990 1.383 . S
C3985 C3981 1.495 . S
C3985 H3991 0.959 . S
C3985 H3992 0.961 . S
C3985 H3993 0.960 . S
C3986 C3984 1.381 . S
C3986 C3987 1.394 . S
C3986 H3994 0.930 . S
C3987 C3986 1.394 . S
C3987 C3988 1.383 . S
C3987 H3995 0.929 . S
C3988 C3987 1.383 . S
C3988 C3989 1.377 . S
C3989 H3973 0.930 . S
C3989 C3988 1.377 . S
C3989 C3990 1.379 . S
C3990 H3974 0.931 . S
C3990 C3984 1.383 . S
C3990 C3989 1.379 . S
H3991 C3985 0.959 . S
H3992 C3985 0.961 . S
H3993 C3985 0.960 . S
H3994 C3986 0.930 . S
H3995 C3987 0.929 . S
H3996 C4004 0.929 . S
H3997 C4006 0.930 . S
H3998 C4008 0.930 . S
H3999 C4011 0.929 . S
H4000 C4014 0.930 . S
H4001 C4016 0.960 . S
H4002 C4016 0.960 . S
H4003 C4016 0.960 . S
C4004 H3996 0.929 . S
C4004 C4005 1.377 . S
C4004 C4006 1.384 . S
C4005 C4004 1.377 . S
C4005 C4011 1.390 . S
C4006 H3997 0.930 . S
C4006 C4004 1.384 . S
C4006 C4007 1.372 . S
C4007 C4006 1.372 . S
C4007 C4008 1.400 . S
C4007 C4012 1.490 1_554 S
C4008 H3998 0.930 . S
C4008 C4007 1.400 . S
C4008 C4011 1.386 . S
H4009 C4025 0.930 . S
H4010 C4026 0.931 . S
C4011 H3999 0.929 . S
C4011 C4005 1.390 . S
C4011 C4008 1.386 . S
C4012 C4007 1.490 1_556 S
C4012 C4014 1.395 . S
C4012 C4015 1.403 . S
H4013 C4019 0.930 . S
C4014 H4000 0.930 . S
C4014 C4012 1.395 . S
C4014 C4017 1.403 . S
C4015 C4012 1.403 . S
C4015 C4016 1.524 . S
C4015 C4019 1.400 . S
C4016 H4001 0.960 . S
C4016 H4002 0.960 . S
C4016 H4003 0.960 . S
C4016 C4015 1.524 . S
C4017 C4014 1.403 . S
C4017 C4018 1.392 . S
C4017 C4021 1.495 . S
C4018 C4017 1.392 . S
C4018 C4019 1.385 . S
C4018 C4020 1.478 . S
C4019 H4013 0.930 . S
C4019 C4015 1.400 . S
C4019 C4018 1.385 . S
C4020 C4018 1.478 . S
C4020 C4022 1.381 . S
C4020 C4026 1.383 . S
C4021 C4017 1.495 . S
C4021 H4027 0.959 . S
C4021 H4028 0.961 . S
C4021 H4029 0.960 . S
C4022 C4020 1.381 . S
C4022 C4023 1.394 . S
C4022 H4030 0.930 . S
C4023 C4022 1.394 . S
C4023 C4024 1.383 . S
C4023 H4031 0.929 . S
C4024 C4023 1.383 . S
C4024 C4025 1.377 . S
C4025 H4009 0.930 . S
C4025 C4024 1.377 . S
C4025 C4026 1.379 . S
C4026 H4010 0.931 . S
C4026 C4020 1.383 . S
C4026 C4025 1.379 . S
H4027 C4021 0.959 . S
H4028 C4021 0.961 . S
H4029 C4021 0.960 . S
H4030 C4022 0.930 . S
H4031 C4023 0.929 . S
H4032 C4040 0.929 . S
H4033 C4042 0.930 . S
H4034 C4044 0.930 . S
H4035 C4047 0.929 . S
H4036 C4050 0.930 . S
H4037 C4052 0.960 . S
H4038 C4052 0.960 . S
H4039 C4052 0.960 . S
C4040 H4032 0.929 . S
C4040 C4041 1.377 . S
C4040 C4042 1.384 . S
C4041 C4040 1.377 . S
C4041 C4047 1.390 . S
C4042 H4033 0.930 . S
C4042 C4040 1.384 . S
C4042 C4043 1.372 . S
C4043 C4042 1.372 . S
C4043 C4044 1.400 . S
C4043 C4048 1.490 . S
C4044 H4034 0.930 . S
C4044 C4043 1.400 . S
C4044 C4047 1.386 . S
H4045 C4061 0.930 1_556 S
H4046 C4062 0.931 . S
C4047 H4035 0.929 . S
C4047 C4041 1.390 . S
C4047 C4044 1.386 . S
C4048 C4043 1.490 . S
C4048 C4050 1.395 . S
C4048 C4051 1.403 . S
H4049 C4055 0.930 . S
C4050 H4036 0.930 . S
C4050 C4048 1.395 . S
C4050 C4053 1.403 . S
C4051 C4048 1.403 . S
C4051 C4052 1.524 . S
C4051 C4055 1.400 . S
C4052 H4037 0.960 . S
C4052 H4038 0.960 . S
C4052 H4039 0.960 . S
C4052 C4051 1.524 . S
C4053 C4050 1.403 . S
C4053 C4054 1.392 . S
C4053 C4057 1.495 . S
C4054 C4053 1.392 . S
C4054 C4055 1.385 . S
C4054 C4056 1.478 . S
C4055 H4049 0.930 . S
C4055 C4051 1.400 . S
C4055 C4054 1.385 . S
C4056 C4054 1.478 . S
C4056 C4058 1.381 . S
C4056 C4062 1.383 . S
C4057 C4053 1.495 . S
C4057 H4063 0.959 . S
C4057 H4064 0.961 . S
C4057 H4065 0.960 . S
C4058 C4056 1.381 . S
C4058 C4059 1.394 . S
C4058 H4066 0.930 . S
C4059 C4058 1.394 . S
C4059 C4060 1.383 1_554 S
C4059 H4067 0.929 1_554 S
C4060 C4059 1.383 1_556 S
C4060 C4061 1.377 1_556 S
C4061 H4045 0.930 1_554 S
C4061 C4060 1.377 1_554 S
C4061 C4062 1.379 . S
C4062 H4046 0.931 . S
C4062 C4056 1.383 . S
C4062 C4061 1.379 . S
H4063 C4057 0.959 . S
H4064 C4057 0.961 . S
H4065 C4057 0.960 . S
H4066 C4058 0.930 . S
H4067 C4059 0.929 1_556 S
H4068 C4076 0.929 . S
H4069 C4078 0.930 . S
H4070 C4080 0.930 . S
H4071 C4083 0.929 . S
H4072 C4086 0.930 . S
H4073 C4088 0.960 . S
H4074 C4088 0.960 . S
H4075 C4088 0.960 . S
C4076 H4068 0.929 . S
C4076 C4077 1.377 . S
C4076 C4078 1.384 . S
C4077 C4076 1.377 . S
C4077 C4083 1.390 . S
C4078 H4069 0.930 . S
C4078 C4076 1.384 . S
C4078 C4079 1.372 . S
C4079 C4078 1.372 . S
C4079 C4080 1.400 . S
C4079 C4084 1.490 . S
C4080 H4070 0.930 . S
C4080 C4079 1.400 . S
C4080 C4083 1.386 . S
H4081 C4097 0.930 1_556 S
H4082 C4098 0.931 . S
C4083 H4071 0.929 . S
C4083 C4077 1.390 . S
C4083 C4080 1.386 . S
C4084 C4079 1.490 . S
C4084 C4086 1.395 . S
C4084 C4087 1.403 . S
H4085 C4091 0.930 . S
C4086 H4072 0.930 . S
C4086 C4084 1.395 . S
C4086 C4089 1.403 . S
C4087 C4084 1.403 . S
C4087 C4088 1.524 . S
C4087 C4091 1.400 . S
C4088 H4073 0.960 . S
C4088 H4074 0.960 . S
C4088 H4075 0.960 . S
C4088 C4087 1.524 . S
C4089 C4086 1.403 . S
C4089 C4090 1.392 . S
C4089 C4093 1.495 . S
C4090 C4089 1.392 . S
C4090 C4091 1.385 . S
C4090 C4092 1.478 . S
C4091 H4085 0.930 . S
C4091 C4087 1.400 . S
C4091 C4090 1.385 . S
C4092 C4090 1.478 . S
C4092 C4094 1.381 . S
C4092 C4098 1.383 . S
C4093 C4089 1.495 . S
C4093 H4099 0.959 . S
C4093 H4100 0.961 . S
C4093 H4101 0.960 . S
C4094 C4092 1.381 . S
C4094 C4095 1.394 . S
C4094 H4102 0.930 . S
C4095 C4094 1.394 . S
C4095 C4096 1.383 1_554 S
C4095 H4103 0.929 1_554 S
C4096 C4095 1.383 1_556 S
C4096 C4097 1.377 1_556 S
C4097 H4081 0.930 1_554 S
C4097 C4096 1.377 1_554 S
C4097 C4098 1.379 . S
C4098 H4082 0.931 . S
C4098 C4092 1.383 . S
C4098 C4097 1.379 . S
H4099 C4093 0.959 . S
H4100 C4093 0.961 . S
H4101 C4093 0.960 . S
H4102 C4094 0.930 . S
H4103 C4095 0.929 1_556 S
H4104 C4112 0.929 1_556 S
H4105 C4114 0.930 . S
H4106 C4116 0.930 . S
H4107 C4119 0.929 1_556 S
H4108 C4122 0.930 . S
H4109 C4124 0.960 . S
H4110 C4124 0.960 . S
H4111 C4124 0.960 . S
C4112 H4104 0.929 1_554 S
C4112 C4113 1.377 1_554 S
C4112 C4114 1.384 . S
C4113 C4112 1.377 1_556 S
C4113 C4119 1.390 1_556 S
C4114 H4105 0.930 . S
C4114 C4112 1.384 . S
C4114 C4115 1.372 . S
C4115 C4114 1.372 . S
C4115 C4116 1.400 . S
C4115 C4120 1.490 . S
C4116 H4106 0.930 . S
C4116 C4115 1.400 . S
C4116 C4119 1.386 . S
H4117 C4133 0.930 . S
H4118 C4134 0.931 . S
C4119 H4107 0.929 1_554 S
C4119 C4113 1.390 1_554 S
C4119 C4116 1.386 . S
C4120 C4115 1.490 . S
C4120 C4122 1.395 . S
C4120 C4123 1.403 . S
H4121 C4127 0.930 . S
C4122 H4108 0.930 . S
C4122 C4120 1.395 . S
C4122 C4125 1.403 . S
C4123 C4120 1.403 . S
C4123 C4124 1.524 . S
C4123 C4127 1.400 . S
C4124 H4109 0.960 . S
C4124 H4110 0.960 . S
C4124 H4111 0.960 . S
C4124 C4123 1.524 . S
C4125 C4122 1.403 . S
C4125 C4126 1.392 . S
C4125 C4129 1.495 . S
C4126 C4125 1.392 . S
C4126 C4127 1.385 . S
C4126 C4128 1.478 . S
C4127 H4121 0.930 . S
C4127 C4123 1.400 . S
C4127 C4126 1.385 . S
C4128 C4126 1.478 . S
C4128 C4130 1.381 . S
C4128 C4134 1.383 . S
C4129 C4125 1.495 . S
C4129 H4135 0.959 . S
C4129 H4136 0.961 . S
C4129 H4137 0.960 . S
C4130 C4128 1.381 . S
C4130 C4131 1.394 . S
C4130 H4138 0.930 . S
C4131 C4130 1.394 . S
C4131 C4132 1.383 . S
C4131 H4139 0.929 . S
C4132 C4131 1.383 . S
C4132 C4133 1.377 . S
C4133 H4117 0.930 . S
C4133 C4132 1.377 . S
C4133 C4134 1.379 . S
C4134 H4118 0.931 . S
C4134 C4128 1.383 . S
C4134 C4133 1.379 . S
H4135 C4129 0.959 . S
H4136 C4129 0.961 . S
H4137 C4129 0.960 . S
H4138 C4130 0.930 . S
H4139 C4131 0.929 . S
H4140 C4148 0.929 . S
H4141 C4150 0.930 . S
H4142 C4152 0.930 . S
H4143 C4155 0.929 . S
H4144 C4158 0.930 . S
H4145 C4160 0.960 . S
H4146 C4160 0.960 . S
H4147 C4160 0.960 . S
C4148 H4140 0.929 . S
C4148 C4149 1.377 . S
C4148 C4150 1.384 . S
C4149 C4148 1.377 . S
C4149 C4155 1.390 . S
C4150 H4141 0.930 . S
C4150 C4148 1.384 . S
C4150 C4151 1.372 . S
C4151 C4150 1.372 . S
C4151 C4152 1.400 . S
C4151 C4156 1.490 . S
C4152 H4142 0.930 . S
C4152 C4151 1.400 . S
C4152 C4155 1.386 . S
H4153 C4169 0.930 . S
H4154 C4170 0.931 . S
C4155 H4143 0.929 . S
C4155 C4149 1.390 . S
C4155 C4152 1.386 . S
C4156 C4151 1.490 . S
C4156 C4158 1.395 . S
C4156 C4159 1.403 . S
H4157 C4163 0.930 . S
C4158 H4144 0.930 . S
C4158 C4156 1.395 . S
C4158 C4161 1.403 . S
C4159 C4156 1.403 . S
C4159 C4160 1.524 . S
C4159 C4163 1.400 . S
C4160 H4145 0.960 . S
C4160 H4146 0.960 . S
C4160 H4147 0.960 . S
C4160 C4159 1.524 . S
C4161 C4158 1.403 . S
C4161 C4162 1.392 . S
C4161 C4165 1.495 . S
C4162 C4161 1.392 . S
C4162 C4163 1.385 . S
C4162 C4164 1.478 1_554 S
C4163 H4157 0.930 . S
C4163 C4159 1.400 . S
C4163 C4162 1.385 . S
C4164 C4162 1.478 1_556 S
C4164 C4166 1.381 . S
C4164 C4170 1.383 . S
C4165 C4161 1.495 . S
C4165 H4171 0.959 . S
C4165 H4172 0.961 . S
C4165 H4173 0.960 . S
C4166 C4164 1.381 . S
C4166 C4167 1.394 . S
C4166 H4174 0.930 . S
C4167 C4166 1.394 . S
C4167 C4168 1.383 . S
C4167 H4175 0.929 . S
C4168 C4167 1.383 . S
C4168 C4169 1.377 . S
C4169 H4153 0.930 . S
C4169 C4168 1.377 . S
C4169 C4170 1.379 . S
C4170 H4154 0.931 . S
C4170 C4164 1.383 . S
C4170 C4169 1.379 . S
H4171 C4165 0.959 . S
H4172 C4165 0.961 . S
H4173 C4165 0.960 . S
H4174 C4166 0.930 . S
H4175 C4167 0.929 . S
H4176 C4184 0.929 . S
H4177 C4186 0.930 . S
H4178 C4188 0.930 . S
H4179 C4191 0.929 . S
H4180 C4194 0.930 . S
H4181 C4196 0.960 . S
H4182 C4196 0.960 . S
H4183 C4196 0.960 . S
C4184 H4176 0.929 . S
C4184 C4185 1.377 . S
C4184 C4186 1.384 . S
C4185 C4184 1.377 . S
C4185 C4191 1.390 . S
C4186 H4177 0.930 . S
C4186 C4184 1.384 . S
C4186 C4187 1.372 . S
C4187 C4186 1.372 . S
C4187 C4188 1.400 . S
C4187 C4192 1.490 . S
C4188 H4178 0.930 . S
C4188 C4187 1.400 . S
C4188 C4191 1.386 . S
H4189 C4205 0.930 . S
H4190 C4206 0.931 . S
C4191 H4179 0.929 . S
C4191 C4185 1.390 . S
C4191 C4188 1.386 . S
C4192 C4187 1.490 . S
C4192 C4194 1.395 . S
C4192 C4195 1.403 . S
H4193 C4199 0.930 . S
C4194 H4180 0.930 . S
C4194 C4192 1.395 . S
C4194 C4197 1.403 . S
C4195 C4192 1.403 . S
C4195 C4196 1.524 . S
C4195 C4199 1.400 . S
C4196 H4181 0.960 . S
C4196 H4182 0.960 . S
C4196 H4183 0.960 . S
C4196 C4195 1.524 . S
C4197 C4194 1.403 . S
C4197 C4198 1.392 . S
C4197 C4201 1.495 . S
C4198 C4197 1.392 . S
C4198 C4199 1.385 . S
C4198 C4200 1.478 1_554 S
C4199 H4193 0.930 . S
C4199 C4195 1.400 . S
C4199 C4198 1.385 . S
C4200 C4198 1.478 1_556 S
C4200 C4202 1.381 . S
C4200 C4206 1.383 . S
C4201 C4197 1.495 . S
C4201 H4207 0.959 . S
C4201 H4208 0.961 . S
C4201 H4209 0.960 . S
C4202 C4200 1.381 . S
C4202 C4203 1.394 . S
C4202 H4210 0.930 . S
C4203 C4202 1.394 . S
C4203 C4204 1.383 . S
C4203 H4211 0.929 . S
C4204 C4203 1.383 . S
C4204 C4205 1.377 . S
C4205 H4189 0.930 . S
C4205 C4204 1.377 . S
C4205 C4206 1.379 . S
C4206 H4190 0.931 . S
C4206 C4200 1.383 . S
C4206 C4205 1.379 . S
H4207 C4201 0.959 . S
H4208 C4201 0.961 . S
H4209 C4201 0.960 . S
H4210 C4202 0.930 . S
H4211 C4203 0.929 . S
H4212 C4220 0.929 . S
H4213 C4222 0.930 . S
H4214 C4224 0.930 . S
H4215 C4227 0.929 . S
H4216 C4230 0.930 . S
H4217 C4232 0.960 . S
H4218 C4232 0.960 . S
H4219 C4232 0.960 . S
C4220 H4212 0.929 . S
C4220 C4221 1.377 . S
C4220 C4222 1.384 . S
C4221 C4220 1.377 . S
C4221 C4227 1.390 . S
C4222 H4213 0.930 . S
C4222 C4220 1.384 . S
C4222 C4223 1.372 . S
C4223 C4222 1.372 . S
C4223 C4224 1.400 . S
C4223 C4228 1.490 . S
C4224 H4214 0.930 . S
C4224 C4223 1.400 . S
C4224 C4227 1.386 . S
H4225 C4241 0.930 . S
H4226 C4242 0.931 . S
C4227 H4215 0.929 . S
C4227 C4221 1.390 . S
C4227 C4224 1.386 . S
C4228 C4223 1.490 . S
C4228 C4230 1.395 . S
C4228 C4231 1.403 . S
H4229 C4235 0.930 . S
C4230 H4216 0.930 . S
C4230 C4228 1.395 . S
C4230 C4233 1.403 . S
C4231 C4228 1.403 . S
C4231 C4232 1.524 . S
C4231 C4235 1.400 . S
C4232 H4217 0.960 . S
C4232 H4218 0.960 . S
C4232 H4219 0.960 . S
C4232 C4231 1.524 . S
C4233 C4230 1.403 . S
C4233 C4234 1.392 . S
C4233 C4237 1.495 . S
C4234 C4233 1.392 . S
C4234 C4235 1.385 . S
C4234 C4236 1.478 1_554 S
C4235 H4229 0.930 . S
C4235 C4231 1.400 . S
C4235 C4234 1.385 . S
C4236 C4234 1.478 1_556 S
C4236 C4238 1.381 . S
C4236 C4242 1.383 . S
C4237 C4233 1.495 . S
C4237 H4243 0.959 . S
C4237 H4244 0.961 . S
C4237 H4245 0.960 . S
C4238 C4236 1.381 . S
C4238 C4239 1.394 . S
C4238 H4246 0.930 . S
C4239 C4238 1.394 . S
C4239 C4240 1.383 . S
C4239 H4247 0.929 . S
C4240 C4239 1.383 . S
C4240 C4241 1.377 . S
C4241 H4225 0.930 . S
C4241 C4240 1.377 . S
C4241 C4242 1.379 . S
C4242 H4226 0.931 . S
C4242 C4236 1.383 . S
C4242 C4241 1.379 . S
H4243 C4237 0.959 . S
H4244 C4237 0.961 . S
H4245 C4237 0.960 . S
H4246 C4238 0.930 . S
H4247 C4239 0.929 . S
H4248 C4256 0.929 . S
H4249 C4258 0.930 . S
H4250 C4260 0.930 . S
H4251 C4263 0.929 . S
H4252 C4266 0.930 . S
H4253 C4268 0.960 . S
H4254 C4268 0.960 . S
H4255 C4268 0.960 . S
C4256 H4248 0.929 . S
C4256 C4257 1.377 . S
C4256 C4258 1.384 . S
C4257 C4256 1.377 . S
C4257 C4263 1.390 . S
C4258 H4249 0.930 . S
C4258 C4256 1.384 . S
C4258 C4259 1.372 . S
C4259 C4258 1.372 . S
C4259 C4260 1.400 . S
C4259 C4264 1.490 . S
C4260 H4250 0.930 . S
C4260 C4259 1.400 . S
C4260 C4263 1.386 . S
H4261 C4277 0.930 . S
H4262 C4278 0.931 . S
C4263 H4251 0.929 . S
C4263 C4257 1.390 . S
C4263 C4260 1.386 . S
C4264 C4259 1.490 . S
C4264 C4266 1.395 . S
C4264 C4267 1.403 . S
H4265 C4271 0.930 . S
C4266 H4252 0.930 . S
C4266 C4264 1.395 . S
C4266 C4269 1.403 . S
C4267 C4264 1.403 . S
C4267 C4268 1.524 . S
C4267 C4271 1.400 . S
C4268 H4253 0.960 . S
C4268 H4254 0.960 . S
C4268 H4255 0.960 . S
C4268 C4267 1.524 . S
C4269 C4266 1.403 . S
C4269 C4270 1.392 . S
C4269 C4273 1.495 . S
C4270 C4269 1.392 . S
C4270 C4271 1.385 . S
C4270 C4272 1.478 1_554 S
C4271 H4265 0.930 . S
C4271 C4267 1.400 . S
C4271 C4270 1.385 . S
C4272 C4270 1.478 1_556 S
C4272 C4274 1.381 . S
C4272 C4278 1.383 . S
C4273 C4269 1.495 . S
C4273 H4279 0.959 . S
C4273 H4280 0.961 . S
C4273 H4281 0.960 . S
C4274 C4272 1.381 . S
C4274 C4275 1.394 . S
C4274 H4282 0.930 . S
C4275 C4274 1.394 . S
C4275 C4276 1.383 . S
C4275 H4283 0.929 . S
C4276 C4275 1.383 . S
C4276 C4277 1.377 . S
C4277 H4261 0.930 . S
C4277 C4276 1.377 . S
C4277 C4278 1.379 . S
C4278 H4262 0.931 . S
C4278 C4272 1.383 . S
C4278 C4277 1.379 . S
H4279 C4273 0.959 . S
H4280 C4273 0.961 . S
H4281 C4273 0.960 . S
H4282 C4274 0.930 . S
H4283 C4275 0.929 . S
H4284 C4292 0.929 . S
H4285 C4294 0.930 . S
H4286 C4296 0.930 . S
H4287 C4299 0.929 . S
H4288 C4302 0.930 . S
H4289 C4304 0.960 . S
H4290 C4304 0.960 . S
H4291 C4304 0.960 . S
C4292 H4284 0.929 . S
C4292 C4293 1.377 . S
C4292 C4294 1.384 . S
C4293 C4292 1.377 . S
C4293 C4299 1.390 . S
C4294 H4285 0.930 . S
C4294 C4292 1.384 . S
C4294 C4295 1.372 . S
C4295 C4294 1.372 . S
C4295 C4296 1.400 . S
C4295 C4300 1.490 . S
C4296 H4286 0.930 . S
C4296 C4295 1.400 . S
C4296 C4299 1.386 . S
H4297 C4313 0.930 . S
H4298 C4314 0.931 . S
C4299 H4287 0.929 . S
C4299 C4293 1.390 . S
C4299 C4296 1.386 . S
C4300 C4295 1.490 . S
C4300 C4302 1.395 . S
C4300 C4303 1.403 . S
H4301 C4307 0.930 . S
C4302 H4288 0.930 . S
C4302 C4300 1.395 . S
C4302 C4305 1.403 . S
C4303 C4300 1.403 . S
C4303 C4304 1.524 . S
C4303 C4307 1.400 . S
C4304 H4289 0.960 . S
C4304 H4290 0.960 . S
C4304 H4291 0.960 . S
C4304 C4303 1.524 . S
C4305 C4302 1.403 . S
C4305 C4306 1.392 . S
C4305 C4309 1.495 . S
C4306 C4305 1.392 . S
C4306 C4307 1.385 . S
C4306 C4308 1.478 1_554 S
C4307 H4301 0.930 . S
C4307 C4303 1.400 . S
C4307 C4306 1.385 . S
C4308 C4306 1.478 1_556 S
C4308 C4310 1.381 . S
C4308 C4314 1.383 . S
C4309 C4305 1.495 . S
C4309 H4315 0.959 . S
C4309 H4316 0.961 . S
C4309 H4317 0.960 . S
C4310 C4308 1.381 . S
C4310 C4311 1.394 . S
C4310 H4318 0.930 . S
C4311 C4310 1.394 . S
C4311 C4312 1.383 . S
C4311 H4319 0.929 . S
C4312 C4311 1.383 . S
C4312 C4313 1.377 . S
C4313 H4297 0.930 . S
C4313 C4312 1.377 . S
C4313 C4314 1.379 . S
C4314 H4298 0.931 . S
C4314 C4308 1.383 . S
C4314 C4313 1.379 . S
H4315 C4309 0.959 . S
H4316 C4309 0.961 . S
H4317 C4309 0.960 . S
H4318 C4310 0.930 . S
H4319 C4311 0.929 . S
H4320 C4328 0.929 . S
H4321 C4330 0.930 . S
H4322 C4332 0.930 . S
H4323 C4335 0.929 . S
H4324 C4338 0.930 . S
H4325 C4340 0.960 . S
H4326 C4340 0.960 . S
H4327 C4340 0.960 . S
C4328 H4320 0.929 . S
C4328 C4329 1.377 . S
C4328 C4330 1.384 . S
C4329 C4328 1.377 . S
C4329 C4335 1.390 . S
C4330 H4321 0.930 . S
C4330 C4328 1.384 . S
C4330 C4331 1.372 . S
C4331 C4330 1.372 . S
C4331 C4332 1.400 . S
C4331 C4336 1.490 1_556 S
C4332 H4322 0.930 . S
C4332 C4331 1.400 . S
C4332 C4335 1.386 . S
H4333 C4349 0.930 . S
H4334 C4350 0.931 . S
C4335 H4323 0.929 . S
C4335 C4329 1.390 . S
C4335 C4332 1.386 . S
C4336 C4331 1.490 1_554 S
C4336 C4338 1.395 . S
C4336 C4339 1.403 . S
H4337 C4343 0.930 . S
C4338 H4324 0.930 . S
C4338 C4336 1.395 . S
C4338 C4341 1.403 . S
C4339 C4336 1.403 . S
C4339 C4340 1.524 . S
C4339 C4343 1.400 . S
C4340 H4325 0.960 . S
C4340 H4326 0.960 . S
C4340 H4327 0.960 . S
C4340 C4339 1.524 . S
C4341 C4338 1.403 . S
C4341 C4342 1.392 . S
C4341 C4345 1.495 . S
C4342 C4341 1.392 . S
C4342 C4343 1.385 . S
C4342 C4344 1.478 . S
C4343 H4337 0.930 . S
C4343 C4339 1.400 . S
C4343 C4342 1.385 . S
C4344 C4342 1.478 . S
C4344 C4346 1.381 . S
C4344 C4350 1.383 . S
C4345 C4341 1.495 . S
C4345 H4351 0.959 . S
C4345 H4352 0.961 . S
C4345 H4353 0.960 . S
C4346 C4344 1.381 . S
C4346 C4347 1.394 . S
C4346 H4354 0.930 . S
C4347 C4346 1.394 . S
C4347 C4348 1.383 . S
C4347 H4355 0.929 . S
C4348 C4347 1.383 . S
C4348 C4349 1.377 . S
C4349 H4333 0.930 . S
C4349 C4348 1.377 . S
C4349 C4350 1.379 . S
C4350 H4334 0.931 . S
C4350 C4344 1.383 . S
C4350 C4349 1.379 . S
H4351 C4345 0.959 . S
H4352 C4345 0.961 . S
H4353 C4345 0.960 . S
H4354 C4346 0.930 . S
H4355 C4347 0.929 . S
H4356 C4364 0.929 1_556 S
H4357 C4366 0.930 . S
H4358 C4368 0.930 . S
H4359 C4371 0.929 . S
H4360 C4374 0.930 . S
H4361 C4376 0.960 . S
H4362 C4376 0.960 . S
H4363 C4376 0.960 . S
C4364 H4356 0.929 1_554 S
C4364 C4365 1.377 1_554 S
C4364 C4366 1.384 . S
C4365 C4364 1.377 1_556 S
C4365 C4371 1.390 1_556 S
C4366 H4357 0.930 . S
C4366 C4364 1.384 . S
C4366 C4367 1.372 . S
C4367 C4366 1.372 . S
C4367 C4368 1.400 . S
C4367 C4372 1.490 . S
C4368 H4358 0.930 . S
C4368 C4367 1.400 . S
C4368 C4371 1.386 . S
H4369 C4385 0.930 . S
H4370 C4386 0.931 . S
C4371 H4359 0.929 . S
C4371 C4365 1.390 1_554 S
C4371 C4368 1.386 . S
C4372 C4367 1.490 . S
C4372 C4374 1.395 . S
C4372 C4375 1.403 . S
H4373 C4379 0.930 . S
C4374 H4360 0.930 . S
C4374 C4372 1.395 . S
C4374 C4377 1.403 . S
C4375 C4372 1.403 . S
C4375 C4376 1.524 . S
C4375 C4379 1.400 . S
C4376 H4361 0.960 . S
C4376 H4362 0.960 . S
C4376 H4363 0.960 . S
C4376 C4375 1.524 . S
C4377 C4374 1.403 . S
C4377 C4378 1.392 . S
C4377 C4381 1.495 . S
C4378 C4377 1.392 . S
C4378 C4379 1.385 . S
C4378 C4380 1.478 . S
C4379 H4373 0.930 . S
C4379 C4375 1.400 . S
C4379 C4378 1.385 . S
C4380 C4378 1.478 . S
C4380 C4382 1.381 . S
C4380 C4386 1.383 . S
C4381 C4377 1.495 . S
C4381 H4387 0.959 . S
C4381 H4388 0.961 . S
C4381 H4389 0.960 . S
C4382 C4380 1.381 . S
C4382 C4383 1.394 . S
C4382 H4390 0.930 . S
C4383 C4382 1.394 . S
C4383 C4384 1.383 . S
C4383 H4391 0.929 . S
C4384 C4383 1.383 . S
C4384 C4385 1.377 . S
C4385 H4369 0.930 . S
C4385 C4384 1.377 . S
C4385 C4386 1.379 . S
C4386 H4370 0.931 . S
C4386 C4380 1.383 . S
C4386 C4385 1.379 . S
H4387 C4381 0.959 . S
H4388 C4381 0.961 . S
H4389 C4381 0.960 . S
H4390 C4382 0.930 . S
H4391 C4383 0.929 . S
H4392 C4400 0.929 1_556 S
H4393 C4402 0.930 . S
H4394 C4404 0.930 . S
H4395 C4407 0.929 1_556 S
H4396 C4410 0.930 . S
H4397 C4412 0.960 . S
H4398 C4412 0.960 . S
H4399 C4412 0.960 . S
C4400 H4392 0.929 1_554 S
C4400 C4401 1.377 1_554 S
C4400 C4402 1.384 . S
C4401 C4400 1.377 1_556 S
C4401 C4407 1.390 1_556 S
C4402 H4393 0.930 . S
C4402 C4400 1.384 . S
C4402 C4403 1.372 . S
C4403 C4402 1.372 . S
C4403 C4404 1.400 . S
C4403 C4408 1.490 . S
C4404 H4394 0.930 . S
C4404 C4403 1.400 . S
C4404 C4407 1.386 . S
H4405 C4421 0.930 . S
H4406 C4422 0.931 . S
C4407 H4395 0.929 1_554 S
C4407 C4401 1.390 1_554 S
C4407 C4404 1.386 . S
C4408 C4403 1.490 . S
C4408 C4410 1.395 . S
C4408 C4411 1.403 . S
H4409 C4415 0.930 . S
C4410 H4396 0.930 . S
C4410 C4408 1.395 . S
C4410 C4413 1.403 . S
C4411 C4408 1.403 . S
C4411 C4412 1.524 . S
C4411 C4415 1.400 . S
C4412 H4397 0.960 . S
C4412 H4398 0.960 . S
C4412 H4399 0.960 . S
C4412 C4411 1.524 . S
C4413 C4410 1.403 . S
C4413 C4414 1.392 . S
C4413 C4417 1.495 . S
C4414 C4413 1.392 . S
C4414 C4415 1.385 . S
C4414 C4416 1.478 . S
C4415 H4409 0.930 . S
C4415 C4411 1.400 . S
C4415 C4414 1.385 . S
C4416 C4414 1.478 . S
C4416 C4418 1.381 . S
C4416 C4422 1.383 . S
C4417 C4413 1.495 . S
C4417 H4423 0.959 . S
C4417 H4424 0.961 . S
C4417 H4425 0.960 . S
C4418 C4416 1.381 . S
C4418 C4419 1.394 . S
C4418 H4426 0.930 . S
C4419 C4418 1.394 . S
C4419 C4420 1.383 . S
C4419 H4427 0.929 . S
C4420 C4419 1.383 . S
C4420 C4421 1.377 . S
C4421 H4405 0.930 . S
C4421 C4420 1.377 . S
C4421 C4422 1.379 . S
C4422 H4406 0.931 . S
C4422 C4416 1.383 . S
C4422 C4421 1.379 . S
H4423 C4417 0.959 . S
H4424 C4417 0.961 . S
H4425 C4417 0.960 . S
H4426 C4418 0.930 . S
H4427 C4419 0.929 . S
H4428 C4436 0.929 . S
H4429 C4438 0.930 . S
H4430 C4440 0.930 . S
H4431 C4443 0.929 . S
H4432 C4446 0.930 . S
H4433 C4448 0.960 . S
H4434 C4448 0.960 . S
H4435 C4448 0.960 . S
C4436 H4428 0.929 . S
C4436 C4437 1.377 . S
C4436 C4438 1.384 . S
C4437 C4436 1.377 . S
C4437 C4443 1.390 . S
C4438 H4429 0.930 . S
C4438 C4436 1.384 . S
C4438 C4439 1.372 . S
C4439 C4438 1.372 . S
C4439 C4440 1.400 . S
C4439 C4444 1.490 . S
C4440 H4430 0.930 . S
C4440 C4439 1.400 . S
C4440 C4443 1.386 . S
H4441 C4457 0.930 1_556 S
H4442 C4458 0.931 . S
C4443 H4431 0.929 . S
C4443 C4437 1.390 . S
C4443 C4440 1.386 . S
C4444 C4439 1.490 . S
C4444 C4446 1.395 . S
C4444 C4447 1.403 . S
H4445 C4451 0.930 . S
C4446 H4432 0.930 . S
C4446 C4444 1.395 . S
C4446 C4449 1.403 . S
C4447 C4444 1.403 . S
C4447 C4448 1.524 . S
C4447 C4451 1.400 . S
C4448 H4433 0.960 . S
C4448 H4434 0.960 . S
C4448 H4435 0.960 . S
C4448 C4447 1.524 . S
C4449 C4446 1.403 . S
C4449 C4450 1.392 . S
C4449 C4453 1.495 . S
C4450 C4449 1.392 . S
C4450 C4451 1.385 . S
C4450 C4452 1.478 . S
C4451 H4445 0.930 . S
C4451 C4447 1.400 . S
C4451 C4450 1.385 . S
C4452 C4450 1.478 . S
C4452 C4454 1.381 . S
C4452 C4458 1.383 . S
C4453 C4449 1.495 . S
C4453 H4459 0.959 . S
C4453 H4460 0.961 . S
C4453 H4461 0.960 . S
C4454 C4452 1.381 . S
C4454 C4455 1.394 . S
C4454 H4462 0.930 . S
C4455 C4454 1.394 . S
C4455 C4456 1.383 1_554 S
C4455 H4463 0.929 1_554 S
C4456 C4455 1.383 1_556 S
C4456 C4457 1.377 1_556 S
C4457 H4441 0.930 1_554 S
C4457 C4456 1.377 1_554 S
C4457 C4458 1.379 . S
C4458 H4442 0.931 . S
C4458 C4452 1.383 . S
C4458 C4457 1.379 . S
H4459 C4453 0.959 . S
H4460 C4453 0.961 . S
H4461 C4453 0.960 . S
H4462 C4454 0.930 . S
H4463 C4455 0.929 1_556 S
C1233 C20 1.566 . S
C1252 C530 1.561 . S
C1269 C564 1.566 . S
C1288 C54 1.570 . S
C1305 C88 1.568 . S
C1324 C598 1.566 . S
C1341 C836 1.563 . S
C1360 C122 1.550 . S
C1377 C870 1.564 . S
C1396 C156 1.555 . S
C1413 C190 1.564 . S
C1432 C904 1.550 . S
C1449 C224 1.563 . S
C1468 C1142 1.565 . S
C1485 C1176 1.567 . S
C1504 C258 1.554 . S
C1521 C292 1.563 . S
C1540 C1210 1.563 . S
C1557 C632 1.568 . S
C1576 C326 1.562 . S
C1593 C360 1.568 . S
C1612 C666 1.554 . S
C1629 C700 1.566 . S
C1648 C394 1.550 . S
C1665 C428 1.564 . S
C1684 C938 1.551 . S
C1701 C462 1.566 . S
C1720 C972 1.558 . S
C1737 C1006 1.564 . S
C1756 C496 1.559 . S
C1773 C1040 1.564 . S
C1792 C734 1.553 . S
C1809 C1074 1.563 . S
C1828 C768 1.564 . S
C1845 C802 1.568 . S
C1864 C1108 1.570 . S
C1881 C2 1.540 . S
C1900 C376 1.541 . S
C1917 C36 1.539 . S
C1936 C308 1.540 . S
C1953 C70 1.541 . S
C1972 C342 1.533 . S
C1989 C240 1.541 . S
C2008 C104 1.536 . S
C2025 C274 1.540 . S
C2044 C138 1.534 . S
C2061 C172 1.540 . S
C2080 C206 1.533 . S
C2097 C410 1.540 . S
C2116 C784 1.537 . S
C2133 C716 1.540 . S
C2152 C444 1.541 . S
C2169 C478 1.540 . S
C2188 C750 1.541 . S
C2205 C512 1.541 . S
C2224 C648 1.537 . S
C2241 C546 1.540 . S
C2260 C682 1.535 . S
C2277 C580 1.540 . S
C2296 C614 1.541 . S
C2313 C818 1.540 . S
C2332 C1192 1.534 . S
C2349 C1124 1.541 . S
C2368 C852 1.539 . S
C2385 C1158 1.540 . S
C2404 C886 1.541 . S
C2421 C1056 1.540 . S
C2440 C920 1.540 . S
C2457 C954 1.540 . S
C2476 C1090 1.541 . S
C2493 C988 1.540 . S
C2512 C1022 1.535 . S
C2529 C1019 1.490 . S
C2548 C33 1.481 1_556 S
C2565 C67 1.494 1_556 S
C2584 C951 1.501 . S
C2601 C101 1.495 1_556 S
C2620 C985 1.503 . S
C2637 C475 1.495 . S
C2656 C135 1.496 1_554 S
C2673 C169 1.490 1_554 S
C2692 C509 1.475 . S
C2709 C203 1.494 1_554 S
C2728 C441 1.494 . S
C2745 C815 1.490 . S
C2764 C237 1.499 1_554 S
C2781 C271 1.495 1_554 S
C2800 C747 1.493 . S
C2817 C781 1.495 . S
C2836 C305 1.483 1_554 S
C2853 C1087 1.495 . S
C2872 C339 1.492 1_556 S
C2889 C1121 1.493 . S
C2908 C373 1.502 1_556 S
C2925 C1053 1.491 . S
C2944 C407 1.503 1_556 S
C2961 C543 1.492 . S
C2980 C883 1.482 . S
C2997 C917 1.495 . S
C3016 C577 1.498 . S
C3033 C611 1.491 . S
C3052 C849 1.489 . S
C3069 C645 1.494 . S
C3088 C1223 1.477 . S
C3105 C679 1.494 . S
C3124 C1155 1.497 . S
C3141 C713 1.495 . S
C3160 C1189 1.480 . S
C3177 C9 0.919 . S
C3196 C5 0.941 . S
C3213 C43 0.907 . S
C3232 C39 0.907 . S
C3249 C77 0.919 . S
C3268 C73 0.935 . S
C3285 C107 0.927 . S
C3304 C111 0.931 . S
C3321 C145 0.904 . S
C3340 C141 0.905 . S
C3357 C175 0.926 . S
C3376 C179 0.906 . S
C3393 C213 0.906 . S
C3412 C209 0.940 . S
C3429 C243 0.921 . S
C3448 C247 0.947 . S
C3465 C277 0.926 . S
C3484 C281 0.912 . S
C3501 C315 0.919 . S
C3520 C311 0.909 . S
C3537 C349 0.905 . S
C3556 C345 0.940 . S
C3573 C379 0.925 . S
C3592 C383 0.890 . S
C3609 C413 0.926 . S
C3628 C417 0.907 . S
C3645 C447 0.925 . S
C3664 C451 0.897 . S
C3681 C485 0.914 . S
C3700 C481 0.919 . S
C3717 C515 0.921 . S
C3736 C519 0.898 . S
C3753 C549 0.927 . S
C3772 C553 0.916 . S
C3789 C587 0.911 . S
C3808 C583 0.914 . S
C3825 C617 0.921 . S
C3844 C621 0.948 . S
C3861 C655 0.906 . S
C3880 C651 0.928 . S
C3897 C689 0.919 . S
C3916 C685 0.907 . S
C3933 C719 0.924 . S
C3952 C723 0.897 . S
C3969 C753 0.928 . S
C3988 C757 0.877 . S
C4005 C787 0.922 . S
C4024 C791 0.946 . S
C4041 C821 0.927 . S
C4060 C825 0.921 . S
C4077 C855 0.921 . S
C4096 C859 0.872 . S
C4113 C893 0.904 . S
C4132 C889 0.905 . S
C4149 C927 0.906 . S
C4168 C923 0.921 . S
C4185 C961 0.903 . S
C4204 C957 0.906 . S
C4221 C995 0.907 . S
C4240 C991 0.922 . S
C4257 C1029 0.919 . S
C4276 C1025 0.907 . S
C4293 C1063 0.911 . S
C4312 C1059 0.932 . S
C4329 C1093 0.928 . S
C4348 C1097 0.871 . S
C4365 C1131 0.906 . S
C4384 C1127 0.929 . S
C4401 C1165 0.919 . S
C4420 C1161 0.910 . S
C4437 C1195 0.926 . S
C4456 C1199 0.911 . S
