# Generated by pormake.
# Topology ukb, (4)-cn, num edge types: 1
# Building blocks:
#     Node 0, Type 0, BuildingBlock: AZAVOO_clean_sbu_0, # of connection points: 4
#     Node 1, Type 0, BuildingBlock: AZAVOO_clean_sbu_0, # of connection points: 4
#     Node 2, Type 0, BuildingBlock: AZAVOO_clean_sbu_0, # of connection points: 4
#     Node 3, Type 0, BuildingBlock: AZAVOO_clean_sbu_0, # of connection points: 4
#     Node 4, Type 0, BuildingBlock: AZAVOO_clean_sbu_0, # of connection points: 4
#     Node 5, Type 0, BuildingBlock: AZAVOO_clean_sbu_0, # of connection points: 4
#     Node 6, Type 0, BuildingBlock: AZAVOO_clean_sbu_0, # of connection points: 4
#     Node 7, Type 0, BuildingBlock: AZAVOO_clean_sbu_0, # of connection points: 4
#     Node 8, Type 0, BuildingBlock: AZAVOO_clean_sbu_0, # of connection points: 4
#     Node 9, Type 0, BuildingBlock: AZAVOO_clean_sbu_0, # of connection points: 4
#     Node 10, Type 0, BuildingBlock: AZAVOO_clean_sbu_0, # of connection points: 4
#     Node 11, Type 0, BuildingBlock: AZAVOO_clean_sbu_0, # of connection points: 4
#     Node 12, Type 0, BuildingBlock: AZAVOO_clean_sbu_0, # of connection points: 4
#     Node 13, Type 0, BuildingBlock: AZAVOO_clean_sbu_0, # of connection points: 4
#     Node 14, Type 0, BuildingBlock: AZAVOO_clean_sbu_0, # of connection points: 4
#     Node 15, Type 0, BuildingBlock: AZAVOO_clean_sbu_0, # of connection points: 4
#     Edge 16, Type (0, 0), BuildingBlock: XUDNAN_clean_linker_2, # of connection points: 2
#     Edge 17, Type (0, 0), BuildingBlock: XUDNAN_clean_linker_2, # of connection points: 2
#     Edge 18, Type (0, 0), BuildingBlock: XUDNAN_clean_linker_2, # of connection points: 2
#     Edge 19, Type (0, 0), BuildingBlock: XUDNAN_clean_linker_2, # of connection points: 2
#     Edge 20, Type (0, 0), BuildingBlock: XUDNAN_clean_linker_2, # of connection points: 2
#     Edge 21, Type (0, 0), BuildingBlock: XUDNAN_clean_linker_2, # of connection points: 2
#     Edge 22, Type (0, 0), BuildingBlock: XUDNAN_clean_linker_2, # of connection points: 2
#     Edge 23, Type (0, 0), BuildingBlock: XUDNAN_clean_linker_2, # of connection points: 2
#     Edge 24, Type (0, 0), BuildingBlock: XUDNAN_clean_linker_2, # of connection points: 2
#     Edge 25, Type (0, 0), BuildingBlock: XUDNAN_clean_linker_2, # of connection points: 2
#     Edge 26, Type (0, 0), BuildingBlock: XUDNAN_clean_linker_2, # of connection points: 2
#     Edge 27, Type (0, 0), BuildingBlock: XUDNAN_clean_linker_2, # of connection points: 2
#     Edge 28, Type (0, 0), BuildingBlock: XUDNAN_clean_linker_2, # of connection points: 2
#     Edge 29, Type (0, 0), BuildingBlock: XUDNAN_clean_linker_2, # of connection points: 2
#     Edge 30, Type (0, 0), BuildingBlock: XUDNAN_clean_linker_2, # of connection points: 2
#     Edge 31, Type (0, 0), BuildingBlock: XUDNAN_clean_linker_2, # of connection points: 2
#     Edge 32, Type (0, 0), BuildingBlock: XUDNAN_clean_linker_2, # of connection points: 2
#     Edge 33, Type (0, 0), BuildingBlock: XUDNAN_clean_linker_2, # of connection points: 2
#     Edge 34, Type (0, 0), BuildingBlock: XUDNAN_clean_linker_2, # of connection points: 2
#     Edge 35, Type (0, 0), BuildingBlock: XUDNAN_clean_linker_2, # of connection points: 2
#     Edge 36, Type (0, 0), BuildingBlock: XUDNAN_clean_linker_2, # of connection points: 2
#     Edge 37, Type (0, 0), BuildingBlock: XUDNAN_clean_linker_2, # of connection points: 2
#     Edge 38, Type (0, 0), BuildingBlock: XUDNAN_clean_linker_2, # of connection points: 2
#     Edge 39, Type (0, 0), BuildingBlock: XUDNAN_clean_linker_2, # of connection points: 2
#     Edge 40, Type (0, 0), BuildingBlock: XUDNAN_clean_linker_2, # of connection points: 2
#     Edge 41, Type (0, 0), BuildingBlock: XUDNAN_clean_linker_2, # of connection points: 2
#     Edge 42, Type (0, 0), BuildingBlock: XUDNAN_clean_linker_2, # of connection points: 2
#     Edge 43, Type (0, 0), BuildingBlock: XUDNAN_clean_linker_2, # of connection points: 2
#     Edge 44, Type (0, 0), BuildingBlock: XUDNAN_clean_linker_2, # of connection points: 2
#     Edge 45, Type (0, 0), BuildingBlock: XUDNAN_clean_linker_2, # of connection points: 2
#     Edge 46, Type (0, 0), BuildingBlock: XUDNAN_clean_linker_2, # of connection points: 2
#     Edge 47, Type (0, 0), BuildingBlock: XUDNAN_clean_linker_2, # of connection points: 2
# Relax obj value: 0.170
# Max RMSD: 0.200
# Mean RMSD: 0.179
data_MOF--net-ukb--node1-AZAVOO_clean_sbu_0--edge1-XUDNAN_clean_linker_2
_symmetry_space_group_name_H-M    P1
_symmetry_Int_Tables_number       1
_symmetry_cell_setting            triclinic
loop_
_symmetry_equiv_pos_as_xyz
'x, y, z'
_cell_length_a     40.391281
_cell_length_b     43.166309
_cell_length_c     40.802455
_cell_angle_alpha  90.017818
_cell_angle_beta   89.936508
_cell_angle_gamma 90.044249
loop_
_atom_site_label
_atom_site_type_symbol
_atom_site_fract_x
_atom_site_fract_y
_atom_site_fract_z
_atom_type_partial_charge
Mg0 Mg 0.52561 0.14146 0.16245 0.0
O1 O 0.53439 0.177 0.20435 0.0
O2 O 0.53487 0.14938 0.25079 0.0
Mg3 Mg 0.52461 0.09889 0.24017 0.0
C4 C 0.53728 0.1751 0.23556 0.0
C5 C 0.52457 0.17457 0.09581 0.0
O6 O 0.5405 0.14879 0.08918 0.0
O7 O 0.47071 0.13939 0.17589 0.0
O8 O 0.47291 0.11392 0.22361 0.0
O9 O 0.58016 0.1329 0.15961 0.0
O10 O 0.54612 0.1066 0.1915 0.0
C11 C 0.45679 0.12797 0.20123 0.0
C12 C 0.57605 0.11256 0.18258 0.0
O13 O 0.51533 0.17962 0.12514 0.0
Mg14 Mg 0.29454 0.5079 0.68007 0.0
O15 O 0.24599 0.52239 0.70676 0.0
O16 O 0.26118 0.53029 0.75886 0.0
Mg17 Mg 0.31622 0.52171 0.76603 0.0
C18 C 0.2393 0.53033 0.7363 0.0
C19 C 0.28453 0.49502 0.60887 0.0
O20 O 0.31328 0.50911 0.6113 0.0
O21 O 0.29437 0.45965 0.70292 0.0
O22 O 0.3119 0.47009 0.75357 0.0
O23 O 0.30565 0.55787 0.66938 0.0
O24 O 0.32144 0.53276 0.71398 0.0
C25 C 0.30378 0.45076 0.73127 0.0
C26 C 0.31935 0.55835 0.69802 0.0
O27 O 0.26767 0.49059 0.63477 0.0
Mg28 Mg 0.94402 0.33104 0.1567 0.0
O29 O 0.94024 0.28822 0.19008 0.0
O30 O 0.92671 0.30446 0.24043 0.0
Mg31 Mg 0.92495 0.35722 0.23983 0.0
C32 C 0.93298 0.2828 0.22005 0.0
C33 C 0.97762 0.31608 0.0905 0.0
O34 O 0.97759 0.34652 0.09019 0.0
O35 O 0.99416 0.34265 0.17803 0.0
O36 O 0.98126 0.35941 0.22823 0.0
O37 O 0.89089 0.32715 0.14641 0.0
O38 O 0.91094 0.35462 0.18767 0.0
C39 C 0.00259 0.35349 0.20586 0.0
C40 C 0.88554 0.34307 0.17278 0.0
O41 O 0.9669 0.30211 0.1158 0.0
Mg42 Mg 0.21604 0.95692 0.67637 0.0
O43 O 0.26356 0.93819 0.70159 0.0
O44 O 0.24602 0.9247 0.75163 0.0
Mg45 Mg 0.19081 0.93204 0.75829 0.0
C46 C 0.26904 0.92741 0.73035 0.0
C47 C 0.22317 0.97891 0.60936 0.0
O48 O 0.19353 0.96699 0.61365 0.0
O49 O 0.21797 0.00129 0.70665 0.0
O50 O 0.19816 0.98459 0.75461 0.0
O51 O 0.20308 0.90986 0.65726 0.0
O52 O 0.18673 0.92827 0.70501 0.0
C53 C 0.20837 0.0064 0.73599 0.0
C54 C 0.18713 0.90568 0.68442 0.0
O55 O 0.24309 0.97909 0.6335 0.0
Mg56 Mg 0.54135 0.32737 0.83761 0.0
O57 O 0.56344 0.29141 0.80093 0.0
O58 O 0.57454 0.31911 0.75572 0.0
Mg59 Mg 0.55807 0.36888 0.76096 0.0
C60 C 0.57501 0.29371 0.77173 0.0
C61 C 0.50635 0.30111 0.89689 0.0
O62 O 0.49595 0.32987 0.89465 0.0
O63 O 0.49185 0.32631 0.81102 0.0
O64 O 0.50403 0.35205 0.765 0.0
O65 O 0.59172 0.33877 0.85501 0.0
O66 O 0.5676 0.36228 0.81326 0.0
C67 C 0.48364 0.33733 0.7832 0.0
C68 C 0.59385 0.35777 0.83059 0.0
O69 O 0.52497 0.29059 0.87434 0.0
Mg70 Mg 0.20224 0.52528 0.32885 0.0
O71 O 0.24683 0.54253 0.29767 0.0
O72 O 0.22441 0.56318 0.2526 0.0
Mg73 Mg 0.16839 0.55758 0.25314 0.0
C74 C 0.24955 0.55678 0.27026 0.0
C75 C 0.2187 0.47894 0.381 0.0
O76 O 0.18874 0.47159 0.37114 0.0
O77 O 0.19407 0.48273 0.29669 0.0
O78 O 0.17189 0.50443 0.25199 0.0
O79 O 0.19788 0.57238 0.35117 0.0
O80 O 0.17122 0.55674 0.30665 0.0
C81 C 0.18126 0.48068 0.26818 0.0
C82 C 0.17817 0.57845 0.32706 0.0
O83 O 0.23456 0.4995 0.36511 0.0
Mg84 Mg 0.97556 0.13607 0.84002 0.0
O85 O 0.9606 0.16889 0.79764 0.0
O86 O 0.95776 0.13951 0.75252 0.0
Mg87 Mg 0.97465 0.09081 0.76399 0.0
C88 C 0.95439 0.16548 0.76709 0.0
C89 C 0.98137 0.1724 0.90466 0.0
O90 O 0.97337 0.1445 0.91483 0.0
O91 O 0.02946 0.13722 0.82329 0.0
O92 O 0.02589 0.11032 0.77654 0.0
O93 O 0.92221 0.12431 0.84633 0.0
O94 O 0.95616 0.09843 0.8139 0.0
C95 C 0.04242 0.12609 0.79733 0.0
C96 C 0.92635 0.10355 0.82377 0.0
O97 O 0.98431 0.17717 0.87405 0.0
Mg98 Mg 0.27481 0.96418 0.32065 0.0
O99 O 0.22832 0.94409 0.29468 0.0
O100 O 0.24745 0.9286 0.24588 0.0
Mg101 Mg 0.30285 0.93602 0.24079 0.0
C102 C 0.22377 0.93208 0.26631 0.0
C103 C 0.26433 0.00665 0.37685 0.0
O104 O 0.29286 0.01434 0.36361 0.0
O105 O 0.27382 0.0074 0.28834 0.0
O106 O 0.29558 0.9886 0.24209 0.0
O107 O 0.28793 0.91791 0.34211 0.0
O108 O 0.30537 0.93507 0.29425 0.0
C109 C 0.28478 0.01122 0.25922 0.0
C110 C 0.30498 0.91326 0.31571 0.0
O111 O 0.24619 0.98719 0.36182 0.0
Mg112 Mg 0.5068 0.74721 0.81847 0.0
O113 O 0.47084 0.7877 0.80874 0.0
O114 O 0.42335 0.77703 0.83441 0.0
Mg115 Mg 0.42812 0.73047 0.85987 0.0
C116 C 0.44112 0.79462 0.81646 0.0
C117 C 0.54824 0.79149 0.77325 0.0
O118 O 0.52384 0.78548 0.75294 0.0
O119 O 0.51613 0.76185 0.87193 0.0
O120 O 0.46722 0.74961 0.89413 0.0
O121 O 0.48578 0.72272 0.77424 0.0
O122 O 0.46708 0.71714 0.8247 0.0
C123 C 0.49671 0.75989 0.89658 0.0
C124 C 0.46406 0.71098 0.79406 0.0
O125 O 0.5488 0.77819 0.80103 0.0
Mg126 Mg 0.6343 0.42296 0.34001 0.0
O127 O 0.67324 0.40345 0.30363 0.0
O128 O 0.64451 0.39362 0.25777 0.0
Mg129 Mg 0.59039 0.40711 0.26342 0.0
C130 C 0.6715 0.3935 0.2741 0.0
C131 C 0.69507 0.42177 0.38702 0.0
O132 O 0.69741 0.39374 0.37466 0.0
O133 O 0.63522 0.46854 0.31301 0.0
O134 O 0.60564 0.45852 0.26804 0.0
O135 O 0.62284 0.37569 0.35763 0.0
O136 O 0.59774 0.39795 0.31565 0.0
C137 C 0.62197 0.47719 0.28622 0.0
C138 C 0.60262 0.37351 0.33315 0.0
O139 O 0.6731 0.44001 0.376 0.0
Mg140 Mg 0.99546 0.71584 0.79875 0.0
O141 O 0.03682 0.67963 0.79431 0.0
O142 O 0.0842 0.70067 0.81146 0.0
Mg143 Mg 0.07302 0.75066 0.82687 0.0
C144 C 0.06786 0.6779 0.79976 0.0
C145 C 0.93818 0.67882 0.76689 0.0
O146 O 0.93648 0.70458 0.74982 0.0
O147 O 0.99259 0.71075 0.85474 0.0
O148 O 0.03991 0.73409 0.86885 0.0
O149 O 0.0091 0.73239 0.74843 0.0
O150 O 0.02963 0.75145 0.79441 0.0
C151 C 0.01281 0.7206 0.87647 0.0
C152 C 0.02968 0.75086 0.76292 0.0
O153 O 0.95887 0.67696 0.79021 0.0
Mg154 Mg 0.84323 0.03446 0.33829 0.0
O155 O 0.79691 0.04662 0.30824 0.0
O156 O 0.81176 0.05346 0.2559 0.0
Mg157 Mg 0.86708 0.04324 0.25176 0.0
C158 C 0.78989 0.05313 0.2785 0.0
C159 C 0.78567 0.00494 0.38158 0.0
O160 O 0.77705 0.99278 0.35332 0.0
O161 O 0.84111 0.98494 0.31829 0.0
O162 O 0.8573 0.99283 0.26652 0.0
O163 O 0.85567 0.0851 0.34381 0.0
O164 O 0.87342 0.05551 0.30342 0.0
C165 C 0.84821 0.97479 0.28969 0.0
C166 C 0.87186 0.0825 0.31654 0.0
O167 O 0.81097 0.02246 0.38289 0.0
Mg168 Mg 0.50403 0.72822 0.20899 0.0
O169 O 0.46059 0.69382 0.20904 0.0
O170 O 0.41495 0.71869 0.19321 0.0
Mg171 Mg 0.42939 0.7691 0.18245 0.0
C172 C 0.42958 0.69419 0.20306 0.0
C173 C 0.56516 0.68893 0.23074 0.0
O174 O 0.57342 0.7153 0.24461 0.0
O175 O 0.50839 0.72777 0.15282 0.0
O176 O 0.46323 0.75511 0.14022 0.0
O177 O 0.48939 0.74171 0.26051 0.0
O178 O 0.47195 0.76481 0.21545 0.0
C179 C 0.48972 0.74106 0.1318 0.0
C180 C 0.47061 0.76222 0.24673 0.0
O181 O 0.5387 0.68742 0.21405 0.0
Mg182 Mg 0.84715 0.41154 0.65923 0.0
O183 O 0.80777 0.40487 0.69999 0.0
O184 O 0.8372 0.39744 0.74584 0.0
Mg185 Mg 0.89253 0.39757 0.73521 0.0
C186 C 0.80955 0.40028 0.73096 0.0
C187 C 0.81684 0.41919 0.59393 0.0
O188 O 0.84232 0.4005 0.59093 0.0
O189 O 0.85758 0.45945 0.67902 0.0
O190 O 0.88763 0.44979 0.72379 0.0
O191 O 0.84727 0.36148 0.64852 0.0
O192 O 0.87991 0.38347 0.68519 0.0
C193 C 0.87408 0.46871 0.70378 0.0
C194 C 0.86928 0.35852 0.6713 0.0
O195 O 0.81009 0.43004 0.62215 0.0
Mg196 Mg 0.98792 0.7451 0.19286 0.0
O197 O 0.0229 0.78738 0.19646 0.0
O198 O 0.07266 0.77197 0.17872 0.0
Mg199 Mg 0.07066 0.72059 0.16596 0.0
C200 C 0.05337 0.79278 0.19012 0.0
C201 C 0.92515 0.77235 0.22475 0.0
O202 O 0.92991 0.74751 0.24272 0.0
O203 O 0.98515 0.7483 0.13654 0.0
O204 O 0.03565 0.731 0.12364 0.0
O205 O 0.00243 0.73258 0.24402 0.0
O206 O 0.02858 0.71636 0.19949 0.0
C207 C 0.00698 0.74058 0.11533 0.0
C208 C 0.02747 0.71861 0.23091 0.0
O209 O 0.944 0.77717 0.20029 0.0
Mg210 Mg 0.65949 0.04207 0.658 0.0
O211 O 0.70701 0.04876 0.68906 0.0
O212 O 0.69096 0.0648 0.73881 0.0
Mg213 Mg 0.63479 0.06416 0.74135 0.0
C214 C 0.71357 0.05792 0.71819 0.0
C215 C 0.67247 0.0051 0.59458 0.0
O216 O 0.64085 -9e-05 0.59987 0.0
O217 O 0.65042 0.99566 0.68295 0.0
O218 O 0.63673 0.01129 0.73355 0.0
O219 O 0.66006 0.09189 0.64527 0.0
O220 O 0.63403 0.07296 0.68852 0.0
C221 C 0.64226 0.98992 0.71256 0.0
C222 C 0.64366 0.09679 0.67205 0.0
O223 O 0.68875 0.02041 0.61577 0.0
H224 H 0.4119 0.10018 0.16215 0.0
H225 H 0.42203 0.15475 0.25028 0.0
H226 H 0.36451 0.14243 0.2657 0.0
H227 H 0.3144 0.10875 0.15304 0.0
H228 H 0.3122 0.06885 0.14019 0.0
H229 H 0.34725 0.09239 0.12864 0.0
H230 H 0.38674 0.05179 0.15408 0.0
H231 H 0.35215 0.02842 0.16566 0.0
H232 H 0.38134 0.04081 0.19642 0.0
H233 H 0.31581 0.11224 0.28033 0.0
H234 H 0.28414 0.06547 0.29436 0.0
H235 H 0.30399 0.02805 0.19776 0.0
C236 C 0.40097 0.11105 0.18349 0.0
C237 C 0.42067 0.12898 0.20465 0.0
C238 C 0.40678 0.14157 0.23346 0.0
C239 C 0.37407 0.13475 0.24229 0.0
C240 C 0.35569 0.11507 0.22214 0.0
C241 C 0.36855 0.10364 0.19299 0.0
C242 C 0.34743 0.0774 0.17985 0.0
C243 C 0.32924 0.08747 0.14858 0.0
C244 C 0.36815 0.0479 0.17372 0.0
C245 C 0.32333 0.07336 0.20803 0.0
C246 C 0.32729 0.09637 0.23132 0.0
C247 C 0.31174 0.09465 0.26186 0.0
C248 C 0.29369 0.06788 0.26968 0.0
C249 C 0.29191 0.04295 0.24724 0.0
C250 C 0.30484 0.04684 0.2153 0.0
H251 H 0.31864 0.42215 0.78896 0.0
H252 H 0.31371 0.40642 0.6842 0.0
H253 H 0.35102 0.36189 0.68995 0.0
H254 H 0.39589 0.41751 0.79707 0.0
H255 H 0.39922 0.39718 0.83552 0.0
H256 H 0.36247 0.41855 0.82643 0.0
H257 H 0.32653 0.36961 0.83509 0.0
H258 H 0.36335 0.34793 0.845 0.0
H259 H 0.33609 0.33455 0.81303 0.0
H260 H 0.40289 0.33519 0.70264 0.0
H261 H 0.45912 0.32359 0.72281 0.0
H262 H 0.43059 0.35289 0.82017 0.0
C263 C 0.3239 0.40817 0.76755 0.0
C264 C 0.31356 0.41799 0.73614 0.0
C265 C 0.32116 0.39938 0.70857 0.0
C266 C 0.34249 0.37394 0.71163 0.0
C267 C 0.35524 0.36688 0.74251 0.0
C268 C 0.34524 0.38276 0.77031 0.0
C269 C 0.36675 0.37454 0.7995 0.0
C270 C 0.38198 0.40367 0.81549 0.0
C271 C 0.347 0.35552 0.82464 0.0
C272 C 0.39279 0.35474 0.78293 0.0
C273 C 0.38517 0.34979 0.75024 0.0
C274 C 0.40842 0.33755 0.72846 0.0
C275 C 0.44037 0.33118 0.74003 0.0
C276 C 0.44867 0.33669 0.77314 0.0
C277 C 0.42422 0.34731 0.79508 0.0
H278 H 0.03257 0.36899 0.26398 0.0
H279 H 0.05193 0.35796 0.15999 0.0
H280 H 0.10773 0.37981 0.16756 0.0
H281 H 0.06636 0.43934 0.2728 0.0
H282 H 0.08446 0.43341 0.31267 0.0
H283 H 0.04929 0.41085 0.30038 0.0
H284 H 0.08212 0.36038 0.31161 0.0
H285 H 0.11762 0.38297 0.32381 0.0
H286 H 0.12155 0.35435 0.29186 0.0
H287 H 0.15442 0.41404 0.18344 0.0
H288 H 0.18898 0.45564 0.20727 0.0
H289 H 0.14303 0.44073 0.30177 0.0
C290 C 0.04893 0.37027 0.24298 0.0
C291 C 0.03778 0.36181 0.2114 0.0
C292 C 0.05987 0.36412 0.18449 0.0
C293 C 0.09174 0.37641 0.18856 0.0
C294 C 0.10155 0.3856 0.21982 0.0
C295 C 0.08101 0.38209 0.24672 0.0
C296 C 0.09596 0.39687 0.27696 0.0
C297 C 0.07264 0.42158 0.29151 0.0
C298 C 0.10485 0.37216 0.30257 0.0
C299 C 0.12686 0.41125 0.26234 0.0
C300 C 0.12996 0.40404 0.22942 0.0
C301 C 0.15317 0.41884 0.20945 0.0
C302 C 0.17278 0.44236 0.22313 0.0
C303 C 0.16939 0.45043 0.25652 0.0
C304 C 0.14719 0.43379 0.27658 0.0
H305 H 0.19332 0.02612 0.79759 0.0
H306 H 0.20803 0.05908 0.69838 0.0
H307 H 0.1785 0.10707 0.71204 0.0
H308 H 0.11778 0.03993 0.80337 0.0
H309 H 0.11464 0.05329 0.84515 0.0
H310 H 0.14854 0.02924 0.83335 0.0
H311 H 0.19018 0.07053 0.85366 0.0
H312 H 0.15608 0.09486 0.86605 0.0
H313 H 0.18741 0.10976 0.83878 0.0
H314 H 0.13107 0.13826 0.72768 0.0
H315 H 0.07437 0.15119 0.74534 0.0
H316 H 0.08949 0.1014 0.83585 0.0
C317 C 0.19186 0.04423 0.77931 0.0
C318 C 0.20257 0.0387 0.74687 0.0
C319 C 0.2001 0.06273 0.72345 0.0
C320 C 0.18334 0.09022 0.73107 0.0
C321 C 0.16985 0.09362 0.76239 0.0
C322 C 0.17489 0.07164 0.7866 0.0
C323 C 0.15252 0.07736 0.81586 0.0
C324 C 0.13217 0.04826 0.82487 0.0
C325 C 0.17276 0.08882 0.84533 0.0
C326 C 0.13092 0.10306 0.80245 0.0
C327 C 0.14225 0.11308 0.77215 0.0
C328 C 0.12281 0.1318 0.75197 0.0
C329 C 0.09059 0.13904 0.76211 0.0
C330 C 0.07831 0.12792 0.79228 0.0
C331 C 0.09921 0.11122 0.8134 0.0
H332 H 0.55244 0.82699 0.7175 0.0
H333 H 0.59727 0.81354 0.81313 0.0
H334 H 0.63156 0.86004 0.80464 0.0
H335 H 0.6285 0.85879 0.67638 0.0
H336 H 0.60451 0.88585 0.6526 0.0
H337 H 0.58694 0.84899 0.66404 0.0
H338 H 0.53722 0.87719 0.69089 0.0
H339 H 0.55467 0.91405 0.67977 0.0
H340 H 0.5448 0.90599 0.72201 0.0
H341 H 0.65347 0.91205 0.79036 0.0
H342 H 0.66495 0.96455 0.76898 0.0
H343 H 0.60906 0.94343 0.68115 0.0
C344 C 0.57011 0.83333 0.73628 0.0
C345 C 0.57214 0.81659 0.76598 0.0
C346 C 0.5953 0.8259 0.79013 0.0
C347 C 0.61496 0.85228 0.78552 0.0
C348 C 0.6116 0.86883 0.75643 0.0
C349 C 0.59017 0.8595 0.73195 0.0
C350 C 0.58957 0.88269 0.70406 0.0
C351 C 0.6032 0.86821 0.67239 0.0
C352 C 0.55449 0.89575 0.69891 0.0
C353 C 0.6129 0.90714 0.71735 0.0
C354 C 0.62545 0.89857 0.74755 0.0
C355 C 0.6446 0.91869 0.76636 0.0
C356 C 0.65086 0.94844 0.75413 0.0
C357 C 0.63836 0.95759 0.72327 0.0
C358 C 0.61969 0.93651 0.70439 0.0
H359 H 0.55315 0.63101 0.20659 0.0
H360 H 0.61938 0.68212 0.2706 0.0
H361 H 0.64625 0.63306 0.2868 0.0
H362 H 0.53824 0.57077 0.259 0.0
H363 H 0.53679 0.54091 0.22813 0.0
H364 H 0.52654 0.58015 0.21754 0.0
H365 H 0.57121 0.57975 0.17188 0.0
H366 H 0.58152 0.54032 0.18221 0.0
H367 H 0.61329 0.56967 0.18195 0.0
H368 H 0.6604 0.57823 0.30165 0.0
H369 H 0.66151 0.52214 0.31321 0.0
H370 H 0.58617 0.50725 0.239 0.0
C371 C 0.57384 0.63204 0.22341 0.0
C372 C 0.5842 0.6604 0.23732 0.0
C373 C 0.61111 0.66067 0.25953 0.0
C374 C 0.62657 0.63293 0.26882 0.0
C375 C 0.61504 0.60526 0.25537 0.0
C376 C 0.5895 0.60467 0.23287 0.0
C377 C 0.57973 0.57185 0.2242 0.0
C378 C 0.54317 0.56557 0.23275 0.0
C379 C 0.58688 0.565 0.1879 0.0
C380 C 0.60284 0.554 0.24635 0.0
C381 C 0.62333 0.57364 0.26381 0.0
C382 C 0.64492 0.56259 0.28769 0.0
C383 C 0.64526 0.5307 0.29417 0.0
C384 C 0.62401 0.51025 0.27692 0.0
C385 C 0.60307 0.52215 0.25227 0.0
H386 H 0.94404 0.61997 0.79099 0.0
H387 H 0.89211 0.67435 0.71779 0.0
H388 H 0.86717 0.62648 0.69558 0.0
H389 H 0.96538 0.55907 0.73955 0.0
H390 H 0.96011 0.52902 0.76978 0.0
H391 H 0.97068 0.5677 0.78246 0.0
H392 H 0.91922 0.56934 0.82046 0.0
H393 H 0.90865 0.53047 0.80816 0.0
H394 H 0.87886 0.56124 0.80368 0.0
H395 H 0.85205 0.57233 0.67833 0.0
H396 H 0.84638 0.51619 0.66842 0.0
H397 H 0.90885 0.49764 0.75278 0.0
C398 C 0.92685 0.62196 0.77075 0.0
C399 C 0.91992 0.65092 0.75619 0.0
C400 C 0.89768 0.65242 0.72942 0.0
C401 C 0.88339 0.62537 0.71663 0.0
C402 C 0.89152 0.5971 0.731 0.0
C403 C 0.91252 0.59526 0.75764 0.0
C404 C 0.91892 0.56198 0.76734 0.0
C405 C 0.95596 0.55399 0.7646 0.0
C406 C 0.90561 0.55537 0.80196 0.0
C407 C 0.89881 0.54532 0.74154 0.0
C408 C 0.883 0.56595 0.72096 0.0
C409 C 0.86403 0.55594 0.6945 0.0
C410 C 0.86108 0.52399 0.68901 0.0
C411 C 0.87714 0.50241 0.70983 0.0
C412 C 0.89611 0.51342 0.73648 0.0
H413 H 0.86682 0.94579 0.2332 0.0
H414 H 0.83161 0.92725 0.33186 0.0
H415 H 0.83941 0.87111 0.32238 0.0
H416 H 0.83342 0.87442 0.19354 0.0
H417 H 0.86963 0.87083 0.16797 0.0
H418 H 0.8554 0.90862 0.18045 0.0
H419 H 0.91334 0.92058 0.2047 0.0
H420 H 0.92766 0.88295 0.19243 0.0
H421 H 0.93077 0.89466 0.23472 0.0
H422 H 0.8583 0.81796 0.30459 0.0
H423 H 0.88824 0.77327 0.28121 0.0
H424 H 0.91177 0.82756 0.19475 0.0
C425 C 0.85985 0.93 0.25263 0.0
C426 C 0.84849 0.941 0.28328 0.0
C427 C 0.84022 0.9194 0.30812 0.0
C428 C 0.84444 0.88746 0.3029 0.0
C429 C 0.85669 0.87755 0.27267 0.0
C430 C 0.86409 0.89826 0.24791 0.0
C431 C 0.88043 0.88239 0.21908 0.0
C432 C 0.85839 0.88417 0.18845 0.0
C433 C 0.91509 0.89594 0.21238 0.0
C434 C 0.88242 0.84965 0.23197 0.0
C435 C 0.86799 0.84711 0.26261 0.0
C436 C 0.86916 0.81958 0.28039 0.0
C437 C 0.88627 0.79431 0.26689 0.0
C438 C 0.90234 0.79692 0.23611 0.0
C439 C 0.89948 0.82471 0.21816 0.0
H440 H 0.55058 0.23477 0.21414 0.0
H441 H 0.53853 0.17917 0.30222 0.0
H442 H 0.55066 0.22467 0.33611 0.0
H443 H 0.61852 0.27953 0.2434 0.0
H444 H 0.60549 0.31517 0.2244 0.0
H445 H 0.59412 0.27858 0.20644 0.0
H446 H 0.53222 0.2942 0.20887 0.0
H447 H 0.54342 0.33086 0.22689 0.0
H448 H 0.51432 0.30583 0.24745 0.0
H449 H 0.56751 0.27438 0.36079 0.0
H450 H 0.58736 0.32681 0.3748 0.0
H451 H 0.58737 0.35135 0.2717 0.0
C452 C 0.55018 0.23225 0.24054 0.0
C453 C 0.54358 0.20327 0.25538 0.0
C454 C 0.54357 0.20098 0.29009 0.0
C455 C 0.55034 0.22675 0.30968 0.0
C456 C 0.55698 0.2548 0.29435 0.0
C457 C 0.55691 0.25787 0.26063 0.0
C458 C 0.56601 0.29064 0.25064 0.0
C459 C 0.59793 0.29098 0.23001 0.0
C460 C 0.53727 0.3063 0.23239 0.0
C461 C 0.5715 0.30522 0.28402 0.0
C462 C 0.56612 0.28405 0.30883 0.0
C463 C 0.57138 0.29136 0.34165 0.0
C464 C 0.58271 0.32111 0.34936 0.0
C465 C 0.58835 0.34323 0.3244 0.0
C466 C 0.58237 0.33524 0.29135 0.0
H467 H 0.22626 0.57041 0.78596 0.0
H468 H 0.17974 0.52449 0.70337 0.0
H469 H 0.12794 0.55364 0.7144 0.0
H470 H 0.15325 0.57713 0.83926 0.0
H471 H 0.16532 0.61512 0.85319 0.0
H472 H 0.19647 0.58732 0.84161 0.0
H473 H 0.22093 0.62665 0.8001 0.0
H474 H 0.18985 0.65448 0.81141 0.0
H475 H 0.19443 0.64311 0.76914 0.0
H476 H 0.0822 0.59062 0.73323 0.0
H477 H 0.04896 0.63437 0.75444 0.0
H478 H 0.12812 0.65779 0.82185 0.0
C479 C 0.20495 0.56569 0.77067 0.0
C480 C 0.20686 0.54465 0.74415 0.0
C481 C 0.1787 0.54018 0.72406 0.0
C482 C 0.1492 0.55659 0.73021 0.0
C483 C 0.14847 0.57758 0.7563 0.0
C484 C 0.17578 0.58222 0.77604 0.0
C485 C 0.17024 0.60828 0.80024 0.0
C486 C 0.17138 0.59623 0.83567 0.0
C487 C 0.19534 0.63468 0.79488 0.0
C488 C 0.13563 0.61807 0.79082 0.0
C489 C 0.12314 0.59975 0.7659 0.0
C490 C 0.09176 0.60496 0.75282 0.0
C491 C 0.07302 0.62983 0.7651 0.0
C492 C 0.08598 0.64955 0.78978 0.0
C493 C 0.11753 0.64319 0.80298 0.0
H494 H 0.86388 0.14454 0.33082 0.0
H495 H 0.91306 0.08146 0.26367 0.0
H496 H 0.93558 0.12573 0.23298 0.0
H497 H 0.84108 0.20087 0.27142 0.0
H498 H 0.84863 0.23375 0.29762 0.0
H499 H 0.83716 0.19705 0.31525 0.0
H500 H 0.88992 0.19799 0.35134 0.0
H501 H 0.90156 0.23473 0.3338 0.0
H502 H 0.92988 0.20252 0.3322 0.0
H503 H 0.95036 0.17644 0.20761 0.0
H504 H 0.95774 0.23083 0.19026 0.0
H505 H 0.90083 0.26127 0.27471 0.0
C506 C 0.87959 0.14008 0.30982 0.0
C507 C 0.88635 0.10951 0.29944 0.0
C508 C 0.90703 0.10464 0.27181 0.0
C509 C 0.92016 0.12965 0.25428 0.0
C510 C 0.91268 0.15946 0.26483 0.0
C511 C 0.89308 0.16486 0.29204 0.0
C512 C 0.88842 0.19927 0.29769 0.0
C513 C 0.85164 0.20825 0.29534 0.0
C514 C 0.90334 0.2092 0.33072 0.0
C515 C 0.90813 0.21223 0.26919 0.0
C516 C 0.92191 0.18886 0.25055 0.0
C517 C 0.93999 0.19501 0.22217 0.0
C518 C 0.94398 0.22595 0.21248 0.0
C519 C 0.9301 0.25031 0.23123 0.0
C520 C 0.91219 0.24322 0.26009 0.0
H521 H 0.28737 0.90275 0.78898 0.0
H522 H 0.32568 0.92391 0.69209 0.0
H523 H 0.37853 0.8982 0.70671 0.0
H524 H 0.36602 0.90966 0.83477 0.0
H525 H 0.3553 0.8775 0.8609 0.0
H526 H 0.32324 0.90201 0.8445 0.0
H527 H 0.29418 0.85388 0.81955 0.0
H528 H 0.32605 0.82932 0.83579 0.0
H529 H 0.31713 0.82876 0.79252 0.0
H530 H 0.42504 0.86477 0.73067 0.0
H531 H 0.45823 0.8251 0.75967 0.0
H532 H 0.38717 0.8255 0.83942 0.0
C533 C 0.30701 0.90272 0.7709 0.0
C534 C 0.30231 0.91552 0.73937 0.0
C535 C 0.32871 0.91446 0.71649 0.0
C536 C 0.35885 0.89997 0.72463 0.0
C537 C 0.36219 0.88686 0.75576 0.0
C538 C 0.33686 0.88826 0.77849 0.0
C539 C 0.34474 0.86977 0.80893 0.0
C540 C 0.34749 0.89101 0.83905 0.0
C541 C 0.31902 0.84391 0.81449 0.0
C542 C 0.37806 0.85672 0.79947 0.0
C543 C 0.3882 0.86726 0.76907 0.0
C544 C 0.41746 0.85672 0.75465 0.0
C545 C 0.43622 0.83426 0.77135 0.0
C546 C 0.42524 0.82222 0.8018 0.0
C547 C 0.39627 0.83432 0.81625 0.0
H548 H 0.566 0.23107 0.78414 0.0
H549 H 0.61993 0.29581 0.72239 0.0
H550 H 0.64472 0.25244 0.69229 0.0
H551 H 0.63132 0.17156 0.78721 0.0
H552 H 0.60242 0.13978 0.78524 0.0
H553 H 0.59024 0.17587 0.80392 0.0
H554 H 0.54006 0.17924 0.76459 0.0
H555 H 0.55213 0.14324 0.74575 0.0
H556 H 0.54687 0.17743 0.72095 0.0
H557 H 0.66143 0.20328 0.66665 0.0
H558 H 0.67 0.14991 0.64718 0.0
H559 H 0.60556 0.11576 0.72449 0.0
C560 C 0.58336 0.23601 0.76458 0.0
C561 C 0.59087 0.26686 0.75557 0.0
C562 C 0.61348 0.27241 0.72959 0.0
C563 C 0.62787 0.24793 0.71237 0.0
C564 C 0.61952 0.21789 0.72135 0.0
C565 C 0.59793 0.21168 0.74684 0.0
C566 C 0.59234 0.17705 0.75029 0.0
C567 C 0.60483 0.16538 0.78365 0.0
C568 C 0.55567 0.16877 0.74507 0.0
C569 C 0.61375 0.16504 0.72245 0.0
C570 C 0.62931 0.18908 0.70629 0.0
C571 C 0.64962 0.18416 0.67922 0.0
C572 C 0.65423 0.15375 0.66828 0.0
C573 C 0.63859 0.12863 0.68437 0.0
C574 C 0.61814 0.13443 0.71188 0.0
H575 H 0.36483 0.68285 0.18648 0.0
H576 H 0.44818 0.64305 0.23864 0.0
H577 H 0.41234 0.60049 0.25818 0.0
H578 H 0.30538 0.66889 0.24588 0.0
H579 H 0.27251 0.65949 0.21774 0.0
H580 H 0.30552 0.68476 0.20501 0.0
H581 H 0.31812 0.64873 0.15571 0.0
H582 H 0.28495 0.62338 0.1682 0.0
H583 H 0.32616 0.60821 0.1628 0.0
H584 H 0.36513 0.56596 0.27792 0.0
H585 H 0.31186 0.54095 0.29259 0.0
H586 H 0.26082 0.60238 0.22533 0.0
C587 C 0.37578 0.66487 0.20146 0.0
C588 C 0.40938 0.66639 0.21098 0.0
C589 C 0.42258 0.64238 0.23079 0.0
C590 C 0.40238 0.6181 0.2421 0.0
C591 C 0.36913 0.61781 0.23297 0.0
C592 C 0.3561 0.64034 0.21265 0.0
C593 C 0.31934 0.63566 0.20756 0.0
C594 C 0.29954 0.66387 0.21979 0.0
C595 C 0.3117 0.62856 0.17142 0.0
C596 C 0.31347 0.60757 0.22897 0.0
C597 C 0.34242 0.59747 0.24343 0.0
C598 C 0.34243 0.5733 0.26619 0.0
C599 C 0.31206 0.55926 0.27445 0.0
C600 C 0.28216 0.56934 0.25982 0.0
C601 C 0.28323 0.59356 0.23649 0.0
H602 H 0.90185 0.3408 0.72794 0.0
H603 H 0.86272 0.30579 0.63598 0.0
H604 H 0.8815 0.25338 0.65036 0.0
H605 H 0.9743 0.29169 0.73135 0.0
H606 H 0.97178 0.28553 0.77498 0.0
H607 H 0.95615 0.32088 0.75736 0.0
H608 H 0.89892 0.31075 0.78402 0.0
H609 H 0.91439 0.2754 0.80176 0.0
H610 H 0.87796 0.27458 0.7763 0.0
H611 H 0.90433 0.20545 0.67354 0.0
H612 H 0.92781 0.16295 0.70586 0.0
H613 H 0.95102 0.22745 0.78447 0.0
C614 C 0.8974 0.32215 0.71081 0.0
C615 C 0.8809 0.32741 0.68079 0.0
C616 C 0.87522 0.3023 0.65916 0.0
C617 C 0.88588 0.27244 0.66703 0.0
C618 C 0.90197 0.26799 0.69676 0.0
C619 C 0.90756 0.29197 0.71849 0.0
C620 C 0.92455 0.28033 0.74928 0.0
C621 C 0.95873 0.29551 0.75347 0.0
C622 C 0.90264 0.28558 0.77963 0.0
C623 C 0.92764 0.24613 0.74126 0.0
C624 C 0.91461 0.23974 0.71071 0.0
C625 C 0.9146 0.21007 0.69754 0.0
C626 C 0.92813 0.18608 0.71614 0.0
C627 C 0.94134 0.19178 0.74777 0.0
C628 C 0.94108 0.22231 0.76043 0.0
H629 H 0.10896 0.81956 0.16527 0.0
H630 H 0.03295 0.83194 0.23918 0.0
H631 H 0.06553 0.87457 0.26385 0.0
H632 H 0.17492 0.82693 0.21527 0.0
H633 H 0.20119 0.84761 0.187 0.0
H634 H 0.16923 0.82258 0.17168 0.0
H635 H 0.14415 0.86794 0.13833 0.0
H636 H 0.17641 0.89315 0.15321 0.0
H637 H 0.13358 0.90359 0.15885 0.0
H638 H 0.11179 0.90909 0.28613 0.0
H639 H 0.1647 0.93472 0.3008 0.0
H640 H 0.20849 0.9001 0.21076 0.0
C641 C 0.09862 0.83193 0.18598 0.0
C642 C 0.06842 0.82253 0.20025 0.0
C643 C 0.05586 0.83905 0.22758 0.0
C644 C 0.07428 0.86321 0.24184 0.0
C645 C 0.10482 0.87093 0.22803 0.0
C646 C 0.11647 0.85617 0.20021 0.0
C647 C 0.15105 0.86672 0.19153 0.0
C648 C 0.17551 0.83933 0.19139 0.0
C649 C 0.1513 0.88388 0.15852 0.0
C650 C 0.15777 0.88861 0.21964 0.0
C651 C 0.13085 0.8911 0.24038 0.0
C652 C 0.13272 0.90789 0.26961 0.0
C653 C 0.16291 0.92228 0.27783 0.0
C654 C 0.1908 0.91967 0.2569 0.0
C655 C 0.18768 0.90303 0.22721 0.0
H656 H 0.36234 0.60139 0.67336 0.0
H657 H 0.30182 0.57901 0.75786 0.0
H658 H 0.32782 0.6213 0.78896 0.0
H659 H 0.43379 0.61314 0.71482 0.0
H660 H 0.44943 0.64542 0.69143 0.0
H661 H 0.4214 0.61833 0.67273 0.0
H662 H 0.38128 0.6629 0.65787 0.0
H663 H 0.40949 0.69033 0.67609 0.0
H664 H 0.36699 0.6888 0.68952 0.0
H665 H 0.36727 0.65589 0.81405 0.0
H666 H 0.41475 0.68635 0.83146 0.0
H667 H 0.44991 0.69125 0.73097 0.0
C668 C 0.35376 0.60642 0.69794 0.0
C669 C 0.33011 0.58726 0.7134 0.0
C670 C 0.32001 0.5935 0.74584 0.0
C671 C 0.33448 0.61757 0.76357 0.0
C672 C 0.35891 0.6352 0.74835 0.0
C673 C 0.36824 0.63043 0.71614 0.0
C674 C 0.39782 0.65052 0.70721 0.0
C675 C 0.42734 0.63065 0.69589 0.0
C676 C 0.38832 0.67457 0.68113 0.0
C677 C 0.40467 0.66587 0.73997 0.0
C678 C 0.38156 0.65682 0.76308 0.0
C679 C 0.38466 0.66439 0.79597 0.0
C680 C 0.41185 0.68201 0.80561 0.0
C681 C 0.43543 0.69263 0.78245 0.0
C682 C 0.43172 0.6844 0.74909 0.0
H683 H 0.86341 0.37721 0.22604 0.0
H684 H 0.83057 0.31453 0.14928 0.0
H685 H 0.77346 0.31862 0.16936 0.0
H686 H 0.80593 0.34911 0.28942 0.0
H687 H 0.79867 0.38716 0.30614 0.0
H688 H 0.83783 0.37826 0.28711 0.0
H689 H 0.83057 0.42478 0.24769 0.0
H690 H 0.79144 0.43381 0.26657 0.0
H691 H 0.79371 0.4274 0.22297 0.0
H692 H 0.72011 0.33105 0.19476 0.0
H693 H 0.67211 0.35145 0.22478 0.0
H694 H 0.73763 0.40594 0.2865 0.0
C695 C 0.84423 0.36413 0.21372 0.0
C696 C 0.85155 0.34551 0.18608 0.0
C697 C 0.82569 0.32898 0.17044 0.0
C698 C 0.7931 0.33104 0.18172 0.0
C699 C 0.78666 0.34967 0.20877 0.0
C700 C 0.81133 0.36591 0.22471 0.0
C701 C 0.79703 0.3851 0.25256 0.0
C702 C 0.81068 0.37425 0.28578 0.0
C703 C 0.80358 0.41983 0.24711 0.0
C704 C 0.76047 0.37746 0.24923 0.0
C705 C 0.75528 0.35682 0.22385 0.0
C706 C 0.72378 0.34706 0.21484 0.0
C707 C 0.69667 0.35893 0.23197 0.0
C708 C 0.70111 0.38034 0.25794 0.0
C709 C 0.73353 0.38939 0.26698 0.0
H710 H 0.06516 0.79933 0.78622 0.0
H711 H 0.0494 0.74437 0.69857 0.0
H712 H 0.09181 0.77566 0.66947 0.0
H713 H 0.07359 0.87129 0.74622 0.0
H714 H 0.10448 0.88565 0.77423 0.0
H715 H 0.07454 0.85764 0.78796 0.0
H716 H 0.12211 0.82131 0.80651 0.0
H717 H 0.15223 0.84917 0.79258 0.0
H718 H 0.15345 0.80996 0.77741 0.0
H719 H 0.13575 0.81422 0.65021 0.0
H720 H 0.1732 0.85883 0.64113 0.0
H721 H 0.15781 0.88794 0.74177 0.0
C722 C 0.07081 0.79358 0.76099 0.0
C723 C 0.05428 0.76929 0.74468 0.0
C724 C 0.06189 0.76292 0.71148 0.0
C725 C 0.08603 0.78042 0.69488 0.0
C726 C 0.10206 0.80414 0.7119 0.0
C727 C 0.09448 0.8108 0.74417 0.0
C728 C 0.11365 0.83841 0.75666 0.0
C729 C 0.09016 0.8648 0.76684 0.0
C730 C 0.13673 0.82914 0.78496 0.0
C731 C 0.13305 0.84662 0.72626 0.0
C732 C 0.12648 0.82643 0.70077 0.0
C733 C 0.14114 0.83007 0.67007 0.0
C734 C 0.16245 0.85539 0.66518 0.0
C735 C 0.16851 0.87686 0.69079 0.0
C736 C 0.15395 0.87196 0.72176 0.0
H737 H 0.64228 0.12327 0.1716 0.0
H738 H 0.57485 0.07071 0.23316 0.0
H739 H 0.62194 0.05145 0.26539 0.0
H740 H 0.70588 0.06404 0.16928 0.0
H741 H 0.73947 0.09156 0.16948 0.0
H742 H 0.70022 0.10199 0.15172 0.0
H743 H 0.69715 0.14986 0.18995 0.0
H744 H 0.73627 0.13945 0.20799 0.0
H745 H 0.70035 0.1446 0.23367 0.0
H746 H 0.67609 0.03987 0.29278 0.0
H747 H 0.73429 0.03187 0.30937 0.0
H748 H 0.76696 0.08839 0.22751 0.0
C749 C 0.63739 0.10766 0.19182 0.0
C750 C 0.60467 0.09919 0.20033 0.0
C751 C 0.59947 0.07833 0.22666 0.0
C752 C 0.62614 0.06708 0.24507 0.0
C753 C 0.65796 0.07642 0.23649 0.0
C754 C 0.66379 0.09578 0.21014 0.0
C755 C 0.70053 0.10135 0.20542 0.0
C756 C 0.71221 0.08899 0.17199 0.0
C757 C 0.70906 0.13586 0.20951 0.0
C758 C 0.71437 0.08222 0.23335 0.0
C759 C 0.68936 0.06835 0.25122 0.0
C760 C 0.69593 0.05037 0.27881 0.0
C761 C 0.72902 0.04609 0.28814 0.0
C762 C 0.75508 0.05934 0.2696 0.0
C763 C 0.74754 0.07771 0.24194 0.0
H764 H 0.44053 0.81388 0.22505 0.0
H765 H 0.44512 0.75247 0.30903 0.0
H766 H 0.40044 0.783 0.33595 0.0
H767 H 0.42687 0.88381 0.2687 0.0
H768 H 0.39966 0.89928 0.23779 0.0
H769 H 0.4317 0.87242 0.22645 0.0
H770 H 0.38762 0.83672 0.19967 0.0
H771 H 0.35536 0.86331 0.21134 0.0
H772 H 0.35305 0.82331 0.22379 0.0
H773 H 0.3541 0.82141 0.35263 0.0
H774 H 0.31449 0.86493 0.35885 0.0
H775 H 0.34224 0.89855 0.26247 0.0
C776 C 0.43218 0.80663 0.24908 0.0
C777 C 0.44601 0.7807 0.2649 0.0
C778 C 0.43478 0.77237 0.29657 0.0
C779 C 0.40933 0.78943 0.31187 0.0
C780 C 0.39571 0.81458 0.29504 0.0
C781 C 0.40708 0.82313 0.2644 0.0
C782 C 0.3892 0.85107 0.25121 0.0
C783 C 0.41329 0.87825 0.24574 0.0
C784 C 0.37018 0.84311 0.21964 0.0
C785 C 0.36591 0.8573 0.27926 0.0
C786 C 0.36967 0.83607 0.30434 0.0
C787 C 0.35096 0.83804 0.33304 0.0
C788 C 0.32845 0.86273 0.33629 0.0
C789 C 0.32507 0.88504 0.31102 0.0
C790 C 0.34378 0.8818 0.28209 0.0
H791 H 0.74487 0.39268 0.70992 0.0
H792 H 0.80496 0.40356 0.79748 0.0
H793 H 0.75525 0.3986 0.83174 0.0
H794 H 0.67162 0.43435 0.74084 0.0
H795 H 0.64279 0.40808 0.72172 0.0
H796 H 0.68274 0.41487 0.70332 0.0
H797 H 0.69484 0.35587 0.70428 0.0
H798 H 0.65487 0.34903 0.72242 0.0
H799 H 0.69168 0.33505 0.74246 0.0
H800 H 0.70081 0.38828 0.85699 0.0
H801 H 0.64385 0.37288 0.87168 0.0
H802 H 0.6179 0.36956 0.76862 0.0
C803 C 0.74748 0.39444 0.73627 0.0
C804 C 0.77892 0.39852 0.75092 0.0
C805 C 0.78126 0.40032 0.78556 0.0
C806 C 0.75312 0.39769 0.80532 0.0
C807 C 0.72265 0.39336 0.7902 0.0
C808 C 0.7195 0.39175 0.75651 0.0
C809 C 0.68391 0.3852 0.74683 0.0
C810 C 0.66942 0.41224 0.727 0.0
C811 C 0.68118 0.35446 0.72789 0.0
C812 C 0.66784 0.38286 0.78037 0.0
C813 C 0.6907 0.38783 0.80498 0.0
C814 C 0.68251 0.38482 0.83798 0.0
C815 C 0.65017 0.37603 0.84609 0.0
C816 C 0.62637 0.37058 0.82134 0.0
C817 C 0.63523 0.3745 0.78808 0.0
H818 H 0.11577 0.59542 0.34028 0.0
H819 H 0.20828 0.62833 0.2997 0.0
H820 H 0.17991 0.67513 0.27862 0.0
H821 H 0.06856 0.61198 0.27669 0.0
H822 H 0.03193 0.62436 0.2983 0.0
H823 H 0.06038 0.59826 0.31766 0.0
H824 H 0.06705 0.63594 0.36662 0.0
H825 H 0.03804 0.66213 0.34767 0.0
H826 H 0.07861 0.67568 0.35921 0.0
H827 H 0.14011 0.71014 0.25136 0.0
H828 H 0.09238 0.73325 0.22285 0.0
H829 H 0.02521 0.6792 0.28263 0.0
C830 C 0.13016 0.61341 0.32842 0.0
C831 C 0.16409 0.60915 0.32217 0.0
C832 C 0.18237 0.63202 0.30538 0.0
C833 C 0.16643 0.65852 0.29336 0.0
C834 C 0.13246 0.66165 0.29883 0.0
C835 C 0.11462 0.63999 0.31657 0.0
C836 C 0.07781 0.64644 0.31523 0.0
C837 C 0.05858 0.61862 0.30111 0.0
C838 C 0.0646 0.6556 0.34921 0.0
C839 C 0.07746 0.67374 0.29205 0.0
C840 C 0.10927 0.68248 0.28332 0.0
C841 C 0.11517 0.70421 0.25879 0.0
C842 C 0.08795 0.71697 0.24247 0.0
C843 C 0.05537 0.70805 0.25087 0.0
C844 C 0.05 0.68688 0.27653 0.0
H845 H 0.8608 0.11847 0.83114 0.0
H846 H 0.92684 0.05804 0.77673 0.0
H847 H 0.87986 0.04014 0.74309 0.0
H848 H 0.79081 0.06506 0.83237 0.0
H849 H 0.76079 0.09569 0.82833 0.0
H850 H 0.79968 0.10309 0.84843 0.0
H851 H 0.81096 0.14839 0.80823 0.0
H852 H 0.7723 0.14093 0.78778 0.0
H853 H 0.81038 0.1412 0.76471 0.0
H854 H 0.82586 0.03141 0.71288 0.0
H855 H 0.7682 0.02871 0.69244 0.0
H856 H 0.73767 0.09295 0.76854 0.0
C857 C 0.86538 0.10119 0.81243 0.0
C858 C 0.89767 0.09008 0.80623 0.0
C859 C 0.9025 0.06743 0.78152 0.0
C860 C 0.87592 0.057 0.76233 0.0
C861 C 0.84457 0.06912 0.76846 0.0
C862 C 0.83912 0.09034 0.79327 0.0
C863 C 0.80308 0.09972 0.79495 0.0
C864 C 0.78769 0.09032 0.82798 0.0
C865 C 0.79895 0.13463 0.78852 0.0
C866 C 0.78915 0.08064 0.76706 0.0
C867 C 0.81346 0.0633 0.75189 0.0
C868 C 0.80655 0.04466 0.72479 0.0
C869 C 0.77381 0.04339 0.71324 0.0
C870 C 0.74843 0.06042 0.72902 0.0
C871 C 0.75643 0.07935 0.75616 0.0
H872 H 0.54606 0.17306 0.03206 0.0
H873 H 0.48447 0.22575 0.09918 0.0
H874 H 0.46985 0.26157 0.05425 0.0
H875 H 0.57839 0.23797 0.98864 0.0
H876 H 0.57873 0.21868 0.94945 0.0
H877 H 0.58297 0.19647 0.98653 0.0
H878 H 0.53275 0.16271 0.96953 0.0
H879 H 0.52819 0.18502 0.93249 0.0
H880 H 0.49377 0.18108 0.96034 0.0
H881 H 0.46286 0.29217 0.0024 0.0
H882 H 0.46695 0.31759 0.94846 0.0
H883 H 0.53365 0.24525 0.91515 0.0
C884 C 0.52937 0.19204 0.03733 0.0
C885 C 0.51632 0.19654 0.06915 0.0
C886 C 0.4948 0.22184 0.07503 0.0
C887 C 0.48622 0.24222 0.04962 0.0
C888 C 0.4994 0.237 0.01851 0.0
C889 C 0.52068 0.21266 0.01232 0.0
C890 C 0.53255 0.21297 0.97706 0.0
C891 C 0.5704 0.21676 0.97534 0.0
C892 C 0.52112 0.18371 0.95878 0.0
C893 C 0.51492 0.24152 0.96446 0.0
C894 C 0.49566 0.25484 0.98868 0.0
C895 C 0.47777 0.2819 0.98321 0.0
C896 C 0.48023 0.29614 0.95243 0.0
C897 C 0.50059 0.28343 0.9275 0.0
C898 C 0.51764 0.25541 0.93354 0.0
H899 H 0.27284 0.49984 0.41502 0.0
H900 H 0.18828 0.43812 0.42249 0.0
H901 H 0.19906 0.43156 0.48152 0.0
H902 H 0.32515 0.46004 0.47878 0.0
H903 H 0.34107 0.49658 0.49325 0.0
H904 H 0.33018 0.49193 0.4507 0.0
H905 H 0.29127 0.53945 0.45508 0.0
H906 H 0.30148 0.54392 0.49769 0.0
H907 H 0.25885 0.53958 0.48549 0.0
H908 H 0.21304 0.43888 0.54097 0.0
H909 H 0.23296 0.45546 0.59556 0.0
H910 H 0.30886 0.51149 0.54897 0.0
C911 C 0.2573 0.48406 0.42878 0.0
C912 C 0.22971 0.46951 0.4141 0.0
C913 C 0.20962 0.44947 0.43315 0.0
C914 C 0.21552 0.4456 0.46675 0.0
C915 C 0.24188 0.46157 0.48083 0.0
C916 C 0.26287 0.47991 0.46233 0.0
C917 C 0.28774 0.49655 0.48376 0.0
C918 C 0.32314 0.48561 0.47617 0.0
C919 C 0.28462 0.53196 0.48029 0.0
C920 C 0.27658 0.48572 0.51726 0.0
C921 C 0.25025 0.46539 0.5151 0.0
C922 C 0.23413 0.45424 0.54296 0.0
C923 C 0.24543 0.46396 0.57384 0.0
C924 C 0.27257 0.48457 0.5765 0.0
C925 C 0.28835 0.49535 0.54777 0.0
H926 H 0.97123 0.25354 0.07979 0.0
H927 H 0.00155 0.33914 0.03261 0.0
H928 H 0.00909 0.31103 0.98045 0.0
H929 H 0.02726 0.20175 0.0338 0.0
H930 H 0.99685 0.17123 0.03182 0.0
H931 H 0.99712 0.19753 0.06612 0.0
H932 H 0.93571 0.21116 0.05482 0.0
H933 H 0.93531 0.18515 0.02036 0.0
H934 H 0.92396 0.22518 0.01487 0.0
H935 H 0.00851 0.27454 0.93228 0.0
H936 H 0.0017 0.23197 0.89231 0.0
H937 H 0.97189 0.17038 0.97113 0.0
C938 C 0.98011 0.26629 0.05869 0.0
C939 C 0.98587 0.29856 0.06035 0.0
C940 C 0.99704 0.31441 0.032 0.0
C941 C 0.00142 0.29865 0.00223 0.0
C942 C 0.99469 0.267 0.00124 0.0
C943 C 0.98456 0.25094 0.02879 0.0
C944 C 0.97729 0.21735 0.02081 0.0
C945 C 0.00105 0.19569 0.03923 0.0
C946 C 0.94091 0.20926 0.02814 0.0
C947 C 0.9842 0.2172 0.98433 0.0
C948 C 0.99441 0.24599 0.97353 0.0
C949 C 0.0009 0.25179 0.94052 0.0
C950 C 0.99686 0.2275 0.91799 0.0
C951 C 0.98636 0.1978 0.92856 0.0
C952 C 0.98018 0.19271 0.96224 0.0
H953 H 0.21313 0.98644 0.41566 0.0
H954 H 0.30238 0.04251 0.41726 0.0
H955 H 0.29911 0.04547 0.47748 0.0
H956 H 0.17174 0.02503 0.48754 0.0
H957 H 0.15466 0.98871 0.50134 0.0
H958 H 0.16109 0.99542 0.4582 0.0
H959 H 0.19638 0.9454 0.45494 0.0
H960 H 0.19061 0.93881 0.49806 0.0
H961 H 0.23186 0.94125 0.48136 0.0
H962 H 0.29156 0.03475 0.53777 0.0
H963 H 0.27636 0.01585 0.59316 0.0
H964 H 0.19144 0.96834 0.55171 0.0
C965 C 0.23135 0.00024 0.42855 0.0
C966 C 0.25802 0.01418 0.4117 0.0
C967 C 0.28164 0.03164 0.42958 0.0
C968 C 0.28005 0.03345 0.46386 0.0
C969 C 0.25438 0.0181 0.47986 0.0
C970 C 0.23003 0.0024 0.46274 0.0
C971 C 0.20646 0.98601 0.48577 0.0
C972 C 0.17141 -0.00038 0.48305 0.0
C973 C 0.20636 0.9508 0.47966 0.0
C974 C 0.22212 0.99391 0.51838 0.0
C975 C 0.24964 0.01255 0.51458 0.0
C976 C 0.2696 0.02073 0.54114 0.0
C977 C 0.26096 0.00973 0.57243 0.0
C978 C 0.23261 0.99089 0.57675 0.0
C979 C 0.21297 0.98314 0.54931 0.0
H980 H 0.46246 0.78576 0.94611 0.0
H981 H 0.55669 0.74339 0.92279 0.0
H982 H 0.56818 0.73697 0.98212 0.0
H983 H 0.48849 0.8242 0.02521 0.0
H984 H 0.44858 0.81612 0.04308 0.0
H985 H 0.45207 0.82334 0.99972 0.0
H986 H 0.42275 0.771 0.9884 0.0
H987 H 0.42014 0.76304 0.03152 0.0
H988 H 0.44024 0.73577 0.00461 0.0
H989 H 0.56385 0.72676 0.04412 0.0
H990 H 0.54717 0.7196 0.10221 0.0
H991 H 0.45501 0.76768 0.08218 0.0
C992 C 0.48619 0.77645 0.95356 0.0
C993 C 0.50886 0.76537 0.93009 0.0
C994 C 0.53935 0.75263 0.94053 0.0
C995 C 0.54588 0.74862 0.97416 0.0
C996 C 0.52184 0.75793 0.99674 0.0
C997 C 0.49295 0.77232 0.98675 0.0
C998 C 0.46949 0.77754 0.01501 0.0
C999 C 0.46438 0.81237 0.02112 0.0
C1000 C 0.43622 0.76083 0.00953 0.0
C1001 C 0.48895 0.76276 0.04234 0.0
C1002 C 0.51922 0.75179 0.0317 0.0
C1003 C 0.54043 0.73578 0.05277 0.0
C1004 C 0.53063 0.73156 0.08563 0.0
C1005 C 0.49977 0.74306 0.09689 0.0
C1006 C 0.47883 0.75865 0.07465 0.0
H1007 H 0.81593 0.38818 0.53596 0.0
H1008 H 0.77211 0.46672 0.58622 0.0
H1009 H 0.73935 0.47879 0.53648 0.0
H1010 H 0.82092 0.42225 0.45499 0.0
H1011 H 0.81011 0.38661 0.43458 0.0
H1012 H 0.83151 0.38556 0.47328 0.0
H1013 H 0.7851 0.35103 0.49774 0.0
H1014 H 0.76373 0.35178 0.45909 0.0
H1015 H 0.74274 0.36403 0.49588 0.0
H1016 H 0.71095 0.48145 0.48117 0.0
H1017 H 0.68505 0.47172 0.42736 0.0
H1018 H 0.7466 0.39016 0.41482 0.0
C1019 C 0.79969 0.40813 0.53648 0.0
C1020 C 0.79672 0.42671 0.56482 0.0
C1021 C 0.77475 0.45224 0.5647 0.0
C1022 C 0.75624 0.45935 0.53653 0.0
C1023 C 0.75992 0.44055 0.50892 0.0
C1024 C 0.78089 0.41529 0.50886 0.0
C1025 C 0.77893 0.39752 0.47696 0.0
C1026 C 0.81236 0.39803 0.45889 0.0
C1027 C 0.7669 0.36413 0.48278 0.0
C1028 C 0.75328 0.41652 0.45906 0.0
C1029 C 0.74296 0.44151 0.47766 0.0
C1030 C 0.7189 0.462 0.4664 0.0
C1031 C 0.70443 0.45632 0.43573 0.0
C1032 C 0.71377 0.43012 0.41689 0.0
C1033 C 0.73897 0.41039 0.42858 0.0
H1034 H 0.05092 0.74296 0.06511 0.0
H1035 H 0.94567 0.73703 0.08543 0.0
H1036 H 0.93485 0.72931 0.02606 0.0
H1037 H 0.04431 0.78395 0.98804 0.0
H1038 H 0.07895 0.7635 0.97048 0.0
H1039 H 0.07715 0.77001 0.01402 0.0
H1040 H 0.08343 0.71092 0.02376 0.0
H1041 H 0.08455 0.70416 0.98025 0.0
H1042 H 0.05426 0.68458 0.00525 0.0
H1043 H 0.93693 0.71901 0.96357 0.0
H1044 H 0.95101 0.71336 0.90464 0.0
H1045 H 0.05491 0.72592 0.92805 0.0
C1046 C 0.02549 0.74037 0.05716 0.0
C1047 C 0.99913 0.74051 0.0799 0.0
C1048 C 0.96623 0.73723 0.06838 0.0
C1049 C 0.95991 0.73257 0.03476 0.0
C1050 C 0.98676 0.73152 0.01316 0.0
C1051 C 0.01883 0.73582 0.02403 0.0
C1052 C 0.04359 0.73372 0.9964 0.0
C1053 C 0.06207 0.76463 0.99197 0.0
C1054 C 0.06787 0.70674 0.00175 0.0
C1055 C 0.02061 0.72733 0.96809 0.0
C1056 C 0.98791 0.72594 0.978 0.0
C1057 C 0.96247 0.7202 0.95563 0.0
C1058 C 0.97071 0.71675 0.92226 0.0
C1059 C 0.00406 0.71924 0.91171 0.0
C1060 C 0.02916 0.72399 0.93521 0.0
H1061 H 0.7321 0.02457 0.5691 0.0
H1062 H 0.64587 0.96831 0.54684 0.0
H1063 H 0.66711 0.95973 0.49086 0.0
H1064 H 0.73595 0.06269 0.49356 0.0
H1065 H 0.7805 0.06348 0.49097 0.0
H1066 H 0.76054 0.06254 0.53041 0.0
H1067 H 0.79354 0.01324 0.54589 0.0
H1068 H 0.81385 0.01416 0.50654 0.0
H1069 H 0.79195 0.97984 0.51939 0.0
H1070 H 0.6954 0.96055 0.43604 0.0
H1071 H 0.72931 0.96989 0.38667 0.0
H1072 H 0.79691 0.02608 0.44426 0.0
C1073 C 0.71804 0.00987 0.5527 0.0
C1074 C 0.68737 0.99697 0.56247 0.0
C1075 C 0.66946 0.97836 0.54001 0.0
C1076 C 0.68133 0.97332 0.50813 0.0
C1077 C 0.71121 0.987 0.49903 0.0
C1078 C 0.72946 0.00472 0.5207 0.0
C1079 C 0.75987 0.0182 0.50418 0.0
C1080 C 0.75915 0.05384 0.50482 0.0
C1081 C 0.79169 0.0056 0.51994 0.0
C1082 C 0.75547 0.00584 0.46968 0.0
C1083 C 0.7274 0.98768 0.46731 0.0
C1084 C 0.71762 0.97449 0.43767 0.0
C1085 C 0.73703 0.98 0.40972 0.0
C1086 C 0.76584 -0.00133 0.41151 0.0
C1087 C 0.77513 0.0116 0.44203 0.0
loop_
_geom_bond_atom_site_label_1
_geom_bond_atom_site_label_2
_geom_bond_distance
_geom_bond_site_symmetry_2
_ccdc_geom_bond_type
Mg0 O1 2.028 . S
Mg0 O7 1.986 . S
Mg0 O9 2.114 . S
Mg0 O10 2.251 . S
Mg0 O13 2.010 . S
O1 Mg0 2.028 . S
O1 C4 1.250 . S
O2 Mg3 2.028 . S
O2 C4 1.248 . S
Mg3 O2 2.028 . S
Mg3 O8 2.032 . S
Mg3 O10 2.079 . S
C4 O1 1.250 . S
C4 O2 1.248 . S
C5 O6 1.264 . S
C5 O13 1.249 . S
O6 C5 1.264 . S
O7 Mg0 1.986 . S
O7 C11 1.246 . S
O8 Mg3 2.032 . S
O8 C11 1.259 . S
O9 Mg0 2.114 . S
O9 C12 1.252 . S
O10 Mg0 2.251 . S
O10 Mg3 2.079 . S
O10 C12 1.273 . S
C11 O7 1.246 . S
C11 O8 1.259 . S
C12 O9 1.252 . S
C12 O10 1.273 . S
O13 Mg0 2.010 . S
O13 C5 1.249 . S
Mg14 O15 2.028 . S
Mg14 O21 1.986 . S
Mg14 O23 2.114 . S
Mg14 O24 2.251 . S
Mg14 O27 2.010 . S
O15 Mg14 2.028 . S
O15 C18 1.250 . S
O16 Mg17 2.028 . S
O16 C18 1.248 . S
Mg17 O16 2.028 . S
Mg17 O22 2.032 . S
Mg17 O24 2.079 . S
C18 O15 1.250 . S
C18 O16 1.248 . S
C19 O20 1.264 . S
C19 O27 1.249 . S
O20 C19 1.264 . S
O21 Mg14 1.986 . S
O21 C25 1.246 . S
O22 Mg17 2.032 . S
O22 C25 1.259 . S
O23 Mg14 2.114 . S
O23 C26 1.252 . S
O24 Mg14 2.251 . S
O24 Mg17 2.079 . S
O24 C26 1.273 . S
C25 O21 1.246 . S
C25 O22 1.259 . S
C26 O23 1.252 . S
C26 O24 1.273 . S
O27 Mg14 2.010 . S
O27 C19 1.249 . S
Mg28 O29 2.028 . S
Mg28 O35 1.986 1_655 S
Mg28 O37 2.114 . S
Mg28 O38 2.251 . S
Mg28 O41 2.010 . S
O29 Mg28 2.028 . S
O29 C32 1.250 . S
O30 Mg31 2.028 . S
O30 C32 1.248 . S
Mg31 O30 2.028 . S
Mg31 O36 2.032 1_655 S
Mg31 O38 2.079 . S
C32 O29 1.250 . S
C32 O30 1.248 . S
C33 O34 1.264 . S
C33 O41 1.249 . S
O34 C33 1.264 . S
O35 Mg28 1.986 1_455 S
O35 C39 1.246 . S
O36 Mg31 2.032 1_455 S
O36 C39 1.259 . S
O37 Mg28 2.114 . S
O37 C40 1.252 . S
O38 Mg28 2.251 . S
O38 Mg31 2.079 . S
O38 C40 1.273 . S
C39 O35 1.246 . S
C39 O36 1.259 . S
C40 O37 1.252 . S
C40 O38 1.273 . S
O41 Mg28 2.010 . S
O41 C33 1.249 . S
Mg42 O43 2.028 . S
Mg42 O49 1.986 . S
Mg42 O51 2.114 . S
Mg42 O52 2.251 . S
Mg42 O55 2.010 . S
O43 Mg42 2.028 . S
O43 C46 1.250 . S
O44 Mg45 2.028 . S
O44 C46 1.248 . S
Mg45 O44 2.028 . S
Mg45 O50 2.032 . S
Mg45 O52 2.079 . S
C46 O43 1.250 . S
C46 O44 1.248 . S
C47 O48 1.264 . S
C47 O55 1.249 . S
O48 C47 1.264 . S
O49 Mg42 1.986 . S
O49 C53 1.246 . S
O50 Mg45 2.032 . S
O50 C53 1.259 . S
O51 Mg42 2.114 . S
O51 C54 1.252 . S
O52 Mg42 2.251 . S
O52 Mg45 2.079 . S
O52 C54 1.273 . S
C53 O49 1.246 . S
C53 O50 1.259 . S
C54 O51 1.252 . S
C54 O52 1.273 . S
O55 Mg42 2.010 . S
O55 C47 1.249 . S
Mg56 O57 2.028 . S
Mg56 O63 1.986 . S
Mg56 O65 2.114 . S
Mg56 O66 2.251 . S
Mg56 O69 2.010 . S
O57 Mg56 2.028 . S
O57 C60 1.250 . S
O58 Mg59 2.028 . S
O58 C60 1.248 . S
Mg59 O58 2.028 . S
Mg59 O64 2.032 . S
Mg59 O66 2.079 . S
C60 O57 1.250 . S
C60 O58 1.248 . S
C61 O62 1.264 . S
C61 O69 1.249 . S
O62 C61 1.264 . S
O63 Mg56 1.986 . S
O63 C67 1.246 . S
O64 Mg59 2.032 . S
O64 C67 1.259 . S
O65 Mg56 2.114 . S
O65 C68 1.252 . S
O66 Mg56 2.251 . S
O66 Mg59 2.079 . S
O66 C68 1.273 . S
C67 O63 1.246 . S
C67 O64 1.259 . S
C68 O65 1.252 . S
C68 O66 1.273 . S
O69 Mg56 2.010 . S
O69 C61 1.249 . S
Mg70 O71 2.028 . S
Mg70 O77 1.986 . S
Mg70 O79 2.114 . S
Mg70 O80 2.251 . S
Mg70 O83 2.010 . S
O71 Mg70 2.028 . S
O71 C74 1.250 . S
O72 Mg73 2.028 . S
O72 C74 1.248 . S
Mg73 O72 2.028 . S
Mg73 O78 2.032 . S
Mg73 O80 2.079 . S
C74 O71 1.250 . S
C74 O72 1.248 . S
C75 O76 1.264 . S
C75 O83 1.249 . S
O76 C75 1.264 . S
O77 Mg70 1.986 . S
O77 C81 1.246 . S
O78 Mg73 2.032 . S
O78 C81 1.259 . S
O79 Mg70 2.114 . S
O79 C82 1.252 . S
O80 Mg70 2.251 . S
O80 Mg73 2.079 . S
O80 C82 1.273 . S
C81 O77 1.246 . S
C81 O78 1.259 . S
C82 O79 1.252 . S
C82 O80 1.273 . S
O83 Mg70 2.010 . S
O83 C75 1.249 . S
Mg84 O85 2.028 . S
Mg84 O91 1.986 1_655 S
Mg84 O93 2.114 . S
Mg84 O94 2.251 . S
Mg84 O97 2.010 . S
O85 Mg84 2.028 . S
O85 C88 1.250 . S
O86 Mg87 2.028 . S
O86 C88 1.248 . S
Mg87 O86 2.028 . S
Mg87 O92 2.032 1_655 S
Mg87 O94 2.079 . S
C88 O85 1.250 . S
C88 O86 1.248 . S
C89 O90 1.264 . S
C89 O97 1.249 . S
O90 C89 1.264 . S
O91 Mg84 1.986 1_455 S
O91 C95 1.246 . S
O92 Mg87 2.032 1_455 S
O92 C95 1.259 . S
O93 Mg84 2.114 . S
O93 C96 1.252 . S
O94 Mg84 2.251 . S
O94 Mg87 2.079 . S
O94 C96 1.273 . S
C95 O91 1.246 . S
C95 O92 1.259 . S
C96 O93 1.252 . S
C96 O94 1.273 . S
O97 Mg84 2.010 . S
O97 C89 1.249 . S
Mg98 O99 2.028 . S
Mg98 O105 1.986 . S
Mg98 O107 2.114 . S
Mg98 O108 2.251 . S
Mg98 O111 2.010 . S
O99 Mg98 2.028 . S
O99 C102 1.250 . S
O100 Mg101 2.028 . S
O100 C102 1.248 . S
Mg101 O100 2.028 . S
Mg101 O106 2.032 . S
Mg101 O108 2.079 . S
C102 O99 1.250 . S
C102 O100 1.248 . S
C103 O104 1.264 . S
C103 O111 1.249 . S
O104 C103 1.264 . S
O105 Mg98 1.986 . S
O105 C109 1.246 . S
O106 Mg101 2.032 . S
O106 C109 1.259 . S
O107 Mg98 2.114 . S
O107 C110 1.252 . S
O108 Mg98 2.251 . S
O108 Mg101 2.079 . S
O108 C110 1.273 . S
C109 O105 1.246 . S
C109 O106 1.259 . S
C110 O107 1.252 . S
C110 O108 1.273 . S
O111 Mg98 2.010 . S
O111 C103 1.249 . S
Mg112 O113 2.028 . S
Mg112 O119 1.986 . S
Mg112 O121 2.114 . S
Mg112 O122 2.251 . S
Mg112 O125 2.010 . S
O113 Mg112 2.028 . S
O113 C116 1.250 . S
O114 Mg115 2.028 . S
O114 C116 1.248 . S
Mg115 O114 2.028 . S
Mg115 O120 2.032 . S
Mg115 O122 2.079 . S
C116 O113 1.250 . S
C116 O114 1.248 . S
C117 O118 1.264 . S
C117 O125 1.249 . S
O118 C117 1.264 . S
O119 Mg112 1.986 . S
O119 C123 1.246 . S
O120 Mg115 2.032 . S
O120 C123 1.259 . S
O121 Mg112 2.114 . S
O121 C124 1.252 . S
O122 Mg112 2.251 . S
O122 Mg115 2.079 . S
O122 C124 1.273 . S
C123 O119 1.246 . S
C123 O120 1.259 . S
C124 O121 1.252 . S
C124 O122 1.273 . S
O125 Mg112 2.010 . S
O125 C117 1.249 . S
Mg126 O127 2.028 . S
Mg126 O133 1.986 . S
Mg126 O135 2.114 . S
Mg126 O136 2.251 . S
Mg126 O139 2.010 . S
O127 Mg126 2.028 . S
O127 C130 1.250 . S
O128 Mg129 2.028 . S
O128 C130 1.248 . S
Mg129 O128 2.028 . S
Mg129 O134 2.032 . S
Mg129 O136 2.079 . S
C130 O127 1.250 . S
C130 O128 1.248 . S
C131 O132 1.264 . S
C131 O139 1.249 . S
O132 C131 1.264 . S
O133 Mg126 1.986 . S
O133 C137 1.246 . S
O134 Mg129 2.032 . S
O134 C137 1.259 . S
O135 Mg126 2.114 . S
O135 C138 1.252 . S
O136 Mg126 2.251 . S
O136 Mg129 2.079 . S
O136 C138 1.273 . S
C137 O133 1.246 . S
C137 O134 1.259 . S
C138 O135 1.252 . S
C138 O136 1.273 . S
O139 Mg126 2.010 . S
O139 C131 1.249 . S
Mg140 O141 2.028 . S
Mg140 O147 1.986 . S
Mg140 O149 2.114 . S
Mg140 O150 2.251 . S
Mg140 O153 2.010 1_455 S
O141 Mg140 2.028 . S
O141 C144 1.250 . S
O142 Mg143 2.028 . S
O142 C144 1.248 . S
Mg143 O142 2.028 . S
Mg143 O148 2.032 . S
Mg143 O150 2.079 . S
C144 O141 1.250 . S
C144 O142 1.248 . S
C145 O146 1.264 . S
C145 O153 1.249 . S
O146 C145 1.264 . S
O147 Mg140 1.986 . S
O147 C151 1.246 . S
O148 Mg143 2.032 . S
O148 C151 1.259 . S
O149 Mg140 2.114 . S
O149 C152 1.252 . S
O150 Mg140 2.251 . S
O150 Mg143 2.079 . S
O150 C152 1.273 . S
C151 O147 1.246 . S
C151 O148 1.259 . S
C152 O149 1.252 . S
C152 O150 1.273 . S
O153 Mg140 2.010 1_655 S
O153 C145 1.249 . S
Mg154 O155 2.028 . S
Mg154 O161 1.986 1_545 S
Mg154 O163 2.114 . S
Mg154 O164 2.251 . S
Mg154 O167 2.010 . S
O155 Mg154 2.028 . S
O155 C158 1.250 . S
O156 Mg157 2.028 . S
O156 C158 1.248 . S
Mg157 O156 2.028 . S
Mg157 O162 2.019 1_545 S
Mg157 O164 2.079 . S
C158 O155 1.250 . S
C158 O156 1.248 . S
C159 O160 1.264 . S
C159 O167 1.249 . S
O160 C159 1.264 . S
O161 Mg154 1.986 1_565 S
O161 C165 1.246 . S
O162 Mg157 2.019 1_565 S
O162 C165 1.266 . S
O163 Mg154 2.114 . S
O163 C166 1.252 . S
O164 Mg154 2.251 . S
O164 Mg157 2.079 . S
O164 C166 1.273 . S
C165 O161 1.246 . S
C165 O162 1.266 . S
C166 O163 1.252 . S
C166 O164 1.273 . S
O167 Mg154 2.010 . S
O167 C159 1.249 . S
Mg168 O169 2.028 . S
Mg168 O175 1.986 . S
Mg168 O177 2.114 . S
Mg168 O178 2.251 . S
Mg168 O181 2.010 . S
O169 Mg168 2.028 . S
O169 C172 1.250 . S
O170 Mg171 2.028 . S
O170 C172 1.248 . S
Mg171 O170 2.028 . S
Mg171 O176 2.032 . S
Mg171 O178 2.079 . S
C172 O169 1.250 . S
C172 O170 1.248 . S
C173 O174 1.264 . S
C173 O181 1.249 . S
O174 C173 1.264 . S
O175 Mg168 1.986 . S
O175 C179 1.246 . S
O176 Mg171 2.032 . S
O176 C179 1.259 . S
O177 Mg168 2.114 . S
O177 C180 1.252 . S
O178 Mg168 2.251 . S
O178 Mg171 2.079 . S
O178 C180 1.273 . S
C179 O175 1.246 . S
C179 O176 1.259 . S
C180 O177 1.252 . S
C180 O178 1.273 . S
O181 Mg168 2.010 . S
O181 C173 1.249 . S
Mg182 O183 2.028 . S
Mg182 O189 1.986 . S
Mg182 O191 2.114 . S
Mg182 O192 2.251 . S
Mg182 O195 2.010 . S
O183 Mg182 2.028 . S
O183 C186 1.250 . S
O184 Mg185 2.028 . S
O184 C186 1.248 . S
Mg185 O184 2.028 . S
Mg185 O190 2.032 . S
Mg185 O192 2.079 . S
C186 O183 1.250 . S
C186 O184 1.248 . S
C187 O188 1.264 . S
C187 O195 1.249 . S
O188 C187 1.264 . S
O189 Mg182 1.986 . S
O189 C193 1.246 . S
O190 Mg185 2.032 . S
O190 C193 1.259 . S
O191 Mg182 2.114 . S
O191 C194 1.252 . S
O192 Mg182 2.251 . S
O192 Mg185 2.079 . S
O192 C194 1.273 . S
C193 O189 1.246 . S
C193 O190 1.259 . S
C194 O191 1.252 . S
C194 O192 1.273 . S
O195 Mg182 2.010 . S
O195 C187 1.249 . S
Mg196 O197 2.028 . S
Mg196 O203 1.986 . S
Mg196 O205 2.114 . S
Mg196 O206 2.251 . S
Mg196 O209 2.010 1_455 S
O197 Mg196 2.028 . S
O197 C200 1.250 . S
O198 Mg199 2.028 . S
O198 C200 1.248 . S
Mg199 O198 2.028 . S
Mg199 O204 2.032 . S
Mg199 O206 2.079 . S
C200 O197 1.250 . S
C200 O198 1.248 . S
C201 O202 1.264 . S
C201 O209 1.249 . S
O202 C201 1.264 . S
O203 Mg196 1.986 . S
O203 C207 1.246 . S
O204 Mg199 2.032 . S
O204 C207 1.259 . S
O205 Mg196 2.114 . S
O205 C208 1.252 . S
O206 Mg196 2.251 . S
O206 Mg199 2.079 . S
O206 C208 1.273 . S
C207 O203 1.246 . S
C207 O204 1.259 . S
C208 O205 1.252 . S
C208 O206 1.273 . S
O209 Mg196 2.010 1_655 S
O209 C201 1.249 . S
Mg210 O211 2.028 . S
Mg210 O217 1.986 1_545 S
Mg210 O219 2.114 . S
Mg210 O220 2.251 . S
Mg210 O223 2.010 . S
O211 Mg210 2.028 . S
O211 C214 1.250 . S
O212 Mg213 2.028 . S
O212 C214 1.248 . S
Mg213 O212 2.028 . S
Mg213 O218 2.019 1_545 S
Mg213 O220 2.079 . S
C214 O211 1.250 . S
C214 O212 1.248 . S
C215 O216 1.264 . S
C215 O223 1.249 . S
O216 C215 1.264 . S
O217 Mg210 1.986 1_565 S
O217 C221 1.246 . S
O218 Mg213 2.019 1_565 S
O218 C221 1.267 . S
O219 Mg210 2.114 . S
O219 C222 1.252 . S
O220 Mg210 2.251 . S
O220 Mg213 2.079 . S
O220 C222 1.273 . S
C221 O217 1.246 . S
C221 O218 1.267 . S
C222 O219 1.252 . S
C222 O220 1.273 . S
O223 Mg210 2.010 . S
O223 C215 1.249 . S
H224 C236 0.930 . S
H225 C238 0.930 . S
H226 C239 0.930 . S
H227 C243 0.959 . S
H228 C243 0.959 . S
H229 C243 0.961 . S
H230 C244 0.960 . S
H231 C244 0.961 . S
H232 C244 0.959 . S
H233 C247 0.929 . S
H234 C248 0.931 . S
H235 C250 0.930 . S
C236 H224 0.930 . S
C236 C237 1.399 . S
C236 C241 1.399 . S
C237 C236 1.399 . S
C237 C238 1.376 . S
C238 H225 0.930 . S
C238 C237 1.376 . S
C238 C239 1.388 . S
C239 H226 0.930 . S
C239 C238 1.388 . S
C239 C240 1.390 . S
C240 C239 1.390 . S
C240 C241 1.394 . S
C240 C246 1.465 . S
C241 C236 1.399 . S
C241 C240 1.394 . S
C241 C242 1.516 . S
C242 C241 1.516 . S
C242 C243 1.502 . S
C242 C244 1.561 . S
C242 C245 1.526 . S
C243 H227 0.959 . S
C243 H228 0.959 . S
C243 H229 0.961 . S
C243 C242 1.502 . S
C244 H230 0.960 . S
C244 H231 0.961 . S
C244 H232 0.959 . S
C244 C242 1.561 . S
C245 C242 1.526 . S
C245 C246 1.396 . S
C245 C250 1.390 . S
C246 C240 1.465 . S
C246 C245 1.396 . S
C246 C247 1.399 . S
C247 H233 0.929 . S
C247 C246 1.399 . S
C247 C248 1.385 . S
C248 H234 0.931 . S
C248 C247 1.385 . S
C248 C249 1.389 . S
C249 C248 1.389 . S
C249 C250 1.387 . S
C250 H235 0.930 . S
C250 C245 1.390 . S
C250 C249 1.387 . S
H251 C263 0.930 . S
H252 C265 0.930 . S
H253 C266 0.930 . S
H254 C270 0.959 . S
H255 C270 0.959 . S
H256 C270 0.961 . S
H257 C271 0.960 . S
H258 C271 0.961 . S
H259 C271 0.959 . S
H260 C274 0.929 . S
H261 C275 0.931 . S
H262 C277 0.930 . S
C263 H251 0.930 . S
C263 C264 1.399 . S
C263 C268 1.399 . S
C264 C263 1.399 . S
C264 C265 1.376 . S
C265 H252 0.930 . S
C265 C264 1.376 . S
C265 C266 1.388 . S
C266 H253 0.930 . S
C266 C265 1.388 . S
C266 C267 1.390 . S
C267 C266 1.390 . S
C267 C268 1.394 . S
C267 C273 1.465 . S
C268 C263 1.399 . S
C268 C267 1.394 . S
C268 C269 1.516 . S
C269 C268 1.516 . S
C269 C270 1.502 . S
C269 C271 1.561 . S
C269 C272 1.526 . S
C270 H254 0.959 . S
C270 H255 0.959 . S
C270 H256 0.961 . S
C270 C269 1.502 . S
C271 H257 0.960 . S
C271 H258 0.961 . S
C271 H259 0.959 . S
C271 C269 1.561 . S
C272 C269 1.526 . S
C272 C273 1.396 . S
C272 C277 1.390 . S
C273 C267 1.465 . S
C273 C272 1.396 . S
C273 C274 1.399 . S
C274 H260 0.929 . S
C274 C273 1.399 . S
C274 C275 1.385 . S
C275 H261 0.931 . S
C275 C274 1.385 . S
C275 C276 1.389 . S
C276 C275 1.389 . S
C276 C277 1.387 . S
C277 H262 0.930 . S
C277 C272 1.390 . S
C277 C276 1.387 . S
H278 C290 0.930 . S
H279 C292 0.930 . S
H280 C293 0.930 . S
H281 C297 0.959 . S
H282 C297 0.959 . S
H283 C297 0.961 . S
H284 C298 0.960 . S
H285 C298 0.961 . S
H286 C298 0.959 . S
H287 C301 0.929 . S
H288 C302 0.931 . S
H289 C304 0.930 . S
C290 H278 0.930 . S
C290 C291 1.399 . S
C290 C295 1.399 . S
C291 C290 1.399 . S
C291 C292 1.376 . S
C292 H279 0.930 . S
C292 C291 1.376 . S
C292 C293 1.388 . S
C293 H280 0.930 . S
C293 C292 1.388 . S
C293 C294 1.390 . S
C294 C293 1.390 . S
C294 C295 1.394 . S
C294 C300 1.465 . S
C295 C290 1.399 . S
C295 C294 1.394 . S
C295 C296 1.516 . S
C296 C295 1.516 . S
C296 C297 1.502 . S
C296 C298 1.561 . S
C296 C299 1.526 . S
C297 H281 0.959 . S
C297 H282 0.959 . S
C297 H283 0.961 . S
C297 C296 1.502 . S
C298 H284 0.960 . S
C298 H285 0.961 . S
C298 H286 0.959 . S
C298 C296 1.561 . S
C299 C296 1.526 . S
C299 C300 1.396 . S
C299 C304 1.390 . S
C300 C294 1.465 . S
C300 C299 1.396 . S
C300 C301 1.399 . S
C301 H287 0.929 . S
C301 C300 1.399 . S
C301 C302 1.385 . S
C302 H288 0.931 . S
C302 C301 1.385 . S
C302 C303 1.389 . S
C303 C302 1.389 . S
C303 C304 1.387 . S
C304 H289 0.930 . S
C304 C299 1.390 . S
C304 C303 1.387 . S
H305 C317 0.930 . S
H306 C319 0.930 . S
H307 C320 0.930 . S
H308 C324 0.959 . S
H309 C324 0.959 . S
H310 C324 0.961 . S
H311 C325 0.960 . S
H312 C325 0.961 . S
H313 C325 0.959 . S
H314 C328 0.929 . S
H315 C329 0.931 . S
H316 C331 0.930 . S
C317 H305 0.930 . S
C317 C318 1.399 . S
C317 C322 1.399 . S
C318 C317 1.399 . S
C318 C319 1.376 . S
C319 H306 0.930 . S
C319 C318 1.376 . S
C319 C320 1.388 . S
C320 H307 0.930 . S
C320 C319 1.388 . S
C320 C321 1.390 . S
C321 C320 1.390 . S
C321 C322 1.394 . S
C321 C327 1.465 . S
C322 C317 1.399 . S
C322 C321 1.394 . S
C322 C323 1.516 . S
C323 C322 1.516 . S
C323 C324 1.502 . S
C323 C325 1.561 . S
C323 C326 1.526 . S
C324 H308 0.959 . S
C324 H309 0.959 . S
C324 H310 0.961 . S
C324 C323 1.502 . S
C325 H311 0.960 . S
C325 H312 0.961 . S
C325 H313 0.959 . S
C325 C323 1.561 . S
C326 C323 1.526 . S
C326 C327 1.396 . S
C326 C331 1.390 . S
C327 C321 1.465 . S
C327 C326 1.396 . S
C327 C328 1.399 . S
C328 H314 0.929 . S
C328 C327 1.399 . S
C328 C329 1.385 . S
C329 H315 0.931 . S
C329 C328 1.385 . S
C329 C330 1.389 . S
C330 C329 1.389 . S
C330 C331 1.387 . S
C331 H316 0.930 . S
C331 C326 1.390 . S
C331 C330 1.387 . S
H332 C344 0.930 . S
H333 C346 0.930 . S
H334 C347 0.930 . S
H335 C351 0.959 . S
H336 C351 0.959 . S
H337 C351 0.961 . S
H338 C352 0.960 . S
H339 C352 0.961 . S
H340 C352 0.959 . S
H341 C355 0.929 . S
H342 C356 0.931 . S
H343 C358 0.930 . S
C344 H332 0.930 . S
C344 C345 1.399 . S
C344 C349 1.399 . S
C345 C344 1.399 . S
C345 C346 1.376 . S
C346 H333 0.930 . S
C346 C345 1.376 . S
C346 C347 1.388 . S
C347 H334 0.930 . S
C347 C346 1.388 . S
C347 C348 1.390 . S
C348 C347 1.390 . S
C348 C349 1.394 . S
C348 C354 1.465 . S
C349 C344 1.399 . S
C349 C348 1.394 . S
C349 C350 1.516 . S
C350 C349 1.516 . S
C350 C351 1.502 . S
C350 C352 1.561 . S
C350 C353 1.526 . S
C351 H335 0.959 . S
C351 H336 0.959 . S
C351 H337 0.961 . S
C351 C350 1.502 . S
C352 H338 0.960 . S
C352 H339 0.961 . S
C352 H340 0.959 . S
C352 C350 1.561 . S
C353 C350 1.526 . S
C353 C354 1.396 . S
C353 C358 1.390 . S
C354 C348 1.465 . S
C354 C353 1.396 . S
C354 C355 1.399 . S
C355 H341 0.929 . S
C355 C354 1.399 . S
C355 C356 1.385 . S
C356 H342 0.931 . S
C356 C355 1.385 . S
C356 C357 1.389 . S
C357 C356 1.389 . S
C357 C358 1.387 . S
C358 H343 0.930 . S
C358 C353 1.390 . S
C358 C357 1.387 . S
H359 C371 0.930 . S
H360 C373 0.930 . S
H361 C374 0.930 . S
H362 C378 0.959 . S
H363 C378 0.959 . S
H364 C378 0.961 . S
H365 C379 0.960 . S
H366 C379 0.961 . S
H367 C379 0.959 . S
H368 C382 0.929 . S
H369 C383 0.931 . S
H370 C385 0.930 . S
C371 H359 0.930 . S
C371 C372 1.399 . S
C371 C376 1.399 . S
C372 C371 1.399 . S
C372 C373 1.376 . S
C373 H360 0.930 . S
C373 C372 1.376 . S
C373 C374 1.388 . S
C374 H361 0.930 . S
C374 C373 1.388 . S
C374 C375 1.390 . S
C375 C374 1.390 . S
C375 C376 1.394 . S
C375 C381 1.465 . S
C376 C371 1.399 . S
C376 C375 1.394 . S
C376 C377 1.516 . S
C377 C376 1.516 . S
C377 C378 1.502 . S
C377 C379 1.561 . S
C377 C380 1.526 . S
C378 H362 0.959 . S
C378 H363 0.959 . S
C378 H364 0.961 . S
C378 C377 1.502 . S
C379 H365 0.960 . S
C379 H366 0.961 . S
C379 H367 0.959 . S
C379 C377 1.561 . S
C380 C377 1.526 . S
C380 C381 1.396 . S
C380 C385 1.390 . S
C381 C375 1.465 . S
C381 C380 1.396 . S
C381 C382 1.399 . S
C382 H368 0.929 . S
C382 C381 1.399 . S
C382 C383 1.385 . S
C383 H369 0.931 . S
C383 C382 1.385 . S
C383 C384 1.389 . S
C384 C383 1.389 . S
C384 C385 1.387 . S
C385 H370 0.930 . S
C385 C380 1.390 . S
C385 C384 1.387 . S
H386 C398 0.930 . S
H387 C400 0.930 . S
H388 C401 0.930 . S
H389 C405 0.959 . S
H390 C405 0.959 . S
H391 C405 0.961 . S
H392 C406 0.960 . S
H393 C406 0.961 . S
H394 C406 0.959 . S
H395 C409 0.929 . S
H396 C410 0.931 . S
H397 C412 0.930 . S
C398 H386 0.930 . S
C398 C399 1.399 . S
C398 C403 1.399 . S
C399 C398 1.399 . S
C399 C400 1.376 . S
C400 H387 0.930 . S
C400 C399 1.376 . S
C400 C401 1.388 . S
C401 H388 0.930 . S
C401 C400 1.388 . S
C401 C402 1.390 . S
C402 C401 1.390 . S
C402 C403 1.394 . S
C402 C408 1.465 . S
C403 C398 1.399 . S
C403 C402 1.394 . S
C403 C404 1.516 . S
C404 C403 1.516 . S
C404 C405 1.502 . S
C404 C406 1.561 . S
C404 C407 1.526 . S
C405 H389 0.959 . S
C405 H390 0.959 . S
C405 H391 0.961 . S
C405 C404 1.502 . S
C406 H392 0.960 . S
C406 H393 0.961 . S
C406 H394 0.959 . S
C406 C404 1.561 . S
C407 C404 1.526 . S
C407 C408 1.396 . S
C407 C412 1.390 . S
C408 C402 1.465 . S
C408 C407 1.396 . S
C408 C409 1.399 . S
C409 H395 0.929 . S
C409 C408 1.399 . S
C409 C410 1.385 . S
C410 H396 0.931 . S
C410 C409 1.385 . S
C410 C411 1.389 . S
C411 C410 1.389 . S
C411 C412 1.387 . S
C412 H397 0.930 . S
C412 C407 1.390 . S
C412 C411 1.387 . S
H413 C425 0.930 . S
H414 C427 0.930 . S
H415 C428 0.930 . S
H416 C432 0.959 . S
H417 C432 0.959 . S
H418 C432 0.961 . S
H419 C433 0.960 . S
H420 C433 0.961 . S
H421 C433 0.959 . S
H422 C436 0.929 . S
H423 C437 0.931 . S
H424 C439 0.930 . S
C425 H413 0.930 . S
C425 C426 1.399 . S
C425 C430 1.399 . S
C426 C425 1.399 . S
C426 C427 1.376 . S
C427 H414 0.930 . S
C427 C426 1.376 . S
C427 C428 1.388 . S
C428 H415 0.930 . S
C428 C427 1.388 . S
C428 C429 1.390 . S
C429 C428 1.390 . S
C429 C430 1.394 . S
C429 C435 1.465 . S
C430 C425 1.399 . S
C430 C429 1.394 . S
C430 C431 1.516 . S
C431 C430 1.516 . S
C431 C432 1.502 . S
C431 C433 1.561 . S
C431 C434 1.526 . S
C432 H416 0.959 . S
C432 H417 0.959 . S
C432 H418 0.961 . S
C432 C431 1.502 . S
C433 H419 0.960 . S
C433 H420 0.961 . S
C433 H421 0.959 . S
C433 C431 1.561 . S
C434 C431 1.526 . S
C434 C435 1.396 . S
C434 C439 1.390 . S
C435 C429 1.465 . S
C435 C434 1.396 . S
C435 C436 1.399 . S
C436 H422 0.929 . S
C436 C435 1.399 . S
C436 C437 1.385 . S
C437 H423 0.931 . S
C437 C436 1.385 . S
C437 C438 1.389 . S
C438 C437 1.389 . S
C438 C439 1.387 . S
C439 H424 0.930 . S
C439 C434 1.390 . S
C439 C438 1.387 . S
H440 C452 0.930 . S
H441 C454 0.930 . S
H442 C455 0.930 . S
H443 C459 0.959 . S
H444 C459 0.959 . S
H445 C459 0.961 . S
H446 C460 0.960 . S
H447 C460 0.961 . S
H448 C460 0.959 . S
H449 C463 0.929 . S
H450 C464 0.931 . S
H451 C466 0.930 . S
C452 H440 0.930 . S
C452 C453 1.399 . S
C452 C457 1.399 . S
C453 C452 1.399 . S
C453 C454 1.376 . S
C454 H441 0.930 . S
C454 C453 1.376 . S
C454 C455 1.388 . S
C455 H442 0.930 . S
C455 C454 1.388 . S
C455 C456 1.390 . S
C456 C455 1.390 . S
C456 C457 1.394 . S
C456 C462 1.465 . S
C457 C452 1.399 . S
C457 C456 1.394 . S
C457 C458 1.516 . S
C458 C457 1.516 . S
C458 C459 1.502 . S
C458 C460 1.561 . S
C458 C461 1.526 . S
C459 H443 0.959 . S
C459 H444 0.959 . S
C459 H445 0.961 . S
C459 C458 1.502 . S
C460 H446 0.960 . S
C460 H447 0.961 . S
C460 H448 0.959 . S
C460 C458 1.561 . S
C461 C458 1.526 . S
C461 C462 1.396 . S
C461 C466 1.390 . S
C462 C456 1.465 . S
C462 C461 1.396 . S
C462 C463 1.399 . S
C463 H449 0.929 . S
C463 C462 1.399 . S
C463 C464 1.385 . S
C464 H450 0.931 . S
C464 C463 1.385 . S
C464 C465 1.389 . S
C465 C464 1.389 . S
C465 C466 1.387 . S
C466 H451 0.930 . S
C466 C461 1.390 . S
C466 C465 1.387 . S
H467 C479 0.930 . S
H468 C481 0.930 . S
H469 C482 0.930 . S
H470 C486 0.959 . S
H471 C486 0.959 . S
H472 C486 0.961 . S
H473 C487 0.960 . S
H474 C487 0.961 . S
H475 C487 0.959 . S
H476 C490 0.929 . S
H477 C491 0.931 . S
H478 C493 0.930 . S
C479 H467 0.930 . S
C479 C480 1.399 . S
C479 C484 1.399 . S
C480 C479 1.399 . S
C480 C481 1.376 . S
C481 H468 0.930 . S
C481 C480 1.376 . S
C481 C482 1.388 . S
C482 H469 0.930 . S
C482 C481 1.388 . S
C482 C483 1.390 . S
C483 C482 1.390 . S
C483 C484 1.394 . S
C483 C489 1.465 . S
C484 C479 1.399 . S
C484 C483 1.394 . S
C484 C485 1.516 . S
C485 C484 1.516 . S
C485 C486 1.502 . S
C485 C487 1.561 . S
C485 C488 1.526 . S
C486 H470 0.959 . S
C486 H471 0.959 . S
C486 H472 0.961 . S
C486 C485 1.502 . S
C487 H473 0.960 . S
C487 H474 0.961 . S
C487 H475 0.959 . S
C487 C485 1.561 . S
C488 C485 1.526 . S
C488 C489 1.396 . S
C488 C493 1.390 . S
C489 C483 1.465 . S
C489 C488 1.396 . S
C489 C490 1.399 . S
C490 H476 0.929 . S
C490 C489 1.399 . S
C490 C491 1.385 . S
C491 H477 0.931 . S
C491 C490 1.385 . S
C491 C492 1.389 . S
C492 C491 1.389 . S
C492 C493 1.387 . S
C493 H478 0.930 . S
C493 C488 1.390 . S
C493 C492 1.387 . S
H494 C506 0.930 . S
H495 C508 0.930 . S
H496 C509 0.930 . S
H497 C513 0.959 . S
H498 C513 0.959 . S
H499 C513 0.961 . S
H500 C514 0.960 . S
H501 C514 0.961 . S
H502 C514 0.959 . S
H503 C517 0.929 . S
H504 C518 0.931 . S
H505 C520 0.930 . S
C506 H494 0.930 . S
C506 C507 1.399 . S
C506 C511 1.399 . S
C507 C506 1.399 . S
C507 C508 1.376 . S
C508 H495 0.930 . S
C508 C507 1.376 . S
C508 C509 1.388 . S
C509 H496 0.930 . S
C509 C508 1.388 . S
C509 C510 1.390 . S
C510 C509 1.390 . S
C510 C511 1.394 . S
C510 C516 1.465 . S
C511 C506 1.399 . S
C511 C510 1.394 . S
C511 C512 1.516 . S
C512 C511 1.516 . S
C512 C513 1.502 . S
C512 C514 1.561 . S
C512 C515 1.526 . S
C513 H497 0.959 . S
C513 H498 0.959 . S
C513 H499 0.961 . S
C513 C512 1.502 . S
C514 H500 0.960 . S
C514 H501 0.961 . S
C514 H502 0.959 . S
C514 C512 1.561 . S
C515 C512 1.526 . S
C515 C516 1.396 . S
C515 C520 1.390 . S
C516 C510 1.465 . S
C516 C515 1.396 . S
C516 C517 1.399 . S
C517 H503 0.929 . S
C517 C516 1.399 . S
C517 C518 1.385 . S
C518 H504 0.931 . S
C518 C517 1.385 . S
C518 C519 1.389 . S
C519 C518 1.389 . S
C519 C520 1.387 . S
C520 H505 0.930 . S
C520 C515 1.390 . S
C520 C519 1.387 . S
H521 C533 0.930 . S
H522 C535 0.930 . S
H523 C536 0.930 . S
H524 C540 0.959 . S
H525 C540 0.959 . S
H526 C540 0.961 . S
H527 C541 0.960 . S
H528 C541 0.961 . S
H529 C541 0.959 . S
H530 C544 0.929 . S
H531 C545 0.931 . S
H532 C547 0.930 . S
C533 H521 0.930 . S
C533 C534 1.399 . S
C533 C538 1.399 . S
C534 C533 1.399 . S
C534 C535 1.376 . S
C535 H522 0.930 . S
C535 C534 1.376 . S
C535 C536 1.388 . S
C536 H523 0.930 . S
C536 C535 1.388 . S
C536 C537 1.390 . S
C537 C536 1.390 . S
C537 C538 1.394 . S
C537 C543 1.465 . S
C538 C533 1.399 . S
C538 C537 1.394 . S
C538 C539 1.516 . S
C539 C538 1.516 . S
C539 C540 1.502 . S
C539 C541 1.561 . S
C539 C542 1.526 . S
C540 H524 0.959 . S
C540 H525 0.959 . S
C540 H526 0.961 . S
C540 C539 1.502 . S
C541 H527 0.960 . S
C541 H528 0.961 . S
C541 H529 0.959 . S
C541 C539 1.561 . S
C542 C539 1.526 . S
C542 C543 1.396 . S
C542 C547 1.390 . S
C543 C537 1.465 . S
C543 C542 1.396 . S
C543 C544 1.399 . S
C544 H530 0.929 . S
C544 C543 1.399 . S
C544 C545 1.385 . S
C545 H531 0.931 . S
C545 C544 1.385 . S
C545 C546 1.389 . S
C546 C545 1.389 . S
C546 C547 1.387 . S
C547 H532 0.930 . S
C547 C542 1.390 . S
C547 C546 1.387 . S
H548 C560 0.930 . S
H549 C562 0.930 . S
H550 C563 0.930 . S
H551 C567 0.959 . S
H552 C567 0.959 . S
H553 C567 0.961 . S
H554 C568 0.960 . S
H555 C568 0.961 . S
H556 C568 0.959 . S
H557 C571 0.929 . S
H558 C572 0.931 . S
H559 C574 0.930 . S
C560 H548 0.930 . S
C560 C561 1.399 . S
C560 C565 1.399 . S
C561 C560 1.399 . S
C561 C562 1.376 . S
C562 H549 0.930 . S
C562 C561 1.376 . S
C562 C563 1.388 . S
C563 H550 0.930 . S
C563 C562 1.388 . S
C563 C564 1.390 . S
C564 C563 1.390 . S
C564 C565 1.394 . S
C564 C570 1.465 . S
C565 C560 1.399 . S
C565 C564 1.394 . S
C565 C566 1.516 . S
C566 C565 1.516 . S
C566 C567 1.502 . S
C566 C568 1.561 . S
C566 C569 1.526 . S
C567 H551 0.959 . S
C567 H552 0.959 . S
C567 H553 0.961 . S
C567 C566 1.502 . S
C568 H554 0.960 . S
C568 H555 0.961 . S
C568 H556 0.959 . S
C568 C566 1.561 . S
C569 C566 1.526 . S
C569 C570 1.396 . S
C569 C574 1.390 . S
C570 C564 1.465 . S
C570 C569 1.396 . S
C570 C571 1.399 . S
C571 H557 0.929 . S
C571 C570 1.399 . S
C571 C572 1.385 . S
C572 H558 0.931 . S
C572 C571 1.385 . S
C572 C573 1.389 . S
C573 C572 1.389 . S
C573 C574 1.387 . S
C574 H559 0.930 . S
C574 C569 1.390 . S
C574 C573 1.387 . S
H575 C587 0.930 . S
H576 C589 0.930 . S
H577 C590 0.930 . S
H578 C594 0.959 . S
H579 C594 0.959 . S
H580 C594 0.961 . S
H581 C595 0.960 . S
H582 C595 0.961 . S
H583 C595 0.959 . S
H584 C598 0.929 . S
H585 C599 0.931 . S
H586 C601 0.930 . S
C587 H575 0.930 . S
C587 C588 1.399 . S
C587 C592 1.399 . S
C588 C587 1.399 . S
C588 C589 1.376 . S
C589 H576 0.930 . S
C589 C588 1.376 . S
C589 C590 1.388 . S
C590 H577 0.930 . S
C590 C589 1.388 . S
C590 C591 1.390 . S
C591 C590 1.390 . S
C591 C592 1.394 . S
C591 C597 1.465 . S
C592 C587 1.399 . S
C592 C591 1.394 . S
C592 C593 1.516 . S
C593 C592 1.516 . S
C593 C594 1.502 . S
C593 C595 1.561 . S
C593 C596 1.526 . S
C594 H578 0.959 . S
C594 H579 0.959 . S
C594 H580 0.961 . S
C594 C593 1.502 . S
C595 H581 0.960 . S
C595 H582 0.961 . S
C595 H583 0.959 . S
C595 C593 1.561 . S
C596 C593 1.526 . S
C596 C597 1.396 . S
C596 C601 1.390 . S
C597 C591 1.465 . S
C597 C596 1.396 . S
C597 C598 1.399 . S
C598 H584 0.929 . S
C598 C597 1.399 . S
C598 C599 1.385 . S
C599 H585 0.931 . S
C599 C598 1.385 . S
C599 C600 1.389 . S
C600 C599 1.389 . S
C600 C601 1.387 . S
C601 H586 0.930 . S
C601 C596 1.390 . S
C601 C600 1.387 . S
H602 C614 0.930 . S
H603 C616 0.930 . S
H604 C617 0.930 . S
H605 C621 0.959 . S
H606 C621 0.959 . S
H607 C621 0.961 . S
H608 C622 0.960 . S
H609 C622 0.961 . S
H610 C622 0.959 . S
H611 C625 0.929 . S
H612 C626 0.931 . S
H613 C628 0.930 . S
C614 H602 0.930 . S
C614 C615 1.399 . S
C614 C619 1.399 . S
C615 C614 1.399 . S
C615 C616 1.376 . S
C616 H603 0.930 . S
C616 C615 1.376 . S
C616 C617 1.388 . S
C617 H604 0.930 . S
C617 C616 1.388 . S
C617 C618 1.390 . S
C618 C617 1.390 . S
C618 C619 1.394 . S
C618 C624 1.465 . S
C619 C614 1.399 . S
C619 C618 1.394 . S
C619 C620 1.516 . S
C620 C619 1.516 . S
C620 C621 1.502 . S
C620 C622 1.561 . S
C620 C623 1.526 . S
C621 H605 0.959 . S
C621 H606 0.959 . S
C621 H607 0.961 . S
C621 C620 1.502 . S
C622 H608 0.960 . S
C622 H609 0.961 . S
C622 H610 0.959 . S
C622 C620 1.561 . S
C623 C620 1.526 . S
C623 C624 1.396 . S
C623 C628 1.390 . S
C624 C618 1.465 . S
C624 C623 1.396 . S
C624 C625 1.399 . S
C625 H611 0.929 . S
C625 C624 1.399 . S
C625 C626 1.385 . S
C626 H612 0.931 . S
C626 C625 1.385 . S
C626 C627 1.389 . S
C627 C626 1.389 . S
C627 C628 1.387 . S
C628 H613 0.930 . S
C628 C623 1.390 . S
C628 C627 1.387 . S
H629 C641 0.930 . S
H630 C643 0.930 . S
H631 C644 0.930 . S
H632 C648 0.959 . S
H633 C648 0.959 . S
H634 C648 0.961 . S
H635 C649 0.960 . S
H636 C649 0.961 . S
H637 C649 0.959 . S
H638 C652 0.929 . S
H639 C653 0.931 . S
H640 C655 0.930 . S
C641 H629 0.930 . S
C641 C642 1.399 . S
C641 C646 1.399 . S
C642 C641 1.399 . S
C642 C643 1.376 . S
C643 H630 0.930 . S
C643 C642 1.376 . S
C643 C644 1.388 . S
C644 H631 0.930 . S
C644 C643 1.388 . S
C644 C645 1.390 . S
C645 C644 1.390 . S
C645 C646 1.394 . S
C645 C651 1.465 . S
C646 C641 1.399 . S
C646 C645 1.394 . S
C646 C647 1.516 . S
C647 C646 1.516 . S
C647 C648 1.502 . S
C647 C649 1.561 . S
C647 C650 1.526 . S
C648 H632 0.959 . S
C648 H633 0.959 . S
C648 H634 0.961 . S
C648 C647 1.502 . S
C649 H635 0.960 . S
C649 H636 0.961 . S
C649 H637 0.959 . S
C649 C647 1.561 . S
C650 C647 1.526 . S
C650 C651 1.396 . S
C650 C655 1.390 . S
C651 C645 1.465 . S
C651 C650 1.396 . S
C651 C652 1.399 . S
C652 H638 0.929 . S
C652 C651 1.399 . S
C652 C653 1.385 . S
C653 H639 0.931 . S
C653 C652 1.385 . S
C653 C654 1.389 . S
C654 C653 1.389 . S
C654 C655 1.387 . S
C655 H640 0.930 . S
C655 C650 1.390 . S
C655 C654 1.387 . S
H656 C668 0.930 . S
H657 C670 0.930 . S
H658 C671 0.930 . S
H659 C675 0.959 . S
H660 C675 0.959 . S
H661 C675 0.961 . S
H662 C676 0.960 . S
H663 C676 0.961 . S
H664 C676 0.959 . S
H665 C679 0.929 . S
H666 C680 0.931 . S
H667 C682 0.930 . S
C668 H656 0.930 . S
C668 C669 1.399 . S
C668 C673 1.399 . S
C669 C668 1.399 . S
C669 C670 1.376 . S
C670 H657 0.930 . S
C670 C669 1.376 . S
C670 C671 1.388 . S
C671 H658 0.930 . S
C671 C670 1.388 . S
C671 C672 1.390 . S
C672 C671 1.390 . S
C672 C673 1.394 . S
C672 C678 1.465 . S
C673 C668 1.399 . S
C673 C672 1.394 . S
C673 C674 1.516 . S
C674 C673 1.516 . S
C674 C675 1.502 . S
C674 C676 1.561 . S
C674 C677 1.526 . S
C675 H659 0.959 . S
C675 H660 0.959 . S
C675 H661 0.961 . S
C675 C674 1.502 . S
C676 H662 0.960 . S
C676 H663 0.961 . S
C676 H664 0.959 . S
C676 C674 1.561 . S
C677 C674 1.526 . S
C677 C678 1.396 . S
C677 C682 1.390 . S
C678 C672 1.465 . S
C678 C677 1.396 . S
C678 C679 1.399 . S
C679 H665 0.929 . S
C679 C678 1.399 . S
C679 C680 1.385 . S
C680 H666 0.931 . S
C680 C679 1.385 . S
C680 C681 1.389 . S
C681 C680 1.389 . S
C681 C682 1.387 . S
C682 H667 0.930 . S
C682 C677 1.390 . S
C682 C681 1.387 . S
H683 C695 0.930 . S
H684 C697 0.930 . S
H685 C698 0.930 . S
H686 C702 0.959 . S
H687 C702 0.959 . S
H688 C702 0.961 . S
H689 C703 0.960 . S
H690 C703 0.961 . S
H691 C703 0.959 . S
H692 C706 0.929 . S
H693 C707 0.931 . S
H694 C709 0.930 . S
C695 H683 0.930 . S
C695 C696 1.399 . S
C695 C700 1.399 . S
C696 C695 1.399 . S
C696 C697 1.376 . S
C697 H684 0.930 . S
C697 C696 1.376 . S
C697 C698 1.388 . S
C698 H685 0.930 . S
C698 C697 1.388 . S
C698 C699 1.390 . S
C699 C698 1.390 . S
C699 C700 1.394 . S
C699 C705 1.465 . S
C700 C695 1.399 . S
C700 C699 1.394 . S
C700 C701 1.516 . S
C701 C700 1.516 . S
C701 C702 1.502 . S
C701 C703 1.561 . S
C701 C704 1.526 . S
C702 H686 0.959 . S
C702 H687 0.959 . S
C702 H688 0.961 . S
C702 C701 1.502 . S
C703 H689 0.960 . S
C703 H690 0.961 . S
C703 H691 0.959 . S
C703 C701 1.561 . S
C704 C701 1.526 . S
C704 C705 1.396 . S
C704 C709 1.390 . S
C705 C699 1.465 . S
C705 C704 1.396 . S
C705 C706 1.399 . S
C706 H692 0.929 . S
C706 C705 1.399 . S
C706 C707 1.385 . S
C707 H693 0.931 . S
C707 C706 1.385 . S
C707 C708 1.389 . S
C708 C707 1.389 . S
C708 C709 1.387 . S
C709 H694 0.930 . S
C709 C704 1.390 . S
C709 C708 1.387 . S
H710 C722 0.930 . S
H711 C724 0.930 . S
H712 C725 0.930 . S
H713 C729 0.959 . S
H714 C729 0.959 . S
H715 C729 0.961 . S
H716 C730 0.960 . S
H717 C730 0.961 . S
H718 C730 0.959 . S
H719 C733 0.929 . S
H720 C734 0.931 . S
H721 C736 0.930 . S
C722 H710 0.930 . S
C722 C723 1.399 . S
C722 C727 1.399 . S
C723 C722 1.399 . S
C723 C724 1.376 . S
C724 H711 0.930 . S
C724 C723 1.376 . S
C724 C725 1.388 . S
C725 H712 0.930 . S
C725 C724 1.388 . S
C725 C726 1.390 . S
C726 C725 1.390 . S
C726 C727 1.394 . S
C726 C732 1.465 . S
C727 C722 1.399 . S
C727 C726 1.394 . S
C727 C728 1.516 . S
C728 C727 1.516 . S
C728 C729 1.502 . S
C728 C730 1.561 . S
C728 C731 1.526 . S
C729 H713 0.959 . S
C729 H714 0.959 . S
C729 H715 0.961 . S
C729 C728 1.502 . S
C730 H716 0.960 . S
C730 H717 0.961 . S
C730 H718 0.959 . S
C730 C728 1.561 . S
C731 C728 1.526 . S
C731 C732 1.396 . S
C731 C736 1.390 . S
C732 C726 1.465 . S
C732 C731 1.396 . S
C732 C733 1.399 . S
C733 H719 0.929 . S
C733 C732 1.399 . S
C733 C734 1.385 . S
C734 H720 0.931 . S
C734 C733 1.385 . S
C734 C735 1.389 . S
C735 C734 1.389 . S
C735 C736 1.387 . S
C736 H721 0.930 . S
C736 C731 1.390 . S
C736 C735 1.387 . S
H737 C749 0.930 . S
H738 C751 0.930 . S
H739 C752 0.930 . S
H740 C756 0.959 . S
H741 C756 0.959 . S
H742 C756 0.961 . S
H743 C757 0.960 . S
H744 C757 0.961 . S
H745 C757 0.959 . S
H746 C760 0.929 . S
H747 C761 0.931 . S
H748 C763 0.930 . S
C749 H737 0.930 . S
C749 C750 1.399 . S
C749 C754 1.399 . S
C750 C749 1.399 . S
C750 C751 1.376 . S
C751 H738 0.930 . S
C751 C750 1.376 . S
C751 C752 1.388 . S
C752 H739 0.930 . S
C752 C751 1.388 . S
C752 C753 1.390 . S
C753 C752 1.390 . S
C753 C754 1.394 . S
C753 C759 1.465 . S
C754 C749 1.399 . S
C754 C753 1.394 . S
C754 C755 1.516 . S
C755 C754 1.516 . S
C755 C756 1.502 . S
C755 C757 1.561 . S
C755 C758 1.526 . S
C756 H740 0.959 . S
C756 H741 0.959 . S
C756 H742 0.961 . S
C756 C755 1.502 . S
C757 H743 0.960 . S
C757 H744 0.961 . S
C757 H745 0.959 . S
C757 C755 1.561 . S
C758 C755 1.526 . S
C758 C759 1.396 . S
C758 C763 1.390 . S
C759 C753 1.465 . S
C759 C758 1.396 . S
C759 C760 1.399 . S
C760 H746 0.929 . S
C760 C759 1.399 . S
C760 C761 1.385 . S
C761 H747 0.931 . S
C761 C760 1.385 . S
C761 C762 1.389 . S
C762 C761 1.389 . S
C762 C763 1.387 . S
C763 H748 0.930 . S
C763 C758 1.390 . S
C763 C762 1.387 . S
H764 C776 0.930 . S
H765 C778 0.930 . S
H766 C779 0.930 . S
H767 C783 0.959 . S
H768 C783 0.959 . S
H769 C783 0.961 . S
H770 C784 0.960 . S
H771 C784 0.961 . S
H772 C784 0.959 . S
H773 C787 0.929 . S
H774 C788 0.931 . S
H775 C790 0.930 . S
C776 H764 0.930 . S
C776 C777 1.399 . S
C776 C781 1.399 . S
C777 C776 1.399 . S
C777 C778 1.376 . S
C778 H765 0.930 . S
C778 C777 1.376 . S
C778 C779 1.388 . S
C779 H766 0.930 . S
C779 C778 1.388 . S
C779 C780 1.390 . S
C780 C779 1.390 . S
C780 C781 1.394 . S
C780 C786 1.465 . S
C781 C776 1.399 . S
C781 C780 1.394 . S
C781 C782 1.516 . S
C782 C781 1.516 . S
C782 C783 1.502 . S
C782 C784 1.561 . S
C782 C785 1.526 . S
C783 H767 0.959 . S
C783 H768 0.959 . S
C783 H769 0.961 . S
C783 C782 1.502 . S
C784 H770 0.960 . S
C784 H771 0.961 . S
C784 H772 0.959 . S
C784 C782 1.561 . S
C785 C782 1.526 . S
C785 C786 1.396 . S
C785 C790 1.390 . S
C786 C780 1.465 . S
C786 C785 1.396 . S
C786 C787 1.399 . S
C787 H773 0.929 . S
C787 C786 1.399 . S
C787 C788 1.385 . S
C788 H774 0.931 . S
C788 C787 1.385 . S
C788 C789 1.389 . S
C789 C788 1.389 . S
C789 C790 1.387 . S
C790 H775 0.930 . S
C790 C785 1.390 . S
C790 C789 1.387 . S
H791 C803 0.930 . S
H792 C805 0.930 . S
H793 C806 0.930 . S
H794 C810 0.959 . S
H795 C810 0.959 . S
H796 C810 0.961 . S
H797 C811 0.960 . S
H798 C811 0.961 . S
H799 C811 0.959 . S
H800 C814 0.929 . S
H801 C815 0.931 . S
H802 C817 0.930 . S
C803 H791 0.930 . S
C803 C804 1.399 . S
C803 C808 1.399 . S
C804 C803 1.399 . S
C804 C805 1.376 . S
C805 H792 0.930 . S
C805 C804 1.376 . S
C805 C806 1.388 . S
C806 H793 0.930 . S
C806 C805 1.388 . S
C806 C807 1.390 . S
C807 C806 1.390 . S
C807 C808 1.394 . S
C807 C813 1.465 . S
C808 C803 1.399 . S
C808 C807 1.394 . S
C808 C809 1.516 . S
C809 C808 1.516 . S
C809 C810 1.502 . S
C809 C811 1.561 . S
C809 C812 1.526 . S
C810 H794 0.959 . S
C810 H795 0.959 . S
C810 H796 0.961 . S
C810 C809 1.502 . S
C811 H797 0.960 . S
C811 H798 0.961 . S
C811 H799 0.959 . S
C811 C809 1.561 . S
C812 C809 1.526 . S
C812 C813 1.396 . S
C812 C817 1.390 . S
C813 C807 1.465 . S
C813 C812 1.396 . S
C813 C814 1.399 . S
C814 H800 0.929 . S
C814 C813 1.399 . S
C814 C815 1.385 . S
C815 H801 0.931 . S
C815 C814 1.385 . S
C815 C816 1.389 . S
C816 C815 1.389 . S
C816 C817 1.387 . S
C817 H802 0.930 . S
C817 C812 1.390 . S
C817 C816 1.387 . S
H818 C830 0.930 . S
H819 C832 0.930 . S
H820 C833 0.930 . S
H821 C837 0.959 . S
H822 C837 0.959 . S
H823 C837 0.961 . S
H824 C838 0.960 . S
H825 C838 0.961 . S
H826 C838 0.959 . S
H827 C841 0.929 . S
H828 C842 0.931 . S
H829 C844 0.930 . S
C830 H818 0.930 . S
C830 C831 1.399 . S
C830 C835 1.399 . S
C831 C830 1.399 . S
C831 C832 1.376 . S
C832 H819 0.930 . S
C832 C831 1.376 . S
C832 C833 1.388 . S
C833 H820 0.930 . S
C833 C832 1.388 . S
C833 C834 1.390 . S
C834 C833 1.390 . S
C834 C835 1.394 . S
C834 C840 1.465 . S
C835 C830 1.399 . S
C835 C834 1.394 . S
C835 C836 1.516 . S
C836 C835 1.516 . S
C836 C837 1.502 . S
C836 C838 1.561 . S
C836 C839 1.526 . S
C837 H821 0.959 . S
C837 H822 0.959 . S
C837 H823 0.961 . S
C837 C836 1.502 . S
C838 H824 0.960 . S
C838 H825 0.961 . S
C838 H826 0.959 . S
C838 C836 1.561 . S
C839 C836 1.526 . S
C839 C840 1.396 . S
C839 C844 1.390 . S
C840 C834 1.465 . S
C840 C839 1.396 . S
C840 C841 1.399 . S
C841 H827 0.929 . S
C841 C840 1.399 . S
C841 C842 1.385 . S
C842 H828 0.931 . S
C842 C841 1.385 . S
C842 C843 1.389 . S
C843 C842 1.389 . S
C843 C844 1.387 . S
C844 H829 0.930 . S
C844 C839 1.390 . S
C844 C843 1.387 . S
H845 C857 0.930 . S
H846 C859 0.930 . S
H847 C860 0.930 . S
H848 C864 0.959 . S
H849 C864 0.959 . S
H850 C864 0.961 . S
H851 C865 0.960 . S
H852 C865 0.961 . S
H853 C865 0.959 . S
H854 C868 0.929 . S
H855 C869 0.931 . S
H856 C871 0.930 . S
C857 H845 0.930 . S
C857 C858 1.399 . S
C857 C862 1.399 . S
C858 C857 1.399 . S
C858 C859 1.376 . S
C859 H846 0.930 . S
C859 C858 1.376 . S
C859 C860 1.388 . S
C860 H847 0.930 . S
C860 C859 1.388 . S
C860 C861 1.390 . S
C861 C860 1.390 . S
C861 C862 1.394 . S
C861 C867 1.465 . S
C862 C857 1.399 . S
C862 C861 1.394 . S
C862 C863 1.516 . S
C863 C862 1.516 . S
C863 C864 1.502 . S
C863 C865 1.561 . S
C863 C866 1.526 . S
C864 H848 0.959 . S
C864 H849 0.959 . S
C864 H850 0.961 . S
C864 C863 1.502 . S
C865 H851 0.960 . S
C865 H852 0.961 . S
C865 H853 0.959 . S
C865 C863 1.561 . S
C866 C863 1.526 . S
C866 C867 1.396 . S
C866 C871 1.390 . S
C867 C861 1.465 . S
C867 C866 1.396 . S
C867 C868 1.399 . S
C868 H854 0.929 . S
C868 C867 1.399 . S
C868 C869 1.385 . S
C869 H855 0.931 . S
C869 C868 1.385 . S
C869 C870 1.389 . S
C870 C869 1.389 . S
C870 C871 1.387 . S
C871 H856 0.930 . S
C871 C866 1.390 . S
C871 C870 1.387 . S
H872 C884 0.930 . S
H873 C886 0.930 . S
H874 C887 0.930 . S
H875 C891 0.959 1_554 S
H876 C891 0.959 . S
H877 C891 0.961 1_554 S
H878 C892 0.960 . S
H879 C892 0.961 . S
H880 C892 0.959 . S
H881 C895 0.929 . S
H882 C896 0.931 . S
H883 C898 0.930 . S
C884 H872 0.930 . S
C884 C885 1.399 . S
C884 C889 1.399 . S
C885 C884 1.399 . S
C885 C886 1.376 . S
C886 H873 0.930 . S
C886 C885 1.376 . S
C886 C887 1.388 . S
C887 H874 0.930 . S
C887 C886 1.388 . S
C887 C888 1.390 . S
C888 C887 1.390 . S
C888 C889 1.394 . S
C888 C894 1.465 1_554 S
C889 C884 1.399 . S
C889 C888 1.394 . S
C889 C890 1.516 1_554 S
C890 C889 1.516 1_556 S
C890 C891 1.502 . S
C890 C892 1.561 . S
C890 C893 1.526 . S
C891 H875 0.959 1_556 S
C891 H876 0.959 . S
C891 H877 0.961 1_556 S
C891 C890 1.502 . S
C892 H878 0.960 . S
C892 H879 0.961 . S
C892 H880 0.959 . S
C892 C890 1.561 . S
C893 C890 1.526 . S
C893 C894 1.396 . S
C893 C898 1.390 . S
C894 C888 1.465 1_556 S
C894 C893 1.396 . S
C894 C895 1.399 . S
C895 H881 0.929 . S
C895 C894 1.399 . S
C895 C896 1.385 . S
C896 H882 0.931 . S
C896 C895 1.385 . S
C896 C897 1.389 . S
C897 C896 1.389 . S
C897 C898 1.387 . S
C898 H883 0.930 . S
C898 C893 1.390 . S
C898 C897 1.387 . S
H899 C911 0.930 . S
H900 C913 0.930 . S
H901 C914 0.930 . S
H902 C918 0.959 . S
H903 C918 0.959 . S
H904 C918 0.961 . S
H905 C919 0.960 . S
H906 C919 0.961 . S
H907 C919 0.959 . S
H908 C922 0.929 . S
H909 C923 0.931 . S
H910 C925 0.930 . S
C911 H899 0.930 . S
C911 C912 1.399 . S
C911 C916 1.399 . S
C912 C911 1.399 . S
C912 C913 1.376 . S
C913 H900 0.930 . S
C913 C912 1.376 . S
C913 C914 1.388 . S
C914 H901 0.930 . S
C914 C913 1.388 . S
C914 C915 1.390 . S
C915 C914 1.390 . S
C915 C916 1.394 . S
C915 C921 1.465 . S
C916 C911 1.399 . S
C916 C915 1.394 . S
C916 C917 1.516 . S
C917 C916 1.516 . S
C917 C918 1.502 . S
C917 C919 1.561 . S
C917 C920 1.526 . S
C918 H902 0.959 . S
C918 H903 0.959 . S
C918 H904 0.961 . S
C918 C917 1.502 . S
C919 H905 0.960 . S
C919 H906 0.961 . S
C919 H907 0.959 . S
C919 C917 1.561 . S
C920 C917 1.526 . S
C920 C921 1.396 . S
C920 C925 1.390 . S
C921 C915 1.465 . S
C921 C920 1.396 . S
C921 C922 1.399 . S
C922 H908 0.929 . S
C922 C921 1.399 . S
C922 C923 1.385 . S
C923 H909 0.931 . S
C923 C922 1.385 . S
C923 C924 1.389 . S
C924 C923 1.389 . S
C924 C925 1.387 . S
C925 H910 0.930 . S
C925 C920 1.390 . S
C925 C924 1.387 . S
H926 C938 0.930 . S
H927 C940 0.930 . S
H928 C941 0.930 . S
H929 C945 0.959 . S
H930 C945 0.959 . S
H931 C945 0.961 . S
H932 C946 0.960 . S
H933 C946 0.961 . S
H934 C946 0.959 . S
H935 C949 0.929 . S
H936 C950 0.931 . S
H937 C952 0.930 . S
C938 H926 0.930 . S
C938 C939 1.399 . S
C938 C943 1.399 . S
C939 C938 1.399 . S
C939 C940 1.376 . S
C940 H927 0.930 . S
C940 C939 1.376 . S
C940 C941 1.388 . S
C941 H928 0.930 . S
C941 C940 1.388 . S
C941 C942 1.390 . S
C942 C941 1.390 . S
C942 C943 1.394 . S
C942 C948 1.465 1_554 S
C943 C938 1.399 . S
C943 C942 1.394 . S
C943 C944 1.516 . S
C944 C943 1.516 . S
C944 C945 1.502 1_655 S
C944 C946 1.561 . S
C944 C947 1.526 1_554 S
C945 H929 0.959 . S
C945 H930 0.959 . S
C945 H931 0.961 . S
C945 C944 1.502 1_455 S
C946 H932 0.960 . S
C946 H933 0.961 . S
C946 H934 0.959 . S
C946 C944 1.561 . S
C947 C944 1.526 1_556 S
C947 C948 1.396 . S
C947 C952 1.390 . S
C948 C942 1.465 1_556 S
C948 C947 1.396 . S
C948 C949 1.399 . S
C949 H935 0.929 . S
C949 C948 1.399 . S
C949 C950 1.385 . S
C950 H936 0.931 . S
C950 C949 1.385 . S
C950 C951 1.389 . S
C951 C950 1.389 . S
C951 C952 1.387 . S
C952 H937 0.930 . S
C952 C947 1.390 . S
C952 C951 1.387 . S
H953 C965 0.930 . S
H954 C967 0.930 . S
H955 C968 0.930 1_545 S
H956 C972 0.959 . S
H957 C972 0.959 . S
H958 C972 0.961 . S
H959 C973 0.960 . S
H960 C973 0.961 . S
H961 C973 0.959 . S
H962 C976 0.929 1_545 S
H963 C977 0.931 . S
H964 C979 0.930 . S
C965 H953 0.930 . S
C965 C966 1.399 . S
C965 C970 1.399 . S
C966 C965 1.399 . S
C966 C967 1.376 . S
C967 H954 0.930 . S
C967 C966 1.376 . S
C967 C968 1.388 . S
C968 H955 0.930 1_565 S
C968 C967 1.388 . S
C968 C969 1.390 . S
C969 C968 1.390 . S
C969 C970 1.394 . S
C969 C975 1.465 . S
C970 C965 1.399 . S
C970 C969 1.394 . S
C970 C971 1.516 . S
C971 C970 1.516 . S
C971 C972 1.502 . S
C971 C973 1.561 . S
C971 C974 1.526 . S
C972 H956 0.959 . S
C972 H957 0.959 . S
C972 H958 0.961 . S
C972 C971 1.502 . S
C973 H959 0.960 . S
C973 H960 0.961 . S
C973 H961 0.959 . S
C973 C971 1.561 . S
C974 C971 1.526 . S
C974 C975 1.396 . S
C974 C979 1.390 . S
C975 C969 1.465 . S
C975 C974 1.396 . S
C975 C976 1.399 . S
C976 H962 0.929 1_565 S
C976 C975 1.399 . S
C976 C977 1.385 . S
C977 H963 0.931 . S
C977 C976 1.385 . S
C977 C978 1.389 . S
C978 C977 1.389 . S
C978 C979 1.387 . S
C979 H964 0.930 . S
C979 C974 1.390 . S
C979 C978 1.387 . S
H980 C992 0.930 . S
H981 C994 0.930 . S
H982 C995 0.930 . S
H983 C999 0.959 . S
H984 C999 0.959 . S
H985 C999 0.961 . S
H986 C1000 0.960 . S
H987 C1000 0.961 . S
H988 C1000 0.959 . S
H989 C1003 0.929 . S
H990 C1004 0.931 . S
H991 C1006 0.930 . S
C992 H980 0.930 . S
C992 C993 1.399 . S
C992 C997 1.399 . S
C993 C992 1.399 . S
C993 C994 1.376 . S
C994 H981 0.930 . S
C994 C993 1.376 . S
C994 C995 1.388 . S
C995 H982 0.930 . S
C995 C994 1.388 . S
C995 C996 1.390 . S
C996 C995 1.390 . S
C996 C997 1.394 . S
C996 C1002 1.465 1_556 S
C997 C992 1.399 . S
C997 C996 1.394 . S
C997 C998 1.516 . S
C998 C997 1.516 . S
C998 C999 1.502 . S
C998 C1000 1.561 . S
C998 C1001 1.526 1_556 S
C999 H983 0.959 . S
C999 H984 0.959 . S
C999 H985 0.961 . S
C999 C998 1.502 . S
C1000 H986 0.960 . S
C1000 H987 0.961 . S
C1000 H988 0.959 . S
C1000 C998 1.561 . S
C1001 C998 1.526 1_554 S
C1001 C1002 1.396 . S
C1001 C1006 1.390 . S
C1002 C996 1.465 1_554 S
C1002 C1001 1.396 . S
C1002 C1003 1.399 . S
C1003 H989 0.929 . S
C1003 C1002 1.399 . S
C1003 C1004 1.385 . S
C1004 H990 0.931 . S
C1004 C1003 1.385 . S
C1004 C1005 1.389 . S
C1005 C1004 1.389 . S
C1005 C1006 1.387 . S
C1006 H991 0.930 . S
C1006 C1001 1.390 . S
C1006 C1005 1.387 . S
H1007 C1019 0.930 . S
H1008 C1021 0.930 . S
H1009 C1022 0.930 . S
H1010 C1026 0.959 . S
H1011 C1026 0.959 . S
H1012 C1026 0.961 . S
H1013 C1027 0.960 . S
H1014 C1027 0.961 . S
H1015 C1027 0.959 . S
H1016 C1030 0.929 . S
H1017 C1031 0.931 . S
H1018 C1033 0.930 . S
C1019 H1007 0.930 . S
C1019 C1020 1.399 . S
C1019 C1024 1.399 . S
C1020 C1019 1.399 . S
C1020 C1021 1.376 . S
C1021 H1008 0.930 . S
C1021 C1020 1.376 . S
C1021 C1022 1.388 . S
C1022 H1009 0.930 . S
C1022 C1021 1.388 . S
C1022 C1023 1.390 . S
C1023 C1022 1.390 . S
C1023 C1024 1.394 . S
C1023 C1029 1.465 . S
C1024 C1019 1.399 . S
C1024 C1023 1.394 . S
C1024 C1025 1.516 . S
C1025 C1024 1.516 . S
C1025 C1026 1.502 . S
C1025 C1027 1.561 . S
C1025 C1028 1.526 . S
C1026 H1010 0.959 . S
C1026 H1011 0.959 . S
C1026 H1012 0.961 . S
C1026 C1025 1.502 . S
C1027 H1013 0.960 . S
C1027 H1014 0.961 . S
C1027 H1015 0.959 . S
C1027 C1025 1.561 . S
C1028 C1025 1.526 . S
C1028 C1029 1.396 . S
C1028 C1033 1.390 . S
C1029 C1023 1.465 . S
C1029 C1028 1.396 . S
C1029 C1030 1.399 . S
C1030 H1016 0.929 . S
C1030 C1029 1.399 . S
C1030 C1031 1.385 . S
C1031 H1017 0.931 . S
C1031 C1030 1.385 . S
C1031 C1032 1.389 . S
C1032 C1031 1.389 . S
C1032 C1033 1.387 . S
C1033 H1018 0.930 . S
C1033 C1028 1.390 . S
C1033 C1032 1.387 . S
H1034 C1046 0.930 . S
H1035 C1048 0.930 . S
H1036 C1049 0.930 . S
H1037 C1053 0.959 . S
H1038 C1053 0.959 . S
H1039 C1053 0.961 . S
H1040 C1054 0.960 . S
H1041 C1054 0.961 . S
H1042 C1054 0.959 . S
H1043 C1057 0.929 . S
H1044 C1058 0.931 . S
H1045 C1060 0.930 . S
C1046 H1034 0.930 . S
C1046 C1047 1.399 . S
C1046 C1051 1.399 . S
C1047 C1046 1.399 . S
C1047 C1048 1.376 . S
C1048 H1035 0.930 . S
C1048 C1047 1.376 . S
C1048 C1049 1.388 . S
C1049 H1036 0.930 . S
C1049 C1048 1.388 . S
C1049 C1050 1.390 . S
C1050 C1049 1.390 . S
C1050 C1051 1.394 . S
C1050 C1056 1.465 1_554 S
C1051 C1046 1.399 . S
C1051 C1050 1.394 . S
C1051 C1052 1.516 . S
C1052 C1051 1.516 . S
C1052 C1053 1.502 . S
C1052 C1054 1.561 1_455 S
C1052 C1055 1.526 1_554 S
C1053 H1037 0.959 . S
C1053 H1038 0.959 . S
C1053 H1039 0.961 . S
C1053 C1052 1.502 . S
C1054 H1040 0.960 . S
C1054 H1041 0.961 . S
C1054 H1042 0.959 . S
C1054 C1052 1.561 1_655 S
C1055 C1052 1.526 1_556 S
C1055 C1056 1.396 . S
C1055 C1060 1.390 . S
C1056 C1050 1.465 1_556 S
C1056 C1055 1.396 . S
C1056 C1057 1.399 . S
C1057 H1043 0.929 . S
C1057 C1056 1.399 . S
C1057 C1058 1.385 . S
C1058 H1044 0.931 . S
C1058 C1057 1.385 . S
C1058 C1059 1.389 . S
C1059 C1058 1.389 . S
C1059 C1060 1.387 . S
C1060 H1045 0.930 . S
C1060 C1055 1.390 . S
C1060 C1059 1.387 . S
H1061 C1073 0.930 1_565 S
H1062 C1075 0.930 . S
H1063 C1076 0.930 . S
H1064 C1080 0.959 1_545 S
H1065 C1080 0.959 . S
H1066 C1080 0.961 . S
H1067 C1081 0.960 . S
H1068 C1081 0.961 . S
H1069 C1081 0.959 . S
H1070 C1084 0.929 . S
H1071 C1085 0.931 . S
H1072 C1087 0.930 1_565 S
C1073 H1061 0.930 1_545 S
C1073 C1074 1.399 . S
C1073 C1078 1.399 . S
C1074 C1073 1.399 . S
C1074 C1075 1.376 . S
C1075 H1062 0.930 . S
C1075 C1074 1.376 . S
C1075 C1076 1.388 . S
C1076 H1063 0.930 . S
C1076 C1075 1.388 . S
C1076 C1077 1.390 . S
C1077 C1076 1.390 . S
C1077 C1078 1.394 . S
C1077 C1083 1.465 . S
C1078 C1073 1.399 . S
C1078 C1077 1.394 . S
C1078 C1079 1.517 . S
C1079 C1078 1.517 . S
C1079 C1080 1.501 1_545 S
C1079 C1081 1.559 1_545 S
C1079 C1082 1.527 . S
C1080 H1064 0.959 1_565 S
C1080 H1065 0.959 . S
C1080 H1066 0.961 . S
C1080 C1079 1.501 1_565 S
C1081 H1067 0.960 . S
C1081 H1068 0.961 . S
C1081 H1069 0.959 . S
C1081 C1079 1.559 1_565 S
C1082 C1079 1.527 . S
C1082 C1083 1.396 . S
C1082 C1087 1.390 . S
C1083 C1077 1.465 . S
C1083 C1082 1.396 . S
C1083 C1084 1.399 . S
C1084 H1070 0.929 . S
C1084 C1083 1.399 . S
C1084 C1085 1.385 . S
C1085 H1071 0.931 . S
C1085 C1084 1.385 . S
C1085 C1086 1.389 . S
C1086 C1085 1.389 . S
C1086 C1087 1.387 . S
C1087 H1072 0.930 1_545 S
C1087 C1082 1.390 . S
C1087 C1086 1.387 . S
C237 C11 1.128 . S
C249 C109 1.168 1_545 S
C264 C25 1.209 . S
C276 C67 1.150 . S
C291 C39 1.208 . S
C303 C81 1.160 . S
C318 C53 1.215 1_545 S
C330 C95 1.179 . S
C345 C117 1.162 . S
C357 C221 1.130 . S
C372 C173 1.077 . S
C384 C137 1.192 . S
C399 C145 1.016 . S
C411 C193 1.184 . S
C426 C165 1.164 . S
C438 C201 1.139 . S
C453 C4 1.190 . S
C465 C138 1.241 . S
C480 C18 1.258 . S
C492 C144 1.324 . S
C507 C166 1.225 . S
C519 C32 1.224 . S
C534 C46 1.341 . S
C546 C116 1.380 . S
C561 C60 1.163 . S
C573 C222 1.243 . S
C588 C172 1.369 . S
C600 C74 1.346 . S
C615 C194 1.238 . S
C627 C88 1.116 . S
C642 C200 1.331 . S
C654 C102 1.285 . S
C669 C26 1.131 . S
C681 C124 1.098 . S
C696 C40 1.219 . S
C708 C130 1.122 . S
C723 C152 1.125 . S
C735 C54 1.140 . S
C750 C12 1.208 . S
C762 C158 1.150 . S
C777 C180 1.095 . S
C789 C110 1.144 . S
C804 C186 1.125 . S
C816 C68 1.226 . S
C831 C82 1.133 . S
C843 C208 1.087 . S
C858 C96 1.198 . S
C870 C214 1.213 . S
C885 C5 1.275 . S
C897 C61 1.245 . S
C912 C75 1.331 . S
C924 C19 1.325 . S
C939 C33 1.216 . S
C951 C89 1.336 . S
C966 C103 1.252 . S
C978 C47 1.343 . S
C993 C123 1.567 . S
C1005 C179 1.510 . S
C1020 C187 1.366 . S
C1032 C131 1.300 . S
C1047 C207 1.569 . S
C1059 C151 1.515 . S
C1074 C215 1.275 . S
C1086 C159 1.371 . S
