# Generated by pormake.
# Topology umn, (4)-cn, num edge types: 1
# Building blocks:
#     Node 0, Type 0, BuildingBlock: GALJAG_clean_sbu_0, # of connection points: 4
#     Node 1, Type 0, BuildingBlock: GALJAG_clean_sbu_0, # of connection points: 4
#     Node 2, Type 0, BuildingBlock: GALJAG_clean_sbu_0, # of connection points: 4
#     Node 3, Type 0, BuildingBlock: GALJAG_clean_sbu_0, # of connection points: 4
#     Node 4, Type 0, BuildingBlock: GALJAG_clean_sbu_0, # of connection points: 4
#     Node 5, Type 0, BuildingBlock: GALJAG_clean_sbu_0, # of connection points: 4
#     Node 6, Type 0, BuildingBlock: GALJAG_clean_sbu_0, # of connection points: 4
#     Node 7, Type 0, BuildingBlock: GALJAG_clean_sbu_0, # of connection points: 4
#     Node 8, Type 0, BuildingBlock: GALJAG_clean_sbu_0, # of connection points: 4
#     Node 9, Type 0, BuildingBlock: GALJAG_clean_sbu_0, # of connection points: 4
#     Node 10, Type 0, BuildingBlock: GALJAG_clean_sbu_0, # of connection points: 4
#     Node 11, Type 0, BuildingBlock: GALJAG_clean_sbu_0, # of connection points: 4
#     Node 12, Type 0, BuildingBlock: GALJAG_clean_sbu_0, # of connection points: 4
#     Node 13, Type 0, BuildingBlock: GALJAG_clean_sbu_0, # of connection points: 4
#     Node 14, Type 0, BuildingBlock: GALJAG_clean_sbu_0, # of connection points: 4
#     Node 15, Type 0, BuildingBlock: GALJAG_clean_sbu_0, # of connection points: 4
#     Node 16, Type 0, BuildingBlock: GALJAG_clean_sbu_0, # of connection points: 4
#     Node 17, Type 0, BuildingBlock: GALJAG_clean_sbu_0, # of connection points: 4
#     Node 18, Type 0, BuildingBlock: GALJAG_clean_sbu_0, # of connection points: 4
#     Node 19, Type 0, BuildingBlock: GALJAG_clean_sbu_0, # of connection points: 4
#     Node 20, Type 0, BuildingBlock: GALJAG_clean_sbu_0, # of connection points: 4
#     Node 21, Type 0, BuildingBlock: GALJAG_clean_sbu_0, # of connection points: 4
#     Node 22, Type 0, BuildingBlock: GALJAG_clean_sbu_0, # of connection points: 4
#     Node 23, Type 0, BuildingBlock: GALJAG_clean_sbu_0, # of connection points: 4
#     Node 24, Type 0, BuildingBlock: GALJAG_clean_sbu_0, # of connection points: 4
#     Node 25, Type 0, BuildingBlock: GALJAG_clean_sbu_0, # of connection points: 4
#     Node 26, Type 0, BuildingBlock: GALJAG_clean_sbu_0, # of connection points: 4
#     Node 27, Type 0, BuildingBlock: GALJAG_clean_sbu_0, # of connection points: 4
#     Node 28, Type 0, BuildingBlock: GALJAG_clean_sbu_0, # of connection points: 4
#     Node 29, Type 0, BuildingBlock: GALJAG_clean_sbu_0, # of connection points: 4
#     Node 30, Type 0, BuildingBlock: GALJAG_clean_sbu_0, # of connection points: 4
#     Node 31, Type 0, BuildingBlock: GALJAG_clean_sbu_0, # of connection points: 4
#     Node 32, Type 0, BuildingBlock: GALJAG_clean_sbu_0, # of connection points: 4
#     Node 33, Type 0, BuildingBlock: GALJAG_clean_sbu_0, # of connection points: 4
#     Node 34, Type 0, BuildingBlock: GALJAG_clean_sbu_0, # of connection points: 4
#     Node 35, Type 0, BuildingBlock: GALJAG_clean_sbu_0, # of connection points: 4
#     Edge 36, Type (0, 0), None
#     Edge 37, Type (0, 0), None
#     Edge 38, Type (0, 0), None
#     Edge 39, Type (0, 0), None
#     Edge 40, Type (0, 0), None
#     Edge 41, Type (0, 0), None
#     Edge 42, Type (0, 0), None
#     Edge 43, Type (0, 0), None
#     Edge 44, Type (0, 0), None
#     Edge 45, Type (0, 0), None
#     Edge 46, Type (0, 0), None
#     Edge 47, Type (0, 0), None
#     Edge 48, Type (0, 0), None
#     Edge 49, Type (0, 0), None
#     Edge 50, Type (0, 0), None
#     Edge 51, Type (0, 0), None
#     Edge 52, Type (0, 0), None
#     Edge 53, Type (0, 0), None
#     Edge 54, Type (0, 0), None
#     Edge 55, Type (0, 0), None
#     Edge 56, Type (0, 0), None
#     Edge 57, Type (0, 0), None
#     Edge 58, Type (0, 0), None
#     Edge 59, Type (0, 0), None
#     Edge 60, Type (0, 0), None
#     Edge 61, Type (0, 0), None
#     Edge 62, Type (0, 0), None
#     Edge 63, Type (0, 0), None
#     Edge 64, Type (0, 0), None
#     Edge 65, Type (0, 0), None
#     Edge 66, Type (0, 0), None
#     Edge 67, Type (0, 0), None
#     Edge 68, Type (0, 0), None
#     Edge 69, Type (0, 0), None
#     Edge 70, Type (0, 0), None
#     Edge 71, Type (0, 0), None
#     Edge 72, Type (0, 0), None
#     Edge 73, Type (0, 0), None
#     Edge 74, Type (0, 0), None
#     Edge 75, Type (0, 0), None
#     Edge 76, Type (0, 0), None
#     Edge 77, Type (0, 0), None
#     Edge 78, Type (0, 0), None
#     Edge 79, Type (0, 0), None
#     Edge 80, Type (0, 0), None
#     Edge 81, Type (0, 0), None
#     Edge 82, Type (0, 0), None
#     Edge 83, Type (0, 0), None
#     Edge 84, Type (0, 0), None
#     Edge 85, Type (0, 0), None
#     Edge 86, Type (0, 0), None
#     Edge 87, Type (0, 0), None
#     Edge 88, Type (0, 0), None
#     Edge 89, Type (0, 0), None
#     Edge 90, Type (0, 0), None
#     Edge 91, Type (0, 0), None
#     Edge 92, Type (0, 0), None
#     Edge 93, Type (0, 0), None
#     Edge 94, Type (0, 0), None
#     Edge 95, Type (0, 0), None
#     Edge 96, Type (0, 0), None
#     Edge 97, Type (0, 0), None
#     Edge 98, Type (0, 0), None
#     Edge 99, Type (0, 0), None
#     Edge 100, Type (0, 0), None
#     Edge 101, Type (0, 0), None
#     Edge 102, Type (0, 0), None
#     Edge 103, Type (0, 0), None
#     Edge 104, Type (0, 0), None
#     Edge 105, Type (0, 0), None
#     Edge 106, Type (0, 0), None
#     Edge 107, Type (0, 0), None
# Relax obj value: 0.191
# Max RMSD: 0.184
# Mean RMSD: 0.184
data_MOF--net-umn--node1-GALJAG_clean_sbu_0--edge1-none
_symmetry_space_group_name_H-M    P1
_symmetry_Int_Tables_number       1
_symmetry_cell_setting            triclinic
loop_
_symmetry_equiv_pos_as_xyz
'x, y, z'
_cell_length_a     39.17806
_cell_length_b     39.178025
_cell_length_c     16.145164
_cell_angle_alpha  90.005043
_cell_angle_beta   89.99
_cell_angle_gamma 119.99789
loop_
_atom_site_label
_atom_site_type_symbol
_atom_site_fract_x
_atom_site_fract_y
_atom_site_fract_z
_atom_type_partial_charge
In0 In 0.32104 0.07354 0.23336 0.0
O1 O 0.33978 0.09297 0.36639 0.0
O2 O 0.27801 0.06226 0.33612 0.0
C3 C 0.37317 0.06979 0.12654 0.0
C4 C 0.30479 0.12896 0.19119 0.0
C5 C 0.28248 -0.00241 0.25874 0.0
O6 O 0.38104 0.07829 0.20263 0.0
O7 O 0.34085 0.06674 0.1037 0.0
O8 O 0.26697 0.01396 0.21755 0.0
O9 O 0.31763 0.01908 0.28211 0.0
C10 C 0.30417 0.07784 0.39115 0.0
O11 O 0.28376 0.09365 0.1668 0.0
O12 O 0.33651 0.13716 0.22844 0.0
In13 In 0.86891 0.236 0.23337 0.0
O14 O 0.84948 0.23532 0.36642 0.0
O15 O 0.88019 0.20426 0.33611 0.0
C16 C 0.87266 0.29189 0.12658 0.0
C17 C 0.81349 0.16434 0.19119 0.0
C18 C 0.94485 0.27339 0.25873 0.0
O19 O 0.86416 0.29126 0.20268 0.0
O20 O 0.8757 0.26261 0.10373 0.0
O21 O 0.92849 0.24151 0.21754 0.0
O22 O 0.92336 0.28705 0.28212 0.0
C23 C 0.86461 0.21484 0.39115 0.0
O24 O 0.8488 0.17862 0.16679 0.0
O25 O 0.80529 0.18786 0.22847 0.0
In26 In 0.70644 0.6214 0.23334 0.0
O27 O 0.76384 0.65869 0.16678 0.0
O28 O 0.7546 0.60593 0.22842 0.0
C29 C 0.66906 0.65996 0.25873 0.0
C30 C 0.72761 0.63826 0.39112 0.0
C31 C 0.65056 0.56927 0.12654 0.0
O32 O 0.70093 0.67547 0.21751 0.0
O33 O 0.6554 0.62481 0.28213 0.0
O34 O 0.65119 0.5614 0.20263 0.0
O35 O 0.67985 0.60159 0.10369 0.0
C36 C 0.77812 0.63766 0.19117 0.0
O37 O 0.70713 0.60265 0.36637 0.0
O38 O 0.73818 0.66442 0.33609 0.0
In39 In 0.06205 0.33262 0.30303 0.0
O40 O 0.08147 0.35138 0.16999 0.0
O41 O 0.05079 0.28961 0.20027 0.0
C42 C 0.05826 0.38474 0.40984 0.0
C43 C 0.11747 0.31639 0.34522 0.0
C44 C -0.0139 0.29402 0.27769 0.0
O45 O 0.06676 0.39261 0.33375 0.0
O46 O 0.05524 0.35242 0.43269 0.0
O47 O 0.00248 0.27853 0.31886 0.0
O48 O 0.00757 0.32918 0.25431 0.0
C49 C 0.06636 0.31577 0.14524 0.0
O50 O 0.08216 0.29535 0.36961 0.0
O51 O 0.12568 0.34811 0.30795 0.0
In52 In 0.60981 0.71792 0.30306 0.0
O53 O 0.59106 0.71859 0.17003 0.0
O54 O 0.65282 0.74966 0.20029 0.0
C55 C 0.5577 0.66202 0.40988 0.0
C56 C 0.62606 0.78959 0.34524 0.0
C57 C 0.64842 0.68057 0.27769 0.0
O58 O 0.54983 0.66264 0.3338 0.0
O59 O 0.59002 0.69133 0.43273 0.0
O60 O 0.66391 0.71245 0.31888 0.0
O61 O 0.61327 0.66689 0.25431 0.0
C62 C 0.62666 0.73908 0.14527 0.0
O63 O 0.64709 0.77531 0.36962 0.0
O64 O 0.59433 0.76606 0.30799 0.0
In65 In 0.22454 0.8804 0.30304 0.0
O66 O 0.22387 0.86097 0.17 0.0
O67 O 0.19279 0.89166 0.2003 0.0
C68 C 0.28043 0.88418 0.40984 0.0
C69 C 0.15287 0.82497 0.34523 0.0
C70 C 0.26188 0.95635 0.2777 0.0
O71 O 0.27982 0.8757 0.33375 0.0
O72 O 0.25113 0.88719 0.4327 0.0
O73 O 0.23 0.93996 0.31889 0.0
O74 O 0.27556 0.93488 0.2543 0.0
C75 C 0.20338 0.87609 0.14526 0.0
O76 O 0.16714 0.86028 0.36963 0.0
O77 O 0.17639 0.81677 0.30796 0.0
In78 In 0.60983 0.88041 0.80304 0.0
O79 O 0.59107 0.86098 0.67001 0.0
O80 O 0.65284 0.89167 0.70027 0.0
C81 C 0.55771 0.88419 0.90987 0.0
C82 C 0.62606 0.82498 0.84523 0.0
C83 C 0.64843 0.95635 0.77768 0.0
O84 O 0.54984 0.8757 0.83378 0.0
O85 O 0.59003 0.88721 0.93271 0.0
O86 O 0.66392 0.93997 0.81886 0.0
O87 O 0.61327 0.93488 0.75431 0.0
C88 C 0.62668 0.87609 0.64525 0.0
O89 O 0.6471 0.86029 0.86961 0.0
O90 O 0.59434 0.81678 0.80797 0.0
In91 In 0.06206 0.71792 0.80303 0.0
O92 O 0.08217 0.77531 0.86962 0.0
O93 O 0.12568 0.76607 0.80794 0.0
C94 C -0.01389 0.68058 0.77769 0.0
C95 C 0.06637 0.73909 0.64524 0.0
C96 C 0.05827 0.66202 0.90983 0.0
O97 O 0.00249 0.71246 0.81887 0.0
O98 O 0.00758 0.66689 0.75431 0.0
O99 O 0.06676 0.66265 0.83373 0.0
O100 O 0.05525 0.69132 0.93268 0.0
C101 C 0.11748 0.78959 0.84522 0.0
O102 O 0.08148 0.71859 0.66999 0.0
O103 O 0.05079 0.74967 0.70028 0.0
In104 In 0.22454 0.33264 0.80307 0.0
O105 O 0.22387 0.3514 0.67003 0.0
O106 O 0.1928 0.28963 0.7003 0.0
C107 C 0.28043 0.38475 0.90987 0.0
C108 C 0.15287 0.31639 0.84524 0.0
C109 C 0.26188 0.29403 0.77769 0.0
O110 O 0.27982 0.39262 0.83378 0.0
O111 O 0.25113 0.35244 0.93272 0.0
O112 O 0.23001 0.27855 0.81889 0.0
O113 O 0.27557 0.32919 0.7543 0.0
C114 C 0.20338 0.3158 0.64528 0.0
O115 O 0.16714 0.29536 0.86963 0.0
O116 O 0.17639 0.34812 0.80799 0.0
In117 In 0.86892 0.62142 0.73338 0.0
O118 O 0.84881 0.6587 0.6668 0.0
O119 O 0.80529 0.60594 0.72846 0.0
C120 C 0.94486 0.65998 0.75873 0.0
C121 C 0.86461 0.63829 0.89116 0.0
C122 C 0.87267 0.56928 0.62657 0.0
O123 O 0.9285 0.67549 0.71755 0.0
O124 O 0.92337 0.62482 0.78211 0.0
O125 O 0.86416 0.56141 0.70266 0.0
O126 O 0.87572 0.60161 0.60372 0.0
C127 C 0.8135 0.63767 0.69119 0.0
O128 O 0.84949 0.60268 0.86642 0.0
O129 O 0.8802 0.66444 0.83613 0.0
In130 In 0.32105 0.23601 0.73334 0.0
O131 O 0.3398 0.23532 0.86637 0.0
O132 O 0.27803 0.20427 0.83611 0.0
C133 C 0.37318 0.29189 0.62653 0.0
C134 C 0.30479 0.16433 0.69117 0.0
C135 C 0.28249 0.2734 0.75873 0.0
O136 O 0.38105 0.29126 0.70262 0.0
O137 O 0.34086 0.2626 0.60369 0.0
O138 O 0.26698 0.24152 0.71753 0.0
O139 O 0.31764 0.28706 0.78212 0.0
C140 C 0.30419 0.21484 0.89113 0.0
O141 O 0.28376 0.17862 0.66679 0.0
O142 O 0.33652 0.18786 0.72842 0.0
In143 In 0.70644 0.07355 0.73336 0.0
O144 O 0.76384 0.09365 0.66678 0.0
O145 O 0.75459 0.13717 0.72845 0.0
C146 C 0.66906 -0.0024 0.75872 0.0
C147 C 0.72761 0.07785 0.89114 0.0
C148 C 0.65056 0.0698 0.62657 0.0
O149 O 0.70094 0.01397 0.71752 0.0
O150 O 0.6554 0.01909 0.78213 0.0
O151 O 0.65119 0.07829 0.70267 0.0
O152 O 0.67985 0.06676 0.60371 0.0
C153 C 0.77812 0.12896 0.69118 0.0
O154 O 0.70713 0.09298 0.8664 0.0
O155 O 0.73818 0.06226 0.8361 0.0
In156 In -0.01229 0.40687 0.56669 0.0
O157 O 0.95043 0.42698 0.50013 0.0
O158 O 0.00318 0.4705 0.56178 0.0
C159 C 0.94915 0.33093 0.59205 0.0
C160 C -0.02916 0.41117 0.72449 0.0
C161 C 0.03983 0.40309 0.45994 0.0
O162 O 0.93364 0.3473 0.55087 0.0
O163 O -0.0157 0.35241 0.61543 0.0
O164 O 0.04773 0.41164 0.536 0.0
O165 O 0.00751 0.40005 0.43704 0.0
C166 C -0.02854 0.46229 0.52452 0.0
O167 O 0.00645 0.4263 0.69973 0.0
O168 O 0.94468 0.39559 0.66946 0.0
In169 In 0.53558 0.56934 0.5667 0.0
O170 O 0.51547 0.51195 0.50011 0.0
O171 O 0.47195 0.52119 0.5618 0.0
C172 C 0.61152 0.60672 0.59204 0.0
C173 C 0.53129 0.54818 0.72449 0.0
C174 C 0.53936 0.62524 0.45997 0.0
O175 O 0.59516 0.57485 0.55085 0.0
O176 O 0.59004 0.62039 0.61544 0.0
O177 O 0.5308 0.62458 0.53604 0.0
O178 O 0.5424 0.59596 0.43706 0.0
C179 C 0.48016 0.49767 0.52452 0.0
O180 O 0.51615 0.56866 0.69975 0.0
O181 O 0.54687 0.5376 0.66944 0.0
In182 In 0.3731 0.95473 0.56667 0.0
O183 O 0.37379 0.93598 0.69971 0.0
O184 O 0.40483 -0.00225 0.66942 0.0
C185 C 0.31721 0.90261 0.45993 0.0
C186 C 0.44478 0.97099 0.52451 0.0
C187 C 0.33572 -0.00671 0.59204 0.0
O188 O 0.31786 0.89471 0.53599 0.0
O189 O 0.34649 0.93493 0.43702 0.0
O190 O 0.36759 0.0088 0.55083 0.0
O191 O 0.32206 0.95814 0.61544 0.0
C192 C 0.39426 0.97159 0.72446 0.0
O193 O 0.4305 -0.00798 0.50011 0.0
O194 O 0.42126 0.93926 0.56175 0.0
In195 In 0.72871 0.66596 0.63635 0.0
O196 O 0.74814 0.68471 0.50331 0.0
O197 O 0.71746 0.62294 0.53359 0.0
C198 C 0.72491 0.71806 0.74317 0.0
C199 C 0.78414 0.64973 0.67855 0.0
C200 C 0.65277 0.62735 0.61099 0.0
O201 O 0.73342 0.72594 0.66709 0.0
O202 O 0.72189 0.68574 0.76601 0.0
O203 O 0.66915 0.61186 0.65216 0.0
O204 O 0.67424 0.66251 0.58762 0.0
C205 C 0.73302 0.64911 0.47856 0.0
O206 O 0.74883 0.62869 0.70294 0.0
O207 O 0.79234 0.68145 0.64128 0.0
In208 In 0.27648 0.05125 0.63639 0.0
O209 O 0.25772 0.05192 0.50336 0.0
O210 O 0.31949 0.083 0.53362 0.0
C211 C 0.22438 -0.00465 0.74321 0.0
C212 C 0.29272 0.12292 0.67856 0.0
C213 C 0.31509 0.01391 0.611 0.0
O214 O 0.2165 -0.00403 0.66713 0.0
O215 O 0.2567 0.02465 0.76605 0.0
O216 O 0.33058 0.04578 0.65219 0.0
O217 O 0.27993 0.00022 0.58762 0.0
C218 C 0.29333 0.0724 0.4786 0.0
O219 O 0.31376 0.10864 0.70295 0.0
O220 O 0.26099 0.09939 0.64132 0.0
In221 In 0.8912 0.21373 0.63637 0.0
O222 O 0.83381 0.19362 0.70296 0.0
O223 O 0.84306 0.15011 0.6413 0.0
C224 C 0.92854 0.28968 0.61101 0.0
C225 C 0.87004 0.20943 0.4786 0.0
C226 C 0.9471 0.21753 0.74318 0.0
O227 O 0.89666 0.2733 0.6522 0.0
O228 O 0.94223 0.26821 0.58761 0.0
O229 O 0.94648 0.20903 0.66709 0.0
O230 O 0.91779 0.22055 0.76603 0.0
C231 C 0.81953 0.15831 0.67856 0.0
O232 O 0.89053 0.19431 0.50333 0.0
O233 O 0.85945 0.225 0.53363 0.0
In234 In 0.2765 0.21374 0.13637 0.0
O235 O 0.31376 0.19362 0.20294 0.0
O236 O 0.261 0.15011 0.1413 0.0
C237 C 0.3151 0.28969 0.11099 0.0
C238 C 0.29334 0.20943 0.97858 0.0
C239 C 0.22439 0.21754 0.2432 0.0
O240 O 0.33059 0.2733 0.15216 0.0
O241 O 0.27994 0.26822 0.08762 0.0
O242 O 0.21651 0.20903 0.16712 0.0
O243 O 0.25671 0.22056 0.26603 0.0
C244 C 0.29273 0.15831 0.17856 0.0
O245 O 0.25774 0.19431 1.00334 0.0
O246 O 0.31951 0.22499 0.0336 0.0
In247 In 0.72872 0.05126 0.13636 0.0
O248 O 0.74815 0.05193 1.00332 0.0
O249 O 0.71746 0.08302 0.03362 0.0
C250 C 0.72492 -0.00464 0.24316 0.0
C251 C 0.78414 0.12292 0.17856 0.0
C252 C 0.65277 0.01392 0.111 0.0
O253 O 0.73343 -0.00402 0.16708 0.0
O254 O 0.7219 0.02466 0.26601 0.0
O255 O 0.66915 0.0458 0.15218 0.0
O256 O 0.67424 0.00023 0.08762 0.0
C257 C 0.73302 0.07241 0.97858 0.0
O258 O 0.74883 0.10865 0.20295 0.0
O259 O 0.79235 0.0994 0.14128 0.0
In260 In 0.89121 0.66598 0.13639 0.0
O261 O 0.83381 0.6287 0.20296 0.0
O262 O 0.84306 0.68146 0.14132 0.0
C263 C 0.92855 0.62737 0.111 0.0
C264 C 0.87005 0.64913 0.97861 0.0
C265 C 0.9471 0.71808 0.2432 0.0
O266 O 0.89667 0.61188 0.1522 0.0
O267 O 0.94223 0.66252 0.08761 0.0
O268 O 0.94648 0.72596 0.16712 0.0
O269 O 0.9178 0.68576 0.26605 0.0
C270 C 0.81954 0.64973 0.17857 0.0
O271 O 0.89054 0.68474 1.00336 0.0
O272 O 0.85946 0.62297 0.03363 0.0
In273 In 0.53558 0.95475 0.06671 0.0
O274 O 0.51616 0.93601 0.19976 0.0
O275 O 0.54687 -0.00223 0.16946 0.0
C276 C 0.53936 0.90263 0.95996 0.0
C277 C 0.48016 0.971 0.02452 0.0
C278 C 0.61153 -0.00669 0.09205 0.0
O279 O 0.53081 0.89473 0.03603 0.0
O280 O 0.54241 0.93495 0.93706 0.0
O281 O 0.59516 0.00882 0.05087 0.0
O282 O 0.59004 0.95816 0.11543 0.0
C283 C 0.53129 0.97162 0.2245 0.0
O284 O 0.51547 -0.00797 1.00013 0.0
O285 O 0.47196 0.93927 0.0618 0.0
In286 In -0.01227 0.56935 0.06667 0.0
O287 O 0.95044 0.51195 1.00012 0.0
O288 O 0.00319 0.52119 0.06175 0.0
C289 C 0.94916 0.60673 0.09204 0.0
C290 C -0.02914 0.54819 0.22446 0.0
C291 C 0.03984 0.62524 0.95992 0.0
O292 O 0.93366 0.57486 0.05085 0.0
O293 O -0.01569 0.6204 0.11543 0.0
O294 O 0.04774 0.62459 0.03598 0.0
O295 O 0.00752 0.59596 0.93702 0.0
C296 C -0.02854 0.49767 0.02451 0.0
O297 O 0.00647 0.56866 0.19971 0.0
O298 O 0.9447 0.53762 0.16944 0.0
In299 In 0.37311 0.40688 0.06669 0.0
O300 O 0.37379 0.4263 0.19974 0.0
O301 O 0.40484 0.39559 0.16943 0.0
C302 C 0.31721 0.4031 0.95996 0.0
C303 C 0.44478 0.4623 0.02451 0.0
C304 C 0.33573 0.33093 0.09203 0.0
O305 O 0.31786 0.41165 0.03603 0.0
O306 O 0.3465 0.40006 0.93705 0.0
O307 O 0.36761 0.3473 0.05083 0.0
O308 O 0.32206 0.35242 0.11544 0.0
C309 C 0.39427 0.41117 0.22447 0.0
O310 O 0.4305 0.42699 1.00011 0.0
O311 O 0.42126 0.4705 0.06178 0.0
In312 In 0.65437 0.74021 0.90003 0.0
O313 O 0.6171 0.76032 0.83346 0.0
O314 O 0.66985 0.80383 0.8951 0.0
C315 C 0.61581 0.66426 0.92542 0.0
C316 C 0.63751 0.74449 0.05782 0.0
C317 C 0.70648 0.73641 0.79327 0.0
O318 O 0.6003 0.68063 0.88423 0.0
O319 O 0.65097 0.68575 0.94879 0.0
O320 O 0.71439 0.74498 0.86932 0.0
O321 O 0.67416 0.73336 0.77038 0.0
C322 C 0.63813 0.79563 0.85785 0.0
O323 O 0.67312 0.75963 0.03307 0.0
O324 O 0.61135 0.72892 1.00279 0.0
In325 In 0.20224 0.90267 0.90004 0.0
O326 O 0.18214 0.84528 0.83345 0.0
O327 O 0.13862 0.85452 0.89513 0.0
C328 C 0.27819 0.94005 0.9254 0.0
C329 C 0.19796 0.88151 0.05782 0.0
C330 C 0.20603 0.95857 0.7933 0.0
O331 O 0.26183 0.90818 0.88421 0.0
O332 O 0.2567 0.95372 0.94879 0.0
O333 O 0.19747 0.95791 0.86936 0.0
O334 O 0.20909 0.9293 0.7704 0.0
C335 C 0.14683 0.831 0.85785 0.0
O336 O 0.18282 0.90199 0.03309 0.0
O337 O 0.21353 0.87093 1.00277 0.0
In338 In 0.03977 0.28806 0.90001 0.0
O339 O 0.09717 0.32535 0.83344 0.0
O340 O 0.08792 0.27259 0.89509 0.0
C341 C 0.00239 0.32663 0.9254 0.0
C342 C 0.06092 0.30493 0.05779 0.0
C343 C -0.01612 0.23596 0.79326 0.0
O344 O 0.03426 0.34213 0.8842 0.0
O345 O -0.01127 0.29148 0.9488 0.0
O346 O -0.01547 0.22805 0.86932 0.0
O347 O 0.01316 0.26828 0.77037 0.0
C348 C 0.11145 0.30432 0.85784 0.0
O349 O 0.04045 0.26932 0.03305 0.0
O350 O 0.07151 0.33109 1.00276 0.0
In351 In 0.39538 -0.00071 0.9697 0.0
O352 O 0.4148 0.01804 0.83665 0.0
O353 O 0.38412 0.95627 0.86693 0.0
C354 C 0.39155 0.05138 0.07645 0.0
C355 C 0.45081 -0.01694 1.01189 0.0
C356 C 0.31943 0.96069 0.94436 0.0
O357 O 0.40011 0.05929 1.00039 0.0
O358 O 0.38853 0.01907 0.09934 0.0
O359 O 0.33582 0.94519 0.98552 0.0
O360 O 0.3409 -0.00416 0.92098 0.0
C361 C 0.39968 -0.01756 0.8119 0.0
O362 O 0.4155 0.96202 0.03629 0.0
O363 O 0.45901 0.01478 0.97462 0.0
In364 In 0.94315 0.38458 0.96973 0.0
O365 O -0.01958 0.44197 0.0363 0.0
O366 O 0.92766 0.43273 0.97466 0.0
C367 C -0.01825 0.34724 0.94436 0.0
C368 C 0.96 0.40573 0.81194 0.0
C369 C 0.89106 0.32867 0.0765 0.0
O370 O -0.00276 0.37912 0.98554 0.0
O371 O 0.9466 0.33355 0.92098 0.0
O372 O 0.88315 0.32932 1.00044 0.0
O373 O 0.92337 0.35797 0.09938 0.0
C374 C 0.95939 0.45625 1.01191 0.0
O375 O 0.92439 0.38525 0.8367 0.0
O376 O -0.01384 0.41633 0.86696 0.0
In377 In 0.55787 0.54707 0.96972 0.0
O378 O 0.55721 0.52765 0.83667 0.0
O379 O 0.52612 0.55834 0.86697 0.0
C380 C 0.61378 0.55089 0.07645 0.0
C381 C 0.4862 0.49164 1.0119 0.0
C382 C 0.59521 0.62302 0.94437 0.0
O383 O 0.61314 0.54234 1.00039 0.0
O384 O 0.58449 0.55391 0.09936 0.0
O385 O 0.56333 0.60663 0.98556 0.0
O386 O 0.6089 0.60155 0.92097 0.0
C387 C 0.53672 0.54277 0.81193 0.0
O388 O 0.50048 0.52695 0.03631 0.0
O389 O 0.50973 0.48344 0.97464 0.0
In390 In 0.94316 0.54707 0.46971 0.0
O391 O -0.01957 0.52695 0.53628 0.0
O392 O 0.92767 0.48344 0.47464 0.0
C393 C -0.01823 0.62302 0.44435 0.0
C394 C 0.96001 0.54278 0.31191 0.0
C395 C 0.89107 0.5509 0.57648 0.0
O396 O -0.00274 0.60663 0.48552 0.0
O397 O 0.94661 0.60155 0.42098 0.0
O398 O 0.88317 0.54235 0.50042 0.0
O399 O 0.92339 0.55392 0.59936 0.0
C400 C 0.9594 0.49164 0.5119 0.0
O401 O 0.92441 0.52765 0.33667 0.0
O402 O -0.01382 0.55834 0.36694 0.0
In403 In 0.39538 0.38459 0.4697 0.0
O404 O 0.4155 0.44198 0.5363 0.0
O405 O 0.45901 0.43273 0.47462 0.0
C406 C 0.31944 0.34725 0.44436 0.0
C407 C 0.39968 0.40574 0.31191 0.0
C408 C 0.39156 0.32867 0.57644 0.0
O409 O 0.33582 0.37913 0.48554 0.0
O410 O 0.34091 0.33356 0.42098 0.0
O411 O 0.40012 0.32932 0.50038 0.0
O412 O 0.38854 0.35797 0.59935 0.0
C413 C 0.45081 0.45626 0.51189 0.0
O414 O 0.41481 0.38525 0.33665 0.0
O415 O 0.38412 0.41634 0.36695 0.0
In416 In 0.55787 -0.00069 0.46973 0.0
O417 O 0.50048 0.96203 0.53631 0.0
O418 O 0.50973 0.01479 0.47466 0.0
C419 C 0.59521 0.9607 0.44436 0.0
C420 C 0.53673 -0.01754 0.31195 0.0
C421 C 0.61378 0.0514 0.57649 0.0
O422 O 0.56334 0.94521 0.48556 0.0
O423 O 0.6089 -0.00414 0.42097 0.0
O424 O 0.61314 0.0593 0.50043 0.0
O425 O 0.58449 0.01909 0.59938 0.0
C426 C 0.4862 -0.01694 0.51191 0.0
O427 O 0.55721 0.01807 0.33669 0.0
O428 O 0.52613 0.9563 0.36697 0.0
In429 In 0.20225 0.28808 0.40005 0.0
O430 O 0.18282 0.26934 0.53309 0.0
O431 O 0.21353 0.33111 0.5028 0.0
C432 C 0.20604 0.23597 0.29329 0.0
C433 C 0.14683 0.30433 0.35786 0.0
C434 C 0.27819 0.32664 0.42541 0.0
O435 O 0.19748 0.22807 0.36935 0.0
O436 O 0.2091 0.2683 0.2704 0.0
O437 O 0.26183 0.34216 0.38423 0.0
O438 O 0.2567 0.29149 0.44879 0.0
C439 C 0.19796 0.30495 0.55783 0.0
O440 O 0.18214 0.32536 0.33346 0.0
O441 O 0.13862 0.27261 0.39513 0.0
In442 In 0.65439 0.90268 0.40002 0.0
O443 O 0.67313 0.902 0.53305 0.0
O444 O 0.61136 0.87094 0.50277 0.0
C445 C 0.7065 0.95858 0.29325 0.0
C446 C 0.63813 0.83101 0.35784 0.0
C447 C 0.61582 0.94006 0.4254 0.0
O448 O 0.7144 0.95792 0.36931 0.0
O449 O 0.67417 0.9293 0.27037 0.0
O450 O 0.60032 0.90819 0.38421 0.0
O451 O 0.65098 0.95373 0.44879 0.0
C452 C 0.63752 0.88153 0.5578 0.0
O453 O 0.6171 0.84529 0.33345 0.0
O454 O 0.66986 0.85453 0.39508 0.0
In455 In 0.03978 0.74021 0.40003 0.0
O456 O 0.04046 0.75964 0.53307 0.0
O457 O 0.07152 0.72892 0.50276 0.0
C458 C -0.01612 0.73642 0.29329 0.0
C459 C 0.11145 0.79563 0.35785 0.0
C460 C 0.0024 0.66426 0.42539 0.0
O461 O -0.01547 0.74498 0.36935 0.0
O462 O 0.01316 0.73338 0.27039 0.0
O463 O 0.03427 0.68063 0.38419 0.0
O464 O -0.01127 0.68575 0.4488 0.0
C465 C 0.06093 0.7445 0.5578 0.0
O466 O 0.09717 0.76032 0.33344 0.0
O467 O 0.08793 0.80383 0.39511 0.0
loop_
_geom_bond_atom_site_label_1
_geom_bond_atom_site_label_2
_geom_bond_distance
_geom_bond_site_symmetry_2
_ccdc_geom_bond_type
In0 O1 2.294 . S
In0 O2 2.326 . S
In0 O6 2.266 . S
In0 O7 2.326 . S
In0 O8 2.266 . S
In0 O9 2.326 . S
In0 O11 2.294 . S
In0 O12 2.326 . S
O1 In0 2.294 . S
O1 C10 1.240 . S
O2 In0 2.326 . S
O2 C10 1.252 . S
C3 O6 1.252 . S
C3 O7 1.260 . S
C4 O11 1.240 . S
C4 O12 1.252 . S
C5 O8 1.252 . S
C5 O9 1.260 . S
O6 In0 2.266 . S
O6 C3 1.252 . S
O7 In0 2.326 . S
O7 C3 1.260 . S
O8 In0 2.266 . S
O8 C5 1.252 . S
O9 In0 2.326 . S
O9 C5 1.260 . S
C10 O1 1.240 . S
C10 O2 1.252 . S
O11 In0 2.294 . S
O11 C4 1.240 . S
O12 In0 2.326 . S
O12 C4 1.252 . S
In13 O14 2.294 . S
In13 O15 2.326 . S
In13 O19 2.266 . S
In13 O20 2.326 . S
In13 O21 2.266 . S
In13 O22 2.326 . S
In13 O24 2.294 . S
In13 O25 2.326 . S
O14 In13 2.294 . S
O14 C23 1.240 . S
O15 In13 2.326 . S
O15 C23 1.252 . S
C16 O19 1.252 . S
C16 O20 1.260 . S
C17 O24 1.240 . S
C17 O25 1.252 . S
C18 O21 1.252 . S
C18 O22 1.260 . S
O19 In13 2.266 . S
O19 C16 1.252 . S
O20 In13 2.326 . S
O20 C16 1.260 . S
O21 In13 2.266 . S
O21 C18 1.252 . S
O22 In13 2.326 . S
O22 C18 1.260 . S
C23 O14 1.240 . S
C23 O15 1.252 . S
O24 In13 2.294 . S
O24 C17 1.240 . S
O25 In13 2.326 . S
O25 C17 1.252 . S
In26 O27 2.294 . S
In26 O28 2.326 . S
In26 O32 2.266 . S
In26 O33 2.326 . S
In26 O34 2.266 . S
In26 O35 2.326 . S
In26 O37 2.294 . S
In26 O38 2.326 . S
O27 In26 2.294 . S
O27 C36 1.240 . S
O28 In26 2.326 . S
O28 C36 1.252 . S
C29 O32 1.252 . S
C29 O33 1.260 . S
C30 O37 1.240 . S
C30 O38 1.252 . S
C31 O34 1.252 . S
C31 O35 1.260 . S
O32 In26 2.266 . S
O32 C29 1.252 . S
O33 In26 2.326 . S
O33 C29 1.260 . S
O34 In26 2.266 . S
O34 C31 1.252 . S
O35 In26 2.326 . S
O35 C31 1.260 . S
C36 O27 1.240 . S
C36 O28 1.252 . S
O37 In26 2.294 . S
O37 C30 1.240 . S
O38 In26 2.326 . S
O38 C30 1.252 . S
In39 O40 2.294 . S
In39 O41 2.326 . S
In39 O45 2.266 . S
In39 O46 2.326 . S
In39 O47 2.266 . S
In39 O48 2.326 . S
In39 O50 2.294 . S
In39 O51 2.326 . S
O40 In39 2.294 . S
O40 C49 1.240 . S
O41 In39 2.326 . S
O41 C49 1.252 . S
C42 O45 1.252 . S
C42 O46 1.260 . S
C43 O50 1.240 . S
C43 O51 1.252 . S
C44 O47 1.252 . S
C44 O48 1.260 . S
O45 In39 2.266 . S
O45 C42 1.252 . S
O46 In39 2.326 . S
O46 C42 1.260 . S
O47 In39 2.266 . S
O47 C44 1.252 . S
O48 In39 2.326 . S
O48 C44 1.260 . S
C49 O40 1.240 . S
C49 O41 1.252 . S
O50 In39 2.294 . S
O50 C43 1.240 . S
O51 In39 2.326 . S
O51 C43 1.252 . S
In52 O53 2.294 . S
In52 O54 2.326 . S
In52 O58 2.266 . S
In52 O59 2.326 . S
In52 O60 2.266 . S
In52 O61 2.326 . S
In52 O63 2.294 . S
In52 O64 2.326 . S
O53 In52 2.294 . S
O53 C62 1.240 . S
O54 In52 2.326 . S
O54 C62 1.252 . S
C55 O58 1.252 . S
C55 O59 1.260 . S
C56 O63 1.240 . S
C56 O64 1.252 . S
C57 O60 1.252 . S
C57 O61 1.260 . S
O58 In52 2.266 . S
O58 C55 1.252 . S
O59 In52 2.326 . S
O59 C55 1.260 . S
O60 In52 2.266 . S
O60 C57 1.252 . S
O61 In52 2.326 . S
O61 C57 1.260 . S
C62 O53 1.240 . S
C62 O54 1.252 . S
O63 In52 2.294 . S
O63 C56 1.240 . S
O64 In52 2.326 . S
O64 C56 1.252 . S
In65 O66 2.294 . S
In65 O67 2.326 . S
In65 O71 2.266 . S
In65 O72 2.326 . S
In65 O73 2.266 . S
In65 O74 2.326 . S
In65 O76 2.294 . S
In65 O77 2.326 . S
O66 In65 2.294 . S
O66 C75 1.240 . S
O67 In65 2.326 . S
O67 C75 1.252 . S
C68 O71 1.252 . S
C68 O72 1.260 . S
C69 O76 1.240 . S
C69 O77 1.252 . S
C70 O73 1.252 . S
C70 O74 1.260 . S
O71 In65 2.266 . S
O71 C68 1.252 . S
O72 In65 2.326 . S
O72 C68 1.260 . S
O73 In65 2.266 . S
O73 C70 1.252 . S
O74 In65 2.326 . S
O74 C70 1.260 . S
C75 O66 1.240 . S
C75 O67 1.252 . S
O76 In65 2.294 . S
O76 C69 1.240 . S
O77 In65 2.326 . S
O77 C69 1.252 . S
In78 O79 2.294 . S
In78 O80 2.326 . S
In78 O84 2.266 . S
In78 O85 2.326 . S
In78 O86 2.266 . S
In78 O87 2.326 . S
In78 O89 2.294 . S
In78 O90 2.326 . S
O79 In78 2.294 . S
O79 C88 1.240 . S
O80 In78 2.326 . S
O80 C88 1.252 . S
C81 O84 1.252 . S
C81 O85 1.260 . S
C82 O89 1.240 . S
C82 O90 1.252 . S
C83 O86 1.252 . S
C83 O87 1.260 . S
O84 In78 2.266 . S
O84 C81 1.252 . S
O85 In78 2.326 . S
O85 C81 1.260 . S
O86 In78 2.266 . S
O86 C83 1.252 . S
O87 In78 2.326 . S
O87 C83 1.260 . S
C88 O79 1.240 . S
C88 O80 1.252 . S
O89 In78 2.294 . S
O89 C82 1.240 . S
O90 In78 2.326 . S
O90 C82 1.252 . S
In91 O92 2.294 . S
In91 O93 2.326 . S
In91 O97 2.266 . S
In91 O98 2.326 . S
In91 O99 2.266 . S
In91 O100 2.326 . S
In91 O102 2.294 . S
In91 O103 2.326 . S
O92 In91 2.294 . S
O92 C101 1.240 . S
O93 In91 2.326 . S
O93 C101 1.252 . S
C94 O97 1.252 . S
C94 O98 1.260 . S
C95 O102 1.240 . S
C95 O103 1.252 . S
C96 O99 1.252 . S
C96 O100 1.260 . S
O97 In91 2.266 . S
O97 C94 1.252 . S
O98 In91 2.326 . S
O98 C94 1.260 . S
O99 In91 2.266 . S
O99 C96 1.252 . S
O100 In91 2.326 . S
O100 C96 1.260 . S
C101 O92 1.240 . S
C101 O93 1.252 . S
O102 In91 2.294 . S
O102 C95 1.240 . S
O103 In91 2.326 . S
O103 C95 1.252 . S
In104 O105 2.294 . S
In104 O106 2.326 . S
In104 O110 2.266 . S
In104 O111 2.326 . S
In104 O112 2.266 . S
In104 O113 2.326 . S
In104 O115 2.294 . S
In104 O116 2.326 . S
O105 In104 2.294 . S
O105 C114 1.240 . S
O106 In104 2.326 . S
O106 C114 1.252 . S
C107 O110 1.252 . S
C107 O111 1.260 . S
C108 O115 1.240 . S
C108 O116 1.252 . S
C109 O112 1.252 . S
C109 O113 1.260 . S
O110 In104 2.266 . S
O110 C107 1.252 . S
O111 In104 2.326 . S
O111 C107 1.260 . S
O112 In104 2.266 . S
O112 C109 1.252 . S
O113 In104 2.326 . S
O113 C109 1.260 . S
C114 O105 1.240 . S
C114 O106 1.252 . S
O115 In104 2.294 . S
O115 C108 1.240 . S
O116 In104 2.326 . S
O116 C108 1.252 . S
In117 O118 2.294 . S
In117 O119 2.326 . S
In117 O123 2.266 . S
In117 O124 2.326 . S
In117 O125 2.266 . S
In117 O126 2.326 . S
In117 O128 2.294 . S
In117 O129 2.326 . S
O118 In117 2.294 . S
O118 C127 1.240 . S
O119 In117 2.326 . S
O119 C127 1.252 . S
C120 O123 1.252 . S
C120 O124 1.260 . S
C121 O128 1.240 . S
C121 O129 1.252 . S
C122 O125 1.252 . S
C122 O126 1.260 . S
O123 In117 2.266 . S
O123 C120 1.252 . S
O124 In117 2.326 . S
O124 C120 1.260 . S
O125 In117 2.266 . S
O125 C122 1.252 . S
O126 In117 2.326 . S
O126 C122 1.260 . S
C127 O118 1.240 . S
C127 O119 1.252 . S
O128 In117 2.294 . S
O128 C121 1.240 . S
O129 In117 2.326 . S
O129 C121 1.252 . S
In130 O131 2.294 . S
In130 O132 2.326 . S
In130 O136 2.266 . S
In130 O137 2.326 . S
In130 O138 2.266 . S
In130 O139 2.326 . S
In130 O141 2.294 . S
In130 O142 2.326 . S
O131 In130 2.294 . S
O131 C140 1.240 . S
O132 In130 2.326 . S
O132 C140 1.252 . S
C133 O136 1.252 . S
C133 O137 1.260 . S
C134 O141 1.240 . S
C134 O142 1.252 . S
C135 O138 1.252 . S
C135 O139 1.260 . S
O136 In130 2.266 . S
O136 C133 1.252 . S
O137 In130 2.326 . S
O137 C133 1.260 . S
O138 In130 2.266 . S
O138 C135 1.252 . S
O139 In130 2.326 . S
O139 C135 1.260 . S
C140 O131 1.240 . S
C140 O132 1.252 . S
O141 In130 2.294 . S
O141 C134 1.240 . S
O142 In130 2.326 . S
O142 C134 1.252 . S
In143 O144 2.294 . S
In143 O145 2.326 . S
In143 O149 2.266 . S
In143 O150 2.326 . S
In143 O151 2.266 . S
In143 O152 2.326 . S
In143 O154 2.294 . S
In143 O155 2.326 . S
O144 In143 2.294 . S
O144 C153 1.240 . S
O145 In143 2.326 . S
O145 C153 1.252 . S
C146 O149 1.252 . S
C146 O150 1.260 . S
C147 O154 1.240 . S
C147 O155 1.252 . S
C148 O151 1.252 . S
C148 O152 1.260 . S
O149 In143 2.266 . S
O149 C146 1.252 . S
O150 In143 2.326 . S
O150 C146 1.260 . S
O151 In143 2.266 . S
O151 C148 1.252 . S
O152 In143 2.326 . S
O152 C148 1.260 . S
C153 O144 1.240 . S
C153 O145 1.252 . S
O154 In143 2.294 . S
O154 C147 1.240 . S
O155 In143 2.326 . S
O155 C147 1.252 . S
In156 O157 2.294 1_455 S
In156 O158 2.326 . S
In156 O162 2.266 1_455 S
In156 O163 2.326 . S
In156 O164 2.266 . S
In156 O165 2.326 . S
In156 O167 2.294 . S
In156 O168 2.326 . S
O157 In156 2.294 1_655 S
O157 C166 1.240 1_655 S
O158 In156 2.326 . S
O158 C166 1.252 . S
C159 O162 1.252 . S
C159 O163 1.260 1_655 S
C160 O167 1.240 . S
C160 O168 1.252 . S
C161 O164 1.252 . S
C161 O165 1.260 . S
O162 In156 2.266 1_655 S
O162 C159 1.252 . S
O163 In156 2.326 . S
O163 C159 1.260 1_455 S
O164 In156 2.266 . S
O164 C161 1.252 . S
O165 In156 2.326 . S
O165 C161 1.260 . S
C166 O157 1.240 1_455 S
C166 O158 1.252 . S
O167 In156 2.294 . S
O167 C160 1.240 . S
O168 In156 2.326 . S
O168 C160 1.252 . S
In169 O170 2.294 . S
In169 O171 2.326 . S
In169 O175 2.266 . S
In169 O176 2.326 . S
In169 O177 2.266 . S
In169 O178 2.326 . S
In169 O180 2.294 . S
In169 O181 2.326 . S
O170 In169 2.294 . S
O170 C179 1.240 . S
O171 In169 2.326 . S
O171 C179 1.252 . S
C172 O175 1.252 . S
C172 O176 1.260 . S
C173 O180 1.240 . S
C173 O181 1.252 . S
C174 O177 1.252 . S
C174 O178 1.260 . S
O175 In169 2.266 . S
O175 C172 1.252 . S
O176 In169 2.326 . S
O176 C172 1.260 . S
O177 In169 2.266 . S
O177 C174 1.252 . S
O178 In169 2.326 . S
O178 C174 1.260 . S
C179 O170 1.240 . S
C179 O171 1.252 . S
O180 In169 2.294 . S
O180 C173 1.240 . S
O181 In169 2.326 . S
O181 C173 1.252 . S
In182 O183 2.294 . S
In182 O184 2.326 . S
In182 O188 2.266 . S
In182 O189 2.326 . S
In182 O190 2.266 1_565 S
In182 O191 2.326 . S
In182 O193 2.294 1_565 S
In182 O194 2.326 . S
O183 In182 2.294 . S
O183 C192 1.240 . S
O184 In182 2.326 . S
O184 C192 1.252 . S
C185 O188 1.252 . S
C185 O189 1.260 . S
C186 O193 1.240 1_565 S
C186 O194 1.252 . S
C187 O190 1.252 . S
C187 O191 1.260 1_545 S
O188 In182 2.266 . S
O188 C185 1.252 . S
O189 In182 2.326 . S
O189 C185 1.260 . S
O190 In182 2.266 1_545 S
O190 C187 1.252 . S
O191 In182 2.326 . S
O191 C187 1.260 1_565 S
C192 O183 1.240 . S
C192 O184 1.252 . S
O193 In182 2.294 1_545 S
O193 C186 1.240 1_545 S
O194 In182 2.326 . S
O194 C186 1.252 . S
In195 O196 2.294 . S
In195 O197 2.326 . S
In195 O201 2.266 . S
In195 O202 2.326 . S
In195 O203 2.266 . S
In195 O204 2.326 . S
In195 O206 2.294 . S
In195 O207 2.326 . S
O196 In195 2.294 . S
O196 C205 1.240 . S
O197 In195 2.326 . S
O197 C205 1.252 . S
C198 O201 1.252 . S
C198 O202 1.260 . S
C199 O206 1.240 . S
C199 O207 1.252 . S
C200 O203 1.252 . S
C200 O204 1.260 . S
O201 In195 2.266 . S
O201 C198 1.252 . S
O202 In195 2.326 . S
O202 C198 1.260 . S
O203 In195 2.266 . S
O203 C200 1.252 . S
O204 In195 2.326 . S
O204 C200 1.260 . S
C205 O196 1.240 . S
C205 O197 1.252 . S
O206 In195 2.294 . S
O206 C199 1.240 . S
O207 In195 2.326 . S
O207 C199 1.252 . S
In208 O209 2.294 . S
In208 O210 2.326 . S
In208 O214 2.266 . S
In208 O215 2.326 . S
In208 O216 2.266 . S
In208 O217 2.326 . S
In208 O219 2.294 . S
In208 O220 2.326 . S
O209 In208 2.294 . S
O209 C218 1.240 . S
O210 In208 2.326 . S
O210 C218 1.252 . S
C211 O214 1.252 . S
C211 O215 1.260 . S
C212 O219 1.240 . S
C212 O220 1.252 . S
C213 O216 1.252 . S
C213 O217 1.260 . S
O214 In208 2.266 . S
O214 C211 1.252 . S
O215 In208 2.326 . S
O215 C211 1.260 . S
O216 In208 2.266 . S
O216 C213 1.252 . S
O217 In208 2.326 . S
O217 C213 1.260 . S
C218 O209 1.240 . S
C218 O210 1.252 . S
O219 In208 2.294 . S
O219 C212 1.240 . S
O220 In208 2.326 . S
O220 C212 1.252 . S
In221 O222 2.294 . S
In221 O223 2.326 . S
In221 O227 2.266 . S
In221 O228 2.326 . S
In221 O229 2.266 . S
In221 O230 2.326 . S
In221 O232 2.294 . S
In221 O233 2.326 . S
O222 In221 2.294 . S
O222 C231 1.240 . S
O223 In221 2.326 . S
O223 C231 1.252 . S
C224 O227 1.252 . S
C224 O228 1.260 . S
C225 O232 1.240 . S
C225 O233 1.252 . S
C226 O229 1.252 . S
C226 O230 1.260 . S
O227 In221 2.266 . S
O227 C224 1.252 . S
O228 In221 2.326 . S
O228 C224 1.260 . S
O229 In221 2.266 . S
O229 C226 1.252 . S
O230 In221 2.326 . S
O230 C226 1.260 . S
C231 O222 1.240 . S
C231 O223 1.252 . S
O232 In221 2.294 . S
O232 C225 1.240 . S
O233 In221 2.326 . S
O233 C225 1.252 . S
In234 O235 2.294 . S
In234 O236 2.326 . S
In234 O240 2.266 . S
In234 O241 2.326 . S
In234 O242 2.266 . S
In234 O243 2.326 . S
In234 O245 2.294 1_554 S
In234 O246 2.326 1_554 S
O235 In234 2.294 . S
O235 C244 1.240 . S
O236 In234 2.326 . S
O236 C244 1.252 . S
C237 O240 1.252 . S
C237 O241 1.260 . S
C238 O245 1.240 . S
C238 O246 1.252 . S
C239 O242 1.252 . S
C239 O243 1.260 . S
O240 In234 2.266 . S
O240 C237 1.252 . S
O241 In234 2.326 . S
O241 C237 1.260 . S
O242 In234 2.266 . S
O242 C239 1.252 . S
O243 In234 2.326 . S
O243 C239 1.260 . S
C244 O235 1.240 . S
C244 O236 1.252 . S
O245 In234 2.294 1_556 S
O245 C238 1.240 . S
O246 In234 2.326 1_556 S
O246 C238 1.252 . S
In247 O248 2.294 1_554 S
In247 O249 2.326 1_554 S
In247 O253 2.266 . S
In247 O254 2.326 . S
In247 O255 2.266 . S
In247 O256 2.326 . S
In247 O258 2.294 . S
In247 O259 2.326 . S
O248 In247 2.294 1_556 S
O248 C257 1.240 . S
O249 In247 2.326 1_556 S
O249 C257 1.252 . S
C250 O253 1.252 . S
C250 O254 1.260 . S
C251 O258 1.240 . S
C251 O259 1.252 . S
C252 O255 1.252 . S
C252 O256 1.260 . S
O253 In247 2.266 . S
O253 C250 1.252 . S
O254 In247 2.326 . S
O254 C250 1.260 . S
O255 In247 2.266 . S
O255 C252 1.252 . S
O256 In247 2.326 . S
O256 C252 1.260 . S
C257 O248 1.240 . S
C257 O249 1.252 . S
O258 In247 2.294 . S
O258 C251 1.240 . S
O259 In247 2.326 . S
O259 C251 1.252 . S
In260 O261 2.294 . S
In260 O262 2.326 . S
In260 O266 2.266 . S
In260 O267 2.326 . S
In260 O268 2.266 . S
In260 O269 2.326 . S
In260 O271 2.294 1_554 S
In260 O272 2.326 1_554 S
O261 In260 2.294 . S
O261 C270 1.240 . S
O262 In260 2.326 . S
O262 C270 1.252 . S
C263 O266 1.252 . S
C263 O267 1.260 . S
C264 O271 1.240 . S
C264 O272 1.252 . S
C265 O268 1.252 . S
C265 O269 1.260 . S
O266 In260 2.266 . S
O266 C263 1.252 . S
O267 In260 2.326 . S
O267 C263 1.260 . S
O268 In260 2.266 . S
O268 C265 1.252 . S
O269 In260 2.326 . S
O269 C265 1.260 . S
C270 O261 1.240 . S
C270 O262 1.252 . S
O271 In260 2.294 1_556 S
O271 C264 1.240 . S
O272 In260 2.326 1_556 S
O272 C264 1.252 . S
In273 O274 2.294 . S
In273 O275 2.326 . S
In273 O279 2.266 . S
In273 O280 2.326 1_554 S
In273 O281 2.266 1_565 S
In273 O282 2.326 . S
In273 O284 2.294 1_565 S
In273 O285 2.326 . S
O274 In273 2.294 . S
O274 C283 1.240 . S
O275 In273 2.326 . S
O275 C283 1.252 . S
C276 O279 1.252 1_556 S
C276 O280 1.260 . S
C277 O284 1.240 1_565 S
C277 O285 1.252 . S
C278 O281 1.252 . S
C278 O282 1.260 1_545 S
O279 In273 2.266 . S
O279 C276 1.252 1_554 S
O280 In273 2.326 1_556 S
O280 C276 1.260 . S
O281 In273 2.266 1_545 S
O281 C278 1.252 . S
O282 In273 2.326 . S
O282 C278 1.260 1_565 S
C283 O274 1.240 . S
C283 O275 1.252 . S
O284 In273 2.294 1_545 S
O284 C277 1.240 1_545 S
O285 In273 2.326 . S
O285 C277 1.252 . S
In286 O287 2.294 1_455 S
In286 O288 2.326 . S
In286 O292 2.266 1_455 S
In286 O293 2.326 . S
In286 O294 2.266 . S
In286 O295 2.326 1_554 S
In286 O297 2.294 . S
In286 O298 2.326 . S
O287 In286 2.294 1_655 S
O287 C296 1.240 1_655 S
O288 In286 2.326 . S
O288 C296 1.252 . S
C289 O292 1.252 . S
C289 O293 1.260 1_655 S
C290 O297 1.240 . S
C290 O298 1.252 . S
C291 O294 1.252 1_556 S
C291 O295 1.260 . S
O292 In286 2.266 1_655 S
O292 C289 1.252 . S
O293 In286 2.326 . S
O293 C289 1.260 1_455 S
O294 In286 2.266 . S
O294 C291 1.252 1_554 S
O295 In286 2.326 1_556 S
O295 C291 1.260 . S
C296 O287 1.240 1_455 S
C296 O288 1.252 . S
O297 In286 2.294 . S
O297 C290 1.240 . S
O298 In286 2.326 . S
O298 C290 1.252 . S
In299 O300 2.294 . S
In299 O301 2.326 . S
In299 O305 2.266 . S
In299 O306 2.326 1_554 S
In299 O307 2.266 . S
In299 O308 2.326 . S
In299 O310 2.294 . S
In299 O311 2.326 . S
O300 In299 2.294 . S
O300 C309 1.240 . S
O301 In299 2.326 . S
O301 C309 1.252 . S
C302 O305 1.252 1_556 S
C302 O306 1.260 . S
C303 O310 1.240 . S
C303 O311 1.252 . S
C304 O307 1.252 . S
C304 O308 1.260 . S
O305 In299 2.266 . S
O305 C302 1.252 1_554 S
O306 In299 2.326 1_556 S
O306 C302 1.260 . S
O307 In299 2.266 . S
O307 C304 1.252 . S
O308 In299 2.326 . S
O308 C304 1.260 . S
C309 O300 1.240 . S
C309 O301 1.252 . S
O310 In299 2.294 . S
O310 C303 1.240 . S
O311 In299 2.326 . S
O311 C303 1.252 . S
In312 O313 2.294 . S
In312 O314 2.326 . S
In312 O318 2.266 . S
In312 O319 2.326 . S
In312 O320 2.266 . S
In312 O321 2.326 . S
In312 O323 2.294 1_556 S
In312 O324 2.326 1_556 S
O313 In312 2.294 . S
O313 C322 1.240 . S
O314 In312 2.326 . S
O314 C322 1.252 . S
C315 O318 1.252 . S
C315 O319 1.260 . S
C316 O323 1.240 . S
C316 O324 1.252 . S
C317 O320 1.252 . S
C317 O321 1.260 . S
O318 In312 2.266 . S
O318 C315 1.252 . S
O319 In312 2.326 . S
O319 C315 1.260 . S
O320 In312 2.266 . S
O320 C317 1.252 . S
O321 In312 2.326 . S
O321 C317 1.260 . S
C322 O313 1.240 . S
C322 O314 1.252 . S
O323 In312 2.294 1_554 S
O323 C316 1.240 . S
O324 In312 2.326 1_554 S
O324 C316 1.252 . S
In325 O326 2.294 . S
In325 O327 2.326 . S
In325 O331 2.266 . S
In325 O332 2.326 . S
In325 O333 2.266 . S
In325 O334 2.326 . S
In325 O336 2.294 1_556 S
In325 O337 2.326 1_556 S
O326 In325 2.294 . S
O326 C335 1.240 . S
O327 In325 2.326 . S
O327 C335 1.252 . S
C328 O331 1.252 . S
C328 O332 1.260 . S
C329 O336 1.240 . S
C329 O337 1.252 . S
C330 O333 1.252 . S
C330 O334 1.260 . S
O331 In325 2.266 . S
O331 C328 1.252 . S
O332 In325 2.326 . S
O332 C328 1.260 . S
O333 In325 2.266 . S
O333 C330 1.252 . S
O334 In325 2.326 . S
O334 C330 1.260 . S
C335 O326 1.240 . S
C335 O327 1.252 . S
O336 In325 2.294 1_554 S
O336 C329 1.240 . S
O337 In325 2.326 1_554 S
O337 C329 1.252 . S
In338 O339 2.294 . S
In338 O340 2.326 . S
In338 O344 2.266 . S
In338 O345 2.326 . S
In338 O346 2.266 . S
In338 O347 2.326 . S
In338 O349 2.294 1_556 S
In338 O350 2.326 1_556 S
O339 In338 2.294 . S
O339 C348 1.240 . S
O340 In338 2.326 . S
O340 C348 1.252 . S
C341 O344 1.252 . S
C341 O345 1.260 . S
C342 O349 1.240 . S
C342 O350 1.252 . S
C343 O346 1.252 . S
C343 O347 1.260 . S
O344 In338 2.266 . S
O344 C341 1.252 . S
O345 In338 2.326 . S
O345 C341 1.260 . S
O346 In338 2.266 . S
O346 C343 1.252 . S
O347 In338 2.326 . S
O347 C343 1.260 . S
C348 O339 1.240 . S
C348 O340 1.252 . S
O349 In338 2.294 1_554 S
O349 C342 1.240 . S
O350 In338 2.326 1_554 S
O350 C342 1.252 . S
In351 O352 2.294 . S
In351 O353 2.326 . S
In351 O357 2.266 . S
In351 O358 2.326 1_556 S
In351 O359 2.266 1_545 S
In351 O360 2.326 . S
In351 O362 2.294 1_545 S
In351 O363 2.326 . S
O352 In351 2.294 . S
O352 C361 1.240 . S
O353 In351 2.326 . S
O353 C361 1.252 . S
C354 O357 1.252 1_554 S
C354 O358 1.260 . S
C355 O362 1.240 1_545 S
C355 O363 1.252 . S
C356 O359 1.252 . S
C356 O360 1.260 1_565 S
O357 In351 2.266 . S
O357 C354 1.252 1_556 S
O358 In351 2.326 1_554 S
O358 C354 1.260 . S
O359 In351 2.266 1_565 S
O359 C356 1.252 . S
O360 In351 2.326 . S
O360 C356 1.260 1_545 S
C361 O352 1.240 . S
C361 O353 1.252 . S
O362 In351 2.294 1_565 S
O362 C355 1.240 1_565 S
O363 In351 2.326 . S
O363 C355 1.252 . S
In364 O365 2.294 1_655 S
In364 O366 2.326 . S
In364 O370 2.266 1_655 S
In364 O371 2.326 . S
In364 O372 2.266 . S
In364 O373 2.326 1_556 S
In364 O375 2.294 . S
In364 O376 2.326 . S
O365 In364 2.294 1_455 S
O365 C374 1.240 1_455 S
O366 In364 2.326 . S
O366 C374 1.252 . S
C367 O370 1.252 . S
C367 O371 1.260 1_455 S
C368 O375 1.240 . S
C368 O376 1.252 . S
C369 O372 1.252 1_554 S
C369 O373 1.260 . S
O370 In364 2.266 1_455 S
O370 C367 1.252 . S
O371 In364 2.326 . S
O371 C367 1.260 1_655 S
O372 In364 2.266 . S
O372 C369 1.252 1_556 S
O373 In364 2.326 1_554 S
O373 C369 1.260 . S
C374 O365 1.240 1_655 S
C374 O366 1.252 . S
O375 In364 2.294 . S
O375 C368 1.240 . S
O376 In364 2.326 . S
O376 C368 1.252 . S
In377 O378 2.294 . S
In377 O379 2.326 . S
In377 O383 2.266 . S
In377 O384 2.326 1_556 S
In377 O385 2.266 . S
In377 O386 2.326 . S
In377 O388 2.294 . S
In377 O389 2.326 . S
O378 In377 2.294 . S
O378 C387 1.240 . S
O379 In377 2.326 . S
O379 C387 1.252 . S
C380 O383 1.252 1_554 S
C380 O384 1.260 . S
C381 O388 1.240 . S
C381 O389 1.252 . S
C382 O385 1.252 . S
C382 O386 1.260 . S
O383 In377 2.266 . S
O383 C380 1.252 1_556 S
O384 In377 2.326 1_554 S
O384 C380 1.260 . S
O385 In377 2.266 . S
O385 C382 1.252 . S
O386 In377 2.326 . S
O386 C382 1.260 . S
C387 O378 1.240 . S
C387 O379 1.252 . S
O388 In377 2.294 . S
O388 C381 1.240 . S
O389 In377 2.326 . S
O389 C381 1.252 . S
In390 O391 2.294 1_655 S
In390 O392 2.326 . S
In390 O396 2.266 1_655 S
In390 O397 2.326 . S
In390 O398 2.266 . S
In390 O399 2.326 . S
In390 O401 2.294 . S
In390 O402 2.326 . S
O391 In390 2.294 1_455 S
O391 C400 1.240 1_455 S
O392 In390 2.326 . S
O392 C400 1.252 . S
C393 O396 1.252 . S
C393 O397 1.260 1_455 S
C394 O401 1.240 . S
C394 O402 1.252 . S
C395 O398 1.252 . S
C395 O399 1.260 . S
O396 In390 2.266 1_455 S
O396 C393 1.252 . S
O397 In390 2.326 . S
O397 C393 1.260 1_655 S
O398 In390 2.266 . S
O398 C395 1.252 . S
O399 In390 2.326 . S
O399 C395 1.260 . S
C400 O391 1.240 1_655 S
C400 O392 1.252 . S
O401 In390 2.294 . S
O401 C394 1.240 . S
O402 In390 2.326 . S
O402 C394 1.252 . S
In403 O404 2.294 . S
In403 O405 2.326 . S
In403 O409 2.266 . S
In403 O410 2.326 . S
In403 O411 2.266 . S
In403 O412 2.326 . S
In403 O414 2.294 . S
In403 O415 2.326 . S
O404 In403 2.294 . S
O404 C413 1.240 . S
O405 In403 2.326 . S
O405 C413 1.252 . S
C406 O409 1.252 . S
C406 O410 1.260 . S
C407 O414 1.240 . S
C407 O415 1.252 . S
C408 O411 1.252 . S
C408 O412 1.260 . S
O409 In403 2.266 . S
O409 C406 1.252 . S
O410 In403 2.326 . S
O410 C406 1.260 . S
O411 In403 2.266 . S
O411 C408 1.252 . S
O412 In403 2.326 . S
O412 C408 1.260 . S
C413 O404 1.240 . S
C413 O405 1.252 . S
O414 In403 2.294 . S
O414 C407 1.240 . S
O415 In403 2.326 . S
O415 C407 1.252 . S
In416 O417 2.294 1_545 S
In416 O418 2.326 . S
In416 O422 2.266 1_545 S
In416 O423 2.326 . S
In416 O424 2.266 . S
In416 O425 2.326 . S
In416 O427 2.294 . S
In416 O428 2.326 . S
O417 In416 2.294 1_565 S
O417 C426 1.240 1_565 S
O418 In416 2.326 . S
O418 C426 1.252 . S
C419 O422 1.252 . S
C419 O423 1.260 1_565 S
C420 O427 1.240 . S
C420 O428 1.252 . S
C421 O424 1.252 . S
C421 O425 1.260 . S
O422 In416 2.266 1_565 S
O422 C419 1.252 . S
O423 In416 2.326 . S
O423 C419 1.260 1_545 S
O424 In416 2.266 . S
O424 C421 1.252 . S
O425 In416 2.326 . S
O425 C421 1.260 . S
C426 O417 1.240 1_545 S
C426 O418 1.252 . S
O427 In416 2.294 . S
O427 C420 1.240 . S
O428 In416 2.326 . S
O428 C420 1.252 . S
In429 O430 2.294 . S
In429 O431 2.326 . S
In429 O435 2.266 . S
In429 O436 2.326 . S
In429 O437 2.266 . S
In429 O438 2.326 . S
In429 O440 2.294 . S
In429 O441 2.326 . S
O430 In429 2.294 . S
O430 C439 1.240 . S
O431 In429 2.326 . S
O431 C439 1.252 . S
C432 O435 1.252 . S
C432 O436 1.260 . S
C433 O440 1.240 . S
C433 O441 1.252 . S
C434 O437 1.252 . S
C434 O438 1.260 . S
O435 In429 2.266 . S
O435 C432 1.252 . S
O436 In429 2.326 . S
O436 C432 1.260 . S
O437 In429 2.266 . S
O437 C434 1.252 . S
O438 In429 2.326 . S
O438 C434 1.260 . S
C439 O430 1.240 . S
C439 O431 1.252 . S
O440 In429 2.294 . S
O440 C433 1.240 . S
O441 In429 2.326 . S
O441 C433 1.252 . S
In442 O443 2.294 . S
In442 O444 2.326 . S
In442 O448 2.266 . S
In442 O449 2.326 . S
In442 O450 2.266 . S
In442 O451 2.326 . S
In442 O453 2.294 . S
In442 O454 2.326 . S
O443 In442 2.294 . S
O443 C452 1.240 . S
O444 In442 2.326 . S
O444 C452 1.252 . S
C445 O448 1.252 . S
C445 O449 1.260 . S
C446 O453 1.240 . S
C446 O454 1.252 . S
C447 O450 1.252 . S
C447 O451 1.260 . S
O448 In442 2.266 . S
O448 C445 1.252 . S
O449 In442 2.326 . S
O449 C445 1.260 . S
O450 In442 2.266 . S
O450 C447 1.252 . S
O451 In442 2.326 . S
O451 C447 1.260 . S
C452 O443 1.240 . S
C452 O444 1.252 . S
O453 In442 2.294 . S
O453 C446 1.240 . S
O454 In442 2.326 . S
O454 C446 1.252 . S
In455 O456 2.294 . S
In455 O457 2.326 . S
In455 O461 2.266 . S
In455 O462 2.326 . S
In455 O463 2.266 . S
In455 O464 2.326 . S
In455 O466 2.294 . S
In455 O467 2.326 . S
O456 In455 2.294 . S
O456 C465 1.240 . S
O457 In455 2.326 . S
O457 C465 1.252 . S
C458 O461 1.252 . S
C458 O462 1.260 . S
C459 O466 1.240 . S
C459 O467 1.252 . S
C460 O463 1.252 . S
C460 O464 1.260 . S
O461 In455 2.266 . S
O461 C458 1.252 . S
O462 In455 2.326 . S
O462 C458 1.260 . S
O463 In455 2.266 . S
O463 C460 1.252 . S
O464 In455 2.326 . S
O464 C460 1.260 . S
C465 O456 1.240 . S
C465 O457 1.252 . S
O466 In455 2.294 . S
O466 C459 1.240 . S
O467 In455 2.326 . S
O467 C459 1.252 . S
C70 C5 1.283 1_565 S
C44 C18 1.283 1_455 S
C29 C57 1.283 . S
C83 C146 1.283 1_565 S
C94 C120 1.283 1_455 S
C135 C109 1.283 . S
C159 C224 1.283 . S
C172 C200 1.283 . S
C213 C187 1.283 . S
C304 C237 1.283 . S
C278 C252 1.283 . S
C263 C289 1.283 . S
C382 C315 1.283 . S
C356 C328 1.283 . S
C341 C367 1.282 . S
C460 C393 1.283 . S
C434 C406 1.283 . S
C447 C419 1.283 . S
C218 C10 2.509 . S
C225 C23 2.510 . S
C205 C30 2.509 . S
C49 C342 2.509 . S
C62 C316 2.509 . S
C75 C329 2.509 . S
C88 C452 2.509 . S
C465 C95 2.509 . S
C439 C114 2.509 . S
C264 C121 2.509 . S
C238 C140 2.509 . S
C147 C257 2.509 . S
C160 C368 2.509 1_455 S
C387 C173 2.509 . S
C361 C192 2.510 1_545 S
C283 C420 2.510 1_565 S
C394 C290 2.509 1_655 S
C309 C407 2.509 . S
C244 C4 1.826 . S
C251 C17 1.826 . S
C36 C270 1.826 . S
C43 C433 1.825 . S
C446 C56 1.826 . S
C459 C69 1.826 . S
C82 C322 1.826 . S
C101 C335 1.826 . S
C348 C108 1.826 . S
C127 C199 1.825 . S
C134 C212 1.826 . S
C231 C153 1.826 . S
C166 C400 1.825 1_455 S
C179 C413 1.826 . S
C426 C186 1.826 1_545 S
C355 C277 1.826 1_546 S
C296 C374 1.826 1_454 S
C303 C381 1.826 1_554 S
C354 C3 1.783 . S
C16 C369 1.783 . S
C380 C31 1.783 . S
C42 C161 1.783 . S
C174 C55 1.783 . S
C185 C68 1.783 . S
C81 C276 1.783 . S
C291 C96 1.783 . S
C107 C302 1.783 . S
C122 C395 1.783 . S
C133 C408 1.783 . S
C421 C148 1.783 . S
C198 C317 1.783 . S
C211 C330 1.783 1_545 S
C226 C343 1.783 1_655 S
C239 C432 1.783 . S
C250 C445 1.783 1_545 S
C458 C265 1.783 1_455 S
