# Generated by pormake.
# Topology kfi, (4)-cn, num edge types: 1
# Building blocks:
#     Node 0, Type 0, BuildingBlock: GALJAG_clean_sbu_0, # of connection points: 4
#     Node 1, Type 0, BuildingBlock: GALJAG_clean_sbu_0, # of connection points: 4
#     Node 2, Type 0, BuildingBlock: GALJAG_clean_sbu_0, # of connection points: 4
#     Node 3, Type 0, BuildingBlock: GALJAG_clean_sbu_0, # of connection points: 4
#     Node 4, Type 0, BuildingBlock: GALJAG_clean_sbu_0, # of connection points: 4
#     Node 5, Type 0, BuildingBlock: GALJAG_clean_sbu_0, # of connection points: 4
#     Node 6, Type 0, BuildingBlock: GALJAG_clean_sbu_0, # of connection points: 4
#     Node 7, Type 0, BuildingBlock: GALJAG_clean_sbu_0, # of connection points: 4
#     Node 8, Type 0, BuildingBlock: GALJAG_clean_sbu_0, # of connection points: 4
#     Node 9, Type 0, BuildingBlock: GALJAG_clean_sbu_0, # of connection points: 4
#     Node 10, Type 0, BuildingBlock: GALJAG_clean_sbu_0, # of connection points: 4
#     Node 11, Type 0, BuildingBlock: GALJAG_clean_sbu_0, # of connection points: 4
#     Node 12, Type 0, BuildingBlock: GALJAG_clean_sbu_0, # of connection points: 4
#     Node 13, Type 0, BuildingBlock: GALJAG_clean_sbu_0, # of connection points: 4
#     Node 14, Type 0, BuildingBlock: GALJAG_clean_sbu_0, # of connection points: 4
#     Node 15, Type 0, BuildingBlock: GALJAG_clean_sbu_0, # of connection points: 4
#     Node 16, Type 0, BuildingBlock: GALJAG_clean_sbu_0, # of connection points: 4
#     Node 17, Type 0, BuildingBlock: GALJAG_clean_sbu_0, # of connection points: 4
#     Node 18, Type 0, BuildingBlock: GALJAG_clean_sbu_0, # of connection points: 4
#     Node 19, Type 0, BuildingBlock: GALJAG_clean_sbu_0, # of connection points: 4
#     Node 20, Type 0, BuildingBlock: GALJAG_clean_sbu_0, # of connection points: 4
#     Node 21, Type 0, BuildingBlock: GALJAG_clean_sbu_0, # of connection points: 4
#     Node 22, Type 0, BuildingBlock: GALJAG_clean_sbu_0, # of connection points: 4
#     Node 23, Type 0, BuildingBlock: GALJAG_clean_sbu_0, # of connection points: 4
#     Node 24, Type 0, BuildingBlock: GALJAG_clean_sbu_0, # of connection points: 4
#     Node 25, Type 0, BuildingBlock: GALJAG_clean_sbu_0, # of connection points: 4
#     Node 26, Type 0, BuildingBlock: GALJAG_clean_sbu_0, # of connection points: 4
#     Node 27, Type 0, BuildingBlock: GALJAG_clean_sbu_0, # of connection points: 4
#     Node 28, Type 0, BuildingBlock: GALJAG_clean_sbu_0, # of connection points: 4
#     Node 29, Type 0, BuildingBlock: GALJAG_clean_sbu_0, # of connection points: 4
#     Node 30, Type 0, BuildingBlock: GALJAG_clean_sbu_0, # of connection points: 4
#     Node 31, Type 0, BuildingBlock: GALJAG_clean_sbu_0, # of connection points: 4
#     Node 32, Type 0, BuildingBlock: GALJAG_clean_sbu_0, # of connection points: 4
#     Node 33, Type 0, BuildingBlock: GALJAG_clean_sbu_0, # of connection points: 4
#     Node 34, Type 0, BuildingBlock: GALJAG_clean_sbu_0, # of connection points: 4
#     Node 35, Type 0, BuildingBlock: GALJAG_clean_sbu_0, # of connection points: 4
#     Node 36, Type 0, BuildingBlock: GALJAG_clean_sbu_0, # of connection points: 4
#     Node 37, Type 0, BuildingBlock: GALJAG_clean_sbu_0, # of connection points: 4
#     Node 38, Type 0, BuildingBlock: GALJAG_clean_sbu_0, # of connection points: 4
#     Node 39, Type 0, BuildingBlock: GALJAG_clean_sbu_0, # of connection points: 4
#     Node 40, Type 0, BuildingBlock: GALJAG_clean_sbu_0, # of connection points: 4
#     Node 41, Type 0, BuildingBlock: GALJAG_clean_sbu_0, # of connection points: 4
#     Node 42, Type 0, BuildingBlock: GALJAG_clean_sbu_0, # of connection points: 4
#     Node 43, Type 0, BuildingBlock: GALJAG_clean_sbu_0, # of connection points: 4
#     Node 44, Type 0, BuildingBlock: GALJAG_clean_sbu_0, # of connection points: 4
#     Node 45, Type 0, BuildingBlock: GALJAG_clean_sbu_0, # of connection points: 4
#     Node 46, Type 0, BuildingBlock: GALJAG_clean_sbu_0, # of connection points: 4
#     Node 47, Type 0, BuildingBlock: GALJAG_clean_sbu_0, # of connection points: 4
#     Node 48, Type 0, BuildingBlock: GALJAG_clean_sbu_0, # of connection points: 4
#     Node 49, Type 0, BuildingBlock: GALJAG_clean_sbu_0, # of connection points: 4
#     Node 50, Type 0, BuildingBlock: GALJAG_clean_sbu_0, # of connection points: 4
#     Node 51, Type 0, BuildingBlock: GALJAG_clean_sbu_0, # of connection points: 4
#     Node 52, Type 0, BuildingBlock: GALJAG_clean_sbu_0, # of connection points: 4
#     Node 53, Type 0, BuildingBlock: GALJAG_clean_sbu_0, # of connection points: 4
#     Node 54, Type 0, BuildingBlock: GALJAG_clean_sbu_0, # of connection points: 4
#     Node 55, Type 0, BuildingBlock: GALJAG_clean_sbu_0, # of connection points: 4
#     Node 56, Type 0, BuildingBlock: GALJAG_clean_sbu_0, # of connection points: 4
#     Node 57, Type 0, BuildingBlock: GALJAG_clean_sbu_0, # of connection points: 4
#     Node 58, Type 0, BuildingBlock: GALJAG_clean_sbu_0, # of connection points: 4
#     Node 59, Type 0, BuildingBlock: GALJAG_clean_sbu_0, # of connection points: 4
#     Node 60, Type 0, BuildingBlock: GALJAG_clean_sbu_0, # of connection points: 4
#     Node 61, Type 0, BuildingBlock: GALJAG_clean_sbu_0, # of connection points: 4
#     Node 62, Type 0, BuildingBlock: GALJAG_clean_sbu_0, # of connection points: 4
#     Node 63, Type 0, BuildingBlock: GALJAG_clean_sbu_0, # of connection points: 4
#     Node 64, Type 0, BuildingBlock: GALJAG_clean_sbu_0, # of connection points: 4
#     Node 65, Type 0, BuildingBlock: GALJAG_clean_sbu_0, # of connection points: 4
#     Node 66, Type 0, BuildingBlock: GALJAG_clean_sbu_0, # of connection points: 4
#     Node 67, Type 0, BuildingBlock: GALJAG_clean_sbu_0, # of connection points: 4
#     Node 68, Type 0, BuildingBlock: GALJAG_clean_sbu_0, # of connection points: 4
#     Node 69, Type 0, BuildingBlock: GALJAG_clean_sbu_0, # of connection points: 4
#     Node 70, Type 0, BuildingBlock: GALJAG_clean_sbu_0, # of connection points: 4
#     Node 71, Type 0, BuildingBlock: GALJAG_clean_sbu_0, # of connection points: 4
#     Node 72, Type 0, BuildingBlock: GALJAG_clean_sbu_0, # of connection points: 4
#     Node 73, Type 0, BuildingBlock: GALJAG_clean_sbu_0, # of connection points: 4
#     Node 74, Type 0, BuildingBlock: GALJAG_clean_sbu_0, # of connection points: 4
#     Node 75, Type 0, BuildingBlock: GALJAG_clean_sbu_0, # of connection points: 4
#     Node 76, Type 0, BuildingBlock: GALJAG_clean_sbu_0, # of connection points: 4
#     Node 77, Type 0, BuildingBlock: GALJAG_clean_sbu_0, # of connection points: 4
#     Node 78, Type 0, BuildingBlock: GALJAG_clean_sbu_0, # of connection points: 4
#     Node 79, Type 0, BuildingBlock: GALJAG_clean_sbu_0, # of connection points: 4
#     Node 80, Type 0, BuildingBlock: GALJAG_clean_sbu_0, # of connection points: 4
#     Node 81, Type 0, BuildingBlock: GALJAG_clean_sbu_0, # of connection points: 4
#     Node 82, Type 0, BuildingBlock: GALJAG_clean_sbu_0, # of connection points: 4
#     Node 83, Type 0, BuildingBlock: GALJAG_clean_sbu_0, # of connection points: 4
#     Node 84, Type 0, BuildingBlock: GALJAG_clean_sbu_0, # of connection points: 4
#     Node 85, Type 0, BuildingBlock: GALJAG_clean_sbu_0, # of connection points: 4
#     Node 86, Type 0, BuildingBlock: GALJAG_clean_sbu_0, # of connection points: 4
#     Node 87, Type 0, BuildingBlock: GALJAG_clean_sbu_0, # of connection points: 4
#     Node 88, Type 0, BuildingBlock: GALJAG_clean_sbu_0, # of connection points: 4
#     Node 89, Type 0, BuildingBlock: GALJAG_clean_sbu_0, # of connection points: 4
#     Node 90, Type 0, BuildingBlock: GALJAG_clean_sbu_0, # of connection points: 4
#     Node 91, Type 0, BuildingBlock: GALJAG_clean_sbu_0, # of connection points: 4
#     Node 92, Type 0, BuildingBlock: GALJAG_clean_sbu_0, # of connection points: 4
#     Node 93, Type 0, BuildingBlock: GALJAG_clean_sbu_0, # of connection points: 4
#     Node 94, Type 0, BuildingBlock: GALJAG_clean_sbu_0, # of connection points: 4
#     Node 95, Type 0, BuildingBlock: GALJAG_clean_sbu_0, # of connection points: 4
#     Edge 96, Type (0, 0), BuildingBlock: XIVTED_clean_linker_0, # of connection points: 2
#     Edge 97, Type (0, 0), BuildingBlock: XIVTED_clean_linker_0, # of connection points: 2
#     Edge 98, Type (0, 0), BuildingBlock: XIVTED_clean_linker_0, # of connection points: 2
#     Edge 99, Type (0, 0), BuildingBlock: XIVTED_clean_linker_0, # of connection points: 2
#     Edge 100, Type (0, 0), BuildingBlock: XIVTED_clean_linker_0, # of connection points: 2
#     Edge 101, Type (0, 0), BuildingBlock: XIVTED_clean_linker_0, # of connection points: 2
#     Edge 102, Type (0, 0), BuildingBlock: XIVTED_clean_linker_0, # of connection points: 2
#     Edge 103, Type (0, 0), BuildingBlock: XIVTED_clean_linker_0, # of connection points: 2
#     Edge 104, Type (0, 0), BuildingBlock: XIVTED_clean_linker_0, # of connection points: 2
#     Edge 105, Type (0, 0), BuildingBlock: XIVTED_clean_linker_0, # of connection points: 2
#     Edge 106, Type (0, 0), BuildingBlock: XIVTED_clean_linker_0, # of connection points: 2
#     Edge 107, Type (0, 0), BuildingBlock: XIVTED_clean_linker_0, # of connection points: 2
#     Edge 108, Type (0, 0), BuildingBlock: XIVTED_clean_linker_0, # of connection points: 2
#     Edge 109, Type (0, 0), BuildingBlock: XIVTED_clean_linker_0, # of connection points: 2
#     Edge 110, Type (0, 0), BuildingBlock: XIVTED_clean_linker_0, # of connection points: 2
#     Edge 111, Type (0, 0), BuildingBlock: XIVTED_clean_linker_0, # of connection points: 2
#     Edge 112, Type (0, 0), BuildingBlock: XIVTED_clean_linker_0, # of connection points: 2
#     Edge 113, Type (0, 0), BuildingBlock: XIVTED_clean_linker_0, # of connection points: 2
#     Edge 114, Type (0, 0), BuildingBlock: XIVTED_clean_linker_0, # of connection points: 2
#     Edge 115, Type (0, 0), BuildingBlock: XIVTED_clean_linker_0, # of connection points: 2
#     Edge 116, Type (0, 0), BuildingBlock: XIVTED_clean_linker_0, # of connection points: 2
#     Edge 117, Type (0, 0), BuildingBlock: XIVTED_clean_linker_0, # of connection points: 2
#     Edge 118, Type (0, 0), BuildingBlock: XIVTED_clean_linker_0, # of connection points: 2
#     Edge 119, Type (0, 0), BuildingBlock: XIVTED_clean_linker_0, # of connection points: 2
#     Edge 120, Type (0, 0), BuildingBlock: XIVTED_clean_linker_0, # of connection points: 2
#     Edge 121, Type (0, 0), BuildingBlock: XIVTED_clean_linker_0, # of connection points: 2
#     Edge 122, Type (0, 0), BuildingBlock: XIVTED_clean_linker_0, # of connection points: 2
#     Edge 123, Type (0, 0), BuildingBlock: XIVTED_clean_linker_0, # of connection points: 2
#     Edge 124, Type (0, 0), BuildingBlock: XIVTED_clean_linker_0, # of connection points: 2
#     Edge 125, Type (0, 0), BuildingBlock: XIVTED_clean_linker_0, # of connection points: 2
#     Edge 126, Type (0, 0), BuildingBlock: XIVTED_clean_linker_0, # of connection points: 2
#     Edge 127, Type (0, 0), BuildingBlock: XIVTED_clean_linker_0, # of connection points: 2
#     Edge 128, Type (0, 0), BuildingBlock: XIVTED_clean_linker_0, # of connection points: 2
#     Edge 129, Type (0, 0), BuildingBlock: XIVTED_clean_linker_0, # of connection points: 2
#     Edge 130, Type (0, 0), BuildingBlock: XIVTED_clean_linker_0, # of connection points: 2
#     Edge 131, Type (0, 0), BuildingBlock: XIVTED_clean_linker_0, # of connection points: 2
#     Edge 132, Type (0, 0), BuildingBlock: XIVTED_clean_linker_0, # of connection points: 2
#     Edge 133, Type (0, 0), BuildingBlock: XIVTED_clean_linker_0, # of connection points: 2
#     Edge 134, Type (0, 0), BuildingBlock: XIVTED_clean_linker_0, # of connection points: 2
#     Edge 135, Type (0, 0), BuildingBlock: XIVTED_clean_linker_0, # of connection points: 2
#     Edge 136, Type (0, 0), BuildingBlock: XIVTED_clean_linker_0, # of connection points: 2
#     Edge 137, Type (0, 0), BuildingBlock: XIVTED_clean_linker_0, # of connection points: 2
#     Edge 138, Type (0, 0), BuildingBlock: XIVTED_clean_linker_0, # of connection points: 2
#     Edge 139, Type (0, 0), BuildingBlock: XIVTED_clean_linker_0, # of connection points: 2
#     Edge 140, Type (0, 0), BuildingBlock: XIVTED_clean_linker_0, # of connection points: 2
#     Edge 141, Type (0, 0), BuildingBlock: XIVTED_clean_linker_0, # of connection points: 2
#     Edge 142, Type (0, 0), BuildingBlock: XIVTED_clean_linker_0, # of connection points: 2
#     Edge 143, Type (0, 0), BuildingBlock: XIVTED_clean_linker_0, # of connection points: 2
#     Edge 144, Type (0, 0), BuildingBlock: XIVTED_clean_linker_0, # of connection points: 2
#     Edge 145, Type (0, 0), BuildingBlock: XIVTED_clean_linker_0, # of connection points: 2
#     Edge 146, Type (0, 0), BuildingBlock: XIVTED_clean_linker_0, # of connection points: 2
#     Edge 147, Type (0, 0), BuildingBlock: XIVTED_clean_linker_0, # of connection points: 2
#     Edge 148, Type (0, 0), BuildingBlock: XIVTED_clean_linker_0, # of connection points: 2
#     Edge 149, Type (0, 0), BuildingBlock: XIVTED_clean_linker_0, # of connection points: 2
#     Edge 150, Type (0, 0), BuildingBlock: XIVTED_clean_linker_0, # of connection points: 2
#     Edge 151, Type (0, 0), BuildingBlock: XIVTED_clean_linker_0, # of connection points: 2
#     Edge 152, Type (0, 0), BuildingBlock: XIVTED_clean_linker_0, # of connection points: 2
#     Edge 153, Type (0, 0), BuildingBlock: XIVTED_clean_linker_0, # of connection points: 2
#     Edge 154, Type (0, 0), BuildingBlock: XIVTED_clean_linker_0, # of connection points: 2
#     Edge 155, Type (0, 0), BuildingBlock: XIVTED_clean_linker_0, # of connection points: 2
#     Edge 156, Type (0, 0), BuildingBlock: XIVTED_clean_linker_0, # of connection points: 2
#     Edge 157, Type (0, 0), BuildingBlock: XIVTED_clean_linker_0, # of connection points: 2
#     Edge 158, Type (0, 0), BuildingBlock: XIVTED_clean_linker_0, # of connection points: 2
#     Edge 159, Type (0, 0), BuildingBlock: XIVTED_clean_linker_0, # of connection points: 2
#     Edge 160, Type (0, 0), BuildingBlock: XIVTED_clean_linker_0, # of connection points: 2
#     Edge 161, Type (0, 0), BuildingBlock: XIVTED_clean_linker_0, # of connection points: 2
#     Edge 162, Type (0, 0), BuildingBlock: XIVTED_clean_linker_0, # of connection points: 2
#     Edge 163, Type (0, 0), BuildingBlock: XIVTED_clean_linker_0, # of connection points: 2
#     Edge 164, Type (0, 0), BuildingBlock: XIVTED_clean_linker_0, # of connection points: 2
#     Edge 165, Type (0, 0), BuildingBlock: XIVTED_clean_linker_0, # of connection points: 2
#     Edge 166, Type (0, 0), BuildingBlock: XIVTED_clean_linker_0, # of connection points: 2
#     Edge 167, Type (0, 0), BuildingBlock: XIVTED_clean_linker_0, # of connection points: 2
#     Edge 168, Type (0, 0), BuildingBlock: XIVTED_clean_linker_0, # of connection points: 2
#     Edge 169, Type (0, 0), BuildingBlock: XIVTED_clean_linker_0, # of connection points: 2
#     Edge 170, Type (0, 0), BuildingBlock: XIVTED_clean_linker_0, # of connection points: 2
#     Edge 171, Type (0, 0), BuildingBlock: XIVTED_clean_linker_0, # of connection points: 2
#     Edge 172, Type (0, 0), BuildingBlock: XIVTED_clean_linker_0, # of connection points: 2
#     Edge 173, Type (0, 0), BuildingBlock: XIVTED_clean_linker_0, # of connection points: 2
#     Edge 174, Type (0, 0), BuildingBlock: XIVTED_clean_linker_0, # of connection points: 2
#     Edge 175, Type (0, 0), BuildingBlock: XIVTED_clean_linker_0, # of connection points: 2
#     Edge 176, Type (0, 0), BuildingBlock: XIVTED_clean_linker_0, # of connection points: 2
#     Edge 177, Type (0, 0), BuildingBlock: XIVTED_clean_linker_0, # of connection points: 2
#     Edge 178, Type (0, 0), BuildingBlock: XIVTED_clean_linker_0, # of connection points: 2
#     Edge 179, Type (0, 0), BuildingBlock: XIVTED_clean_linker_0, # of connection points: 2
#     Edge 180, Type (0, 0), BuildingBlock: XIVTED_clean_linker_0, # of connection points: 2
#     Edge 181, Type (0, 0), BuildingBlock: XIVTED_clean_linker_0, # of connection points: 2
#     Edge 182, Type (0, 0), BuildingBlock: XIVTED_clean_linker_0, # of connection points: 2
#     Edge 183, Type (0, 0), BuildingBlock: XIVTED_clean_linker_0, # of connection points: 2
#     Edge 184, Type (0, 0), BuildingBlock: XIVTED_clean_linker_0, # of connection points: 2
#     Edge 185, Type (0, 0), BuildingBlock: XIVTED_clean_linker_0, # of connection points: 2
#     Edge 186, Type (0, 0), BuildingBlock: XIVTED_clean_linker_0, # of connection points: 2
#     Edge 187, Type (0, 0), BuildingBlock: XIVTED_clean_linker_0, # of connection points: 2
#     Edge 188, Type (0, 0), BuildingBlock: XIVTED_clean_linker_0, # of connection points: 2
#     Edge 189, Type (0, 0), BuildingBlock: XIVTED_clean_linker_0, # of connection points: 2
#     Edge 190, Type (0, 0), BuildingBlock: XIVTED_clean_linker_0, # of connection points: 2
#     Edge 191, Type (0, 0), BuildingBlock: XIVTED_clean_linker_0, # of connection points: 2
#     Edge 192, Type (0, 0), BuildingBlock: XIVTED_clean_linker_0, # of connection points: 2
#     Edge 193, Type (0, 0), BuildingBlock: XIVTED_clean_linker_0, # of connection points: 2
#     Edge 194, Type (0, 0), BuildingBlock: XIVTED_clean_linker_0, # of connection points: 2
#     Edge 195, Type (0, 0), BuildingBlock: XIVTED_clean_linker_0, # of connection points: 2
#     Edge 196, Type (0, 0), BuildingBlock: XIVTED_clean_linker_0, # of connection points: 2
#     Edge 197, Type (0, 0), BuildingBlock: XIVTED_clean_linker_0, # of connection points: 2
#     Edge 198, Type (0, 0), BuildingBlock: XIVTED_clean_linker_0, # of connection points: 2
#     Edge 199, Type (0, 0), BuildingBlock: XIVTED_clean_linker_0, # of connection points: 2
#     Edge 200, Type (0, 0), BuildingBlock: XIVTED_clean_linker_0, # of connection points: 2
#     Edge 201, Type (0, 0), BuildingBlock: XIVTED_clean_linker_0, # of connection points: 2
#     Edge 202, Type (0, 0), BuildingBlock: XIVTED_clean_linker_0, # of connection points: 2
#     Edge 203, Type (0, 0), BuildingBlock: XIVTED_clean_linker_0, # of connection points: 2
#     Edge 204, Type (0, 0), BuildingBlock: XIVTED_clean_linker_0, # of connection points: 2
#     Edge 205, Type (0, 0), BuildingBlock: XIVTED_clean_linker_0, # of connection points: 2
#     Edge 206, Type (0, 0), BuildingBlock: XIVTED_clean_linker_0, # of connection points: 2
#     Edge 207, Type (0, 0), BuildingBlock: XIVTED_clean_linker_0, # of connection points: 2
#     Edge 208, Type (0, 0), BuildingBlock: XIVTED_clean_linker_0, # of connection points: 2
#     Edge 209, Type (0, 0), BuildingBlock: XIVTED_clean_linker_0, # of connection points: 2
#     Edge 210, Type (0, 0), BuildingBlock: XIVTED_clean_linker_0, # of connection points: 2
#     Edge 211, Type (0, 0), BuildingBlock: XIVTED_clean_linker_0, # of connection points: 2
#     Edge 212, Type (0, 0), BuildingBlock: XIVTED_clean_linker_0, # of connection points: 2
#     Edge 213, Type (0, 0), BuildingBlock: XIVTED_clean_linker_0, # of connection points: 2
#     Edge 214, Type (0, 0), BuildingBlock: XIVTED_clean_linker_0, # of connection points: 2
#     Edge 215, Type (0, 0), BuildingBlock: XIVTED_clean_linker_0, # of connection points: 2
#     Edge 216, Type (0, 0), BuildingBlock: XIVTED_clean_linker_0, # of connection points: 2
#     Edge 217, Type (0, 0), BuildingBlock: XIVTED_clean_linker_0, # of connection points: 2
#     Edge 218, Type (0, 0), BuildingBlock: XIVTED_clean_linker_0, # of connection points: 2
#     Edge 219, Type (0, 0), BuildingBlock: XIVTED_clean_linker_0, # of connection points: 2
#     Edge 220, Type (0, 0), BuildingBlock: XIVTED_clean_linker_0, # of connection points: 2
#     Edge 221, Type (0, 0), BuildingBlock: XIVTED_clean_linker_0, # of connection points: 2
#     Edge 222, Type (0, 0), BuildingBlock: XIVTED_clean_linker_0, # of connection points: 2
#     Edge 223, Type (0, 0), BuildingBlock: XIVTED_clean_linker_0, # of connection points: 2
#     Edge 224, Type (0, 0), BuildingBlock: XIVTED_clean_linker_0, # of connection points: 2
#     Edge 225, Type (0, 0), BuildingBlock: XIVTED_clean_linker_0, # of connection points: 2
#     Edge 226, Type (0, 0), BuildingBlock: XIVTED_clean_linker_0, # of connection points: 2
#     Edge 227, Type (0, 0), BuildingBlock: XIVTED_clean_linker_0, # of connection points: 2
#     Edge 228, Type (0, 0), BuildingBlock: XIVTED_clean_linker_0, # of connection points: 2
#     Edge 229, Type (0, 0), BuildingBlock: XIVTED_clean_linker_0, # of connection points: 2
#     Edge 230, Type (0, 0), BuildingBlock: XIVTED_clean_linker_0, # of connection points: 2
#     Edge 231, Type (0, 0), BuildingBlock: XIVTED_clean_linker_0, # of connection points: 2
#     Edge 232, Type (0, 0), BuildingBlock: XIVTED_clean_linker_0, # of connection points: 2
#     Edge 233, Type (0, 0), BuildingBlock: XIVTED_clean_linker_0, # of connection points: 2
#     Edge 234, Type (0, 0), BuildingBlock: XIVTED_clean_linker_0, # of connection points: 2
#     Edge 235, Type (0, 0), BuildingBlock: XIVTED_clean_linker_0, # of connection points: 2
#     Edge 236, Type (0, 0), BuildingBlock: XIVTED_clean_linker_0, # of connection points: 2
#     Edge 237, Type (0, 0), BuildingBlock: XIVTED_clean_linker_0, # of connection points: 2
#     Edge 238, Type (0, 0), BuildingBlock: XIVTED_clean_linker_0, # of connection points: 2
#     Edge 239, Type (0, 0), BuildingBlock: XIVTED_clean_linker_0, # of connection points: 2
#     Edge 240, Type (0, 0), BuildingBlock: XIVTED_clean_linker_0, # of connection points: 2
#     Edge 241, Type (0, 0), BuildingBlock: XIVTED_clean_linker_0, # of connection points: 2
#     Edge 242, Type (0, 0), BuildingBlock: XIVTED_clean_linker_0, # of connection points: 2
#     Edge 243, Type (0, 0), BuildingBlock: XIVTED_clean_linker_0, # of connection points: 2
#     Edge 244, Type (0, 0), BuildingBlock: XIVTED_clean_linker_0, # of connection points: 2
#     Edge 245, Type (0, 0), BuildingBlock: XIVTED_clean_linker_0, # of connection points: 2
#     Edge 246, Type (0, 0), BuildingBlock: XIVTED_clean_linker_0, # of connection points: 2
#     Edge 247, Type (0, 0), BuildingBlock: XIVTED_clean_linker_0, # of connection points: 2
#     Edge 248, Type (0, 0), BuildingBlock: XIVTED_clean_linker_0, # of connection points: 2
#     Edge 249, Type (0, 0), BuildingBlock: XIVTED_clean_linker_0, # of connection points: 2
#     Edge 250, Type (0, 0), BuildingBlock: XIVTED_clean_linker_0, # of connection points: 2
#     Edge 251, Type (0, 0), BuildingBlock: XIVTED_clean_linker_0, # of connection points: 2
#     Edge 252, Type (0, 0), BuildingBlock: XIVTED_clean_linker_0, # of connection points: 2
#     Edge 253, Type (0, 0), BuildingBlock: XIVTED_clean_linker_0, # of connection points: 2
#     Edge 254, Type (0, 0), BuildingBlock: XIVTED_clean_linker_0, # of connection points: 2
#     Edge 255, Type (0, 0), BuildingBlock: XIVTED_clean_linker_0, # of connection points: 2
#     Edge 256, Type (0, 0), BuildingBlock: XIVTED_clean_linker_0, # of connection points: 2
#     Edge 257, Type (0, 0), BuildingBlock: XIVTED_clean_linker_0, # of connection points: 2
#     Edge 258, Type (0, 0), BuildingBlock: XIVTED_clean_linker_0, # of connection points: 2
#     Edge 259, Type (0, 0), BuildingBlock: XIVTED_clean_linker_0, # of connection points: 2
#     Edge 260, Type (0, 0), BuildingBlock: XIVTED_clean_linker_0, # of connection points: 2
#     Edge 261, Type (0, 0), BuildingBlock: XIVTED_clean_linker_0, # of connection points: 2
#     Edge 262, Type (0, 0), BuildingBlock: XIVTED_clean_linker_0, # of connection points: 2
#     Edge 263, Type (0, 0), BuildingBlock: XIVTED_clean_linker_0, # of connection points: 2
#     Edge 264, Type (0, 0), BuildingBlock: XIVTED_clean_linker_0, # of connection points: 2
#     Edge 265, Type (0, 0), BuildingBlock: XIVTED_clean_linker_0, # of connection points: 2
#     Edge 266, Type (0, 0), BuildingBlock: XIVTED_clean_linker_0, # of connection points: 2
#     Edge 267, Type (0, 0), BuildingBlock: XIVTED_clean_linker_0, # of connection points: 2
#     Edge 268, Type (0, 0), BuildingBlock: XIVTED_clean_linker_0, # of connection points: 2
#     Edge 269, Type (0, 0), BuildingBlock: XIVTED_clean_linker_0, # of connection points: 2
#     Edge 270, Type (0, 0), BuildingBlock: XIVTED_clean_linker_0, # of connection points: 2
#     Edge 271, Type (0, 0), BuildingBlock: XIVTED_clean_linker_0, # of connection points: 2
#     Edge 272, Type (0, 0), BuildingBlock: XIVTED_clean_linker_0, # of connection points: 2
#     Edge 273, Type (0, 0), BuildingBlock: XIVTED_clean_linker_0, # of connection points: 2
#     Edge 274, Type (0, 0), BuildingBlock: XIVTED_clean_linker_0, # of connection points: 2
#     Edge 275, Type (0, 0), BuildingBlock: XIVTED_clean_linker_0, # of connection points: 2
#     Edge 276, Type (0, 0), BuildingBlock: XIVTED_clean_linker_0, # of connection points: 2
#     Edge 277, Type (0, 0), BuildingBlock: XIVTED_clean_linker_0, # of connection points: 2
#     Edge 278, Type (0, 0), BuildingBlock: XIVTED_clean_linker_0, # of connection points: 2
#     Edge 279, Type (0, 0), BuildingBlock: XIVTED_clean_linker_0, # of connection points: 2
#     Edge 280, Type (0, 0), BuildingBlock: XIVTED_clean_linker_0, # of connection points: 2
#     Edge 281, Type (0, 0), BuildingBlock: XIVTED_clean_linker_0, # of connection points: 2
#     Edge 282, Type (0, 0), BuildingBlock: XIVTED_clean_linker_0, # of connection points: 2
#     Edge 283, Type (0, 0), BuildingBlock: XIVTED_clean_linker_0, # of connection points: 2
#     Edge 284, Type (0, 0), BuildingBlock: XIVTED_clean_linker_0, # of connection points: 2
#     Edge 285, Type (0, 0), BuildingBlock: XIVTED_clean_linker_0, # of connection points: 2
#     Edge 286, Type (0, 0), BuildingBlock: XIVTED_clean_linker_0, # of connection points: 2
#     Edge 287, Type (0, 0), BuildingBlock: XIVTED_clean_linker_0, # of connection points: 2
# Relax obj value: 0.145
# Max RMSD: 0.099
# Mean RMSD: 0.099
data_MOF--net-kfi--node1-GALJAG_clean_sbu_0--edge1-XIVTED_clean_linker_0
_symmetry_space_group_name_H-M    P1
_symmetry_Int_Tables_number       1
_symmetry_cell_setting            triclinic
loop_
_symmetry_equiv_pos_as_xyz
'x, y, z'
_cell_length_a     90.591106
_cell_length_b     90.588755
_cell_length_c     90.590135
_cell_angle_alpha  89.996074
_cell_angle_beta   89.985764
_cell_angle_gamma 90.000662
loop_
_atom_site_label
_atom_site_type_symbol
_atom_site_fract_x
_atom_site_fract_y
_atom_site_fract_z
_atom_type_partial_charge
In0 In 0.07876 0.19695 0.31847 0.0
O1 O 0.09092 0.17838 0.30674 0.0
O2 O 0.08917 0.17721 0.3301 0.0
C3 C 0.07518 0.21506 0.2951 0.0
C4 C 0.09572 0.21402 0.33597 0.0
C5 C 0.05079 0.18847 0.32389 0.0
O6 O 0.08304 0.20358 0.29455 0.0
O7 O 0.06905 0.21734 0.30739 0.0
O8 O 0.05775 0.19712 0.33228 0.0
O9 O 0.058 0.18394 0.31289 0.0
C10 C 0.09396 0.1714 0.31839 0.0
O11 O 0.08345 0.20891 0.34016 0.0
O12 O 0.09942 0.21044 0.32305 0.0
In13 In 0.79644 0.07934 0.31681 0.0
O14 O 0.78383 0.08307 0.33833 0.0
O15 O 0.78323 0.10001 0.32212 0.0
C16 C 0.80569 0.05151 0.32171 0.0
C17 C 0.82181 0.09485 0.31678 0.0
C18 C 0.77798 0.0759 0.2937 0.0
O19 O 0.79761 0.05842 0.33071 0.0
O20 O 0.80925 0.05872 0.31034 0.0
O21 O 0.78929 0.08399 0.2931 0.0
O22 O 0.77606 0.06946 0.30589 0.0
C23 C 0.77911 0.09566 0.33468 0.0
O24 O 0.81479 0.0919 0.30513 0.0
O25 O 0.81612 0.08984 0.32845 0.0
In26 In 0.9158 0.79603 0.31664 0.0
O27 O 0.90409 0.81462 0.30444 0.0
O28 O 0.90557 0.81614 0.32779 0.0
C29 C 0.91933 0.77733 0.29373 0.0
C30 C 0.89875 0.77938 0.33448 0.0
C31 C 0.94388 0.80426 0.32194 0.0
O32 O 0.9112 0.78861 0.293 0.0
O33 O 0.92572 0.77554 0.30596 0.0
O34 O 0.93664 0.79621 0.33069 0.0
O35 O 0.93685 0.80839 0.31065 0.0
C36 C 0.90102 0.82184 0.31593 0.0
O37 O 0.91115 0.7843 0.33847 0.0
O38 O 0.89494 0.78295 0.32159 0.0
In39 In 0.19668 0.91419 0.31567 0.0
O40 O 0.20953 0.9101 0.33694 0.0
O41 O 0.20981 0.89334 0.32053 0.0
C42 C 0.18757 0.94186 0.32167 0.0
C43 C 0.17124 0.89878 0.31508 0.0
C44 C 0.21515 0.91807 0.29263 0.0
O45 O 0.19534 0.93444 0.33052 0.0
O46 O 0.18423 0.93524 0.30989 0.0
O47 O 0.20396 0.90981 0.29196 0.0
O48 O 0.21694 0.92446 0.30486 0.0
C49 C 0.21412 0.89752 0.33309 0.0
O50 O 0.17797 0.90264 0.30353 0.0
O51 O 0.17724 0.90287 0.32696 0.0
In52 In 0.07791 0.7952 0.67716 0.0
O53 O 0.08232 0.78316 0.65544 0.0
O54 O 0.09865 0.78193 0.67222 0.0
C55 C 0.05003 0.80401 0.67176 0.0
C56 C 0.09336 0.82062 0.67777 0.0
C57 C 0.07401 0.77651 0.70002 0.0
O58 O 0.05724 0.79607 0.6629 0.0
O59 O 0.05697 0.80772 0.68324 0.0
O60 O 0.08194 0.78792 0.70094 0.0
O61 O 0.06797 0.7746 0.68763 0.0
C62 C 0.09472 0.77823 0.65939 0.0
O63 O 0.09042 0.81333 0.68926 0.0
O64 O 0.0883 0.81522 0.66598 0.0
In65 In 0.19689 0.07726 0.67764 0.0
O66 O 0.17921 0.09033 0.68979 0.0
O67 O 0.17709 0.08809 0.66654 0.0
C68 C 0.21544 0.07266 0.70048 0.0
C69 C 0.21414 0.09392 0.66001 0.0
C70 C 0.1873 0.04966 0.67213 0.0
O71 O 0.20397 0.08048 0.7016 0.0
O72 O 0.21747 0.06708 0.68789 0.0
O73 O 0.19573 0.05654 0.66344 0.0
O74 O 0.18354 0.05678 0.68348 0.0
C75 C 0.17189 0.09333 0.67834 0.0
O76 O 0.20886 0.0817 0.6559 0.0
O77 O 0.21063 0.09774 0.67293 0.0
In78 In 0.91499 0.1973 0.67622 0.0
O79 O 0.90266 0.17924 0.68858 0.0
O80 O 0.90447 0.17721 0.66529 0.0
C81 C 0.91891 0.21611 0.69898 0.0
C82 C 0.8981 0.21417 0.65844 0.0
C83 C 0.94277 0.18826 0.6707 0.0
O84 O 0.91113 0.20461 0.70001 0.0
O85 O 0.9248 0.21807 0.68652 0.0
O86 O 0.93553 0.19609 0.66176 0.0
O87 O 0.93593 0.18483 0.68233 0.0
C88 C 0.89961 0.17186 0.67719 0.0
O89 O 0.91062 0.20944 0.65457 0.0
O90 O 0.89409 0.2103 0.67119 0.0
In91 In 0.79646 0.91483 0.67614 0.0
O92 O 0.78376 0.91054 0.65478 0.0
O93 O 0.78333 0.89399 0.67141 0.0
C94 C 0.80542 0.94265 0.6707 0.0
C95 C 0.82195 0.89954 0.67619 0.0
C96 C 0.77819 0.91849 0.69936 0.0
O97 O 0.79713 0.93563 0.662 0.0
O98 O 0.80934 0.93557 0.68202 0.0
O99 O 0.78953 0.91044 0.69995 0.0
O100 O 0.77616 0.9248 0.68713 0.0
C101 C 0.77911 0.89802 0.65878 0.0
O102 O 0.81512 0.90282 0.68787 0.0
O103 O 0.81602 0.90413 0.66446 0.0
In104 In 0.31561 0.07997 0.1971 0.0
O105 O 0.30349 0.09222 0.17881 0.0
O106 O 0.32681 0.09038 0.17714 0.0
C107 C 0.29281 0.07577 0.21579 0.0
C108 C 0.33316 0.09708 0.21396 0.0
C109 C 0.32126 0.05218 0.18821 0.0
O110 O 0.29181 0.08379 0.20444 0.0
O111 O 0.30524 0.0698 0.21761 0.0
O112 O 0.32987 0.05928 0.19652 0.0
O113 O 0.3099 0.05916 0.18422 0.0
C114 C 0.31501 0.09522 0.17159 0.0
O115 O 0.33731 0.08475 0.20899 0.0
O116 O 0.32024 0.10078 0.21035 0.0
In117 In 0.9154 0.31706 0.19659 0.0
O118 O 0.90299 0.30508 0.17834 0.0
O119 O 0.90524 0.32837 0.17656 0.0
C120 C 0.91919 0.29424 0.21534 0.0
C121 C 0.89842 0.33472 0.21349 0.0
C122 C 0.94326 0.32217 0.18759 0.0
O123 O 0.91128 0.29331 0.20392 0.0
O124 O 0.92528 0.30662 0.21721 0.0
O125 O 0.93627 0.33108 0.19569 0.0
O126 O 0.93613 0.31081 0.18388 0.0
C127 C 0.9002 0.31661 0.17105 0.0
O128 O 0.91096 0.33866 0.20886 0.0
O129 O 0.89447 0.32199 0.20948 0.0
In130 In 0.67857 0.91444 0.19706 0.0
O131 O 0.69037 0.90263 0.1783 0.0
O132 O 0.66699 0.9042 0.17723 0.0
C133 C 0.70163 0.91773 0.21562 0.0
C134 C 0.66087 0.8974 0.21386 0.0
C135 C 0.67317 0.94237 0.18843 0.0
O136 O 0.70232 0.90988 0.20413 0.0
O137 O 0.68937 0.92399 0.21766 0.0
O138 O 0.66436 0.93517 0.19645 0.0
O139 O 0.68462 0.93541 0.18462 0.0
C140 C 0.67872 0.89958 0.17132 0.0
O141 O 0.65717 0.91016 0.20968 0.0
O142 O 0.67343 0.89325 0.20951 0.0
In143 In 0.07828 0.67282 0.19568 0.0
O144 O 0.09309 0.68642 0.18053 0.0
O145 O 0.08764 0.66462 0.17384 0.0
C146 C 0.07681 0.69791 0.21157 0.0
C147 C 0.09158 0.65296 0.21369 0.0
C148 C 0.05053 0.66601 0.1874 0.0
O149 O 0.0888 0.6931 0.2063 0.0
O150 O 0.0656 0.69018 0.20863 0.0
O151 O 0.05764 0.65845 0.19668 0.0
O152 O 0.05752 0.67683 0.18214 0.0
C153 C 0.09451 0.67638 0.17099 0.0
O154 O 0.09242 0.65224 0.19984 0.0
O155 O 0.08394 0.66354 0.21844 0.0
In156 In 0.31717 0.91435 0.79618 0.0
O157 O 0.30482 0.89998 0.81268 0.0
O158 O 0.32727 0.90496 0.81725 0.0
C159 C 0.29435 0.91926 0.77772 0.0
C160 C 0.33494 0.89704 0.77968 0.0
C161 C 0.32295 0.94221 0.80481 0.0
O162 O 0.29288 0.91261 0.78987 0.0
O163 O 0.3073 0.92356 0.77495 0.0
O164 O 0.33133 0.93511 0.79626 0.0
O165 O 0.31175 0.93519 0.80917 0.0
C166 C 0.31567 0.89836 0.82122 0.0
O167 O 0.33948 0.90872 0.78576 0.0
O168 O 0.32155 0.8941 0.78201 0.0
In169 In 0.07884 0.31612 0.79646 0.0
O170 O 0.08325 0.33757 0.78395 0.0
O171 O 0.09981 0.32096 0.78355 0.0
C172 C 0.051 0.32139 0.80541 0.0
C173 C 0.09413 0.31611 0.82195 0.0
C174 C 0.07501 0.293 0.7781 0.0
O175 O 0.058 0.33015 0.79716 0.0
O176 O 0.05811 0.31007 0.80928 0.0
O177 O 0.08261 0.29213 0.78974 0.0
O178 O 0.06926 0.30547 0.77581 0.0
C179 C 0.09582 0.33364 0.77942 0.0
O180 O 0.09161 0.30449 0.81469 0.0
O181 O 0.08879 0.32772 0.81643 0.0
In182 In 0.67731 0.07911 0.79675 0.0
O183 O 0.6556 0.0834 0.78467 0.0
O184 O 0.67217 0.09998 0.78378 0.0
C185 C 0.67218 0.05123 0.80569 0.0
C186 C 0.6777 0.09458 0.82213 0.0
C187 C 0.70023 0.07535 0.77809 0.0
O188 O 0.66332 0.05825 0.79758 0.0
O189 O 0.68354 0.05834 0.80945 0.0
O190 O 0.70127 0.08274 0.78985 0.0
O191 O 0.68768 0.06977 0.77582 0.0
C192 C 0.65941 0.09594 0.77996 0.0
O193 O 0.68918 0.09213 0.81464 0.0
O194 O 0.66603 0.08907 0.81692 0.0
In195 In 0.91538 0.67535 0.79737 0.0
O196 O 0.91188 0.66308 0.77557 0.0
O197 O 0.89852 0.65695 0.79374 0.0
C198 C 0.94301 0.66854 0.80594 0.0
C199 C 0.90042 0.67902 0.82275 0.0
C200 C 0.9159 0.6999 0.78052 0.0
O201 O 0.93569 0.66046 0.79728 0.0
O202 O 0.93633 0.6799 0.81038 0.0
O203 O 0.90413 0.6949 0.78606 0.0
O204 O 0.92736 0.69264 0.78367 0.0
C205 C 0.90169 0.65494 0.78037 0.0
O206 O 0.90153 0.68913 0.81322 0.0
O207 O 0.90699 0.66717 0.81953 0.0
In208 In 0.19844 0.31752 0.0795 0.0
O209 O 0.21055 0.3392 0.08384 0.0
O210 O 0.21186 0.32241 0.10016 0.0
C211 C 0.18879 0.32316 0.05196 0.0
C212 C 0.17329 0.31669 0.09535 0.0
C213 C 0.217 0.29469 0.0749 0.0
O214 O 0.19719 0.33184 0.05888 0.0
O215 O 0.18513 0.31173 0.059 0.0
O216 O 0.20562 0.29362 0.08285 0.0
O217 O 0.21895 0.30723 0.06919 0.0
C218 C 0.21557 0.33523 0.09621 0.0
O219 O 0.18074 0.30529 0.09246 0.0
O220 O 0.17846 0.32852 0.09013 0.0
In221 In 0.19776 0.67946 0.91307 0.0
O222 O 0.21069 0.65806 0.90959 0.0
O223 O 0.21147 0.6743 0.8927 0.0
C224 C 0.18971 0.67405 0.94116 0.0
C225 C 0.17182 0.67863 0.89853 0.0
C226 C 0.21527 0.70347 0.91532 0.0
O227 O 0.19813 0.66558 0.93399 0.0
O228 O 0.1852 0.68517 0.93409 0.0
O229 O 0.20531 0.70234 0.90566 0.0
O230 O 0.2163 0.69258 0.92392 0.0
C231 C 0.21559 0.66176 0.89709 0.0
O232 O 0.17781 0.69055 0.90249 0.0
O233 O 0.17879 0.66713 0.90211 0.0
In234 In 0.3159 0.19896 0.9138 0.0
O235 O 0.30347 0.1818 0.90029 0.0
O236 O 0.32646 0.17852 0.90362 0.0
C237 C 0.29329 0.21766 0.91885 0.0
C238 C 0.33344 0.21563 0.89647 0.0
C239 C 0.32181 0.1898 0.94146 0.0
O240 O 0.29174 0.20579 0.91174 0.0
O241 O 0.30619 0.22003 0.9235 0.0
O242 O 0.33025 0.19835 0.93442 0.0
O243 O 0.31051 0.1857 0.93446 0.0
C244 C 0.31466 0.17389 0.89785 0.0
O245 O 0.33782 0.21024 0.90855 0.0
O246 O 0.32029 0.21253 0.89314 0.0
In247 In 0.79553 0.3179 0.91436 0.0
O248 O 0.78357 0.33967 0.91 0.0
O249 O 0.78244 0.32298 0.89355 0.0
C250 C 0.80463 0.323 0.9422 0.0
C251 C 0.8209 0.31725 0.89886 0.0
C252 C 0.77697 0.29494 0.91828 0.0
O253 O 0.79631 0.33179 0.93532 0.0
O254 O 0.8085 0.31176 0.93497 0.0
O255 O 0.78865 0.29396 0.91076 0.0
O256 O 0.77471 0.30747 0.92391 0.0
C257 C 0.77872 0.33579 0.89753 0.0
O258 O 0.81332 0.30585 0.9014 0.0
O259 O 0.81575 0.32901 0.90427 0.0
In260 In 0.67635 0.79695 0.91454 0.0
O261 O 0.65497 0.7844 0.91007 0.0
O262 O 0.67142 0.78442 0.89334 0.0
C263 C 0.67075 0.80562 0.94242 0.0
C264 C 0.6769 0.8225 0.89935 0.0
C265 C 0.69929 0.77837 0.91842 0.0
O266 O 0.66183 0.79789 0.93505 0.0
O267 O 0.68239 0.80915 0.93565 0.0
O268 O 0.70041 0.79027 0.91129 0.0
O269 O 0.68664 0.7759 0.92368 0.0
C270 C 0.65881 0.78012 0.89739 0.0
O271 O 0.68834 0.81499 0.90186 0.0
O272 O 0.66516 0.81722 0.90466 0.0
In273 In 0.79626 0.67697 0.0792 0.0
O274 O 0.81564 0.66541 0.0903 0.0
O275 O 0.81483 0.68883 0.0913 0.0
C276 C 0.77785 0.70004 0.07528 0.0
C277 C 0.77875 0.65939 0.09562 0.0
C278 C 0.80545 0.6715 0.05148 0.0
O279 O 0.78887 0.70062 0.08377 0.0
O280 O 0.77621 0.68789 0.06869 0.0
O281 O 0.79729 0.6627 0.05854 0.0
O282 O 0.80915 0.68294 0.05849 0.0
C283 C 0.82156 0.67717 0.09482 0.0
O284 O 0.78389 0.65539 0.08331 0.0
O285 O 0.78252 0.67217 0.09965 0.0
In286 In 0.31856 0.79703 0.07927 0.0
O287 O 0.30619 0.81553 0.09091 0.0
O288 O 0.32956 0.8171 0.08973 0.0
C289 C 0.29553 0.77857 0.0752 0.0
C290 C 0.33579 0.78041 0.09693 0.0
C291 C 0.32506 0.80518 0.05142 0.0
O292 O 0.29449 0.79034 0.08256 0.0
O293 O 0.30813 0.77618 0.06979 0.0
O294 O 0.3333 0.79685 0.05891 0.0
O295 O 0.31362 0.80955 0.05803 0.0
C296 C 0.31763 0.82275 0.09416 0.0
O297 O 0.34015 0.78525 0.08462 0.0
O298 O 0.32281 0.78406 0.10037 0.0
In299 In 0.67679 0.19717 0.07913 0.0
O300 O 0.6554 0.20989 0.08304 0.0
O301 O 0.67145 0.20988 0.10014 0.0
C302 C 0.67126 0.18837 0.05127 0.0
C303 C 0.6773 0.17151 0.09419 0.0
C304 C 0.69986 0.21572 0.07578 0.0
O305 O 0.66227 0.19601 0.05865 0.0
O306 O 0.68296 0.18501 0.05801 0.0
O307 O 0.70046 0.20438 0.08384 0.0
O308 O 0.68768 0.21765 0.06934 0.0
C309 C 0.65896 0.21423 0.09578 0.0
O310 O 0.68885 0.17853 0.0909 0.0
O311 O 0.66547 0.17733 0.08973 0.0
In312 In 0.91317 0.79526 0.67844 0.0
O313 O 0.90257 0.81499 0.68984 0.0
O314 O 0.90219 0.81442 0.6664 0.0
C315 C 0.91569 0.77757 0.70229 0.0
C316 C 0.89703 0.77765 0.66066 0.0
C317 C 0.94113 0.80368 0.67299 0.0
O318 O 0.90595 0.78746 0.70129 0.0
O319 O 0.92424 0.7767 0.69134 0.0
O320 O 0.93415 0.79501 0.66461 0.0
O321 O 0.93395 0.80822 0.68402 0.0
C322 C 0.89863 0.8212 0.67802 0.0
O323 O 0.90961 0.7824 0.65699 0.0
O324 O 0.89266 0.78183 0.67319 0.0
In325 In 0.19684 0.91354 0.67807 0.0
O326 O 0.20946 0.90929 0.65668 0.0
O327 O 0.21013 0.89275 0.6733 0.0
C328 C 0.18741 0.94114 0.67227 0.0
C329 C 0.17167 0.8977 0.67877 0.0
C330 C 0.21543 0.91813 0.70088 0.0
O331 O 0.19519 0.93384 0.66333 0.0
O332 O 0.18421 0.93443 0.68404 0.0
O333 O 0.20381 0.91056 0.7021 0.0
O334 O 0.2176 0.92347 0.68821 0.0
C335 C 0.21423 0.89682 0.66064 0.0
O336 O 0.17903 0.90062 0.69021 0.0
O337 O 0.17692 0.9029 0.66697 0.0
In338 In 0.07919 0.19692 0.67683 0.0
O339 O 0.09189 0.17891 0.68885 0.0
O340 O 0.08961 0.17698 0.66559 0.0
C341 C 0.07492 0.21543 0.69977 0.0
C342 C 0.09617 0.214 0.65934 0.0
C343 C 0.05145 0.18781 0.67127 0.0
O344 O 0.08274 0.20395 0.70076 0.0
O345 O 0.06917 0.21749 0.68727 0.0
O346 O 0.05848 0.19615 0.66261 0.0
O347 O 0.05849 0.18391 0.68262 0.0
C348 C 0.09476 0.1716 0.67736 0.0
O349 O 0.08383 0.20905 0.6552 0.0
O350 O 0.09994 0.21025 0.6722 0.0
In351 In 0.79632 0.07921 0.67666 0.0
O352 O 0.78381 0.0838 0.65528 0.0
O353 O 0.78376 0.1004 0.67184 0.0
C354 C 0.80512 0.05139 0.67096 0.0
C355 C 0.8219 0.09435 0.67717 0.0
C356 C 0.77764 0.07515 0.69951 0.0
O357 O 0.79731 0.05875 0.66209 0.0
O358 O 0.80864 0.05814 0.68262 0.0
O359 O 0.78933 0.08263 0.70063 0.0
O360 O 0.77545 0.06963 0.68692 0.0
C361 C 0.7795 0.09645 0.6592 0.0
O362 O 0.81447 0.09177 0.68866 0.0
O363 O 0.81652 0.08914 0.66544 0.0
In364 In 0.91419 0.19842 0.317 0.0
O365 O 0.90248 0.17975 0.30496 0.0
O366 O 0.90348 0.17867 0.32836 0.0
C367 C 0.91795 0.21674 0.29381 0.0
C368 C 0.89717 0.21545 0.33449 0.0
C369 C 0.942 0.18974 0.32296 0.0
O370 O 0.90998 0.20535 0.29316 0.0
O371 O 0.9241 0.21884 0.30611 0.0
O372 O 0.93468 0.19787 0.33155 0.0
O373 O 0.93523 0.18583 0.31144 0.0
C374 C 0.89909 0.1728 0.31653 0.0
O375 O 0.9097 0.21085 0.33844 0.0
O376 O 0.89321 0.2114 0.32177 0.0
In377 In 0.79818 0.91477 0.31676 0.0
O378 O 0.81663 0.90259 0.3048 0.0
O379 O 0.81828 0.90475 0.3281 0.0
C380 C 0.77938 0.9182 0.29392 0.0
C381 C 0.78124 0.89792 0.33451 0.0
C382 C 0.80693 0.9427 0.32197 0.0
O383 O 0.79084 0.91034 0.29305 0.0
O384 O 0.77749 0.9244 0.30623 0.0
O385 O 0.79958 0.9353 0.3312 0.0
O386 O 0.81005 0.93592 0.31022 0.0
C387 C 0.82389 0.89981 0.31635 0.0
O388 O 0.78531 0.91076 0.33807 0.0
O389 O 0.78581 0.89359 0.3221 0.0
In390 In 0.08069 0.79376 0.31275 0.0
O391 O 0.08449 0.78085 0.3341 0.0
O392 O 0.1011 0.77998 0.31759 0.0
C393 C 0.05276 0.80201 0.31861 0.0
C394 C 0.09528 0.81966 0.31364 0.0
C395 C 0.07799 0.77658 0.28854 0.0
O396 O 0.05973 0.79294 0.32655 0.0
O397 O 0.05992 0.807 0.30775 0.0
O398 O 0.08767 0.78651 0.28964 0.0
O399 O 0.06958 0.7754 0.29957 0.0
C400 C 0.09691 0.7759 0.33021 0.0
O401 O 0.09143 0.81363 0.3017 0.0
O402 O 0.09162 0.81271 0.32513 0.0
In403 In 0.19693 0.07836 0.31743 0.0
O404 O 0.17836 0.09048 0.30568 0.0
O405 O 0.17736 0.0891 0.32908 0.0
C406 C 0.21517 0.07499 0.29412 0.0
C407 C 0.21418 0.09487 0.33519 0.0
C408 C 0.18787 0.05051 0.3226 0.0
O409 O 0.20385 0.08308 0.29369 0.0
O410 O 0.21723 0.06851 0.30627 0.0
O411 O 0.19628 0.05739 0.3313 0.0
O412 O 0.1839 0.05775 0.31139 0.0
C413 C 0.17148 0.09374 0.31734 0.0
O414 O 0.20938 0.08235 0.33899 0.0
O415 O 0.21018 0.09905 0.32253 0.0
In416 In 0.67697 0.91471 0.79575 0.0
O417 O 0.68916 0.90257 0.81404 0.0
O418 O 0.66585 0.90444 0.81585 0.0
C419 C 0.69977 0.91836 0.77693 0.0
C420 C 0.65902 0.89795 0.77893 0.0
C421 C 0.67171 0.9425 0.80488 0.0
O422 O 0.7006 0.91027 0.78823 0.0
O423 O 0.68749 0.92466 0.77517 0.0
O424 O 0.66256 0.93526 0.79729 0.0
O425 O 0.68342 0.93566 0.80801 0.0
C426 C 0.6777 0.89963 0.82136 0.0
O427 O 0.65551 0.91076 0.78312 0.0
O428 O 0.67151 0.89361 0.78328 0.0
In429 In 0.07914 0.67469 0.79544 0.0
O430 O 0.09055 0.68667 0.81433 0.0
O431 O 0.0905 0.66322 0.81475 0.0
C432 C 0.07496 0.69816 0.77757 0.0
C433 C 0.09609 0.65764 0.77791 0.0
C434 C 0.05149 0.66816 0.80419 0.0
O435 O 0.08335 0.69858 0.78867 0.0
O436 O 0.06858 0.68595 0.77556 0.0
O437 O 0.05866 0.66011 0.79539 0.0
O438 O 0.05832 0.67942 0.80869 0.0
C439 C 0.09444 0.67505 0.82093 0.0
O440 O 0.084 0.65321 0.78321 0.0
O441 O 0.09967 0.67059 0.78155 0.0
In442 In 0.31651 0.0787 0.7963 0.0
O443 O 0.33856 0.08387 0.78519 0.0
O444 O 0.32081 0.09881 0.78186 0.0
C445 C 0.32238 0.05097 0.80533 0.0
C446 C 0.31554 0.09509 0.82111 0.0
C447 C 0.29341 0.07371 0.77819 0.0
O448 O 0.33059 0.05789 0.79648 0.0
O449 O 0.31132 0.05812 0.80982 0.0
O450 O 0.29219 0.08075 0.79014 0.0
O451 O 0.30625 0.06908 0.77545 0.0
C452 C 0.33407 0.09558 0.77916 0.0
O453 O 0.30435 0.09276 0.81318 0.0
O454 O 0.32723 0.08898 0.81664 0.0
In455 In 0.91448 0.3163 0.79635 0.0
O456 O 0.90186 0.30422 0.8144 0.0
O457 O 0.9042 0.32746 0.81643 0.0
C458 C 0.91828 0.29348 0.77759 0.0
C459 C 0.89769 0.33415 0.77948 0.0
C460 C 0.94229 0.32172 0.80536 0.0
O461 O 0.91075 0.29243 0.78926 0.0
O462 O 0.92397 0.306 0.77545 0.0
O463 O 0.93501 0.33074 0.79766 0.0
O464 O 0.93546 0.31005 0.80869 0.0
C465 C 0.89906 0.31568 0.82177 0.0
O466 O 0.91036 0.33782 0.78393 0.0
O467 O 0.89348 0.32154 0.78361 0.0
In468 In 0.67644 0.07911 0.19762 0.0
O469 O 0.65491 0.08314 0.21012 0.0
O470 O 0.67114 0.10008 0.21036 0.0
C471 C 0.67138 0.05119 0.18878 0.0
C472 C 0.67676 0.09415 0.17197 0.0
C473 C 0.69937 0.07564 0.2163 0.0
O474 O 0.66231 0.05835 0.19655 0.0
O475 O 0.68289 0.0582 0.1853 0.0
O476 O 0.70011 0.08368 0.20496 0.0
O477 O 0.68712 0.0693 0.21816 0.0
C478 C 0.65856 0.09584 0.21454 0.0
O479 O 0.68833 0.09136 0.17918 0.0
O480 O 0.66503 0.08921 0.1776 0.0
In481 In 0.91436 0.67569 0.19821 0.0
O482 O 0.90263 0.68747 0.17937 0.0
O483 O 0.90307 0.66402 0.179 0.0
C484 C 0.91865 0.69928 0.2159 0.0
C485 C 0.89735 0.6588 0.21585 0.0
C486 C 0.94197 0.66903 0.1894 0.0
O487 O 0.91034 0.6997 0.20474 0.0
O488 O 0.92492 0.68704 0.21802 0.0
O489 O 0.93487 0.66119 0.19845 0.0
O490 O 0.93508 0.68017 0.18468 0.0
C491 C 0.89886 0.67577 0.17283 0.0
O492 O 0.90947 0.65433 0.21065 0.0
O493 O 0.89378 0.67171 0.21207 0.0
In494 In 0.31717 0.91547 0.19715 0.0
O495 O 0.30541 0.9032 0.17865 0.0
O496 O 0.32871 0.9055 0.17716 0.0
C497 C 0.29407 0.91913 0.21559 0.0
C498 C 0.33468 0.89839 0.21409 0.0
C499 C 0.32255 0.94339 0.18852 0.0
O500 O 0.29331 0.9113 0.20411 0.0
O501 O 0.30642 0.9252 0.2177 0.0
O502 O 0.33137 0.9362 0.19654 0.0
O503 O 0.31112 0.93643 0.18471 0.0
C504 C 0.31703 0.90049 0.17148 0.0
O505 O 0.33862 0.91097 0.20961 0.0
O506 O 0.32199 0.89443 0.20997 0.0
In507 In 0.07958 0.31524 0.19786 0.0
O508 O 0.08389 0.33666 0.21039 0.0
O509 O 0.10048 0.32009 0.21091 0.0
C510 C 0.05194 0.32104 0.18862 0.0
C511 C 0.09513 0.31467 0.17252 0.0
C512 C 0.07535 0.29244 0.21655 0.0
O513 O 0.05924 0.32992 0.19647 0.0
O514 O 0.05866 0.30932 0.18527 0.0
O515 O 0.08335 0.29143 0.20519 0.0
O516 O 0.06939 0.30488 0.21838 0.0
C517 C 0.09644 0.33276 0.215 0.0
O518 O 0.09201 0.30313 0.17966 0.0
O519 O 0.09023 0.32646 0.17805 0.0
In520 In 0.79705 0.67859 0.91485 0.0
O521 O 0.8142 0.69113 0.90147 0.0
O522 O 0.81831 0.66848 0.90601 0.0
C523 C 0.77776 0.70088 0.91904 0.0
C524 C 0.78135 0.6605 0.89716 0.0
C525 C 0.80567 0.6732 0.94277 0.0
O526 O 0.78984 0.70258 0.91231 0.0
O527 O 0.77548 0.68799 0.92375 0.0
O528 O 0.79773 0.66433 0.93554 0.0
O529 O 0.80937 0.6847 0.93586 0.0
C530 C 0.82268 0.6802 0.89991 0.0
O531 O 0.78586 0.65655 0.90972 0.0
O532 O 0.78483 0.67348 0.89353 0.0
In533 In 0.79674 0.3165 0.0788 0.0
O534 O 0.78416 0.33788 0.08324 0.0
O535 O 0.78419 0.32145 0.09998 0.0
C536 C 0.8054 0.32225 0.05096 0.0
C537 C 0.82248 0.31584 0.09368 0.0
C538 C 0.77796 0.29367 0.07514 0.0
O539 O 0.79777 0.33118 0.05843 0.0
O540 O 0.80883 0.31051 0.05761 0.0
O541 O 0.78932 0.29281 0.08314 0.0
O542 O 0.77615 0.30598 0.0689 0.0
C543 C 0.77987 0.33404 0.09593 0.0
O544 O 0.81536 0.30432 0.09047 0.0
O545 O 0.8167 0.3277 0.08922 0.0
In546 In 0.67649 0.79614 0.07904 0.0
O547 O 0.68838 0.81474 0.09096 0.0
O548 O 0.665 0.81591 0.08958 0.0
C549 C 0.69977 0.77789 0.07558 0.0
C550 C 0.65869 0.77902 0.09567 0.0
C551 C 0.67114 0.805 0.05117 0.0
O552 O 0.70016 0.78906 0.08387 0.0
O553 O 0.68768 0.77597 0.06896 0.0
O554 O 0.66252 0.79659 0.05814 0.0
O555 O 0.68237 0.80907 0.05832 0.0
C556 C 0.67679 0.82175 0.09414 0.0
O557 O 0.65487 0.78384 0.08318 0.0
O558 O 0.6714 0.78292 0.09978 0.0
In559 In 0.19796 0.67854 0.07831 0.0
O560 O 0.18089 0.69058 0.09228 0.0
O561 O 0.17684 0.66806 0.08709 0.0
C562 C 0.21715 0.70096 0.07438 0.0
C563 C 0.21394 0.66029 0.09558 0.0
C564 C 0.18941 0.67376 0.05024 0.0
O565 O 0.20501 0.70259 0.081 0.0
O566 O 0.21953 0.68809 0.06965 0.0
O567 O 0.19733 0.66474 0.05731 0.0
O568 O 0.18562 0.68507 0.05741 0.0
C569 C 0.1725 0.67955 0.09365 0.0
O570 O 0.20923 0.65644 0.08305 0.0
O571 O 0.21051 0.67323 0.09937 0.0
In572 In 0.31735 0.19773 0.07809 0.0
O573 O 0.33901 0.20963 0.08312 0.0
O574 O 0.32176 0.21094 0.09897 0.0
C575 C 0.3231 0.18918 0.05019 0.0
C576 C 0.31665 0.17224 0.0934 0.0
C577 C 0.29435 0.21619 0.07403 0.0
O578 O 0.3317 0.19739 0.05742 0.0
O579 O 0.31173 0.18511 0.0571 0.0
O580 O 0.29331 0.20441 0.0814 0.0
O581 O 0.30694 0.21858 0.06861 0.0
C582 C 0.33472 0.21458 0.09542 0.0
O583 O 0.30521 0.17965 0.09058 0.0
O584 O 0.32846 0.17759 0.08832 0.0
In585 In 0.19641 0.31806 0.91574 0.0
O586 O 0.1785 0.30571 0.90325 0.0
O587 O 0.17633 0.32898 0.90515 0.0
C588 C 0.21499 0.29518 0.91997 0.0
C589 C 0.2134 0.33544 0.89855 0.0
C590 C 0.18738 0.32394 0.94346 0.0
O591 O 0.20317 0.29401 0.91272 0.0
O592 O 0.21738 0.30786 0.9252 0.0
O593 O 0.19526 0.33277 0.93612 0.0
O594 O 0.18389 0.31227 0.93674 0.0
C595 C 0.17108 0.31707 0.9002 0.0
O596 O 0.2088 0.33951 0.91105 0.0
O597 O 0.20933 0.3227 0.89471 0.0
In598 In 0.67646 0.19801 0.91479 0.0
O599 O 0.68883 0.18013 0.90226 0.0
O600 O 0.66556 0.1779 0.90431 0.0
C601 C 0.69913 0.21686 0.91896 0.0
C602 C 0.65878 0.21478 0.89771 0.0
C603 C 0.67111 0.18881 0.94255 0.0
O604 O 0.70028 0.20535 0.91121 0.0
O605 O 0.68659 0.21879 0.92471 0.0
O606 O 0.66232 0.19706 0.93558 0.0
O607 O 0.68247 0.18506 0.93543 0.0
C608 C 0.67746 0.17266 0.89931 0.0
O609 O 0.65467 0.20984 0.91007 0.0
O610 O 0.67169 0.21117 0.89397 0.0
In611 In 0.31958 0.79588 0.91513 0.0
O612 O 0.30639 0.81092 0.89986 0.0
O613 O 0.32792 0.81779 0.90616 0.0
C614 C 0.29449 0.77994 0.91624 0.0
C615 C 0.33982 0.77797 0.9023 0.0
C616 C 0.32604 0.80473 0.94277 0.0
O617 O 0.29966 0.7849 0.90427 0.0
O618 O 0.30186 0.78321 0.92759 0.0
O619 O 0.33376 0.79538 0.93593 0.0
O620 O 0.31522 0.80973 0.9356 0.0
C621 C 0.3164 0.82055 0.89884 0.0
O622 O 0.33968 0.79173 0.90039 0.0
O623 O 0.3299 0.77325 0.91081 0.0
In624 In 0.57882 0.69644 0.81811 0.0
O625 O 0.59056 0.67784 0.80599 0.0
O626 O 0.5902 0.67707 0.82943 0.0
C627 C 0.57472 0.71469 0.79492 0.0
C628 C 0.59565 0.71369 0.83554 0.0
C629 C 0.55118 0.68736 0.82427 0.0
O630 O 0.5829 0.70345 0.79426 0.0
O631 O 0.56849 0.71664 0.80722 0.0
O632 O 0.55818 0.69616 0.83247 0.0
O633 O 0.55818 0.68302 0.81305 0.0
C634 C 0.59438 0.67111 0.81756 0.0
O635 O 0.58343 0.70849 0.83974 0.0
O636 O 0.5994 0.7101 0.82263 0.0
In637 In 0.29498 0.5799 0.81529 0.0
O638 O 0.28311 0.58476 0.83702 0.0
O639 O 0.28347 0.60157 0.82068 0.0
C640 C 0.30327 0.55188 0.82071 0.0
C641 C 0.32095 0.59427 0.81382 0.0
C642 C 0.27575 0.57622 0.79285 0.0
O643 O 0.29591 0.55941 0.82982 0.0
O644 O 0.30656 0.55855 0.80893 0.0
O645 O 0.28776 0.58311 0.79139 0.0
O646 O 0.27348 0.57111 0.8056 0.0
C647 C 0.27931 0.59765 0.83337 0.0
O648 O 0.31261 0.59269 0.8028 0.0
O649 O 0.31626 0.58848 0.82559 0.0
In650 In 0.41409 0.2966 0.81502 0.0
O651 O 0.4021 0.3152 0.80313 0.0
O652 O 0.40397 0.31656 0.82647 0.0
C653 C 0.41727 0.27772 0.7922 0.0
C654 C 0.3973 0.27987 0.833 0.0
C655 C 0.44199 0.30548 0.82009 0.0
O656 O 0.40931 0.28912 0.79142 0.0
O657 O 0.4237 0.27594 0.80441 0.0
O658 O 0.43481 0.29776 0.82919 0.0
O659 O 0.43504 0.30885 0.80851 0.0
C660 C 0.3992 0.32233 0.81474 0.0
O661 O 0.41019 0.28389 0.83643 0.0
O662 O 0.3929 0.28435 0.82059 0.0
In663 In 0.6969 0.41571 0.81616 0.0
O664 O 0.70887 0.41101 0.83785 0.0
O665 O 0.70985 0.39475 0.82098 0.0
C666 C 0.68872 0.44379 0.82154 0.0
C667 C 0.67113 0.40088 0.81578 0.0
C668 C 0.71541 0.41905 0.79305 0.0
O669 O 0.69697 0.43661 0.83014 0.0
O670 O 0.68439 0.43672 0.81036 0.0
O671 O 0.70394 0.41119 0.79238 0.0
O672 O 0.71747 0.4253 0.80532 0.0
C673 C 0.71363 0.39855 0.83382 0.0
O674 O 0.67819 0.40399 0.8042 0.0
O675 O 0.67695 0.40543 0.82757 0.0
In676 In 0.57878 0.29661 0.17633 0.0
O677 O 0.59144 0.31473 0.18818 0.0
O678 O 0.5889 0.31664 0.16494 0.0
C679 C 0.57492 0.27817 0.19938 0.0
C680 C 0.59591 0.27971 0.15881 0.0
C681 C 0.55088 0.30545 0.17108 0.0
O682 O 0.58244 0.28985 0.2003 0.0
O683 O 0.56925 0.27586 0.18688 0.0
O684 O 0.55784 0.29707 0.16239 0.0
O685 O 0.55807 0.3095 0.18228 0.0
C686 C 0.59412 0.32206 0.17665 0.0
O687 O 0.5835 0.28451 0.15469 0.0
O688 O 0.59966 0.28351 0.17166 0.0
In689 In 0.69726 0.57916 0.17691 0.0
O690 O 0.70985 0.58356 0.15553 0.0
O691 O 0.70899 0.60069 0.17152 0.0
C692 C 0.68894 0.55112 0.17164 0.0
C693 C 0.67137 0.59374 0.17743 0.0
C694 C 0.71608 0.57603 0.19979 0.0
O695 O 0.69643 0.55854 0.16255 0.0
O696 O 0.68552 0.5579 0.18331 0.0
O697 O 0.70415 0.58313 0.20081 0.0
O698 O 0.71846 0.57042 0.18727 0.0
C699 C 0.71356 0.59651 0.15906 0.0
O700 O 0.6789 0.5914 0.18889 0.0
O701 O 0.67679 0.58855 0.1657 0.0
In702 In 0.4148 0.69705 0.1775 0.0
O703 O 0.40269 0.67857 0.18948 0.0
O704 O 0.40414 0.67735 0.16611 0.0
C705 C 0.41866 0.71577 0.20034 0.0
C706 C 0.39825 0.71435 0.15985 0.0
C707 C 0.44246 0.68776 0.17185 0.0
O708 O 0.41042 0.70457 0.20116 0.0
O709 O 0.42505 0.71741 0.18809 0.0
O710 O 0.4351 0.69534 0.16279 0.0
O711 O 0.43579 0.68471 0.18368 0.0
C712 C 0.39947 0.67158 0.17788 0.0
O713 O 0.41102 0.71007 0.15628 0.0
O714 O 0.39382 0.70982 0.17224 0.0
In715 In 0.29666 0.41583 0.17755 0.0
O716 O 0.31529 0.40411 0.18968 0.0
O717 O 0.31693 0.40596 0.16636 0.0
C718 C 0.27778 0.41898 0.20038 0.0
C719 C 0.28036 0.39838 0.1598 0.0
C720 C 0.30455 0.44402 0.17222 0.0
O721 O 0.28955 0.41161 0.20136 0.0
O722 O 0.27561 0.42484 0.18795 0.0
O723 O 0.29679 0.4366 0.16336 0.0
O724 O 0.30854 0.43714 0.18364 0.0
C725 C 0.32258 0.40125 0.17818 0.0
O726 O 0.28474 0.41101 0.15587 0.0
O727 O 0.28429 0.39456 0.17259 0.0
In728 In 0.81917 0.57897 0.69686 0.0
O729 O 0.8055 0.59354 0.68157 0.0
O730 O 0.82716 0.58768 0.67471 0.0
C731 C 0.79442 0.57821 0.71335 0.0
C732 C 0.83951 0.59232 0.71423 0.0
C733 C 0.82573 0.55119 0.68849 0.0
O734 O 0.79941 0.59004 0.70793 0.0
O735 O 0.80178 0.5668 0.71027 0.0
O736 O 0.83369 0.5584 0.69734 0.0
O737 O 0.81462 0.55807 0.68372 0.0
C738 C 0.81544 0.59463 0.67187 0.0
O739 O 0.83899 0.5942 0.70047 0.0
O740 O 0.82992 0.58359 0.71921 0.0
In741 In 0.41307 0.81393 0.69782 0.0
O742 O 0.40327 0.80243 0.67774 0.0
O743 O 0.40326 0.82589 0.67802 0.0
C744 C 0.41451 0.7901 0.71571 0.0
C745 C 0.3967 0.83197 0.71497 0.0
C746 C 0.44113 0.81958 0.68995 0.0
O747 O 0.42356 0.80064 0.71645 0.0
O748 O 0.40478 0.79149 0.70587 0.0
O749 O 0.43348 0.82856 0.69736 0.0
O750 O 0.43456 0.80782 0.68639 0.0
C751 C 0.39982 0.81424 0.67122 0.0
O752 O 0.41023 0.83424 0.71256 0.0
O753 O 0.3915 0.8207 0.70871 0.0
In754 In 0.17688 0.4138 0.69758 0.0
O755 O 0.15511 0.40967 0.70962 0.0
O756 O 0.17152 0.39293 0.71042 0.0
C757 C 0.17184 0.44151 0.6881 0.0
C758 C 0.17786 0.39845 0.67216 0.0
C759 C 0.19946 0.41765 0.71659 0.0
O760 O 0.1628 0.43459 0.69613 0.0
O761 O 0.18332 0.43439 0.68475 0.0
O762 O 0.20046 0.40956 0.7053 0.0
O763 O 0.18712 0.42388 0.71823 0.0
C764 C 0.1588 0.39707 0.71427 0.0
O765 O 0.18925 0.40141 0.67959 0.0
O766 O 0.16596 0.40335 0.67748 0.0
In767 In 0.57948 0.17721 0.69811 0.0
O768 O 0.58391 0.15572 0.71054 0.0
O769 O 0.60048 0.17231 0.71092 0.0
C770 C 0.55171 0.17174 0.68904 0.0
C771 C 0.59472 0.1776 0.67259 0.0
C772 C 0.57555 0.20013 0.71672 0.0
O773 O 0.55878 0.16296 0.69721 0.0
O774 O 0.55871 0.18319 0.68533 0.0
O775 O 0.58343 0.20104 0.70527 0.0
O776 O 0.56956 0.18772 0.71869 0.0
C777 C 0.5965 0.15963 0.71503 0.0
O778 O 0.59189 0.18915 0.67983 0.0
O779 O 0.58971 0.16585 0.67814 0.0
In780 In 0.81758 0.41445 0.29599 0.0
O781 O 0.83933 0.41042 0.28385 0.0
O782 O 0.82307 0.39353 0.28327 0.0
C783 C 0.82236 0.44233 0.30515 0.0
C784 C 0.81656 0.39912 0.32146 0.0
C785 C 0.79499 0.41808 0.27694 0.0
O786 O 0.83169 0.43522 0.29765 0.0
O787 O 0.81074 0.4353 0.3082 0.0
O788 O 0.79391 0.41035 0.28847 0.0
O789 O 0.80743 0.42406 0.27507 0.0
C790 C 0.83572 0.39776 0.2793 0.0
O791 O 0.80525 0.40174 0.31379 0.0
O792 O 0.82841 0.40438 0.31637 0.0
In793 In 0.57978 0.81696 0.29543 0.0
O794 O 0.5844 0.83876 0.28365 0.0
O795 O 0.60045 0.82174 0.282 0.0
C796 C 0.55194 0.82236 0.30437 0.0
C797 C 0.59538 0.81643 0.32073 0.0
C798 C 0.57571 0.79393 0.277 0.0
O799 O 0.5589 0.83096 0.29592 0.0
O800 O 0.55909 0.81115 0.30847 0.0
O801 O 0.58319 0.79294 0.2887 0.0
O802 O 0.5702 0.8065 0.27466 0.0
C803 C 0.59669 0.83468 0.27853 0.0
O804 O 0.59269 0.80496 0.31331 0.0
O805 O 0.59005 0.82817 0.31549 0.0
In806 In 0.1744 0.57821 0.29803 0.0
O807 O 0.16071 0.58043 0.27689 0.0
O808 O 0.15711 0.59606 0.29388 0.0
C809 C 0.16853 0.5506 0.30733 0.0
C810 C 0.17771 0.59296 0.32354 0.0
C811 C 0.19855 0.57788 0.28058 0.0
O812 O 0.15964 0.55783 0.29941 0.0
O813 O 0.18019 0.55739 0.31071 0.0
O814 O 0.19415 0.58945 0.28698 0.0
O815 O 0.1909 0.56656 0.28314 0.0
C816 C 0.15379 0.59172 0.28111 0.0
O817 O 0.18793 0.59197 0.31411 0.0
O818 O 0.16591 0.58636 0.32015 0.0
In819 In 0.41372 0.17735 0.29615 0.0
O820 O 0.40975 0.15613 0.28316 0.0
O821 O 0.39249 0.172 0.28383 0.0
C822 C 0.44168 0.17202 0.30465 0.0
C823 C 0.39908 0.17729 0.32203 0.0
C824 C 0.41684 0.20051 0.27766 0.0
O825 O 0.43433 0.16302 0.29699 0.0
O826 O 0.43486 0.18364 0.30815 0.0
O827 O 0.40888 0.20107 0.28908 0.0
O828 O 0.42329 0.18835 0.27566 0.0
C829 C 0.39687 0.15964 0.27919 0.0
O830 O 0.40185 0.18898 0.31501 0.0
O831 O 0.40383 0.16564 0.31608 0.0
In832 In 0.69562 0.81813 0.57921 0.0
O833 O 0.67822 0.80583 0.59249 0.0
O834 O 0.67514 0.82884 0.5892 0.0
C835 C 0.71465 0.7956 0.57502 0.0
C836 C 0.71224 0.83608 0.59616 0.0
C837 C 0.68665 0.82341 0.55135 0.0
O838 O 0.70272 0.79412 0.58205 0.0
O839 O 0.71691 0.80839 0.57001 0.0
O840 O 0.69453 0.83237 0.55852 0.0
O841 O 0.6831 0.8119 0.55832 0.0
C842 C 0.67036 0.81706 0.59488 0.0
O843 O 0.70736 0.83998 0.58371 0.0
O844 O 0.70862 0.82322 0.60008 0.0
In845 In 0.69606 0.17555 0.41478 0.0
O846 O 0.70831 0.154 0.41009 0.0
O847 O 0.70869 0.17072 0.39364 0.0
C848 C 0.68736 0.17014 0.44269 0.0
C849 C 0.67046 0.17631 0.39969 0.0
C850 C 0.71482 0.19835 0.41864 0.0
O851 O 0.69516 0.16119 0.43542 0.0
O852 O 0.68377 0.1817 0.4358 0.0
O853 O 0.70311 0.19946 0.41119 0.0
O854 O 0.71699 0.18579 0.42423 0.0
C855 C 0.71276 0.15799 0.39751 0.0
O856 O 0.67797 0.18772 0.40234 0.0
O857 O 0.67576 0.1645 0.40481 0.0
In858 In 0.81654 0.69869 0.41473 0.0
O859 O 0.80399 0.6809 0.40223 0.0
O860 O 0.82712 0.67807 0.40491 0.0
C861 C 0.79412 0.71787 0.41875 0.0
C862 C 0.83445 0.71498 0.39741 0.0
C863 C 0.82179 0.68988 0.44263 0.0
O864 O 0.79273 0.70616 0.41133 0.0
O865 O 0.80677 0.71985 0.42419 0.0
O866 O 0.83087 0.69755 0.43538 0.0
O867 O 0.8102 0.68648 0.43573 0.0
C868 C 0.81521 0.67306 0.39971 0.0
O869 O 0.83832 0.71049 0.41001 0.0
O870 O 0.82164 0.71115 0.39354 0.0
In871 In 0.29691 0.81839 0.41409 0.0
O872 O 0.31531 0.80621 0.40213 0.0
O873 O 0.31706 0.82954 0.40394 0.0
C874 C 0.27813 0.79552 0.41742 0.0
C875 C 0.28046 0.8362 0.39686 0.0
C876 C 0.30526 0.82358 0.44215 0.0
O877 O 0.28987 0.79456 0.41 0.0
O878 O 0.27593 0.80796 0.42327 0.0
O879 O 0.29704 0.83229 0.43506 0.0
O880 O 0.30941 0.81238 0.43502 0.0
C881 C 0.32262 0.81768 0.3992 0.0
O882 O 0.28521 0.8402 0.40933 0.0
O883 O 0.28412 0.82332 0.39308 0.0
In884 In 0.17783 0.29634 0.41453 0.0
O885 O 0.18967 0.31472 0.40216 0.0
O886 O 0.16644 0.31656 0.40487 0.0
C887 C 0.20069 0.27755 0.41787 0.0
C888 C 0.15999 0.27955 0.39765 0.0
C889 C 0.17271 0.30509 0.44246 0.0
O890 O 0.20159 0.28915 0.41021 0.0
O891 O 0.18831 0.27551 0.42391 0.0
O892 O 0.16346 0.29773 0.43511 0.0
O893 O 0.18446 0.30818 0.43566 0.0
C894 C 0.17812 0.3221 0.3997 0.0
O895 O 0.15655 0.28344 0.41057 0.0
O896 O 0.17234 0.2842 0.39325 0.0
In897 In 0.29614 0.17502 0.58001 0.0
O898 O 0.31485 0.18688 0.59181 0.0
O899 O 0.31641 0.16358 0.58956 0.0
C900 C 0.27754 0.19807 0.57683 0.0
C901 C 0.2796 0.15732 0.59731 0.0
C902 C 0.30434 0.16969 0.55194 0.0
O903 O 0.28918 0.19883 0.58444 0.0
O904 O 0.27534 0.18573 0.57078 0.0
O905 O 0.29661 0.16075 0.5593 0.0
O906 O 0.30807 0.18121 0.5588 0.0
C907 C 0.32215 0.17531 0.59438 0.0
O908 O 0.28354 0.15364 0.58447 0.0
O909 O 0.28407 0.16984 0.60143 0.0
In910 In 0.81701 0.29683 0.57914 0.0
O911 O 0.80525 0.31534 0.59137 0.0
O912 O 0.82854 0.31686 0.58908 0.0
C913 C 0.79395 0.27831 0.57574 0.0
C914 C 0.83463 0.27991 0.59613 0.0
C915 C 0.82214 0.30537 0.55113 0.0
O916 O 0.79318 0.28989 0.58344 0.0
O917 O 0.80629 0.27615 0.56969 0.0
O918 O 0.83113 0.29755 0.55833 0.0
O919 O 0.81069 0.30905 0.55814 0.0
C920 C 0.81685 0.32254 0.59407 0.0
O921 O 0.83845 0.28428 0.58346 0.0
O922 O 0.82203 0.28416 0.60022 0.0
In923 In 0.17725 0.69822 0.57889 0.0
O924 O 0.15545 0.71005 0.58347 0.0
O925 O 0.17186 0.71026 0.60022 0.0
C926 C 0.17242 0.68981 0.5508 0.0
C927 C 0.17803 0.67222 0.59324 0.0
C928 C 0.19983 0.71737 0.57574 0.0
O929 O 0.1634 0.69771 0.55789 0.0
O930 O 0.18375 0.68604 0.55794 0.0
O931 O 0.20084 0.70581 0.58343 0.0
O932 O 0.18749 0.71921 0.56958 0.0
C933 C 0.15914 0.71424 0.59623 0.0
O934 O 0.18946 0.67975 0.59071 0.0
O935 O 0.1662 0.67774 0.58841 0.0
In936 In 0.41409 0.29716 0.17651 0.0
O937 O 0.39294 0.28478 0.17094 0.0
O938 O 0.41027 0.28438 0.15514 0.0
C939 C 0.44203 0.3058 0.17119 0.0
C940 C 0.39937 0.32301 0.17702 0.0
C941 C 0.41733 0.27836 0.19941 0.0
O942 O 0.43461 0.29838 0.16205 0.0
O943 O 0.43529 0.30903 0.18293 0.0
O944 O 0.40916 0.28961 0.20006 0.0
O945 O 0.42393 0.27666 0.18727 0.0
C946 C 0.39741 0.28027 0.15855 0.0
O947 O 0.4023 0.3158 0.18856 0.0
O948 O 0.40401 0.31726 0.16522 0.0
In949 In 0.69776 0.41433 0.17656 0.0
O950 O 0.67952 0.40205 0.18868 0.0
O951 O 0.67772 0.40402 0.16537 0.0
C952 C 0.71651 0.41784 0.19942 0.0
C953 C 0.71447 0.39746 0.15863 0.0
C954 C 0.68894 0.44226 0.17148 0.0
O955 O 0.70496 0.41012 0.20032 0.0
O956 O 0.71853 0.42388 0.18705 0.0
O957 O 0.69712 0.43526 0.16265 0.0
O958 O 0.68507 0.43509 0.18277 0.0
C959 C 0.67222 0.39913 0.1772 0.0
O960 O 0.70963 0.40994 0.15476 0.0
O961 O 0.71078 0.39349 0.17145 0.0
In962 In 0.57878 0.69682 0.17665 0.0
O963 O 0.59111 0.67877 0.18898 0.0
O964 O 0.58902 0.67663 0.1657 0.0
C965 C 0.57476 0.71574 0.19929 0.0
C966 C 0.59595 0.71344 0.15892 0.0
C967 C 0.55102 0.68762 0.17137 0.0
O968 O 0.58253 0.70423 0.20042 0.0
O969 O 0.56893 0.71762 0.1868 0.0
O970 O 0.55802 0.69574 0.16248 0.0
O971 O 0.55809 0.68403 0.1828 0.0
C972 C 0.59395 0.6713 0.17758 0.0
O973 O 0.58338 0.7089 0.15499 0.0
O974 O 0.59984 0.7095 0.17168 0.0
In975 In 0.29455 0.58112 0.1789 0.0
O976 O 0.28217 0.58502 0.15722 0.0
O977 O 0.28142 0.60181 0.17357 0.0
C978 C 0.30283 0.55309 0.17355 0.0
C979 C 0.3206 0.59546 0.17901 0.0
C980 C 0.27643 0.57856 0.20242 0.0
O981 O 0.29424 0.5601 0.16512 0.0
O982 O 0.30736 0.56028 0.18459 0.0
O983 O 0.28656 0.58809 0.20176 0.0
O984 O 0.27553 0.57025 0.19129 0.0
C985 C 0.27745 0.5976 0.16092 0.0
O986 O 0.31404 0.59171 0.1907 0.0
O987 O 0.31412 0.59181 0.16725 0.0
In988 In 0.4151 0.69539 0.81839 0.0
O989 O 0.40117 0.67956 0.80468 0.0
O990 O 0.40651 0.67334 0.82668 0.0
C991 C 0.41555 0.71239 0.79394 0.0
C992 C 0.40193 0.71258 0.83896 0.0
C993 C 0.44269 0.68657 0.82509 0.0
O994 O 0.40372 0.70734 0.79928 0.0
O995 O 0.42708 0.70871 0.8008 0.0
O996 O 0.43531 0.69496 0.8334 0.0
O997 O 0.43606 0.68249 0.81355 0.0
C998 C 0.39994 0.6701 0.81484 0.0
O999 O 0.39808 0.69945 0.83653 0.0
O1000 O 0.41252 0.71704 0.83114 0.0
In1001 In 0.29608 0.41488 0.81763 0.0
O1002 O 0.31438 0.40269 0.80555 0.0
O1003 O 0.31627 0.40481 0.82883 0.0
C1004 C 0.27739 0.41802 0.79467 0.0
C1005 C 0.27944 0.39812 0.83574 0.0
C1006 C 0.30462 0.44296 0.82239 0.0
O1007 O 0.28891 0.41023 0.79396 0.0
O1008 O 0.27534 0.42429 0.80692 0.0
O1009 O 0.29653 0.43598 0.83131 0.0
O1010 O 0.30858 0.4357 0.8112 0.0
C1011 C 0.32175 0.39989 0.81702 0.0
O1012 O 0.28424 0.41065 0.83949 0.0
O1013 O 0.28314 0.39405 0.82296 0.0
In1014 In 0.57886 0.29737 0.81716 0.0
O1015 O 0.58276 0.28475 0.83865 0.0
O1016 O 0.5999 0.28482 0.82263 0.0
C1017 C 0.55085 0.30608 0.82202 0.0
C1018 C 0.59385 0.32306 0.81682 0.0
C1019 C 0.57565 0.27863 0.79424 0.0
O1020 O 0.55806 0.29857 0.83126 0.0
O1021 O 0.55785 0.30937 0.81045 0.0
O1022 O 0.58339 0.29018 0.79345 0.0
O1023 O 0.56946 0.2766 0.80654 0.0
C1024 C 0.59554 0.28048 0.83511 0.0
O1025 O 0.59116 0.31575 0.80528 0.0
O1026 O 0.58882 0.31749 0.82855 0.0
In1027 In 0.69947 0.58072 0.81576 0.0
O1028 O 0.71287 0.58405 0.8369 0.0
O1029 O 0.71266 0.60138 0.82112 0.0
C1030 C 0.6911 0.55276 0.8213 0.0
C1031 C 0.67347 0.59514 0.81649 0.0
C1032 C 0.71698 0.57822 0.79177 0.0
O1033 O 0.69952 0.55989 0.82981 0.0
O1034 O 0.68679 0.5598 0.81008 0.0
O1035 O 0.7071 0.58796 0.79285 0.0
O1036 O 0.71795 0.56968 0.80271 0.0
C1037 C 0.71727 0.59679 0.83342 0.0
O1038 O 0.67968 0.59146 0.80459 0.0
O1039 O 0.68028 0.5914 0.82803 0.0
In1040 In 0.17623 0.41448 0.29648 0.0
O1041 O 0.18874 0.40285 0.31489 0.0
O1042 O 0.16536 0.40386 0.31652 0.0
C1043 C 0.199 0.41846 0.27767 0.0
C1044 C 0.15859 0.39725 0.27983 0.0
C1045 C 0.17008 0.44214 0.30544 0.0
O1046 O 0.19995 0.41048 0.28904 0.0
O1047 O 0.18661 0.42453 0.27586 0.0
O1048 O 0.16139 0.43475 0.29747 0.0
O1049 O 0.18181 0.43554 0.30898 0.0
C1050 C 0.17733 0.39952 0.32214 0.0
O1051 O 0.15471 0.40987 0.28423 0.0
O1052 O 0.17131 0.39331 0.28389 0.0
In1053 In 0.57839 0.17729 0.29601 0.0
O1054 O 0.58308 0.15557 0.28408 0.0
O1055 O 0.59936 0.17243 0.28312 0.0
C1056 C 0.5505 0.17202 0.30484 0.0
C1057 C 0.59348 0.17791 0.3216 0.0
C1058 C 0.5745 0.20006 0.27722 0.0
O1059 O 0.55754 0.16324 0.29663 0.0
O1060 O 0.55761 0.18334 0.30873 0.0
O1061 O 0.58226 0.2011 0.28874 0.0
O1062 O 0.56864 0.18759 0.27526 0.0
C1063 C 0.59556 0.15958 0.27936 0.0
O1064 O 0.59073 0.18939 0.31422 0.0
O1065 O 0.58848 0.16611 0.31614 0.0
In1066 In 0.81593 0.57919 0.29778 0.0
O1067 O 0.83773 0.58336 0.28584 0.0
O1068 O 0.82158 0.60037 0.28554 0.0
C1069 C 0.8208 0.5512 0.30653 0.0
C1070 C 0.81504 0.59431 0.32336 0.0
C1071 C 0.79358 0.57571 0.2784 0.0
O1072 O 0.83005 0.55844 0.29905 0.0
O1073 O 0.80918 0.55815 0.30977 0.0
O1074 O 0.79218 0.58294 0.29022 0.0
O1075 O 0.80619 0.57015 0.27644 0.0
C1076 C 0.83423 0.59614 0.28155 0.0
O1077 O 0.80373 0.59208 0.31555 0.0
O1078 O 0.82677 0.58872 0.31836 0.0
In1079 In 0.41513 0.81769 0.29601 0.0
O1080 O 0.40302 0.80597 0.31465 0.0
O1081 O 0.40513 0.82929 0.31598 0.0
C1082 C 0.41838 0.79444 0.27767 0.0
C1083 C 0.39832 0.83545 0.27905 0.0
C1084 C 0.44312 0.82298 0.30451 0.0
O1085 O 0.41054 0.79388 0.28917 0.0
O1086 O 0.42464 0.80667 0.27548 0.0
O1087 O 0.43586 0.83187 0.29664 0.0
O1088 O 0.43619 0.81151 0.30825 0.0
C1089 C 0.40024 0.81761 0.32176 0.0
O1090 O 0.41102 0.83913 0.28343 0.0
O1091 O 0.3941 0.82288 0.28329 0.0
In1092 In 0.1762 0.57818 0.69459 0.0
O1093 O 0.17045 0.59955 0.70645 0.0
O1094 O 0.15483 0.58207 0.70735 0.0
C1095 C 0.17117 0.55019 0.68595 0.0
C1096 C 0.17696 0.59301 0.66884 0.0
C1097 C 0.19882 0.57515 0.71371 0.0
O1098 O 0.16177 0.55766 0.69299 0.0
O1099 O 0.18302 0.55691 0.68311 0.0
O1100 O 0.19991 0.58247 0.70192 0.0
O1101 O 0.18639 0.56924 0.71578 0.0
C1102 C 0.15813 0.59507 0.71112 0.0
O1103 O 0.18837 0.59042 0.67636 0.0
O1104 O 0.16515 0.58793 0.6742 0.0
In1105 In 0.41502 0.17535 0.69679 0.0
O1106 O 0.4035 0.18742 0.67805 0.0
O1107 O 0.40492 0.16404 0.67671 0.0
C1108 C 0.41799 0.19829 0.71555 0.0
C1109 C 0.39812 0.15747 0.71354 0.0
C1110 C 0.44297 0.17017 0.68808 0.0
O1111 O 0.40995 0.19888 0.70421 0.0
O1112 O 0.4246 0.18618 0.71738 0.0
O1113 O 0.43558 0.16091 0.6954 0.0
O1114 O 0.43618 0.18193 0.685 0.0
C1115 C 0.40045 0.17587 0.67089 0.0
O1116 O 0.41119 0.15421 0.71 0.0
O1117 O 0.3936 0.16965 0.70856 0.0
In1118 In 0.81728 0.4148 0.69751 0.0
O1119 O 0.80513 0.40343 0.67869 0.0
O1120 O 0.82856 0.40395 0.67782 0.0
C1121 C 0.7941 0.4189 0.71578 0.0
C1122 C 0.83454 0.39745 0.71443 0.0
C1123 C 0.82369 0.44254 0.68897 0.0
O1124 O 0.79345 0.41063 0.70459 0.0
O1125 O 0.80637 0.42519 0.71765 0.0
O1126 O 0.83174 0.43535 0.69776 0.0
O1127 O 0.81249 0.43568 0.68437 0.0
C1128 C 0.8167 0.39984 0.67182 0.0
O1129 O 0.83885 0.40973 0.70948 0.0
O1130 O 0.82159 0.3939 0.71077 0.0
In1131 In 0.57811 0.81596 0.69872 0.0
O1132 O 0.58308 0.83793 0.71011 0.0
O1133 O 0.59889 0.8207 0.71196 0.0
C1134 C 0.55013 0.8211 0.69009 0.0
C1135 C 0.59337 0.81525 0.67321 0.0
C1136 C 0.57421 0.79311 0.71741 0.0
O1137 O 0.55702 0.82969 0.6986 0.0
O1138 O 0.55743 0.81007 0.68576 0.0
O1139 O 0.58185 0.79208 0.70581 0.0
O1140 O 0.56847 0.80561 0.71951 0.0
C1141 C 0.59535 0.83375 0.71523 0.0
O1142 O 0.59074 0.80383 0.68072 0.0
O1143 O 0.58813 0.82704 0.67846 0.0
In1144 In 0.29651 0.17574 0.41504 0.0
O1145 O 0.28461 0.154 0.4103 0.0
O1146 O 0.28365 0.17089 0.39405 0.0
C1147 C 0.30498 0.17025 0.443 0.0
C1148 C 0.32225 0.17652 0.40019 0.0
C1149 C 0.27782 0.19866 0.41854 0.0
O1150 O 0.29673 0.16161 0.43585 0.0
O1151 O 0.30911 0.18153 0.43598 0.0
O1152 O 0.2892 0.19942 0.41056 0.0
O1153 O 0.27593 0.1864 0.42484 0.0
C1154 C 0.27989 0.15803 0.39783 0.0
O1155 O 0.31511 0.18801 0.40349 0.0
O1156 O 0.3165 0.16462 0.40455 0.0
In1157 In 0.29702 0.81799 0.57926 0.0
O1158 O 0.31576 0.80575 0.59062 0.0
O1159 O 0.31736 0.8291 0.58906 0.0
C1160 C 0.27816 0.79515 0.57616 0.0
C1161 C 0.28067 0.83575 0.59667 0.0
C1162 C 0.30503 0.82344 0.55115 0.0
O1163 O 0.28977 0.7943 0.5838 0.0
O1164 O 0.27613 0.80747 0.57001 0.0
O1165 O 0.29736 0.83235 0.55861 0.0
O1166 O 0.30879 0.81188 0.55793 0.0
C1167 C 0.3231 0.81722 0.5935 0.0
O1168 O 0.2849 0.83958 0.58397 0.0
O1169 O 0.2848 0.82306 0.60061 0.0
In1170 In 0.17737 0.29565 0.57915 0.0
O1171 O 0.18936 0.31374 0.59179 0.0
O1172 O 0.16616 0.31588 0.589 0.0
C1173 C 0.2 0.2766 0.57577 0.0
C1174 C 0.1592 0.27908 0.5959 0.0
C1175 C 0.17267 0.30473 0.55126 0.0
O1176 O 0.20101 0.28811 0.58354 0.0
O1177 O 0.18765 0.27479 0.56962 0.0
O1178 O 0.16349 0.29693 0.55824 0.0
O1179 O 0.18413 0.30808 0.55841 0.0
C1180 C 0.17788 0.32121 0.59429 0.0
O1181 O 0.15569 0.28341 0.58313 0.0
O1182 O 0.17178 0.28319 0.60019 0.0
In1183 In 0.69737 0.17734 0.57918 0.0
O1184 O 0.70938 0.15561 0.5835 0.0
O1185 O 0.71061 0.17232 0.59991 0.0
C1186 C 0.68826 0.1718 0.55143 0.0
C1187 C 0.67196 0.17805 0.5946 0.0
C1188 C 0.71606 0.20021 0.57532 0.0
O1189 O 0.69653 0.16311 0.55848 0.0
O1190 O 0.68445 0.18321 0.55844 0.0
O1191 O 0.70479 0.20103 0.58345 0.0
O1192 O 0.71782 0.18792 0.56904 0.0
C1193 C 0.71431 0.15951 0.59593 0.0
O1194 O 0.67907 0.18955 0.59131 0.0
O1195 O 0.67756 0.16619 0.58995 0.0
In1196 In 0.81472 0.69813 0.57948 0.0
O1197 O 0.80251 0.68129 0.59355 0.0
O1198 O 0.82487 0.67677 0.58809 0.0
C1199 C 0.79216 0.71714 0.57534 0.0
C1200 C 0.83288 0.7139 0.59702 0.0
C1201 C 0.82008 0.68966 0.55149 0.0
O1202 O 0.79049 0.70473 0.58142 0.0
O1203 O 0.80517 0.7199 0.57124 0.0
O1204 O 0.82886 0.6977 0.55869 0.0
O1205 O 0.80868 0.68575 0.55846 0.0
C1206 C 0.81335 0.67265 0.59475 0.0
O1207 O 0.83677 0.70935 0.58445 0.0
O1208 O 0.81992 0.71044 0.60072 0.0
In1209 In 0.69763 0.81879 0.41482 0.0
O1210 O 0.70978 0.84045 0.41038 0.0
O1211 O 0.71097 0.8236 0.3941 0.0
C1212 C 0.68843 0.82414 0.44259 0.0
C1213 C 0.67248 0.81809 0.39898 0.0
C1214 C 0.71617 0.79586 0.41893 0.0
O1215 O 0.69643 0.83306 0.4355 0.0
O1216 O 0.68492 0.81263 0.4356 0.0
O1217 O 0.70435 0.79475 0.41167 0.0
O1218 O 0.71858 0.8085 0.42424 0.0
C1219 C 0.71474 0.83642 0.398 0.0
O1220 O 0.68003 0.80671 0.40163 0.0
O1221 O 0.67751 0.82985 0.40447 0.0
In1222 In 0.1781 0.69772 0.41371 0.0
O1223 O 0.15606 0.70891 0.40872 0.0
O1224 O 0.17261 0.7093 0.39211 0.0
C1225 C 0.17286 0.68964 0.44183 0.0
C1226 C 0.17996 0.67171 0.39944 0.0
C1227 C 0.20024 0.71731 0.41723 0.0
O1228 O 0.16373 0.697 0.43433 0.0
O1229 O 0.18455 0.68622 0.43509 0.0
O1230 O 0.20186 0.70532 0.41036 0.0
O1231 O 0.18749 0.71939 0.4224 0.0
C1232 C 0.15975 0.71299 0.39593 0.0
O1233 O 0.19091 0.68011 0.4012 0.0
O1234 O 0.16807 0.67635 0.40503 0.0
In1235 In 0.81463 0.29611 0.41436 0.0
O1236 O 0.80259 0.31422 0.40177 0.0
O1237 O 0.82581 0.31632 0.4044 0.0
C1238 C 0.79184 0.27732 0.41815 0.0
C1239 C 0.83243 0.27959 0.39716 0.0
C1240 C 0.82005 0.30483 0.44226 0.0
O1241 O 0.79069 0.2891 0.41081 0.0
O1242 O 0.80443 0.2751 0.42366 0.0
O1243 O 0.8288 0.2967 0.43511 0.0
O1244 O 0.80865 0.3087 0.43528 0.0
C1245 C 0.81406 0.32166 0.39916 0.0
O1246 O 0.83633 0.28417 0.40973 0.0
O1247 O 0.81962 0.28341 0.39328 0.0
H1248 H 0.09012 0.22352 0.36411 0.0
H1249 H 0.16517 0.26997 0.36959 0.0
H1250 H 0.12233 0.22631 0.3291 0.0
H1251 H 0.13316 0.26763 0.40479 0.0
H1252 H 0.14948 0.25401 0.35459 0.0
H1253 H 0.10563 0.23965 0.37926 0.0
C1254 C 0.10046 0.22752 0.35963 0.0
C1255 C 0.10497 0.22358 0.34535 0.0
C1256 C 0.14586 0.25698 0.36559 0.0
C1257 C 0.12272 0.24201 0.36256 0.0
C1258 C 0.15482 0.2661 0.37415 0.0
C1259 C 0.15045 0.27011 0.38844 0.0
C1260 C 0.13243 0.25182 0.37136 0.0
C1261 C 0.13693 0.2648 0.39381 0.0
C1262 C 0.1093 0.23672 0.36827 0.0
C1263 C 0.11845 0.22907 0.34007 0.0
N1264 N 0.12839 0.2559 0.38527 0.0
N1265 N 0.12684 0.238 0.34867 0.0
H1266 H 0.72346 0.1644 0.37013 0.0
H1267 H 0.76836 0.08865 0.36205 0.0
H1268 H 0.72364 0.13042 0.40352 0.0
H1269 H 0.76768 0.1229 0.32894 0.0
H1270 H 0.75195 0.10362 0.37746 0.0
H1271 H 0.73956 0.14914 0.35485 0.0
C1272 C 0.72687 0.1537 0.37423 0.0
C1273 C 0.72223 0.14866 0.3881 0.0
C1274 C 0.7554 0.10786 0.36683 0.0
C1275 C 0.7407 0.13113 0.3707 0.0
C1276 C 0.76477 0.09933 0.35804 0.0
C1277 C 0.76938 0.10456 0.34422 0.0
C1278 C 0.75063 0.12171 0.36173 0.0
C1279 C 0.76439 0.11845 0.33954 0.0
C1280 C 0.73608 0.14499 0.36551 0.0
C1281 C 0.72698 0.13471 0.39288 0.0
N1282 N 0.75529 0.12653 0.34827 0.0
N1283 N 0.73598 0.12643 0.38419 0.0
H1284 H 0.82847 0.72551 0.36984 0.0
H1285 H 0.9048 0.76952 0.3624 0.0
H1286 H 0.86208 0.72555 0.40359 0.0
H1287 H 0.87164 0.76785 0.32825 0.0
H1288 H 0.88929 0.75367 0.37784 0.0
H1289 H 0.84415 0.7412 0.35455 0.0
C1290 C 0.83917 0.7288 0.37402 0.0
C1291 C 0.84399 0.72423 0.388 0.0
C1292 C 0.88541 0.75677 0.36697 0.0
C1293 C 0.862 0.74223 0.37057 0.0
C1294 C 0.89425 0.76583 0.35817 0.0
C1295 C 0.88948 0.77 0.34404 0.0
C1296 C 0.87171 0.75187 0.36159 0.0
C1297 C 0.87573 0.7649 0.33908 0.0
C1298 C 0.84812 0.73777 0.36529 0.0
C1299 C 0.85795 0.72883 0.39287 0.0
N1300 N 0.86733 0.75611 0.34784 0.0
N1301 N 0.86647 0.7376 0.38417 0.0
H1302 H 0.22519 0.87019 0.32703 0.0
H1303 H 0.27039 0.86407 0.40279 0.0
H1304 H 0.22535 0.90429 0.36029 0.0
H1305 H 0.26912 0.8298 0.36972 0.0
H1306 H 0.25429 0.87924 0.38727 0.0
H1307 H 0.24161 0.85541 0.34246 0.0
C1308 C 0.22868 0.87455 0.3376 0.0
C1309 C 0.22391 0.88847 0.34241 0.0
C1310 C 0.25755 0.86841 0.3834 0.0
C1311 C 0.24272 0.87163 0.36013 0.0
C1312 C 0.26675 0.85976 0.39224 0.0
C1313 C 0.27107 0.84567 0.38752 0.0
C1314 C 0.25265 0.8629 0.36976 0.0
C1315 C 0.26604 0.84061 0.37379 0.0
C1316 C 0.23806 0.86612 0.34641 0.0
C1317 C 0.22877 0.8936 0.35619 0.0
N1318 N 0.25709 0.84921 0.3654 0.0
N1319 N 0.23792 0.88518 0.36457 0.0
H1320 H 0.1648 0.72415 0.62407 0.0
H1321 H 0.08858 0.76835 0.63151 0.0
H1322 H 0.13161 0.72501 0.58991 0.0
H1323 H 0.12174 0.76653 0.66565 0.0
H1324 H 0.10405 0.75248 0.61604 0.0
H1325 H 0.14901 0.73961 0.63947 0.0
C1326 C 0.15416 0.72758 0.61982 0.0
C1327 C 0.1495 0.72332 0.6057 0.0
C1328 C 0.10794 0.75555 0.62691 0.0
C1329 C 0.13136 0.74105 0.62325 0.0
C1330 C 0.09912 0.76461 0.63573 0.0
C1331 C 0.10391 0.76876 0.64986 0.0
C1332 C 0.12163 0.75062 0.63228 0.0
C1333 C 0.11764 0.7636 0.65482 0.0
C1334 C 0.14515 0.73642 0.62862 0.0
C1335 C 0.13562 0.72806 0.60075 0.0
N1336 N 0.12601 0.75481 0.64603 0.0
N1337 N 0.12703 0.73671 0.60951 0.0
H1338 H 0.27006 0.16292 0.62532 0.0
H1339 H 0.2236 0.08797 0.63194 0.0
H1340 H 0.26787 0.13028 0.5907 0.0
H1341 H 0.22665 0.1205 0.66661 0.0
H1342 H 0.23979 0.10322 0.6166 0.0
H1343 H 0.2542 0.1474 0.64062 0.0
C1344 C 0.26625 0.15246 0.62095 0.0
C1345 C 0.27026 0.14787 0.60673 0.0
C1346 C 0.23692 0.10702 0.62756 0.0
C1347 C 0.25208 0.13005 0.62415 0.0
C1348 C 0.22767 0.09833 0.63631 0.0
C1349 C 0.22378 0.103 0.65055 0.0
C1350 C 0.24229 0.12047 0.63311 0.0
C1351 C 0.22937 0.11649 0.65568 0.0
C1352 C 0.25719 0.1436 0.62968 0.0
C1353 C 0.26503 0.13422 0.60161 0.0
N1354 N 0.23833 0.12476 0.64697 0.0
N1355 N 0.25618 0.12579 0.61032 0.0
H1356 H 0.8286 0.26934 0.62366 0.0
H1357 H 0.90443 0.22441 0.63072 0.0
H1358 H 0.86198 0.26878 0.58967 0.0
H1359 H 0.87094 0.22561 0.66459 0.0
H1360 H 0.8891 0.24053 0.61539 0.0
H1361 H 0.84406 0.25327 0.63877 0.0
C1362 C 0.83921 0.26584 0.61939 0.0
C1363 C 0.84403 0.27039 0.6054 0.0
C1364 C 0.8851 0.23726 0.62618 0.0
C1365 C 0.86179 0.25195 0.62262 0.0
C1366 C 0.89384 0.22805 0.63492 0.0
C1367 C 0.88893 0.22368 0.64894 0.0
C1368 C 0.87137 0.24212 0.63151 0.0
C1369 C 0.87514 0.22872 0.65384 0.0
C1370 C 0.84803 0.25665 0.62801 0.0
C1371 C 0.85786 0.26552 0.6004 0.0
N1372 N 0.86685 0.23767 0.64515 0.0
N1373 N 0.86626 0.25655 0.60901 0.0
H1374 H 0.76801 0.87079 0.66519 0.0
H1375 H 0.72232 0.86385 0.58982 0.0
H1376 H 0.76787 0.90445 0.63146 0.0
H1377 H 0.72383 0.82995 0.62326 0.0
H1378 H 0.73861 0.87915 0.605 0.0
H1379 H 0.75151 0.85586 0.65002 0.0
C1380 C 0.76452 0.87503 0.65456 0.0
C1381 C 0.76931 0.88886 0.64955 0.0
C1382 C 0.73536 0.86838 0.60902 0.0
C1383 C 0.75039 0.87184 0.63213 0.0
C1384 C 0.72605 0.85965 0.60037 0.0
C1385 C 0.72174 0.84562 0.6053 0.0
C1386 C 0.74037 0.86301 0.62269 0.0
C1387 C 0.72689 0.84071 0.61904 0.0
C1388 C 0.75509 0.8665 0.64591 0.0
C1389 C 0.76443 0.89382 0.63572 0.0
N1390 N 0.73594 0.84939 0.62725 0.0
N1391 N 0.75522 0.88531 0.62748 0.0
H1392 H 0.32638 0.12386 0.22593 0.0
H1393 H 0.40395 0.13274 0.26741 0.0
H1394 H 0.36125 0.09147 0.22357 0.0
H1395 H 0.36893 0.16498 0.26933 0.0
H1396 H 0.38854 0.11737 0.25141 0.0
H1397 H 0.3419 0.13905 0.24187 0.0
C1398 C 0.33733 0.11996 0.22876 0.0
C1399 C 0.34255 0.1064 0.22343 0.0
C1400 C 0.38423 0.1278 0.25534 0.0
C1401 C 0.36038 0.12371 0.24169 0.0
C1402 C 0.39301 0.13656 0.26448 0.0
C1403 C 0.38769 0.15013 0.26969 0.0
C1404 C 0.37003 0.13266 0.25141 0.0
C1405 C 0.37345 0.15458 0.26555 0.0
C1406 C 0.34619 0.12863 0.23787 0.0
C1407 C 0.35681 0.10187 0.22745 0.0
N1408 N 0.36512 0.14587 0.25665 0.0
N1409 N 0.36523 0.11051 0.23635 0.0
H1410 H 0.87117 0.32836 0.22452 0.0
H1411 H 0.86324 0.40452 0.26874 0.0
H1412 H 0.90459 0.36231 0.22423 0.0
H1413 H 0.83005 0.37035 0.26826 0.0
H1414 H 0.87872 0.38931 0.25261 0.0
H1415 H 0.85604 0.34371 0.24064 0.0
C1416 C 0.87531 0.33907 0.22784 0.0
C1417 C 0.88914 0.34409 0.22304 0.0
C1418 C 0.86805 0.38514 0.25605 0.0
C1419 C 0.87189 0.36173 0.24154 0.0
C1420 C 0.85923 0.39381 0.26526 0.0
C1421 C 0.84535 0.38868 0.26983 0.0
C1422 C 0.86294 0.37126 0.2514 0.0
C1423 C 0.84068 0.37473 0.265 0.0
C1424 C 0.86667 0.34784 0.23706 0.0
C1425 C 0.89397 0.35805 0.22769 0.0
N1426 N 0.84944 0.36652 0.25604 0.0
N1427 N 0.88535 0.3664 0.2367 0.0
H1428 H 0.66648 0.86952 0.22372 0.0
H1429 H 0.59091 0.86282 0.26916 0.0
H1430 H 0.63372 0.90407 0.22532 0.0
H1431 H 0.62346 0.82814 0.26639 0.0
H1432 H 0.60642 0.87824 0.25328 0.0
H1433 H 0.65082 0.85428 0.23947 0.0
C1434 C 0.65597 0.87389 0.22739 0.0
C1435 C 0.65138 0.88807 0.22323 0.0
C1436 C 0.61016 0.86726 0.25615 0.0
C1437 C 0.63339 0.8707 0.24129 0.0
C1438 C 0.60133 0.85847 0.26522 0.0
C1439 C 0.60593 0.8442 0.26908 0.0
C1440 C 0.62368 0.86173 0.25094 0.0
C1441 C 0.6195 0.83909 0.26367 0.0
C1442 C 0.64703 0.86518 0.23639 0.0
C1443 C 0.63766 0.89318 0.22828 0.0
N1444 N 0.6279 0.84784 0.25488 0.0
N1445 N 0.62915 0.8845 0.23707 0.0
H1446 H 0.10798 0.62874 0.20615 0.0
H1447 H 0.13665 0.61535 0.28848 0.0
H1448 H 0.09309 0.65393 0.24375 0.0
H1449 H 0.14698 0.58627 0.2522 0.0
H1450 H 0.12032 0.62937 0.27227 0.0
H1451 H 0.12204 0.61276 0.22279 0.0
C1452 C 0.10761 0.63085 0.21792 0.0
C1453 C 0.09942 0.6427 0.2236 0.0
C1454 C 0.12607 0.61987 0.26786 0.0
C1455 C 0.11551 0.62456 0.24266 0.0
C1456 C 0.1354 0.61187 0.27711 0.0
C1457 C 0.1432 0.59967 0.27164 0.0
C1458 C 0.12461 0.61571 0.25299 0.0
C1459 C 0.14117 0.59562 0.25684 0.0
C1460 C 0.11562 0.62173 0.22741 0.0
C1461 C 0.09929 0.64493 0.23891 0.0
N1462 N 0.13214 0.60369 0.24798 0.0
N1463 N 0.10729 0.636 0.2479 0.0
H1464 H 0.3643 0.90062 0.77332 0.0
H1465 H 0.36741 0.82926 0.72119 0.0
H1466 H 0.3271 0.87209 0.76484 0.0
H1467 H 0.40534 0.85661 0.73025 0.0
H1468 H 0.35248 0.84513 0.737 0.0
H1469 H 0.37959 0.88488 0.75751 0.0
C1470 C 0.35936 0.89103 0.76814 0.0
C1471 C 0.34443 0.88763 0.77038 0.0
C1472 C 0.36407 0.84768 0.73556 0.0
C1473 C 0.36179 0.86964 0.7523 0.0
C1474 C 0.37259 0.83862 0.72652 0.0
C1475 C 0.38763 0.84163 0.72442 0.0
C1476 C 0.37061 0.85986 0.74258 0.0
C1477 C 0.39378 0.85391 0.73158 0.0
C1478 C 0.36809 0.88206 0.75913 0.0
C1479 C 0.33858 0.8751 0.76342 0.0
N1480 N 0.38524 0.86259 0.74036 0.0
N1481 N 0.34727 0.86658 0.75469 0.0
H1482 H 0.13116 0.40366 0.7246 0.0
H1483 H 0.12313 0.32731 0.7685 0.0
H1484 H 0.16456 0.36969 0.72535 0.0
H1485 H 0.08965 0.3612 0.76863 0.0
H1486 H 0.13835 0.34275 0.75252 0.0
H1487 H 0.11561 0.38831 0.74052 0.0
C1488 C 0.1352 0.39296 0.7281 0.0
C1489 C 0.14915 0.38792 0.72367 0.0
C1490 C 0.12769 0.34684 0.75604 0.0
C1491 C 0.13148 0.37035 0.74185 0.0
C1492 C 0.11899 0.33803 0.76517 0.0
C1493 C 0.10512 0.343 0.76989 0.0
C1494 C 0.12247 0.36075 0.75158 0.0
C1495 C 0.10029 0.35696 0.76524 0.0
C1496 C 0.12634 0.38422 0.73719 0.0
C1497 C 0.15387 0.374 0.72851 0.0
N1498 N 0.10896 0.36536 0.75632 0.0
N1499 N 0.14505 0.3657 0.73735 0.0
H1500 H 0.62393 0.16581 0.72574 0.0
H1501 H 0.63168 0.08955 0.76981 0.0
H1502 H 0.59025 0.13211 0.72588 0.0
H1503 H 0.66537 0.1232 0.76868 0.0
H1504 H 0.61617 0.10495 0.75393 0.0
H1505 H 0.63917 0.1503 0.74163 0.0
C1506 C 0.61975 0.15513 0.72912 0.0
C1507 C 0.60582 0.15022 0.7245 0.0
C1508 C 0.62695 0.10896 0.75716 0.0
C1509 C 0.62319 0.1324 0.74271 0.0
C1510 C 0.63579 0.10019 0.76623 0.0
C1511 C 0.64982 0.10512 0.77055 0.0
C1512 C 0.63219 0.12277 0.7524 0.0
C1513 C 0.65463 0.11898 0.7656 0.0
C1514 C 0.62845 0.14627 0.73819 0.0
C1515 C 0.60094 0.1363 0.7292 0.0
N1516 N 0.64583 0.12731 0.75679 0.0
N1517 N 0.60962 0.12786 0.73807 0.0
H1518 H 0.88016 0.63553 0.78861 0.0
H1519 H 0.86182 0.61086 0.70593 0.0
H1520 H 0.9049 0.6504 0.75071 0.0
H1521 H 0.84093 0.59192 0.74433 0.0
H1522 H 0.87807 0.62509 0.72213 0.0
H1523 H 0.86598 0.61912 0.77259 0.0
C1524 C 0.88266 0.63527 0.77692 0.0
C1525 C 0.89367 0.64437 0.77095 0.0
C1526 C 0.87 0.61775 0.72701 0.0
C1527 C 0.87745 0.62569 0.75254 0.0
C1528 C 0.86072 0.60964 0.71778 0.0
C1529 C 0.84999 0.60026 0.72382 0.0
C1530 C 0.86845 0.61654 0.7424 0.0
C1531 C 0.84904 0.59905 0.73922 0.0
C1532 C 0.87457 0.6259 0.76778 0.0
C1533 C 0.89648 0.64358 0.75574 0.0
N1534 N 0.85809 0.60718 0.74799 0.0
N1535 N 0.88835 0.63447 0.74704 0.0
H1536 H 0.22559 0.36301 0.08987 0.0
H1537 H 0.27007 0.37075 0.16589 0.0
H1538 H 0.22735 0.32903 0.12322 0.0
H1539 H 0.26965 0.40444 0.13221 0.0
H1540 H 0.25438 0.35534 0.15032 0.0
H1541 H 0.24164 0.37845 0.10517 0.0
C1542 C 0.22935 0.35882 0.10042 0.0
C1543 C 0.22514 0.34474 0.10531 0.0
C1544 C 0.25773 0.36609 0.14631 0.0
C1545 C 0.24348 0.3623 0.12283 0.0
C1546 C 0.26669 0.37489 0.15519 0.0
C1547 C 0.27115 0.38889 0.15032 0.0
C1548 C 0.25316 0.37133 0.13245 0.0
C1549 C 0.26645 0.39371 0.13637 0.0
C1550 C 0.23851 0.36762 0.10914 0.0
C1551 C 0.23033 0.33983 0.11904 0.0
N1552 N 0.25769 0.38494 0.12792 0.0
N1553 N 0.23922 0.3486 0.12732 0.0
H1554 H 0.22572 0.63407 0.90379 0.0
H1555 H 0.27017 0.62577 0.82777 0.0
H1556 H 0.22758 0.66775 0.87015 0.0
H1557 H 0.26826 0.59152 0.86084 0.0
H1558 H 0.255 0.64148 0.84354 0.0
H1559 H 0.24169 0.61842 0.88858 0.0
C1560 C 0.2295 0.63817 0.89321 0.0
C1561 C 0.22532 0.6522 0.88819 0.0
C1562 C 0.2579 0.63054 0.84738 0.0
C1563 C 0.24355 0.63442 0.87077 0.0
C1564 C 0.26657 0.62157 0.83838 0.0
C1565 C 0.27045 0.60732 0.84301 0.0
C1566 C 0.25305 0.62523 0.86112 0.0
C1567 C 0.26551 0.60244 0.85685 0.0
C1568 C 0.23861 0.62925 0.88454 0.0
C1569 C 0.23053 0.65699 0.87443 0.0
N1570 N 0.25703 0.61138 0.86542 0.0
N1571 N 0.23936 0.64811 0.8662 0.0
H1572 H 0.40455 0.26806 0.85985 0.0
H1573 H 0.32628 0.22821 0.87008 0.0
H1574 H 0.36917 0.27037 0.82804 0.0
H1575 H 0.36194 0.22435 0.90142 0.0
H1576 H 0.34184 0.24392 0.85468 0.0
H1577 H 0.3891 0.2523 0.87545 0.0
C1578 C 0.39352 0.26526 0.85617 0.0
C1579 C 0.38811 0.27051 0.84265 0.0
C1580 C 0.34629 0.23963 0.86492 0.0
C1581 C 0.37041 0.25252 0.86039 0.0
C1582 C 0.33741 0.23066 0.87371 0.0
C1583 C 0.34285 0.22498 0.88703 0.0
C1584 C 0.36073 0.24297 0.86949 0.0
C1585 C 0.35733 0.22851 0.89121 0.0
C1586 C 0.38472 0.25626 0.86506 0.0
C1587 C 0.37377 0.26655 0.83839 0.0
N1588 N 0.36578 0.2373 0.88247 0.0
N1589 N 0.36542 0.2578 0.84723 0.0
H1590 H 0.72468 0.37128 0.8275 0.0
H1591 H 0.76851 0.36351 0.9039 0.0
H1592 H 0.72405 0.40459 0.86154 0.0
H1593 H 0.7674 0.32976 0.8703 0.0
H1594 H 0.75252 0.37894 0.88851 0.0
H1595 H 0.74058 0.35606 0.84303 0.0
C1596 C 0.72788 0.37538 0.83826 0.0
C1597 C 0.72305 0.38921 0.84325 0.0
C1598 C 0.75578 0.36816 0.88451 0.0
C1599 C 0.74128 0.37186 0.86109 0.0
C1600 C 0.76491 0.35937 0.89327 0.0
C1601 C 0.76927 0.34535 0.88835 0.0
C1602 C 0.75101 0.36289 0.87073 0.0
C1603 C 0.76429 0.3405 0.87452 0.0
C1604 C 0.73696 0.36668 0.84713 0.0
C1605 C 0.72753 0.39398 0.85729 0.0
N1606 N 0.75543 0.34926 0.86619 0.0
N1607 N 0.73642 0.38532 0.86572 0.0
H1608 H 0.58967 0.72353 0.86346 0.0
H1609 H 0.66475 0.76981 0.86972 0.0
H1610 H 0.62234 0.72595 0.82886 0.0
H1611 H 0.63163 0.7687 0.90396 0.0
H1612 H 0.64935 0.75363 0.85465 0.0
H1613 H 0.60492 0.73989 0.8786 0.0
C1614 C 0.60007 0.72749 0.85907 0.0
C1615 C 0.60477 0.72339 0.8449 0.0
C1616 C 0.64542 0.75693 0.86544 0.0
C1617 C 0.62223 0.7421 0.86212 0.0
C1618 C 0.65421 0.76617 0.87405 0.0
C1619 C 0.64945 0.77059 0.8881 0.0
C1620 C 0.63177 0.75204 0.87094 0.0
C1621 C 0.63571 0.76556 0.89317 0.0
C1622 C 0.60875 0.73684 0.8677 0.0
C1623 C 0.6183 0.72884 0.83973 0.0
N1624 N 0.62735 0.75652 0.8846 0.0
N1625 N 0.62656 0.73792 0.84834 0.0
H1626 H 0.76909 0.63143 0.08947 0.0
H1627 H 0.72259 0.62472 0.16438 0.0
H1628 H 0.76621 0.66593 0.1222 0.0
H1629 H 0.72543 0.58981 0.13209 0.0
H1630 H 0.73825 0.64011 0.14876 0.0
H1631 H 0.75285 0.61607 0.10465 0.0
C1632 C 0.76504 0.63576 0.09985 0.0
C1633 C 0.76901 0.64995 0.10461 0.0
C1634 C 0.73545 0.62909 0.14506 0.0
C1635 C 0.75045 0.63249 0.122 0.0
C1636 C 0.7265 0.62031 0.15398 0.0
C1637 C 0.72274 0.60597 0.14952 0.0
C1638 C 0.7407 0.6235 0.13159 0.0
C1639 C 0.72809 0.60081 0.13594 0.0
C1640 C 0.75577 0.627 0.10851 0.0
C1641 C 0.76344 0.65504 0.11813 0.0
N1642 N 0.73683 0.60957 0.12745 0.0
N1643 N 0.75445 0.64631 0.12635 0.0
H1644 H 0.32871 0.76875 0.12379 0.0
H1645 H 0.40555 0.72599 0.13297 0.0
H1646 H 0.36384 0.77058 0.09165 0.0
H1647 H 0.37053 0.72483 0.16525 0.0
H1648 H 0.39049 0.74232 0.11762 0.0
H1649 H 0.34395 0.75269 0.13917 0.0
C1650 C 0.33965 0.76579 0.11999 0.0
C1651 C 0.34503 0.77098 0.10644 0.0
C1652 C 0.38609 0.73849 0.12806 0.0
C1653 C 0.36253 0.75259 0.12394 0.0
C1654 C 0.39468 0.72916 0.13681 0.0
C1655 C 0.38926 0.72406 0.15038 0.0
C1656 C 0.37199 0.74272 0.13293 0.0
C1657 C 0.37512 0.72851 0.15485 0.0
C1658 C 0.34835 0.75661 0.12876 0.0
C1659 C 0.35928 0.76681 0.10204 0.0
N1660 N 0.36698 0.73759 0.14615 0.0
N1661 N 0.36754 0.75783 0.11077 0.0
H1662 H 0.63184 0.22547 0.08868 0.0
H1663 H 0.62289 0.26822 0.16556 0.0
H1664 H 0.66437 0.22475 0.12347 0.0
H1665 H 0.59025 0.2696 0.13089 0.0
H1666 H 0.6382 0.25226 0.15019 0.0
H1667 H 0.61634 0.24156 0.10389 0.0
C1668 C 0.6357 0.22869 0.09953 0.0
C1669 C 0.64939 0.22378 0.10485 0.0
C1670 C 0.6277 0.25605 0.14591 0.0
C1671 C 0.63177 0.24217 0.12227 0.0
C1672 C 0.61896 0.26517 0.15469 0.0
C1673 C 0.60529 0.27023 0.14948 0.0
C1674 C 0.62274 0.25193 0.13181 0.0
C1675 C 0.60073 0.26594 0.13532 0.0
C1676 C 0.62687 0.23787 0.1082 0.0
C1677 C 0.65388 0.22828 0.11896 0.0
N1678 N 0.60944 0.25701 0.12697 0.0
N1679 N 0.6451 0.23722 0.12717 0.0
H1680 H 0.90389 0.7669 0.63322 0.0
H1681 H 0.82683 0.72441 0.62455 0.0
H1682 H 0.86974 0.76642 0.66644 0.0
H1683 H 0.86089 0.72374 0.59124 0.0
H1684 H 0.84267 0.73964 0.6401 0.0
H1685 H 0.88856 0.75096 0.61766 0.0
C1686 C 0.89318 0.76343 0.63723 0.0
C1687 C 0.88806 0.76799 0.65112 0.0
C1688 C 0.84672 0.73616 0.62941 0.0
C1689 C 0.8705 0.7498 0.63344 0.0
C1690 C 0.83767 0.72745 0.62052 0.0
C1691 C 0.84256 0.72283 0.60659 0.0
C1692 C 0.86077 0.74031 0.62432 0.0
C1693 C 0.85671 0.72708 0.60193 0.0
C1694 C 0.88444 0.75434 0.62836 0.0
C1695 C 0.87411 0.76317 0.6558 0.0
N1696 N 0.86532 0.73562 0.61077 0.0
N1697 N 0.86582 0.75436 0.64697 0.0
H1698 H 0.22591 0.86978 0.66696 0.0
H1699 H 0.26982 0.86325 0.59046 0.0
H1700 H 0.22493 0.90334 0.63316 0.0
H1701 H 0.27017 0.82965 0.62424 0.0
H1702 H 0.25371 0.87833 0.60604 0.0
H1703 H 0.24239 0.85507 0.65152 0.0
C1704 C 0.22916 0.87404 0.65627 0.0
C1705 C 0.22405 0.88778 0.65131 0.0
C1706 C 0.25733 0.86767 0.61005 0.0
C1707 C 0.24293 0.87102 0.63358 0.0
C1708 C 0.26653 0.85907 0.60118 0.0
C1709 C 0.27131 0.84518 0.60608 0.0
C1710 C 0.25288 0.86233 0.62392 0.0
C1711 C 0.26673 0.8403 0.62004 0.0
C1712 C 0.23858 0.86564 0.64746 0.0
C1713 C 0.22861 0.89278 0.63738 0.0
N1714 N 0.25776 0.84885 0.62846 0.0
N1715 N 0.23781 0.8844 0.62899 0.0
H1716 H 0.12303 0.22575 0.66608 0.0
H1717 H 0.13188 0.26814 0.58898 0.0
H1718 H 0.09041 0.22403 0.63141 0.0
H1719 H 0.16454 0.26874 0.62364 0.0
H1720 H 0.11629 0.25228 0.60435 0.0
H1721 H 0.13823 0.24177 0.65066 0.0
C1722 C 0.11908 0.22874 0.6552 0.0
C1723 C 0.10546 0.22356 0.65 0.0
C1724 C 0.12687 0.25589 0.60859 0.0
C1725 C 0.12279 0.24192 0.63227 0.0
C1726 C 0.13575 0.26495 0.59983 0.0
C1727 C 0.14951 0.26974 0.60506 0.0
C1728 C 0.1318 0.25162 0.62266 0.0
C1729 C 0.15401 0.26529 0.61919 0.0
C1730 C 0.12776 0.23789 0.64639 0.0
C1731 C 0.10086 0.22778 0.63582 0.0
N1732 N 0.14518 0.25648 0.62748 0.0
N1733 N 0.10952 0.23673 0.62744 0.0
H1734 H 0.76914 0.12404 0.66537 0.0
H1735 H 0.72424 0.13169 0.58959 0.0
H1736 H 0.76837 0.09023 0.63181 0.0
H1737 H 0.726 0.16561 0.62299 0.0
H1738 H 0.74025 0.1162 0.60488 0.0
H1739 H 0.75323 0.13936 0.64995 0.0
C1740 C 0.76563 0.11985 0.65473 0.0
C1741 C 0.77007 0.10585 0.64985 0.0
C1742 C 0.73712 0.12703 0.60886 0.0
C1743 C 0.75183 0.12332 0.63214 0.0
C1744 C 0.72798 0.13586 0.60015 0.0
C1745 C 0.7238 0.14994 0.60505 0.0
C1746 C 0.74209 0.13233 0.62257 0.0
C1747 C 0.72896 0.15482 0.6188 0.0
C1748 C 0.75654 0.1286 0.64593 0.0
C1749 C 0.7652 0.10097 0.63598 0.0
N1750 N 0.73784 0.14603 0.62708 0.0
N1751 N 0.75632 0.10969 0.62761 0.0
H1752 H 0.90341 0.22602 0.36207 0.0
H1753 H 0.82637 0.26874 0.36974 0.0
H1754 H 0.86979 0.22641 0.32833 0.0
H1755 H 0.8602 0.2694 0.40327 0.0
H1756 H 0.84218 0.25317 0.35445 0.0
H1757 H 0.88778 0.24182 0.37743 0.0
C1758 C 0.89273 0.22943 0.35791 0.0
C1759 C 0.88787 0.22491 0.34393 0.0
C1760 C 0.84617 0.25672 0.36514 0.0
C1761 C 0.86995 0.24296 0.36139 0.0
C1762 C 0.83715 0.26561 0.37387 0.0
C1763 C 0.842 0.27035 0.38778 0.0
C1764 C 0.86015 0.25251 0.37036 0.0
C1765 C 0.85605 0.26598 0.3926 0.0
C1766 C 0.88382 0.23845 0.36666 0.0
C1767 C 0.87396 0.22964 0.33905 0.0
N1768 N 0.86464 0.25728 0.3839 0.0
N1769 N 0.86549 0.23841 0.34777 0.0
H1770 H 0.77133 0.87003 0.32907 0.0
H1771 H 0.72458 0.86438 0.40393 0.0
H1772 H 0.76932 0.90498 0.36138 0.0
H1773 H 0.7269 0.82976 0.37129 0.0
H1774 H 0.74093 0.8795 0.38862 0.0
H1775 H 0.75511 0.85511 0.34456 0.0
C1776 C 0.76748 0.87455 0.33945 0.0
C1777 C 0.77166 0.88875 0.34396 0.0
C1778 C 0.73786 0.8686 0.38481 0.0
C1779 C 0.75306 0.87176 0.36175 0.0
C1780 C 0.72852 0.85998 0.39353 0.0
C1781 C 0.72439 0.84581 0.38885 0.0
C1782 C 0.74309 0.86299 0.37133 0.0
C1783 C 0.72981 0.84063 0.37531 0.0
C1784 C 0.75821 0.86604 0.34829 0.0
C1785 C 0.76636 0.89407 0.3575 0.0
N1786 N 0.73888 0.84922 0.36703 0.0
N1787 N 0.75731 0.88557 0.36593 0.0
H1788 H 0.13191 0.72312 0.4019 0.0
H1789 H 0.12382 0.76401 0.32392 0.0
H1790 H 0.16535 0.72265 0.36797 0.0
H1791 H 0.09052 0.76572 0.35796 0.0
H1792 H 0.13884 0.74821 0.33974 0.0
H1793 H 0.11619 0.73809 0.3858 0.0
C1794 C 0.13592 0.72613 0.39105 0.0
C1795 C 0.14995 0.72168 0.38625 0.0
C1796 C 0.12824 0.75202 0.34377 0.0
C1797 C 0.13208 0.73878 0.36782 0.0
C1798 C 0.11967 0.76104 0.33474 0.0
C1799 C 0.10593 0.7662 0.33966 0.0
C1800 C 0.12306 0.74811 0.35786 0.0
C1801 C 0.10107 0.76199 0.35375 0.0
C1802 C 0.12695 0.73468 0.38187 0.0
C1803 C 0.15461 0.72588 0.3721 0.0
N1804 N 0.10964 0.7532 0.36238 0.0
N1805 N 0.1457 0.7342 0.3634 0.0
H1806 H 0.22482 0.08815 0.36267 0.0
H1807 H 0.26888 0.1644 0.37057 0.0
H1808 H 0.22553 0.1221 0.32927 0.0
H1809 H 0.26948 0.13028 0.40381 0.0
H1810 H 0.25293 0.14895 0.35534 0.0
H1811 H 0.24105 0.10334 0.37804 0.0
C1812 C 0.22838 0.0988 0.35859 0.0
C1813 C 0.22383 0.10389 0.34469 0.0
C1814 C 0.25655 0.14481 0.36595 0.0
C1815 C 0.24238 0.12129 0.36216 0.0
C1816 C 0.26567 0.15363 0.37465 0.0
C1817 C 0.27049 0.14861 0.38846 0.0
C1818 C 0.2522 0.13085 0.37111 0.0
C1819 C 0.266 0.13457 0.39321 0.0
C1820 C 0.23766 0.10746 0.36735 0.0
C1821 C 0.22878 0.11776 0.33992 0.0
N1822 N 0.25707 0.12617 0.38455 0.0
N1823 N 0.23778 0.12598 0.34864 0.0
H1824 H 0.63193 0.90501 0.76756 0.0
H1825 H 0.62212 0.82697 0.72716 0.0
H1826 H 0.66421 0.87001 0.76901 0.0
H1827 H 0.59007 0.8621 0.72433 0.0
H1828 H 0.63758 0.84265 0.74265 0.0
H1829 H 0.61627 0.88952 0.75189 0.0
C1830 C 0.63571 0.89406 0.76459 0.0
C1831 C 0.64937 0.88876 0.76958 0.0
C1832 C 0.62718 0.84696 0.73865 0.0
C1833 C 0.63157 0.87102 0.75169 0.0
C1834 C 0.61835 0.83801 0.72979 0.0
C1835 C 0.6048 0.84326 0.72446 0.0
C1836 C 0.62243 0.86128 0.74223 0.0
C1837 C 0.60045 0.85764 0.72822 0.0
C1838 C 0.62678 0.88523 0.75564 0.0
C1839 C 0.65375 0.87452 0.7654 0.0
N1840 N 0.60924 0.86616 0.7369 0.0
N1841 N 0.64487 0.86614 0.75671 0.0
H1842 H 0.13152 0.58763 0.72331 0.0
H1843 H 0.12224 0.66507 0.76496 0.0
H1844 H 0.16301 0.62327 0.72047 0.0
H1845 H 0.09074 0.6295 0.76836 0.0
H1846 H 0.13718 0.64993 0.74841 0.0
H1847 H 0.11618 0.60285 0.73953 0.0
C1848 C 0.13518 0.59867 0.72607 0.0
C1849 C 0.14855 0.60421 0.72057 0.0
C1850 C 0.12701 0.64541 0.75277 0.0
C1851 C 0.13112 0.62164 0.73911 0.0
C1852 C 0.11849 0.65405 0.76223 0.0
C1853 C 0.10526 0.64851 0.76804 0.0
C1854 C 0.12227 0.63112 0.74909 0.0
C1855 C 0.10089 0.63418 0.76412 0.0
C1856 C 0.12644 0.60735 0.73534 0.0
C1857 C 0.15278 0.61857 0.72449 0.0
N1858 N 0.10938 0.62596 0.75488 0.0
N1859 N 0.1441 0.62679 0.73353 0.0
H1860 H 0.32655 0.12099 0.76487 0.0
H1861 H 0.4057 0.13137 0.72678 0.0
H1862 H 0.36293 0.09094 0.77146 0.0
H1863 H 0.36953 0.16197 0.7218 0.0
H1864 H 0.39018 0.11609 0.74279 0.0
H1865 H 0.34212 0.1359 0.74871 0.0
C1866 C 0.33784 0.11754 0.76292 0.0
C1867 C 0.34348 0.10473 0.76952 0.0
C1868 C 0.38564 0.12614 0.73818 0.0
C1869 C 0.36138 0.12172 0.75101 0.0
C1870 C 0.39448 0.13485 0.72904 0.0
C1871 C 0.38888 0.14795 0.72298 0.0
C1872 C 0.37109 0.13058 0.74125 0.0
C1873 C 0.37429 0.15196 0.72626 0.0
C1874 C 0.34673 0.12606 0.75369 0.0
C1875 C 0.35816 0.10076 0.7666 0.0
N1876 N 0.36591 0.14331 0.73517 0.0
N1877 N 0.36662 0.10923 0.75755 0.0
H1878 H 0.90454 0.36149 0.76865 0.0
H1879 H 0.82762 0.37052 0.72602 0.0
H1880 H 0.87008 0.3286 0.76882 0.0
H1881 H 0.86249 0.40294 0.72443 0.0
H1882 H 0.84298 0.35514 0.74194 0.0
H1883 H 0.88924 0.37704 0.75272 0.0
C1884 C 0.89374 0.35756 0.76534 0.0
C1885 C 0.88855 0.34375 0.77004 0.0
C1886 C 0.84729 0.36561 0.73811 0.0
C1887 C 0.87101 0.36143 0.75184 0.0
C1888 C 0.83853 0.37439 0.72902 0.0
C1889 C 0.84381 0.38801 0.72391 0.0
C1890 C 0.86145 0.37049 0.74215 0.0
C1891 C 0.85801 0.3925 0.72813 0.0
C1892 C 0.88502 0.36642 0.75625 0.0
C1893 C 0.8745 0.33917 0.76544 0.0
N1894 N 0.86634 0.38376 0.73703 0.0
N1895 N 0.86622 0.34799 0.7566 0.0
H1896 H 0.63121 0.08904 0.22547 0.0
H1897 H 0.62273 0.16601 0.26814 0.0
H1898 H 0.66419 0.12342 0.22519 0.0
H1899 H 0.5897 0.1317 0.26926 0.0
H1900 H 0.63802 0.15045 0.25235 0.0
H1901 H 0.61573 0.10441 0.24141 0.0
C1902 C 0.63518 0.09983 0.22875 0.0
C1903 C 0.64899 0.10498 0.22401 0.0
C1904 C 0.62744 0.1463 0.25604 0.0
C1905 C 0.63138 0.12259 0.24223 0.0
C1906 C 0.61871 0.15518 0.26507 0.0
C1907 C 0.60494 0.15012 0.27 0.0
C1908 C 0.62237 0.13224 0.2519 0.0
C1909 C 0.60026 0.136 0.26569 0.0
C1910 C 0.62635 0.10859 0.23786 0.0
C1911 C 0.65361 0.11903 0.22859 0.0
N1912 N 0.60897 0.12755 0.25686 0.0
N1913 N 0.64482 0.12734 0.23744 0.0
H1914 H 0.87089 0.66615 0.22821 0.0
H1915 H 0.86154 0.58917 0.27071 0.0
H1916 H 0.9028 0.63085 0.22592 0.0
H1917 H 0.82905 0.62401 0.27138 0.0
H1918 H 0.8772 0.60447 0.25488 0.0
H1919 H 0.85572 0.65103 0.24457 0.0
C1920 C 0.87469 0.6552 0.23115 0.0
C1921 C 0.8881 0.64972 0.22569 0.0
C1922 C 0.86665 0.60877 0.25851 0.0
C1923 C 0.87081 0.63236 0.24443 0.0
C1924 C 0.85773 0.60006 0.26755 0.0
C1925 C 0.84399 0.60534 0.27233 0.0
C1926 C 0.86179 0.62286 0.25423 0.0
C1927 C 0.83957 0.61951 0.26793 0.0
C1928 C 0.86603 0.64657 0.2405 0.0
C1929 C 0.89252 0.63548 0.22987 0.0
N1930 N 0.84844 0.62777 0.25911 0.0
N1931 N 0.88389 0.62728 0.239 0.0
H1932 H 0.32833 0.87107 0.22503 0.0
H1933 H 0.40502 0.86285 0.26824 0.0
H1934 H 0.36232 0.90445 0.22469 0.0
H1935 H 0.37078 0.82973 0.26831 0.0
H1936 H 0.38963 0.87833 0.25233 0.0
H1937 H 0.34383 0.85579 0.2409 0.0
C1938 C 0.33908 0.87517 0.22829 0.0
C1939 C 0.34406 0.88904 0.22355 0.0
C1940 C 0.38548 0.86768 0.25584 0.0
C1941 C 0.36187 0.87162 0.24173 0.0
C1942 C 0.39426 0.85885 0.26492 0.0
C1943 C 0.38915 0.845 0.26959 0.0
C1944 C 0.37151 0.86261 0.2514 0.0
C1945 C 0.37513 0.84034 0.26496 0.0
C1946 C 0.34793 0.86645 0.23736 0.0
C1947 C 0.35806 0.89382 0.22811 0.0
N1948 N 0.36681 0.84913 0.25612 0.0
N1949 N 0.36649 0.88512 0.23696 0.0
H1950 H 0.131 0.40344 0.26926 0.0
H1951 H 0.12371 0.32659 0.22616 0.0
H1952 H 0.16468 0.36975 0.26915 0.0
H1953 H 0.09008 0.36032 0.22558 0.0
H1954 H 0.13878 0.34224 0.2421 0.0
H1955 H 0.11568 0.38778 0.25348 0.0
C1956 C 0.13515 0.39274 0.26593 0.0
C1957 C 0.14912 0.38787 0.2705 0.0
C1958 C 0.12811 0.34624 0.23849 0.0
C1959 C 0.1317 0.36992 0.25246 0.0
C1960 C 0.11951 0.33731 0.22939 0.0
C1961 C 0.10564 0.34219 0.22455 0.0
C1962 C 0.12281 0.36016 0.2428 0.0
C1963 C 0.10072 0.35616 0.22906 0.0
C1964 C 0.12642 0.38381 0.25692 0.0
C1965 C 0.15398 0.37392 0.26587 0.0
N1966 N 0.1093 0.36467 0.23795 0.0
N1967 N 0.14528 0.36544 0.25709 0.0
H1968 H 0.77067 0.6668 0.86975 0.0
H1969 H 0.72868 0.58953 0.86046 0.0
H1970 H 0.77168 0.63239 0.90268 0.0
H1971 H 0.72802 0.62435 0.82796 0.0
H1972 H 0.74474 0.60475 0.876 0.0
H1973 H 0.75538 0.65107 0.85413 0.0
C1974 C 0.76769 0.6559 0.87368 0.0
C1975 C 0.77242 0.65088 0.88753 0.0
C1976 C 0.74109 0.60905 0.86546 0.0
C1977 C 0.75488 0.63281 0.86972 0.0
C1978 C 0.73193 0.60037 0.8566 0.0
C1979 C 0.72701 0.60571 0.84293 0.0
C1980 C 0.74534 0.62315 0.86059 0.0
C1981 C 0.73155 0.61982 0.83844 0.0
C1982 C 0.75895 0.64692 0.86476 0.0
C1983 C 0.76825 0.63667 0.89207 0.0
N1984 N 0.74044 0.62804 0.84725 0.0
N1985 N 0.75968 0.62813 0.88319 0.0
H1986 H 0.76948 0.328 0.12353 0.0
H1987 H 0.72441 0.40373 0.13079 0.0
H1988 H 0.76863 0.36134 0.08951 0.0
H1989 H 0.72605 0.37036 0.16475 0.0
H1990 H 0.74043 0.38839 0.11535 0.0
H1991 H 0.75347 0.34344 0.13872 0.0
C1992 C 0.76593 0.33859 0.11927 0.0
C1993 C 0.77038 0.34342 0.10525 0.0
C1994 C 0.73727 0.38442 0.12618 0.0
C1995 C 0.75202 0.36115 0.12256 0.0
C1996 C 0.72812 0.39316 0.13498 0.0
C1997 C 0.72391 0.38829 0.14905 0.0
C1998 C 0.74223 0.37073 0.13152 0.0
C1999 C 0.72903 0.37454 0.15396 0.0
C2000 C 0.75678 0.34741 0.12794 0.0
C2001 C 0.76545 0.35722 0.10027 0.0
N2002 N 0.73793 0.36624 0.14521 0.0
N2003 N 0.75651 0.36562 0.10892 0.0
H2004 H 0.63109 0.76862 0.0891 0.0
H2005 H 0.62336 0.72416 0.16514 0.0
H2006 H 0.66469 0.76754 0.12285 0.0
H2007 H 0.58983 0.72415 0.13132 0.0
H2008 H 0.63861 0.7401 0.14969 0.0
H2009 H 0.61568 0.75245 0.10432 0.0
C2010 C 0.63521 0.76499 0.09972 0.0
C2011 C 0.64917 0.76942 0.10474 0.0
C2012 C 0.62793 0.73662 0.14561 0.0
C2013 C 0.63166 0.75094 0.12217 0.0
C2014 C 0.61922 0.7275 0.15443 0.0
C2015 C 0.60532 0.72284 0.14949 0.0
C2016 C 0.62269 0.74113 0.13173 0.0
C2017 C 0.60049 0.7275 0.13553 0.0
C2018 C 0.62642 0.75576 0.10839 0.0
C2019 C 0.65398 0.76439 0.11856 0.0
N2020 N 0.60917 0.73642 0.12714 0.0
N2021 N 0.64524 0.75542 0.12679 0.0
H2022 H 0.26641 0.62495 0.16673 0.0
H2023 H 0.22363 0.63224 0.08969 0.0
H2024 H 0.26695 0.591 0.13332 0.0
H2025 H 0.22479 0.66631 0.12297 0.0
H2026 H 0.23903 0.61665 0.10555 0.0
H2027 H 0.25073 0.64 0.15087 0.0
C2028 C 0.26322 0.62066 0.15603 0.0
C2029 C 0.26799 0.60672 0.15131 0.0
C2030 C 0.2359 0.62753 0.10938 0.0
C2031 C 0.25 0.62389 0.13307 0.0
C2032 C 0.2271 0.63642 0.10034 0.0
C2033 C 0.22296 0.65058 0.10503 0.0
C2034 C 0.24053 0.63286 0.12318 0.0
C2035 C 0.22775 0.65546 0.11892 0.0
C2036 C 0.25426 0.62926 0.14697 0.0
C2037 C 0.26352 0.60171 0.13736 0.0
N2038 N 0.23628 0.64663 0.12749 0.0
N2039 N 0.25476 0.6103 0.12871 0.0
H2040 H 0.32758 0.22659 0.12208 0.0
H2041 H 0.4048 0.26856 0.13171 0.0
H2042 H 0.36285 0.22426 0.09014 0.0
H2043 H 0.36945 0.27027 0.16361 0.0
H2044 H 0.38966 0.25244 0.11621 0.0
H2045 H 0.34284 0.24265 0.1374 0.0
C2046 C 0.33856 0.22945 0.11831 0.0
C2047 C 0.34398 0.2241 0.10483 0.0
C2048 C 0.38521 0.25635 0.12659 0.0
C2049 C 0.36151 0.24251 0.12229 0.0
C2050 C 0.39384 0.26556 0.13543 0.0
C2051 C 0.38835 0.27075 0.14895 0.0
C2052 C 0.371 0.25232 0.13132 0.0
C2053 C 0.3741 0.26652 0.15326 0.0
C2054 C 0.34727 0.23863 0.12705 0.0
C2055 C 0.35827 0.22816 0.10047 0.0
N2056 N 0.36592 0.25754 0.14447 0.0
N2057 N 0.36655 0.23714 0.10918 0.0
H2058 H 0.26921 0.40474 0.8634 0.0
H2059 H 0.22442 0.3289 0.87132 0.0
H2060 H 0.26808 0.37086 0.82993 0.0
H2061 H 0.22428 0.36298 0.9046 0.0
H2062 H 0.24064 0.34413 0.85613 0.0
H2063 H 0.25305 0.38957 0.87888 0.0
C2064 C 0.26558 0.39409 0.85934 0.0
C2065 C 0.26997 0.38903 0.84538 0.0
C2066 C 0.23706 0.3483 0.86675 0.0
C2067 C 0.2515 0.37167 0.86296 0.0
C2068 C 0.22779 0.33961 0.87542 0.0
C2069 C 0.223 0.3447 0.88922 0.0
C2070 C 0.24161 0.3622 0.87192 0.0
C2071 C 0.22772 0.35865 0.89401 0.0
C2072 C 0.25635 0.38545 0.86816 0.0
C2073 C 0.26495 0.37518 0.84062 0.0
N2074 N 0.23678 0.36692 0.88537 0.0
N2075 N 0.25598 0.36699 0.8494 0.0
H2076 H 0.66546 0.22651 0.87082 0.0
H2077 H 0.58847 0.26913 0.86223 0.0
H2078 H 0.63079 0.22469 0.90345 0.0
H2079 H 0.62326 0.27009 0.82969 0.0
H2080 H 0.60372 0.25298 0.87763 0.0
H2081 H 0.65004 0.24256 0.85567 0.0
C2082 C 0.65458 0.22948 0.87478 0.0
C2083 C 0.64938 0.22427 0.8884 0.0
C2084 C 0.60801 0.25674 0.86713 0.0
C2085 C 0.63166 0.24268 0.87113 0.0
C2086 C 0.59933 0.26596 0.85835 0.0
C2087 C 0.60463 0.27094 0.84468 0.0
C2088 C 0.62209 0.25249 0.86218 0.0
C2089 C 0.61875 0.2665 0.84016 0.0
C2090 C 0.64577 0.23865 0.86613 0.0
C2091 C 0.6352 0.22847 0.893 0.0
N2092 N 0.62698 0.25753 0.84889 0.0
N2093 N 0.62682 0.23745 0.88438 0.0
H2094 H 0.34061 0.74785 0.90291 0.0
H2095 H 0.40653 0.74192 0.8443 0.0
H2096 H 0.36261 0.78568 0.88409 0.0
H2097 H 0.37974 0.70494 0.85787 0.0
H2098 H 0.39254 0.75784 0.86106 0.0
H2099 H 0.35689 0.73167 0.88873 0.0
C2100 C 0.34894 0.75274 0.89587 0.0
C2101 C 0.35023 0.76812 0.8946 0.0
C2102 C 0.38977 0.74623 0.86042 0.0
C2103 C 0.36885 0.74969 0.87833 0.0
C2104 C 0.39777 0.73714 0.85088 0.0
C2105 C 0.39422 0.72212 0.84966 0.0
C2106 C 0.37819 0.74023 0.8688 0.0
C2107 C 0.38278 0.71648 0.85844 0.0
C2108 C 0.35821 0.74351 0.88775 0.0
C2109 C 0.36122 0.77388 0.88534 0.0
N2110 N 0.37514 0.72555 0.86761 0.0
N2111 N 0.37008 0.76466 0.87751 0.0
H2112 H 0.08806 0.21305 0.26787 0.0
H2113 H 0.05872 0.29217 0.24167 0.0
H2114 H 0.05923 0.24061 0.29392 0.0
H2115 H 0.08819 0.26512 0.2158 0.0
H2116 H 0.0573 0.27254 0.26011 0.0
H2117 H 0.08681 0.23113 0.24786 0.0
C2118 C 0.08139 0.22286 0.26934 0.0
C2119 C 0.0738 0.22539 0.28259 0.0
C2120 C 0.06402 0.27085 0.25037 0.0
C2121 C 0.07236 0.24613 0.25979 0.0
C2122 C 0.06483 0.28205 0.23984 0.0
C2123 C 0.07366 0.28028 0.22725 0.0
C2124 C 0.07215 0.2578 0.24832 0.0
C2125 C 0.0813 0.26694 0.22539 0.0
C2126 C 0.08069 0.23318 0.25792 0.0
C2127 C 0.06531 0.23827 0.2839 0.0
N2128 N 0.08043 0.25624 0.23586 0.0
N2129 N 0.06487 0.24819 0.27267 0.0
H2130 H 0.77919 0.08943 0.26673 0.0
H2131 H 0.70026 0.05888 0.24133 0.0
H2132 H 0.75272 0.05949 0.29267 0.0
H2133 H 0.72633 0.08922 0.21544 0.0
H2134 H 0.72014 0.0577 0.2595 0.0
H2135 H 0.76075 0.08824 0.24705 0.0
C2136 C 0.76954 0.08253 0.26824 0.0
C2137 C 0.76743 0.0746 0.28137 0.0
C2138 C 0.72156 0.06457 0.24982 0.0
C2139 C 0.74628 0.07323 0.25895 0.0
C2140 C 0.71021 0.06524 0.23944 0.0
C2141 C 0.71163 0.07422 0.22691 0.0
C2142 C 0.73441 0.07298 0.24768 0.0
C2143 C 0.72477 0.08219 0.22498 0.0
C2144 C 0.75901 0.08187 0.25701 0.0
C2145 C 0.75474 0.06583 0.28274 0.0
N2146 N 0.73563 0.08144 0.2353 0.0
N2147 N 0.74462 0.06543 0.2717 0.0
H2148 H 0.90532 0.72633 0.21434 0.0
H2149 H 0.9364 0.75252 0.29278 0.0
H2150 H 0.93552 0.70072 0.24082 0.0
H2151 H 0.90563 0.77798 0.26683 0.0
H2152 H 0.93767 0.73431 0.27295 0.0
H2153 H 0.90675 0.74627 0.23249 0.0
C2154 C 0.91234 0.72495 0.22393 0.0
C2155 C 0.92025 0.71183 0.22615 0.0
C2156 C 0.93069 0.74391 0.27155 0.0
C2157 C 0.92189 0.73454 0.24697 0.0
C2158 C 0.92997 0.75431 0.28287 0.0
C2159 C 0.92082 0.76672 0.28147 0.0
C2160 C 0.92217 0.7459 0.25875 0.0
C2161 C 0.91277 0.76853 0.26837 0.0
C2162 C 0.91314 0.73633 0.23429 0.0
C2163 C 0.92919 0.71063 0.23873 0.0
N2164 N 0.91357 0.75818 0.25754 0.0
N2165 N 0.9297 0.72181 0.2487 0.0
H2166 H 0.21402 0.90493 0.26547 0.0
H2167 H 0.29316 0.93554 0.24085 0.0
H2168 H 0.24034 0.93461 0.29185 0.0
H2169 H 0.26694 0.90596 0.21428 0.0
H2170 H 0.27317 0.93662 0.25892 0.0
H2171 H 0.2325 0.90643 0.24585 0.0
C2172 C 0.22365 0.91183 0.26709 0.0
C2173 C 0.22571 0.91959 0.28032 0.0
C2174 C 0.27174 0.92995 0.2491 0.0
C2175 C 0.24691 0.92132 0.25797 0.0
C2176 C 0.28315 0.92934 0.23879 0.0
C2177 C 0.28172 0.92058 0.22611 0.0
C2178 C 0.25882 0.9217 0.24675 0.0
C2179 C 0.26851 0.9128 0.22395 0.0
C2180 C 0.2342 0.91268 0.25589 0.0
C2181 C 0.23835 0.9284 0.28183 0.0
N2182 N 0.25759 0.91348 0.23421 0.0
N2183 N 0.24851 0.92896 0.27082 0.0
H2184 H 0.08811 0.72527 0.77918 0.0
H2185 H 0.05736 0.7514 0.7006 0.0
H2186 H 0.05821 0.69949 0.75254 0.0
H2187 H 0.0872 0.77734 0.72716 0.0
H2188 H 0.05616 0.73305 0.72033 0.0
H2189 H 0.08656 0.74526 0.7611 0.0
C2190 C 0.08114 0.72386 0.76957 0.0
C2191 C 0.07334 0.71069 0.76729 0.0
C2192 C 0.06291 0.74278 0.72189 0.0
C2193 C 0.07156 0.73345 0.74654 0.0
C2194 C 0.06359 0.75326 0.71063 0.0
C2195 C 0.07246 0.76585 0.71223 0.0
C2196 C 0.0712 0.74488 0.73482 0.0
C2197 C 0.08027 0.76775 0.72547 0.0
C2198 C 0.08027 0.73527 0.75925 0.0
C2199 C 0.06445 0.70945 0.75468 0.0
N2200 N 0.07952 0.75733 0.73623 0.0
N2201 N 0.06387 0.72066 0.74474 0.0
H2202 H 0.2651 0.08374 0.78108 0.0
H2203 H 0.24121 0.05703 0.70032 0.0
H2204 H 0.29353 0.0592 0.75177 0.0
H2205 H 0.21383 0.08413 0.72835 0.0
H2206 H 0.25951 0.05555 0.72007 0.0
H2207 H 0.24521 0.08184 0.76294 0.0
C2208 C 0.26712 0.07786 0.77087 0.0
C2209 C 0.281 0.07171 0.76786 0.0
C2210 C 0.24947 0.06175 0.72195 0.0
C2211 C 0.25834 0.06954 0.74705 0.0
C2212 C 0.23901 0.06259 0.71068 0.0
C2213 C 0.22605 0.0708 0.71268 0.0
C2214 C 0.24695 0.06921 0.73531 0.0
C2215 C 0.22372 0.07774 0.72633 0.0
C2216 C 0.25577 0.0768 0.76051 0.0
C2217 C 0.283 0.06417 0.75448 0.0
N2218 N 0.23412 0.07685 0.7371 0.0
N2219 N 0.27182 0.06337 0.74453 0.0
H2220 H 0.9065 0.26576 0.77945 0.0
H2221 H 0.93459 0.24187 0.69913 0.0
H2222 H 0.9334 0.29341 0.7515 0.0
H2223 H 0.90668 0.21466 0.72653 0.0
H2224 H 0.9358 0.26013 0.71895 0.0
H2225 H 0.90793 0.24615 0.76097 0.0
C2226 C 0.91278 0.26767 0.76946 0.0
C2227 C 0.91977 0.28125 0.76695 0.0
C2228 C 0.92947 0.25013 0.72067 0.0
C2229 C 0.92143 0.2589 0.74574 0.0
C2230 C 0.92878 0.23971 0.70936 0.0
C2231 C 0.92046 0.22679 0.71118 0.0
C2232 C 0.92174 0.24763 0.73388 0.0
C2233 C 0.91318 0.22451 0.72466 0.0
C2234 C 0.91359 0.25648 0.7589 0.0
C2235 C 0.92779 0.28312 0.75384 0.0
N2236 N 0.91393 0.23487 0.73547 0.0
N2237 N 0.92834 0.2721 0.74369 0.0
H2238 H 0.70047 0.93512 0.75189 0.0
H2239 H 0.77966 0.90525 0.72645 0.0
H2240 H 0.72685 0.90506 0.77776 0.0
H2241 H 0.75282 0.93474 0.70039 0.0
H2242 H 0.76127 0.90641 0.74619 0.0
H2243 H 0.72033 0.93649 0.7337 0.0
C2244 C 0.71049 0.92886 0.75377 0.0
C2245 C 0.712 0.9199 0.76629 0.0
C2246 C 0.75944 0.91269 0.73619 0.0
C2247 C 0.73476 0.92136 0.74551 0.0
C2248 C 0.76994 0.91204 0.72493 0.0
C2249 C 0.7677 0.91984 0.71175 0.0
C2250 C 0.74661 0.92118 0.73422 0.0
C2251 C 0.75494 0.9285 0.71036 0.0
C2252 C 0.72182 0.92964 0.74338 0.0
C2253 C 0.72522 0.91206 0.76822 0.0
N2254 N 0.74484 0.92888 0.72143 0.0
N2255 N 0.73607 0.91291 0.75789 0.0
H2256 H 0.2134 0.08834 0.26711 0.0
H2257 H 0.2925 0.05903 0.24083 0.0
H2258 H 0.24062 0.05887 0.29281 0.0
H2259 H 0.26551 0.08866 0.21509 0.0
H2260 H 0.27284 0.0575 0.25922 0.0
H2261 H 0.23156 0.08728 0.24717 0.0
C2262 C 0.22316 0.08158 0.26851 0.0
C2263 C 0.22557 0.07374 0.28165 0.0
C2264 C 0.27117 0.06428 0.24952 0.0
C2265 C 0.2464 0.07252 0.25893 0.0
C2266 C 0.28239 0.06515 0.23902 0.0
C2267 C 0.28065 0.07405 0.22647 0.0
C2268 C 0.25812 0.07241 0.24749 0.0
C2269 C 0.26731 0.0817 0.22464 0.0
C2270 C 0.23353 0.08098 0.25713 0.0
C2271 C 0.23837 0.06513 0.28288 0.0
N2272 N 0.25658 0.08077 0.23509 0.0
N2273 N 0.24835 0.06481 0.27169 0.0
H2274 H 0.93556 0.29382 0.24064 0.0
H2275 H 0.90518 0.21498 0.26652 0.0
H2276 H 0.90606 0.26707 0.2145 0.0
H2277 H 0.93412 0.24217 0.29283 0.0
H2278 H 0.90674 0.2331 0.24657 0.0
H2279 H 0.93658 0.27419 0.2591 0.0
C2280 C 0.92937 0.28377 0.23875 0.0
C2281 C 0.92064 0.28208 0.22608 0.0
C2282 C 0.91281 0.23507 0.25668 0.0
C2283 C 0.9217 0.2596 0.24718 0.0
C2284 C 0.91193 0.22473 0.26806 0.0
C2285 C 0.91947 0.22713 0.28136 0.0
C2286 C 0.92127 0.24792 0.25863 0.0
C2287 C 0.92808 0.23992 0.28277 0.0
C2288 C 0.92994 0.27257 0.2493 0.0
C2289 C 0.91288 0.26883 0.22416 0.0
N2290 N 0.92869 0.24987 0.27157 0.0
N2291 N 0.91353 0.25812 0.23464 0.0
H2292 H 0.75409 0.93457 0.29332 0.0
H2293 H 0.72875 0.90453 0.21416 0.0
H2294 H 0.78029 0.90488 0.26683 0.0
H2295 H 0.7025 0.93374 0.24113 0.0
H2296 H 0.74848 0.90573 0.23256 0.0
H2297 H 0.73578 0.93563 0.27357 0.0
C2298 C 0.75602 0.92833 0.2833 0.0
C2299 C 0.76868 0.91956 0.28172 0.0
C2300 C 0.73844 0.91193 0.23442 0.0
C2301 C 0.74776 0.92068 0.25908 0.0
C2302 C 0.72718 0.91126 0.22392 0.0
C2303 C 0.71396 0.91899 0.22618 0.0
C2304 C 0.73643 0.92038 0.24727 0.0
C2305 C 0.7125 0.92756 0.23899 0.0
C2306 C 0.74556 0.92893 0.27203 0.0
C2307 C 0.77065 0.91174 0.2685 0.0
N2308 N 0.72358 0.92798 0.24908 0.0
N2309 N 0.76026 0.91243 0.25771 0.0
H2310 H 0.05308 0.70796 0.22717 0.0
H2311 H 0.09744 0.77397 0.26562 0.0
H2312 H 0.09886 0.71752 0.21805 0.0
H2313 H 0.05644 0.75642 0.28238 0.0
H2314 H 0.09652 0.75604 0.2454 0.0
H2315 H 0.05256 0.72847 0.2447 0.0
C2316 C 0.06299 0.71447 0.22876 0.0
C2317 C 0.07607 0.71099 0.22124 0.0
C2318 C 0.0877 0.75618 0.25347 0.0
C2319 C 0.07554 0.73444 0.24126 0.0
C2320 C 0.08819 0.76642 0.26497 0.0
C2321 C 0.07705 0.76659 0.27572 0.0
C2322 C 0.07592 0.74613 0.25267 0.0
C2323 C 0.06531 0.75659 0.27436 0.0
C2324 C 0.0627 0.72613 0.2388 0.0
C2325 C 0.08857 0.71978 0.2237 0.0
N2326 N 0.06506 0.74674 0.26306 0.0
N2327 N 0.08802 0.73109 0.23355 0.0
H2328 H 0.21331 0.90756 0.72907 0.0
H2329 H 0.29483 0.93337 0.75108 0.0
H2330 H 0.24169 0.93291 0.70041 0.0
H2331 H 0.266 0.90927 0.78037 0.0
H2332 H 0.27488 0.93474 0.73299 0.0
H2333 H 0.23183 0.90944 0.74862 0.0
C2334 C 0.22341 0.9136 0.72693 0.0
C2335 C 0.22603 0.92001 0.71309 0.0
C2336 C 0.27287 0.92923 0.74341 0.0
C2337 C 0.24728 0.92216 0.73534 0.0
C2338 C 0.28426 0.92845 0.75374 0.0
C2339 C 0.28208 0.92111 0.76719 0.0
C2340 C 0.25922 0.92255 0.74653 0.0
C2341 C 0.26816 0.91498 0.77009 0.0
C2342 C 0.23397 0.91467 0.73809 0.0
C2343 C 0.23926 0.92775 0.71091 0.0
N2344 N 0.25728 0.91576 0.7598 0.0
N2345 N 0.24943 0.92853 0.72189 0.0
H2346 H 0.05878 0.24087 0.70008 0.0
H2347 H 0.08715 0.26542 0.78007 0.0
H2348 H 0.08725 0.21408 0.72729 0.0
H2349 H 0.05954 0.29249 0.75225 0.0
H2350 H 0.08578 0.24566 0.76173 0.0
H2351 H 0.05736 0.25907 0.71992 0.0
C2352 C 0.06466 0.23878 0.71027 0.0
C2353 C 0.07321 0.226 0.71203 0.0
C2354 C 0.07995 0.25589 0.75967 0.0
C2355 C 0.07171 0.2468 0.73476 0.0
C2356 C 0.08072 0.26716 0.77014 0.0
C2357 C 0.07352 0.28063 0.76762 0.0
C2358 C 0.07194 0.25812 0.74658 0.0
C2359 C 0.06532 0.2823 0.75459 0.0
C2360 C 0.06386 0.24918 0.7216 0.0
C2361 C 0.08057 0.22382 0.72547 0.0
N2362 N 0.06481 0.2712 0.74453 0.0
N2363 N 0.07972 0.23417 0.7363 0.0
H2364 H 0.728 0.087 0.78014 0.0
H2365 H 0.75176 0.05972 0.69951 0.0
H2366 H 0.70032 0.06045 0.75189 0.0
H2367 H 0.77928 0.08695 0.72725 0.0
H2368 H 0.73353 0.05839 0.71933 0.0
H2369 H 0.74766 0.08565 0.76167 0.0
C2370 C 0.7261 0.08081 0.77008 0.0
C2371 C 0.7125 0.07389 0.76749 0.0
C2372 C 0.74358 0.0646 0.72113 0.0
C2373 C 0.73489 0.07234 0.74631 0.0
C2374 C 0.754 0.06535 0.70981 0.0
C2375 C 0.767 0.07353 0.71173 0.0
C2376 C 0.74617 0.07211 0.73444 0.0
C2377 C 0.76936 0.08057 0.72531 0.0
C2378 C 0.73732 0.08006 0.75954 0.0
C2379 C 0.71063 0.066 0.7543 0.0
N2380 N 0.759 0.07976 0.73613 0.0
N2381 N 0.72167 0.0655 0.74417 0.0
H2382 H 0.89328 0.71871 0.77367 0.0
H2383 H 0.93754 0.75777 0.70844 0.0
H2384 H 0.9392 0.71008 0.76441 0.0
H2385 H 0.89589 0.77411 0.7248 0.0
H2386 H 0.93816 0.7399 0.72865 0.0
H2387 H 0.89373 0.73883 0.75562 0.0
C2388 C 0.90347 0.72112 0.7679 0.0
C2389 C 0.9162 0.7127 0.77047 0.0
C2390 C 0.92893 0.74746 0.72789 0.0
C2391 C 0.91678 0.73555 0.74976 0.0
C2392 C 0.92856 0.75763 0.71634 0.0
C2393 C 0.91662 0.76737 0.71494 0.0
C2394 C 0.91718 0.74691 0.738 0.0
C2395 C 0.9053 0.76677 0.72549 0.0
C2396 C 0.90373 0.73261 0.75763 0.0
C2397 C 0.92913 0.71629 0.76274 0.0
N2398 N 0.90579 0.75661 0.73652 0.0
N2399 N 0.92905 0.72737 0.75264 0.0
H2400 H 0.24247 0.29463 0.05877 0.0
H2401 H 0.26654 0.21393 0.08554 0.0
H2402 H 0.21558 0.26695 0.0867 0.0
H2403 H 0.29415 0.24243 0.05917 0.0
H2404 H 0.24684 0.23233 0.08431 0.0
H2405 H 0.26063 0.27476 0.057 0.0
C2406 C 0.24035 0.28432 0.06446 0.0
C2407 C 0.22756 0.28245 0.07297 0.0
C2408 C 0.25717 0.23453 0.07872 0.0
C2409 C 0.24829 0.25969 0.07106 0.0
C2410 C 0.26841 0.22402 0.07941 0.0
C2411 C 0.28202 0.22671 0.07253 0.0
C2412 C 0.25957 0.24783 0.07111 0.0
C2413 C 0.28385 0.23995 0.0647 0.0
C2414 C 0.25072 0.27299 0.06346 0.0
C2415 C 0.22533 0.26887 0.08008 0.0
N2416 N 0.27278 0.25005 0.06427 0.0
N2417 N 0.23564 0.25803 0.07902 0.0
H2418 H 0.21847 0.72584 0.89531 0.0
H2419 H 0.28373 0.76504 0.94009 0.0
H2420 H 0.23516 0.70993 0.93699 0.0
H2421 H 0.27553 0.77283 0.89381 0.0
H2422 H 0.26314 0.7476 0.94054 0.0
H2423 H 0.2366 0.7459 0.89603 0.0
C2424 C 0.22587 0.72665 0.90467 0.0
C2425 C 0.2254 0.71618 0.91607 0.0
C2426 C 0.2658 0.75318 0.93031 0.0
C2427 C 0.24608 0.73905 0.91697 0.0
C2428 C 0.27751 0.76317 0.93005 0.0
C2429 C 0.28138 0.7703 0.91686 0.0
C2430 C 0.25784 0.75039 0.91731 0.0
C2431 C 0.27295 0.76748 0.90419 0.0
C2432 C 0.23623 0.73805 0.90504 0.0
C2433 C 0.23523 0.71773 0.92793 0.0
N2434 N 0.26158 0.7577 0.90471 0.0
N2435 N 0.24518 0.72893 0.92807 0.0
H2436 H 0.21231 0.267 0.90955 0.0
H2437 H 0.29416 0.24401 0.93347 0.0
H2438 H 0.24172 0.29545 0.93394 0.0
H2439 H 0.26486 0.21557 0.90895 0.0
H2440 H 0.27441 0.26227 0.9354 0.0
H2441 H 0.23071 0.24731 0.91086 0.0
C2442 C 0.22261 0.26906 0.91527 0.0
C2443 C 0.22555 0.28289 0.92157 0.0
C2444 C 0.27226 0.252 0.92967 0.0
C2445 C 0.24667 0.26046 0.92305 0.0
C2446 C 0.28353 0.24158 0.92858 0.0
C2447 C 0.28115 0.22831 0.92096 0.0
C2448 C 0.25852 0.24917 0.92306 0.0
C2449 C 0.26717 0.2257 0.91486 0.0
C2450 C 0.23311 0.25782 0.916 0.0
C2451 C 0.23904 0.28496 0.92888 0.0
N2452 N 0.2564 0.23607 0.91597 0.0
N2453 N 0.24914 0.27389 0.92934 0.0
H2454 H 0.69901 0.24262 0.93463 0.0
H2455 H 0.77918 0.26717 0.90671 0.0
H2456 H 0.72678 0.21556 0.90695 0.0
H2457 H 0.75086 0.29468 0.93337 0.0
H2458 H 0.76092 0.24735 0.90825 0.0
H2459 H 0.71868 0.26104 0.93589 0.0
C2460 C 0.70929 0.24052 0.92889 0.0
C2461 C 0.71125 0.2276 0.9206 0.0
C2462 C 0.75873 0.25769 0.91383 0.0
C2463 C 0.73378 0.24863 0.92194 0.0
C2464 C 0.76915 0.269 0.91296 0.0
C2465 C 0.76647 0.2826 0.91985 0.0
C2466 C 0.74552 0.26002 0.92162 0.0
C2467 C 0.75333 0.28438 0.92784 0.0
C2468 C 0.72051 0.25104 0.92961 0.0
C2469 C 0.72479 0.22541 0.91342 0.0
N2470 N 0.7433 0.27324 0.92844 0.0
N2471 N 0.73552 0.23586 0.91419 0.0
H2472 H 0.72739 0.78104 0.90775 0.0
H2473 H 0.75111 0.6998 0.93309 0.0
H2474 H 0.69918 0.75174 0.93255 0.0
H2475 H 0.77955 0.72913 0.90859 0.0
H2476 H 0.73252 0.71929 0.93434 0.0
H2477 H 0.74721 0.76278 0.90924 0.0
C2478 C 0.7254 0.77079 0.91358 0.0
C2479 C 0.71161 0.76785 0.91997 0.0
C2480 C 0.74285 0.72151 0.92876 0.0
C2481 C 0.73419 0.74689 0.92168 0.0
C2482 C 0.75347 0.71038 0.92805 0.0
C2483 C 0.76685 0.71285 0.92066 0.0
C2484 C 0.74561 0.73518 0.92198 0.0
C2485 C 0.76935 0.72677 0.91435 0.0
C2486 C 0.73671 0.76037 0.91442 0.0
C2487 C 0.70963 0.75442 0.92742 0.0
N2488 N 0.7588 0.73739 0.91509 0.0
N2489 N 0.72077 0.74441 0.92801 0.0
H2490 H 0.75343 0.70123 0.05768 0.0
H2491 H 0.72653 0.77917 0.08947 0.0
H2492 H 0.7782 0.72674 0.08938 0.0
H2493 H 0.70135 0.75298 0.05866 0.0
H2494 H 0.74648 0.76102 0.08816 0.0
H2495 H 0.73515 0.72101 0.05644 0.0
C2496 C 0.75506 0.71104 0.06432 0.0
C2497 C 0.76729 0.71232 0.07372 0.0
C2498 C 0.73662 0.75928 0.08163 0.0
C2499 C 0.74639 0.73498 0.07241 0.0
C2500 C 0.72524 0.76964 0.08236 0.0
C2501 C 0.71225 0.76751 0.07422 0.0
C2502 C 0.73498 0.7467 0.0727 0.0
C2503 C 0.71117 0.75501 0.06517 0.0
C2504 C 0.74461 0.72233 0.06361 0.0
C2505 C 0.76889 0.72529 0.08203 0.0
N2506 N 0.72235 0.74504 0.0647 0.0
N2507 N 0.75851 0.73609 0.08124 0.0
H2508 H 0.24378 0.70004 0.0603 0.0
H2509 H 0.26751 0.78111 0.08614 0.0
H2510 H 0.21531 0.72917 0.08501 0.0
H2511 H 0.29552 0.75212 0.06074 0.0
H2512 H 0.2477 0.76283 0.08463 0.0
H2513 H 0.26232 0.71957 0.05911 0.0
C2514 C 0.2414 0.71058 0.06541 0.0
C2515 C 0.22803 0.71298 0.07283 0.0
C2516 C 0.25815 0.7605 0.07931 0.0
C2517 C 0.24921 0.73537 0.07158 0.0
C2518 C 0.26945 0.77093 0.08017 0.0
C2519 C 0.28319 0.76808 0.07362 0.0
C2520 C 0.26062 0.74711 0.07189 0.0
C2521 C 0.28511 0.75474 0.06599 0.0
C2522 C 0.25199 0.72174 0.06473 0.0
C2523 C 0.2255 0.72686 0.07922 0.0
N2524 N 0.27397 0.74472 0.06541 0.0
N2525 N 0.23604 0.73751 0.07851 0.0
H2526 H 0.7269 0.2143 0.08912 0.0
H2527 H 0.7528 0.29307 0.05856 0.0
H2528 H 0.70092 0.24108 0.0595 0.0
H2529 H 0.7787 0.26663 0.08854 0.0
H2530 H 0.73441 0.27338 0.05749 0.0
H2531 H 0.74672 0.23257 0.08782 0.0
C2532 C 0.72541 0.22399 0.08228 0.0
C2533 C 0.71223 0.22623 0.07447 0.0
C2534 C 0.74414 0.27184 0.06425 0.0
C2535 C 0.73482 0.24719 0.07295 0.0
C2536 C 0.75465 0.28308 0.06486 0.0
C2537 C 0.76724 0.28149 0.07371 0.0
C2538 C 0.74622 0.25894 0.0726 0.0
C2539 C 0.76911 0.26831 0.08161 0.0
C2540 C 0.73672 0.23442 0.08154 0.0
C2541 C 0.71089 0.23895 0.06575 0.0
N2542 N 0.75867 0.25756 0.08093 0.0
N2543 N 0.72202 0.24899 0.06527 0.0
H2544 H 0.55821 0.79276 0.74295 0.0
H2545 H 0.58738 0.7131 0.76757 0.0
H2546 H 0.58666 0.76564 0.71604 0.0
H2547 H 0.55858 0.74014 0.79419 0.0
H2548 H 0.58594 0.73147 0.74784 0.0
H2549 H 0.5569 0.7729 0.76114 0.0
C2550 C 0.56411 0.78259 0.74084 0.0
C2551 C 0.57262 0.78086 0.72802 0.0
C2552 C 0.57987 0.73335 0.75796 0.0
C2553 C 0.57124 0.7581 0.7488 0.0
C2554 C 0.58067 0.72286 0.76922 0.0
C2555 C 0.57315 0.72516 0.78255 0.0
C2556 C 0.57151 0.74624 0.76008 0.0
C2557 C 0.5646 0.73797 0.7841 0.0
C2558 C 0.56337 0.77124 0.75123 0.0
C2559 C 0.58001 0.76744 0.72581 0.0
N2560 N 0.56408 0.74808 0.77303 0.0
N2561 N 0.57922 0.75659 0.73614 0.0
H2562 H 0.22636 0.58735 0.71201 0.0
H2563 H 0.24943 0.56152 0.7933 0.0
H2564 H 0.19872 0.56062 0.74013 0.0
H2565 H 0.27753 0.58751 0.76493 0.0
H2566 H 0.23119 0.56009 0.77349 0.0
H2567 H 0.24574 0.58657 0.73078 0.0
C2568 C 0.22441 0.58125 0.7221 0.0
C2569 C 0.21091 0.57409 0.72456 0.0
C2570 C 0.24137 0.56606 0.77156 0.0
C2571 C 0.23298 0.57319 0.74609 0.0
C2572 C 0.25178 0.56687 0.78287 0.0
C2573 C 0.26497 0.57469 0.78076 0.0
C2574 C 0.24414 0.57316 0.75806 0.0
C2575 C 0.26747 0.58139 0.76702 0.0
C2576 C 0.23547 0.58081 0.73282 0.0
C2577 C 0.20896 0.56633 0.73782 0.0
N2578 N 0.25712 0.58053 0.75621 0.0
N2579 N 0.21985 0.56614 0.74812 0.0
H2580 H 0.43465 0.1995 0.74063 0.0
H2581 H 0.4036 0.27851 0.76529 0.0
H2582 H 0.404 0.22503 0.7146 0.0
H2583 H 0.43363 0.25243 0.79151 0.0
H2584 H 0.40475 0.25978 0.74586 0.0
H2585 H 0.43558 0.2195 0.75868 0.0
C2586 C 0.42816 0.20935 0.73869 0.0
C2587 C 0.41918 0.21059 0.72615 0.0
C2588 C 0.41114 0.25819 0.75583 0.0
C2589 C 0.42014 0.23352 0.74677 0.0
C2590 C 0.4105 0.26888 0.76691 0.0
C2591 C 0.41848 0.26697 0.78004 0.0
C2592 C 0.41982 0.2455 0.75792 0.0
C2593 C 0.42726 0.25431 0.78157 0.0
C2594 C 0.42869 0.22077 0.749 0.0
C2595 C 0.41104 0.22361 0.72415 0.0
N2596 N 0.42765 0.24403 0.77067 0.0
N2597 N 0.41166 0.23455 0.73439 0.0
H2598 H 0.71402 0.40574 0.76599 0.0
H2599 H 0.79308 0.43599 0.74057 0.0
H2600 H 0.7408 0.43526 0.79208 0.0
H2601 H 0.76708 0.40546 0.71487 0.0
H2602 H 0.77314 0.43734 0.75867 0.0
H2603 H 0.73243 0.40693 0.74626 0.0
C2604 C 0.72373 0.41254 0.76752 0.0
C2605 C 0.72594 0.42035 0.7807 0.0
C2606 C 0.77175 0.43039 0.74904 0.0
C2607 C 0.74705 0.42174 0.75824 0.0
C2608 C 0.78313 0.42963 0.7387 0.0
C2609 C 0.78175 0.42053 0.72626 0.0
C2610 C 0.7589 0.42196 0.74695 0.0
C2611 C 0.7686 0.41257 0.72435 0.0
C2612 C 0.73424 0.41321 0.75627 0.0
C2613 C 0.7387 0.42901 0.78211 0.0
N2614 N 0.75771 0.41341 0.73464 0.0
N2615 N 0.7488 0.42942 0.77104 0.0
H2616 H 0.5586 0.20021 0.25164 0.0
H2617 H 0.58687 0.28023 0.22702 0.0
H2618 H 0.5869 0.22756 0.27846 0.0
H2619 H 0.55964 0.25219 0.19979 0.0
H2620 H 0.58549 0.26191 0.24679 0.0
H2621 H 0.55731 0.21995 0.23332 0.0
C2622 C 0.56448 0.21041 0.2537 0.0
C2623 C 0.57293 0.21224 0.26653 0.0
C2624 C 0.57975 0.25979 0.23652 0.0
C2625 C 0.57157 0.23486 0.2456 0.0
C2626 C 0.58052 0.27025 0.22524 0.0
C2627 C 0.57342 0.26767 0.21173 0.0
C2628 C 0.57183 0.24665 0.23426 0.0
C2629 C 0.56533 0.25458 0.21002 0.0
C2630 C 0.56375 0.22168 0.24324 0.0
C2631 C 0.58029 0.22569 0.26868 0.0
N2632 N 0.56481 0.24453 0.22113 0.0
N2633 N 0.5795 0.23647 0.25828 0.0
H2634 H 0.79423 0.56087 0.25219 0.0
H2635 H 0.71373 0.58775 0.2275 0.0
H2636 H 0.76583 0.58755 0.27959 0.0
H2637 H 0.74258 0.56167 0.19999 0.0
H2638 H 0.73205 0.58663 0.2473 0.0
H2639 H 0.77482 0.55983 0.23352 0.0
C2640 C 0.78387 0.56645 0.2543 0.0
C2641 C 0.78164 0.57436 0.26742 0.0
C2642 C 0.73435 0.58109 0.23696 0.0
C2643 C 0.75939 0.57327 0.24608 0.0
C2644 C 0.7239 0.58172 0.22566 0.0
C2645 C 0.72669 0.57484 0.21208 0.0
C2646 C 0.7477 0.57354 0.23463 0.0
C2647 C 0.74001 0.56717 0.21028 0.0
C2648 C 0.77279 0.56587 0.24363 0.0
C2649 C 0.768 0.58136 0.2696 0.0
N2650 N 0.75005 0.56677 0.22141 0.0
N2651 N 0.7574 0.58071 0.25901 0.0
H2652 H 0.43561 0.74067 0.20092 0.0
H2653 H 0.40515 0.76736 0.27948 0.0
H2654 H 0.4051 0.71534 0.22733 0.0
H2655 H 0.43447 0.79317 0.25222 0.0
H2656 H 0.4064 0.74735 0.2614 0.0
H2657 H 0.43678 0.75917 0.22049 0.0
C2658 C 0.42922 0.73897 0.21089 0.0
C2659 C 0.42018 0.72651 0.21249 0.0
C2660 C 0.41262 0.75736 0.2594 0.0
C2661 C 0.42141 0.74766 0.23491 0.0
C2662 C 0.41191 0.76878 0.26972 0.0
C2663 C 0.41966 0.78196 0.26729 0.0
C2664 C 0.42112 0.75916 0.24655 0.0
C2665 C 0.42828 0.78321 0.25449 0.0
C2666 C 0.42988 0.74954 0.22206 0.0
C2667 C 0.41217 0.72482 0.22564 0.0
N2668 N 0.42873 0.77198 0.24457 0.0
N2669 N 0.41292 0.73532 0.23632 0.0
H2670 H 0.27949 0.4065 0.22781 0.0
H2671 H 0.19932 0.43463 0.25223 0.0
H2672 H 0.2517 0.43408 0.20069 0.0
H2673 H 0.22638 0.40583 0.27881 0.0
H2674 H 0.21914 0.43599 0.23398 0.0
H2675 H 0.26093 0.40752 0.24739 0.0
C2676 C 0.26951 0.41284 0.22602 0.0
C2677 C 0.26708 0.42016 0.2126 0.0
C2678 C 0.22078 0.42942 0.24383 0.0
C2679 C 0.24579 0.42135 0.2349 0.0
C2680 C 0.20947 0.42866 0.25426 0.0
C2681 C 0.2112 0.42005 0.267 0.0
C2682 C 0.23391 0.4215 0.24617 0.0
C2683 C 0.22459 0.41256 0.2691 0.0
C2684 C 0.25892 0.41341 0.23719 0.0
C2685 C 0.25398 0.42823 0.21086 0.0
N2686 N 0.23541 0.4134 0.25875 0.0
N2687 N 0.2438 0.42856 0.22186 0.0
H2688 H 0.73669 0.55635 0.78543 0.0
H2689 H 0.77546 0.60073 0.72014 0.0
H2690 H 0.72028 0.59803 0.76924 0.0
H2691 H 0.78421 0.55482 0.72933 0.0
H2692 H 0.75532 0.60019 0.73817 0.0
H2693 H 0.75441 0.55573 0.76508 0.0
C2694 C 0.73677 0.56533 0.77753 0.0
C2695 C 0.72707 0.57729 0.77903 0.0
C2696 C 0.76157 0.59021 0.73614 0.0
C2697 C 0.74736 0.57672 0.75581 0.0
C2698 C 0.77307 0.59052 0.72588 0.0
C2699 C 0.78154 0.57782 0.72331 0.0
C2700 C 0.75866 0.57715 0.744 0.0
C2701 C 0.77796 0.56487 0.73101 0.0
C2702 C 0.74686 0.56496 0.76591 0.0
C2703 C 0.72759 0.58861 0.76848 0.0
N2704 N 0.76688 0.5649 0.7411 0.0
N2705 N 0.73767 0.58812 0.75737 0.0
H2706 H 0.39361 0.76867 0.7197 0.0
H2707 H 0.43935 0.72701 0.78271 0.0
H2708 H 0.43644 0.78282 0.73502 0.0
H2709 H 0.39258 0.72076 0.77615 0.0
H2710 H 0.43953 0.74493 0.76257 0.0
H2711 H 0.39412 0.74854 0.73776 0.0
C2712 C 0.40316 0.76747 0.72679 0.0
C2713 C 0.41497 0.77745 0.72594 0.0
C2714 C 0.42924 0.7396 0.76549 0.0
C2715 C 0.41565 0.75448 0.74651 0.0
C2716 C 0.42913 0.72934 0.77696 0.0
C2717 C 0.41591 0.72247 0.78115 0.0
C2718 C 0.41604 0.74296 0.7581 0.0
C2719 C 0.403 0.72588 0.7733 0.0
C2720 C 0.40342 0.75602 0.73711 0.0
C2721 C 0.42707 0.77541 0.73538 0.0
N2722 N 0.40338 0.73592 0.76215 0.0
N2723 N 0.42709 0.76416 0.74528 0.0
H2724 H 0.27907 0.40497 0.76752 0.0
H2725 H 0.19972 0.43415 0.74182 0.0
H2726 H 0.25165 0.43371 0.79383 0.0
H2727 H 0.22667 0.40462 0.71591 0.0
H2728 H 0.21936 0.43548 0.76026 0.0
H2729 H 0.26075 0.40603 0.74775 0.0
C2730 C 0.26922 0.41157 0.7691 0.0
C2731 C 0.26682 0.4192 0.78235 0.0
C2732 C 0.22102 0.42876 0.75051 0.0
C2733 C 0.2458 0.42044 0.75981 0.0
C2734 C 0.20981 0.42801 0.73998 0.0
C2735 C 0.21156 0.4192 0.72737 0.0
C2736 C 0.23405 0.42062 0.74843 0.0
C2737 C 0.22486 0.4115 0.72551 0.0
C2738 C 0.25876 0.41217 0.75781 0.0
C2739 C 0.2539 0.42761 0.7838 0.0
N2740 N 0.23558 0.41234 0.73597 0.0
N2741 N 0.24384 0.42795 0.77269 0.0
H2742 H 0.58854 0.28018 0.76698 0.0
H2743 H 0.55925 0.20062 0.74206 0.0
H2744 H 0.55992 0.25293 0.79358 0.0
H2745 H 0.58841 0.22742 0.71559 0.0
H2746 H 0.55802 0.22042 0.76031 0.0
H2747 H 0.58733 0.26175 0.74729 0.0
C2748 C 0.58194 0.27035 0.76864 0.0
C2749 C 0.57438 0.26802 0.78195 0.0
C2750 C 0.56463 0.22202 0.75048 0.0
C2751 C 0.57297 0.24689 0.75951 0.0
C2752 C 0.56533 0.21072 0.74006 0.0
C2753 C 0.57401 0.21237 0.72735 0.0
C2754 C 0.57271 0.23506 0.74821 0.0
C2755 C 0.58163 0.22569 0.72528 0.0
C2756 C 0.58126 0.25983 0.7574 0.0
C2757 C 0.56596 0.25512 0.78351 0.0
N2758 N 0.58086 0.2365 0.73564 0.0
N2759 N 0.56554 0.24501 0.77245 0.0
H2760 H 0.79486 0.43388 0.25125 0.0
H2761 H 0.71484 0.40541 0.22686 0.0
H2762 H 0.76757 0.40557 0.27816 0.0
H2763 H 0.74242 0.43327 0.19978 0.0
H2764 H 0.73333 0.40664 0.24647 0.0
H2765 H 0.7751 0.43509 0.23294 0.0
C2766 C 0.78467 0.42798 0.25333 0.0
C2767 C 0.78286 0.41955 0.26619 0.0
C2768 C 0.73531 0.41254 0.23627 0.0
C2769 C 0.76022 0.42084 0.24528 0.0
C2770 C 0.72476 0.41185 0.22508 0.0
C2771 C 0.72715 0.41919 0.21166 0.0
C2772 C 0.74837 0.4206 0.23401 0.0
C2773 C 0.74016 0.4274 0.20994 0.0
C2774 C 0.77339 0.42866 0.24288 0.0
C2775 C 0.76943 0.41216 0.26836 0.0
N2776 N 0.75032 0.42783 0.22096 0.0
N2777 N 0.75864 0.41292 0.25797 0.0
H2778 H 0.58712 0.76609 0.27931 0.0
H2779 H 0.55911 0.7415 0.19919 0.0
H2780 H 0.56065 0.79368 0.25089 0.0
H2781 H 0.58687 0.71447 0.2269 0.0
H2782 H 0.5579 0.75994 0.21884 0.0
H2783 H 0.58551 0.74625 0.26109 0.0
C2784 C 0.5809 0.76794 0.26927 0.0
C2785 C 0.57408 0.78156 0.26655 0.0
C2786 C 0.5642 0.74995 0.22066 0.0
C2787 C 0.57224 0.75895 0.24564 0.0
C2788 C 0.56488 0.73941 0.20945 0.0
C2789 C 0.57318 0.72649 0.21141 0.0
C2790 C 0.57189 0.74755 0.23391 0.0
C2791 C 0.58039 0.72432 0.22493 0.0
C2792 C 0.57999 0.75661 0.25886 0.0
C2793 C 0.56612 0.78335 0.25339 0.0
N2794 N 0.57964 0.73478 0.23565 0.0
N2795 N 0.56548 0.7722 0.24339 0.0
H2796 H 0.25585 0.55721 0.20768 0.0
H2797 H 0.21809 0.60018 0.27463 0.0
H2798 H 0.27329 0.59781 0.22546 0.0
H2799 H 0.20769 0.55513 0.26315 0.0
H2800 H 0.23812 0.59986 0.25646 0.0
H2801 H 0.23779 0.55651 0.22769 0.0
C2802 C 0.25592 0.56594 0.21585 0.0
C2803 C 0.26603 0.57761 0.21491 0.0
C2804 C 0.23152 0.59002 0.258 0.0
C2805 C 0.24534 0.57695 0.23777 0.0
C2806 C 0.22008 0.59021 0.26834 0.0
C2807 C 0.21121 0.57768 0.27034 0.0
C2808 C 0.23396 0.57727 0.24951 0.0
C2809 C 0.21426 0.56504 0.26193 0.0
C2810 C 0.24562 0.56553 0.22729 0.0
C2811 C 0.26567 0.58862 0.22579 0.0
N2812 N 0.22531 0.56519 0.25181 0.0
N2813 N 0.2554 0.58808 0.23672 0.0
H2814 H 0.40307 0.22737 0.27889 0.0
H2815 H 0.43432 0.2535 0.20043 0.0
H2816 H 0.43329 0.20174 0.25245 0.0
H2817 H 0.40325 0.27887 0.22613 0.0
H2818 H 0.43534 0.2352 0.2202 0.0
H2819 H 0.40422 0.24714 0.26052 0.0
C2820 C 0.41001 0.22594 0.26926 0.0
C2821 C 0.41804 0.21288 0.26713 0.0
C2822 C 0.42834 0.24479 0.22156 0.0
C2823 C 0.41939 0.2354 0.24608 0.0
C2824 C 0.42777 0.25525 0.21028 0.0
C2825 C 0.41863 0.26767 0.21162 0.0
C2826 C 0.41969 0.24675 0.23428 0.0
C2827 C 0.41041 0.26941 0.22463 0.0
C2828 C 0.41065 0.23722 0.25877 0.0
C2829 C 0.42688 0.21161 0.25448 0.0
N2830 N 0.41108 0.25903 0.23544 0.0
N2831 N 0.42726 0.2227 0.24441 0.0
H2832 H 0.76352 0.71417 0.58436 0.0
H2833 H 0.74139 0.79653 0.56113 0.0
H2834 H 0.79322 0.74451 0.56275 0.0
H2835 H 0.7125 0.76725 0.58517 0.0
H2836 H 0.75977 0.77685 0.55975 0.0
H2837 H 0.74395 0.73271 0.5829 0.0
C2838 C 0.76589 0.72471 0.57923 0.0
C2839 C 0.78002 0.72786 0.57374 0.0
C2840 C 0.74939 0.77469 0.56527 0.0
C2841 C 0.75773 0.74912 0.57207 0.0
C2842 C 0.73889 0.78592 0.56604 0.0
C2843 C 0.72545 0.78353 0.57335 0.0
C2844 C 0.74644 0.76097 0.57186 0.0
C2845 C 0.72276 0.76957 0.57949 0.0
C2846 C 0.75473 0.73529 0.57841 0.0
C2847 C 0.78249 0.74166 0.56717 0.0
N2848 N 0.7332 0.75883 0.57866 0.0
N2849 N 0.77147 0.75181 0.56658 0.0
H2850 H 0.76401 0.27922 0.40662 0.0
H2851 H 0.74081 0.19841 0.43389 0.0
H2852 H 0.79199 0.25107 0.43296 0.0
H2853 H 0.71304 0.22607 0.40682 0.0
H2854 H 0.75898 0.2183 0.43511 0.0
H2855 H 0.74448 0.26062 0.40799 0.0
C2856 C 0.766 0.26915 0.41276 0.0
C2857 C 0.77965 0.26663 0.41962 0.0
C2858 C 0.74889 0.22006 0.42896 0.0
C2859 C 0.75741 0.2453 0.4212 0.0
C2860 C 0.73851 0.20871 0.42827 0.0
C2861 C 0.72545 0.21058 0.42017 0.0
C2862 C 0.7462 0.23337 0.42148 0.0
C2863 C 0.723 0.22416 0.41314 0.0
C2864 C 0.75486 0.25854 0.41354 0.0
C2865 C 0.78164 0.25343 0.42746 0.0
N2866 N 0.73332 0.23502 0.41389 0.0
N2867 N 0.77067 0.24323 0.42798 0.0
H2868 H 0.79471 0.74398 0.43381 0.0
H2869 H 0.71364 0.76786 0.40801 0.0
H2870 H 0.76616 0.71638 0.4075 0.0
H2871 H 0.7427 0.7959 0.43328 0.0
H2872 H 0.732 0.74812 0.40931 0.0
H2873 H 0.77506 0.7624 0.43533 0.0
C2874 C 0.78427 0.74177 0.42841 0.0
C2875 C 0.78207 0.72868 0.42044 0.0
C2876 C 0.73433 0.75856 0.41464 0.0
C2877 C 0.75956 0.74971 0.42209 0.0
C2878 C 0.72386 0.76982 0.41391 0.0
C2879 C 0.72671 0.78355 0.42047 0.0
C2880 C 0.74777 0.76106 0.42196 0.0
C2881 C 0.74009 0.7855 0.42801 0.0
C2882 C 0.77306 0.75229 0.42928 0.0
C2883 C 0.76833 0.72635 0.41371 0.0
N2884 N 0.75016 0.7744 0.42849 0.0
N2885 N 0.75761 0.73681 0.41462 0.0
H2886 H 0.19938 0.74375 0.43169 0.0
H2887 H 0.2803 0.76784 0.4056 0.0
H2888 H 0.22821 0.71586 0.40599 0.0
H2889 H 0.25172 0.79536 0.43197 0.0
H2890 H 0.26186 0.74816 0.40664 0.0
H2891 H 0.21891 0.76232 0.43294 0.0
C2892 C 0.20985 0.74152 0.42636 0.0
C2893 C 0.21218 0.72829 0.41867 0.0
C2894 C 0.25965 0.75848 0.41227 0.0
C2895 C 0.23455 0.74949 0.42001 0.0
C2896 C 0.27017 0.76971 0.41167 0.0
C2897 C 0.26749 0.78326 0.41865 0.0
C2898 C 0.24633 0.76084 0.41986 0.0
C2899 C 0.2542 0.78509 0.4264 0.0
C2900 C 0.221 0.75212 0.42708 0.0
C2901 C 0.22595 0.72593 0.41201 0.0
N2902 N 0.24409 0.77403 0.42673 0.0
N2903 N 0.2366 0.73646 0.41277 0.0
H2904 H 0.25252 0.19944 0.43491 0.0
H2905 H 0.22798 0.27893 0.40503 0.0
H2906 H 0.27894 0.22574 0.40525 0.0
H2907 H 0.20115 0.25188 0.43365 0.0
H2908 H 0.24756 0.26037 0.40632 0.0
H2909 H 0.23435 0.21933 0.43595 0.0
C2910 C 0.25453 0.20944 0.42867 0.0
C2911 C 0.2672 0.21093 0.41992 0.0
C2912 C 0.23742 0.25853 0.41238 0.0
C2913 C 0.24645 0.23373 0.42101 0.0
C2914 C 0.22625 0.26912 0.41165 0.0
C2915 C 0.21291 0.26689 0.41919 0.0
C2916 C 0.23521 0.24562 0.42068 0.0
C2917 C 0.21125 0.25401 0.42762 0.0
C2918 C 0.24415 0.2208 0.42926 0.0
C2919 C 0.26928 0.22413 0.4121 0.0
N2920 N 0.22225 0.24383 0.42809 0.0
N2921 N 0.25897 0.23501 0.41278 0.0
H2922 H 0.20023 0.25108 0.55976 0.0
H2923 H 0.27937 0.22538 0.58957 0.0
H2924 H 0.22718 0.2774 0.58891 0.0
H2925 H 0.25179 0.19884 0.56121 0.0
H2926 H 0.26114 0.24526 0.58822 0.0
H2927 H 0.21977 0.23252 0.55887 0.0
C2928 C 0.2103 0.25298 0.56591 0.0
C2929 C 0.21208 0.26575 0.57448 0.0
C2930 C 0.25911 0.23512 0.58224 0.0
C2931 C 0.23446 0.24454 0.57357 0.0
C2932 C 0.26951 0.22378 0.583 0.0
C2933 C 0.26703 0.21044 0.57554 0.0
C2934 C 0.24614 0.23308 0.57398 0.0
C2935 C 0.2541 0.20894 0.56717 0.0
C2936 C 0.22145 0.24238 0.56541 0.0
C2937 C 0.22535 0.26768 0.5822 0.0
N2938 N 0.24411 0.2201 0.56666 0.0
N2939 N 0.23602 0.25715 0.58162 0.0
H2940 H 0.76667 0.28 0.58857 0.0
H2941 H 0.74121 0.20081 0.55871 0.0
H2942 H 0.79316 0.25269 0.5599 0.0
H2943 H 0.71521 0.22732 0.58856 0.0
H2944 H 0.75954 0.22055 0.55754 0.0
H2945 H 0.74687 0.26169 0.58727 0.0
C2946 C 0.76828 0.27018 0.58194 0.0
C2947 C 0.78159 0.2678 0.5744 0.0
C2948 C 0.74979 0.2221 0.56429 0.0
C2949 C 0.75903 0.24681 0.57288 0.0
C2950 C 0.73932 0.21083 0.56495 0.0
C2951 C 0.72673 0.21242 0.57381 0.0
C2952 C 0.74767 0.23503 0.57258 0.0
C2953 C 0.72481 0.22564 0.58163 0.0
C2954 C 0.75698 0.25973 0.5812 0.0
C2955 C 0.78309 0.25492 0.56594 0.0
N2956 N 0.73521 0.23642 0.58089 0.0
N2957 N 0.77197 0.24488 0.56546 0.0
H2958 H 0.27973 0.76787 0.58898 0.0
H2959 H 0.20006 0.74302 0.55992 0.0
H2960 H 0.25228 0.79465 0.56073 0.0
H2961 H 0.22706 0.71637 0.58873 0.0
H2962 H 0.21973 0.76142 0.55892 0.0
H2963 H 0.26124 0.74823 0.58787 0.0
C2964 C 0.26984 0.76958 0.58248 0.0
C2965 C 0.26748 0.78292 0.57499 0.0
C2966 C 0.22139 0.75153 0.56541 0.0
C2967 C 0.24628 0.76054 0.5737 0.0
C2968 C 0.21016 0.74101 0.56598 0.0
C2969 C 0.21192 0.72819 0.57447 0.0
C2970 C 0.23447 0.74922 0.57342 0.0
C2971 C 0.22525 0.72614 0.58208 0.0
C2972 C 0.25929 0.75837 0.58186 0.0
C2973 C 0.2545 0.78455 0.56672 0.0
N2974 N 0.236 0.73658 0.58143 0.0
N2975 N 0.24436 0.77352 0.56634 0.0
H2976 H 0.03327 0.17092 0.30677 0.0
H2977 H 0.95933 0.19819 0.34613 0.0
H2978 H 0.03246 0.19833 0.34572 0.0
H2979 H 0.96027 0.17325 0.30555 0.0
H2980 H 0.98599 0.19479 0.34852 0.0
H2981 H 0.00651 0.16807 0.30855 0.0
C2982 C 0.02747 0.17619 0.31581 0.0
C2983 C 0.03503 0.18504 0.326 0.0
C2984 C 0.98034 0.18991 0.33918 0.0
C2985 C 0.00445 0.18193 0.32805 0.0
C2986 C 0.96513 0.19184 0.33782 0.0
C2987 C 0.95765 0.18616 0.32552 0.0
C2988 C 0.98811 0.1823 0.32812 0.0
C2989 C 0.96566 0.17794 0.31513 0.0
C2990 C 0.0122 0.17458 0.31681 0.0
C2991 C 0.02702 0.19153 0.33755 0.0
N2992 N 0.98049 0.17639 0.31659 0.0
N2993 N 0.01212 0.18998 0.33817 0.0
H2994 H 0.79986 0.9601 0.34557 0.0
H2995 H 0.82222 0.03416 0.30343 0.0
H2996 H 0.82169 0.96112 0.30323 0.0
H2997 H 0.79789 0.03322 0.34439 0.0
H2998 H 0.82583 0.0075 0.30527 0.0
H2999 H 0.80276 0.98686 0.3474 0.0
C3000 C 0.80543 0.96594 0.33675 0.0
C3001 C 0.81037 0.95844 0.32414 0.0
C3002 C 0.81984 0.01314 0.31395 0.0
C3003 C 0.81363 0.98902 0.3261 0.0
C3004 C 0.81779 0.02836 0.31291 0.0
C3005 C 0.80957 0.03584 0.32368 0.0
C3006 C 0.81357 0.00537 0.32581 0.0
C3007 C 0.80418 0.02783 0.33577 0.0
C3008 C 0.80707 0.98122 0.33779 0.0
C3009 C 0.81759 0.96651 0.31308 0.0
N3010 N 0.80613 0.01298 0.33643 0.0
N3011 N 0.81887 0.9814 0.31425 0.0
H3012 H 0.96183 0.79493 0.3443 0.0
H3013 H 0.0351 0.82028 0.30236 0.0
H3014 H 0.96198 0.82043 0.30405 0.0
H3015 H 0.03482 0.7919 0.34063 0.0
H3016 H 0.00852 0.8239 0.30519 0.0
H3017 H 0.98868 0.79724 0.34554 0.0
C3018 C 0.9675 0.80119 0.33583 0.0
C3019 C 0.95972 0.80734 0.32395 0.0
C3020 C 0.01429 0.817 0.31306 0.0
C3021 C 0.9904 0.80993 0.32522 0.0
C3022 C 0.02946 0.81494 0.31145 0.0
C3023 C 0.03711 0.80563 0.32117 0.0
C3024 C 0.00672 0.80965 0.32443 0.0
C3025 C 0.0293 0.79906 0.33282 0.0
C3026 C 0.98283 0.80248 0.33652 0.0
C3027 C 0.96759 0.81539 0.31333 0.0
N3028 N 0.0145 0.80108 0.33404 0.0
N3029 N 0.98253 0.81633 0.31413 0.0
H3030 H 0.17058 0.03328 0.30494 0.0
H3031 H 0.19515 0.95898 0.34531 0.0
H3032 H 0.1966 0.03208 0.34482 0.0
H3033 H 0.17184 0.96031 0.30379 0.0
H3034 H 0.19195 0.98567 0.34765 0.0
H3035 H 0.16711 0.0066 0.30671 0.0
C3036 C 0.17541 0.02742 0.31417 0.0
C3037 C 0.18406 0.03483 0.32463 0.0
C3038 C 0.18738 0.9801 0.33811 0.0
C3039 C 0.18024 0.00433 0.32668 0.0
C3040 C 0.18918 0.96487 0.33678 0.0
C3041 C 0.18393 0.9575 0.32423 0.0
C3042 C 0.18032 0.98799 0.32678 0.0
C3043 C 0.1762 0.96562 0.31357 0.0
C3044 C 0.17344 0.01219 0.31517 0.0
C3045 C 0.18997 0.02674 0.33643 0.0
N3046 N 0.17477 0.98047 0.315 0.0
N3047 N 0.18809 0.01188 0.33704 0.0
H3048 H 0.03235 0.79587 0.64874 0.0
H3049 H 0.95876 0.82109 0.69016 0.0
H3050 H 0.03187 0.81985 0.6899 0.0
H3051 H 0.95926 0.79424 0.65081 0.0
H3052 H 0.98545 0.82434 0.68795 0.0
H3053 H 0.00559 0.79881 0.64703 0.0
C3054 C 0.02663 0.80192 0.65732 0.0
C3055 C 0.03428 0.80746 0.66958 0.0
C3056 C 0.97971 0.81787 0.6797 0.0
C3057 C 0.0037 0.81077 0.66776 0.0
C3058 C 0.96448 0.81602 0.68095 0.0
C3059 C 0.95685 0.80722 0.67075 0.0
C3060 C 0.98736 0.81082 0.6682 0.0
C3061 C 0.96476 0.801 0.65899 0.0
C3062 C 0.01135 0.80358 0.65636 0.0
C3063 C 0.02636 0.81528 0.68033 0.0
N3064 N 0.97961 0.80279 0.65812 0.0
N3065 N 0.01147 0.81657 0.67926 0.0
H3066 H 0.17012 0.0323 0.68979 0.0
H3067 H 0.19456 0.95844 0.64862 0.0
H3068 H 0.19561 0.03148 0.64955 0.0
H3069 H 0.17167 0.95936 0.69039 0.0
H3070 H 0.1911 0.9851 0.64644 0.0
H3071 H 0.16662 0.00564 0.68781 0.0
C3072 C 0.17481 0.02653 0.68043 0.0
C3073 C 0.18335 0.03404 0.66993 0.0
C3074 C 0.18667 0.97945 0.656 0.0
C3075 C 0.1795 0.00356 0.66765 0.0
C3076 C 0.18863 0.96423 0.65724 0.0
C3077 C 0.18358 0.95675 0.66981 0.0
C3078 C 0.17967 0.98722 0.66745 0.0
C3079 C 0.17588 0.96475 0.68059 0.0
C3080 C 0.17283 0.01131 0.67931 0.0
C3081 C 0.18908 0.02606 0.65797 0.0
N3082 N 0.1743 0.97959 0.67925 0.0
N3083 N 0.1872 0.01121 0.65725 0.0
H3084 H 0.96032 0.19582 0.64736 0.0
H3085 H 0.03384 0.17075 0.6888 0.0
H3086 H 0.96087 0.17242 0.68886 0.0
H3087 H 0.03341 0.19649 0.64871 0.0
H3088 H 0.00716 0.1675 0.68669 0.0
H3089 H 0.98701 0.19243 0.6454 0.0
C3090 C 0.96604 0.1898 0.65596 0.0
C3091 C 0.95844 0.18457 0.66839 0.0
C3092 C 0.01292 0.17372 0.67826 0.0
C3093 C 0.98894 0.18074 0.66628 0.0
C3094 C 0.02815 0.17556 0.67945 0.0
C3095 C 0.03578 0.18407 0.66902 0.0
C3096 C 0.00528 0.18051 0.6666 0.0
C3097 C 0.02791 0.18996 0.65707 0.0
C3098 C 0.98128 0.18788 0.65485 0.0
C3099 C 0.96635 0.17676 0.67917 0.0
N3100 N 0.01304 0.18821 0.65628 0.0
N3101 N 0.98121 0.17522 0.67794 0.0
H3102 H 0.79728 0.03403 0.64758 0.0
H3103 H 0.8226 0.96013 0.68823 0.0
H3104 H 0.82098 0.03309 0.68889 0.0
H3105 H 0.79651 0.96088 0.64838 0.0
H3106 H 0.82581 0.98683 0.68632 0.0
H3107 H 0.80057 0.00733 0.6454 0.0
C3108 C 0.80334 0.02822 0.65609 0.0
C3109 C 0.8087 0.03572 0.66853 0.0
C3110 C 0.81952 0.98114 0.67789 0.0
C3111 C 0.81241 0.00522 0.66618 0.0
C3112 C 0.8177 0.9659 0.67897 0.0
C3113 C 0.8091 0.95835 0.66855 0.0
C3114 C 0.81262 0.98888 0.66636 0.0
C3115 C 0.8031 0.96633 0.65672 0.0
C3116 C 0.8052 0.01299 0.65486 0.0
C3117 C 0.81655 0.0277 0.67919 0.0
N3118 N 0.80483 0.9812 0.65604 0.0
N3119 N 0.81803 0.01285 0.67785 0.0
H3120 H 0.3455 0.96115 0.19672 0.0
H3121 H 0.30389 0.03441 0.17115 0.0
H3122 H 0.30453 0.9614 0.17242 0.0
H3123 H 0.34381 0.03427 0.19713 0.0
H3124 H 0.30616 0.00773 0.168 0.0
H3125 H 0.34726 0.98788 0.19349 0.0
C3126 C 0.33697 0.96682 0.19054 0.0
C3127 C 0.32475 0.95912 0.185 0.0
C3128 C 0.31452 0.01355 0.17425 0.0
C3129 C 0.32663 0.98965 0.18135 0.0
C3130 C 0.31323 0.02878 0.17604 0.0
C3131 C 0.32357 0.0365 0.18458 0.0
C3132 C 0.32618 0.00599 0.18113 0.0
C3133 C 0.33552 0.02869 0.19058 0.0
C3134 C 0.33797 0.98207 0.18872 0.0
C3135 C 0.31407 0.96696 0.177 0.0
N3136 N 0.33641 0.01383 0.18888 0.0
N3137 N 0.31517 0.98183 0.17556 0.0
H3138 H 0.96069 0.30419 0.17083 0.0
H3139 H 0.03472 0.3447 0.19589 0.0
H3140 H 0.9616 0.34455 0.19612 0.0
H3141 H 0.03364 0.30303 0.17284 0.0
H3142 H 0.00808 0.34705 0.19235 0.0
H3143 H 0.98742 0.30584 0.16771 0.0
C3144 C 0.9665 0.3135 0.17557 0.0
C3145 C 0.95898 0.32414 0.18392 0.0
C3146 C 0.01369 0.33747 0.18791 0.0
C3147 C 0.98954 0.32604 0.18051 0.0
C3148 C 0.02889 0.33614 0.18992 0.0
C3149 C 0.03633 0.32355 0.18483 0.0
C3150 C 0.00589 0.32611 0.18082 0.0
C3151 C 0.02829 0.31284 0.17707 0.0
C3152 C 0.98176 0.31443 0.1738 0.0
C3153 C 0.96701 0.33603 0.18972 0.0
N3154 N 0.01346 0.31428 0.17545 0.0
N3155 N 0.9819 0.33658 0.18805 0.0
H3156 H 0.6909 0.96025 0.17187 0.0
H3157 H 0.6483 0.03332 0.19641 0.0
H3158 H 0.65039 0.9602 0.19695 0.0
H3159 H 0.6899 0.03327 0.17316 0.0
H3160 H 0.64678 0.00658 0.19318 0.0
H3161 H 0.68861 0.98693 0.16871 0.0
C3162 C 0.68143 0.96584 0.17657 0.0
C3163 C 0.67092 0.95807 0.18485 0.0
C3164 C 0.65616 0.01243 0.18864 0.0
C3165 C 0.66827 0.98857 0.18139 0.0
C3166 C 0.65702 0.0277 0.19046 0.0
C3167 C 0.66934 0.03546 0.18521 0.0
C3168 C 0.66773 0.00491 0.18158 0.0
C3169 C 0.68027 0.02767 0.17751 0.0
C3170 C 0.68013 0.98107 0.17477 0.0
C3171 C 0.65882 0.96582 0.1906 0.0
N3172 N 0.67929 0.01279 0.17606 0.0
N3173 N 0.6579 0.98068 0.1889 0.0
H3174 H 0.03269 0.64436 0.1985 0.0
H3175 H 0.95961 0.68445 0.17042 0.0
H3176 H 0.03256 0.68195 0.16924 0.0
H3177 H 0.95967 0.647 0.19987 0.0
H3178 H 0.98614 0.68127 0.16674 0.0
H3179 H 0.00588 0.64265 0.19598 0.0
C3180 C 0.02703 0.65212 0.19137 0.0
C3181 C 0.03479 0.66344 0.18423 0.0
C3182 C 0.98033 0.67364 0.17388 0.0
C3183 C 0.00416 0.66166 0.1814 0.0
C3184 C 0.96519 0.67545 0.17598 0.0
C3185 C 0.95751 0.6661 0.18562 0.0
C3186 C 0.98784 0.66245 0.18157 0.0
C3187 C 0.96523 0.65455 0.19245 0.0
C3188 C 0.01173 0.65116 0.18995 0.0
C3189 C 0.02696 0.67315 0.17506 0.0
N3190 N 0.98001 0.65315 0.19043 0.0
N3191 N 0.01204 0.67214 0.17405 0.0
H3192 H 0.34571 0.95987 0.79592 0.0
H3193 H 0.30549 0.03335 0.82305 0.0
H3194 H 0.30559 0.96025 0.82161 0.0
H3195 H 0.34451 0.03291 0.79573 0.0
H3196 H 0.30767 0.00663 0.82613 0.0
H3197 H 0.34776 0.98656 0.7992 0.0
C3198 C 0.33743 0.96556 0.80241 0.0
C3199 C 0.32536 0.9579 0.80834 0.0
C3200 C 0.31586 0.0124 0.8196 0.0
C3201 C 0.32755 0.98842 0.81205 0.0
C3202 C 0.31463 0.02765 0.81786 0.0
C3203 C 0.32472 0.03529 0.80896 0.0
C3204 C 0.32723 0.00476 0.81232 0.0
C3205 C 0.33641 0.0274 0.80257 0.0
C3206 C 0.33859 0.98079 0.80427 0.0
C3207 C 0.315 0.96577 0.81673 0.0
N3208 N 0.33725 0.01253 0.80424 0.0
N3209 N 0.31625 0.98064 0.8182 0.0
H3210 H 0.03348 0.30362 0.82232 0.0
H3211 H 0.95975 0.34517 0.79801 0.0
H3212 H 0.03284 0.34391 0.7969 0.0
H3213 H 0.96049 0.30338 0.82088 0.0
H3214 H 0.98646 0.34712 0.80127 0.0
H3215 H 0.0068 0.30561 0.82566 0.0
C3216 C 0.02774 0.31299 0.81759 0.0
C3217 C 0.03532 0.32351 0.80914 0.0
C3218 C 0.98076 0.33761 0.80573 0.0
C3219 C 0.00482 0.32581 0.81283 0.0
C3220 C 0.96552 0.3365 0.80389 0.0
C3221 C 0.95796 0.324 0.80901 0.0
C3222 C 0.98848 0.3261 0.81269 0.0
C3223 C 0.96593 0.31314 0.81663 0.0
C3224 C 0.01251 0.31411 0.81949 0.0
C3225 C 0.02738 0.33548 0.80337 0.0
N3226 N 0.98079 0.31436 0.8181 0.0
N3227 N 0.01252 0.33622 0.80518 0.0
H3228 H 0.69021 0.03357 0.82216 0.0
H3229 H 0.6482 0.96007 0.79793 0.0
H3230 H 0.64949 0.03317 0.79746 0.0
H3231 H 0.69028 0.96057 0.82025 0.0
H3232 H 0.64634 0.98676 0.80141 0.0
H3233 H 0.68825 0.00686 0.82533 0.0
C3234 C 0.68076 0.02787 0.81756 0.0
C3235 C 0.6701 0.03553 0.80936 0.0
C3236 C 0.6559 0.98101 0.8057 0.0
C3237 C 0.66783 0.005 0.81283 0.0
C3238 C 0.65696 0.96578 0.80373 0.0
C3239 C 0.66951 0.95817 0.80863 0.0
C3240 C 0.66751 0.98866 0.81257 0.0
C3241 C 0.68048 0.96606 0.81616 0.0
C3242 C 0.67965 0.01263 0.81936 0.0
C3243 C 0.65803 0.02765 0.80373 0.0
N3244 N 0.67931 0.98092 0.81776 0.0
N3245 N 0.6573 0.01277 0.80543 0.0
H3246 H 0.96079 0.68426 0.82445 0.0
H3247 H 0.03392 0.64567 0.79445 0.0
H3248 H 0.96081 0.64665 0.79521 0.0
H3249 H 0.0336 0.68438 0.82221 0.0
H3250 H 0.00729 0.64319 0.79807 0.0
H3251 H 0.98746 0.68175 0.82728 0.0
C3252 C 0.9664 0.67535 0.81878 0.0
C3253 C 0.95865 0.66578 0.80941 0.0
C3254 C 0.01307 0.65212 0.80352 0.0
C3255 C 0.98916 0.66292 0.81247 0.0
C3256 C 0.02827 0.65353 0.80147 0.0
C3257 C 0.0359 0.66537 0.80787 0.0
C3258 C 0.00549 0.66267 0.81198 0.0
C3259 C 0.02809 0.67518 0.81694 0.0
C3260 C 0.98163 0.67393 0.82038 0.0
C3261 C 0.96641 0.65435 0.80243 0.0
N3262 N 0.01327 0.67371 0.81859 0.0
N3263 N 0.98129 0.65335 0.80395 0.0
H3264 H 0.17133 0.30574 0.03465 0.0
H3265 H 0.19521 0.34732 0.96085 0.0
H3266 H 0.19703 0.34585 0.03388 0.0
H3267 H 0.17148 0.30602 0.96172 0.0
H3268 H 0.19216 0.34932 0.98758 0.0
H3269 H 0.16746 0.30803 0.00807 0.0
C3270 C 0.176 0.31513 0.0289 0.0
C3271 C 0.1847 0.32551 0.0364 0.0
C3272 C 0.18745 0.33991 0.98191 0.0
C3273 C 0.18042 0.32814 0.00601 0.0
C3274 C 0.18918 0.33877 0.96665 0.0
C3275 C 0.18378 0.32637 0.95913 0.0
C3276 C 0.18034 0.32852 0.98967 0.0
C3277 C 0.17596 0.31568 0.96714 0.0
C3278 C 0.1738 0.31643 0.01373 0.0
C3279 C 0.19038 0.33752 0.02847 0.0
N3280 N 0.17462 0.31691 0.98201 0.0
N3281 N 0.1883 0.33842 0.01365 0.0
H3282 H 0.19852 0.65123 0.95878 0.0
H3283 H 0.17303 0.69191 0.0326 0.0
H3284 H 0.17359 0.69181 0.95943 0.0
H3285 H 0.19814 0.65143 0.03195 0.0
H3286 H 0.17012 0.69022 0.00585 0.0
H3287 H 0.19552 0.64927 0.98551 0.0
C3288 C 0.19227 0.65964 0.96454 0.0
C3289 C 0.18644 0.6718 0.95694 0.0
C3290 C 0.17613 0.68162 0.01156 0.0
C3291 C 0.18306 0.6697 0.9875 0.0
C3292 C 0.17778 0.68257 0.02684 0.0
C3293 C 0.18599 0.67188 0.03445 0.0
C3294 C 0.18281 0.66994 0.00385 0.0
C3295 C 0.19183 0.65997 0.02647 0.0
C3296 C 0.19057 0.65853 0.9798 0.0
C3297 C 0.17836 0.68233 0.9649 0.0
N3298 N 0.19027 0.6594 0.01157 0.0
N3299 N 0.17704 0.68112 0.97979 0.0
H3300 H 0.34591 0.19799 0.03251 0.0
H3301 H 0.30485 0.17216 0.95906 0.0
H3302 H 0.30553 0.17272 0.03207 0.0
H3303 H 0.34422 0.19897 0.95942 0.0
H3304 H 0.30723 0.16876 0.9857 0.0
H3305 H 0.34777 0.19499 0.00577 0.0
C3306 C 0.33754 0.19165 0.0268 0.0
C3307 C 0.32544 0.18576 0.03446 0.0
C3308 C 0.31545 0.17525 0.97994 0.0
C3309 C 0.32743 0.18237 0.0039 0.0
C3310 C 0.3141 0.17718 0.96473 0.0
C3311 C 0.32424 0.18602 0.95709 0.0
C3312 C 0.32698 0.1823 0.98755 0.0
C3313 C 0.33608 0.19218 0.96494 0.0
C3314 C 0.33859 0.18995 0.01154 0.0
C3315 C 0.31496 0.17756 0.02656 0.0
N3316 N 0.33703 0.19034 0.97978 0.0
N3317 N 0.31611 0.17625 0.01167 0.0
H3318 H 0.8218 0.30522 0.95943 0.0
H3319 H 0.79766 0.3458 0.03378 0.0
H3320 H 0.79602 0.34527 0.96065 0.0
H3321 H 0.82089 0.30423 0.03243 0.0
H3322 H 0.80067 0.34804 0.00706 0.0
H3323 H 0.82528 0.30696 0.98611 0.0
C3324 C 0.81702 0.31448 0.9653 0.0
C3325 C 0.80844 0.32501 0.95789 0.0
C3326 C 0.80526 0.33851 0.01262 0.0
C3327 C 0.81228 0.32701 0.98839 0.0
C3328 C 0.80356 0.33724 0.02787 0.0
C3329 C 0.80886 0.32471 0.03526 0.0
C3330 C 0.81225 0.32714 0.00473 0.0
C3331 C 0.8165 0.31399 0.02712 0.0
C3332 C 0.819 0.31546 0.98053 0.0
C3333 C 0.8026 0.33683 0.96598 0.0
N3334 N 0.81783 0.31537 0.01225 0.0
N3335 N 0.80449 0.33743 0.98084 0.0
H3336 H 0.68859 0.82231 0.03373 0.0
H3337 H 0.64748 0.79764 0.95986 0.0
H3338 H 0.64882 0.79608 0.03297 0.0
H3339 H 0.68879 0.82135 0.96072 0.0
H3340 H 0.6455 0.80064 0.9866 0.0
H3341 H 0.68653 0.82573 0.00706 0.0
C3342 C 0.67932 0.81742 0.02796 0.0
C3343 C 0.66897 0.80873 0.0355 0.0
C3344 C 0.65491 0.80534 0.98092 0.0
C3345 C 0.6666 0.81251 0.00502 0.0
C3346 C 0.65603 0.80365 0.96566 0.0
C3347 C 0.66841 0.80908 0.95813 0.0
C3348 C 0.66629 0.81247 0.98868 0.0
C3349 C 0.67913 0.81685 0.96614 0.0
C3350 C 0.67816 0.81936 0.01274 0.0
C3351 C 0.65712 0.80274 0.02754 0.0
N3352 N 0.6779 0.81818 0.98102 0.0
N3353 N 0.65635 0.80461 0.01268 0.0
H3354 H 0.79758 0.64847 0.03366 0.0
H3355 H 0.82236 0.69084 0.96061 0.0
H3356 H 0.82156 0.68964 0.0336 0.0
H3357 H 0.79718 0.65039 0.96058 0.0
H3358 H 0.82566 0.68845 0.98725 0.0
H3359 H 0.80084 0.64685 0.00694 0.0
C3360 C 0.8037 0.65707 0.02804 0.0
C3361 C 0.80913 0.66931 0.03579 0.0
C3362 C 0.81955 0.68001 0.98141 0.0
C3363 C 0.8128 0.6676 0.00525 0.0
C3364 C 0.81767 0.68136 0.9662 0.0
C3365 C 0.80931 0.6709 0.95845 0.0
C3366 C 0.81294 0.66815 0.98891 0.0
C3367 C 0.80358 0.65878 0.96619 0.0
C3368 C 0.80555 0.65615 0.01278 0.0
C3369 C 0.81707 0.68008 0.028 0.0
N3370 N 0.80536 0.65783 0.98104 0.0
N3371 N 0.81852 0.67906 0.01312 0.0
H3372 H 0.34793 0.79546 0.03433 0.0
H3373 H 0.31031 0.82383 0.95994 0.0
H3374 H 0.30859 0.8223 0.03287 0.0
H3375 H 0.34729 0.79383 0.96121 0.0
H3376 H 0.31235 0.82709 0.98662 0.0
H3377 H 0.35062 0.79841 0.00764 0.0
C3378 C 0.33996 0.80213 0.02841 0.0
C3379 C 0.3279 0.80848 0.03575 0.0
C3380 C 0.32013 0.81992 0.98105 0.0
C3381 C 0.33086 0.81183 0.00527 0.0
C3382 C 0.31898 0.81808 0.96582 0.0
C3383 C 0.32852 0.80838 0.95842 0.0
C3384 C 0.33084 0.81195 0.98893 0.0
C3385 C 0.33962 0.80129 0.96653 0.0
C3386 C 0.34149 0.8038 0.01318 0.0
C3387 C 0.31797 0.81709 0.02759 0.0
N3388 N 0.34038 0.80309 0.9814 0.0
N3389 N 0.31958 0.81839 0.01275 0.0
H3390 H 0.68885 0.17174 0.9599 0.0
H3391 H 0.64774 0.19587 0.03395 0.0
H3392 H 0.64866 0.19729 0.96083 0.0
H3393 H 0.68948 0.17293 0.03289 0.0
H3394 H 0.64564 0.19273 0.00724 0.0
H3395 H 0.68697 0.16829 0.98658 0.0
C3396 C 0.67953 0.17647 0.96571 0.0
C3397 C 0.669 0.18498 0.95821 0.0
C3398 C 0.65518 0.18823 0.01287 0.0
C3399 C 0.66683 0.1812 0.98871 0.0
C3400 C 0.65637 0.19 0.02811 0.0
C3401 C 0.66891 0.18483 0.03558 0.0
C3402 C 0.66663 0.18128 0.00506 0.0
C3403 C 0.67971 0.17723 0.02751 0.0
C3404 C 0.67847 0.17452 0.98093 0.0
C3405 C 0.65709 0.19076 0.96623 0.0
N3406 N 0.6784 0.17582 0.01265 0.0
N3407 N 0.65642 0.18891 0.98109 0.0
H3408 H 0.4601 0.6959 0.8479 0.0
H3409 H 0.53374 0.66897 0.80797 0.0
H3410 H 0.46086 0.66935 0.80836 0.0
H3411 H 0.53317 0.69712 0.8464 0.0
H3412 H 0.50714 0.6654 0.81052 0.0
H3413 H 0.48682 0.69287 0.85011 0.0
C3414 C 0.46587 0.68926 0.8398 0.0
C3415 C 0.45832 0.68305 0.82781 0.0
C3416 C 0.51285 0.67223 0.8185 0.0
C3417 C 0.48884 0.67962 0.83018 0.0
C3418 C 0.52803 0.67426 0.81705 0.0
C3419 C 0.53559 0.68353 0.82686 0.0
C3420 C 0.50518 0.6796 0.82978 0.0
C3421 C 0.52771 0.69 0.83851 0.0
C3422 C 0.48112 0.68755 0.84105 0.0
C3423 C 0.46629 0.67446 0.81769 0.0
N3424 N 0.51288 0.68806 0.83954 0.0
N3425 N 0.48116 0.67315 0.81901 0.0
H3426 H 0.29586 0.53468 0.84435 0.0
H3427 H 0.32114 0.46042 0.80422 0.0
H3428 H 0.31852 0.53338 0.80246 0.0
H3429 H 0.29572 0.46145 0.8445 0.0
H3430 H 0.3239 0.4872 0.80558 0.0
H3431 H 0.29926 0.50801 0.84671 0.0
C3432 C 0.3017 0.5288 0.83573 0.0
C3433 C 0.30675 0.53618 0.8231 0.0
C3434 C 0.31785 0.48156 0.81421 0.0
C3435 C 0.31062 0.50572 0.82568 0.0
C3436 C 0.3163 0.46627 0.81345 0.0
C3437 C 0.30803 0.45876 0.82417 0.0
C3438 C 0.31103 0.48938 0.82573 0.0
C3439 C 0.30207 0.46685 0.83594 0.0
C3440 C 0.30363 0.51358 0.83708 0.0
C3441 C 0.31433 0.52807 0.81231 0.0
N3442 N 0.30355 0.48177 0.83633 0.0
N3443 N 0.3159 0.51324 0.81378 0.0
H3444 H 0.53299 0.2988 0.84522 0.0
H3445 H 0.45981 0.32153 0.80184 0.0
H3446 H 0.53284 0.32111 0.80312 0.0
H3447 H 0.45985 0.29777 0.84313 0.0
H3448 H 0.48646 0.32494 0.80407 0.0
H3449 H 0.50621 0.3018 0.8466 0.0
C3450 C 0.52733 0.3045 0.83636 0.0
C3451 C 0.53508 0.30955 0.82395 0.0
C3452 C 0.48063 0.31912 0.81273 0.0
C3453 C 0.50449 0.31291 0.82538 0.0
C3454 C 0.46542 0.31718 0.81146 0.0
C3455 C 0.45768 0.30919 0.82222 0.0
C3456 C 0.48815 0.31294 0.8248 0.0
C3457 C 0.46544 0.30388 0.83452 0.0
C3458 C 0.51205 0.30619 0.83714 0.0
C3459 C 0.52725 0.31692 0.81282 0.0
N3460 N 0.48029 0.30571 0.83539 0.0
N3461 N 0.51235 0.31824 0.81373 0.0
H3462 H 0.67181 0.4617 0.80416 0.0
H3463 H 0.6999 0.53503 0.84405 0.0
H3464 H 0.69855 0.46187 0.84359 0.0
H3465 H 0.67437 0.53477 0.80384 0.0
H3466 H 0.69636 0.50837 0.84616 0.0
H3467 H 0.66942 0.4885 0.80599 0.0
C3468 C 0.67703 0.46737 0.81331 0.0
C3469 C 0.68555 0.45961 0.82364 0.0
C3470 C 0.6914 0.51416 0.83695 0.0
C3471 C 0.68297 0.49024 0.82574 0.0
C3472 C 0.69341 0.52938 0.83576 0.0
C3473 C 0.68757 0.53706 0.82365 0.0
C3474 C 0.68355 0.50658 0.82593 0.0
C3475 C 0.67917 0.52923 0.81328 0.0
C3476 C 0.67568 0.48267 0.81434 0.0
C3477 C 0.69198 0.46746 0.83532 0.0
N3478 N 0.67754 0.51439 0.81457 0.0
N3479 N 0.6907 0.48238 0.83596 0.0
H3480 H 0.45939 0.29834 0.14768 0.0
H3481 H 0.53348 0.32255 0.18876 0.0
H3482 H 0.46046 0.32098 0.18958 0.0
H3483 H 0.53255 0.2966 0.14881 0.0
H3484 H 0.50679 0.32585 0.18693 0.0
H3485 H 0.48613 0.30138 0.14566 0.0
C3486 C 0.46524 0.30412 0.15636 0.0
C3487 C 0.45776 0.30925 0.16891 0.0
C3488 C 0.51243 0.31957 0.17847 0.0
C3489 C 0.48831 0.31268 0.16672 0.0
C3490 C 0.52767 0.31769 0.1795 0.0
C3491 C 0.53517 0.30912 0.16902 0.0
C3492 C 0.50465 0.31276 0.16692 0.0
C3493 C 0.52715 0.30318 0.1572 0.0
C3494 C 0.4805 0.30583 0.15522 0.0
C3495 C 0.46584 0.31673 0.17979 0.0
N3496 N 0.51228 0.30498 0.15655 0.0
N3497 N 0.48071 0.31809 0.17852 0.0
H3498 H 0.67217 0.45974 0.1894 0.0
H3499 H 0.69655 0.53371 0.14822 0.0
H3500 H 0.69757 0.46053 0.14909 0.0
H3501 H 0.67366 0.53274 0.18999 0.0
H3502 H 0.69343 0.50698 0.1462 0.0
H3503 H 0.66898 0.48645 0.1876 0.0
C3504 C 0.67693 0.46553 0.18007 0.0
C3505 C 0.68531 0.45798 0.16948 0.0
C3506 C 0.68895 0.51263 0.15573 0.0
C3507 C 0.68182 0.48852 0.16741 0.0
C3508 C 0.69071 0.52788 0.15688 0.0
C3509 C 0.68553 0.53538 0.16938 0.0
C3510 C 0.68199 0.50486 0.16721 0.0
C3511 C 0.67796 0.52735 0.18023 0.0
C3512 C 0.67512 0.48077 0.17906 0.0
C3513 C 0.69114 0.46597 0.15757 0.0
N3514 N 0.67655 0.51248 0.17897 0.0
N3515 N 0.68942 0.48085 0.15694 0.0
H3516 H 0.53367 0.67066 0.18922 0.0
H3517 H 0.45967 0.69471 0.14808 0.0
H3518 H 0.53277 0.6959 0.14882 0.0
H3519 H 0.46077 0.67231 0.19011 0.0
H3520 H 0.48634 0.69129 0.14586 0.0
H3521 H 0.50701 0.6672 0.18736 0.0
C3522 C 0.52788 0.67532 0.17986 0.0
C3523 C 0.53537 0.68376 0.16927 0.0
C3524 C 0.48073 0.68696 0.15548 0.0
C3525 C 0.50488 0.67995 0.16713 0.0
C3526 C 0.46551 0.6889 0.15675 0.0
C3527 C 0.45808 0.68397 0.1694 0.0
C3528 C 0.48854 0.68011 0.16698 0.0
C3529 C 0.46612 0.67642 0.18025 0.0
C3530 C 0.51265 0.67335 0.17881 0.0
C3531 C 0.52736 0.68944 0.1573 0.0
N3532 N 0.48096 0.67486 0.17887 0.0
N3533 N 0.5125 0.68758 0.15665 0.0
H3534 H 0.29551 0.46167 0.14949 0.0
H3535 H 0.32041 0.53555 0.19063 0.0
H3536 H 0.32025 0.46242 0.19019 0.0
H3537 H 0.29318 0.53485 0.15155 0.0
H3538 H 0.32378 0.50888 0.18844 0.0
H3539 H 0.29789 0.4885 0.14786 0.0
C3540 C 0.30161 0.46747 0.15798 0.0
C3541 C 0.30754 0.45987 0.17009 0.0
C3542 C 0.31718 0.51457 0.18025 0.0
C3543 C 0.31022 0.49052 0.16836 0.0
C3544 C 0.31527 0.52979 0.18149 0.0
C3545 C 0.30635 0.53736 0.17135 0.0
C3546 C 0.31008 0.50687 0.16883 0.0
C3547 C 0.30004 0.5294 0.15968 0.0
C3548 C 0.30294 0.48278 0.15707 0.0
C3549 C 0.31539 0.46789 0.18074 0.0
N3550 N 0.3019 0.51455 0.15881 0.0
N3551 N 0.31638 0.48281 0.1797 0.0
H3552 H 0.84777 0.5334 0.6989 0.0
H3553 H 0.80787 0.46031 0.67048 0.0
H3554 H 0.80943 0.53325 0.67063 0.0
H3555 H 0.8457 0.46029 0.69943 0.0
H3556 H 0.81072 0.48692 0.6672 0.0
H3557 H 0.84966 0.50664 0.69601 0.0
C3558 C 0.83988 0.52775 0.69192 0.0
C3559 C 0.8283 0.53549 0.68516 0.0
C3560 C 0.81851 0.48108 0.67414 0.0
C3561 C 0.83032 0.50492 0.68189 0.0
C3562 C 0.81689 0.46589 0.676 0.0
C3563 C 0.82644 0.45816 0.6854 0.0
C3564 C 0.82971 0.48858 0.68181 0.0
C3565 C 0.838 0.46589 0.6922 0.0
C3566 C 0.84095 0.51248 0.69028 0.0
C3567 C 0.81843 0.52766 0.67616 0.0
N3568 N 0.83921 0.48072 0.69041 0.0
N3569 N 0.81956 0.51278 0.67493 0.0
H3570 H 0.53286 0.80363 0.67265 0.0
H3571 H 0.45825 0.84299 0.69826 0.0
H3572 H 0.53151 0.84282 0.69969 0.0
H3573 H 0.45985 0.80175 0.67446 0.0
H3574 H 0.48498 0.84539 0.69535 0.0
H3575 H 0.50611 0.80512 0.66961 0.0
C3576 C 0.52694 0.81265 0.6778 0.0
C3577 C 0.53436 0.82301 0.68659 0.0
C3578 C 0.47947 0.83589 0.69063 0.0
C3579 C 0.50377 0.82473 0.68327 0.0
C3580 C 0.46422 0.83453 0.69227 0.0
C3581 C 0.45689 0.82206 0.68675 0.0
C3582 C 0.48742 0.82469 0.68344 0.0
C3583 C 0.46511 0.81147 0.67901 0.0
C3584 C 0.51168 0.81349 0.67609 0.0
C3585 C 0.52619 0.83453 0.69293 0.0
N3586 N 0.47996 0.81296 0.67771 0.0
N3587 N 0.51129 0.83499 0.69127 0.0
H3588 H 0.14745 0.53283 0.69273 0.0
H3589 H 0.19006 0.45875 0.67143 0.0
H3590 H 0.19013 0.53172 0.67157 0.0
H3591 H 0.14901 0.45975 0.69559 0.0
H3592 H 0.18809 0.48534 0.66749 0.0
H3593 H 0.14569 0.50604 0.68996 0.0
C3594 C 0.15637 0.52696 0.68732 0.0
C3595 C 0.16905 0.53444 0.68255 0.0
C3596 C 0.17942 0.47973 0.67351 0.0
C3597 C 0.16716 0.50385 0.67944 0.0
C3598 C 0.18054 0.46455 0.67576 0.0
C3599 C 0.16978 0.45711 0.68403 0.0
C3600 C 0.1675 0.48751 0.67965 0.0
C3601 C 0.15762 0.46511 0.68927 0.0
C3602 C 0.15536 0.51168 0.68576 0.0
C3603 C 0.18023 0.52634 0.67554 0.0
N3604 N 0.15689 0.47993 0.68714 0.0
N3605 N 0.17909 0.51145 0.67434 0.0
H3606 H 0.46061 0.14682 0.69546 0.0
H3607 H 0.53411 0.1894 0.67213 0.0
H3608 H 0.46115 0.1888 0.67293 0.0
H3609 H 0.53374 0.14897 0.69733 0.0
H3610 H 0.50749 0.18711 0.66856 0.0
H3611 H 0.48739 0.1452 0.69248 0.0
C3612 C 0.46635 0.1556 0.68971 0.0
C3613 C 0.45871 0.16806 0.68461 0.0
C3614 C 0.51324 0.17865 0.67474 0.0
C3615 C 0.48929 0.16634 0.68125 0.0
C3616 C 0.52844 0.17995 0.67677 0.0
C3617 C 0.53607 0.16947 0.68521 0.0
C3618 C 0.50563 0.16682 0.68127 0.0
C3619 C 0.52823 0.15737 0.69086 0.0
C3620 C 0.48163 0.15468 0.68803 0.0
C3621 C 0.46665 0.17907 0.67717 0.0
N3622 N 0.51339 0.15647 0.68893 0.0
N3623 N 0.48154 0.17803 0.67585 0.0
H3624 H 0.84569 0.46026 0.2985 0.0
H3625 H 0.80217 0.53315 0.3219 0.0
H3626 H 0.80328 0.46013 0.3202 0.0
H3627 H 0.84396 0.53341 0.29902 0.0
H3628 H 0.80424 0.50643 0.32482 0.0
H3629 H 0.8471 0.48698 0.30203 0.0
C3630 C 0.83676 0.46584 0.30417 0.0
C3631 C 0.82426 0.45804 0.3089 0.0
C3632 C 0.81304 0.51234 0.31931 0.0
C3633 C 0.82574 0.48856 0.31287 0.0
C3634 C 0.81187 0.5276 0.31765 0.0
C3635 C 0.82282 0.53545 0.31004 0.0
C3636 C 0.82521 0.50489 0.31323 0.0
C3637 C 0.8352 0.52774 0.30484 0.0
C3638 C 0.83756 0.48109 0.30617 0.0
C3639 C 0.81305 0.46577 0.31626 0.0
N3640 N 0.83599 0.51285 0.30639 0.0
N3641 N 0.81398 0.48063 0.31788 0.0
H3642 H 0.53438 0.80482 0.32148 0.0
H3643 H 0.46071 0.84614 0.29653 0.0
H3644 H 0.5338 0.84476 0.2955 0.0
H3645 H 0.46132 0.80482 0.32023 0.0
H3646 H 0.48744 0.84801 0.29964 0.0
H3647 H 0.50768 0.80687 0.32473 0.0
C3648 C 0.52865 0.81412 0.31661 0.0
C3649 C 0.53624 0.82453 0.30804 0.0
C3650 C 0.48171 0.83861 0.30431 0.0
C3651 C 0.50573 0.82689 0.31162 0.0
C3652 C 0.46645 0.83755 0.30255 0.0
C3653 C 0.45885 0.8252 0.30796 0.0
C3654 C 0.48939 0.82722 0.31148 0.0
C3655 C 0.4668 0.81445 0.31576 0.0
C3656 C 0.51341 0.81528 0.31846 0.0
C3657 C 0.52832 0.83642 0.30208 0.0
N3658 N 0.48167 0.81562 0.31715 0.0
N3659 N 0.51346 0.83718 0.30384 0.0
H3660 H 0.14652 0.45927 0.2976 0.0
H3661 H 0.18591 0.53314 0.32459 0.0
H3662 H 0.18743 0.46039 0.32197 0.0
H3663 H 0.14614 0.53243 0.29838 0.0
H3664 H 0.18415 0.50642 0.32754 0.0
H3665 H 0.1438 0.48584 0.30147 0.0
C3666 C 0.15483 0.46508 0.30392 0.0
C3667 C 0.16733 0.4577 0.30929 0.0
C3668 C 0.1757 0.51211 0.32129 0.0
C3669 C 0.16434 0.48804 0.31369 0.0
C3670 C 0.17669 0.52737 0.31962 0.0
C3671 C 0.16627 0.53494 0.31105 0.0
C3672 C 0.16427 0.50437 0.31423 0.0
C3673 C 0.15448 0.52697 0.30497 0.0
C3674 C 0.15328 0.48025 0.30612 0.0
C3675 C 0.17771 0.46571 0.3175 0.0
N3676 N 0.1539 0.51206 0.30651 0.0
N3677 N 0.17606 0.48049 0.31931 0.0
H3678 H 0.53298 0.18975 0.32175 0.0
H3679 H 0.45914 0.14868 0.29692 0.0
H3680 H 0.53229 0.14964 0.29606 0.0
H3681 H 0.45998 0.19024 0.32019 0.0
H3682 H 0.48585 0.14665 0.30011 0.0
H3683 H 0.50627 0.18788 0.32492 0.0
C3684 C 0.52722 0.18045 0.31693 0.0
C3685 C 0.53479 0.16994 0.30847 0.0
C3686 C 0.48017 0.15614 0.30467 0.0
C3687 C 0.50426 0.16778 0.31194 0.0
C3688 C 0.46493 0.15729 0.30286 0.0
C3689 C 0.4574 0.16974 0.30813 0.0
C3690 C 0.48792 0.16756 0.31174 0.0
C3691 C 0.4654 0.18052 0.31582 0.0
C3692 C 0.51197 0.17939 0.31873 0.0
C3693 C 0.52683 0.15806 0.30256 0.0
N3694 N 0.48026 0.17926 0.31727 0.0
N3695 N 0.51195 0.15738 0.30427 0.0
H3696 H 0.69579 0.84737 0.46036 0.0
H3697 H 0.6705 0.80532 0.53345 0.0
H3698 H 0.6725 0.80581 0.46045 0.0
H3699 H 0.69486 0.84626 0.53347 0.0
H3700 H 0.66764 0.80735 0.50672 0.0
H3701 H 0.69209 0.84918 0.48702 0.0
C3702 C 0.68973 0.83872 0.46597 0.0
C3703 C 0.68461 0.82633 0.45825 0.0
C3704 C 0.67346 0.81599 0.51258 0.0
C3705 C 0.68044 0.82825 0.48872 0.0
C3706 C 0.67508 0.81484 0.52784 0.0
C3707 C 0.6831 0.82554 0.53563 0.0
C3708 C 0.67998 0.82788 0.50506 0.0
C3709 C 0.68871 0.83769 0.52785 0.0
C3710 C 0.68764 0.83975 0.48119 0.0
C3711 C 0.67676 0.81548 0.46602 0.0
N3712 N 0.6872 0.83845 0.51296 0.0
N3713 N 0.67506 0.81662 0.48087 0.0
H3714 H 0.69536 0.14707 0.4604 0.0
H3715 H 0.6712 0.1893 0.53379 0.0
H3716 H 0.67161 0.18837 0.46079 0.0
H3717 H 0.69675 0.14909 0.5335 0.0
H3718 H 0.66767 0.18694 0.50717 0.0
H3719 H 0.69239 0.14543 0.48717 0.0
C3720 C 0.68935 0.15569 0.46611 0.0
C3721 C 0.6839 0.16797 0.45843 0.0
C3722 C 0.67391 0.17854 0.51294 0.0
C3723 C 0.68055 0.16624 0.48901 0.0
C3724 C 0.67591 0.17988 0.52814 0.0
C3725 C 0.68444 0.16948 0.53579 0.0
C3726 C 0.68056 0.16676 0.50535 0.0
C3727 C 0.69021 0.15743 0.52797 0.0
C3728 C 0.68767 0.15476 0.48138 0.0
C3729 C 0.67612 0.17878 0.46633 0.0
N3730 N 0.6883 0.15649 0.51313 0.0
N3731 N 0.67482 0.17774 0.48122 0.0
H3732 H 0.80247 0.67297 0.53362 0.0
H3733 H 0.84486 0.69768 0.46045 0.0
H3734 H 0.84275 0.69841 0.53362 0.0
H3735 H 0.80341 0.67419 0.46062 0.0
H3736 H 0.84642 0.69454 0.48721 0.0
H3737 H 0.80478 0.66981 0.50694 0.0
C3738 C 0.81189 0.67775 0.52801 0.0
C3739 C 0.82233 0.68613 0.53577 0.0
C3740 C 0.83707 0.68992 0.48138 0.0
C3741 C 0.825 0.68266 0.50527 0.0
C3742 C 0.83619 0.69169 0.4661 0.0
C3743 C 0.82389 0.68635 0.45837 0.0
C3744 C 0.82554 0.68281 0.48894 0.0
C3745 C 0.81301 0.67861 0.4662 0.0
C3746 C 0.8132 0.67595 0.51279 0.0
C3747 C 0.83438 0.69198 0.52801 0.0
N3748 N 0.81401 0.67721 0.48108 0.0
N3749 N 0.8353 0.69027 0.51315 0.0
H3750 H 0.32229 0.80604 0.45975 0.0
H3751 H 0.29656 0.84652 0.53367 0.0
H3752 H 0.29586 0.84567 0.46043 0.0
H3753 H 0.32079 0.80551 0.53277 0.0
H3754 H 0.29954 0.84855 0.50692 0.0
H3755 H 0.32523 0.80786 0.48648 0.0
C3756 C 0.31724 0.81523 0.46552 0.0
C3757 C 0.30866 0.82562 0.45792 0.0
C3758 C 0.30434 0.83919 0.51259 0.0
C3759 C 0.31187 0.82772 0.48849 0.0
C3760 C 0.30266 0.83804 0.52786 0.0
C3761 C 0.30828 0.82574 0.53538 0.0
C3762 C 0.31166 0.82793 0.50483 0.0
C3763 C 0.31616 0.81511 0.52735 0.0
C3764 C 0.31891 0.81625 0.48078 0.0
C3765 C 0.30246 0.83735 0.4659 0.0
N3766 N 0.31749 0.81637 0.51248 0.0
N3767 N 0.30406 0.838 0.48079 0.0
H3768 H 0.14905 0.29828 0.45988 0.0
H3769 H 0.19122 0.32083 0.53381 0.0
H3770 H 0.19152 0.31985 0.46079 0.0
H3771 H 0.1499 0.29714 0.53301 0.0
H3772 H 0.18949 0.32426 0.50712 0.0
H3773 H 0.14717 0.30144 0.48661 0.0
C3774 C 0.15789 0.30385 0.46569 0.0
C3775 C 0.17055 0.30863 0.45818 0.0
C3776 C 0.18071 0.31845 0.51279 0.0
C3777 C 0.16852 0.3122 0.48871 0.0
C3778 C 0.18169 0.3165 0.52803 0.0
C3779 C 0.17079 0.30852 0.53556 0.0
C3780 C 0.16877 0.31228 0.50505 0.0
C3781 C 0.15862 0.30324 0.52758 0.0
C3782 C 0.15682 0.30563 0.48094 0.0
C3783 C 0.18163 0.31586 0.4662 0.0
N3784 N 0.15802 0.30508 0.51271 0.0
N3785 N 0.18043 0.31729 0.48107 0.0
H3786 H 0.29599 0.14669 0.5343 0.0
H3787 H 0.32202 0.18763 0.46075 0.0
H3788 H 0.32024 0.18769 0.53376 0.0
H3789 H 0.29559 0.14799 0.46108 0.0
H3790 H 0.32492 0.18561 0.48747 0.0
H3791 H 0.29913 0.1448 0.50756 0.0
C3792 C 0.30213 0.1552 0.52857 0.0
C3793 C 0.30771 0.16746 0.53619 0.0
C3794 C 0.31861 0.17726 0.48169 0.0
C3795 C 0.31127 0.16543 0.50565 0.0
C3796 C 0.31697 0.1784 0.46644 0.0
C3797 C 0.3084 0.16806 0.45875 0.0
C3798 C 0.31156 0.16574 0.48931 0.0
C3799 C 0.30219 0.15627 0.46663 0.0
C3800 C 0.30391 0.15413 0.51331 0.0
C3801 C 0.31564 0.17813 0.52826 0.0
N3802 N 0.30376 0.15551 0.48152 0.0
N3803 N 0.31706 0.17694 0.51339 0.0
H3804 H 0.80245 0.32158 0.46009 0.0
H3805 H 0.84504 0.29727 0.53324 0.0
H3806 H 0.84277 0.29622 0.46011 0.0
H3807 H 0.80376 0.32104 0.53313 0.0
H3808 H 0.84649 0.3002 0.50645 0.0
H3809 H 0.80483 0.3249 0.48674 0.0
C3810 C 0.8119 0.31686 0.46569 0.0
C3811 C 0.82233 0.30846 0.45795 0.0
C3812 C 0.83719 0.30493 0.5123 0.0
C3813 C 0.82508 0.31211 0.48842 0.0
C3814 C 0.83638 0.30327 0.52759 0.0
C3815 C 0.82416 0.30876 0.53535 0.0
C3816 C 0.82568 0.31206 0.50475 0.0
C3817 C 0.81329 0.31652 0.52753 0.0
C3818 C 0.81325 0.31875 0.48091 0.0
C3819 C 0.83441 0.30267 0.46571 0.0
N3820 N 0.81423 0.3178 0.51263 0.0
N3821 N 0.83537 0.30447 0.48056 0.0
H3822 H 0.1905 0.67325 0.53331 0.0
H3823 H 0.14945 0.69741 0.4592 0.0
H3824 H 0.15011 0.69851 0.53244 0.0
H3825 H 0.19122 0.67453 0.46031 0.0
H3826 H 0.14743 0.69446 0.48595 0.0
H3827 H 0.18883 0.67013 0.5066 0.0
C3828 C 0.18119 0.678 0.52751 0.0
C3829 C 0.17053 0.68632 0.53504 0.0
C3830 C 0.15696 0.68994 0.48033 0.0
C3831 C 0.1686 0.68289 0.50449 0.0
C3832 C 0.15811 0.69161 0.46506 0.0
C3833 C 0.17061 0.68636 0.45759 0.0
C3834 C 0.16843 0.68303 0.48815 0.0
C3835 C 0.18146 0.67886 0.46568 0.0
C3836 C 0.18024 0.67623 0.51225 0.0
C3837 C 0.15864 0.69213 0.52702 0.0
N3838 N 0.18019 0.67754 0.48055 0.0
N3839 N 0.15807 0.69045 0.51213 0.0
H3840 H 0.15695 0.10489 0.29344 0.0
H3841 H 0.10332 0.1553 0.34214 0.0
H3842 H 0.15578 0.10382 0.34106 0.0
H3843 H 0.10572 0.15718 0.29459 0.0
H3844 H 0.12053 0.1345 0.34191 0.0
H3845 H 0.1362 0.12209 0.29358 0.0
C3846 C 0.15223 0.10819 0.30393 0.0
C3847 C 0.15815 0.10305 0.31727 0.0
C3848 C 0.1172 0.13938 0.33152 0.0
C3849 C 0.13447 0.12277 0.31752 0.0
C3850 C 0.10737 0.15124 0.33164 0.0
C3851 C 0.10321 0.15803 0.31837 0.0
C3852 C 0.12291 0.13433 0.31801 0.0
C3853 C 0.10873 0.15231 0.30509 0.0
C3854 C 0.14039 0.11801 0.304 0.0
C3855 C 0.15158 0.1076 0.33053 0.0
N3856 N 0.11838 0.14085 0.30525 0.0
N3857 N 0.14016 0.11731 0.33033 0.0
H3858 H 0.88809 0.15843 0.29245 0.0
H3859 H 0.83797 0.10397 0.34056 0.0
H3860 H 0.88903 0.1568 0.34005 0.0
H3861 H 0.83581 0.10711 0.29308 0.0
H3862 H 0.85868 0.12129 0.34048 0.0
H3863 H 0.87097 0.1376 0.29234 0.0
C3864 C 0.88479 0.15359 0.30288 0.0
C3865 C 0.88987 0.1594 0.31629 0.0
C3866 C 0.85375 0.1181 0.33007 0.0
C3867 C 0.87023 0.13565 0.31626 0.0
C3868 C 0.84195 0.10821 0.33011 0.0
C3869 C 0.83511 0.10422 0.31681 0.0
C3870 C 0.85871 0.12405 0.31663 0.0
C3871 C 0.84071 0.10998 0.30359 0.0
C3872 C 0.875 0.14172 0.30281 0.0
C3873 C 0.8853 0.15269 0.32947 0.0
N3874 N 0.85213 0.11969 0.30384 0.0
N3875 N 0.87563 0.14123 0.32913 0.0
H3876 H 0.88965 0.83584 0.29179 0.0
H3877 H 0.84067 0.89127 0.33991 0.0
H3878 H 0.89164 0.83844 0.33931 0.0
H3879 H 0.83755 0.88736 0.29254 0.0
H3880 H 0.86146 0.87406 0.33969 0.0
H3881 H 0.87269 0.8568 0.29161 0.0
C3882 C 0.88662 0.84092 0.30218 0.0
C3883 C 0.89194 0.83533 0.3156 0.0
C3884 C 0.85631 0.87706 0.32932 0.0
C3885 C 0.87247 0.85924 0.3155 0.0
C3886 C 0.84446 0.88689 0.32945 0.0
C3887 C 0.83732 0.89062 0.31624 0.0
C3888 C 0.861 0.87089 0.31589 0.0
C3889 C 0.84269 0.88469 0.30299 0.0
C3890 C 0.87692 0.85287 0.30208 0.0
C3891 C 0.88771 0.84236 0.32873 0.0
N3892 N 0.85414 0.87502 0.30316 0.0
N3893 N 0.87812 0.85388 0.32836 0.0
H3894 H 0.10531 0.83435 0.33798 0.0
H3895 H 0.15644 0.88863 0.29088 0.0
H3896 H 0.10564 0.83578 0.29036 0.0
H3897 H 0.15602 0.88739 0.3385 0.0
H3898 H 0.13597 0.87109 0.29051 0.0
H3899 H 0.122 0.85554 0.33846 0.0
C3900 C 0.1088 0.83922 0.32763 0.0
C3901 C 0.10421 0.83325 0.31411 0.0
C3902 C 0.14026 0.87474 0.30105 0.0
C3903 C 0.12335 0.85741 0.31456 0.0
C3904 C 0.15194 0.88476 0.30126 0.0
C3905 C 0.15799 0.88935 0.31474 0.0
C3906 C 0.13466 0.86922 0.31441 0.0
C3907 C 0.15171 0.88406 0.32787 0.0
C3908 C 0.11833 0.85131 0.3279 0.0
C3909 C 0.109 0.84 0.30102 0.0
N3910 N 0.14046 0.87417 0.32737 0.0
N3911 N 0.11841 0.85166 0.30157 0.0
H3912 H 0.15844 0.8852 0.7028 0.0
H3913 H 0.10213 0.83753 0.65437 0.0
H3914 H 0.15483 0.88869 0.65543 0.0
H3915 H 0.10625 0.83368 0.70168 0.0
H3916 H 0.11968 0.85802 0.65478 0.0
H3917 H 0.13765 0.86803 0.70286 0.0
C3918 C 0.15319 0.88243 0.69242 0.0
C3919 C 0.15842 0.88827 0.67907 0.0
C3920 C 0.11666 0.85277 0.66509 0.0
C3921 C 0.13468 0.86859 0.67904 0.0
C3922 C 0.10663 0.84109 0.66486 0.0
C3923 C 0.10283 0.83385 0.678 0.0
C3924 C 0.12296 0.85719 0.67855 0.0
C3925 C 0.10895 0.83892 0.69128 0.0
C3926 C 0.14133 0.87263 0.69246 0.0
C3927 C 0.15118 0.88437 0.66596 0.0
N3928 N 0.1188 0.85022 0.6912 0.0
N3929 N 0.13974 0.87468 0.66626 0.0
H3930 H 0.15886 0.10603 0.70236 0.0
H3931 H 0.10333 0.15463 0.65394 0.0
H3932 H 0.15521 0.10261 0.65499 0.0
H3933 H 0.10762 0.15847 0.70123 0.0
H3934 H 0.12059 0.13389 0.65433 0.0
H3935 H 0.13839 0.12358 0.70242 0.0
C3936 C 0.15366 0.10889 0.69198 0.0
C3937 C 0.15879 0.10296 0.67864 0.0
C3938 C 0.11768 0.13919 0.66464 0.0
C3939 C 0.13543 0.12308 0.67859 0.0
C3940 C 0.10782 0.15102 0.66442 0.0
C3941 C 0.10415 0.15832 0.67756 0.0
C3942 C 0.12393 0.13469 0.67809 0.0
C3943 C 0.11023 0.15319 0.69083 0.0
C3944 C 0.14199 0.11892 0.69201 0.0
C3945 C 0.15164 0.107 0.66551 0.0
N3946 N 0.1199 0.14174 0.69075 0.0
N3947 N 0.14038 0.11689 0.66581 0.0
H3948 H 0.8875 0.15866 0.70142 0.0
H3949 H 0.83911 0.10234 0.65373 0.0
H3950 H 0.89044 0.15485 0.65402 0.0
H3951 H 0.83504 0.10746 0.70092 0.0
H3952 H 0.85991 0.11953 0.65392 0.0
H3953 H 0.87027 0.13793 0.70176 0.0
C3954 C 0.88461 0.15337 0.69109 0.0
C3955 C 0.89029 0.15854 0.67766 0.0
C3956 C 0.85455 0.11681 0.66426 0.0
C3957 C 0.87053 0.13487 0.67795 0.0
C3958 C 0.84269 0.10699 0.66415 0.0
C3959 C 0.83529 0.10359 0.67731 0.0
C3960 C 0.85899 0.1233 0.67762 0.0
C3961 C 0.8404 0.10987 0.69051 0.0
C3962 C 0.87476 0.14154 0.69129 0.0
C3963 C 0.88624 0.15125 0.66462 0.0
N3964 N 0.85187 0.11951 0.69031 0.0
N3965 N 0.87651 0.13985 0.66507 0.0
H3966 H 0.88897 0.83724 0.70163 0.0
H3967 H 0.83754 0.88943 0.65242 0.0
H3968 H 0.88782 0.83594 0.65402 0.0
H3969 H 0.83662 0.88844 0.70004 0.0
H3970 H 0.85825 0.87212 0.65274 0.0
H3971 H 0.87213 0.85829 0.7012 0.0
C3972 C 0.88527 0.84148 0.69108 0.0
C3973 C 0.88966 0.83477 0.67785 0.0
C3974 C 0.8536 0.87578 0.66312 0.0
C3975 C 0.87035 0.85878 0.67726 0.0
C3976 C 0.8418 0.88567 0.66294 0.0
C3977 C 0.8353 0.89025 0.67622 0.0
C3978 C 0.8589 0.87044 0.67668 0.0
C3979 C 0.84126 0.8851 0.68955 0.0
C3980 C 0.87564 0.85349 0.69084 0.0
C3981 C 0.88461 0.84074 0.66449 0.0
N3982 N 0.85266 0.87538 0.68943 0.0
N3983 N 0.87512 0.85234 0.66454 0.0
H3984 H 0.33994 0.15514 0.10207 0.0
H3985 H 0.29105 0.10737 0.15792 0.0
H3986 H 0.29265 0.15919 0.1061 0.0
H3987 H 0.33848 0.10417 0.1549 0.0
H3988 H 0.29114 0.12443 0.13703 0.0
H3989 H 0.33937 0.13451 0.11946 0.0
C3990 C 0.32942 0.15159 0.10652 0.0
C3991 C 0.31634 0.15894 0.10275 0.0
C3992 C 0.30153 0.11991 0.14085 0.0
C3993 C 0.3156 0.13544 0.12269 0.0
C3994 C 0.30147 0.11017 0.15277 0.0
C3995 C 0.31479 0.10446 0.1582 0.0
C3996 C 0.31501 0.12401 0.13437 0.0
C3997 C 0.32797 0.10839 0.1511 0.0
C3998 C 0.3291 0.13983 0.11645 0.0
C3999 C 0.30301 0.15388 0.10878 0.0
N4000 N 0.32776 0.11802 0.13961 0.0
N4001 N 0.30299 0.1425 0.11854 0.0
H4002 H 0.89162 0.34012 0.15421 0.0
H4003 H 0.83653 0.29174 0.1051 0.0
H4004 H 0.88773 0.29275 0.15752 0.0
H4005 H 0.83892 0.33929 0.10314 0.0
H4006 H 0.85739 0.29166 0.12218 0.0
H4007 H 0.87445 0.3398 0.1334 0.0
C4008 C 0.88725 0.32964 0.15046 0.0
C4009 C 0.89098 0.31645 0.15766 0.0
C4010 C 0.85344 0.30211 0.11793 0.0
C4011 C 0.87131 0.316 0.13393 0.0
C4012 C 0.84154 0.30216 0.10816 0.0
C4013 C 0.83593 0.31555 0.10282 0.0
C4014 C 0.85972 0.31556 0.12241 0.0
C4015 C 0.84286 0.32872 0.10709 0.0
C4016 C 0.87744 0.32946 0.1386 0.0
C4017 C 0.88506 0.30318 0.15233 0.0
N4018 N 0.85434 0.3284 0.11673 0.0
N4019 N 0.87543 0.3033 0.14085 0.0
H4020 H 0.70253 0.88829 0.15671 0.0
H4021 H 0.65322 0.83809 0.10352 0.0
H4022 H 0.65494 0.88997 0.15546 0.0
H4023 H 0.70077 0.83594 0.10556 0.0
H4024 H 0.65372 0.85907 0.1205 0.0
H4025 H 0.70222 0.87113 0.13593 0.0
C4026 C 0.69202 0.88514 0.15196 0.0
C4027 C 0.67873 0.89043 0.15788 0.0
C4028 C 0.66405 0.85409 0.11714 0.0
C4029 C 0.67827 0.87073 0.13418 0.0
C4030 C 0.66377 0.84213 0.10744 0.0
C4031 C 0.67696 0.83521 0.10326 0.0
C4032 C 0.67763 0.85911 0.1227 0.0
C4033 C 0.69033 0.8409 0.1086 0.0
C4034 C 0.69184 0.87533 0.14011 0.0
C4035 C 0.66543 0.88607 0.15127 0.0
N4036 N 0.69031 0.85245 0.11814 0.0
N4037 N 0.66553 0.87636 0.13985 0.0
H4038 H 0.15281 0.65721 0.09841 0.0
H4039 H 0.11057 0.70051 0.16263 0.0
H4040 H 0.16206 0.7024 0.11031 0.0
H4041 H 0.10046 0.65575 0.14983 0.0
H4042 H 0.12805 0.70213 0.14214 0.0
H4043 H 0.13215 0.65715 0.11575 0.0
C4044 C 0.1504 0.66716 0.10458 0.0
C4045 C 0.1592 0.6798 0.10302 0.0
C4046 C 0.12193 0.69199 0.14373 0.0
C4047 C 0.13567 0.67979 0.12294 0.0
C4048 C 0.11195 0.69107 0.15543 0.0
C4049 C 0.10416 0.67794 0.15798 0.0
C4050 C 0.12417 0.67967 0.13458 0.0
C4051 C 0.10631 0.66606 0.14829 0.0
C4052 C 0.13861 0.66713 0.11449 0.0
C4053 C 0.15558 0.6924 0.11124 0.0
N4054 N 0.11621 0.66717 0.13708 0.0
N4055 N 0.14415 0.69205 0.12094 0.0
H4056 H 0.33751 0.89322 0.84137 0.0
H4057 H 0.29288 0.82876 0.88183 0.0
H4058 H 0.29254 0.88159 0.83081 0.0
H4059 H 0.33711 0.84183 0.89377 0.0
H4060 H 0.29186 0.84926 0.86432 0.0
H4061 H 0.33694 0.87568 0.86187 0.0
C4062 C 0.32748 0.88705 0.84345 0.0
C4063 C 0.31509 0.88876 0.83434 0.0
C4064 C 0.30175 0.84772 0.87085 0.0
C4065 C 0.31437 0.86863 0.85768 0.0
C4066 C 0.30233 0.83603 0.88084 0.0
C4067 C 0.31514 0.83355 0.88916 0.0
C4068 C 0.31409 0.85696 0.86912 0.0
C4069 C 0.32704 0.84331 0.8875 0.0
C4070 C 0.32715 0.87704 0.85514 0.0
C4071 C 0.30236 0.88055 0.83754 0.0
N4072 N 0.32627 0.85453 0.87759 0.0
N4073 N 0.30236 0.87075 0.84888 0.0
H4074 H 0.15796 0.29275 0.88826 0.0
H4075 H 0.10214 0.33985 0.83874 0.0
H4076 H 0.15419 0.34018 0.89062 0.0
H4077 H 0.10717 0.29258 0.83551 0.0
H4078 H 0.11921 0.33996 0.85964 0.0
H4079 H 0.1374 0.29223 0.87085 0.0
C4080 C 0.15271 0.30305 0.8852 0.0
C4081 C 0.15784 0.31654 0.89077 0.0
C4082 C 0.1165 0.32955 0.85444 0.0
C4083 C 0.13438 0.31606 0.8708 0.0
C4084 C 0.10674 0.32948 0.84252 0.0
C4085 C 0.10335 0.3162 0.83534 0.0
C4086 C 0.12291 0.31625 0.85915 0.0
C4087 C 0.10957 0.30308 0.8407 0.0
C4088 C 0.14098 0.30275 0.87525 0.0
C4089 C 0.15061 0.32955 0.8865 0.0
N4090 N 0.11914 0.30345 0.85222 0.0
N4091 N 0.13931 0.329 0.87667 0.0
H4092 H 0.7017 0.15961 0.88708 0.0
H4093 H 0.65423 0.10257 0.83932 0.0
H4094 H 0.65434 0.15551 0.89027 0.0
H4095 H 0.70136 0.10805 0.83503 0.0
H4096 H 0.65435 0.11998 0.85994 0.0
H4097 H 0.70209 0.13881 0.86995 0.0
C4098 C 0.69139 0.15424 0.88426 0.0
C4099 C 0.67795 0.15935 0.88999 0.0
C4100 C 0.66468 0.11729 0.85457 0.0
C4101 C 0.6783 0.13559 0.87035 0.0
C4102 C 0.66462 0.10734 0.84282 0.0
C4103 C 0.67779 0.10398 0.83541 0.0
C4104 C 0.67801 0.12393 0.8589 0.0
C4105 C 0.69094 0.11042 0.8404 0.0
C4106 C 0.69162 0.14238 0.87447 0.0
C4107 C 0.66493 0.15196 0.88603 0.0
N4108 N 0.6907 0.12017 0.85177 0.0
N4109 N 0.66542 0.14051 0.87636 0.0
H4110 H 0.88473 0.70313 0.83187 0.0
H4111 H 0.84273 0.65823 0.89501 0.0
H4112 H 0.89515 0.65822 0.84388 0.0
H4113 H 0.83322 0.70362 0.88412 0.0
H4114 H 0.86369 0.65883 0.87806 0.0
H4115 H 0.86755 0.7044 0.85265 0.0
C4116 C 0.8835 0.69359 0.83898 0.0
C4117 C 0.89124 0.6805 0.83609 0.0
C4118 C 0.8571 0.66871 0.87946 0.0
C4119 C 0.87157 0.68182 0.85978 0.0
C4120 C 0.84514 0.66836 0.88914 0.0
C4121 C 0.83616 0.68085 0.89084 0.0
C4122 C 0.86004 0.68161 0.87137 0.0
C4123 C 0.83981 0.69371 0.88304 0.0
C4124 C 0.8737 0.69431 0.85083 0.0
C4125 C 0.88931 0.66849 0.84567 0.0
N4126 N 0.8514 0.69372 0.87353 0.0
N4127 N 0.87956 0.66939 0.85701 0.0
H4128 H 0.15603 0.33988 0.10395 0.0
H4129 H 0.10762 0.29075 0.15906 0.0
H4130 H 0.16046 0.29264 0.1082 0.0
H4131 H 0.1043 0.33818 0.15603 0.0
H4132 H 0.12513 0.29093 0.13854 0.0
H4133 H 0.13524 0.33921 0.12113 0.0
C4134 C 0.15255 0.32935 0.10841 0.0
C4135 C 0.16003 0.31631 0.10476 0.0
C4136 C 0.12049 0.30129 0.14228 0.0
C4137 C 0.13632 0.31545 0.12444 0.0
C4138 C 0.11048 0.30119 0.15398 0.0
C4139 C 0.10461 0.31448 0.1593 0.0
C4140 C 0.12468 0.3148 0.1359 0.0
C4141 C 0.10865 0.32769 0.1523 0.0
C4142 C 0.14069 0.32897 0.11823 0.0
C4143 C 0.15504 0.30296 0.1108 0.0
N4144 N 0.11852 0.32752 0.14102 0.0
N4145 N 0.14355 0.30289 0.12043 0.0
H4146 H 0.15544 0.70192 0.88862 0.0
H4147 H 0.10528 0.65152 0.83637 0.0
H4148 H 0.15763 0.65434 0.88769 0.0
H4149 H 0.1046 0.69915 0.8359 0.0
H4150 H 0.12231 0.65224 0.85728 0.0
H4151 H 0.13464 0.70104 0.87148 0.0
C4152 C 0.15144 0.69128 0.88491 0.0
C4153 C 0.15833 0.67819 0.88945 0.0
C4154 C 0.11835 0.66253 0.85268 0.0
C4155 C 0.13462 0.67708 0.8698 0.0
C4156 C 0.10862 0.66212 0.84076 0.0
C4157 C 0.10365 0.6753 0.83433 0.0
C4158 C 0.12315 0.67622 0.85818 0.0
C4159 C 0.10826 0.68874 0.84048 0.0
C4160 C 0.13958 0.69078 0.87512 0.0
C4161 C 0.15268 0.6647 0.88438 0.0
N4162 N 0.11784 0.68885 0.852 0.0
N4163 N 0.14122 0.6645 0.87472 0.0
H4164 H 0.29073 0.16233 0.88365 0.0
H4165 H 0.33834 0.1025 0.83944 0.0
H4166 H 0.33743 0.15561 0.89027 0.0
H4167 H 0.29187 0.11008 0.83218 0.0
H4168 H 0.33779 0.12034 0.85969 0.0
H4169 H 0.29048 0.14164 0.86635 0.0
C4170 C 0.30091 0.15641 0.88154 0.0
C4171 C 0.31414 0.16073 0.88831 0.0
C4172 C 0.32769 0.11803 0.85374 0.0
C4173 C 0.31397 0.13711 0.8685 0.0
C4174 C 0.328 0.10784 0.84219 0.0
C4175 C 0.31515 0.1049 0.83408 0.0
C4176 C 0.31444 0.12534 0.85715 0.0
C4177 C 0.30204 0.11208 0.83812 0.0
C4178 C 0.30077 0.14462 0.87166 0.0
C4179 C 0.327 0.15268 0.88522 0.0
N4180 N 0.30205 0.12204 0.84931 0.0
N4181 N 0.32661 0.1413 0.87546 0.0
H4182 H 0.88643 0.29173 0.83499 0.0
H4183 H 0.83835 0.34048 0.8907 0.0
H4184 H 0.89018 0.33909 0.8386 0.0
H4185 H 0.83372 0.29332 0.88583 0.0
H4186 H 0.85922 0.33992 0.87359 0.0
H4187 H 0.86901 0.2918 0.85557 0.0
C4188 C 0.88368 0.30214 0.84021 0.0
C4189 C 0.88964 0.31544 0.83503 0.0
C4190 C 0.85371 0.32968 0.87635 0.0
C4191 C 0.86967 0.31563 0.8585 0.0
C4192 C 0.84181 0.33 0.88612 0.0
C4193 C 0.83424 0.31694 0.88957 0.0
C4194 C 0.85803 0.31621 0.86998 0.0
C4195 C 0.8392 0.30365 0.88339 0.0
C4196 C 0.87372 0.30218 0.85195 0.0
C4197 C 0.88576 0.32859 0.84222 0.0
N4198 N 0.85073 0.30364 0.87381 0.0
N4199 N 0.87592 0.32837 0.85353 0.0
H4200 H 0.70179 0.88773 0.83498 0.0
H4201 H 0.65352 0.83971 0.89113 0.0
H4202 H 0.65435 0.89062 0.83821 0.0
H4203 H 0.70075 0.8356 0.88642 0.0
H4204 H 0.65389 0.86045 0.87386 0.0
H4205 H 0.70191 0.87071 0.85589 0.0
C4206 C 0.69141 0.88487 0.84018 0.0
C4207 C 0.67803 0.89047 0.83479 0.0
C4208 C 0.66419 0.85509 0.8767 0.0
C4209 C 0.67806 0.87096 0.85865 0.0
C4210 C 0.66398 0.84327 0.88657 0.0
C4211 C 0.67711 0.83587 0.89009 0.0
C4212 C 0.67761 0.8595 0.8703 0.0
C4213 C 0.69036 0.84095 0.88391 0.0
C4214 C 0.69148 0.87515 0.85211 0.0
C4215 C 0.6649 0.88647 0.84198 0.0
N4216 N 0.69026 0.85239 0.87423 0.0
N4217 N 0.66524 0.87686 0.85348 0.0
H4218 H 0.83619 0.70103 0.10601 0.0
H4219 H 0.88863 0.65202 0.15733 0.0
H4220 H 0.83692 0.65341 0.10525 0.0
H4221 H 0.88773 0.69964 0.15818 0.0
H4222 H 0.8714 0.65233 0.13658 0.0
H4223 H 0.85677 0.70081 0.12343 0.0
C4224 C 0.84077 0.69053 0.10942 0.0
C4225 C 0.83479 0.67722 0.10429 0.0
C4226 C 0.87506 0.66272 0.14122 0.0
C4227 C 0.85826 0.67685 0.12426 0.0
C4228 C 0.8849 0.66254 0.15306 0.0
C4229 C 0.88951 0.67582 0.15953 0.0
C4230 C 0.86976 0.67628 0.13587 0.0
C4231 C 0.88438 0.68915 0.15355 0.0
C4232 C 0.85251 0.6904 0.11937 0.0
C4233 C 0.84117 0.66392 0.109 0.0
N4234 N 0.87469 0.68904 0.14211 0.0
N4235 N 0.8525 0.66407 0.11882 0.0
H4236 H 0.29333 0.83661 0.10535 0.0
H4237 H 0.34076 0.89214 0.15484 0.0
H4238 H 0.34086 0.83942 0.10378 0.0
H4239 H 0.29339 0.88791 0.15765 0.0
H4240 H 0.34079 0.87499 0.13401 0.0
H4241 H 0.29291 0.85751 0.12237 0.0
C4242 C 0.30367 0.84172 0.10849 0.0
C4243 C 0.31716 0.83621 0.10327 0.0
C4244 C 0.33037 0.8779 0.1391 0.0
C4245 C 0.31678 0.86006 0.1228 0.0
C4246 C 0.33035 0.8877 0.15098 0.0
C4247 C 0.31707 0.89132 0.15804 0.0
C4248 C 0.31701 0.87167 0.13431 0.0
C4249 C 0.30389 0.88532 0.15257 0.0
C4250 C 0.30343 0.85364 0.11822 0.0
C4251 C 0.33022 0.84328 0.10763 0.0
N4252 N 0.30421 0.87569 0.14109 0.0
N4253 N 0.32972 0.85477 0.11725 0.0
H4254 H 0.70139 0.15733 0.10543 0.0
H4255 H 0.65314 0.10281 0.15533 0.0
H4256 H 0.65381 0.15532 0.10401 0.0
H4257 H 0.70056 0.10641 0.15812 0.0
H4258 H 0.65335 0.11989 0.13443 0.0
H4259 H 0.70148 0.13655 0.12262 0.0
C4260 C 0.69096 0.15242 0.10864 0.0
C4261 C 0.67756 0.15811 0.10341 0.0
C4262 C 0.66372 0.11685 0.13954 0.0
C4263 C 0.67757 0.13441 0.12312 0.0
C4264 C 0.6636 0.1071 0.15145 0.0
C4265 C 0.67684 0.10332 0.15853 0.0
C4266 C 0.67717 0.12288 0.13471 0.0
C4267 C 0.69009 0.10913 0.15303 0.0
C4268 C 0.69102 0.14057 0.11846 0.0
C4269 C 0.66439 0.15131 0.10786 0.0
N4270 N 0.68991 0.11871 0.14151 0.0
N4271 N 0.66471 0.13988 0.11756 0.0
H4272 H 0.60474 0.65641 0.79338 0.0
H4273 H 0.65844 0.60493 0.84073 0.0
H4274 H 0.60556 0.65579 0.84101 0.0
H4275 H 0.65761 0.60564 0.79311 0.0
H4276 H 0.63725 0.62161 0.84109 0.0
H4277 H 0.62225 0.6359 0.79307 0.0
C4278 C 0.60852 0.65186 0.80377 0.0
C4279 C 0.60382 0.65787 0.81724 0.0
C4280 C 0.64161 0.61803 0.83056 0.0
C4281 C 0.6239 0.63449 0.81698 0.0
C4282 C 0.6537 0.60849 0.83035 0.0
C4283 C 0.65985 0.60402 0.81687 0.0
C4284 C 0.63568 0.62316 0.81718 0.0
C4285 C 0.65325 0.60891 0.80375 0.0
C4286 C 0.61851 0.64016 0.8036 0.0
C4287 C 0.60898 0.65153 0.83038 0.0
N4288 N 0.6416 0.61832 0.80423 0.0
N4289 N 0.61885 0.64025 0.82993 0.0
H4290 H 0.34072 0.59924 0.83604 0.0
H4291 H 0.3844 0.66087 0.79069 0.0
H4292 H 0.33219 0.60936 0.79028 0.0
H4293 H 0.39418 0.64931 0.83585 0.0
H4294 H 0.36693 0.64034 0.78951 0.0
H4295 H 0.362 0.61579 0.83545 0.0
C4296 C 0.34342 0.60485 0.82583 0.0
C4297 C 0.33462 0.60306 0.81323 0.0
C4298 C 0.373 0.6422 0.79964 0.0
C4299 C 0.35886 0.62208 0.81248 0.0
C4300 C 0.38297 0.65391 0.8003 0.0
C4301 C 0.39061 0.65686 0.81343 0.0
C4302 C 0.3706 0.63345 0.81222 0.0
C4303 C 0.38842 0.64747 0.82554 0.0
C4304 C 0.35557 0.6143 0.82549 0.0
C4305 C 0.33864 0.61052 0.80027 0.0
N4306 N 0.37851 0.63627 0.82469 0.0
N4307 N 0.3504 0.61981 0.80026 0.0
H4308 H 0.38747 0.33657 0.79091 0.0
H4309 H 0.33872 0.39104 0.84035 0.0
H4310 H 0.39011 0.33861 0.83844 0.0
H4311 H 0.33528 0.38789 0.79294 0.0
H4312 H 0.3596 0.37394 0.83968 0.0
H4313 H 0.37041 0.35745 0.79123 0.0
C4314 C 0.38455 0.34151 0.80141 0.0
C4315 C 0.39008 0.33579 0.81468 0.0
C4316 C 0.35436 0.37708 0.82941 0.0
C4317 C 0.37052 0.3596 0.81515 0.0
C4318 C 0.34246 0.38685 0.82979 0.0
C4319 C 0.3352 0.39075 0.81669 0.0
C4320 C 0.35899 0.37117 0.81584 0.0
C4321 C 0.34051 0.38507 0.80331 0.0
C4322 C 0.37481 0.35342 0.80159 0.0
C4323 C 0.38601 0.34263 0.82796 0.0
N4324 N 0.35202 0.37547 0.80324 0.0
N4325 N 0.37637 0.35412 0.82787 0.0
H4326 H 0.60249 0.33981 0.84038 0.0
H4327 H 0.65685 0.38956 0.79179 0.0
H4328 H 0.60604 0.33684 0.79297 0.0
H4329 H 0.65495 0.39124 0.83936 0.0
H4330 H 0.63607 0.37238 0.79183 0.0
H4331 H 0.61952 0.36076 0.84006 0.0
C4332 C 0.60675 0.34366 0.82989 0.0
C4333 C 0.60297 0.33652 0.81669 0.0
C4334 C 0.64011 0.37659 0.80226 0.0
C4335 C 0.62248 0.36039 0.81624 0.0
C4336 C 0.65196 0.38641 0.80224 0.0
C4337 C 0.65769 0.39171 0.8156 0.0
C4338 C 0.63399 0.372 0.81575 0.0
C4339 C 0.6509 0.38734 0.82882 0.0
C4340 C 0.61648 0.3556 0.82971 0.0
C4341 C 0.60875 0.34198 0.80341 0.0
N4342 N 0.63948 0.37763 0.82857 0.0
N4343 N 0.61831 0.35353 0.80353 0.0
H4344 H 0.65852 0.38732 0.20128 0.0
H4345 H 0.60268 0.33888 0.1531 0.0
H4346 H 0.65553 0.38992 0.1538 0.0
H4347 H 0.60688 0.33542 0.20043 0.0
H4348 H 0.62003 0.35956 0.15335 0.0
H4349 H 0.63763 0.37028 0.20141 0.0
C4350 C 0.65338 0.38439 0.19089 0.0
C4351 C 0.65882 0.38992 0.1775 0.0
C4352 C 0.61706 0.35435 0.1637 0.0
C4353 C 0.63499 0.37038 0.17754 0.0
C4354 C 0.60715 0.34257 0.16356 0.0
C4355 C 0.60346 0.33537 0.17676 0.0
C4356 C 0.62333 0.35893 0.17712 0.0
C4357 C 0.60952 0.34061 0.19 0.0
C4358 C 0.64146 0.37466 0.19096 0.0
C4359 C 0.65172 0.38583 0.16437 0.0
N4360 N 0.61924 0.35201 0.18983 0.0
N4361 N 0.64023 0.37621 0.1647 0.0
H4362 H 0.60591 0.65795 0.20179 0.0
H4363 H 0.65402 0.60152 0.15401 0.0
H4364 H 0.60285 0.65416 0.1544 0.0
H4365 H 0.65807 0.60659 0.2012 0.0
H4366 H 0.63312 0.6186 0.15424 0.0
H4367 H 0.62289 0.63702 0.20211 0.0
C4368 C 0.60873 0.65262 0.19146 0.0
C4369 C 0.6031 0.65786 0.17803 0.0
C4370 C 0.6385 0.61588 0.16457 0.0
C4371 C 0.62257 0.63397 0.17829 0.0
C4372 C 0.6504 0.60612 0.16444 0.0
C4373 C 0.65785 0.60277 0.17759 0.0
C4374 C 0.63405 0.62235 0.17794 0.0
C4375 C 0.65269 0.60897 0.1908 0.0
C4376 C 0.61842 0.64068 0.19164 0.0
C4377 C 0.60703 0.65052 0.16498 0.0
N4378 N 0.64118 0.61856 0.19062 0.0
N4379 N 0.61663 0.63901 0.16542 0.0
H4380 H 0.39002 0.65545 0.15424 0.0
H4381 H 0.33595 0.6055 0.20293 0.0
H4382 H 0.38761 0.65751 0.20177 0.0
H4383 H 0.3362 0.60563 0.15529 0.0
H4384 H 0.35715 0.62217 0.20282 0.0
H4385 H 0.37261 0.63485 0.15452 0.0
C4386 C 0.38593 0.65147 0.16474 0.0
C4387 C 0.39014 0.65826 0.17799 0.0
C4388 C 0.35265 0.61846 0.19239 0.0
C4389 C 0.37019 0.63477 0.1784 0.0
C4390 C 0.34056 0.60893 0.19244 0.0
C4391 C 0.33425 0.60431 0.17909 0.0
C4392 C 0.35843 0.62342 0.17888 0.0
C4393 C 0.34069 0.60903 0.16583 0.0
C4394 C 0.37598 0.63972 0.1649 0.0
C4395 C 0.38456 0.65263 0.1913 0.0
N4396 N 0.35237 0.61843 0.16606 0.0
N4397 N 0.37478 0.64128 0.19116 0.0
H4398 H 0.39081 0.3399 0.15354 0.0
H4399 H 0.33654 0.38959 0.20221 0.0
H4400 H 0.38743 0.33689 0.20097 0.0
H4401 H 0.33913 0.39201 0.1547 0.0
H4402 H 0.35727 0.37235 0.2022 0.0
H4403 H 0.37399 0.361 0.15395 0.0
C4404 C 0.38662 0.34377 0.16405 0.0
C4405 C 0.39039 0.33657 0.17723 0.0
C4406 C 0.3534 0.37674 0.19178 0.0
C4407 C 0.37111 0.36063 0.17779 0.0
C4408 C 0.34158 0.3866 0.19178 0.0
C4409 C 0.33605 0.39211 0.17842 0.0
C4410 C 0.35968 0.37232 0.17831 0.0
C4411 C 0.34301 0.38794 0.16524 0.0
C4412 C 0.37702 0.35581 0.16429 0.0
C4413 C 0.38472 0.34207 0.19054 0.0
N4414 N 0.3544 0.37818 0.16551 0.0
N4415 N 0.37527 0.35371 0.19047 0.0
H4416 H 0.83528 0.65242 0.5992 0.0
H4417 H 0.79148 0.61094 0.66353 0.0
H4418 H 0.79036 0.66257 0.61142 0.0
H4419 H 0.83594 0.59994 0.65043 0.0
H4420 H 0.79003 0.62835 0.64297 0.0
H4421 H 0.83495 0.6316 0.61635 0.0
C4422 C 0.82531 0.65018 0.6054 0.0
C4423 C 0.81287 0.65929 0.604 0.0
C4424 C 0.80006 0.62204 0.64451 0.0
C4425 C 0.81243 0.63558 0.6237 0.0
C4426 C 0.80088 0.6121 0.65624 0.0
C4427 C 0.81389 0.6041 0.65874 0.0
C4428 C 0.81237 0.62404 0.63528 0.0
C4429 C 0.82573 0.60597 0.64894 0.0
C4430 C 0.82512 0.6383 0.6152 0.0
C4431 C 0.80022 0.65587 0.61225 0.0
N4432 N 0.82473 0.61584 0.63771 0.0
N4433 N 0.80036 0.64435 0.62184 0.0
H4434 H 0.34002 0.84053 0.60244 0.0
H4435 H 0.3899 0.79061 0.65534 0.0
H4436 H 0.33721 0.79302 0.60461 0.0
H4437 H 0.39033 0.83825 0.65565 0.0
H4438 H 0.37336 0.79116 0.63405 0.0
H4439 H 0.36115 0.83977 0.61921 0.0
C4440 C 0.34395 0.82993 0.60633 0.0
C4441 C 0.33678 0.81683 0.60229 0.0
C4442 C 0.37718 0.8015 0.63868 0.0
C4443 C 0.36085 0.81587 0.62149 0.0
C4444 C 0.38664 0.80118 0.65081 0.0
C4445 C 0.39133 0.8144 0.65735 0.0
C4446 C 0.37236 0.81513 0.63308 0.0
C4447 C 0.38685 0.8278 0.65101 0.0
C4448 C 0.356 0.8295 0.61591 0.0
C4449 C 0.34236 0.80339 0.60757 0.0
N4450 N 0.3775 0.82782 0.6393 0.0
N4451 N 0.354 0.80327 0.61701 0.0
H4452 H 0.15444 0.33844 0.60226 0.0
H4453 H 0.2021 0.38645 0.65888 0.0
H4454 H 0.20162 0.33433 0.6074 0.0
H4455 H 0.1547 0.3894 0.65508 0.0
H4456 H 0.20246 0.36941 0.63799 0.0
H4457 H 0.15463 0.35918 0.61951 0.0
C4458 C 0.16486 0.342 0.60692 0.0
C4459 C 0.17802 0.3346 0.60352 0.0
C4460 C 0.19199 0.37387 0.64165 0.0
C4461 C 0.17832 0.35823 0.62329 0.0
C4462 C 0.19178 0.3836 0.65356 0.0
C4463 C 0.17834 0.38922 0.65878 0.0
C4464 C 0.17864 0.36969 0.63494 0.0
C4465 C 0.1653 0.38524 0.65145 0.0
C4466 C 0.16496 0.35383 0.61677 0.0
C4467 C 0.19121 0.33968 0.60981 0.0
N4468 N 0.16576 0.37561 0.63996 0.0
N4469 N 0.19101 0.35113 0.61949 0.0
H4470 H 0.65823 0.20219 0.60631 0.0
H4471 H 0.60326 0.15404 0.65581 0.0
H4472 H 0.65554 0.15467 0.60426 0.0
H4473 H 0.60726 0.20141 0.65901 0.0
H4474 H 0.62037 0.15428 0.63495 0.0
H4475 H 0.63757 0.20236 0.62364 0.0
C4476 C 0.6532 0.1918 0.60942 0.0
C4477 C 0.65866 0.17839 0.60396 0.0
C4478 C 0.61742 0.16464 0.64014 0.0
C4479 C 0.63509 0.17847 0.62383 0.0
C4480 C 0.60765 0.16451 0.65203 0.0
C4481 C 0.60396 0.17771 0.6592 0.0
C4482 C 0.62357 0.17807 0.63543 0.0
C4483 C 0.6099 0.19096 0.65384 0.0
C4484 C 0.64141 0.19189 0.61932 0.0
C4485 C 0.6517 0.16525 0.60829 0.0
N4486 N 0.61951 0.19079 0.64233 0.0
N4487 N 0.64034 0.16561 0.61806 0.0
H4488 H 0.79024 0.33492 0.38633 0.0
H4489 H 0.83957 0.3909 0.33917 0.0
H4490 H 0.83752 0.33866 0.39077 0.0
H4491 H 0.79244 0.3862 0.33405 0.0
H4492 H 0.83872 0.37373 0.35999 0.0
H4493 H 0.79049 0.35564 0.36908 0.0
C4494 C 0.80066 0.3402 0.38377 0.0
C4495 C 0.8139 0.33501 0.38987 0.0
C4496 C 0.82855 0.37655 0.35439 0.0
C4497 C 0.8143 0.35865 0.37009 0.0
C4498 C 0.82902 0.38635 0.34252 0.0
C4499 C 0.81607 0.38986 0.33482 0.0
C4500 C 0.81502 0.37019 0.35854 0.0
C4501 C 0.8027 0.38371 0.33963 0.0
C4502 C 0.80081 0.35202 0.37391 0.0
C4503 C 0.82708 0.34228 0.38623 0.0
N4504 N 0.80254 0.37409 0.35112 0.0
N4505 N 0.82696 0.35366 0.37648 0.0
H4506 H 0.6551 0.84129 0.39056 0.0
H4507 H 0.60827 0.79254 0.33379 0.0
H4508 H 0.66003 0.79416 0.38559 0.0
H4509 H 0.60397 0.83982 0.33774 0.0
H4510 H 0.62549 0.79263 0.35452 0.0
H4511 H 0.63459 0.84071 0.37301 0.0
C4512 C 0.65177 0.8308 0.38586 0.0
C4513 C 0.65932 0.81777 0.38943 0.0
C4514 C 0.62071 0.80299 0.35094 0.0
C4515 C 0.63596 0.81702 0.36933 0.0
C4516 C 0.61087 0.80293 0.33911 0.0
C4517 C 0.60479 0.81621 0.33399 0.0
C4518 C 0.62453 0.81642 0.35766 0.0
C4519 C 0.60848 0.82935 0.34131 0.0
C4520 C 0.64009 0.83048 0.37584 0.0
C4521 C 0.65455 0.80448 0.38308 0.0
N4522 N 0.6182 0.82914 0.35272 0.0
N4523 N 0.64324 0.80446 0.37326 0.0
H4524 H 0.20392 0.66036 0.38511 0.0
H4525 H 0.15676 0.59774 0.34466 0.0
H4526 H 0.15781 0.65206 0.39374 0.0
H4527 H 0.20152 0.609 0.33282 0.0
H4528 H 0.15814 0.61502 0.36531 0.0
H4529 H 0.20439 0.63906 0.36856 0.0
C4530 C 0.19393 0.65396 0.38363 0.0
C4531 C 0.18076 0.65805 0.39066 0.0
C4532 C 0.16771 0.61362 0.35828 0.0
C4533 C 0.18119 0.63374 0.37173 0.0
C4534 C 0.16693 0.60375 0.3465 0.0
C4535 C 0.17899 0.60208 0.33694 0.0
C4536 C 0.18062 0.6219 0.36048 0.0
C4537 C 0.19193 0.61006 0.33988 0.0
C4538 C 0.1942 0.64182 0.37417 0.0
C4539 C 0.16816 0.64934 0.38843 0.0
N4540 N 0.19236 0.61973 0.35133 0.0
N4541 N 0.16866 0.63766 0.37906 0.0
H4542 H 0.33642 0.2008 0.38936 0.0
H4543 H 0.39063 0.1534 0.3384 0.0
H4544 H 0.33856 0.15322 0.39013 0.0
H4545 H 0.38709 0.20087 0.33647 0.0
H4546 H 0.3738 0.15327 0.35949 0.0
H4547 H 0.35719 0.2012 0.37217 0.0
C4548 C 0.34136 0.19044 0.38601 0.0
C4549 C 0.33569 0.17695 0.39104 0.0
C4550 C 0.3768 0.16373 0.35454 0.0
C4551 C 0.35938 0.17731 0.37133 0.0
C4552 C 0.38641 0.16381 0.34251 0.0
C4553 C 0.39012 0.17716 0.33561 0.0
C4554 C 0.37084 0.1771 0.35966 0.0
C4555 C 0.38442 0.19033 0.34141 0.0
C4556 C 0.35321 0.19067 0.37619 0.0
C4557 C 0.34255 0.16386 0.38643 0.0
N4558 N 0.37496 0.18995 0.35304 0.0
N4559 N 0.35397 0.16436 0.37672 0.0
H4560 H 0.65241 0.84 0.60277 0.0
H4561 H 0.6063 0.79133 0.66022 0.0
H4562 H 0.65834 0.7931 0.60863 0.0
H4563 H 0.60165 0.83855 0.6559 0.0
H4564 H 0.62343 0.79137 0.6394 0.0
H4565 H 0.63185 0.83931 0.62025 0.0
C4566 C 0.6493 0.82954 0.60764 0.0
C4567 C 0.65714 0.81661 0.60436 0.0
C4568 C 0.61858 0.80172 0.64292 0.0
C4569 C 0.63372 0.81573 0.62439 0.0
C4570 C 0.6088 0.80169 0.6548 0.0
C4571 C 0.60266 0.81497 0.65985 0.0
C4572 C 0.62229 0.81513 0.63608 0.0
C4573 C 0.60621 0.82807 0.6524 0.0
C4574 C 0.63758 0.82915 0.61763 0.0
C4575 C 0.65263 0.80334 0.61093 0.0
N4576 N 0.61589 0.82784 0.64094 0.0
N4577 N 0.64127 0.80326 0.62072 0.0
H4578 H 0.60569 0.20187 0.33517 0.0
H4579 H 0.65315 0.15307 0.3913 0.0
H4580 H 0.60215 0.15448 0.3385 0.0
H4581 H 0.65747 0.20031 0.38694 0.0
H4582 H 0.63244 0.15365 0.37401 0.0
H4583 H 0.62266 0.20181 0.35612 0.0
C4584 C 0.60839 0.19147 0.3404 0.0
C4585 C 0.60263 0.17815 0.33504 0.0
C4586 C 0.63784 0.16391 0.37693 0.0
C4587 C 0.62208 0.17797 0.35894 0.0
C4588 C 0.64964 0.16358 0.38681 0.0
C4589 C 0.65709 0.17665 0.39044 0.0
C4590 C 0.63351 0.17739 0.37061 0.0
C4591 C 0.65208 0.18997 0.38435 0.0
C4592 C 0.61809 0.19143 0.35235 0.0
C4593 C 0.60643 0.16499 0.34225 0.0
N4594 N 0.64066 0.18999 0.37465 0.0
N4595 N 0.61602 0.16522 0.35377 0.0
H4596 H 0.83816 0.60166 0.34127 0.0
H4597 H 0.79093 0.66046 0.38709 0.0
H4598 H 0.79132 0.60829 0.33563 0.0
H4599 H 0.83805 0.65507 0.39164 0.0
H4600 H 0.79041 0.63937 0.37029 0.0
H4601 H 0.83788 0.61915 0.36182 0.0
C4602 C 0.82779 0.60669 0.34446 0.0
C4603 C 0.81477 0.60364 0.33668 0.0
C4604 C 0.80085 0.64272 0.37505 0.0
C4605 C 0.81437 0.6237 0.36008 0.0
C4606 C 0.80115 0.65475 0.38464 0.0
C4607 C 0.81457 0.65957 0.39064 0.0
C4608 C 0.81408 0.6355 0.37139 0.0
C4609 C 0.82747 0.65175 0.38717 0.0
C4610 C 0.82764 0.61669 0.35617 0.0
C4611 C 0.80163 0.61041 0.34129 0.0
N4612 N 0.82692 0.64016 0.37767 0.0
N4613 N 0.80179 0.62021 0.35262 0.0
H4614 H 0.39165 0.84135 0.33828 0.0
H4615 H 0.33656 0.79351 0.38786 0.0
H4616 H 0.38799 0.79392 0.33577 0.0
H4617 H 0.33923 0.84104 0.38973 0.0
H4618 H 0.35745 0.79326 0.37084 0.0
H4619 H 0.37455 0.84129 0.35916 0.0
C4620 C 0.38735 0.83091 0.34223 0.0
C4621 C 0.39112 0.81763 0.33523 0.0
C4622 C 0.35356 0.80374 0.37505 0.0
C4623 C 0.37152 0.81747 0.35902 0.0
C4624 C 0.34164 0.80389 0.38478 0.0
C4625 C 0.33609 0.81733 0.39009 0.0
C4626 C 0.35993 0.81714 0.37055 0.0
C4627 C 0.34312 0.83044 0.38582 0.0
C4628 C 0.37758 0.83088 0.35413 0.0
C4629 C 0.38529 0.80442 0.3408 0.0
N4630 N 0.35461 0.83003 0.37619 0.0
N4631 N 0.37569 0.80468 0.3523 0.0
H4632 H 0.20172 0.38828 0.33581 0.0
H4633 H 0.1545 0.33911 0.39184 0.0
H4634 H 0.15422 0.38998 0.339 0.0
H4635 H 0.20176 0.33567 0.38682 0.0
H4636 H 0.15449 0.36001 0.37478 0.0
H4637 H 0.20225 0.37127 0.35673 0.0
C4638 C 0.19141 0.38517 0.34101 0.0
C4639 C 0.17789 0.39041 0.3356 0.0
C4640 C 0.16488 0.35477 0.37751 0.0
C4641 C 0.1784 0.37092 0.35946 0.0
C4642 C 0.16489 0.34285 0.38725 0.0
C4643 C 0.17814 0.33558 0.39062 0.0
C4644 C 0.1782 0.3594 0.37106 0.0
C4645 C 0.19129 0.34091 0.38443 0.0
C4646 C 0.19171 0.37545 0.35294 0.0
C4647 C 0.16487 0.3861 0.34277 0.0
N4648 N 0.19097 0.35243 0.37485 0.0
N4649 N 0.16544 0.3765 0.35428 0.0
H4650 H 0.38935 0.19997 0.65662 0.0
H4651 H 0.33906 0.15171 0.60257 0.0
H4652 H 0.39086 0.15239 0.65455 0.0
H4653 H 0.33625 0.19912 0.6063 0.0
H4654 H 0.3603 0.15194 0.61922 0.0
H4655 H 0.37221 0.20007 0.63582 0.0
C4656 C 0.38618 0.18955 0.65168 0.0
C4657 C 0.39139 0.17614 0.65739 0.0
C4658 C 0.35512 0.16231 0.6163 0.0
C4659 C 0.37172 0.17616 0.63367 0.0
C4660 C 0.34301 0.16218 0.60679 0.0
C4661 C 0.33582 0.1754 0.60319 0.0
C4662 C 0.36002 0.17575 0.62226 0.0
C4663 C 0.34141 0.18866 0.60889 0.0
C4664 C 0.37638 0.18961 0.63982 0.0
C4665 C 0.38701 0.16297 0.65054 0.0
N4666 N 0.35312 0.18849 0.61824 0.0
N4667 N 0.37731 0.1633 0.63911 0.0
H4668 H 0.79255 0.38909 0.65734 0.0
H4669 H 0.84056 0.33903 0.60275 0.0
H4670 H 0.84016 0.38978 0.65577 0.0
H4671 H 0.79312 0.33652 0.6063 0.0
H4672 H 0.84047 0.35987 0.6199 0.0
H4673 H 0.79238 0.37208 0.63641 0.0
C4674 C 0.80297 0.38576 0.6525 0.0
C4675 C 0.8164 0.39072 0.65836 0.0
C4676 C 0.83006 0.35484 0.61684 0.0
C4677 C 0.8163 0.37123 0.63449 0.0
C4678 C 0.83012 0.34297 0.60703 0.0
C4679 C 0.81684 0.33598 0.60323 0.0
C4680 C 0.81664 0.35972 0.62288 0.0
C4681 C 0.80362 0.34154 0.60904 0.0
C4682 C 0.80287 0.37604 0.64056 0.0
C4683 C 0.82957 0.38613 0.65163 0.0
N4684 N 0.80386 0.35302 0.61867 0.0
N4685 N 0.82919 0.37654 0.64012 0.0
H4686 H 0.15367 0.6013 0.65154 0.0
H4687 H 0.20211 0.65837 0.60489 0.0
H4688 H 0.20092 0.60574 0.65576 0.0
H4689 H 0.15472 0.65495 0.6015 0.0
H4690 H 0.20221 0.63697 0.6213 0.0
H4691 H 0.15415 0.61875 0.63096 0.0
C4692 C 0.16416 0.60584 0.64803 0.0
C4693 C 0.17726 0.60221 0.65544 0.0
C4694 C 0.1918 0.64081 0.61687 0.0
C4695 C 0.17789 0.62221 0.632 0.0
C4696 C 0.19174 0.65302 0.60751 0.0
C4697 C 0.17837 0.65851 0.60197 0.0
C4698 C 0.17838 0.63409 0.62078 0.0
C4699 C 0.16526 0.65113 0.60563 0.0
C4700 C 0.16443 0.6158 0.63629 0.0
C4701 C 0.19055 0.60834 0.65041 0.0
N4702 N 0.16558 0.63936 0.61492 0.0
N4703 N 0.19051 0.61814 0.63907 0.0
loop_
_geom_bond_atom_site_label_1
_geom_bond_atom_site_label_2
_geom_bond_distance
_geom_bond_site_symmetry_2
_ccdc_geom_bond_type
In0 O1 2.294 . S
In0 O2 2.326 . S
In0 O6 2.266 . S
In0 O7 2.326 . S
In0 O8 2.266 . S
In0 O9 2.326 . S
In0 O11 2.294 . S
In0 O12 2.326 . S
O1 In0 2.294 . S
O1 C10 1.240 . S
O2 In0 2.326 . S
O2 C10 1.252 . S
C3 O6 1.252 . S
C3 O7 1.260 . S
C4 O11 1.240 . S
C4 O12 1.252 . S
C5 O8 1.252 . S
C5 O9 1.260 . S
O6 In0 2.266 . S
O6 C3 1.252 . S
O7 In0 2.326 . S
O7 C3 1.260 . S
O8 In0 2.266 . S
O8 C5 1.252 . S
O9 In0 2.326 . S
O9 C5 1.260 . S
C10 O1 1.240 . S
C10 O2 1.252 . S
O11 In0 2.294 . S
O11 C4 1.240 . S
O12 In0 2.326 . S
O12 C4 1.252 . S
In13 O14 2.294 . S
In13 O15 2.326 . S
In13 O19 2.266 . S
In13 O20 2.326 . S
In13 O21 2.266 . S
In13 O22 2.326 . S
In13 O24 2.294 . S
In13 O25 2.326 . S
O14 In13 2.294 . S
O14 C23 1.240 . S
O15 In13 2.326 . S
O15 C23 1.252 . S
C16 O19 1.252 . S
C16 O20 1.260 . S
C17 O24 1.240 . S
C17 O25 1.252 . S
C18 O21 1.252 . S
C18 O22 1.260 . S
O19 In13 2.266 . S
O19 C16 1.252 . S
O20 In13 2.326 . S
O20 C16 1.260 . S
O21 In13 2.266 . S
O21 C18 1.252 . S
O22 In13 2.326 . S
O22 C18 1.260 . S
C23 O14 1.240 . S
C23 O15 1.252 . S
O24 In13 2.294 . S
O24 C17 1.240 . S
O25 In13 2.326 . S
O25 C17 1.252 . S
In26 O27 2.294 . S
In26 O28 2.326 . S
In26 O32 2.266 . S
In26 O33 2.326 . S
In26 O34 2.266 . S
In26 O35 2.326 . S
In26 O37 2.294 . S
In26 O38 2.326 . S
O27 In26 2.294 . S
O27 C36 1.240 . S
O28 In26 2.326 . S
O28 C36 1.252 . S
C29 O32 1.252 . S
C29 O33 1.260 . S
C30 O37 1.240 . S
C30 O38 1.252 . S
C31 O34 1.252 . S
C31 O35 1.260 . S
O32 In26 2.266 . S
O32 C29 1.252 . S
O33 In26 2.326 . S
O33 C29 1.260 . S
O34 In26 2.266 . S
O34 C31 1.252 . S
O35 In26 2.326 . S
O35 C31 1.260 . S
C36 O27 1.240 . S
C36 O28 1.252 . S
O37 In26 2.294 . S
O37 C30 1.240 . S
O38 In26 2.326 . S
O38 C30 1.252 . S
In39 O40 2.294 . S
In39 O41 2.326 . S
In39 O45 2.266 . S
In39 O46 2.326 . S
In39 O47 2.266 . S
In39 O48 2.326 . S
In39 O50 2.294 . S
In39 O51 2.326 . S
O40 In39 2.294 . S
O40 C49 1.240 . S
O41 In39 2.326 . S
O41 C49 1.252 . S
C42 O45 1.252 . S
C42 O46 1.260 . S
C43 O50 1.240 . S
C43 O51 1.252 . S
C44 O47 1.252 . S
C44 O48 1.260 . S
O45 In39 2.266 . S
O45 C42 1.252 . S
O46 In39 2.326 . S
O46 C42 1.260 . S
O47 In39 2.266 . S
O47 C44 1.252 . S
O48 In39 2.326 . S
O48 C44 1.260 . S
C49 O40 1.240 . S
C49 O41 1.252 . S
O50 In39 2.294 . S
O50 C43 1.240 . S
O51 In39 2.326 . S
O51 C43 1.252 . S
In52 O53 2.294 . S
In52 O54 2.326 . S
In52 O58 2.266 . S
In52 O59 2.326 . S
In52 O60 2.266 . S
In52 O61 2.326 . S
In52 O63 2.294 . S
In52 O64 2.326 . S
O53 In52 2.294 . S
O53 C62 1.240 . S
O54 In52 2.326 . S
O54 C62 1.252 . S
C55 O58 1.252 . S
C55 O59 1.260 . S
C56 O63 1.240 . S
C56 O64 1.252 . S
C57 O60 1.252 . S
C57 O61 1.260 . S
O58 In52 2.266 . S
O58 C55 1.252 . S
O59 In52 2.326 . S
O59 C55 1.260 . S
O60 In52 2.266 . S
O60 C57 1.252 . S
O61 In52 2.326 . S
O61 C57 1.260 . S
C62 O53 1.240 . S
C62 O54 1.252 . S
O63 In52 2.294 . S
O63 C56 1.240 . S
O64 In52 2.326 . S
O64 C56 1.252 . S
In65 O66 2.294 . S
In65 O67 2.326 . S
In65 O71 2.266 . S
In65 O72 2.326 . S
In65 O73 2.266 . S
In65 O74 2.326 . S
In65 O76 2.294 . S
In65 O77 2.326 . S
O66 In65 2.294 . S
O66 C75 1.240 . S
O67 In65 2.326 . S
O67 C75 1.252 . S
C68 O71 1.252 . S
C68 O72 1.260 . S
C69 O76 1.240 . S
C69 O77 1.252 . S
C70 O73 1.252 . S
C70 O74 1.260 . S
O71 In65 2.266 . S
O71 C68 1.252 . S
O72 In65 2.326 . S
O72 C68 1.260 . S
O73 In65 2.266 . S
O73 C70 1.252 . S
O74 In65 2.326 . S
O74 C70 1.260 . S
C75 O66 1.240 . S
C75 O67 1.252 . S
O76 In65 2.294 . S
O76 C69 1.240 . S
O77 In65 2.326 . S
O77 C69 1.252 . S
In78 O79 2.294 . S
In78 O80 2.326 . S
In78 O84 2.266 . S
In78 O85 2.326 . S
In78 O86 2.266 . S
In78 O87 2.326 . S
In78 O89 2.294 . S
In78 O90 2.326 . S
O79 In78 2.294 . S
O79 C88 1.240 . S
O80 In78 2.326 . S
O80 C88 1.252 . S
C81 O84 1.252 . S
C81 O85 1.260 . S
C82 O89 1.240 . S
C82 O90 1.252 . S
C83 O86 1.252 . S
C83 O87 1.260 . S
O84 In78 2.266 . S
O84 C81 1.252 . S
O85 In78 2.326 . S
O85 C81 1.260 . S
O86 In78 2.266 . S
O86 C83 1.252 . S
O87 In78 2.326 . S
O87 C83 1.260 . S
C88 O79 1.240 . S
C88 O80 1.252 . S
O89 In78 2.294 . S
O89 C82 1.240 . S
O90 In78 2.326 . S
O90 C82 1.252 . S
In91 O92 2.294 . S
In91 O93 2.326 . S
In91 O97 2.266 . S
In91 O98 2.326 . S
In91 O99 2.266 . S
In91 O100 2.326 . S
In91 O102 2.294 . S
In91 O103 2.326 . S
O92 In91 2.294 . S
O92 C101 1.240 . S
O93 In91 2.326 . S
O93 C101 1.252 . S
C94 O97 1.252 . S
C94 O98 1.260 . S
C95 O102 1.240 . S
C95 O103 1.252 . S
C96 O99 1.252 . S
C96 O100 1.260 . S
O97 In91 2.266 . S
O97 C94 1.252 . S
O98 In91 2.326 . S
O98 C94 1.260 . S
O99 In91 2.266 . S
O99 C96 1.252 . S
O100 In91 2.326 . S
O100 C96 1.260 . S
C101 O92 1.240 . S
C101 O93 1.252 . S
O102 In91 2.294 . S
O102 C95 1.240 . S
O103 In91 2.326 . S
O103 C95 1.252 . S
In104 O105 2.294 . S
In104 O106 2.326 . S
In104 O110 2.266 . S
In104 O111 2.326 . S
In104 O112 2.266 . S
In104 O113 2.326 . S
In104 O115 2.294 . S
In104 O116 2.326 . S
O105 In104 2.294 . S
O105 C114 1.240 . S
O106 In104 2.326 . S
O106 C114 1.252 . S
C107 O110 1.252 . S
C107 O111 1.260 . S
C108 O115 1.240 . S
C108 O116 1.252 . S
C109 O112 1.252 . S
C109 O113 1.260 . S
O110 In104 2.266 . S
O110 C107 1.252 . S
O111 In104 2.326 . S
O111 C107 1.260 . S
O112 In104 2.266 . S
O112 C109 1.252 . S
O113 In104 2.326 . S
O113 C109 1.260 . S
C114 O105 1.240 . S
C114 O106 1.252 . S
O115 In104 2.294 . S
O115 C108 1.240 . S
O116 In104 2.326 . S
O116 C108 1.252 . S
In117 O118 2.294 . S
In117 O119 2.326 . S
In117 O123 2.266 . S
In117 O124 2.326 . S
In117 O125 2.266 . S
In117 O126 2.326 . S
In117 O128 2.294 . S
In117 O129 2.326 . S
O118 In117 2.294 . S
O118 C127 1.240 . S
O119 In117 2.326 . S
O119 C127 1.252 . S
C120 O123 1.252 . S
C120 O124 1.260 . S
C121 O128 1.240 . S
C121 O129 1.252 . S
C122 O125 1.252 . S
C122 O126 1.260 . S
O123 In117 2.266 . S
O123 C120 1.252 . S
O124 In117 2.326 . S
O124 C120 1.260 . S
O125 In117 2.266 . S
O125 C122 1.252 . S
O126 In117 2.326 . S
O126 C122 1.260 . S
C127 O118 1.240 . S
C127 O119 1.252 . S
O128 In117 2.294 . S
O128 C121 1.240 . S
O129 In117 2.326 . S
O129 C121 1.252 . S
In130 O131 2.294 . S
In130 O132 2.326 . S
In130 O136 2.266 . S
In130 O137 2.326 . S
In130 O138 2.266 . S
In130 O139 2.326 . S
In130 O141 2.294 . S
In130 O142 2.326 . S
O131 In130 2.294 . S
O131 C140 1.240 . S
O132 In130 2.326 . S
O132 C140 1.252 . S
C133 O136 1.252 . S
C133 O137 1.260 . S
C134 O141 1.240 . S
C134 O142 1.252 . S
C135 O138 1.252 . S
C135 O139 1.260 . S
O136 In130 2.266 . S
O136 C133 1.252 . S
O137 In130 2.326 . S
O137 C133 1.260 . S
O138 In130 2.266 . S
O138 C135 1.252 . S
O139 In130 2.326 . S
O139 C135 1.260 . S
C140 O131 1.240 . S
C140 O132 1.252 . S
O141 In130 2.294 . S
O141 C134 1.240 . S
O142 In130 2.326 . S
O142 C134 1.252 . S
In143 O144 2.294 . S
In143 O145 2.326 . S
In143 O149 2.266 . S
In143 O150 2.326 . S
In143 O151 2.266 . S
In143 O152 2.326 . S
In143 O154 2.294 . S
In143 O155 2.326 . S
O144 In143 2.294 . S
O144 C153 1.240 . S
O145 In143 2.326 . S
O145 C153 1.252 . S
C146 O149 1.252 . S
C146 O150 1.260 . S
C147 O154 1.240 . S
C147 O155 1.252 . S
C148 O151 1.252 . S
C148 O152 1.260 . S
O149 In143 2.266 . S
O149 C146 1.252 . S
O150 In143 2.326 . S
O150 C146 1.260 . S
O151 In143 2.266 . S
O151 C148 1.252 . S
O152 In143 2.326 . S
O152 C148 1.260 . S
C153 O144 1.240 . S
C153 O145 1.252 . S
O154 In143 2.294 . S
O154 C147 1.240 . S
O155 In143 2.326 . S
O155 C147 1.252 . S
In156 O157 2.294 . S
In156 O158 2.326 . S
In156 O162 2.266 . S
In156 O163 2.326 . S
In156 O164 2.266 . S
In156 O165 2.326 . S
In156 O167 2.294 . S
In156 O168 2.326 . S
O157 In156 2.294 . S
O157 C166 1.240 . S
O158 In156 2.326 . S
O158 C166 1.252 . S
C159 O162 1.252 . S
C159 O163 1.260 . S
C160 O167 1.240 . S
C160 O168 1.252 . S
C161 O164 1.252 . S
C161 O165 1.260 . S
O162 In156 2.266 . S
O162 C159 1.252 . S
O163 In156 2.326 . S
O163 C159 1.260 . S
O164 In156 2.266 . S
O164 C161 1.252 . S
O165 In156 2.326 . S
O165 C161 1.260 . S
C166 O157 1.240 . S
C166 O158 1.252 . S
O167 In156 2.294 . S
O167 C160 1.240 . S
O168 In156 2.326 . S
O168 C160 1.252 . S
In169 O170 2.294 . S
In169 O171 2.326 . S
In169 O175 2.266 . S
In169 O176 2.326 . S
In169 O177 2.266 . S
In169 O178 2.326 . S
In169 O180 2.294 . S
In169 O181 2.326 . S
O170 In169 2.294 . S
O170 C179 1.240 . S
O171 In169 2.326 . S
O171 C179 1.252 . S
C172 O175 1.252 . S
C172 O176 1.260 . S
C173 O180 1.240 . S
C173 O181 1.252 . S
C174 O177 1.252 . S
C174 O178 1.260 . S
O175 In169 2.266 . S
O175 C172 1.252 . S
O176 In169 2.326 . S
O176 C172 1.260 . S
O177 In169 2.266 . S
O177 C174 1.252 . S
O178 In169 2.326 . S
O178 C174 1.260 . S
C179 O170 1.240 . S
C179 O171 1.252 . S
O180 In169 2.294 . S
O180 C173 1.240 . S
O181 In169 2.326 . S
O181 C173 1.252 . S
In182 O183 2.294 . S
In182 O184 2.326 . S
In182 O188 2.266 . S
In182 O189 2.326 . S
In182 O190 2.266 . S
In182 O191 2.326 . S
In182 O193 2.294 . S
In182 O194 2.326 . S
O183 In182 2.294 . S
O183 C192 1.240 . S
O184 In182 2.326 . S
O184 C192 1.252 . S
C185 O188 1.252 . S
C185 O189 1.260 . S
C186 O193 1.240 . S
C186 O194 1.252 . S
C187 O190 1.252 . S
C187 O191 1.260 . S
O188 In182 2.266 . S
O188 C185 1.252 . S
O189 In182 2.326 . S
O189 C185 1.260 . S
O190 In182 2.266 . S
O190 C187 1.252 . S
O191 In182 2.326 . S
O191 C187 1.260 . S
C192 O183 1.240 . S
C192 O184 1.252 . S
O193 In182 2.294 . S
O193 C186 1.240 . S
O194 In182 2.326 . S
O194 C186 1.252 . S
In195 O196 2.294 . S
In195 O197 2.326 . S
In195 O201 2.266 . S
In195 O202 2.326 . S
In195 O203 2.266 . S
In195 O204 2.326 . S
In195 O206 2.294 . S
In195 O207 2.326 . S
O196 In195 2.294 . S
O196 C205 1.240 . S
O197 In195 2.326 . S
O197 C205 1.252 . S
C198 O201 1.252 . S
C198 O202 1.260 . S
C199 O206 1.240 . S
C199 O207 1.252 . S
C200 O203 1.252 . S
C200 O204 1.260 . S
O201 In195 2.266 . S
O201 C198 1.252 . S
O202 In195 2.326 . S
O202 C198 1.260 . S
O203 In195 2.266 . S
O203 C200 1.252 . S
O204 In195 2.326 . S
O204 C200 1.260 . S
C205 O196 1.240 . S
C205 O197 1.252 . S
O206 In195 2.294 . S
O206 C199 1.240 . S
O207 In195 2.326 . S
O207 C199 1.252 . S
In208 O209 2.294 . S
In208 O210 2.326 . S
In208 O214 2.266 . S
In208 O215 2.326 . S
In208 O216 2.266 . S
In208 O217 2.326 . S
In208 O219 2.294 . S
In208 O220 2.326 . S
O209 In208 2.294 . S
O209 C218 1.240 . S
O210 In208 2.326 . S
O210 C218 1.252 . S
C211 O214 1.252 . S
C211 O215 1.260 . S
C212 O219 1.240 . S
C212 O220 1.252 . S
C213 O216 1.252 . S
C213 O217 1.260 . S
O214 In208 2.266 . S
O214 C211 1.252 . S
O215 In208 2.326 . S
O215 C211 1.260 . S
O216 In208 2.266 . S
O216 C213 1.252 . S
O217 In208 2.326 . S
O217 C213 1.260 . S
C218 O209 1.240 . S
C218 O210 1.252 . S
O219 In208 2.294 . S
O219 C212 1.240 . S
O220 In208 2.326 . S
O220 C212 1.252 . S
In221 O222 2.294 . S
In221 O223 2.326 . S
In221 O227 2.266 . S
In221 O228 2.326 . S
In221 O229 2.266 . S
In221 O230 2.326 . S
In221 O232 2.294 . S
In221 O233 2.326 . S
O222 In221 2.294 . S
O222 C231 1.240 . S
O223 In221 2.326 . S
O223 C231 1.252 . S
C224 O227 1.252 . S
C224 O228 1.260 . S
C225 O232 1.240 . S
C225 O233 1.252 . S
C226 O229 1.252 . S
C226 O230 1.260 . S
O227 In221 2.266 . S
O227 C224 1.252 . S
O228 In221 2.326 . S
O228 C224 1.260 . S
O229 In221 2.266 . S
O229 C226 1.252 . S
O230 In221 2.326 . S
O230 C226 1.260 . S
C231 O222 1.240 . S
C231 O223 1.252 . S
O232 In221 2.294 . S
O232 C225 1.240 . S
O233 In221 2.326 . S
O233 C225 1.252 . S
In234 O235 2.294 . S
In234 O236 2.326 . S
In234 O240 2.266 . S
In234 O241 2.326 . S
In234 O242 2.266 . S
In234 O243 2.326 . S
In234 O245 2.294 . S
In234 O246 2.326 . S
O235 In234 2.294 . S
O235 C244 1.240 . S
O236 In234 2.326 . S
O236 C244 1.252 . S
C237 O240 1.252 . S
C237 O241 1.260 . S
C238 O245 1.240 . S
C238 O246 1.252 . S
C239 O242 1.252 . S
C239 O243 1.260 . S
O240 In234 2.266 . S
O240 C237 1.252 . S
O241 In234 2.326 . S
O241 C237 1.260 . S
O242 In234 2.266 . S
O242 C239 1.252 . S
O243 In234 2.326 . S
O243 C239 1.260 . S
C244 O235 1.240 . S
C244 O236 1.252 . S
O245 In234 2.294 . S
O245 C238 1.240 . S
O246 In234 2.326 . S
O246 C238 1.252 . S
In247 O248 2.294 . S
In247 O249 2.326 . S
In247 O253 2.266 . S
In247 O254 2.326 . S
In247 O255 2.266 . S
In247 O256 2.326 . S
In247 O258 2.294 . S
In247 O259 2.326 . S
O248 In247 2.294 . S
O248 C257 1.240 . S
O249 In247 2.326 . S
O249 C257 1.252 . S
C250 O253 1.252 . S
C250 O254 1.260 . S
C251 O258 1.240 . S
C251 O259 1.252 . S
C252 O255 1.252 . S
C252 O256 1.260 . S
O253 In247 2.266 . S
O253 C250 1.252 . S
O254 In247 2.326 . S
O254 C250 1.260 . S
O255 In247 2.266 . S
O255 C252 1.252 . S
O256 In247 2.326 . S
O256 C252 1.260 . S
C257 O248 1.240 . S
C257 O249 1.252 . S
O258 In247 2.294 . S
O258 C251 1.240 . S
O259 In247 2.326 . S
O259 C251 1.252 . S
In260 O261 2.294 . S
In260 O262 2.326 . S
In260 O266 2.266 . S
In260 O267 2.326 . S
In260 O268 2.266 . S
In260 O269 2.326 . S
In260 O271 2.294 . S
In260 O272 2.326 . S
O261 In260 2.294 . S
O261 C270 1.240 . S
O262 In260 2.326 . S
O262 C270 1.252 . S
C263 O266 1.252 . S
C263 O267 1.260 . S
C264 O271 1.240 . S
C264 O272 1.252 . S
C265 O268 1.252 . S
C265 O269 1.260 . S
O266 In260 2.266 . S
O266 C263 1.252 . S
O267 In260 2.326 . S
O267 C263 1.260 . S
O268 In260 2.266 . S
O268 C265 1.252 . S
O269 In260 2.326 . S
O269 C265 1.260 . S
C270 O261 1.240 . S
C270 O262 1.252 . S
O271 In260 2.294 . S
O271 C264 1.240 . S
O272 In260 2.326 . S
O272 C264 1.252 . S
In273 O274 2.294 . S
In273 O275 2.326 . S
In273 O279 2.266 . S
In273 O280 2.326 . S
In273 O281 2.266 . S
In273 O282 2.326 . S
In273 O284 2.294 . S
In273 O285 2.326 . S
O274 In273 2.294 . S
O274 C283 1.240 . S
O275 In273 2.326 . S
O275 C283 1.252 . S
C276 O279 1.252 . S
C276 O280 1.260 . S
C277 O284 1.240 . S
C277 O285 1.252 . S
C278 O281 1.252 . S
C278 O282 1.260 . S
O279 In273 2.266 . S
O279 C276 1.252 . S
O280 In273 2.326 . S
O280 C276 1.260 . S
O281 In273 2.266 . S
O281 C278 1.252 . S
O282 In273 2.326 . S
O282 C278 1.260 . S
C283 O274 1.240 . S
C283 O275 1.252 . S
O284 In273 2.294 . S
O284 C277 1.240 . S
O285 In273 2.326 . S
O285 C277 1.252 . S
In286 O287 2.294 . S
In286 O288 2.326 . S
In286 O292 2.266 . S
In286 O293 2.326 . S
In286 O294 2.266 . S
In286 O295 2.326 . S
In286 O297 2.294 . S
In286 O298 2.326 . S
O287 In286 2.294 . S
O287 C296 1.240 . S
O288 In286 2.326 . S
O288 C296 1.252 . S
C289 O292 1.252 . S
C289 O293 1.260 . S
C290 O297 1.240 . S
C290 O298 1.252 . S
C291 O294 1.252 . S
C291 O295 1.260 . S
O292 In286 2.266 . S
O292 C289 1.252 . S
O293 In286 2.326 . S
O293 C289 1.260 . S
O294 In286 2.266 . S
O294 C291 1.252 . S
O295 In286 2.326 . S
O295 C291 1.260 . S
C296 O287 1.240 . S
C296 O288 1.252 . S
O297 In286 2.294 . S
O297 C290 1.240 . S
O298 In286 2.326 . S
O298 C290 1.252 . S
In299 O300 2.294 . S
In299 O301 2.326 . S
In299 O305 2.266 . S
In299 O306 2.326 . S
In299 O307 2.266 . S
In299 O308 2.326 . S
In299 O310 2.294 . S
In299 O311 2.326 . S
O300 In299 2.294 . S
O300 C309 1.240 . S
O301 In299 2.326 . S
O301 C309 1.252 . S
C302 O305 1.252 . S
C302 O306 1.260 . S
C303 O310 1.240 . S
C303 O311 1.252 . S
C304 O307 1.252 . S
C304 O308 1.260 . S
O305 In299 2.266 . S
O305 C302 1.252 . S
O306 In299 2.326 . S
O306 C302 1.260 . S
O307 In299 2.266 . S
O307 C304 1.252 . S
O308 In299 2.326 . S
O308 C304 1.260 . S
C309 O300 1.240 . S
C309 O301 1.252 . S
O310 In299 2.294 . S
O310 C303 1.240 . S
O311 In299 2.326 . S
O311 C303 1.252 . S
In312 O313 2.294 . S
In312 O314 2.326 . S
In312 O318 2.266 . S
In312 O319 2.326 . S
In312 O320 2.266 . S
In312 O321 2.326 . S
In312 O323 2.294 . S
In312 O324 2.326 . S
O313 In312 2.294 . S
O313 C322 1.240 . S
O314 In312 2.326 . S
O314 C322 1.252 . S
C315 O318 1.252 . S
C315 O319 1.260 . S
C316 O323 1.240 . S
C316 O324 1.252 . S
C317 O320 1.252 . S
C317 O321 1.260 . S
O318 In312 2.266 . S
O318 C315 1.252 . S
O319 In312 2.326 . S
O319 C315 1.260 . S
O320 In312 2.266 . S
O320 C317 1.252 . S
O321 In312 2.326 . S
O321 C317 1.260 . S
C322 O313 1.240 . S
C322 O314 1.252 . S
O323 In312 2.294 . S
O323 C316 1.240 . S
O324 In312 2.326 . S
O324 C316 1.252 . S
In325 O326 2.294 . S
In325 O327 2.326 . S
In325 O331 2.266 . S
In325 O332 2.326 . S
In325 O333 2.266 . S
In325 O334 2.326 . S
In325 O336 2.294 . S
In325 O337 2.326 . S
O326 In325 2.294 . S
O326 C335 1.240 . S
O327 In325 2.326 . S
O327 C335 1.252 . S
C328 O331 1.252 . S
C328 O332 1.260 . S
C329 O336 1.240 . S
C329 O337 1.252 . S
C330 O333 1.252 . S
C330 O334 1.260 . S
O331 In325 2.266 . S
O331 C328 1.252 . S
O332 In325 2.326 . S
O332 C328 1.260 . S
O333 In325 2.266 . S
O333 C330 1.252 . S
O334 In325 2.326 . S
O334 C330 1.260 . S
C335 O326 1.240 . S
C335 O327 1.252 . S
O336 In325 2.294 . S
O336 C329 1.240 . S
O337 In325 2.326 . S
O337 C329 1.252 . S
In338 O339 2.294 . S
In338 O340 2.326 . S
In338 O344 2.266 . S
In338 O345 2.326 . S
In338 O346 2.266 . S
In338 O347 2.326 . S
In338 O349 2.294 . S
In338 O350 2.326 . S
O339 In338 2.294 . S
O339 C348 1.240 . S
O340 In338 2.326 . S
O340 C348 1.252 . S
C341 O344 1.252 . S
C341 O345 1.260 . S
C342 O349 1.240 . S
C342 O350 1.252 . S
C343 O346 1.252 . S
C343 O347 1.260 . S
O344 In338 2.266 . S
O344 C341 1.252 . S
O345 In338 2.326 . S
O345 C341 1.260 . S
O346 In338 2.266 . S
O346 C343 1.252 . S
O347 In338 2.326 . S
O347 C343 1.260 . S
C348 O339 1.240 . S
C348 O340 1.252 . S
O349 In338 2.294 . S
O349 C342 1.240 . S
O350 In338 2.326 . S
O350 C342 1.252 . S
In351 O352 2.294 . S
In351 O353 2.326 . S
In351 O357 2.266 . S
In351 O358 2.326 . S
In351 O359 2.266 . S
In351 O360 2.326 . S
In351 O362 2.294 . S
In351 O363 2.326 . S
O352 In351 2.294 . S
O352 C361 1.240 . S
O353 In351 2.326 . S
O353 C361 1.252 . S
C354 O357 1.252 . S
C354 O358 1.260 . S
C355 O362 1.240 . S
C355 O363 1.252 . S
C356 O359 1.252 . S
C356 O360 1.260 . S
O357 In351 2.266 . S
O357 C354 1.252 . S
O358 In351 2.326 . S
O358 C354 1.260 . S
O359 In351 2.266 . S
O359 C356 1.252 . S
O360 In351 2.326 . S
O360 C356 1.260 . S
C361 O352 1.240 . S
C361 O353 1.252 . S
O362 In351 2.294 . S
O362 C355 1.240 . S
O363 In351 2.326 . S
O363 C355 1.252 . S
In364 O365 2.294 . S
In364 O366 2.326 . S
In364 O370 2.266 . S
In364 O371 2.326 . S
In364 O372 2.266 . S
In364 O373 2.326 . S
In364 O375 2.294 . S
In364 O376 2.326 . S
O365 In364 2.294 . S
O365 C374 1.240 . S
O366 In364 2.326 . S
O366 C374 1.252 . S
C367 O370 1.252 . S
C367 O371 1.260 . S
C368 O375 1.240 . S
C368 O376 1.252 . S
C369 O372 1.252 . S
C369 O373 1.260 . S
O370 In364 2.266 . S
O370 C367 1.252 . S
O371 In364 2.326 . S
O371 C367 1.260 . S
O372 In364 2.266 . S
O372 C369 1.252 . S
O373 In364 2.326 . S
O373 C369 1.260 . S
C374 O365 1.240 . S
C374 O366 1.252 . S
O375 In364 2.294 . S
O375 C368 1.240 . S
O376 In364 2.326 . S
O376 C368 1.252 . S
In377 O378 2.294 . S
In377 O379 2.326 . S
In377 O383 2.266 . S
In377 O384 2.326 . S
In377 O385 2.266 . S
In377 O386 2.326 . S
In377 O388 2.294 . S
In377 O389 2.326 . S
O378 In377 2.294 . S
O378 C387 1.240 . S
O379 In377 2.326 . S
O379 C387 1.252 . S
C380 O383 1.252 . S
C380 O384 1.260 . S
C381 O388 1.240 . S
C381 O389 1.252 . S
C382 O385 1.252 . S
C382 O386 1.260 . S
O383 In377 2.266 . S
O383 C380 1.252 . S
O384 In377 2.326 . S
O384 C380 1.260 . S
O385 In377 2.266 . S
O385 C382 1.252 . S
O386 In377 2.326 . S
O386 C382 1.260 . S
C387 O378 1.240 . S
C387 O379 1.252 . S
O388 In377 2.294 . S
O388 C381 1.240 . S
O389 In377 2.326 . S
O389 C381 1.252 . S
In390 O391 2.294 . S
In390 O392 2.326 . S
In390 O396 2.266 . S
In390 O397 2.326 . S
In390 O398 2.266 . S
In390 O399 2.326 . S
In390 O401 2.294 . S
In390 O402 2.326 . S
O391 In390 2.294 . S
O391 C400 1.240 . S
O392 In390 2.326 . S
O392 C400 1.252 . S
C393 O396 1.252 . S
C393 O397 1.260 . S
C394 O401 1.240 . S
C394 O402 1.252 . S
C395 O398 1.252 . S
C395 O399 1.260 . S
O396 In390 2.266 . S
O396 C393 1.252 . S
O397 In390 2.326 . S
O397 C393 1.260 . S
O398 In390 2.266 . S
O398 C395 1.252 . S
O399 In390 2.326 . S
O399 C395 1.260 . S
C400 O391 1.240 . S
C400 O392 1.252 . S
O401 In390 2.294 . S
O401 C394 1.240 . S
O402 In390 2.326 . S
O402 C394 1.252 . S
In403 O404 2.294 . S
In403 O405 2.326 . S
In403 O409 2.266 . S
In403 O410 2.326 . S
In403 O411 2.266 . S
In403 O412 2.326 . S
In403 O414 2.294 . S
In403 O415 2.326 . S
O404 In403 2.294 . S
O404 C413 1.240 . S
O405 In403 2.326 . S
O405 C413 1.252 . S
C406 O409 1.252 . S
C406 O410 1.260 . S
C407 O414 1.240 . S
C407 O415 1.252 . S
C408 O411 1.252 . S
C408 O412 1.260 . S
O409 In403 2.266 . S
O409 C406 1.252 . S
O410 In403 2.326 . S
O410 C406 1.260 . S
O411 In403 2.266 . S
O411 C408 1.252 . S
O412 In403 2.326 . S
O412 C408 1.260 . S
C413 O404 1.240 . S
C413 O405 1.252 . S
O414 In403 2.294 . S
O414 C407 1.240 . S
O415 In403 2.326 . S
O415 C407 1.252 . S
In416 O417 2.294 . S
In416 O418 2.326 . S
In416 O422 2.266 . S
In416 O423 2.326 . S
In416 O424 2.266 . S
In416 O425 2.326 . S
In416 O427 2.294 . S
In416 O428 2.326 . S
O417 In416 2.294 . S
O417 C426 1.240 . S
O418 In416 2.326 . S
O418 C426 1.252 . S
C419 O422 1.252 . S
C419 O423 1.260 . S
C420 O427 1.240 . S
C420 O428 1.252 . S
C421 O424 1.252 . S
C421 O425 1.260 . S
O422 In416 2.266 . S
O422 C419 1.252 . S
O423 In416 2.326 . S
O423 C419 1.260 . S
O424 In416 2.266 . S
O424 C421 1.252 . S
O425 In416 2.326 . S
O425 C421 1.260 . S
C426 O417 1.240 . S
C426 O418 1.252 . S
O427 In416 2.294 . S
O427 C420 1.240 . S
O428 In416 2.326 . S
O428 C420 1.252 . S
In429 O430 2.294 . S
In429 O431 2.326 . S
In429 O435 2.266 . S
In429 O436 2.326 . S
In429 O437 2.266 . S
In429 O438 2.326 . S
In429 O440 2.294 . S
In429 O441 2.326 . S
O430 In429 2.294 . S
O430 C439 1.240 . S
O431 In429 2.326 . S
O431 C439 1.252 . S
C432 O435 1.252 . S
C432 O436 1.260 . S
C433 O440 1.240 . S
C433 O441 1.252 . S
C434 O437 1.252 . S
C434 O438 1.260 . S
O435 In429 2.266 . S
O435 C432 1.252 . S
O436 In429 2.326 . S
O436 C432 1.260 . S
O437 In429 2.266 . S
O437 C434 1.252 . S
O438 In429 2.326 . S
O438 C434 1.260 . S
C439 O430 1.240 . S
C439 O431 1.252 . S
O440 In429 2.294 . S
O440 C433 1.240 . S
O441 In429 2.326 . S
O441 C433 1.252 . S
In442 O443 2.294 . S
In442 O444 2.326 . S
In442 O448 2.266 . S
In442 O449 2.326 . S
In442 O450 2.266 . S
In442 O451 2.326 . S
In442 O453 2.294 . S
In442 O454 2.326 . S
O443 In442 2.294 . S
O443 C452 1.240 . S
O444 In442 2.326 . S
O444 C452 1.252 . S
C445 O448 1.252 . S
C445 O449 1.260 . S
C446 O453 1.240 . S
C446 O454 1.252 . S
C447 O450 1.252 . S
C447 O451 1.260 . S
O448 In442 2.266 . S
O448 C445 1.252 . S
O449 In442 2.326 . S
O449 C445 1.260 . S
O450 In442 2.266 . S
O450 C447 1.252 . S
O451 In442 2.326 . S
O451 C447 1.260 . S
C452 O443 1.240 . S
C452 O444 1.252 . S
O453 In442 2.294 . S
O453 C446 1.240 . S
O454 In442 2.326 . S
O454 C446 1.252 . S
In455 O456 2.294 . S
In455 O457 2.326 . S
In455 O461 2.266 . S
In455 O462 2.326 . S
In455 O463 2.266 . S
In455 O464 2.326 . S
In455 O466 2.294 . S
In455 O467 2.326 . S
O456 In455 2.294 . S
O456 C465 1.240 . S
O457 In455 2.326 . S
O457 C465 1.252 . S
C458 O461 1.252 . S
C458 O462 1.260 . S
C459 O466 1.240 . S
C459 O467 1.252 . S
C460 O463 1.252 . S
C460 O464 1.260 . S
O461 In455 2.266 . S
O461 C458 1.252 . S
O462 In455 2.326 . S
O462 C458 1.260 . S
O463 In455 2.266 . S
O463 C460 1.252 . S
O464 In455 2.326 . S
O464 C460 1.260 . S
C465 O456 1.240 . S
C465 O457 1.252 . S
O466 In455 2.294 . S
O466 C459 1.240 . S
O467 In455 2.326 . S
O467 C459 1.252 . S
In468 O469 2.294 . S
In468 O470 2.326 . S
In468 O474 2.266 . S
In468 O475 2.326 . S
In468 O476 2.266 . S
In468 O477 2.326 . S
In468 O479 2.294 . S
In468 O480 2.326 . S
O469 In468 2.294 . S
O469 C478 1.240 . S
O470 In468 2.326 . S
O470 C478 1.252 . S
C471 O474 1.252 . S
C471 O475 1.260 . S
C472 O479 1.240 . S
C472 O480 1.252 . S
C473 O476 1.252 . S
C473 O477 1.260 . S
O474 In468 2.266 . S
O474 C471 1.252 . S
O475 In468 2.326 . S
O475 C471 1.260 . S
O476 In468 2.266 . S
O476 C473 1.252 . S
O477 In468 2.326 . S
O477 C473 1.260 . S
C478 O469 1.240 . S
C478 O470 1.252 . S
O479 In468 2.294 . S
O479 C472 1.240 . S
O480 In468 2.326 . S
O480 C472 1.252 . S
In481 O482 2.294 . S
In481 O483 2.326 . S
In481 O487 2.266 . S
In481 O488 2.326 . S
In481 O489 2.266 . S
In481 O490 2.326 . S
In481 O492 2.294 . S
In481 O493 2.326 . S
O482 In481 2.294 . S
O482 C491 1.240 . S
O483 In481 2.326 . S
O483 C491 1.252 . S
C484 O487 1.252 . S
C484 O488 1.260 . S
C485 O492 1.240 . S
C485 O493 1.252 . S
C486 O489 1.252 . S
C486 O490 1.260 . S
O487 In481 2.266 . S
O487 C484 1.252 . S
O488 In481 2.326 . S
O488 C484 1.260 . S
O489 In481 2.266 . S
O489 C486 1.252 . S
O490 In481 2.326 . S
O490 C486 1.260 . S
C491 O482 1.240 . S
C491 O483 1.252 . S
O492 In481 2.294 . S
O492 C485 1.240 . S
O493 In481 2.326 . S
O493 C485 1.252 . S
In494 O495 2.294 . S
In494 O496 2.326 . S
In494 O500 2.266 . S
In494 O501 2.326 . S
In494 O502 2.266 . S
In494 O503 2.326 . S
In494 O505 2.294 . S
In494 O506 2.326 . S
O495 In494 2.294 . S
O495 C504 1.240 . S
O496 In494 2.326 . S
O496 C504 1.252 . S
C497 O500 1.252 . S
C497 O501 1.260 . S
C498 O505 1.240 . S
C498 O506 1.252 . S
C499 O502 1.252 . S
C499 O503 1.260 . S
O500 In494 2.266 . S
O500 C497 1.252 . S
O501 In494 2.326 . S
O501 C497 1.260 . S
O502 In494 2.266 . S
O502 C499 1.252 . S
O503 In494 2.326 . S
O503 C499 1.260 . S
C504 O495 1.240 . S
C504 O496 1.252 . S
O505 In494 2.294 . S
O505 C498 1.240 . S
O506 In494 2.326 . S
O506 C498 1.252 . S
In507 O508 2.294 . S
In507 O509 2.326 . S
In507 O513 2.266 . S
In507 O514 2.326 . S
In507 O515 2.266 . S
In507 O516 2.326 . S
In507 O518 2.294 . S
In507 O519 2.326 . S
O508 In507 2.294 . S
O508 C517 1.240 . S
O509 In507 2.326 . S
O509 C517 1.252 . S
C510 O513 1.252 . S
C510 O514 1.260 . S
C511 O518 1.240 . S
C511 O519 1.252 . S
C512 O515 1.252 . S
C512 O516 1.260 . S
O513 In507 2.266 . S
O513 C510 1.252 . S
O514 In507 2.326 . S
O514 C510 1.260 . S
O515 In507 2.266 . S
O515 C512 1.252 . S
O516 In507 2.326 . S
O516 C512 1.260 . S
C517 O508 1.240 . S
C517 O509 1.252 . S
O518 In507 2.294 . S
O518 C511 1.240 . S
O519 In507 2.326 . S
O519 C511 1.252 . S
In520 O521 2.294 . S
In520 O522 2.326 . S
In520 O526 2.266 . S
In520 O527 2.326 . S
In520 O528 2.266 . S
In520 O529 2.326 . S
In520 O531 2.294 . S
In520 O532 2.326 . S
O521 In520 2.294 . S
O521 C530 1.240 . S
O522 In520 2.326 . S
O522 C530 1.252 . S
C523 O526 1.252 . S
C523 O527 1.260 . S
C524 O531 1.240 . S
C524 O532 1.252 . S
C525 O528 1.252 . S
C525 O529 1.260 . S
O526 In520 2.266 . S
O526 C523 1.252 . S
O527 In520 2.326 . S
O527 C523 1.260 . S
O528 In520 2.266 . S
O528 C525 1.252 . S
O529 In520 2.326 . S
O529 C525 1.260 . S
C530 O521 1.240 . S
C530 O522 1.252 . S
O531 In520 2.294 . S
O531 C524 1.240 . S
O532 In520 2.326 . S
O532 C524 1.252 . S
In533 O534 2.294 . S
In533 O535 2.326 . S
In533 O539 2.266 . S
In533 O540 2.326 . S
In533 O541 2.266 . S
In533 O542 2.326 . S
In533 O544 2.294 . S
In533 O545 2.326 . S
O534 In533 2.294 . S
O534 C543 1.240 . S
O535 In533 2.326 . S
O535 C543 1.252 . S
C536 O539 1.252 . S
C536 O540 1.260 . S
C537 O544 1.240 . S
C537 O545 1.252 . S
C538 O541 1.252 . S
C538 O542 1.260 . S
O539 In533 2.266 . S
O539 C536 1.252 . S
O540 In533 2.326 . S
O540 C536 1.260 . S
O541 In533 2.266 . S
O541 C538 1.252 . S
O542 In533 2.326 . S
O542 C538 1.260 . S
C543 O534 1.240 . S
C543 O535 1.252 . S
O544 In533 2.294 . S
O544 C537 1.240 . S
O545 In533 2.326 . S
O545 C537 1.252 . S
In546 O547 2.294 . S
In546 O548 2.326 . S
In546 O552 2.266 . S
In546 O553 2.326 . S
In546 O554 2.266 . S
In546 O555 2.326 . S
In546 O557 2.294 . S
In546 O558 2.326 . S
O547 In546 2.294 . S
O547 C556 1.240 . S
O548 In546 2.326 . S
O548 C556 1.252 . S
C549 O552 1.252 . S
C549 O553 1.260 . S
C550 O557 1.240 . S
C550 O558 1.252 . S
C551 O554 1.252 . S
C551 O555 1.260 . S
O552 In546 2.266 . S
O552 C549 1.252 . S
O553 In546 2.326 . S
O553 C549 1.260 . S
O554 In546 2.266 . S
O554 C551 1.252 . S
O555 In546 2.326 . S
O555 C551 1.260 . S
C556 O547 1.240 . S
C556 O548 1.252 . S
O557 In546 2.294 . S
O557 C550 1.240 . S
O558 In546 2.326 . S
O558 C550 1.252 . S
In559 O560 2.294 . S
In559 O561 2.326 . S
In559 O565 2.266 . S
In559 O566 2.326 . S
In559 O567 2.266 . S
In559 O568 2.326 . S
In559 O570 2.294 . S
In559 O571 2.326 . S
O560 In559 2.294 . S
O560 C569 1.240 . S
O561 In559 2.326 . S
O561 C569 1.252 . S
C562 O565 1.252 . S
C562 O566 1.260 . S
C563 O570 1.240 . S
C563 O571 1.252 . S
C564 O567 1.252 . S
C564 O568 1.260 . S
O565 In559 2.266 . S
O565 C562 1.252 . S
O566 In559 2.326 . S
O566 C562 1.260 . S
O567 In559 2.266 . S
O567 C564 1.252 . S
O568 In559 2.326 . S
O568 C564 1.260 . S
C569 O560 1.240 . S
C569 O561 1.252 . S
O570 In559 2.294 . S
O570 C563 1.240 . S
O571 In559 2.326 . S
O571 C563 1.252 . S
In572 O573 2.294 . S
In572 O574 2.326 . S
In572 O578 2.266 . S
In572 O579 2.326 . S
In572 O580 2.266 . S
In572 O581 2.326 . S
In572 O583 2.294 . S
In572 O584 2.326 . S
O573 In572 2.294 . S
O573 C582 1.240 . S
O574 In572 2.326 . S
O574 C582 1.252 . S
C575 O578 1.252 . S
C575 O579 1.260 . S
C576 O583 1.240 . S
C576 O584 1.252 . S
C577 O580 1.252 . S
C577 O581 1.260 . S
O578 In572 2.266 . S
O578 C575 1.252 . S
O579 In572 2.326 . S
O579 C575 1.260 . S
O580 In572 2.266 . S
O580 C577 1.252 . S
O581 In572 2.326 . S
O581 C577 1.260 . S
C582 O573 1.240 . S
C582 O574 1.252 . S
O583 In572 2.294 . S
O583 C576 1.240 . S
O584 In572 2.326 . S
O584 C576 1.252 . S
In585 O586 2.294 . S
In585 O587 2.326 . S
In585 O591 2.266 . S
In585 O592 2.326 . S
In585 O593 2.266 . S
In585 O594 2.326 . S
In585 O596 2.294 . S
In585 O597 2.326 . S
O586 In585 2.294 . S
O586 C595 1.240 . S
O587 In585 2.326 . S
O587 C595 1.252 . S
C588 O591 1.252 . S
C588 O592 1.260 . S
C589 O596 1.240 . S
C589 O597 1.252 . S
C590 O593 1.252 . S
C590 O594 1.260 . S
O591 In585 2.266 . S
O591 C588 1.252 . S
O592 In585 2.326 . S
O592 C588 1.260 . S
O593 In585 2.266 . S
O593 C590 1.252 . S
O594 In585 2.326 . S
O594 C590 1.260 . S
C595 O586 1.240 . S
C595 O587 1.252 . S
O596 In585 2.294 . S
O596 C589 1.240 . S
O597 In585 2.326 . S
O597 C589 1.252 . S
In598 O599 2.294 . S
In598 O600 2.326 . S
In598 O604 2.266 . S
In598 O605 2.326 . S
In598 O606 2.266 . S
In598 O607 2.326 . S
In598 O609 2.294 . S
In598 O610 2.326 . S
O599 In598 2.294 . S
O599 C608 1.240 . S
O600 In598 2.326 . S
O600 C608 1.252 . S
C601 O604 1.252 . S
C601 O605 1.260 . S
C602 O609 1.240 . S
C602 O610 1.252 . S
C603 O606 1.252 . S
C603 O607 1.260 . S
O604 In598 2.266 . S
O604 C601 1.252 . S
O605 In598 2.326 . S
O605 C601 1.260 . S
O606 In598 2.266 . S
O606 C603 1.252 . S
O607 In598 2.326 . S
O607 C603 1.260 . S
C608 O599 1.240 . S
C608 O600 1.252 . S
O609 In598 2.294 . S
O609 C602 1.240 . S
O610 In598 2.326 . S
O610 C602 1.252 . S
In611 O612 2.294 . S
In611 O613 2.326 . S
In611 O617 2.266 . S
In611 O618 2.326 . S
In611 O619 2.266 . S
In611 O620 2.326 . S
In611 O622 2.294 . S
In611 O623 2.326 . S
O612 In611 2.294 . S
O612 C621 1.240 . S
O613 In611 2.326 . S
O613 C621 1.252 . S
C614 O617 1.252 . S
C614 O618 1.260 . S
C615 O622 1.240 . S
C615 O623 1.252 . S
C616 O619 1.252 . S
C616 O620 1.260 . S
O617 In611 2.266 . S
O617 C614 1.252 . S
O618 In611 2.326 . S
O618 C614 1.260 . S
O619 In611 2.266 . S
O619 C616 1.252 . S
O620 In611 2.326 . S
O620 C616 1.260 . S
C621 O612 1.240 . S
C621 O613 1.252 . S
O622 In611 2.294 . S
O622 C615 1.240 . S
O623 In611 2.326 . S
O623 C615 1.252 . S
In624 O625 2.294 . S
In624 O626 2.326 . S
In624 O630 2.266 . S
In624 O631 2.326 . S
In624 O632 2.266 . S
In624 O633 2.326 . S
In624 O635 2.294 . S
In624 O636 2.326 . S
O625 In624 2.294 . S
O625 C634 1.240 . S
O626 In624 2.326 . S
O626 C634 1.252 . S
C627 O630 1.252 . S
C627 O631 1.260 . S
C628 O635 1.240 . S
C628 O636 1.252 . S
C629 O632 1.252 . S
C629 O633 1.260 . S
O630 In624 2.266 . S
O630 C627 1.252 . S
O631 In624 2.326 . S
O631 C627 1.260 . S
O632 In624 2.266 . S
O632 C629 1.252 . S
O633 In624 2.326 . S
O633 C629 1.260 . S
C634 O625 1.240 . S
C634 O626 1.252 . S
O635 In624 2.294 . S
O635 C628 1.240 . S
O636 In624 2.326 . S
O636 C628 1.252 . S
In637 O638 2.294 . S
In637 O639 2.326 . S
In637 O643 2.266 . S
In637 O644 2.326 . S
In637 O645 2.266 . S
In637 O646 2.326 . S
In637 O648 2.294 . S
In637 O649 2.326 . S
O638 In637 2.294 . S
O638 C647 1.240 . S
O639 In637 2.326 . S
O639 C647 1.252 . S
C640 O643 1.252 . S
C640 O644 1.260 . S
C641 O648 1.240 . S
C641 O649 1.252 . S
C642 O645 1.252 . S
C642 O646 1.260 . S
O643 In637 2.266 . S
O643 C640 1.252 . S
O644 In637 2.326 . S
O644 C640 1.260 . S
O645 In637 2.266 . S
O645 C642 1.252 . S
O646 In637 2.326 . S
O646 C642 1.260 . S
C647 O638 1.240 . S
C647 O639 1.252 . S
O648 In637 2.294 . S
O648 C641 1.240 . S
O649 In637 2.326 . S
O649 C641 1.252 . S
In650 O651 2.294 . S
In650 O652 2.326 . S
In650 O656 2.266 . S
In650 O657 2.326 . S
In650 O658 2.266 . S
In650 O659 2.326 . S
In650 O661 2.294 . S
In650 O662 2.326 . S
O651 In650 2.294 . S
O651 C660 1.240 . S
O652 In650 2.326 . S
O652 C660 1.252 . S
C653 O656 1.252 . S
C653 O657 1.260 . S
C654 O661 1.240 . S
C654 O662 1.252 . S
C655 O658 1.252 . S
C655 O659 1.260 . S
O656 In650 2.266 . S
O656 C653 1.252 . S
O657 In650 2.326 . S
O657 C653 1.260 . S
O658 In650 2.266 . S
O658 C655 1.252 . S
O659 In650 2.326 . S
O659 C655 1.260 . S
C660 O651 1.240 . S
C660 O652 1.252 . S
O661 In650 2.294 . S
O661 C654 1.240 . S
O662 In650 2.326 . S
O662 C654 1.252 . S
In663 O664 2.294 . S
In663 O665 2.326 . S
In663 O669 2.266 . S
In663 O670 2.326 . S
In663 O671 2.266 . S
In663 O672 2.326 . S
In663 O674 2.294 . S
In663 O675 2.326 . S
O664 In663 2.294 . S
O664 C673 1.240 . S
O665 In663 2.326 . S
O665 C673 1.252 . S
C666 O669 1.252 . S
C666 O670 1.260 . S
C667 O674 1.240 . S
C667 O675 1.252 . S
C668 O671 1.252 . S
C668 O672 1.260 . S
O669 In663 2.266 . S
O669 C666 1.252 . S
O670 In663 2.326 . S
O670 C666 1.260 . S
O671 In663 2.266 . S
O671 C668 1.252 . S
O672 In663 2.326 . S
O672 C668 1.260 . S
C673 O664 1.240 . S
C673 O665 1.252 . S
O674 In663 2.294 . S
O674 C667 1.240 . S
O675 In663 2.326 . S
O675 C667 1.252 . S
In676 O677 2.294 . S
In676 O678 2.326 . S
In676 O682 2.266 . S
In676 O683 2.326 . S
In676 O684 2.266 . S
In676 O685 2.326 . S
In676 O687 2.294 . S
In676 O688 2.326 . S
O677 In676 2.294 . S
O677 C686 1.240 . S
O678 In676 2.326 . S
O678 C686 1.252 . S
C679 O682 1.252 . S
C679 O683 1.260 . S
C680 O687 1.240 . S
C680 O688 1.252 . S
C681 O684 1.252 . S
C681 O685 1.260 . S
O682 In676 2.266 . S
O682 C679 1.252 . S
O683 In676 2.326 . S
O683 C679 1.260 . S
O684 In676 2.266 . S
O684 C681 1.252 . S
O685 In676 2.326 . S
O685 C681 1.260 . S
C686 O677 1.240 . S
C686 O678 1.252 . S
O687 In676 2.294 . S
O687 C680 1.240 . S
O688 In676 2.326 . S
O688 C680 1.252 . S
In689 O690 2.294 . S
In689 O691 2.326 . S
In689 O695 2.266 . S
In689 O696 2.326 . S
In689 O697 2.266 . S
In689 O698 2.326 . S
In689 O700 2.294 . S
In689 O701 2.326 . S
O690 In689 2.294 . S
O690 C699 1.240 . S
O691 In689 2.326 . S
O691 C699 1.252 . S
C692 O695 1.252 . S
C692 O696 1.260 . S
C693 O700 1.240 . S
C693 O701 1.252 . S
C694 O697 1.252 . S
C694 O698 1.260 . S
O695 In689 2.266 . S
O695 C692 1.252 . S
O696 In689 2.326 . S
O696 C692 1.260 . S
O697 In689 2.266 . S
O697 C694 1.252 . S
O698 In689 2.326 . S
O698 C694 1.260 . S
C699 O690 1.240 . S
C699 O691 1.252 . S
O700 In689 2.294 . S
O700 C693 1.240 . S
O701 In689 2.326 . S
O701 C693 1.252 . S
In702 O703 2.294 . S
In702 O704 2.326 . S
In702 O708 2.266 . S
In702 O709 2.326 . S
In702 O710 2.266 . S
In702 O711 2.326 . S
In702 O713 2.294 . S
In702 O714 2.326 . S
O703 In702 2.294 . S
O703 C712 1.240 . S
O704 In702 2.326 . S
O704 C712 1.252 . S
C705 O708 1.252 . S
C705 O709 1.260 . S
C706 O713 1.240 . S
C706 O714 1.252 . S
C707 O710 1.252 . S
C707 O711 1.260 . S
O708 In702 2.266 . S
O708 C705 1.252 . S
O709 In702 2.326 . S
O709 C705 1.260 . S
O710 In702 2.266 . S
O710 C707 1.252 . S
O711 In702 2.326 . S
O711 C707 1.260 . S
C712 O703 1.240 . S
C712 O704 1.252 . S
O713 In702 2.294 . S
O713 C706 1.240 . S
O714 In702 2.326 . S
O714 C706 1.252 . S
In715 O716 2.294 . S
In715 O717 2.326 . S
In715 O721 2.266 . S
In715 O722 2.326 . S
In715 O723 2.266 . S
In715 O724 2.326 . S
In715 O726 2.294 . S
In715 O727 2.326 . S
O716 In715 2.294 . S
O716 C725 1.240 . S
O717 In715 2.326 . S
O717 C725 1.252 . S
C718 O721 1.252 . S
C718 O722 1.260 . S
C719 O726 1.240 . S
C719 O727 1.252 . S
C720 O723 1.252 . S
C720 O724 1.260 . S
O721 In715 2.266 . S
O721 C718 1.252 . S
O722 In715 2.326 . S
O722 C718 1.260 . S
O723 In715 2.266 . S
O723 C720 1.252 . S
O724 In715 2.326 . S
O724 C720 1.260 . S
C725 O716 1.240 . S
C725 O717 1.252 . S
O726 In715 2.294 . S
O726 C719 1.240 . S
O727 In715 2.326 . S
O727 C719 1.252 . S
In728 O729 2.294 . S
In728 O730 2.326 . S
In728 O734 2.266 . S
In728 O735 2.326 . S
In728 O736 2.266 . S
In728 O737 2.326 . S
In728 O739 2.294 . S
In728 O740 2.326 . S
O729 In728 2.294 . S
O729 C738 1.240 . S
O730 In728 2.326 . S
O730 C738 1.252 . S
C731 O734 1.252 . S
C731 O735 1.260 . S
C732 O739 1.240 . S
C732 O740 1.252 . S
C733 O736 1.252 . S
C733 O737 1.260 . S
O734 In728 2.266 . S
O734 C731 1.252 . S
O735 In728 2.326 . S
O735 C731 1.260 . S
O736 In728 2.266 . S
O736 C733 1.252 . S
O737 In728 2.326 . S
O737 C733 1.260 . S
C738 O729 1.240 . S
C738 O730 1.252 . S
O739 In728 2.294 . S
O739 C732 1.240 . S
O740 In728 2.326 . S
O740 C732 1.252 . S
In741 O742 2.294 . S
In741 O743 2.326 . S
In741 O747 2.266 . S
In741 O748 2.326 . S
In741 O749 2.266 . S
In741 O750 2.326 . S
In741 O752 2.294 . S
In741 O753 2.326 . S
O742 In741 2.294 . S
O742 C751 1.240 . S
O743 In741 2.326 . S
O743 C751 1.252 . S
C744 O747 1.252 . S
C744 O748 1.260 . S
C745 O752 1.240 . S
C745 O753 1.252 . S
C746 O749 1.252 . S
C746 O750 1.260 . S
O747 In741 2.266 . S
O747 C744 1.252 . S
O748 In741 2.326 . S
O748 C744 1.260 . S
O749 In741 2.266 . S
O749 C746 1.252 . S
O750 In741 2.326 . S
O750 C746 1.260 . S
C751 O742 1.240 . S
C751 O743 1.252 . S
O752 In741 2.294 . S
O752 C745 1.240 . S
O753 In741 2.326 . S
O753 C745 1.252 . S
In754 O755 2.294 . S
In754 O756 2.326 . S
In754 O760 2.266 . S
In754 O761 2.326 . S
In754 O762 2.266 . S
In754 O763 2.326 . S
In754 O765 2.294 . S
In754 O766 2.326 . S
O755 In754 2.294 . S
O755 C764 1.240 . S
O756 In754 2.326 . S
O756 C764 1.252 . S
C757 O760 1.252 . S
C757 O761 1.260 . S
C758 O765 1.240 . S
C758 O766 1.252 . S
C759 O762 1.252 . S
C759 O763 1.260 . S
O760 In754 2.266 . S
O760 C757 1.252 . S
O761 In754 2.326 . S
O761 C757 1.260 . S
O762 In754 2.266 . S
O762 C759 1.252 . S
O763 In754 2.326 . S
O763 C759 1.260 . S
C764 O755 1.240 . S
C764 O756 1.252 . S
O765 In754 2.294 . S
O765 C758 1.240 . S
O766 In754 2.326 . S
O766 C758 1.252 . S
In767 O768 2.294 . S
In767 O769 2.326 . S
In767 O773 2.266 . S
In767 O774 2.326 . S
In767 O775 2.266 . S
In767 O776 2.326 . S
In767 O778 2.294 . S
In767 O779 2.326 . S
O768 In767 2.294 . S
O768 C777 1.240 . S
O769 In767 2.326 . S
O769 C777 1.252 . S
C770 O773 1.252 . S
C770 O774 1.260 . S
C771 O778 1.240 . S
C771 O779 1.252 . S
C772 O775 1.252 . S
C772 O776 1.260 . S
O773 In767 2.266 . S
O773 C770 1.252 . S
O774 In767 2.326 . S
O774 C770 1.260 . S
O775 In767 2.266 . S
O775 C772 1.252 . S
O776 In767 2.326 . S
O776 C772 1.260 . S
C777 O768 1.240 . S
C777 O769 1.252 . S
O778 In767 2.294 . S
O778 C771 1.240 . S
O779 In767 2.326 . S
O779 C771 1.252 . S
In780 O781 2.294 . S
In780 O782 2.326 . S
In780 O786 2.266 . S
In780 O787 2.326 . S
In780 O788 2.266 . S
In780 O789 2.326 . S
In780 O791 2.294 . S
In780 O792 2.326 . S
O781 In780 2.294 . S
O781 C790 1.240 . S
O782 In780 2.326 . S
O782 C790 1.252 . S
C783 O786 1.252 . S
C783 O787 1.260 . S
C784 O791 1.240 . S
C784 O792 1.252 . S
C785 O788 1.252 . S
C785 O789 1.260 . S
O786 In780 2.266 . S
O786 C783 1.252 . S
O787 In780 2.326 . S
O787 C783 1.260 . S
O788 In780 2.266 . S
O788 C785 1.252 . S
O789 In780 2.326 . S
O789 C785 1.260 . S
C790 O781 1.240 . S
C790 O782 1.252 . S
O791 In780 2.294 . S
O791 C784 1.240 . S
O792 In780 2.326 . S
O792 C784 1.252 . S
In793 O794 2.294 . S
In793 O795 2.326 . S
In793 O799 2.266 . S
In793 O800 2.326 . S
In793 O801 2.266 . S
In793 O802 2.326 . S
In793 O804 2.294 . S
In793 O805 2.326 . S
O794 In793 2.294 . S
O794 C803 1.240 . S
O795 In793 2.326 . S
O795 C803 1.252 . S
C796 O799 1.252 . S
C796 O800 1.260 . S
C797 O804 1.240 . S
C797 O805 1.252 . S
C798 O801 1.252 . S
C798 O802 1.260 . S
O799 In793 2.266 . S
O799 C796 1.252 . S
O800 In793 2.326 . S
O800 C796 1.260 . S
O801 In793 2.266 . S
O801 C798 1.252 . S
O802 In793 2.326 . S
O802 C798 1.260 . S
C803 O794 1.240 . S
C803 O795 1.252 . S
O804 In793 2.294 . S
O804 C797 1.240 . S
O805 In793 2.326 . S
O805 C797 1.252 . S
In806 O807 2.294 . S
In806 O808 2.326 . S
In806 O812 2.266 . S
In806 O813 2.326 . S
In806 O814 2.266 . S
In806 O815 2.326 . S
In806 O817 2.294 . S
In806 O818 2.326 . S
O807 In806 2.294 . S
O807 C816 1.240 . S
O808 In806 2.326 . S
O808 C816 1.252 . S
C809 O812 1.252 . S
C809 O813 1.260 . S
C810 O817 1.240 . S
C810 O818 1.252 . S
C811 O814 1.252 . S
C811 O815 1.260 . S
O812 In806 2.266 . S
O812 C809 1.252 . S
O813 In806 2.326 . S
O813 C809 1.260 . S
O814 In806 2.266 . S
O814 C811 1.252 . S
O815 In806 2.326 . S
O815 C811 1.260 . S
C816 O807 1.240 . S
C816 O808 1.252 . S
O817 In806 2.294 . S
O817 C810 1.240 . S
O818 In806 2.326 . S
O818 C810 1.252 . S
In819 O820 2.294 . S
In819 O821 2.326 . S
In819 O825 2.266 . S
In819 O826 2.326 . S
In819 O827 2.266 . S
In819 O828 2.326 . S
In819 O830 2.294 . S
In819 O831 2.326 . S
O820 In819 2.294 . S
O820 C829 1.240 . S
O821 In819 2.326 . S
O821 C829 1.252 . S
C822 O825 1.252 . S
C822 O826 1.260 . S
C823 O830 1.240 . S
C823 O831 1.252 . S
C824 O827 1.252 . S
C824 O828 1.260 . S
O825 In819 2.266 . S
O825 C822 1.252 . S
O826 In819 2.326 . S
O826 C822 1.260 . S
O827 In819 2.266 . S
O827 C824 1.252 . S
O828 In819 2.326 . S
O828 C824 1.260 . S
C829 O820 1.240 . S
C829 O821 1.252 . S
O830 In819 2.294 . S
O830 C823 1.240 . S
O831 In819 2.326 . S
O831 C823 1.252 . S
In832 O833 2.294 . S
In832 O834 2.326 . S
In832 O838 2.266 . S
In832 O839 2.326 . S
In832 O840 2.266 . S
In832 O841 2.326 . S
In832 O843 2.294 . S
In832 O844 2.326 . S
O833 In832 2.294 . S
O833 C842 1.240 . S
O834 In832 2.326 . S
O834 C842 1.252 . S
C835 O838 1.252 . S
C835 O839 1.260 . S
C836 O843 1.240 . S
C836 O844 1.252 . S
C837 O840 1.252 . S
C837 O841 1.260 . S
O838 In832 2.266 . S
O838 C835 1.252 . S
O839 In832 2.326 . S
O839 C835 1.260 . S
O840 In832 2.266 . S
O840 C837 1.252 . S
O841 In832 2.326 . S
O841 C837 1.260 . S
C842 O833 1.240 . S
C842 O834 1.252 . S
O843 In832 2.294 . S
O843 C836 1.240 . S
O844 In832 2.326 . S
O844 C836 1.252 . S
In845 O846 2.294 . S
In845 O847 2.326 . S
In845 O851 2.266 . S
In845 O852 2.326 . S
In845 O853 2.266 . S
In845 O854 2.326 . S
In845 O856 2.294 . S
In845 O857 2.326 . S
O846 In845 2.294 . S
O846 C855 1.240 . S
O847 In845 2.326 . S
O847 C855 1.252 . S
C848 O851 1.252 . S
C848 O852 1.260 . S
C849 O856 1.240 . S
C849 O857 1.252 . S
C850 O853 1.252 . S
C850 O854 1.260 . S
O851 In845 2.266 . S
O851 C848 1.252 . S
O852 In845 2.326 . S
O852 C848 1.260 . S
O853 In845 2.266 . S
O853 C850 1.252 . S
O854 In845 2.326 . S
O854 C850 1.260 . S
C855 O846 1.240 . S
C855 O847 1.252 . S
O856 In845 2.294 . S
O856 C849 1.240 . S
O857 In845 2.326 . S
O857 C849 1.252 . S
In858 O859 2.294 . S
In858 O860 2.326 . S
In858 O864 2.266 . S
In858 O865 2.326 . S
In858 O866 2.266 . S
In858 O867 2.326 . S
In858 O869 2.294 . S
In858 O870 2.326 . S
O859 In858 2.294 . S
O859 C868 1.240 . S
O860 In858 2.326 . S
O860 C868 1.252 . S
C861 O864 1.252 . S
C861 O865 1.260 . S
C862 O869 1.240 . S
C862 O870 1.252 . S
C863 O866 1.252 . S
C863 O867 1.260 . S
O864 In858 2.266 . S
O864 C861 1.252 . S
O865 In858 2.326 . S
O865 C861 1.260 . S
O866 In858 2.266 . S
O866 C863 1.252 . S
O867 In858 2.326 . S
O867 C863 1.260 . S
C868 O859 1.240 . S
C868 O860 1.252 . S
O869 In858 2.294 . S
O869 C862 1.240 . S
O870 In858 2.326 . S
O870 C862 1.252 . S
In871 O872 2.294 . S
In871 O873 2.326 . S
In871 O877 2.266 . S
In871 O878 2.326 . S
In871 O879 2.266 . S
In871 O880 2.326 . S
In871 O882 2.294 . S
In871 O883 2.326 . S
O872 In871 2.294 . S
O872 C881 1.240 . S
O873 In871 2.326 . S
O873 C881 1.252 . S
C874 O877 1.252 . S
C874 O878 1.260 . S
C875 O882 1.240 . S
C875 O883 1.252 . S
C876 O879 1.252 . S
C876 O880 1.260 . S
O877 In871 2.266 . S
O877 C874 1.252 . S
O878 In871 2.326 . S
O878 C874 1.260 . S
O879 In871 2.266 . S
O879 C876 1.252 . S
O880 In871 2.326 . S
O880 C876 1.260 . S
C881 O872 1.240 . S
C881 O873 1.252 . S
O882 In871 2.294 . S
O882 C875 1.240 . S
O883 In871 2.326 . S
O883 C875 1.252 . S
In884 O885 2.294 . S
In884 O886 2.326 . S
In884 O890 2.266 . S
In884 O891 2.326 . S
In884 O892 2.266 . S
In884 O893 2.326 . S
In884 O895 2.294 . S
In884 O896 2.326 . S
O885 In884 2.294 . S
O885 C894 1.240 . S
O886 In884 2.326 . S
O886 C894 1.252 . S
C887 O890 1.252 . S
C887 O891 1.260 . S
C888 O895 1.240 . S
C888 O896 1.252 . S
C889 O892 1.252 . S
C889 O893 1.260 . S
O890 In884 2.266 . S
O890 C887 1.252 . S
O891 In884 2.326 . S
O891 C887 1.260 . S
O892 In884 2.266 . S
O892 C889 1.252 . S
O893 In884 2.326 . S
O893 C889 1.260 . S
C894 O885 1.240 . S
C894 O886 1.252 . S
O895 In884 2.294 . S
O895 C888 1.240 . S
O896 In884 2.326 . S
O896 C888 1.252 . S
In897 O898 2.294 . S
In897 O899 2.326 . S
In897 O903 2.266 . S
In897 O904 2.326 . S
In897 O905 2.266 . S
In897 O906 2.326 . S
In897 O908 2.294 . S
In897 O909 2.326 . S
O898 In897 2.294 . S
O898 C907 1.240 . S
O899 In897 2.326 . S
O899 C907 1.252 . S
C900 O903 1.252 . S
C900 O904 1.260 . S
C901 O908 1.240 . S
C901 O909 1.252 . S
C902 O905 1.252 . S
C902 O906 1.260 . S
O903 In897 2.266 . S
O903 C900 1.252 . S
O904 In897 2.326 . S
O904 C900 1.260 . S
O905 In897 2.266 . S
O905 C902 1.252 . S
O906 In897 2.326 . S
O906 C902 1.260 . S
C907 O898 1.240 . S
C907 O899 1.252 . S
O908 In897 2.294 . S
O908 C901 1.240 . S
O909 In897 2.326 . S
O909 C901 1.252 . S
In910 O911 2.294 . S
In910 O912 2.326 . S
In910 O916 2.266 . S
In910 O917 2.326 . S
In910 O918 2.266 . S
In910 O919 2.326 . S
In910 O921 2.294 . S
In910 O922 2.326 . S
O911 In910 2.294 . S
O911 C920 1.240 . S
O912 In910 2.326 . S
O912 C920 1.252 . S
C913 O916 1.252 . S
C913 O917 1.260 . S
C914 O921 1.240 . S
C914 O922 1.252 . S
C915 O918 1.252 . S
C915 O919 1.260 . S
O916 In910 2.266 . S
O916 C913 1.252 . S
O917 In910 2.326 . S
O917 C913 1.260 . S
O918 In910 2.266 . S
O918 C915 1.252 . S
O919 In910 2.326 . S
O919 C915 1.260 . S
C920 O911 1.240 . S
C920 O912 1.252 . S
O921 In910 2.294 . S
O921 C914 1.240 . S
O922 In910 2.326 . S
O922 C914 1.252 . S
In923 O924 2.294 . S
In923 O925 2.326 . S
In923 O929 2.266 . S
In923 O930 2.326 . S
In923 O931 2.266 . S
In923 O932 2.326 . S
In923 O934 2.294 . S
In923 O935 2.326 . S
O924 In923 2.294 . S
O924 C933 1.240 . S
O925 In923 2.326 . S
O925 C933 1.252 . S
C926 O929 1.252 . S
C926 O930 1.260 . S
C927 O934 1.240 . S
C927 O935 1.252 . S
C928 O931 1.252 . S
C928 O932 1.260 . S
O929 In923 2.266 . S
O929 C926 1.252 . S
O930 In923 2.326 . S
O930 C926 1.260 . S
O931 In923 2.266 . S
O931 C928 1.252 . S
O932 In923 2.326 . S
O932 C928 1.260 . S
C933 O924 1.240 . S
C933 O925 1.252 . S
O934 In923 2.294 . S
O934 C927 1.240 . S
O935 In923 2.326 . S
O935 C927 1.252 . S
In936 O937 2.294 . S
In936 O938 2.326 . S
In936 O942 2.266 . S
In936 O943 2.326 . S
In936 O944 2.266 . S
In936 O945 2.326 . S
In936 O947 2.294 . S
In936 O948 2.326 . S
O937 In936 2.294 . S
O937 C946 1.240 . S
O938 In936 2.326 . S
O938 C946 1.252 . S
C939 O942 1.252 . S
C939 O943 1.260 . S
C940 O947 1.240 . S
C940 O948 1.252 . S
C941 O944 1.252 . S
C941 O945 1.260 . S
O942 In936 2.266 . S
O942 C939 1.252 . S
O943 In936 2.326 . S
O943 C939 1.260 . S
O944 In936 2.266 . S
O944 C941 1.252 . S
O945 In936 2.326 . S
O945 C941 1.260 . S
C946 O937 1.240 . S
C946 O938 1.252 . S
O947 In936 2.294 . S
O947 C940 1.240 . S
O948 In936 2.326 . S
O948 C940 1.252 . S
In949 O950 2.294 . S
In949 O951 2.326 . S
In949 O955 2.266 . S
In949 O956 2.326 . S
In949 O957 2.266 . S
In949 O958 2.326 . S
In949 O960 2.294 . S
In949 O961 2.326 . S
O950 In949 2.294 . S
O950 C959 1.240 . S
O951 In949 2.326 . S
O951 C959 1.252 . S
C952 O955 1.252 . S
C952 O956 1.260 . S
C953 O960 1.240 . S
C953 O961 1.252 . S
C954 O957 1.252 . S
C954 O958 1.260 . S
O955 In949 2.266 . S
O955 C952 1.252 . S
O956 In949 2.326 . S
O956 C952 1.260 . S
O957 In949 2.266 . S
O957 C954 1.252 . S
O958 In949 2.326 . S
O958 C954 1.260 . S
C959 O950 1.240 . S
C959 O951 1.252 . S
O960 In949 2.294 . S
O960 C953 1.240 . S
O961 In949 2.326 . S
O961 C953 1.252 . S
In962 O963 2.294 . S
In962 O964 2.326 . S
In962 O968 2.266 . S
In962 O969 2.326 . S
In962 O970 2.266 . S
In962 O971 2.326 . S
In962 O973 2.294 . S
In962 O974 2.326 . S
O963 In962 2.294 . S
O963 C972 1.240 . S
O964 In962 2.326 . S
O964 C972 1.252 . S
C965 O968 1.252 . S
C965 O969 1.260 . S
C966 O973 1.240 . S
C966 O974 1.252 . S
C967 O970 1.252 . S
C967 O971 1.260 . S
O968 In962 2.266 . S
O968 C965 1.252 . S
O969 In962 2.326 . S
O969 C965 1.260 . S
O970 In962 2.266 . S
O970 C967 1.252 . S
O971 In962 2.326 . S
O971 C967 1.260 . S
C972 O963 1.240 . S
C972 O964 1.252 . S
O973 In962 2.294 . S
O973 C966 1.240 . S
O974 In962 2.326 . S
O974 C966 1.252 . S
In975 O976 2.294 . S
In975 O977 2.326 . S
In975 O981 2.266 . S
In975 O982 2.326 . S
In975 O983 2.266 . S
In975 O984 2.326 . S
In975 O986 2.294 . S
In975 O987 2.326 . S
O976 In975 2.294 . S
O976 C985 1.240 . S
O977 In975 2.326 . S
O977 C985 1.252 . S
C978 O981 1.252 . S
C978 O982 1.260 . S
C979 O986 1.240 . S
C979 O987 1.252 . S
C980 O983 1.252 . S
C980 O984 1.260 . S
O981 In975 2.266 . S
O981 C978 1.252 . S
O982 In975 2.326 . S
O982 C978 1.260 . S
O983 In975 2.266 . S
O983 C980 1.252 . S
O984 In975 2.326 . S
O984 C980 1.260 . S
C985 O976 1.240 . S
C985 O977 1.252 . S
O986 In975 2.294 . S
O986 C979 1.240 . S
O987 In975 2.326 . S
O987 C979 1.252 . S
In988 O989 2.294 . S
In988 O990 2.326 . S
In988 O994 2.266 . S
In988 O995 2.326 . S
In988 O996 2.266 . S
In988 O997 2.326 . S
In988 O999 2.294 . S
In988 O1000 2.326 . S
O989 In988 2.294 . S
O989 C998 1.240 . S
O990 In988 2.326 . S
O990 C998 1.252 . S
C991 O994 1.252 . S
C991 O995 1.260 . S
C992 O999 1.240 . S
C992 O1000 1.252 . S
C993 O996 1.252 . S
C993 O997 1.260 . S
O994 In988 2.266 . S
O994 C991 1.252 . S
O995 In988 2.326 . S
O995 C991 1.260 . S
O996 In988 2.266 . S
O996 C993 1.252 . S
O997 In988 2.326 . S
O997 C993 1.260 . S
C998 O989 1.240 . S
C998 O990 1.252 . S
O999 In988 2.294 . S
O999 C992 1.240 . S
O1000 In988 2.326 . S
O1000 C992 1.252 . S
In1001 O1002 2.294 . S
In1001 O1003 2.326 . S
In1001 O1007 2.266 . S
In1001 O1008 2.326 . S
In1001 O1009 2.266 . S
In1001 O1010 2.326 . S
In1001 O1012 2.294 . S
In1001 O1013 2.326 . S
O1002 In1001 2.294 . S
O1002 C1011 1.240 . S
O1003 In1001 2.326 . S
O1003 C1011 1.252 . S
C1004 O1007 1.252 . S
C1004 O1008 1.260 . S
C1005 O1012 1.240 . S
C1005 O1013 1.252 . S
C1006 O1009 1.252 . S
C1006 O1010 1.260 . S
O1007 In1001 2.266 . S
O1007 C1004 1.252 . S
O1008 In1001 2.326 . S
O1008 C1004 1.260 . S
O1009 In1001 2.266 . S
O1009 C1006 1.252 . S
O1010 In1001 2.326 . S
O1010 C1006 1.260 . S
C1011 O1002 1.240 . S
C1011 O1003 1.252 . S
O1012 In1001 2.294 . S
O1012 C1005 1.240 . S
O1013 In1001 2.326 . S
O1013 C1005 1.252 . S
In1014 O1015 2.294 . S
In1014 O1016 2.326 . S
In1014 O1020 2.266 . S
In1014 O1021 2.326 . S
In1014 O1022 2.266 . S
In1014 O1023 2.326 . S
In1014 O1025 2.294 . S
In1014 O1026 2.326 . S
O1015 In1014 2.294 . S
O1015 C1024 1.240 . S
O1016 In1014 2.326 . S
O1016 C1024 1.252 . S
C1017 O1020 1.252 . S
C1017 O1021 1.260 . S
C1018 O1025 1.240 . S
C1018 O1026 1.252 . S
C1019 O1022 1.252 . S
C1019 O1023 1.260 . S
O1020 In1014 2.266 . S
O1020 C1017 1.252 . S
O1021 In1014 2.326 . S
O1021 C1017 1.260 . S
O1022 In1014 2.266 . S
O1022 C1019 1.252 . S
O1023 In1014 2.326 . S
O1023 C1019 1.260 . S
C1024 O1015 1.240 . S
C1024 O1016 1.252 . S
O1025 In1014 2.294 . S
O1025 C1018 1.240 . S
O1026 In1014 2.326 . S
O1026 C1018 1.252 . S
In1027 O1028 2.294 . S
In1027 O1029 2.326 . S
In1027 O1033 2.266 . S
In1027 O1034 2.326 . S
In1027 O1035 2.266 . S
In1027 O1036 2.326 . S
In1027 O1038 2.294 . S
In1027 O1039 2.326 . S
O1028 In1027 2.294 . S
O1028 C1037 1.240 . S
O1029 In1027 2.326 . S
O1029 C1037 1.252 . S
C1030 O1033 1.252 . S
C1030 O1034 1.260 . S
C1031 O1038 1.240 . S
C1031 O1039 1.252 . S
C1032 O1035 1.252 . S
C1032 O1036 1.260 . S
O1033 In1027 2.266 . S
O1033 C1030 1.252 . S
O1034 In1027 2.326 . S
O1034 C1030 1.260 . S
O1035 In1027 2.266 . S
O1035 C1032 1.252 . S
O1036 In1027 2.326 . S
O1036 C1032 1.260 . S
C1037 O1028 1.240 . S
C1037 O1029 1.252 . S
O1038 In1027 2.294 . S
O1038 C1031 1.240 . S
O1039 In1027 2.326 . S
O1039 C1031 1.252 . S
In1040 O1041 2.294 . S
In1040 O1042 2.326 . S
In1040 O1046 2.266 . S
In1040 O1047 2.326 . S
In1040 O1048 2.266 . S
In1040 O1049 2.326 . S
In1040 O1051 2.294 . S
In1040 O1052 2.326 . S
O1041 In1040 2.294 . S
O1041 C1050 1.240 . S
O1042 In1040 2.326 . S
O1042 C1050 1.252 . S
C1043 O1046 1.252 . S
C1043 O1047 1.260 . S
C1044 O1051 1.240 . S
C1044 O1052 1.252 . S
C1045 O1048 1.252 . S
C1045 O1049 1.260 . S
O1046 In1040 2.266 . S
O1046 C1043 1.252 . S
O1047 In1040 2.326 . S
O1047 C1043 1.260 . S
O1048 In1040 2.266 . S
O1048 C1045 1.252 . S
O1049 In1040 2.326 . S
O1049 C1045 1.260 . S
C1050 O1041 1.240 . S
C1050 O1042 1.252 . S
O1051 In1040 2.294 . S
O1051 C1044 1.240 . S
O1052 In1040 2.326 . S
O1052 C1044 1.252 . S
In1053 O1054 2.294 . S
In1053 O1055 2.326 . S
In1053 O1059 2.266 . S
In1053 O1060 2.326 . S
In1053 O1061 2.266 . S
In1053 O1062 2.326 . S
In1053 O1064 2.294 . S
In1053 O1065 2.326 . S
O1054 In1053 2.294 . S
O1054 C1063 1.240 . S
O1055 In1053 2.326 . S
O1055 C1063 1.252 . S
C1056 O1059 1.252 . S
C1056 O1060 1.260 . S
C1057 O1064 1.240 . S
C1057 O1065 1.252 . S
C1058 O1061 1.252 . S
C1058 O1062 1.260 . S
O1059 In1053 2.266 . S
O1059 C1056 1.252 . S
O1060 In1053 2.326 . S
O1060 C1056 1.260 . S
O1061 In1053 2.266 . S
O1061 C1058 1.252 . S
O1062 In1053 2.326 . S
O1062 C1058 1.260 . S
C1063 O1054 1.240 . S
C1063 O1055 1.252 . S
O1064 In1053 2.294 . S
O1064 C1057 1.240 . S
O1065 In1053 2.326 . S
O1065 C1057 1.252 . S
In1066 O1067 2.294 . S
In1066 O1068 2.326 . S
In1066 O1072 2.266 . S
In1066 O1073 2.326 . S
In1066 O1074 2.266 . S
In1066 O1075 2.326 . S
In1066 O1077 2.294 . S
In1066 O1078 2.326 . S
O1067 In1066 2.294 . S
O1067 C1076 1.240 . S
O1068 In1066 2.326 . S
O1068 C1076 1.252 . S
C1069 O1072 1.252 . S
C1069 O1073 1.260 . S
C1070 O1077 1.240 . S
C1070 O1078 1.252 . S
C1071 O1074 1.252 . S
C1071 O1075 1.260 . S
O1072 In1066 2.266 . S
O1072 C1069 1.252 . S
O1073 In1066 2.326 . S
O1073 C1069 1.260 . S
O1074 In1066 2.266 . S
O1074 C1071 1.252 . S
O1075 In1066 2.326 . S
O1075 C1071 1.260 . S
C1076 O1067 1.240 . S
C1076 O1068 1.252 . S
O1077 In1066 2.294 . S
O1077 C1070 1.240 . S
O1078 In1066 2.326 . S
O1078 C1070 1.252 . S
In1079 O1080 2.294 . S
In1079 O1081 2.326 . S
In1079 O1085 2.266 . S
In1079 O1086 2.326 . S
In1079 O1087 2.266 . S
In1079 O1088 2.326 . S
In1079 O1090 2.294 . S
In1079 O1091 2.326 . S
O1080 In1079 2.294 . S
O1080 C1089 1.240 . S
O1081 In1079 2.326 . S
O1081 C1089 1.252 . S
C1082 O1085 1.252 . S
C1082 O1086 1.260 . S
C1083 O1090 1.240 . S
C1083 O1091 1.252 . S
C1084 O1087 1.252 . S
C1084 O1088 1.260 . S
O1085 In1079 2.266 . S
O1085 C1082 1.252 . S
O1086 In1079 2.326 . S
O1086 C1082 1.260 . S
O1087 In1079 2.266 . S
O1087 C1084 1.252 . S
O1088 In1079 2.326 . S
O1088 C1084 1.260 . S
C1089 O1080 1.240 . S
C1089 O1081 1.252 . S
O1090 In1079 2.294 . S
O1090 C1083 1.240 . S
O1091 In1079 2.326 . S
O1091 C1083 1.252 . S
In1092 O1093 2.294 . S
In1092 O1094 2.326 . S
In1092 O1098 2.266 . S
In1092 O1099 2.326 . S
In1092 O1100 2.266 . S
In1092 O1101 2.326 . S
In1092 O1103 2.294 . S
In1092 O1104 2.326 . S
O1093 In1092 2.294 . S
O1093 C1102 1.240 . S
O1094 In1092 2.326 . S
O1094 C1102 1.252 . S
C1095 O1098 1.252 . S
C1095 O1099 1.260 . S
C1096 O1103 1.240 . S
C1096 O1104 1.252 . S
C1097 O1100 1.252 . S
C1097 O1101 1.260 . S
O1098 In1092 2.266 . S
O1098 C1095 1.252 . S
O1099 In1092 2.326 . S
O1099 C1095 1.260 . S
O1100 In1092 2.266 . S
O1100 C1097 1.252 . S
O1101 In1092 2.326 . S
O1101 C1097 1.260 . S
C1102 O1093 1.240 . S
C1102 O1094 1.252 . S
O1103 In1092 2.294 . S
O1103 C1096 1.240 . S
O1104 In1092 2.326 . S
O1104 C1096 1.252 . S
In1105 O1106 2.294 . S
In1105 O1107 2.326 . S
In1105 O1111 2.266 . S
In1105 O1112 2.326 . S
In1105 O1113 2.266 . S
In1105 O1114 2.326 . S
In1105 O1116 2.294 . S
In1105 O1117 2.326 . S
O1106 In1105 2.294 . S
O1106 C1115 1.240 . S
O1107 In1105 2.326 . S
O1107 C1115 1.252 . S
C1108 O1111 1.252 . S
C1108 O1112 1.260 . S
C1109 O1116 1.240 . S
C1109 O1117 1.252 . S
C1110 O1113 1.252 . S
C1110 O1114 1.260 . S
O1111 In1105 2.266 . S
O1111 C1108 1.252 . S
O1112 In1105 2.326 . S
O1112 C1108 1.260 . S
O1113 In1105 2.266 . S
O1113 C1110 1.252 . S
O1114 In1105 2.326 . S
O1114 C1110 1.260 . S
C1115 O1106 1.240 . S
C1115 O1107 1.252 . S
O1116 In1105 2.294 . S
O1116 C1109 1.240 . S
O1117 In1105 2.326 . S
O1117 C1109 1.252 . S
In1118 O1119 2.294 . S
In1118 O1120 2.326 . S
In1118 O1124 2.266 . S
In1118 O1125 2.326 . S
In1118 O1126 2.266 . S
In1118 O1127 2.326 . S
In1118 O1129 2.294 . S
In1118 O1130 2.326 . S
O1119 In1118 2.294 . S
O1119 C1128 1.240 . S
O1120 In1118 2.326 . S
O1120 C1128 1.252 . S
C1121 O1124 1.252 . S
C1121 O1125 1.260 . S
C1122 O1129 1.240 . S
C1122 O1130 1.252 . S
C1123 O1126 1.252 . S
C1123 O1127 1.260 . S
O1124 In1118 2.266 . S
O1124 C1121 1.252 . S
O1125 In1118 2.326 . S
O1125 C1121 1.260 . S
O1126 In1118 2.266 . S
O1126 C1123 1.252 . S
O1127 In1118 2.326 . S
O1127 C1123 1.260 . S
C1128 O1119 1.240 . S
C1128 O1120 1.252 . S
O1129 In1118 2.294 . S
O1129 C1122 1.240 . S
O1130 In1118 2.326 . S
O1130 C1122 1.252 . S
In1131 O1132 2.294 . S
In1131 O1133 2.326 . S
In1131 O1137 2.266 . S
In1131 O1138 2.326 . S
In1131 O1139 2.266 . S
In1131 O1140 2.326 . S
In1131 O1142 2.294 . S
In1131 O1143 2.326 . S
O1132 In1131 2.294 . S
O1132 C1141 1.240 . S
O1133 In1131 2.326 . S
O1133 C1141 1.252 . S
C1134 O1137 1.252 . S
C1134 O1138 1.260 . S
C1135 O1142 1.240 . S
C1135 O1143 1.252 . S
C1136 O1139 1.252 . S
C1136 O1140 1.260 . S
O1137 In1131 2.266 . S
O1137 C1134 1.252 . S
O1138 In1131 2.326 . S
O1138 C1134 1.260 . S
O1139 In1131 2.266 . S
O1139 C1136 1.252 . S
O1140 In1131 2.326 . S
O1140 C1136 1.260 . S
C1141 O1132 1.240 . S
C1141 O1133 1.252 . S
O1142 In1131 2.294 . S
O1142 C1135 1.240 . S
O1143 In1131 2.326 . S
O1143 C1135 1.252 . S
In1144 O1145 2.294 . S
In1144 O1146 2.326 . S
In1144 O1150 2.266 . S
In1144 O1151 2.326 . S
In1144 O1152 2.266 . S
In1144 O1153 2.326 . S
In1144 O1155 2.294 . S
In1144 O1156 2.326 . S
O1145 In1144 2.294 . S
O1145 C1154 1.240 . S
O1146 In1144 2.326 . S
O1146 C1154 1.252 . S
C1147 O1150 1.252 . S
C1147 O1151 1.260 . S
C1148 O1155 1.240 . S
C1148 O1156 1.252 . S
C1149 O1152 1.252 . S
C1149 O1153 1.260 . S
O1150 In1144 2.266 . S
O1150 C1147 1.252 . S
O1151 In1144 2.326 . S
O1151 C1147 1.260 . S
O1152 In1144 2.266 . S
O1152 C1149 1.252 . S
O1153 In1144 2.326 . S
O1153 C1149 1.260 . S
C1154 O1145 1.240 . S
C1154 O1146 1.252 . S
O1155 In1144 2.294 . S
O1155 C1148 1.240 . S
O1156 In1144 2.326 . S
O1156 C1148 1.252 . S
In1157 O1158 2.294 . S
In1157 O1159 2.326 . S
In1157 O1163 2.266 . S
In1157 O1164 2.326 . S
In1157 O1165 2.266 . S
In1157 O1166 2.326 . S
In1157 O1168 2.294 . S
In1157 O1169 2.326 . S
O1158 In1157 2.294 . S
O1158 C1167 1.240 . S
O1159 In1157 2.326 . S
O1159 C1167 1.252 . S
C1160 O1163 1.252 . S
C1160 O1164 1.260 . S
C1161 O1168 1.240 . S
C1161 O1169 1.252 . S
C1162 O1165 1.252 . S
C1162 O1166 1.260 . S
O1163 In1157 2.266 . S
O1163 C1160 1.252 . S
O1164 In1157 2.326 . S
O1164 C1160 1.260 . S
O1165 In1157 2.266 . S
O1165 C1162 1.252 . S
O1166 In1157 2.326 . S
O1166 C1162 1.260 . S
C1167 O1158 1.240 . S
C1167 O1159 1.252 . S
O1168 In1157 2.294 . S
O1168 C1161 1.240 . S
O1169 In1157 2.326 . S
O1169 C1161 1.252 . S
In1170 O1171 2.294 . S
In1170 O1172 2.326 . S
In1170 O1176 2.266 . S
In1170 O1177 2.326 . S
In1170 O1178 2.266 . S
In1170 O1179 2.326 . S
In1170 O1181 2.294 . S
In1170 O1182 2.326 . S
O1171 In1170 2.294 . S
O1171 C1180 1.240 . S
O1172 In1170 2.326 . S
O1172 C1180 1.252 . S
C1173 O1176 1.252 . S
C1173 O1177 1.260 . S
C1174 O1181 1.240 . S
C1174 O1182 1.252 . S
C1175 O1178 1.252 . S
C1175 O1179 1.260 . S
O1176 In1170 2.266 . S
O1176 C1173 1.252 . S
O1177 In1170 2.326 . S
O1177 C1173 1.260 . S
O1178 In1170 2.266 . S
O1178 C1175 1.252 . S
O1179 In1170 2.326 . S
O1179 C1175 1.260 . S
C1180 O1171 1.240 . S
C1180 O1172 1.252 . S
O1181 In1170 2.294 . S
O1181 C1174 1.240 . S
O1182 In1170 2.326 . S
O1182 C1174 1.252 . S
In1183 O1184 2.294 . S
In1183 O1185 2.326 . S
In1183 O1189 2.266 . S
In1183 O1190 2.326 . S
In1183 O1191 2.266 . S
In1183 O1192 2.326 . S
In1183 O1194 2.294 . S
In1183 O1195 2.326 . S
O1184 In1183 2.294 . S
O1184 C1193 1.240 . S
O1185 In1183 2.326 . S
O1185 C1193 1.252 . S
C1186 O1189 1.252 . S
C1186 O1190 1.260 . S
C1187 O1194 1.240 . S
C1187 O1195 1.252 . S
C1188 O1191 1.252 . S
C1188 O1192 1.260 . S
O1189 In1183 2.266 . S
O1189 C1186 1.252 . S
O1190 In1183 2.326 . S
O1190 C1186 1.260 . S
O1191 In1183 2.266 . S
O1191 C1188 1.252 . S
O1192 In1183 2.326 . S
O1192 C1188 1.260 . S
C1193 O1184 1.240 . S
C1193 O1185 1.252 . S
O1194 In1183 2.294 . S
O1194 C1187 1.240 . S
O1195 In1183 2.326 . S
O1195 C1187 1.252 . S
In1196 O1197 2.294 . S
In1196 O1198 2.326 . S
In1196 O1202 2.266 . S
In1196 O1203 2.326 . S
In1196 O1204 2.266 . S
In1196 O1205 2.326 . S
In1196 O1207 2.294 . S
In1196 O1208 2.326 . S
O1197 In1196 2.294 . S
O1197 C1206 1.240 . S
O1198 In1196 2.326 . S
O1198 C1206 1.252 . S
C1199 O1202 1.252 . S
C1199 O1203 1.260 . S
C1200 O1207 1.240 . S
C1200 O1208 1.252 . S
C1201 O1204 1.252 . S
C1201 O1205 1.260 . S
O1202 In1196 2.266 . S
O1202 C1199 1.252 . S
O1203 In1196 2.326 . S
O1203 C1199 1.260 . S
O1204 In1196 2.266 . S
O1204 C1201 1.252 . S
O1205 In1196 2.326 . S
O1205 C1201 1.260 . S
C1206 O1197 1.240 . S
C1206 O1198 1.252 . S
O1207 In1196 2.294 . S
O1207 C1200 1.240 . S
O1208 In1196 2.326 . S
O1208 C1200 1.252 . S
In1209 O1210 2.294 . S
In1209 O1211 2.326 . S
In1209 O1215 2.266 . S
In1209 O1216 2.326 . S
In1209 O1217 2.266 . S
In1209 O1218 2.326 . S
In1209 O1220 2.294 . S
In1209 O1221 2.326 . S
O1210 In1209 2.294 . S
O1210 C1219 1.240 . S
O1211 In1209 2.326 . S
O1211 C1219 1.252 . S
C1212 O1215 1.252 . S
C1212 O1216 1.260 . S
C1213 O1220 1.240 . S
C1213 O1221 1.252 . S
C1214 O1217 1.252 . S
C1214 O1218 1.260 . S
O1215 In1209 2.266 . S
O1215 C1212 1.252 . S
O1216 In1209 2.326 . S
O1216 C1212 1.260 . S
O1217 In1209 2.266 . S
O1217 C1214 1.252 . S
O1218 In1209 2.326 . S
O1218 C1214 1.260 . S
C1219 O1210 1.240 . S
C1219 O1211 1.252 . S
O1220 In1209 2.294 . S
O1220 C1213 1.240 . S
O1221 In1209 2.326 . S
O1221 C1213 1.252 . S
In1222 O1223 2.294 . S
In1222 O1224 2.326 . S
In1222 O1228 2.266 . S
In1222 O1229 2.326 . S
In1222 O1230 2.266 . S
In1222 O1231 2.326 . S
In1222 O1233 2.294 . S
In1222 O1234 2.326 . S
O1223 In1222 2.294 . S
O1223 C1232 1.240 . S
O1224 In1222 2.326 . S
O1224 C1232 1.252 . S
C1225 O1228 1.252 . S
C1225 O1229 1.260 . S
C1226 O1233 1.240 . S
C1226 O1234 1.252 . S
C1227 O1230 1.252 . S
C1227 O1231 1.260 . S
O1228 In1222 2.266 . S
O1228 C1225 1.252 . S
O1229 In1222 2.326 . S
O1229 C1225 1.260 . S
O1230 In1222 2.266 . S
O1230 C1227 1.252 . S
O1231 In1222 2.326 . S
O1231 C1227 1.260 . S
C1232 O1223 1.240 . S
C1232 O1224 1.252 . S
O1233 In1222 2.294 . S
O1233 C1226 1.240 . S
O1234 In1222 2.326 . S
O1234 C1226 1.252 . S
In1235 O1236 2.294 . S
In1235 O1237 2.326 . S
In1235 O1241 2.266 . S
In1235 O1242 2.326 . S
In1235 O1243 2.266 . S
In1235 O1244 2.326 . S
In1235 O1246 2.294 . S
In1235 O1247 2.326 . S
O1236 In1235 2.294 . S
O1236 C1245 1.240 . S
O1237 In1235 2.326 . S
O1237 C1245 1.252 . S
C1238 O1241 1.252 . S
C1238 O1242 1.260 . S
C1239 O1246 1.240 . S
C1239 O1247 1.252 . S
C1240 O1243 1.252 . S
C1240 O1244 1.260 . S
O1241 In1235 2.266 . S
O1241 C1238 1.252 . S
O1242 In1235 2.326 . S
O1242 C1238 1.260 . S
O1243 In1235 2.266 . S
O1243 C1240 1.252 . S
O1244 In1235 2.326 . S
O1244 C1240 1.260 . S
C1245 O1236 1.240 . S
C1245 O1237 1.252 . S
O1246 In1235 2.294 . S
O1246 C1239 1.240 . S
O1247 In1235 2.326 . S
O1247 C1239 1.252 . S
H1248 C1254 0.930 . S
H1249 C1258 0.930 . S
H1250 C1263 0.929 . S
H1251 C1261 0.929 . S
H1252 C1256 0.929 . S
H1253 C1262 0.929 . S
C1254 H1248 0.930 . S
C1254 C1255 1.367 . S
C1254 C1262 1.378 . S
C1255 C1254 1.367 . S
C1255 C1263 1.433 . S
C1256 H1252 0.929 . S
C1256 C1258 1.378 . S
C1256 C1260 1.350 . S
C1257 C1260 1.463 . S
C1257 C1262 1.350 . S
C1257 N1265 1.427 . S
C1258 H1249 0.930 . S
C1258 C1256 1.378 . S
C1258 C1259 1.367 . S
C1259 C1258 1.367 . S
C1259 C1261 1.433 . S
C1260 C1256 1.350 . S
C1260 C1257 1.463 . S
C1260 N1264 1.427 . S
C1261 H1251 0.929 . S
C1261 C1259 1.433 . S
C1261 N1264 1.384 . S
C1262 H1253 0.929 . S
C1262 C1254 1.378 . S
C1262 C1257 1.350 . S
C1263 H1250 0.929 . S
C1263 C1255 1.433 . S
C1263 N1265 1.384 . S
N1264 C1260 1.427 . S
N1264 C1261 1.384 . S
N1265 C1257 1.427 . S
N1265 C1263 1.384 . S
H1266 C1272 0.930 . S
H1267 C1276 0.930 . S
H1268 C1281 0.929 . S
H1269 C1279 0.929 . S
H1270 C1274 0.929 . S
H1271 C1280 0.929 . S
C1272 H1266 0.930 . S
C1272 C1273 1.367 . S
C1272 C1280 1.378 . S
C1273 C1272 1.367 . S
C1273 C1281 1.433 . S
C1274 H1270 0.929 . S
C1274 C1276 1.378 . S
C1274 C1278 1.350 . S
C1275 C1278 1.463 . S
C1275 C1280 1.350 . S
C1275 N1283 1.427 . S
C1276 H1267 0.930 . S
C1276 C1274 1.378 . S
C1276 C1277 1.367 . S
C1277 C1276 1.367 . S
C1277 C1279 1.433 . S
C1278 C1274 1.350 . S
C1278 C1275 1.463 . S
C1278 N1282 1.427 . S
C1279 H1269 0.929 . S
C1279 C1277 1.433 . S
C1279 N1282 1.384 . S
C1280 H1271 0.929 . S
C1280 C1272 1.378 . S
C1280 C1275 1.350 . S
C1281 H1268 0.929 . S
C1281 C1273 1.433 . S
C1281 N1283 1.384 . S
N1282 C1278 1.427 . S
N1282 C1279 1.384 . S
N1283 C1275 1.427 . S
N1283 C1281 1.384 . S
H1284 C1290 0.930 . S
H1285 C1294 0.930 . S
H1286 C1299 0.929 . S
H1287 C1297 0.929 . S
H1288 C1292 0.929 . S
H1289 C1298 0.929 . S
C1290 H1284 0.930 . S
C1290 C1291 1.367 . S
C1290 C1298 1.378 . S
C1291 C1290 1.367 . S
C1291 C1299 1.433 . S
C1292 H1288 0.929 . S
C1292 C1294 1.378 . S
C1292 C1296 1.350 . S
C1293 C1296 1.463 . S
C1293 C1298 1.350 . S
C1293 N1301 1.427 . S
C1294 H1285 0.930 . S
C1294 C1292 1.378 . S
C1294 C1295 1.367 . S
C1295 C1294 1.367 . S
C1295 C1297 1.433 . S
C1296 C1292 1.350 . S
C1296 C1293 1.463 . S
C1296 N1300 1.427 . S
C1297 H1287 0.929 . S
C1297 C1295 1.433 . S
C1297 N1300 1.384 . S
C1298 H1289 0.929 . S
C1298 C1290 1.378 . S
C1298 C1293 1.350 . S
C1299 H1286 0.929 . S
C1299 C1291 1.433 . S
C1299 N1301 1.384 . S
N1300 C1296 1.427 . S
N1300 C1297 1.384 . S
N1301 C1293 1.427 . S
N1301 C1299 1.384 . S
H1302 C1308 0.930 . S
H1303 C1312 0.930 . S
H1304 C1317 0.929 . S
H1305 C1315 0.929 . S
H1306 C1310 0.929 . S
H1307 C1316 0.929 . S
C1308 H1302 0.930 . S
C1308 C1309 1.367 . S
C1308 C1316 1.378 . S
C1309 C1308 1.367 . S
C1309 C1317 1.433 . S
C1310 H1306 0.929 . S
C1310 C1312 1.378 . S
C1310 C1314 1.350 . S
C1311 C1314 1.463 . S
C1311 C1316 1.350 . S
C1311 N1319 1.427 . S
C1312 H1303 0.930 . S
C1312 C1310 1.378 . S
C1312 C1313 1.367 . S
C1313 C1312 1.367 . S
C1313 C1315 1.433 . S
C1314 C1310 1.350 . S
C1314 C1311 1.463 . S
C1314 N1318 1.427 . S
C1315 H1305 0.929 . S
C1315 C1313 1.433 . S
C1315 N1318 1.384 . S
C1316 H1307 0.929 . S
C1316 C1308 1.378 . S
C1316 C1311 1.350 . S
C1317 H1304 0.929 . S
C1317 C1309 1.433 . S
C1317 N1319 1.384 . S
N1318 C1314 1.427 . S
N1318 C1315 1.384 . S
N1319 C1311 1.427 . S
N1319 C1317 1.384 . S
H1320 C1326 0.930 . S
H1321 C1330 0.930 . S
H1322 C1335 0.929 . S
H1323 C1333 0.929 . S
H1324 C1328 0.929 . S
H1325 C1334 0.929 . S
C1326 H1320 0.930 . S
C1326 C1327 1.367 . S
C1326 C1334 1.378 . S
C1327 C1326 1.367 . S
C1327 C1335 1.433 . S
C1328 H1324 0.929 . S
C1328 C1330 1.378 . S
C1328 C1332 1.350 . S
C1329 C1332 1.463 . S
C1329 C1334 1.350 . S
C1329 N1337 1.427 . S
C1330 H1321 0.930 . S
C1330 C1328 1.378 . S
C1330 C1331 1.367 . S
C1331 C1330 1.367 . S
C1331 C1333 1.433 . S
C1332 C1328 1.350 . S
C1332 C1329 1.463 . S
C1332 N1336 1.427 . S
C1333 H1323 0.929 . S
C1333 C1331 1.433 . S
C1333 N1336 1.384 . S
C1334 H1325 0.929 . S
C1334 C1326 1.378 . S
C1334 C1329 1.350 . S
C1335 H1322 0.929 . S
C1335 C1327 1.433 . S
C1335 N1337 1.384 . S
N1336 C1332 1.427 . S
N1336 C1333 1.384 . S
N1337 C1329 1.427 . S
N1337 C1335 1.384 . S
H1338 C1344 0.930 . S
H1339 C1348 0.930 . S
H1340 C1353 0.929 . S
H1341 C1351 0.929 . S
H1342 C1346 0.929 . S
H1343 C1352 0.929 . S
C1344 H1338 0.930 . S
C1344 C1345 1.367 . S
C1344 C1352 1.378 . S
C1345 C1344 1.367 . S
C1345 C1353 1.433 . S
C1346 H1342 0.929 . S
C1346 C1348 1.378 . S
C1346 C1350 1.350 . S
C1347 C1350 1.463 . S
C1347 C1352 1.350 . S
C1347 N1355 1.427 . S
C1348 H1339 0.930 . S
C1348 C1346 1.378 . S
C1348 C1349 1.367 . S
C1349 C1348 1.367 . S
C1349 C1351 1.433 . S
C1350 C1346 1.350 . S
C1350 C1347 1.463 . S
C1350 N1354 1.427 . S
C1351 H1341 0.929 . S
C1351 C1349 1.433 . S
C1351 N1354 1.384 . S
C1352 H1343 0.929 . S
C1352 C1344 1.378 . S
C1352 C1347 1.350 . S
C1353 H1340 0.929 . S
C1353 C1345 1.433 . S
C1353 N1355 1.384 . S
N1354 C1350 1.427 . S
N1354 C1351 1.384 . S
N1355 C1347 1.427 . S
N1355 C1353 1.384 . S
H1356 C1362 0.930 . S
H1357 C1366 0.930 . S
H1358 C1371 0.929 . S
H1359 C1369 0.929 . S
H1360 C1364 0.929 . S
H1361 C1370 0.929 . S
C1362 H1356 0.930 . S
C1362 C1363 1.367 . S
C1362 C1370 1.378 . S
C1363 C1362 1.367 . S
C1363 C1371 1.433 . S
C1364 H1360 0.929 . S
C1364 C1366 1.378 . S
C1364 C1368 1.350 . S
C1365 C1368 1.463 . S
C1365 C1370 1.350 . S
C1365 N1373 1.427 . S
C1366 H1357 0.930 . S
C1366 C1364 1.378 . S
C1366 C1367 1.367 . S
C1367 C1366 1.367 . S
C1367 C1369 1.433 . S
C1368 C1364 1.350 . S
C1368 C1365 1.463 . S
C1368 N1372 1.427 . S
C1369 H1359 0.929 . S
C1369 C1367 1.433 . S
C1369 N1372 1.384 . S
C1370 H1361 0.929 . S
C1370 C1362 1.378 . S
C1370 C1365 1.350 . S
C1371 H1358 0.929 . S
C1371 C1363 1.433 . S
C1371 N1373 1.384 . S
N1372 C1368 1.427 . S
N1372 C1369 1.384 . S
N1373 C1365 1.427 . S
N1373 C1371 1.384 . S
H1374 C1380 0.930 . S
H1375 C1384 0.930 . S
H1376 C1389 0.929 . S
H1377 C1387 0.929 . S
H1378 C1382 0.929 . S
H1379 C1388 0.929 . S
C1380 H1374 0.930 . S
C1380 C1381 1.367 . S
C1380 C1388 1.378 . S
C1381 C1380 1.367 . S
C1381 C1389 1.433 . S
C1382 H1378 0.929 . S
C1382 C1384 1.378 . S
C1382 C1386 1.350 . S
C1383 C1386 1.463 . S
C1383 C1388 1.350 . S
C1383 N1391 1.427 . S
C1384 H1375 0.930 . S
C1384 C1382 1.378 . S
C1384 C1385 1.367 . S
C1385 C1384 1.367 . S
C1385 C1387 1.433 . S
C1386 C1382 1.350 . S
C1386 C1383 1.463 . S
C1386 N1390 1.427 . S
C1387 H1377 0.929 . S
C1387 C1385 1.433 . S
C1387 N1390 1.384 . S
C1388 H1379 0.929 . S
C1388 C1380 1.378 . S
C1388 C1383 1.350 . S
C1389 H1376 0.929 . S
C1389 C1381 1.433 . S
C1389 N1391 1.384 . S
N1390 C1386 1.427 . S
N1390 C1387 1.384 . S
N1391 C1383 1.427 . S
N1391 C1389 1.384 . S
H1392 C1398 0.930 . S
H1393 C1402 0.930 . S
H1394 C1407 0.929 . S
H1395 C1405 0.929 . S
H1396 C1400 0.929 . S
H1397 C1406 0.929 . S
C1398 H1392 0.930 . S
C1398 C1399 1.367 . S
C1398 C1406 1.378 . S
C1399 C1398 1.367 . S
C1399 C1407 1.433 . S
C1400 H1396 0.929 . S
C1400 C1402 1.378 . S
C1400 C1404 1.350 . S
C1401 C1404 1.463 . S
C1401 C1406 1.350 . S
C1401 N1409 1.427 . S
C1402 H1393 0.930 . S
C1402 C1400 1.378 . S
C1402 C1403 1.367 . S
C1403 C1402 1.367 . S
C1403 C1405 1.433 . S
C1404 C1400 1.350 . S
C1404 C1401 1.463 . S
C1404 N1408 1.427 . S
C1405 H1395 0.929 . S
C1405 C1403 1.433 . S
C1405 N1408 1.384 . S
C1406 H1397 0.929 . S
C1406 C1398 1.378 . S
C1406 C1401 1.350 . S
C1407 H1394 0.929 . S
C1407 C1399 1.433 . S
C1407 N1409 1.384 . S
N1408 C1404 1.427 . S
N1408 C1405 1.384 . S
N1409 C1401 1.427 . S
N1409 C1407 1.384 . S
H1410 C1416 0.930 . S
H1411 C1420 0.930 . S
H1412 C1425 0.929 . S
H1413 C1423 0.929 . S
H1414 C1418 0.929 . S
H1415 C1424 0.929 . S
C1416 H1410 0.930 . S
C1416 C1417 1.367 . S
C1416 C1424 1.378 . S
C1417 C1416 1.367 . S
C1417 C1425 1.433 . S
C1418 H1414 0.929 . S
C1418 C1420 1.378 . S
C1418 C1422 1.350 . S
C1419 C1422 1.463 . S
C1419 C1424 1.350 . S
C1419 N1427 1.427 . S
C1420 H1411 0.930 . S
C1420 C1418 1.378 . S
C1420 C1421 1.367 . S
C1421 C1420 1.367 . S
C1421 C1423 1.433 . S
C1422 C1418 1.350 . S
C1422 C1419 1.463 . S
C1422 N1426 1.427 . S
C1423 H1413 0.929 . S
C1423 C1421 1.433 . S
C1423 N1426 1.384 . S
C1424 H1415 0.929 . S
C1424 C1416 1.378 . S
C1424 C1419 1.350 . S
C1425 H1412 0.929 . S
C1425 C1417 1.433 . S
C1425 N1427 1.384 . S
N1426 C1422 1.427 . S
N1426 C1423 1.384 . S
N1427 C1419 1.427 . S
N1427 C1425 1.384 . S
H1428 C1434 0.930 . S
H1429 C1438 0.930 . S
H1430 C1443 0.929 . S
H1431 C1441 0.929 . S
H1432 C1436 0.929 . S
H1433 C1442 0.929 . S
C1434 H1428 0.930 . S
C1434 C1435 1.367 . S
C1434 C1442 1.378 . S
C1435 C1434 1.367 . S
C1435 C1443 1.433 . S
C1436 H1432 0.929 . S
C1436 C1438 1.378 . S
C1436 C1440 1.350 . S
C1437 C1440 1.463 . S
C1437 C1442 1.350 . S
C1437 N1445 1.427 . S
C1438 H1429 0.930 . S
C1438 C1436 1.378 . S
C1438 C1439 1.367 . S
C1439 C1438 1.367 . S
C1439 C1441 1.433 . S
C1440 C1436 1.350 . S
C1440 C1437 1.463 . S
C1440 N1444 1.427 . S
C1441 H1431 0.929 . S
C1441 C1439 1.433 . S
C1441 N1444 1.384 . S
C1442 H1433 0.929 . S
C1442 C1434 1.378 . S
C1442 C1437 1.350 . S
C1443 H1430 0.929 . S
C1443 C1435 1.433 . S
C1443 N1445 1.384 . S
N1444 C1440 1.427 . S
N1444 C1441 1.384 . S
N1445 C1437 1.427 . S
N1445 C1443 1.384 . S
H1446 C1452 0.930 . S
H1447 C1456 0.930 . S
H1448 C1461 0.929 . S
H1449 C1459 0.929 . S
H1450 C1454 0.929 . S
H1451 C1460 0.929 . S
C1452 H1446 0.930 . S
C1452 C1453 1.367 . S
C1452 C1460 1.378 . S
C1453 C1452 1.367 . S
C1453 C1461 1.433 . S
C1454 H1450 0.929 . S
C1454 C1456 1.378 . S
C1454 C1458 1.350 . S
C1455 C1458 1.463 . S
C1455 C1460 1.350 . S
C1455 N1463 1.427 . S
C1456 H1447 0.930 . S
C1456 C1454 1.378 . S
C1456 C1457 1.367 . S
C1457 C1456 1.367 . S
C1457 C1459 1.433 . S
C1458 C1454 1.350 . S
C1458 C1455 1.463 . S
C1458 N1462 1.427 . S
C1459 H1449 0.929 . S
C1459 C1457 1.433 . S
C1459 N1462 1.384 . S
C1460 H1451 0.929 . S
C1460 C1452 1.378 . S
C1460 C1455 1.350 . S
C1461 H1448 0.929 . S
C1461 C1453 1.433 . S
C1461 N1463 1.384 . S
N1462 C1458 1.427 . S
N1462 C1459 1.384 . S
N1463 C1455 1.427 . S
N1463 C1461 1.384 . S
H1464 C1470 0.930 . S
H1465 C1474 0.930 . S
H1466 C1479 0.929 . S
H1467 C1477 0.929 . S
H1468 C1472 0.929 . S
H1469 C1478 0.929 . S
C1470 H1464 0.930 . S
C1470 C1471 1.367 . S
C1470 C1478 1.378 . S
C1471 C1470 1.367 . S
C1471 C1479 1.433 . S
C1472 H1468 0.929 . S
C1472 C1474 1.378 . S
C1472 C1476 1.350 . S
C1473 C1476 1.463 . S
C1473 C1478 1.350 . S
C1473 N1481 1.427 . S
C1474 H1465 0.930 . S
C1474 C1472 1.378 . S
C1474 C1475 1.367 . S
C1475 C1474 1.367 . S
C1475 C1477 1.433 . S
C1476 C1472 1.350 . S
C1476 C1473 1.463 . S
C1476 N1480 1.427 . S
C1477 H1467 0.929 . S
C1477 C1475 1.433 . S
C1477 N1480 1.384 . S
C1478 H1469 0.929 . S
C1478 C1470 1.378 . S
C1478 C1473 1.350 . S
C1479 H1466 0.929 . S
C1479 C1471 1.433 . S
C1479 N1481 1.384 . S
N1480 C1476 1.427 . S
N1480 C1477 1.384 . S
N1481 C1473 1.427 . S
N1481 C1479 1.384 . S
H1482 C1488 0.930 . S
H1483 C1492 0.930 . S
H1484 C1497 0.929 . S
H1485 C1495 0.929 . S
H1486 C1490 0.929 . S
H1487 C1496 0.929 . S
C1488 H1482 0.930 . S
C1488 C1489 1.367 . S
C1488 C1496 1.378 . S
C1489 C1488 1.367 . S
C1489 C1497 1.433 . S
C1490 H1486 0.929 . S
C1490 C1492 1.378 . S
C1490 C1494 1.350 . S
C1491 C1494 1.463 . S
C1491 C1496 1.350 . S
C1491 N1499 1.427 . S
C1492 H1483 0.930 . S
C1492 C1490 1.378 . S
C1492 C1493 1.367 . S
C1493 C1492 1.367 . S
C1493 C1495 1.433 . S
C1494 C1490 1.350 . S
C1494 C1491 1.463 . S
C1494 N1498 1.427 . S
C1495 H1485 0.929 . S
C1495 C1493 1.433 . S
C1495 N1498 1.384 . S
C1496 H1487 0.929 . S
C1496 C1488 1.378 . S
C1496 C1491 1.350 . S
C1497 H1484 0.929 . S
C1497 C1489 1.433 . S
C1497 N1499 1.384 . S
N1498 C1494 1.427 . S
N1498 C1495 1.384 . S
N1499 C1491 1.427 . S
N1499 C1497 1.384 . S
H1500 C1506 0.930 . S
H1501 C1510 0.930 . S
H1502 C1515 0.929 . S
H1503 C1513 0.929 . S
H1504 C1508 0.929 . S
H1505 C1514 0.929 . S
C1506 H1500 0.930 . S
C1506 C1507 1.367 . S
C1506 C1514 1.378 . S
C1507 C1506 1.367 . S
C1507 C1515 1.433 . S
C1508 H1504 0.929 . S
C1508 C1510 1.378 . S
C1508 C1512 1.350 . S
C1509 C1512 1.463 . S
C1509 C1514 1.350 . S
C1509 N1517 1.427 . S
C1510 H1501 0.930 . S
C1510 C1508 1.378 . S
C1510 C1511 1.367 . S
C1511 C1510 1.367 . S
C1511 C1513 1.433 . S
C1512 C1508 1.350 . S
C1512 C1509 1.463 . S
C1512 N1516 1.427 . S
C1513 H1503 0.929 . S
C1513 C1511 1.433 . S
C1513 N1516 1.384 . S
C1514 H1505 0.929 . S
C1514 C1506 1.378 . S
C1514 C1509 1.350 . S
C1515 H1502 0.929 . S
C1515 C1507 1.433 . S
C1515 N1517 1.384 . S
N1516 C1512 1.427 . S
N1516 C1513 1.384 . S
N1517 C1509 1.427 . S
N1517 C1515 1.384 . S
H1518 C1524 0.930 . S
H1519 C1528 0.930 . S
H1520 C1533 0.929 . S
H1521 C1531 0.929 . S
H1522 C1526 0.929 . S
H1523 C1532 0.929 . S
C1524 H1518 0.930 . S
C1524 C1525 1.367 . S
C1524 C1532 1.378 . S
C1525 C1524 1.367 . S
C1525 C1533 1.433 . S
C1526 H1522 0.929 . S
C1526 C1528 1.378 . S
C1526 C1530 1.350 . S
C1527 C1530 1.463 . S
C1527 C1532 1.350 . S
C1527 N1535 1.427 . S
C1528 H1519 0.930 . S
C1528 C1526 1.378 . S
C1528 C1529 1.367 . S
C1529 C1528 1.367 . S
C1529 C1531 1.433 . S
C1530 C1526 1.350 . S
C1530 C1527 1.463 . S
C1530 N1534 1.427 . S
C1531 H1521 0.929 . S
C1531 C1529 1.433 . S
C1531 N1534 1.384 . S
C1532 H1523 0.929 . S
C1532 C1524 1.378 . S
C1532 C1527 1.350 . S
C1533 H1520 0.929 . S
C1533 C1525 1.433 . S
C1533 N1535 1.384 . S
N1534 C1530 1.427 . S
N1534 C1531 1.384 . S
N1535 C1527 1.427 . S
N1535 C1533 1.384 . S
H1536 C1542 0.930 . S
H1537 C1546 0.930 . S
H1538 C1551 0.929 . S
H1539 C1549 0.929 . S
H1540 C1544 0.929 . S
H1541 C1550 0.929 . S
C1542 H1536 0.930 . S
C1542 C1543 1.367 . S
C1542 C1550 1.378 . S
C1543 C1542 1.367 . S
C1543 C1551 1.433 . S
C1544 H1540 0.929 . S
C1544 C1546 1.378 . S
C1544 C1548 1.350 . S
C1545 C1548 1.463 . S
C1545 C1550 1.350 . S
C1545 N1553 1.427 . S
C1546 H1537 0.930 . S
C1546 C1544 1.378 . S
C1546 C1547 1.367 . S
C1547 C1546 1.367 . S
C1547 C1549 1.433 . S
C1548 C1544 1.350 . S
C1548 C1545 1.463 . S
C1548 N1552 1.427 . S
C1549 H1539 0.929 . S
C1549 C1547 1.433 . S
C1549 N1552 1.384 . S
C1550 H1541 0.929 . S
C1550 C1542 1.378 . S
C1550 C1545 1.350 . S
C1551 H1538 0.929 . S
C1551 C1543 1.433 . S
C1551 N1553 1.384 . S
N1552 C1548 1.427 . S
N1552 C1549 1.384 . S
N1553 C1545 1.427 . S
N1553 C1551 1.384 . S
H1554 C1560 0.930 . S
H1555 C1564 0.930 . S
H1556 C1569 0.929 . S
H1557 C1567 0.929 . S
H1558 C1562 0.929 . S
H1559 C1568 0.929 . S
C1560 H1554 0.930 . S
C1560 C1561 1.367 . S
C1560 C1568 1.378 . S
C1561 C1560 1.367 . S
C1561 C1569 1.433 . S
C1562 H1558 0.929 . S
C1562 C1564 1.378 . S
C1562 C1566 1.350 . S
C1563 C1566 1.463 . S
C1563 C1568 1.350 . S
C1563 N1571 1.427 . S
C1564 H1555 0.930 . S
C1564 C1562 1.378 . S
C1564 C1565 1.367 . S
C1565 C1564 1.367 . S
C1565 C1567 1.433 . S
C1566 C1562 1.350 . S
C1566 C1563 1.463 . S
C1566 N1570 1.427 . S
C1567 H1557 0.929 . S
C1567 C1565 1.433 . S
C1567 N1570 1.384 . S
C1568 H1559 0.929 . S
C1568 C1560 1.378 . S
C1568 C1563 1.350 . S
C1569 H1556 0.929 . S
C1569 C1561 1.433 . S
C1569 N1571 1.384 . S
N1570 C1566 1.427 . S
N1570 C1567 1.384 . S
N1571 C1563 1.427 . S
N1571 C1569 1.384 . S
H1572 C1578 0.930 . S
H1573 C1582 0.930 . S
H1574 C1587 0.929 . S
H1575 C1585 0.929 . S
H1576 C1580 0.929 . S
H1577 C1586 0.929 . S
C1578 H1572 0.930 . S
C1578 C1579 1.367 . S
C1578 C1586 1.378 . S
C1579 C1578 1.367 . S
C1579 C1587 1.433 . S
C1580 H1576 0.929 . S
C1580 C1582 1.378 . S
C1580 C1584 1.350 . S
C1581 C1584 1.463 . S
C1581 C1586 1.350 . S
C1581 N1589 1.427 . S
C1582 H1573 0.930 . S
C1582 C1580 1.378 . S
C1582 C1583 1.367 . S
C1583 C1582 1.367 . S
C1583 C1585 1.433 . S
C1584 C1580 1.350 . S
C1584 C1581 1.463 . S
C1584 N1588 1.427 . S
C1585 H1575 0.929 . S
C1585 C1583 1.433 . S
C1585 N1588 1.384 . S
C1586 H1577 0.929 . S
C1586 C1578 1.378 . S
C1586 C1581 1.350 . S
C1587 H1574 0.929 . S
C1587 C1579 1.433 . S
C1587 N1589 1.384 . S
N1588 C1584 1.427 . S
N1588 C1585 1.384 . S
N1589 C1581 1.427 . S
N1589 C1587 1.384 . S
H1590 C1596 0.930 . S
H1591 C1600 0.930 . S
H1592 C1605 0.929 . S
H1593 C1603 0.929 . S
H1594 C1598 0.929 . S
H1595 C1604 0.929 . S
C1596 H1590 0.930 . S
C1596 C1597 1.367 . S
C1596 C1604 1.378 . S
C1597 C1596 1.367 . S
C1597 C1605 1.433 . S
C1598 H1594 0.929 . S
C1598 C1600 1.378 . S
C1598 C1602 1.350 . S
C1599 C1602 1.463 . S
C1599 C1604 1.350 . S
C1599 N1607 1.427 . S
C1600 H1591 0.930 . S
C1600 C1598 1.378 . S
C1600 C1601 1.367 . S
C1601 C1600 1.367 . S
C1601 C1603 1.433 . S
C1602 C1598 1.350 . S
C1602 C1599 1.463 . S
C1602 N1606 1.427 . S
C1603 H1593 0.929 . S
C1603 C1601 1.433 . S
C1603 N1606 1.384 . S
C1604 H1595 0.929 . S
C1604 C1596 1.378 . S
C1604 C1599 1.350 . S
C1605 H1592 0.929 . S
C1605 C1597 1.433 . S
C1605 N1607 1.384 . S
N1606 C1602 1.427 . S
N1606 C1603 1.384 . S
N1607 C1599 1.427 . S
N1607 C1605 1.384 . S
H1608 C1614 0.930 . S
H1609 C1618 0.930 . S
H1610 C1623 0.929 . S
H1611 C1621 0.929 . S
H1612 C1616 0.929 . S
H1613 C1622 0.929 . S
C1614 H1608 0.930 . S
C1614 C1615 1.367 . S
C1614 C1622 1.378 . S
C1615 C1614 1.367 . S
C1615 C1623 1.433 . S
C1616 H1612 0.929 . S
C1616 C1618 1.378 . S
C1616 C1620 1.350 . S
C1617 C1620 1.463 . S
C1617 C1622 1.350 . S
C1617 N1625 1.427 . S
C1618 H1609 0.930 . S
C1618 C1616 1.378 . S
C1618 C1619 1.367 . S
C1619 C1618 1.367 . S
C1619 C1621 1.433 . S
C1620 C1616 1.350 . S
C1620 C1617 1.463 . S
C1620 N1624 1.427 . S
C1621 H1611 0.929 . S
C1621 C1619 1.433 . S
C1621 N1624 1.384 . S
C1622 H1613 0.929 . S
C1622 C1614 1.378 . S
C1622 C1617 1.350 . S
C1623 H1610 0.929 . S
C1623 C1615 1.433 . S
C1623 N1625 1.384 . S
N1624 C1620 1.427 . S
N1624 C1621 1.384 . S
N1625 C1617 1.427 . S
N1625 C1623 1.384 . S
H1626 C1632 0.930 . S
H1627 C1636 0.930 . S
H1628 C1641 0.929 . S
H1629 C1639 0.929 . S
H1630 C1634 0.929 . S
H1631 C1640 0.929 . S
C1632 H1626 0.930 . S
C1632 C1633 1.367 . S
C1632 C1640 1.378 . S
C1633 C1632 1.367 . S
C1633 C1641 1.433 . S
C1634 H1630 0.929 . S
C1634 C1636 1.378 . S
C1634 C1638 1.350 . S
C1635 C1638 1.463 . S
C1635 C1640 1.350 . S
C1635 N1643 1.427 . S
C1636 H1627 0.930 . S
C1636 C1634 1.378 . S
C1636 C1637 1.367 . S
C1637 C1636 1.367 . S
C1637 C1639 1.433 . S
C1638 C1634 1.350 . S
C1638 C1635 1.463 . S
C1638 N1642 1.427 . S
C1639 H1629 0.929 . S
C1639 C1637 1.433 . S
C1639 N1642 1.384 . S
C1640 H1631 0.929 . S
C1640 C1632 1.378 . S
C1640 C1635 1.350 . S
C1641 H1628 0.929 . S
C1641 C1633 1.433 . S
C1641 N1643 1.384 . S
N1642 C1638 1.427 . S
N1642 C1639 1.384 . S
N1643 C1635 1.427 . S
N1643 C1641 1.384 . S
H1644 C1650 0.930 . S
H1645 C1654 0.930 . S
H1646 C1659 0.929 . S
H1647 C1657 0.929 . S
H1648 C1652 0.929 . S
H1649 C1658 0.929 . S
C1650 H1644 0.930 . S
C1650 C1651 1.367 . S
C1650 C1658 1.378 . S
C1651 C1650 1.367 . S
C1651 C1659 1.433 . S
C1652 H1648 0.929 . S
C1652 C1654 1.378 . S
C1652 C1656 1.350 . S
C1653 C1656 1.463 . S
C1653 C1658 1.350 . S
C1653 N1661 1.427 . S
C1654 H1645 0.930 . S
C1654 C1652 1.378 . S
C1654 C1655 1.367 . S
C1655 C1654 1.367 . S
C1655 C1657 1.433 . S
C1656 C1652 1.350 . S
C1656 C1653 1.463 . S
C1656 N1660 1.427 . S
C1657 H1647 0.929 . S
C1657 C1655 1.433 . S
C1657 N1660 1.384 . S
C1658 H1649 0.929 . S
C1658 C1650 1.378 . S
C1658 C1653 1.350 . S
C1659 H1646 0.929 . S
C1659 C1651 1.433 . S
C1659 N1661 1.384 . S
N1660 C1656 1.427 . S
N1660 C1657 1.384 . S
N1661 C1653 1.427 . S
N1661 C1659 1.384 . S
H1662 C1668 0.930 . S
H1663 C1672 0.930 . S
H1664 C1677 0.929 . S
H1665 C1675 0.929 . S
H1666 C1670 0.929 . S
H1667 C1676 0.929 . S
C1668 H1662 0.930 . S
C1668 C1669 1.367 . S
C1668 C1676 1.378 . S
C1669 C1668 1.367 . S
C1669 C1677 1.433 . S
C1670 H1666 0.929 . S
C1670 C1672 1.378 . S
C1670 C1674 1.350 . S
C1671 C1674 1.463 . S
C1671 C1676 1.350 . S
C1671 N1679 1.427 . S
C1672 H1663 0.930 . S
C1672 C1670 1.378 . S
C1672 C1673 1.367 . S
C1673 C1672 1.367 . S
C1673 C1675 1.433 . S
C1674 C1670 1.350 . S
C1674 C1671 1.463 . S
C1674 N1678 1.427 . S
C1675 H1665 0.929 . S
C1675 C1673 1.433 . S
C1675 N1678 1.384 . S
C1676 H1667 0.929 . S
C1676 C1668 1.378 . S
C1676 C1671 1.350 . S
C1677 H1664 0.929 . S
C1677 C1669 1.433 . S
C1677 N1679 1.384 . S
N1678 C1674 1.427 . S
N1678 C1675 1.384 . S
N1679 C1671 1.427 . S
N1679 C1677 1.384 . S
H1680 C1686 0.930 . S
H1681 C1690 0.930 . S
H1682 C1695 0.929 . S
H1683 C1693 0.929 . S
H1684 C1688 0.929 . S
H1685 C1694 0.929 . S
C1686 H1680 0.930 . S
C1686 C1687 1.367 . S
C1686 C1694 1.378 . S
C1687 C1686 1.367 . S
C1687 C1695 1.433 . S
C1688 H1684 0.929 . S
C1688 C1690 1.378 . S
C1688 C1692 1.350 . S
C1689 C1692 1.463 . S
C1689 C1694 1.350 . S
C1689 N1697 1.427 . S
C1690 H1681 0.930 . S
C1690 C1688 1.378 . S
C1690 C1691 1.367 . S
C1691 C1690 1.367 . S
C1691 C1693 1.433 . S
C1692 C1688 1.350 . S
C1692 C1689 1.463 . S
C1692 N1696 1.427 . S
C1693 H1683 0.929 . S
C1693 C1691 1.433 . S
C1693 N1696 1.384 . S
C1694 H1685 0.929 . S
C1694 C1686 1.378 . S
C1694 C1689 1.350 . S
C1695 H1682 0.929 . S
C1695 C1687 1.433 . S
C1695 N1697 1.384 . S
N1696 C1692 1.427 . S
N1696 C1693 1.384 . S
N1697 C1689 1.427 . S
N1697 C1695 1.384 . S
H1698 C1704 0.930 . S
H1699 C1708 0.930 . S
H1700 C1713 0.929 . S
H1701 C1711 0.929 . S
H1702 C1706 0.929 . S
H1703 C1712 0.929 . S
C1704 H1698 0.930 . S
C1704 C1705 1.367 . S
C1704 C1712 1.378 . S
C1705 C1704 1.367 . S
C1705 C1713 1.433 . S
C1706 H1702 0.929 . S
C1706 C1708 1.378 . S
C1706 C1710 1.350 . S
C1707 C1710 1.463 . S
C1707 C1712 1.350 . S
C1707 N1715 1.427 . S
C1708 H1699 0.930 . S
C1708 C1706 1.378 . S
C1708 C1709 1.367 . S
C1709 C1708 1.367 . S
C1709 C1711 1.433 . S
C1710 C1706 1.350 . S
C1710 C1707 1.463 . S
C1710 N1714 1.427 . S
C1711 H1701 0.929 . S
C1711 C1709 1.433 . S
C1711 N1714 1.384 . S
C1712 H1703 0.929 . S
C1712 C1704 1.378 . S
C1712 C1707 1.350 . S
C1713 H1700 0.929 . S
C1713 C1705 1.433 . S
C1713 N1715 1.384 . S
N1714 C1710 1.427 . S
N1714 C1711 1.384 . S
N1715 C1707 1.427 . S
N1715 C1713 1.384 . S
H1716 C1722 0.930 . S
H1717 C1726 0.930 . S
H1718 C1731 0.929 . S
H1719 C1729 0.929 . S
H1720 C1724 0.929 . S
H1721 C1730 0.929 . S
C1722 H1716 0.930 . S
C1722 C1723 1.367 . S
C1722 C1730 1.378 . S
C1723 C1722 1.367 . S
C1723 C1731 1.433 . S
C1724 H1720 0.929 . S
C1724 C1726 1.378 . S
C1724 C1728 1.350 . S
C1725 C1728 1.463 . S
C1725 C1730 1.350 . S
C1725 N1733 1.427 . S
C1726 H1717 0.930 . S
C1726 C1724 1.378 . S
C1726 C1727 1.367 . S
C1727 C1726 1.367 . S
C1727 C1729 1.433 . S
C1728 C1724 1.350 . S
C1728 C1725 1.463 . S
C1728 N1732 1.427 . S
C1729 H1719 0.929 . S
C1729 C1727 1.433 . S
C1729 N1732 1.384 . S
C1730 H1721 0.929 . S
C1730 C1722 1.378 . S
C1730 C1725 1.350 . S
C1731 H1718 0.929 . S
C1731 C1723 1.433 . S
C1731 N1733 1.384 . S
N1732 C1728 1.427 . S
N1732 C1729 1.384 . S
N1733 C1725 1.427 . S
N1733 C1731 1.384 . S
H1734 C1740 0.930 . S
H1735 C1744 0.930 . S
H1736 C1749 0.929 . S
H1737 C1747 0.929 . S
H1738 C1742 0.929 . S
H1739 C1748 0.929 . S
C1740 H1734 0.930 . S
C1740 C1741 1.367 . S
C1740 C1748 1.378 . S
C1741 C1740 1.367 . S
C1741 C1749 1.433 . S
C1742 H1738 0.929 . S
C1742 C1744 1.378 . S
C1742 C1746 1.350 . S
C1743 C1746 1.463 . S
C1743 C1748 1.350 . S
C1743 N1751 1.427 . S
C1744 H1735 0.930 . S
C1744 C1742 1.378 . S
C1744 C1745 1.367 . S
C1745 C1744 1.367 . S
C1745 C1747 1.433 . S
C1746 C1742 1.350 . S
C1746 C1743 1.463 . S
C1746 N1750 1.427 . S
C1747 H1737 0.929 . S
C1747 C1745 1.433 . S
C1747 N1750 1.384 . S
C1748 H1739 0.929 . S
C1748 C1740 1.378 . S
C1748 C1743 1.350 . S
C1749 H1736 0.929 . S
C1749 C1741 1.433 . S
C1749 N1751 1.384 . S
N1750 C1746 1.427 . S
N1750 C1747 1.384 . S
N1751 C1743 1.427 . S
N1751 C1749 1.384 . S
H1752 C1758 0.930 . S
H1753 C1762 0.930 . S
H1754 C1767 0.929 . S
H1755 C1765 0.929 . S
H1756 C1760 0.929 . S
H1757 C1766 0.929 . S
C1758 H1752 0.930 . S
C1758 C1759 1.367 . S
C1758 C1766 1.378 . S
C1759 C1758 1.367 . S
C1759 C1767 1.433 . S
C1760 H1756 0.929 . S
C1760 C1762 1.378 . S
C1760 C1764 1.350 . S
C1761 C1764 1.463 . S
C1761 C1766 1.350 . S
C1761 N1769 1.427 . S
C1762 H1753 0.930 . S
C1762 C1760 1.378 . S
C1762 C1763 1.367 . S
C1763 C1762 1.367 . S
C1763 C1765 1.433 . S
C1764 C1760 1.350 . S
C1764 C1761 1.463 . S
C1764 N1768 1.427 . S
C1765 H1755 0.929 . S
C1765 C1763 1.433 . S
C1765 N1768 1.384 . S
C1766 H1757 0.929 . S
C1766 C1758 1.378 . S
C1766 C1761 1.350 . S
C1767 H1754 0.929 . S
C1767 C1759 1.433 . S
C1767 N1769 1.384 . S
N1768 C1764 1.427 . S
N1768 C1765 1.384 . S
N1769 C1761 1.427 . S
N1769 C1767 1.384 . S
H1770 C1776 0.930 . S
H1771 C1780 0.930 . S
H1772 C1785 0.929 . S
H1773 C1783 0.929 . S
H1774 C1778 0.929 . S
H1775 C1784 0.929 . S
C1776 H1770 0.930 . S
C1776 C1777 1.367 . S
C1776 C1784 1.378 . S
C1777 C1776 1.367 . S
C1777 C1785 1.433 . S
C1778 H1774 0.929 . S
C1778 C1780 1.378 . S
C1778 C1782 1.350 . S
C1779 C1782 1.463 . S
C1779 C1784 1.350 . S
C1779 N1787 1.427 . S
C1780 H1771 0.930 . S
C1780 C1778 1.378 . S
C1780 C1781 1.367 . S
C1781 C1780 1.367 . S
C1781 C1783 1.433 . S
C1782 C1778 1.350 . S
C1782 C1779 1.463 . S
C1782 N1786 1.427 . S
C1783 H1773 0.929 . S
C1783 C1781 1.433 . S
C1783 N1786 1.384 . S
C1784 H1775 0.929 . S
C1784 C1776 1.378 . S
C1784 C1779 1.350 . S
C1785 H1772 0.929 . S
C1785 C1777 1.433 . S
C1785 N1787 1.384 . S
N1786 C1782 1.427 . S
N1786 C1783 1.384 . S
N1787 C1779 1.427 . S
N1787 C1785 1.384 . S
H1788 C1794 0.930 . S
H1789 C1798 0.930 . S
H1790 C1803 0.929 . S
H1791 C1801 0.929 . S
H1792 C1796 0.929 . S
H1793 C1802 0.929 . S
C1794 H1788 0.930 . S
C1794 C1795 1.367 . S
C1794 C1802 1.378 . S
C1795 C1794 1.367 . S
C1795 C1803 1.433 . S
C1796 H1792 0.929 . S
C1796 C1798 1.378 . S
C1796 C1800 1.350 . S
C1797 C1800 1.463 . S
C1797 C1802 1.350 . S
C1797 N1805 1.427 . S
C1798 H1789 0.930 . S
C1798 C1796 1.378 . S
C1798 C1799 1.367 . S
C1799 C1798 1.367 . S
C1799 C1801 1.433 . S
C1800 C1796 1.350 . S
C1800 C1797 1.463 . S
C1800 N1804 1.427 . S
C1801 H1791 0.929 . S
C1801 C1799 1.433 . S
C1801 N1804 1.384 . S
C1802 H1793 0.929 . S
C1802 C1794 1.378 . S
C1802 C1797 1.350 . S
C1803 H1790 0.929 . S
C1803 C1795 1.433 . S
C1803 N1805 1.384 . S
N1804 C1800 1.427 . S
N1804 C1801 1.384 . S
N1805 C1797 1.427 . S
N1805 C1803 1.384 . S
H1806 C1812 0.930 . S
H1807 C1816 0.930 . S
H1808 C1821 0.929 . S
H1809 C1819 0.929 . S
H1810 C1814 0.929 . S
H1811 C1820 0.929 . S
C1812 H1806 0.930 . S
C1812 C1813 1.367 . S
C1812 C1820 1.378 . S
C1813 C1812 1.367 . S
C1813 C1821 1.433 . S
C1814 H1810 0.929 . S
C1814 C1816 1.378 . S
C1814 C1818 1.350 . S
C1815 C1818 1.463 . S
C1815 C1820 1.350 . S
C1815 N1823 1.427 . S
C1816 H1807 0.930 . S
C1816 C1814 1.378 . S
C1816 C1817 1.367 . S
C1817 C1816 1.367 . S
C1817 C1819 1.433 . S
C1818 C1814 1.350 . S
C1818 C1815 1.463 . S
C1818 N1822 1.427 . S
C1819 H1809 0.929 . S
C1819 C1817 1.433 . S
C1819 N1822 1.384 . S
C1820 H1811 0.929 . S
C1820 C1812 1.378 . S
C1820 C1815 1.350 . S
C1821 H1808 0.929 . S
C1821 C1813 1.433 . S
C1821 N1823 1.384 . S
N1822 C1818 1.427 . S
N1822 C1819 1.384 . S
N1823 C1815 1.427 . S
N1823 C1821 1.384 . S
H1824 C1830 0.930 . S
H1825 C1834 0.930 . S
H1826 C1839 0.929 . S
H1827 C1837 0.929 . S
H1828 C1832 0.929 . S
H1829 C1838 0.929 . S
C1830 H1824 0.930 . S
C1830 C1831 1.367 . S
C1830 C1838 1.378 . S
C1831 C1830 1.367 . S
C1831 C1839 1.433 . S
C1832 H1828 0.929 . S
C1832 C1834 1.378 . S
C1832 C1836 1.350 . S
C1833 C1836 1.463 . S
C1833 C1838 1.350 . S
C1833 N1841 1.427 . S
C1834 H1825 0.930 . S
C1834 C1832 1.378 . S
C1834 C1835 1.367 . S
C1835 C1834 1.367 . S
C1835 C1837 1.433 . S
C1836 C1832 1.350 . S
C1836 C1833 1.463 . S
C1836 N1840 1.427 . S
C1837 H1827 0.929 . S
C1837 C1835 1.433 . S
C1837 N1840 1.384 . S
C1838 H1829 0.929 . S
C1838 C1830 1.378 . S
C1838 C1833 1.350 . S
C1839 H1826 0.929 . S
C1839 C1831 1.433 . S
C1839 N1841 1.384 . S
N1840 C1836 1.427 . S
N1840 C1837 1.384 . S
N1841 C1833 1.427 . S
N1841 C1839 1.384 . S
H1842 C1848 0.930 . S
H1843 C1852 0.930 . S
H1844 C1857 0.929 . S
H1845 C1855 0.929 . S
H1846 C1850 0.929 . S
H1847 C1856 0.929 . S
C1848 H1842 0.930 . S
C1848 C1849 1.367 . S
C1848 C1856 1.378 . S
C1849 C1848 1.367 . S
C1849 C1857 1.433 . S
C1850 H1846 0.929 . S
C1850 C1852 1.378 . S
C1850 C1854 1.350 . S
C1851 C1854 1.463 . S
C1851 C1856 1.350 . S
C1851 N1859 1.427 . S
C1852 H1843 0.930 . S
C1852 C1850 1.378 . S
C1852 C1853 1.367 . S
C1853 C1852 1.367 . S
C1853 C1855 1.433 . S
C1854 C1850 1.350 . S
C1854 C1851 1.463 . S
C1854 N1858 1.427 . S
C1855 H1845 0.929 . S
C1855 C1853 1.433 . S
C1855 N1858 1.384 . S
C1856 H1847 0.929 . S
C1856 C1848 1.378 . S
C1856 C1851 1.350 . S
C1857 H1844 0.929 . S
C1857 C1849 1.433 . S
C1857 N1859 1.384 . S
N1858 C1854 1.427 . S
N1858 C1855 1.384 . S
N1859 C1851 1.427 . S
N1859 C1857 1.384 . S
H1860 C1866 0.930 . S
H1861 C1870 0.930 . S
H1862 C1875 0.929 . S
H1863 C1873 0.929 . S
H1864 C1868 0.929 . S
H1865 C1874 0.929 . S
C1866 H1860 0.930 . S
C1866 C1867 1.367 . S
C1866 C1874 1.378 . S
C1867 C1866 1.367 . S
C1867 C1875 1.433 . S
C1868 H1864 0.929 . S
C1868 C1870 1.378 . S
C1868 C1872 1.350 . S
C1869 C1872 1.463 . S
C1869 C1874 1.350 . S
C1869 N1877 1.427 . S
C1870 H1861 0.930 . S
C1870 C1868 1.378 . S
C1870 C1871 1.367 . S
C1871 C1870 1.367 . S
C1871 C1873 1.433 . S
C1872 C1868 1.350 . S
C1872 C1869 1.463 . S
C1872 N1876 1.427 . S
C1873 H1863 0.929 . S
C1873 C1871 1.433 . S
C1873 N1876 1.384 . S
C1874 H1865 0.929 . S
C1874 C1866 1.378 . S
C1874 C1869 1.350 . S
C1875 H1862 0.929 . S
C1875 C1867 1.433 . S
C1875 N1877 1.384 . S
N1876 C1872 1.427 . S
N1876 C1873 1.384 . S
N1877 C1869 1.427 . S
N1877 C1875 1.384 . S
H1878 C1884 0.930 . S
H1879 C1888 0.930 . S
H1880 C1893 0.929 . S
H1881 C1891 0.929 . S
H1882 C1886 0.929 . S
H1883 C1892 0.929 . S
C1884 H1878 0.930 . S
C1884 C1885 1.367 . S
C1884 C1892 1.378 . S
C1885 C1884 1.367 . S
C1885 C1893 1.433 . S
C1886 H1882 0.929 . S
C1886 C1888 1.378 . S
C1886 C1890 1.350 . S
C1887 C1890 1.463 . S
C1887 C1892 1.350 . S
C1887 N1895 1.427 . S
C1888 H1879 0.930 . S
C1888 C1886 1.378 . S
C1888 C1889 1.367 . S
C1889 C1888 1.367 . S
C1889 C1891 1.433 . S
C1890 C1886 1.350 . S
C1890 C1887 1.463 . S
C1890 N1894 1.427 . S
C1891 H1881 0.929 . S
C1891 C1889 1.433 . S
C1891 N1894 1.384 . S
C1892 H1883 0.929 . S
C1892 C1884 1.378 . S
C1892 C1887 1.350 . S
C1893 H1880 0.929 . S
C1893 C1885 1.433 . S
C1893 N1895 1.384 . S
N1894 C1890 1.427 . S
N1894 C1891 1.384 . S
N1895 C1887 1.427 . S
N1895 C1893 1.384 . S
H1896 C1902 0.930 . S
H1897 C1906 0.930 . S
H1898 C1911 0.929 . S
H1899 C1909 0.929 . S
H1900 C1904 0.929 . S
H1901 C1910 0.929 . S
C1902 H1896 0.930 . S
C1902 C1903 1.367 . S
C1902 C1910 1.378 . S
C1903 C1902 1.367 . S
C1903 C1911 1.433 . S
C1904 H1900 0.929 . S
C1904 C1906 1.378 . S
C1904 C1908 1.350 . S
C1905 C1908 1.463 . S
C1905 C1910 1.350 . S
C1905 N1913 1.427 . S
C1906 H1897 0.930 . S
C1906 C1904 1.378 . S
C1906 C1907 1.367 . S
C1907 C1906 1.367 . S
C1907 C1909 1.433 . S
C1908 C1904 1.350 . S
C1908 C1905 1.463 . S
C1908 N1912 1.427 . S
C1909 H1899 0.929 . S
C1909 C1907 1.433 . S
C1909 N1912 1.384 . S
C1910 H1901 0.929 . S
C1910 C1902 1.378 . S
C1910 C1905 1.350 . S
C1911 H1898 0.929 . S
C1911 C1903 1.433 . S
C1911 N1913 1.384 . S
N1912 C1908 1.427 . S
N1912 C1909 1.384 . S
N1913 C1905 1.427 . S
N1913 C1911 1.384 . S
H1914 C1920 0.930 . S
H1915 C1924 0.930 . S
H1916 C1929 0.929 . S
H1917 C1927 0.929 . S
H1918 C1922 0.929 . S
H1919 C1928 0.929 . S
C1920 H1914 0.930 . S
C1920 C1921 1.367 . S
C1920 C1928 1.378 . S
C1921 C1920 1.367 . S
C1921 C1929 1.433 . S
C1922 H1918 0.929 . S
C1922 C1924 1.378 . S
C1922 C1926 1.350 . S
C1923 C1926 1.463 . S
C1923 C1928 1.350 . S
C1923 N1931 1.427 . S
C1924 H1915 0.930 . S
C1924 C1922 1.378 . S
C1924 C1925 1.367 . S
C1925 C1924 1.367 . S
C1925 C1927 1.433 . S
C1926 C1922 1.350 . S
C1926 C1923 1.463 . S
C1926 N1930 1.427 . S
C1927 H1917 0.929 . S
C1927 C1925 1.433 . S
C1927 N1930 1.384 . S
C1928 H1919 0.929 . S
C1928 C1920 1.378 . S
C1928 C1923 1.350 . S
C1929 H1916 0.929 . S
C1929 C1921 1.433 . S
C1929 N1931 1.384 . S
N1930 C1926 1.427 . S
N1930 C1927 1.384 . S
N1931 C1923 1.427 . S
N1931 C1929 1.384 . S
H1932 C1938 0.930 . S
H1933 C1942 0.930 . S
H1934 C1947 0.929 . S
H1935 C1945 0.929 . S
H1936 C1940 0.929 . S
H1937 C1946 0.929 . S
C1938 H1932 0.930 . S
C1938 C1939 1.367 . S
C1938 C1946 1.378 . S
C1939 C1938 1.367 . S
C1939 C1947 1.433 . S
C1940 H1936 0.929 . S
C1940 C1942 1.378 . S
C1940 C1944 1.350 . S
C1941 C1944 1.463 . S
C1941 C1946 1.350 . S
C1941 N1949 1.427 . S
C1942 H1933 0.930 . S
C1942 C1940 1.378 . S
C1942 C1943 1.367 . S
C1943 C1942 1.367 . S
C1943 C1945 1.433 . S
C1944 C1940 1.350 . S
C1944 C1941 1.463 . S
C1944 N1948 1.427 . S
C1945 H1935 0.929 . S
C1945 C1943 1.433 . S
C1945 N1948 1.384 . S
C1946 H1937 0.929 . S
C1946 C1938 1.378 . S
C1946 C1941 1.350 . S
C1947 H1934 0.929 . S
C1947 C1939 1.433 . S
C1947 N1949 1.384 . S
N1948 C1944 1.427 . S
N1948 C1945 1.384 . S
N1949 C1941 1.427 . S
N1949 C1947 1.384 . S
H1950 C1956 0.930 . S
H1951 C1960 0.930 . S
H1952 C1965 0.929 . S
H1953 C1963 0.929 . S
H1954 C1958 0.929 . S
H1955 C1964 0.929 . S
C1956 H1950 0.930 . S
C1956 C1957 1.367 . S
C1956 C1964 1.378 . S
C1957 C1956 1.367 . S
C1957 C1965 1.433 . S
C1958 H1954 0.929 . S
C1958 C1960 1.378 . S
C1958 C1962 1.350 . S
C1959 C1962 1.463 . S
C1959 C1964 1.350 . S
C1959 N1967 1.427 . S
C1960 H1951 0.930 . S
C1960 C1958 1.378 . S
C1960 C1961 1.367 . S
C1961 C1960 1.367 . S
C1961 C1963 1.433 . S
C1962 C1958 1.350 . S
C1962 C1959 1.463 . S
C1962 N1966 1.427 . S
C1963 H1953 0.929 . S
C1963 C1961 1.433 . S
C1963 N1966 1.384 . S
C1964 H1955 0.929 . S
C1964 C1956 1.378 . S
C1964 C1959 1.350 . S
C1965 H1952 0.929 . S
C1965 C1957 1.433 . S
C1965 N1967 1.384 . S
N1966 C1962 1.427 . S
N1966 C1963 1.384 . S
N1967 C1959 1.427 . S
N1967 C1965 1.384 . S
H1968 C1974 0.930 . S
H1969 C1978 0.930 . S
H1970 C1983 0.929 . S
H1971 C1981 0.929 . S
H1972 C1976 0.929 . S
H1973 C1982 0.929 . S
C1974 H1968 0.930 . S
C1974 C1975 1.367 . S
C1974 C1982 1.378 . S
C1975 C1974 1.367 . S
C1975 C1983 1.433 . S
C1976 H1972 0.929 . S
C1976 C1978 1.378 . S
C1976 C1980 1.350 . S
C1977 C1980 1.463 . S
C1977 C1982 1.350 . S
C1977 N1985 1.427 . S
C1978 H1969 0.930 . S
C1978 C1976 1.378 . S
C1978 C1979 1.367 . S
C1979 C1978 1.367 . S
C1979 C1981 1.433 . S
C1980 C1976 1.350 . S
C1980 C1977 1.463 . S
C1980 N1984 1.427 . S
C1981 H1971 0.929 . S
C1981 C1979 1.433 . S
C1981 N1984 1.384 . S
C1982 H1973 0.929 . S
C1982 C1974 1.378 . S
C1982 C1977 1.350 . S
C1983 H1970 0.929 . S
C1983 C1975 1.433 . S
C1983 N1985 1.384 . S
N1984 C1980 1.427 . S
N1984 C1981 1.384 . S
N1985 C1977 1.427 . S
N1985 C1983 1.384 . S
H1986 C1992 0.930 . S
H1987 C1996 0.930 . S
H1988 C2001 0.929 . S
H1989 C1999 0.929 . S
H1990 C1994 0.929 . S
H1991 C2000 0.929 . S
C1992 H1986 0.930 . S
C1992 C1993 1.367 . S
C1992 C2000 1.378 . S
C1993 C1992 1.367 . S
C1993 C2001 1.433 . S
C1994 H1990 0.929 . S
C1994 C1996 1.378 . S
C1994 C1998 1.350 . S
C1995 C1998 1.463 . S
C1995 C2000 1.350 . S
C1995 N2003 1.427 . S
C1996 H1987 0.930 . S
C1996 C1994 1.378 . S
C1996 C1997 1.367 . S
C1997 C1996 1.367 . S
C1997 C1999 1.433 . S
C1998 C1994 1.350 . S
C1998 C1995 1.463 . S
C1998 N2002 1.427 . S
C1999 H1989 0.929 . S
C1999 C1997 1.433 . S
C1999 N2002 1.384 . S
C2000 H1991 0.929 . S
C2000 C1992 1.378 . S
C2000 C1995 1.350 . S
C2001 H1988 0.929 . S
C2001 C1993 1.433 . S
C2001 N2003 1.384 . S
N2002 C1998 1.427 . S
N2002 C1999 1.384 . S
N2003 C1995 1.427 . S
N2003 C2001 1.384 . S
H2004 C2010 0.930 . S
H2005 C2014 0.930 . S
H2006 C2019 0.929 . S
H2007 C2017 0.929 . S
H2008 C2012 0.929 . S
H2009 C2018 0.929 . S
C2010 H2004 0.930 . S
C2010 C2011 1.367 . S
C2010 C2018 1.378 . S
C2011 C2010 1.367 . S
C2011 C2019 1.433 . S
C2012 H2008 0.929 . S
C2012 C2014 1.378 . S
C2012 C2016 1.350 . S
C2013 C2016 1.463 . S
C2013 C2018 1.350 . S
C2013 N2021 1.427 . S
C2014 H2005 0.930 . S
C2014 C2012 1.378 . S
C2014 C2015 1.367 . S
C2015 C2014 1.367 . S
C2015 C2017 1.433 . S
C2016 C2012 1.350 . S
C2016 C2013 1.463 . S
C2016 N2020 1.427 . S
C2017 H2007 0.929 . S
C2017 C2015 1.433 . S
C2017 N2020 1.384 . S
C2018 H2009 0.929 . S
C2018 C2010 1.378 . S
C2018 C2013 1.350 . S
C2019 H2006 0.929 . S
C2019 C2011 1.433 . S
C2019 N2021 1.384 . S
N2020 C2016 1.427 . S
N2020 C2017 1.384 . S
N2021 C2013 1.427 . S
N2021 C2019 1.384 . S
H2022 C2028 0.930 . S
H2023 C2032 0.930 . S
H2024 C2037 0.929 . S
H2025 C2035 0.929 . S
H2026 C2030 0.929 . S
H2027 C2036 0.929 . S
C2028 H2022 0.930 . S
C2028 C2029 1.367 . S
C2028 C2036 1.378 . S
C2029 C2028 1.367 . S
C2029 C2037 1.433 . S
C2030 H2026 0.929 . S
C2030 C2032 1.378 . S
C2030 C2034 1.350 . S
C2031 C2034 1.463 . S
C2031 C2036 1.350 . S
C2031 N2039 1.427 . S
C2032 H2023 0.930 . S
C2032 C2030 1.378 . S
C2032 C2033 1.367 . S
C2033 C2032 1.367 . S
C2033 C2035 1.433 . S
C2034 C2030 1.350 . S
C2034 C2031 1.463 . S
C2034 N2038 1.427 . S
C2035 H2025 0.929 . S
C2035 C2033 1.433 . S
C2035 N2038 1.384 . S
C2036 H2027 0.929 . S
C2036 C2028 1.378 . S
C2036 C2031 1.350 . S
C2037 H2024 0.929 . S
C2037 C2029 1.433 . S
C2037 N2039 1.384 . S
N2038 C2034 1.427 . S
N2038 C2035 1.384 . S
N2039 C2031 1.427 . S
N2039 C2037 1.384 . S
H2040 C2046 0.930 . S
H2041 C2050 0.930 . S
H2042 C2055 0.929 . S
H2043 C2053 0.929 . S
H2044 C2048 0.929 . S
H2045 C2054 0.929 . S
C2046 H2040 0.930 . S
C2046 C2047 1.367 . S
C2046 C2054 1.378 . S
C2047 C2046 1.367 . S
C2047 C2055 1.433 . S
C2048 H2044 0.929 . S
C2048 C2050 1.378 . S
C2048 C2052 1.350 . S
C2049 C2052 1.463 . S
C2049 C2054 1.350 . S
C2049 N2057 1.427 . S
C2050 H2041 0.930 . S
C2050 C2048 1.378 . S
C2050 C2051 1.367 . S
C2051 C2050 1.367 . S
C2051 C2053 1.433 . S
C2052 C2048 1.350 . S
C2052 C2049 1.463 . S
C2052 N2056 1.427 . S
C2053 H2043 0.929 . S
C2053 C2051 1.433 . S
C2053 N2056 1.384 . S
C2054 H2045 0.929 . S
C2054 C2046 1.378 . S
C2054 C2049 1.350 . S
C2055 H2042 0.929 . S
C2055 C2047 1.433 . S
C2055 N2057 1.384 . S
N2056 C2052 1.427 . S
N2056 C2053 1.384 . S
N2057 C2049 1.427 . S
N2057 C2055 1.384 . S
H2058 C2064 0.930 . S
H2059 C2068 0.930 . S
H2060 C2073 0.929 . S
H2061 C2071 0.929 . S
H2062 C2066 0.929 . S
H2063 C2072 0.929 . S
C2064 H2058 0.930 . S
C2064 C2065 1.367 . S
C2064 C2072 1.378 . S
C2065 C2064 1.367 . S
C2065 C2073 1.433 . S
C2066 H2062 0.929 . S
C2066 C2068 1.378 . S
C2066 C2070 1.350 . S
C2067 C2070 1.463 . S
C2067 C2072 1.350 . S
C2067 N2075 1.427 . S
C2068 H2059 0.930 . S
C2068 C2066 1.378 . S
C2068 C2069 1.367 . S
C2069 C2068 1.367 . S
C2069 C2071 1.433 . S
C2070 C2066 1.350 . S
C2070 C2067 1.463 . S
C2070 N2074 1.427 . S
C2071 H2061 0.929 . S
C2071 C2069 1.433 . S
C2071 N2074 1.384 . S
C2072 H2063 0.929 . S
C2072 C2064 1.378 . S
C2072 C2067 1.350 . S
C2073 H2060 0.929 . S
C2073 C2065 1.433 . S
C2073 N2075 1.384 . S
N2074 C2070 1.427 . S
N2074 C2071 1.384 . S
N2075 C2067 1.427 . S
N2075 C2073 1.384 . S
H2076 C2082 0.930 . S
H2077 C2086 0.930 . S
H2078 C2091 0.929 . S
H2079 C2089 0.929 . S
H2080 C2084 0.929 . S
H2081 C2090 0.929 . S
C2082 H2076 0.930 . S
C2082 C2083 1.367 . S
C2082 C2090 1.378 . S
C2083 C2082 1.367 . S
C2083 C2091 1.433 . S
C2084 H2080 0.929 . S
C2084 C2086 1.378 . S
C2084 C2088 1.350 . S
C2085 C2088 1.463 . S
C2085 C2090 1.350 . S
C2085 N2093 1.427 . S
C2086 H2077 0.930 . S
C2086 C2084 1.378 . S
C2086 C2087 1.367 . S
C2087 C2086 1.367 . S
C2087 C2089 1.433 . S
C2088 C2084 1.350 . S
C2088 C2085 1.463 . S
C2088 N2092 1.427 . S
C2089 H2079 0.929 . S
C2089 C2087 1.433 . S
C2089 N2092 1.384 . S
C2090 H2081 0.929 . S
C2090 C2082 1.378 . S
C2090 C2085 1.350 . S
C2091 H2078 0.929 . S
C2091 C2083 1.433 . S
C2091 N2093 1.384 . S
N2092 C2088 1.427 . S
N2092 C2089 1.384 . S
N2093 C2085 1.427 . S
N2093 C2091 1.384 . S
H2094 C2100 0.930 . S
H2095 C2104 0.930 . S
H2096 C2109 0.929 . S
H2097 C2107 0.929 . S
H2098 C2102 0.929 . S
H2099 C2108 0.929 . S
C2100 H2094 0.930 . S
C2100 C2101 1.367 . S
C2100 C2108 1.378 . S
C2101 C2100 1.367 . S
C2101 C2109 1.433 . S
C2102 H2098 0.929 . S
C2102 C2104 1.378 . S
C2102 C2106 1.350 . S
C2103 C2106 1.463 . S
C2103 C2108 1.350 . S
C2103 N2111 1.427 . S
C2104 H2095 0.930 . S
C2104 C2102 1.378 . S
C2104 C2105 1.367 . S
C2105 C2104 1.367 . S
C2105 C2107 1.433 . S
C2106 C2102 1.350 . S
C2106 C2103 1.463 . S
C2106 N2110 1.427 . S
C2107 H2097 0.929 . S
C2107 C2105 1.433 . S
C2107 N2110 1.384 . S
C2108 H2099 0.929 . S
C2108 C2100 1.378 . S
C2108 C2103 1.350 . S
C2109 H2096 0.929 . S
C2109 C2101 1.433 . S
C2109 N2111 1.384 . S
N2110 C2106 1.427 . S
N2110 C2107 1.384 . S
N2111 C2103 1.427 . S
N2111 C2109 1.384 . S
H2112 C2118 0.930 . S
H2113 C2122 0.930 . S
H2114 C2127 0.929 . S
H2115 C2125 0.929 . S
H2116 C2120 0.929 . S
H2117 C2126 0.929 . S
C2118 H2112 0.930 . S
C2118 C2119 1.367 . S
C2118 C2126 1.378 . S
C2119 C2118 1.367 . S
C2119 C2127 1.433 . S
C2120 H2116 0.929 . S
C2120 C2122 1.378 . S
C2120 C2124 1.350 . S
C2121 C2124 1.463 . S
C2121 C2126 1.350 . S
C2121 N2129 1.427 . S
C2122 H2113 0.930 . S
C2122 C2120 1.378 . S
C2122 C2123 1.367 . S
C2123 C2122 1.367 . S
C2123 C2125 1.433 . S
C2124 C2120 1.350 . S
C2124 C2121 1.463 . S
C2124 N2128 1.427 . S
C2125 H2115 0.929 . S
C2125 C2123 1.433 . S
C2125 N2128 1.384 . S
C2126 H2117 0.929 . S
C2126 C2118 1.378 . S
C2126 C2121 1.350 . S
C2127 H2114 0.929 . S
C2127 C2119 1.433 . S
C2127 N2129 1.384 . S
N2128 C2124 1.427 . S
N2128 C2125 1.384 . S
N2129 C2121 1.427 . S
N2129 C2127 1.384 . S
H2130 C2136 0.930 . S
H2131 C2140 0.930 . S
H2132 C2145 0.929 . S
H2133 C2143 0.929 . S
H2134 C2138 0.929 . S
H2135 C2144 0.929 . S
C2136 H2130 0.930 . S
C2136 C2137 1.367 . S
C2136 C2144 1.378 . S
C2137 C2136 1.367 . S
C2137 C2145 1.433 . S
C2138 H2134 0.929 . S
C2138 C2140 1.378 . S
C2138 C2142 1.350 . S
C2139 C2142 1.463 . S
C2139 C2144 1.350 . S
C2139 N2147 1.427 . S
C2140 H2131 0.930 . S
C2140 C2138 1.378 . S
C2140 C2141 1.367 . S
C2141 C2140 1.367 . S
C2141 C2143 1.433 . S
C2142 C2138 1.350 . S
C2142 C2139 1.463 . S
C2142 N2146 1.427 . S
C2143 H2133 0.929 . S
C2143 C2141 1.433 . S
C2143 N2146 1.384 . S
C2144 H2135 0.929 . S
C2144 C2136 1.378 . S
C2144 C2139 1.350 . S
C2145 H2132 0.929 . S
C2145 C2137 1.433 . S
C2145 N2147 1.384 . S
N2146 C2142 1.427 . S
N2146 C2143 1.384 . S
N2147 C2139 1.427 . S
N2147 C2145 1.384 . S
H2148 C2154 0.930 . S
H2149 C2158 0.930 . S
H2150 C2163 0.929 . S
H2151 C2161 0.929 . S
H2152 C2156 0.929 . S
H2153 C2162 0.929 . S
C2154 H2148 0.930 . S
C2154 C2155 1.367 . S
C2154 C2162 1.378 . S
C2155 C2154 1.367 . S
C2155 C2163 1.433 . S
C2156 H2152 0.929 . S
C2156 C2158 1.378 . S
C2156 C2160 1.350 . S
C2157 C2160 1.463 . S
C2157 C2162 1.350 . S
C2157 N2165 1.427 . S
C2158 H2149 0.930 . S
C2158 C2156 1.378 . S
C2158 C2159 1.367 . S
C2159 C2158 1.367 . S
C2159 C2161 1.433 . S
C2160 C2156 1.350 . S
C2160 C2157 1.463 . S
C2160 N2164 1.427 . S
C2161 H2151 0.929 . S
C2161 C2159 1.433 . S
C2161 N2164 1.384 . S
C2162 H2153 0.929 . S
C2162 C2154 1.378 . S
C2162 C2157 1.350 . S
C2163 H2150 0.929 . S
C2163 C2155 1.433 . S
C2163 N2165 1.384 . S
N2164 C2160 1.427 . S
N2164 C2161 1.384 . S
N2165 C2157 1.427 . S
N2165 C2163 1.384 . S
H2166 C2172 0.930 . S
H2167 C2176 0.930 . S
H2168 C2181 0.929 . S
H2169 C2179 0.929 . S
H2170 C2174 0.929 . S
H2171 C2180 0.929 . S
C2172 H2166 0.930 . S
C2172 C2173 1.367 . S
C2172 C2180 1.378 . S
C2173 C2172 1.367 . S
C2173 C2181 1.433 . S
C2174 H2170 0.929 . S
C2174 C2176 1.378 . S
C2174 C2178 1.350 . S
C2175 C2178 1.463 . S
C2175 C2180 1.350 . S
C2175 N2183 1.427 . S
C2176 H2167 0.930 . S
C2176 C2174 1.378 . S
C2176 C2177 1.367 . S
C2177 C2176 1.367 . S
C2177 C2179 1.433 . S
C2178 C2174 1.350 . S
C2178 C2175 1.463 . S
C2178 N2182 1.427 . S
C2179 H2169 0.929 . S
C2179 C2177 1.433 . S
C2179 N2182 1.384 . S
C2180 H2171 0.929 . S
C2180 C2172 1.378 . S
C2180 C2175 1.350 . S
C2181 H2168 0.929 . S
C2181 C2173 1.433 . S
C2181 N2183 1.384 . S
N2182 C2178 1.427 . S
N2182 C2179 1.384 . S
N2183 C2175 1.427 . S
N2183 C2181 1.384 . S
H2184 C2190 0.930 . S
H2185 C2194 0.930 . S
H2186 C2199 0.929 . S
H2187 C2197 0.929 . S
H2188 C2192 0.929 . S
H2189 C2198 0.929 . S
C2190 H2184 0.930 . S
C2190 C2191 1.367 . S
C2190 C2198 1.378 . S
C2191 C2190 1.367 . S
C2191 C2199 1.433 . S
C2192 H2188 0.929 . S
C2192 C2194 1.378 . S
C2192 C2196 1.350 . S
C2193 C2196 1.463 . S
C2193 C2198 1.350 . S
C2193 N2201 1.427 . S
C2194 H2185 0.930 . S
C2194 C2192 1.378 . S
C2194 C2195 1.367 . S
C2195 C2194 1.367 . S
C2195 C2197 1.433 . S
C2196 C2192 1.350 . S
C2196 C2193 1.463 . S
C2196 N2200 1.427 . S
C2197 H2187 0.929 . S
C2197 C2195 1.433 . S
C2197 N2200 1.384 . S
C2198 H2189 0.929 . S
C2198 C2190 1.378 . S
C2198 C2193 1.350 . S
C2199 H2186 0.929 . S
C2199 C2191 1.433 . S
C2199 N2201 1.384 . S
N2200 C2196 1.427 . S
N2200 C2197 1.384 . S
N2201 C2193 1.427 . S
N2201 C2199 1.384 . S
H2202 C2208 0.930 . S
H2203 C2212 0.930 . S
H2204 C2217 0.929 . S
H2205 C2215 0.929 . S
H2206 C2210 0.929 . S
H2207 C2216 0.929 . S
C2208 H2202 0.930 . S
C2208 C2209 1.367 . S
C2208 C2216 1.378 . S
C2209 C2208 1.367 . S
C2209 C2217 1.433 . S
C2210 H2206 0.929 . S
C2210 C2212 1.378 . S
C2210 C2214 1.350 . S
C2211 C2214 1.463 . S
C2211 C2216 1.350 . S
C2211 N2219 1.427 . S
C2212 H2203 0.930 . S
C2212 C2210 1.378 . S
C2212 C2213 1.367 . S
C2213 C2212 1.367 . S
C2213 C2215 1.433 . S
C2214 C2210 1.350 . S
C2214 C2211 1.463 . S
C2214 N2218 1.427 . S
C2215 H2205 0.929 . S
C2215 C2213 1.433 . S
C2215 N2218 1.384 . S
C2216 H2207 0.929 . S
C2216 C2208 1.378 . S
C2216 C2211 1.350 . S
C2217 H2204 0.929 . S
C2217 C2209 1.433 . S
C2217 N2219 1.384 . S
N2218 C2214 1.427 . S
N2218 C2215 1.384 . S
N2219 C2211 1.427 . S
N2219 C2217 1.384 . S
H2220 C2226 0.930 . S
H2221 C2230 0.930 . S
H2222 C2235 0.929 . S
H2223 C2233 0.929 . S
H2224 C2228 0.929 . S
H2225 C2234 0.929 . S
C2226 H2220 0.930 . S
C2226 C2227 1.367 . S
C2226 C2234 1.378 . S
C2227 C2226 1.367 . S
C2227 C2235 1.433 . S
C2228 H2224 0.929 . S
C2228 C2230 1.378 . S
C2228 C2232 1.350 . S
C2229 C2232 1.463 . S
C2229 C2234 1.350 . S
C2229 N2237 1.427 . S
C2230 H2221 0.930 . S
C2230 C2228 1.378 . S
C2230 C2231 1.367 . S
C2231 C2230 1.367 . S
C2231 C2233 1.433 . S
C2232 C2228 1.350 . S
C2232 C2229 1.463 . S
C2232 N2236 1.427 . S
C2233 H2223 0.929 . S
C2233 C2231 1.433 . S
C2233 N2236 1.384 . S
C2234 H2225 0.929 . S
C2234 C2226 1.378 . S
C2234 C2229 1.350 . S
C2235 H2222 0.929 . S
C2235 C2227 1.433 . S
C2235 N2237 1.384 . S
N2236 C2232 1.427 . S
N2236 C2233 1.384 . S
N2237 C2229 1.427 . S
N2237 C2235 1.384 . S
H2238 C2244 0.930 . S
H2239 C2248 0.930 . S
H2240 C2253 0.929 . S
H2241 C2251 0.929 . S
H2242 C2246 0.929 . S
H2243 C2252 0.929 . S
C2244 H2238 0.930 . S
C2244 C2245 1.367 . S
C2244 C2252 1.378 . S
C2245 C2244 1.367 . S
C2245 C2253 1.433 . S
C2246 H2242 0.929 . S
C2246 C2248 1.378 . S
C2246 C2250 1.350 . S
C2247 C2250 1.463 . S
C2247 C2252 1.350 . S
C2247 N2255 1.427 . S
C2248 H2239 0.930 . S
C2248 C2246 1.378 . S
C2248 C2249 1.367 . S
C2249 C2248 1.367 . S
C2249 C2251 1.433 . S
C2250 C2246 1.350 . S
C2250 C2247 1.463 . S
C2250 N2254 1.427 . S
C2251 H2241 0.929 . S
C2251 C2249 1.433 . S
C2251 N2254 1.384 . S
C2252 H2243 0.929 . S
C2252 C2244 1.378 . S
C2252 C2247 1.350 . S
C2253 H2240 0.929 . S
C2253 C2245 1.433 . S
C2253 N2255 1.384 . S
N2254 C2250 1.427 . S
N2254 C2251 1.384 . S
N2255 C2247 1.427 . S
N2255 C2253 1.384 . S
H2256 C2262 0.930 . S
H2257 C2266 0.930 . S
H2258 C2271 0.929 . S
H2259 C2269 0.929 . S
H2260 C2264 0.929 . S
H2261 C2270 0.929 . S
C2262 H2256 0.930 . S
C2262 C2263 1.367 . S
C2262 C2270 1.378 . S
C2263 C2262 1.367 . S
C2263 C2271 1.433 . S
C2264 H2260 0.929 . S
C2264 C2266 1.378 . S
C2264 C2268 1.350 . S
C2265 C2268 1.463 . S
C2265 C2270 1.350 . S
C2265 N2273 1.427 . S
C2266 H2257 0.930 . S
C2266 C2264 1.378 . S
C2266 C2267 1.367 . S
C2267 C2266 1.367 . S
C2267 C2269 1.433 . S
C2268 C2264 1.350 . S
C2268 C2265 1.463 . S
C2268 N2272 1.427 . S
C2269 H2259 0.929 . S
C2269 C2267 1.433 . S
C2269 N2272 1.384 . S
C2270 H2261 0.929 . S
C2270 C2262 1.378 . S
C2270 C2265 1.350 . S
C2271 H2258 0.929 . S
C2271 C2263 1.433 . S
C2271 N2273 1.384 . S
N2272 C2268 1.427 . S
N2272 C2269 1.384 . S
N2273 C2265 1.427 . S
N2273 C2271 1.384 . S
H2274 C2280 0.930 . S
H2275 C2284 0.930 . S
H2276 C2289 0.929 . S
H2277 C2287 0.929 . S
H2278 C2282 0.929 . S
H2279 C2288 0.929 . S
C2280 H2274 0.930 . S
C2280 C2281 1.367 . S
C2280 C2288 1.378 . S
C2281 C2280 1.367 . S
C2281 C2289 1.433 . S
C2282 H2278 0.929 . S
C2282 C2284 1.378 . S
C2282 C2286 1.350 . S
C2283 C2286 1.463 . S
C2283 C2288 1.350 . S
C2283 N2291 1.427 . S
C2284 H2275 0.930 . S
C2284 C2282 1.378 . S
C2284 C2285 1.367 . S
C2285 C2284 1.367 . S
C2285 C2287 1.433 . S
C2286 C2282 1.350 . S
C2286 C2283 1.463 . S
C2286 N2290 1.427 . S
C2287 H2277 0.929 . S
C2287 C2285 1.433 . S
C2287 N2290 1.384 . S
C2288 H2279 0.929 . S
C2288 C2280 1.378 . S
C2288 C2283 1.350 . S
C2289 H2276 0.929 . S
C2289 C2281 1.433 . S
C2289 N2291 1.384 . S
N2290 C2286 1.427 . S
N2290 C2287 1.384 . S
N2291 C2283 1.427 . S
N2291 C2289 1.384 . S
H2292 C2298 0.930 . S
H2293 C2302 0.930 . S
H2294 C2307 0.929 . S
H2295 C2305 0.929 . S
H2296 C2300 0.929 . S
H2297 C2306 0.929 . S
C2298 H2292 0.930 . S
C2298 C2299 1.367 . S
C2298 C2306 1.378 . S
C2299 C2298 1.367 . S
C2299 C2307 1.433 . S
C2300 H2296 0.929 . S
C2300 C2302 1.378 . S
C2300 C2304 1.350 . S
C2301 C2304 1.463 . S
C2301 C2306 1.350 . S
C2301 N2309 1.427 . S
C2302 H2293 0.930 . S
C2302 C2300 1.378 . S
C2302 C2303 1.367 . S
C2303 C2302 1.367 . S
C2303 C2305 1.433 . S
C2304 C2300 1.350 . S
C2304 C2301 1.463 . S
C2304 N2308 1.427 . S
C2305 H2295 0.929 . S
C2305 C2303 1.433 . S
C2305 N2308 1.384 . S
C2306 H2297 0.929 . S
C2306 C2298 1.378 . S
C2306 C2301 1.350 . S
C2307 H2294 0.929 . S
C2307 C2299 1.433 . S
C2307 N2309 1.384 . S
N2308 C2304 1.427 . S
N2308 C2305 1.384 . S
N2309 C2301 1.427 . S
N2309 C2307 1.384 . S
H2310 C2316 0.930 . S
H2311 C2320 0.930 . S
H2312 C2325 0.929 . S
H2313 C2323 0.929 . S
H2314 C2318 0.929 . S
H2315 C2324 0.929 . S
C2316 H2310 0.930 . S
C2316 C2317 1.367 . S
C2316 C2324 1.378 . S
C2317 C2316 1.367 . S
C2317 C2325 1.433 . S
C2318 H2314 0.929 . S
C2318 C2320 1.378 . S
C2318 C2322 1.350 . S
C2319 C2322 1.463 . S
C2319 C2324 1.350 . S
C2319 N2327 1.427 . S
C2320 H2311 0.930 . S
C2320 C2318 1.378 . S
C2320 C2321 1.367 . S
C2321 C2320 1.367 . S
C2321 C2323 1.433 . S
C2322 C2318 1.350 . S
C2322 C2319 1.463 . S
C2322 N2326 1.427 . S
C2323 H2313 0.929 . S
C2323 C2321 1.433 . S
C2323 N2326 1.384 . S
C2324 H2315 0.929 . S
C2324 C2316 1.378 . S
C2324 C2319 1.350 . S
C2325 H2312 0.929 . S
C2325 C2317 1.433 . S
C2325 N2327 1.384 . S
N2326 C2322 1.427 . S
N2326 C2323 1.384 . S
N2327 C2319 1.427 . S
N2327 C2325 1.384 . S
H2328 C2334 0.930 . S
H2329 C2338 0.930 . S
H2330 C2343 0.929 . S
H2331 C2341 0.929 . S
H2332 C2336 0.929 . S
H2333 C2342 0.929 . S
C2334 H2328 0.930 . S
C2334 C2335 1.367 . S
C2334 C2342 1.378 . S
C2335 C2334 1.367 . S
C2335 C2343 1.433 . S
C2336 H2332 0.929 . S
C2336 C2338 1.378 . S
C2336 C2340 1.350 . S
C2337 C2340 1.463 . S
C2337 C2342 1.350 . S
C2337 N2345 1.427 . S
C2338 H2329 0.930 . S
C2338 C2336 1.378 . S
C2338 C2339 1.367 . S
C2339 C2338 1.367 . S
C2339 C2341 1.433 . S
C2340 C2336 1.350 . S
C2340 C2337 1.463 . S
C2340 N2344 1.427 . S
C2341 H2331 0.929 . S
C2341 C2339 1.433 . S
C2341 N2344 1.384 . S
C2342 H2333 0.929 . S
C2342 C2334 1.378 . S
C2342 C2337 1.350 . S
C2343 H2330 0.929 . S
C2343 C2335 1.433 . S
C2343 N2345 1.384 . S
N2344 C2340 1.427 . S
N2344 C2341 1.384 . S
N2345 C2337 1.427 . S
N2345 C2343 1.384 . S
H2346 C2352 0.930 . S
H2347 C2356 0.930 . S
H2348 C2361 0.929 . S
H2349 C2359 0.929 . S
H2350 C2354 0.929 . S
H2351 C2360 0.929 . S
C2352 H2346 0.930 . S
C2352 C2353 1.367 . S
C2352 C2360 1.378 . S
C2353 C2352 1.367 . S
C2353 C2361 1.433 . S
C2354 H2350 0.929 . S
C2354 C2356 1.378 . S
C2354 C2358 1.350 . S
C2355 C2358 1.463 . S
C2355 C2360 1.350 . S
C2355 N2363 1.427 . S
C2356 H2347 0.930 . S
C2356 C2354 1.378 . S
C2356 C2357 1.367 . S
C2357 C2356 1.367 . S
C2357 C2359 1.433 . S
C2358 C2354 1.350 . S
C2358 C2355 1.463 . S
C2358 N2362 1.427 . S
C2359 H2349 0.929 . S
C2359 C2357 1.433 . S
C2359 N2362 1.384 . S
C2360 H2351 0.929 . S
C2360 C2352 1.378 . S
C2360 C2355 1.350 . S
C2361 H2348 0.929 . S
C2361 C2353 1.433 . S
C2361 N2363 1.384 . S
N2362 C2358 1.427 . S
N2362 C2359 1.384 . S
N2363 C2355 1.427 . S
N2363 C2361 1.384 . S
H2364 C2370 0.930 . S
H2365 C2374 0.930 . S
H2366 C2379 0.929 . S
H2367 C2377 0.929 . S
H2368 C2372 0.929 . S
H2369 C2378 0.929 . S
C2370 H2364 0.930 . S
C2370 C2371 1.367 . S
C2370 C2378 1.378 . S
C2371 C2370 1.367 . S
C2371 C2379 1.433 . S
C2372 H2368 0.929 . S
C2372 C2374 1.378 . S
C2372 C2376 1.350 . S
C2373 C2376 1.463 . S
C2373 C2378 1.350 . S
C2373 N2381 1.427 . S
C2374 H2365 0.930 . S
C2374 C2372 1.378 . S
C2374 C2375 1.367 . S
C2375 C2374 1.367 . S
C2375 C2377 1.433 . S
C2376 C2372 1.350 . S
C2376 C2373 1.463 . S
C2376 N2380 1.427 . S
C2377 H2367 0.929 . S
C2377 C2375 1.433 . S
C2377 N2380 1.384 . S
C2378 H2369 0.929 . S
C2378 C2370 1.378 . S
C2378 C2373 1.350 . S
C2379 H2366 0.929 . S
C2379 C2371 1.433 . S
C2379 N2381 1.384 . S
N2380 C2376 1.427 . S
N2380 C2377 1.384 . S
N2381 C2373 1.427 . S
N2381 C2379 1.384 . S
H2382 C2388 0.930 . S
H2383 C2392 0.930 . S
H2384 C2397 0.929 . S
H2385 C2395 0.929 . S
H2386 C2390 0.929 . S
H2387 C2396 0.929 . S
C2388 H2382 0.930 . S
C2388 C2389 1.367 . S
C2388 C2396 1.378 . S
C2389 C2388 1.367 . S
C2389 C2397 1.433 . S
C2390 H2386 0.929 . S
C2390 C2392 1.378 . S
C2390 C2394 1.350 . S
C2391 C2394 1.463 . S
C2391 C2396 1.350 . S
C2391 N2399 1.427 . S
C2392 H2383 0.930 . S
C2392 C2390 1.378 . S
C2392 C2393 1.367 . S
C2393 C2392 1.367 . S
C2393 C2395 1.433 . S
C2394 C2390 1.350 . S
C2394 C2391 1.463 . S
C2394 N2398 1.427 . S
C2395 H2385 0.929 . S
C2395 C2393 1.433 . S
C2395 N2398 1.384 . S
C2396 H2387 0.929 . S
C2396 C2388 1.378 . S
C2396 C2391 1.350 . S
C2397 H2384 0.929 . S
C2397 C2389 1.433 . S
C2397 N2399 1.384 . S
N2398 C2394 1.427 . S
N2398 C2395 1.384 . S
N2399 C2391 1.427 . S
N2399 C2397 1.384 . S
H2400 C2406 0.930 . S
H2401 C2410 0.930 . S
H2402 C2415 0.929 . S
H2403 C2413 0.929 . S
H2404 C2408 0.929 . S
H2405 C2414 0.929 . S
C2406 H2400 0.930 . S
C2406 C2407 1.367 . S
C2406 C2414 1.378 . S
C2407 C2406 1.367 . S
C2407 C2415 1.433 . S
C2408 H2404 0.929 . S
C2408 C2410 1.378 . S
C2408 C2412 1.350 . S
C2409 C2412 1.463 . S
C2409 C2414 1.350 . S
C2409 N2417 1.427 . S
C2410 H2401 0.930 . S
C2410 C2408 1.378 . S
C2410 C2411 1.367 . S
C2411 C2410 1.367 . S
C2411 C2413 1.433 . S
C2412 C2408 1.350 . S
C2412 C2409 1.463 . S
C2412 N2416 1.427 . S
C2413 H2403 0.929 . S
C2413 C2411 1.433 . S
C2413 N2416 1.384 . S
C2414 H2405 0.929 . S
C2414 C2406 1.378 . S
C2414 C2409 1.350 . S
C2415 H2402 0.929 . S
C2415 C2407 1.433 . S
C2415 N2417 1.384 . S
N2416 C2412 1.427 . S
N2416 C2413 1.384 . S
N2417 C2409 1.427 . S
N2417 C2415 1.384 . S
H2418 C2424 0.930 . S
H2419 C2428 0.930 . S
H2420 C2433 0.929 . S
H2421 C2431 0.929 . S
H2422 C2426 0.929 . S
H2423 C2432 0.929 . S
C2424 H2418 0.930 . S
C2424 C2425 1.367 . S
C2424 C2432 1.378 . S
C2425 C2424 1.367 . S
C2425 C2433 1.433 . S
C2426 H2422 0.929 . S
C2426 C2428 1.378 . S
C2426 C2430 1.350 . S
C2427 C2430 1.463 . S
C2427 C2432 1.350 . S
C2427 N2435 1.427 . S
C2428 H2419 0.930 . S
C2428 C2426 1.378 . S
C2428 C2429 1.367 . S
C2429 C2428 1.367 . S
C2429 C2431 1.433 . S
C2430 C2426 1.350 . S
C2430 C2427 1.463 . S
C2430 N2434 1.427 . S
C2431 H2421 0.929 . S
C2431 C2429 1.433 . S
C2431 N2434 1.384 . S
C2432 H2423 0.929 . S
C2432 C2424 1.378 . S
C2432 C2427 1.350 . S
C2433 H2420 0.929 . S
C2433 C2425 1.433 . S
C2433 N2435 1.384 . S
N2434 C2430 1.427 . S
N2434 C2431 1.384 . S
N2435 C2427 1.427 . S
N2435 C2433 1.384 . S
H2436 C2442 0.930 . S
H2437 C2446 0.930 . S
H2438 C2451 0.929 . S
H2439 C2449 0.929 . S
H2440 C2444 0.929 . S
H2441 C2450 0.929 . S
C2442 H2436 0.930 . S
C2442 C2443 1.367 . S
C2442 C2450 1.378 . S
C2443 C2442 1.367 . S
C2443 C2451 1.433 . S
C2444 H2440 0.929 . S
C2444 C2446 1.378 . S
C2444 C2448 1.350 . S
C2445 C2448 1.463 . S
C2445 C2450 1.350 . S
C2445 N2453 1.427 . S
C2446 H2437 0.930 . S
C2446 C2444 1.378 . S
C2446 C2447 1.367 . S
C2447 C2446 1.367 . S
C2447 C2449 1.433 . S
C2448 C2444 1.350 . S
C2448 C2445 1.463 . S
C2448 N2452 1.427 . S
C2449 H2439 0.929 . S
C2449 C2447 1.433 . S
C2449 N2452 1.384 . S
C2450 H2441 0.929 . S
C2450 C2442 1.378 . S
C2450 C2445 1.350 . S
C2451 H2438 0.929 . S
C2451 C2443 1.433 . S
C2451 N2453 1.384 . S
N2452 C2448 1.427 . S
N2452 C2449 1.384 . S
N2453 C2445 1.427 . S
N2453 C2451 1.384 . S
H2454 C2460 0.930 . S
H2455 C2464 0.930 . S
H2456 C2469 0.929 . S
H2457 C2467 0.929 . S
H2458 C2462 0.929 . S
H2459 C2468 0.929 . S
C2460 H2454 0.930 . S
C2460 C2461 1.367 . S
C2460 C2468 1.378 . S
C2461 C2460 1.367 . S
C2461 C2469 1.433 . S
C2462 H2458 0.929 . S
C2462 C2464 1.378 . S
C2462 C2466 1.350 . S
C2463 C2466 1.463 . S
C2463 C2468 1.350 . S
C2463 N2471 1.427 . S
C2464 H2455 0.930 . S
C2464 C2462 1.378 . S
C2464 C2465 1.367 . S
C2465 C2464 1.367 . S
C2465 C2467 1.433 . S
C2466 C2462 1.350 . S
C2466 C2463 1.463 . S
C2466 N2470 1.427 . S
C2467 H2457 0.929 . S
C2467 C2465 1.433 . S
C2467 N2470 1.384 . S
C2468 H2459 0.929 . S
C2468 C2460 1.378 . S
C2468 C2463 1.350 . S
C2469 H2456 0.929 . S
C2469 C2461 1.433 . S
C2469 N2471 1.384 . S
N2470 C2466 1.427 . S
N2470 C2467 1.384 . S
N2471 C2463 1.427 . S
N2471 C2469 1.384 . S
H2472 C2478 0.930 . S
H2473 C2482 0.930 . S
H2474 C2487 0.929 . S
H2475 C2485 0.929 . S
H2476 C2480 0.929 . S
H2477 C2486 0.929 . S
C2478 H2472 0.930 . S
C2478 C2479 1.367 . S
C2478 C2486 1.378 . S
C2479 C2478 1.367 . S
C2479 C2487 1.433 . S
C2480 H2476 0.929 . S
C2480 C2482 1.378 . S
C2480 C2484 1.350 . S
C2481 C2484 1.463 . S
C2481 C2486 1.350 . S
C2481 N2489 1.427 . S
C2482 H2473 0.930 . S
C2482 C2480 1.378 . S
C2482 C2483 1.367 . S
C2483 C2482 1.367 . S
C2483 C2485 1.433 . S
C2484 C2480 1.350 . S
C2484 C2481 1.463 . S
C2484 N2488 1.427 . S
C2485 H2475 0.929 . S
C2485 C2483 1.433 . S
C2485 N2488 1.384 . S
C2486 H2477 0.929 . S
C2486 C2478 1.378 . S
C2486 C2481 1.350 . S
C2487 H2474 0.929 . S
C2487 C2479 1.433 . S
C2487 N2489 1.384 . S
N2488 C2484 1.427 . S
N2488 C2485 1.384 . S
N2489 C2481 1.427 . S
N2489 C2487 1.384 . S
H2490 C2496 0.930 . S
H2491 C2500 0.930 . S
H2492 C2505 0.929 . S
H2493 C2503 0.929 . S
H2494 C2498 0.929 . S
H2495 C2504 0.929 . S
C2496 H2490 0.930 . S
C2496 C2497 1.367 . S
C2496 C2504 1.378 . S
C2497 C2496 1.367 . S
C2497 C2505 1.433 . S
C2498 H2494 0.929 . S
C2498 C2500 1.378 . S
C2498 C2502 1.350 . S
C2499 C2502 1.463 . S
C2499 C2504 1.350 . S
C2499 N2507 1.427 . S
C2500 H2491 0.930 . S
C2500 C2498 1.378 . S
C2500 C2501 1.367 . S
C2501 C2500 1.367 . S
C2501 C2503 1.433 . S
C2502 C2498 1.350 . S
C2502 C2499 1.463 . S
C2502 N2506 1.427 . S
C2503 H2493 0.929 . S
C2503 C2501 1.433 . S
C2503 N2506 1.384 . S
C2504 H2495 0.929 . S
C2504 C2496 1.378 . S
C2504 C2499 1.350 . S
C2505 H2492 0.929 . S
C2505 C2497 1.433 . S
C2505 N2507 1.384 . S
N2506 C2502 1.427 . S
N2506 C2503 1.384 . S
N2507 C2499 1.427 . S
N2507 C2505 1.384 . S
H2508 C2514 0.930 . S
H2509 C2518 0.930 . S
H2510 C2523 0.929 . S
H2511 C2521 0.929 . S
H2512 C2516 0.929 . S
H2513 C2522 0.929 . S
C2514 H2508 0.930 . S
C2514 C2515 1.367 . S
C2514 C2522 1.378 . S
C2515 C2514 1.367 . S
C2515 C2523 1.433 . S
C2516 H2512 0.929 . S
C2516 C2518 1.378 . S
C2516 C2520 1.350 . S
C2517 C2520 1.463 . S
C2517 C2522 1.350 . S
C2517 N2525 1.427 . S
C2518 H2509 0.930 . S
C2518 C2516 1.378 . S
C2518 C2519 1.367 . S
C2519 C2518 1.367 . S
C2519 C2521 1.433 . S
C2520 C2516 1.350 . S
C2520 C2517 1.463 . S
C2520 N2524 1.427 . S
C2521 H2511 0.929 . S
C2521 C2519 1.433 . S
C2521 N2524 1.384 . S
C2522 H2513 0.929 . S
C2522 C2514 1.378 . S
C2522 C2517 1.350 . S
C2523 H2510 0.929 . S
C2523 C2515 1.433 . S
C2523 N2525 1.384 . S
N2524 C2520 1.427 . S
N2524 C2521 1.384 . S
N2525 C2517 1.427 . S
N2525 C2523 1.384 . S
H2526 C2532 0.930 . S
H2527 C2536 0.930 . S
H2528 C2541 0.929 . S
H2529 C2539 0.929 . S
H2530 C2534 0.929 . S
H2531 C2540 0.929 . S
C2532 H2526 0.930 . S
C2532 C2533 1.367 . S
C2532 C2540 1.378 . S
C2533 C2532 1.367 . S
C2533 C2541 1.433 . S
C2534 H2530 0.929 . S
C2534 C2536 1.378 . S
C2534 C2538 1.350 . S
C2535 C2538 1.463 . S
C2535 C2540 1.350 . S
C2535 N2543 1.427 . S
C2536 H2527 0.930 . S
C2536 C2534 1.378 . S
C2536 C2537 1.367 . S
C2537 C2536 1.367 . S
C2537 C2539 1.433 . S
C2538 C2534 1.350 . S
C2538 C2535 1.463 . S
C2538 N2542 1.427 . S
C2539 H2529 0.929 . S
C2539 C2537 1.433 . S
C2539 N2542 1.384 . S
C2540 H2531 0.929 . S
C2540 C2532 1.378 . S
C2540 C2535 1.350 . S
C2541 H2528 0.929 . S
C2541 C2533 1.433 . S
C2541 N2543 1.384 . S
N2542 C2538 1.427 . S
N2542 C2539 1.384 . S
N2543 C2535 1.427 . S
N2543 C2541 1.384 . S
H2544 C2550 0.930 . S
H2545 C2554 0.930 . S
H2546 C2559 0.929 . S
H2547 C2557 0.929 . S
H2548 C2552 0.929 . S
H2549 C2558 0.929 . S
C2550 H2544 0.930 . S
C2550 C2551 1.367 . S
C2550 C2558 1.378 . S
C2551 C2550 1.367 . S
C2551 C2559 1.433 . S
C2552 H2548 0.929 . S
C2552 C2554 1.378 . S
C2552 C2556 1.350 . S
C2553 C2556 1.463 . S
C2553 C2558 1.350 . S
C2553 N2561 1.427 . S
C2554 H2545 0.930 . S
C2554 C2552 1.378 . S
C2554 C2555 1.367 . S
C2555 C2554 1.367 . S
C2555 C2557 1.433 . S
C2556 C2552 1.350 . S
C2556 C2553 1.463 . S
C2556 N2560 1.427 . S
C2557 H2547 0.929 . S
C2557 C2555 1.433 . S
C2557 N2560 1.384 . S
C2558 H2549 0.929 . S
C2558 C2550 1.378 . S
C2558 C2553 1.350 . S
C2559 H2546 0.929 . S
C2559 C2551 1.433 . S
C2559 N2561 1.384 . S
N2560 C2556 1.427 . S
N2560 C2557 1.384 . S
N2561 C2553 1.427 . S
N2561 C2559 1.384 . S
H2562 C2568 0.930 . S
H2563 C2572 0.930 . S
H2564 C2577 0.929 . S
H2565 C2575 0.929 . S
H2566 C2570 0.929 . S
H2567 C2576 0.929 . S
C2568 H2562 0.930 . S
C2568 C2569 1.367 . S
C2568 C2576 1.378 . S
C2569 C2568 1.367 . S
C2569 C2577 1.433 . S
C2570 H2566 0.929 . S
C2570 C2572 1.378 . S
C2570 C2574 1.350 . S
C2571 C2574 1.463 . S
C2571 C2576 1.350 . S
C2571 N2579 1.427 . S
C2572 H2563 0.930 . S
C2572 C2570 1.378 . S
C2572 C2573 1.367 . S
C2573 C2572 1.367 . S
C2573 C2575 1.433 . S
C2574 C2570 1.350 . S
C2574 C2571 1.463 . S
C2574 N2578 1.427 . S
C2575 H2565 0.929 . S
C2575 C2573 1.433 . S
C2575 N2578 1.384 . S
C2576 H2567 0.929 . S
C2576 C2568 1.378 . S
C2576 C2571 1.350 . S
C2577 H2564 0.929 . S
C2577 C2569 1.433 . S
C2577 N2579 1.384 . S
N2578 C2574 1.427 . S
N2578 C2575 1.384 . S
N2579 C2571 1.427 . S
N2579 C2577 1.384 . S
H2580 C2586 0.930 . S
H2581 C2590 0.930 . S
H2582 C2595 0.929 . S
H2583 C2593 0.929 . S
H2584 C2588 0.929 . S
H2585 C2594 0.929 . S
C2586 H2580 0.930 . S
C2586 C2587 1.367 . S
C2586 C2594 1.378 . S
C2587 C2586 1.367 . S
C2587 C2595 1.433 . S
C2588 H2584 0.929 . S
C2588 C2590 1.378 . S
C2588 C2592 1.350 . S
C2589 C2592 1.463 . S
C2589 C2594 1.350 . S
C2589 N2597 1.427 . S
C2590 H2581 0.930 . S
C2590 C2588 1.378 . S
C2590 C2591 1.367 . S
C2591 C2590 1.367 . S
C2591 C2593 1.433 . S
C2592 C2588 1.350 . S
C2592 C2589 1.463 . S
C2592 N2596 1.427 . S
C2593 H2583 0.929 . S
C2593 C2591 1.433 . S
C2593 N2596 1.384 . S
C2594 H2585 0.929 . S
C2594 C2586 1.378 . S
C2594 C2589 1.350 . S
C2595 H2582 0.929 . S
C2595 C2587 1.433 . S
C2595 N2597 1.384 . S
N2596 C2592 1.427 . S
N2596 C2593 1.384 . S
N2597 C2589 1.427 . S
N2597 C2595 1.384 . S
H2598 C2604 0.930 . S
H2599 C2608 0.930 . S
H2600 C2613 0.929 . S
H2601 C2611 0.929 . S
H2602 C2606 0.929 . S
H2603 C2612 0.929 . S
C2604 H2598 0.930 . S
C2604 C2605 1.367 . S
C2604 C2612 1.378 . S
C2605 C2604 1.367 . S
C2605 C2613 1.433 . S
C2606 H2602 0.929 . S
C2606 C2608 1.378 . S
C2606 C2610 1.350 . S
C2607 C2610 1.463 . S
C2607 C2612 1.350 . S
C2607 N2615 1.427 . S
C2608 H2599 0.930 . S
C2608 C2606 1.378 . S
C2608 C2609 1.367 . S
C2609 C2608 1.367 . S
C2609 C2611 1.433 . S
C2610 C2606 1.350 . S
C2610 C2607 1.463 . S
C2610 N2614 1.427 . S
C2611 H2601 0.929 . S
C2611 C2609 1.433 . S
C2611 N2614 1.384 . S
C2612 H2603 0.929 . S
C2612 C2604 1.378 . S
C2612 C2607 1.350 . S
C2613 H2600 0.929 . S
C2613 C2605 1.433 . S
C2613 N2615 1.384 . S
N2614 C2610 1.427 . S
N2614 C2611 1.384 . S
N2615 C2607 1.427 . S
N2615 C2613 1.384 . S
H2616 C2622 0.930 . S
H2617 C2626 0.930 . S
H2618 C2631 0.929 . S
H2619 C2629 0.929 . S
H2620 C2624 0.929 . S
H2621 C2630 0.929 . S
C2622 H2616 0.930 . S
C2622 C2623 1.367 . S
C2622 C2630 1.378 . S
C2623 C2622 1.367 . S
C2623 C2631 1.433 . S
C2624 H2620 0.929 . S
C2624 C2626 1.378 . S
C2624 C2628 1.350 . S
C2625 C2628 1.463 . S
C2625 C2630 1.350 . S
C2625 N2633 1.427 . S
C2626 H2617 0.930 . S
C2626 C2624 1.378 . S
C2626 C2627 1.367 . S
C2627 C2626 1.367 . S
C2627 C2629 1.433 . S
C2628 C2624 1.350 . S
C2628 C2625 1.463 . S
C2628 N2632 1.427 . S
C2629 H2619 0.929 . S
C2629 C2627 1.433 . S
C2629 N2632 1.384 . S
C2630 H2621 0.929 . S
C2630 C2622 1.378 . S
C2630 C2625 1.350 . S
C2631 H2618 0.929 . S
C2631 C2623 1.433 . S
C2631 N2633 1.384 . S
N2632 C2628 1.427 . S
N2632 C2629 1.384 . S
N2633 C2625 1.427 . S
N2633 C2631 1.384 . S
H2634 C2640 0.930 . S
H2635 C2644 0.930 . S
H2636 C2649 0.929 . S
H2637 C2647 0.929 . S
H2638 C2642 0.929 . S
H2639 C2648 0.929 . S
C2640 H2634 0.930 . S
C2640 C2641 1.367 . S
C2640 C2648 1.378 . S
C2641 C2640 1.367 . S
C2641 C2649 1.433 . S
C2642 H2638 0.929 . S
C2642 C2644 1.378 . S
C2642 C2646 1.350 . S
C2643 C2646 1.463 . S
C2643 C2648 1.350 . S
C2643 N2651 1.427 . S
C2644 H2635 0.930 . S
C2644 C2642 1.378 . S
C2644 C2645 1.367 . S
C2645 C2644 1.367 . S
C2645 C2647 1.433 . S
C2646 C2642 1.350 . S
C2646 C2643 1.463 . S
C2646 N2650 1.427 . S
C2647 H2637 0.929 . S
C2647 C2645 1.433 . S
C2647 N2650 1.384 . S
C2648 H2639 0.929 . S
C2648 C2640 1.378 . S
C2648 C2643 1.350 . S
C2649 H2636 0.929 . S
C2649 C2641 1.433 . S
C2649 N2651 1.384 . S
N2650 C2646 1.427 . S
N2650 C2647 1.384 . S
N2651 C2643 1.427 . S
N2651 C2649 1.384 . S
H2652 C2658 0.930 . S
H2653 C2662 0.930 . S
H2654 C2667 0.929 . S
H2655 C2665 0.929 . S
H2656 C2660 0.929 . S
H2657 C2666 0.929 . S
C2658 H2652 0.930 . S
C2658 C2659 1.367 . S
C2658 C2666 1.378 . S
C2659 C2658 1.367 . S
C2659 C2667 1.433 . S
C2660 H2656 0.929 . S
C2660 C2662 1.378 . S
C2660 C2664 1.350 . S
C2661 C2664 1.463 . S
C2661 C2666 1.350 . S
C2661 N2669 1.427 . S
C2662 H2653 0.930 . S
C2662 C2660 1.378 . S
C2662 C2663 1.367 . S
C2663 C2662 1.367 . S
C2663 C2665 1.433 . S
C2664 C2660 1.350 . S
C2664 C2661 1.463 . S
C2664 N2668 1.427 . S
C2665 H2655 0.929 . S
C2665 C2663 1.433 . S
C2665 N2668 1.384 . S
C2666 H2657 0.929 . S
C2666 C2658 1.378 . S
C2666 C2661 1.350 . S
C2667 H2654 0.929 . S
C2667 C2659 1.433 . S
C2667 N2669 1.384 . S
N2668 C2664 1.427 . S
N2668 C2665 1.384 . S
N2669 C2661 1.427 . S
N2669 C2667 1.384 . S
H2670 C2676 0.930 . S
H2671 C2680 0.930 . S
H2672 C2685 0.929 . S
H2673 C2683 0.929 . S
H2674 C2678 0.929 . S
H2675 C2684 0.929 . S
C2676 H2670 0.930 . S
C2676 C2677 1.367 . S
C2676 C2684 1.378 . S
C2677 C2676 1.367 . S
C2677 C2685 1.433 . S
C2678 H2674 0.929 . S
C2678 C2680 1.378 . S
C2678 C2682 1.350 . S
C2679 C2682 1.463 . S
C2679 C2684 1.350 . S
C2679 N2687 1.427 . S
C2680 H2671 0.930 . S
C2680 C2678 1.378 . S
C2680 C2681 1.367 . S
C2681 C2680 1.367 . S
C2681 C2683 1.433 . S
C2682 C2678 1.350 . S
C2682 C2679 1.463 . S
C2682 N2686 1.427 . S
C2683 H2673 0.929 . S
C2683 C2681 1.433 . S
C2683 N2686 1.384 . S
C2684 H2675 0.929 . S
C2684 C2676 1.378 . S
C2684 C2679 1.350 . S
C2685 H2672 0.929 . S
C2685 C2677 1.433 . S
C2685 N2687 1.384 . S
N2686 C2682 1.427 . S
N2686 C2683 1.384 . S
N2687 C2679 1.427 . S
N2687 C2685 1.384 . S
H2688 C2694 0.930 . S
H2689 C2698 0.930 . S
H2690 C2703 0.929 . S
H2691 C2701 0.929 . S
H2692 C2696 0.929 . S
H2693 C2702 0.929 . S
C2694 H2688 0.930 . S
C2694 C2695 1.367 . S
C2694 C2702 1.378 . S
C2695 C2694 1.367 . S
C2695 C2703 1.433 . S
C2696 H2692 0.929 . S
C2696 C2698 1.378 . S
C2696 C2700 1.350 . S
C2697 C2700 1.463 . S
C2697 C2702 1.350 . S
C2697 N2705 1.427 . S
C2698 H2689 0.930 . S
C2698 C2696 1.378 . S
C2698 C2699 1.367 . S
C2699 C2698 1.367 . S
C2699 C2701 1.433 . S
C2700 C2696 1.350 . S
C2700 C2697 1.463 . S
C2700 N2704 1.427 . S
C2701 H2691 0.929 . S
C2701 C2699 1.433 . S
C2701 N2704 1.384 . S
C2702 H2693 0.929 . S
C2702 C2694 1.378 . S
C2702 C2697 1.350 . S
C2703 H2690 0.929 . S
C2703 C2695 1.433 . S
C2703 N2705 1.384 . S
N2704 C2700 1.427 . S
N2704 C2701 1.384 . S
N2705 C2697 1.427 . S
N2705 C2703 1.384 . S
H2706 C2712 0.930 . S
H2707 C2716 0.930 . S
H2708 C2721 0.929 . S
H2709 C2719 0.929 . S
H2710 C2714 0.929 . S
H2711 C2720 0.929 . S
C2712 H2706 0.930 . S
C2712 C2713 1.367 . S
C2712 C2720 1.378 . S
C2713 C2712 1.367 . S
C2713 C2721 1.433 . S
C2714 H2710 0.929 . S
C2714 C2716 1.378 . S
C2714 C2718 1.350 . S
C2715 C2718 1.463 . S
C2715 C2720 1.350 . S
C2715 N2723 1.427 . S
C2716 H2707 0.930 . S
C2716 C2714 1.378 . S
C2716 C2717 1.367 . S
C2717 C2716 1.367 . S
C2717 C2719 1.433 . S
C2718 C2714 1.350 . S
C2718 C2715 1.463 . S
C2718 N2722 1.427 . S
C2719 H2709 0.929 . S
C2719 C2717 1.433 . S
C2719 N2722 1.384 . S
C2720 H2711 0.929 . S
C2720 C2712 1.378 . S
C2720 C2715 1.350 . S
C2721 H2708 0.929 . S
C2721 C2713 1.433 . S
C2721 N2723 1.384 . S
N2722 C2718 1.427 . S
N2722 C2719 1.384 . S
N2723 C2715 1.427 . S
N2723 C2721 1.384 . S
H2724 C2730 0.930 . S
H2725 C2734 0.930 . S
H2726 C2739 0.929 . S
H2727 C2737 0.929 . S
H2728 C2732 0.929 . S
H2729 C2738 0.929 . S
C2730 H2724 0.930 . S
C2730 C2731 1.367 . S
C2730 C2738 1.378 . S
C2731 C2730 1.367 . S
C2731 C2739 1.433 . S
C2732 H2728 0.929 . S
C2732 C2734 1.378 . S
C2732 C2736 1.350 . S
C2733 C2736 1.463 . S
C2733 C2738 1.350 . S
C2733 N2741 1.427 . S
C2734 H2725 0.930 . S
C2734 C2732 1.378 . S
C2734 C2735 1.367 . S
C2735 C2734 1.367 . S
C2735 C2737 1.433 . S
C2736 C2732 1.350 . S
C2736 C2733 1.463 . S
C2736 N2740 1.427 . S
C2737 H2727 0.929 . S
C2737 C2735 1.433 . S
C2737 N2740 1.384 . S
C2738 H2729 0.929 . S
C2738 C2730 1.378 . S
C2738 C2733 1.350 . S
C2739 H2726 0.929 . S
C2739 C2731 1.433 . S
C2739 N2741 1.384 . S
N2740 C2736 1.427 . S
N2740 C2737 1.384 . S
N2741 C2733 1.427 . S
N2741 C2739 1.384 . S
H2742 C2748 0.930 . S
H2743 C2752 0.930 . S
H2744 C2757 0.929 . S
H2745 C2755 0.929 . S
H2746 C2750 0.929 . S
H2747 C2756 0.929 . S
C2748 H2742 0.930 . S
C2748 C2749 1.367 . S
C2748 C2756 1.378 . S
C2749 C2748 1.367 . S
C2749 C2757 1.433 . S
C2750 H2746 0.929 . S
C2750 C2752 1.378 . S
C2750 C2754 1.350 . S
C2751 C2754 1.463 . S
C2751 C2756 1.350 . S
C2751 N2759 1.427 . S
C2752 H2743 0.930 . S
C2752 C2750 1.378 . S
C2752 C2753 1.367 . S
C2753 C2752 1.367 . S
C2753 C2755 1.433 . S
C2754 C2750 1.350 . S
C2754 C2751 1.463 . S
C2754 N2758 1.427 . S
C2755 H2745 0.929 . S
C2755 C2753 1.433 . S
C2755 N2758 1.384 . S
C2756 H2747 0.929 . S
C2756 C2748 1.378 . S
C2756 C2751 1.350 . S
C2757 H2744 0.929 . S
C2757 C2749 1.433 . S
C2757 N2759 1.384 . S
N2758 C2754 1.427 . S
N2758 C2755 1.384 . S
N2759 C2751 1.427 . S
N2759 C2757 1.384 . S
H2760 C2766 0.930 . S
H2761 C2770 0.930 . S
H2762 C2775 0.929 . S
H2763 C2773 0.929 . S
H2764 C2768 0.929 . S
H2765 C2774 0.929 . S
C2766 H2760 0.930 . S
C2766 C2767 1.367 . S
C2766 C2774 1.378 . S
C2767 C2766 1.367 . S
C2767 C2775 1.433 . S
C2768 H2764 0.929 . S
C2768 C2770 1.378 . S
C2768 C2772 1.350 . S
C2769 C2772 1.463 . S
C2769 C2774 1.350 . S
C2769 N2777 1.427 . S
C2770 H2761 0.930 . S
C2770 C2768 1.378 . S
C2770 C2771 1.367 . S
C2771 C2770 1.367 . S
C2771 C2773 1.433 . S
C2772 C2768 1.350 . S
C2772 C2769 1.463 . S
C2772 N2776 1.427 . S
C2773 H2763 0.929 . S
C2773 C2771 1.433 . S
C2773 N2776 1.384 . S
C2774 H2765 0.929 . S
C2774 C2766 1.378 . S
C2774 C2769 1.350 . S
C2775 H2762 0.929 . S
C2775 C2767 1.433 . S
C2775 N2777 1.384 . S
N2776 C2772 1.427 . S
N2776 C2773 1.384 . S
N2777 C2769 1.427 . S
N2777 C2775 1.384 . S
H2778 C2784 0.930 . S
H2779 C2788 0.930 . S
H2780 C2793 0.929 . S
H2781 C2791 0.929 . S
H2782 C2786 0.929 . S
H2783 C2792 0.929 . S
C2784 H2778 0.930 . S
C2784 C2785 1.367 . S
C2784 C2792 1.378 . S
C2785 C2784 1.367 . S
C2785 C2793 1.433 . S
C2786 H2782 0.929 . S
C2786 C2788 1.378 . S
C2786 C2790 1.350 . S
C2787 C2790 1.463 . S
C2787 C2792 1.350 . S
C2787 N2795 1.427 . S
C2788 H2779 0.930 . S
C2788 C2786 1.378 . S
C2788 C2789 1.367 . S
C2789 C2788 1.367 . S
C2789 C2791 1.433 . S
C2790 C2786 1.350 . S
C2790 C2787 1.463 . S
C2790 N2794 1.427 . S
C2791 H2781 0.929 . S
C2791 C2789 1.433 . S
C2791 N2794 1.384 . S
C2792 H2783 0.929 . S
C2792 C2784 1.378 . S
C2792 C2787 1.350 . S
C2793 H2780 0.929 . S
C2793 C2785 1.433 . S
C2793 N2795 1.384 . S
N2794 C2790 1.427 . S
N2794 C2791 1.384 . S
N2795 C2787 1.427 . S
N2795 C2793 1.384 . S
H2796 C2802 0.930 . S
H2797 C2806 0.930 . S
H2798 C2811 0.929 . S
H2799 C2809 0.929 . S
H2800 C2804 0.929 . S
H2801 C2810 0.929 . S
C2802 H2796 0.930 . S
C2802 C2803 1.367 . S
C2802 C2810 1.378 . S
C2803 C2802 1.367 . S
C2803 C2811 1.433 . S
C2804 H2800 0.929 . S
C2804 C2806 1.378 . S
C2804 C2808 1.350 . S
C2805 C2808 1.463 . S
C2805 C2810 1.350 . S
C2805 N2813 1.427 . S
C2806 H2797 0.930 . S
C2806 C2804 1.378 . S
C2806 C2807 1.367 . S
C2807 C2806 1.367 . S
C2807 C2809 1.433 . S
C2808 C2804 1.350 . S
C2808 C2805 1.463 . S
C2808 N2812 1.427 . S
C2809 H2799 0.929 . S
C2809 C2807 1.433 . S
C2809 N2812 1.384 . S
C2810 H2801 0.929 . S
C2810 C2802 1.378 . S
C2810 C2805 1.350 . S
C2811 H2798 0.929 . S
C2811 C2803 1.433 . S
C2811 N2813 1.384 . S
N2812 C2808 1.427 . S
N2812 C2809 1.384 . S
N2813 C2805 1.427 . S
N2813 C2811 1.384 . S
H2814 C2820 0.930 . S
H2815 C2824 0.930 . S
H2816 C2829 0.929 . S
H2817 C2827 0.929 . S
H2818 C2822 0.929 . S
H2819 C2828 0.929 . S
C2820 H2814 0.930 . S
C2820 C2821 1.367 . S
C2820 C2828 1.378 . S
C2821 C2820 1.367 . S
C2821 C2829 1.433 . S
C2822 H2818 0.929 . S
C2822 C2824 1.378 . S
C2822 C2826 1.350 . S
C2823 C2826 1.463 . S
C2823 C2828 1.350 . S
C2823 N2831 1.427 . S
C2824 H2815 0.930 . S
C2824 C2822 1.378 . S
C2824 C2825 1.367 . S
C2825 C2824 1.367 . S
C2825 C2827 1.433 . S
C2826 C2822 1.350 . S
C2826 C2823 1.463 . S
C2826 N2830 1.427 . S
C2827 H2817 0.929 . S
C2827 C2825 1.433 . S
C2827 N2830 1.384 . S
C2828 H2819 0.929 . S
C2828 C2820 1.378 . S
C2828 C2823 1.350 . S
C2829 H2816 0.929 . S
C2829 C2821 1.433 . S
C2829 N2831 1.384 . S
N2830 C2826 1.427 . S
N2830 C2827 1.384 . S
N2831 C2823 1.427 . S
N2831 C2829 1.384 . S
H2832 C2838 0.930 . S
H2833 C2842 0.930 . S
H2834 C2847 0.929 . S
H2835 C2845 0.929 . S
H2836 C2840 0.929 . S
H2837 C2846 0.929 . S
C2838 H2832 0.930 . S
C2838 C2839 1.367 . S
C2838 C2846 1.378 . S
C2839 C2838 1.367 . S
C2839 C2847 1.433 . S
C2840 H2836 0.929 . S
C2840 C2842 1.378 . S
C2840 C2844 1.350 . S
C2841 C2844 1.463 . S
C2841 C2846 1.350 . S
C2841 N2849 1.427 . S
C2842 H2833 0.930 . S
C2842 C2840 1.378 . S
C2842 C2843 1.367 . S
C2843 C2842 1.367 . S
C2843 C2845 1.433 . S
C2844 C2840 1.350 . S
C2844 C2841 1.463 . S
C2844 N2848 1.427 . S
C2845 H2835 0.929 . S
C2845 C2843 1.433 . S
C2845 N2848 1.384 . S
C2846 H2837 0.929 . S
C2846 C2838 1.378 . S
C2846 C2841 1.350 . S
C2847 H2834 0.929 . S
C2847 C2839 1.433 . S
C2847 N2849 1.384 . S
N2848 C2844 1.427 . S
N2848 C2845 1.384 . S
N2849 C2841 1.427 . S
N2849 C2847 1.384 . S
H2850 C2856 0.930 . S
H2851 C2860 0.930 . S
H2852 C2865 0.929 . S
H2853 C2863 0.929 . S
H2854 C2858 0.929 . S
H2855 C2864 0.929 . S
C2856 H2850 0.930 . S
C2856 C2857 1.367 . S
C2856 C2864 1.378 . S
C2857 C2856 1.367 . S
C2857 C2865 1.433 . S
C2858 H2854 0.929 . S
C2858 C2860 1.378 . S
C2858 C2862 1.350 . S
C2859 C2862 1.463 . S
C2859 C2864 1.350 . S
C2859 N2867 1.427 . S
C2860 H2851 0.930 . S
C2860 C2858 1.378 . S
C2860 C2861 1.367 . S
C2861 C2860 1.367 . S
C2861 C2863 1.433 . S
C2862 C2858 1.350 . S
C2862 C2859 1.463 . S
C2862 N2866 1.427 . S
C2863 H2853 0.929 . S
C2863 C2861 1.433 . S
C2863 N2866 1.384 . S
C2864 H2855 0.929 . S
C2864 C2856 1.378 . S
C2864 C2859 1.350 . S
C2865 H2852 0.929 . S
C2865 C2857 1.433 . S
C2865 N2867 1.384 . S
N2866 C2862 1.427 . S
N2866 C2863 1.384 . S
N2867 C2859 1.427 . S
N2867 C2865 1.384 . S
H2868 C2874 0.930 . S
H2869 C2878 0.930 . S
H2870 C2883 0.929 . S
H2871 C2881 0.929 . S
H2872 C2876 0.929 . S
H2873 C2882 0.929 . S
C2874 H2868 0.930 . S
C2874 C2875 1.367 . S
C2874 C2882 1.378 . S
C2875 C2874 1.367 . S
C2875 C2883 1.433 . S
C2876 H2872 0.929 . S
C2876 C2878 1.378 . S
C2876 C2880 1.350 . S
C2877 C2880 1.463 . S
C2877 C2882 1.350 . S
C2877 N2885 1.427 . S
C2878 H2869 0.930 . S
C2878 C2876 1.378 . S
C2878 C2879 1.367 . S
C2879 C2878 1.367 . S
C2879 C2881 1.433 . S
C2880 C2876 1.350 . S
C2880 C2877 1.463 . S
C2880 N2884 1.427 . S
C2881 H2871 0.929 . S
C2881 C2879 1.433 . S
C2881 N2884 1.384 . S
C2882 H2873 0.929 . S
C2882 C2874 1.378 . S
C2882 C2877 1.350 . S
C2883 H2870 0.929 . S
C2883 C2875 1.433 . S
C2883 N2885 1.384 . S
N2884 C2880 1.427 . S
N2884 C2881 1.384 . S
N2885 C2877 1.427 . S
N2885 C2883 1.384 . S
H2886 C2892 0.930 . S
H2887 C2896 0.930 . S
H2888 C2901 0.929 . S
H2889 C2899 0.929 . S
H2890 C2894 0.929 . S
H2891 C2900 0.929 . S
C2892 H2886 0.930 . S
C2892 C2893 1.367 . S
C2892 C2900 1.378 . S
C2893 C2892 1.367 . S
C2893 C2901 1.433 . S
C2894 H2890 0.929 . S
C2894 C2896 1.378 . S
C2894 C2898 1.350 . S
C2895 C2898 1.463 . S
C2895 C2900 1.350 . S
C2895 N2903 1.427 . S
C2896 H2887 0.930 . S
C2896 C2894 1.378 . S
C2896 C2897 1.367 . S
C2897 C2896 1.367 . S
C2897 C2899 1.433 . S
C2898 C2894 1.350 . S
C2898 C2895 1.463 . S
C2898 N2902 1.427 . S
C2899 H2889 0.929 . S
C2899 C2897 1.433 . S
C2899 N2902 1.384 . S
C2900 H2891 0.929 . S
C2900 C2892 1.378 . S
C2900 C2895 1.350 . S
C2901 H2888 0.929 . S
C2901 C2893 1.433 . S
C2901 N2903 1.384 . S
N2902 C2898 1.427 . S
N2902 C2899 1.384 . S
N2903 C2895 1.427 . S
N2903 C2901 1.384 . S
H2904 C2910 0.930 . S
H2905 C2914 0.930 . S
H2906 C2919 0.929 . S
H2907 C2917 0.929 . S
H2908 C2912 0.929 . S
H2909 C2918 0.929 . S
C2910 H2904 0.930 . S
C2910 C2911 1.367 . S
C2910 C2918 1.378 . S
C2911 C2910 1.367 . S
C2911 C2919 1.433 . S
C2912 H2908 0.929 . S
C2912 C2914 1.378 . S
C2912 C2916 1.350 . S
C2913 C2916 1.463 . S
C2913 C2918 1.350 . S
C2913 N2921 1.427 . S
C2914 H2905 0.930 . S
C2914 C2912 1.378 . S
C2914 C2915 1.367 . S
C2915 C2914 1.367 . S
C2915 C2917 1.433 . S
C2916 C2912 1.350 . S
C2916 C2913 1.463 . S
C2916 N2920 1.427 . S
C2917 H2907 0.929 . S
C2917 C2915 1.433 . S
C2917 N2920 1.384 . S
C2918 H2909 0.929 . S
C2918 C2910 1.378 . S
C2918 C2913 1.350 . S
C2919 H2906 0.929 . S
C2919 C2911 1.433 . S
C2919 N2921 1.384 . S
N2920 C2916 1.427 . S
N2920 C2917 1.384 . S
N2921 C2913 1.427 . S
N2921 C2919 1.384 . S
H2922 C2928 0.930 . S
H2923 C2932 0.930 . S
H2924 C2937 0.929 . S
H2925 C2935 0.929 . S
H2926 C2930 0.929 . S
H2927 C2936 0.929 . S
C2928 H2922 0.930 . S
C2928 C2929 1.367 . S
C2928 C2936 1.378 . S
C2929 C2928 1.367 . S
C2929 C2937 1.433 . S
C2930 H2926 0.929 . S
C2930 C2932 1.378 . S
C2930 C2934 1.350 . S
C2931 C2934 1.463 . S
C2931 C2936 1.350 . S
C2931 N2939 1.427 . S
C2932 H2923 0.930 . S
C2932 C2930 1.378 . S
C2932 C2933 1.367 . S
C2933 C2932 1.367 . S
C2933 C2935 1.433 . S
C2934 C2930 1.350 . S
C2934 C2931 1.463 . S
C2934 N2938 1.427 . S
C2935 H2925 0.929 . S
C2935 C2933 1.433 . S
C2935 N2938 1.384 . S
C2936 H2927 0.929 . S
C2936 C2928 1.378 . S
C2936 C2931 1.350 . S
C2937 H2924 0.929 . S
C2937 C2929 1.433 . S
C2937 N2939 1.384 . S
N2938 C2934 1.427 . S
N2938 C2935 1.384 . S
N2939 C2931 1.427 . S
N2939 C2937 1.384 . S
H2940 C2946 0.930 . S
H2941 C2950 0.930 . S
H2942 C2955 0.929 . S
H2943 C2953 0.929 . S
H2944 C2948 0.929 . S
H2945 C2954 0.929 . S
C2946 H2940 0.930 . S
C2946 C2947 1.367 . S
C2946 C2954 1.378 . S
C2947 C2946 1.367 . S
C2947 C2955 1.433 . S
C2948 H2944 0.929 . S
C2948 C2950 1.378 . S
C2948 C2952 1.350 . S
C2949 C2952 1.463 . S
C2949 C2954 1.350 . S
C2949 N2957 1.427 . S
C2950 H2941 0.930 . S
C2950 C2948 1.378 . S
C2950 C2951 1.367 . S
C2951 C2950 1.367 . S
C2951 C2953 1.433 . S
C2952 C2948 1.350 . S
C2952 C2949 1.463 . S
C2952 N2956 1.427 . S
C2953 H2943 0.929 . S
C2953 C2951 1.433 . S
C2953 N2956 1.384 . S
C2954 H2945 0.929 . S
C2954 C2946 1.378 . S
C2954 C2949 1.350 . S
C2955 H2942 0.929 . S
C2955 C2947 1.433 . S
C2955 N2957 1.384 . S
N2956 C2952 1.427 . S
N2956 C2953 1.384 . S
N2957 C2949 1.427 . S
N2957 C2955 1.384 . S
H2958 C2964 0.930 . S
H2959 C2968 0.930 . S
H2960 C2973 0.929 . S
H2961 C2971 0.929 . S
H2962 C2966 0.929 . S
H2963 C2972 0.929 . S
C2964 H2958 0.930 . S
C2964 C2965 1.367 . S
C2964 C2972 1.378 . S
C2965 C2964 1.367 . S
C2965 C2973 1.433 . S
C2966 H2962 0.929 . S
C2966 C2968 1.378 . S
C2966 C2970 1.350 . S
C2967 C2970 1.463 . S
C2967 C2972 1.350 . S
C2967 N2975 1.427 . S
C2968 H2959 0.930 . S
C2968 C2966 1.378 . S
C2968 C2969 1.367 . S
C2969 C2968 1.367 . S
C2969 C2971 1.433 . S
C2970 C2966 1.350 . S
C2970 C2967 1.463 . S
C2970 N2974 1.427 . S
C2971 H2961 0.929 . S
C2971 C2969 1.433 . S
C2971 N2974 1.384 . S
C2972 H2963 0.929 . S
C2972 C2964 1.378 . S
C2972 C2967 1.350 . S
C2973 H2960 0.929 . S
C2973 C2965 1.433 . S
C2973 N2975 1.384 . S
N2974 C2970 1.427 . S
N2974 C2971 1.384 . S
N2975 C2967 1.427 . S
N2975 C2973 1.384 . S
H2976 C2982 0.930 . S
H2977 C2986 0.930 . S
H2978 C2991 0.929 . S
H2979 C2989 0.929 . S
H2980 C2984 0.929 . S
H2981 C2990 0.929 . S
C2982 H2976 0.930 . S
C2982 C2983 1.367 . S
C2982 C2990 1.378 . S
C2983 C2982 1.367 . S
C2983 C2991 1.433 . S
C2984 H2980 0.929 . S
C2984 C2986 1.378 . S
C2984 C2988 1.350 . S
C2985 C2988 1.463 1_455 S
C2985 C2990 1.350 . S
C2985 N2993 1.427 . S
C2986 H2977 0.930 . S
C2986 C2984 1.378 . S
C2986 C2987 1.367 . S
C2987 C2986 1.367 . S
C2987 C2989 1.433 . S
C2988 C2984 1.350 . S
C2988 C2985 1.463 1_655 S
C2988 N2992 1.427 . S
C2989 H2979 0.929 . S
C2989 C2987 1.433 . S
C2989 N2992 1.384 . S
C2990 H2981 0.929 . S
C2990 C2982 1.378 . S
C2990 C2985 1.350 . S
C2991 H2978 0.929 . S
C2991 C2983 1.433 . S
C2991 N2993 1.384 . S
N2992 C2988 1.427 . S
N2992 C2989 1.384 . S
N2993 C2985 1.427 . S
N2993 C2991 1.384 . S
H2994 C3000 0.930 . S
H2995 C3004 0.930 . S
H2996 C3009 0.929 . S
H2997 C3007 0.929 . S
H2998 C3002 0.929 . S
H2999 C3008 0.929 . S
C3000 H2994 0.930 . S
C3000 C3001 1.367 . S
C3000 C3008 1.378 . S
C3001 C3000 1.367 . S
C3001 C3009 1.433 . S
C3002 H2998 0.929 . S
C3002 C3004 1.378 . S
C3002 C3006 1.350 . S
C3003 C3006 1.463 1_565 S
C3003 C3008 1.350 . S
C3003 N3011 1.427 . S
C3004 H2995 0.930 . S
C3004 C3002 1.378 . S
C3004 C3005 1.367 . S
C3005 C3004 1.367 . S
C3005 C3007 1.433 . S
C3006 C3002 1.350 . S
C3006 C3003 1.463 1_545 S
C3006 N3010 1.427 . S
C3007 H2997 0.929 . S
C3007 C3005 1.433 . S
C3007 N3010 1.384 . S
C3008 H2999 0.929 . S
C3008 C3000 1.378 . S
C3008 C3003 1.350 . S
C3009 H2996 0.929 . S
C3009 C3001 1.433 . S
C3009 N3011 1.384 . S
N3010 C3006 1.427 . S
N3010 C3007 1.384 . S
N3011 C3003 1.427 . S
N3011 C3009 1.384 . S
H3012 C3018 0.930 . S
H3013 C3022 0.930 . S
H3014 C3027 0.929 . S
H3015 C3025 0.929 . S
H3016 C3020 0.929 . S
H3017 C3026 0.929 . S
C3018 H3012 0.930 . S
C3018 C3019 1.367 . S
C3018 C3026 1.378 . S
C3019 C3018 1.367 . S
C3019 C3027 1.433 . S
C3020 H3016 0.929 . S
C3020 C3022 1.378 . S
C3020 C3024 1.350 . S
C3021 C3024 1.463 1_655 S
C3021 C3026 1.350 . S
C3021 N3029 1.427 . S
C3022 H3013 0.930 . S
C3022 C3020 1.378 . S
C3022 C3023 1.367 . S
C3023 C3022 1.367 . S
C3023 C3025 1.433 . S
C3024 C3020 1.350 . S
C3024 C3021 1.463 1_455 S
C3024 N3028 1.427 . S
C3025 H3015 0.929 . S
C3025 C3023 1.433 . S
C3025 N3028 1.384 . S
C3026 H3017 0.929 . S
C3026 C3018 1.378 . S
C3026 C3021 1.350 . S
C3027 H3014 0.929 . S
C3027 C3019 1.433 . S
C3027 N3029 1.384 . S
N3028 C3024 1.427 . S
N3028 C3025 1.384 . S
N3029 C3021 1.427 . S
N3029 C3027 1.384 . S
H3030 C3036 0.930 . S
H3031 C3040 0.930 . S
H3032 C3045 0.929 . S
H3033 C3043 0.929 . S
H3034 C3038 0.929 . S
H3035 C3044 0.929 . S
C3036 H3030 0.930 . S
C3036 C3037 1.367 . S
C3036 C3044 1.378 . S
C3037 C3036 1.367 . S
C3037 C3045 1.433 . S
C3038 H3034 0.929 . S
C3038 C3040 1.378 . S
C3038 C3042 1.350 . S
C3039 C3042 1.463 1_545 S
C3039 C3044 1.350 . S
C3039 N3047 1.427 . S
C3040 H3031 0.930 . S
C3040 C3038 1.378 . S
C3040 C3041 1.367 . S
C3041 C3040 1.367 . S
C3041 C3043 1.433 . S
C3042 C3038 1.350 . S
C3042 C3039 1.463 1_565 S
C3042 N3046 1.427 . S
C3043 H3033 0.929 . S
C3043 C3041 1.433 . S
C3043 N3046 1.384 . S
C3044 H3035 0.929 . S
C3044 C3036 1.378 . S
C3044 C3039 1.350 . S
C3045 H3032 0.929 . S
C3045 C3037 1.433 . S
C3045 N3047 1.384 . S
N3046 C3042 1.427 . S
N3046 C3043 1.384 . S
N3047 C3039 1.427 . S
N3047 C3045 1.384 . S
H3048 C3054 0.930 . S
H3049 C3058 0.930 . S
H3050 C3063 0.929 . S
H3051 C3061 0.929 . S
H3052 C3056 0.929 . S
H3053 C3062 0.929 . S
C3054 H3048 0.930 . S
C3054 C3055 1.367 . S
C3054 C3062 1.378 . S
C3055 C3054 1.367 . S
C3055 C3063 1.433 . S
C3056 H3052 0.929 . S
C3056 C3058 1.378 . S
C3056 C3060 1.350 . S
C3057 C3060 1.463 1_455 S
C3057 C3062 1.350 . S
C3057 N3065 1.427 . S
C3058 H3049 0.930 . S
C3058 C3056 1.378 . S
C3058 C3059 1.367 . S
C3059 C3058 1.367 . S
C3059 C3061 1.433 . S
C3060 C3056 1.350 . S
C3060 C3057 1.463 1_655 S
C3060 N3064 1.427 . S
C3061 H3051 0.929 . S
C3061 C3059 1.433 . S
C3061 N3064 1.384 . S
C3062 H3053 0.929 . S
C3062 C3054 1.378 . S
C3062 C3057 1.350 . S
C3063 H3050 0.929 . S
C3063 C3055 1.433 . S
C3063 N3065 1.384 . S
N3064 C3060 1.427 . S
N3064 C3061 1.384 . S
N3065 C3057 1.427 . S
N3065 C3063 1.384 . S
H3066 C3072 0.930 . S
H3067 C3076 0.930 . S
H3068 C3081 0.929 . S
H3069 C3079 0.929 . S
H3070 C3074 0.929 . S
H3071 C3080 0.929 . S
C3072 H3066 0.930 . S
C3072 C3073 1.367 . S
C3072 C3080 1.378 . S
C3073 C3072 1.367 . S
C3073 C3081 1.433 . S
C3074 H3070 0.929 . S
C3074 C3076 1.378 . S
C3074 C3078 1.350 . S
C3075 C3078 1.463 1_545 S
C3075 C3080 1.350 . S
C3075 N3083 1.427 . S
C3076 H3067 0.930 . S
C3076 C3074 1.378 . S
C3076 C3077 1.367 . S
C3077 C3076 1.367 . S
C3077 C3079 1.433 . S
C3078 C3074 1.350 . S
C3078 C3075 1.463 1_565 S
C3078 N3082 1.427 . S
C3079 H3069 0.929 . S
C3079 C3077 1.433 . S
C3079 N3082 1.384 . S
C3080 H3071 0.929 . S
C3080 C3072 1.378 . S
C3080 C3075 1.350 . S
C3081 H3068 0.929 . S
C3081 C3073 1.433 . S
C3081 N3083 1.384 . S
N3082 C3078 1.427 . S
N3082 C3079 1.384 . S
N3083 C3075 1.427 . S
N3083 C3081 1.384 . S
H3084 C3090 0.930 . S
H3085 C3094 0.930 . S
H3086 C3099 0.929 . S
H3087 C3097 0.929 . S
H3088 C3092 0.929 . S
H3089 C3098 0.929 . S
C3090 H3084 0.930 . S
C3090 C3091 1.367 . S
C3090 C3098 1.378 . S
C3091 C3090 1.367 . S
C3091 C3099 1.433 . S
C3092 H3088 0.929 . S
C3092 C3094 1.378 . S
C3092 C3096 1.350 . S
C3093 C3096 1.463 1_655 S
C3093 C3098 1.350 . S
C3093 N3101 1.427 . S
C3094 H3085 0.930 . S
C3094 C3092 1.378 . S
C3094 C3095 1.367 . S
C3095 C3094 1.367 . S
C3095 C3097 1.433 . S
C3096 C3092 1.350 . S
C3096 C3093 1.463 1_455 S
C3096 N3100 1.427 . S
C3097 H3087 0.929 . S
C3097 C3095 1.433 . S
C3097 N3100 1.384 . S
C3098 H3089 0.929 . S
C3098 C3090 1.378 . S
C3098 C3093 1.350 . S
C3099 H3086 0.929 . S
C3099 C3091 1.433 . S
C3099 N3101 1.384 . S
N3100 C3096 1.427 . S
N3100 C3097 1.384 . S
N3101 C3093 1.427 . S
N3101 C3099 1.384 . S
H3102 C3108 0.930 . S
H3103 C3112 0.930 . S
H3104 C3117 0.929 . S
H3105 C3115 0.929 . S
H3106 C3110 0.929 . S
H3107 C3116 0.929 . S
C3108 H3102 0.930 . S
C3108 C3109 1.367 . S
C3108 C3116 1.378 . S
C3109 C3108 1.367 . S
C3109 C3117 1.433 . S
C3110 H3106 0.929 . S
C3110 C3112 1.378 . S
C3110 C3114 1.350 . S
C3111 C3114 1.463 1_545 S
C3111 C3116 1.350 . S
C3111 N3119 1.427 . S
C3112 H3103 0.930 . S
C3112 C3110 1.378 . S
C3112 C3113 1.367 . S
C3113 C3112 1.367 . S
C3113 C3115 1.433 . S
C3114 C3110 1.350 . S
C3114 C3111 1.463 1_565 S
C3114 N3118 1.427 . S
C3115 H3105 0.929 . S
C3115 C3113 1.433 . S
C3115 N3118 1.384 . S
C3116 H3107 0.929 . S
C3116 C3108 1.378 . S
C3116 C3111 1.350 . S
C3117 H3104 0.929 . S
C3117 C3109 1.433 . S
C3117 N3119 1.384 . S
N3118 C3114 1.427 . S
N3118 C3115 1.384 . S
N3119 C3111 1.427 . S
N3119 C3117 1.384 . S
H3120 C3126 0.930 . S
H3121 C3130 0.930 . S
H3122 C3135 0.929 . S
H3123 C3133 0.929 . S
H3124 C3128 0.929 . S
H3125 C3134 0.929 . S
C3126 H3120 0.930 . S
C3126 C3127 1.367 . S
C3126 C3134 1.378 . S
C3127 C3126 1.367 . S
C3127 C3135 1.433 . S
C3128 H3124 0.929 . S
C3128 C3130 1.378 . S
C3128 C3132 1.350 . S
C3129 C3132 1.463 1_565 S
C3129 C3134 1.350 . S
C3129 N3137 1.427 . S
C3130 H3121 0.930 . S
C3130 C3128 1.378 . S
C3130 C3131 1.367 . S
C3131 C3130 1.367 . S
C3131 C3133 1.433 . S
C3132 C3128 1.350 . S
C3132 C3129 1.463 1_545 S
C3132 N3136 1.427 . S
C3133 H3123 0.929 . S
C3133 C3131 1.433 . S
C3133 N3136 1.384 . S
C3134 H3125 0.929 . S
C3134 C3126 1.378 . S
C3134 C3129 1.350 . S
C3135 H3122 0.929 . S
C3135 C3127 1.433 . S
C3135 N3137 1.384 . S
N3136 C3132 1.427 . S
N3136 C3133 1.384 . S
N3137 C3129 1.427 . S
N3137 C3135 1.384 . S
H3138 C3144 0.930 . S
H3139 C3148 0.930 . S
H3140 C3153 0.929 . S
H3141 C3151 0.929 . S
H3142 C3146 0.929 . S
H3143 C3152 0.929 . S
C3144 H3138 0.930 . S
C3144 C3145 1.367 . S
C3144 C3152 1.378 . S
C3145 C3144 1.367 . S
C3145 C3153 1.433 . S
C3146 H3142 0.929 . S
C3146 C3148 1.378 . S
C3146 C3150 1.350 . S
C3147 C3150 1.463 1_655 S
C3147 C3152 1.350 . S
C3147 N3155 1.427 . S
C3148 H3139 0.930 . S
C3148 C3146 1.378 . S
C3148 C3149 1.367 . S
C3149 C3148 1.367 . S
C3149 C3151 1.433 . S
C3150 C3146 1.350 . S
C3150 C3147 1.463 1_455 S
C3150 N3154 1.427 . S
C3151 H3141 0.929 . S
C3151 C3149 1.433 . S
C3151 N3154 1.384 . S
C3152 H3143 0.929 . S
C3152 C3144 1.378 . S
C3152 C3147 1.350 . S
C3153 H3140 0.929 . S
C3153 C3145 1.433 . S
C3153 N3155 1.384 . S
N3154 C3150 1.427 . S
N3154 C3151 1.384 . S
N3155 C3147 1.427 . S
N3155 C3153 1.384 . S
H3156 C3162 0.930 . S
H3157 C3166 0.930 . S
H3158 C3171 0.929 . S
H3159 C3169 0.929 . S
H3160 C3164 0.929 . S
H3161 C3170 0.929 . S
C3162 H3156 0.930 . S
C3162 C3163 1.367 . S
C3162 C3170 1.378 . S
C3163 C3162 1.367 . S
C3163 C3171 1.433 . S
C3164 H3160 0.929 . S
C3164 C3166 1.378 . S
C3164 C3168 1.350 . S
C3165 C3168 1.463 1_565 S
C3165 C3170 1.350 . S
C3165 N3173 1.427 . S
C3166 H3157 0.930 . S
C3166 C3164 1.378 . S
C3166 C3167 1.367 . S
C3167 C3166 1.367 . S
C3167 C3169 1.433 . S
C3168 C3164 1.350 . S
C3168 C3165 1.463 1_545 S
C3168 N3172 1.427 . S
C3169 H3159 0.929 . S
C3169 C3167 1.433 . S
C3169 N3172 1.384 . S
C3170 H3161 0.929 . S
C3170 C3162 1.378 . S
C3170 C3165 1.350 . S
C3171 H3158 0.929 . S
C3171 C3163 1.433 . S
C3171 N3173 1.384 . S
N3172 C3168 1.427 . S
N3172 C3169 1.384 . S
N3173 C3165 1.427 . S
N3173 C3171 1.384 . S
H3174 C3180 0.930 . S
H3175 C3184 0.930 . S
H3176 C3189 0.929 . S
H3177 C3187 0.929 . S
H3178 C3182 0.929 . S
H3179 C3188 0.929 . S
C3180 H3174 0.930 . S
C3180 C3181 1.367 . S
C3180 C3188 1.378 . S
C3181 C3180 1.367 . S
C3181 C3189 1.433 . S
C3182 H3178 0.929 . S
C3182 C3184 1.378 . S
C3182 C3186 1.350 . S
C3183 C3186 1.463 1_455 S
C3183 C3188 1.350 . S
C3183 N3191 1.427 . S
C3184 H3175 0.930 . S
C3184 C3182 1.378 . S
C3184 C3185 1.367 . S
C3185 C3184 1.367 . S
C3185 C3187 1.433 . S
C3186 C3182 1.350 . S
C3186 C3183 1.463 1_655 S
C3186 N3190 1.427 . S
C3187 H3177 0.929 . S
C3187 C3185 1.433 . S
C3187 N3190 1.384 . S
C3188 H3179 0.929 . S
C3188 C3180 1.378 . S
C3188 C3183 1.350 . S
C3189 H3176 0.929 . S
C3189 C3181 1.433 . S
C3189 N3191 1.384 . S
N3190 C3186 1.427 . S
N3190 C3187 1.384 . S
N3191 C3183 1.427 . S
N3191 C3189 1.384 . S
H3192 C3198 0.930 . S
H3193 C3202 0.930 . S
H3194 C3207 0.929 . S
H3195 C3205 0.929 . S
H3196 C3200 0.929 . S
H3197 C3206 0.929 . S
C3198 H3192 0.930 . S
C3198 C3199 1.367 . S
C3198 C3206 1.378 . S
C3199 C3198 1.367 . S
C3199 C3207 1.433 . S
C3200 H3196 0.929 . S
C3200 C3202 1.378 . S
C3200 C3204 1.350 . S
C3201 C3204 1.463 1_565 S
C3201 C3206 1.350 . S
C3201 N3209 1.427 . S
C3202 H3193 0.930 . S
C3202 C3200 1.378 . S
C3202 C3203 1.367 . S
C3203 C3202 1.367 . S
C3203 C3205 1.433 . S
C3204 C3200 1.350 . S
C3204 C3201 1.463 1_545 S
C3204 N3208 1.427 . S
C3205 H3195 0.929 . S
C3205 C3203 1.433 . S
C3205 N3208 1.384 . S
C3206 H3197 0.929 . S
C3206 C3198 1.378 . S
C3206 C3201 1.350 . S
C3207 H3194 0.929 . S
C3207 C3199 1.433 . S
C3207 N3209 1.384 . S
N3208 C3204 1.427 . S
N3208 C3205 1.384 . S
N3209 C3201 1.427 . S
N3209 C3207 1.384 . S
H3210 C3216 0.930 . S
H3211 C3220 0.930 . S
H3212 C3225 0.929 . S
H3213 C3223 0.929 . S
H3214 C3218 0.929 . S
H3215 C3224 0.929 . S
C3216 H3210 0.930 . S
C3216 C3217 1.367 . S
C3216 C3224 1.378 . S
C3217 C3216 1.367 . S
C3217 C3225 1.433 . S
C3218 H3214 0.929 . S
C3218 C3220 1.378 . S
C3218 C3222 1.350 . S
C3219 C3222 1.463 1_455 S
C3219 C3224 1.350 . S
C3219 N3227 1.427 . S
C3220 H3211 0.930 . S
C3220 C3218 1.378 . S
C3220 C3221 1.367 . S
C3221 C3220 1.367 . S
C3221 C3223 1.433 . S
C3222 C3218 1.350 . S
C3222 C3219 1.463 1_655 S
C3222 N3226 1.427 . S
C3223 H3213 0.929 . S
C3223 C3221 1.433 . S
C3223 N3226 1.384 . S
C3224 H3215 0.929 . S
C3224 C3216 1.378 . S
C3224 C3219 1.350 . S
C3225 H3212 0.929 . S
C3225 C3217 1.433 . S
C3225 N3227 1.384 . S
N3226 C3222 1.427 . S
N3226 C3223 1.384 . S
N3227 C3219 1.427 . S
N3227 C3225 1.384 . S
H3228 C3234 0.930 . S
H3229 C3238 0.930 . S
H3230 C3243 0.929 . S
H3231 C3241 0.929 . S
H3232 C3236 0.929 . S
H3233 C3242 0.929 . S
C3234 H3228 0.930 . S
C3234 C3235 1.367 . S
C3234 C3242 1.378 . S
C3235 C3234 1.367 . S
C3235 C3243 1.433 . S
C3236 H3232 0.929 . S
C3236 C3238 1.378 . S
C3236 C3240 1.350 . S
C3237 C3240 1.463 1_545 S
C3237 C3242 1.350 . S
C3237 N3245 1.427 . S
C3238 H3229 0.930 . S
C3238 C3236 1.378 . S
C3238 C3239 1.367 . S
C3239 C3238 1.367 . S
C3239 C3241 1.433 . S
C3240 C3236 1.350 . S
C3240 C3237 1.463 1_565 S
C3240 N3244 1.427 . S
C3241 H3231 0.929 . S
C3241 C3239 1.433 . S
C3241 N3244 1.384 . S
C3242 H3233 0.929 . S
C3242 C3234 1.378 . S
C3242 C3237 1.350 . S
C3243 H3230 0.929 . S
C3243 C3235 1.433 . S
C3243 N3245 1.384 . S
N3244 C3240 1.427 . S
N3244 C3241 1.384 . S
N3245 C3237 1.427 . S
N3245 C3243 1.384 . S
H3246 C3252 0.930 . S
H3247 C3256 0.930 . S
H3248 C3261 0.929 . S
H3249 C3259 0.929 . S
H3250 C3254 0.929 . S
H3251 C3260 0.929 . S
C3252 H3246 0.930 . S
C3252 C3253 1.367 . S
C3252 C3260 1.378 . S
C3253 C3252 1.367 . S
C3253 C3261 1.433 . S
C3254 H3250 0.929 . S
C3254 C3256 1.378 . S
C3254 C3258 1.350 . S
C3255 C3258 1.463 1_655 S
C3255 C3260 1.350 . S
C3255 N3263 1.427 . S
C3256 H3247 0.930 . S
C3256 C3254 1.378 . S
C3256 C3257 1.367 . S
C3257 C3256 1.367 . S
C3257 C3259 1.433 . S
C3258 C3254 1.350 . S
C3258 C3255 1.463 1_455 S
C3258 N3262 1.427 . S
C3259 H3249 0.929 . S
C3259 C3257 1.433 . S
C3259 N3262 1.384 . S
C3260 H3251 0.929 . S
C3260 C3252 1.378 . S
C3260 C3255 1.350 . S
C3261 H3248 0.929 . S
C3261 C3253 1.433 . S
C3261 N3263 1.384 . S
N3262 C3258 1.427 . S
N3262 C3259 1.384 . S
N3263 C3255 1.427 . S
N3263 C3261 1.384 . S
H3264 C3270 0.930 . S
H3265 C3274 0.930 . S
H3266 C3279 0.929 . S
H3267 C3277 0.929 . S
H3268 C3272 0.929 . S
H3269 C3278 0.929 . S
C3270 H3264 0.930 . S
C3270 C3271 1.367 . S
C3270 C3278 1.378 . S
C3271 C3270 1.367 . S
C3271 C3279 1.433 . S
C3272 H3268 0.929 . S
C3272 C3274 1.378 . S
C3272 C3276 1.350 . S
C3273 C3276 1.463 1_554 S
C3273 C3278 1.350 . S
C3273 N3281 1.427 . S
C3274 H3265 0.930 . S
C3274 C3272 1.378 . S
C3274 C3275 1.367 . S
C3275 C3274 1.367 . S
C3275 C3277 1.433 . S
C3276 C3272 1.350 . S
C3276 C3273 1.463 1_556 S
C3276 N3280 1.427 . S
C3277 H3267 0.929 . S
C3277 C3275 1.433 . S
C3277 N3280 1.384 . S
C3278 H3269 0.929 . S
C3278 C3270 1.378 . S
C3278 C3273 1.350 . S
C3279 H3266 0.929 . S
C3279 C3271 1.433 . S
C3279 N3281 1.384 . S
N3280 C3276 1.427 . S
N3280 C3277 1.384 . S
N3281 C3273 1.427 . S
N3281 C3279 1.384 . S
H3282 C3288 0.930 . S
H3283 C3292 0.930 . S
H3284 C3297 0.929 . S
H3285 C3295 0.929 . S
H3286 C3290 0.929 . S
H3287 C3296 0.929 . S
C3288 H3282 0.930 . S
C3288 C3289 1.367 . S
C3288 C3296 1.378 . S
C3289 C3288 1.367 . S
C3289 C3297 1.433 . S
C3290 H3286 0.929 . S
C3290 C3292 1.378 . S
C3290 C3294 1.350 . S
C3291 C3294 1.463 1_556 S
C3291 C3296 1.350 . S
C3291 N3299 1.427 . S
C3292 H3283 0.930 . S
C3292 C3290 1.378 . S
C3292 C3293 1.367 . S
C3293 C3292 1.367 . S
C3293 C3295 1.433 . S
C3294 C3290 1.350 . S
C3294 C3291 1.463 1_554 S
C3294 N3298 1.427 . S
C3295 H3285 0.929 . S
C3295 C3293 1.433 . S
C3295 N3298 1.384 . S
C3296 H3287 0.929 . S
C3296 C3288 1.378 . S
C3296 C3291 1.350 . S
C3297 H3284 0.929 . S
C3297 C3289 1.433 . S
C3297 N3299 1.384 . S
N3298 C3294 1.427 . S
N3298 C3295 1.384 . S
N3299 C3291 1.427 . S
N3299 C3297 1.384 . S
H3300 C3306 0.930 . S
H3301 C3310 0.930 . S
H3302 C3315 0.929 . S
H3303 C3313 0.929 . S
H3304 C3308 0.929 . S
H3305 C3314 0.929 . S
C3306 H3300 0.930 . S
C3306 C3307 1.367 . S
C3306 C3314 1.378 . S
C3307 C3306 1.367 . S
C3307 C3315 1.433 . S
C3308 H3304 0.929 . S
C3308 C3310 1.378 . S
C3308 C3312 1.350 . S
C3309 C3312 1.463 1_554 S
C3309 C3314 1.350 . S
C3309 N3317 1.427 . S
C3310 H3301 0.930 . S
C3310 C3308 1.378 . S
C3310 C3311 1.367 . S
C3311 C3310 1.367 . S
C3311 C3313 1.433 . S
C3312 C3308 1.350 . S
C3312 C3309 1.463 1_556 S
C3312 N3316 1.427 . S
C3313 H3303 0.929 . S
C3313 C3311 1.433 . S
C3313 N3316 1.384 . S
C3314 H3305 0.929 . S
C3314 C3306 1.378 . S
C3314 C3309 1.350 . S
C3315 H3302 0.929 . S
C3315 C3307 1.433 . S
C3315 N3317 1.384 . S
N3316 C3312 1.427 . S
N3316 C3313 1.384 . S
N3317 C3309 1.427 . S
N3317 C3315 1.384 . S
H3318 C3324 0.930 . S
H3319 C3328 0.930 . S
H3320 C3333 0.929 . S
H3321 C3331 0.929 . S
H3322 C3326 0.929 . S
H3323 C3332 0.929 . S
C3324 H3318 0.930 . S
C3324 C3325 1.367 . S
C3324 C3332 1.378 . S
C3325 C3324 1.367 . S
C3325 C3333 1.433 . S
C3326 H3322 0.929 . S
C3326 C3328 1.378 . S
C3326 C3330 1.350 . S
C3327 C3330 1.463 1_556 S
C3327 C3332 1.350 . S
C3327 N3335 1.427 . S
C3328 H3319 0.930 . S
C3328 C3326 1.378 . S
C3328 C3329 1.367 . S
C3329 C3328 1.367 . S
C3329 C3331 1.433 . S
C3330 C3326 1.350 . S
C3330 C3327 1.463 1_554 S
C3330 N3334 1.427 . S
C3331 H3321 0.929 . S
C3331 C3329 1.433 . S
C3331 N3334 1.384 . S
C3332 H3323 0.929 . S
C3332 C3324 1.378 . S
C3332 C3327 1.350 . S
C3333 H3320 0.929 . S
C3333 C3325 1.433 . S
C3333 N3335 1.384 . S
N3334 C3330 1.427 . S
N3334 C3331 1.384 . S
N3335 C3327 1.427 . S
N3335 C3333 1.384 . S
H3336 C3342 0.930 . S
H3337 C3346 0.930 . S
H3338 C3351 0.929 . S
H3339 C3349 0.929 . S
H3340 C3344 0.929 . S
H3341 C3350 0.929 . S
C3342 H3336 0.930 . S
C3342 C3343 1.367 . S
C3342 C3350 1.378 . S
C3343 C3342 1.367 . S
C3343 C3351 1.433 . S
C3344 H3340 0.929 . S
C3344 C3346 1.378 . S
C3344 C3348 1.350 . S
C3345 C3348 1.463 1_554 S
C3345 C3350 1.350 . S
C3345 N3353 1.427 . S
C3346 H3337 0.930 . S
C3346 C3344 1.378 . S
C3346 C3347 1.367 . S
C3347 C3346 1.367 . S
C3347 C3349 1.433 . S
C3348 C3344 1.350 . S
C3348 C3345 1.463 1_556 S
C3348 N3352 1.427 . S
C3349 H3339 0.929 . S
C3349 C3347 1.433 . S
C3349 N3352 1.384 . S
C3350 H3341 0.929 . S
C3350 C3342 1.378 . S
C3350 C3345 1.350 . S
C3351 H3338 0.929 . S
C3351 C3343 1.433 . S
C3351 N3353 1.384 . S
N3352 C3348 1.427 . S
N3352 C3349 1.384 . S
N3353 C3345 1.427 . S
N3353 C3351 1.384 . S
H3354 C3360 0.930 . S
H3355 C3364 0.930 . S
H3356 C3369 0.929 . S
H3357 C3367 0.929 . S
H3358 C3362 0.929 . S
H3359 C3368 0.929 . S
C3360 H3354 0.930 . S
C3360 C3361 1.367 . S
C3360 C3368 1.378 . S
C3361 C3360 1.367 . S
C3361 C3369 1.433 . S
C3362 H3358 0.929 . S
C3362 C3364 1.378 . S
C3362 C3366 1.350 . S
C3363 C3366 1.463 1_554 S
C3363 C3368 1.350 . S
C3363 N3371 1.427 . S
C3364 H3355 0.930 . S
C3364 C3362 1.378 . S
C3364 C3365 1.367 . S
C3365 C3364 1.367 . S
C3365 C3367 1.433 . S
C3366 C3362 1.350 . S
C3366 C3363 1.463 1_556 S
C3366 N3370 1.427 . S
C3367 H3357 0.929 . S
C3367 C3365 1.433 . S
C3367 N3370 1.384 . S
C3368 H3359 0.929 . S
C3368 C3360 1.378 . S
C3368 C3363 1.350 . S
C3369 H3356 0.929 . S
C3369 C3361 1.433 . S
C3369 N3371 1.384 . S
N3370 C3366 1.427 . S
N3370 C3367 1.384 . S
N3371 C3363 1.427 . S
N3371 C3369 1.384 . S
H3372 C3378 0.930 . S
H3373 C3382 0.930 . S
H3374 C3387 0.929 . S
H3375 C3385 0.929 . S
H3376 C3380 0.929 . S
H3377 C3386 0.929 . S
C3378 H3372 0.930 . S
C3378 C3379 1.367 . S
C3378 C3386 1.378 . S
C3379 C3378 1.367 . S
C3379 C3387 1.433 . S
C3380 H3376 0.929 . S
C3380 C3382 1.378 . S
C3380 C3384 1.350 . S
C3381 C3384 1.463 1_554 S
C3381 C3386 1.350 . S
C3381 N3389 1.427 . S
C3382 H3373 0.930 . S
C3382 C3380 1.378 . S
C3382 C3383 1.367 . S
C3383 C3382 1.367 . S
C3383 C3385 1.433 . S
C3384 C3380 1.350 . S
C3384 C3381 1.463 1_556 S
C3384 N3388 1.427 . S
C3385 H3375 0.929 . S
C3385 C3383 1.433 . S
C3385 N3388 1.384 . S
C3386 H3377 0.929 . S
C3386 C3378 1.378 . S
C3386 C3381 1.350 . S
C3387 H3374 0.929 . S
C3387 C3379 1.433 . S
C3387 N3389 1.384 . S
N3388 C3384 1.427 . S
N3388 C3385 1.384 . S
N3389 C3381 1.427 . S
N3389 C3387 1.384 . S
H3390 C3396 0.930 . S
H3391 C3400 0.930 . S
H3392 C3405 0.929 . S
H3393 C3403 0.929 . S
H3394 C3398 0.929 . S
H3395 C3404 0.929 . S
C3396 H3390 0.930 . S
C3396 C3397 1.367 . S
C3396 C3404 1.378 . S
C3397 C3396 1.367 . S
C3397 C3405 1.433 . S
C3398 H3394 0.929 . S
C3398 C3400 1.378 . S
C3398 C3402 1.350 . S
C3399 C3402 1.463 1_556 S
C3399 C3404 1.350 . S
C3399 N3407 1.427 . S
C3400 H3391 0.930 . S
C3400 C3398 1.378 . S
C3400 C3401 1.367 . S
C3401 C3400 1.367 . S
C3401 C3403 1.433 . S
C3402 C3398 1.350 . S
C3402 C3399 1.463 1_554 S
C3402 N3406 1.427 . S
C3403 H3393 0.929 . S
C3403 C3401 1.433 . S
C3403 N3406 1.384 . S
C3404 H3395 0.929 . S
C3404 C3396 1.378 . S
C3404 C3399 1.350 . S
C3405 H3392 0.929 . S
C3405 C3397 1.433 . S
C3405 N3407 1.384 . S
N3406 C3402 1.427 . S
N3406 C3403 1.384 . S
N3407 C3399 1.427 . S
N3407 C3405 1.384 . S
H3408 C3414 0.930 . S
H3409 C3418 0.930 . S
H3410 C3423 0.929 . S
H3411 C3421 0.929 . S
H3412 C3416 0.929 . S
H3413 C3422 0.929 . S
C3414 H3408 0.930 . S
C3414 C3415 1.367 . S
C3414 C3422 1.378 . S
C3415 C3414 1.367 . S
C3415 C3423 1.433 . S
C3416 H3412 0.929 . S
C3416 C3418 1.378 . S
C3416 C3420 1.350 . S
C3417 C3420 1.463 . S
C3417 C3422 1.350 . S
C3417 N3425 1.427 . S
C3418 H3409 0.930 . S
C3418 C3416 1.378 . S
C3418 C3419 1.367 . S
C3419 C3418 1.367 . S
C3419 C3421 1.433 . S
C3420 C3416 1.350 . S
C3420 C3417 1.463 . S
C3420 N3424 1.427 . S
C3421 H3411 0.929 . S
C3421 C3419 1.433 . S
C3421 N3424 1.384 . S
C3422 H3413 0.929 . S
C3422 C3414 1.378 . S
C3422 C3417 1.350 . S
C3423 H3410 0.929 . S
C3423 C3415 1.433 . S
C3423 N3425 1.384 . S
N3424 C3420 1.427 . S
N3424 C3421 1.384 . S
N3425 C3417 1.427 . S
N3425 C3423 1.384 . S
H3426 C3432 0.930 . S
H3427 C3436 0.930 . S
H3428 C3441 0.929 . S
H3429 C3439 0.929 . S
H3430 C3434 0.929 . S
H3431 C3440 0.929 . S
C3432 H3426 0.930 . S
C3432 C3433 1.367 . S
C3432 C3440 1.378 . S
C3433 C3432 1.367 . S
C3433 C3441 1.433 . S
C3434 H3430 0.929 . S
C3434 C3436 1.378 . S
C3434 C3438 1.350 . S
C3435 C3438 1.463 . S
C3435 C3440 1.350 . S
C3435 N3443 1.427 . S
C3436 H3427 0.930 . S
C3436 C3434 1.378 . S
C3436 C3437 1.367 . S
C3437 C3436 1.367 . S
C3437 C3439 1.433 . S
C3438 C3434 1.350 . S
C3438 C3435 1.463 . S
C3438 N3442 1.427 . S
C3439 H3429 0.929 . S
C3439 C3437 1.433 . S
C3439 N3442 1.384 . S
C3440 H3431 0.929 . S
C3440 C3432 1.378 . S
C3440 C3435 1.350 . S
C3441 H3428 0.929 . S
C3441 C3433 1.433 . S
C3441 N3443 1.384 . S
N3442 C3438 1.427 . S
N3442 C3439 1.384 . S
N3443 C3435 1.427 . S
N3443 C3441 1.384 . S
H3444 C3450 0.930 . S
H3445 C3454 0.930 . S
H3446 C3459 0.929 . S
H3447 C3457 0.929 . S
H3448 C3452 0.929 . S
H3449 C3458 0.929 . S
C3450 H3444 0.930 . S
C3450 C3451 1.367 . S
C3450 C3458 1.378 . S
C3451 C3450 1.367 . S
C3451 C3459 1.433 . S
C3452 H3448 0.929 . S
C3452 C3454 1.378 . S
C3452 C3456 1.350 . S
C3453 C3456 1.463 . S
C3453 C3458 1.350 . S
C3453 N3461 1.427 . S
C3454 H3445 0.930 . S
C3454 C3452 1.378 . S
C3454 C3455 1.367 . S
C3455 C3454 1.367 . S
C3455 C3457 1.433 . S
C3456 C3452 1.350 . S
C3456 C3453 1.463 . S
C3456 N3460 1.427 . S
C3457 H3447 0.929 . S
C3457 C3455 1.433 . S
C3457 N3460 1.384 . S
C3458 H3449 0.929 . S
C3458 C3450 1.378 . S
C3458 C3453 1.350 . S
C3459 H3446 0.929 . S
C3459 C3451 1.433 . S
C3459 N3461 1.384 . S
N3460 C3456 1.427 . S
N3460 C3457 1.384 . S
N3461 C3453 1.427 . S
N3461 C3459 1.384 . S
H3462 C3468 0.930 . S
H3463 C3472 0.930 . S
H3464 C3477 0.929 . S
H3465 C3475 0.929 . S
H3466 C3470 0.929 . S
H3467 C3476 0.929 . S
C3468 H3462 0.930 . S
C3468 C3469 1.367 . S
C3468 C3476 1.378 . S
C3469 C3468 1.367 . S
C3469 C3477 1.433 . S
C3470 H3466 0.929 . S
C3470 C3472 1.378 . S
C3470 C3474 1.350 . S
C3471 C3474 1.463 . S
C3471 C3476 1.350 . S
C3471 N3479 1.427 . S
C3472 H3463 0.930 . S
C3472 C3470 1.378 . S
C3472 C3473 1.367 . S
C3473 C3472 1.367 . S
C3473 C3475 1.433 . S
C3474 C3470 1.350 . S
C3474 C3471 1.463 . S
C3474 N3478 1.427 . S
C3475 H3465 0.929 . S
C3475 C3473 1.433 . S
C3475 N3478 1.384 . S
C3476 H3467 0.929 . S
C3476 C3468 1.378 . S
C3476 C3471 1.350 . S
C3477 H3464 0.929 . S
C3477 C3469 1.433 . S
C3477 N3479 1.384 . S
N3478 C3474 1.427 . S
N3478 C3475 1.384 . S
N3479 C3471 1.427 . S
N3479 C3477 1.384 . S
H3480 C3486 0.930 . S
H3481 C3490 0.930 . S
H3482 C3495 0.929 . S
H3483 C3493 0.929 . S
H3484 C3488 0.929 . S
H3485 C3494 0.929 . S
C3486 H3480 0.930 . S
C3486 C3487 1.367 . S
C3486 C3494 1.378 . S
C3487 C3486 1.367 . S
C3487 C3495 1.433 . S
C3488 H3484 0.929 . S
C3488 C3490 1.378 . S
C3488 C3492 1.350 . S
C3489 C3492 1.463 . S
C3489 C3494 1.350 . S
C3489 N3497 1.427 . S
C3490 H3481 0.930 . S
C3490 C3488 1.378 . S
C3490 C3491 1.367 . S
C3491 C3490 1.367 . S
C3491 C3493 1.433 . S
C3492 C3488 1.350 . S
C3492 C3489 1.463 . S
C3492 N3496 1.427 . S
C3493 H3483 0.929 . S
C3493 C3491 1.433 . S
C3493 N3496 1.384 . S
C3494 H3485 0.929 . S
C3494 C3486 1.378 . S
C3494 C3489 1.350 . S
C3495 H3482 0.929 . S
C3495 C3487 1.433 . S
C3495 N3497 1.384 . S
N3496 C3492 1.427 . S
N3496 C3493 1.384 . S
N3497 C3489 1.427 . S
N3497 C3495 1.384 . S
H3498 C3504 0.930 . S
H3499 C3508 0.930 . S
H3500 C3513 0.929 . S
H3501 C3511 0.929 . S
H3502 C3506 0.929 . S
H3503 C3512 0.929 . S
C3504 H3498 0.930 . S
C3504 C3505 1.367 . S
C3504 C3512 1.378 . S
C3505 C3504 1.367 . S
C3505 C3513 1.433 . S
C3506 H3502 0.929 . S
C3506 C3508 1.378 . S
C3506 C3510 1.350 . S
C3507 C3510 1.463 . S
C3507 C3512 1.350 . S
C3507 N3515 1.427 . S
C3508 H3499 0.930 . S
C3508 C3506 1.378 . S
C3508 C3509 1.367 . S
C3509 C3508 1.367 . S
C3509 C3511 1.433 . S
C3510 C3506 1.350 . S
C3510 C3507 1.463 . S
C3510 N3514 1.427 . S
C3511 H3501 0.929 . S
C3511 C3509 1.433 . S
C3511 N3514 1.384 . S
C3512 H3503 0.929 . S
C3512 C3504 1.378 . S
C3512 C3507 1.350 . S
C3513 H3500 0.929 . S
C3513 C3505 1.433 . S
C3513 N3515 1.384 . S
N3514 C3510 1.427 . S
N3514 C3511 1.384 . S
N3515 C3507 1.427 . S
N3515 C3513 1.384 . S
H3516 C3522 0.930 . S
H3517 C3526 0.930 . S
H3518 C3531 0.929 . S
H3519 C3529 0.929 . S
H3520 C3524 0.929 . S
H3521 C3530 0.929 . S
C3522 H3516 0.930 . S
C3522 C3523 1.367 . S
C3522 C3530 1.378 . S
C3523 C3522 1.367 . S
C3523 C3531 1.433 . S
C3524 H3520 0.929 . S
C3524 C3526 1.378 . S
C3524 C3528 1.350 . S
C3525 C3528 1.463 . S
C3525 C3530 1.350 . S
C3525 N3533 1.427 . S
C3526 H3517 0.930 . S
C3526 C3524 1.378 . S
C3526 C3527 1.367 . S
C3527 C3526 1.367 . S
C3527 C3529 1.433 . S
C3528 C3524 1.350 . S
C3528 C3525 1.463 . S
C3528 N3532 1.427 . S
C3529 H3519 0.929 . S
C3529 C3527 1.433 . S
C3529 N3532 1.384 . S
C3530 H3521 0.929 . S
C3530 C3522 1.378 . S
C3530 C3525 1.350 . S
C3531 H3518 0.929 . S
C3531 C3523 1.433 . S
C3531 N3533 1.384 . S
N3532 C3528 1.427 . S
N3532 C3529 1.384 . S
N3533 C3525 1.427 . S
N3533 C3531 1.384 . S
H3534 C3540 0.930 . S
H3535 C3544 0.930 . S
H3536 C3549 0.929 . S
H3537 C3547 0.929 . S
H3538 C3542 0.929 . S
H3539 C3548 0.929 . S
C3540 H3534 0.930 . S
C3540 C3541 1.367 . S
C3540 C3548 1.378 . S
C3541 C3540 1.367 . S
C3541 C3549 1.433 . S
C3542 H3538 0.929 . S
C3542 C3544 1.378 . S
C3542 C3546 1.350 . S
C3543 C3546 1.463 . S
C3543 C3548 1.350 . S
C3543 N3551 1.427 . S
C3544 H3535 0.930 . S
C3544 C3542 1.378 . S
C3544 C3545 1.367 . S
C3545 C3544 1.367 . S
C3545 C3547 1.433 . S
C3546 C3542 1.350 . S
C3546 C3543 1.463 . S
C3546 N3550 1.427 . S
C3547 H3537 0.929 . S
C3547 C3545 1.433 . S
C3547 N3550 1.384 . S
C3548 H3539 0.929 . S
C3548 C3540 1.378 . S
C3548 C3543 1.350 . S
C3549 H3536 0.929 . S
C3549 C3541 1.433 . S
C3549 N3551 1.384 . S
N3550 C3546 1.427 . S
N3550 C3547 1.384 . S
N3551 C3543 1.427 . S
N3551 C3549 1.384 . S
H3552 C3558 0.930 . S
H3553 C3562 0.930 . S
H3554 C3567 0.929 . S
H3555 C3565 0.929 . S
H3556 C3560 0.929 . S
H3557 C3566 0.929 . S
C3558 H3552 0.930 . S
C3558 C3559 1.367 . S
C3558 C3566 1.378 . S
C3559 C3558 1.367 . S
C3559 C3567 1.433 . S
C3560 H3556 0.929 . S
C3560 C3562 1.378 . S
C3560 C3564 1.350 . S
C3561 C3564 1.463 . S
C3561 C3566 1.350 . S
C3561 N3569 1.427 . S
C3562 H3553 0.930 . S
C3562 C3560 1.378 . S
C3562 C3563 1.367 . S
C3563 C3562 1.367 . S
C3563 C3565 1.433 . S
C3564 C3560 1.350 . S
C3564 C3561 1.463 . S
C3564 N3568 1.427 . S
C3565 H3555 0.929 . S
C3565 C3563 1.433 . S
C3565 N3568 1.384 . S
C3566 H3557 0.929 . S
C3566 C3558 1.378 . S
C3566 C3561 1.350 . S
C3567 H3554 0.929 . S
C3567 C3559 1.433 . S
C3567 N3569 1.384 . S
N3568 C3564 1.427 . S
N3568 C3565 1.384 . S
N3569 C3561 1.427 . S
N3569 C3567 1.384 . S
H3570 C3576 0.930 . S
H3571 C3580 0.930 . S
H3572 C3585 0.929 . S
H3573 C3583 0.929 . S
H3574 C3578 0.929 . S
H3575 C3584 0.929 . S
C3576 H3570 0.930 . S
C3576 C3577 1.367 . S
C3576 C3584 1.378 . S
C3577 C3576 1.367 . S
C3577 C3585 1.433 . S
C3578 H3574 0.929 . S
C3578 C3580 1.378 . S
C3578 C3582 1.350 . S
C3579 C3582 1.463 . S
C3579 C3584 1.350 . S
C3579 N3587 1.427 . S
C3580 H3571 0.930 . S
C3580 C3578 1.378 . S
C3580 C3581 1.367 . S
C3581 C3580 1.367 . S
C3581 C3583 1.433 . S
C3582 C3578 1.350 . S
C3582 C3579 1.463 . S
C3582 N3586 1.427 . S
C3583 H3573 0.929 . S
C3583 C3581 1.433 . S
C3583 N3586 1.384 . S
C3584 H3575 0.929 . S
C3584 C3576 1.378 . S
C3584 C3579 1.350 . S
C3585 H3572 0.929 . S
C3585 C3577 1.433 . S
C3585 N3587 1.384 . S
N3586 C3582 1.427 . S
N3586 C3583 1.384 . S
N3587 C3579 1.427 . S
N3587 C3585 1.384 . S
H3588 C3594 0.930 . S
H3589 C3598 0.930 . S
H3590 C3603 0.929 . S
H3591 C3601 0.929 . S
H3592 C3596 0.929 . S
H3593 C3602 0.929 . S
C3594 H3588 0.930 . S
C3594 C3595 1.367 . S
C3594 C3602 1.378 . S
C3595 C3594 1.367 . S
C3595 C3603 1.433 . S
C3596 H3592 0.929 . S
C3596 C3598 1.378 . S
C3596 C3600 1.350 . S
C3597 C3600 1.463 . S
C3597 C3602 1.350 . S
C3597 N3605 1.427 . S
C3598 H3589 0.930 . S
C3598 C3596 1.378 . S
C3598 C3599 1.367 . S
C3599 C3598 1.367 . S
C3599 C3601 1.433 . S
C3600 C3596 1.350 . S
C3600 C3597 1.463 . S
C3600 N3604 1.427 . S
C3601 H3591 0.929 . S
C3601 C3599 1.433 . S
C3601 N3604 1.384 . S
C3602 H3593 0.929 . S
C3602 C3594 1.378 . S
C3602 C3597 1.350 . S
C3603 H3590 0.929 . S
C3603 C3595 1.433 . S
C3603 N3605 1.384 . S
N3604 C3600 1.427 . S
N3604 C3601 1.384 . S
N3605 C3597 1.427 . S
N3605 C3603 1.384 . S
H3606 C3612 0.930 . S
H3607 C3616 0.930 . S
H3608 C3621 0.929 . S
H3609 C3619 0.929 . S
H3610 C3614 0.929 . S
H3611 C3620 0.929 . S
C3612 H3606 0.930 . S
C3612 C3613 1.367 . S
C3612 C3620 1.378 . S
C3613 C3612 1.367 . S
C3613 C3621 1.433 . S
C3614 H3610 0.929 . S
C3614 C3616 1.378 . S
C3614 C3618 1.350 . S
C3615 C3618 1.463 . S
C3615 C3620 1.350 . S
C3615 N3623 1.427 . S
C3616 H3607 0.930 . S
C3616 C3614 1.378 . S
C3616 C3617 1.367 . S
C3617 C3616 1.367 . S
C3617 C3619 1.433 . S
C3618 C3614 1.350 . S
C3618 C3615 1.463 . S
C3618 N3622 1.427 . S
C3619 H3609 0.929 . S
C3619 C3617 1.433 . S
C3619 N3622 1.384 . S
C3620 H3611 0.929 . S
C3620 C3612 1.378 . S
C3620 C3615 1.350 . S
C3621 H3608 0.929 . S
C3621 C3613 1.433 . S
C3621 N3623 1.384 . S
N3622 C3618 1.427 . S
N3622 C3619 1.384 . S
N3623 C3615 1.427 . S
N3623 C3621 1.384 . S
H3624 C3630 0.930 . S
H3625 C3634 0.930 . S
H3626 C3639 0.929 . S
H3627 C3637 0.929 . S
H3628 C3632 0.929 . S
H3629 C3638 0.929 . S
C3630 H3624 0.930 . S
C3630 C3631 1.367 . S
C3630 C3638 1.378 . S
C3631 C3630 1.367 . S
C3631 C3639 1.433 . S
C3632 H3628 0.929 . S
C3632 C3634 1.378 . S
C3632 C3636 1.350 . S
C3633 C3636 1.463 . S
C3633 C3638 1.350 . S
C3633 N3641 1.427 . S
C3634 H3625 0.930 . S
C3634 C3632 1.378 . S
C3634 C3635 1.367 . S
C3635 C3634 1.367 . S
C3635 C3637 1.433 . S
C3636 C3632 1.350 . S
C3636 C3633 1.463 . S
C3636 N3640 1.427 . S
C3637 H3627 0.929 . S
C3637 C3635 1.433 . S
C3637 N3640 1.384 . S
C3638 H3629 0.929 . S
C3638 C3630 1.378 . S
C3638 C3633 1.350 . S
C3639 H3626 0.929 . S
C3639 C3631 1.433 . S
C3639 N3641 1.384 . S
N3640 C3636 1.427 . S
N3640 C3637 1.384 . S
N3641 C3633 1.427 . S
N3641 C3639 1.384 . S
H3642 C3648 0.930 . S
H3643 C3652 0.930 . S
H3644 C3657 0.929 . S
H3645 C3655 0.929 . S
H3646 C3650 0.929 . S
H3647 C3656 0.929 . S
C3648 H3642 0.930 . S
C3648 C3649 1.367 . S
C3648 C3656 1.378 . S
C3649 C3648 1.367 . S
C3649 C3657 1.433 . S
C3650 H3646 0.929 . S
C3650 C3652 1.378 . S
C3650 C3654 1.350 . S
C3651 C3654 1.463 . S
C3651 C3656 1.350 . S
C3651 N3659 1.427 . S
C3652 H3643 0.930 . S
C3652 C3650 1.378 . S
C3652 C3653 1.367 . S
C3653 C3652 1.367 . S
C3653 C3655 1.433 . S
C3654 C3650 1.350 . S
C3654 C3651 1.463 . S
C3654 N3658 1.427 . S
C3655 H3645 0.929 . S
C3655 C3653 1.433 . S
C3655 N3658 1.384 . S
C3656 H3647 0.929 . S
C3656 C3648 1.378 . S
C3656 C3651 1.350 . S
C3657 H3644 0.929 . S
C3657 C3649 1.433 . S
C3657 N3659 1.384 . S
N3658 C3654 1.427 . S
N3658 C3655 1.384 . S
N3659 C3651 1.427 . S
N3659 C3657 1.384 . S
H3660 C3666 0.930 . S
H3661 C3670 0.930 . S
H3662 C3675 0.929 . S
H3663 C3673 0.929 . S
H3664 C3668 0.929 . S
H3665 C3674 0.929 . S
C3666 H3660 0.930 . S
C3666 C3667 1.367 . S
C3666 C3674 1.378 . S
C3667 C3666 1.367 . S
C3667 C3675 1.433 . S
C3668 H3664 0.929 . S
C3668 C3670 1.378 . S
C3668 C3672 1.350 . S
C3669 C3672 1.463 . S
C3669 C3674 1.350 . S
C3669 N3677 1.427 . S
C3670 H3661 0.930 . S
C3670 C3668 1.378 . S
C3670 C3671 1.367 . S
C3671 C3670 1.367 . S
C3671 C3673 1.433 . S
C3672 C3668 1.350 . S
C3672 C3669 1.463 . S
C3672 N3676 1.427 . S
C3673 H3663 0.929 . S
C3673 C3671 1.433 . S
C3673 N3676 1.384 . S
C3674 H3665 0.929 . S
C3674 C3666 1.378 . S
C3674 C3669 1.350 . S
C3675 H3662 0.929 . S
C3675 C3667 1.433 . S
C3675 N3677 1.384 . S
N3676 C3672 1.427 . S
N3676 C3673 1.384 . S
N3677 C3669 1.427 . S
N3677 C3675 1.384 . S
H3678 C3684 0.930 . S
H3679 C3688 0.930 . S
H3680 C3693 0.929 . S
H3681 C3691 0.929 . S
H3682 C3686 0.929 . S
H3683 C3692 0.929 . S
C3684 H3678 0.930 . S
C3684 C3685 1.367 . S
C3684 C3692 1.378 . S
C3685 C3684 1.367 . S
C3685 C3693 1.433 . S
C3686 H3682 0.929 . S
C3686 C3688 1.378 . S
C3686 C3690 1.350 . S
C3687 C3690 1.463 . S
C3687 C3692 1.350 . S
C3687 N3695 1.427 . S
C3688 H3679 0.930 . S
C3688 C3686 1.378 . S
C3688 C3689 1.367 . S
C3689 C3688 1.367 . S
C3689 C3691 1.433 . S
C3690 C3686 1.350 . S
C3690 C3687 1.463 . S
C3690 N3694 1.427 . S
C3691 H3681 0.929 . S
C3691 C3689 1.433 . S
C3691 N3694 1.384 . S
C3692 H3683 0.929 . S
C3692 C3684 1.378 . S
C3692 C3687 1.350 . S
C3693 H3680 0.929 . S
C3693 C3685 1.433 . S
C3693 N3695 1.384 . S
N3694 C3690 1.427 . S
N3694 C3691 1.384 . S
N3695 C3687 1.427 . S
N3695 C3693 1.384 . S
H3696 C3702 0.930 . S
H3697 C3706 0.930 . S
H3698 C3711 0.929 . S
H3699 C3709 0.929 . S
H3700 C3704 0.929 . S
H3701 C3710 0.929 . S
C3702 H3696 0.930 . S
C3702 C3703 1.367 . S
C3702 C3710 1.378 . S
C3703 C3702 1.367 . S
C3703 C3711 1.433 . S
C3704 H3700 0.929 . S
C3704 C3706 1.378 . S
C3704 C3708 1.350 . S
C3705 C3708 1.463 . S
C3705 C3710 1.350 . S
C3705 N3713 1.427 . S
C3706 H3697 0.930 . S
C3706 C3704 1.378 . S
C3706 C3707 1.367 . S
C3707 C3706 1.367 . S
C3707 C3709 1.433 . S
C3708 C3704 1.350 . S
C3708 C3705 1.463 . S
C3708 N3712 1.427 . S
C3709 H3699 0.929 . S
C3709 C3707 1.433 . S
C3709 N3712 1.384 . S
C3710 H3701 0.929 . S
C3710 C3702 1.378 . S
C3710 C3705 1.350 . S
C3711 H3698 0.929 . S
C3711 C3703 1.433 . S
C3711 N3713 1.384 . S
N3712 C3708 1.427 . S
N3712 C3709 1.384 . S
N3713 C3705 1.427 . S
N3713 C3711 1.384 . S
H3714 C3720 0.930 . S
H3715 C3724 0.930 . S
H3716 C3729 0.929 . S
H3717 C3727 0.929 . S
H3718 C3722 0.929 . S
H3719 C3728 0.929 . S
C3720 H3714 0.930 . S
C3720 C3721 1.367 . S
C3720 C3728 1.378 . S
C3721 C3720 1.367 . S
C3721 C3729 1.433 . S
C3722 H3718 0.929 . S
C3722 C3724 1.378 . S
C3722 C3726 1.350 . S
C3723 C3726 1.463 . S
C3723 C3728 1.350 . S
C3723 N3731 1.427 . S
C3724 H3715 0.930 . S
C3724 C3722 1.378 . S
C3724 C3725 1.367 . S
C3725 C3724 1.367 . S
C3725 C3727 1.433 . S
C3726 C3722 1.350 . S
C3726 C3723 1.463 . S
C3726 N3730 1.427 . S
C3727 H3717 0.929 . S
C3727 C3725 1.433 . S
C3727 N3730 1.384 . S
C3728 H3719 0.929 . S
C3728 C3720 1.378 . S
C3728 C3723 1.350 . S
C3729 H3716 0.929 . S
C3729 C3721 1.433 . S
C3729 N3731 1.384 . S
N3730 C3726 1.427 . S
N3730 C3727 1.384 . S
N3731 C3723 1.427 . S
N3731 C3729 1.384 . S
H3732 C3738 0.930 . S
H3733 C3742 0.930 . S
H3734 C3747 0.929 . S
H3735 C3745 0.929 . S
H3736 C3740 0.929 . S
H3737 C3746 0.929 . S
C3738 H3732 0.930 . S
C3738 C3739 1.367 . S
C3738 C3746 1.378 . S
C3739 C3738 1.367 . S
C3739 C3747 1.433 . S
C3740 H3736 0.929 . S
C3740 C3742 1.378 . S
C3740 C3744 1.350 . S
C3741 C3744 1.463 . S
C3741 C3746 1.350 . S
C3741 N3749 1.427 . S
C3742 H3733 0.930 . S
C3742 C3740 1.378 . S
C3742 C3743 1.367 . S
C3743 C3742 1.367 . S
C3743 C3745 1.433 . S
C3744 C3740 1.350 . S
C3744 C3741 1.463 . S
C3744 N3748 1.427 . S
C3745 H3735 0.929 . S
C3745 C3743 1.433 . S
C3745 N3748 1.384 . S
C3746 H3737 0.929 . S
C3746 C3738 1.378 . S
C3746 C3741 1.350 . S
C3747 H3734 0.929 . S
C3747 C3739 1.433 . S
C3747 N3749 1.384 . S
N3748 C3744 1.427 . S
N3748 C3745 1.384 . S
N3749 C3741 1.427 . S
N3749 C3747 1.384 . S
H3750 C3756 0.930 . S
H3751 C3760 0.930 . S
H3752 C3765 0.929 . S
H3753 C3763 0.929 . S
H3754 C3758 0.929 . S
H3755 C3764 0.929 . S
C3756 H3750 0.930 . S
C3756 C3757 1.367 . S
C3756 C3764 1.378 . S
C3757 C3756 1.367 . S
C3757 C3765 1.433 . S
C3758 H3754 0.929 . S
C3758 C3760 1.378 . S
C3758 C3762 1.350 . S
C3759 C3762 1.463 . S
C3759 C3764 1.350 . S
C3759 N3767 1.427 . S
C3760 H3751 0.930 . S
C3760 C3758 1.378 . S
C3760 C3761 1.367 . S
C3761 C3760 1.367 . S
C3761 C3763 1.433 . S
C3762 C3758 1.350 . S
C3762 C3759 1.463 . S
C3762 N3766 1.427 . S
C3763 H3753 0.929 . S
C3763 C3761 1.433 . S
C3763 N3766 1.384 . S
C3764 H3755 0.929 . S
C3764 C3756 1.378 . S
C3764 C3759 1.350 . S
C3765 H3752 0.929 . S
C3765 C3757 1.433 . S
C3765 N3767 1.384 . S
N3766 C3762 1.427 . S
N3766 C3763 1.384 . S
N3767 C3759 1.427 . S
N3767 C3765 1.384 . S
H3768 C3774 0.930 . S
H3769 C3778 0.930 . S
H3770 C3783 0.929 . S
H3771 C3781 0.929 . S
H3772 C3776 0.929 . S
H3773 C3782 0.929 . S
C3774 H3768 0.930 . S
C3774 C3775 1.367 . S
C3774 C3782 1.378 . S
C3775 C3774 1.367 . S
C3775 C3783 1.433 . S
C3776 H3772 0.929 . S
C3776 C3778 1.378 . S
C3776 C3780 1.350 . S
C3777 C3780 1.463 . S
C3777 C3782 1.350 . S
C3777 N3785 1.427 . S
C3778 H3769 0.930 . S
C3778 C3776 1.378 . S
C3778 C3779 1.367 . S
C3779 C3778 1.367 . S
C3779 C3781 1.433 . S
C3780 C3776 1.350 . S
C3780 C3777 1.463 . S
C3780 N3784 1.427 . S
C3781 H3771 0.929 . S
C3781 C3779 1.433 . S
C3781 N3784 1.384 . S
C3782 H3773 0.929 . S
C3782 C3774 1.378 . S
C3782 C3777 1.350 . S
C3783 H3770 0.929 . S
C3783 C3775 1.433 . S
C3783 N3785 1.384 . S
N3784 C3780 1.427 . S
N3784 C3781 1.384 . S
N3785 C3777 1.427 . S
N3785 C3783 1.384 . S
H3786 C3792 0.930 . S
H3787 C3796 0.930 . S
H3788 C3801 0.929 . S
H3789 C3799 0.929 . S
H3790 C3794 0.929 . S
H3791 C3800 0.929 . S
C3792 H3786 0.930 . S
C3792 C3793 1.367 . S
C3792 C3800 1.378 . S
C3793 C3792 1.367 . S
C3793 C3801 1.433 . S
C3794 H3790 0.929 . S
C3794 C3796 1.378 . S
C3794 C3798 1.350 . S
C3795 C3798 1.463 . S
C3795 C3800 1.350 . S
C3795 N3803 1.427 . S
C3796 H3787 0.930 . S
C3796 C3794 1.378 . S
C3796 C3797 1.367 . S
C3797 C3796 1.367 . S
C3797 C3799 1.433 . S
C3798 C3794 1.350 . S
C3798 C3795 1.463 . S
C3798 N3802 1.427 . S
C3799 H3789 0.929 . S
C3799 C3797 1.433 . S
C3799 N3802 1.384 . S
C3800 H3791 0.929 . S
C3800 C3792 1.378 . S
C3800 C3795 1.350 . S
C3801 H3788 0.929 . S
C3801 C3793 1.433 . S
C3801 N3803 1.384 . S
N3802 C3798 1.427 . S
N3802 C3799 1.384 . S
N3803 C3795 1.427 . S
N3803 C3801 1.384 . S
H3804 C3810 0.930 . S
H3805 C3814 0.930 . S
H3806 C3819 0.929 . S
H3807 C3817 0.929 . S
H3808 C3812 0.929 . S
H3809 C3818 0.929 . S
C3810 H3804 0.930 . S
C3810 C3811 1.367 . S
C3810 C3818 1.378 . S
C3811 C3810 1.367 . S
C3811 C3819 1.433 . S
C3812 H3808 0.929 . S
C3812 C3814 1.378 . S
C3812 C3816 1.350 . S
C3813 C3816 1.463 . S
C3813 C3818 1.350 . S
C3813 N3821 1.427 . S
C3814 H3805 0.930 . S
C3814 C3812 1.378 . S
C3814 C3815 1.367 . S
C3815 C3814 1.367 . S
C3815 C3817 1.433 . S
C3816 C3812 1.350 . S
C3816 C3813 1.463 . S
C3816 N3820 1.427 . S
C3817 H3807 0.929 . S
C3817 C3815 1.433 . S
C3817 N3820 1.384 . S
C3818 H3809 0.929 . S
C3818 C3810 1.378 . S
C3818 C3813 1.350 . S
C3819 H3806 0.929 . S
C3819 C3811 1.433 . S
C3819 N3821 1.384 . S
N3820 C3816 1.427 . S
N3820 C3817 1.384 . S
N3821 C3813 1.427 . S
N3821 C3819 1.384 . S
H3822 C3828 0.930 . S
H3823 C3832 0.930 . S
H3824 C3837 0.929 . S
H3825 C3835 0.929 . S
H3826 C3830 0.929 . S
H3827 C3836 0.929 . S
C3828 H3822 0.930 . S
C3828 C3829 1.367 . S
C3828 C3836 1.378 . S
C3829 C3828 1.367 . S
C3829 C3837 1.433 . S
C3830 H3826 0.929 . S
C3830 C3832 1.378 . S
C3830 C3834 1.350 . S
C3831 C3834 1.463 . S
C3831 C3836 1.350 . S
C3831 N3839 1.427 . S
C3832 H3823 0.930 . S
C3832 C3830 1.378 . S
C3832 C3833 1.367 . S
C3833 C3832 1.367 . S
C3833 C3835 1.433 . S
C3834 C3830 1.350 . S
C3834 C3831 1.463 . S
C3834 N3838 1.427 . S
C3835 H3825 0.929 . S
C3835 C3833 1.433 . S
C3835 N3838 1.384 . S
C3836 H3827 0.929 . S
C3836 C3828 1.378 . S
C3836 C3831 1.350 . S
C3837 H3824 0.929 . S
C3837 C3829 1.433 . S
C3837 N3839 1.384 . S
N3838 C3834 1.427 . S
N3838 C3835 1.384 . S
N3839 C3831 1.427 . S
N3839 C3837 1.384 . S
H3840 C3846 0.930 . S
H3841 C3850 0.930 . S
H3842 C3855 0.929 . S
H3843 C3853 0.929 . S
H3844 C3848 0.929 . S
H3845 C3854 0.929 . S
C3846 H3840 0.930 . S
C3846 C3847 1.367 . S
C3846 C3854 1.378 . S
C3847 C3846 1.367 . S
C3847 C3855 1.433 . S
C3848 H3844 0.929 . S
C3848 C3850 1.378 . S
C3848 C3852 1.350 . S
C3849 C3852 1.463 . S
C3849 C3854 1.350 . S
C3849 N3857 1.427 . S
C3850 H3841 0.930 . S
C3850 C3848 1.378 . S
C3850 C3851 1.367 . S
C3851 C3850 1.367 . S
C3851 C3853 1.433 . S
C3852 C3848 1.350 . S
C3852 C3849 1.463 . S
C3852 N3856 1.427 . S
C3853 H3843 0.929 . S
C3853 C3851 1.433 . S
C3853 N3856 1.384 . S
C3854 H3845 0.929 . S
C3854 C3846 1.378 . S
C3854 C3849 1.350 . S
C3855 H3842 0.929 . S
C3855 C3847 1.433 . S
C3855 N3857 1.384 . S
N3856 C3852 1.427 . S
N3856 C3853 1.384 . S
N3857 C3849 1.427 . S
N3857 C3855 1.384 . S
H3858 C3864 0.930 . S
H3859 C3868 0.930 . S
H3860 C3873 0.929 . S
H3861 C3871 0.929 . S
H3862 C3866 0.929 . S
H3863 C3872 0.929 . S
C3864 H3858 0.930 . S
C3864 C3865 1.367 . S
C3864 C3872 1.378 . S
C3865 C3864 1.367 . S
C3865 C3873 1.433 . S
C3866 H3862 0.929 . S
C3866 C3868 1.378 . S
C3866 C3870 1.350 . S
C3867 C3870 1.463 . S
C3867 C3872 1.350 . S
C3867 N3875 1.427 . S
C3868 H3859 0.930 . S
C3868 C3866 1.378 . S
C3868 C3869 1.367 . S
C3869 C3868 1.367 . S
C3869 C3871 1.433 . S
C3870 C3866 1.350 . S
C3870 C3867 1.463 . S
C3870 N3874 1.427 . S
C3871 H3861 0.929 . S
C3871 C3869 1.433 . S
C3871 N3874 1.384 . S
C3872 H3863 0.929 . S
C3872 C3864 1.378 . S
C3872 C3867 1.350 . S
C3873 H3860 0.929 . S
C3873 C3865 1.433 . S
C3873 N3875 1.384 . S
N3874 C3870 1.427 . S
N3874 C3871 1.384 . S
N3875 C3867 1.427 . S
N3875 C3873 1.384 . S
H3876 C3882 0.930 . S
H3877 C3886 0.930 . S
H3878 C3891 0.929 . S
H3879 C3889 0.929 . S
H3880 C3884 0.929 . S
H3881 C3890 0.929 . S
C3882 H3876 0.930 . S
C3882 C3883 1.367 . S
C3882 C3890 1.378 . S
C3883 C3882 1.367 . S
C3883 C3891 1.433 . S
C3884 H3880 0.929 . S
C3884 C3886 1.378 . S
C3884 C3888 1.350 . S
C3885 C3888 1.463 . S
C3885 C3890 1.350 . S
C3885 N3893 1.427 . S
C3886 H3877 0.930 . S
C3886 C3884 1.378 . S
C3886 C3887 1.367 . S
C3887 C3886 1.367 . S
C3887 C3889 1.433 . S
C3888 C3884 1.350 . S
C3888 C3885 1.463 . S
C3888 N3892 1.427 . S
C3889 H3879 0.929 . S
C3889 C3887 1.433 . S
C3889 N3892 1.384 . S
C3890 H3881 0.929 . S
C3890 C3882 1.378 . S
C3890 C3885 1.350 . S
C3891 H3878 0.929 . S
C3891 C3883 1.433 . S
C3891 N3893 1.384 . S
N3892 C3888 1.427 . S
N3892 C3889 1.384 . S
N3893 C3885 1.427 . S
N3893 C3891 1.384 . S
H3894 C3900 0.930 . S
H3895 C3904 0.930 . S
H3896 C3909 0.929 . S
H3897 C3907 0.929 . S
H3898 C3902 0.929 . S
H3899 C3908 0.929 . S
C3900 H3894 0.930 . S
C3900 C3901 1.367 . S
C3900 C3908 1.378 . S
C3901 C3900 1.367 . S
C3901 C3909 1.433 . S
C3902 H3898 0.929 . S
C3902 C3904 1.378 . S
C3902 C3906 1.350 . S
C3903 C3906 1.463 . S
C3903 C3908 1.350 . S
C3903 N3911 1.427 . S
C3904 H3895 0.930 . S
C3904 C3902 1.378 . S
C3904 C3905 1.367 . S
C3905 C3904 1.367 . S
C3905 C3907 1.433 . S
C3906 C3902 1.350 . S
C3906 C3903 1.463 . S
C3906 N3910 1.427 . S
C3907 H3897 0.929 . S
C3907 C3905 1.433 . S
C3907 N3910 1.384 . S
C3908 H3899 0.929 . S
C3908 C3900 1.378 . S
C3908 C3903 1.350 . S
C3909 H3896 0.929 . S
C3909 C3901 1.433 . S
C3909 N3911 1.384 . S
N3910 C3906 1.427 . S
N3910 C3907 1.384 . S
N3911 C3903 1.427 . S
N3911 C3909 1.384 . S
H3912 C3918 0.930 . S
H3913 C3922 0.930 . S
H3914 C3927 0.929 . S
H3915 C3925 0.929 . S
H3916 C3920 0.929 . S
H3917 C3926 0.929 . S
C3918 H3912 0.930 . S
C3918 C3919 1.367 . S
C3918 C3926 1.378 . S
C3919 C3918 1.367 . S
C3919 C3927 1.433 . S
C3920 H3916 0.929 . S
C3920 C3922 1.378 . S
C3920 C3924 1.350 . S
C3921 C3924 1.463 . S
C3921 C3926 1.350 . S
C3921 N3929 1.427 . S
C3922 H3913 0.930 . S
C3922 C3920 1.378 . S
C3922 C3923 1.367 . S
C3923 C3922 1.367 . S
C3923 C3925 1.433 . S
C3924 C3920 1.350 . S
C3924 C3921 1.463 . S
C3924 N3928 1.427 . S
C3925 H3915 0.929 . S
C3925 C3923 1.433 . S
C3925 N3928 1.384 . S
C3926 H3917 0.929 . S
C3926 C3918 1.378 . S
C3926 C3921 1.350 . S
C3927 H3914 0.929 . S
C3927 C3919 1.433 . S
C3927 N3929 1.384 . S
N3928 C3924 1.427 . S
N3928 C3925 1.384 . S
N3929 C3921 1.427 . S
N3929 C3927 1.384 . S
H3930 C3936 0.930 . S
H3931 C3940 0.930 . S
H3932 C3945 0.929 . S
H3933 C3943 0.929 . S
H3934 C3938 0.929 . S
H3935 C3944 0.929 . S
C3936 H3930 0.930 . S
C3936 C3937 1.367 . S
C3936 C3944 1.378 . S
C3937 C3936 1.367 . S
C3937 C3945 1.433 . S
C3938 H3934 0.929 . S
C3938 C3940 1.378 . S
C3938 C3942 1.350 . S
C3939 C3942 1.463 . S
C3939 C3944 1.350 . S
C3939 N3947 1.427 . S
C3940 H3931 0.930 . S
C3940 C3938 1.378 . S
C3940 C3941 1.367 . S
C3941 C3940 1.367 . S
C3941 C3943 1.433 . S
C3942 C3938 1.350 . S
C3942 C3939 1.463 . S
C3942 N3946 1.427 . S
C3943 H3933 0.929 . S
C3943 C3941 1.433 . S
C3943 N3946 1.384 . S
C3944 H3935 0.929 . S
C3944 C3936 1.378 . S
C3944 C3939 1.350 . S
C3945 H3932 0.929 . S
C3945 C3937 1.433 . S
C3945 N3947 1.384 . S
N3946 C3942 1.427 . S
N3946 C3943 1.384 . S
N3947 C3939 1.427 . S
N3947 C3945 1.384 . S
H3948 C3954 0.930 . S
H3949 C3958 0.930 . S
H3950 C3963 0.929 . S
H3951 C3961 0.929 . S
H3952 C3956 0.929 . S
H3953 C3962 0.929 . S
C3954 H3948 0.930 . S
C3954 C3955 1.367 . S
C3954 C3962 1.378 . S
C3955 C3954 1.367 . S
C3955 C3963 1.433 . S
C3956 H3952 0.929 . S
C3956 C3958 1.378 . S
C3956 C3960 1.350 . S
C3957 C3960 1.463 . S
C3957 C3962 1.350 . S
C3957 N3965 1.427 . S
C3958 H3949 0.930 . S
C3958 C3956 1.378 . S
C3958 C3959 1.367 . S
C3959 C3958 1.367 . S
C3959 C3961 1.433 . S
C3960 C3956 1.350 . S
C3960 C3957 1.463 . S
C3960 N3964 1.427 . S
C3961 H3951 0.929 . S
C3961 C3959 1.433 . S
C3961 N3964 1.384 . S
C3962 H3953 0.929 . S
C3962 C3954 1.378 . S
C3962 C3957 1.350 . S
C3963 H3950 0.929 . S
C3963 C3955 1.433 . S
C3963 N3965 1.384 . S
N3964 C3960 1.427 . S
N3964 C3961 1.384 . S
N3965 C3957 1.427 . S
N3965 C3963 1.384 . S
H3966 C3972 0.930 . S
H3967 C3976 0.930 . S
H3968 C3981 0.929 . S
H3969 C3979 0.929 . S
H3970 C3974 0.929 . S
H3971 C3980 0.929 . S
C3972 H3966 0.930 . S
C3972 C3973 1.367 . S
C3972 C3980 1.378 . S
C3973 C3972 1.367 . S
C3973 C3981 1.433 . S
C3974 H3970 0.929 . S
C3974 C3976 1.378 . S
C3974 C3978 1.350 . S
C3975 C3978 1.463 . S
C3975 C3980 1.350 . S
C3975 N3983 1.427 . S
C3976 H3967 0.930 . S
C3976 C3974 1.378 . S
C3976 C3977 1.367 . S
C3977 C3976 1.367 . S
C3977 C3979 1.433 . S
C3978 C3974 1.350 . S
C3978 C3975 1.463 . S
C3978 N3982 1.427 . S
C3979 H3969 0.929 . S
C3979 C3977 1.433 . S
C3979 N3982 1.384 . S
C3980 H3971 0.929 . S
C3980 C3972 1.378 . S
C3980 C3975 1.350 . S
C3981 H3968 0.929 . S
C3981 C3973 1.433 . S
C3981 N3983 1.384 . S
N3982 C3978 1.427 . S
N3982 C3979 1.384 . S
N3983 C3975 1.427 . S
N3983 C3981 1.384 . S
H3984 C3990 0.930 . S
H3985 C3994 0.930 . S
H3986 C3999 0.929 . S
H3987 C3997 0.929 . S
H3988 C3992 0.929 . S
H3989 C3998 0.929 . S
C3990 H3984 0.930 . S
C3990 C3991 1.367 . S
C3990 C3998 1.378 . S
C3991 C3990 1.367 . S
C3991 C3999 1.433 . S
C3992 H3988 0.929 . S
C3992 C3994 1.378 . S
C3992 C3996 1.350 . S
C3993 C3996 1.463 . S
C3993 C3998 1.350 . S
C3993 N4001 1.427 . S
C3994 H3985 0.930 . S
C3994 C3992 1.378 . S
C3994 C3995 1.367 . S
C3995 C3994 1.367 . S
C3995 C3997 1.433 . S
C3996 C3992 1.350 . S
C3996 C3993 1.463 . S
C3996 N4000 1.427 . S
C3997 H3987 0.929 . S
C3997 C3995 1.433 . S
C3997 N4000 1.384 . S
C3998 H3989 0.929 . S
C3998 C3990 1.378 . S
C3998 C3993 1.350 . S
C3999 H3986 0.929 . S
C3999 C3991 1.433 . S
C3999 N4001 1.384 . S
N4000 C3996 1.427 . S
N4000 C3997 1.384 . S
N4001 C3993 1.427 . S
N4001 C3999 1.384 . S
H4002 C4008 0.930 . S
H4003 C4012 0.930 . S
H4004 C4017 0.929 . S
H4005 C4015 0.929 . S
H4006 C4010 0.929 . S
H4007 C4016 0.929 . S
C4008 H4002 0.930 . S
C4008 C4009 1.367 . S
C4008 C4016 1.378 . S
C4009 C4008 1.367 . S
C4009 C4017 1.433 . S
C4010 H4006 0.929 . S
C4010 C4012 1.378 . S
C4010 C4014 1.350 . S
C4011 C4014 1.463 . S
C4011 C4016 1.350 . S
C4011 N4019 1.427 . S
C4012 H4003 0.930 . S
C4012 C4010 1.378 . S
C4012 C4013 1.367 . S
C4013 C4012 1.367 . S
C4013 C4015 1.433 . S
C4014 C4010 1.350 . S
C4014 C4011 1.463 . S
C4014 N4018 1.427 . S
C4015 H4005 0.929 . S
C4015 C4013 1.433 . S
C4015 N4018 1.384 . S
C4016 H4007 0.929 . S
C4016 C4008 1.378 . S
C4016 C4011 1.350 . S
C4017 H4004 0.929 . S
C4017 C4009 1.433 . S
C4017 N4019 1.384 . S
N4018 C4014 1.427 . S
N4018 C4015 1.384 . S
N4019 C4011 1.427 . S
N4019 C4017 1.384 . S
H4020 C4026 0.930 . S
H4021 C4030 0.930 . S
H4022 C4035 0.929 . S
H4023 C4033 0.929 . S
H4024 C4028 0.929 . S
H4025 C4034 0.929 . S
C4026 H4020 0.930 . S
C4026 C4027 1.367 . S
C4026 C4034 1.378 . S
C4027 C4026 1.367 . S
C4027 C4035 1.433 . S
C4028 H4024 0.929 . S
C4028 C4030 1.378 . S
C4028 C4032 1.350 . S
C4029 C4032 1.463 . S
C4029 C4034 1.350 . S
C4029 N4037 1.427 . S
C4030 H4021 0.930 . S
C4030 C4028 1.378 . S
C4030 C4031 1.367 . S
C4031 C4030 1.367 . S
C4031 C4033 1.433 . S
C4032 C4028 1.350 . S
C4032 C4029 1.463 . S
C4032 N4036 1.427 . S
C4033 H4023 0.929 . S
C4033 C4031 1.433 . S
C4033 N4036 1.384 . S
C4034 H4025 0.929 . S
C4034 C4026 1.378 . S
C4034 C4029 1.350 . S
C4035 H4022 0.929 . S
C4035 C4027 1.433 . S
C4035 N4037 1.384 . S
N4036 C4032 1.427 . S
N4036 C4033 1.384 . S
N4037 C4029 1.427 . S
N4037 C4035 1.384 . S
H4038 C4044 0.930 . S
H4039 C4048 0.930 . S
H4040 C4053 0.929 . S
H4041 C4051 0.929 . S
H4042 C4046 0.929 . S
H4043 C4052 0.929 . S
C4044 H4038 0.930 . S
C4044 C4045 1.367 . S
C4044 C4052 1.378 . S
C4045 C4044 1.367 . S
C4045 C4053 1.433 . S
C4046 H4042 0.929 . S
C4046 C4048 1.378 . S
C4046 C4050 1.350 . S
C4047 C4050 1.463 . S
C4047 C4052 1.350 . S
C4047 N4055 1.427 . S
C4048 H4039 0.930 . S
C4048 C4046 1.378 . S
C4048 C4049 1.367 . S
C4049 C4048 1.367 . S
C4049 C4051 1.433 . S
C4050 C4046 1.350 . S
C4050 C4047 1.463 . S
C4050 N4054 1.427 . S
C4051 H4041 0.929 . S
C4051 C4049 1.433 . S
C4051 N4054 1.384 . S
C4052 H4043 0.929 . S
C4052 C4044 1.378 . S
C4052 C4047 1.350 . S
C4053 H4040 0.929 . S
C4053 C4045 1.433 . S
C4053 N4055 1.384 . S
N4054 C4050 1.427 . S
N4054 C4051 1.384 . S
N4055 C4047 1.427 . S
N4055 C4053 1.384 . S
H4056 C4062 0.930 . S
H4057 C4066 0.930 . S
H4058 C4071 0.929 . S
H4059 C4069 0.929 . S
H4060 C4064 0.929 . S
H4061 C4070 0.929 . S
C4062 H4056 0.930 . S
C4062 C4063 1.367 . S
C4062 C4070 1.378 . S
C4063 C4062 1.367 . S
C4063 C4071 1.433 . S
C4064 H4060 0.929 . S
C4064 C4066 1.378 . S
C4064 C4068 1.350 . S
C4065 C4068 1.463 . S
C4065 C4070 1.350 . S
C4065 N4073 1.427 . S
C4066 H4057 0.930 . S
C4066 C4064 1.378 . S
C4066 C4067 1.367 . S
C4067 C4066 1.367 . S
C4067 C4069 1.433 . S
C4068 C4064 1.350 . S
C4068 C4065 1.463 . S
C4068 N4072 1.427 . S
C4069 H4059 0.929 . S
C4069 C4067 1.433 . S
C4069 N4072 1.384 . S
C4070 H4061 0.929 . S
C4070 C4062 1.378 . S
C4070 C4065 1.350 . S
C4071 H4058 0.929 . S
C4071 C4063 1.433 . S
C4071 N4073 1.384 . S
N4072 C4068 1.427 . S
N4072 C4069 1.384 . S
N4073 C4065 1.427 . S
N4073 C4071 1.384 . S
H4074 C4080 0.930 . S
H4075 C4084 0.930 . S
H4076 C4089 0.929 . S
H4077 C4087 0.929 . S
H4078 C4082 0.929 . S
H4079 C4088 0.929 . S
C4080 H4074 0.930 . S
C4080 C4081 1.367 . S
C4080 C4088 1.378 . S
C4081 C4080 1.367 . S
C4081 C4089 1.433 . S
C4082 H4078 0.929 . S
C4082 C4084 1.378 . S
C4082 C4086 1.350 . S
C4083 C4086 1.463 . S
C4083 C4088 1.350 . S
C4083 N4091 1.427 . S
C4084 H4075 0.930 . S
C4084 C4082 1.378 . S
C4084 C4085 1.367 . S
C4085 C4084 1.367 . S
C4085 C4087 1.433 . S
C4086 C4082 1.350 . S
C4086 C4083 1.463 . S
C4086 N4090 1.427 . S
C4087 H4077 0.929 . S
C4087 C4085 1.433 . S
C4087 N4090 1.384 . S
C4088 H4079 0.929 . S
C4088 C4080 1.378 . S
C4088 C4083 1.350 . S
C4089 H4076 0.929 . S
C4089 C4081 1.433 . S
C4089 N4091 1.384 . S
N4090 C4086 1.427 . S
N4090 C4087 1.384 . S
N4091 C4083 1.427 . S
N4091 C4089 1.384 . S
H4092 C4098 0.930 . S
H4093 C4102 0.930 . S
H4094 C4107 0.929 . S
H4095 C4105 0.929 . S
H4096 C4100 0.929 . S
H4097 C4106 0.929 . S
C4098 H4092 0.930 . S
C4098 C4099 1.367 . S
C4098 C4106 1.378 . S
C4099 C4098 1.367 . S
C4099 C4107 1.433 . S
C4100 H4096 0.929 . S
C4100 C4102 1.378 . S
C4100 C4104 1.350 . S
C4101 C4104 1.463 . S
C4101 C4106 1.350 . S
C4101 N4109 1.427 . S
C4102 H4093 0.930 . S
C4102 C4100 1.378 . S
C4102 C4103 1.367 . S
C4103 C4102 1.367 . S
C4103 C4105 1.433 . S
C4104 C4100 1.350 . S
C4104 C4101 1.463 . S
C4104 N4108 1.427 . S
C4105 H4095 0.929 . S
C4105 C4103 1.433 . S
C4105 N4108 1.384 . S
C4106 H4097 0.929 . S
C4106 C4098 1.378 . S
C4106 C4101 1.350 . S
C4107 H4094 0.929 . S
C4107 C4099 1.433 . S
C4107 N4109 1.384 . S
N4108 C4104 1.427 . S
N4108 C4105 1.384 . S
N4109 C4101 1.427 . S
N4109 C4107 1.384 . S
H4110 C4116 0.930 . S
H4111 C4120 0.930 . S
H4112 C4125 0.929 . S
H4113 C4123 0.929 . S
H4114 C4118 0.929 . S
H4115 C4124 0.929 . S
C4116 H4110 0.930 . S
C4116 C4117 1.367 . S
C4116 C4124 1.378 . S
C4117 C4116 1.367 . S
C4117 C4125 1.433 . S
C4118 H4114 0.929 . S
C4118 C4120 1.378 . S
C4118 C4122 1.350 . S
C4119 C4122 1.463 . S
C4119 C4124 1.350 . S
C4119 N4127 1.427 . S
C4120 H4111 0.930 . S
C4120 C4118 1.378 . S
C4120 C4121 1.367 . S
C4121 C4120 1.367 . S
C4121 C4123 1.433 . S
C4122 C4118 1.350 . S
C4122 C4119 1.463 . S
C4122 N4126 1.427 . S
C4123 H4113 0.929 . S
C4123 C4121 1.433 . S
C4123 N4126 1.384 . S
C4124 H4115 0.929 . S
C4124 C4116 1.378 . S
C4124 C4119 1.350 . S
C4125 H4112 0.929 . S
C4125 C4117 1.433 . S
C4125 N4127 1.384 . S
N4126 C4122 1.427 . S
N4126 C4123 1.384 . S
N4127 C4119 1.427 . S
N4127 C4125 1.384 . S
H4128 C4134 0.930 . S
H4129 C4138 0.930 . S
H4130 C4143 0.929 . S
H4131 C4141 0.929 . S
H4132 C4136 0.929 . S
H4133 C4142 0.929 . S
C4134 H4128 0.930 . S
C4134 C4135 1.367 . S
C4134 C4142 1.378 . S
C4135 C4134 1.367 . S
C4135 C4143 1.433 . S
C4136 H4132 0.929 . S
C4136 C4138 1.378 . S
C4136 C4140 1.350 . S
C4137 C4140 1.463 . S
C4137 C4142 1.350 . S
C4137 N4145 1.427 . S
C4138 H4129 0.930 . S
C4138 C4136 1.378 . S
C4138 C4139 1.367 . S
C4139 C4138 1.367 . S
C4139 C4141 1.433 . S
C4140 C4136 1.350 . S
C4140 C4137 1.463 . S
C4140 N4144 1.427 . S
C4141 H4131 0.929 . S
C4141 C4139 1.433 . S
C4141 N4144 1.384 . S
C4142 H4133 0.929 . S
C4142 C4134 1.378 . S
C4142 C4137 1.350 . S
C4143 H4130 0.929 . S
C4143 C4135 1.433 . S
C4143 N4145 1.384 . S
N4144 C4140 1.427 . S
N4144 C4141 1.384 . S
N4145 C4137 1.427 . S
N4145 C4143 1.384 . S
H4146 C4152 0.930 . S
H4147 C4156 0.930 . S
H4148 C4161 0.929 . S
H4149 C4159 0.929 . S
H4150 C4154 0.929 . S
H4151 C4160 0.929 . S
C4152 H4146 0.930 . S
C4152 C4153 1.367 . S
C4152 C4160 1.378 . S
C4153 C4152 1.367 . S
C4153 C4161 1.433 . S
C4154 H4150 0.929 . S
C4154 C4156 1.378 . S
C4154 C4158 1.350 . S
C4155 C4158 1.463 . S
C4155 C4160 1.350 . S
C4155 N4163 1.427 . S
C4156 H4147 0.930 . S
C4156 C4154 1.378 . S
C4156 C4157 1.367 . S
C4157 C4156 1.367 . S
C4157 C4159 1.433 . S
C4158 C4154 1.350 . S
C4158 C4155 1.463 . S
C4158 N4162 1.427 . S
C4159 H4149 0.929 . S
C4159 C4157 1.433 . S
C4159 N4162 1.384 . S
C4160 H4151 0.929 . S
C4160 C4152 1.378 . S
C4160 C4155 1.350 . S
C4161 H4148 0.929 . S
C4161 C4153 1.433 . S
C4161 N4163 1.384 . S
N4162 C4158 1.427 . S
N4162 C4159 1.384 . S
N4163 C4155 1.427 . S
N4163 C4161 1.384 . S
H4164 C4170 0.930 . S
H4165 C4174 0.930 . S
H4166 C4179 0.929 . S
H4167 C4177 0.929 . S
H4168 C4172 0.929 . S
H4169 C4178 0.929 . S
C4170 H4164 0.930 . S
C4170 C4171 1.367 . S
C4170 C4178 1.378 . S
C4171 C4170 1.367 . S
C4171 C4179 1.433 . S
C4172 H4168 0.929 . S
C4172 C4174 1.378 . S
C4172 C4176 1.350 . S
C4173 C4176 1.463 . S
C4173 C4178 1.350 . S
C4173 N4181 1.427 . S
C4174 H4165 0.930 . S
C4174 C4172 1.378 . S
C4174 C4175 1.367 . S
C4175 C4174 1.367 . S
C4175 C4177 1.433 . S
C4176 C4172 1.350 . S
C4176 C4173 1.463 . S
C4176 N4180 1.427 . S
C4177 H4167 0.929 . S
C4177 C4175 1.433 . S
C4177 N4180 1.384 . S
C4178 H4169 0.929 . S
C4178 C4170 1.378 . S
C4178 C4173 1.350 . S
C4179 H4166 0.929 . S
C4179 C4171 1.433 . S
C4179 N4181 1.384 . S
N4180 C4176 1.427 . S
N4180 C4177 1.384 . S
N4181 C4173 1.427 . S
N4181 C4179 1.384 . S
H4182 C4188 0.930 . S
H4183 C4192 0.930 . S
H4184 C4197 0.929 . S
H4185 C4195 0.929 . S
H4186 C4190 0.929 . S
H4187 C4196 0.929 . S
C4188 H4182 0.930 . S
C4188 C4189 1.367 . S
C4188 C4196 1.378 . S
C4189 C4188 1.367 . S
C4189 C4197 1.433 . S
C4190 H4186 0.929 . S
C4190 C4192 1.378 . S
C4190 C4194 1.350 . S
C4191 C4194 1.463 . S
C4191 C4196 1.350 . S
C4191 N4199 1.427 . S
C4192 H4183 0.930 . S
C4192 C4190 1.378 . S
C4192 C4193 1.367 . S
C4193 C4192 1.367 . S
C4193 C4195 1.433 . S
C4194 C4190 1.350 . S
C4194 C4191 1.463 . S
C4194 N4198 1.427 . S
C4195 H4185 0.929 . S
C4195 C4193 1.433 . S
C4195 N4198 1.384 . S
C4196 H4187 0.929 . S
C4196 C4188 1.378 . S
C4196 C4191 1.350 . S
C4197 H4184 0.929 . S
C4197 C4189 1.433 . S
C4197 N4199 1.384 . S
N4198 C4194 1.427 . S
N4198 C4195 1.384 . S
N4199 C4191 1.427 . S
N4199 C4197 1.384 . S
H4200 C4206 0.930 . S
H4201 C4210 0.930 . S
H4202 C4215 0.929 . S
H4203 C4213 0.929 . S
H4204 C4208 0.929 . S
H4205 C4214 0.929 . S
C4206 H4200 0.930 . S
C4206 C4207 1.367 . S
C4206 C4214 1.378 . S
C4207 C4206 1.367 . S
C4207 C4215 1.433 . S
C4208 H4204 0.929 . S
C4208 C4210 1.378 . S
C4208 C4212 1.350 . S
C4209 C4212 1.463 . S
C4209 C4214 1.350 . S
C4209 N4217 1.427 . S
C4210 H4201 0.930 . S
C4210 C4208 1.378 . S
C4210 C4211 1.367 . S
C4211 C4210 1.367 . S
C4211 C4213 1.433 . S
C4212 C4208 1.350 . S
C4212 C4209 1.463 . S
C4212 N4216 1.427 . S
C4213 H4203 0.929 . S
C4213 C4211 1.433 . S
C4213 N4216 1.384 . S
C4214 H4205 0.929 . S
C4214 C4206 1.378 . S
C4214 C4209 1.350 . S
C4215 H4202 0.929 . S
C4215 C4207 1.433 . S
C4215 N4217 1.384 . S
N4216 C4212 1.427 . S
N4216 C4213 1.384 . S
N4217 C4209 1.427 . S
N4217 C4215 1.384 . S
H4218 C4224 0.930 . S
H4219 C4228 0.930 . S
H4220 C4233 0.929 . S
H4221 C4231 0.929 . S
H4222 C4226 0.929 . S
H4223 C4232 0.929 . S
C4224 H4218 0.930 . S
C4224 C4225 1.367 . S
C4224 C4232 1.378 . S
C4225 C4224 1.367 . S
C4225 C4233 1.433 . S
C4226 H4222 0.929 . S
C4226 C4228 1.378 . S
C4226 C4230 1.350 . S
C4227 C4230 1.463 . S
C4227 C4232 1.350 . S
C4227 N4235 1.427 . S
C4228 H4219 0.930 . S
C4228 C4226 1.378 . S
C4228 C4229 1.367 . S
C4229 C4228 1.367 . S
C4229 C4231 1.433 . S
C4230 C4226 1.350 . S
C4230 C4227 1.463 . S
C4230 N4234 1.427 . S
C4231 H4221 0.929 . S
C4231 C4229 1.433 . S
C4231 N4234 1.384 . S
C4232 H4223 0.929 . S
C4232 C4224 1.378 . S
C4232 C4227 1.350 . S
C4233 H4220 0.929 . S
C4233 C4225 1.433 . S
C4233 N4235 1.384 . S
N4234 C4230 1.427 . S
N4234 C4231 1.384 . S
N4235 C4227 1.427 . S
N4235 C4233 1.384 . S
H4236 C4242 0.930 . S
H4237 C4246 0.930 . S
H4238 C4251 0.929 . S
H4239 C4249 0.929 . S
H4240 C4244 0.929 . S
H4241 C4250 0.929 . S
C4242 H4236 0.930 . S
C4242 C4243 1.367 . S
C4242 C4250 1.378 . S
C4243 C4242 1.367 . S
C4243 C4251 1.433 . S
C4244 H4240 0.929 . S
C4244 C4246 1.378 . S
C4244 C4248 1.350 . S
C4245 C4248 1.463 . S
C4245 C4250 1.350 . S
C4245 N4253 1.427 . S
C4246 H4237 0.930 . S
C4246 C4244 1.378 . S
C4246 C4247 1.367 . S
C4247 C4246 1.367 . S
C4247 C4249 1.433 . S
C4248 C4244 1.350 . S
C4248 C4245 1.463 . S
C4248 N4252 1.427 . S
C4249 H4239 0.929 . S
C4249 C4247 1.433 . S
C4249 N4252 1.384 . S
C4250 H4241 0.929 . S
C4250 C4242 1.378 . S
C4250 C4245 1.350 . S
C4251 H4238 0.929 . S
C4251 C4243 1.433 . S
C4251 N4253 1.384 . S
N4252 C4248 1.427 . S
N4252 C4249 1.384 . S
N4253 C4245 1.427 . S
N4253 C4251 1.384 . S
H4254 C4260 0.930 . S
H4255 C4264 0.930 . S
H4256 C4269 0.929 . S
H4257 C4267 0.929 . S
H4258 C4262 0.929 . S
H4259 C4268 0.929 . S
C4260 H4254 0.930 . S
C4260 C4261 1.367 . S
C4260 C4268 1.378 . S
C4261 C4260 1.367 . S
C4261 C4269 1.433 . S
C4262 H4258 0.929 . S
C4262 C4264 1.378 . S
C4262 C4266 1.350 . S
C4263 C4266 1.463 . S
C4263 C4268 1.350 . S
C4263 N4271 1.427 . S
C4264 H4255 0.930 . S
C4264 C4262 1.378 . S
C4264 C4265 1.367 . S
C4265 C4264 1.367 . S
C4265 C4267 1.433 . S
C4266 C4262 1.350 . S
C4266 C4263 1.463 . S
C4266 N4270 1.427 . S
C4267 H4257 0.929 . S
C4267 C4265 1.433 . S
C4267 N4270 1.384 . S
C4268 H4259 0.929 . S
C4268 C4260 1.378 . S
C4268 C4263 1.350 . S
C4269 H4256 0.929 . S
C4269 C4261 1.433 . S
C4269 N4271 1.384 . S
N4270 C4266 1.427 . S
N4270 C4267 1.384 . S
N4271 C4263 1.427 . S
N4271 C4269 1.384 . S
H4272 C4278 0.930 . S
H4273 C4282 0.930 . S
H4274 C4287 0.929 . S
H4275 C4285 0.929 . S
H4276 C4280 0.929 . S
H4277 C4286 0.929 . S
C4278 H4272 0.930 . S
C4278 C4279 1.367 . S
C4278 C4286 1.378 . S
C4279 C4278 1.367 . S
C4279 C4287 1.433 . S
C4280 H4276 0.929 . S
C4280 C4282 1.378 . S
C4280 C4284 1.350 . S
C4281 C4284 1.463 . S
C4281 C4286 1.350 . S
C4281 N4289 1.427 . S
C4282 H4273 0.930 . S
C4282 C4280 1.378 . S
C4282 C4283 1.367 . S
C4283 C4282 1.367 . S
C4283 C4285 1.433 . S
C4284 C4280 1.350 . S
C4284 C4281 1.463 . S
C4284 N4288 1.427 . S
C4285 H4275 0.929 . S
C4285 C4283 1.433 . S
C4285 N4288 1.384 . S
C4286 H4277 0.929 . S
C4286 C4278 1.378 . S
C4286 C4281 1.350 . S
C4287 H4274 0.929 . S
C4287 C4279 1.433 . S
C4287 N4289 1.384 . S
N4288 C4284 1.427 . S
N4288 C4285 1.384 . S
N4289 C4281 1.427 . S
N4289 C4287 1.384 . S
H4290 C4296 0.930 . S
H4291 C4300 0.930 . S
H4292 C4305 0.929 . S
H4293 C4303 0.929 . S
H4294 C4298 0.929 . S
H4295 C4304 0.929 . S
C4296 H4290 0.930 . S
C4296 C4297 1.367 . S
C4296 C4304 1.378 . S
C4297 C4296 1.367 . S
C4297 C4305 1.433 . S
C4298 H4294 0.929 . S
C4298 C4300 1.378 . S
C4298 C4302 1.350 . S
C4299 C4302 1.463 . S
C4299 C4304 1.350 . S
C4299 N4307 1.427 . S
C4300 H4291 0.930 . S
C4300 C4298 1.378 . S
C4300 C4301 1.367 . S
C4301 C4300 1.367 . S
C4301 C4303 1.433 . S
C4302 C4298 1.350 . S
C4302 C4299 1.463 . S
C4302 N4306 1.427 . S
C4303 H4293 0.929 . S
C4303 C4301 1.433 . S
C4303 N4306 1.384 . S
C4304 H4295 0.929 . S
C4304 C4296 1.378 . S
C4304 C4299 1.350 . S
C4305 H4292 0.929 . S
C4305 C4297 1.433 . S
C4305 N4307 1.384 . S
N4306 C4302 1.427 . S
N4306 C4303 1.384 . S
N4307 C4299 1.427 . S
N4307 C4305 1.384 . S
H4308 C4314 0.930 . S
H4309 C4318 0.930 . S
H4310 C4323 0.929 . S
H4311 C4321 0.929 . S
H4312 C4316 0.929 . S
H4313 C4322 0.929 . S
C4314 H4308 0.930 . S
C4314 C4315 1.367 . S
C4314 C4322 1.378 . S
C4315 C4314 1.367 . S
C4315 C4323 1.433 . S
C4316 H4312 0.929 . S
C4316 C4318 1.378 . S
C4316 C4320 1.350 . S
C4317 C4320 1.463 . S
C4317 C4322 1.350 . S
C4317 N4325 1.427 . S
C4318 H4309 0.930 . S
C4318 C4316 1.378 . S
C4318 C4319 1.367 . S
C4319 C4318 1.367 . S
C4319 C4321 1.433 . S
C4320 C4316 1.350 . S
C4320 C4317 1.463 . S
C4320 N4324 1.427 . S
C4321 H4311 0.929 . S
C4321 C4319 1.433 . S
C4321 N4324 1.384 . S
C4322 H4313 0.929 . S
C4322 C4314 1.378 . S
C4322 C4317 1.350 . S
C4323 H4310 0.929 . S
C4323 C4315 1.433 . S
C4323 N4325 1.384 . S
N4324 C4320 1.427 . S
N4324 C4321 1.384 . S
N4325 C4317 1.427 . S
N4325 C4323 1.384 . S
H4326 C4332 0.930 . S
H4327 C4336 0.930 . S
H4328 C4341 0.929 . S
H4329 C4339 0.929 . S
H4330 C4334 0.929 . S
H4331 C4340 0.929 . S
C4332 H4326 0.930 . S
C4332 C4333 1.367 . S
C4332 C4340 1.378 . S
C4333 C4332 1.367 . S
C4333 C4341 1.433 . S
C4334 H4330 0.929 . S
C4334 C4336 1.378 . S
C4334 C4338 1.350 . S
C4335 C4338 1.463 . S
C4335 C4340 1.350 . S
C4335 N4343 1.427 . S
C4336 H4327 0.930 . S
C4336 C4334 1.378 . S
C4336 C4337 1.367 . S
C4337 C4336 1.367 . S
C4337 C4339 1.433 . S
C4338 C4334 1.350 . S
C4338 C4335 1.463 . S
C4338 N4342 1.427 . S
C4339 H4329 0.929 . S
C4339 C4337 1.433 . S
C4339 N4342 1.384 . S
C4340 H4331 0.929 . S
C4340 C4332 1.378 . S
C4340 C4335 1.350 . S
C4341 H4328 0.929 . S
C4341 C4333 1.433 . S
C4341 N4343 1.384 . S
N4342 C4338 1.427 . S
N4342 C4339 1.384 . S
N4343 C4335 1.427 . S
N4343 C4341 1.384 . S
H4344 C4350 0.930 . S
H4345 C4354 0.930 . S
H4346 C4359 0.929 . S
H4347 C4357 0.929 . S
H4348 C4352 0.929 . S
H4349 C4358 0.929 . S
C4350 H4344 0.930 . S
C4350 C4351 1.367 . S
C4350 C4358 1.378 . S
C4351 C4350 1.367 . S
C4351 C4359 1.433 . S
C4352 H4348 0.929 . S
C4352 C4354 1.378 . S
C4352 C4356 1.350 . S
C4353 C4356 1.463 . S
C4353 C4358 1.350 . S
C4353 N4361 1.427 . S
C4354 H4345 0.930 . S
C4354 C4352 1.378 . S
C4354 C4355 1.367 . S
C4355 C4354 1.367 . S
C4355 C4357 1.433 . S
C4356 C4352 1.350 . S
C4356 C4353 1.463 . S
C4356 N4360 1.427 . S
C4357 H4347 0.929 . S
C4357 C4355 1.433 . S
C4357 N4360 1.384 . S
C4358 H4349 0.929 . S
C4358 C4350 1.378 . S
C4358 C4353 1.350 . S
C4359 H4346 0.929 . S
C4359 C4351 1.433 . S
C4359 N4361 1.384 . S
N4360 C4356 1.427 . S
N4360 C4357 1.384 . S
N4361 C4353 1.427 . S
N4361 C4359 1.384 . S
H4362 C4368 0.930 . S
H4363 C4372 0.930 . S
H4364 C4377 0.929 . S
H4365 C4375 0.929 . S
H4366 C4370 0.929 . S
H4367 C4376 0.929 . S
C4368 H4362 0.930 . S
C4368 C4369 1.367 . S
C4368 C4376 1.378 . S
C4369 C4368 1.367 . S
C4369 C4377 1.433 . S
C4370 H4366 0.929 . S
C4370 C4372 1.378 . S
C4370 C4374 1.350 . S
C4371 C4374 1.463 . S
C4371 C4376 1.350 . S
C4371 N4379 1.427 . S
C4372 H4363 0.930 . S
C4372 C4370 1.378 . S
C4372 C4373 1.367 . S
C4373 C4372 1.367 . S
C4373 C4375 1.433 . S
C4374 C4370 1.350 . S
C4374 C4371 1.463 . S
C4374 N4378 1.427 . S
C4375 H4365 0.929 . S
C4375 C4373 1.433 . S
C4375 N4378 1.384 . S
C4376 H4367 0.929 . S
C4376 C4368 1.378 . S
C4376 C4371 1.350 . S
C4377 H4364 0.929 . S
C4377 C4369 1.433 . S
C4377 N4379 1.384 . S
N4378 C4374 1.427 . S
N4378 C4375 1.384 . S
N4379 C4371 1.427 . S
N4379 C4377 1.384 . S
H4380 C4386 0.930 . S
H4381 C4390 0.930 . S
H4382 C4395 0.929 . S
H4383 C4393 0.929 . S
H4384 C4388 0.929 . S
H4385 C4394 0.929 . S
C4386 H4380 0.930 . S
C4386 C4387 1.367 . S
C4386 C4394 1.378 . S
C4387 C4386 1.367 . S
C4387 C4395 1.433 . S
C4388 H4384 0.929 . S
C4388 C4390 1.378 . S
C4388 C4392 1.350 . S
C4389 C4392 1.463 . S
C4389 C4394 1.350 . S
C4389 N4397 1.427 . S
C4390 H4381 0.930 . S
C4390 C4388 1.378 . S
C4390 C4391 1.367 . S
C4391 C4390 1.367 . S
C4391 C4393 1.433 . S
C4392 C4388 1.350 . S
C4392 C4389 1.463 . S
C4392 N4396 1.427 . S
C4393 H4383 0.929 . S
C4393 C4391 1.433 . S
C4393 N4396 1.384 . S
C4394 H4385 0.929 . S
C4394 C4386 1.378 . S
C4394 C4389 1.350 . S
C4395 H4382 0.929 . S
C4395 C4387 1.433 . S
C4395 N4397 1.384 . S
N4396 C4392 1.427 . S
N4396 C4393 1.384 . S
N4397 C4389 1.427 . S
N4397 C4395 1.384 . S
H4398 C4404 0.930 . S
H4399 C4408 0.930 . S
H4400 C4413 0.929 . S
H4401 C4411 0.929 . S
H4402 C4406 0.929 . S
H4403 C4412 0.929 . S
C4404 H4398 0.930 . S
C4404 C4405 1.367 . S
C4404 C4412 1.378 . S
C4405 C4404 1.367 . S
C4405 C4413 1.433 . S
C4406 H4402 0.929 . S
C4406 C4408 1.378 . S
C4406 C4410 1.350 . S
C4407 C4410 1.463 . S
C4407 C4412 1.350 . S
C4407 N4415 1.427 . S
C4408 H4399 0.930 . S
C4408 C4406 1.378 . S
C4408 C4409 1.367 . S
C4409 C4408 1.367 . S
C4409 C4411 1.433 . S
C4410 C4406 1.350 . S
C4410 C4407 1.463 . S
C4410 N4414 1.427 . S
C4411 H4401 0.929 . S
C4411 C4409 1.433 . S
C4411 N4414 1.384 . S
C4412 H4403 0.929 . S
C4412 C4404 1.378 . S
C4412 C4407 1.350 . S
C4413 H4400 0.929 . S
C4413 C4405 1.433 . S
C4413 N4415 1.384 . S
N4414 C4410 1.427 . S
N4414 C4411 1.384 . S
N4415 C4407 1.427 . S
N4415 C4413 1.384 . S
H4416 C4422 0.930 . S
H4417 C4426 0.930 . S
H4418 C4431 0.929 . S
H4419 C4429 0.929 . S
H4420 C4424 0.929 . S
H4421 C4430 0.929 . S
C4422 H4416 0.930 . S
C4422 C4423 1.367 . S
C4422 C4430 1.378 . S
C4423 C4422 1.367 . S
C4423 C4431 1.433 . S
C4424 H4420 0.929 . S
C4424 C4426 1.378 . S
C4424 C4428 1.350 . S
C4425 C4428 1.463 . S
C4425 C4430 1.350 . S
C4425 N4433 1.427 . S
C4426 H4417 0.930 . S
C4426 C4424 1.378 . S
C4426 C4427 1.367 . S
C4427 C4426 1.367 . S
C4427 C4429 1.433 . S
C4428 C4424 1.350 . S
C4428 C4425 1.463 . S
C4428 N4432 1.427 . S
C4429 H4419 0.929 . S
C4429 C4427 1.433 . S
C4429 N4432 1.384 . S
C4430 H4421 0.929 . S
C4430 C4422 1.378 . S
C4430 C4425 1.350 . S
C4431 H4418 0.929 . S
C4431 C4423 1.433 . S
C4431 N4433 1.384 . S
N4432 C4428 1.427 . S
N4432 C4429 1.384 . S
N4433 C4425 1.427 . S
N4433 C4431 1.384 . S
H4434 C4440 0.930 . S
H4435 C4444 0.930 . S
H4436 C4449 0.929 . S
H4437 C4447 0.929 . S
H4438 C4442 0.929 . S
H4439 C4448 0.929 . S
C4440 H4434 0.930 . S
C4440 C4441 1.367 . S
C4440 C4448 1.378 . S
C4441 C4440 1.367 . S
C4441 C4449 1.433 . S
C4442 H4438 0.929 . S
C4442 C4444 1.378 . S
C4442 C4446 1.350 . S
C4443 C4446 1.463 . S
C4443 C4448 1.350 . S
C4443 N4451 1.427 . S
C4444 H4435 0.930 . S
C4444 C4442 1.378 . S
C4444 C4445 1.367 . S
C4445 C4444 1.367 . S
C4445 C4447 1.433 . S
C4446 C4442 1.350 . S
C4446 C4443 1.463 . S
C4446 N4450 1.427 . S
C4447 H4437 0.929 . S
C4447 C4445 1.433 . S
C4447 N4450 1.384 . S
C4448 H4439 0.929 . S
C4448 C4440 1.378 . S
C4448 C4443 1.350 . S
C4449 H4436 0.929 . S
C4449 C4441 1.433 . S
C4449 N4451 1.384 . S
N4450 C4446 1.427 . S
N4450 C4447 1.384 . S
N4451 C4443 1.427 . S
N4451 C4449 1.384 . S
H4452 C4458 0.930 . S
H4453 C4462 0.930 . S
H4454 C4467 0.929 . S
H4455 C4465 0.929 . S
H4456 C4460 0.929 . S
H4457 C4466 0.929 . S
C4458 H4452 0.930 . S
C4458 C4459 1.367 . S
C4458 C4466 1.378 . S
C4459 C4458 1.367 . S
C4459 C4467 1.433 . S
C4460 H4456 0.929 . S
C4460 C4462 1.378 . S
C4460 C4464 1.350 . S
C4461 C4464 1.463 . S
C4461 C4466 1.350 . S
C4461 N4469 1.427 . S
C4462 H4453 0.930 . S
C4462 C4460 1.378 . S
C4462 C4463 1.367 . S
C4463 C4462 1.367 . S
C4463 C4465 1.433 . S
C4464 C4460 1.350 . S
C4464 C4461 1.463 . S
C4464 N4468 1.427 . S
C4465 H4455 0.929 . S
C4465 C4463 1.433 . S
C4465 N4468 1.384 . S
C4466 H4457 0.929 . S
C4466 C4458 1.378 . S
C4466 C4461 1.350 . S
C4467 H4454 0.929 . S
C4467 C4459 1.433 . S
C4467 N4469 1.384 . S
N4468 C4464 1.427 . S
N4468 C4465 1.384 . S
N4469 C4461 1.427 . S
N4469 C4467 1.384 . S
H4470 C4476 0.930 . S
H4471 C4480 0.930 . S
H4472 C4485 0.929 . S
H4473 C4483 0.929 . S
H4474 C4478 0.929 . S
H4475 C4484 0.929 . S
C4476 H4470 0.930 . S
C4476 C4477 1.367 . S
C4476 C4484 1.378 . S
C4477 C4476 1.367 . S
C4477 C4485 1.433 . S
C4478 H4474 0.929 . S
C4478 C4480 1.378 . S
C4478 C4482 1.350 . S
C4479 C4482 1.463 . S
C4479 C4484 1.350 . S
C4479 N4487 1.427 . S
C4480 H4471 0.930 . S
C4480 C4478 1.378 . S
C4480 C4481 1.367 . S
C4481 C4480 1.367 . S
C4481 C4483 1.433 . S
C4482 C4478 1.350 . S
C4482 C4479 1.463 . S
C4482 N4486 1.427 . S
C4483 H4473 0.929 . S
C4483 C4481 1.433 . S
C4483 N4486 1.384 . S
C4484 H4475 0.929 . S
C4484 C4476 1.378 . S
C4484 C4479 1.350 . S
C4485 H4472 0.929 . S
C4485 C4477 1.433 . S
C4485 N4487 1.384 . S
N4486 C4482 1.427 . S
N4486 C4483 1.384 . S
N4487 C4479 1.427 . S
N4487 C4485 1.384 . S
H4488 C4494 0.930 . S
H4489 C4498 0.930 . S
H4490 C4503 0.929 . S
H4491 C4501 0.929 . S
H4492 C4496 0.929 . S
H4493 C4502 0.929 . S
C4494 H4488 0.930 . S
C4494 C4495 1.367 . S
C4494 C4502 1.378 . S
C4495 C4494 1.367 . S
C4495 C4503 1.433 . S
C4496 H4492 0.929 . S
C4496 C4498 1.378 . S
C4496 C4500 1.350 . S
C4497 C4500 1.463 . S
C4497 C4502 1.350 . S
C4497 N4505 1.427 . S
C4498 H4489 0.930 . S
C4498 C4496 1.378 . S
C4498 C4499 1.367 . S
C4499 C4498 1.367 . S
C4499 C4501 1.433 . S
C4500 C4496 1.350 . S
C4500 C4497 1.463 . S
C4500 N4504 1.427 . S
C4501 H4491 0.929 . S
C4501 C4499 1.433 . S
C4501 N4504 1.384 . S
C4502 H4493 0.929 . S
C4502 C4494 1.378 . S
C4502 C4497 1.350 . S
C4503 H4490 0.929 . S
C4503 C4495 1.433 . S
C4503 N4505 1.384 . S
N4504 C4500 1.427 . S
N4504 C4501 1.384 . S
N4505 C4497 1.427 . S
N4505 C4503 1.384 . S
H4506 C4512 0.930 . S
H4507 C4516 0.930 . S
H4508 C4521 0.929 . S
H4509 C4519 0.929 . S
H4510 C4514 0.929 . S
H4511 C4520 0.929 . S
C4512 H4506 0.930 . S
C4512 C4513 1.367 . S
C4512 C4520 1.378 . S
C4513 C4512 1.367 . S
C4513 C4521 1.433 . S
C4514 H4510 0.929 . S
C4514 C4516 1.378 . S
C4514 C4518 1.350 . S
C4515 C4518 1.463 . S
C4515 C4520 1.350 . S
C4515 N4523 1.427 . S
C4516 H4507 0.930 . S
C4516 C4514 1.378 . S
C4516 C4517 1.367 . S
C4517 C4516 1.367 . S
C4517 C4519 1.433 . S
C4518 C4514 1.350 . S
C4518 C4515 1.463 . S
C4518 N4522 1.427 . S
C4519 H4509 0.929 . S
C4519 C4517 1.433 . S
C4519 N4522 1.384 . S
C4520 H4511 0.929 . S
C4520 C4512 1.378 . S
C4520 C4515 1.350 . S
C4521 H4508 0.929 . S
C4521 C4513 1.433 . S
C4521 N4523 1.384 . S
N4522 C4518 1.427 . S
N4522 C4519 1.384 . S
N4523 C4515 1.427 . S
N4523 C4521 1.384 . S
H4524 C4530 0.930 . S
H4525 C4534 0.930 . S
H4526 C4539 0.929 . S
H4527 C4537 0.929 . S
H4528 C4532 0.929 . S
H4529 C4538 0.929 . S
C4530 H4524 0.930 . S
C4530 C4531 1.367 . S
C4530 C4538 1.378 . S
C4531 C4530 1.367 . S
C4531 C4539 1.433 . S
C4532 H4528 0.929 . S
C4532 C4534 1.378 . S
C4532 C4536 1.350 . S
C4533 C4536 1.463 . S
C4533 C4538 1.350 . S
C4533 N4541 1.427 . S
C4534 H4525 0.930 . S
C4534 C4532 1.378 . S
C4534 C4535 1.367 . S
C4535 C4534 1.367 . S
C4535 C4537 1.433 . S
C4536 C4532 1.350 . S
C4536 C4533 1.463 . S
C4536 N4540 1.427 . S
C4537 H4527 0.929 . S
C4537 C4535 1.433 . S
C4537 N4540 1.384 . S
C4538 H4529 0.929 . S
C4538 C4530 1.378 . S
C4538 C4533 1.350 . S
C4539 H4526 0.929 . S
C4539 C4531 1.433 . S
C4539 N4541 1.384 . S
N4540 C4536 1.427 . S
N4540 C4537 1.384 . S
N4541 C4533 1.427 . S
N4541 C4539 1.384 . S
H4542 C4548 0.930 . S
H4543 C4552 0.930 . S
H4544 C4557 0.929 . S
H4545 C4555 0.929 . S
H4546 C4550 0.929 . S
H4547 C4556 0.929 . S
C4548 H4542 0.930 . S
C4548 C4549 1.367 . S
C4548 C4556 1.378 . S
C4549 C4548 1.367 . S
C4549 C4557 1.433 . S
C4550 H4546 0.929 . S
C4550 C4552 1.378 . S
C4550 C4554 1.350 . S
C4551 C4554 1.463 . S
C4551 C4556 1.350 . S
C4551 N4559 1.427 . S
C4552 H4543 0.930 . S
C4552 C4550 1.378 . S
C4552 C4553 1.367 . S
C4553 C4552 1.367 . S
C4553 C4555 1.433 . S
C4554 C4550 1.350 . S
C4554 C4551 1.463 . S
C4554 N4558 1.427 . S
C4555 H4545 0.929 . S
C4555 C4553 1.433 . S
C4555 N4558 1.384 . S
C4556 H4547 0.929 . S
C4556 C4548 1.378 . S
C4556 C4551 1.350 . S
C4557 H4544 0.929 . S
C4557 C4549 1.433 . S
C4557 N4559 1.384 . S
N4558 C4554 1.427 . S
N4558 C4555 1.384 . S
N4559 C4551 1.427 . S
N4559 C4557 1.384 . S
H4560 C4566 0.930 . S
H4561 C4570 0.930 . S
H4562 C4575 0.929 . S
H4563 C4573 0.929 . S
H4564 C4568 0.929 . S
H4565 C4574 0.929 . S
C4566 H4560 0.930 . S
C4566 C4567 1.367 . S
C4566 C4574 1.378 . S
C4567 C4566 1.367 . S
C4567 C4575 1.433 . S
C4568 H4564 0.929 . S
C4568 C4570 1.378 . S
C4568 C4572 1.350 . S
C4569 C4572 1.463 . S
C4569 C4574 1.350 . S
C4569 N4577 1.427 . S
C4570 H4561 0.930 . S
C4570 C4568 1.378 . S
C4570 C4571 1.367 . S
C4571 C4570 1.367 . S
C4571 C4573 1.433 . S
C4572 C4568 1.350 . S
C4572 C4569 1.463 . S
C4572 N4576 1.427 . S
C4573 H4563 0.929 . S
C4573 C4571 1.433 . S
C4573 N4576 1.384 . S
C4574 H4565 0.929 . S
C4574 C4566 1.378 . S
C4574 C4569 1.350 . S
C4575 H4562 0.929 . S
C4575 C4567 1.433 . S
C4575 N4577 1.384 . S
N4576 C4572 1.427 . S
N4576 C4573 1.384 . S
N4577 C4569 1.427 . S
N4577 C4575 1.384 . S
H4578 C4584 0.930 . S
H4579 C4588 0.930 . S
H4580 C4593 0.929 . S
H4581 C4591 0.929 . S
H4582 C4586 0.929 . S
H4583 C4592 0.929 . S
C4584 H4578 0.930 . S
C4584 C4585 1.367 . S
C4584 C4592 1.378 . S
C4585 C4584 1.367 . S
C4585 C4593 1.433 . S
C4586 H4582 0.929 . S
C4586 C4588 1.378 . S
C4586 C4590 1.350 . S
C4587 C4590 1.463 . S
C4587 C4592 1.350 . S
C4587 N4595 1.427 . S
C4588 H4579 0.930 . S
C4588 C4586 1.378 . S
C4588 C4589 1.367 . S
C4589 C4588 1.367 . S
C4589 C4591 1.433 . S
C4590 C4586 1.350 . S
C4590 C4587 1.463 . S
C4590 N4594 1.427 . S
C4591 H4581 0.929 . S
C4591 C4589 1.433 . S
C4591 N4594 1.384 . S
C4592 H4583 0.929 . S
C4592 C4584 1.378 . S
C4592 C4587 1.350 . S
C4593 H4580 0.929 . S
C4593 C4585 1.433 . S
C4593 N4595 1.384 . S
N4594 C4590 1.427 . S
N4594 C4591 1.384 . S
N4595 C4587 1.427 . S
N4595 C4593 1.384 . S
H4596 C4602 0.930 . S
H4597 C4606 0.930 . S
H4598 C4611 0.929 . S
H4599 C4609 0.929 . S
H4600 C4604 0.929 . S
H4601 C4610 0.929 . S
C4602 H4596 0.930 . S
C4602 C4603 1.367 . S
C4602 C4610 1.378 . S
C4603 C4602 1.367 . S
C4603 C4611 1.433 . S
C4604 H4600 0.929 . S
C4604 C4606 1.378 . S
C4604 C4608 1.350 . S
C4605 C4608 1.463 . S
C4605 C4610 1.350 . S
C4605 N4613 1.427 . S
C4606 H4597 0.930 . S
C4606 C4604 1.378 . S
C4606 C4607 1.367 . S
C4607 C4606 1.367 . S
C4607 C4609 1.433 . S
C4608 C4604 1.350 . S
C4608 C4605 1.463 . S
C4608 N4612 1.427 . S
C4609 H4599 0.929 . S
C4609 C4607 1.433 . S
C4609 N4612 1.384 . S
C4610 H4601 0.929 . S
C4610 C4602 1.378 . S
C4610 C4605 1.350 . S
C4611 H4598 0.929 . S
C4611 C4603 1.433 . S
C4611 N4613 1.384 . S
N4612 C4608 1.427 . S
N4612 C4609 1.384 . S
N4613 C4605 1.427 . S
N4613 C4611 1.384 . S
H4614 C4620 0.930 . S
H4615 C4624 0.930 . S
H4616 C4629 0.929 . S
H4617 C4627 0.929 . S
H4618 C4622 0.929 . S
H4619 C4628 0.929 . S
C4620 H4614 0.930 . S
C4620 C4621 1.367 . S
C4620 C4628 1.378 . S
C4621 C4620 1.367 . S
C4621 C4629 1.433 . S
C4622 H4618 0.929 . S
C4622 C4624 1.378 . S
C4622 C4626 1.350 . S
C4623 C4626 1.463 . S
C4623 C4628 1.350 . S
C4623 N4631 1.427 . S
C4624 H4615 0.930 . S
C4624 C4622 1.378 . S
C4624 C4625 1.367 . S
C4625 C4624 1.367 . S
C4625 C4627 1.433 . S
C4626 C4622 1.350 . S
C4626 C4623 1.463 . S
C4626 N4630 1.427 . S
C4627 H4617 0.929 . S
C4627 C4625 1.433 . S
C4627 N4630 1.384 . S
C4628 H4619 0.929 . S
C4628 C4620 1.378 . S
C4628 C4623 1.350 . S
C4629 H4616 0.929 . S
C4629 C4621 1.433 . S
C4629 N4631 1.384 . S
N4630 C4626 1.427 . S
N4630 C4627 1.384 . S
N4631 C4623 1.427 . S
N4631 C4629 1.384 . S
H4632 C4638 0.930 . S
H4633 C4642 0.930 . S
H4634 C4647 0.929 . S
H4635 C4645 0.929 . S
H4636 C4640 0.929 . S
H4637 C4646 0.929 . S
C4638 H4632 0.930 . S
C4638 C4639 1.367 . S
C4638 C4646 1.378 . S
C4639 C4638 1.367 . S
C4639 C4647 1.433 . S
C4640 H4636 0.929 . S
C4640 C4642 1.378 . S
C4640 C4644 1.350 . S
C4641 C4644 1.463 . S
C4641 C4646 1.350 . S
C4641 N4649 1.427 . S
C4642 H4633 0.930 . S
C4642 C4640 1.378 . S
C4642 C4643 1.367 . S
C4643 C4642 1.367 . S
C4643 C4645 1.433 . S
C4644 C4640 1.350 . S
C4644 C4641 1.463 . S
C4644 N4648 1.427 . S
C4645 H4635 0.929 . S
C4645 C4643 1.433 . S
C4645 N4648 1.384 . S
C4646 H4637 0.929 . S
C4646 C4638 1.378 . S
C4646 C4641 1.350 . S
C4647 H4634 0.929 . S
C4647 C4639 1.433 . S
C4647 N4649 1.384 . S
N4648 C4644 1.427 . S
N4648 C4645 1.384 . S
N4649 C4641 1.427 . S
N4649 C4647 1.384 . S
H4650 C4656 0.930 . S
H4651 C4660 0.930 . S
H4652 C4665 0.929 . S
H4653 C4663 0.929 . S
H4654 C4658 0.929 . S
H4655 C4664 0.929 . S
C4656 H4650 0.930 . S
C4656 C4657 1.367 . S
C4656 C4664 1.378 . S
C4657 C4656 1.367 . S
C4657 C4665 1.433 . S
C4658 H4654 0.929 . S
C4658 C4660 1.378 . S
C4658 C4662 1.350 . S
C4659 C4662 1.463 . S
C4659 C4664 1.350 . S
C4659 N4667 1.427 . S
C4660 H4651 0.930 . S
C4660 C4658 1.378 . S
C4660 C4661 1.367 . S
C4661 C4660 1.367 . S
C4661 C4663 1.433 . S
C4662 C4658 1.350 . S
C4662 C4659 1.463 . S
C4662 N4666 1.427 . S
C4663 H4653 0.929 . S
C4663 C4661 1.433 . S
C4663 N4666 1.384 . S
C4664 H4655 0.929 . S
C4664 C4656 1.378 . S
C4664 C4659 1.350 . S
C4665 H4652 0.929 . S
C4665 C4657 1.433 . S
C4665 N4667 1.384 . S
N4666 C4662 1.427 . S
N4666 C4663 1.384 . S
N4667 C4659 1.427 . S
N4667 C4665 1.384 . S
H4668 C4674 0.930 . S
H4669 C4678 0.930 . S
H4670 C4683 0.929 . S
H4671 C4681 0.929 . S
H4672 C4676 0.929 . S
H4673 C4682 0.929 . S
C4674 H4668 0.930 . S
C4674 C4675 1.367 . S
C4674 C4682 1.378 . S
C4675 C4674 1.367 . S
C4675 C4683 1.433 . S
C4676 H4672 0.929 . S
C4676 C4678 1.378 . S
C4676 C4680 1.350 . S
C4677 C4680 1.463 . S
C4677 C4682 1.350 . S
C4677 N4685 1.427 . S
C4678 H4669 0.930 . S
C4678 C4676 1.378 . S
C4678 C4679 1.367 . S
C4679 C4678 1.367 . S
C4679 C4681 1.433 . S
C4680 C4676 1.350 . S
C4680 C4677 1.463 . S
C4680 N4684 1.427 . S
C4681 H4671 0.929 . S
C4681 C4679 1.433 . S
C4681 N4684 1.384 . S
C4682 H4673 0.929 . S
C4682 C4674 1.378 . S
C4682 C4677 1.350 . S
C4683 H4670 0.929 . S
C4683 C4675 1.433 . S
C4683 N4685 1.384 . S
N4684 C4680 1.427 . S
N4684 C4681 1.384 . S
N4685 C4677 1.427 . S
N4685 C4683 1.384 . S
H4686 C4692 0.930 . S
H4687 C4696 0.930 . S
H4688 C4701 0.929 . S
H4689 C4699 0.929 . S
H4690 C4694 0.929 . S
H4691 C4700 0.929 . S
C4692 H4686 0.930 . S
C4692 C4693 1.367 . S
C4692 C4700 1.378 . S
C4693 C4692 1.367 . S
C4693 C4701 1.433 . S
C4694 H4690 0.929 . S
C4694 C4696 1.378 . S
C4694 C4698 1.350 . S
C4695 C4698 1.463 . S
C4695 C4700 1.350 . S
C4695 N4703 1.427 . S
C4696 H4687 0.930 . S
C4696 C4694 1.378 . S
C4696 C4697 1.367 . S
C4697 C4696 1.367 . S
C4697 C4699 1.433 . S
C4698 C4694 1.350 . S
C4698 C4695 1.463 . S
C4698 N4702 1.427 . S
C4699 H4689 0.929 . S
C4699 C4697 1.433 . S
C4699 N4702 1.384 . S
C4700 H4691 0.929 . S
C4700 C4692 1.378 . S
C4700 C4695 1.350 . S
C4701 H4688 0.929 . S
C4701 C4693 1.433 . S
C4701 N4703 1.384 . S
N4702 C4698 1.427 . S
N4702 C4699 1.384 . S
N4703 C4695 1.427 . S
N4703 C4701 1.384 . S
C1255 C4 1.720 . S
C1259 C888 1.720 . S
C1273 C855 1.721 . S
C1277 C23 1.721 . S
C1291 C862 1.721 . S
C1295 C30 1.721 . S
C1309 C49 1.717 . S
C1313 C875 1.717 . S
C1327 C933 1.718 . S
C1331 C62 1.719 . S
C1345 C901 1.719 . S
C1349 C69 1.720 . S
C1363 C914 1.719 . S
C1367 C82 1.720 . S
C1381 C101 1.716 . S
C1385 C836 1.716 . S
C1399 C108 1.716 . S
C1403 C829 1.717 . S
C1417 C121 1.721 . S
C1421 C790 1.721 . S
C1435 C134 1.720 . S
C1439 C803 1.721 . S
C1453 C147 1.721 . S
C1457 C816 1.721 . S
C1471 C160 1.721 . S
C1475 C745 1.721 . S
C1489 C764 1.718 . S
C1493 C179 1.717 . S
C1507 C777 1.718 . S
C1511 C192 1.719 . S
C1525 C205 1.721 . S
C1529 C732 1.721 . S
C1543 C218 1.720 . S
C1547 C719 1.719 . S
C1561 C231 1.721 . S
C1565 C647 1.720 . S
C1579 C654 1.716 . S
C1583 C238 1.716 . S
C1597 C673 1.718 . S
C1601 C257 1.719 . S
C1615 C628 1.720 . S
C1619 C270 1.719 . S
C1633 C277 1.720 . S
C1637 C699 1.719 . S
C1651 C290 1.719 . S
C1655 C706 1.720 . S
C1669 C309 1.717 . S
C1673 C680 1.716 . S
C1687 C316 1.720 . S
C1691 C1200 1.719 . S
C1705 C335 1.720 . S
C1709 C1161 1.721 . S
C1723 C342 1.716 . S
C1727 C1174 1.716 . S
C1741 C361 1.719 . S
C1745 C1193 1.720 . S
C1759 C368 1.718 . S
C1763 C1239 1.717 . S
C1777 C381 1.721 . S
C1781 C1219 1.721 . S
C1795 C1232 1.716 . S
C1799 C400 1.716 . S
C1813 C407 1.721 . S
C1817 C1154 1.720 . S
C1831 C420 1.717 . S
C1835 C1141 1.716 . S
C1849 C1102 1.716 . S
C1853 C433 1.716 . S
C1867 C452 1.716 . S
C1871 C1109 1.716 . S
C1885 C459 1.721 . S
C1889 C1122 1.720 . S
C1903 C478 1.718 . S
C1907 C1063 1.717 . S
C1921 C485 1.719 . S
C1925 C1076 1.720 . S
C1939 C498 1.716 . S
C1943 C1083 1.717 . S
C1957 C1044 1.720 . S
C1961 C517 1.719 . S
C1975 C524 1.718 . S
C1979 C1037 1.719 . S
C1993 C543 1.717 . S
C1997 C953 1.718 . S
C2011 C550 1.720 . S
C2015 C966 1.719 . S
C2029 C985 1.716 . S
C2033 C563 1.716 . S
C2047 C582 1.716 . S
C2051 C946 1.716 . S
C2065 C1005 1.719 . S
C2069 C589 1.718 . S
C2083 C602 1.718 . S
C2087 C1024 1.719 . S
C2101 C615 1.716 . S
C2105 C992 1.716 . S
C2119 C3 1.414 . S
C2123 C512 1.419 . S
C2137 C18 1.414 . S
C2141 C473 1.419 . S
C2155 C484 1.415 . S
C2159 C29 1.418 . S
C2173 C44 1.414 . S
C2177 C497 1.419 . S
C2191 C432 1.415 . S
C2195 C57 1.418 . S
C2209 C447 1.414 . S
C2213 C68 1.419 . S
C2227 C458 1.417 . S
C2231 C81 1.416 . S
C2245 C419 1.415 . S
C2249 C96 1.418 . S
C2263 C406 1.414 . S
C2267 C107 1.419 . S
C2281 C120 1.418 . S
C2285 C367 1.415 . S
C2299 C380 1.419 . S
C2303 C133 1.414 . S
C2317 C146 1.419 . S
C2321 C395 1.414 . S
C2335 C330 1.416 . S
C2339 C159 1.417 . S
C2353 C341 1.418 . S
C2357 C174 1.415 . S
C2371 C187 1.419 . S
C2375 C356 1.414 . S
C2389 C200 1.415 . S
C2393 C315 1.419 . S
C2407 C213 1.416 . S
C2411 C577 1.417 . S
C2425 C226 1.415 . S
C2429 C614 1.419 . S
C2443 C588 1.419 . S
C2447 C237 1.414 . S
C2461 C601 1.418 . S
C2465 C252 1.415 . S
C2479 C265 1.415 . S
C2483 C523 1.418 . S
C2497 C276 1.419 . S
C2501 C549 1.414 . S
C2515 C562 1.414 . S
C2519 C289 1.419 . S
C2533 C304 1.414 . S
C2537 C538 1.419 . S
C2551 C1136 1.417 . S
C2555 C627 1.416 . S
C2569 C1097 1.414 . S
C2573 C642 1.419 . S
C2587 C1108 1.417 . S
C2591 C653 1.416 . S
C2605 C668 1.415 . S
C2609 C1121 1.418 . S
C2623 C1058 1.417 . S
C2627 C679 1.417 . S
C2641 C1071 1.419 . S
C2645 C694 1.414 . S
C2659 C705 1.414 . S
C2663 C1082 1.419 . S
C2677 C718 1.414 . S
C2681 C1043 1.419 . S
C2695 C1032 1.419 . S
C2699 C731 1.415 . S
C2713 C744 1.414 . S
C2717 C991 1.419 . S
C2731 C1004 1.415 . S
C2735 C759 1.419 . S
C2749 C1019 1.419 . S
C2753 C772 1.414 . S
C2767 C785 1.418 . S
C2771 C952 1.415 . S
C2785 C798 1.415 . S
C2789 C965 1.419 . S
C2803 C980 1.419 . S
C2807 C811 1.414 . S
C2821 C824 1.417 . S
C2825 C941 1.416 . S
C2839 C1199 1.419 . S
C2843 C835 1.414 . S
C2857 C1238 1.419 . S
C2861 C850 1.414 . S
C2875 C861 1.418 . S
C2879 C1214 1.415 . S
C2893 C1227 1.415 . S
C2897 C874 1.419 . S
C2911 C1149 1.419 . S
C2915 C887 1.414 . S
C2929 C1173 1.419 . S
C2933 C900 1.414 . S
C2947 C913 1.415 . S
C2951 C1188 1.418 . S
C2965 C1160 1.415 . S
C2969 C928 1.418 . S
C2983 C5 1.235 . S
C2987 C369 1.228 . S
C3001 C382 1.234 . S
C3005 C16 1.229 . S
C3019 C31 1.234 . S
C3023 C393 1.229 . S
C3037 C408 1.228 . S
C3041 C42 1.235 . S
C3055 C55 1.232 . S
C3059 C317 1.232 . S
C3073 C70 1.234 . S
C3077 C328 1.229 . S
C3091 C83 1.233 . S
C3095 C343 1.230 . S
C3109 C354 1.235 . S
C3113 C94 1.228 . S
C3127 C499 1.229 . S
C3131 C109 1.235 . S
C3145 C122 1.235 . S
C3149 C510 1.228 . S
C3163 C135 1.229 . S
C3167 C471 1.235 . S
C3181 C148 1.228 . S
C3185 C486 1.236 . S
C3199 C161 1.235 . S
C3203 C445 1.229 . S
C3217 C172 1.235 . S
C3221 C460 1.228 . S
C3235 C185 1.234 . S
C3239 C421 1.229 . S
C3253 C198 1.235 . S
C3257 C434 1.228 . S
C3271 C211 1.234 . S
C3275 C590 1.229 . S
C3289 C224 1.229 . S
C3293 C564 1.234 . S
C3307 C575 1.228 . S
C3311 C239 1.235 . S
C3325 C250 1.234 . S
C3329 C536 1.230 . S
C3343 C551 1.235 . S
C3347 C263 1.228 . S
C3361 C278 1.231 . S
C3365 C525 1.232 . S
C3379 C291 1.228 . S
C3383 C616 1.235 . S
C3397 C603 1.235 . S
C3401 C302 1.228 . S
C3415 C993 1.229 . S
C3419 C629 1.235 . S
C3433 C640 1.229 . S
C3437 C1006 1.234 . S
C3451 C1017 1.233 . S
C3455 C655 1.230 . S
C3469 C666 1.234 . S
C3473 C1030 1.229 . S
C3487 C939 1.229 . S
C3491 C681 1.234 . S
C3505 C954 1.229 . S
C3509 C692 1.234 . S
C3523 C967 1.230 . S
C3527 C707 1.233 . S
C3541 C720 1.229 . S
C3545 C978 1.234 . S
C3559 C733 1.228 . S
C3563 C1123 1.235 . S
C3577 C1134 1.232 . S
C3581 C746 1.231 . S
C3595 C1095 1.228 . S
C3599 C757 1.235 . S
C3613 C1110 1.231 . S
C3617 C770 1.232 . S
C3631 C783 1.233 . S
C3635 C1069 1.230 . S
C3649 C796 1.235 . S
C3653 C1084 1.228 . S
C3667 C1045 1.234 . S
C3671 C809 1.229 . S
C3685 C1056 1.235 . S
C3689 C822 1.229 . S
C3703 C1212 1.230 . S
C3707 C837 1.234 . S
C3721 C848 1.230 . S
C3725 C1186 1.233 . S
C3739 C1201 1.228 . S
C3743 C863 1.235 . S
C3757 C876 1.233 . S
C3761 C1162 1.230 . S
C3775 C889 1.231 . S
C3779 C1175 1.232 . S
C3793 C902 1.229 . S
C3797 C1147 1.234 . S
C3811 C1240 1.228 . S
C3815 C915 1.235 . S
C3829 C926 1.228 . S
C3833 C1225 1.235 . S
C3847 C413 1.691 . S
C3851 C10 1.685 . S
C3865 C374 1.691 . S
C3869 C17 1.685 . S
C3883 C36 1.689 . S
C3887 C387 1.687 . S
C3901 C394 1.691 . S
C3905 C43 1.685 . S
C3919 C329 1.685 . S
C3923 C56 1.691 . S
C3937 C75 1.685 . S
C3941 C348 1.691 . S
C3955 C88 1.689 . S
C3959 C355 1.687 . S
C3973 C322 1.690 . S
C3977 C95 1.686 . S
C3991 C576 1.691 . S
C3995 C114 1.685 . S
C4009 C127 1.691 . S
C4013 C537 1.685 . S
C4027 C140 1.687 . S
C4031 C556 1.689 . S
C4045 C569 1.692 . S
C4049 C153 1.684 . S
C4063 C166 1.689 . S
C4067 C621 1.687 . S
C4081 C595 1.688 . S
C4085 C173 1.688 . S
C4099 C608 1.684 . S
C4103 C186 1.692 . S
C4117 C199 1.685 . S
C4121 C530 1.691 . S
C4135 C212 1.691 . S
C4139 C511 1.685 . S
C4153 C225 1.686 . S
C4157 C439 1.690 . S
C4171 C244 1.685 . S
C4175 C446 1.691 . S
C4189 C465 1.684 . S
C4193 C251 1.692 . S
C4207 C426 1.684 . S
C4211 C264 1.692 . S
C4225 C283 1.691 . S
C4229 C491 1.685 . S
C4243 C296 1.687 . S
C4247 C504 1.689 . S
C4261 C303 1.690 . S
C4265 C472 1.686 . S
C4279 C634 1.686 . S
C4283 C1031 1.690 . S
C4297 C641 1.689 . S
C4301 C998 1.687 . S
C4315 C660 1.687 . S
C4319 C1011 1.689 . S
C4333 C1018 1.688 . S
C4337 C667 1.688 . S
C4351 C959 1.688 . S
C4355 C686 1.688 . S
C4369 C972 1.685 . S
C4373 C693 1.691 . S
C4387 C712 1.690 . S
C4391 C979 1.686 . S
C4405 C940 1.691 . S
C4409 C725 1.685 . S
C4423 C1206 1.691 . S
C4427 C738 1.685 . S
C4441 C1167 1.690 . S
C4445 C751 1.686 . S
C4459 C1180 1.691 . S
C4463 C758 1.685 . S
C4477 C1187 1.688 . S
C4481 C771 1.688 . S
C4495 C1245 1.684 . S
C4499 C784 1.692 . S
C4513 C1213 1.692 . S
C4517 C797 1.684 . S
C4531 C1226 1.685 . S
C4535 C810 1.691 . S
C4549 C1148 1.691 . S
C4553 C823 1.685 . S
C4567 C842 1.692 . S
C4571 C1135 1.684 . S
C4585 C1057 1.687 . S
C4589 C849 1.689 . S
C4603 C1070 1.691 . S
C4607 C868 1.685 . S
C4621 C1089 1.685 . S
C4625 C881 1.691 . S
C4639 C1050 1.685 . S
C4643 C894 1.692 . S
C4657 C1115 1.691 . S
C4661 C907 1.685 . S
C4675 C1128 1.691 . S
C4679 C920 1.685 . S
C4693 C1096 1.691 . S
C4697 C927 1.685 . S
