# Generated by pormake.
# Topology msp, (4)-cn, num edge types: 1
# Building blocks:
#     Node 0, Type 0, BuildingBlock: QUQFOY_clean_sbu_1, # of connection points: 4
#     Node 1, Type 0, BuildingBlock: QUQFOY_clean_sbu_1, # of connection points: 4
#     Node 2, Type 0, BuildingBlock: QUQFOY_clean_sbu_1, # of connection points: 4
#     Node 3, Type 0, BuildingBlock: QUQFOY_clean_sbu_1, # of connection points: 4
#     Node 4, Type 0, BuildingBlock: QUQFOY_clean_sbu_1, # of connection points: 4
#     Node 5, Type 0, BuildingBlock: QUQFOY_clean_sbu_1, # of connection points: 4
#     Node 6, Type 0, BuildingBlock: QUQFOY_clean_sbu_1, # of connection points: 4
#     Node 7, Type 0, BuildingBlock: QUQFOY_clean_sbu_1, # of connection points: 4
#     Edge 8, Type (0, 0), BuildingBlock: XUDNAN_clean_linker_2, # of connection points: 2
#     Edge 9, Type (0, 0), BuildingBlock: XUDNAN_clean_linker_2, # of connection points: 2
#     Edge 10, Type (0, 0), BuildingBlock: XUDNAN_clean_linker_2, # of connection points: 2
#     Edge 11, Type (0, 0), BuildingBlock: XUDNAN_clean_linker_2, # of connection points: 2
#     Edge 12, Type (0, 0), BuildingBlock: XUDNAN_clean_linker_2, # of connection points: 2
#     Edge 13, Type (0, 0), BuildingBlock: XUDNAN_clean_linker_2, # of connection points: 2
#     Edge 14, Type (0, 0), BuildingBlock: XUDNAN_clean_linker_2, # of connection points: 2
#     Edge 15, Type (0, 0), BuildingBlock: XUDNAN_clean_linker_2, # of connection points: 2
#     Edge 16, Type (0, 0), BuildingBlock: XUDNAN_clean_linker_2, # of connection points: 2
#     Edge 17, Type (0, 0), BuildingBlock: XUDNAN_clean_linker_2, # of connection points: 2
#     Edge 18, Type (0, 0), BuildingBlock: XUDNAN_clean_linker_2, # of connection points: 2
#     Edge 19, Type (0, 0), BuildingBlock: XUDNAN_clean_linker_2, # of connection points: 2
#     Edge 20, Type (0, 0), BuildingBlock: XUDNAN_clean_linker_2, # of connection points: 2
#     Edge 21, Type (0, 0), BuildingBlock: XUDNAN_clean_linker_2, # of connection points: 2
#     Edge 22, Type (0, 0), BuildingBlock: XUDNAN_clean_linker_2, # of connection points: 2
#     Edge 23, Type (0, 0), BuildingBlock: XUDNAN_clean_linker_2, # of connection points: 2
# Relax obj value: 0.065
# Max RMSD: 0.123
# Mean RMSD: 0.123
data_MOF--net-msp--node1-QUQFOY_clean_sbu_1--edge1-XUDNAN_clean_linker_2
_symmetry_space_group_name_H-M    P1
_symmetry_Int_Tables_number       1
_symmetry_cell_setting            triclinic
loop_
_symmetry_equiv_pos_as_xyz
'x, y, z'
_cell_length_a     23.773058
_cell_length_b     37.436006
_cell_length_c     33.754295
_cell_angle_alpha  90.438007
_cell_angle_beta   93.059986
_cell_angle_gamma 90.09559
loop_
_atom_site_label
_atom_site_type_symbol
_atom_site_fract_x
_atom_site_fract_y
_atom_site_fract_z
_atom_type_partial_charge
O0 O 0.09518 0.32001 0.3495 0.0
Cd1 Cd 0.02328 0.3145 0.37944 0.0
Cd2 Cd 0.07527 0.36465 0.42727 0.0
O3 O 0.1356 0.36384 0.38473 0.0
O4 O 0.97041 0.28883 0.34093 0.0
O5 O 0.9539 0.34304 0.36387 0.0
C6 C 0.93872 0.31671 0.3407 0.0
C7 C 0.03972 0.41705 0.4558 0.0
C8 C 0.13671 0.34087 0.35668 0.0
C9 C 0.06692 0.28892 0.45777 0.0
O10 O 0.08356 0.32094 0.46366 0.0
O11 O 0.03682 0.28064 0.42677 0.0
O12 O 0.09135 0.40745 0.46268 0.0
O13 O 0.00878 0.39771 0.43134 0.0
O14 O 0.42201 0.31535 0.67043 0.0
Cd15 Cd 0.48262 0.2986 0.63407 0.0
Cd16 Cd 0.43615 0.35205 0.58671 0.0
O17 O 0.37792 0.35376 0.63052 0.0
O18 O 0.51798 0.26103 0.66885 0.0
O19 O 0.56535 0.30767 0.6494 0.0
C20 C 0.5641 0.27896 0.67021 0.0
C21 C 0.47617 0.40419 0.56114 0.0
C22 C 0.38011 0.33541 0.66219 0.0
C23 C 0.42002 0.277 0.5579 0.0
O24 O 0.41915 0.30984 0.54856 0.0
O25 O 0.44619 0.26692 0.58962 0.0
O26 O 0.42415 0.39587 0.55312 0.0
O27 O 0.50541 0.38326 0.58448 0.0
O28 O 0.94325 0.76439 0.67692 0.0
Cd29 Cd 0.98935 0.75632 0.62822 0.0
Cd30 Cd 0.93539 0.69147 0.63043 0.0
O31 O 0.90885 0.7101 0.68482 0.0
O32 O 0.05636 0.78769 0.63777 0.0
O33 O 0.0608 0.72848 0.63621 0.0
C34 C 0.08559 0.75889 0.64302 0.0
C35 C 0.94931 0.63095 0.61302 0.0
C36 C 0.91467 0.74253 0.69624 0.0
C37 C 0.90523 0.74521 0.56382 0.0
O38 O 0.89659 0.71699 0.58324 0.0
O39 O 0.94573 0.766 0.57446 0.0
O40 O 0.90092 0.64292 0.62218 0.0
O41 O 0.99166 0.65253 0.61742 0.0
O42 O 0.58418 0.75035 0.32963 0.0
Cd43 Cd 0.50527 0.75841 0.35182 0.0
Cd44 Cd 0.57443 0.68409 0.39723 0.0
O45 O 0.63082 0.70376 0.35724 0.0
O46 O 0.45339 0.78438 0.31393 0.0
O47 O 0.44164 0.72776 0.33124 0.0
C48 C 0.42493 0.75494 0.31023 0.0
C49 C 0.573 0.62598 0.42394 0.0
C50 C 0.62783 0.73048 0.33362 0.0
C51 C 0.5361 0.75457 0.42707 0.0
O52 O 0.5216 0.72306 0.41616 0.0
O53 O 0.5101 0.77938 0.40876 0.0
O54 O 0.60679 0.65033 0.43815 0.0
O55 O 0.54063 0.63398 0.39324 0.0
O56 O 0.56904 0.84557 0.82227 0.0
Cd57 Cd 0.5047 0.82546 0.8533 0.0
Cd58 Cd 0.56023 0.87473 0.91593 0.0
O59 O 0.61977 0.86845 0.87331 0.0
O60 O 0.47472 0.78884 0.81394 0.0
O61 O 0.42213 0.83242 0.83516 0.0
C62 C 0.42692 0.80475 0.81262 0.0
C63 C 0.56272 0.92804 0.95473 0.0
C64 C 0.61577 0.85687 0.83766 0.0
C65 C 0.55265 0.79777 0.93232 0.0
O66 O 0.54587 0.82866 0.94715 0.0
O67 O 0.5381 0.79178 0.89617 0.0
O68 O 0.60305 0.90519 0.95674 0.0
O69 O 0.52063 0.92123 0.93009 0.0
O70 O 0.95085 0.81341 0.1644 0.0
Cd71 Cd 0.99674 0.80579 0.11568 0.0
Cd72 Cd 0.92758 0.8676 0.09266 0.0
O73 O 0.89826 0.86064 0.14948 0.0
O74 O 0.04428 0.76498 0.13494 0.0
O75 O 0.08042 0.81732 0.12107 0.0
C76 C 0.08769 0.78542 0.13458 0.0
C77 C 0.93496 0.9245 0.06297 0.0
C78 C 0.91318 0.83561 0.17319 0.0
C79 C 0.91144 0.79644 0.04801 0.0
O80 O 0.89847 0.82901 0.05302 0.0
O81 O 0.9509 0.78191 0.06899 0.0
O82 O 0.8872 0.91096 0.07118 0.0
O83 O 0.9796 0.90667 0.07365 0.0
O84 O 0.46965 0.2595 0.20213 0.0
Cd85 Cd 0.51211 0.25936 0.15104 0.0
Cd86 Cd 0.46797 0.19195 0.15048 0.0
O87 O 0.44478 0.2029 0.20782 0.0
O88 O 0.56127 0.30213 0.15957 0.0
O89 O 0.59476 0.2472 0.15658 0.0
C90 C 0.60361 0.28079 0.16362 0.0
C91 C 0.50481 0.13848 0.12574 0.0
C92 C 0.44662 0.23486 0.22118 0.0
C93 C 0.41852 0.24807 0.09326 0.0
O94 O 0.41638 0.21798 0.11019 0.0
O95 O 0.45965 0.26918 0.10124 0.0
O96 O 0.45332 0.14053 0.13579 0.0
O97 O 0.53682 0.16605 0.13255 0.0
O98 O 0.04378 0.25331 0.82029 0.0
Cd99 Cd 0.99456 0.25117 0.8677 0.0
Cd100 Cd 0.05339 0.18966 0.87982 0.0
O101 O 0.08775 0.20143 0.8256 0.0
O102 O 0.92811 0.28075 0.85117 0.0
O103 O 0.92367 0.22246 0.86176 0.0
C104 C 0.89923 0.25149 0.84956 0.0
C105 C 0.01618 0.13515 0.90063 0.0
C106 C 0.07851 0.23085 0.80757 0.0
C107 C 0.07234 0.25204 0.93777 0.0
O108 O 0.08488 0.22092 0.92589 0.0
O109 O 0.03366 0.27004 0.91983 0.0
O110 O 0.06971 0.13928 0.8976 0.0
O111 O 0.98362 0.161 0.88878 0.0
H112 H 0.09695 0.47196 0.49545 0.0
H113 H 0.92868 0.43161 0.46538 0.0
H114 H 0.88863 0.47987 0.50537 0.0
H115 H 0.07446 0.49927 0.59561 0.0
H116 H 0.11595 0.5395 0.59364 0.0
H117 H 0.1321 0.50157 0.56311 0.0
H118 H 0.12257 0.54079 0.50025 0.0
H119 H 0.10709 0.57893 0.53062 0.0
H120 H 0.05877 0.56584 0.49012 0.0
H121 H 0.86688 0.53078 0.55062 0.0
H122 H 0.8632 0.58564 0.59097 0.0
H123 H 0.04505 0.59599 0.58937 0.0
C124 C 0.05165 0.47338 0.49718 0.0
C125 C 0.01592 0.44785 0.47735 0.0
C126 C 0.95689 0.45084 0.48013 0.0
C127 C 0.93376 0.47806 0.50301 0.0
C128 C 0.97011 0.50244 0.52261 0.0
C129 C 0.02773 0.5008 0.51941 0.0
C130 C 0.05707 0.53131 0.54225 0.0
C131 C 0.09727 0.51705 0.57563 0.0
C132 C 0.0882 0.55566 0.51413 0.0
C133 C 0.00694 0.55025 0.55895 0.0
C134 C 0.95733 0.53277 0.54761 0.0
C135 C 0.90543 0.54479 0.55949 0.0
C136 C 0.90388 0.57598 0.58267 0.0
C137 C 0.95381 0.5953 0.59352 0.0
C138 C 0.00614 0.58184 0.58181 0.0
H139 H 0.48573 0.57685 0.42166 0.0
H140 H 0.65432 0.5964 0.47299 0.0
H141 H 0.64896 0.54114 0.51192 0.0
H142 H 0.42933 0.5453 0.51032 0.0
H143 H 0.38455 0.51178 0.48637 0.0
H144 H 0.40292 0.55125 0.45974 0.0
H145 H 0.44237 0.51203 0.40413 0.0
H146 H 0.4237 0.47241 0.43046 0.0
H147 H 0.49521 0.47892 0.41672 0.0
H148 H 0.62438 0.48498 0.54746 0.0
H149 H 0.58188 0.43188 0.57711 0.0
H150 H 0.42792 0.44931 0.50488 0.0
C151 C 0.52187 0.56908 0.44049 0.0
C152 C 0.57069 0.59081 0.44394 0.0
C153 C 0.61659 0.58014 0.46968 0.0
C154 C 0.61397 0.54876 0.49196 0.0
C155 C 0.56497 0.52828 0.48852 0.0
C156 C 0.5197 0.53792 0.46344 0.0
C157 C 0.47099 0.51202 0.4669 0.0
C158 C 0.41888 0.53124 0.48172 0.0
C159 C 0.45728 0.4927 0.42719 0.0
C160 C 0.49589 0.48652 0.4979 0.0
C161 C 0.55028 0.49629 0.50978 0.0
C162 C 0.58185 0.47701 0.5383 0.0
C163 C 0.5573 0.44689 0.55504 0.0
C164 C 0.50152 0.43636 0.54348 0.0
C165 C 0.47059 0.45663 0.5145 0.0
H166 H 0.44111 0.08917 0.08271 0.0
H167 H 0.61389 0.11665 0.11832 0.0
H168 H 0.64727 0.06579 0.07861 0.0
H169 H 0.45723 0.99285 0.08114 0.0
H170 H 0.41089 0.9868 0.03757 0.0
H171 H 0.40078 1.02402 0.07056 0.0
H172 H 0.40715 0.06758 0.01171 0.0
H173 H 0.4177 0.03052 0.97859 0.0
H174 H 0.46825 0.06649 0.98231 0.0
H175 H 0.66157 1.01144 0.03537 0.0
H176 H 0.65633 0.95929 0.99007 0.0
H177 H 0.47445 0.96951 0.97865 0.0
C178 C 0.48596 0.08417 0.08265 0.0
C179 C 0.52495 0.10661 0.10413 0.0
C180 C 0.58329 0.09968 0.1024 0.0
C181 C 0.6026 0.07086 0.07988 0.0
C182 C 0.56308 0.04951 0.05872 0.0
C183 C 0.50597 0.05595 0.0597 0.0
C184 C 0.47241 0.02997 0.03289 0.0
C185 C 0.43301 1.00705 0.05699 0.0
C186 C 0.43944 0.04983 0.99939 0.0
C187 C 0.51951 1.00772 0.01682 0.0
C188 C 0.57144 1.01929 0.03237 0.0
C189 C 0.62115 1.00232 0.02288 0.0
C190 C 0.61772 0.97269 0.9971 0.0
C191 C 0.56505 0.96044 0.98053 0.0
C192 C 0.51538 0.97849 0.99039 0.0
H193 H 0.02849 0.95898 0.03546 0.0
H194 H 0.84628 0.96581 0.03686 0.0
H195 H 0.84735 1.01865 0.99393 0.0
H196 H 0.05422 0.05501 0.0375 0.0
H197 H 0.11172 0.05239 0.00489 0.0
H198 H 0.09684 1.01526 0.03634 0.0
H199 H 0.08857 0.9736 0.97469 0.0
H200 H 0.10279 1.01069 0.943 0.0
H201 H 0.03963 0.98452 0.93396 0.0
H202 H 0.86723 0.07004 0.94955 0.0
H203 H 0.90547 0.11898 0.91041 0.0
H204 H 0.07494 0.07986 0.93733 0.0
C205 C 0.98889 0.97179 0.02703 0.0
C206 C 0.93728 0.95809 0.0397 0.0
C207 C 0.88641 0.97566 0.02774 0.0
C208 C 0.88651 1.00571 1.00317 0.0
C209 C 0.93783 1.01816 0.9907 0.0
C210 C 0.98819 1.00202 1.00246 0.0
C211 C 0.03745 1.0211 0.9849 0.0
C212 C 0.07741 0.03688 0.01788 0.0
C213 C 0.06896 0.99597 0.95751 0.0
C214 C 0.00682 0.05033 0.96142 0.0
C215 C 0.94935 0.04801 0.9651 0.0
C216 C 0.91219 0.07214 0.94648 0.0
C217 C 0.93434 0.09983 0.92414 0.0
C218 C 0.99321 0.10331 0.92051 0.0
C219 C 0.02971 0.07784 0.93913 0.0
H220 H 0.69522 0.24132 0.19053 0.0
H221 H 0.6336 0.35008 0.17962 0.0
H222 H 0.71475 0.37144 0.22178 0.0
H223 H 0.73837 0.24627 0.28984 0.0
H224 H 0.80105 0.21962 0.28651 0.0
H225 H 0.74244 0.21295 0.25125 0.0
H226 H 0.80688 0.22407 0.19306 0.0
H227 H 0.86607 0.23011 0.22811 0.0
H228 H 0.84829 0.26444 0.19247 0.0
H229 H 0.79544 0.38008 0.27206 0.0
H230 H 0.87653 0.37611 0.32082 0.0
H231 H 0.88706 0.26211 0.29802 0.0
C232 C 0.69973 0.26975 0.19594 0.0
C233 C 0.65806 0.29401 0.18159 0.0
C234 C 0.66504 0.33096 0.19007 0.0
C235 C 0.71095 0.34338 0.21414 0.0
C236 C 0.74993 0.3186 0.22924 0.0
C237 C 0.74547 0.28265 0.21988 0.0
C238 C 0.79165 0.26142 0.24156 0.0
C239 C 0.76687 0.23342 0.2689 0.0
C240 C 0.83054 0.24399 0.21204 0.0
C241 C 0.82177 0.29092 0.26531 0.0
C242 C 0.79705 0.3237 0.25779 0.0
C243 C 0.81572 0.35463 0.27773 0.0
C244 C 0.86152 0.35208 0.3056 0.0
C245 C 0.88825 0.31887 0.31314 0.0
C246 C 0.86781 0.28796 0.29271 0.0
H247 H 0.6578 0.31815 0.69479 0.0
H248 H 0.57747 0.21492 0.70736 0.0
H249 H 0.65193 0.19772 0.75717 0.0
H250 H 0.80189 0.28662 0.70542 0.0
H251 H 0.82644 0.32543 0.73319 0.0
H252 H 0.76747 0.32907 0.69771 0.0
H253 H 0.7071 0.35523 0.75267 0.0
H254 H 0.76567 0.35113 0.78845 0.0
H255 H 0.69922 0.33028 0.79752 0.0
H256 H 0.73484 0.19163 0.80578 0.0
H257 H 0.82343 0.19618 0.84732 0.0
H258 H 0.84798 0.30397 0.80483 0.0
C259 C 0.6563 0.29178 0.70766 0.0
C260 C 0.61195 0.26783 0.69707 0.0
C261 C 0.6111 0.23371 0.71496 0.0
C262 C 0.65309 0.22371 0.7434 0.0
C263 C 0.69554 0.24819 0.75382 0.0
C264 C 0.6977 0.28144 0.73639 0.0
C265 C 0.74784 0.30275 0.7531 0.0
C266 C 0.7883 0.31146 0.72041 0.0
C267 C 0.72879 0.33686 0.77419 0.0
C268 C 0.77357 0.27622 0.78247 0.0
C269 C 0.74272 0.24493 0.78248 0.0
C270 C 0.75925 0.21607 0.8062 0.0
C271 C 0.80947 0.21894 0.82981 0.0
C272 C 0.84233 0.25052 0.82963 0.0
C273 C 0.82337 0.27969 0.80616 0.0
H274 H 0.13504 0.81484 0.68408 0.0
H275 H 0.16594 0.70635 0.64478 0.0
H276 H 0.25808 0.70707 0.68254 0.0
H277 H 0.28095 0.84724 0.68475 0.0
H278 H 0.27387 0.8736 0.72911 0.0
H279 H 0.21344 0.86568 0.69566 0.0
H280 H 0.15943 0.83983 0.75367 0.0
H281 H 0.21987 0.84721 0.78719 0.0
H282 H 0.18945 0.80318 0.7819 0.0
H283 H 0.34459 0.71875 0.72699 0.0
H284 H 0.41946 0.74023 0.77475 0.0
H285 H 0.32974 0.84014 0.78799 0.0
C286 C 0.16178 0.79154 0.68256 0.0
C287 C 0.14371 0.76068 0.66099 0.0
C288 C 0.17922 0.73037 0.66076 0.0
C289 C 0.23153 0.73054 0.68218 0.0
C290 C 0.2474 0.7611 0.70394 0.0
C291 C 0.21362 0.79107 0.70425 0.0
C292 C 0.23877 0.81962 0.73201 0.0
C293 C 0.25259 0.85354 0.709 0.0
C294 C 0.19954 0.82793 0.76568 0.0
C295 C 0.29187 0.80096 0.74754 0.0
C296 C 0.29624 0.76735 0.73069 0.0
C297 C 0.34164 0.74504 0.74029 0.0
C298 C 0.38392 0.75748 0.76752 0.0
C299 C 0.38036 0.79181 0.78525 0.0
C300 C 0.33344 0.81368 0.7752 0.0
H301 H 0.37219 0.80892 0.26789 0.0
H302 H 0.36563 0.69465 0.28835 0.0
H303 H 0.28411 0.68958 0.24022 0.0
H304 H 0.2241 0.8224 0.26157 0.0
H305 H 0.22566 0.85582 0.22347 0.0
H306 H 0.2857 0.85003 0.25757 0.0
H307 H 0.3492 0.84045 0.19835 0.0
H308 H 0.28914 0.84587 0.16405 0.0
H309 H 0.33144 0.80604 0.16215 0.0
H310 H 0.20147 0.69704 0.19235 0.0
H311 H 0.11874 0.71702 0.15137 0.0
H312 H 0.17798 0.8266 0.16166 0.0
C313 C 0.35385 0.78278 0.26206 0.0
C314 C 0.37543 0.75213 0.28182 0.0
C315 C 0.34985 0.7185 0.27363 0.0
C316 C 0.30373 0.71531 0.24615 0.0
C317 C 0.28365 0.746 0.2271 0.0
C318 C 0.30759 0.77914 0.23483 0.0
C319 C 0.27586 0.80817 0.21192 0.0
C320 C 0.25137 0.83571 0.24033 0.0
C321 C 0.31368 0.82619 0.18236 0.0
C322 C 0.22978 0.78621 0.19056 0.0
C323 C 0.23555 0.75037 0.19945 0.0
C324 C 0.19675 0.72498 0.18491 0.0
C325 C 0.14992 0.73661 0.1616 0.0
C326 C 0.14212 0.77333 0.15307 0.0
C327 C 0.18336 0.7983 0.16703 0.0
H328 H 0.33668 0.21923 0.23074 0.0
H329 H 0.47818 0.28007 0.28161 0.0
H330 H 0.41381 0.31489 0.32216 0.0
H331 H 0.24819 0.29098 0.21778 0.0
H332 H 0.18406 0.26844 0.22921 0.0
H333 H 0.24122 0.24347 0.20984 0.0
H334 H 0.24381 0.2013 0.27046 0.0
H335 H 0.18513 0.22527 0.28929 0.0
H336 H 0.24906 0.2201 0.31986 0.0
H337 H 0.33248 0.34771 0.35116 0.0
H338 H 0.24153 0.37084 0.37275 0.0
H339 H 0.15347 0.29069 0.29914 0.0
C340 C 0.3543 0.23855 0.25202 0.0
C341 C 0.41247 0.24629 0.25408 0.0
C342 C 0.43384 0.27317 0.28056 0.0
C343 C 0.39753 0.29333 0.30331 0.0
C344 C 0.3399 0.2865 0.29887 0.0
C345 C 0.31846 0.25936 0.27436 0.0
C346 C 0.25468 0.25941 0.27235 0.0
C347 C 0.23067 0.26597 0.22977 0.0
C348 C 0.23183 0.22445 0.289 0.0
C349 C 0.24365 0.29092 0.29922 0.0
C350 C 0.29322 0.30622 0.31429 0.0
C351 C 0.29335 0.33577 0.33975 0.0
C352 C 0.24143 0.34902 0.35149 0.0
C353 C 0.19014 0.33276 0.33763 0.0
C354 C 0.19169 0.30398 0.31024 0.0
H355 H 0.36881 0.29257 0.7266 0.0
H356 H 0.27397 0.36281 0.64605 0.0
H357 H 0.18525 0.33933 0.67076 0.0
H358 H 0.28023 0.21834 0.71367 0.0
H359 H 0.28698 0.204 0.76456 0.0
H360 H 0.34338 0.22847 0.74363 0.0
H361 H 0.34029 0.27657 0.79914 0.0
H362 H 0.28541 0.25154 0.82113 0.0
H363 H 0.27429 0.29781 0.8086 0.0
H364 H 0.10704 0.30551 0.70169 0.0
H365 H 0.0453 0.27081 0.74377 0.0
H366 H 0.19178 0.22108 0.8019 0.0
C367 C 0.32955 0.30387 0.7148 0.0
C368 C 0.32855 0.32959 0.68422 0.0
C369 C 0.276 0.34331 0.66962 0.0
C370 C 0.22534 0.32982 0.68317 0.0
C371 C 0.22804 0.30285 0.7115 0.0
C372 C 0.27882 0.2906 0.72776 0.0
C373 C 0.27045 0.26117 0.75746 0.0
C374 C 0.29683 0.22592 0.74401 0.0
C375 C 0.29398 0.27246 0.79904 0.0
C376 C 0.20683 0.25876 0.75557 0.0
C377 C 0.18319 0.28286 0.72864 0.0
C378 C 0.1251 0.28653 0.72276 0.0
C379 C 0.09039 0.26647 0.74651 0.0
C380 C 0.11381 0.24286 0.77556 0.0
C381 C 0.17271 0.2381 0.77913 0.0
H382 H 0.62781 0.80551 0.78111 0.0
H383 H 0.72228 0.88474 0.85181 0.0
H384 H 0.81114 0.86031 0.82773 0.0
H385 H 0.72342 0.73431 0.80081 0.0
H386 H 0.7137 0.71448 0.75207 0.0
H387 H 0.65742 0.73955 0.77262 0.0
H388 H 0.65222 0.78128 0.71158 0.0
H389 H 0.70719 0.75568 0.69025 0.0
H390 H 0.71532 0.80326 0.697 0.0
H391 H 0.88934 0.82734 0.79467 0.0
H392 H 0.94985 0.79093 0.75276 0.0
H393 H 0.80394 0.7304 0.70852 0.0
C394 C 0.66699 0.81847 0.79078 0.0
C395 C 0.66797 0.84756 0.81783 0.0
C396 C 0.72044 0.86284 0.83062 0.0
C397 C 0.7711 0.84892 0.81739 0.0
C398 C 0.76851 0.81943 0.79178 0.0
C399 C 0.71773 0.80453 0.77851 0.0
C400 C 0.72616 0.77244 0.75191 0.0
C401 C 0.70385 0.73817 0.77048 0.0
C402 C 0.69861 0.77855 0.71022 0.0
C403 C 0.78976 0.77198 0.75141 0.0
C404 C 0.81346 0.79921 0.77475 0.0
C405 C 0.87128 0.80566 0.77679 0.0
C406 C 0.90535 0.78471 0.75314 0.0
C407 C 0.88165 0.75734 0.72826 0.0
C408 C 0.82337 0.75026 0.72837 0.0
H409 H 0.80001 0.84475 0.18189 0.0
H410 H 0.95269 0.80418 0.24139 0.0
H411 H 0.89611 0.77358 0.29006 0.0
H412 H 0.71754 0.85536 0.27371 0.0
H413 H 0.65327 0.84125 0.24738 0.0
H414 H 0.70636 0.86468 0.22156 0.0
H415 H 0.70767 0.81267 0.17056 0.0
H416 H 0.65599 0.78855 0.19685 0.0
H417 H 0.72261 0.768 0.18767 0.0
H418 H 0.823 0.73999 0.32588 0.0
H419 H 0.73808 0.71325 0.35288 0.0
H420 H 0.63287 0.7756 0.27027 0.0
C421 C 0.82156 0.83086 0.20628 0.0
C422 C 0.88078 0.82721 0.20817 0.0
C423 C 0.90738 0.80762 0.23967 0.0
C424 C 0.87558 0.78994 0.26731 0.0
C425 C 0.81714 0.79222 0.26323 0.0
C426 C 0.79032 0.81285 0.2341 0.0
C427 C 0.72689 0.80887 0.23469 0.0
C428 C 0.6994 0.84467 0.24496 0.0
C429 C 0.70186 0.79361 0.19509 0.0
C430 C 0.72247 0.78218 0.26794 0.0
C431 C 0.77496 0.77287 0.284 0.0
C432 C 0.78158 0.74749 0.31394 0.0
C433 C 0.73312 0.7321 0.32878 0.0
C434 C 0.67876 0.74227 0.31376 0.0
C435 C 0.67376 0.76731 0.28255 0.0
H436 H 0.32483 0.28074 0.5938 0.0
H437 H 0.39965 0.23195 0.49287 0.0
H438 H 0.30514 0.21028 0.46821 0.0
H439 H 0.19514 0.22049 0.60145 0.0
H440 H 0.1529 0.25918 0.61132 0.0
H441 H 0.22598 0.258 0.62854 0.0
H442 H 0.2446 0.31732 0.59126 0.0
H443 H 0.1715 0.31857 0.57604 0.0
H444 H 0.22388 0.32025 0.53933 0.0
H445 H 0.20323 0.20538 0.44796 0.0
H446 H 0.11126 0.2296 0.42537 0.0
H447 H 0.10256 0.28846 0.53559 0.0
C448 C 0.32133 0.26386 0.56753 0.0
C449 C 0.36901 0.25684 0.54573 0.0
C450 C 0.36349 0.23653 0.51042 0.0
C451 C 0.31001 0.22406 0.49648 0.0
C452 C 0.26294 0.23274 0.51798 0.0
C453 C 0.26837 0.2527 0.55264 0.0
C454 C 0.21223 0.26699 0.56475 0.0
C455 C 0.19558 0.25013 0.60382 0.0
C456 C 0.21312 0.30817 0.56796 0.0
C457 C 0.1744 0.25409 0.53009 0.0
C458 C 0.20374 0.23263 0.50463 0.0
C459 C 0.17969 0.2215 0.46801 0.0
C460 C 0.12685 0.23518 0.45554 0.0
C461 C 0.09997 0.26096 0.47889 0.0
C462 C 0.12186 0.2682 0.51774 0.0
H463 H 0.83098 0.69998 0.52702 0.0
H464 H 0.8801 0.81158 0.53116 0.0
H465 H 0.79302 0.82677 0.49074 0.0
H466 H 0.75798 0.70122 0.42739 0.0
H467 H 0.70625 0.66992 0.44263 0.0
H468 H 0.7767 0.6683 0.46445 0.0
H469 H 0.73834 0.67418 0.53467 0.0
H470 H 0.66749 0.67626 0.5137 0.0
H471 H 0.69433 0.71171 0.54591 0.0
H472 H 0.69291 0.82919 0.45558 0.0
H473 H 0.59427 0.81891 0.43045 0.0
H474 H 0.6087 0.70815 0.46365 0.0
C475 C 0.82441 0.72761 0.51871 0.0
C476 C 0.8624 0.75458 0.53217 0.0
C477 C 0.85196 0.79037 0.52064 0.0
C478 C 0.80239 0.79922 0.49794 0.0
C479 C 0.76411 0.77194 0.48723 0.0
C480 C 0.7751 0.73685 0.49732 0.0
C481 C 0.72616 0.71255 0.48606 0.0
C482 C 0.74266 0.68648 0.4532 0.0
C483 C 0.70538 0.69255 0.52225 0.0
C484 C 0.68381 0.73966 0.47051 0.0
C485 C 0.70683 0.77356 0.46966 0.0
C486 C 0.67491 0.80263 0.45592 0.0
C487 C 0.61867 0.79658 0.44209 0.0
C488 C 0.59438 0.76192 0.44341 0.0
C489 C 0.62722 0.73384 0.4593 0.0
H490 H 0.87267 0.80537 0.97168 0.0
H491 H 0.85299 0.74128 0.07604 0.0
H492 H 0.75834 0.72278 0.05017 0.0
H493 H 0.75181 0.8412 0.96607 0.0
H494 H 0.73544 0.84064 0.91339 0.0
H495 H 0.80746 0.83967 0.93177 0.0
H496 H 0.82551 0.78149 0.8934 0.0
H497 H 0.75376 0.78209 0.87319 0.0
H498 H 0.78053 0.74324 0.89908 0.0
H499 H 0.65769 0.7303 0.02582 0.0
H500 H 0.566 0.75238 0.99665 0.0
H501 H 0.65331 0.80366 0.90332 0.0
C502 C 0.8499 0.78539 0.98749 0.0
C503 C 0.87008 0.7742 0.02533 0.0
C504 C 0.83863 0.7493 0.04642 0.0
C505 C 0.7846 0.73887 0.03206 0.0
C506 C 0.76379 0.75252 0.99587 0.0
C507 C 0.79664 0.77388 0.97285 0.0
C508 C 0.76241 0.78876 0.9377 0.0
C509 C 0.76442 0.82997 0.93728 0.0
C510 C 0.78172 0.77293 0.89853 0.0
C511 C 0.70455 0.77515 0.94655 0.0
C512 C 0.70579 0.75419 0.98011 0.0
C513 C 0.6562 0.74497 0.99829 0.0
C514 C 0.60438 0.75765 0.9818 0.0
C515 C 0.60305 0.77856 0.94719 0.0
C516 C 0.65346 0.78642 0.92894 0.0
H517 H 0.31746 0.2148 0.0888 0.0
H518 H 0.40356 0.30768 0.04504 0.0
H519 H 0.31447 0.32619 0.00891 0.0
H520 H 0.2386 0.19343 1.00364 0.0
H521 H 0.1781 0.17918 0.02945 0.0
H522 H 0.24707 0.1766 0.05351 0.0
H523 H 0.21232 0.21494 0.11183 0.0
H524 H 0.14342 0.2184 0.08716 0.0
H525 H 0.18195 0.25826 0.10194 0.0
H526 H 0.21667 0.33032 0.97265 0.0
H527 H 0.12688 0.31608 0.93511 0.0
H528 H 0.10774 0.22181 0.00645 0.0
C529 C 0.31815 0.23915 0.07172 0.0
C530 C 0.3678 0.2596 0.0694 0.0
C531 C 0.36609 0.29145 0.04699 0.0
C532 C 0.31557 0.30231 0.0268 0.0
C533 C 0.26721 0.28142 0.0302 0.0
C534 C 0.26854 0.25049 0.05223 0.0
C535 C 0.21288 0.23103 0.04957 0.0
C536 C 0.21959 0.19285 0.03303 0.0
C537 C 0.18608 0.23065 0.09003 0.0
C538 C 0.18029 0.25469 0.02069 0.0
C539 C 0.21149 0.2842 0.01047 0.0
C540 C 0.19154 0.30777 0.98112 0.0
C541 C 0.14019 0.29976 0.96025 0.0
C542 C 0.11031 0.26821 0.9686 0.0
C543 C 0.12925 0.24657 1.00041 0.0
loop_
_geom_bond_atom_site_label_1
_geom_bond_atom_site_label_2
_geom_bond_distance
_geom_bond_site_symmetry_2
_ccdc_geom_bond_type
O0 Cd1 2.223 . S
O0 C8 1.315 . S
Cd1 O0 2.223 . S
Cd1 O4 2.297 1_455 S
Cd1 O5 2.439 1_455 S
Cd1 O11 2.240 . S
Cd2 O3 2.240 . S
Cd2 O10 2.223 . S
Cd2 O12 2.297 . S
Cd2 O13 2.439 1_455 S
O3 Cd2 2.240 . S
O3 C8 1.279 . S
O4 Cd1 2.297 1_655 S
O4 C6 1.247 . S
O5 Cd1 2.439 1_655 S
O5 C6 1.208 . S
C6 O4 1.247 . S
C6 O5 1.208 . S
C7 O12 1.247 . S
C7 O13 1.208 1_455 S
C8 O0 1.315 . S
C8 O3 1.279 . S
C9 O10 1.315 . S
C9 O11 1.279 . S
O10 Cd2 2.223 . S
O10 C9 1.315 . S
O11 Cd1 2.240 . S
O11 C9 1.279 . S
O12 Cd2 2.297 . S
O12 C7 1.247 . S
O13 Cd2 2.439 1_655 S
O13 C7 1.208 1_655 S
O14 Cd15 2.223 . S
O14 C22 1.315 . S
Cd15 O14 2.223 . S
Cd15 O18 2.297 . S
Cd15 O19 2.439 . S
Cd15 O25 2.240 . S
Cd16 O17 2.240 . S
Cd16 O24 2.223 . S
Cd16 O26 2.297 . S
Cd16 O27 2.439 . S
O17 Cd16 2.240 . S
O17 C22 1.279 . S
O18 Cd15 2.297 . S
O18 C20 1.247 . S
O19 Cd15 2.439 . S
O19 C20 1.208 . S
C20 O18 1.247 . S
C20 O19 1.208 . S
C21 O26 1.247 . S
C21 O27 1.208 . S
C22 O14 1.315 . S
C22 O17 1.279 . S
C23 O24 1.315 . S
C23 O25 1.279 . S
O24 Cd16 2.223 . S
O24 C23 1.315 . S
O25 Cd15 2.240 . S
O25 C23 1.279 . S
O26 Cd16 2.297 . S
O26 C21 1.247 . S
O27 Cd16 2.439 . S
O27 C21 1.208 . S
O28 Cd29 2.223 . S
O28 C36 1.315 . S
Cd29 O28 2.223 . S
Cd29 O32 2.297 1_655 S
Cd29 O33 2.439 1_655 S
Cd29 O39 2.240 . S
Cd30 O31 2.240 . S
Cd30 O38 2.223 . S
Cd30 O40 2.297 . S
Cd30 O41 2.439 1_655 S
O31 Cd30 2.240 . S
O31 C36 1.279 . S
O32 Cd29 2.297 1_455 S
O32 C34 1.247 . S
O33 Cd29 2.439 1_455 S
O33 C34 1.208 . S
C34 O32 1.247 . S
C34 O33 1.208 . S
C35 O40 1.247 . S
C35 O41 1.208 1_655 S
C36 O28 1.315 . S
C36 O31 1.279 . S
C37 O38 1.315 . S
C37 O39 1.279 . S
O38 Cd30 2.223 . S
O38 C37 1.315 . S
O39 Cd29 2.240 . S
O39 C37 1.279 . S
O40 Cd30 2.297 . S
O40 C35 1.247 . S
O41 Cd30 2.439 1_455 S
O41 C35 1.208 1_455 S
O42 Cd43 2.223 . S
O42 C50 1.315 . S
Cd43 O42 2.223 . S
Cd43 O46 2.297 . S
Cd43 O47 2.439 . S
Cd43 O53 2.240 . S
Cd44 O45 2.240 . S
Cd44 O52 2.223 . S
Cd44 O54 2.297 . S
Cd44 O55 2.439 . S
O45 Cd44 2.240 . S
O45 C50 1.279 . S
O46 Cd43 2.297 . S
O46 C48 1.247 . S
O47 Cd43 2.439 . S
O47 C48 1.208 . S
C48 O46 1.247 . S
C48 O47 1.208 . S
C49 O54 1.247 . S
C49 O55 1.208 . S
C50 O42 1.315 . S
C50 O45 1.279 . S
C51 O52 1.315 . S
C51 O53 1.279 . S
O52 Cd44 2.223 . S
O52 C51 1.315 . S
O53 Cd43 2.240 . S
O53 C51 1.279 . S
O54 Cd44 2.297 . S
O54 C49 1.247 . S
O55 Cd44 2.439 . S
O55 C49 1.208 . S
O56 Cd57 2.223 . S
O56 C64 1.315 . S
Cd57 O56 2.223 . S
Cd57 O60 2.297 . S
Cd57 O61 2.439 . S
Cd57 O67 2.240 . S
Cd58 O59 2.240 . S
Cd58 O66 2.223 . S
Cd58 O68 2.297 . S
Cd58 O69 2.439 . S
O59 Cd58 2.240 . S
O59 C64 1.279 . S
O60 Cd57 2.297 . S
O60 C62 1.247 . S
O61 Cd57 2.439 . S
O61 C62 1.208 . S
C62 O60 1.247 . S
C62 O61 1.208 . S
C63 O68 1.247 . S
C63 O69 1.208 . S
C64 O56 1.315 . S
C64 O59 1.279 . S
C65 O66 1.315 . S
C65 O67 1.279 . S
O66 Cd58 2.223 . S
O66 C65 1.315 . S
O67 Cd57 2.240 . S
O67 C65 1.279 . S
O68 Cd58 2.297 . S
O68 C63 1.247 . S
O69 Cd58 2.439 . S
O69 C63 1.208 . S
O70 Cd71 2.223 . S
O70 C78 1.315 . S
Cd71 O70 2.223 . S
Cd71 O74 2.297 1_655 S
Cd71 O75 2.439 1_655 S
Cd71 O81 2.240 . S
Cd72 O73 2.240 . S
Cd72 O80 2.223 . S
Cd72 O82 2.297 . S
Cd72 O83 2.439 1_655 S
O73 Cd72 2.240 . S
O73 C78 1.279 . S
O74 Cd71 2.297 1_455 S
O74 C76 1.247 . S
O75 Cd71 2.439 1_455 S
O75 C76 1.208 . S
C76 O74 1.247 . S
C76 O75 1.208 . S
C77 O82 1.247 . S
C77 O83 1.208 1_655 S
C78 O70 1.315 . S
C78 O73 1.279 . S
C79 O80 1.315 . S
C79 O81 1.279 . S
O80 Cd72 2.223 . S
O80 C79 1.315 . S
O81 Cd71 2.240 . S
O81 C79 1.279 . S
O82 Cd72 2.297 . S
O82 C77 1.247 . S
O83 Cd72 2.439 1_455 S
O83 C77 1.208 1_455 S
O84 Cd85 2.223 . S
O84 C92 1.315 . S
Cd85 O84 2.223 . S
Cd85 O88 2.297 . S
Cd85 O89 2.439 . S
Cd85 O95 2.240 . S
Cd86 O87 2.240 . S
Cd86 O94 2.223 . S
Cd86 O96 2.297 . S
Cd86 O97 2.439 . S
O87 Cd86 2.240 . S
O87 C92 1.279 . S
O88 Cd85 2.297 . S
O88 C90 1.247 . S
O89 Cd85 2.439 . S
O89 C90 1.208 . S
C90 O88 1.247 . S
C90 O89 1.208 . S
C91 O96 1.247 . S
C91 O97 1.208 . S
C92 O84 1.315 . S
C92 O87 1.279 . S
C93 O94 1.315 . S
C93 O95 1.279 . S
O94 Cd86 2.223 . S
O94 C93 1.315 . S
O95 Cd85 2.240 . S
O95 C93 1.279 . S
O96 Cd86 2.297 . S
O96 C91 1.247 . S
O97 Cd86 2.439 . S
O97 C91 1.208 . S
O98 Cd99 2.223 . S
O98 C106 1.315 . S
Cd99 O98 2.223 . S
Cd99 O102 2.297 1_455 S
Cd99 O103 2.439 1_455 S
Cd99 O109 2.240 . S
Cd100 O101 2.240 . S
Cd100 O108 2.223 . S
Cd100 O110 2.297 . S
Cd100 O111 2.439 1_455 S
O101 Cd100 2.240 . S
O101 C106 1.279 . S
O102 Cd99 2.297 1_655 S
O102 C104 1.247 . S
O103 Cd99 2.439 1_655 S
O103 C104 1.208 . S
C104 O102 1.247 . S
C104 O103 1.208 . S
C105 O110 1.247 . S
C105 O111 1.208 1_455 S
C106 O98 1.315 . S
C106 O101 1.279 . S
C107 O108 1.315 . S
C107 O109 1.279 . S
O108 Cd100 2.223 . S
O108 C107 1.315 . S
O109 Cd99 2.240 . S
O109 C107 1.279 . S
O110 Cd100 2.297 . S
O110 C105 1.247 . S
O111 Cd100 2.439 1_655 S
O111 C105 1.208 1_655 S
H112 C124 0.930 . S
H113 C126 0.930 . S
H114 C127 0.930 . S
H115 C131 0.959 1_655 S
H116 C131 0.959 . S
H117 C131 0.961 . S
H118 C132 0.960 . S
H119 C132 0.961 . S
H120 C132 0.959 . S
H121 C135 0.929 . S
H122 C136 0.931 . S
H123 C138 0.930 . S
C124 H112 0.930 . S
C124 C125 1.399 . S
C124 C129 1.399 . S
C125 C124 1.399 . S
C125 C126 1.376 1_455 S
C126 H113 0.930 . S
C126 C125 1.376 1_655 S
C126 C127 1.388 . S
C127 H114 0.930 . S
C127 C126 1.388 . S
C127 C128 1.390 . S
C128 C127 1.390 . S
C128 C129 1.394 1_655 S
C128 C134 1.465 . S
C129 C124 1.399 . S
C129 C128 1.394 1_455 S
C129 C130 1.516 . S
C130 C129 1.516 . S
C130 C131 1.502 . S
C130 C132 1.561 . S
C130 C133 1.526 . S
C131 H115 0.959 1_455 S
C131 H116 0.959 . S
C131 H117 0.961 . S
C131 C130 1.502 . S
C132 H118 0.960 . S
C132 H119 0.961 . S
C132 H120 0.959 . S
C132 C130 1.561 . S
C133 C130 1.526 . S
C133 C134 1.396 1_455 S
C133 C138 1.390 . S
C134 C128 1.465 . S
C134 C133 1.396 1_655 S
C134 C135 1.399 . S
C135 H121 0.929 . S
C135 C134 1.399 . S
C135 C136 1.385 . S
C136 H122 0.931 . S
C136 C135 1.385 . S
C136 C137 1.389 . S
C137 C136 1.389 . S
C137 C138 1.387 1_655 S
C138 H123 0.930 . S
C138 C133 1.390 . S
C138 C137 1.387 1_455 S
H139 C151 0.930 . S
H140 C153 0.930 . S
H141 C154 0.930 . S
H142 C158 0.959 . S
H143 C158 0.959 . S
H144 C158 0.961 . S
H145 C159 0.960 . S
H146 C159 0.961 . S
H147 C159 0.959 . S
H148 C162 0.929 . S
H149 C163 0.931 . S
H150 C165 0.930 . S
C151 H139 0.930 . S
C151 C152 1.399 . S
C151 C156 1.399 . S
C152 C151 1.399 . S
C152 C153 1.376 . S
C153 H140 0.930 . S
C153 C152 1.376 . S
C153 C154 1.388 . S
C154 H141 0.930 . S
C154 C153 1.388 . S
C154 C155 1.390 . S
C155 C154 1.390 . S
C155 C156 1.394 . S
C155 C161 1.465 . S
C156 C151 1.399 . S
C156 C155 1.394 . S
C156 C157 1.516 . S
C157 C156 1.516 . S
C157 C158 1.502 . S
C157 C159 1.561 . S
C157 C160 1.526 . S
C158 H142 0.959 . S
C158 H143 0.959 . S
C158 H144 0.961 . S
C158 C157 1.502 . S
C159 H145 0.960 . S
C159 H146 0.961 . S
C159 H147 0.959 . S
C159 C157 1.561 . S
C160 C157 1.526 . S
C160 C161 1.396 . S
C160 C165 1.390 . S
C161 C155 1.465 . S
C161 C160 1.396 . S
C161 C162 1.399 . S
C162 H148 0.929 . S
C162 C161 1.399 . S
C162 C163 1.385 . S
C163 H149 0.931 . S
C163 C162 1.385 . S
C163 C164 1.389 . S
C164 C163 1.389 . S
C164 C165 1.387 . S
C165 H150 0.930 . S
C165 C160 1.390 . S
C165 C164 1.387 . S
H166 C178 0.930 . S
H167 C180 0.930 . S
H168 C181 0.930 . S
H169 C185 0.941 1_564 S
H170 C185 0.959 1_565 S
H171 C185 0.961 . S
H172 C186 0.960 . S
H173 C186 0.961 . S
H174 C186 0.959 . S
H175 C189 0.929 1_554 S
H176 C190 0.931 . S
H177 C192 0.930 . S
C178 H166 0.930 . S
C178 C179 1.399 . S
C178 C183 1.399 . S
C179 C178 1.399 . S
C179 C180 1.376 . S
C180 H167 0.930 . S
C180 C179 1.376 . S
C180 C181 1.388 . S
C181 H168 0.930 . S
C181 C180 1.388 . S
C181 C182 1.390 . S
C182 C181 1.390 . S
C182 C183 1.394 . S
C182 C188 1.465 1_544 S
C183 C178 1.399 . S
C183 C182 1.394 . S
C183 C184 1.516 1_554 S
C184 C183 1.516 1_556 S
C184 C185 1.502 . S
C184 C186 1.561 . S
C184 C187 1.526 1_545 S
C185 H169 0.941 1_546 S
C185 H170 0.959 1_545 S
C185 H171 0.961 . S
C185 C184 1.502 . S
C186 H172 0.960 . S
C186 H173 0.961 . S
C186 H174 0.959 . S
C186 C184 1.561 . S
C187 C184 1.526 1_565 S
C187 C188 1.396 . S
C187 C192 1.390 . S
C188 C182 1.465 1_566 S
C188 C187 1.396 . S
C188 C189 1.399 . S
C189 H175 0.929 1_556 S
C189 C188 1.399 . S
C189 C190 1.385 . S
C190 H176 0.931 . S
C190 C189 1.385 . S
C190 C191 1.389 . S
C191 C190 1.389 . S
C191 C192 1.387 . S
C192 H177 0.930 . S
C192 C187 1.390 . S
C192 C191 1.387 . S
H193 C205 0.930 . S
H194 C207 0.930 . S
H195 C208 0.930 . S
H196 C212 0.959 . S
H197 C212 0.959 . S
H198 C212 0.961 . S
H199 C213 0.960 1_455 S
H200 C213 0.961 1_455 S
H201 C213 0.959 . S
H202 C216 0.929 . S
H203 C217 0.931 . S
H204 C219 0.930 . S
C205 H193 0.930 . S
C205 C206 1.399 1_455 S
C205 C210 1.399 . S
C206 C205 1.399 1_655 S
C206 C207 1.376 . S
C207 H194 0.930 . S
C207 C206 1.376 . S
C207 C208 1.388 . S
C208 H195 0.930 . S
C208 C207 1.388 . S
C208 C209 1.390 . S
C209 C208 1.390 . S
C209 C210 1.394 1_655 S
C209 C215 1.478 1_565 S
C210 C205 1.399 . S
C210 C209 1.394 1_455 S
C210 C211 1.516 1_554 S
C211 C210 1.516 1_556 S
C211 C212 1.502 . S
C211 C213 1.561 1_455 S
C211 C214 1.526 1_565 S
C212 H196 0.959 . S
C212 H197 0.959 . S
C212 H198 0.961 . S
C212 C211 1.502 . S
C213 H199 0.960 1_655 S
C213 H200 0.961 1_655 S
C213 H201 0.959 . S
C213 C211 1.561 1_655 S
C214 C211 1.526 1_545 S
C214 C215 1.376 1_456 S
C214 C219 1.390 . S
C215 C209 1.478 1_545 S
C215 C214 1.376 1_654 S
C215 C216 1.404 . S
C216 H202 0.929 . S
C216 C215 1.404 . S
C216 C217 1.385 1_554 S
C217 H203 0.931 . S
C217 C216 1.385 1_556 S
C217 C218 1.389 . S
C218 C217 1.389 . S
C218 C219 1.387 1_655 S
C219 H204 0.930 . S
C219 C214 1.390 . S
C219 C218 1.387 1_455 S
H220 C232 0.930 . S
H221 C234 0.930 . S
H222 C235 0.930 . S
H223 C239 0.959 . S
H224 C239 0.959 . S
H225 C239 0.961 . S
H226 C240 0.960 . S
H227 C240 0.961 . S
H228 C240 0.959 . S
H229 C243 0.929 . S
H230 C244 0.931 . S
H231 C246 0.930 . S
C232 H220 0.930 . S
C232 C233 1.399 . S
C232 C237 1.399 . S
C233 C232 1.399 . S
C233 C234 1.376 . S
C234 H221 0.930 . S
C234 C233 1.376 . S
C234 C235 1.388 . S
C235 H222 0.930 . S
C235 C234 1.388 . S
C235 C236 1.390 . S
C236 C235 1.390 . S
C236 C237 1.394 . S
C236 C242 1.465 . S
C237 C232 1.399 . S
C237 C236 1.394 . S
C237 C238 1.516 . S
C238 C237 1.516 . S
C238 C239 1.502 . S
C238 C240 1.561 . S
C238 C241 1.526 . S
C239 H223 0.959 . S
C239 H224 0.959 . S
C239 H225 0.961 . S
C239 C238 1.502 . S
C240 H226 0.960 . S
C240 H227 0.961 . S
C240 H228 0.959 . S
C240 C238 1.561 . S
C241 C238 1.526 . S
C241 C242 1.396 . S
C241 C246 1.390 . S
C242 C236 1.465 . S
C242 C241 1.396 . S
C242 C243 1.399 . S
C243 H229 0.929 . S
C243 C242 1.399 . S
C243 C244 1.385 . S
C244 H230 0.931 . S
C244 C243 1.385 . S
C244 C245 1.389 . S
C245 C244 1.389 . S
C245 C246 1.387 . S
C246 H231 0.930 . S
C246 C241 1.390 . S
C246 C245 1.387 . S
H247 C259 0.930 . S
H248 C261 0.930 . S
H249 C262 0.930 . S
H250 C266 0.959 . S
H251 C266 0.959 . S
H252 C266 0.961 . S
H253 C267 0.960 . S
H254 C267 0.961 . S
H255 C267 0.959 . S
H256 C270 0.929 . S
H257 C271 0.931 . S
H258 C273 0.930 . S
C259 H247 0.930 . S
C259 C260 1.399 . S
C259 C264 1.399 . S
C260 C259 1.399 . S
C260 C261 1.376 . S
C261 H248 0.930 . S
C261 C260 1.376 . S
C261 C262 1.388 . S
C262 H249 0.930 . S
C262 C261 1.388 . S
C262 C263 1.390 . S
C263 C262 1.390 . S
C263 C264 1.394 . S
C263 C269 1.465 . S
C264 C259 1.399 . S
C264 C263 1.394 . S
C264 C265 1.516 . S
C265 C264 1.516 . S
C265 C266 1.502 . S
C265 C267 1.561 . S
C265 C268 1.526 . S
C266 H250 0.959 . S
C266 H251 0.959 . S
C266 H252 0.961 . S
C266 C265 1.502 . S
C267 H253 0.960 . S
C267 H254 0.961 . S
C267 H255 0.959 . S
C267 C265 1.561 . S
C268 C265 1.526 . S
C268 C269 1.396 . S
C268 C273 1.390 . S
C269 C263 1.465 . S
C269 C268 1.396 . S
C269 C270 1.399 . S
C270 H256 0.929 . S
C270 C269 1.399 . S
C270 C271 1.385 . S
C271 H257 0.931 . S
C271 C270 1.385 . S
C271 C272 1.389 . S
C272 C271 1.389 . S
C272 C273 1.387 . S
C273 H258 0.930 . S
C273 C268 1.390 . S
C273 C272 1.387 . S
H274 C286 0.930 . S
H275 C288 0.930 . S
H276 C289 0.930 . S
H277 C293 0.959 . S
H278 C293 0.959 . S
H279 C293 0.961 . S
H280 C294 0.960 . S
H281 C294 0.961 . S
H282 C294 0.959 . S
H283 C297 0.929 . S
H284 C298 0.931 . S
H285 C300 0.930 . S
C286 H274 0.930 . S
C286 C287 1.399 . S
C286 C291 1.399 . S
C287 C286 1.399 . S
C287 C288 1.376 . S
C288 H275 0.930 . S
C288 C287 1.376 . S
C288 C289 1.388 . S
C289 H276 0.930 . S
C289 C288 1.388 . S
C289 C290 1.390 . S
C290 C289 1.390 . S
C290 C291 1.394 . S
C290 C296 1.465 . S
C291 C286 1.399 . S
C291 C290 1.394 . S
C291 C292 1.516 . S
C292 C291 1.516 . S
C292 C293 1.502 . S
C292 C294 1.561 . S
C292 C295 1.526 . S
C293 H277 0.959 . S
C293 H278 0.959 . S
C293 H279 0.961 . S
C293 C292 1.502 . S
C294 H280 0.960 . S
C294 H281 0.961 . S
C294 H282 0.959 . S
C294 C292 1.561 . S
C295 C292 1.526 . S
C295 C296 1.396 . S
C295 C300 1.390 . S
C296 C290 1.465 . S
C296 C295 1.396 . S
C296 C297 1.399 . S
C297 H283 0.929 . S
C297 C296 1.399 . S
C297 C298 1.385 . S
C298 H284 0.931 . S
C298 C297 1.385 . S
C298 C299 1.389 . S
C299 C298 1.389 . S
C299 C300 1.387 . S
C300 H285 0.930 . S
C300 C295 1.390 . S
C300 C299 1.387 . S
H301 C313 0.930 . S
H302 C315 0.930 . S
H303 C316 0.930 . S
H304 C320 0.959 . S
H305 C320 0.959 . S
H306 C320 0.961 . S
H307 C321 0.960 . S
H308 C321 0.961 . S
H309 C321 0.959 . S
H310 C324 0.929 . S
H311 C325 0.931 . S
H312 C327 0.930 . S
C313 H301 0.930 . S
C313 C314 1.399 . S
C313 C318 1.399 . S
C314 C313 1.399 . S
C314 C315 1.376 . S
C315 H302 0.930 . S
C315 C314 1.376 . S
C315 C316 1.388 . S
C316 H303 0.930 . S
C316 C315 1.388 . S
C316 C317 1.390 . S
C317 C316 1.390 . S
C317 C318 1.394 . S
C317 C323 1.465 . S
C318 C313 1.399 . S
C318 C317 1.394 . S
C318 C319 1.516 . S
C319 C318 1.516 . S
C319 C320 1.502 . S
C319 C321 1.561 . S
C319 C322 1.526 . S
C320 H304 0.959 . S
C320 H305 0.959 . S
C320 H306 0.961 . S
C320 C319 1.502 . S
C321 H307 0.960 . S
C321 H308 0.961 . S
C321 H309 0.959 . S
C321 C319 1.561 . S
C322 C319 1.526 . S
C322 C323 1.396 . S
C322 C327 1.390 . S
C323 C317 1.465 . S
C323 C322 1.396 . S
C323 C324 1.399 . S
C324 H310 0.929 . S
C324 C323 1.399 . S
C324 C325 1.385 . S
C325 H311 0.931 . S
C325 C324 1.385 . S
C325 C326 1.389 . S
C326 C325 1.389 . S
C326 C327 1.387 . S
C327 H312 0.930 . S
C327 C322 1.390 . S
C327 C326 1.387 . S
H328 C340 0.930 . S
H329 C342 0.930 . S
H330 C343 0.930 . S
H331 C347 0.959 . S
H332 C347 0.959 . S
H333 C347 0.961 . S
H334 C348 0.960 . S
H335 C348 0.961 . S
H336 C348 0.959 . S
H337 C351 0.929 . S
H338 C352 0.931 . S
H339 C354 0.930 . S
C340 H328 0.930 . S
C340 C341 1.399 . S
C340 C345 1.399 . S
C341 C340 1.399 . S
C341 C342 1.376 . S
C342 H329 0.930 . S
C342 C341 1.376 . S
C342 C343 1.388 . S
C343 H330 0.930 . S
C343 C342 1.388 . S
C343 C344 1.390 . S
C344 C343 1.390 . S
C344 C345 1.394 . S
C344 C350 1.465 . S
C345 C340 1.399 . S
C345 C344 1.394 . S
C345 C346 1.516 . S
C346 C345 1.516 . S
C346 C347 1.502 . S
C346 C348 1.561 . S
C346 C349 1.526 . S
C347 H331 0.959 . S
C347 H332 0.959 . S
C347 H333 0.961 . S
C347 C346 1.502 . S
C348 H334 0.960 . S
C348 H335 0.961 . S
C348 H336 0.959 . S
C348 C346 1.561 . S
C349 C346 1.526 . S
C349 C350 1.396 . S
C349 C354 1.390 . S
C350 C344 1.465 . S
C350 C349 1.396 . S
C350 C351 1.399 . S
C351 H337 0.929 . S
C351 C350 1.399 . S
C351 C352 1.385 . S
C352 H338 0.931 . S
C352 C351 1.385 . S
C352 C353 1.389 . S
C353 C352 1.389 . S
C353 C354 1.387 . S
C354 H339 0.930 . S
C354 C349 1.390 . S
C354 C353 1.387 . S
H355 C367 0.930 . S
H356 C369 0.930 . S
H357 C370 0.930 . S
H358 C374 0.959 . S
H359 C374 0.959 . S
H360 C374 0.961 . S
H361 C375 0.960 . S
H362 C375 0.961 . S
H363 C375 0.959 . S
H364 C378 0.929 . S
H365 C379 0.931 . S
H366 C381 0.930 . S
C367 H355 0.930 . S
C367 C368 1.399 . S
C367 C372 1.399 . S
C368 C367 1.399 . S
C368 C369 1.376 . S
C369 H356 0.930 . S
C369 C368 1.376 . S
C369 C370 1.388 . S
C370 H357 0.930 . S
C370 C369 1.388 . S
C370 C371 1.390 . S
C371 C370 1.390 . S
C371 C372 1.394 . S
C371 C377 1.465 . S
C372 C367 1.399 . S
C372 C371 1.394 . S
C372 C373 1.516 . S
C373 C372 1.516 . S
C373 C374 1.502 . S
C373 C375 1.561 . S
C373 C376 1.526 . S
C374 H358 0.959 . S
C374 H359 0.959 . S
C374 H360 0.961 . S
C374 C373 1.502 . S
C375 H361 0.960 . S
C375 H362 0.961 . S
C375 H363 0.959 . S
C375 C373 1.561 . S
C376 C373 1.526 . S
C376 C377 1.396 . S
C376 C381 1.390 . S
C377 C371 1.465 . S
C377 C376 1.396 . S
C377 C378 1.399 . S
C378 H364 0.929 . S
C378 C377 1.399 . S
C378 C379 1.385 . S
C379 H365 0.931 . S
C379 C378 1.385 . S
C379 C380 1.389 . S
C380 C379 1.389 . S
C380 C381 1.387 . S
C381 H366 0.930 . S
C381 C376 1.390 . S
C381 C380 1.387 . S
H382 C394 0.930 . S
H383 C396 0.930 . S
H384 C397 0.930 . S
H385 C401 0.959 . S
H386 C401 0.959 . S
H387 C401 0.961 . S
H388 C402 0.960 . S
H389 C402 0.961 . S
H390 C402 0.959 . S
H391 C405 0.929 . S
H392 C406 0.931 . S
H393 C408 0.930 . S
C394 H382 0.930 . S
C394 C395 1.399 . S
C394 C399 1.399 . S
C395 C394 1.399 . S
C395 C396 1.376 . S
C396 H383 0.930 . S
C396 C395 1.376 . S
C396 C397 1.388 . S
C397 H384 0.930 . S
C397 C396 1.388 . S
C397 C398 1.390 . S
C398 C397 1.390 . S
C398 C399 1.394 . S
C398 C404 1.465 . S
C399 C394 1.399 . S
C399 C398 1.394 . S
C399 C400 1.516 . S
C400 C399 1.516 . S
C400 C401 1.502 . S
C400 C402 1.561 . S
C400 C403 1.526 . S
C401 H385 0.959 . S
C401 H386 0.959 . S
C401 H387 0.961 . S
C401 C400 1.502 . S
C402 H388 0.960 . S
C402 H389 0.961 . S
C402 H390 0.959 . S
C402 C400 1.561 . S
C403 C400 1.526 . S
C403 C404 1.396 . S
C403 C408 1.390 . S
C404 C398 1.465 . S
C404 C403 1.396 . S
C404 C405 1.399 . S
C405 H391 0.929 . S
C405 C404 1.399 . S
C405 C406 1.385 . S
C406 H392 0.931 . S
C406 C405 1.385 . S
C406 C407 1.389 . S
C407 C406 1.389 . S
C407 C408 1.387 . S
C408 H393 0.930 . S
C408 C403 1.390 . S
C408 C407 1.387 . S
H409 C421 0.930 . S
H410 C423 0.930 . S
H411 C424 0.930 . S
H412 C428 0.959 . S
H413 C428 0.959 . S
H414 C428 0.961 . S
H415 C429 0.960 . S
H416 C429 0.961 . S
H417 C429 0.959 . S
H418 C432 0.929 . S
H419 C433 0.931 . S
H420 C435 0.930 . S
C421 H409 0.930 . S
C421 C422 1.399 . S
C421 C426 1.399 . S
C422 C421 1.399 . S
C422 C423 1.376 . S
C423 H410 0.930 . S
C423 C422 1.376 . S
C423 C424 1.388 . S
C424 H411 0.930 . S
C424 C423 1.388 . S
C424 C425 1.390 . S
C425 C424 1.390 . S
C425 C426 1.394 . S
C425 C431 1.465 . S
C426 C421 1.399 . S
C426 C425 1.394 . S
C426 C427 1.516 . S
C427 C426 1.516 . S
C427 C428 1.502 . S
C427 C429 1.561 . S
C427 C430 1.526 . S
C428 H412 0.959 . S
C428 H413 0.959 . S
C428 H414 0.961 . S
C428 C427 1.502 . S
C429 H415 0.960 . S
C429 H416 0.961 . S
C429 H417 0.959 . S
C429 C427 1.561 . S
C430 C427 1.526 . S
C430 C431 1.396 . S
C430 C435 1.390 . S
C431 C425 1.465 . S
C431 C430 1.396 . S
C431 C432 1.399 . S
C432 H418 0.929 . S
C432 C431 1.399 . S
C432 C433 1.385 . S
C433 H419 0.931 . S
C433 C432 1.385 . S
C433 C434 1.389 . S
C434 C433 1.389 . S
C434 C435 1.387 . S
C435 H420 0.930 . S
C435 C430 1.390 . S
C435 C434 1.387 . S
H436 C448 0.930 . S
H437 C450 0.930 . S
H438 C451 0.930 . S
H439 C455 0.959 . S
H440 C455 0.959 . S
H441 C455 0.961 . S
H442 C456 0.960 . S
H443 C456 0.961 . S
H444 C456 0.959 . S
H445 C459 0.929 . S
H446 C460 0.931 . S
H447 C462 0.930 . S
C448 H436 0.930 . S
C448 C449 1.399 . S
C448 C453 1.399 . S
C449 C448 1.399 . S
C449 C450 1.376 . S
C450 H437 0.930 . S
C450 C449 1.376 . S
C450 C451 1.388 . S
C451 H438 0.930 . S
C451 C450 1.388 . S
C451 C452 1.390 . S
C452 C451 1.390 . S
C452 C453 1.394 . S
C452 C458 1.465 . S
C453 C448 1.399 . S
C453 C452 1.394 . S
C453 C454 1.516 . S
C454 C453 1.516 . S
C454 C455 1.502 . S
C454 C456 1.561 . S
C454 C457 1.526 . S
C455 H439 0.959 . S
C455 H440 0.959 . S
C455 H441 0.961 . S
C455 C454 1.502 . S
C456 H442 0.960 . S
C456 H443 0.961 . S
C456 H444 0.959 . S
C456 C454 1.561 . S
C457 C454 1.526 . S
C457 C458 1.396 . S
C457 C462 1.390 . S
C458 C452 1.465 . S
C458 C457 1.396 . S
C458 C459 1.399 . S
C459 H445 0.929 . S
C459 C458 1.399 . S
C459 C460 1.385 . S
C460 H446 0.931 . S
C460 C459 1.385 . S
C460 C461 1.389 . S
C461 C460 1.389 . S
C461 C462 1.387 . S
C462 H447 0.930 . S
C462 C457 1.390 . S
C462 C461 1.387 . S
H463 C475 0.930 . S
H464 C477 0.930 . S
H465 C478 0.930 . S
H466 C482 0.959 . S
H467 C482 0.959 . S
H468 C482 0.961 . S
H469 C483 0.960 . S
H470 C483 0.961 . S
H471 C483 0.959 . S
H472 C486 0.929 . S
H473 C487 0.931 . S
H474 C489 0.930 . S
C475 H463 0.930 . S
C475 C476 1.399 . S
C475 C480 1.399 . S
C476 C475 1.399 . S
C476 C477 1.376 . S
C477 H464 0.930 . S
C477 C476 1.376 . S
C477 C478 1.388 . S
C478 H465 0.930 . S
C478 C477 1.388 . S
C478 C479 1.390 . S
C479 C478 1.390 . S
C479 C480 1.394 . S
C479 C485 1.465 . S
C480 C475 1.399 . S
C480 C479 1.394 . S
C480 C481 1.516 . S
C481 C480 1.516 . S
C481 C482 1.502 . S
C481 C483 1.561 . S
C481 C484 1.526 . S
C482 H466 0.959 . S
C482 H467 0.959 . S
C482 H468 0.961 . S
C482 C481 1.502 . S
C483 H469 0.960 . S
C483 H470 0.961 . S
C483 H471 0.959 . S
C483 C481 1.561 . S
C484 C481 1.526 . S
C484 C485 1.396 . S
C484 C489 1.390 . S
C485 C479 1.465 . S
C485 C484 1.396 . S
C485 C486 1.399 . S
C486 H472 0.929 . S
C486 C485 1.399 . S
C486 C487 1.385 . S
C487 H473 0.931 . S
C487 C486 1.385 . S
C487 C488 1.389 . S
C488 C487 1.389 . S
C488 C489 1.387 . S
C489 H474 0.930 . S
C489 C484 1.390 . S
C489 C488 1.387 . S
H490 C502 0.930 . S
H491 C504 0.930 . S
H492 C505 0.930 . S
H493 C509 0.959 . S
H494 C509 0.959 . S
H495 C509 0.961 . S
H496 C510 0.960 . S
H497 C510 0.961 . S
H498 C510 0.959 . S
H499 C513 0.929 . S
H500 C514 0.931 . S
H501 C516 0.930 . S
C502 H490 0.930 . S
C502 C503 1.399 . S
C502 C507 1.399 . S
C503 C502 1.399 . S
C503 C504 1.376 . S
C504 H491 0.930 . S
C504 C503 1.376 . S
C504 C505 1.388 . S
C505 H492 0.930 . S
C505 C504 1.388 . S
C505 C506 1.390 . S
C506 C505 1.390 . S
C506 C507 1.394 . S
C506 C512 1.465 1_554 S
C507 C502 1.399 . S
C507 C506 1.394 . S
C507 C508 1.516 1_554 S
C508 C507 1.516 1_556 S
C508 C509 1.502 . S
C508 C510 1.561 1_556 S
C508 C511 1.526 . S
C509 H493 0.959 . S
C509 H494 0.959 . S
C509 H495 0.961 . S
C509 C508 1.502 . S
C510 H496 0.960 . S
C510 H497 0.961 . S
C510 H498 0.959 . S
C510 C508 1.561 1_554 S
C511 C508 1.526 . S
C511 C512 1.396 . S
C511 C516 1.390 . S
C512 C506 1.465 1_556 S
C512 C511 1.396 . S
C512 C513 1.399 . S
C513 H499 0.929 . S
C513 C512 1.399 . S
C513 C514 1.385 . S
C514 H500 0.931 . S
C514 C513 1.385 . S
C514 C515 1.389 . S
C515 C514 1.389 . S
C515 C516 1.387 . S
C516 H501 0.930 . S
C516 C511 1.390 . S
C516 C515 1.387 . S
H517 C529 0.930 . S
H518 C531 0.930 . S
H519 C532 0.917 1_556 S
H520 C536 0.959 . S
H521 C536 0.959 . S
H522 C536 0.961 . S
H523 C537 0.960 1_554 S
H524 C537 0.961 . S
H525 C537 0.959 . S
H526 C540 0.929 . S
H527 C541 0.931 . S
H528 C543 0.930 . S
C529 H517 0.930 . S
C529 C530 1.399 . S
C529 C534 1.399 . S
C530 C529 1.399 . S
C530 C531 1.376 . S
C531 H518 0.930 . S
C531 C530 1.376 . S
C531 C532 1.401 . S
C532 H519 0.917 1_554 S
C532 C531 1.401 . S
C532 C533 1.391 1_554 S
C533 C532 1.391 1_556 S
C533 C534 1.389 1_556 S
C533 C539 1.469 . S
C534 C529 1.399 . S
C534 C533 1.389 1_554 S
C534 C535 1.516 . S
C535 C534 1.516 . S
C535 C536 1.502 . S
C535 C537 1.561 1_554 S
C535 C538 1.526 1_554 S
C536 H520 0.959 . S
C536 H521 0.959 . S
C536 H522 0.961 . S
C536 C535 1.502 . S
C537 H523 0.960 1_556 S
C537 H524 0.961 . S
C537 H525 0.959 . S
C537 C535 1.561 1_556 S
C538 C535 1.526 1_556 S
C538 C539 1.396 . S
C538 C543 1.390 . S
C539 C533 1.469 . S
C539 C538 1.396 . S
C539 C540 1.399 . S
C540 H526 0.929 . S
C540 C539 1.399 . S
C540 C541 1.385 . S
C541 H527 0.931 . S
C541 C540 1.385 . S
C541 C542 1.389 . S
C542 C541 1.389 . S
C542 C543 1.387 . S
C543 H528 0.930 . S
C543 C538 1.390 . S
C543 C542 1.387 . S
C125 C7 1.492 . S
C137 C35 1.479 . S
C152 C49 1.457 . S
C164 C21 1.517 . S
C179 C91 1.527 . S
C191 C63 1.460 . S
C206 C77 1.457 . S
C218 C105 1.517 1_655 S
C233 C90 1.664 . S
C245 C6 1.666 . S
C260 C20 1.651 . S
C272 C104 1.675 . S
C287 C34 1.665 . S
C299 C62 1.659 . S
C314 C48 1.663 . S
C326 C76 1.660 . S
C341 C92 1.561 . S
C353 C8 1.597 . S
C368 C22 1.599 . S
C380 C106 1.557 . S
C395 C64 1.595 . S
C407 C36 1.558 . S
C422 C78 1.572 . S
C434 C50 1.577 . S
C449 C23 0.488 . S
C461 C9 0.545 . S
C476 C37 0.649 . S
C488 C51 0.720 . S
C503 C79 0.487 . S
C515 C65 0.540 . S
C530 C93 0.604 . S
C542 C107 0.489 . S
