# Generated by pormake.
# Topology whr, (6)-cn, num edge types: 1
# Building blocks:
#     Node 0, Type 0, BuildingBlock: IZENUY_clean_sbu_0, # of connection points: 6
#     Node 1, Type 0, BuildingBlock: IZENUY_clean_sbu_0, # of connection points: 6
#     Node 2, Type 0, BuildingBlock: IZENUY_clean_sbu_0, # of connection points: 6
#     Node 3, Type 0, BuildingBlock: IZENUY_clean_sbu_0, # of connection points: 6
#     Node 4, Type 0, BuildingBlock: IZENUY_clean_sbu_0, # of connection points: 6
#     Node 5, Type 0, BuildingBlock: IZENUY_clean_sbu_0, # of connection points: 6
#     Node 6, Type 0, BuildingBlock: IZENUY_clean_sbu_0, # of connection points: 6
#     Node 7, Type 0, BuildingBlock: IZENUY_clean_sbu_0, # of connection points: 6
#     Node 8, Type 0, BuildingBlock: IZENUY_clean_sbu_0, # of connection points: 6
#     Node 9, Type 0, BuildingBlock: IZENUY_clean_sbu_0, # of connection points: 6
#     Node 10, Type 0, BuildingBlock: IZENUY_clean_sbu_0, # of connection points: 6
#     Node 11, Type 0, BuildingBlock: IZENUY_clean_sbu_0, # of connection points: 6
#     Node 12, Type 0, BuildingBlock: IZENUY_clean_sbu_0, # of connection points: 6
#     Node 13, Type 0, BuildingBlock: IZENUY_clean_sbu_0, # of connection points: 6
#     Node 14, Type 0, BuildingBlock: IZENUY_clean_sbu_0, # of connection points: 6
#     Node 15, Type 0, BuildingBlock: IZENUY_clean_sbu_0, # of connection points: 6
#     Edge 16, Type (0, 0), BuildingBlock: XIVTED_clean_linker_0, # of connection points: 2
#     Edge 17, Type (0, 0), BuildingBlock: XIVTED_clean_linker_0, # of connection points: 2
#     Edge 18, Type (0, 0), BuildingBlock: XIVTED_clean_linker_0, # of connection points: 2
#     Edge 19, Type (0, 0), BuildingBlock: XIVTED_clean_linker_0, # of connection points: 2
#     Edge 20, Type (0, 0), BuildingBlock: XIVTED_clean_linker_0, # of connection points: 2
#     Edge 21, Type (0, 0), BuildingBlock: XIVTED_clean_linker_0, # of connection points: 2
#     Edge 22, Type (0, 0), BuildingBlock: XIVTED_clean_linker_0, # of connection points: 2
#     Edge 23, Type (0, 0), BuildingBlock: XIVTED_clean_linker_0, # of connection points: 2
#     Edge 24, Type (0, 0), BuildingBlock: XIVTED_clean_linker_0, # of connection points: 2
#     Edge 25, Type (0, 0), BuildingBlock: XIVTED_clean_linker_0, # of connection points: 2
#     Edge 26, Type (0, 0), BuildingBlock: XIVTED_clean_linker_0, # of connection points: 2
#     Edge 27, Type (0, 0), BuildingBlock: XIVTED_clean_linker_0, # of connection points: 2
#     Edge 28, Type (0, 0), BuildingBlock: XIVTED_clean_linker_0, # of connection points: 2
#     Edge 29, Type (0, 0), BuildingBlock: XIVTED_clean_linker_0, # of connection points: 2
#     Edge 30, Type (0, 0), BuildingBlock: XIVTED_clean_linker_0, # of connection points: 2
#     Edge 31, Type (0, 0), BuildingBlock: XIVTED_clean_linker_0, # of connection points: 2
#     Edge 32, Type (0, 0), BuildingBlock: XIVTED_clean_linker_0, # of connection points: 2
#     Edge 33, Type (0, 0), BuildingBlock: XIVTED_clean_linker_0, # of connection points: 2
#     Edge 34, Type (0, 0), BuildingBlock: XIVTED_clean_linker_0, # of connection points: 2
#     Edge 35, Type (0, 0), BuildingBlock: XIVTED_clean_linker_0, # of connection points: 2
#     Edge 36, Type (0, 0), BuildingBlock: XIVTED_clean_linker_0, # of connection points: 2
#     Edge 37, Type (0, 0), BuildingBlock: XIVTED_clean_linker_0, # of connection points: 2
#     Edge 38, Type (0, 0), BuildingBlock: XIVTED_clean_linker_0, # of connection points: 2
#     Edge 39, Type (0, 0), BuildingBlock: XIVTED_clean_linker_0, # of connection points: 2
#     Edge 40, Type (0, 0), BuildingBlock: XIVTED_clean_linker_0, # of connection points: 2
#     Edge 41, Type (0, 0), BuildingBlock: XIVTED_clean_linker_0, # of connection points: 2
#     Edge 42, Type (0, 0), BuildingBlock: XIVTED_clean_linker_0, # of connection points: 2
#     Edge 43, Type (0, 0), BuildingBlock: XIVTED_clean_linker_0, # of connection points: 2
#     Edge 44, Type (0, 0), BuildingBlock: XIVTED_clean_linker_0, # of connection points: 2
#     Edge 45, Type (0, 0), BuildingBlock: XIVTED_clean_linker_0, # of connection points: 2
#     Edge 46, Type (0, 0), BuildingBlock: XIVTED_clean_linker_0, # of connection points: 2
#     Edge 47, Type (0, 0), BuildingBlock: XIVTED_clean_linker_0, # of connection points: 2
#     Edge 48, Type (0, 0), BuildingBlock: XIVTED_clean_linker_0, # of connection points: 2
#     Edge 49, Type (0, 0), BuildingBlock: XIVTED_clean_linker_0, # of connection points: 2
#     Edge 50, Type (0, 0), BuildingBlock: XIVTED_clean_linker_0, # of connection points: 2
#     Edge 51, Type (0, 0), BuildingBlock: XIVTED_clean_linker_0, # of connection points: 2
#     Edge 52, Type (0, 0), BuildingBlock: XIVTED_clean_linker_0, # of connection points: 2
#     Edge 53, Type (0, 0), BuildingBlock: XIVTED_clean_linker_0, # of connection points: 2
#     Edge 54, Type (0, 0), BuildingBlock: XIVTED_clean_linker_0, # of connection points: 2
#     Edge 55, Type (0, 0), BuildingBlock: XIVTED_clean_linker_0, # of connection points: 2
#     Edge 56, Type (0, 0), BuildingBlock: XIVTED_clean_linker_0, # of connection points: 2
#     Edge 57, Type (0, 0), BuildingBlock: XIVTED_clean_linker_0, # of connection points: 2
#     Edge 58, Type (0, 0), BuildingBlock: XIVTED_clean_linker_0, # of connection points: 2
#     Edge 59, Type (0, 0), BuildingBlock: XIVTED_clean_linker_0, # of connection points: 2
#     Edge 60, Type (0, 0), BuildingBlock: XIVTED_clean_linker_0, # of connection points: 2
#     Edge 61, Type (0, 0), BuildingBlock: XIVTED_clean_linker_0, # of connection points: 2
#     Edge 62, Type (0, 0), BuildingBlock: XIVTED_clean_linker_0, # of connection points: 2
#     Edge 63, Type (0, 0), BuildingBlock: XIVTED_clean_linker_0, # of connection points: 2
# Relax obj value: 0.339
# Max RMSD: 0.260
# Mean RMSD: 0.260
data_MOF--net-whr--node1-IZENUY_clean_sbu_0--edge1-XIVTED_clean_linker_0
_symmetry_space_group_name_H-M    P1
_symmetry_Int_Tables_number       1
_symmetry_cell_setting            triclinic
loop_
_symmetry_equiv_pos_as_xyz
'x, y, z'
_cell_length_a     47.933713
_cell_length_b     47.964021
_cell_length_c     28.467793
_cell_angle_alpha  89.94197
_cell_angle_beta   89.957852
_cell_angle_gamma 89.986863
loop_
_atom_site_label
_atom_site_type_symbol
_atom_site_fract_x
_atom_site_fract_y
_atom_site_fract_z
_atom_type_partial_charge
Fe0 Fe 0.19706 0.06282 0.10029 0.0
Fe1 Fe 0.24977 0.04029 0.05312 0.0
O2 O 0.22594 0.06804 0.06251 0.0
Fe3 Fe 0.23086 0.10093 0.0352 0.0
O4 O 0.19681 0.09994 0.0074 0.0
O5 O 0.17389 0.08781 0.07075 0.0
O6 O 0.18309 0.0361 0.06247 0.0
C7 C 0.19631 0.01424 0.05184 0.0
C8 C 0.21429 0.11414 0.12888 0.0
O9 O 0.22268 0.01283 0.05672 0.0
C10 C 0.28522 0.08836 0.05418 0.0
O11 O 0.21408 0.03671 0.13733 0.0
O12 O 0.25795 0.03769 0.11567 0.0
O13 O 0.21741 0.12109 0.08602 0.0
O14 O 0.20983 0.0891 0.14018 0.0
C15 C 0.24591 0.0613 0.9642 0.0
O16 O 0.28075 0.06284 0.04532 0.0
O17 O 0.26524 0.10491 0.06071 0.0
C18 C 0.23947 0.03184 0.14573 0.0
O19 O 0.24341 0.04061 0.99105 0.0
O20 O 0.24509 0.08615 0.97982 0.0
C21 C 0.17419 0.09779 0.02962 0.0
Fe22 Fe 0.04187 0.76063 0.94267 0.0
Fe23 Fe 0.09892 0.78651 0.96777 0.0
O24 O 0.06822 0.78605 0.93341 0.0
Fe25 Fe 0.06358 0.81156 0.88953 0.0
O26 O 0.03366 0.82549 0.9202 0.0
O27 O 0.01278 0.7848 0.92807 0.0
O28 O 0.03728 0.77184 0.00203 0.0
C29 C 0.05575 0.77379 0.03311 0.0
C30 C 0.04037 0.76362 0.84789 0.0
O31 O 0.0815 0.7745 0.02251 0.0
C32 C 0.1176 0.79767 0.8742 0.0
O33 O 0.0664 0.73244 0.96103 0.0
O34 O 0.10755 0.75157 0.95035 0.0
O35 O 0.04171 0.78978 0.85219 0.0
O36 O 0.04419 0.74781 0.88267 0.0
C37 C 0.09166 0.84227 0.9601 0.0
O38 O 0.12153 0.79842 0.91848 0.0
O39 O 0.09326 0.79846 0.85746 0.0
C40 C 0.09284 0.73044 0.95859 0.0
O41 O 0.09259 0.8219 0.98789 0.0
O42 O 0.08494 0.83856 0.91769 0.0
C43 C 0.01217 0.81136 0.92986 0.0
Fe44 Fe 0.7816 0.91023 0.03202 0.0
Fe45 Fe 0.81625 0.94736 0.09714 0.0
O46 O 0.78676 0.94257 0.06094 0.0
Fe47 Fe 0.76254 0.97044 0.05444 0.0
O48 O 0.76855 0.97179 0.9922 0.0
O49 O 0.76695 0.92645 0.97811 0.0
O50 O 0.81531 0.91144 0.00289 0.0
C51 C 0.83827 0.91364 0.02398 0.0
C52 C 0.72744 0.92232 0.05335 0.0
O53 O 0.83929 0.9236 0.06497 0.0
C54 C 0.77373 0.97488 0.14766 0.0
O55 O 0.79562 0.88897 0.08121 0.0
O56 O 0.80497 0.91997 0.13616 0.0
O57 O 0.73173 0.94794 0.0454 0.0
O58 O 0.74754 0.90578 0.05861 0.0
C59 C 0.81528 0.99736 0.05271 0.0
O60 O 0.79914 0.97175 0.137 0.0
O61 O 0.75487 0.97115 0.11731 0.0
C62 C 0.79997 0.8952 0.12405 0.0
O63 O 0.82888 0.97523 0.05985 0.0
O64 O 0.78915 0.99816 0.06022 0.0
C65 C 0.76624 0.95167 0.96402 0.0
Fe66 Fe 0.94775 0.19901 0.89516 0.0
Fe67 Fe 0.97136 0.24995 0.94524 0.0
O68 O 0.94353 0.22625 0.93603 0.0
Fe69 Fe 0.91189 0.22963 0.96777 0.0
O70 O 0.91456 0.19477 0.99215 0.0
O71 O 0.92508 0.17411 0.92576 0.0
O72 O 0.97659 0.18461 0.92835 0.0
C73 C 0.99871 0.19787 0.937 0.0
C74 C 0.89465 0.21523 0.87488 0.0
O75 O 0.9993 0.22425 0.93311 0.0
C76 C 0.92305 0.2845 0.95288 0.0
O77 O 0.97099 0.21883 0.85655 0.0
O78 O 0.97074 0.26159 0.8846 0.0
O79 O 0.88964 0.21731 0.91865 0.0
O80 O 0.91922 0.21198 0.86007 0.0
C81 C 0.95446 0.24031 0.03501 0.0
O82 O 0.94868 0.27987 0.96081 0.0
O83 O 0.90651 0.26462 0.94567 0.0
C84 C 0.97389 0.24483 0.85092 0.0
O85 O 0.97381 0.23937 0.00523 0.0
O86 O 0.92906 0.24229 0.02242 0.0
C87 C 0.91656 0.17296 0.96777 0.0
Fe88 Fe 0.81481 0.06492 0.60199 0.0
Fe89 Fe 0.76294 0.0415 0.55441 0.0
O90 O 0.78625 0.06962 0.56376 0.0
Fe91 Fe 0.78112 0.10203 0.5351 0.0
O92 O 0.81542 0.10134 0.50827 0.0
O93 O 0.83822 0.08947 0.57189 0.0
O94 O 0.829 0.0377 0.56487 0.0
C95 C 0.816 0.01545 0.55606 0.0
C96 C 0.79728 0.11663 0.62853 0.0
O97 O 0.78977 0.01409 0.5621 0.0
C98 C 0.72688 0.08894 0.55186 0.0
O99 O 0.797 0.0395 0.63978 0.0
O100 O 0.75331 0.04029 0.61643 0.0
O101 O 0.79377 0.12301 0.5855 0.0
O102 O 0.80198 0.09178 0.64076 0.0
C103 C 0.77024 0.06109 0.46518 0.0
O104 O 0.73201 0.0636 0.54267 0.0
O105 O 0.74648 0.10568 0.55968 0.0
C106 C 0.77136 0.0351 0.64761 0.0
O107 O 0.77169 0.04086 0.49322 0.0
O108 O 0.76798 0.08609 0.47971 0.0
C109 C 0.83793 0.09944 0.53076 0.0
Fe110 Fe 0.06364 0.19984 0.39128 0.0
Fe111 Fe 0.04111 0.25063 0.44347 0.0
O112 O 0.06806 0.22595 0.43412 0.0
Fe113 Fe 0.09915 0.22687 0.46745 0.0
O114 O 0.09401 0.1916 0.48926 0.0
O115 O 0.08592 0.17379 0.41997 0.0
O116 O 0.0344 0.18543 0.42328 0.0
C117 C 0.0127 0.19913 0.43326 0.0
C118 C 0.11715 0.21487 0.37388 0.0
O119 O 0.01258 0.22563 0.43047 0.0
C120 C 0.09111 0.28266 0.45442 0.0
O121 O 0.04083 0.22068 0.35372 0.0
O122 O 0.04252 0.26292 0.3832 0.0
O123 O 0.12154 0.2148 0.41804 0.0
O124 O 0.09266 0.21331 0.35788 0.0
C125 C 0.0564 0.23914 0.53373 0.0
O126 O 0.06495 0.27962 0.45981 0.0
O127 O 0.10663 0.26183 0.44813 0.0
C128 C 0.03882 0.24677 0.34893 0.0
O129 O 0.03753 0.23985 0.5032 0.0
O130 O 0.08203 0.23926 0.52219 0.0
C131 C 0.09308 0.17082 0.46236 0.0
Fe132 Fe 0.19847 0.94996 0.60477 0.0
Fe133 Fe 0.25025 0.97242 0.55448 0.0
O134 O 0.22628 0.94493 0.56471 0.0
Fe135 Fe 0.22976 0.91239 0.5359 0.0
O136 O 0.19496 0.91484 0.51064 0.0
O137 O 0.17452 0.92497 0.57708 0.0
O138 O 0.18366 0.97698 0.56828 0.0
C139 C 0.19686 0.99871 0.55657 0.0
C140 C 0.21586 0.89836 0.63063 0.0
O141 O 0.22335 0.99996 0.55976 0.0
C142 C 0.28482 0.9237 0.55275 0.0
O143 O 0.21633 0.97594 0.64072 0.0
O144 O 0.25965 0.97459 0.61658 0.0
O145 O 0.21727 0.89191 0.58726 0.0
O146 O 0.2124 0.92338 0.64306 0.0
C147 C 0.24427 0.95235 0.46513 0.0
O148 O 0.28077 0.94946 0.54508 0.0
O149 O 0.26466 0.90726 0.55861 0.0
C150 C 0.24188 0.98064 0.64762 0.0
O151 O 0.24288 0.97276 0.4927 0.0
O152 O 0.24298 0.92739 0.48007 0.0
C153 C 0.17322 0.91612 0.53537 0.0
Fe154 Fe 0.949 0.81413 0.39721 0.0
Fe155 Fe 0.97139 0.76235 0.44727 0.0
O156 O 0.94401 0.78656 0.43756 0.0
Fe157 Fe 0.91189 0.78323 0.46808 0.0
O158 O 0.91463 0.81783 0.49312 0.0
O159 O 0.92628 0.83911 0.42774 0.0
O160 O 0.9779 0.82801 0.43087 0.0
C161 C 0.99951 0.81419 0.44078 0.0
C162 C 0.89595 0.79845 0.37491 0.0
O163 O 0.99968 0.7878 0.43728 0.0
C164 C 0.92255 0.7283 0.45283 0.0
O165 O 0.97234 0.79436 0.35897 0.0
O166 O 0.97156 0.75135 0.38616 0.0
O167 O 0.89034 0.7961 0.41843 0.0
O168 O 0.92069 0.80176 0.36109 0.0
C169 C 0.95344 0.77168 0.53663 0.0
O170 O 0.94818 0.73255 0.46123 0.0
O171 O 0.90637 0.74844 0.44525 0.0
C172 C 0.97514 0.7684 0.35289 0.0
O173 O 0.97319 0.77226 0.50762 0.0
O174 O 0.92817 0.77003 0.52321 0.0
C175 C 0.91701 0.83987 0.46935 0.0
Fe176 Fe 0.74931 0.54158 0.55799 0.0
Fe177 Fe 0.72968 0.60165 0.53864 0.0
O178 O 0.72542 0.56918 0.56753 0.0
Fe179 Fe 0.69712 0.56393 0.60616 0.0
O180 O 0.68339 0.53634 0.56944 0.0
O181 O 0.72311 0.51355 0.566 0.0
O182 O 0.7404 0.54071 0.49697 0.0
C183 C 0.74135 0.56093 0.46885 0.0
C184 C 0.74136 0.53508 0.65121 0.0
O185 O 0.74313 0.58597 0.48327 0.0
C186 C 0.71365 0.61603 0.63216 0.0
O187 O 0.77971 0.56439 0.54601 0.0
O188 O 0.76429 0.60619 0.56286 0.0
O189 O 0.71561 0.53897 0.64377 0.0
O190 O 0.75918 0.54063 0.61983 0.0
C191 C 0.67293 0.59763 0.53495 0.0
O192 O 0.71664 0.62242 0.58903 0.0
O193 O 0.70955 0.59111 0.64459 0.0
C194 C 0.78426 0.58985 0.55518 0.0
O195 O 0.69533 0.59999 0.51218 0.0
O196 O 0.67306 0.58791 0.57626 0.0
C197 C 0.6968 0.51431 0.56063 0.0
Fe198 Fe 0.54058 0.26179 0.44968 0.0
Fe199 Fe 0.60091 0.2814 0.46837 0.0
O200 O 0.56806 0.286 0.44093 0.0
Fe201 Fe 0.56244 0.31498 0.40384 0.0
O202 O 0.53555 0.32811 0.44246 0.0
O203 O 0.51256 0.28841 0.44526 0.0
O204 O 0.54042 0.26814 0.51176 0.0
C205 C 0.56107 0.26567 0.53876 0.0
C206 C 0.53276 0.2722 0.35726 0.0
O207 O 0.586 0.26673 0.52335 0.0
C208 C 0.61412 0.29884 0.37502 0.0
O209 O 0.56355 0.23116 0.45786 0.0
O210 O 0.6054 0.24723 0.44236 0.0
O211 O 0.53671 0.29768 0.36633 0.0
O212 O 0.5388 0.25373 0.38716 0.0
C213 C 0.59691 0.33797 0.47475 0.0
O214 O 0.62102 0.29539 0.41783 0.0
O215 O 0.58903 0.30303 0.36367 0.0
C216 C 0.58912 0.22702 0.44882 0.0
O217 O 0.59945 0.3153 0.49668 0.0
O218 O 0.58698 0.3383 0.43368 0.0
C219 C 0.51361 0.31466 0.45174 0.0
Fe220 Fe 0.25953 0.47141 0.55787 0.0
Fe221 Fe 0.2828 0.41246 0.53858 0.0
O222 O 0.28543 0.4454 0.56634 0.0
Fe223 Fe 0.31411 0.45233 0.60369 0.0
O224 O 0.32593 0.48014 0.56595 0.0
O225 O 0.28476 0.50066 0.56078 0.0
O226 O 0.26518 0.47181 0.4956 0.0
C227 C 0.26445 0.45113 0.46853 0.0
C228 C 0.27004 0.48019 0.65019 0.0
O229 O 0.26722 0.42639 0.48385 0.0
C230 C 0.30084 0.39972 0.6316 0.0
O231 O 0.23004 0.44673 0.55132 0.0
O232 O 0.24916 0.4059 0.56476 0.0
O233 O 0.29563 0.47704 0.64131 0.0
O234 O 0.25181 0.4732 0.62055 0.0
C235 C 0.33894 0.41917 0.5324 0.0
O236 O 0.29797 0.393 0.58866 0.0
O237 O 0.30344 0.42493 0.64349 0.0
C238 C 0.22779 0.42087 0.55999 0.0
O239 O 0.31647 0.41611 0.51017 0.0
O240 O 0.33873 0.42909 0.57351 0.0
C241 C 0.31117 0.50109 0.55571 0.0
Fe242 Fe 0.47153 0.75059 0.44752 0.0
Fe243 Fe 0.41166 0.73085 0.46811 0.0
O244 O 0.44359 0.72729 0.43747 0.0
Fe245 Fe 0.44791 0.70003 0.39663 0.0
O246 O 0.47553 0.68478 0.4318 0.0
O247 O 0.49902 0.72407 0.43759 0.0
O248 O 0.473 0.74057 0.50796 0.0
C249 C 0.45324 0.74121 0.53697 0.0
C250 C 0.47736 0.74455 0.35395 0.0
O251 O 0.42802 0.7432 0.52355 0.0
C252 C 0.39573 0.7172 0.37405 0.0
O253 O 0.44906 0.78094 0.46142 0.0
O254 O 0.40673 0.76597 0.44635 0.0
O255 O 0.47308 0.71878 0.35995 0.0
O256 O 0.47212 0.76173 0.38632 0.0
C257 C 0.41478 0.67435 0.46683 0.0
O258 O 0.39016 0.71895 0.41773 0.0
O259 O 0.42056 0.71421 0.3601 0.0
C260 C 0.42344 0.78572 0.45357 0.0
O261 O 0.41405 0.69581 0.49224 0.0
O262 O 0.42342 0.67585 0.42498 0.0
C263 C 0.49775 0.69768 0.44165 0.0
Fe264 Fe 0.31545 0.55844 0.10368 0.0
Fe265 Fe 0.26117 0.53856 0.0577 0.0
O266 O 0.28677 0.5649 0.06604 0.0
Fe267 Fe 0.28378 0.59774 0.03789 0.0
O268 O 0.31755 0.59442 0.00956 0.0
O269 O 0.33986 0.58177 0.07315 0.0
O270 O 0.32767 0.53055 0.06654 0.0
C271 C 0.31323 0.50937 0.05655 0.0
C272 C 0.3015 0.61104 0.13074 0.0
O273 O 0.28677 0.50958 0.06102 0.0
C274 C 0.2289 0.58871 0.05996 0.0
O275 O 0.29717 0.5337 0.14163 0.0
O276 O 0.25337 0.53678 0.12035 0.0
O277 O 0.2987 0.61753 0.08768 0.0
O278 O 0.30442 0.58592 0.14301 0.0
C279 C 0.26578 0.55873 0.96825 0.0
O280 O 0.23134 0.56292 0.05091 0.0
O281 O 0.25009 0.60398 0.06409 0.0
C282 C 0.2716 0.53016 0.15026 0.0
O283 O 0.26692 0.53811 0.99547 0.0
O284 O 0.26829 0.58353 0.98336 0.0
C285 C 0.34003 0.59153 0.03188 0.0
Fe286 Fe 0.56315 0.69836 0.90399 0.0
Fe287 Fe 0.53999 0.75109 0.94977 0.0
O288 O 0.56786 0.7271 0.94176 0.0
Fe289 Fe 0.60023 0.7318 0.97081 0.0
O290 O 0.59868 0.69778 0.99879 0.0
O291 O 0.58688 0.67488 0.93529 0.0
O292 O 0.53526 0.68495 0.94041 0.0
C293 C 0.51309 0.69827 0.94858 0.0
C294 C 0.61543 0.71475 0.87835 0.0
O295 O 0.51217 0.72456 0.94277 0.0
C296 C 0.58823 0.7861 0.95141 0.0
O297 O 0.53878 0.7162 0.86493 0.0
O298 O 0.53919 0.75998 0.88762 0.0
O299 O 0.62149 0.71813 0.92146 0.0
O300 O 0.59063 0.71041 0.86569 0.0
C301 C 0.55906 0.74659 0.03944 0.0
O302 O 0.56266 0.78171 0.96005 0.0
O303 O 0.60472 0.76605 0.94507 0.0
C304 C 0.53568 0.74184 0.85614 0.0
O305 O 0.53886 0.74386 0.01156 0.0
O306 O 0.58421 0.74615 0.02505 0.0
C307 C 0.59653 0.67519 0.97657 0.0
Fe308 Fe 0.69841 0.44966 0.10227 0.0
Fe309 Fe 0.75189 0.472 0.05748 0.0
O310 O 0.72735 0.44451 0.06498 0.0
Fe311 Fe 0.73161 0.41211 0.03591 0.0
O312 O 0.69772 0.41424 0.00758 0.0
O313 O 0.67472 0.42626 0.07085 0.0
O314 O 0.68569 0.47762 0.06548 0.0
C315 C 0.69935 0.49959 0.05746 0.0
C316 C 0.71385 0.39722 0.12826 0.0
O317 O 0.72563 0.5002 0.06372 0.0
C318 C 0.78609 0.42314 0.05647 0.0
O319 O 0.71624 0.47384 0.14143 0.0
O320 O 0.76023 0.4728 0.11999 0.0
O321 O 0.7174 0.39109 0.08519 0.0
O322 O 0.70983 0.42208 0.14084 0.0
C323 C 0.74732 0.45303 0.96746 0.0
O324 O 0.78228 0.44882 0.04803 0.0
O325 O 0.76569 0.40696 0.06187 0.0
C326 C 0.7418 0.47664 0.15101 0.0
O327 O 0.7453 0.47326 0.99545 0.0
O328 O 0.74636 0.4279 0.98179 0.0
C329 C 0.67504 0.41676 0.02951 0.0
Fe330 Fe 0.47397 0.2591 0.94896 0.0
Fe331 Fe 0.41407 0.28008 0.96747 0.0
O332 O 0.44667 0.28331 0.93878 0.0
Fe333 Fe 0.45216 0.31112 0.89913 0.0
O334 O 0.47932 0.32531 0.93626 0.0
O335 O 0.50203 0.28547 0.94239 0.0
O336 O 0.47451 0.26692 0.01061 0.0
C337 C 0.45399 0.26576 0.03815 0.0
C338 C 0.48186 0.26713 0.85588 0.0
O339 O 0.42903 0.26678 0.02314 0.0
C340 C 0.40022 0.29496 0.87302 0.0
O341 O 0.45068 0.22894 0.95945 0.0
O342 O 0.40878 0.24526 0.94456 0.0
O343 O 0.47784 0.29279 0.86301 0.0
O344 O 0.47564 0.24944 0.88699 0.0
C345 C 0.41788 0.33649 0.96807 0.0
O346 O 0.39378 0.29288 0.91631 0.0
O347 O 0.42534 0.29791 0.86052 0.0
C348 C 0.42494 0.225 0.95149 0.0
O349 O 0.41655 0.3148 0.99288 0.0
O350 O 0.42746 0.3353 0.92681 0.0
C351 C 0.50122 0.31192 0.94645 0.0
H352 H 0.2234 0.10894 0.2229 0.0
H353 H 0.12009 0.23074 0.28223 0.0
H354 H 0.19494 0.16769 0.11861 0.0
H355 H 0.16567 0.18594 0.38883 0.0
H356 H 0.15188 0.21239 0.22272 0.0
H357 H 0.20751 0.14047 0.28465 0.0
C358 C 0.21426 0.12876 0.21303 0.0
C359 C 0.21014 0.13556 0.16557 0.0
C360 C 0.15539 0.20705 0.2592 0.0
C361 C 0.1914 0.17158 0.23614 0.0
C362 C 0.13726 0.21756 0.2932 0.0
C363 C 0.14014 0.20965 0.34043 0.0
C364 C 0.17619 0.18796 0.27235 0.0
C365 C 0.16274 0.19258 0.35281 0.0
C366 C 0.20522 0.14679 0.24833 0.0
C367 C 0.19843 0.16159 0.15476 0.0
N368 N 0.17955 0.18181 0.31881 0.0
N369 N 0.18892 0.17841 0.18979 0.0
H370 H 0.1213 0.7813 0.78294 0.0
H371 H 0.22663 0.90211 0.72438 0.0
H372 H 0.16592 0.8269 0.88957 0.0
H373 H 0.19487 0.84553 0.61961 0.0
H374 H 0.21046 0.87046 0.78584 0.0
H375 H 0.15341 0.79941 0.72373 0.0
C376 C 0.13832 0.79463 0.79401 0.0
C377 C 0.14081 0.80284 0.84113 0.0
C378 C 0.2075 0.86462 0.74945 0.0
C379 C 0.17728 0.82424 0.77334 0.0
C380 C 0.21672 0.88271 0.71432 0.0
C381 C 0.21174 0.87661 0.66684 0.0
C382 C 0.19269 0.84046 0.73711 0.0
C383 C 0.19905 0.85109 0.65577 0.0
C384 C 0.15664 0.80501 0.76017 0.0
C385 C 0.16326 0.82005 0.85362 0.0
N386 N 0.18945 0.83422 0.69068 0.0
N387 N 0.18029 0.83066 0.81975 0.0
H388 H 0.84467 0.82263 0.3884 0.0
H389 H 0.82108 0.84245 0.11194 0.0
H390 H 0.89689 0.78589 0.28168 0.0
H391 H 0.78981 0.89862 0.21784 0.0
H392 H 0.83766 0.81122 0.17443 0.0
H393 H 0.81335 0.83982 0.32662 0.0
C394 C 0.8491 0.81749 0.35211 0.0
C395 C 0.87357 0.80315 0.34003 0.0
C396 C 0.82662 0.83011 0.18388 0.0
C397 C 0.83805 0.8228 0.2694 0.0
C398 C 0.817 0.84781 0.14826 0.0
C399 C 0.80438 0.87328 0.15983 0.0
C400 C 0.82328 0.83785 0.23121 0.0
C401 C 0.79978 0.87932 0.20748 0.0
C402 C 0.83135 0.82747 0.31687 0.0
C403 C 0.87841 0.79721 0.29241 0.0
N404 N 0.80946 0.86189 0.24141 0.0
N405 N 0.861 0.80731 0.2588 0.0
H406 H 0.81685 0.16985 0.61561 0.0
H407 H 0.84389 0.19056 0.89072 0.0
H408 H 0.78847 0.11297 0.72294 0.0
H409 H 0.89408 0.22775 0.78157 0.0
H410 H 0.81198 0.17275 0.83041 0.0
H411 H 0.83349 0.20149 0.67721 0.0
C412 C 0.81342 0.16438 0.65209 0.0
C413 C 0.80163 0.13859 0.66424 0.0
C414 C 0.82965 0.18535 0.81981 0.0
C415 C 0.82062 0.17455 0.73465 0.0
C416 C 0.84772 0.1957 0.85421 0.0
C417 C 0.87181 0.21035 0.841 0.0
C418 C 0.83562 0.18997 0.77206 0.0
C419 C 0.8759 0.21623 0.79315 0.0
C420 C 0.82307 0.18234 0.6872 0.0
C421 C 0.79782 0.13249 0.71209 0.0
N422 N 0.85817 0.20578 0.76038 0.0
N423 N 0.80755 0.15018 0.74554 0.0
H424 H 0.61346 0.72669 0.78502 0.0
H425 H 0.72484 0.61309 0.72576 0.0
H426 H 0.66701 0.69118 0.89099 0.0
H427 H 0.69126 0.66818 0.62016 0.0
H428 H 0.708 0.64469 0.78676 0.0
H429 H 0.64508 0.7095 0.72427 0.0
C430 C 0.63225 0.71576 0.79548 0.0
C431 C 0.63752 0.71008 0.84301 0.0
C432 C 0.70482 0.65025 0.75027 0.0
C433 C 0.6735 0.68978 0.77365 0.0
C434 C 0.71441 0.63219 0.71544 0.0
C435 C 0.70915 0.6379 0.6679 0.0
C436 C 0.68926 0.67388 0.73756 0.0
C437 C 0.69571 0.66297 0.65641 0.0
C438 C 0.65032 0.70597 0.76079 0.0
C439 C 0.66219 0.69599 0.85473 0.0
N440 N 0.68567 0.67975 0.69106 0.0
N441 N 0.67898 0.68576 0.8202 0.0
H442 H 0.60995 0.28945 0.28095 0.0
H443 H 0.72524 0.39908 0.22175 0.0
H444 H 0.6667 0.3204 0.38617 0.0
H445 H 0.68945 0.34608 0.11541 0.0
H446 H 0.70737 0.36767 0.28232 0.0
H447 H 0.64135 0.30651 0.21967 0.0
C448 C 0.62933 0.29937 0.29111 0.0
C449 C 0.63562 0.30379 0.33867 0.0
C450 C 0.70393 0.36251 0.24576 0.0
C451 C 0.67139 0.32389 0.26873 0.0
C452 C 0.71412 0.38044 0.21117 0.0
C453 C 0.70861 0.37525 0.16358 0.0
C454 C 0.68749 0.33957 0.23274 0.0
C455 C 0.69417 0.35082 0.15173 0.0
C456 C 0.64728 0.30907 0.25612 0.0
C457 C 0.66105 0.3166 0.34992 0.0
N458 N 0.68356 0.33418 0.18615 0.0
N459 N 0.67774 0.32675 0.31518 0.0
H460 H 0.40211 0.28539 0.77864 0.0
H461 H 0.29333 0.40307 0.72642 0.0
H462 H 0.34955 0.31993 0.88701 0.0
H463 H 0.32286 0.34758 0.61806 0.0
H464 H 0.31103 0.37083 0.78587 0.0
H465 H 0.37103 0.30511 0.71918 0.0
C466 C 0.38366 0.29662 0.78988 0.0
C467 C 0.37849 0.30121 0.83777 0.0
C468 C 0.31318 0.36541 0.74913 0.0
C469 C 0.34322 0.3244 0.76998 0.0
C470 C 0.30315 0.38385 0.71518 0.0
C471 C 0.3069 0.37812 0.66726 0.0
C472 C 0.32765 0.34135 0.73509 0.0
C473 C 0.31958 0.35283 0.65463 0.0
C474 C 0.36592 0.30787 0.75594 0.0
C475 C 0.35428 0.31585 0.85046 0.0
N476 N 0.33001 0.33563 0.68835 0.0
N477 N 0.33785 0.32745 0.81674 0.0
H478 H 0.32011 0.66444 0.11632 0.0
H479 H 0.34605 0.69076 0.39024 0.0
H480 H 0.29529 0.60738 0.22594 0.0
H481 H 0.39538 0.728 0.28 0.0
H482 H 0.3156 0.67014 0.33048 0.0
H483 H 0.33609 0.69727 0.17651 0.0
C484 C 0.31747 0.65907 0.15302 0.0
C485 C 0.30675 0.63297 0.16618 0.0
C486 C 0.33272 0.68337 0.31948 0.0
C487 C 0.32484 0.67042 0.23499 0.0
C488 C 0.34994 0.69535 0.35354 0.0
C489 C 0.3734 0.71089 0.33994 0.0
C490 C 0.33889 0.68723 0.27165 0.0
C491 C 0.37764 0.71592 0.29188 0.0
C492 C 0.32669 0.67776 0.1873 0.0
C493 C 0.30383 0.6271 0.21427 0.0
N494 N 0.36073 0.70388 0.25942 0.0
N495 N 0.31304 0.64557 0.24693 0.0
H496 H 0.14536 0.9983 0.08508 0.0
H497 H 0.12247 0.87634 0.9042 0.0
H498 H 0.21107 0.97293 0.99072 0.0
H499 H 0.09256 0.86775 0.0465 0.0
H500 H 0.14819 0.91818 0.92741 0.0
H501 H 0.119 0.95625 0.06385 0.0
C502 C 0.15415 0.98391 0.05975 0.0
C503 C 0.18038 0.98899 0.0395 0.0
C504 C 0.13586 0.90718 0.95341 0.0
C505 C 0.15022 0.94146 0.01467 0.0
C506 C 0.12097 0.88351 0.9402 0.0
C507 C 0.10525 0.8687 0.97352 0.0
C508 C 0.13447 0.91651 0.99996 0.0
C509 C 0.10443 0.87865 0.01983 0.0
C510 C 0.1392 0.95995 0.04795 0.0
C511 C 0.19096 0.96965 0.0072 0.0
N512 N 0.11868 0.90218 0.03168 0.0
N513 N 0.17567 0.94685 0.99528 0.0
H514 H 0.89227 0.92729 0.04268 0.0
H515 H 0.95818 0.7915 0.92693 0.0
H516 H 0.84235 0.87002 0.96169 0.0
H517 H 1.00616 0.86547 0.95717 0.0
H518 H 0.91531 0.81746 0.94544 0.0
H519 H 0.93429 0.90274 0.01708 0.0
C520 C 0.89019 0.90968 0.01913 0.0
C521 C 0.86378 0.90074 0.0042 0.0
C522 C 0.93526 0.82797 0.94771 0.0
C523 C 0.91182 0.87214 0.97549 0.0
C524 C 0.95971 0.81315 0.93742 0.0
C525 C 0.98581 0.82634 0.9404 0.0
C526 C 0.93701 0.85597 0.96194 0.0
C527 C 0.98653 0.85446 0.95409 0.0
C528 C 0.91418 0.89567 0.00453 0.0
C529 C 0.86232 0.87775 0.97372 0.0
N530 N 0.96257 0.86823 0.96467 0.0
N531 N 0.886 0.86401 0.96079 0.0
H532 H 0.92851 0.12015 0.93839 0.0
H533 H 0.79773 0.05129 0.06456 0.0
H534 H 0.87668 0.16565 0.03579 0.0
H535 H 0.86783 1.0026 0.01617 0.0
H536 H 0.82404 0.09391 0.04779 0.0
H537 H 0.90469 0.07705 0.96106 0.0
C538 C 0.91228 0.12102 0.96486 0.0
C539 C 0.90454 0.14651 0.98522 0.0
C540 C 0.83366 0.07388 0.04101 0.0
C541 C 0.87688 0.0974 0.0106 0.0
C542 C 0.8186 0.04955 0.05023 0.0
C543 C 0.8306 0.02334 0.0417 0.0
C544 C 0.86072 0.072 0.02236 0.0
C545 C 0.8578 0.02237 0.0234 0.0
C546 C 0.89873 0.09643 0.97778 0.0
C547 C 0.8834 0.14643 0.0194 0.0
N548 N 0.87187 0.04635 0.01403 0.0
N549 N 0.87006 0.12229 0.0306 0.0
H550 H 1.00305 0.14463 0.9704 0.0
H551 H 0.16951 0.13867 0.9624 0.0
H552 H 0.05314 0.2153 0.9291 0.0
H553 H 0.12025 0.08688 0.05464 0.0
H554 H 0.12676 0.16265 0.93753 0.0
H555 H 0.04571 0.11904 0.98969 0.0
C556 C 0.02303 0.15473 0.96516 0.0
C557 C 0.02452 0.18219 0.94819 0.0
C558 C 0.12537 0.14594 0.96304 0.0
C559 C 0.07343 0.15286 0.96978 0.0
C560 C 0.1497 0.13211 0.97699 0.0
C561 C 0.14846 0.11078 0.01078 0.0
C562 C 0.09958 0.13805 0.98237 0.0
C563 C 0.1222 0.10329 0.02871 0.0
C564 C 0.04734 0.14013 0.97633 0.0
C565 C 0.05101 0.19424 0.94233 0.0
N566 N 0.09882 0.11685 0.01422 0.0
N567 N 0.07444 0.17945 0.95289 0.0
H568 H 0.86826 0.01192 0.51787 0.0
H569 H 0.87836 0.84629 0.53954 0.0
H570 H 0.80026 0.96102 0.56819 0.0
H571 H 0.92686 0.89315 0.43896 0.0
H572 H 0.85448 0.88933 0.56237 0.0
H573 H 0.89459 0.96945 0.49964 0.0
C574 C 0.85891 0.99181 0.52517 0.0
C575 C 0.832 0.98998 0.54443 0.0
C576 C 0.87047 0.89016 0.5355 0.0
C577 C 0.86213 0.94145 0.52429 0.0
C578 C 0.88427 0.86567 0.52269 0.0
C579 C 0.90459 0.8661 0.48714 0.0
C580 C 0.87733 0.91535 0.51316 0.0
C581 C 0.91123 0.89183 0.46634 0.0
C582 C 0.87391 0.96763 0.51467 0.0
C583 C 0.82085 0.96339 0.55306 0.0
N584 N 0.89766 0.91544 0.47969 0.0
N585 N 0.83604 0.94016 0.54319 0.0
H586 H 0.84214 0.14028 0.46356 0.0
H587 H 0.00838 0.14602 0.46672 0.0
H588 H 0.89202 0.08902 0.55561 0.0
H589 H 0.95828 0.21714 0.42772 0.0
H590 H 0.96586 0.12076 0.48779 0.0
H591 H 0.88463 0.16443 0.43795 0.0
C592 C 0.86204 0.13388 0.47798 0.0
C593 C 0.86354 0.11262 0.51187 0.0
C594 C 0.96419 0.14188 0.47455 0.0
C595 C 0.91211 0.14008 0.48258 0.0
C596 C 0.98841 0.15629 0.46233 0.0
C597 C 0.98688 0.18376 0.44542 0.0
C598 C 0.93813 0.1548 0.46913 0.0
C599 C 0.96042 0.19605 0.4408 0.0
C600 C 0.88621 0.14781 0.4636 0.0
C601 C 0.88989 0.10536 0.52959 0.0
N602 N 0.93705 0.18142 0.45233 0.0
N603 N 0.91313 0.11899 0.51463 0.0
H604 H 0.1237 0.13623 0.40735 0.0
H605 H 0.14622 0.01532 0.59063 0.0
H606 H 0.09439 0.14633 0.54969 0.0
H607 H 0.21153 0.03949 0.49453 0.0
H608 H 0.12018 0.05761 0.56917 0.0
H609 H 0.14913 0.09438 0.43143 0.0
C610 C 0.12232 0.12941 0.44357 0.0
C611 C 0.10683 0.14463 0.47663 0.0
C612 C 0.14023 0.05358 0.55297 0.0
C613 C 0.13569 0.09678 0.50407 0.0
C614 C 0.15499 0.02949 0.5649 0.0
C615 C 0.18101 0.02401 0.5442 0.0
C616 C 0.15124 0.07177 0.51916 0.0
C617 C 0.19158 0.04308 0.51136 0.0
C618 C 0.13702 0.10572 0.45727 0.0
C619 C 0.10611 0.13511 0.52323 0.0
N620 N 0.17648 0.06599 0.49937 0.0
N621 N 0.12018 0.11154 0.53559 0.0
H622 H 0.15119 0.91398 0.44632 0.0
H623 H 0.0393 0.79772 0.50314 0.0
H624 H 0.13711 0.8857 0.58825 0.0
H625 H 0.01863 0.86426 0.40729 0.0
H626 H 0.08182 0.82304 0.52544 0.0
H627 H 0.10843 0.88934 0.42174 0.0
C628 C 0.13911 0.90261 0.47218 0.0
C629 C 0.14748 0.90203 0.51939 0.0
C630 C 0.06797 0.83198 0.49941 0.0
C631 C 0.09943 0.87339 0.49146 0.0
C632 C 0.04386 0.81754 0.48654 0.0
C633 C 0.02548 0.82899 0.45344 0.0
C634 C 0.07413 0.85763 0.47802 0.0
C635 C 0.03223 0.85485 0.43318 0.0
C636 C 0.1148 0.88869 0.45822 0.0
C637 C 0.13118 0.88694 0.5516 0.0
N638 N 0.0562 0.86823 0.44545 0.0
N639 N 0.10813 0.87295 0.53696 0.0
H640 H 0.64367 0.50967 0.52673 0.0
H641 H 0.63847 0.34322 0.54066 0.0
H642 H 0.71425 0.46008 0.57015 0.0
H643 H 0.58457 0.3916 0.45062 0.0
H644 H 0.66238 0.38631 0.5639 0.0
H645 H 0.61791 0.46681 0.50979 0.0
C646 C 0.65374 0.48977 0.53278 0.0
C647 C 0.68121 0.48846 0.5497 0.0
C648 C 0.6452 0.38744 0.53927 0.0
C649 C 0.65169 0.43934 0.53092 0.0
C650 C 0.63141 0.36292 0.5263 0.0
C651 C 0.60957 0.36383 0.4935 0.0
C652 C 0.63678 0.41304 0.51989 0.0
C653 C 0.60143 0.38992 0.47577 0.0
C654 C 0.63903 0.46533 0.52304 0.0
C655 C 0.6932 0.46206 0.5568 0.0
N656 N 0.61501 0.41346 0.48919 0.0
N657 N 0.67833 0.43853 0.54758 0.0
H658 H 0.3444 0.37822 0.46567 0.0
H659 H 0.51006 0.36702 0.48863 0.0
H660 H 0.3925 0.42973 0.55984 0.0
H661 H 0.45898 0.29859 0.44093 0.0
H662 H 0.46778 0.39391 0.5048 0.0
H663 H 0.38707 0.35291 0.4448 0.0
C664 C 0.36398 0.3845 0.48141 0.0
C665 C 0.36488 0.40609 0.51467 0.0
C666 C 0.46583 0.373 0.49088 0.0
C667 C 0.41364 0.37716 0.49106 0.0
C668 C 0.48993 0.35763 0.48162 0.0
C669 C 0.48803 0.33047 0.46356 0.0
C670 C 0.4396 0.36133 0.48135 0.0
C671 C 0.46139 0.31937 0.4552 0.0
C672 C 0.38825 0.36987 0.46981 0.0
C673 C 0.39082 0.41315 0.53421 0.0
N674 N 0.4382 0.33491 0.46389 0.0
N675 N 0.41416 0.39874 0.52211 0.0
H676 H 0.29383 0.54178 0.49505 0.0
H677 H 0.41267 0.65104 0.55481 0.0
H678 H 0.36068 0.52024 0.58974 0.0
H679 H 0.38234 0.64065 0.41327 0.0
H680 H 0.3866 0.60893 0.5782 0.0
H681 H 0.31896 0.58483 0.4743 0.0
C682 C 0.31366 0.54624 0.51165 0.0
C683 C 0.32536 0.52745 0.5438 0.0
C684 C 0.38577 0.61599 0.54208 0.0
C685 C 0.35366 0.57655 0.52121 0.0
C686 C 0.40054 0.63989 0.5288 0.0
C687 C 0.39987 0.64901 0.48202 0.0
C688 C 0.36959 0.60182 0.50861 0.0
C689 C 0.38373 0.63401 0.44957 0.0
C690 C 0.32797 0.57064 0.49973 0.0
C691 C 0.35114 0.53411 0.56437 0.0
N692 N 0.369 0.61128 0.46355 0.0
N693 N 0.36437 0.55825 0.55301 0.0
H694 H 0.50127 0.64485 0.47753 0.0
H695 H 0.66755 0.63693 0.46549 0.0
H696 H 0.55225 0.71391 0.43186 0.0
H697 H 0.61915 0.58729 0.56232 0.0
H698 H 0.62468 0.66046 0.44048 0.0
H699 H 0.54375 0.61884 0.49722 0.0
C700 C 0.52139 0.65448 0.47145 0.0
C701 C 0.52324 0.68162 0.45319 0.0
C702 C 0.62348 0.64432 0.46702 0.0
C703 C 0.5718 0.65188 0.4751 0.0
C704 C 0.64788 0.63074 0.4811 0.0
C705 C 0.64695 0.61018 0.51623 0.0
C706 C 0.59789 0.63699 0.48763 0.0
C707 C 0.62086 0.60314 0.53536 0.0
C708 C 0.54558 0.63967 0.48283 0.0
C709 C 0.54986 0.69313 0.4462 0.0
N710 N 0.59736 0.61648 0.52076 0.0
N711 N 0.5731 0.67814 0.45693 0.0
H712 H 0.38632 0.36993 0.91253 0.0
H713 H 0.36228 0.49087 0.09341 0.0
H714 H 0.41348 0.35982 0.05598 0.0
H715 H 0.29751 0.46815 0.99559 0.0
H716 H 0.3871 0.44758 0.07424 0.0
H717 H 0.35936 0.41101 0.93591 0.0
C718 C 0.3868 0.37654 0.94892 0.0
C719 C 0.4023 0.36165 0.98241 0.0
C720 C 0.3674 0.45207 0.05721 0.0
C721 C 0.37173 0.40866 0.00906 0.0
C722 C 0.35333 0.47676 0.06782 0.0
C723 C 0.32787 0.48304 0.04586 0.0
C724 C 0.35633 0.43398 0.02341 0.0
C725 C 0.31705 0.46398 0.01331 0.0
C726 C 0.37122 0.39978 0.96221 0.0
C727 C 0.40183 0.37082 0.02917 0.0
N728 N 0.33157 0.44044 0.00249 0.0
N729 N 0.38705 0.39404 0.04109 0.0
H730 H 0.39362 0.57949 0.05705 0.0
H731 H 0.45862 0.71538 0.93964 0.0
H732 H 0.3455 0.6338 0.96736 0.0
H733 H 0.50882 0.64495 0.98176 0.0
H734 H 0.41649 0.68797 0.95578 0.0
H735 H 0.43588 0.60491 0.0349 0.0
C736 C 0.392 0.59659 0.0323 0.0
C737 C 0.36599 0.60451 0.014 0.0
C738 C 0.43675 0.67854 0.96132 0.0
C739 C 0.41421 0.63407 0.98929 0.0
C740 C 0.4608 0.69422 0.95246 0.0
C741 C 0.4873 0.68245 0.95938 0.0
C742 C 0.43923 0.65106 0.97798 0.0
C743 C 0.48883 0.65485 0.97577 0.0
C744 C 0.41612 0.61109 0.01971 0.0
C745 C 0.36513 0.62686 0.98209 0.0
N746 N 0.46516 0.64018 0.98479 0.0
N747 N 0.38884 0.64109 0.97118 0.0
H748 H 0.63883 0.67027 0.04126 0.0
H749 H 0.64637 0.50412 0.02338 0.0
H750 H 0.58454 0.62154 0.95266 0.0
H751 H 0.71661 0.554 0.06723 0.0
H752 H 0.62008 0.54676 0.00789 0.0
H753 H 0.66386 0.62745 0.06284 0.0
C754 C 0.63189 0.65054 0.02696 0.0
C755 C 0.6096 0.64945 0.99502 0.0
C756 C 0.64125 0.54839 0.02085 0.0
C757 C 0.63814 0.60059 0.01938 0.0
C758 C 0.65629 0.52406 0.02975 0.0
C759 C 0.68379 0.52548 0.04651 0.0
C760 C 0.6536 0.57443 0.02932 0.0
C761 C 0.69554 0.55194 0.05402 0.0
C762 C 0.64634 0.62619 0.03893 0.0
C763 C 0.60169 0.62335 0.97721 0.0
N764 N 0.68032 0.5754 0.0456 0.0
N765 N 0.61591 0.59999 0.98963 0.0
H766 H 0.55543 0.29401 0.93902 0.0
H767 H 0.62146 0.43049 0.05143 0.0
H768 H 0.50596 0.3658 0.97669 0.0
H769 H 0.66973 0.37382 0.96634 0.0
H770 H 0.579 0.40572 0.02871 0.0
H771 H 0.59783 0.32107 0.95431 0.0
C772 C 0.55348 0.31541 0.95072 0.0
C773 C 0.5271 0.32765 0.95672 0.0
C774 C 0.59884 0.39887 0.01459 0.0
C775 C 0.5755 0.35865 0.97425 0.0
C776 C 0.62307 0.413 0.02752 0.0
C777 C 0.64916 0.40419 0.01075 0.0
C778 C 0.60069 0.37538 0.98539 0.0
C779 C 0.65003 0.3814 0.97985 0.0
C780 C 0.57768 0.33089 0.95906 0.0
C781 C 0.52585 0.35554 0.97153 0.0
N782 N 0.62617 0.36753 0.96863 0.0
N783 N 0.54968 0.37002 0.9801 0.0
H784 H 0.21444 0.02643 0.67759 0.0
H785 H 0.27879 0.01998 0.93069 0.0
H786 H 0.28542 0.97471 0.70996 0.0
H787 H 0.22771 0.08882 0.88495 0.0
H788 H 0.28411 1.00517 0.84925 0.0
H789 H 0.22126 0.05164 0.75107 0.0
C790 C 0.23176 0.02066 0.70006 0.0
C791 C 0.24927 0.99831 0.6881 0.0
C792 C 0.27212 0.02378 0.85675 0.0
C793 C 0.25691 0.02679 0.77273 0.0
C794 C 0.26896 0.03219 0.90326 0.0
C795 C 0.25247 0.05546 0.91449 0.0
C796 C 0.25818 0.03835 0.8211 0.0
C797 C 0.24051 0.07073 0.8777 0.0
C798 C 0.23569 0.03513 0.74192 0.0
C799 C 0.27149 0.99181 0.71806 0.0
N800 N 0.24315 0.06158 0.8326 0.0
N801 N 0.27437 1.00566 0.75958 0.0
H802 H 0.02638 0.74635 0.33241 0.0
H803 H 1.00596 0.79132 0.06505 0.0
H804 H 0.94902 0.77321 0.27027 0.0
H805 H 0.08273 0.75364 0.11248 0.0
H806 H 0.98598 0.7845 0.14208 0.0
H807 H 0.04795 0.74601 0.2537 0.0
C808 C 0.01373 0.75108 0.30191 0.0
C809 C 0.98587 0.75944 0.30724 0.0
C810 C 0.0072 0.77762 0.13606 0.0
C811 C 0.01036 0.76019 0.21836 0.0
C812 C 0.01872 0.78168 0.09197 0.0
C813 C 0.046 0.77285 0.08224 0.0
C814 C 0.02296 0.76465 0.17135 0.0
C815 C 0.06164 0.76084 0.11871 0.0
C816 C 0.02609 0.75129 0.25726 0.0
C817 C 0.97047 0.76631 0.26727 0.0
N818 N 0.04983 0.75696 0.16189 0.0
N819 N 0.98297 0.76674 0.22464 0.0
H820 H 0.78311 0.92339 0.88495 0.0
H821 H 0.72727 0.04174 0.70862 0.0
H822 H 0.73693 0.99575 0.93016 0.0
H823 H 0.79937 0.99047 0.68131 0.0
H824 H 0.72049 0.01681 0.7836 0.0
H825 H 0.77893 0.93969 0.80322 0.0
C826 C 0.77167 0.94238 0.87756 0.0
C827 C 0.76072 0.95848 0.91425 0.0
C828 C 0.73753 0.01082 0.76073 0.0
C829 C 0.75565 0.97704 0.82146 0.0
C830 C 0.74129 0.02493 0.71805 0.0
C831 C 0.76409 0.01834 0.68934 0.0
C832 C 0.75641 0.98973 0.77398 0.0
C833 C 0.78177 0.99643 0.70298 0.0
C834 C 0.76939 0.95173 0.8311 0.0
C835 C 0.74609 0.98297 0.90287 0.0
N836 N 0.77763 0.98298 0.74436 0.0
N837 N 0.74409 0.99157 0.85755 0.0
H838 H 0.92795 0.26621 0.11002 0.0
H839 H 0.06533 0.24767 0.26611 0.0
H840 H 1.00159 0.2195 0.07207 0.0
H841 H 0.98631 0.26592 0.33127 0.0
H842 H 0.04303 0.24957 0.18924 0.0
H843 H 0.94872 0.2747 0.18829 0.0
C844 C 0.94817 0.25745 0.11836 0.0
C845 C 0.9632 0.24234 0.08452 0.0
C846 C 0.03055 0.25372 0.22019 0.0
C847 C 0.98714 0.25266 0.1722 0.0
C848 C 0.04341 0.25307 0.26387 0.0
C849 C 0.0276 0.25699 0.30449 0.0
C850 C 1.00154 0.25768 0.21728 0.0
C851 C 0.99912 0.26326 0.30025 0.0
C852 C 0.96009 0.26255 0.1626 0.0
C853 C 0.98942 0.23161 0.0968 0.0
N854 N 0.98675 0.26302 0.25718 0.0
N855 N 1.00056 0.23717 0.1393 0.0
H856 H 0.73452 0.01451 0.17404 0.0
H857 H 0.80964 0.03054 0.42367 0.0
H858 H 0.80046 0.96223 0.22754 0.0
H859 H 0.73322 0.07445 0.39396 0.0
H860 H 0.80818 0.0098 0.34606 0.0
H861 H 0.73317 0.03905 0.25043 0.0
C862 C 0.74821 0.00783 0.20213 0.0
C863 C 0.76774 0.98644 0.1946 0.0
C864 C 0.79172 0.0241 0.35596 0.0
C865 C 0.76683 0.01459 0.28069 0.0
C866 C 0.79277 0.03619 0.40014 0.0
C867 C 0.77162 0.05426 0.4149 0.0
C868 C 0.76909 0.02973 0.32607 0.0
C869 C 0.75008 0.06081 0.38337 0.0
C870 C 0.74766 0.02199 0.24538 0.0
C871 C 0.78527 0.97877 0.23174 0.0
N872 N 0.74918 0.04829 0.34027 0.0
N873 N 0.78451 0.99291 0.2728 0.0
H874 H 0.08521 0.25824 0.61202 0.0
H875 H 0.94676 0.24709 0.76873 0.0
H876 H 1.00593 0.22469 0.56746 0.0
H877 H 0.02725 0.26074 0.83169 0.0
H878 H 0.96825 0.24885 0.69118 0.0
H879 H 0.06516 0.26596 0.69097 0.0
C880 C 0.06381 0.25226 0.61893 0.0
C881 C 0.04715 0.24102 0.58309 0.0
C882 C 0.98129 0.25196 0.72177 0.0
C883 C 0.02413 0.25037 0.67194 0.0
C884 C 0.9689 0.25137 0.76588 0.0
C885 C 0.98529 0.25419 0.80606 0.0
C886 C 0.01042 0.25471 0.71794 0.0
C887 C 0.01401 0.259 0.80104 0.0
C888 C 0.05234 0.2569 0.66366 0.0
C889 C 0.01949 0.23377 0.59372 0.0
N890 N 0.02586 0.25875 0.75755 0.0
N891 N 0.00891 0.23871 0.63689 0.0
H892 H 0.27637 0.99401 0.43035 0.0
H893 H 0.2098 0.98814 0.17891 0.0
H894 H 0.22464 0.92527 0.38649 0.0
H895 H 0.28348 0.03678 0.20741 0.0
H896 H 0.21608 0.96363 0.25329 0.0
H897 H 0.28076 0.0088 0.34867 0.0
C898 C 0.26615 0.98184 0.40331 0.0
C899 C 0.24982 0.95856 0.41515 0.0
C900 C 0.23117 0.97932 0.2431 0.0
C901 C 0.25451 0.97564 0.32151 0.0
C902 C 0.22754 0.99342 0.20075 0.0
C903 C 0.24603 0.0147 0.18736 0.0
C904 C 0.2531 0.98695 0.27297 0.0
C905 C 0.26878 0.02053 0.21659 0.0
C906 C 0.2688 0.99024 0.35667 0.0
C907 C 0.23735 0.94337 0.37879 0.0
N908 N 0.2714 0.00707 0.25857 0.0
N909 N 0.23952 0.95249 0.33357 0.0
H910 H 0.99005 0.73841 0.83223 0.0
H911 H 0.99453 0.80099 0.57631 0.0
H912 H 0.06418 0.76843 0.76321 0.0
H913 H 0.93195 0.73931 0.60895 0.0
H914 H 0.01608 0.79292 0.65206 0.0
H915 H 0.96566 0.73848 0.75589 0.0
C916 C 1.0015 0.74373 0.80064 0.0
C917 C 0.02917 0.75315 0.80349 0.0
C918 C 0.99759 0.78112 0.643 0.0
C919 C 1.00137 0.75456 0.71759 0.0
C920 C 0.98506 0.78599 0.59998 0.0
C921 C 0.96154 0.77069 0.58642 0.0
C922 C 0.98661 0.76077 0.67315 0.0
C923 C 0.95 0.75163 0.61847 0.0
C924 C 0.98751 0.74417 0.7574 0.0
C925 C 0.04293 0.76078 0.76217 0.0
N926 N 0.96281 0.74701 0.66063 0.0
N927 N 0.02878 0.7617 0.72108 0.0
H928 H 0.70479 0.52693 0.42775 0.0
H929 H 0.77721 0.51982 0.17532 0.0
H930 H 0.77682 0.5776 0.39726 0.0
H931 H 0.72009 0.4592 0.23245 0.0
H932 H 0.77775 0.54373 0.25229 0.0
H933 H 0.70792 0.5064 0.35019 0.0
C934 C 0.72104 0.53406 0.4041 0.0
C935 C 0.74053 0.55393 0.41865 0.0
C936 C 0.76551 0.52494 0.24796 0.0
C937 C 0.74498 0.52978 0.32985 0.0
C938 C 0.76548 0.51116 0.20441 0.0
C939 C 0.74854 0.4876 0.19786 0.0
C940 C 0.74837 0.51497 0.28444 0.0
C941 C 0.73331 0.47739 0.2361 0.0
C942 C 0.72307 0.5221 0.35995 0.0
C943 C 0.76126 0.56246 0.38686 0.0
N944 N 0.73342 0.49124 0.27744 0.0
N945 N 0.76315 0.5501 0.34375 0.0
H946 H 0.51892 0.23351 0.57151 0.0
H947 H 0.52926 0.29252 0.82792 0.0
H948 H 0.58942 0.28189 0.61829 0.0
H949 H 0.47396 0.22505 0.79168 0.0
H950 H 0.55409 0.28598 0.75389 0.0
H951 H 0.50455 0.22703 0.65291 0.0
C952 C 0.53156 0.24255 0.59913 0.0
C953 C 0.55516 0.25865 0.58825 0.0
C954 C 0.53689 0.27222 0.76232 0.0
C955 C 0.5386 0.25154 0.68165 0.0
C956 C 0.52265 0.27599 0.80448 0.0
C957 C 0.4994 0.25945 0.81544 0.0
C958 C 0.5274 0.25217 0.73028 0.0
C959 C 0.49179 0.23821 0.78432 0.0
C960 C 0.5234 0.2387 0.64563 0.0
C961 C 0.57101 0.26948 0.62528 0.0
N962 N 0.50545 0.23552 0.74258 0.0
N963 N 0.56213 0.26618 0.67043 0.0
H964 H 0.22621 0.53606 0.20872 0.0
H965 H 0.28365 0.42231 0.39167 0.0
H966 H 0.30039 0.48683 0.18689 0.0
H967 H 0.23298 0.49276 0.4316 0.0
H968 H 0.27982 0.43702 0.30911 0.0
H969 H 0.21866 0.51154 0.28382 0.0
C970 C 0.24057 0.51981 0.21939 0.0
C971 C 0.26417 0.51374 0.19223 0.0
C972 C 0.2692 0.44895 0.33601 0.0
C973 C 0.2556 0.48556 0.27694 0.0
C974 C 0.27129 0.44049 0.38293 0.0
C975 C 0.259 0.45661 0.41836 0.0
C976 C 0.25438 0.47339 0.32469 0.0
C977 C 0.24319 0.48004 0.40529 0.0
C978 C 0.23634 0.50591 0.26211 0.0
C979 C 0.2822 0.49248 0.20738 0.0
N980 N 0.24148 0.48784 0.35956 0.0
N981 N 0.27763 0.47925 0.24878 0.0
H982 H 0.42984 0.77033 0.61147 0.0
H983 H 0.55899 0.7273 0.77454 0.0
H984 H 0.4955 0.71267 0.57525 0.0
H985 H 0.48823 0.77091 0.83211 0.0
H986 H 0.53742 0.72864 0.69746 0.0
H987 H 0.4505 0.77494 0.69076 0.0
C988 C 0.4482 0.7583 0.62052 0.0
C989 C 0.46114 0.74122 0.58693 0.0
C990 C 0.52654 0.73823 0.72661 0.0
C991 C 0.48501 0.74688 0.67595 0.0
C992 C 0.53908 0.73776 0.77047 0.0
C993 C 0.52539 0.74916 0.80927 0.0
C994 C 0.49974 0.74973 0.72147 0.0
C995 C 0.49949 0.76222 0.80257 0.0
C996 C 0.46012 0.76117 0.66537 0.0
C997 C 0.48503 0.72631 0.59996 0.0
N998 N 0.4872 0.76188 0.75933 0.0
N999 N 0.49621 0.72963 0.64313 0.0
H1000 H 0.2831 0.58815 0.89062 0.0
H1001 H 0.22575 0.47299 0.71056 0.0
H1002 H 0.23492 0.51634 0.93257 0.0
H1003 H 0.29765 0.52482 0.68455 0.0
H1004 H 0.21868 0.49735 0.78584 0.0
H1005 H 0.27815 0.57361 0.80819 0.0
C1006 C 0.27107 0.56967 0.88239 0.0
C1007 C 0.25983 0.55315 0.9183 0.0
C1008 C 0.23573 0.5036 0.76317 0.0
C1009 C 0.2539 0.53659 0.82479 0.0
C1010 C 0.23966 0.4898 0.72034 0.0
C1011 C 0.26254 0.49665 0.69199 0.0
C1012 C 0.25454 0.5246 0.77693 0.0
C1013 C 0.28004 0.5186 0.706 0.0
C1014 C 0.26833 0.56133 0.83553 0.0
C1015 C 0.24437 0.52938 0.90587 0.0
N1016 N 0.27577 0.53169 0.74758 0.0
N1017 N 0.24202 0.5217 0.8602 0.0
H1018 H 0.51533 0.77721 0.07042 0.0
H1019 H 0.52583 0.72064 0.32805 0.0
H1020 H 0.58738 0.73204 0.11987 0.0
H1021 H 0.46871 0.78608 0.28913 0.0
H1022 H 0.55121 0.72769 0.25465 0.0
H1023 H 0.50028 0.78398 0.15133 0.0
C1024 C 0.52812 0.7689 0.09851 0.0
C1025 C 0.55237 0.75358 0.08857 0.0
C1026 C 0.53348 0.74092 0.26237 0.0
C1027 C 0.5351 0.7611 0.18137 0.0
C1028 C 0.51896 0.73686 0.30415 0.0
C1029 C 0.49505 0.75266 0.31408 0.0
C1030 C 0.52362 0.76048 0.22974 0.0
C1031 C 0.48704 0.7735 0.28247 0.0
C1032 C 0.5196 0.77295 0.14472 0.0
C1033 C 0.56844 0.74377 0.12616 0.0
N1034 N 0.50101 0.77646 0.2411 0.0
N1035 N 0.55921 0.74722 0.17104 0.0
H1036 H 0.73083 0.42413 0.88891 0.0
H1037 H 0.78546 0.54248 0.71169 0.0
H1038 H 0.77653 0.497 0.93303 0.0
H1039 H 0.71444 0.48976 0.6846 0.0
H1040 H 0.79283 0.51763 0.78654 0.0
H1041 H 0.73527 0.43984 0.80692 0.0
C1042 C 0.7422 0.44311 0.88124 0.0
C1043 C 0.75291 0.45955 0.91765 0.0
C1044 C 0.77591 0.5113 0.76373 0.0
C1045 C 0.75829 0.47743 0.82463 0.0
C1046 C 0.77182 0.52537 0.72114 0.0
C1047 C 0.7491 0.51837 0.69262 0.0
C1048 C 0.75744 0.48988 0.77705 0.0
C1049 C 0.73193 0.49606 0.7062 0.0
C1050 C 0.74465 0.45212 0.83463 0.0
C1051 C 0.76751 0.48399 0.90594 0.0
N1052 N 0.73635 0.48269 0.74753 0.0
N1053 N 0.76964 0.49228 0.86049 0.0
H1054 H 0.53832 0.22705 0.29854 0.0
H1055 H 0.42526 0.28513 0.11504 0.0
H1056 H 0.49009 0.30187 0.32024 0.0
H1057 H 0.49641 0.23543 0.07502 0.0
H1058 H 0.44008 0.28152 0.19761 0.0
H1059 H 0.51416 0.22017 0.22303 0.0
C1060 C 0.52235 0.24169 0.28774 0.0
C1061 C 0.51645 0.26525 0.31502 0.0
C1062 C 0.45216 0.2711 0.17067 0.0
C1063 C 0.48869 0.25745 0.22982 0.0
C1064 C 0.44366 0.27308 0.12377 0.0
C1065 C 0.45991 0.26096 0.08834 0.0
C1066 C 0.47672 0.25648 0.18197 0.0
C1067 C 0.4836 0.24552 0.10134 0.0
C1068 C 0.50867 0.23785 0.24479 0.0
C1069 C 0.49557 0.28368 0.29968 0.0
N1070 N 0.49137 0.24383 0.14707 0.0
N1071 N 0.48252 0.27946 0.25804 0.0
H1072 H 0.43233 0.19434 0.03085 0.0
H1073 H 0.31722 0.07945 0.97675 0.0
H1074 H 0.38635 0.19565 0.90085 0.0
H1075 H 0.31425 0.12727 0.10475 0.0
H1076 H 0.35645 0.1084 0.94964 0.0
H1077 H 0.40259 0.15583 0.05859 0.0
C1078 C 0.41667 0.18581 0.0075 0.0
C1079 C 0.41192 0.19792 0.96328 0.0
C1080 C 0.34764 0.11197 0.98416 0.0
C1081 C 0.3782 0.154 0.99463 0.0
C1082 C 0.32552 0.09534 0.99988 0.0
C1083 C 0.31271 0.10084 0.04329 0.0
C1084 C 0.35747 0.13369 0.01261 0.0
C1085 C 0.32374 0.12224 0.07128 0.0
C1086 C 0.39959 0.16412 0.02354 0.0
C1087 C 0.3908 0.18667 0.93494 0.0
N1088 N 0.34555 0.13789 0.05552 0.0
N1089 N 0.37473 0.16527 0.95103 0.0
H1090 H 0.2123 0.63398 0.10928 0.0
H1091 H 0.07978 0.6737 0.9516 0.0
H1092 H 0.18408 0.57716 0.00212 0.0
H1093 H 0.14006 0.73094 0.00952 0.0
H1094 H 0.10783 0.63443 0.98348 0.0
H1095 H 0.17394 0.66527 0.0899 0.0
C1096 C 0.19756 0.62776 0.0824 0.0
C1097 C 0.20156 0.60308 0.05699 0.0
C1098 C 0.11463 0.65569 0.98911 0.0
C1099 C 0.15785 0.63929 0.03363 0.0
C1100 C 0.09871 0.678 0.97102 0.0
C1101 C 0.10781 0.70563 0.9772 0.0
C1102 C 0.13913 0.66135 0.01468 0.0
C1103 C 0.13239 0.71006 0.00298 0.0
C1104 C 0.17577 0.64573 0.07109 0.0
C1105 C 0.18169 0.59602 0.02259 0.0
N1106 N 0.14697 0.68832 0.02072 0.0
N1107 N 0.16089 0.61434 0.0112 0.0
H1108 H 0.69503 0.93206 0.97684 0.0
H1109 H 0.58034 0.81673 0.03049 0.0
H1110 H 0.69876 0.88295 0.10356 0.0
H1111 H 0.62637 0.81586 0.9004 0.0
H1112 H 0.60979 0.8554 0.05814 0.0
H1113 H 0.65555 0.90347 0.94985 0.0
C1114 C 0.68685 0.91595 0.99973 0.0
C1115 C 0.69993 0.90995 0.04269 0.0
C1116 C 0.61283 0.84719 0.02307 0.0
C1117 C 0.65491 0.87758 0.01224 0.0
C1118 C 0.59593 0.8254 0.00708 0.0
C1119 C 0.60082 0.81335 0.96291 0.0
C1120 C 0.63419 0.85743 0.99414 0.0
C1121 C 0.62182 0.82479 0.93447 0.0
C1122 C 0.66459 0.89955 0.9841 0.0
C1123 C 0.68906 0.88833 0.07043 0.0
N1124 N 0.63776 0.84626 0.95054 0.0
N1125 N 0.66711 0.8729 0.05477 0.0
H1126 H 0.81337 0.38409 0.1091 0.0
H1127 H 0.88786 0.31628 0.89984 0.0
H1128 H 0.81948 0.43092 0.98027 0.0
H1129 H 0.92812 0.31294 0.03499 0.0
H1130 H 0.85992 0.35614 0.92721 0.0
H1131 H 0.85306 0.3553 0.08362 0.0
C1132 C 0.8236 0.38876 0.07607 0.0
C1133 C 0.81349 0.41013 0.04705 0.0
C1134 C 0.87536 0.34708 0.95044 0.0
C1135 C 0.85779 0.37658 0.01681 0.0
C1136 C 0.89129 0.32446 0.93483 0.0
C1137 C 0.91058 0.31172 0.96498 0.0
C1138 C 0.87793 0.35619 0.99712 0.0
C1139 C 0.91381 0.3226 0.01043 0.0
C1140 C 0.84612 0.37233 0.06152 0.0
C1141 C 0.82702 0.41497 0.00403 0.0
N1142 N 0.89718 0.34382 0.02554 0.0
N1143 N 0.84806 0.39788 0.98965 0.0
H1144 H 0.69799 0.08214 0.47055 0.0
H1145 H 0.57961 0.19394 0.52482 0.0
H1146 H 0.69522 0.12532 0.60313 0.0
H1147 H 0.6292 0.19922 0.39876 0.0
H1148 H 0.60871 0.15475 0.55153 0.0
H1149 H 0.6592 0.11132 0.44234 0.0
C1150 C 0.6885 0.09702 0.4943 0.0
C1151 C 0.69956 0.10119 0.53942 0.0
C1152 C 0.61266 0.16407 0.51749 0.0
C1153 C 0.65532 0.13429 0.50752 0.0
C1154 C 0.59596 0.18618 0.50199 0.0
C1155 C 0.60192 0.19964 0.45931 0.0
C1156 C 0.63493 0.1549 0.4895 0.0
C1157 C 0.62384 0.18925 0.43169 0.0
C1158 C 0.66664 0.11379 0.47801 0.0
C1159 C 0.68707 0.12133 0.56832 0.0
N1160 N 0.63957 0.16745 0.44722 0.0
N1161 N 0.66555 0.13713 0.55192 0.0
H1162 H 0.07077 0.3288 0.50217 0.0
H1163 H 0.21386 0.36938 0.59262 0.0
H1164 H 0.14414 0.29749 0.43165 0.0
H1165 H 0.18053 0.43822 0.51256 0.0
H1166 H 0.17508 0.34039 0.56589 0.0
H1167 H 0.09899 0.36793 0.53279 0.0
C1168 C 0.09249 0.3305 0.49208 0.0
C1169 C 0.10515 0.30962 0.46465 0.0
C1170 C 0.17592 0.3621 0.55535 0.0
C1171 C 0.13717 0.3537 0.49993 0.0
C1172 C 0.19798 0.37868 0.57052 0.0
C1173 C 0.20068 0.40624 0.5544 0.0
C1174 C 0.15622 0.37306 0.52414 0.0
C1175 C 0.17928 0.41711 0.52586 0.0
C1176 C 0.1085 0.35271 0.50971 0.0
C1177 C 0.1335 0.3128 0.4531 0.0
N1178 N 0.15811 0.40029 0.51078 0.0
N1179 N 0.14861 0.33403 0.47152 0.0
H1180 H 0.42933 0.81428 0.53534 0.0
H1181 H 0.31817 0.93287 0.47692 0.0
H1182 H 0.38787 0.81763 0.40121 0.0
H1183 H 0.31267 0.88431 0.60404 0.0
H1184 H 0.35762 0.90373 0.45128 0.0
H1185 H 0.40015 0.85332 0.56258 0.0
C1186 C 0.41482 0.82394 0.5111 0.0
C1187 C 0.41114 0.81301 0.4658 0.0
C1188 C 0.34819 0.90003 0.48532 0.0
C1189 C 0.37804 0.8575 0.49657 0.0
C1190 C 0.32595 0.91676 0.50019 0.0
C1191 C 0.31236 0.91109 0.54286 0.0
C1192 C 0.35734 0.87801 0.51391 0.0
C1193 C 0.32275 0.88945 0.5711 0.0
C1194 C 0.39806 0.84595 0.52681 0.0
C1195 C 0.39148 0.82569 0.4362 0.0
N1196 N 0.34466 0.87369 0.55617 0.0
N1197 N 0.37566 0.84733 0.45205 0.0
H1198 H 0.92977 0.6978 0.53257 0.0
H1199 H 0.81484 0.58274 0.47551 0.0
H1200 H 0.88442 0.69863 0.40193 0.0
H1201 H 0.81416 0.62756 0.60663 0.0
H1202 H 0.85372 0.61222 0.44849 0.0
H1203 H 0.90044 0.65882 0.55973 0.0
C1204 C 0.91431 0.68911 0.509 0.0
C1205 C 0.90961 0.70121 0.46477 0.0
C1206 C 0.84548 0.61502 0.48361 0.0
C1207 C 0.87636 0.65674 0.49543 0.0
C1208 C 0.82356 0.59809 0.49924 0.0
C1209 C 0.81151 0.6026 0.54356 0.0
C1210 C 0.85585 0.63607 0.513 0.0
C1211 C 0.82306 0.62331 0.57241 0.0
C1212 C 0.89747 0.66714 0.5247 0.0
C1213 C 0.88879 0.6897 0.43609 0.0
N1214 N 0.84464 0.63927 0.55669 0.0
N1215 N 0.87294 0.66805 0.45185 0.0
loop_
_geom_bond_atom_site_label_1
_geom_bond_atom_site_label_2
_geom_bond_distance
_geom_bond_site_symmetry_2
_ccdc_geom_bond_type
Fe0 O2 1.918 . S
Fe0 O5 1.997 . S
Fe0 O6 2.002 . S
Fe0 O11 1.976 . S
Fe0 O14 1.996 . S
Fe1 O2 1.918 . S
Fe1 O9 1.997 . S
Fe1 O12 1.996 . S
Fe1 O16 1.976 . S
Fe1 O19 2.002 1_554 S
O2 Fe0 1.918 . S
O2 Fe1 1.918 . S
O2 Fe3 1.918 . S
Fe3 O2 1.918 . S
Fe3 O4 2.002 . S
Fe3 O13 1.976 . S
Fe3 O17 1.996 . S
Fe3 O20 1.997 1_554 S
O4 Fe3 2.002 . S
O4 C21 1.295 . S
O5 Fe0 1.997 . S
O5 C21 1.235 . S
O6 Fe0 2.002 . S
O6 C7 1.295 1_545 S
C7 O6 1.295 1_565 S
C7 O9 1.235 1_565 S
C8 O13 1.287 . S
C8 O14 1.255 . S
O9 Fe1 1.997 . S
O9 C7 1.235 1_545 S
C10 O16 1.287 . S
C10 O17 1.255 . S
O11 Fe0 1.976 . S
O11 C18 1.287 . S
O12 Fe1 1.996 . S
O12 C18 1.255 . S
O13 Fe3 1.976 . S
O13 C8 1.287 . S
O14 Fe0 1.996 . S
O14 C8 1.255 . S
C15 O19 1.295 . S
C15 O20 1.235 . S
O16 Fe1 1.976 . S
O16 C10 1.287 . S
O17 Fe3 1.996 . S
O17 C10 1.255 . S
C18 O11 1.287 . S
C18 O12 1.255 . S
O19 Fe1 2.002 1_556 S
O19 C15 1.295 . S
O20 Fe3 1.997 1_556 S
O20 C15 1.235 . S
C21 O4 1.295 . S
C21 O5 1.235 . S
Fe22 O24 1.918 . S
Fe22 O27 1.997 . S
Fe22 O28 2.002 1_556 S
Fe22 O33 1.976 . S
Fe22 O36 1.996 . S
Fe23 O24 1.918 . S
Fe23 O31 1.997 1_556 S
Fe23 O34 1.996 . S
Fe23 O38 1.976 . S
Fe23 O41 2.002 . S
O24 Fe22 1.918 . S
O24 Fe23 1.918 . S
O24 Fe25 1.918 . S
Fe25 O24 1.918 . S
Fe25 O26 2.002 . S
Fe25 O35 1.976 . S
Fe25 O39 1.996 . S
Fe25 O42 1.997 . S
O26 Fe25 2.002 . S
O26 C43 1.295 1_455 S
O27 Fe22 1.997 . S
O27 C43 1.235 1_455 S
O28 Fe22 2.002 1_554 S
O28 C29 1.295 . S
C29 O28 1.295 . S
C29 O31 1.235 . S
C30 O35 1.287 . S
C30 O36 1.255 . S
O31 Fe23 1.997 1_554 S
O31 C29 1.235 . S
C32 O38 1.287 . S
C32 O39 1.255 . S
O33 Fe22 1.976 . S
O33 C40 1.287 . S
O34 Fe23 1.996 . S
O34 C40 1.255 . S
O35 Fe25 1.976 . S
O35 C30 1.287 . S
O36 Fe22 1.996 . S
O36 C30 1.255 . S
C37 O41 1.295 . S
C37 O42 1.235 . S
O38 Fe23 1.976 . S
O38 C32 1.287 . S
O39 Fe25 1.996 . S
O39 C32 1.255 . S
C40 O33 1.287 . S
C40 O34 1.255 . S
O41 Fe23 2.002 . S
O41 C37 1.295 . S
O42 Fe25 1.997 . S
O42 C37 1.235 . S
C43 O26 1.295 1_655 S
C43 O27 1.235 1_655 S
Fe44 O46 1.918 . S
Fe44 O49 1.997 1_554 S
Fe44 O50 2.002 . S
Fe44 O55 1.976 . S
Fe44 O58 1.996 . S
Fe45 O46 1.918 . S
Fe45 O53 1.997 . S
Fe45 O56 1.996 . S
Fe45 O60 1.976 . S
Fe45 O63 2.002 . S
O46 Fe44 1.918 . S
O46 Fe45 1.918 . S
O46 Fe47 1.918 . S
Fe47 O46 1.918 . S
Fe47 O48 2.002 1_554 S
Fe47 O57 1.976 . S
Fe47 O61 1.996 . S
Fe47 O64 1.997 . S
O48 Fe47 2.002 1_556 S
O48 C65 1.295 . S
O49 Fe44 1.997 1_556 S
O49 C65 1.235 . S
O50 Fe44 2.002 . S
O50 C51 1.295 . S
C51 O50 1.295 . S
C51 O53 1.235 . S
C52 O57 1.287 . S
C52 O58 1.255 . S
O53 Fe45 1.997 . S
O53 C51 1.235 . S
C54 O60 1.287 . S
C54 O61 1.255 . S
O55 Fe44 1.976 . S
O55 C62 1.287 . S
O56 Fe45 1.996 . S
O56 C62 1.255 . S
O57 Fe47 1.976 . S
O57 C52 1.287 . S
O58 Fe44 1.996 . S
O58 C52 1.255 . S
C59 O63 1.295 1_545 S
C59 O64 1.235 1_545 S
O60 Fe45 1.976 . S
O60 C54 1.287 . S
O61 Fe47 1.996 . S
O61 C54 1.255 . S
C62 O55 1.287 . S
C62 O56 1.255 . S
O63 Fe45 2.002 . S
O63 C59 1.295 1_565 S
O64 Fe47 1.997 . S
O64 C59 1.235 1_565 S
C65 O48 1.295 . S
C65 O49 1.235 . S
Fe66 O68 1.918 . S
Fe66 O71 1.997 . S
Fe66 O72 2.002 . S
Fe66 O77 1.976 . S
Fe66 O80 1.996 . S
Fe67 O68 1.918 . S
Fe67 O75 1.997 . S
Fe67 O78 1.996 . S
Fe67 O82 1.976 . S
Fe67 O85 2.002 1_556 S
O68 Fe66 1.918 . S
O68 Fe67 1.918 . S
O68 Fe69 1.918 . S
Fe69 O68 1.918 . S
Fe69 O70 2.002 . S
Fe69 O79 1.976 . S
Fe69 O83 1.996 . S
Fe69 O86 1.997 1_556 S
O70 Fe69 2.002 . S
O70 C87 1.295 . S
O71 Fe66 1.997 . S
O71 C87 1.235 . S
O72 Fe66 2.002 . S
O72 C73 1.295 1_655 S
C73 O72 1.295 1_455 S
C73 O75 1.235 1_455 S
C74 O79 1.287 . S
C74 O80 1.255 . S
O75 Fe67 1.997 . S
O75 C73 1.235 1_655 S
C76 O82 1.287 . S
C76 O83 1.255 . S
O77 Fe66 1.976 . S
O77 C84 1.287 . S
O78 Fe67 1.996 . S
O78 C84 1.255 . S
O79 Fe69 1.976 . S
O79 C74 1.287 . S
O80 Fe66 1.996 . S
O80 C74 1.255 . S
C81 O85 1.295 . S
C81 O86 1.235 . S
O82 Fe67 1.976 . S
O82 C76 1.287 . S
O83 Fe69 1.996 . S
O83 C76 1.255 . S
C84 O77 1.287 . S
C84 O78 1.255 . S
O85 Fe67 2.002 1_554 S
O85 C81 1.295 . S
O86 Fe69 1.997 1_554 S
O86 C81 1.235 . S
C87 O70 1.295 . S
C87 O71 1.235 . S
Fe88 O90 1.918 . S
Fe88 O93 1.997 . S
Fe88 O94 2.002 . S
Fe88 O99 1.976 . S
Fe88 O102 1.996 . S
Fe89 O90 1.918 . S
Fe89 O97 1.997 . S
Fe89 O100 1.996 . S
Fe89 O104 1.976 . S
Fe89 O107 2.002 . S
O90 Fe88 1.918 . S
O90 Fe89 1.918 . S
O90 Fe91 1.918 . S
Fe91 O90 1.918 . S
Fe91 O92 2.002 . S
Fe91 O101 1.976 . S
Fe91 O105 1.996 . S
Fe91 O108 1.997 . S
O92 Fe91 2.002 . S
O92 C109 1.295 . S
O93 Fe88 1.997 . S
O93 C109 1.235 . S
O94 Fe88 2.002 . S
O94 C95 1.295 1_545 S
C95 O94 1.295 1_565 S
C95 O97 1.235 1_565 S
C96 O101 1.287 . S
C96 O102 1.255 . S
O97 Fe89 1.997 . S
O97 C95 1.235 1_545 S
C98 O104 1.287 . S
C98 O105 1.255 . S
O99 Fe88 1.976 . S
O99 C106 1.287 . S
O100 Fe89 1.996 . S
O100 C106 1.255 . S
O101 Fe91 1.976 . S
O101 C96 1.287 . S
O102 Fe88 1.996 . S
O102 C96 1.255 . S
C103 O107 1.295 . S
C103 O108 1.235 . S
O104 Fe89 1.976 . S
O104 C98 1.287 . S
O105 Fe91 1.996 . S
O105 C98 1.255 . S
C106 O99 1.287 . S
C106 O100 1.255 . S
O107 Fe89 2.002 . S
O107 C103 1.295 . S
O108 Fe91 1.997 . S
O108 C103 1.235 . S
C109 O92 1.295 . S
C109 O93 1.235 . S
Fe110 O112 1.918 . S
Fe110 O115 1.997 . S
Fe110 O116 2.002 . S
Fe110 O121 1.976 . S
Fe110 O124 1.996 . S
Fe111 O112 1.918 . S
Fe111 O119 1.997 . S
Fe111 O122 1.996 . S
Fe111 O126 1.976 . S
Fe111 O129 2.002 . S
O112 Fe110 1.918 . S
O112 Fe111 1.918 . S
O112 Fe113 1.918 . S
Fe113 O112 1.918 . S
Fe113 O114 2.002 . S
Fe113 O123 1.976 . S
Fe113 O127 1.996 . S
Fe113 O130 1.997 . S
O114 Fe113 2.002 . S
O114 C131 1.295 . S
O115 Fe110 1.997 . S
O115 C131 1.235 . S
O116 Fe110 2.002 . S
O116 C117 1.295 1_455 S
C117 O116 1.295 1_655 S
C117 O119 1.235 1_655 S
C118 O123 1.287 . S
C118 O124 1.255 . S
O119 Fe111 1.997 . S
O119 C117 1.235 1_455 S
C120 O126 1.287 . S
C120 O127 1.255 . S
O121 Fe110 1.976 . S
O121 C128 1.287 . S
O122 Fe111 1.996 . S
O122 C128 1.255 . S
O123 Fe113 1.976 . S
O123 C118 1.287 . S
O124 Fe110 1.996 . S
O124 C118 1.255 . S
C125 O129 1.295 . S
C125 O130 1.235 . S
O126 Fe111 1.976 . S
O126 C120 1.287 . S
O127 Fe113 1.996 . S
O127 C120 1.255 . S
C128 O121 1.287 . S
C128 O122 1.255 . S
O129 Fe111 2.002 . S
O129 C125 1.295 . S
O130 Fe113 1.997 . S
O130 C125 1.235 . S
C131 O114 1.295 . S
C131 O115 1.235 . S
Fe132 O134 1.918 . S
Fe132 O137 1.997 . S
Fe132 O138 2.002 . S
Fe132 O143 1.976 . S
Fe132 O146 1.996 . S
Fe133 O134 1.918 . S
Fe133 O141 1.997 . S
Fe133 O144 1.996 . S
Fe133 O148 1.976 . S
Fe133 O151 2.002 . S
O134 Fe132 1.918 . S
O134 Fe133 1.918 . S
O134 Fe135 1.918 . S
Fe135 O134 1.918 . S
Fe135 O136 2.002 . S
Fe135 O145 1.976 . S
Fe135 O149 1.996 . S
Fe135 O152 1.997 . S
O136 Fe135 2.002 . S
O136 C153 1.295 . S
O137 Fe132 1.997 . S
O137 C153 1.235 . S
O138 Fe132 2.002 . S
O138 C139 1.295 1_565 S
C139 O138 1.295 1_545 S
C139 O141 1.235 1_545 S
C140 O145 1.287 . S
C140 O146 1.255 . S
O141 Fe133 1.997 . S
O141 C139 1.235 1_565 S
C142 O148 1.287 . S
C142 O149 1.255 . S
O143 Fe132 1.976 . S
O143 C150 1.287 . S
O144 Fe133 1.996 . S
O144 C150 1.255 . S
O145 Fe135 1.976 . S
O145 C140 1.287 . S
O146 Fe132 1.996 . S
O146 C140 1.255 . S
C147 O151 1.295 . S
C147 O152 1.235 . S
O148 Fe133 1.976 . S
O148 C142 1.287 . S
O149 Fe135 1.996 . S
O149 C142 1.255 . S
C150 O143 1.287 . S
C150 O144 1.255 . S
O151 Fe133 2.002 . S
O151 C147 1.295 . S
O152 Fe135 1.997 . S
O152 C147 1.235 . S
C153 O136 1.295 . S
C153 O137 1.235 . S
Fe154 O156 1.918 . S
Fe154 O159 1.997 . S
Fe154 O160 2.002 . S
Fe154 O165 1.976 . S
Fe154 O168 1.996 . S
Fe155 O156 1.918 . S
Fe155 O163 1.997 . S
Fe155 O166 1.996 . S
Fe155 O170 1.976 . S
Fe155 O173 2.002 . S
O156 Fe154 1.918 . S
O156 Fe155 1.918 . S
O156 Fe157 1.918 . S
Fe157 O156 1.918 . S
Fe157 O158 2.002 . S
Fe157 O167 1.976 . S
Fe157 O171 1.996 . S
Fe157 O174 1.997 . S
O158 Fe157 2.002 . S
O158 C175 1.295 . S
O159 Fe154 1.997 . S
O159 C175 1.235 . S
O160 Fe154 2.002 . S
O160 C161 1.295 1_655 S
C161 O160 1.295 1_455 S
C161 O163 1.235 1_455 S
C162 O167 1.287 . S
C162 O168 1.255 . S
O163 Fe155 1.997 . S
O163 C161 1.235 1_655 S
C164 O170 1.287 . S
C164 O171 1.255 . S
O165 Fe154 1.976 . S
O165 C172 1.287 . S
O166 Fe155 1.996 . S
O166 C172 1.255 . S
O167 Fe157 1.976 . S
O167 C162 1.287 . S
O168 Fe154 1.996 . S
O168 C162 1.255 . S
C169 O173 1.295 . S
C169 O174 1.235 . S
O170 Fe155 1.976 . S
O170 C164 1.287 . S
O171 Fe157 1.996 . S
O171 C164 1.255 . S
C172 O165 1.287 . S
C172 O166 1.255 . S
O173 Fe155 2.002 . S
O173 C169 1.295 . S
O174 Fe157 1.997 . S
O174 C169 1.235 . S
C175 O158 1.295 . S
C175 O159 1.235 . S
Fe176 O178 1.918 . S
Fe176 O181 1.997 . S
Fe176 O182 2.002 . S
Fe176 O187 1.976 . S
Fe176 O190 1.996 . S
Fe177 O178 1.918 . S
Fe177 O185 1.997 . S
Fe177 O188 1.996 . S
Fe177 O192 1.976 . S
Fe177 O195 2.002 . S
O178 Fe176 1.918 . S
O178 Fe177 1.918 . S
O178 Fe179 1.918 . S
Fe179 O178 1.918 . S
Fe179 O180 2.002 . S
Fe179 O189 1.976 . S
Fe179 O193 1.996 . S
Fe179 O196 1.997 . S
O180 Fe179 2.002 . S
O180 C197 1.295 . S
O181 Fe176 1.997 . S
O181 C197 1.235 . S
O182 Fe176 2.002 . S
O182 C183 1.295 . S
C183 O182 1.295 . S
C183 O185 1.235 . S
C184 O189 1.287 . S
C184 O190 1.255 . S
O185 Fe177 1.997 . S
O185 C183 1.235 . S
C186 O192 1.287 . S
C186 O193 1.255 . S
O187 Fe176 1.976 . S
O187 C194 1.287 . S
O188 Fe177 1.996 . S
O188 C194 1.255 . S
O189 Fe179 1.976 . S
O189 C184 1.287 . S
O190 Fe176 1.996 . S
O190 C184 1.255 . S
C191 O195 1.295 . S
C191 O196 1.235 . S
O192 Fe177 1.976 . S
O192 C186 1.287 . S
O193 Fe179 1.996 . S
O193 C186 1.255 . S
C194 O187 1.287 . S
C194 O188 1.255 . S
O195 Fe177 2.002 . S
O195 C191 1.295 . S
O196 Fe179 1.997 . S
O196 C191 1.235 . S
C197 O180 1.295 . S
C197 O181 1.235 . S
Fe198 O200 1.918 . S
Fe198 O203 1.997 . S
Fe198 O204 2.002 . S
Fe198 O209 1.976 . S
Fe198 O212 1.996 . S
Fe199 O200 1.918 . S
Fe199 O207 1.997 . S
Fe199 O210 1.996 . S
Fe199 O214 1.976 . S
Fe199 O217 2.002 . S
O200 Fe198 1.918 . S
O200 Fe199 1.918 . S
O200 Fe201 1.918 . S
Fe201 O200 1.918 . S
Fe201 O202 2.002 . S
Fe201 O211 1.976 . S
Fe201 O215 1.996 . S
Fe201 O218 1.997 . S
O202 Fe201 2.002 . S
O202 C219 1.295 . S
O203 Fe198 1.997 . S
O203 C219 1.235 . S
O204 Fe198 2.002 . S
O204 C205 1.295 . S
C205 O204 1.295 . S
C205 O207 1.235 . S
C206 O211 1.287 . S
C206 O212 1.255 . S
O207 Fe199 1.997 . S
O207 C205 1.235 . S
C208 O214 1.287 . S
C208 O215 1.255 . S
O209 Fe198 1.976 . S
O209 C216 1.287 . S
O210 Fe199 1.996 . S
O210 C216 1.255 . S
O211 Fe201 1.976 . S
O211 C206 1.287 . S
O212 Fe198 1.996 . S
O212 C206 1.255 . S
C213 O217 1.295 . S
C213 O218 1.235 . S
O214 Fe199 1.976 . S
O214 C208 1.287 . S
O215 Fe201 1.996 . S
O215 C208 1.255 . S
C216 O209 1.287 . S
C216 O210 1.255 . S
O217 Fe199 2.002 . S
O217 C213 1.295 . S
O218 Fe201 1.997 . S
O218 C213 1.235 . S
C219 O202 1.295 . S
C219 O203 1.235 . S
Fe220 O222 1.918 . S
Fe220 O225 1.997 . S
Fe220 O226 2.002 . S
Fe220 O231 1.976 . S
Fe220 O234 1.996 . S
Fe221 O222 1.918 . S
Fe221 O229 1.997 . S
Fe221 O232 1.996 . S
Fe221 O236 1.976 . S
Fe221 O239 2.002 . S
O222 Fe220 1.918 . S
O222 Fe221 1.918 . S
O222 Fe223 1.918 . S
Fe223 O222 1.918 . S
Fe223 O224 2.002 . S
Fe223 O233 1.976 . S
Fe223 O237 1.996 . S
Fe223 O240 1.997 . S
O224 Fe223 2.002 . S
O224 C241 1.295 . S
O225 Fe220 1.997 . S
O225 C241 1.235 . S
O226 Fe220 2.002 . S
O226 C227 1.295 . S
C227 O226 1.295 . S
C227 O229 1.235 . S
C228 O233 1.287 . S
C228 O234 1.255 . S
O229 Fe221 1.997 . S
O229 C227 1.235 . S
C230 O236 1.287 . S
C230 O237 1.255 . S
O231 Fe220 1.976 . S
O231 C238 1.287 . S
O232 Fe221 1.996 . S
O232 C238 1.255 . S
O233 Fe223 1.976 . S
O233 C228 1.287 . S
O234 Fe220 1.996 . S
O234 C228 1.255 . S
C235 O239 1.295 . S
C235 O240 1.235 . S
O236 Fe221 1.976 . S
O236 C230 1.287 . S
O237 Fe223 1.996 . S
O237 C230 1.255 . S
C238 O231 1.287 . S
C238 O232 1.255 . S
O239 Fe221 2.002 . S
O239 C235 1.295 . S
O240 Fe223 1.997 . S
O240 C235 1.235 . S
C241 O224 1.295 . S
C241 O225 1.235 . S
Fe242 O244 1.918 . S
Fe242 O247 1.997 . S
Fe242 O248 2.002 . S
Fe242 O253 1.976 . S
Fe242 O256 1.996 . S
Fe243 O244 1.918 . S
Fe243 O251 1.997 . S
Fe243 O254 1.996 . S
Fe243 O258 1.976 . S
Fe243 O261 2.002 . S
O244 Fe242 1.918 . S
O244 Fe243 1.918 . S
O244 Fe245 1.918 . S
Fe245 O244 1.918 . S
Fe245 O246 2.002 . S
Fe245 O255 1.976 . S
Fe245 O259 1.996 . S
Fe245 O262 1.997 . S
O246 Fe245 2.002 . S
O246 C263 1.295 . S
O247 Fe242 1.997 . S
O247 C263 1.235 . S
O248 Fe242 2.002 . S
O248 C249 1.295 . S
C249 O248 1.295 . S
C249 O251 1.235 . S
C250 O255 1.287 . S
C250 O256 1.255 . S
O251 Fe243 1.997 . S
O251 C249 1.235 . S
C252 O258 1.287 . S
C252 O259 1.255 . S
O253 Fe242 1.976 . S
O253 C260 1.287 . S
O254 Fe243 1.996 . S
O254 C260 1.255 . S
O255 Fe245 1.976 . S
O255 C250 1.287 . S
O256 Fe242 1.996 . S
O256 C250 1.255 . S
C257 O261 1.295 . S
C257 O262 1.235 . S
O258 Fe243 1.976 . S
O258 C252 1.287 . S
O259 Fe245 1.996 . S
O259 C252 1.255 . S
C260 O253 1.287 . S
C260 O254 1.255 . S
O261 Fe243 2.002 . S
O261 C257 1.295 . S
O262 Fe245 1.997 . S
O262 C257 1.235 . S
C263 O246 1.295 . S
C263 O247 1.235 . S
Fe264 O266 1.918 . S
Fe264 O269 1.997 . S
Fe264 O270 2.002 . S
Fe264 O275 1.976 . S
Fe264 O278 1.996 . S
Fe265 O266 1.918 . S
Fe265 O273 1.997 . S
Fe265 O276 1.996 . S
Fe265 O280 1.976 . S
Fe265 O283 2.002 1_554 S
O266 Fe264 1.918 . S
O266 Fe265 1.918 . S
O266 Fe267 1.918 . S
Fe267 O266 1.918 . S
Fe267 O268 2.002 . S
Fe267 O277 1.976 . S
Fe267 O281 1.996 . S
Fe267 O284 1.997 1_554 S
O268 Fe267 2.002 . S
O268 C285 1.295 . S
O269 Fe264 1.997 . S
O269 C285 1.235 . S
O270 Fe264 2.002 . S
O270 C271 1.295 . S
C271 O270 1.295 . S
C271 O273 1.235 . S
C272 O277 1.287 . S
C272 O278 1.255 . S
O273 Fe265 1.997 . S
O273 C271 1.235 . S
C274 O280 1.287 . S
C274 O281 1.255 . S
O275 Fe264 1.976 . S
O275 C282 1.287 . S
O276 Fe265 1.996 . S
O276 C282 1.255 . S
O277 Fe267 1.976 . S
O277 C272 1.287 . S
O278 Fe264 1.996 . S
O278 C272 1.255 . S
C279 O283 1.295 . S
C279 O284 1.235 . S
O280 Fe265 1.976 . S
O280 C274 1.287 . S
O281 Fe267 1.996 . S
O281 C274 1.255 . S
C282 O275 1.287 . S
C282 O276 1.255 . S
O283 Fe265 2.002 1_556 S
O283 C279 1.295 . S
O284 Fe267 1.997 1_556 S
O284 C279 1.235 . S
C285 O268 1.295 . S
C285 O269 1.235 . S
Fe286 O288 1.918 . S
Fe286 O291 1.997 . S
Fe286 O292 2.002 . S
Fe286 O297 1.976 . S
Fe286 O300 1.996 . S
Fe287 O288 1.918 . S
Fe287 O295 1.997 . S
Fe287 O298 1.996 . S
Fe287 O302 1.976 . S
Fe287 O305 2.002 1_556 S
O288 Fe286 1.918 . S
O288 Fe287 1.918 . S
O288 Fe289 1.918 . S
Fe289 O288 1.918 . S
Fe289 O290 2.002 . S
Fe289 O299 1.976 . S
Fe289 O303 1.996 . S
Fe289 O306 1.997 1_556 S
O290 Fe289 2.002 . S
O290 C307 1.295 . S
O291 Fe286 1.997 . S
O291 C307 1.235 . S
O292 Fe286 2.002 . S
O292 C293 1.295 . S
C293 O292 1.295 . S
C293 O295 1.235 . S
C294 O299 1.287 . S
C294 O300 1.255 . S
O295 Fe287 1.997 . S
O295 C293 1.235 . S
C296 O302 1.287 . S
C296 O303 1.255 . S
O297 Fe286 1.976 . S
O297 C304 1.287 . S
O298 Fe287 1.996 . S
O298 C304 1.255 . S
O299 Fe289 1.976 . S
O299 C294 1.287 . S
O300 Fe286 1.996 . S
O300 C294 1.255 . S
C301 O305 1.295 . S
C301 O306 1.235 . S
O302 Fe287 1.976 . S
O302 C296 1.287 . S
O303 Fe289 1.996 . S
O303 C296 1.255 . S
C304 O297 1.287 . S
C304 O298 1.255 . S
O305 Fe287 2.002 1_554 S
O305 C301 1.295 . S
O306 Fe289 1.997 1_554 S
O306 C301 1.235 . S
C307 O290 1.295 . S
C307 O291 1.235 . S
Fe308 O310 1.918 . S
Fe308 O313 1.997 . S
Fe308 O314 2.002 . S
Fe308 O319 1.976 . S
Fe308 O322 1.996 . S
Fe309 O310 1.918 . S
Fe309 O317 1.997 . S
Fe309 O320 1.996 . S
Fe309 O324 1.976 . S
Fe309 O327 2.002 1_554 S
O310 Fe308 1.918 . S
O310 Fe309 1.918 . S
O310 Fe311 1.918 . S
Fe311 O310 1.918 . S
Fe311 O312 2.002 . S
Fe311 O321 1.976 . S
Fe311 O325 1.996 . S
Fe311 O328 1.997 1_554 S
O312 Fe311 2.002 . S
O312 C329 1.295 . S
O313 Fe308 1.997 . S
O313 C329 1.235 . S
O314 Fe308 2.002 . S
O314 C315 1.295 . S
C315 O314 1.295 . S
C315 O317 1.235 . S
C316 O321 1.287 . S
C316 O322 1.255 . S
O317 Fe309 1.997 . S
O317 C315 1.235 . S
C318 O324 1.287 . S
C318 O325 1.255 . S
O319 Fe308 1.976 . S
O319 C326 1.287 . S
O320 Fe309 1.996 . S
O320 C326 1.255 . S
O321 Fe311 1.976 . S
O321 C316 1.287 . S
O322 Fe308 1.996 . S
O322 C316 1.255 . S
C323 O327 1.295 . S
C323 O328 1.235 . S
O324 Fe309 1.976 . S
O324 C318 1.287 . S
O325 Fe311 1.996 . S
O325 C318 1.255 . S
C326 O319 1.287 . S
C326 O320 1.255 . S
O327 Fe309 2.002 1_556 S
O327 C323 1.295 . S
O328 Fe311 1.997 1_556 S
O328 C323 1.235 . S
C329 O312 1.295 . S
C329 O313 1.235 . S
Fe330 O332 1.918 . S
Fe330 O335 1.997 . S
Fe330 O336 2.002 1_556 S
Fe330 O341 1.976 . S
Fe330 O344 1.996 . S
Fe331 O332 1.918 . S
Fe331 O339 1.997 1_556 S
Fe331 O342 1.996 . S
Fe331 O346 1.976 . S
Fe331 O349 2.002 . S
O332 Fe330 1.918 . S
O332 Fe331 1.918 . S
O332 Fe333 1.918 . S
Fe333 O332 1.918 . S
Fe333 O334 2.002 . S
Fe333 O343 1.976 . S
Fe333 O347 1.996 . S
Fe333 O350 1.997 . S
O334 Fe333 2.002 . S
O334 C351 1.295 . S
O335 Fe330 1.997 . S
O335 C351 1.235 . S
O336 Fe330 2.002 1_554 S
O336 C337 1.295 . S
C337 O336 1.295 . S
C337 O339 1.235 . S
C338 O343 1.287 . S
C338 O344 1.255 . S
O339 Fe331 1.997 1_554 S
O339 C337 1.235 . S
C340 O346 1.287 . S
C340 O347 1.255 . S
O341 Fe330 1.976 . S
O341 C348 1.287 . S
O342 Fe331 1.996 . S
O342 C348 1.255 . S
O343 Fe333 1.976 . S
O343 C338 1.287 . S
O344 Fe330 1.996 . S
O344 C338 1.255 . S
C345 O349 1.295 . S
C345 O350 1.235 . S
O346 Fe331 1.976 . S
O346 C340 1.287 . S
O347 Fe333 1.996 . S
O347 C340 1.255 . S
C348 O341 1.287 . S
C348 O342 1.255 . S
O349 Fe331 2.002 . S
O349 C345 1.295 . S
O350 Fe333 1.997 . S
O350 C345 1.235 . S
C351 O334 1.295 . S
C351 O335 1.235 . S
H352 C358 0.930 . S
H353 C362 0.930 . S
H354 C367 0.929 . S
H355 C365 0.929 . S
H356 C360 0.929 . S
H357 C366 0.929 . S
C358 H352 0.930 . S
C358 C359 1.367 . S
C358 C366 1.378 . S
C359 C358 1.367 . S
C359 C367 1.433 . S
C360 H356 0.929 . S
C360 C362 1.378 . S
C360 C364 1.350 . S
C361 C364 1.463 . S
C361 C366 1.350 . S
C361 N369 1.427 . S
C362 H353 0.930 . S
C362 C360 1.378 . S
C362 C363 1.367 . S
C363 C362 1.367 . S
C363 C365 1.433 . S
C364 C360 1.350 . S
C364 C361 1.463 . S
C364 N368 1.427 . S
C365 H355 0.929 . S
C365 C363 1.433 . S
C365 N368 1.384 . S
C366 H357 0.929 . S
C366 C358 1.378 . S
C366 C361 1.350 . S
C367 H354 0.929 . S
C367 C359 1.433 . S
C367 N369 1.384 . S
N368 C364 1.427 . S
N368 C365 1.384 . S
N369 C361 1.427 . S
N369 C367 1.384 . S
H370 C376 0.930 . S
H371 C380 0.930 . S
H372 C385 0.929 . S
H373 C383 0.929 . S
H374 C378 0.929 . S
H375 C384 0.929 . S
C376 H370 0.930 . S
C376 C377 1.367 . S
C376 C384 1.378 . S
C377 C376 1.367 . S
C377 C385 1.433 . S
C378 H374 0.929 . S
C378 C380 1.378 . S
C378 C382 1.350 . S
C379 C382 1.463 . S
C379 C384 1.350 . S
C379 N387 1.427 . S
C380 H371 0.930 . S
C380 C378 1.378 . S
C380 C381 1.367 . S
C381 C380 1.367 . S
C381 C383 1.433 . S
C382 C378 1.350 . S
C382 C379 1.463 . S
C382 N386 1.427 . S
C383 H373 0.929 . S
C383 C381 1.433 . S
C383 N386 1.384 . S
C384 H375 0.929 . S
C384 C376 1.378 . S
C384 C379 1.350 . S
C385 H372 0.929 . S
C385 C377 1.433 . S
C385 N387 1.384 . S
N386 C382 1.427 . S
N386 C383 1.384 . S
N387 C379 1.427 . S
N387 C385 1.384 . S
H388 C394 0.930 . S
H389 C398 0.930 . S
H390 C403 0.929 . S
H391 C401 0.929 . S
H392 C396 0.929 . S
H393 C402 0.929 . S
C394 H388 0.930 . S
C394 C395 1.367 . S
C394 C402 1.378 . S
C395 C394 1.367 . S
C395 C403 1.433 . S
C396 H392 0.929 . S
C396 C398 1.378 . S
C396 C400 1.350 . S
C397 C400 1.463 . S
C397 C402 1.350 . S
C397 N405 1.427 . S
C398 H389 0.930 . S
C398 C396 1.378 . S
C398 C399 1.367 . S
C399 C398 1.367 . S
C399 C401 1.433 . S
C400 C396 1.350 . S
C400 C397 1.463 . S
C400 N404 1.427 . S
C401 H391 0.929 . S
C401 C399 1.433 . S
C401 N404 1.384 . S
C402 H393 0.929 . S
C402 C394 1.378 . S
C402 C397 1.350 . S
C403 H390 0.929 . S
C403 C395 1.433 . S
C403 N405 1.384 . S
N404 C400 1.427 . S
N404 C401 1.384 . S
N405 C397 1.427 . S
N405 C403 1.384 . S
H406 C412 0.930 . S
H407 C416 0.930 . S
H408 C421 0.929 . S
H409 C419 0.929 . S
H410 C414 0.929 . S
H411 C420 0.929 . S
C412 H406 0.930 . S
C412 C413 1.367 . S
C412 C420 1.378 . S
C413 C412 1.367 . S
C413 C421 1.433 . S
C414 H410 0.929 . S
C414 C416 1.378 . S
C414 C418 1.350 . S
C415 C418 1.463 . S
C415 C420 1.350 . S
C415 N423 1.427 . S
C416 H407 0.930 . S
C416 C414 1.378 . S
C416 C417 1.367 . S
C417 C416 1.367 . S
C417 C419 1.433 . S
C418 C414 1.350 . S
C418 C415 1.463 . S
C418 N422 1.427 . S
C419 H409 0.929 . S
C419 C417 1.433 . S
C419 N422 1.384 . S
C420 H411 0.929 . S
C420 C412 1.378 . S
C420 C415 1.350 . S
C421 H408 0.929 . S
C421 C413 1.433 . S
C421 N423 1.384 . S
N422 C418 1.427 . S
N422 C419 1.384 . S
N423 C415 1.427 . S
N423 C421 1.384 . S
H424 C430 0.930 . S
H425 C434 0.930 . S
H426 C439 0.929 . S
H427 C437 0.929 . S
H428 C432 0.929 . S
H429 C438 0.929 . S
C430 H424 0.930 . S
C430 C431 1.367 . S
C430 C438 1.378 . S
C431 C430 1.367 . S
C431 C439 1.433 . S
C432 H428 0.929 . S
C432 C434 1.378 . S
C432 C436 1.350 . S
C433 C436 1.463 . S
C433 C438 1.350 . S
C433 N441 1.427 . S
C434 H425 0.930 . S
C434 C432 1.378 . S
C434 C435 1.367 . S
C435 C434 1.367 . S
C435 C437 1.433 . S
C436 C432 1.350 . S
C436 C433 1.463 . S
C436 N440 1.427 . S
C437 H427 0.929 . S
C437 C435 1.433 . S
C437 N440 1.384 . S
C438 H429 0.929 . S
C438 C430 1.378 . S
C438 C433 1.350 . S
C439 H426 0.929 . S
C439 C431 1.433 . S
C439 N441 1.384 . S
N440 C436 1.427 . S
N440 C437 1.384 . S
N441 C433 1.427 . S
N441 C439 1.384 . S
H442 C448 0.930 . S
H443 C452 0.930 . S
H444 C457 0.929 . S
H445 C455 0.929 . S
H446 C450 0.929 . S
H447 C456 0.929 . S
C448 H442 0.930 . S
C448 C449 1.367 . S
C448 C456 1.378 . S
C449 C448 1.367 . S
C449 C457 1.433 . S
C450 H446 0.929 . S
C450 C452 1.378 . S
C450 C454 1.350 . S
C451 C454 1.463 . S
C451 C456 1.350 . S
C451 N459 1.427 . S
C452 H443 0.930 . S
C452 C450 1.378 . S
C452 C453 1.367 . S
C453 C452 1.367 . S
C453 C455 1.433 . S
C454 C450 1.350 . S
C454 C451 1.463 . S
C454 N458 1.427 . S
C455 H445 0.929 . S
C455 C453 1.433 . S
C455 N458 1.384 . S
C456 H447 0.929 . S
C456 C448 1.378 . S
C456 C451 1.350 . S
C457 H444 0.929 . S
C457 C449 1.433 . S
C457 N459 1.384 . S
N458 C454 1.427 . S
N458 C455 1.384 . S
N459 C451 1.427 . S
N459 C457 1.384 . S
H460 C466 0.930 . S
H461 C470 0.930 . S
H462 C475 0.929 . S
H463 C473 0.929 . S
H464 C468 0.929 . S
H465 C474 0.929 . S
C466 H460 0.930 . S
C466 C467 1.367 . S
C466 C474 1.378 . S
C467 C466 1.367 . S
C467 C475 1.433 . S
C468 H464 0.929 . S
C468 C470 1.378 . S
C468 C472 1.350 . S
C469 C472 1.463 . S
C469 C474 1.350 . S
C469 N477 1.427 . S
C470 H461 0.930 . S
C470 C468 1.378 . S
C470 C471 1.367 . S
C471 C470 1.367 . S
C471 C473 1.433 . S
C472 C468 1.350 . S
C472 C469 1.463 . S
C472 N476 1.427 . S
C473 H463 0.929 . S
C473 C471 1.433 . S
C473 N476 1.384 . S
C474 H465 0.929 . S
C474 C466 1.378 . S
C474 C469 1.350 . S
C475 H462 0.929 . S
C475 C467 1.433 . S
C475 N477 1.384 . S
N476 C472 1.427 . S
N476 C473 1.384 . S
N477 C469 1.427 . S
N477 C475 1.384 . S
H478 C484 0.930 . S
H479 C488 0.930 . S
H480 C493 0.929 . S
H481 C491 0.929 . S
H482 C486 0.929 . S
H483 C492 0.929 . S
C484 H478 0.930 . S
C484 C485 1.367 . S
C484 C492 1.378 . S
C485 C484 1.367 . S
C485 C493 1.433 . S
C486 H482 0.929 . S
C486 C488 1.378 . S
C486 C490 1.350 . S
C487 C490 1.463 . S
C487 C492 1.350 . S
C487 N495 1.427 . S
C488 H479 0.930 . S
C488 C486 1.378 . S
C488 C489 1.367 . S
C489 C488 1.367 . S
C489 C491 1.433 . S
C490 C486 1.350 . S
C490 C487 1.463 . S
C490 N494 1.427 . S
C491 H481 0.929 . S
C491 C489 1.433 . S
C491 N494 1.384 . S
C492 H483 0.929 . S
C492 C484 1.378 . S
C492 C487 1.350 . S
C493 H480 0.929 . S
C493 C485 1.433 . S
C493 N495 1.384 . S
N494 C490 1.427 . S
N494 C491 1.384 . S
N495 C487 1.427 . S
N495 C493 1.384 . S
H496 C502 0.930 . S
H497 C506 0.930 . S
H498 C511 0.929 . S
H499 C509 0.929 . S
H500 C504 0.929 . S
H501 C510 0.929 . S
C502 H496 0.930 . S
C502 C503 1.367 . S
C502 C510 1.378 . S
C503 C502 1.367 . S
C503 C511 1.433 1_554 S
C504 H500 0.929 . S
C504 C506 1.378 . S
C504 C508 1.350 1_556 S
C505 C508 1.463 . S
C505 C510 1.350 . S
C505 N513 1.427 1_554 S
C506 H497 0.930 . S
C506 C504 1.378 . S
C506 C507 1.367 . S
C507 C506 1.367 . S
C507 C509 1.433 1_556 S
C508 C504 1.350 1_554 S
C508 C505 1.463 . S
C508 N512 1.427 . S
C509 H499 0.929 . S
C509 C507 1.433 1_554 S
C509 N512 1.384 . S
C510 H501 0.929 . S
C510 C502 1.378 . S
C510 C505 1.350 . S
C511 H498 0.929 . S
C511 C503 1.433 1_556 S
C511 N513 1.384 . S
N512 C508 1.427 . S
N512 C509 1.384 . S
N513 C505 1.427 1_556 S
N513 C511 1.384 . S
H514 C520 0.930 . S
H515 C524 0.930 . S
H516 C529 0.929 . S
H517 C527 0.929 . S
H518 C522 0.929 . S
H519 C528 0.929 . S
C520 H514 0.930 . S
C520 C521 1.367 . S
C520 C528 1.378 . S
C521 C520 1.367 . S
C521 C529 1.433 1_554 S
C522 H518 0.929 . S
C522 C524 1.378 . S
C522 C526 1.350 . S
C523 C526 1.463 . S
C523 C528 1.350 1_556 S
C523 N531 1.427 . S
C524 H515 0.930 . S
C524 C522 1.378 . S
C524 C525 1.367 . S
C525 C524 1.367 . S
C525 C527 1.433 1_556 S
C526 C522 1.350 . S
C526 C523 1.463 . S
C526 N530 1.427 1_556 S
C527 H517 0.929 . S
C527 C525 1.433 1_554 S
C527 N530 1.384 . S
C528 H519 0.929 . S
C528 C520 1.378 . S
C528 C523 1.350 1_554 S
C529 H516 0.929 . S
C529 C521 1.433 1_556 S
C529 N531 1.384 . S
N530 C526 1.427 1_554 S
N530 C527 1.384 . S
N531 C523 1.427 . S
N531 C529 1.384 . S
H532 C538 0.930 . S
H533 C542 0.930 . S
H534 C547 0.929 . S
H535 C545 0.929 . S
H536 C540 0.929 . S
H537 C546 0.929 . S
C538 H532 0.930 . S
C538 C539 1.367 . S
C538 C546 1.378 . S
C539 C538 1.367 . S
C539 C547 1.433 1_556 S
C540 H536 0.929 . S
C540 C542 1.378 . S
C540 C544 1.350 . S
C541 C544 1.463 . S
C541 C546 1.350 1_554 S
C541 N549 1.427 . S
C542 H533 0.930 . S
C542 C540 1.378 . S
C542 C543 1.367 . S
C543 C542 1.367 . S
C543 C545 1.433 1_554 S
C544 C540 1.350 . S
C544 C541 1.463 . S
C544 N548 1.427 1_554 S
C545 H535 0.929 . S
C545 C543 1.433 1_556 S
C545 N548 1.384 . S
C546 H537 0.929 . S
C546 C538 1.378 . S
C546 C541 1.350 1_556 S
C547 H534 0.929 . S
C547 C539 1.433 1_554 S
C547 N549 1.384 . S
N548 C544 1.427 1_556 S
N548 C545 1.384 . S
N549 C541 1.427 . S
N549 C547 1.384 . S
H550 C556 0.930 . S
H551 C560 0.930 . S
H552 C565 0.929 . S
H553 C563 0.929 . S
H554 C558 0.929 . S
H555 C564 0.929 . S
C556 H550 0.930 . S
C556 C557 1.367 1_554 S
C556 C564 1.378 . S
C557 C556 1.367 1_556 S
C557 C565 1.433 . S
C558 H554 0.929 . S
C558 C560 1.378 . S
C558 C562 1.350 . S
C559 C562 1.463 . S
C559 C564 1.350 1_556 S
C559 N567 1.427 . S
C560 H551 0.930 . S
C560 C558 1.378 . S
C560 C561 1.367 1_556 S
C561 C560 1.367 1_554 S
C561 C563 1.433 . S
C562 C558 1.350 . S
C562 C559 1.463 . S
C562 N566 1.427 1_556 S
C563 H553 0.929 . S
C563 C561 1.433 . S
C563 N566 1.384 . S
C564 H555 0.929 . S
C564 C556 1.378 . S
C564 C559 1.350 1_554 S
C565 H552 0.929 . S
C565 C557 1.433 . S
C565 N567 1.384 . S
N566 C562 1.427 1_554 S
N566 C563 1.384 . S
N567 C559 1.427 . S
N567 C565 1.384 . S
H568 C574 0.930 . S
H569 C578 0.930 . S
H570 C583 0.929 . S
H571 C581 0.929 . S
H572 C576 0.929 . S
H573 C582 0.929 . S
C574 H568 0.930 . S
C574 C575 1.367 . S
C574 C582 1.378 . S
C575 C574 1.367 . S
C575 C583 1.433 . S
C576 H572 0.929 . S
C576 C578 1.378 . S
C576 C580 1.350 . S
C577 C580 1.463 . S
C577 C582 1.350 . S
C577 N585 1.427 . S
C578 H569 0.930 . S
C578 C576 1.378 . S
C578 C579 1.367 . S
C579 C578 1.367 . S
C579 C581 1.433 . S
C580 C576 1.350 . S
C580 C577 1.463 . S
C580 N584 1.427 . S
C581 H571 0.929 . S
C581 C579 1.433 . S
C581 N584 1.384 . S
C582 H573 0.929 . S
C582 C574 1.378 . S
C582 C577 1.350 . S
C583 H570 0.929 . S
C583 C575 1.433 . S
C583 N585 1.384 . S
N584 C580 1.427 . S
N584 C581 1.384 . S
N585 C577 1.427 . S
N585 C583 1.384 . S
H586 C592 0.930 . S
H587 C596 0.930 . S
H588 C601 0.929 . S
H589 C599 0.929 . S
H590 C594 0.929 . S
H591 C600 0.929 . S
C592 H586 0.930 . S
C592 C593 1.367 . S
C592 C600 1.378 . S
C593 C592 1.367 . S
C593 C601 1.433 . S
C594 H590 0.929 . S
C594 C596 1.378 . S
C594 C598 1.350 . S
C595 C598 1.463 . S
C595 C600 1.350 . S
C595 N603 1.427 . S
C596 H587 0.930 . S
C596 C594 1.378 . S
C596 C597 1.367 . S
C597 C596 1.367 . S
C597 C599 1.433 . S
C598 C594 1.350 . S
C598 C595 1.463 . S
C598 N602 1.427 . S
C599 H589 0.929 . S
C599 C597 1.433 . S
C599 N602 1.384 . S
C600 H591 0.929 . S
C600 C592 1.378 . S
C600 C595 1.350 . S
C601 H588 0.929 . S
C601 C593 1.433 . S
C601 N603 1.384 . S
N602 C598 1.427 . S
N602 C599 1.384 . S
N603 C595 1.427 . S
N603 C601 1.384 . S
H604 C610 0.930 . S
H605 C614 0.930 . S
H606 C619 0.929 . S
H607 C617 0.929 . S
H608 C612 0.929 . S
H609 C618 0.929 . S
C610 H604 0.930 . S
C610 C611 1.367 . S
C610 C618 1.378 . S
C611 C610 1.367 . S
C611 C619 1.433 . S
C612 H608 0.929 . S
C612 C614 1.378 . S
C612 C616 1.350 . S
C613 C616 1.463 . S
C613 C618 1.350 . S
C613 N621 1.427 . S
C614 H605 0.930 . S
C614 C612 1.378 . S
C614 C615 1.367 . S
C615 C614 1.367 . S
C615 C617 1.433 . S
C616 C612 1.350 . S
C616 C613 1.463 . S
C616 N620 1.427 . S
C617 H607 0.929 . S
C617 C615 1.433 . S
C617 N620 1.384 . S
C618 H609 0.929 . S
C618 C610 1.378 . S
C618 C613 1.350 . S
C619 H606 0.929 . S
C619 C611 1.433 . S
C619 N621 1.384 . S
N620 C616 1.427 . S
N620 C617 1.384 . S
N621 C613 1.427 . S
N621 C619 1.384 . S
H622 C628 0.930 . S
H623 C632 0.930 . S
H624 C637 0.929 . S
H625 C635 0.929 . S
H626 C630 0.929 . S
H627 C636 0.929 . S
C628 H622 0.930 . S
C628 C629 1.367 . S
C628 C636 1.378 . S
C629 C628 1.367 . S
C629 C637 1.433 . S
C630 H626 0.929 . S
C630 C632 1.378 . S
C630 C634 1.350 . S
C631 C634 1.463 . S
C631 C636 1.350 . S
C631 N639 1.427 . S
C632 H623 0.930 . S
C632 C630 1.378 . S
C632 C633 1.367 . S
C633 C632 1.367 . S
C633 C635 1.433 . S
C634 C630 1.350 . S
C634 C631 1.463 . S
C634 N638 1.427 . S
C635 H625 0.929 . S
C635 C633 1.433 . S
C635 N638 1.384 . S
C636 H627 0.929 . S
C636 C628 1.378 . S
C636 C631 1.350 . S
C637 H624 0.929 . S
C637 C629 1.433 . S
C637 N639 1.384 . S
N638 C634 1.427 . S
N638 C635 1.384 . S
N639 C631 1.427 . S
N639 C637 1.384 . S
H640 C646 0.930 . S
H641 C650 0.930 . S
H642 C655 0.929 . S
H643 C653 0.929 . S
H644 C648 0.929 . S
H645 C654 0.929 . S
C646 H640 0.930 . S
C646 C647 1.367 . S
C646 C654 1.378 . S
C647 C646 1.367 . S
C647 C655 1.433 . S
C648 H644 0.929 . S
C648 C650 1.378 . S
C648 C652 1.350 . S
C649 C652 1.463 . S
C649 C654 1.350 . S
C649 N657 1.427 . S
C650 H641 0.930 . S
C650 C648 1.378 . S
C650 C651 1.367 . S
C651 C650 1.367 . S
C651 C653 1.433 . S
C652 C648 1.350 . S
C652 C649 1.463 . S
C652 N656 1.427 . S
C653 H643 0.929 . S
C653 C651 1.433 . S
C653 N656 1.384 . S
C654 H645 0.929 . S
C654 C646 1.378 . S
C654 C649 1.350 . S
C655 H642 0.929 . S
C655 C647 1.433 . S
C655 N657 1.384 . S
N656 C652 1.427 . S
N656 C653 1.384 . S
N657 C649 1.427 . S
N657 C655 1.384 . S
H658 C664 0.930 . S
H659 C668 0.930 . S
H660 C673 0.929 . S
H661 C671 0.929 . S
H662 C666 0.929 . S
H663 C672 0.929 . S
C664 H658 0.930 . S
C664 C665 1.367 . S
C664 C672 1.378 . S
C665 C664 1.367 . S
C665 C673 1.433 . S
C666 H662 0.929 . S
C666 C668 1.378 . S
C666 C670 1.350 . S
C667 C670 1.463 . S
C667 C672 1.350 . S
C667 N675 1.427 . S
C668 H659 0.930 . S
C668 C666 1.378 . S
C668 C669 1.367 . S
C669 C668 1.367 . S
C669 C671 1.433 . S
C670 C666 1.350 . S
C670 C667 1.463 . S
C670 N674 1.427 . S
C671 H661 0.929 . S
C671 C669 1.433 . S
C671 N674 1.384 . S
C672 H663 0.929 . S
C672 C664 1.378 . S
C672 C667 1.350 . S
C673 H660 0.929 . S
C673 C665 1.433 . S
C673 N675 1.384 . S
N674 C670 1.427 . S
N674 C671 1.384 . S
N675 C667 1.427 . S
N675 C673 1.384 . S
H676 C682 0.930 . S
H677 C686 0.930 . S
H678 C691 0.929 . S
H679 C689 0.929 . S
H680 C684 0.929 . S
H681 C690 0.929 . S
C682 H676 0.930 . S
C682 C683 1.367 . S
C682 C690 1.378 . S
C683 C682 1.367 . S
C683 C691 1.433 . S
C684 H680 0.929 . S
C684 C686 1.378 . S
C684 C688 1.350 . S
C685 C688 1.463 . S
C685 C690 1.350 . S
C685 N693 1.427 . S
C686 H677 0.930 . S
C686 C684 1.378 . S
C686 C687 1.367 . S
C687 C686 1.367 . S
C687 C689 1.433 . S
C688 C684 1.350 . S
C688 C685 1.463 . S
C688 N692 1.427 . S
C689 H679 0.929 . S
C689 C687 1.433 . S
C689 N692 1.384 . S
C690 H681 0.929 . S
C690 C682 1.378 . S
C690 C685 1.350 . S
C691 H678 0.929 . S
C691 C683 1.433 . S
C691 N693 1.384 . S
N692 C688 1.427 . S
N692 C689 1.384 . S
N693 C685 1.427 . S
N693 C691 1.384 . S
H694 C700 0.930 . S
H695 C704 0.930 . S
H696 C709 0.929 . S
H697 C707 0.929 . S
H698 C702 0.929 . S
H699 C708 0.929 . S
C700 H694 0.930 . S
C700 C701 1.367 . S
C700 C708 1.378 . S
C701 C700 1.367 . S
C701 C709 1.433 . S
C702 H698 0.929 . S
C702 C704 1.378 . S
C702 C706 1.350 . S
C703 C706 1.463 . S
C703 C708 1.350 . S
C703 N711 1.427 . S
C704 H695 0.930 . S
C704 C702 1.378 . S
C704 C705 1.367 . S
C705 C704 1.367 . S
C705 C707 1.433 . S
C706 C702 1.350 . S
C706 C703 1.463 . S
C706 N710 1.427 . S
C707 H697 0.929 . S
C707 C705 1.433 . S
C707 N710 1.384 . S
C708 H699 0.929 . S
C708 C700 1.378 . S
C708 C703 1.350 . S
C709 H696 0.929 . S
C709 C701 1.433 . S
C709 N711 1.384 . S
N710 C706 1.427 . S
N710 C707 1.384 . S
N711 C703 1.427 . S
N711 C709 1.384 . S
H712 C718 0.930 . S
H713 C722 0.930 . S
H714 C727 0.929 . S
H715 C725 0.929 . S
H716 C720 0.929 . S
H717 C726 0.929 . S
C718 H712 0.930 . S
C718 C719 1.367 . S
C718 C726 1.378 . S
C719 C718 1.367 . S
C719 C727 1.433 1_556 S
C720 H716 0.929 . S
C720 C722 1.378 . S
C720 C724 1.350 . S
C721 C724 1.463 . S
C721 C726 1.350 1_554 S
C721 N729 1.427 . S
C722 H713 0.930 . S
C722 C720 1.378 . S
C722 C723 1.367 . S
C723 C722 1.367 . S
C723 C725 1.433 1_554 S
C724 C720 1.350 . S
C724 C721 1.463 . S
C724 N728 1.427 1_554 S
C725 H715 0.929 . S
C725 C723 1.433 1_556 S
C725 N728 1.384 . S
C726 H717 0.929 . S
C726 C718 1.378 . S
C726 C721 1.350 1_556 S
C727 H714 0.929 . S
C727 C719 1.433 1_554 S
C727 N729 1.384 . S
N728 C724 1.427 1_556 S
N728 C725 1.384 . S
N729 C721 1.427 . S
N729 C727 1.384 . S
H730 C736 0.930 . S
H731 C740 0.930 . S
H732 C745 0.929 . S
H733 C743 0.929 . S
H734 C738 0.929 . S
H735 C744 0.929 . S
C736 H730 0.930 . S
C736 C737 1.367 . S
C736 C744 1.378 . S
C737 C736 1.367 . S
C737 C745 1.433 1_554 S
C738 H734 0.929 . S
C738 C740 1.378 . S
C738 C742 1.350 . S
C739 C742 1.463 . S
C739 C744 1.350 1_556 S
C739 N747 1.427 . S
C740 H731 0.930 . S
C740 C738 1.378 . S
C740 C741 1.367 . S
C741 C740 1.367 . S
C741 C743 1.433 1_556 S
C742 C738 1.350 . S
C742 C739 1.463 . S
C742 N746 1.427 1_556 S
C743 H733 0.929 . S
C743 C741 1.433 1_554 S
C743 N746 1.384 . S
C744 H735 0.929 . S
C744 C736 1.378 . S
C744 C739 1.350 1_554 S
C745 H732 0.929 . S
C745 C737 1.433 1_556 S
C745 N747 1.384 . S
N746 C742 1.427 1_554 S
N746 C743 1.384 . S
N747 C739 1.427 . S
N747 C745 1.384 . S
H748 C754 0.930 . S
H749 C758 0.930 . S
H750 C763 0.929 . S
H751 C761 0.929 . S
H752 C756 0.929 . S
H753 C762 0.929 . S
C754 H748 0.930 . S
C754 C755 1.367 . S
C754 C762 1.378 . S
C755 C754 1.367 . S
C755 C763 1.433 1_556 S
C756 H752 0.929 . S
C756 C758 1.378 . S
C756 C760 1.350 . S
C757 C760 1.463 . S
C757 C762 1.350 1_554 S
C757 N765 1.427 . S
C758 H749 0.930 . S
C758 C756 1.378 . S
C758 C759 1.367 . S
C759 C758 1.367 . S
C759 C761 1.433 . S
C760 C756 1.350 . S
C760 C757 1.463 . S
C760 N764 1.427 . S
C761 H751 0.929 . S
C761 C759 1.433 . S
C761 N764 1.384 . S
C762 H753 0.929 . S
C762 C754 1.378 . S
C762 C757 1.350 1_556 S
C763 H750 0.929 . S
C763 C755 1.433 1_554 S
C763 N765 1.384 . S
N764 C760 1.427 . S
N764 C761 1.384 . S
N765 C757 1.427 . S
N765 C763 1.384 . S
H766 C772 0.930 . S
H767 C776 0.930 . S
H768 C781 0.929 . S
H769 C779 0.929 . S
H770 C774 0.929 . S
H771 C780 0.929 . S
C772 H766 0.930 . S
C772 C773 1.367 . S
C772 C780 1.378 . S
C773 C772 1.367 . S
C773 C781 1.433 1_556 S
C774 H770 0.929 . S
C774 C776 1.378 . S
C774 C778 1.350 1_554 S
C775 C778 1.463 . S
C775 C780 1.350 . S
C775 N783 1.427 1_556 S
C776 H767 0.930 . S
C776 C774 1.378 . S
C776 C777 1.367 . S
C777 C776 1.367 . S
C777 C779 1.433 1_554 S
C778 C774 1.350 1_556 S
C778 C775 1.463 . S
C778 N782 1.427 . S
C779 H769 0.929 . S
C779 C777 1.433 1_556 S
C779 N782 1.384 . S
C780 H771 0.929 . S
C780 C772 1.378 . S
C780 C775 1.350 . S
C781 H768 0.929 . S
C781 C773 1.433 1_554 S
C781 N783 1.384 . S
N782 C778 1.427 . S
N782 C779 1.384 . S
N783 C775 1.427 1_554 S
N783 C781 1.384 . S
H784 C790 0.930 . S
H785 C794 0.930 . S
H786 C799 0.929 . S
H787 C797 0.929 . S
H788 C792 0.929 1_565 S
H789 C798 0.929 . S
C790 H784 0.930 . S
C790 C791 1.367 1_545 S
C790 C798 1.378 . S
C791 C790 1.367 1_565 S
C791 C799 1.433 . S
C792 H788 0.929 1_545 S
C792 C794 1.378 . S
C792 C796 1.350 . S
C793 C796 1.463 . S
C793 C798 1.350 . S
C793 N801 1.427 1_545 S
C794 H785 0.930 . S
C794 C792 1.378 . S
C794 C795 1.367 . S
C795 C794 1.367 . S
C795 C797 1.433 . S
C796 C792 1.350 . S
C796 C793 1.463 . S
C796 N800 1.427 . S
C797 H787 0.929 . S
C797 C795 1.433 . S
C797 N800 1.384 . S
C798 H789 0.929 . S
C798 C790 1.378 . S
C798 C793 1.350 . S
C799 H786 0.929 . S
C799 C791 1.433 . S
C799 N801 1.384 . S
N800 C796 1.427 . S
N800 C797 1.384 . S
N801 C793 1.427 1_565 S
N801 C799 1.384 . S
H802 C808 0.934 . S
H803 C812 0.930 . S
H804 C817 0.929 . S
H805 C815 0.929 . S
H806 C810 0.929 . S
H807 C816 0.929 . S
C808 H802 0.934 . S
C808 C809 1.348 1_455 S
C808 C816 1.394 . S
C809 C808 1.348 1_655 S
C809 C817 1.433 . S
C810 H806 0.929 . S
C810 C812 1.378 . S
C810 C814 1.350 . S
C811 C814 1.463 . S
C811 C816 1.350 . S
C811 N819 1.427 1_455 S
C812 H803 0.930 . S
C812 C810 1.378 . S
C812 C813 1.367 . S
C813 C812 1.367 . S
C813 C815 1.433 . S
C814 C810 1.350 . S
C814 C811 1.463 . S
C814 N818 1.427 . S
C815 H805 0.929 . S
C815 C813 1.433 . S
C815 N818 1.384 . S
C816 H807 0.929 . S
C816 C808 1.394 . S
C816 C811 1.350 . S
C817 H804 0.929 . S
C817 C809 1.433 . S
C817 N819 1.384 . S
N818 C814 1.427 . S
N818 C815 1.384 . S
N819 C811 1.427 1_655 S
N819 C817 1.384 . S
H820 C826 0.930 . S
H821 C830 0.930 . S
H822 C835 0.929 . S
H823 C833 0.929 . S
H824 C828 0.929 . S
H825 C834 0.929 . S
C826 H820 0.930 . S
C826 C827 1.367 . S
C826 C834 1.378 . S
C827 C826 1.367 . S
C827 C835 1.433 . S
C828 H824 0.929 . S
C828 C830 1.378 . S
C828 C832 1.350 1_545 S
C829 C832 1.463 . S
C829 C834 1.350 . S
C829 N837 1.427 . S
C830 H821 0.930 . S
C830 C828 1.378 . S
C830 C831 1.367 . S
C831 C830 1.367 . S
C831 C833 1.433 1_545 S
C832 C828 1.350 1_565 S
C832 C829 1.463 . S
C832 N836 1.427 . S
C833 H823 0.929 . S
C833 C831 1.433 1_565 S
C833 N836 1.384 . S
C834 H825 0.929 . S
C834 C826 1.378 . S
C834 C829 1.350 . S
C835 H822 0.929 . S
C835 C827 1.433 . S
C835 N837 1.384 . S
N836 C832 1.427 . S
N836 C833 1.384 . S
N837 C829 1.427 . S
N837 C835 1.384 . S
H838 C844 0.930 . S
H839 C848 0.930 . S
H840 C853 0.929 . S
H841 C851 0.931 . S
H842 C846 0.929 . S
H843 C852 0.929 . S
C844 H838 0.930 . S
C844 C845 1.367 . S
C844 C852 1.378 . S
C845 C844 1.367 . S
C845 C853 1.433 . S
C846 H842 0.929 . S
C846 C848 1.378 . S
C846 C850 1.350 1_455 S
C847 C850 1.463 . S
C847 C852 1.350 . S
C847 N855 1.427 . S
C848 H839 0.930 . S
C848 C846 1.378 . S
C848 C849 1.367 . S
C849 C848 1.367 . S
C849 C851 1.422 1_455 S
C850 C846 1.350 1_655 S
C850 C847 1.463 . S
C850 N854 1.427 . S
C851 H841 0.931 . S
C851 C849 1.422 1_655 S
C851 N854 1.394 . S
C852 H843 0.929 . S
C852 C844 1.378 . S
C852 C847 1.350 . S
C853 H840 0.929 . S
C853 C845 1.433 . S
C853 N855 1.384 . S
N854 C850 1.427 . S
N854 C851 1.394 . S
N855 C847 1.427 . S
N855 C853 1.384 . S
H856 C862 0.930 . S
H857 C866 0.930 . S
H858 C871 0.929 . S
H859 C869 0.929 . S
H860 C864 0.929 . S
H861 C870 0.929 . S
C862 H856 0.930 . S
C862 C863 1.367 1_545 S
C862 C870 1.378 . S
C863 C862 1.367 1_565 S
C863 C871 1.433 . S
C864 H860 0.929 . S
C864 C866 1.378 . S
C864 C868 1.350 . S
C865 C868 1.463 . S
C865 C870 1.350 . S
C865 N873 1.427 1_545 S
C866 H857 0.930 . S
C866 C864 1.378 . S
C866 C867 1.367 . S
C867 C866 1.367 . S
C867 C869 1.433 . S
C868 C864 1.350 . S
C868 C865 1.463 . S
C868 N872 1.427 . S
C869 H859 0.929 . S
C869 C867 1.433 . S
C869 N872 1.384 . S
C870 H861 0.929 . S
C870 C862 1.378 . S
C870 C865 1.350 . S
C871 H858 0.929 . S
C871 C863 1.433 . S
C871 N873 1.384 . S
N872 C868 1.427 . S
N872 C869 1.384 . S
N873 C865 1.427 1_565 S
N873 C871 1.384 . S
H874 C880 0.930 . S
H875 C884 0.930 . S
H876 C889 0.929 . S
H877 C887 0.929 . S
H878 C882 0.929 . S
H879 C888 0.929 . S
C880 H874 0.930 . S
C880 C881 1.367 . S
C880 C888 1.378 . S
C881 C880 1.367 . S
C881 C889 1.433 . S
C882 H878 0.929 . S
C882 C884 1.378 . S
C882 C886 1.350 1_655 S
C883 C886 1.463 . S
C883 C888 1.350 . S
C883 N891 1.427 . S
C884 H875 0.930 . S
C884 C882 1.378 . S
C884 C885 1.367 . S
C885 C884 1.367 . S
C885 C887 1.433 1_655 S
C886 C882 1.350 1_455 S
C886 C883 1.463 . S
C886 N890 1.427 . S
C887 H877 0.929 . S
C887 C885 1.433 1_455 S
C887 N890 1.384 . S
C888 H879 0.929 . S
C888 C880 1.378 . S
C888 C883 1.350 . S
C889 H876 0.929 . S
C889 C881 1.433 . S
C889 N891 1.384 . S
N890 C886 1.427 . S
N890 C887 1.384 . S
N891 C883 1.427 . S
N891 C889 1.384 . S
H892 C898 0.930 . S
H893 C902 0.930 . S
H894 C907 0.929 . S
H895 C905 0.929 . S
H896 C900 0.929 . S
H897 C906 0.929 1_545 S
C898 H892 0.930 . S
C898 C899 1.367 . S
C898 C906 1.378 . S
C899 C898 1.367 . S
C899 C907 1.433 . S
C900 H896 0.929 . S
C900 C902 1.378 . S
C900 C904 1.350 . S
C901 C904 1.463 . S
C901 C906 1.350 . S
C901 N909 1.427 . S
C902 H893 0.930 . S
C902 C900 1.378 . S
C902 C903 1.367 1_565 S
C903 C902 1.367 1_545 S
C903 C905 1.433 . S
C904 C900 1.350 . S
C904 C901 1.463 . S
C904 N908 1.427 1_565 S
C905 H895 0.929 . S
C905 C903 1.433 . S
C905 N908 1.384 . S
C906 H897 0.929 1_565 S
C906 C898 1.378 . S
C906 C901 1.350 . S
C907 H894 0.929 . S
C907 C899 1.433 . S
C907 N909 1.384 . S
N908 C904 1.427 1_545 S
N908 C905 1.384 . S
N909 C901 1.427 . S
N909 C907 1.384 . S
H910 C916 0.930 . S
H911 C920 0.930 . S
H912 C925 0.929 . S
H913 C923 0.929 . S
H914 C918 0.917 1_455 S
H915 C924 0.929 . S
C916 H910 0.930 . S
C916 C917 1.367 1_655 S
C916 C924 1.378 . S
C917 C916 1.367 1_455 S
C917 C925 1.433 . S
C918 H914 0.917 1_655 S
C918 C920 1.378 . S
C918 C922 1.350 . S
C919 C922 1.463 . S
C919 C924 1.350 . S
C919 N927 1.427 1_655 S
C920 H911 0.930 . S
C920 C918 1.378 . S
C920 C921 1.367 . S
C921 C920 1.367 . S
C921 C923 1.433 . S
C922 C918 1.350 . S
C922 C919 1.463 . S
C922 N926 1.427 . S
C923 H913 0.929 . S
C923 C921 1.433 . S
C923 N926 1.384 . S
C924 H915 0.929 . S
C924 C916 1.378 . S
C924 C919 1.350 . S
C925 H912 0.929 . S
C925 C917 1.433 . S
C925 N927 1.384 . S
N926 C922 1.427 . S
N926 C923 1.384 . S
N927 C919 1.427 1_455 S
N927 C925 1.384 . S
H928 C934 0.930 . S
H929 C938 0.930 . S
H930 C943 0.929 . S
H931 C941 0.929 . S
H932 C936 0.929 . S
H933 C942 0.929 . S
C934 H928 0.930 . S
C934 C935 1.367 . S
C934 C942 1.378 . S
C935 C934 1.367 . S
C935 C943 1.433 . S
C936 H932 0.929 . S
C936 C938 1.378 . S
C936 C940 1.350 . S
C937 C940 1.463 . S
C937 C942 1.350 . S
C937 N945 1.427 . S
C938 H929 0.930 . S
C938 C936 1.378 . S
C938 C939 1.367 . S
C939 C938 1.367 . S
C939 C941 1.433 . S
C940 C936 1.350 . S
C940 C937 1.463 . S
C940 N944 1.427 . S
C941 H931 0.929 . S
C941 C939 1.433 . S
C941 N944 1.384 . S
C942 H933 0.929 . S
C942 C934 1.378 . S
C942 C937 1.350 . S
C943 H930 0.929 . S
C943 C935 1.433 . S
C943 N945 1.384 . S
N944 C940 1.427 . S
N944 C941 1.384 . S
N945 C937 1.427 . S
N945 C943 1.384 . S
H946 C952 0.930 . S
H947 C956 0.930 . S
H948 C961 0.929 . S
H949 C959 0.929 . S
H950 C954 0.929 . S
H951 C960 0.929 . S
C952 H946 0.930 . S
C952 C953 1.367 . S
C952 C960 1.378 . S
C953 C952 1.367 . S
C953 C961 1.433 . S
C954 H950 0.929 . S
C954 C956 1.378 . S
C954 C958 1.350 . S
C955 C958 1.463 . S
C955 C960 1.350 . S
C955 N963 1.427 . S
C956 H947 0.930 . S
C956 C954 1.378 . S
C956 C957 1.367 . S
C957 C956 1.367 . S
C957 C959 1.433 . S
C958 C954 1.350 . S
C958 C955 1.463 . S
C958 N962 1.427 . S
C959 H949 0.929 . S
C959 C957 1.433 . S
C959 N962 1.384 . S
C960 H951 0.929 . S
C960 C952 1.378 . S
C960 C955 1.350 . S
C961 H948 0.929 . S
C961 C953 1.433 . S
C961 N963 1.384 . S
N962 C958 1.427 . S
N962 C959 1.384 . S
N963 C955 1.427 . S
N963 C961 1.384 . S
H964 C970 0.930 . S
H965 C974 0.930 . S
H966 C979 0.929 . S
H967 C977 0.929 . S
H968 C972 0.929 . S
H969 C978 0.929 . S
C970 H964 0.930 . S
C970 C971 1.367 . S
C970 C978 1.378 . S
C971 C970 1.367 . S
C971 C979 1.433 . S
C972 H968 0.929 . S
C972 C974 1.378 . S
C972 C976 1.350 . S
C973 C976 1.463 . S
C973 C978 1.350 . S
C973 N981 1.427 . S
C974 H965 0.930 . S
C974 C972 1.378 . S
C974 C975 1.367 . S
C975 C974 1.367 . S
C975 C977 1.433 . S
C976 C972 1.350 . S
C976 C973 1.463 . S
C976 N980 1.427 . S
C977 H967 0.929 . S
C977 C975 1.433 . S
C977 N980 1.384 . S
C978 H969 0.929 . S
C978 C970 1.378 . S
C978 C973 1.350 . S
C979 H966 0.929 . S
C979 C971 1.433 . S
C979 N981 1.384 . S
N980 C976 1.427 . S
N980 C977 1.384 . S
N981 C973 1.427 . S
N981 C979 1.384 . S
H982 C988 0.930 . S
H983 C992 0.930 . S
H984 C997 0.929 . S
H985 C995 0.929 . S
H986 C990 0.929 . S
H987 C996 0.929 . S
C988 H982 0.930 . S
C988 C989 1.367 . S
C988 C996 1.378 . S
C989 C988 1.367 . S
C989 C997 1.433 . S
C990 H986 0.929 . S
C990 C992 1.378 . S
C990 C994 1.350 . S
C991 C994 1.463 . S
C991 C996 1.350 . S
C991 N999 1.427 . S
C992 H983 0.930 . S
C992 C990 1.378 . S
C992 C993 1.367 . S
C993 C992 1.367 . S
C993 C995 1.433 . S
C994 C990 1.350 . S
C994 C991 1.463 . S
C994 N998 1.427 . S
C995 H985 0.929 . S
C995 C993 1.433 . S
C995 N998 1.384 . S
C996 H987 0.929 . S
C996 C988 1.378 . S
C996 C991 1.350 . S
C997 H984 0.929 . S
C997 C989 1.433 . S
C997 N999 1.384 . S
N998 C994 1.427 . S
N998 C995 1.384 . S
N999 C991 1.427 . S
N999 C997 1.384 . S
H1000 C1006 0.930 . S
H1001 C1010 0.930 . S
H1002 C1015 0.929 . S
H1003 C1013 0.929 . S
H1004 C1008 0.929 . S
H1005 C1014 0.929 . S
C1006 H1000 0.930 . S
C1006 C1007 1.367 . S
C1006 C1014 1.378 . S
C1007 C1006 1.367 . S
C1007 C1015 1.433 . S
C1008 H1004 0.929 . S
C1008 C1010 1.378 . S
C1008 C1012 1.350 . S
C1009 C1012 1.463 . S
C1009 C1014 1.350 . S
C1009 N1017 1.427 . S
C1010 H1001 0.930 . S
C1010 C1008 1.378 . S
C1010 C1011 1.367 . S
C1011 C1010 1.367 . S
C1011 C1013 1.433 . S
C1012 C1008 1.350 . S
C1012 C1009 1.463 . S
C1012 N1016 1.427 . S
C1013 H1003 0.929 . S
C1013 C1011 1.433 . S
C1013 N1016 1.384 . S
C1014 H1005 0.929 . S
C1014 C1006 1.378 . S
C1014 C1009 1.350 . S
C1015 H1002 0.929 . S
C1015 C1007 1.433 . S
C1015 N1017 1.384 . S
N1016 C1012 1.427 . S
N1016 C1013 1.384 . S
N1017 C1009 1.427 . S
N1017 C1015 1.384 . S
H1018 C1024 0.930 . S
H1019 C1028 0.930 . S
H1020 C1033 0.929 . S
H1021 C1031 0.929 . S
H1022 C1026 0.929 . S
H1023 C1032 0.929 . S
C1024 H1018 0.930 . S
C1024 C1025 1.367 . S
C1024 C1032 1.378 . S
C1025 C1024 1.367 . S
C1025 C1033 1.433 . S
C1026 H1022 0.929 . S
C1026 C1028 1.378 . S
C1026 C1030 1.350 . S
C1027 C1030 1.463 . S
C1027 C1032 1.350 . S
C1027 N1035 1.427 . S
C1028 H1019 0.930 . S
C1028 C1026 1.378 . S
C1028 C1029 1.367 . S
C1029 C1028 1.367 . S
C1029 C1031 1.433 . S
C1030 C1026 1.350 . S
C1030 C1027 1.463 . S
C1030 N1034 1.427 . S
C1031 H1021 0.929 . S
C1031 C1029 1.433 . S
C1031 N1034 1.384 . S
C1032 H1023 0.929 . S
C1032 C1024 1.378 . S
C1032 C1027 1.350 . S
C1033 H1020 0.929 . S
C1033 C1025 1.433 . S
C1033 N1035 1.384 . S
N1034 C1030 1.427 . S
N1034 C1031 1.384 . S
N1035 C1027 1.427 . S
N1035 C1033 1.384 . S
H1036 C1042 0.930 . S
H1037 C1046 0.930 . S
H1038 C1051 0.929 . S
H1039 C1049 0.929 . S
H1040 C1044 0.929 . S
H1041 C1050 0.929 . S
C1042 H1036 0.930 . S
C1042 C1043 1.367 . S
C1042 C1050 1.378 . S
C1043 C1042 1.367 . S
C1043 C1051 1.433 . S
C1044 H1040 0.929 . S
C1044 C1046 1.378 . S
C1044 C1048 1.350 . S
C1045 C1048 1.463 . S
C1045 C1050 1.350 . S
C1045 N1053 1.427 . S
C1046 H1037 0.930 . S
C1046 C1044 1.378 . S
C1046 C1047 1.367 . S
C1047 C1046 1.367 . S
C1047 C1049 1.433 . S
C1048 C1044 1.350 . S
C1048 C1045 1.463 . S
C1048 N1052 1.427 . S
C1049 H1039 0.929 . S
C1049 C1047 1.433 . S
C1049 N1052 1.384 . S
C1050 H1041 0.929 . S
C1050 C1042 1.378 . S
C1050 C1045 1.350 . S
C1051 H1038 0.929 . S
C1051 C1043 1.433 . S
C1051 N1053 1.384 . S
N1052 C1048 1.427 . S
N1052 C1049 1.384 . S
N1053 C1045 1.427 . S
N1053 C1051 1.384 . S
H1054 C1060 0.930 . S
H1055 C1064 0.930 . S
H1056 C1069 0.929 . S
H1057 C1067 0.929 . S
H1058 C1062 0.929 . S
H1059 C1068 0.929 . S
C1060 H1054 0.930 . S
C1060 C1061 1.367 . S
C1060 C1068 1.378 . S
C1061 C1060 1.367 . S
C1061 C1069 1.433 . S
C1062 H1058 0.929 . S
C1062 C1064 1.378 . S
C1062 C1066 1.350 . S
C1063 C1066 1.463 . S
C1063 C1068 1.350 . S
C1063 N1071 1.427 . S
C1064 H1055 0.930 . S
C1064 C1062 1.378 . S
C1064 C1065 1.367 . S
C1065 C1064 1.367 . S
C1065 C1067 1.433 . S
C1066 C1062 1.350 . S
C1066 C1063 1.463 . S
C1066 N1070 1.427 . S
C1067 H1057 0.929 . S
C1067 C1065 1.433 . S
C1067 N1070 1.384 . S
C1068 H1059 0.929 . S
C1068 C1060 1.378 . S
C1068 C1063 1.350 . S
C1069 H1056 0.929 . S
C1069 C1061 1.433 . S
C1069 N1071 1.384 . S
N1070 C1066 1.427 . S
N1070 C1067 1.384 . S
N1071 C1063 1.427 . S
N1071 C1069 1.384 . S
H1072 C1078 0.930 . S
H1073 C1082 0.930 . S
H1074 C1087 0.929 . S
H1075 C1085 0.929 . S
H1076 C1080 0.929 . S
H1077 C1086 0.929 . S
C1078 H1072 0.930 . S
C1078 C1079 1.367 1_554 S
C1078 C1086 1.378 . S
C1079 C1078 1.367 1_556 S
C1079 C1087 1.433 . S
C1080 H1076 0.929 . S
C1080 C1082 1.378 . S
C1080 C1084 1.350 1_556 S
C1081 C1084 1.463 1_556 S
C1081 C1086 1.350 1_556 S
C1081 N1089 1.427 . S
C1082 H1073 0.930 . S
C1082 C1080 1.378 . S
C1082 C1083 1.367 1_556 S
C1083 C1082 1.367 1_554 S
C1083 C1085 1.433 . S
C1084 C1080 1.350 1_554 S
C1084 C1081 1.463 1_554 S
C1084 N1088 1.427 . S
C1085 H1075 0.929 . S
C1085 C1083 1.433 . S
C1085 N1088 1.384 . S
C1086 H1077 0.929 . S
C1086 C1078 1.378 . S
C1086 C1081 1.350 1_554 S
C1087 H1074 0.929 . S
C1087 C1079 1.433 . S
C1087 N1089 1.384 . S
N1088 C1084 1.427 . S
N1088 C1085 1.384 . S
N1089 C1081 1.427 . S
N1089 C1087 1.384 . S
H1090 C1096 0.930 . S
H1091 C1100 0.930 . S
H1092 C1105 0.929 . S
H1093 C1103 0.929 . S
H1094 C1098 0.929 . S
H1095 C1104 0.929 . S
C1096 H1090 0.930 . S
C1096 C1097 1.367 . S
C1096 C1104 1.378 . S
C1097 C1096 1.367 . S
C1097 C1105 1.433 . S
C1098 H1094 0.929 . S
C1098 C1100 1.378 . S
C1098 C1102 1.350 . S
C1099 C1102 1.463 1_554 S
C1099 C1104 1.350 . S
C1099 N1107 1.430 . S
C1100 H1091 0.930 . S
C1100 C1098 1.378 . S
C1100 C1101 1.367 . S
C1101 C1100 1.367 . S
C1101 C1103 1.433 . S
C1102 C1098 1.350 . S
C1102 C1099 1.463 1_556 S
C1102 N1106 1.430 . S
C1103 H1093 0.929 . S
C1103 C1101 1.433 . S
C1103 N1106 1.390 . S
C1104 H1095 0.929 . S
C1104 C1096 1.378 . S
C1104 C1099 1.350 . S
C1105 H1092 0.929 . S
C1105 C1097 1.433 . S
C1105 N1107 1.390 . S
N1106 C1102 1.430 . S
N1106 C1103 1.390 . S
N1107 C1099 1.430 . S
N1107 C1105 1.390 . S
H1108 C1114 0.930 . S
H1109 C1118 0.930 . S
H1110 C1123 0.929 . S
H1111 C1121 0.929 . S
H1112 C1116 0.929 . S
H1113 C1122 0.929 . S
C1114 H1108 0.930 . S
C1114 C1115 1.367 1_556 S
C1114 C1122 1.378 . S
C1115 C1114 1.367 1_554 S
C1115 C1123 1.433 . S
C1116 H1112 0.929 . S
C1116 C1118 1.378 . S
C1116 C1120 1.350 1_554 S
C1117 C1120 1.463 1_554 S
C1117 C1122 1.350 1_554 S
C1117 N1125 1.427 . S
C1118 H1109 0.930 . S
C1118 C1116 1.378 . S
C1118 C1119 1.367 1_554 S
C1119 C1118 1.367 1_556 S
C1119 C1121 1.433 . S
C1120 C1116 1.350 1_556 S
C1120 C1117 1.463 1_556 S
C1120 N1124 1.427 . S
C1121 H1111 0.929 . S
C1121 C1119 1.433 . S
C1121 N1124 1.384 . S
C1122 H1113 0.929 . S
C1122 C1114 1.378 . S
C1122 C1117 1.350 1_556 S
C1123 H1110 0.929 . S
C1123 C1115 1.433 . S
C1123 N1125 1.384 . S
N1124 C1120 1.427 . S
N1124 C1121 1.384 . S
N1125 C1117 1.427 . S
N1125 C1123 1.384 . S
H1126 C1132 0.930 . S
H1127 C1136 0.930 . S
H1128 C1141 0.925 1_556 S
H1129 C1139 0.925 1_554 S
H1130 C1134 0.929 . S
H1131 C1140 0.929 . S
C1132 H1126 0.930 . S
C1132 C1133 1.367 . S
C1132 C1140 1.378 . S
C1133 C1132 1.367 . S
C1133 C1141 1.441 . S
C1134 H1130 0.929 . S
C1134 C1136 1.378 . S
C1134 C1138 1.350 . S
C1135 C1138 1.463 1_554 S
C1135 C1140 1.350 . S
C1135 N1143 1.427 1_554 S
C1136 H1127 0.930 . S
C1136 C1134 1.378 . S
C1136 C1137 1.367 . S
C1137 C1136 1.367 . S
C1137 C1139 1.441 . S
C1138 C1134 1.350 . S
C1138 C1135 1.463 1_556 S
C1138 N1142 1.427 1_556 S
C1139 H1129 0.925 1_556 S
C1139 C1137 1.441 . S
C1139 N1142 1.381 1_556 S
C1140 H1131 0.929 . S
C1140 C1132 1.378 . S
C1140 C1135 1.350 . S
C1141 H1128 0.925 1_554 S
C1141 C1133 1.441 . S
C1141 N1143 1.381 1_554 S
N1142 C1138 1.427 1_554 S
N1142 C1139 1.381 1_554 S
N1143 C1135 1.427 1_556 S
N1143 C1141 1.381 1_556 S
H1144 C1150 0.930 . S
H1145 C1154 0.930 . S
H1146 C1159 0.929 . S
H1147 C1157 0.929 . S
H1148 C1152 0.929 . S
H1149 C1158 0.929 . S
C1150 H1144 0.930 . S
C1150 C1151 1.367 . S
C1150 C1158 1.378 . S
C1151 C1150 1.367 . S
C1151 C1159 1.433 . S
C1152 H1148 0.929 . S
C1152 C1154 1.378 . S
C1152 C1156 1.350 . S
C1153 C1156 1.463 . S
C1153 C1158 1.350 . S
C1153 N1161 1.427 . S
C1154 H1145 0.930 . S
C1154 C1152 1.378 . S
C1154 C1155 1.367 . S
C1155 C1154 1.367 . S
C1155 C1157 1.433 . S
C1156 C1152 1.350 . S
C1156 C1153 1.463 . S
C1156 N1160 1.427 . S
C1157 H1147 0.929 . S
C1157 C1155 1.433 . S
C1157 N1160 1.384 . S
C1158 H1149 0.929 . S
C1158 C1150 1.378 . S
C1158 C1153 1.350 . S
C1159 H1146 0.929 . S
C1159 C1151 1.433 . S
C1159 N1161 1.384 . S
N1160 C1156 1.427 . S
N1160 C1157 1.384 . S
N1161 C1153 1.427 . S
N1161 C1159 1.384 . S
H1162 C1168 0.930 . S
H1163 C1172 0.930 . S
H1164 C1177 0.929 . S
H1165 C1175 0.929 . S
H1166 C1170 0.929 . S
H1167 C1176 0.929 . S
C1168 H1162 0.930 . S
C1168 C1169 1.367 . S
C1168 C1176 1.378 . S
C1169 C1168 1.367 . S
C1169 C1177 1.433 . S
C1170 H1166 0.929 . S
C1170 C1172 1.378 . S
C1170 C1174 1.350 . S
C1171 C1174 1.463 . S
C1171 C1176 1.350 . S
C1171 N1179 1.427 . S
C1172 H1163 0.930 . S
C1172 C1170 1.378 . S
C1172 C1173 1.367 . S
C1173 C1172 1.367 . S
C1173 C1175 1.433 . S
C1174 C1170 1.350 . S
C1174 C1171 1.463 . S
C1174 N1178 1.427 . S
C1175 H1165 0.929 . S
C1175 C1173 1.433 . S
C1175 N1178 1.384 . S
C1176 H1167 0.929 . S
C1176 C1168 1.378 . S
C1176 C1171 1.350 . S
C1177 H1164 0.929 . S
C1177 C1169 1.433 . S
C1177 N1179 1.384 . S
N1178 C1174 1.427 . S
N1178 C1175 1.384 . S
N1179 C1171 1.427 . S
N1179 C1177 1.384 . S
H1180 C1186 0.930 . S
H1181 C1190 0.930 . S
H1182 C1195 0.929 . S
H1183 C1193 0.929 . S
H1184 C1188 0.929 . S
H1185 C1194 0.929 . S
C1186 H1180 0.930 . S
C1186 C1187 1.367 . S
C1186 C1194 1.378 . S
C1187 C1186 1.367 . S
C1187 C1195 1.433 . S
C1188 H1184 0.929 . S
C1188 C1190 1.378 . S
C1188 C1192 1.350 . S
C1189 C1192 1.463 . S
C1189 C1194 1.350 . S
C1189 N1197 1.427 . S
C1190 H1181 0.930 . S
C1190 C1188 1.378 . S
C1190 C1191 1.367 . S
C1191 C1190 1.367 . S
C1191 C1193 1.433 . S
C1192 C1188 1.350 . S
C1192 C1189 1.463 . S
C1192 N1196 1.427 . S
C1193 H1183 0.929 . S
C1193 C1191 1.433 . S
C1193 N1196 1.384 . S
C1194 H1185 0.929 . S
C1194 C1186 1.378 . S
C1194 C1189 1.350 . S
C1195 H1182 0.929 . S
C1195 C1187 1.433 . S
C1195 N1197 1.384 . S
N1196 C1192 1.427 . S
N1196 C1193 1.384 . S
N1197 C1189 1.427 . S
N1197 C1195 1.384 . S
H1198 C1204 0.930 . S
H1199 C1208 0.930 . S
H1200 C1213 0.929 . S
H1201 C1211 0.929 . S
H1202 C1206 0.929 . S
H1203 C1212 0.929 . S
C1204 H1198 0.930 . S
C1204 C1205 1.367 . S
C1204 C1212 1.378 . S
C1205 C1204 1.367 . S
C1205 C1213 1.433 . S
C1206 H1202 0.929 . S
C1206 C1208 1.378 . S
C1206 C1210 1.350 . S
C1207 C1210 1.463 . S
C1207 C1212 1.350 . S
C1207 N1215 1.427 . S
C1208 H1199 0.930 . S
C1208 C1206 1.378 . S
C1208 C1209 1.367 . S
C1209 C1208 1.367 . S
C1209 C1211 1.433 . S
C1210 C1206 1.350 . S
C1210 C1207 1.463 . S
C1210 N1214 1.427 . S
C1211 H1201 0.929 . S
C1211 C1209 1.433 . S
C1211 N1214 1.384 . S
C1212 H1203 0.929 . S
C1212 C1204 1.378 . S
C1212 C1207 1.350 . S
C1213 H1200 0.929 . S
C1213 C1205 1.433 . S
C1213 N1215 1.384 . S
N1214 C1210 1.427 . S
N1214 C1211 1.384 . S
N1215 C1207 1.427 . S
N1215 C1213 1.384 . S
C359 C8 1.205 . S
C363 C118 1.209 . S
C377 C32 1.209 . S
C381 C140 1.205 . S
C395 C162 1.216 . S
C399 C62 1.201 . S
C413 C96 1.216 . S
C417 C74 1.202 . S
C431 C294 1.201 . S
C435 C186 1.215 . S
C449 C208 1.212 . S
C453 C316 1.203 . S
C467 C340 1.215 . S
C471 C230 1.201 . S
C485 C272 1.209 . S
C489 C252 1.210 . S
C503 C7 1.500 . S
C507 C37 1.442 . S
C521 C51 1.444 . S
C525 C43 1.501 . S
C539 C87 1.444 . S
C543 C59 1.500 . S
C557 C73 1.503 . S
C561 C21 1.450 . S
C575 C95 1.499 . S
C579 C175 1.440 . S
C593 C109 1.441 . S
C597 C117 1.499 . S
C611 C131 1.440 . S
C615 C139 1.499 . S
C629 C153 1.452 . S
C633 C161 1.504 . S
C647 C197 1.502 . S
C651 C213 1.448 . S
C665 C235 1.451 . S
C669 C219 1.503 . S
C683 C241 1.504 . S
C687 C257 1.454 . S
C701 C263 1.499 . S
C705 C191 1.441 . S
C719 C345 1.441 . S
C723 C271 1.499 . S
C737 C285 1.443 . S
C741 C293 1.500 . S
C755 C307 1.439 . S
C759 C315 1.498 . S
C773 C351 1.501 . S
C777 C329 1.445 . S
C791 C150 1.320 . S
C795 C15 1.322 . S
C809 C172 1.326 . S
C813 C29 1.325 . S
C827 C65 1.332 . S
C831 C106 1.321 . S
C845 C81 1.328 . S
C849 C128 1.316 . S
C863 C54 1.325 . S
C867 C103 1.324 . S
C881 C125 1.330 . S
C885 C84 1.318 . S
C899 C147 1.322 . S
C903 C18 1.318 . S
C917 C30 1.325 . S
C921 C169 1.323 . S
C935 C183 1.323 . S
C939 C326 1.324 . S
C953 C205 1.326 . S
C957 C338 1.315 . S
C971 C282 1.326 . S
C975 C227 1.331 . S
C989 C249 1.330 . S
C993 C304 1.318 . S
C1007 C279 1.332 . S
C1011 C228 1.324 . S
C1025 C301 1.322 . S
C1029 C250 1.318 . S
C1043 C323 1.331 . S
C1047 C184 1.325 . S
C1061 C206 1.327 . S
C1065 C337 1.326 . S
C1079 C348 1.394 . S
C1083 C10 1.398 . S
C1097 C274 1.399 . S
C1101 C40 1.409 . S
C1115 C52 1.397 . S
C1119 C296 1.395 . S
C1133 C318 1.404 . S
C1137 C76 1.409 . S
C1151 C98 1.394 . S
C1155 C216 1.397 . S
C1169 C120 1.407 . S
C1173 C238 1.396 . S
C1187 C260 1.394 . S
C1191 C142 1.397 . S
C1205 C164 1.394 . S
C1209 C194 1.397 . S
