# Generated by pormake.
# Topology afi, (4)-cn, num edge types: 1
# Building blocks:
#     Node 0, Type 0, BuildingBlock: QUQFOY_clean_sbu_3, # of connection points: 4
#     Node 1, Type 0, BuildingBlock: QUQFOY_clean_sbu_3, # of connection points: 4
#     Node 2, Type 0, BuildingBlock: QUQFOY_clean_sbu_3, # of connection points: 4
#     Node 3, Type 0, BuildingBlock: QUQFOY_clean_sbu_3, # of connection points: 4
#     Node 4, Type 0, BuildingBlock: QUQFOY_clean_sbu_3, # of connection points: 4
#     Node 5, Type 0, BuildingBlock: QUQFOY_clean_sbu_3, # of connection points: 4
#     Node 6, Type 0, BuildingBlock: QUQFOY_clean_sbu_3, # of connection points: 4
#     Node 7, Type 0, BuildingBlock: QUQFOY_clean_sbu_3, # of connection points: 4
#     Node 8, Type 0, BuildingBlock: QUQFOY_clean_sbu_3, # of connection points: 4
#     Node 9, Type 0, BuildingBlock: QUQFOY_clean_sbu_3, # of connection points: 4
#     Node 10, Type 0, BuildingBlock: QUQFOY_clean_sbu_3, # of connection points: 4
#     Node 11, Type 0, BuildingBlock: QUQFOY_clean_sbu_3, # of connection points: 4
#     Node 12, Type 0, BuildingBlock: QUQFOY_clean_sbu_3, # of connection points: 4
#     Node 13, Type 0, BuildingBlock: QUQFOY_clean_sbu_3, # of connection points: 4
#     Node 14, Type 0, BuildingBlock: QUQFOY_clean_sbu_3, # of connection points: 4
#     Node 15, Type 0, BuildingBlock: QUQFOY_clean_sbu_3, # of connection points: 4
#     Node 16, Type 0, BuildingBlock: QUQFOY_clean_sbu_3, # of connection points: 4
#     Node 17, Type 0, BuildingBlock: QUQFOY_clean_sbu_3, # of connection points: 4
#     Node 18, Type 0, BuildingBlock: QUQFOY_clean_sbu_3, # of connection points: 4
#     Node 19, Type 0, BuildingBlock: QUQFOY_clean_sbu_3, # of connection points: 4
#     Node 20, Type 0, BuildingBlock: QUQFOY_clean_sbu_3, # of connection points: 4
#     Node 21, Type 0, BuildingBlock: QUQFOY_clean_sbu_3, # of connection points: 4
#     Node 22, Type 0, BuildingBlock: QUQFOY_clean_sbu_3, # of connection points: 4
#     Node 23, Type 0, BuildingBlock: QUQFOY_clean_sbu_3, # of connection points: 4
#     Edge 24, Type (0, 0), BuildingBlock: AJUNOK_clean_linker_0, # of connection points: 2
#     Edge 25, Type (0, 0), BuildingBlock: AJUNOK_clean_linker_0, # of connection points: 2
#     Edge 26, Type (0, 0), BuildingBlock: AJUNOK_clean_linker_0, # of connection points: 2
#     Edge 27, Type (0, 0), BuildingBlock: AJUNOK_clean_linker_0, # of connection points: 2
#     Edge 28, Type (0, 0), BuildingBlock: AJUNOK_clean_linker_0, # of connection points: 2
#     Edge 29, Type (0, 0), BuildingBlock: AJUNOK_clean_linker_0, # of connection points: 2
#     Edge 30, Type (0, 0), BuildingBlock: AJUNOK_clean_linker_0, # of connection points: 2
#     Edge 31, Type (0, 0), BuildingBlock: AJUNOK_clean_linker_0, # of connection points: 2
#     Edge 32, Type (0, 0), BuildingBlock: AJUNOK_clean_linker_0, # of connection points: 2
#     Edge 33, Type (0, 0), BuildingBlock: AJUNOK_clean_linker_0, # of connection points: 2
#     Edge 34, Type (0, 0), BuildingBlock: AJUNOK_clean_linker_0, # of connection points: 2
#     Edge 35, Type (0, 0), BuildingBlock: AJUNOK_clean_linker_0, # of connection points: 2
#     Edge 36, Type (0, 0), BuildingBlock: AJUNOK_clean_linker_0, # of connection points: 2
#     Edge 37, Type (0, 0), BuildingBlock: AJUNOK_clean_linker_0, # of connection points: 2
#     Edge 38, Type (0, 0), BuildingBlock: AJUNOK_clean_linker_0, # of connection points: 2
#     Edge 39, Type (0, 0), BuildingBlock: AJUNOK_clean_linker_0, # of connection points: 2
#     Edge 40, Type (0, 0), BuildingBlock: AJUNOK_clean_linker_0, # of connection points: 2
#     Edge 41, Type (0, 0), BuildingBlock: AJUNOK_clean_linker_0, # of connection points: 2
#     Edge 42, Type (0, 0), BuildingBlock: AJUNOK_clean_linker_0, # of connection points: 2
#     Edge 43, Type (0, 0), BuildingBlock: AJUNOK_clean_linker_0, # of connection points: 2
#     Edge 44, Type (0, 0), BuildingBlock: AJUNOK_clean_linker_0, # of connection points: 2
#     Edge 45, Type (0, 0), BuildingBlock: AJUNOK_clean_linker_0, # of connection points: 2
#     Edge 46, Type (0, 0), BuildingBlock: AJUNOK_clean_linker_0, # of connection points: 2
#     Edge 47, Type (0, 0), BuildingBlock: AJUNOK_clean_linker_0, # of connection points: 2
#     Edge 48, Type (0, 0), BuildingBlock: AJUNOK_clean_linker_0, # of connection points: 2
#     Edge 49, Type (0, 0), BuildingBlock: AJUNOK_clean_linker_0, # of connection points: 2
#     Edge 50, Type (0, 0), BuildingBlock: AJUNOK_clean_linker_0, # of connection points: 2
#     Edge 51, Type (0, 0), BuildingBlock: AJUNOK_clean_linker_0, # of connection points: 2
#     Edge 52, Type (0, 0), BuildingBlock: AJUNOK_clean_linker_0, # of connection points: 2
#     Edge 53, Type (0, 0), BuildingBlock: AJUNOK_clean_linker_0, # of connection points: 2
#     Edge 54, Type (0, 0), BuildingBlock: AJUNOK_clean_linker_0, # of connection points: 2
#     Edge 55, Type (0, 0), BuildingBlock: AJUNOK_clean_linker_0, # of connection points: 2
#     Edge 56, Type (0, 0), BuildingBlock: AJUNOK_clean_linker_0, # of connection points: 2
#     Edge 57, Type (0, 0), BuildingBlock: AJUNOK_clean_linker_0, # of connection points: 2
#     Edge 58, Type (0, 0), BuildingBlock: AJUNOK_clean_linker_0, # of connection points: 2
#     Edge 59, Type (0, 0), BuildingBlock: AJUNOK_clean_linker_0, # of connection points: 2
#     Edge 60, Type (0, 0), BuildingBlock: AJUNOK_clean_linker_0, # of connection points: 2
#     Edge 61, Type (0, 0), BuildingBlock: AJUNOK_clean_linker_0, # of connection points: 2
#     Edge 62, Type (0, 0), BuildingBlock: AJUNOK_clean_linker_0, # of connection points: 2
#     Edge 63, Type (0, 0), BuildingBlock: AJUNOK_clean_linker_0, # of connection points: 2
#     Edge 64, Type (0, 0), BuildingBlock: AJUNOK_clean_linker_0, # of connection points: 2
#     Edge 65, Type (0, 0), BuildingBlock: AJUNOK_clean_linker_0, # of connection points: 2
#     Edge 66, Type (0, 0), BuildingBlock: AJUNOK_clean_linker_0, # of connection points: 2
#     Edge 67, Type (0, 0), BuildingBlock: AJUNOK_clean_linker_0, # of connection points: 2
#     Edge 68, Type (0, 0), BuildingBlock: AJUNOK_clean_linker_0, # of connection points: 2
#     Edge 69, Type (0, 0), BuildingBlock: AJUNOK_clean_linker_0, # of connection points: 2
#     Edge 70, Type (0, 0), BuildingBlock: AJUNOK_clean_linker_0, # of connection points: 2
#     Edge 71, Type (0, 0), BuildingBlock: AJUNOK_clean_linker_0, # of connection points: 2
# Relax obj value: 0.095
# Max RMSD: 0.105
# Mean RMSD: 0.105
data_MOF--net-afi--node1-QUQFOY_clean_sbu_3--edge1-AJUNOK_clean_linker_0
_symmetry_space_group_name_H-M    P1
_symmetry_Int_Tables_number       1
_symmetry_cell_setting            triclinic
loop_
_symmetry_equiv_pos_as_xyz
'x, y, z'
_cell_length_a     52.360575
_cell_length_b     52.208632
_cell_length_c     29.784754
_cell_angle_alpha  89.940964
_cell_angle_beta   90.064002
_cell_angle_gamma 120.10094
loop_
_atom_site_label
_atom_site_type_symbol
_atom_site_fract_x
_atom_site_fract_y
_atom_site_fract_z
_atom_type_partial_charge
C0 C 0.50503 0.11127 0.17871 0.0
O1 O 0.49851 0.10065 0.13934 0.0
Cd2 Cd 0.45864 0.09837 0.09778 0.0
O3 O 0.49165 0.12338 0.19678 0.0
Cd4 Cd 0.45392 0.13645 0.17479 0.0
C5 C 0.40439 0.06475 0.17814 0.0
O6 O 0.46738 0.14766 0.09853 0.0
O7 O 0.42303 0.13755 0.11264 0.0
O8 O 0.48461 0.18595 0.20351 0.0
C9 C 0.44427 0.14714 0.08504 0.0
O10 O 0.41485 0.06319 0.1403 0.0
C11 C 0.46366 0.18665 0.22371 0.0
O12 O 0.41568 0.08901 0.19964 0.0
O13 O 0.43866 0.16306 0.22358 0.0
C14 C 0.36758 0.48474 0.16657 0.0
O15 O 0.37339 0.4804 0.12691 0.0
Cd16 Cd 0.34177 0.43309 0.09361 0.0
O17 O 0.34368 0.46588 0.18559 0.0
Cd18 Cd 0.29691 0.41967 0.17153 0.0
C19 C 0.33823 0.38922 0.18405 0.0
O20 O 0.29328 0.42661 0.09413 0.0
O21 O 0.26734 0.38107 0.11611 0.0
O22 O 0.27522 0.44792 0.19573 0.0
C23 C 0.27329 0.40031 0.08576 0.0
O24 O 0.34778 0.39965 0.14501 0.0
C25 C 0.25485 0.42732 0.21853 0.0
O26 O 0.31939 0.39388 0.20362 0.0
O27 O 0.25489 0.40303 0.22141 0.0
C28 C 0.8662 0.39568 0.20646 0.0
O29 O 0.88022 0.40367 0.16963 0.0
Cd30 Cd 0.89256 0.37217 0.12871 0.0
O31 O 0.85655 0.36959 0.22152 0.0
Cd32 Cd 0.8553 0.32385 0.19733 0.0
C33 C 0.92749 0.35657 0.21291 0.0
O34 O 0.84691 0.3269 0.11955 0.0
O35 O 0.86325 0.29737 0.13571 0.0
O36 O 0.80426 0.29582 0.21968 0.0
C37 C 0.851 0.306 0.10756 0.0
O38 O 0.92961 0.36901 0.17519 0.0
C39 C 0.80685 0.2754 0.23836 0.0
O40 O 0.90243 0.33981 0.23039 0.0
O41 O 0.83261 0.27888 0.24076 0.0
C42 C 0.47558 0.88411 0.17134 0.0
O43 O 0.48094 0.89481 0.13193 0.0
Cd44 Cd 0.52016 0.89671 0.0884 0.0
O45 O 0.48939 0.87187 0.18739 0.0
Cd46 Cd 0.52655 0.85895 0.16361 0.0
C47 C 0.57619 0.93083 0.16565 0.0
O48 O 0.51067 0.8468 0.08822 0.0
O49 O 0.55474 0.85489 0.10077 0.0
O50 O 0.49613 0.8104 0.1957 0.0
C51 C 0.5326 0.84497 0.07482 0.0
O52 O 0.56488 0.93271 0.12879 0.0
C53 C 0.51737 0.81007 0.21569 0.0
O54 O 0.56549 0.9063 0.18627 0.0
O55 O 0.54255 0.83334 0.21323 0.0
C56 C 0.60655 0.51309 0.15644 0.0
O57 O 0.59962 0.5171 0.11729 0.0
Cd58 Cd 0.63152 0.56407 0.08278 0.0
O59 O 0.63117 0.5319 0.17364 0.0
Cd60 Cd 0.67765 0.5773 0.1558 0.0
C61 C 0.63854 0.60958 0.17204 0.0
O62 O 0.67935 0.56862 0.07853 0.0
O63 O 0.70715 0.6145 0.09869 0.0
O64 O 0.69907 0.54855 0.17901 0.0
C65 C 0.7006 0.59427 0.06986 0.0
O66 O 0.62745 0.59873 0.13383 0.0
C67 C 0.71988 0.56902 0.20135 0.0
O68 O 0.65778 0.60476 0.18972 0.0
O69 O 0.72032 0.59354 0.20422 0.0
C70 C 0.10505 0.59637 0.20945 0.0
O71 O 0.09065 0.5875 0.173 0.0
Cd72 Cd 0.07812 0.61751 0.12862 0.0
O73 O 0.11494 0.62285 0.22292 0.0
Cd74 Cd 0.11538 0.66751 0.19412 0.0
C75 C 0.04354 0.63595 0.20944 0.0
O76 O 0.12342 0.66234 0.1169 0.0
O77 O 0.10571 0.69108 0.12982 0.0
O78 O 0.16686 0.6971 0.21375 0.0
C79 C 0.11842 0.68227 0.10291 0.0
O80 O 0.04158 0.62296 0.17235 0.0
C81 C 0.16442 0.71849 0.22886 0.0
O82 O 0.06842 0.65226 0.22785 0.0
O83 O 0.13856 0.71466 0.23185 0.0
C84 C 0.86784 0.4898 0.31041 0.0
O85 O 0.88031 0.49479 0.34851 0.0
Cd86 Cd 0.89429 0.53859 0.38966 0.0
O87 O 0.86076 0.50781 0.29334 0.0
Cd88 Cd 0.86156 0.55395 0.31642 0.0
C89 C 0.93438 0.58878 0.30659 0.0
O90 O 0.84945 0.53979 0.39153 0.0
O91 O 0.86913 0.58666 0.38193 0.0
O92 O 0.81247 0.53282 0.28667 0.0
C93 C 0.85542 0.56449 0.40762 0.0
O94 O 0.93431 0.57719 0.3443 0.0
C95 C 0.81654 0.55683 0.26955 0.0
O96 O 0.91034 0.58298 0.28776 0.0
O97 O 0.84225 0.57929 0.27252 0.0
C98 C 0.39041 0.89742 0.2778 0.0
O99 O 0.39856 0.91193 0.31424 0.0
Cd100 Cd 0.36703 0.92305 0.35689 0.0
O101 O 0.3641 0.88693 0.26339 0.0
Cd102 Cd 0.31786 0.88388 0.29027 0.0
C103 C 0.34696 0.95566 0.27403 0.0
O104 O 0.32378 0.87619 0.3671 0.0
O105 O 0.29254 0.89092 0.35498 0.0
O106 O 0.293 0.83231 0.27021 0.0
C107 C 0.30275 0.87922 0.38143 0.0
O108 O 0.36037 0.95807 0.31087 0.0
C109 C 0.27024 0.83192 0.2547 0.0
O110 O 0.33062 0.93045 0.25643 0.0
O111 O 0.27096 0.85654 0.25204 0.0
C112 C 0.52034 0.42058 0.27105 0.0
O113 O 0.51361 0.42993 0.30585 0.0
Cd114 Cd 0.47594 0.39958 0.35766 0.0
O115 O 0.50763 0.393 0.2623 0.0
Cd116 Cd 0.46962 0.34776 0.30099 0.0
C117 C 0.41845 0.36669 0.28405 0.0
O118 O 0.48667 0.36162 0.37648 0.0
O119 O 0.44206 0.32535 0.37039 0.0
O120 O 0.49502 0.32075 0.28327 0.0
C121 C 0.46457 0.34013 0.39488 0.0
O122 O 0.4292 0.38331 0.31831 0.0
C123 C 0.47166 0.29785 0.27012 0.0
O124 O 0.43041 0.35261 0.26863 0.0
O125 O 0.44823 0.29935 0.26867 0.0
C126 C 0.10353 0.50356 0.31709 0.0
O127 O 0.09103 0.49876 0.35511 0.0
Cd128 Cd 0.07597 0.45437 0.396 0.0
O129 O 0.11025 0.48525 0.3003 0.0
Cd130 Cd 0.10887 0.43887 0.32292 0.0
C131 C 0.03637 0.4046 0.31184 0.0
O132 O 0.11944 0.45089 0.39946 0.0
O133 O 0.09968 0.40424 0.38561 0.0
O134 O 0.15895 0.46089 0.29752 0.0
C135 C 0.11301 0.42543 0.41307 0.0
O136 O 0.03656 0.41606 0.34968 0.0
C137 C 0.15565 0.43752 0.27918 0.0
O138 O 0.06031 0.41056 0.29244 0.0
O139 O 0.12981 0.41507 0.27887 0.0
C140 C 0.58663 0.09113 0.28312 0.0
O141 O 0.57661 0.07466 0.3175 0.0
Cd142 Cd 0.60682 0.06073 0.35873 0.0
O143 O 0.61361 0.10239 0.27191 0.0
Cd144 Cd 0.6591 0.10495 0.30034 0.0
C145 C 0.63166 0.03528 0.27154 0.0
O146 O 0.64944 0.10641 0.37779 0.0
O147 O 0.68308 0.09505 0.36396 0.0
O148 O 0.68101 0.15721 0.28757 0.0
C149 C 0.67043 0.10322 0.39205 0.0
O150 O 0.61639 0.03008 0.30717 0.0
C151 C 0.70497 0.16049 0.27194 0.0
O152 O 0.64879 0.06162 0.25846 0.0
O153 O 0.70685 0.13731 0.26708 0.0
C154 C 0.45871 0.57747 0.27475 0.0
O155 O 0.46681 0.5679 0.30785 0.0
Cd156 Cd 0.50609 0.59734 0.35785 0.0
O157 O 0.47112 0.60509 0.2663 0.0
Cd158 Cd 0.51077 0.65036 0.3029 0.0
C159 C 0.56121 0.63117 0.28041 0.0
O160 O 0.49579 0.63521 0.37835 0.0
O161 O 0.5397 0.67246 0.37168 0.0
O162 O 0.48559 0.67789 0.28711 0.0
C163 C 0.5182 0.65612 0.39704 0.0
O164 O 0.55152 0.61425 0.31456 0.0
C165 C 0.50888 0.70047 0.27294 0.0
O166 O 0.54878 0.64529 0.26708 0.0
O167 O 0.53211 0.69866 0.2708 0.0
C168 C 0.46724 0.86938 0.78531 0.0
O169 O 0.47324 0.88102 0.82408 0.0
Cd170 Cd 0.51315 0.88611 0.86873 0.0
O171 O 0.48159 0.8578 0.76889 0.0
Cd172 Cd 0.52123 0.84858 0.79502 0.0
C173 C 0.56767 0.92103 0.78963 0.0
O174 O 0.50633 0.83749 0.87106 0.0
O175 O 0.55168 0.85002 0.85918 0.0
O176 O 0.49513 0.79826 0.7677 0.0
C177 C 0.52962 0.83867 0.88532 0.0
O178 O 0.55679 0.92254 0.8271 0.0
C179 C 0.51791 0.79966 0.75025 0.0
O180 O 0.55753 0.89654 0.76911 0.0
O181 O 0.54138 0.82474 0.7502 0.0
C182 C 0.61414 0.50036 0.81574 0.0
O183 O 0.61036 0.50576 0.85594 0.0
Cd184 Cd 0.64499 0.55347 0.88533 0.0
O185 O 0.63786 0.51773 0.79486 0.0
Cd186 Cd 0.68694 0.56178 0.80453 0.0
C187 C 0.64824 0.59479 0.79107 0.0
O188 O 0.69272 0.55828 0.88223 0.0
O189 O 0.71843 0.60257 0.8554 0.0
O190 O 0.70606 0.53076 0.78226 0.0
C191 C 0.71298 0.58487 0.88791 0.0
O192 O 0.6395 0.58597 0.83105 0.0
C193 C 0.7263 0.55013 0.75769 0.0
O194 O 0.666 0.58857 0.77155 0.0
O195 O 0.72709 0.57472 0.75274 0.0
C196 C 0.11258 0.60437 0.81119 0.0
O197 O 0.10171 0.59669 0.85025 0.0
Cd198 Cd 0.08861 0.62694 0.89232 0.0
O199 O 0.12016 0.63002 0.79591 0.0
Cd200 Cd 0.12325 0.67658 0.82155 0.0
C201 C 0.05097 0.63885 0.80725 0.0
O202 O 0.13341 0.67323 0.8976 0.0
O203 O 0.11607 0.70231 0.88581 0.0
O204 O 0.17287 0.70295 0.79356 0.0
C205 C 0.12805 0.69263 0.91273 0.0
O206 O 0.05002 0.62612 0.84425 0.0
C207 C 0.17001 0.72329 0.77511 0.0
O208 O 0.07542 0.65829 0.79081 0.0
O209 O 0.14477 0.72113 0.77706 0.0
C210 C 0.50686 0.10861 0.79461 0.0
O211 O 0.50025 0.09509 0.83197 0.0
Cd212 Cd 0.45819 0.08761 0.87356 0.0
O213 O 0.49258 0.12074 0.78 0.0
Cd214 Cd 0.45205 0.12835 0.80557 0.0
C215 C 0.40697 0.05649 0.78932 0.0
O216 O 0.46494 0.13622 0.88266 0.0
O217 O 0.42012 0.1253 0.86851 0.0
O218 O 0.4793 0.17936 0.78103 0.0
C219 C 0.44161 0.13546 0.89576 0.0
O220 O 0.41652 0.05269 0.82664 0.0
C221 C 0.45716 0.17852 0.76209 0.0
O222 O 0.41716 0.08225 0.77313 0.0
O223 O 0.43342 0.15371 0.76106 0.0
C224 C 0.36992 0.47768 0.81816 0.0
O225 O 0.37507 0.47234 0.85768 0.0
Cd226 Cd 0.34075 0.42555 0.88968 0.0
O227 O 0.3454 0.46045 0.79906 0.0
Cd228 Cd 0.2966 0.41672 0.81336 0.0
C229 C 0.33313 0.38181 0.79684 0.0
O230 O 0.2944 0.42397 0.89087 0.0
O231 O 0.26579 0.37878 0.86913 0.0
O232 O 0.27786 0.44797 0.78996 0.0
C233 C 0.2731 0.39835 0.89932 0.0
O234 O 0.34356 0.39139 0.83588 0.0
C235 C 0.25623 0.42796 0.76823 0.0
O236 O 0.31489 0.38802 0.77898 0.0
O237 O 0.25443 0.40281 0.76521 0.0
C238 C 0.86982 0.37869 0.80607 0.0
O239 O 0.88026 0.38749 0.84513 0.0
Cd240 Cd 0.89125 0.35861 0.89443 0.0
O241 O 0.8618 0.35243 0.79323 0.0
Cd242 Cd 0.85776 0.30679 0.82588 0.0
C243 C 0.93072 0.34291 0.81774 0.0
O244 O 0.84535 0.31341 0.89934 0.0
O245 O 0.86171 0.28296 0.89506 0.0
O246 O 0.80889 0.27895 0.79507 0.0
C247 C 0.84884 0.29364 0.91794 0.0
O248 O 0.93088 0.35689 0.8529 0.0
C249 C 0.81224 0.25787 0.78103 0.0
O250 O 0.90657 0.32349 0.80044 0.0
O251 O 0.83756 0.26055 0.78587 0.0
C252 C 0.10064 0.50721 0.70313 0.0
O253 O 0.08399 0.49989 0.66892 0.0
Cd254 Cd 0.06886 0.45493 0.62915 0.0
O255 O 0.11055 0.49079 0.71703 0.0
Cd256 Cd 0.10775 0.44442 0.6921 0.0
C257 C 0.03701 0.40486 0.71455 0.0
O258 O 0.11315 0.4542 0.61372 0.0
O259 O 0.09476 0.40807 0.63111 0.0
O260 O 0.15974 0.46627 0.70784 0.0
C261 C 0.10716 0.42848 0.60218 0.0
O262 O 0.03366 0.41421 0.67674 0.0
C263 C 0.15711 0.44307 0.72597 0.0
O264 O 0.0625 0.41461 0.73132 0.0
O265 O 0.13114 0.42139 0.73121 0.0
C266 C 0.59114 0.09499 0.68706 0.0
O267 O 0.58194 0.08051 0.65072 0.0
Cd268 Cd 0.61064 0.06562 0.60834 0.0
O269 O 0.61708 0.10338 0.70155 0.0
Cd270 Cd 0.66163 0.10249 0.67562 0.0
C271 C 0.62661 0.03001 0.69174 0.0
O272 O 0.65592 0.11087 0.5994 0.0
O273 O 0.68644 0.0952 0.60984 0.0
O274 O 0.68866 0.15317 0.69967 0.0
C275 C 0.67557 0.1063 0.58343 0.0
O276 O 0.61334 0.02844 0.65508 0.0
C277 C 0.70988 0.1513 0.71666 0.0
O278 O 0.64485 0.0549 0.70861 0.0
O279 O 0.7078 0.126 0.71652 0.0
C280 C 0.46443 0.56758 0.71068 0.0
O281 O 0.47101 0.5581 0.67588 0.0
Cd282 Cd 0.50902 0.58774 0.62407 0.0
O283 O 0.47808 0.59507 0.72026 0.0
Cd284 Cd 0.51785 0.63997 0.68349 0.0
C285 C 0.56794 0.61928 0.69552 0.0
O286 O 0.5002 0.62719 0.60814 0.0
O287 O 0.54506 0.66295 0.61407 0.0
O288 O 0.49326 0.66743 0.70206 0.0
C289 C 0.52246 0.64844 0.58966 0.0
O290 O 0.5561 0.60306 0.66121 0.0
C291 C 0.51682 0.69025 0.71482 0.0
O292 O 0.55668 0.63335 0.71349 0.0
O293 O 0.54002 0.68835 0.71662 0.0
C294 C 0.88157 0.47279 0.69007 0.0
O295 O 0.89726 0.47909 0.65494 0.0
Cd296 Cd 0.91226 0.52466 0.61608 0.0
O297 O 0.87261 0.48998 0.70378 0.0
Cd298 Cd 0.87535 0.53599 0.67837 0.0
C299 C 0.94596 0.57476 0.70058 0.0
O300 O 0.86899 0.52759 0.59937 0.0
O301 O 0.88866 0.57348 0.61987 0.0
O302 O 0.82337 0.51366 0.69416 0.0
C303 C 0.87483 0.55372 0.59051 0.0
O304 O 0.94886 0.56499 0.66292 0.0
C305 C 0.82585 0.53655 0.71304 0.0
O306 O 0.92059 0.56564 0.71731 0.0
O307 O 0.85173 0.5583 0.71864 0.0
C308 C 0.38658 0.88803 0.67585 0.0
O309 O 0.39646 0.90222 0.63939 0.0
Cd310 Cd 0.3673 0.91707 0.59696 0.0
O311 O 0.36037 0.87971 0.68858 0.0
Cd312 Cd 0.31572 0.8797 0.66279 0.0
C313 C 0.35048 0.95178 0.68091 0.0
O314 O 0.3215 0.87222 0.58606 0.0
O315 O 0.29036 0.88708 0.59865 0.0
O316 O 0.29141 0.82893 0.68539 0.0
C317 C 0.30101 0.87614 0.57161 0.0
O318 O 0.36424 0.95373 0.64465 0.0
C319 C 0.26984 0.8292 0.70412 0.0
O320 O 0.33205 0.92674 0.69717 0.0
O321 O 0.27006 0.85365 0.70469 0.0
C322 C 0.51608 0.41157 0.71226 0.0
O323 O 0.50868 0.42147 0.67875 0.0
Cd324 Cd 0.47133 0.39262 0.62563 0.0
O325 O 0.50319 0.3839 0.72047 0.0
Cd326 Cd 0.46335 0.33962 0.68232 0.0
C327 C 0.41226 0.35912 0.69571 0.0
O328 O 0.4827 0.35498 0.6085 0.0
O329 O 0.4383 0.31818 0.6103 0.0
O330 O 0.48657 0.31101 0.70305 0.0
C331 C 0.46151 0.33405 0.58778 0.0
O332 O 0.4236 0.37584 0.66173 0.0
C333 C 0.46236 0.28845 0.7145 0.0
O334 O 0.42423 0.34543 0.7127 0.0
O335 O 0.43946 0.29086 0.7137 0.0
C336 C 0.38113 0.03679 0.24812 0.0
C337 C 0.38268 0.03723 0.20094 0.0
C338 C 0.36728 0.01006 0.27166 0.0
C339 C 0.35413 0.98283 0.24889 0.0
H340 H 0.39266 0.0571 0.26731 0.0
H341 H 0.36847 0.01078 0.30799 0.0
S342 S 0.34612 0.97215 0.12536 0.0
N343 N 0.36556 0.00839 0.13215 0.0
N344 N 0.33913 0.95795 0.17645 0.0
C345 C 0.3525 0.98299 0.20171 0.0
C346 C 0.36692 0.01028 0.17769 0.0
C347 C 0.37619 0.3759 0.28098 0.0
C348 C 0.39375 0.36627 0.25946 0.0
C349 C 0.35614 0.38075 0.25671 0.0
C350 C 0.35331 0.37659 0.20992 0.0
H351 H 0.37885 0.38099 0.31653 0.0
H352 H 0.34437 0.38981 0.27436 0.0
S353 S 0.39075 0.34716 0.1387 0.0
N354 N 0.40427 0.34916 0.18949 0.0
N355 N 0.36684 0.35881 0.14384 0.0
C356 C 0.36899 0.36477 0.18855 0.0
C357 C 0.38915 0.35944 0.21335 0.0
C358 C 0.98187 0.37709 0.21621 0.0
C359 C 0.95453 0.36404 0.23845 0.0
C360 C 0.00828 0.38842 0.24025 0.0
C361 C 0.00829 0.38752 0.28745 0.0
H362 H 0.983 0.37951 0.18001 0.0
H363 H 0.02884 0.39946 0.22175 0.0
S364 S 0.94261 0.35234 0.3615 0.0
N365 N 0.92897 0.3481 0.31029 0.0
N366 N 0.97881 0.3699 0.35539 0.0
C367 C 0.98112 0.37294 0.31 0.0
C368 C 0.95417 0.36102 0.28551 0.0
C369 C 0.60234 0.95662 0.23559 0.0
C370 C 0.59805 0.95804 0.18914 0.0
C371 C 0.61567 0.98223 0.26177 0.0
C372 C 0.62576 0.01017 0.24237 0.0
H373 H 0.59323 0.93552 0.25269 0.0
H374 H 0.61641 0.97995 0.29785 0.0
S375 S 0.62607 0.02648 0.12104 0.0
N376 N 0.60948 0.99002 0.1238 0.0
N377 N 0.63505 0.03835 0.1732 0.0
C378 C 0.62489 0.01225 0.19537 0.0
C379 C 0.6109 0.98608 0.16866 0.0
C380 C 0.60386 0.62288 0.27298 0.0
C381 C 0.5853 0.63204 0.25356 0.0
C382 C 0.62333 0.6184 0.24662 0.0
C383 C 0.62451 0.62243 0.19979 0.0
H384 H 0.60242 0.61783 0.3085 0.0
H385 H 0.63586 0.60959 0.26274 0.0
S386 S 0.58409 0.65096 0.13358 0.0
N387 N 0.57218 0.64883 0.1855 0.0
N388 N 0.60849 0.63978 0.13589 0.0
C389 C 0.6079 0.63392 0.18048 0.0
C390 C 0.58834 0.6389 0.20741 0.0
C391 C 0.01598 0.62742 0.2809 0.0
C392 C 0.01644 0.62913 0.23378 0.0
C393 C -0.01058 0.61585 0.30457 0.0
C394 C 0.96248 0.60601 0.28197 0.0
H395 H 0.036 0.6334 0.29949 0.0
H396 H -0.01009 0.61349 0.34065 0.0
S397 S 0.95287 0.61062 0.15907 0.0
N398 N 0.98856 0.62345 0.16566 0.0
N399 N 0.93853 0.60217 0.20996 0.0
C400 C 0.96306 0.60993 0.23505 0.0
C401 C -0.00992 0.62132 0.21098 0.0
C402 C 0.58956 0.94869 0.71893 0.0
C403 C 0.58864 0.94855 0.76615 0.0
C404 C 0.60364 0.97526 0.69498 0.0
C405 C 0.61773 0.00262 0.71736 0.0
H406 H 0.5776 0.92828 0.70009 0.0
H407 H 0.60225 0.97436 0.65866 0.0
S408 S 0.62636 0.014 0.84075 0.0
N409 N 0.60635 0.97776 0.83449 0.0
N410 N 0.63332 0.02788 0.78946 0.0
C411 C 0.61943 0.00271 0.76455 0.0
C412 C 0.60471 0.9756 0.78898 0.0
C413 C 0.61651 0.61771 0.7876 0.0
C414 C 0.63354 0.60782 0.765 0.0
C415 C 0.59673 0.62342 0.76429 0.0
C416 C 0.59302 0.6191 0.71763 0.0
H417 H 0.61727 0.61953 0.82387 0.0
H418 H 0.5829 0.62938 0.78345 0.0
S419 S 0.63616 0.59893 0.64159 0.0
N420 N 0.64846 0.59816 0.69234 0.0
N421 N 0.61087 0.60859 0.64874 0.0
C422 C 0.61168 0.61175 0.69411 0.0
C423 C 0.63212 0.60627 0.71775 0.0
C424 C 0.97075 0.59446 0.774 0.0
C425 C 0.97228 0.59498 0.72684 0.0
C426 C -0.00379 0.61022 0.80004 0.0
C427 C 0.02397 0.62743 0.7798 0.0
H428 H 0.95001 0.58055 0.79103 0.0
H429 H -0.00575 0.60796 0.83622 0.0
S430 S 0.03895 0.63938 0.65731 0.0
N431 N 0.00306 0.6163 0.66085 0.0
N432 N 0.051 0.64638 0.70958 0.0
C433 C 0.02543 0.62986 0.7326 0.0
C434 C -0.00046 0.61344 0.70614 0.0
C435 C 0.37228 0.00225 0.78132 0.0
C436 C 0.38721 0.03052 0.76162 0.0
C437 C 0.35835 0.97675 0.7548 0.0
C438 C 0.35928 0.97865 0.70765 0.0
H439 H 0.37253 -0.0003 0.81739 0.0
H440 H 0.34853 0.95542 0.77138 0.0
S441 S 0.39136 0.0473 0.6396 0.0
N442 N 0.39878 0.05893 0.69205 0.0
N443 N 0.37299 0.01081 0.64241 0.0
C444 C 0.37212 0.00671 0.6876 0.0
C445 C 0.38595 0.03273 0.71456 0.0
C446 C 0.36425 0.35841 0.7903 0.0
C447 C 0.34686 0.36849 0.76926 0.0
C448 C 0.38389 0.35327 0.76555 0.0
C449 C 0.38709 0.35839 0.71899 0.0
H450 H 0.36403 0.35619 0.82649 0.0
H451 H 0.39809 0.34725 0.78361 0.0
S452 S 0.34251 0.37893 0.64662 0.0
N453 N 0.33077 0.37883 0.69806 0.0
N454 N 0.36814 0.36953 0.65176 0.0
C455 C 0.36791 0.36572 0.69695 0.0
C456 C 0.34758 0.37059 0.72205 0.0
C457 C 0.01149 0.38755 0.78796 0.0
C458 C 0.0109 0.38463 0.74101 0.0
C459 C 0.98564 0.37224 0.81326 0.0
C460 C 0.95845 0.35315 0.79251 0.0
H461 H 0.03168 0.40314 0.805 0.0
H462 H 0.98675 0.37652 0.849 0.0
S463 S 0.94661 0.33402 0.67113 0.0
N464 N 0.98206 0.35872 0.67528 0.0
N465 N 0.93341 0.32931 0.72265 0.0
C466 C 0.95819 0.34806 0.74596 0.0
C467 C 0.98445 0.36405 0.7202 0.0
C468 C 0.44147 0.21654 0.24818 0.0
C469 C 0.46695 0.21465 0.24062 0.0
C470 C 0.44339 0.24363 0.25735 0.0
C471 C 0.47088 0.26987 0.2599 0.0
H472 H 0.41971 0.19713 0.24542 0.0
H473 H 0.42305 0.24393 0.26232 0.0
S474 S 0.54442 0.27654 0.24641 0.0
N475 N 0.52067 0.24102 0.23864 0.0
N476 N 0.5243 0.29213 0.25665 0.0
C477 C 0.49666 0.26821 0.25416 0.0
C478 C 0.49468 0.24054 0.24437 0.0
C479 C 0.17868 0.4078 0.25719 0.0
C480 C 0.18115 0.4357 0.26274 0.0
C481 C 0.20304 0.40531 0.24466 0.0
C482 C 0.23059 0.43062 0.23668 0.0
H483 H 0.15787 0.38768 0.26308 0.0
H484 H 0.20003 0.38337 0.24016 0.0
S485 S 0.2488 0.50883 0.24713 0.0
N486 N 0.21342 0.48918 0.25993 0.0
N487 N 0.25922 0.48447 0.23589 0.0
C488 C 0.23344 0.45867 0.24232 0.0
C489 C 0.2087 0.46122 0.25543 0.0
C490 C 0.75879 0.19379 0.26103 0.0
C491 C 0.73036 0.19013 0.26339 0.0
C492 C 0.78356 0.22178 0.25518 0.0
C493 C 0.78078 0.24708 0.25087 0.0
H494 H 0.76204 0.17493 0.26403 0.0
H495 H 0.80497 0.22339 0.25272 0.0
S496 S 0.71123 0.24952 0.25595 0.0
N497 N 0.70077 0.21417 0.2622 0.0
N498 N 0.74748 0.26691 0.25053 0.0
C499 C 0.75251 0.24384 0.25376 0.0
C500 C 0.72725 0.21531 0.26015 0.0
C501 C 0.53936 0.78103 0.24499 0.0
C502 C 0.51395 0.78273 0.23566 0.0
C503 C 0.5373 0.75429 0.25724 0.0
C504 C 0.50974 0.72826 0.26113 0.0
H505 H 0.56117 0.80024 0.24123 0.0
H506 H 0.5576 0.75406 0.26325 0.0
S507 S 0.43635 0.7214 0.24445 0.0
N508 N 0.46021 0.75654 0.2339 0.0
N509 N 0.45635 0.7061 0.2576 0.0
C510 C 0.48404 0.72983 0.25394 0.0
C511 C 0.48614 0.75713 0.24105 0.0
C512 C 0.77064 0.5901 0.23197 0.0
C513 C 0.7437 0.56511 0.22003 0.0
C514 C 0.7944 0.58721 0.24671 0.0
C515 C 0.79191 0.55921 0.25054 0.0
H516 H 0.77362 0.61213 0.2293 0.0
H517 H 0.81469 0.60708 0.25587 0.0
S518 S 0.72603 0.48678 0.22343 0.0
N519 N 0.71583 0.51139 0.21283 0.0
N520 N 0.76053 0.506 0.24098 0.0
C521 C 0.76508 0.534 0.23881 0.0
C522 C 0.74094 0.53694 0.22346 0.0
C523 C 0.21856 0.74973 0.24078 0.0
C524 C 0.19076 0.74753 0.23738 0.0
C525 C 0.24426 0.77725 0.24497 0.0
C526 C 0.24314 0.80361 0.2454 0.0
H527 H 0.22054 0.73005 0.24016 0.0
H528 H 0.26514 0.7778 0.24819 0.0
S529 S 0.17579 0.80993 0.23617 0.0
N530 N 0.16356 0.77404 0.23391 0.0
N531 N 0.21196 0.82585 0.24151 0.0
C532 C 0.2155 0.80177 0.24148 0.0
C533 C 0.18927 0.77369 0.23771 0.0
C534 C 0.49122 0.71873 0.72953 0.0
C535 C 0.51767 0.71843 0.72345 0.0
C536 C 0.4914 0.74532 0.73626 0.0
C537 C 0.51801 0.77258 0.73663 0.0
H538 H 0.4702 0.69826 0.72963 0.0
H539 H 0.47052 0.74439 0.74203 0.0
S540 S 0.59323 0.78392 0.71912 0.0
N541 N 0.57113 0.74775 0.71612 0.0
N542 N 0.57148 0.79776 0.72837 0.0
C543 C 0.54458 0.77266 0.72919 0.0
C544 C 0.54442 0.74556 0.72284 0.0
C545 C 0.77852 0.57061 0.73566 0.0
C546 C 0.75031 0.5458 0.74149 0.0
C547 C 0.8029 0.56727 0.72738 0.0
C548 C 0.79983 0.53901 0.7239 0.0
H549 H 0.78205 0.59281 0.73917 0.0
H550 H 0.82429 0.58704 0.72345 0.0
S551 S 0.73024 0.46698 0.73361 0.0
N552 N 0.7203 0.49206 0.74155 0.0
N553 N 0.76624 0.48574 0.72496 0.0
C554 C 0.77158 0.51398 0.72821 0.0
C555 C 0.74677 0.51739 0.73724 0.0
C556 C 0.21821 0.80105 0.73193 0.0
C557 C 0.24492 0.80196 0.72245 0.0
C558 C 0.19381 0.77518 0.74778 0.0
C559 C 0.19539 0.74941 0.75517 0.0
H560 H 0.21598 0.82038 0.72676 0.0
H561 H 0.17375 0.7756 0.75503 0.0
S562 S 0.26024 0.74016 0.73512 0.0
N563 N 0.27154 0.77481 0.72109 0.0
N564 N 0.22562 0.72614 0.75125 0.0
C565 C 0.22193 0.74994 0.74566 0.0
C566 C 0.24673 0.77624 0.7292 0.0
C567 C 0.48639 0.25937 0.73589 0.0
C568 C 0.46057 0.26015 0.72577 0.0
C569 C 0.4852 0.23267 0.74621 0.0
C570 C 0.4582 0.20578 0.74625 0.0
H571 H 0.50764 0.27958 0.73647 0.0
H572 H 0.50558 0.23321 0.75483 0.0
S573 S 0.38445 0.19569 0.71907 0.0
N574 N 0.40736 0.23163 0.71444 0.0
N575 N 0.40514 0.18142 0.73347 0.0
C576 C 0.4323 0.20615 0.73491 0.0
C577 C 0.43348 0.23336 0.72487 0.0
C578 C 0.1794 0.41181 0.74132 0.0
C579 C 0.183 0.44022 0.73646 0.0
C580 C 0.20358 0.40803 0.74911 0.0
C581 C 0.23216 0.43256 0.75299 0.0
H582 H 0.15773 0.39223 0.73884 0.0
H583 H 0.19964 0.38574 0.75364 0.0
S584 S 0.25365 0.51161 0.74108 0.0
N585 N 0.21747 0.4933 0.73433 0.0
N586 N 0.26305 0.48619 0.74982 0.0
C587 C 0.23622 0.4611 0.74743 0.0
C588 C 0.21158 0.46495 0.73898 0.0
C589 C 0.76045 0.23006 0.75388 0.0
C590 C 0.78711 0.23069 0.7628 0.0
C591 C 0.73554 0.20415 0.73944 0.0
C592 C 0.73629 0.17782 0.73369 0.0
H593 H 0.75866 0.2497 0.75827 0.0
H594 H 0.71552 0.20481 0.73292 0.0
S595 S 0.80086 0.16777 0.75196 0.0
N596 N 0.81298 0.20281 0.76441 0.0
N597 N 0.76598 0.15393 0.73733 0.0
C598 C 0.76283 0.17809 0.74231 0.0
C599 C 0.78832 0.2046 0.75674 0.0
C600 C 0.46589 0.16653 0.01097 0.0
C601 C 0.44044 0.14954 0.03676 0.0
C602 C 0.46536 0.16323 0.96459 0.0
C603 C 0.43931 0.14293 0.94242 0.0
H604 H 0.48688 0.18107 0.02703 0.0
H605 H 0.4859 0.17551 0.94627 0.0
S606 S 0.36562 0.09673 -0.00613 0.0
N607 N 0.38761 0.11443 0.03657 0.0
N608 N 0.38658 0.10838 0.94854 0.0
C609 C 0.41299 0.12797 0.96711 0.0
C610 C 0.41356 0.13128 0.01469 0.0
C611 C 0.25879 0.41306 0.96842 0.0
C612 C 0.26194 0.39147 0.9452 0.0
C613 C 0.25895 0.41361 0.0151 0.0
C614 C 0.26231 0.39261 0.0398 0.0
H615 H 0.2589 0.43119 0.95044 0.0
H616 H 0.2591 0.43212 0.03187 0.0
S617 S 0.26562 0.32831 -0.00546 0.0
N618 N 0.26391 0.34601 0.94963 0.0
N619 N 0.26422 0.34703 0.03827 0.0
C620 C 0.26173 0.36875 0.01716 0.0
C621 C 0.26155 0.36819 0.96933 0.0
C622 C 0.86434 0.28481 -0.00723 0.0
C623 C 0.84461 0.28931 0.96652 0.0
C624 C 0.86504 0.28815 0.03951 0.0
C625 C 0.84608 0.29613 0.06076 0.0
H626 H 0.88068 0.28085 0.97701 0.0
H627 H 0.88181 0.28654 0.05857 0.0
S628 S 0.7861 0.30357 0.00761 0.0
N629 N 0.80253 0.29704 0.96552 0.0
N630 N 0.80392 0.30342 0.05327 0.0
C631 C 0.82441 0.29773 0.03523 0.0
C632 C 0.82364 0.29426 0.98798 0.0
C633 C 0.55988 0.85383 0.00287 0.0
C634 C 0.53391 0.83742 0.02794 0.0
C635 C 0.55914 0.85227 0.95589 0.0
C636 C 0.53241 0.83425 0.93325 0.0
H637 H 0.58024 0.86967 0.01926 0.0
H638 H 0.57897 0.86696 0.93732 0.0
S639 S 0.46031 0.78179 0.98468 0.0
N640 N 0.48227 0.7989 0.02763 0.0
N641 N 0.48087 0.7958 0.93938 0.0
C642 C 0.5072 0.81536 0.95832 0.0
C643 C 0.50795 0.81701 0.00583 0.0
C644 C 0.71493 0.62052 -0.00317 0.0
C645 C 0.71523 0.59976 0.02647 0.0
C646 C 0.71846 0.61832 0.95061 0.0
C647 C 0.72224 0.59531 0.93369 0.0
H648 H 0.70879 0.63631 0.00869 0.0
H649 H 0.71479 0.63241 0.92795 0.0
S650 S 0.73208 0.54066 -0.00071 0.0
N651 N 0.72533 0.55957 0.03719 0.0
N652 N 0.73193 0.55544 0.9503 0.0
C653 C 0.72662 0.57722 0.96372 0.0
C654 C 0.72304 0.57942 0.01038 0.0
C655 C 0.14844 0.69147 0.9865 0.0
C656 C 0.12939 0.69751 0.96132 0.0
C657 C 0.14574 0.68843 0.03289 0.0
C658 C 0.12401 0.69147 0.05577 0.0
H659 H 0.1645 0.68739 0.97 0.0
H660 H 0.15994 0.68229 0.05071 0.0
S661 S 0.07168 0.71183 0.00609 0.0
N662 N 0.09036 0.70991 0.9628 0.0
N663 N 0.08542 0.70437 0.05091 0.0
C664 C 0.10659 0.70022 0.03165 0.0
C665 C 0.10928 0.70324 0.98404 0.0
C666 C 0.88623 0.58615 0.52344 0.0
C667 C 0.86651 0.56051 0.5472 0.0
C668 C 0.88091 0.58946 0.47827 0.0
C669 C 0.85566 0.56727 0.45644 0.0
H670 H 0.90687 0.60247 0.53861 0.0
H671 H 0.89785 0.60797 0.45948 0.0
S672 S 0.7941 0.49999 0.50785 0.0
N673 N 0.81856 0.51554 0.54857 0.0
N674 N 0.80839 0.52192 0.46387 0.0
C675 C 0.83424 0.54348 0.48161 0.0
C676 C 0.83977 0.53998 0.52709 0.0
C677 C 0.28884 0.89292 0.50051 0.0
C678 C 0.29389 0.87242 0.52371 0.0
C679 C 0.28928 0.8937 0.45345 0.0
C680 C 0.29478 0.87398 0.42894 0.0
H681 H 0.28678 0.90977 0.51866 0.0
H682 H 0.28755 0.91112 0.43644 0.0
S683 S 0.30238 0.81201 0.47425 0.0
N684 N 0.29942 0.82897 0.51901 0.0
N685 N 0.30026 0.83044 0.43069 0.0
C686 C 0.29678 0.85157 0.45182 0.0
C687 C 0.29633 0.85078 0.49934 0.0
C688 C 0.43614 0.31878 0.51354 0.0
C689 C 0.46241 0.33217 0.53868 0.0
C690 C 0.43692 0.32042 0.46659 0.0
C691 C 0.46397 0.33553 0.44361 0.0
H692 H 0.41489 0.30805 0.53018 0.0
H693 H 0.41622 0.31084 0.4484 0.0
S694 S 0.53883 0.36989 0.49393 0.0
N695 N 0.51609 0.3578 0.53717 0.0
N696 N 0.51754 0.36094 0.44905 0.0
C697 C 0.49033 0.34735 0.46832 0.0
C698 C 0.48955 0.34564 0.5159 0.0
C699 C 0.13536 0.44566 0.53214 0.0
C700 C 0.11161 0.42289 0.55558 0.0
C701 C 0.13707 0.44467 0.48568 0.0
C702 C 0.11498 0.42096 0.46115 0.0
H703 H 0.15187 0.46523 0.54958 0.0
H704 H 0.15477 0.46359 0.46859 0.0
S705 S 0.05062 0.3537 0.50761 0.0
N706 N 0.06752 0.37421 0.55204 0.0
N707 N 0.07058 0.37242 0.46373 0.0
C708 C 0.09263 0.39662 0.48443 0.0
C709 C 0.09095 0.39759 0.53211 0.0
C710 C 0.6717 0.12643 0.46428 0.0
C711 C 0.67772 0.10708 0.43995 0.0
C712 C 0.67329 0.12742 0.51085 0.0
C713 C 0.68078 0.10897 0.53485 0.0
H714 H 0.66454 0.14013 0.44731 0.0
H715 H 0.6672 0.1418 0.52826 0.0
S716 S 0.70229 0.05713 0.48644 0.0
N717 N 0.69451 0.0713 0.44242 0.0
N718 N 0.6973 0.07297 0.53096 0.0
C719 C 0.68916 0.09117 0.51091 0.0
C720 C 0.68765 0.09025 0.46306 0.0
C721 C 0.49456 0.64024 0.47131 0.0
C722 C 0.52033 0.65754 0.44627 0.0
C723 C 0.49561 0.6382 0.51774 0.0
C724 C 0.52247 0.65341 0.54108 0.0
H725 H 0.47332 0.62757 0.45489 0.0
H726 H 0.47513 0.6241 0.5353 0.0
S727 S 0.59607 0.70367 0.49161 0.0
N728 N 0.57337 0.6917 0.44821 0.0
N729 N 0.57536 0.68789 0.53626 0.0
C730 C 0.54835 0.6719 0.51684 0.0
C731 C 0.54727 0.67398 0.46919 0.0
C732 C 0.52381 0.10377 0.25148 0.0
C733 C 0.52713 0.10795 0.20476 0.0
C734 C 0.54314 0.09824 0.27659 0.0
C735 C 0.56684 0.09738 0.25598 0.0
H736 H 0.50565 0.10394 0.26862 0.0
H737 H 0.53955 0.09471 0.31243 0.0
S738 S 0.58582 0.10816 0.13484 0.0
N739 N 0.55616 0.11148 0.13892 0.0
N740 N 0.59297 0.10177 0.18633 0.0
C741 C 0.57085 0.10226 0.20945 0.0
C742 C 0.55084 0.10733 0.18376 0.0
C743 C 0.41171 0.5301 0.26603 0.0
C744 C 0.4345 0.55587 0.24624 0.0
C745 C 0.38956 0.50786 0.23992 0.0
C746 C 0.38969 0.51024 0.19286 0.0
H747 H 0.41114 0.52692 0.30206 0.0
H748 H 0.37282 0.48816 0.25677 0.0
S749 S 0.44397 0.57398 0.12485 0.0
N750 N 0.45537 0.58331 0.17717 0.0
N751 N 0.41393 0.54099 0.12759 0.0
C752 C 0.41201 0.53623 0.17263 0.0
C753 C 0.43434 0.55922 0.19946 0.0
C754 C 0.86501 0.46536 0.23735 0.0
C755 C 0.8635 0.46391 0.28446 0.0
C756 C 0.86495 0.4427 0.21223 0.0
C757 C 0.86285 0.41757 0.23329 0.0
H758 H 0.86759 0.48472 0.21984 0.0
H759 H 0.8672 0.4452 0.17609 0.0
S760 S 0.85534 0.40189 0.35567 0.0
N761 N 0.85774 0.43454 0.35111 0.0
N762 N 0.8572 0.39169 0.3039 0.0
C763 C 0.85972 0.41514 0.28025 0.0
C764 C 0.8602 0.43841 0.30585 0.0
C765 C 0.43006 0.88778 0.1788 0.0
C766 C 0.45361 0.88649 0.19924 0.0
C767 C 0.4093 0.89066 0.20457 0.0
C768 C 0.41177 0.89303 0.25158 0.0
H769 H 0.42757 0.88642 0.14262 0.0
H770 H 0.39157 0.8917 0.18746 0.0
S771 S 0.46928 0.89065 0.32141 0.0
N772 N 0.47798 0.88736 0.26932 0.0
N773 N 0.43925 0.89334 0.31769 0.0
C774 C 0.43515 0.89167 0.27247 0.0
C775 C 0.45599 0.88823 0.24631 0.0
C776 C 0.58718 0.49071 0.23119 0.0
C777 C 0.58531 0.48791 0.18416 0.0
C778 C 0.56632 0.4685 0.25888 0.0
C779 C 0.5431 0.44233 0.24071 0.0
H780 H 0.6044 0.51066 0.24689 0.0
H781 H 0.56828 0.47197 0.29488 0.0
S782 S 0.52911 0.4232 0.11991 0.0
N783 N 0.55887 0.45646 0.12056 0.0
N784 N 0.51985 0.41421 0.17301 0.0
C785 C 0.54145 0.43866 0.19386 0.0
C786 C 0.56247 0.46161 0.16547 0.0
C787 C 0.10704 0.5499 0.21734 0.0
C788 C 0.10864 0.57504 0.23744 0.0
C789 C 0.10698 0.52757 0.24336 0.0
C790 C 0.10797 0.52931 0.29047 0.0
H791 H 0.10517 0.54713 0.18122 0.0
H792 H 0.10478 0.50819 0.22646 0.0
S793 S 0.11478 0.59159 0.35941 0.0
N794 N 0.11334 0.60135 0.30714 0.0
N795 N 0.11275 0.55905 0.35615 0.0
C796 C 0.1108 0.55486 0.31096 0.0
C797 C 0.11131 0.57784 0.28441 0.0
C798 C 0.44842 0.87457 0.71099 0.0
C799 C 0.44489 0.87138 0.75782 0.0
C800 C 0.42934 0.87979 0.68464 0.0
C801 C 0.40573 0.88141 0.70411 0.0
H802 H 0.46667 0.87407 0.69473 0.0
H803 H 0.43321 0.88271 0.64879 0.0
S804 S 0.38593 0.87261 0.82504 0.0
N805 N 0.41545 0.86899 0.82245 0.0
N806 N 0.37921 0.87827 0.7729 0.0
C807 C 0.40137 0.87722 0.75075 0.0
C808 C 0.42107 0.87237 0.77762 0.0
C809 C 0.58814 0.47894 0.74404 0.0
C810 C 0.58978 0.47596 0.79071 0.0
C811 C 0.5642 0.45786 0.71924 0.0
C812 C 0.54121 0.43264 0.73992 0.0
H813 H 0.60504 0.49821 0.72653 0.0
H814 H 0.56374 0.4614 0.68346 0.0
S815 S 0.53557 0.4135 0.86078 0.0
N816 N 0.56674 0.44545 0.85665 0.0
N817 N 0.52185 0.40516 0.80942 0.0
C818 C 0.54289 0.42878 0.78631 0.0
C819 C 0.56712 0.45065 0.81188 0.0
C820 C 0.1164 0.55909 0.80102 0.0
C821 C 0.11359 0.58217 0.78189 0.0
C822 C 0.11351 0.53558 0.77479 0.0
C823 C 0.10708 0.53401 0.72867 0.0
H824 H 0.1202 0.55884 0.83674 0.0
H825 H 0.11508 0.51789 0.79122 0.0
S826 S 0.09932 0.58981 0.66194 0.0
N827 N 0.10565 0.60293 0.71366 0.0
N828 N 0.09975 0.55844 0.66439 0.0
C829 C 0.10525 0.55749 0.7088 0.0
C830 C 0.10867 0.58168 0.7354 0.0
C831 C 0.57309 0.10226 0.76065 0.0
C832 C 0.57113 0.10122 0.71355 0.0
C833 C 0.55259 0.1054 0.7867 0.0
C834 C 0.52986 0.10828 0.7665 0.0
H835 H 0.5899 0.09953 0.77758 0.0
H836 H 0.55432 0.10516 0.82293 0.0
S837 S 0.51665 0.10924 0.6442 0.0
N838 N 0.54568 0.10481 0.64761 0.0
N839 N 0.50745 0.11128 0.69652 0.0
C840 C 0.52846 0.10856 0.71936 0.0
C841 C 0.549 0.10483 0.69289 0.0
C842 C 0.39358 0.49954 0.74514 0.0
C843 C 0.39335 0.50224 0.79208 0.0
C844 C 0.4166 0.52099 0.71928 0.0
C845 C 0.44001 0.54626 0.73921 0.0
H846 H 0.37629 0.48024 0.72822 0.0
H847 H 0.41608 0.51766 0.6833 0.0
S848 S 0.44907 0.56471 0.8605 0.0
N849 N 0.41805 0.53256 0.85747 0.0
N850 N 0.4612 0.57344 0.8084 0.0
C851 C 0.43966 0.54981 0.78593 0.0
C852 C 0.41639 0.52761 0.8125 0.0
C853 C 0.86582 0.42339 0.7913 0.0
C854 C 0.86911 0.40008 0.77453 0.0
C855 C 0.86865 0.4461 0.76318 0.0
C856 C 0.87546 0.44667 0.71737 0.0
H857 H 0.8616 0.42442 0.82667 0.0
H858 H 0.86663 0.46395 0.77799 0.0
S859 S 0.88469 0.38984 0.65647 0.0
N860 N 0.87801 0.37797 0.70889 0.0
N861 N 0.88383 0.42103 0.65595 0.0
C862 C 0.87786 0.42296 0.69981 0.0
C863 C 0.87451 0.39953 0.72841 0.0
loop_
_geom_bond_atom_site_label_1
_geom_bond_atom_site_label_2
_geom_bond_distance
_geom_bond_site_symmetry_2
_ccdc_geom_bond_type
C0 O1 1.306 . S
C0 O3 1.160 . S
O1 C0 1.306 . S
O1 Cd2 2.228 . S
Cd2 O1 2.228 . S
Cd2 O6 2.273 . S
Cd2 O10 2.277 . S
O3 C0 1.160 . S
O3 Cd4 2.203 . S
Cd4 O3 2.203 . S
Cd4 O6 2.411 . S
Cd4 O7 2.333 . S
Cd4 O8 2.352 . S
Cd4 O12 2.277 . S
Cd4 O13 2.356 . S
C5 O10 1.209 . S
C5 O12 1.226 . S
O6 Cd2 2.273 . S
O6 Cd4 2.411 . S
O6 C9 1.320 . S
O7 Cd4 2.333 . S
O7 C9 1.214 . S
O8 Cd4 2.352 . S
O8 C11 1.258 . S
C9 O6 1.320 . S
C9 O7 1.214 . S
O10 Cd2 2.277 . S
O10 C5 1.209 . S
C11 O8 1.258 . S
C11 O13 1.282 . S
O12 Cd4 2.277 . S
O12 C5 1.226 . S
O13 Cd4 2.356 . S
O13 C11 1.282 . S
C14 O15 1.306 . S
C14 O17 1.160 . S
O15 C14 1.306 . S
O15 Cd16 2.228 . S
Cd16 O15 2.228 . S
Cd16 O20 2.273 . S
Cd16 O24 2.277 . S
O17 C14 1.160 . S
O17 Cd18 2.203 . S
Cd18 O17 2.203 . S
Cd18 O20 2.411 . S
Cd18 O21 2.333 . S
Cd18 O22 2.352 . S
Cd18 O26 2.277 . S
Cd18 O27 2.356 . S
C19 O24 1.209 . S
C19 O26 1.226 . S
O20 Cd16 2.273 . S
O20 Cd18 2.411 . S
O20 C23 1.320 . S
O21 Cd18 2.333 . S
O21 C23 1.214 . S
O22 Cd18 2.352 . S
O22 C25 1.258 . S
C23 O20 1.320 . S
C23 O21 1.214 . S
O24 Cd16 2.277 . S
O24 C19 1.209 . S
C25 O22 1.258 . S
C25 O27 1.282 . S
O26 Cd18 2.277 . S
O26 C19 1.226 . S
O27 Cd18 2.356 . S
O27 C25 1.282 . S
C28 O29 1.306 . S
C28 O31 1.160 . S
O29 C28 1.306 . S
O29 Cd30 2.228 . S
Cd30 O29 2.228 . S
Cd30 O34 2.273 . S
Cd30 O38 2.277 . S
O31 C28 1.160 . S
O31 Cd32 2.203 . S
Cd32 O31 2.203 . S
Cd32 O34 2.411 . S
Cd32 O35 2.333 . S
Cd32 O36 2.352 . S
Cd32 O40 2.277 . S
Cd32 O41 2.356 . S
C33 O38 1.209 . S
C33 O40 1.226 . S
O34 Cd30 2.273 . S
O34 Cd32 2.411 . S
O34 C37 1.320 . S
O35 Cd32 2.333 . S
O35 C37 1.214 . S
O36 Cd32 2.352 . S
O36 C39 1.258 . S
C37 O34 1.320 . S
C37 O35 1.214 . S
O38 Cd30 2.277 . S
O38 C33 1.209 . S
C39 O36 1.258 . S
C39 O41 1.282 . S
O40 Cd32 2.277 . S
O40 C33 1.226 . S
O41 Cd32 2.356 . S
O41 C39 1.282 . S
C42 O43 1.306 . S
C42 O45 1.160 . S
O43 C42 1.306 . S
O43 Cd44 2.228 . S
Cd44 O43 2.228 . S
Cd44 O48 2.273 . S
Cd44 O52 2.277 . S
O45 C42 1.160 . S
O45 Cd46 2.203 . S
Cd46 O45 2.203 . S
Cd46 O48 2.411 . S
Cd46 O49 2.333 . S
Cd46 O50 2.352 . S
Cd46 O54 2.277 . S
Cd46 O55 2.356 . S
C47 O52 1.209 . S
C47 O54 1.226 . S
O48 Cd44 2.273 . S
O48 Cd46 2.411 . S
O48 C51 1.320 . S
O49 Cd46 2.333 . S
O49 C51 1.214 . S
O50 Cd46 2.352 . S
O50 C53 1.258 . S
C51 O48 1.320 . S
C51 O49 1.214 . S
O52 Cd44 2.277 . S
O52 C47 1.209 . S
C53 O50 1.258 . S
C53 O55 1.282 . S
O54 Cd46 2.277 . S
O54 C47 1.226 . S
O55 Cd46 2.356 . S
O55 C53 1.282 . S
C56 O57 1.306 . S
C56 O59 1.160 . S
O57 C56 1.306 . S
O57 Cd58 2.228 . S
Cd58 O57 2.228 . S
Cd58 O62 2.273 . S
Cd58 O66 2.277 . S
O59 C56 1.160 . S
O59 Cd60 2.203 . S
Cd60 O59 2.203 . S
Cd60 O62 2.411 . S
Cd60 O63 2.333 . S
Cd60 O64 2.352 . S
Cd60 O68 2.277 . S
Cd60 O69 2.356 . S
C61 O66 1.209 . S
C61 O68 1.226 . S
O62 Cd58 2.273 . S
O62 Cd60 2.411 . S
O62 C65 1.320 . S
O63 Cd60 2.333 . S
O63 C65 1.214 . S
O64 Cd60 2.352 . S
O64 C67 1.258 . S
C65 O62 1.320 . S
C65 O63 1.214 . S
O66 Cd58 2.277 . S
O66 C61 1.209 . S
C67 O64 1.258 . S
C67 O69 1.282 . S
O68 Cd60 2.277 . S
O68 C61 1.226 . S
O69 Cd60 2.356 . S
O69 C67 1.282 . S
C70 O71 1.306 . S
C70 O73 1.160 . S
O71 C70 1.306 . S
O71 Cd72 2.228 . S
Cd72 O71 2.228 . S
Cd72 O76 2.273 . S
Cd72 O80 2.277 . S
O73 C70 1.160 . S
O73 Cd74 2.203 . S
Cd74 O73 2.203 . S
Cd74 O76 2.411 . S
Cd74 O77 2.333 . S
Cd74 O78 2.352 . S
Cd74 O82 2.277 . S
Cd74 O83 2.356 . S
C75 O80 1.209 . S
C75 O82 1.226 . S
O76 Cd72 2.273 . S
O76 Cd74 2.411 . S
O76 C79 1.320 . S
O77 Cd74 2.333 . S
O77 C79 1.214 . S
O78 Cd74 2.352 . S
O78 C81 1.258 . S
C79 O76 1.320 . S
C79 O77 1.214 . S
O80 Cd72 2.277 . S
O80 C75 1.209 . S
C81 O78 1.258 . S
C81 O83 1.282 . S
O82 Cd74 2.277 . S
O82 C75 1.226 . S
O83 Cd74 2.356 . S
O83 C81 1.282 . S
C84 O85 1.306 . S
C84 O87 1.160 . S
O85 C84 1.306 . S
O85 Cd86 2.228 . S
Cd86 O85 2.228 . S
Cd86 O90 2.273 . S
Cd86 O94 2.277 . S
O87 C84 1.160 . S
O87 Cd88 2.203 . S
Cd88 O87 2.203 . S
Cd88 O90 2.411 . S
Cd88 O91 2.333 . S
Cd88 O92 2.352 . S
Cd88 O96 2.277 . S
Cd88 O97 2.356 . S
C89 O94 1.209 . S
C89 O96 1.226 . S
O90 Cd86 2.273 . S
O90 Cd88 2.411 . S
O90 C93 1.320 . S
O91 Cd88 2.333 . S
O91 C93 1.214 . S
O92 Cd88 2.352 . S
O92 C95 1.258 . S
C93 O90 1.320 . S
C93 O91 1.214 . S
O94 Cd86 2.277 . S
O94 C89 1.209 . S
C95 O92 1.258 . S
C95 O97 1.282 . S
O96 Cd88 2.277 . S
O96 C89 1.226 . S
O97 Cd88 2.356 . S
O97 C95 1.282 . S
C98 O99 1.306 . S
C98 O101 1.160 . S
O99 C98 1.306 . S
O99 Cd100 2.228 . S
Cd100 O99 2.228 . S
Cd100 O104 2.273 . S
Cd100 O108 2.277 . S
O101 C98 1.160 . S
O101 Cd102 2.203 . S
Cd102 O101 2.203 . S
Cd102 O104 2.411 . S
Cd102 O105 2.333 . S
Cd102 O106 2.352 . S
Cd102 O110 2.277 . S
Cd102 O111 2.356 . S
C103 O108 1.209 . S
C103 O110 1.226 . S
O104 Cd100 2.273 . S
O104 Cd102 2.411 . S
O104 C107 1.320 . S
O105 Cd102 2.333 . S
O105 C107 1.214 . S
O106 Cd102 2.352 . S
O106 C109 1.258 . S
C107 O104 1.320 . S
C107 O105 1.214 . S
O108 Cd100 2.277 . S
O108 C103 1.209 . S
C109 O106 1.258 . S
C109 O111 1.282 . S
O110 Cd102 2.277 . S
O110 C103 1.226 . S
O111 Cd102 2.356 . S
O111 C109 1.282 . S
C112 O113 1.306 . S
C112 O115 1.160 . S
O113 C112 1.306 . S
O113 Cd114 2.228 . S
Cd114 O113 2.228 . S
Cd114 O118 2.273 . S
Cd114 O122 2.277 . S
O115 C112 1.160 . S
O115 Cd116 2.203 . S
Cd116 O115 2.203 . S
Cd116 O118 2.411 . S
Cd116 O119 2.333 . S
Cd116 O120 2.352 . S
Cd116 O124 2.277 . S
Cd116 O125 2.356 . S
C117 O122 1.209 . S
C117 O124 1.226 . S
O118 Cd114 2.273 . S
O118 Cd116 2.411 . S
O118 C121 1.320 . S
O119 Cd116 2.333 . S
O119 C121 1.214 . S
O120 Cd116 2.352 . S
O120 C123 1.258 . S
C121 O118 1.320 . S
C121 O119 1.214 . S
O122 Cd114 2.277 . S
O122 C117 1.209 . S
C123 O120 1.258 . S
C123 O125 1.282 . S
O124 Cd116 2.277 . S
O124 C117 1.226 . S
O125 Cd116 2.356 . S
O125 C123 1.282 . S
C126 O127 1.306 . S
C126 O129 1.160 . S
O127 C126 1.306 . S
O127 Cd128 2.228 . S
Cd128 O127 2.228 . S
Cd128 O132 2.273 . S
Cd128 O136 2.277 . S
O129 C126 1.160 . S
O129 Cd130 2.203 . S
Cd130 O129 2.203 . S
Cd130 O132 2.411 . S
Cd130 O133 2.333 . S
Cd130 O134 2.352 . S
Cd130 O138 2.277 . S
Cd130 O139 2.356 . S
C131 O136 1.209 . S
C131 O138 1.226 . S
O132 Cd128 2.273 . S
O132 Cd130 2.411 . S
O132 C135 1.320 . S
O133 Cd130 2.333 . S
O133 C135 1.214 . S
O134 Cd130 2.352 . S
O134 C137 1.258 . S
C135 O132 1.320 . S
C135 O133 1.214 . S
O136 Cd128 2.277 . S
O136 C131 1.209 . S
C137 O134 1.258 . S
C137 O139 1.282 . S
O138 Cd130 2.277 . S
O138 C131 1.226 . S
O139 Cd130 2.356 . S
O139 C137 1.282 . S
C140 O141 1.306 . S
C140 O143 1.160 . S
O141 C140 1.306 . S
O141 Cd142 2.228 . S
Cd142 O141 2.228 . S
Cd142 O146 2.273 . S
Cd142 O150 2.277 . S
O143 C140 1.160 . S
O143 Cd144 2.203 . S
Cd144 O143 2.203 . S
Cd144 O146 2.411 . S
Cd144 O147 2.333 . S
Cd144 O148 2.352 . S
Cd144 O152 2.277 . S
Cd144 O153 2.356 . S
C145 O150 1.209 . S
C145 O152 1.226 . S
O146 Cd142 2.273 . S
O146 Cd144 2.411 . S
O146 C149 1.320 . S
O147 Cd144 2.333 . S
O147 C149 1.214 . S
O148 Cd144 2.352 . S
O148 C151 1.258 . S
C149 O146 1.320 . S
C149 O147 1.214 . S
O150 Cd142 2.277 . S
O150 C145 1.209 . S
C151 O148 1.258 . S
C151 O153 1.282 . S
O152 Cd144 2.277 . S
O152 C145 1.226 . S
O153 Cd144 2.356 . S
O153 C151 1.282 . S
C154 O155 1.306 . S
C154 O157 1.160 . S
O155 C154 1.306 . S
O155 Cd156 2.228 . S
Cd156 O155 2.228 . S
Cd156 O160 2.273 . S
Cd156 O164 2.277 . S
O157 C154 1.160 . S
O157 Cd158 2.203 . S
Cd158 O157 2.203 . S
Cd158 O160 2.411 . S
Cd158 O161 2.333 . S
Cd158 O162 2.352 . S
Cd158 O166 2.277 . S
Cd158 O167 2.356 . S
C159 O164 1.209 . S
C159 O166 1.226 . S
O160 Cd156 2.273 . S
O160 Cd158 2.411 . S
O160 C163 1.320 . S
O161 Cd158 2.333 . S
O161 C163 1.214 . S
O162 Cd158 2.352 . S
O162 C165 1.258 . S
C163 O160 1.320 . S
C163 O161 1.214 . S
O164 Cd156 2.277 . S
O164 C159 1.209 . S
C165 O162 1.258 . S
C165 O167 1.282 . S
O166 Cd158 2.277 . S
O166 C159 1.226 . S
O167 Cd158 2.356 . S
O167 C165 1.282 . S
C168 O169 1.306 . S
C168 O171 1.160 . S
O169 C168 1.306 . S
O169 Cd170 2.228 . S
Cd170 O169 2.228 . S
Cd170 O174 2.273 . S
Cd170 O178 2.277 . S
O171 C168 1.160 . S
O171 Cd172 2.203 . S
Cd172 O171 2.203 . S
Cd172 O174 2.411 . S
Cd172 O175 2.333 . S
Cd172 O176 2.352 . S
Cd172 O180 2.277 . S
Cd172 O181 2.356 . S
C173 O178 1.209 . S
C173 O180 1.226 . S
O174 Cd170 2.273 . S
O174 Cd172 2.411 . S
O174 C177 1.320 . S
O175 Cd172 2.333 . S
O175 C177 1.214 . S
O176 Cd172 2.352 . S
O176 C179 1.258 . S
C177 O174 1.320 . S
C177 O175 1.214 . S
O178 Cd170 2.277 . S
O178 C173 1.209 . S
C179 O176 1.258 . S
C179 O181 1.282 . S
O180 Cd172 2.277 . S
O180 C173 1.226 . S
O181 Cd172 2.356 . S
O181 C179 1.282 . S
C182 O183 1.306 . S
C182 O185 1.160 . S
O183 C182 1.306 . S
O183 Cd184 2.228 . S
Cd184 O183 2.228 . S
Cd184 O188 2.273 . S
Cd184 O192 2.277 . S
O185 C182 1.160 . S
O185 Cd186 2.203 . S
Cd186 O185 2.203 . S
Cd186 O188 2.411 . S
Cd186 O189 2.333 . S
Cd186 O190 2.352 . S
Cd186 O194 2.277 . S
Cd186 O195 2.356 . S
C187 O192 1.209 . S
C187 O194 1.226 . S
O188 Cd184 2.273 . S
O188 Cd186 2.411 . S
O188 C191 1.320 . S
O189 Cd186 2.333 . S
O189 C191 1.214 . S
O190 Cd186 2.352 . S
O190 C193 1.258 . S
C191 O188 1.320 . S
C191 O189 1.214 . S
O192 Cd184 2.277 . S
O192 C187 1.209 . S
C193 O190 1.258 . S
C193 O195 1.282 . S
O194 Cd186 2.277 . S
O194 C187 1.226 . S
O195 Cd186 2.356 . S
O195 C193 1.282 . S
C196 O197 1.306 . S
C196 O199 1.160 . S
O197 C196 1.306 . S
O197 Cd198 2.228 . S
Cd198 O197 2.228 . S
Cd198 O202 2.273 . S
Cd198 O206 2.277 . S
O199 C196 1.160 . S
O199 Cd200 2.203 . S
Cd200 O199 2.203 . S
Cd200 O202 2.411 . S
Cd200 O203 2.333 . S
Cd200 O204 2.352 . S
Cd200 O208 2.277 . S
Cd200 O209 2.356 . S
C201 O206 1.209 . S
C201 O208 1.226 . S
O202 Cd198 2.273 . S
O202 Cd200 2.411 . S
O202 C205 1.320 . S
O203 Cd200 2.333 . S
O203 C205 1.214 . S
O204 Cd200 2.352 . S
O204 C207 1.258 . S
C205 O202 1.320 . S
C205 O203 1.214 . S
O206 Cd198 2.277 . S
O206 C201 1.209 . S
C207 O204 1.258 . S
C207 O209 1.282 . S
O208 Cd200 2.277 . S
O208 C201 1.226 . S
O209 Cd200 2.356 . S
O209 C207 1.282 . S
C210 O211 1.306 . S
C210 O213 1.160 . S
O211 C210 1.306 . S
O211 Cd212 2.228 . S
Cd212 O211 2.228 . S
Cd212 O216 2.273 . S
Cd212 O220 2.277 . S
O213 C210 1.160 . S
O213 Cd214 2.203 . S
Cd214 O213 2.203 . S
Cd214 O216 2.411 . S
Cd214 O217 2.333 . S
Cd214 O218 2.352 . S
Cd214 O222 2.277 . S
Cd214 O223 2.356 . S
C215 O220 1.209 . S
C215 O222 1.226 . S
O216 Cd212 2.273 . S
O216 Cd214 2.411 . S
O216 C219 1.320 . S
O217 Cd214 2.333 . S
O217 C219 1.214 . S
O218 Cd214 2.352 . S
O218 C221 1.258 . S
C219 O216 1.320 . S
C219 O217 1.214 . S
O220 Cd212 2.277 . S
O220 C215 1.209 . S
C221 O218 1.258 . S
C221 O223 1.282 . S
O222 Cd214 2.277 . S
O222 C215 1.226 . S
O223 Cd214 2.356 . S
O223 C221 1.282 . S
C224 O225 1.306 . S
C224 O227 1.160 . S
O225 C224 1.306 . S
O225 Cd226 2.228 . S
Cd226 O225 2.228 . S
Cd226 O230 2.273 . S
Cd226 O234 2.277 . S
O227 C224 1.160 . S
O227 Cd228 2.203 . S
Cd228 O227 2.203 . S
Cd228 O230 2.411 . S
Cd228 O231 2.333 . S
Cd228 O232 2.352 . S
Cd228 O236 2.277 . S
Cd228 O237 2.356 . S
C229 O234 1.209 . S
C229 O236 1.226 . S
O230 Cd226 2.273 . S
O230 Cd228 2.411 . S
O230 C233 1.320 . S
O231 Cd228 2.333 . S
O231 C233 1.214 . S
O232 Cd228 2.352 . S
O232 C235 1.258 . S
C233 O230 1.320 . S
C233 O231 1.214 . S
O234 Cd226 2.277 . S
O234 C229 1.209 . S
C235 O232 1.258 . S
C235 O237 1.282 . S
O236 Cd228 2.277 . S
O236 C229 1.226 . S
O237 Cd228 2.356 . S
O237 C235 1.282 . S
C238 O239 1.306 . S
C238 O241 1.160 . S
O239 C238 1.306 . S
O239 Cd240 2.228 . S
Cd240 O239 2.228 . S
Cd240 O244 2.273 . S
Cd240 O248 2.277 . S
O241 C238 1.160 . S
O241 Cd242 2.203 . S
Cd242 O241 2.203 . S
Cd242 O244 2.411 . S
Cd242 O245 2.333 . S
Cd242 O246 2.352 . S
Cd242 O250 2.277 . S
Cd242 O251 2.356 . S
C243 O248 1.209 . S
C243 O250 1.226 . S
O244 Cd240 2.273 . S
O244 Cd242 2.411 . S
O244 C247 1.320 . S
O245 Cd242 2.333 . S
O245 C247 1.214 . S
O246 Cd242 2.352 . S
O246 C249 1.258 . S
C247 O244 1.320 . S
C247 O245 1.214 . S
O248 Cd240 2.277 . S
O248 C243 1.209 . S
C249 O246 1.258 . S
C249 O251 1.282 . S
O250 Cd242 2.277 . S
O250 C243 1.226 . S
O251 Cd242 2.356 . S
O251 C249 1.282 . S
C252 O253 1.306 . S
C252 O255 1.160 . S
O253 C252 1.306 . S
O253 Cd254 2.228 . S
Cd254 O253 2.228 . S
Cd254 O258 2.273 . S
Cd254 O262 2.277 . S
O255 C252 1.160 . S
O255 Cd256 2.203 . S
Cd256 O255 2.203 . S
Cd256 O258 2.411 . S
Cd256 O259 2.333 . S
Cd256 O260 2.352 . S
Cd256 O264 2.277 . S
Cd256 O265 2.356 . S
C257 O262 1.209 . S
C257 O264 1.226 . S
O258 Cd254 2.273 . S
O258 Cd256 2.411 . S
O258 C261 1.320 . S
O259 Cd256 2.333 . S
O259 C261 1.214 . S
O260 Cd256 2.352 . S
O260 C263 1.258 . S
C261 O258 1.320 . S
C261 O259 1.214 . S
O262 Cd254 2.277 . S
O262 C257 1.209 . S
C263 O260 1.258 . S
C263 O265 1.282 . S
O264 Cd256 2.277 . S
O264 C257 1.226 . S
O265 Cd256 2.356 . S
O265 C263 1.282 . S
C266 O267 1.306 . S
C266 O269 1.160 . S
O267 C266 1.306 . S
O267 Cd268 2.228 . S
Cd268 O267 2.228 . S
Cd268 O272 2.273 . S
Cd268 O276 2.277 . S
O269 C266 1.160 . S
O269 Cd270 2.203 . S
Cd270 O269 2.203 . S
Cd270 O272 2.411 . S
Cd270 O273 2.333 . S
Cd270 O274 2.352 . S
Cd270 O278 2.277 . S
Cd270 O279 2.356 . S
C271 O276 1.209 . S
C271 O278 1.226 . S
O272 Cd268 2.273 . S
O272 Cd270 2.411 . S
O272 C275 1.320 . S
O273 Cd270 2.333 . S
O273 C275 1.214 . S
O274 Cd270 2.352 . S
O274 C277 1.258 . S
C275 O272 1.320 . S
C275 O273 1.214 . S
O276 Cd268 2.277 . S
O276 C271 1.209 . S
C277 O274 1.258 . S
C277 O279 1.282 . S
O278 Cd270 2.277 . S
O278 C271 1.226 . S
O279 Cd270 2.356 . S
O279 C277 1.282 . S
C280 O281 1.306 . S
C280 O283 1.160 . S
O281 C280 1.306 . S
O281 Cd282 2.228 . S
Cd282 O281 2.228 . S
Cd282 O286 2.273 . S
Cd282 O290 2.277 . S
O283 C280 1.160 . S
O283 Cd284 2.203 . S
Cd284 O283 2.203 . S
Cd284 O286 2.411 . S
Cd284 O287 2.333 . S
Cd284 O288 2.352 . S
Cd284 O292 2.277 . S
Cd284 O293 2.356 . S
C285 O290 1.209 . S
C285 O292 1.226 . S
O286 Cd282 2.273 . S
O286 Cd284 2.411 . S
O286 C289 1.320 . S
O287 Cd284 2.333 . S
O287 C289 1.214 . S
O288 Cd284 2.352 . S
O288 C291 1.258 . S
C289 O286 1.320 . S
C289 O287 1.214 . S
O290 Cd282 2.277 . S
O290 C285 1.209 . S
C291 O288 1.258 . S
C291 O293 1.282 . S
O292 Cd284 2.277 . S
O292 C285 1.226 . S
O293 Cd284 2.356 . S
O293 C291 1.282 . S
C294 O295 1.306 . S
C294 O297 1.160 . S
O295 C294 1.306 . S
O295 Cd296 2.228 . S
Cd296 O295 2.228 . S
Cd296 O300 2.273 . S
Cd296 O304 2.277 . S
O297 C294 1.160 . S
O297 Cd298 2.203 . S
Cd298 O297 2.203 . S
Cd298 O300 2.411 . S
Cd298 O301 2.333 . S
Cd298 O302 2.352 . S
Cd298 O306 2.277 . S
Cd298 O307 2.356 . S
C299 O304 1.209 . S
C299 O306 1.226 . S
O300 Cd296 2.273 . S
O300 Cd298 2.411 . S
O300 C303 1.320 . S
O301 Cd298 2.333 . S
O301 C303 1.214 . S
O302 Cd298 2.352 . S
O302 C305 1.258 . S
C303 O300 1.320 . S
C303 O301 1.214 . S
O304 Cd296 2.277 . S
O304 C299 1.209 . S
C305 O302 1.258 . S
C305 O307 1.282 . S
O306 Cd298 2.277 . S
O306 C299 1.226 . S
O307 Cd298 2.356 . S
O307 C305 1.282 . S
C308 O309 1.306 . S
C308 O311 1.160 . S
O309 C308 1.306 . S
O309 Cd310 2.228 . S
Cd310 O309 2.228 . S
Cd310 O314 2.273 . S
Cd310 O318 2.277 . S
O311 C308 1.160 . S
O311 Cd312 2.203 . S
Cd312 O311 2.203 . S
Cd312 O314 2.411 . S
Cd312 O315 2.333 . S
Cd312 O316 2.352 . S
Cd312 O320 2.277 . S
Cd312 O321 2.356 . S
C313 O318 1.209 . S
C313 O320 1.226 . S
O314 Cd310 2.273 . S
O314 Cd312 2.411 . S
O314 C317 1.320 . S
O315 Cd312 2.333 . S
O315 C317 1.214 . S
O316 Cd312 2.352 . S
O316 C319 1.258 . S
C317 O314 1.320 . S
C317 O315 1.214 . S
O318 Cd310 2.277 . S
O318 C313 1.209 . S
C319 O316 1.258 . S
C319 O321 1.282 . S
O320 Cd312 2.277 . S
O320 C313 1.226 . S
O321 Cd312 2.356 . S
O321 C319 1.282 . S
C322 O323 1.306 . S
C322 O325 1.160 . S
O323 C322 1.306 . S
O323 Cd324 2.228 . S
Cd324 O323 2.228 . S
Cd324 O328 2.273 . S
Cd324 O332 2.277 . S
O325 C322 1.160 . S
O325 Cd326 2.203 . S
Cd326 O325 2.203 . S
Cd326 O328 2.411 . S
Cd326 O329 2.333 . S
Cd326 O330 2.352 . S
Cd326 O334 2.277 . S
Cd326 O335 2.356 . S
C327 O332 1.209 . S
C327 O334 1.226 . S
O328 Cd324 2.273 . S
O328 Cd326 2.411 . S
O328 C331 1.320 . S
O329 Cd326 2.333 . S
O329 C331 1.214 . S
O330 Cd326 2.352 . S
O330 C333 1.258 . S
C331 O328 1.320 . S
C331 O329 1.214 . S
O332 Cd324 2.277 . S
O332 C327 1.209 . S
C333 O330 1.258 . S
C333 O335 1.282 . S
O334 Cd326 2.277 . S
O334 C327 1.226 . S
O335 Cd326 2.356 . S
O335 C333 1.282 . S
C336 C337 1.369 . S
C336 C338 1.419 1_545 S
C336 H340 0.930 . S
C337 C336 1.369 . S
C337 C346 1.429 . S
C338 C336 1.419 1_565 S
C338 C339 1.363 . S
C338 H341 0.929 . S
C339 C338 1.363 . S
C339 C345 1.428 . S
H340 C336 0.930 . S
H341 C338 0.929 . S
S342 N343 1.613 1_565 S
S342 N344 1.610 . S
N343 S342 1.613 1_545 S
N343 C346 1.350 . S
N344 S342 1.610 . S
N344 C345 1.351 . S
C345 C339 1.428 . S
C345 N344 1.351 . S
C345 C346 1.434 1_565 S
C346 C337 1.429 . S
C346 N343 1.350 . S
C346 C345 1.434 1_545 S
C347 C348 1.369 . S
C347 C349 1.419 . S
C347 H351 0.930 . S
C348 C347 1.369 . S
C348 C357 1.429 . S
C349 C347 1.419 . S
C349 C350 1.363 . S
C349 H352 0.929 . S
C350 C349 1.363 . S
C350 C356 1.428 . S
H351 C347 0.930 . S
H352 C349 0.929 . S
S353 N354 1.613 . S
S353 N355 1.610 . S
N354 S353 1.613 . S
N354 C357 1.350 . S
N355 S353 1.610 . S
N355 C356 1.351 . S
C356 C350 1.428 . S
C356 N355 1.351 . S
C356 C357 1.434 . S
C357 C348 1.429 . S
C357 N354 1.350 . S
C357 C356 1.434 . S
C358 C359 1.369 . S
C358 C360 1.419 1_655 S
C358 H362 0.930 . S
C359 C358 1.369 . S
C359 C368 1.429 . S
C360 C358 1.419 1_455 S
C360 C361 1.363 . S
C360 H363 0.929 . S
C361 C360 1.363 . S
C361 C367 1.428 . S
H362 C358 0.930 . S
H363 C360 0.929 . S
S364 N365 1.613 . S
S364 N366 1.610 1_655 S
N365 S364 1.613 . S
N365 C368 1.350 . S
N366 S364 1.610 1_455 S
N366 C367 1.351 . S
C367 C361 1.428 . S
C367 N366 1.351 . S
C367 C368 1.434 1_455 S
C368 C359 1.429 . S
C368 N365 1.350 . S
C368 C367 1.434 1_655 S
C369 C370 1.369 . S
C369 C371 1.419 1_565 S
C369 H373 0.930 . S
C370 C369 1.369 . S
C370 C379 1.429 . S
C371 C369 1.419 1_545 S
C371 C372 1.363 . S
C371 H374 0.929 . S
C372 C371 1.363 . S
C372 C378 1.428 . S
H373 C369 0.930 . S
H374 C371 0.929 . S
S375 N376 1.613 1_545 S
S375 N377 1.610 . S
N376 S375 1.613 1_565 S
N376 C379 1.350 . S
N377 S375 1.610 . S
N377 C378 1.351 . S
C378 C372 1.428 . S
C378 N377 1.351 . S
C378 C379 1.434 1_545 S
C379 C370 1.429 . S
C379 N376 1.350 . S
C379 C378 1.434 1_565 S
C380 C381 1.369 . S
C380 C382 1.419 . S
C380 H384 0.930 . S
C381 C380 1.369 . S
C381 C390 1.429 . S
C382 C380 1.419 . S
C382 C383 1.363 . S
C382 H385 0.929 . S
C383 C382 1.363 . S
C383 C389 1.428 . S
H384 C380 0.930 . S
H385 C382 0.929 . S
S386 N387 1.613 . S
S386 N388 1.610 . S
N387 S386 1.613 . S
N387 C390 1.350 . S
N388 S386 1.610 . S
N388 C389 1.351 . S
C389 C383 1.428 . S
C389 N388 1.351 . S
C389 C390 1.434 . S
C390 C381 1.429 . S
C390 N387 1.350 . S
C390 C389 1.434 . S
C391 C392 1.369 . S
C391 C393 1.419 1_455 S
C391 H395 0.930 . S
C392 C391 1.369 . S
C392 C401 1.429 . S
C393 C391 1.419 1_655 S
C393 C394 1.363 . S
C393 H396 0.929 . S
C394 C393 1.363 . S
C394 C400 1.428 . S
H395 C391 0.930 . S
H396 C393 0.929 . S
S397 N398 1.613 1_655 S
S397 N399 1.610 . S
N398 S397 1.613 1_455 S
N398 C401 1.350 . S
N399 S397 1.610 . S
N399 C400 1.351 . S
C400 C394 1.428 . S
C400 N399 1.351 . S
C400 C401 1.434 1_655 S
C401 C392 1.429 . S
C401 N398 1.350 . S
C401 C400 1.434 1_455 S
C402 C403 1.369 . S
C402 C404 1.419 1_565 S
C402 H406 0.930 . S
C403 C402 1.369 . S
C403 C412 1.429 . S
C404 C402 1.419 1_545 S
C404 C405 1.363 . S
C404 H407 0.929 . S
C405 C404 1.363 . S
C405 C411 1.428 . S
H406 C402 0.930 . S
H407 C404 0.929 . S
S408 N409 1.588 1_545 S
S408 N410 1.610 . S
N409 S408 1.588 1_565 S
N409 C412 1.350 . S
N410 S408 1.610 . S
N410 C411 1.351 . S
C411 C405 1.428 . S
C411 N410 1.351 . S
C411 C412 1.434 1_545 S
C412 C403 1.429 . S
C412 N409 1.350 . S
C412 C411 1.434 1_565 S
C413 C414 1.369 . S
C413 C415 1.419 . S
C413 H417 0.930 . S
C414 C413 1.369 . S
C414 C423 1.429 . S
C415 C413 1.419 . S
C415 C416 1.363 . S
C415 H418 0.929 . S
C416 C415 1.363 . S
C416 C422 1.428 . S
H417 C413 0.930 . S
H418 C415 0.929 . S
S419 N420 1.613 . S
S419 N421 1.610 . S
N420 S419 1.613 . S
N420 C423 1.350 . S
N421 S419 1.610 . S
N421 C422 1.351 . S
C422 C416 1.428 . S
C422 N421 1.351 . S
C422 C423 1.434 . S
C423 C414 1.429 . S
C423 N420 1.350 . S
C423 C422 1.434 . S
C424 C425 1.369 . S
C424 C426 1.419 1_655 S
C424 H428 0.930 . S
C425 C424 1.369 . S
C425 C434 1.429 . S
C426 C424 1.419 1_455 S
C426 C427 1.363 . S
C426 H429 0.929 . S
C427 C426 1.363 . S
C427 C433 1.428 . S
H428 C424 0.930 . S
H429 C426 0.929 . S
S430 N431 1.613 1_455 S
S430 N432 1.610 . S
N431 S430 1.613 1_655 S
N431 C434 1.350 . S
N432 S430 1.610 . S
N432 C433 1.351 . S
C433 C427 1.428 . S
C433 N432 1.351 . S
C433 C434 1.434 1_455 S
C434 C425 1.429 . S
C434 N431 1.350 . S
C434 C433 1.434 1_655 S
C435 C436 1.369 . S
C435 C437 1.419 1_545 S
C435 H439 0.930 . S
C436 C435 1.369 . S
C436 C445 1.429 . S
C437 C435 1.419 1_565 S
C437 C438 1.363 . S
C437 H440 0.929 . S
C438 C437 1.363 . S
C438 C444 1.428 . S
H439 C435 0.930 . S
H440 C437 0.929 . S
S441 N442 1.613 . S
S441 N443 1.610 1_545 S
N442 S441 1.613 . S
N442 C445 1.350 . S
N443 S441 1.610 1_565 S
N443 C444 1.351 . S
C444 C438 1.428 . S
C444 N443 1.351 . S
C444 C445 1.434 1_565 S
C445 C436 1.429 . S
C445 N442 1.350 . S
C445 C444 1.434 1_545 S
C446 C447 1.369 . S
C446 C448 1.419 . S
C446 H450 0.930 . S
C447 C446 1.369 . S
C447 C456 1.429 . S
C448 C446 1.419 . S
C448 C449 1.363 . S
C448 H451 0.929 . S
C449 C448 1.363 . S
C449 C455 1.428 . S
H450 C446 0.930 . S
H451 C448 0.929 . S
S452 N453 1.613 . S
S452 N454 1.610 . S
N453 S452 1.613 . S
N453 C456 1.350 . S
N454 S452 1.610 . S
N454 C455 1.351 . S
C455 C449 1.428 . S
C455 N454 1.351 . S
C455 C456 1.434 . S
C456 C447 1.429 . S
C456 N453 1.350 . S
C456 C455 1.434 . S
C457 C458 1.369 . S
C457 C459 1.419 1_455 S
C457 H461 0.930 . S
C458 C457 1.369 . S
C458 C467 1.429 . S
C459 C457 1.419 1_655 S
C459 C460 1.363 . S
C459 H462 0.929 . S
C460 C459 1.363 . S
C460 C466 1.428 . S
H461 C457 0.930 . S
H462 C459 0.929 . S
S463 N464 1.613 . S
S463 N465 1.610 1_455 S
N464 S463 1.613 . S
N464 C467 1.350 . S
N465 S463 1.610 1_655 S
N465 C466 1.351 . S
C466 C460 1.428 . S
C466 N465 1.351 . S
C466 C467 1.434 1_655 S
C467 C458 1.429 . S
C467 N464 1.350 . S
C467 C466 1.434 1_455 S
C468 C469 1.369 . S
C468 C470 1.419 . S
C468 H472 0.930 . S
C469 C468 1.369 . S
C469 C478 1.429 . S
C470 C468 1.419 . S
C470 C471 1.363 . S
C470 H473 0.929 . S
C471 C470 1.363 . S
C471 C477 1.428 . S
H472 C468 0.930 . S
H473 C470 0.929 . S
S474 N475 1.613 . S
S474 N476 1.610 . S
N475 S474 1.613 . S
N475 C478 1.350 . S
N476 S474 1.610 . S
N476 C477 1.351 . S
C477 C471 1.428 . S
C477 N476 1.351 . S
C477 C478 1.434 . S
C478 C469 1.429 . S
C478 N475 1.350 . S
C478 C477 1.434 . S
C479 C480 1.369 . S
C479 C481 1.419 . S
C479 H483 0.930 . S
C480 C479 1.369 . S
C480 C489 1.429 . S
C481 C479 1.419 . S
C481 C482 1.363 . S
C481 H484 0.929 . S
C482 C481 1.363 . S
C482 C488 1.428 . S
H483 C479 0.930 . S
H484 C481 0.929 . S
S485 N486 1.613 . S
S485 N487 1.610 . S
N486 S485 1.613 . S
N486 C489 1.350 . S
N487 S485 1.610 . S
N487 C488 1.351 . S
C488 C482 1.428 . S
C488 N487 1.351 . S
C488 C489 1.434 . S
C489 C480 1.429 . S
C489 N486 1.350 . S
C489 C488 1.434 . S
C490 C491 1.369 . S
C490 C492 1.419 . S
C490 H494 0.930 . S
C491 C490 1.369 . S
C491 C500 1.429 . S
C492 C490 1.419 . S
C492 C493 1.363 . S
C492 H495 0.929 . S
C493 C492 1.363 . S
C493 C499 1.428 . S
H494 C490 0.930 . S
H495 C492 0.929 . S
S496 N497 1.613 . S
S496 N498 1.610 . S
N497 S496 1.613 . S
N497 C500 1.350 . S
N498 S496 1.610 . S
N498 C499 1.351 . S
C499 C493 1.428 . S
C499 N498 1.351 . S
C499 C500 1.434 . S
C500 C491 1.429 . S
C500 N497 1.350 . S
C500 C499 1.434 . S
C501 C502 1.369 . S
C501 C503 1.419 . S
C501 H505 0.930 . S
C502 C501 1.369 . S
C502 C511 1.429 . S
C503 C501 1.419 . S
C503 C504 1.363 . S
C503 H506 0.929 . S
C504 C503 1.363 . S
C504 C510 1.428 . S
H505 C501 0.930 . S
H506 C503 0.929 . S
S507 N508 1.613 . S
S507 N509 1.610 . S
N508 S507 1.613 . S
N508 C511 1.350 . S
N509 S507 1.610 . S
N509 C510 1.351 . S
C510 C504 1.428 . S
C510 N509 1.351 . S
C510 C511 1.434 . S
C511 C502 1.429 . S
C511 N508 1.350 . S
C511 C510 1.434 . S
C512 C513 1.369 . S
C512 C514 1.419 . S
C512 H516 0.930 . S
C513 C512 1.369 . S
C513 C522 1.429 . S
C514 C512 1.419 . S
C514 C515 1.363 . S
C514 H517 0.929 . S
C515 C514 1.363 . S
C515 C521 1.428 . S
H516 C512 0.930 . S
H517 C514 0.929 . S
S518 N519 1.613 . S
S518 N520 1.610 . S
N519 S518 1.613 . S
N519 C522 1.350 . S
N520 S518 1.610 . S
N520 C521 1.351 . S
C521 C515 1.428 . S
C521 N520 1.351 . S
C521 C522 1.434 . S
C522 C513 1.429 . S
C522 N519 1.350 . S
C522 C521 1.434 . S
C523 C524 1.369 . S
C523 C525 1.419 . S
C523 H527 0.930 . S
C524 C523 1.369 . S
C524 C533 1.429 . S
C525 C523 1.419 . S
C525 C526 1.363 . S
C525 H528 0.929 . S
C526 C525 1.363 . S
C526 C532 1.428 . S
H527 C523 0.930 . S
H528 C525 0.929 . S
S529 N530 1.613 . S
S529 N531 1.610 . S
N530 S529 1.613 . S
N530 C533 1.350 . S
N531 S529 1.610 . S
N531 C532 1.351 . S
C532 C526 1.428 . S
C532 N531 1.351 . S
C532 C533 1.434 . S
C533 C524 1.429 . S
C533 N530 1.350 . S
C533 C532 1.434 . S
C534 C535 1.369 . S
C534 C536 1.419 . S
C534 H538 0.930 . S
C535 C534 1.369 . S
C535 C544 1.429 . S
C536 C534 1.419 . S
C536 C537 1.363 . S
C536 H539 0.929 . S
C537 C536 1.363 . S
C537 C543 1.428 . S
H538 C534 0.930 . S
H539 C536 0.929 . S
S540 N541 1.613 . S
S540 N542 1.610 . S
N541 S540 1.613 . S
N541 C544 1.350 . S
N542 S540 1.610 . S
N542 C543 1.351 . S
C543 C537 1.428 . S
C543 N542 1.351 . S
C543 C544 1.434 . S
C544 C535 1.429 . S
C544 N541 1.350 . S
C544 C543 1.434 . S
C545 C546 1.369 . S
C545 C547 1.419 . S
C545 H549 0.930 . S
C546 C545 1.369 . S
C546 C555 1.429 . S
C547 C545 1.419 . S
C547 C548 1.363 . S
C547 H550 0.929 . S
C548 C547 1.363 . S
C548 C554 1.428 . S
H549 C545 0.930 . S
H550 C547 0.929 . S
S551 N552 1.613 . S
S551 N553 1.610 . S
N552 S551 1.613 . S
N552 C555 1.350 . S
N553 S551 1.610 . S
N553 C554 1.351 . S
C554 C548 1.428 . S
C554 N553 1.351 . S
C554 C555 1.434 . S
C555 C546 1.429 . S
C555 N552 1.350 . S
C555 C554 1.434 . S
C556 C557 1.369 . S
C556 C558 1.419 . S
C556 H560 0.930 . S
C557 C556 1.369 . S
C557 C566 1.429 . S
C558 C556 1.419 . S
C558 C559 1.363 . S
C558 H561 0.929 . S
C559 C558 1.363 . S
C559 C565 1.428 . S
H560 C556 0.930 . S
H561 C558 0.929 . S
S562 N563 1.613 . S
S562 N564 1.610 . S
N563 S562 1.613 . S
N563 C566 1.350 . S
N564 S562 1.610 . S
N564 C565 1.351 . S
C565 C559 1.428 . S
C565 N564 1.351 . S
C565 C566 1.434 . S
C566 C557 1.429 . S
C566 N563 1.350 . S
C566 C565 1.434 . S
C567 C568 1.369 . S
C567 C569 1.419 . S
C567 H571 0.930 . S
C568 C567 1.369 . S
C568 C577 1.429 . S
C569 C567 1.419 . S
C569 C570 1.363 . S
C569 H572 0.929 . S
C570 C569 1.363 . S
C570 C576 1.428 . S
H571 C567 0.930 . S
H572 C569 0.929 . S
S573 N574 1.613 . S
S573 N575 1.610 . S
N574 S573 1.613 . S
N574 C577 1.350 . S
N575 S573 1.610 . S
N575 C576 1.351 . S
C576 C570 1.428 . S
C576 N575 1.351 . S
C576 C577 1.434 . S
C577 C568 1.429 . S
C577 N574 1.350 . S
C577 C576 1.434 . S
C578 C579 1.369 . S
C578 C580 1.419 . S
C578 H582 0.930 . S
C579 C578 1.369 . S
C579 C588 1.429 . S
C580 C578 1.419 . S
C580 C581 1.363 . S
C580 H583 0.929 . S
C581 C580 1.363 . S
C581 C587 1.428 . S
H582 C578 0.930 . S
H583 C580 0.929 . S
S584 N585 1.613 . S
S584 N586 1.610 . S
N585 S584 1.613 . S
N585 C588 1.350 . S
N586 S584 1.610 . S
N586 C587 1.351 . S
C587 C581 1.428 . S
C587 N586 1.351 . S
C587 C588 1.434 . S
C588 C579 1.429 . S
C588 N585 1.350 . S
C588 C587 1.434 . S
C589 C590 1.369 . S
C589 C591 1.419 . S
C589 H593 0.930 . S
C590 C589 1.369 . S
C590 C599 1.429 . S
C591 C589 1.419 . S
C591 C592 1.363 . S
C591 H594 0.929 . S
C592 C591 1.363 . S
C592 C598 1.428 . S
H593 C589 0.930 . S
H594 C591 0.929 . S
S595 N596 1.613 . S
S595 N597 1.610 . S
N596 S595 1.613 . S
N596 C599 1.350 . S
N597 S595 1.610 . S
N597 C598 1.351 . S
C598 C592 1.428 . S
C598 N597 1.351 . S
C598 C599 1.434 . S
C599 C590 1.429 . S
C599 N596 1.350 . S
C599 C598 1.434 . S
C600 C601 1.369 . S
C600 C602 1.419 1_554 S
C600 H604 0.930 . S
C601 C600 1.369 . S
C601 C610 1.429 . S
C602 C600 1.419 1_556 S
C602 C603 1.363 . S
C602 H605 0.929 . S
C603 C602 1.363 . S
C603 C609 1.428 . S
H604 C600 0.930 . S
H605 C602 0.929 . S
S606 N607 1.615 1_556 S
S606 N608 1.609 . S
N607 S606 1.615 1_554 S
N607 C610 1.350 . S
N608 S606 1.609 . S
N608 C609 1.351 . S
C609 C603 1.428 . S
C609 N608 1.351 . S
C609 C610 1.434 1_556 S
C610 C601 1.429 . S
C610 N607 1.350 . S
C610 C609 1.434 1_554 S
C611 C612 1.369 . S
C611 C613 1.419 1_556 S
C611 H615 0.930 . S
C612 C611 1.369 . S
C612 C621 1.429 . S
C613 C611 1.419 1_554 S
C613 C614 1.363 . S
C613 H616 0.929 . S
C614 C613 1.363 . S
C614 C620 1.428 . S
H615 C611 0.930 . S
H616 C613 0.929 . S
S617 N618 1.615 1_554 S
S617 N619 1.609 . S
N618 S617 1.615 1_556 S
N618 C621 1.350 . S
N619 S617 1.609 . S
N619 C620 1.351 . S
C620 C614 1.428 . S
C620 N619 1.351 . S
C620 C621 1.434 1_554 S
C621 C612 1.429 . S
C621 N618 1.350 . S
C621 C620 1.434 1_556 S
C622 C623 1.369 . S
C622 C624 1.419 1_556 S
C622 H626 0.930 . S
C623 C622 1.369 . S
C623 C632 1.429 . S
C624 C622 1.419 1_554 S
C624 C625 1.363 . S
C624 H627 0.929 . S
C625 C624 1.363 . S
C625 C631 1.428 . S
H626 C622 0.930 . S
H627 C624 0.929 . S
S628 N629 1.615 1_554 S
S628 N630 1.609 . S
N629 S628 1.615 1_556 S
N629 C632 1.350 . S
N630 S628 1.609 . S
N630 C631 1.351 . S
C631 C625 1.428 . S
C631 N630 1.351 . S
C631 C632 1.434 1_554 S
C632 C623 1.429 . S
C632 N629 1.350 . S
C632 C631 1.434 1_556 S
C633 C634 1.369 . S
C633 C635 1.419 1_554 S
C633 H637 0.930 . S
C634 C633 1.369 . S
C634 C643 1.429 . S
C635 C633 1.419 1_556 S
C635 C636 1.363 . S
C635 H638 0.929 . S
C636 C635 1.363 . S
C636 C642 1.428 . S
H637 C633 0.930 . S
H638 C635 0.929 . S
S639 N640 1.615 1_556 S
S639 N641 1.609 . S
N640 S639 1.615 1_554 S
N640 C643 1.350 . S
N641 S639 1.609 . S
N641 C642 1.351 . S
C642 C636 1.428 . S
C642 N641 1.351 . S
C642 C643 1.434 1_556 S
C643 C634 1.429 . S
C643 N640 1.350 . S
C643 C642 1.434 1_554 S
C644 C645 1.369 . S
C644 C646 1.419 1_554 S
C644 H648 0.930 . S
C645 C644 1.369 . S
C645 C654 1.429 . S
C646 C644 1.419 1_556 S
C646 C647 1.363 . S
C646 H649 0.929 . S
C647 C646 1.363 . S
C647 C653 1.428 . S
H648 C644 0.930 . S
H649 C646 0.929 . S
S650 N651 1.615 1_556 S
S650 N652 1.609 . S
N651 S650 1.615 1_554 S
N651 C654 1.350 . S
N652 S650 1.609 . S
N652 C653 1.351 . S
C653 C647 1.428 . S
C653 N652 1.351 . S
C653 C654 1.434 1_556 S
C654 C645 1.429 . S
C654 N651 1.350 . S
C654 C653 1.434 1_554 S
C655 C656 1.369 . S
C655 C657 1.419 1_556 S
C655 H659 0.930 . S
C656 C655 1.369 . S
C656 C665 1.429 . S
C657 C655 1.419 1_554 S
C657 C658 1.363 . S
C657 H660 0.929 . S
C658 C657 1.363 . S
C658 C664 1.428 . S
H659 C655 0.930 . S
H660 C657 0.929 . S
S661 N662 1.615 1_554 S
S661 N663 1.609 . S
N662 S661 1.615 1_556 S
N662 C665 1.350 . S
N663 S661 1.609 . S
N663 C664 1.351 . S
C664 C658 1.428 . S
C664 N663 1.351 . S
C664 C665 1.434 1_554 S
C665 C656 1.429 . S
C665 N662 1.350 . S
C665 C664 1.434 1_556 S
C666 C667 1.369 . S
C666 C668 1.419 . S
C666 H670 0.930 . S
C667 C666 1.369 . S
C667 C676 1.429 . S
C668 C666 1.419 . S
C668 C669 1.363 . S
C668 H671 0.929 . S
C669 C668 1.363 . S
C669 C675 1.428 . S
H670 C666 0.930 . S
H671 C668 0.929 . S
S672 N673 1.613 . S
S672 N674 1.610 . S
N673 S672 1.613 . S
N673 C676 1.350 . S
N674 S672 1.610 . S
N674 C675 1.351 . S
C675 C669 1.428 . S
C675 N674 1.351 . S
C675 C676 1.434 . S
C676 C667 1.429 . S
C676 N673 1.350 . S
C676 C675 1.434 . S
C677 C678 1.369 . S
C677 C679 1.419 . S
C677 H681 0.930 . S
C678 C677 1.369 . S
C678 C687 1.429 . S
C679 C677 1.419 . S
C679 C680 1.363 . S
C679 H682 0.929 . S
C680 C679 1.363 . S
C680 C686 1.428 . S
H681 C677 0.930 . S
H682 C679 0.929 . S
S683 N684 1.613 . S
S683 N685 1.610 . S
N684 S683 1.613 . S
N684 C687 1.350 . S
N685 S683 1.610 . S
N685 C686 1.351 . S
C686 C680 1.428 . S
C686 N685 1.351 . S
C686 C687 1.434 . S
C687 C678 1.429 . S
C687 N684 1.350 . S
C687 C686 1.434 . S
C688 C689 1.369 . S
C688 C690 1.419 . S
C688 H692 0.930 . S
C689 C688 1.369 . S
C689 C698 1.429 . S
C690 C688 1.419 . S
C690 C691 1.363 . S
C690 H693 0.929 . S
C691 C690 1.363 . S
C691 C697 1.428 . S
H692 C688 0.930 . S
H693 C690 0.929 . S
S694 N695 1.613 . S
S694 N696 1.610 . S
N695 S694 1.613 . S
N695 C698 1.350 . S
N696 S694 1.610 . S
N696 C697 1.351 . S
C697 C691 1.428 . S
C697 N696 1.351 . S
C697 C698 1.434 . S
C698 C689 1.429 . S
C698 N695 1.350 . S
C698 C697 1.434 . S
C699 C700 1.369 . S
C699 C701 1.419 . S
C699 H703 0.930 . S
C700 C699 1.369 . S
C700 C709 1.429 . S
C701 C699 1.419 . S
C701 C702 1.363 . S
C701 H704 0.929 . S
C702 C701 1.363 . S
C702 C708 1.428 . S
H703 C699 0.930 . S
H704 C701 0.929 . S
S705 N706 1.613 . S
S705 N707 1.610 . S
N706 S705 1.613 . S
N706 C709 1.350 . S
N707 S705 1.610 . S
N707 C708 1.351 . S
C708 C702 1.428 . S
C708 N707 1.351 . S
C708 C709 1.434 . S
C709 C700 1.429 . S
C709 N706 1.350 . S
C709 C708 1.434 . S
C710 C711 1.369 . S
C710 C712 1.419 . S
C710 H714 0.930 . S
C711 C710 1.369 . S
C711 C720 1.429 . S
C712 C710 1.419 . S
C712 C713 1.363 . S
C712 H715 0.929 . S
C713 C712 1.363 . S
C713 C719 1.428 . S
H714 C710 0.930 . S
H715 C712 0.929 . S
S716 N717 1.613 . S
S716 N718 1.610 . S
N717 S716 1.613 . S
N717 C720 1.350 . S
N718 S716 1.610 . S
N718 C719 1.351 . S
C719 C713 1.428 . S
C719 N718 1.351 . S
C719 C720 1.434 . S
C720 C711 1.429 . S
C720 N717 1.350 . S
C720 C719 1.434 . S
C721 C722 1.369 . S
C721 C723 1.419 . S
C721 H725 0.930 . S
C722 C721 1.369 . S
C722 C731 1.429 . S
C723 C721 1.419 . S
C723 C724 1.363 . S
C723 H726 0.929 . S
C724 C723 1.363 . S
C724 C730 1.428 . S
H725 C721 0.930 . S
H726 C723 0.929 . S
S727 N728 1.613 . S
S727 N729 1.610 . S
N728 S727 1.613 . S
N728 C731 1.350 . S
N729 S727 1.610 . S
N729 C730 1.351 . S
C730 C724 1.428 . S
C730 N729 1.351 . S
C730 C731 1.434 . S
C731 C722 1.429 . S
C731 N728 1.350 . S
C731 C730 1.434 . S
C732 C733 1.369 . S
C732 C734 1.419 . S
C732 H736 0.930 . S
C733 C732 1.369 . S
C733 C742 1.429 . S
C734 C732 1.419 . S
C734 C735 1.363 . S
C734 H737 0.929 . S
C735 C734 1.363 . S
C735 C741 1.428 . S
H736 C732 0.930 . S
H737 C734 0.929 . S
S738 N739 1.613 . S
S738 N740 1.610 . S
N739 S738 1.613 . S
N739 C742 1.350 . S
N740 S738 1.610 . S
N740 C741 1.351 . S
C741 C735 1.428 . S
C741 N740 1.351 . S
C741 C742 1.434 . S
C742 C733 1.429 . S
C742 N739 1.350 . S
C742 C741 1.434 . S
C743 C744 1.369 . S
C743 C745 1.419 . S
C743 H747 0.930 . S
C744 C743 1.369 . S
C744 C753 1.429 . S
C745 C743 1.419 . S
C745 C746 1.363 . S
C745 H748 0.929 . S
C746 C745 1.363 . S
C746 C752 1.428 . S
H747 C743 0.930 . S
H748 C745 0.929 . S
S749 N750 1.613 . S
S749 N751 1.610 . S
N750 S749 1.613 . S
N750 C753 1.350 . S
N751 S749 1.610 . S
N751 C752 1.351 . S
C752 C746 1.428 . S
C752 N751 1.351 . S
C752 C753 1.434 . S
C753 C744 1.429 . S
C753 N750 1.350 . S
C753 C752 1.434 . S
C754 C755 1.369 . S
C754 C756 1.419 . S
C754 H758 0.930 . S
C755 C754 1.369 . S
C755 C764 1.429 . S
C756 C754 1.419 . S
C756 C757 1.363 . S
C756 H759 0.929 . S
C757 C756 1.363 . S
C757 C763 1.428 . S
H758 C754 0.930 . S
H759 C756 0.929 . S
S760 N761 1.613 . S
S760 N762 1.610 . S
N761 S760 1.613 . S
N761 C764 1.350 . S
N762 S760 1.610 . S
N762 C763 1.351 . S
C763 C757 1.428 . S
C763 N762 1.351 . S
C763 C764 1.434 . S
C764 C755 1.429 . S
C764 N761 1.350 . S
C764 C763 1.434 . S
C765 C766 1.369 . S
C765 C767 1.419 . S
C765 H769 0.930 . S
C766 C765 1.369 . S
C766 C775 1.429 . S
C767 C765 1.419 . S
C767 C768 1.363 . S
C767 H770 0.929 . S
C768 C767 1.363 . S
C768 C774 1.428 . S
H769 C765 0.930 . S
H770 C767 0.929 . S
S771 N772 1.613 . S
S771 N773 1.610 . S
N772 S771 1.613 . S
N772 C775 1.350 . S
N773 S771 1.610 . S
N773 C774 1.351 . S
C774 C768 1.428 . S
C774 N773 1.351 . S
C774 C775 1.434 . S
C775 C766 1.429 . S
C775 N772 1.350 . S
C775 C774 1.434 . S
C776 C777 1.369 . S
C776 C778 1.419 . S
C776 H780 0.930 . S
C777 C776 1.369 . S
C777 C786 1.429 . S
C778 C776 1.419 . S
C778 C779 1.363 . S
C778 H781 0.929 . S
C779 C778 1.363 . S
C779 C785 1.428 . S
H780 C776 0.930 . S
H781 C778 0.929 . S
S782 N783 1.613 . S
S782 N784 1.610 . S
N783 S782 1.613 . S
N783 C786 1.350 . S
N784 S782 1.610 . S
N784 C785 1.351 . S
C785 C779 1.428 . S
C785 N784 1.351 . S
C785 C786 1.434 . S
C786 C777 1.429 . S
C786 N783 1.350 . S
C786 C785 1.434 . S
C787 C788 1.369 . S
C787 C789 1.419 . S
C787 H791 0.930 . S
C788 C787 1.369 . S
C788 C797 1.429 . S
C789 C787 1.419 . S
C789 C790 1.363 . S
C789 H792 0.929 . S
C790 C789 1.363 . S
C790 C796 1.428 . S
H791 C787 0.930 . S
H792 C789 0.929 . S
S793 N794 1.613 . S
S793 N795 1.610 . S
N794 S793 1.613 . S
N794 C797 1.350 . S
N795 S793 1.610 . S
N795 C796 1.351 . S
C796 C790 1.428 . S
C796 N795 1.351 . S
C796 C797 1.434 . S
C797 C788 1.429 . S
C797 N794 1.350 . S
C797 C796 1.434 . S
C798 C799 1.369 . S
C798 C800 1.419 . S
C798 H802 0.930 . S
C799 C798 1.369 . S
C799 C808 1.429 . S
C800 C798 1.419 . S
C800 C801 1.363 . S
C800 H803 0.929 . S
C801 C800 1.363 . S
C801 C807 1.428 . S
H802 C798 0.930 . S
H803 C800 0.929 . S
S804 N805 1.613 . S
S804 N806 1.610 . S
N805 S804 1.613 . S
N805 C808 1.350 . S
N806 S804 1.610 . S
N806 C807 1.351 . S
C807 C801 1.428 . S
C807 N806 1.351 . S
C807 C808 1.434 . S
C808 C799 1.429 . S
C808 N805 1.350 . S
C808 C807 1.434 . S
C809 C810 1.369 . S
C809 C811 1.419 . S
C809 H813 0.930 . S
C810 C809 1.369 . S
C810 C819 1.429 . S
C811 C809 1.419 . S
C811 C812 1.363 . S
C811 H814 0.929 . S
C812 C811 1.363 . S
C812 C818 1.428 . S
H813 C809 0.930 . S
H814 C811 0.929 . S
S815 N816 1.613 . S
S815 N817 1.610 . S
N816 S815 1.613 . S
N816 C819 1.350 . S
N817 S815 1.610 . S
N817 C818 1.351 . S
C818 C812 1.428 . S
C818 N817 1.351 . S
C818 C819 1.434 . S
C819 C810 1.429 . S
C819 N816 1.350 . S
C819 C818 1.434 . S
C820 C821 1.369 . S
C820 C822 1.419 . S
C820 H824 0.930 . S
C821 C820 1.369 . S
C821 C830 1.429 . S
C822 C820 1.419 . S
C822 C823 1.363 . S
C822 H825 0.929 . S
C823 C822 1.363 . S
C823 C829 1.428 . S
H824 C820 0.930 . S
H825 C822 0.929 . S
S826 N827 1.613 . S
S826 N828 1.610 . S
N827 S826 1.613 . S
N827 C830 1.350 . S
N828 S826 1.610 . S
N828 C829 1.351 . S
C829 C823 1.428 . S
C829 N828 1.351 . S
C829 C830 1.434 . S
C830 C821 1.429 . S
C830 N827 1.350 . S
C830 C829 1.434 . S
C831 C832 1.369 . S
C831 C833 1.419 . S
C831 H835 0.930 . S
C832 C831 1.369 . S
C832 C841 1.429 . S
C833 C831 1.419 . S
C833 C834 1.363 . S
C833 H836 0.929 . S
C834 C833 1.363 . S
C834 C840 1.428 . S
H835 C831 0.930 . S
H836 C833 0.929 . S
S837 N838 1.613 . S
S837 N839 1.610 . S
N838 S837 1.613 . S
N838 C841 1.350 . S
N839 S837 1.610 . S
N839 C840 1.351 . S
C840 C834 1.428 . S
C840 N839 1.351 . S
C840 C841 1.434 . S
C841 C832 1.429 . S
C841 N838 1.350 . S
C841 C840 1.434 . S
C842 C843 1.369 . S
C842 C844 1.419 . S
C842 H846 0.930 . S
C843 C842 1.369 . S
C843 C852 1.429 . S
C844 C842 1.419 . S
C844 C845 1.363 . S
C844 H847 0.929 . S
C845 C844 1.363 . S
C845 C851 1.428 . S
H846 C842 0.930 . S
H847 C844 0.929 . S
S848 N849 1.613 . S
S848 N850 1.610 . S
N849 S848 1.613 . S
N849 C852 1.350 . S
N850 S848 1.610 . S
N850 C851 1.351 . S
C851 C845 1.428 . S
C851 N850 1.351 . S
C851 C852 1.434 . S
C852 C843 1.429 . S
C852 N849 1.350 . S
C852 C851 1.434 . S
C853 C854 1.369 . S
C853 C855 1.419 . S
C853 H857 0.930 . S
C854 C853 1.369 . S
C854 C863 1.429 . S
C855 C853 1.419 . S
C855 C856 1.363 . S
C855 H858 0.929 . S
C856 C855 1.363 . S
C856 C862 1.428 . S
H857 C853 0.930 . S
H858 C855 0.929 . S
S859 N860 1.613 . S
S859 N861 1.610 . S
N860 S859 1.613 . S
N860 C863 1.350 . S
N861 S859 1.610 . S
N861 C862 1.351 . S
C862 C856 1.428 . S
C862 N861 1.351 . S
C862 C863 1.434 . S
C863 C854 1.429 . S
C863 N860 1.350 . S
C863 C862 1.434 . S
C337 C5 1.548 . S
C339 C103 1.545 . S
C348 C117 1.544 . S
C350 C19 1.547 . S
C359 C33 1.545 . S
C361 C131 1.548 . S
C370 C47 1.548 . S
C372 C145 1.545 . S
C381 C159 1.544 . S
C383 C61 1.547 . S
C392 C75 1.548 . S
C394 C89 1.548 . S
C403 C173 1.548 . S
C405 C271 1.545 . S
C414 C187 1.544 . S
C416 C285 1.547 . S
C425 C299 1.549 . S
C427 C201 1.547 . S
C436 C215 1.545 . S
C438 C313 1.548 . S
C447 C229 1.548 . S
C449 C327 1.548 . S
C458 C257 1.548 . S
C460 C243 1.548 . S
C469 C11 1.416 . S
C471 C123 1.417 . S
C480 C137 1.418 . S
C482 C25 1.417 . S
C491 C151 1.418 . S
C493 C39 1.417 . S
C502 C53 1.418 . S
C504 C165 1.417 . S
C513 C67 1.418 . S
C515 C95 1.417 . S
C524 C81 1.417 . S
C526 C109 1.416 . S
C535 C291 1.416 . S
C537 C179 1.418 . S
C546 C193 1.417 . S
C548 C305 1.418 . S
C557 C319 1.417 . S
C559 C207 1.416 . S
C568 C333 1.416 . S
C570 C221 1.417 . S
C579 C263 1.418 . S
C581 C235 1.418 . S
C590 C249 1.416 . S
C592 C277 1.416 . S
C601 C9 1.586 . S
C603 C219 1.586 . S
C612 C233 1.586 . S
C614 C23 1.586 . S
C623 C247 1.585 . S
C625 C37 1.585 . S
C634 C51 1.585 . S
C636 C177 1.585 . S
C645 C65 1.586 . S
C647 C191 1.586 . S
C656 C205 1.586 . S
C658 C79 1.586 . S
C667 C303 1.585 . S
C669 C93 1.585 . S
C678 C317 1.585 . S
C680 C107 1.585 . S
C689 C331 1.585 . S
C691 C121 1.585 . S
C700 C261 1.586 . S
C702 C135 1.586 . S
C711 C149 1.586 . S
C713 C275 1.586 . S
C722 C163 1.585 . S
C724 C289 1.585 . S
C733 C0 1.456 . S
C735 C140 1.461 . S
C744 C154 1.460 . S
C746 C14 1.454 . S
C755 C84 1.457 . S
C757 C28 1.461 . S
C766 C42 1.462 . S
C768 C98 1.456 . S
C777 C56 1.453 . S
C779 C112 1.459 . S
C788 C70 1.458 . S
C790 C126 1.454 . S
C799 C168 1.459 . S
C801 C308 1.460 . S
C810 C182 1.454 . S
C812 C322 1.460 . S
C821 C196 1.462 . S
C823 C252 1.456 . S
C832 C266 1.454 . S
C834 C210 1.460 . S
C843 C224 1.453 . S
C845 C280 1.459 . S
C854 C238 1.457 . S
C856 C294 1.454 . S
