# Generated by pormake.
# Topology hcp, (12)-cn, num edge types: 1
# Building blocks:
#     Node 0, Type 0, BuildingBlock: ENOWUB_clean_sbu_0, # of connection points: 12
#     Node 1, Type 0, BuildingBlock: ENOWUB_clean_sbu_0, # of connection points: 12
#     Edge 2, Type (0, 0), BuildingBlock: FUNLAD_clean_linker_1, # of connection points: 2
#     Edge 3, Type (0, 0), BuildingBlock: FUNLAD_clean_linker_1, # of connection points: 2
#     Edge 4, Type (0, 0), BuildingBlock: FUNLAD_clean_linker_1, # of connection points: 2
#     Edge 5, Type (0, 0), BuildingBlock: FUNLAD_clean_linker_1, # of connection points: 2
#     Edge 6, Type (0, 0), BuildingBlock: FUNLAD_clean_linker_1, # of connection points: 2
#     Edge 7, Type (0, 0), BuildingBlock: FUNLAD_clean_linker_1, # of connection points: 2
#     Edge 8, Type (0, 0), BuildingBlock: FUNLAD_clean_linker_1, # of connection points: 2
#     Edge 9, Type (0, 0), BuildingBlock: FUNLAD_clean_linker_1, # of connection points: 2
#     Edge 10, Type (0, 0), BuildingBlock: FUNLAD_clean_linker_1, # of connection points: 2
#     Edge 11, Type (0, 0), BuildingBlock: FUNLAD_clean_linker_1, # of connection points: 2
#     Edge 12, Type (0, 0), BuildingBlock: FUNLAD_clean_linker_1, # of connection points: 2
#     Edge 13, Type (0, 0), BuildingBlock: FUNLAD_clean_linker_1, # of connection points: 2
# Relax obj value: 0.186
# Max RMSD: 0.270
# Mean RMSD: 0.270
data_MOF--net-hcp--node1-ENOWUB_clean_sbu_0--edge1-FUNLAD_clean_linker_1
_symmetry_space_group_name_H-M    P1
_symmetry_Int_Tables_number       1
_symmetry_cell_setting            triclinic
loop_
_symmetry_equiv_pos_as_xyz
'x, y, z'
_cell_length_a     18.927524
_cell_length_b     18.845657
_cell_length_c     31.636304
_cell_angle_alpha  89.966553
_cell_angle_beta   89.889986
_cell_angle_gamma 120.66415
loop_
_atom_site_label
_atom_site_type_symbol
_atom_site_fract_x
_atom_site_fract_y
_atom_site_fract_z
_atom_type_partial_charge
O0 O 0.7385 0.25333 0.15269 0.0
O1 O 0.66708 0.22437 0.24037 0.0
O2 O 0.73784 0.4536 0.22851 0.0
O3 O 0.63854 0.31657 0.18282 0.0
O4 O 0.7651 0.36122 0.28414 0.0
Zr5 Zr 0.76515 0.34998 0.21047 0.0
Zr6 Zr 0.66411 0.23698 0.31422 0.0
Zr7 Zr 0.54014 0.19178 0.21239 0.0
O8 O 0.63573 0.34 0.33311 0.0
O9 O 0.509 0.29356 0.22972 0.0
O10 O 0.53686 0.20278 0.28592 0.0
Zr11 Zr 0.73665 0.46369 0.30218 0.0
Zr12 Zr 0.60995 0.41921 0.20099 0.0
Zr13 Zr 0.50913 0.30659 0.30338 0.0
O14 O 0.60936 0.43151 0.27451 0.0
O15 O 0.53688 0.41298 0.35609 0.0
O16 O 0.37429 0.18981 0.28505 0.0
O17 O 0.89417 0.47838 0.22063 0.0
O18 O 0.74374 0.59057 0.27906 0.0
O19 O 0.53106 0.06453 0.23657 0.0
O20 O 0.48733 0.2091 0.14485 0.0
O21 O 0.81243 0.44792 0.36046 0.0
O22 O 0.56188 0.17264 0.37136 0.0
O23 O 0.7026 0.47489 0.13992 0.0
O24 O 0.4888 0.43158 0.21311 0.0
O25 O 0.78711 0.22783 0.30208 0.0
O26 O 0.67647 0.5013 0.35889 0.0
O27 O 0.60233 0.1532 0.15718 0.0
O28 O 0.39759 0.12055 0.23219 0.0
O29 O 0.87656 0.54401 0.27734 0.0
O30 O 0.84233 0.29172 0.23868 0.0
O31 O 0.43566 0.37007 0.27709 0.0
O32 O 0.46959 0.2167 0.36429 0.0
O33 O 0.79341 0.42914 0.14616 0.0
C34 C 0.67439 0.18581 0.14055 0.0
O35 O 0.75789 0.30929 0.37195 0.0
O36 O 0.60096 0.09166 0.29941 0.0
C37 C 0.6024 0.4764 0.37087 0.0
C38 C 0.351 0.13007 0.25845 0.0
C39 C 0.91903 0.53834 0.24712 0.0
C40 C 0.71958 0.61244 0.24597 0.0
C41 C 0.55729 0.04368 0.26922 0.0
C42 C 0.48923 0.2714 0.12655 0.0
C43 C 0.8082 0.3859 0.3804 0.0
C44 C 0.4965 0.17393 0.38241 0.0
C45 C 0.76403 0.4687 0.12687 0.0
C46 C 0.43683 0.41014 0.2439 0.0
C47 C 0.84115 0.25209 0.27213 0.0
O48 O 0.52479 0.34543 0.14133 0.0
O49 O 0.6774 0.56526 0.21519 0.0
O50 O 0.40232 0.80397 0.87424 0.0
O51 O 0.33703 0.64592 0.8307 0.0
O52 O 0.31529 0.77048 0.73984 0.0
O53 O 0.44034 0.78763 0.78774 0.0
O54 O 0.21307 0.62908 0.78023 0.0
Zr55 Zr 0.31002 0.7504 0.81331 0.0
Zr56 Zr 0.23958 0.52481 0.79694 0.0
Zr57 Zr 0.46625 0.68234 0.80365 0.0
O58 O 0.24235 0.54124 0.72336 0.0
O59 O 0.47351 0.70004 0.73013 0.0
O60 O 0.36882 0.55992 0.77161 0.0
Zr61 Zr 0.21811 0.64838 0.70712 0.0
Zr62 Zr 0.44489 0.80384 0.71436 0.0
Zr63 Zr 0.37268 0.57733 0.6984 0.0
O64 O 0.34705 0.68261 0.68172 0.0
O65 O 0.28849 0.5339 0.63385 0.0
O66 O 0.4875 0.55625 0.71309 0.0
O67 O 0.18342 0.75234 0.80315 0.0
O68 O 0.25064 0.75664 0.65394 0.0
O69 O 0.43651 0.57089 0.85291 0.0
O70 O 0.59978 0.80709 0.79367 0.0
O71 O 0.0844 0.524 0.71717 0.0
O72 O 0.22766 0.39819 0.77049 0.0
O73 O 0.45389 0.92956 0.7405 0.0
O74 O 0.50178 0.79037 0.64682 0.0
O75 O 0.16744 0.53499 0.85842 0.0
O76 O 0.19417 0.57504 0.64155 0.0
O77 O 0.49288 0.7573 0.86939 0.0
O78 O 0.54258 0.62322 0.7756 0.0
O79 O 0.13394 0.69682 0.73763 0.0
O80 O 0.20951 0.67169 0.86801 0.0
O81 O 0.46627 0.65483 0.64223 0.0
O82 O 0.30552 0.43026 0.71013 0.0
O83 O 0.36914 0.89571 0.79834 0.0
C84 C 0.4634 0.79762 0.88778 0.0
O85 O 0.09986 0.45284 0.77195 0.0
O86 O 0.2975 0.47952 0.85171 0.0
C87 C 0.22685 0.53995 0.62104 0.0
C88 C 0.54058 0.58068 0.74332 0.0
C89 C 0.13034 0.72841 0.77302 0.0
C90 C 0.31756 0.82439 0.64406 0.0
C91 C 0.3708 0.50451 0.86507 0.0
C92 C 0.62694 0.86798 0.76745 0.0
C93 C 0.05771 0.46275 0.74312 0.0
C94 C 0.25786 0.37954 0.73875 0.0
C95 C 0.41911 0.94702 0.77056 0.0
C96 C 0.50214 0.7294 0.62823 0.0
C97 C 0.1654 0.59441 0.87755 0.0
O98 O 0.58543 0.87697 0.73793 0.0
O99 O 0.38798 0.85113 0.66136 0.0
H100 H 0.55379 0.83085 0.93883 0.0
C101 C 0.50546 0.84058 0.92694 0.0
H102 H 0.44047 0.90306 0.93698 0.0
H103 H 0.5249 0.94149 0.13338 0.0
H104 H 0.39107 0.81873 0.13571 0.0
H105 H 0.32018 0.74726 0.07028 0.0
H106 H 0.38341 0.79902 1.00184 0.0
C107 C 0.48906 0.89269 0.94752 0.0
C108 C 0.53455 0.9342 0.98671 0.0
C109 C 0.497 0.9037 0.02653 0.0
C110 C 0.53882 0.94455 0.06423 0.0
C111 C 0.49812 0.91311 0.10349 0.0
C112 C 0.42058 0.84229 0.10542 0.0
C113 C 0.38052 0.80213 0.0686 0.0
C114 C 0.41764 0.83253 0.02953 0.0
H115 H 0.68375 0.18002 0.07215 0.0
C116 C 0.67909 0.14732 0.10128 0.0
H117 H 0.65127 0.03666 0.13047 0.0
H118 H 0.62487 0.00688 0.91523 0.0
H119 H 0.76631 0.11976 0.91235 0.0
H120 H 0.84382 0.18233 0.97788 0.0
H121 H 0.77965 0.13343 0.04662 0.0
C122 C 0.65583 0.06702 0.10057 0.0
C123 C 0.6189 0.01584 0.06185 0.0
C124 C 0.65917 0.04137 0.02203 0.0
C125 C 0.61598 0.00226 0.98435 0.0
C126 C 0.65567 0.03269 0.94489 0.0
C127 C 0.73679 0.09753 0.94277 0.0
C128 C 0.78034 0.13294 0.97965 0.0
C129 C 0.74247 0.10507 0.01888 0.0
H130 H 0.52742 0.78204 0.5636 0.0
C131 C 0.53426 0.74024 0.58455 0.0
H132 H 0.55764 0.64304 0.5904 0.0
H133 H 0.38724 0.42773 0.43798 0.0
H134 H 0.28468 0.355 0.49238 0.0
H135 H 0.2951 0.4196 0.56164 0.0
H136 H 0.40748 0.55764 0.57656 0.0
C137 C 0.55179 0.68459 0.56872 0.0
C138 C 0.53587 0.65672 0.52399 0.0
C139 C 0.46799 0.57692 0.51514 0.0
C140 C 0.4617 0.53972 0.47524 0.0
C141 C 0.39493 0.45897 0.46776 0.0
C142 C 0.33552 0.41648 0.49869 0.0
C143 C 0.34141 0.45283 0.53767 0.0
C144 C 0.40654 0.53204 0.54592 0.0
H145 H 0.64478 0.55626 0.42676 0.0
C146 C 0.59399 0.52492 0.40471 0.0
H147 H 0.47863 0.50579 0.38581 0.0
H148 H 0.66593 0.81477 0.52847 0.0
H149 H 0.761 0.89218 0.4715 0.0
H150 H 0.74619 0.82952 0.40116 0.0
H151 H 0.63681 0.68851 0.38748 0.0
C152 C 0.52932 0.53559 0.40797 0.0
C153 C 0.52348 0.58225 0.44443 0.0
C154 C 0.58521 0.6658 0.4513 0.0
C155 C 0.59222 0.7028 0.49145 0.0
C156 C 0.65716 0.78447 0.4983 0.0
C157 C 0.71202 0.82943 0.46589 0.0
C158 C 0.70378 0.7941 0.42628 0.0
C159 C 0.64127 0.71315 0.4189 0.0
H160 H 0.78121 0.54272 0.06883 0.0
C161 C 0.80361 0.50855 0.08632 0.0
H162 H 0.88753 0.4657 0.08733 0.0
H163 H 0.94843 0.4731 0.89334 0.0
H164 H 0.83112 0.33398 0.89797 0.0
H165 H 0.74702 0.28529 0.9629 0.0
H166 H 0.77884 0.37634 0.02323 0.0
C167 C 0.86594 0.50143 0.07065 0.0
C168 C 0.90552 0.5357 0.02922 0.0
C169 C 0.88709 0.48152 0.9946 0.0
C170 C 0.93739 0.50863 0.95784 0.0
C171 C 0.91496 0.45438 0.9229 0.0
C172 C 0.84711 0.37466 0.92494 0.0
C173 C 0.79963 0.34731 0.96145 0.0
C174 C 0.81885 0.39998 0.99591 0.0
H175 H 0.08941 0.51484 0.93 0.0
C176 C 0.10634 0.57112 0.91262 0.0
H177 H 0.08441 0.66914 0.90345 0.0
H178 H 0.94938 0.6581 0.08757 0.0
H179 H 0.0629 0.79924 0.08197 0.0
H180 H 0.15433 0.84516 0.01972 0.0
H181 H 0.13148 0.75122 0.96209 0.0
C182 C 0.06888 0.61387 0.92143 0.0
C183 C 0.00809 0.58902 0.95658 0.0
C184 C 0.02232 0.64534 0.98983 0.0
C185 C 0.97056 0.61861 0.02615 0.0
C186 C -0.01314 0.6753 0.05932 0.0
C187 C 0.05191 0.7564 0.05656 0.0
C188 C 0.10324 0.78232 0.02143 0.0
C189 C 0.08922 0.72767 0.98848 0.0
H190 H 0.3737 0.93825 0.60794 0.0
C191 C 0.3193 0.87682 0.60921 0.0
H192 H 0.21818 0.78711 0.57485 0.0
H193 H 0.45445 0.1746 0.49364 0.0
H194 H 0.40484 0.22124 0.55161 0.0
H195 H 0.30119 0.12174 0.60149 0.0
H196 H 0.24857 0.97442 0.59413 0.0
C197 C 0.26945 0.85001 0.57553 0.0
C198 C 0.29747 0.90146 0.53616 0.0
C199 C 0.32153 0.98604 0.53813 0.0
C200 C 0.37682 0.04261 0.50756 0.0
C201 C 0.40811 0.12798 0.51397 0.0
C202 C 0.38083 0.15582 0.54753 0.0
C203 C 0.32276 0.09986 0.57573 0.0
C204 C 0.29346 0.01586 0.57132 0.0
H205 H 0.38667 0.11861 0.42294 0.0
C206 C 0.44398 0.11993 0.41703 0.0
H207 H 0.51646 0.06892 0.43392 0.0
H208 H 0.24877 0.74057 0.51802 0.0
H209 H 0.28463 0.69073 0.45592 0.0
H210 H 0.37232 0.787 0.40001 0.0
H211 H 0.42544 0.93394 0.40624 0.0
C212 C 0.4613 0.07129 0.4404 0.0
C213 C 0.40156 0.01308 0.47249 0.0
C214 C 0.36892 0.92687 0.46782 0.0
C215 C 0.31714 0.87105 0.49975 0.0
C216 C 0.28807 0.78579 0.49488 0.0
C217 C 0.30797 0.7562 0.45922 0.0
C218 C 0.35734 0.8104 0.42776 0.0
C219 C 0.38764 0.89471 0.43182 0.0
H220 H 0.46724 0.22158 0.06154 0.0
C221 C 0.45873 0.26191 0.08278 0.0
H222 H 0.4309 0.35577 0.08955 0.0
H223 H 0.58129 0.5736 0.93578 0.0
H224 H 0.68117 0.65361 0.98958 0.0
H225 H 0.67906 0.59194 0.0587 0.0
H226 H 0.57664 0.44989 0.07432 0.0
C227 C 0.43824 0.31563 0.06753 0.0
C228 C 0.45112 0.34266 0.02262 0.0
C229 C 0.51403 0.42472 0.01322 0.0
C230 C 0.51659 0.45961 0.97306 0.0
C231 C 0.57706 0.54324 0.96546 0.0
C232 C 0.63498 0.59007 0.99612 0.0
C233 C 0.63378 0.55538 0.03501 0.0
C234 C 0.57421 0.47384 0.04365 0.0
H235 H 0.32558 0.41669 0.9181 0.0
C236 C 0.37865 0.45395 0.89803 0.0
H237 H 0.50136 0.48964 0.88404 0.0
H238 H 0.32977 0.18029 0.02845 0.0
H239 H 0.24161 0.09488 0.9714 0.0
H240 H 0.25441 0.15252 0.89978 0.0
H241 H 0.35404 0.29669 0.88513 0.0
C242 C 0.4484 0.45312 0.90424 0.0
C243 C 0.45752 0.41153 0.94207 0.0
C244 C 0.40219 0.32631 0.94951 0.0
C245 C 0.39743 0.29217 0.99027 0.0
C246 C 0.33754 0.20859 0.99775 0.0
C247 C 0.28652 0.15902 0.96529 0.0
C248 C 0.29353 0.19152 0.92499 0.0
C249 C 0.35045 0.27428 0.91704 0.0
H250 H 0.85071 0.35335 0.43801 0.0
C251 C 0.86661 0.40218 0.415 0.0
H252 H 0.95806 0.52069 0.39421 0.0
H253 H 0.11114 0.62102 0.57845 0.0
H254 H 0.06252 0.71614 0.56695 0.0
H255 H 0.98492 0.70728 0.50269 0.0
H256 H 0.95482 0.60275 0.44972 0.0
C257 C 0.94054 0.47155 0.41719 0.0
C258 C -0.00205 0.48441 0.45246 0.0
C259 C 0.01594 0.54658 0.48275 0.0
C260 C 0.05986 0.55098 0.51998 0.0
C261 C 0.07646 0.6135 0.54997 0.0
C262 C 0.04946 0.66899 0.54364 0.0
C263 C 0.00581 0.66403 0.50746 0.0
C264 C -0.01106 0.60364 0.4773 0.0
H265 H 0.23621 0.52052 0.55258 0.0
C266 C 0.19401 0.51163 0.57808 0.0
H267 H 0.07474 0.48114 0.59591 0.0
H268 H -0.00773 0.37248 0.39551 0.0
H269 H 0.04451 0.27969 0.40579 0.0
H270 H 0.11383 0.2818 0.47219 0.0
H271 H 0.13242 0.37732 0.52839 0.0
C272 C 0.11542 0.48859 0.56976 0.0
C273 C 0.0854 0.49292 0.52696 0.0
C274 C 0.07356 0.43523 0.495 0.0
C275 C 0.03087 0.43194 0.45734 0.0
C276 C 0.02178 0.37554 0.42527 0.0
C277 C 0.0519 0.32236 0.43068 0.0
C278 C 0.09113 0.32371 0.46802 0.0
C279 C 0.10165 0.37907 0.50001 0.0
H280 H 0.53556 0.92991 0.29961 0.0
C281 C 0.54935 0.96263 0.2696 0.0
H282 H 0.60651 0.98032 0.20997 0.0
H283 H 0.80176 0.83877 0.31734 0.0
H284 H 0.87978 0.98043 0.342 0.0
H285 H 0.83812 0.08077 0.32281 0.0
H286 H 0.71902 0.04048 0.2786 0.0
C287 C 0.58534 0.94366 0.23876 0.0
C288 C 0.6139 0.88532 0.24739 0.0
C289 C 0.6855 0.91119 0.27216 0.0
C290 C 0.71029 0.85397 0.28276 0.0
C291 C 0.78093 0.88035 0.30811 0.0
C292 C 0.82614 0.96136 0.32248 0.0
C293 C 0.80264 0.01782 0.31169 0.0
C294 C 0.73361 0.99361 0.28659 0.0
H295 H 0.742 0.72635 0.21546 0.0
C296 C 0.72828 0.69386 0.24553 0.0
H297 H 0.67218 0.67748 0.30538 0.0
H298 H 0.47686 0.81892 0.19783 0.0
H299 H 0.39964 0.67767 0.17245 0.0
H300 H 0.44142 0.5774 0.19142 0.0
H301 H 0.55976 0.61714 0.23615 0.0
C302 C 0.69312 0.7137 0.27645 0.0
C303 C 0.66472 0.77217 0.26771 0.0
C304 C 0.59324 0.74639 0.24282 0.0
C305 C 0.56843 0.80361 0.23225 0.0
C306 C 0.49794 0.7774 0.2068 0.0
C307 C 0.45311 0.69662 0.1921 0.0
C308 C 0.47666 0.64016 0.2028 0.0
C309 C 0.54529 0.6641 0.22818 0.0
H310 H 0.03828 0.76687 0.77677 0.0
C311 C 0.04983 0.71682 0.78248 0.0
H312 H 0.00037 0.58893 0.79224 0.0
H313 H 0.65141 0.55063 0.8382 0.0
H314 H 0.69411 0.53719 0.90876 0.0
H315 H 0.83329 0.5621 0.92144 0.0
H316 H 0.93015 0.59731 0.8632 0.0
C317 C -0.01214 0.63878 0.78783 0.0
C318 C 0.90194 0.61575 0.78026 0.0
C319 C 0.84702 0.59502 0.81455 0.0
C320 C 0.76779 0.583 0.80743 0.0
C321 C 0.71311 0.56188 0.8421 0.0
C322 C 0.73672 0.55383 0.88267 0.0
C323 C 0.8151 0.56744 0.88975 0.0
C324 C 0.86999 0.5878 0.85618 0.0
H325 H 0.59923 0.5101 0.7222 0.0
C326 C 0.60679 0.56163 0.7411 0.0
H327 H 0.68325 0.66097 0.78131 0.0
H328 H 0.98364 0.62749 0.70653 0.0
H329 H 0.94028 0.63654 0.6356 0.0
H330 H 0.80836 0.63025 0.62375 0.0
H331 H 0.7185 0.61252 0.68239 0.0
C332 C 0.6765 0.60944 0.76262 0.0
C333 C 0.74519 0.59408 0.76631 0.0
C334 C 0.79742 0.60715 0.73138 0.0
C335 C 0.87521 0.61535 0.73837 0.0
C336 C 0.92547 0.62465 0.70309 0.0
C337 C 0.90104 0.62934 0.6622 0.0
C338 C 0.82667 0.6255 0.65553 0.0
C339 C 0.77538 0.61494 0.6896 0.0
H340 H 0.21664 0.07616 0.25235 0.0
C341 C 0.26525 0.06302 0.25853 0.0
H342 H 0.3023 0.97576 0.26394 0.0
H343 H 0.9089 0.70441 0.26268 0.0
H344 H 0.89052 0.77536 0.32203 0.0
H345 H 0.00403 0.91091 0.34546 0.0
H346 H 0.13609 0.97594 0.30963 0.0
C347 C 0.25116 0.98573 0.25856 0.0
C348 C 0.17647 0.91507 0.24069 0.0
C349 C 0.10079 0.87834 0.26269 0.0
C350 C 0.03636 0.79946 0.25004 0.0
C351 C 0.9604 0.76353 0.27182 0.0
C352 C 0.94901 0.80383 0.30572 0.0
C353 C 0.01292 0.88011 0.31888 0.0
C354 C 0.08834 0.91698 0.29793 0.0
H355 H 0.04561 0.63521 0.26012 0.0
C356 C -0.00472 0.6142 0.23777 0.0
H357 H 0.93786 0.6492 0.19176 0.0
H358 H 0.30545 0.97963 0.18474 0.0
H359 H 0.31906 0.91146 0.12286 0.0
H360 H 0.21066 0.76954 0.10448 0.0
H361 H 0.08645 0.69674 0.14711 0.0
C362 C -0.00829 0.66795 0.21138 0.0
C363 C 0.04979 0.75687 0.21697 0.0
C364 C 0.12189 0.79697 0.19238 0.0
C365 C 0.18502 0.87717 0.20381 0.0
C366 C 0.25631 0.91751 0.17813 0.0
C367 C 0.26483 0.87904 0.14251 0.0
C368 C 0.20375 0.79933 0.13211 0.0
C369 C 0.13297 0.75823 0.15678 0.0
H370 H 0.20955 0.25435 0.76402 0.0
C371 C 0.24847 0.29729 0.73959 0.0
H372 H 0.34491 0.32732 0.69603 0.0
H373 H 0.47304 0.16837 0.83124 0.0
H374 H 0.54886 0.31135 0.85451 0.0
H375 H 0.52224 0.41505 0.82271 0.0
H376 H 0.41908 0.37667 0.76832 0.0
C377 C 0.3018 0.28303 0.71874 0.0
C378 C 0.32068 0.22153 0.73536 0.0
C379 C 0.38231 0.24589 0.76674 0.0
C380 C 0.39861 0.18667 0.78453 0.0
C381 C 0.45901 0.21154 0.81646 0.0
C382 C 0.50283 0.29322 0.83008 0.0
C383 C 0.48775 0.35161 0.81227 0.0
C384 C 0.42821 0.32863 0.78104 0.0
H385 H 0.46762 0.07192 0.74472 0.0
C386 C 0.4269 0.02855 0.76849 0.0
H387 H 0.32673 -0.00269 0.8096 0.0
H388 H 0.2024 0.15768 0.67422 0.0
H389 H 0.12919 0.01567 0.64955 0.0
H390 H 0.15771 0.91234 0.68015 0.0
H391 H 0.25911 0.95007 0.73553 0.0
C392 C 0.37162 0.04212 0.78768 0.0
C393 C 0.35429 0.10419 0.77026 0.0
C394 C 0.2936 0.08016 0.73838 0.0
C395 C 0.27692 0.13928 0.72081 0.0
C396 C 0.2169 0.11462 0.68872 0.0
C397 C 0.17457 0.03346 0.67429 0.0
C398 C 0.19068 0.97531 0.69149 0.0
C399 C 0.24922 -0.00209 0.72324 0.0
H400 H 0.34375 0.42055 0.20709 0.0
C401 C 0.36546 0.42069 0.23889 0.0
H402 H 0.33984 0.41133 0.30427 0.0
H403 H 0.01464 0.40883 0.2219 0.0
H404 H 0.10747 0.55212 0.20375 0.0
H405 H 0.25666 0.6167 0.2152 0.0
H406 H 0.31369 0.53776 0.2449 0.0
C407 C 0.31782 0.41127 0.27254 0.0
C408 C 0.22822 0.37501 0.26759 0.0
C409 C 0.19616 0.42188 0.25024 0.0
C410 C 0.11027 0.38451 0.24382 0.0
C411 C 0.0795 0.43329 0.227 0.0
C412 C 0.1321 0.51595 0.21662 0.0
C413 C 0.21611 0.5523 0.22301 0.0
C414 C 0.24808 0.5062 0.2398 0.0
H415 H 0.93287 0.2438 0.31137 0.0
C416 C 0.91493 0.24632 0.27903 0.0
H417 H 0.94986 0.26544 0.21476 0.0
H418 H 0.26998 0.26844 0.30369 0.0
H419 H 0.17725 0.12579 0.32259 0.0
H420 H 0.02856 0.05967 0.30902 0.0
H421 H 0.97182 0.13718 0.27741 0.0
C422 C 0.96792 0.26242 0.24702 0.0
C423 C 0.057 0.3003 0.25484 0.0
C424 C 0.08896 0.25375 0.27276 0.0
C425 C 0.17476 0.29145 0.27965 0.0
C426 C 0.20533 0.24349 0.29773 0.0
C427 C 0.15272 0.16114 0.3086 0.0
C428 C 0.06902 0.12402 0.3011 0.0
C429 C 0.0372 0.16937 0.28319 0.0
H430 H 0.92533 0.39332 0.75534 0.0
C431 C 0.97464 0.39291 0.73789 0.0
H432 H 0.01911 0.32255 0.70962 0.0
H433 H 0.83661 0.02375 0.83273 0.0
H434 H 0.97929 0.08037 0.85261 0.0
H435 H 0.08797 0.21173 0.82207 0.0
H436 H 0.05483 0.28703 0.77181 0.0
C437 C 0.96686 0.32175 0.72459 0.0
C438 C 0.90107 0.24195 0.74167 0.0
C439 C 0.92223 0.19825 0.77074 0.0
C440 C 0.86002 0.12235 0.78811 0.0
C441 C 0.88201 0.08086 0.81792 0.0
C442 C 0.96354 0.11291 0.8298 0.0
C443 C 0.02469 0.18685 0.81264 0.0
C444 C 0.00467 0.22941 0.78362 0.0
H445 H 0.75907 0.94422 0.75554 0.0
C446 C 0.70848 0.93947 0.77413 0.0
H447 H 0.65925 0.00217 0.80627 0.0
H448 H 0.84106 0.30916 0.6857 0.0
H449 H 0.6983 0.25313 0.66652 0.0
H450 H 0.58988 0.12173 0.69698 0.0
H451 H 0.62329 0.04605 0.74698 0.0
C452 C 0.7128 0.00724 0.79047 0.0
C453 C 0.77734 0.09002 0.77596 0.0
C454 C 0.75593 0.13445 0.74754 0.0
C455 C 0.81814 0.21038 0.73013 0.0
C456 C 0.79588 0.25211 0.70061 0.0
C457 C 0.71422 0.22039 0.6891 0.0
C458 C 0.65318 0.14642 0.70628 0.0
C459 C 0.67337 0.10359 0.73503 0.0
loop_
_geom_bond_atom_site_label_1
_geom_bond_atom_site_label_2
_geom_bond_distance
_geom_bond_site_symmetry_2
_ccdc_geom_bond_type
O0 Zr5 2.207 . S
O0 C34 1.295 . S
O1 Zr5 2.133 . S
O1 Zr6 2.133 . S
O1 Zr7 2.133 . S
O2 Zr5 2.133 . S
O2 Zr11 2.133 . S
O2 Zr12 2.133 . S
O3 Zr5 2.133 . S
O3 Zr7 2.133 . S
O3 Zr12 2.133 . S
O4 Zr5 2.133 . S
O4 Zr6 2.133 . S
O4 Zr11 2.133 . S
Zr5 O0 2.207 . S
Zr5 O1 2.133 . S
Zr5 O2 2.133 . S
Zr5 O3 2.133 . S
Zr5 O4 2.133 . S
Zr5 O17 2.207 . S
Zr5 O30 2.207 . S
Zr5 O33 2.207 . S
Zr6 O1 2.133 . S
Zr6 O4 2.133 . S
Zr6 O8 2.133 . S
Zr6 O10 2.133 . S
Zr6 O22 2.207 . S
Zr6 O25 2.207 . S
Zr6 O35 2.207 . S
Zr6 O36 2.207 . S
Zr7 O1 2.133 . S
Zr7 O3 2.133 . S
Zr7 O9 2.133 . S
Zr7 O10 2.133 . S
Zr7 O19 2.207 . S
Zr7 O20 2.207 . S
Zr7 O27 2.207 . S
Zr7 O28 2.207 . S
O8 Zr6 2.133 . S
O8 Zr11 2.133 . S
O8 Zr13 2.133 . S
O9 Zr7 2.133 . S
O9 Zr12 2.133 . S
O9 Zr13 2.133 . S
O10 Zr6 2.133 . S
O10 Zr7 2.133 . S
O10 Zr13 2.133 . S
Zr11 O2 2.133 . S
Zr11 O4 2.133 . S
Zr11 O8 2.133 . S
Zr11 O14 2.133 . S
Zr11 O18 2.207 . S
Zr11 O21 2.207 . S
Zr11 O26 2.207 . S
Zr11 O29 2.207 . S
Zr12 O2 2.133 . S
Zr12 O3 2.133 . S
Zr12 O9 2.133 . S
Zr12 O14 2.133 . S
Zr12 O23 2.207 . S
Zr12 O24 2.207 . S
Zr12 O48 2.207 . S
Zr12 O49 2.207 . S
Zr13 O8 2.133 . S
Zr13 O9 2.133 . S
Zr13 O10 2.133 . S
Zr13 O14 2.133 . S
Zr13 O15 2.207 . S
Zr13 O16 2.207 . S
Zr13 O31 2.207 . S
Zr13 O32 2.207 . S
O14 Zr11 2.133 . S
O14 Zr12 2.133 . S
O14 Zr13 2.133 . S
O15 Zr13 2.207 . S
O15 C37 1.295 . S
O16 Zr13 2.207 . S
O16 C38 1.295 . S
O17 Zr5 2.207 . S
O17 C39 1.295 . S
O18 Zr11 2.207 . S
O18 C40 1.295 . S
O19 Zr7 2.207 . S
O19 C41 1.295 . S
O20 Zr7 2.207 . S
O20 C42 1.295 . S
O21 Zr11 2.207 . S
O21 C43 1.295 . S
O22 Zr6 2.207 . S
O22 C44 1.295 . S
O23 Zr12 2.207 . S
O23 C45 1.295 . S
O24 Zr12 2.207 . S
O24 C46 1.295 . S
O25 Zr6 2.207 . S
O25 C47 1.295 . S
O26 Zr11 2.207 . S
O26 C37 1.295 . S
O27 Zr7 2.207 . S
O27 C34 1.295 . S
O28 Zr7 2.207 . S
O28 C38 1.295 . S
O29 Zr11 2.207 . S
O29 C39 1.295 . S
O30 Zr5 2.207 . S
O30 C47 1.295 . S
O31 Zr13 2.207 . S
O31 C46 1.295 . S
O32 Zr13 2.207 . S
O32 C44 1.295 . S
O33 Zr5 2.207 . S
O33 C45 1.295 . S
C34 O0 1.295 . S
C34 O27 1.295 . S
O35 Zr6 2.207 . S
O35 C43 1.295 . S
O36 Zr6 2.207 . S
O36 C41 1.295 . S
C37 O15 1.295 . S
C37 O26 1.295 . S
C38 O16 1.295 . S
C38 O28 1.295 . S
C39 O17 1.295 . S
C39 O29 1.295 . S
C40 O18 1.295 . S
C40 O49 1.295 . S
C41 O19 1.295 . S
C41 O36 1.295 . S
C42 O20 1.295 . S
C42 O48 1.295 . S
C43 O21 1.295 . S
C43 O35 1.295 . S
C44 O22 1.295 . S
C44 O32 1.295 . S
C45 O23 1.295 . S
C45 O33 1.295 . S
C46 O24 1.295 . S
C46 O31 1.295 . S
C47 O25 1.295 . S
C47 O30 1.295 . S
O48 Zr12 2.207 . S
O48 C42 1.295 . S
O49 Zr12 2.207 . S
O49 C40 1.295 . S
O50 Zr55 2.207 . S
O50 C84 1.295 . S
O51 Zr55 2.133 . S
O51 Zr56 2.133 . S
O51 Zr57 2.133 . S
O52 Zr55 2.133 . S
O52 Zr61 2.133 . S
O52 Zr62 2.133 . S
O53 Zr55 2.133 . S
O53 Zr57 2.133 . S
O53 Zr62 2.133 . S
O54 Zr55 2.133 . S
O54 Zr56 2.133 . S
O54 Zr61 2.133 . S
Zr55 O50 2.207 . S
Zr55 O51 2.133 . S
Zr55 O52 2.133 . S
Zr55 O53 2.133 . S
Zr55 O54 2.133 . S
Zr55 O67 2.207 . S
Zr55 O80 2.207 . S
Zr55 O83 2.207 . S
Zr56 O51 2.133 . S
Zr56 O54 2.133 . S
Zr56 O58 2.133 . S
Zr56 O60 2.133 . S
Zr56 O72 2.207 . S
Zr56 O75 2.207 . S
Zr56 O85 2.207 . S
Zr56 O86 2.207 . S
Zr57 O51 2.133 . S
Zr57 O53 2.133 . S
Zr57 O59 2.133 . S
Zr57 O60 2.133 . S
Zr57 O69 2.207 . S
Zr57 O70 2.207 . S
Zr57 O77 2.207 . S
Zr57 O78 2.207 . S
O58 Zr56 2.133 . S
O58 Zr61 2.133 . S
O58 Zr63 2.133 . S
O59 Zr57 2.133 . S
O59 Zr62 2.133 . S
O59 Zr63 2.133 . S
O60 Zr56 2.133 . S
O60 Zr57 2.133 . S
O60 Zr63 2.133 . S
Zr61 O52 2.133 . S
Zr61 O54 2.133 . S
Zr61 O58 2.133 . S
Zr61 O64 2.133 . S
Zr61 O68 2.207 . S
Zr61 O71 2.207 . S
Zr61 O76 2.207 . S
Zr61 O79 2.207 . S
Zr62 O52 2.133 . S
Zr62 O53 2.133 . S
Zr62 O59 2.133 . S
Zr62 O64 2.133 . S
Zr62 O73 2.207 . S
Zr62 O74 2.207 . S
Zr62 O98 2.207 . S
Zr62 O99 2.207 . S
Zr63 O58 2.133 . S
Zr63 O59 2.133 . S
Zr63 O60 2.133 . S
Zr63 O64 2.133 . S
Zr63 O65 2.207 . S
Zr63 O66 2.207 . S
Zr63 O81 2.207 . S
Zr63 O82 2.207 . S
O64 Zr61 2.133 . S
O64 Zr62 2.133 . S
O64 Zr63 2.133 . S
O65 Zr63 2.207 . S
O65 C87 1.295 . S
O66 Zr63 2.207 . S
O66 C88 1.295 . S
O67 Zr55 2.207 . S
O67 C89 1.295 . S
O68 Zr61 2.207 . S
O68 C90 1.295 . S
O69 Zr57 2.207 . S
O69 C91 1.295 . S
O70 Zr57 2.207 . S
O70 C92 1.295 . S
O71 Zr61 2.207 . S
O71 C93 1.295 . S
O72 Zr56 2.207 . S
O72 C94 1.295 . S
O73 Zr62 2.207 . S
O73 C95 1.295 . S
O74 Zr62 2.207 . S
O74 C96 1.295 . S
O75 Zr56 2.207 . S
O75 C97 1.295 . S
O76 Zr61 2.207 . S
O76 C87 1.295 . S
O77 Zr57 2.207 . S
O77 C84 1.295 . S
O78 Zr57 2.207 . S
O78 C88 1.295 . S
O79 Zr61 2.207 . S
O79 C89 1.295 . S
O80 Zr55 2.207 . S
O80 C97 1.295 . S
O81 Zr63 2.207 . S
O81 C96 1.295 . S
O82 Zr63 2.207 . S
O82 C94 1.295 . S
O83 Zr55 2.207 . S
O83 C95 1.295 . S
C84 O50 1.295 . S
C84 O77 1.295 . S
O85 Zr56 2.207 . S
O85 C93 1.295 . S
O86 Zr56 2.207 . S
O86 C91 1.295 . S
C87 O65 1.295 . S
C87 O76 1.295 . S
C88 O66 1.295 . S
C88 O78 1.295 . S
C89 O67 1.295 . S
C89 O79 1.295 . S
C90 O68 1.295 . S
C90 O99 1.295 . S
C91 O69 1.295 . S
C91 O86 1.295 . S
C92 O70 1.295 . S
C92 O98 1.295 . S
C93 O71 1.295 . S
C93 O85 1.295 . S
C94 O72 1.295 . S
C94 O82 1.295 . S
C95 O73 1.295 . S
C95 O83 1.295 . S
C96 O74 1.295 . S
C96 O81 1.295 . S
C97 O75 1.295 . S
C97 O80 1.295 . S
O98 Zr62 2.207 . S
O98 C92 1.295 . S
O99 Zr62 2.207 . S
O99 C90 1.295 . S
H100 C101 0.951 . S
C101 H100 0.951 . S
C101 C107 1.265 . S
H102 C107 0.950 . S
H103 C111 0.949 1_545 S
H104 C112 0.950 . S
H105 C113 0.951 . S
H106 C114 0.951 . S
C107 C101 1.265 . S
C107 H102 0.950 . S
C107 C108 1.478 . S
C108 C107 1.478 . S
C108 C109 1.397 1_556 S
C108 C125 1.394 1_565 S
C109 C108 1.397 1_554 S
C109 C110 1.438 1_565 S
C109 C114 1.429 . S
C110 C109 1.438 1_545 S
C110 C111 1.428 1_545 S
C110 C123 1.394 . S
C111 H103 0.949 1_565 S
C111 C110 1.428 1_565 S
C111 C112 1.345 . S
C112 H104 0.950 . S
C112 C111 1.345 . S
C112 C113 1.424 . S
C113 H105 0.951 . S
C113 C112 1.424 . S
C113 C114 1.347 . S
C114 H106 0.951 . S
C114 C109 1.429 . S
C114 C113 1.347 . S
H115 C116 0.951 . S
C116 H115 0.951 . S
C116 C122 1.265 . S
H117 C122 0.950 . S
H118 C126 0.949 . S
H119 C127 0.950 . S
H120 C128 0.951 . S
H121 C129 0.951 . S
C122 C116 1.265 . S
C122 H117 0.950 . S
C122 C123 1.478 . S
C123 C110 1.394 . S
C123 C122 1.478 . S
C123 C124 1.397 1_554 S
C124 C123 1.397 1_556 S
C124 C125 1.438 . S
C124 C129 1.429 . S
C125 C108 1.394 1_545 S
C125 C124 1.438 . S
C125 C126 1.428 . S
C126 H118 0.949 . S
C126 C125 1.428 . S
C126 C127 1.345 . S
C127 H119 0.950 . S
C127 C126 1.345 . S
C127 C128 1.424 . S
C128 H120 0.951 . S
C128 C127 1.424 . S
C128 C129 1.347 . S
C129 H121 0.951 . S
C129 C124 1.429 . S
C129 C128 1.347 . S
H130 C131 0.951 . S
C131 H130 0.951 . S
C131 C137 1.265 . S
H132 C137 0.950 . S
H133 C141 0.949 . S
H134 C142 0.950 . S
H135 C143 0.951 . S
H136 C144 0.951 . S
C137 C131 1.265 . S
C137 H132 0.950 . S
C137 C138 1.478 . S
C138 C137 1.478 . S
C138 C139 1.397 . S
C138 C155 1.394 . S
C139 C138 1.397 . S
C139 C140 1.438 . S
C139 C144 1.429 . S
C140 C139 1.438 . S
C140 C141 1.428 . S
C140 C153 1.394 . S
C141 H133 0.949 . S
C141 C140 1.428 . S
C141 C142 1.345 . S
C142 H134 0.950 . S
C142 C141 1.345 . S
C142 C143 1.424 . S
C143 H135 0.951 . S
C143 C142 1.424 . S
C143 C144 1.347 . S
C144 H136 0.951 . S
C144 C139 1.429 . S
C144 C143 1.347 . S
H145 C146 0.951 . S
C146 H145 0.951 . S
C146 C152 1.265 . S
H147 C152 0.950 . S
H148 C156 0.949 . S
H149 C157 0.950 . S
H150 C158 0.951 . S
H151 C159 0.951 . S
C152 C146 1.265 . S
C152 H147 0.950 . S
C152 C153 1.478 . S
C153 C140 1.394 . S
C153 C152 1.478 . S
C153 C154 1.397 . S
C154 C153 1.397 . S
C154 C155 1.438 . S
C154 C159 1.429 . S
C155 C138 1.394 . S
C155 C154 1.438 . S
C155 C156 1.428 . S
C156 H148 0.949 . S
C156 C155 1.428 . S
C156 C157 1.345 . S
C157 H149 0.950 . S
C157 C156 1.345 . S
C157 C158 1.424 . S
C158 H150 0.951 . S
C158 C157 1.424 . S
C158 C159 1.347 . S
C159 H151 0.951 . S
C159 C154 1.429 . S
C159 C158 1.347 . S
H160 C161 0.951 . S
C161 H160 0.951 . S
C161 C167 1.265 . S
H162 C167 0.950 . S
H163 C171 0.949 . S
H164 C172 0.950 . S
H165 C173 0.951 . S
H166 C174 0.951 . S
C167 C161 1.265 . S
C167 H162 0.950 . S
C167 C168 1.478 . S
C168 C167 1.478 . S
C168 C169 1.397 . S
C168 C185 1.394 . S
C169 C168 1.397 . S
C169 C170 1.438 1_554 S
C169 C174 1.429 . S
C170 C169 1.438 1_556 S
C170 C171 1.428 . S
C170 C183 1.394 1_655 S
C171 H163 0.949 . S
C171 C170 1.428 . S
C171 C172 1.345 . S
C172 H164 0.950 . S
C172 C171 1.345 . S
C172 C173 1.424 1_556 S
C173 H165 0.951 . S
C173 C172 1.424 1_554 S
C173 C174 1.347 . S
C174 H166 0.951 . S
C174 C169 1.429 . S
C174 C173 1.347 . S
H175 C176 0.951 . S
C176 H175 0.951 . S
C176 C182 1.265 . S
H177 C182 0.950 . S
H178 C186 0.949 . S
H179 C187 0.950 . S
H180 C188 0.951 . S
H181 C189 0.951 . S
C182 C176 1.265 . S
C182 H177 0.950 . S
C182 C183 1.478 . S
C183 C170 1.394 1_455 S
C183 C182 1.478 . S
C183 C184 1.397 . S
C184 C183 1.397 . S
C184 C185 1.438 1_456 S
C184 C189 1.429 . S
C185 C168 1.394 . S
C185 C184 1.438 1_654 S
C185 C186 1.428 . S
C186 H178 0.949 . S
C186 C185 1.428 . S
C186 C187 1.345 . S
C187 H179 0.950 . S
C187 C186 1.345 . S
C187 C188 1.424 1_654 S
C188 H180 0.951 . S
C188 C187 1.424 1_456 S
C188 C189 1.347 . S
C189 H181 0.951 . S
C189 C184 1.429 . S
C189 C188 1.347 . S
H190 C191 0.951 . S
C191 H190 0.951 . S
C191 C197 1.265 . S
H192 C197 0.950 . S
H193 C201 0.949 . S
H194 C202 0.950 . S
H195 C203 0.951 . S
H196 C204 0.951 . S
C197 C191 1.265 . S
C197 H192 0.950 . S
C197 C198 1.478 . S
C198 C197 1.478 . S
C198 C199 1.391 1_565 S
C198 C215 1.394 . S
C199 C198 1.391 1_545 S
C199 C200 1.440 . S
C199 C204 1.432 . S
C200 C199 1.440 . S
C200 C201 1.428 . S
C200 C213 1.394 . S
C201 H193 0.949 . S
C201 C200 1.428 . S
C201 C202 1.345 . S
C202 H194 0.950 . S
C202 C201 1.345 . S
C202 C203 1.424 . S
C203 H195 0.951 . S
C203 C202 1.424 . S
C203 C204 1.347 . S
C204 H196 0.951 . S
C204 C199 1.432 . S
C204 C203 1.347 . S
H205 C206 0.951 . S
C206 H205 0.951 . S
C206 C212 1.265 . S
H207 C212 0.950 . S
H208 C216 0.949 . S
H209 C217 0.950 . S
H210 C218 0.951 . S
H211 C219 0.951 . S
C212 C206 1.265 . S
C212 H207 0.950 . S
C212 C213 1.478 . S
C213 C200 1.394 . S
C213 C212 1.478 . S
C213 C214 1.397 1_545 S
C214 C213 1.397 1_565 S
C214 C215 1.438 . S
C214 C219 1.429 . S
C215 C198 1.394 . S
C215 C214 1.438 . S
C215 C216 1.428 . S
C216 H208 0.949 . S
C216 C215 1.428 . S
C216 C217 1.345 . S
C217 H209 0.950 . S
C217 C216 1.345 . S
C217 C218 1.424 . S
C218 H210 0.951 . S
C218 C217 1.424 . S
C218 C219 1.347 . S
C219 H211 0.951 . S
C219 C214 1.429 . S
C219 C218 1.347 . S
H220 C221 0.951 . S
C221 H220 0.951 . S
C221 C227 1.265 . S
H222 C227 0.950 . S
H223 C231 0.949 . S
H224 C232 0.950 . S
H225 C233 0.951 . S
H226 C234 0.951 . S
C227 C221 1.265 . S
C227 H222 0.950 . S
C227 C228 1.478 . S
C228 C227 1.478 . S
C228 C229 1.397 . S
C228 C245 1.394 . S
C229 C228 1.397 . S
C229 C230 1.438 1_554 S
C229 C234 1.429 . S
C230 C229 1.438 1_556 S
C230 C231 1.428 . S
C230 C243 1.394 . S
C231 H223 0.949 . S
C231 C230 1.428 . S
C231 C232 1.345 1_556 S
C232 H224 0.950 . S
C232 C231 1.345 1_554 S
C232 C233 1.424 . S
C233 H225 0.951 . S
C233 C232 1.424 . S
C233 C234 1.347 . S
C234 H226 0.951 . S
C234 C229 1.429 . S
C234 C233 1.347 . S
H235 C236 0.951 . S
C236 H235 0.951 . S
C236 C242 1.265 . S
H237 C242 0.950 . S
H238 C246 0.949 . S
H239 C247 0.950 . S
H240 C248 0.951 . S
H241 C249 0.951 . S
C242 C236 1.265 . S
C242 H237 0.950 . S
C242 C243 1.478 . S
C243 C230 1.394 . S
C243 C242 1.478 . S
C243 C244 1.397 . S
C244 C243 1.397 . S
C244 C245 1.438 1_556 S
C244 C249 1.429 . S
C245 C228 1.394 . S
C245 C244 1.438 1_554 S
C245 C246 1.428 . S
C246 H238 0.949 . S
C246 C245 1.428 . S
C246 C247 1.345 1_554 S
C247 H239 0.950 . S
C247 C246 1.345 1_556 S
C247 C248 1.424 . S
C248 H240 0.951 . S
C248 C247 1.424 . S
C248 C249 1.347 . S
C249 H241 0.951 . S
C249 C244 1.429 . S
C249 C248 1.347 . S
H250 C251 0.951 . S
C251 H250 0.951 . S
C251 C257 1.265 . S
H252 C257 0.950 . S
H253 C261 0.949 . S
H254 C262 0.950 . S
H255 C263 0.951 . S
H256 C264 0.951 1_655 S
C257 C251 1.265 . S
C257 H252 0.950 . S
C257 C258 1.478 . S
C258 C257 1.478 . S
C258 C259 1.397 1_655 S
C258 C275 1.394 1_655 S
C259 C258 1.397 1_455 S
C259 C260 1.438 . S
C259 C264 1.429 . S
C260 C259 1.438 . S
C260 C261 1.428 . S
C260 C273 1.394 . S
C261 H253 0.949 . S
C261 C260 1.428 . S
C261 C262 1.345 . S
C262 H254 0.950 . S
C262 C261 1.345 . S
C262 C263 1.424 . S
C263 H255 0.951 . S
C263 C262 1.424 . S
C263 C264 1.347 . S
C264 H256 0.951 1_455 S
C264 C259 1.429 . S
C264 C263 1.347 . S
H265 C266 0.951 . S
C266 H265 0.951 . S
C266 C272 1.265 . S
H267 C272 0.950 . S
H268 C276 0.949 . S
H269 C277 0.950 1_655 S
H270 C278 0.951 . S
H271 C279 0.951 . S
C272 C266 1.265 . S
C272 H267 0.950 . S
C272 C273 1.478 . S
C273 C260 1.394 . S
C273 C272 1.478 . S
C273 C274 1.397 . S
C274 C273 1.397 . S
C274 C275 1.438 . S
C274 C279 1.429 . S
C275 C258 1.394 1_455 S
C275 C274 1.438 . S
C275 C276 1.428 1_455 S
C276 H268 0.949 . S
C276 C275 1.428 1_655 S
C276 C277 1.345 1_655 S
C277 H269 0.950 1_455 S
C277 C276 1.345 1_455 S
C277 C278 1.424 . S
C278 H270 0.951 . S
C278 C277 1.424 . S
C278 C279 1.347 . S
C279 H271 0.951 . S
C279 C274 1.429 . S
C279 C278 1.347 . S
H280 C281 0.951 1_565 S
C281 H280 0.951 1_545 S
C281 C287 1.265 1_545 S
H282 C287 0.950 1_545 S
H283 C291 0.949 . S
H284 C292 0.950 . S
H285 C293 0.951 . S
H286 C294 0.951 . S
C287 C281 1.265 1_565 S
C287 H282 0.950 1_565 S
C287 C288 1.478 . S
C288 C287 1.478 . S
C288 C289 1.397 . S
C288 C305 1.394 . S
C289 C288 1.397 . S
C289 C290 1.438 . S
C289 C294 1.429 . S
C290 C289 1.438 . S
C290 C291 1.428 . S
C290 C303 1.394 . S
C291 H283 0.949 . S
C291 C290 1.428 . S
C291 C292 1.345 . S
C292 H284 0.950 . S
C292 C291 1.345 . S
C292 C293 1.424 . S
C293 H285 0.951 . S
C293 C292 1.424 . S
C293 C294 1.347 . S
C294 H286 0.951 . S
C294 C289 1.429 . S
C294 C293 1.347 . S
H295 C296 0.951 . S
C296 H295 0.951 . S
C296 C302 1.265 . S
H297 C302 0.950 . S
H298 C306 0.949 . S
H299 C307 0.950 . S
H300 C308 0.951 . S
H301 C309 0.951 . S
C302 C296 1.265 . S
C302 H297 0.950 . S
C302 C303 1.478 . S
C303 C290 1.394 . S
C303 C302 1.478 . S
C303 C304 1.397 . S
C304 C303 1.397 . S
C304 C305 1.438 . S
C304 C309 1.429 . S
C305 C288 1.394 . S
C305 C304 1.438 . S
C305 C306 1.428 . S
C306 H298 0.949 . S
C306 C305 1.428 . S
C306 C307 1.345 . S
C307 H299 0.950 . S
C307 C306 1.345 . S
C307 C308 1.424 . S
C308 H300 0.951 . S
C308 C307 1.424 . S
C308 C309 1.347 . S
C309 H301 0.951 . S
C309 C304 1.429 . S
C309 C308 1.347 . S
H310 C311 0.951 . S
C311 H310 0.951 . S
C311 C317 1.265 1_455 S
H312 C317 0.950 . S
H313 C321 0.949 . S
H314 C322 0.950 . S
H315 C323 0.951 . S
H316 C324 0.951 . S
C317 C311 1.265 1_655 S
C317 H312 0.950 . S
C317 C318 1.478 . S
C318 C317 1.478 . S
C318 C319 1.397 . S
C318 C335 1.394 . S
C319 C318 1.397 . S
C319 C320 1.438 . S
C319 C324 1.429 . S
C320 C319 1.438 . S
C320 C321 1.428 . S
C320 C333 1.394 . S
C321 H313 0.949 . S
C321 C320 1.428 . S
C321 C322 1.345 . S
C322 H314 0.950 . S
C322 C321 1.345 . S
C322 C323 1.424 . S
C323 H315 0.951 . S
C323 C322 1.424 . S
C323 C324 1.347 . S
C324 H316 0.951 . S
C324 C319 1.429 . S
C324 C323 1.347 . S
H325 C326 0.951 . S
C326 H325 0.951 . S
C326 C332 1.265 . S
H327 C332 0.950 . S
H328 C336 0.949 . S
H329 C337 0.950 . S
H330 C338 0.951 . S
H331 C339 0.951 . S
C332 C326 1.265 . S
C332 H327 0.950 . S
C332 C333 1.478 . S
C333 C320 1.394 . S
C333 C332 1.478 . S
C333 C334 1.397 . S
C334 C333 1.397 . S
C334 C335 1.438 . S
C334 C339 1.429 . S
C335 C318 1.394 . S
C335 C334 1.438 . S
C335 C336 1.428 . S
C336 H328 0.949 . S
C336 C335 1.428 . S
C336 C337 1.345 . S
C337 H329 0.950 . S
C337 C336 1.345 . S
C337 C338 1.424 . S
C338 H330 0.951 . S
C338 C337 1.424 . S
C338 C339 1.347 . S
C339 H331 0.951 . S
C339 C334 1.429 . S
C339 C338 1.347 . S
H340 C341 0.951 . S
C341 H340 0.951 . S
C341 C347 1.265 1_545 S
H342 C347 0.950 . S
H343 C351 0.949 . S
H344 C352 0.950 . S
H345 C353 0.951 . S
H346 C354 0.951 . S
C347 C341 1.265 1_565 S
C347 H342 0.950 . S
C347 C348 1.478 . S
C348 C347 1.478 . S
C348 C349 1.397 . S
C348 C365 1.394 . S
C349 C348 1.397 . S
C349 C350 1.438 . S
C349 C354 1.429 . S
C350 C349 1.438 . S
C350 C351 1.428 . S
C350 C363 1.394 . S
C351 H343 0.949 . S
C351 C350 1.428 . S
C351 C352 1.345 . S
C352 H344 0.950 . S
C352 C351 1.345 . S
C352 C353 1.424 . S
C353 H345 0.951 . S
C353 C352 1.424 . S
C353 C354 1.347 . S
C354 H346 0.951 . S
C354 C349 1.429 . S
C354 C353 1.347 . S
H355 C356 0.951 1_455 S
C356 H355 0.951 1_655 S
C356 C362 1.265 1_655 S
H357 C362 0.950 1_655 S
H358 C366 0.949 . S
H359 C367 0.950 . S
H360 C368 0.951 . S
H361 C369 0.951 . S
C362 C356 1.265 1_455 S
C362 H357 0.950 1_455 S
C362 C363 1.478 . S
C363 C350 1.394 . S
C363 C362 1.478 . S
C363 C364 1.397 . S
C364 C363 1.397 . S
C364 C365 1.438 . S
C364 C369 1.429 . S
C365 C348 1.394 . S
C365 C364 1.438 . S
C365 C366 1.428 . S
C366 H358 0.949 . S
C366 C365 1.428 . S
C366 C367 1.345 . S
C367 H359 0.950 . S
C367 C366 1.345 . S
C367 C368 1.424 . S
C368 H360 0.951 . S
C368 C367 1.424 . S
C368 C369 1.347 . S
C369 H361 0.951 . S
C369 C364 1.429 . S
C369 C368 1.347 . S
H370 C371 0.951 . S
C371 H370 0.951 . S
C371 C377 1.265 . S
H372 C377 0.950 . S
H373 C381 0.949 . S
H374 C382 0.950 . S
H375 C383 0.951 . S
H376 C384 0.951 . S
C377 C371 1.265 . S
C377 H372 0.950 . S
C377 C378 1.478 . S
C378 C377 1.478 . S
C378 C379 1.397 . S
C378 C395 1.394 . S
C379 C378 1.397 . S
C379 C380 1.438 . S
C379 C384 1.429 . S
C380 C379 1.438 . S
C380 C381 1.428 . S
C380 C393 1.394 . S
C381 H373 0.949 . S
C381 C380 1.428 . S
C381 C382 1.345 . S
C382 H374 0.950 . S
C382 C381 1.345 . S
C382 C383 1.424 . S
C383 H375 0.951 . S
C383 C382 1.424 . S
C383 C384 1.347 . S
C384 H376 0.951 . S
C384 C379 1.429 . S
C384 C383 1.347 . S
H385 C386 0.951 1_545 S
C386 H385 0.951 1_565 S
C386 C392 1.265 1_565 S
H387 C392 0.950 1_565 S
H388 C396 0.949 . S
H389 C397 0.950 . S
H390 C398 0.951 . S
H391 C399 0.951 . S
C392 C386 1.265 1_545 S
C392 H387 0.950 1_545 S
C392 C393 1.478 . S
C393 C380 1.394 . S
C393 C392 1.478 . S
C393 C394 1.397 . S
C394 C393 1.397 . S
C394 C395 1.438 . S
C394 C399 1.429 . S
C395 C378 1.394 . S
C395 C394 1.438 . S
C395 C396 1.428 . S
C396 H388 0.949 . S
C396 C395 1.428 . S
C396 C397 1.345 . S
C397 H389 0.950 . S
C397 C396 1.345 . S
C397 C398 1.424 . S
C398 H390 0.951 . S
C398 C397 1.424 . S
C398 C399 1.347 . S
C399 H391 0.951 . S
C399 C394 1.429 . S
C399 C398 1.347 . S
H400 C401 0.951 . S
C401 H400 0.951 . S
C401 C407 1.265 . S
H402 C407 0.950 . S
H403 C411 0.949 . S
H404 C412 0.950 . S
H405 C413 0.951 . S
H406 C414 0.951 . S
C407 C401 1.265 . S
C407 H402 0.950 . S
C407 C408 1.478 . S
C408 C407 1.478 . S
C408 C409 1.397 . S
C408 C425 1.394 . S
C409 C408 1.397 . S
C409 C410 1.438 . S
C409 C414 1.429 . S
C410 C409 1.438 . S
C410 C411 1.428 . S
C410 C423 1.394 . S
C411 H403 0.949 . S
C411 C410 1.428 . S
C411 C412 1.345 . S
C412 H404 0.950 . S
C412 C411 1.345 . S
C412 C413 1.424 . S
C413 H405 0.951 . S
C413 C412 1.424 . S
C413 C414 1.347 . S
C414 H406 0.951 . S
C414 C409 1.429 . S
C414 C413 1.347 . S
H415 C416 0.951 . S
C416 H415 0.951 . S
C416 C422 1.265 . S
H417 C422 0.950 . S
H418 C426 0.949 . S
H419 C427 0.950 . S
H420 C428 0.951 . S
H421 C429 0.951 1_655 S
C422 C416 1.265 . S
C422 H417 0.950 . S
C422 C423 1.478 1_655 S
C423 C410 1.394 . S
C423 C422 1.478 1_455 S
C423 C424 1.397 . S
C424 C423 1.397 . S
C424 C425 1.438 . S
C424 C429 1.429 . S
C425 C408 1.394 . S
C425 C424 1.438 . S
C425 C426 1.428 . S
C426 H418 0.949 . S
C426 C425 1.428 . S
C426 C427 1.345 . S
C427 H419 0.950 . S
C427 C426 1.345 . S
C427 C428 1.424 . S
C428 H420 0.951 . S
C428 C427 1.424 . S
C428 C429 1.347 . S
C429 H421 0.951 1_455 S
C429 C424 1.429 . S
C429 C428 1.347 . S
H430 C431 0.951 1_655 S
C431 H430 0.951 1_455 S
C431 C437 1.265 1_455 S
H432 C437 0.950 1_455 S
H433 C441 0.950 1_565 S
H434 C442 0.950 . S
H435 C443 0.951 . S
H436 C444 0.951 1_455 S
C437 C431 1.265 1_655 S
C437 H432 0.950 1_655 S
C437 C438 1.478 . S
C438 C437 1.478 . S
C438 C439 1.397 . S
C438 C455 1.394 . S
C439 C438 1.397 . S
C439 C440 1.438 . S
C439 C444 1.429 . S
C440 C439 1.438 . S
C440 C441 1.428 . S
C440 C453 1.394 . S
C441 H433 0.950 1_545 S
C441 C440 1.428 . S
C441 C442 1.345 . S
C442 H434 0.950 . S
C442 C441 1.345 . S
C442 C443 1.424 . S
C443 H435 0.951 . S
C443 C442 1.424 . S
C443 C444 1.347 . S
C444 H436 0.951 1_655 S
C444 C439 1.429 . S
C444 C443 1.347 . S
H445 C446 0.951 . S
C446 H445 0.951 . S
C446 C452 1.265 1_565 S
H447 C452 0.950 . S
H448 C456 0.949 . S
H449 C457 0.950 . S
H450 C458 0.951 . S
H451 C459 0.951 . S
C452 C446 1.265 1_545 S
C452 H447 0.950 . S
C452 C453 1.478 . S
C453 C440 1.394 . S
C453 C452 1.478 . S
C453 C454 1.397 . S
C454 C453 1.397 . S
C454 C455 1.438 . S
C454 C459 1.429 . S
C455 C438 1.394 . S
C455 C454 1.438 . S
C455 C456 1.428 . S
C456 H448 0.949 . S
C456 C455 1.428 . S
C456 C457 1.345 . S
C457 H449 0.950 . S
C457 C456 1.345 . S
C457 C458 1.424 . S
C458 H450 0.951 . S
C458 C457 1.424 . S
C458 C459 1.347 . S
C459 H451 0.951 . S
C459 C454 1.429 . S
C459 C458 1.347 . S
C101 C84 1.819 . S
C116 C34 1.665 . S
C131 C96 1.709 . S
C146 C37 1.829 . S
C161 C45 1.757 . S
C176 C97 1.839 . S
C191 C90 1.687 . S
C206 C44 1.824 . S
C221 C42 1.733 . S
C236 C91 1.834 . S
C251 C43 1.827 . S
C266 C87 1.702 . S
C281 C41 1.138 . S
C296 C40 1.138 . S
C311 C89 1.138 . S
C326 C88 1.138 . S
C341 C38 1.138 . S
C356 C39 1.138 . S
C371 C94 1.138 . S
C386 C95 1.138 . S
C401 C46 1.080 . S
C416 C47 1.080 . S
C431 C93 1.137 . S
C446 C92 1.137 . S
