# Generated by pormake.
# Topology uki, (4)-cn, num edge types: 1
# Building blocks:
#     Node 0, Type 0, BuildingBlock: GALJAG_clean_sbu_0, # of connection points: 4
#     Node 1, Type 0, BuildingBlock: GALJAG_clean_sbu_0, # of connection points: 4
#     Node 2, Type 0, BuildingBlock: GALJAG_clean_sbu_0, # of connection points: 4
#     Node 3, Type 0, BuildingBlock: GALJAG_clean_sbu_0, # of connection points: 4
#     Node 4, Type 0, BuildingBlock: GALJAG_clean_sbu_0, # of connection points: 4
#     Node 5, Type 0, BuildingBlock: GALJAG_clean_sbu_0, # of connection points: 4
#     Node 6, Type 0, BuildingBlock: GALJAG_clean_sbu_0, # of connection points: 4
#     Node 7, Type 0, BuildingBlock: GALJAG_clean_sbu_0, # of connection points: 4
#     Node 8, Type 0, BuildingBlock: GALJAG_clean_sbu_0, # of connection points: 4
#     Node 9, Type 0, BuildingBlock: GALJAG_clean_sbu_0, # of connection points: 4
#     Node 10, Type 0, BuildingBlock: GALJAG_clean_sbu_0, # of connection points: 4
#     Node 11, Type 0, BuildingBlock: GALJAG_clean_sbu_0, # of connection points: 4
#     Node 12, Type 0, BuildingBlock: GALJAG_clean_sbu_0, # of connection points: 4
#     Node 13, Type 0, BuildingBlock: GALJAG_clean_sbu_0, # of connection points: 4
#     Node 14, Type 0, BuildingBlock: GALJAG_clean_sbu_0, # of connection points: 4
#     Node 15, Type 0, BuildingBlock: GALJAG_clean_sbu_0, # of connection points: 4
#     Edge 16, Type (0, 0), BuildingBlock: XIVTED_clean_linker_0, # of connection points: 2
#     Edge 17, Type (0, 0), BuildingBlock: XIVTED_clean_linker_0, # of connection points: 2
#     Edge 18, Type (0, 0), BuildingBlock: XIVTED_clean_linker_0, # of connection points: 2
#     Edge 19, Type (0, 0), BuildingBlock: XIVTED_clean_linker_0, # of connection points: 2
#     Edge 20, Type (0, 0), BuildingBlock: XIVTED_clean_linker_0, # of connection points: 2
#     Edge 21, Type (0, 0), BuildingBlock: XIVTED_clean_linker_0, # of connection points: 2
#     Edge 22, Type (0, 0), BuildingBlock: XIVTED_clean_linker_0, # of connection points: 2
#     Edge 23, Type (0, 0), BuildingBlock: XIVTED_clean_linker_0, # of connection points: 2
#     Edge 24, Type (0, 0), BuildingBlock: XIVTED_clean_linker_0, # of connection points: 2
#     Edge 25, Type (0, 0), BuildingBlock: XIVTED_clean_linker_0, # of connection points: 2
#     Edge 26, Type (0, 0), BuildingBlock: XIVTED_clean_linker_0, # of connection points: 2
#     Edge 27, Type (0, 0), BuildingBlock: XIVTED_clean_linker_0, # of connection points: 2
#     Edge 28, Type (0, 0), BuildingBlock: XIVTED_clean_linker_0, # of connection points: 2
#     Edge 29, Type (0, 0), BuildingBlock: XIVTED_clean_linker_0, # of connection points: 2
#     Edge 30, Type (0, 0), BuildingBlock: XIVTED_clean_linker_0, # of connection points: 2
#     Edge 31, Type (0, 0), BuildingBlock: XIVTED_clean_linker_0, # of connection points: 2
#     Edge 32, Type (0, 0), BuildingBlock: XIVTED_clean_linker_0, # of connection points: 2
#     Edge 33, Type (0, 0), BuildingBlock: XIVTED_clean_linker_0, # of connection points: 2
#     Edge 34, Type (0, 0), BuildingBlock: XIVTED_clean_linker_0, # of connection points: 2
#     Edge 35, Type (0, 0), BuildingBlock: XIVTED_clean_linker_0, # of connection points: 2
#     Edge 36, Type (0, 0), BuildingBlock: XIVTED_clean_linker_0, # of connection points: 2
#     Edge 37, Type (0, 0), BuildingBlock: XIVTED_clean_linker_0, # of connection points: 2
#     Edge 38, Type (0, 0), BuildingBlock: XIVTED_clean_linker_0, # of connection points: 2
#     Edge 39, Type (0, 0), BuildingBlock: XIVTED_clean_linker_0, # of connection points: 2
#     Edge 40, Type (0, 0), BuildingBlock: XIVTED_clean_linker_0, # of connection points: 2
#     Edge 41, Type (0, 0), BuildingBlock: XIVTED_clean_linker_0, # of connection points: 2
#     Edge 42, Type (0, 0), BuildingBlock: XIVTED_clean_linker_0, # of connection points: 2
#     Edge 43, Type (0, 0), BuildingBlock: XIVTED_clean_linker_0, # of connection points: 2
#     Edge 44, Type (0, 0), BuildingBlock: XIVTED_clean_linker_0, # of connection points: 2
#     Edge 45, Type (0, 0), BuildingBlock: XIVTED_clean_linker_0, # of connection points: 2
#     Edge 46, Type (0, 0), BuildingBlock: XIVTED_clean_linker_0, # of connection points: 2
#     Edge 47, Type (0, 0), BuildingBlock: XIVTED_clean_linker_0, # of connection points: 2
# Relax obj value: 0.105
# Max RMSD: 0.179
# Mean RMSD: 0.179
data_MOF--net-uki--node1-GALJAG_clean_sbu_0--edge1-XIVTED_clean_linker_0
_symmetry_space_group_name_H-M    P1
_symmetry_Int_Tables_number       1
_symmetry_cell_setting            triclinic
loop_
_symmetry_equiv_pos_as_xyz
'x, y, z'
_cell_length_a     30.428776
_cell_length_b     30.419965
_cell_length_c     76.489424
_cell_angle_alpha  90.034244
_cell_angle_beta   90.02427
_cell_angle_gamma 89.96588
loop_
_atom_site_label
_atom_site_type_symbol
_atom_site_fract_x
_atom_site_fract_y
_atom_site_fract_z
_atom_type_partial_charge
In0 In 0.07703 0.24101 0.30412 0.0
O1 O 0.11731 0.28245 0.3237 0.0
O2 O 0.12189 0.21311 0.32522 0.0
C3 C 0.00519 0.29332 0.30612 0.0
C4 C 0.04826 0.15762 0.3035 0.0
C5 C 0.11356 0.25925 0.27269 0.0
O6 O 0.04353 0.30841 0.30441 0.0
O7 O 0.0036 0.25231 0.30818 0.0
O8 O 0.13637 0.2493 0.2859 0.0
O9 O 0.07271 0.25823 0.27522 0.0
C10 C 0.1341 0.24961 0.33122 0.0
O11 O 0.07063 0.17385 0.29117 0.0
O12 O 0.04102 0.18332 0.31616 0.0
In13 In 0.24658 0.93963 0.69575 0.0
O14 O 0.26654 0.91998 0.66775 0.0
O15 O 0.25537 0.86929 0.6862 0.0
C16 C 0.27892 0.02227 0.69479 0.0
C17 C 0.15902 0.95329 0.69532 0.0
C18 C 0.28178 0.91034 0.726 0.0
O19 O 0.30224 0.98924 0.69094 0.0
O20 O 0.23938 0.01349 0.69818 0.0
O21 O 0.29927 0.93976 0.71677 0.0
O22 O 0.24617 0.89522 0.72002 0.0
C23 C 0.26526 0.87919 0.67072 0.0
O24 O 0.18027 0.94744 0.70931 0.0
O25 O 0.18176 0.95098 0.68155 0.0
In26 In 0.92168 0.7611 0.30274 0.0
O27 O 0.93203 0.82676 0.28905 0.0
O28 O 0.93239 0.82634 0.31682 0.0
C29 C 0.89347 0.7293 0.27173 0.0
C30 C 0.86138 0.74165 0.32767 0.0
C31 C 0.00184 0.72328 0.30453 0.0
O32 O 0.87589 0.76245 0.27881 0.0
O33 O 0.92437 0.71234 0.28035 0.0
O34 O 0.9669 0.70247 0.30788 0.0
O35 O 0.99632 0.76357 0.30134 0.0
C36 C 0.93637 0.84851 0.30298 0.0
O37 O 0.90204 0.74315 0.33085 0.0
O38 O 0.8514 0.7492 0.31198 0.0
In39 In 0.75733 0.0627 0.69521 0.0
O40 O 0.82421 0.0635 0.70871 0.0
O41 O 0.82184 0.04797 0.68156 0.0
C42 C 0.70922 0.08374 0.72366 0.0
C43 C 0.74311 0.12646 0.67117 0.0
C44 C 0.73112 0.97811 0.69386 0.0
O45 O 0.74928 0.09432 0.7224 0.0
O46 O 0.69381 0.06409 0.71052 0.0
O47 O 0.71021 0.00847 0.68622 0.0
O48 O 0.76601 0.9903 0.70129 0.0
C49 C 0.84513 0.0525 0.69511 0.0
O50 O 0.74031 0.08606 0.66754 0.0
O51 O 0.75263 0.13455 0.68689 0.0
In52 In 0.07064 0.25751 0.95096 0.0
O53 O 0.09176 0.2409 0.92303 0.0
O54 O 0.14187 0.24821 0.94209 0.0
C55 C 0.98713 0.22818 0.94859 0.0
C56 C 0.06038 0.34543 0.95132 0.0
C57 C 0.09288 0.21539 0.98072 0.0
O58 O 0.01944 0.20617 0.94301 0.0
O59 O 0.99689 0.26568 0.95441 0.0
O60 O 0.10725 0.25336 0.97725 0.0
O61 O 0.06889 0.19876 0.96906 0.0
C62 C 0.13238 0.2406 0.92633 0.0
O63 O 0.06617 0.32339 0.96511 0.0
O64 O 0.0609 0.32323 0.93738 0.0
In65 In 0.25169 0.9245 0.05632 0.0
O66 O 0.22605 0.89945 0.08275 0.0
O67 O 0.25518 0.8533 0.06548 0.0
C68 C 0.20332 0.99767 0.06109 0.0
C69 C 0.33796 0.94551 0.05658 0.0
C70 C 0.22182 0.90201 0.02414 0.0
O71 O 0.18617 0.95992 0.05987 0.0
O72 O 0.24479 0.99773 0.06129 0.0
O73 O 0.22367 0.94107 0.02948 0.0
O74 O 0.23615 0.87392 0.03486 0.0
C75 C 0.2372 0.86004 0.08007 0.0
O76 O 0.31785 0.93482 0.04282 0.0
O77 O 0.31499 0.94423 0.07026 0.0
In78 In 0.92426 0.73978 0.95029 0.0
O79 O 0.93305 0.67407 0.9644 0.0
O80 O 0.95605 0.67982 0.9382 0.0
C81 C 0.88701 0.76245 0.98116 0.0
C82 C 0.86692 0.74741 0.92332 0.0
C83 C -0.00145 0.78801 0.94709 0.0
O84 O 0.92793 0.76101 0.97884 0.0
O85 O 0.86459 0.75082 0.96808 0.0
O86 O 0.96139 0.80545 0.94943 0.0
O87 O 0.99749 0.74696 0.94513 0.0
C88 C 0.95189 0.65587 0.95156 0.0
O89 O 0.88756 0.78014 0.92927 0.0
O90 O 0.87532 0.71167 0.93088 0.0
In91 In 0.73302 0.07251 0.05515 0.0
O92 O 0.66511 0.07092 0.04268 0.0
O93 O 0.6696 0.0597 0.07007 0.0
C94 C 0.77065 0.09973 0.02513 0.0
C95 C 0.7534 0.13291 0.07994 0.0
C96 C 0.76099 0.98828 0.05492 0.0
O97 O 0.73379 0.11416 0.03013 0.0
O98 O 0.7884 0.07253 0.03535 0.0
O99 O 0.78397 0.01891 0.06137 0.0
O100 O 0.72382 0.00012 0.04939 0.0
C101 C 0.6453 0.0619 0.05672 0.0
O102 O 0.75351 0.09216 0.08306 0.0
O103 O 0.7438 0.14279 0.06441 0.0
In104 In 0.57741 0.7333 0.80392 0.0
O105 O 0.60183 0.76294 0.82996 0.0
O106 O 0.64614 0.72477 0.81487 0.0
C107 C 0.49605 0.76677 0.80094 0.0
C108 C 0.55568 0.64879 0.80902 0.0
C109 C 0.60696 0.76918 0.77388 0.0
O110 O 0.52515 0.78499 0.81032 0.0
O111 O 0.50782 0.73142 0.79367 0.0
O112 O 0.61135 0.7287 0.77705 0.0
O113 O 0.5893 0.7911 0.78593 0.0
C114 C 0.63991 0.74681 0.82857 0.0
O115 O 0.58076 0.66075 0.79676 0.0
O116 O 0.54226 0.6793 0.81887 0.0
In117 In 0.743 0.43051 0.19598 0.0
O118 O 0.76144 0.40683 0.16848 0.0
O119 O 0.74713 0.35856 0.18765 0.0
C120 C 0.77084 0.51451 0.19409 0.0
C121 C 0.65553 0.44334 0.1957 0.0
C122 C 0.78783 0.40916 0.22524 0.0
O123 O 0.79227 0.4832 0.18732 0.0
O124 O 0.73489 0.50344 0.20095 0.0
O125 O 0.74866 0.39672 0.22283 0.0
O126 O 0.80413 0.43083 0.21281 0.0
C127 C 0.75778 0.36649 0.17205 0.0
O128 O 0.67625 0.43324 0.20945 0.0
O129 O 0.67876 0.44531 0.18204 0.0
In130 In 0.42285 0.25485 0.80739 0.0
O131 O 0.41769 0.32777 0.80031 0.0
O132 O 0.46467 0.30887 0.81943 0.0
C133 C 0.39205 0.23605 0.77508 0.0
C134 C 0.36426 0.24282 0.83365 0.0
C135 C 0.4915 0.19886 0.80596 0.0
O136 O 0.42998 0.25153 0.77755 0.0
O137 O 0.36947 0.23139 0.78876 0.0
O138 O 0.45216 0.18579 0.80491 0.0
O139 O 0.4957 0.23937 0.80899 0.0
C140 C 0.44783 0.3395 0.81062 0.0
O141 O 0.40284 0.22763 0.83446 0.0
O142 O 0.35591 0.26381 0.81989 0.0
In143 In 0.25904 0.56693 0.19726 0.0
O144 O 0.3268 0.5658 0.20997 0.0
O145 O 0.3228 0.55481 0.18254 0.0
C146 C 0.21826 0.5934 0.22676 0.0
C147 C 0.23956 0.62722 0.17236 0.0
C148 C 0.23348 0.48199 0.19736 0.0
O149 O 0.25602 0.60722 0.22265 0.0
O150 O 0.20127 0.5672 0.21594 0.0
O151 O 0.21018 0.5118 0.19048 0.0
O152 O 0.26967 0.49505 0.20343 0.0
C153 C 0.34687 0.55689 0.19596 0.0
O154 O 0.2391 0.58642 0.16931 0.0
O155 O 0.24912 0.63727 0.18787 0.0
In156 In 0.56978 0.75383 0.44591 0.0
O157 O 0.56654 0.82027 0.45953 0.0
O158 O 0.55549 0.81847 0.43206 0.0
C159 C 0.59439 0.7125 0.47558 0.0
C160 C 0.63194 0.73816 0.42131 0.0
C161 C 0.48623 0.72428 0.44468 0.0
O162 O 0.57105 0.69475 0.46395 0.0
O163 O 0.6066 0.75122 0.47214 0.0
O164 O 0.51801 0.70218 0.43867 0.0
O165 O 0.49656 0.7617 0.45042 0.0
C166 C 0.55716 0.84138 0.44581 0.0
O167 O 0.59135 0.73551 0.41808 0.0
O168 O 0.64098 0.74814 0.43688 0.0
In169 In 0.75975 0.42364 0.55495 0.0
O170 O 0.74104 0.4021 0.58284 0.0
O171 O 0.75323 0.35257 0.56399 0.0
C172 C 0.71508 0.50011 0.55696 0.0
C173 C 0.84579 0.44533 0.55539 0.0
C174 C 0.73075 0.3942 0.52361 0.0
O175 O 0.69676 0.46324 0.55922 0.0
O176 O 0.75614 0.49823 0.55481 0.0
O177 O 0.71506 0.42733 0.53123 0.0
O178 O 0.76164 0.37542 0.53173 0.0
C179 C 0.74335 0.36152 0.57956 0.0
O180 O 0.82523 0.43705 0.54146 0.0
O181 O 0.8233 0.44148 0.56914 0.0
In182 In 0.42569 0.23641 0.45002 0.0
O183 O 0.43135 0.1681 0.46183 0.0
O184 O 0.4462 0.17567 0.43476 0.0
C185 C 0.39719 0.27864 0.47898 0.0
C186 C 0.36198 0.24792 0.42575 0.0
C187 C 0.50938 0.26523 0.45004 0.0
O188 O 0.38775 0.23891 0.47606 0.0
O189 O 0.41975 0.29677 0.46724 0.0
O190 O 0.47952 0.28489 0.44156 0.0
O191 O 0.49704 0.23093 0.45784 0.0
C192 C 0.44395 0.15021 0.44777 0.0
O193 O 0.4002 0.26336 0.42375 0.0
O194 O 0.35621 0.22753 0.43989 0.0
In195 In 0.23915 0.58114 0.55542 0.0
O196 O 0.17199 0.57411 0.54261 0.0
O197 O 0.17588 0.56558 0.57014 0.0
C198 C 0.27236 0.60746 0.5244 0.0
C199 C 0.25839 0.64309 0.57981 0.0
C200 C 0.27517 0.50006 0.55656 0.0
O201 O 0.23723 0.62344 0.53048 0.0
O202 O 0.2906 0.57931 0.53403 0.0
O203 O 0.29626 0.53415 0.56093 0.0
O204 O 0.23552 0.50684 0.55259 0.0
C205 C 0.15208 0.56522 0.55663 0.0
O206 O 0.25989 0.60246 0.58306 0.0
O207 O 0.24767 0.65226 0.56434 0.0
H208 H 0.20048 0.26592 0.26389 0.0
H209 H 0.14935 0.4505 0.19417 0.0
H210 H 0.07014 0.29421 0.24472 0.0
H211 H 0.28015 0.41247 0.20984 0.0
H212 H 0.12063 0.38368 0.20783 0.0
H213 H 0.23118 0.30902 0.23989 0.0
C214 C 0.17837 0.2805 0.25443 0.0
C215 C 0.13273 0.27717 0.25646 0.0
C216 C 0.15574 0.38945 0.20795 0.0
C217 C 0.16747 0.32719 0.22914 0.0
C218 C 0.17214 0.4275 0.20006 0.0
C219 C 0.21704 0.4374 0.2012 0.0
C220 C 0.1845 0.36147 0.21711 0.0
C221 C 0.24516 0.40645 0.20895 0.0
C222 C 0.19587 0.30518 0.24072 0.0
C223 C 0.10556 0.29642 0.24375 0.0
N224 N 0.22834 0.37031 0.21689 0.0
N225 N 0.12331 0.32132 0.23081 0.0
H226 H 0.42296 0.72828 0.78728 0.0
H227 H 0.34565 0.94973 0.74532 0.0
H228 H 0.47464 0.85385 0.80348 0.0
H229 H 0.2676 0.83164 0.74244 0.0
H230 H 0.38893 0.91676 0.76879 0.0
H231 H 0.36119 0.76579 0.77336 0.0
C232 C 0.42071 0.76375 0.78824 0.0
C233 C 0.45414 0.78811 0.79633 0.0
C234 C 0.36187 0.89827 0.76326 0.0
C235 C 0.3842 0.83129 0.78011 0.0
C236 C 0.33729 0.91702 0.74982 0.0
C237 C 0.30346 0.89307 0.74181 0.0
C238 C 0.35318 0.85489 0.76847 0.0
C239 C 0.29364 0.85105 0.74822 0.0
C240 C 0.38546 0.78516 0.78029 0.0
C241 C 0.44961 0.8339 0.79729 0.0
N242 N 0.31898 0.83291 0.76097 0.0
N243 N 0.41576 0.85413 0.78892 0.0
H244 H 0.85699 0.53921 0.19149 0.0
H245 H 0.81533 0.74345 0.25473 0.0
H246 H 0.7285 0.58845 0.20511 0.0
H247 H 0.93681 0.67081 0.25114 0.0
H248 H 0.78705 0.702 0.22958 0.0
H249 H 0.88999 0.60335 0.20564 0.0
C250 C 0.83567 0.56422 0.19695 0.0
C251 C 0.79003 0.55817 0.19747 0.0
C252 C 0.82017 0.69575 0.23413 0.0
C253 C 0.82745 0.631 0.21388 0.0
C254 C 0.83628 0.71936 0.24845 0.0
C255 C 0.87807 0.70983 0.25518 0.0
C256 C 0.84626 0.66276 0.2265 0.0
C257 C 0.90405 0.67855 0.24653 0.0
C258 C 0.85452 0.60063 0.20516 0.0
C259 C 0.76393 0.59159 0.20471 0.0
N260 N 0.88756 0.65581 0.23275 0.0
N261 N 0.78304 0.62624 0.21292 0.0
H262 H 0.57868 0.22032 0.80663 0.0
H263 H 0.62983 0.04832 0.73157 0.0
H264 H 0.48965 0.11711 0.79108 0.0
H265 H 0.72632 0.14003 0.75099 0.0
H266 H 0.58173 0.06731 0.75587 0.0
H267 H 0.63697 0.18508 0.7897 0.0
C268 C 0.57169 0.1896 0.80002 0.0
C269 C 0.52907 0.17194 0.80004 0.0
C270 C 0.61355 0.08306 0.75497 0.0
C271 C 0.59535 0.13199 0.78035 0.0
C272 C 0.64097 0.0724 0.74103 0.0
C273 C 0.68182 0.09318 0.73913 0.0
C274 C 0.62671 0.11527 0.76704 0.0
C275 C 0.69487 0.12357 0.75191 0.0
C276 C 0.60496 0.16962 0.79028 0.0
C277 C 0.52193 0.13204 0.79131 0.0
N278 N 0.6671 0.1342 0.76521 0.0
N279 N 0.55451 0.11385 0.78155 0.0
H280 H 0.1158 0.0053 0.05358 0.0
H281 H 0.15645 0.23377 0.00521 0.0
H282 H 0.23425 0.08191 0.05927 0.0
H283 H 0.05177 0.1429 0.99335 0.0
H284 H 0.17603 0.18862 0.03068 0.0
H285 H 0.08176 0.06673 0.03815 0.0
C286 C 0.1342 0.03553 0.05207 0.0
C287 C 0.17825 0.03816 0.05735 0.0
C288 C 0.14841 0.17898 0.02261 0.0
C289 C 0.13991 0.10814 0.03934 0.0
C290 C 0.13732 0.20464 0.00809 0.0
C291 C 0.10304 0.1915 0.99701 0.0
C292 C 0.12476 0.14023 0.02607 0.0
C293 C 0.079 0.15375 0.00138 0.0
C294 C 0.11489 0.07049 0.0431 0.0
C295 C 0.20041 0.07826 0.05514 0.0
N296 N 0.09054 0.12928 0.01547 0.0
N297 N 0.18134 0.1114 0.04596 0.0
H298 H 0.17457 0.95557 0.00257 0.0
H299 H 0.08137 0.7537 0.94741 0.0
H300 H 0.21824 0.82136 0.00829 0.0
H301 H 0.01027 0.87469 0.95576 0.0
H302 H 0.14549 0.78604 0.96167 0.0
H303 H 0.12821 0.93306 0.978 0.0
C304 C 0.17507 0.92151 0.99843 0.0
C305 C 0.19975 0.89008 0.00763 0.0
C306 C 0.11617 0.80582 0.96003 0.0
C307 C 0.147 0.86432 0.97954 0.0
C308 C 0.07962 0.78753 0.95178 0.0
C309 C 0.04014 0.81129 0.95072 0.0
C310 C 0.11324 0.84819 0.96717 0.0
C311 C 0.03989 0.85505 0.95651 0.0
C312 C 0.14855 0.90874 0.98444 0.0
C313 C 0.19929 0.84649 0.00168 0.0
N314 N 0.0757 0.87191 0.96477 0.0
N315 N 0.17295 0.83479 0.9881 0.0
H316 H 0.79982 0.76932 0.98945 0.0
H317 H 0.84595 0.95892 0.05798 0.0
H318 H 0.92927 0.80134 0.00862 0.0
H319 H 0.71621 0.91772 0.04219 0.0
H320 H 0.87638 0.89261 0.04444 0.0
H321 H 0.7679 0.81418 0.01271 0.0
C322 C 0.82149 0.78517 0.99876 0.0
C323 C 0.86723 0.7822 0.99695 0.0
C324 C 0.84114 0.8976 0.04426 0.0
C325 C 0.83105 0.8342 0.02344 0.0
C326 C 0.82376 0.93537 0.05206 0.0
C327 C 0.77861 0.94417 0.05092 0.0
C328 C 0.81313 0.86877 0.03516 0.0
C329 C 0.75134 0.91253 0.04313 0.0
C330 C 0.80329 0.81084 0.01204 0.0
C331 C 0.8938 0.80314 0.00944 0.0
N332 N 0.76909 0.87665 0.03528 0.0
N333 N 0.87535 0.8289 0.02197 0.0
H334 H 0.83531 0.05754 0.00734 0.0
H335 H 0.91158 0.26963 0.9586 0.0
H336 H 0.75612 0.17514 0.00637 0.0
H337 H 0.96495 0.14124 0.94745 0.0
H338 H 0.84859 0.23488 0.97276 0.0
H339 H 0.87803 0.0857 0.98283 0.0
C340 C 0.82666 0.08917 0.00181 0.0
C341 C 0.79265 0.11442 0.00901 0.0
C342 C 0.87348 0.21425 0.96682 0.0
C343 C 0.8417 0.14716 0.98107 0.0
C344 C 0.90939 0.23408 0.95869 0.0
C345 C 0.94388 0.20824 0.95214 0.0
C346 C 0.87258 0.16834 0.96868 0.0
C347 C 0.93929 0.16239 0.95249 0.0
C348 C 0.85088 0.10514 0.98774 0.0
C349 C 0.78237 0.15487 0.00124 0.0
N350 N 0.90483 0.14388 0.96103 0.0
N351 N 0.80741 0.17045 0.98787 0.0
H352 H 0.56862 0.83876 0.7581 0.0
H353 H 0.77322 0.90412 0.70507 0.0
H354 H 0.67566 0.74698 0.75234 0.0
H355 H 0.6447 0.95462 0.69229 0.0
H356 H 0.73867 0.8422 0.72011 0.0
H357 H 0.59501 0.8789 0.73259 0.0
C358 C 0.59753 0.82688 0.7513 0.0
C359 C 0.62043 0.78998 0.75738 0.0
C360 C 0.71803 0.86608 0.71356 0.0
C361 C 0.65117 0.83599 0.72834 0.0
C362 C 0.73772 0.90138 0.70495 0.0
C363 C 0.71171 0.93481 0.69769 0.0
C364 C 0.67213 0.86499 0.71524 0.0
C365 C 0.66594 0.92969 0.69783 0.0
C366 C 0.61237 0.84955 0.73666 0.0
C367 C 0.65734 0.77552 0.74804 0.0
N368 N 0.64753 0.89606 0.70693 0.0
N369 N 0.67227 0.79921 0.73416 0.0
H370 H 0.91966 0.26571 0.30544 0.0
H371 H 0.86227 0.44966 0.23623 0.0
H372 H 0.00119 0.37888 0.29537 0.0
H373 H 0.77139 0.34703 0.25051 0.0
H374 H 0.90844 0.42989 0.26101 0.0
H375 H 0.85967 0.30088 0.28944 0.0
C376 C 0.92454 0.29851 0.30029 0.0
C377 C 0.96575 0.31907 0.30144 0.0
C378 C 0.87821 0.41189 0.2589 0.0
C379 C 0.89761 0.35905 0.28281 0.0
C380 C 0.85193 0.42302 0.24468 0.0
C381 C 0.81337 0.39941 0.24117 0.0
C382 C 0.86632 0.37632 0.26959 0.0
C383 C 0.80113 0.36575 0.25269 0.0
C384 C 0.89033 0.31848 0.29106 0.0
C385 C 0.97015 0.3616 0.29461 0.0
N386 N 0.82794 0.35468 0.26626 0.0
N387 N 0.9368 0.3798 0.28529 0.0
H388 H 0.23424 0.09771 0.70187 0.0
H389 H 0.44231 0.20806 0.74758 0.0
H390 H 0.36577 0.04569 0.6977 0.0
H391 H 0.30783 0.2242 0.76417 0.0
H392 H 0.41649 0.16624 0.72208 0.0
H393 H 0.26352 0.16239 0.71672 0.0
C394 C 0.26946 0.10043 0.70367 0.0
C395 C 0.29755 0.06588 0.69889 0.0
C396 C 0.39268 0.17984 0.73111 0.0
C397 C 0.33112 0.13952 0.71608 0.0
C398 C 0.40732 0.20383 0.74559 0.0
C399 C 0.37707 0.21907 0.75805 0.0
C400 C 0.34754 0.17175 0.72904 0.0
C401 C 0.33218 0.21253 0.75495 0.0
C402 C 0.2861 0.13728 0.71222 0.0
C403 C 0.34293 0.0714 0.70135 0.0
N404 N 0.31879 0.18907 0.74083 0.0
N405 N 0.3583 0.10718 0.71012 0.0
H406 H 0.08127 0.76064 0.29696 0.0
H407 H 0.14918 0.55268 0.2423 0.0
H408 H 0.01678 0.63497 0.30179 0.0
H409 H 0.23353 0.66591 0.24725 0.0
H410 H 0.10494 0.57973 0.2666 0.0
H411 H 0.14255 0.72464 0.28206 0.0
C412 C 0.08056 0.72528 0.29531 0.0
C413 C 0.04356 0.70084 0.30034 0.0
C414 C 0.13344 0.59846 0.26258 0.0
C415 C 0.11301 0.65964 0.28296 0.0
C416 C 0.15858 0.58313 0.24864 0.0
C417 C 0.19463 0.60747 0.24263 0.0
C418 C 0.14386 0.63894 0.27038 0.0
C419 C 0.20574 0.64636 0.25144 0.0
C420 C 0.1155 0.70475 0.28674 0.0
C421 C 0.04446 0.65513 0.29796 0.0
N422 N 0.17994 0.66135 0.2647 0.0
N423 N 0.07818 0.63614 0.2891 0.0
H424 H 0.62685 0.50753 0.55093 0.0
H425 H 0.65846 0.73372 0.49941 0.0
H426 H 0.74676 0.58314 0.55186 0.0
H427 H 0.55745 0.63805 0.48856 0.0
H428 H 0.68167 0.68963 0.52469 0.0
H429 H 0.59103 0.56716 0.53494 0.0
C430 C 0.64527 0.53724 0.54825 0.0
C431 C 0.69006 0.5401 0.55242 0.0
C432 C 0.65408 0.67868 0.51688 0.0
C433 C 0.64956 0.60799 0.53389 0.0
C434 C 0.64089 0.70375 0.50248 0.0
C435 C 0.60654 0.68903 0.49175 0.0
C436 C 0.63238 0.63899 0.52061 0.0
C437 C 0.5846 0.65017 0.49634 0.0
C438 C 0.62492 0.5711 0.53898 0.0
C439 C 0.71231 0.57938 0.54865 0.0
N440 N 0.59808 0.62637 0.51035 0.0
N441 N 0.69204 0.61154 0.53931 0.0
H442 H 0.74068 0.31236 0.5091 0.0
H443 H 0.53614 0.35046 0.44562 0.0
H444 H 0.67573 0.43692 0.50132 0.0
H445 H 0.5816 0.2232 0.4627 0.0
H446 H 0.60175 0.38384 0.45862 0.0
H447 H 0.69696 0.28122 0.48516 0.0
C448 C 0.71791 0.33335 0.50211 0.0
C449 C 0.71113 0.37697 0.50736 0.0
C450 C 0.59782 0.34848 0.45917 0.0
C451 C 0.66118 0.34177 0.4801 0.0
C452 C 0.56056 0.32942 0.45164 0.0
C453 C 0.55316 0.28417 0.45339 0.0
C454 C 0.62772 0.32199 0.46843 0.0
C455 C 0.58579 0.25837 0.46133 0.0
C456 C 0.69291 0.31559 0.4885 0.0
C457 C 0.68137 0.40286 0.49785 0.0
N458 N 0.62133 0.27771 0.46881 0.0
N459 N 0.6571 0.38474 0.48482 0.0
H460 H 0.36328 0.48359 0.55449 0.0
H461 H 0.32792 0.26064 0.50084 0.0
H462 H 0.23673 0.4216 0.54824 0.0
H463 H 0.43476 0.35155 0.49285 0.0
H464 H 0.30163 0.30676 0.52515 0.0
H465 H 0.39747 0.42121 0.53957 0.0
C466 C 0.34284 0.45627 0.55045 0.0
C467 C 0.29704 0.45807 0.55232 0.0
C468 C 0.33118 0.31612 0.5182 0.0
C469 C 0.3358 0.38705 0.53509 0.0
C470 C 0.34614 0.2899 0.50438 0.0
C471 C 0.38308 0.30281 0.49472 0.0
C472 C 0.35389 0.35489 0.52247 0.0
C473 C 0.40569 0.34087 0.49982 0.0
C474 C 0.36232 0.42086 0.54181 0.0
C475 C 0.27214 0.42172 0.54684 0.0
N476 N 0.39063 0.36566 0.51329 0.0
N477 N 0.29176 0.38792 0.53822 0.0
H478 H 0.46283 0.63754 0.44383 0.0
H479 H 0.25649 0.68272 0.50565 0.0
H480 H 0.41175 0.76682 0.45507 0.0
H481 H 0.3334 0.56355 0.5053 0.0
H482 H 0.29808 0.70879 0.48015 0.0
H483 H 0.39933 0.60532 0.45864 0.0
C484 C 0.43757 0.65913 0.44892 0.0
C485 C 0.44292 0.70488 0.44857 0.0
C486 C 0.30524 0.67662 0.4855 0.0
C487 C 0.37077 0.66837 0.46572 0.0
C488 C 0.28156 0.66177 0.50001 0.0
C489 C 0.29221 0.62136 0.50773 0.0
C490 C 0.33933 0.65056 0.47865 0.0
C491 C 0.32476 0.59531 0.49991 0.0
C492 C 0.40152 0.64074 0.4575 0.0
C493 C 0.40916 0.73133 0.45534 0.0
N494 N 0.34744 0.61051 0.4859 0.0
N495 N 0.37485 0.71271 0.46393 0.0
H496 H 0.2859 0.2014 0.42433 0.0
H497 H 0.18539 0.32021 0.34054 0.0
H498 H 0.35835 0.30177 0.39685 0.0
H499 H 0.1558 0.1862 0.35467 0.0
H500 H 0.24085 0.3225 0.364 0.0
H501 H 0.22917 0.20432 0.4018 0.0
C502 C 0.28975 0.22429 0.41359 0.0
C503 C 0.32699 0.25125 0.4124 0.0
C504 C 0.22205 0.29273 0.36193 0.0
C505 C 0.26189 0.25495 0.38663 0.0
C506 C 0.19034 0.29147 0.34865 0.0
C507 C 0.1661 0.25293 0.34569 0.0
C508 C 0.22869 0.2555 0.37246 0.0
C509 C 0.17389 0.21651 0.35648 0.0
C510 C 0.25742 0.22579 0.40071 0.0
C511 C 0.33023 0.28025 0.39818 0.0
N512 N 0.2043 0.21877 0.36944 0.0
N513 N 0.29795 0.28148 0.38583 0.0
H514 H 0.2741 0.63215 0.61481 0.0
H515 H 0.27529 0.89085 0.63537 0.0
H516 H 0.26053 0.73213 0.57519 0.0
H517 H 0.26967 0.79032 0.67507 0.0
H518 H 0.27949 0.83331 0.61297 0.0
H519 H 0.282 0.68986 0.63691 0.0
C520 C 0.27311 0.66624 0.61075 0.0
C521 C 0.26634 0.67737 0.59316 0.0
C522 C 0.27763 0.82387 0.62659 0.0
C523 C 0.27529 0.7436 0.61836 0.0
C524 C 0.27537 0.8567 0.63937 0.0
C525 C 0.27183 0.84533 0.65708 0.0
C526 C 0.27649 0.7794 0.63158 0.0
C527 C 0.27208 0.80057 0.66155 0.0
C528 C 0.27753 0.69918 0.62337 0.0
C529 C 0.26542 0.72208 0.58862 0.0
N530 N 0.27416 0.76928 0.6489 0.0
N531 N 0.26964 0.75355 0.60114 0.0
H532 H 0.721 0.73887 0.42577 0.0
H533 H 0.77276 0.73278 0.32333 0.0
H534 H 0.62104 0.72464 0.38615 0.0
H535 H 0.87339 0.7345 0.36307 0.0
H536 H 0.71693 0.72658 0.34614 0.0
H537 H 0.77739 0.73425 0.4031 0.0
C538 C 0.71093 0.73449 0.41229 0.0
C539 C 0.66625 0.73236 0.40781 0.0
C540 C 0.75122 0.728 0.3499 0.0
C541 C 0.73067 0.72729 0.38176 0.0
C542 C 0.78313 0.73154 0.33687 0.0
C543 C 0.82777 0.73438 0.34132 0.0
C544 C 0.76397 0.72761 0.36755 0.0
C545 C 0.83933 0.73249 0.35907 0.0
C546 C 0.74316 0.73183 0.39935 0.0
C547 C 0.6551 0.72654 0.39017 0.0
N548 N 0.8076 0.72955 0.37154 0.0
N549 N 0.68709 0.72452 0.37777 0.0
H550 H 0.74261 0.21535 0.67648 0.0
H551 H 0.74048 0.27281 0.57455 0.0
H552 H 0.73148 0.11755 0.63585 0.0
H553 H 0.73309 0.37146 0.61499 0.0
H554 H 0.73576 0.21562 0.59685 0.0
H555 H 0.73781 0.27306 0.65431 0.0
C556 C 0.73892 0.20603 0.66289 0.0
C557 C 0.73763 0.16158 0.65799 0.0
C558 C 0.73486 0.24974 0.60088 0.0
C559 C 0.73237 0.22747 0.63252 0.0
C560 C 0.73758 0.28244 0.58814 0.0
C561 C 0.73735 0.32696 0.59294 0.0
C562 C 0.73226 0.26156 0.6186 0.0
C563 C 0.73343 0.33752 0.61073 0.0
C564 C 0.73613 0.239 0.65024 0.0
C565 C 0.73269 0.1514 0.6402 0.0
N566 N 0.73136 0.30504 0.62293 0.0
N567 N 0.73053 0.18408 0.62811 0.0
H568 H 0.12017 0.23548 0.89103 0.0
H569 H 0.37604 0.21471 0.86754 0.0
H570 H 0.22148 0.23227 0.93049 0.0
H571 H 0.2765 0.25786 0.83121 0.0
H572 H 0.31936 0.20912 0.89037 0.0
H573 H 0.17679 0.23113 0.86844 0.0
C574 C 0.15433 0.2335 0.89494 0.0
C575 C 0.16617 0.23455 0.91265 0.0
C576 C 0.31005 0.21964 0.87737 0.0
C577 C 0.23119 0.22957 0.88686 0.0
C578 C 0.34228 0.22271 0.86436 0.0
C579 C 0.33094 0.23703 0.84752 0.0
C580 C 0.26622 0.23039 0.87338 0.0
C581 C 0.28675 0.247 0.84406 0.0
C582 C 0.18665 0.23117 0.88204 0.0
C583 C 0.21097 0.23182 0.91697 0.0
N584 N 0.25607 0.24346 0.85685 0.0
N585 N 0.24191 0.22955 0.90416 0.0
H586 H 0.22827 0.71546 0.17692 0.0
H587 H 0.2497 0.77188 0.07557 0.0
H588 H 0.23482 0.61584 0.13684 0.0
H589 H 0.21205 0.86782 0.11434 0.0
H590 H 0.24468 0.71427 0.09776 0.0
H591 H 0.22232 0.77174 0.15425 0.0
C592 C 0.22813 0.70541 0.16333 0.0
C593 C 0.23224 0.66093 0.15874 0.0
C594 C 0.23717 0.74785 0.1014 0.0
C595 C 0.22589 0.72526 0.1327 0.0
C596 C 0.24013 0.78078 0.08875 0.0
C597 C 0.23148 0.82473 0.09315 0.0
C598 C 0.22598 0.75897 0.11865 0.0
C599 C 0.21907 0.83436 0.1104 0.0
C600 C 0.22467 0.73757 0.15039 0.0
C601 C 0.23174 0.64977 0.14094 0.0
N602 N 0.21707 0.8018 0.12256 0.0
N603 N 0.22908 0.68177 0.12856 0.0
H604 H 0.84123 0.68084 0.90213 0.0
H605 H 0.64347 0.80447 0.85634 0.0
H606 H 0.82029 0.8191 0.91155 0.0
H607 H 0.71444 0.69842 0.83166 0.0
H608 H 0.70076 0.8078 0.8791 0.0
H609 H 0.78698 0.68339 0.87864 0.0
C610 C 0.8252 0.71179 0.89921 0.0
C611 C 0.83527 0.74985 0.90873 0.0
C612 C 0.70373 0.78409 0.8686 0.0
C613 C 0.77266 0.75283 0.88203 0.0
C614 C 0.67109 0.78204 0.8557 0.0
C615 C 0.67423 0.75105 0.84214 0.0
C616 C 0.73899 0.75429 0.86807 0.0
C617 C 0.71071 0.72284 0.84186 0.0
C618 C 0.79437 0.71325 0.88578 0.0
C619 C 0.81355 0.78911 0.9044 0.0
N620 N 0.74136 0.72482 0.85471 0.0
N621 N 0.7828 0.78955 0.89144 0.0
H622 H 0.76229 0.22127 0.07519 0.0
H623 H 0.75528 0.27758 0.17719 0.0
H624 H 0.76139 0.12192 0.11542 0.0
H625 H 0.77269 0.37528 0.13693 0.0
H626 H 0.75987 0.21993 0.15496 0.0
H627 H 0.76874 0.27785 0.09769 0.0
C628 C 0.76377 0.21134 0.08878 0.0
C629 C 0.76108 0.16683 0.09346 0.0
C630 C 0.763 0.25394 0.15099 0.0
C631 C 0.76809 0.23157 0.11934 0.0
C632 C 0.76034 0.28689 0.16368 0.0
C633 C 0.76338 0.33131 0.15888 0.0
C634 C 0.76843 0.26549 0.13334 0.0
C635 C 0.77006 0.34146 0.14119 0.0
C636 C 0.76747 0.24369 0.10163 0.0
C637 C 0.76332 0.15586 0.11125 0.0
N638 N 0.77205 0.30883 0.12906 0.0
N639 N 0.76632 0.18805 0.12356 0.0
H640 H 0.94231 0.90361 0.33109 0.0
H641 H 0.05018 0.09925 0.27631 0.0
H642 H 0.95903 0.89962 0.27509 0.0
H643 H 0.00671 0.11337 0.32972 0.0
H644 H 0.02011 0.02466 0.2759 0.0
H645 H 0.96818 0.97971 0.33115 0.0
C646 C 0.95114 0.91889 0.3188 0.0
C647 C 0.94861 0.89536 0.30306 0.0
C648 C 0.01707 0.04413 0.28769 0.0
C649 C 0.97866 0.98207 0.30304 0.0
C650 C 0.03439 0.08659 0.28796 0.0
C651 C 0.03097 0.11239 0.30308 0.0
C652 C 0.99654 0.02732 0.30272 0.0
C653 C 0.01004 0.09452 0.31779 0.0
C654 C 0.96592 0.96228 0.31883 0.0
C655 C 0.96046 0.91665 0.2875 0.0
N656 N 0.99375 0.053 0.31726 0.0
N657 N 0.97528 0.95875 0.28789 0.0
H658 H 0.90055 0.04914 0.72329 0.0
H659 H 0.10621 0.96585 0.6669 0.0
H660 H 0.89688 0.03006 0.66739 0.0
H661 H 0.1057 0.97038 0.72329 0.0
H662 H 0.03028 0.99199 0.66676 0.0
H663 H 0.97714 0.02446 0.72348 0.0
C664 C 0.916 0.04014 0.71104 0.0
C665 C 0.89238 0.04158 0.6953 0.0
C666 C 0.04668 0.98712 0.67918 0.0
C667 C 0.97971 0.01299 0.69543 0.0
C668 C 0.08998 0.97207 0.67926 0.0
C669 C 0.11219 0.96587 0.69513 0.0
C670 C 0.02549 0.99628 0.69508 0.0
C671 C 0.08968 0.97458 0.71076 0.0
C672 C 0.95961 0.02582 0.71116 0.0
C673 C 0.9139 0.02939 0.67982 0.0
N674 N 0.04759 0.98951 0.71034 0.0
N675 N 0.95631 0.01552 0.68028 0.0
H676 H 0.05281 0.40057 0.92339 0.0
H677 H 0.95522 0.59968 0.97954 0.0
H678 H 0.04248 0.39738 0.97964 0.0
H679 H 0.98783 0.60917 0.92477 0.0
H680 H 0.98519 0.52488 0.97991 0.0
H681 H 0.02812 0.47694 0.92367 0.0
C682 C 0.04569 0.41611 0.93582 0.0
C683 C 0.04961 0.39268 0.95151 0.0
C684 C 0.98586 0.54341 0.96783 0.0
C685 C 0.02081 0.47987 0.95194 0.0
C686 C 0.9686 0.58597 0.9676 0.0
C687 C 0.96896 0.61052 0.95209 0.0
C688 C 0.00328 0.5253 0.95241 0.0
C689 C 0.98685 0.59134 0.93701 0.0
C690 C 0.03154 0.45969 0.93598 0.0
C691 C 0.03995 0.41436 0.96725 0.0
N692 N 0.00315 0.54984 0.93753 0.0
N693 N 0.02566 0.4567 0.96706 0.0
H694 H 0.39089 0.95985 0.02833 0.0
H695 H 0.59514 0.04263 0.08532 0.0
H696 H 0.38846 0.96872 0.08463 0.0
H697 H 0.58929 0.05235 0.02908 0.0
H698 H 0.51986 0.01459 0.08545 0.0
H699 H 0.46483 0.9912 0.02839 0.0
C700 C 0.40607 0.96813 0.04071 0.0
C701 C 0.38363 0.96163 0.0565 0.0
C702 C 0.53492 0.02315 0.07309 0.0
C703 C 0.46799 0.99779 0.05668 0.0
C704 C 0.57782 0.03928 0.07302 0.0
C705 C 0.59843 0.04974 0.05716 0.0
C706 C 0.51265 0.01711 0.05718 0.0
C707 C 0.57457 0.04471 0.0416 0.0
C708 C 0.44815 0.98627 0.04074 0.0
C709 C 0.40469 0.97314 0.07217 0.0
N710 N 0.53303 0.02845 0.04199 0.0
N711 N 0.44574 0.99065 0.07186 0.0
H712 H 0.52995 0.36682 0.81938 0.0
H713 H 0.47795 0.62065 0.8225 0.0
H714 H 0.40219 0.41513 0.80421 0.0
H715 H 0.5987 0.57374 0.79957 0.0
H716 H 0.45095 0.5446 0.8237 0.0
H717 H 0.55729 0.44275 0.81991 0.0
C718 C 0.50762 0.39349 0.81633 0.0
C719 C 0.46385 0.38499 0.8117 0.0
C720 C 0.48342 0.55114 0.81852 0.0
C721 C 0.49455 0.47118 0.81263 0.0
C722 C 0.49892 0.59424 0.81793 0.0
C723 C 0.54052 0.60318 0.81091 0.0
C724 C 0.51028 0.51689 0.81251 0.0
C725 C 0.56636 0.56802 0.80501 0.0
C726 C 0.52327 0.43655 0.81656 0.0
C727 C 0.43622 0.42051 0.80775 0.0
N728 N 0.55095 0.52619 0.80607 0.0
N729 N 0.45195 0.46229 0.80845 0.0
H730 H 0.6016 0.45343 0.224 0.0
H731 H 0.39746 0.53875 0.16738 0.0
H732 H 0.60405 0.4652 0.16779 0.0
H733 H 0.40221 0.54501 0.22372 0.0
H734 H 0.4724 0.50983 0.16721 0.0
H735 H 0.52686 0.48309 0.22413 0.0
C736 C 0.58622 0.46183 0.21167 0.0
C737 C 0.60898 0.45686 0.19586 0.0
C738 C 0.45718 0.51779 0.17961 0.0
C739 C 0.52379 0.49122 0.19591 0.0
C740 C 0.41448 0.53446 0.17971 0.0
C741 C 0.39366 0.5443 0.19559 0.0
C742 C 0.4791 0.51057 0.19552 0.0
C743 C 0.41713 0.53798 0.21118 0.0
C744 C 0.5437 0.47905 0.21176 0.0
C745 C 0.58764 0.4685 0.18027 0.0
N746 N 0.45853 0.52124 0.21076 0.0
N747 N 0.54625 0.4852 0.18069 0.0
H748 H 0.46902 0.10341 0.41894 0.0
H749 H 0.54673 0.89434 0.47434 0.0
H750 H 0.4537 0.09261 0.47487 0.0
H751 H 0.53774 0.89441 0.41803 0.0
H752 H 0.51877 0.96966 0.47475 0.0
H753 H 0.49883 0.02872 0.41827 0.0
C754 C 0.47166 0.08518 0.43106 0.0
C755 C 0.45882 0.10412 0.44698 0.0
C756 C 0.52305 0.95326 0.4623 0.0
C757 C 0.49338 0.01904 0.44635 0.0
C758 C 0.53928 0.91039 0.46205 0.0
C759 C 0.54448 0.88815 0.44612 0.0
C760 C 0.51215 0.97411 0.4465 0.0
C761 C 0.53416 0.9104 0.43059 0.0
C762 C 0.48876 0.04263 0.43068 0.0
C763 C 0.46307 0.07916 0.4623 0.0
N764 N 0.51841 0.95218 0.43117 0.0
N765 N 0.48019 0.03796 0.46162 0.0
H766 H 0.89816 0.46288 0.52729 0.0
H767 H 0.10204 0.5439 0.58508 0.0
H768 H 0.89684 0.46559 0.58369 0.0
H769 H 0.09697 0.55391 0.52883 0.0
H770 H 0.02721 0.51454 0.58496 0.0
H771 H 0.97205 0.49423 0.52765 0.0
C772 C 0.91357 0.46982 0.53975 0.0
C773 C 0.89143 0.46158 0.55549 0.0
C774 C 0.04237 0.52339 0.57265 0.0
C775 C 0.97581 0.49776 0.55602 0.0
C776 C 0.08501 0.54026 0.57272 0.0
C777 C 0.10568 0.55129 0.55694 0.0
C778 C 0.0204 0.51727 0.55668 0.0
C779 C 0.08221 0.54584 0.5413 0.0
C780 C 0.95566 0.48792 0.53996 0.0
C781 C 0.91282 0.47138 0.57127 0.0
N782 N 0.0409 0.529 0.54156 0.0
N783 N 0.95385 0.48897 0.57113 0.0
loop_
_geom_bond_atom_site_label_1
_geom_bond_atom_site_label_2
_geom_bond_distance
_geom_bond_site_symmetry_2
_ccdc_geom_bond_type
In0 O1 2.294 . S
In0 O2 2.326 . S
In0 O6 2.266 . S
In0 O7 2.326 . S
In0 O8 2.266 . S
In0 O9 2.326 . S
In0 O11 2.294 . S
In0 O12 2.326 . S
O1 In0 2.294 . S
O1 C10 1.240 . S
O2 In0 2.326 . S
O2 C10 1.252 . S
C3 O6 1.252 1_655 S
C3 O7 1.260 1_655 S
C4 O11 1.240 . S
C4 O12 1.252 . S
C5 O8 1.252 . S
C5 O9 1.260 . S
O6 In0 2.266 . S
O6 C3 1.252 1_455 S
O7 In0 2.326 . S
O7 C3 1.260 1_455 S
O8 In0 2.266 . S
O8 C5 1.252 . S
O9 In0 2.326 . S
O9 C5 1.260 . S
C10 O1 1.240 . S
C10 O2 1.252 . S
O11 In0 2.294 . S
O11 C4 1.240 . S
O12 In0 2.326 . S
O12 C4 1.252 . S
In13 O14 2.294 . S
In13 O15 2.326 . S
In13 O19 2.266 . S
In13 O20 2.326 . S
In13 O21 2.266 . S
In13 O22 2.326 . S
In13 O24 2.294 . S
In13 O25 2.326 . S
O14 In13 2.294 . S
O14 C23 1.240 . S
O15 In13 2.326 . S
O15 C23 1.252 . S
C16 O19 1.252 1_545 S
C16 O20 1.260 1_545 S
C17 O24 1.240 . S
C17 O25 1.252 . S
C18 O21 1.252 . S
C18 O22 1.260 . S
O19 In13 2.266 . S
O19 C16 1.252 1_565 S
O20 In13 2.326 . S
O20 C16 1.260 1_565 S
O21 In13 2.266 . S
O21 C18 1.252 . S
O22 In13 2.326 . S
O22 C18 1.260 . S
C23 O14 1.240 . S
C23 O15 1.252 . S
O24 In13 2.294 . S
O24 C17 1.240 . S
O25 In13 2.326 . S
O25 C17 1.252 . S
In26 O27 2.294 . S
In26 O28 2.326 . S
In26 O32 2.266 . S
In26 O33 2.326 . S
In26 O34 2.266 . S
In26 O35 2.326 . S
In26 O37 2.294 . S
In26 O38 2.326 . S
O27 In26 2.294 . S
O27 C36 1.240 . S
O28 In26 2.326 . S
O28 C36 1.252 . S
C29 O32 1.252 . S
C29 O33 1.260 . S
C30 O37 1.240 . S
C30 O38 1.252 . S
C31 O34 1.252 1_455 S
C31 O35 1.260 1_455 S
O32 In26 2.266 . S
O32 C29 1.252 . S
O33 In26 2.326 . S
O33 C29 1.260 . S
O34 In26 2.266 . S
O34 C31 1.252 1_655 S
O35 In26 2.326 . S
O35 C31 1.260 1_655 S
C36 O27 1.240 . S
C36 O28 1.252 . S
O37 In26 2.294 . S
O37 C30 1.240 . S
O38 In26 2.326 . S
O38 C30 1.252 . S
In39 O40 2.294 . S
In39 O41 2.326 . S
In39 O45 2.266 . S
In39 O46 2.326 . S
In39 O47 2.266 . S
In39 O48 2.326 . S
In39 O50 2.294 . S
In39 O51 2.326 . S
O40 In39 2.294 . S
O40 C49 1.240 . S
O41 In39 2.326 . S
O41 C49 1.252 . S
C42 O45 1.252 . S
C42 O46 1.260 . S
C43 O50 1.240 . S
C43 O51 1.252 . S
C44 O47 1.252 1_565 S
C44 O48 1.260 1_565 S
O45 In39 2.266 . S
O45 C42 1.252 . S
O46 In39 2.326 . S
O46 C42 1.260 . S
O47 In39 2.266 . S
O47 C44 1.252 1_545 S
O48 In39 2.326 . S
O48 C44 1.260 1_545 S
C49 O40 1.240 . S
C49 O41 1.252 . S
O50 In39 2.294 . S
O50 C43 1.240 . S
O51 In39 2.326 . S
O51 C43 1.252 . S
In52 O53 2.294 . S
In52 O54 2.326 . S
In52 O58 2.266 . S
In52 O59 2.326 . S
In52 O60 2.266 . S
In52 O61 2.326 . S
In52 O63 2.294 . S
In52 O64 2.326 . S
O53 In52 2.294 . S
O53 C62 1.240 . S
O54 In52 2.326 . S
O54 C62 1.252 . S
C55 O58 1.252 1_655 S
C55 O59 1.260 1_655 S
C56 O63 1.240 . S
C56 O64 1.252 . S
C57 O60 1.252 . S
C57 O61 1.260 . S
O58 In52 2.266 . S
O58 C55 1.252 1_455 S
O59 In52 2.326 . S
O59 C55 1.260 1_455 S
O60 In52 2.266 . S
O60 C57 1.252 . S
O61 In52 2.326 . S
O61 C57 1.260 . S
C62 O53 1.240 . S
C62 O54 1.252 . S
O63 In52 2.294 . S
O63 C56 1.240 . S
O64 In52 2.326 . S
O64 C56 1.252 . S
In65 O66 2.294 . S
In65 O67 2.326 . S
In65 O71 2.266 . S
In65 O72 2.326 . S
In65 O73 2.266 . S
In65 O74 2.326 . S
In65 O76 2.294 . S
In65 O77 2.326 . S
O66 In65 2.294 . S
O66 C75 1.240 . S
O67 In65 2.326 . S
O67 C75 1.252 . S
C68 O71 1.252 1_545 S
C68 O72 1.260 1_545 S
C69 O76 1.240 . S
C69 O77 1.252 . S
C70 O73 1.252 . S
C70 O74 1.260 . S
O71 In65 2.266 . S
O71 C68 1.252 1_565 S
O72 In65 2.326 . S
O72 C68 1.260 1_565 S
O73 In65 2.266 . S
O73 C70 1.252 . S
O74 In65 2.326 . S
O74 C70 1.260 . S
C75 O66 1.240 . S
C75 O67 1.252 . S
O76 In65 2.294 . S
O76 C69 1.240 . S
O77 In65 2.326 . S
O77 C69 1.252 . S
In78 O79 2.294 . S
In78 O80 2.326 . S
In78 O84 2.266 . S
In78 O85 2.326 . S
In78 O86 2.266 . S
In78 O87 2.326 . S
In78 O89 2.294 . S
In78 O90 2.326 . S
O79 In78 2.294 . S
O79 C88 1.240 . S
O80 In78 2.326 . S
O80 C88 1.252 . S
C81 O84 1.252 . S
C81 O85 1.260 . S
C82 O89 1.240 . S
C82 O90 1.252 . S
C83 O86 1.252 1_455 S
C83 O87 1.260 1_455 S
O84 In78 2.266 . S
O84 C81 1.252 . S
O85 In78 2.326 . S
O85 C81 1.260 . S
O86 In78 2.266 . S
O86 C83 1.252 1_655 S
O87 In78 2.326 . S
O87 C83 1.260 1_655 S
C88 O79 1.240 . S
C88 O80 1.252 . S
O89 In78 2.294 . S
O89 C82 1.240 . S
O90 In78 2.326 . S
O90 C82 1.252 . S
In91 O92 2.294 . S
In91 O93 2.326 . S
In91 O97 2.266 . S
In91 O98 2.326 . S
In91 O99 2.266 . S
In91 O100 2.326 . S
In91 O102 2.294 . S
In91 O103 2.326 . S
O92 In91 2.294 . S
O92 C101 1.240 . S
O93 In91 2.326 . S
O93 C101 1.252 . S
C94 O97 1.252 . S
C94 O98 1.260 . S
C95 O102 1.240 . S
C95 O103 1.252 . S
C96 O99 1.252 1_565 S
C96 O100 1.260 1_565 S
O97 In91 2.266 . S
O97 C94 1.252 . S
O98 In91 2.326 . S
O98 C94 1.260 . S
O99 In91 2.266 . S
O99 C96 1.252 1_545 S
O100 In91 2.326 . S
O100 C96 1.260 1_545 S
C101 O92 1.240 . S
C101 O93 1.252 . S
O102 In91 2.294 . S
O102 C95 1.240 . S
O103 In91 2.326 . S
O103 C95 1.252 . S
In104 O105 2.294 . S
In104 O106 2.326 . S
In104 O110 2.266 . S
In104 O111 2.326 . S
In104 O112 2.266 . S
In104 O113 2.326 . S
In104 O115 2.294 . S
In104 O116 2.326 . S
O105 In104 2.294 . S
O105 C114 1.240 . S
O106 In104 2.326 . S
O106 C114 1.252 . S
C107 O110 1.252 . S
C107 O111 1.260 . S
C108 O115 1.240 . S
C108 O116 1.252 . S
C109 O112 1.252 . S
C109 O113 1.260 . S
O110 In104 2.266 . S
O110 C107 1.252 . S
O111 In104 2.326 . S
O111 C107 1.260 . S
O112 In104 2.266 . S
O112 C109 1.252 . S
O113 In104 2.326 . S
O113 C109 1.260 . S
C114 O105 1.240 . S
C114 O106 1.252 . S
O115 In104 2.294 . S
O115 C108 1.240 . S
O116 In104 2.326 . S
O116 C108 1.252 . S
In117 O118 2.294 . S
In117 O119 2.326 . S
In117 O123 2.266 . S
In117 O124 2.326 . S
In117 O125 2.266 . S
In117 O126 2.326 . S
In117 O128 2.294 . S
In117 O129 2.326 . S
O118 In117 2.294 . S
O118 C127 1.240 . S
O119 In117 2.326 . S
O119 C127 1.252 . S
C120 O123 1.252 . S
C120 O124 1.260 . S
C121 O128 1.240 . S
C121 O129 1.252 . S
C122 O125 1.252 . S
C122 O126 1.260 . S
O123 In117 2.266 . S
O123 C120 1.252 . S
O124 In117 2.326 . S
O124 C120 1.260 . S
O125 In117 2.266 . S
O125 C122 1.252 . S
O126 In117 2.326 . S
O126 C122 1.260 . S
C127 O118 1.240 . S
C127 O119 1.252 . S
O128 In117 2.294 . S
O128 C121 1.240 . S
O129 In117 2.326 . S
O129 C121 1.252 . S
In130 O131 2.294 . S
In130 O132 2.326 . S
In130 O136 2.266 . S
In130 O137 2.326 . S
In130 O138 2.266 . S
In130 O139 2.326 . S
In130 O141 2.294 . S
In130 O142 2.326 . S
O131 In130 2.294 . S
O131 C140 1.240 . S
O132 In130 2.326 . S
O132 C140 1.252 . S
C133 O136 1.252 . S
C133 O137 1.260 . S
C134 O141 1.240 . S
C134 O142 1.252 . S
C135 O138 1.252 . S
C135 O139 1.260 . S
O136 In130 2.266 . S
O136 C133 1.252 . S
O137 In130 2.326 . S
O137 C133 1.260 . S
O138 In130 2.266 . S
O138 C135 1.252 . S
O139 In130 2.326 . S
O139 C135 1.260 . S
C140 O131 1.240 . S
C140 O132 1.252 . S
O141 In130 2.294 . S
O141 C134 1.240 . S
O142 In130 2.326 . S
O142 C134 1.252 . S
In143 O144 2.294 . S
In143 O145 2.326 . S
In143 O149 2.266 . S
In143 O150 2.326 . S
In143 O151 2.266 . S
In143 O152 2.326 . S
In143 O154 2.294 . S
In143 O155 2.326 . S
O144 In143 2.294 . S
O144 C153 1.240 . S
O145 In143 2.326 . S
O145 C153 1.252 . S
C146 O149 1.252 . S
C146 O150 1.260 . S
C147 O154 1.240 . S
C147 O155 1.252 . S
C148 O151 1.252 . S
C148 O152 1.260 . S
O149 In143 2.266 . S
O149 C146 1.252 . S
O150 In143 2.326 . S
O150 C146 1.260 . S
O151 In143 2.266 . S
O151 C148 1.252 . S
O152 In143 2.326 . S
O152 C148 1.260 . S
C153 O144 1.240 . S
C153 O145 1.252 . S
O154 In143 2.294 . S
O154 C147 1.240 . S
O155 In143 2.326 . S
O155 C147 1.252 . S
In156 O157 2.294 . S
In156 O158 2.326 . S
In156 O162 2.266 . S
In156 O163 2.326 . S
In156 O164 2.266 . S
In156 O165 2.326 . S
In156 O167 2.294 . S
In156 O168 2.326 . S
O157 In156 2.294 . S
O157 C166 1.240 . S
O158 In156 2.326 . S
O158 C166 1.252 . S
C159 O162 1.252 . S
C159 O163 1.260 . S
C160 O167 1.240 . S
C160 O168 1.252 . S
C161 O164 1.252 . S
C161 O165 1.260 . S
O162 In156 2.266 . S
O162 C159 1.252 . S
O163 In156 2.326 . S
O163 C159 1.260 . S
O164 In156 2.266 . S
O164 C161 1.252 . S
O165 In156 2.326 . S
O165 C161 1.260 . S
C166 O157 1.240 . S
C166 O158 1.252 . S
O167 In156 2.294 . S
O167 C160 1.240 . S
O168 In156 2.326 . S
O168 C160 1.252 . S
In169 O170 2.294 . S
In169 O171 2.326 . S
In169 O175 2.266 . S
In169 O176 2.326 . S
In169 O177 2.266 . S
In169 O178 2.326 . S
In169 O180 2.294 . S
In169 O181 2.326 . S
O170 In169 2.294 . S
O170 C179 1.240 . S
O171 In169 2.326 . S
O171 C179 1.252 . S
C172 O175 1.252 . S
C172 O176 1.260 . S
C173 O180 1.240 . S
C173 O181 1.252 . S
C174 O177 1.252 . S
C174 O178 1.260 . S
O175 In169 2.266 . S
O175 C172 1.252 . S
O176 In169 2.326 . S
O176 C172 1.260 . S
O177 In169 2.266 . S
O177 C174 1.252 . S
O178 In169 2.326 . S
O178 C174 1.260 . S
C179 O170 1.240 . S
C179 O171 1.252 . S
O180 In169 2.294 . S
O180 C173 1.240 . S
O181 In169 2.326 . S
O181 C173 1.252 . S
In182 O183 2.294 . S
In182 O184 2.326 . S
In182 O188 2.266 . S
In182 O189 2.326 . S
In182 O190 2.266 . S
In182 O191 2.326 . S
In182 O193 2.294 . S
In182 O194 2.326 . S
O183 In182 2.294 . S
O183 C192 1.240 . S
O184 In182 2.326 . S
O184 C192 1.252 . S
C185 O188 1.252 . S
C185 O189 1.260 . S
C186 O193 1.240 . S
C186 O194 1.252 . S
C187 O190 1.252 . S
C187 O191 1.260 . S
O188 In182 2.266 . S
O188 C185 1.252 . S
O189 In182 2.326 . S
O189 C185 1.260 . S
O190 In182 2.266 . S
O190 C187 1.252 . S
O191 In182 2.326 . S
O191 C187 1.260 . S
C192 O183 1.240 . S
C192 O184 1.252 . S
O193 In182 2.294 . S
O193 C186 1.240 . S
O194 In182 2.326 . S
O194 C186 1.252 . S
In195 O196 2.294 . S
In195 O197 2.326 . S
In195 O201 2.266 . S
In195 O202 2.326 . S
In195 O203 2.266 . S
In195 O204 2.326 . S
In195 O206 2.294 . S
In195 O207 2.326 . S
O196 In195 2.294 . S
O196 C205 1.240 . S
O197 In195 2.326 . S
O197 C205 1.252 . S
C198 O201 1.252 . S
C198 O202 1.260 . S
C199 O206 1.240 . S
C199 O207 1.252 . S
C200 O203 1.252 . S
C200 O204 1.260 . S
O201 In195 2.266 . S
O201 C198 1.252 . S
O202 In195 2.326 . S
O202 C198 1.260 . S
O203 In195 2.266 . S
O203 C200 1.252 . S
O204 In195 2.326 . S
O204 C200 1.260 . S
C205 O196 1.240 . S
C205 O197 1.252 . S
O206 In195 2.294 . S
O206 C199 1.240 . S
O207 In195 2.326 . S
O207 C199 1.252 . S
H208 C214 0.930 . S
H209 C218 0.930 . S
H210 C223 0.929 . S
H211 C221 0.929 . S
H212 C216 0.929 . S
H213 C222 0.929 . S
C214 H208 0.930 . S
C214 C215 1.367 . S
C214 C222 1.378 . S
C215 C214 1.367 . S
C215 C223 1.433 . S
C216 H212 0.929 . S
C216 C218 1.378 . S
C216 C220 1.350 . S
C217 C220 1.463 . S
C217 C222 1.350 . S
C217 N225 1.427 . S
C218 H209 0.930 . S
C218 C216 1.378 . S
C218 C219 1.367 . S
C219 C218 1.367 . S
C219 C221 1.433 . S
C220 C216 1.350 . S
C220 C217 1.463 . S
C220 N224 1.427 . S
C221 H211 0.929 . S
C221 C219 1.433 . S
C221 N224 1.384 . S
C222 H213 0.929 . S
C222 C214 1.378 . S
C222 C217 1.350 . S
C223 H210 0.929 . S
C223 C215 1.433 . S
C223 N225 1.384 . S
N224 C220 1.427 . S
N224 C221 1.384 . S
N225 C217 1.427 . S
N225 C223 1.384 . S
H226 C232 0.930 . S
H227 C236 0.930 . S
H228 C241 0.929 . S
H229 C239 0.929 . S
H230 C234 0.929 . S
H231 C240 0.929 . S
C232 H226 0.930 . S
C232 C233 1.367 . S
C232 C240 1.378 . S
C233 C232 1.367 . S
C233 C241 1.433 . S
C234 H230 0.929 . S
C234 C236 1.378 . S
C234 C238 1.350 . S
C235 C238 1.463 . S
C235 C240 1.350 . S
C235 N243 1.427 . S
C236 H227 0.930 . S
C236 C234 1.378 . S
C236 C237 1.367 . S
C237 C236 1.367 . S
C237 C239 1.433 . S
C238 C234 1.350 . S
C238 C235 1.463 . S
C238 N242 1.427 . S
C239 H229 0.929 . S
C239 C237 1.433 . S
C239 N242 1.384 . S
C240 H231 0.929 . S
C240 C232 1.378 . S
C240 C235 1.350 . S
C241 H228 0.929 . S
C241 C233 1.433 . S
C241 N243 1.384 . S
N242 C238 1.427 . S
N242 C239 1.384 . S
N243 C235 1.427 . S
N243 C241 1.384 . S
H244 C250 0.930 . S
H245 C254 0.930 . S
H246 C259 0.929 . S
H247 C257 0.929 . S
H248 C252 0.929 . S
H249 C258 0.929 . S
C250 H244 0.930 . S
C250 C251 1.367 . S
C250 C258 1.378 . S
C251 C250 1.367 . S
C251 C259 1.433 . S
C252 H248 0.929 . S
C252 C254 1.378 . S
C252 C256 1.350 . S
C253 C256 1.463 . S
C253 C258 1.350 . S
C253 N261 1.427 . S
C254 H245 0.930 . S
C254 C252 1.378 . S
C254 C255 1.367 . S
C255 C254 1.367 . S
C255 C257 1.433 . S
C256 C252 1.350 . S
C256 C253 1.463 . S
C256 N260 1.427 . S
C257 H247 0.929 . S
C257 C255 1.433 . S
C257 N260 1.384 . S
C258 H249 0.929 . S
C258 C250 1.378 . S
C258 C253 1.350 . S
C259 H246 0.929 . S
C259 C251 1.433 . S
C259 N261 1.384 . S
N260 C256 1.427 . S
N260 C257 1.384 . S
N261 C253 1.427 . S
N261 C259 1.384 . S
H262 C268 0.930 . S
H263 C272 0.930 . S
H264 C277 0.929 . S
H265 C275 0.929 . S
H266 C270 0.929 . S
H267 C276 0.929 . S
C268 H262 0.930 . S
C268 C269 1.367 . S
C268 C276 1.378 . S
C269 C268 1.367 . S
C269 C277 1.433 . S
C270 H266 0.929 . S
C270 C272 1.378 . S
C270 C274 1.350 . S
C271 C274 1.463 . S
C271 C276 1.350 . S
C271 N279 1.427 . S
C272 H263 0.930 . S
C272 C270 1.378 . S
C272 C273 1.367 . S
C273 C272 1.367 . S
C273 C275 1.433 . S
C274 C270 1.350 . S
C274 C271 1.463 . S
C274 N278 1.427 . S
C275 H265 0.929 . S
C275 C273 1.433 . S
C275 N278 1.384 . S
C276 H267 0.929 . S
C276 C268 1.378 . S
C276 C271 1.350 . S
C277 H264 0.929 . S
C277 C269 1.433 . S
C277 N279 1.384 . S
N278 C274 1.427 . S
N278 C275 1.384 . S
N279 C271 1.427 . S
N279 C277 1.384 . S
H280 C286 0.930 1_565 S
H281 C290 0.930 . S
H282 C295 0.929 . S
H283 C293 0.929 . S
H284 C288 0.929 . S
H285 C294 0.929 1_556 S
C286 H280 0.930 1_545 S
C286 C287 1.367 . S
C286 C294 1.378 . S
C287 C286 1.367 . S
C287 C295 1.433 . S
C288 H284 0.929 . S
C288 C290 1.378 1_554 S
C288 C292 1.367 . S
C289 C292 1.497 . S
C289 C294 1.350 . S
C289 N297 1.427 . S
C290 H281 0.930 . S
C290 C288 1.378 1_556 S
C290 C291 1.367 . S
C291 C290 1.367 . S
C291 C293 1.433 . S
C292 C288 1.367 . S
C292 C289 1.497 . S
C292 N296 1.377 1_554 S
C293 H283 0.929 . S
C293 C291 1.433 . S
C293 N296 1.384 . S
C294 H285 0.929 1_554 S
C294 C286 1.378 . S
C294 C289 1.350 . S
C295 H282 0.929 . S
C295 C287 1.433 . S
C295 N297 1.384 . S
N296 C292 1.377 1_556 S
N296 C293 1.384 . S
N297 C289 1.427 . S
N297 C295 1.384 . S
H298 C304 0.930 . S
H299 C308 0.930 . S
H300 C313 0.929 . S
H301 C311 0.929 . S
H302 C306 0.981 . S
H303 C312 0.929 . S
C304 H298 0.930 . S
C304 C305 1.367 . S
C304 C312 1.378 1_554 S
C305 C304 1.367 . S
C305 C313 1.433 . S
C306 H302 0.981 . S
C306 C308 1.378 . S
C306 C310 1.350 . S
C307 C310 1.493 . S
C307 C312 1.357 . S
C307 N315 1.391 1_556 S
C308 H299 0.930 . S
C308 C306 1.378 . S
C308 C309 1.367 . S
C309 C308 1.367 . S
C309 C311 1.433 . S
C310 C306 1.350 . S
C310 C307 1.493 . S
C310 N314 1.427 . S
C311 H301 0.929 . S
C311 C309 1.433 . S
C311 N314 1.384 . S
C312 H303 0.929 . S
C312 C304 1.378 1_556 S
C312 C307 1.357 . S
C313 H300 0.929 . S
C313 C305 1.433 . S
C313 N315 1.384 . S
N314 C310 1.427 . S
N314 C311 1.384 . S
N315 C307 1.391 1_554 S
N315 C313 1.384 . S
H316 C322 0.930 . S
H317 C326 0.930 . S
H318 C331 0.947 . S
H319 C329 0.929 . S
H320 C324 0.929 . S
H321 C330 0.929 . S
C322 H316 0.930 . S
C322 C323 1.367 . S
C322 C330 1.378 . S
C323 C322 1.367 . S
C323 C331 1.433 . S
C324 H320 0.929 . S
C324 C326 1.378 . S
C324 C328 1.350 . S
C325 C328 1.461 . S
C325 C330 1.352 1_554 S
C325 N333 1.427 . S
C326 H317 0.930 . S
C326 C324 1.378 . S
C326 C327 1.367 . S
C327 C326 1.367 . S
C327 C329 1.433 . S
C328 C324 1.350 . S
C328 C325 1.461 . S
C328 N332 1.427 . S
C329 H319 0.929 . S
C329 C327 1.433 . S
C329 N332 1.384 . S
C330 H321 0.929 . S
C330 C322 1.378 . S
C330 C325 1.352 1_556 S
C331 H318 0.947 . S
C331 C323 1.433 . S
C331 N333 1.384 1_556 S
N332 C328 1.427 . S
N332 C329 1.384 . S
N333 C325 1.427 . S
N333 C331 1.384 1_554 S
H334 C340 0.930 . S
H335 C344 0.930 . S
H336 C349 0.929 . S
H337 C347 0.929 . S
H338 C342 0.929 . S
H339 C348 0.930 1_556 S
C340 H334 0.930 . S
C340 C341 1.367 . S
C340 C348 1.376 . S
C341 C340 1.367 . S
C341 C349 1.433 . S
C342 H338 0.929 . S
C342 C344 1.378 . S
C342 C346 1.350 . S
C343 C346 1.489 . S
C343 C348 1.349 1_556 S
C343 N351 1.404 1_556 S
C344 H335 0.930 . S
C344 C342 1.378 . S
C344 C345 1.367 . S
C345 C344 1.367 . S
C345 C347 1.433 . S
C346 C342 1.350 . S
C346 C343 1.489 . S
C346 N350 1.427 . S
C347 H337 0.929 . S
C347 C345 1.433 . S
C347 N350 1.384 . S
C348 H339 0.930 1_554 S
C348 C340 1.376 . S
C348 C343 1.349 1_554 S
C349 H336 0.929 . S
C349 C341 1.433 . S
C349 N351 1.384 . S
N350 C346 1.427 . S
N350 C347 1.384 . S
N351 C343 1.404 1_554 S
N351 C349 1.384 . S
H352 C358 0.930 . S
H353 C362 0.930 . S
H354 C367 0.929 . S
H355 C365 0.929 . S
H356 C360 0.929 . S
H357 C366 0.929 . S
C358 H352 0.930 . S
C358 C359 1.367 . S
C358 C366 1.378 . S
C359 C358 1.367 . S
C359 C367 1.433 . S
C360 H356 0.929 . S
C360 C362 1.378 . S
C360 C364 1.350 . S
C361 C364 1.463 . S
C361 C366 1.350 . S
C361 N369 1.427 . S
C362 H353 0.930 . S
C362 C360 1.378 . S
C362 C363 1.367 . S
C363 C362 1.367 . S
C363 C365 1.433 . S
C364 C360 1.350 . S
C364 C361 1.463 . S
C364 N368 1.427 . S
C365 H355 0.929 . S
C365 C363 1.433 . S
C365 N368 1.384 . S
C366 H357 0.929 . S
C366 C358 1.378 . S
C366 C361 1.350 . S
C367 H354 0.929 . S
C367 C359 1.433 . S
C367 N369 1.384 . S
N368 C364 1.427 . S
N368 C365 1.384 . S
N369 C361 1.427 . S
N369 C367 1.384 . S
H370 C376 0.930 . S
H371 C380 0.930 . S
H372 C385 0.929 1_455 S
H373 C383 0.929 . S
H374 C378 0.929 . S
H375 C384 0.929 . S
C376 H370 0.930 . S
C376 C377 1.367 . S
C376 C384 1.378 . S
C377 C376 1.367 . S
C377 C385 1.433 . S
C378 H374 0.929 . S
C378 C380 1.378 . S
C378 C382 1.350 . S
C379 C382 1.463 . S
C379 C384 1.350 . S
C379 N387 1.427 . S
C380 H371 0.930 . S
C380 C378 1.378 . S
C380 C381 1.367 . S
C381 C380 1.367 . S
C381 C383 1.433 . S
C382 C378 1.350 . S
C382 C379 1.463 . S
C382 N386 1.427 . S
C383 H373 0.929 . S
C383 C381 1.433 . S
C383 N386 1.384 . S
C384 H375 0.929 . S
C384 C376 1.378 . S
C384 C379 1.350 . S
C385 H372 0.929 1_655 S
C385 C377 1.433 . S
C385 N387 1.384 . S
N386 C382 1.427 . S
N386 C383 1.384 . S
N387 C379 1.427 . S
N387 C385 1.384 . S
H388 C394 0.930 . S
H389 C398 0.930 . S
H390 C403 0.929 . S
H391 C401 0.929 . S
H392 C396 0.929 . S
H393 C402 0.929 . S
C394 H388 0.930 . S
C394 C395 1.367 . S
C394 C402 1.378 . S
C395 C394 1.367 . S
C395 C403 1.433 . S
C396 H392 0.929 . S
C396 C398 1.378 . S
C396 C400 1.350 . S
C397 C400 1.463 . S
C397 C402 1.350 . S
C397 N405 1.427 . S
C398 H389 0.930 . S
C398 C396 1.378 . S
C398 C399 1.367 . S
C399 C398 1.367 . S
C399 C401 1.433 . S
C400 C396 1.350 . S
C400 C397 1.463 . S
C400 N404 1.427 . S
C401 H391 0.929 . S
C401 C399 1.433 . S
C401 N404 1.384 . S
C402 H393 0.929 . S
C402 C394 1.378 . S
C402 C397 1.350 . S
C403 H390 0.929 . S
C403 C395 1.433 . S
C403 N405 1.384 . S
N404 C400 1.427 . S
N404 C401 1.384 . S
N405 C397 1.427 . S
N405 C403 1.384 . S
H406 C412 0.930 . S
H407 C416 0.930 . S
H408 C421 0.929 1_655 S
H409 C419 0.929 . S
H410 C414 0.929 . S
H411 C420 0.929 . S
C412 H406 0.930 . S
C412 C413 1.367 . S
C412 C420 1.378 . S
C413 C412 1.367 . S
C413 C421 1.433 . S
C414 H410 0.929 . S
C414 C416 1.378 . S
C414 C418 1.350 . S
C415 C418 1.463 . S
C415 C420 1.350 . S
C415 N423 1.427 . S
C416 H407 0.930 . S
C416 C414 1.378 . S
C416 C417 1.367 . S
C417 C416 1.367 . S
C417 C419 1.433 . S
C418 C414 1.350 . S
C418 C415 1.463 . S
C418 N422 1.427 . S
C419 H409 0.929 . S
C419 C417 1.433 . S
C419 N422 1.384 . S
C420 H411 0.929 . S
C420 C412 1.378 . S
C420 C415 1.350 . S
C421 H408 0.929 1_455 S
C421 C413 1.433 . S
C421 N423 1.384 . S
N422 C418 1.427 . S
N422 C419 1.384 . S
N423 C415 1.427 . S
N423 C421 1.384 . S
H424 C430 0.930 . S
H425 C434 0.930 . S
H426 C439 0.929 . S
H427 C437 0.929 . S
H428 C432 0.929 . S
H429 C438 0.929 . S
C430 H424 0.930 . S
C430 C431 1.367 . S
C430 C438 1.378 . S
C431 C430 1.367 . S
C431 C439 1.433 . S
C432 H428 0.929 . S
C432 C434 1.378 . S
C432 C436 1.350 . S
C433 C436 1.463 . S
C433 C438 1.350 . S
C433 N441 1.427 . S
C434 H425 0.930 . S
C434 C432 1.378 . S
C434 C435 1.367 . S
C435 C434 1.367 . S
C435 C437 1.433 . S
C436 C432 1.350 . S
C436 C433 1.463 . S
C436 N440 1.427 . S
C437 H427 0.929 . S
C437 C435 1.433 . S
C437 N440 1.384 . S
C438 H429 0.929 . S
C438 C430 1.378 . S
C438 C433 1.350 . S
C439 H426 0.929 . S
C439 C431 1.433 . S
C439 N441 1.384 . S
N440 C436 1.427 . S
N440 C437 1.384 . S
N441 C433 1.427 . S
N441 C439 1.384 . S
H442 C448 0.930 . S
H443 C452 0.930 . S
H444 C457 0.929 . S
H445 C455 0.929 . S
H446 C450 0.929 . S
H447 C456 0.929 . S
C448 H442 0.930 . S
C448 C449 1.367 . S
C448 C456 1.378 . S
C449 C448 1.367 . S
C449 C457 1.433 . S
C450 H446 0.929 . S
C450 C452 1.378 . S
C450 C454 1.350 . S
C451 C454 1.463 . S
C451 C456 1.350 . S
C451 N459 1.427 . S
C452 H443 0.930 . S
C452 C450 1.378 . S
C452 C453 1.367 . S
C453 C452 1.367 . S
C453 C455 1.433 . S
C454 C450 1.350 . S
C454 C451 1.463 . S
C454 N458 1.427 . S
C455 H445 0.929 . S
C455 C453 1.433 . S
C455 N458 1.384 . S
C456 H447 0.929 . S
C456 C448 1.378 . S
C456 C451 1.350 . S
C457 H444 0.929 . S
C457 C449 1.433 . S
C457 N459 1.384 . S
N458 C454 1.427 . S
N458 C455 1.384 . S
N459 C451 1.427 . S
N459 C457 1.384 . S
H460 C466 0.930 . S
H461 C470 0.930 . S
H462 C475 0.929 . S
H463 C473 0.929 . S
H464 C468 0.929 . S
H465 C474 0.929 . S
C466 H460 0.930 . S
C466 C467 1.367 . S
C466 C474 1.378 . S
C467 C466 1.367 . S
C467 C475 1.433 . S
C468 H464 0.929 . S
C468 C470 1.378 . S
C468 C472 1.350 . S
C469 C472 1.463 . S
C469 C474 1.350 . S
C469 N477 1.427 . S
C470 H461 0.930 . S
C470 C468 1.378 . S
C470 C471 1.367 . S
C471 C470 1.367 . S
C471 C473 1.433 . S
C472 C468 1.350 . S
C472 C469 1.463 . S
C472 N476 1.427 . S
C473 H463 0.929 . S
C473 C471 1.433 . S
C473 N476 1.384 . S
C474 H465 0.929 . S
C474 C466 1.378 . S
C474 C469 1.350 . S
C475 H462 0.929 . S
C475 C467 1.433 . S
C475 N477 1.384 . S
N476 C472 1.427 . S
N476 C473 1.384 . S
N477 C469 1.427 . S
N477 C475 1.384 . S
H478 C484 0.930 . S
H479 C488 0.930 . S
H480 C493 0.929 . S
H481 C491 0.929 . S
H482 C486 0.929 . S
H483 C492 0.929 . S
C484 H478 0.930 . S
C484 C485 1.367 . S
C484 C492 1.378 . S
C485 C484 1.367 . S
C485 C493 1.433 . S
C486 H482 0.929 . S
C486 C488 1.378 . S
C486 C490 1.350 . S
C487 C490 1.463 . S
C487 C492 1.350 . S
C487 N495 1.427 . S
C488 H479 0.930 . S
C488 C486 1.378 . S
C488 C489 1.367 . S
C489 C488 1.367 . S
C489 C491 1.433 . S
C490 C486 1.350 . S
C490 C487 1.463 . S
C490 N494 1.427 . S
C491 H481 0.929 . S
C491 C489 1.433 . S
C491 N494 1.384 . S
C492 H483 0.929 . S
C492 C484 1.378 . S
C492 C487 1.350 . S
C493 H480 0.929 . S
C493 C485 1.433 . S
C493 N495 1.384 . S
N494 C490 1.427 . S
N494 C491 1.384 . S
N495 C487 1.427 . S
N495 C493 1.384 . S
H496 C502 0.930 . S
H497 C506 0.930 . S
H498 C511 0.929 . S
H499 C509 0.929 . S
H500 C504 0.929 . S
H501 C510 0.929 . S
C502 H496 0.930 . S
C502 C503 1.367 . S
C502 C510 1.378 . S
C503 C502 1.367 . S
C503 C511 1.433 . S
C504 H500 0.929 . S
C504 C506 1.378 . S
C504 C508 1.350 . S
C505 C508 1.463 . S
C505 C510 1.350 . S
C505 N513 1.427 . S
C506 H497 0.930 . S
C506 C504 1.378 . S
C506 C507 1.367 . S
C507 C506 1.367 . S
C507 C509 1.433 . S
C508 C504 1.350 . S
C508 C505 1.463 . S
C508 N512 1.427 . S
C509 H499 0.929 . S
C509 C507 1.433 . S
C509 N512 1.384 . S
C510 H501 0.929 . S
C510 C502 1.378 . S
C510 C505 1.350 . S
C511 H498 0.929 . S
C511 C503 1.433 . S
C511 N513 1.384 . S
N512 C508 1.427 . S
N512 C509 1.384 . S
N513 C505 1.427 . S
N513 C511 1.384 . S
H514 C520 0.930 . S
H515 C524 0.930 . S
H516 C529 0.929 . S
H517 C527 0.929 . S
H518 C522 0.929 . S
H519 C528 0.929 . S
C520 H514 0.930 . S
C520 C521 1.367 . S
C520 C528 1.378 . S
C521 C520 1.367 . S
C521 C529 1.433 . S
C522 H518 0.929 . S
C522 C524 1.378 . S
C522 C526 1.350 . S
C523 C526 1.463 . S
C523 C528 1.350 . S
C523 N531 1.427 . S
C524 H515 0.930 . S
C524 C522 1.378 . S
C524 C525 1.367 . S
C525 C524 1.367 . S
C525 C527 1.433 . S
C526 C522 1.350 . S
C526 C523 1.463 . S
C526 N530 1.427 . S
C527 H517 0.929 . S
C527 C525 1.433 . S
C527 N530 1.384 . S
C528 H519 0.929 . S
C528 C520 1.378 . S
C528 C523 1.350 . S
C529 H516 0.929 . S
C529 C521 1.433 . S
C529 N531 1.384 . S
N530 C526 1.427 . S
N530 C527 1.384 . S
N531 C523 1.427 . S
N531 C529 1.384 . S
H532 C538 0.930 . S
H533 C542 0.930 . S
H534 C547 0.929 . S
H535 C545 0.929 . S
H536 C540 0.929 . S
H537 C546 0.929 . S
C538 H532 0.930 . S
C538 C539 1.367 . S
C538 C546 1.378 . S
C539 C538 1.367 . S
C539 C547 1.433 . S
C540 H536 0.929 . S
C540 C542 1.378 . S
C540 C544 1.350 . S
C541 C544 1.463 . S
C541 C546 1.350 . S
C541 N549 1.427 . S
C542 H533 0.930 . S
C542 C540 1.378 . S
C542 C543 1.367 . S
C543 C542 1.367 . S
C543 C545 1.433 . S
C544 C540 1.350 . S
C544 C541 1.463 . S
C544 N548 1.427 . S
C545 H535 0.929 . S
C545 C543 1.433 . S
C545 N548 1.384 . S
C546 H537 0.929 . S
C546 C538 1.378 . S
C546 C541 1.350 . S
C547 H534 0.929 . S
C547 C539 1.433 . S
C547 N549 1.384 . S
N548 C544 1.427 . S
N548 C545 1.384 . S
N549 C541 1.427 . S
N549 C547 1.384 . S
H550 C556 0.930 . S
H551 C560 0.930 . S
H552 C565 0.929 . S
H553 C563 0.929 . S
H554 C558 0.929 . S
H555 C564 0.929 . S
C556 H550 0.930 . S
C556 C557 1.367 . S
C556 C564 1.378 . S
C557 C556 1.367 . S
C557 C565 1.433 . S
C558 H554 0.929 . S
C558 C560 1.378 . S
C558 C562 1.350 . S
C559 C562 1.463 . S
C559 C564 1.350 . S
C559 N567 1.427 . S
C560 H551 0.930 . S
C560 C558 1.378 . S
C560 C561 1.367 . S
C561 C560 1.367 . S
C561 C563 1.433 . S
C562 C558 1.350 . S
C562 C559 1.463 . S
C562 N566 1.427 . S
C563 H553 0.929 . S
C563 C561 1.433 . S
C563 N566 1.384 . S
C564 H555 0.929 . S
C564 C556 1.378 . S
C564 C559 1.350 . S
C565 H552 0.929 . S
C565 C557 1.433 . S
C565 N567 1.384 . S
N566 C562 1.427 . S
N566 C563 1.384 . S
N567 C559 1.427 . S
N567 C565 1.384 . S
H568 C574 0.930 . S
H569 C578 0.930 . S
H570 C583 0.929 . S
H571 C581 0.929 . S
H572 C576 0.929 . S
H573 C582 0.929 . S
C574 H568 0.930 . S
C574 C575 1.367 . S
C574 C582 1.378 . S
C575 C574 1.367 . S
C575 C583 1.433 . S
C576 H572 0.929 . S
C576 C578 1.378 . S
C576 C580 1.350 . S
C577 C580 1.463 . S
C577 C582 1.350 . S
C577 N585 1.427 . S
C578 H569 0.930 . S
C578 C576 1.378 . S
C578 C579 1.367 . S
C579 C578 1.367 . S
C579 C581 1.433 . S
C580 C576 1.350 . S
C580 C577 1.463 . S
C580 N584 1.427 . S
C581 H571 0.929 . S
C581 C579 1.433 . S
C581 N584 1.384 . S
C582 H573 0.929 . S
C582 C574 1.378 . S
C582 C577 1.350 . S
C583 H570 0.929 . S
C583 C575 1.433 . S
C583 N585 1.384 . S
N584 C580 1.427 . S
N584 C581 1.384 . S
N585 C577 1.427 . S
N585 C583 1.384 . S
H586 C592 0.930 . S
H587 C596 0.930 . S
H588 C601 0.929 . S
H589 C599 0.929 . S
H590 C594 0.929 . S
H591 C600 0.929 . S
C592 H586 0.930 . S
C592 C593 1.367 . S
C592 C600 1.378 . S
C593 C592 1.367 . S
C593 C601 1.433 . S
C594 H590 0.929 . S
C594 C596 1.378 . S
C594 C598 1.350 . S
C595 C598 1.463 . S
C595 C600 1.350 . S
C595 N603 1.427 . S
C596 H587 0.930 . S
C596 C594 1.378 . S
C596 C597 1.367 . S
C597 C596 1.367 . S
C597 C599 1.433 . S
C598 C594 1.350 . S
C598 C595 1.463 . S
C598 N602 1.427 . S
C599 H589 0.929 . S
C599 C597 1.433 . S
C599 N602 1.384 . S
C600 H591 0.929 . S
C600 C592 1.378 . S
C600 C595 1.350 . S
C601 H588 0.929 . S
C601 C593 1.433 . S
C601 N603 1.384 . S
N602 C598 1.427 . S
N602 C599 1.384 . S
N603 C595 1.427 . S
N603 C601 1.384 . S
H604 C610 0.930 . S
H605 C614 0.930 . S
H606 C619 0.929 . S
H607 C617 0.929 . S
H608 C612 0.929 . S
H609 C618 0.929 . S
C610 H604 0.930 . S
C610 C611 1.367 . S
C610 C618 1.378 . S
C611 C610 1.367 . S
C611 C619 1.433 . S
C612 H608 0.929 . S
C612 C614 1.378 . S
C612 C616 1.350 . S
C613 C616 1.463 . S
C613 C618 1.350 . S
C613 N621 1.427 . S
C614 H605 0.930 . S
C614 C612 1.378 . S
C614 C615 1.367 . S
C615 C614 1.367 . S
C615 C617 1.433 . S
C616 C612 1.350 . S
C616 C613 1.463 . S
C616 N620 1.427 . S
C617 H607 0.929 . S
C617 C615 1.433 . S
C617 N620 1.384 . S
C618 H609 0.929 . S
C618 C610 1.378 . S
C618 C613 1.350 . S
C619 H606 0.929 . S
C619 C611 1.433 . S
C619 N621 1.384 . S
N620 C616 1.427 . S
N620 C617 1.384 . S
N621 C613 1.427 . S
N621 C619 1.384 . S
H622 C628 0.930 . S
H623 C632 0.930 . S
H624 C637 0.929 . S
H625 C635 0.929 . S
H626 C630 0.929 . S
H627 C636 0.929 . S
C628 H622 0.930 . S
C628 C629 1.367 . S
C628 C636 1.378 . S
C629 C628 1.367 . S
C629 C637 1.433 . S
C630 H626 0.929 . S
C630 C632 1.378 . S
C630 C634 1.350 . S
C631 C634 1.463 . S
C631 C636 1.350 . S
C631 N639 1.427 . S
C632 H623 0.930 . S
C632 C630 1.378 . S
C632 C633 1.367 . S
C633 C632 1.367 . S
C633 C635 1.433 . S
C634 C630 1.350 . S
C634 C631 1.463 . S
C634 N638 1.427 . S
C635 H625 0.929 . S
C635 C633 1.433 . S
C635 N638 1.384 . S
C636 H627 0.929 . S
C636 C628 1.378 . S
C636 C631 1.350 . S
C637 H624 0.929 . S
C637 C629 1.433 . S
C637 N639 1.384 . S
N638 C634 1.427 . S
N638 C635 1.384 . S
N639 C631 1.427 . S
N639 C637 1.384 . S
H640 C646 0.930 . S
H641 C650 0.930 . S
H642 C655 0.929 . S
H643 C653 0.929 . S
H644 C648 0.929 1_655 S
H645 C654 0.929 1_455 S
C646 H640 0.930 . S
C646 C647 1.367 . S
C646 C654 1.378 . S
C647 C646 1.367 . S
C647 C655 1.433 . S
C648 H644 0.929 1_455 S
C648 C650 1.378 . S
C648 C652 1.350 . S
C649 C652 1.463 1_665 S
C649 C654 1.350 . S
C649 N657 1.427 . S
C650 H641 0.930 . S
C650 C648 1.378 . S
C650 C651 1.367 . S
C651 C650 1.367 . S
C651 C653 1.433 . S
C652 C648 1.350 . S
C652 C649 1.463 1_445 S
C652 N656 1.427 . S
C653 H643 0.929 . S
C653 C651 1.433 . S
C653 N656 1.384 . S
C654 H645 0.929 1_655 S
C654 C646 1.378 . S
C654 C649 1.350 . S
C655 H642 0.929 . S
C655 C647 1.433 . S
C655 N657 1.384 . S
N656 C652 1.427 . S
N656 C653 1.384 . S
N657 C649 1.427 . S
N657 C655 1.384 . S
H658 C664 0.930 . S
H659 C668 0.930 . S
H660 C673 0.929 . S
H661 C671 0.929 . S
H662 C666 0.929 1_545 S
H663 C672 0.929 1_565 S
C664 H658 0.930 . S
C664 C665 1.367 . S
C664 C672 1.378 . S
C665 C664 1.367 . S
C665 C673 1.433 . S
C666 H662 0.929 1_565 S
C666 C668 1.378 . S
C666 C670 1.350 . S
C667 C670 1.463 1_645 S
C667 C672 1.350 . S
C667 N675 1.427 . S
C668 H659 0.930 . S
C668 C666 1.378 . S
C668 C669 1.367 . S
C669 C668 1.367 . S
C669 C671 1.433 . S
C670 C666 1.350 . S
C670 C667 1.463 1_465 S
C670 N674 1.427 . S
C671 H661 0.929 . S
C671 C669 1.433 . S
C671 N674 1.384 . S
C672 H663 0.929 1_545 S
C672 C664 1.378 . S
C672 C667 1.350 . S
C673 H660 0.929 . S
C673 C665 1.433 . S
C673 N675 1.384 . S
N674 C670 1.427 . S
N674 C671 1.384 . S
N675 C667 1.427 . S
N675 C673 1.384 . S
H676 C682 0.930 . S
H677 C686 0.930 . S
H678 C691 0.929 . S
H679 C689 0.929 . S
H680 C684 0.929 1_455 S
H681 C690 0.929 1_655 S
C682 H676 0.930 . S
C682 C683 1.367 . S
C682 C690 1.378 . S
C683 C682 1.367 . S
C683 C691 1.433 . S
C684 H680 0.929 1_655 S
C684 C686 1.378 . S
C684 C688 1.350 . S
C685 C688 1.463 1_455 S
C685 C690 1.350 . S
C685 N693 1.427 . S
C686 H677 0.930 . S
C686 C684 1.378 . S
C686 C687 1.367 . S
C687 C686 1.367 . S
C687 C689 1.433 . S
C688 C684 1.350 . S
C688 C685 1.463 1_655 S
C688 N692 1.427 . S
C689 H679 0.929 . S
C689 C687 1.433 . S
C689 N692 1.384 . S
C690 H681 0.929 1_455 S
C690 C682 1.378 . S
C690 C685 1.350 . S
C691 H678 0.929 . S
C691 C683 1.433 . S
C691 N693 1.384 . S
N692 C688 1.427 . S
N692 C689 1.384 . S
N693 C685 1.427 . S
N693 C691 1.384 . S
H694 C700 0.930 1_545 S
H695 C704 0.930 1_565 S
H696 C709 0.929 . S
H697 C707 0.929 . S
H698 C702 0.929 . S
H699 C708 0.929 . S
C700 H694 0.930 1_565 S
C700 C701 1.367 . S
C700 C708 1.378 1_565 S
C701 C700 1.367 . S
C701 C709 1.433 . S
C702 H698 0.929 . S
C702 C704 1.378 1_565 S
C702 C706 1.350 1_565 S
C703 C706 1.463 1_565 S
C703 C708 1.350 1_565 S
C703 N711 1.427 . S
C704 H695 0.930 1_545 S
C704 C702 1.378 1_545 S
C704 C705 1.367 . S
C705 C704 1.367 . S
C705 C707 1.433 . S
C706 C702 1.350 1_545 S
C706 C703 1.463 1_545 S
C706 N710 1.427 . S
C707 H697 0.929 . S
C707 C705 1.433 . S
C707 N710 1.384 . S
C708 H699 0.929 . S
C708 C700 1.378 1_545 S
C708 C703 1.350 1_545 S
C709 H696 0.929 . S
C709 C701 1.433 . S
C709 N711 1.384 . S
N710 C706 1.427 . S
N710 C707 1.384 . S
N711 C703 1.427 . S
N711 C709 1.384 . S
H712 C718 0.930 . S
H713 C722 0.930 . S
H714 C727 0.929 . S
H715 C725 0.929 . S
H716 C720 0.929 . S
H717 C726 0.929 . S
C718 H712 0.930 . S
C718 C719 1.367 . S
C718 C726 1.378 . S
C719 C718 1.367 . S
C719 C727 1.433 . S
C720 H716 0.929 . S
C720 C722 1.378 . S
C720 C724 1.350 . S
C721 C724 1.463 . S
C721 C726 1.350 . S
C721 N729 1.427 . S
C722 H713 0.930 . S
C722 C720 1.378 . S
C722 C723 1.367 . S
C723 C722 1.367 . S
C723 C725 1.433 . S
C724 C720 1.350 . S
C724 C721 1.463 . S
C724 N728 1.427 . S
C725 H715 0.929 . S
C725 C723 1.433 . S
C725 N728 1.384 . S
C726 H717 0.929 . S
C726 C718 1.378 . S
C726 C721 1.350 . S
C727 H714 0.929 . S
C727 C719 1.433 . S
C727 N729 1.384 . S
N728 C724 1.427 . S
N728 C725 1.384 . S
N729 C721 1.427 . S
N729 C727 1.384 . S
H730 C736 0.930 . S
H731 C740 0.930 . S
H732 C745 0.929 . S
H733 C743 0.929 . S
H734 C738 0.929 . S
H735 C744 0.929 . S
C736 H730 0.930 . S
C736 C737 1.367 . S
C736 C744 1.378 . S
C737 C736 1.367 . S
C737 C745 1.433 . S
C738 H734 0.929 . S
C738 C740 1.378 . S
C738 C742 1.350 . S
C739 C742 1.463 . S
C739 C744 1.350 . S
C739 N747 1.427 . S
C740 H731 0.930 . S
C740 C738 1.378 . S
C740 C741 1.367 . S
C741 C740 1.367 . S
C741 C743 1.433 . S
C742 C738 1.350 . S
C742 C739 1.463 . S
C742 N746 1.427 . S
C743 H733 0.929 . S
C743 C741 1.433 . S
C743 N746 1.384 . S
C744 H735 0.929 . S
C744 C736 1.378 . S
C744 C739 1.350 . S
C745 H732 0.929 . S
C745 C737 1.433 . S
C745 N747 1.384 . S
N746 C742 1.427 . S
N746 C743 1.384 . S
N747 C739 1.427 . S
N747 C745 1.384 . S
H748 C754 0.930 . S
H749 C758 0.930 . S
H750 C763 0.929 . S
H751 C761 0.929 . S
H752 C756 0.929 . S
H753 C762 0.929 . S
C754 H748 0.930 . S
C754 C755 1.367 . S
C754 C762 1.378 . S
C755 C754 1.367 . S
C755 C763 1.433 . S
C756 H752 0.929 . S
C756 C758 1.378 . S
C756 C760 1.350 . S
C757 C760 1.463 1_545 S
C757 C762 1.350 . S
C757 N765 1.427 . S
C758 H749 0.930 . S
C758 C756 1.378 . S
C758 C759 1.367 . S
C759 C758 1.367 . S
C759 C761 1.433 . S
C760 C756 1.350 . S
C760 C757 1.463 1_565 S
C760 N764 1.427 . S
C761 H751 0.929 . S
C761 C759 1.433 . S
C761 N764 1.384 . S
C762 H753 0.929 . S
C762 C754 1.378 . S
C762 C757 1.350 . S
C763 H750 0.929 . S
C763 C755 1.433 . S
C763 N765 1.384 . S
N764 C760 1.427 . S
N764 C761 1.384 . S
N765 C757 1.427 . S
N765 C763 1.384 . S
H766 C772 0.930 . S
H767 C776 0.930 . S
H768 C781 0.929 . S
H769 C779 0.929 . S
H770 C774 0.929 . S
H771 C780 0.929 . S
C772 H766 0.930 . S
C772 C773 1.367 . S
C772 C780 1.378 . S
C773 C772 1.367 . S
C773 C781 1.433 . S
C774 H770 0.929 . S
C774 C776 1.378 . S
C774 C778 1.350 . S
C775 C778 1.463 1_655 S
C775 C780 1.350 . S
C775 N783 1.427 . S
C776 H767 0.930 . S
C776 C774 1.378 . S
C776 C777 1.367 . S
C777 C776 1.367 . S
C777 C779 1.433 . S
C778 C774 1.350 . S
C778 C775 1.463 1_455 S
C778 N782 1.427 . S
C779 H769 0.929 . S
C779 C777 1.433 . S
C779 N782 1.384 . S
C780 H771 0.929 . S
C780 C772 1.378 . S
C780 C775 1.350 . S
C781 H768 0.929 . S
C781 C773 1.433 . S
C781 N783 1.384 . S
N782 C778 1.427 . S
N782 C779 1.384 . S
N783 C775 1.427 . S
N783 C781 1.384 . S
C215 C5 1.196 . S
C219 C148 1.175 . S
C233 C107 1.169 . S
C237 C18 1.189 . S
C251 C120 1.173 . S
C255 C29 1.196 . S
C269 C135 1.174 . S
C273 C42 1.188 . S
C287 C68 1.168 . S
C291 C57 1.194 . S
C305 C70 1.189 . S
C309 C83 1.169 . S
C323 C81 1.193 . S
C327 C96 1.181 . S
C341 C94 1.189 . S
C345 C55 1.171 . S
C359 C109 1.188 . S
C363 C44 1.173 . S
C377 C3 1.176 . S
C381 C122 1.189 . S
C395 C16 1.169 . S
C399 C133 1.189 . S
C413 C31 1.180 . S
C417 C146 1.190 . S
C431 C172 1.180 . S
C435 C159 1.194 . S
C449 C174 1.193 . S
C453 C187 1.181 . S
C467 C200 1.173 . S
C471 C185 1.196 . S
C485 C161 1.175 . S
C489 C198 1.196 . S
C503 C186 1.725 . S
C507 C10 1.725 . S
C521 C199 1.729 . S
C525 C23 1.729 . S
C539 C160 1.720 . S
C543 C30 1.720 . S
C557 C43 1.721 . S
C561 C179 1.721 . S
C575 C62 1.728 . S
C579 C134 1.728 . S
C593 C147 1.720 . S
C597 C75 1.720 . S
C611 C82 1.723 . S
C615 C114 1.723 . S
C629 C95 1.721 . S
C633 C127 1.721 . S
C647 C36 1.370 . S
C651 C4 1.369 . S
C665 C49 1.369 . S
C669 C17 1.369 . S
C683 C56 1.370 . S
C687 C88 1.370 . S
C701 C69 1.368 . S
C705 C101 1.368 . S
C719 C140 1.368 . S
C723 C108 1.368 . S
C737 C121 1.369 . S
C741 C153 1.370 . S
C755 C192 1.368 . S
C759 C166 1.368 . S
C773 C173 1.372 . S
C777 C205 1.372 . S
