# Generated by pormake.
# Topology sml, (6)-cn, num edge types: 1
# Building blocks:
#     Node 0, Type 0, BuildingBlock: BETGAK_clean_sbu_0, # of connection points: 6
#     Node 1, Type 0, BuildingBlock: BETGAK_clean_sbu_0, # of connection points: 6
#     Node 2, Type 0, BuildingBlock: BETGAK_clean_sbu_0, # of connection points: 6
#     Node 3, Type 0, BuildingBlock: BETGAK_clean_sbu_0, # of connection points: 6
#     Node 4, Type 0, BuildingBlock: BETGAK_clean_sbu_0, # of connection points: 6
#     Node 5, Type 0, BuildingBlock: BETGAK_clean_sbu_0, # of connection points: 6
#     Edge 6, Type (0, 0), BuildingBlock: XIVTED_clean_linker_0, # of connection points: 2
#     Edge 7, Type (0, 0), BuildingBlock: XIVTED_clean_linker_0, # of connection points: 2
#     Edge 8, Type (0, 0), BuildingBlock: XIVTED_clean_linker_0, # of connection points: 2
#     Edge 9, Type (0, 0), BuildingBlock: XIVTED_clean_linker_0, # of connection points: 2
#     Edge 10, Type (0, 0), BuildingBlock: XIVTED_clean_linker_0, # of connection points: 2
#     Edge 11, Type (0, 0), BuildingBlock: XIVTED_clean_linker_0, # of connection points: 2
#     Edge 12, Type (0, 0), BuildingBlock: XIVTED_clean_linker_0, # of connection points: 2
#     Edge 13, Type (0, 0), BuildingBlock: XIVTED_clean_linker_0, # of connection points: 2
#     Edge 14, Type (0, 0), BuildingBlock: XIVTED_clean_linker_0, # of connection points: 2
#     Edge 15, Type (0, 0), BuildingBlock: XIVTED_clean_linker_0, # of connection points: 2
#     Edge 16, Type (0, 0), BuildingBlock: XIVTED_clean_linker_0, # of connection points: 2
#     Edge 17, Type (0, 0), BuildingBlock: XIVTED_clean_linker_0, # of connection points: 2
#     Edge 18, Type (0, 0), BuildingBlock: XIVTED_clean_linker_0, # of connection points: 2
#     Edge 19, Type (0, 0), BuildingBlock: XIVTED_clean_linker_0, # of connection points: 2
#     Edge 20, Type (0, 0), BuildingBlock: XIVTED_clean_linker_0, # of connection points: 2
#     Edge 21, Type (0, 0), BuildingBlock: XIVTED_clean_linker_0, # of connection points: 2
#     Edge 22, Type (0, 0), BuildingBlock: XIVTED_clean_linker_0, # of connection points: 2
#     Edge 23, Type (0, 0), BuildingBlock: XIVTED_clean_linker_0, # of connection points: 2
# Relax obj value: 0.192
# Max RMSD: 0.223
# Mean RMSD: 0.223
data_MOF--net-sml--node1-BETGAK_clean_sbu_0--edge1-XIVTED_clean_linker_0
_symmetry_space_group_name_H-M    P1
_symmetry_Int_Tables_number       1
_symmetry_cell_setting            triclinic
loop_
_symmetry_equiv_pos_as_xyz
'x, y, z'
_cell_length_a     32.448916
_cell_length_b     32.452768
_cell_length_c     25.206463
_cell_angle_alpha  90.250472
_cell_angle_beta   89.930147
_cell_angle_gamma 120.1941
loop_
_atom_site_label
_atom_site_type_symbol
_atom_site_fract_x
_atom_site_fract_y
_atom_site_fract_z
_atom_type_partial_charge
La0 La 0.16963 0.41925 0.1096 0.0
La1 La 0.2162 0.40809 0.20969 0.0
C2 C 0.15451 0.44795 0.02293 0.0
C3 C 0.16123 0.44224 0.96559 0.0
C4 C 0.12305 0.40794 0.93499 0.0
C5 C 0.12877 0.4028 0.88079 0.0
C6 C 0.17275 0.43202 0.85565 0.0
C7 C 0.21086 0.46664 0.88618 0.0
C8 C 0.20512 0.47181 0.94042 0.0
C9 C 0.11091 0.36342 0.18388 0.0
C10 C 0.19382 0.33689 0.11133 0.0
C11 C 0.22845 0.37819 0.29698 0.0
C12 C 0.22222 0.38553 0.354 0.0
C13 C 0.26096 0.41943 0.38429 0.0
C14 C 0.2555 0.42567 0.4383 0.0
C15 C 0.21123 0.39794 0.46351 0.0
C16 C 0.17249 0.36399 0.4332 0.0
C17 C 0.17795 0.35775 0.3792 0.0
C18 C 0.27551 0.46624 0.13802 0.0
C19 C 0.19599 0.49265 0.20747 0.0
O20 O 0.12223 0.41002 0.04795 0.0
O21 O 0.19302 0.4727 0.0517 0.0
O22 O 0.10074 0.35767 0.13367 0.0
O23 O 0.14981 0.40127 0.19001 0.0
O24 O 0.18505 0.36496 0.08117 0.0
O25 O 0.20354 0.34556 0.16265 0.0
O26 O 0.26255 0.41444 0.2714 0.0
O27 O 0.18957 0.35525 0.26832 0.0
O28 O 0.28452 0.47034 0.18852 0.0
O29 O 0.23722 0.42801 0.12929 0.0
O30 O 0.20465 0.46459 0.23759 0.0
O31 O 0.18337 0.48279 0.15673 0.0
H32 H 0.08853 0.38515 0.95287 0.0
H33 H 0.09837 0.37639 0.8584 0.0
H34 H 0.24536 0.48952 0.86831 0.0
H35 H 0.23513 0.49909 0.96252 0.0
H36 H 0.29572 0.44096 0.36636 0.0
H37 H 0.28629 0.45162 0.46056 0.0
H38 H 0.13776 0.34236 0.45111 0.0
H39 H 0.14741 0.33096 0.35731 0.0
La40 La 0.80831 0.2533 0.54445 0.0
La41 La 0.76391 0.1868 0.44998 0.0
C42 C 0.82425 0.28986 0.63591 0.0
C43 C 0.8154 0.2739 0.6919 0.0
C44 C 0.85331 0.27883 0.72339 0.0
C45 C 0.84647 0.26684 0.77714 0.0
C46 C 0.80159 0.25001 0.80093 0.0
C47 C 0.76343 0.24442 0.76919 0.0
C48 C 0.77024 0.25628 0.71531 0.0
C49 C 0.86938 0.26383 0.47028 0.0
C50 C 0.78225 0.14384 0.54944 0.0
C51 C 0.74165 0.14789 0.35961 0.0
C52 C 0.74987 0.16257 0.30319 0.0
C53 C 0.71202 0.15868 0.27239 0.0
C54 C 0.7183 0.16993 0.2184 0.0
C55 C 0.76255 0.18508 0.1938 0.0
C56 C 0.80059 0.18941 0.22479 0.0
C57 C 0.79432 0.17821 0.27883 0.0
C58 C 0.70515 0.18057 0.52603 0.0
C59 C 0.79218 0.29614 0.44218 0.0
O60 O 0.85472 0.28243 0.60946 0.0
O61 O 0.78724 0.28143 0.60699 0.0
O62 O 0.87397 0.29754 0.50179 0.0
O63 O 0.83379 0.22458 0.48405 0.0
O64 O 0.78899 0.18245 0.57533 0.0
O65 O 0.77774 0.14007 0.49739 0.0
O66 O 0.71469 0.15952 0.38707 0.0
O67 O 0.77833 0.15344 0.3871 0.0
O68 O 0.69959 0.14427 0.49859 0.0
O69 O 0.74031 0.21764 0.50846 0.0
O70 O 0.78453 0.25685 0.41738 0.0
O71 O 0.79805 0.30167 0.49419 0.0
H72 H 0.88855 0.29255 0.70659 0.0
H73 H 0.87648 0.27085 0.80008 0.0
H74 H 0.72852 0.23211 0.78625 0.0
H75 H 0.74028 0.25238 0.69236 0.0
H76 H 0.6773 0.14647 0.28997 0.0
H77 H 0.68842 0.16684 0.19596 0.0
H78 H 0.83497 0.20034 0.20706 0.0
H79 H 0.82416 0.18116 0.30117 0.0
La80 La 0.55666 0.73602 0.76395 0.0
La81 La 0.58486 0.80303 0.8592 0.0
C82 C 0.53042 0.69807 0.67328 0.0
C83 C 0.53832 0.71153 0.61668 0.0
C84 C 0.53808 0.67898 0.57978 0.0
C85 C 0.54437 0.68982 0.5257 0.0
C86 C 0.55096 0.73356 0.50707 0.0
C87 C 0.55176 0.7665 0.54438 0.0
C88 C 0.54551 0.7556 0.59869 0.0
C89 C 0.61309 0.72717 0.83145 0.0
C90 C 0.64103 0.84551 0.75618 0.0
C91 C 0.60397 0.8433 0.94917 0.0
C92 C 0.60025 0.83064 1.00584 0.0
C93 C 0.59943 0.86203 0.04359 0.0
C94 C 0.59561 0.85125 0.09765 0.0
C95 C 0.59246 0.80867 0.11531 0.0
C96 C 0.5931 0.77704 0.07718 0.0
C97 C 0.59704 0.78798 0.02291 0.0
C98 C 0.52793 0.80863 0.78865 0.0
C99 C 0.50525 0.69376 0.8706 0.0
O100 O 0.56674 0.701 0.69913 0.0
O101 O 0.50695 0.7134 0.70164 0.0
O102 O 0.58156 0.69275 0.80229 0.0
O103 O 0.61499 0.7659 0.81942 0.0
O104 O 0.60775 0.80665 0.73161 0.0
O105 O 0.64319 0.84954 0.8084 0.0
O106 O 0.56374 0.82902 0.92406 0.0
O107 O 0.63452 0.83783 0.92046 0.0
O108 O 0.56089 0.84509 0.81397 0.0
O109 O 0.52662 0.77157 0.80497 0.0
O110 O 0.54052 0.73235 0.89302 0.0
O111 O 0.50005 0.6892 0.81837 0.0
H112 H 0.53287 0.64491 0.59284 0.0
H113 H 0.54448 0.66395 0.49851 0.0
H114 H 0.55635 0.80036 0.53157 0.0
H115 H 0.54595 0.78139 0.62647 0.0
H116 H 0.60158 0.89499 0.0312 0.0
H117 H 0.59439 0.87605 0.12558 0.0
H118 H 0.59117 0.74414 0.0893 0.0
H119 H 0.59765 0.76324 0.99437 0.0
La120 La 0.74145 0.57611 0.20677 0.0
La121 La 0.80339 0.58988 0.10934 0.0
C122 C 0.70311 0.55732 0.29726 0.0
C123 C 0.7165 0.56229 0.3535 0.0
C124 C 0.68098 0.54954 0.39192 0.0
C125 C 0.6923 0.55321 0.44579 0.0
C126 C 0.73951 0.56987 0.46223 0.0
C127 C 0.77521 0.5829 0.42345 0.0
C128 C 0.76373 0.57895 0.36942 0.0
C129 C 0.73689 0.63029 0.13284 0.0
C130 C 0.85384 0.6508 0.20876 0.0
C131 C 0.84234 0.60367 0.01946 0.0
C132 C 0.82962 0.60075 0.9631 0.0
C133 C 0.86614 0.62212 0.9255 0.0
C134 C 0.85534 0.61913 0.8715 0.0
C135 C 0.80767 0.59482 0.85403 0.0
C136 C 0.77105 0.57372 0.89209 0.0
C137 C 0.78195 0.57653 0.94616 0.0
C138 C 0.80444 0.5345 0.18502 0.0
C139 C 0.69188 0.51643 0.10564 0.0
O140 O 0.71524 0.59682 0.27164 0.0
O141 O 0.71066 0.52766 0.26933 0.0
O142 O 0.70248 0.60491 0.16538 0.0
O143 O 0.77344 0.62828 0.14537 0.0
O144 O 0.81472 0.62237 0.23616 0.0
O145 O 0.85546 0.64861 0.15655 0.0
O146 O 0.82411 0.56323 0.04508 0.0
O147 O 0.84109 0.63715 0.04738 0.0
O148 O 0.84114 0.56156 0.15602 0.0
O149 O 0.76943 0.53719 0.16892 0.0
O150 O 0.73046 0.54662 0.07881 0.0
O151 O 0.69 0.51713 0.15805 0.0
H152 H 0.64434 0.53666 0.38024 0.0
H153 H 0.66413 0.54354 0.4746 0.0
H154 H 0.81181 0.59544 0.43487 0.0
H155 H 0.79154 0.58859 0.34016 0.0
H156 H 0.90315 0.64076 0.9379 0.0
H157 H 0.88447 0.63512 0.84341 0.0
H158 H 0.73395 0.55524 0.88016 0.0
H159 H 0.75322 0.55969 0.9746 0.0
La160 La 0.26841 0.84262 0.41871 0.0
La161 La 0.20125 0.8023 0.51431 0.0
C162 C 0.30711 0.85742 0.32859 0.0
C163 C 0.29354 0.84999 0.27209 0.0
C164 C 0.32583 0.88144 0.23462 0.0
C165 C 0.31454 0.87527 0.18061 0.0
C166 C 0.2706 0.83736 0.1628 0.0
C167 C 0.238 0.80602 0.20068 0.0
C168 C 0.24937 0.81229 0.25488 0.0
C169 C 0.27908 0.90571 0.49088 0.0
C170 C 0.15818 0.81466 0.41113 0.0
C171 C 0.16268 0.78729 0.60455 0.0
C172 C 0.17676 0.79304 0.66091 0.0
C173 C 0.14457 0.76089 0.69797 0.0
C174 C 0.15605 0.76601 0.75193 0.0
C175 C 0.20006 0.80357 0.77012 0.0
C176 C 0.23264 0.83548 0.73263 0.0
C177 C 0.22111 0.83024 0.67848 0.0
C178 C 0.19581 0.74025 0.44254 0.0
C179 C 0.30925 0.8258 0.52333 0.0
O180 O 0.30005 0.88861 0.35405 0.0
O181 O 0.29524 0.8193 0.35698 0.0
O182 O 0.31291 0.90905 0.4606 0.0
O183 O 0.24003 0.86999 0.47676 0.0
O184 O 0.19706 0.82079 0.38639 0.0
O185 O 0.15471 0.81348 0.46331 0.0
O186 O 0.16714 0.75517 0.57761 0.0
O187 O 0.17651 0.82639 0.57733 0.0
O188 O 0.15932 0.73508 0.46933 0.0
O189 O 0.23253 0.77673 0.45878 0.0
O190 O 0.27025 0.81958 0.54744 0.0
O191 O 0.31531 0.83129 0.47123 0.0
H192 H 0.35996 0.91092 0.24718 0.0
H193 H 0.34013 0.90063 0.15285 0.0
H194 H 0.20402 0.77622 0.18841 0.0
H195 H 0.22384 0.78761 0.28323 0.0
H196 H 0.1103 0.73181 0.68516 0.0
H197 H 0.13047 0.74023 0.77937 0.0
H198 H 0.26667 0.86505 0.74518 0.0
H199 H 0.24661 0.85546 0.6505 0.0
La200 La 0.42089 0.1553 0.90283 0.0
La201 La 0.39142 0.19206 0.8074 0.0
C202 C 0.44305 0.13867 0.99295 0.0
C203 C 0.43596 0.14497 0.0495 0.0
C204 C 0.43352 0.11133 0.08591 0.0
C205 C 0.42713 0.11612 0.13993 0.0
C206 C 0.42307 0.15479 0.15879 0.0
C207 C 0.42544 0.18854 0.12206 0.0
C208 C 0.43167 0.18359 0.06781 0.0
C209 C 0.37028 0.09078 0.83074 0.0
C210 C 0.33513 0.17732 0.91089 0.0
C211 C 0.36608 0.20409 0.71689 0.0
C212 C 0.37529 0.19899 0.66062 0.0
C213 C 0.3777 0.23257 0.62413 0.0
C214 C 0.38515 0.22832 0.57027 0.0
C215 C 0.39025 0.19019 0.55164 0.0
C216 C 0.38813 0.15662 0.58844 0.0
C217 C 0.38092 0.16109 0.64252 0.0
C218 C 0.44506 0.25736 0.87814 0.0
C219 C 0.48009 0.17502 0.79915 0.0
O220 O 0.40503 0.10815 0.96658 0.0
O221 O 0.4701 0.17719 0.96549 0.0
O222 O 0.40281 0.0902 0.85979 0.0
O223 O 0.36473 0.12494 0.84522 0.0
O224 O 0.36962 0.17423 0.93543 0.0
O225 O 0.33253 0.17796 0.85867 0.0
O226 O 0.40165 0.23784 0.74366 0.0
O227 O 0.34254 0.16486 0.74445 0.0
O228 O 0.41266 0.25902 0.84966 0.0
O229 O 0.44862 0.22207 0.86378 0.0
O230 O 0.44625 0.17915 0.77477 0.0
O231 O 0.48068 0.16977 0.85123 0.0
H232 H 0.4368 0.08132 0.07254 0.0
H233 H 0.42616 0.08985 0.16706 0.0
H234 H 0.42195 0.21846 0.13516 0.0
H235 H 0.43314 0.20983 0.04026 0.0
H236 H 0.37335 0.262 0.63729 0.0
H237 H 0.38592 0.25442 0.54305 0.0
H238 H 0.39242 0.12712 0.57553 0.0
H239 H 0.37956 0.13487 0.67004 0.0
H240 H 0.26273 0.19019 0.87499 0.0
H241 H 0.22698 0.28215 0.15611 0.0
H242 H 0.33252 0.18613 0.01909 0.0
H243 H 0.17825 0.30804 1.00729 0.0
H244 H 0.25122 0.23161 0.10962 0.0
H245 H 0.21738 0.21777 0.92623 0.0
C246 C 0.2681 0.19442 0.91752 0.0
C247 C 0.3021 0.18648 0.9426 0.0
C248 C 0.23468 0.24788 0.08728 0.0
C249 C 0.2503 0.21836 1.00147 0.0
C250 C 0.22065 0.27667 0.11381 0.0
C251 C 0.20121 0.30007 0.08544 0.0
C252 C 0.22913 0.24232 0.03202 0.0
C253 C 0.19365 0.29127 0.03072 0.0
C254 C 0.2422 0.2103 0.94673 0.0
C255 C 0.30708 0.19223 0.99792 0.0
N256 N 0.20808 0.26351 1.00573 0.0
N257 N 0.28186 0.20834 0.02541 0.0
H258 H 0.12567 0.38697 0.28794 0.0
H259 H 0.86736 0.20045 0.39488 0.0
H260 H 0.01867 0.28767 0.17932 0.0
H261 H 0.95266 0.34457 0.45273 0.0
H262 H 0.92662 0.21841 0.32412 0.0
H263 H 0.06746 0.35599 0.35928 0.0
C264 C 0.09 0.35816 0.2792 0.0
C265 C 0.07676 0.34016 0.22754 0.0
C266 C 0.93207 0.24582 0.35256 0.0
C267 C 0.00979 0.30482 0.30917 0.0
C268 C 0.89826 0.23571 0.39259 0.0
C269 C 0.90468 0.2713 0.429 0.0
C270 C 0.97297 0.29128 0.35051 0.0
C271 C 0.94605 0.31612 0.4253 0.0
C272 C 0.05675 0.34067 0.31993 0.0
C273 C 0.03004 0.30269 0.21864 0.0
N274 N 0.97863 0.32472 0.38698 0.0
N275 N -0.00214 0.28632 0.25916 0.0
H276 H 0.78883 0.13603 0.65706 0.0
H277 H 0.64829 0.85326 0.64778 0.0
H278 H 0.75603 0.05483 0.5114 0.0
H279 H 0.70646 0.93469 0.79193 0.0
H280 H 0.69274 0.92647 0.59667 0.0
H281 H 0.76422 0.06296 0.70699 0.0
C282 C 0.77706 0.103 0.63551 0.0
C283 C 0.774 0.10154 0.57995 0.0
C284 C 0.69631 0.9282 0.63945 0.0
C285 C 0.74529 0.01765 0.6369 0.0
C286 C 0.67092 0.88636 0.66869 0.0
C287 C 0.67318 0.88784 0.72431 0.0
C288 C 0.72371 0.9719 0.66604 0.0
C289 C 0.70328 0.93181 0.74916 0.0
C290 C 0.76303 0.06125 0.66407 0.0
C291 C 0.75868 0.05769 0.55421 0.0
N292 N 0.72683 0.97215 0.71989 0.0
N293 N 0.74431 0.01742 0.58291 0.0
H294 H 0.62158 0.64905 0.84482 0.0
H295 H 0.69996 0.6888 0.13421 0.0
H296 H 0.67194 0.79001 0.90801 0.0
H297 H 0.76025 0.62796 0.02948 0.0
H298 H 0.68038 0.72166 0.05678 0.0
H299 H 0.66352 0.63413 0.916 0.0
C300 C 0.64152 0.67696 0.87367 0.0
C301 C 0.64232 0.72053 0.87145 0.0
C302 C 0.69899 0.70208 0.05105 0.0
C303 C 0.68933 0.70323 0.95315 0.0
C304 C 0.70999 0.68331 0.09493 0.0
C305 C 0.7323 0.65627 0.08787 0.0
C306 C 0.70872 0.69193 1.0 0.0
C307 C 0.74401 0.6494 0.03642 0.0
C308 C 0.66555 0.66845 0.91398 0.0
C309 C 0.66913 0.75555 0.90944 0.0
N310 N 0.73108 0.66619 0.99413 0.0
N311 N 0.69077 0.7458 0.94972 0.0
H312 H 0.0708 0.79492 0.44826 0.0
H313 H 0.94263 0.70727 0.16653 0.0
H314 H 0.14583 0.80456 0.30295 0.0
H315 H 0.86733 0.6693 0.31593 0.0
H316 H 0.01726 0.75554 0.21424 0.0
H317 H -0.00339 0.7622 0.39823 0.0
C318 C 0.07192 0.79083 0.40571 0.0
C319 C 0.11474 0.80213 0.3799 0.0
C320 C 0.98437 0.73693 0.23655 0.0
C321 C 0.02949 0.76432 0.32243 0.0
C322 C 0.9416 0.70937 0.20936 0.0
C323 C 0.89849 0.68372 0.23726 0.0
C324 C 0.98421 0.73916 0.29211 0.0
C325 C 0.89964 0.6881 0.29274 0.0
C326 C 0.02937 0.77191 0.37723 0.0
C327 C 0.11374 0.79617 0.32462 0.0
N328 N 0.94185 0.71508 0.31836 0.0
N329 N 0.07171 0.77732 0.2978 0.0
H330 H 0.29108 0.07161 0.77089 0.0
H331 H 0.36272 0.94888 0.54286 0.0
H332 H 0.40875 0.04547 0.77926 0.0
H333 H 0.21868 0.92232 0.55357 0.0
H334 H 0.38203 0.99327 0.62541 0.0
H335 H 0.26515 0.02497 0.68748 0.0
C336 C 0.31143 0.05625 0.75507 0.0
C337 C 0.35231 0.06268 0.7815 0.0
C338 C 0.34605 0.97767 0.6101 0.0
C339 C 0.32305 0.00965 0.68745 0.0
C340 C 0.33504 0.95246 0.56273 0.0
C341 C 0.28897 0.93177 0.54156 0.0
C342 C 0.31095 0.98292 0.63667 0.0
C343 C 0.2545 0.93742 0.56912 0.0
C344 C 0.29646 0.02943 0.70796 0.0
C345 C 0.37704 0.04145 0.76017 0.0
N346 N 0.26624 0.96281 0.61544 0.0
N347 N 0.36221 0.01623 0.71439 0.0
H348 H 0.13689 0.34928 0.79732 0.0
H349 H 0.24898 0.48098 0.52173 0.0
H350 H 0.222 0.50218 0.78173 0.0
H351 H 0.161 0.32836 0.53739 0.0
H352 H 0.24037 0.48955 0.61689 0.0
H353 H 0.14567 0.34107 0.70227 0.0
C354 C 0.15724 0.38119 0.77393 0.0
C355 C 0.17862 0.42653 0.79779 0.0
C356 C 0.2229 0.45418 0.59951 0.0
C357 C 0.18928 0.41729 0.68856 0.0
C358 C 0.22801 0.44923 0.54516 0.0
C359 C 0.20571 0.40385 0.52132 0.0
C360 C 0.19538 0.41347 0.63053 0.0
C361 C 0.17836 0.3641 0.55374 0.0
C362 C 0.16245 0.37644 0.7196 0.0
C363 C 0.20532 0.46648 0.76536 0.0
N364 N 0.17406 0.36984 0.60656 0.0
N365 N 0.20981 0.46092 0.71251 0.0
H366 H 0.83976 0.25711 0.14221 0.0
H367 H 0.7248 0.17679 0.85208 0.0
H368 H 0.69952 0.13649 0.11305 0.0
H369 H 0.8634 0.29962 0.88219 0.0
H370 H 0.71485 0.16127 0.94741 0.0
H371 H 0.84942 0.27252 0.04692 0.0
C372 C 0.81104 0.23373 0.11581 0.0
C373 C 0.76873 0.19543 0.13588 0.0
C374 C 0.74747 0.19158 0.93313 0.0
C375 C 0.77942 0.21319 0.02645 0.0
C376 C 0.75309 0.20063 0.87866 0.0
C377 C 0.79506 0.23956 0.85884 0.0
C378 C 0.78406 0.22165 0.96825 0.0
C379 C 0.83073 0.26875 0.89537 0.0
C380 C 0.81649 0.24272 0.06136 0.0
C381 C 0.7325 0.16681 0.09962 0.0
N382 N 0.8244 0.25922 0.94816 0.0
N383 N 0.73871 0.17623 0.04677 0.0
H384 H 0.5047 0.67262 0.42365 0.0
H385 H 0.63859 0.86975 0.19854 0.0
H386 H 0.61015 0.81905 0.45747 0.0
H387 H 0.5366 0.7223 0.16459 0.0
H388 H 0.62851 0.85189 0.29327 0.0
H389 H 0.51595 0.69013 0.32892 0.0
C390 C 0.53046 0.70844 0.41128 0.0
C391 C 0.55667 0.74432 0.44899 0.0
C392 C 0.60837 0.82338 0.26516 0.0
C393 C 0.5693 0.7648 0.33987 0.0
C394 C 0.61393 0.83359 0.21093 0.0
C395 C 0.58822 0.79756 0.17323 0.0
C396 C 0.57678 0.77672 0.28225 0.0
C397 C 0.55751 0.75119 0.19196 0.0
C398 C 0.53666 0.71846 0.35701 0.0
C399 C 0.58874 0.79029 0.43015 0.0
N400 N 0.55253 0.74219 0.24503 0.0
N401 N 0.59418 0.79914 0.37706 0.0
H402 H 0.73784 0.51785 0.79941 0.0
H403 H 0.81567 0.64253 0.51468 0.0
H404 H 0.8521 0.66264 0.77671 0.0
H405 H 0.68968 0.5057 0.5407 0.0
H406 H 0.83243 0.64877 0.60995 0.0
H407 H 0.72146 0.51157 0.70431 0.0
C408 C 0.75926 0.54849 0.77459 0.0
C409 C 0.79646 0.59086 0.79632 0.0
C410 C 0.80111 0.61738 0.59481 0.0
C411 C 0.77836 0.58356 0.68695 0.0
C412 C 0.79172 0.61366 0.54038 0.0
C413 C 0.75113 0.5736 0.51969 0.0
C414 C 0.76986 0.58065 0.62882 0.0
C415 C 0.72103 0.53751 0.55498 0.0
C416 C 0.75008 0.54475 0.72015 0.0
C417 C 0.82354 0.62902 0.76178 0.0
N418 N 0.73102 0.54187 0.60773 0.0
N419 N 0.81401 0.62443 0.7089 0.0
H420 H 0.28578 0.8297 0.81879 0.0
H421 H 0.18481 0.81058 0.11401 0.0
H422 H 0.14035 0.79064 0.85374 0.0
H423 H 0.33021 0.84938 0.07932 0.0
H424 H 0.16761 0.80207 0.0189 0.0
H425 H 0.30293 0.83762 0.91395 0.0
C426 C 0.25749 0.82305 0.84637 0.0
C427 C 0.21147 0.80933 0.82797 0.0
C428 C 0.2033 0.81245 0.03209 0.0
C429 C 0.23079 0.81783 0.93734 0.0
C430 C 0.21308 0.81701 0.08651 0.0
C431 C 0.25911 0.83088 0.10496 0.0
C432 C 0.23975 0.82175 0.9956 0.0
C433 C 0.29439 0.83936 0.06711 0.0
C434 C 0.26724 0.82728 0.9008 0.0
C435 C 0.17616 0.80056 0.86588 0.0
N436 N 0.28399 0.8347 1.0144 0.0
N437 N 0.18654 0.80494 0.91858 0.0
H438 H 0.4458 0.26061 0.48082 0.0
H439 H 0.36716 0.08467 0.22967 0.0
H440 H 0.34966 0.10875 0.49057 0.0
H441 H 0.46492 0.23621 0.21999 0.0
H442 H 0.36012 0.09291 0.32509 0.0
H443 H 0.4532 0.25245 0.38539 0.0
C444 C 0.42612 0.22553 0.4629 0.0
C445 C 0.39688 0.18532 0.49389 0.0
C446 C 0.38311 0.12439 0.30215 0.0
C447 C 0.40543 0.17569 0.38435 0.0
C448 C 0.38731 0.1197 0.24761 0.0
C449 C 0.41687 0.15979 0.21662 0.0
C450 C 0.40868 0.16953 0.32621 0.0
C451 C 0.44136 0.20438 0.24209 0.0
C452 C 0.43052 0.22088 0.40837 0.0
C453 C 0.37296 0.14068 0.46848 0.0
N454 N 0.43683 0.20801 0.29534 0.0
N455 N 0.37763 0.13711 0.41525 0.0
H456 H 0.1362 0.52902 0.19344 0.0
H457 H 0.27209 0.73463 0.40932 0.0
H458 H 0.25888 0.54958 0.28182 0.0
H459 H 0.12059 0.67109 0.38483 0.0
H460 H 0.27346 0.67886 0.34514 0.0
H461 H 0.13565 0.59281 0.24676 0.0
C462 C 0.16341 0.54752 0.22335 0.0
C463 C 0.19761 0.53419 0.23349 0.0
C464 C 0.23992 0.6772 0.35357 0.0
C465 C 0.19738 0.6066 0.29369 0.0
C466 C 0.23911 0.70909 0.39003 0.0
C467 C 0.19609 0.70715 0.40251 0.0
C468 C 0.19746 0.64328 0.3289 0.0
C469 C 0.15438 0.67326 0.37653 0.0
C470 C 0.16282 0.58345 0.25392 0.0
C471 C 0.23179 0.55871 0.273 0.0
N472 N 0.15603 0.64247 0.34076 0.0
N473 N 0.2309 0.59377 0.3015 0.0
H474 H 0.64647 0.10482 0.58929 0.0
H475 H 0.52341 0.23695 0.71941 0.0
H476 H 0.69682 0.25408 0.56449 0.0
H477 H 0.52385 0.12102 0.80176 0.0
H478 H 0.58214 0.23937 0.65717 0.0
H479 H 0.59619 0.10493 0.66268 0.0
C480 C 0.64692 0.13752 0.5994 0.0
C481 C 0.67546 0.17946 0.57086 0.0
C482 C 0.5699 0.2137 0.68914 0.0
C483 C 0.61839 0.17977 0.65375 0.0
C484 C 0.53634 0.21225 0.72457 0.0
C485 C 0.51909 0.17888 0.76573 0.0
C486 C 0.58554 0.18071 0.69394 0.0
C487 C 0.53681 0.14756 0.77071 0.0
C488 C 0.61865 0.13765 0.64138 0.0
C489 C 0.67528 0.22102 0.5856 0.0
N490 N 0.56873 0.14872 0.73459 0.0
N491 N 0.6468 0.22001 0.62561 0.0
H492 H 0.35869 0.54851 0.15407 0.0
H493 H 0.41858 0.61339 0.84684 0.0
H494 H 0.26812 0.45578 0.02947 0.0
H495 H 0.51438 0.68776 0.97697 0.0
H496 H 0.36151 0.55544 0.91067 0.0
H497 H 0.41451 0.60111 0.08747 0.0
C498 C 0.35058 0.53928 0.11253 0.0
C499 C 0.30875 0.49795 0.09718 0.0
C500 C 0.39522 0.5844 0.92492 0.0
C501 C 0.37259 0.55807 0.02027 0.0
C502 C 0.42779 0.61736 0.88856 0.0
C503 C 0.47122 0.65578 0.90651 0.0
C504 C 0.40633 0.59016 0.97938 0.0
C505 C 0.48127 0.65919 0.96106 0.0
C506 C 0.3825 0.56928 0.0744 0.0
C507 C 0.29994 0.48764 0.04281 0.0
N508 N 0.4491 0.62709 0.99532 0.0
N509 N 0.3316 0.51763 1.00612 0.0
H510 H 0.84874 0.39314 0.45445 0.0
H511 H 0.72585 0.45523 0.22044 0.0
H512 H 0.73861 0.2853 0.35547 0.0
H513 H 0.87768 0.5407 0.24512 0.0
H514 H 0.72215 0.39945 0.28791 0.0
H515 H 0.85235 0.45488 0.3945 0.0
C516 C 0.82504 0.38261 0.42054 0.0
C517 C 0.79341 0.33427 0.4096 0.0
C518 C 0.75621 0.43058 0.27873 0.0
C519 C 0.79679 0.40393 0.34226 0.0
C520 C 0.75835 0.4624 0.24046 0.0
C521 C 0.80221 0.50221 0.22711 0.0
C522 C 0.79807 0.43917 0.30452 0.0
C523 C 0.84331 0.50998 0.2541 0.0
C524 C 0.82734 0.41763 0.38638 0.0
C525 C 0.76367 0.32223 0.36504 0.0
N526 N 0.84028 0.47869 0.29187 0.0
N527 N 0.76583 0.35683 0.33321 0.0
H528 H 0.40738 0.87516 0.51454 0.0
H529 H 0.44258 0.73657 0.75469 0.0
H530 H 0.29146 0.76937 0.60856 0.0
H531 H 0.54629 0.88381 0.7244 0.0
H532 H 0.39196 0.73956 0.68468 0.0
H533 H 0.46427 0.87079 0.57621 0.0
C534 C 0.39403 0.85077 0.54771 0.0
C535 C 0.34484 0.82273 0.55677 0.0
C536 C 0.4259 0.77116 0.69321 0.0
C537 C 0.40891 0.81706 0.6261 0.0
C538 C 0.45475 0.76944 0.73297 0.0
C539 C 0.49827 0.81013 0.74544 0.0
C540 C 0.44098 0.8137 0.66523 0.0
C541 C 0.51256 0.85188 0.7162 0.0
C542 C 0.42631 0.8485 0.58286 0.0
C543 C 0.32915 0.79189 0.60042 0.0
N544 N 0.48394 0.85266 0.67719 0.0
N545 N 0.36102 0.78969 0.63322 0.0
H546 H 0.63397 0.42385 0.13416 0.0
H547 H 0.44969 0.34221 0.89959 0.0
H548 H 0.65792 0.52386 1.00919 0.0
H549 H 0.51801 0.26115 0.93623 0.0
H550 H 0.50757 0.40687 0.95729 0.0
H551 H 0.57102 0.35997 0.08003 0.0
C552 C 0.62536 0.43244 0.09577 0.0
C553 C 0.65101 0.47898 0.0759 0.0
C554 C 0.50922 0.3745 0.95301 0.0
C555 C 0.57903 0.40679 1.01488 0.0
C556 C 0.47635 0.33769 0.92033 0.0
C557 C 0.47854 0.29583 0.91397 0.0
C558 C 0.54346 0.36868 0.98049 0.0
C559 C 0.51407 0.29201 0.94134 0.0
C560 C 0.58982 0.39608 0.06497 0.0
C561 C 0.63895 0.48828 0.02568 0.0
N562 N 0.54488 0.32777 0.97392 0.0
N563 N 0.60346 0.45248 0.99689 0.0
loop_
_geom_bond_atom_site_label_1
_geom_bond_atom_site_label_2
_geom_bond_distance
_geom_bond_site_symmetry_2
_ccdc_geom_bond_type
La0 C2 2.928 . S
La0 O20 2.521 . S
La0 O21 2.628 . S
La0 O22 2.554 . S
La0 O23 2.757 . S
La0 O24 2.470 . S
La0 O29 2.482 . S
La0 O31 2.503 . S
La1 C11 2.928 . S
La1 O23 2.482 . S
La1 O25 2.503 . S
La1 O26 2.521 . S
La1 O27 2.628 . S
La1 O28 2.554 . S
La1 O29 2.757 . S
La1 O30 2.470 . S
C2 La0 2.928 . S
C2 C3 1.503 1_554 S
C2 O20 1.261 . S
C2 O21 1.243 . S
C3 C2 1.503 1_556 S
C3 C4 1.394 . S
C3 C8 1.373 . S
C4 C3 1.394 . S
C4 C5 1.380 . S
C4 H32 0.930 . S
C5 C4 1.380 . S
C5 C6 1.376 . S
C5 H33 0.930 . S
C6 C5 1.376 . S
C6 C7 1.370 . S
C7 C6 1.370 . S
C7 C8 1.396 . S
C7 H34 0.929 . S
C8 C3 1.373 . S
C8 C7 1.396 . S
C8 H35 0.929 . S
C9 O22 1.240 . S
C9 O23 1.289 . S
C10 O24 1.258 . S
C10 O25 1.256 . S
C11 La1 2.928 . S
C11 C12 1.503 . S
C11 O26 1.261 . S
C11 O27 1.243 . S
C12 C11 1.503 . S
C12 C13 1.394 . S
C12 C17 1.373 . S
C13 C12 1.394 . S
C13 C14 1.380 . S
C13 H36 0.930 . S
C14 C13 1.380 . S
C14 C15 1.376 . S
C14 H37 0.930 . S
C15 C14 1.376 . S
C15 C16 1.370 . S
C16 C15 1.370 . S
C16 C17 1.396 . S
C16 H38 0.929 . S
C17 C12 1.373 . S
C17 C16 1.396 . S
C17 H39 0.929 . S
C18 O28 1.240 . S
C18 O29 1.289 . S
C19 O30 1.258 . S
C19 O31 1.256 . S
O20 La0 2.521 . S
O20 C2 1.261 . S
O21 La0 2.628 . S
O21 C2 1.243 . S
O22 La0 2.554 . S
O22 C9 1.240 . S
O23 La0 2.757 . S
O23 La1 2.482 . S
O23 C9 1.289 . S
O24 La0 2.470 . S
O24 C10 1.258 . S
O25 La1 2.503 . S
O25 C10 1.256 . S
O26 La1 2.521 . S
O26 C11 1.261 . S
O27 La1 2.628 . S
O27 C11 1.243 . S
O28 La1 2.554 . S
O28 C18 1.240 . S
O29 La0 2.482 . S
O29 La1 2.757 . S
O29 C18 1.289 . S
O30 La1 2.470 . S
O30 C19 1.258 . S
O31 La0 2.503 . S
O31 C19 1.256 . S
H32 C4 0.930 . S
H33 C5 0.930 . S
H34 C7 0.929 . S
H35 C8 0.929 . S
H36 C13 0.930 . S
H37 C14 0.930 . S
H38 C16 0.929 . S
H39 C17 0.929 . S
La40 C42 2.928 . S
La40 O60 2.521 . S
La40 O61 2.628 . S
La40 O62 2.554 . S
La40 O63 2.757 . S
La40 O64 2.470 . S
La40 O69 2.482 . S
La40 O71 2.503 . S
La41 C51 2.928 . S
La41 O63 2.482 . S
La41 O65 2.503 . S
La41 O66 2.521 . S
La41 O67 2.628 . S
La41 O68 2.554 . S
La41 O69 2.757 . S
La41 O70 2.470 . S
C42 La40 2.928 . S
C42 C43 1.503 . S
C42 O60 1.261 . S
C42 O61 1.243 . S
C43 C42 1.503 . S
C43 C44 1.394 . S
C43 C48 1.373 . S
C44 C43 1.394 . S
C44 C45 1.380 . S
C44 H72 0.930 . S
C45 C44 1.380 . S
C45 C46 1.376 . S
C45 H73 0.930 . S
C46 C45 1.376 . S
C46 C47 1.370 . S
C47 C46 1.370 . S
C47 C48 1.396 . S
C47 H74 0.929 . S
C48 C43 1.373 . S
C48 C47 1.396 . S
C48 H75 0.929 . S
C49 O62 1.240 . S
C49 O63 1.289 . S
C50 O64 1.258 . S
C50 O65 1.256 . S
C51 La41 2.928 . S
C51 C52 1.503 . S
C51 O66 1.261 . S
C51 O67 1.243 . S
C52 C51 1.503 . S
C52 C53 1.394 . S
C52 C57 1.373 . S
C53 C52 1.394 . S
C53 C54 1.380 . S
C53 H76 0.930 . S
C54 C53 1.380 . S
C54 C55 1.376 . S
C54 H77 0.930 . S
C55 C54 1.376 . S
C55 C56 1.370 . S
C56 C55 1.370 . S
C56 C57 1.396 . S
C56 H78 0.929 . S
C57 C52 1.373 . S
C57 C56 1.396 . S
C57 H79 0.929 . S
C58 O68 1.240 . S
C58 O69 1.289 . S
C59 O70 1.258 . S
C59 O71 1.256 . S
O60 La40 2.521 . S
O60 C42 1.261 . S
O61 La40 2.628 . S
O61 C42 1.243 . S
O62 La40 2.554 . S
O62 C49 1.240 . S
O63 La40 2.757 . S
O63 La41 2.482 . S
O63 C49 1.289 . S
O64 La40 2.470 . S
O64 C50 1.258 . S
O65 La41 2.503 . S
O65 C50 1.256 . S
O66 La41 2.521 . S
O66 C51 1.261 . S
O67 La41 2.628 . S
O67 C51 1.243 . S
O68 La41 2.554 . S
O68 C58 1.240 . S
O69 La40 2.482 . S
O69 La41 2.757 . S
O69 C58 1.289 . S
O70 La41 2.470 . S
O70 C59 1.258 . S
O71 La40 2.503 . S
O71 C59 1.256 . S
H72 C44 0.930 . S
H73 C45 0.930 . S
H74 C47 0.929 . S
H75 C48 0.929 . S
H76 C53 0.930 . S
H77 C54 0.930 . S
H78 C56 0.929 . S
H79 C57 0.929 . S
La80 C82 2.928 . S
La80 O100 2.521 . S
La80 O101 2.628 . S
La80 O102 2.554 . S
La80 O103 2.757 . S
La80 O104 2.470 . S
La80 O109 2.482 . S
La80 O111 2.503 . S
La81 C91 2.928 1_556 S
La81 O103 2.482 . S
La81 O105 2.503 . S
La81 O106 2.521 1_556 S
La81 O107 2.628 1_556 S
La81 O108 2.554 . S
La81 O109 2.757 . S
La81 O110 2.470 . S
C82 La80 2.928 . S
C82 C83 1.503 . S
C82 O100 1.261 . S
C82 O101 1.243 . S
C83 C82 1.503 . S
C83 C84 1.394 . S
C83 C88 1.373 . S
C84 C83 1.394 . S
C84 C85 1.380 . S
C84 H112 0.930 . S
C85 C84 1.380 . S
C85 C86 1.376 . S
C85 H113 0.930 . S
C86 C85 1.376 . S
C86 C87 1.370 . S
C87 C86 1.370 . S
C87 C88 1.396 . S
C87 H114 0.929 . S
C88 C83 1.373 . S
C88 C87 1.396 . S
C88 H115 0.929 . S
C89 O102 1.240 . S
C89 O103 1.289 . S
C90 O104 1.258 . S
C90 O105 1.256 . S
C91 La81 2.928 1_554 S
C91 C92 1.503 . S
C91 O106 1.261 . S
C91 O107 1.243 . S
C92 C91 1.503 . S
C92 C93 1.394 . S
C92 C97 1.373 . S
C93 C92 1.394 . S
C93 C94 1.380 . S
C93 H116 0.930 . S
C94 C93 1.380 . S
C94 C95 1.376 . S
C94 H117 0.930 . S
C95 C94 1.376 . S
C95 C96 1.370 . S
C96 C95 1.370 . S
C96 C97 1.396 . S
C96 H118 0.929 . S
C97 C92 1.373 . S
C97 C96 1.396 . S
C97 H119 0.929 . S
C98 O108 1.240 . S
C98 O109 1.289 . S
C99 O110 1.258 . S
C99 O111 1.256 . S
O100 La80 2.521 . S
O100 C82 1.261 . S
O101 La80 2.628 . S
O101 C82 1.243 . S
O102 La80 2.554 . S
O102 C89 1.240 . S
O103 La80 2.757 . S
O103 La81 2.482 . S
O103 C89 1.289 . S
O104 La80 2.470 . S
O104 C90 1.258 . S
O105 La81 2.503 . S
O105 C90 1.256 . S
O106 La81 2.521 1_554 S
O106 C91 1.261 . S
O107 La81 2.628 1_554 S
O107 C91 1.243 . S
O108 La81 2.554 . S
O108 C98 1.240 . S
O109 La80 2.482 . S
O109 La81 2.757 . S
O109 C98 1.289 . S
O110 La81 2.470 . S
O110 C99 1.258 . S
O111 La80 2.503 . S
O111 C99 1.256 . S
H112 C84 0.930 . S
H113 C85 0.930 . S
H114 C87 0.929 . S
H115 C88 0.929 . S
H116 C93 0.930 . S
H117 C94 0.930 . S
H118 C96 0.929 . S
H119 C97 0.929 . S
La120 C122 2.928 . S
La120 O140 2.521 . S
La120 O141 2.628 . S
La120 O142 2.554 . S
La120 O143 2.757 . S
La120 O144 2.470 . S
La120 O149 2.482 . S
La120 O151 2.503 . S
La121 C131 2.928 1_554 S
La121 O143 2.482 . S
La121 O145 2.503 . S
La121 O146 2.521 1_554 S
La121 O147 2.628 1_554 S
La121 O148 2.554 . S
La121 O149 2.757 . S
La121 O150 2.470 1_554 S
C122 La120 2.928 . S
C122 C123 1.503 . S
C122 O140 1.261 . S
C122 O141 1.243 . S
C123 C122 1.503 . S
C123 C124 1.394 . S
C123 C128 1.373 . S
C124 C123 1.394 . S
C124 C125 1.380 . S
C124 H152 0.930 . S
C125 C124 1.380 . S
C125 C126 1.376 . S
C125 H153 0.930 . S
C126 C125 1.376 . S
C126 C127 1.370 . S
C127 C126 1.370 . S
C127 C128 1.396 . S
C127 H154 0.929 . S
C128 C123 1.373 . S
C128 C127 1.396 . S
C128 H155 0.929 . S
C129 O142 1.240 . S
C129 O143 1.289 . S
C130 O144 1.258 . S
C130 O145 1.256 . S
C131 La121 2.928 1_556 S
C131 C132 1.503 . S
C131 O146 1.261 . S
C131 O147 1.243 . S
C132 C131 1.503 . S
C132 C133 1.394 . S
C132 C137 1.373 . S
C133 C132 1.394 . S
C133 C134 1.380 . S
C133 H156 0.930 . S
C134 C133 1.380 . S
C134 C135 1.376 . S
C134 H157 0.930 . S
C135 C134 1.376 . S
C135 C136 1.370 . S
C136 C135 1.370 . S
C136 C137 1.396 . S
C136 H158 0.929 . S
C137 C132 1.373 . S
C137 C136 1.396 . S
C137 H159 0.929 . S
C138 O148 1.240 . S
C138 O149 1.289 . S
C139 O150 1.259 . S
C139 O151 1.251 1_556 S
O140 La120 2.521 . S
O140 C122 1.261 . S
O141 La120 2.628 . S
O141 C122 1.243 . S
O142 La120 2.554 . S
O142 C129 1.240 . S
O143 La120 2.757 . S
O143 La121 2.482 . S
O143 C129 1.289 . S
O144 La120 2.470 . S
O144 C130 1.258 . S
O145 La121 2.503 . S
O145 C130 1.256 . S
O146 La121 2.521 1_556 S
O146 C131 1.261 . S
O147 La121 2.628 1_556 S
O147 C131 1.243 . S
O148 La121 2.554 . S
O148 C138 1.240 . S
O149 La120 2.482 . S
O149 La121 2.757 . S
O149 C138 1.289 . S
O150 La121 2.470 1_556 S
O150 C139 1.259 . S
O151 La120 2.503 . S
O151 C139 1.251 1_554 S
H152 C124 0.930 . S
H153 C125 0.930 . S
H154 C127 0.929 . S
H155 C128 0.929 . S
H156 C133 0.930 . S
H157 C134 0.930 . S
H158 C136 0.929 . S
H159 C137 0.929 . S
La160 C162 2.928 . S
La160 O180 2.521 . S
La160 O181 2.628 . S
La160 O182 2.554 . S
La160 O183 2.757 . S
La160 O184 2.470 . S
La160 O189 2.482 . S
La160 O191 2.503 . S
La161 C171 2.928 . S
La161 O183 2.482 . S
La161 O185 2.503 . S
La161 O186 2.521 . S
La161 O187 2.628 . S
La161 O188 2.554 . S
La161 O189 2.757 . S
La161 O190 2.470 . S
C162 La160 2.928 . S
C162 C163 1.503 . S
C162 O180 1.261 . S
C162 O181 1.243 . S
C163 C162 1.503 . S
C163 C164 1.394 . S
C163 C168 1.373 . S
C164 C163 1.394 . S
C164 C165 1.380 . S
C164 H192 0.930 . S
C165 C164 1.380 . S
C165 C166 1.376 . S
C165 H193 0.930 . S
C166 C165 1.376 . S
C166 C167 1.370 . S
C167 C166 1.370 . S
C167 C168 1.396 . S
C167 H194 0.929 . S
C168 C163 1.373 . S
C168 C167 1.396 . S
C168 H195 0.929 . S
C169 O182 1.240 . S
C169 O183 1.289 . S
C170 O184 1.258 . S
C170 O185 1.256 . S
C171 La161 2.928 . S
C171 C172 1.503 . S
C171 O186 1.261 . S
C171 O187 1.243 . S
C172 C171 1.503 . S
C172 C173 1.394 . S
C172 C177 1.373 . S
C173 C172 1.394 . S
C173 C174 1.380 . S
C173 H196 0.930 . S
C174 C173 1.380 . S
C174 C175 1.376 . S
C174 H197 0.930 . S
C175 C174 1.376 . S
C175 C176 1.370 . S
C176 C175 1.370 . S
C176 C177 1.396 . S
C176 H198 0.929 . S
C177 C172 1.373 . S
C177 C176 1.396 . S
C177 H199 0.929 . S
C178 O188 1.240 . S
C178 O189 1.289 . S
C179 O190 1.258 . S
C179 O191 1.256 . S
O180 La160 2.521 . S
O180 C162 1.261 . S
O181 La160 2.628 . S
O181 C162 1.243 . S
O182 La160 2.554 . S
O182 C169 1.240 . S
O183 La160 2.757 . S
O183 La161 2.482 . S
O183 C169 1.289 . S
O184 La160 2.470 . S
O184 C170 1.258 . S
O185 La161 2.503 . S
O185 C170 1.256 . S
O186 La161 2.521 . S
O186 C171 1.261 . S
O187 La161 2.628 . S
O187 C171 1.243 . S
O188 La161 2.554 . S
O188 C178 1.240 . S
O189 La160 2.482 . S
O189 La161 2.757 . S
O189 C178 1.289 . S
O190 La161 2.470 . S
O190 C179 1.258 . S
O191 La160 2.503 . S
O191 C179 1.256 . S
H192 C164 0.930 . S
H193 C165 0.930 . S
H194 C167 0.929 . S
H195 C168 0.929 . S
H196 C173 0.930 . S
H197 C174 0.930 . S
H198 C176 0.929 . S
H199 C177 0.929 . S
La200 C202 2.928 . S
La200 O220 2.521 . S
La200 O221 2.628 . S
La200 O222 2.554 . S
La200 O223 2.757 . S
La200 O224 2.470 . S
La200 O229 2.482 . S
La200 O231 2.503 . S
La201 C211 2.928 . S
La201 O223 2.482 . S
La201 O225 2.503 . S
La201 O226 2.521 . S
La201 O227 2.628 . S
La201 O228 2.554 . S
La201 O229 2.757 . S
La201 O230 2.470 . S
C202 La200 2.928 . S
C202 C203 1.503 . S
C202 O220 1.261 . S
C202 O221 1.243 . S
C203 C202 1.503 . S
C203 C204 1.394 . S
C203 C208 1.373 . S
C204 C203 1.394 . S
C204 C205 1.380 1_556 S
C204 H232 0.930 . S
C205 C204 1.380 1_554 S
C205 C206 1.376 . S
C205 H233 0.930 . S
C206 C205 1.376 . S
C206 C207 1.370 . S
C207 C206 1.370 . S
C207 C208 1.396 1_554 S
C207 H234 0.929 . S
C208 C203 1.373 . S
C208 C207 1.396 1_556 S
C208 H235 0.929 . S
C209 O222 1.240 . S
C209 O223 1.289 . S
C210 O224 1.258 . S
C210 O225 1.256 . S
C211 La201 2.928 . S
C211 C212 1.503 . S
C211 O226 1.261 . S
C211 O227 1.243 . S
C212 C211 1.503 . S
C212 C213 1.394 . S
C212 C217 1.373 . S
C213 C212 1.394 . S
C213 C214 1.380 . S
C213 H236 0.930 . S
C214 C213 1.380 . S
C214 C215 1.376 . S
C214 H237 0.930 . S
C215 C214 1.376 . S
C215 C216 1.370 . S
C216 C215 1.370 . S
C216 C217 1.396 . S
C216 H238 0.929 . S
C217 C212 1.373 . S
C217 C216 1.396 . S
C217 H239 0.929 . S
C218 O228 1.240 . S
C218 O229 1.289 . S
C219 O230 1.258 . S
C219 O231 1.256 . S
O220 La200 2.521 . S
O220 C202 1.261 . S
O221 La200 2.628 . S
O221 C202 1.243 . S
O222 La200 2.554 . S
O222 C209 1.240 . S
O223 La200 2.757 . S
O223 La201 2.482 . S
O223 C209 1.289 . S
O224 La200 2.470 . S
O224 C210 1.258 . S
O225 La201 2.503 . S
O225 C210 1.256 . S
O226 La201 2.521 . S
O226 C211 1.261 . S
O227 La201 2.628 . S
O227 C211 1.243 . S
O228 La201 2.554 . S
O228 C218 1.240 . S
O229 La200 2.482 . S
O229 La201 2.757 . S
O229 C218 1.289 . S
O230 La201 2.470 . S
O230 C219 1.258 . S
O231 La200 2.503 . S
O231 C219 1.256 . S
H232 C204 0.930 . S
H233 C205 0.930 . S
H234 C207 0.929 . S
H235 C208 0.929 . S
H236 C213 0.930 . S
H237 C214 0.930 . S
H238 C216 0.929 . S
H239 C217 0.929 . S
H240 C246 0.930 . S
H241 C250 0.930 . S
H242 C255 0.929 . S
H243 C253 0.929 . S
H244 C248 0.929 . S
H245 C254 0.929 . S
C246 H240 0.930 . S
C246 C247 1.367 . S
C246 C254 1.378 . S
C247 C246 1.367 . S
C247 C255 1.433 . S
C248 H244 0.929 . S
C248 C250 1.378 . S
C248 C252 1.350 . S
C249 C252 1.463 1_556 S
C249 C254 1.350 . S
C249 N257 1.427 . S
C250 H241 0.930 . S
C250 C248 1.378 . S
C250 C251 1.367 . S
C251 C250 1.367 . S
C251 C253 1.433 . S
C252 C248 1.350 . S
C252 C249 1.463 1_554 S
C252 N256 1.427 . S
C253 H243 0.929 . S
C253 C251 1.433 . S
C253 N256 1.384 . S
C254 H245 0.929 . S
C254 C246 1.378 . S
C254 C249 1.350 . S
C255 H242 0.929 . S
C255 C247 1.433 . S
C255 N257 1.384 . S
N256 C252 1.427 . S
N256 C253 1.384 . S
N257 C249 1.427 . S
N257 C255 1.384 . S
H258 C264 0.930 . S
H259 C268 0.930 . S
H260 C273 0.929 . S
H261 C271 0.929 . S
H262 C266 0.929 . S
H263 C272 0.929 . S
C264 H258 0.930 . S
C264 C265 1.367 . S
C264 C272 1.378 . S
C265 C264 1.367 . S
C265 C273 1.433 . S
C266 H262 0.929 . S
C266 C268 1.378 . S
C266 C270 1.350 . S
C267 C270 1.463 1_455 S
C267 C272 1.350 . S
C267 N275 1.427 . S
C268 H259 0.930 . S
C268 C266 1.378 . S
C268 C269 1.367 . S
C269 C268 1.367 . S
C269 C271 1.433 . S
C270 C266 1.350 . S
C270 C267 1.463 1_655 S
C270 N274 1.427 . S
C271 H261 0.929 . S
C271 C269 1.433 . S
C271 N274 1.384 . S
C272 H263 0.929 . S
C272 C264 1.378 . S
C272 C267 1.350 . S
C273 H260 0.929 . S
C273 C265 1.433 . S
C273 N275 1.384 . S
N274 C270 1.427 . S
N274 C271 1.384 . S
N275 C267 1.427 . S
N275 C273 1.384 . S
H276 C282 0.930 . S
H277 C286 0.930 . S
H278 C291 0.929 . S
H279 C289 0.929 . S
H280 C284 0.929 . S
H281 C290 0.929 . S
C282 H276 0.930 . S
C282 C283 1.367 . S
C282 C290 1.378 . S
C283 C282 1.367 . S
C283 C291 1.433 1_545 S
C284 H280 0.929 . S
C284 C286 1.378 . S
C284 C288 1.350 . S
C285 C288 1.463 1_545 S
C285 C290 1.350 . S
C285 N293 1.427 1_545 S
C286 H277 0.930 . S
C286 C284 1.378 . S
C286 C287 1.367 . S
C287 C286 1.367 . S
C287 C289 1.433 1_565 S
C288 C284 1.350 . S
C288 C285 1.463 1_565 S
C288 N292 1.427 1_565 S
C289 H279 0.929 . S
C289 C287 1.433 1_545 S
C289 N292 1.384 . S
C290 H281 0.929 . S
C290 C282 1.378 . S
C290 C285 1.350 . S
C291 H278 0.929 . S
C291 C283 1.433 1_565 S
C291 N293 1.384 . S
N292 C288 1.427 1_545 S
N292 C289 1.384 . S
N293 C285 1.427 1_565 S
N293 C291 1.384 . S
H294 C300 0.930 . S
H295 C304 0.930 . S
H296 C309 0.929 1_554 S
H297 C307 0.929 . S
H298 C302 0.929 . S
H299 C308 0.929 . S
C300 H294 0.930 . S
C300 C301 1.367 . S
C300 C308 1.378 . S
C301 C300 1.367 . S
C301 C309 1.433 . S
C302 H298 0.929 . S
C302 C304 1.378 . S
C302 C306 1.350 1_554 S
C303 C306 1.463 . S
C303 C308 1.350 . S
C303 N311 1.413 1_556 S
C304 H295 0.930 . S
C304 C302 1.378 . S
C304 C305 1.367 . S
C305 C304 1.367 . S
C305 C307 1.433 1_554 S
C306 C302 1.350 1_556 S
C306 C303 1.463 . S
C306 N310 1.427 . S
C307 H297 0.929 . S
C307 C305 1.433 1_556 S
C307 N310 1.384 . S
C308 H299 0.929 . S
C308 C300 1.378 . S
C308 C303 1.350 . S
C309 H296 0.929 1_556 S
C309 C301 1.433 . S
C309 N311 1.377 1_556 S
N310 C306 1.427 . S
N310 C307 1.384 . S
N311 C303 1.413 1_554 S
N311 C309 1.377 1_554 S
H312 C318 0.930 . S
H313 C322 0.930 . S
H314 C327 0.929 . S
H315 C325 0.929 . S
H316 C320 0.929 1_455 S
H317 C326 0.929 1_655 S
C318 H312 0.930 . S
C318 C319 1.367 . S
C318 C326 1.378 . S
C319 C318 1.367 . S
C319 C327 1.433 . S
C320 H316 0.929 1_655 S
C320 C322 1.378 . S
C320 C324 1.350 . S
C321 C324 1.463 1_455 S
C321 C326 1.350 . S
C321 N329 1.427 . S
C322 H313 0.930 . S
C322 C320 1.378 . S
C322 C323 1.367 . S
C323 C322 1.367 . S
C323 C325 1.433 . S
C324 C320 1.350 . S
C324 C321 1.463 1_655 S
C324 N328 1.427 . S
C325 H315 0.929 . S
C325 C323 1.433 . S
C325 N328 1.384 . S
C326 H317 0.929 1_455 S
C326 C318 1.378 . S
C326 C321 1.350 . S
C327 H314 0.929 . S
C327 C319 1.433 . S
C327 N329 1.384 . S
N328 C324 1.427 . S
N328 C325 1.384 . S
N329 C321 1.427 . S
N329 C327 1.384 . S
H330 C336 0.930 . S
H331 C340 0.930 . S
H332 C345 0.929 . S
H333 C343 0.929 . S
H334 C338 0.929 . S
H335 C344 0.929 . S
C336 H330 0.930 . S
C336 C337 1.367 . S
C336 C344 1.378 . S
C337 C336 1.367 . S
C337 C345 1.433 . S
C338 H334 0.929 . S
C338 C340 1.378 . S
C338 C342 1.350 . S
C339 C342 1.463 1_545 S
C339 C344 1.350 . S
C339 N347 1.427 . S
C340 H331 0.930 . S
C340 C338 1.378 . S
C340 C341 1.367 . S
C341 C340 1.367 . S
C341 C343 1.433 . S
C342 C338 1.350 . S
C342 C339 1.463 1_565 S
C342 N346 1.427 . S
C343 H333 0.929 . S
C343 C341 1.433 . S
C343 N346 1.384 . S
C344 H335 0.929 . S
C344 C336 1.378 . S
C344 C339 1.350 . S
C345 H332 0.929 . S
C345 C337 1.433 . S
C345 N347 1.384 . S
N346 C342 1.427 . S
N346 C343 1.384 . S
N347 C339 1.427 . S
N347 C345 1.384 . S
H348 C354 0.930 . S
H349 C358 0.930 . S
H350 C363 0.929 . S
H351 C361 0.929 . S
H352 C356 0.929 . S
H353 C362 0.929 . S
C354 H348 0.930 . S
C354 C355 1.367 . S
C354 C362 1.378 . S
C355 C354 1.367 . S
C355 C363 1.433 . S
C356 H352 0.929 . S
C356 C358 1.378 . S
C356 C360 1.350 . S
C357 C360 1.463 . S
C357 C362 1.350 . S
C357 N365 1.427 . S
C358 H349 0.930 . S
C358 C356 1.378 . S
C358 C359 1.367 . S
C359 C358 1.367 . S
C359 C361 1.433 . S
C360 C356 1.350 . S
C360 C357 1.463 . S
C360 N364 1.427 . S
C361 H351 0.929 . S
C361 C359 1.433 . S
C361 N364 1.384 . S
C362 H353 0.929 . S
C362 C354 1.378 . S
C362 C357 1.350 . S
C363 H350 0.929 . S
C363 C355 1.433 . S
C363 N365 1.384 . S
N364 C360 1.427 . S
N364 C361 1.384 . S
N365 C357 1.427 . S
N365 C363 1.384 . S
H366 C372 0.930 . S
H367 C376 0.930 . S
H368 C381 0.929 . S
H369 C379 0.929 . S
H370 C374 0.929 . S
H371 C380 0.929 . S
C372 H366 0.930 . S
C372 C373 1.367 . S
C372 C380 1.378 1_554 S
C373 C372 1.367 . S
C373 C381 1.433 1_554 S
C374 H370 0.929 . S
C374 C376 1.378 . S
C374 C378 1.350 . S
C375 C378 1.463 . S
C375 C380 1.350 . S
C375 N383 1.427 . S
C376 H367 0.930 . S
C376 C374 1.378 . S
C376 C377 1.367 . S
C377 C376 1.367 . S
C377 C379 1.433 . S
C378 C374 1.350 . S
C378 C375 1.463 . S
C378 N382 1.427 . S
C379 H369 0.929 . S
C379 C377 1.433 . S
C379 N382 1.384 . S
C380 H371 0.929 . S
C380 C372 1.378 1_556 S
C380 C375 1.350 . S
C381 H368 0.929 . S
C381 C373 1.433 1_556 S
C381 N383 1.384 . S
N382 C378 1.427 . S
N382 C379 1.384 . S
N383 C375 1.427 . S
N383 C381 1.384 . S
H384 C390 0.930 . S
H385 C394 0.930 . S
H386 C399 0.929 . S
H387 C397 0.929 . S
H388 C392 0.929 . S
H389 C398 0.929 . S
C390 H384 0.930 . S
C390 C391 1.367 . S
C390 C398 1.378 . S
C391 C390 1.367 . S
C391 C399 1.433 . S
C392 H388 0.929 . S
C392 C394 1.378 . S
C392 C396 1.350 . S
C393 C396 1.463 . S
C393 C398 1.350 . S
C393 N401 1.427 . S
C394 H385 0.930 . S
C394 C392 1.378 . S
C394 C395 1.367 . S
C395 C394 1.367 . S
C395 C397 1.433 . S
C396 C392 1.350 . S
C396 C393 1.463 . S
C396 N400 1.427 . S
C397 H387 0.929 . S
C397 C395 1.433 . S
C397 N400 1.384 . S
C398 H389 0.929 . S
C398 C390 1.378 . S
C398 C393 1.350 . S
C399 H386 0.929 . S
C399 C391 1.433 . S
C399 N401 1.384 . S
N400 C396 1.427 . S
N400 C397 1.384 . S
N401 C393 1.427 . S
N401 C399 1.384 . S
H402 C408 0.930 . S
H403 C412 0.930 . S
H404 C417 0.929 . S
H405 C415 0.929 . S
H406 C410 0.929 . S
H407 C416 0.929 . S
C408 H402 0.930 . S
C408 C409 1.367 . S
C408 C416 1.378 . S
C409 C408 1.367 . S
C409 C417 1.433 . S
C410 H406 0.929 . S
C410 C412 1.378 . S
C410 C414 1.350 . S
C411 C414 1.463 . S
C411 C416 1.350 . S
C411 N419 1.427 . S
C412 H403 0.930 . S
C412 C410 1.378 . S
C412 C413 1.367 . S
C413 C412 1.367 . S
C413 C415 1.433 . S
C414 C410 1.350 . S
C414 C411 1.463 . S
C414 N418 1.427 . S
C415 H405 0.929 . S
C415 C413 1.433 . S
C415 N418 1.384 . S
C416 H407 0.929 . S
C416 C408 1.378 . S
C416 C411 1.350 . S
C417 H404 0.929 . S
C417 C409 1.433 . S
C417 N419 1.384 . S
N418 C414 1.427 . S
N418 C415 1.384 . S
N419 C411 1.427 . S
N419 C417 1.384 . S
H420 C426 0.930 . S
H421 C430 0.930 . S
H422 C435 0.929 . S
H423 C433 0.929 . S
H424 C428 0.929 . S
H425 C434 0.929 1_554 S
C426 H420 0.930 . S
C426 C427 1.367 . S
C426 C434 1.378 . S
C427 C426 1.367 . S
C427 C435 1.433 . S
C428 H424 0.929 . S
C428 C430 1.378 . S
C428 C432 1.350 . S
C429 C432 1.463 . S
C429 C434 1.350 1_554 S
C429 N437 1.427 . S
C430 H421 0.930 . S
C430 C428 1.378 . S
C430 C431 1.367 . S
C431 C430 1.367 . S
C431 C433 1.433 . S
C432 C428 1.350 . S
C432 C429 1.463 . S
C432 N436 1.427 . S
C433 H423 0.929 . S
C433 C431 1.433 . S
C433 N436 1.384 . S
C434 H425 0.929 1_556 S
C434 C426 1.378 . S
C434 C429 1.350 1_556 S
C435 H422 0.929 . S
C435 C427 1.433 . S
C435 N437 1.384 1_556 S
N436 C432 1.427 . S
N436 C433 1.384 . S
N437 C429 1.427 . S
N437 C435 1.384 1_554 S
H438 C444 0.930 . S
H439 C448 0.930 . S
H440 C453 0.929 . S
H441 C451 0.929 . S
H442 C446 0.929 . S
H443 C452 0.929 . S
C444 H438 0.930 . S
C444 C445 1.367 . S
C444 C452 1.378 . S
C445 C444 1.367 . S
C445 C453 1.433 . S
C446 H442 0.929 . S
C446 C448 1.378 . S
C446 C450 1.350 . S
C447 C450 1.463 . S
C447 C452 1.350 . S
C447 N455 1.427 . S
C448 H439 0.930 . S
C448 C446 1.378 . S
C448 C449 1.367 . S
C449 C448 1.367 . S
C449 C451 1.433 . S
C450 C446 1.350 . S
C450 C447 1.463 . S
C450 N454 1.427 . S
C451 H441 0.929 . S
C451 C449 1.433 . S
C451 N454 1.384 . S
C452 H443 0.929 . S
C452 C444 1.378 . S
C452 C447 1.350 . S
C453 H440 0.929 . S
C453 C445 1.433 . S
C453 N455 1.384 . S
N454 C450 1.427 . S
N454 C451 1.384 . S
N455 C447 1.427 . S
N455 C453 1.384 . S
H456 C462 0.930 . S
H457 C466 0.930 . S
H458 C471 0.929 . S
H459 C469 0.929 . S
H460 C464 0.929 . S
H461 C470 0.929 . S
C462 H456 0.930 . S
C462 C463 1.367 . S
C462 C470 1.378 . S
C463 C462 1.367 . S
C463 C471 1.433 . S
C464 H460 0.929 . S
C464 C466 1.378 . S
C464 C468 1.350 . S
C465 C468 1.463 . S
C465 C470 1.350 . S
C465 N473 1.427 . S
C466 H457 0.930 . S
C466 C464 1.378 . S
C466 C467 1.367 . S
C467 C466 1.367 . S
C467 C469 1.433 . S
C468 C464 1.350 . S
C468 C465 1.463 . S
C468 N472 1.427 . S
C469 H459 0.929 . S
C469 C467 1.433 . S
C469 N472 1.384 . S
C470 H461 0.929 . S
C470 C462 1.378 . S
C470 C465 1.350 . S
C471 H458 0.929 . S
C471 C463 1.433 . S
C471 N473 1.384 . S
N472 C468 1.427 . S
N472 C469 1.384 . S
N473 C465 1.427 . S
N473 C471 1.384 . S
H474 C480 0.930 . S
H475 C484 0.930 . S
H476 C489 0.929 . S
H477 C487 0.929 . S
H478 C482 0.929 . S
H479 C488 0.929 . S
C480 H474 0.930 . S
C480 C481 1.367 . S
C480 C488 1.378 . S
C481 C480 1.367 . S
C481 C489 1.433 . S
C482 H478 0.929 . S
C482 C484 1.378 . S
C482 C486 1.350 . S
C483 C486 1.463 . S
C483 C488 1.350 . S
C483 N491 1.427 . S
C484 H475 0.930 . S
C484 C482 1.378 . S
C484 C485 1.367 . S
C485 C484 1.367 . S
C485 C487 1.433 . S
C486 C482 1.350 . S
C486 C483 1.463 . S
C486 N490 1.427 . S
C487 H477 0.929 . S
C487 C485 1.433 . S
C487 N490 1.384 . S
C488 H479 0.929 . S
C488 C480 1.378 . S
C488 C483 1.350 . S
C489 H476 0.929 . S
C489 C481 1.433 . S
C489 N491 1.384 . S
N490 C486 1.427 . S
N490 C487 1.384 . S
N491 C483 1.427 . S
N491 C489 1.384 . S
H492 C498 0.930 . S
H493 C502 0.930 . S
H494 C507 0.929 . S
H495 C505 0.929 . S
H496 C500 0.929 1_556 S
H497 C506 0.929 . S
C498 H492 0.930 . S
C498 C499 1.367 . S
C498 C506 1.378 . S
C499 C498 1.367 . S
C499 C507 1.433 . S
C500 H496 0.929 1_554 S
C500 C502 1.378 1_554 S
C500 C504 1.350 . S
C501 C504 1.463 . S
C501 C506 1.350 . S
C501 N509 1.427 . S
C502 H493 0.930 . S
C502 C500 1.378 1_556 S
C502 C503 1.367 . S
C503 C502 1.367 . S
C503 C505 1.433 1_556 S
C504 C500 1.350 . S
C504 C501 1.463 . S
C504 N508 1.427 . S
C505 H495 0.929 . S
C505 C503 1.433 1_554 S
C505 N508 1.384 . S
C506 H497 0.929 . S
C506 C498 1.378 . S
C506 C501 1.350 . S
C507 H494 0.929 . S
C507 C499 1.433 . S
C507 N509 1.384 . S
N508 C504 1.427 . S
N508 C505 1.384 . S
N509 C501 1.427 . S
N509 C507 1.384 . S
H510 C516 0.930 . S
H511 C520 0.930 . S
H512 C525 0.929 . S
H513 C523 0.929 . S
H514 C518 0.929 . S
H515 C524 0.929 . S
C516 H510 0.930 . S
C516 C517 1.367 . S
C516 C524 1.378 . S
C517 C516 1.367 . S
C517 C525 1.433 . S
C518 H514 0.929 . S
C518 C520 1.378 . S
C518 C522 1.350 . S
C519 C522 1.463 . S
C519 C524 1.350 . S
C519 N527 1.427 . S
C520 H511 0.930 . S
C520 C518 1.378 . S
C520 C521 1.367 . S
C521 C520 1.367 . S
C521 C523 1.433 . S
C522 C518 1.350 . S
C522 C519 1.463 . S
C522 N526 1.427 . S
C523 H513 0.929 . S
C523 C521 1.433 . S
C523 N526 1.384 . S
C524 H515 0.929 . S
C524 C516 1.378 . S
C524 C519 1.350 . S
C525 H512 0.929 . S
C525 C517 1.433 . S
C525 N527 1.384 . S
N526 C522 1.427 . S
N526 C523 1.384 . S
N527 C519 1.427 . S
N527 C525 1.384 . S
H528 C534 0.930 . S
H529 C538 0.930 . S
H530 C543 0.929 . S
H531 C541 0.929 . S
H532 C536 0.929 . S
H533 C542 0.929 . S
C534 H528 0.930 . S
C534 C535 1.367 . S
C534 C542 1.378 . S
C535 C534 1.367 . S
C535 C543 1.433 . S
C536 H532 0.929 . S
C536 C538 1.378 . S
C536 C540 1.350 . S
C537 C540 1.463 . S
C537 C542 1.350 . S
C537 N545 1.427 . S
C538 H529 0.930 . S
C538 C536 1.378 . S
C538 C539 1.367 . S
C539 C538 1.367 . S
C539 C541 1.433 . S
C540 C536 1.350 . S
C540 C537 1.463 . S
C540 N544 1.427 . S
C541 H531 0.929 . S
C541 C539 1.433 . S
C541 N544 1.384 . S
C542 H533 0.929 . S
C542 C534 1.378 . S
C542 C537 1.350 . S
C543 H530 0.929 . S
C543 C535 1.433 . S
C543 N545 1.384 . S
N544 C540 1.427 . S
N544 C541 1.384 . S
N545 C537 1.427 . S
N545 C543 1.384 . S
H546 C552 0.930 . S
H547 C556 0.930 . S
H548 C561 0.929 . S
H549 C559 0.929 . S
H550 C554 0.929 . S
H551 C560 0.929 . S
C552 H546 0.930 . S
C552 C553 1.367 . S
C552 C560 1.378 . S
C553 C552 1.367 . S
C553 C561 1.433 . S
C554 H550 0.929 . S
C554 C556 1.378 . S
C554 C558 1.350 . S
C555 C558 1.463 . S
C555 C560 1.350 . S
C555 N563 1.427 . S
C556 H547 0.930 . S
C556 C554 1.378 . S
C556 C557 1.367 . S
C557 C556 1.367 . S
C557 C559 1.433 . S
C558 C554 1.350 . S
C558 C555 1.463 . S
C558 N562 1.427 . S
C559 H549 0.929 . S
C559 C557 1.433 . S
C559 N562 1.384 . S
C560 H551 0.929 . S
C560 C552 1.378 . S
C560 C555 1.350 . S
C561 H548 0.929 . S
C561 C553 1.433 . S
C561 N563 1.384 . S
N562 C558 1.427 . S
N562 C559 1.384 . S
N563 C555 1.427 . S
N563 C561 1.384 . S
C247 C210 1.775 . S
C251 C10 1.775 . S
C265 C9 1.404 . S
C269 C49 1.388 . S
C283 C50 1.767 . S
C287 C90 1.767 . S
C301 C89 1.390 . S
C305 C129 1.386 . S
C319 C170 1.773 . S
C323 C130 1.771 . S
C337 C209 1.389 . S
C341 C169 1.387 . S
C355 C6 1.298 . S
C359 C15 1.298 . S
C373 C55 1.288 . S
C377 C46 1.288 . S
C391 C86 1.296 . S
C395 C95 1.296 . S
C409 C135 1.291 . S
C413 C126 1.291 . S
C427 C175 1.286 . S
C431 C166 1.286 . S
C445 C215 1.299 . S
C449 C206 1.299 . S
C463 C19 1.834 . S
C467 C178 1.853 . S
C481 C58 1.853 . S
C485 C219 1.835 . S
C499 C18 1.853 . S
C503 C99 1.833 . S
C517 C59 1.837 . S
C521 C138 1.853 . S
C535 C179 1.834 . S
C539 C98 1.853 . S
C553 C139 1.836 . S
C557 C218 1.853 . S
