# Generated by pormake.
# Topology usf, (4)-cn, num edge types: 1
# Building blocks:
#     Node 0, Type 0, BuildingBlock: ESEHIV_clean_sbu_0, # of connection points: 4
#     Node 1, Type 0, BuildingBlock: ESEHIV_clean_sbu_0, # of connection points: 4
#     Node 2, Type 0, BuildingBlock: ESEHIV_clean_sbu_0, # of connection points: 4
#     Node 3, Type 0, BuildingBlock: ESEHIV_clean_sbu_0, # of connection points: 4
#     Node 4, Type 0, BuildingBlock: ESEHIV_clean_sbu_0, # of connection points: 4
#     Node 5, Type 0, BuildingBlock: ESEHIV_clean_sbu_0, # of connection points: 4
#     Node 6, Type 0, BuildingBlock: ESEHIV_clean_sbu_0, # of connection points: 4
#     Node 7, Type 0, BuildingBlock: ESEHIV_clean_sbu_0, # of connection points: 4
#     Node 8, Type 0, BuildingBlock: ESEHIV_clean_sbu_0, # of connection points: 4
#     Node 9, Type 0, BuildingBlock: ESEHIV_clean_sbu_0, # of connection points: 4
#     Node 10, Type 0, BuildingBlock: ESEHIV_clean_sbu_0, # of connection points: 4
#     Node 11, Type 0, BuildingBlock: ESEHIV_clean_sbu_0, # of connection points: 4
#     Node 12, Type 0, BuildingBlock: ESEHIV_clean_sbu_0, # of connection points: 4
#     Node 13, Type 0, BuildingBlock: ESEHIV_clean_sbu_0, # of connection points: 4
#     Node 14, Type 0, BuildingBlock: ESEHIV_clean_sbu_0, # of connection points: 4
#     Node 15, Type 0, BuildingBlock: ESEHIV_clean_sbu_0, # of connection points: 4
#     Node 16, Type 0, BuildingBlock: ESEHIV_clean_sbu_0, # of connection points: 4
#     Node 17, Type 0, BuildingBlock: ESEHIV_clean_sbu_0, # of connection points: 4
#     Edge 18, Type (0, 0), BuildingBlock: EZIPEK_clean_linker_0, # of connection points: 2
#     Edge 19, Type (0, 0), BuildingBlock: EZIPEK_clean_linker_0, # of connection points: 2
#     Edge 20, Type (0, 0), BuildingBlock: EZIPEK_clean_linker_0, # of connection points: 2
#     Edge 21, Type (0, 0), BuildingBlock: EZIPEK_clean_linker_0, # of connection points: 2
#     Edge 22, Type (0, 0), BuildingBlock: EZIPEK_clean_linker_0, # of connection points: 2
#     Edge 23, Type (0, 0), BuildingBlock: EZIPEK_clean_linker_0, # of connection points: 2
#     Edge 24, Type (0, 0), BuildingBlock: EZIPEK_clean_linker_0, # of connection points: 2
#     Edge 25, Type (0, 0), BuildingBlock: EZIPEK_clean_linker_0, # of connection points: 2
#     Edge 26, Type (0, 0), BuildingBlock: EZIPEK_clean_linker_0, # of connection points: 2
#     Edge 27, Type (0, 0), BuildingBlock: EZIPEK_clean_linker_0, # of connection points: 2
#     Edge 28, Type (0, 0), BuildingBlock: EZIPEK_clean_linker_0, # of connection points: 2
#     Edge 29, Type (0, 0), BuildingBlock: EZIPEK_clean_linker_0, # of connection points: 2
#     Edge 30, Type (0, 0), BuildingBlock: EZIPEK_clean_linker_0, # of connection points: 2
#     Edge 31, Type (0, 0), BuildingBlock: EZIPEK_clean_linker_0, # of connection points: 2
#     Edge 32, Type (0, 0), BuildingBlock: EZIPEK_clean_linker_0, # of connection points: 2
#     Edge 33, Type (0, 0), BuildingBlock: EZIPEK_clean_linker_0, # of connection points: 2
#     Edge 34, Type (0, 0), BuildingBlock: EZIPEK_clean_linker_0, # of connection points: 2
#     Edge 35, Type (0, 0), BuildingBlock: EZIPEK_clean_linker_0, # of connection points: 2
#     Edge 36, Type (0, 0), BuildingBlock: EZIPEK_clean_linker_0, # of connection points: 2
#     Edge 37, Type (0, 0), BuildingBlock: EZIPEK_clean_linker_0, # of connection points: 2
#     Edge 38, Type (0, 0), BuildingBlock: EZIPEK_clean_linker_0, # of connection points: 2
#     Edge 39, Type (0, 0), BuildingBlock: EZIPEK_clean_linker_0, # of connection points: 2
#     Edge 40, Type (0, 0), BuildingBlock: EZIPEK_clean_linker_0, # of connection points: 2
#     Edge 41, Type (0, 0), BuildingBlock: EZIPEK_clean_linker_0, # of connection points: 2
#     Edge 42, Type (0, 0), BuildingBlock: EZIPEK_clean_linker_0, # of connection points: 2
#     Edge 43, Type (0, 0), BuildingBlock: EZIPEK_clean_linker_0, # of connection points: 2
#     Edge 44, Type (0, 0), BuildingBlock: EZIPEK_clean_linker_0, # of connection points: 2
#     Edge 45, Type (0, 0), BuildingBlock: EZIPEK_clean_linker_0, # of connection points: 2
#     Edge 46, Type (0, 0), BuildingBlock: EZIPEK_clean_linker_0, # of connection points: 2
#     Edge 47, Type (0, 0), BuildingBlock: EZIPEK_clean_linker_0, # of connection points: 2
#     Edge 48, Type (0, 0), BuildingBlock: EZIPEK_clean_linker_0, # of connection points: 2
#     Edge 49, Type (0, 0), BuildingBlock: EZIPEK_clean_linker_0, # of connection points: 2
#     Edge 50, Type (0, 0), BuildingBlock: EZIPEK_clean_linker_0, # of connection points: 2
#     Edge 51, Type (0, 0), BuildingBlock: EZIPEK_clean_linker_0, # of connection points: 2
#     Edge 52, Type (0, 0), BuildingBlock: EZIPEK_clean_linker_0, # of connection points: 2
#     Edge 53, Type (0, 0), BuildingBlock: EZIPEK_clean_linker_0, # of connection points: 2
# Relax obj value: 0.033
# Max RMSD: 0.181
# Mean RMSD: 0.123
data_MOF--net-usf--node1-ESEHIV_clean_sbu_0--edge1-EZIPEK_clean_linker_0
_symmetry_space_group_name_H-M    P1
_symmetry_Int_Tables_number       1
_symmetry_cell_setting            triclinic
loop_
_symmetry_equiv_pos_as_xyz
'x, y, z'
_cell_length_a     33.423461
_cell_length_b     36.532345
_cell_length_c     25.205178
_cell_angle_alpha  90.236246
_cell_angle_beta   90.392378
_cell_angle_gamma 117.379
loop_
_atom_site_label
_atom_site_type_symbol
_atom_site_fract_x
_atom_site_fract_y
_atom_site_fract_z
_atom_type_partial_charge
Cu0 Cu 0.9645 0.49153 1.00875 0.0
N1 N 0.93068 0.46783 0.94722 0.0
N2 N 0.90999 0.46239 0.86213 0.0
C3 C 0.9405 0.48549 0.89915 0.0
C4 C 0.87953 0.42889 0.88767 0.0
C5 C 0.89252 0.43225 0.94038 0.0
O6 O 0.02803 0.51083 0.9896 0.0
C7 C 0.90743 0.52786 0.03 0.0
O8 O 0.88093 0.50006 0.99564 0.0
H9 H 0.96917 0.51499 0.89153 0.0
H10 H 0.87501 0.41069 0.97159 0.0
N11 N 0.95087 0.454 0.06405 0.0
N12 N 0.9394 0.43289 0.14803 0.0
C13 C 0.95378 0.46539 0.11531 0.0
C14 C 0.93423 0.41267 0.06428 0.0
C15 C 0.92687 0.39947 0.1164 0.0
C16 C 0.03651 0.48388 0.96673 0.0
O17 O 1.00346 0.44666 0.95871 0.0
H18 H 0.96492 0.49688 0.1284 0.0
H19 H 0.92697 0.39346 0.02918 0.0
O20 O 0.94745 0.53258 0.03748 0.0
H21 H 0.85023 0.40391 0.86942 0.0
H22 H 0.91256 0.36792 0.12995 0.0
Cu23 Cu 0.5419 0.49253 0.03464 0.0
N24 N 0.48601 0.44537 0.04352 0.0
N25 N 0.43759 0.3823 0.07148 0.0
C26 C 0.48109 0.40881 0.06182 0.0
C27 C 0.41405 0.40268 0.0585 0.0
C28 C 0.44398 0.44158 0.0412 0.0
O29 O 0.57363 0.49547 0.10556 0.0
C30 C 0.53748 0.47723 0.92106 0.0
O31 O 0.49451 0.46321 0.93159 0.0
H32 H 0.50902 0.40233 0.06991 0.0
H33 H 0.4358 0.46584 0.02965 0.0
N34 N 0.5369 0.54186 0.02946 0.0
N35 N 0.55547 0.60713 1.0072 0.0
C36 C 0.56557 0.57547 1.00223 0.0
C37 C 0.50771 0.55288 0.05247 0.0
C38 C 0.51918 0.59318 0.03889 0.0
C39 C 0.55236 0.49416 0.149 0.0
O40 O 0.5122 0.49205 0.14492 0.0
H41 H 0.59406 0.57709 0.98028 0.0
H42 H 0.48063 0.53341 0.0783 0.0
O43 O 0.56537 0.48871 0.96096 0.0
H44 H 0.37803 0.39075 0.06297 0.0
H45 H 0.50289 0.61118 0.05221 0.0
Cu46 Cu 0.51113 0.9745 0.06391 0.0
N47 N 0.52549 1.00493 1.00113 0.0
N48 N 0.52779 0.01522 0.91356 0.0
C49 C 0.50319 0.99241 0.95448 0.0
C50 C 0.56677 0.04364 0.93529 0.0
C51 C 0.56518 0.03735 0.9893 0.0
O52 O 0.46777 0.91735 0.04288 0.0
C53 C 0.59286 0.01757 0.12037 0.0
O54 O 0.57705 0.04438 0.12394 0.0
H55 H 0.47133 0.96494 0.94974 0.0
H56 H 0.59249 0.05332 1.01722 0.0
N57 N 0.48219 0.99374 0.11157 0.0
N58 N 0.45042 0.99992 0.18636 0.0
C59 C 0.47591 0.98455 0.16348 0.0
C60 C 0.46026 0.01606 0.10141 0.0
C61 C 0.4401 0.01951 0.1475 0.0
C62 C 0.42706 0.91007 0.03335 0.0
O63 O 0.41579 0.93958 0.04138 0.0
H64 H 0.48907 0.96631 0.18392 0.0
H65 H 0.45792 0.02781 0.06282 0.0
O66 O 0.56891 0.983 0.09688 0.0
H67 H 0.59537 0.06562 0.91325 0.0
H68 H 0.4195 0.03506 0.15226 0.0
Cu69 Cu 0.49202 0.01561 0.54296 0.0
N70 N 0.44701 0.99304 0.49091 0.0
N71 N 0.41989 0.98402 0.40816 0.0
C72 C 0.45672 1.00159 0.4394 0.0
C73 C 0.38506 0.96406 0.44122 0.0
C74 C 0.40201 0.96944 0.4926 0.0
O75 O 0.54571 0.01518 0.50977 0.0
C76 C 0.45658 0.06682 0.57988 0.0
O77 O 0.42141 0.03047 0.5838 0.0
H78 H 0.49042 0.02065 0.42497 0.0
H79 H 0.38289 0.95736 0.52842 0.0
N80 N 0.48236 0.98406 0.60475 0.0
N81 N 0.49215 0.97826 0.69194 0.0
C82 C 0.47748 0.9957 0.65428 0.0
C83 C 0.49901 0.95711 0.61193 0.0
C84 C 0.50558 0.95393 0.66512 0.0
C85 C 0.53915 0.98138 0.48668 0.0
O86 O 0.49788 0.95115 0.48342 0.0
H87 H 0.46813 0.01979 0.66252 0.0
H88 H 0.51061 0.94405 0.58091 0.0
O89 O 0.49366 0.06893 0.56282 0.0
H90 H 0.35023 0.94673 0.42896 0.0
H91 H 0.52204 0.93728 0.68257 0.0
Cu92 Cu 0.99021 0.50558 0.51083 0.0
N93 N 0.95628 0.51427 0.56323 0.0
N94 N 0.92662 0.50653 0.64395 0.0
C95 C 0.96237 0.51078 0.61537 0.0
C96 C 0.89706 0.5083 0.60867 0.0
C97 C 0.91559 0.51325 0.55871 0.0
O98 O 1.0031 0.46213 0.54051 0.0
C99 C 0.04946 0.59383 0.50717 0.0
O100 O 0.0337 0.59469 0.5545 0.0
H101 H 0.99055 0.50756 0.63156 0.0
H102 H 0.89897 0.51256 0.52147 0.0
N103 N 0.95279 0.47935 0.45281 0.0
N104 N 0.93097 0.45452 0.37088 0.0
C105 C 0.96455 0.48253 0.40134 0.0
C106 C 0.91055 0.4482 0.45475 0.0
C107 C 0.8969 0.43288 0.40412 0.0
C108 C 0.03117 0.46252 0.57533 0.0
O109 O 0.06463 0.4978 0.59066 0.0
H110 H 0.99755 0.50368 0.3868 0.0
H111 H 0.89173 0.43634 0.49082 0.0
O112 O 0.03834 0.55884 0.4849 0.0
H113 H 0.86343 0.50349 0.61796 0.0
H114 H 0.86507 0.40717 0.39267 0.0
Cu115 Cu 0.56401 0.51265 0.53282 0.0
N116 N 0.57631 0.49248 0.46673 0.0
N117 N 0.58187 0.48598 0.37725 0.0
C118 C 0.5658 0.5008 0.41712 0.0
C119 C 0.6034 0.46764 0.40295 0.0
C120 C 0.60009 0.47175 0.45745 0.0
O121 O 0.50259 0.5062 0.51618 0.0
C122 C 0.62544 0.59569 0.57714 0.0
O123 O 0.59252 0.59324 0.60743 0.0
H124 H 0.54719 0.51802 0.41031 0.0
H125 H 0.61488 0.46101 0.48809 0.0
N126 N 0.56223 0.48535 0.59994 0.0
N127 N 0.56013 0.47376 0.68941 0.0
C128 C 0.56146 0.4998 0.64994 0.0
C129 C 0.56116 0.44853 0.60855 0.0
C130 C 0.55958 0.4413 0.66284 0.0
C131 C 0.46786 0.47166 0.52562 0.0
O132 O 0.47307 0.44535 0.55664 0.0
H133 H 0.56081 0.52858 0.65763 0.0
H134 H 0.56106 0.42799 0.57746 0.0
O135 O 0.61737 0.56797 0.54159 0.0
H136 H 0.6207 0.45253 0.38363 0.0
H137 H 0.55795 0.41398 0.68139 0.0
Cu138 Cu 0.70551 0.87456 0.37639 0.0
N139 N 0.74271 0.90265 0.31865 0.0
N140 N 0.77416 0.91671 0.23823 0.0
C141 C 0.74389 0.88781 0.26987 0.0
C142 C 0.79339 0.9514 0.26788 0.0
C143 C 0.77356 0.94272 0.31729 0.0
O144 O 0.68176 0.81436 0.36571 0.0
C145 C 0.64448 0.89945 0.43004 0.0
O146 O 0.6464 0.87757 0.47019 0.0
H147 H 0.72374 0.85652 0.25703 0.0
H148 H 0.78093 0.96425 0.34993 0.0
N149 N 0.7417 0.8848 0.43747 0.0
N150 N 0.76349 0.87665 0.51877 0.0
C151 C 0.72857 0.86572 0.48459 0.0
C152 C 0.7867 0.90796 0.44196 0.0
C153 C 0.8002 0.9031 0.49215 0.0
C154 C 0.6725 0.79572 0.32096 0.0
O155 O 0.65161 0.80654 0.2847 0.0
H156 H 0.69442 0.84319 0.49329 0.0
H157 H 0.8085 0.92615 0.41055 0.0
O158 O 0.66383 0.89892 0.38667 0.0
H159 H 0.81915 0.9809 0.2544 0.0
H160 H 0.83427 0.91761 0.5079 0.0
Cu161 Cu 0.21167 0.83507 0.37474 0.0
N162 N 0.2292 0.82621 0.30768 0.0
N163 N 0.23261 0.83132 0.21946 0.0
C164 C 0.21202 0.83442 0.26355 0.0
C165 C 0.26391 0.82017 0.23602 0.0
C166 C 0.26172 0.817 0.29084 0.0
O167 O 0.2048 0.88546 0.36325 0.0
C168 C 0.16828 0.75496 0.41673 0.0
O169 O 0.21072 0.76316 0.42203 0.0
H170 H 0.18585 0.84397 0.26384 0.0
H171 H 0.28322 0.80985 0.31641 0.0
N172 N 0.25547 0.84915 0.42807 0.0
N173 N 0.28428 0.86657 0.50982 0.0
C174 C 0.24775 0.85592 0.47854 0.0
C175 C 0.29852 0.85562 0.42729 0.0
C176 C 0.31651 0.86652 0.47796 0.0
C177 C 0.24031 0.91572 0.34487 0.0
O178 O 0.27693 0.91114 0.34054 0.0
H179 H 0.21595 0.85352 0.49204 0.0
H180 H 0.31574 0.85311 0.39247 0.0
O181 O 0.15947 0.78277 0.39675 0.0
H182 H 0.28742 0.81595 0.21053 0.0
H183 H 0.35055 0.8742 0.49037 0.0
Cu184 Cu 0.20177 0.37428 0.37746 0.0
N185 N 0.21678 0.4055 0.31504 0.0
N186 N 0.22598 0.41237 0.22698 0.0
C187 C 0.19785 0.39184 0.26678 0.0
C188 C 0.2637 0.44087 0.25095 0.0
C189 C 0.25789 0.43665 0.30509 0.0
O190 O 0.15495 0.31773 0.3561 0.0
C191 C 0.28379 0.41401 0.43959 0.0
O192 O 0.26394 0.43548 0.45679 0.0
H193 H 0.16634 0.36448 0.26048 0.0
H194 H 0.28379 0.45199 0.3348 0.0
N195 N 0.17371 0.39217 0.42829 0.0
N196 N 0.14236 0.39334 0.50607 0.0
C197 C 0.16757 0.37958 0.47906 0.0
C198 C 0.15157 0.4148 0.42278 0.0
C199 C 0.13179 0.41523 0.47064 0.0
C200 C 0.11676 0.3149 0.34101 0.0
O201 O 0.11136 0.34826 0.3414 0.0
H202 H 0.18062 0.35987 0.49567 0.0
H203 H 0.14878 0.42882 0.38616 0.0
O204 O 0.26157 0.3835 0.40773 0.0
H205 H 0.29455 0.46087 0.23079 0.0
H206 H 0.11129 0.43038 0.47872 0.0
Cu207 Cu 0.20304 0.39595 0.85542 0.0
N208 N 0.15659 0.36941 0.80577 0.0
N209 N 0.12345 0.36005 0.72619 0.0
C210 C 0.16114 0.38172 0.75502 0.0
C211 C 0.09346 0.33314 0.76032 0.0
C212 C 0.11421 0.33876 0.80955 0.0
O213 O 0.25715 0.39921 0.8194 0.0
C214 C 0.16008 0.44019 0.88954 0.0
O215 O 0.12816 0.40202 0.89216 0.0
H216 H 0.19164 0.40653 0.73952 0.0
H217 H 0.09928 0.32227 0.84556 0.0
N218 N 0.19776 0.36754 0.91933 0.0
N219 N 0.20558 0.36478 1.00752 0.0
C220 C 0.18994 0.37928 0.96745 0.0
C221 C 0.21796 0.34378 0.92985 0.0
C222 C 0.22299 0.3422 0.98394 0.0
C223 C 0.25163 0.36526 0.79795 0.0
O224 O 0.21212 0.3327 0.8011 0.0
H225 H 0.17758 0.40158 0.97323 0.0
H226 H 0.23238 0.33186 0.90052 0.0
O227 O 0.19924 0.44693 0.87383 0.0
H228 H 0.05924 0.31114 0.75062 0.0
H229 H 0.24101 0.32811 1.00424 0.0
Cu230 Cu 0.72001 0.84454 0.88051 0.0
N231 N 0.7413 0.82855 0.82074 0.0
N232 N 0.75573 0.82728 0.73459 0.0
C233 C 0.73082 0.83441 0.77096 0.0
C234 C 0.78239 0.81539 0.76223 0.0
C235 C 0.77319 0.81595 0.81563 0.0
O236 O 0.71582 0.89451 0.85816 0.0
C237 C 0.67171 0.76696 0.92281 0.0
O238 O 0.71303 0.7717 0.92418 0.0
H239 H 0.70733 0.84618 0.76166 0.0
H240 H 0.79024 0.80975 0.84832 0.0
N241 N 0.76063 0.86067 0.93793 0.0
N242 N 0.78622 0.88036 1.02057 0.0
C243 C 0.75027 0.86685 0.98759 0.0
C244 C 0.80483 0.87077 0.93963 0.0
C245 C 0.82076 0.88302 0.99076 0.0
C246 C 0.75336 0.92413 0.84349 0.0
O247 O 0.78986 0.9193 0.84657 0.0
H248 H 0.71718 0.86232 0.99915 0.0
H249 H 0.82442 0.87038 0.9059 0.0
O250 O 0.66496 0.79628 0.9044 0.0
H251 H 0.8083 0.80911 0.74527 0.0
H252 H 0.85503 0.89373 1.0048 0.0
Cu253 Cu 0.20459 0.83587 0.86293 0.0
N254 N 0.23615 0.87274 0.80878 0.0
N255 N 0.26659 0.89267 0.72876 0.0
C256 C 0.23694 0.86126 0.75813 0.0
C257 C 0.28548 0.92529 0.76207 0.0
C258 C 0.26638 0.91298 0.81144 0.0
O259 O 0.14486 0.79643 0.8344 0.0
C260 C 0.28075 0.84239 0.91319 0.0
O261 O 0.28768 0.88073 0.91178 0.0
H262 H 0.21744 0.83003 0.74352 0.0
H263 H 0.27526 0.93172 0.84707 0.0
N264 N 0.19503 0.86098 0.92271 0.0
N265 N 0.19849 0.87033 1.01046 0.0
C266 C 0.19148 0.84362 0.97044 0.0
C267 C 0.20296 0.90001 0.93271 0.0
C268 C 0.20488 0.90584 0.98725 0.0
C269 C 0.12222 0.81175 0.81031 0.0
O270 O 0.14008 0.8519 0.80497 0.0
H271 H 0.18779 0.81289 0.97565 0.0
H272 H 0.2107 0.92347 0.90293 0.0
O273 O 0.24499 0.81434 0.89127 0.0
H274 H 0.31173 0.9555 0.75161 0.0
H275 H 0.21398 0.93463 1.00802 0.0
Cu276 Cu 0.3209 0.19473 0.68906 0.0
N277 N 0.28174 0.17598 0.63054 0.0
N278 N 0.25238 0.16814 0.54917 0.0
C279 C 0.28793 0.19109 0.58094 0.0
C280 C 0.22279 0.13766 0.5796 0.0
C281 C 0.2413 0.14217 0.62943 0.0
O282 O 0.36648 0.17507 0.67841 0.0
C283 C 0.31172 0.26663 0.69928 0.0
O284 O 0.27146 0.24119 0.6811 0.0
H285 H 0.31826 0.21742 0.5679 0.0
H286 H 0.22688 0.12108 0.66194 0.0
N287 N 0.286 0.16962 0.74858 0.0
N288 N 0.26406 0.1466 0.83035 0.0
C289 C 0.29824 0.15983 0.7954 0.0
C290 C 0.24314 0.16291 0.7551 0.0
C291 C 0.22948 0.14849 0.80526 0.0
C292 C 0.3918 0.18408 0.63772 0.0
O293 O 0.39314 0.2127 0.60536 0.0
H294 H 0.33192 0.16441 0.80463 0.0
H295 H 0.22362 0.16979 0.72617 0.0
O296 O 0.34183 0.25424 0.70124 0.0
H297 H 0.19138 0.11256 0.56571 0.0
H298 H 0.19755 0.14204 0.82311 0.0
Cu299 Cu 0.86074 0.20175 0.7196 0.0
N300 N 0.85568 0.14821 0.72507 0.0
N301 N 0.82784 0.08227 0.75037 0.0
C302 C 0.82354 0.11721 0.75302 0.0
C303 C 0.86359 0.09119 0.71902 0.0
C304 C 0.88062 0.1318 0.70332 0.0
O305 O 0.84339 0.21233 0.79413 0.0
C306 C 0.84833 0.19792 0.60599 0.0
O307 O 0.884 0.19191 0.61033 0.0
H308 H 0.79753 0.12019 0.775 0.0
H309 H 0.90903 0.14793 0.67759 0.0
N310 N 0.91973 0.24366 0.70717 0.0
N311 N 0.97172 0.30311 0.67294 0.0
C312 C 0.92911 0.28196 0.6907 0.0
C313 C 0.95812 0.24082 0.69998 0.0
C314 C 0.99002 0.27728 0.67849 0.0
C315 C 0.86512 0.20832 0.83478 0.0
O316 O 0.8982 0.19928 0.82558 0.0
H317 H 0.90432 0.29323 0.68875 0.0
H318 H 0.96203 0.21348 0.70687 0.0
O319 O 0.83004 0.20228 0.64927 0.0
H320 H 0.87648 0.06987 0.70845 0.0
H321 H 0.02323 0.28358 0.66561 0.0
Cu322 Cu 0.85345 0.69274 0.6785 0.0
N323 N 0.82067 0.6693 0.73939 0.0
N324 N 0.80436 0.6658 0.82534 0.0
C325 C 0.82796 0.69018 0.78542 0.0
C326 C 0.78058 0.62786 0.80384 0.0
C327 C 0.79078 0.63013 0.75038 0.0
O328 O 0.91775 0.71502 0.69886 0.0
C329 C 0.80293 0.73297 0.62651 0.0
O330 O 0.80474 0.76796 0.61112 0.0
H331 H 0.85168 0.72235 0.79035 0.0
H332 H 0.77886 0.60481 0.72221 0.0
N333 N 0.84445 0.65571 0.62358 0.0
N334 N 0.85509 0.64241 0.53992 0.0
C335 C 0.84705 0.66731 0.57277 0.0
C336 C 0.85109 0.62202 0.62309 0.0
C337 C 0.85768 0.61367 0.57115 0.0
C338 C 0.94047 0.74688 0.72761 0.0
O339 O 0.92198 0.7699 0.7432 0.0
H340 H 0.84887 0.69638 0.56084 0.0
H341 H 0.85555 0.60729 0.6582 0.0
O342 O 0.83734 0.73454 0.65151 0.0
H343 H 0.75949 0.60032 0.82573 0.0
H344 H 0.8672 0.59055 0.55791 0.0
Cu345 Cu 0.82137 0.68052 0.19004 0.0
N346 N 0.8401 0.71208 0.12792 0.0
N347 N 0.84229 0.7214 0.04017 0.0
C348 C 0.81633 0.70237 0.08207 0.0
C349 C 0.88356 0.74582 0.06057 0.0
C350 C 0.88206 0.74016 0.1148 0.0
O351 O 0.82142 0.62749 0.17558 0.0
C352 C 0.77168 0.71898 0.22372 0.0
O353 O 0.80853 0.74992 0.20595 0.0
H354 H 0.78181 0.67858 0.07861 0.0
H355 H 0.9106 0.75266 0.1417 0.0
N356 N 0.864 0.70061 0.24478 0.0
N357 N 0.88678 0.69346 0.3259 0.0
C358 C 0.8521 0.6907 0.29564 0.0
C359 C 0.90804 0.71022 0.24296 0.0
C360 C 0.92219 0.70585 0.29306 0.0
C361 C 0.815 0.60944 0.1306 0.0
O362 O 0.79249 0.61708 0.09331 0.0
H363 H 0.81753 0.67711 0.30892 0.0
H364 H 0.92736 0.71558 0.2071 0.0
O365 O 0.76752 0.68251 0.21869 0.0
H366 H 0.91353 0.76299 0.03738 0.0
H367 H 0.95483 0.70843 0.3037 0.0
Cu368 Cu 0.29078 0.1442 0.19947 0.0
N369 N 0.2607 0.16274 0.2452 0.0
N370 N 0.24237 0.17583 0.32511 0.0
C371 C 0.27335 0.17119 0.29617 0.0
C372 C 0.20904 0.17093 0.29092 0.0
C373 C 0.22067 0.16309 0.24113 0.0
O374 O 0.29466 0.09975 0.24025 0.0
C375 C 0.33908 0.22194 0.15788 0.0
O376 O 0.29735 0.21539 0.15078 0.0
H377 H 0.30248 0.16964 0.31283 0.0
H378 H 0.19996 0.15532 0.20565 0.0
N379 N 0.25782 0.12283 0.13725 0.0
N380 N 0.24415 0.11422 0.05051 0.0
C381 C 0.27591 0.12995 0.08866 0.0
C382 C 0.21297 0.10098 0.12961 0.0
C383 C 0.20437 0.09584 0.07568 0.0
C384 C 0.27685 0.06215 0.22461 0.0
O385 O 0.26353 0.05334 0.17498 0.0
H386 H 0.31145 0.14805 0.08119 0.0
H387 H 0.18829 0.0907 0.16088 0.0
O388 O 0.34618 0.19391 0.18 0.0
H389 H 0.17724 0.16979 0.30195 0.0
H390 H 0.17163 0.08144 0.05639 0.0
Cu391 Cu 0.8527 0.18262 0.22271 0.0
N392 N 0.83559 0.20035 0.28796 0.0
N393 N 0.82693 0.2077 0.37663 0.0
C394 C 0.84016 0.18904 0.33845 0.0
C395 C 0.81268 0.23112 0.34879 0.0
C396 C 0.81804 0.22666 0.2949 0.0
O397 O 0.9141 0.18909 0.23911 0.0
C398 C 0.76665 0.1226 0.19708 0.0
O399 O 0.76142 0.15609 0.19751 0.0
H400 H 0.85295 0.16739 0.34714 0.0
H401 H 0.80994 0.24192 0.26305 0.0
N402 N 0.85459 0.2103 0.15584 0.0
N403 N 0.85425 0.22201 0.06667 0.0
C404 C 0.85514 0.19627 0.10541 0.0
C405 C 0.85345 0.24629 0.1481 0.0
C406 C 0.8532 0.25345 0.09401 0.0
C407 C 0.94271 0.22341 0.26 0.0
O408 O 0.93072 0.25261 0.2672 0.0
H409 H 0.85609 0.16759 0.09719 0.0
H410 H 0.85267 0.26613 0.17959 0.0
O411 O 0.80538 0.12568 0.2091 0.0
H412 H 0.79987 0.25071 0.3663 0.0
H413 H 0.85254 0.28004 0.07606 0.0
C414 C 0.95944 0.43023 0.29514 0.0
C415 C 0.93197 0.44733 0.31478 0.0
C416 C 0.90317 0.44665 0.22506 0.0
C417 C 0.93453 0.43432 0.20467 0.0
N418 N 0.99613 0.4186 0.21873 0.0
N419 N 0.88197 0.47684 0.29869 0.0
C420 C 0.96355 0.427 0.23934 0.0
C421 C 0.90483 0.45679 0.27976 0.0
N422 N 0.98047 0.41606 0.33 0.0
N423 N 0.87109 0.44751 0.19205 0.0
H424 H 0.88314 0.4851 0.33855 0.0
H425 H 0.86507 0.48831 0.2744 0.0
H426 H 0.86837 0.43862 0.15228 0.0
H427 H 0.84478 0.45297 0.20498 0.0
H428 H 0.99761 0.39973 0.31842 0.0
H429 H 0.97745 0.41759 0.37102 0.0
H430 H 0.02137 0.41706 0.24158 0.0
H431 H 0.99984 0.41616 0.17801 0.0
C432 C 0.60027 0.52653 0.29208 0.0
C433 C 0.5772 0.48842 0.31929 0.0
C434 C 0.55015 0.45363 0.23183 0.0
C435 C 0.56896 0.49217 0.20507 0.0
N436 N 0.60915 0.56609 0.21123 0.0
N437 N 0.52534 0.41629 0.31495 0.0
C438 C 0.59349 0.52883 0.23574 0.0
C439 C 0.55113 0.45211 0.28889 0.0
N440 N 0.62976 0.56044 0.32001 0.0
N441 N 0.53164 0.41817 0.20231 0.0
H442 H 0.52461 0.41446 0.35625 0.0
H443 H 0.50175 0.38952 0.2962 0.0
H444 H 0.53118 0.41844 0.16097 0.0
H445 H 0.52078 0.3889 0.21818 0.0
H446 H 0.65116 0.58836 0.30249 0.0
H447 H 0.63529 0.55956 0.36067 0.0
H448 H 0.62255 0.59416 0.23153 0.0
H449 H 0.60661 0.56872 0.17027 0.0
C450 C 0.45134 0.0313 0.27399 0.0
C451 C 0.4371 0.99581 0.2412 0.0
C452 C 0.40799 0.95156 0.31892 0.0
C453 C 0.41986 0.987 0.35116 0.0
N454 N 0.44297 0.05955 0.35796 0.0
N455 N 0.39242 0.92258 0.22993 0.0
C456 C 0.43817 0.02656 0.32797 0.0
C457 C 0.41222 0.956 0.26296 0.0
N458 N 0.47985 0.06921 0.25456 0.0
N459 N 0.39576 0.91418 0.34186 0.0
H460 H 0.39409 0.92525 0.18871 0.0
H461 H 0.37067 0.89309 0.24314 0.0
H462 H 0.39448 0.91019 0.38281 0.0
H463 H 0.39093 0.88797 0.32051 0.0
H464 H 0.49491 0.09567 0.27814 0.0
H465 H 0.49198 0.07364 0.21592 0.0
H466 H 0.45283 0.08881 0.34245 0.0
H467 H 0.43219 0.0564 0.39719 0.0
C468 C 0.91388 0.51987 0.73708 0.0
C469 C 0.91829 0.49371 0.6985 0.0
C470 C 0.91787 0.44704 0.76831 0.0
C471 C 0.91072 0.47184 0.8066 0.0
N472 N 0.89298 0.52702 0.82715 0.0
N473 N 0.91345 0.42774 0.67555 0.0
C474 C 0.90604 0.50689 0.79083 0.0
C475 C 0.91693 0.45579 0.71362 0.0
N476 N 0.91902 0.55774 0.72257 0.0
N477 N 0.92754 0.41631 0.78439 0.0
H478 H 0.9107 0.43258 0.63523 0.0
H479 H 0.90869 0.39814 0.68406 0.0
H480 H 0.93001 0.41008 0.82427 0.0
H481 H 0.93702 0.39944 0.75852 0.0
H482 H 0.92067 0.58002 0.74962 0.0
H483 H 0.92511 0.56807 0.68351 0.0
H484 H 0.88505 0.5506 0.81735 0.0
H485 H 0.88613 0.5175 0.86648 0.0
C486 C 0.526 0.48873 0.77067 0.0
C487 C 0.55826 0.47845 0.74759 0.0
C488 C 0.58094 0.46945 0.83942 0.0
C489 C 0.55073 0.48266 0.86218 0.0
N490 N 0.50701 0.51893 0.84602 0.0
N491 N 0.62489 0.47016 0.7623 0.0
C492 C 0.52722 0.49664 0.82661 0.0
C493 C 0.58822 0.47207 0.78276 0.0
N494 N 0.49216 0.48861 0.73998 0.0
N495 N 0.60145 0.4528 0.87116 0.0
H496 H 0.6325 0.47418 0.72202 0.0
H497 H 0.65019 0.4693 0.78584 0.0
H498 H 0.59714 0.45035 0.91211 0.0
H499 H 0.61985 0.43856 0.85627 0.0
H500 H 0.46537 0.49214 0.75574 0.0
H501 H 0.4879 0.4801 0.70004 0.0
H502 H 0.49274 0.53283 0.82157 0.0
H503 H 0.50967 0.5279 0.88578 0.0
C504 C 0.50727 0.96639 0.83757 0.0
C505 C 0.51828 1.00618 0.85769 0.0
C506 C 0.51932 0.02953 0.76675 0.0
C507 C 0.49947 0.98801 0.7481 0.0
N508 N 0.46528 0.91578 0.77035 0.0
N509 N 0.5265 0.0742 0.84121 0.0
C510 C 0.49049 0.95602 0.785 0.0
C511 C 0.52155 0.03734 0.82221 0.0
N512 N 0.51566 0.93946 0.86711 0.0
N513 N 0.53973 0.06152 0.73249 0.0
H514 H 0.52688 0.08035 0.88172 0.0
H515 H 0.52552 0.09667 0.81662 0.0
H516 H 0.54461 0.05723 0.69265 0.0
H517 H 0.5573 0.09209 0.74526 0.0
H518 H 0.51247 0.91173 0.85157 0.0
H519 H 0.53125 0.94716 0.90432 0.0
H520 H 0.45711 0.8915 0.79665 0.0
H521 H 0.44866 0.90712 0.73377 0.0
C522 C 0.74221 0.80902 0.63917 0.0
C523 C 0.7598 0.83935 0.67973 0.0
C524 C 0.77517 0.89355 0.61444 0.0
C525 C 0.76183 0.86375 0.57312 0.0
N526 N 0.73916 0.79388 0.54485 0.0
N527 N 0.80111 0.9107 0.70542 0.0
C528 C 0.74701 0.82155 0.58511 0.0
C529 C 0.77873 0.88175 0.66712 0.0
N530 N 0.72009 0.76838 0.65263 0.0
N531 N 0.78231 0.93268 0.60364 0.0
H532 H 0.80539 0.90286 0.744 0.0
H533 H 0.819 0.94213 0.69772 0.0
H534 H 0.77798 0.94178 0.56577 0.0
H535 H 0.78792 0.95476 0.63293 0.0
H536 H 0.7026 0.74472 0.62541 0.0
H537 H 0.71691 0.75864 0.69194 0.0
H538 H 0.73145 0.76318 0.5509 0.0
H539 H 0.74415 0.80254 0.50512 0.0
C540 C 0.29348 0.86212 0.65867 0.0
C541 C 0.2775 0.89039 0.67395 0.0
C542 C 0.27946 0.91065 0.58116 0.0
C543 C 0.2874 0.87734 0.56533 0.0
N544 N 0.29714 0.81807 0.58882 0.0
N545 N 0.2502 0.93859 0.64913 0.0
C546 C 0.29366 0.85239 0.60404 0.0
C547 C 0.2696 0.91431 0.63508 0.0
N548 N 0.30926 0.84525 0.69648 0.0
N549 N 0.28183 0.93894 0.54446 0.0
H550 H 0.24099 0.94083 0.68796 0.0
H551 H 0.23956 0.95356 0.6216 0.0
H552 H 0.29005 0.93727 0.50496 0.0
H553 H 0.2803 0.96599 0.55428 0.0
H554 H 0.32498 0.82714 0.68751 0.0
H555 H 0.31084 0.85304 0.7366 0.0
H556 H 0.29708 0.79639 0.61558 0.0
H557 H 0.29619 0.80941 0.54921 0.0
C558 C 0.11023 0.34276 0.57817 0.0
C559 C 0.1286 0.38412 0.56081 0.0
C560 C 0.12648 0.40545 0.65256 0.0
C561 C 0.11825 0.36593 0.67042 0.0
N562 N 0.10865 0.29793 0.64916 0.0
N563 N 0.15931 0.45638 0.58387 0.0
C564 C 0.11137 0.33458 0.63296 0.0
C565 C 0.13746 0.41601 0.5985 0.0
N566 N 0.09105 0.31135 0.54221 0.0
N567 N 0.124 0.43279 0.68765 0.0
H568 H 0.17077 0.46569 0.54557 0.0
H569 H 0.17007 0.4807 0.61106 0.0
H570 H 0.1145 0.42475 0.72693 0.0
H571 H 0.12611 0.46103 0.67635 0.0
H572 H 0.0741 0.28046 0.55313 0.0
H573 H 0.08751 0.3169 0.50233 0.0
H574 H 0.10799 0.27567 0.62265 0.0
H575 H 0.11074 0.29122 0.6889 0.0
C576 C 0.77311 0.93293 0.14282 0.0
C577 C 0.78208 0.91078 0.18334 0.0
C578 C 0.79324 0.86778 0.11582 0.0
C579 C 0.78753 0.89193 0.07556 0.0
N580 N 0.78241 0.95296 0.05036 0.0
N581 N 0.80973 0.86303 0.20869 0.0
C582 C 0.78074 0.9263 0.08906 0.0
C583 C 0.79496 0.87995 0.16982 0.0
N584 N 0.75471 0.95834 0.15529 0.0
N585 N 0.79504 0.83231 0.10246 0.0
H586 H 0.81289 0.8726 0.24823 0.0
H587 H 0.82289 0.84267 0.2011 0.0
H588 H 0.79322 0.82244 0.06322 0.0
H589 H 0.79453 0.81108 0.13025 0.0
H590 H 0.74342 0.97216 0.12686 0.0
H591 H 0.74662 0.9625 0.19394 0.0
H592 H 0.78168 0.98067 0.05817 0.0
H593 H 0.78918 0.9492 1.01096 0.0
C594 C 0.17177 0.8312 0.09322 0.0
C595 C 0.20665 0.86324 0.06483 0.0
C596 C 0.25757 0.87676 0.14107 0.0
C597 C 0.22444 0.84153 0.16664 0.0
N598 N 0.15213 0.78155 0.16439 0.0
N599 N 0.28594 0.9102 0.05721 0.0
C600 C 0.18199 0.81773 0.14196 0.0
C601 C 0.25051 0.88451 0.08752 0.0
N602 N 0.12872 0.81424 0.07373 0.0
N603 N 0.29509 0.90352 0.16851 0.0
H604 H 0.28265 0.91506 1.01708 0.0
H605 H 0.31928 0.92325 0.0705 0.0
H606 H 0.30028 0.89938 0.20841 0.0
H607 H 0.31855 0.93169 0.15328 0.0
H608 H 0.10091 0.79324 0.09465 0.0
H609 H 0.12044 0.82418 0.03848 0.0
H610 H 0.1222 0.76078 0.14599 0.0
H611 H 0.15933 0.77057 0.19946 0.0
C612 C 0.19782 0.34667 0.10298 0.0
C613 C 0.21055 0.37695 0.0629 0.0
C614 C 0.22863 0.43006 0.13166 0.0
C615 C 0.22097 0.40044 0.17155 0.0
N616 N 0.21354 0.33314 0.1923 0.0
N617 N 0.25281 0.44916 0.04152 0.0
C618 C 0.2098 0.35933 0.15653 0.0
C619 C 0.23005 0.41926 0.07777 0.0
N620 N 0.17345 0.30592 0.09025 0.0
N621 N 0.23377 0.4682 0.14499 0.0
H622 H 0.25867 0.44246 1.00299 0.0
H623 H 0.27055 0.4803 0.05171 0.0
H624 H 0.23134 0.47656 0.184 0.0
H625 H 0.23576 0.48972 0.11672 0.0
H626 H 0.16062 0.28292 0.11884 0.0
H627 H 0.16207 0.29571 0.05174 0.0
H628 H 0.20919 0.30389 0.18183 0.0
H629 H 0.22622 0.34242 0.23061 0.0
C630 C 0.24933 0.09155 0.95976 0.0
C631 C 0.25127 0.12265 0.99489 0.0
C632 C 0.27196 0.17178 0.922 0.0
C633 C 0.26548 0.13963 0.88612 0.0
N634 N 0.24594 0.06885 0.86825 0.0
N635 N 0.25959 0.19082 1.01037 0.0
C636 C 0.25391 0.09947 0.90435 0.0
C637 C 0.26167 0.16254 0.97632 0.0
N638 N 0.24385 0.0549 0.97987 0.0
N639 N 0.28796 0.21109 0.90362 0.0
H640 H 0.25101 0.18448 0.05016 0.0
H641 H 0.26281 0.21931 0.99862 0.0
H642 H 0.29507 0.21828 0.86367 0.0
H643 H 0.29753 0.23687 0.92804 0.0
H644 H 0.24591 0.03194 0.95726 0.0
H645 H 0.24001 0.04857 1.02039 0.0
H646 H 0.23308 0.03787 0.87802 0.0
H647 H 0.25035 0.07449 0.82761 0.0
C648 C 0.82036 0.18471 0.92211 0.0
C649 C 0.85694 0.21524 0.89301 0.0
C650 C 0.8929 0.24785 0.97932 0.0
C651 C 0.85552 0.21855 1.00828 0.0
N652 N 0.78025 0.16291 1.00608 0.0
N653 N 0.92406 0.28025 0.89472 0.0
C654 C 0.8183 0.18803 0.97918 0.0
C655 C 0.8919 0.2481 0.92212 0.0
N656 N 0.78818 0.1516 0.89535 0.0
N657 N 0.9306 0.27439 1.00675 0.0
H658 H 0.924 0.28159 0.85336 0.0
H659 H 0.94805 0.30724 0.91267 0.0
H660 H 0.93284 0.27415 0.04803 0.0
H661 H 0.96092 0.29385 0.98881 0.0
H662 H 0.76379 0.12556 0.9139 0.0
H663 H 0.78732 0.14947 0.85408 0.0
H664 H 0.75013 0.1426 0.98765 0.0
H665 H 0.77787 0.16467 0.04717 0.0
C666 C 0.84594 0.67803 0.96655 0.0
C667 C 0.83221 0.70698 0.98599 0.0
C668 C 0.79486 0.70412 0.90093 0.0
C669 C 0.81128 0.67744 0.88056 0.0
N670 N 0.85973 0.64542 0.88986 0.0
N671 N 0.79866 0.7516 0.97115 0.0
C672 C 0.83869 0.66598 0.91233 0.0
C673 C 0.80791 0.72109 0.95297 0.0
N674 N 0.86509 0.66141 1.00038 0.0
N675 N 0.76614 0.71244 0.87049 0.0
H676 H 0.80721 0.7637 1.00954 0.0
H677 H 0.78598 0.76702 0.94719 0.0
H678 H 0.75623 0.70021 0.83235 0.0
H679 H 0.74972 0.72881 0.88416 0.0
H680 H 0.87119 0.63677 0.99031 0.0
H681 H 0.87156 0.67019 0.04005 0.0
H682 H 0.8842 0.64024 0.90936 0.0
H683 H 0.85571 0.63666 0.84999 0.0
C684 C 0.24687 0.20784 0.41295 0.0
C685 C 0.23996 0.17306 0.38187 0.0
C686 C 0.24637 0.1375 0.46059 0.0
C687 C 0.24955 0.17072 0.49253 0.0
N688 N 0.24609 0.23483 0.50098 0.0
N689 N 0.2221 0.10138 0.37669 0.0
C690 C 0.24791 0.20527 0.46924 0.0
C691 C 0.23616 0.13675 0.40603 0.0
N692 N 0.25379 0.24349 0.38845 0.0
N693 N 0.25536 0.10774 0.48195 0.0
H694 H 0.21298 0.09964 0.33674 0.0
H695 H 0.21501 0.07296 0.39317 0.0
H696 H 0.2652 0.10843 0.52142 0.0
H697 H 0.25785 0.08496 0.45931 0.0
H698 H 0.26355 0.27132 0.40852 0.0
H699 H 0.25248 0.24566 0.34726 0.0
H700 H 0.24095 0.25902 0.48657 0.0
H701 H 0.24629 0.2333 0.54229 0.0
C702 C 0.85601 0.24112 0.46592 0.0
C703 C 0.82917 0.20523 0.43496 0.0
C704 C 0.80806 0.16489 0.51854 0.0
C705 C 0.83328 0.20118 0.54963 0.0
N706 N 0.87359 0.27506 0.55264 0.0
N707 N 0.77247 0.13451 0.43361 0.0
C708 C 0.85459 0.23965 0.52303 0.0
C709 C 0.80313 0.16755 0.46194 0.0
N710 N 0.88509 0.27623 0.44066 0.0
N711 N 0.7897 0.12751 0.54306 0.0
H712 H 0.76777 0.13575 0.39283 0.0
H713 H 0.74918 0.10726 0.45095 0.0
H714 H 0.79058 0.12468 0.58419 0.0
H715 H 0.77565 0.09947 0.52264 0.0
H716 H 0.90877 0.30244 0.46036 0.0
H717 H 0.88858 0.27778 0.39954 0.0
H718 H 0.88609 0.30441 0.53649 0.0
H719 H 0.87291 0.27479 0.59401 0.0
C720 C 0.90577 0.68954 0.47286 0.0
C721 C 0.86831 0.65148 0.48534 0.0
C722 C 0.85223 0.63693 0.39071 0.0
C723 C 0.88371 0.67822 0.37921 0.0
N724 N 0.93798 0.74545 0.41015 0.0
N725 N 0.80338 0.58976 0.45669 0.0
C726 C 0.91032 0.70491 0.42045 0.0
C727 C 0.84106 0.62508 0.44435 0.0
N728 N 0.9371 0.7106 0.51123 0.0
N729 N 0.83405 0.6089 0.35036 0.0
H730 H 0.7943 0.58042 0.4957 0.0
H731 H 0.77955 0.57149 0.42845 0.0
H732 H 0.84354 0.61632 0.31095 0.0
H733 H 0.81362 0.57756 0.3566 0.0
H734 H 0.96717 0.73687 0.50359 0.0
H735 H 0.93509 0.69908 0.54949 0.0
H736 H 0.95477 0.76726 0.43978 0.0
H737 H 0.94105 0.75801 0.37244 0.0
C738 C 0.11397 0.49011 0.9815 0.0
C739 C 0.08196 0.49291 0.94668 0.0
C740 C 0.12022 0.48173 0.87008 0.0
C741 C 0.14782 0.47303 0.90531 0.0
N742 N 0.18249 0.48251 0.99091 0.0
N743 N 0.06197 0.50362 0.85856 0.0
C744 C 0.14877 0.48231 0.95997 0.0
C745 C 0.08801 0.49324 0.89098 0.0
N746 N 0.10912 0.49217 0.03501 0.0
N747 N 0.12349 0.47658 0.8169 0.0
H748 H 0.03903 0.51283 0.87376 0.0
H749 H 0.06512 0.50609 0.81754 0.0
H750 H 0.14872 0.47036 0.80164 0.0
H751 H 0.10174 0.47813 0.78831 0.0
H752 H 0.12815 0.48605 0.06313 0.0
H753 H 0.08479 0.49914 0.05131 0.0
H754 H 0.18717 0.49081 0.03086 0.0
H755 H 0.20834 0.47781 0.97442 0.0
C756 C 0.60167 0.69799 0.91374 0.0
C757 C 0.63544 0.72865 0.94641 0.0
C758 C 0.6154 0.67886 1.01944 0.0
C759 C 0.58114 0.6486 0.98736 0.0
N760 N 0.53651 0.63005 0.90763 0.0
N761 N 0.66805 0.75107 0.03344 0.0
C762 C 0.5726 0.65856 0.93561 0.0
C763 C 0.64025 0.71984 1.00029 0.0
N764 N 0.59901 0.70581 0.86121 0.0
N765 N 0.62528 0.66783 0.06757 0.0
H766 H 0.68597 0.78151 1.02088 0.0
H767 H 0.67017 0.74776 0.07422 0.0
H768 H 0.60694 0.63836 0.08313 0.0
H769 H 0.65356 0.68676 0.09011 0.0
H770 H 0.57876 0.68352 0.83374 0.0
H771 H 0.61906 0.73443 0.84428 0.0
H772 H 0.52539 0.6361 0.87163 0.0
H773 H 0.51568 0.60082 0.92254 0.0
C774 C 0.31023 0.83045 0.99852 0.0
C775 C 0.31465 0.83448 0.94282 0.0
C776 C 0.39671 0.86412 0.95332 0.0
C777 C 0.39235 0.87146 1.00764 0.0
N778 N 0.34624 0.85377 0.08517 0.0
N779 N 0.36091 0.8486 0.866 0.0
C780 C 0.34932 0.85122 0.03142 0.0
C781 C 0.35761 0.84809 0.91993 0.0
N782 N 0.26841 0.80795 1.01917 0.0
N783 N 0.43806 0.8731 0.93379 0.0
H784 H 0.33236 0.83561 0.84144 0.0
H785 H 0.39132 0.86281 0.84603 0.0
H786 H 0.46677 0.88451 0.95793 0.0
H787 H 0.44276 0.86484 0.89565 0.0
H788 H 0.26188 0.80269 0.05947 0.0
H789 H 0.24061 0.79139 0.99448 0.0
H790 H 0.31602 0.84245 0.10558 0.0
H791 H 0.37492 0.86772 0.10939 0.0
C792 C 0.4208 0.11119 0.555 0.0
C793 C 0.44957 0.10385 0.59012 0.0
C794 C 0.44622 0.15413 0.65344 0.0
C795 C 0.4128 0.15725 0.62123 0.0
N796 N 0.36332 0.1335 0.54456 0.0
N797 N 0.48881 0.11678 0.67376 0.0
C798 C 0.39914 0.13473 0.57253 0.0
C799 C 0.46241 0.12524 0.63947 0.0
N800 N 0.41426 0.09551 0.50453 0.0
N801 N 0.46322 0.17948 0.69666 0.0
H802 H 0.50311 0.09777 0.66324 0.0
H803 H 0.49499 0.12705 0.71299 0.0
H804 H 0.45203 0.20071 0.70793 0.0
H805 H 0.49062 0.18178 0.71896 0.0
H806 H 0.39736 0.10295 0.47499 0.0
H807 H 0.42976 0.07823 0.49072 0.0
H808 H 0.34864 0.11409 0.51207 0.0
H809 H 0.34519 0.1488 0.55666 0.0
C810 C 1.007 0.37909 0.68123 0.0
C811 C 0.99182 0.3435 0.64875 0.0
C812 C 1.01343 0.38729 0.5694 0.0
C813 C 0.02261 0.42255 0.6015 0.0
N814 N 0.02412 0.45082 0.68923 0.0
N815 N 0.97899 0.31248 0.56216 0.0
C816 C 0.01894 0.41829 0.65787 0.0
C817 C 0.99504 0.34733 0.59285 0.0
N818 N 1.01058 0.37524 0.73471 0.0
N819 N 0.02332 0.39219 0.51657 0.0
H820 H 0.9656 0.28301 0.57827 0.0
H821 H 0.97591 0.31232 0.52104 0.0
H822 H 0.03714 0.42086 0.4982 0.0
H823 H 0.02189 0.36871 0.49188 0.0
H824 H 0.02619 0.40023 0.76061 0.0
H825 H 1.0015 0.34679 0.75252 0.0
H826 H 0.01699 0.44832 0.72957 0.0
H827 H 0.03238 0.48001 0.67486 0.0
C828 C 0.74583 0.68475 0.55973 0.0
C829 C 0.76079 0.69394 0.61355 0.0
C830 C 0.69062 0.6345 0.64136 0.0
C831 C 0.67305 0.62846 0.58854 0.0
N832 N 0.68257 0.65241 0.49827 0.0
N833 N 0.74095 0.68349 0.70597 0.0
C834 C 0.70051 0.65458 0.54778 0.0
C835 C 0.73155 0.67029 0.65449 0.0
N836 N 0.77497 0.70502 0.51976 0.0
N837 N 0.66913 0.60536 0.67901 0.0
H838 H 0.76955 0.71034 0.71721 0.0
H839 H 0.71827 0.66988 0.7367 0.0
H840 H 0.64042 0.5778 0.67076 0.0
H841 H 0.68281 0.60647 0.71664 0.0
H842 H 0.7681 0.69656 0.47994 0.0
H843 H 0.80769 0.72818 0.52668 0.0
H844 H 0.69901 0.67365 0.46853 0.0
H845 H 0.64951 0.63158 0.48815 0.0
C846 C 0.81971 0.54439 0.10772 0.0
C847 C 0.84158 0.58761 0.11554 0.0
C848 C 0.90923 0.59218 0.07138 0.0
C849 C 0.88762 0.54875 0.06436 0.0
N850 N 0.82796 0.4829 0.09123 0.0
N851 N 0.9112 0.65114 0.11782 0.0
C852 C 0.84452 0.52465 0.08725 0.0
C853 C 0.88781 0.6109 0.1021 0.0
N854 N 0.77497 0.52221 0.11904 0.0
N855 N 0.94849 0.61602 0.0456 0.0
H856 H 0.89627 0.6666 0.13781 0.0
H857 H 0.94602 0.66824 0.11437 0.0
H858 H 0.9648 0.60386 1.02162 0.0
H859 H 0.9628 0.64805 0.04411 0.0
H860 H 0.75577 0.4914 0.10809 0.0
H861 H 0.75644 0.53536 0.13673 0.0
H862 H 0.79882 0.46422 0.11193 0.0
H863 H 0.84595 0.46746 0.07904 0.0
C864 C 0.38357 0.29827 0.17282 0.0
C865 C 0.37582 0.2629 0.14207 0.0
C866 C 0.41341 0.3072 0.06613 0.0
C867 C 0.42018 0.34236 0.09643 0.0
N868 N 0.42141 0.3731 0.18109 0.0
N869 N 0.39311 0.23413 0.06506 0.0
C870 C 0.40839 0.33835 0.15075 0.0
C871 C 0.39415 0.26761 0.09049 0.0
N872 N 0.36567 0.29327 0.22246 0.0
N873 N 0.42353 0.31162 1.0134 0.0
H874 H 0.38082 0.20548 0.08327 0.0
H875 H 0.40839 0.23554 0.02876 0.0
H876 H 0.43793 0.3403 0.99497 0.0
H877 H 0.41513 0.28696 0.9873 0.0
H878 H 0.3652 0.3171 0.24478 0.0
H879 H 0.34964 0.26454 0.24068 0.0
H880 H 0.41782 0.37284 0.22208 0.0
H881 H 0.43933 0.40263 0.16551 0.0
C882 C 0.68964 0.06594 0.21771 0.0
C883 C 0.72662 0.08276 0.18248 0.0
C884 C 0.67667 0.04334 0.1084 0.0
C885 C 0.63901 0.02986 0.14267 0.0
N886 N 0.6105 0.01788 0.2314 0.0
N887 N 0.75836 0.07906 0.09871 0.0
C888 C 0.646 0.03761 0.19802 0.0
C889 C 0.72108 0.06823 0.12929 0.0
N890 N 0.69614 0.07871 0.26951 0.0
N891 N 0.66961 0.03453 0.0554 0.0
H892 H 0.79087 0.09715 0.11346 0.0
H893 H 0.75761 0.06753 0.0607 0.0
H894 H 0.63794 0.0149 0.03958 0.0
H895 H 0.69451 0.04742 0.02687 0.0
H896 H 0.67021 0.0717 0.29643 0.0
H897 H 0.72813 0.09759 0.28529 0.0
H898 H 0.61321 0.01948 0.27258 0.0
H899 H 0.57858 0.99683 0.21747 0.0
C900 C 0.57018 0.95409 0.41538 0.0
C901 C 0.57602 0.9726 0.46649 0.0
C902 C 0.63717 0.9544 0.48406 0.0
C903 C 0.62429 0.92827 0.43837 0.0
N904 N 0.57609 0.90187 0.3611 0.0
N905 N 0.61453 0.98844 0.55141 0.0
C906 C 0.59068 0.9283 0.40355 0.0
C907 C 0.60992 0.97289 0.50109 0.0
N908 N 0.54474 0.96123 0.37814 0.0
N909 N 0.67619 0.96242 0.51057 0.0
H910 H 0.59638 1.00316 0.5654 0.0
H911 H 0.63447 0.9844 0.58043 0.0
H912 H 0.69791 0.95084 0.49808 0.0
H913 H 0.68949 0.98414 0.54111 0.0
H914 H 0.54232 0.95184 0.33866 0.0
H915 H 0.53001 0.98046 0.38564 0.0
H916 H 0.54823 0.89727 0.33791 0.0
H917 H 0.58939 0.88193 0.35148 0.0
C918 C 0.11605 0.64058 0.44959 0.0
C919 C 0.07703 0.6339 0.47867 0.0
C920 C 0.09553 0.707 0.46494 0.0
C921 C 0.13271 0.71275 0.43275 0.0
N922 N 0.16768 0.67996 0.38049 0.0
N923 N 0.02228 0.65821 0.4973 0.0
C924 C 0.13955 0.6779 0.42071 0.0
C925 C 0.06452 0.66635 0.48132 0.0
N926 N 0.1325 0.61261 0.45154 0.0
N927 N 0.09064 0.74014 0.48237 0.0
H928 H 0.99743 0.62857 0.50594 0.0
H929 H 1.01026 0.67994 0.49545 0.0
H930 H 0.11285 0.77045 0.47282 0.0
H931 H 0.06678 0.73766 0.51044 0.0
H932 H 0.16333 0.6182 0.43519 0.0
H933 H 0.11811 0.58595 0.47426 0.0
H934 H 0.1709 0.65441 0.36709 0.0
H935 H 0.18338 0.70578 0.35635 0.0
C936 C 0.34999 0.4005 0.46827 0.0
C937 C 0.33272 0.42842 0.45544 0.0
C938 C 0.40373 0.48549 0.49019 0.0
C939 C 0.42257 0.45813 0.49822 0.0
N940 N 0.41713 0.39153 0.47508 0.0
N941 N 0.35184 0.49972 0.43763 0.0
C942 C 0.39674 0.41618 0.48137 0.0
C943 C 0.36222 0.4716 0.4614 0.0
N944 N 0.32197 0.35913 0.47047 0.0
N945 N 0.42394 0.52423 0.51175 0.0
H946 H 0.32404 0.4913 0.41253 0.0
H947 H 0.37401 0.53118 0.43722 0.0
H948 H 0.453 0.53522 0.53517 0.0
H949 H 0.40895 0.54373 0.51112 0.0
H950 H 0.33256 0.33819 0.48465 0.0
H951 H 0.28736 0.3462 0.46372 0.0
H952 H 0.40044 0.36187 0.45898 0.0
H953 H 0.45185 0.4025 0.47896 0.0
C954 C 0.7618 0.75818 0.29928 0.0
C955 C 0.74145 0.7291 0.25777 0.0
C956 C 0.67131 0.73423 0.27185 0.0
C957 C 0.69499 0.76982 0.3047 0.0
N958 N 0.76767 0.81923 0.34194 0.0
N959 N 0.67594 0.68877 0.2039 0.0
C960 C 0.74134 0.78243 0.31717 0.0
C961 C 0.69567 0.71644 0.2443 0.0
N962 N 0.80126 0.76292 0.32164 0.0
N963 N 0.62546 0.71695 0.26785 0.0
H964 H 0.69249 0.67466 0.18398 0.0
H965 H 0.64419 0.6815 0.1884 0.0
H966 H 0.60667 0.72832 0.28878 0.0
H967 H 0.60584 0.68907 0.24841 0.0
H968 H 0.81524 0.78047 0.35585 0.0
H969 H 0.81714 0.74559 0.30953 0.0
H970 H 0.80254 0.83136 0.34562 0.0
H971 H 0.75675 0.84031 0.35358 0.0
C972 C 0.22 0.99392 0.26182 0.0
C973 C 0.26439 0.02743 0.26329 0.0
C974 C 0.28258 0.99252 0.33564 0.0
C975 C 0.24247 0.95542 0.32506 0.0
N976 N 0.17286 0.92097 0.27461 0.0
N977 N 0.33952 0.05704 0.30063 0.0
C978 C 0.21078 0.95621 0.2877 0.0
C979 C 0.29601 0.02661 0.30049 0.0
N980 N 0.18599 0.99859 0.23747 0.0
N981 N 0.30753 0.99525 0.37999 0.0
H982 H 0.35131 0.0818 0.27459 0.0
H983 H 0.36485 0.05573 0.32348 0.0
H984 H 0.29694 0.97157 0.40772 0.0
H985 H 0.33526 0.02237 0.39231 0.0
H986 H 0.15228 0.9766 0.2394 0.0
H987 H 0.19065 0.0264 0.22096 0.0
H988 H 0.15234 0.919 0.24227 0.0
H989 H 0.16294 0.8931 0.29388 0.0
C990 C 0.0404 0.2556 0.3567 0.0
C991 C 0.07733 0.27584 0.3222 0.0
C992 C 0.02611 0.24819 0.24504 0.0
C993 C 0.98863 0.2314 0.27959 0.0
N994 N 0.96074 0.20811 0.36696 0.0
N995 N 0.10775 0.27971 0.23565 0.0
C996 C 0.99617 0.23136 0.33513 0.0
C997 C 0.07083 0.26796 0.2669 0.0
N998 N 0.04772 0.26123 0.41013 0.0
N999 N 0.01877 0.24709 0.19157 0.0
H1000 H 0.14009 0.29229 0.25217 0.0
H1001 H 0.10624 0.27318 0.19524 0.0
H1002 H 0.98658 0.23148 0.17477 0.0
H1003 H 0.04407 0.26269 0.16421 0.0
H1004 H 0.02222 0.25187 0.4381 0.0
H1005 H 0.08025 0.27634 0.42615 0.0
H1006 H 0.96357 0.2045 0.40751 0.0
H1007 H 0.92885 0.18916 0.35126 0.0
C1008 C 0.30342 0.33072 0.6898 0.0
C1009 C 0.31812 0.30712 0.72152 0.0
C1010 C 0.31307 0.34462 0.80061 0.0
C1011 C 0.28787 0.35963 0.77059 0.0
N1012 N 0.26354 0.3721 0.68594 0.0
N1013 N 0.34233 0.29497 0.80721 0.0
C1014 C 0.28551 0.35511 0.71466 0.0
C1015 C 0.32592 0.316 0.77682 0.0
N1016 N 0.30589 0.32885 0.63586 0.0
N1017 N 0.32329 0.35697 0.85227 0.0
H1018 H 0.3536 0.27508 0.79125 0.0
H1019 H 0.3438 0.2963 0.84846 0.0
H1020 H 0.31396 0.37792 0.86952 0.0
H1021 H 0.34414 0.34977 0.8762 0.0
H1022 H 0.2986 0.34712 0.60992 0.0
H1023 H 0.3193 0.31131 0.61744 0.0
H1024 H 0.25548 0.36614 0.64581 0.0
H1025 H 0.25234 0.39167 0.70337 0.0
C1026 C 0.80796 0.03941 0.83143 0.0
C1027 C 0.80098 0.04353 0.7767 0.0
C1028 C 0.74913 0.96923 0.77036 0.0
C1029 C 0.75856 0.96473 0.82426 0.0
N1030 N 0.78599 0.99574 0.90955 0.0
N1031 N 0.75902 0.01539 0.69636 0.0
C1032 C 0.78437 1.00012 0.8559 0.0
C1033 C 0.76945 1.00923 0.74693 0.0
N1034 N 0.83906 0.07269 0.8591 0.0
N1035 N 0.72189 0.93499 0.74144 0.0
H1036 H 0.77356 0.04448 0.67895 0.0
H1037 H 0.73432 0.99272 0.67277 0.0
H1038 H 0.70355 0.90642 0.75917 0.0
H1039 H 0.71744 0.93458 0.70052 0.0
H1040 H 0.84937 0.07125 0.89774 0.0
H1041 H 0.85676 0.10172 0.84214 0.0
H1042 H 0.80129 0.02027 0.93613 0.0
H1043 H 0.76797 0.96723 0.92779 0.0
C1044 C 0.03828 0.77064 0.824 0.0
C1045 C 0.07554 0.78599 0.78908 0.0
C1046 C 0.02378 0.77122 0.71257 0.0
C1047 C 0.98658 0.75642 0.74759 0.0
N1048 N 0.95712 0.73221 0.83458 0.0
N1049 N 0.10364 0.79252 0.70027 0.0
C1050 C 0.9935 0.75306 0.80273 0.0
C1051 C 0.06811 0.78347 0.73331 0.0
N1052 N 0.04574 0.77477 0.87759 0.0
N1053 N 0.01702 0.77543 0.65986 0.0
H1054 H 0.13619 0.80128 0.7145 0.0
H1055 H 0.10041 0.78788 0.65938 0.0
H1056 H 0.98512 0.76612 0.64321 0.0
H1057 H 0.04299 0.79034 0.63305 0.0
H1058 H 0.02055 0.76911 0.90516 0.0
H1059 H 0.07783 0.78618 0.89457 0.0
H1060 H 0.95965 0.72503 0.87398 0.0
H1061 H 0.92406 0.71863 0.82018 0.0
loop_
_geom_bond_atom_site_label_1
_geom_bond_atom_site_label_2
_geom_bond_distance
_geom_bond_site_symmetry_2
_ccdc_geom_bond_type
Cu0 N1 1.999 1_554 S
Cu0 O6 1.974 1_554 S
Cu0 N11 1.985 . S
Cu0 O20 1.959 . S
N1 Cu0 1.999 1_556 S
N1 C3 1.263 . S
N1 C5 1.389 . S
N2 C3 1.358 . S
N2 C4 1.400 . S
C3 N1 1.263 . S
C3 N2 1.358 . S
C3 H9 0.930 . S
C4 N2 1.400 . S
C4 C5 1.351 . S
C4 H21 0.930 . S
C5 N1 1.389 . S
C5 C4 1.351 . S
C5 H10 0.930 . S
O6 Cu0 1.974 1_556 S
O6 C16 1.282 . S
C7 O8 1.261 . S
C7 O20 1.251 1_655 S
O8 C7 1.261 . S
H9 C3 0.930 . S
H10 C5 0.930 . S
N11 Cu0 1.985 . S
N11 C13 1.335 . S
N11 C14 1.390 . S
N12 C13 1.345 . S
N12 C15 1.336 . S
C13 N11 1.335 . S
C13 N12 1.345 . S
C13 H18 0.930 . S
C14 N11 1.390 . S
C14 C15 1.346 . S
C14 H19 0.930 . S
C15 N12 1.336 . S
C15 C14 1.346 . S
C15 H22 0.929 . S
C16 O6 1.282 . S
C16 O17 1.216 . S
O17 C16 1.216 . S
H18 C13 0.930 . S
H19 C14 0.930 . S
O20 Cu0 1.959 . S
O20 C7 1.251 1_455 S
H21 C4 0.930 . S
H22 C15 0.929 . S
Cu23 N24 1.999 . S
Cu23 O29 1.974 . S
Cu23 N34 1.985 . S
Cu23 O43 1.959 1_554 S
N24 Cu23 1.999 . S
N24 C26 1.263 . S
N24 C28 1.389 1_554 S
N25 C26 1.358 . S
N25 C27 1.400 . S
C26 N24 1.263 . S
C26 N25 1.358 . S
C26 H32 0.930 . S
C27 N25 1.400 . S
C27 C28 1.351 1_554 S
C27 H44 0.930 1_554 S
C28 N24 1.389 1_556 S
C28 C27 1.351 1_556 S
C28 H33 0.930 . S
O29 Cu23 1.974 . S
O29 C39 1.282 . S
C30 O31 1.261 . S
C30 O43 1.251 . S
O31 C30 1.261 . S
H32 C26 0.930 . S
H33 C28 0.930 . S
N34 Cu23 1.985 . S
N34 C36 1.335 1_554 S
N34 C37 1.390 . S
N35 C36 1.345 . S
N35 C38 1.336 1_556 S
C36 N34 1.335 1_556 S
C36 N35 1.345 . S
C36 H41 0.930 . S
C37 N34 1.390 . S
C37 C38 1.346 . S
C37 H42 0.930 . S
C38 N35 1.336 1_554 S
C38 C37 1.346 . S
C38 H45 0.929 . S
C39 O29 1.282 . S
C39 O40 1.216 . S
O40 C39 1.216 . S
H41 C36 0.930 . S
H42 C37 0.930 . S
O43 Cu23 1.959 1_556 S
O43 C30 1.251 . S
H44 C27 0.930 1_556 S
H45 C38 0.929 . S
Cu46 N47 1.999 1_554 S
Cu46 O52 1.974 1_554 S
Cu46 N57 1.985 . S
Cu46 O66 1.959 1_565 S
N47 Cu46 1.999 1_556 S
N47 C49 1.263 1_565 S
N47 C51 1.392 1_565 S
N48 C49 1.358 . S
N48 C50 1.400 . S
C49 N47 1.263 1_545 S
C49 N48 1.358 . S
C49 H55 0.930 . S
C50 N48 1.400 . S
C50 C51 1.351 . S
C50 H67 0.930 . S
C51 N47 1.392 1_545 S
C51 C50 1.351 . S
C51 H56 0.921 1_545 S
O52 Cu46 1.974 1_556 S
O52 C62 1.282 . S
C53 O54 1.261 . S
C53 O66 1.251 . S
O54 C53 1.261 . S
H55 C49 0.930 . S
H56 C51 0.921 1_565 S
N57 Cu46 1.985 . S
N57 C59 1.335 . S
N57 C60 1.390 . S
N58 C59 1.345 . S
N58 C61 1.336 . S
C59 N57 1.335 . S
C59 N58 1.345 . S
C59 H64 0.930 . S
C60 N57 1.390 . S
C60 C61 1.346 . S
C60 H65 0.930 . S
C61 N58 1.336 . S
C61 C60 1.346 . S
C61 H68 0.929 . S
C62 O52 1.282 . S
C62 O63 1.216 1_565 S
O63 C62 1.216 1_545 S
H64 C59 0.930 . S
H65 C60 0.930 . S
O66 Cu46 1.959 1_545 S
O66 C53 1.251 . S
H67 C50 0.930 . S
H68 C61 0.929 . S
Cu69 N70 1.999 . S
Cu69 O75 1.974 1_545 S
Cu69 N80 1.985 . S
Cu69 O89 1.959 . S
N70 Cu69 1.999 . S
N70 C72 1.263 . S
N70 C74 1.389 . S
N71 C72 1.358 . S
N71 C73 1.400 . S
C72 N70 1.263 . S
C72 N71 1.358 . S
C72 H78 0.930 1_545 S
C73 N71 1.400 . S
C73 C74 1.351 . S
C73 H90 0.930 . S
C74 N70 1.389 . S
C74 C73 1.351 . S
C74 H79 0.930 . S
O75 Cu69 1.974 1_565 S
O75 C85 1.282 . S
C76 O77 1.261 . S
C76 O89 1.251 . S
O77 C76 1.261 . S
H78 C72 0.930 1_565 S
H79 C74 0.930 . S
N80 Cu69 1.985 . S
N80 C82 1.335 . S
N80 C83 1.390 1_545 S
N81 C82 1.345 . S
N81 C84 1.336 1_545 S
C82 N80 1.335 . S
C82 N81 1.345 . S
C82 H87 0.930 . S
C83 N80 1.390 1_565 S
C83 C84 1.346 . S
C83 H88 0.930 . S
C84 N81 1.336 1_565 S
C84 C83 1.346 . S
C84 H91 0.929 . S
C85 O75 1.282 . S
C85 O86 1.216 . S
O86 C85 1.216 . S
H87 C82 0.930 . S
H88 C83 0.930 . S
O89 Cu69 1.959 . S
O89 C76 1.251 . S
H90 C73 0.930 . S
H91 C84 0.929 . S
Cu92 N93 1.999 . S
Cu92 O98 1.974 1_455 S
Cu92 N103 1.985 . S
Cu92 O112 1.959 . S
N93 Cu92 1.999 . S
N93 C95 1.263 . S
N93 C97 1.389 . S
N94 C95 1.358 . S
N94 C96 1.400 . S
C95 N93 1.263 . S
C95 N94 1.358 . S
C95 H101 0.930 . S
C96 N94 1.400 . S
C96 C97 1.351 . S
C96 H113 0.930 . S
C97 N93 1.389 . S
C97 C96 1.351 . S
C97 H102 0.938 . S
O98 Cu92 1.974 1_655 S
O98 C108 1.282 . S
C99 O100 1.261 . S
C99 O112 1.251 . S
O100 C99 1.261 . S
H101 C95 0.930 . S
H102 C97 0.938 . S
N103 Cu92 1.985 . S
N103 C105 1.335 . S
N103 C106 1.390 1_455 S
N104 C105 1.345 . S
N104 C107 1.332 . S
C105 N103 1.335 . S
C105 N104 1.345 . S
C105 H110 0.930 . S
C106 N103 1.390 1_655 S
C106 C107 1.346 1_655 S
C106 H111 0.930 . S
C107 N104 1.332 . S
C107 C106 1.346 1_455 S
C107 H114 0.943 1_455 S
C108 O98 1.282 . S
C108 O109 1.216 1_655 S
O109 C108 1.216 1_455 S
H110 C105 0.930 . S
H111 C106 0.930 . S
O112 Cu92 1.959 . S
O112 C99 1.251 . S
H113 C96 0.930 . S
H114 C107 0.943 1_655 S
Cu115 N116 1.999 . S
Cu115 O121 1.974 . S
Cu115 N126 1.985 . S
Cu115 O135 1.959 . S
N116 Cu115 1.999 . S
N116 C118 1.263 . S
N116 C120 1.389 . S
N117 C118 1.358 . S
N117 C119 1.400 . S
C118 N116 1.263 . S
C118 N117 1.358 . S
C118 H124 0.930 . S
C119 N117 1.400 . S
C119 C120 1.351 . S
C119 H136 0.930 . S
C120 N116 1.389 . S
C120 C119 1.351 . S
C120 H125 0.930 . S
O121 Cu115 1.974 . S
O121 C131 1.282 . S
C122 O123 1.261 . S
C122 O135 1.251 . S
O123 C122 1.261 . S
H124 C118 0.930 . S
H125 C120 0.930 . S
N126 Cu115 1.985 . S
N126 C128 1.335 . S
N126 C129 1.390 . S
N127 C128 1.345 . S
N127 C130 1.336 . S
C128 N126 1.335 . S
C128 N127 1.345 . S
C128 H133 0.930 . S
C129 N126 1.390 . S
C129 C130 1.346 . S
C129 H134 0.930 . S
C130 N127 1.336 . S
C130 C129 1.346 . S
C130 H137 0.929 . S
C131 O121 1.282 . S
C131 O132 1.216 . S
O132 C131 1.216 . S
H133 C128 0.930 . S
H134 C129 0.930 . S
O135 Cu115 1.959 . S
O135 C122 1.251 . S
H136 C119 0.930 . S
H137 C130 0.929 . S
Cu138 N139 1.999 . S
Cu138 O144 1.974 . S
Cu138 N149 1.985 . S
Cu138 O158 1.959 . S
N139 Cu138 1.999 . S
N139 C141 1.263 . S
N139 C143 1.389 . S
N140 C141 1.358 . S
N140 C142 1.400 . S
C141 N139 1.263 . S
C141 N140 1.358 . S
C141 H147 0.930 . S
C142 N140 1.400 . S
C142 C143 1.351 . S
C142 H159 0.930 . S
C143 N139 1.389 . S
C143 C142 1.351 . S
C143 H148 0.930 . S
O144 Cu138 1.974 . S
O144 C154 1.282 . S
C145 O146 1.261 . S
C145 O158 1.251 . S
O146 C145 1.261 . S
H147 C141 0.930 . S
H148 C143 0.930 . S
N149 Cu138 1.985 . S
N149 C151 1.335 . S
N149 C152 1.390 . S
N150 C151 1.345 . S
N150 C153 1.336 . S
C151 N149 1.335 . S
C151 N150 1.345 . S
C151 H156 0.930 . S
C152 N149 1.390 . S
C152 C153 1.346 . S
C152 H157 0.930 . S
C153 N150 1.336 . S
C153 C152 1.346 . S
C153 H160 0.929 . S
C154 O144 1.282 . S
C154 O155 1.216 . S
O155 C154 1.216 . S
H156 C151 0.930 . S
H157 C152 0.930 . S
O158 Cu138 1.959 . S
O158 C145 1.251 . S
H159 C142 0.930 . S
H160 C153 0.929 . S
Cu161 N162 1.999 . S
Cu161 O167 1.974 . S
Cu161 N172 1.985 . S
Cu161 O181 1.959 . S
N162 Cu161 1.999 . S
N162 C164 1.263 . S
N162 C166 1.389 . S
N163 C164 1.358 . S
N163 C165 1.400 . S
C164 N162 1.263 . S
C164 N163 1.358 . S
C164 H170 0.930 . S
C165 N163 1.400 . S
C165 C166 1.351 . S
C165 H182 0.930 . S
C166 N162 1.389 . S
C166 C165 1.351 . S
C166 H171 0.930 . S
O167 Cu161 1.974 . S
O167 C177 1.282 . S
C168 O169 1.261 . S
C168 O181 1.251 . S
O169 C168 1.261 . S
H170 C164 0.930 . S
H171 C166 0.930 . S
N172 Cu161 1.985 . S
N172 C174 1.335 . S
N172 C175 1.390 . S
N173 C174 1.345 . S
N173 C176 1.336 . S
C174 N172 1.335 . S
C174 N173 1.345 . S
C174 H179 0.930 . S
C175 N172 1.390 . S
C175 C176 1.346 . S
C175 H180 0.930 . S
C176 N173 1.336 . S
C176 C175 1.346 . S
C176 H183 0.929 . S
C177 O167 1.282 . S
C177 O178 1.216 . S
O178 C177 1.216 . S
H179 C174 0.930 . S
H180 C175 0.930 . S
O181 Cu161 1.959 . S
O181 C168 1.251 . S
H182 C165 0.930 . S
H183 C176 0.929 . S
Cu184 N185 1.999 . S
Cu184 O190 1.974 . S
Cu184 N195 1.985 . S
Cu184 O204 1.959 . S
N185 Cu184 1.999 . S
N185 C187 1.263 . S
N185 C189 1.389 . S
N186 C187 1.358 . S
N186 C188 1.400 . S
C187 N185 1.263 . S
C187 N186 1.358 . S
C187 H193 0.930 . S
C188 N186 1.400 . S
C188 C189 1.351 . S
C188 H205 0.930 . S
C189 N185 1.389 . S
C189 C188 1.351 . S
C189 H194 0.930 . S
O190 Cu184 1.974 . S
O190 C200 1.282 . S
C191 O192 1.261 . S
C191 O204 1.251 . S
O192 C191 1.261 . S
H193 C187 0.930 . S
H194 C189 0.930 . S
N195 Cu184 1.985 . S
N195 C197 1.335 . S
N195 C198 1.390 . S
N196 C197 1.345 . S
N196 C199 1.336 . S
C197 N195 1.335 . S
C197 N196 1.345 . S
C197 H202 0.930 . S
C198 N195 1.390 . S
C198 C199 1.346 . S
C198 H203 0.930 . S
C199 N196 1.336 . S
C199 C198 1.346 . S
C199 H206 0.929 . S
C200 O190 1.282 . S
C200 O201 1.216 . S
O201 C200 1.216 . S
H202 C197 0.930 . S
H203 C198 0.930 . S
O204 Cu184 1.959 . S
O204 C191 1.251 . S
H205 C188 0.930 . S
H206 C199 0.929 . S
Cu207 N208 1.999 . S
Cu207 O213 1.974 . S
Cu207 N218 1.985 . S
Cu207 O227 1.959 . S
N208 Cu207 1.999 . S
N208 C210 1.263 . S
N208 C212 1.389 . S
N209 C210 1.358 . S
N209 C211 1.400 . S
C210 N208 1.263 . S
C210 N209 1.358 . S
C210 H216 0.930 . S
C211 N209 1.400 . S
C211 C212 1.351 . S
C211 H228 0.930 . S
C212 N208 1.389 . S
C212 C211 1.351 . S
C212 H217 0.930 . S
O213 Cu207 1.974 . S
O213 C223 1.282 . S
C214 O215 1.261 . S
C214 O227 1.251 . S
O215 C214 1.261 . S
H216 C210 0.930 . S
H217 C212 0.930 . S
N218 Cu207 1.985 . S
N218 C220 1.335 . S
N218 C221 1.390 . S
N219 C220 1.345 . S
N219 C222 1.336 . S
C220 N218 1.335 . S
C220 N219 1.345 . S
C220 H225 0.930 . S
C221 N218 1.390 . S
C221 C222 1.346 . S
C221 H226 0.930 . S
C222 N219 1.336 . S
C222 C221 1.346 . S
C222 H229 0.929 1_556 S
C223 O213 1.282 . S
C223 O224 1.216 . S
O224 C223 1.216 . S
H225 C220 0.930 . S
H226 C221 0.930 . S
O227 Cu207 1.959 . S
O227 C214 1.251 . S
H228 C211 0.930 . S
H229 C222 0.929 1_554 S
Cu230 N231 1.999 . S
Cu230 O236 1.974 . S
Cu230 N241 1.985 . S
Cu230 O250 1.959 . S
N231 Cu230 1.999 . S
N231 C233 1.263 . S
N231 C235 1.389 . S
N232 C233 1.358 . S
N232 C234 1.400 . S
C233 N231 1.263 . S
C233 N232 1.358 . S
C233 H239 0.930 . S
C234 N232 1.400 . S
C234 C235 1.351 . S
C234 H251 0.930 . S
C235 N231 1.389 . S
C235 C234 1.351 . S
C235 H240 0.930 . S
O236 Cu230 1.974 . S
O236 C246 1.282 . S
C237 O238 1.261 . S
C237 O250 1.251 . S
O238 C237 1.261 . S
H239 C233 0.930 . S
H240 C235 0.930 . S
N241 Cu230 1.985 . S
N241 C243 1.335 . S
N241 C244 1.390 . S
N242 C243 1.345 . S
N242 C245 1.336 . S
C243 N241 1.335 . S
C243 N242 1.345 . S
C243 H248 0.930 . S
C244 N241 1.390 . S
C244 C245 1.346 . S
C244 H249 0.930 . S
C245 N242 1.336 . S
C245 C244 1.346 . S
C245 H252 0.929 1_556 S
C246 O236 1.282 . S
C246 O247 1.216 . S
O247 C246 1.216 . S
H248 C243 0.930 . S
H249 C244 0.930 . S
O250 Cu230 1.959 . S
O250 C237 1.251 . S
H251 C234 0.930 . S
H252 C245 0.929 1_554 S
Cu253 N254 1.999 . S
Cu253 O259 1.974 . S
Cu253 N264 1.985 . S
Cu253 O273 1.959 . S
N254 Cu253 1.999 . S
N254 C256 1.263 . S
N254 C258 1.389 . S
N255 C256 1.358 . S
N255 C257 1.400 . S
C256 N254 1.263 . S
C256 N255 1.358 . S
C256 H262 0.930 . S
C257 N255 1.400 . S
C257 C258 1.351 . S
C257 H274 0.930 . S
C258 N254 1.389 . S
C258 C257 1.351 . S
C258 H263 0.930 . S
O259 Cu253 1.974 . S
O259 C269 1.282 . S
C260 O261 1.261 . S
C260 O273 1.251 . S
O261 C260 1.261 . S
H262 C256 0.930 . S
H263 C258 0.930 . S
N264 Cu253 1.985 . S
N264 C266 1.335 . S
N264 C267 1.390 . S
N265 C266 1.364 . S
N265 C268 1.344 . S
C266 N264 1.335 . S
C266 N265 1.364 . S
C266 H271 0.930 . S
C267 N264 1.390 . S
C267 C268 1.346 . S
C267 H272 0.930 . S
C268 N265 1.344 . S
C268 C267 1.346 . S
C268 H275 0.929 1_556 S
C269 O259 1.282 . S
C269 O270 1.216 . S
O270 C269 1.216 . S
H271 C266 0.930 . S
H272 C267 0.930 . S
O273 Cu253 1.959 . S
O273 C260 1.251 . S
H274 C257 0.930 . S
H275 C268 0.929 1_554 S
Cu276 N277 1.999 . S
Cu276 O282 1.974 . S
Cu276 N287 1.985 . S
Cu276 O296 1.959 . S
N277 Cu276 1.999 . S
N277 C279 1.263 . S
N277 C281 1.389 . S
N278 C279 1.358 . S
N278 C280 1.400 . S
C279 N277 1.263 . S
C279 N278 1.358 . S
C279 H285 0.930 . S
C280 N278 1.400 . S
C280 C281 1.351 . S
C280 H297 0.930 . S
C281 N277 1.389 . S
C281 C280 1.351 . S
C281 H286 0.930 . S
O282 Cu276 1.974 . S
O282 C292 1.282 . S
C283 O284 1.261 . S
C283 O296 1.251 . S
O284 C283 1.261 . S
H285 C279 0.930 . S
H286 C281 0.930 . S
N287 Cu276 1.985 . S
N287 C289 1.335 . S
N287 C290 1.390 . S
N288 C289 1.345 . S
N288 C291 1.336 . S
C289 N287 1.335 . S
C289 N288 1.345 . S
C289 H294 0.930 . S
C290 N287 1.390 . S
C290 C291 1.346 . S
C290 H295 0.930 . S
C291 N288 1.336 . S
C291 C290 1.346 . S
C291 H298 0.929 . S
C292 O282 1.282 . S
C292 O293 1.216 . S
O293 C292 1.216 . S
H294 C289 0.930 . S
H295 C290 0.930 . S
O296 Cu276 1.959 . S
O296 C283 1.251 . S
H297 C280 0.930 . S
H298 C291 0.929 . S
Cu299 N300 1.999 . S
Cu299 O305 1.974 . S
Cu299 N310 1.985 . S
Cu299 O319 1.959 . S
N300 Cu299 1.999 . S
N300 C302 1.263 . S
N300 C304 1.389 . S
N301 C302 1.358 . S
N301 C303 1.400 . S
C302 N300 1.263 . S
C302 N301 1.358 . S
C302 H308 0.930 . S
C303 N301 1.400 . S
C303 C304 1.351 . S
C303 H320 0.930 . S
C304 N300 1.389 . S
C304 C303 1.351 . S
C304 H309 0.930 . S
O305 Cu299 1.974 . S
O305 C315 1.282 . S
C306 O307 1.261 . S
C306 O319 1.251 . S
O307 C306 1.261 . S
H308 C302 0.930 . S
H309 C304 0.930 . S
N310 Cu299 1.985 . S
N310 C312 1.335 . S
N310 C313 1.390 . S
N311 C312 1.345 . S
N311 C314 1.336 . S
C312 N310 1.335 . S
C312 N311 1.345 . S
C312 H317 0.930 . S
C313 N310 1.390 . S
C313 C314 1.346 . S
C313 H318 0.930 . S
C314 N311 1.336 . S
C314 C313 1.346 . S
C314 H321 0.929 . S
C315 O305 1.282 . S
C315 O316 1.216 . S
O316 C315 1.216 . S
H317 C312 0.930 . S
H318 C313 0.930 . S
O319 Cu299 1.959 . S
O319 C306 1.251 . S
H320 C303 0.930 . S
H321 C314 0.929 . S
Cu322 N323 1.999 . S
Cu322 O328 1.974 . S
Cu322 N333 1.985 . S
Cu322 O342 1.959 . S
N323 Cu322 1.999 . S
N323 C325 1.263 . S
N323 C327 1.389 . S
N324 C325 1.358 . S
N324 C326 1.400 . S
C325 N323 1.263 . S
C325 N324 1.358 . S
C325 H331 0.930 . S
C326 N324 1.400 . S
C326 C327 1.351 . S
C326 H343 0.930 . S
C327 N323 1.389 . S
C327 C326 1.351 . S
C327 H332 0.930 . S
O328 Cu322 1.974 . S
O328 C338 1.282 . S
C329 O330 1.261 . S
C329 O342 1.251 . S
O330 C329 1.261 . S
H331 C325 0.930 . S
H332 C327 0.930 . S
N333 Cu322 1.985 . S
N333 C335 1.335 . S
N333 C336 1.390 . S
N334 C335 1.345 . S
N334 C337 1.336 . S
C335 N333 1.335 . S
C335 N334 1.345 . S
C335 H340 0.930 . S
C336 N333 1.390 . S
C336 C337 1.346 . S
C336 H341 0.930 . S
C337 N334 1.336 . S
C337 C336 1.346 . S
C337 H344 0.929 . S
C338 O328 1.282 . S
C338 O339 1.216 . S
O339 C338 1.216 . S
H340 C335 0.930 . S
H341 C336 0.930 . S
O342 Cu322 1.959 . S
O342 C329 1.251 . S
H343 C326 0.930 . S
H344 C337 0.929 . S
Cu345 N346 1.999 . S
Cu345 O351 1.974 . S
Cu345 N356 1.985 . S
Cu345 O365 1.959 . S
N346 Cu345 1.999 . S
N346 C348 1.263 . S
N346 C350 1.389 . S
N347 C348 1.358 . S
N347 C349 1.400 . S
C348 N346 1.263 . S
C348 N347 1.358 . S
C348 H354 0.930 . S
C349 N347 1.400 . S
C349 C350 1.351 . S
C349 H366 0.930 . S
C350 N346 1.389 . S
C350 C349 1.351 . S
C350 H355 0.930 . S
O351 Cu345 1.974 . S
O351 C361 1.282 . S
C352 O353 1.261 . S
C352 O365 1.251 . S
O353 C352 1.261 . S
H354 C348 0.930 . S
H355 C350 0.930 . S
N356 Cu345 1.985 . S
N356 C358 1.335 . S
N356 C359 1.390 . S
N357 C358 1.345 . S
N357 C360 1.336 . S
C358 N356 1.335 . S
C358 N357 1.345 . S
C358 H363 0.930 . S
C359 N356 1.390 . S
C359 C360 1.346 . S
C359 H364 0.930 . S
C360 N357 1.336 . S
C360 C359 1.346 . S
C360 H367 0.929 . S
C361 O351 1.282 . S
C361 O362 1.216 . S
O362 C361 1.216 . S
H363 C358 0.930 . S
H364 C359 0.930 . S
O365 Cu345 1.959 . S
O365 C352 1.251 . S
H366 C349 0.930 . S
H367 C360 0.929 . S
Cu368 N369 1.999 . S
Cu368 O374 1.974 . S
Cu368 N379 1.985 . S
Cu368 O388 1.959 . S
N369 Cu368 1.999 . S
N369 C371 1.263 . S
N369 C373 1.389 . S
N370 C371 1.358 . S
N370 C372 1.400 . S
C371 N369 1.263 . S
C371 N370 1.358 . S
C371 H377 0.930 . S
C372 N370 1.400 . S
C372 C373 1.351 . S
C372 H389 0.930 . S
C373 N369 1.389 . S
C373 C372 1.351 . S
C373 H378 0.930 . S
O374 Cu368 1.974 . S
O374 C384 1.282 . S
C375 O376 1.261 . S
C375 O388 1.251 . S
O376 C375 1.261 . S
H377 C371 0.930 . S
H378 C373 0.930 . S
N379 Cu368 1.985 . S
N379 C381 1.335 . S
N379 C382 1.390 . S
N380 C381 1.345 . S
N380 C383 1.336 . S
C381 N379 1.335 . S
C381 N380 1.345 . S
C381 H386 0.930 . S
C382 N379 1.390 . S
C382 C383 1.346 . S
C382 H387 0.930 . S
C383 N380 1.336 . S
C383 C382 1.346 . S
C383 H390 0.929 . S
C384 O374 1.282 . S
C384 O385 1.216 . S
O385 C384 1.216 . S
H386 C381 0.930 . S
H387 C382 0.930 . S
O388 Cu368 1.959 . S
O388 C375 1.251 . S
H389 C372 0.930 . S
H390 C383 0.929 . S
Cu391 N392 1.999 . S
Cu391 O397 1.974 . S
Cu391 N402 1.985 . S
Cu391 O411 1.959 . S
N392 Cu391 1.999 . S
N392 C394 1.263 . S
N392 C396 1.389 . S
N393 C394 1.358 . S
N393 C395 1.400 . S
C394 N392 1.263 . S
C394 N393 1.358 . S
C394 H400 0.930 . S
C395 N393 1.400 . S
C395 C396 1.351 . S
C395 H412 0.930 . S
C396 N392 1.389 . S
C396 C395 1.351 . S
C396 H401 0.930 . S
O397 Cu391 1.974 . S
O397 C407 1.282 . S
C398 O399 1.261 . S
C398 O411 1.251 . S
O399 C398 1.261 . S
H400 C394 0.930 . S
H401 C396 0.930 . S
N402 Cu391 1.985 . S
N402 C404 1.335 . S
N402 C405 1.390 . S
N403 C404 1.345 . S
N403 C406 1.336 . S
C404 N402 1.335 . S
C404 N403 1.345 . S
C404 H409 0.930 . S
C405 N402 1.390 . S
C405 C406 1.346 . S
C405 H410 0.930 . S
C406 N403 1.336 . S
C406 C405 1.346 . S
C406 H413 0.929 . S
C407 O397 1.282 . S
C407 O408 1.216 . S
O408 C407 1.216 . S
H409 C404 0.930 . S
H410 C405 0.930 . S
O411 Cu391 1.959 . S
O411 C398 1.251 . S
H412 C395 0.930 . S
H413 C406 0.929 . S
C414 C415 1.363 . S
C414 C420 1.379 . S
C414 N422 1.356 . S
C415 C414 1.363 . S
C415 C421 1.363 . S
C416 C417 1.363 . S
C416 C421 1.379 . S
C416 N423 1.356 . S
C417 C416 1.363 . S
C417 C420 1.363 . S
N418 C420 1.356 . S
N418 H430 0.984 . S
N418 H431 0.985 . S
N419 C421 1.356 . S
N419 H424 0.984 1_455 S
N419 H425 0.985 . S
C420 C414 1.379 . S
C420 C417 1.363 . S
C420 N418 1.356 . S
C421 C415 1.363 . S
C421 C416 1.379 . S
C421 N419 1.356 . S
N422 C414 1.356 . S
N422 H428 0.984 . S
N422 H429 0.984 . S
N423 C416 1.356 . S
N423 H426 0.984 . S
N423 H427 0.985 . S
H424 N419 0.984 1_655 S
H425 N419 0.985 . S
H426 N423 0.984 . S
H427 N423 0.985 . S
H428 N422 0.984 . S
H429 N422 0.984 . S
H430 N418 0.984 . S
H431 N418 0.985 . S
C432 C433 1.363 . S
C432 C438 1.379 . S
C432 N440 1.356 . S
C433 C432 1.363 . S
C433 C439 1.363 . S
C434 C435 1.363 . S
C434 C439 1.379 . S
C434 N441 1.356 . S
C435 C434 1.363 . S
C435 C438 1.363 . S
N436 C438 1.356 . S
N436 H448 0.984 . S
N436 H449 0.985 . S
N437 C439 1.356 . S
N437 H442 0.984 . S
N437 H443 0.985 . S
C438 C432 1.379 . S
C438 C435 1.363 . S
C438 N436 1.356 . S
C439 C433 1.363 . S
C439 C434 1.379 . S
C439 N437 1.356 . S
N440 C432 1.356 . S
N440 H446 0.984 . S
N440 H447 0.984 . S
N441 C434 1.356 . S
N441 H444 0.984 . S
N441 H445 0.985 . S
H442 N437 0.984 . S
H443 N437 0.985 . S
H444 N441 0.984 . S
H445 N441 0.985 . S
H446 N440 0.984 . S
H447 N440 0.984 . S
H448 N436 0.984 . S
H449 N436 0.985 . S
C450 C451 1.363 1_545 S
C450 C456 1.379 . S
C450 N458 1.356 . S
C451 C450 1.363 1_565 S
C451 C457 1.363 . S
C452 C453 1.363 1_565 S
C452 C457 1.379 . S
C452 N459 1.356 . S
C453 C452 1.363 1_545 S
C453 C456 1.363 . S
N454 C456 1.356 . S
N454 H466 0.984 . S
N454 H467 0.985 . S
N455 C457 1.356 . S
N455 H460 0.984 . S
N455 H461 0.985 . S
C456 C450 1.379 . S
C456 C453 1.363 . S
C456 N454 1.356 . S
C457 C451 1.363 . S
C457 C452 1.379 . S
C457 N455 1.356 . S
N458 C450 1.356 . S
N458 H464 0.984 . S
N458 H465 0.984 . S
N459 C452 1.356 . S
N459 H462 0.984 . S
N459 H463 0.985 . S
H460 N455 0.984 . S
H461 N455 0.985 . S
H462 N459 0.984 . S
H463 N459 0.985 . S
H464 N458 0.984 . S
H465 N458 0.984 . S
H466 N454 0.984 . S
H467 N454 0.985 . S
C468 C469 1.363 . S
C468 C474 1.379 . S
C468 N476 1.356 . S
C469 C468 1.363 . S
C469 C475 1.363 1_455 S
C470 C471 1.362 1_655 S
C470 C475 1.379 . S
C470 N477 1.357 . S
C471 C470 1.362 1_455 S
C471 C474 1.363 . S
N472 C474 1.356 . S
N472 H484 0.984 . S
N472 H485 0.985 . S
N473 C475 1.356 . S
N473 H478 0.984 . S
N473 H479 0.985 . S
C474 C468 1.379 . S
C474 C471 1.363 . S
C474 N472 1.356 . S
C475 C469 1.363 1_655 S
C475 C470 1.379 . S
C475 N473 1.356 . S
N476 C468 1.356 . S
N476 H482 0.984 . S
N476 H483 0.984 . S
N477 C470 1.357 . S
N477 H480 0.984 . S
N477 H481 0.985 . S
H478 N473 0.984 . S
H479 N473 0.985 . S
H480 N477 0.984 . S
H481 N477 0.985 . S
H482 N476 0.984 . S
H483 N476 0.984 . S
H484 N472 0.984 . S
H485 N472 0.985 . S
C486 C487 1.363 . S
C486 C492 1.379 . S
C486 N494 1.356 . S
C487 C486 1.363 . S
C487 C493 1.363 . S
C488 C489 1.363 . S
C488 C493 1.379 . S
C488 N495 1.356 . S
C489 C488 1.363 . S
C489 C492 1.363 . S
N490 C492 1.356 . S
N490 H502 0.984 . S
N490 H503 0.985 . S
N491 C493 1.356 . S
N491 H496 0.984 . S
N491 H497 0.985 . S
C492 C486 1.379 . S
C492 C489 1.363 . S
C492 N490 1.356 . S
C493 C487 1.363 . S
C493 C488 1.379 . S
C493 N491 1.356 . S
N494 C486 1.356 . S
N494 H500 0.984 . S
N494 H501 0.984 . S
N495 C488 1.356 . S
N495 H498 0.984 . S
N495 H499 0.985 . S
H496 N491 0.984 . S
H497 N491 0.985 . S
H498 N495 0.984 . S
H499 N495 0.985 . S
H500 N494 0.984 . S
H501 N494 0.984 . S
H502 N490 0.984 . S
H503 N490 0.985 . S
C504 C505 1.363 1_565 S
C504 C510 1.379 . S
C504 N512 1.356 . S
C505 C504 1.363 1_545 S
C505 C511 1.363 . S
C506 C507 1.363 . S
C506 C511 1.379 . S
C506 N513 1.356 . S
C507 C506 1.363 . S
C507 C510 1.363 1_545 S
N508 C510 1.356 . S
N508 H520 0.984 . S
N508 H521 0.985 . S
N509 C511 1.356 . S
N509 H514 0.984 . S
N509 H515 0.985 . S
C510 C504 1.379 . S
C510 C507 1.363 1_565 S
C510 N508 1.356 . S
C511 C505 1.363 . S
C511 C506 1.379 . S
C511 N509 1.356 . S
N512 C504 1.356 . S
N512 H518 0.984 . S
N512 H519 0.984 . S
N513 C506 1.356 . S
N513 H516 0.984 . S
N513 H517 0.985 . S
H514 N509 0.984 . S
H515 N509 0.985 . S
H516 N513 0.984 . S
H517 N513 0.985 . S
H518 N512 0.984 . S
H519 N512 0.984 . S
H520 N508 0.984 . S
H521 N508 0.985 . S
C522 C523 1.363 . S
C522 C528 1.379 . S
C522 N530 1.356 . S
C523 C522 1.363 . S
C523 C529 1.363 . S
C524 C525 1.363 . S
C524 C529 1.379 . S
C524 N531 1.356 . S
C525 C524 1.363 . S
C525 C528 1.363 . S
N526 C528 1.356 . S
N526 H538 0.984 . S
N526 H539 0.985 . S
N527 C529 1.356 . S
N527 H532 0.984 . S
N527 H533 0.985 . S
C528 C522 1.379 . S
C528 C525 1.363 . S
C528 N526 1.356 . S
C529 C523 1.363 . S
C529 C524 1.379 . S
C529 N527 1.356 . S
N530 C522 1.356 . S
N530 H536 0.984 . S
N530 H537 0.984 . S
N531 C524 1.356 . S
N531 H534 0.984 . S
N531 H535 0.985 . S
H532 N527 0.984 . S
H533 N527 0.985 . S
H534 N531 0.984 . S
H535 N531 0.985 . S
H536 N530 0.984 . S
H537 N530 0.984 . S
H538 N526 0.984 . S
H539 N526 0.985 . S
C540 C541 1.363 . S
C540 C546 1.379 . S
C540 N548 1.356 . S
C541 C540 1.363 . S
C541 C547 1.363 . S
C542 C543 1.363 . S
C542 C547 1.379 . S
C542 N549 1.356 . S
C543 C542 1.363 . S
C543 C546 1.363 . S
N544 C546 1.356 . S
N544 H556 0.984 . S
N544 H557 0.985 . S
N545 C547 1.356 . S
N545 H550 0.984 . S
N545 H551 0.985 . S
C546 C540 1.379 . S
C546 C543 1.363 . S
C546 N544 1.356 . S
C547 C541 1.363 . S
C547 C542 1.379 . S
C547 N545 1.356 . S
N548 C540 1.356 . S
N548 H554 0.984 . S
N548 H555 0.984 . S
N549 C542 1.356 . S
N549 H552 0.984 . S
N549 H553 0.985 . S
H550 N545 0.984 . S
H551 N545 0.985 . S
H552 N549 0.984 . S
H553 N549 0.985 . S
H554 N548 0.984 . S
H555 N548 0.984 . S
H556 N544 0.984 . S
H557 N544 0.985 . S
C558 C559 1.363 . S
C558 C564 1.379 . S
C558 N566 1.356 . S
C559 C558 1.363 . S
C559 C565 1.363 . S
C560 C561 1.363 . S
C560 C565 1.379 . S
C560 N567 1.356 . S
C561 C560 1.363 . S
C561 C564 1.363 . S
N562 C564 1.356 . S
N562 H574 0.984 . S
N562 H575 0.985 . S
N563 C565 1.356 . S
N563 H568 0.984 . S
N563 H569 0.985 . S
C564 C558 1.379 . S
C564 C561 1.363 . S
C564 N562 1.356 . S
C565 C559 1.363 . S
C565 C560 1.379 . S
C565 N563 1.356 . S
N566 C558 1.356 . S
N566 H572 0.984 . S
N566 H573 0.984 . S
N567 C560 1.356 . S
N567 H570 0.984 . S
N567 H571 0.985 . S
H568 N563 0.984 . S
H569 N563 0.985 . S
H570 N567 0.984 . S
H571 N567 0.985 . S
H572 N566 0.984 . S
H573 N566 0.984 . S
H574 N562 0.984 . S
H575 N562 0.985 . S
C576 C577 1.363 . S
C576 C582 1.379 . S
C576 N584 1.356 . S
C577 C576 1.363 . S
C577 C583 1.363 . S
C578 C579 1.363 . S
C578 C583 1.379 . S
C578 N585 1.356 . S
C579 C578 1.363 . S
C579 C582 1.363 . S
N580 C582 1.356 . S
N580 H592 0.984 . S
N580 H593 0.985 1_554 S
N581 C583 1.356 . S
N581 H586 0.984 . S
N581 H587 0.985 . S
C582 C576 1.379 . S
C582 C579 1.363 . S
C582 N580 1.356 . S
C583 C577 1.363 . S
C583 C578 1.379 . S
C583 N581 1.356 . S
N584 C576 1.356 . S
N584 H590 0.984 . S
N584 H591 0.984 . S
N585 C578 1.356 . S
N585 H588 0.984 1_554 S
N585 H589 0.985 . S
H586 N581 0.984 . S
H587 N581 0.985 . S
H588 N585 0.984 1_556 S
H589 N585 0.985 . S
H590 N584 0.984 . S
H591 N584 0.984 . S
H592 N580 0.984 . S
H593 N580 0.985 1_556 S
C594 C595 1.363 . S
C594 C600 1.379 . S
C594 N602 1.356 . S
C595 C594 1.363 . S
C595 C601 1.363 . S
C596 C597 1.363 . S
C596 C601 1.379 . S
C596 N603 1.356 . S
C597 C596 1.363 . S
C597 C600 1.363 . S
N598 C600 1.356 . S
N598 H610 0.984 . S
N598 H611 0.985 . S
N599 C601 1.356 . S
N599 H604 0.984 1_554 S
N599 H605 0.985 . S
C600 C594 1.379 . S
C600 C597 1.363 . S
C600 N598 1.356 . S
C601 C595 1.363 . S
C601 C596 1.379 . S
C601 N599 1.356 . S
N602 C594 1.356 . S
N602 H608 0.984 . S
N602 H609 0.984 1_554 S
N603 C596 1.356 . S
N603 H606 0.984 . S
N603 H607 0.985 . S
H604 N599 0.984 1_556 S
H605 N599 0.985 . S
H606 N603 0.984 . S
H607 N603 0.985 . S
H608 N602 0.984 . S
H609 N602 0.984 1_556 S
H610 N598 0.984 . S
H611 N598 0.985 . S
C612 C613 1.363 . S
C612 C618 1.379 . S
C612 N620 1.356 . S
C613 C612 1.363 . S
C613 C619 1.363 . S
C614 C615 1.363 . S
C614 C619 1.379 . S
C614 N621 1.356 . S
C615 C614 1.363 . S
C615 C618 1.363 . S
N616 C618 1.356 . S
N616 H628 0.984 . S
N616 H629 0.985 . S
N617 C619 1.356 . S
N617 H622 0.990 . S
N617 H623 0.985 . S
C618 C612 1.379 . S
C618 C615 1.363 . S
C618 N616 1.356 . S
C619 C613 1.363 . S
C619 C614 1.379 . S
C619 N617 1.356 . S
N620 C612 1.356 . S
N620 H626 0.984 . S
N620 H627 0.984 1_554 S
N621 C614 1.356 . S
N621 H624 0.984 . S
N621 H625 0.985 . S
H622 N617 0.990 . S
H623 N617 0.985 . S
H624 N621 0.984 . S
H625 N621 0.985 . S
H626 N620 0.984 . S
H627 N620 0.984 1_556 S
H628 N616 0.984 . S
H629 N616 0.985 . S
C630 C631 1.363 . S
C630 C636 1.379 . S
C630 N638 1.356 . S
C631 C630 1.363 . S
C631 C637 1.363 . S
C632 C633 1.363 . S
C632 C637 1.379 . S
C632 N639 1.356 . S
C633 C632 1.363 . S
C633 C636 1.363 . S
N634 C636 1.356 . S
N634 H646 0.984 . S
N634 H647 0.985 . S
N635 C637 1.356 . S
N635 H640 0.984 1_556 S
N635 H641 0.985 . S
C636 C630 1.379 . S
C636 C633 1.363 . S
C636 N634 1.356 . S
C637 C631 1.363 . S
C637 C632 1.379 . S
C637 N635 1.356 . S
N638 C630 1.356 . S
N638 H644 0.984 . S
N638 H645 0.984 1_556 S
N639 C632 1.356 . S
N639 H642 0.984 . S
N639 H643 0.985 . S
H640 N635 0.984 1_554 S
H641 N635 0.985 . S
H642 N639 0.984 . S
H643 N639 0.985 . S
H644 N638 0.984 . S
H645 N638 0.984 1_554 S
H646 N634 0.984 . S
H647 N634 0.985 . S
C648 C649 1.363 . S
C648 C654 1.379 . S
C648 N656 1.356 . S
C649 C648 1.363 . S
C649 C655 1.363 . S
C650 C651 1.363 . S
C650 C655 1.379 . S
C650 N657 1.356 . S
C651 C650 1.363 . S
C651 C654 1.363 . S
N652 C654 1.356 . S
N652 H664 0.984 . S
N652 H665 0.985 . S
N653 C655 1.356 . S
N653 H658 0.984 . S
N653 H659 0.985 . S
C654 C648 1.379 . S
C654 C651 1.363 . S
C654 N652 1.356 . S
C655 C649 1.363 . S
C655 C650 1.379 . S
C655 N653 1.356 . S
N656 C648 1.356 . S
N656 H662 0.984 . S
N656 H663 0.984 . S
N657 C650 1.356 . S
N657 H660 0.984 . S
N657 H661 0.985 . S
H658 N653 0.984 . S
H659 N653 0.985 . S
H660 N657 0.984 . S
H661 N657 0.985 . S
H662 N656 0.984 . S
H663 N656 0.984 . S
H664 N652 0.984 . S
H665 N652 0.985 . S
C666 C667 1.363 . S
C666 C672 1.379 . S
C666 N674 1.356 . S
C667 C666 1.363 . S
C667 C673 1.363 . S
C668 C669 1.363 . S
C668 C673 1.379 . S
C668 N675 1.356 . S
C669 C668 1.363 . S
C669 C672 1.363 . S
N670 C672 1.356 . S
N670 H682 0.984 . S
N670 H683 0.985 . S
N671 C673 1.356 . S
N671 H676 0.984 1_556 S
N671 H677 0.985 . S
C672 C666 1.379 . S
C672 C669 1.363 . S
C672 N670 1.356 . S
C673 C667 1.363 . S
C673 C668 1.379 . S
C673 N671 1.356 . S
N674 C666 1.356 . S
N674 H680 0.984 . S
N674 H681 0.984 1_556 S
N675 C668 1.356 . S
N675 H678 0.984 . S
N675 H679 0.985 . S
H676 N671 0.984 1_554 S
H677 N671 0.985 . S
H678 N675 0.984 . S
H679 N675 0.985 . S
H680 N674 0.984 . S
H681 N674 0.984 1_554 S
H682 N670 0.984 . S
H683 N670 0.985 . S
C684 C685 1.363 . S
C684 C690 1.379 . S
C684 N692 1.356 . S
C685 C684 1.363 . S
C685 C691 1.363 . S
C686 C687 1.363 . S
C686 C691 1.379 . S
C686 N693 1.356 . S
C687 C686 1.363 . S
C687 C690 1.363 . S
N688 C690 1.356 . S
N688 H700 0.984 . S
N688 H701 0.985 . S
N689 C691 1.356 . S
N689 H694 0.984 . S
N689 H695 0.985 . S
C690 C684 1.379 . S
C690 C687 1.363 . S
C690 N688 1.356 . S
C691 C685 1.363 . S
C691 C686 1.379 . S
C691 N689 1.356 . S
N692 C684 1.356 . S
N692 H698 0.984 . S
N692 H699 0.984 . S
N693 C686 1.356 . S
N693 H696 0.984 . S
N693 H697 0.985 . S
H694 N689 0.984 . S
H695 N689 0.985 . S
H696 N693 0.984 . S
H697 N693 0.985 . S
H698 N692 0.984 . S
H699 N692 0.984 . S
H700 N688 0.984 . S
H701 N688 0.985 . S
C702 C703 1.363 . S
C702 C708 1.379 . S
C702 N710 1.356 . S
C703 C702 1.363 . S
C703 C709 1.363 . S
C704 C705 1.363 . S
C704 C709 1.379 . S
C704 N711 1.356 . S
C705 C704 1.363 . S
C705 C708 1.363 . S
N706 C708 1.356 . S
N706 H718 0.984 . S
N706 H719 0.985 . S
N707 C709 1.356 . S
N707 H712 0.984 . S
N707 H713 0.985 . S
C708 C702 1.379 . S
C708 C705 1.363 . S
C708 N706 1.356 . S
C709 C703 1.363 . S
C709 C704 1.379 . S
C709 N707 1.356 . S
N710 C702 1.356 . S
N710 H716 0.984 . S
N710 H717 0.984 . S
N711 C704 1.356 . S
N711 H714 0.984 . S
N711 H715 0.985 . S
H712 N707 0.984 . S
H713 N707 0.985 . S
H714 N711 0.984 . S
H715 N711 0.985 . S
H716 N710 0.984 . S
H717 N710 0.984 . S
H718 N706 0.984 . S
H719 N706 0.985 . S
C720 C721 1.363 . S
C720 C726 1.379 . S
C720 N728 1.356 . S
C721 C720 1.363 . S
C721 C727 1.363 . S
C722 C723 1.363 . S
C722 C727 1.379 . S
C722 N729 1.356 . S
C723 C722 1.363 . S
C723 C726 1.363 . S
N724 C726 1.356 . S
N724 H736 0.984 . S
N724 H737 0.985 . S
N725 C727 1.356 . S
N725 H730 0.984 . S
N725 H731 0.985 . S
C726 C720 1.379 . S
C726 C723 1.363 . S
C726 N724 1.356 . S
C727 C721 1.363 . S
C727 C722 1.379 . S
C727 N725 1.356 . S
N728 C720 1.356 . S
N728 H734 0.984 . S
N728 H735 0.984 . S
N729 C722 1.356 . S
N729 H732 0.984 . S
N729 H733 0.985 . S
H730 N725 0.984 . S
H731 N725 0.985 . S
H732 N729 0.984 . S
H733 N729 0.985 . S
H734 N728 0.984 . S
H735 N728 0.984 . S
H736 N724 0.984 . S
H737 N724 0.985 . S
C738 C739 1.363 . S
C738 C744 1.379 . S
C738 N746 1.356 . S
C739 C738 1.363 . S
C739 C745 1.363 . S
C740 C741 1.363 . S
C740 C745 1.379 . S
C740 N747 1.356 . S
C741 C740 1.363 . S
C741 C744 1.363 . S
N742 C744 1.356 . S
N742 H754 0.984 . S
N742 H755 0.985 . S
N743 C745 1.356 . S
N743 H748 0.984 . S
N743 H749 0.985 . S
C744 C738 1.379 . S
C744 C741 1.363 . S
C744 N742 1.356 . S
C745 C739 1.363 . S
C745 C740 1.379 . S
C745 N743 1.356 . S
N746 C738 1.356 . S
N746 H752 0.985 . S
N746 H753 0.984 . S
N747 C740 1.356 . S
N747 H750 0.984 . S
N747 H751 0.985 . S
H748 N743 0.984 . S
H749 N743 0.985 . S
H750 N747 0.984 . S
H751 N747 0.985 . S
H752 N746 0.985 . S
H753 N746 0.984 . S
H754 N742 0.984 . S
H755 N742 0.985 . S
C756 C757 1.363 . S
C756 C762 1.379 . S
C756 N764 1.356 . S
C757 C756 1.363 . S
C757 C763 1.363 . S
C758 C759 1.363 . S
C758 C763 1.379 . S
C758 N765 1.345 1_556 S
C759 C758 1.363 . S
C759 C762 1.363 . S
N760 C762 1.356 . S
N760 H772 0.984 . S
N760 H773 0.985 . S
N761 C763 1.356 . S
N761 H766 0.984 . S
N761 H767 0.985 . S
C762 C756 1.379 . S
C762 C759 1.363 . S
C762 N760 1.356 . S
C763 C757 1.363 . S
C763 C758 1.379 . S
C763 N761 1.356 . S
N764 C756 1.356 . S
N764 H770 0.984 . S
N764 H771 0.984 . S
N765 C758 1.345 1_554 S
N765 H768 0.988 . S
N765 H769 0.992 . S
H766 N761 0.984 . S
H767 N761 0.985 . S
H768 N765 0.988 . S
H769 N765 0.992 . S
H770 N764 0.984 . S
H771 N764 0.984 . S
H772 N760 0.984 . S
H773 N760 0.985 . S
C774 C775 1.363 . S
C774 C780 1.379 . S
C774 N782 1.356 . S
C775 C774 1.363 . S
C775 C781 1.363 . S
C776 C777 1.363 . S
C776 C781 1.379 . S
C776 N783 1.356 . S
C777 C776 1.363 . S
C777 C780 1.363 . S
N778 C780 1.356 1_554 S
N778 H790 0.984 . S
N778 H791 0.985 . S
N779 C781 1.356 . S
N779 H784 0.984 . S
N779 H785 0.985 . S
C780 C774 1.379 . S
C780 C777 1.363 . S
C780 N778 1.356 1_556 S
C781 C775 1.363 . S
C781 C776 1.379 . S
C781 N779 1.356 . S
N782 C774 1.356 . S
N782 H788 0.984 . S
N782 H789 0.984 . S
N783 C776 1.356 . S
N783 H786 0.984 . S
N783 H787 0.985 . S
H784 N779 0.984 . S
H785 N779 0.985 . S
H786 N783 0.984 . S
H787 N783 0.985 . S
H788 N782 0.984 . S
H789 N782 0.984 . S
H790 N778 0.984 . S
H791 N778 0.985 . S
C792 C793 1.363 . S
C792 C798 1.379 . S
C792 N800 1.356 1_545 S
C793 C792 1.363 . S
C793 C799 1.363 . S
C794 C795 1.363 . S
C794 C799 1.379 . S
C794 N801 1.356 . S
C795 C794 1.363 . S
C795 C798 1.363 . S
N796 C798 1.356 . S
N796 H808 0.984 1_545 S
N796 H809 0.985 . S
N797 C799 1.356 . S
N797 H802 0.984 . S
N797 H803 0.985 . S
C798 C792 1.379 . S
C798 C795 1.363 . S
C798 N796 1.356 . S
C799 C793 1.363 . S
C799 C794 1.379 . S
C799 N797 1.356 . S
N800 C792 1.356 1_565 S
N800 H806 0.984 . S
N800 H807 0.984 . S
N801 C794 1.356 . S
N801 H804 0.984 . S
N801 H805 0.985 . S
H802 N797 0.984 . S
H803 N797 0.985 . S
H804 N801 0.984 . S
H805 N801 0.985 . S
H806 N800 0.984 . S
H807 N800 0.984 . S
H808 N796 0.984 1_565 S
H809 N796 0.985 . S
C810 C811 1.363 . S
C810 C816 1.379 . S
C810 N818 1.356 . S
C811 C810 1.363 . S
C811 C817 1.363 . S
C812 C813 1.363 . S
C812 C817 1.379 . S
C812 N819 1.356 . S
C813 C812 1.363 . S
C813 C816 1.363 . S
N814 C816 1.356 . S
N814 H826 0.984 . S
N814 H827 0.985 . S
N815 C817 1.356 . S
N815 H820 0.984 . S
N815 H821 0.985 . S
C816 C810 1.379 . S
C816 C813 1.363 . S
C816 N814 1.356 . S
C817 C811 1.363 . S
C817 C812 1.379 . S
C817 N815 1.356 . S
N818 C810 1.356 . S
N818 H824 0.984 . S
N818 H825 0.984 . S
N819 C812 1.356 . S
N819 H822 0.984 1_655 S
N819 H823 0.985 1_655 S
H820 N815 0.984 . S
H821 N815 0.985 . S
H822 N819 0.984 1_455 S
H823 N819 0.985 1_455 S
H824 N818 0.984 . S
H825 N818 0.984 . S
H826 N814 0.984 . S
H827 N814 0.985 . S
C828 C829 1.363 . S
C828 C834 1.379 . S
C828 N836 1.356 . S
C829 C828 1.363 . S
C829 C835 1.363 . S
C830 C831 1.363 . S
C830 C835 1.379 . S
C830 N837 1.356 . S
C831 C830 1.363 . S
C831 C834 1.363 . S
N832 C834 1.356 . S
N832 H844 0.984 . S
N832 H845 0.985 . S
N833 C835 1.356 . S
N833 H838 0.984 . S
N833 H839 0.985 . S
C834 C828 1.379 . S
C834 C831 1.363 . S
C834 N832 1.356 . S
C835 C829 1.363 . S
C835 C830 1.379 . S
C835 N833 1.356 . S
N836 C828 1.356 . S
N836 H842 0.984 . S
N836 H843 0.984 . S
N837 C830 1.356 . S
N837 H840 0.984 . S
N837 H841 0.985 . S
H838 N833 0.984 . S
H839 N833 0.985 . S
H840 N837 0.984 . S
H841 N837 0.985 . S
H842 N836 0.984 . S
H843 N836 0.984 . S
H844 N832 0.984 . S
H845 N832 0.985 . S
C846 C847 1.363 . S
C846 C852 1.379 . S
C846 N854 1.356 . S
C847 C846 1.363 . S
C847 C853 1.363 . S
C848 C849 1.363 . S
C848 C853 1.379 . S
C848 N855 1.356 1_554 S
C849 C848 1.363 . S
C849 C852 1.363 . S
N850 C852 1.356 . S
N850 H862 0.984 . S
N850 H863 0.985 . S
N851 C853 1.356 . S
N851 H856 0.984 . S
N851 H857 0.985 . S
C852 C846 1.379 . S
C852 C849 1.363 . S
C852 N850 1.356 . S
C853 C847 1.363 . S
C853 C848 1.379 . S
C853 N851 1.356 . S
N854 C846 1.356 . S
N854 H860 0.984 . S
N854 H861 0.984 . S
N855 C848 1.356 1_556 S
N855 H858 0.984 . S
N855 H859 0.985 . S
H856 N851 0.984 . S
H857 N851 0.985 . S
H858 N855 0.984 . S
H859 N855 0.985 . S
H860 N854 0.984 . S
H861 N854 0.984 . S
H862 N850 0.984 . S
H863 N850 0.985 . S
C864 C865 1.363 . S
C864 C870 1.379 . S
C864 N872 1.356 . S
C865 C864 1.363 . S
C865 C871 1.363 . S
C866 C867 1.363 . S
C866 C871 1.379 . S
C866 N873 1.356 . S
C867 C866 1.363 . S
C867 C870 1.363 . S
N868 C870 1.356 . S
N868 H880 0.984 1_554 S
N868 H881 0.985 . S
N869 C871 1.356 . S
N869 H874 0.984 . S
N869 H875 0.985 . S
C870 C864 1.379 . S
C870 C867 1.363 . S
C870 N868 1.356 . S
C871 C865 1.363 . S
C871 C866 1.379 . S
C871 N869 1.356 . S
N872 C864 1.356 . S
N872 H878 0.984 . S
N872 H879 0.984 . S
N873 C866 1.356 . S
N873 H876 0.984 . S
N873 H877 0.985 . S
H874 N869 0.984 . S
H875 N869 0.985 . S
H876 N873 0.984 . S
H877 N873 0.985 . S
H878 N872 0.984 . S
H879 N872 0.984 . S
H880 N868 0.984 1_556 S
H881 N868 0.985 . S
C882 C883 1.363 . S
C882 C888 1.379 . S
C882 N890 1.356 . S
C883 C882 1.363 . S
C883 C889 1.363 . S
C884 C885 1.363 . S
C884 C889 1.379 . S
C884 N891 1.356 . S
C885 C884 1.363 . S
C885 C888 1.363 . S
N886 C888 1.356 . S
N886 H898 0.984 . S
N886 H899 0.985 . S
N887 C889 1.356 . S
N887 H892 0.984 . S
N887 H893 0.985 . S
C888 C882 1.379 . S
C888 C885 1.363 . S
C888 N886 1.356 . S
C889 C883 1.363 . S
C889 C884 1.379 . S
C889 N887 1.356 . S
N890 C882 1.356 . S
N890 H896 0.984 . S
N890 H897 0.984 . S
N891 C884 1.356 . S
N891 H894 0.984 . S
N891 H895 0.985 . S
H892 N887 0.984 . S
H893 N887 0.985 . S
H894 N891 0.984 . S
H895 N891 0.985 . S
H896 N890 0.984 . S
H897 N890 0.984 . S
H898 N886 0.984 . S
H899 N886 0.985 . S
C900 C901 1.363 . S
C900 C906 1.379 . S
C900 N908 1.356 . S
C901 C900 1.363 . S
C901 C907 1.363 . S
C902 C903 1.363 . S
C902 C907 1.379 . S
C902 N909 1.356 . S
C903 C902 1.363 . S
C903 C906 1.363 . S
N904 C906 1.356 . S
N904 H916 0.984 . S
N904 H917 0.985 . S
N905 C907 1.356 . S
N905 H910 0.984 . S
N905 H911 0.985 . S
C906 C900 1.379 . S
C906 C903 1.363 . S
C906 N904 1.356 . S
C907 C901 1.363 . S
C907 C902 1.379 . S
C907 N905 1.356 . S
N908 C900 1.356 . S
N908 H914 0.984 . S
N908 H915 0.984 . S
N909 C902 1.356 . S
N909 H912 0.984 . S
N909 H913 0.985 . S
H910 N905 0.984 . S
H911 N905 0.985 . S
H912 N909 0.984 . S
H913 N909 0.985 . S
H914 N908 0.984 . S
H915 N908 0.984 . S
H916 N904 0.984 . S
H917 N904 0.985 . S
C918 C919 1.363 . S
C918 C924 1.379 . S
C918 N926 1.356 . S
C919 C918 1.363 . S
C919 C925 1.363 . S
C920 C921 1.363 . S
C920 C925 1.379 . S
C920 N927 1.356 . S
C921 C920 1.363 . S
C921 C924 1.363 . S
N922 C924 1.356 . S
N922 H934 0.984 . S
N922 H935 0.985 . S
N923 C925 1.356 . S
N923 H928 0.984 . S
N923 H929 0.985 . S
C924 C918 1.379 . S
C924 C921 1.363 . S
C924 N922 1.356 . S
C925 C919 1.363 . S
C925 C920 1.379 . S
C925 N923 1.356 . S
N926 C918 1.356 . S
N926 H932 0.984 . S
N926 H933 0.984 . S
N927 C920 1.356 . S
N927 H930 0.984 . S
N927 H931 0.985 . S
H928 N923 0.984 . S
H929 N923 0.985 . S
H930 N927 0.984 . S
H931 N927 0.985 . S
H932 N926 0.984 . S
H933 N926 0.984 . S
H934 N922 0.984 . S
H935 N922 0.985 . S
C936 C937 1.363 . S
C936 C942 1.379 . S
C936 N944 1.356 . S
C937 C936 1.363 . S
C937 C943 1.363 . S
C938 C939 1.363 . S
C938 C943 1.379 . S
C938 N945 1.356 . S
C939 C938 1.363 . S
C939 C942 1.363 . S
N940 C942 1.356 . S
N940 H952 0.984 . S
N940 H953 0.985 . S
N941 C943 1.356 . S
N941 H946 0.984 . S
N941 H947 0.985 . S
C942 C936 1.379 . S
C942 C939 1.363 . S
C942 N940 1.356 . S
C943 C937 1.363 . S
C943 C938 1.379 . S
C943 N941 1.356 . S
N944 C936 1.356 . S
N944 H950 0.984 . S
N944 H951 0.984 . S
N945 C938 1.356 . S
N945 H948 0.984 . S
N945 H949 0.985 . S
H946 N941 0.984 . S
H947 N941 0.985 . S
H948 N945 0.984 . S
H949 N945 0.985 . S
H950 N944 0.984 . S
H951 N944 0.984 . S
H952 N940 0.984 . S
H953 N940 0.985 . S
C954 C955 1.363 . S
C954 C960 1.379 . S
C954 N962 1.356 . S
C955 C954 1.363 . S
C955 C961 1.363 . S
C956 C957 1.363 . S
C956 C961 1.379 . S
C956 N963 1.356 . S
C957 C956 1.363 . S
C957 C960 1.363 . S
N958 C960 1.356 . S
N958 H970 0.984 . S
N958 H971 0.985 . S
N959 C961 1.356 . S
N959 H964 0.984 . S
N959 H965 0.985 . S
C960 C954 1.379 . S
C960 C957 1.363 . S
C960 N958 1.356 . S
C961 C955 1.363 . S
C961 C956 1.379 . S
C961 N959 1.356 . S
N962 C954 1.356 . S
N962 H968 0.984 . S
N962 H969 0.984 . S
N963 C956 1.356 . S
N963 H966 0.984 . S
N963 H967 0.985 . S
H964 N959 0.984 . S
H965 N959 0.985 . S
H966 N963 0.984 . S
H967 N963 0.985 . S
H968 N962 0.984 . S
H969 N962 0.984 . S
H970 N958 0.984 . S
H971 N958 0.985 . S
C972 C973 1.363 1_565 S
C972 C978 1.379 . S
C972 N980 1.356 1_565 S
C973 C972 1.363 1_545 S
C973 C979 1.363 . S
C974 C975 1.363 . S
C974 C979 1.379 1_565 S
C974 N981 1.356 . S
C975 C974 1.363 . S
C975 C978 1.363 . S
N976 C978 1.356 . S
N976 H988 0.984 . S
N976 H989 0.985 . S
N977 C979 1.356 . S
N977 H982 0.984 . S
N977 H983 0.985 . S
C978 C972 1.379 . S
C978 C975 1.363 . S
C978 N976 1.356 . S
C979 C973 1.363 . S
C979 C974 1.379 1_545 S
C979 N977 1.356 . S
N980 C972 1.356 1_545 S
N980 H986 0.984 1_545 S
N980 H987 0.984 . S
N981 C974 1.356 . S
N981 H984 0.984 . S
N981 H985 0.985 . S
H982 N977 0.984 . S
H983 N977 0.985 . S
H984 N981 0.984 . S
H985 N981 0.985 . S
H986 N980 0.984 1_565 S
H987 N980 0.984 . S
H988 N976 0.984 . S
H989 N976 0.985 . S
C990 C991 1.363 . S
C990 C996 1.379 1_455 S
C990 N998 1.356 . S
C991 C990 1.363 . S
C991 C997 1.363 . S
C992 C993 1.363 . S
C992 C997 1.379 1_655 S
C992 N999 1.356 . S
C993 C992 1.363 . S
C993 C996 1.363 . S
N994 C996 1.356 . S
N994 H1006 0.984 . S
N994 H1007 0.985 . S
N995 C997 1.356 . S
N995 H1000 0.984 . S
N995 H1001 0.985 . S
C996 C990 1.379 1_655 S
C996 C993 1.363 . S
C996 N994 1.356 . S
C997 C991 1.363 . S
C997 C992 1.379 1_455 S
C997 N995 1.356 . S
N998 C990 1.356 . S
N998 H1004 0.975 1_455 S
N998 H1005 0.984 . S
N999 C992 1.356 . S
N999 H1002 0.984 . S
N999 H1003 0.985 1_655 S
H1000 N995 0.984 . S
H1001 N995 0.985 . S
H1002 N999 0.984 . S
H1003 N999 0.985 1_455 S
H1004 N998 0.975 1_655 S
H1005 N998 0.984 . S
H1006 N994 0.984 . S
H1007 N994 0.985 . S
C1008 C1009 1.363 . S
C1008 C1014 1.379 . S
C1008 N1016 1.356 . S
C1009 C1008 1.363 . S
C1009 C1015 1.363 . S
C1010 C1011 1.363 . S
C1010 C1015 1.379 . S
C1010 N1017 1.356 . S
C1011 C1010 1.363 . S
C1011 C1014 1.363 . S
N1012 C1014 1.356 . S
N1012 H1024 0.984 . S
N1012 H1025 0.985 . S
N1013 C1015 1.356 . S
N1013 H1018 0.984 . S
N1013 H1019 0.985 . S
C1014 C1008 1.379 . S
C1014 C1011 1.363 . S
C1014 N1012 1.356 . S
C1015 C1009 1.363 . S
C1015 C1010 1.379 . S
C1015 N1013 1.356 . S
N1016 C1008 1.356 . S
N1016 H1022 0.984 . S
N1016 H1023 0.984 . S
N1017 C1010 1.356 . S
N1017 H1020 0.984 . S
N1017 H1021 0.985 . S
H1018 N1013 0.984 . S
H1019 N1013 0.985 . S
H1020 N1017 0.984 . S
H1021 N1017 0.985 . S
H1022 N1016 0.984 . S
H1023 N1016 0.984 . S
H1024 N1012 0.984 . S
H1025 N1012 0.985 . S
C1026 C1027 1.363 . S
C1026 C1032 1.379 1_545 S
C1026 N1034 1.356 . S
C1027 C1026 1.363 . S
C1027 C1033 1.363 1_545 S
C1028 C1029 1.363 . S
C1028 C1033 1.379 . S
C1028 N1035 1.356 . S
C1029 C1028 1.363 . S
C1029 C1032 1.363 . S
N1030 C1032 1.356 . S
N1030 H1042 0.984 . S
N1030 H1043 0.985 . S
N1031 C1033 1.356 1_545 S
N1031 H1036 0.984 . S
N1031 H1037 0.985 1_545 S
C1032 C1026 1.379 1_565 S
C1032 C1029 1.363 . S
C1032 N1030 1.356 . S
C1033 C1027 1.363 1_565 S
C1033 C1028 1.379 . S
C1033 N1031 1.356 1_565 S
N1034 C1026 1.356 . S
N1034 H1040 0.984 . S
N1034 H1041 0.984 . S
N1035 C1028 1.356 . S
N1035 H1038 0.984 . S
N1035 H1039 0.985 . S
H1036 N1031 0.984 . S
H1037 N1031 0.985 1_565 S
H1038 N1035 0.984 . S
H1039 N1035 0.985 . S
H1040 N1034 0.984 . S
H1041 N1034 0.984 . S
H1042 N1030 0.984 . S
H1043 N1030 0.985 . S
C1044 C1045 1.363 . S
C1044 C1050 1.379 1_455 S
C1044 N1052 1.356 . S
C1045 C1044 1.363 . S
C1045 C1051 1.363 . S
C1046 C1047 1.363 . S
C1046 C1051 1.379 1_655 S
C1046 N1053 1.356 . S
C1047 C1046 1.363 . S
C1047 C1050 1.363 . S
N1048 C1050 1.356 . S
N1048 H1060 0.984 . S
N1048 H1061 0.985 . S
N1049 C1051 1.356 . S
N1049 H1054 0.984 . S
N1049 H1055 0.985 . S
C1050 C1044 1.379 1_655 S
C1050 C1047 1.363 . S
C1050 N1048 1.356 . S
C1051 C1045 1.363 . S
C1051 C1046 1.379 1_455 S
C1051 N1049 1.356 . S
N1052 C1044 1.356 . S
N1052 H1058 0.984 . S
N1052 H1059 0.984 . S
N1053 C1046 1.356 . S
N1053 H1056 0.984 . S
N1053 H1057 0.985 . S
H1054 N1049 0.984 . S
H1055 N1049 0.985 . S
H1056 N1053 0.984 . S
H1057 N1053 0.985 . S
H1058 N1052 0.984 . S
H1059 N1052 0.984 . S
H1060 N1048 0.984 . S
H1061 N1048 0.985 . S
C415 N104 1.260 . S
C417 N12 1.262 . S
C433 N117 1.928 . S
C435 C39 1.939 . S
C451 N58 1.229 . S
C453 N71 1.249 . S
C469 N94 1.229 . S
C471 N2 1.232 . S
C487 N127 1.883 . S
C489 C30 1.920 . S
C505 N48 1.196 . S
C507 N81 1.200 . S
C523 N232 1.258 . S
C525 N150 1.243 . S
C541 N255 1.267 . S
C543 N173 1.246 . S
C559 N196 1.233 . S
C561 N209 1.252 . S
C577 N140 1.184 . S
C579 N242 1.174 1_554 S
C595 N265 1.162 1_554 S
C597 N163 1.188 . S
C613 N219 1.197 1_554 S
C615 N186 1.196 . S
C631 N380 1.265 1_556 S
C633 N288 1.265 . S
C649 C315 1.942 . S
C651 N403 1.909 1_556 S
C667 N347 1.241 1_556 S
C669 N324 1.240 . S
C685 N370 1.211 . S
C687 N278 1.214 . S
C703 N393 1.910 . S
C705 C306 1.933 . S
C721 N334 1.168 . S
C723 N357 1.170 . S
C739 C16 1.495 . S
C741 C214 1.516 . S
C757 C237 1.570 . S
C759 N35 1.539 . S
C775 C260 1.524 . S
C777 C62 1.526 . S
C793 C76 1.585 . S
C795 C292 1.596 . S
C811 N311 1.502 . S
C813 C108 1.513 . S
C829 C329 1.567 . S
C831 C122 1.566 . S
C847 C361 1.553 . S
C849 C7 1.543 . S
C865 C375 1.594 . S
C867 N25 1.610 . S
C883 C398 1.526 . S
C885 C53 1.525 . S
C901 C85 1.520 . S
C903 C145 1.541 . S
C919 C99 1.543 . S
C921 C168 1.541 . S
C937 C191 1.547 . S
C939 C131 1.522 . S
C955 C352 1.548 . S
C957 C154 1.546 . S
C973 C384 1.535 . S
C975 C177 1.573 . S
C991 C200 1.529 . S
C993 C407 1.522 . S
C1009 C283 1.570 . S
C1011 C223 1.564 . S
C1027 N301 1.490 . S
C1029 C246 1.502 . S
C1045 C269 1.537 . S
C1047 C338 1.562 . S
