# Generated by pormake.
# Topology umk, (4)-cn, num edge types: 1
# Building blocks:
#     Node 0, Type 0, BuildingBlock: ICAMEG_clean_sbu_1, # of connection points: 4
#     Node 1, Type 0, BuildingBlock: ICAMEG_clean_sbu_1, # of connection points: 4
#     Node 2, Type 0, BuildingBlock: ICAMEG_clean_sbu_1, # of connection points: 4
#     Node 3, Type 0, BuildingBlock: ICAMEG_clean_sbu_1, # of connection points: 4
#     Node 4, Type 0, BuildingBlock: ICAMEG_clean_sbu_1, # of connection points: 4
#     Node 5, Type 0, BuildingBlock: ICAMEG_clean_sbu_1, # of connection points: 4
#     Node 6, Type 0, BuildingBlock: ICAMEG_clean_sbu_1, # of connection points: 4
#     Node 7, Type 0, BuildingBlock: ICAMEG_clean_sbu_1, # of connection points: 4
#     Node 8, Type 0, BuildingBlock: ICAMEG_clean_sbu_1, # of connection points: 4
#     Node 9, Type 0, BuildingBlock: ICAMEG_clean_sbu_1, # of connection points: 4
#     Node 10, Type 0, BuildingBlock: ICAMEG_clean_sbu_1, # of connection points: 4
#     Node 11, Type 0, BuildingBlock: ICAMEG_clean_sbu_1, # of connection points: 4
#     Node 12, Type 0, BuildingBlock: ICAMEG_clean_sbu_1, # of connection points: 4
#     Node 13, Type 0, BuildingBlock: ICAMEG_clean_sbu_1, # of connection points: 4
#     Node 14, Type 0, BuildingBlock: ICAMEG_clean_sbu_1, # of connection points: 4
#     Node 15, Type 0, BuildingBlock: ICAMEG_clean_sbu_1, # of connection points: 4
#     Node 16, Type 0, BuildingBlock: ICAMEG_clean_sbu_1, # of connection points: 4
#     Node 17, Type 0, BuildingBlock: ICAMEG_clean_sbu_1, # of connection points: 4
#     Node 18, Type 0, BuildingBlock: ICAMEG_clean_sbu_1, # of connection points: 4
#     Node 19, Type 0, BuildingBlock: ICAMEG_clean_sbu_1, # of connection points: 4
#     Node 20, Type 0, BuildingBlock: ICAMEG_clean_sbu_1, # of connection points: 4
#     Node 21, Type 0, BuildingBlock: ICAMEG_clean_sbu_1, # of connection points: 4
#     Node 22, Type 0, BuildingBlock: ICAMEG_clean_sbu_1, # of connection points: 4
#     Node 23, Type 0, BuildingBlock: ICAMEG_clean_sbu_1, # of connection points: 4
#     Edge 24, Type (0, 0), BuildingBlock: KIFKEQ_clean_linker_1, # of connection points: 2
#     Edge 25, Type (0, 0), BuildingBlock: KIFKEQ_clean_linker_1, # of connection points: 2
#     Edge 26, Type (0, 0), BuildingBlock: KIFKEQ_clean_linker_1, # of connection points: 2
#     Edge 27, Type (0, 0), BuildingBlock: KIFKEQ_clean_linker_1, # of connection points: 2
#     Edge 28, Type (0, 0), BuildingBlock: KIFKEQ_clean_linker_1, # of connection points: 2
#     Edge 29, Type (0, 0), BuildingBlock: KIFKEQ_clean_linker_1, # of connection points: 2
#     Edge 30, Type (0, 0), BuildingBlock: KIFKEQ_clean_linker_1, # of connection points: 2
#     Edge 31, Type (0, 0), BuildingBlock: KIFKEQ_clean_linker_1, # of connection points: 2
#     Edge 32, Type (0, 0), BuildingBlock: KIFKEQ_clean_linker_1, # of connection points: 2
#     Edge 33, Type (0, 0), BuildingBlock: KIFKEQ_clean_linker_1, # of connection points: 2
#     Edge 34, Type (0, 0), BuildingBlock: KIFKEQ_clean_linker_1, # of connection points: 2
#     Edge 35, Type (0, 0), BuildingBlock: KIFKEQ_clean_linker_1, # of connection points: 2
#     Edge 36, Type (0, 0), BuildingBlock: KIFKEQ_clean_linker_1, # of connection points: 2
#     Edge 37, Type (0, 0), BuildingBlock: KIFKEQ_clean_linker_1, # of connection points: 2
#     Edge 38, Type (0, 0), BuildingBlock: KIFKEQ_clean_linker_1, # of connection points: 2
#     Edge 39, Type (0, 0), BuildingBlock: KIFKEQ_clean_linker_1, # of connection points: 2
#     Edge 40, Type (0, 0), BuildingBlock: KIFKEQ_clean_linker_1, # of connection points: 2
#     Edge 41, Type (0, 0), BuildingBlock: KIFKEQ_clean_linker_1, # of connection points: 2
#     Edge 42, Type (0, 0), BuildingBlock: KIFKEQ_clean_linker_1, # of connection points: 2
#     Edge 43, Type (0, 0), BuildingBlock: KIFKEQ_clean_linker_1, # of connection points: 2
#     Edge 44, Type (0, 0), BuildingBlock: KIFKEQ_clean_linker_1, # of connection points: 2
#     Edge 45, Type (0, 0), BuildingBlock: KIFKEQ_clean_linker_1, # of connection points: 2
#     Edge 46, Type (0, 0), BuildingBlock: KIFKEQ_clean_linker_1, # of connection points: 2
#     Edge 47, Type (0, 0), BuildingBlock: KIFKEQ_clean_linker_1, # of connection points: 2
#     Edge 48, Type (0, 0), BuildingBlock: KIFKEQ_clean_linker_1, # of connection points: 2
#     Edge 49, Type (0, 0), BuildingBlock: KIFKEQ_clean_linker_1, # of connection points: 2
#     Edge 50, Type (0, 0), BuildingBlock: KIFKEQ_clean_linker_1, # of connection points: 2
#     Edge 51, Type (0, 0), BuildingBlock: KIFKEQ_clean_linker_1, # of connection points: 2
#     Edge 52, Type (0, 0), BuildingBlock: KIFKEQ_clean_linker_1, # of connection points: 2
#     Edge 53, Type (0, 0), BuildingBlock: KIFKEQ_clean_linker_1, # of connection points: 2
#     Edge 54, Type (0, 0), BuildingBlock: KIFKEQ_clean_linker_1, # of connection points: 2
#     Edge 55, Type (0, 0), BuildingBlock: KIFKEQ_clean_linker_1, # of connection points: 2
#     Edge 56, Type (0, 0), BuildingBlock: KIFKEQ_clean_linker_1, # of connection points: 2
#     Edge 57, Type (0, 0), BuildingBlock: KIFKEQ_clean_linker_1, # of connection points: 2
#     Edge 58, Type (0, 0), BuildingBlock: KIFKEQ_clean_linker_1, # of connection points: 2
#     Edge 59, Type (0, 0), BuildingBlock: KIFKEQ_clean_linker_1, # of connection points: 2
#     Edge 60, Type (0, 0), BuildingBlock: KIFKEQ_clean_linker_1, # of connection points: 2
#     Edge 61, Type (0, 0), BuildingBlock: KIFKEQ_clean_linker_1, # of connection points: 2
#     Edge 62, Type (0, 0), BuildingBlock: KIFKEQ_clean_linker_1, # of connection points: 2
#     Edge 63, Type (0, 0), BuildingBlock: KIFKEQ_clean_linker_1, # of connection points: 2
#     Edge 64, Type (0, 0), BuildingBlock: KIFKEQ_clean_linker_1, # of connection points: 2
#     Edge 65, Type (0, 0), BuildingBlock: KIFKEQ_clean_linker_1, # of connection points: 2
#     Edge 66, Type (0, 0), BuildingBlock: KIFKEQ_clean_linker_1, # of connection points: 2
#     Edge 67, Type (0, 0), BuildingBlock: KIFKEQ_clean_linker_1, # of connection points: 2
#     Edge 68, Type (0, 0), BuildingBlock: KIFKEQ_clean_linker_1, # of connection points: 2
#     Edge 69, Type (0, 0), BuildingBlock: KIFKEQ_clean_linker_1, # of connection points: 2
#     Edge 70, Type (0, 0), BuildingBlock: KIFKEQ_clean_linker_1, # of connection points: 2
#     Edge 71, Type (0, 0), BuildingBlock: KIFKEQ_clean_linker_1, # of connection points: 2
# Relax obj value: 0.072
# Max RMSD: 0.106
# Mean RMSD: 0.106
data_MOF--net-umk--node1-ICAMEG_clean_sbu_1--edge1-KIFKEQ_clean_linker_1
_symmetry_space_group_name_H-M    P1
_symmetry_Int_Tables_number       1
_symmetry_cell_setting            triclinic
loop_
_symmetry_equiv_pos_as_xyz
'x, y, z'
_cell_length_a     69.795048
_cell_length_b     69.794451
_cell_length_c     49.562033
_cell_angle_alpha  90.019443
_cell_angle_beta   89.911065
_cell_angle_gamma 119.99184
loop_
_atom_site_label
_atom_site_type_symbol
_atom_site_fract_x
_atom_site_fract_y
_atom_site_fract_z
_atom_type_partial_charge
Co0 Co 0.36717 0.492 0.1126 0.0
Co1 Co 0.34238 0.46583 0.05327 0.0
O2 O 0.34085 0.47538 0.09006 0.0
C3 C 0.34065 0.45624 0.15285 0.0
O4 O 0.33995 0.44125 0.13622 0.0
C5 C 0.31622 0.48867 0.04673 0.0
O6 O 0.33022 0.50417 0.06302 0.0
O7 O 0.36526 0.49648 0.04306 0.0
O8 O 0.38558 0.50857 0.08072 0.0
H9 H 0.38121 0.46166 0.96993 0.0
H10 H 0.32569 0.49123 0.12759 0.0
O11 O 0.34971 0.47643 0.14564 0.0
H12 H 0.38059 0.56995 0.11327 0.0
H13 H 0.408 0.53381 0.19584 0.0
H14 H 0.41444 0.50474 0.10766 0.0
H15 H 0.39112 0.54129 0.10797 0.0
H16 H 0.37533 0.51368 0.1666 0.0
O17 O 0.31855 0.47212 0.0411 0.0
H18 H 0.37886 0.47309 0.01636 0.0
H19 H 0.30871 0.43872 0.01172 0.0
H20 H 0.44756 0.52496 0.13617 0.0
H21 H 0.31452 0.5194 0.13342 0.0
H22 H 0.44446 0.53964 0.18062 0.0
H23 H 0.34206 0.55907 0.12615 0.0
O24 O 0.37567 0.46891 0.10722 0.0
H25 H 0.27083 0.40867 0.09517 0.0
H26 H 0.33796 0.42125 0.04683 0.0
H27 H 0.3101 0.38336 0.06036 0.0
H28 H 0.27621 0.37687 0.08465 0.0
H29 H 0.29922 0.44634 0.08144 0.0
H30 H 0.3103 0.42706 0.96517 0.0
H31 H 0.34674 0.43847 0.94402 0.0
O32 O 0.36608 0.459 0.06406 0.0
C33 C 0.38259 0.51037 0.05571 0.0
C34 C 0.36522 0.45652 0.97896 0.0
C35 C 0.32543 0.43712 0.97628 0.0
N36 N 0.34368 0.45642 0.01681 0.0
C37 C 0.36379 0.46289 0.00526 0.0
C38 C 0.32464 0.44381 1.00262 0.0
C39 C 0.34588 0.44353 0.96442 0.0
C40 C 0.33782 0.50849 0.12466 0.0
N41 N 0.35903 0.5146 0.1175 0.0
C42 C 0.33138 0.52435 0.12788 0.0
C43 C 0.34683 0.5466 0.12375 0.0
C44 C 0.36844 0.55271 0.11649 0.0
C45 C 0.37428 0.53639 0.11342 0.0
C46 C 0.40957 0.52753 0.17649 0.0
C47 C 0.41297 0.5112 0.1269 0.0
C48 C 0.39112 0.51607 0.15986 0.0
N49 N 0.393 0.50818 0.13533 0.0
C50 C 0.43178 0.52258 0.14299 0.0
C51 C 0.43003 0.5308 0.16794 0.0
C52 C 0.37601 0.45901 0.08572 0.0
C53 C 0.28549 0.41128 0.08453 0.0
C54 C 0.32329 0.41858 0.05748 0.0
C55 C 0.30755 0.39707 0.06503 0.0
C56 C 0.28854 0.39345 0.07865 0.0
N57 N 0.32015 0.43597 0.06323 0.0
C58 C 0.30159 0.43255 0.07664 0.0
Co59 Co 0.88093 0.36518 0.60656 0.0
Co60 Co 0.88347 0.33792 0.54989 0.0
O61 O 0.87172 0.33817 0.5857 0.0
C62 C 0.88926 0.33886 0.64763 0.0
O63 O 0.90219 0.33644 0.63037 0.0
C64 C 0.83471 0.31327 0.54007 0.0
O65 O 0.83347 0.32945 0.55192 0.0
O66 O 0.87702 0.36118 0.5366 0.0
O67 O 0.88262 0.38206 0.57338 0.0
H68 H 0.92923 0.37239 0.46679 0.0
H69 H 0.84046 0.32373 0.62224 0.0
O70 O 0.87919 0.34908 0.64076 0.0
H71 H 0.81551 0.3771 0.60284 0.0
H72 H 0.87846 0.40856 0.6864 0.0
H73 H 0.91481 0.41246 0.59954 0.0
H74 H 0.85496 0.3882 0.59901 0.0
H75 H 0.86673 0.37492 0.65917 0.0
O76 O 0.85333 0.31414 0.53791 0.0
H77 H 0.91456 0.37241 0.5121 0.0
H78 H 0.87653 0.30224 0.51119 0.0
H79 H 0.92694 0.44652 0.62603 0.0
H80 H 0.80086 0.31198 0.62653 0.0
H81 H 0.90872 0.4447 0.66981 0.0
H82 H 0.78817 0.33876 0.61673 0.0
O83 O 0.91276 0.37418 0.60214 0.0
H84 H 0.86573 0.26775 0.59842 0.0
H85 H 0.92243 0.33115 0.54663 0.0
H86 H 0.93087 0.30309 0.564 0.0
H87 H 0.90237 0.27107 0.59006 0.0
H88 H 0.85809 0.29634 0.58089 0.0
H89 H 0.89063 0.30146 0.46577 0.0
H90 H 0.91725 0.33671 0.44332 0.0
O91 O 0.91402 0.36131 0.56099 0.0
C92 C 0.87931 0.37856 0.54814 0.0
C93 C 0.91769 0.35691 0.47639 0.0
C94 C 0.89599 0.3171 0.47581 0.0
N95 N 0.89483 0.33735 0.51434 0.0
C96 C 0.90937 0.35682 0.50207 0.0
C97 C 0.88802 0.31765 0.50149 0.0
C98 C 0.91094 0.33689 0.46323 0.0
C99 C 0.83507 0.33552 0.61816 0.0
N100 N 0.85001 0.35664 0.61051 0.0
C101 C 0.81263 0.32876 0.62053 0.0
C102 C 0.80551 0.34378 0.61499 0.0
C103 C 0.82085 0.36529 0.60718 0.0
C104 C 0.84315 0.37146 0.60499 0.0
C105 C 0.8865 0.40957 0.66733 0.0
C106 C 0.90671 0.41155 0.61849 0.0
C107 C 0.87995 0.39058 0.65184 0.0
N108 N 0.88996 0.39175 0.62768 0.0
C109 C 0.91369 0.43089 0.63344 0.0
C110 C 0.90347 0.42985 0.65801 0.0
C111 C 0.92345 0.3729 0.58194 0.0
C112 C 0.87828 0.28162 0.58708 0.0
C113 C 0.91002 0.31737 0.55811 0.0
C114 C 0.91485 0.30148 0.56781 0.0
C115 C 0.89885 0.2835 0.58241 0.0
N116 N 0.88981 0.31541 0.56276 0.0
C117 C 0.87403 0.29783 0.57705 0.0
Co118 Co 0.52884 0.87945 0.11022 0.0
Co119 Co 0.55406 0.88071 0.0492 0.0
O120 O 0.54594 0.87078 0.08674 0.0
C121 C 0.55866 0.89978 0.15682 0.0
O122 O 0.55834 0.91793 0.15073 0.0
C123 C 0.53096 0.83126 0.04523 0.0
O124 O 0.51727 0.82984 0.06432 0.0
O125 O 0.52325 0.87373 0.04066 0.0
O126 O 0.50867 0.87623 0.08002 0.0
H127 H 0.55646 0.92273 0.96578 0.0
H128 H 0.5369 0.8436 0.12821 0.0
O129 O 0.54878 0.88282 0.14154 0.0
H130 H 0.4558 0.80916 0.12192 0.0
H131 H 0.48964 0.8784 0.19623 0.0
H132 H 0.51048 0.90944 0.10449 0.0
H133 H 0.47995 0.8487 0.11136 0.0
H134 H 0.51089 0.86755 0.16636 0.0
O135 O 0.54636 0.8501 0.03733 0.0
H136 H 0.5467 0.91013 0.01289 0.0
H137 H 0.57854 0.872 0.00587 0.0
H138 H 0.48915 0.92069 0.13366 0.0
H139 H 0.51333 0.80405 0.13928 0.0
H140 H 0.4786 0.90514 0.17991 0.0
H141 H 0.47247 0.78657 0.13608 0.0
O142 O 0.54819 0.9112 0.10043 0.0
H143 H 0.61104 0.86459 0.08774 0.0
H144 H 0.59909 0.91933 0.03908 0.0
H145 H 0.63712 0.92818 0.04998 0.0
H146 H 0.64328 0.90065 0.0744 0.0
H147 H 0.57327 0.85655 0.07669 0.0
H148 H 0.58847 0.88404 0.95863 0.0
H149 H 0.57749 0.90966 0.93832 0.0
O150 O 0.56237 0.91165 0.05958 0.0
C151 C 0.50775 0.8736 0.05453 0.0
C152 C 0.5614 0.91162 0.97443 0.0
C153 C 0.57933 0.88988 0.9704 0.0
N154 N 0.56218 0.89048 0.01218 0.0
C155 C 0.55598 0.90448 1.00111 0.0
C156 C 0.57361 0.88308 0.99714 0.0
C157 C 0.57318 0.90426 0.95902 0.0
C158 C 0.51912 0.83617 0.12707 0.0
N159 N 0.50982 0.84848 0.1193 0.0
C160 C 0.50587 0.81374 0.13323 0.0
C161 C 0.48294 0.80393 0.13138 0.0
C162 C 0.47358 0.81659 0.12341 0.0
C163 C 0.48735 0.83896 0.11737 0.0
C164 C 0.49411 0.88527 0.17611 0.0
C165 C 0.50589 0.90255 0.12456 0.0
C166 C 0.50614 0.87919 0.1591 0.0
N167 N 0.51187 0.8878 0.13366 0.0
C168 C 0.49384 0.909 0.141 0.0
C169 C 0.48793 0.90028 0.16694 0.0
C170 C 0.55974 0.92142 0.07982 0.0
C171 C 0.60857 0.87671 0.07707 0.0
C172 C 0.60163 0.90736 0.04992 0.0
C173 C 0.6232 0.91242 0.05593 0.0
C174 C 0.62665 0.89696 0.06961 0.0
N175 N 0.58398 0.88745 0.05726 0.0
C176 C 0.58723 0.87223 0.07071 0.0
Co177 Co 0.65866 0.52894 0.60648 0.0
Co178 Co 0.68302 0.55619 0.54646 0.0
O179 O 0.68453 0.54706 0.58356 0.0
C180 C 0.6663 0.55777 0.65378 0.0
O181 O 0.64759 0.55684 0.64746 0.0
C182 C 0.70879 0.53256 0.54099 0.0
O183 O 0.69631 0.51858 0.55973 0.0
O184 O 0.65882 0.52581 0.53678 0.0
O185 O 0.64286 0.5088 0.57576 0.0
H186 H 0.64425 0.56192 0.46414 0.0
H187 H 0.70316 0.53885 0.62445 0.0
O188 O 0.67422 0.54877 0.63829 0.0
H189 H 0.6592 0.45751 0.61846 0.0
H190 H 0.62015 0.48801 0.6915 0.0
H191 H 0.6102 0.50865 0.59959 0.0
H192 H 0.64234 0.48038 0.60802 0.0
H193 H 0.65245 0.51056 0.66242 0.0
O194 O 0.70566 0.54831 0.53376 0.0
H195 H 0.64665 0.55069 0.51063 0.0
H196 H 0.71652 0.58131 0.5037 0.0
H197 H 0.57743 0.486 0.62797 0.0
H198 H 0.72062 0.51661 0.63545 0.0
H199 H 0.58231 0.47555 0.67429 0.0
H200 H 0.69861 0.47564 0.63237 0.0
O201 O 0.64511 0.54739 0.59672 0.0
H202 H 0.7564 0.61138 0.5861 0.0
H203 H 0.69002 0.60169 0.53886 0.0
H204 H 0.71954 0.63923 0.55103 0.0
H205 H 0.75308 0.64426 0.57475 0.0
H206 H 0.72634 0.57411 0.57379 0.0
H207 H 0.71486 0.59271 0.45707 0.0
H208 H 0.67853 0.58308 0.43703 0.0
O209 O 0.66071 0.56456 0.55775 0.0
C210 C 0.64425 0.50923 0.55011 0.0
C211 C 0.66018 0.56626 0.47267 0.0
C212 C 0.69981 0.58351 0.46869 0.0
N213 N 0.6817 0.56543 0.50992 0.0
C214 C 0.66165 0.55999 0.499 0.0
C215 C 0.70064 0.57696 0.49508 0.0
C216 C 0.67942 0.57811 0.45746 0.0
C217 C 0.69342 0.52102 0.62331 0.0
N218 N 0.67174 0.51092 0.61561 0.0
C219 C 0.70342 0.50852 0.62945 0.0
C220 C 0.69108 0.48553 0.62768 0.0
C221 C 0.66897 0.47535 0.61984 0.0
C222 C 0.65953 0.48839 0.61381 0.0
C223 C 0.61781 0.49244 0.67134 0.0
C224 C 0.61245 0.50412 0.6197 0.0
C225 C 0.63603 0.50522 0.65478 0.0
N226 N 0.63321 0.5109 0.6293 0.0
C227 C 0.59384 0.49131 0.63568 0.0
C228 C 0.59658 0.48546 0.66168 0.0
C229 C 0.64723 0.56029 0.57726 0.0
C230 C 0.74189 0.60941 0.57574 0.0
C231 C 0.70447 0.60373 0.54935 0.0
C232 C 0.72118 0.62504 0.5561 0.0
C233 C 0.74 0.62785 0.56938 0.0
N234 N 0.70647 0.58573 0.55557 0.0
C235 C 0.72484 0.58835 0.56866 0.0
Co236 Co 0.13084 0.65022 0.11432 0.0
Co237 Co 0.12963 0.67533 0.05454 0.0
O238 O 0.1395 0.67643 0.09185 0.0
C239 C 0.11143 0.65921 0.16233 0.0
O240 O 0.09321 0.6408 0.15633 0.0
C241 C 0.17896 0.70117 0.04781 0.0
O242 O 0.18029 0.68571 0.06136 0.0
O243 O 0.1376 0.65237 0.04467 0.0
O244 O 0.13338 0.63363 0.08311 0.0
H245 H 0.0891 0.63759 0.96962 0.0
H246 H 0.16746 0.69373 0.13211 0.0
O247 O 0.12818 0.66644 0.14661 0.0
H248 H 0.20068 0.64617 0.12233 0.0
H249 H 0.13255 0.61026 0.1982 0.0
H250 H 0.1002 0.60209 0.10762 0.0
H251 H 0.161 0.63138 0.11334 0.0
H252 H 0.14337 0.64296 0.16948 0.0
O253 O 0.16014 0.69952 0.04382 0.0
H254 H 0.10138 0.63934 0.01666 0.0
H255 H 0.13766 0.70953 0.01298 0.0
H256 H 0.08898 0.56894 0.13564 0.0
H257 H 0.20718 0.70914 0.14156 0.0
H258 H 0.10519 0.57291 0.18129 0.0
H259 H 0.22405 0.6853 0.13662 0.0
O260 O 0.09904 0.63844 0.10541 0.0
H261 H 0.14297 0.7465 0.09646 0.0
H262 H 0.09002 0.68029 0.04563 0.0
H263 H 0.07979 0.70821 0.05816 0.0
H264 H 0.10641 0.74166 0.08367 0.0
H265 H 0.15241 0.71802 0.08376 0.0
H266 H 0.12593 0.70853 0.96584 0.0
H267 H 0.1014 0.67237 0.94388 0.0
O268 O 0.09878 0.65159 0.06415 0.0
C269 C 0.13686 0.63626 0.05778 0.0
C270 C 0.09974 0.65345 0.97899 0.0
C271 C 0.12044 0.69327 0.97685 0.0
N272 N 0.1201 0.67451 0.01761 0.0
C273 C 0.10669 0.65455 0.00563 0.0
C274 C 0.12707 0.69373 0.00353 0.0
C275 C 0.10667 0.67297 0.96455 0.0
C276 C 0.17464 0.6832 0.13017 0.0
N277 N 0.16189 0.66164 0.12238 0.0
C278 C 0.19716 0.69204 0.13544 0.0
C279 C 0.20662 0.67867 0.13263 0.0
C280 C 0.19352 0.65671 0.12459 0.0
C281 C 0.17106 0.64844 0.11947 0.0
C282 C 0.1254 0.6083 0.17833 0.0
C283 C 0.10738 0.60395 0.12743 0.0
C284 C 0.13146 0.62676 0.16197 0.0
N285 N 0.12248 0.62443 0.13684 0.0
C286 C 0.10094 0.58512 0.14322 0.0
C287 C 0.11004 0.58736 0.16883 0.0
C288 C 0.08888 0.6394 0.08454 0.0
C289 C 0.13124 0.73201 0.08532 0.0
C290 C 0.1016 0.69469 0.05693 0.0
C291 C 0.09576 0.7105 0.06387 0.0
C292 C 0.11071 0.72927 0.07816 0.0
N293 N 0.12178 0.69752 0.06397 0.0
C294 C 0.13651 0.71585 0.07803 0.0
Co295 Co 0.49107 0.13306 0.61183 0.0
Co296 Co 0.46407 0.13132 0.55213 0.0
O297 O 0.47333 0.14151 0.58932 0.0
C298 C 0.46176 0.11122 0.65856 0.0
O299 O 0.46306 0.09368 0.65194 0.0
C300 C 0.48875 0.18077 0.54761 0.0
O301 O 0.50231 0.18173 0.56657 0.0
O302 O 0.49413 0.13661 0.54231 0.0
O303 O 0.51127 0.13751 0.58104 0.0
H304 H 0.45716 0.08697 0.46912 0.0
H305 H 0.48171 0.16771 0.63121 0.0
O306 O 0.47105 0.12847 0.64364 0.0
H307 H 0.56298 0.20435 0.62462 0.0
H308 H 0.53129 0.13367 0.69654 0.0
H309 H 0.5108 0.10444 0.60403 0.0
H310 H 0.53974 0.16484 0.6133 0.0
H311 H 0.50916 0.1442 0.66791 0.0
O312 O 0.47289 0.16215 0.53988 0.0
H313 H 0.4685 0.10003 0.51577 0.0
H314 H 0.43979 0.14106 0.50969 0.0
H315 H 0.53302 0.09355 0.63194 0.0
H316 H 0.50434 0.2072 0.64307 0.0
H317 H 0.5434 0.10818 0.67856 0.0
H318 H 0.54528 0.22579 0.6397 0.0
O319 O 0.47232 0.10129 0.60136 0.0
H320 H 0.41036 0.15141 0.59244 0.0
H321 H 0.41808 0.09383 0.5442 0.0
H322 H 0.38088 0.0869 0.55643 0.0
H323 H 0.37685 0.11586 0.58064 0.0
H324 H 0.44726 0.15753 0.58006 0.0
H325 H 0.42831 0.12859 0.46291 0.0
H326 H 0.43692 0.10129 0.44236 0.0
O327 O 0.45477 0.10035 0.56302 0.0
C328 C 0.51068 0.13835 0.5554 0.0
C329 C 0.45326 0.09883 0.47787 0.0
C330 C 0.4371 0.12221 0.47437 0.0
N331 N 0.45471 0.12119 0.51549 0.0
C332 C 0.45958 0.10624 0.5043 0.0
C333 C 0.4437 0.12926 0.50085 0.0
C334 C 0.44192 0.10689 0.46286 0.0
C335 C 0.49953 0.17563 0.62996 0.0
N336 N 0.50939 0.16396 0.62165 0.0
C337 C 0.51225 0.19802 0.63658 0.0
C338 C 0.53522 0.20845 0.63465 0.0
C339 C 0.54516 0.19643 0.62616 0.0
C340 C 0.53191 0.17408 0.61966 0.0
C341 C 0.5269 0.1272 0.67624 0.0
C342 C 0.51531 0.11094 0.62427 0.0
C343 C 0.51437 0.1331 0.65994 0.0
N344 N 0.50874 0.12498 0.63429 0.0
C345 C 0.52787 0.10469 0.63999 0.0
C346 C 0.53368 0.1129 0.66615 0.0
C347 C 0.45902 0.09083 0.58213 0.0
C348 C 0.4119 0.13867 0.58186 0.0
C349 C 0.41647 0.10643 0.55491 0.0
C350 C 0.39536 0.10245 0.56169 0.0
C351 C 0.3931 0.11871 0.57525 0.0
N352 N 0.43482 0.12608 0.56137 0.0
C353 C 0.43275 0.14207 0.57474 0.0
Co354 Co 0.52458 0.64802 0.89396 0.0
Co355 Co 0.55411 0.67417 0.95128 0.0
O356 O 0.54238 0.67471 0.91551 0.0
C357 C 0.55908 0.67472 0.85258 0.0
O358 O 0.57464 0.67658 0.86906 0.0
C359 C 0.53055 0.69938 0.96051 0.0
O360 O 0.5145 0.68504 0.94508 0.0
O361 O 0.52432 0.65078 0.96397 0.0
O362 O 0.50927 0.63052 0.92675 0.0
H363 H 0.56467 0.63762 0.03272 0.0
H364 H 0.52551 0.68962 0.87913 0.0
O365 O 0.53893 0.66469 0.86007 0.0
H366 H 0.44724 0.63605 0.89857 0.0
H367 H 0.47888 0.60599 0.81346 0.0
H368 H 0.51123 0.60065 0.89957 0.0
H369 H 0.4756 0.62494 0.90181 0.0
H370 H 0.50069 0.63915 0.84145 0.0
O371 O 0.54758 0.69755 0.9647 0.0
H372 H 0.55033 0.63873 0.98763 0.0
H373 H 0.58261 0.70887 0.99111 0.0
H374 H 0.48938 0.56704 0.87231 0.0
H375 H 0.49763 0.70135 0.87535 0.0
H376 H 0.47303 0.56959 0.82891 0.0
H377 H 0.45819 0.67448 0.8852 0.0
O378 O 0.5474 0.63894 0.89768 0.0
H379 H 0.60698 0.74554 0.90533 0.0
H380 H 0.59973 0.68063 0.95396 0.0
H381 H 0.63638 0.70909 0.93737 0.0
H382 H 0.64018 0.74188 0.91291 0.0
H383 H 0.5706 0.71654 0.92208 0.0
H384 H 0.59713 0.7085 0.03634 0.0
H385 H 0.58824 0.67269 0.05738 0.0
O386 O 0.56128 0.65099 0.9391 0.0
C387 C 0.50927 0.63364 0.95207 0.0
C388 C 0.56871 0.65333 0.02373 0.0
C389 C 0.5869 0.69311 0.02577 0.0
N390 N 0.56576 0.67384 0.98668 0.0
C391 C 0.56069 0.65407 0.99817 0.0
C392 C 0.57859 0.69321 1.00019 0.0
C393 C 0.58192 0.67301 0.03757 0.0
C394 C 0.50834 0.67777 0.88318 0.0
N395 N 0.50219 0.65661 0.89061 0.0
C396 C 0.49265 0.68454 0.88112 0.0
C397 C 0.47052 0.66947 0.8867 0.0
C398 C 0.46437 0.6479 0.89423 0.0
C399 C 0.48052 0.64173 0.89611 0.0
C400 C 0.48588 0.60466 0.83236 0.0
C401 C 0.50406 0.60188 0.88078 0.0
C402 C 0.49829 0.62339 0.84827 0.0
N403 N 0.5071 0.62182 0.87223 0.0
C404 C 0.49175 0.58279 0.8654 0.0
C405 C 0.4826 0.58424 0.84104 0.0
C406 C 0.5592 0.63977 0.9178 0.0
C407 C 0.60554 0.73135 0.91599 0.0
C408 C 0.60123 0.69476 0.9432 0.0
C409 C 0.62203 0.71087 0.93393 0.0
C410 C 0.62416 0.72927 0.92023 0.0
N411 N 0.58305 0.69693 0.93901 0.0
C412 C 0.585 0.71491 0.92558 0.0
Co413 Co 0.88639 0.52584 0.38967 0.0
Co414 Co 0.88829 0.55019 0.45114 0.0
O415 O 0.87826 0.54309 0.41356 0.0
C416 C 0.90484 0.55486 0.34205 0.0
O417 O 0.92296 0.55414 0.34684 0.0
C418 C 0.83921 0.5298 0.45579 0.0
O419 O 0.83703 0.51497 0.43791 0.0
O420 O 0.87851 0.51864 0.45895 0.0
O421 O 0.88441 0.50599 0.42 0.0
H422 H 0.92728 0.54714 0.53476 0.0
H423 H 0.84957 0.53303 0.37368 0.0
O424 O 0.88845 0.54529 0.35827 0.0
H425 H 0.81633 0.45212 0.38147 0.0
H426 H 0.88299 0.48546 0.30381 0.0
H427 H 0.91722 0.50837 0.3937 0.0
H428 H 0.85613 0.47681 0.38991 0.0
H429 H 0.87275 0.50689 0.33422 0.0
O430 O 0.85841 0.54506 0.46279 0.0
H431 H 0.91482 0.53881 0.48748 0.0
H432 H 0.88233 0.5763 0.49474 0.0
H433 H 0.92789 0.48689 0.36396 0.0
H434 H 0.80975 0.50891 0.36472 0.0
H435 H 0.91073 0.4753 0.31865 0.0
H436 H 0.79286 0.46815 0.3687 0.0
O437 O 0.91834 0.54581 0.39795 0.0
H438 H 0.87917 0.61224 0.41449 0.0
H439 H 0.92972 0.59309 0.46114 0.0
H440 H 0.94211 0.63219 0.45109 0.0
H441 H 0.91672 0.64198 0.42769 0.0
H442 H 0.86753 0.57331 0.42472 0.0
H443 H 0.89428 0.58487 0.54216 0.0
H444 H 0.917 0.57032 0.56244 0.0
O445 O 0.91855 0.55581 0.44103 0.0
C446 C 0.87989 0.50395 0.44514 0.0
C447 C 0.91745 0.55363 0.52613 0.0
C448 C 0.89891 0.57479 0.53029 0.0
N449 N 0.89802 0.5572 0.4883 0.0
C450 C 0.9104 0.54903 0.49935 0.0
C451 C 0.89215 0.56984 0.50344 0.0
C452 C 0.91166 0.56663 0.54165 0.0
C453 C 0.8424 0.51529 0.37514 0.0
N454 N 0.8552 0.50636 0.38216 0.0
C455 C 0.81982 0.50172 0.37018 0.0
C456 C 0.81035 0.47886 0.37246 0.0
C457 C 0.8235 0.46986 0.37965 0.0
C458 C 0.84602 0.48394 0.3845 0.0
C459 C 0.89055 0.49038 0.32352 0.0
C460 C 0.90963 0.50333 0.37404 0.0
C461 C 0.88482 0.50251 0.34084 0.0
N462 N 0.89432 0.5088 0.36577 0.0
C463 C 0.91575 0.49119 0.35728 0.0
C464 C 0.90612 0.48469 0.33186 0.0
C465 C 0.92846 0.55501 0.41974 0.0
C466 C 0.89036 0.60819 0.42475 0.0
C467 C 0.91862 0.59721 0.45082 0.0
C468 C 0.9257 0.61938 0.44526 0.0
C469 C 0.91144 0.62486 0.43214 0.0
N470 N 0.89788 0.58096 0.44362 0.0
C471 C 0.88384 0.58619 0.43066 0.0
Co472 Co 0.36738 0.87824 0.89864 0.0
Co473 Co 0.34276 0.88164 0.95688 0.0
O474 O 0.34105 0.86956 0.92074 0.0
C475 C 0.34016 0.88582 0.85808 0.0
O476 O 0.33855 0.89956 0.87481 0.0
C477 C 0.31537 0.83295 0.96711 0.0
O478 O 0.33071 0.83048 0.9549 0.0
O479 O 0.36461 0.87271 0.96828 0.0
O480 O 0.38551 0.8808 0.93105 0.0
H481 H 0.38173 0.92533 0.0396 0.0
H482 H 0.32555 0.8373 0.88558 0.0
O483 O 0.35016 0.87558 0.86519 0.0
H484 H 0.37988 0.81319 0.90265 0.0
H485 H 0.40826 0.87408 0.81704 0.0
H486 H 0.41477 0.91248 0.903 0.0
H487 H 0.39089 0.85265 0.9054 0.0
H488 H 0.37551 0.86285 0.84589 0.0
O489 O 0.31759 0.85218 0.96925 0.0
H490 H 0.37932 0.91041 0.99382 0.0
H491 H 0.30916 0.87745 0.99731 0.0
H492 H 0.44797 0.9241 0.87488 0.0
H493 H 0.31387 0.79766 0.88238 0.0
H494 H 0.44483 0.90485 0.83155 0.0
H495 H 0.34113 0.78539 0.89102 0.0
O496 O 0.3762 0.91007 0.90221 0.0
H497 H 0.27307 0.87003 0.91257 0.0
H498 H 0.34056 0.92318 0.96122 0.0
H499 H 0.31426 0.93476 0.94594 0.0
H500 H 0.28021 0.90807 0.92148 0.0
H501 H 0.29991 0.8592 0.92802 0.0
H502 H 0.3108 0.89186 0.04321 0.0
H503 H 0.34729 0.91606 0.06461 0.0
O504 O 0.36766 0.9116 0.94554 0.0
C505 C 0.38206 0.87591 0.95603 0.0
C506 C 0.36573 0.91486 0.03046 0.0
C507 C 0.32592 0.89605 0.0325 0.0
N508 N 0.34414 0.89322 0.99284 0.0
C509 C 0.36427 0.90641 0.00452 0.0
C510 C 0.3251 0.88789 0.00653 0.0
C511 C 0.3464 0.90963 0.04449 0.0
C512 C 0.33754 0.83209 0.88915 0.0
N513 N 0.35888 0.84728 0.89556 0.0
C514 C 0.33081 0.80963 0.8874 0.0
C515 C 0.34611 0.80275 0.89228 0.0
C516 C 0.36785 0.81833 0.89883 0.0
C517 C 0.37398 0.84065 0.90042 0.0
C518 C 0.40985 0.88256 0.83591 0.0
C519 C 0.41329 0.90393 0.88426 0.0
C520 C 0.39136 0.87631 0.85231 0.0
N521 N 0.39326 0.88689 0.87623 0.0
C522 C 0.43214 0.91062 0.86838 0.0
C523 C 0.43036 0.89983 0.84406 0.0
C524 C 0.37733 0.92093 0.92344 0.0
C525 C 0.28782 0.88179 0.92327 0.0
C526 C 0.32581 0.91149 0.95052 0.0
C527 C 0.31096 0.91813 0.94197 0.0
C528 C 0.29185 0.90315 0.92825 0.0
N529 N 0.3217 0.89049 0.94563 0.0
C530 C 0.30304 0.87573 0.93214 0.0
Co531 Co 0.49688 0.36488 0.39803 0.0
Co532 Co 0.47062 0.34206 0.45842 0.0
O533 O 0.47952 0.33941 0.42163 0.0
C534 C 0.45985 0.34008 0.35846 0.0
O535 O 0.44574 0.34151 0.37471 0.0
C536 C 0.49258 0.31515 0.46558 0.0
O537 O 0.50798 0.32854 0.44869 0.0
O538 O 0.50151 0.36489 0.46794 0.0
O539 O 0.5151 0.38317 0.42904 0.0
H540 H 0.4679 0.38319 0.54021 0.0
H541 H 0.49209 0.32133 0.38472 0.0
O542 O 0.4798 0.34735 0.36576 0.0
H543 H 0.5724 0.37215 0.39342 0.0
H544 H 0.53789 0.40224 0.31269 0.0
H545 H 0.51328 0.41301 0.40188 0.0
H546 H 0.54615 0.38574 0.3993 0.0
H547 H 0.51674 0.37053 0.34309 0.0
O548 O 0.47648 0.31814 0.47143 0.0
H549 H 0.47879 0.37958 0.49395 0.0
H550 H 0.44358 0.30956 0.50115 0.0
H551 H 0.5346 0.44522 0.37221 0.0
H552 H 0.51776 0.30706 0.37831 0.0
H553 H 0.54705 0.43994 0.32725 0.0
H554 H 0.55823 0.33253 0.38279 0.0
O555 O 0.47559 0.37578 0.4039 0.0
H556 H 0.41215 0.26997 0.41922 0.0
H557 H 0.4265 0.3387 0.46483 0.0
H558 H 0.38829 0.31104 0.45228 0.0
H559 H 0.38092 0.27635 0.42937 0.0
H560 H 0.45015 0.29818 0.43193 0.0
H561 H 0.43246 0.31242 0.54757 0.0
H562 H 0.44457 0.34944 0.56735 0.0
O563 O 0.46429 0.36582 0.44669 0.0
C564 C 0.51635 0.38108 0.45442 0.0
C565 C 0.46246 0.36697 0.53179 0.0
C566 C 0.4426 0.32725 0.53593 0.0
N567 N 0.46169 0.34439 0.49479 0.0
C568 C 0.46852 0.36482 0.50558 0.0
C569 C 0.44899 0.32573 0.50966 0.0
C570 C 0.44939 0.34802 0.54701 0.0
C571 C 0.50969 0.33255 0.38649 0.0
N572 N 0.51761 0.35434 0.39251 0.0
C573 C 0.52414 0.32436 0.38293 0.0
C574 C 0.54684 0.33865 0.38549 0.0
C575 C 0.5548 0.36087 0.3915 0.0
C576 C 0.53985 0.36847 0.39496 0.0
C577 C 0.53259 0.40476 0.33225 0.0
C578 C 0.51875 0.41059 0.38242 0.0
C579 C 0.52055 0.38685 0.34954 0.0
N580 N 0.51388 0.38992 0.37433 0.0
C581 C 0.53077 0.42889 0.36567 0.0
C582 C 0.53773 0.42591 0.34044 0.0
C583 C 0.46537 0.37627 0.42507 0.0
C584 C 0.41515 0.28499 0.42926 0.0
C585 C 0.42344 0.32368 0.45478 0.0
C586 C 0.40176 0.30806 0.44778 0.0
C587 C 0.39764 0.28859 0.43494 0.0
N588 N 0.44052 0.31999 0.44924 0.0
C589 C 0.43661 0.30098 0.43658 0.0
Co590 Co 0.13823 0.49541 0.89828 0.0
Co591 Co 0.13604 0.46725 0.95652 0.0
O592 O 0.14772 0.47831 0.92029 0.0
C593 C 0.12987 0.45984 0.85838 0.0
O594 O 0.1167 0.44476 0.87575 0.0
C595 C 0.18511 0.49085 0.96414 0.0
O596 O 0.18688 0.50634 0.94761 0.0
O597 O 0.14223 0.49722 0.96827 0.0
O598 O 0.13651 0.51146 0.93062 0.0
H599 H 0.08987 0.45787 0.03865 0.0
H600 H 0.17874 0.49441 0.88267 0.0
O601 O 0.13999 0.48022 0.86485 0.0
H602 H 0.2033 0.57302 0.89931 0.0
H603 H 0.14005 0.53886 0.81623 0.0
H604 H 0.10409 0.50861 0.90392 0.0
H605 H 0.164 0.54456 0.90426 0.0
H606 H 0.15212 0.51793 0.84477 0.0
O607 O 0.16618 0.47432 0.96951 0.0
H608 H 0.10463 0.47136 0.99302 0.0
H609 H 0.14319 0.43985 0.99715 0.0
H610 H 0.09162 0.52959 0.8761 0.0
H611 H 0.21816 0.52238 0.87717 0.0
H612 H 0.10965 0.54488 0.83191 0.0
H613 H 0.23068 0.562 0.88561 0.0
O614 O 0.10647 0.47255 0.90318 0.0
H615 H 0.15474 0.4142 0.91143 0.0
H616 H 0.0975 0.42137 0.96134 0.0
H617 H 0.08957 0.38457 0.94575 0.0
H618 H 0.11835 0.38081 0.92064 0.0
H619 H 0.16185 0.45072 0.92717 0.0
H620 H 0.12901 0.4262 0.04291 0.0
H621 H 0.10207 0.43513 0.06391 0.0
O622 O 0.10541 0.45938 0.94484 0.0
C623 C 0.13987 0.51196 0.95593 0.0
C624 C 0.10154 0.45382 0.02968 0.0
C625 C 0.12354 0.43607 0.03209 0.0
N626 N 0.12463 0.45627 0.99236 0.0
C627 C 0.10991 0.46136 0.00383 0.0
C628 C 0.13156 0.4439 0.0062 0.0
C629 C 0.10842 0.44108 0.04386 0.0
C630 C 0.18402 0.51165 0.88611 0.0
N631 N 0.16907 0.51784 0.89371 0.0
C632 C 0.20638 0.5274 0.88308 0.0
C633 C 0.2134 0.54962 0.88786 0.0
C634 C 0.19805 0.55581 0.89558 0.0
C635 C 0.17583 0.5396 0.89845 0.0
C636 C 0.1321 0.53232 0.83548 0.0
C637 C 0.11211 0.51533 0.88479 0.0
C638 C 0.13884 0.52042 0.85171 0.0
N639 N 0.12894 0.5122 0.8761 0.0
C640 C 0.10494 0.52714 0.86909 0.0
C641 C 0.11504 0.5357 0.84429 0.0
C642 C 0.09588 0.46095 0.92364 0.0
C643 C 0.14207 0.41562 0.92236 0.0
C644 C 0.11002 0.41989 0.95026 0.0
C645 C 0.10549 0.399 0.94158 0.0
C646 C 0.12164 0.39689 0.92751 0.0
N647 N 0.1301 0.43818 0.94514 0.0
C648 C 0.14602 0.43624 0.93138 0.0
Co649 Co 0.64953 0.13432 0.39472 0.0
Co650 Co 0.67503 0.13017 0.45235 0.0
O651 O 0.67583 0.14228 0.41647 0.0
C652 C 0.67484 0.12353 0.35436 0.0
O653 O 0.67569 0.10956 0.37139 0.0
C654 C 0.69995 0.17888 0.46251 0.0
O655 O 0.68434 0.18043 0.44965 0.0
O656 O 0.65157 0.13666 0.46487 0.0
O657 O 0.63268 0.13431 0.42721 0.0
H658 H 0.63821 0.08358 0.53416 0.0
H659 H 0.69286 0.17304 0.3805 0.0
O660 O 0.66575 0.13471 0.36118 0.0
H661 H 0.64266 0.20285 0.39369 0.0
H662 H 0.60913 0.13846 0.31277 0.0
H663 H 0.60153 0.10294 0.4012 0.0
H664 H 0.62895 0.1629 0.39836 0.0
H665 H 0.64194 0.14869 0.34094 0.0
O666 O 0.69867 0.16011 0.46517 0.0
H667 H 0.63946 0.0988 0.48886 0.0
H668 H 0.7096 0.13642 0.49237 0.0
H669 H 0.56825 0.09238 0.37377 0.0
H670 H 0.70725 0.2131 0.37532 0.0
H671 H 0.57194 0.11018 0.3292 0.0
H672 H 0.6821 0.22826 0.38204 0.0
O673 O 0.63853 0.10197 0.39984 0.0
H674 H 0.74632 0.14785 0.40665 0.0
H675 H 0.68119 0.09086 0.45575 0.0
H676 H 0.70948 0.08229 0.43953 0.0
H677 H 0.74237 0.11093 0.41483 0.0
H678 H 0.71749 0.15562 0.42302 0.0
H679 H 0.7091 0.12175 0.5378 0.0
H680 H 0.67321 0.09506 0.55894 0.0
O681 O 0.6518 0.09997 0.4404 0.0
C682 C 0.63531 0.13636 0.4527 0.0
C683 C 0.65395 0.09515 0.52513 0.0
C684 C 0.69374 0.1166 0.52719 0.0
N685 N 0.67458 0.11838 0.48793 0.0
C686 C 0.65477 0.10378 0.49946 0.0
C687 C 0.69392 0.1249 0.50149 0.0
C688 C 0.6736 0.10162 0.53904 0.0
C689 C 0.68178 0.1795 0.38332 0.0
N690 N 0.66009 0.16564 0.38989 0.0
C691 C 0.69004 0.2022 0.38042 0.0
C692 C 0.67592 0.2107 0.38422 0.0
C693 C 0.6538 0.19646 0.39079 0.0
C694 C 0.64614 0.17386 0.39357 0.0
C695 C 0.6073 0.13061 0.33217 0.0
C696 C 0.60325 0.11087 0.3819 0.0
C697 C 0.62584 0.13629 0.34819 0.0
N698 N 0.62364 0.12652 0.37278 0.0
C699 C 0.58436 0.10477 0.36643 0.0
C700 C 0.58644 0.11475 0.34141 0.0
C701 C 0.63981 0.09092 0.41965 0.0
C702 C 0.73207 0.13524 0.41741 0.0
C703 C 0.69536 0.10334 0.44487 0.0
C704 C 0.71138 0.09843 0.43582 0.0
C705 C 0.72984 0.11451 0.42198 0.0
N706 N 0.69767 0.12371 0.44034 0.0
C707 C 0.71572 0.13956 0.42678 0.0
Co708 Co 0.64743 0.51754 0.89253 0.0
Co709 Co 0.67228 0.54494 0.95122 0.0
O710 O 0.67379 0.53491 0.91471 0.0
C711 C 0.67401 0.55327 0.85247 0.0
O712 O 0.67525 0.56817 0.86966 0.0
C713 C 0.6996 0.52333 0.95811 0.0
O714 O 0.68569 0.50739 0.94221 0.0
O715 O 0.64995 0.51425 0.9622 0.0
O716 O 0.62939 0.50116 0.92482 0.0
H717 H 0.63352 0.54961 0.03433 0.0
H718 H 0.68926 0.51907 0.87747 0.0
O719 O 0.66452 0.53293 0.85918 0.0
H720 H 0.63577 0.44023 0.89372 0.0
H721 H 0.60661 0.474 0.81021 0.0
H722 H 0.59996 0.50389 0.89769 0.0
H723 H 0.62445 0.46836 0.89835 0.0
H724 H 0.63937 0.49516 0.83902 0.0
O725 O 0.6967 0.53956 0.96355 0.0
H726 H 0.63582 0.53757 0.98822 0.0
H727 H 0.706 0.5732 0.99211 0.0
H728 H 0.56673 0.48265 0.86962 0.0
H729 H 0.70122 0.49144 0.87231 0.0
H730 H 0.56994 0.46754 0.82553 0.0
H731 H 0.67439 0.45171 0.88056 0.0
O732 O 0.63839 0.54026 0.89724 0.0
H733 H 0.74293 0.60239 0.90783 0.0
H734 H 0.67575 0.5892 0.95657 0.0
H735 H 0.70291 0.62705 0.94206 0.0
H736 H 0.73682 0.63385 0.91757 0.0
H737 H 0.71523 0.56475 0.92252 0.0
H738 H 0.70446 0.58547 0.03835 0.0
H739 H 0.66802 0.57374 0.05971 0.0
O740 O 0.64805 0.551 0.94018 0.0
C741 C 0.63267 0.49986 0.94988 0.0
C742 C 0.6495 0.5549 0.02521 0.0
C743 C 0.68931 0.575 0.02748 0.0
N744 N 0.67101 0.55482 0.98742 0.0
C745 C 0.6509 0.54818 0.99909 0.0
C746 C 0.69008 0.56796 1.00131 0.0
C747 C 0.66886 0.56841 0.03945 0.0
C748 C 0.67744 0.50178 0.88082 0.0
N749 N 0.65618 0.49534 0.88815 0.0
C750 C 0.68433 0.48623 0.87799 0.0
C751 C 0.66928 0.46394 0.88266 0.0
C752 C 0.64761 0.45749 0.89008 0.0
C753 C 0.64132 0.47351 0.89276 0.0
C754 C 0.60499 0.48045 0.82941 0.0
C755 C 0.60147 0.49725 0.87861 0.0
C756 C 0.62349 0.49248 0.84579 0.0
N757 N 0.62155 0.5006 0.87013 0.0
C758 C 0.5826 0.48529 0.86277 0.0
C759 C 0.58442 0.47683 0.83802 0.0
C760 C 0.63805 0.55053 0.91837 0.0
C761 C 0.72825 0.59965 0.91855 0.0
C762 C 0.69043 0.592 0.94584 0.0
C763 C 0.70577 0.61349 0.93773 0.0
C764 C 0.7248 0.61729 0.924 0.0
N765 N 0.69397 0.5748 0.94051 0.0
C766 C 0.71255 0.57839 0.92699 0.0
Co767 Co 0.1402 0.64829 0.40047 0.0
Co768 Co 0.13514 0.67343 0.45829 0.0
O769 O 0.14747 0.67446 0.42234 0.0
C770 C 0.12696 0.67184 0.36041 0.0
O771 O 0.11283 0.67204 0.37777 0.0
C772 C 0.18396 0.69896 0.46679 0.0
O773 O 0.18584 0.68527 0.45029 0.0
O774 O 0.14119 0.64968 0.47061 0.0
O775 O 0.14158 0.63209 0.43282 0.0
H776 H 0.08726 0.63601 0.53903 0.0
H777 H 0.17743 0.69223 0.38502 0.0
O778 O 0.13921 0.66389 0.36703 0.0
H779 H 0.21055 0.64478 0.39693 0.0
H780 H 0.14479 0.60854 0.31798 0.0
H781 H 0.11053 0.60004 0.40753 0.0
H782 H 0.17045 0.62961 0.40305 0.0
H783 H 0.15428 0.64122 0.34614 0.0
O784 O 0.16499 0.69654 0.47199 0.0
H785 H 0.10297 0.63762 0.49391 0.0
H786 H 0.14139 0.70765 0.49894 0.0
H787 H 0.10074 0.56689 0.38013 0.0
H788 H 0.21758 0.70807 0.37832 0.0
H789 H 0.11791 0.57104 0.33499 0.0
H790 H 0.23441 0.6843 0.38442 0.0
O791 O 0.10773 0.63603 0.40641 0.0
H792 H 0.15414 0.74549 0.41384 0.0
H793 H 0.09611 0.68006 0.46139 0.0
H794 H 0.08813 0.70882 0.44551 0.0
H795 H 0.1173 0.74187 0.4216 0.0
H796 H 0.16131 0.7162 0.42984 0.0
H797 H 0.12623 0.70679 0.5442 0.0
H798 H 0.0989 0.67078 0.56449 0.0
O799 O 0.10508 0.65062 0.44573 0.0
C800 C 0.14245 0.63424 0.45839 0.0
C801 C 0.09911 0.65181 0.53037 0.0
C802 C 0.12102 0.69153 0.53329 0.0
N803 N 0.12298 0.67271 0.49374 0.0
C804 C 0.10803 0.65283 0.50481 0.0
C805 C 0.12958 0.69191 0.50769 0.0
C806 C 0.10567 0.67132 0.54466 0.0
C807 C 0.18462 0.68175 0.38755 0.0
N808 N 0.17163 0.66004 0.39466 0.0
C809 C 0.20737 0.69083 0.3838 0.0
C810 C 0.2168 0.6775 0.38726 0.0
C811 C 0.20343 0.65533 0.39432 0.0
C812 C 0.18075 0.64685 0.39795 0.0
C813 C 0.13723 0.60652 0.33763 0.0
C814 C 0.11819 0.60196 0.38799 0.0
C815 C 0.14249 0.62497 0.35365 0.0
N816 N 0.13307 0.62253 0.37855 0.0
C817 C 0.11253 0.58314 0.37253 0.0
C818 C 0.12215 0.58548 0.34719 0.0
C819 C 0.09639 0.63783 0.42551 0.0
C820 C 0.1413 0.73118 0.42426 0.0
C821 C 0.10882 0.6943 0.45086 0.0
C822 C 0.10425 0.71058 0.44199 0.0
C823 C 0.12063 0.72913 0.4286 0.0
N824 N 0.12916 0.69645 0.44657 0.0
C825 C 0.14529 0.71457 0.43343 0.0
Co826 Co 0.49409 0.1329 0.89822 0.0
Co827 Co 0.46456 0.12844 0.95629 0.0
O828 O 0.47548 0.14044 0.92021 0.0
C829 C 0.45792 0.11978 0.85717 0.0
O830 O 0.44354 0.10446 0.87341 0.0
C831 C 0.48765 0.17726 0.96645 0.0
O832 O 0.50501 0.17918 0.95363 0.0
O833 O 0.49476 0.13547 0.96841 0.0
O834 O 0.51155 0.13381 0.9305 0.0
H835 H 0.45609 0.08244 0.0382 0.0
H836 H 0.48807 0.17082 0.88429 0.0
O837 O 0.47774 0.13254 0.86483 0.0
H838 H 0.56858 0.20251 0.8946 0.0
H839 H 0.53809 0.13713 0.81546 0.0
H840 H 0.51201 0.10261 0.9048 0.0
H841 H 0.54318 0.16244 0.90001 0.0
H842 H 0.5153 0.14699 0.8439 0.0
O843 O 0.47037 0.1583 0.96904 0.0
H844 H 0.46959 0.09758 0.99272 0.0
H845 H 0.43613 0.13429 0.99669 0.0
H846 H 0.53497 0.09245 0.87711 0.0
H847 H 0.51286 0.21097 0.87836 0.0
H848 H 0.54816 0.10975 0.83208 0.0
H849 H 0.55343 0.22708 0.88365 0.0
O850 O 0.47347 0.10045 0.90394 0.0
H851 H 0.40975 0.1447 0.9114 0.0
H852 H 0.41946 0.08861 0.96023 0.0
H853 H 0.38231 0.07934 0.94454 0.0
H854 H 0.37726 0.10753 0.91999 0.0
H855 H 0.44667 0.15317 0.92723 0.0
H856 H 0.42241 0.1197 0.0423 0.0
H857 H 0.43232 0.09351 0.0633 0.0
O858 O 0.458 0.09831 0.94444 0.0
C859 C 0.51096 0.13576 0.95602 0.0
C860 C 0.45161 0.0938 0.02924 0.0
C861 C 0.43274 0.11474 0.03155 0.0
N862 N 0.45357 0.11671 0.99201 0.0
C863 C 0.45917 0.10238 0.00347 0.0
C864 C 0.44061 0.123 0.00575 0.0
C865 C 0.4383 0.10003 0.04332 0.0
C866 C 0.50571 0.1777 0.88654 0.0
N867 N 0.51416 0.16431 0.89278 0.0
C868 C 0.51966 0.20045 0.8832 0.0
C869 C 0.54242 0.20948 0.88619 0.0
C870 C 0.55093 0.19571 0.89238 0.0
C871 C 0.53647 0.17304 0.89562 0.0
C872 C 0.53247 0.1295 0.83506 0.0
C873 C 0.51781 0.11033 0.88531 0.0
C874 C 0.5195 0.13497 0.85124 0.0
N875 N 0.51244 0.12549 0.87608 0.0
C876 C 0.53075 0.10445 0.86968 0.0
C877 C 0.53812 0.11415 0.84441 0.0
C878 C 0.46119 0.08933 0.92377 0.0
C879 C 0.41173 0.13228 0.9221 0.0
C880 C 0.41744 0.1009 0.94941 0.0
C881 C 0.39633 0.09559 0.94066 0.0
C882 C 0.39351 0.11142 0.92691 0.0
N883 N 0.43522 0.12141 0.94467 0.0
C884 C 0.43258 0.13701 0.93117 0.0
Co885 Co 0.36482 0.48644 0.39828 0.0
Co886 Co 0.3412 0.46007 0.45879 0.0
O887 O 0.33916 0.46866 0.4216 0.0
C888 C 0.35536 0.45765 0.35056 0.0
O889 O 0.37405 0.45824 0.35595 0.0
C890 C 0.31385 0.48205 0.46399 0.0
O891 O 0.32645 0.49653 0.44575 0.0
O892 O 0.36433 0.491 0.46808 0.0
O893 O 0.38178 0.506 0.42904 0.0
H894 H 0.38127 0.45749 0.54159 0.0
H895 H 0.32078 0.47852 0.38118 0.0
O896 O 0.34822 0.46714 0.36647 0.0
H897 H 0.36704 0.55948 0.3902 0.0
H898 H 0.40261 0.52773 0.31318 0.0
H899 H 0.41321 0.50487 0.40349 0.0
H900 H 0.38268 0.53529 0.39907 0.0
H901 H 0.37062 0.50565 0.34291 0.0
O902 O 0.31752 0.46663 0.47115 0.0
H903 H 0.37821 0.46787 0.49488 0.0
H904 H 0.30816 0.43411 0.50164 0.0
H905 H 0.44567 0.52701 0.37445 0.0
H906 H 0.30455 0.50214 0.37178 0.0
H907 H 0.44047 0.53858 0.32893 0.0
H908 H 0.32773 0.54292 0.37637 0.0
O909 O 0.37737 0.467 0.4067 0.0
H910 H 0.26889 0.40222 0.41942 0.0
H911 H 0.33637 0.41547 0.46713 0.0
H912 H 0.30807 0.37732 0.45531 0.0
H913 H 0.27398 0.37049 0.43136 0.0
H914 H 0.29775 0.44015 0.43139 0.0
H915 H 0.31048 0.42353 0.54849 0.0
H916 H 0.34723 0.43517 0.56872 0.0
O917 O 0.36458 0.45283 0.44781 0.0
C918 C 0.37981 0.50667 0.45455 0.0
C919 C 0.36516 0.45226 0.53297 0.0
C920 C 0.32543 0.43323 0.53686 0.0
N921 N 0.34303 0.45147 0.49549 0.0
C922 C 0.36332 0.45804 0.50652 0.0
C923 C 0.32422 0.43932 0.51034 0.0
C924 C 0.34605 0.43976 0.54819 0.0
C925 C 0.33104 0.49627 0.38292 0.0
N926 N 0.35268 0.50551 0.39052 0.0
C927 C 0.32173 0.50955 0.3777 0.0
C928 C 0.33473 0.53243 0.38033 0.0
C929 C 0.35678 0.54173 0.38812 0.0
C930 C 0.36552 0.52794 0.3932 0.0
C931 C 0.4051 0.52282 0.33299 0.0
C932 C 0.41082 0.50991 0.38374 0.0
C933 C 0.38705 0.51033 0.34992 0.0
N934 N 0.39005 0.50406 0.37497 0.0
C935 C 0.42926 0.52242 0.36738 0.0
C936 C 0.42633 0.5289 0.34184 0.0
C937 C 0.37663 0.45555 0.42712 0.0
C938 C 0.28365 0.40498 0.42989 0.0
C939 C 0.32168 0.41266 0.45653 0.0
C940 C 0.30566 0.391 0.44998 0.0
C941 C 0.28653 0.38719 0.43657 0.0
N942 N 0.31871 0.43002 0.44998 0.0
C943 C 0.30003 0.42641 0.43677 0.0
Co944 Co 0.88467 0.35978 0.89345 0.0
Co945 Co 0.88828 0.3373 0.9544 0.0
O946 O 0.87743 0.33457 0.91724 0.0
C947 C 0.90353 0.35018 0.84539 0.0
O948 O 0.92136 0.36925 0.8501 0.0
C949 C 0.83918 0.31002 0.96026 0.0
O950 O 0.83737 0.323 0.94254 0.0
O951 O 0.88004 0.36011 0.96327 0.0
O952 O 0.88192 0.37701 0.92397 0.0
H953 H 0.9308 0.37864 0.03673 0.0
H954 H 0.84885 0.31505 0.87814 0.0
O955 O 0.88727 0.34286 0.86188 0.0
H956 H 0.81306 0.36047 0.88494 0.0
H957 H 0.87962 0.39609 0.80788 0.0
H958 H 0.914 0.40829 0.89778 0.0
H959 H 0.85308 0.37696 0.89301 0.0
H960 H 0.87049 0.36458 0.83808 0.0
O961 O 0.85824 0.31336 0.96697 0.0
H962 H 0.91713 0.3749 0.99007 0.0
H963 H 0.88199 0.30491 0.99765 0.0
H964 H 0.92353 0.44029 0.86826 0.0
H965 H 0.80882 0.29793 0.86952 0.0
H966 H 0.9063 0.43429 0.82294 0.0
H967 H 0.79064 0.32067 0.87302 0.0
O968 O 0.91694 0.37285 0.90149 0.0
H969 H 0.87525 0.26487 0.91691 0.0
H970 H 0.92897 0.33406 0.96214 0.0
H971 H 0.93965 0.30623 0.95096 0.0
H972 H 0.91266 0.2713 0.92827 0.0
H973 H 0.86532 0.29326 0.92825 0.0
H974 H 0.89513 0.30789 0.04447 0.0
H975 H 0.91979 0.34496 0.06427 0.0
O976 O 0.91852 0.36109 0.94318 0.0
C977 C 0.87951 0.3753 0.94953 0.0
C978 C 0.92012 0.36239 0.02831 0.0
C979 C 0.90007 0.32268 0.03266 0.0
N980 N 0.8989 0.33972 0.99109 0.0
C981 C 0.91237 0.36017 1.00188 0.0
C982 C 0.89264 0.32111 0.00616 0.0
C983 C 0.91391 0.34349 0.04375 0.0
C984 C 0.8411 0.32511 0.87944 0.0
N985 N 0.85331 0.347 0.88608 0.0
C986 C 0.81841 0.3153 0.87465 0.0
C987 C 0.80822 0.32805 0.87666 0.0
C988 C 0.82078 0.35038 0.88339 0.0
C989 C 0.84343 0.35961 0.88808 0.0
C990 C 0.88722 0.39893 0.82759 0.0
C991 C 0.90639 0.40555 0.87812 0.0
C992 C 0.88212 0.38115 0.84478 0.0
N993 N 0.89167 0.3846 0.86971 0.0
C994 C 0.91186 0.42373 0.86148 0.0
C995 C 0.90219 0.42035 0.83605 0.0
C996 C 0.92773 0.37281 0.92226 0.0
C997 C 0.88713 0.28 0.92686 0.0
C998 C 0.91717 0.31895 0.95215 0.0
C999 C 0.92329 0.30323 0.94593 0.0
C1000 C 0.90814 0.28363 0.93321 0.0
N1001 N 0.89649 0.31522 0.94597 0.0
C1002 C 0.88158 0.2961 0.9334 0.0
Co1003 Co 0.52287 0.87978 0.39584 0.0
Co1004 Co 0.55153 0.88352 0.45383 0.0
O1005 O 0.54097 0.87148 0.41765 0.0
C1006 C 0.55806 0.88877 0.35504 0.0
O1007 O 0.57318 0.90266 0.37183 0.0
C1008 C 0.53036 0.83477 0.46165 0.0
O1009 O 0.51412 0.83257 0.44622 0.0
O1010 O 0.52098 0.87494 0.46565 0.0
O1011 O 0.50693 0.88151 0.42848 0.0
H1012 H 0.55713 0.92772 0.53648 0.0
H1013 H 0.52493 0.83972 0.38107 0.0
O1014 O 0.53783 0.87799 0.36218 0.0
H1015 H 0.44614 0.81334 0.39939 0.0
H1016 H 0.47748 0.87525 0.31463 0.0
H1017 H 0.50848 0.91304 0.4011 0.0
H1018 H 0.47385 0.85298 0.40303 0.0
H1019 H 0.4996 0.86453 0.34299 0.0
O1020 O 0.54671 0.85396 0.46651 0.0
H1021 H 0.54435 0.91274 0.4908 0.0
H1022 H 0.58081 0.879 0.49403 0.0
H1023 H 0.48629 0.92415 0.37348 0.0
H1024 H 0.49772 0.79994 0.37687 0.0
H1025 H 0.47062 0.9052 0.32989 0.0
H1026 H 0.45802 0.78652 0.38617 0.0
O1027 O 0.54524 0.91175 0.39977 0.0
H1028 H 0.6088 0.87071 0.40915 0.0
H1029 H 0.59556 0.92473 0.45765 0.0
H1030 H 0.63325 0.93574 0.44207 0.0
H1031 H 0.64007 0.90862 0.41768 0.0
H1032 H 0.57131 0.86045 0.42492 0.0
H1033 H 0.59384 0.89345 0.53983 0.0
H1034 H 0.58206 0.91808 0.5613 0.0
O1035 O 0.5569 0.91352 0.44239 0.0
C1036 C 0.50618 0.87735 0.45363 0.0
C1037 C 0.56244 0.91706 0.5273 0.0
C1038 C 0.58302 0.89781 0.52919 0.0
N1039 N 0.56198 0.89517 0.48968 0.0
C1040 C 0.55531 0.90859 0.50142 0.0
C1041 C 0.57555 0.88964 0.50328 0.0
C1042 C 0.57641 0.91163 0.54123 0.0
C1043 C 0.50765 0.83402 0.38487 0.0
N1044 N 0.50099 0.84866 0.39223 0.0
C1045 C 0.49234 0.81147 0.38258 0.0
C1046 C 0.47007 0.80395 0.38785 0.0
C1047 C 0.4634 0.81899 0.3953 0.0
C1048 C 0.47918 0.84141 0.39742 0.0
C1049 C 0.48418 0.8836 0.33361 0.0
C1050 C 0.5016 0.90462 0.38224 0.0
C1051 C 0.49675 0.87763 0.34974 0.0
N1052 N 0.50518 0.88803 0.37379 0.0
C1053 C 0.4891 0.91103 0.36665 0.0
C1054 C 0.48033 0.9004 0.34219 0.0
C1055 C 0.55568 0.92269 0.42062 0.0
C1056 C 0.60605 0.88266 0.41982 0.0
C1057 C 0.59837 0.91285 0.44698 0.0
C1058 C 0.61977 0.91917 0.43826 0.0
C1059 C 0.62358 0.90394 0.42459 0.0
N1060 N 0.58128 0.89192 0.44231 0.0
C1061 C 0.58488 0.87692 0.42887 0.0
Co1062 Co 0.48902 0.36162 0.11174 0.0
Co1063 Co 0.4614 0.33597 0.05279 0.0
O1064 O 0.47106 0.33525 0.08976 0.0
C1065 C 0.46132 0.35321 0.16029 0.0
O1066 O 0.46181 0.37177 0.15427 0.0
C1067 C 0.48526 0.31059 0.04531 0.0
O1068 O 0.50215 0.32618 0.05855 0.0
O1069 O 0.49196 0.35916 0.04191 0.0
O1070 O 0.50763 0.37789 0.08 0.0
H1071 H 0.45609 0.37276 0.96829 0.0
H1072 H 0.48229 0.31825 0.12987 0.0
O1073 O 0.4706 0.34574 0.14453 0.0
H1074 H 0.5629 0.36546 0.11794 0.0
H1075 H 0.53208 0.40226 0.19452 0.0
H1076 H 0.50653 0.40971 0.10448 0.0
H1077 H 0.53797 0.3803 0.1095 0.0
H1078 H 0.50967 0.36932 0.1664 0.0
O1079 O 0.46793 0.31203 0.04169 0.0
H1080 H 0.46776 0.37152 0.01491 0.0
H1081 H 0.43467 0.30133 0.01196 0.0
H1082 H 0.52896 0.4431 0.13189 0.0
H1083 H 0.50666 0.3028 0.1388 0.0
H1084 H 0.54189 0.43948 0.17727 0.0
H1085 H 0.54727 0.32646 0.13277 0.0
O1086 O 0.46892 0.37339 0.10329 0.0
H1087 H 0.40519 0.26471 0.09624 0.0
H1088 H 0.41638 0.33029 0.04554 0.0
H1089 H 0.37867 0.30207 0.05923 0.0
H1090 H 0.37288 0.26894 0.08469 0.0
H1091 H 0.44266 0.29348 0.08239 0.0
H1092 H 0.42281 0.30182 0.96524 0.0
H1093 H 0.43345 0.33773 0.94314 0.0
O1094 O 0.45406 0.35943 0.06284 0.0
C1095 C 0.50775 0.37524 0.05456 0.0
C1096 C 0.45129 0.35701 0.97773 0.0
C1097 C 0.43264 0.3172 0.976 0.0
N1098 N 0.45178 0.33638 0.0162 0.0
C1099 C 0.4578 0.3562 0.00414 0.0
C1100 C 0.43946 0.31703 1.00244 0.0
C1101 C 0.43861 0.33735 0.96362 0.0
C1102 C 0.49997 0.3287 0.12746 0.0
N1103 N 0.5087 0.35018 0.11938 0.0
C1104 C 0.51367 0.31984 0.13243 0.0
C1105 C 0.53646 0.33312 0.12901 0.0
C1106 C 0.54524 0.355 0.12068 0.0
C1107 C 0.53102 0.36329 0.11586 0.0
C1108 C 0.52658 0.40405 0.17477 0.0
C1109 C 0.51216 0.40801 0.12417 0.0
C1110 C 0.51389 0.38547 0.15875 0.0
N1111 N 0.50688 0.3876 0.13376 0.0
C1112 C 0.52483 0.42697 0.13961 0.0
C1113 C 0.53207 0.42493 0.16508 0.0
C1114 C 0.457 0.37195 0.08308 0.0
C1115 C 0.4075 0.27906 0.08513 0.0
C1116 C 0.41402 0.31603 0.05681 0.0
C1117 C 0.39262 0.30005 0.06441 0.0
C1118 C 0.38938 0.28145 0.07867 0.0
N1119 N 0.4317 0.31354 0.06316 0.0
C1120 C 0.42867 0.29538 0.07719 0.0
Co1121 Co 0.13425 0.48478 0.61323 0.0
Co1122 Co 0.13146 0.45968 0.55181 0.0
O1123 O 0.14201 0.46735 0.58916 0.0
C1124 C 0.11573 0.45584 0.66093 0.0
O1125 O 0.09763 0.45659 0.65618 0.0
C1126 C 0.18064 0.48128 0.54651 0.0
O1127 O 0.18248 0.49589 0.56452 0.0
O1128 O 0.1399 0.49087 0.54357 0.0
O1129 O 0.13654 0.5048 0.58299 0.0
H1130 H 0.08991 0.45994 0.46926 0.0
H1131 H 0.17068 0.4768 0.62854 0.0
O1132 O 0.13204 0.46523 0.64456 0.0
H1133 H 0.20496 0.55788 0.62203 0.0
H1134 H 0.13832 0.52517 0.69934 0.0
H1135 H 0.10408 0.50304 0.60935 0.0
H1136 H 0.16506 0.53372 0.61374 0.0
H1137 H 0.14812 0.50351 0.66876 0.0
O1138 O 0.16156 0.46578 0.53946 0.0
H1139 H 0.10312 0.46914 0.51617 0.0
H1140 H 0.13796 0.43402 0.50811 0.0
H1141 H 0.09387 0.52478 0.63926 0.0
H1142 H 0.21061 0.50037 0.63736 0.0
H1143 H 0.11102 0.53598 0.68462 0.0
H1144 H 0.22802 0.54122 0.63402 0.0
O1145 O 0.10213 0.46514 0.60506 0.0
H1146 H 0.14388 0.39964 0.58836 0.0
H1147 H 0.09077 0.41593 0.54302 0.0
H1148 H 0.07987 0.37725 0.55346 0.0
H1149 H 0.10655 0.36889 0.5762 0.0
H1150 H 0.15403 0.43812 0.57776 0.0
H1151 H 0.12528 0.42459 0.46103 0.0
H1152 H 0.101 0.43752 0.44134 0.0
O1153 O 0.10111 0.45314 0.56275 0.0
C1154 C 0.1396 0.50608 0.55753 0.0
C1155 C 0.10042 0.45416 0.47763 0.0
C1156 C 0.1203 0.43434 0.47301 0.0
N1157 N 0.12116 0.452 0.51493 0.0
C1158 C 0.1079 0.45926 0.50421 0.0
C1159 C 0.12747 0.43978 0.49966 0.0
C1160 C 0.10667 0.44159 0.46197 0.0
C1161 C 0.17809 0.49457 0.62733 0.0
N1162 N 0.16552 0.50386 0.62068 0.0
C1163 C 0.20073 0.50783 0.63222 0.0
C1164 C 0.21049 0.53074 0.63029 0.0
C1165 C 0.19757 0.5401 0.62354 0.0
C1166 C 0.17499 0.52633 0.61874 0.0
C1167 C 0.13075 0.52042 0.67961 0.0
C1168 C 0.11167 0.5079 0.62903 0.0
C1169 C 0.13623 0.50815 0.6622 0.0
N1170 N 0.12672 0.50206 0.63725 0.0
C1171 C 0.1058 0.5202 0.64589 0.0
C1172 C 0.11543 0.52647 0.67134 0.0
C1173 C 0.0916 0.45488 0.58389 0.0
C1174 C 0.13213 0.40306 0.57838 0.0
C1175 C 0.10244 0.41244 0.55304 0.0
C1176 C 0.09619 0.3905 0.55883 0.0
C1177 C 0.11117 0.38582 0.57158 0.0
N1178 N 0.12307 0.42925 0.55966 0.0
C1179 C 0.13781 0.42481 0.57227 0.0
Co1180 Co 0.6549 0.1319 0.10952 0.0
Co1181 Co 0.67747 0.1293 0.04807 0.0
O1182 O 0.68017 0.1397 0.08551 0.0
C1183 C 0.66457 0.11236 0.15673 0.0
O1184 O 0.64553 0.0946 0.15163 0.0
C1185 C 0.70544 0.17859 0.04333 0.0
O1186 O 0.6932 0.18064 0.06196 0.0
O1187 O 0.65452 0.1375 0.03984 0.0
O1188 O 0.63753 0.1348 0.07936 0.0
H1189 H 0.63605 0.08761 0.96536 0.0
H1190 H 0.69938 0.16771 0.12564 0.0
O1191 O 0.67187 0.12896 0.14078 0.0
H1192 H 0.65348 0.20303 0.11985 0.0
H1193 H 0.61836 0.13545 0.19578 0.0
H1194 H 0.60642 0.10229 0.1051 0.0
H1195 H 0.63736 0.16319 0.11064 0.0
H1196 H 0.64993 0.14521 0.16536 0.0
O1197 O 0.70135 0.15945 0.03581 0.0
H1198 H 0.63984 0.10075 0.01231 0.0
H1199 H 0.70982 0.13613 0.00442 0.0
H1200 H 0.57436 0.09213 0.13484 0.0
H1201 H 0.71611 0.20755 0.13541 0.0
H1202 H 0.58024 0.10874 0.18055 0.0
H1203 H 0.69313 0.22548 0.13242 0.0
O1204 O 0.64208 0.09983 0.10073 0.0
H1205 H 0.74997 0.14213 0.08491 0.0
H1206 H 0.68094 0.08884 0.03908 0.0
H1207 H 0.70887 0.07817 0.04957 0.0
H1208 H 0.74373 0.10495 0.07256 0.0
H1209 H 0.72149 0.15205 0.07426 0.0
H1210 H 0.70678 0.12352 0.95732 0.0
H1211 H 0.66969 0.09901 0.93753 0.0
O1212 O 0.65385 0.09891 0.05883 0.0
C1213 C 0.63917 0.13754 0.05385 0.0
C1214 C 0.65231 0.09824 0.97378 0.0
C1215 C 0.692 0.11842 0.96926 0.0
N1216 N 0.67502 0.11909 0.01115 0.0
C1217 C 0.65456 0.10569 1.00037 0.0
C1218 C 0.69362 0.12555 0.99592 0.0
C1219 C 0.67119 0.10466 0.95817 0.0
C1220 C 0.68921 0.17535 0.12458 0.0
N1221 N 0.6674 0.16311 0.11763 0.0
C1222 C 0.6988 0.19793 0.13001 0.0
C1223 C 0.68591 0.20799 0.12829 0.0
C1224 C 0.66367 0.19541 0.1212 0.0
C1225 C 0.65465 0.17287 0.11587 0.0
C1226 C 0.61558 0.12812 0.1759 0.0
C1227 C 0.6091 0.10964 0.12494 0.0
C1228 C 0.63339 0.13358 0.15858 0.0
N1229 N 0.63002 0.12437 0.13343 0.0
C1230 C 0.59089 0.1038 0.1417 0.0
C1231 C 0.5942 0.11313 0.16734 0.0
C1232 C 0.64221 0.08936 0.07967 0.0
C1233 C 0.73488 0.13035 0.07482 0.0
C1234 C 0.69602 0.10055 0.0492 0.0
C1235 C 0.7118 0.09443 0.05502 0.0
C1236 C 0.73136 0.10947 0.06791 0.0
N1237 N 0.69965 0.1211 0.05592 0.0
C1238 C 0.71873 0.13589 0.06867 0.0
Co1239 Co 0.52798 0.65077 0.60756 0.0
Co1240 Co 0.55201 0.67369 0.54606 0.0
O1241 O 0.54468 0.67631 0.58371 0.0
C1242 C 0.55731 0.66206 0.65492 0.0
O1243 O 0.55733 0.64362 0.64986 0.0
C1244 C 0.53095 0.70188 0.54233 0.0
O1245 O 0.51654 0.68929 0.56064 0.0
O1246 O 0.52062 0.65126 0.53824 0.0
O1247 O 0.5084 0.63265 0.57722 0.0
H1248 H 0.55045 0.63239 0.46229 0.0
H1249 H 0.53386 0.6942 0.62403 0.0
O1250 O 0.5472 0.66843 0.63897 0.0
H1251 H 0.45322 0.64475 0.61639 0.0
H1252 H 0.48834 0.61297 0.6935 0.0
H1253 H 0.5118 0.60272 0.60331 0.0
H1254 H 0.4788 0.63076 0.60746 0.0
H1255 H 0.509 0.64485 0.66313 0.0
O1256 O 0.54607 0.69794 0.53458 0.0
H1257 H 0.54178 0.63611 0.50961 0.0
H1258 H 0.5775 0.70614 0.50251 0.0
H1259 H 0.49111 0.57037 0.633 0.0
H1260 H 0.50884 0.70881 0.6335 0.0
H1261 H 0.47924 0.5754 0.67846 0.0
H1262 H 0.46821 0.68402 0.6296 0.0
O1263 O 0.54864 0.63968 0.59906 0.0
H1264 H 0.61272 0.74549 0.58314 0.0
H1265 H 0.59557 0.67659 0.53577 0.0
H1266 H 0.6344 0.70402 0.54593 0.0
H1267 H 0.64319 0.73881 0.5697 0.0
H1268 H 0.57408 0.71749 0.5728 0.0
H1269 H 0.5864 0.70317 0.45506 0.0
H1270 H 0.57291 0.66608 0.43469 0.0
O1271 O 0.55859 0.64965 0.55602 0.0
C1272 C 0.50622 0.63499 0.55209 0.0
C1273 C 0.55648 0.64864 0.47097 0.0
C1274 C 0.57663 0.68836 0.4669 0.0
N1275 N 0.55926 0.67131 0.50886 0.0
C1276 C 0.55167 0.65085 0.49776 0.0
C1277 C 0.57149 0.68994 0.49376 0.0
C1278 C 0.56906 0.66755 0.45548 0.0
C1279 C 0.51619 0.68325 0.6226 0.0
N1280 N 0.50782 0.66163 0.61533 0.0
C1281 C 0.50211 0.69164 0.62785 0.0
C1282 C 0.47931 0.67774 0.62561 0.0
C1283 C 0.4709 0.65571 0.61816 0.0
C1284 C 0.48548 0.6479 0.61303 0.0
C1285 C 0.49339 0.61056 0.67372 0.0
C1286 C 0.50663 0.60503 0.62303 0.0
C1287 C 0.50508 0.62854 0.65643 0.0
N1288 N 0.51151 0.62563 0.63141 0.0
C1289 C 0.49494 0.58666 0.63976 0.0
C1290 C 0.48829 0.58949 0.66527 0.0
C1291 C 0.55813 0.63914 0.57732 0.0
C1292 C 0.6091 0.73042 0.57272 0.0
C1293 C 0.59924 0.69163 0.54624 0.0
C1294 C 0.62127 0.70713 0.55187 0.0
C1295 C 0.62619 0.72665 0.5652 0.0
N1296 N 0.58258 0.69549 0.55359 0.0
C1297 C 0.58727 0.71454 0.56675 0.0
Co1298 Co 0.8774 0.51806 0.10522 0.0
Co1299 Co 0.88197 0.54624 0.04603 0.0
O1300 O 0.86982 0.53619 0.08235 0.0
C1301 C 0.8891 0.55479 0.14491 0.0
O1302 O 0.90368 0.56918 0.12798 0.0
C1303 C 0.83317 0.52404 0.03806 0.0
O1304 O 0.83123 0.50829 0.05424 0.0
O1305 O 0.8745 0.51578 0.03505 0.0
O1306 O 0.87742 0.50041 0.07347 0.0
H1307 H 0.92764 0.55213 0.96465 0.0
H1308 H 0.83892 0.52325 0.11882 0.0
O1309 O 0.87705 0.53462 0.13808 0.0
H1310 H 0.80852 0.44296 0.10784 0.0
H1311 H 0.87258 0.47504 0.18906 0.0
H1312 H 0.90859 0.50107 0.10042 0.0
H1313 H 0.8485 0.46891 0.10266 0.0
H1314 H 0.86264 0.49716 0.15955 0.0
O1315 O 0.85224 0.5404 0.0327 0.0
H1316 H 0.91239 0.53974 0.01035 0.0
H1317 H 0.87675 0.57419 0.00445 0.0
H1318 H 0.91886 0.47879 0.12919 0.0
H1319 H 0.79884 0.4979 0.12456 0.0
H1320 H 0.90082 0.46563 0.17387 0.0
H1321 H 0.78339 0.45744 0.11893 0.0
O1322 O 0.90972 0.53917 0.10004 0.0
H1323 H 0.8668 0.60293 0.08781 0.0
H1324 H 0.9225 0.59075 0.04174 0.0
H1325 H 0.93239 0.62843 0.05606 0.0
H1326 H 0.90442 0.63471 0.07922 0.0
H1327 H 0.85766 0.56547 0.07333 0.0
H1328 H 0.89146 0.58681 0.95859 0.0
H1329 H 0.91717 0.57584 0.93845 0.0
O1330 O 0.91197 0.55256 0.05818 0.0
C1331 C 0.87505 0.50024 0.04795 0.0
C1332 C 0.9165 0.55708 0.97324 0.0
C1333 C 0.89617 0.57651 0.96983 0.0
N1334 N 0.89382 0.55636 0.01012 0.0
C1335 C 0.90786 0.55016 0.99913 0.0
C1336 C 0.88785 0.56928 0.99577 0.0
C1337 C 0.9106 0.57036 0.95854 0.0
C1338 C 0.83233 0.50565 0.11652 0.0
N1339 N 0.84603 0.49757 0.11021 0.0
C1340 C 0.80962 0.49139 0.11972 0.0
C1341 C 0.80095 0.46869 0.11651 0.0
C1342 C 0.81504 0.46056 0.11024 0.0
C1343 C 0.83766 0.47533 0.10715 0.0
C1344 C 0.88054 0.48065 0.16961 0.0
C1345 C 0.90056 0.49528 0.11976 0.0
C1346 C 0.87502 0.49323 0.15284 0.0
N1347 N 0.88492 0.50028 0.12819 0.0
C1348 C 0.90649 0.48272 0.13599 0.0
C1349 C 0.89637 0.47537 0.16107 0.0
C1350 C 0.92086 0.55041 0.07962 0.0
C1351 C 0.87911 0.60041 0.07767 0.0
C1352 C 0.91025 0.59333 0.05187 0.0
C1353 C 0.91594 0.61472 0.05989 0.0
C1354 C 0.90023 0.61823 0.07287 0.0
N1355 N 0.88947 0.57595 0.05656 0.0
C1356 C 0.87401 0.57926 0.06935 0.0
Co1357 Co 0.36477 0.88107 0.61299 0.0
Co1358 Co 0.34123 0.88241 0.55212 0.0
O1359 O 0.33907 0.87233 0.58957 0.0
C1360 C 0.35371 0.89904 0.66072 0.0
O1361 O 0.37214 0.91753 0.65567 0.0
C1362 C 0.31472 0.83332 0.54777 0.0
O1363 O 0.32819 0.83214 0.56526 0.0
O1364 O 0.36403 0.87415 0.54354 0.0
O1365 O 0.38263 0.87957 0.58231 0.0
H1366 H 0.38142 0.92306 0.46817 0.0
H1367 H 0.32133 0.84355 0.62959 0.0
O1368 O 0.34732 0.88263 0.64466 0.0
H1369 H 0.37058 0.81217 0.62084 0.0
H1370 H 0.40302 0.87907 0.69828 0.0
H1371 H 0.41283 0.91277 0.6082 0.0
H1372 H 0.38467 0.85181 0.6123 0.0
H1373 H 0.37097 0.86796 0.66832 0.0
O1374 O 0.31745 0.85208 0.54069 0.0
H1375 H 0.37832 0.91052 0.51533 0.0
H1376 H 0.30825 0.87493 0.50921 0.0
H1377 H 0.44534 0.92431 0.63746 0.0
H1378 H 0.30664 0.80387 0.63864 0.0
H1379 H 0.44054 0.90742 0.68287 0.0
H1380 H 0.33132 0.78792 0.63419 0.0
O1381 O 0.37594 0.91286 0.60463 0.0
H1382 H 0.26903 0.86951 0.59036 0.0
H1383 H 0.33736 0.92262 0.54288 0.0
H1384 H 0.30939 0.93317 0.5538 0.0
H1385 H 0.27489 0.90648 0.57763 0.0
H1386 H 0.29756 0.85972 0.57926 0.0
H1387 H 0.31059 0.88694 0.46192 0.0
H1388 H 0.34738 0.91125 0.44114 0.0
O1389 O 0.36492 0.91306 0.56217 0.0
C1390 C 0.38024 0.87559 0.55705 0.0
C1391 C 0.36529 0.91253 0.47703 0.0
C1392 C 0.32554 0.89223 0.47351 0.0
N1393 N 0.34313 0.89217 0.51507 0.0
C1394 C 0.36343 0.90543 0.50374 0.0
C1395 C 0.32432 0.88545 0.50027 0.0
C1396 C 0.34618 0.90588 0.46186 0.0
C1397 C 0.33224 0.83679 0.62792 0.0
N1398 N 0.35386 0.85002 0.62058 0.0
C1399 C 0.3238 0.81428 0.63294 0.0
C1400 C 0.33764 0.80534 0.63038 0.0
C1401 C 0.35967 0.81893 0.62287 0.0
C1402 C 0.36753 0.84136 0.61797 0.0
C1403 C 0.40533 0.88652 0.67852 0.0
C1404 C 0.41062 0.90529 0.62789 0.0
C1405 C 0.38726 0.88029 0.66146 0.0
N1406 N 0.39005 0.88964 0.63647 0.0
C1407 C 0.42908 0.91191 0.64439 0.0
C1408 C 0.42638 0.90243 0.66986 0.0
C1409 C 0.37597 0.92298 0.58321 0.0
C1410 C 0.28397 0.88126 0.57992 0.0
C1411 C 0.32245 0.91095 0.55338 0.0
C1412 C 0.30664 0.917 0.55944 0.0
C1413 C 0.28728 0.90202 0.57279 0.0
N1414 N 0.31903 0.89053 0.56033 0.0
C1415 C 0.30015 0.87578 0.57352 0.0
H1416 H 0.3319 0.41865 0.18072 0.0
H1417 H 0.3358 0.48203 0.19039 0.0
H1418 H 0.32876 0.41347 0.22967 0.0
H1419 H 0.33321 0.47713 0.23895 0.0
H1420 H 0.32327 0.46354 0.32636 0.0
H1421 H 0.31279 0.45798 0.27878 0.0
H1422 H 0.35554 0.43063 0.26544 0.0
H1423 H 0.36553 0.43565 0.31286 0.0
C1424 C 0.33162 0.43126 0.1932 0.0
C1425 C 0.3344 0.45088 0.18164 0.0
C1426 C 0.32998 0.42836 0.22127 0.0
C1427 C 0.33098 0.44499 0.23834 0.0
C1428 C 0.33217 0.46387 0.22654 0.0
C1429 C 0.33385 0.46677 0.19859 0.0
C1430 C 0.32996 0.45579 0.31341 0.0
C1431 C 0.34547 0.45031 0.32337 0.0
C1432 C 0.32408 0.45276 0.28607 0.0
C1433 C 0.33354 0.44413 0.26813 0.0
C1434 C 0.34777 0.43716 0.2786 0.0
C1435 C 0.35365 0.4402 0.30586 0.0
H1436 H 0.86016 0.33635 0.68607 0.0
H1437 H 0.91658 0.32745 0.67442 0.0
H1438 H 0.86237 0.33259 0.73446 0.0
H1439 H 0.91859 0.3233 0.7232 0.0
H1440 H 0.93535 0.35918 0.80764 0.0
H1441 H 0.92993 0.35003 0.75992 0.0
H1442 H 0.85951 0.30992 0.77318 0.0
H1443 H 0.86491 0.31945 0.82108 0.0
C1444 C 0.87278 0.33311 0.6938 0.0
C1445 C 0.88839 0.33251 0.67637 0.0
C1446 C 0.87393 0.33075 0.72163 0.0
C1447 C 0.89076 0.32778 0.73282 0.0
C1448 C 0.90558 0.32583 0.71526 0.0
C1449 C 0.90436 0.32808 0.68729 0.0
C1450 C 0.91874 0.34799 0.80054 0.0
C1451 C 0.90054 0.34031 0.81813 0.0
C1452 C 0.91564 0.34261 0.77312 0.0
C1453 C 0.89425 0.32946 0.76259 0.0
C1454 C 0.87618 0.32038 0.78057 0.0
C1455 C 0.8793 0.3257 0.80808 0.0
H1456 H 0.53207 0.85833 0.31754 0.0
H1457 H 0.59606 0.91697 0.32735 0.0
H1458 H 0.53751 0.86008 0.26907 0.0
H1459 H 0.60175 0.91848 0.27849 0.0
H1460 H 0.58089 0.9325 0.1938 0.0
H1461 H 0.58533 0.92813 0.2416 0.0
H1462 H 0.55715 0.85774 0.23021 0.0
H1463 H 0.5522 0.86205 0.18228 0.0
C1464 C 0.54755 0.87135 0.30939 0.0
C1465 C 0.5635 0.8877 0.32633 0.0
C1466 C 0.55076 0.87224 0.28151 0.0
C1467 C 0.57001 0.88952 0.26976 0.0
C1468 C 0.5866 0.90511 0.28685 0.0
C1469 C 0.58341 0.90417 0.31487 0.0
C1470 C 0.57606 0.91612 0.20132 0.0
C1471 C 0.56587 0.89759 0.18424 0.0
C1472 C 0.57876 0.91363 0.2288 0.0
C1473 C 0.57133 0.89253 0.23989 0.0
C1474 C 0.5627 0.87418 0.22241 0.0
C1475 C 0.56001 0.87668 0.19487 0.0
H1476 H 0.67882 0.52796 0.81419 0.0
H1477 H 0.68352 0.59153 0.82572 0.0
H1478 H 0.68286 0.53423 0.76583 0.0
H1479 H 0.68795 0.598 0.77699 0.0
H1480 H 0.65426 0.57839 0.69138 0.0
H1481 H 0.6621 0.58174 0.73947 0.0
H1482 H 0.70569 0.55519 0.72774 0.0
H1483 H 0.69751 0.55143 0.67953 0.0
C1484 C 0.6812 0.54352 0.80645 0.0
C1485 C 0.68058 0.55913 0.82384 0.0
C1486 C 0.6837 0.5472 0.77864 0.0
C1487 C 0.68559 0.56657 0.76742 0.0
C1488 C 0.68627 0.58278 0.78495 0.0
C1489 C 0.68388 0.57914 0.81289 0.0
C1490 C 0.6659 0.57371 0.69892 0.0
C1491 C 0.675 0.56436 0.6816 0.0
C1492 C 0.67052 0.57576 0.72655 0.0
C1493 C 0.68432 0.56848 0.73759 0.0
C1494 C 0.6947 0.56063 0.71997 0.0
C1495 C 0.69014 0.55864 0.69227 0.0
H1496 H 0.15724 0.67795 0.32173 0.0
H1497 H 0.09639 0.67885 0.33387 0.0
H1498 H 0.15405 0.68076 0.27341 0.0
H1499 H 0.09345 0.68228 0.28512 0.0
H1500 H 0.07935 0.64751 0.20064 0.0
H1501 H 0.08444 0.65662 0.24832 0.0
H1502 H 0.15413 0.70122 0.23455 0.0
H1503 H 0.14913 0.69156 0.18672 0.0
C1504 C 0.14339 0.67924 0.31412 0.0
C1505 C 0.12689 0.67783 0.3317 0.0
C1506 C 0.14166 0.68107 0.2863 0.0
C1507 C 0.12339 0.68158 0.27522 0.0
C1508 C 0.10758 0.6816 0.29293 0.0
C1509 C 0.10934 0.6798 0.3209 0.0
C1510 C 0.09572 0.6596 0.20762 0.0
C1511 C 0.11389 0.66852 0.18988 0.0
C1512 C 0.09861 0.66497 0.23504 0.0
C1513 C 0.11976 0.67946 0.24545 0.0
C1514 C 0.13767 0.68967 0.22732 0.0
C1515 C 0.13478 0.68427 0.19984 0.0
H1516 H 0.48231 0.15187 0.82039 0.0
H1517 H 0.4218 0.08917 0.8284 0.0
H1518 H 0.47786 0.15014 0.77182 0.0
H1519 H 0.41698 0.0877 0.77942 0.0
H1520 H 0.44138 0.07775 0.69517 0.0
H1521 H 0.43559 0.08095 0.74287 0.0
H1522 H 0.45834 0.15053 0.7323 0.0
H1523 H 0.46476 0.14745 0.68446 0.0
C1524 C 0.46774 0.13791 0.81182 0.0
C1525 C 0.45258 0.12048 0.82832 0.0
C1526 C 0.46508 0.13702 0.78385 0.0
C1527 C 0.44715 0.11868 0.77155 0.0
C1528 C 0.43118 0.10191 0.78818 0.0
C1529 C 0.43384 0.10282 0.81629 0.0
C1530 C 0.44476 0.09368 0.70285 0.0
C1531 C 0.45387 0.11241 0.68601 0.0
C1532 C 0.44127 0.09548 0.73028 0.0
C1533 C 0.44675 0.11607 0.74162 0.0
C1534 C 0.45432 0.1345 0.72436 0.0
C1535 C 0.45785 0.13269 0.69686 0.0
H1536 H 0.58189 0.65453 0.69147 0.0
H1537 H 0.54884 0.69224 0.67986 0.0
H1538 H 0.58679 0.66426 0.73896 0.0
H1539 H 0.55429 0.70254 0.72753 0.0
H1540 H 0.53171 0.67746 0.81565 0.0
H1541 H 0.53645 0.68105 0.76713 0.0
H1542 H 0.60232 0.69064 0.77525 0.0
H1543 H 0.59731 0.68645 0.82419 0.0
C1544 C 0.57619 0.66541 0.69891 0.0
C1545 C 0.56466 0.67231 0.68193 0.0
C1546 C 0.57916 0.67116 0.7262 0.0
C1547 C 0.57069 0.68397 0.73725 0.0
C1548 C 0.56069 0.69232 0.71979 0.0
C1549 C 0.55772 0.68657 0.6924 0.0
C1550 C 0.54739 0.68071 0.80721 0.0
C1551 C 0.564 0.68129 0.82382 0.0
C1552 C 0.55019 0.68299 0.77928 0.0
C1553 C 0.5697 0.68595 0.76714 0.0
C1554 C 0.58694 0.68805 0.7839 0.0
C1555 C 0.58414 0.68579 0.81197 0.0
H1556 H 0.86665 0.54927 0.31873 0.0
H1557 H 0.93658 0.57683 0.30392 0.0
H1558 H 0.86123 0.55481 0.2713 0.0
H1559 H 0.93111 0.5817 0.25666 0.0
H1560 H 0.91893 0.59246 0.17193 0.0
H1561 H 0.92157 0.59833 0.22075 0.0
H1562 H 0.86151 0.53559 0.23154 0.0
H1563 H 0.85855 0.5301 0.18314 0.0
C1564 C 0.88094 0.55694 0.30553 0.0
C1565 C 0.902 0.56231 0.31506 0.0
C1566 C 0.87781 0.55995 0.27826 0.0
C1567 C 0.89567 0.56839 0.25996 0.0
C1568 C 0.91697 0.57531 0.27005 0.0
C1569 C 0.92009 0.57234 0.29724 0.0
C1570 C 0.906 0.58022 0.18472 0.0
C1571 C 0.88872 0.56067 0.17363 0.0
C1572 C 0.90759 0.5835 0.21273 0.0
C1573 C 0.89191 0.56731 0.23022 0.0
C1574 C 0.87381 0.54854 0.21886 0.0
C1575 C 0.87222 0.54529 0.19097 0.0
H1576 H 0.32296 0.8603 0.68494 0.0
H1577 H 0.36172 0.93084 0.69807 0.0
H1578 H 0.31241 0.85495 0.73254 0.0
H1579 H 0.35169 0.92547 0.7455 0.0
H1580 H 0.32883 0.91288 0.83047 0.0
H1581 H 0.32492 0.91441 0.7816 0.0
H1582 H 0.33369 0.85772 0.77206 0.0
H1583 H 0.33704 0.8559 0.82054 0.0
C1584 C 0.32883 0.87471 0.6978 0.0
C1585 C 0.34345 0.89597 0.68777 0.0
C1586 C 0.32292 0.87162 0.72515 0.0
C1587 C 0.33145 0.88974 0.743 0.0
C1588 C 0.34465 0.91113 0.73242 0.0
C1589 C 0.35056 0.9142 0.70516 0.0
C1590 C 0.32935 0.90042 0.81796 0.0
C1591 C 0.33357 0.88448 0.82939 0.0
C1592 C 0.32726 0.90138 0.78993 0.0
C1593 C 0.32924 0.88635 0.7728 0.0
C1594 C 0.33186 0.86946 0.78452 0.0
C1595 C 0.33399 0.86854 0.81242 0.0
H1596 H 0.42296 0.33328 0.33044 0.0
H1597 H 0.48423 0.3327 0.32124 0.0
H1598 H 0.41768 0.32978 0.28156 0.0
H1599 H 0.47937 0.32996 0.27274 0.0
H1600 H 0.46623 0.32071 0.1852 0.0
H1601 H 0.46039 0.31062 0.23293 0.0
H1602 H 0.43523 0.35533 0.24536 0.0
H1603 H 0.44038 0.36481 0.19783 0.0
C1604 C 0.43508 0.33199 0.31809 0.0
C1605 C 0.45418 0.33361 0.32976 0.0
C1606 C 0.43215 0.33016 0.29003 0.0
C1607 C 0.44825 0.3299 0.27306 0.0
C1608 C 0.46651 0.32992 0.28501 0.0
C1609 C 0.4694 0.33169 0.31296 0.0
C1610 C 0.45892 0.32794 0.19801 0.0
C1611 C 0.45405 0.3438 0.18773 0.0
C1612 C 0.45572 0.32228 0.22544 0.0
C1613 C 0.44761 0.33237 0.24319 0.0
C1614 C 0.44132 0.34704 0.23241 0.0
C1615 C 0.44446 0.35264 0.20506 0.0
H1616 H 0.08399 0.43271 0.69863 0.0
H1617 H 0.15446 0.464 0.68519 0.0
H1618 H 0.08946 0.4291 0.74632 0.0
H1619 H 0.15993 0.45991 0.73306 0.0
H1620 H 0.15926 0.48592 0.81992 0.0
H1621 H 0.15715 0.47957 0.77164 0.0
H1622 H 0.10075 0.41425 0.78331 0.0
H1623 H 0.10261 0.42084 0.83199 0.0
C1624 C 0.10063 0.43828 0.70573 0.0
C1625 C 0.11881 0.44896 0.68814 0.0
C1626 C 0.10376 0.43606 0.73314 0.0
C1627 C 0.12518 0.44448 0.74368 0.0
C1628 C 0.14324 0.45358 0.72568 0.0
C1629 C 0.14009 0.45576 0.69818 0.0
C1630 C 0.14662 0.47002 0.81231 0.0
C1631 C 0.13089 0.45401 0.82982 0.0
C1632 C 0.14554 0.46629 0.78454 0.0
C1633 C 0.12867 0.44645 0.77346 0.0
C1634 C 0.11378 0.42984 0.79114 0.0
C1635 C 0.11492 0.43355 0.81906 0.0
H1636 H 0.68447 0.09501 0.32706 0.0
H1637 H 0.68021 0.15423 0.31674 0.0
H1638 H 0.6892 0.09361 0.27829 0.0
H1639 H 0.68433 0.15254 0.26841 0.0
H1640 H 0.6962 0.1502 0.1817 0.0
H1641 H 0.70584 0.15459 0.22955 0.0
H1642 H 0.66378 0.08419 0.24122 0.0
H1643 H 0.65472 0.07976 0.19355 0.0
C1644 C 0.68496 0.10795 0.31449 0.0
C1645 C 0.68164 0.12454 0.32577 0.0
C1646 C 0.68753 0.10707 0.28652 0.0
C1647 C 0.68693 0.12283 0.2693 0.0
C1648 C 0.68512 0.14024 0.28091 0.0
C1649 C 0.68253 0.14108 0.30874 0.0
C1650 C 0.68955 0.13559 0.19434 0.0
C1651 C 0.67443 0.11467 0.18387 0.0
C1652 C 0.69492 0.13812 0.22184 0.0
C1653 C 0.68531 0.1198 0.23941 0.0
C1654 C 0.67164 0.09868 0.22839 0.0
C1655 C 0.66629 0.09616 0.20098 0.0
H1656 H 0.18778 0.47298 0.01191 0.0
H1657 H 0.2275 0.51159 0.94439 0.0
H1658 H 0.22039 0.47415 0.03206 0.0
H1659 H 0.25997 0.51203 0.96428 0.0
H1660 H 0.29502 0.47073 0.99926 0.0
H1661 H 0.26423 0.47312 0.97912 0.0
H1662 H 0.26419 0.51199 0.0467 0.0
H1663 H 0.29557 0.51033 0.06656 0.0
C1664 C 0.20347 0.48171 1.00138 0.0
C1665 C 0.20509 0.49222 0.97657 0.0
C1666 C 0.2221 0.48243 0.01298 0.0
C1667 C 0.2426 0.49318 0.99969 0.0
C1668 C 0.2443 0.50366 0.97488 0.0
C1669 C 0.22577 0.50345 0.96359 0.0
C1670 C 0.28854 0.47989 0.00977 0.0
C1671 C 0.29772 0.49035 0.03451 0.0
C1672 C 0.27101 0.48133 0.99817 0.0
C1673 C 0.26195 0.49277 0.01137 0.0
C1674 C 0.27097 0.50312 0.03615 0.0
C1675 C 0.28891 0.50219 0.04744 0.0
H1676 H 0.73451 0.181 0.49086 0.0
H1677 H 0.70925 0.22212 0.46059 0.0
H1678 H 0.76622 0.21339 0.50991 0.0
H1679 H 0.7414 0.25478 0.47935 0.0
H1680 H 0.83198 0.27748 0.51402 0.0
H1681 H 0.79944 0.24579 0.49523 0.0
H1682 H 0.75897 0.27293 0.52194 0.0
H1683 H 0.7918 0.30506 0.54045 0.0
C1684 C 0.73572 0.19697 0.48817 0.0
C1685 C 0.71927 0.19889 0.4741 0.0
C1686 C 0.75404 0.21562 0.499 0.0
C1687 C 0.75651 0.23679 0.49608 0.0
C1688 C 0.73996 0.23873 0.48222 0.0
C1689 C 0.72157 0.22001 0.47132 0.0
C1690 C 0.81618 0.27678 0.51595 0.0
C1691 C 0.81458 0.29389 0.52884 0.0
C1692 C 0.79743 0.25847 0.50526 0.0
C1693 C 0.77648 0.25667 0.50715 0.0
C1694 C 0.77485 0.27385 0.51988 0.0
C1695 C 0.79367 0.29222 0.53064 0.0
H1696 H 0.54343 0.82678 0.99455 0.0
H1697 H 0.51419 0.79006 0.06775 0.0
H1698 H 0.54144 0.79387 0.97418 0.0
H1699 H 0.51295 0.75729 0.04752 0.0
H1700 H 0.55014 0.72115 0.00712 0.0
H1701 H 0.54821 0.75196 0.02802 0.0
H1702 H 0.50634 0.75069 0.96335 0.0
H1703 H 0.50758 0.71929 0.94278 0.0
C1704 C 0.53657 0.81167 0.00628 0.0
C1705 C 0.52895 0.811 0.03276 0.0
C1706 C 0.53536 0.79285 0.99456 0.0
C1707 C 0.52704 0.7731 0.0093 0.0
C1708 C 0.51943 0.77235 0.03577 0.0
C1709 C 0.52008 0.79105 0.04727 0.0
C1710 C 0.5404 0.72734 0.99743 0.0
C1711 C 0.52901 0.7178 0.97329 0.0
C1712 C 0.53923 0.74488 0.00948 0.0
C1713 C 0.52711 0.75362 0.9973 0.0
C1714 C 0.51577 0.74419 0.97313 0.0
C1715 C 0.51646 0.72624 0.96143 0.0
H1716 H 0.73181 0.51373 0.56209 0.0
H1717 H 0.72692 0.54686 0.49108 0.0
H1718 H 0.76298 0.51206 0.54152 0.0
H1719 H 0.75756 0.54455 0.47033 0.0
H1720 H 0.79728 0.51148 0.43508 0.0
H1721 H 0.76498 0.51101 0.45555 0.0
H1722 H 0.80393 0.54489 0.5255 0.0
H1723 H 0.83636 0.54601 0.50483 0.0
C1724 C 0.73722 0.52042 0.54201 0.0
C1725 C 0.72694 0.53047 0.52824 0.0
C1726 C 0.75508 0.51953 0.53031 0.0
C1727 C 0.76262 0.52813 0.50432 0.0
C1728 C 0.75199 0.53768 0.49031 0.0
C1729 C 0.73453 0.53908 0.50226 0.0
C1730 C 0.79892 0.51879 0.45484 0.0
C1731 C 0.81939 0.52885 0.46829 0.0
C1732 C 0.78047 0.51856 0.4665 0.0
C1733 C 0.78197 0.52785 0.49214 0.0
C1734 C 0.80229 0.53749 0.5058 0.0
C1735 C 0.82086 0.53822 0.49389 0.0
H1736 H 0.28033 0.83221 0.99309 0.0
H1737 H 0.30529 0.78948 0.96808 0.0
H1738 H 0.24807 0.80067 0.01299 0.0
H1739 H 0.27273 0.75776 0.9877 0.0
H1740 H 0.22201 0.70988 0.04994 0.0
H1741 H 0.25496 0.74145 0.0307 0.0
H1742 H 0.21465 0.76754 1.0002 0.0
H1743 H 0.18192 0.73632 0.0197 0.0
C1744 C 0.27893 0.81607 0.99172 0.0
C1745 C 0.2955 0.81347 0.97891 0.0
C1746 C 0.2603 0.7979 1.00305 0.0
C1747 C 0.25766 0.77655 1.00197 0.0
C1748 C 0.27428 0.77395 0.98923 0.0
C1749 C 0.29291 0.79215 0.9778 0.0
C1750 C 0.22018 0.72238 0.03918 0.0
C1751 C 0.19923 0.72049 0.03646 0.0
C1752 C 0.23909 0.74044 0.02798 0.0
C1753 C 0.23757 0.75715 0.01386 0.0
C1754 C 0.21659 0.75523 0.01123 0.0
C1755 C 0.19773 0.73718 0.02233 0.0
H1756 H 0.50714 0.22208 0.57018 0.0
H1757 H 0.47589 0.18583 0.49746 0.0
H1758 H 0.50925 0.25539 0.55053 0.0
H1759 H 0.47868 0.21927 0.47764 0.0
H1760 H 0.51282 0.29316 0.44552 0.0
H1761 H 0.51324 0.26112 0.46532 0.0
H1762 H 0.47579 0.26305 0.5335 0.0
H1763 H 0.47471 0.29456 0.51344 0.0
C1764 C 0.50099 0.2213 0.54992 0.0
C1765 C 0.49131 0.20133 0.53539 0.0
C1766 C 0.50213 0.24031 0.53875 0.0
C1767 C 0.49417 0.23986 0.51257 0.0
C1768 C 0.48505 0.22007 0.49779 0.0
C1769 C 0.48338 0.20095 0.50919 0.0
C1770 C 0.50475 0.28678 0.46477 0.0
C1771 C 0.49368 0.29634 0.47789 0.0
C1772 C 0.50495 0.26845 0.47603 0.0
C1773 C 0.49462 0.25971 0.50096 0.0
C1774 C 0.484 0.26957 0.51436 0.0
C1775 C 0.4833 0.28752 0.50279 0.0
H1776 H 0.83044 0.5436 0.99158 0.0
H1777 H 0.79075 0.50233 0.05754 0.0
H1778 H 0.79754 0.54227 0.97199 0.0
H1779 H 0.75803 0.5017 0.03824 0.0
H1780 H 0.7221 0.54325 0.00428 0.0
H1781 H 0.75388 0.54226 0.02373 0.0
H1782 H 0.75283 0.50151 0.95774 0.0
H1783 H 0.72052 0.50181 0.93858 0.0
C1784 C 0.81473 0.5343 1.00192 0.0
C1785 C 0.81319 0.52304 0.0261 0.0
C1786 C 0.79594 0.5335 0.99065 0.0
C1787 C 0.77535 0.52187 0.00364 0.0
C1788 C 0.77376 0.51073 0.02787 0.0
C1789 C 0.79245 0.51107 0.03883 0.0
C1790 C 0.72857 0.534 0.99395 0.0
C1791 C 0.71878 0.52259 0.96989 0.0
C1792 C 0.74668 0.53339 0.00515 0.0
C1793 C 0.7557 0.5218 0.9922 0.0
C1794 C 0.74609 0.51053 0.96807 0.0
C1795 C 0.72762 0.51068 0.95719 0.0
H1796 H 0.22624 0.72063 0.44693 0.0
H1797 H 0.18657 0.7196 0.51448 0.0
H1798 H 0.25865 0.75284 0.46657 0.0
H1799 H 0.21912 0.75124 0.53441 0.0
H1800 H 0.29285 0.7918 0.56983 0.0
H1801 H 0.26152 0.75841 0.5505 0.0
H1802 H 0.26424 0.79525 0.47937 0.0
H1803 H 0.29498 0.82877 0.49892 0.0
C1804 C 0.22452 0.7271 0.46609 0.0
C1805 C 0.20388 0.71763 0.47915 0.0
C1806 C 0.24301 0.74552 0.47725 0.0
C1807 C 0.24131 0.75439 0.502 0.0
C1808 C 0.22084 0.7446 0.51538 0.0
C1809 C 0.20224 0.72658 0.50391 0.0
C1810 C 0.28678 0.79274 0.55005 0.0
C1811 C 0.29631 0.8129 0.53593 0.0
C1812 C 0.26887 0.77368 0.53906 0.0
C1813 C 0.26061 0.77433 0.51344 0.0
C1814 C 0.27043 0.79434 0.49908 0.0
C1815 C 0.28791 0.8135 0.51035 0.0
H1816 H 0.45429 0.17888 0.99349 0.0
H1817 H 0.52153 0.22059 0.96613 0.0
H1818 H 0.45435 0.21092 0.01288 0.0
H1819 H 0.52145 0.25287 0.98527 0.0
H1820 H 0.5197 0.30198 0.04699 0.0
H1821 H 0.52079 0.27012 0.02816 0.0
H1822 H 0.45405 0.24379 0.99881 0.0
H1823 H 0.45282 0.27525 0.01787 0.0
C1824 C 0.46911 0.1949 0.99151 0.0
C1825 C 0.4879 0.19707 0.97816 0.0
C1826 C 0.46909 0.21336 1.00254 0.0
C1827 C 0.48787 0.23459 1.00059 0.0
C1828 C 0.50676 0.23677 0.98741 0.0
C1829 C 0.50676 0.21826 0.97628 0.0
C1830 C 0.50525 0.28937 0.03655 0.0
C1831 C 0.48616 0.29124 0.03405 0.0
C1832 C 0.50592 0.27115 0.0256 0.0
C1833 C 0.48749 0.25427 0.01198 0.0
C1834 C 0.46846 0.25623 0.00948 0.0
C1835 C 0.4678 0.27441 0.02033 0.0
H1836 H 0.18429 0.46543 0.4975 0.0
H1837 H 0.22237 0.49998 0.56784 0.0
H1838 H 0.21719 0.4671 0.47742 0.0
H1839 H 0.25511 0.50099 0.54799 0.0
H1840 H 0.29473 0.46652 0.51323 0.0
H1841 H 0.26326 0.46775 0.53326 0.0
H1842 H 0.25833 0.50072 0.46226 0.0
H1843 H 0.29032 0.50016 0.44245 0.0
C1844 C 0.19967 0.47334 0.50869 0.0
C1845 C 0.20072 0.48258 0.53427 0.0
C1846 C 0.2185 0.47438 0.49712 0.0
C1847 C 0.23868 0.48418 0.51114 0.0
C1848 C 0.23975 0.49331 0.53677 0.0
C1849 C 0.22104 0.49279 0.54807 0.0
C1850 C 0.28703 0.47416 0.50193 0.0
C1851 C 0.29504 0.48327 0.47624 0.0
C1852 C 0.26909 0.47493 0.51347 0.0
C1853 C 0.25837 0.48433 0.49931 0.0
C1854 C 0.26628 0.49335 0.47358 0.0
C1855 C 0.28461 0.4931 0.46231 0.0
H1856 H 0.83569 0.29012 0.00891 0.0
H1857 H 0.79724 0.28767 0.93947 0.0
H1858 H 0.80269 0.25915 0.02919 0.0
H1859 H 0.76438 0.2562 0.9595 0.0
H1860 H 0.72389 0.1821 0.99366 0.0
H1861 H 0.75555 0.21455 0.97355 0.0
H1862 H 0.76203 0.25233 0.04527 0.0
H1863 H 0.72986 0.22003 0.06519 0.0
C1864 C 0.82021 0.28294 0.99795 0.0
C1865 C 0.81908 0.29136 0.97258 0.0
C1866 C 0.80132 0.26529 0.00964 0.0
C1867 C 0.781 0.25531 0.99592 0.0
C1868 C 0.77986 0.26359 0.97048 0.0
C1869 C 0.79863 0.28163 0.95908 0.0
C1870 C 0.73197 0.19736 0.0051 0.0
C1871 C 0.72435 0.1985 0.03103 0.0
C1872 C 0.75002 0.21594 0.99352 0.0
C1873 C 0.76122 0.23593 0.00785 0.0
C1874 C 0.7537 0.2371 0.03381 0.0
C1875 C 0.73526 0.21865 0.04515 0.0
H1876 H 0.55032 0.83245 0.50796 0.0
H1877 H 0.509 0.79231 0.44246 0.0
H1878 H 0.54924 0.79975 0.52785 0.0
H1879 H 0.50863 0.7598 0.46198 0.0
H1880 H 0.54558 0.72069 0.49279 0.0
H1881 H 0.54433 0.75231 0.47328 0.0
H1882 H 0.51357 0.75828 0.54584 0.0
H1883 H 0.51405 0.7261 0.56514 0.0
C1884 C 0.54108 0.81667 0.49777 0.0
C1885 C 0.52973 0.81495 0.47364 0.0
C1886 C 0.5404 0.79798 0.50923 0.0
C1887 C 0.52884 0.7773 0.49644 0.0
C1888 C 0.51765 0.77558 0.47221 0.0
C1889 C 0.51784 0.79415 0.46111 0.0
C1890 C 0.53844 0.72867 0.50455 0.0
C1891 C 0.52988 0.72088 0.53051 0.0
C1892 C 0.53767 0.74669 0.49333 0.0
C1893 C 0.52887 0.75769 0.50808 0.0
C1894 C 0.52046 0.75007 0.5341 0.0
C1895 C 0.52068 0.73164 0.54507 0.0
H1896 H 0.39226 0.44696 0.12899 0.0
H1897 H 0.38816 0.44358 0.04199 0.0
H1898 H 0.41173 0.42609 0.12843 0.0
H1899 H 0.40839 0.42367 0.0413 0.0
H1900 H 0.42453 0.36864 0.04902 0.0
H1901 H 0.40512 0.38937 0.05033 0.0
H1902 H 0.44517 0.42716 0.11806 0.0
H1903 H 0.46389 0.40565 0.11751 0.0
C1904 C 0.39569 0.44196 0.10972 0.0
C1905 C 0.38852 0.4469 0.08556 0.0
C1906 C 0.40701 0.43008 0.10936 0.0
C1907 C 0.41167 0.42303 0.08481 0.0
C1908 C 0.40475 0.42832 0.06067 0.0
C1909 C 0.39323 0.43993 0.06105 0.0
C1910 C 0.42919 0.3813 0.06427 0.0
C1911 C 0.44571 0.38527 0.08328 0.0
C1912 C 0.41814 0.3934 0.0649 0.0
C1913 C 0.42349 0.41007 0.0843 0.0
C1914 C 0.44023 0.41422 0.10312 0.0
C1915 C 0.45111 0.40193 0.10269 0.0
H1916 H 0.06383 0.43941 0.54035 0.0
H1917 H 0.06342 0.44598 0.62695 0.0
H1918 H 0.02375 0.42112 0.53986 0.0
H1919 H 0.02327 0.42644 0.62677 0.0
H1920 H 0.95213 0.3685 0.54822 0.0
H1921 H 0.99214 0.38826 0.54935 0.0
H1922 H 0.99107 0.42698 0.61689 0.0
H1923 H 0.95077 0.40604 0.61678 0.0
C1924 C 0.05521 0.43679 0.55938 0.0
C1925 C 0.06701 0.44409 0.58373 0.0
C1926 C 0.03208 0.42607 0.55914 0.0
C1927 C 0.01996 0.42193 0.58332 0.0
C1928 C 0.03183 0.42949 0.60765 0.0
C1929 C 0.055 0.44058 0.60781 0.0
C1930 C 0.96034 0.38108 0.5635 0.0
C1931 C 0.94808 0.38546 0.58257 0.0
C1932 C 0.98347 0.3927 0.56395 0.0
C1933 C 0.99514 0.40946 0.58312 0.0
C1934 C 0.98284 0.41398 0.60208 0.0
C1935 C 0.95964 0.40204 0.60193 0.0
H1936 H 0.59366 0.95019 0.04712 0.0
H1937 H 0.55096 0.94843 0.11141 0.0
H1938 H 0.61275 0.99026 0.04734 0.0
H1939 H 0.56917 0.98862 0.11057 0.0
H1940 H 0.62086 0.0612 0.12211 0.0
H1941 H 0.60096 0.02109 0.12202 0.0
H1942 H 0.61114 0.02144 0.03588 0.0
H1943 H 0.63231 0.06156 0.0364 0.0
C1944 C 0.58817 0.95833 0.06116 0.0
C1945 C 0.57085 0.94598 0.07939 0.0
C1946 C 0.59902 0.98145 0.06111 0.0
C1947 C 0.59259 0.99296 0.07893 0.0
C1948 C 0.57498 0.98053 0.09689 0.0
C1949 C 0.56439 0.95738 0.09726 0.0
C1950 C 0.61899 0.05278 0.10317 0.0
C1951 C 0.62857 0.06478 0.07937 0.0
C1952 C 0.6073 0.02962 0.10303 0.0
C1953 C 0.60443 0.01774 0.07896 0.0
C1954 C 0.61341 0.02982 0.05499 0.0
C1955 C 0.62545 0.05295 0.05524 0.0
H1956 H 0.65242 0.59492 0.54602 0.0
H1957 H 0.61052 0.54996 0.60808 0.0
H1958 H 0.63048 0.61301 0.54615 0.0
H1959 H 0.58776 0.56738 0.60727 0.0
H1960 H 0.56543 0.61809 0.61958 0.0
H1961 H 0.58646 0.59901 0.6195 0.0
H1962 H 0.59701 0.61004 0.53359 0.0
H1963 H 0.57702 0.63026 0.53402 0.0
C1964 C 0.6384 0.58874 0.55958 0.0
C1965 C 0.63339 0.57102 0.57717 0.0
C1966 C 0.62561 0.59903 0.55947 0.0
C1967 C 0.60716 0.59172 0.57664 0.0
C1968 C 0.60201 0.57381 0.59406 0.0
C1969 C 0.61503 0.56369 0.59444 0.0
C1970 C 0.57229 0.61658 0.60067 0.0
C1971 C 0.56972 0.62608 0.5769 0.0
C1972 C 0.58423 0.60536 0.60056 0.0
C1973 C 0.59367 0.60298 0.57657 0.0
C1974 C 0.59051 0.61193 0.55263 0.0
C1975 C 0.57883 0.62342 0.55282 0.0
H1976 H 0.94988 0.5661 0.03734 0.0
H1977 H 0.94765 0.56137 0.12428 0.0
H1978 H 0.98998 0.58626 0.03863 0.0
H1979 H 0.98799 0.5826 0.12577 0.0
H1980 H 0.0616 0.60564 0.11874 0.0
H1981 H 0.02141 0.58327 0.11758 0.0
H1982 H 0.02013 0.62053 0.04862 0.0
H1983 H 0.06021 0.642 0.04896 0.0
C1984 C 0.95796 0.56948 0.05681 0.0
C1985 C 0.94546 0.56211 0.08072 0.0
C1986 C 0.98108 0.58127 0.05758 0.0
C1987 C 0.99249 0.58642 0.08232 0.0
C1988 C 0.97995 0.57879 0.10627 0.0
C1989 C 0.95675 0.56667 0.10546 0.0
C1990 C 0.05274 0.60904 0.10328 0.0
C1991 C 0.06428 0.62574 0.08398 0.0
C1992 C 0.02959 0.59625 0.10272 0.0
C1993 C 0.01727 0.59994 0.08301 0.0
C1994 C 0.02888 0.61676 0.06382 0.0
C1995 C 0.052 0.62931 0.06416 0.0
H1996 H 0.4234 0.06209 0.55179 0.0
H1997 H 0.46893 0.06377 0.61199 0.0
H1998 H 0.40409 0.022 0.55222 0.0
H1999 H 0.45023 0.02351 0.61147 0.0
H2000 H 0.3979 0.95126 0.62519 0.0
H2001 H 0.41799 0.99141 0.62479 0.0
H2002 H 0.40578 0.9908 0.53921 0.0
H2003 H 0.38461 0.95064 0.53997 0.0
C2004 C 0.42945 0.05393 0.56498 0.0
C2005 C 0.44768 0.06626 0.58198 0.0
C2006 C 0.41844 0.03082 0.56505 0.0
C2007 C 0.42554 0.0193 0.58182 0.0
C2008 C 0.44398 0.03167 0.59861 0.0
C2009 C 0.45482 0.05483 0.59881 0.0
C2010 C 0.39936 0.95964 0.60629 0.0
C2011 C 0.3893 0.94757 0.58271 0.0
C2012 C 0.41115 0.98278 0.60599 0.0
C2013 C 0.41353 0.99456 0.58199 0.0
C2014 C 0.40394 0.98245 0.55825 0.0
C2015 C 0.39188 0.95931 0.55863 0.0
H2016 H 0.59102 0.64228 0.95226 0.0
H2017 H 0.55379 0.60763 0.88142 0.0
H2018 H 0.60989 0.62111 0.95138 0.0
H2019 H 0.57192 0.58547 0.88135 0.0
H2020 H 0.62342 0.56319 0.8741 0.0
H2021 H 0.60479 0.58486 0.87322 0.0
H2022 H 0.60525 0.58645 0.96044 0.0
H2023 H 0.62473 0.56578 0.96119 0.0
C2024 C 0.58676 0.63008 0.93649 0.0
C2025 C 0.57089 0.62682 0.91683 0.0
C2026 C 0.59748 0.61768 0.93616 0.0
C2027 C 0.59241 0.6013 0.91644 0.0
C2028 C 0.57656 0.59808 0.89667 0.0
C2029 C 0.56604 0.61074 0.89679 0.0
C2030 C 0.6195 0.56815 0.89309 0.0
C2031 C 0.6257 0.5628 0.91771 0.0
C2032 C 0.60867 0.58052 0.89261 0.0
C2033 C 0.60352 0.58765 0.91675 0.0
C2034 C 0.60935 0.58182 0.94136 0.0
C2035 C 0.62041 0.56975 0.94182 0.0
H2036 H 0.95557 0.56996 0.46391 0.0
H2037 H 0.9572 0.56397 0.3773 0.0
H2038 H 0.99565 0.58816 0.46524 0.0
H2039 H 0.99739 0.58328 0.37841 0.0
H2040 H 0.07 0.60381 0.39093 0.0
H2041 H 0.02964 0.58242 0.38981 0.0
H2042 H 0.02688 0.62175 0.45551 0.0
H2043 H 0.06681 0.64209 0.45754 0.0
C2044 C 0.96446 0.57265 0.44507 0.0
C2045 C 0.95301 0.5656 0.42046 0.0
C2046 C 0.98757 0.58329 0.4458 0.0
C2047 C 1.00001 0.58755 0.42189 0.0
C2048 C 0.98852 0.58015 0.39731 0.0
C2049 C 0.96536 0.5692 0.39663 0.0
C2050 C 0.06074 0.60782 0.40517 0.0
C2051 C 0.07179 0.62476 0.42428 0.0
C2052 C 0.03754 0.59562 0.40445 0.0
C2053 C 0.02478 0.60021 0.42263 0.0
C2054 C 0.03594 0.61728 0.44155 0.0
C2055 C 0.05902 0.6292 0.44251 0.0
H2056 H 0.4297 0.06016 0.95866 0.0
H2057 H 0.46614 0.06227 0.8871 0.0
H2058 H 0.40994 0.02021 0.9574 0.0
H2059 H 0.44701 0.02185 0.88664 0.0
H2060 H 0.39281 0.94843 0.87919 0.0
H2061 H 0.41327 0.98883 0.87857 0.0
H2062 H 0.41332 0.98946 0.96579 0.0
H2063 H 0.3921 0.94937 0.9663 0.0
C2064 C 0.43366 0.05214 0.94267 0.0
C2065 C 0.44955 0.06464 0.92291 0.0
C2066 C 0.4224 0.02902 0.94212 0.0
C2067 C 0.42688 0.01751 0.92207 0.0
C2068 C 0.44283 0.02999 0.90225 0.0
C2069 C 0.45395 0.05325 0.9026 0.0
C2070 C 0.39721 0.95723 0.89822 0.0
C2071 C 0.3906 0.94556 0.92278 0.0
C2072 C 0.4091 0.98047 0.89788 0.0
C2073 C 0.41492 0.99267 0.92212 0.0
C2074 C 0.40873 0.98086 0.94664 0.0
C2075 C 0.39663 0.95772 0.94696 0.0
H2076 H 0.40972 0.46234 0.39156 0.0
H2077 H 0.37472 0.42398 0.46172 0.0
H2078 H 0.43196 0.44437 0.39088 0.0
H2079 H 0.39614 0.40532 0.46031 0.0
H2080 H 0.45108 0.38987 0.46843 0.0
H2081 H 0.43093 0.40983 0.46872 0.0
H2082 H 0.43197 0.41123 0.38151 0.0
H2083 H 0.45313 0.392 0.38133 0.0
C2084 C 0.4066 0.44994 0.40673 0.0
C2085 C 0.39031 0.44463 0.42668 0.0
C2086 C 0.41931 0.43949 0.40622 0.0
C2087 C 0.41598 0.4233 0.42553 0.0
C2088 C 0.3996 0.41797 0.44538 0.0
C2089 C 0.38709 0.42859 0.44607 0.0
C2090 C 0.44712 0.39449 0.44927 0.0
C2091 C 0.45371 0.38922 0.42484 0.0
C2092 C 0.43535 0.40584 0.44942 0.0
C2093 C 0.42947 0.41202 0.42514 0.0
C2094 C 0.43634 0.40702 0.40066 0.0
C2095 C 0.44842 0.39587 0.40052 0.0
H2096 H 0.06752 0.42805 0.95773 0.0
H2097 H 0.06822 0.46588 0.88842 0.0
H2098 H 0.02755 0.40728 0.95662 0.0
H2099 H 0.02791 0.44606 0.88836 0.0
H2100 H 0.95567 0.39218 0.879 0.0
H2101 H 0.99582 0.41323 0.87896 0.0
H2102 H 0.9957 0.40789 0.9659 0.0
H2103 H 0.95567 0.38563 0.9656 0.0
C2104 C 0.05916 0.43207 0.94229 0.0
C2105 C 0.07125 0.44856 0.92301 0.0
C2106 C 0.03604 0.42027 0.94186 0.0
C2107 C 0.02416 0.42492 0.92251 0.0
C2108 C 0.03629 0.44161 0.90332 0.0
C2109 C 0.0595 0.45314 0.90344 0.0
C2110 C 0.96418 0.3954 0.89809 0.0
C2111 C 0.95229 0.38688 0.92224 0.0
C2112 C 0.98735 0.40773 0.89813 0.0
C2113 C 0.99933 0.4123 0.92241 0.0
C2114 C 0.98732 0.40431 0.94665 0.0
C2115 C 0.9642 0.39163 0.94653 0.0
H2116 H 0.57017 0.95136 0.46323 0.0
H2117 H 0.56676 0.94985 0.37621 0.0
H2118 H 0.58903 0.99144 0.46237 0.0
H2119 H 0.5867 0.99023 0.37519 0.0
H2120 H 0.64309 0.062 0.45389 0.0
H2121 H 0.623 0.02206 0.45292 0.0
H2122 H 0.58612 0.02326 0.38357 0.0
H2123 H 0.60734 0.06368 0.38369 0.0
C2124 C 0.57361 0.95959 0.44384 0.0
C2125 C 0.567 0.94729 0.41979 0.0
C2126 C 0.58463 0.98271 0.44331 0.0
C2127 C 0.58976 0.99434 0.41868 0.0
C2128 C 0.58289 0.982 0.39458 0.0
C2129 C 0.57155 0.95878 0.39514 0.0
C2130 C 0.63083 0.05388 0.43826 0.0
C2131 C 0.627 0.06626 0.41879 0.0
C2132 C 0.61903 0.03078 0.43789 0.0
C2133 C 0.60263 0.01916 0.41834 0.0
C2134 C 0.59876 0.03151 0.39878 0.0
C2135 C 0.61085 0.05475 0.39893 0.0
H2136 H 0.47791 0.59266 0.93485 0.0
H2137 H 0.49823 0.63501 0.00512 0.0
H2138 H 0.44729 0.56392 0.96002 0.0
H2139 H 0.46686 0.60627 0.03023 0.0
H2140 H 0.38239 0.52319 0.00335 0.0
H2141 H 0.41238 0.55394 0.97905 0.0
H2142 H 0.45372 0.57072 0.04991 0.0
H2143 H 0.42362 0.54063 0.07442 0.0
C2144 C 0.47578 0.59596 0.95566 0.0
C2145 C 0.49063 0.61624 0.96794 0.0
C2146 C 0.45801 0.57945 0.97007 0.0
C2147 C 0.45442 0.58275 0.99715 0.0
C2148 C 0.46924 0.60304 0.00949 0.0
C2149 C 0.4872 0.61957 0.99507 0.0
C2150 C 0.39783 0.53351 0.01378 0.0
C2151 C 0.40054 0.52932 0.04083 0.0
C2152 C 0.41511 0.5511 0.99981 0.0
C2153 C 0.43558 0.56482 0.01245 0.0
C2154 C 0.43814 0.56077 0.0396 0.0
C2155 C 0.42085 0.54332 0.05362 0.0
H2156 H 0.88942 0.41982 0.56465 0.0
H2157 H 0.8667 0.37679 0.49502 0.0
H2158 H 0.88789 0.4485 0.53915 0.0
H2159 H 0.86439 0.40558 0.4695 0.0
H2160 H 0.8881 0.47211 0.42516 0.0
H2161 H 0.88668 0.44105 0.44917 0.0
H2162 H 0.86324 0.45867 0.52051 0.0
H2163 H 0.86551 0.49027 0.49683 0.0
C2164 C 0.88388 0.41634 0.5439 0.0
C2165 C 0.87816 0.39587 0.53194 0.0
C2166 C 0.88281 0.43284 0.52929 0.0
C2167 C 0.87578 0.42938 0.50228 0.0
C2168 C 0.87006 0.40892 0.49019 0.0
C2169 C 0.8713 0.39236 0.50484 0.0
C2170 C 0.88252 0.46933 0.44594 0.0
C2171 C 0.87714 0.4839 0.45913 0.0
C2172 C 0.88157 0.45136 0.45968 0.0
C2173 C 0.87505 0.44738 0.4869 0.0
C2174 C 0.86884 0.46148 0.49974 0.0
C2175 C 0.87 0.47956 0.4861 0.0
H2176 H 0.42393 0.88871 0.93896 0.0
H2177 H 0.37998 0.85928 0.00702 0.0
H2178 H 0.4529 0.88638 0.96281 0.0
H2179 H 0.40896 0.85612 0.03071 0.0
H2180 H 0.47421 0.87838 0.07593 0.0
H2181 H 0.44337 0.87767 0.05257 0.0
H2182 H 0.46474 0.86205 0.97797 0.0
H2183 H 0.49628 0.86371 1.0012 0.0
C2184 C 0.42033 0.88153 0.95898 0.0
C2185 C 0.39955 0.87422 0.97107 0.0
C2186 C 0.43698 0.88 0.97261 0.0
C2187 C 0.43334 0.8709 0.99868 0.0
C2188 C 0.4125 0.86347 0.01079 0.0
C2189 C 0.39582 0.86519 0.99718 0.0
C2190 C 0.47234 0.87468 0.05455 0.0
C2191 C 0.48793 0.87128 0.04043 0.0
C2192 C 0.45447 0.87411 0.04116 0.0
C2193 C 0.45152 0.86992 0.01329 0.0
C2194 C 0.46669 0.86579 0.99933 0.0
C2195 C 0.48473 0.86658 0.01269 0.0
H2196 H 0.55507 0.41312 0.43214 0.0
H2197 H 0.52196 0.38962 0.50883 0.0
H2198 H 0.58685 0.44261 0.45469 0.0
H2199 H 0.5533 0.42019 0.53142 0.0
H2200 H 0.61946 0.4668 0.5685 0.0
H2201 H 0.58976 0.43527 0.54543 0.0
H2202 H 0.59947 0.47636 0.4756 0.0
H2203 H 0.63005 0.50753 0.49827 0.0
C2204 C 0.55452 0.41421 0.45387 0.0
C2205 C 0.53593 0.39879 0.46864 0.0
C2206 C 0.57275 0.43141 0.46685 0.0
C2207 C 0.57278 0.43406 0.49497 0.0
C2208 C 0.55418 0.41857 0.50981 0.0
C2209 C 0.53607 0.40105 0.49683 0.0
C2210 C 0.61543 0.46904 0.5481 0.0
C2211 C 0.6272 0.48971 0.53522 0.0
C2212 C 0.59818 0.45095 0.53491 0.0
C2213 C 0.59193 0.45312 0.50862 0.0
C2214 C 0.60394 0.4738 0.49563 0.0
C2215 C 0.62149 0.49179 0.50867 0.0
H2216 H 0.12852 0.54198 0.93825 0.0
H2217 H 0.15339 0.52458 0.00834 0.0
H2218 H 0.12932 0.57233 0.96282 0.0
H2219 H 0.15508 0.55578 0.03279 0.0
H2220 H 0.13036 0.59681 0.07732 0.0
H2221 H 0.13228 0.56766 0.05312 0.0
H2222 H 0.15212 0.60777 0.98088 0.0
H2223 H 0.14923 0.63672 0.00493 0.0
C2224 C 0.13439 0.54474 0.95888 0.0
C2225 C 0.14083 0.5307 0.97131 0.0
C2226 C 0.13504 0.56238 0.97295 0.0
C2227 C 0.14238 0.56672 0.99983 0.0
C2228 C 0.14904 0.55281 0.01224 0.0
C2229 C 0.14817 0.53494 0.99819 0.0
C2230 C 0.13521 0.59953 0.05628 0.0
C2231 C 0.13949 0.61915 0.04306 0.0
C2232 C 0.13649 0.58278 0.04241 0.0
C2233 C 0.14231 0.5852 0.01496 0.0
C2234 C 0.14717 0.60508 1.00188 0.0
C2235 C 0.14566 0.62179 0.01572 0.0
H2236 H 0.55271 0.15276 0.5738 0.0
H2237 H 0.51192 0.12749 0.50265 0.0
H2238 H 0.58353 0.15376 0.54957 0.0
H2239 H 0.54224 0.12727 0.47885 0.0
H2240 H 0.60449 0.14613 0.43378 0.0
H2241 H 0.57611 0.14877 0.45851 0.0
H2242 H 0.5975 0.13199 0.53219 0.0
H2243 H 0.62714 0.13081 0.50737 0.0
C2244 C 0.5503 0.1474 0.55296 0.0
C2245 C 0.52984 0.14019 0.54013 0.0
C2246 C 0.56796 0.14775 0.53911 0.0
C2247 C 0.56554 0.14056 0.51216 0.0
C2248 C 0.54503 0.13341 0.49936 0.0
C2249 C 0.52752 0.13343 0.51307 0.0
C2250 C 0.60343 0.14327 0.4553 0.0
C2251 C 0.61829 0.13837 0.46853 0.0
C2252 C 0.58684 0.14451 0.46953 0.0
C2253 C 0.58416 0.14035 0.49743 0.0
C2254 C 0.59914 0.13561 0.5108 0.0
C2255 C 0.61611 0.13479 0.49655 0.0
H2256 H 0.51792 0.37484 1.00094 0.0
H2257 H 0.54143 0.41458 0.07324 0.0
H2258 H 0.54904 0.40375 0.97581 0.0
H2259 H 0.57177 0.44367 0.04805 0.0
H2260 H 0.63466 0.48644 1.00145 0.0
H2261 H 0.60568 0.45515 0.02622 0.0
H2262 H 0.56182 0.43935 0.95796 0.0
H2263 H 0.59095 0.4699 0.93294 0.0
C2264 C 0.52967 0.38972 0.01149 0.0
C2265 C 0.52706 0.39231 0.03914 0.0
C2266 C 0.54748 0.40641 0.99703 0.0
C2267 C 0.563 0.4262 0.00979 0.0
C2268 C 0.56047 0.42859 0.03753 0.0
C2269 C 0.54286 0.41187 0.052 0.0
C2270 C 0.61886 0.47622 0.9917 0.0
C2271 C 0.6152 0.48078 0.96519 0.0
C2272 C 0.60215 0.45831 0.00596 0.0
C2273 C 0.58127 0.44462 0.99419 0.0
C2274 C 0.57773 0.44917 0.96761 0.0
C2275 C 0.59447 0.4669 0.95328 0.0
H2276 H 0.12977 0.6215 0.51089 0.0
H2277 H 0.15941 0.60845 0.44197 0.0
H2278 H 0.12987 0.59112 0.53516 0.0
H2279 H 0.16073 0.57917 0.46644 0.0
H2280 H 0.1364 0.51165 0.50337 0.0
H2281 H 0.13781 0.54313 0.48066 0.0
H2282 H 0.15036 0.57746 0.55693 0.0
H2283 H 0.14768 0.54541 0.57981 0.0
C2284 C 0.13669 0.61244 0.5011 0.0
C2285 C 0.14445 0.61735 0.4744 0.0
C2286 C 0.13685 0.59503 0.51504 0.0
C2287 C 0.14511 0.58238 0.50275 0.0
C2288 C 0.15365 0.588 0.47641 0.0
C2289 C 0.1531 0.60504 0.46238 0.0
C2290 C 0.13958 0.52595 0.51531 0.0
C2291 C 0.14201 0.52595 0.54344 0.0
C2292 C 0.14053 0.54415 0.50223 0.0
C2293 C 0.14432 0.56306 0.51685 0.0
C2294 C 0.14708 0.56316 0.54497 0.0
C2295 C 0.14577 0.54479 0.5581 0.0
H2296 H 0.609 0.14741 0.07573 0.0
H2297 H 0.6288 0.13163 1.00014 0.0
H2298 H 0.57888 0.14886 0.05306 0.0
H2299 H 0.59797 0.1317 0.97776 0.0
H2300 H 0.55287 0.15052 0.93765 0.0
H2301 H 0.58418 0.15324 0.96162 0.0
H2302 H 0.54403 0.12769 0.03351 0.0
H2303 H 0.51282 0.12641 0.0096 0.0
C2304 C 0.60696 0.14426 0.05425 0.0
C2305 C 0.62151 0.13959 0.03975 0.0
C2306 C 0.58946 0.14484 0.04125 0.0
C2307 C 0.58579 0.14039 0.01346 0.0
C2308 C 0.60042 0.13574 0.99902 0.0
C2309 C 0.61813 0.13557 0.01191 0.0
C2310 C 0.55068 0.14572 0.95864 0.0
C2311 C 0.53024 0.13826 0.97163 0.0
C2312 C 0.5687 0.14703 0.97241 0.0
C2313 C 0.56676 0.14037 0.99952 0.0
C2314 C 0.54636 0.13323 0.01275 0.0
C2315 C 0.52837 0.13237 0.99902 0.0
H2316 H 0.47586 0.59437 0.57197 0.0
H2317 H 0.49137 0.6354 0.50089 0.0
H2318 H 0.44474 0.56443 0.54872 0.0
H2319 H 0.4595 0.60569 0.47794 0.0
H2320 H 0.38001 0.51844 0.5076 0.0
H2321 H 0.40899 0.55052 0.5312 0.0
H2322 H 0.44797 0.57124 0.45801 0.0
H2323 H 0.41876 0.53995 0.43429 0.0
C2324 C 0.47247 0.59716 0.55147 0.0
C2325 C 0.48629 0.61733 0.53828 0.0
C2326 C 0.45442 0.57995 0.53815 0.0
C2327 C 0.44949 0.58247 0.51132 0.0
C2328 C 0.46297 0.6029 0.49839 0.0
C2329 C 0.48121 0.62005 0.51162 0.0
C2330 C 0.3947 0.52995 0.49651 0.0
C2331 C 0.39698 0.52651 0.46902 0.0
C2332 C 0.41143 0.54832 0.5101 0.0
C2333 C 0.43098 0.56358 0.49662 0.0
C2334 C 0.43308 0.56019 0.46905 0.0
C2335 C 0.4163 0.54203 0.45543 0.0
H2336 H 0.86659 0.40344 0.92874 0.0
H2337 H 0.88693 0.38646 1.00295 0.0
H2338 H 0.86348 0.4324 0.95199 0.0
H2339 H 0.88533 0.41635 0.02588 0.0
H2340 H 0.86433 0.45952 0.06761 0.0
H2341 H 0.86317 0.42873 0.04379 0.0
H2342 H 0.88322 0.46746 0.97037 0.0
H2343 H 0.88278 0.49782 0.99405 0.0
C2344 C 0.87045 0.4059 0.95004 0.0
C2345 C 0.87685 0.39246 0.96399 0.0
C2346 C 0.86891 0.42275 0.96337 0.0
C2347 C 0.87419 0.42696 0.99094 0.0
C2348 C 0.88061 0.41344 0.00484 0.0
C2349 C 0.88168 0.3963 0.99162 0.0
C2350 C 0.86818 0.46142 0.0463 0.0
C2351 C 0.87353 0.48118 0.03278 0.0
C2352 C 0.8678 0.44375 0.03261 0.0
C2353 C 0.87334 0.44547 0.00507 0.0
C2354 C 0.8785 0.46523 0.99144 0.0
C2355 C 0.87839 0.48277 0.00506 0.0
H2356 H 0.47479 0.88702 0.43655 0.0
H2357 H 0.49455 0.86386 0.50624 0.0
H2358 H 0.44421 0.88511 0.46187 0.0
H2359 H 0.46319 0.86113 0.53146 0.0
H2360 H 0.37977 0.8623 0.50485 0.0
H2361 H 0.40927 0.86066 0.48062 0.0
H2362 H 0.45024 0.88333 0.55196 0.0
H2363 H 0.42047 0.8841 0.57646 0.0
C2364 C 0.47251 0.88129 0.45724 0.0
C2365 C 0.48724 0.87562 0.46933 0.0
C2366 C 0.45476 0.88002 0.47175 0.0
C2367 C 0.45104 0.87283 0.49873 0.0
C2368 C 0.46567 0.867 0.51082 0.0
C2369 C 0.48361 0.86845 0.49632 0.0
C2370 C 0.395 0.86677 0.51544 0.0
C2371 C 0.39772 0.87344 0.5426 0.0
C2372 C 0.41202 0.86597 0.50148 0.0
C2373 C 0.43231 0.87206 0.51421 0.0
C2374 C 0.43481 0.87825 0.54154 0.0
C2375 C 0.41772 0.87884 0.55558 0.0
loop_
_geom_bond_atom_site_label_1
_geom_bond_atom_site_label_2
_geom_bond_distance
_geom_bond_site_symmetry_2
_ccdc_geom_bond_type
Co0 O2 2.143 . S
Co0 O8 2.074 . S
Co0 O11 2.093 . S
Co0 O24 2.097 . S
Co0 N41 2.151 . S
Co0 N49 2.214 . S
Co1 O2 2.160 . S
Co1 O7 2.058 . S
Co1 O17 2.057 . S
Co1 O32 2.037 . S
Co1 N36 2.145 . S
Co1 N57 2.257 . S
O2 Co0 2.143 . S
O2 Co1 2.160 . S
C3 O4 1.278 . S
C3 O11 1.224 . S
O4 C3 1.278 . S
C5 O6 1.245 . S
C5 O17 1.232 . S
O6 C5 1.245 . S
O7 Co1 2.058 . S
O7 C33 1.269 . S
O8 Co0 2.074 . S
O8 C33 1.257 . S
H9 C34 0.930 . S
H10 C40 0.930 . S
O11 Co0 2.093 . S
O11 C3 1.224 . S
H12 C44 0.929 . S
H13 C46 0.930 . S
H14 C47 0.930 . S
H15 C45 0.929 . S
H16 C48 0.928 . S
O17 Co1 2.057 . S
O17 C5 1.232 . S
H18 C37 0.921 1_554 S
H19 C38 0.929 1_554 S
H20 C50 0.931 . S
H21 C42 0.929 . S
H22 C51 0.930 . S
H23 C43 0.931 . S
O24 Co0 2.097 . S
O24 C52 1.214 . S
H25 C53 0.929 . S
H26 C54 0.929 . S
H27 C55 0.930 . S
H28 C56 0.929 . S
H29 C58 0.930 . S
H30 C35 0.930 . S
H31 C39 0.930 . S
O32 Co1 2.037 . S
O32 C52 1.234 . S
C33 O7 1.269 . S
C33 O8 1.257 . S
C34 H9 0.930 . S
C34 C37 1.403 . S
C34 C39 1.418 . S
C35 H30 0.930 . S
C35 C38 1.404 . S
C35 C39 1.353 . S
N36 Co1 2.145 . S
N36 C37 1.390 1_554 S
N36 C38 1.334 1_554 S
C37 H18 0.921 1_556 S
C37 C34 1.403 . S
C37 N36 1.390 1_556 S
C38 H19 0.929 1_556 S
C38 C35 1.404 . S
C38 N36 1.334 1_556 S
C39 H31 0.930 . S
C39 C34 1.418 . S
C39 C35 1.353 . S
C40 H10 0.930 . S
C40 N41 1.330 . S
C40 C42 1.446 . S
N41 Co0 2.151 . S
N41 C40 1.330 . S
N41 C45 1.418 . S
C42 H21 0.929 . S
C42 C40 1.446 . S
C42 C43 1.332 . S
C43 H23 0.931 . S
C43 C42 1.332 . S
C43 C44 1.267 . S
C44 H12 0.929 . S
C44 C43 1.267 . S
C44 C45 1.251 . S
C45 H15 0.929 . S
C45 N41 1.418 . S
C45 C44 1.251 . S
C46 H13 0.930 . S
C46 C48 1.406 . S
C46 C51 1.261 . S
C47 H14 0.930 . S
C47 N49 1.325 . S
C47 C50 1.357 . S
C48 H16 0.928 . S
C48 C46 1.406 . S
C48 N49 1.261 . S
N49 Co0 2.214 . S
N49 C47 1.325 . S
N49 C48 1.261 . S
C50 H20 0.931 . S
C50 C47 1.357 . S
C50 C51 1.312 . S
C51 H22 0.930 . S
C51 C46 1.261 . S
C51 C50 1.312 . S
C52 O24 1.214 . S
C52 O32 1.234 . S
C53 H25 0.929 . S
C53 C56 1.391 . S
C53 C58 1.391 . S
C54 H26 0.929 . S
C54 C55 1.390 . S
C54 N57 1.391 . S
C55 H27 0.930 . S
C55 C54 1.390 . S
C55 C56 1.392 . S
C56 H28 0.929 . S
C56 C53 1.391 . S
C56 C55 1.392 . S
N57 Co1 2.257 . S
N57 C54 1.391 . S
N57 C58 1.388 . S
C58 H29 0.930 . S
C58 C53 1.391 . S
C58 N57 1.388 . S
Co59 O61 2.143 . S
Co59 O67 2.074 . S
Co59 O70 2.093 . S
Co59 O83 2.097 . S
Co59 N100 2.151 . S
Co59 N108 2.214 . S
Co60 O61 2.160 . S
Co60 O66 2.058 . S
Co60 O76 2.057 . S
Co60 O91 2.037 . S
Co60 N95 2.145 . S
Co60 N116 2.257 . S
O61 Co59 2.143 . S
O61 Co60 2.160 . S
C62 O63 1.278 . S
C62 O70 1.224 . S
O63 C62 1.278 . S
C64 O65 1.245 . S
C64 O76 1.232 . S
O65 C64 1.245 . S
O66 Co60 2.058 . S
O66 C92 1.269 . S
O67 Co59 2.074 . S
O67 C92 1.257 . S
H68 C93 0.930 . S
H69 C99 0.930 . S
O70 Co59 2.093 . S
O70 C62 1.224 . S
H71 C103 0.929 . S
H72 C105 0.930 . S
H73 C106 0.930 . S
H74 C104 0.929 . S
H75 C107 0.928 . S
O76 Co60 2.057 . S
O76 C64 1.232 . S
H77 C96 0.929 . S
H78 C97 0.929 . S
H79 C109 0.931 . S
H80 C101 0.929 . S
H81 C110 0.930 . S
H82 C102 0.931 . S
O83 Co59 2.097 . S
O83 C111 1.214 . S
H84 C112 0.929 . S
H85 C113 0.929 . S
H86 C114 0.930 . S
H87 C115 0.929 . S
H88 C117 0.930 . S
H89 C94 0.930 . S
H90 C98 0.930 . S
O91 Co60 2.037 . S
O91 C111 1.234 . S
C92 O66 1.269 . S
C92 O67 1.257 . S
C93 H68 0.930 . S
C93 C96 1.388 . S
C93 C98 1.418 . S
C94 H89 0.930 . S
C94 C97 1.404 . S
C94 C98 1.353 . S
N95 Co60 2.145 . S
N95 C96 1.397 . S
N95 C97 1.334 . S
C96 H77 0.929 . S
C96 C93 1.388 . S
C96 N95 1.397 . S
C97 H78 0.929 . S
C97 C94 1.404 . S
C97 N95 1.334 . S
C98 H90 0.930 . S
C98 C93 1.418 . S
C98 C94 1.353 . S
C99 H69 0.930 . S
C99 N100 1.330 . S
C99 C101 1.446 . S
N100 Co59 2.151 . S
N100 C99 1.330 . S
N100 C104 1.418 . S
C101 H80 0.929 . S
C101 C99 1.446 . S
C101 C102 1.332 . S
C102 H82 0.931 . S
C102 C101 1.332 . S
C102 C103 1.267 . S
C103 H71 0.929 . S
C103 C102 1.267 . S
C103 C104 1.251 . S
C104 H74 0.929 . S
C104 N100 1.418 . S
C104 C103 1.251 . S
C105 H72 0.930 . S
C105 C107 1.406 . S
C105 C110 1.261 . S
C106 H73 0.930 . S
C106 N108 1.325 . S
C106 C109 1.357 . S
C107 H75 0.928 . S
C107 C105 1.406 . S
C107 N108 1.261 . S
N108 Co59 2.214 . S
N108 C106 1.325 . S
N108 C107 1.261 . S
C109 H79 0.931 . S
C109 C106 1.357 . S
C109 C110 1.312 . S
C110 H81 0.930 . S
C110 C105 1.261 . S
C110 C109 1.312 . S
C111 O83 1.214 . S
C111 O91 1.234 . S
C112 H84 0.929 . S
C112 C115 1.391 . S
C112 C117 1.391 . S
C113 H85 0.929 . S
C113 C114 1.390 . S
C113 N116 1.391 . S
C114 H86 0.930 . S
C114 C113 1.390 . S
C114 C115 1.392 . S
C115 H87 0.929 . S
C115 C112 1.391 . S
C115 C114 1.392 . S
N116 Co60 2.257 . S
N116 C113 1.391 . S
N116 C117 1.388 . S
C117 H88 0.930 . S
C117 C112 1.391 . S
C117 N116 1.388 . S
Co118 O120 2.143 . S
Co118 O126 2.074 . S
Co118 O129 2.093 . S
Co118 O142 2.097 . S
Co118 N159 2.151 . S
Co118 N167 2.214 . S
Co119 O120 2.160 . S
Co119 O125 2.058 . S
Co119 O135 2.057 . S
Co119 O150 2.037 . S
Co119 N154 2.145 . S
Co119 N175 2.257 . S
O120 Co118 2.143 . S
O120 Co119 2.160 . S
C121 O122 1.278 . S
C121 O129 1.224 . S
O122 C121 1.278 . S
C123 O124 1.245 . S
C123 O135 1.232 . S
O124 C123 1.245 . S
O125 Co119 2.058 . S
O125 C151 1.269 . S
O126 Co118 2.074 . S
O126 C151 1.257 . S
H127 C152 0.930 . S
H128 C158 0.930 . S
O129 Co118 2.093 . S
O129 C121 1.224 . S
H130 C162 0.929 . S
H131 C164 0.930 . S
H132 C165 0.930 . S
H133 C163 0.929 . S
H134 C166 0.928 . S
O135 Co119 2.057 . S
O135 C123 1.232 . S
H136 C155 0.921 1_554 S
H137 C156 0.929 1_554 S
H138 C168 0.931 . S
H139 C160 0.929 . S
H140 C169 0.930 . S
H141 C161 0.931 . S
O142 Co118 2.097 . S
O142 C170 1.214 . S
H143 C171 0.929 . S
H144 C172 0.929 . S
H145 C173 0.930 . S
H146 C174 0.929 . S
H147 C176 0.930 . S
H148 C153 0.930 . S
H149 C157 0.930 . S
O150 Co119 2.037 . S
O150 C170 1.234 . S
C151 O125 1.269 . S
C151 O126 1.257 . S
C152 H127 0.930 . S
C152 C155 1.403 . S
C152 C157 1.418 . S
C153 H148 0.930 . S
C153 C156 1.404 . S
C153 C157 1.353 . S
N154 Co119 2.145 . S
N154 C155 1.390 1_554 S
N154 C156 1.334 1_554 S
C155 H136 0.921 1_556 S
C155 C152 1.403 . S
C155 N154 1.390 1_556 S
C156 H137 0.929 1_556 S
C156 C153 1.404 . S
C156 N154 1.334 1_556 S
C157 H149 0.930 . S
C157 C152 1.418 . S
C157 C153 1.353 . S
C158 H128 0.930 . S
C158 N159 1.330 . S
C158 C160 1.446 . S
N159 Co118 2.151 . S
N159 C158 1.330 . S
N159 C163 1.418 . S
C160 H139 0.929 . S
C160 C158 1.446 . S
C160 C161 1.332 . S
C161 H141 0.931 . S
C161 C160 1.332 . S
C161 C162 1.267 . S
C162 H130 0.929 . S
C162 C161 1.267 . S
C162 C163 1.251 . S
C163 H133 0.929 . S
C163 N159 1.418 . S
C163 C162 1.251 . S
C164 H131 0.930 . S
C164 C166 1.406 . S
C164 C169 1.261 . S
C165 H132 0.930 . S
C165 N167 1.325 . S
C165 C168 1.357 . S
C166 H134 0.928 . S
C166 C164 1.406 . S
C166 N167 1.261 . S
N167 Co118 2.214 . S
N167 C165 1.325 . S
N167 C166 1.261 . S
C168 H138 0.931 . S
C168 C165 1.357 . S
C168 C169 1.312 . S
C169 H140 0.930 . S
C169 C164 1.261 . S
C169 C168 1.312 . S
C170 O142 1.214 . S
C170 O150 1.234 . S
C171 H143 0.929 . S
C171 C174 1.391 . S
C171 C176 1.391 . S
C172 H144 0.929 . S
C172 C173 1.390 . S
C172 N175 1.391 . S
C173 H145 0.930 . S
C173 C172 1.390 . S
C173 C174 1.392 . S
C174 H146 0.929 . S
C174 C171 1.391 . S
C174 C173 1.392 . S
N175 Co119 2.257 . S
N175 C172 1.391 . S
N175 C176 1.388 . S
C176 H147 0.930 . S
C176 C171 1.391 . S
C176 N175 1.388 . S
Co177 O179 2.143 . S
Co177 O185 2.074 . S
Co177 O188 2.093 . S
Co177 O201 2.097 . S
Co177 N218 2.151 . S
Co177 N226 2.214 . S
Co178 O179 2.160 . S
Co178 O184 2.058 . S
Co178 O194 2.057 . S
Co178 O209 2.037 . S
Co178 N213 2.145 . S
Co178 N234 2.257 . S
O179 Co177 2.143 . S
O179 Co178 2.160 . S
C180 O181 1.278 . S
C180 O188 1.224 . S
O181 C180 1.278 . S
C182 O183 1.245 . S
C182 O194 1.232 . S
O183 C182 1.245 . S
O184 Co178 2.058 . S
O184 C210 1.269 . S
O185 Co177 2.074 . S
O185 C210 1.257 . S
H186 C211 0.930 . S
H187 C217 0.930 . S
O188 Co177 2.093 . S
O188 C180 1.224 . S
H189 C221 0.929 . S
H190 C223 0.930 . S
H191 C224 0.930 . S
H192 C222 0.929 . S
H193 C225 0.928 . S
O194 Co178 2.057 . S
O194 C182 1.232 . S
H195 C214 0.929 . S
H196 C215 0.929 . S
H197 C227 0.931 . S
H198 C219 0.929 . S
H199 C228 0.930 . S
H200 C220 0.931 . S
O201 Co177 2.097 . S
O201 C229 1.214 . S
H202 C230 0.929 . S
H203 C231 0.929 . S
H204 C232 0.930 . S
H205 C233 0.929 . S
H206 C235 0.930 . S
H207 C212 0.930 . S
H208 C216 0.930 . S
O209 Co178 2.037 . S
O209 C229 1.234 . S
C210 O184 1.269 . S
C210 O185 1.257 . S
C211 H186 0.930 . S
C211 C214 1.388 . S
C211 C216 1.418 . S
C212 H207 0.930 . S
C212 C215 1.404 . S
C212 C216 1.353 . S
N213 Co178 2.145 . S
N213 C214 1.397 . S
N213 C215 1.334 . S
C214 H195 0.929 . S
C214 C211 1.388 . S
C214 N213 1.397 . S
C215 H196 0.929 . S
C215 C212 1.404 . S
C215 N213 1.334 . S
C216 H208 0.930 . S
C216 C211 1.418 . S
C216 C212 1.353 . S
C217 H187 0.930 . S
C217 N218 1.330 . S
C217 C219 1.446 . S
N218 Co177 2.151 . S
N218 C217 1.330 . S
N218 C222 1.418 . S
C219 H198 0.929 . S
C219 C217 1.446 . S
C219 C220 1.332 . S
C220 H200 0.931 . S
C220 C219 1.332 . S
C220 C221 1.267 . S
C221 H189 0.929 . S
C221 C220 1.267 . S
C221 C222 1.251 . S
C222 H192 0.929 . S
C222 N218 1.418 . S
C222 C221 1.251 . S
C223 H190 0.930 . S
C223 C225 1.406 . S
C223 C228 1.261 . S
C224 H191 0.930 . S
C224 N226 1.325 . S
C224 C227 1.357 . S
C225 H193 0.928 . S
C225 C223 1.406 . S
C225 N226 1.261 . S
N226 Co177 2.214 . S
N226 C224 1.325 . S
N226 C225 1.261 . S
C227 H197 0.931 . S
C227 C224 1.357 . S
C227 C228 1.312 . S
C228 H199 0.930 . S
C228 C223 1.261 . S
C228 C227 1.312 . S
C229 O201 1.214 . S
C229 O209 1.234 . S
C230 H202 0.929 . S
C230 C233 1.391 . S
C230 C235 1.391 . S
C231 H203 0.929 . S
C231 C232 1.390 . S
C231 N234 1.391 . S
C232 H204 0.930 . S
C232 C231 1.390 . S
C232 C233 1.392 . S
C233 H205 0.929 . S
C233 C230 1.391 . S
C233 C232 1.392 . S
N234 Co178 2.257 . S
N234 C231 1.391 . S
N234 C235 1.388 . S
C235 H206 0.930 . S
C235 C230 1.391 . S
C235 N234 1.388 . S
Co236 O238 2.143 . S
Co236 O244 2.074 . S
Co236 O247 2.093 . S
Co236 O260 2.097 . S
Co236 N277 2.151 . S
Co236 N285 2.214 . S
Co237 O238 2.160 . S
Co237 O243 2.058 . S
Co237 O253 2.057 . S
Co237 O268 2.037 . S
Co237 N272 2.145 . S
Co237 N293 2.257 . S
O238 Co236 2.143 . S
O238 Co237 2.160 . S
C239 O240 1.278 . S
C239 O247 1.224 . S
O240 C239 1.278 . S
C241 O242 1.245 . S
C241 O253 1.232 . S
O242 C241 1.245 . S
O243 Co237 2.058 . S
O243 C269 1.269 . S
O244 Co236 2.074 . S
O244 C269 1.257 . S
H245 C270 0.930 . S
H246 C276 0.930 . S
O247 Co236 2.093 . S
O247 C239 1.224 . S
H248 C280 0.929 . S
H249 C282 0.930 . S
H250 C283 0.930 . S
H251 C281 0.929 . S
H252 C284 0.928 . S
O253 Co237 2.057 . S
O253 C241 1.232 . S
H254 C273 0.921 1_554 S
H255 C274 0.929 1_554 S
H256 C286 0.931 . S
H257 C278 0.929 . S
H258 C287 0.930 . S
H259 C279 0.931 . S
O260 Co236 2.097 . S
O260 C288 1.214 . S
H261 C289 0.929 . S
H262 C290 0.929 . S
H263 C291 0.930 . S
H264 C292 0.929 . S
H265 C294 0.930 . S
H266 C271 0.930 . S
H267 C275 0.930 . S
O268 Co237 2.037 . S
O268 C288 1.234 . S
C269 O243 1.269 . S
C269 O244 1.257 . S
C270 H245 0.930 . S
C270 C273 1.403 . S
C270 C275 1.418 . S
C271 H266 0.930 . S
C271 C274 1.404 . S
C271 C275 1.353 . S
N272 Co237 2.145 . S
N272 C273 1.390 1_554 S
N272 C274 1.334 1_554 S
C273 H254 0.921 1_556 S
C273 C270 1.403 . S
C273 N272 1.390 1_556 S
C274 H255 0.929 1_556 S
C274 C271 1.404 . S
C274 N272 1.334 1_556 S
C275 H267 0.930 . S
C275 C270 1.418 . S
C275 C271 1.353 . S
C276 H246 0.930 . S
C276 N277 1.330 . S
C276 C278 1.446 . S
N277 Co236 2.151 . S
N277 C276 1.330 . S
N277 C281 1.418 . S
C278 H257 0.929 . S
C278 C276 1.446 . S
C278 C279 1.332 . S
C279 H259 0.931 . S
C279 C278 1.332 . S
C279 C280 1.267 . S
C280 H248 0.929 . S
C280 C279 1.267 . S
C280 C281 1.251 . S
C281 H251 0.929 . S
C281 N277 1.418 . S
C281 C280 1.251 . S
C282 H249 0.930 . S
C282 C284 1.406 . S
C282 C287 1.261 . S
C283 H250 0.930 . S
C283 N285 1.325 . S
C283 C286 1.357 . S
C284 H252 0.928 . S
C284 C282 1.406 . S
C284 N285 1.261 . S
N285 Co236 2.214 . S
N285 C283 1.325 . S
N285 C284 1.261 . S
C286 H256 0.931 . S
C286 C283 1.357 . S
C286 C287 1.312 . S
C287 H258 0.930 . S
C287 C282 1.261 . S
C287 C286 1.312 . S
C288 O260 1.214 . S
C288 O268 1.234 . S
C289 H261 0.929 . S
C289 C292 1.391 . S
C289 C294 1.391 . S
C290 H262 0.929 . S
C290 C291 1.390 . S
C290 N293 1.391 . S
C291 H263 0.930 . S
C291 C290 1.390 . S
C291 C292 1.392 . S
C292 H264 0.929 . S
C292 C289 1.391 . S
C292 C291 1.392 . S
N293 Co237 2.257 . S
N293 C290 1.391 . S
N293 C294 1.388 . S
C294 H265 0.930 . S
C294 C289 1.391 . S
C294 N293 1.388 . S
Co295 O297 2.143 . S
Co295 O303 2.074 . S
Co295 O306 2.093 . S
Co295 O319 2.097 . S
Co295 N336 2.151 . S
Co295 N344 2.214 . S
Co296 O297 2.160 . S
Co296 O302 2.058 . S
Co296 O312 2.057 . S
Co296 O327 2.037 . S
Co296 N331 2.145 . S
Co296 N352 2.257 . S
O297 Co295 2.143 . S
O297 Co296 2.160 . S
C298 O299 1.278 . S
C298 O306 1.224 . S
O299 C298 1.278 . S
C300 O301 1.245 . S
C300 O312 1.232 . S
O301 C300 1.245 . S
O302 Co296 2.058 . S
O302 C328 1.269 . S
O303 Co295 2.074 . S
O303 C328 1.257 . S
H304 C329 0.930 . S
H305 C335 0.930 . S
O306 Co295 2.093 . S
O306 C298 1.224 . S
H307 C339 0.929 . S
H308 C341 0.930 . S
H309 C342 0.930 . S
H310 C340 0.929 . S
H311 C343 0.928 . S
O312 Co296 2.057 . S
O312 C300 1.232 . S
H313 C332 0.929 . S
H314 C333 0.929 . S
H315 C345 0.931 . S
H316 C337 0.929 . S
H317 C346 0.930 . S
H318 C338 0.931 . S
O319 Co295 2.097 . S
O319 C347 1.214 . S
H320 C348 0.929 . S
H321 C349 0.929 . S
H322 C350 0.930 . S
H323 C351 0.929 . S
H324 C353 0.930 . S
H325 C330 0.930 . S
H326 C334 0.930 . S
O327 Co296 2.037 . S
O327 C347 1.234 . S
C328 O302 1.269 . S
C328 O303 1.257 . S
C329 H304 0.930 . S
C329 C332 1.388 . S
C329 C334 1.418 . S
C330 H325 0.930 . S
C330 C333 1.404 . S
C330 C334 1.353 . S
N331 Co296 2.145 . S
N331 C332 1.397 . S
N331 C333 1.334 . S
C332 H313 0.929 . S
C332 C329 1.388 . S
C332 N331 1.397 . S
C333 H314 0.929 . S
C333 C330 1.404 . S
C333 N331 1.334 . S
C334 H326 0.930 . S
C334 C329 1.418 . S
C334 C330 1.353 . S
C335 H305 0.930 . S
C335 N336 1.330 . S
C335 C337 1.446 . S
N336 Co295 2.151 . S
N336 C335 1.330 . S
N336 C340 1.418 . S
C337 H316 0.929 . S
C337 C335 1.446 . S
C337 C338 1.332 . S
C338 H318 0.931 . S
C338 C337 1.332 . S
C338 C339 1.267 . S
C339 H307 0.929 . S
C339 C338 1.267 . S
C339 C340 1.251 . S
C340 H310 0.929 . S
C340 N336 1.418 . S
C340 C339 1.251 . S
C341 H308 0.930 . S
C341 C343 1.406 . S
C341 C346 1.261 . S
C342 H309 0.930 . S
C342 N344 1.325 . S
C342 C345 1.357 . S
C343 H311 0.928 . S
C343 C341 1.406 . S
C343 N344 1.261 . S
N344 Co295 2.214 . S
N344 C342 1.325 . S
N344 C343 1.261 . S
C345 H315 0.931 . S
C345 C342 1.357 . S
C345 C346 1.312 . S
C346 H317 0.930 . S
C346 C341 1.261 . S
C346 C345 1.312 . S
C347 O319 1.214 . S
C347 O327 1.234 . S
C348 H320 0.929 . S
C348 C351 1.391 . S
C348 C353 1.391 . S
C349 H321 0.929 . S
C349 C350 1.390 . S
C349 N352 1.391 . S
C350 H322 0.930 . S
C350 C349 1.390 . S
C350 C351 1.392 . S
C351 H323 0.929 . S
C351 C348 1.391 . S
C351 C350 1.392 . S
N352 Co296 2.257 . S
N352 C349 1.391 . S
N352 C353 1.388 . S
C353 H324 0.930 . S
C353 C348 1.391 . S
C353 N352 1.388 . S
Co354 O356 2.143 . S
Co354 O362 2.074 . S
Co354 O365 2.093 . S
Co354 O378 2.097 . S
Co354 N395 2.151 . S
Co354 N403 2.214 . S
Co355 O356 2.160 . S
Co355 O361 2.058 . S
Co355 O371 2.057 . S
Co355 O386 2.037 . S
Co355 N390 2.145 . S
Co355 N411 2.257 . S
O356 Co354 2.143 . S
O356 Co355 2.160 . S
C357 O358 1.278 . S
C357 O365 1.224 . S
O358 C357 1.278 . S
C359 O360 1.245 . S
C359 O371 1.232 . S
O360 C359 1.245 . S
O361 Co355 2.058 . S
O361 C387 1.269 . S
O362 Co354 2.074 . S
O362 C387 1.257 . S
H363 C388 0.930 . S
H364 C394 0.930 . S
O365 Co354 2.093 . S
O365 C357 1.224 . S
H366 C398 0.929 . S
H367 C400 0.930 . S
H368 C401 0.930 . S
H369 C399 0.929 . S
H370 C402 0.928 . S
O371 Co355 2.057 . S
O371 C359 1.232 . S
H372 C391 0.921 1_556 S
H373 C392 0.929 1_556 S
H374 C404 0.931 . S
H375 C396 0.929 . S
H376 C405 0.930 . S
H377 C397 0.931 . S
O378 Co354 2.097 . S
O378 C406 1.214 . S
H379 C407 0.929 . S
H380 C408 0.929 . S
H381 C409 0.930 . S
H382 C410 0.929 . S
H383 C412 0.930 . S
H384 C389 0.930 . S
H385 C393 0.930 . S
O386 Co355 2.037 . S
O386 C406 1.234 . S
C387 O361 1.269 . S
C387 O362 1.257 . S
C388 H363 0.930 . S
C388 C391 1.403 . S
C388 C393 1.418 . S
C389 H384 0.930 . S
C389 C392 1.404 . S
C389 C393 1.353 . S
N390 Co355 2.145 . S
N390 C391 1.390 1_556 S
N390 C392 1.334 1_556 S
C391 H372 0.921 1_554 S
C391 C388 1.403 . S
C391 N390 1.390 1_554 S
C392 H373 0.929 1_554 S
C392 C389 1.404 . S
C392 N390 1.334 1_554 S
C393 H385 0.930 . S
C393 C388 1.418 . S
C393 C389 1.353 . S
C394 H364 0.930 . S
C394 N395 1.330 . S
C394 C396 1.446 . S
N395 Co354 2.151 . S
N395 C394 1.330 . S
N395 C399 1.418 . S
C396 H375 0.929 . S
C396 C394 1.446 . S
C396 C397 1.332 . S
C397 H377 0.931 . S
C397 C396 1.332 . S
C397 C398 1.267 . S
C398 H366 0.929 . S
C398 C397 1.267 . S
C398 C399 1.251 . S
C399 H369 0.929 . S
C399 N395 1.418 . S
C399 C398 1.251 . S
C400 H367 0.930 . S
C400 C402 1.406 . S
C400 C405 1.261 . S
C401 H368 0.930 . S
C401 N403 1.325 . S
C401 C404 1.357 . S
C402 H370 0.928 . S
C402 C400 1.406 . S
C402 N403 1.261 . S
N403 Co354 2.214 . S
N403 C401 1.325 . S
N403 C402 1.261 . S
C404 H374 0.931 . S
C404 C401 1.357 . S
C404 C405 1.312 . S
C405 H376 0.930 . S
C405 C400 1.261 . S
C405 C404 1.312 . S
C406 O378 1.214 . S
C406 O386 1.234 . S
C407 H379 0.929 . S
C407 C410 1.391 . S
C407 C412 1.391 . S
C408 H380 0.929 . S
C408 C409 1.390 . S
C408 N411 1.391 . S
C409 H381 0.930 . S
C409 C408 1.390 . S
C409 C410 1.392 . S
C410 H382 0.929 . S
C410 C407 1.391 . S
C410 C409 1.392 . S
N411 Co355 2.257 . S
N411 C408 1.391 . S
N411 C412 1.388 . S
C412 H383 0.930 . S
C412 C407 1.391 . S
C412 N411 1.388 . S
Co413 O415 2.143 . S
Co413 O421 2.074 . S
Co413 O424 2.093 . S
Co413 O437 2.097 . S
Co413 N454 2.151 . S
Co413 N462 2.214 . S
Co414 O415 2.160 . S
Co414 O420 2.058 . S
Co414 O430 2.057 . S
Co414 O445 2.037 . S
Co414 N449 2.145 . S
Co414 N470 2.257 . S
O415 Co413 2.143 . S
O415 Co414 2.160 . S
C416 O417 1.278 . S
C416 O424 1.224 . S
O417 C416 1.278 . S
C418 O419 1.245 . S
C418 O430 1.232 . S
O419 C418 1.245 . S
O420 Co414 2.058 . S
O420 C446 1.269 . S
O421 Co413 2.074 . S
O421 C446 1.257 . S
H422 C447 0.930 . S
H423 C453 0.930 . S
O424 Co413 2.093 . S
O424 C416 1.224 . S
H425 C457 0.929 . S
H426 C459 0.930 . S
H427 C460 0.930 . S
H428 C458 0.929 . S
H429 C461 0.928 . S
O430 Co414 2.057 . S
O430 C418 1.232 . S
H431 C450 0.929 . S
H432 C451 0.929 . S
H433 C463 0.931 . S
H434 C455 0.929 . S
H435 C464 0.930 . S
H436 C456 0.931 . S
O437 Co413 2.097 . S
O437 C465 1.214 . S
H438 C466 0.929 . S
H439 C467 0.929 . S
H440 C468 0.930 . S
H441 C469 0.929 . S
H442 C471 0.930 . S
H443 C448 0.930 . S
H444 C452 0.930 . S
O445 Co414 2.037 . S
O445 C465 1.234 . S
C446 O420 1.269 . S
C446 O421 1.257 . S
C447 H422 0.930 . S
C447 C450 1.388 . S
C447 C452 1.418 . S
C448 H443 0.930 . S
C448 C451 1.404 . S
C448 C452 1.353 . S
N449 Co414 2.145 . S
N449 C450 1.397 . S
N449 C451 1.334 . S
C450 H431 0.929 . S
C450 C447 1.388 . S
C450 N449 1.397 . S
C451 H432 0.929 . S
C451 C448 1.404 . S
C451 N449 1.334 . S
C452 H444 0.930 . S
C452 C447 1.418 . S
C452 C448 1.353 . S
C453 H423 0.930 . S
C453 N454 1.330 . S
C453 C455 1.446 . S
N454 Co413 2.151 . S
N454 C453 1.330 . S
N454 C458 1.418 . S
C455 H434 0.929 . S
C455 C453 1.446 . S
C455 C456 1.332 . S
C456 H436 0.931 . S
C456 C455 1.332 . S
C456 C457 1.267 . S
C457 H425 0.929 . S
C457 C456 1.267 . S
C457 C458 1.251 . S
C458 H428 0.929 . S
C458 N454 1.418 . S
C458 C457 1.251 . S
C459 H426 0.930 . S
C459 C461 1.406 . S
C459 C464 1.261 . S
C460 H427 0.930 . S
C460 N462 1.325 . S
C460 C463 1.357 . S
C461 H429 0.928 . S
C461 C459 1.406 . S
C461 N462 1.261 . S
N462 Co413 2.214 . S
N462 C460 1.325 . S
N462 C461 1.261 . S
C463 H433 0.931 . S
C463 C460 1.357 . S
C463 C464 1.312 . S
C464 H435 0.930 . S
C464 C459 1.261 . S
C464 C463 1.312 . S
C465 O437 1.214 . S
C465 O445 1.234 . S
C466 H438 0.929 . S
C466 C469 1.391 . S
C466 C471 1.391 . S
C467 H439 0.929 . S
C467 C468 1.390 . S
C467 N470 1.391 . S
C468 H440 0.930 . S
C468 C467 1.390 . S
C468 C469 1.392 . S
C469 H441 0.929 . S
C469 C466 1.391 . S
C469 C468 1.392 . S
N470 Co414 2.257 . S
N470 C467 1.391 . S
N470 C471 1.388 . S
C471 H442 0.930 . S
C471 C466 1.391 . S
C471 N470 1.388 . S
Co472 O474 2.143 . S
Co472 O480 2.074 . S
Co472 O483 2.093 . S
Co472 O496 2.097 . S
Co472 N513 2.151 . S
Co472 N521 2.214 . S
Co473 O474 2.160 . S
Co473 O479 2.058 . S
Co473 O489 2.057 . S
Co473 O504 2.037 . S
Co473 N508 2.145 . S
Co473 N529 2.257 . S
O474 Co472 2.143 . S
O474 Co473 2.160 . S
C475 O476 1.278 . S
C475 O483 1.224 . S
O476 C475 1.278 . S
C477 O478 1.245 . S
C477 O489 1.232 . S
O478 C477 1.245 . S
O479 Co473 2.058 . S
O479 C505 1.269 . S
O480 Co472 2.074 . S
O480 C505 1.257 . S
H481 C506 0.930 . S
H482 C512 0.930 . S
O483 Co472 2.093 . S
O483 C475 1.224 . S
H484 C516 0.929 . S
H485 C518 0.930 . S
H486 C519 0.930 . S
H487 C517 0.929 . S
H488 C520 0.928 . S
O489 Co473 2.057 . S
O489 C477 1.232 . S
H490 C509 0.921 1_556 S
H491 C510 0.929 1_556 S
H492 C522 0.931 . S
H493 C514 0.929 . S
H494 C523 0.930 . S
H495 C515 0.931 . S
O496 Co472 2.097 . S
O496 C524 1.214 . S
H497 C525 0.929 . S
H498 C526 0.929 . S
H499 C527 0.930 . S
H500 C528 0.929 . S
H501 C530 0.930 . S
H502 C507 0.930 . S
H503 C511 0.930 . S
O504 Co473 2.037 . S
O504 C524 1.234 . S
C505 O479 1.269 . S
C505 O480 1.257 . S
C506 H481 0.930 . S
C506 C509 1.403 . S
C506 C511 1.418 . S
C507 H502 0.930 . S
C507 C510 1.404 . S
C507 C511 1.353 . S
N508 Co473 2.145 . S
N508 C509 1.390 1_556 S
N508 C510 1.334 1_556 S
C509 H490 0.921 1_554 S
C509 C506 1.403 . S
C509 N508 1.390 1_554 S
C510 H491 0.929 1_554 S
C510 C507 1.404 . S
C510 N508 1.334 1_554 S
C511 H503 0.930 . S
C511 C506 1.418 . S
C511 C507 1.353 . S
C512 H482 0.930 . S
C512 N513 1.330 . S
C512 C514 1.446 . S
N513 Co472 2.151 . S
N513 C512 1.330 . S
N513 C517 1.418 . S
C514 H493 0.929 . S
C514 C512 1.446 . S
C514 C515 1.332 . S
C515 H495 0.931 . S
C515 C514 1.332 . S
C515 C516 1.267 . S
C516 H484 0.929 . S
C516 C515 1.267 . S
C516 C517 1.251 . S
C517 H487 0.929 . S
C517 N513 1.418 . S
C517 C516 1.251 . S
C518 H485 0.930 . S
C518 C520 1.406 . S
C518 C523 1.261 . S
C519 H486 0.930 . S
C519 N521 1.325 . S
C519 C522 1.357 . S
C520 H488 0.928 . S
C520 C518 1.406 . S
C520 N521 1.261 . S
N521 Co472 2.214 . S
N521 C519 1.325 . S
N521 C520 1.261 . S
C522 H492 0.931 . S
C522 C519 1.357 . S
C522 C523 1.312 . S
C523 H494 0.930 . S
C523 C518 1.261 . S
C523 C522 1.312 . S
C524 O496 1.214 . S
C524 O504 1.234 . S
C525 H497 0.929 . S
C525 C528 1.391 . S
C525 C530 1.391 . S
C526 H498 0.929 . S
C526 C527 1.390 . S
C526 N529 1.391 . S
C527 H499 0.930 . S
C527 C526 1.390 . S
C527 C528 1.392 . S
C528 H500 0.929 . S
C528 C525 1.391 . S
C528 C527 1.392 . S
N529 Co473 2.257 . S
N529 C526 1.391 . S
N529 C530 1.388 . S
C530 H501 0.930 . S
C530 C525 1.391 . S
C530 N529 1.388 . S
Co531 O533 2.143 . S
Co531 O539 2.074 . S
Co531 O542 2.093 . S
Co531 O555 2.097 . S
Co531 N572 2.151 . S
Co531 N580 2.214 . S
Co532 O533 2.160 . S
Co532 O538 2.058 . S
Co532 O548 2.057 . S
Co532 O563 2.037 . S
Co532 N567 2.145 . S
Co532 N588 2.257 . S
O533 Co531 2.143 . S
O533 Co532 2.160 . S
C534 O535 1.278 . S
C534 O542 1.224 . S
O535 C534 1.278 . S
C536 O537 1.245 . S
C536 O548 1.232 . S
O537 C536 1.245 . S
O538 Co532 2.058 . S
O538 C564 1.269 . S
O539 Co531 2.074 . S
O539 C564 1.257 . S
H540 C565 0.930 . S
H541 C571 0.930 . S
O542 Co531 2.093 . S
O542 C534 1.224 . S
H543 C575 0.929 . S
H544 C577 0.930 . S
H545 C578 0.930 . S
H546 C576 0.929 . S
H547 C579 0.928 . S
O548 Co532 2.057 . S
O548 C536 1.232 . S
H549 C568 0.929 . S
H550 C569 0.929 . S
H551 C581 0.931 . S
H552 C573 0.929 . S
H553 C582 0.930 . S
H554 C574 0.931 . S
O555 Co531 2.097 . S
O555 C583 1.214 . S
H556 C584 0.929 . S
H557 C585 0.929 . S
H558 C586 0.930 . S
H559 C587 0.929 . S
H560 C589 0.930 . S
H561 C566 0.930 . S
H562 C570 0.930 . S
O563 Co532 2.037 . S
O563 C583 1.234 . S
C564 O538 1.269 . S
C564 O539 1.257 . S
C565 H540 0.930 . S
C565 C568 1.388 . S
C565 C570 1.418 . S
C566 H561 0.930 . S
C566 C569 1.404 . S
C566 C570 1.353 . S
N567 Co532 2.145 . S
N567 C568 1.397 . S
N567 C569 1.334 . S
C568 H549 0.929 . S
C568 C565 1.388 . S
C568 N567 1.397 . S
C569 H550 0.929 . S
C569 C566 1.404 . S
C569 N567 1.334 . S
C570 H562 0.930 . S
C570 C565 1.418 . S
C570 C566 1.353 . S
C571 H541 0.930 . S
C571 N572 1.330 . S
C571 C573 1.446 . S
N572 Co531 2.151 . S
N572 C571 1.330 . S
N572 C576 1.418 . S
C573 H552 0.929 . S
C573 C571 1.446 . S
C573 C574 1.332 . S
C574 H554 0.931 . S
C574 C573 1.332 . S
C574 C575 1.267 . S
C575 H543 0.929 . S
C575 C574 1.267 . S
C575 C576 1.251 . S
C576 H546 0.929 . S
C576 N572 1.418 . S
C576 C575 1.251 . S
C577 H544 0.930 . S
C577 C579 1.406 . S
C577 C582 1.261 . S
C578 H545 0.930 . S
C578 N580 1.325 . S
C578 C581 1.357 . S
C579 H547 0.928 . S
C579 C577 1.406 . S
C579 N580 1.261 . S
N580 Co531 2.214 . S
N580 C578 1.325 . S
N580 C579 1.261 . S
C581 H551 0.931 . S
C581 C578 1.357 . S
C581 C582 1.312 . S
C582 H553 0.930 . S
C582 C577 1.261 . S
C582 C581 1.312 . S
C583 O555 1.214 . S
C583 O563 1.234 . S
C584 H556 0.929 . S
C584 C587 1.391 . S
C584 C589 1.391 . S
C585 H557 0.929 . S
C585 C586 1.390 . S
C585 N588 1.391 . S
C586 H558 0.930 . S
C586 C585 1.390 . S
C586 C587 1.392 . S
C587 H559 0.929 . S
C587 C584 1.391 . S
C587 C586 1.392 . S
N588 Co532 2.257 . S
N588 C585 1.391 . S
N588 C589 1.388 . S
C589 H560 0.930 . S
C589 C584 1.391 . S
C589 N588 1.388 . S
Co590 O592 2.143 . S
Co590 O598 2.074 . S
Co590 O601 2.093 . S
Co590 O614 2.097 . S
Co590 N631 2.151 . S
Co590 N639 2.214 . S
Co591 O592 2.160 . S
Co591 O597 2.058 . S
Co591 O607 2.057 . S
Co591 O622 2.037 . S
Co591 N626 2.145 . S
Co591 N647 2.257 . S
O592 Co590 2.143 . S
O592 Co591 2.160 . S
C593 O594 1.278 . S
C593 O601 1.224 . S
O594 C593 1.278 . S
C595 O596 1.245 . S
C595 O607 1.232 . S
O596 C595 1.245 . S
O597 Co591 2.058 . S
O597 C623 1.269 . S
O598 Co590 2.074 . S
O598 C623 1.257 . S
H599 C624 0.930 . S
H600 C630 0.930 . S
O601 Co590 2.093 . S
O601 C593 1.224 . S
H602 C634 0.929 . S
H603 C636 0.930 . S
H604 C637 0.930 . S
H605 C635 0.929 . S
H606 C638 0.928 . S
O607 Co591 2.057 . S
O607 C595 1.232 . S
H608 C627 0.921 1_556 S
H609 C628 0.929 1_556 S
H610 C640 0.931 . S
H611 C632 0.929 . S
H612 C641 0.930 . S
H613 C633 0.931 . S
O614 Co590 2.097 . S
O614 C642 1.214 . S
H615 C643 0.929 . S
H616 C644 0.929 . S
H617 C645 0.930 . S
H618 C646 0.929 . S
H619 C648 0.930 . S
H620 C625 0.930 . S
H621 C629 0.930 . S
O622 Co591 2.037 . S
O622 C642 1.234 . S
C623 O597 1.269 . S
C623 O598 1.257 . S
C624 H599 0.930 . S
C624 C627 1.403 . S
C624 C629 1.418 . S
C625 H620 0.930 . S
C625 C628 1.404 . S
C625 C629 1.353 . S
N626 Co591 2.145 . S
N626 C627 1.390 1_556 S
N626 C628 1.334 1_556 S
C627 H608 0.921 1_554 S
C627 C624 1.403 . S
C627 N626 1.390 1_554 S
C628 H609 0.929 1_554 S
C628 C625 1.404 . S
C628 N626 1.334 1_554 S
C629 H621 0.930 . S
C629 C624 1.418 . S
C629 C625 1.353 . S
C630 H600 0.930 . S
C630 N631 1.330 . S
C630 C632 1.446 . S
N631 Co590 2.151 . S
N631 C630 1.330 . S
N631 C635 1.418 . S
C632 H611 0.929 . S
C632 C630 1.446 . S
C632 C633 1.332 . S
C633 H613 0.931 . S
C633 C632 1.332 . S
C633 C634 1.267 . S
C634 H602 0.929 . S
C634 C633 1.267 . S
C634 C635 1.251 . S
C635 H605 0.929 . S
C635 N631 1.418 . S
C635 C634 1.251 . S
C636 H603 0.930 . S
C636 C638 1.406 . S
C636 C641 1.261 . S
C637 H604 0.930 . S
C637 N639 1.325 . S
C637 C640 1.357 . S
C638 H606 0.928 . S
C638 C636 1.406 . S
C638 N639 1.261 . S
N639 Co590 2.214 . S
N639 C637 1.325 . S
N639 C638 1.261 . S
C640 H610 0.931 . S
C640 C637 1.357 . S
C640 C641 1.312 . S
C641 H612 0.930 . S
C641 C636 1.261 . S
C641 C640 1.312 . S
C642 O614 1.214 . S
C642 O622 1.234 . S
C643 H615 0.929 . S
C643 C646 1.391 . S
C643 C648 1.391 . S
C644 H616 0.929 . S
C644 C645 1.390 . S
C644 N647 1.391 . S
C645 H617 0.930 . S
C645 C644 1.390 . S
C645 C646 1.392 . S
C646 H618 0.929 . S
C646 C643 1.391 . S
C646 C645 1.392 . S
N647 Co591 2.257 . S
N647 C644 1.391 . S
N647 C648 1.388 . S
C648 H619 0.930 . S
C648 C643 1.391 . S
C648 N647 1.388 . S
Co649 O651 2.143 . S
Co649 O657 2.074 . S
Co649 O660 2.093 . S
Co649 O673 2.097 . S
Co649 N690 2.151 . S
Co649 N698 2.214 . S
Co650 O651 2.160 . S
Co650 O656 2.058 . S
Co650 O666 2.057 . S
Co650 O681 2.037 . S
Co650 N685 2.145 . S
Co650 N706 2.257 . S
O651 Co649 2.143 . S
O651 Co650 2.160 . S
C652 O653 1.278 . S
C652 O660 1.224 . S
O653 C652 1.278 . S
C654 O655 1.245 . S
C654 O666 1.232 . S
O655 C654 1.245 . S
O656 Co650 2.058 . S
O656 C682 1.269 . S
O657 Co649 2.074 . S
O657 C682 1.257 . S
H658 C683 0.930 . S
H659 C689 0.930 . S
O660 Co649 2.093 . S
O660 C652 1.224 . S
H661 C693 0.929 . S
H662 C695 0.930 . S
H663 C696 0.930 . S
H664 C694 0.929 . S
H665 C697 0.928 . S
O666 Co650 2.057 . S
O666 C654 1.232 . S
H667 C686 0.929 . S
H668 C687 0.929 . S
H669 C699 0.931 . S
H670 C691 0.929 . S
H671 C700 0.930 . S
H672 C692 0.931 . S
O673 Co649 2.097 . S
O673 C701 1.214 . S
H674 C702 0.929 . S
H675 C703 0.929 . S
H676 C704 0.930 . S
H677 C705 0.929 . S
H678 C707 0.930 . S
H679 C684 0.930 . S
H680 C688 0.930 . S
O681 Co650 2.037 . S
O681 C701 1.234 . S
C682 O656 1.269 . S
C682 O657 1.257 . S
C683 H658 0.930 . S
C683 C686 1.388 . S
C683 C688 1.418 . S
C684 H679 0.930 . S
C684 C687 1.404 . S
C684 C688 1.353 . S
N685 Co650 2.145 . S
N685 C686 1.397 . S
N685 C687 1.334 . S
C686 H667 0.929 . S
C686 C683 1.388 . S
C686 N685 1.397 . S
C687 H668 0.929 . S
C687 C684 1.404 . S
C687 N685 1.334 . S
C688 H680 0.930 . S
C688 C683 1.418 . S
C688 C684 1.353 . S
C689 H659 0.930 . S
C689 N690 1.330 . S
C689 C691 1.446 . S
N690 Co649 2.151 . S
N690 C689 1.330 . S
N690 C694 1.418 . S
C691 H670 0.929 . S
C691 C689 1.446 . S
C691 C692 1.332 . S
C692 H672 0.931 . S
C692 C691 1.332 . S
C692 C693 1.267 . S
C693 H661 0.929 . S
C693 C692 1.267 . S
C693 C694 1.251 . S
C694 H664 0.929 . S
C694 N690 1.418 . S
C694 C693 1.251 . S
C695 H662 0.930 . S
C695 C697 1.406 . S
C695 C700 1.261 . S
C696 H663 0.930 . S
C696 N698 1.325 . S
C696 C699 1.357 . S
C697 H665 0.928 . S
C697 C695 1.406 . S
C697 N698 1.261 . S
N698 Co649 2.214 . S
N698 C696 1.325 . S
N698 C697 1.261 . S
C699 H669 0.931 . S
C699 C696 1.357 . S
C699 C700 1.312 . S
C700 H671 0.930 . S
C700 C695 1.261 . S
C700 C699 1.312 . S
C701 O673 1.214 . S
C701 O681 1.234 . S
C702 H674 0.929 . S
C702 C705 1.391 . S
C702 C707 1.391 . S
C703 H675 0.929 . S
C703 C704 1.390 . S
C703 N706 1.391 . S
C704 H676 0.930 . S
C704 C703 1.390 . S
C704 C705 1.392 . S
C705 H677 0.929 . S
C705 C702 1.391 . S
C705 C704 1.392 . S
N706 Co650 2.257 . S
N706 C703 1.391 . S
N706 C707 1.388 . S
C707 H678 0.930 . S
C707 C702 1.391 . S
C707 N706 1.388 . S
Co708 O710 2.143 . S
Co708 O716 2.074 . S
Co708 O719 2.093 . S
Co708 O732 2.097 . S
Co708 N749 2.151 . S
Co708 N757 2.214 . S
Co709 O710 2.160 . S
Co709 O715 2.058 . S
Co709 O725 2.057 . S
Co709 O740 2.037 . S
Co709 N744 2.145 . S
Co709 N765 2.257 . S
O710 Co708 2.143 . S
O710 Co709 2.160 . S
C711 O712 1.278 . S
C711 O719 1.224 . S
O712 C711 1.278 . S
C713 O714 1.245 . S
C713 O725 1.232 . S
O714 C713 1.245 . S
O715 Co709 2.058 . S
O715 C741 1.269 . S
O716 Co708 2.074 . S
O716 C741 1.257 . S
H717 C742 0.930 . S
H718 C748 0.930 . S
O719 Co708 2.093 . S
O719 C711 1.224 . S
H720 C752 0.929 . S
H721 C754 0.930 . S
H722 C755 0.930 . S
H723 C753 0.929 . S
H724 C756 0.928 . S
O725 Co709 2.057 . S
O725 C713 1.232 . S
H726 C745 0.921 1_556 S
H727 C746 0.929 1_556 S
H728 C758 0.931 . S
H729 C750 0.929 . S
H730 C759 0.930 . S
H731 C751 0.931 . S
O732 Co708 2.097 . S
O732 C760 1.214 . S
H733 C761 0.929 . S
H734 C762 0.929 . S
H735 C763 0.930 . S
H736 C764 0.929 . S
H737 C766 0.930 . S
H738 C743 0.930 . S
H739 C747 0.930 . S
O740 Co709 2.037 . S
O740 C760 1.234 . S
C741 O715 1.269 . S
C741 O716 1.257 . S
C742 H717 0.930 . S
C742 C745 1.403 . S
C742 C747 1.418 . S
C743 H738 0.930 . S
C743 C746 1.404 . S
C743 C747 1.353 . S
N744 Co709 2.145 . S
N744 C745 1.390 1_556 S
N744 C746 1.334 1_556 S
C745 H726 0.921 1_554 S
C745 C742 1.403 . S
C745 N744 1.390 1_554 S
C746 H727 0.929 1_554 S
C746 C743 1.404 . S
C746 N744 1.334 1_554 S
C747 H739 0.930 . S
C747 C742 1.418 . S
C747 C743 1.353 . S
C748 H718 0.930 . S
C748 N749 1.330 . S
C748 C750 1.446 . S
N749 Co708 2.151 . S
N749 C748 1.330 . S
N749 C753 1.418 . S
C750 H729 0.929 . S
C750 C748 1.446 . S
C750 C751 1.332 . S
C751 H731 0.931 . S
C751 C750 1.332 . S
C751 C752 1.267 . S
C752 H720 0.929 . S
C752 C751 1.267 . S
C752 C753 1.251 . S
C753 H723 0.929 . S
C753 N749 1.418 . S
C753 C752 1.251 . S
C754 H721 0.930 . S
C754 C756 1.406 . S
C754 C759 1.261 . S
C755 H722 0.930 . S
C755 N757 1.325 . S
C755 C758 1.357 . S
C756 H724 0.928 . S
C756 C754 1.406 . S
C756 N757 1.261 . S
N757 Co708 2.214 . S
N757 C755 1.325 . S
N757 C756 1.261 . S
C758 H728 0.931 . S
C758 C755 1.357 . S
C758 C759 1.312 . S
C759 H730 0.930 . S
C759 C754 1.261 . S
C759 C758 1.312 . S
C760 O732 1.214 . S
C760 O740 1.234 . S
C761 H733 0.929 . S
C761 C764 1.391 . S
C761 C766 1.391 . S
C762 H734 0.929 . S
C762 C763 1.390 . S
C762 N765 1.391 . S
C763 H735 0.930 . S
C763 C762 1.390 . S
C763 C764 1.392 . S
C764 H736 0.929 . S
C764 C761 1.391 . S
C764 C763 1.392 . S
N765 Co709 2.257 . S
N765 C762 1.391 . S
N765 C766 1.388 . S
C766 H737 0.930 . S
C766 C761 1.391 . S
C766 N765 1.388 . S
Co767 O769 2.143 . S
Co767 O775 2.074 . S
Co767 O778 2.093 . S
Co767 O791 2.097 . S
Co767 N808 2.151 . S
Co767 N816 2.214 . S
Co768 O769 2.160 . S
Co768 O774 2.058 . S
Co768 O784 2.057 . S
Co768 O799 2.037 . S
Co768 N803 2.145 . S
Co768 N824 2.257 . S
O769 Co767 2.143 . S
O769 Co768 2.160 . S
C770 O771 1.278 . S
C770 O778 1.224 . S
O771 C770 1.278 . S
C772 O773 1.245 . S
C772 O784 1.232 . S
O773 C772 1.245 . S
O774 Co768 2.058 . S
O774 C800 1.269 . S
O775 Co767 2.074 . S
O775 C800 1.257 . S
H776 C801 0.930 . S
H777 C807 0.930 . S
O778 Co767 2.093 . S
O778 C770 1.224 . S
H779 C811 0.929 . S
H780 C813 0.930 . S
H781 C814 0.930 . S
H782 C812 0.929 . S
H783 C815 0.928 . S
O784 Co768 2.057 . S
O784 C772 1.232 . S
H785 C804 0.929 . S
H786 C805 0.929 . S
H787 C817 0.931 . S
H788 C809 0.929 . S
H789 C818 0.930 . S
H790 C810 0.931 . S
O791 Co767 2.097 . S
O791 C819 1.214 . S
H792 C820 0.929 . S
H793 C821 0.929 . S
H794 C822 0.930 . S
H795 C823 0.929 . S
H796 C825 0.930 . S
H797 C802 0.930 . S
H798 C806 0.930 . S
O799 Co768 2.037 . S
O799 C819 1.234 . S
C800 O774 1.269 . S
C800 O775 1.257 . S
C801 H776 0.930 . S
C801 C804 1.388 . S
C801 C806 1.418 . S
C802 H797 0.930 . S
C802 C805 1.404 . S
C802 C806 1.353 . S
N803 Co768 2.145 . S
N803 C804 1.397 . S
N803 C805 1.334 . S
C804 H785 0.929 . S
C804 C801 1.388 . S
C804 N803 1.397 . S
C805 H786 0.929 . S
C805 C802 1.404 . S
C805 N803 1.334 . S
C806 H798 0.930 . S
C806 C801 1.418 . S
C806 C802 1.353 . S
C807 H777 0.930 . S
C807 N808 1.330 . S
C807 C809 1.446 . S
N808 Co767 2.151 . S
N808 C807 1.330 . S
N808 C812 1.418 . S
C809 H788 0.929 . S
C809 C807 1.446 . S
C809 C810 1.332 . S
C810 H790 0.931 . S
C810 C809 1.332 . S
C810 C811 1.267 . S
C811 H779 0.929 . S
C811 C810 1.267 . S
C811 C812 1.251 . S
C812 H782 0.929 . S
C812 N808 1.418 . S
C812 C811 1.251 . S
C813 H780 0.930 . S
C813 C815 1.406 . S
C813 C818 1.261 . S
C814 H781 0.930 . S
C814 N816 1.325 . S
C814 C817 1.357 . S
C815 H783 0.928 . S
C815 C813 1.406 . S
C815 N816 1.261 . S
N816 Co767 2.214 . S
N816 C814 1.325 . S
N816 C815 1.261 . S
C817 H787 0.931 . S
C817 C814 1.357 . S
C817 C818 1.312 . S
C818 H789 0.930 . S
C818 C813 1.261 . S
C818 C817 1.312 . S
C819 O791 1.214 . S
C819 O799 1.234 . S
C820 H792 0.929 . S
C820 C823 1.391 . S
C820 C825 1.391 . S
C821 H793 0.929 . S
C821 C822 1.390 . S
C821 N824 1.391 . S
C822 H794 0.930 . S
C822 C821 1.390 . S
C822 C823 1.392 . S
C823 H795 0.929 . S
C823 C820 1.391 . S
C823 C822 1.392 . S
N824 Co768 2.257 . S
N824 C821 1.391 . S
N824 C825 1.388 . S
C825 H796 0.930 . S
C825 C820 1.391 . S
C825 N824 1.388 . S
Co826 O828 2.143 . S
Co826 O834 2.074 . S
Co826 O837 2.093 . S
Co826 O850 2.097 . S
Co826 N867 2.151 . S
Co826 N875 2.214 . S
Co827 O828 2.160 . S
Co827 O833 2.058 . S
Co827 O843 2.057 . S
Co827 O858 2.037 . S
Co827 N862 2.145 . S
Co827 N883 2.257 . S
O828 Co826 2.143 . S
O828 Co827 2.160 . S
C829 O830 1.278 . S
C829 O837 1.224 . S
O830 C829 1.278 . S
C831 O832 1.245 . S
C831 O843 1.232 . S
O832 C831 1.245 . S
O833 Co827 2.058 . S
O833 C859 1.269 . S
O834 Co826 2.074 . S
O834 C859 1.257 . S
H835 C860 0.930 . S
H836 C866 0.930 . S
O837 Co826 2.093 . S
O837 C829 1.224 . S
H838 C870 0.929 . S
H839 C872 0.930 . S
H840 C873 0.930 . S
H841 C871 0.929 . S
H842 C874 0.928 . S
O843 Co827 2.057 . S
O843 C831 1.232 . S
H844 C863 0.921 1_556 S
H845 C864 0.929 1_556 S
H846 C876 0.931 . S
H847 C868 0.929 . S
H848 C877 0.930 . S
H849 C869 0.931 . S
O850 Co826 2.097 . S
O850 C878 1.214 . S
H851 C879 0.929 . S
H852 C880 0.929 . S
H853 C881 0.930 . S
H854 C882 0.929 . S
H855 C884 0.930 . S
H856 C861 0.930 . S
H857 C865 0.930 . S
O858 Co827 2.037 . S
O858 C878 1.234 . S
C859 O833 1.269 . S
C859 O834 1.257 . S
C860 H835 0.930 . S
C860 C863 1.403 . S
C860 C865 1.418 . S
C861 H856 0.930 . S
C861 C864 1.404 . S
C861 C865 1.353 . S
N862 Co827 2.145 . S
N862 C863 1.390 1_556 S
N862 C864 1.334 1_556 S
C863 H844 0.921 1_554 S
C863 C860 1.403 . S
C863 N862 1.390 1_554 S
C864 H845 0.929 1_554 S
C864 C861 1.404 . S
C864 N862 1.334 1_554 S
C865 H857 0.930 . S
C865 C860 1.418 . S
C865 C861 1.353 . S
C866 H836 0.930 . S
C866 N867 1.330 . S
C866 C868 1.446 . S
N867 Co826 2.151 . S
N867 C866 1.330 . S
N867 C871 1.418 . S
C868 H847 0.929 . S
C868 C866 1.446 . S
C868 C869 1.332 . S
C869 H849 0.931 . S
C869 C868 1.332 . S
C869 C870 1.267 . S
C870 H838 0.929 . S
C870 C869 1.267 . S
C870 C871 1.251 . S
C871 H841 0.929 . S
C871 N867 1.418 . S
C871 C870 1.251 . S
C872 H839 0.930 . S
C872 C874 1.406 . S
C872 C877 1.261 . S
C873 H840 0.930 . S
C873 N875 1.325 . S
C873 C876 1.357 . S
C874 H842 0.928 . S
C874 C872 1.406 . S
C874 N875 1.261 . S
N875 Co826 2.214 . S
N875 C873 1.325 . S
N875 C874 1.261 . S
C876 H846 0.931 . S
C876 C873 1.357 . S
C876 C877 1.312 . S
C877 H848 0.930 . S
C877 C872 1.261 . S
C877 C876 1.312 . S
C878 O850 1.214 . S
C878 O858 1.234 . S
C879 H851 0.929 . S
C879 C882 1.391 . S
C879 C884 1.391 . S
C880 H852 0.929 . S
C880 C881 1.390 . S
C880 N883 1.391 . S
C881 H853 0.930 . S
C881 C880 1.390 . S
C881 C882 1.392 . S
C882 H854 0.929 . S
C882 C879 1.391 . S
C882 C881 1.392 . S
N883 Co827 2.257 . S
N883 C880 1.391 . S
N883 C884 1.388 . S
C884 H855 0.930 . S
C884 C879 1.391 . S
C884 N883 1.388 . S
Co885 O887 2.143 . S
Co885 O893 2.074 . S
Co885 O896 2.093 . S
Co885 O909 2.097 . S
Co885 N926 2.151 . S
Co885 N934 2.214 . S
Co886 O887 2.160 . S
Co886 O892 2.058 . S
Co886 O902 2.057 . S
Co886 O917 2.037 . S
Co886 N921 2.145 . S
Co886 N942 2.257 . S
O887 Co885 2.143 . S
O887 Co886 2.160 . S
C888 O889 1.278 . S
C888 O896 1.224 . S
O889 C888 1.278 . S
C890 O891 1.245 . S
C890 O902 1.232 . S
O891 C890 1.245 . S
O892 Co886 2.058 . S
O892 C918 1.269 . S
O893 Co885 2.074 . S
O893 C918 1.257 . S
H894 C919 0.930 . S
H895 C925 0.930 . S
O896 Co885 2.093 . S
O896 C888 1.224 . S
H897 C929 0.929 . S
H898 C931 0.930 . S
H899 C932 0.930 . S
H900 C930 0.929 . S
H901 C933 0.928 . S
O902 Co886 2.057 . S
O902 C890 1.232 . S
H903 C922 0.929 . S
H904 C923 0.929 . S
H905 C935 0.931 . S
H906 C927 0.929 . S
H907 C936 0.930 . S
H908 C928 0.931 . S
O909 Co885 2.097 . S
O909 C937 1.214 . S
H910 C938 0.929 . S
H911 C939 0.929 . S
H912 C940 0.930 . S
H913 C941 0.929 . S
H914 C943 0.930 . S
H915 C920 0.930 . S
H916 C924 0.930 . S
O917 Co886 2.037 . S
O917 C937 1.234 . S
C918 O892 1.269 . S
C918 O893 1.257 . S
C919 H894 0.930 . S
C919 C922 1.388 . S
C919 C924 1.418 . S
C920 H915 0.930 . S
C920 C923 1.404 . S
C920 C924 1.353 . S
N921 Co886 2.145 . S
N921 C922 1.397 . S
N921 C923 1.334 . S
C922 H903 0.929 . S
C922 C919 1.388 . S
C922 N921 1.397 . S
C923 H904 0.929 . S
C923 C920 1.404 . S
C923 N921 1.334 . S
C924 H916 0.930 . S
C924 C919 1.418 . S
C924 C920 1.353 . S
C925 H895 0.930 . S
C925 N926 1.330 . S
C925 C927 1.446 . S
N926 Co885 2.151 . S
N926 C925 1.330 . S
N926 C930 1.418 . S
C927 H906 0.929 . S
C927 C925 1.446 . S
C927 C928 1.332 . S
C928 H908 0.931 . S
C928 C927 1.332 . S
C928 C929 1.267 . S
C929 H897 0.929 . S
C929 C928 1.267 . S
C929 C930 1.251 . S
C930 H900 0.929 . S
C930 N926 1.418 . S
C930 C929 1.251 . S
C931 H898 0.930 . S
C931 C933 1.406 . S
C931 C936 1.261 . S
C932 H899 0.930 . S
C932 N934 1.325 . S
C932 C935 1.357 . S
C933 H901 0.928 . S
C933 C931 1.406 . S
C933 N934 1.261 . S
N934 Co885 2.214 . S
N934 C932 1.325 . S
N934 C933 1.261 . S
C935 H905 0.931 . S
C935 C932 1.357 . S
C935 C936 1.312 . S
C936 H907 0.930 . S
C936 C931 1.261 . S
C936 C935 1.312 . S
C937 O909 1.214 . S
C937 O917 1.234 . S
C938 H910 0.929 . S
C938 C941 1.391 . S
C938 C943 1.391 . S
C939 H911 0.929 . S
C939 C940 1.390 . S
C939 N942 1.391 . S
C940 H912 0.930 . S
C940 C939 1.390 . S
C940 C941 1.392 . S
C941 H913 0.929 . S
C941 C938 1.391 . S
C941 C940 1.392 . S
N942 Co886 2.257 . S
N942 C939 1.391 . S
N942 C943 1.388 . S
C943 H914 0.930 . S
C943 C938 1.391 . S
C943 N942 1.388 . S
Co944 O946 2.143 . S
Co944 O952 2.074 . S
Co944 O955 2.093 . S
Co944 O968 2.097 . S
Co944 N985 2.151 . S
Co944 N993 2.214 . S
Co945 O946 2.160 . S
Co945 O951 2.058 . S
Co945 O961 2.057 . S
Co945 O976 2.037 . S
Co945 N980 2.145 . S
Co945 N1001 2.257 . S
O946 Co944 2.143 . S
O946 Co945 2.160 . S
C947 O948 1.278 . S
C947 O955 1.224 . S
O948 C947 1.278 . S
C949 O950 1.245 . S
C949 O961 1.232 . S
O950 C949 1.245 . S
O951 Co945 2.058 . S
O951 C977 1.269 . S
O952 Co944 2.074 . S
O952 C977 1.257 . S
H953 C978 0.930 . S
H954 C984 0.930 . S
O955 Co944 2.093 . S
O955 C947 1.224 . S
H956 C988 0.929 . S
H957 C990 0.930 . S
H958 C991 0.930 . S
H959 C989 0.929 . S
H960 C992 0.928 . S
O961 Co945 2.057 . S
O961 C949 1.232 . S
H962 C981 0.921 1_556 S
H963 C982 0.929 1_556 S
H964 C994 0.931 . S
H965 C986 0.929 . S
H966 C995 0.930 . S
H967 C987 0.931 . S
O968 Co944 2.097 . S
O968 C996 1.214 . S
H969 C997 0.929 . S
H970 C998 0.929 . S
H971 C999 0.930 . S
H972 C1000 0.929 . S
H973 C1002 0.930 . S
H974 C979 0.930 . S
H975 C983 0.930 . S
O976 Co945 2.037 . S
O976 C996 1.234 . S
C977 O951 1.269 . S
C977 O952 1.257 . S
C978 H953 0.930 . S
C978 C981 1.403 . S
C978 C983 1.418 . S
C979 H974 0.930 . S
C979 C982 1.404 . S
C979 C983 1.353 . S
N980 Co945 2.145 . S
N980 C981 1.390 1_556 S
N980 C982 1.334 1_556 S
C981 H962 0.921 1_554 S
C981 C978 1.403 . S
C981 N980 1.390 1_554 S
C982 H963 0.929 1_554 S
C982 C979 1.404 . S
C982 N980 1.334 1_554 S
C983 H975 0.930 . S
C983 C978 1.418 . S
C983 C979 1.353 . S
C984 H954 0.930 . S
C984 N985 1.330 . S
C984 C986 1.446 . S
N985 Co944 2.151 . S
N985 C984 1.330 . S
N985 C989 1.418 . S
C986 H965 0.929 . S
C986 C984 1.446 . S
C986 C987 1.332 . S
C987 H967 0.931 . S
C987 C986 1.332 . S
C987 C988 1.267 . S
C988 H956 0.929 . S
C988 C987 1.267 . S
C988 C989 1.251 . S
C989 H959 0.929 . S
C989 N985 1.418 . S
C989 C988 1.251 . S
C990 H957 0.930 . S
C990 C992 1.406 . S
C990 C995 1.261 . S
C991 H958 0.930 . S
C991 N993 1.325 . S
C991 C994 1.357 . S
C992 H960 0.928 . S
C992 C990 1.406 . S
C992 N993 1.261 . S
N993 Co944 2.214 . S
N993 C991 1.325 . S
N993 C992 1.261 . S
C994 H964 0.931 . S
C994 C991 1.357 . S
C994 C995 1.312 . S
C995 H966 0.930 . S
C995 C990 1.261 . S
C995 C994 1.312 . S
C996 O968 1.214 . S
C996 O976 1.234 . S
C997 H969 0.929 . S
C997 C1000 1.391 . S
C997 C1002 1.391 . S
C998 H970 0.929 . S
C998 C999 1.390 . S
C998 N1001 1.391 . S
C999 H971 0.930 . S
C999 C998 1.390 . S
C999 C1000 1.392 . S
C1000 H972 0.929 . S
C1000 C997 1.391 . S
C1000 C999 1.392 . S
N1001 Co945 2.257 . S
N1001 C998 1.391 . S
N1001 C1002 1.388 . S
C1002 H973 0.930 . S
C1002 C997 1.391 . S
C1002 N1001 1.388 . S
Co1003 O1005 2.143 . S
Co1003 O1011 2.074 . S
Co1003 O1014 2.093 . S
Co1003 O1027 2.097 . S
Co1003 N1044 2.151 . S
Co1003 N1052 2.214 . S
Co1004 O1005 2.160 . S
Co1004 O1010 2.058 . S
Co1004 O1020 2.057 . S
Co1004 O1035 2.037 . S
Co1004 N1039 2.145 . S
Co1004 N1060 2.257 . S
O1005 Co1003 2.143 . S
O1005 Co1004 2.160 . S
C1006 O1007 1.278 . S
C1006 O1014 1.224 . S
O1007 C1006 1.278 . S
C1008 O1009 1.245 . S
C1008 O1020 1.232 . S
O1009 C1008 1.245 . S
O1010 Co1004 2.058 . S
O1010 C1036 1.269 . S
O1011 Co1003 2.074 . S
O1011 C1036 1.257 . S
H1012 C1037 0.930 . S
H1013 C1043 0.930 . S
O1014 Co1003 2.093 . S
O1014 C1006 1.224 . S
H1015 C1047 0.929 . S
H1016 C1049 0.930 . S
H1017 C1050 0.930 . S
H1018 C1048 0.929 . S
H1019 C1051 0.928 . S
O1020 Co1004 2.057 . S
O1020 C1008 1.232 . S
H1021 C1040 0.929 . S
H1022 C1041 0.929 . S
H1023 C1053 0.931 . S
H1024 C1045 0.929 . S
H1025 C1054 0.930 . S
H1026 C1046 0.931 . S
O1027 Co1003 2.097 . S
O1027 C1055 1.214 . S
H1028 C1056 0.929 . S
H1029 C1057 0.929 . S
H1030 C1058 0.930 . S
H1031 C1059 0.929 . S
H1032 C1061 0.930 . S
H1033 C1038 0.930 . S
H1034 C1042 0.930 . S
O1035 Co1004 2.037 . S
O1035 C1055 1.234 . S
C1036 O1010 1.269 . S
C1036 O1011 1.257 . S
C1037 H1012 0.930 . S
C1037 C1040 1.388 . S
C1037 C1042 1.418 . S
C1038 H1033 0.930 . S
C1038 C1041 1.404 . S
C1038 C1042 1.353 . S
N1039 Co1004 2.145 . S
N1039 C1040 1.397 . S
N1039 C1041 1.334 . S
C1040 H1021 0.929 . S
C1040 C1037 1.388 . S
C1040 N1039 1.397 . S
C1041 H1022 0.929 . S
C1041 C1038 1.404 . S
C1041 N1039 1.334 . S
C1042 H1034 0.930 . S
C1042 C1037 1.418 . S
C1042 C1038 1.353 . S
C1043 H1013 0.930 . S
C1043 N1044 1.330 . S
C1043 C1045 1.446 . S
N1044 Co1003 2.151 . S
N1044 C1043 1.330 . S
N1044 C1048 1.418 . S
C1045 H1024 0.929 . S
C1045 C1043 1.446 . S
C1045 C1046 1.332 . S
C1046 H1026 0.931 . S
C1046 C1045 1.332 . S
C1046 C1047 1.267 . S
C1047 H1015 0.929 . S
C1047 C1046 1.267 . S
C1047 C1048 1.251 . S
C1048 H1018 0.929 . S
C1048 N1044 1.418 . S
C1048 C1047 1.251 . S
C1049 H1016 0.930 . S
C1049 C1051 1.406 . S
C1049 C1054 1.261 . S
C1050 H1017 0.930 . S
C1050 N1052 1.325 . S
C1050 C1053 1.357 . S
C1051 H1019 0.928 . S
C1051 C1049 1.406 . S
C1051 N1052 1.261 . S
N1052 Co1003 2.214 . S
N1052 C1050 1.325 . S
N1052 C1051 1.261 . S
C1053 H1023 0.931 . S
C1053 C1050 1.357 . S
C1053 C1054 1.312 . S
C1054 H1025 0.930 . S
C1054 C1049 1.261 . S
C1054 C1053 1.312 . S
C1055 O1027 1.214 . S
C1055 O1035 1.234 . S
C1056 H1028 0.929 . S
C1056 C1059 1.391 . S
C1056 C1061 1.391 . S
C1057 H1029 0.929 . S
C1057 C1058 1.390 . S
C1057 N1060 1.391 . S
C1058 H1030 0.930 . S
C1058 C1057 1.390 . S
C1058 C1059 1.392 . S
C1059 H1031 0.929 . S
C1059 C1056 1.391 . S
C1059 C1058 1.392 . S
N1060 Co1004 2.257 . S
N1060 C1057 1.391 . S
N1060 C1061 1.388 . S
C1061 H1032 0.930 . S
C1061 C1056 1.391 . S
C1061 N1060 1.388 . S
Co1062 O1064 2.143 . S
Co1062 O1070 2.074 . S
Co1062 O1073 2.093 . S
Co1062 O1086 2.097 . S
Co1062 N1103 2.151 . S
Co1062 N1111 2.214 . S
Co1063 O1064 2.160 . S
Co1063 O1069 2.058 . S
Co1063 O1079 2.057 . S
Co1063 O1094 2.037 . S
Co1063 N1098 2.145 . S
Co1063 N1119 2.257 . S
O1064 Co1062 2.143 . S
O1064 Co1063 2.160 . S
C1065 O1066 1.278 . S
C1065 O1073 1.224 . S
O1066 C1065 1.278 . S
C1067 O1068 1.245 . S
C1067 O1079 1.232 . S
O1068 C1067 1.245 . S
O1069 Co1063 2.058 . S
O1069 C1095 1.269 . S
O1070 Co1062 2.074 . S
O1070 C1095 1.257 . S
H1071 C1096 0.930 . S
H1072 C1102 0.930 . S
O1073 Co1062 2.093 . S
O1073 C1065 1.224 . S
H1074 C1106 0.929 . S
H1075 C1108 0.930 . S
H1076 C1109 0.930 . S
H1077 C1107 0.929 . S
H1078 C1110 0.928 . S
O1079 Co1063 2.057 . S
O1079 C1067 1.232 . S
H1080 C1099 0.921 1_554 S
H1081 C1100 0.929 1_554 S
H1082 C1112 0.931 . S
H1083 C1104 0.929 . S
H1084 C1113 0.930 . S
H1085 C1105 0.931 . S
O1086 Co1062 2.097 . S
O1086 C1114 1.214 . S
H1087 C1115 0.929 . S
H1088 C1116 0.929 . S
H1089 C1117 0.930 . S
H1090 C1118 0.929 . S
H1091 C1120 0.930 . S
H1092 C1097 0.930 . S
H1093 C1101 0.930 . S
O1094 Co1063 2.037 . S
O1094 C1114 1.234 . S
C1095 O1069 1.269 . S
C1095 O1070 1.257 . S
C1096 H1071 0.930 . S
C1096 C1099 1.403 . S
C1096 C1101 1.418 . S
C1097 H1092 0.930 . S
C1097 C1100 1.404 . S
C1097 C1101 1.353 . S
N1098 Co1063 2.145 . S
N1098 C1099 1.390 1_554 S
N1098 C1100 1.334 1_554 S
C1099 H1080 0.921 1_556 S
C1099 C1096 1.403 . S
C1099 N1098 1.390 1_556 S
C1100 H1081 0.929 1_556 S
C1100 C1097 1.404 . S
C1100 N1098 1.334 1_556 S
C1101 H1093 0.930 . S
C1101 C1096 1.418 . S
C1101 C1097 1.353 . S
C1102 H1072 0.930 . S
C1102 N1103 1.330 . S
C1102 C1104 1.446 . S
N1103 Co1062 2.151 . S
N1103 C1102 1.330 . S
N1103 C1107 1.418 . S
C1104 H1083 0.929 . S
C1104 C1102 1.446 . S
C1104 C1105 1.332 . S
C1105 H1085 0.931 . S
C1105 C1104 1.332 . S
C1105 C1106 1.267 . S
C1106 H1074 0.929 . S
C1106 C1105 1.267 . S
C1106 C1107 1.251 . S
C1107 H1077 0.929 . S
C1107 N1103 1.418 . S
C1107 C1106 1.251 . S
C1108 H1075 0.930 . S
C1108 C1110 1.406 . S
C1108 C1113 1.261 . S
C1109 H1076 0.930 . S
C1109 N1111 1.325 . S
C1109 C1112 1.357 . S
C1110 H1078 0.928 . S
C1110 C1108 1.406 . S
C1110 N1111 1.261 . S
N1111 Co1062 2.214 . S
N1111 C1109 1.325 . S
N1111 C1110 1.261 . S
C1112 H1082 0.931 . S
C1112 C1109 1.357 . S
C1112 C1113 1.312 . S
C1113 H1084 0.930 . S
C1113 C1108 1.261 . S
C1113 C1112 1.312 . S
C1114 O1086 1.214 . S
C1114 O1094 1.234 . S
C1115 H1087 0.929 . S
C1115 C1118 1.391 . S
C1115 C1120 1.391 . S
C1116 H1088 0.929 . S
C1116 C1117 1.390 . S
C1116 N1119 1.391 . S
C1117 H1089 0.930 . S
C1117 C1116 1.390 . S
C1117 C1118 1.392 . S
C1118 H1090 0.929 . S
C1118 C1115 1.391 . S
C1118 C1117 1.392 . S
N1119 Co1063 2.257 . S
N1119 C1116 1.391 . S
N1119 C1120 1.388 . S
C1120 H1091 0.930 . S
C1120 C1115 1.391 . S
C1120 N1119 1.388 . S
Co1121 O1123 2.143 . S
Co1121 O1129 2.074 . S
Co1121 O1132 2.093 . S
Co1121 O1145 2.097 . S
Co1121 N1162 2.151 . S
Co1121 N1170 2.214 . S
Co1122 O1123 2.160 . S
Co1122 O1128 2.058 . S
Co1122 O1138 2.057 . S
Co1122 O1153 2.037 . S
Co1122 N1157 2.145 . S
Co1122 N1178 2.257 . S
O1123 Co1121 2.143 . S
O1123 Co1122 2.160 . S
C1124 O1125 1.278 . S
C1124 O1132 1.224 . S
O1125 C1124 1.278 . S
C1126 O1127 1.245 . S
C1126 O1138 1.232 . S
O1127 C1126 1.245 . S
O1128 Co1122 2.058 . S
O1128 C1154 1.269 . S
O1129 Co1121 2.074 . S
O1129 C1154 1.257 . S
H1130 C1155 0.930 . S
H1131 C1161 0.930 . S
O1132 Co1121 2.093 . S
O1132 C1124 1.224 . S
H1133 C1165 0.929 . S
H1134 C1167 0.930 . S
H1135 C1168 0.930 . S
H1136 C1166 0.929 . S
H1137 C1169 0.928 . S
O1138 Co1122 2.057 . S
O1138 C1126 1.232 . S
H1139 C1158 0.929 . S
H1140 C1159 0.929 . S
H1141 C1171 0.931 . S
H1142 C1163 0.929 . S
H1143 C1172 0.930 . S
H1144 C1164 0.931 . S
O1145 Co1121 2.097 . S
O1145 C1173 1.214 . S
H1146 C1174 0.929 . S
H1147 C1175 0.929 . S
H1148 C1176 0.930 . S
H1149 C1177 0.929 . S
H1150 C1179 0.930 . S
H1151 C1156 0.930 . S
H1152 C1160 0.930 . S
O1153 Co1122 2.037 . S
O1153 C1173 1.234 . S
C1154 O1128 1.269 . S
C1154 O1129 1.257 . S
C1155 H1130 0.930 . S
C1155 C1158 1.388 . S
C1155 C1160 1.418 . S
C1156 H1151 0.930 . S
C1156 C1159 1.404 . S
C1156 C1160 1.353 . S
N1157 Co1122 2.145 . S
N1157 C1158 1.397 . S
N1157 C1159 1.334 . S
C1158 H1139 0.929 . S
C1158 C1155 1.388 . S
C1158 N1157 1.397 . S
C1159 H1140 0.929 . S
C1159 C1156 1.404 . S
C1159 N1157 1.334 . S
C1160 H1152 0.930 . S
C1160 C1155 1.418 . S
C1160 C1156 1.353 . S
C1161 H1131 0.930 . S
C1161 N1162 1.330 . S
C1161 C1163 1.446 . S
N1162 Co1121 2.151 . S
N1162 C1161 1.330 . S
N1162 C1166 1.418 . S
C1163 H1142 0.929 . S
C1163 C1161 1.446 . S
C1163 C1164 1.332 . S
C1164 H1144 0.931 . S
C1164 C1163 1.332 . S
C1164 C1165 1.267 . S
C1165 H1133 0.929 . S
C1165 C1164 1.267 . S
C1165 C1166 1.251 . S
C1166 H1136 0.929 . S
C1166 N1162 1.418 . S
C1166 C1165 1.251 . S
C1167 H1134 0.930 . S
C1167 C1169 1.406 . S
C1167 C1172 1.261 . S
C1168 H1135 0.930 . S
C1168 N1170 1.325 . S
C1168 C1171 1.357 . S
C1169 H1137 0.928 . S
C1169 C1167 1.406 . S
C1169 N1170 1.261 . S
N1170 Co1121 2.214 . S
N1170 C1168 1.325 . S
N1170 C1169 1.261 . S
C1171 H1141 0.931 . S
C1171 C1168 1.357 . S
C1171 C1172 1.312 . S
C1172 H1143 0.930 . S
C1172 C1167 1.261 . S
C1172 C1171 1.312 . S
C1173 O1145 1.214 . S
C1173 O1153 1.234 . S
C1174 H1146 0.929 . S
C1174 C1177 1.391 . S
C1174 C1179 1.391 . S
C1175 H1147 0.929 . S
C1175 C1176 1.390 . S
C1175 N1178 1.391 . S
C1176 H1148 0.930 . S
C1176 C1175 1.390 . S
C1176 C1177 1.392 . S
C1177 H1149 0.929 . S
C1177 C1174 1.391 . S
C1177 C1176 1.392 . S
N1178 Co1122 2.257 . S
N1178 C1175 1.391 . S
N1178 C1179 1.388 . S
C1179 H1150 0.930 . S
C1179 C1174 1.391 . S
C1179 N1178 1.388 . S
Co1180 O1182 2.143 . S
Co1180 O1188 2.074 . S
Co1180 O1191 2.093 . S
Co1180 O1204 2.097 . S
Co1180 N1221 2.151 . S
Co1180 N1229 2.214 . S
Co1181 O1182 2.160 . S
Co1181 O1187 2.058 . S
Co1181 O1197 2.057 . S
Co1181 O1212 2.037 . S
Co1181 N1216 2.145 . S
Co1181 N1237 2.257 . S
O1182 Co1180 2.143 . S
O1182 Co1181 2.160 . S
C1183 O1184 1.278 . S
C1183 O1191 1.224 . S
O1184 C1183 1.278 . S
C1185 O1186 1.245 . S
C1185 O1197 1.232 . S
O1186 C1185 1.245 . S
O1187 Co1181 2.058 . S
O1187 C1213 1.269 . S
O1188 Co1180 2.074 . S
O1188 C1213 1.257 . S
H1189 C1214 0.930 . S
H1190 C1220 0.930 . S
O1191 Co1180 2.093 . S
O1191 C1183 1.224 . S
H1192 C1224 0.929 . S
H1193 C1226 0.930 . S
H1194 C1227 0.930 . S
H1195 C1225 0.929 . S
H1196 C1228 0.928 . S
O1197 Co1181 2.057 . S
O1197 C1185 1.232 . S
H1198 C1217 0.921 1_554 S
H1199 C1218 0.929 1_554 S
H1200 C1230 0.931 . S
H1201 C1222 0.929 . S
H1202 C1231 0.930 . S
H1203 C1223 0.931 . S
O1204 Co1180 2.097 . S
O1204 C1232 1.214 . S
H1205 C1233 0.929 . S
H1206 C1234 0.929 . S
H1207 C1235 0.930 . S
H1208 C1236 0.929 . S
H1209 C1238 0.930 . S
H1210 C1215 0.930 . S
H1211 C1219 0.930 . S
O1212 Co1181 2.037 . S
O1212 C1232 1.234 . S
C1213 O1187 1.269 . S
C1213 O1188 1.257 . S
C1214 H1189 0.930 . S
C1214 C1217 1.403 . S
C1214 C1219 1.418 . S
C1215 H1210 0.930 . S
C1215 C1218 1.404 . S
C1215 C1219 1.353 . S
N1216 Co1181 2.145 . S
N1216 C1217 1.390 1_554 S
N1216 C1218 1.334 1_554 S
C1217 H1198 0.921 1_556 S
C1217 C1214 1.403 . S
C1217 N1216 1.390 1_556 S
C1218 H1199 0.929 1_556 S
C1218 C1215 1.404 . S
C1218 N1216 1.334 1_556 S
C1219 H1211 0.930 . S
C1219 C1214 1.418 . S
C1219 C1215 1.353 . S
C1220 H1190 0.930 . S
C1220 N1221 1.330 . S
C1220 C1222 1.446 . S
N1221 Co1180 2.151 . S
N1221 C1220 1.330 . S
N1221 C1225 1.418 . S
C1222 H1201 0.929 . S
C1222 C1220 1.446 . S
C1222 C1223 1.332 . S
C1223 H1203 0.931 . S
C1223 C1222 1.332 . S
C1223 C1224 1.267 . S
C1224 H1192 0.929 . S
C1224 C1223 1.267 . S
C1224 C1225 1.251 . S
C1225 H1195 0.929 . S
C1225 N1221 1.418 . S
C1225 C1224 1.251 . S
C1226 H1193 0.930 . S
C1226 C1228 1.406 . S
C1226 C1231 1.261 . S
C1227 H1194 0.930 . S
C1227 N1229 1.325 . S
C1227 C1230 1.357 . S
C1228 H1196 0.928 . S
C1228 C1226 1.406 . S
C1228 N1229 1.261 . S
N1229 Co1180 2.214 . S
N1229 C1227 1.325 . S
N1229 C1228 1.261 . S
C1230 H1200 0.931 . S
C1230 C1227 1.357 . S
C1230 C1231 1.312 . S
C1231 H1202 0.930 . S
C1231 C1226 1.261 . S
C1231 C1230 1.312 . S
C1232 O1204 1.214 . S
C1232 O1212 1.234 . S
C1233 H1205 0.929 . S
C1233 C1236 1.391 . S
C1233 C1238 1.391 . S
C1234 H1206 0.929 . S
C1234 C1235 1.390 . S
C1234 N1237 1.391 . S
C1235 H1207 0.930 . S
C1235 C1234 1.390 . S
C1235 C1236 1.392 . S
C1236 H1208 0.929 . S
C1236 C1233 1.391 . S
C1236 C1235 1.392 . S
N1237 Co1181 2.257 . S
N1237 C1234 1.391 . S
N1237 C1238 1.388 . S
C1238 H1209 0.930 . S
C1238 C1233 1.391 . S
C1238 N1237 1.388 . S
Co1239 O1241 2.143 . S
Co1239 O1247 2.074 . S
Co1239 O1250 2.093 . S
Co1239 O1263 2.097 . S
Co1239 N1280 2.151 . S
Co1239 N1288 2.214 . S
Co1240 O1241 2.160 . S
Co1240 O1246 2.058 . S
Co1240 O1256 2.057 . S
Co1240 O1271 2.037 . S
Co1240 N1275 2.145 . S
Co1240 N1296 2.257 . S
O1241 Co1239 2.143 . S
O1241 Co1240 2.160 . S
C1242 O1243 1.278 . S
C1242 O1250 1.224 . S
O1243 C1242 1.278 . S
C1244 O1245 1.245 . S
C1244 O1256 1.232 . S
O1245 C1244 1.245 . S
O1246 Co1240 2.058 . S
O1246 C1272 1.269 . S
O1247 Co1239 2.074 . S
O1247 C1272 1.257 . S
H1248 C1273 0.930 . S
H1249 C1279 0.930 . S
O1250 Co1239 2.093 . S
O1250 C1242 1.224 . S
H1251 C1283 0.929 . S
H1252 C1285 0.930 . S
H1253 C1286 0.930 . S
H1254 C1284 0.929 . S
H1255 C1287 0.928 . S
O1256 Co1240 2.057 . S
O1256 C1244 1.232 . S
H1257 C1276 0.929 . S
H1258 C1277 0.929 . S
H1259 C1289 0.931 . S
H1260 C1281 0.929 . S
H1261 C1290 0.930 . S
H1262 C1282 0.931 . S
O1263 Co1239 2.097 . S
O1263 C1291 1.214 . S
H1264 C1292 0.929 . S
H1265 C1293 0.929 . S
H1266 C1294 0.930 . S
H1267 C1295 0.929 . S
H1268 C1297 0.930 . S
H1269 C1274 0.930 . S
H1270 C1278 0.930 . S
O1271 Co1240 2.037 . S
O1271 C1291 1.234 . S
C1272 O1246 1.269 . S
C1272 O1247 1.257 . S
C1273 H1248 0.930 . S
C1273 C1276 1.388 . S
C1273 C1278 1.418 . S
C1274 H1269 0.930 . S
C1274 C1277 1.404 . S
C1274 C1278 1.353 . S
N1275 Co1240 2.145 . S
N1275 C1276 1.397 . S
N1275 C1277 1.334 . S
C1276 H1257 0.929 . S
C1276 C1273 1.388 . S
C1276 N1275 1.397 . S
C1277 H1258 0.929 . S
C1277 C1274 1.404 . S
C1277 N1275 1.334 . S
C1278 H1270 0.930 . S
C1278 C1273 1.418 . S
C1278 C1274 1.353 . S
C1279 H1249 0.930 . S
C1279 N1280 1.330 . S
C1279 C1281 1.446 . S
N1280 Co1239 2.151 . S
N1280 C1279 1.330 . S
N1280 C1284 1.418 . S
C1281 H1260 0.929 . S
C1281 C1279 1.446 . S
C1281 C1282 1.332 . S
C1282 H1262 0.931 . S
C1282 C1281 1.332 . S
C1282 C1283 1.267 . S
C1283 H1251 0.929 . S
C1283 C1282 1.267 . S
C1283 C1284 1.251 . S
C1284 H1254 0.929 . S
C1284 N1280 1.418 . S
C1284 C1283 1.251 . S
C1285 H1252 0.930 . S
C1285 C1287 1.406 . S
C1285 C1290 1.261 . S
C1286 H1253 0.930 . S
C1286 N1288 1.325 . S
C1286 C1289 1.357 . S
C1287 H1255 0.928 . S
C1287 C1285 1.406 . S
C1287 N1288 1.261 . S
N1288 Co1239 2.214 . S
N1288 C1286 1.325 . S
N1288 C1287 1.261 . S
C1289 H1259 0.931 . S
C1289 C1286 1.357 . S
C1289 C1290 1.312 . S
C1290 H1261 0.930 . S
C1290 C1285 1.261 . S
C1290 C1289 1.312 . S
C1291 O1263 1.214 . S
C1291 O1271 1.234 . S
C1292 H1264 0.929 . S
C1292 C1295 1.391 . S
C1292 C1297 1.391 . S
C1293 H1265 0.929 . S
C1293 C1294 1.390 . S
C1293 N1296 1.391 . S
C1294 H1266 0.930 . S
C1294 C1293 1.390 . S
C1294 C1295 1.392 . S
C1295 H1267 0.929 . S
C1295 C1292 1.391 . S
C1295 C1294 1.392 . S
N1296 Co1240 2.257 . S
N1296 C1293 1.391 . S
N1296 C1297 1.388 . S
C1297 H1268 0.930 . S
C1297 C1292 1.391 . S
C1297 N1296 1.388 . S
Co1298 O1300 2.143 . S
Co1298 O1306 2.074 . S
Co1298 O1309 2.093 . S
Co1298 O1322 2.097 . S
Co1298 N1339 2.151 . S
Co1298 N1347 2.214 . S
Co1299 O1300 2.160 . S
Co1299 O1305 2.058 . S
Co1299 O1315 2.057 . S
Co1299 O1330 2.037 . S
Co1299 N1334 2.145 . S
Co1299 N1355 2.257 . S
O1300 Co1298 2.143 . S
O1300 Co1299 2.160 . S
C1301 O1302 1.278 . S
C1301 O1309 1.224 . S
O1302 C1301 1.278 . S
C1303 O1304 1.245 . S
C1303 O1315 1.232 . S
O1304 C1303 1.245 . S
O1305 Co1299 2.058 . S
O1305 C1331 1.269 . S
O1306 Co1298 2.074 . S
O1306 C1331 1.257 . S
H1307 C1332 0.930 . S
H1308 C1338 0.930 . S
O1309 Co1298 2.093 . S
O1309 C1301 1.224 . S
H1310 C1342 0.929 . S
H1311 C1344 0.930 . S
H1312 C1345 0.930 . S
H1313 C1343 0.929 . S
H1314 C1346 0.928 . S
O1315 Co1299 2.057 . S
O1315 C1303 1.232 . S
H1316 C1335 0.921 1_554 S
H1317 C1336 0.929 1_554 S
H1318 C1348 0.931 . S
H1319 C1340 0.929 . S
H1320 C1349 0.930 . S
H1321 C1341 0.931 . S
O1322 Co1298 2.097 . S
O1322 C1350 1.214 . S
H1323 C1351 0.929 . S
H1324 C1352 0.929 . S
H1325 C1353 0.930 . S
H1326 C1354 0.929 . S
H1327 C1356 0.930 . S
H1328 C1333 0.930 . S
H1329 C1337 0.930 . S
O1330 Co1299 2.037 . S
O1330 C1350 1.234 . S
C1331 O1305 1.269 . S
C1331 O1306 1.257 . S
C1332 H1307 0.930 . S
C1332 C1335 1.403 . S
C1332 C1337 1.418 . S
C1333 H1328 0.930 . S
C1333 C1336 1.404 . S
C1333 C1337 1.353 . S
N1334 Co1299 2.145 . S
N1334 C1335 1.390 1_554 S
N1334 C1336 1.334 1_554 S
C1335 H1316 0.921 1_556 S
C1335 C1332 1.403 . S
C1335 N1334 1.390 1_556 S
C1336 H1317 0.929 1_556 S
C1336 C1333 1.404 . S
C1336 N1334 1.334 1_556 S
C1337 H1329 0.930 . S
C1337 C1332 1.418 . S
C1337 C1333 1.353 . S
C1338 H1308 0.930 . S
C1338 N1339 1.330 . S
C1338 C1340 1.446 . S
N1339 Co1298 2.151 . S
N1339 C1338 1.330 . S
N1339 C1343 1.418 . S
C1340 H1319 0.929 . S
C1340 C1338 1.446 . S
C1340 C1341 1.332 . S
C1341 H1321 0.931 . S
C1341 C1340 1.332 . S
C1341 C1342 1.267 . S
C1342 H1310 0.929 . S
C1342 C1341 1.267 . S
C1342 C1343 1.251 . S
C1343 H1313 0.929 . S
C1343 N1339 1.418 . S
C1343 C1342 1.251 . S
C1344 H1311 0.930 . S
C1344 C1346 1.406 . S
C1344 C1349 1.261 . S
C1345 H1312 0.930 . S
C1345 N1347 1.325 . S
C1345 C1348 1.357 . S
C1346 H1314 0.928 . S
C1346 C1344 1.406 . S
C1346 N1347 1.261 . S
N1347 Co1298 2.214 . S
N1347 C1345 1.325 . S
N1347 C1346 1.261 . S
C1348 H1318 0.931 . S
C1348 C1345 1.357 . S
C1348 C1349 1.312 . S
C1349 H1320 0.930 . S
C1349 C1344 1.261 . S
C1349 C1348 1.312 . S
C1350 O1322 1.214 . S
C1350 O1330 1.234 . S
C1351 H1323 0.929 . S
C1351 C1354 1.391 . S
C1351 C1356 1.391 . S
C1352 H1324 0.929 . S
C1352 C1353 1.390 . S
C1352 N1355 1.391 . S
C1353 H1325 0.930 . S
C1353 C1352 1.390 . S
C1353 C1354 1.392 . S
C1354 H1326 0.929 . S
C1354 C1351 1.391 . S
C1354 C1353 1.392 . S
N1355 Co1299 2.257 . S
N1355 C1352 1.391 . S
N1355 C1356 1.388 . S
C1356 H1327 0.930 . S
C1356 C1351 1.391 . S
C1356 N1355 1.388 . S
Co1357 O1359 2.143 . S
Co1357 O1365 2.074 . S
Co1357 O1368 2.093 . S
Co1357 O1381 2.097 . S
Co1357 N1398 2.151 . S
Co1357 N1406 2.214 . S
Co1358 O1359 2.160 . S
Co1358 O1364 2.058 . S
Co1358 O1374 2.057 . S
Co1358 O1389 2.037 . S
Co1358 N1393 2.145 . S
Co1358 N1414 2.257 . S
O1359 Co1357 2.143 . S
O1359 Co1358 2.160 . S
C1360 O1361 1.278 . S
C1360 O1368 1.224 . S
O1361 C1360 1.278 . S
C1362 O1363 1.245 . S
C1362 O1374 1.232 . S
O1363 C1362 1.245 . S
O1364 Co1358 2.058 . S
O1364 C1390 1.269 . S
O1365 Co1357 2.074 . S
O1365 C1390 1.257 . S
H1366 C1391 0.930 . S
H1367 C1397 0.930 . S
O1368 Co1357 2.093 . S
O1368 C1360 1.224 . S
H1369 C1401 0.929 . S
H1370 C1403 0.930 . S
H1371 C1404 0.930 . S
H1372 C1402 0.929 . S
H1373 C1405 0.928 . S
O1374 Co1358 2.057 . S
O1374 C1362 1.232 . S
H1375 C1394 0.929 . S
H1376 C1395 0.929 . S
H1377 C1407 0.931 . S
H1378 C1399 0.929 . S
H1379 C1408 0.930 . S
H1380 C1400 0.931 . S
O1381 Co1357 2.097 . S
O1381 C1409 1.214 . S
H1382 C1410 0.929 . S
H1383 C1411 0.929 . S
H1384 C1412 0.930 . S
H1385 C1413 0.929 . S
H1386 C1415 0.930 . S
H1387 C1392 0.930 . S
H1388 C1396 0.930 . S
O1389 Co1358 2.037 . S
O1389 C1409 1.234 . S
C1390 O1364 1.269 . S
C1390 O1365 1.257 . S
C1391 H1366 0.930 . S
C1391 C1394 1.388 . S
C1391 C1396 1.418 . S
C1392 H1387 0.930 . S
C1392 C1395 1.404 . S
C1392 C1396 1.353 . S
N1393 Co1358 2.145 . S
N1393 C1394 1.397 . S
N1393 C1395 1.334 . S
C1394 H1375 0.929 . S
C1394 C1391 1.388 . S
C1394 N1393 1.397 . S
C1395 H1376 0.929 . S
C1395 C1392 1.404 . S
C1395 N1393 1.334 . S
C1396 H1388 0.930 . S
C1396 C1391 1.418 . S
C1396 C1392 1.353 . S
C1397 H1367 0.930 . S
C1397 N1398 1.330 . S
C1397 C1399 1.446 . S
N1398 Co1357 2.151 . S
N1398 C1397 1.330 . S
N1398 C1402 1.418 . S
C1399 H1378 0.929 . S
C1399 C1397 1.446 . S
C1399 C1400 1.332 . S
C1400 H1380 0.931 . S
C1400 C1399 1.332 . S
C1400 C1401 1.267 . S
C1401 H1369 0.929 . S
C1401 C1400 1.267 . S
C1401 C1402 1.251 . S
C1402 H1372 0.929 . S
C1402 N1398 1.418 . S
C1402 C1401 1.251 . S
C1403 H1370 0.930 . S
C1403 C1405 1.406 . S
C1403 C1408 1.261 . S
C1404 H1371 0.930 . S
C1404 N1406 1.325 . S
C1404 C1407 1.357 . S
C1405 H1373 0.928 . S
C1405 C1403 1.406 . S
C1405 N1406 1.261 . S
N1406 Co1357 2.214 . S
N1406 C1404 1.325 . S
N1406 C1405 1.261 . S
C1407 H1377 0.931 . S
C1407 C1404 1.357 . S
C1407 C1408 1.312 . S
C1408 H1379 0.930 . S
C1408 C1403 1.261 . S
C1408 C1407 1.312 . S
C1409 O1381 1.214 . S
C1409 O1389 1.234 . S
C1410 H1382 0.929 . S
C1410 C1413 1.391 . S
C1410 C1415 1.391 . S
C1411 H1383 0.929 . S
C1411 C1412 1.390 . S
C1411 N1414 1.391 . S
C1412 H1384 0.930 . S
C1412 C1411 1.390 . S
C1412 C1413 1.392 . S
C1413 H1385 0.929 . S
C1413 C1410 1.391 . S
C1413 C1412 1.392 . S
N1414 Co1358 2.257 . S
N1414 C1411 1.391 . S
N1414 C1415 1.388 . S
C1415 H1386 0.930 . S
C1415 C1410 1.391 . S
C1415 N1414 1.388 . S
H1416 C1424 0.950 . S
H1417 C1429 0.950 . S
H1418 C1426 0.950 . S
H1419 C1428 0.950 . S
H1420 C1430 0.950 . S
H1421 C1432 0.950 . S
H1422 C1434 0.950 . S
H1423 C1435 0.950 . S
C1424 H1416 0.950 . S
C1424 C1425 1.386 . S
C1424 C1426 1.391 . S
C1425 C1424 1.386 . S
C1425 C1429 1.393 . S
C1426 H1418 0.950 . S
C1426 C1424 1.391 . S
C1426 C1427 1.400 . S
C1427 C1426 1.400 . S
C1427 C1428 1.398 . S
C1427 C1433 1.491 . S
C1428 H1419 0.950 . S
C1428 C1427 1.398 . S
C1428 C1429 1.391 . S
C1429 H1417 0.950 . S
C1429 C1425 1.393 . S
C1429 C1428 1.391 . S
C1430 H1420 0.950 . S
C1430 C1431 1.386 . S
C1430 C1432 1.391 . S
C1431 C1430 1.386 . S
C1431 C1435 1.393 . S
C1432 H1421 0.950 . S
C1432 C1430 1.391 . S
C1432 C1433 1.400 . S
C1433 C1427 1.491 . S
C1433 C1432 1.400 . S
C1433 C1434 1.398 . S
C1434 H1422 0.950 . S
C1434 C1433 1.398 . S
C1434 C1435 1.391 . S
C1435 H1423 0.950 . S
C1435 C1431 1.393 . S
C1435 C1434 1.391 . S
H1436 C1444 0.950 . S
H1437 C1449 0.950 . S
H1438 C1446 0.950 . S
H1439 C1448 0.950 . S
H1440 C1450 0.950 . S
H1441 C1452 0.950 . S
H1442 C1454 0.950 . S
H1443 C1455 0.950 . S
C1444 H1436 0.950 . S
C1444 C1445 1.386 . S
C1444 C1446 1.391 . S
C1445 C1444 1.386 . S
C1445 C1449 1.393 . S
C1446 H1438 0.950 . S
C1446 C1444 1.391 . S
C1446 C1447 1.400 . S
C1447 C1446 1.400 . S
C1447 C1448 1.398 . S
C1447 C1453 1.491 . S
C1448 H1439 0.950 . S
C1448 C1447 1.398 . S
C1448 C1449 1.391 . S
C1449 H1437 0.950 . S
C1449 C1445 1.393 . S
C1449 C1448 1.391 . S
C1450 H1440 0.950 . S
C1450 C1451 1.386 . S
C1450 C1452 1.391 . S
C1451 C1450 1.386 . S
C1451 C1455 1.393 . S
C1452 H1441 0.950 . S
C1452 C1450 1.391 . S
C1452 C1453 1.400 . S
C1453 C1447 1.491 . S
C1453 C1452 1.400 . S
C1453 C1454 1.398 . S
C1454 H1442 0.950 . S
C1454 C1453 1.398 . S
C1454 C1455 1.391 . S
C1455 H1443 0.950 . S
C1455 C1451 1.393 . S
C1455 C1454 1.391 . S
H1456 C1464 0.950 . S
H1457 C1469 0.950 . S
H1458 C1466 0.950 . S
H1459 C1468 0.950 . S
H1460 C1470 0.950 . S
H1461 C1472 0.950 . S
H1462 C1474 0.950 . S
H1463 C1475 0.950 . S
C1464 H1456 0.950 . S
C1464 C1465 1.386 . S
C1464 C1466 1.391 . S
C1465 C1464 1.386 . S
C1465 C1469 1.393 . S
C1466 H1458 0.950 . S
C1466 C1464 1.391 . S
C1466 C1467 1.400 . S
C1467 C1466 1.400 . S
C1467 C1468 1.398 . S
C1467 C1473 1.491 . S
C1468 H1459 0.950 . S
C1468 C1467 1.398 . S
C1468 C1469 1.391 . S
C1469 H1457 0.950 . S
C1469 C1465 1.393 . S
C1469 C1468 1.391 . S
C1470 H1460 0.950 . S
C1470 C1471 1.386 . S
C1470 C1472 1.391 . S
C1471 C1470 1.386 . S
C1471 C1475 1.393 . S
C1472 H1461 0.950 . S
C1472 C1470 1.391 . S
C1472 C1473 1.400 . S
C1473 C1467 1.491 . S
C1473 C1472 1.400 . S
C1473 C1474 1.398 . S
C1474 H1462 0.950 . S
C1474 C1473 1.398 . S
C1474 C1475 1.391 . S
C1475 H1463 0.950 . S
C1475 C1471 1.393 . S
C1475 C1474 1.391 . S
H1476 C1484 0.950 . S
H1477 C1489 0.950 . S
H1478 C1486 0.950 . S
H1479 C1488 0.950 . S
H1480 C1490 0.950 . S
H1481 C1492 0.950 . S
H1482 C1494 0.950 . S
H1483 C1495 0.950 . S
C1484 H1476 0.950 . S
C1484 C1485 1.386 . S
C1484 C1486 1.391 . S
C1485 C1484 1.386 . S
C1485 C1489 1.393 . S
C1486 H1478 0.950 . S
C1486 C1484 1.391 . S
C1486 C1487 1.400 . S
C1487 C1486 1.400 . S
C1487 C1488 1.398 . S
C1487 C1493 1.491 . S
C1488 H1479 0.950 . S
C1488 C1487 1.398 . S
C1488 C1489 1.391 . S
C1489 H1477 0.950 . S
C1489 C1485 1.393 . S
C1489 C1488 1.391 . S
C1490 H1480 0.950 . S
C1490 C1491 1.386 . S
C1490 C1492 1.391 . S
C1491 C1490 1.386 . S
C1491 C1495 1.393 . S
C1492 H1481 0.950 . S
C1492 C1490 1.391 . S
C1492 C1493 1.400 . S
C1493 C1487 1.491 . S
C1493 C1492 1.400 . S
C1493 C1494 1.398 . S
C1494 H1482 0.950 . S
C1494 C1493 1.398 . S
C1494 C1495 1.391 . S
C1495 H1483 0.950 . S
C1495 C1491 1.393 . S
C1495 C1494 1.391 . S
H1496 C1504 0.950 . S
H1497 C1509 0.950 . S
H1498 C1506 0.950 . S
H1499 C1508 0.950 . S
H1500 C1510 0.950 . S
H1501 C1512 0.950 . S
H1502 C1514 0.950 . S
H1503 C1515 0.950 . S
C1504 H1496 0.950 . S
C1504 C1505 1.386 . S
C1504 C1506 1.391 . S
C1505 C1504 1.386 . S
C1505 C1509 1.393 . S
C1506 H1498 0.950 . S
C1506 C1504 1.391 . S
C1506 C1507 1.400 . S
C1507 C1506 1.400 . S
C1507 C1508 1.398 . S
C1507 C1513 1.491 . S
C1508 H1499 0.950 . S
C1508 C1507 1.398 . S
C1508 C1509 1.391 . S
C1509 H1497 0.950 . S
C1509 C1505 1.393 . S
C1509 C1508 1.391 . S
C1510 H1500 0.950 . S
C1510 C1511 1.386 . S
C1510 C1512 1.391 . S
C1511 C1510 1.386 . S
C1511 C1515 1.393 . S
C1512 H1501 0.950 . S
C1512 C1510 1.391 . S
C1512 C1513 1.400 . S
C1513 C1507 1.491 . S
C1513 C1512 1.400 . S
C1513 C1514 1.398 . S
C1514 H1502 0.950 . S
C1514 C1513 1.398 . S
C1514 C1515 1.391 . S
C1515 H1503 0.950 . S
C1515 C1511 1.393 . S
C1515 C1514 1.391 . S
H1516 C1524 0.950 . S
H1517 C1529 0.950 . S
H1518 C1526 0.950 . S
H1519 C1528 0.950 . S
H1520 C1530 0.950 . S
H1521 C1532 0.950 . S
H1522 C1534 0.950 . S
H1523 C1535 0.950 . S
C1524 H1516 0.950 . S
C1524 C1525 1.386 . S
C1524 C1526 1.391 . S
C1525 C1524 1.386 . S
C1525 C1529 1.393 . S
C1526 H1518 0.950 . S
C1526 C1524 1.391 . S
C1526 C1527 1.400 . S
C1527 C1526 1.400 . S
C1527 C1528 1.398 . S
C1527 C1533 1.491 . S
C1528 H1519 0.950 . S
C1528 C1527 1.398 . S
C1528 C1529 1.391 . S
C1529 H1517 0.950 . S
C1529 C1525 1.393 . S
C1529 C1528 1.391 . S
C1530 H1520 0.950 . S
C1530 C1531 1.386 . S
C1530 C1532 1.391 . S
C1531 C1530 1.386 . S
C1531 C1535 1.393 . S
C1532 H1521 0.950 . S
C1532 C1530 1.391 . S
C1532 C1533 1.400 . S
C1533 C1527 1.491 . S
C1533 C1532 1.400 . S
C1533 C1534 1.398 . S
C1534 H1522 0.950 . S
C1534 C1533 1.398 . S
C1534 C1535 1.391 . S
C1535 H1523 0.950 . S
C1535 C1531 1.393 . S
C1535 C1534 1.391 . S
H1536 C1544 0.950 . S
H1537 C1549 0.950 . S
H1538 C1546 0.950 . S
H1539 C1548 0.950 . S
H1540 C1550 0.950 . S
H1541 C1552 0.950 . S
H1542 C1554 0.950 . S
H1543 C1555 0.950 . S
C1544 H1536 0.950 . S
C1544 C1545 1.386 . S
C1544 C1546 1.391 . S
C1545 C1544 1.386 . S
C1545 C1549 1.393 . S
C1546 H1538 0.950 . S
C1546 C1544 1.391 . S
C1546 C1547 1.400 . S
C1547 C1546 1.400 . S
C1547 C1548 1.398 . S
C1547 C1553 1.491 . S
C1548 H1539 0.950 . S
C1548 C1547 1.398 . S
C1548 C1549 1.391 . S
C1549 H1537 0.950 . S
C1549 C1545 1.393 . S
C1549 C1548 1.391 . S
C1550 H1540 0.950 . S
C1550 C1551 1.386 . S
C1550 C1552 1.391 . S
C1551 C1550 1.386 . S
C1551 C1555 1.393 . S
C1552 H1541 0.950 . S
C1552 C1550 1.391 . S
C1552 C1553 1.400 . S
C1553 C1547 1.491 . S
C1553 C1552 1.400 . S
C1553 C1554 1.398 . S
C1554 H1542 0.950 . S
C1554 C1553 1.398 . S
C1554 C1555 1.391 . S
C1555 H1543 0.950 . S
C1555 C1551 1.393 . S
C1555 C1554 1.391 . S
H1556 C1564 0.950 . S
H1557 C1569 0.950 . S
H1558 C1566 0.950 . S
H1559 C1568 0.950 . S
H1560 C1570 0.950 . S
H1561 C1572 0.950 . S
H1562 C1574 0.950 . S
H1563 C1575 0.950 . S
C1564 H1556 0.950 . S
C1564 C1565 1.386 . S
C1564 C1566 1.391 . S
C1565 C1564 1.386 . S
C1565 C1569 1.393 . S
C1566 H1558 0.950 . S
C1566 C1564 1.391 . S
C1566 C1567 1.400 . S
C1567 C1566 1.400 . S
C1567 C1568 1.398 . S
C1567 C1573 1.491 . S
C1568 H1559 0.950 . S
C1568 C1567 1.398 . S
C1568 C1569 1.391 . S
C1569 H1557 0.950 . S
C1569 C1565 1.393 . S
C1569 C1568 1.391 . S
C1570 H1560 0.950 . S
C1570 C1571 1.386 . S
C1570 C1572 1.391 . S
C1571 C1570 1.386 . S
C1571 C1575 1.393 . S
C1572 H1561 0.950 . S
C1572 C1570 1.391 . S
C1572 C1573 1.400 . S
C1573 C1567 1.491 . S
C1573 C1572 1.400 . S
C1573 C1574 1.398 . S
C1574 H1562 0.950 . S
C1574 C1573 1.398 . S
C1574 C1575 1.391 . S
C1575 H1563 0.950 . S
C1575 C1571 1.393 . S
C1575 C1574 1.391 . S
H1576 C1584 0.950 . S
H1577 C1589 0.950 . S
H1578 C1586 0.950 . S
H1579 C1588 0.950 . S
H1580 C1590 0.950 . S
H1581 C1592 0.950 . S
H1582 C1594 0.950 . S
H1583 C1595 0.950 . S
C1584 H1576 0.950 . S
C1584 C1585 1.386 . S
C1584 C1586 1.391 . S
C1585 C1584 1.386 . S
C1585 C1589 1.393 . S
C1586 H1578 0.950 . S
C1586 C1584 1.391 . S
C1586 C1587 1.400 . S
C1587 C1586 1.400 . S
C1587 C1588 1.398 . S
C1587 C1593 1.491 . S
C1588 H1579 0.950 . S
C1588 C1587 1.398 . S
C1588 C1589 1.391 . S
C1589 H1577 0.950 . S
C1589 C1585 1.393 . S
C1589 C1588 1.391 . S
C1590 H1580 0.950 . S
C1590 C1591 1.386 . S
C1590 C1592 1.391 . S
C1591 C1590 1.386 . S
C1591 C1595 1.393 . S
C1592 H1581 0.950 . S
C1592 C1590 1.391 . S
C1592 C1593 1.400 . S
C1593 C1587 1.491 . S
C1593 C1592 1.400 . S
C1593 C1594 1.398 . S
C1594 H1582 0.950 . S
C1594 C1593 1.398 . S
C1594 C1595 1.391 . S
C1595 H1583 0.950 . S
C1595 C1591 1.393 . S
C1595 C1594 1.391 . S
H1596 C1604 0.950 . S
H1597 C1609 0.950 . S
H1598 C1606 0.950 . S
H1599 C1608 0.950 . S
H1600 C1610 0.950 . S
H1601 C1612 0.950 . S
H1602 C1614 0.950 . S
H1603 C1615 0.950 . S
C1604 H1596 0.950 . S
C1604 C1605 1.386 . S
C1604 C1606 1.391 . S
C1605 C1604 1.386 . S
C1605 C1609 1.393 . S
C1606 H1598 0.950 . S
C1606 C1604 1.391 . S
C1606 C1607 1.400 . S
C1607 C1606 1.400 . S
C1607 C1608 1.398 . S
C1607 C1613 1.491 . S
C1608 H1599 0.950 . S
C1608 C1607 1.398 . S
C1608 C1609 1.391 . S
C1609 H1597 0.950 . S
C1609 C1605 1.393 . S
C1609 C1608 1.391 . S
C1610 H1600 0.950 . S
C1610 C1611 1.386 . S
C1610 C1612 1.391 . S
C1611 C1610 1.386 . S
C1611 C1615 1.393 . S
C1612 H1601 0.950 . S
C1612 C1610 1.391 . S
C1612 C1613 1.400 . S
C1613 C1607 1.491 . S
C1613 C1612 1.400 . S
C1613 C1614 1.398 . S
C1614 H1602 0.950 . S
C1614 C1613 1.398 . S
C1614 C1615 1.391 . S
C1615 H1603 0.950 . S
C1615 C1611 1.393 . S
C1615 C1614 1.391 . S
H1616 C1624 0.950 . S
H1617 C1629 0.950 . S
H1618 C1626 0.950 . S
H1619 C1628 0.950 . S
H1620 C1630 0.950 . S
H1621 C1632 0.950 . S
H1622 C1634 0.950 . S
H1623 C1635 0.950 . S
C1624 H1616 0.950 . S
C1624 C1625 1.386 . S
C1624 C1626 1.391 . S
C1625 C1624 1.386 . S
C1625 C1629 1.393 . S
C1626 H1618 0.950 . S
C1626 C1624 1.391 . S
C1626 C1627 1.400 . S
C1627 C1626 1.400 . S
C1627 C1628 1.398 . S
C1627 C1633 1.491 . S
C1628 H1619 0.950 . S
C1628 C1627 1.398 . S
C1628 C1629 1.391 . S
C1629 H1617 0.950 . S
C1629 C1625 1.393 . S
C1629 C1628 1.391 . S
C1630 H1620 0.950 . S
C1630 C1631 1.386 . S
C1630 C1632 1.391 . S
C1631 C1630 1.386 . S
C1631 C1635 1.393 . S
C1632 H1621 0.950 . S
C1632 C1630 1.391 . S
C1632 C1633 1.400 . S
C1633 C1627 1.491 . S
C1633 C1632 1.400 . S
C1633 C1634 1.398 . S
C1634 H1622 0.950 . S
C1634 C1633 1.398 . S
C1634 C1635 1.391 . S
C1635 H1623 0.950 . S
C1635 C1631 1.393 . S
C1635 C1634 1.391 . S
H1636 C1644 0.950 . S
H1637 C1649 0.950 . S
H1638 C1646 0.950 . S
H1639 C1648 0.950 . S
H1640 C1650 0.950 . S
H1641 C1652 0.950 . S
H1642 C1654 0.950 . S
H1643 C1655 0.950 . S
C1644 H1636 0.950 . S
C1644 C1645 1.386 . S
C1644 C1646 1.391 . S
C1645 C1644 1.386 . S
C1645 C1649 1.393 . S
C1646 H1638 0.950 . S
C1646 C1644 1.391 . S
C1646 C1647 1.400 . S
C1647 C1646 1.400 . S
C1647 C1648 1.398 . S
C1647 C1653 1.491 . S
C1648 H1639 0.950 . S
C1648 C1647 1.398 . S
C1648 C1649 1.391 . S
C1649 H1637 0.950 . S
C1649 C1645 1.393 . S
C1649 C1648 1.391 . S
C1650 H1640 0.950 . S
C1650 C1651 1.386 . S
C1650 C1652 1.391 . S
C1651 C1650 1.386 . S
C1651 C1655 1.393 . S
C1652 H1641 0.950 . S
C1652 C1650 1.391 . S
C1652 C1653 1.400 . S
C1653 C1647 1.491 . S
C1653 C1652 1.400 . S
C1653 C1654 1.398 . S
C1654 H1642 0.950 . S
C1654 C1653 1.398 . S
C1654 C1655 1.391 . S
C1655 H1643 0.950 . S
C1655 C1651 1.393 . S
C1655 C1654 1.391 . S
H1656 C1664 0.950 . S
H1657 C1669 0.950 . S
H1658 C1666 0.950 . S
H1659 C1668 0.950 . S
H1660 C1670 0.950 . S
H1661 C1672 0.950 . S
H1662 C1674 0.950 . S
H1663 C1675 0.950 . S
C1664 H1656 0.950 . S
C1664 C1665 1.386 . S
C1664 C1666 1.391 1_556 S
C1665 C1664 1.386 . S
C1665 C1669 1.393 . S
C1666 H1658 0.950 . S
C1666 C1664 1.391 1_554 S
C1666 C1667 1.400 1_554 S
C1667 C1666 1.400 1_556 S
C1667 C1668 1.398 . S
C1667 C1673 1.491 1_556 S
C1668 H1659 0.950 . S
C1668 C1667 1.398 . S
C1668 C1669 1.391 . S
C1669 H1657 0.950 . S
C1669 C1665 1.393 . S
C1669 C1668 1.391 . S
C1670 H1660 0.950 . S
C1670 C1671 1.386 . S
C1670 C1672 1.391 1_554 S
C1671 C1670 1.386 . S
C1671 C1675 1.393 . S
C1672 H1661 0.950 . S
C1672 C1670 1.391 1_556 S
C1672 C1673 1.400 1_556 S
C1673 C1667 1.491 1_554 S
C1673 C1672 1.400 1_554 S
C1673 C1674 1.398 . S
C1674 H1662 0.950 . S
C1674 C1673 1.398 . S
C1674 C1675 1.391 . S
C1675 H1663 0.950 . S
C1675 C1671 1.393 . S
C1675 C1674 1.391 . S
H1676 C1684 0.950 . S
H1677 C1689 0.950 . S
H1678 C1686 0.950 . S
H1679 C1688 0.950 . S
H1680 C1690 0.950 . S
H1681 C1692 0.950 . S
H1682 C1694 0.950 . S
H1683 C1695 0.950 . S
C1684 H1676 0.950 . S
C1684 C1685 1.386 . S
C1684 C1686 1.391 . S
C1685 C1684 1.386 . S
C1685 C1689 1.393 . S
C1686 H1678 0.950 . S
C1686 C1684 1.391 . S
C1686 C1687 1.400 . S
C1687 C1686 1.400 . S
C1687 C1688 1.398 . S
C1687 C1693 1.491 . S
C1688 H1679 0.950 . S
C1688 C1687 1.398 . S
C1688 C1689 1.391 . S
C1689 H1677 0.950 . S
C1689 C1685 1.393 . S
C1689 C1688 1.391 . S
C1690 H1680 0.950 . S
C1690 C1691 1.386 . S
C1690 C1692 1.391 . S
C1691 C1690 1.386 . S
C1691 C1695 1.393 . S
C1692 H1681 0.950 . S
C1692 C1690 1.391 . S
C1692 C1693 1.400 . S
C1693 C1687 1.491 . S
C1693 C1692 1.400 . S
C1693 C1694 1.398 . S
C1694 H1682 0.950 . S
C1694 C1693 1.398 . S
C1694 C1695 1.391 . S
C1695 H1683 0.950 . S
C1695 C1691 1.393 . S
C1695 C1694 1.391 . S
H1696 C1704 0.950 . S
H1697 C1709 0.950 . S
H1698 C1706 0.966 . S
H1699 C1708 0.950 . S
H1700 C1710 0.950 . S
H1701 C1712 0.967 . S
H1702 C1714 0.950 . S
H1703 C1715 0.950 . S
C1704 H1696 0.950 . S
C1704 C1705 1.386 . S
C1704 C1706 1.381 1_554 S
C1705 C1704 1.386 . S
C1705 C1709 1.393 . S
C1706 H1698 0.966 . S
C1706 C1704 1.381 1_556 S
C1706 C1707 1.395 1_556 S
C1707 C1706 1.395 1_554 S
C1707 C1708 1.398 . S
C1707 C1713 1.491 1_554 S
C1708 H1699 0.950 . S
C1708 C1707 1.398 . S
C1708 C1709 1.391 . S
C1709 H1697 0.950 . S
C1709 C1705 1.393 . S
C1709 C1708 1.391 . S
C1710 H1700 0.950 . S
C1710 C1711 1.386 . S
C1710 C1712 1.381 1_556 S
C1711 C1710 1.386 . S
C1711 C1715 1.393 . S
C1712 H1701 0.967 . S
C1712 C1710 1.381 1_554 S
C1712 C1713 1.395 1_554 S
C1713 C1707 1.491 1_556 S
C1713 C1712 1.395 1_556 S
C1713 C1714 1.398 . S
C1714 H1702 0.950 . S
C1714 C1713 1.398 . S
C1714 C1715 1.391 . S
C1715 H1703 0.950 . S
C1715 C1711 1.393 . S
C1715 C1714 1.391 . S
H1716 C1724 0.950 . S
H1717 C1729 0.950 . S
H1718 C1726 0.950 . S
H1719 C1728 0.950 . S
H1720 C1730 0.950 . S
H1721 C1732 0.950 . S
H1722 C1734 0.950 . S
H1723 C1735 0.950 . S
C1724 H1716 0.950 . S
C1724 C1725 1.386 . S
C1724 C1726 1.391 . S
C1725 C1724 1.386 . S
C1725 C1729 1.393 . S
C1726 H1718 0.950 . S
C1726 C1724 1.391 . S
C1726 C1727 1.400 . S
C1727 C1726 1.400 . S
C1727 C1728 1.398 . S
C1727 C1733 1.491 . S
C1728 H1719 0.950 . S
C1728 C1727 1.398 . S
C1728 C1729 1.391 . S
C1729 H1717 0.950 . S
C1729 C1725 1.393 . S
C1729 C1728 1.391 . S
C1730 H1720 0.950 . S
C1730 C1731 1.386 . S
C1730 C1732 1.391 . S
C1731 C1730 1.386 . S
C1731 C1735 1.393 . S
C1732 H1721 0.950 . S
C1732 C1730 1.391 . S
C1732 C1733 1.400 . S
C1733 C1727 1.491 . S
C1733 C1732 1.400 . S
C1733 C1734 1.398 . S
C1734 H1722 0.950 . S
C1734 C1733 1.398 . S
C1734 C1735 1.391 . S
C1735 H1723 0.950 . S
C1735 C1731 1.393 . S
C1735 C1734 1.391 . S
H1736 C1744 0.950 . S
H1737 C1749 0.950 . S
H1738 C1746 0.950 . S
H1739 C1748 0.950 . S
H1740 C1750 0.950 . S
H1741 C1752 0.950 . S
H1742 C1754 0.950 . S
H1743 C1755 0.950 . S
C1744 H1736 0.950 . S
C1744 C1745 1.386 . S
C1744 C1746 1.391 . S
C1745 C1744 1.386 . S
C1745 C1749 1.393 . S
C1746 H1738 0.950 . S
C1746 C1744 1.391 . S
C1746 C1747 1.400 . S
C1747 C1746 1.400 . S
C1747 C1748 1.398 . S
C1747 C1753 1.491 1_556 S
C1748 H1739 0.950 . S
C1748 C1747 1.398 . S
C1748 C1749 1.391 . S
C1749 H1737 0.950 . S
C1749 C1745 1.393 . S
C1749 C1748 1.391 . S
C1750 H1740 0.950 . S
C1750 C1751 1.386 . S
C1750 C1752 1.391 . S
C1751 C1750 1.386 . S
C1751 C1755 1.393 . S
C1752 H1741 0.950 . S
C1752 C1750 1.391 . S
C1752 C1753 1.400 . S
C1753 C1747 1.491 1_554 S
C1753 C1752 1.400 . S
C1753 C1754 1.398 . S
C1754 H1742 0.950 . S
C1754 C1753 1.398 . S
C1754 C1755 1.391 . S
C1755 H1743 0.950 . S
C1755 C1751 1.393 . S
C1755 C1754 1.391 . S
H1756 C1764 0.950 . S
H1757 C1769 0.950 . S
H1758 C1766 0.950 . S
H1759 C1768 0.950 . S
H1760 C1770 0.950 . S
H1761 C1772 0.950 . S
H1762 C1774 0.950 . S
H1763 C1775 0.950 . S
C1764 H1756 0.950 . S
C1764 C1765 1.386 . S
C1764 C1766 1.391 . S
C1765 C1764 1.386 . S
C1765 C1769 1.393 . S
C1766 H1758 0.950 . S
C1766 C1764 1.391 . S
C1766 C1767 1.400 . S
C1767 C1766 1.400 . S
C1767 C1768 1.398 . S
C1767 C1773 1.491 . S
C1768 H1759 0.950 . S
C1768 C1767 1.398 . S
C1768 C1769 1.391 . S
C1769 H1757 0.950 . S
C1769 C1765 1.393 . S
C1769 C1768 1.391 . S
C1770 H1760 0.950 . S
C1770 C1771 1.386 . S
C1770 C1772 1.391 . S
C1771 C1770 1.386 . S
C1771 C1775 1.393 . S
C1772 H1761 0.950 . S
C1772 C1770 1.391 . S
C1772 C1773 1.400 . S
C1773 C1767 1.491 . S
C1773 C1772 1.400 . S
C1773 C1774 1.398 . S
C1774 H1762 0.950 . S
C1774 C1773 1.398 . S
C1774 C1775 1.391 . S
C1775 H1763 0.950 . S
C1775 C1771 1.393 . S
C1775 C1774 1.391 . S
H1776 C1784 0.950 . S
H1777 C1789 0.950 . S
H1778 C1786 0.950 . S
H1779 C1788 0.950 . S
H1780 C1790 0.950 . S
H1781 C1792 0.950 . S
H1782 C1794 0.950 . S
H1783 C1795 0.950 . S
C1784 H1776 0.950 . S
C1784 C1785 1.386 . S
C1784 C1786 1.391 1_554 S
C1785 C1784 1.386 . S
C1785 C1789 1.393 . S
C1786 H1778 0.950 . S
C1786 C1784 1.391 1_556 S
C1786 C1787 1.400 1_556 S
C1787 C1786 1.400 1_554 S
C1787 C1788 1.398 . S
C1787 C1793 1.491 1_554 S
C1788 H1779 0.950 . S
C1788 C1787 1.398 . S
C1788 C1789 1.391 . S
C1789 H1777 0.950 . S
C1789 C1785 1.393 . S
C1789 C1788 1.391 . S
C1790 H1780 0.950 . S
C1790 C1791 1.386 . S
C1790 C1792 1.391 1_556 S
C1791 C1790 1.386 . S
C1791 C1795 1.393 . S
C1792 H1781 0.950 . S
C1792 C1790 1.391 1_554 S
C1792 C1793 1.400 1_554 S
C1793 C1787 1.491 1_556 S
C1793 C1792 1.400 1_556 S
C1793 C1794 1.398 . S
C1794 H1782 0.950 . S
C1794 C1793 1.398 . S
C1794 C1795 1.391 . S
C1795 H1783 0.950 . S
C1795 C1791 1.393 . S
C1795 C1794 1.391 . S
H1796 C1804 0.950 . S
H1797 C1809 0.950 . S
H1798 C1806 0.950 . S
H1799 C1808 0.950 . S
H1800 C1810 0.950 . S
H1801 C1812 0.950 . S
H1802 C1814 0.950 . S
H1803 C1815 0.950 . S
C1804 H1796 0.950 . S
C1804 C1805 1.386 . S
C1804 C1806 1.391 . S
C1805 C1804 1.386 . S
C1805 C1809 1.393 . S
C1806 H1798 0.950 . S
C1806 C1804 1.391 . S
C1806 C1807 1.400 . S
C1807 C1806 1.400 . S
C1807 C1808 1.398 . S
C1807 C1813 1.491 . S
C1808 H1799 0.950 . S
C1808 C1807 1.398 . S
C1808 C1809 1.391 . S
C1809 H1797 0.950 . S
C1809 C1805 1.393 . S
C1809 C1808 1.391 . S
C1810 H1800 0.950 . S
C1810 C1811 1.386 . S
C1810 C1812 1.391 . S
C1811 C1810 1.386 . S
C1811 C1815 1.393 . S
C1812 H1801 0.950 . S
C1812 C1810 1.391 . S
C1812 C1813 1.400 . S
C1813 C1807 1.491 . S
C1813 C1812 1.400 . S
C1813 C1814 1.398 . S
C1814 H1802 0.950 . S
C1814 C1813 1.398 . S
C1814 C1815 1.391 . S
C1815 H1803 0.950 . S
C1815 C1811 1.393 . S
C1815 C1814 1.391 . S
H1816 C1824 0.950 . S
H1817 C1829 0.950 . S
H1818 C1826 0.949 . S
H1819 C1828 0.950 . S
H1820 C1830 0.950 . S
H1821 C1832 0.948 . S
H1822 C1834 0.950 . S
H1823 C1835 0.950 . S
C1824 H1816 0.950 . S
C1824 C1825 1.386 . S
C1824 C1826 1.391 . S
C1825 C1824 1.386 . S
C1825 C1829 1.393 . S
C1826 H1818 0.949 . S
C1826 C1824 1.391 . S
C1826 C1827 1.400 . S
C1827 C1826 1.400 . S
C1827 C1828 1.398 . S
C1827 C1833 1.491 1_556 S
C1828 H1819 0.950 . S
C1828 C1827 1.398 . S
C1828 C1829 1.391 . S
C1829 H1817 0.950 . S
C1829 C1825 1.393 . S
C1829 C1828 1.391 . S
C1830 H1820 0.950 . S
C1830 C1831 1.386 . S
C1830 C1832 1.391 . S
C1831 C1830 1.386 . S
C1831 C1835 1.393 . S
C1832 H1821 0.948 . S
C1832 C1830 1.391 . S
C1832 C1833 1.400 . S
C1833 C1827 1.491 1_554 S
C1833 C1832 1.400 . S
C1833 C1834 1.398 . S
C1834 H1822 0.950 . S
C1834 C1833 1.398 . S
C1834 C1835 1.391 . S
C1835 H1823 0.950 . S
C1835 C1831 1.393 . S
C1835 C1834 1.391 . S
H1836 C1844 0.950 . S
H1837 C1849 0.950 . S
H1838 C1846 0.950 . S
H1839 C1848 0.950 . S
H1840 C1850 0.950 . S
H1841 C1852 0.950 . S
H1842 C1854 0.950 . S
H1843 C1855 0.950 . S
C1844 H1836 0.950 . S
C1844 C1845 1.386 . S
C1844 C1846 1.391 . S
C1845 C1844 1.386 . S
C1845 C1849 1.393 . S
C1846 H1838 0.950 . S
C1846 C1844 1.391 . S
C1846 C1847 1.400 . S
C1847 C1846 1.400 . S
C1847 C1848 1.398 . S
C1847 C1853 1.491 . S
C1848 H1839 0.950 . S
C1848 C1847 1.398 . S
C1848 C1849 1.391 . S
C1849 H1837 0.950 . S
C1849 C1845 1.393 . S
C1849 C1848 1.391 . S
C1850 H1840 0.950 . S
C1850 C1851 1.386 . S
C1850 C1852 1.391 . S
C1851 C1850 1.386 . S
C1851 C1855 1.393 . S
C1852 H1841 0.950 . S
C1852 C1850 1.391 . S
C1852 C1853 1.400 . S
C1853 C1847 1.491 . S
C1853 C1852 1.400 . S
C1853 C1854 1.398 . S
C1854 H1842 0.950 . S
C1854 C1853 1.398 . S
C1854 C1855 1.391 . S
C1855 H1843 0.950 . S
C1855 C1851 1.393 . S
C1855 C1854 1.391 . S
H1856 C1864 0.950 . S
H1857 C1869 0.950 . S
H1858 C1866 0.950 1_554 S
H1859 C1868 0.950 . S
H1860 C1870 0.950 . S
H1861 C1872 0.950 1_556 S
H1862 C1874 0.950 . S
H1863 C1875 0.950 . S
C1864 H1856 0.950 . S
C1864 C1865 1.386 . S
C1864 C1866 1.391 . S
C1865 C1864 1.386 . S
C1865 C1869 1.393 . S
C1866 H1858 0.950 1_556 S
C1866 C1864 1.391 . S
C1866 C1867 1.400 . S
C1867 C1866 1.400 . S
C1867 C1868 1.398 . S
C1867 C1873 1.491 1_556 S
C1868 H1859 0.950 . S
C1868 C1867 1.398 . S
C1868 C1869 1.391 . S
C1869 H1857 0.950 . S
C1869 C1865 1.393 . S
C1869 C1868 1.391 . S
C1870 H1860 0.950 . S
C1870 C1871 1.386 . S
C1870 C1872 1.391 . S
C1871 C1870 1.386 . S
C1871 C1875 1.393 . S
C1872 H1861 0.950 1_554 S
C1872 C1870 1.391 . S
C1872 C1873 1.400 . S
C1873 C1867 1.491 1_554 S
C1873 C1872 1.400 . S
C1873 C1874 1.398 . S
C1874 H1862 0.950 . S
C1874 C1873 1.398 . S
C1874 C1875 1.391 . S
C1875 H1863 0.950 . S
C1875 C1871 1.393 . S
C1875 C1874 1.391 . S
H1876 C1884 0.950 . S
H1877 C1889 0.950 . S
H1878 C1886 0.950 . S
H1879 C1888 0.950 . S
H1880 C1890 0.950 . S
H1881 C1892 0.950 . S
H1882 C1894 0.950 . S
H1883 C1895 0.950 . S
C1884 H1876 0.950 . S
C1884 C1885 1.386 . S
C1884 C1886 1.391 . S
C1885 C1884 1.386 . S
C1885 C1889 1.393 . S
C1886 H1878 0.950 . S
C1886 C1884 1.391 . S
C1886 C1887 1.400 . S
C1887 C1886 1.400 . S
C1887 C1888 1.398 . S
C1887 C1893 1.491 . S
C1888 H1879 0.950 . S
C1888 C1887 1.398 . S
C1888 C1889 1.391 . S
C1889 H1877 0.950 . S
C1889 C1885 1.393 . S
C1889 C1888 1.391 . S
C1890 H1880 0.950 . S
C1890 C1891 1.386 . S
C1890 C1892 1.391 . S
C1891 C1890 1.386 . S
C1891 C1895 1.393 . S
C1892 H1881 0.950 . S
C1892 C1890 1.391 . S
C1892 C1893 1.400 . S
C1893 C1887 1.491 . S
C1893 C1892 1.400 . S
C1893 C1894 1.398 . S
C1894 H1882 0.950 . S
C1894 C1893 1.398 . S
C1894 C1895 1.391 . S
C1895 H1883 0.950 . S
C1895 C1891 1.393 . S
C1895 C1894 1.391 . S
H1896 C1904 0.950 . S
H1897 C1909 0.950 . S
H1898 C1906 0.950 . S
H1899 C1908 0.950 . S
H1900 C1910 0.950 . S
H1901 C1912 0.950 . S
H1902 C1914 0.950 . S
H1903 C1915 0.950 . S
C1904 H1896 0.950 . S
C1904 C1905 1.386 . S
C1904 C1906 1.391 . S
C1905 C1904 1.386 . S
C1905 C1909 1.393 . S
C1906 H1898 0.950 . S
C1906 C1904 1.391 . S
C1906 C1907 1.400 . S
C1907 C1906 1.400 . S
C1907 C1908 1.398 . S
C1907 C1913 1.491 . S
C1908 H1899 0.950 . S
C1908 C1907 1.398 . S
C1908 C1909 1.391 . S
C1909 H1897 0.950 . S
C1909 C1905 1.393 . S
C1909 C1908 1.391 . S
C1910 H1900 0.950 . S
C1910 C1911 1.386 . S
C1910 C1912 1.391 . S
C1911 C1910 1.386 . S
C1911 C1915 1.393 . S
C1912 H1901 0.950 . S
C1912 C1910 1.391 . S
C1912 C1913 1.400 . S
C1913 C1907 1.491 . S
C1913 C1912 1.400 . S
C1913 C1914 1.398 . S
C1914 H1902 0.950 . S
C1914 C1913 1.398 . S
C1914 C1915 1.391 . S
C1915 H1903 0.950 . S
C1915 C1911 1.393 . S
C1915 C1914 1.391 . S
H1916 C1924 0.950 . S
H1917 C1929 0.950 . S
H1918 C1926 0.950 . S
H1919 C1928 0.950 . S
H1920 C1930 0.950 . S
H1921 C1932 0.950 . S
H1922 C1934 0.950 . S
H1923 C1935 0.950 . S
C1924 H1916 0.950 . S
C1924 C1925 1.386 . S
C1924 C1926 1.391 . S
C1925 C1924 1.386 . S
C1925 C1929 1.393 . S
C1926 H1918 0.950 . S
C1926 C1924 1.391 . S
C1926 C1927 1.400 . S
C1927 C1926 1.400 . S
C1927 C1928 1.398 . S
C1927 C1933 1.491 1_455 S
C1928 H1919 0.950 . S
C1928 C1927 1.398 . S
C1928 C1929 1.391 . S
C1929 H1917 0.950 . S
C1929 C1925 1.393 . S
C1929 C1928 1.391 . S
C1930 H1920 0.950 . S
C1930 C1931 1.386 . S
C1930 C1932 1.391 . S
C1931 C1930 1.386 . S
C1931 C1935 1.393 . S
C1932 H1921 0.950 . S
C1932 C1930 1.391 . S
C1932 C1933 1.400 . S
C1933 C1927 1.491 1_655 S
C1933 C1932 1.400 . S
C1933 C1934 1.398 . S
C1934 H1922 0.950 . S
C1934 C1933 1.398 . S
C1934 C1935 1.391 . S
C1935 H1923 0.950 . S
C1935 C1931 1.393 . S
C1935 C1934 1.391 . S
H1936 C1944 0.950 . S
H1937 C1949 0.950 . S
H1938 C1946 0.950 . S
H1939 C1948 0.950 . S
H1940 C1950 0.950 . S
H1941 C1952 0.950 . S
H1942 C1954 0.950 . S
H1943 C1955 0.950 . S
C1944 H1936 0.950 . S
C1944 C1945 1.386 . S
C1944 C1946 1.391 . S
C1945 C1944 1.386 . S
C1945 C1949 1.393 . S
C1946 H1938 0.950 . S
C1946 C1944 1.391 . S
C1946 C1947 1.400 . S
C1947 C1946 1.400 . S
C1947 C1948 1.398 . S
C1947 C1953 1.491 1_565 S
C1948 H1939 0.950 . S
C1948 C1947 1.398 . S
C1948 C1949 1.391 . S
C1949 H1937 0.950 . S
C1949 C1945 1.393 . S
C1949 C1948 1.391 . S
C1950 H1940 0.950 . S
C1950 C1951 1.386 . S
C1950 C1952 1.391 . S
C1951 C1950 1.386 . S
C1951 C1955 1.393 . S
C1952 H1941 0.950 . S
C1952 C1950 1.391 . S
C1952 C1953 1.400 . S
C1953 C1947 1.491 1_545 S
C1953 C1952 1.400 . S
C1953 C1954 1.398 . S
C1954 H1942 0.950 . S
C1954 C1953 1.398 . S
C1954 C1955 1.391 . S
C1955 H1943 0.950 . S
C1955 C1951 1.393 . S
C1955 C1954 1.391 . S
H1956 C1964 0.950 . S
H1957 C1969 0.950 . S
H1958 C1966 0.950 . S
H1959 C1968 0.950 . S
H1960 C1970 0.950 . S
H1961 C1972 0.950 . S
H1962 C1974 0.950 . S
H1963 C1975 0.950 . S
C1964 H1956 0.950 . S
C1964 C1965 1.386 . S
C1964 C1966 1.391 . S
C1965 C1964 1.386 . S
C1965 C1969 1.393 . S
C1966 H1958 0.950 . S
C1966 C1964 1.391 . S
C1966 C1967 1.400 . S
C1967 C1966 1.400 . S
C1967 C1968 1.398 . S
C1967 C1973 1.491 . S
C1968 H1959 0.950 . S
C1968 C1967 1.398 . S
C1968 C1969 1.391 . S
C1969 H1957 0.950 . S
C1969 C1965 1.393 . S
C1969 C1968 1.391 . S
C1970 H1960 0.950 . S
C1970 C1971 1.386 . S
C1970 C1972 1.391 . S
C1971 C1970 1.386 . S
C1971 C1975 1.393 . S
C1972 H1961 0.950 . S
C1972 C1970 1.391 . S
C1972 C1973 1.400 . S
C1973 C1967 1.491 . S
C1973 C1972 1.400 . S
C1973 C1974 1.398 . S
C1974 H1962 0.950 . S
C1974 C1973 1.398 . S
C1974 C1975 1.391 . S
C1975 H1963 0.950 . S
C1975 C1971 1.393 . S
C1975 C1974 1.391 . S
H1976 C1984 0.950 . S
H1977 C1989 0.950 . S
H1978 C1986 0.950 . S
H1979 C1988 0.950 . S
H1980 C1990 0.950 . S
H1981 C1992 0.950 . S
H1982 C1994 0.950 . S
H1983 C1995 0.950 . S
C1984 H1976 0.950 . S
C1984 C1985 1.386 . S
C1984 C1986 1.391 . S
C1985 C1984 1.386 . S
C1985 C1989 1.393 . S
C1986 H1978 0.950 . S
C1986 C1984 1.391 . S
C1986 C1987 1.400 . S
C1987 C1986 1.400 . S
C1987 C1988 1.398 . S
C1987 C1993 1.491 1_655 S
C1988 H1979 0.950 . S
C1988 C1987 1.398 . S
C1988 C1989 1.391 . S
C1989 H1977 0.950 . S
C1989 C1985 1.393 . S
C1989 C1988 1.391 . S
C1990 H1980 0.950 . S
C1990 C1991 1.386 . S
C1990 C1992 1.391 . S
C1991 C1990 1.386 . S
C1991 C1995 1.393 . S
C1992 H1981 0.950 . S
C1992 C1990 1.391 . S
C1992 C1993 1.400 . S
C1993 C1987 1.491 1_455 S
C1993 C1992 1.400 . S
C1993 C1994 1.398 . S
C1994 H1982 0.950 . S
C1994 C1993 1.398 . S
C1994 C1995 1.391 . S
C1995 H1983 0.950 . S
C1995 C1991 1.393 . S
C1995 C1994 1.391 . S
H1996 C2004 0.950 . S
H1997 C2009 0.950 . S
H1998 C2006 0.950 . S
H1999 C2008 0.950 . S
H2000 C2010 0.950 . S
H2001 C2012 0.950 . S
H2002 C2014 0.950 . S
H2003 C2015 0.950 . S
C2004 H1996 0.950 . S
C2004 C2005 1.386 . S
C2004 C2006 1.391 . S
C2005 C2004 1.386 . S
C2005 C2009 1.393 . S
C2006 H1998 0.950 . S
C2006 C2004 1.391 . S
C2006 C2007 1.400 . S
C2007 C2006 1.400 . S
C2007 C2008 1.398 . S
C2007 C2013 1.491 1_545 S
C2008 H1999 0.950 . S
C2008 C2007 1.398 . S
C2008 C2009 1.391 . S
C2009 H1997 0.950 . S
C2009 C2005 1.393 . S
C2009 C2008 1.391 . S
C2010 H2000 0.950 . S
C2010 C2011 1.386 . S
C2010 C2012 1.391 . S
C2011 C2010 1.386 . S
C2011 C2015 1.393 . S
C2012 H2001 0.950 . S
C2012 C2010 1.391 . S
C2012 C2013 1.400 . S
C2013 C2007 1.491 1_565 S
C2013 C2012 1.400 . S
C2013 C2014 1.398 . S
C2014 H2002 0.950 . S
C2014 C2013 1.398 . S
C2014 C2015 1.391 . S
C2015 H2003 0.950 . S
C2015 C2011 1.393 . S
C2015 C2014 1.391 . S
H2016 C2024 0.950 . S
H2017 C2029 0.950 . S
H2018 C2026 0.950 . S
H2019 C2028 0.950 . S
H2020 C2030 0.950 . S
H2021 C2032 0.950 . S
H2022 C2034 0.950 . S
H2023 C2035 0.950 . S
C2024 H2016 0.950 . S
C2024 C2025 1.386 . S
C2024 C2026 1.391 . S
C2025 C2024 1.386 . S
C2025 C2029 1.393 . S
C2026 H2018 0.950 . S
C2026 C2024 1.391 . S
C2026 C2027 1.400 . S
C2027 C2026 1.400 . S
C2027 C2028 1.398 . S
C2027 C2033 1.491 . S
C2028 H2019 0.950 . S
C2028 C2027 1.398 . S
C2028 C2029 1.391 . S
C2029 H2017 0.950 . S
C2029 C2025 1.393 . S
C2029 C2028 1.391 . S
C2030 H2020 0.950 . S
C2030 C2031 1.386 . S
C2030 C2032 1.391 . S
C2031 C2030 1.386 . S
C2031 C2035 1.393 . S
C2032 H2021 0.950 . S
C2032 C2030 1.391 . S
C2032 C2033 1.400 . S
C2033 C2027 1.491 . S
C2033 C2032 1.400 . S
C2033 C2034 1.398 . S
C2034 H2022 0.950 . S
C2034 C2033 1.398 . S
C2034 C2035 1.391 . S
C2035 H2023 0.950 . S
C2035 C2031 1.393 . S
C2035 C2034 1.391 . S
H2036 C2044 0.950 . S
H2037 C2049 0.950 . S
H2038 C2046 0.950 . S
H2039 C2048 0.950 . S
H2040 C2050 0.950 . S
H2041 C2052 0.950 . S
H2042 C2054 0.950 . S
H2043 C2055 0.950 . S
C2044 H2036 0.950 . S
C2044 C2045 1.386 . S
C2044 C2046 1.391 . S
C2045 C2044 1.386 . S
C2045 C2049 1.393 . S
C2046 H2038 0.950 . S
C2046 C2044 1.391 . S
C2046 C2047 1.400 . S
C2047 C2046 1.400 . S
C2047 C2048 1.398 . S
C2047 C2053 1.491 1_655 S
C2048 H2039 0.950 . S
C2048 C2047 1.398 . S
C2048 C2049 1.391 . S
C2049 H2037 0.950 . S
C2049 C2045 1.393 . S
C2049 C2048 1.391 . S
C2050 H2040 0.950 . S
C2050 C2051 1.386 . S
C2050 C2052 1.391 . S
C2051 C2050 1.386 . S
C2051 C2055 1.393 . S
C2052 H2041 0.950 . S
C2052 C2050 1.391 . S
C2052 C2053 1.400 . S
C2053 C2047 1.491 1_455 S
C2053 C2052 1.400 . S
C2053 C2054 1.398 . S
C2054 H2042 0.950 . S
C2054 C2053 1.398 . S
C2054 C2055 1.391 . S
C2055 H2043 0.950 . S
C2055 C2051 1.393 . S
C2055 C2054 1.391 . S
H2056 C2064 0.950 . S
H2057 C2069 0.950 . S
H2058 C2066 0.950 . S
H2059 C2068 0.950 . S
H2060 C2070 0.950 . S
H2061 C2072 0.950 . S
H2062 C2074 0.950 . S
H2063 C2075 0.950 . S
C2064 H2056 0.950 . S
C2064 C2065 1.386 . S
C2064 C2066 1.391 . S
C2065 C2064 1.386 . S
C2065 C2069 1.393 . S
C2066 H2058 0.950 . S
C2066 C2064 1.391 . S
C2066 C2067 1.400 . S
C2067 C2066 1.400 . S
C2067 C2068 1.398 . S
C2067 C2073 1.491 1_545 S
C2068 H2059 0.950 . S
C2068 C2067 1.398 . S
C2068 C2069 1.391 . S
C2069 H2057 0.950 . S
C2069 C2065 1.393 . S
C2069 C2068 1.391 . S
C2070 H2060 0.950 . S
C2070 C2071 1.386 . S
C2070 C2072 1.391 . S
C2071 C2070 1.386 . S
C2071 C2075 1.393 . S
C2072 H2061 0.950 . S
C2072 C2070 1.391 . S
C2072 C2073 1.400 . S
C2073 C2067 1.491 1_565 S
C2073 C2072 1.400 . S
C2073 C2074 1.398 . S
C2074 H2062 0.950 . S
C2074 C2073 1.398 . S
C2074 C2075 1.391 . S
C2075 H2063 0.950 . S
C2075 C2071 1.393 . S
C2075 C2074 1.391 . S
H2076 C2084 0.950 . S
H2077 C2089 0.950 . S
H2078 C2086 0.950 . S
H2079 C2088 0.950 . S
H2080 C2090 0.950 . S
H2081 C2092 0.950 . S
H2082 C2094 0.950 . S
H2083 C2095 0.950 . S
C2084 H2076 0.950 . S
C2084 C2085 1.386 . S
C2084 C2086 1.391 . S
C2085 C2084 1.386 . S
C2085 C2089 1.393 . S
C2086 H2078 0.950 . S
C2086 C2084 1.391 . S
C2086 C2087 1.400 . S
C2087 C2086 1.400 . S
C2087 C2088 1.398 . S
C2087 C2093 1.491 . S
C2088 H2079 0.950 . S
C2088 C2087 1.398 . S
C2088 C2089 1.391 . S
C2089 H2077 0.950 . S
C2089 C2085 1.393 . S
C2089 C2088 1.391 . S
C2090 H2080 0.950 . S
C2090 C2091 1.386 . S
C2090 C2092 1.391 . S
C2091 C2090 1.386 . S
C2091 C2095 1.393 . S
C2092 H2081 0.950 . S
C2092 C2090 1.391 . S
C2092 C2093 1.400 . S
C2093 C2087 1.491 . S
C2093 C2092 1.400 . S
C2093 C2094 1.398 . S
C2094 H2082 0.950 . S
C2094 C2093 1.398 . S
C2094 C2095 1.391 . S
C2095 H2083 0.950 . S
C2095 C2091 1.393 . S
C2095 C2094 1.391 . S
H2096 C2104 0.950 . S
H2097 C2109 0.950 . S
H2098 C2106 0.950 . S
H2099 C2108 0.950 . S
H2100 C2110 0.950 . S
H2101 C2112 0.950 . S
H2102 C2114 0.950 . S
H2103 C2115 0.950 . S
C2104 H2096 0.950 . S
C2104 C2105 1.386 . S
C2104 C2106 1.391 . S
C2105 C2104 1.386 . S
C2105 C2109 1.393 . S
C2106 H2098 0.950 . S
C2106 C2104 1.391 . S
C2106 C2107 1.400 . S
C2107 C2106 1.400 . S
C2107 C2108 1.398 . S
C2107 C2113 1.491 1_455 S
C2108 H2099 0.950 . S
C2108 C2107 1.398 . S
C2108 C2109 1.391 . S
C2109 H2097 0.950 . S
C2109 C2105 1.393 . S
C2109 C2108 1.391 . S
C2110 H2100 0.950 . S
C2110 C2111 1.386 . S
C2110 C2112 1.391 . S
C2111 C2110 1.386 . S
C2111 C2115 1.393 . S
C2112 H2101 0.950 . S
C2112 C2110 1.391 . S
C2112 C2113 1.400 . S
C2113 C2107 1.491 1_655 S
C2113 C2112 1.400 . S
C2113 C2114 1.398 . S
C2114 H2102 0.950 . S
C2114 C2113 1.398 . S
C2114 C2115 1.391 . S
C2115 H2103 0.950 . S
C2115 C2111 1.393 . S
C2115 C2114 1.391 . S
H2116 C2124 0.950 . S
H2117 C2129 0.950 . S
H2118 C2126 0.950 . S
H2119 C2128 0.950 . S
H2120 C2130 0.950 . S
H2121 C2132 0.950 . S
H2122 C2134 0.950 . S
H2123 C2135 0.950 . S
C2124 H2116 0.950 . S
C2124 C2125 1.386 . S
C2124 C2126 1.391 . S
C2125 C2124 1.386 . S
C2125 C2129 1.393 . S
C2126 H2118 0.950 . S
C2126 C2124 1.391 . S
C2126 C2127 1.400 . S
C2127 C2126 1.400 . S
C2127 C2128 1.398 . S
C2127 C2133 1.491 1_565 S
C2128 H2119 0.950 . S
C2128 C2127 1.398 . S
C2128 C2129 1.391 . S
C2129 H2117 0.950 . S
C2129 C2125 1.393 . S
C2129 C2128 1.391 . S
C2130 H2120 0.950 . S
C2130 C2131 1.386 . S
C2130 C2132 1.391 . S
C2131 C2130 1.386 . S
C2131 C2135 1.393 . S
C2132 H2121 0.950 . S
C2132 C2130 1.391 . S
C2132 C2133 1.400 . S
C2133 C2127 1.491 1_545 S
C2133 C2132 1.400 . S
C2133 C2134 1.398 . S
C2134 H2122 0.950 . S
C2134 C2133 1.398 . S
C2134 C2135 1.391 . S
C2135 H2123 0.950 . S
C2135 C2131 1.393 . S
C2135 C2134 1.391 . S
H2136 C2144 0.950 . S
H2137 C2149 0.952 . S
H2138 C2146 0.950 . S
H2139 C2148 0.950 . S
H2140 C2150 0.950 . S
H2141 C2152 0.950 . S
H2142 C2154 0.950 . S
H2143 C2155 0.952 . S
C2144 H2136 0.950 . S
C2144 C2145 1.386 . S
C2144 C2146 1.391 . S
C2145 C2144 1.386 . S
C2145 C2149 1.393 . S
C2146 H2138 0.950 . S
C2146 C2144 1.391 . S
C2146 C2147 1.400 . S
C2147 C2146 1.400 . S
C2147 C2148 1.398 1_556 S
C2147 C2153 1.491 1_556 S
C2148 H2139 0.950 . S
C2148 C2147 1.398 1_554 S
C2148 C2149 1.391 1_554 S
C2149 H2137 0.952 . S
C2149 C2145 1.393 . S
C2149 C2148 1.391 1_556 S
C2150 H2140 0.950 . S
C2150 C2151 1.386 . S
C2150 C2152 1.391 . S
C2151 C2150 1.386 . S
C2151 C2155 1.393 . S
C2152 H2141 0.950 . S
C2152 C2150 1.391 . S
C2152 C2153 1.400 . S
C2153 C2147 1.491 1_554 S
C2153 C2152 1.400 . S
C2153 C2154 1.398 1_554 S
C2154 H2142 0.950 . S
C2154 C2153 1.398 1_556 S
C2154 C2155 1.391 1_556 S
C2155 H2143 0.952 . S
C2155 C2151 1.393 . S
C2155 C2154 1.391 1_554 S
H2156 C2164 0.950 . S
H2157 C2169 0.950 . S
H2158 C2166 0.950 . S
H2159 C2168 0.950 . S
H2160 C2170 0.950 . S
H2161 C2172 0.950 . S
H2162 C2174 0.950 . S
H2163 C2175 0.950 . S
C2164 H2156 0.950 . S
C2164 C2165 1.386 . S
C2164 C2166 1.391 . S
C2165 C2164 1.386 . S
C2165 C2169 1.393 . S
C2166 H2158 0.950 . S
C2166 C2164 1.391 . S
C2166 C2167 1.400 . S
C2167 C2166 1.400 . S
C2167 C2168 1.398 . S
C2167 C2173 1.491 . S
C2168 H2159 0.950 . S
C2168 C2167 1.398 . S
C2168 C2169 1.391 . S
C2169 H2157 0.950 . S
C2169 C2165 1.393 . S
C2169 C2168 1.391 . S
C2170 H2160 0.950 . S
C2170 C2171 1.386 . S
C2170 C2172 1.391 . S
C2171 C2170 1.386 . S
C2171 C2175 1.393 . S
C2172 H2161 0.950 . S
C2172 C2170 1.391 . S
C2172 C2173 1.400 . S
C2173 C2167 1.491 . S
C2173 C2172 1.400 . S
C2173 C2174 1.398 . S
C2174 H2162 0.950 . S
C2174 C2173 1.398 . S
C2174 C2175 1.391 . S
C2175 H2163 0.950 . S
C2175 C2171 1.393 . S
C2175 C2174 1.391 . S
H2176 C2184 0.950 . S
H2177 C2189 0.925 1_554 S
H2178 C2186 0.950 . S
H2179 C2188 0.950 . S
H2180 C2190 0.950 . S
H2181 C2192 0.950 . S
H2182 C2194 0.950 . S
H2183 C2195 0.925 1_556 S
C2184 H2176 0.950 . S
C2184 C2185 1.386 . S
C2184 C2186 1.391 . S
C2185 C2184 1.386 . S
C2185 C2189 1.434 . S
C2186 H2178 0.950 . S
C2186 C2184 1.391 . S
C2186 C2187 1.400 . S
C2187 C2186 1.400 . S
C2187 C2188 1.398 1_556 S
C2187 C2193 1.491 1_556 S
C2188 H2179 0.950 . S
C2188 C2187 1.398 1_554 S
C2188 C2189 1.375 1_554 S
C2189 H2177 0.925 1_556 S
C2189 C2185 1.434 . S
C2189 C2188 1.375 1_556 S
C2190 H2180 0.950 . S
C2190 C2191 1.386 . S
C2190 C2192 1.391 . S
C2191 C2190 1.386 . S
C2191 C2195 1.434 . S
C2192 H2181 0.950 . S
C2192 C2190 1.391 . S
C2192 C2193 1.400 . S
C2193 C2187 1.491 1_554 S
C2193 C2192 1.400 . S
C2193 C2194 1.398 1_554 S
C2194 H2182 0.950 . S
C2194 C2193 1.398 1_556 S
C2194 C2195 1.375 1_556 S
C2195 H2183 0.925 1_554 S
C2195 C2191 1.434 . S
C2195 C2194 1.375 1_554 S
H2196 C2204 0.950 . S
H2197 C2209 0.950 . S
H2198 C2206 0.950 . S
H2199 C2208 0.950 . S
H2200 C2210 0.950 . S
H2201 C2212 0.950 . S
H2202 C2214 0.950 . S
H2203 C2215 0.950 . S
C2204 H2196 0.950 . S
C2204 C2205 1.386 . S
C2204 C2206 1.391 . S
C2205 C2204 1.386 . S
C2205 C2209 1.393 . S
C2206 H2198 0.950 . S
C2206 C2204 1.391 . S
C2206 C2207 1.400 . S
C2207 C2206 1.400 . S
C2207 C2208 1.398 . S
C2207 C2213 1.491 . S
C2208 H2199 0.950 . S
C2208 C2207 1.398 . S
C2208 C2209 1.391 . S
C2209 H2197 0.950 . S
C2209 C2205 1.393 . S
C2209 C2208 1.391 . S
C2210 H2200 0.950 . S
C2210 C2211 1.386 . S
C2210 C2212 1.391 . S
C2211 C2210 1.386 . S
C2211 C2215 1.393 . S
C2212 H2201 0.950 . S
C2212 C2210 1.391 . S
C2212 C2213 1.400 . S
C2213 C2207 1.491 . S
C2213 C2212 1.400 . S
C2213 C2214 1.398 . S
C2214 H2202 0.950 . S
C2214 C2213 1.398 . S
C2214 C2215 1.391 . S
C2215 H2203 0.950 . S
C2215 C2211 1.393 . S
C2215 C2214 1.391 . S
H2216 C2224 0.950 . S
H2217 C2229 0.925 1_554 S
H2218 C2226 0.950 . S
H2219 C2228 0.950 . S
H2220 C2230 0.950 . S
H2221 C2232 0.950 . S
H2222 C2234 0.950 . S
H2223 C2235 0.925 1_556 S
C2224 H2216 0.950 . S
C2224 C2225 1.386 . S
C2224 C2226 1.391 . S
C2225 C2224 1.386 . S
C2225 C2229 1.435 . S
C2226 H2218 0.950 . S
C2226 C2224 1.391 . S
C2226 C2227 1.400 . S
C2227 C2226 1.400 . S
C2227 C2228 1.398 1_556 S
C2227 C2233 1.491 1_556 S
C2228 H2219 0.950 . S
C2228 C2227 1.398 1_554 S
C2228 C2229 1.374 1_554 S
C2229 H2217 0.925 1_556 S
C2229 C2225 1.435 . S
C2229 C2228 1.374 1_556 S
C2230 H2220 0.950 . S
C2230 C2231 1.386 . S
C2230 C2232 1.391 . S
C2231 C2230 1.386 . S
C2231 C2235 1.435 . S
C2232 H2221 0.950 . S
C2232 C2230 1.391 . S
C2232 C2233 1.400 . S
C2233 C2227 1.491 1_554 S
C2233 C2232 1.400 . S
C2233 C2234 1.398 1_554 S
C2234 H2222 0.950 . S
C2234 C2233 1.398 1_556 S
C2234 C2235 1.374 1_556 S
C2235 H2223 0.925 1_554 S
C2235 C2231 1.435 . S
C2235 C2234 1.374 1_554 S
H2236 C2244 0.950 . S
H2237 C2249 0.950 . S
H2238 C2246 0.950 . S
H2239 C2248 0.950 . S
H2240 C2250 0.950 . S
H2241 C2252 0.950 . S
H2242 C2254 0.950 . S
H2243 C2255 0.950 . S
C2244 H2236 0.950 . S
C2244 C2245 1.386 . S
C2244 C2246 1.391 . S
C2245 C2244 1.386 . S
C2245 C2249 1.393 . S
C2246 H2238 0.950 . S
C2246 C2244 1.391 . S
C2246 C2247 1.400 . S
C2247 C2246 1.400 . S
C2247 C2248 1.398 . S
C2247 C2253 1.491 . S
C2248 H2239 0.950 . S
C2248 C2247 1.398 . S
C2248 C2249 1.391 . S
C2249 H2237 0.950 . S
C2249 C2245 1.393 . S
C2249 C2248 1.391 . S
C2250 H2240 0.950 . S
C2250 C2251 1.386 . S
C2250 C2252 1.391 . S
C2251 C2250 1.386 . S
C2251 C2255 1.393 . S
C2252 H2241 0.950 . S
C2252 C2250 1.391 . S
C2252 C2253 1.400 . S
C2253 C2247 1.491 . S
C2253 C2252 1.400 . S
C2253 C2254 1.398 . S
C2254 H2242 0.950 . S
C2254 C2253 1.398 . S
C2254 C2255 1.391 . S
C2255 H2243 0.950 . S
C2255 C2251 1.393 . S
C2255 C2254 1.391 . S
H2256 C2264 0.950 1_556 S
H2257 C2269 0.950 . S
H2258 C2266 0.950 . S
H2259 C2268 0.950 . S
H2260 C2270 0.950 1_554 S
H2261 C2272 0.950 . S
H2262 C2274 0.950 . S
H2263 C2275 0.950 . S
C2264 H2256 0.950 1_554 S
C2264 C2265 1.386 . S
C2264 C2266 1.391 1_554 S
C2265 C2264 1.386 . S
C2265 C2269 1.393 . S
C2266 H2258 0.950 . S
C2266 C2264 1.391 1_556 S
C2266 C2267 1.400 1_556 S
C2267 C2266 1.400 1_554 S
C2267 C2268 1.398 . S
C2267 C2273 1.491 1_554 S
C2268 H2259 0.950 . S
C2268 C2267 1.398 . S
C2268 C2269 1.391 . S
C2269 H2257 0.950 . S
C2269 C2265 1.393 . S
C2269 C2268 1.391 . S
C2270 H2260 0.950 1_556 S
C2270 C2271 1.386 . S
C2270 C2272 1.391 1_556 S
C2271 C2270 1.386 . S
C2271 C2275 1.393 . S
C2272 H2261 0.950 . S
C2272 C2270 1.391 1_554 S
C2272 C2273 1.400 1_554 S
C2273 C2267 1.491 1_556 S
C2273 C2272 1.400 1_556 S
C2273 C2274 1.398 . S
C2274 H2262 0.950 . S
C2274 C2273 1.398 . S
C2274 C2275 1.391 . S
C2275 H2263 0.950 . S
C2275 C2271 1.393 . S
C2275 C2274 1.391 . S
H2276 C2284 0.950 . S
H2277 C2289 0.950 . S
H2278 C2286 0.950 . S
H2279 C2288 0.950 . S
H2280 C2290 0.950 . S
H2281 C2292 0.950 . S
H2282 C2294 0.950 . S
H2283 C2295 0.950 . S
C2284 H2276 0.950 . S
C2284 C2285 1.386 . S
C2284 C2286 1.391 . S
C2285 C2284 1.386 . S
C2285 C2289 1.393 . S
C2286 H2278 0.950 . S
C2286 C2284 1.391 . S
C2286 C2287 1.400 . S
C2287 C2286 1.400 . S
C2287 C2288 1.398 . S
C2287 C2293 1.491 . S
C2288 H2279 0.950 . S
C2288 C2287 1.398 . S
C2288 C2289 1.391 . S
C2289 H2277 0.950 . S
C2289 C2285 1.393 . S
C2289 C2288 1.391 . S
C2290 H2280 0.950 . S
C2290 C2291 1.386 . S
C2290 C2292 1.391 . S
C2291 C2290 1.386 . S
C2291 C2295 1.393 . S
C2292 H2281 0.950 . S
C2292 C2290 1.391 . S
C2292 C2293 1.400 . S
C2293 C2287 1.491 . S
C2293 C2292 1.400 . S
C2293 C2294 1.398 . S
C2294 H2282 0.950 . S
C2294 C2293 1.398 . S
C2294 C2295 1.391 . S
C2295 H2283 0.950 . S
C2295 C2291 1.393 . S
C2295 C2294 1.391 . S
H2296 C2304 0.950 . S
H2297 C2309 0.950 1_556 S
H2298 C2306 0.950 . S
H2299 C2308 0.950 . S
H2300 C2310 0.950 . S
H2301 C2312 0.950 . S
H2302 C2314 0.950 . S
H2303 C2315 0.950 1_554 S
C2304 H2296 0.950 . S
C2304 C2305 1.386 . S
C2304 C2306 1.391 . S
C2305 C2304 1.386 . S
C2305 C2309 1.393 . S
C2306 H2298 0.950 . S
C2306 C2304 1.391 . S
C2306 C2307 1.400 . S
C2307 C2306 1.400 . S
C2307 C2308 1.398 1_554 S
C2307 C2313 1.491 1_554 S
C2308 H2299 0.950 . S
C2308 C2307 1.398 1_556 S
C2308 C2309 1.391 1_556 S
C2309 H2297 0.950 1_554 S
C2309 C2305 1.393 . S
C2309 C2308 1.391 1_554 S
C2310 H2300 0.950 . S
C2310 C2311 1.386 . S
C2310 C2312 1.391 . S
C2311 C2310 1.386 . S
C2311 C2315 1.393 . S
C2312 H2301 0.950 . S
C2312 C2310 1.391 . S
C2312 C2313 1.400 . S
C2313 C2307 1.491 1_556 S
C2313 C2312 1.400 . S
C2313 C2314 1.398 1_556 S
C2314 H2302 0.950 . S
C2314 C2313 1.398 1_554 S
C2314 C2315 1.391 1_554 S
C2315 H2303 0.950 1_556 S
C2315 C2311 1.393 . S
C2315 C2314 1.391 1_556 S
H2316 C2324 0.950 . S
H2317 C2329 0.950 . S
H2318 C2326 0.950 . S
H2319 C2328 0.950 . S
H2320 C2330 0.950 . S
H2321 C2332 0.950 . S
H2322 C2334 0.950 . S
H2323 C2335 0.950 . S
C2324 H2316 0.950 . S
C2324 C2325 1.386 . S
C2324 C2326 1.391 . S
C2325 C2324 1.386 . S
C2325 C2329 1.393 . S
C2326 H2318 0.950 . S
C2326 C2324 1.391 . S
C2326 C2327 1.400 . S
C2327 C2326 1.400 . S
C2327 C2328 1.398 . S
C2327 C2333 1.491 . S
C2328 H2319 0.950 . S
C2328 C2327 1.398 . S
C2328 C2329 1.391 . S
C2329 H2317 0.950 . S
C2329 C2325 1.393 . S
C2329 C2328 1.391 . S
C2330 H2320 0.950 . S
C2330 C2331 1.386 . S
C2330 C2332 1.391 . S
C2331 C2330 1.386 . S
C2331 C2335 1.393 . S
C2332 H2321 0.950 . S
C2332 C2330 1.391 . S
C2332 C2333 1.400 . S
C2333 C2327 1.491 . S
C2333 C2332 1.400 . S
C2333 C2334 1.398 . S
C2334 H2322 0.950 . S
C2334 C2333 1.398 . S
C2334 C2335 1.391 . S
C2335 H2323 0.950 . S
C2335 C2331 1.393 . S
C2335 C2334 1.391 . S
H2336 C2344 0.950 . S
H2337 C2349 0.950 1_554 S
H2338 C2346 0.950 . S
H2339 C2348 0.950 . S
H2340 C2350 0.950 . S
H2341 C2352 0.950 . S
H2342 C2354 0.950 . S
H2343 C2355 0.950 1_556 S
C2344 H2336 0.950 . S
C2344 C2345 1.386 . S
C2344 C2346 1.391 . S
C2345 C2344 1.386 . S
C2345 C2349 1.393 . S
C2346 H2338 0.950 . S
C2346 C2344 1.391 . S
C2346 C2347 1.400 . S
C2347 C2346 1.400 . S
C2347 C2348 1.398 1_556 S
C2347 C2353 1.491 1_556 S
C2348 H2339 0.950 . S
C2348 C2347 1.398 1_554 S
C2348 C2349 1.391 1_554 S
C2349 H2337 0.950 1_556 S
C2349 C2345 1.393 . S
C2349 C2348 1.391 1_556 S
C2350 H2340 0.950 . S
C2350 C2351 1.386 . S
C2350 C2352 1.391 . S
C2351 C2350 1.386 . S
C2351 C2355 1.393 . S
C2352 H2341 0.950 . S
C2352 C2350 1.391 . S
C2352 C2353 1.400 . S
C2353 C2347 1.491 1_554 S
C2353 C2352 1.400 . S
C2353 C2354 1.398 1_554 S
C2354 H2342 0.950 . S
C2354 C2353 1.398 1_556 S
C2354 C2355 1.391 1_556 S
C2355 H2343 0.950 1_554 S
C2355 C2351 1.393 . S
C2355 C2354 1.391 1_554 S
H2356 C2364 0.950 . S
H2357 C2369 0.950 . S
H2358 C2366 0.950 . S
H2359 C2368 0.950 . S
H2360 C2370 0.950 . S
H2361 C2372 0.950 . S
H2362 C2374 0.950 . S
H2363 C2375 0.950 . S
C2364 H2356 0.950 . S
C2364 C2365 1.386 . S
C2364 C2366 1.391 . S
C2365 C2364 1.386 . S
C2365 C2369 1.393 . S
C2366 H2358 0.950 . S
C2366 C2364 1.391 . S
C2366 C2367 1.400 . S
C2367 C2366 1.400 . S
C2367 C2368 1.398 . S
C2367 C2373 1.491 . S
C2368 H2359 0.950 . S
C2368 C2367 1.398 . S
C2368 C2369 1.391 . S
C2369 H2357 0.950 . S
C2369 C2365 1.393 . S
C2369 C2368 1.391 . S
C2370 H2360 0.950 . S
C2370 C2371 1.386 . S
C2370 C2372 1.391 . S
C2371 C2370 1.386 . S
C2371 C2375 1.393 . S
C2372 H2361 0.950 . S
C2372 C2370 1.391 . S
C2372 C2373 1.400 . S
C2373 C2367 1.491 . S
C2373 C2372 1.400 . S
C2373 C2374 1.398 . S
C2374 H2362 0.950 . S
C2374 C2373 1.398 . S
C2374 C2375 1.391 . S
C2375 H2363 0.950 . S
C2375 C2371 1.393 . S
C2375 C2374 1.391 . S
C1425 C3 1.551 . S
C1431 C888 1.568 . S
C1445 C62 1.567 . S
C1451 C947 1.553 . S
C1465 C1006 1.554 . S
C1471 C121 1.565 . S
C1485 C711 1.553 . S
C1491 C180 1.567 . S
C1505 C770 1.551 . S
C1511 C239 1.568 . S
C1525 C829 1.555 . S
C1531 C298 1.564 . S
C1545 C1242 1.554 . S
C1551 C357 1.566 . S
C1565 C416 1.566 . S
C1571 C1301 1.553 . S
C1585 C1360 1.551 . S
C1591 C475 1.569 . S
C1605 C534 1.551 . S
C1611 C1065 1.569 . S
C1625 C1124 1.556 . S
C1631 C593 1.564 . S
C1645 C652 1.556 . S
C1651 C1183 1.564 . S
C1665 C595 1.525 . S
C1671 C5 1.521 . S
C1685 C654 1.521 . S
C1691 C64 1.518 . S
C1705 C123 1.522 . S
C1711 C359 1.518 . S
C1725 C182 1.518 . S
C1731 C418 1.521 . S
C1745 C477 1.527 . S
C1751 C241 1.528 . S
C1765 C300 1.519 . S
C1771 C536 1.523 . S
C1785 C1303 1.522 . S
C1791 C713 1.526 . S
C1805 C772 1.521 . S
C1811 C1362 1.518 . S
C1825 C831 1.517 . S
C1831 C1067 1.519 . S
C1845 C1126 1.523 . S
C1851 C890 1.526 . S
C1865 C949 1.518 . S
C1871 C1185 1.520 . S
C1885 C1008 1.521 . S
C1891 C1244 1.525 . S
C1905 C52 1.510 . S
C1911 C1114 1.506 . S
C1925 C1173 1.511 . S
C1931 C111 1.506 . S
C1945 C170 1.511 . S
C1951 C1232 1.506 . S
C1965 C229 1.511 . S
C1971 C1291 1.506 . S
C1985 C1350 1.506 . S
C1991 C288 1.511 . S
C2005 C347 1.506 . S
C2011 C1409 1.510 . S
C2025 C406 1.507 . S
C2031 C760 1.509 . S
C2045 C465 1.510 . S
C2051 C819 1.506 . S
C2065 C878 1.510 . S
C2071 C524 1.506 . S
C2085 C937 1.506 . S
C2091 C583 1.510 . S
C2105 C642 1.511 . S
C2111 C996 1.506 . S
C2125 C1055 1.510 . S
C2131 C701 1.506 . S
C2145 C387 1.574 . S
C2151 C33 1.575 . S
C2165 C92 1.566 . S
C2171 C446 1.566 . S
C2185 C505 1.570 . S
C2191 C151 1.570 . S
C2205 C564 1.568 . S
C2211 C210 1.569 . S
C2225 C623 1.570 . S
C2231 C269 1.570 . S
C2245 C328 1.573 . S
C2251 C682 1.574 . S
C2265 C1095 1.570 . S
C2271 C741 1.570 . S
C2285 C800 1.566 . S
C2291 C1154 1.567 . S
C2305 C1213 1.574 . S
C2311 C859 1.574 . S
C2325 C1272 1.565 . S
C2331 C918 1.565 . S
C2345 C977 1.574 . S
C2351 C1331 1.574 . S
C2365 C1036 1.565 . S
C2371 C1390 1.565 . S
