# Generated by pormake.
# Topology sou, (8)-cn, num edge types: 1
# Building blocks:
#     Node 0, Type 0, BuildingBlock: HISSIN_clean_sbu_1, # of connection points: 8
#     Node 1, Type 0, BuildingBlock: HISSIN_clean_sbu_1, # of connection points: 8
#     Node 2, Type 0, BuildingBlock: HISSIN_clean_sbu_1, # of connection points: 8
#     Node 3, Type 0, BuildingBlock: HISSIN_clean_sbu_1, # of connection points: 8
#     Node 4, Type 0, BuildingBlock: HISSIN_clean_sbu_1, # of connection points: 8
#     Node 5, Type 0, BuildingBlock: HISSIN_clean_sbu_1, # of connection points: 8
#     Node 6, Type 0, BuildingBlock: HISSIN_clean_sbu_1, # of connection points: 8
#     Node 7, Type 0, BuildingBlock: HISSIN_clean_sbu_1, # of connection points: 8
#     Node 8, Type 0, BuildingBlock: HISSIN_clean_sbu_1, # of connection points: 8
#     Node 9, Type 0, BuildingBlock: HISSIN_clean_sbu_1, # of connection points: 8
#     Node 10, Type 0, BuildingBlock: HISSIN_clean_sbu_1, # of connection points: 8
#     Node 11, Type 0, BuildingBlock: HISSIN_clean_sbu_1, # of connection points: 8
#     Node 12, Type 0, BuildingBlock: HISSIN_clean_sbu_1, # of connection points: 8
#     Node 13, Type 0, BuildingBlock: HISSIN_clean_sbu_1, # of connection points: 8
#     Node 14, Type 0, BuildingBlock: HISSIN_clean_sbu_1, # of connection points: 8
#     Node 15, Type 0, BuildingBlock: HISSIN_clean_sbu_1, # of connection points: 8
#     Node 16, Type 0, BuildingBlock: HISSIN_clean_sbu_1, # of connection points: 8
#     Node 17, Type 0, BuildingBlock: HISSIN_clean_sbu_1, # of connection points: 8
#     Node 18, Type 0, BuildingBlock: HISSIN_clean_sbu_1, # of connection points: 8
#     Node 19, Type 0, BuildingBlock: HISSIN_clean_sbu_1, # of connection points: 8
#     Node 20, Type 0, BuildingBlock: HISSIN_clean_sbu_1, # of connection points: 8
#     Node 21, Type 0, BuildingBlock: HISSIN_clean_sbu_1, # of connection points: 8
#     Node 22, Type 0, BuildingBlock: HISSIN_clean_sbu_1, # of connection points: 8
#     Node 23, Type 0, BuildingBlock: HISSIN_clean_sbu_1, # of connection points: 8
#     Node 24, Type 0, BuildingBlock: HISSIN_clean_sbu_1, # of connection points: 8
#     Node 25, Type 0, BuildingBlock: HISSIN_clean_sbu_1, # of connection points: 8
#     Node 26, Type 0, BuildingBlock: HISSIN_clean_sbu_1, # of connection points: 8
#     Node 27, Type 0, BuildingBlock: HISSIN_clean_sbu_1, # of connection points: 8
#     Node 28, Type 0, BuildingBlock: HISSIN_clean_sbu_1, # of connection points: 8
#     Node 29, Type 0, BuildingBlock: HISSIN_clean_sbu_1, # of connection points: 8
#     Node 30, Type 0, BuildingBlock: HISSIN_clean_sbu_1, # of connection points: 8
#     Node 31, Type 0, BuildingBlock: HISSIN_clean_sbu_1, # of connection points: 8
#     Edge 32, Type (0, 0), BuildingBlock: AJUNOK_clean_linker_0, # of connection points: 2
#     Edge 33, Type (0, 0), BuildingBlock: AJUNOK_clean_linker_0, # of connection points: 2
#     Edge 34, Type (0, 0), BuildingBlock: AJUNOK_clean_linker_0, # of connection points: 2
#     Edge 35, Type (0, 0), BuildingBlock: AJUNOK_clean_linker_0, # of connection points: 2
#     Edge 36, Type (0, 0), BuildingBlock: AJUNOK_clean_linker_0, # of connection points: 2
#     Edge 37, Type (0, 0), BuildingBlock: AJUNOK_clean_linker_0, # of connection points: 2
#     Edge 38, Type (0, 0), BuildingBlock: AJUNOK_clean_linker_0, # of connection points: 2
#     Edge 39, Type (0, 0), BuildingBlock: AJUNOK_clean_linker_0, # of connection points: 2
#     Edge 40, Type (0, 0), BuildingBlock: AJUNOK_clean_linker_0, # of connection points: 2
#     Edge 41, Type (0, 0), BuildingBlock: AJUNOK_clean_linker_0, # of connection points: 2
#     Edge 42, Type (0, 0), BuildingBlock: AJUNOK_clean_linker_0, # of connection points: 2
#     Edge 43, Type (0, 0), BuildingBlock: AJUNOK_clean_linker_0, # of connection points: 2
#     Edge 44, Type (0, 0), BuildingBlock: AJUNOK_clean_linker_0, # of connection points: 2
#     Edge 45, Type (0, 0), BuildingBlock: AJUNOK_clean_linker_0, # of connection points: 2
#     Edge 46, Type (0, 0), BuildingBlock: AJUNOK_clean_linker_0, # of connection points: 2
#     Edge 47, Type (0, 0), BuildingBlock: AJUNOK_clean_linker_0, # of connection points: 2
#     Edge 48, Type (0, 0), BuildingBlock: AJUNOK_clean_linker_0, # of connection points: 2
#     Edge 49, Type (0, 0), BuildingBlock: AJUNOK_clean_linker_0, # of connection points: 2
#     Edge 50, Type (0, 0), BuildingBlock: AJUNOK_clean_linker_0, # of connection points: 2
#     Edge 51, Type (0, 0), BuildingBlock: AJUNOK_clean_linker_0, # of connection points: 2
#     Edge 52, Type (0, 0), BuildingBlock: AJUNOK_clean_linker_0, # of connection points: 2
#     Edge 53, Type (0, 0), BuildingBlock: AJUNOK_clean_linker_0, # of connection points: 2
#     Edge 54, Type (0, 0), BuildingBlock: AJUNOK_clean_linker_0, # of connection points: 2
#     Edge 55, Type (0, 0), BuildingBlock: AJUNOK_clean_linker_0, # of connection points: 2
#     Edge 56, Type (0, 0), BuildingBlock: AJUNOK_clean_linker_0, # of connection points: 2
#     Edge 57, Type (0, 0), BuildingBlock: AJUNOK_clean_linker_0, # of connection points: 2
#     Edge 58, Type (0, 0), BuildingBlock: AJUNOK_clean_linker_0, # of connection points: 2
#     Edge 59, Type (0, 0), BuildingBlock: AJUNOK_clean_linker_0, # of connection points: 2
#     Edge 60, Type (0, 0), BuildingBlock: AJUNOK_clean_linker_0, # of connection points: 2
#     Edge 61, Type (0, 0), BuildingBlock: AJUNOK_clean_linker_0, # of connection points: 2
#     Edge 62, Type (0, 0), BuildingBlock: AJUNOK_clean_linker_0, # of connection points: 2
#     Edge 63, Type (0, 0), BuildingBlock: AJUNOK_clean_linker_0, # of connection points: 2
#     Edge 64, Type (0, 0), BuildingBlock: AJUNOK_clean_linker_0, # of connection points: 2
#     Edge 65, Type (0, 0), BuildingBlock: AJUNOK_clean_linker_0, # of connection points: 2
#     Edge 66, Type (0, 0), BuildingBlock: AJUNOK_clean_linker_0, # of connection points: 2
#     Edge 67, Type (0, 0), BuildingBlock: AJUNOK_clean_linker_0, # of connection points: 2
#     Edge 68, Type (0, 0), BuildingBlock: AJUNOK_clean_linker_0, # of connection points: 2
#     Edge 69, Type (0, 0), BuildingBlock: AJUNOK_clean_linker_0, # of connection points: 2
#     Edge 70, Type (0, 0), BuildingBlock: AJUNOK_clean_linker_0, # of connection points: 2
#     Edge 71, Type (0, 0), BuildingBlock: AJUNOK_clean_linker_0, # of connection points: 2
#     Edge 72, Type (0, 0), BuildingBlock: AJUNOK_clean_linker_0, # of connection points: 2
#     Edge 73, Type (0, 0), BuildingBlock: AJUNOK_clean_linker_0, # of connection points: 2
#     Edge 74, Type (0, 0), BuildingBlock: AJUNOK_clean_linker_0, # of connection points: 2
#     Edge 75, Type (0, 0), BuildingBlock: AJUNOK_clean_linker_0, # of connection points: 2
#     Edge 76, Type (0, 0), BuildingBlock: AJUNOK_clean_linker_0, # of connection points: 2
#     Edge 77, Type (0, 0), BuildingBlock: AJUNOK_clean_linker_0, # of connection points: 2
#     Edge 78, Type (0, 0), BuildingBlock: AJUNOK_clean_linker_0, # of connection points: 2
#     Edge 79, Type (0, 0), BuildingBlock: AJUNOK_clean_linker_0, # of connection points: 2
#     Edge 80, Type (0, 0), BuildingBlock: AJUNOK_clean_linker_0, # of connection points: 2
#     Edge 81, Type (0, 0), BuildingBlock: AJUNOK_clean_linker_0, # of connection points: 2
#     Edge 82, Type (0, 0), BuildingBlock: AJUNOK_clean_linker_0, # of connection points: 2
#     Edge 83, Type (0, 0), BuildingBlock: AJUNOK_clean_linker_0, # of connection points: 2
#     Edge 84, Type (0, 0), BuildingBlock: AJUNOK_clean_linker_0, # of connection points: 2
#     Edge 85, Type (0, 0), BuildingBlock: AJUNOK_clean_linker_0, # of connection points: 2
#     Edge 86, Type (0, 0), BuildingBlock: AJUNOK_clean_linker_0, # of connection points: 2
#     Edge 87, Type (0, 0), BuildingBlock: AJUNOK_clean_linker_0, # of connection points: 2
#     Edge 88, Type (0, 0), BuildingBlock: AJUNOK_clean_linker_0, # of connection points: 2
#     Edge 89, Type (0, 0), BuildingBlock: AJUNOK_clean_linker_0, # of connection points: 2
#     Edge 90, Type (0, 0), BuildingBlock: AJUNOK_clean_linker_0, # of connection points: 2
#     Edge 91, Type (0, 0), BuildingBlock: AJUNOK_clean_linker_0, # of connection points: 2
#     Edge 92, Type (0, 0), BuildingBlock: AJUNOK_clean_linker_0, # of connection points: 2
#     Edge 93, Type (0, 0), BuildingBlock: AJUNOK_clean_linker_0, # of connection points: 2
#     Edge 94, Type (0, 0), BuildingBlock: AJUNOK_clean_linker_0, # of connection points: 2
#     Edge 95, Type (0, 0), BuildingBlock: AJUNOK_clean_linker_0, # of connection points: 2
#     Edge 96, Type (0, 0), BuildingBlock: AJUNOK_clean_linker_0, # of connection points: 2
#     Edge 97, Type (0, 0), BuildingBlock: AJUNOK_clean_linker_0, # of connection points: 2
#     Edge 98, Type (0, 0), BuildingBlock: AJUNOK_clean_linker_0, # of connection points: 2
#     Edge 99, Type (0, 0), BuildingBlock: AJUNOK_clean_linker_0, # of connection points: 2
#     Edge 100, Type (0, 0), BuildingBlock: AJUNOK_clean_linker_0, # of connection points: 2
#     Edge 101, Type (0, 0), BuildingBlock: AJUNOK_clean_linker_0, # of connection points: 2
#     Edge 102, Type (0, 0), BuildingBlock: AJUNOK_clean_linker_0, # of connection points: 2
#     Edge 103, Type (0, 0), BuildingBlock: AJUNOK_clean_linker_0, # of connection points: 2
#     Edge 104, Type (0, 0), BuildingBlock: AJUNOK_clean_linker_0, # of connection points: 2
#     Edge 105, Type (0, 0), BuildingBlock: AJUNOK_clean_linker_0, # of connection points: 2
#     Edge 106, Type (0, 0), BuildingBlock: AJUNOK_clean_linker_0, # of connection points: 2
#     Edge 107, Type (0, 0), BuildingBlock: AJUNOK_clean_linker_0, # of connection points: 2
#     Edge 108, Type (0, 0), BuildingBlock: AJUNOK_clean_linker_0, # of connection points: 2
#     Edge 109, Type (0, 0), BuildingBlock: AJUNOK_clean_linker_0, # of connection points: 2
#     Edge 110, Type (0, 0), BuildingBlock: AJUNOK_clean_linker_0, # of connection points: 2
#     Edge 111, Type (0, 0), BuildingBlock: AJUNOK_clean_linker_0, # of connection points: 2
#     Edge 112, Type (0, 0), BuildingBlock: AJUNOK_clean_linker_0, # of connection points: 2
#     Edge 113, Type (0, 0), BuildingBlock: AJUNOK_clean_linker_0, # of connection points: 2
#     Edge 114, Type (0, 0), BuildingBlock: AJUNOK_clean_linker_0, # of connection points: 2
#     Edge 115, Type (0, 0), BuildingBlock: AJUNOK_clean_linker_0, # of connection points: 2
#     Edge 116, Type (0, 0), BuildingBlock: AJUNOK_clean_linker_0, # of connection points: 2
#     Edge 117, Type (0, 0), BuildingBlock: AJUNOK_clean_linker_0, # of connection points: 2
#     Edge 118, Type (0, 0), BuildingBlock: AJUNOK_clean_linker_0, # of connection points: 2
#     Edge 119, Type (0, 0), BuildingBlock: AJUNOK_clean_linker_0, # of connection points: 2
#     Edge 120, Type (0, 0), BuildingBlock: AJUNOK_clean_linker_0, # of connection points: 2
#     Edge 121, Type (0, 0), BuildingBlock: AJUNOK_clean_linker_0, # of connection points: 2
#     Edge 122, Type (0, 0), BuildingBlock: AJUNOK_clean_linker_0, # of connection points: 2
#     Edge 123, Type (0, 0), BuildingBlock: AJUNOK_clean_linker_0, # of connection points: 2
#     Edge 124, Type (0, 0), BuildingBlock: AJUNOK_clean_linker_0, # of connection points: 2
#     Edge 125, Type (0, 0), BuildingBlock: AJUNOK_clean_linker_0, # of connection points: 2
#     Edge 126, Type (0, 0), BuildingBlock: AJUNOK_clean_linker_0, # of connection points: 2
#     Edge 127, Type (0, 0), BuildingBlock: AJUNOK_clean_linker_0, # of connection points: 2
#     Edge 128, Type (0, 0), BuildingBlock: AJUNOK_clean_linker_0, # of connection points: 2
#     Edge 129, Type (0, 0), BuildingBlock: AJUNOK_clean_linker_0, # of connection points: 2
#     Edge 130, Type (0, 0), BuildingBlock: AJUNOK_clean_linker_0, # of connection points: 2
#     Edge 131, Type (0, 0), BuildingBlock: AJUNOK_clean_linker_0, # of connection points: 2
#     Edge 132, Type (0, 0), BuildingBlock: AJUNOK_clean_linker_0, # of connection points: 2
#     Edge 133, Type (0, 0), BuildingBlock: AJUNOK_clean_linker_0, # of connection points: 2
#     Edge 134, Type (0, 0), BuildingBlock: AJUNOK_clean_linker_0, # of connection points: 2
#     Edge 135, Type (0, 0), BuildingBlock: AJUNOK_clean_linker_0, # of connection points: 2
#     Edge 136, Type (0, 0), BuildingBlock: AJUNOK_clean_linker_0, # of connection points: 2
#     Edge 137, Type (0, 0), BuildingBlock: AJUNOK_clean_linker_0, # of connection points: 2
#     Edge 138, Type (0, 0), BuildingBlock: AJUNOK_clean_linker_0, # of connection points: 2
#     Edge 139, Type (0, 0), BuildingBlock: AJUNOK_clean_linker_0, # of connection points: 2
#     Edge 140, Type (0, 0), BuildingBlock: AJUNOK_clean_linker_0, # of connection points: 2
#     Edge 141, Type (0, 0), BuildingBlock: AJUNOK_clean_linker_0, # of connection points: 2
#     Edge 142, Type (0, 0), BuildingBlock: AJUNOK_clean_linker_0, # of connection points: 2
#     Edge 143, Type (0, 0), BuildingBlock: AJUNOK_clean_linker_0, # of connection points: 2
#     Edge 144, Type (0, 0), BuildingBlock: AJUNOK_clean_linker_0, # of connection points: 2
#     Edge 145, Type (0, 0), BuildingBlock: AJUNOK_clean_linker_0, # of connection points: 2
#     Edge 146, Type (0, 0), BuildingBlock: AJUNOK_clean_linker_0, # of connection points: 2
#     Edge 147, Type (0, 0), BuildingBlock: AJUNOK_clean_linker_0, # of connection points: 2
#     Edge 148, Type (0, 0), BuildingBlock: AJUNOK_clean_linker_0, # of connection points: 2
#     Edge 149, Type (0, 0), BuildingBlock: AJUNOK_clean_linker_0, # of connection points: 2
#     Edge 150, Type (0, 0), BuildingBlock: AJUNOK_clean_linker_0, # of connection points: 2
#     Edge 151, Type (0, 0), BuildingBlock: AJUNOK_clean_linker_0, # of connection points: 2
#     Edge 152, Type (0, 0), BuildingBlock: AJUNOK_clean_linker_0, # of connection points: 2
#     Edge 153, Type (0, 0), BuildingBlock: AJUNOK_clean_linker_0, # of connection points: 2
#     Edge 154, Type (0, 0), BuildingBlock: AJUNOK_clean_linker_0, # of connection points: 2
#     Edge 155, Type (0, 0), BuildingBlock: AJUNOK_clean_linker_0, # of connection points: 2
#     Edge 156, Type (0, 0), BuildingBlock: AJUNOK_clean_linker_0, # of connection points: 2
#     Edge 157, Type (0, 0), BuildingBlock: AJUNOK_clean_linker_0, # of connection points: 2
#     Edge 158, Type (0, 0), BuildingBlock: AJUNOK_clean_linker_0, # of connection points: 2
#     Edge 159, Type (0, 0), BuildingBlock: AJUNOK_clean_linker_0, # of connection points: 2
# Relax obj value: 0.058
# Max RMSD: 0.153
# Mean RMSD: 0.153
data_MOF--net-sou--node1-HISSIN_clean_sbu_1--edge1-AJUNOK_clean_linker_0
_symmetry_space_group_name_H-M    P1
_symmetry_Int_Tables_number       1
_symmetry_cell_setting            triclinic
loop_
_symmetry_equiv_pos_as_xyz
'x, y, z'
_cell_length_a     70.768556
_cell_length_b     34.260926
_cell_length_c     30.107051
_cell_angle_alpha  90.000402
_cell_angle_beta   89.98491
_cell_angle_gamma 89.93192
loop_
_atom_site_label
_atom_site_type_symbol
_atom_site_fract_x
_atom_site_fract_y
_atom_site_fract_z
_atom_type_partial_charge
Eu0 Eu 0.9944 0.30214 0.06972 0.0
C1 C 0.00971 0.26913 0.97724 0.0
O2 O 0.99568 0.2466 0.11001 0.0
C3 C 0.08403 0.34589 0.00221 0.0
C4 C 0.12302 0.35677 0.01137 0.0
C5 C 0.09419 0.36894 0.97113 0.0
C6 C 0.11375 0.37581 0.97663 0.0
C7 C 0.09359 0.33182 0.04029 0.0
C8 C 0.11305 0.33851 0.04547 0.0
Eu9 Eu 0.02821 0.35113 1.00125 0.0
O10 O 1.00357 0.35545 0.11096 0.0
O11 O 0.02209 0.41151 0.97496 0.0
O12 O 0.01114 0.30532 0.96246 0.0
O13 O 0.02365 0.38862 0.06323 0.0
C14 C 1.00648 0.42911 0.98802 0.0
O15 O 0.99296 0.40755 0.00508 0.0
O16 O 0.05345 0.32246 0.02726 0.0
C17 C 0.06397 0.33459 0.9937 0.0
C18 C 0.01147 0.2264 0.11312 0.0
O19 O 0.02743 0.24283 0.10105 0.0
O20 O 0.05438 0.35423 0.9635 0.0
O21 O 0.00983 0.26336 0.02031 0.0
C22 C 0.95957 0.31271 0.0463 0.0
O23 O 0.97383 0.32345 0.02082 0.0
C24 C 0.94083 0.30359 0.02702 0.0
C25 C 0.90303 0.29366 1.00112 0.0
C26 C 0.93236 0.26615 0.02909 0.0
C27 C 0.91328 0.26148 0.01605 0.0
C28 C 0.93011 0.33538 0.01181 0.0
C29 C 0.91113 0.33058 0.99982 0.0
C30 C 0.01369 0.38676 0.10031 0.0
O31 O 0.96451 0.29617 0.08396 0.0
H32 H 0.1381 0.36058 0.01571 0.0
H33 H 0.08694 0.38147 0.94285 0.0
H34 H 0.08593 0.31644 0.06607 0.0
H35 H 0.88823 0.29017 0.99247 0.0
H36 H 0.94027 0.24138 0.04155 0.0
H37 H 0.93618 0.36446 0.01201 0.0
Eu38 Eu 0.27459 0.98498 0.06946 0.0
C39 C 0.25729 1.01375 0.9782 0.0
O40 O 0.27285 0.03908 0.11155 0.0
C41 C 0.18295 0.93699 0.00849 0.0
C42 C 0.14359 0.93016 0.0075 0.0
C43 C 0.17408 0.90802 0.98215 0.0
C44 C 0.1543 0.90371 0.98309 0.0
C45 C 0.17186 0.95668 0.04082 0.0
C46 C 0.15207 0.95115 0.04198 0.0
Eu47 Eu 0.23909 0.93192 0.00763 0.0
O48 O 0.26785 0.9311 0.11136 0.0
O49 O 0.24519 0.87003 0.98459 0.0
O50 O 0.25581 0.97677 0.96594 0.0
O51 O 0.244 0.89906 0.07259 0.0
C52 C 0.26094 0.85244 0.99714 0.0
O53 O 0.27443 0.87386 0.01453 0.0
O54 O 0.21366 0.96023 0.03436 0.0
C55 C 0.20319 0.94777 1.00094 0.0
C56 C 0.25652 0.05643 0.11819 0.0
O57 O 0.24091 0.03834 0.10672 0.0
O58 O 0.21281 0.92815 0.9708 0.0
O59 O 0.25775 0.02182 0.02074 0.0
C60 C 0.30907 0.97652 0.04312 0.0
O61 O 0.29465 0.96312 0.01992 0.0
C62 C 0.32761 0.98355 0.02215 0.0
C63 C 0.36361 0.99047 0.98485 0.0
C64 C 0.33776 0.01902 0.02644 0.0
C65 C 0.35633 0.02195 0.00908 0.0
C66 C 0.33669 0.95097 0.00377 0.0
C67 C 0.35498 0.95416 0.98685 0.0
C68 C 0.25625 0.90121 0.10562 0.0
O69 O 0.30451 0.99509 0.07982 0.0
H70 H 0.12833 0.92673 0.00755 0.0
H71 H 0.18244 0.88823 0.96209 0.0
H72 H 0.17863 0.97475 0.06565 0.0
H73 H 0.37745 0.99249 0.96957 0.0
H74 H 0.33163 0.0432 0.04461 0.0
H75 H 0.33019 0.92235 0.00608 0.0
Eu76 Eu 0.99479 0.98157 0.1857 0.0
C77 C 0.01156 1.0113 0.27823 0.0
O78 O 0.99661 0.03738 0.14568 0.0
C79 C 0.08204 0.93009 0.2478 0.0
C80 C 0.1214 0.93209 0.23438 0.0
C81 C 0.09415 0.90439 0.27144 0.0
C82 C 0.11387 0.90475 0.26376 0.0
C83 C 0.08996 0.95308 0.2135 0.0
C84 C 0.1096 0.95311 0.20595 0.0
Eu85 Eu 0.0251 0.92324 0.25535 0.0
O86 O 1.00406 0.92917 0.14315 0.0
O87 O 0.01445 0.8807 0.30734 0.0
O88 O 0.01131 0.97489 0.29293 0.0
O89 O 0.01725 0.88644 0.19494 0.0
C90 C 1.00813 0.84431 0.30505 0.0
O91 O 1.00108 0.82935 0.34165 0.0
O92 O 0.05024 0.95525 0.23463 0.0
C93 C 0.06158 0.93431 0.25996 0.0
C94 C 0.01233 0.05793 0.14398 0.0
O95 O 0.02809 0.04196 0.15827 0.0
O96 O 0.0528 0.90677 0.28234 0.0
O97 O 0.01159 0.0175 0.23527 0.0
C98 C 0.95983 0.9729 0.20938 0.0
O99 O 0.97392 0.95982 0.23399 0.0
C100 C 0.94044 0.97841 0.22728 0.0
C101 C 0.9031 0.98337 0.25795 0.0
C102 C 0.9309 1.01497 0.22772 0.0
C103 C 0.91184 0.01723 0.24255 0.0
C104 C 0.93052 0.94464 0.23976 0.0
C105 C 0.91186 0.94729 0.25463 0.0
C106 C 0.01062 0.8942 0.15477 0.0
O107 O 0.96494 0.9909 0.17274 0.0
H108 H 0.13641 0.93063 0.22677 0.0
H109 H 0.08827 0.88337 0.29449 0.0
H110 H 0.08087 0.9695 0.19136 0.0
H111 H 0.88864 0.98448 0.26993 0.0
H112 H 0.938 0.04083 0.21557 0.0
H113 H 0.93701 0.91612 0.23603 0.0
Eu114 Eu 0.2737 0.30007 0.18591 0.0
C115 C 0.25745 0.27148 0.2827 0.0
O116 O 0.27048 0.24365 0.14828 0.0
C117 C 0.18365 0.34844 0.24274 0.0
C118 C 0.14451 0.33758 0.24087 0.0
C119 C 0.17156 0.37371 0.2673 0.0
C120 C 0.15161 0.36976 0.26433 0.0
C121 C 0.17539 0.32321 0.21136 0.0
C122 C 0.15565 0.32024 0.20812 0.0
Eu123 Eu 0.24111 0.35711 0.25185 0.0
O124 O 0.2617 0.34818 0.1408 0.0
O125 O 0.24616 0.41543 0.28457 0.0
O126 O 0.2531 0.30751 0.29542 0.0
O127 O 0.25329 0.39315 0.19433 0.0
C128 C 0.26148 0.43573 0.27571 0.0
O129 O 0.27658 0.41697 0.2618 0.0
O130 O 0.21622 0.33543 0.21617 0.0
C131 C 0.20468 0.35127 0.2457 0.0
C132 C 0.2546 0.22389 0.15151 0.0
O133 O 0.23983 0.2411 0.16929 0.0
O134 O 0.21307 0.36942 0.27873 0.0
O135 O 0.26133 0.26314 0.24108 0.0
C136 C 0.30919 0.31241 0.20166 0.0
O137 O 0.2956 0.32785 0.22605 0.0
C138 C 0.32799 0.30481 0.22179 0.0
C139 C 0.36511 0.29778 0.25366 0.0
C140 C 0.33634 0.26721 0.22675 0.0
C141 C 0.3551 0.26393 0.24329 0.0
C142 C 0.33871 0.33802 0.23191 0.0
C143 C 0.35725 0.33441 0.24701 0.0
C144 C 0.25798 0.38452 0.1531 0.0
O145 O 0.30324 0.29071 0.16846 0.0
H146 H 0.12934 0.33335 0.23898 0.0
H147 H 0.17768 0.39764 0.28578 0.0
H148 H 0.18413 0.30906 0.18653 0.0
H149 H 0.37976 0.29571 0.26421 0.0
H150 H 0.32853 0.24125 0.21769 0.0
H151 H 0.33304 0.36692 0.22545 0.0
Eu152 Eu 0.99077 0.67695 0.0022 0.0
C153 C 1.00637 0.64826 0.90192 0.0
O154 O 0.99441 0.61675 0.0315 0.0
C155 C 0.07653 0.73076 0.97268 0.0
C156 C 0.11543 0.73205 0.9891 0.0
C157 C 0.08661 0.76659 0.97182 0.0
C158 C 0.10619 0.76728 0.98112 0.0
C159 C 0.08623 0.69594 0.98273 0.0
C160 C 0.10577 0.69674 0.99013 0.0
Eu161 Eu 0.02124 0.73382 0.93663 0.0
O162 O 1.00659 0.72317 0.04316 0.0
O163 O 0.019 0.78933 0.89741 0.0
O164 O 0.0124 0.68356 0.89067 0.0
O165 O 1.00456 0.76807 0.98816 0.0
C166 C 1.00291 0.80803 0.89312 0.0
O167 O 0.98705 0.79061 0.90402 0.0
O168 O 0.04305 0.711 0.98253 0.0
C169 C 0.05637 0.72883 0.95949 0.0
C170 C 0.00995 0.59685 0.02306 0.0
O171 O 0.02479 0.61595 0.00835 0.0
O172 O 0.05053 0.74796 0.92426 0.0
O173 O 0.99962 0.64058 0.94186 0.0
C174 C 0.95497 0.69494 0.9999 0.0
O175 O 0.96722 0.70662 0.96953 0.0
C176 C 0.93519 0.68591 0.98582 0.0
C177 C 0.89817 0.67188 0.95793 0.0
C178 C 0.9244 0.65529 0.00535 0.0
C179 C 0.90539 0.64904 0.99227 0.0
C180 C 0.92623 0.71157 0.95559 0.0
C181 C 0.90747 0.70505 0.94233 0.0
C182 C 1.00597 0.76014 0.03064 0.0
O183 O 0.96272 0.67422 0.03196 0.0
H184 H 0.13067 0.73178 0.99332 0.0
H185 H 0.07929 0.79355 0.96413 0.0
H186 H 0.07886 0.66822 0.98217 0.0
H187 H 0.88472 0.66402 0.94321 0.0
H188 H 0.9306 0.63698 0.03081 0.0
H189 H 0.93375 0.73675 0.94296 0.0
Eu190 Eu 0.77272 0.11107 1.00166 0.0
C191 C 0.75802 0.1386 0.90607 0.0
O192 O 0.7662 0.15312 0.05775 0.0
C193 C 0.69226 0.05161 0.95811 0.0
C194 C 0.65652 0.04443 0.99644 0.0
C195 C 0.68587 1.01453 0.97234 0.0
C196 C 0.66744 1.0111 0.99013 0.0
C197 C 0.67947 0.08284 0.95712 0.0
C198 C 0.66151 0.07991 0.97691 0.0
Eu199 Eu 0.74742 0.04966 0.9291 0.0
O200 O 0.76281 0.05732 0.04148 0.0
O201 O 0.75106 0.99356 0.89039 0.0
O202 O 0.75989 0.10221 0.89164 0.0
O203 O 0.76043 1.01347 0.98425 0.0
C204 C 0.76662 0.97282 0.89493 0.0
O205 O 0.78136 0.98917 0.91379 0.0
O206 O 0.72455 0.07249 0.97031 0.0
C207 C 0.7116 0.0602 0.94209 0.0
C208 C 0.76012 0.18976 0.05907 0.0
O209 O 0.75571 0.20365 0.09838 0.0
O210 O 0.71831 0.04202 0.907 0.0
O211 O 0.7571 0.14585 0.94896 0.0
C212 C 0.80889 0.10689 0.98669 0.0
O213 O 0.79652 0.0857 0.96449 0.0
C214 C 0.82975 0.10511 0.9785 0.0
C215 C 0.869 0.09921 0.96811 0.0
C216 C 0.84184 0.13489 0.99476 0.0
C217 C 0.86163 0.13233 0.98891 0.0
C218 C 0.83773 0.07389 0.95395 0.0
C219 C 0.85749 0.07123 0.94765 0.0
C220 C 0.76142 0.02088 0.02701 0.0
O221 O 0.80147 0.13028 0.01659 0.0
H222 H 0.64322 0.04141 0.01391 0.0
H223 H 0.69482 0.98904 0.96895 0.0
H224 H 0.68374 0.10885 0.93962 0.0
H225 H 0.88418 0.09718 0.96457 0.0
H226 H 0.83579 0.16038 0.0106 0.0
H227 H 0.82859 0.05193 0.93963 0.0
Eu228 Eu 0.98868 0.1027 0.75463 0.0
C229 C 1.0047 0.13332 0.85363 0.0
O230 O 0.99235 0.16343 0.72578 0.0
C231 C 0.07663 0.05075 0.78584 0.0
C232 C 0.11505 0.04241 0.76429 0.0
C233 C 0.08523 1.01331 0.78663 0.0
C234 C 0.10459 1.00939 0.7755 0.0
C235 C 0.08742 0.08311 0.77294 0.0
C236 C 0.10666 0.07921 0.76282 0.0
Eu237 Eu 0.02187 0.04937 0.81985 0.0
O238 O 1.00382 0.05685 0.71079 0.0
O239 O 0.01836 0.99452 0.85988 0.0
O240 O 0.01111 0.09838 0.86494 0.0
O241 O 1.00822 1.0125 0.76631 0.0
C242 C 1.00247 0.97472 0.85798 0.0
O243 O 0.98773 0.99057 0.83851 0.0
O244 O 0.04421 0.07422 0.778 0.0
C245 C 0.0575 0.05918 0.80361 0.0
C246 C 1.00821 0.18266 0.73319 0.0
O247 O 0.02296 0.16299 0.74751 0.0
O248 O 0.05117 0.03912 0.83773 0.0
O249 O 0.99777 0.1403 0.81372 0.0
C250 C 0.95297 0.08487 0.7611 0.0
O251 O 0.96571 0.0736 0.79052 0.0
C252 C 0.93342 0.0946 0.77649 0.0
C253 C 0.89578 0.1083 0.80095 0.0
C254 C 0.92414 0.12962 0.7635 0.0
C255 C 0.90526 0.13646 0.77641 0.0
C256 C 0.92321 0.06641 0.80138 0.0
C257 C 0.90412 0.07284 0.81275 0.0
C258 C 1.00719 0.02047 0.72377 0.0
O259 O 0.96017 0.10489 0.72776 0.0
H260 H 0.13006 0.03936 0.75774 0.0
H261 H 0.07712 0.98789 0.7963 0.0
H262 H 0.08105 0.11194 0.7731 0.0
H263 H 0.88146 0.11469 0.81163 0.0
H264 H 0.93151 0.15137 0.74394 0.0
H265 H 0.92997 0.03933 0.81109 0.0
Eu266 Eu 0.77829 0.67896 0.75016 0.0
C267 C 0.76123 0.64623 0.8483 0.0
O268 O 0.77438 0.61812 0.72256 0.0
C269 C 0.69045 0.73356 0.77182 0.0
C270 C 0.65198 0.7332 0.75105 0.0
C271 C 0.68027 0.76912 0.76958 0.0
C272 C 0.66094 0.76884 0.75811 0.0
C273 C 0.6812 0.69824 0.76239 0.0
C274 C 0.66187 0.69808 0.75211 0.0
Eu275 Eu 0.74468 0.73271 0.81516 0.0
O276 O 0.76196 0.72508 0.70973 0.0
O277 O 0.74745 0.78742 0.85659 0.0
O278 O 0.7504 0.6772 0.8562 0.0
O279 O 0.76295 0.76711 0.7672 0.0
C280 C 0.76378 0.80504 0.8624 0.0
O281 O 0.77946 0.78699 0.85121 0.0
O282 O 0.72384 0.7147 0.76533 0.0
C283 C 0.71021 0.73242 0.7875 0.0
C284 C 0.75908 0.59853 0.73357 0.0
O285 O 0.74472 0.61807 0.75012 0.0
O286 O 0.71527 0.74935 0.8248 0.0
O287 O 0.77257 0.64368 0.81347 0.0
C288 C 0.81377 0.69856 0.74858 0.0
O289 O 0.8018 0.71097 0.77918 0.0
C290 C 0.83351 0.68974 0.76252 0.0
C291 C 0.87072 0.67626 0.7893 0.0
C292 C 0.84426 0.65916 0.74287 0.0
C293 C 0.86328 0.65298 0.75559 0.0
C294 C 0.84239 0.71514 0.79308 0.0
C295 C 0.86125 0.70903 0.8055 0.0
C296 C 0.76194 0.76153 0.72419 0.0
O297 O 0.80582 0.67659 0.71791 0.0
H298 H 0.6368 0.73281 0.74595 0.0
H299 H 0.68732 0.79653 0.7764 0.0
H300 H 0.68882 0.67085 0.76491 0.0
H301 H 0.88433 0.66878 0.80349 0.0
H302 H 0.838 0.6407 0.71768 0.0
H303 H 0.83473 0.73974 0.80686 0.0
Eu304 Eu 0.99247 0.80187 0.56918 0.0
C305 C 1.00829 0.77059 0.47361 0.0
O306 O 0.99316 0.74484 0.60626 0.0
C307 C 0.08213 0.8448 0.52258 0.0
C308 C 0.12045 0.85621 0.54231 0.0
C309 C 0.09164 0.87881 0.50747 0.0
C310 C 0.11089 0.8845 0.51785 0.0
C311 C 0.09227 0.81681 0.54759 0.0
C312 C 0.11156 0.82212 0.55713 0.0
Eu313 Eu 0.02663 0.85353 0.50301 0.0
O314 O 1.00602 0.84893 0.61334 0.0
O315 O 0.02424 0.91378 0.47291 0.0
O316 O 0.01169 0.80697 0.4608 0.0
O317 O 0.01571 0.8922 0.55935 0.0
C318 C 1.00812 0.93272 0.4767 0.0
O319 O 0.9929 0.91236 0.48598 0.0
O320 O 0.04975 0.82658 0.5407 0.0
C321 C 0.06226 0.83573 0.50976 0.0
C322 C 1.00936 0.72772 0.61491 0.0
O323 O 0.02515 0.74666 0.60717 0.0
O324 O 0.05494 0.85405 0.47535 0.0
O325 O 1.00494 0.76251 0.51565 0.0
C326 C 0.95732 0.81879 0.55281 0.0
O327 O 0.97137 0.83013 0.52696 0.0
C328 C 0.93921 0.80713 0.53154 0.0
C329 C 0.90589 0.78892 0.48708 0.0
C330 C 0.93106 0.76975 0.53689 0.0
C331 C 0.9137 0.76143 0.51607 0.0
C332 C 0.92861 0.83647 0.51013 0.0
C333 C 0.91107 0.82829 0.48915 0.0
C334 C 0.01063 0.8847 0.60052 0.0
O335 O 0.96288 0.79975 0.58845 0.0
H336 H 0.13495 0.86214 0.5518 0.0
H337 H 0.08414 0.90077 0.48848 0.0
H338 H 0.08516 0.79077 0.55937 0.0
H339 H 0.89484 0.77886 0.46552 0.0
H340 H 0.93778 0.74801 0.5577 0.0
H341 H 0.93407 0.86578 0.51209 0.0
Eu342 Eu 0.27213 0.48335 0.57181 0.0
C343 C 0.25868 0.51458 0.47643 0.0
O344 O 0.26843 0.53809 0.61215 0.0
C345 C 0.18438 0.43925 0.50348 0.0
C346 C 0.14493 0.43394 0.51047 0.0
C347 C 0.17408 0.41269 0.47651 0.0
C348 C 0.15426 0.40856 0.48166 0.0
C349 C 0.17464 0.45914 0.53774 0.0
C350 C 0.15496 0.45521 0.54212 0.0
Eu351 Eu 0.24079 0.43148 0.50151 0.0
O352 O 0.26258 0.43136 0.61397 0.0
O353 O 0.24748 0.37161 0.47396 0.0
O354 O 0.25725 0.47814 0.46218 0.0
O355 O 0.24619 0.39357 0.56293 0.0
C356 C 0.26283 0.35276 0.48688 0.0
O357 O 0.27683 0.37282 0.50416 0.0
O358 O 0.2156 0.45997 0.52841 0.0
C359 C 0.20487 0.44768 0.49532 0.0
C360 C 0.25228 0.55704 0.61028 0.0
O361 O 0.23751 0.53941 0.59316 0.0
O362 O 0.21416 0.42707 0.46542 0.0
O363 O 0.25813 0.52115 0.51931 0.0
C364 C 0.30765 0.47452 0.55435 0.0
O365 O 0.2943 0.46113 0.5278 0.0
C366 C 0.32636 0.48529 0.53626 0.0
C367 C 0.36453 0.49678 0.51444 0.0
C368 C 0.33485 0.52227 0.54278 0.0
C369 C 0.35413 0.52798 0.53186 0.0
C370 C 0.33719 0.45477 0.51877 0.0
C371 C 0.35633 0.46014 0.50926 0.0
C372 C 0.25439 0.39828 0.60194 0.0
O373 O 0.30142 0.49237 0.59015 0.0
H374 H 0.12978 0.431 0.51511 0.0
H375 H 0.18144 0.39452 0.45267 0.0
H376 H 0.18236 0.47631 0.56189 0.0
H377 H 0.37946 0.50036 0.50727 0.0
H378 H 0.32679 0.54581 0.55761 0.0
H379 H 0.3312 0.42568 0.5164 0.0
Eu380 Eu 0.99578 0.48339 0.6832 0.0
C381 C 0.01108 0.5128 0.77776 0.0
O382 O 0.99754 0.53957 0.64429 0.0
C383 C 0.08594 0.43899 0.74603 0.0
C384 C 0.1252 0.44383 0.73872 0.0
C385 C 0.09765 0.4121 0.76941 0.0
C386 C 0.1176 0.41296 0.76348 0.0
C387 C 0.09431 0.46213 0.7126 0.0
C388 C 0.11398 0.463 0.70758 0.0
Eu389 Eu 0.02955 0.43005 0.75107 0.0
O390 O 1.00505 0.43187 0.63955 0.0
O391 O 0.02273 0.369 0.77519 0.0
O392 O 0.01335 0.47643 0.79193 0.0
O393 O 0.02415 0.39591 0.68702 0.0
C394 C 1.00715 0.35196 0.76091 0.0
O395 O 0.99396 0.37404 0.7432 0.0
O396 O 0.05431 0.4606 0.72647 0.0
C397 C 0.06551 0.44515 0.75689 0.0
C398 C 0.01324 0.56008 0.64506 0.0
O399 O 0.02876 0.54352 0.65988 0.0
O400 O 0.05671 0.42176 0.78486 0.0
O401 O 0.01123 0.51953 0.73488 0.0
C402 C 0.96088 0.47284 0.70596 0.0
O403 O 0.97514 0.45931 0.7297 0.0
C404 C 0.94266 0.48211 0.72783 0.0
C405 C 0.90596 0.49036 0.76136 0.0
C406 C 0.9325 0.51735 0.72086 0.0
C407 C 0.91385 0.52172 0.73792 0.0
C408 C 0.93364 0.45093 0.74903 0.0
C409 C 0.91479 0.45411 0.76227 0.0
C410 C 0.01467 0.39971 0.64944 0.0
O411 O 0.96587 0.4918 0.66985 0.0
H412 H 0.14041 0.44638 0.73538 0.0
H413 H 0.09121 0.39026 0.79046 0.0
H414 H 0.08559 0.47829 0.68939 0.0
H415 H 0.89177 0.49254 0.77465 0.0
H416 H 0.93876 0.54001 0.70068 0.0
H417 H 0.94045 0.42253 0.75012 0.0
Eu418 Eu 0.27315 0.79805 0.68097 0.0
C419 C 0.25733 0.76973 0.77555 0.0
O420 O 0.27094 0.7419 0.64299 0.0
C421 C 0.18428 0.8417 0.73561 0.0
C422 C 0.14557 0.84728 0.71731 0.0
C423 C 0.17362 0.87394 0.75172 0.0
C424 C 0.1541 0.87706 0.74187 0.0
C425 C 0.17524 0.81349 0.70877 0.0
C426 C 0.1559 0.81647 0.69878 0.0
Eu427 Eu 0.24015 0.85231 0.74768 0.0
O428 O 0.26365 0.84855 0.63649 0.0
O429 O 0.24514 0.91372 0.77276 0.0
O430 O 0.25629 0.80646 0.78905 0.0
O431 O 0.24735 0.88803 0.68586 0.0
C432 C 0.26096 0.93151 0.76148 0.0
O433 O 0.2751 0.90995 0.74733 0.0
O434 O 0.21631 0.82167 0.71794 0.0
C435 C 0.2044 0.83467 0.74839 0.0
C436 C 0.25451 0.72487 0.63724 0.0
O437 O 0.23895 0.74387 0.64721 0.0
O438 O 0.21238 0.85689 0.77883 0.0
O439 O 0.25745 0.76241 0.73274 0.0
C440 C 0.30847 0.80796 0.70004 0.0
O441 O 0.29474 0.82236 0.72489 0.0
C442 C 0.32729 0.80022 0.71961 0.0
C443 C 0.36185 0.79187 0.76243 0.0
C444 C 0.33582 0.76286 0.72216 0.0
C445 C 0.3539 0.75939 0.74168 0.0
C446 C 0.33805 0.83318 0.73077 0.0
C447 C 0.35578 0.82949 0.7516 0.0
C448 C 0.25589 0.88248 0.64739 0.0
O449 O 0.30276 0.78777 0.66546 0.0
H450 H 0.13063 0.84969 0.71007 0.0
H451 H 0.18048 0.89652 0.77099 0.0
H452 H 0.18328 0.7891 0.69577 0.0
H453 H 0.37455 0.78766 0.78196 0.0
H454 H 0.32893 0.73759 0.70787 0.0
H455 H 0.33266 0.86116 0.7204 0.0
Eu456 Eu 0.99184 0.18151 0.49778 0.0
C457 C 1.00731 0.15006 0.39808 0.0
O458 O 0.99559 0.12031 0.52464 0.0
C459 C 0.07786 0.23107 0.47553 0.0
C460 C 0.11039 0.24671 0.52372 0.0
C461 C 0.0873 0.26737 0.4697 0.0
C462 C 0.10465 0.27453 0.4921 0.0
C463 C 0.08741 0.20088 0.4977 0.0
C464 C 0.10455 0.20821 0.51896 0.0
Eu465 Eu 0.02509 0.23354 0.43243 0.0
O466 O 1.00839 0.22614 0.5398 0.0
O467 O 0.02386 0.29018 0.39504 0.0
O468 O 0.01471 0.18429 0.38702 0.0
O469 O 0.01021 0.27094 0.48434 0.0
C470 C 1.0075 0.30707 0.38776 0.0
O471 O 0.99182 0.2884 0.39734 0.0
O472 O 0.04595 0.20672 0.47622 0.0
C473 C 0.06016 0.22026 0.45234 0.0
C474 C 0.011 0.10034 0.51485 0.0
O475 O 0.0259 0.11962 0.50079 0.0
O476 O 0.05494 0.24039 0.41723 0.0
O477 O 0.99926 0.14434 0.43709 0.0
C478 C 0.95616 0.20072 0.49684 0.0
O479 O 0.96837 0.21254 0.46645 0.0
C480 C 0.93643 0.1913 0.4825 0.0
C481 C 0.89973 0.17528 0.45374 0.0
C482 C 0.92574 0.1608 0.50261 0.0
C483 C 0.90696 0.1529 0.48858 0.0
C484 C 0.92734 0.21639 0.45181 0.0
C485 C 0.90863 0.20915 0.43894 0.0
C486 C 0.00992 0.26298 0.52699 0.0
O487 O 0.96398 0.17961 0.52853 0.0
H488 H 0.12201 0.25236 0.54607 0.0
H489 H 0.08166 0.28858 0.4466 0.0
H490 H 0.08245 0.17102 0.49474 0.0
H491 H 0.8863 0.16756 0.43885 0.0
H492 H 0.93194 0.14434 0.52952 0.0
H493 H 0.93459 0.2418 0.43886 0.0
Eu494 Eu 0.7785 0.60412 0.49794 0.0
C495 C 0.7634 0.63359 0.39741 0.0
O496 O 0.77385 0.66581 0.5234 0.0
C497 C 0.6934 0.54962 0.46811 0.0
C498 C 0.65509 0.53959 0.48828 0.0
C499 C 0.68536 0.51171 0.4677 0.0
C500 C 0.6661 0.50688 0.47882 0.0
C501 C 0.6821 0.58172 0.47981 0.0
C502 C 0.66281 0.57687 0.48874 0.0
Eu503 Eu 0.74765 0.54805 0.43072 0.0
O504 O 0.7621 0.55841 0.53864 0.0
O505 O 0.74988 0.49197 0.39208 0.0
O506 O 0.75703 0.59861 0.38603 0.0
O507 O 0.76308 0.51311 0.48372 0.0
C508 C 0.76605 0.47315 0.39006 0.0
O509 O 0.78134 0.49036 0.40512 0.0
O510 O 0.7261 0.57121 0.4763 0.0
C511 C 0.71241 0.55841 0.45035 0.0
C512 C 0.75787 0.68369 0.51334 0.0
O513 O 0.74363 0.66228 0.4996 0.0
O514 O 0.71814 0.53996 0.41454 0.0
O515 O 0.77086 0.64027 0.43681 0.0
C516 C 0.8142 0.58534 0.4971 0.0
O517 O 0.80211 0.57378 0.46636 0.0
C518 C 0.83394 0.59503 0.48318 0.0
C519 C 0.87076 0.61186 0.45582 0.0
C520 C 0.84458 0.62465 0.50485 0.0
C521 C 0.86335 0.63301 0.49142 0.0
C522 C 0.84303 0.57131 0.45105 0.0
C523 C 0.86178 0.57901 0.43847 0.0
C524 C 0.76197 0.52132 0.5262 0.0
O525 O 0.80627 0.6061 0.52898 0.0
H526 H 0.64007 0.53586 0.49432 0.0
H527 H 0.69385 0.48662 0.45864 0.0
H528 H 0.68813 0.61082 0.47971 0.0
H529 H 0.8842 0.62047 0.44161 0.0
H530 H 0.83836 0.64025 0.53241 0.0
H531 H 0.83568 0.54665 0.4366 0.0
Eu532 Eu 0.99524 0.61424 0.24404 0.0
C533 C 1.00806 0.6382 0.34545 0.0
O534 O 0.99693 0.67672 0.21722 0.0
C535 C 0.07564 0.55012 0.28795 0.0
C536 C 0.11426 0.53684 0.27154 0.0
C537 C 0.08331 0.51196 0.29199 0.0
C538 C 0.10281 0.50552 0.28386 0.0
C539 C 0.08755 0.58075 0.27495 0.0
C540 C 0.10689 0.57441 0.26759 0.0
Eu541 Eu 0.02048 0.5513 0.31653 0.0
O542 O 0.01 0.56501 0.20407 0.0
O543 O 0.01739 0.49448 0.35371 0.0
O544 O 1.00793 0.6012 0.3582 0.0
O545 O 1.00648 0.51959 0.25897 0.0
C546 C 1.00245 0.47232 0.34761 0.0
O547 O 0.98776 0.48666 0.32655 0.0
O548 O 0.04364 0.57465 0.27578 0.0
C549 C 0.05646 0.5613 0.30376 0.0
C550 C 0.01258 0.69781 0.21978 0.0
O551 O 0.02855 0.67963 0.22803 0.0
O552 O 0.04942 0.54335 0.33857 0.0
O553 O 1.00805 0.64725 0.30287 0.0
C554 C 0.95961 0.59598 0.2534 0.0
O555 O 0.97255 0.58762 0.28359 0.0
C556 C 0.93971 0.60454 0.2675 0.0
C557 C 0.90258 0.61806 0.29505 0.0
C558 C 0.92873 0.63477 0.24755 0.0
C559 C 0.9097 0.64121 0.26085 0.0
C560 C 0.93072 0.57847 0.29731 0.0
C561 C 0.91175 0.58435 0.30946 0.0
C562 C 1.00889 0.52785 0.21672 0.0
O563 O 0.9665 0.61404 0.21833 0.0
H564 H 0.1293 0.53209 0.26693 0.0
H565 H 0.07443 0.48798 0.30262 0.0
H566 H 0.08201 0.61027 0.27338 0.0
H567 H 0.88901 0.62526 0.30967 0.0
H568 H 0.93486 0.65216 0.22132 0.0
H569 H 0.93827 0.55332 0.31007 0.0
Eu570 Eu 0.77501 0.16976 0.24353 0.0
C571 C 0.76028 0.14473 0.34279 0.0
O572 O 0.77486 0.10678 0.21804 0.0
C573 C 0.69277 0.22815 0.28018 0.0
C574 C 0.65587 0.23856 0.24854 0.0
C575 C 0.68365 0.26495 0.28493 0.0
C576 C 0.66476 0.26988 0.2699 0.0
C577 C 0.68256 0.19673 0.26246 0.0
C578 C 0.6638 0.20147 0.2489 0.0
Eu579 Eu 0.74719 0.23048 0.31289 0.0
O580 O 0.76125 0.21785 0.20008 0.0
O581 O 0.75037 0.28711 0.35021 0.0
O582 O 0.76006 0.18167 0.35566 0.0
O583 O 0.75988 0.26415 0.25519 0.0
C584 C 0.76623 0.30695 0.3475 0.0
O585 O 0.78089 0.29052 0.3283 0.0
O586 O 0.72466 0.20292 0.27458 0.0
C587 C 0.71142 0.21834 0.30002 0.0
C588 C 0.75955 0.08453 0.21909 0.0
O589 O 0.74303 0.10163 0.22344 0.0
O590 O 0.71795 0.23946 0.33306 0.0
O591 O 0.76083 0.13608 0.30017 0.0
C592 C 0.81005 0.18968 0.25835 0.0
O593 O 0.79607 0.19852 0.28569 0.0
C594 C 0.82919 0.18133 0.27714 0.0
C595 C 0.86339 0.16506 0.3186 0.0
C596 C 0.84066 0.1497 0.26208 0.0
C597 C 0.85867 0.14267 0.28158 0.0
C598 C 0.8373 0.20888 0.30655 0.0
C599 C 0.855 0.20132 0.32565 0.0
C600 C 0.75967 0.25501 0.21272 0.0
O601 O 0.8045 0.17032 0.22287 0.0
H602 H 0.64165 0.24199 0.2357 0.0
H603 H 0.69081 0.28875 0.30154 0.0
H604 H 0.68867 0.16766 0.26266 0.0
H605 H 0.87513 0.15678 0.33963 0.0
H606 H 0.83575 0.13163 0.235 0.0
H607 H 0.83012 0.23613 0.31368 0.0
Eu608 Eu 0.49305 0.30483 0.57009 0.0
C609 C 0.508 0.27283 0.47142 0.0
O610 O 0.49786 0.24928 0.61001 0.0
C611 C 0.58186 0.35559 0.50947 0.0
C612 C 0.62126 0.34624 0.51621 0.0
C613 C 0.59421 0.38196 0.48774 0.0
C614 C 0.614 0.37789 0.49239 0.0
C615 C 0.58973 0.32744 0.53824 0.0
C616 C 0.60942 0.32407 0.54327 0.0
Eu617 Eu 0.52433 0.36148 0.49865 0.0
O618 O 0.50688 0.35481 0.60998 0.0
O619 O 0.51415 0.40138 0.44364 0.0
O620 O 0.51576 0.30642 0.45919 0.0
O621 O 0.51175 0.39932 0.55373 0.0
C622 C 0.50954 0.43887 0.4442 0.0
O623 O 0.50281 0.45403 0.40739 0.0
O624 O 0.54945 0.33704 0.52964 0.0
C625 C 0.56087 0.35839 0.50496 0.0
C626 C 0.51105 0.2241 0.59788 0.0
O627 O 0.52347 0.23425 0.56764 0.0
O628 O 0.55232 0.38274 0.47772 0.0
O629 O 0.50071 0.26742 0.51104 0.0
C630 C 0.45716 0.31832 0.56117 0.0
O631 O 0.47021 0.33582 0.5371 0.0
C632 C 0.43901 0.30859 0.53897 0.0
C633 C 0.40302 0.29781 0.50159 0.0
C634 C 0.43124 0.27039 0.53549 0.0
C635 C 0.41303 0.2653 0.51651 0.0
C636 C 0.42825 0.34055 0.52452 0.0
C637 C 0.41025 0.33516 0.50678 0.0
C638 C 0.50941 0.39138 0.59633 0.0
O639 O 0.46399 0.29506 0.59203 0.0
H640 H 0.63641 0.34484 0.52181 0.0
H641 H 0.58853 0.40671 0.46973 0.0
H642 H 0.58063 0.3104 0.55971 0.0
H643 H 0.38874 0.29428 0.48899 0.0
H644 H 0.43902 0.24538 0.54776 0.0
H645 H 0.43334 0.37005 0.52997 0.0
Eu646 Eu 0.77612 0.9826 0.5691 0.0
C647 C 0.75865 1.01237 0.47168 0.0
O648 O 0.77142 0.03707 0.61034 0.0
C649 C 0.68157 0.93921 0.53013 0.0
C650 C 0.6436 0.92611 0.55264 0.0
C651 C 0.67224 0.90452 0.51635 0.0
C652 C 0.65317 0.89818 0.52801 0.0
C653 C 0.67128 0.96725 0.5552 0.0
C654 C 0.65207 0.96105 0.56576 0.0
Eu655 Eu 0.73725 0.93286 0.50926 0.0
O656 O 0.7651 0.93361 0.61432 0.0
O657 O 0.74181 0.8721 0.48083 0.0
O658 O 0.75097 0.97796 0.46232 0.0
O659 O 0.74652 0.89551 0.56816 0.0
C660 C 0.75786 0.85343 0.48832 0.0
O661 O 0.77237 0.87351 0.5031 0.0
O662 O 0.71379 0.96137 0.54439 0.0
C663 C 0.70124 0.94877 0.51522 0.0
C664 C 0.75741 0.06105 0.60076 0.0
O665 O 0.74459 0.0505 0.57167 0.0
O666 O 0.70876 0.92821 0.48269 0.0
O667 O 0.7664 0.01962 0.5106 0.0
C668 C 0.81214 0.97025 0.55857 0.0
O669 O 0.79902 0.95205 0.53539 0.0
C670 C 0.82999 0.98064 0.5353 0.0
C671 C 0.86331 0.99563 0.48853 0.0
C672 C 0.83823 0.01825 0.537 0.0
C673 C 0.85559 0.02504 0.51524 0.0
C674 C 0.84025 0.94998 0.51556 0.0
C675 C 0.85724 0.95696 0.49229 0.0
C676 C 0.75635 0.90038 0.60498 0.0
O677 O 0.80527 0.99415 0.58873 0.0
H678 H 0.62924 0.91962 0.56291 0.0
H679 H 0.67967 0.88271 0.49699 0.0
H680 H 0.67809 0.99396 0.56585 0.0
H681 H 0.87555 1.00254 0.46843 0.0
H682 H 0.83174 0.04128 0.55638 0.0
H683 H 0.83529 0.92055 0.52099 0.0
Eu684 Eu 0.49642 0.98067 0.68676 0.0
C685 C 0.50993 1.00652 0.78399 0.0
O686 O 0.49906 0.03615 0.64547 0.0
C687 C 0.57649 0.92764 0.73457 0.0
C688 C 0.61516 0.92459 0.71347 0.0
C689 C 0.58783 0.89601 0.749 0.0
C690 C 0.60718 0.8948 0.73841 0.0
C691 C 0.58499 0.95758 0.70862 0.0
C692 C 0.60448 0.95616 0.69801 0.0
Eu693 Eu 0.52049 0.91674 0.75954 0.0
O694 O 0.50666 0.92702 0.64636 0.0
O695 O 0.51378 0.8704 0.81244 0.0
O696 O 0.50775 0.9698 0.79731 0.0
O697 O 0.50892 0.88064 0.70232 0.0
C698 C 0.50851 0.83296 0.8148 0.0
O699 O 0.50337 0.8206 0.85429 0.0
O700 O 0.54341 0.94734 0.72442 0.0
C701 C 0.55648 0.93187 0.75017 0.0
C702 C 0.51305 0.06112 0.65127 0.0
O703 O 0.52757 0.05134 0.67596 0.0
O704 O 0.54969 0.90739 0.77985 0.0
O705 O 0.51197 1.01355 0.7414 0.0
C706 C 0.46082 0.97233 0.70593 0.0
O707 O 0.47443 0.95718 0.73036 0.0
C708 C 0.44216 0.98134 0.72623 0.0
C709 C 0.40832 0.99039 0.77236 0.0
C710 C 0.43563 0.01942 0.73708 0.0
C711 C 0.41805 0.0239 0.75938 0.0
C712 C 0.42976 0.94969 0.73152 0.0
C713 C 0.41228 0.95447 0.75301 0.0
C714 C 0.50758 0.88996 0.65988 0.0
O715 O 0.46678 0.99226 0.67141 0.0
H716 H 0.62989 0.92169 0.70393 0.0
H717 H 0.58173 0.87247 0.76826 0.0
H718 H 0.57655 0.982 0.69723 0.0
H719 H 0.39611 0.99302 0.79372 0.0
H720 H 0.44392 0.0448 0.72821 0.0
H721 H 0.43366 0.92164 0.71767 0.0
Eu722 Eu 0.77488 0.30333 0.68477 0.0
C723 C 0.75725 0.27367 0.7828 0.0
O724 O 0.77042 0.24751 0.64565 0.0
C725 C 0.6798 0.34961 0.73932 0.0
C726 C 0.64168 0.33269 0.74489 0.0
C727 C 0.668 0.3708 0.76909 0.0
C728 C 0.64802 0.3649 0.76946 0.0
C729 C 0.67108 0.32799 0.70517 0.0
C730 C 0.65152 0.32144 0.70669 0.0
Eu731 Eu 0.73734 0.35589 0.74698 0.0
O732 O 0.7633 0.35164 0.63903 0.0
O733 O 0.74538 0.41393 0.77725 0.0
O734 O 0.74834 0.30678 0.79202 0.0
O735 O 0.74753 0.39186 0.68828 0.0
C736 C 0.76161 0.43039 0.76669 0.0
O737 O 0.77517 0.40817 0.75086 0.0
O738 O 0.71207 0.33487 0.7126 0.0
C739 C 0.70085 0.35182 0.74198 0.0
C740 C 0.75685 0.22301 0.65674 0.0
O741 O 0.74412 0.23353 0.6861 0.0
O742 O 0.7096 0.37014 0.77448 0.0
O743 O 0.76605 0.26762 0.74484 0.0
C744 C 0.81076 0.31653 0.69437 0.0
O745 O 0.7977 0.33439 0.71811 0.0
C746 C 0.82921 0.30797 0.71565 0.0
C747 C 0.86563 0.29792 0.75026 0.0
C748 C 0.83662 0.26972 0.72195 0.0
C749 C 0.85501 0.26505 0.73988 0.0
C750 C 0.84044 0.34041 0.72662 0.0
C751 C 0.85862 0.33511 0.74354 0.0
C752 C 0.75577 0.38589 0.6497 0.0
O753 O 0.80399 0.29223 0.66458 0.0
H754 H 0.62781 0.32067 0.74922 0.0
H755 H 0.67453 0.39223 0.79037 0.0
H756 H 0.67926 0.31783 0.67703 0.0
H757 H 0.88001 0.29456 0.76247 0.0
H758 H 0.82833 0.24433 0.71312 0.0
H759 H 0.83539 0.36978 0.72014 0.0
Eu760 Eu 0.49339 0.66605 0.50711 0.0
C761 C 0.50949 0.64544 0.40778 0.0
O762 O 0.49779 0.60459 0.53473 0.0
C763 C 0.57591 0.72613 0.48046 0.0
C764 C 0.61349 0.73459 0.50832 0.0
C765 C 0.58344 0.76402 0.48862 0.0
C766 C 0.60245 0.76796 0.50331 0.0
C767 C 0.5877 0.69338 0.48541 0.0
C768 C 0.60654 0.69795 0.49812 0.0
Eu769 Eu 0.52172 0.73103 0.44175 0.0
O770 O 0.50495 0.71641 0.55064 0.0
O771 O 0.52034 0.78879 0.40606 0.0
O772 O 0.51002 0.68275 0.39628 0.0
O773 O 0.50634 0.76368 0.49646 0.0
C774 C 0.50443 0.80842 0.40298 0.0
O775 O 0.48857 0.7925 0.41647 0.0
O776 O 0.54299 0.70524 0.48604 0.0
C777 C 0.55693 0.71861 0.46122 0.0
C778 C 0.51392 0.58543 0.53029 0.0
O779 O 0.52924 0.60551 0.52102 0.0
O780 O 0.55148 0.73846 0.42613 0.0
O781 O 0.50837 0.63521 0.44981 0.0
C782 C 0.4572 0.6737 0.49529 0.0
O783 O 0.46962 0.6882 0.46693 0.0
C784 C 0.43621 0.67716 0.48975 0.0
C785 C 0.39841 0.69755 0.49482 0.0
C786 C 0.42355 0.6549 0.51639 0.0
C787 C 0.40376 0.66284 0.51602 0.0
C788 C 0.4283 0.7018 0.45702 0.0
C789 C 0.40883 0.71012 0.45809 0.0
C790 C 0.50563 0.75376 0.5386 0.0
O791 O 0.46461 0.65567 0.52977 0.0
H792 H 0.62829 0.73726 0.51749 0.0
H793 H 0.57482 0.78972 0.48322 0.0
H794 H 0.58257 0.66454 0.47672 0.0
H795 H 0.38453 0.70986 0.49933 0.0
H796 H 0.42923 0.63106 0.53572 0.0
H797 H 0.43697 0.71314 0.43031 0.0
Eu798 Eu 0.27819 0.10463 0.50122 0.0
C799 C 0.26062 0.13498 0.40313 0.0
O800 O 0.27632 0.1655 0.52977 0.0
C801 C 0.18925 0.05466 0.47237 0.0
C802 C 0.151 0.05028 0.49629 0.0
C803 C 0.17993 0.01795 0.47344 0.0
C804 C 0.1607 1.01592 0.48633 0.0
C805 C 0.17918 0.08849 0.48458 0.0
C806 C 0.16004 0.08629 0.49655 0.0
Eu807 Eu 0.24414 0.05018 0.4351 0.0
O808 O 0.26277 0.05782 0.54289 0.0
O809 O 0.24712 0.99425 0.39632 0.0
O810 O 0.25426 0.10027 0.3909 0.0
O811 O 0.26025 1.01443 0.48591 0.0
C812 C 0.26361 0.97654 0.39386 0.0
O813 O 0.27874 0.9952 0.40752 0.0
O814 O 0.22265 0.07338 0.48107 0.0
C815 C 0.20888 0.05989 0.45578 0.0
C816 C 0.26052 0.18525 0.52464 0.0
O817 O 0.24519 0.16572 0.51406 0.0
O818 O 0.21449 0.04088 0.42018 0.0
O819 O 0.268 0.14173 0.44263 0.0
C820 C 0.31382 0.08668 0.49536 0.0
O821 O 0.3013 0.07646 0.46491 0.0
C822 C 0.3337 0.09502 0.48192 0.0
C823 C 0.37217 0.10329 0.46229 0.0
C824 C 0.3437 0.12896 0.49583 0.0
C825 C 0.36309 0.13338 0.48516 0.0
C826 C 0.34334 0.06609 0.45732 0.0
C827 C 0.36266 0.06985 0.44785 0.0
C828 C 0.26114 0.02132 0.52871 0.0
O829 O 0.30651 0.10595 0.52911 0.0
H830 H 0.13607 0.0488 0.50446 0.0
H831 H 0.18754 0.99152 0.465 0.0
H832 H 0.18613 0.11668 0.48382 0.0
H833 H 0.38694 0.10696 0.45378 0.0
H834 H 0.33645 0.15173 0.51408 0.0
H835 H 0.33583 0.04041 0.44588 0.0
Eu836 Eu 0.49127 0.10503 0.25382 0.0
C837 C 0.50699 0.1342 0.35352 0.0
O838 O 0.49526 0.16579 0.22617 0.0
C839 C 0.57751 0.05263 0.28028 0.0
C840 C 0.61458 0.04468 0.24823 0.0
C841 C 0.58578 1.01497 0.27595 0.0
C842 C 0.60451 1.01134 0.25969 0.0
C843 C 0.5884 0.08574 0.26972 0.0
C844 C 0.60698 0.08158 0.25447 0.0
Eu845 Eu 0.52341 0.04886 0.32123 0.0
O846 O 0.50748 0.05951 0.21243 0.0
O847 O 0.52029 0.99388 0.36224 0.0
O848 O 0.51333 0.09931 0.36548 0.0
O849 O 0.50824 1.01424 0.26771 0.0
C850 C 0.50463 0.97325 0.35969 0.0
O851 O 0.49 0.98765 0.3384 0.0
O852 O 0.54472 0.07476 0.27723 0.0
C853 C 0.55869 0.05981 0.30075 0.0
C854 C 0.51141 0.18365 0.23391 0.0
O855 O 0.52591 0.16226 0.24626 0.0
O856 O 0.55322 0.03863 0.33483 0.0
O857 O 0.49996 0.14141 0.31386 0.0
C858 C 0.45556 0.087 0.25723 0.0
O859 O 0.46801 0.0749 0.28694 0.0
C860 C 0.43581 0.09535 0.27201 0.0
C861 C 0.39789 0.10531 0.29684 0.0
C862 C 0.42558 0.12897 0.25811 0.0
C863 C 0.40652 0.13398 0.27108 0.0
C864 C 0.42654 0.067 0.2983 0.0
C865 C 0.40752 0.07177 0.3107 0.0
C866 C 0.50857 0.0226 0.22522 0.0
O867 O 0.46303 0.10815 0.22513 0.0
H868 H 0.62915 0.04199 0.23718 0.0
H869 H 0.57796 0.98918 0.28564 0.0
H870 H 0.58284 0.11477 0.27583 0.0
H871 H 0.38345 0.11013 0.30764 0.0
H872 H 0.43237 0.15112 0.23801 0.0
H873 H 0.43411 0.04106 0.30877 0.0
Eu874 Eu 0.27775 0.67711 0.25266 0.0
C875 C 0.26232 0.64955 0.3513 0.0
O876 O 0.27167 0.619 0.22033 0.0
C877 C 0.19143 0.7282 0.29043 0.0
C878 C 0.15319 0.73735 0.26903 0.0
C879 C 0.18333 0.76624 0.28843 0.0
C880 C 0.16399 0.77079 0.2768 0.0
C881 C 0.1801 0.69557 0.28109 0.0
C882 C 0.16095 0.7002 0.2714 0.0
Eu883 Eu 0.24629 0.73369 0.31971 0.0
O884 O 0.26581 0.72671 0.20933 0.0
O885 O 0.24908 0.78976 0.35801 0.0
O886 O 0.2595 0.68617 0.36374 0.0
O887 O 0.25759 0.77131 0.26366 0.0
C888 C 0.26504 0.80938 0.35701 0.0
O889 O 0.27998 0.79296 0.33899 0.0
O890 O 0.22385 0.70628 0.28052 0.0
C891 C 0.21067 0.71977 0.30752 0.0
C892 C 0.25562 0.60086 0.22843 0.0
O893 O 0.24103 0.62183 0.24115 0.0
O894 O 0.21715 0.74023 0.34116 0.0
O895 O 0.26532 0.64099 0.30931 0.0
C896 C 0.31412 0.68228 0.26095 0.0
O897 O 0.30236 0.69834 0.28983 0.0
C898 C 0.33513 0.68466 0.26509 0.0
C899 C 0.37441 0.69386 0.26855 0.0
C900 C 0.34716 0.65877 0.24136 0.0
C901 C 0.36704 0.66195 0.24529 0.0
C902 C 0.3434 0.71019 0.29631 0.0
C903 C 0.36318 0.71347 0.29936 0.0
C904 C 0.26133 0.76264 0.22201 0.0
O905 O 0.30598 0.66445 0.22728 0.0
H906 H 0.13816 0.74004 0.26235 0.0
H907 H 0.19186 0.79161 0.29596 0.0
H908 H 0.18589 0.66636 0.28425 0.0
H909 H 0.38965 0.69683 0.27126 0.0
H910 H 0.34107 0.63487 0.2227 0.0
H911 H 0.33461 0.72537 0.32022 0.0
Eu912 Eu 0.49494 0.80318 0.0684 0.0
C913 C 0.51208 0.77448 0.97215 0.0
O914 O 0.49895 0.74864 0.10971 0.0
C915 C 0.58761 0.84339 0.02766 0.0
C916 C 0.6257 0.85219 0.05085 0.0
C917 C 0.59757 0.87794 0.01608 0.0
C918 C 0.61676 0.8825 0.02824 0.0
C919 C 0.59714 0.8138 0.05178 0.0
C920 C 0.61636 0.81786 0.06282 0.0
Eu921 Eu 0.53233 0.85364 0.00725 0.0
O922 O 0.50468 0.85382 0.11303 0.0
O923 O 0.52757 0.91436 0.97948 0.0
O924 O 0.5172 0.8104 0.96139 0.0
O925 O 0.5245 0.88986 0.06757 0.0
C926 C 0.51155 0.93269 0.98814 0.0
O927 O 0.49737 0.91239 0.00424 0.0
O928 O 0.55533 0.82198 0.03983 0.0
C929 C 0.56802 0.83545 0.01153 0.0
C930 C 0.51418 0.72704 0.10402 0.0
O931 O 0.5282 0.74071 0.08005 0.0
O932 O 0.5608 0.85796 0.98029 0.0
O933 O 0.5071 0.76563 0.013 0.0
C934 C 0.45936 0.81448 0.0523 0.0
O935 O 0.47287 0.83044 0.0282 0.0
C936 C 0.44058 0.80704 0.03214 0.0
C937 C 0.40373 0.79933 0.9993 0.0
C938 C 0.43251 0.76932 0.02679 0.0
C939 C 0.41393 0.76577 0.00964 0.0
C940 C 0.42979 0.84016 0.0212 0.0
C941 C 0.41145 0.83604 0.00485 0.0
C942 C 0.51436 0.88604 0.10397 0.0
O943 O 0.46544 0.79221 0.08489 0.0
H944 H 0.64038 0.85583 0.06018 0.0
H945 H 0.59045 0.90099 0.99802 0.0
H946 H 0.58973 0.78741 0.06125 0.0
H947 H 0.3892 0.79693 0.98792 0.0
H948 H 0.44048 0.74346 0.03568 0.0
H949 H 0.43541 0.86921 0.02674 0.0
Eu950 Eu 0.77295 0.47886 0.06432 0.0
C951 C 0.75992 0.50528 0.9636 0.0
O952 O 0.76912 0.53422 0.10473 0.0
C953 C 0.68933 0.42928 0.02288 0.0
C954 C 0.65105 0.41944 0.04362 0.0
C955 C 0.67988 0.39405 0.01167 0.0
C956 C 0.66061 0.38946 0.02246 0.0
C957 C 0.67911 0.45933 0.04463 0.0
C958 C 0.65975 0.45471 0.0543 0.0
Eu959 Eu 0.74416 0.41915 0.99284 0.0
O960 O 0.75946 0.42861 0.10453 0.0
O961 O 0.74416 0.35659 0.96628 0.0
O962 O 0.75733 0.4685 0.95048 0.0
O963 O 0.75914 0.38466 0.04739 0.0
C964 C 0.75951 0.33445 0.9658 0.0
O965 O 0.77607 0.35153 0.96891 0.0
O966 O 0.7226 0.44407 0.03744 0.0
C967 C 0.70905 0.43752 0.00816 0.0
C968 C 0.75425 0.55674 0.09822 0.0
O969 O 0.74038 0.54357 0.07341 0.0
O970 O 0.715 0.42098 0.97122 0.0
O971 O 0.76191 0.51434 0.00588 0.0
C972 C 0.8089 0.46617 0.05266 0.0
O973 O 0.79563 0.44939 0.02858 0.0
C974 C 0.82704 0.47634 0.03034 0.0
C975 C 0.86192 0.48879 0.98862 0.0
C976 C 0.83612 0.51333 0.0337 0.0
C977 C 0.85415 0.51923 0.01367 0.0
C978 C 0.83697 0.44525 0.01076 0.0
C979 C 0.85473 0.45125 0.9918 0.0
C980 C 0.75895 0.39195 0.09026 0.0
O981 O 0.80226 0.48867 0.08443 0.0
H982 H 0.63651 0.41421 0.05349 0.0
H983 H 0.68733 0.37075 0.99475 0.0
H984 H 0.68612 0.48632 0.05353 0.0
H985 H 0.87548 0.49254 0.97231 0.0
H986 H 0.82967 0.53627 0.05323 0.0
H987 H 0.83163 0.41568 0.01372 0.0
Eu988 Eu 0.49649 0.48478 0.18343 0.0
C989 C 0.51131 0.51347 0.28033 0.0
O990 O 0.49852 0.54126 0.14534 0.0
C991 C 0.58535 0.43878 0.23369 0.0
C992 C 0.62243 0.42357 0.2064 0.0
C993 C 0.59634 0.40973 0.25547 0.0
C994 C 0.61516 0.40165 0.24177 0.0
C995 C 0.59397 0.46213 0.20083 0.0
C996 C 0.6127 0.45522 0.18796 0.0
Eu997 Eu 0.52979 0.43152 0.24864 0.0
O998 O 0.50757 0.43593 0.13816 0.0
O999 O 0.52529 0.37108 0.27685 0.0
O1000 O 0.5146 0.47684 0.29227 0.0
O1001 O 0.52166 0.39423 0.18848 0.0
C1002 C 0.50961 0.35195 0.26752 0.0
O1003 O 0.49507 0.37183 0.2524 0.0
O1004 O 0.55362 0.46141 0.21778 0.0
C1005 C 0.56567 0.44849 0.24797 0.0
C1006 C 0.51413 0.562 0.14619 0.0
O1007 O 0.52937 0.54758 0.16487 0.0
O1008 O 0.55764 0.42714 0.2791 0.0
O1009 O 0.50873 0.52254 0.23835 0.0
C1010 C 0.46111 0.47144 0.19875 0.0
O1011 O 0.47461 0.45862 0.22529 0.0
C1012 C 0.44248 0.482 0.21741 0.0
C1013 C 0.40464 0.49499 0.24129 0.0
C1014 C 0.43479 0.52018 0.21558 0.0
C1015 C 0.41568 0.52641 0.22742 0.0
C1016 C 0.43098 0.451 0.23108 0.0
C1017 C 0.41205 0.4574 0.24214 0.0
C1018 C 0.51409 0.40092 0.14915 0.0
O1019 O 0.4672 0.49074 0.16383 0.0
H1020 H 0.63603 0.41598 0.19234 0.0
H1021 H 0.59027 0.39442 0.28338 0.0
H1022 H 0.58624 0.48612 0.18595 0.0
H1023 H 0.3898 0.49953 0.24901 0.0
H1024 H 0.44331 0.54435 0.20391 0.0
H1025 H 0.43636 0.42132 0.2301 0.0
Eu1026 Eu 0.77286 0.7996 0.18262 0.0
C1027 C 0.75747 0.77137 0.27699 0.0
O1028 O 0.77178 0.7414 0.14731 0.0
C1029 C 0.68969 0.85411 0.22933 0.0
C1030 C 0.65122 0.85605 0.20667 0.0
C1031 C 0.67816 0.88631 0.24199 0.0
C1032 C 0.65883 0.88741 0.23002 0.0
C1033 C 0.6814 0.82313 0.20487 0.0
C1034 C 0.66206 0.82387 0.19368 0.0
Eu1035 Eu 0.74611 0.86049 0.25279 0.0
O1036 O 0.76104 0.85044 0.14111 0.0
O1037 O 0.75323 0.90245 0.30857 0.0
O1038 O 0.75837 0.80786 0.2914 0.0
O1039 O 0.75872 0.89662 0.19663 0.0
C1040 C 0.75941 0.939 0.309 0.0
O1041 O 0.76405 0.95364 0.34781 0.0
O1042 O 0.72219 0.82968 0.22246 0.0
C1043 C 0.70968 0.84998 0.2453 0.0
C1044 C 0.75573 0.72279 0.14105 0.0
O1045 O 0.73967 0.74083 0.14871 0.0
O1046 O 0.71726 0.87676 0.27105 0.0
O1047 O 0.75672 0.76478 0.23412 0.0
C1048 C 0.80788 0.81221 0.20375 0.0
O1049 O 0.79364 0.82381 0.22885 0.0
C1050 C 0.82653 0.80345 0.22431 0.0
C1051 C 0.86243 0.79416 0.26194 0.0
C1052 C 0.83653 0.76762 0.21883 0.0
C1053 C 0.85511 0.76373 0.23631 0.0
C1054 C 0.83594 0.83522 0.24375 0.0
C1055 C 0.85418 0.83081 0.26085 0.0
C1056 C 0.76011 0.88751 0.15412 0.0
O1057 O 0.8028 0.79405 0.16716 0.0
H1058 H 0.63645 0.85746 0.19725 0.0
H1059 H 0.68414 0.9103 0.26069 0.0
H1060 H 0.6899 0.7982 0.19526 0.0
H1061 H 0.87632 0.7913 0.27692 0.0
H1062 H 0.83035 0.74406 0.19979 0.0
H1063 H 0.82975 0.86419 0.24226 0.0
Eu1064 Eu 0.49116 0.1814 1.0011 0.0
C1065 C 0.50654 0.14814 0.90159 0.0
O1066 O 0.49625 0.1199 0.02611 0.0
C1067 C 0.57622 0.23746 0.97736 0.0
C1068 C 0.61131 0.23399 0.01816 0.0
C1069 C 0.58509 0.27231 0.9918 0.0
C1070 C 0.60328 0.27054 0.01117 0.0
C1071 C 0.58681 0.20282 0.97571 0.0
C1072 C 0.60511 0.20212 0.99351 0.0
Eu1073 Eu 0.52218 0.23613 0.93307 0.0
O1074 O 0.50776 0.22715 0.0411 0.0
O1075 O 0.51846 0.29086 0.89153 0.0
O1076 O 0.51649 0.18006 0.8919 0.0
O1077 O 0.50484 0.26947 0.98437 0.0
C1078 C 0.50252 0.31079 0.89235 0.0
O1079 O 0.48745 0.29412 0.90931 0.0
O1080 O 0.54308 0.21821 0.98251 0.0
C1081 C 0.55657 0.23706 0.96128 0.0
C1082 C 0.51191 0.10211 0.01352 0.0
O1083 O 0.52568 0.12363 0.99759 0.0
O1084 O 0.5516 0.25367 0.92369 0.0
O1085 O 0.49627 0.14579 0.93811 0.0
C1086 C 0.4557 0.20111 0.00301 0.0
O1087 O 0.46771 0.21412 0.97289 0.0
C1088 C 0.43618 0.19186 0.98789 0.0
C1089 C 0.39967 0.17632 0.95764 0.0
C1090 C 0.42573 0.16023 0.00587 0.0
C1091 C 0.40717 0.15241 0.99084 0.0
C1092 C 0.42723 0.21753 0.9577 0.0
C1093 C 0.40865 0.21048 0.94378 0.0
C1094 C 0.50717 0.2637 0.02716 0.0
O1095 O 0.46363 0.17866 0.03337 0.0
H1096 H 0.62457 0.23168 0.03599 0.0
H1097 H 0.57805 0.30018 0.98776 0.0
H1098 H 0.58113 0.17742 0.95895 0.0
H1099 H 0.38626 0.16866 0.94255 0.0
H1100 H 0.43192 0.14254 0.0318 0.0
H1101 H 0.43457 0.24318 0.94564 0.0
Eu1102 Eu 0.28066 0.6006 0.99431 0.0
C1103 C 0.26212 0.63317 0.8981 0.0
O1104 O 0.27726 0.6618 0.02251 0.0
C1105 C 0.1887 0.55066 0.96728 0.0
C1106 C 0.15244 0.53565 1.00042 0.0
C1107 C 0.17917 0.51569 0.95547 0.0
C1108 C 0.16053 0.50868 0.9709 0.0
C1109 C 0.17884 0.57909 0.99159 0.0
C1110 C 0.1602 0.57263 0.00533 0.0
Eu1111 Eu 0.24273 0.55096 0.93364 0.0
O1112 O 0.26643 0.5548 0.03974 0.0
O1113 O 0.24558 0.49572 0.89381 0.0
O1114 O 0.25377 0.59963 0.88841 0.0
O1115 O 0.25433 0.51179 0.98814 0.0
C1116 C 0.26113 0.47475 0.89591 0.0
O1117 O 0.27616 0.48986 0.91488 0.0
O1118 O 0.22023 0.57728 0.97336 0.0
C1119 C 0.20697 0.56279 0.94728 0.0
C1120 C 0.26154 0.68172 0.01545 0.0
O1121 O 0.24654 0.66264 1.00166 0.0
O1122 O 0.21355 0.54318 0.91308 0.0
O1123 O 0.2715 0.63842 0.93551 0.0
C1124 C 0.31648 0.5834 0.98874 0.0
O1125 O 0.30407 0.57262 0.95834 0.0
C1126 C 0.33623 0.59342 0.97527 0.0
C1127 C 0.37457 0.60675 0.95742 0.0
C1128 C 0.34511 0.62834 0.98976 0.0
C1129 C 0.36433 0.63491 0.98021 0.0
C1130 C 0.34698 0.56579 0.95077 0.0
C1131 C 0.36633 0.5723 0.94216 0.0
C1132 C 0.26031 0.51945 0.02859 0.0
O1133 O 0.30891 0.60269 0.02218 0.0
H1134 H 0.13859 0.53028 0.01444 0.0
H1135 H 0.18579 0.49524 0.93287 0.0
H1136 H 0.18483 0.60807 0.9952 0.0
H1137 H 0.38921 0.61311 0.94934 0.0
H1138 H 0.33719 0.65021 0.00794 0.0
H1139 H 0.34038 0.5392 0.939 0.0
Eu1140 Eu 0.49838 0.61889 0.74292 0.0
C1141 C 0.51083 0.64429 0.84238 0.0
O1142 O 0.5042 0.66555 0.68979 0.0
C1143 C 0.57707 0.55344 0.78902 0.0
C1144 C 0.61481 0.53409 0.77037 0.0
C1145 C 0.58381 0.51499 0.79677 0.0
C1146 C 0.60293 0.50535 0.78768 0.0
C1147 C 0.58966 0.58178 0.77281 0.0
C1148 C 0.60861 0.57228 0.76453 0.0
Eu1149 Eu 0.52235 0.55564 0.8178 0.0
O1150 O 0.51052 0.56501 0.70565 0.0
O1151 O 0.51982 0.49797 0.85436 0.0
O1152 O 0.50939 0.60744 0.85557 0.0
O1153 O 0.50777 0.52169 0.76301 0.0
C1154 C 0.50368 0.47886 0.85565 0.0
O1155 O 0.48835 0.49636 0.84112 0.0
O1156 O 0.54513 0.57617 0.77414 0.0
C1157 C 0.55816 0.56717 0.80381 0.0
C1158 C 0.50897 0.70328 0.68723 0.0
O1159 O 0.51249 0.71659 0.64718 0.0
O1160 O 0.55132 0.55284 0.841 0.0
O1161 O 0.51151 0.6532 0.79976 0.0
C1162 C 0.46227 0.60481 0.75356 0.0
O1163 O 0.47558 0.58784 0.77729 0.0
C1164 C 0.443 0.61069 0.77321 0.0
C1165 C 0.40766 0.62219 0.81195 0.0
C1166 C 0.43045 0.63957 0.75623 0.0
C1167 C 0.41216 0.64495 0.77492 0.0
C1168 C 0.43579 0.58311 0.80398 0.0
C1169 C 0.41755 0.588 0.82156 0.0
C1170 C 0.50903 0.52841 0.72013 0.0
O1171 O 0.46896 0.63032 0.72493 0.0
H1172 H 0.62943 0.52715 0.76278 0.0
H1173 H 0.57447 0.49333 0.81107 0.0
H1174 H 0.58506 0.61187 0.76957 0.0
H1175 H 0.39507 0.62836 0.83119 0.0
H1176 H 0.43492 0.65622 0.72777 0.0
H1177 H 0.44398 0.55756 0.81294 0.0
Eu1178 Eu 0.27899 0.17928 0.75294 0.0
C1179 C 0.26363 0.1476 0.85196 0.0
O1180 O 0.27499 0.11939 0.7226 0.0
C1181 C 0.1908 0.22827 0.78919 0.0
C1182 C 0.15295 0.24483 0.76892 0.0
C1183 C 0.18384 0.267 0.79288 0.0
C1184 C 0.16469 0.275 0.78302 0.0
C1185 C 0.17857 0.19851 0.77507 0.0
C1186 C 0.1596 0.20667 0.76581 0.0
Eu1187 Eu 0.245 0.23037 0.81914 0.0
O1188 O 0.26409 0.2253 0.70924 0.0
O1189 O 0.24678 0.28677 0.85716 0.0
O1190 O 0.25746 0.18259 0.86389 0.0
O1191 O 0.25591 0.26937 0.76371 0.0
C1192 C 0.26213 0.30829 0.85571 0.0
O1193 O 0.27763 0.29346 0.83852 0.0
O1194 O 0.22268 0.20433 0.77839 0.0
C1195 C 0.20948 0.216 0.80642 0.0
C1196 C 0.25913 0.10013 0.72962 0.0
O1197 O 0.24438 0.11968 0.74416 0.0
O1198 O 0.21602 0.23408 0.84171 0.0
O1199 O 0.27006 0.14103 0.81153 0.0
C1200 C 0.31479 0.19621 0.75752 0.0
O1201 O 0.30229 0.20867 0.78692 0.0
C1202 C 0.33467 0.18871 0.7719 0.0
C1203 C 0.37297 0.18109 0.79437 0.0
C1204 C 0.34494 0.15463 0.75959 0.0
C1205 C 0.36422 0.15101 0.77134 0.0
C1206 C 0.344 0.21828 0.79624 0.0
C1207 C 0.36319 0.21454 0.80765 0.0
C1208 C 0.25908 0.26103 0.72169 0.0
O1209 O 0.30741 0.1749 0.7255 0.0
H1210 H 0.13819 0.2509 0.76173 0.0
H1211 H 0.19297 0.29021 0.8045 0.0
H1212 H 0.18345 0.16848 0.77456 0.0
H1213 H 0.38754 0.17692 0.8046 0.0
H1214 H 0.33806 0.13126 0.74158 0.0
H1215 H 0.33633 0.2442 0.80632 0.0
C1216 C 0.87156 0.39459 0.95665 0.0
C1217 C 0.86883 0.41988 0.99266 0.0
C1218 C 0.88612 0.36674 0.9578 0.0
C1219 C 0.89842 0.36425 0.99457 0.0
H1220 H 0.86243 0.39628 0.92783 0.0
H1221 H 0.88759 0.34655 0.93031 0.0
S1222 S 0.89685 0.42471 0.09654 0.0
N1223 N 0.87933 0.44114 0.06558 0.0
N1224 N 0.90677 0.38938 0.06745 0.0
C1225 C 0.89593 0.39008 0.03016 0.0
C1226 C 0.88106 0.41772 0.0293 0.0
C1227 C 0.37286 0.90656 0.03061 0.0
C1228 C 0.3678 0.92063 0.98839 0.0
C1229 C 0.38811 0.88127 0.03589 0.0
C1230 C 0.3987 0.86915 0.99909 0.0
H1231 H 0.36534 0.9163 0.05999 0.0
H1232 H 0.39137 0.87031 0.06879 0.0
S1233 S 0.39083 0.89638 0.88151 0.0
N1234 N 0.37445 0.92074 0.90925 0.0
N1235 N 0.40284 0.87127 0.91902 0.0
C1236 C 0.39367 0.88237 0.95661 0.0
C1237 C 0.37827 0.90868 0.95128 0.0
C1238 C 0.87657 0.8755 0.29973 0.0
C1239 C 0.86752 0.86349 0.26054 0.0
C1240 C 0.89209 0.90091 0.29791 0.0
C1241 C 0.89937 0.91335 0.25683 0.0
H1242 H 0.8717 0.86503 0.3317 0.0
H1243 H 0.89821 0.91149 0.32861 0.0
S1244 S 0.88127 0.88817 0.14509 0.0
N1245 N 0.86718 0.86486 0.17982 0.0
N1246 N 0.89665 0.91162 0.17649 0.0
C1247 C 0.89072 0.90064 0.2176 0.0
C1248 C 0.87469 0.87594 0.21944 0.0
C1249 C 0.37442 0.38867 0.28449 0.0
C1250 C 0.37011 0.36764 0.24581 0.0
C1251 C 0.3885 0.41742 0.2838 0.0
C1252 C 0.39882 0.42469 0.24476 0.0
H1253 H 0.367 0.38265 0.31521 0.0
H1254 H 0.39136 0.43398 0.31371 0.0
S1255 S 0.39263 0.37697 0.13539 0.0
N1256 N 0.37691 0.3558 0.16796 0.0
N1257 N 0.40362 0.40927 0.16681 0.0
C1258 C 0.39463 0.40356 0.20619 0.0
C1259 C 0.38017 0.37506 0.2067 0.0
C1260 C 0.14572 0.62845 0.967 0.0
C1261 C 0.14671 0.60552 0.00564 0.0
C1262 C 0.13133 0.65558 0.961 0.0
C1263 C 0.11744 0.66135 0.9936 0.0
H1264 H 0.1559 0.62469 0.94043 0.0
H1265 H 0.1314 0.67324 0.93111 0.0
S1266 S 0.11307 0.60813 0.10006 0.0
N1267 N 0.13198 0.58893 0.07619 0.0
N1268 N 0.10515 0.64193 0.06555 0.0
C1269 C 0.11793 0.63841 0.03215 0.0
C1270 C 0.13254 0.61006 0.03806 0.0
C1271 C 0.62773 0.10318 0.97668 0.0
C1272 C 0.64729 0.1122 0.9759 0.0
C1273 C 0.61398 0.13212 0.98149 0.0
C1274 C 0.6191 0.17147 0.98241 0.0
H1275 H 0.62275 0.07341 0.97448 0.0
H1276 H 0.59937 0.12345 0.98555 0.0
S1277 S 0.66745 0.2123 0.96835 0.0
N1278 N 0.67055 0.16478 0.97244 0.0
N1279 N 0.64441 0.21869 0.9702 0.0
C1280 C 0.63825 0.18128 0.97507 0.0
C1281 C 0.65241 0.15189 0.97451 0.0
C1282 C 0.13076 0.17339 0.79175 0.0
C1283 C 0.14572 0.17507 0.76114 0.0
C1284 C 0.11758 0.14335 0.79027 0.0
C1285 C 0.11882 0.11389 0.75802 0.0
H1286 H 0.12959 0.19489 0.81802 0.0
H1287 H 0.10687 0.14225 0.81597 0.0
S1288 S 0.15434 0.10724 0.66756 0.0
N1289 N 0.16054 0.14644 0.69604 0.0
N1290 N 0.13533 0.08977 0.69247 0.0
C1291 C 0.1333 0.11603 0.72598 0.0
C1292 C 0.1469 0.14662 0.72781 0.0
C1293 C 0.65172 0.63463 0.7834 0.0
C1294 C 0.65079 0.66175 0.74861 0.0
C1295 C 0.63805 0.60554 0.78758 0.0
C1296 C 0.62297 0.60267 0.75727 0.0
H1297 H 0.66234 0.63734 0.80913 0.0
H1298 H 0.63889 0.58596 0.81579 0.0
S1299 S 0.61547 0.66379 0.65743 0.0
N1300 N 0.63476 0.68165 0.68065 0.0
N1301 N 0.60867 0.62723 0.68949 0.0
C1302 C 0.62234 0.62838 0.72116 0.0
C1303 C 0.63644 0.6577 0.71645 0.0
C1304 C 0.90307 0.8997 0.4779 0.0
C1305 C 0.89713 0.86045 0.47678 0.0
C1306 C 0.89022 0.93051 0.48086 0.0
C1307 C 0.87049 0.92451 0.47935 0.0
H1308 H 0.91781 0.90757 0.47891 0.0
H1309 H 0.89621 0.95898 0.48692 0.0
S1310 S 0.84685 0.83008 0.45664 0.0
N1311 N 0.8693 0.81893 0.46328 0.0
N1312 N 0.84586 0.87781 0.4621 0.0
C1313 C 0.86429 0.88649 0.47014 0.0
C1314 C 0.87733 0.85439 0.47002 0.0
C1315 C 0.38044 0.4204 0.46854 0.0
C1316 C 0.36889 0.42627 0.506 0.0
C1317 C 0.39419 0.39084 0.46848 0.0
C1318 C 0.39681 0.36747 0.50626 0.0
H1319 H 0.37893 0.43891 0.43958 0.0
H1320 H 0.40279 0.38632 0.43915 0.0
S1321 S 0.37073 0.37244 0.61263 0.0
N1322 N 0.36122 0.40695 0.58156 0.0
N1323 N 0.38719 0.35195 0.58155 0.0
C1324 C 0.38542 0.37325 0.54365 0.0
C1325 C 0.37138 0.40262 0.54351 0.0
C1326 C 0.87341 0.38839 0.78744 0.0
C1327 C 0.87207 0.36712 0.74778 0.0
C1328 C 0.8883 0.41471 0.79396 0.0
C1329 C 0.90233 0.41973 0.76127 0.0
H1330 H 0.86302 0.38441 0.81348 0.0
H1331 H 0.88859 0.43201 0.82408 0.0
S1332 S 0.90519 0.3685 0.6527 0.0
N1333 N 0.88598 0.35102 0.67651 0.0
N1334 N 0.91395 0.40035 0.68825 0.0
C1335 C 0.90128 0.39745 0.72207 0.0
C1336 C 0.88609 0.37125 0.71539 0.0
C1337 C 0.38924 0.85464 0.75349 0.0
C1338 C 0.36958 0.86264 0.75528 0.0
C1339 C 0.40275 0.88411 0.75399 0.0
C1340 C 0.39748 0.92346 0.7532 0.0
H1341 H 0.39468 0.82532 0.75074 0.0
H1342 H 0.41748 0.87558 0.75464 0.0
S1343 S 0.34809 0.96174 0.75333 0.0
N1344 N 0.34581 0.91415 0.75878 0.0
N1345 N 0.37098 0.96926 0.74865 0.0
C1346 C 0.3779 0.93234 0.75248 0.0
C1347 C 0.36409 0.90217 0.75608 0.0
C1348 C 0.12211 0.1498 0.54841 0.0
C1349 C 0.11966 0.17861 0.51593 0.0
C1350 C 0.13627 0.12137 0.54355 0.0
C1351 C 0.14843 0.12119 0.50627 0.0
H1352 H 0.11283 0.14874 0.577 0.0
H1353 H 0.1373 0.09845 0.56822 0.0
S1354 S 0.14762 0.19105 0.41248 0.0
N1355 N 0.13027 0.20535 0.44535 0.0
N1356 N 0.15723 0.15291 0.43723 0.0
C1357 C 0.14646 0.15077 0.47455 0.0
C1358 C 0.1319 0.17911 0.47903 0.0
C1359 C 0.62098 0.63684 0.52693 0.0
C1360 C 0.62028 0.66616 0.49463 0.0
C1361 C 0.63558 0.60928 0.5265 0.0
C1362 C 0.64978 0.61023 0.49359 0.0
H1363 H 0.61037 0.63558 0.55285 0.0
H1364 H 0.63559 0.58661 0.5516 0.0
S1365 S 0.65407 0.68252 0.40248 0.0
N1366 N 0.63495 0.69585 0.43001 0.0
N1367 N 0.66216 0.64342 0.42832 0.0
C1368 C 0.64929 0.64002 0.46162 0.0
C1369 C 0.63451 0.66804 0.46223 0.0
C1370 C 0.13291 0.6656 0.29985 0.0
C1371 C 0.14795 0.66684 0.26946 0.0
C1372 C 0.11923 0.63653 0.29742 0.0
C1373 C 0.12011 0.60754 0.26455 0.0
H1374 H 0.13174 0.68737 0.32583 0.0
H1375 H 0.10821 0.63608 0.32241 0.0
S1376 S 0.1564 0.59885 0.17606 0.0
N1377 N 0.16284 0.6377 0.20483 0.0
N1378 N 0.137 0.58228 0.20013 0.0
C1379 C 0.13503 0.60858 0.23359 0.0
C1380 C 0.14903 0.63839 0.23615 0.0
C1381 C 0.62246 0.13755 0.21584 0.0
C1382 C 0.62033 0.11423 0.25379 0.0
C1383 C 0.63736 0.16445 0.21292 0.0
C1384 C 0.65066 0.16805 0.24753 0.0
H1385 H 0.61274 0.13462 0.18825 0.0
H1386 H 0.63835 0.18295 0.18383 0.0
S1387 S 0.65094 0.11267 0.35349 0.0
N1388 N 0.63248 0.09575 0.32612 0.0
N1389 N 0.66042 0.1461 0.32095 0.0
C1390 C 0.64865 0.14432 0.28531 0.0
C1391 C 0.63346 0.11752 0.2884 0.0
C1392 C 0.15611 0.43761 0.95057 0.0
C1393 C 0.14852 0.47526 0.95527 0.0
C1394 C 0.14422 0.40479 0.94847 0.0
C1395 C 0.12441 0.40818 0.95419 0.0
H1396 H 0.17123 0.43303 0.95214 0.0
H1397 H 0.1508 0.37623 0.94789 0.0
S1398 S 0.09745 0.50112 0.94963 0.0
N1399 N 0.11982 0.51454 0.94839 0.0
N1400 N 0.09775 0.45303 0.9524 0.0
C1401 C 0.11664 0.44587 0.95156 0.0
C1402 C 0.12868 0.47932 0.9506 0.0
C1403 C 0.1309 0.86082 0.94352 0.0
C1404 C 0.14498 0.8655 0.97618 0.0
C1405 C 0.11786 0.82974 0.94562 0.0
C1406 C 0.11803 0.8033 0.98143 0.0
H1407 H 0.12958 0.88196 0.91703 0.0
H1408 H 0.10766 0.82636 0.9191 0.0
S1409 S 0.15047 0.80641 0.07853 0.0
N1410 N 0.15772 0.84224 0.04614 0.0
N1411 N 0.13241 0.78647 0.0524 0.0
C1412 C 0.13167 0.80875 0.01502 0.0
C1413 C 0.14538 0.83896 0.01169 0.0
C1414 C 0.12736 0.84295 0.23694 0.0
C1415 C 0.12594 0.87001 0.27177 0.0
C1416 C 0.14108 0.81364 0.23717 0.0
C1417 C 0.15365 0.80878 0.27315 0.0
H1418 H 0.11806 0.84521 0.20842 0.0
H1419 H 0.14137 0.79348 0.20942 0.0
S1420 S 0.15694 0.87439 0.37082 0.0
N1421 N 0.13949 0.89305 0.34103 0.0
N1422 N 0.16444 0.83543 0.34355 0.0
C1423 C 0.15279 0.83638 0.30776 0.0
C1424 C 0.13907 0.86738 0.30672 0.0
C1425 C 0.12297 0.41021 0.24461 0.0
C1426 C 0.13794 0.4024 0.27478 0.0
C1427 C 0.11031 0.4412 0.25068 0.0
C1428 C 0.11217 0.46675 0.28659 0.0
H1429 H 0.12138 0.39341 0.21441 0.0
H1430 H 0.09983 0.44687 0.22524 0.0
S1431 S 0.14852 0.46121 0.37524 0.0
N1432 N 0.15326 0.42339 0.34302 0.0
N1433 N 0.13003 0.48316 0.35285 0.0
C1434 C 0.12682 0.45963 0.31734 0.0
C1435 C 0.13959 0.42737 0.31171 0.0
C1436 C 0.88639 0.54932 0.02493 0.0
C1437 C 0.86654 0.55436 0.02072 0.0
C1438 C 0.8991 0.58042 0.01927 0.0
C1439 C 0.89251 0.61837 0.01137 0.0
H1440 H 0.89233 0.52046 0.02969 0.0
H1441 H 0.91409 0.57408 0.01813 0.0
S1442 S 0.84205 0.64963 0.01237 0.0
N1443 N 0.84109 0.60161 0.01616 0.0
N1444 N 0.86473 0.66077 0.01181 0.0
C1445 C 0.87271 0.62472 0.01452 0.0
C1446 C 0.85978 0.59269 0.01781 0.0
C1447 C 0.90378 0.20114 0.97767 0.0
C1448 C 0.90305 0.22388 0.01618 0.0
C1449 C 0.89011 0.17264 0.96924 0.0
C1450 C 0.87522 0.16476 0.99939 0.0
H1451 H 0.91428 0.20719 0.95238 0.0
H1452 H 0.89102 0.15735 0.93784 0.0
S1453 S 0.86702 0.21734 0.1054 0.0
N1454 N 0.88608 0.23818 0.08438 0.0
N1455 N 0.8609 0.18276 0.06994 0.0
C1456 C 0.87451 0.18715 0.03853 0.0
C1457 C 0.88833 0.21688 0.04669 0.0
C1458 C 0.87328 0.20668 0.71387 0.0
C1459 C 0.86463 0.22743 0.74881 0.0
C1460 C 0.88763 0.17898 0.72232 0.0
C1461 C 0.89419 0.17217 0.7658 0.0
H1462 H 0.8694 0.21288 0.67979 0.0
H1463 H 0.89338 0.16233 0.69488 0.0
S1464 S 0.87681 0.22056 0.86831 0.0
N1465 N 0.86375 0.23931 0.82822 0.0
N1466 N 0.89127 0.1894 0.84381 0.0
C1467 C 0.88584 0.19337 0.80071 0.0
C1468 C 0.87087 0.22014 0.79235 0.0
C1469 C 0.86902 0.58362 0.73087 0.0
C1470 C 0.87582 0.62163 0.73701 0.0
C1471 C 0.88155 0.55208 0.72616 0.0
C1472 C 0.90144 0.55678 0.73007 0.0
H1473 H 0.854 0.5777 0.73256 0.0
H1474 H 0.87542 0.52337 0.72208 0.0
S1475 S 0.92629 0.65195 0.73313 0.0
N1476 N 0.90365 0.66348 0.73358 0.0
N1477 N 0.92706 0.60385 0.73198 0.0
C1478 C 0.90835 0.59512 0.73112 0.0
C1479 C 0.89558 0.62748 0.73298 0.0
C1480 C 0.1433 0.95632 0.45836 0.0
C1481 C 0.15 0.97918 0.49393 0.0
C1482 C 0.12951 0.92709 0.46532 0.0
C1483 C 0.12167 0.92066 0.50776 0.0
H1484 H 0.14841 0.96163 0.425 0.0
H1485 H 0.12519 0.90899 0.43766 0.0
S1486 S 0.13417 0.97347 0.61117 0.0
N1487 N 0.1478 0.99314 0.57278 0.0
N1488 N 0.12158 0.93985 0.58537 0.0
C1489 C 0.12817 0.94373 0.54317 0.0
C1490 C 0.14242 0.9724 0.5364 0.0
C1491 C 0.11167 0.34332 0.46347 0.0
C1492 C 0.11814 0.30717 0.47984 0.0
C1493 C 0.12413 0.37503 0.45739 0.0
C1494 C 0.14349 0.37254 0.46898 0.0
H1495 H 0.09677 0.34806 0.45751 0.0
H1496 H 0.11822 0.40282 0.44727 0.0
S1497 S 0.16832 0.2827 0.50432 0.0
N1498 N 0.14638 0.26896 0.49691 0.0
N1499 N 0.16875 0.3296 0.4926 0.0
C1500 C 0.15039 0.33581 0.4814 0.0
C1501 C 0.13798 0.3031 0.48532 0.0
C1502 C 0.14502 0.36974 0.74235 0.0
C1503 C 0.13068 0.37926 0.77361 0.0
C1504 C 0.15747 0.33851 0.74852 0.0
C1505 C 0.15598 0.31426 0.78559 0.0
H1506 H 0.14631 0.38547 0.71136 0.0
H1507 H 0.16744 0.33156 0.72233 0.0
S1508 S 0.121 0.32346 0.87674 0.0
N1509 N 0.11617 0.36074 0.84378 0.0
N1510 N 0.13896 0.30021 0.8537 0.0
C1511 C 0.14189 0.32277 0.81726 0.0
C1512 C 0.12935 0.35541 0.81156 0.0
C1513 C 0.11577 0.95444 0.72977 0.0
C1514 C 0.11468 0.97163 0.77186 0.0
C1515 C 0.12919 0.92562 0.7204 0.0
C1516 C 0.14195 0.91169 0.75295 0.0
H1517 H 0.10679 0.96483 0.70309 0.0
H1518 H 0.12959 0.91411 0.68691 0.0
S1519 S 0.14574 0.94974 0.86793 0.0
N1520 N 0.12832 0.97534 0.84573 0.0
N1521 N 0.1529 0.91902 0.82904 0.0
C1522 C 0.14114 0.92902 0.79529 0.0
C1523 C 0.12761 0.95925 0.80455 0.0
C1524 C 0.86112 0.09755 0.5119 0.0
C1525 C 0.86755 0.06019 0.52267 0.0
C1526 C 0.87398 0.12837 0.50636 0.0
C1527 C 0.89391 0.12255 0.50835 0.0
H1528 H 0.84628 0.1025 0.50505 0.0
H1529 H 0.86815 0.15655 0.49758 0.0
S1530 S 0.91675 0.03214 0.55005 0.0
N1531 N 0.89409 0.02142 0.54825 0.0
N1532 N 0.91857 0.07749 0.53204 0.0
C1533 C 0.90014 0.08624 0.52453 0.0
C1534 C 0.88688 0.05558 0.53277 0.0
C1535 C 0.89598 0.65771 0.51108 0.0
C1536 C 0.87605 0.66329 0.51213 0.0
C1537 C 0.90866 0.68887 0.51628 0.0
C1538 C 0.90197 0.72635 0.52562 0.0
H1539 H 0.90192 0.62951 0.50272 0.0
H1540 H 0.92354 0.6841 0.50979 0.0
S1541 S 0.85225 0.75425 0.54921 0.0
N1542 N 0.85093 0.70829 0.53304 0.0
N1543 N 0.87493 0.76535 0.54839 0.0
C1544 C 0.88252 0.73087 0.53485 0.0
C1545 C 0.86949 0.69974 0.52706 0.0
C1546 C 0.87645 0.66251 0.24084 0.0
C1547 C 0.89619 0.67059 0.24084 0.0
C1548 C 0.86282 0.69199 0.23549 0.0
C1549 C 0.86829 0.73044 0.22697 0.0
H1550 H 0.87132 0.63348 0.24826 0.0
H1551 H 0.84809 0.68507 0.24116 0.0
S1552 S 0.91738 0.76482 0.20619 0.0
N1553 N 0.91999 0.71903 0.22216 0.0
N1554 N 0.89438 0.77285 0.20543 0.0
C1555 C 0.88772 0.73745 0.21853 0.0
C1556 C 0.90167 0.70801 0.22688 0.0
C1557 C 0.86761 0.08025 0.24092 0.0
C1558 C 0.87319 0.11399 0.26402 0.0
C1559 C 0.88075 0.05112 0.22959 0.0
C1560 C 0.89996 0.05337 0.24247 0.0
H1561 H 0.85289 0.07514 0.23322 0.0
H1562 H 0.87551 0.02519 0.21308 0.0
S1563 S 0.92311 0.13848 0.29463 0.0
N1564 N 0.90076 0.1514 0.28955 0.0
N1565 N 0.92437 0.09378 0.27457 0.0
C1566 C 0.90611 0.08792 0.26226 0.0
C1567 C 0.893 0.11871 0.27166 0.0
C1568 C 0.63553 0.42079 0.44617 0.0
C1569 C 0.62707 0.41141 0.4871 0.0
C1570 C 0.64975 0.44964 0.44362 0.0
C1571 C 0.65624 0.4689 0.48209 0.0
H1572 H 0.63109 0.40598 0.41617 0.0
H1573 H 0.65513 0.45805 0.41133 0.0
S1574 S 0.63897 0.45371 0.59706 0.0
N1575 N 0.62627 0.42348 0.5666 0.0
N1576 N 0.65337 0.4758 0.56203 0.0
C1577 C 0.64827 0.45857 0.52314 0.0
C1578 C 0.63356 0.43046 0.52555 0.0
C1579 C 0.62321 0.8098 0.5499 0.0
C1580 C 0.61269 0.80538 0.51039 0.0
C1581 C 0.6377 0.83745 0.55347 0.0
C1582 C 0.64221 0.86238 0.51795 0.0
H1583 H 0.6207 0.79046 0.57777 0.0
H1584 H 0.64506 0.84025 0.58488 0.0
S1585 S 0.61809 0.86523 0.40875 0.0
N1586 N 0.60752 0.82924 0.4355 0.0
N1587 N 0.63412 0.88295 0.44322 0.0
C1588 C 0.63145 0.85931 0.47884 0.0
C1589 C 0.6168 0.83062 0.47492 0.0
C1590 C 0.63718 0.80686 0.71542 0.0
C1591 C 0.64899 0.80424 0.75305 0.0
C1592 C 0.62266 0.8344 0.71289 0.0
C1593 C 0.61948 0.86093 0.74755 0.0
H1594 H 0.63891 0.78663 0.68803 0.0
H1595 H 0.61417 0.83572 0.68295 0.0
S1596 S 0.64751 0.86949 0.85103 0.0
N1597 N 0.65708 0.83199 0.82479 0.0
N1598 N 0.63024 0.88551 0.81882 0.0
C1599 C 0.63162 0.85996 0.78451 0.0
C1600 C 0.64632 0.83134 0.78747 0.0
C1601 C 0.62961 0.46273 0.8142 0.0
C1602 C 0.61146 0.46598 0.79524 0.0
C1603 C 0.64051 0.4286 0.80993 0.0
C1604 C 0.63392 0.39567 0.78626 0.0
H1605 H 0.63599 0.48784 0.83012 0.0
H1606 H 0.65457 0.4294 0.8237 0.0
S1607 S 0.58437 0.38682 0.74186 0.0
N1608 N 0.58581 0.43216 0.7595 0.0
N1609 N 0.60501 0.36719 0.75366 0.0
C1610 C 0.61445 0.39726 0.77278 0.0
C1611 C 0.60359 0.43253 0.77664 0.0
C1612 C 0.39385 0.59983 0.55486 0.0
C1613 C 0.3888 0.63271 0.52907 0.0
C1614 C 0.38192 0.56717 0.55872 0.0
C1615 C 0.36413 0.56586 0.53781 0.0
H1616 H 0.40745 0.59816 0.571 0.0
H1617 H 0.38708 0.54181 0.57652 0.0
S1618 S 0.34171 0.64439 0.4724 0.0
N1619 N 0.36253 0.66189 0.48646 0.0
N1620 N 0.34087 0.60066 0.49488 0.0
C1621 C 0.35794 0.59914 0.5156 0.0
C1622 C 0.37002 0.63246 0.51101 0.0
C1623 C 0.38676 0.18355 0.46118 0.0
C1624 C 0.37481 0.16887 0.49492 0.0
C1625 C 0.40055 0.21183 0.46986 0.0
C1626 C 0.4029 0.22754 0.51253 0.0
H1627 H 0.38555 0.17274 0.42746 0.0
H1628 H 0.40891 0.22284 0.44242 0.0
S1629 S 0.37391 0.20363 0.61151 0.0
N1630 N 0.36568 0.17428 0.57246 0.0
N1631 N 0.39096 0.22938 0.58811 0.0
C1632 C 0.39066 0.21446 0.54633 0.0
C1633 C 0.37673 0.18495 0.53766 0.0
C1634 C 0.38719 0.19012 0.29749 0.0
C1635 C 0.39485 0.16924 0.2614 0.0
C1636 C 0.37299 0.21814 0.29144 0.0
C1637 C 0.36577 0.2268 0.24899 0.0
H1638 H 0.392 0.18413 0.33099 0.0
H1639 H 0.36802 0.23424 0.32016 0.0
S1640 S 0.38109 0.1809 0.14338 0.0
N1641 N 0.39399 0.15882 0.18169 0.0
N1642 N 0.36771 0.21285 0.17004 0.0
C1643 C 0.37331 0.20632 0.21252 0.0
C1644 C 0.38778 0.1774 0.21876 0.0
C1645 C 0.39362 0.61853 0.26975 0.0
C1646 C 0.38029 0.62859 0.23651 0.0
C1647 C 0.40637 0.58772 0.26439 0.0
C1648 C 0.40626 0.56492 0.2259 0.0
H1649 H 0.39386 0.63383 0.30121 0.0
H1650 H 0.41565 0.58021 0.29174 0.0
S1651 S 0.37409 0.57656 0.12953 0.0
N1652 N 0.36791 0.61226 0.16354 0.0
N1653 N 0.3915 0.55289 0.15441 0.0
C1654 C 0.39308 0.57403 0.19239 0.0
C1655 C 0.38015 0.606 0.19754 0.0
C1656 C 0.65546 0.959 0.04003 0.0
C1657 C 0.65725 0.97393 0.99692 0.0
C1658 C 0.64143 0.93158 0.05032 0.0
C1659 C 0.62865 0.91749 0.01785 0.0
H1660 H 0.66443 0.96988 0.06643 0.0
H1661 H 0.64066 0.92102 0.0842 0.0
S1662 S 0.6254 0.95328 0.90197 0.0
N1663 N 0.64357 0.97708 0.92309 0.0
N1664 N 0.6177 0.92417 0.94178 0.0
C1665 C 0.62984 0.93349 0.97502 0.0
C1666 C 0.64408 0.96174 0.96469 0.0
C1667 C 0.62883 0.30647 0.05178 0.0
C1668 C 0.61651 0.30426 0.01497 0.0
C1669 C 0.64484 0.33053 0.05137 0.0
C1670 C 0.64913 0.35409 0.01451 0.0
H1671 H 0.62627 0.28869 0.08093 0.0
H1672 H 0.65338 0.33241 0.08118 0.0
S1673 S 0.62122 0.36117 0.91066 0.0
N1674 N 0.60988 0.32822 0.94056 0.0
N1675 N 0.63936 0.37532 0.94119 0.0
C1676 C 0.63687 0.35276 0.97783 0.0
C1677 C 0.62067 0.32776 0.97788 0.0
C1678 C 0.66012 0.34284 0.26562 0.0
C1679 C 0.65313 0.306 0.27706 0.0
C1680 C 0.64779 0.37461 0.25949 0.0
C1681 C 0.6278 0.37047 0.2617 0.0
H1682 H 0.67502 0.34666 0.25859 0.0
H1683 H 0.6541 0.4022 0.25023 0.0
S1684 S 0.60326 0.28229 0.30452 0.0
N1685 N 0.62578 0.27004 0.30392 0.0
N1686 N 0.60235 0.32739 0.28544 0.0
C1687 C 0.62096 0.33476 0.27837 0.0
C1688 C 0.63369 0.30322 0.28755 0.0
C1689 C 0.63414 0.93475 0.2047 0.0
C1690 C 0.64565 0.92058 0.23948 0.0
C1691 C 0.61924 0.96078 0.21259 0.0
C1692 C 0.61523 0.97435 0.25557 0.0
H1693 H 0.63663 0.92536 0.17083 0.0
H1694 H 0.61138 0.97202 0.18445 0.0
S1695 S 0.64192 0.94957 0.35772 0.0
N1696 N 0.65227 0.92333 0.31855 0.0
N1697 N 0.62475 0.97405 0.33301 0.0
C1698 C 0.62679 0.96121 0.29061 0.0
C1699 C 0.64192 0.93416 0.28265 0.0
C1700 C 0.37493 0.12563 0.0091 0.0
C1701 C 0.3948 0.12008 0.00791 0.0
C1702 C 0.36236 0.09418 0.0124 0.0
C1703 C 0.36909 0.05599 0.01714 0.0
H1704 H 0.3689 0.15441 0.00441 0.0
H1705 H 0.34738 0.09969 0.00845 0.0
S1706 S 0.41937 0.0268 0.03262 0.0
N1707 N 0.42032 0.07375 0.02059 0.0
N1708 N 0.39669 1.0157 0.03373 0.0
C1709 C 0.38877 0.05082 0.02377 0.0
C1710 C 0.40164 0.08255 0.01769 0.0
C1711 C 0.3827 0.67805 0.03181 0.0
C1712 C 0.37465 0.67157 0.98967 0.0
C1713 C 0.39682 0.70661 0.03801 0.0
C1714 C 0.40372 0.72859 0.00197 0.0
H1715 H 0.37836 0.66036 0.05983 0.0
H1716 H 0.40198 0.71227 0.07126 0.0
S1717 S 0.38778 0.72148 0.88476 0.0
N1718 N 0.37472 0.68925 0.91155 0.0
N1719 N 0.40167 0.7412 0.92266 0.0
C1720 C 0.39603 0.72152 0.95961 0.0
C1721 C 0.38135 0.69369 0.95366 0.0
C1722 C 0.3774 0.66324 0.76654 0.0
C1723 C 0.39673 0.6713 0.75652 0.0
C1724 C 0.36286 0.69016 0.75829 0.0
C1725 C 0.36667 0.72518 0.73655 0.0
H1726 H 0.37323 0.63648 0.78272 0.0
H1727 H 0.34885 0.68447 0.77123 0.0
S1728 S 0.41268 0.75608 0.68898 0.0
N1729 N 0.41758 0.71541 0.71597 0.0
N1730 N 0.38973 0.76271 0.69493 0.0
C1731 C 0.38507 0.73094 0.71966 0.0
C1732 C 0.40019 0.70489 0.73071 0.0
C1733 C 0.38133 0.09439 0.8029 0.0
C1734 C 0.37604 0.11558 0.76486 0.0
C1735 C 0.39661 0.06832 0.80224 0.0
C1736 C 0.40702 0.06106 0.76305 0.0
H1737 H 0.374 0.0992 0.83405 0.0
H1738 H 0.3998 0.05233 0.83238 0.0
S1739 S 0.39985 0.11159 0.65535 0.0
N1740 N 0.38349 0.13049 0.68814 0.0
N1741 N 0.41134 0.07909 0.68566 0.0
C1742 C 0.40215 0.0828 0.72503 0.0
C1743 C 0.3868 0.11024 0.7261 0.0
C1744 C 1.00365 0.20628 0.87124 0.0
C1745 C 1.00579 0.16727 0.88617 0.0
C1746 C 1.0052 0.23877 0.90023 0.0
C1747 C 1.0086 0.23418 0.94612 0.0
H1748 H 1.00085 0.21197 0.83654 0.0
H1749 H 1.0035 0.26777 0.88646 0.0
S1750 S 0.01483 0.13848 0.00327 0.0
N1751 N 0.0114 0.1265 0.9508 0.0
N1752 N 0.01386 0.18659 0.00499 0.0
C1753 C 0.01057 0.19528 0.96164 0.0
C1754 C 1.00928 0.16227 0.93195 0.0
C1755 C 0.25221 0.08486 0.95594 0.0
C1756 C 0.25879 0.04702 0.94502 0.0
C1757 C 0.25392 0.11693 0.92632 0.0
C1758 C 0.26265 0.11325 0.88427 0.0
H1759 H 0.24546 0.08979 0.98774 0.0
H1760 H 0.24825 0.14487 0.93658 0.0
S1761 S 0.28436 0.02139 0.84151 0.0
N1762 N 0.27543 1.00857 0.88998 0.0
N1763 N 0.27919 0.06806 0.83517 0.0
C1764 C 0.26974 0.0756 0.8735 0.0
C1765 C 0.26768 0.04287 0.90345 0.0
C1766 C 1.00131 0.07816 0.37925 0.0
C1767 C 1.00853 0.1152 0.36655 0.0
C1768 C 1.00277 0.0447 0.35158 0.0
C1769 C 0.01134 0.04632 0.30931 0.0
H1770 H 0.99442 0.07473 0.41113 0.0
H1771 H 0.99675 0.01749 0.36316 0.0
S1772 S 0.03412 0.1345 0.26093 0.0
N1773 N 0.0258 0.1499 0.30907 0.0
N1774 N 0.02823 0.088 0.25743 0.0
C1775 C 0.01894 0.08285 0.29649 0.0
C1776 C 0.01763 0.11682 0.32482 0.0
C1777 C 0.27213 0.17423 0.337 0.0
C1778 C 0.2591 0.16914 0.37183 0.0
C1779 C 0.2716 0.20757 0.30923 0.0
C1780 C 0.25816 0.23781 0.31518 0.0
H1781 H 0.28297 0.15242 0.33139 0.0
H1782 H 0.28195 0.20978 0.28285 0.0
S1783 S 0.21969 0.23669 0.39878 0.0
N1784 N 0.23161 0.19616 0.409 0.0
N1785 N 0.23067 0.25847 0.35719 0.0
C1786 C 0.24493 0.23278 0.34964 0.0
C1787 C 0.2454 0.19866 0.37776 0.0
C1788 C 0.99441 0.8555 0.09314 0.0
C1789 C 0.01 0.86079 0.12179 0.0
C1790 C 0.99307 0.82274 0.06444 0.0
C1791 C 1.00712 0.79341 0.06335 0.0
H1792 H 0.98297 0.87651 0.09337 0.0
H1793 H 0.98081 0.8202 0.0431 0.0
S1794 S 0.05244 0.79686 0.12461 0.0
N1795 N 0.04091 0.83577 0.14253 0.0
N1796 N 0.03818 0.77469 0.08935 0.0
C1797 C 0.02301 0.79899 0.09058 0.0
C1798 C 0.02448 0.83239 0.11956 0.0
C1799 C 0.76509 0.99123 0.10464 0.0
C1800 C 0.76121 0.98646 0.05898 0.0
C1801 C 0.76488 0.95927 0.13455 0.0
C1802 C 0.76074 0.92069 0.1207 0.0
H1803 H 0.7684 0.01992 0.11756 0.0
H1804 H 0.76817 0.96495 0.169 0.0
S1805 S 0.74897 0.89172 0.00511 0.0
N1806 N 0.75269 0.93918 1.00183 0.0
N1807 N 0.75238 0.8801 0.0577 0.0
C1808 C 0.75687 0.91545 0.0752 0.0
C1809 C 0.75705 0.94792 0.04465 0.0
C1810 C 1.0017 0.95489 0.61942 0.0
C1811 C 0.00977 0.9188 0.6325 0.0
C1812 C 1.00111 0.98779 0.64817 0.0
C1813 C 1.00878 0.98644 0.69144 0.0
H1814 H 0.99549 0.95757 0.58672 0.0
H1815 H 0.99432 1.01424 0.63655 0.0
S1816 S 0.03391 0.90066 0.73979 0.0
N1817 N 0.02691 0.88511 0.69056 0.0
N1818 N 0.02633 0.94612 0.7439 0.0
C1819 C 0.01747 0.95077 0.70419 0.0
C1820 C 0.01782 0.91731 0.67511 0.0
C1821 C 0.75356 0.79445 0.65031 0.0
C1822 C 0.76126 0.79673 0.69343 0.0
C1823 C 0.75178 0.8279 0.62275 0.0
C1824 C 0.75789 0.86553 0.63635 0.0
H1825 H 0.7485 0.76669 0.6379 0.0
H1826 H 0.7456 0.82399 0.59018 0.0
S1827 S 0.7802 0.88727 0.74539 0.0
N1828 N 0.77566 0.84008 0.74773 0.0
N1829 N 0.77271 0.9019 0.69619 0.0
C1830 C 0.76601 0.86794 0.67909 0.0
C1831 C 0.76757 0.83401 0.70737 0.0
C1832 C 0.99879 0.70174 0.44959 0.0
C1833 C 1.00851 0.73704 0.44059 0.0
C1834 C 0.999 0.6697 0.41962 0.0
C1835 C 1.00892 0.67124 0.37899 0.0
H1836 H 0.99075 0.69886 0.48002 0.0
H1837 H 0.991 0.64381 0.42801 0.0
S1838 S 0.03969 0.75327 0.3435 0.0
N1839 N 0.03028 0.76897 0.39032 0.0
N1840 N 0.0306 0.70966 0.33435 0.0
C1841 C 0.01925 0.70575 0.37045 0.0
C1842 C 0.01907 0.73824 0.40098 0.0
C1843 C 0.25869 0.57712 0.36917 0.0
C1844 C 0.26142 0.61592 0.38424 0.0
C1845 C 0.25785 0.54479 0.39855 0.0
C1846 C 0.25988 0.54929 0.44488 0.0
H1847 H 0.25705 0.57152 0.33409 0.0
H1848 H 0.25552 0.51604 0.38465 0.0
S1849 S 0.26872 0.64419 0.50199 0.0
N1850 N 0.26687 0.65627 0.4491 0.0
N1851 N 0.26568 0.59645 0.504 0.0
C1852 C 0.26293 0.58795 0.46039 0.0
C1853 C 0.26359 0.62084 0.43038 0.0
C1854 C 0.01331 0.54398 0.85516 0.0
C1855 C 0.00956 0.54753 0.80929 0.0
C1856 C 0.01225 0.57652 0.88428 0.0
C1857 C 1.00764 0.61453 0.86933 0.0
H1858 H 0.0172 0.51587 0.86883 0.0
H1859 H 0.01532 0.57197 0.91899 0.0
S1860 S 0.99493 0.63999 0.7534 0.0
N1861 N 0.99974 0.59286 0.75117 0.0
N1862 N 0.99836 0.6531 0.80555 0.0
C1863 C 1.00373 0.61854 0.82376 0.0
C1864 C 1.00452 0.58543 0.79406 0.0
C1865 C 0.26676 0.70546 0.87914 0.0
C1866 C 0.26065 0.66765 0.86623 0.0
C1867 C 0.26519 0.73841 0.85072 0.0
C1868 C 0.25762 0.73539 0.80751 0.0
H1869 H 0.27283 0.70987 0.91177 0.0
H1870 H 0.27034 0.76633 0.86245 0.0
S1871 S 0.23824 0.64434 0.75768 0.0
N1872 N 0.24568 0.63047 0.80719 0.0
N1873 N 0.243 0.69138 0.75426 0.0
C1874 C 0.25114 0.698 0.79446 0.0
C1875 C 0.25255 0.6646 0.8235 0.0
C1876 C 1.00248 0.33306 0.54922 0.0
C1877 C 0.01082 0.29664 0.55969 0.0
C1878 C 1.00384 0.36588 0.5778 0.0
C1879 C 0.01407 0.3646 0.61811 0.0
H1880 H 0.99462 0.33623 0.51855 0.0
H1881 H 0.99679 0.39258 0.56799 0.0
S1882 S 0.03992 0.27685 0.65958 0.0
N1883 N 0.03015 0.26178 0.61287 0.0
N1884 N 0.03346 0.32288 0.6655 0.0
C1885 C 0.02277 0.32828 0.62854 0.0
C1886 C 0.02096 0.29465 0.59982 0.0
C1887 C 0.76725 0.41861 0.57794 0.0
C1888 C 0.75694 0.42061 0.61805 0.0
C1889 C 0.76893 0.45118 0.54909 0.0
C1890 C 0.76073 0.48789 0.55904 0.0
H1891 H 0.77415 0.39161 0.56859 0.0
H1892 H 0.77688 0.44756 0.51861 0.0
S1893 S 0.73115 0.50913 0.65777 0.0
N1894 N 0.73746 0.4631 0.66443 0.0
N1895 N 0.74126 0.52359 0.61121 0.0
C1896 C 0.75043 0.49047 0.59885 0.0
C1897 C 0.74838 0.4572 0.6279 0.0
C1898 C 0.99933 0.45924 0.19355 0.0
C1899 C 0.00967 0.49369 0.18448 0.0
C1900 C 1.00086 0.42517 0.16698 0.0
C1901 C 0.01307 0.42312 0.1299 0.0
H1902 H 0.98981 0.4586 0.22166 0.0
H1903 H 0.99227 0.40018 0.17572 0.0
S1904 S 0.0444 0.5045 0.09314 0.0
N1905 N 0.03301 0.52298 0.13614 0.0
N1906 N 0.03631 0.45964 0.08686 0.0
C1907 C 0.02362 0.45751 0.12062 0.0
C1908 C 0.02182 0.49241 0.1475 0.0
C1909 C 0.76843 0.32214 0.11078 0.0
C1910 C 0.75899 0.35736 0.12198 0.0
C1911 C 0.76834 0.28891 0.13914 0.0
C1912 C 0.75849 0.28879 0.17992 0.0
H1913 H 0.7763 0.32039 0.07997 0.0
H1914 H 0.77648 0.26352 0.1295 0.0
S1915 S 0.72921 0.37123 0.22224 0.0
N1916 N 0.73822 0.38828 0.17549 0.0
N1917 N 0.73762 0.3265 0.22777 0.0
C1918 C 0.74846 0.3234 0.19066 0.0
C1919 C 0.74878 0.3573 0.16212 0.0
C1920 C 0.5215 0.23158 0.40774 0.0
C1921 C 0.50742 0.23805 0.44019 0.0
C1922 C 0.52161 0.19739 0.38103 0.0
C1923 C 0.50771 0.16805 0.38541 0.0
H1924 H 0.53271 0.25273 0.4034 0.0
H1925 H 0.53272 0.19383 0.35666 0.0
S1926 S 0.46671 0.17181 0.46184 0.0
N1927 N 0.47846 0.21232 0.47273 0.0
N1928 N 0.47885 0.14914 0.42269 0.0
C1929 C 0.49341 0.17445 0.41689 0.0
C1930 C 0.49324 0.20901 0.44414 0.0
C1931 C 0.76902 0.08037 0.44634 0.0
C1932 C 0.75876 0.04556 0.4378 0.0
C1933 C 0.76909 0.11245 0.41649 0.0
C1934 C 0.7591 0.11148 0.37603 0.0
H1935 H 0.77719 0.08309 0.47658 0.0
H1936 H 0.7774 0.13794 0.42484 0.0
S1937 S 0.72779 0.03051 0.33969 0.0
N1938 N 0.73674 1.01463 0.38701 0.0
N1939 N 0.73732 0.0738 0.33089 0.0
C1940 C 0.74846 0.07738 0.36738 0.0
C1941 C 0.74817 0.0449 0.39807 0.0
C1942 C 0.51838 0.11023 0.83272 0.0
C1943 C 0.5072 0.11172 0.87163 0.0
C1944 C 0.51939 0.07626 0.8055 0.0
C1945 C 0.50962 0.04129 0.81583 0.0
H1946 H 0.52645 0.13564 0.82292 0.0
H1947 H 0.52807 0.07745 0.77591 0.0
S1948 S 0.47813 0.02834 0.91321 0.0
N1949 N 0.48574 0.07367 0.91806 0.0
N1950 N 0.48831 1.01073 0.86814 0.0
C1951 C 0.49866 0.04198 0.85485 0.0
C1952 C 0.49728 0.07672 0.88217 0.0
C1953 C 0.77007 0.20857 0.81032 0.0
C1954 C 0.75734 0.24019 0.81583 0.0
C1955 C 0.76993 0.1756 0.83862 0.0
C1956 C 0.7572 0.17261 0.87437 0.0
H1957 H 0.78036 0.20913 0.78369 0.0
H1958 H 0.78014 0.15257 0.83291 0.0
S1959 S 0.71988 0.24493 0.90223 0.0
N1960 N 0.73084 0.2645 0.85922 0.0
N1961 N 0.73092 0.20341 0.91261 0.0
C1962 C 0.74436 0.20375 0.8804 0.0
C1963 C 0.74434 0.23717 0.85125 0.0
C1964 C 0.49005 0.83862 0.61466 0.0
C1965 C 0.50723 0.85658 0.627 0.0
C1966 C 0.48958 0.80465 0.58754 0.0
C1967 C 0.50628 0.78653 0.57217 0.0
H1968 H 0.47682 0.85086 0.62623 0.0
H1969 H 0.47599 0.79272 0.57814 0.0
S1970 S 0.55495 0.82194 0.59396 0.0
N1971 N 0.54139 0.85334 0.62093 0.0
N1972 N 0.54049 0.79019 0.57053 0.0
C1973 C 0.5235 0.80429 0.58415 0.0
C1974 C 0.52399 0.83887 0.61152 0.0
C1975 C 0.25372 0.98883 0.60336 0.0
C1976 C 0.2609 0.9864 0.55978 0.0
C1977 C 0.25187 0.95527 0.63066 0.0
C1978 C 0.2574 0.91744 0.61629 0.0
H1979 H 0.24903 0.01674 0.61621 0.0
H1980 H 0.24602 0.95924 0.66356 0.0
S1981 S 0.27854 0.89538 0.50603 0.0
N1982 N 0.27445 0.94279 0.5044 0.0
N1983 N 0.27131 0.88076 0.55543 0.0
C1984 C 0.26509 0.91492 0.57316 0.0
C1985 C 0.26676 0.94894 0.54519 0.0
C1986 C 0.50288 0.91983 0.17486 0.0
C1987 C 0.51333 0.92116 0.13493 0.0
C1988 C 0.50126 0.95272 0.20314 0.0
C1989 C 0.50958 0.9891 0.19265 0.0
H1990 H 0.4959 0.89306 0.18462 0.0
H1991 H 0.49325 0.94961 0.23359 0.0
S1992 S 0.53918 1.00894 0.09364 0.0
N1993 N 0.53289 0.96284 0.08782 0.0
N1994 N 0.52909 0.02406 0.13999 0.0
C1995 C 0.51993 0.99114 0.1529 0.0
C1996 C 0.522 0.95748 0.12448 0.0
C1997 C 0.24282 0.81297 0.1785 0.0
C1998 C 0.26036 0.79566 0.18912 0.0
C1999 C 0.24156 0.84689 0.15173 0.0
C2000 C 0.25783 0.86619 0.13588 0.0
H2001 H 0.2299 0.80021 0.1912 0.0
H2002 H 0.22771 0.85851 0.14402 0.0
S2003 S 0.30722 0.83268 0.15369 0.0
N2004 N 0.29435 0.80012 0.18057 0.0
N2005 N 0.29213 0.86421 0.13199 0.0
C2006 C 0.27547 0.84914 0.14634 0.0
C2007 C 0.27669 0.81397 0.17252 0.0
C2008 C 0.50128 0.67601 0.91543 0.0
C2009 C 0.51179 0.67715 0.87571 0.0
C2010 C 0.50135 0.70759 0.94575 0.0
C2011 C 0.51205 0.74188 0.93817 0.0
H2012 H 0.49261 0.65079 0.92282 0.0
H2013 H 0.49278 0.70508 0.97543 0.0
S2014 S 0.54465 0.75665 0.84302 0.0
N2015 N 0.53466 0.71407 0.83268 0.0
N2016 N 0.53523 0.77237 0.88992 0.0
C2017 C 0.52319 0.74266 0.89937 0.0
C2018 C 0.52294 0.7107 0.86822 0.0
C2019 C 0.77591 0.56511 0.93072 0.0
C2020 C 0.76039 0.53909 0.93105 0.0
C2021 C 0.77605 0.59955 0.90443 0.0
C2022 C 0.76031 0.61094 0.87872 0.0
H2023 H 0.78816 0.55873 0.95104 0.0
H2024 H 0.78856 0.61773 0.9047 0.0
S2025 S 0.7155 0.55498 0.86995 0.0
N2026 N 0.72867 0.52806 0.90341 0.0
N2027 N 0.72845 0.59337 0.85655 0.0
C2028 C 0.74453 0.58567 0.87951 0.0
C2029 C 0.74467 0.54983 0.90499 0.0
C2030 C 0.49825 0.57803 0.30867 0.0
C2031 C 0.51095 0.54639 0.31387 0.0
C2032 C 0.49823 0.61054 0.33786 0.0
C2033 C 0.51093 0.61309 0.37378 0.0
H2034 H 0.48802 0.57745 0.28194 0.0
H2035 H 0.48786 0.63339 0.33287 0.0
S2036 S 0.54889 0.54134 0.39862 0.0
N2037 N 0.53773 0.52201 0.35577 0.0
N2038 N 0.53763 0.58233 0.41045 0.0
C2039 C 0.52397 0.58212 0.37878 0.0
C2040 C 0.524 0.54908 0.34903 0.0
C2041 C 0.76619 0.73901 0.35084 0.0
C2042 C 0.75797 0.73656 0.30827 0.0
C2043 C 0.76807 0.70579 0.37865 0.0
C2044 C 0.76169 0.66818 0.36576 0.0
H2045 H 0.77159 0.76672 0.36257 0.0
H2046 H 0.77465 0.70987 0.41078 0.0
S2047 S 0.73726 0.64644 0.25927 0.0
N2048 N 0.74223 0.6934 0.2559 0.0
N2049 N 0.74554 0.63187 0.30778 0.0
C2050 C 0.75292 0.66566 0.32374 0.0
C2051 C 0.75113 0.69942 0.29529 0.0
C2052 C 0.51823 0.32844 0.12975 0.0
C2053 C 0.5124 0.36652 0.11699 0.0
C2054 C 0.51622 0.29549 0.10143 0.0
C2055 C 0.50839 0.29862 0.05844 0.0
H2056 H 0.5244 0.32376 0.16223 0.0
H2057 H 0.52111 0.26737 0.11323 0.0
S2058 S 0.48956 0.39046 0.00907 0.0
N2059 N 0.49745 0.40413 0.05826 0.0
N2060 N 0.4939 0.34323 0.00558 0.0
C2061 C 0.50224 0.33632 0.04547 0.0
C2062 C 0.50416 0.36978 0.0744 0.0
C2063 C 0.24663 0.45524 0.05688 0.0
C2064 C 0.25993 0.4859 0.06174 0.0
C2065 C 0.24635 0.42229 0.08545 0.0
C2066 C 0.25944 0.41796 0.12035 0.0
H2067 H 0.23614 0.45679 0.03074 0.0
H2068 H 0.23557 0.4003 0.08057 0.0
S2069 S 0.29879 0.48644 0.14454 0.0
N2070 N 0.28753 0.50738 0.10278 0.0
N2071 N 0.28702 0.44601 0.15598 0.0
C2072 C 0.27306 0.44783 0.12514 0.0
C2073 C 0.27331 0.48148 0.09611 0.0
C2074 C 0.51441 0.46365 0.61492 0.0
C2075 C 0.50934 0.42556 0.62904 0.0
C2076 C 0.51396 0.49655 0.64366 0.0
C2077 C 0.50873 0.49332 0.68874 0.0
H2078 H 0.51904 0.4682 0.58116 0.0
H2079 H 0.51806 0.52468 0.63043 0.0
S2080 S 0.49436 0.40036 0.74388 0.0
N2081 N 0.49891 0.38719 0.69222 0.0
N2082 N 0.49835 0.44777 0.746 0.0
C2083 C 0.50378 0.45525 0.70354 0.0
C2084 C 0.50407 0.42189 0.67405 0.0
C2085 C 0.27186 0.30377 0.65874 0.0
C2086 C 0.25718 0.29411 0.68856 0.0
C2087 C 0.27096 0.33766 0.63153 0.0
C2088 C 0.25527 0.3633 0.63249 0.0
H2089 H 0.2844 0.28566 0.65734 0.0
H2090 H 0.28268 0.34386 0.60951 0.0
S2091 S 0.21233 0.34957 0.7013 0.0
N2092 N 0.22603 0.31249 0.71533 0.0
N2093 N 0.22419 0.37472 0.66367 0.0
C2094 C 0.24029 0.35323 0.66095 0.0
C2095 C 0.24131 0.3192 0.68908 0.0
C2096 C 0.13499 0.29104 0.14836 0.0
C2097 C 0.14688 0.32107 0.16367 0.0
C2098 C 0.12355 0.29654 0.11042 0.0
C2099 C 0.12323 0.33271 0.08816 0.0
H2100 H 0.13433 0.26359 0.16611 0.0
H2101 H 0.11503 0.27253 0.09842 0.0
S2102 S 0.14953 0.42228 0.12043 0.0
N2103 N 0.1568 0.38853 0.15552 0.0
N2104 N 0.13402 0.40027 0.0882 0.0
C2105 C 0.13435 0.3634 0.1051 0.0
C2106 C 0.14657 0.35716 0.14163 0.0
C2107 C 0.11765 0.92592 0.13376 0.0
C2108 C 0.1173 0.95906 0.16091 0.0
C2109 C 0.12923 0.9241 0.09659 0.0
C2110 C 0.1405 0.95601 0.08317 0.0
H2111 H 0.10988 0.89993 0.14319 0.0
H2112 H 0.12958 0.89669 0.07871 0.0
S2113 S 0.14403 0.05053 0.14247 0.0
N2114 N 0.12918 0.02465 0.173 0.0
N2115 N 0.15011 0.0225 0.10005 0.0
C2116 C 0.13996 0.98996 0.10946 0.0
C2117 C 0.12846 0.99128 0.14879 0.0
C2118 C 0.87718 0.73509 0.91774 0.0
C2119 C 0.89683 0.73026 0.91066 0.0
C2120 C 0.86457 0.73534 0.88185 0.0
C2121 C 0.87149 0.73351 0.8383 0.0
H2122 H 0.87136 0.73155 0.9508 0.0
H2123 H 0.84967 0.73102 0.88845 0.0
S2124 S 0.92141 0.74314 0.80316 0.0
N2125 N 0.92246 0.73777 0.85764 0.0
N2126 N 0.8987 0.74389 0.79051 0.0
C2127 C 0.89092 0.74053 0.8316 0.0
C2128 C 0.90377 0.73746 0.86787 0.0
C2129 C 0.89882 0.03697 0.88386 0.0
C2130 C 0.89249 0.04612 0.84095 0.0
C2131 C 0.88593 0.03489 0.91936 0.0
C2132 C 0.86674 0.04563 0.91336 0.0
H2133 H 0.9138 0.037 0.89128 0.0
H2134 H 0.89164 0.03218 0.95261 0.0
S2135 S 0.84265 0.05236 0.80418 0.0
N2136 N 0.86527 0.04763 0.79183 0.0
N2137 N 0.84143 0.0509 0.85892 0.0
C2138 C 0.85991 0.04539 0.8695 0.0
C2139 C 0.87285 0.04394 0.83312 0.0
C2140 C 0.1268 0.78555 0.66738 0.0
C2141 C 0.14639 0.79295 0.66339 0.0
C2142 C 0.11484 0.78869 0.63036 0.0
C2143 C 0.12238 0.79645 0.58811 0.0
H2144 H 0.12033 0.78437 0.69999 0.0
H2145 H 0.09975 0.79056 0.63604 0.0
S2146 S 0.17306 0.79494 0.55735 0.0
N2147 N 0.17301 0.79378 0.61219 0.0
N2148 N 0.15064 0.79395 0.54226 0.0
C2149 C 0.14205 0.79203 0.58261 0.0
C2150 C 0.15417 0.79151 0.62046 0.0
C2151 C 0.13718 0.42713 0.60448 0.0
C2152 C 0.14517 0.46066 0.58515 0.0
C2153 C 0.12568 0.42957 0.64164 0.0
C2154 C 0.12241 0.46537 0.66289 0.0
H2155 H 0.13962 0.3985 0.59018 0.0
H2156 H 0.11997 0.40274 0.65524 0.0
S2157 S 0.13998 0.56191 0.62645 0.0
N2158 N 0.14851 0.53117 0.58906 0.0
N2159 N 0.12792 0.53531 0.66251 0.0
C2160 C 0.13038 0.4993 0.64468 0.0
C2161 C 0.14168 0.49701 0.60518 0.0
C2162 C 0.88565 0.23455 0.33425 0.0
C2163 C 0.8668 0.23048 0.34933 0.0
C2164 C 0.90073 0.23536 0.36456 0.0
C2165 C 0.89709 0.23524 0.4103 0.0
H2166 H 0.88893 0.22917 0.29962 0.0
H2167 H 0.91488 0.22979 0.35236 0.0
S2168 S 0.85041 0.24605 0.46441 0.0
N2169 N 0.84542 0.23961 0.41129 0.0
N2170 N 0.87371 0.24717 0.46779 0.0
C2171 C 0.87843 0.24318 0.42428 0.0
C2172 C 0.86311 0.23921 0.39381 0.0
C2173 C 0.90607 0.55199 0.38236 0.0
C2174 C 0.9005 0.55761 0.33818 0.0
C2175 C 0.89239 0.54933 0.416 0.0
C2176 C 0.87299 0.55524 0.40641 0.0
H2177 H 0.92075 0.55543 0.39176 0.0
H2178 H 0.89721 0.55013 0.45015 0.0
S2179 S 0.85162 0.55353 0.29434 0.0
N2180 N 0.87464 0.55256 0.2853 0.0
N2181 N 0.84899 0.55387 0.34887 0.0
C2182 C 0.86733 0.55214 0.36202 0.0
C2183 C 0.88124 0.55174 0.3277 0.0
C2184 C 0.61382 0.3412 0.62095 0.0
C2185 C 0.6174 0.31416 0.58713 0.0
C2186 C 0.62522 0.34299 0.65833 0.0
C2187 C 0.64003 0.31619 0.66565 0.0
H2188 H 0.60321 0.36376 0.61658 0.0
H2189 H 0.62296 0.36724 0.68062 0.0
S2190 S 0.65514 0.23907 0.587 0.0
N2191 N 0.63718 0.26062 0.56177 0.0
N2192 N 0.65768 0.2614 0.63534 0.0
C2193 C 0.64354 0.28808 0.63264 0.0
C2194 C 0.63232 0.28742 0.59294 0.0
C2195 C 0.6335 0.99212 0.67417 0.0
C2196 C 0.61423 0.98323 0.66636 0.0
C2197 C 0.6466 0.99262 0.63904 0.0
C2198 C 0.64052 0.98691 0.59517 0.0
H2199 H 0.63899 0.99131 0.70776 0.0
H2200 H 0.66152 0.99131 0.64699 0.0
S2201 S 0.5909 0.9845 0.55627 0.0
N2202 N 0.58929 0.98247 0.61097 0.0
N2203 N 0.61363 0.98934 0.5451 0.0
C2204 C 0.62094 0.99023 0.58684 0.0
C2205 C 0.60772 0.98676 0.62252 0.0
C2206 C 0.38641 0.68242 0.40406 0.0
C2207 C 0.39769 0.71439 0.41658 0.0
C2208 C 0.37357 0.68493 0.36928 0.0
C2209 C 0.37232 0.71864 0.34303 0.0
H2210 H 0.38752 0.65487 0.42153 0.0
H2211 H 0.36548 0.65911 0.36078 0.0
S2212 S 0.40022 0.80912 0.35781 0.0
N2213 N 0.40718 0.78073 0.39917 0.0
N2214 N 0.38436 0.7839 0.32944 0.0
C2215 C 0.38404 0.75046 0.35354 0.0
C2216 C 0.39655 0.7486 0.39104 0.0
C2217 C 0.37796 0.03963 0.33679 0.0
C2218 C 0.39755 0.0457 0.34268 0.0
C2219 C 0.36569 0.03964 0.37339 0.0
C2220 C 0.37291 0.04356 0.4166 0.0
H2221 H 0.37182 0.04214 0.30394 0.0
H2222 H 0.3507 0.04298 0.36724 0.0
S2223 S 0.42321 0.0378 0.44956 0.0
N2224 N 0.4237 0.04125 0.39484 0.0
N2225 N 0.40064 0.03598 0.46337 0.0
C2226 C 0.39245 0.03745 0.42257 0.0
C2227 C 0.40493 0.04001 0.38548 0.0
C2228 C 0.6333 0.78652 0.17142 0.0
C2229 C 0.65263 0.79485 0.16388 0.0
C2230 C 0.62045 0.78568 0.13585 0.0
C2231 C 0.62693 0.79027 0.0921 0.0
H2232 H 0.62759 0.78867 0.20474 0.0
H2233 H 0.60551 0.78813 0.14322 0.0
S2234 S 0.67676 0.78797 0.05502 0.0
N2235 N 0.67802 0.79192 0.10962 0.0
N2236 N 0.65405 0.78416 0.04315 0.0
C2237 C 0.64646 0.78511 0.08461 0.0
C2238 C 0.65946 0.78913 0.1206 0.0
C2239 C 0.65483 0.4887 0.12551 0.0
C2240 C 0.6485 0.48226 0.082 0.0
C2241 C 0.64203 0.4875 0.16103 0.0
C2242 C 0.62278 0.47869 0.15378 0.0
H2243 H 0.6698 0.48789 0.13299 0.0
H2244 H 0.64771 0.48707 0.19445 0.0
S2245 S 0.5987 0.47747 0.04466 0.0
N2246 N 0.62131 0.4832 0.03265 0.0
N2247 N 0.59744 0.47613 0.09944 0.0
C2248 C 0.6159 0.4814 0.11023 0.0
C2249 C 0.62885 0.48509 0.07412 0.0
C2250 C 0.4051 0.24297 0.87005 0.0
C2251 C 0.39804 0.23634 0.91291 0.0
C2252 C 0.39262 0.24666 0.83402 0.0
C2253 C 0.37301 0.24047 0.83992 0.0
H2254 H 0.42006 0.23973 0.86332 0.0
H2255 H 0.39857 0.24626 0.80084 0.0
S2256 S 0.3479 0.23992 0.94782 0.0
N2257 N 0.37053 0.24004 0.96106 0.0
N2258 N 0.34715 0.24135 0.89302 0.0
C2259 C 0.36588 0.24303 0.88329 0.0
C2260 C 0.37854 0.24195 0.92005 0.0
C2261 C 0.39764 0.54366 0.9233 0.0
C2262 C 0.3783 0.54799 0.91207 0.0
C2263 C 0.41183 0.55047 0.89145 0.0
C2264 C 0.40693 0.55794 0.84716 0.0
H2265 H 0.40177 0.54345 0.95796 0.0
H2266 H 0.42617 0.55543 0.90269 0.0
S2267 S 0.35911 0.55065 0.79781 0.0
N2268 N 0.35553 0.54684 0.85185 0.0
N2269 N 0.38224 0.55329 0.79131 0.0
C2270 C 0.38811 0.55029 0.83418 0.0
C2271 C 0.37363 0.54649 0.86688 0.0
C2272 C 0.02258 0.49428 0.98453 0.0
C2273 C 1.0065 0.47216 0.99552 0.0
C2274 C 0.02391 0.53396 0.99563 0.0
C2275 C 1.0091 0.55362 0.01761 0.0
H2276 H 0.03445 0.4808 0.96774 0.0
H2277 H 0.03658 0.54948 0.98592 0.0
S2278 S 0.96403 0.50906 0.05514 0.0
N2279 N 0.97552 0.47295 0.03085 0.0
N2280 N 0.97798 0.54746 0.05111 0.0
C2281 C 0.99298 0.53184 0.02918 0.0
C2282 C 0.99165 0.49129 0.0181 0.0
C2283 C 0.24593 0.74541 0.9955 0.0
C2284 C 0.2617 0.72539 0.01307 0.0
C2285 C 0.24605 0.78607 0.98916 0.0
C2286 C 0.26192 0.80885 1.00018 0.0
H2287 H 0.23334 0.72954 0.98599 0.0
H2288 H 0.23345 0.79974 0.97591 0.0
S2289 S 0.30703 0.77103 0.04694 0.0
N2290 N 0.29374 0.73181 0.04114 0.0
N2291 N 0.29403 0.80794 0.02933 0.0
C2292 C 0.27785 0.78924 0.01763 0.0
C2293 C 0.27771 0.74774 0.0241 0.0
C2294 C 0.99391 0.75901 0.23553 0.0
C2295 C 0.01146 0.74134 0.22628 0.0
C2296 C 0.99281 0.79624 0.25519 0.0
C2297 C 1.00914 0.81789 0.26579 0.0
H2298 H 0.98094 0.74262 0.23159 0.0
H2299 H 0.9791 0.80647 0.26631 0.0
S2300 S 0.05836 0.78892 0.24006 0.0
N2301 N 0.04551 0.75156 0.22291 0.0
N2302 N 0.04318 0.82155 0.25906 0.0
C2303 C 0.02656 0.80296 0.25132 0.0
C2304 C 0.02779 0.76468 0.23186 0.0
C2305 C 0.2732 0.53742 0.23331 0.0
C2306 C 0.25611 0.55812 0.23801 0.0
C2307 C 0.27503 0.49869 0.2478 0.0
C2308 C 0.25979 0.47849 0.26711 0.0
H2309 H 0.28549 0.55141 0.21898 0.0
H2310 H 0.28853 0.48435 0.24325 0.0
S2311 S 0.21208 0.51961 0.28923 0.0
N2312 N 0.22366 0.55551 0.26488 0.0
N2313 N 0.22712 0.48284 0.29192 0.0
C2314 C 0.24263 0.49887 0.27255 0.0
C2315 C 0.24074 0.53843 0.25774 0.0
C2316 C 0.74183 0.27749 0.99807 0.0
C2317 C 0.75803 0.2917 0.97631 0.0
C2318 C 0.74191 0.24117 0.01985 0.0
C2319 C 0.75809 0.21711 0.02074 0.0
H2320 H 0.72945 0.29584 1.0016 0.0
H2321 H 0.72965 0.2334 0.03953 0.0
S2322 S 0.80295 0.23696 0.9614 0.0
N2323 N 0.78979 0.27579 0.95108 0.0
N2324 N 0.78988 0.2079 0.99257 0.0
C2325 C 0.77368 0.22897 0.99517 0.0
C2326 C 0.77366 0.26615 0.97293 0.0
C2327 C 0.02085 0.28501 0.77298 0.0
C2328 C 1.00655 0.30867 0.75476 0.0
C2329 C 0.02163 0.24473 0.76436 0.0
C2330 C 1.00805 0.22607 0.73743 0.0
H2331 H 0.03167 0.2977 0.7939 0.0
H2332 H 0.03281 0.22799 0.77989 0.0
S2333 S 0.96839 0.27479 0.67895 0.0
N2334 N 0.97891 0.31035 0.70642 0.0
N2335 N 0.98037 0.23477 0.69089 0.0
C2336 C 0.9938 0.24934 0.71852 0.0
C2337 C 0.99303 0.29047 0.7271 0.0
C2338 C 0.7464 0.5368 0.7666 0.0
C2339 C 0.75987 0.55533 0.73937 0.0
C2340 C 0.74763 0.49698 0.77693 0.0
C2341 C 0.76224 0.4735 0.75989 0.0
H2342 H 0.73473 0.55321 0.78032 0.0
H2343 H 0.73679 0.48441 0.79792 0.0
S2344 S 0.80022 0.50673 0.68326 0.0
N2345 N 0.78782 0.54655 0.69356 0.0
N2346 N 0.79003 0.47155 0.71205 0.0
C2347 C 0.7757 0.49144 0.73186 0.0
C2348 C 0.77449 0.53224 0.72167 0.0
C2349 C 0.02605 0.03691 0.49176 0.0
C2350 C 0.01008 0.05721 0.50777 0.0
C2351 C 0.02515 0.99717 0.48024 0.0
C2352 C 1.00821 0.97589 0.48389 0.0
H2353 H 0.03941 0.05185 0.4877 0.0
H2354 H 0.03794 0.983 0.46879 0.0
S2355 S 0.96235 1.01499 0.52393 0.0
N2356 N 0.97681 0.05256 0.52694 0.0
N2357 N 0.97501 0.97844 0.50444 0.0
C2358 C 0.9921 0.9959 0.49946 0.0
C2359 C 0.99308 0.03624 0.51177 0.0
C2360 C 0.27886 0.28825 0.50166 0.0
C2361 C 0.26214 0.30973 0.49433 0.0
C2362 C 0.27832 0.24835 0.51304 0.0
C2363 C 0.26103 0.22843 0.51817 0.0
H2364 H 0.29249 0.30234 0.49857 0.0
H2365 H 0.29158 0.23296 0.51715 0.0
S2366 S 0.21349 0.27239 0.50851 0.0
N2367 N 0.22789 0.30848 0.49623 0.0
N2368 N 0.22692 0.2342 0.5186 0.0
C2369 C 0.24431 0.24993 0.51233 0.0
C2370 C 0.24484 0.29025 0.50009 0.0
C2371 C 0.24518 0.99729 0.7649 0.0
C2372 C 0.26104 0.97456 0.75346 0.0
C2373 C 0.24435 0.03735 0.75512 0.0
C2374 C 0.25935 0.05667 0.73347 0.0
H2375 H 0.23326 0.98411 0.78171 0.0
H2376 H 0.23197 0.05344 0.76574 0.0
S2377 S 0.30364 1.0103 0.69354 0.0
N2378 N 0.29185 0.97436 0.71721 0.0
N2379 N 0.29018 0.04937 0.69888 0.0
C2380 C 0.27509 0.03416 0.72077 0.0
C2381 C 0.27598 0.99331 0.73081 0.0
C2382 C 0.77145 0.75075 0.52596 0.0
C2383 C 0.75738 0.727 0.50708 0.0
C2384 C 0.77186 0.79126 0.51834 0.0
C2385 C 0.75821 0.80992 0.49147 0.0
H2386 H 0.78221 0.73801 0.54705 0.0
H2387 H 0.78275 0.80817 0.53468 0.0
S2388 S 0.71952 0.76072 0.43024 0.0
N2389 N 0.73015 0.72513 0.4575 0.0
N2390 N 0.73101 0.80096 0.44352 0.0
C2391 C 0.74436 0.78644 0.47147 0.0
C2392 C 0.7439 0.74518 0.47923 0.0
C2393 C 0.74453 0.98089 0.25034 0.0
C2394 C 0.76098 0.96565 0.27004 0.0
C2395 C 0.74455 0.01806 0.22985 0.0
C2396 C 0.76104 0.04137 0.22804 0.0
H2397 H 0.73115 0.96609 0.25501 0.0
H2398 H 0.73118 0.02984 0.21857 0.0
S2399 S 0.80862 1.01062 0.26668 0.0
N2400 N 0.79469 0.97394 0.28048 0.0
N2401 N 0.79492 0.04275 0.24145 0.0
C2402 C 0.77799 0.02415 0.2429 0.0
C2403 C 0.77788 0.98662 0.26402 0.0
C2404 C 0.53021 0.52359 0.50537 0.0
C2405 C 0.51387 0.5421 0.52234 0.0
C2406 C 0.52936 0.48635 0.4855 0.0
C2407 C 0.51223 0.46588 0.48221 0.0
H2408 H 0.54349 0.53918 0.50398 0.0
H2409 H 0.54182 0.47524 0.46881 0.0
S2410 S 0.46656 0.49608 0.5318 0.0
N2411 N 0.48086 0.53299 0.5424 0.0
N2412 N 0.47934 0.46361 0.50447 0.0
C2413 C 0.49635 0.48192 0.50358 0.0
C2414 C 0.49716 0.51977 0.52393 0.0
C2415 C 0.49485 0.73959 0.75278 0.0
C2416 C 0.51014 0.73283 0.72406 0.0
C2417 C 0.494 0.77358 0.77947 0.0
C2418 C 0.50816 0.80292 0.77833 0.0
H2419 H 0.48318 0.71918 0.75363 0.0
H2420 H 0.48208 0.77677 0.80178 0.0
S2421 S 0.55217 0.79732 0.7122 0.0
N2422 N 0.54045 0.75748 0.69819 0.0
N2423 N 0.53866 0.82069 0.7482 0.0
C2424 C 0.52359 0.79624 0.75015 0.0
C2425 C 0.52461 0.76148 0.7233 0.0
C2426 C 0.49592 0.24965 0.22945 0.0
C2427 C 0.51173 0.22681 0.24086 0.0
C2428 C 0.49509 0.28964 0.23965 0.0
C2429 C 0.51 0.30866 0.26196 0.0
H2430 H 0.48398 0.23655 0.21262 0.0
H2431 H 0.4827 0.30584 0.22928 0.0
S2432 S 0.55431 0.26196 0.301 0.0
N2433 N 0.54264 0.22639 0.2764 0.0
N2434 N 0.54082 0.30103 0.29644 0.0
C2435 C 0.5258 0.28609 0.27408 0.0
C2436 C 0.52675 0.24545 0.26321 0.0
C2437 C 0.49849 0.03512 0.02719 0.0
C2438 C 0.51223 0.05888 0.00699 0.0
C2439 C 0.49793 0.99465 0.01948 0.0
C2440 C 0.51108 0.97612 0.99116 0.0
H2441 H 0.48813 0.04779 0.04942 0.0
H2442 H 0.48738 0.97766 0.03691 0.0
S2443 S 0.54851 0.02544 0.92589 0.0
N2444 N 0.53845 0.06093 0.95447 0.0
N2445 N 0.53728 0.98518 0.94025 0.0
C2446 C 0.52451 0.99963 0.96971 0.0
C2447 C 0.52514 0.04082 0.97759 0.0
C2448 C 0.02797 0.12361 0.14105 0.0
C2449 C 0.01178 0.10053 0.13377 0.0
C2450 C 0.02759 0.16426 0.13535 0.0
C2451 C 0.01098 0.18375 0.12236 0.0
H2452 H 0.04108 0.11032 0.15185 0.0
H2453 H 0.04045 0.18056 0.14128 0.0
S2454 S 0.96504 0.13692 0.09567 0.0
N2455 N 0.97884 0.10033 0.11063 0.0
N2456 N 0.97813 0.17658 0.10001 0.0
C2457 C 0.99472 0.16109 0.11441 0.0
C2458 C 0.99514 0.11959 0.11997 0.0
C2459 C 0.27027 0.16333 0.1228 0.0
C2460 C 0.25443 0.18122 0.14248 0.0
C2461 C 0.27107 0.12281 0.11647 0.0
C2462 C 0.256 0.09852 0.12929 0.0
H2463 H 0.28223 0.1807 0.11217 0.0
H2464 H 0.28344 0.1106 0.10041 0.0
S2465 S 0.21179 0.12992 0.18486 0.0
N2466 N 0.22362 0.1708 0.17674 0.0
N2467 N 0.22513 0.09481 0.16411 0.0
C2468 C 0.24017 0.11579 0.14937 0.0
C2469 C 0.23937 0.15705 0.15613 0.0
C2470 C 0.98845 0.86775 0.85973 0.0
C2471 C 1.00307 0.85039 0.88426 0.0
C2472 C 0.98813 0.90817 0.85231 0.0
C2473 C 1.00229 0.93272 0.8697 0.0
H2474 H 0.97733 0.84991 0.84565 0.0
H2475 H 0.97686 0.92006 0.83207 0.0
S2476 S 0.04255 0.90179 0.9405 0.0
N2477 N 0.03136 0.86085 0.92857 0.0
N2478 N 0.03066 0.93675 0.91508 0.0
C2479 C 0.01672 0.91571 0.89534 0.0
C2480 C 0.01714 0.87456 0.90251 0.0
C2481 C 0.75192 0.91328 0.86048 0.0
C2482 C 0.7664 0.93 0.88629 0.0
C2483 C 0.75085 0.8727 0.85403 0.0
C2484 C 0.76424 0.84727 0.87301 0.0
H2485 H 0.74135 0.93166 0.84496 0.0
H2486 H 0.7397 0.86126 0.83309 0.0
S2487 S 0.80368 0.87527 0.94719 0.0
N2488 N 0.7936 0.91711 0.93375 0.0
N2489 N 0.79165 0.84119 0.92072 0.0
C2490 C 0.77857 0.86337 0.89939 0.0
C2491 C 0.77963 0.90461 0.90626 0.0
C2492 C 0.99791 0.61949 0.61222 0.0
C2493 C 0.0126 0.60288 0.63744 0.0
C2494 C 0.99661 0.66007 0.60624 0.0
C2495 C 0.00993 0.68552 0.62533 0.0
H2496 H 0.98742 0.60101 0.59663 0.0
H2497 H 0.98535 0.67147 0.58557 0.0
S2498 S 0.04943 0.65759 0.69954 0.0
N2499 N 0.03966 0.6157 0.68528 0.0
N2500 N 0.03722 0.69171 0.67351 0.0
C2501 C 0.02433 0.66949 0.65165 0.0
C2502 C 0.02566 0.62825 0.65784 0.0
C2503 C 0.26738 0.65785 0.64843 0.0
C2504 C 0.25383 0.68248 0.6288 0.0
C2505 C 0.26645 0.61723 0.64336 0.0
C2506 C 0.25195 0.59973 0.61838 0.0
H2507 H 0.27862 0.66999 0.66858 0.0
H2508 H 0.2772 0.59944 0.65907 0.0
S2509 S 0.21415 0.6521 0.55666 0.0
N2510 N 0.22615 0.68704 0.5817 0.0
N2511 N 0.22444 0.61078 0.57129 0.0
C2512 C 0.23845 0.62424 0.59807 0.0
C2513 C 0.23938 0.6656 0.6035 0.0
C2514 C 0.0165 0.37633 0.4017 0.0
C2515 C 1.00674 0.34867 0.37591 0.0
C2516 C 0.0149 0.41643 0.39274 0.0
C2517 C 1.00345 0.43008 0.35781 0.0
H2518 H 0.02509 0.36694 0.42952 0.0
H2519 H 0.02252 0.43687 0.41354 0.0
S2520 S 0.97714 0.36855 0.27729 0.0
N2521 N 0.98659 0.33702 0.31234 0.0
N2522 N 0.98364 0.41215 0.29493 0.0
C2523 C 0.99407 0.40241 0.33115 0.0
C2524 C 0.99569 0.36172 0.3404 0.0
C2525 C 0.7497 0.36921 0.36803 0.0
C2526 C 0.76669 0.34899 0.35976 0.0
C2527 C 0.74959 0.40948 0.37659 0.0
C2528 C 0.76648 0.43119 0.37761 0.0
H2529 H 0.7363 0.35399 0.36735 0.0
H2530 H 0.73615 0.4235 0.38309 0.0
S2531 S 0.81477 0.39235 0.35821 0.0
N2532 N 0.80087 0.35397 0.35315 0.0
N2533 N 0.80065 0.42943 0.3694 0.0
C2534 C 0.78355 0.41137 0.36951 0.0
C2535 C 0.78367 0.37039 0.36057 0.0
C2536 C 0.51246 0.11323 0.59285 0.0
C2537 C 0.51095 0.10236 0.63764 0.0
C2538 C 0.51235 0.15282 0.58043 0.0
C2539 C 0.51031 0.18277 0.61226 0.0
H2540 H 0.51427 0.09112 0.56748 0.0
H2541 H 0.51389 0.16007 0.54557 0.0
S2542 S 0.50485 0.16915 0.73356 0.0
N2543 N 0.50688 0.12436 0.71374 0.0
N2544 N 0.50602 0.19857 0.69015 0.0
C2545 C 0.5081 0.17211 0.6569 0.0
C2546 C 0.50863 0.13192 0.66965 0.0
C2547 C 0.75629 0.13233 0.58452 0.0
C2548 C 0.75787 0.10199 0.61591 0.0
C2549 C 0.75653 0.17168 0.59766 0.0
C2550 C 0.75774 0.1818 0.64272 0.0
H2551 H 0.75503 0.12558 0.54948 0.0
H2552 H 0.75531 0.19423 0.5726 0.0
S2553 S 0.76248 0.11346 0.73766 0.0
N2554 N 0.76142 0.08476 0.69361 0.0
N2555 N 0.76089 0.15859 0.71865 0.0
C2556 C 0.75938 0.15175 0.67435 0.0
C2557 C 0.75973 0.11181 0.66085 0.0
C2558 C 0.49716 0.9039 0.34218 0.0
C2559 C 0.50466 0.93153 0.37203 0.0
C2560 C 0.49728 0.86389 0.35213 0.0
C2561 C 0.5049 0.85028 0.39222 0.0
H2562 H 0.49137 0.91325 0.31061 0.0
H2563 H 0.49146 0.84349 0.32828 0.0
S2564 S 0.52485 0.91054 0.48301 0.0
N2565 N 0.51914 0.94247 0.44406 0.0
N2566 N 0.5192 0.86718 0.46296 0.0
C2567 C 0.51225 0.87748 0.42255 0.0
C2568 C 0.51221 0.91819 0.41236 0.0
C2569 C 0.24774 0.91264 0.37849 0.0
C2570 C 0.26456 0.93417 0.3832 0.0
C2571 C 0.24805 0.8722 0.37149 0.0
C2572 C 0.26521 0.85152 0.36852 0.0
H2573 H 0.23412 0.92699 0.38062 0.0
H2574 H 0.23469 0.85722 0.36757 0.0
S2575 S 0.31327 0.89362 0.3798 0.0
N2576 N 0.29893 0.93135 0.38531 0.0
N2577 N 0.29948 0.85545 0.37186 0.0
C2578 C 0.28214 0.87254 0.37343 0.0
C2579 C 0.28184 0.91377 0.38079 0.0
C2580 C 0.52106 0.65754 0.08548 0.0
C2581 C 0.51398 0.6852 0.11593 0.0
C2582 C 0.52077 0.61745 0.09504 0.0
C2583 C 0.51344 0.60382 0.13538 0.0
H2584 H 0.52666 0.66691 0.05372 0.0
H2585 H 0.52634 0.59705 0.07085 0.0
S2586 S 0.49406 0.66395 0.22707 0.0
N2587 N 0.49981 0.696 0.18834 0.0
N2588 N 0.49949 0.62061 0.20656 0.0
C2589 C 0.50638 0.631 0.16615 0.0
C2590 C 0.50655 0.67177 0.15632 0.0
C2591 C 0.74257 0.62543 0.08955 0.0
C2592 C 0.7544 0.59859 0.11176 0.0
C2593 C 0.74313 0.66553 0.09908 0.0
C2594 C 0.75573 0.68053 0.13072 0.0
H2595 H 0.73296 0.61556 0.06391 0.0
H2596 H 0.73382 0.68502 0.08104 0.0
S2597 S 0.78803 0.62283 0.20223 0.0
N2598 N 0.77797 0.58999 0.16976 0.0
N2599 N 0.77918 0.66544 0.1871 0.0
C2600 C 0.76734 0.65416 0.15397 0.0
C2601 C 0.76664 0.6132 0.14463 0.0
C2602 C 0.51975 0.41365 0.86447 0.0
C2603 C 0.50319 0.43644 0.86695 0.0
C2604 C 0.51932 0.37303 0.87145 0.0
C2605 C 0.50235 0.3534 0.88148 0.0
H2606 H 0.53314 0.42714 0.85631 0.0
H2607 H 0.5325 0.35702 0.86935 0.0
S2608 S 0.45514 0.39995 0.89373 0.0
N2609 N 0.46941 0.43642 0.88135 0.0
N2610 N 0.46856 0.36054 0.8945 0.0
C2611 C 0.48571 0.37599 0.88443 0.0
C2612 C 0.48616 0.41729 0.8772 0.0
C2613 C 0.27815 0.37114 0.87482 0.0
C2614 C 0.26133 0.3504 0.86712 0.0
C2615 C 0.27794 0.41139 0.88322 0.0
C2616 C 0.26093 0.43273 0.88367 0.0
H2617 H 0.29164 0.35614 0.87454 0.0
H2618 H 0.29129 0.42583 0.88953 0.0
S2619 S 0.2129 0.39239 0.864 0.0
N2620 N 0.22712 0.35438 0.8596 0.0
N2621 N 0.22672 0.42992 0.87512 0.0
C2622 C 0.24397 0.41241 0.87553 0.0
C2623 C 0.24417 0.3713 0.86742 0.0
loop_
_geom_bond_atom_site_label_1
_geom_bond_atom_site_label_2
_geom_bond_distance
_geom_bond_site_symmetry_2
_ccdc_geom_bond_type
Eu0 O2 2.323 1_655 S
Eu0 O10 2.328 . S
Eu0 O21 2.315 . S
Eu0 C22 2.837 . S
Eu0 O23 2.488 . S
Eu0 O31 2.461 . S
C1 O12 1.251 . S
C1 O21 1.238 1_456 S
O2 Eu0 2.323 1_455 S
O2 C18 1.279 . S
C3 C5 1.383 . S
C3 C7 1.388 . S
C3 C17 1.491 . S
C4 C6 1.403 . S
C4 C8 1.385 . S
C4 H32 0.931 . S
C5 C3 1.383 . S
C5 C6 1.393 . S
C5 H33 0.930 . S
C6 C4 1.403 . S
C6 C5 1.393 . S
C7 C3 1.388 . S
C7 C8 1.394 . S
C7 H34 0.930 . S
C8 C4 1.385 . S
C8 C7 1.394 . S
Eu9 O11 2.323 . S
Eu9 O12 2.328 . S
Eu9 O13 2.316 1_556 S
Eu9 O16 2.488 1_556 S
Eu9 C17 2.837 1_556 S
Eu9 O20 2.461 . S
O10 Eu0 2.328 . S
O10 C30 1.251 1_655 S
O11 Eu9 2.323 . S
O11 C14 1.279 1_455 S
O12 C1 1.251 . S
O12 Eu9 2.328 . S
O13 Eu9 2.316 1_554 S
O13 C30 1.237 . S
C14 O11 1.279 1_655 S
C14 O15 1.244 . S
O15 C14 1.244 . S
O16 Eu9 2.488 1_554 S
O16 C17 1.271 . S
C17 C3 1.491 . S
C17 Eu9 2.837 1_554 S
C17 O16 1.271 . S
C17 O20 1.261 1_554 S
C18 O2 1.279 . S
C18 O19 1.244 . S
O19 C18 1.244 . S
O20 Eu9 2.461 . S
O20 C17 1.261 1_556 S
O21 Eu0 2.315 . S
O21 C1 1.238 1_654 S
C22 Eu0 2.837 . S
C22 O23 1.271 . S
C22 C24 1.491 . S
C22 O31 1.261 . S
O23 Eu0 2.488 . S
O23 C22 1.271 . S
C24 C22 1.491 . S
C24 C26 1.383 . S
C24 C28 1.388 . S
C25 C27 1.403 1_556 S
C25 C29 1.385 . S
C25 H35 0.931 . S
C26 C24 1.383 . S
C26 C27 1.393 . S
C26 H36 0.930 . S
C27 C25 1.403 1_554 S
C27 C26 1.393 . S
C28 C24 1.388 . S
C28 C29 1.394 1_554 S
C28 H37 0.930 . S
C29 C25 1.385 . S
C29 C28 1.394 1_556 S
C30 O10 1.251 1_455 S
C30 O13 1.237 . S
O31 Eu0 2.461 . S
O31 C22 1.261 . S
H32 C4 0.931 . S
H33 C5 0.930 . S
H34 C7 0.930 . S
H35 C25 0.931 . S
H36 C26 0.930 . S
H37 C28 0.930 . S
Eu38 O40 2.323 1_565 S
Eu38 O48 2.328 . S
Eu38 O59 2.316 . S
Eu38 C60 2.837 . S
Eu38 O61 2.488 . S
Eu38 O69 2.461 1_565 S
C39 O50 1.251 . S
C39 O59 1.237 1_556 S
O40 Eu38 2.323 1_545 S
O40 C56 1.279 . S
C41 C43 1.383 . S
C41 C45 1.388 . S
C41 C55 1.491 . S
C42 C44 1.403 . S
C42 C46 1.385 . S
C42 H70 0.931 . S
C43 C41 1.383 . S
C43 C44 1.393 . S
C43 H71 0.930 . S
C44 C42 1.403 . S
C44 C43 1.393 . S
C45 C41 1.388 . S
C45 C46 1.394 . S
C45 H72 0.930 . S
C46 C42 1.385 . S
C46 C45 1.394 . S
Eu47 O49 2.323 . S
Eu47 O50 2.328 . S
Eu47 O51 2.316 1_556 S
Eu47 O54 2.488 1_556 S
Eu47 C55 2.837 1_556 S
Eu47 O58 2.461 . S
O48 Eu38 2.328 . S
O48 C68 1.251 . S
O49 Eu47 2.323 . S
O49 C52 1.279 . S
O50 C39 1.251 . S
O50 Eu47 2.328 . S
O51 Eu47 2.316 1_554 S
O51 C68 1.237 . S
C52 O49 1.279 . S
C52 O53 1.244 . S
O53 C52 1.244 . S
O54 Eu47 2.488 1_554 S
O54 C55 1.271 . S
C55 C41 1.491 . S
C55 Eu47 2.837 1_554 S
C55 O54 1.271 . S
C55 O58 1.261 1_554 S
C56 O40 1.279 . S
C56 O57 1.244 . S
O57 C56 1.244 . S
O58 Eu47 2.461 . S
O58 C55 1.261 1_556 S
O59 Eu38 2.316 . S
O59 C39 1.237 1_554 S
C60 Eu38 2.837 . S
C60 O61 1.271 . S
C60 C62 1.491 . S
C60 O69 1.261 1_565 S
O61 Eu38 2.488 . S
O61 C60 1.271 . S
C62 C60 1.491 . S
C62 C64 1.383 1_565 S
C62 C66 1.388 . S
C63 C65 1.403 1_566 S
C63 C67 1.385 . S
C63 H73 0.931 . S
C64 C62 1.383 1_545 S
C64 C65 1.393 . S
C64 H74 0.930 . S
C65 C63 1.403 1_544 S
C65 C64 1.393 . S
C66 C62 1.388 . S
C66 C67 1.394 1_554 S
C66 H75 0.930 . S
C67 C63 1.385 . S
C67 C66 1.394 1_556 S
C68 O48 1.251 . S
C68 O51 1.237 . S
O69 Eu38 2.461 1_545 S
O69 C60 1.261 1_545 S
H70 C42 0.931 . S
H71 C43 0.930 . S
H72 C45 0.930 . S
H73 C63 0.931 . S
H74 C64 0.930 . S
H75 C66 0.930 . S
Eu76 O78 2.323 1_665 S
Eu76 O86 2.328 . S
Eu76 O97 2.318 1_655 S
Eu76 C98 2.837 . S
Eu76 O99 2.488 . S
Eu76 O107 2.461 1_565 S
C77 O88 1.251 . S
C77 O97 1.236 . S
O78 Eu76 2.323 1_445 S
O78 C94 1.279 . S
C79 C81 1.383 . S
C79 C83 1.388 . S
C79 C93 1.491 . S
C80 C82 1.403 . S
C80 C84 1.385 . S
C80 H108 0.931 . S
C81 C79 1.383 . S
C81 C82 1.393 . S
C81 H109 0.930 . S
C82 C80 1.403 . S
C82 C81 1.393 . S
C83 C79 1.388 . S
C83 C84 1.394 . S
C83 H110 0.930 . S
C84 C80 1.385 . S
C84 C83 1.394 . S
Eu85 O87 2.323 . S
Eu85 O88 2.328 . S
Eu85 O89 2.316 . S
Eu85 O92 2.488 . S
Eu85 C93 2.837 . S
Eu85 O96 2.461 . S
O86 Eu76 2.328 . S
O86 C106 1.251 1_655 S
O87 Eu85 2.323 . S
O87 C90 1.279 1_455 S
O88 C77 1.251 . S
O88 Eu85 2.328 . S
O89 Eu85 2.316 . S
O89 C106 1.237 . S
C90 O87 1.279 1_655 S
C90 O91 1.244 . S
O91 C90 1.244 . S
O92 Eu85 2.488 . S
O92 C93 1.271 . S
C93 C79 1.491 . S
C93 Eu85 2.837 . S
C93 O92 1.271 . S
C93 O96 1.261 . S
C94 O78 1.279 . S
C94 O95 1.244 . S
O95 C94 1.244 . S
O96 Eu85 2.461 . S
O96 C93 1.261 . S
O97 Eu76 2.318 1_455 S
O97 C77 1.236 . S
C98 Eu76 2.837 . S
C98 O99 1.271 . S
C98 C100 1.491 . S
C98 O107 1.261 1_565 S
O99 Eu76 2.488 . S
O99 C98 1.271 . S
C100 C98 1.491 . S
C100 C102 1.383 1_565 S
C100 C104 1.388 . S
C101 C103 1.403 1_565 S
C101 C105 1.385 . S
C101 H111 0.931 . S
C102 C100 1.383 1_545 S
C102 C103 1.393 . S
C102 H112 0.930 . S
C103 C101 1.403 1_545 S
C103 C102 1.393 . S
C104 C100 1.388 . S
C104 C105 1.394 . S
C104 H113 0.930 . S
C105 C101 1.385 . S
C105 C104 1.394 . S
C106 O86 1.251 1_455 S
C106 O89 1.237 . S
O107 Eu76 2.461 1_545 S
O107 C98 1.261 1_545 S
H108 C80 0.931 . S
H109 C81 0.930 . S
H110 C83 0.930 . S
H111 C101 0.931 . S
H112 C102 0.930 . S
H113 C104 0.930 . S
Eu114 O116 2.323 . S
Eu114 O124 2.328 . S
Eu114 O135 2.316 . S
Eu114 C136 2.837 . S
Eu114 O137 2.488 . S
Eu114 O145 2.461 . S
C115 O126 1.251 . S
C115 O135 1.237 . S
O116 Eu114 2.323 . S
O116 C132 1.279 . S
C117 C119 1.383 . S
C117 C121 1.388 . S
C117 C131 1.491 . S
C118 C120 1.403 . S
C118 C122 1.385 . S
C118 H146 0.931 . S
C119 C117 1.383 . S
C119 C120 1.393 . S
C119 H147 0.930 . S
C120 C118 1.403 . S
C120 C119 1.393 . S
C121 C117 1.388 . S
C121 C122 1.394 . S
C121 H148 0.930 . S
C122 C118 1.385 . S
C122 C121 1.394 . S
Eu123 O125 2.323 . S
Eu123 O126 2.328 . S
Eu123 O127 2.316 . S
Eu123 O130 2.488 . S
Eu123 C131 2.837 . S
Eu123 O134 2.461 . S
O124 Eu114 2.328 . S
O124 C144 1.251 . S
O125 Eu123 2.323 . S
O125 C128 1.279 . S
O126 C115 1.251 . S
O126 Eu123 2.328 . S
O127 Eu123 2.316 . S
O127 C144 1.237 . S
C128 O125 1.279 . S
C128 O129 1.244 . S
O129 C128 1.244 . S
O130 Eu123 2.488 . S
O130 C131 1.271 . S
C131 C117 1.491 . S
C131 Eu123 2.837 . S
C131 O130 1.271 . S
C131 O134 1.261 . S
C132 O116 1.279 . S
C132 O133 1.244 . S
O133 C132 1.244 . S
O134 Eu123 2.461 . S
O134 C131 1.261 . S
O135 Eu114 2.316 . S
O135 C115 1.237 . S
C136 Eu114 2.837 . S
C136 O137 1.271 . S
C136 C138 1.491 . S
C136 O145 1.261 . S
O137 Eu114 2.488 . S
O137 C136 1.271 . S
C138 C136 1.491 . S
C138 C140 1.383 . S
C138 C142 1.388 . S
C139 C141 1.403 . S
C139 C143 1.385 . S
C139 H149 0.931 . S
C140 C138 1.383 . S
C140 C141 1.393 . S
C140 H150 0.930 . S
C141 C139 1.403 . S
C141 C140 1.393 . S
C142 C138 1.388 . S
C142 C143 1.394 . S
C142 H151 0.930 . S
C143 C139 1.385 . S
C143 C142 1.394 . S
C144 O124 1.251 . S
C144 O127 1.237 . S
O145 Eu114 2.461 . S
O145 C136 1.261 . S
H146 C118 0.931 . S
H147 C119 0.930 . S
H148 C121 0.930 . S
H149 C139 0.931 . S
H150 C140 0.930 . S
H151 C142 0.930 . S
Eu152 O154 2.323 . S
Eu152 O162 2.328 . S
Eu152 O173 2.316 1_554 S
Eu152 C174 2.837 1_554 S
Eu152 O175 2.488 1_554 S
Eu152 O183 2.461 . S
C153 O164 1.251 1_655 S
C153 O173 1.237 . S
O154 Eu152 2.323 . S
O154 C170 1.279 1_655 S
C155 C157 1.383 . S
C155 C159 1.388 . S
C155 C169 1.491 . S
C156 C158 1.403 1_554 S
C156 C160 1.385 . S
C156 H184 0.931 . S
C157 C155 1.383 . S
C157 C158 1.393 . S
C157 H185 0.930 . S
C158 C156 1.403 1_556 S
C158 C157 1.393 . S
C159 C155 1.388 . S
C159 C160 1.394 1_556 S
C159 H186 0.930 . S
C160 C156 1.385 . S
C160 C159 1.394 1_554 S
Eu161 O163 2.323 1_455 S
Eu161 O164 2.328 . S
Eu161 O165 2.315 . S
Eu161 O168 2.488 . S
Eu161 C169 2.837 . S
Eu161 O172 2.461 . S
O162 Eu152 2.328 . S
O162 C182 1.251 . S
O163 Eu161 2.323 1_655 S
O163 C166 1.279 . S
O164 C153 1.251 1_455 S
O164 Eu161 2.328 . S
O165 Eu161 2.315 . S
O165 C182 1.238 1_456 S
C166 O163 1.279 . S
C166 O167 1.244 . S
O167 C166 1.244 . S
O168 Eu161 2.488 . S
O168 C169 1.271 . S
C169 C155 1.491 . S
C169 Eu161 2.837 . S
C169 O168 1.271 . S
C169 O172 1.261 . S
C170 O154 1.279 1_455 S
C170 O171 1.244 . S
O171 C170 1.244 . S
O172 Eu161 2.461 . S
O172 C169 1.261 . S
O173 Eu152 2.316 1_556 S
O173 C153 1.237 . S
C174 Eu152 2.837 1_556 S
C174 O175 1.271 . S
C174 C176 1.491 . S
C174 O183 1.261 1_556 S
O175 Eu152 2.488 1_556 S
O175 C174 1.271 . S
C176 C174 1.491 . S
C176 C178 1.383 . S
C176 C180 1.388 . S
C177 C179 1.403 . S
C177 C181 1.385 . S
C177 H187 0.931 . S
C178 C176 1.383 . S
C178 C179 1.393 . S
C178 H188 0.930 . S
C179 C177 1.403 . S
C179 C178 1.393 . S
C180 C176 1.388 . S
C180 C181 1.394 . S
C180 H189 0.930 . S
C181 C177 1.385 . S
C181 C180 1.394 . S
C182 O162 1.251 . S
C182 O165 1.238 1_654 S
O183 Eu152 2.461 . S
O183 C174 1.261 1_554 S
H184 C156 0.931 . S
H185 C157 0.930 . S
H186 C159 0.930 . S
H187 C177 0.931 . S
H188 C178 0.930 . S
H189 C180 0.930 . S
Eu190 O192 2.323 . S
Eu190 O200 2.328 . S
Eu190 O211 2.316 1_554 S
Eu190 C212 2.837 1_554 S
Eu190 O213 2.488 1_554 S
Eu190 O221 2.461 . S
C191 O202 1.251 . S
C191 O211 1.237 . S
O192 Eu190 2.323 . S
O192 C208 1.279 . S
C193 C195 1.383 1_545 S
C193 C197 1.388 . S
C193 C207 1.491 . S
C194 C196 1.403 1_544 S
C194 C198 1.385 . S
C194 H222 0.931 . S
C195 C193 1.383 1_565 S
C195 C196 1.393 . S
C195 H223 0.930 . S
C196 C194 1.403 1_566 S
C196 C195 1.393 . S
C197 C193 1.388 . S
C197 C198 1.394 1_556 S
C197 H224 0.930 . S
C198 C194 1.385 . S
C198 C197 1.394 1_554 S
Eu199 O201 2.323 1_545 S
Eu199 O202 2.328 . S
Eu199 O203 2.316 . S
Eu199 O206 2.488 . S
Eu199 C207 2.837 . S
Eu199 O210 2.461 1_545 S
O200 Eu190 2.328 . S
O200 C220 1.251 . S
O201 Eu199 2.323 1_565 S
O201 C204 1.279 . S
O202 C191 1.251 . S
O202 Eu199 2.328 . S
O203 Eu199 2.316 . S
O203 C220 1.237 1_556 S
C204 O201 1.279 . S
C204 O205 1.244 . S
O205 C204 1.244 . S
O206 Eu199 2.488 . S
O206 C207 1.271 . S
C207 C193 1.491 . S
C207 Eu199 2.837 . S
C207 O206 1.271 . S
C207 O210 1.261 1_545 S
C208 O192 1.279 . S
C208 O209 1.244 . S
O209 C208 1.244 . S
O210 Eu199 2.461 1_565 S
O210 C207 1.261 1_565 S
O211 Eu190 2.316 1_556 S
O211 C191 1.237 . S
C212 Eu190 2.837 1_556 S
C212 O213 1.271 . S
C212 C214 1.491 . S
C212 O221 1.261 1_556 S
O213 Eu190 2.488 1_556 S
O213 C212 1.271 . S
C214 C212 1.491 . S
C214 C216 1.383 . S
C214 C218 1.388 . S
C215 C217 1.403 . S
C215 C219 1.385 . S
C215 H225 0.931 . S
C216 C214 1.383 . S
C216 C217 1.393 . S
C216 H226 0.930 . S
C217 C215 1.403 . S
C217 C216 1.393 . S
C218 C214 1.388 . S
C218 C219 1.394 . S
C218 H227 0.930 . S
C219 C215 1.385 . S
C219 C218 1.394 . S
C220 O200 1.251 . S
C220 O203 1.237 1_554 S
O221 Eu190 2.461 . S
O221 C212 1.261 1_554 S
H222 C194 0.931 . S
H223 C195 0.930 . S
H224 C197 0.930 . S
H225 C215 0.931 . S
H226 C216 0.930 . S
H227 C218 0.930 . S
Eu228 O230 2.323 . S
Eu228 O238 2.328 . S
Eu228 O249 2.316 . S
Eu228 C250 2.837 . S
Eu228 O251 2.488 . S
Eu228 O259 2.461 . S
C229 O240 1.251 1_655 S
C229 O249 1.237 . S
O230 Eu228 2.323 . S
O230 C246 1.279 1_655 S
C231 C233 1.383 1_545 S
C231 C235 1.388 . S
C231 C245 1.491 . S
C232 C234 1.403 1_545 S
C232 C236 1.385 . S
C232 H260 0.931 . S
C233 C231 1.383 1_565 S
C233 C234 1.393 . S
C233 H261 0.930 . S
C234 C232 1.403 1_565 S
C234 C233 1.393 . S
C235 C231 1.388 . S
C235 C236 1.394 . S
C235 H262 0.930 . S
C236 C232 1.385 . S
C236 C235 1.394 . S
Eu237 O239 2.323 1_445 S
Eu237 O240 2.328 . S
Eu237 O241 2.318 1_455 S
Eu237 O244 2.488 . S
Eu237 C245 2.837 . S
Eu237 O248 2.461 1_545 S
O238 Eu228 2.328 . S
O238 C258 1.251 . S
O239 Eu237 2.323 1_665 S
O239 C242 1.279 . S
O240 C229 1.251 1_455 S
O240 Eu237 2.328 . S
O241 Eu237 2.318 1_655 S
O241 C258 1.236 . S
C242 O239 1.279 . S
C242 O243 1.244 . S
O243 C242 1.244 . S
O244 Eu237 2.488 . S
O244 C245 1.271 . S
C245 C231 1.491 . S
C245 Eu237 2.837 . S
C245 O244 1.271 . S
C245 O248 1.261 1_545 S
C246 O230 1.279 1_455 S
C246 O247 1.244 . S
O247 C246 1.244 . S
O248 Eu237 2.461 1_565 S
O248 C245 1.261 1_565 S
O249 Eu228 2.316 . S
O249 C229 1.237 . S
C250 Eu228 2.837 . S
C250 O251 1.271 . S
C250 C252 1.491 . S
C250 O259 1.261 . S
O251 Eu228 2.488 . S
O251 C250 1.271 . S
C252 C250 1.491 . S
C252 C254 1.383 . S
C252 C256 1.388 . S
C253 C255 1.403 . S
C253 C257 1.385 . S
C253 H263 0.931 . S
C254 C252 1.383 . S
C254 C255 1.393 . S
C254 H264 0.930 . S
C255 C253 1.403 . S
C255 C254 1.393 . S
C256 C252 1.388 . S
C256 C257 1.394 . S
C256 H265 0.930 . S
C257 C253 1.385 . S
C257 C256 1.394 . S
C258 O238 1.251 . S
C258 O241 1.236 . S
O259 Eu228 2.461 . S
O259 C250 1.261 . S
H260 C232 0.931 . S
H261 C233 0.930 . S
H262 C235 0.930 . S
H263 C253 0.931 . S
H264 C254 0.930 . S
H265 C256 0.930 . S
Eu266 O268 2.323 . S
Eu266 O276 2.328 . S
Eu266 O287 2.316 . S
Eu266 C288 2.837 . S
Eu266 O289 2.488 . S
Eu266 O297 2.461 . S
C267 O278 1.251 . S
C267 O287 1.237 . S
O268 Eu266 2.323 . S
O268 C284 1.279 . S
C269 C271 1.383 . S
C269 C273 1.388 . S
C269 C283 1.491 . S
C270 C272 1.403 . S
C270 C274 1.385 . S
C270 H298 0.931 . S
C271 C269 1.383 . S
C271 C272 1.393 . S
C271 H299 0.930 . S
C272 C270 1.403 . S
C272 C271 1.393 . S
C273 C269 1.388 . S
C273 C274 1.394 . S
C273 H300 0.930 . S
C274 C270 1.385 . S
C274 C273 1.394 . S
Eu275 O277 2.323 . S
Eu275 O278 2.328 . S
Eu275 O279 2.316 . S
Eu275 O282 2.488 . S
Eu275 C283 2.837 . S
Eu275 O286 2.461 . S
O276 Eu266 2.328 . S
O276 C296 1.251 . S
O277 Eu275 2.323 . S
O277 C280 1.279 . S
O278 C267 1.251 . S
O278 Eu275 2.328 . S
O279 Eu275 2.316 . S
O279 C296 1.237 . S
C280 O277 1.279 . S
C280 O281 1.244 . S
O281 C280 1.244 . S
O282 Eu275 2.488 . S
O282 C283 1.271 . S
C283 C269 1.491 . S
C283 Eu275 2.837 . S
C283 O282 1.271 . S
C283 O286 1.261 . S
C284 O268 1.279 . S
C284 O285 1.244 . S
O285 C284 1.244 . S
O286 Eu275 2.461 . S
O286 C283 1.261 . S
O287 Eu266 2.316 . S
O287 C267 1.237 . S
C288 Eu266 2.837 . S
C288 O289 1.271 . S
C288 C290 1.491 . S
C288 O297 1.261 . S
O289 Eu266 2.488 . S
O289 C288 1.271 . S
C290 C288 1.491 . S
C290 C292 1.383 . S
C290 C294 1.388 . S
C291 C293 1.403 . S
C291 C295 1.385 . S
C291 H301 0.931 . S
C292 C290 1.383 . S
C292 C293 1.393 . S
C292 H302 0.930 . S
C293 C291 1.403 . S
C293 C292 1.393 . S
C294 C290 1.388 . S
C294 C295 1.394 . S
C294 H303 0.930 . S
C295 C291 1.385 . S
C295 C294 1.394 . S
C296 O276 1.251 . S
C296 O279 1.237 . S
O297 Eu266 2.461 . S
O297 C288 1.261 . S
H298 C270 0.931 . S
H299 C271 0.930 . S
H300 C273 0.930 . S
H301 C291 0.931 . S
H302 C292 0.930 . S
H303 C294 0.930 . S
Eu304 O306 2.323 1_655 S
Eu304 O314 2.328 . S
Eu304 O325 2.315 . S
Eu304 C326 2.837 . S
Eu304 O327 2.488 . S
Eu304 O335 2.461 . S
C305 O316 1.251 . S
C305 O325 1.238 1_455 S
O306 Eu304 2.323 1_455 S
O306 C322 1.279 . S
C307 C309 1.383 . S
C307 C311 1.388 . S
C307 C321 1.491 . S
C308 C310 1.403 . S
C308 C312 1.385 . S
C308 H336 0.931 . S
C309 C307 1.383 . S
C309 C310 1.393 . S
C309 H337 0.930 . S
C310 C308 1.403 . S
C310 C309 1.393 . S
C311 C307 1.388 . S
C311 C312 1.394 . S
C311 H338 0.930 . S
C312 C308 1.385 . S
C312 C311 1.394 . S
Eu313 O315 2.323 . S
Eu313 O316 2.328 . S
Eu313 O317 2.316 . S
Eu313 O320 2.488 . S
Eu313 C321 2.837 . S
Eu313 O324 2.461 . S
O314 Eu304 2.328 . S
O314 C334 1.251 1_655 S
O315 Eu313 2.323 . S
O315 C318 1.279 1_455 S
O316 C305 1.251 . S
O316 Eu313 2.328 . S
O317 Eu313 2.316 . S
O317 C334 1.237 . S
C318 O315 1.279 1_655 S
C318 O319 1.244 . S
O319 C318 1.244 . S
O320 Eu313 2.488 . S
O320 C321 1.271 . S
C321 C307 1.491 . S
C321 Eu313 2.837 . S
C321 O320 1.271 . S
C321 O324 1.261 . S
C322 O306 1.279 . S
C322 O323 1.244 . S
O323 C322 1.244 . S
O324 Eu313 2.461 . S
O324 C321 1.261 . S
O325 Eu304 2.315 . S
O325 C305 1.238 1_655 S
C326 Eu304 2.837 . S
C326 O327 1.271 . S
C326 C328 1.491 . S
C326 O335 1.261 . S
O327 Eu304 2.488 . S
O327 C326 1.271 . S
C328 C326 1.491 . S
C328 C330 1.383 . S
C328 C332 1.388 . S
C329 C331 1.403 . S
C329 C333 1.385 . S
C329 H339 0.931 . S
C330 C328 1.383 . S
C330 C331 1.393 . S
C330 H340 0.930 . S
C331 C329 1.403 . S
C331 C330 1.393 . S
C332 C328 1.388 . S
C332 C333 1.394 . S
C332 H341 0.930 . S
C333 C329 1.385 . S
C333 C332 1.394 . S
C334 O314 1.251 1_455 S
C334 O317 1.237 . S
O335 Eu304 2.461 . S
O335 C326 1.261 . S
H336 C308 0.931 . S
H337 C309 0.930 . S
H338 C311 0.930 . S
H339 C329 0.931 . S
H340 C330 0.930 . S
H341 C332 0.930 . S
Eu342 O344 2.323 . S
Eu342 O352 2.328 . S
Eu342 O363 2.316 . S
Eu342 C364 2.837 . S
Eu342 O365 2.488 . S
Eu342 O373 2.461 . S
C343 O354 1.251 . S
C343 O363 1.237 . S
O344 Eu342 2.323 . S
O344 C360 1.279 . S
C345 C347 1.383 . S
C345 C349 1.388 . S
C345 C359 1.491 . S
C346 C348 1.403 . S
C346 C350 1.385 . S
C346 H374 0.931 . S
C347 C345 1.383 . S
C347 C348 1.393 . S
C347 H375 0.930 . S
C348 C346 1.403 . S
C348 C347 1.393 . S
C349 C345 1.388 . S
C349 C350 1.394 . S
C349 H376 0.930 . S
C350 C346 1.385 . S
C350 C349 1.394 . S
Eu351 O353 2.323 . S
Eu351 O354 2.328 . S
Eu351 O355 2.316 . S
Eu351 O358 2.488 . S
Eu351 C359 2.837 . S
Eu351 O362 2.461 . S
O352 Eu342 2.328 . S
O352 C372 1.251 . S
O353 Eu351 2.323 . S
O353 C356 1.279 . S
O354 C343 1.251 . S
O354 Eu351 2.328 . S
O355 Eu351 2.316 . S
O355 C372 1.237 . S
C356 O353 1.279 . S
C356 O357 1.244 . S
O357 C356 1.244 . S
O358 Eu351 2.488 . S
O358 C359 1.271 . S
C359 C345 1.491 . S
C359 Eu351 2.837 . S
C359 O358 1.271 . S
C359 O362 1.261 . S
C360 O344 1.279 . S
C360 O361 1.244 . S
O361 C360 1.244 . S
O362 Eu351 2.461 . S
O362 C359 1.261 . S
O363 Eu342 2.316 . S
O363 C343 1.237 . S
C364 Eu342 2.837 . S
C364 O365 1.271 . S
C364 C366 1.491 . S
C364 O373 1.261 . S
O365 Eu342 2.488 . S
O365 C364 1.271 . S
C366 C364 1.491 . S
C366 C368 1.383 . S
C366 C370 1.388 . S
C367 C369 1.403 . S
C367 C371 1.385 . S
C367 H377 0.931 . S
C368 C366 1.383 . S
C368 C369 1.393 . S
C368 H378 0.930 . S
C369 C367 1.403 . S
C369 C368 1.393 . S
C370 C366 1.388 . S
C370 C371 1.394 . S
C370 H379 0.930 . S
C371 C367 1.385 . S
C371 C370 1.394 . S
C372 O352 1.251 . S
C372 O355 1.237 . S
O373 Eu342 2.461 . S
O373 C364 1.261 . S
H374 C346 0.931 . S
H375 C347 0.930 . S
H376 C349 0.930 . S
H377 C367 0.931 . S
H378 C368 0.930 . S
H379 C370 0.930 . S
Eu380 O382 2.323 1_655 S
Eu380 O390 2.328 . S
Eu380 O401 2.315 . S
Eu380 C402 2.837 . S
Eu380 O403 2.488 . S
Eu380 O411 2.461 . S
C381 O392 1.251 . S
C381 O401 1.238 1_455 S
O382 Eu380 2.323 1_455 S
O382 C398 1.279 . S
C383 C385 1.383 . S
C383 C387 1.388 . S
C383 C397 1.491 . S
C384 C386 1.403 . S
C384 C388 1.385 . S
C384 H412 0.931 . S
C385 C383 1.383 . S
C385 C386 1.393 . S
C385 H413 0.930 . S
C386 C384 1.403 . S
C386 C385 1.393 . S
C387 C383 1.388 . S
C387 C388 1.394 . S
C387 H414 0.930 . S
C388 C384 1.385 . S
C388 C387 1.394 . S
Eu389 O391 2.323 . S
Eu389 O392 2.328 . S
Eu389 O393 2.316 . S
Eu389 O396 2.488 . S
Eu389 C397 2.837 . S
Eu389 O400 2.461 . S
O390 Eu380 2.328 . S
O390 C410 1.251 1_655 S
O391 Eu389 2.323 . S
O391 C394 1.279 1_455 S
O392 C381 1.251 . S
O392 Eu389 2.328 . S
O393 Eu389 2.316 . S
O393 C410 1.237 . S
C394 O391 1.279 1_655 S
C394 O395 1.244 . S
O395 C394 1.244 . S
O396 Eu389 2.488 . S
O396 C397 1.271 . S
C397 C383 1.491 . S
C397 Eu389 2.837 . S
C397 O396 1.271 . S
C397 O400 1.261 . S
C398 O382 1.279 . S
C398 O399 1.244 . S
O399 C398 1.244 . S
O400 Eu389 2.461 . S
O400 C397 1.261 . S
O401 Eu380 2.315 . S
O401 C381 1.238 1_655 S
C402 Eu380 2.837 . S
C402 O403 1.271 . S
C402 C404 1.491 . S
C402 O411 1.261 . S
O403 Eu380 2.488 . S
O403 C402 1.271 . S
C404 C402 1.491 . S
C404 C406 1.383 . S
C404 C408 1.388 . S
C405 C407 1.403 . S
C405 C409 1.385 . S
C405 H415 0.931 . S
C406 C404 1.383 . S
C406 C407 1.393 . S
C406 H416 0.930 . S
C407 C405 1.403 . S
C407 C406 1.393 . S
C408 C404 1.388 . S
C408 C409 1.394 . S
C408 H417 0.930 . S
C409 C405 1.385 . S
C409 C408 1.394 . S
C410 O390 1.251 1_455 S
C410 O393 1.237 . S
O411 Eu380 2.461 . S
O411 C402 1.261 . S
H412 C384 0.931 . S
H413 C385 0.930 . S
H414 C387 0.930 . S
H415 C405 0.931 . S
H416 C406 0.930 . S
H417 C408 0.930 . S
Eu418 O420 2.323 . S
Eu418 O428 2.328 . S
Eu418 O439 2.316 . S
Eu418 C440 2.837 . S
Eu418 O441 2.488 . S
Eu418 O449 2.461 . S
C419 O430 1.251 . S
C419 O439 1.237 . S
O420 Eu418 2.323 . S
O420 C436 1.279 . S
C421 C423 1.383 . S
C421 C425 1.388 . S
C421 C435 1.491 . S
C422 C424 1.403 . S
C422 C426 1.385 . S
C422 H450 0.931 . S
C423 C421 1.383 . S
C423 C424 1.393 . S
C423 H451 0.930 . S
C424 C422 1.403 . S
C424 C423 1.393 . S
C425 C421 1.388 . S
C425 C426 1.394 . S
C425 H452 0.930 . S
C426 C422 1.385 . S
C426 C425 1.394 . S
Eu427 O429 2.323 . S
Eu427 O430 2.328 . S
Eu427 O431 2.316 . S
Eu427 O434 2.488 . S
Eu427 C435 2.837 . S
Eu427 O438 2.461 . S
O428 Eu418 2.328 . S
O428 C448 1.251 . S
O429 Eu427 2.323 . S
O429 C432 1.279 . S
O430 C419 1.251 . S
O430 Eu427 2.328 . S
O431 Eu427 2.316 . S
O431 C448 1.237 . S
C432 O429 1.279 . S
C432 O433 1.244 . S
O433 C432 1.244 . S
O434 Eu427 2.488 . S
O434 C435 1.271 . S
C435 C421 1.491 . S
C435 Eu427 2.837 . S
C435 O434 1.271 . S
C435 O438 1.261 . S
C436 O420 1.279 . S
C436 O437 1.244 . S
O437 C436 1.244 . S
O438 Eu427 2.461 . S
O438 C435 1.261 . S
O439 Eu418 2.316 . S
O439 C419 1.237 . S
C440 Eu418 2.837 . S
C440 O441 1.271 . S
C440 C442 1.491 . S
C440 O449 1.261 . S
O441 Eu418 2.488 . S
O441 C440 1.271 . S
C442 C440 1.491 . S
C442 C444 1.383 . S
C442 C446 1.388 . S
C443 C445 1.403 . S
C443 C447 1.385 . S
C443 H453 0.931 . S
C444 C442 1.383 . S
C444 C445 1.393 . S
C444 H454 0.930 . S
C445 C443 1.403 . S
C445 C444 1.393 . S
C446 C442 1.388 . S
C446 C447 1.394 . S
C446 H455 0.930 . S
C447 C443 1.385 . S
C447 C446 1.394 . S
C448 O428 1.251 . S
C448 O431 1.237 . S
O449 Eu418 2.461 . S
O449 C440 1.261 . S
H450 C422 0.931 . S
H451 C423 0.930 . S
H452 C425 0.930 . S
H453 C443 0.931 . S
H454 C444 0.930 . S
H455 C446 0.930 . S
Eu456 O458 2.323 . S
Eu456 O466 2.328 . S
Eu456 O477 2.316 . S
Eu456 C478 2.837 . S
Eu456 O479 2.488 . S
Eu456 O487 2.461 . S
C457 O468 1.251 1_655 S
C457 O477 1.237 . S
O458 Eu456 2.323 . S
O458 C474 1.279 1_655 S
C459 C461 1.383 . S
C459 C463 1.388 . S
C459 C473 1.491 . S
C460 C462 1.403 . S
C460 C464 1.385 . S
C460 H488 0.931 . S
C461 C459 1.383 . S
C461 C462 1.393 . S
C461 H489 0.930 . S
C462 C460 1.403 . S
C462 C461 1.393 . S
C463 C459 1.388 . S
C463 C464 1.394 . S
C463 H490 0.930 . S
C464 C460 1.385 . S
C464 C463 1.394 . S
Eu465 O467 2.323 1_455 S
Eu465 O468 2.328 . S
Eu465 O469 2.315 . S
Eu465 O472 2.488 . S
Eu465 C473 2.837 . S
Eu465 O476 2.461 . S
O466 Eu456 2.328 . S
O466 C486 1.251 . S
O467 Eu465 2.323 1_655 S
O467 C470 1.279 . S
O468 C457 1.251 1_455 S
O468 Eu465 2.328 . S
O469 Eu465 2.315 . S
O469 C486 1.238 1_455 S
C470 O467 1.279 . S
C470 O471 1.244 . S
O471 C470 1.244 . S
O472 Eu465 2.488 . S
O472 C473 1.271 . S
C473 C459 1.491 . S
C473 Eu465 2.837 . S
C473 O472 1.271 . S
C473 O476 1.261 . S
C474 O458 1.279 1_455 S
C474 O475 1.244 . S
O475 C474 1.244 . S
O476 Eu465 2.461 . S
O476 C473 1.261 . S
O477 Eu456 2.316 . S
O477 C457 1.237 . S
C478 Eu456 2.837 . S
C478 O479 1.271 . S
C478 C480 1.491 . S
C478 O487 1.261 . S
O479 Eu456 2.488 . S
O479 C478 1.271 . S
C480 C478 1.491 . S
C480 C482 1.383 . S
C480 C484 1.388 . S
C481 C483 1.403 . S
C481 C485 1.385 . S
C481 H491 0.931 . S
C482 C480 1.383 . S
C482 C483 1.393 . S
C482 H492 0.930 . S
C483 C481 1.403 . S
C483 C482 1.393 . S
C484 C480 1.388 . S
C484 C485 1.394 . S
C484 H493 0.930 . S
C485 C481 1.385 . S
C485 C484 1.394 . S
C486 O466 1.251 . S
C486 O469 1.238 1_655 S
O487 Eu456 2.461 . S
O487 C478 1.261 . S
H488 C460 0.931 . S
H489 C461 0.930 . S
H490 C463 0.930 . S
H491 C481 0.931 . S
H492 C482 0.930 . S
H493 C484 0.930 . S
Eu494 O496 2.323 . S
Eu494 O504 2.328 . S
Eu494 O515 2.316 . S
Eu494 C516 2.837 . S
Eu494 O517 2.488 . S
Eu494 O525 2.461 . S
C495 O506 1.251 . S
C495 O515 1.237 . S
O496 Eu494 2.323 . S
O496 C512 1.279 . S
C497 C499 1.383 . S
C497 C501 1.388 . S
C497 C511 1.491 . S
C498 C500 1.403 . S
C498 C502 1.385 . S
C498 H526 0.931 . S
C499 C497 1.383 . S
C499 C500 1.393 . S
C499 H527 0.930 . S
C500 C498 1.403 . S
C500 C499 1.393 . S
C501 C497 1.388 . S
C501 C502 1.394 . S
C501 H528 0.930 . S
C502 C498 1.385 . S
C502 C501 1.394 . S
Eu503 O505 2.323 . S
Eu503 O506 2.328 . S
Eu503 O507 2.316 . S
Eu503 O510 2.488 . S
Eu503 C511 2.837 . S
Eu503 O514 2.461 . S
O504 Eu494 2.328 . S
O504 C524 1.251 . S
O505 Eu503 2.323 . S
O505 C508 1.279 . S
O506 C495 1.251 . S
O506 Eu503 2.328 . S
O507 Eu503 2.316 . S
O507 C524 1.237 . S
C508 O505 1.279 . S
C508 O509 1.244 . S
O509 C508 1.244 . S
O510 Eu503 2.488 . S
O510 C511 1.271 . S
C511 C497 1.491 . S
C511 Eu503 2.837 . S
C511 O510 1.271 . S
C511 O514 1.261 . S
C512 O496 1.279 . S
C512 O513 1.244 . S
O513 C512 1.244 . S
O514 Eu503 2.461 . S
O514 C511 1.261 . S
O515 Eu494 2.316 . S
O515 C495 1.237 . S
C516 Eu494 2.837 . S
C516 O517 1.271 . S
C516 C518 1.491 . S
C516 O525 1.261 . S
O517 Eu494 2.488 . S
O517 C516 1.271 . S
C518 C516 1.491 . S
C518 C520 1.383 . S
C518 C522 1.388 . S
C519 C521 1.403 . S
C519 C523 1.385 . S
C519 H529 0.931 . S
C520 C518 1.383 . S
C520 C521 1.393 . S
C520 H530 0.930 . S
C521 C519 1.403 . S
C521 C520 1.393 . S
C522 C518 1.388 . S
C522 C523 1.394 . S
C522 H531 0.930 . S
C523 C519 1.385 . S
C523 C522 1.394 . S
C524 O504 1.251 . S
C524 O507 1.237 . S
O525 Eu494 2.461 . S
O525 C516 1.261 . S
H526 C498 0.931 . S
H527 C499 0.930 . S
H528 C501 0.930 . S
H529 C519 0.931 . S
H530 C520 0.930 . S
H531 C522 0.930 . S
Eu532 O534 2.323 . S
Eu532 O542 2.328 . S
Eu532 O553 2.316 . S
Eu532 C554 2.837 . S
Eu532 O555 2.488 . S
Eu532 O563 2.461 . S
C533 O544 1.251 1_655 S
C533 O553 1.237 . S
O534 Eu532 2.323 . S
O534 C550 1.279 1_655 S
C535 C537 1.383 . S
C535 C539 1.388 . S
C535 C549 1.491 . S
C536 C538 1.403 . S
C536 C540 1.385 . S
C536 H564 0.931 . S
C537 C535 1.383 . S
C537 C538 1.393 . S
C537 H565 0.930 . S
C538 C536 1.403 . S
C538 C537 1.393 . S
C539 C535 1.388 . S
C539 C540 1.394 . S
C539 H566 0.930 . S
C540 C536 1.385 . S
C540 C539 1.394 . S
Eu541 O543 2.323 1_455 S
Eu541 O544 2.328 . S
Eu541 O545 2.315 . S
Eu541 O548 2.488 . S
Eu541 C549 2.837 . S
Eu541 O552 2.461 . S
O542 Eu532 2.328 . S
O542 C562 1.251 . S
O543 Eu541 2.323 1_655 S
O543 C546 1.279 . S
O544 C533 1.251 1_455 S
O544 Eu541 2.328 . S
O545 Eu541 2.315 . S
O545 C562 1.238 1_455 S
C546 O543 1.279 . S
C546 O547 1.244 . S
O547 C546 1.244 . S
O548 Eu541 2.488 . S
O548 C549 1.271 . S
C549 C535 1.491 . S
C549 Eu541 2.837 . S
C549 O548 1.271 . S
C549 O552 1.261 . S
C550 O534 1.279 1_455 S
C550 O551 1.244 . S
O551 C550 1.244 . S
O552 Eu541 2.461 . S
O552 C549 1.261 . S
O553 Eu532 2.316 . S
O553 C533 1.237 . S
C554 Eu532 2.837 . S
C554 O555 1.271 . S
C554 C556 1.491 . S
C554 O563 1.261 . S
O555 Eu532 2.488 . S
O555 C554 1.271 . S
C556 C554 1.491 . S
C556 C558 1.383 . S
C556 C560 1.388 . S
C557 C559 1.403 . S
C557 C561 1.385 . S
C557 H567 0.931 . S
C558 C556 1.383 . S
C558 C559 1.393 . S
C558 H568 0.930 . S
C559 C557 1.403 . S
C559 C558 1.393 . S
C560 C556 1.388 . S
C560 C561 1.394 . S
C560 H569 0.930 . S
C561 C557 1.385 . S
C561 C560 1.394 . S
C562 O542 1.251 . S
C562 O545 1.238 1_655 S
O563 Eu532 2.461 . S
O563 C554 1.261 . S
H564 C536 0.931 . S
H565 C537 0.930 . S
H566 C539 0.930 . S
H567 C557 0.931 . S
H568 C558 0.930 . S
H569 C560 0.930 . S
Eu570 O572 2.323 . S
Eu570 O580 2.328 . S
Eu570 O591 2.316 . S
Eu570 C592 2.837 . S
Eu570 O593 2.488 . S
Eu570 O601 2.461 . S
C571 O582 1.251 . S
C571 O591 1.237 . S
O572 Eu570 2.323 . S
O572 C588 1.279 . S
C573 C575 1.383 . S
C573 C577 1.388 . S
C573 C587 1.491 . S
C574 C576 1.403 . S
C574 C578 1.385 . S
C574 H602 0.931 . S
C575 C573 1.383 . S
C575 C576 1.393 . S
C575 H603 0.930 . S
C576 C574 1.403 . S
C576 C575 1.393 . S
C577 C573 1.388 . S
C577 C578 1.394 . S
C577 H604 0.930 . S
C578 C574 1.385 . S
C578 C577 1.394 . S
Eu579 O581 2.323 . S
Eu579 O582 2.328 . S
Eu579 O583 2.316 . S
Eu579 O586 2.488 . S
Eu579 C587 2.837 . S
Eu579 O590 2.461 . S
O580 Eu570 2.328 . S
O580 C600 1.251 . S
O581 Eu579 2.323 . S
O581 C584 1.279 . S
O582 C571 1.251 . S
O582 Eu579 2.328 . S
O583 Eu579 2.316 . S
O583 C600 1.237 . S
C584 O581 1.279 . S
C584 O585 1.244 . S
O585 C584 1.244 . S
O586 Eu579 2.488 . S
O586 C587 1.271 . S
C587 C573 1.491 . S
C587 Eu579 2.837 . S
C587 O586 1.271 . S
C587 O590 1.261 . S
C588 O572 1.279 . S
C588 O589 1.244 . S
O589 C588 1.244 . S
O590 Eu579 2.461 . S
O590 C587 1.261 . S
O591 Eu570 2.316 . S
O591 C571 1.237 . S
C592 Eu570 2.837 . S
C592 O593 1.271 . S
C592 C594 1.491 . S
C592 O601 1.261 . S
O593 Eu570 2.488 . S
O593 C592 1.271 . S
C594 C592 1.491 . S
C594 C596 1.383 . S
C594 C598 1.388 . S
C595 C597 1.403 . S
C595 C599 1.385 . S
C595 H605 0.931 . S
C596 C594 1.383 . S
C596 C597 1.393 . S
C596 H606 0.930 . S
C597 C595 1.403 . S
C597 C596 1.393 . S
C598 C594 1.388 . S
C598 C599 1.394 . S
C598 H607 0.930 . S
C599 C595 1.385 . S
C599 C598 1.394 . S
C600 O580 1.251 . S
C600 O583 1.237 . S
O601 Eu570 2.461 . S
O601 C592 1.261 . S
H602 C574 0.931 . S
H603 C575 0.930 . S
H604 C577 0.930 . S
H605 C595 0.931 . S
H606 C596 0.930 . S
H607 C598 0.930 . S
Eu608 O610 2.323 . S
Eu608 O618 2.328 . S
Eu608 O629 2.316 . S
Eu608 C630 2.837 . S
Eu608 O631 2.488 . S
Eu608 O639 2.461 . S
C609 O620 1.251 . S
C609 O629 1.237 . S
O610 Eu608 2.323 . S
O610 C626 1.279 . S
C611 C613 1.383 . S
C611 C615 1.388 . S
C611 C625 1.491 . S
C612 C614 1.403 . S
C612 C616 1.385 . S
C612 H640 0.931 . S
C613 C611 1.383 . S
C613 C614 1.393 . S
C613 H641 0.930 . S
C614 C612 1.403 . S
C614 C613 1.393 . S
C615 C611 1.388 . S
C615 C616 1.394 . S
C615 H642 0.930 . S
C616 C612 1.385 . S
C616 C615 1.394 . S
Eu617 O619 2.323 . S
Eu617 O620 2.328 . S
Eu617 O621 2.316 . S
Eu617 O624 2.488 . S
Eu617 C625 2.837 . S
Eu617 O628 2.461 . S
O618 Eu608 2.328 . S
O618 C638 1.251 . S
O619 Eu617 2.323 . S
O619 C622 1.279 . S
O620 C609 1.251 . S
O620 Eu617 2.328 . S
O621 Eu617 2.316 . S
O621 C638 1.237 . S
C622 O619 1.279 . S
C622 O623 1.244 . S
O623 C622 1.244 . S
O624 Eu617 2.488 . S
O624 C625 1.271 . S
C625 C611 1.491 . S
C625 Eu617 2.837 . S
C625 O624 1.271 . S
C625 O628 1.261 . S
C626 O610 1.279 . S
C626 O627 1.244 . S
O627 C626 1.244 . S
O628 Eu617 2.461 . S
O628 C625 1.261 . S
O629 Eu608 2.316 . S
O629 C609 1.237 . S
C630 Eu608 2.837 . S
C630 O631 1.271 . S
C630 C632 1.491 . S
C630 O639 1.261 . S
O631 Eu608 2.488 . S
O631 C630 1.271 . S
C632 C630 1.491 . S
C632 C634 1.383 . S
C632 C636 1.388 . S
C633 C635 1.403 . S
C633 C637 1.385 . S
C633 H643 0.931 . S
C634 C632 1.383 . S
C634 C635 1.393 . S
C634 H644 0.930 . S
C635 C633 1.403 . S
C635 C634 1.393 . S
C636 C632 1.388 . S
C636 C637 1.394 . S
C636 H645 0.930 . S
C637 C633 1.385 . S
C637 C636 1.394 . S
C638 O618 1.251 . S
C638 O621 1.237 . S
O639 Eu608 2.461 . S
O639 C630 1.261 . S
H640 C612 0.931 . S
H641 C613 0.930 . S
H642 C615 0.930 . S
H643 C633 0.931 . S
H644 C634 0.930 . S
H645 C636 0.930 . S
Eu646 O648 2.323 1_565 S
Eu646 O656 2.328 . S
Eu646 O667 2.316 . S
Eu646 C668 2.837 . S
Eu646 O669 2.488 . S
Eu646 O677 2.461 1_565 S
C647 O658 1.251 . S
C647 O667 1.237 . S
O648 Eu646 2.323 1_545 S
O648 C664 1.279 . S
C649 C651 1.383 . S
C649 C653 1.388 . S
C649 C663 1.491 . S
C650 C652 1.403 . S
C650 C654 1.385 . S
C650 H678 0.931 . S
C651 C649 1.383 . S
C651 C652 1.393 . S
C651 H679 0.930 . S
C652 C650 1.403 . S
C652 C651 1.393 . S
C653 C649 1.388 . S
C653 C654 1.394 . S
C653 H680 0.930 . S
C654 C650 1.385 . S
C654 C653 1.394 . S
Eu655 O657 2.323 . S
Eu655 O658 2.328 . S
Eu655 O659 2.316 . S
Eu655 O662 2.488 . S
Eu655 C663 2.837 . S
Eu655 O666 2.461 . S
O656 Eu646 2.328 . S
O656 C676 1.251 . S
O657 Eu655 2.323 . S
O657 C660 1.279 . S
O658 C647 1.251 . S
O658 Eu655 2.328 . S
O659 Eu655 2.316 . S
O659 C676 1.237 . S
C660 O657 1.279 . S
C660 O661 1.244 . S
O661 C660 1.244 . S
O662 Eu655 2.488 . S
O662 C663 1.271 . S
C663 C649 1.491 . S
C663 Eu655 2.837 . S
C663 O662 1.271 . S
C663 O666 1.261 . S
C664 O648 1.279 . S
C664 O665 1.244 . S
O665 C664 1.244 . S
O666 Eu655 2.461 . S
O666 C663 1.261 . S
O667 Eu646 2.316 . S
O667 C647 1.237 . S
C668 Eu646 2.837 . S
C668 O669 1.271 . S
C668 C670 1.491 . S
C668 O677 1.261 1_565 S
O669 Eu646 2.488 . S
O669 C668 1.271 . S
C670 C668 1.491 . S
C670 C672 1.383 1_565 S
C670 C674 1.388 . S
C671 C673 1.403 1_565 S
C671 C675 1.385 . S
C671 H681 0.931 . S
C672 C670 1.383 1_545 S
C672 C673 1.393 . S
C672 H682 0.930 . S
C673 C671 1.403 1_545 S
C673 C672 1.393 . S
C674 C670 1.388 . S
C674 C675 1.394 . S
C674 H683 0.930 . S
C675 C671 1.385 . S
C675 C674 1.394 . S
C676 O656 1.251 . S
C676 O659 1.237 . S
O677 Eu646 2.461 1_545 S
O677 C668 1.261 1_545 S
H678 C650 0.931 . S
H679 C651 0.930 . S
H680 C653 0.930 . S
H681 C671 0.931 . S
H682 C672 0.930 . S
H683 C674 0.930 . S
Eu684 O686 2.323 1_565 S
Eu684 O694 2.328 . S
Eu684 O705 2.316 . S
Eu684 C706 2.837 . S
Eu684 O707 2.488 . S
Eu684 O715 2.461 1_565 S
C685 O696 1.251 . S
C685 O705 1.237 . S
O686 Eu684 2.323 1_545 S
O686 C702 1.279 . S
C687 C689 1.383 . S
C687 C691 1.388 . S
C687 C701 1.491 . S
C688 C690 1.403 . S
C688 C692 1.385 . S
C688 H716 0.931 . S
C689 C687 1.383 . S
C689 C690 1.393 . S
C689 H717 0.930 . S
C690 C688 1.403 . S
C690 C689 1.393 . S
C691 C687 1.388 . S
C691 C692 1.394 . S
C691 H718 0.930 . S
C692 C688 1.385 . S
C692 C691 1.394 . S
Eu693 O695 2.323 . S
Eu693 O696 2.328 . S
Eu693 O697 2.316 . S
Eu693 O700 2.488 . S
Eu693 C701 2.837 . S
Eu693 O704 2.461 . S
O694 Eu684 2.328 . S
O694 C714 1.251 . S
O695 Eu693 2.323 . S
O695 C698 1.279 . S
O696 C685 1.251 . S
O696 Eu693 2.328 . S
O697 Eu693 2.316 . S
O697 C714 1.237 . S
C698 O695 1.279 . S
C698 O699 1.244 . S
O699 C698 1.244 . S
O700 Eu693 2.488 . S
O700 C701 1.271 . S
C701 C687 1.491 . S
C701 Eu693 2.837 . S
C701 O700 1.271 . S
C701 O704 1.261 . S
C702 O686 1.279 . S
C702 O703 1.244 . S
O703 C702 1.244 . S
O704 Eu693 2.461 . S
O704 C701 1.261 . S
O705 Eu684 2.316 . S
O705 C685 1.237 . S
C706 Eu684 2.837 . S
C706 O707 1.271 . S
C706 C708 1.491 . S
C706 O715 1.261 1_565 S
O707 Eu684 2.488 . S
O707 C706 1.271 . S
C708 C706 1.491 . S
C708 C710 1.383 1_565 S
C708 C712 1.388 . S
C709 C711 1.403 1_565 S
C709 C713 1.385 . S
C709 H719 0.931 . S
C710 C708 1.383 1_545 S
C710 C711 1.393 . S
C710 H720 0.930 . S
C711 C709 1.403 1_545 S
C711 C710 1.393 . S
C712 C708 1.388 . S
C712 C713 1.394 . S
C712 H721 0.930 . S
C713 C709 1.385 . S
C713 C712 1.394 . S
C714 O694 1.251 . S
C714 O697 1.237 . S
O715 Eu684 2.461 1_545 S
O715 C706 1.261 1_545 S
H716 C688 0.931 . S
H717 C689 0.930 . S
H718 C691 0.930 . S
H719 C709 0.931 . S
H720 C710 0.930 . S
H721 C712 0.930 . S
Eu722 O724 2.323 . S
Eu722 O732 2.328 . S
Eu722 O743 2.316 . S
Eu722 C744 2.837 . S
Eu722 O745 2.488 . S
Eu722 O753 2.461 . S
C723 O734 1.251 . S
C723 O743 1.237 . S
O724 Eu722 2.323 . S
O724 C740 1.279 . S
C725 C727 1.383 . S
C725 C729 1.388 . S
C725 C739 1.491 . S
C726 C728 1.403 . S
C726 C730 1.385 . S
C726 H754 0.931 . S
C727 C725 1.383 . S
C727 C728 1.393 . S
C727 H755 0.930 . S
C728 C726 1.403 . S
C728 C727 1.393 . S
C729 C725 1.388 . S
C729 C730 1.394 . S
C729 H756 0.930 . S
C730 C726 1.385 . S
C730 C729 1.394 . S
Eu731 O733 2.323 . S
Eu731 O734 2.328 . S
Eu731 O735 2.316 . S
Eu731 O738 2.488 . S
Eu731 C739 2.837 . S
Eu731 O742 2.461 . S
O732 Eu722 2.328 . S
O732 C752 1.251 . S
O733 Eu731 2.323 . S
O733 C736 1.279 . S
O734 C723 1.251 . S
O734 Eu731 2.328 . S
O735 Eu731 2.316 . S
O735 C752 1.237 . S
C736 O733 1.279 . S
C736 O737 1.244 . S
O737 C736 1.244 . S
O738 Eu731 2.488 . S
O738 C739 1.271 . S
C739 C725 1.491 . S
C739 Eu731 2.837 . S
C739 O738 1.271 . S
C739 O742 1.261 . S
C740 O724 1.279 . S
C740 O741 1.244 . S
O741 C740 1.244 . S
O742 Eu731 2.461 . S
O742 C739 1.261 . S
O743 Eu722 2.316 . S
O743 C723 1.237 . S
C744 Eu722 2.837 . S
C744 O745 1.271 . S
C744 C746 1.491 . S
C744 O753 1.261 . S
O745 Eu722 2.488 . S
O745 C744 1.271 . S
C746 C744 1.491 . S
C746 C748 1.383 . S
C746 C750 1.388 . S
C747 C749 1.403 . S
C747 C751 1.385 . S
C747 H757 0.931 . S
C748 C746 1.383 . S
C748 C749 1.393 . S
C748 H758 0.930 . S
C749 C747 1.403 . S
C749 C748 1.393 . S
C750 C746 1.388 . S
C750 C751 1.394 . S
C750 H759 0.930 . S
C751 C747 1.385 . S
C751 C750 1.394 . S
C752 O732 1.251 . S
C752 O735 1.237 . S
O753 Eu722 2.461 . S
O753 C744 1.261 . S
H754 C726 0.931 . S
H755 C727 0.930 . S
H756 C729 0.930 . S
H757 C747 0.931 . S
H758 C748 0.930 . S
H759 C750 0.930 . S
Eu760 O762 2.323 . S
Eu760 O770 2.328 . S
Eu760 O781 2.316 . S
Eu760 C782 2.837 . S
Eu760 O783 2.488 . S
Eu760 O791 2.461 . S
C761 O772 1.251 . S
C761 O781 1.237 . S
O762 Eu760 2.323 . S
O762 C778 1.279 . S
C763 C765 1.383 . S
C763 C767 1.388 . S
C763 C777 1.491 . S
C764 C766 1.403 . S
C764 C768 1.385 . S
C764 H792 0.931 . S
C765 C763 1.383 . S
C765 C766 1.393 . S
C765 H793 0.930 . S
C766 C764 1.403 . S
C766 C765 1.393 . S
C767 C763 1.388 . S
C767 C768 1.394 . S
C767 H794 0.930 . S
C768 C764 1.385 . S
C768 C767 1.394 . S
Eu769 O771 2.323 . S
Eu769 O772 2.328 . S
Eu769 O773 2.316 . S
Eu769 O776 2.488 . S
Eu769 C777 2.837 . S
Eu769 O780 2.461 . S
O770 Eu760 2.328 . S
O770 C790 1.251 . S
O771 Eu769 2.323 . S
O771 C774 1.279 . S
O772 C761 1.251 . S
O772 Eu769 2.328 . S
O773 Eu769 2.316 . S
O773 C790 1.237 . S
C774 O771 1.279 . S
C774 O775 1.244 . S
O775 C774 1.244 . S
O776 Eu769 2.488 . S
O776 C777 1.271 . S
C777 C763 1.491 . S
C777 Eu769 2.837 . S
C777 O776 1.271 . S
C777 O780 1.261 . S
C778 O762 1.279 . S
C778 O779 1.244 . S
O779 C778 1.244 . S
O780 Eu769 2.461 . S
O780 C777 1.261 . S
O781 Eu760 2.316 . S
O781 C761 1.237 . S
C782 Eu760 2.837 . S
C782 O783 1.271 . S
C782 C784 1.491 . S
C782 O791 1.261 . S
O783 Eu760 2.488 . S
O783 C782 1.271 . S
C784 C782 1.491 . S
C784 C786 1.383 . S
C784 C788 1.388 . S
C785 C787 1.403 . S
C785 C789 1.385 . S
C785 H795 0.931 . S
C786 C784 1.383 . S
C786 C787 1.393 . S
C786 H796 0.930 . S
C787 C785 1.403 . S
C787 C786 1.393 . S
C788 C784 1.388 . S
C788 C789 1.394 . S
C788 H797 0.930 . S
C789 C785 1.385 . S
C789 C788 1.394 . S
C790 O770 1.251 . S
C790 O773 1.237 . S
O791 Eu760 2.461 . S
O791 C782 1.261 . S
H792 C764 0.931 . S
H793 C765 0.930 . S
H794 C767 0.930 . S
H795 C785 0.931 . S
H796 C786 0.930 . S
H797 C788 0.930 . S
Eu798 O800 2.323 . S
Eu798 O808 2.328 . S
Eu798 O819 2.316 . S
Eu798 C820 2.837 . S
Eu798 O821 2.488 . S
Eu798 O829 2.461 . S
C799 O810 1.251 . S
C799 O819 1.237 . S
O800 Eu798 2.323 . S
O800 C816 1.279 . S
C801 C803 1.383 1_545 S
C801 C805 1.388 . S
C801 C815 1.491 . S
C802 C804 1.403 1_545 S
C802 C806 1.385 . S
C802 H830 0.931 . S
C803 C801 1.383 1_565 S
C803 C804 1.393 . S
C803 H831 0.930 . S
C804 C802 1.403 1_565 S
C804 C803 1.393 . S
C805 C801 1.388 . S
C805 C806 1.394 . S
C805 H832 0.930 . S
C806 C802 1.385 . S
C806 C805 1.394 . S
Eu807 O809 2.323 1_545 S
Eu807 O810 2.328 . S
Eu807 O811 2.316 . S
Eu807 O814 2.488 . S
Eu807 C815 2.837 . S
Eu807 O818 2.461 1_545 S
O808 Eu798 2.328 . S
O808 C828 1.251 . S
O809 Eu807 2.323 1_565 S
O809 C812 1.279 . S
O810 C799 1.251 . S
O810 Eu807 2.328 . S
O811 Eu807 2.316 . S
O811 C828 1.237 . S
C812 O809 1.279 . S
C812 O813 1.244 . S
O813 C812 1.244 . S
O814 Eu807 2.488 . S
O814 C815 1.271 . S
C815 C801 1.491 . S
C815 Eu807 2.837 . S
C815 O814 1.271 . S
C815 O818 1.261 1_545 S
C816 O800 1.279 . S
C816 O817 1.244 . S
O817 C816 1.244 . S
O818 Eu807 2.461 1_565 S
O818 C815 1.261 1_565 S
O819 Eu798 2.316 . S
O819 C799 1.237 . S
C820 Eu798 2.837 . S
C820 O821 1.271 . S
C820 C822 1.491 . S
C820 O829 1.261 . S
O821 Eu798 2.488 . S
O821 C820 1.271 . S
C822 C820 1.491 . S
C822 C824 1.383 . S
C822 C826 1.388 . S
C823 C825 1.403 . S
C823 C827 1.385 . S
C823 H833 0.931 . S
C824 C822 1.383 . S
C824 C825 1.393 . S
C824 H834 0.930 . S
C825 C823 1.403 . S
C825 C824 1.393 . S
C826 C822 1.388 . S
C826 C827 1.394 . S
C826 H835 0.930 . S
C827 C823 1.385 . S
C827 C826 1.394 . S
C828 O808 1.251 . S
C828 O811 1.237 . S
O829 Eu798 2.461 . S
O829 C820 1.261 . S
H830 C802 0.931 . S
H831 C803 0.930 . S
H832 C805 0.930 . S
H833 C823 0.931 . S
H834 C824 0.930 . S
H835 C826 0.930 . S
Eu836 O838 2.323 . S
Eu836 O846 2.328 . S
Eu836 O857 2.316 . S
Eu836 C858 2.837 . S
Eu836 O859 2.488 . S
Eu836 O867 2.461 . S
C837 O848 1.251 . S
C837 O857 1.237 . S
O838 Eu836 2.323 . S
O838 C854 1.279 . S
C839 C841 1.383 1_545 S
C839 C843 1.388 . S
C839 C853 1.491 . S
C840 C842 1.403 1_545 S
C840 C844 1.385 . S
C840 H868 0.931 . S
C841 C839 1.383 1_565 S
C841 C842 1.393 . S
C841 H869 0.930 . S
C842 C840 1.403 1_565 S
C842 C841 1.393 . S
C843 C839 1.388 . S
C843 C844 1.394 . S
C843 H870 0.930 . S
C844 C840 1.385 . S
C844 C843 1.394 . S
Eu845 O847 2.323 1_545 S
Eu845 O848 2.328 . S
Eu845 O849 2.316 . S
Eu845 O852 2.488 . S
Eu845 C853 2.837 . S
Eu845 O856 2.461 1_545 S
O846 Eu836 2.328 . S
O846 C866 1.251 . S
O847 Eu845 2.323 1_565 S
O847 C850 1.279 . S
O848 C837 1.251 . S
O848 Eu845 2.328 . S
O849 Eu845 2.316 . S
O849 C866 1.237 . S
C850 O847 1.279 . S
C850 O851 1.244 . S
O851 C850 1.244 . S
O852 Eu845 2.488 . S
O852 C853 1.271 . S
C853 C839 1.491 . S
C853 Eu845 2.837 . S
C853 O852 1.271 . S
C853 O856 1.261 1_545 S
C854 O838 1.279 . S
C854 O855 1.244 . S
O855 C854 1.244 . S
O856 Eu845 2.461 1_565 S
O856 C853 1.261 1_565 S
O857 Eu836 2.316 . S
O857 C837 1.237 . S
C858 Eu836 2.837 . S
C858 O859 1.271 . S
C858 C860 1.491 . S
C858 O867 1.261 . S
O859 Eu836 2.488 . S
O859 C858 1.271 . S
C860 C858 1.491 . S
C860 C862 1.383 . S
C860 C864 1.388 . S
C861 C863 1.403 . S
C861 C865 1.385 . S
C861 H871 0.931 . S
C862 C860 1.383 . S
C862 C863 1.393 . S
C862 H872 0.930 . S
C863 C861 1.403 . S
C863 C862 1.393 . S
C864 C860 1.388 . S
C864 C865 1.394 . S
C864 H873 0.930 . S
C865 C861 1.385 . S
C865 C864 1.394 . S
C866 O846 1.251 . S
C866 O849 1.237 . S
O867 Eu836 2.461 . S
O867 C858 1.261 . S
H868 C840 0.931 . S
H869 C841 0.930 . S
H870 C843 0.930 . S
H871 C861 0.931 . S
H872 C862 0.930 . S
H873 C864 0.930 . S
Eu874 O876 2.323 . S
Eu874 O884 2.328 . S
Eu874 O895 2.316 . S
Eu874 C896 2.837 . S
Eu874 O897 2.488 . S
Eu874 O905 2.461 . S
C875 O886 1.251 . S
C875 O895 1.237 . S
O876 Eu874 2.323 . S
O876 C892 1.279 . S
C877 C879 1.383 . S
C877 C881 1.388 . S
C877 C891 1.491 . S
C878 C880 1.403 . S
C878 C882 1.385 . S
C878 H906 0.931 . S
C879 C877 1.383 . S
C879 C880 1.393 . S
C879 H907 0.930 . S
C880 C878 1.403 . S
C880 C879 1.393 . S
C881 C877 1.388 . S
C881 C882 1.394 . S
C881 H908 0.930 . S
C882 C878 1.385 . S
C882 C881 1.394 . S
Eu883 O885 2.323 . S
Eu883 O886 2.328 . S
Eu883 O887 2.316 . S
Eu883 O890 2.488 . S
Eu883 C891 2.837 . S
Eu883 O894 2.461 . S
O884 Eu874 2.328 . S
O884 C904 1.251 . S
O885 Eu883 2.323 . S
O885 C888 1.279 . S
O886 C875 1.251 . S
O886 Eu883 2.328 . S
O887 Eu883 2.316 . S
O887 C904 1.237 . S
C888 O885 1.279 . S
C888 O889 1.244 . S
O889 C888 1.244 . S
O890 Eu883 2.488 . S
O890 C891 1.271 . S
C891 C877 1.491 . S
C891 Eu883 2.837 . S
C891 O890 1.271 . S
C891 O894 1.261 . S
C892 O876 1.279 . S
C892 O893 1.244 . S
O893 C892 1.244 . S
O894 Eu883 2.461 . S
O894 C891 1.261 . S
O895 Eu874 2.316 . S
O895 C875 1.237 . S
C896 Eu874 2.837 . S
C896 O897 1.271 . S
C896 C898 1.491 . S
C896 O905 1.261 . S
O897 Eu874 2.488 . S
O897 C896 1.271 . S
C898 C896 1.491 . S
C898 C900 1.383 . S
C898 C902 1.388 . S
C899 C901 1.403 . S
C899 C903 1.385 . S
C899 H909 0.931 . S
C900 C898 1.383 . S
C900 C901 1.393 . S
C900 H910 0.930 . S
C901 C899 1.403 . S
C901 C900 1.393 . S
C902 C898 1.388 . S
C902 C903 1.394 . S
C902 H911 0.930 . S
C903 C899 1.385 . S
C903 C902 1.394 . S
C904 O884 1.251 . S
C904 O887 1.237 . S
O905 Eu874 2.461 . S
O905 C896 1.261 . S
H906 C878 0.931 . S
H907 C879 0.930 . S
H908 C881 0.930 . S
H909 C899 0.931 . S
H910 C900 0.930 . S
H911 C902 0.930 . S
Eu912 O914 2.323 . S
Eu912 O922 2.328 . S
Eu912 O933 2.316 . S
Eu912 C934 2.837 . S
Eu912 O935 2.488 . S
Eu912 O943 2.461 . S
C913 O924 1.251 . S
C913 O933 1.237 1_556 S
O914 Eu912 2.323 . S
O914 C930 1.279 . S
C915 C917 1.383 . S
C915 C919 1.388 . S
C915 C929 1.491 . S
C916 C918 1.403 . S
C916 C920 1.385 . S
C916 H944 0.931 . S
C917 C915 1.383 . S
C917 C918 1.393 . S
C917 H945 0.930 . S
C918 C916 1.403 . S
C918 C917 1.393 . S
C919 C915 1.388 . S
C919 C920 1.394 . S
C919 H946 0.930 . S
C920 C916 1.385 . S
C920 C919 1.394 . S
Eu921 O923 2.323 . S
Eu921 O924 2.328 . S
Eu921 O925 2.316 1_556 S
Eu921 O928 2.488 1_556 S
Eu921 C929 2.837 1_556 S
Eu921 O932 2.461 . S
O922 Eu912 2.328 . S
O922 C942 1.251 . S
O923 Eu921 2.323 . S
O923 C926 1.279 . S
O924 C913 1.251 . S
O924 Eu921 2.328 . S
O925 Eu921 2.316 1_554 S
O925 C942 1.237 . S
C926 O923 1.279 . S
C926 O927 1.244 . S
O927 C926 1.244 . S
O928 Eu921 2.488 1_554 S
O928 C929 1.271 . S
C929 C915 1.491 . S
C929 Eu921 2.837 1_554 S
C929 O928 1.271 . S
C929 O932 1.261 1_554 S
C930 O914 1.279 . S
C930 O931 1.244 . S
O931 C930 1.244 . S
O932 Eu921 2.461 . S
O932 C929 1.261 1_556 S
O933 Eu912 2.316 . S
O933 C913 1.237 1_554 S
C934 Eu912 2.837 . S
C934 O935 1.271 . S
C934 C936 1.491 . S
C934 O943 1.261 . S
O935 Eu912 2.488 . S
O935 C934 1.271 . S
C936 C934 1.491 . S
C936 C938 1.383 . S
C936 C940 1.388 . S
C937 C939 1.403 1_556 S
C937 C941 1.385 . S
C937 H947 0.931 . S
C938 C936 1.383 . S
C938 C939 1.393 . S
C938 H948 0.930 . S
C939 C937 1.403 1_554 S
C939 C938 1.393 . S
C940 C936 1.388 . S
C940 C941 1.394 1_554 S
C940 H949 0.930 . S
C941 C937 1.385 . S
C941 C940 1.394 1_556 S
C942 O922 1.251 . S
C942 O925 1.237 . S
O943 Eu912 2.461 . S
O943 C934 1.261 . S
H944 C916 0.931 . S
H945 C917 0.930 . S
H946 C919 0.930 . S
H947 C937 0.931 . S
H948 C938 0.930 . S
H949 C940 0.930 . S
Eu950 O952 2.323 . S
Eu950 O960 2.328 . S
Eu950 O971 2.316 . S
Eu950 C972 2.837 . S
Eu950 O973 2.488 . S
Eu950 O981 2.461 . S
C951 O962 1.251 . S
C951 O971 1.237 1_556 S
O952 Eu950 2.323 . S
O952 C968 1.279 . S
C953 C955 1.383 . S
C953 C957 1.388 . S
C953 C967 1.491 . S
C954 C956 1.403 . S
C954 C958 1.385 . S
C954 H982 0.931 . S
C955 C953 1.383 . S
C955 C956 1.393 . S
C955 H983 0.930 . S
C956 C954 1.403 . S
C956 C955 1.393 . S
C957 C953 1.388 . S
C957 C958 1.394 . S
C957 H984 0.930 . S
C958 C954 1.385 . S
C958 C957 1.394 . S
Eu959 O961 2.323 . S
Eu959 O962 2.328 . S
Eu959 O963 2.316 1_556 S
Eu959 O966 2.488 1_556 S
Eu959 C967 2.837 1_556 S
Eu959 O970 2.461 . S
O960 Eu950 2.328 . S
O960 C980 1.251 . S
O961 Eu959 2.323 . S
O961 C964 1.279 . S
O962 C951 1.251 . S
O962 Eu959 2.328 . S
O963 Eu959 2.316 1_554 S
O963 C980 1.237 . S
C964 O961 1.279 . S
C964 O965 1.244 . S
O965 C964 1.244 . S
O966 Eu959 2.488 1_554 S
O966 C967 1.271 . S
C967 C953 1.491 . S
C967 Eu959 2.837 1_554 S
C967 O966 1.271 . S
C967 O970 1.261 1_554 S
C968 O952 1.279 . S
C968 O969 1.244 . S
O969 C968 1.244 . S
O970 Eu959 2.461 . S
O970 C967 1.261 1_556 S
O971 Eu950 2.316 . S
O971 C951 1.237 1_554 S
C972 Eu950 2.837 . S
C972 O973 1.271 . S
C972 C974 1.491 . S
C972 O981 1.261 . S
O973 Eu950 2.488 . S
O973 C972 1.271 . S
C974 C972 1.491 . S
C974 C976 1.383 . S
C974 C978 1.388 . S
C975 C977 1.403 1_556 S
C975 C979 1.385 . S
C975 H985 0.931 . S
C976 C974 1.383 . S
C976 C977 1.393 . S
C976 H986 0.930 . S
C977 C975 1.403 1_554 S
C977 C976 1.393 . S
C978 C974 1.388 . S
C978 C979 1.394 1_554 S
C978 H987 0.930 . S
C979 C975 1.385 . S
C979 C978 1.394 1_556 S
C980 O960 1.251 . S
C980 O963 1.237 . S
O981 Eu950 2.461 . S
O981 C972 1.261 . S
H982 C954 0.931 . S
H983 C955 0.930 . S
H984 C957 0.930 . S
H985 C975 0.931 . S
H986 C976 0.930 . S
H987 C978 0.930 . S
Eu988 O990 2.323 . S
Eu988 O998 2.328 . S
Eu988 O1009 2.316 . S
Eu988 C1010 2.837 . S
Eu988 O1011 2.488 . S
Eu988 O1019 2.461 . S
C989 O1000 1.251 . S
C989 O1009 1.237 . S
O990 Eu988 2.323 . S
O990 C1006 1.279 . S
C991 C993 1.383 . S
C991 C995 1.388 . S
C991 C1005 1.491 . S
C992 C994 1.403 . S
C992 C996 1.385 . S
C992 H1020 0.931 . S
C993 C991 1.383 . S
C993 C994 1.393 . S
C993 H1021 0.930 . S
C994 C992 1.403 . S
C994 C993 1.393 . S
C995 C991 1.388 . S
C995 C996 1.394 . S
C995 H1022 0.930 . S
C996 C992 1.385 . S
C996 C995 1.394 . S
Eu997 O999 2.323 . S
Eu997 O1000 2.328 . S
Eu997 O1001 2.316 . S
Eu997 O1004 2.488 . S
Eu997 C1005 2.837 . S
Eu997 O1008 2.461 . S
O998 Eu988 2.328 . S
O998 C1018 1.251 . S
O999 Eu997 2.323 . S
O999 C1002 1.279 . S
O1000 C989 1.251 . S
O1000 Eu997 2.328 . S
O1001 Eu997 2.316 . S
O1001 C1018 1.237 . S
C1002 O999 1.279 . S
C1002 O1003 1.244 . S
O1003 C1002 1.244 . S
O1004 Eu997 2.488 . S
O1004 C1005 1.271 . S
C1005 C991 1.491 . S
C1005 Eu997 2.837 . S
C1005 O1004 1.271 . S
C1005 O1008 1.261 . S
C1006 O990 1.279 . S
C1006 O1007 1.244 . S
O1007 C1006 1.244 . S
O1008 Eu997 2.461 . S
O1008 C1005 1.261 . S
O1009 Eu988 2.316 . S
O1009 C989 1.237 . S
C1010 Eu988 2.837 . S
C1010 O1011 1.271 . S
C1010 C1012 1.491 . S
C1010 O1019 1.261 . S
O1011 Eu988 2.488 . S
O1011 C1010 1.271 . S
C1012 C1010 1.491 . S
C1012 C1014 1.383 . S
C1012 C1016 1.388 . S
C1013 C1015 1.403 . S
C1013 C1017 1.385 . S
C1013 H1023 0.931 . S
C1014 C1012 1.383 . S
C1014 C1015 1.393 . S
C1014 H1024 0.930 . S
C1015 C1013 1.403 . S
C1015 C1014 1.393 . S
C1016 C1012 1.388 . S
C1016 C1017 1.394 . S
C1016 H1025 0.930 . S
C1017 C1013 1.385 . S
C1017 C1016 1.394 . S
C1018 O998 1.251 . S
C1018 O1001 1.237 . S
O1019 Eu988 2.461 . S
O1019 C1010 1.261 . S
H1020 C992 0.931 . S
H1021 C993 0.930 . S
H1022 C995 0.930 . S
H1023 C1013 0.931 . S
H1024 C1014 0.930 . S
H1025 C1016 0.930 . S
Eu1026 O1028 2.323 . S
Eu1026 O1036 2.328 . S
Eu1026 O1047 2.316 . S
Eu1026 C1048 2.837 . S
Eu1026 O1049 2.488 . S
Eu1026 O1057 2.461 . S
C1027 O1038 1.251 . S
C1027 O1047 1.237 . S
O1028 Eu1026 2.323 . S
O1028 C1044 1.279 . S
C1029 C1031 1.383 . S
C1029 C1033 1.388 . S
C1029 C1043 1.491 . S
C1030 C1032 1.403 . S
C1030 C1034 1.385 . S
C1030 H1058 0.931 . S
C1031 C1029 1.383 . S
C1031 C1032 1.393 . S
C1031 H1059 0.930 . S
C1032 C1030 1.403 . S
C1032 C1031 1.393 . S
C1033 C1029 1.388 . S
C1033 C1034 1.394 . S
C1033 H1060 0.930 . S
C1034 C1030 1.385 . S
C1034 C1033 1.394 . S
Eu1035 O1037 2.323 . S
Eu1035 O1038 2.328 . S
Eu1035 O1039 2.316 . S
Eu1035 O1042 2.488 . S
Eu1035 C1043 2.837 . S
Eu1035 O1046 2.461 . S
O1036 Eu1026 2.328 . S
O1036 C1056 1.251 . S
O1037 Eu1035 2.323 . S
O1037 C1040 1.279 . S
O1038 C1027 1.251 . S
O1038 Eu1035 2.328 . S
O1039 Eu1035 2.316 . S
O1039 C1056 1.237 . S
C1040 O1037 1.279 . S
C1040 O1041 1.244 . S
O1041 C1040 1.244 . S
O1042 Eu1035 2.488 . S
O1042 C1043 1.271 . S
C1043 C1029 1.491 . S
C1043 Eu1035 2.837 . S
C1043 O1042 1.271 . S
C1043 O1046 1.261 . S
C1044 O1028 1.279 . S
C1044 O1045 1.244 . S
O1045 C1044 1.244 . S
O1046 Eu1035 2.461 . S
O1046 C1043 1.261 . S
O1047 Eu1026 2.316 . S
O1047 C1027 1.237 . S
C1048 Eu1026 2.837 . S
C1048 O1049 1.271 . S
C1048 C1050 1.491 . S
C1048 O1057 1.261 . S
O1049 Eu1026 2.488 . S
O1049 C1048 1.271 . S
C1050 C1048 1.491 . S
C1050 C1052 1.383 . S
C1050 C1054 1.388 . S
C1051 C1053 1.403 . S
C1051 C1055 1.385 . S
C1051 H1061 0.931 . S
C1052 C1050 1.383 . S
C1052 C1053 1.393 . S
C1052 H1062 0.930 . S
C1053 C1051 1.403 . S
C1053 C1052 1.393 . S
C1054 C1050 1.388 . S
C1054 C1055 1.394 . S
C1054 H1063 0.930 . S
C1055 C1051 1.385 . S
C1055 C1054 1.394 . S
C1056 O1036 1.251 . S
C1056 O1039 1.237 . S
O1057 Eu1026 2.461 . S
O1057 C1048 1.261 . S
H1058 C1030 0.931 . S
H1059 C1031 0.930 . S
H1060 C1033 0.930 . S
H1061 C1051 0.931 . S
H1062 C1052 0.930 . S
H1063 C1054 0.930 . S
Eu1064 O1066 2.323 . S
Eu1064 O1074 2.328 . S
Eu1064 O1085 2.316 1_554 S
Eu1064 C1086 2.837 1_554 S
Eu1064 O1087 2.488 1_554 S
Eu1064 O1095 2.461 . S
C1065 O1076 1.251 . S
C1065 O1085 1.237 . S
O1066 Eu1064 2.323 . S
O1066 C1082 1.279 . S
C1067 C1069 1.383 . S
C1067 C1071 1.388 . S
C1067 C1081 1.491 . S
C1068 C1070 1.403 1_554 S
C1068 C1072 1.385 . S
C1068 H1096 0.931 . S
C1069 C1067 1.383 . S
C1069 C1070 1.393 . S
C1069 H1097 0.930 . S
C1070 C1068 1.403 1_556 S
C1070 C1069 1.393 . S
C1071 C1067 1.388 . S
C1071 C1072 1.394 1_556 S
C1071 H1098 0.930 . S
C1072 C1068 1.385 . S
C1072 C1071 1.394 1_554 S
Eu1073 O1075 2.323 . S
Eu1073 O1076 2.328 . S
Eu1073 O1077 2.316 . S
Eu1073 O1080 2.488 . S
Eu1073 C1081 2.837 . S
Eu1073 O1084 2.461 . S
O1074 Eu1064 2.328 . S
O1074 C1094 1.251 . S
O1075 Eu1073 2.323 . S
O1075 C1078 1.279 . S
O1076 C1065 1.251 . S
O1076 Eu1073 2.328 . S
O1077 Eu1073 2.316 . S
O1077 C1094 1.237 1_556 S
C1078 O1075 1.279 . S
C1078 O1079 1.244 . S
O1079 C1078 1.244 . S
O1080 Eu1073 2.488 . S
O1080 C1081 1.271 . S
C1081 C1067 1.491 . S
C1081 Eu1073 2.837 . S
C1081 O1080 1.271 . S
C1081 O1084 1.261 . S
C1082 O1066 1.279 . S
C1082 O1083 1.244 . S
O1083 C1082 1.244 . S
O1084 Eu1073 2.461 . S
O1084 C1081 1.261 . S
O1085 Eu1064 2.316 1_556 S
O1085 C1065 1.237 . S
C1086 Eu1064 2.837 1_556 S
C1086 O1087 1.271 . S
C1086 C1088 1.491 . S
C1086 O1095 1.261 1_556 S
O1087 Eu1064 2.488 1_556 S
O1087 C1086 1.271 . S
C1088 C1086 1.491 . S
C1088 C1090 1.383 . S
C1088 C1092 1.388 . S
C1089 C1091 1.403 . S
C1089 C1093 1.385 . S
C1089 H1099 0.931 . S
C1090 C1088 1.383 . S
C1090 C1091 1.393 . S
C1090 H1100 0.930 . S
C1091 C1089 1.403 . S
C1091 C1090 1.393 . S
C1092 C1088 1.388 . S
C1092 C1093 1.394 . S
C1092 H1101 0.930 . S
C1093 C1089 1.385 . S
C1093 C1092 1.394 . S
C1094 O1074 1.251 . S
C1094 O1077 1.237 1_554 S
O1095 Eu1064 2.461 . S
O1095 C1086 1.261 1_554 S
H1096 C1068 0.931 . S
H1097 C1069 0.930 . S
H1098 C1071 0.930 . S
H1099 C1089 0.931 . S
H1100 C1090 0.930 . S
H1101 C1092 0.930 . S
Eu1102 O1104 2.323 . S
Eu1102 O1112 2.328 . S
Eu1102 O1123 2.316 1_554 S
Eu1102 C1124 2.837 1_554 S
Eu1102 O1125 2.488 1_554 S
Eu1102 O1133 2.461 . S
C1103 O1114 1.251 . S
C1103 O1123 1.237 . S
O1104 Eu1102 2.323 . S
O1104 C1120 1.279 . S
C1105 C1107 1.383 . S
C1105 C1109 1.388 . S
C1105 C1119 1.491 . S
C1106 C1108 1.403 1_554 S
C1106 C1110 1.385 . S
C1106 H1134 0.931 . S
C1107 C1105 1.383 . S
C1107 C1108 1.393 . S
C1107 H1135 0.930 . S
C1108 C1106 1.403 1_556 S
C1108 C1107 1.393 . S
C1109 C1105 1.388 . S
C1109 C1110 1.394 1_556 S
C1109 H1136 0.930 . S
C1110 C1106 1.385 . S
C1110 C1109 1.394 1_554 S
Eu1111 O1113 2.323 . S
Eu1111 O1114 2.328 . S
Eu1111 O1115 2.316 . S
Eu1111 O1118 2.488 . S
Eu1111 C1119 2.837 . S
Eu1111 O1122 2.461 . S
O1112 Eu1102 2.328 . S
O1112 C1132 1.251 . S
O1113 Eu1111 2.323 . S
O1113 C1116 1.279 . S
O1114 C1103 1.251 . S
O1114 Eu1111 2.328 . S
O1115 Eu1111 2.316 . S
O1115 C1132 1.237 1_556 S
C1116 O1113 1.279 . S
C1116 O1117 1.244 . S
O1117 C1116 1.244 . S
O1118 Eu1111 2.488 . S
O1118 C1119 1.271 . S
C1119 C1105 1.491 . S
C1119 Eu1111 2.837 . S
C1119 O1118 1.271 . S
C1119 O1122 1.261 . S
C1120 O1104 1.279 . S
C1120 O1121 1.244 . S
O1121 C1120 1.244 . S
O1122 Eu1111 2.461 . S
O1122 C1119 1.261 . S
O1123 Eu1102 2.316 1_556 S
O1123 C1103 1.237 . S
C1124 Eu1102 2.837 1_556 S
C1124 O1125 1.271 . S
C1124 C1126 1.491 . S
C1124 O1133 1.261 1_556 S
O1125 Eu1102 2.488 1_556 S
O1125 C1124 1.271 . S
C1126 C1124 1.491 . S
C1126 C1128 1.383 . S
C1126 C1130 1.388 . S
C1127 C1129 1.403 . S
C1127 C1131 1.385 . S
C1127 H1137 0.931 . S
C1128 C1126 1.383 . S
C1128 C1129 1.393 . S
C1128 H1138 0.930 . S
C1129 C1127 1.403 . S
C1129 C1128 1.393 . S
C1130 C1126 1.388 . S
C1130 C1131 1.394 . S
C1130 H1139 0.930 . S
C1131 C1127 1.385 . S
C1131 C1130 1.394 . S
C1132 O1112 1.251 . S
C1132 O1115 1.237 1_554 S
O1133 Eu1102 2.461 . S
O1133 C1124 1.261 1_554 S
H1134 C1106 0.931 . S
H1135 C1107 0.930 . S
H1136 C1109 0.930 . S
H1137 C1127 0.931 . S
H1138 C1128 0.930 . S
H1139 C1130 0.930 . S
Eu1140 O1142 2.323 . S
Eu1140 O1150 2.328 . S
Eu1140 O1161 2.316 . S
Eu1140 C1162 2.837 . S
Eu1140 O1163 2.488 . S
Eu1140 O1171 2.461 . S
C1141 O1152 1.251 . S
C1141 O1161 1.237 . S
O1142 Eu1140 2.323 . S
O1142 C1158 1.279 . S
C1143 C1145 1.383 . S
C1143 C1147 1.388 . S
C1143 C1157 1.491 . S
C1144 C1146 1.403 . S
C1144 C1148 1.385 . S
C1144 H1172 0.931 . S
C1145 C1143 1.383 . S
C1145 C1146 1.393 . S
C1145 H1173 0.930 . S
C1146 C1144 1.403 . S
C1146 C1145 1.393 . S
C1147 C1143 1.388 . S
C1147 C1148 1.394 . S
C1147 H1174 0.930 . S
C1148 C1144 1.385 . S
C1148 C1147 1.394 . S
Eu1149 O1151 2.323 . S
Eu1149 O1152 2.328 . S
Eu1149 O1153 2.316 . S
Eu1149 O1156 2.488 . S
Eu1149 C1157 2.837 . S
Eu1149 O1160 2.461 . S
O1150 Eu1140 2.328 . S
O1150 C1170 1.251 . S
O1151 Eu1149 2.323 . S
O1151 C1154 1.279 . S
O1152 C1141 1.251 . S
O1152 Eu1149 2.328 . S
O1153 Eu1149 2.316 . S
O1153 C1170 1.237 . S
C1154 O1151 1.279 . S
C1154 O1155 1.244 . S
O1155 C1154 1.244 . S
O1156 Eu1149 2.488 . S
O1156 C1157 1.271 . S
C1157 C1143 1.491 . S
C1157 Eu1149 2.837 . S
C1157 O1156 1.271 . S
C1157 O1160 1.261 . S
C1158 O1142 1.279 . S
C1158 O1159 1.244 . S
O1159 C1158 1.244 . S
O1160 Eu1149 2.461 . S
O1160 C1157 1.261 . S
O1161 Eu1140 2.316 . S
O1161 C1141 1.237 . S
C1162 Eu1140 2.837 . S
C1162 O1163 1.271 . S
C1162 C1164 1.491 . S
C1162 O1171 1.261 . S
O1163 Eu1140 2.488 . S
O1163 C1162 1.271 . S
C1164 C1162 1.491 . S
C1164 C1166 1.383 . S
C1164 C1168 1.388 . S
C1165 C1167 1.403 . S
C1165 C1169 1.385 . S
C1165 H1175 0.931 . S
C1166 C1164 1.383 . S
C1166 C1167 1.393 . S
C1166 H1176 0.930 . S
C1167 C1165 1.403 . S
C1167 C1166 1.393 . S
C1168 C1164 1.388 . S
C1168 C1169 1.394 . S
C1168 H1177 0.930 . S
C1169 C1165 1.385 . S
C1169 C1168 1.394 . S
C1170 O1150 1.251 . S
C1170 O1153 1.237 . S
O1171 Eu1140 2.461 . S
O1171 C1162 1.261 . S
H1172 C1144 0.931 . S
H1173 C1145 0.930 . S
H1174 C1147 0.930 . S
H1175 C1165 0.931 . S
H1176 C1166 0.930 . S
H1177 C1168 0.930 . S
Eu1178 O1180 2.323 . S
Eu1178 O1188 2.328 . S
Eu1178 O1199 2.316 . S
Eu1178 C1200 2.837 . S
Eu1178 O1201 2.488 . S
Eu1178 O1209 2.461 . S
C1179 O1190 1.251 . S
C1179 O1199 1.237 . S
O1180 Eu1178 2.323 . S
O1180 C1196 1.279 . S
C1181 C1183 1.383 . S
C1181 C1185 1.388 . S
C1181 C1195 1.491 . S
C1182 C1184 1.403 . S
C1182 C1186 1.385 . S
C1182 H1210 0.931 . S
C1183 C1181 1.383 . S
C1183 C1184 1.393 . S
C1183 H1211 0.930 . S
C1184 C1182 1.403 . S
C1184 C1183 1.393 . S
C1185 C1181 1.388 . S
C1185 C1186 1.394 . S
C1185 H1212 0.930 . S
C1186 C1182 1.385 . S
C1186 C1185 1.394 . S
Eu1187 O1189 2.323 . S
Eu1187 O1190 2.328 . S
Eu1187 O1191 2.316 . S
Eu1187 O1194 2.488 . S
Eu1187 C1195 2.837 . S
Eu1187 O1198 2.461 . S
O1188 Eu1178 2.328 . S
O1188 C1208 1.251 . S
O1189 Eu1187 2.323 . S
O1189 C1192 1.279 . S
O1190 C1179 1.251 . S
O1190 Eu1187 2.328 . S
O1191 Eu1187 2.316 . S
O1191 C1208 1.237 . S
C1192 O1189 1.279 . S
C1192 O1193 1.244 . S
O1193 C1192 1.244 . S
O1194 Eu1187 2.488 . S
O1194 C1195 1.271 . S
C1195 C1181 1.491 . S
C1195 Eu1187 2.837 . S
C1195 O1194 1.271 . S
C1195 O1198 1.261 . S
C1196 O1180 1.279 . S
C1196 O1197 1.244 . S
O1197 C1196 1.244 . S
O1198 Eu1187 2.461 . S
O1198 C1195 1.261 . S
O1199 Eu1178 2.316 . S
O1199 C1179 1.237 . S
C1200 Eu1178 2.837 . S
C1200 O1201 1.271 . S
C1200 C1202 1.491 . S
C1200 O1209 1.261 . S
O1201 Eu1178 2.488 . S
O1201 C1200 1.271 . S
C1202 C1200 1.491 . S
C1202 C1204 1.383 . S
C1202 C1206 1.388 . S
C1203 C1205 1.403 . S
C1203 C1207 1.385 . S
C1203 H1213 0.931 . S
C1204 C1202 1.383 . S
C1204 C1205 1.393 . S
C1204 H1214 0.930 . S
C1205 C1203 1.403 . S
C1205 C1204 1.393 . S
C1206 C1202 1.388 . S
C1206 C1207 1.394 . S
C1206 H1215 0.930 . S
C1207 C1203 1.385 . S
C1207 C1206 1.394 . S
C1208 O1188 1.251 . S
C1208 O1191 1.237 . S
O1209 Eu1178 2.461 . S
O1209 C1200 1.261 . S
H1210 C1182 0.931 . S
H1211 C1183 0.930 . S
H1212 C1185 0.930 . S
H1213 C1203 0.931 . S
H1214 C1204 0.930 . S
H1215 C1206 0.930 . S
C1216 C1217 1.369 . S
C1216 C1218 1.419 . S
C1216 H1220 0.930 . S
C1217 C1216 1.369 . S
C1217 C1226 1.429 1_556 S
C1218 C1216 1.419 . S
C1218 C1219 1.363 . S
C1218 H1221 0.929 . S
C1219 C1218 1.363 . S
C1219 C1225 1.428 1_556 S
H1220 C1216 0.930 . S
H1221 C1218 0.929 . S
S1222 N1223 1.613 . S
S1222 N1224 1.610 . S
N1223 S1222 1.613 . S
N1223 C1226 1.350 . S
N1224 S1222 1.610 . S
N1224 C1225 1.351 . S
C1225 C1219 1.428 1_554 S
C1225 N1224 1.351 . S
C1225 C1226 1.434 . S
C1226 C1217 1.429 1_554 S
C1226 N1223 1.350 . S
C1226 C1225 1.434 . S
C1227 C1228 1.369 1_554 S
C1227 C1229 1.419 . S
C1227 H1231 0.930 . S
C1228 C1227 1.369 1_556 S
C1228 C1237 1.429 . S
C1229 C1227 1.419 . S
C1229 C1230 1.363 1_554 S
C1229 H1232 0.929 . S
C1230 C1229 1.363 1_556 S
C1230 C1236 1.428 . S
H1231 C1227 0.930 . S
H1232 C1229 0.929 . S
S1233 N1234 1.613 . S
S1233 N1235 1.610 . S
N1234 S1233 1.613 . S
N1234 C1237 1.350 . S
N1235 S1233 1.610 . S
N1235 C1236 1.351 . S
C1236 C1230 1.428 . S
C1236 N1235 1.351 . S
C1236 C1237 1.434 . S
C1237 C1228 1.429 . S
C1237 N1234 1.350 . S
C1237 C1236 1.434 . S
C1238 C1239 1.369 . S
C1238 C1240 1.419 . S
C1238 H1242 0.930 . S
C1239 C1238 1.369 . S
C1239 C1248 1.429 . S
C1240 C1238 1.419 . S
C1240 C1241 1.363 . S
C1240 H1243 0.929 . S
C1241 C1240 1.363 . S
C1241 C1247 1.428 . S
H1242 C1238 0.930 . S
H1243 C1240 0.929 . S
S1244 N1245 1.613 . S
S1244 N1246 1.610 . S
N1245 S1244 1.613 . S
N1245 C1248 1.350 . S
N1246 S1244 1.610 . S
N1246 C1247 1.351 . S
C1247 C1241 1.428 . S
C1247 N1246 1.351 . S
C1247 C1248 1.434 . S
C1248 C1239 1.429 . S
C1248 N1245 1.350 . S
C1248 C1247 1.434 . S
C1249 C1250 1.369 . S
C1249 C1251 1.419 . S
C1249 H1253 0.930 . S
C1250 C1249 1.369 . S
C1250 C1259 1.429 . S
C1251 C1249 1.419 . S
C1251 C1252 1.363 . S
C1251 H1254 0.929 . S
C1252 C1251 1.363 . S
C1252 C1258 1.428 . S
H1253 C1249 0.930 . S
H1254 C1251 0.929 . S
S1255 N1256 1.613 . S
S1255 N1257 1.610 . S
N1256 S1255 1.613 . S
N1256 C1259 1.350 . S
N1257 S1255 1.610 . S
N1257 C1258 1.351 . S
C1258 C1252 1.428 . S
C1258 N1257 1.351 . S
C1258 C1259 1.434 . S
C1259 C1250 1.429 . S
C1259 N1256 1.350 . S
C1259 C1258 1.434 . S
C1260 C1261 1.369 1_556 S
C1260 C1262 1.419 . S
C1260 H1264 0.930 . S
C1261 C1260 1.369 1_554 S
C1261 C1270 1.429 . S
C1262 C1260 1.419 . S
C1262 C1263 1.363 1_556 S
C1262 H1265 0.929 . S
C1263 C1262 1.363 1_554 S
C1263 C1269 1.428 . S
H1264 C1260 0.930 . S
H1265 C1262 0.929 . S
S1266 N1267 1.613 . S
S1266 N1268 1.610 . S
N1267 S1266 1.613 . S
N1267 C1270 1.350 . S
N1268 S1266 1.610 . S
N1268 C1269 1.351 . S
C1269 C1263 1.428 . S
C1269 N1268 1.351 . S
C1269 C1270 1.434 . S
C1270 C1261 1.429 . S
C1270 N1267 1.350 . S
C1270 C1269 1.434 . S
C1271 C1272 1.369 . S
C1271 C1273 1.419 . S
C1271 H1275 0.930 . S
C1272 C1271 1.369 . S
C1272 C1281 1.429 . S
C1273 C1271 1.419 . S
C1273 C1274 1.363 . S
C1273 H1276 0.929 . S
C1274 C1273 1.363 . S
C1274 C1280 1.428 . S
H1275 C1271 0.930 . S
H1276 C1273 0.929 . S
S1277 N1278 1.613 . S
S1277 N1279 1.610 . S
N1278 S1277 1.613 . S
N1278 C1281 1.350 1_556 S
N1279 S1277 1.610 . S
N1279 C1280 1.351 1_556 S
C1280 C1274 1.428 . S
C1280 N1279 1.351 1_554 S
C1280 C1281 1.434 . S
C1281 C1272 1.429 . S
C1281 N1278 1.350 1_554 S
C1281 C1280 1.434 . S
C1282 C1283 1.369 . S
C1282 C1284 1.419 . S
C1282 H1286 0.930 . S
C1283 C1282 1.369 . S
C1283 C1292 1.429 . S
C1284 C1282 1.419 . S
C1284 C1285 1.363 . S
C1284 H1287 0.929 . S
C1285 C1284 1.363 . S
C1285 C1291 1.428 . S
H1286 C1282 0.930 . S
H1287 C1284 0.929 . S
S1288 N1289 1.613 . S
S1288 N1290 1.610 . S
N1289 S1288 1.613 . S
N1289 C1292 1.350 . S
N1290 S1288 1.610 . S
N1290 C1291 1.351 . S
C1291 C1285 1.428 . S
C1291 N1290 1.351 . S
C1291 C1292 1.434 . S
C1292 C1283 1.429 . S
C1292 N1289 1.350 . S
C1292 C1291 1.434 . S
C1293 C1294 1.369 . S
C1293 C1295 1.419 . S
C1293 H1297 0.930 . S
C1294 C1293 1.369 . S
C1294 C1303 1.429 . S
C1295 C1293 1.419 . S
C1295 C1296 1.363 . S
C1295 H1298 0.929 . S
C1296 C1295 1.363 . S
C1296 C1302 1.428 . S
H1297 C1293 0.930 . S
H1298 C1295 0.929 . S
S1299 N1300 1.613 . S
S1299 N1301 1.610 . S
N1300 S1299 1.613 . S
N1300 C1303 1.350 . S
N1301 S1299 1.610 . S
N1301 C1302 1.351 . S
C1302 C1296 1.428 . S
C1302 N1301 1.351 . S
C1302 C1303 1.434 . S
C1303 C1294 1.429 . S
C1303 N1300 1.350 . S
C1303 C1302 1.434 . S
C1304 C1305 1.369 . S
C1304 C1306 1.419 . S
C1304 H1308 0.930 . S
C1305 C1304 1.369 . S
C1305 C1314 1.429 . S
C1306 C1304 1.419 . S
C1306 C1307 1.363 . S
C1306 H1309 0.929 . S
C1307 C1306 1.363 . S
C1307 C1313 1.428 . S
H1308 C1304 0.930 . S
H1309 C1306 0.929 . S
S1310 N1311 1.613 . S
S1310 N1312 1.610 . S
N1311 S1310 1.613 . S
N1311 C1314 1.350 . S
N1312 S1310 1.610 . S
N1312 C1313 1.351 . S
C1313 C1307 1.428 . S
C1313 N1312 1.351 . S
C1313 C1314 1.434 . S
C1314 C1305 1.429 . S
C1314 N1311 1.350 . S
C1314 C1313 1.434 . S
C1315 C1316 1.369 . S
C1315 C1317 1.419 . S
C1315 H1319 0.930 . S
C1316 C1315 1.369 . S
C1316 C1325 1.429 . S
C1317 C1315 1.419 . S
C1317 C1318 1.363 . S
C1317 H1320 0.929 . S
C1318 C1317 1.363 . S
C1318 C1324 1.428 . S
H1319 C1315 0.930 . S
H1320 C1317 0.929 . S
S1321 N1322 1.613 . S
S1321 N1323 1.610 . S
N1322 S1321 1.613 . S
N1322 C1325 1.350 . S
N1323 S1321 1.610 . S
N1323 C1324 1.351 . S
C1324 C1318 1.428 . S
C1324 N1323 1.351 . S
C1324 C1325 1.434 . S
C1325 C1316 1.429 . S
C1325 N1322 1.350 . S
C1325 C1324 1.434 . S
C1326 C1327 1.369 . S
C1326 C1328 1.419 . S
C1326 H1330 0.930 . S
C1327 C1326 1.369 . S
C1327 C1336 1.429 . S
C1328 C1326 1.419 . S
C1328 C1329 1.363 . S
C1328 H1331 0.929 . S
C1329 C1328 1.363 . S
C1329 C1335 1.428 . S
H1330 C1326 0.930 . S
H1331 C1328 0.929 . S
S1332 N1333 1.613 . S
S1332 N1334 1.610 . S
N1333 S1332 1.613 . S
N1333 C1336 1.350 . S
N1334 S1332 1.610 . S
N1334 C1335 1.351 . S
C1335 C1329 1.428 . S
C1335 N1334 1.351 . S
C1335 C1336 1.434 . S
C1336 C1327 1.429 . S
C1336 N1333 1.350 . S
C1336 C1335 1.434 . S
C1337 C1338 1.369 . S
C1337 C1339 1.419 . S
C1337 H1341 0.930 . S
C1338 C1337 1.369 . S
C1338 C1347 1.429 . S
C1339 C1337 1.419 . S
C1339 C1340 1.363 . S
C1339 H1342 0.929 . S
C1340 C1339 1.363 . S
C1340 C1346 1.428 . S
H1341 C1337 0.930 . S
H1342 C1339 0.929 . S
S1343 N1344 1.613 . S
S1343 N1345 1.610 . S
N1344 S1343 1.613 . S
N1344 C1347 1.350 . S
N1345 S1343 1.610 . S
N1345 C1346 1.351 . S
C1346 C1340 1.428 . S
C1346 N1345 1.351 . S
C1346 C1347 1.434 . S
C1347 C1338 1.429 . S
C1347 N1344 1.350 . S
C1347 C1346 1.434 . S
C1348 C1349 1.369 . S
C1348 C1350 1.419 . S
C1348 H1352 0.930 . S
C1349 C1348 1.369 . S
C1349 C1358 1.429 . S
C1350 C1348 1.419 . S
C1350 C1351 1.363 . S
C1350 H1353 0.929 . S
C1351 C1350 1.363 . S
C1351 C1357 1.428 . S
H1352 C1348 0.930 . S
H1353 C1350 0.929 . S
S1354 N1355 1.613 . S
S1354 N1356 1.610 . S
N1355 S1354 1.613 . S
N1355 C1358 1.350 . S
N1356 S1354 1.610 . S
N1356 C1357 1.351 . S
C1357 C1351 1.428 . S
C1357 N1356 1.351 . S
C1357 C1358 1.434 . S
C1358 C1349 1.429 . S
C1358 N1355 1.350 . S
C1358 C1357 1.434 . S
C1359 C1360 1.369 . S
C1359 C1361 1.419 . S
C1359 H1363 0.930 . S
C1360 C1359 1.369 . S
C1360 C1369 1.429 . S
C1361 C1359 1.419 . S
C1361 C1362 1.363 . S
C1361 H1364 0.929 . S
C1362 C1361 1.363 . S
C1362 C1368 1.428 . S
H1363 C1359 0.930 . S
H1364 C1361 0.929 . S
S1365 N1366 1.613 . S
S1365 N1367 1.610 . S
N1366 S1365 1.613 . S
N1366 C1369 1.350 . S
N1367 S1365 1.610 . S
N1367 C1368 1.351 . S
C1368 C1362 1.428 . S
C1368 N1367 1.351 . S
C1368 C1369 1.434 . S
C1369 C1360 1.429 . S
C1369 N1366 1.350 . S
C1369 C1368 1.434 . S
C1370 C1371 1.369 . S
C1370 C1372 1.419 . S
C1370 H1374 0.930 . S
C1371 C1370 1.369 . S
C1371 C1380 1.429 . S
C1372 C1370 1.419 . S
C1372 C1373 1.363 . S
C1372 H1375 0.929 . S
C1373 C1372 1.363 . S
C1373 C1379 1.428 . S
H1374 C1370 0.930 . S
H1375 C1372 0.929 . S
S1376 N1377 1.613 . S
S1376 N1378 1.610 . S
N1377 S1376 1.613 . S
N1377 C1380 1.350 . S
N1378 S1376 1.610 . S
N1378 C1379 1.351 . S
C1379 C1373 1.428 . S
C1379 N1378 1.351 . S
C1379 C1380 1.434 . S
C1380 C1371 1.429 . S
C1380 N1377 1.350 . S
C1380 C1379 1.434 . S
C1381 C1382 1.369 . S
C1381 C1383 1.419 . S
C1381 H1385 0.930 . S
C1382 C1381 1.369 . S
C1382 C1391 1.429 . S
C1383 C1381 1.419 . S
C1383 C1384 1.363 . S
C1383 H1386 0.929 . S
C1384 C1383 1.363 . S
C1384 C1390 1.428 . S
H1385 C1381 0.930 . S
H1386 C1383 0.929 . S
S1387 N1388 1.613 . S
S1387 N1389 1.610 . S
N1388 S1387 1.613 . S
N1388 C1391 1.350 . S
N1389 S1387 1.610 . S
N1389 C1390 1.351 . S
C1390 C1384 1.428 . S
C1390 N1389 1.351 . S
C1390 C1391 1.434 . S
C1391 C1382 1.429 . S
C1391 N1388 1.350 . S
C1391 C1390 1.434 . S
C1392 C1393 1.369 . S
C1392 C1394 1.419 . S
C1392 H1396 0.930 . S
C1393 C1392 1.369 . S
C1393 C1402 1.429 . S
C1394 C1392 1.419 . S
C1394 C1395 1.363 . S
C1394 H1397 0.929 . S
C1395 C1394 1.363 . S
C1395 C1401 1.428 . S
H1396 C1392 0.930 . S
H1397 C1394 0.929 . S
S1398 N1399 1.618 . S
S1398 N1400 1.610 . S
N1399 S1398 1.618 . S
N1399 C1402 1.354 . S
N1400 S1398 1.610 . S
N1400 C1401 1.351 . S
C1401 C1395 1.428 . S
C1401 N1400 1.351 . S
C1401 C1402 1.434 . S
C1402 C1393 1.429 . S
C1402 N1399 1.354 . S
C1402 C1401 1.434 . S
C1403 C1404 1.369 . S
C1403 C1405 1.419 1_554 S
C1403 H1407 0.930 1_554 S
C1404 C1403 1.369 . S
C1404 C1413 1.429 . S
C1405 C1403 1.419 1_556 S
C1405 C1406 1.363 1_556 S
C1405 H1408 0.929 . S
C1406 C1405 1.363 1_554 S
C1406 C1412 1.428 . S
H1407 C1403 0.930 1_556 S
H1408 C1405 0.929 . S
S1409 N1410 1.613 . S
S1409 N1411 1.610 . S
N1410 S1409 1.613 . S
N1410 C1413 1.350 . S
N1411 S1409 1.610 . S
N1411 C1412 1.351 . S
C1412 C1406 1.428 . S
C1412 N1411 1.351 . S
C1412 C1413 1.434 . S
C1413 C1404 1.429 . S
C1413 N1410 1.350 . S
C1413 C1412 1.434 . S
C1414 C1415 1.369 . S
C1414 C1416 1.419 . S
C1414 H1418 0.930 . S
C1415 C1414 1.369 . S
C1415 C1424 1.429 . S
C1416 C1414 1.419 . S
C1416 C1417 1.363 . S
C1416 H1419 0.929 . S
C1417 C1416 1.363 . S
C1417 C1423 1.428 . S
H1418 C1414 0.930 . S
H1419 C1416 0.929 . S
S1420 N1421 1.613 . S
S1420 N1422 1.610 . S
N1421 S1420 1.613 . S
N1421 C1424 1.350 . S
N1422 S1420 1.610 . S
N1422 C1423 1.351 . S
C1423 C1417 1.428 . S
C1423 N1422 1.351 . S
C1423 C1424 1.434 . S
C1424 C1415 1.429 . S
C1424 N1421 1.350 . S
C1424 C1423 1.434 . S
C1425 C1426 1.369 . S
C1425 C1427 1.419 . S
C1425 H1429 0.930 . S
C1426 C1425 1.369 . S
C1426 C1435 1.429 . S
C1427 C1425 1.419 . S
C1427 C1428 1.363 . S
C1427 H1430 0.929 . S
C1428 C1427 1.363 . S
C1428 C1434 1.428 . S
H1429 C1425 0.930 . S
H1430 C1427 0.929 . S
S1431 N1432 1.613 . S
S1431 N1433 1.610 . S
N1432 S1431 1.613 . S
N1432 C1435 1.350 . S
N1433 S1431 1.610 . S
N1433 C1434 1.351 . S
C1434 C1428 1.428 . S
C1434 N1433 1.351 . S
C1434 C1435 1.434 . S
C1435 C1426 1.429 . S
C1435 N1432 1.350 . S
C1435 C1434 1.434 . S
C1436 C1437 1.369 . S
C1436 C1438 1.419 . S
C1436 H1440 0.930 . S
C1437 C1436 1.369 . S
C1437 C1446 1.429 . S
C1438 C1436 1.419 . S
C1438 C1439 1.363 . S
C1438 H1441 0.929 . S
C1439 C1438 1.363 . S
C1439 C1445 1.428 . S
H1440 C1436 0.930 . S
H1441 C1438 0.929 . S
S1442 N1443 1.613 . S
S1442 N1444 1.610 . S
N1443 S1442 1.613 . S
N1443 C1446 1.350 . S
N1444 S1442 1.610 . S
N1444 C1445 1.351 . S
C1445 C1439 1.428 . S
C1445 N1444 1.351 . S
C1445 C1446 1.434 . S
C1446 C1437 1.429 . S
C1446 N1443 1.350 . S
C1446 C1445 1.434 . S
C1447 C1448 1.369 . S
C1447 C1449 1.419 . S
C1447 H1451 0.930 . S
C1448 C1447 1.369 . S
C1448 C1457 1.429 1_556 S
C1449 C1447 1.419 . S
C1449 C1450 1.363 . S
C1449 H1452 0.929 . S
C1450 C1449 1.363 . S
C1450 C1456 1.416 1_556 S
H1451 C1447 0.930 . S
H1452 C1449 0.929 . S
S1453 N1454 1.613 . S
S1453 N1455 1.610 . S
N1454 S1453 1.613 . S
N1454 C1457 1.350 . S
N1455 S1453 1.610 . S
N1455 C1456 1.360 . S
C1456 C1450 1.416 1_554 S
C1456 N1455 1.360 . S
C1456 C1457 1.439 . S
C1457 C1448 1.429 1_554 S
C1457 N1454 1.350 . S
C1457 C1456 1.439 . S
C1458 C1459 1.369 . S
C1458 C1460 1.419 . S
C1458 H1462 0.930 . S
C1459 C1458 1.369 . S
C1459 C1468 1.429 . S
C1460 C1458 1.419 . S
C1460 C1461 1.363 . S
C1460 H1463 0.929 . S
C1461 C1460 1.363 . S
C1461 C1467 1.428 . S
H1462 C1458 0.930 . S
H1463 C1460 0.929 . S
S1464 N1465 1.613 . S
S1464 N1466 1.610 . S
N1465 S1464 1.613 . S
N1465 C1468 1.350 . S
N1466 S1464 1.610 . S
N1466 C1467 1.351 . S
C1467 C1461 1.428 . S
C1467 N1466 1.351 . S
C1467 C1468 1.434 . S
C1468 C1459 1.429 . S
C1468 N1465 1.350 . S
C1468 C1467 1.434 . S
C1469 C1470 1.369 . S
C1469 C1471 1.419 . S
C1469 H1473 0.930 . S
C1470 C1469 1.369 . S
C1470 C1479 1.429 . S
C1471 C1469 1.419 . S
C1471 C1472 1.363 . S
C1471 H1474 0.929 . S
C1472 C1471 1.363 . S
C1472 C1478 1.428 . S
H1473 C1469 0.930 . S
H1474 C1471 0.929 . S
S1475 N1476 1.613 . S
S1475 N1477 1.610 . S
N1476 S1475 1.613 . S
N1476 C1479 1.350 . S
N1477 S1475 1.610 . S
N1477 C1478 1.351 . S
C1478 C1472 1.428 . S
C1478 N1477 1.351 . S
C1478 C1479 1.434 . S
C1479 C1470 1.429 . S
C1479 N1476 1.350 . S
C1479 C1478 1.434 . S
C1480 C1481 1.369 . S
C1480 C1482 1.419 . S
C1480 H1484 0.930 . S
C1481 C1480 1.369 . S
C1481 C1490 1.429 . S
C1482 C1480 1.419 . S
C1482 C1483 1.363 . S
C1482 H1485 0.929 . S
C1483 C1482 1.363 . S
C1483 C1489 1.428 . S
H1484 C1480 0.930 . S
H1485 C1482 0.929 . S
S1486 N1487 1.613 . S
S1486 N1488 1.610 . S
N1487 S1486 1.613 . S
N1487 C1490 1.350 . S
N1488 S1486 1.610 . S
N1488 C1489 1.351 . S
C1489 C1483 1.428 . S
C1489 N1488 1.351 . S
C1489 C1490 1.434 . S
C1490 C1481 1.429 . S
C1490 N1487 1.350 . S
C1490 C1489 1.434 . S
C1491 C1492 1.369 . S
C1491 C1493 1.419 . S
C1491 H1495 0.930 . S
C1492 C1491 1.369 . S
C1492 C1501 1.429 . S
C1493 C1491 1.419 . S
C1493 C1494 1.363 . S
C1493 H1496 0.929 . S
C1494 C1493 1.363 . S
C1494 C1500 1.428 . S
H1495 C1491 0.930 . S
H1496 C1493 0.929 . S
S1497 N1498 1.613 . S
S1497 N1499 1.610 . S
N1498 S1497 1.613 . S
N1498 C1501 1.350 . S
N1499 S1497 1.610 . S
N1499 C1500 1.351 . S
C1500 C1494 1.428 . S
C1500 N1499 1.351 . S
C1500 C1501 1.434 . S
C1501 C1492 1.429 . S
C1501 N1498 1.350 . S
C1501 C1500 1.434 . S
C1502 C1503 1.369 . S
C1502 C1504 1.419 . S
C1502 H1506 0.930 . S
C1503 C1502 1.369 . S
C1503 C1512 1.429 . S
C1504 C1502 1.419 . S
C1504 C1505 1.363 . S
C1504 H1507 0.929 . S
C1505 C1504 1.363 . S
C1505 C1511 1.428 . S
H1506 C1502 0.930 . S
H1507 C1504 0.929 . S
S1508 N1509 1.613 . S
S1508 N1510 1.610 . S
N1509 S1508 1.613 . S
N1509 C1512 1.350 . S
N1510 S1508 1.610 . S
N1510 C1511 1.351 . S
C1511 C1505 1.428 . S
C1511 N1510 1.351 . S
C1511 C1512 1.434 . S
C1512 C1503 1.429 . S
C1512 N1509 1.350 . S
C1512 C1511 1.434 . S
C1513 C1514 1.369 . S
C1513 C1515 1.419 . S
C1513 H1517 0.930 . S
C1514 C1513 1.369 . S
C1514 C1523 1.429 . S
C1515 C1513 1.419 . S
C1515 C1516 1.363 . S
C1515 H1518 0.929 . S
C1516 C1515 1.363 . S
C1516 C1522 1.428 . S
H1517 C1513 0.930 . S
H1518 C1515 0.929 . S
S1519 N1520 1.613 . S
S1519 N1521 1.610 . S
N1520 S1519 1.613 . S
N1520 C1523 1.350 . S
N1521 S1519 1.610 . S
N1521 C1522 1.351 . S
C1522 C1516 1.428 . S
C1522 N1521 1.351 . S
C1522 C1523 1.434 . S
C1523 C1514 1.429 . S
C1523 N1520 1.350 . S
C1523 C1522 1.434 . S
C1524 C1525 1.369 . S
C1524 C1526 1.419 . S
C1524 H1528 0.930 . S
C1525 C1524 1.369 . S
C1525 C1534 1.429 . S
C1526 C1524 1.419 . S
C1526 C1527 1.363 . S
C1526 H1529 0.929 . S
C1527 C1526 1.363 . S
C1527 C1533 1.428 . S
H1528 C1524 0.930 . S
H1529 C1526 0.929 . S
S1530 N1531 1.613 . S
S1530 N1532 1.610 1_565 S
N1531 S1530 1.613 . S
N1531 C1534 1.350 1_565 S
N1532 S1530 1.610 1_545 S
N1532 C1533 1.351 . S
C1533 C1527 1.428 . S
C1533 N1532 1.351 . S
C1533 C1534 1.434 . S
C1534 C1525 1.429 . S
C1534 N1531 1.350 1_545 S
C1534 C1533 1.434 . S
C1535 C1536 1.369 . S
C1535 C1537 1.419 . S
C1535 H1539 0.930 . S
C1536 C1535 1.369 . S
C1536 C1545 1.429 . S
C1537 C1535 1.419 . S
C1537 C1538 1.363 . S
C1537 H1540 0.929 . S
C1538 C1537 1.363 . S
C1538 C1544 1.428 . S
H1539 C1535 0.930 . S
H1540 C1537 0.929 . S
S1541 N1542 1.613 . S
S1541 N1543 1.610 . S
N1542 S1541 1.613 . S
N1542 C1545 1.350 . S
N1543 S1541 1.610 . S
N1543 C1544 1.351 . S
C1544 C1538 1.428 . S
C1544 N1543 1.351 . S
C1544 C1545 1.434 . S
C1545 C1536 1.429 . S
C1545 N1542 1.350 . S
C1545 C1544 1.434 . S
C1546 C1547 1.369 . S
C1546 C1548 1.419 . S
C1546 H1550 0.930 . S
C1547 C1546 1.369 . S
C1547 C1556 1.429 . S
C1548 C1546 1.419 . S
C1548 C1549 1.363 . S
C1548 H1551 0.929 . S
C1549 C1548 1.363 . S
C1549 C1555 1.428 . S
H1550 C1546 0.930 . S
H1551 C1548 0.929 . S
S1552 N1553 1.613 . S
S1552 N1554 1.610 . S
N1553 S1552 1.613 . S
N1553 C1556 1.350 . S
N1554 S1552 1.610 . S
N1554 C1555 1.351 . S
C1555 C1549 1.428 . S
C1555 N1554 1.351 . S
C1555 C1556 1.434 . S
C1556 C1547 1.429 . S
C1556 N1553 1.350 . S
C1556 C1555 1.434 . S
C1557 C1558 1.369 . S
C1557 C1559 1.419 . S
C1557 H1561 0.930 . S
C1558 C1557 1.369 . S
C1558 C1567 1.429 . S
C1559 C1557 1.419 . S
C1559 C1560 1.363 . S
C1559 H1562 0.929 . S
C1560 C1559 1.363 . S
C1560 C1566 1.428 . S
H1561 C1557 0.930 . S
H1562 C1559 0.929 . S
S1563 N1564 1.613 . S
S1563 N1565 1.610 . S
N1564 S1563 1.613 . S
N1564 C1567 1.350 . S
N1565 S1563 1.610 . S
N1565 C1566 1.351 . S
C1566 C1560 1.428 . S
C1566 N1565 1.351 . S
C1566 C1567 1.434 . S
C1567 C1558 1.429 . S
C1567 N1564 1.350 . S
C1567 C1566 1.434 . S
C1568 C1569 1.369 . S
C1568 C1570 1.419 . S
C1568 H1572 0.930 . S
C1569 C1568 1.369 . S
C1569 C1578 1.429 . S
C1570 C1568 1.419 . S
C1570 C1571 1.363 . S
C1570 H1573 0.929 . S
C1571 C1570 1.363 . S
C1571 C1577 1.428 . S
H1572 C1568 0.930 . S
H1573 C1570 0.929 . S
S1574 N1575 1.613 . S
S1574 N1576 1.610 . S
N1575 S1574 1.613 . S
N1575 C1578 1.350 . S
N1576 S1574 1.610 . S
N1576 C1577 1.351 . S
C1577 C1571 1.428 . S
C1577 N1576 1.351 . S
C1577 C1578 1.434 . S
C1578 C1569 1.429 . S
C1578 N1575 1.350 . S
C1578 C1577 1.434 . S
C1579 C1580 1.369 . S
C1579 C1581 1.419 . S
C1579 H1583 0.930 . S
C1580 C1579 1.369 . S
C1580 C1589 1.429 . S
C1581 C1579 1.419 . S
C1581 C1582 1.363 . S
C1581 H1584 0.929 . S
C1582 C1581 1.363 . S
C1582 C1588 1.428 . S
H1583 C1579 0.930 . S
H1584 C1581 0.929 . S
S1585 N1586 1.613 . S
S1585 N1587 1.610 . S
N1586 S1585 1.613 . S
N1586 C1589 1.350 . S
N1587 S1585 1.610 . S
N1587 C1588 1.351 . S
C1588 C1582 1.428 . S
C1588 N1587 1.351 . S
C1588 C1589 1.434 . S
C1589 C1580 1.429 . S
C1589 N1586 1.350 . S
C1589 C1588 1.434 . S
C1590 C1591 1.369 . S
C1590 C1592 1.419 . S
C1590 H1594 0.930 . S
C1591 C1590 1.369 . S
C1591 C1600 1.429 . S
C1592 C1590 1.419 . S
C1592 C1593 1.363 . S
C1592 H1595 0.929 . S
C1593 C1592 1.363 . S
C1593 C1599 1.428 . S
H1594 C1590 0.930 . S
H1595 C1592 0.929 . S
S1596 N1597 1.613 . S
S1596 N1598 1.610 . S
N1597 S1596 1.613 . S
N1597 C1600 1.350 . S
N1598 S1596 1.610 . S
N1598 C1599 1.351 . S
C1599 C1593 1.428 . S
C1599 N1598 1.351 . S
C1599 C1600 1.434 . S
C1600 C1591 1.429 . S
C1600 N1597 1.350 . S
C1600 C1599 1.434 . S
C1601 C1602 1.369 . S
C1601 C1603 1.419 . S
C1601 H1605 0.930 . S
C1602 C1601 1.369 . S
C1602 C1611 1.429 . S
C1603 C1601 1.419 . S
C1603 C1604 1.363 . S
C1603 H1606 0.929 . S
C1604 C1603 1.363 . S
C1604 C1610 1.428 . S
H1605 C1601 0.930 . S
H1606 C1603 0.929 . S
S1607 N1608 1.613 . S
S1607 N1609 1.610 . S
N1608 S1607 1.613 . S
N1608 C1611 1.350 . S
N1609 S1607 1.610 . S
N1609 C1610 1.351 . S
C1610 C1604 1.428 . S
C1610 N1609 1.351 . S
C1610 C1611 1.434 . S
C1611 C1602 1.429 . S
C1611 N1608 1.350 . S
C1611 C1610 1.434 . S
C1612 C1613 1.369 . S
C1612 C1614 1.419 . S
C1612 H1616 0.930 . S
C1613 C1612 1.369 . S
C1613 C1622 1.429 . S
C1614 C1612 1.419 . S
C1614 C1615 1.363 . S
C1614 H1617 0.929 . S
C1615 C1614 1.363 . S
C1615 C1621 1.428 . S
H1616 C1612 0.930 . S
H1617 C1614 0.929 . S
S1618 N1619 1.613 . S
S1618 N1620 1.610 . S
N1619 S1618 1.613 . S
N1619 C1622 1.350 . S
N1620 S1618 1.610 . S
N1620 C1621 1.351 . S
C1621 C1615 1.428 . S
C1621 N1620 1.351 . S
C1621 C1622 1.434 . S
C1622 C1613 1.429 . S
C1622 N1619 1.350 . S
C1622 C1621 1.434 . S
C1623 C1624 1.369 . S
C1623 C1625 1.419 . S
C1623 H1627 0.930 . S
C1624 C1623 1.369 . S
C1624 C1633 1.429 . S
C1625 C1623 1.419 . S
C1625 C1626 1.363 . S
C1625 H1628 0.929 . S
C1626 C1625 1.363 . S
C1626 C1632 1.428 . S
H1627 C1623 0.930 . S
H1628 C1625 0.929 . S
S1629 N1630 1.613 . S
S1629 N1631 1.610 . S
N1630 S1629 1.613 . S
N1630 C1633 1.350 . S
N1631 S1629 1.610 . S
N1631 C1632 1.351 . S
C1632 C1626 1.428 . S
C1632 N1631 1.351 . S
C1632 C1633 1.434 . S
C1633 C1624 1.429 . S
C1633 N1630 1.350 . S
C1633 C1632 1.434 . S
C1634 C1635 1.369 . S
C1634 C1636 1.419 . S
C1634 H1638 0.930 . S
C1635 C1634 1.369 . S
C1635 C1644 1.429 . S
C1636 C1634 1.419 . S
C1636 C1637 1.363 . S
C1636 H1639 0.929 . S
C1637 C1636 1.363 . S
C1637 C1643 1.428 . S
H1638 C1634 0.930 . S
H1639 C1636 0.929 . S
S1640 N1641 1.613 . S
S1640 N1642 1.610 . S
N1641 S1640 1.613 . S
N1641 C1644 1.350 . S
N1642 S1640 1.610 . S
N1642 C1643 1.351 . S
C1643 C1637 1.428 . S
C1643 N1642 1.351 . S
C1643 C1644 1.434 . S
C1644 C1635 1.429 . S
C1644 N1641 1.350 . S
C1644 C1643 1.434 . S
C1645 C1646 1.369 . S
C1645 C1647 1.419 . S
C1645 H1649 0.930 . S
C1646 C1645 1.369 . S
C1646 C1655 1.429 . S
C1647 C1645 1.419 . S
C1647 C1648 1.363 . S
C1647 H1650 0.929 . S
C1648 C1647 1.363 . S
C1648 C1654 1.428 . S
H1649 C1645 0.930 . S
H1650 C1647 0.929 . S
S1651 N1652 1.613 . S
S1651 N1653 1.610 . S
N1652 S1651 1.613 . S
N1652 C1655 1.350 . S
N1653 S1651 1.610 . S
N1653 C1654 1.351 . S
C1654 C1648 1.428 . S
C1654 N1653 1.351 . S
C1654 C1655 1.434 . S
C1655 C1646 1.429 . S
C1655 N1652 1.350 . S
C1655 C1654 1.434 . S
C1656 C1657 1.369 . S
C1656 C1658 1.419 . S
C1656 H1660 0.930 . S
C1657 C1656 1.369 . S
C1657 C1666 1.429 1_554 S
C1658 C1656 1.419 . S
C1658 C1659 1.363 . S
C1658 H1661 0.929 . S
C1659 C1658 1.363 . S
C1659 C1665 1.428 . S
H1660 C1656 0.930 . S
H1661 C1658 0.929 . S
S1662 N1663 1.613 . S
S1662 N1664 1.610 . S
N1663 S1662 1.613 . S
N1663 C1666 1.350 . S
N1664 S1662 1.610 . S
N1664 C1665 1.351 1_556 S
C1665 C1659 1.428 . S
C1665 N1664 1.351 1_554 S
C1665 C1666 1.434 1_554 S
C1666 C1657 1.429 1_556 S
C1666 N1663 1.350 . S
C1666 C1665 1.434 1_556 S
C1667 C1668 1.369 . S
C1667 C1669 1.419 . S
C1667 H1671 0.930 . S
C1668 C1667 1.369 . S
C1668 C1677 1.430 . S
C1669 C1667 1.419 . S
C1669 C1670 1.363 . S
C1669 H1672 0.929 . S
C1670 C1669 1.363 . S
C1670 C1676 1.428 . S
H1671 C1667 0.930 . S
H1672 C1669 0.929 . S
S1673 N1674 1.613 . S
S1673 N1675 1.610 1_556 S
N1674 S1673 1.613 . S
N1674 C1677 1.342 1_556 S
N1675 S1673 1.610 1_554 S
N1675 C1676 1.351 . S
C1676 C1670 1.428 . S
C1676 N1675 1.351 . S
C1676 C1677 1.440 . S
C1677 C1668 1.430 . S
C1677 N1674 1.342 1_554 S
C1677 C1676 1.440 . S
C1678 C1679 1.369 . S
C1678 C1680 1.419 . S
C1678 H1682 0.930 . S
C1679 C1678 1.369 . S
C1679 C1688 1.429 . S
C1680 C1678 1.419 . S
C1680 C1681 1.363 . S
C1680 H1683 0.929 . S
C1681 C1680 1.363 . S
C1681 C1687 1.428 . S
H1682 C1678 0.930 . S
H1683 C1680 0.929 . S
S1684 N1685 1.613 . S
S1684 N1686 1.610 . S
N1685 S1684 1.613 . S
N1685 C1688 1.350 . S
N1686 S1684 1.610 . S
N1686 C1687 1.351 . S
C1687 C1681 1.428 . S
C1687 N1686 1.351 . S
C1687 C1688 1.434 . S
C1688 C1679 1.429 . S
C1688 N1685 1.350 . S
C1688 C1687 1.434 . S
C1689 C1690 1.369 . S
C1689 C1691 1.419 . S
C1689 H1693 0.930 . S
C1690 C1689 1.369 . S
C1690 C1699 1.429 . S
C1691 C1689 1.419 . S
C1691 C1692 1.363 . S
C1691 H1694 0.929 . S
C1692 C1691 1.363 . S
C1692 C1698 1.428 . S
H1693 C1689 0.930 . S
H1694 C1691 0.929 . S
S1695 N1696 1.613 . S
S1695 N1697 1.610 . S
N1696 S1695 1.613 . S
N1696 C1699 1.350 . S
N1697 S1695 1.610 . S
N1697 C1698 1.351 . S
C1698 C1692 1.428 . S
C1698 N1697 1.351 . S
C1698 C1699 1.434 . S
C1699 C1690 1.429 . S
C1699 N1696 1.350 . S
C1699 C1698 1.434 . S
C1700 C1701 1.369 . S
C1700 C1702 1.419 . S
C1700 H1704 0.930 . S
C1701 C1700 1.369 . S
C1701 C1710 1.429 . S
C1702 C1700 1.419 . S
C1702 C1703 1.363 . S
C1702 H1705 0.929 . S
C1703 C1702 1.363 . S
C1703 C1709 1.428 . S
H1704 C1700 0.930 . S
H1705 C1702 0.929 . S
S1706 N1707 1.613 1_564 S
S1706 N1708 1.610 . S
N1707 S1706 1.613 1_546 S
N1707 C1710 1.350 . S
N1708 S1706 1.610 . S
N1708 C1709 1.351 1_564 S
C1709 C1703 1.428 . S
C1709 N1708 1.351 1_546 S
C1709 C1710 1.434 . S
C1710 C1701 1.429 . S
C1710 N1707 1.350 . S
C1710 C1709 1.434 . S
C1711 C1712 1.369 1_554 S
C1711 C1713 1.419 . S
C1711 H1715 0.930 . S
C1712 C1711 1.369 1_556 S
C1712 C1721 1.429 . S
C1713 C1711 1.419 . S
C1713 C1714 1.363 1_554 S
C1713 H1716 0.929 . S
C1714 C1713 1.363 1_556 S
C1714 C1720 1.428 . S
H1715 C1711 0.930 . S
H1716 C1713 0.929 . S
S1717 N1718 1.613 . S
S1717 N1719 1.610 . S
N1718 S1717 1.613 . S
N1718 C1721 1.350 . S
N1719 S1717 1.610 . S
N1719 C1720 1.351 . S
C1720 C1714 1.428 . S
C1720 N1719 1.351 . S
C1720 C1721 1.434 . S
C1721 C1712 1.429 . S
C1721 N1718 1.350 . S
C1721 C1720 1.434 . S
C1722 C1723 1.369 . S
C1722 C1724 1.419 . S
C1722 H1726 0.930 . S
C1723 C1722 1.369 . S
C1723 C1732 1.429 . S
C1724 C1722 1.419 . S
C1724 C1725 1.363 . S
C1724 H1727 0.929 . S
C1725 C1724 1.363 . S
C1725 C1731 1.428 . S
H1726 C1722 0.930 . S
H1727 C1724 0.929 . S
S1728 N1729 1.613 . S
S1728 N1730 1.610 . S
N1729 S1728 1.613 . S
N1729 C1732 1.350 . S
N1730 S1728 1.610 . S
N1730 C1731 1.351 . S
C1731 C1725 1.428 . S
C1731 N1730 1.351 . S
C1731 C1732 1.434 . S
C1732 C1723 1.429 . S
C1732 N1729 1.350 . S
C1732 C1731 1.434 . S
C1733 C1734 1.369 . S
C1733 C1735 1.419 . S
C1733 H1737 0.930 . S
C1734 C1733 1.369 . S
C1734 C1743 1.429 . S
C1735 C1733 1.419 . S
C1735 C1736 1.363 . S
C1735 H1738 0.929 1_545 S
C1736 C1735 1.363 . S
C1736 C1742 1.428 . S
H1737 C1733 0.930 . S
H1738 C1735 0.929 1_565 S
S1739 N1740 1.613 . S
S1739 N1741 1.610 . S
N1740 S1739 1.613 . S
N1740 C1743 1.350 . S
N1741 S1739 1.610 . S
N1741 C1742 1.351 . S
C1742 C1736 1.428 . S
C1742 N1741 1.351 . S
C1742 C1743 1.434 . S
C1743 C1734 1.429 . S
C1743 N1740 1.350 . S
C1743 C1742 1.434 . S
C1744 C1745 1.369 . S
C1744 C1746 1.419 . S
C1744 H1748 0.930 . S
C1745 C1744 1.369 . S
C1745 C1754 1.429 . S
C1746 C1744 1.419 . S
C1746 C1747 1.363 . S
C1746 H1749 0.934 . S
C1747 C1746 1.363 . S
C1747 C1753 1.428 . S
H1748 C1744 0.930 . S
H1749 C1746 0.934 . S
S1750 N1751 1.613 . S
S1750 N1752 1.610 . S
N1751 S1750 1.613 . S
N1751 C1754 1.350 . S
N1752 S1750 1.610 . S
N1752 C1753 1.351 . S
C1753 C1747 1.428 . S
C1753 N1752 1.351 . S
C1753 C1754 1.434 . S
C1754 C1745 1.429 . S
C1754 N1751 1.350 . S
C1754 C1753 1.434 . S
C1755 C1756 1.369 . S
C1755 C1757 1.419 . S
C1755 H1759 0.930 . S
C1756 C1755 1.369 . S
C1756 C1765 1.429 . S
C1757 C1755 1.419 . S
C1757 C1758 1.363 . S
C1757 H1760 0.929 . S
C1758 C1757 1.363 . S
C1758 C1764 1.428 . S
H1759 C1755 0.930 . S
H1760 C1757 0.929 . S
S1761 N1762 1.605 1_545 S
S1761 N1763 1.639 . S
N1762 S1761 1.605 1_565 S
N1762 C1765 1.350 1_565 S
N1763 S1761 1.639 . S
N1763 C1764 1.351 . S
C1764 C1758 1.428 . S
C1764 N1763 1.351 . S
C1764 C1765 1.434 . S
C1765 C1756 1.429 . S
C1765 N1762 1.350 1_545 S
C1765 C1764 1.434 . S
C1766 C1767 1.369 . S
C1766 C1768 1.419 . S
C1766 H1770 0.930 . S
C1767 C1766 1.369 . S
C1767 C1776 1.429 1_655 S
C1768 C1766 1.419 . S
C1768 C1769 1.363 . S
C1768 H1771 0.929 . S
C1769 C1768 1.363 . S
C1769 C1775 1.428 1_655 S
H1770 C1766 0.930 . S
H1771 C1768 0.929 . S
S1772 N1773 1.613 . S
S1772 N1774 1.610 . S
N1773 S1772 1.613 . S
N1773 C1776 1.350 . S
N1774 S1772 1.610 . S
N1774 C1775 1.351 . S
C1775 C1769 1.428 1_455 S
C1775 N1774 1.351 . S
C1775 C1776 1.434 . S
C1776 C1767 1.429 1_455 S
C1776 N1773 1.350 . S
C1776 C1775 1.434 . S
C1777 C1778 1.369 . S
C1777 C1779 1.419 . S
C1777 H1781 0.930 . S
C1778 C1777 1.369 . S
C1778 C1787 1.429 . S
C1779 C1777 1.419 . S
C1779 C1780 1.363 . S
C1779 H1782 0.929 . S
C1780 C1779 1.363 . S
C1780 C1786 1.428 . S
H1781 C1777 0.930 . S
H1782 C1779 0.929 . S
S1783 N1784 1.613 . S
S1783 N1785 1.610 . S
N1784 S1783 1.613 . S
N1784 C1787 1.350 . S
N1785 S1783 1.610 . S
N1785 C1786 1.351 . S
C1786 C1780 1.428 . S
C1786 N1785 1.351 . S
C1786 C1787 1.434 . S
C1787 C1778 1.429 . S
C1787 N1784 1.350 . S
C1787 C1786 1.434 . S
C1788 C1789 1.369 1_655 S
C1788 C1790 1.419 . S
C1788 H1792 0.930 . S
C1789 C1788 1.369 1_455 S
C1789 C1798 1.429 . S
C1790 C1788 1.419 . S
C1790 C1791 1.363 1_655 S
C1790 H1793 0.929 . S
C1791 C1790 1.363 1_455 S
C1791 C1797 1.428 . S
H1792 C1788 0.930 . S
H1793 C1790 0.929 . S
S1794 N1795 1.613 . S
S1794 N1796 1.610 . S
N1795 S1794 1.613 . S
N1795 C1798 1.350 . S
N1796 S1794 1.610 . S
N1796 C1797 1.351 . S
C1797 C1791 1.428 . S
C1797 N1796 1.351 . S
C1797 C1798 1.434 . S
C1798 C1789 1.429 . S
C1798 N1795 1.350 . S
C1798 C1797 1.434 . S
C1799 C1800 1.369 . S
C1799 C1801 1.419 . S
C1799 H1803 0.930 1_565 S
C1800 C1799 1.369 . S
C1800 C1809 1.429 . S
C1801 C1799 1.419 . S
C1801 C1802 1.363 . S
C1801 H1804 0.929 . S
C1802 C1801 1.363 . S
C1802 C1808 1.428 . S
H1803 C1799 0.930 1_545 S
H1804 C1801 0.929 . S
S1805 N1806 1.613 . S
S1805 N1807 1.610 . S
N1806 S1805 1.613 . S
N1806 C1809 1.350 . S
N1807 S1805 1.610 . S
N1807 C1808 1.351 . S
C1808 C1802 1.428 . S
C1808 N1807 1.351 . S
C1808 C1809 1.434 . S
C1809 C1800 1.429 . S
C1809 N1806 1.350 . S
C1809 C1808 1.434 . S
C1810 C1811 1.369 1_655 S
C1810 C1812 1.419 . S
C1810 H1814 0.930 . S
C1811 C1810 1.369 1_455 S
C1811 C1820 1.429 . S
C1812 C1810 1.419 . S
C1812 C1813 1.363 1_655 S
C1812 H1815 0.929 . S
C1813 C1812 1.363 1_455 S
C1813 C1819 1.428 . S
H1814 C1810 0.930 . S
H1815 C1812 0.929 . S
S1816 N1817 1.613 . S
S1816 N1818 1.610 . S
N1817 S1816 1.613 . S
N1817 C1820 1.350 . S
N1818 S1816 1.610 . S
N1818 C1819 1.351 . S
C1819 C1813 1.428 . S
C1819 N1818 1.351 . S
C1819 C1820 1.434 . S
C1820 C1811 1.429 . S
C1820 N1817 1.350 . S
C1820 C1819 1.434 . S
C1821 C1822 1.369 . S
C1821 C1823 1.419 . S
C1821 H1825 0.930 . S
C1822 C1821 1.369 . S
C1822 C1831 1.429 . S
C1823 C1821 1.419 . S
C1823 C1824 1.363 . S
C1823 H1826 0.929 . S
C1824 C1823 1.363 . S
C1824 C1830 1.428 . S
H1825 C1821 0.930 . S
H1826 C1823 0.929 . S
S1827 N1828 1.613 . S
S1827 N1829 1.610 . S
N1828 S1827 1.613 . S
N1828 C1831 1.350 . S
N1829 S1827 1.610 . S
N1829 C1830 1.351 . S
C1830 C1824 1.428 . S
C1830 N1829 1.351 . S
C1830 C1831 1.434 . S
C1831 C1822 1.429 . S
C1831 N1828 1.350 . S
C1831 C1830 1.434 . S
C1832 C1833 1.369 . S
C1832 C1834 1.419 . S
C1832 H1836 0.930 . S
C1833 C1832 1.369 . S
C1833 C1842 1.432 . S
C1834 C1832 1.419 . S
C1834 C1835 1.363 . S
C1834 H1837 0.929 . S
C1835 C1834 1.363 . S
C1835 C1841 1.428 . S
H1836 C1832 0.930 . S
H1837 C1834 0.929 . S
S1838 N1839 1.613 . S
S1838 N1840 1.607 1_455 S
N1839 S1838 1.613 . S
N1839 C1842 1.345 1_455 S
N1840 S1838 1.607 1_655 S
N1840 C1841 1.353 . S
C1841 C1835 1.428 . S
C1841 N1840 1.353 . S
C1841 C1842 1.437 . S
C1842 C1833 1.432 . S
C1842 N1839 1.345 1_655 S
C1842 C1841 1.437 . S
C1843 C1844 1.369 . S
C1843 C1845 1.419 . S
C1843 H1847 0.930 . S
C1844 C1843 1.369 . S
C1844 C1853 1.429 . S
C1845 C1843 1.419 . S
C1845 C1846 1.363 . S
C1845 H1848 0.929 . S
C1846 C1845 1.363 . S
C1846 C1852 1.428 . S
H1847 C1843 0.930 . S
H1848 C1845 0.929 . S
S1849 N1850 1.613 . S
S1849 N1851 1.610 . S
N1850 S1849 1.613 . S
N1850 C1853 1.350 . S
N1851 S1849 1.610 . S
N1851 C1852 1.351 . S
C1852 C1846 1.428 . S
C1852 N1851 1.351 . S
C1852 C1853 1.434 . S
C1853 C1844 1.429 . S
C1853 N1850 1.350 . S
C1853 C1852 1.434 . S
C1854 C1855 1.369 1_455 S
C1854 C1856 1.419 . S
C1854 H1858 0.930 . S
C1855 C1854 1.369 1_655 S
C1855 C1864 1.429 . S
C1856 C1854 1.419 . S
C1856 C1857 1.363 1_455 S
C1856 H1859 0.929 . S
C1857 C1856 1.363 1_655 S
C1857 C1863 1.428 . S
H1858 C1854 0.930 . S
H1859 C1856 0.929 . S
S1860 N1861 1.613 . S
S1860 N1862 1.610 . S
N1861 S1860 1.613 . S
N1861 C1864 1.350 . S
N1862 S1860 1.610 . S
N1862 C1863 1.351 . S
C1863 C1857 1.428 . S
C1863 N1862 1.351 . S
C1863 C1864 1.434 . S
C1864 C1855 1.429 . S
C1864 N1861 1.350 . S
C1864 C1863 1.434 . S
C1865 C1866 1.369 . S
C1865 C1867 1.419 . S
C1865 H1869 0.930 . S
C1866 C1865 1.369 . S
C1866 C1875 1.429 . S
C1867 C1865 1.419 . S
C1867 C1868 1.363 . S
C1867 H1870 0.929 . S
C1868 C1867 1.363 . S
C1868 C1874 1.428 . S
H1869 C1865 0.930 . S
H1870 C1867 0.929 . S
S1871 N1872 1.613 . S
S1871 N1873 1.610 . S
N1872 S1871 1.613 . S
N1872 C1875 1.350 . S
N1873 S1871 1.610 . S
N1873 C1874 1.351 . S
C1874 C1868 1.428 . S
C1874 N1873 1.351 . S
C1874 C1875 1.434 . S
C1875 C1866 1.429 . S
C1875 N1872 1.350 . S
C1875 C1874 1.434 . S
C1876 C1877 1.369 1_655 S
C1876 C1878 1.419 . S
C1876 H1880 0.930 . S
C1877 C1876 1.369 1_455 S
C1877 C1886 1.429 . S
C1878 C1876 1.419 . S
C1878 C1879 1.363 1_655 S
C1878 H1881 0.929 . S
C1879 C1878 1.363 1_455 S
C1879 C1885 1.428 . S
H1880 C1876 0.930 . S
H1881 C1878 0.929 . S
S1882 N1883 1.613 . S
S1882 N1884 1.610 . S
N1883 S1882 1.613 . S
N1883 C1886 1.350 . S
N1884 S1882 1.610 . S
N1884 C1885 1.351 . S
C1885 C1879 1.428 . S
C1885 N1884 1.351 . S
C1885 C1886 1.434 . S
C1886 C1877 1.429 . S
C1886 N1883 1.350 . S
C1886 C1885 1.434 . S
C1887 C1888 1.369 . S
C1887 C1889 1.419 . S
C1887 H1891 0.930 . S
C1888 C1887 1.369 . S
C1888 C1897 1.429 . S
C1889 C1887 1.419 . S
C1889 C1890 1.363 . S
C1889 H1892 0.929 . S
C1890 C1889 1.363 . S
C1890 C1896 1.428 . S
H1891 C1887 0.930 . S
H1892 C1889 0.929 . S
S1893 N1894 1.613 . S
S1893 N1895 1.610 . S
N1894 S1893 1.613 . S
N1894 C1897 1.350 . S
N1895 S1893 1.610 . S
N1895 C1896 1.351 . S
C1896 C1890 1.428 . S
C1896 N1895 1.351 . S
C1896 C1897 1.434 . S
C1897 C1888 1.429 . S
C1897 N1894 1.350 . S
C1897 C1896 1.434 . S
C1898 C1899 1.369 1_655 S
C1898 C1900 1.419 . S
C1898 H1902 0.930 . S
C1899 C1898 1.369 1_455 S
C1899 C1908 1.429 . S
C1900 C1898 1.419 . S
C1900 C1901 1.363 1_655 S
C1900 H1903 0.929 . S
C1901 C1900 1.363 1_455 S
C1901 C1907 1.428 . S
H1902 C1898 0.930 . S
H1903 C1900 0.929 . S
S1904 N1905 1.613 . S
S1904 N1906 1.610 . S
N1905 S1904 1.613 . S
N1905 C1908 1.350 . S
N1906 S1904 1.610 . S
N1906 C1907 1.351 . S
C1907 C1901 1.428 . S
C1907 N1906 1.351 . S
C1907 C1908 1.434 . S
C1908 C1899 1.429 . S
C1908 N1905 1.350 . S
C1908 C1907 1.434 . S
C1909 C1910 1.369 . S
C1909 C1911 1.419 . S
C1909 H1913 0.930 . S
C1910 C1909 1.369 . S
C1910 C1919 1.429 . S
C1911 C1909 1.419 . S
C1911 C1912 1.363 . S
C1911 H1914 0.929 . S
C1912 C1911 1.363 . S
C1912 C1918 1.428 . S
H1913 C1909 0.930 . S
H1914 C1911 0.929 . S
S1915 N1916 1.613 . S
S1915 N1917 1.610 . S
N1916 S1915 1.613 . S
N1916 C1919 1.350 . S
N1917 S1915 1.610 . S
N1917 C1918 1.351 . S
C1918 C1912 1.428 . S
C1918 N1917 1.351 . S
C1918 C1919 1.434 . S
C1919 C1910 1.429 . S
C1919 N1916 1.350 . S
C1919 C1918 1.434 . S
C1920 C1921 1.369 . S
C1920 C1922 1.419 . S
C1920 H1924 0.930 . S
C1921 C1920 1.369 . S
C1921 C1930 1.429 . S
C1922 C1920 1.419 . S
C1922 C1923 1.363 . S
C1922 H1925 0.929 . S
C1923 C1922 1.363 . S
C1923 C1929 1.428 . S
H1924 C1920 0.930 . S
H1925 C1922 0.929 . S
S1926 N1927 1.613 . S
S1926 N1928 1.610 . S
N1927 S1926 1.613 . S
N1927 C1930 1.350 . S
N1928 S1926 1.610 . S
N1928 C1929 1.351 . S
C1929 C1923 1.428 . S
C1929 N1928 1.351 . S
C1929 C1930 1.434 . S
C1930 C1921 1.429 . S
C1930 N1927 1.350 . S
C1930 C1929 1.434 . S
C1931 C1932 1.369 . S
C1931 C1933 1.419 . S
C1931 H1935 0.930 . S
C1932 C1931 1.369 . S
C1932 C1941 1.429 . S
C1933 C1931 1.419 . S
C1933 C1934 1.363 . S
C1933 H1936 0.929 . S
C1934 C1933 1.363 . S
C1934 C1940 1.428 . S
H1935 C1931 0.930 . S
H1936 C1933 0.929 . S
S1937 N1938 1.613 . S
S1937 N1939 1.610 1_565 S
N1938 S1937 1.613 . S
N1938 C1941 1.350 1_565 S
N1939 S1937 1.610 1_545 S
N1939 C1940 1.351 . S
C1940 C1934 1.428 . S
C1940 N1939 1.351 . S
C1940 C1941 1.434 . S
C1941 C1932 1.429 . S
C1941 N1938 1.350 1_545 S
C1941 C1940 1.434 . S
C1942 C1943 1.369 . S
C1942 C1944 1.419 . S
C1942 H1946 0.930 . S
C1943 C1942 1.369 . S
C1943 C1952 1.429 . S
C1944 C1942 1.419 . S
C1944 C1945 1.363 . S
C1944 H1947 0.929 . S
C1945 C1944 1.363 . S
C1945 C1951 1.428 . S
H1946 C1942 0.930 . S
H1947 C1944 0.929 . S
S1948 N1949 1.613 . S
S1948 N1950 1.610 1_545 S
N1949 S1948 1.613 . S
N1949 C1952 1.350 . S
N1950 S1948 1.610 1_565 S
N1950 C1951 1.351 1_565 S
C1951 C1945 1.428 . S
C1951 N1950 1.351 1_545 S
C1951 C1952 1.434 . S
C1952 C1943 1.429 . S
C1952 N1949 1.350 . S
C1952 C1951 1.434 . S
C1953 C1954 1.369 . S
C1953 C1955 1.419 . S
C1953 H1957 0.930 . S
C1954 C1953 1.369 . S
C1954 C1963 1.429 . S
C1955 C1953 1.419 . S
C1955 C1956 1.363 . S
C1955 H1958 0.929 . S
C1956 C1955 1.363 . S
C1956 C1962 1.428 . S
H1957 C1953 0.930 . S
H1958 C1955 0.929 . S
S1959 N1960 1.613 . S
S1959 N1961 1.610 . S
N1960 S1959 1.613 . S
N1960 C1963 1.350 . S
N1961 S1959 1.610 . S
N1961 C1962 1.351 . S
C1962 C1956 1.428 . S
C1962 N1961 1.351 . S
C1962 C1963 1.434 . S
C1963 C1954 1.429 . S
C1963 N1960 1.350 . S
C1963 C1962 1.434 . S
C1964 C1965 1.369 . S
C1964 C1966 1.419 . S
C1964 H1968 0.930 . S
C1965 C1964 1.369 . S
C1965 C1974 1.429 . S
C1966 C1964 1.419 . S
C1966 C1967 1.363 . S
C1966 H1969 0.929 . S
C1967 C1966 1.363 . S
C1967 C1973 1.428 . S
H1968 C1964 0.930 . S
H1969 C1966 0.929 . S
S1970 N1971 1.613 . S
S1970 N1972 1.610 . S
N1971 S1970 1.613 . S
N1971 C1974 1.350 . S
N1972 S1970 1.610 . S
N1972 C1973 1.351 . S
C1973 C1967 1.428 . S
C1973 N1972 1.351 . S
C1973 C1974 1.434 . S
C1974 C1965 1.429 . S
C1974 N1971 1.350 . S
C1974 C1973 1.434 . S
C1975 C1976 1.369 . S
C1975 C1977 1.419 . S
C1975 H1979 0.930 1_565 S
C1976 C1975 1.369 . S
C1976 C1985 1.429 . S
C1977 C1975 1.419 . S
C1977 C1978 1.363 . S
C1977 H1980 0.929 . S
C1978 C1977 1.363 . S
C1978 C1984 1.428 . S
H1979 C1975 0.930 1_545 S
H1980 C1977 0.929 . S
S1981 N1982 1.613 . S
S1981 N1983 1.610 . S
N1982 S1981 1.613 . S
N1982 C1985 1.350 . S
N1983 S1981 1.610 . S
N1983 C1984 1.351 . S
C1984 C1978 1.428 . S
C1984 N1983 1.351 . S
C1984 C1985 1.434 . S
C1985 C1976 1.429 . S
C1985 N1982 1.350 . S
C1985 C1984 1.434 . S
C1986 C1987 1.369 . S
C1986 C1988 1.419 . S
C1986 H1990 0.930 . S
C1987 C1986 1.369 . S
C1987 C1996 1.429 . S
C1988 C1986 1.419 . S
C1988 C1989 1.363 . S
C1988 H1991 0.929 . S
C1989 C1988 1.363 . S
C1989 C1995 1.428 . S
H1990 C1986 0.930 . S
H1991 C1988 0.929 . S
S1992 N1993 1.613 1_545 S
S1992 N1994 1.610 . S
N1993 S1992 1.613 1_565 S
N1993 C1996 1.350 . S
N1994 S1992 1.610 . S
N1994 C1995 1.351 1_545 S
C1995 C1989 1.428 . S
C1995 N1994 1.351 1_565 S
C1995 C1996 1.434 . S
C1996 C1987 1.429 . S
C1996 N1993 1.350 . S
C1996 C1995 1.434 . S
C1997 C1998 1.369 . S
C1997 C1999 1.419 . S
C1997 H2001 0.930 . S
C1998 C1997 1.369 . S
C1998 C2007 1.429 . S
C1999 C1997 1.419 . S
C1999 C2000 1.363 . S
C1999 H2002 0.929 . S
C2000 C1999 1.363 . S
C2000 C2006 1.428 . S
H2001 C1997 0.930 . S
H2002 C1999 0.929 . S
S2003 N2004 1.613 . S
S2003 N2005 1.610 . S
N2004 S2003 1.613 . S
N2004 C2007 1.350 . S
N2005 S2003 1.610 . S
N2005 C2006 1.351 . S
C2006 C2000 1.428 . S
C2006 N2005 1.351 . S
C2006 C2007 1.434 . S
C2007 C1998 1.429 . S
C2007 N2004 1.350 . S
C2007 C2006 1.434 . S
C2008 C2009 1.369 . S
C2008 C2010 1.419 . S
C2008 H2012 0.930 . S
C2009 C2008 1.369 . S
C2009 C2018 1.429 . S
C2010 C2008 1.419 . S
C2010 C2011 1.363 . S
C2010 H2013 0.929 . S
C2011 C2010 1.363 . S
C2011 C2017 1.428 . S
H2012 C2008 0.930 . S
H2013 C2010 0.929 . S
S2014 N2015 1.613 . S
S2014 N2016 1.610 . S
N2015 S2014 1.613 . S
N2015 C2018 1.350 . S
N2016 S2014 1.610 . S
N2016 C2017 1.351 . S
C2017 C2011 1.428 . S
C2017 N2016 1.351 . S
C2017 C2018 1.434 . S
C2018 C2009 1.429 . S
C2018 N2015 1.350 . S
C2018 C2017 1.434 . S
C2019 C2020 1.369 . S
C2019 C2021 1.419 . S
C2019 H2023 0.930 . S
C2020 C2019 1.369 . S
C2020 C2029 1.429 . S
C2021 C2019 1.419 . S
C2021 C2022 1.363 . S
C2021 H2024 0.929 . S
C2022 C2021 1.363 . S
C2022 C2028 1.428 . S
H2023 C2019 0.930 . S
H2024 C2021 0.929 . S
S2025 N2026 1.613 . S
S2025 N2027 1.610 . S
N2026 S2025 1.613 . S
N2026 C2029 1.350 . S
N2027 S2025 1.610 . S
N2027 C2028 1.351 . S
C2028 C2022 1.428 . S
C2028 N2027 1.351 . S
C2028 C2029 1.434 . S
C2029 C2020 1.429 . S
C2029 N2026 1.350 . S
C2029 C2028 1.434 . S
C2030 C2031 1.369 . S
C2030 C2032 1.419 . S
C2030 H2034 0.930 . S
C2031 C2030 1.369 . S
C2031 C2040 1.429 . S
C2032 C2030 1.419 . S
C2032 C2033 1.363 . S
C2032 H2035 0.929 . S
C2033 C2032 1.363 . S
C2033 C2039 1.428 . S
H2034 C2030 0.930 . S
H2035 C2032 0.929 . S
S2036 N2037 1.613 . S
S2036 N2038 1.610 . S
N2037 S2036 1.613 . S
N2037 C2040 1.350 . S
N2038 S2036 1.610 . S
N2038 C2039 1.351 . S
C2039 C2033 1.428 . S
C2039 N2038 1.351 . S
C2039 C2040 1.434 . S
C2040 C2031 1.429 . S
C2040 N2037 1.350 . S
C2040 C2039 1.434 . S
C2041 C2042 1.369 . S
C2041 C2043 1.419 . S
C2041 H2045 0.930 . S
C2042 C2041 1.369 . S
C2042 C2051 1.429 . S
C2043 C2041 1.419 . S
C2043 C2044 1.363 . S
C2043 H2046 0.929 . S
C2044 C2043 1.363 . S
C2044 C2050 1.428 . S
H2045 C2041 0.930 . S
H2046 C2043 0.929 . S
S2047 N2048 1.613 . S
S2047 N2049 1.610 . S
N2048 S2047 1.613 . S
N2048 C2051 1.350 . S
N2049 S2047 1.610 . S
N2049 C2050 1.351 . S
C2050 C2044 1.428 . S
C2050 N2049 1.351 . S
C2050 C2051 1.434 . S
C2051 C2042 1.429 . S
C2051 N2048 1.350 . S
C2051 C2050 1.434 . S
C2052 C2053 1.369 . S
C2052 C2054 1.419 . S
C2052 H2056 0.930 . S
C2053 C2052 1.369 . S
C2053 C2062 1.429 . S
C2054 C2052 1.419 . S
C2054 C2055 1.363 . S
C2054 H2057 0.929 . S
C2055 C2054 1.363 . S
C2055 C2061 1.428 . S
H2056 C2052 0.930 . S
H2057 C2054 0.929 . S
S2058 N2059 1.613 . S
S2058 N2060 1.610 . S
N2059 S2058 1.613 . S
N2059 C2062 1.350 . S
N2060 S2058 1.610 . S
N2060 C2061 1.351 . S
C2061 C2055 1.428 . S
C2061 N2060 1.351 . S
C2061 C2062 1.434 . S
C2062 C2053 1.429 . S
C2062 N2059 1.350 . S
C2062 C2061 1.434 . S
C2063 C2064 1.369 . S
C2063 C2065 1.419 . S
C2063 H2067 0.930 . S
C2064 C2063 1.369 . S
C2064 C2073 1.429 . S
C2065 C2063 1.419 . S
C2065 C2066 1.363 . S
C2065 H2068 0.929 . S
C2066 C2065 1.363 . S
C2066 C2072 1.428 . S
H2067 C2063 0.930 . S
H2068 C2065 0.929 . S
S2069 N2070 1.613 . S
S2069 N2071 1.610 . S
N2070 S2069 1.613 . S
N2070 C2073 1.350 . S
N2071 S2069 1.610 . S
N2071 C2072 1.351 . S
C2072 C2066 1.428 . S
C2072 N2071 1.351 . S
C2072 C2073 1.434 . S
C2073 C2064 1.429 . S
C2073 N2070 1.350 . S
C2073 C2072 1.434 . S
C2074 C2075 1.369 . S
C2074 C2076 1.419 . S
C2074 H2078 0.930 . S
C2075 C2074 1.369 . S
C2075 C2084 1.429 . S
C2076 C2074 1.419 . S
C2076 C2077 1.363 . S
C2076 H2079 0.929 . S
C2077 C2076 1.363 . S
C2077 C2083 1.428 . S
H2078 C2074 0.930 . S
H2079 C2076 0.929 . S
S2080 N2081 1.613 . S
S2080 N2082 1.610 . S
N2081 S2080 1.613 . S
N2081 C2084 1.350 . S
N2082 S2080 1.610 . S
N2082 C2083 1.351 . S
C2083 C2077 1.428 . S
C2083 N2082 1.351 . S
C2083 C2084 1.434 . S
C2084 C2075 1.429 . S
C2084 N2081 1.350 . S
C2084 C2083 1.434 . S
C2085 C2086 1.369 . S
C2085 C2087 1.419 . S
C2085 H2089 0.930 . S
C2086 C2085 1.369 . S
C2086 C2095 1.429 . S
C2087 C2085 1.419 . S
C2087 C2088 1.363 . S
C2087 H2090 0.929 . S
C2088 C2087 1.363 . S
C2088 C2094 1.428 . S
H2089 C2085 0.930 . S
H2090 C2087 0.929 . S
S2091 N2092 1.613 . S
S2091 N2093 1.610 . S
N2092 S2091 1.613 . S
N2092 C2095 1.350 . S
N2093 S2091 1.610 . S
N2093 C2094 1.351 . S
C2094 C2088 1.428 . S
C2094 N2093 1.351 . S
C2094 C2095 1.434 . S
C2095 C2086 1.429 . S
C2095 N2092 1.350 . S
C2095 C2094 1.434 . S
C2096 C2097 1.369 . S
C2096 C2098 1.419 . S
C2096 H2100 0.930 . S
C2097 C2096 1.369 . S
C2097 C2106 1.429 . S
C2098 C2096 1.419 . S
C2098 C2099 1.363 . S
C2098 H2101 0.929 . S
C2099 C2098 1.363 . S
C2099 C2105 1.428 . S
H2100 C2096 0.930 . S
H2101 C2098 0.929 . S
S2102 N2103 1.613 . S
S2102 N2104 1.610 . S
N2103 S2102 1.613 . S
N2103 C2106 1.350 . S
N2104 S2102 1.610 . S
N2104 C2105 1.351 . S
C2105 C2099 1.428 . S
C2105 N2104 1.351 . S
C2105 C2106 1.434 . S
C2106 C2097 1.429 . S
C2106 N2103 1.350 . S
C2106 C2105 1.434 . S
C2107 C2108 1.369 . S
C2107 C2109 1.419 . S
C2107 H2111 0.930 . S
C2108 C2107 1.369 . S
C2108 C2117 1.429 . S
C2109 C2107 1.419 . S
C2109 C2110 1.363 . S
C2109 H2112 0.929 . S
C2110 C2109 1.363 . S
C2110 C2116 1.428 . S
H2111 C2107 0.930 . S
H2112 C2109 0.929 . S
S2113 N2114 1.613 . S
S2113 N2115 1.610 . S
N2114 S2113 1.613 . S
N2114 C2117 1.350 1_545 S
N2115 S2113 1.610 . S
N2115 C2116 1.351 1_545 S
C2116 C2110 1.428 . S
C2116 N2115 1.351 1_565 S
C2116 C2117 1.434 . S
C2117 C2108 1.429 . S
C2117 N2114 1.350 1_565 S
C2117 C2116 1.434 . S
C2118 C2119 1.369 . S
C2118 C2120 1.419 . S
C2118 H2122 0.930 . S
C2119 C2118 1.369 . S
C2119 C2128 1.429 . S
C2120 C2118 1.419 . S
C2120 C2121 1.363 . S
C2120 H2123 0.929 . S
C2121 C2120 1.363 . S
C2121 C2127 1.428 . S
H2122 C2118 0.930 . S
H2123 C2120 0.929 . S
S2124 N2125 1.613 . S
S2124 N2126 1.610 . S
N2125 S2124 1.613 . S
N2125 C2128 1.350 . S
N2126 S2124 1.610 . S
N2126 C2127 1.351 . S
C2127 C2121 1.428 . S
C2127 N2126 1.351 . S
C2127 C2128 1.434 . S
C2128 C2119 1.429 . S
C2128 N2125 1.350 . S
C2128 C2127 1.434 . S
C2129 C2130 1.369 . S
C2129 C2131 1.419 . S
C2129 H2133 0.930 . S
C2130 C2129 1.369 . S
C2130 C2139 1.429 . S
C2131 C2129 1.419 . S
C2131 C2132 1.363 . S
C2131 H2134 0.929 . S
C2132 C2131 1.363 . S
C2132 C2138 1.428 . S
H2133 C2129 0.930 . S
H2134 C2131 0.929 . S
S2135 N2136 1.613 . S
S2135 N2137 1.610 . S
N2136 S2135 1.613 . S
N2136 C2139 1.350 . S
N2137 S2135 1.610 . S
N2137 C2138 1.351 . S
C2138 C2132 1.428 . S
C2138 N2137 1.351 . S
C2138 C2139 1.434 . S
C2139 C2130 1.429 . S
C2139 N2136 1.350 . S
C2139 C2138 1.434 . S
C2140 C2141 1.369 . S
C2140 C2142 1.419 . S
C2140 H2144 0.930 . S
C2141 C2140 1.369 . S
C2141 C2150 1.429 . S
C2142 C2140 1.419 . S
C2142 C2143 1.363 . S
C2142 H2145 0.929 . S
C2143 C2142 1.363 . S
C2143 C2149 1.428 . S
H2144 C2140 0.930 . S
H2145 C2142 0.929 . S
S2146 N2147 1.613 . S
S2146 N2148 1.610 . S
N2147 S2146 1.613 . S
N2147 C2150 1.350 . S
N2148 S2146 1.610 . S
N2148 C2149 1.351 . S
C2149 C2143 1.428 . S
C2149 N2148 1.351 . S
C2149 C2150 1.434 . S
C2150 C2141 1.429 . S
C2150 N2147 1.350 . S
C2150 C2149 1.434 . S
C2151 C2152 1.369 . S
C2151 C2153 1.419 . S
C2151 H2155 0.930 . S
C2152 C2151 1.369 . S
C2152 C2161 1.429 . S
C2153 C2151 1.419 . S
C2153 C2154 1.363 . S
C2153 H2156 0.929 . S
C2154 C2153 1.363 . S
C2154 C2160 1.428 . S
H2155 C2151 0.930 . S
H2156 C2153 0.929 . S
S2157 N2158 1.613 . S
S2157 N2159 1.610 . S
N2158 S2157 1.613 . S
N2158 C2161 1.350 . S
N2159 S2157 1.610 . S
N2159 C2160 1.351 . S
C2160 C2154 1.428 . S
C2160 N2159 1.351 . S
C2160 C2161 1.434 . S
C2161 C2152 1.429 . S
C2161 N2158 1.350 . S
C2161 C2160 1.434 . S
C2162 C2163 1.369 . S
C2162 C2164 1.419 . S
C2162 H2166 0.930 . S
C2163 C2162 1.369 . S
C2163 C2172 1.429 . S
C2164 C2162 1.419 . S
C2164 C2165 1.363 . S
C2164 H2167 0.929 . S
C2165 C2164 1.363 . S
C2165 C2171 1.428 . S
H2166 C2162 0.930 . S
H2167 C2164 0.929 . S
S2168 N2169 1.613 . S
S2168 N2170 1.610 . S
N2169 S2168 1.613 . S
N2169 C2172 1.350 . S
N2170 S2168 1.610 . S
N2170 C2171 1.351 . S
C2171 C2165 1.428 . S
C2171 N2170 1.351 . S
C2171 C2172 1.434 . S
C2172 C2163 1.429 . S
C2172 N2169 1.350 . S
C2172 C2171 1.434 . S
C2173 C2174 1.369 . S
C2173 C2175 1.419 . S
C2173 H2177 0.930 . S
C2174 C2173 1.369 . S
C2174 C2183 1.429 . S
C2175 C2173 1.419 . S
C2175 C2176 1.363 . S
C2175 H2178 0.929 . S
C2176 C2175 1.363 . S
C2176 C2182 1.428 . S
H2177 C2173 0.930 . S
H2178 C2175 0.929 . S
S2179 N2180 1.613 . S
S2179 N2181 1.610 . S
N2180 S2179 1.613 . S
N2180 C2183 1.350 . S
N2181 S2179 1.610 . S
N2181 C2182 1.351 . S
C2182 C2176 1.428 . S
C2182 N2181 1.351 . S
C2182 C2183 1.434 . S
C2183 C2174 1.429 . S
C2183 N2180 1.350 . S
C2183 C2182 1.434 . S
C2184 C2185 1.369 . S
C2184 C2186 1.419 . S
C2184 H2188 0.930 . S
C2185 C2184 1.369 . S
C2185 C2194 1.429 . S
C2186 C2184 1.419 . S
C2186 C2187 1.363 . S
C2186 H2189 0.929 . S
C2187 C2186 1.363 . S
C2187 C2193 1.428 . S
H2188 C2184 0.930 . S
H2189 C2186 0.929 . S
S2190 N2191 1.613 . S
S2190 N2192 1.610 . S
N2191 S2190 1.613 . S
N2191 C2194 1.350 . S
N2192 S2190 1.610 . S
N2192 C2193 1.351 . S
C2193 C2187 1.428 . S
C2193 N2192 1.351 . S
C2193 C2194 1.434 . S
C2194 C2185 1.429 . S
C2194 N2191 1.350 . S
C2194 C2193 1.434 . S
C2195 C2196 1.369 . S
C2195 C2197 1.419 . S
C2195 H2199 0.930 . S
C2196 C2195 1.369 . S
C2196 C2205 1.429 . S
C2197 C2195 1.419 . S
C2197 C2198 1.363 . S
C2197 H2200 0.929 . S
C2198 C2197 1.363 . S
C2198 C2204 1.428 . S
H2199 C2195 0.930 . S
H2200 C2197 0.929 . S
S2201 N2202 1.613 . S
S2201 N2203 1.610 . S
N2202 S2201 1.613 . S
N2202 C2205 1.350 . S
N2203 S2201 1.610 . S
N2203 C2204 1.351 . S
C2204 C2198 1.428 . S
C2204 N2203 1.351 . S
C2204 C2205 1.434 . S
C2205 C2196 1.429 . S
C2205 N2202 1.350 . S
C2205 C2204 1.434 . S
C2206 C2207 1.369 . S
C2206 C2208 1.419 . S
C2206 H2210 0.930 . S
C2207 C2206 1.369 . S
C2207 C2216 1.429 . S
C2208 C2206 1.419 . S
C2208 C2209 1.363 . S
C2208 H2211 0.929 . S
C2209 C2208 1.363 . S
C2209 C2215 1.428 . S
H2210 C2206 0.930 . S
H2211 C2208 0.929 . S
S2212 N2213 1.613 . S
S2212 N2214 1.610 . S
N2213 S2212 1.613 . S
N2213 C2216 1.350 . S
N2214 S2212 1.610 . S
N2214 C2215 1.351 . S
C2215 C2209 1.428 . S
C2215 N2214 1.351 . S
C2215 C2216 1.434 . S
C2216 C2207 1.429 . S
C2216 N2213 1.350 . S
C2216 C2215 1.434 . S
C2217 C2218 1.369 . S
C2217 C2219 1.419 . S
C2217 H2221 0.930 . S
C2218 C2217 1.369 . S
C2218 C2227 1.429 . S
C2219 C2217 1.419 . S
C2219 C2220 1.363 . S
C2219 H2222 0.929 . S
C2220 C2219 1.363 . S
C2220 C2226 1.428 . S
H2221 C2217 0.930 . S
H2222 C2219 0.929 . S
S2223 N2224 1.613 . S
S2223 N2225 1.610 . S
N2224 S2223 1.613 . S
N2224 C2227 1.350 . S
N2225 S2223 1.610 . S
N2225 C2226 1.351 . S
C2226 C2220 1.428 . S
C2226 N2225 1.351 . S
C2226 C2227 1.434 . S
C2227 C2218 1.429 . S
C2227 N2224 1.350 . S
C2227 C2226 1.434 . S
C2228 C2229 1.369 . S
C2228 C2230 1.419 . S
C2228 H2232 0.930 . S
C2229 C2228 1.369 . S
C2229 C2238 1.429 . S
C2230 C2228 1.419 . S
C2230 C2231 1.363 . S
C2230 H2233 0.929 . S
C2231 C2230 1.363 . S
C2231 C2237 1.428 . S
H2232 C2228 0.930 . S
H2233 C2230 0.929 . S
S2234 N2235 1.613 . S
S2234 N2236 1.610 . S
N2235 S2234 1.613 . S
N2235 C2238 1.350 . S
N2236 S2234 1.610 . S
N2236 C2237 1.351 . S
C2237 C2231 1.428 . S
C2237 N2236 1.351 . S
C2237 C2238 1.434 . S
C2238 C2229 1.429 . S
C2238 N2235 1.350 . S
C2238 C2237 1.434 . S
C2239 C2240 1.369 . S
C2239 C2241 1.419 . S
C2239 H2243 0.930 . S
C2240 C2239 1.369 . S
C2240 C2249 1.429 . S
C2241 C2239 1.419 . S
C2241 C2242 1.363 . S
C2241 H2244 0.929 . S
C2242 C2241 1.363 . S
C2242 C2248 1.428 . S
H2243 C2239 0.930 . S
H2244 C2241 0.929 . S
S2245 N2246 1.613 . S
S2245 N2247 1.610 . S
N2246 S2245 1.613 . S
N2246 C2249 1.350 . S
N2247 S2245 1.610 . S
N2247 C2248 1.351 . S
C2248 C2242 1.428 . S
C2248 N2247 1.351 . S
C2248 C2249 1.434 . S
C2249 C2240 1.429 . S
C2249 N2246 1.350 . S
C2249 C2248 1.434 . S
C2250 C2251 1.369 . S
C2250 C2252 1.419 . S
C2250 H2254 0.930 . S
C2251 C2250 1.369 . S
C2251 C2260 1.429 . S
C2252 C2250 1.419 . S
C2252 C2253 1.363 . S
C2252 H2255 0.929 . S
C2253 C2252 1.363 . S
C2253 C2259 1.428 . S
H2254 C2250 0.930 . S
H2255 C2252 0.929 . S
S2256 N2257 1.613 . S
S2256 N2258 1.610 . S
N2257 S2256 1.613 . S
N2257 C2260 1.350 . S
N2258 S2256 1.610 . S
N2258 C2259 1.351 . S
C2259 C2253 1.428 . S
C2259 N2258 1.351 . S
C2259 C2260 1.434 . S
C2260 C2251 1.429 . S
C2260 N2257 1.350 . S
C2260 C2259 1.434 . S
C2261 C2262 1.369 . S
C2261 C2263 1.419 . S
C2261 H2265 0.930 . S
C2262 C2261 1.369 . S
C2262 C2271 1.429 . S
C2263 C2261 1.419 . S
C2263 C2264 1.363 . S
C2263 H2266 0.929 . S
C2264 C2263 1.363 . S
C2264 C2270 1.428 . S
H2265 C2261 0.930 . S
H2266 C2263 0.929 . S
S2267 N2268 1.613 . S
S2267 N2269 1.610 . S
N2268 S2267 1.613 . S
N2268 C2271 1.350 . S
N2269 S2267 1.610 . S
N2269 C2270 1.351 . S
C2270 C2264 1.428 . S
C2270 N2269 1.351 . S
C2270 C2271 1.434 . S
C2271 C2262 1.429 . S
C2271 N2268 1.350 . S
C2271 C2270 1.434 . S
C2272 C2273 1.369 1_455 S
C2272 C2274 1.419 1_556 S
C2272 H2276 0.930 . S
C2273 C2272 1.369 1_655 S
C2273 C2282 1.438 . S
C2274 C2272 1.419 1_554 S
C2274 C2275 1.363 . S
C2274 H2277 0.930 . S
C2275 C2274 1.363 . S
C2275 C2281 1.428 1_455 S
H2276 C2272 0.930 . S
H2277 C2274 0.930 . S
S2278 N2279 1.613 . S
S2278 N2280 1.610 . S
N2279 S2278 1.613 . S
N2279 C2282 1.349 1_554 S
N2280 S2278 1.610 . S
N2280 C2281 1.351 . S
C2281 C2275 1.428 1_655 S
C2281 N2280 1.351 . S
C2281 C2282 1.425 1_554 S
C2282 C2273 1.438 . S
C2282 N2279 1.349 1_556 S
C2282 C2281 1.425 1_556 S
C2283 C2284 1.390 . S
C2283 C2285 1.399 1_554 S
C2283 H2287 0.929 1_554 S
C2284 C2283 1.390 . S
C2284 C2293 1.429 . S
C2285 C2283 1.399 1_556 S
C2285 C2286 1.363 . S
C2285 H2288 0.929 . S
C2286 C2285 1.363 . S
C2286 C2292 1.413 1_556 S
H2287 C2283 0.929 1_556 S
H2288 C2285 0.929 . S
S2289 N2290 1.613 . S
S2289 N2291 1.610 . S
N2290 S2289 1.613 . S
N2290 C2293 1.350 . S
N2291 S2289 1.610 . S
N2291 C2292 1.354 . S
C2292 C2286 1.413 1_554 S
C2292 N2291 1.354 . S
C2292 C2293 1.449 . S
C2293 C2284 1.429 . S
C2293 N2290 1.350 . S
C2293 C2292 1.449 . S
C2294 C2295 1.369 1_655 S
C2294 C2296 1.419 . S
C2294 H2298 0.930 . S
C2295 C2294 1.369 1_455 S
C2295 C2304 1.429 . S
C2296 C2294 1.419 . S
C2296 C2297 1.363 . S
C2296 H2299 0.929 . S
C2297 C2296 1.363 . S
C2297 C2303 1.428 1_655 S
H2298 C2294 0.930 . S
H2299 C2296 0.929 . S
S2300 N2301 1.613 . S
S2300 N2302 1.610 . S
N2301 S2300 1.613 . S
N2301 C2304 1.350 . S
N2302 S2300 1.610 . S
N2302 C2303 1.351 . S
C2303 C2297 1.428 1_455 S
C2303 N2302 1.351 . S
C2303 C2304 1.434 . S
C2304 C2295 1.429 . S
C2304 N2301 1.350 . S
C2304 C2303 1.434 . S
C2305 C2306 1.369 . S
C2305 C2307 1.419 . S
C2305 H2309 0.930 . S
C2306 C2305 1.369 . S
C2306 C2315 1.429 . S
C2307 C2305 1.419 . S
C2307 C2308 1.363 . S
C2307 H2310 0.929 . S
C2308 C2307 1.363 . S
C2308 C2314 1.428 . S
H2309 C2305 0.930 . S
H2310 C2307 0.929 . S
S2311 N2312 1.613 . S
S2311 N2313 1.610 . S
N2312 S2311 1.613 . S
N2312 C2315 1.350 . S
N2313 S2311 1.610 . S
N2313 C2314 1.351 . S
C2314 C2308 1.428 . S
C2314 N2313 1.351 . S
C2314 C2315 1.434 . S
C2315 C2306 1.429 . S
C2315 N2312 1.350 . S
C2315 C2314 1.434 . S
C2316 C2317 1.369 . S
C2316 C2318 1.419 1_556 S
C2316 H2320 0.930 . S
C2317 C2316 1.369 . S
C2317 C2326 1.429 . S
C2318 C2316 1.419 1_554 S
C2318 C2319 1.363 . S
C2318 H2321 0.929 . S
C2319 C2318 1.363 . S
C2319 C2325 1.428 . S
H2320 C2316 0.930 . S
H2321 C2318 0.929 . S
S2322 N2323 1.613 . S
S2322 N2324 1.610 1_556 S
N2323 S2322 1.613 . S
N2323 C2326 1.350 . S
N2324 S2322 1.610 1_554 S
N2324 C2325 1.351 . S
C2325 C2319 1.428 . S
C2325 N2324 1.351 . S
C2325 C2326 1.434 1_554 S
C2326 C2317 1.429 . S
C2326 N2323 1.350 . S
C2326 C2325 1.434 1_556 S
C2327 C2328 1.369 1_455 S
C2327 C2329 1.419 . S
C2327 H2331 0.930 . S
C2328 C2327 1.369 1_655 S
C2328 C2337 1.429 . S
C2329 C2327 1.419 . S
C2329 C2330 1.363 . S
C2329 H2332 0.929 . S
C2330 C2329 1.363 . S
C2330 C2336 1.428 1_455 S
H2331 C2327 0.930 . S
H2332 C2329 0.929 . S
S2333 N2334 1.613 . S
S2333 N2335 1.610 . S
N2334 S2333 1.613 . S
N2334 C2337 1.350 . S
N2335 S2333 1.610 . S
N2335 C2336 1.351 . S
C2336 C2330 1.428 1_655 S
C2336 N2335 1.351 . S
C2336 C2337 1.434 . S
C2337 C2328 1.429 . S
C2337 N2334 1.350 . S
C2337 C2336 1.434 . S
C2338 C2339 1.369 . S
C2338 C2340 1.419 . S
C2338 H2342 0.930 . S
C2339 C2338 1.369 . S
C2339 C2348 1.429 . S
C2340 C2338 1.419 . S
C2340 C2341 1.363 . S
C2340 H2343 0.929 . S
C2341 C2340 1.363 . S
C2341 C2347 1.428 . S
H2342 C2338 0.930 . S
H2343 C2340 0.929 . S
S2344 N2345 1.613 . S
S2344 N2346 1.610 . S
N2345 S2344 1.613 . S
N2345 C2348 1.350 . S
N2346 S2344 1.610 . S
N2346 C2347 1.351 . S
C2347 C2341 1.428 . S
C2347 N2346 1.351 . S
C2347 C2348 1.434 . S
C2348 C2339 1.429 . S
C2348 N2345 1.350 . S
C2348 C2347 1.434 . S
C2349 C2350 1.369 . S
C2349 C2351 1.419 1_545 S
C2349 H2353 0.930 . S
C2350 C2349 1.369 . S
C2350 C2359 1.429 1_455 S
C2351 C2349 1.419 1_565 S
C2351 C2352 1.363 1_455 S
C2351 H2354 0.929 . S
C2352 C2351 1.363 1_655 S
C2352 C2358 1.428 . S
H2353 C2349 0.930 . S
H2354 C2351 0.929 . S
S2355 N2356 1.623 . S
S2355 N2357 1.601 1_545 S
N2356 S2355 1.623 . S
N2356 C2359 1.350 . S
N2357 S2355 1.601 1_565 S
N2357 C2358 1.351 . S
C2358 C2352 1.428 . S
C2358 N2357 1.351 . S
C2358 C2359 1.434 1_565 S
C2359 C2350 1.429 1_655 S
C2359 N2356 1.350 . S
C2359 C2358 1.434 1_545 S
C2360 C2361 1.369 . S
C2360 C2362 1.419 . S
C2360 H2364 0.930 . S
C2361 C2360 1.369 . S
C2361 C2370 1.429 . S
C2362 C2360 1.419 . S
C2362 C2363 1.363 . S
C2362 H2365 0.929 . S
C2363 C2362 1.363 . S
C2363 C2369 1.428 . S
H2364 C2360 0.930 . S
H2365 C2362 0.929 . S
S2366 N2367 1.613 . S
S2366 N2368 1.610 . S
N2367 S2366 1.613 . S
N2367 C2370 1.350 . S
N2368 S2366 1.610 . S
N2368 C2369 1.351 . S
C2369 C2363 1.428 . S
C2369 N2368 1.351 . S
C2369 C2370 1.434 . S
C2370 C2361 1.429 . S
C2370 N2367 1.350 . S
C2370 C2369 1.434 . S
C2371 C2372 1.369 . S
C2371 C2373 1.419 1_565 S
C2371 H2375 0.930 . S
C2372 C2371 1.369 . S
C2372 C2381 1.429 . S
C2373 C2371 1.419 1_545 S
C2373 C2374 1.363 . S
C2373 H2376 0.929 . S
C2374 C2373 1.363 . S
C2374 C2380 1.428 . S
H2375 C2371 0.930 . S
H2376 C2373 0.929 . S
S2377 N2378 1.613 . S
S2377 N2379 1.610 1_565 S
N2378 S2377 1.613 . S
N2378 C2381 1.350 . S
N2379 S2377 1.610 1_545 S
N2379 C2380 1.351 . S
C2380 C2374 1.428 . S
C2380 N2379 1.351 . S
C2380 C2381 1.434 1_545 S
C2381 C2372 1.429 . S
C2381 N2378 1.350 . S
C2381 C2380 1.434 1_565 S
C2382 C2383 1.369 . S
C2382 C2384 1.419 . S
C2382 H2386 0.930 . S
C2383 C2382 1.369 . S
C2383 C2392 1.429 . S
C2384 C2382 1.419 . S
C2384 C2385 1.363 . S
C2384 H2387 0.929 . S
C2385 C2384 1.363 . S
C2385 C2391 1.428 . S
H2386 C2382 0.930 . S
H2387 C2384 0.929 . S
S2388 N2389 1.613 . S
S2388 N2390 1.610 . S
N2389 S2388 1.613 . S
N2389 C2392 1.350 . S
N2390 S2388 1.610 . S
N2390 C2391 1.351 . S
C2391 C2385 1.428 . S
C2391 N2390 1.351 . S
C2391 C2392 1.434 . S
C2392 C2383 1.429 . S
C2392 N2389 1.350 . S
C2392 C2391 1.434 . S
C2393 C2394 1.369 . S
C2393 C2395 1.419 . S
C2393 H2397 0.930 . S
C2394 C2393 1.369 . S
C2394 C2403 1.429 1_565 S
C2395 C2393 1.419 . S
C2395 C2396 1.363 1_565 S
C2395 H2398 0.929 . S
C2396 C2395 1.363 1_545 S
C2396 C2402 1.428 . S
H2397 C2393 0.930 . S
H2398 C2395 0.929 . S
S2399 N2400 1.613 . S
S2399 N2401 1.610 . S
N2400 S2399 1.613 . S
N2400 C2403 1.350 . S
N2401 S2399 1.610 . S
N2401 C2402 1.351 . S
C2402 C2396 1.428 . S
C2402 N2401 1.351 . S
C2402 C2403 1.434 . S
C2403 C2394 1.429 1_545 S
C2403 N2400 1.350 . S
C2403 C2402 1.434 . S
C2404 C2405 1.369 . S
C2404 C2406 1.419 . S
C2404 H2408 0.930 . S
C2405 C2404 1.369 . S
C2405 C2414 1.429 . S
C2406 C2404 1.419 . S
C2406 C2407 1.363 . S
C2406 H2409 0.929 . S
C2407 C2406 1.363 . S
C2407 C2413 1.428 . S
H2408 C2404 0.930 . S
H2409 C2406 0.929 . S
S2410 N2411 1.613 . S
S2410 N2412 1.610 . S
N2411 S2410 1.613 . S
N2411 C2414 1.350 . S
N2412 S2410 1.610 . S
N2412 C2413 1.351 . S
C2413 C2407 1.428 . S
C2413 N2412 1.351 . S
C2413 C2414 1.434 . S
C2414 C2405 1.429 . S
C2414 N2411 1.350 . S
C2414 C2413 1.434 . S
C2415 C2416 1.369 . S
C2415 C2417 1.419 . S
C2415 H2419 0.930 . S
C2416 C2415 1.369 . S
C2416 C2425 1.429 . S
C2417 C2415 1.419 . S
C2417 C2418 1.363 . S
C2417 H2420 0.929 . S
C2418 C2417 1.363 . S
C2418 C2424 1.428 . S
H2419 C2415 0.930 . S
H2420 C2417 0.929 . S
S2421 N2422 1.613 . S
S2421 N2423 1.610 . S
N2422 S2421 1.613 . S
N2422 C2425 1.350 . S
N2423 S2421 1.610 . S
N2423 C2424 1.351 . S
C2424 C2418 1.428 . S
C2424 N2423 1.351 . S
C2424 C2425 1.434 . S
C2425 C2416 1.429 . S
C2425 N2422 1.350 . S
C2425 C2424 1.434 . S
C2426 C2427 1.369 . S
C2426 C2428 1.419 . S
C2426 H2430 0.930 . S
C2427 C2426 1.369 . S
C2427 C2436 1.429 . S
C2428 C2426 1.419 . S
C2428 C2429 1.363 . S
C2428 H2431 0.929 . S
C2429 C2428 1.363 . S
C2429 C2435 1.428 . S
H2430 C2426 0.930 . S
H2431 C2428 0.929 . S
S2432 N2433 1.613 . S
S2432 N2434 1.610 . S
N2433 S2432 1.613 . S
N2433 C2436 1.350 . S
N2434 S2432 1.610 . S
N2434 C2435 1.351 . S
C2435 C2429 1.428 . S
C2435 N2434 1.351 . S
C2435 C2436 1.434 . S
C2436 C2427 1.429 . S
C2436 N2433 1.350 . S
C2436 C2435 1.434 . S
C2437 C2438 1.369 1_565 S
C2437 C2439 1.419 . S
C2437 H2441 0.930 . S
C2438 C2437 1.369 1_545 S
C2438 C2447 1.429 1_554 S
C2439 C2437 1.419 . S
C2439 C2440 1.363 1_554 S
C2439 H2442 0.929 . S
C2440 C2439 1.363 1_556 S
C2440 C2446 1.428 1_565 S
H2441 C2437 0.930 . S
H2442 C2439 0.929 . S
S2443 N2444 1.613 . S
S2443 N2445 1.610 . S
N2444 S2443 1.613 . S
N2444 C2447 1.350 . S
N2445 S2443 1.610 . S
N2445 C2446 1.351 . S
C2446 C2440 1.428 1_545 S
C2446 N2445 1.351 . S
C2446 C2447 1.434 . S
C2447 C2438 1.429 1_556 S
C2447 N2444 1.350 . S
C2447 C2446 1.434 . S
C2448 C2449 1.369 . S
C2448 C2450 1.419 . S
C2448 H2452 0.930 . S
C2449 C2448 1.369 . S
C2449 C2458 1.449 . S
C2450 C2448 1.419 . S
C2450 C2451 1.363 . S
C2450 H2453 0.929 . S
C2451 C2450 1.363 . S
C2451 C2457 1.447 . S
H2452 C2448 0.930 . S
H2453 C2450 0.929 . S
S2454 N2455 1.613 . S
S2454 N2456 1.610 . S
N2455 S2454 1.613 . S
N2455 C2458 1.330 1_655 S
N2456 S2454 1.610 . S
N2456 C2457 1.332 1_655 S
C2457 C2451 1.447 . S
C2457 N2456 1.332 1_455 S
C2457 C2458 1.434 . S
C2458 C2449 1.449 . S
C2458 N2455 1.330 1_455 S
C2458 C2457 1.434 . S
C2459 C2460 1.369 . S
C2459 C2461 1.419 . S
C2459 H2463 0.930 . S
C2460 C2459 1.369 . S
C2460 C2469 1.429 . S
C2461 C2459 1.419 . S
C2461 C2462 1.363 . S
C2461 H2464 0.929 . S
C2462 C2461 1.363 . S
C2462 C2468 1.428 . S
H2463 C2459 0.930 . S
H2464 C2461 0.929 . S
S2465 N2466 1.613 . S
S2465 N2467 1.610 . S
N2466 S2465 1.613 . S
N2466 C2469 1.350 . S
N2467 S2465 1.610 . S
N2467 C2468 1.351 . S
C2468 C2462 1.428 . S
C2468 N2467 1.351 . S
C2468 C2469 1.434 . S
C2469 C2460 1.429 . S
C2469 N2466 1.350 . S
C2469 C2468 1.434 . S
C2470 C2471 1.369 . S
C2470 C2472 1.419 . S
C2470 H2474 0.930 . S
C2471 C2470 1.369 . S
C2471 C2480 1.429 . S
C2472 C2470 1.419 . S
C2472 C2473 1.363 . S
C2472 H2475 0.929 . S
C2473 C2472 1.363 . S
C2473 C2479 1.428 . S
H2474 C2470 0.930 . S
H2475 C2472 0.929 . S
S2476 N2477 1.613 . S
S2476 N2478 1.610 . S
N2477 S2476 1.613 . S
N2477 C2480 1.350 1_455 S
N2478 S2476 1.610 . S
N2478 C2479 1.351 1_455 S
C2479 C2473 1.428 . S
C2479 N2478 1.351 1_655 S
C2479 C2480 1.434 . S
C2480 C2471 1.429 . S
C2480 N2477 1.350 1_655 S
C2480 C2479 1.434 . S
C2481 C2482 1.369 . S
C2481 C2483 1.419 . S
C2481 H2485 0.930 . S
C2482 C2481 1.369 . S
C2482 C2491 1.429 . S
C2483 C2481 1.419 . S
C2483 C2484 1.363 . S
C2483 H2486 0.929 . S
C2484 C2483 1.363 . S
C2484 C2490 1.428 . S
H2485 C2481 0.930 . S
H2486 C2483 0.929 . S
S2487 N2488 1.613 . S
S2487 N2489 1.610 . S
N2488 S2487 1.613 . S
N2488 C2491 1.350 . S
N2489 S2487 1.610 . S
N2489 C2490 1.351 . S
C2490 C2484 1.428 . S
C2490 N2489 1.351 . S
C2490 C2491 1.434 . S
C2491 C2482 1.429 . S
C2491 N2488 1.350 . S
C2491 C2490 1.434 . S
C2492 C2493 1.369 . S
C2492 C2494 1.419 . S
C2492 H2496 0.930 1_455 S
C2493 C2492 1.369 . S
C2493 C2502 1.429 . S
C2494 C2492 1.419 . S
C2494 C2495 1.363 . S
C2494 H2497 0.929 1_455 S
C2495 C2494 1.363 . S
C2495 C2501 1.428 . S
H2496 C2492 0.930 1_655 S
H2497 C2494 0.929 1_655 S
S2498 N2499 1.613 . S
S2498 N2500 1.610 . S
N2499 S2498 1.613 . S
N2499 C2502 1.350 . S
N2500 S2498 1.610 . S
N2500 C2501 1.351 . S
C2501 C2495 1.428 . S
C2501 N2500 1.351 . S
C2501 C2502 1.434 . S
C2502 C2493 1.429 . S
C2502 N2499 1.350 . S
C2502 C2501 1.434 . S
C2503 C2504 1.369 . S
C2503 C2505 1.419 . S
C2503 H2507 0.930 . S
C2504 C2503 1.369 . S
C2504 C2513 1.429 . S
C2505 C2503 1.419 . S
C2505 C2506 1.363 . S
C2505 H2508 0.929 . S
C2506 C2505 1.363 . S
C2506 C2512 1.428 . S
H2507 C2503 0.930 . S
H2508 C2505 0.929 . S
S2509 N2510 1.613 . S
S2509 N2511 1.610 . S
N2510 S2509 1.613 . S
N2510 C2513 1.350 . S
N2511 S2509 1.610 . S
N2511 C2512 1.351 . S
C2512 C2506 1.428 . S
C2512 N2511 1.351 . S
C2512 C2513 1.434 . S
C2513 C2504 1.429 . S
C2513 N2510 1.350 . S
C2513 C2512 1.434 . S
C2514 C2515 1.369 . S
C2514 C2516 1.419 . S
C2514 H2518 0.930 . S
C2515 C2514 1.369 . S
C2515 C2524 1.429 . S
C2516 C2514 1.419 . S
C2516 C2517 1.363 . S
C2516 H2519 0.929 . S
C2517 C2516 1.363 . S
C2517 C2523 1.428 . S
H2518 C2514 0.930 . S
H2519 C2516 0.929 . S
S2520 N2521 1.613 . S
S2520 N2522 1.610 . S
N2521 S2520 1.613 . S
N2521 C2524 1.350 . S
N2522 S2520 1.610 . S
N2522 C2523 1.351 . S
C2523 C2517 1.428 . S
C2523 N2522 1.351 . S
C2523 C2524 1.434 . S
C2524 C2515 1.429 . S
C2524 N2521 1.350 . S
C2524 C2523 1.434 . S
C2525 C2526 1.369 . S
C2525 C2527 1.419 . S
C2525 H2529 0.930 . S
C2526 C2525 1.369 . S
C2526 C2535 1.429 . S
C2527 C2525 1.419 . S
C2527 C2528 1.363 . S
C2527 H2530 0.929 . S
C2528 C2527 1.363 . S
C2528 C2534 1.428 . S
H2529 C2525 0.930 . S
H2530 C2527 0.929 . S
S2531 N2532 1.613 . S
S2531 N2533 1.610 . S
N2532 S2531 1.613 . S
N2532 C2535 1.350 . S
N2533 S2531 1.610 . S
N2533 C2534 1.351 . S
C2534 C2528 1.428 . S
C2534 N2533 1.351 . S
C2534 C2535 1.434 . S
C2535 C2526 1.429 . S
C2535 N2532 1.350 . S
C2535 C2534 1.434 . S
C2536 C2537 1.369 . S
C2536 C2538 1.419 . S
C2536 H2540 0.930 . S
C2537 C2536 1.369 . S
C2537 C2546 1.429 . S
C2538 C2536 1.419 . S
C2538 C2539 1.363 . S
C2538 H2541 0.929 . S
C2539 C2538 1.363 . S
C2539 C2545 1.428 . S
H2540 C2536 0.930 . S
H2541 C2538 0.929 . S
S2542 N2543 1.613 . S
S2542 N2544 1.610 . S
N2543 S2542 1.613 . S
N2543 C2546 1.350 . S
N2544 S2542 1.610 . S
N2544 C2545 1.351 . S
C2545 C2539 1.428 . S
C2545 N2544 1.351 . S
C2545 C2546 1.434 . S
C2546 C2537 1.429 . S
C2546 N2543 1.350 . S
C2546 C2545 1.434 . S
C2547 C2548 1.369 . S
C2547 C2549 1.419 . S
C2547 H2551 0.930 . S
C2548 C2547 1.369 . S
C2548 C2557 1.429 . S
C2549 C2547 1.419 . S
C2549 C2550 1.363 . S
C2549 H2552 0.929 . S
C2550 C2549 1.363 . S
C2550 C2556 1.428 . S
H2551 C2547 0.930 . S
H2552 C2549 0.929 . S
S2553 N2554 1.613 . S
S2553 N2555 1.610 . S
N2554 S2553 1.613 . S
N2554 C2557 1.350 . S
N2555 S2553 1.610 . S
N2555 C2556 1.351 . S
C2556 C2550 1.428 . S
C2556 N2555 1.351 . S
C2556 C2557 1.434 . S
C2557 C2548 1.429 . S
C2557 N2554 1.350 . S
C2557 C2556 1.434 . S
C2558 C2559 1.369 . S
C2558 C2560 1.419 . S
C2558 H2562 0.930 . S
C2559 C2558 1.369 . S
C2559 C2568 1.429 . S
C2560 C2558 1.419 . S
C2560 C2561 1.363 . S
C2560 H2563 0.929 . S
C2561 C2560 1.363 . S
C2561 C2567 1.428 . S
H2562 C2558 0.930 . S
H2563 C2560 0.929 . S
S2564 N2565 1.613 . S
S2564 N2566 1.610 . S
N2565 S2564 1.613 . S
N2565 C2568 1.350 . S
N2566 S2564 1.610 . S
N2566 C2567 1.351 . S
C2567 C2561 1.428 . S
C2567 N2566 1.351 . S
C2567 C2568 1.434 . S
C2568 C2559 1.429 . S
C2568 N2565 1.350 . S
C2568 C2567 1.434 . S
C2569 C2570 1.369 . S
C2569 C2571 1.419 . S
C2569 H2573 0.930 . S
C2570 C2569 1.369 . S
C2570 C2579 1.429 . S
C2571 C2569 1.419 . S
C2571 C2572 1.363 . S
C2571 H2574 0.929 . S
C2572 C2571 1.363 . S
C2572 C2578 1.428 . S
H2573 C2569 0.930 . S
H2574 C2571 0.929 . S
S2575 N2576 1.613 . S
S2575 N2577 1.610 . S
N2576 S2575 1.613 . S
N2576 C2579 1.350 . S
N2577 S2575 1.610 . S
N2577 C2578 1.351 . S
C2578 C2572 1.428 . S
C2578 N2577 1.351 . S
C2578 C2579 1.434 . S
C2579 C2570 1.429 . S
C2579 N2576 1.350 . S
C2579 C2578 1.434 . S
C2580 C2581 1.369 . S
C2580 C2582 1.419 . S
C2580 H2584 0.930 . S
C2581 C2580 1.369 . S
C2581 C2590 1.429 . S
C2582 C2580 1.419 . S
C2582 C2583 1.363 . S
C2582 H2585 0.929 . S
C2583 C2582 1.363 . S
C2583 C2589 1.428 . S
H2584 C2580 0.930 . S
H2585 C2582 0.929 . S
S2586 N2587 1.613 . S
S2586 N2588 1.610 . S
N2587 S2586 1.613 . S
N2587 C2590 1.350 . S
N2588 S2586 1.610 . S
N2588 C2589 1.351 . S
C2589 C2583 1.428 . S
C2589 N2588 1.351 . S
C2589 C2590 1.434 . S
C2590 C2581 1.429 . S
C2590 N2587 1.350 . S
C2590 C2589 1.434 . S
C2591 C2592 1.369 . S
C2591 C2593 1.419 . S
C2591 H2595 0.930 . S
C2592 C2591 1.369 . S
C2592 C2601 1.429 . S
C2593 C2591 1.419 . S
C2593 C2594 1.363 . S
C2593 H2596 0.929 . S
C2594 C2593 1.363 . S
C2594 C2600 1.428 . S
H2595 C2591 0.930 . S
H2596 C2593 0.929 . S
S2597 N2598 1.613 . S
S2597 N2599 1.610 . S
N2598 S2597 1.613 . S
N2598 C2601 1.350 . S
N2599 S2597 1.610 . S
N2599 C2600 1.351 . S
C2600 C2594 1.428 . S
C2600 N2599 1.351 . S
C2600 C2601 1.434 . S
C2601 C2592 1.429 . S
C2601 N2598 1.350 . S
C2601 C2600 1.434 . S
C2602 C2603 1.369 . S
C2602 C2604 1.419 . S
C2602 H2606 0.930 . S
C2603 C2602 1.369 . S
C2603 C2612 1.429 . S
C2604 C2602 1.419 . S
C2604 C2605 1.363 . S
C2604 H2607 0.929 . S
C2605 C2604 1.363 . S
C2605 C2611 1.428 . S
H2606 C2602 0.930 . S
H2607 C2604 0.929 . S
S2608 N2609 1.613 . S
S2608 N2610 1.610 . S
N2609 S2608 1.613 . S
N2609 C2612 1.350 . S
N2610 S2608 1.610 . S
N2610 C2611 1.351 . S
C2611 C2605 1.428 . S
C2611 N2610 1.351 . S
C2611 C2612 1.434 . S
C2612 C2603 1.429 . S
C2612 N2609 1.350 . S
C2612 C2611 1.434 . S
C2613 C2614 1.369 . S
C2613 C2615 1.419 . S
C2613 H2617 0.930 . S
C2614 C2613 1.369 . S
C2614 C2623 1.429 . S
C2615 C2613 1.419 . S
C2615 C2616 1.363 . S
C2615 H2618 0.929 . S
C2616 C2615 1.363 . S
C2616 C2622 1.428 . S
H2617 C2613 0.930 . S
H2618 C2615 0.929 . S
S2619 N2620 1.613 . S
S2619 N2621 1.610 . S
N2620 S2619 1.613 . S
N2620 C2623 1.350 . S
N2621 S2619 1.610 . S
N2621 C2622 1.351 . S
C2622 C2616 1.428 . S
C2622 N2621 1.351 . S
C2622 C2623 1.434 . S
C2623 C2614 1.429 . S
C2623 N2620 1.350 . S
C2623 C2622 1.434 . S
C1217 C979 2.118 . S
C1219 C29 2.123 . S
C1228 C67 2.125 . S
C1230 C941 2.123 . S
C1239 C1055 2.119 . S
C1241 C105 2.121 . S
C1250 C143 2.118 . S
C1252 C1017 2.122 . S
C1261 C1110 2.120 . S
C1263 C160 2.125 . S
C1272 C198 2.125 . S
C1274 C1072 2.119 . S
C1283 C1186 2.126 . S
C1285 C236 2.121 . S
C1294 C274 2.118 . S
C1296 C1148 2.125 . S
C1305 C333 2.120 . S
C1307 C675 2.125 . S
C1316 C371 2.119 . S
C1318 C637 2.120 . S
C1327 C751 2.118 . S
C1329 C409 2.124 . S
C1338 C447 2.124 . S
C1340 C713 2.119 . S
C1349 C464 2.118 . S
C1351 C806 2.123 . S
C1360 C768 2.118 . S
C1362 C502 2.123 . S
C1371 C882 2.124 . S
C1373 C540 2.123 . S
C1382 C844 2.118 . S
C1384 C578 2.122 . S
C1393 C1108 1.660 1_554 S
C1395 C6 1.640 . S
C1404 C44 1.640 . S
C1406 C158 1.660 1_554 S
C1415 C82 1.632 . S
C1417 C880 1.666 . S
C1426 C120 1.634 . S
C1428 C538 1.664 . S
C1437 C977 1.666 1_556 S
C1439 C179 1.635 . S
C1448 C27 1.664 1_556 S
C1450 C217 1.635 . S
C1459 C749 1.660 . S
C1461 C255 1.640 . S
C1470 C293 1.631 . S
C1472 C407 1.666 . S
C1481 C804 1.663 . S
C1483 C310 1.639 . S
C1492 C462 1.660 . S
C1494 C348 1.640 . S
C1503 C386 1.633 . S
C1505 C1184 1.664 . S
C1514 C234 1.662 . S
C1516 C424 1.635 . S
C1525 C673 1.661 . S
C1527 C483 1.638 . S
C1536 C521 1.640 . S
C1538 C331 1.661 . S
C1547 C559 1.639 . S
C1549 C1053 1.661 . S
C1558 C597 1.634 . S
C1560 C103 1.665 . S
C1569 C614 1.641 . S
C1571 C500 1.661 . S
C1580 C766 1.667 . S
C1582 C652 1.633 . S
C1591 C272 1.667 . S
C1593 C690 1.633 . S
C1602 C1146 1.667 . S
C1604 C728 1.634 . S
C1613 C787 1.633 . S
C1615 C369 1.667 . S
C1624 C825 1.637 . S
C1626 C635 1.662 . S
C1635 C863 1.633 . S
C1637 C141 1.664 . S
C1646 C901 1.636 . S
C1648 C1015 1.663 . S
C1657 C196 1.661 1_554 S
C1659 C918 1.638 . S
C1668 C1070 1.667 1_554 S
C1670 C956 1.633 . S
C1679 C576 1.660 . S
C1681 C994 1.639 . S
C1690 C1032 1.632 . S
C1692 C842 1.665 . S
C1701 C1091 1.640 . S
C1703 C65 1.661 1_556 S
C1712 C1129 1.639 . S
C1714 C939 1.662 1_556 S
C1723 C1167 1.638 . S
C1725 C445 1.662 . S
C1734 C1205 1.632 . S
C1736 C711 1.666 . S
C1745 C229 2.019 . S
C1747 C1 2.048 1_655 S
C1756 C39 2.049 1_545 S
C1758 C1179 2.018 . S
C1767 C457 2.016 . S
C1769 C77 2.047 1_645 S
C1778 C799 2.016 . S
C1780 C115 2.048 . S
C1789 C106 2.020 . S
C1791 C182 2.049 1_455 S
C1800 C220 2.049 1_565 S
C1802 C1056 2.018 . S
C1811 C334 2.019 . S
C1813 C258 2.048 1_465 S
C1822 C296 2.049 . S
C1824 C676 2.018 . S
C1833 C305 2.049 1_655 S
C1835 C533 2.018 . S
C1844 C875 2.020 . S
C1846 C343 2.050 . S
C1855 C381 2.048 1_655 S
C1857 C153 2.018 . S
C1866 C1103 2.017 . S
C1868 C419 2.048 . S
C1877 C486 2.050 1_455 S
C1879 C410 2.019 . S
C1888 C752 2.021 . S
C1890 C524 2.050 . S
C1899 C562 2.048 1_455 S
C1901 C30 2.018 . S
C1910 C980 2.020 . S
C1912 C600 2.049 . S
C1921 C609 2.050 . S
C1923 C837 2.020 . S
C1932 C647 2.050 1_545 S
C1934 C571 2.019 . S
C1943 C1065 2.017 . S
C1945 C685 2.048 1_545 S
C1954 C723 2.048 . S
C1956 C191 2.017 . S
C1965 C714 2.021 . S
C1967 C790 2.050 . S
C1976 C828 2.049 1_565 S
C1978 C448 2.019 . S
C1987 C942 2.019 . S
C1989 C866 2.048 1_565 S
C1998 C904 2.048 . S
C2000 C68 2.016 . S
C2009 C1141 2.015 . S
C2011 C913 2.047 . S
C2020 C951 2.048 . S
C2022 C267 2.017 . S
C2031 C989 2.047 . S
C2033 C761 2.016 . S
C2042 C1027 2.048 . S
C2044 C495 2.017 . S
C2053 C1018 2.015 . S
C2055 C1094 2.047 . S
C2064 C1132 2.048 . S
C2066 C144 2.016 . S
C2075 C638 2.016 . S
C2077 C1170 2.048 . S
C2086 C1208 2.050 . S
C2088 C372 2.020 . S
C2097 C122 1.649 . S
C2099 C8 1.650 . S
C2108 C84 1.662 . S
C2110 C46 1.660 . S
C2119 C181 1.660 . S
C2121 C295 1.658 . S
C2130 C257 1.651 . S
C2132 C219 1.653 . S
C2141 C426 1.656 . S
C2143 C312 1.656 . S
C2152 C350 1.662 . S
C2154 C388 1.661 . S
C2163 C599 1.662 . S
C2165 C485 1.660 . S
C2174 C561 1.653 . S
C2176 C523 1.654 . S
C2185 C616 1.662 . S
C2187 C730 1.660 . S
C2196 C692 1.654 . S
C2198 C654 1.654 . S
C2207 C789 1.662 . S
C2209 C903 1.660 . S
C2218 C865 1.660 . S
C2220 C827 1.658 . S
C2229 C1034 1.654 . S
C2231 C920 1.654 . S
C2240 C958 1.652 . S
C2242 C996 1.653 . S
C2251 C1093 1.654 . S
C2253 C1207 1.655 . S
C2262 C1131 1.657 . S
C2264 C1169 1.656 . S
C2273 C14 0.952 . S
C2275 C170 0.952 . S
C2284 C1120 0.958 . S
C2286 C52 0.947 . S
C2295 C550 0.950 . S
C2297 C90 0.952 . S
C2306 C892 0.943 . S
C2308 C128 0.958 . S
C2317 C964 0.960 . S
C2319 C208 0.945 . S
C2328 C394 0.947 . S
C2330 C246 0.955 . S
C2339 C284 0.960 . S
C2341 C736 0.945 . S
C2350 C474 0.954 . S
C2352 C318 0.949 . S
C2361 C356 0.947 . S
C2363 C816 0.954 . S
C2372 C432 0.952 . S
C2374 C1196 0.952 . S
C2383 C512 0.942 . S
C2385 C660 0.958 . S
C2394 C1040 0.959 . S
C2396 C588 0.946 . S
C2405 C778 0.959 . S
C2407 C622 0.944 . S
C2416 C1158 0.958 . S
C2418 C698 0.946 . S
C2427 C854 0.944 . S
C2429 C1002 0.956 . S
C2438 C1082 0.942 . S
C2440 C926 0.957 . S
C2449 C94 0.995 . S
C2451 C18 1.008 . S
C2460 C132 1.010 . S
C2462 C56 0.996 . S
C2471 C166 1.011 . S
C2473 C242 0.996 . S
C2482 C204 1.008 . S
C2484 C280 0.996 . S
C2493 C398 1.011 . S
C2495 C322 0.996 . S
C2504 C436 0.994 . S
C2506 C360 1.008 . S
C2515 C470 0.994 . S
C2517 C546 1.009 . S
C2526 C584 1.000 . S
C2528 C508 1.002 . S
C2537 C702 1.010 . S
C2539 C626 0.996 . S
C2548 C664 0.993 . S
C2550 C740 1.008 . S
C2559 C850 0.996 . S
C2561 C774 1.008 . S
C2570 C812 0.998 . S
C2572 C888 1.003 . S
C2581 C930 0.993 . S
C2583 C1006 1.009 . S
C2592 C968 0.993 . S
C2594 C1044 1.009 . S
C2603 C1154 0.996 . S
C2605 C1078 1.005 . S
C2614 C1192 1.007 . S
C2616 C1116 1.000 . S
