# Generated by pormake.
# Topology wjc, (7)-cn, num edge types: 1
# Building blocks:
#     Node 0, Type 0, BuildingBlock: HICVOG_clean_sbu_0, # of connection points: 7
#     Node 1, Type 0, BuildingBlock: HICVOG_clean_sbu_0, # of connection points: 7
#     Node 2, Type 0, BuildingBlock: HICVOG_clean_sbu_0, # of connection points: 7
#     Node 3, Type 0, BuildingBlock: HICVOG_clean_sbu_0, # of connection points: 7
#     Node 4, Type 0, BuildingBlock: HICVOG_clean_sbu_0, # of connection points: 7
#     Node 5, Type 0, BuildingBlock: HICVOG_clean_sbu_0, # of connection points: 7
#     Node 6, Type 0, BuildingBlock: HICVOG_clean_sbu_0, # of connection points: 7
#     Node 7, Type 0, BuildingBlock: HICVOG_clean_sbu_0, # of connection points: 7
#     Node 8, Type 0, BuildingBlock: HICVOG_clean_sbu_0, # of connection points: 7
#     Node 9, Type 0, BuildingBlock: HICVOG_clean_sbu_0, # of connection points: 7
#     Node 10, Type 0, BuildingBlock: HICVOG_clean_sbu_0, # of connection points: 7
#     Node 11, Type 0, BuildingBlock: HICVOG_clean_sbu_0, # of connection points: 7
#     Node 12, Type 0, BuildingBlock: HICVOG_clean_sbu_0, # of connection points: 7
#     Node 13, Type 0, BuildingBlock: HICVOG_clean_sbu_0, # of connection points: 7
#     Node 14, Type 0, BuildingBlock: HICVOG_clean_sbu_0, # of connection points: 7
#     Node 15, Type 0, BuildingBlock: HICVOG_clean_sbu_0, # of connection points: 7
#     Node 16, Type 0, BuildingBlock: HICVOG_clean_sbu_0, # of connection points: 7
#     Node 17, Type 0, BuildingBlock: HICVOG_clean_sbu_0, # of connection points: 7
#     Node 18, Type 0, BuildingBlock: HICVOG_clean_sbu_0, # of connection points: 7
#     Node 19, Type 0, BuildingBlock: HICVOG_clean_sbu_0, # of connection points: 7
#     Node 20, Type 0, BuildingBlock: HICVOG_clean_sbu_0, # of connection points: 7
#     Node 21, Type 0, BuildingBlock: HICVOG_clean_sbu_0, # of connection points: 7
#     Node 22, Type 0, BuildingBlock: HICVOG_clean_sbu_0, # of connection points: 7
#     Node 23, Type 0, BuildingBlock: HICVOG_clean_sbu_0, # of connection points: 7
#     Edge 24, Type (0, 0), BuildingBlock: AJUNOK_clean_linker_0, # of connection points: 2
#     Edge 25, Type (0, 0), BuildingBlock: AJUNOK_clean_linker_0, # of connection points: 2
#     Edge 26, Type (0, 0), BuildingBlock: AJUNOK_clean_linker_0, # of connection points: 2
#     Edge 27, Type (0, 0), BuildingBlock: AJUNOK_clean_linker_0, # of connection points: 2
#     Edge 28, Type (0, 0), BuildingBlock: AJUNOK_clean_linker_0, # of connection points: 2
#     Edge 29, Type (0, 0), BuildingBlock: AJUNOK_clean_linker_0, # of connection points: 2
#     Edge 30, Type (0, 0), BuildingBlock: AJUNOK_clean_linker_0, # of connection points: 2
#     Edge 31, Type (0, 0), BuildingBlock: AJUNOK_clean_linker_0, # of connection points: 2
#     Edge 32, Type (0, 0), BuildingBlock: AJUNOK_clean_linker_0, # of connection points: 2
#     Edge 33, Type (0, 0), BuildingBlock: AJUNOK_clean_linker_0, # of connection points: 2
#     Edge 34, Type (0, 0), BuildingBlock: AJUNOK_clean_linker_0, # of connection points: 2
#     Edge 35, Type (0, 0), BuildingBlock: AJUNOK_clean_linker_0, # of connection points: 2
#     Edge 36, Type (0, 0), BuildingBlock: AJUNOK_clean_linker_0, # of connection points: 2
#     Edge 37, Type (0, 0), BuildingBlock: AJUNOK_clean_linker_0, # of connection points: 2
#     Edge 38, Type (0, 0), BuildingBlock: AJUNOK_clean_linker_0, # of connection points: 2
#     Edge 39, Type (0, 0), BuildingBlock: AJUNOK_clean_linker_0, # of connection points: 2
#     Edge 40, Type (0, 0), BuildingBlock: AJUNOK_clean_linker_0, # of connection points: 2
#     Edge 41, Type (0, 0), BuildingBlock: AJUNOK_clean_linker_0, # of connection points: 2
#     Edge 42, Type (0, 0), BuildingBlock: AJUNOK_clean_linker_0, # of connection points: 2
#     Edge 43, Type (0, 0), BuildingBlock: AJUNOK_clean_linker_0, # of connection points: 2
#     Edge 44, Type (0, 0), BuildingBlock: AJUNOK_clean_linker_0, # of connection points: 2
#     Edge 45, Type (0, 0), BuildingBlock: AJUNOK_clean_linker_0, # of connection points: 2
#     Edge 46, Type (0, 0), BuildingBlock: AJUNOK_clean_linker_0, # of connection points: 2
#     Edge 47, Type (0, 0), BuildingBlock: AJUNOK_clean_linker_0, # of connection points: 2
#     Edge 48, Type (0, 0), BuildingBlock: AJUNOK_clean_linker_0, # of connection points: 2
#     Edge 49, Type (0, 0), BuildingBlock: AJUNOK_clean_linker_0, # of connection points: 2
#     Edge 50, Type (0, 0), BuildingBlock: AJUNOK_clean_linker_0, # of connection points: 2
#     Edge 51, Type (0, 0), BuildingBlock: AJUNOK_clean_linker_0, # of connection points: 2
#     Edge 52, Type (0, 0), BuildingBlock: AJUNOK_clean_linker_0, # of connection points: 2
#     Edge 53, Type (0, 0), BuildingBlock: AJUNOK_clean_linker_0, # of connection points: 2
#     Edge 54, Type (0, 0), BuildingBlock: AJUNOK_clean_linker_0, # of connection points: 2
#     Edge 55, Type (0, 0), BuildingBlock: AJUNOK_clean_linker_0, # of connection points: 2
#     Edge 56, Type (0, 0), BuildingBlock: AJUNOK_clean_linker_0, # of connection points: 2
#     Edge 57, Type (0, 0), BuildingBlock: AJUNOK_clean_linker_0, # of connection points: 2
#     Edge 58, Type (0, 0), BuildingBlock: AJUNOK_clean_linker_0, # of connection points: 2
#     Edge 59, Type (0, 0), BuildingBlock: AJUNOK_clean_linker_0, # of connection points: 2
#     Edge 60, Type (0, 0), BuildingBlock: AJUNOK_clean_linker_0, # of connection points: 2
#     Edge 61, Type (0, 0), BuildingBlock: AJUNOK_clean_linker_0, # of connection points: 2
#     Edge 62, Type (0, 0), BuildingBlock: AJUNOK_clean_linker_0, # of connection points: 2
#     Edge 63, Type (0, 0), BuildingBlock: AJUNOK_clean_linker_0, # of connection points: 2
#     Edge 64, Type (0, 0), BuildingBlock: AJUNOK_clean_linker_0, # of connection points: 2
#     Edge 65, Type (0, 0), BuildingBlock: AJUNOK_clean_linker_0, # of connection points: 2
#     Edge 66, Type (0, 0), BuildingBlock: AJUNOK_clean_linker_0, # of connection points: 2
#     Edge 67, Type (0, 0), BuildingBlock: AJUNOK_clean_linker_0, # of connection points: 2
#     Edge 68, Type (0, 0), BuildingBlock: AJUNOK_clean_linker_0, # of connection points: 2
#     Edge 69, Type (0, 0), BuildingBlock: AJUNOK_clean_linker_0, # of connection points: 2
#     Edge 70, Type (0, 0), BuildingBlock: AJUNOK_clean_linker_0, # of connection points: 2
#     Edge 71, Type (0, 0), BuildingBlock: AJUNOK_clean_linker_0, # of connection points: 2
#     Edge 72, Type (0, 0), BuildingBlock: AJUNOK_clean_linker_0, # of connection points: 2
#     Edge 73, Type (0, 0), BuildingBlock: AJUNOK_clean_linker_0, # of connection points: 2
#     Edge 74, Type (0, 0), BuildingBlock: AJUNOK_clean_linker_0, # of connection points: 2
#     Edge 75, Type (0, 0), BuildingBlock: AJUNOK_clean_linker_0, # of connection points: 2
#     Edge 76, Type (0, 0), BuildingBlock: AJUNOK_clean_linker_0, # of connection points: 2
#     Edge 77, Type (0, 0), BuildingBlock: AJUNOK_clean_linker_0, # of connection points: 2
#     Edge 78, Type (0, 0), BuildingBlock: AJUNOK_clean_linker_0, # of connection points: 2
#     Edge 79, Type (0, 0), BuildingBlock: AJUNOK_clean_linker_0, # of connection points: 2
#     Edge 80, Type (0, 0), BuildingBlock: AJUNOK_clean_linker_0, # of connection points: 2
#     Edge 81, Type (0, 0), BuildingBlock: AJUNOK_clean_linker_0, # of connection points: 2
#     Edge 82, Type (0, 0), BuildingBlock: AJUNOK_clean_linker_0, # of connection points: 2
#     Edge 83, Type (0, 0), BuildingBlock: AJUNOK_clean_linker_0, # of connection points: 2
#     Edge 84, Type (0, 0), BuildingBlock: AJUNOK_clean_linker_0, # of connection points: 2
#     Edge 85, Type (0, 0), BuildingBlock: AJUNOK_clean_linker_0, # of connection points: 2
#     Edge 86, Type (0, 0), BuildingBlock: AJUNOK_clean_linker_0, # of connection points: 2
#     Edge 87, Type (0, 0), BuildingBlock: AJUNOK_clean_linker_0, # of connection points: 2
#     Edge 88, Type (0, 0), BuildingBlock: AJUNOK_clean_linker_0, # of connection points: 2
#     Edge 89, Type (0, 0), BuildingBlock: AJUNOK_clean_linker_0, # of connection points: 2
#     Edge 90, Type (0, 0), BuildingBlock: AJUNOK_clean_linker_0, # of connection points: 2
#     Edge 91, Type (0, 0), BuildingBlock: AJUNOK_clean_linker_0, # of connection points: 2
#     Edge 92, Type (0, 0), BuildingBlock: AJUNOK_clean_linker_0, # of connection points: 2
#     Edge 93, Type (0, 0), BuildingBlock: AJUNOK_clean_linker_0, # of connection points: 2
#     Edge 94, Type (0, 0), BuildingBlock: AJUNOK_clean_linker_0, # of connection points: 2
#     Edge 95, Type (0, 0), BuildingBlock: AJUNOK_clean_linker_0, # of connection points: 2
#     Edge 96, Type (0, 0), BuildingBlock: AJUNOK_clean_linker_0, # of connection points: 2
#     Edge 97, Type (0, 0), BuildingBlock: AJUNOK_clean_linker_0, # of connection points: 2
#     Edge 98, Type (0, 0), BuildingBlock: AJUNOK_clean_linker_0, # of connection points: 2
#     Edge 99, Type (0, 0), BuildingBlock: AJUNOK_clean_linker_0, # of connection points: 2
#     Edge 100, Type (0, 0), BuildingBlock: AJUNOK_clean_linker_0, # of connection points: 2
#     Edge 101, Type (0, 0), BuildingBlock: AJUNOK_clean_linker_0, # of connection points: 2
#     Edge 102, Type (0, 0), BuildingBlock: AJUNOK_clean_linker_0, # of connection points: 2
#     Edge 103, Type (0, 0), BuildingBlock: AJUNOK_clean_linker_0, # of connection points: 2
#     Edge 104, Type (0, 0), BuildingBlock: AJUNOK_clean_linker_0, # of connection points: 2
#     Edge 105, Type (0, 0), BuildingBlock: AJUNOK_clean_linker_0, # of connection points: 2
#     Edge 106, Type (0, 0), BuildingBlock: AJUNOK_clean_linker_0, # of connection points: 2
#     Edge 107, Type (0, 0), BuildingBlock: AJUNOK_clean_linker_0, # of connection points: 2
# Relax obj value: 0.237
# Max RMSD: 0.227
# Mean RMSD: 0.227
data_MOF--net-wjc--node1-HICVOG_clean_sbu_0--edge1-AJUNOK_clean_linker_0
_symmetry_space_group_name_H-M    P1
_symmetry_Int_Tables_number       1
_symmetry_cell_setting            triclinic
loop_
_symmetry_equiv_pos_as_xyz
'x, y, z'
_cell_length_a     31.171181
_cell_length_b     31.164881
_cell_length_c     64.237707
_cell_angle_alpha  90.144193
_cell_angle_beta   89.811294
_cell_angle_gamma 120.18113
loop_
_atom_site_label
_atom_site_type_symbol
_atom_site_fract_x
_atom_site_fract_y
_atom_site_fract_z
_atom_type_partial_charge
Zn0 Zn 0.39717 0.08232 0.12006 0.0
C1 C 0.53286 0.15235 0.13803 0.0
N2 N 0.53641 0.11999 0.12558 0.0
C3 C 0.4895 0.08286 0.12405 0.0
N4 N 0.45786 0.09336 0.13464 0.0
N5 N 0.48605 0.13627 0.14429 0.0
C6 C 0.53569 0.26728 0.15624 0.0
O7 O 0.51114 0.25118 0.13868 0.0
O8 O 0.34284 1.00857 0.12206 0.0
Zn9 Zn 0.46583 0.16912 0.16457 0.0
N10 N 0.41938 0.10584 0.09175 0.0
C11 C 0.46804 0.18319 0.07446 0.0
C12 C 0.44972 0.15593 0.09264 0.0
C13 C 0.40741 0.08131 0.07309 0.0
N14 N 0.45558 0.1593 0.05593 0.0
C15 C 0.42592 0.10917 0.05456 0.0
O16 O 0.41336 0.18172 0.15383 0.0
C17 C 0.37875 0.1655 0.1405 0.0
O18 O 0.36966 0.12911 0.12844 0.0
H19 H 0.45894 0.17471 0.10752 0.0
H20 H 0.38344 0.04143 0.07261 0.0
C21 C 0.44035 0.1592 0.20704 0.0
C22 C 0.42166 0.13517 0.22623 0.0
C23 C 0.4096 0.06017 0.211 0.0
C24 C 0.42767 0.08425 0.19199 0.0
N25 N 0.44261 0.13322 0.19043 0.0
N26 N 0.40687 0.086 0.22755 0.0
H27 H 0.45338 0.19832 0.20513 0.0
C28 C 0.30339 0.98437 0.11127 0.0
O29 O 0.29434 1.00726 0.09626 0.0
O30 O 0.52347 0.23714 0.17131 0.0
H31 H 0.42954 0.06415 0.1786 0.0
H32 H 0.49181 0.22309 0.07504 0.0
H33 H 0.3975 0.02115 0.21258 0.0
Zn34 Zn 0.28251 0.44705 0.16626 0.0
C35 C 0.41792 0.49194 0.14325 0.0
N36 N 0.42738 0.5287 0.15666 0.0
C37 C 0.38285 0.51985 0.16262 0.0
N38 N 0.34725 0.47719 0.1542 0.0
N39 N 0.36808 0.45945 0.14127 0.0
C40 C 0.31516 0.3119 0.134 0.0
O41 O 0.2896 0.31685 0.14916 0.0
O42 O 0.26756 0.50029 0.17511 0.0
Zn43 Zn 0.32928 0.40959 0.11859 0.0
N44 N 0.27937 0.41093 0.19114 0.0
C45 C 0.30264 0.36155 0.21092 0.0
C46 C 0.30441 0.38584 0.19245 0.0
C47 C 0.253 0.41322 0.20759 0.0
N48 N 0.2761 0.36362 0.22734 0.0
C49 C 0.25073 0.3886 0.22623 0.0
O50 O 0.25352 0.38632 0.11713 0.0
C51 C 0.21947 0.38492 0.12881 0.0
O52 O 0.22934 0.4048 0.1467 0.0
H53 H 0.32609 0.38537 0.17937 0.0
H54 H 0.23523 0.43524 0.20624 0.0
C55 C 0.3482 0.41943 0.07317 0.0
C56 C 0.37045 0.44699 0.05485 0.0
C57 C 0.41235 0.52033 0.07515 0.0
C58 C 0.38855 0.49354 0.09292 0.0
N59 N 0.35825 0.44342 0.09192 0.0
N60 N 0.40255 0.49662 0.05661 0.0
H61 H 0.32283 0.37979 0.07251 0.0
C62 C 0.25381 0.51826 0.16067 0.0
O63 O 0.25118 0.50196 0.14158 0.0
O64 O 0.33375 0.34529 0.11995 0.0
H65 H 0.39412 0.51314 0.10736 0.0
H66 H 0.32251 0.34151 0.21227 0.0
H67 H 0.4373 0.56003 0.07596 0.0
Zn68 Zn 0.91427 0.30364 0.11218 0.0
C69 C 0.84203 0.36773 0.12152 0.0
N70 N 0.87168 0.39574 0.10611 0.0
C71 C 0.91354 0.39444 0.10903 0.0
N72 N 0.90533 0.35829 0.12305 0.0
N73 N 0.86253 0.34567 0.13232 0.0
C74 C 0.73456 0.27097 0.14447 0.0
O75 O 0.75256 0.26283 0.12735 0.0
O76 O 0.98708 0.32207 0.1148 0.0
Zn77 Zn 0.83124 0.30025 0.15571 0.0
N78 N 0.89064 0.29267 0.08349 0.0
C79 C 0.81575 0.2469 0.06428 0.0
C80 C 0.84049 0.26256 0.08313 0.0
C81 C 0.91719 0.30974 0.06542 0.0
N82 N 0.84196 0.26278 0.04635 0.0
C83 C 0.892 0.29387 0.0462 0.0
O84 O 0.81898 0.23309 0.1494 0.0
C85 C 0.83403 0.21024 0.13791 0.0
O86 O 0.8689 0.23307 0.12465 0.0
H87 H 0.81974 0.25044 0.09752 0.0
H88 H 0.95694 0.33453 0.06597 0.0
C89 C 0.84041 0.29286 0.19884 0.0
C90 C 0.86383 0.30157 0.21841 0.0
C91 C 0.93753 0.3667 0.20296 0.0
C92 C 0.91415 0.35707 0.18363 0.0
N93 N 0.86616 0.32029 0.18199 0.0
N94 N 0.91209 0.33873 0.21971 0.0
H95 H 0.80207 0.26455 0.1967 0.0
C96 C 1.01253 0.30861 0.10385 0.0
O97 O 0.99141 0.27833 0.08808 0.0
O98 O 0.76232 0.2882 0.1603 0.0
H99 H 0.9341 0.37821 0.17004 0.0
H100 H 0.77594 0.22248 0.06386 0.0
H101 H 0.97582 0.3958 0.20461 0.0
Zn102 Zn 0.52817 0.82124 0.16402 0.0
C103 C 0.50884 0.90918 0.12295 0.0
N104 N 0.46304 0.86966 0.1219 0.0
C105 C 0.46499 0.83693 0.13462 0.0
N106 N 0.50986 0.85504 0.14342 0.0
N107 N 0.53886 0.89937 0.135 0.0
C108 C 0.68532 1.00012 0.13762 0.0
O109 O 0.67698 0.97107 0.15375 0.0
O110 O 0.47039 0.75346 0.17102 0.0
Zn111 Zn 0.60062 0.91 0.12144 0.0
N112 N 0.5515 0.85693 0.19005 0.0
C113 C 0.58421 0.92939 0.21111 0.0
C114 C 0.56686 0.90597 0.1919 0.0
C115 C 0.5528 0.83032 0.20656 0.0
N116 N 0.58619 0.90297 0.22753 0.0
C117 C 0.57144 0.85387 0.22584 0.0
O118 O 0.62758 0.86385 0.13012 0.0
C119 C 0.61644 0.82512 0.14086 0.0
O120 O 0.57959 0.80683 0.1532 0.0
H121 H 0.56565 0.9266 0.17862 0.0
H122 H 0.53897 0.79106 0.20456 0.0
C123 C 0.59655 0.91381 0.07509 0.0
C124 C 0.58163 0.88856 0.05588 0.0
C125 C 0.53635 0.81195 0.07378 0.0
C126 C 0.55119 0.83676 0.09269 0.0
N127 N 0.58126 0.88691 0.09308 0.0
N128 N 0.55198 0.83831 0.05588 0.0
H129 H 0.62051 0.9537 0.07569 0.0
C130 C 0.45525 0.72158 0.15648 0.0
O131 O 0.47628 0.73521 0.13806 0.0
O132 O 0.65689 0.98263 0.12187 0.0
H133 H 0.53953 0.8161 0.1071 0.0
H134 H 0.59642 0.96839 0.21291 0.0
H135 H 0.51274 0.77202 0.07329 0.0
Zn136 Zn 0.68329 0.59171 0.12161 0.0
C137 C 0.62705 0.47367 0.16198 0.0
N138 N 0.58383 0.47005 0.15722 0.0
C139 C 0.59616 0.50861 0.14453 0.0
N140 N 0.6461 0.53731 0.14215 0.0
N141 N 0.66483 0.51537 0.15367 0.0
C142 C 0.74326 0.47014 0.14702 0.0
O143 O 0.73406 0.49285 0.13201 0.0
O144 O 0.67206 0.64967 0.12893 0.0
Zn145 Zn 0.73066 0.54107 0.164 0.0
N146 N 0.65366 0.56454 0.09427 0.0
C147 C 0.59781 0.49217 0.07511 0.0
C148 C 0.62281 0.51453 0.09337 0.0
C149 C 0.66357 0.59278 0.07676 0.0
N150 N 0.60726 0.52016 0.05782 0.0
C151 C 0.64 0.56984 0.05788 0.0
O152 O 0.78335 0.58829 0.14504 0.0
C153 C 0.79313 0.61454 0.12881 0.0
O154 O 0.7595 0.61776 0.11873 0.0
H155 H 0.61749 0.49176 0.10668 0.0
H156 H 0.69004 0.63215 0.0774 0.0
C157 C 0.75973 0.56909 0.20725 0.0
C158 C 0.7652 0.59753 0.22515 0.0
C159 C 0.72291 0.633 0.20817 0.0
C160 C 0.71782 0.60507 0.19044 0.0
N161 N 0.73648 0.57393 0.19026 0.0
N162 N 0.7468 0.62895 0.225 0.0
H163 H 0.77506 0.54472 0.20658 0.0
C164 C 0.69458 0.69328 0.12121 0.0
O165 O 0.73004 0.70447 0.10751 0.0
O166 O 0.74382 0.48437 0.16564 0.0
H167 H 0.69982 0.60868 0.17673 0.0
H168 H 0.57228 0.45257 0.0745 0.0
H169 H 0.70857 0.65821 0.20849 0.0
Zn170 Zn 0.17368 0.70392 0.16604 0.0
C171 C 0.07531 0.57415 0.13881 0.0
N172 N 0.09607 0.55773 0.15247 0.0
C173 C 0.13156 0.59923 0.16128 0.0
N174 N 0.13109 0.63946 0.15386 0.0
N175 N 0.09638 0.62437 0.13922 0.0
C176 C 1.00189 0.68343 0.11655 0.0
O177 O 0.03526 0.73092 0.11598 0.0
O178 O 0.24235 0.71508 0.1673 0.0
Zn179 Zn 0.08855 0.66636 0.11788 0.0
N180 N 0.15394 0.70638 0.19457 0.0
C181 C 0.09334 0.67114 0.22139 0.0
C182 C 0.10715 0.67261 0.20065 0.0
C183 C 0.18767 0.73916 0.20843 0.0
N184 N 0.12713 0.70304 0.23528 0.0
C185 C 0.17443 0.73714 0.22963 0.0
O186 O 0.13766 0.74273 0.12012 0.0
C187 C 0.17 0.77462 0.13259 0.0
O188 O 0.18144 0.76121 0.14934 0.0
H189 H 0.08096 0.64672 0.18949 0.0
H190 H 0.22398 0.76632 0.20277 0.0
C191 C 0.08515 0.65489 0.07235 0.0
C192 C 0.09366 0.63671 0.05353 0.0
C193 C 0.13282 0.60074 0.0726 0.0
C194 C 0.12565 0.61994 0.091 0.0
N195 N 0.10074 0.64536 0.09073 0.0
N196 N 0.11696 0.60972 0.05439 0.0
H197 H 0.06663 0.67638 0.07238 0.0
C198 C 0.26263 0.72081 0.14961 0.0
O199 O 0.23701 0.71761 0.13288 0.0
O200 O 0.0163 0.65174 0.11779 0.0
H201 H 0.13976 0.6143 0.10542 0.0
H202 H 0.0562 0.64446 0.22648 0.0
H203 H 0.15171 0.57961 0.07272 0.0
Zn204 Zn 0.9174 0.60099 0.41004 0.0
C205 C 0.8674 0.48477 0.36881 0.0
N206 N 0.90164 0.4767 0.3771 0.0
C207 C 0.92623 0.5147 0.39031 0.0
N208 N 0.90805 0.54676 0.38997 0.0
N209 N 0.87098 0.52671 0.37625 0.0
C210 C 0.73269 0.47328 0.36698 0.0
O211 O 0.74463 0.48449 0.38665 0.0
O212 O 0.9881 0.66342 0.40853 0.0
Zn213 Zn 0.83418 0.55185 0.36189 0.0
N214 N 0.90647 0.56986 0.43755 0.0
C215 C 0.86425 0.49168 0.45479 0.0
C216 C 0.87399 0.52012 0.43692 0.0
C217 C 0.92814 0.5929 0.45591 0.0
N218 N 0.88619 0.51419 0.47288 0.0
C219 C 0.91759 0.56405 0.47417 0.0
O220 O 0.82284 0.59899 0.37825 0.0
C221 C 0.83394 0.62455 0.3948 0.0
O222 O 0.8664 0.62651 0.40757 0.0
H223 H 0.85573 0.50237 0.42256 0.0
H224 H 0.95328 0.63262 0.45626 0.0
C225 C 0.84367 0.57885 0.31901 0.0
C226 C 0.86932 0.60164 0.30059 0.0
C227 C 0.94563 0.63327 0.31867 0.0
C228 C 0.91999 0.60997 0.33685 0.0
N229 N 0.8696 0.58373 0.33671 0.0
N230 N 0.91979 0.6288 0.30102 0.0
H231 H 0.80353 0.55813 0.31943 0.0
C232 C 1.00436 0.6943 0.39346 0.0
O233 O 0.97439 0.68767 0.37791 0.0
O234 O 0.76566 0.49637 0.35318 0.0
H235 H 0.93997 0.61267 0.35097 0.0
H236 H 0.83907 0.45199 0.45434 0.0
H237 H 0.98575 0.65472 0.31857 0.0
Zn238 Zn 0.30055 0.83088 0.3615 0.0
C239 C 0.40921 0.91432 0.40301 0.0
N240 N 0.41042 0.8721 0.4051 0.0
C241 C 0.37494 0.84048 0.39225 0.0
N242 N 0.35127 0.86139 0.38306 0.0
N243 N 0.3691 0.90613 0.39144 0.0
C244 C 0.3102 1.006 0.40086 0.0
O245 O 0.26674 0.9738 0.39313 0.0
O246 O 0.28727 0.76218 0.35486 0.0
Zn247 Zn 0.31882 0.91614 0.40645 0.0
N248 N 0.31866 0.86464 0.33489 0.0
C249 C 0.37473 0.92715 0.31163 0.0
C250 C 0.3614 0.90834 0.33183 0.0
C251 C 0.2885 0.83917 0.31864 0.0
N252 N 0.34514 0.90114 0.29534 0.0
C253 C 0.30205 0.85744 0.29826 0.0
O254 O 0.24479 0.87029 0.39746 0.0
C255 C 0.21678 0.8356 0.38484 0.0
O256 O 0.23463 0.81986 0.37097 0.0
H257 H 0.3854 0.92771 0.34484 0.0
H258 H 0.25529 0.80383 0.32153 0.0
C259 C 0.3292 0.91661 0.45272 0.0
C260 C 0.31799 0.8901 0.47164 0.0
C261 C 0.2816 0.81429 0.4528 0.0
C262 C 0.29242 0.84035 0.4342 0.0
N263 N 0.31534 0.89074 0.43441 0.0
N264 N 0.29443 0.83965 0.471 0.0
H265 H 0.34738 0.95672 0.45259 0.0
C266 C 0.26911 0.72916 0.36886 0.0
O267 O 0.26198 0.74139 0.38762 0.0
O268 O 0.3383 0.99022 0.40752 0.0
H269 H 0.28164 0.82049 0.41957 0.0
H270 H 0.40881 0.96174 0.30887 0.0
H271 H 0.2629 0.77417 0.4528 0.0
Zn272 Zn 0.46154 0.28536 0.35745 0.0
C273 C 0.49927 0.41792 0.38275 0.0
N274 N 0.53439 0.43183 0.36804 0.0
C275 C 0.52812 0.38935 0.36041 0.0
N276 N 0.48754 0.35057 0.36897 0.0
N277 N 0.46939 0.36778 0.38346 0.0
C278 C 0.32185 0.32523 0.41514 0.0
O279 O 0.31358 0.29209 0.42954 0.0
O280 O 0.51777 0.2749 0.34979 0.0
Zn281 Zn 0.42018 0.32876 0.40569 0.0
N282 N 0.42549 0.2776 0.33199 0.0
C283 C 0.36721 0.28739 0.31184 0.0
C284 C 0.39399 0.29553 0.33022 0.0
C285 C 0.43131 0.25178 0.31619 0.0
N286 N 0.37258 0.2611 0.29614 0.0
C287 C 0.40362 0.24236 0.29779 0.0
O288 O 0.39198 0.25178 0.4052 0.0
C289 C 0.39343 0.21924 0.39346 0.0
O290 O 0.41754 0.23071 0.37649 0.0
H291 H 0.38968 0.31576 0.34299 0.0
H292 H 0.45773 0.23928 0.31798 0.0
C293 C 0.4362 0.35276 0.45072 0.0
C294 C 0.46712 0.37301 0.46833 0.0
C295 C 0.53754 0.39502 0.44699 0.0
C296 C 0.50688 0.37366 0.42988 0.0
N297 N 0.45697 0.35403 0.4318 0.0
N298 N 0.51703 0.39386 0.46572 0.0
H299 H 0.39639 0.33598 0.45209 0.0
C300 C 0.53893 0.26621 0.36461 0.0
O301 O 0.52319 0.26514 0.38371 0.0
O302 O 0.36169 0.34286 0.4043 0.0
H303 H 0.52306 0.37297 0.4151 0.0
H304 H 0.34209 0.30158 0.31009 0.0
H305 H 0.57733 0.41148 0.4455 0.0
Zn306 Zn 0.17911 0.45962 0.36011 0.0
C307 C 0.08478 0.49729 0.38589 0.0
N308 N 0.1078 0.5335 0.37176 0.0
C309 C 0.14367 0.52657 0.36421 0.0
N310 N 0.14095 0.48572 0.37251 0.0
N311 N 0.10456 0.46693 0.38657 0.0
C312 C 1.00669 0.3203 0.39559 0.0
O313 O 0.03763 0.31916 0.38197 0.0
O314 O 0.24772 0.51449 0.35141 0.0
Zn315 Zn 0.09534 0.41702 0.40838 0.0
N316 N 0.14495 0.42097 0.3358 0.0
C317 C 0.06934 0.36551 0.31879 0.0
C318 C 0.09466 0.39313 0.33626 0.0
C319 C 0.17116 0.42241 0.31856 0.0
N320 N 0.0954 0.36688 0.30157 0.0
C321 C 0.14587 0.3946 0.30083 0.0
O322 O 0.14737 0.3918 0.40842 0.0
C323 C 0.18203 0.39522 0.39645 0.0
O324 O 0.19185 0.41874 0.37945 0.0
H325 H 0.07449 0.39264 0.35008 0.0
H326 H 0.21115 0.44559 0.31864 0.0
C327 C 0.08765 0.42825 0.45335 0.0
C328 C 0.09453 0.45631 0.47159 0.0
C329 C 0.13463 0.53026 0.4516 0.0
C330 C 0.12952 0.50261 0.43382 0.0
N331 N 0.10472 0.45213 0.43477 0.0
N332 N 0.11743 0.5066 0.47001 0.0
H333 H 0.06957 0.38817 0.45393 0.0
C334 C 0.27827 0.53445 0.36628 0.0
O335 O 0.26225 0.52058 0.38541 0.0
O336 O 0.02287 0.35721 0.40802 0.0
H337 H 0.14529 0.5216 0.41936 0.0
H338 H 0.02927 0.34318 0.31888 0.0
H339 H 0.1533 0.57034 0.45089 0.0
Zn340 Zn 0.68563 0.09463 0.39977 0.0
C341 C 0.62136 0.14602 0.35903 0.0
N342 N 0.57891 0.10845 0.36629 0.0
C343 C 0.5937 0.0834 0.37836 0.0
N344 N 0.64412 0.10464 0.37869 0.0
N345 N 0.66065 0.14299 0.36572 0.0
C346 C 0.74943 0.28331 0.36373 0.0
O347 O 0.75548 0.26785 0.3819 0.0
O348 O 0.66787 0.02134 0.39929 0.0
Zn349 Zn 0.72527 0.18542 0.35337 0.0
N350 N 0.66475 0.10535 0.42717 0.0
C351 C 0.6182 0.13399 0.44615 0.0
C352 C 0.63669 0.12746 0.42743 0.0
C353 C 0.67718 0.09156 0.44532 0.0
N354 N 0.63028 0.12014 0.46414 0.0
C355 C 0.65983 0.09961 0.46444 0.0
O356 O 0.78163 0.19409 0.37077 0.0
C357 C 0.79476 0.17966 0.38671 0.0
O358 O 0.76316 0.14408 0.39822 0.0
H359 H 0.62841 0.1398 0.4132 0.0
H360 H 0.70033 0.07483 0.44485 0.0
C361 C 0.75533 0.19367 0.31058 0.0
C362 C 0.76163 0.17636 0.29114 0.0
C363 C 0.71697 0.09375 0.30418 0.0
C364 C 0.71172 0.11131 0.32346 0.0
N365 N 0.73091 0.1608 0.32628 0.0
N366 N 0.74166 0.12647 0.28859 0.0
H367 H 0.76894 0.23267 0.31324 0.0
C368 C 0.69464 1.00325 0.40513 0.0
O369 O 0.74049 0.03347 0.4111 0.0
O370 O 0.73551 0.25374 0.34839 0.0
H371 H 0.69263 0.08581 0.33611 0.0
H372 H 0.59511 0.15078 0.44643 0.0
H373 H 0.70174 0.0544 0.30164 0.0
Zn374 Zn 0.54496 0.72137 0.36191 0.0
C375 C 0.51994 0.59076 0.38548 0.0
N376 N 0.48255 0.57509 0.37182 0.0
C377 C 0.4856 0.61661 0.36479 0.0
N378 N 0.52537 0.65669 0.37302 0.0
N379 N 0.54727 0.64133 0.38649 0.0
C380 C 0.69673 0.69974 0.39935 0.0
O381 O 0.69917 0.73355 0.38645 0.0
O382 O 0.48515 0.729 0.35841 0.0
Zn383 Zn 0.59562 0.68366 0.40879 0.0
N384 N 0.57801 0.73006 0.33532 0.0
C385 C 0.63935 0.72315 0.31598 0.0
C386 C 0.61325 0.71671 0.33442 0.0
C387 C 0.56764 0.74974 0.31843 0.0
N388 N 0.62932 0.74294 0.29919 0.0
C389 C 0.5941 0.75661 0.29967 0.0
O390 O 0.62054 0.75983 0.40803 0.0
C391 C 0.61544 0.79057 0.39664 0.0
O392 O 0.58894 0.77693 0.38039 0.0
H393 H 0.62108 0.70139 0.34802 0.0
H394 H 0.53899 0.7595 0.31968 0.0
C395 C 0.58151 0.66542 0.45379 0.0
C396 C 0.55206 0.64569 0.47186 0.0
C397 C 0.47957 0.61356 0.45098 0.0
C398 C 0.50869 0.63403 0.43334 0.0
N399 N 0.55901 0.65882 0.4349 0.0
N400 N 0.50181 0.62011 0.46972 0.0
H401 H 0.62161 0.68583 0.45467 0.0
C402 C 0.46658 0.73101 0.37574 0.0
O403 O 0.48668 0.72648 0.39294 0.0
O404 O 0.65758 0.67553 0.41033 0.0
H405 H 0.49106 0.6301 0.41849 0.0
H406 H 0.6676 0.71275 0.31502 0.0
H407 H 0.43951 0.59332 0.44986 0.0
Zn408 Zn 0.60742 0.93233 0.90791 0.0
C409 C 0.50046 0.8884 0.86256 0.0
N410 N 0.49474 0.925 0.87009 0.0
C411 C 0.53034 0.94667 0.88454 0.0
N412 N 0.55969 0.92583 0.88536 0.0
N413 N 0.54122 0.89056 0.87081 0.0
C414 C 0.48771 0.75603 0.86854 0.0
O415 O 0.50429 0.77552 0.887 0.0
O416 O 0.67013 1.00281 0.90864 0.0
Zn417 Zn 0.56502 0.84961 0.85916 0.0
N418 N 0.57138 0.92201 0.93418 0.0
C419 C 0.49298 0.8926 0.95071 0.0
C420 C 0.52107 0.89934 0.93289 0.0
C421 C 0.59453 0.93519 0.95305 0.0
N422 N 0.51588 0.90586 0.96942 0.0
C423 C 0.56586 0.92623 0.97129 0.0
O424 O 0.60545 0.83616 0.87858 0.0
C425 C 0.62769 0.84546 0.89589 0.0
O426 O 0.63024 0.87953 0.90788 0.0
H427 H 0.50256 0.88634 0.91815 0.0
H428 H 0.63443 0.95167 0.95385 0.0
C429 C 0.59468 0.84363 0.81784 0.0
C430 C 0.62188 0.86118 0.7992 0.0
C431 C 0.65927 0.94342 0.81262 0.0
C432 C 0.6329 0.92556 0.8312 0.0
N433 N 0.60117 0.8761 0.83342 0.0
N434 N 0.6532 0.911 0.79715 0.0
H435 H 0.56803 0.80472 0.81998 0.0
C436 C 0.70593 0.01885 0.89565 0.0
O437 O 0.70413 0.98869 0.8809 0.0
O438 O 0.50758 0.78246 0.85257 0.0
H439 H 0.63757 0.95076 0.84375 0.0
H440 H 0.45307 0.87567 0.94975 0.0
H441 H 0.68457 0.98275 0.81053 0.0
Zn442 Zn 0.71523 0.54211 0.86623 0.0
C443 C 0.60775 0.51701 0.90843 0.0
N444 N 0.6035 0.47202 0.90911 0.0
C445 C 0.63827 0.47575 0.89586 0.0
N446 N 0.66365 0.52116 0.88734 0.0
N447 N 0.64729 0.54853 0.8964 0.0
C448 C 0.69495 0.70568 0.91714 0.0
O449 O 0.7302 0.71596 0.93075 0.0
O450 O 0.72652 0.48629 0.85809 0.0
Zn451 Zn 0.69726 0.61223 0.90909 0.0
N452 N 0.70094 0.56359 0.84029 0.0
C453 C 0.65099 0.57982 0.81739 0.0
C454 C 0.66094 0.56925 0.83735 0.0
C455 C 0.73165 0.56855 0.82421 0.0
N456 N 0.68102 0.58357 0.80122 0.0
C457 C 0.72144 0.57834 0.80408 0.0
O458 O 0.77098 0.64097 0.90022 0.0
C459 C 0.79896 0.63045 0.88938 0.0
O460 O 0.78073 0.59394 0.87689 0.0
H461 H 0.63655 0.56458 0.85024 0.0
H462 H 0.76259 0.56273 0.82699 0.0
C463 C 0.68919 0.61028 0.95544 0.0
C464 C 0.70124 0.59801 0.97481 0.0
C465 C 0.73862 0.55771 0.95748 0.0
C466 C 0.72641 0.56947 0.9384 0.0
N467 N 0.70268 0.596 0.93766 0.0
N468 N 0.72585 0.57226 0.97517 0.0
H469 H 0.67029 0.63133 0.95455 0.0
C470 C 0.74371 0.4694 0.87158 0.0
O471 O 0.75121 0.48729 0.89061 0.0
O472 O 0.67664 0.66504 0.90693 0.0
H473 H 0.7366 0.55828 0.92414 0.0
H474 H 0.61912 0.58414 0.8147 0.0
H475 H 0.75802 0.53713 0.95825 0.0
Zn476 Zn 0.10386 0.70611 0.90387 0.0
C477 C 0.18264 0.65005 0.89318 0.0
N478 N 0.15046 0.61471 0.90598 0.0
C479 C 0.10821 0.61559 0.90333 0.0
N480 N 0.11682 0.65529 0.89131 0.0
N481 N 0.1621 0.67338 0.8835 0.0
C482 C 0.29547 0.75686 0.86887 0.0
O483 O 0.28183 0.76264 0.88756 0.0
O484 O 0.03101 0.68723 0.89987 0.0
Zn485 Zn 0.1925 0.72127 0.86096 0.0
N486 N 0.1241 0.71194 0.93306 0.0
C487 C 0.1978 0.75481 0.95328 0.0
C488 C 0.17423 0.74185 0.93412 0.0
C489 C 0.09641 0.69236 0.95074 0.0
N490 N 0.17056 0.73629 0.97082 0.0
C491 C 0.12059 0.7051 0.9703 0.0
O492 O 0.20168 0.78676 0.86857 0.0
C493 C 0.18501 0.80609 0.88124 0.0
O494 O 0.14992 0.77961 0.89398 0.0
H495 H 0.1959 0.75597 0.92003 0.0
H496 H 0.05666 0.66796 0.94965 0.0
C497 C 0.18235 0.72916 0.81824 0.0
C498 C 0.16355 0.71425 0.79806 0.0
C499 C 0.09512 0.64161 0.81216 0.0
C500 C 0.1143 0.65651 0.83222 0.0
N501 N 0.15774 0.69982 0.83478 0.0
N502 N 0.12032 0.67049 0.79556 0.0
H503 H 0.21738 0.76297 0.82078 0.0
C504 C 1.00935 0.70822 0.90845 0.0
O505 O 0.03446 0.74482 0.92157 0.0
O506 O 0.26286 0.73735 0.85474 0.0
H507 H 0.09552 0.63324 0.84551 0.0
H508 H 0.23757 0.77916 0.95423 0.0
H509 H 0.06086 0.60698 0.80978 0.0
Zn510 Zn 0.42182 0.10138 0.90543 0.0
C511 C 0.53094 0.14351 0.86075 0.0
N512 N 0.53404 0.10572 0.86864 0.0
C513 C 0.49875 0.08708 0.8834 0.0
N514 N 0.47188 0.11036 0.88388 0.0
N515 N 0.49215 0.14517 0.86925 0.0
C516 C 0.55172 0.27588 0.87523 0.0
O517 O 0.53002 0.24792 0.89158 0.0
O518 O 0.36095 0.03061 0.90352 0.0
Zn519 Zn 0.47425 0.19144 0.85883 0.0
N520 N 0.45419 0.10903 0.93239 0.0
C521 C 0.53136 0.14029 0.95002 0.0
C522 C 0.50465 0.13557 0.93203 0.0
C523 C 0.42916 0.08977 0.95063 0.0
N524 N 0.50664 0.12054 0.96804 0.0
C525 C 0.4562 0.09578 0.96907 0.0
O526 O 0.42927 0.20133 0.87746 0.0
C527 C 0.40285 0.18848 0.8938 0.0
O528 O 0.39749 0.15251 0.90517 0.0
H529 H 0.52422 0.15264 0.91779 0.0
H530 H 0.389 0.07032 0.95081 0.0
C531 C 0.4593 0.20622 0.81581 0.0
C532 C 0.43664 0.19153 0.7961 0.0
C533 C 0.38921 0.10861 0.80855 0.0
C534 C 0.41114 0.12363 0.82807 0.0
N535 N 0.44553 0.17202 0.83134 0.0
N536 N 0.40234 0.14273 0.79313 0.0
H537 H 0.48806 0.24402 0.81884 0.0
C538 C 0.33137 0.01651 0.88805 0.0
O539 O 0.33963 0.04848 0.87312 0.0
O540 O 0.53469 0.25866 0.85732 0.0
H541 H 0.40106 0.09702 0.84054 0.0
H542 H 0.57151 0.16031 0.94975 0.0
H543 H 0.36183 0.07016 0.80566 0.0
Zn544 Zn 0.31154 0.48818 0.85869 0.0
C545 C 0.4243 0.51224 0.89751 0.0
N546 N 0.44209 0.55827 0.89023 0.0
C547 C 0.40606 0.55377 0.87773 0.0
N548 N 0.36753 0.50698 0.87705 0.0
N549 N 0.37802 0.48033 0.89001 0.0
C550 C 0.32533 0.32137 0.90899 0.0
O551 O 0.27969 0.30421 0.91566 0.0
O552 O 0.29867 0.54435 0.85767 0.0
Zn553 Zn 0.32801 0.41786 0.90389 0.0
N554 N 0.32428 0.47723 0.83024 0.0
C555 C 0.37196 0.46494 0.80448 0.0
C556 C 0.36275 0.47028 0.82533 0.0
C557 C 0.29438 0.47879 0.8152 0.0
N558 N 0.34224 0.46666 0.78945 0.0
C559 C 0.30316 0.47304 0.79416 0.0
O560 O 0.25432 0.38763 0.89412 0.0
C561 C 0.22815 0.39586 0.88119 0.0
O562 O 0.24766 0.43144 0.86833 0.0
H563 H 0.38635 0.46957 0.83747 0.0
H564 H 0.26495 0.4858 0.81966 0.0
C565 C 0.33423 0.4208 0.95051 0.0
C566 C 0.32026 0.43248 0.96971 0.0
C567 C 0.28492 0.47358 0.95166 0.0
C568 C 0.29816 0.46161 0.93281 0.0
N569 N 0.32213 0.43533 0.93245 0.0
N570 N 0.29605 0.45862 0.96958 0.0
H571 H 0.35283 0.39939 0.94994 0.0
C572 C 0.29051 0.55735 0.87523 0.0
O573 O 0.29207 0.53415 0.89198 0.0
O574 O 0.35071 0.36665 0.90333 0.0
H575 H 0.28815 0.4719 0.91838 0.0
H576 H 0.40267 0.45976 0.80025 0.0
H577 H 0.26544 0.49412 0.95208 0.0
Zn578 Zn 0.9313 0.34044 0.89855 0.0
C579 C 0.87425 0.4005 0.85868 0.0
N580 N 0.91156 0.44395 0.86526 0.0
C581 C 0.9392 0.43133 0.87683 0.0
N582 N 0.91975 0.38104 0.8774 0.0
N583 N 0.88009 0.36271 0.86511 0.0
C584 C 0.73837 0.2649 0.86143 0.0
O585 O 0.75325 0.25814 0.8796 0.0
O586 O 1.00321 0.3533 0.89678 0.0
Zn587 Zn 0.83957 0.29761 0.85285 0.0
N588 N 0.9233 0.36354 0.92602 0.0
C589 C 0.89824 0.4126 0.94539 0.0
C590 C 0.90327 0.39353 0.92656 0.0
C591 C 0.93586 0.34945 0.94405 0.0
N592 N 0.91058 0.39858 0.96327 0.0
C593 C 0.92851 0.36678 0.96333 0.0
O594 O 0.83196 0.24258 0.87061 0.0
C595 C 0.84623 0.23043 0.88684 0.0
O596 O 0.8813 0.26286 0.89826 0.0
H597 H 0.89082 0.40251 0.91253 0.0
H598 H 0.95069 0.32468 0.94335 0.0
C599 C 0.83764 0.26828 0.81032 0.0
C600 C 0.85813 0.26238 0.79167 0.0
C601 C 0.93837 0.30662 0.80705 0.0
C602 C 0.91773 0.31204 0.82543 0.0
N603 N 0.8679 0.29278 0.82671 0.0
N604 N 0.90826 0.28195 0.79076 0.0
H605 H 0.7982 0.25389 0.81191 0.0
C606 C 0.01753 0.33185 0.88387 0.0
O607 O 0.98525 0.30012 0.87053 0.0
O608 O 0.76972 0.28352 0.84672 0.0
H609 H 0.94105 0.33107 0.83866 0.0
H610 H 0.88327 0.43728 0.94587 0.0
H611 H 0.97801 0.32161 0.80576 0.0
Zn612 Zn 0.20708 0.50283 0.66069 0.0
C613 C 0.11416 0.51187 0.61963 0.0
N614 N 0.15389 0.55619 0.61525 0.0
C615 C 0.18907 0.55853 0.62783 0.0
N616 N 0.17267 0.51659 0.63892 0.0
N617 N 0.12724 0.48549 0.63234 0.0
C618 C 0.0225 0.32421 0.61942 0.0
O619 O 0.04852 0.30939 0.6086 0.0
O620 O 0.27631 0.55892 0.66338 0.0
Zn621 Zn 0.11514 0.42136 0.62127 0.0
N622 N 0.17726 0.49138 0.68806 0.0
C623 C 0.11458 0.48164 0.71189 0.0
C624 C 0.13261 0.48777 0.69155 0.0
C625 C 0.20452 0.48873 0.70399 0.0
N626 N 0.14202 0.47947 0.72784 0.0
C627 C 0.18687 0.48286 0.72461 0.0
O628 O 0.16019 0.39418 0.63123 0.0
C629 C 0.19947 0.40845 0.64198 0.0
O630 O 0.21746 0.44762 0.65284 0.0
H631 H 0.11137 0.48974 0.67871 0.0
H632 H 0.23942 0.49081 0.7004 0.0
C633 C 0.1053 0.42044 0.5749 0.0
C634 C 0.12801 0.42997 0.55509 0.0
C635 C 0.20711 0.46536 0.57109 0.0
C636 C 0.18484 0.45635 0.59055 0.0
N637 N 0.13458 0.43338 0.59219 0.0
N638 N 0.17828 0.45194 0.55389 0.0
H639 H 0.0654 0.4027 0.57651 0.0
C640 C 0.30149 0.56909 0.64676 0.0
O641 O 0.28058 0.54323 0.62984 0.0
O642 O 0.043 0.36922 0.62537 0.0
H643 H 0.2075 0.46709 0.6044 0.0
H644 H 0.07911 0.47879 0.715 0.0
H645 H 0.24702 0.48307 0.56962 0.0
Zn646 Zn 0.72533 0.18761 0.6592 0.0
C647 C 0.62645 0.11357 0.61304 0.0
N648 N 0.62643 0.15657 0.6121 0.0
C649 C 0.65736 0.18374 0.62727 0.0
N650 N 0.6778 0.1599 0.63663 0.0
N651 N 0.66253 0.11775 0.62631 0.0
C652 C 0.7097 0.02 0.63331 0.0
O653 O 0.72796 0.05166 0.64883 0.0
O654 O 0.73736 0.25481 0.66802 0.0
Zn655 Zn 0.71502 0.10664 0.61411 0.0
N656 N 0.71041 0.14894 0.68432 0.0
C657 C 0.67341 0.07637 0.70528 0.0
C658 C 0.67793 0.09955 0.68612 0.0
C659 C 0.73841 0.17604 0.70073 0.0
N660 N 0.70227 0.10339 0.7216 0.0
C661 C 0.73546 0.15289 0.71982 0.0
O662 O 0.78715 0.15304 0.62421 0.0
C663 C 0.8123 0.18894 0.63672 0.0
O664 O 0.7911 0.20291 0.64962 0.0
H665 H 0.65614 0.07849 0.67286 0.0
H666 H 0.7628 0.2155 0.69873 0.0
C667 C 0.70855 0.10332 0.56725 0.0
C668 C 0.72239 0.12943 0.54817 0.0
C669 C 0.76135 0.20577 0.56662 0.0
C670 C 0.74763 0.18018 0.58534 0.0
N671 N 0.72245 0.12969 0.58544 0.0
N672 N 0.74853 0.17992 0.54857 0.0
H673 H 0.68794 0.06316 0.5676 0.0
C674 C 0.75831 0.28948 0.65481 0.0
O675 O 0.76759 0.27918 0.63605 0.0
O676 O 0.70031 0.03458 0.61629 0.0
H677 H 0.75758 0.20051 0.59986 0.0
H678 H 0.64763 0.03706 0.7071 0.0
H679 H 0.78191 0.24592 0.56641 0.0
Zn680 Zn 0.63481 0.7127 0.62041 0.0
C681 C 0.50244 0.64745 0.63685 0.0
N682 N 0.49915 0.61315 0.62347 0.0
C683 C 0.54513 0.62015 0.62327 0.0
N684 N 0.5763 0.65996 0.63531 0.0
N685 N 0.54796 0.6744 0.64498 0.0
C686 C 0.49916 0.75853 0.65823 0.0
O687 O 0.52122 0.76534 0.64008 0.0
O688 O 0.69159 0.69733 0.61891 0.0
Zn689 Zn 0.56656 0.72593 0.66604 0.0
N690 N 0.60977 0.71549 0.59306 0.0
C691 C 0.5652 0.74905 0.5762 0.0
C692 C 0.58453 0.74055 0.59414 0.0
C693 C 0.6152 0.69694 0.57459 0.0
N694 N 0.57108 0.73139 0.5578 0.0
C695 C 0.59537 0.70546 0.55639 0.0
O696 O 0.61862 0.79135 0.65598 0.0
C697 C 0.65315 0.8119 0.64268 0.0
O698 O 0.66253 0.78634 0.6298 0.0
H699 H 0.57965 0.7541 0.60894 0.0
H700 H 0.63454 0.67625 0.57405 0.0
C701 C 0.58875 0.74046 0.70868 0.0
C702 C 0.60651 0.73549 0.72812 0.0
C703 C 0.62174 0.67429 0.71325 0.0
C704 C 0.60474 0.68011 0.69398 0.0
N705 N 0.5885 0.71296 0.69213 0.0
N706 N 0.62241 0.70209 0.72974 0.0
H707 H 0.57502 0.76583 0.70652 0.0
C708 C 0.72325 0.71271 0.63363 0.0
O709 O 0.71765 0.73721 0.64908 0.0
O710 O 0.51029 0.73831 0.67272 0.0
H711 H 0.60485 0.65906 0.68061 0.0
H712 H 0.54539 0.76925 0.5769 0.0
H713 H 0.63477 0.64824 0.71506 0.0
Zn714 Zn 0.85101 0.55878 0.67168 0.0
C715 C 0.94779 0.52937 0.64243 0.0
N716 N 0.92141 0.48646 0.65261 0.0
C717 C 0.88539 0.49132 0.66155 0.0
N718 N 0.8904 0.53606 0.65744 0.0
N719 N 0.92929 0.56023 0.6449 0.0
C720 C 0.03485 0.71341 0.62103 0.0
O721 O 1.00568 0.73123 0.61663 0.0
O722 O 0.78101 0.50434 0.67074 0.0
Zn723 Zn 0.941 0.61429 0.62526 0.0
N724 N 0.86893 0.57217 0.70087 0.0
C725 C 0.92443 0.58373 0.72842 0.0
C726 C 0.91258 0.57701 0.70733 0.0
C727 C 0.83647 0.57386 0.71469 0.0
N728 N 0.89184 0.58466 0.74224 0.0
C729 C 0.84763 0.57952 0.73616 0.0
O730 O 0.89694 0.64615 0.6299 0.0
C731 C 0.86498 0.64491 0.64281 0.0
O732 O 0.84972 0.61556 0.65826 0.0
H733 H 0.93777 0.57532 0.69618 0.0
H734 H 0.80276 0.57116 0.70881 0.0
C735 C 0.94079 0.60166 0.57903 0.0
C736 C 0.92082 0.57228 0.56098 0.0
C737 C 0.86201 0.50583 0.58184 0.0
C738 C 0.8814 0.5348 0.59956 0.0
N739 N 0.92068 0.58176 0.59803 0.0
N740 N 0.88214 0.52512 0.56306 0.0
H741 H 0.97163 0.63931 0.57799 0.0
C742 C 0.7631 0.49545 0.65254 0.0
O743 O 0.79159 0.52122 0.63688 0.0
O744 O 0.01539 0.66714 0.62496 0.0
H745 H 0.86509 0.51987 0.61452 0.0
H746 H 0.95909 0.58772 0.73383 0.0
H747 H 0.83101 0.4683 0.58298 0.0
Zn748 Zn 0.35428 0.93393 0.62039 0.0
C749 C 0.42404 0.88883 0.66144 0.0
N750 N 0.46522 0.92678 0.65356 0.0
C751 C 0.44842 0.94913 0.64088 0.0
N752 N 0.39801 0.92671 0.64117 0.0
N753 N 0.38354 0.88963 0.65463 0.0
C754 C 0.3085 0.76218 0.64734 0.0
O755 O 0.31542 0.79296 0.63205 0.0
O756 O 0.36317 1.0044 0.62149 0.0
Zn757 Zn 0.31977 0.84476 0.66645 0.0
N758 N 0.37599 0.92362 0.59298 0.0
C759 C 0.4229 0.89427 0.57469 0.0
C760 C 0.40393 0.90129 0.59317 0.0
C761 C 0.36327 0.93606 0.57455 0.0
N762 N 0.41068 0.90695 0.55644 0.0
C763 C 0.38067 0.92691 0.55565 0.0
O764 O 0.26129 0.83494 0.65032 0.0
C765 C 0.24731 0.84734 0.63405 0.0
O766 O 0.27815 0.88204 0.62208 0.0
H767 H 0.41146 0.88866 0.60754 0.0
H768 H 0.33954 0.95214 0.5746 0.0
C769 C 0.28351 0.82878 0.70871 0.0
C770 C 0.28473 0.84166 0.72988 0.0
C771 C 0.35124 0.92281 0.72212 0.0
C772 C 0.35043 0.90946 0.70138 0.0
N773 N 0.31683 0.86279 0.6951 0.0
N774 N 0.31873 0.88877 0.73579 0.0
H775 H 0.25642 0.79263 0.70287 0.0
C776 C 0.35622 0.02294 0.63801 0.0
O777 O 0.34401 0.9966 0.65521 0.0
O778 O 0.31101 0.77718 0.66591 0.0
H779 H 0.37656 0.93599 0.69037 0.0
H780 H 0.44611 0.87762 0.57479 0.0
H781 H 0.37777 0.95983 0.72739 0.0
Zn782 Zn 0.50197 0.32049 0.66084 0.0
C783 C 0.51463 0.42203 0.61788 0.0
N784 N 0.56108 0.43029 0.61654 0.0
C785 C 0.56168 0.39805 0.63001 0.0
N786 N 0.51715 0.3696 0.63901 0.0
N787 N 0.48645 0.38194 0.63031 0.0
C788 C 0.32373 0.32128 0.62359 0.0
O789 O 0.30348 0.27344 0.62006 0.0
O790 O 0.55958 0.30944 0.66409 0.0
Zn791 Zn 0.4227 0.32791 0.6194 0.0
N792 N 0.48521 0.33738 0.68749 0.0
C793 C 0.45588 0.38046 0.70828 0.0
C794 C 0.4702 0.37128 0.68897 0.0
C795 C 0.48575 0.31158 0.70446 0.0
N796 N 0.45561 0.35415 0.72517 0.0
C797 C 0.46982 0.31939 0.72394 0.0
O798 O 0.39631 0.25523 0.6301 0.0
C799 C 0.40973 0.23117 0.64194 0.0
O800 O 0.44804 0.25334 0.65322 0.0
H801 H 0.46863 0.39034 0.67524 0.0
H802 H 0.49799 0.28492 0.70255 0.0
C803 C 0.42546 0.33743 0.57275 0.0
C804 C 0.43513 0.32318 0.5532 0.0
C805 C 0.46459 0.27541 0.57003 0.0
C806 C 0.45582 0.28998 0.58924 0.0
N807 N 0.43536 0.31954 0.59038 0.0
N808 N 0.4541 0.29231 0.55252 0.0
H809 H 0.4103 0.36189 0.57389 0.0
C810 C 0.56967 0.29583 0.64703 0.0
O811 O 0.54358 0.29204 0.63039 0.0
O812 O 0.37081 0.34858 0.62311 0.0
H813 H 0.46485 0.27727 0.60329 0.0
H814 H 0.44402 0.40753 0.70978 0.0
H815 H 0.48004 0.2512 0.56901 0.0
C816 C 0.27173 0.91087 0.13508 0.0
C817 C 0.26731 0.93112 0.11623 0.0
C818 C 0.23909 0.86113 0.14033 0.0
C819 C 0.2004 0.82855 0.12692 0.0
H820 H 0.30081 0.93363 0.14602 0.0
H821 H 0.24514 0.84806 0.15502 0.0
S822 S 0.17209 0.86286 0.07556 0.0
N823 N 0.22037 0.91467 0.08407 0.0
N824 N 0.15943 0.82094 0.09384 0.0
C825 C 0.19506 0.84836 0.10805 0.0
C826 C 0.22831 0.8995 0.10275 0.0
C827 C 0.32346 0.24661 0.15356 0.0
C828 C 0.32598 0.27019 0.13452 0.0
C829 C 0.33779 0.21053 0.15511 0.0
C830 C 0.3538 0.19515 0.13757 0.0
H831 H 0.3124 0.25765 0.16767 0.0
H832 H 0.33779 0.19557 0.17032 0.0
S833 S 0.36537 0.24319 0.08386 0.0
N834 N 0.34481 0.27419 0.09754 0.0
N835 N 0.37035 0.20548 0.10044 0.0
C836 C 0.35457 0.21675 0.11827 0.0
C837 C 0.34105 0.25443 0.11675 0.0
C838 C 0.08434 0.35262 0.12813 0.0
C839 C 0.06548 0.32667 0.10937 0.0
C840 C 0.13357 0.37045 0.13406 0.0
C841 C 0.167 0.36351 0.12156 0.0
H842 H 0.06089 0.35945 0.13848 0.0
H843 H 0.14541 0.39038 0.14869 0.0
S844 S 0.13667 0.29799 0.07074 0.0
N845 N 0.08429 0.29473 0.07812 0.0
N846 N 0.17727 0.32861 0.08933 0.0
C847 C 0.14883 0.33762 0.10269 0.0
C848 C 0.09813 0.31911 0.09662 0.0
C849 C 0.78633 0.12857 0.11936 0.0
C850 C 0.80384 0.15517 0.13813 0.0
C851 C 0.74833 0.07836 0.11929 0.0
C852 C 0.72702 0.05262 0.13799 0.0
H853 H 0.80003 0.14739 0.1046 0.0
H854 H 0.73504 0.0598 0.10445 0.0
S855 S 0.76197 0.10512 0.19132 0.0
N856 N 0.79825 0.15173 0.17585 0.0
N857 N 0.72818 0.05758 0.17581 0.0
C858 C 0.74587 0.0784 0.15686 0.0
C859 C 0.78387 0.12955 0.15689 0.0
C860 C 0.64466 0.71938 0.14319 0.0
C861 C 0.67908 0.73013 0.12697 0.0
C862 C 0.62677 0.75151 0.14813 0.0
C863 C 0.64209 0.79599 0.13703 0.0
H864 H 0.63058 0.6853 0.152 0.0
H865 H 0.59946 0.74038 0.16047 0.0
S866 S 0.73376 0.84308 0.09374 0.0
N867 N 0.72965 0.78998 0.10035 0.0
N868 N 0.69573 0.84996 0.10951 0.0
C869 C 0.67779 0.8081 0.1212 0.0
C870 C 0.69625 0.77535 0.1162 0.0
C871 C 0.93165 0.70034 0.12269 0.0
C872 C 0.94785 0.66717 0.11661 0.0
C873 C 0.88076 0.68448 0.12487 0.0
C874 C 0.84421 0.63519 0.1206 0.0
H875 H 0.95848 0.73827 0.12681 0.0
H876 H 0.87011 0.71018 0.13104 0.0
S877 S 0.86598 0.5351 0.10178 0.0
N878 N 0.92225 0.58356 0.10464 0.0
N879 N 0.8273 0.55438 0.10851 0.0
C880 C 0.85975 0.60256 0.11334 0.0
C881 C 0.91131 0.61835 0.11137 0.0
C882 C 0.13026 0.78887 0.37056 0.0
C883 C 0.16185 0.80674 0.38796 0.0
C884 C 0.07932 0.75419 0.37266 0.0
C885 C 0.05775 0.73456 0.39223 0.0
H886 H 0.14534 0.80085 0.35506 0.0
H887 H 0.05711 0.74117 0.35865 0.0
S888 S 0.12425 0.76917 0.44281 0.0
N889 N 0.16759 0.80291 0.42553 0.0
N890 N 0.07235 0.73687 0.42949 0.0
C891 C 0.08877 0.75279 0.40983 0.0
C892 C 0.14056 0.78903 0.40771 0.0
C893 C 0.38359 0.1453 0.4132 0.0
C894 C 0.36532 0.16555 0.39852 0.0
C895 C 0.36479 0.0936 0.41429 0.0
C896 C 0.32714 0.06029 0.40071 0.0
H897 H 0.41427 0.16969 0.42318 0.0
H898 H 0.38048 0.07971 0.4256 0.0
S899 S 0.26637 0.09536 0.3598 0.0
N900 N 0.3072 0.14869 0.37046 0.0
N901 N 0.27144 0.05218 0.37254 0.0
C902 C 0.30749 0.08032 0.3865 0.0
C903 C 0.32682 0.13274 0.38535 0.0
C904 C 0.25791 0.38857 0.38965 0.0
C905 C 0.21566 0.37545 0.40221 0.0
C906 C 0.29152 0.37239 0.39406 0.0
C907 C 0.2849 0.34182 0.41123 0.0
H908 H 0.26578 0.41214 0.37614 0.0
H909 H 0.32302 0.38402 0.38374 0.0
S910 S 0.1813 0.29691 0.44953 0.0
N911 N 0.16979 0.33028 0.43294 0.0
N912 N 0.23272 0.29935 0.44124 0.0
C913 C 0.24298 0.32829 0.42408 0.0
C914 C 0.2086 0.34519 0.4196 0.0
C915 C 0.93375 0.24959 0.37758 0.0
C916 C 0.95291 0.2805 0.39523 0.0
C917 C 0.88292 0.2146 0.37571 0.0
C918 C 0.84882 0.20769 0.39159 0.0
H919 H 0.95784 0.25378 0.36461 0.0
H920 H 0.86983 0.19389 0.3613 0.0
S921 S 0.87924 0.27637 0.44159 0.0
N922 N 0.9332 0.30007 0.42939 0.0
N923 N 0.8379 0.23346 0.42591 0.0
C924 C 0.86747 0.23655 0.40973 0.0
C925 C 0.91932 0.27308 0.41153 0.0
C926 C 0.68741 0.8768 0.40302 0.0
C927 C 0.63603 0.84323 0.40281 0.0
C928 C 0.70618 0.92848 0.40433 0.0
C929 C 0.67422 0.94835 0.40525 0.0
H930 H 0.71313 0.86328 0.40115 0.0
H931 H 0.74601 0.95308 0.40382 0.0
S932 S 0.53663 0.87476 0.40816 0.0
N933 N 0.55378 0.83282 0.40568 0.0
N934 N 0.58849 0.92909 0.40819 0.0
C935 C 0.62281 0.91465 0.40614 0.0
C936 C 0.60393 0.86238 0.40489 0.0
C937 C 0.74061 0.65858 0.41608 0.0
C938 C 0.73707 0.68679 0.39967 0.0
C939 C 0.77515 0.64178 0.41547 0.0
C940 C 0.8073 0.6524 0.39838 0.0
H941 H 0.71536 0.64792 0.42919 0.0
H942 H 0.77461 0.61794 0.42783 0.0
S943 S 0.81588 0.7272 0.35208 0.0
N944 N 0.77158 0.72676 0.3664 0.0
N945 N 0.83525 0.69477 0.36525 0.0
C946 C 0.80562 0.68222 0.38238 0.0
C947 C 0.77099 0.69962 0.38304 0.0
C948 C 0.81136 0.14255 0.87573 0.0
C949 C 0.81914 0.1764 0.89185 0.0
C950 C 0.7765 0.09173 0.8776 0.0
C951 C 0.74675 0.07222 0.89554 0.0
H952 H 0.83104 0.15589 0.8611 0.0
H953 H 0.77133 0.068 0.86437 0.0
S954 S 0.75463 0.14476 0.94286 0.0
N955 N 0.79612 0.18655 0.92684 0.0
N956 N 0.73016 0.09104 0.93045 0.0
C957 C 0.75564 0.10538 0.9122 0.0
C958 C 0.79186 0.15735 0.91034 0.0
C959 C 0.63457 0.76974 0.88974 0.0
C960 C 0.64657 0.81171 0.90223 0.0
C961 C 0.64983 0.73586 0.89489 0.0
C962 C 0.67834 0.74215 0.91273 0.0
H963 H 0.61268 0.76236 0.87573 0.0
H964 H 0.63942 0.70462 0.88457 0.0
S965 S 0.71904 0.84461 0.95124 0.0
N966 N 0.68799 0.85678 0.93371 0.0
N967 N 0.71733 0.79328 0.94334 0.0
C968 C 0.69061 0.7837 0.92554 0.0
C969 C 0.67459 0.81829 0.92033 0.0
C970 C 0.93326 0.65962 0.88644 0.0
C971 C 0.95645 0.69181 0.90336 0.0
C972 C 0.88332 0.64226 0.88153 0.0
C973 C 0.85373 0.65589 0.89336 0.0
H974 H 0.95367 0.64715 0.87694 0.0
H975 H 0.86755 0.61677 0.86857 0.0
S976 S 0.89671 0.74053 0.93905 0.0
N977 N 0.94613 0.73787 0.9317 0.0
N978 N 0.85228 0.70488 0.92261 0.0
C979 C 0.87674 0.68907 0.91005 0.0
C980 C 0.92791 0.707 0.91502 0.0
C981 C 0.269 0.93427 0.90414 0.0
C982 C 0.28956 0.96409 0.88628 0.0
C983 C 0.23157 0.88391 0.90256 0.0
C984 C 0.21389 0.86118 0.88305 0.0
H985 H 0.28258 0.94969 0.91945 0.0
H986 H 0.21859 0.86194 0.91665 0.0
S987 S 0.25395 0.92261 0.83157 0.0
N988 N 0.28742 0.96698 0.84846 0.0
N989 N 0.21862 0.87266 0.84559 0.0
C990 C 0.23308 0.89088 0.86516 0.0
C991 C 0.27042 0.94216 0.86675 0.0
C992 C 0.31523 0.2356 0.90875 0.0
C993 C 0.3463 0.28767 0.9072 0.0
C994 C 0.33374 0.20304 0.90552 0.0
C995 C 0.38393 0.22149 0.90056 0.0
H996 H 0.27596 0.21969 0.91186 0.0
H997 H 0.30831 0.16336 0.90602 0.0
S998 S 0.48235 0.35401 0.89768 0.0
N999 N 0.43111 0.35552 0.90258 0.0
N1000 N 0.46526 0.2947 0.89636 0.0
C1001 C 0.41572 0.27326 0.90003 0.0
C1002 C 0.39713 0.30625 0.90338 0.0
C1003 C 0.10037 0.36173 0.90146 0.0
C1004 C 0.07022 0.34297 0.8836 0.0
C1005 C 0.1507 0.37448 0.90116 0.0
C1006 C 0.17313 0.36975 0.8829 0.0
H1007 H 0.0852 0.36741 0.91571 0.0
H1008 H 0.17293 0.39089 0.91497 0.0
S1009 S 0.11098 0.32135 0.83216 0.0
N1010 N 0.06678 0.31846 0.84736 0.0
N1011 N 0.1613 0.34416 0.84673 0.0
C1012 C 0.14328 0.35007 0.86514 0.0
C1013 C 0.09193 0.33617 0.86551 0.0
C1014 C 0.89271 0.20987 0.61883 0.0
C1015 C 0.86721 0.22076 0.63418 0.0
C1016 C 0.94307 0.24299 0.61441 0.0
C1017 C 0.96986 0.28866 0.62496 0.0
H1018 H 0.87339 0.17608 0.60975 0.0
H1019 H 0.96073 0.23322 0.60222 0.0
S1020 S 0.92181 0.33411 0.66752 0.0
N1021 N 0.87415 0.27995 0.66086 0.0
N1022 N 0.96778 0.34189 0.65223 0.0
C1023 C 0.9453 0.29945 0.64075 0.0
C1024 C 0.89436 0.2656 0.64546 0.0
C1025 C 0.68328 0.8886 0.62068 0.0
C1026 C 0.67644 0.86673 0.64049 0.0
C1027 C 0.69435 0.93819 0.61843 0.0
C1028 C 0.6997 0.96805 0.63589 0.0
H1029 H 0.67741 0.86651 0.6068 0.0
H1030 H 0.69799 0.95296 0.60287 0.0
S1031 S 0.6874 0.92872 0.69122 0.0
N1032 N 0.67727 0.87921 0.67785 0.0
N1033 N 0.69864 0.97188 0.67373 0.0
C1034 C 0.69467 0.94697 0.65577 0.0
C1035 C 0.68293 0.89655 0.65803 0.0
C1036 C 0.78943 0.70685 0.65332 0.0
C1037 C 0.76414 0.70088 0.63442 0.0
C1038 C 0.82491 0.69205 0.65541 0.0
C1039 C 0.8377 0.67165 0.6386 0.0
H1040 H 0.78031 0.72114 0.66698 0.0
H1041 H 0.8411 0.69475 0.67061 0.0
S1042 S 0.78562 0.65125 0.58529 0.0
N1043 N 0.75665 0.67529 0.59815 0.0
N1044 N 0.82404 0.64826 0.6021 0.0
C1045 C 0.81483 0.66784 0.61929 0.0
C1046 C 0.77788 0.68215 0.61721 0.0
C1047 C 0.11073 0.79964 0.62172 0.0
C1048 C 0.0899 0.74748 0.62233 0.0
C1049 C 0.16217 0.83242 0.62439 0.0
C1050 C 0.19463 0.81422 0.62784 0.0
H1051 H 0.087 0.81544 0.61975 0.0
H1052 H 0.17621 0.87204 0.62462 0.0
S1053 S 0.16088 0.6817 0.628 0.0
N1054 N 0.10758 0.67996 0.62458 0.0
N1055 N 0.20316 0.74107 0.62977 0.0
C1056 C 0.17468 0.76241 0.62751 0.0
C1057 C 0.1227 0.72919 0.62471 0.0
C1058 C 0.37246 0.09957 0.65763 0.0
C1059 C 0.36423 0.07457 0.63845 0.0
C1060 C 0.38374 0.14924 0.65868 0.0
C1061 C 0.38612 0.17604 0.64067 0.0
H1062 H 0.3722 0.08133 0.672 0.0
H1063 H 0.39242 0.16744 0.67373 0.0
S1064 S 0.36411 0.12723 0.58664 0.0
N1065 N 0.35698 0.08013 0.60098 0.0
N1066 N 0.37697 0.17299 0.60307 0.0
C1067 C 0.37552 0.15088 0.62146 0.0
C1068 C 0.365 0.10042 0.62032 0.0
C1069 C 0.21043 0.33723 0.62992 0.0
C1070 C 0.23043 0.38469 0.63895 0.0
C1071 C 0.2406 0.3167 0.62524 0.0
C1072 C 0.29216 0.34318 0.629 0.0
H1073 H 0.17126 0.31591 0.62626 0.0
H1074 H 0.22342 0.28012 0.61825 0.0
S1075 S 0.36349 0.46919 0.65229 0.0
N1076 N 0.30572 0.45751 0.65157 0.0
N1077 N 0.36173 0.41936 0.64252 0.0
C1078 C 0.31259 0.39055 0.63811 0.0
C1079 C 0.28195 0.41113 0.64316 0.0
C1080 C 0.39596 0.10461 0.01845 0.0
C1081 C 0.4165 0.08728 0.03345 0.0
C1082 C 0.40354 0.10147 0.99705 0.0
C1083 C 0.43286 0.08181 0.98998 0.0
H1084 H 0.37763 0.12469 0.02335 0.0
H1085 H 0.3908 0.11922 0.98621 0.0
S1086 S 0.48853 0.02472 0.02272 0.0
N1087 N 0.4618 0.04408 0.03961 0.0
N1088 N 0.47697 0.03897 0.99945 0.0
C1089 C 0.44956 0.06017 1.00472 0.0
C1090 C 0.44113 0.06268 0.02647 0.0
C1091 C 0.39351 0.44387 0.01785 0.0
C1092 C 0.35649 0.42644 0.03344 0.0
C1093 C 0.38138 0.44016 0.99661 0.0
C1094 C 0.33179 0.41935 0.99026 0.0
H1095 H 0.43235 0.46417 0.02218 0.0
H1096 H 0.41112 0.45802 0.98531 0.0
S1097 S 0.22069 0.36204 0.02439 0.0
N1098 N 0.26788 0.38239 0.04065 0.0
N1099 N 0.24529 0.37573 1.00083 0.0
C1100 C 0.29436 0.39759 1.00549 0.0
C1101 C 0.30661 0.40094 0.02708 0.0
C1102 C 0.94329 0.36308 0.02153 0.0
C1103 C 0.91625 0.3119 0.02566 0.0
C1104 C 0.95164 0.38076 1.00095 0.0
C1105 C 0.93385 0.34795 0.98382 0.0
H1106 H 0.95392 0.38957 0.03416 0.0
H1107 H 0.96899 0.42043 0.99845 0.0
S1108 S 0.86746 0.21044 0.98659 0.0
N1109 N 0.87708 0.2287 1.01114 0.0
N1110 N 0.89265 0.26176 0.97258 0.0
C1111 C 0.91111 0.29677 0.98782 0.0
C1112 C 0.90233 0.27883 1.00873 0.0
C1113 C 0.56841 0.95071 1.00843 0.0
C1114 C 0.58627 0.93226 0.99261 0.0
C1115 C 0.57271 0.94193 0.02955 0.0
C1116 C 0.59448 0.91387 0.03549 0.0
H1117 H 0.54746 0.96862 1.00438 0.0
H1118 H 0.55455 0.95283 0.04107 0.0
S1119 S 0.65236 0.86248 1.00052 0.0
N1120 N 0.63131 0.88927 0.98464 0.0
N1121 N 0.63869 0.87228 0.02428 0.0
C1122 C 0.61632 0.89907 0.02001 0.0
C1123 C 0.6125 0.90849 0.99855 0.0
C1124 C 0.70567 0.62159 0.03214 0.0
C1125 C 0.65503 0.59506 0.03743 0.0
C1126 C 0.72076 0.62793 1.01124 0.0
C1127 C 0.68582 0.60869 0.99501 0.0
H1128 H 0.73376 0.63248 0.04406 0.0
H1129 H 0.75994 0.64394 1.00783 0.0
S1130 S 0.54915 0.54547 1.00068 0.0
N1131 N 0.5702 0.55667 0.02481 0.0
N1132 N 0.59877 0.56863 0.98555 0.0
C1133 C 0.6354 0.58772 1.00004 0.0
C1134 C 0.61996 0.58094 0.02131 0.0
C1135 C 0.10016 0.7005 0.02809 0.0
C1136 C 0.08385 0.65048 0.03263 0.0
C1137 C 0.10636 0.71715 1.0074 0.0
C1138 C 0.09569 0.68438 0.99051 0.0
H1139 H 0.11284 0.72783 0.04046 0.0
H1140 H 0.12357 0.75669 1.00461 0.0
S1141 S 0.04345 0.54844 0.99409 0.0
N1142 N 0.05072 0.56724 0.01856 0.0
N1143 N 0.06195 0.59869 0.97974 0.0
C1144 C 0.07433 0.63357 0.99483 0.0
C1145 C 0.06861 0.61663 0.0159 0.0
C1146 C 0.96017 0.56535 0.52869 0.0
C1147 C 0.93909 0.58939 0.5396 0.0
C1148 C 0.9591 0.56306 0.50686 0.0
C1149 C 0.93683 0.5847 0.49513 0.0
H1150 H 0.97308 0.54394 0.53712 0.0
H1151 H 0.97147 0.54012 0.49922 0.0
S1152 S 0.88155 0.65684 0.51623 0.0
N1153 N 0.89974 0.63939 0.53709 0.0
N1154 N 0.89781 0.63527 0.49599 0.0
C1155 C 0.9201 0.61305 0.50576 0.0
C1156 C 0.92114 0.61529 0.52805 0.0
C1157 C 0.39829 0.95189 0.51833 0.0
C1158 C 0.36366 0.93248 0.5348 0.0
C1159 C 0.38296 0.94326 0.49743 0.0
C1160 C 0.33249 0.91416 0.49233 0.0
H1161 H 0.43769 0.97071 0.52164 0.0
H1162 H 0.41093 0.95536 0.48532 0.0
S1163 S 0.2268 0.85978 0.52937 0.0
N1164 N 0.27639 0.88733 0.54438 0.0
N1165 N 0.24773 0.87046 0.50518 0.0
C1166 C 0.29741 0.89815 0.50856 0.0
C1167 C 0.31293 0.90753 0.5298 0.0
C1168 C 0.39919 0.30971 0.5178 0.0
C1169 C 0.43008 0.34316 0.53316 0.0
C1170 C 0.40752 0.32178 0.49655 0.0
C1171 C 0.44776 0.36746 0.48997 0.0
H1172 H 0.3713 0.27228 0.52213 0.0
H1173 H 0.38551 0.29316 0.48531 0.0
S1174 S 0.53574 0.46985 0.52433 0.0
N1175 N 0.49885 0.4254 0.54057 0.0
N1176 N 0.51494 0.44846 0.50075 0.0
C1177 C 0.47584 0.4029 0.50534 0.0
C1178 C 0.46692 0.39068 0.52693 0.0
C1179 C 0.11135 0.39656 0.51915 0.0
C1180 C 0.10079 0.42053 0.53528 0.0
C1181 C 0.10307 0.40303 0.49824 0.0
C1182 C 0.08475 0.43449 0.49277 0.0
H1183 H 0.13031 0.37628 0.5226 0.0
H1184 H 0.11613 0.38764 0.48633 0.0
S1185 S 0.04316 0.49866 0.52935 0.0
N1186 N 0.06448 0.47097 0.54459 0.0
N1187 N 0.04932 0.48373 0.50527 0.0
C1188 C 0.06911 0.45429 0.50887 0.0
C1189 C 0.07699 0.44714 0.53017 0.0
C1190 C 0.64123 0.07236 0.50148 0.0
C1191 C 0.676 0.0916 0.48506 0.0
C1192 C 0.65651 0.0788 0.52237 0.0
C1193 C 0.70711 0.10539 0.52752 0.0
H1194 H 0.60195 0.05558 0.49821 0.0
H1195 H 0.62863 0.0674 0.5345 0.0
S1196 S 0.8129 0.15747 0.4905 0.0
N1197 N 0.76328 0.13333 0.47547 0.0
N1198 N 0.79187 0.14588 0.51467 0.0
C1199 C 0.7421 0.12066 0.51126 0.0
C1200 C 0.7266 0.11363 0.49002 0.0
C1201 C 0.61251 0.70299 0.49866 0.0
C1202 C 0.57302 0.65562 0.4933 0.0
C1203 C 0.6236 0.71746 0.5196 0.0
C1204 C 0.59639 0.68484 0.53585 0.0
H1205 H 0.63206 0.73066 0.48675 0.0
H1206 H 0.65107 0.75565 0.52307 0.0
S1207 S 0.49321 0.55552 0.53042 0.0
N1208 N 0.5098 0.57474 0.50623 0.0
N1209 N 0.5311 0.60242 0.54542 0.0
C1210 C 0.5598 0.6363 0.5308 0.0
C1211 C 0.54805 0.62157 0.50955 0.0
C1212 C 0.4098 0.20267 0.24232 0.0
C1213 C 0.41735 0.16196 0.24479 0.0
C1214 C 0.40542 0.22803 0.25953 0.0
C1215 C 0.40827 0.21397 0.28004 0.0
H1216 H 0.40631 0.21485 0.22699 0.0
H1217 H 0.40005 0.25926 0.25669 0.0
S1218 S 0.42321 0.10723 0.29531 0.0
N1219 N 0.42535 0.10756 0.26963 0.0
N1220 N 0.41518 0.15395 0.30186 0.0
C1221 C 0.41439 0.17249 0.28283 0.0
C1222 C 0.41921 0.1468 0.26527 0.0
C1223 C 0.24366 0.39511 0.26477 0.0
C1224 C 0.22328 0.3908 0.24483 0.0
C1225 C 0.21901 0.39714 0.28274 0.0
C1226 C 0.17263 0.39455 0.28156 0.0
H1227 H 0.27922 0.3972 0.26653 0.0
H1228 H 0.2361 0.39967 0.29769 0.0
S1229 S 0.10203 0.38109 0.23314 0.0
N1230 N 0.15282 0.38206 0.22505 0.0
N1231 N 0.10708 0.38695 0.2587 0.0
C1232 C 0.15163 0.38987 0.2617 0.0
C1233 C 0.17678 0.38785 0.24339 0.0
C1234 C 0.79593 0.22281 0.23536 0.0
C1235 C 0.83776 0.27088 0.23734 0.0
C1236 C 0.77172 0.19342 0.25281 0.0
C1237 C 0.78806 0.21013 0.2732 0.0
H1238 H 0.78189 0.20663 0.22024 0.0
H1239 H 0.73976 0.15694 0.25023 0.0
S1240 S 0.89872 0.33067 0.28736 0.0
N1241 N 0.89574 0.33265 0.26176 0.0
N1242 N 0.85142 0.2765 0.29434 0.0
C1243 C 0.8305 0.25747 0.27555 0.0
C1244 C 0.85503 0.2878 0.25773 0.0
C1245 C 0.56596 0.83826 0.26436 0.0
C1246 C 0.57543 0.82686 0.24424 0.0
C1247 C 0.57078 0.81477 0.28213 0.0
C1248 C 0.5856 0.77892 0.2806 0.0
H1249 H 0.5548 0.86579 0.26643 0.0
H1250 H 0.56416 0.82605 0.29719 0.0
S1251 S 0.61692 0.73695 0.23156 0.0
N1252 N 0.60246 0.77862 0.22397 0.0
N1253 N 0.6099 0.73343 0.25708 0.0
C1254 C 0.5952 0.7672 0.26052 0.0
C1255 C 0.59047 0.79127 0.24245 0.0
C1256 C 0.83104 0.64131 0.25171 0.0
C1257 C 0.7925 0.59641 0.24371 0.0
C1258 C 0.8562 0.64233 0.2699 0.0
C1259 C 0.84276 0.59864 0.28108 0.0
H1260 H 0.84186 0.67599 0.24381 0.0
H1261 H 0.88566 0.67777 0.27553 0.0
S1262 S 0.74429 0.47139 0.26665 0.0
N1263 N 0.74232 0.50707 0.24813 0.0
N1264 N 0.789 0.50896 0.28263 0.0
C1265 C 0.80432 0.55337 0.27323 0.0
C1266 C 0.77934 0.55226 0.25444 0.0
C1267 C 0.18948 0.78163 0.26377 0.0
C1268 C 0.20932 0.77054 0.24613 0.0
C1269 C 0.21959 0.80995 0.28041 0.0
C1270 C 0.27112 0.82905 0.28012 0.0
H1271 H 0.15002 0.76806 0.26486 0.0
H1272 H 0.20232 0.81706 0.29361 0.0
S1273 S 0.3424 0.80906 0.23871 0.0
N1274 N 0.28455 0.77917 0.23032 0.0
N1275 N 0.34099 0.83423 0.26116 0.0
C1276 C 0.29185 0.8189 0.26265 0.0
C1277 C 0.26109 0.78923 0.24579 0.0
C1278 C 0.6161 0.81431 0.7439 0.0
C1279 C 0.60911 0.76626 0.74656 0.0
C1280 C 0.61976 0.84409 0.761 0.0
C1281 C 0.61668 0.82747 0.78159 0.0
H1282 H 0.61995 0.8299 0.72851 0.0
H1283 H 0.62504 0.88064 0.75799 0.0
S1284 S 0.60198 0.70607 0.79735 0.0
N1285 N 0.6007 0.70412 0.77167 0.0
N1286 N 0.6093 0.7607 0.80369 0.0
C1287 C 0.61057 0.7799 0.78457 0.0
C1288 C 0.60657 0.74935 0.76713 0.0
C1289 C 0.80447 0.60853 0.78714 0.0
C1290 C 0.75244 0.5804 0.78603 0.0
C1291 C 0.83436 0.60874 0.77069 0.0
C1292 C 0.81365 0.58053 0.75245 0.0
H1293 H 0.82229 0.63053 0.80087 0.0
H1294 H 0.87426 0.63111 0.77239 0.0
S1295 S 0.67875 0.49726 0.74284 0.0
N1296 N 0.68115 0.52252 0.76572 0.0
N1297 N 0.7369 0.52106 0.73511 0.0
C1298 C 0.76138 0.5519 0.75126 0.0
C1299 C 0.73098 0.55237 0.76795 0.0
C1300 C 0.23798 0.8263 0.76333 0.0
C1301 C 0.25044 0.80663 0.74605 0.0
C1302 C 0.2092 0.79613 0.77983 0.0
C1303 C 0.19109 0.74476 0.77975 0.0
H1304 H 0.25099 0.86567 0.76426 0.0
H1305 H 0.20123 0.81325 0.79284 0.0
S1306 S 0.21406 0.67399 0.73912 0.0
N1307 N 0.24359 0.73181 0.73061 0.0
N1308 N 0.18774 0.67514 0.7613 0.0
C1309 C 0.20227 0.72413 0.76256 0.0
C1310 C 0.23238 0.75498 0.74581 0.0
C1311 C 0.44737 0.20947 0.75793 0.0
C1312 C 0.44905 0.22675 0.77835 0.0
C1313 C 0.4553 0.23973 0.74054 0.0
C1314 C 0.4655 0.28903 0.74271 0.0
H1315 H 0.43918 0.17175 0.75527 0.0
H1316 H 0.4516 0.22336 0.72531 0.0
S1317 S 0.47322 0.35258 0.79277 0.0
N1318 N 0.46038 0.29638 0.79969 0.0
N1319 N 0.47717 0.35384 0.76713 0.0
C1320 C 0.46782 0.30707 0.76308 0.0
C1321 C 0.45934 0.276 0.78084 0.0
C1322 C 0.29564 0.50157 0.75868 0.0
C1323 C 0.27239 0.47557 0.77701 0.0
C1324 C 0.26811 0.50428 0.74199 0.0
C1325 C 0.21581 0.48025 0.74269 0.0
H1326 H 0.3357 0.52067 0.75729 0.0
H1327 H 0.28841 0.52609 0.72859 0.0
S1328 S 0.1366 0.40509 0.78689 0.0
N1329 N 0.19379 0.42413 0.79474 0.0
N1330 N 0.14195 0.42868 0.76341 0.0
C1331 C 0.19208 0.454 0.761 0.0
C1332 C 0.22026 0.45163 0.77809 0.0
C1333 C 0.77723 0.19675 0.77548 0.0
C1334 C 0.82692 0.23537 0.77316 0.0
C1335 C 0.74827 0.17031 0.75821 0.0
C1336 C 0.76753 0.18123 0.73784 0.0
H1337 H 0.7605 0.18593 0.79076 0.0
H1338 H 0.71027 0.14122 0.76086 0.0
S1339 S 0.89633 0.27655 0.72315 0.0
N1340 N 0.89422 0.28218 0.74862 0.0
N1341 N 0.84075 0.23126 0.71649 0.0
C1342 C 0.81743 0.21898 0.73529 0.0
C1343 C 0.84678 0.24618 0.75282 0.0
C1344 C 0.47294 1.00306 0.13918 0.0
C1345 C 0.48362 0.03309 0.12145 0.0
C1346 C 0.48584 0.96591 0.14012 0.0
C1347 C 0.50967 0.957 0.12334 0.0
H1348 H 0.45717 0.01019 0.15291 0.0
H1349 H 0.47601 0.94302 0.15396 0.0
S1350 S 0.54456 0.02428 0.07321 0.0
N1351 N 0.51963 0.05147 0.08674 0.0
N1352 N 0.54111 0.97958 0.08816 0.0
C1353 C 0.51921 0.98566 0.10534 0.0
C1354 C 0.50683 0.02408 0.10448 0.0
C1355 C 0.55102 0.54999 0.13145 0.0
C1356 C 0.55663 0.50836 0.13189 0.0
C1357 C 0.50343 0.54392 0.13019 0.0
C1358 C 0.46042 0.49604 0.13115 0.0
H1359 H 0.58199 0.58637 0.13491 0.0
H1360 H 0.50035 0.57686 0.13199 0.0
S1361 S 0.4583 0.37744 0.12372 0.0
N1362 N 0.51775 0.41977 0.12483 0.0
N1363 N 0.42819 0.40817 0.12624 0.0
C1364 C 0.46647 0.45533 0.12751 0.0
C1365 C 0.51501 0.46176 0.12705 0.0
C1366 C 0.95097 0.48453 0.11842 0.0
C1367 C 0.95787 0.44511 0.11131 0.0
C1368 C 0.99073 0.5304 0.12453 0.0
C1369 C 0.03901 0.53882 0.1239 0.0
H1370 H 0.91421 0.47906 0.12095 0.0
H1371 H 0.98299 0.55708 0.13191 0.0
S1372 S 0.07906 0.45329 0.10286 0.0
N1373 N 0.0179 0.42142 0.10106 0.0
N1374 N 0.09316 0.50765 0.11293 0.0
C1375 C 0.04719 0.50202 0.11498 0.0
C1376 C 1.00653 0.4551 0.10871 0.0
C1377 C 1.00194 0.4596 0.40352 0.0
C1378 C 0.04925 0.50056 0.40039 0.0
C1379 C 0.96088 0.46644 0.40596 0.0
C1380 C 0.96547 0.51388 0.40325 0.0
H1381 H 0.99544 0.4224 0.40126 0.0
H1382 H 0.9244 0.43343 0.40602 0.0
S1383 S 0.08414 0.63302 0.40387 0.0
N1384 N 0.10061 0.5903 0.40359 0.0
N1385 N 0.02286 0.6023 0.40395 0.0
C1386 C 1.01331 0.55491 0.40436 0.0
C1387 C 0.05537 0.54817 0.40386 0.0
C1388 C 0.54312 0.99352 0.38464 0.0
C1389 C 0.55592 0.04154 0.39074 0.0
C1390 C 0.49565 0.95328 0.38876 0.0
C1391 C 0.45914 0.95897 0.39964 0.0
H1392 H 0.5682 0.98756 0.37496 0.0
H1393 H 0.48684 0.91752 0.38245 0.0
S1394 S 0.47557 0.07716 0.42013 0.0
N1395 N 0.5288 0.09292 0.4085 0.0
N1396 N 0.44078 0.01633 0.41751 0.0
C1397 C 0.47236 1.00642 0.40676 0.0
C1398 C 0.52047 0.04777 0.40213 0.0
C1399 C 0.46437 0.46299 0.40198 0.0
C1400 C 0.50434 0.45561 0.39817 0.0
C1401 C 0.47252 0.51146 0.4038 0.0
C1402 C 0.51989 0.55315 0.39954 0.0
H1403 H 0.42673 0.43269 0.40037 0.0
H1404 H 0.44012 0.5158 0.4042 0.0
S1405 S 0.63743 0.55121 0.39738 0.0
N1406 N 0.59396 0.49242 0.39974 0.0
N1407 N 0.60792 0.58278 0.39731 0.0
C1408 C 0.56048 0.54576 0.40003 0.0
C1409 C 0.55263 0.49664 0.40084 0.0
C1410 C 0.46463 1.0075 0.90215 0.0
C1411 C 0.50306 0.05649 0.89986 0.0
C1412 C 0.47582 0.96922 0.90322 0.0
C1413 C 0.52508 0.9793 0.89988 0.0
H1414 H 0.42652 0.99794 0.89961 0.0
H1415 H 0.44511 0.9314 0.90213 0.0
S1416 S 0.63769 0.10299 0.9037 0.0
N1417 N 0.59116 0.11397 0.90474 0.0
N1418 N 0.61198 0.0421 0.90187 0.0
C1419 C 0.56326 0.0281 0.90275 0.0
C1420 C 0.5518 0.06688 0.90406 0.0
C1421 C 0.47509 0.47351 0.89272 0.0
C1422 C 0.46083 0.50012 0.90584 0.0
C1423 C 0.52347 0.48139 0.89328 0.0
C1424 C 0.55938 0.51526 0.90734 0.0
H1425 H 0.45033 0.45005 0.88055 0.0
H1426 H 0.53326 0.46135 0.88224 0.0
S1427 S 0.53989 0.59216 0.94583 0.0
N1428 N 0.48599 0.56084 0.93376 0.0
N1429 N 0.57637 0.57352 0.93544 0.0
C1430 C 0.54499 0.54019 0.92129 0.0
C1431 C 0.49576 0.53274 0.92052 0.0
C1432 C 0.06901 0.52584 0.8925 0.0
C1433 C 0.0632 0.56537 0.90035 0.0
C1434 C 0.02822 0.47942 0.88723 0.0
C1435 C 0.97981 0.47043 0.88952 0.0
H1436 H 0.10556 0.53141 0.88921 0.0
H1437 H 0.03482 0.4521 0.8797 0.0
S1438 S 0.94335 0.55732 0.91245 0.0
N1439 N 1.00465 0.58922 0.91256 0.0
N1440 N 0.92775 0.50259 0.90235 0.0
C1441 C 0.97326 0.5081 0.89876 0.0
C1442 C 0.01488 0.55538 0.90415 0.0
C1443 C 0.9921 0.51096 0.61515 0.0
C1444 C 0.99425 0.53984 0.6325 0.0
C1445 C 0.03031 0.50043 0.61104 0.0
C1446 C 0.07042 0.51648 0.62478 0.0
H1447 H 0.95929 0.49402 0.60542 0.0
H1448 H 0.02793 0.47881 0.5974 0.0
S1449 S 0.09355 0.59414 0.67207 0.0
N1450 N 0.04076 0.58612 0.66272 0.0
N1451 N 0.11096 0.56452 0.6559 0.0
C1452 C 0.0733 0.54638 0.64186 0.0
C1453 C 0.03576 0.5587 0.64543 0.0
C1454 C 0.5345 0.07385 0.61901 0.0
C1455 C 0.57588 0.06866 0.61339 0.0
C1456 C 0.48924 0.03319 0.62531 0.0
C1457 C 0.48336 0.98583 0.62586 0.0
H1458 H 0.53801 0.11009 0.62054 0.0
H1459 H 0.46105 0.03981 0.63189 0.0
S1460 S 0.57376 0.94977 0.60702 0.0
N1461 N 0.60357 0.01084 0.6048 0.0
N1462 N 0.5181 0.93388 0.61613 0.0
C1463 C 0.52161 0.97909 0.61751 0.0
C1464 C 0.56804 0.02064 0.61147 0.0
C1465 C 0.51596 0.4956 0.60162 0.0
C1466 C 0.51406 0.46924 0.61969 0.0
C1467 C 0.53084 0.54648 0.60249 0.0
C1468 C 0.54693 0.5737 0.62124 0.0
H1469 H 0.50662 0.47692 0.58667 0.0
H1470 H 0.52874 0.56452 0.58844 0.0
S1471 S 0.55207 0.52296 0.6727 0.0
N1472 N 0.53145 0.47504 0.65676 0.0
N1473 N 0.56009 0.57014 0.65823 0.0
C1474 C 0.54632 0.54801 0.63925 0.0
C1475 C 0.52975 0.4961 0.63852 0.0
C1476 C 0.6536 0.23099 0.16322 0.0
C1477 C 0.68177 0.25587 0.14551 0.0
C1478 C 0.6017 0.20219 0.16202 0.0
C1479 C 0.57724 0.19894 0.14327 0.0
H1480 H 0.6718 0.22916 0.17725 0.0
H1481 H 0.58141 0.1781 0.17493 0.0
S1482 S 0.63342 0.2662 0.0943 0.0
N1483 N 0.68092 0.28195 0.10998 0.0
N1484 N 0.5835 0.22932 0.10808 0.0
C1485 C 0.60454 0.22935 0.1266 0.0
C1486 C 0.65704 0.25749 0.1276 0.0
C1487 C 0.40081 0.59593 0.18184 0.0
C1488 C 0.37791 0.56412 0.16482 0.0
C1489 C 0.42119 0.6475 0.17986 0.0
C1490 C 0.42007 0.66858 0.16065 0.0
H1491 H 0.40793 0.58158 0.19595 0.0
H1492 H 0.44248 0.67111 0.19272 0.0
S1493 S 0.35773 0.60073 0.11245 0.0
N1494 N 0.35022 0.55711 0.12902 0.0
N1495 N 0.38764 0.6534 0.12545 0.0
C1496 C 0.39226 0.63673 0.14437 0.0
C1497 C 0.37129 0.58452 0.14643 0.0
C1498 C 0.78264 0.41987 0.15633 0.0
C1499 C 0.75791 0.43316 0.14168 0.0
C1500 C 0.8062 0.3936 0.1502 0.0
C1501 C 0.80432 0.37857 0.1294 0.0
H1502 H 0.78711 0.43302 0.17224 0.0
H1503 H 0.82904 0.38836 0.16142 0.0
S1504 S 0.7403 0.39942 0.08555 0.0
N1505 N 0.73009 0.42586 0.10574 0.0
N1506 N 0.7731 0.37542 0.09461 0.0
C1507 C 0.77652 0.38819 0.11506 0.0
C1508 C 0.75337 0.41554 0.12112 0.0
C1509 C 0.3482 0.76365 0.16417 0.0
C1510 C 0.31563 0.73676 0.14782 0.0
C1511 C 0.39945 0.79174 0.16068 0.0
C1512 C 0.41914 0.79277 0.14089 0.0
H1513 H 0.33387 0.76704 0.1791 0.0
H1514 H 0.42301 0.81658 0.17281 0.0
S1515 S 0.35097 0.71965 0.09462 0.0
N1516 N 0.3076 0.70555 0.11245 0.0
N1517 N 0.404 0.75887 0.10593 0.0
C1518 C 0.38768 0.7613 0.12532 0.0
C1519 C 0.33571 0.73291 0.12879 0.0
C1520 C 0.60911 0.39582 0.17992 0.0
C1521 C 0.62609 0.42593 0.16209 0.0
C1522 C 0.58382 0.3437 0.17823 0.0
C1523 C 0.57367 0.32037 0.15859 0.0
H1524 H 0.61097 0.41239 0.19498 0.0
H1525 H 0.56813 0.3218 0.19219 0.0
S1526 S 0.61309 0.38258 0.10735 0.0
N1527 N 0.6339 0.42822 0.12443 0.0
N1528 N 0.58701 0.33129 0.12128 0.0
C1529 C 0.59448 0.35011 0.14091 0.0
C1530 C 0.6206 0.4027 0.14266 0.0
C1531 C 0.20888 0.60643 0.14947 0.0
C1532 C 0.17737 0.59935 0.16643 0.0
C1533 C 0.23823 0.58442 0.14889 0.0
C1534 C 0.23606 0.55315 0.16501 0.0
H1535 H 0.20605 0.62361 0.13531 0.0
H1536 H 0.25899 0.58806 0.1348 0.0
S1537 S 0.1637 0.52664 0.21395 0.0
N1538 N 0.14936 0.56299 0.20062 0.0
N1539 N 0.20443 0.52059 0.19957 0.0
C1540 C 0.20854 0.54945 0.18301 0.0
C1541 C 0.17883 0.5725 0.18363 0.0
C1542 C 0.78878 0.41387 0.37891 0.0
C1543 C 0.82085 0.44112 0.3625 0.0
C1544 C 0.76127 0.36212 0.37826 0.0
C1545 C 0.7645 0.33599 0.36107 0.0
H1546 H 0.79027 0.43203 0.39352 0.0
H1547 H 0.74118 0.34249 0.3921 0.0
S1548 S 0.83408 0.39098 0.31221 0.0
N1549 N 0.84802 0.43922 0.32732 0.0
N1550 N 0.7948 0.34137 0.32565 0.0
C1551 C 0.79076 0.36302 0.34336 0.0
C1552 C 0.81942 0.41592 0.3442 0.0
C1553 C 0.42462 0.77478 0.36144 0.0
C1554 C 0.42782 0.74481 0.377 0.0
C1555 C 0.39973 0.80101 0.36528 0.0
C1556 C 0.37716 0.79744 0.38465 0.0
H1557 H 0.44555 0.78203 0.3471 0.0
H1558 H 0.40299 0.82829 0.35398 0.0
S1559 S 0.36404 0.71428 0.4282 0.0
N1560 N 0.39768 0.70531 0.4107 0.0
N1561 N 0.35176 0.75543 0.41792 0.0
C1562 C 0.37465 0.7628 0.39914 0.0
C1563 C 0.39977 0.73611 0.39529 0.0
C1564 C 0.64821 0.40481 0.37638 0.0
C1565 C 0.6802 0.4383 0.36131 0.0
C1566 C 0.59664 0.38102 0.37407 0.0
C1567 C 0.57479 0.38932 0.35654 0.0
H1568 H 0.66291 0.40008 0.39091 0.0
H1569 H 0.57399 0.36119 0.38739 0.0
S1570 S 0.6421 0.46663 0.3109 0.0
N1571 N 0.68654 0.47287 0.32675 0.0
N1572 N 0.58921 0.4284 0.32268 0.0
C1573 C 0.60635 0.41829 0.34032 0.0
C1574 C 0.65916 0.44261 0.34261 0.0
C1575 C 0.22151 0.59382 0.37764 0.0
C1576 C 0.19111 0.5719 0.36013 0.0
C1577 C 0.25084 0.64531 0.3795 0.0
C1578 C 0.25097 0.67665 0.36385 0.0
H1579 H 0.21756 0.57159 0.39123 0.0
H1580 H 0.27009 0.66068 0.39404 0.0
S1581 S 0.18468 0.63755 0.31341 0.0
N1582 N 0.16773 0.58499 0.32582 0.0
N1583 N 0.22416 0.68232 0.32894 0.0
C1584 C 0.22562 0.65523 0.34518 0.0
C1585 C 0.19522 0.60259 0.34343 0.0
C1586 C 0.5966 0.198 0.33948 0.0
C1587 C 0.62268 0.19327 0.35624 0.0
C1588 C 0.57366 0.22669 0.34141 0.0
C1589 C 0.57545 0.25046 0.36034 0.0
H1590 H 0.58924 0.17513 0.32573 0.0
H1591 H 0.55022 0.22585 0.32881 0.0
S1592 S 0.64536 0.25549 0.40763 0.0
N1593 N 0.65372 0.21931 0.39135 0.0
N1594 N 0.61182 0.27403 0.3948 0.0
C1595 C 0.60632 0.25079 0.37622 0.0
C1596 C 0.62972 0.22191 0.37421 0.0
C1597 C 0.41315 0.61737 0.37889 0.0
C1598 C 0.43779 0.61411 0.36112 0.0
C1599 C 0.36163 0.5958 0.37951 0.0
C1600 C 0.3321 0.56809 0.36263 0.0
H1601 H 0.4333 0.63235 0.39326 0.0
H1602 H 0.34468 0.59742 0.39403 0.0
S1603 S 0.3783 0.5506 0.31182 0.0
N1604 N 0.42911 0.58393 0.3257 0.0
N1605 N 0.33145 0.54204 0.32681 0.0
C1606 C 0.35618 0.56729 0.34415 0.0
C1607 C 0.40918 0.59013 0.34349 0.0
C1608 C 0.43227 0.81382 0.87827 0.0
C1609 C 0.45367 0.84102 0.85992 0.0
C1610 C 0.38101 0.78276 0.88029 0.0
C1611 C 0.34884 0.77815 0.86413 0.0
H1612 H 0.45476 0.82069 0.89204 0.0
H1613 H 0.36629 0.76529 0.89521 0.0
S1614 S 0.38598 0.83755 0.81215 0.0
N1615 N 0.43897 0.85834 0.82474 0.0
N1616 N 0.34202 0.79931 0.82831 0.0
C1617 C 0.36973 0.80158 0.84501 0.0
C1618 C 0.42229 0.83349 0.84301 0.0
C1619 C 0.61735 0.41409 0.86796 0.0
C1620 C 0.63604 0.43073 0.88803 0.0
C1621 C 0.5945 0.36355 0.86297 0.0
C1622 C 0.58921 0.32857 0.87809 0.0
H1623 H 0.61585 0.43933 0.8568 0.0
H1624 H 0.57665 0.35152 0.84795 0.0
S1625 S 0.6417 0.35586 0.93138 0.0
N1626 N 0.65498 0.41039 0.92189 0.0
N1627 N 0.61276 0.31536 0.91254 0.0
C1628 C 0.61317 0.34582 0.89733 0.0
C1629 C 0.63627 0.39707 0.90234 0.0
C1630 C 0.25681 0.64487 0.90039 0.0
C1631 C 0.22498 0.64681 0.88554 0.0
C1632 C 0.28204 0.61942 0.89618 0.0
C1633 C 0.27616 0.59541 0.87698 0.0
H1634 H 0.25812 0.65858 0.91603 0.0
H1635 H 0.30307 0.61524 0.90861 0.0
S1636 S 0.20372 0.59736 0.83174 0.0
N1637 N 0.19355 0.6282 0.85017 0.0
N1638 N 0.24261 0.58181 0.84188 0.0
C1639 C 0.24943 0.60247 0.86112 0.0
C1640 C 0.22323 0.62788 0.86553 0.0
C1641 C 0.65622 0.24393 0.8755 0.0
C1642 C 0.68495 0.24649 0.8582 0.0
C1643 C 0.60461 0.2151 0.87501 0.0
C1644 C 0.5792 0.18863 0.85706 0.0
H1645 H 0.67382 0.26097 0.89013 0.0
H1646 H 0.58488 0.20913 0.88959 0.0
S1647 S 0.63703 0.18665 0.80693 0.0
N1648 N 0.68449 0.22342 0.82195 0.0
N1649 N 0.58661 0.16909 0.82116 0.0
C1650 C 0.60722 0.19394 0.83912 0.0
C1651 C 0.6603 0.22331 0.83959 0.0
C1652 C 0.4015 0.62708 0.88656 0.0
C1653 C 0.40625 0.59837 0.87083 0.0
C1654 C 0.4231 0.67827 0.88448 0.0
C1655 C 0.45163 0.70265 0.86686 0.0
H1656 H 0.38529 0.61052 0.90146 0.0
H1657 H 0.42143 0.69924 0.89763 0.0
S1658 S 0.46832 0.64294 0.8199 0.0
N1659 N 0.43522 0.59644 0.836 0.0
N1660 N 0.47713 0.69363 0.83198 0.0
C1661 C 0.45198 0.67385 0.85 0.0
C1662 C 0.42924 0.6213 0.8521 0.0
C1663 C 0.78566 0.44261 0.84584 0.0
C1664 C 0.76252 0.43633 0.86535 0.0
C1665 C 0.81725 0.42348 0.84208 0.0
C1666 C 0.8254 0.39655 0.85751 0.0
H1667 H 0.78367 0.46676 0.83426 0.0
H1668 H 0.83937 0.4343 0.82797 0.0
S1669 S 0.76587 0.36228 0.9096 0.0
N1670 N 0.74377 0.39528 0.89892 0.0
N1671 N 0.80282 0.35935 0.89192 0.0
C1672 C 0.79745 0.38492 0.876 0.0
C1673 C 0.76605 0.40492 0.87993 0.0
C1674 C 0.23656 0.6236 0.65402 0.0
C1675 C 0.23102 0.60701 0.63335 0.0
C1676 C 0.26605 0.67399 0.65878 0.0
C1677 C 0.28973 0.70932 0.6429 0.0
H1678 H 0.21521 0.59804 0.66638 0.0
H1679 H 0.26688 0.68555 0.67476 0.0
S1680 S 0.29041 0.68323 0.58653 0.0
N1681 N 0.25426 0.62837 0.59718 0.0
N1682 N 0.31018 0.72334 0.60598 0.0
C1683 C 0.28743 0.69253 0.62236 0.0
C1684 C 0.2575 0.64127 0.6176 0.0
C1685 C 0.63303 0.28819 0.62699 0.0
C1686 C 0.60676 0.28022 0.64572 0.0
C1687 C 0.6561 0.26092 0.62223 0.0
C1688 C 0.65343 0.22489 0.63604 0.0
H1689 H 0.6322 0.31255 0.6152 0.0
H1690 H 0.67202 0.26466 0.60685 0.0
S1691 S 0.5951 0.19512 0.6883 0.0
N1692 N 0.58485 0.23879 0.67931 0.0
N1693 N 0.62717 0.18613 0.67002 0.0
C1694 C 0.63165 0.22015 0.65569 0.0
C1695 C 0.60863 0.24845 0.66067 0.0
C1696 C 0.43521 0.62816 0.66174 0.0
C1697 C 0.45834 0.64914 0.64271 0.0
C1698 C 0.38375 0.60675 0.66387 0.0
C1699 C 0.35472 0.60498 0.64682 0.0
H1700 H 0.45597 0.62345 0.67414 0.0
H1701 H 0.36629 0.58685 0.67808 0.0
S1702 S 0.40029 0.66461 0.59543 0.0
N1703 N 0.45069 0.67518 0.60808 0.0
N1704 N 0.3537 0.6334 0.61173 0.0
C1705 C 0.37843 0.63108 0.62866 0.0
C1706 C 0.4306 0.65367 0.6267 0.0
C1707 C 0.77691 0.37398 0.64563 0.0
C1708 C 0.77679 0.34146 0.66067 0.0
C1709 C 0.80717 0.42521 0.64791 0.0
C1710 C 0.83803 0.4458 0.66537 0.0
H1711 H 0.75703 0.35968 0.63112 0.0
H1712 H 0.81112 0.44818 0.63462 0.0
S1713 S 0.84636 0.37644 0.71035 0.0
N1714 N 0.80551 0.33298 0.69473 0.0
N1715 N 0.86304 0.42997 0.69883 0.0
C1716 C 0.83438 0.41385 0.68148 0.0
C1717 C 0.80335 0.36139 0.67922 0.0
C1718 C 0.44215 0.78521 0.64472 0.0
C1719 C 0.46646 0.77938 0.66186 0.0
C1720 C 0.42252 0.81668 0.64576 0.0
C1721 C 0.42497 0.84249 0.66414 0.0
H1722 H 0.44181 0.76853 0.62984 0.0
H1723 H 0.40969 0.82459 0.63142 0.0
S1724 S 0.48037 0.83616 0.71405 0.0
N1725 N 0.4885 0.79866 0.69839 0.0
N1726 N 0.45074 0.85784 0.70023 0.0
C1727 C 0.44562 0.83399 0.68189 0.0
C1728 C 0.46612 0.80196 0.68085 0.0
C1729 C 0.64577 0.41373 0.62328 0.0
C1730 C 0.60917 0.40656 0.63785 0.0
C1731 C 0.69584 0.43928 0.62872 0.0
C1732 C 0.7107 0.4588 0.64885 0.0
H1733 H 0.63585 0.40279 0.60719 0.0
H1734 H 0.72315 0.44649 0.61671 0.0
S1735 S 0.6281 0.44473 0.69316 0.0
N1736 N 0.59015 0.41686 0.6735 0.0
N1737 N 0.68457 0.46434 0.68404 0.0
C1738 C 0.67411 0.4478 0.66408 0.0
C1739 C 0.62307 0.42189 0.65846 0.0
loop_
_geom_bond_atom_site_label_1
_geom_bond_atom_site_label_2
_geom_bond_distance
_geom_bond_site_symmetry_2
_ccdc_geom_bond_type
Zn0 N4 2.020 . S
Zn0 O8 2.019 . S
Zn0 N10 2.119 . S
Zn0 O18 1.975 . S
C1 N2 1.334 . S
C1 N5 1.336 . S
N2 C1 1.334 . S
N2 C3 1.334 . S
C3 N2 1.334 . S
C3 N4 1.336 . S
N4 Zn0 2.020 . S
N4 C3 1.336 . S
N4 N5 1.354 . S
N5 C1 1.336 . S
N5 N4 1.354 . S
N5 Zn9 2.020 . S
C6 O7 1.244 . S
C6 O30 1.257 . S
O7 C6 1.244 . S
O8 Zn0 2.019 . S
O8 C28 1.257 1_545 S
Zn9 N5 2.020 . S
Zn9 O16 1.975 . S
Zn9 N25 2.119 . S
Zn9 O30 2.019 . S
N10 Zn0 2.119 . S
N10 C12 1.334 . S
N10 C13 1.328 . S
C11 C12 1.391 . S
C11 N14 1.329 . S
C11 H32 0.930 . S
C12 N10 1.334 . S
C12 C11 1.391 . S
C12 H19 0.930 . S
C13 N10 1.328 . S
C13 C15 1.392 . S
C13 H20 0.930 . S
N14 C11 1.329 . S
N14 C15 1.331 . S
C15 C13 1.392 . S
C15 N14 1.331 . S
O16 Zn9 1.975 . S
O16 C17 1.252 . S
C17 O16 1.252 . S
C17 O18 1.252 . S
O18 Zn0 1.975 . S
O18 C17 1.252 . S
H19 C12 0.930 . S
H20 C13 0.930 . S
C21 C22 1.392 . S
C21 N25 1.328 . S
C21 H27 0.930 . S
C22 C21 1.392 . S
C22 N26 1.331 . S
C23 C24 1.391 . S
C23 N26 1.329 . S
C23 H33 0.930 . S
C24 C23 1.391 . S
C24 N25 1.334 . S
C24 H31 0.930 . S
N25 Zn9 2.119 . S
N25 C21 1.328 . S
N25 C24 1.334 . S
N26 C22 1.331 . S
N26 C23 1.329 . S
H27 C21 0.930 . S
C28 O8 1.257 1_565 S
C28 O29 1.244 1_565 S
O29 C28 1.244 1_545 S
O30 C6 1.257 . S
O30 Zn9 2.019 . S
H31 C24 0.930 . S
H32 C11 0.930 . S
H33 C23 0.930 . S
Zn34 N38 2.020 . S
Zn34 O42 2.019 . S
Zn34 N44 2.119 . S
Zn34 O52 1.975 . S
C35 N36 1.334 . S
C35 N39 1.336 . S
N36 C35 1.334 . S
N36 C37 1.334 . S
C37 N36 1.334 . S
C37 N38 1.336 . S
N38 Zn34 2.020 . S
N38 C37 1.336 . S
N38 N39 1.354 . S
N39 C35 1.336 . S
N39 N38 1.354 . S
N39 Zn43 2.020 . S
C40 O41 1.244 . S
C40 O64 1.257 . S
O41 C40 1.244 . S
O42 Zn34 2.019 . S
O42 C62 1.257 . S
Zn43 N39 2.020 . S
Zn43 O50 1.975 . S
Zn43 N59 2.119 . S
Zn43 O64 2.019 . S
N44 Zn34 2.119 . S
N44 C46 1.334 . S
N44 C47 1.328 . S
C45 C46 1.391 . S
C45 N48 1.329 . S
C45 H66 0.930 . S
C46 N44 1.334 . S
C46 C45 1.391 . S
C46 H53 0.930 . S
C47 N44 1.328 . S
C47 C49 1.392 . S
C47 H54 0.930 . S
N48 C45 1.329 . S
N48 C49 1.331 . S
C49 C47 1.392 . S
C49 N48 1.331 . S
O50 Zn43 1.975 . S
O50 C51 1.252 . S
C51 O50 1.252 . S
C51 O52 1.252 . S
O52 Zn34 1.975 . S
O52 C51 1.252 . S
H53 C46 0.930 . S
H54 C47 0.930 . S
C55 C56 1.392 . S
C55 N59 1.328 . S
C55 H61 0.930 . S
C56 C55 1.392 . S
C56 N60 1.331 . S
C57 C58 1.391 . S
C57 N60 1.329 . S
C57 H67 0.930 . S
C58 C57 1.391 . S
C58 N59 1.334 . S
C58 H65 0.930 . S
N59 Zn43 2.119 . S
N59 C55 1.328 . S
N59 C58 1.334 . S
N60 C56 1.331 . S
N60 C57 1.329 . S
H61 C55 0.930 . S
C62 O42 1.257 . S
C62 O63 1.244 . S
O63 C62 1.244 . S
O64 C40 1.257 . S
O64 Zn43 2.019 . S
H65 C58 0.930 . S
H66 C45 0.930 . S
H67 C57 0.930 . S
Zn68 N72 2.020 . S
Zn68 O76 2.019 . S
Zn68 N78 2.119 . S
Zn68 O86 1.975 . S
C69 N70 1.334 . S
C69 N73 1.336 . S
N70 C69 1.334 . S
N70 C71 1.334 . S
C71 N70 1.334 . S
C71 N72 1.336 . S
N72 Zn68 2.020 . S
N72 C71 1.336 . S
N72 N73 1.354 . S
N73 C69 1.336 . S
N73 N72 1.354 . S
N73 Zn77 2.020 . S
C74 O75 1.244 . S
C74 O98 1.257 . S
O75 C74 1.244 . S
O76 Zn68 2.019 . S
O76 C96 1.257 1_655 S
Zn77 N73 2.020 . S
Zn77 O84 1.975 . S
Zn77 N93 2.119 . S
Zn77 O98 2.019 . S
N78 Zn68 2.119 . S
N78 C80 1.334 . S
N78 C81 1.328 . S
C79 C80 1.391 . S
C79 N82 1.329 . S
C79 H100 0.930 . S
C80 N78 1.334 . S
C80 C79 1.391 . S
C80 H87 0.930 . S
C81 N78 1.328 . S
C81 C83 1.392 . S
C81 H88 0.930 . S
N82 C79 1.329 . S
N82 C83 1.331 . S
C83 C81 1.392 . S
C83 N82 1.331 . S
O84 Zn77 1.975 . S
O84 C85 1.252 . S
C85 O84 1.252 . S
C85 O86 1.252 . S
O86 Zn68 1.975 . S
O86 C85 1.252 . S
H87 C80 0.930 . S
H88 C81 0.930 . S
C89 C90 1.392 . S
C89 N93 1.328 . S
C89 H95 0.930 . S
C90 C89 1.392 . S
C90 N94 1.331 . S
C91 C92 1.391 . S
C91 N94 1.329 . S
C91 H101 0.930 . S
C92 C91 1.391 . S
C92 N93 1.334 . S
C92 H99 0.930 . S
N93 Zn77 2.119 . S
N93 C89 1.328 . S
N93 C92 1.334 . S
N94 C90 1.331 . S
N94 C91 1.329 . S
H95 C89 0.930 . S
C96 O76 1.257 1_455 S
C96 O97 1.244 1_455 S
O97 C96 1.244 1_655 S
O98 C74 1.257 . S
O98 Zn77 2.019 . S
H99 C92 0.930 . S
H100 C79 0.930 . S
H101 C91 0.930 . S
Zn102 N106 2.020 . S
Zn102 O110 2.019 . S
Zn102 N112 2.119 . S
Zn102 O120 1.975 . S
C103 N104 1.334 . S
C103 N107 1.336 . S
N104 C103 1.334 . S
N104 C105 1.334 . S
C105 N104 1.334 . S
C105 N106 1.336 . S
N106 Zn102 2.020 . S
N106 C105 1.336 . S
N106 N107 1.354 . S
N107 C103 1.336 . S
N107 N106 1.354 . S
N107 Zn111 2.020 . S
C108 O109 1.244 1_545 S
C108 O132 1.257 1_545 S
O109 C108 1.244 1_565 S
O110 Zn102 2.019 . S
O110 C130 1.257 . S
Zn111 N107 2.020 . S
Zn111 O118 1.975 . S
Zn111 N127 2.119 . S
Zn111 O132 2.019 . S
N112 Zn102 2.119 . S
N112 C114 1.334 . S
N112 C115 1.328 . S
C113 C114 1.391 . S
C113 N116 1.329 . S
C113 H134 0.930 . S
C114 N112 1.334 . S
C114 C113 1.391 . S
C114 H121 0.930 . S
C115 N112 1.328 . S
C115 C117 1.392 . S
C115 H122 0.930 . S
N116 C113 1.329 . S
N116 C117 1.331 . S
C117 C115 1.392 . S
C117 N116 1.331 . S
O118 Zn111 1.975 . S
O118 C119 1.252 . S
C119 O118 1.252 . S
C119 O120 1.252 . S
O120 Zn102 1.975 . S
O120 C119 1.252 . S
H121 C114 0.930 . S
H122 C115 0.930 . S
C123 C124 1.392 . S
C123 N127 1.328 . S
C123 H129 0.930 . S
C124 C123 1.392 . S
C124 N128 1.331 . S
C125 C126 1.391 . S
C125 N128 1.329 . S
C125 H135 0.930 . S
C126 C125 1.391 . S
C126 N127 1.334 . S
C126 H133 0.930 . S
N127 Zn111 2.119 . S
N127 C123 1.328 . S
N127 C126 1.334 . S
N128 C124 1.331 . S
N128 C125 1.329 . S
H129 C123 0.930 . S
C130 O110 1.257 . S
C130 O131 1.244 . S
O131 C130 1.244 . S
O132 C108 1.257 1_565 S
O132 Zn111 2.019 . S
H133 C126 0.930 . S
H134 C113 0.930 . S
H135 C125 0.930 . S
Zn136 N140 2.020 . S
Zn136 O144 2.019 . S
Zn136 N146 2.119 . S
Zn136 O154 1.975 . S
C137 N138 1.334 . S
C137 N141 1.336 . S
N138 C137 1.334 . S
N138 C139 1.334 . S
C139 N138 1.334 . S
C139 N140 1.336 . S
N140 Zn136 2.020 . S
N140 C139 1.336 . S
N140 N141 1.354 . S
N141 C137 1.336 . S
N141 N140 1.354 . S
N141 Zn145 2.020 . S
C142 O143 1.244 . S
C142 O166 1.257 . S
O143 C142 1.244 . S
O144 Zn136 2.019 . S
O144 C164 1.257 . S
Zn145 N141 2.020 . S
Zn145 O152 1.975 . S
Zn145 N161 2.119 . S
Zn145 O166 2.019 . S
N146 Zn136 2.119 . S
N146 C148 1.334 . S
N146 C149 1.328 . S
C147 C148 1.391 . S
C147 N150 1.329 . S
C147 H168 0.930 . S
C148 N146 1.334 . S
C148 C147 1.391 . S
C148 H155 0.930 . S
C149 N146 1.328 . S
C149 C151 1.392 . S
C149 H156 0.930 . S
N150 C147 1.329 . S
N150 C151 1.331 . S
C151 C149 1.392 . S
C151 N150 1.331 . S
O152 Zn145 1.975 . S
O152 C153 1.252 . S
C153 O152 1.252 . S
C153 O154 1.252 . S
O154 Zn136 1.975 . S
O154 C153 1.252 . S
H155 C148 0.930 . S
H156 C149 0.930 . S
C157 C158 1.392 . S
C157 N161 1.328 . S
C157 H163 0.930 . S
C158 C157 1.392 . S
C158 N162 1.331 . S
C159 C160 1.391 . S
C159 N162 1.329 . S
C159 H169 0.930 . S
C160 C159 1.391 . S
C160 N161 1.334 . S
C160 H167 0.930 . S
N161 Zn145 2.119 . S
N161 C157 1.328 . S
N161 C160 1.334 . S
N162 C158 1.331 . S
N162 C159 1.329 . S
H163 C157 0.930 . S
C164 O144 1.257 . S
C164 O165 1.244 . S
O165 C164 1.244 . S
O166 C142 1.257 . S
O166 Zn145 2.019 . S
H167 C160 0.930 . S
H168 C147 0.930 . S
H169 C159 0.930 . S
Zn170 N174 2.020 . S
Zn170 O178 2.019 . S
Zn170 N180 2.119 . S
Zn170 O188 1.975 . S
C171 N172 1.334 . S
C171 N175 1.336 . S
N172 C171 1.334 . S
N172 C173 1.334 . S
C173 N172 1.334 . S
C173 N174 1.336 . S
N174 Zn170 2.020 . S
N174 C173 1.336 . S
N174 N175 1.354 . S
N175 C171 1.336 . S
N175 N174 1.354 . S
N175 Zn179 2.020 . S
C176 O177 1.244 1_655 S
C176 O200 1.257 1_655 S
O177 C176 1.244 1_455 S
O178 Zn170 2.019 . S
O178 C198 1.257 . S
Zn179 N175 2.020 . S
Zn179 O186 1.975 . S
Zn179 N195 2.119 . S
Zn179 O200 2.019 . S
N180 Zn170 2.119 . S
N180 C182 1.334 . S
N180 C183 1.328 . S
C181 C182 1.391 . S
C181 N184 1.329 . S
C181 H202 0.930 . S
C182 N180 1.334 . S
C182 C181 1.391 . S
C182 H189 0.930 . S
C183 N180 1.328 . S
C183 C185 1.392 . S
C183 H190 0.930 . S
N184 C181 1.329 . S
N184 C185 1.331 . S
C185 C183 1.392 . S
C185 N184 1.331 . S
O186 Zn179 1.975 . S
O186 C187 1.252 . S
C187 O186 1.252 . S
C187 O188 1.252 . S
O188 Zn170 1.975 . S
O188 C187 1.252 . S
H189 C182 0.930 . S
H190 C183 0.930 . S
C191 C192 1.392 . S
C191 N195 1.328 . S
C191 H197 0.930 . S
C192 C191 1.392 . S
C192 N196 1.331 . S
C193 C194 1.391 . S
C193 N196 1.329 . S
C193 H203 0.930 . S
C194 C193 1.391 . S
C194 N195 1.334 . S
C194 H201 0.930 . S
N195 Zn179 2.119 . S
N195 C191 1.328 . S
N195 C194 1.334 . S
N196 C192 1.331 . S
N196 C193 1.329 . S
H197 C191 0.930 . S
C198 O178 1.257 . S
C198 O199 1.244 . S
O199 C198 1.244 . S
O200 C176 1.257 1_455 S
O200 Zn179 2.019 . S
H201 C194 0.930 . S
H202 C181 0.930 . S
H203 C193 0.930 . S
Zn204 N208 2.020 . S
Zn204 O212 2.019 . S
Zn204 N214 2.119 . S
Zn204 O222 1.975 . S
C205 N206 1.334 . S
C205 N209 1.336 . S
N206 C205 1.334 . S
N206 C207 1.334 . S
C207 N206 1.334 . S
C207 N208 1.336 . S
N208 Zn204 2.020 . S
N208 C207 1.336 . S
N208 N209 1.354 . S
N209 C205 1.336 . S
N209 N208 1.354 . S
N209 Zn213 2.020 . S
C210 O211 1.244 . S
C210 O234 1.257 . S
O211 C210 1.244 . S
O212 Zn204 2.019 . S
O212 C232 1.257 1_655 S
Zn213 N209 2.020 . S
Zn213 O220 1.975 . S
Zn213 N229 2.119 . S
Zn213 O234 2.019 . S
N214 Zn204 2.119 . S
N214 C216 1.334 . S
N214 C217 1.328 . S
C215 C216 1.391 . S
C215 N218 1.329 . S
C215 H236 0.930 . S
C216 N214 1.334 . S
C216 C215 1.391 . S
C216 H223 0.930 . S
C217 N214 1.328 . S
C217 C219 1.392 . S
C217 H224 0.930 . S
N218 C215 1.329 . S
N218 C219 1.331 . S
C219 C217 1.392 . S
C219 N218 1.331 . S
O220 Zn213 1.975 . S
O220 C221 1.252 . S
C221 O220 1.252 . S
C221 O222 1.252 . S
O222 Zn204 1.975 . S
O222 C221 1.252 . S
H223 C216 0.930 . S
H224 C217 0.930 . S
C225 C226 1.392 . S
C225 N229 1.328 . S
C225 H231 0.930 . S
C226 C225 1.392 . S
C226 N230 1.331 . S
C227 C228 1.391 . S
C227 N230 1.329 . S
C227 H237 0.930 . S
C228 C227 1.391 . S
C228 N229 1.334 . S
C228 H235 0.930 . S
N229 Zn213 2.119 . S
N229 C225 1.328 . S
N229 C228 1.334 . S
N230 C226 1.331 . S
N230 C227 1.329 . S
H231 C225 0.930 . S
C232 O212 1.257 1_455 S
C232 O233 1.244 1_455 S
O233 C232 1.244 1_655 S
O234 C210 1.257 . S
O234 Zn213 2.019 . S
H235 C228 0.930 . S
H236 C215 0.930 . S
H237 C227 0.930 . S
Zn238 N242 2.020 . S
Zn238 O246 2.019 . S
Zn238 N248 2.119 . S
Zn238 O256 1.975 . S
C239 N240 1.334 . S
C239 N243 1.336 . S
N240 C239 1.334 . S
N240 C241 1.334 . S
C241 N240 1.334 . S
C241 N242 1.336 . S
N242 Zn238 2.020 . S
N242 C241 1.336 . S
N242 N243 1.354 . S
N243 C239 1.336 . S
N243 N242 1.354 . S
N243 Zn247 2.020 . S
C244 O245 1.244 1_545 S
C244 O268 1.257 1_545 S
O245 C244 1.244 1_565 S
O246 Zn238 2.019 . S
O246 C266 1.257 . S
Zn247 N243 2.020 . S
Zn247 O254 1.975 . S
Zn247 N263 2.119 . S
Zn247 O268 2.019 . S
N248 Zn238 2.119 . S
N248 C250 1.334 . S
N248 C251 1.328 . S
C249 C250 1.391 . S
C249 N252 1.329 . S
C249 H270 0.930 . S
C250 N248 1.334 . S
C250 C249 1.391 . S
C250 H257 0.930 . S
C251 N248 1.328 . S
C251 C253 1.392 . S
C251 H258 0.930 . S
N252 C249 1.329 . S
N252 C253 1.331 . S
C253 C251 1.392 . S
C253 N252 1.331 . S
O254 Zn247 1.975 . S
O254 C255 1.252 . S
C255 O254 1.252 . S
C255 O256 1.252 . S
O256 Zn238 1.975 . S
O256 C255 1.252 . S
H257 C250 0.930 . S
H258 C251 0.930 . S
C259 C260 1.392 . S
C259 N263 1.328 . S
C259 H265 0.930 . S
C260 C259 1.392 . S
C260 N264 1.331 . S
C261 C262 1.391 . S
C261 N264 1.329 . S
C261 H271 0.930 . S
C262 C261 1.391 . S
C262 N263 1.334 . S
C262 H269 0.930 . S
N263 Zn247 2.119 . S
N263 C259 1.328 . S
N263 C262 1.334 . S
N264 C260 1.331 . S
N264 C261 1.329 . S
H265 C259 0.930 . S
C266 O246 1.257 . S
C266 O267 1.244 . S
O267 C266 1.244 . S
O268 C244 1.257 1_565 S
O268 Zn247 2.019 . S
H269 C262 0.930 . S
H270 C249 0.930 . S
H271 C261 0.930 . S
Zn272 N276 2.020 . S
Zn272 O280 2.019 . S
Zn272 N282 2.119 . S
Zn272 O290 1.975 . S
C273 N274 1.334 . S
C273 N277 1.336 . S
N274 C273 1.334 . S
N274 C275 1.334 . S
C275 N274 1.334 . S
C275 N276 1.336 . S
N276 Zn272 2.020 . S
N276 C275 1.336 . S
N276 N277 1.354 . S
N277 C273 1.336 . S
N277 N276 1.354 . S
N277 Zn281 2.020 . S
C278 O279 1.244 . S
C278 O302 1.257 . S
O279 C278 1.244 . S
O280 Zn272 2.019 . S
O280 C300 1.257 . S
Zn281 N277 2.020 . S
Zn281 O288 1.975 . S
Zn281 N297 2.119 . S
Zn281 O302 2.019 . S
N282 Zn272 2.119 . S
N282 C284 1.334 . S
N282 C285 1.328 . S
C283 C284 1.391 . S
C283 N286 1.329 . S
C283 H304 0.930 . S
C284 N282 1.334 . S
C284 C283 1.391 . S
C284 H291 0.930 . S
C285 N282 1.328 . S
C285 C287 1.392 . S
C285 H292 0.930 . S
N286 C283 1.329 . S
N286 C287 1.331 . S
C287 C285 1.392 . S
C287 N286 1.331 . S
O288 Zn281 1.975 . S
O288 C289 1.252 . S
C289 O288 1.252 . S
C289 O290 1.252 . S
O290 Zn272 1.975 . S
O290 C289 1.252 . S
H291 C284 0.930 . S
H292 C285 0.930 . S
C293 C294 1.392 . S
C293 N297 1.328 . S
C293 H299 0.930 . S
C294 C293 1.392 . S
C294 N298 1.331 . S
C295 C296 1.391 . S
C295 N298 1.329 . S
C295 H305 0.930 . S
C296 C295 1.391 . S
C296 N297 1.334 . S
C296 H303 0.930 . S
N297 Zn281 2.119 . S
N297 C293 1.328 . S
N297 C296 1.334 . S
N298 C294 1.331 . S
N298 C295 1.329 . S
H299 C293 0.930 . S
C300 O280 1.257 . S
C300 O301 1.244 . S
O301 C300 1.244 . S
O302 C278 1.257 . S
O302 Zn281 2.019 . S
H303 C296 0.930 . S
H304 C283 0.930 . S
H305 C295 0.930 . S
Zn306 N310 2.020 . S
Zn306 O314 2.019 . S
Zn306 N316 2.119 . S
Zn306 O324 1.975 . S
C307 N308 1.334 . S
C307 N311 1.336 . S
N308 C307 1.334 . S
N308 C309 1.334 . S
C309 N308 1.334 . S
C309 N310 1.336 . S
N310 Zn306 2.020 . S
N310 C309 1.336 . S
N310 N311 1.354 . S
N311 C307 1.336 . S
N311 N310 1.354 . S
N311 Zn315 2.020 . S
C312 O313 1.244 1_655 S
C312 O336 1.257 1_655 S
O313 C312 1.244 1_455 S
O314 Zn306 2.019 . S
O314 C334 1.257 . S
Zn315 N311 2.020 . S
Zn315 O322 1.975 . S
Zn315 N331 2.119 . S
Zn315 O336 2.019 . S
N316 Zn306 2.119 . S
N316 C318 1.334 . S
N316 C319 1.328 . S
C317 C318 1.391 . S
C317 N320 1.329 . S
C317 H338 0.930 . S
C318 N316 1.334 . S
C318 C317 1.391 . S
C318 H325 0.930 . S
C319 N316 1.328 . S
C319 C321 1.392 . S
C319 H326 0.930 . S
N320 C317 1.329 . S
N320 C321 1.331 . S
C321 C319 1.392 . S
C321 N320 1.331 . S
O322 Zn315 1.975 . S
O322 C323 1.252 . S
C323 O322 1.252 . S
C323 O324 1.252 . S
O324 Zn306 1.975 . S
O324 C323 1.252 . S
H325 C318 0.930 . S
H326 C319 0.930 . S
C327 C328 1.392 . S
C327 N331 1.328 . S
C327 H333 0.930 . S
C328 C327 1.392 . S
C328 N332 1.331 . S
C329 C330 1.391 . S
C329 N332 1.329 . S
C329 H339 0.930 . S
C330 C329 1.391 . S
C330 N331 1.334 . S
C330 H337 0.930 . S
N331 Zn315 2.119 . S
N331 C327 1.328 . S
N331 C330 1.334 . S
N332 C328 1.331 . S
N332 C329 1.329 . S
H333 C327 0.930 . S
C334 O314 1.257 . S
C334 O335 1.244 . S
O335 C334 1.244 . S
O336 C312 1.257 1_455 S
O336 Zn315 2.019 . S
H337 C330 0.930 . S
H338 C317 0.930 . S
H339 C329 0.930 . S
Zn340 N344 2.020 . S
Zn340 O348 2.019 . S
Zn340 N350 2.119 . S
Zn340 O358 1.975 . S
C341 N342 1.334 . S
C341 N345 1.336 . S
N342 C341 1.334 . S
N342 C343 1.334 . S
C343 N342 1.334 . S
C343 N344 1.336 . S
N344 Zn340 2.020 . S
N344 C343 1.336 . S
N344 N345 1.354 . S
N345 C341 1.336 . S
N345 N344 1.354 . S
N345 Zn349 2.020 . S
C346 O347 1.244 . S
C346 O370 1.257 . S
O347 C346 1.244 . S
O348 Zn340 2.019 . S
O348 C368 1.257 1_545 S
Zn349 N345 2.020 . S
Zn349 O356 1.975 . S
Zn349 N365 2.119 . S
Zn349 O370 2.019 . S
N350 Zn340 2.119 . S
N350 C352 1.334 . S
N350 C353 1.328 . S
C351 C352 1.391 . S
C351 N354 1.329 . S
C351 H372 0.930 . S
C352 N350 1.334 . S
C352 C351 1.391 . S
C352 H359 0.930 . S
C353 N350 1.328 . S
C353 C355 1.392 . S
C353 H360 0.930 . S
N354 C351 1.329 . S
N354 C355 1.331 . S
C355 C353 1.392 . S
C355 N354 1.331 . S
O356 Zn349 1.975 . S
O356 C357 1.252 . S
C357 O356 1.252 . S
C357 O358 1.252 . S
O358 Zn340 1.975 . S
O358 C357 1.252 . S
H359 C352 0.930 . S
H360 C353 0.930 . S
C361 C362 1.392 . S
C361 N365 1.328 . S
C361 H367 0.930 . S
C362 C361 1.392 . S
C362 N366 1.331 . S
C363 C364 1.391 . S
C363 N366 1.329 . S
C363 H373 0.930 . S
C364 C363 1.391 . S
C364 N365 1.334 . S
C364 H371 0.930 . S
N365 Zn349 2.119 . S
N365 C361 1.328 . S
N365 C364 1.334 . S
N366 C362 1.331 . S
N366 C363 1.329 . S
H367 C361 0.930 . S
C368 O348 1.257 1_565 S
C368 O369 1.244 1_565 S
O369 C368 1.244 1_545 S
O370 C346 1.257 . S
O370 Zn349 2.019 . S
H371 C364 0.930 . S
H372 C351 0.930 . S
H373 C363 0.930 . S
Zn374 N378 2.020 . S
Zn374 O382 2.019 . S
Zn374 N384 2.119 . S
Zn374 O392 1.975 . S
C375 N376 1.334 . S
C375 N379 1.336 . S
N376 C375 1.334 . S
N376 C377 1.334 . S
C377 N376 1.334 . S
C377 N378 1.336 . S
N378 Zn374 2.020 . S
N378 C377 1.336 . S
N378 N379 1.354 . S
N379 C375 1.336 . S
N379 N378 1.354 . S
N379 Zn383 2.020 . S
C380 O381 1.244 . S
C380 O404 1.257 . S
O381 C380 1.244 . S
O382 Zn374 2.019 . S
O382 C402 1.257 . S
Zn383 N379 2.020 . S
Zn383 O390 1.975 . S
Zn383 N399 2.119 . S
Zn383 O404 2.019 . S
N384 Zn374 2.119 . S
N384 C386 1.334 . S
N384 C387 1.328 . S
C385 C386 1.391 . S
C385 N388 1.329 . S
C385 H406 0.930 . S
C386 N384 1.334 . S
C386 C385 1.391 . S
C386 H393 0.930 . S
C387 N384 1.328 . S
C387 C389 1.392 . S
C387 H394 0.930 . S
N388 C385 1.329 . S
N388 C389 1.331 . S
C389 C387 1.392 . S
C389 N388 1.331 . S
O390 Zn383 1.975 . S
O390 C391 1.252 . S
C391 O390 1.252 . S
C391 O392 1.252 . S
O392 Zn374 1.975 . S
O392 C391 1.252 . S
H393 C386 0.930 . S
H394 C387 0.930 . S
C395 C396 1.392 . S
C395 N399 1.328 . S
C395 H401 0.930 . S
C396 C395 1.392 . S
C396 N400 1.331 . S
C397 C398 1.391 . S
C397 N400 1.329 . S
C397 H407 0.930 . S
C398 C397 1.391 . S
C398 N399 1.334 . S
C398 H405 0.930 . S
N399 Zn383 2.119 . S
N399 C395 1.328 . S
N399 C398 1.334 . S
N400 C396 1.331 . S
N400 C397 1.329 . S
H401 C395 0.930 . S
C402 O382 1.257 . S
C402 O403 1.244 . S
O403 C402 1.244 . S
O404 C380 1.257 . S
O404 Zn383 2.019 . S
H405 C398 0.930 . S
H406 C385 0.930 . S
H407 C397 0.930 . S
Zn408 N412 2.020 . S
Zn408 O416 2.019 . S
Zn408 N418 2.119 . S
Zn408 O426 1.975 . S
C409 N410 1.334 . S
C409 N413 1.336 . S
N410 C409 1.334 . S
N410 C411 1.334 . S
C411 N410 1.334 . S
C411 N412 1.336 . S
N412 Zn408 2.020 . S
N412 C411 1.336 . S
N412 N413 1.354 . S
N413 C409 1.336 . S
N413 N412 1.354 . S
N413 Zn417 2.020 . S
C414 O415 1.244 . S
C414 O438 1.257 . S
O415 C414 1.244 . S
O416 Zn408 2.019 . S
O416 C436 1.257 1_565 S
Zn417 N413 2.020 . S
Zn417 O424 1.975 . S
Zn417 N433 2.119 . S
Zn417 O438 2.019 . S
N418 Zn408 2.119 . S
N418 C420 1.334 . S
N418 C421 1.328 . S
C419 C420 1.391 . S
C419 N422 1.329 . S
C419 H440 0.930 . S
C420 N418 1.334 . S
C420 C419 1.391 . S
C420 H427 0.930 . S
C421 N418 1.328 . S
C421 C423 1.392 . S
C421 H428 0.930 . S
N422 C419 1.329 . S
N422 C423 1.331 . S
C423 C421 1.392 . S
C423 N422 1.331 . S
O424 Zn417 1.975 . S
O424 C425 1.252 . S
C425 O424 1.252 . S
C425 O426 1.252 . S
O426 Zn408 1.975 . S
O426 C425 1.252 . S
H427 C420 0.930 . S
H428 C421 0.930 . S
C429 C430 1.392 . S
C429 N433 1.328 . S
C429 H435 0.930 . S
C430 C429 1.392 . S
C430 N434 1.331 . S
C431 C432 1.391 . S
C431 N434 1.329 . S
C431 H441 0.930 . S
C432 C431 1.391 . S
C432 N433 1.334 . S
C432 H439 0.930 . S
N433 Zn417 2.119 . S
N433 C429 1.328 . S
N433 C432 1.334 . S
N434 C430 1.331 . S
N434 C431 1.329 . S
H435 C429 0.930 . S
C436 O416 1.257 1_545 S
C436 O437 1.244 1_545 S
O437 C436 1.244 1_565 S
O438 C414 1.257 . S
O438 Zn417 2.019 . S
H439 C432 0.930 . S
H440 C419 0.930 . S
H441 C431 0.930 . S
Zn442 N446 2.020 . S
Zn442 O450 2.019 . S
Zn442 N452 2.119 . S
Zn442 O460 1.975 . S
C443 N444 1.334 . S
C443 N447 1.336 . S
N444 C443 1.334 . S
N444 C445 1.334 . S
C445 N444 1.334 . S
C445 N446 1.336 . S
N446 Zn442 2.020 . S
N446 C445 1.336 . S
N446 N447 1.354 . S
N447 C443 1.336 . S
N447 N446 1.354 . S
N447 Zn451 2.020 . S
C448 O449 1.244 . S
C448 O472 1.257 . S
O449 C448 1.244 . S
O450 Zn442 2.019 . S
O450 C470 1.257 . S
Zn451 N447 2.020 . S
Zn451 O458 1.975 . S
Zn451 N467 2.119 . S
Zn451 O472 2.019 . S
N452 Zn442 2.119 . S
N452 C454 1.334 . S
N452 C455 1.328 . S
C453 C454 1.391 . S
C453 N456 1.329 . S
C453 H474 0.930 . S
C454 N452 1.334 . S
C454 C453 1.391 . S
C454 H461 0.930 . S
C455 N452 1.328 . S
C455 C457 1.392 . S
C455 H462 0.930 . S
N456 C453 1.329 . S
N456 C457 1.331 . S
C457 C455 1.392 . S
C457 N456 1.331 . S
O458 Zn451 1.975 . S
O458 C459 1.252 . S
C459 O458 1.252 . S
C459 O460 1.252 . S
O460 Zn442 1.975 . S
O460 C459 1.252 . S
H461 C454 0.930 . S
H462 C455 0.930 . S
C463 C464 1.392 . S
C463 N467 1.328 . S
C463 H469 0.930 . S
C464 C463 1.392 . S
C464 N468 1.331 . S
C465 C466 1.391 . S
C465 N468 1.329 . S
C465 H475 0.930 . S
C466 C465 1.391 . S
C466 N467 1.334 . S
C466 H473 0.930 . S
N467 Zn451 2.119 . S
N467 C463 1.328 . S
N467 C466 1.334 . S
N468 C464 1.331 . S
N468 C465 1.329 . S
H469 C463 0.930 . S
C470 O450 1.257 . S
C470 O471 1.244 . S
O471 C470 1.244 . S
O472 C448 1.257 . S
O472 Zn451 2.019 . S
H473 C466 0.930 . S
H474 C453 0.930 . S
H475 C465 0.930 . S
Zn476 N480 2.020 . S
Zn476 O484 2.019 . S
Zn476 N486 2.119 . S
Zn476 O494 1.975 . S
C477 N478 1.334 . S
C477 N481 1.336 . S
N478 C477 1.334 . S
N478 C479 1.334 . S
C479 N478 1.334 . S
C479 N480 1.336 . S
N480 Zn476 2.020 . S
N480 C479 1.336 . S
N480 N481 1.354 . S
N481 C477 1.336 . S
N481 N480 1.354 . S
N481 Zn485 2.020 . S
C482 O483 1.244 . S
C482 O506 1.257 . S
O483 C482 1.244 . S
O484 Zn476 2.019 . S
O484 C504 1.257 1_455 S
Zn485 N481 2.020 . S
Zn485 O492 1.975 . S
Zn485 N501 2.119 . S
Zn485 O506 2.019 . S
N486 Zn476 2.119 . S
N486 C488 1.334 . S
N486 C489 1.328 . S
C487 C488 1.391 . S
C487 N490 1.329 . S
C487 H508 0.930 . S
C488 N486 1.334 . S
C488 C487 1.391 . S
C488 H495 0.930 . S
C489 N486 1.328 . S
C489 C491 1.392 . S
C489 H496 0.930 . S
N490 C487 1.329 . S
N490 C491 1.331 . S
C491 C489 1.392 . S
C491 N490 1.331 . S
O492 Zn485 1.975 . S
O492 C493 1.252 . S
C493 O492 1.252 . S
C493 O494 1.252 . S
O494 Zn476 1.975 . S
O494 C493 1.252 . S
H495 C488 0.930 . S
H496 C489 0.930 . S
C497 C498 1.392 . S
C497 N501 1.328 . S
C497 H503 0.930 . S
C498 C497 1.392 . S
C498 N502 1.331 . S
C499 C500 1.391 . S
C499 N502 1.329 . S
C499 H509 0.930 . S
C500 C499 1.391 . S
C500 N501 1.334 . S
C500 H507 0.930 . S
N501 Zn485 2.119 . S
N501 C497 1.328 . S
N501 C500 1.334 . S
N502 C498 1.331 . S
N502 C499 1.329 . S
H503 C497 0.930 . S
C504 O484 1.257 1_655 S
C504 O505 1.244 1_655 S
O505 C504 1.244 1_455 S
O506 C482 1.257 . S
O506 Zn485 2.019 . S
H507 C500 0.930 . S
H508 C487 0.930 . S
H509 C499 0.930 . S
Zn510 N514 2.020 . S
Zn510 O518 2.019 . S
Zn510 N520 2.119 . S
Zn510 O528 1.975 . S
C511 N512 1.334 . S
C511 N515 1.336 . S
N512 C511 1.334 . S
N512 C513 1.334 . S
C513 N512 1.334 . S
C513 N514 1.336 . S
N514 Zn510 2.020 . S
N514 C513 1.336 . S
N514 N515 1.354 . S
N515 C511 1.336 . S
N515 N514 1.354 . S
N515 Zn519 2.020 . S
C516 O517 1.244 . S
C516 O540 1.257 . S
O517 C516 1.244 . S
O518 Zn510 2.019 . S
O518 C538 1.257 1_545 S
Zn519 N515 2.020 . S
Zn519 O526 1.975 . S
Zn519 N535 2.119 . S
Zn519 O540 2.019 . S
N520 Zn510 2.119 . S
N520 C522 1.334 . S
N520 C523 1.328 . S
C521 C522 1.391 . S
C521 N524 1.329 . S
C521 H542 0.930 . S
C522 N520 1.334 . S
C522 C521 1.391 . S
C522 H529 0.930 . S
C523 N520 1.328 . S
C523 C525 1.392 . S
C523 H530 0.930 . S
N524 C521 1.329 . S
N524 C525 1.331 . S
C525 C523 1.392 . S
C525 N524 1.331 . S
O526 Zn519 1.975 . S
O526 C527 1.252 . S
C527 O526 1.252 . S
C527 O528 1.252 . S
O528 Zn510 1.975 . S
O528 C527 1.252 . S
H529 C522 0.930 . S
H530 C523 0.930 . S
C531 C532 1.392 . S
C531 N535 1.328 . S
C531 H537 0.930 . S
C532 C531 1.392 . S
C532 N536 1.331 . S
C533 C534 1.391 . S
C533 N536 1.329 . S
C533 H543 0.930 . S
C534 C533 1.391 . S
C534 N535 1.334 . S
C534 H541 0.930 . S
N535 Zn519 2.119 . S
N535 C531 1.328 . S
N535 C534 1.334 . S
N536 C532 1.331 . S
N536 C533 1.329 . S
H537 C531 0.930 . S
C538 O518 1.257 1_565 S
C538 O539 1.244 1_565 S
O539 C538 1.244 1_545 S
O540 C516 1.257 . S
O540 Zn519 2.019 . S
H541 C534 0.930 . S
H542 C521 0.930 . S
H543 C533 0.930 . S
Zn544 N548 2.020 . S
Zn544 O552 2.019 . S
Zn544 N554 2.119 . S
Zn544 O562 1.975 . S
C545 N546 1.334 . S
C545 N549 1.336 . S
N546 C545 1.334 . S
N546 C547 1.334 . S
C547 N546 1.334 . S
C547 N548 1.336 . S
N548 Zn544 2.020 . S
N548 C547 1.336 . S
N548 N549 1.354 . S
N549 C545 1.336 . S
N549 N548 1.354 . S
N549 Zn553 2.020 . S
C550 O551 1.244 . S
C550 O574 1.257 . S
O551 C550 1.244 . S
O552 Zn544 2.019 . S
O552 C572 1.257 . S
Zn553 N549 2.020 . S
Zn553 O560 1.975 . S
Zn553 N569 2.119 . S
Zn553 O574 2.019 . S
N554 Zn544 2.119 . S
N554 C556 1.334 . S
N554 C557 1.328 . S
C555 C556 1.391 . S
C555 N558 1.329 . S
C555 H576 0.930 . S
C556 N554 1.334 . S
C556 C555 1.391 . S
C556 H563 0.930 . S
C557 N554 1.328 . S
C557 C559 1.392 . S
C557 H564 0.930 . S
N558 C555 1.329 . S
N558 C559 1.331 . S
C559 C557 1.392 . S
C559 N558 1.331 . S
O560 Zn553 1.975 . S
O560 C561 1.252 . S
C561 O560 1.252 . S
C561 O562 1.252 . S
O562 Zn544 1.975 . S
O562 C561 1.252 . S
H563 C556 0.930 . S
H564 C557 0.930 . S
C565 C566 1.392 . S
C565 N569 1.328 . S
C565 H571 0.930 . S
C566 C565 1.392 . S
C566 N570 1.331 . S
C567 C568 1.391 . S
C567 N570 1.329 . S
C567 H577 0.930 . S
C568 C567 1.391 . S
C568 N569 1.334 . S
C568 H575 0.930 . S
N569 Zn553 2.119 . S
N569 C565 1.328 . S
N569 C568 1.334 . S
N570 C566 1.331 . S
N570 C567 1.329 . S
H571 C565 0.930 . S
C572 O552 1.257 . S
C572 O573 1.244 . S
O573 C572 1.244 . S
O574 C550 1.257 . S
O574 Zn553 2.019 . S
H575 C568 0.930 . S
H576 C555 0.930 . S
H577 C567 0.930 . S
Zn578 N582 2.020 . S
Zn578 O586 2.019 . S
Zn578 N588 2.119 . S
Zn578 O596 1.975 . S
C579 N580 1.334 . S
C579 N583 1.336 . S
N580 C579 1.334 . S
N580 C581 1.334 . S
C581 N580 1.334 . S
C581 N582 1.336 . S
N582 Zn578 2.020 . S
N582 C581 1.336 . S
N582 N583 1.354 . S
N583 C579 1.336 . S
N583 N582 1.354 . S
N583 Zn587 2.020 . S
C584 O585 1.244 . S
C584 O608 1.257 . S
O585 C584 1.244 . S
O586 Zn578 2.019 . S
O586 C606 1.257 1_655 S
Zn587 N583 2.020 . S
Zn587 O594 1.975 . S
Zn587 N603 2.119 . S
Zn587 O608 2.019 . S
N588 Zn578 2.119 . S
N588 C590 1.334 . S
N588 C591 1.328 . S
C589 C590 1.391 . S
C589 N592 1.329 . S
C589 H610 0.930 . S
C590 N588 1.334 . S
C590 C589 1.391 . S
C590 H597 0.930 . S
C591 N588 1.328 . S
C591 C593 1.392 . S
C591 H598 0.930 . S
N592 C589 1.329 . S
N592 C593 1.331 . S
C593 C591 1.392 . S
C593 N592 1.331 . S
O594 Zn587 1.975 . S
O594 C595 1.252 . S
C595 O594 1.252 . S
C595 O596 1.252 . S
O596 Zn578 1.975 . S
O596 C595 1.252 . S
H597 C590 0.930 . S
H598 C591 0.930 . S
C599 C600 1.392 . S
C599 N603 1.328 . S
C599 H605 0.930 . S
C600 C599 1.392 . S
C600 N604 1.331 . S
C601 C602 1.391 . S
C601 N604 1.329 . S
C601 H611 0.930 . S
C602 C601 1.391 . S
C602 N603 1.334 . S
C602 H609 0.930 . S
N603 Zn587 2.119 . S
N603 C599 1.328 . S
N603 C602 1.334 . S
N604 C600 1.331 . S
N604 C601 1.329 . S
H605 C599 0.930 . S
C606 O586 1.257 1_455 S
C606 O607 1.244 1_455 S
O607 C606 1.244 1_655 S
O608 C584 1.257 . S
O608 Zn587 2.019 . S
H609 C602 0.930 . S
H610 C589 0.930 . S
H611 C601 0.930 . S
Zn612 N616 2.020 . S
Zn612 O620 2.019 . S
Zn612 N622 2.119 . S
Zn612 O630 1.975 . S
C613 N614 1.334 . S
C613 N617 1.336 . S
N614 C613 1.334 . S
N614 C615 1.334 . S
C615 N614 1.334 . S
C615 N616 1.336 . S
N616 Zn612 2.020 . S
N616 C615 1.336 . S
N616 N617 1.354 . S
N617 C613 1.336 . S
N617 N616 1.354 . S
N617 Zn621 2.020 . S
C618 O619 1.244 1_655 S
C618 O642 1.257 1_655 S
O619 C618 1.244 1_455 S
O620 Zn612 2.019 . S
O620 C640 1.257 . S
Zn621 N617 2.020 . S
Zn621 O628 1.975 . S
Zn621 N637 2.119 . S
Zn621 O642 2.019 . S
N622 Zn612 2.119 . S
N622 C624 1.334 . S
N622 C625 1.328 . S
C623 C624 1.391 . S
C623 N626 1.329 . S
C623 H644 0.930 . S
C624 N622 1.334 . S
C624 C623 1.391 . S
C624 H631 0.930 . S
C625 N622 1.328 . S
C625 C627 1.392 . S
C625 H632 0.930 . S
N626 C623 1.329 . S
N626 C627 1.331 . S
C627 C625 1.392 . S
C627 N626 1.331 . S
O628 Zn621 1.975 . S
O628 C629 1.252 . S
C629 O628 1.252 . S
C629 O630 1.252 . S
O630 Zn612 1.975 . S
O630 C629 1.252 . S
H631 C624 0.930 . S
H632 C625 0.930 . S
C633 C634 1.392 . S
C633 N637 1.328 . S
C633 H639 0.930 . S
C634 C633 1.392 . S
C634 N638 1.331 . S
C635 C636 1.391 . S
C635 N638 1.329 . S
C635 H645 0.930 . S
C636 C635 1.391 . S
C636 N637 1.334 . S
C636 H643 0.930 . S
N637 Zn621 2.119 . S
N637 C633 1.328 . S
N637 C636 1.334 . S
N638 C634 1.331 . S
N638 C635 1.329 . S
H639 C633 0.930 . S
C640 O620 1.257 . S
C640 O641 1.244 . S
O641 C640 1.244 . S
O642 C618 1.257 1_455 S
O642 Zn621 2.019 . S
H643 C636 0.930 . S
H644 C623 0.930 . S
H645 C635 0.930 . S
Zn646 N650 2.020 . S
Zn646 O654 2.019 . S
Zn646 N656 2.119 . S
Zn646 O664 1.975 . S
C647 N648 1.334 . S
C647 N651 1.336 . S
N648 C647 1.334 . S
N648 C649 1.334 . S
C649 N648 1.334 . S
C649 N650 1.336 . S
N650 Zn646 2.020 . S
N650 C649 1.336 . S
N650 N651 1.354 . S
N651 C647 1.336 . S
N651 N650 1.354 . S
N651 Zn655 2.020 . S
C652 O653 1.244 1_565 S
C652 O676 1.257 1_565 S
O653 C652 1.244 1_545 S
O654 Zn646 2.019 . S
O654 C674 1.257 . S
Zn655 N651 2.020 . S
Zn655 O662 1.975 . S
Zn655 N671 2.119 . S
Zn655 O676 2.019 . S
N656 Zn646 2.119 . S
N656 C658 1.334 . S
N656 C659 1.328 . S
C657 C658 1.391 . S
C657 N660 1.329 . S
C657 H678 0.930 . S
C658 N656 1.334 . S
C658 C657 1.391 . S
C658 H665 0.930 . S
C659 N656 1.328 . S
C659 C661 1.392 . S
C659 H666 0.930 . S
N660 C657 1.329 . S
N660 C661 1.331 . S
C661 C659 1.392 . S
C661 N660 1.331 . S
O662 Zn655 1.975 . S
O662 C663 1.252 . S
C663 O662 1.252 . S
C663 O664 1.252 . S
O664 Zn646 1.975 . S
O664 C663 1.252 . S
H665 C658 0.930 . S
H666 C659 0.930 . S
C667 C668 1.392 . S
C667 N671 1.328 . S
C667 H673 0.930 . S
C668 C667 1.392 . S
C668 N672 1.331 . S
C669 C670 1.391 . S
C669 N672 1.329 . S
C669 H679 0.930 . S
C670 C669 1.391 . S
C670 N671 1.334 . S
C670 H677 0.930 . S
N671 Zn655 2.119 . S
N671 C667 1.328 . S
N671 C670 1.334 . S
N672 C668 1.331 . S
N672 C669 1.329 . S
H673 C667 0.930 . S
C674 O654 1.257 . S
C674 O675 1.244 . S
O675 C674 1.244 . S
O676 C652 1.257 1_545 S
O676 Zn655 2.019 . S
H677 C670 0.930 . S
H678 C657 0.930 . S
H679 C669 0.930 . S
Zn680 N684 2.020 . S
Zn680 O688 2.019 . S
Zn680 N690 2.119 . S
Zn680 O698 1.975 . S
C681 N682 1.334 . S
C681 N685 1.336 . S
N682 C681 1.334 . S
N682 C683 1.334 . S
C683 N682 1.334 . S
C683 N684 1.336 . S
N684 Zn680 2.020 . S
N684 C683 1.336 . S
N684 N685 1.354 . S
N685 C681 1.336 . S
N685 N684 1.354 . S
N685 Zn689 2.020 . S
C686 O687 1.244 . S
C686 O710 1.257 . S
O687 C686 1.244 . S
O688 Zn680 2.019 . S
O688 C708 1.257 . S
Zn689 N685 2.020 . S
Zn689 O696 1.975 . S
Zn689 N705 2.119 . S
Zn689 O710 2.019 . S
N690 Zn680 2.119 . S
N690 C692 1.334 . S
N690 C693 1.328 . S
C691 C692 1.391 . S
C691 N694 1.329 . S
C691 H712 0.930 . S
C692 N690 1.334 . S
C692 C691 1.391 . S
C692 H699 0.930 . S
C693 N690 1.328 . S
C693 C695 1.392 . S
C693 H700 0.930 . S
N694 C691 1.329 . S
N694 C695 1.331 . S
C695 C693 1.392 . S
C695 N694 1.331 . S
O696 Zn689 1.975 . S
O696 C697 1.252 . S
C697 O696 1.252 . S
C697 O698 1.252 . S
O698 Zn680 1.975 . S
O698 C697 1.252 . S
H699 C692 0.930 . S
H700 C693 0.930 . S
C701 C702 1.392 . S
C701 N705 1.328 . S
C701 H707 0.930 . S
C702 C701 1.392 . S
C702 N706 1.331 . S
C703 C704 1.391 . S
C703 N706 1.329 . S
C703 H713 0.930 . S
C704 C703 1.391 . S
C704 N705 1.334 . S
C704 H711 0.930 . S
N705 Zn689 2.119 . S
N705 C701 1.328 . S
N705 C704 1.334 . S
N706 C702 1.331 . S
N706 C703 1.329 . S
H707 C701 0.930 . S
C708 O688 1.257 . S
C708 O709 1.244 . S
O709 C708 1.244 . S
O710 C686 1.257 . S
O710 Zn689 2.019 . S
H711 C704 0.930 . S
H712 C691 0.930 . S
H713 C703 0.930 . S
Zn714 N718 2.020 . S
Zn714 O722 2.019 . S
Zn714 N724 2.119 . S
Zn714 O732 1.975 . S
C715 N716 1.334 . S
C715 N719 1.336 . S
N716 C715 1.334 . S
N716 C717 1.334 . S
C717 N716 1.334 . S
C717 N718 1.336 . S
N718 Zn714 2.020 . S
N718 C717 1.336 . S
N718 N719 1.354 . S
N719 C715 1.336 . S
N719 N718 1.354 . S
N719 Zn723 2.020 . S
C720 O721 1.244 1_455 S
C720 O744 1.257 1_455 S
O721 C720 1.244 1_655 S
O722 Zn714 2.019 . S
O722 C742 1.257 . S
Zn723 N719 2.020 . S
Zn723 O730 1.975 . S
Zn723 N739 2.119 . S
Zn723 O744 2.019 . S
N724 Zn714 2.119 . S
N724 C726 1.334 . S
N724 C727 1.328 . S
C725 C726 1.391 . S
C725 N728 1.329 . S
C725 H746 0.930 . S
C726 N724 1.334 . S
C726 C725 1.391 . S
C726 H733 0.930 . S
C727 N724 1.328 . S
C727 C729 1.392 . S
C727 H734 0.930 . S
N728 C725 1.329 . S
N728 C729 1.331 . S
C729 C727 1.392 . S
C729 N728 1.331 . S
O730 Zn723 1.975 . S
O730 C731 1.252 . S
C731 O730 1.252 . S
C731 O732 1.252 . S
O732 Zn714 1.975 . S
O732 C731 1.252 . S
H733 C726 0.930 . S
H734 C727 0.930 . S
C735 C736 1.392 . S
C735 N739 1.328 . S
C735 H741 0.930 . S
C736 C735 1.392 . S
C736 N740 1.331 . S
C737 C738 1.391 . S
C737 N740 1.329 . S
C737 H747 0.930 . S
C738 C737 1.391 . S
C738 N739 1.334 . S
C738 H745 0.930 . S
N739 Zn723 2.119 . S
N739 C735 1.328 . S
N739 C738 1.334 . S
N740 C736 1.331 . S
N740 C737 1.329 . S
H741 C735 0.930 . S
C742 O722 1.257 . S
C742 O743 1.244 . S
O743 C742 1.244 . S
O744 C720 1.257 1_655 S
O744 Zn723 2.019 . S
H745 C738 0.930 . S
H746 C725 0.930 . S
H747 C737 0.930 . S
Zn748 N752 2.020 . S
Zn748 O756 2.019 . S
Zn748 N758 2.119 . S
Zn748 O766 1.975 . S
C749 N750 1.334 . S
C749 N753 1.336 . S
N750 C749 1.334 . S
N750 C751 1.334 . S
C751 N750 1.334 . S
C751 N752 1.336 . S
N752 Zn748 2.020 . S
N752 C751 1.336 . S
N752 N753 1.354 . S
N753 C749 1.336 . S
N753 N752 1.354 . S
N753 Zn757 2.020 . S
C754 O755 1.244 . S
C754 O778 1.257 . S
O755 C754 1.244 . S
O756 Zn748 2.019 . S
O756 C776 1.257 1_565 S
Zn757 N753 2.020 . S
Zn757 O764 1.975 . S
Zn757 N773 2.119 . S
Zn757 O778 2.019 . S
N758 Zn748 2.119 . S
N758 C760 1.334 . S
N758 C761 1.328 . S
C759 C760 1.391 . S
C759 N762 1.329 . S
C759 H780 0.930 . S
C760 N758 1.334 . S
C760 C759 1.391 . S
C760 H767 0.930 . S
C761 N758 1.328 . S
C761 C763 1.392 . S
C761 H768 0.930 . S
N762 C759 1.329 . S
N762 C763 1.331 . S
C763 C761 1.392 . S
C763 N762 1.331 . S
O764 Zn757 1.975 . S
O764 C765 1.252 . S
C765 O764 1.252 . S
C765 O766 1.252 . S
O766 Zn748 1.975 . S
O766 C765 1.252 . S
H767 C760 0.930 . S
H768 C761 0.930 . S
C769 C770 1.392 . S
C769 N773 1.328 . S
C769 H775 0.930 . S
C770 C769 1.392 . S
C770 N774 1.331 . S
C771 C772 1.391 . S
C771 N774 1.329 . S
C771 H781 0.930 . S
C772 C771 1.391 . S
C772 N773 1.334 . S
C772 H779 0.930 . S
N773 Zn757 2.119 . S
N773 C769 1.328 . S
N773 C772 1.334 . S
N774 C770 1.331 . S
N774 C771 1.329 . S
H775 C769 0.930 . S
C776 O756 1.257 1_545 S
C776 O777 1.244 1_545 S
O777 C776 1.244 1_565 S
O778 C754 1.257 . S
O778 Zn757 2.019 . S
H779 C772 0.930 . S
H780 C759 0.930 . S
H781 C771 0.930 . S
Zn782 N786 2.020 . S
Zn782 O790 2.019 . S
Zn782 N792 2.119 . S
Zn782 O800 1.975 . S
C783 N784 1.334 . S
C783 N787 1.336 . S
N784 C783 1.334 . S
N784 C785 1.334 . S
C785 N784 1.334 . S
C785 N786 1.336 . S
N786 Zn782 2.020 . S
N786 C785 1.336 . S
N786 N787 1.354 . S
N787 C783 1.336 . S
N787 N786 1.354 . S
N787 Zn791 2.020 . S
C788 O789 1.244 . S
C788 O812 1.257 . S
O789 C788 1.244 . S
O790 Zn782 2.019 . S
O790 C810 1.257 . S
Zn791 N787 2.020 . S
Zn791 O798 1.975 . S
Zn791 N807 2.119 . S
Zn791 O812 2.019 . S
N792 Zn782 2.119 . S
N792 C794 1.334 . S
N792 C795 1.328 . S
C793 C794 1.391 . S
C793 N796 1.329 . S
C793 H814 0.930 . S
C794 N792 1.334 . S
C794 C793 1.391 . S
C794 H801 0.930 . S
C795 N792 1.328 . S
C795 C797 1.392 . S
C795 H802 0.930 . S
N796 C793 1.329 . S
N796 C797 1.331 . S
C797 C795 1.392 . S
C797 N796 1.331 . S
O798 Zn791 1.975 . S
O798 C799 1.252 . S
C799 O798 1.252 . S
C799 O800 1.252 . S
O800 Zn782 1.975 . S
O800 C799 1.252 . S
H801 C794 0.930 . S
H802 C795 0.930 . S
C803 C804 1.392 . S
C803 N807 1.328 . S
C803 H809 0.930 . S
C804 C803 1.392 . S
C804 N808 1.331 . S
C805 C806 1.391 . S
C805 N808 1.329 . S
C805 H815 0.930 . S
C806 C805 1.391 . S
C806 N807 1.334 . S
C806 H813 0.930 . S
N807 Zn791 2.119 . S
N807 C803 1.328 . S
N807 C806 1.334 . S
N808 C804 1.331 . S
N808 C805 1.329 . S
H809 C803 0.930 . S
C810 O790 1.257 . S
C810 O811 1.244 . S
O811 C810 1.244 . S
O812 C788 1.257 . S
O812 Zn791 2.019 . S
H813 C806 0.930 . S
H814 C793 0.930 . S
H815 C805 0.930 . S
C816 C817 1.369 . S
C816 C818 1.419 . S
C816 H820 0.930 . S
C817 C816 1.369 . S
C817 C826 1.429 . S
C818 C816 1.419 . S
C818 C819 1.363 . S
C818 H821 0.929 . S
C819 C818 1.363 . S
C819 C825 1.428 . S
H820 C816 0.930 . S
H821 C818 0.929 . S
S822 N823 1.613 . S
S822 N824 1.610 . S
N823 S822 1.613 . S
N823 C826 1.350 . S
N824 S822 1.610 . S
N824 C825 1.351 . S
C825 C819 1.428 . S
C825 N824 1.351 . S
C825 C826 1.434 . S
C826 C817 1.429 . S
C826 N823 1.350 . S
C826 C825 1.434 . S
C827 C828 1.369 . S
C827 C829 1.419 . S
C827 H831 0.930 . S
C828 C827 1.369 . S
C828 C837 1.429 . S
C829 C827 1.419 . S
C829 C830 1.363 . S
C829 H832 0.929 . S
C830 C829 1.363 . S
C830 C836 1.428 . S
H831 C827 0.930 . S
H832 C829 0.929 . S
S833 N834 1.613 . S
S833 N835 1.610 . S
N834 S833 1.613 . S
N834 C837 1.350 . S
N835 S833 1.610 . S
N835 C836 1.351 . S
C836 C830 1.428 . S
C836 N835 1.351 . S
C836 C837 1.434 . S
C837 C828 1.429 . S
C837 N834 1.350 . S
C837 C836 1.434 . S
C838 C839 1.369 . S
C838 C840 1.419 . S
C838 H842 0.930 . S
C839 C838 1.369 . S
C839 C848 1.429 . S
C840 C838 1.419 . S
C840 C841 1.363 . S
C840 H843 0.929 . S
C841 C840 1.363 . S
C841 C847 1.428 . S
H842 C838 0.930 . S
H843 C840 0.929 . S
S844 N845 1.613 . S
S844 N846 1.610 . S
N845 S844 1.613 . S
N845 C848 1.350 . S
N846 S844 1.610 . S
N846 C847 1.351 . S
C847 C841 1.428 . S
C847 N846 1.351 . S
C847 C848 1.434 . S
C848 C839 1.429 . S
C848 N845 1.350 . S
C848 C847 1.434 . S
C849 C850 1.369 . S
C849 C851 1.419 . S
C849 H853 0.930 . S
C850 C849 1.369 . S
C850 C859 1.429 . S
C851 C849 1.419 . S
C851 C852 1.363 . S
C851 H854 0.929 . S
C852 C851 1.363 . S
C852 C858 1.428 . S
H853 C849 0.930 . S
H854 C851 0.929 . S
S855 N856 1.613 . S
S855 N857 1.610 . S
N856 S855 1.613 . S
N856 C859 1.350 . S
N857 S855 1.610 . S
N857 C858 1.351 . S
C858 C852 1.428 . S
C858 N857 1.351 . S
C858 C859 1.434 . S
C859 C850 1.429 . S
C859 N856 1.350 . S
C859 C858 1.434 . S
C860 C861 1.369 . S
C860 C862 1.419 . S
C860 H864 0.930 . S
C861 C860 1.369 . S
C861 C870 1.429 . S
C862 C860 1.419 . S
C862 C863 1.363 . S
C862 H865 0.929 . S
C863 C862 1.363 . S
C863 C869 1.428 . S
H864 C860 0.930 . S
H865 C862 0.929 . S
S866 N867 1.613 . S
S866 N868 1.610 . S
N867 S866 1.613 . S
N867 C870 1.350 . S
N868 S866 1.610 . S
N868 C869 1.351 . S
C869 C863 1.428 . S
C869 N868 1.351 . S
C869 C870 1.434 . S
C870 C861 1.429 . S
C870 N867 1.350 . S
C870 C869 1.434 . S
C871 C872 1.369 . S
C871 C873 1.419 . S
C871 H875 0.930 . S
C872 C871 1.369 . S
C872 C881 1.429 . S
C873 C871 1.419 . S
C873 C874 1.363 . S
C873 H876 0.929 . S
C874 C873 1.363 . S
C874 C880 1.428 . S
H875 C871 0.930 . S
H876 C873 0.929 . S
S877 N878 1.613 . S
S877 N879 1.610 . S
N878 S877 1.613 . S
N878 C881 1.350 . S
N879 S877 1.610 . S
N879 C880 1.351 . S
C880 C874 1.428 . S
C880 N879 1.351 . S
C880 C881 1.434 . S
C881 C872 1.429 . S
C881 N878 1.350 . S
C881 C880 1.434 . S
C882 C883 1.369 . S
C882 C884 1.419 . S
C882 H886 0.930 . S
C883 C882 1.369 . S
C883 C892 1.429 . S
C884 C882 1.419 . S
C884 C885 1.363 . S
C884 H887 0.929 . S
C885 C884 1.363 . S
C885 C891 1.428 . S
H886 C882 0.930 . S
H887 C884 0.929 . S
S888 N889 1.613 . S
S888 N890 1.610 . S
N889 S888 1.613 . S
N889 C892 1.350 . S
N890 S888 1.610 . S
N890 C891 1.351 . S
C891 C885 1.428 . S
C891 N890 1.351 . S
C891 C892 1.434 . S
C892 C883 1.429 . S
C892 N889 1.350 . S
C892 C891 1.434 . S
C893 C894 1.369 . S
C893 C895 1.419 . S
C893 H897 0.930 . S
C894 C893 1.369 . S
C894 C903 1.429 . S
C895 C893 1.419 . S
C895 C896 1.363 . S
C895 H898 0.929 . S
C896 C895 1.363 . S
C896 C902 1.428 . S
H897 C893 0.930 . S
H898 C895 0.929 . S
S899 N900 1.613 . S
S899 N901 1.610 . S
N900 S899 1.613 . S
N900 C903 1.350 . S
N901 S899 1.610 . S
N901 C902 1.351 . S
C902 C896 1.428 . S
C902 N901 1.351 . S
C902 C903 1.434 . S
C903 C894 1.429 . S
C903 N900 1.350 . S
C903 C902 1.434 . S
C904 C905 1.369 . S
C904 C906 1.419 . S
C904 H908 0.930 . S
C905 C904 1.369 . S
C905 C914 1.429 . S
C906 C904 1.419 . S
C906 C907 1.363 . S
C906 H909 0.929 . S
C907 C906 1.363 . S
C907 C913 1.428 . S
H908 C904 0.930 . S
H909 C906 0.929 . S
S910 N911 1.613 . S
S910 N912 1.610 . S
N911 S910 1.613 . S
N911 C914 1.350 . S
N912 S910 1.610 . S
N912 C913 1.351 . S
C913 C907 1.428 . S
C913 N912 1.351 . S
C913 C914 1.434 . S
C914 C905 1.429 . S
C914 N911 1.350 . S
C914 C913 1.434 . S
C915 C916 1.369 . S
C915 C917 1.419 . S
C915 H919 0.930 . S
C916 C915 1.369 . S
C916 C925 1.429 . S
C917 C915 1.419 . S
C917 C918 1.363 . S
C917 H920 0.929 . S
C918 C917 1.363 . S
C918 C924 1.428 . S
H919 C915 0.930 . S
H920 C917 0.929 . S
S921 N922 1.613 . S
S921 N923 1.610 . S
N922 S921 1.613 . S
N922 C925 1.350 . S
N923 S921 1.610 . S
N923 C924 1.351 . S
C924 C918 1.428 . S
C924 N923 1.351 . S
C924 C925 1.434 . S
C925 C916 1.429 . S
C925 N922 1.350 . S
C925 C924 1.434 . S
C926 C927 1.369 . S
C926 C928 1.419 . S
C926 H930 0.930 . S
C927 C926 1.369 . S
C927 C936 1.429 . S
C928 C926 1.419 . S
C928 C929 1.363 . S
C928 H931 0.929 . S
C929 C928 1.363 . S
C929 C935 1.428 . S
H930 C926 0.930 . S
H931 C928 0.929 . S
S932 N933 1.613 . S
S932 N934 1.610 . S
N933 S932 1.613 . S
N933 C936 1.350 . S
N934 S932 1.610 . S
N934 C935 1.351 . S
C935 C929 1.428 . S
C935 N934 1.351 . S
C935 C936 1.434 . S
C936 C927 1.429 . S
C936 N933 1.350 . S
C936 C935 1.434 . S
C937 C938 1.369 . S
C937 C939 1.419 . S
C937 H941 0.930 . S
C938 C937 1.369 . S
C938 C947 1.429 . S
C939 C937 1.419 . S
C939 C940 1.363 . S
C939 H942 0.929 . S
C940 C939 1.363 . S
C940 C946 1.428 . S
H941 C937 0.930 . S
H942 C939 0.929 . S
S943 N944 1.613 . S
S943 N945 1.610 . S
N944 S943 1.613 . S
N944 C947 1.350 . S
N945 S943 1.610 . S
N945 C946 1.351 . S
C946 C940 1.428 . S
C946 N945 1.351 . S
C946 C947 1.434 . S
C947 C938 1.429 . S
C947 N944 1.350 . S
C947 C946 1.434 . S
C948 C949 1.369 . S
C948 C950 1.419 . S
C948 H952 0.930 . S
C949 C948 1.369 . S
C949 C958 1.429 . S
C950 C948 1.419 . S
C950 C951 1.363 . S
C950 H953 0.929 . S
C951 C950 1.363 . S
C951 C957 1.428 . S
H952 C948 0.930 . S
H953 C950 0.929 . S
S954 N955 1.613 . S
S954 N956 1.610 . S
N955 S954 1.613 . S
N955 C958 1.350 . S
N956 S954 1.610 . S
N956 C957 1.351 . S
C957 C951 1.428 . S
C957 N956 1.351 . S
C957 C958 1.434 . S
C958 C949 1.429 . S
C958 N955 1.350 . S
C958 C957 1.434 . S
C959 C960 1.369 . S
C959 C961 1.419 . S
C959 H963 0.930 . S
C960 C959 1.369 . S
C960 C969 1.429 . S
C961 C959 1.419 . S
C961 C962 1.363 . S
C961 H964 0.929 . S
C962 C961 1.363 . S
C962 C968 1.428 . S
H963 C959 0.930 . S
H964 C961 0.929 . S
S965 N966 1.613 . S
S965 N967 1.610 . S
N966 S965 1.613 . S
N966 C969 1.350 . S
N967 S965 1.610 . S
N967 C968 1.351 . S
C968 C962 1.428 . S
C968 N967 1.351 . S
C968 C969 1.434 . S
C969 C960 1.429 . S
C969 N966 1.350 . S
C969 C968 1.434 . S
C970 C971 1.369 . S
C970 C972 1.419 . S
C970 H974 0.930 . S
C971 C970 1.369 . S
C971 C980 1.429 . S
C972 C970 1.419 . S
C972 C973 1.363 . S
C972 H975 0.929 . S
C973 C972 1.363 . S
C973 C979 1.428 . S
H974 C970 0.930 . S
H975 C972 0.929 . S
S976 N977 1.613 . S
S976 N978 1.610 . S
N977 S976 1.613 . S
N977 C980 1.350 . S
N978 S976 1.610 . S
N978 C979 1.351 . S
C979 C973 1.428 . S
C979 N978 1.351 . S
C979 C980 1.434 . S
C980 C971 1.429 . S
C980 N977 1.350 . S
C980 C979 1.434 . S
C981 C982 1.369 . S
C981 C983 1.419 . S
C981 H985 0.930 . S
C982 C981 1.369 . S
C982 C991 1.429 . S
C983 C981 1.419 . S
C983 C984 1.363 . S
C983 H986 0.929 . S
C984 C983 1.363 . S
C984 C990 1.428 . S
H985 C981 0.930 . S
H986 C983 0.929 . S
S987 N988 1.613 . S
S987 N989 1.610 . S
N988 S987 1.613 . S
N988 C991 1.350 . S
N989 S987 1.610 . S
N989 C990 1.351 . S
C990 C984 1.428 . S
C990 N989 1.351 . S
C990 C991 1.434 . S
C991 C982 1.429 . S
C991 N988 1.350 . S
C991 C990 1.434 . S
C992 C993 1.369 . S
C992 C994 1.419 . S
C992 H996 0.930 . S
C993 C992 1.369 . S
C993 C1002 1.429 . S
C994 C992 1.419 . S
C994 C995 1.363 . S
C994 H997 0.929 . S
C995 C994 1.363 . S
C995 C1001 1.428 . S
H996 C992 0.930 . S
H997 C994 0.929 . S
S998 N999 1.613 . S
S998 N1000 1.610 . S
N999 S998 1.613 . S
N999 C1002 1.350 . S
N1000 S998 1.610 . S
N1000 C1001 1.351 . S
C1001 C995 1.428 . S
C1001 N1000 1.351 . S
C1001 C1002 1.434 . S
C1002 C993 1.429 . S
C1002 N999 1.350 . S
C1002 C1001 1.434 . S
C1003 C1004 1.369 . S
C1003 C1005 1.419 . S
C1003 H1007 0.930 . S
C1004 C1003 1.369 . S
C1004 C1013 1.429 . S
C1005 C1003 1.419 . S
C1005 C1006 1.363 . S
C1005 H1008 0.929 . S
C1006 C1005 1.363 . S
C1006 C1012 1.428 . S
H1007 C1003 0.930 . S
H1008 C1005 0.929 . S
S1009 N1010 1.613 . S
S1009 N1011 1.610 . S
N1010 S1009 1.613 . S
N1010 C1013 1.350 . S
N1011 S1009 1.610 . S
N1011 C1012 1.351 . S
C1012 C1006 1.428 . S
C1012 N1011 1.351 . S
C1012 C1013 1.434 . S
C1013 C1004 1.429 . S
C1013 N1010 1.350 . S
C1013 C1012 1.434 . S
C1014 C1015 1.369 . S
C1014 C1016 1.419 . S
C1014 H1018 0.930 . S
C1015 C1014 1.369 . S
C1015 C1024 1.429 . S
C1016 C1014 1.419 . S
C1016 C1017 1.363 . S
C1016 H1019 0.929 . S
C1017 C1016 1.363 . S
C1017 C1023 1.428 . S
H1018 C1014 0.930 . S
H1019 C1016 0.929 . S
S1020 N1021 1.613 . S
S1020 N1022 1.610 . S
N1021 S1020 1.613 . S
N1021 C1024 1.350 . S
N1022 S1020 1.610 . S
N1022 C1023 1.351 . S
C1023 C1017 1.428 . S
C1023 N1022 1.351 . S
C1023 C1024 1.434 . S
C1024 C1015 1.429 . S
C1024 N1021 1.350 . S
C1024 C1023 1.434 . S
C1025 C1026 1.369 . S
C1025 C1027 1.419 . S
C1025 H1029 0.930 . S
C1026 C1025 1.369 . S
C1026 C1035 1.429 . S
C1027 C1025 1.419 . S
C1027 C1028 1.363 . S
C1027 H1030 0.929 . S
C1028 C1027 1.363 . S
C1028 C1034 1.428 . S
H1029 C1025 0.930 . S
H1030 C1027 0.929 . S
S1031 N1032 1.613 . S
S1031 N1033 1.610 . S
N1032 S1031 1.613 . S
N1032 C1035 1.350 . S
N1033 S1031 1.610 . S
N1033 C1034 1.351 . S
C1034 C1028 1.428 . S
C1034 N1033 1.351 . S
C1034 C1035 1.434 . S
C1035 C1026 1.429 . S
C1035 N1032 1.350 . S
C1035 C1034 1.434 . S
C1036 C1037 1.369 . S
C1036 C1038 1.419 . S
C1036 H1040 0.930 . S
C1037 C1036 1.369 . S
C1037 C1046 1.429 . S
C1038 C1036 1.419 . S
C1038 C1039 1.363 . S
C1038 H1041 0.929 . S
C1039 C1038 1.363 . S
C1039 C1045 1.428 . S
H1040 C1036 0.930 . S
H1041 C1038 0.929 . S
S1042 N1043 1.613 . S
S1042 N1044 1.610 . S
N1043 S1042 1.613 . S
N1043 C1046 1.350 . S
N1044 S1042 1.610 . S
N1044 C1045 1.351 . S
C1045 C1039 1.428 . S
C1045 N1044 1.351 . S
C1045 C1046 1.434 . S
C1046 C1037 1.429 . S
C1046 N1043 1.350 . S
C1046 C1045 1.434 . S
C1047 C1048 1.369 . S
C1047 C1049 1.419 . S
C1047 H1051 0.930 . S
C1048 C1047 1.369 . S
C1048 C1057 1.429 . S
C1049 C1047 1.419 . S
C1049 C1050 1.363 . S
C1049 H1052 0.929 . S
C1050 C1049 1.363 . S
C1050 C1056 1.428 . S
H1051 C1047 0.930 . S
H1052 C1049 0.929 . S
S1053 N1054 1.613 . S
S1053 N1055 1.610 . S
N1054 S1053 1.613 . S
N1054 C1057 1.350 . S
N1055 S1053 1.610 . S
N1055 C1056 1.351 . S
C1056 C1050 1.428 . S
C1056 N1055 1.351 . S
C1056 C1057 1.434 . S
C1057 C1048 1.429 . S
C1057 N1054 1.350 . S
C1057 C1056 1.434 . S
C1058 C1059 1.369 . S
C1058 C1060 1.419 . S
C1058 H1062 0.930 . S
C1059 C1058 1.369 . S
C1059 C1068 1.429 . S
C1060 C1058 1.419 . S
C1060 C1061 1.363 . S
C1060 H1063 0.929 . S
C1061 C1060 1.363 . S
C1061 C1067 1.428 . S
H1062 C1058 0.930 . S
H1063 C1060 0.929 . S
S1064 N1065 1.613 . S
S1064 N1066 1.610 . S
N1065 S1064 1.613 . S
N1065 C1068 1.350 . S
N1066 S1064 1.610 . S
N1066 C1067 1.351 . S
C1067 C1061 1.428 . S
C1067 N1066 1.351 . S
C1067 C1068 1.434 . S
C1068 C1059 1.429 . S
C1068 N1065 1.350 . S
C1068 C1067 1.434 . S
C1069 C1070 1.369 . S
C1069 C1071 1.419 . S
C1069 H1073 0.930 . S
C1070 C1069 1.369 . S
C1070 C1079 1.429 . S
C1071 C1069 1.419 . S
C1071 C1072 1.363 . S
C1071 H1074 0.929 . S
C1072 C1071 1.363 . S
C1072 C1078 1.428 . S
H1073 C1069 0.930 . S
H1074 C1071 0.929 . S
S1075 N1076 1.613 . S
S1075 N1077 1.610 . S
N1076 S1075 1.613 . S
N1076 C1079 1.350 . S
N1077 S1075 1.610 . S
N1077 C1078 1.351 . S
C1078 C1072 1.428 . S
C1078 N1077 1.351 . S
C1078 C1079 1.434 . S
C1079 C1070 1.429 . S
C1079 N1076 1.350 . S
C1079 C1078 1.434 . S
C1080 C1081 1.369 . S
C1080 C1082 1.419 1_554 S
C1080 H1084 0.930 . S
C1081 C1080 1.369 . S
C1081 C1090 1.429 . S
C1082 C1080 1.419 1_556 S
C1082 C1083 1.363 . S
C1082 H1085 0.929 . S
C1083 C1082 1.363 . S
C1083 C1089 1.428 . S
H1084 C1080 0.930 . S
H1085 C1082 0.929 . S
S1086 N1087 1.618 1_556 S
S1086 N1088 1.606 . S
N1087 S1086 1.618 1_554 S
N1087 C1090 1.350 1_565 S
N1088 S1086 1.606 . S
N1088 C1089 1.351 1_565 S
C1089 C1083 1.428 . S
C1089 N1088 1.351 1_545 S
C1089 C1090 1.434 1_556 S
C1090 C1081 1.429 . S
C1090 N1087 1.350 1_545 S
C1090 C1089 1.434 1_554 S
C1091 C1092 1.369 . S
C1091 C1093 1.419 1_554 S
C1091 H1095 0.930 . S
C1092 C1091 1.369 . S
C1092 C1101 1.429 . S
C1093 C1091 1.419 1_556 S
C1093 C1094 1.363 . S
C1093 H1096 0.929 . S
C1094 C1093 1.363 . S
C1094 C1100 1.428 . S
H1095 C1091 0.930 . S
H1096 C1093 0.929 . S
S1097 N1098 1.618 1_556 S
S1097 N1099 1.606 . S
N1098 S1097 1.618 1_554 S
N1098 C1101 1.350 . S
N1099 S1097 1.606 . S
N1099 C1100 1.351 . S
C1100 C1094 1.428 . S
C1100 N1099 1.351 . S
C1100 C1101 1.434 1_556 S
C1101 C1092 1.429 . S
C1101 N1098 1.350 . S
C1101 C1100 1.434 1_554 S
C1102 C1103 1.369 . S
C1102 C1104 1.419 1_554 S
C1102 H1106 0.930 1_655 S
C1103 C1102 1.369 . S
C1103 C1112 1.429 . S
C1104 C1102 1.419 1_556 S
C1104 C1105 1.363 . S
C1104 H1107 0.929 1_655 S
C1105 C1104 1.363 . S
C1105 C1111 1.428 . S
H1106 C1102 0.930 1_455 S
H1107 C1104 0.929 1_455 S
S1108 N1109 1.618 1_556 S
S1108 N1110 1.606 . S
N1109 S1108 1.618 1_554 S
N1109 C1112 1.350 . S
N1110 S1108 1.606 . S
N1110 C1111 1.351 . S
C1111 C1105 1.428 . S
C1111 N1110 1.351 . S
C1111 C1112 1.434 1_556 S
C1112 C1103 1.429 . S
C1112 N1109 1.350 . S
C1112 C1111 1.434 1_554 S
C1113 C1114 1.369 . S
C1113 C1115 1.419 1_556 S
C1113 H1117 0.930 . S
C1114 C1113 1.369 . S
C1114 C1123 1.429 . S
C1115 C1113 1.419 1_554 S
C1115 C1116 1.363 . S
C1115 H1118 0.929 . S
C1116 C1115 1.363 . S
C1116 C1122 1.428 . S
H1117 C1113 0.930 . S
H1118 C1115 0.929 . S
S1119 N1120 1.618 1_554 S
S1119 N1121 1.606 . S
N1120 S1119 1.618 1_556 S
N1120 C1123 1.350 . S
N1121 S1119 1.606 . S
N1121 C1122 1.351 . S
C1122 C1116 1.428 . S
C1122 N1121 1.351 . S
C1122 C1123 1.434 1_554 S
C1123 C1114 1.429 . S
C1123 N1120 1.350 . S
C1123 C1122 1.434 1_556 S
C1124 C1125 1.369 . S
C1124 C1126 1.419 1_554 S
C1124 H1128 0.930 . S
C1125 C1124 1.369 . S
C1125 C1134 1.429 . S
C1126 C1124 1.419 1_556 S
C1126 C1127 1.363 . S
C1126 H1129 0.929 . S
C1127 C1126 1.363 . S
C1127 C1133 1.428 . S
H1128 C1124 0.930 . S
H1129 C1126 0.929 . S
S1130 N1131 1.618 1_556 S
S1130 N1132 1.606 . S
N1131 S1130 1.618 1_554 S
N1131 C1134 1.350 . S
N1132 S1130 1.606 . S
N1132 C1133 1.351 . S
C1133 C1127 1.428 . S
C1133 N1132 1.351 . S
C1133 C1134 1.434 1_556 S
C1134 C1125 1.429 . S
C1134 N1131 1.350 . S
C1134 C1133 1.434 1_554 S
C1135 C1136 1.369 . S
C1135 C1137 1.419 1_554 S
C1135 H1139 0.930 . S
C1136 C1135 1.369 . S
C1136 C1145 1.429 . S
C1137 C1135 1.419 1_556 S
C1137 C1138 1.363 . S
C1137 H1140 0.929 . S
C1138 C1137 1.363 . S
C1138 C1144 1.428 . S
H1139 C1135 0.930 . S
H1140 C1137 0.929 . S
S1141 N1142 1.618 1_556 S
S1141 N1143 1.606 . S
N1142 S1141 1.618 1_554 S
N1142 C1145 1.350 1_655 S
N1143 S1141 1.606 . S
N1143 C1144 1.351 1_655 S
C1144 C1138 1.428 . S
C1144 N1143 1.351 1_455 S
C1144 C1145 1.434 1_556 S
C1145 C1136 1.429 . S
C1145 N1142 1.350 1_455 S
C1145 C1144 1.434 1_554 S
C1146 C1147 1.369 . S
C1146 C1148 1.419 . S
C1146 H1150 0.930 1_655 S
C1147 C1146 1.369 . S
C1147 C1156 1.429 . S
C1148 C1146 1.419 . S
C1148 C1149 1.363 . S
C1148 H1151 0.929 1_655 S
C1149 C1148 1.363 . S
C1149 C1155 1.428 . S
H1150 C1146 0.930 1_455 S
H1151 C1148 0.929 1_455 S
S1152 N1153 1.613 . S
S1152 N1154 1.610 . S
N1153 S1152 1.613 . S
N1153 C1156 1.350 . S
N1154 S1152 1.610 . S
N1154 C1155 1.351 . S
C1155 C1149 1.428 . S
C1155 N1154 1.351 . S
C1155 C1156 1.434 . S
C1156 C1147 1.429 . S
C1156 N1153 1.350 . S
C1156 C1155 1.434 . S
C1157 C1158 1.369 . S
C1157 C1159 1.419 . S
C1157 H1161 0.930 1_565 S
C1158 C1157 1.369 . S
C1158 C1167 1.429 . S
C1159 C1157 1.419 . S
C1159 C1160 1.363 . S
C1159 H1162 0.929 1_565 S
C1160 C1159 1.363 . S
C1160 C1166 1.428 . S
H1161 C1157 0.930 1_545 S
H1162 C1159 0.929 1_545 S
S1163 N1164 1.613 . S
S1163 N1165 1.610 . S
N1164 S1163 1.613 . S
N1164 C1167 1.350 . S
N1165 S1163 1.610 . S
N1165 C1166 1.351 . S
C1166 C1160 1.428 . S
C1166 N1165 1.351 . S
C1166 C1167 1.434 . S
C1167 C1158 1.429 . S
C1167 N1164 1.350 . S
C1167 C1166 1.434 . S
C1168 C1169 1.369 . S
C1168 C1170 1.419 . S
C1168 H1172 0.930 . S
C1169 C1168 1.369 . S
C1169 C1178 1.429 . S
C1170 C1168 1.419 . S
C1170 C1171 1.363 . S
C1170 H1173 0.929 . S
C1171 C1170 1.363 . S
C1171 C1177 1.428 . S
H1172 C1168 0.930 . S
H1173 C1170 0.929 . S
S1174 N1175 1.613 . S
S1174 N1176 1.610 . S
N1175 S1174 1.613 . S
N1175 C1178 1.350 . S
N1176 S1174 1.610 . S
N1176 C1177 1.351 . S
C1177 C1171 1.428 . S
C1177 N1176 1.351 . S
C1177 C1178 1.434 . S
C1178 C1169 1.429 . S
C1178 N1175 1.350 . S
C1178 C1177 1.434 . S
C1179 C1180 1.369 . S
C1179 C1181 1.419 . S
C1179 H1183 0.930 . S
C1180 C1179 1.369 . S
C1180 C1189 1.429 . S
C1181 C1179 1.419 . S
C1181 C1182 1.363 . S
C1181 H1184 0.929 . S
C1182 C1181 1.363 . S
C1182 C1188 1.428 . S
H1183 C1179 0.930 . S
H1184 C1181 0.929 . S
S1185 N1186 1.613 . S
S1185 N1187 1.610 . S
N1186 S1185 1.613 . S
N1186 C1189 1.350 1_655 S
N1187 S1185 1.610 . S
N1187 C1188 1.351 1_655 S
C1188 C1182 1.428 . S
C1188 N1187 1.351 1_455 S
C1188 C1189 1.434 . S
C1189 C1180 1.429 . S
C1189 N1186 1.350 1_455 S
C1189 C1188 1.434 . S
C1190 C1191 1.369 . S
C1190 C1192 1.419 . S
C1190 H1194 0.930 . S
C1191 C1190 1.369 . S
C1191 C1200 1.429 . S
C1192 C1190 1.419 . S
C1192 C1193 1.363 . S
C1192 H1195 0.929 . S
C1193 C1192 1.363 . S
C1193 C1199 1.428 . S
H1194 C1190 0.930 . S
H1195 C1192 0.929 . S
S1196 N1197 1.613 . S
S1196 N1198 1.610 . S
N1197 S1196 1.613 . S
N1197 C1200 1.350 . S
N1198 S1196 1.610 . S
N1198 C1199 1.351 . S
C1199 C1193 1.428 . S
C1199 N1198 1.351 . S
C1199 C1200 1.434 . S
C1200 C1191 1.429 . S
C1200 N1197 1.350 . S
C1200 C1199 1.434 . S
C1201 C1202 1.369 . S
C1201 C1203 1.419 . S
C1201 H1205 0.930 . S
C1202 C1201 1.369 . S
C1202 C1211 1.429 . S
C1203 C1201 1.419 . S
C1203 C1204 1.363 . S
C1203 H1206 0.929 . S
C1204 C1203 1.363 . S
C1204 C1210 1.428 . S
H1205 C1201 0.930 . S
H1206 C1203 0.929 . S
S1207 N1208 1.613 . S
S1207 N1209 1.610 . S
N1208 S1207 1.613 . S
N1208 C1211 1.350 . S
N1209 S1207 1.610 . S
N1209 C1210 1.351 . S
C1210 C1204 1.428 . S
C1210 N1209 1.351 . S
C1210 C1211 1.434 . S
C1211 C1202 1.429 . S
C1211 N1208 1.350 . S
C1211 C1210 1.434 . S
C1212 C1213 1.369 . S
C1212 C1214 1.419 . S
C1212 H1216 0.930 . S
C1213 C1212 1.369 . S
C1213 C1222 1.429 . S
C1214 C1212 1.419 . S
C1214 C1215 1.363 . S
C1214 H1217 0.929 . S
C1215 C1214 1.363 . S
C1215 C1221 1.428 . S
H1216 C1212 0.930 . S
H1217 C1214 0.929 . S
S1218 N1219 1.613 . S
S1218 N1220 1.610 . S
N1219 S1218 1.613 . S
N1219 C1222 1.350 . S
N1220 S1218 1.610 . S
N1220 C1221 1.351 . S
C1221 C1215 1.428 . S
C1221 N1220 1.351 . S
C1221 C1222 1.434 . S
C1222 C1213 1.429 . S
C1222 N1219 1.350 . S
C1222 C1221 1.434 . S
C1223 C1224 1.369 . S
C1223 C1225 1.419 . S
C1223 H1227 0.930 . S
C1224 C1223 1.369 . S
C1224 C1233 1.429 . S
C1225 C1223 1.419 . S
C1225 C1226 1.363 . S
C1225 H1228 0.929 . S
C1226 C1225 1.363 . S
C1226 C1232 1.428 . S
H1227 C1223 0.930 . S
H1228 C1225 0.929 . S
S1229 N1230 1.613 . S
S1229 N1231 1.610 . S
N1230 S1229 1.613 . S
N1230 C1233 1.350 . S
N1231 S1229 1.610 . S
N1231 C1232 1.351 . S
C1232 C1226 1.428 . S
C1232 N1231 1.351 . S
C1232 C1233 1.434 . S
C1233 C1224 1.429 . S
C1233 N1230 1.350 . S
C1233 C1232 1.434 . S
C1234 C1235 1.369 . S
C1234 C1236 1.419 . S
C1234 H1238 0.930 . S
C1235 C1234 1.369 . S
C1235 C1244 1.429 . S
C1236 C1234 1.419 . S
C1236 C1237 1.363 . S
C1236 H1239 0.929 . S
C1237 C1236 1.363 . S
C1237 C1243 1.428 . S
H1238 C1234 0.930 . S
H1239 C1236 0.929 . S
S1240 N1241 1.613 . S
S1240 N1242 1.610 . S
N1241 S1240 1.613 . S
N1241 C1244 1.350 . S
N1242 S1240 1.610 . S
N1242 C1243 1.351 . S
C1243 C1237 1.428 . S
C1243 N1242 1.351 . S
C1243 C1244 1.434 . S
C1244 C1235 1.429 . S
C1244 N1241 1.350 . S
C1244 C1243 1.434 . S
C1245 C1246 1.369 . S
C1245 C1247 1.419 . S
C1245 H1249 0.930 . S
C1246 C1245 1.369 . S
C1246 C1255 1.429 . S
C1247 C1245 1.419 . S
C1247 C1248 1.363 . S
C1247 H1250 0.929 . S
C1248 C1247 1.363 . S
C1248 C1254 1.428 . S
H1249 C1245 0.930 . S
H1250 C1247 0.929 . S
S1251 N1252 1.613 . S
S1251 N1253 1.610 . S
N1252 S1251 1.613 . S
N1252 C1255 1.350 . S
N1253 S1251 1.610 . S
N1253 C1254 1.351 . S
C1254 C1248 1.428 . S
C1254 N1253 1.351 . S
C1254 C1255 1.434 . S
C1255 C1246 1.429 . S
C1255 N1252 1.350 . S
C1255 C1254 1.434 . S
C1256 C1257 1.369 . S
C1256 C1258 1.419 . S
C1256 H1260 0.930 . S
C1257 C1256 1.369 . S
C1257 C1266 1.429 . S
C1258 C1256 1.419 . S
C1258 C1259 1.363 . S
C1258 H1261 0.929 . S
C1259 C1258 1.363 . S
C1259 C1265 1.428 . S
H1260 C1256 0.930 . S
H1261 C1258 0.929 . S
S1262 N1263 1.613 . S
S1262 N1264 1.610 . S
N1263 S1262 1.613 . S
N1263 C1266 1.350 . S
N1264 S1262 1.610 . S
N1264 C1265 1.351 . S
C1265 C1259 1.428 . S
C1265 N1264 1.351 . S
C1265 C1266 1.434 . S
C1266 C1257 1.429 . S
C1266 N1263 1.350 . S
C1266 C1265 1.434 . S
C1267 C1268 1.369 . S
C1267 C1269 1.419 . S
C1267 H1271 0.930 . S
C1268 C1267 1.369 . S
C1268 C1277 1.429 . S
C1269 C1267 1.419 . S
C1269 C1270 1.363 . S
C1269 H1272 0.929 . S
C1270 C1269 1.363 . S
C1270 C1276 1.428 . S
H1271 C1267 0.930 . S
H1272 C1269 0.929 . S
S1273 N1274 1.613 . S
S1273 N1275 1.610 . S
N1274 S1273 1.613 . S
N1274 C1277 1.350 . S
N1275 S1273 1.610 . S
N1275 C1276 1.351 . S
C1276 C1270 1.428 . S
C1276 N1275 1.351 . S
C1276 C1277 1.434 . S
C1277 C1268 1.429 . S
C1277 N1274 1.350 . S
C1277 C1276 1.434 . S
C1278 C1279 1.369 . S
C1278 C1280 1.419 . S
C1278 H1282 0.930 . S
C1279 C1278 1.369 . S
C1279 C1288 1.429 . S
C1280 C1278 1.419 . S
C1280 C1281 1.363 . S
C1280 H1283 0.929 . S
C1281 C1280 1.363 . S
C1281 C1287 1.428 . S
H1282 C1278 0.930 . S
H1283 C1280 0.929 . S
S1284 N1285 1.613 . S
S1284 N1286 1.610 . S
N1285 S1284 1.613 . S
N1285 C1288 1.350 . S
N1286 S1284 1.610 . S
N1286 C1287 1.351 . S
C1287 C1281 1.428 . S
C1287 N1286 1.351 . S
C1287 C1288 1.434 . S
C1288 C1279 1.429 . S
C1288 N1285 1.350 . S
C1288 C1287 1.434 . S
C1289 C1290 1.369 . S
C1289 C1291 1.419 . S
C1289 H1293 0.930 . S
C1290 C1289 1.369 . S
C1290 C1299 1.429 . S
C1291 C1289 1.419 . S
C1291 C1292 1.363 . S
C1291 H1294 0.929 . S
C1292 C1291 1.363 . S
C1292 C1298 1.428 . S
H1293 C1289 0.930 . S
H1294 C1291 0.929 . S
S1295 N1296 1.613 . S
S1295 N1297 1.610 . S
N1296 S1295 1.613 . S
N1296 C1299 1.350 . S
N1297 S1295 1.610 . S
N1297 C1298 1.351 . S
C1298 C1292 1.428 . S
C1298 N1297 1.351 . S
C1298 C1299 1.434 . S
C1299 C1290 1.429 . S
C1299 N1296 1.350 . S
C1299 C1298 1.434 . S
C1300 C1301 1.369 . S
C1300 C1302 1.419 . S
C1300 H1304 0.930 . S
C1301 C1300 1.369 . S
C1301 C1310 1.429 . S
C1302 C1300 1.419 . S
C1302 C1303 1.363 . S
C1302 H1305 0.929 . S
C1303 C1302 1.363 . S
C1303 C1309 1.428 . S
H1304 C1300 0.930 . S
H1305 C1302 0.929 . S
S1306 N1307 1.613 . S
S1306 N1308 1.610 . S
N1307 S1306 1.613 . S
N1307 C1310 1.350 . S
N1308 S1306 1.610 . S
N1308 C1309 1.351 . S
C1309 C1303 1.428 . S
C1309 N1308 1.351 . S
C1309 C1310 1.434 . S
C1310 C1301 1.429 . S
C1310 N1307 1.350 . S
C1310 C1309 1.434 . S
C1311 C1312 1.369 . S
C1311 C1313 1.419 . S
C1311 H1315 0.930 . S
C1312 C1311 1.369 . S
C1312 C1321 1.429 . S
C1313 C1311 1.419 . S
C1313 C1314 1.363 . S
C1313 H1316 0.929 . S
C1314 C1313 1.363 . S
C1314 C1320 1.428 . S
H1315 C1311 0.930 . S
H1316 C1313 0.929 . S
S1317 N1318 1.613 . S
S1317 N1319 1.610 . S
N1318 S1317 1.613 . S
N1318 C1321 1.350 . S
N1319 S1317 1.610 . S
N1319 C1320 1.351 . S
C1320 C1314 1.428 . S
C1320 N1319 1.351 . S
C1320 C1321 1.434 . S
C1321 C1312 1.429 . S
C1321 N1318 1.350 . S
C1321 C1320 1.434 . S
C1322 C1323 1.369 . S
C1322 C1324 1.419 . S
C1322 H1326 0.930 . S
C1323 C1322 1.369 . S
C1323 C1332 1.429 . S
C1324 C1322 1.419 . S
C1324 C1325 1.363 . S
C1324 H1327 0.929 . S
C1325 C1324 1.363 . S
C1325 C1331 1.428 . S
H1326 C1322 0.930 . S
H1327 C1324 0.929 . S
S1328 N1329 1.613 . S
S1328 N1330 1.610 . S
N1329 S1328 1.613 . S
N1329 C1332 1.350 . S
N1330 S1328 1.610 . S
N1330 C1331 1.351 . S
C1331 C1325 1.428 . S
C1331 N1330 1.351 . S
C1331 C1332 1.434 . S
C1332 C1323 1.429 . S
C1332 N1329 1.350 . S
C1332 C1331 1.434 . S
C1333 C1334 1.369 . S
C1333 C1335 1.419 . S
C1333 H1337 0.930 . S
C1334 C1333 1.369 . S
C1334 C1343 1.429 . S
C1335 C1333 1.419 . S
C1335 C1336 1.363 . S
C1335 H1338 0.929 . S
C1336 C1335 1.363 . S
C1336 C1342 1.428 . S
H1337 C1333 0.930 . S
H1338 C1335 0.929 . S
S1339 N1340 1.613 . S
S1339 N1341 1.610 . S
N1340 S1339 1.613 . S
N1340 C1343 1.350 . S
N1341 S1339 1.610 . S
N1341 C1342 1.351 . S
C1342 C1336 1.428 . S
C1342 N1341 1.351 . S
C1342 C1343 1.434 . S
C1343 C1334 1.429 . S
C1343 N1340 1.350 . S
C1343 C1342 1.434 . S
C1344 C1345 1.369 . S
C1344 C1346 1.419 1_545 S
C1344 H1348 0.930 . S
C1345 C1344 1.369 . S
C1345 C1354 1.429 . S
C1346 C1344 1.419 1_565 S
C1346 C1347 1.363 . S
C1346 H1349 0.929 . S
C1347 C1346 1.363 . S
C1347 C1353 1.428 . S
H1348 C1344 0.930 . S
H1349 C1346 0.929 . S
S1350 N1351 1.613 . S
S1350 N1352 1.610 1_545 S
N1351 S1350 1.613 . S
N1351 C1354 1.350 . S
N1352 S1350 1.610 1_565 S
N1352 C1353 1.351 . S
C1353 C1347 1.428 . S
C1353 N1352 1.351 . S
C1353 C1354 1.434 1_565 S
C1354 C1345 1.429 . S
C1354 N1351 1.350 . S
C1354 C1353 1.434 1_545 S
C1355 C1356 1.369 . S
C1355 C1357 1.419 . S
C1355 H1359 0.930 . S
C1356 C1355 1.369 . S
C1356 C1365 1.429 . S
C1357 C1355 1.419 . S
C1357 C1358 1.363 . S
C1357 H1360 0.929 . S
C1358 C1357 1.363 . S
C1358 C1364 1.428 . S
H1359 C1355 0.930 . S
H1360 C1357 0.929 . S
S1361 N1362 1.613 . S
S1361 N1363 1.610 . S
N1362 S1361 1.613 . S
N1362 C1365 1.350 . S
N1363 S1361 1.610 . S
N1363 C1364 1.351 . S
C1364 C1358 1.428 . S
C1364 N1363 1.351 . S
C1364 C1365 1.434 . S
C1365 C1356 1.429 . S
C1365 N1362 1.350 . S
C1365 C1364 1.434 . S
C1366 C1367 1.369 1_455 S
C1366 C1368 1.419 . S
C1366 H1370 0.930 . S
C1367 C1366 1.369 1_655 S
C1367 C1376 1.429 . S
C1368 C1366 1.419 . S
C1368 C1369 1.363 . S
C1368 H1371 0.929 . S
C1369 C1368 1.363 . S
C1369 C1375 1.428 1_455 S
H1370 C1366 0.930 . S
H1371 C1368 0.929 . S
S1372 N1373 1.613 . S
S1372 N1374 1.610 . S
N1373 S1372 1.613 . S
N1373 C1376 1.350 . S
N1374 S1372 1.610 . S
N1374 C1375 1.351 . S
C1375 C1369 1.428 1_655 S
C1375 N1374 1.351 . S
C1375 C1376 1.434 . S
C1376 C1367 1.429 . S
C1376 N1373 1.350 . S
C1376 C1375 1.434 . S
C1377 C1378 1.369 1_655 S
C1377 C1379 1.419 . S
C1377 H1381 0.930 . S
C1378 C1377 1.369 1_455 S
C1378 C1387 1.429 . S
C1379 C1377 1.419 . S
C1379 C1380 1.363 . S
C1379 H1382 0.929 . S
C1380 C1379 1.363 . S
C1380 C1386 1.428 1_655 S
H1381 C1377 0.930 . S
H1382 C1379 0.929 . S
S1383 N1384 1.613 . S
S1383 N1385 1.610 . S
N1384 S1383 1.613 . S
N1384 C1387 1.350 . S
N1385 S1383 1.610 . S
N1385 C1386 1.351 . S
C1386 C1380 1.428 1_455 S
C1386 N1385 1.351 . S
C1386 C1387 1.434 . S
C1387 C1378 1.429 . S
C1387 N1384 1.350 . S
C1387 C1386 1.434 . S
C1388 C1389 1.369 1_565 S
C1388 C1390 1.419 . S
C1388 H1392 0.930 . S
C1389 C1388 1.369 1_545 S
C1389 C1398 1.429 . S
C1390 C1388 1.419 . S
C1390 C1391 1.363 . S
C1390 H1393 0.929 . S
C1391 C1390 1.363 . S
C1391 C1397 1.428 1_565 S
H1392 C1388 0.930 . S
H1393 C1390 0.929 . S
S1394 N1395 1.613 . S
S1394 N1396 1.610 . S
N1395 S1394 1.613 . S
N1395 C1398 1.350 . S
N1396 S1394 1.610 . S
N1396 C1397 1.351 . S
C1397 C1391 1.428 1_545 S
C1397 N1396 1.351 . S
C1397 C1398 1.434 . S
C1398 C1389 1.429 . S
C1398 N1395 1.350 . S
C1398 C1397 1.434 . S
C1399 C1400 1.369 . S
C1399 C1401 1.419 . S
C1399 H1403 0.930 . S
C1400 C1399 1.369 . S
C1400 C1409 1.429 . S
C1401 C1399 1.419 . S
C1401 C1402 1.363 . S
C1401 H1404 0.929 . S
C1402 C1401 1.363 . S
C1402 C1408 1.428 . S
H1403 C1399 0.930 . S
H1404 C1401 0.929 . S
S1405 N1406 1.613 . S
S1405 N1407 1.610 . S
N1406 S1405 1.613 . S
N1406 C1409 1.350 . S
N1407 S1405 1.610 . S
N1407 C1408 1.351 . S
C1408 C1402 1.428 . S
C1408 N1407 1.351 . S
C1408 C1409 1.434 . S
C1409 C1400 1.429 . S
C1409 N1406 1.350 . S
C1409 C1408 1.434 . S
C1410 C1411 1.369 1_565 S
C1410 C1412 1.419 . S
C1410 H1414 0.930 . S
C1411 C1410 1.369 1_545 S
C1411 C1420 1.429 . S
C1412 C1410 1.419 . S
C1412 C1413 1.363 . S
C1412 H1415 0.929 . S
C1413 C1412 1.363 . S
C1413 C1419 1.428 1_565 S
H1414 C1410 0.930 . S
H1415 C1412 0.929 . S
S1416 N1417 1.613 . S
S1416 N1418 1.610 . S
N1417 S1416 1.613 . S
N1417 C1420 1.350 . S
N1418 S1416 1.610 . S
N1418 C1419 1.351 . S
C1419 C1413 1.428 1_545 S
C1419 N1418 1.351 . S
C1419 C1420 1.434 . S
C1420 C1411 1.429 . S
C1420 N1417 1.350 . S
C1420 C1419 1.434 . S
C1421 C1422 1.369 . S
C1421 C1423 1.419 . S
C1421 H1425 0.930 . S
C1422 C1421 1.369 . S
C1422 C1431 1.429 . S
C1423 C1421 1.419 . S
C1423 C1424 1.363 . S
C1423 H1426 0.929 . S
C1424 C1423 1.363 . S
C1424 C1430 1.428 . S
H1425 C1421 0.930 . S
H1426 C1423 0.929 . S
S1427 N1428 1.613 . S
S1427 N1429 1.610 . S
N1428 S1427 1.613 . S
N1428 C1431 1.350 . S
N1429 S1427 1.610 . S
N1429 C1430 1.351 . S
C1430 C1424 1.428 . S
C1430 N1429 1.351 . S
C1430 C1431 1.434 . S
C1431 C1422 1.429 . S
C1431 N1428 1.350 . S
C1431 C1430 1.434 . S
C1432 C1433 1.369 . S
C1432 C1434 1.419 . S
C1432 H1436 0.930 . S
C1433 C1432 1.369 . S
C1433 C1442 1.429 1_455 S
C1434 C1432 1.419 . S
C1434 C1435 1.363 1_455 S
C1434 H1437 0.929 . S
C1435 C1434 1.363 1_655 S
C1435 C1441 1.428 . S
H1436 C1432 0.930 . S
H1437 C1434 0.929 . S
S1438 N1439 1.613 . S
S1438 N1440 1.610 . S
N1439 S1438 1.613 . S
N1439 C1442 1.350 . S
N1440 S1438 1.610 . S
N1440 C1441 1.351 . S
C1441 C1435 1.428 . S
C1441 N1440 1.351 . S
C1441 C1442 1.434 . S
C1442 C1433 1.429 1_655 S
C1442 N1439 1.350 . S
C1442 C1441 1.434 . S
C1443 C1444 1.369 . S
C1443 C1445 1.419 . S
C1443 H1447 0.930 . S
C1444 C1443 1.369 . S
C1444 C1453 1.429 1_655 S
C1445 C1443 1.419 . S
C1445 C1446 1.363 1_655 S
C1445 H1448 0.929 . S
C1446 C1445 1.363 1_455 S
C1446 C1452 1.428 . S
H1447 C1443 0.930 . S
H1448 C1445 0.929 . S
S1449 N1450 1.613 . S
S1449 N1451 1.610 . S
N1450 S1449 1.613 . S
N1450 C1453 1.350 . S
N1451 S1449 1.610 . S
N1451 C1452 1.351 . S
C1452 C1446 1.428 . S
C1452 N1451 1.351 . S
C1452 C1453 1.434 . S
C1453 C1444 1.429 1_455 S
C1453 N1450 1.350 . S
C1453 C1452 1.434 . S
C1454 C1455 1.369 1_565 S
C1454 C1456 1.419 . S
C1454 H1458 0.930 . S
C1455 C1454 1.369 1_545 S
C1455 C1464 1.429 . S
C1456 C1454 1.419 . S
C1456 C1457 1.363 . S
C1456 H1459 0.929 . S
C1457 C1456 1.363 . S
C1457 C1463 1.428 1_565 S
H1458 C1454 0.930 . S
H1459 C1456 0.929 . S
S1460 N1461 1.613 . S
S1460 N1462 1.610 . S
N1461 S1460 1.613 . S
N1461 C1464 1.350 . S
N1462 S1460 1.610 . S
N1462 C1463 1.351 . S
C1463 C1457 1.428 1_545 S
C1463 N1462 1.351 . S
C1463 C1464 1.434 . S
C1464 C1455 1.429 . S
C1464 N1461 1.350 . S
C1464 C1463 1.434 . S
C1465 C1466 1.369 . S
C1465 C1467 1.419 . S
C1465 H1469 0.930 . S
C1466 C1465 1.369 . S
C1466 C1475 1.429 . S
C1467 C1465 1.419 . S
C1467 C1468 1.363 . S
C1467 H1470 0.929 . S
C1468 C1467 1.363 . S
C1468 C1474 1.428 . S
H1469 C1465 0.930 . S
H1470 C1467 0.929 . S
S1471 N1472 1.613 . S
S1471 N1473 1.610 . S
N1472 S1471 1.613 . S
N1472 C1475 1.350 . S
N1473 S1471 1.610 . S
N1473 C1474 1.351 . S
C1474 C1468 1.428 . S
C1474 N1473 1.351 . S
C1474 C1475 1.434 . S
C1475 C1466 1.429 . S
C1475 N1472 1.350 . S
C1475 C1474 1.434 . S
C1476 C1477 1.369 . S
C1476 C1478 1.419 . S
C1476 H1480 0.930 . S
C1477 C1476 1.369 . S
C1477 C1486 1.429 . S
C1478 C1476 1.419 . S
C1478 C1479 1.363 . S
C1478 H1481 0.929 . S
C1479 C1478 1.363 . S
C1479 C1485 1.428 . S
H1480 C1476 0.930 . S
H1481 C1478 0.929 . S
S1482 N1483 1.613 . S
S1482 N1484 1.610 . S
N1483 S1482 1.613 . S
N1483 C1486 1.350 . S
N1484 S1482 1.610 . S
N1484 C1485 1.351 . S
C1485 C1479 1.428 . S
C1485 N1484 1.351 . S
C1485 C1486 1.434 . S
C1486 C1477 1.429 . S
C1486 N1483 1.350 . S
C1486 C1485 1.434 . S
C1487 C1488 1.369 . S
C1487 C1489 1.419 . S
C1487 H1491 0.930 . S
C1488 C1487 1.369 . S
C1488 C1497 1.429 . S
C1489 C1487 1.419 . S
C1489 C1490 1.363 . S
C1489 H1492 0.929 . S
C1490 C1489 1.363 . S
C1490 C1496 1.428 . S
H1491 C1487 0.930 . S
H1492 C1489 0.929 . S
S1493 N1494 1.613 . S
S1493 N1495 1.610 . S
N1494 S1493 1.613 . S
N1494 C1497 1.350 . S
N1495 S1493 1.610 . S
N1495 C1496 1.351 . S
C1496 C1490 1.428 . S
C1496 N1495 1.351 . S
C1496 C1497 1.434 . S
C1497 C1488 1.429 . S
C1497 N1494 1.350 . S
C1497 C1496 1.434 . S
C1498 C1499 1.369 . S
C1498 C1500 1.419 . S
C1498 H1502 0.930 . S
C1499 C1498 1.369 . S
C1499 C1508 1.429 . S
C1500 C1498 1.419 . S
C1500 C1501 1.363 . S
C1500 H1503 0.929 . S
C1501 C1500 1.363 . S
C1501 C1507 1.428 . S
H1502 C1498 0.930 . S
H1503 C1500 0.929 . S
S1504 N1505 1.613 . S
S1504 N1506 1.610 . S
N1505 S1504 1.613 . S
N1505 C1508 1.350 . S
N1506 S1504 1.610 . S
N1506 C1507 1.351 . S
C1507 C1501 1.428 . S
C1507 N1506 1.351 . S
C1507 C1508 1.434 . S
C1508 C1499 1.429 . S
C1508 N1505 1.350 . S
C1508 C1507 1.434 . S
C1509 C1510 1.369 . S
C1509 C1511 1.419 . S
C1509 H1513 0.930 . S
C1510 C1509 1.369 . S
C1510 C1519 1.429 . S
C1511 C1509 1.419 . S
C1511 C1512 1.363 . S
C1511 H1514 0.929 . S
C1512 C1511 1.363 . S
C1512 C1518 1.428 . S
H1513 C1509 0.930 . S
H1514 C1511 0.929 . S
S1515 N1516 1.613 . S
S1515 N1517 1.610 . S
N1516 S1515 1.613 . S
N1516 C1519 1.350 . S
N1517 S1515 1.610 . S
N1517 C1518 1.351 . S
C1518 C1512 1.428 . S
C1518 N1517 1.351 . S
C1518 C1519 1.434 . S
C1519 C1510 1.429 . S
C1519 N1516 1.350 . S
C1519 C1518 1.434 . S
C1520 C1521 1.369 . S
C1520 C1522 1.419 . S
C1520 H1524 0.930 . S
C1521 C1520 1.369 . S
C1521 C1530 1.429 . S
C1522 C1520 1.419 . S
C1522 C1523 1.363 . S
C1522 H1525 0.929 . S
C1523 C1522 1.363 . S
C1523 C1529 1.428 . S
H1524 C1520 0.930 . S
H1525 C1522 0.929 . S
S1526 N1527 1.613 . S
S1526 N1528 1.610 . S
N1527 S1526 1.613 . S
N1527 C1530 1.350 . S
N1528 S1526 1.610 . S
N1528 C1529 1.351 . S
C1529 C1523 1.428 . S
C1529 N1528 1.351 . S
C1529 C1530 1.434 . S
C1530 C1521 1.429 . S
C1530 N1527 1.350 . S
C1530 C1529 1.434 . S
C1531 C1532 1.369 . S
C1531 C1533 1.419 . S
C1531 H1535 0.930 . S
C1532 C1531 1.369 . S
C1532 C1541 1.429 . S
C1533 C1531 1.419 . S
C1533 C1534 1.363 . S
C1533 H1536 0.929 . S
C1534 C1533 1.363 . S
C1534 C1540 1.428 . S
H1535 C1531 0.930 . S
H1536 C1533 0.929 . S
S1537 N1538 1.613 . S
S1537 N1539 1.610 . S
N1538 S1537 1.613 . S
N1538 C1541 1.350 . S
N1539 S1537 1.610 . S
N1539 C1540 1.351 . S
C1540 C1534 1.428 . S
C1540 N1539 1.351 . S
C1540 C1541 1.434 . S
C1541 C1532 1.429 . S
C1541 N1538 1.350 . S
C1541 C1540 1.434 . S
C1542 C1543 1.369 . S
C1542 C1544 1.419 . S
C1542 H1546 0.930 . S
C1543 C1542 1.369 . S
C1543 C1552 1.429 . S
C1544 C1542 1.419 . S
C1544 C1545 1.363 . S
C1544 H1547 0.929 . S
C1545 C1544 1.363 . S
C1545 C1551 1.428 . S
H1546 C1542 0.930 . S
H1547 C1544 0.929 . S
S1548 N1549 1.613 . S
S1548 N1550 1.610 . S
N1549 S1548 1.613 . S
N1549 C1552 1.350 . S
N1550 S1548 1.610 . S
N1550 C1551 1.351 . S
C1551 C1545 1.428 . S
C1551 N1550 1.351 . S
C1551 C1552 1.434 . S
C1552 C1543 1.429 . S
C1552 N1549 1.350 . S
C1552 C1551 1.434 . S
C1553 C1554 1.369 . S
C1553 C1555 1.419 . S
C1553 H1557 0.930 . S
C1554 C1553 1.369 . S
C1554 C1563 1.429 . S
C1555 C1553 1.419 . S
C1555 C1556 1.363 . S
C1555 H1558 0.929 . S
C1556 C1555 1.363 . S
C1556 C1562 1.428 . S
H1557 C1553 0.930 . S
H1558 C1555 0.929 . S
S1559 N1560 1.613 . S
S1559 N1561 1.610 . S
N1560 S1559 1.613 . S
N1560 C1563 1.350 . S
N1561 S1559 1.610 . S
N1561 C1562 1.351 . S
C1562 C1556 1.428 . S
C1562 N1561 1.351 . S
C1562 C1563 1.434 . S
C1563 C1554 1.429 . S
C1563 N1560 1.350 . S
C1563 C1562 1.434 . S
C1564 C1565 1.369 . S
C1564 C1566 1.419 . S
C1564 H1568 0.930 . S
C1565 C1564 1.369 . S
C1565 C1574 1.429 . S
C1566 C1564 1.419 . S
C1566 C1567 1.363 . S
C1566 H1569 0.929 . S
C1567 C1566 1.363 . S
C1567 C1573 1.428 . S
H1568 C1564 0.930 . S
H1569 C1566 0.929 . S
S1570 N1571 1.613 . S
S1570 N1572 1.610 . S
N1571 S1570 1.613 . S
N1571 C1574 1.350 . S
N1572 S1570 1.610 . S
N1572 C1573 1.351 . S
C1573 C1567 1.428 . S
C1573 N1572 1.351 . S
C1573 C1574 1.434 . S
C1574 C1565 1.429 . S
C1574 N1571 1.350 . S
C1574 C1573 1.434 . S
C1575 C1576 1.369 . S
C1575 C1577 1.419 . S
C1575 H1579 0.930 . S
C1576 C1575 1.369 . S
C1576 C1585 1.429 . S
C1577 C1575 1.419 . S
C1577 C1578 1.363 . S
C1577 H1580 0.929 . S
C1578 C1577 1.363 . S
C1578 C1584 1.428 . S
H1579 C1575 0.930 . S
H1580 C1577 0.929 . S
S1581 N1582 1.613 . S
S1581 N1583 1.610 . S
N1582 S1581 1.613 . S
N1582 C1585 1.350 . S
N1583 S1581 1.610 . S
N1583 C1584 1.351 . S
C1584 C1578 1.428 . S
C1584 N1583 1.351 . S
C1584 C1585 1.434 . S
C1585 C1576 1.429 . S
C1585 N1582 1.350 . S
C1585 C1584 1.434 . S
C1586 C1587 1.369 . S
C1586 C1588 1.419 . S
C1586 H1590 0.930 . S
C1587 C1586 1.369 . S
C1587 C1596 1.429 . S
C1588 C1586 1.419 . S
C1588 C1589 1.363 . S
C1588 H1591 0.929 . S
C1589 C1588 1.363 . S
C1589 C1595 1.428 . S
H1590 C1586 0.930 . S
H1591 C1588 0.929 . S
S1592 N1593 1.613 . S
S1592 N1594 1.610 . S
N1593 S1592 1.613 . S
N1593 C1596 1.350 . S
N1594 S1592 1.610 . S
N1594 C1595 1.351 . S
C1595 C1589 1.428 . S
C1595 N1594 1.351 . S
C1595 C1596 1.434 . S
C1596 C1587 1.429 . S
C1596 N1593 1.350 . S
C1596 C1595 1.434 . S
C1597 C1598 1.369 . S
C1597 C1599 1.419 . S
C1597 H1601 0.930 . S
C1598 C1597 1.369 . S
C1598 C1607 1.429 . S
C1599 C1597 1.419 . S
C1599 C1600 1.363 . S
C1599 H1602 0.929 . S
C1600 C1599 1.363 . S
C1600 C1606 1.428 . S
H1601 C1597 0.930 . S
H1602 C1599 0.929 . S
S1603 N1604 1.613 . S
S1603 N1605 1.610 . S
N1604 S1603 1.613 . S
N1604 C1607 1.350 . S
N1605 S1603 1.610 . S
N1605 C1606 1.351 . S
C1606 C1600 1.428 . S
C1606 N1605 1.351 . S
C1606 C1607 1.434 . S
C1607 C1598 1.429 . S
C1607 N1604 1.350 . S
C1607 C1606 1.434 . S
C1608 C1609 1.369 . S
C1608 C1610 1.419 . S
C1608 H1612 0.930 . S
C1609 C1608 1.369 . S
C1609 C1618 1.429 . S
C1610 C1608 1.419 . S
C1610 C1611 1.363 . S
C1610 H1613 0.929 . S
C1611 C1610 1.363 . S
C1611 C1617 1.428 . S
H1612 C1608 0.930 . S
H1613 C1610 0.929 . S
S1614 N1615 1.613 . S
S1614 N1616 1.610 . S
N1615 S1614 1.613 . S
N1615 C1618 1.350 . S
N1616 S1614 1.610 . S
N1616 C1617 1.351 . S
C1617 C1611 1.428 . S
C1617 N1616 1.351 . S
C1617 C1618 1.434 . S
C1618 C1609 1.429 . S
C1618 N1615 1.350 . S
C1618 C1617 1.434 . S
C1619 C1620 1.369 . S
C1619 C1621 1.419 . S
C1619 H1623 0.930 . S
C1620 C1619 1.369 . S
C1620 C1629 1.429 . S
C1621 C1619 1.419 . S
C1621 C1622 1.363 . S
C1621 H1624 0.929 . S
C1622 C1621 1.363 . S
C1622 C1628 1.428 . S
H1623 C1619 0.930 . S
H1624 C1621 0.929 . S
S1625 N1626 1.613 . S
S1625 N1627 1.610 . S
N1626 S1625 1.613 . S
N1626 C1629 1.350 . S
N1627 S1625 1.610 . S
N1627 C1628 1.351 . S
C1628 C1622 1.428 . S
C1628 N1627 1.351 . S
C1628 C1629 1.434 . S
C1629 C1620 1.429 . S
C1629 N1626 1.350 . S
C1629 C1628 1.434 . S
C1630 C1631 1.369 . S
C1630 C1632 1.419 . S
C1630 H1634 0.930 . S
C1631 C1630 1.369 . S
C1631 C1640 1.429 . S
C1632 C1630 1.419 . S
C1632 C1633 1.363 . S
C1632 H1635 0.929 . S
C1633 C1632 1.363 . S
C1633 C1639 1.428 . S
H1634 C1630 0.930 . S
H1635 C1632 0.929 . S
S1636 N1637 1.613 . S
S1636 N1638 1.610 . S
N1637 S1636 1.613 . S
N1637 C1640 1.350 . S
N1638 S1636 1.610 . S
N1638 C1639 1.351 . S
C1639 C1633 1.428 . S
C1639 N1638 1.351 . S
C1639 C1640 1.434 . S
C1640 C1631 1.429 . S
C1640 N1637 1.350 . S
C1640 C1639 1.434 . S
C1641 C1642 1.369 . S
C1641 C1643 1.419 . S
C1641 H1645 0.930 . S
C1642 C1641 1.369 . S
C1642 C1651 1.429 . S
C1643 C1641 1.419 . S
C1643 C1644 1.363 . S
C1643 H1646 0.929 . S
C1644 C1643 1.363 . S
C1644 C1650 1.428 . S
H1645 C1641 0.930 . S
H1646 C1643 0.929 . S
S1647 N1648 1.613 . S
S1647 N1649 1.610 . S
N1648 S1647 1.613 . S
N1648 C1651 1.350 . S
N1649 S1647 1.610 . S
N1649 C1650 1.351 . S
C1650 C1644 1.428 . S
C1650 N1649 1.351 . S
C1650 C1651 1.434 . S
C1651 C1642 1.429 . S
C1651 N1648 1.350 . S
C1651 C1650 1.434 . S
C1652 C1653 1.369 . S
C1652 C1654 1.419 . S
C1652 H1656 0.930 . S
C1653 C1652 1.369 . S
C1653 C1662 1.429 . S
C1654 C1652 1.419 . S
C1654 C1655 1.363 . S
C1654 H1657 0.929 . S
C1655 C1654 1.363 . S
C1655 C1661 1.428 . S
H1656 C1652 0.930 . S
H1657 C1654 0.929 . S
S1658 N1659 1.613 . S
S1658 N1660 1.610 . S
N1659 S1658 1.613 . S
N1659 C1662 1.350 . S
N1660 S1658 1.610 . S
N1660 C1661 1.351 . S
C1661 C1655 1.428 . S
C1661 N1660 1.351 . S
C1661 C1662 1.434 . S
C1662 C1653 1.429 . S
C1662 N1659 1.350 . S
C1662 C1661 1.434 . S
C1663 C1664 1.369 . S
C1663 C1665 1.419 . S
C1663 H1667 0.930 . S
C1664 C1663 1.369 . S
C1664 C1673 1.429 . S
C1665 C1663 1.419 . S
C1665 C1666 1.363 . S
C1665 H1668 0.929 . S
C1666 C1665 1.363 . S
C1666 C1672 1.428 . S
H1667 C1663 0.930 . S
H1668 C1665 0.929 . S
S1669 N1670 1.613 . S
S1669 N1671 1.610 . S
N1670 S1669 1.613 . S
N1670 C1673 1.350 . S
N1671 S1669 1.610 . S
N1671 C1672 1.351 . S
C1672 C1666 1.428 . S
C1672 N1671 1.351 . S
C1672 C1673 1.434 . S
C1673 C1664 1.429 . S
C1673 N1670 1.350 . S
C1673 C1672 1.434 . S
C1674 C1675 1.369 . S
C1674 C1676 1.419 . S
C1674 H1678 0.930 . S
C1675 C1674 1.369 . S
C1675 C1684 1.429 . S
C1676 C1674 1.419 . S
C1676 C1677 1.363 . S
C1676 H1679 0.929 . S
C1677 C1676 1.363 . S
C1677 C1683 1.428 . S
H1678 C1674 0.930 . S
H1679 C1676 0.929 . S
S1680 N1681 1.613 . S
S1680 N1682 1.610 . S
N1681 S1680 1.613 . S
N1681 C1684 1.350 . S
N1682 S1680 1.610 . S
N1682 C1683 1.351 . S
C1683 C1677 1.428 . S
C1683 N1682 1.351 . S
C1683 C1684 1.434 . S
C1684 C1675 1.429 . S
C1684 N1681 1.350 . S
C1684 C1683 1.434 . S
C1685 C1686 1.369 . S
C1685 C1687 1.419 . S
C1685 H1689 0.930 . S
C1686 C1685 1.369 . S
C1686 C1695 1.429 . S
C1687 C1685 1.419 . S
C1687 C1688 1.363 . S
C1687 H1690 0.929 . S
C1688 C1687 1.363 . S
C1688 C1694 1.428 . S
H1689 C1685 0.930 . S
H1690 C1687 0.929 . S
S1691 N1692 1.613 . S
S1691 N1693 1.610 . S
N1692 S1691 1.613 . S
N1692 C1695 1.350 . S
N1693 S1691 1.610 . S
N1693 C1694 1.351 . S
C1694 C1688 1.428 . S
C1694 N1693 1.351 . S
C1694 C1695 1.434 . S
C1695 C1686 1.429 . S
C1695 N1692 1.350 . S
C1695 C1694 1.434 . S
C1696 C1697 1.369 . S
C1696 C1698 1.419 . S
C1696 H1700 0.930 . S
C1697 C1696 1.369 . S
C1697 C1706 1.429 . S
C1698 C1696 1.419 . S
C1698 C1699 1.363 . S
C1698 H1701 0.929 . S
C1699 C1698 1.363 . S
C1699 C1705 1.428 . S
H1700 C1696 0.930 . S
H1701 C1698 0.929 . S
S1702 N1703 1.613 . S
S1702 N1704 1.610 . S
N1703 S1702 1.613 . S
N1703 C1706 1.350 . S
N1704 S1702 1.610 . S
N1704 C1705 1.351 . S
C1705 C1699 1.428 . S
C1705 N1704 1.351 . S
C1705 C1706 1.434 . S
C1706 C1697 1.429 . S
C1706 N1703 1.350 . S
C1706 C1705 1.434 . S
C1707 C1708 1.369 . S
C1707 C1709 1.419 . S
C1707 H1711 0.930 . S
C1708 C1707 1.369 . S
C1708 C1717 1.429 . S
C1709 C1707 1.419 . S
C1709 C1710 1.363 . S
C1709 H1712 0.929 . S
C1710 C1709 1.363 . S
C1710 C1716 1.428 . S
H1711 C1707 0.930 . S
H1712 C1709 0.929 . S
S1713 N1714 1.613 . S
S1713 N1715 1.610 . S
N1714 S1713 1.613 . S
N1714 C1717 1.350 . S
N1715 S1713 1.610 . S
N1715 C1716 1.351 . S
C1716 C1710 1.428 . S
C1716 N1715 1.351 . S
C1716 C1717 1.434 . S
C1717 C1708 1.429 . S
C1717 N1714 1.350 . S
C1717 C1716 1.434 . S
C1718 C1719 1.369 . S
C1718 C1720 1.419 . S
C1718 H1722 0.930 . S
C1719 C1718 1.369 . S
C1719 C1728 1.429 . S
C1720 C1718 1.419 . S
C1720 C1721 1.363 . S
C1720 H1723 0.929 . S
C1721 C1720 1.363 . S
C1721 C1727 1.428 . S
H1722 C1718 0.930 . S
H1723 C1720 0.929 . S
S1724 N1725 1.613 . S
S1724 N1726 1.610 . S
N1725 S1724 1.613 . S
N1725 C1728 1.350 . S
N1726 S1724 1.610 . S
N1726 C1727 1.351 . S
C1727 C1721 1.428 . S
C1727 N1726 1.351 . S
C1727 C1728 1.434 . S
C1728 C1719 1.429 . S
C1728 N1725 1.350 . S
C1728 C1727 1.434 . S
C1729 C1730 1.369 . S
C1729 C1731 1.419 . S
C1729 H1733 0.930 . S
C1730 C1729 1.369 . S
C1730 C1739 1.429 . S
C1731 C1729 1.419 . S
C1731 C1732 1.363 . S
C1731 H1734 0.929 . S
C1732 C1731 1.363 . S
C1732 C1738 1.428 . S
H1733 C1729 0.930 . S
H1734 C1731 0.929 . S
S1735 N1736 1.613 . S
S1735 N1737 1.610 . S
N1736 S1735 1.613 . S
N1736 C1739 1.350 . S
N1737 S1735 1.610 . S
N1737 C1738 1.351 . S
C1738 C1732 1.428 . S
C1738 N1737 1.351 . S
C1738 C1739 1.434 . S
C1739 C1730 1.429 . S
C1739 N1736 1.350 . S
C1739 C1738 1.434 . S
C817 C28 1.343 . S
C819 C187 1.299 . S
C828 C40 1.343 . S
C830 C17 1.293 . S
C839 C96 1.343 . S
C841 C51 1.300 . S
C850 C85 1.297 . S
C852 C108 1.342 . S
C861 C164 1.343 . S
C863 C119 1.299 . S
C872 C176 1.344 . S
C874 C153 1.299 . S
C883 C255 1.298 . S
C885 C232 1.344 . S
C894 C289 1.297 . S
C896 C244 1.343 . S
C905 C323 1.299 . S
C907 C278 1.344 . S
C916 C312 1.344 . S
C918 C357 1.297 . S
C927 C391 1.292 . S
C929 C368 1.343 . S
C938 C380 1.343 . S
C940 C221 1.298 . S
C949 C595 1.297 . S
C951 C436 1.344 . S
C960 C425 1.300 . S
C962 C448 1.343 . S
C971 C504 1.344 . S
C973 C459 1.300 . S
C982 C538 1.342 . S
C984 C493 1.294 . S
C993 C550 1.342 . S
C995 C527 1.292 . S
C1004 C606 1.342 . S
C1006 C561 1.295 . S
C1015 C663 1.291 . S
C1017 C618 1.343 . S
C1026 C697 1.292 . S
C1028 C652 1.342 . S
C1037 C708 1.344 . S
C1039 C731 1.294 . S
C1048 C720 1.342 . S
C1050 C765 1.292 . S
C1059 C776 1.344 . S
C1061 C799 1.295 . S
C1070 C629 1.293 . S
C1072 C788 1.343 . S
C1081 C15 1.741 . S
C1083 C525 1.740 . S
C1092 C56 1.740 . S
C1094 C566 1.739 . S
C1103 C83 1.732 . S
C1105 C593 1.733 . S
C1114 C423 1.732 . S
C1116 C124 1.733 . S
C1125 C151 1.731 . S
C1127 C464 1.733 . S
C1136 C192 1.740 . S
C1138 C491 1.739 . S
C1147 C736 1.731 . S
C1149 C219 1.733 . S
C1158 C763 1.731 . S
C1160 C260 1.733 . S
C1169 C804 1.732 . S
C1171 C294 1.733 . S
C1180 C634 1.742 . S
C1182 C328 1.740 . S
C1191 C355 1.741 . S
C1193 C668 1.740 . S
C1202 C396 1.735 . S
C1204 C695 1.736 . S
C1213 C22 1.511 . S
C1215 C287 1.515 . S
C1224 C49 1.521 . S
C1226 C321 1.515 . S
C1235 C90 1.511 . S
C1237 C362 1.515 . S
C1246 C117 1.517 . S
C1248 C389 1.513 . S
C1257 C158 1.520 . S
C1259 C226 1.519 . S
C1268 C185 1.521 . S
C1270 C253 1.519 . S
C1279 C702 1.512 . S
C1281 C430 1.517 . S
C1290 C457 1.520 . S
C1292 C729 1.520 . S
C1301 C770 1.521 . S
C1303 C498 1.517 . S
C1312 C532 1.521 . S
C1314 C797 1.515 . S
C1323 C559 1.513 . S
C1325 C627 1.513 . S
C1334 C600 1.513 . S
C1336 C661 1.519 . S
C1345 C3 1.689 . S
C1347 C103 1.687 . S
C1356 C139 1.680 . S
C1358 C35 1.690 . S
C1367 C71 1.686 . S
C1369 C171 1.689 . S
C1378 C307 1.679 . S
C1380 C207 1.689 . S
C1389 C343 1.686 . S
C1391 C239 1.689 . S
C1400 C273 1.684 . S
C1402 C375 1.690 . S
C1411 C513 1.679 . S
C1413 C411 1.689 . S
C1422 C545 1.679 . S
C1424 C443 1.689 . S
C1433 C479 1.688 . S
C1435 C581 1.687 . S
C1444 C715 1.690 . S
C1446 C613 1.680 . S
C1455 C647 1.683 . S
C1457 C751 1.690 . S
C1466 C783 1.682 . S
C1468 C683 1.682 . S
C1477 C74 1.498 . S
C1479 C1 1.381 . S
C1488 C37 1.378 . S
C1490 C130 1.496 . S
C1499 C142 1.497 . S
C1501 C69 1.388 . S
C1510 C198 1.497 . S
C1512 C105 1.389 . S
C1521 C137 1.381 . S
C1523 C6 1.498 . S
C1532 C173 1.382 . S
C1534 C62 1.496 . S
C1543 C205 1.388 . S
C1545 C346 1.497 . S
C1554 C402 1.497 . S
C1556 C241 1.389 . S
C1565 C210 1.496 . S
C1567 C275 1.380 . S
C1576 C309 1.391 . S
C1578 C266 1.496 . S
C1587 C341 1.386 . S
C1589 C300 1.498 . S
C1598 C377 1.391 . S
C1600 C334 1.496 . S
C1609 C409 1.381 . S
C1611 C482 1.496 . S
C1620 C445 1.384 . S
C1622 C516 1.498 . S
C1631 C477 1.391 . S
C1633 C572 1.497 . S
C1642 C584 1.495 . S
C1644 C511 1.383 . S
C1653 C547 1.378 . S
C1655 C414 1.496 . S
C1664 C470 1.498 . S
C1666 C579 1.383 . S
C1675 C615 1.380 . S
C1677 C754 1.498 . S
C1686 C810 1.495 . S
C1688 C649 1.383 . S
C1697 C681 1.390 . S
C1699 C640 1.497 . S
C1708 C674 1.495 . S
C1710 C717 1.381 . S
C1719 C686 1.495 . S
C1721 C749 1.388 . S
C1730 C785 1.379 . S
C1732 C742 1.496 . S
