# Generated by pormake.
# Topology gis, (4)-cn, num edge types: 1
# Building blocks:
#     Node 0, Type 0, BuildingBlock: NAHDIM_clean_sbu_0, # of connection points: 4
#     Node 1, Type 0, BuildingBlock: NAHDIM_clean_sbu_0, # of connection points: 4
#     Node 2, Type 0, BuildingBlock: NAHDIM_clean_sbu_0, # of connection points: 4
#     Node 3, Type 0, BuildingBlock: NAHDIM_clean_sbu_0, # of connection points: 4
#     Node 4, Type 0, BuildingBlock: NAHDIM_clean_sbu_0, # of connection points: 4
#     Node 5, Type 0, BuildingBlock: NAHDIM_clean_sbu_0, # of connection points: 4
#     Node 6, Type 0, BuildingBlock: NAHDIM_clean_sbu_0, # of connection points: 4
#     Node 7, Type 0, BuildingBlock: NAHDIM_clean_sbu_0, # of connection points: 4
#     Node 8, Type 0, BuildingBlock: NAHDIM_clean_sbu_0, # of connection points: 4
#     Node 9, Type 0, BuildingBlock: NAHDIM_clean_sbu_0, # of connection points: 4
#     Node 10, Type 0, BuildingBlock: NAHDIM_clean_sbu_0, # of connection points: 4
#     Node 11, Type 0, BuildingBlock: NAHDIM_clean_sbu_0, # of connection points: 4
#     Node 12, Type 0, BuildingBlock: NAHDIM_clean_sbu_0, # of connection points: 4
#     Node 13, Type 0, BuildingBlock: NAHDIM_clean_sbu_0, # of connection points: 4
#     Node 14, Type 0, BuildingBlock: NAHDIM_clean_sbu_0, # of connection points: 4
#     Node 15, Type 0, BuildingBlock: NAHDIM_clean_sbu_0, # of connection points: 4
#     Edge 16, Type (0, 0), BuildingBlock: ZUJKAS_clean_linker_0, # of connection points: 2
#     Edge 17, Type (0, 0), BuildingBlock: ZUJKAS_clean_linker_0, # of connection points: 2
#     Edge 18, Type (0, 0), BuildingBlock: ZUJKAS_clean_linker_0, # of connection points: 2
#     Edge 19, Type (0, 0), BuildingBlock: ZUJKAS_clean_linker_0, # of connection points: 2
#     Edge 20, Type (0, 0), BuildingBlock: ZUJKAS_clean_linker_0, # of connection points: 2
#     Edge 21, Type (0, 0), BuildingBlock: ZUJKAS_clean_linker_0, # of connection points: 2
#     Edge 22, Type (0, 0), BuildingBlock: ZUJKAS_clean_linker_0, # of connection points: 2
#     Edge 23, Type (0, 0), BuildingBlock: ZUJKAS_clean_linker_0, # of connection points: 2
#     Edge 24, Type (0, 0), BuildingBlock: ZUJKAS_clean_linker_0, # of connection points: 2
#     Edge 25, Type (0, 0), BuildingBlock: ZUJKAS_clean_linker_0, # of connection points: 2
#     Edge 26, Type (0, 0), BuildingBlock: ZUJKAS_clean_linker_0, # of connection points: 2
#     Edge 27, Type (0, 0), BuildingBlock: ZUJKAS_clean_linker_0, # of connection points: 2
#     Edge 28, Type (0, 0), BuildingBlock: ZUJKAS_clean_linker_0, # of connection points: 2
#     Edge 29, Type (0, 0), BuildingBlock: ZUJKAS_clean_linker_0, # of connection points: 2
#     Edge 30, Type (0, 0), BuildingBlock: ZUJKAS_clean_linker_0, # of connection points: 2
#     Edge 31, Type (0, 0), BuildingBlock: ZUJKAS_clean_linker_0, # of connection points: 2
#     Edge 32, Type (0, 0), BuildingBlock: ZUJKAS_clean_linker_0, # of connection points: 2
#     Edge 33, Type (0, 0), BuildingBlock: ZUJKAS_clean_linker_0, # of connection points: 2
#     Edge 34, Type (0, 0), BuildingBlock: ZUJKAS_clean_linker_0, # of connection points: 2
#     Edge 35, Type (0, 0), BuildingBlock: ZUJKAS_clean_linker_0, # of connection points: 2
#     Edge 36, Type (0, 0), BuildingBlock: ZUJKAS_clean_linker_0, # of connection points: 2
#     Edge 37, Type (0, 0), BuildingBlock: ZUJKAS_clean_linker_0, # of connection points: 2
#     Edge 38, Type (0, 0), BuildingBlock: ZUJKAS_clean_linker_0, # of connection points: 2
#     Edge 39, Type (0, 0), BuildingBlock: ZUJKAS_clean_linker_0, # of connection points: 2
#     Edge 40, Type (0, 0), BuildingBlock: ZUJKAS_clean_linker_0, # of connection points: 2
#     Edge 41, Type (0, 0), BuildingBlock: ZUJKAS_clean_linker_0, # of connection points: 2
#     Edge 42, Type (0, 0), BuildingBlock: ZUJKAS_clean_linker_0, # of connection points: 2
#     Edge 43, Type (0, 0), BuildingBlock: ZUJKAS_clean_linker_0, # of connection points: 2
#     Edge 44, Type (0, 0), BuildingBlock: ZUJKAS_clean_linker_0, # of connection points: 2
#     Edge 45, Type (0, 0), BuildingBlock: ZUJKAS_clean_linker_0, # of connection points: 2
#     Edge 46, Type (0, 0), BuildingBlock: ZUJKAS_clean_linker_0, # of connection points: 2
#     Edge 47, Type (0, 0), BuildingBlock: ZUJKAS_clean_linker_0, # of connection points: 2
# Relax obj value: 0.161
# Max RMSD: 0.165
# Mean RMSD: 0.148
data_MOF--net-gis--node1-NAHDIM_clean_sbu_0--edge1-ZUJKAS_clean_linker_0
_symmetry_space_group_name_H-M    P1
_symmetry_Int_Tables_number       1
_symmetry_cell_setting            triclinic
loop_
_symmetry_equiv_pos_as_xyz
'x, y, z'
_cell_length_a     63.259848
_cell_length_b     58.768787
_cell_length_c     61.041237
_cell_angle_alpha  91.457341
_cell_angle_beta   90.896023
_cell_angle_gamma 90.021531
loop_
_atom_site_label
_atom_site_type_symbol
_atom_site_fract_x
_atom_site_fract_y
_atom_site_fract_z
_atom_type_partial_charge
C0 C 0.17868 0.54168 0.16084 0.0
O1 O 0.18056 0.52799 0.14364 0.0
O2 O 0.15952 0.54978 0.1065 0.0
Zn3 Zn 0.15055 0.56809 0.13286 0.0
O4 O 0.15645 0.60108 0.12796 0.0
C5 C 0.10919 0.54719 0.12952 0.0
O6 O 0.11937 0.53115 0.11865 0.0
O7 O 0.16667 0.55895 0.15975 0.0
C8 C 0.15063 0.6105 0.11037 0.0
O9 O 0.14064 0.59832 0.09511 0.0
C10 C 0.17731 0.55245 0.09755 0.0
O11 O 0.19066 0.56757 0.10594 0.0
O12 O 0.11937 0.56428 0.1373 0.0
C13 C 0.67267 0.94314 0.33595 0.0
O14 O 0.67113 0.95596 0.3538 0.0
O15 O 0.64778 0.92996 0.38543 0.0
Zn16 Zn 0.64075 0.91531 0.35622 0.0
O17 O 0.64297 0.8814 0.35835 0.0
C18 C 0.60464 0.94388 0.34868 0.0
O19 O 0.61804 0.96006 0.35461 0.0
O20 O 0.66102 0.9256 0.33351 0.0
C21 C 0.63478 0.87109 0.37417 0.0
O22 O 0.62481 0.88293 0.38935 0.0
C23 C 0.66494 0.92591 0.39568 0.0
O24 O 0.67859 0.9116 0.387 0.0
O25 O 0.61099 0.92338 0.34779 0.0
C26 C 0.3215 0.43229 0.58968 0.0
O27 O 0.31107 0.43322 0.60812 0.0
O28 O 0.33573 0.41473 0.64168 0.0
Zn29 Zn 0.3507 0.40454 0.61439 0.0
O30 O 0.38182 0.41152 0.61724 0.0
C31 C 0.33107 0.35977 0.61553 0.0
O32 O 0.31543 0.37074 0.62496 0.0
O33 O 0.33856 0.42093 0.58862 0.0
C34 C 0.39427 0.39708 0.62568 0.0
O35 O 0.3865 0.37791 0.63271 0.0
C36 C 0.33845 0.40518 0.65993 0.0
O37 O 0.35201 0.38834 0.66137 0.0
O38 O 0.34713 0.3708 0.60944 0.0
C39 C 0.80614 0.06658 0.92263 0.0
O40 O 0.79524 0.0611 0.90477 0.0
O41 O 0.81067 0.08542 0.86859 0.0
Zn42 Zn 0.82841 0.09703 0.89411 0.0
O43 O 0.85881 0.0897 0.88832 0.0
C44 C 0.81451 0.14321 0.8852 0.0
O45 O 0.80262 0.13317 0.87 0.0
O46 O 0.82041 0.08175 0.92187 0.0
C47 C 0.87311 0.09885 0.90043 0.0
O48 O 0.86756 0.11253 0.91671 0.0
C49 C 0.81838 0.08434 0.8495 0.0
O50 O 0.83798 0.09094 0.8467 0.0
O51 O 0.82606 0.13115 0.89757 0.0
C52 C 0.19021 0.41083 0.83169 0.0
O53 O 0.19361 0.39469 0.84581 0.0
O54 O 0.16268 0.433 0.8845 0.0
Zn55 Zn 0.15347 0.41543 0.85732 0.0
O56 O 0.15431 0.3818 0.86254 0.0
C57 C 0.111 0.42905 0.86497 0.0
O58 O 0.11831 0.42936 0.88523 0.0
O59 O 0.17331 0.42245 0.83295 0.0
C60 C 0.14929 0.37299 0.88052 0.0
O61 O 0.14314 0.38622 0.89687 0.0
C62 C 0.17914 0.42847 0.89575 0.0
O63 O 0.19125 0.41139 0.88963 0.0
O64 O 0.12345 0.42387 0.84947 0.0
C65 C 0.82861 0.94435 0.17144 0.0
O66 O 0.82395 0.95283 0.15226 0.0
O67 O 0.84959 0.93373 0.11945 0.0
Zn68 Zn 0.85865 0.91733 0.14653 0.0
O69 O 0.85235 0.88396 0.14256 0.0
C70 C 0.90044 0.93678 0.14281 0.0
O71 O 0.89032 0.95235 0.13169 0.0
O72 O 0.84312 0.92947 0.17289 0.0
C73 C 0.86328 0.87209 0.12924 0.0
O74 O 0.8781 0.8821 0.11811 0.0
C75 C 0.83358 0.92777 0.10784 0.0
O76 O 0.82247 0.90998 0.1134 0.0
O77 O 0.89004 0.92073 0.15112 0.0
C78 C 0.32108 0.57276 0.40757 0.0
O79 O 0.33285 0.56373 0.39209 0.0
O80 O 0.30994 0.59763 0.35357 0.0
Zn81 Zn 0.32621 0.60961 0.37999 0.0
O82 O 0.35708 0.60255 0.37698 0.0
C83 C 0.31677 0.65564 0.36775 0.0
O84 O 0.31188 0.64562 0.34886 0.0
O85 O 0.31568 0.59351 0.40633 0.0
C86 C 0.36825 0.61048 0.36184 0.0
O87 O 0.35947 0.62397 0.34748 0.0
C88 C 0.31652 0.58131 0.34142 0.0
O89 O 0.33495 0.57202 0.34573 0.0
O90 O 0.32284 0.64356 0.38364 0.0
C91 C 0.68297 0.04951 0.66251 0.0
O92 O 0.68704 0.03594 0.64567 0.0
O93 O 0.65992 0.05036 0.60835 0.0
Zn94 Zn 0.65269 0.07176 0.6332 0.0
O95 O 0.65952 0.10379 0.62506 0.0
C96 C 0.61278 0.05008 0.64008 0.0
O97 O 0.62427 0.03156 0.63785 0.0
O98 O 0.66908 0.06496 0.66062 0.0
C99 C 0.6477 0.11491 0.61217 0.0
O100 O 0.63069 0.1051 0.60366 0.0
C101 C 0.67649 0.05265 0.59713 0.0
O102 O 0.68977 0.06922 0.60225 0.0
O103 O 0.62166 0.06939 0.63893 0.0
C104 C 0.8065 0.42986 0.82375 0.0
O105 O 0.79926 0.41761 0.83971 0.0
O106 O 0.83485 0.44648 0.87662 0.0
Zn107 Zn 0.84326 0.42726 0.85049 0.0
O108 O 0.83801 0.39412 0.856 0.0
C109 C 0.88654 0.43877 0.86023 0.0
O110 O 0.87862 0.44309 0.87965 0.0
O111 O 0.82565 0.4364 0.82456 0.0
C112 C 0.847 0.38386 0.87167 0.0
O113 O 0.86019 0.39515 0.88475 0.0
C114 C 0.82152 0.44038 0.89068 0.0
O115 O 0.81206 0.42056 0.88819 0.0
O116 O 0.87429 0.43187 0.84472 0.0
C117 C 0.31675 0.04362 0.6592 0.0
O118 O 0.3166 0.03118 0.64102 0.0
O119 O 0.33952 0.05632 0.60821 0.0
Zn120 Zn 0.34655 0.07246 0.63667 0.0
O121 O 0.34085 0.10579 0.63347 0.0
C122 C 0.38639 0.0492 0.64234 0.0
O123 O 0.37509 0.03106 0.63706 0.0
O124 O 0.32858 0.06109 0.66083 0.0
C125 C 0.35094 0.11692 0.61946 0.0
O126 O 0.36491 0.10628 0.60723 0.0
C127 C 0.32243 0.06056 0.5979 0.0
O128 O 0.30916 0.07548 0.60628 0.0
O129 O 0.37736 0.06848 0.64362 0.0
C130 C 0.65899 0.55208 0.32417 0.0
O131 O 0.65866 0.53865 0.34104 0.0
O132 O 0.64379 0.56719 0.37858 0.0
Zn133 Zn 0.63367 0.58266 0.35145 0.0
O134 O 0.63931 0.6161 0.35503 0.0
C135 C 0.59098 0.56745 0.35997 0.0
O136 O 0.60008 0.55687 0.3763 0.0
O137 O 0.64916 0.57093 0.32506 0.0
C138 C 0.63213 0.62697 0.37155 0.0
O139 O 0.62153 0.61587 0.38624 0.0
C140 C 0.66304 0.56796 0.38481 0.0
O141 O 0.67677 0.579 0.37311 0.0
O142 O 0.6023 0.57874 0.3471 0.0
C143 C 0.18779 0.92199 0.06515 0.0
O144 O 0.2033 0.91816 0.07914 0.0
O145 O 0.18096 0.91016 0.12107 0.0
Zn146 Zn 0.16181 0.89912 0.09665 0.0
O147 O 0.13199 0.90771 0.10388 0.0
C148 C 0.17109 0.85283 0.10773 0.0
O149 O 0.1778 0.86266 0.12612 0.0
O150 O 0.16933 0.91479 0.06913 0.0
C151 C 0.12223 0.89878 0.11952 0.0
O152 O 0.13186 0.88343 0.13134 0.0
C153 C 0.18165 0.93108 0.12678 0.0
O154 O 0.16961 0.94566 0.11642 0.0
O155 O 0.1638 0.8651 0.09252 0.0
C156 C 0.8063 0.57568 0.15569 0.0
O157 O 0.79932 0.58772 0.13923 0.0
O158 O 0.83363 0.56758 0.10476 0.0
Zn159 Zn 0.84398 0.58237 0.13298 0.0
O160 O 0.84154 0.61654 0.13176 0.0
C161 C 0.8829 0.55645 0.13007 0.0
O162 O 0.87133 0.54241 0.11782 0.0
O163 O 0.82588 0.57106 0.157 0.0
C164 C 0.8569 0.6283 0.12506 0.0
O165 O 0.87422 0.6179 0.11873 0.0
C166 C 0.83651 0.57593 0.08605 0.0
O167 O 0.84654 0.59539 0.08468 0.0
O168 O 0.87438 0.57408 0.13855 0.0
C169 C 0.16969 0.08271 0.82407 0.0
O170 O 0.17715 0.09932 0.83676 0.0
O171 O 0.14903 0.06927 0.88075 0.0
Zn172 Zn 0.13724 0.08625 0.8552 0.0
O173 O 0.1426 0.11978 0.85956 0.0
C174 C 0.09597 0.07644 0.87066 0.0
O175 O 0.10686 0.07378 0.88891 0.0
O176 O 0.15168 0.07439 0.82811 0.0
C177 C 0.1392 0.12966 0.87793 0.0
O178 O 0.13243 0.11761 0.89425 0.0
C179 C 0.16716 0.07239 0.88957 0.0
O180 O 0.17982 0.08791 0.88193 0.0
O181 O 0.10568 0.08141 0.85333 0.0
C182 C 0.68515 0.43035 0.56932 0.0
O183 O 0.69701 0.4326 0.58709 0.0
O184 O 0.67697 0.40861 0.62236 0.0
Zn185 Zn 0.65923 0.40074 0.59572 0.0
O186 O 0.62906 0.40906 0.60153 0.0
C187 C 0.67654 0.35532 0.59533 0.0
O188 O 0.69311 0.36575 0.60409 0.0
O189 O 0.66895 0.41754 0.56942 0.0
C190 C 0.61928 0.39878 0.61637 0.0
O191 O 0.62937 0.38341 0.62776 0.0
C192 C 0.67576 0.42761 0.63266 0.0
O193 O 0.6625 0.44312 0.62567 0.0
O194 O 0.66045 0.36696 0.58991 0.0
C195 C 0.30392 0.94667 0.31943 0.0
O196 O 0.29616 0.93248 0.33351 0.0
O197 O 0.33303 0.95913 0.37492 0.0
Zn198 Zn 0.33997 0.94171 0.34723 0.0
O199 O 0.33362 0.9085 0.35071 0.0
C200 C 0.3804 0.96389 0.34315 0.0
O201 O 0.36961 0.98218 0.34874 0.0
O202 O 0.32287 0.9535 0.32197 0.0
C203 C 0.3404 0.89799 0.36734 0.0
O204 O 0.35162 0.90913 0.3824 0.0
C205 C 0.31704 0.95428 0.38626 0.0
O206 O 0.30453 0.93756 0.37965 0.0
O207 O 0.37091 0.94487 0.34129 0.0
H208 H 0.15704 0.82694 0.07251 0.0
H209 H 0.15521 0.78538 0.06942 0.0
H210 H 0.18263 0.78042 0.13424 0.0
H211 H 0.18476 0.8219 0.13742 0.0
H212 H 0.20006 0.74984 0.10235 0.0
H213 H 0.11214 0.74702 0.10271 0.0
H214 H 0.12359 0.76464 0.08237 0.0
H215 H 0.12693 0.77218 0.11092 0.0
C216 C 0.16276 0.81702 0.08608 0.0
C217 C 0.17091 0.82773 0.10528 0.0
C218 C 0.16161 0.79329 0.08431 0.0
C219 C 0.16849 0.77991 0.10173 0.0
C220 C 0.17716 0.7905 0.12065 0.0
H221 H 0.17068 0.64021 0.13886 0.0
H222 H 0.17601 0.681 0.13473 0.0
C223 C 0.17832 0.8142 0.12245 0.0
C224 C 0.16637 0.75484 0.1005 0.0
H225 H 0.12993 0.71198 0.09871 0.0
C226 C 0.18475 0.74153 0.10147 0.0
C227 C 0.14635 0.74412 0.09929 0.0
C228 C 0.12608 0.75765 0.09893 0.0
C229 C 0.18364 0.71768 0.10137 0.0
C230 C 0.1636 0.70697 0.10067 0.0
C231 C 0.14525 0.72028 0.09921 0.0
C232 C 0.16124 0.68205 0.10256 0.0
C233 C 0.2039 0.70417 0.10192 0.0
C234 C 0.1508 0.66919 0.086 0.0
C235 C 0.14758 0.64585 0.08837 0.0
C236 C 0.15461 0.63503 0.10743 0.0
C237 C 0.16514 0.64799 0.12394 0.0
C238 C 0.16834 0.67129 0.12155 0.0
H239 H 0.21744 0.71422 0.09597 0.0
H240 H 0.20753 0.69947 0.11907 0.0
H241 H 0.20245 0.68826 0.09179 0.0
H242 H 0.14506 0.67725 0.07129 0.0
H243 H 0.1394 0.63636 0.07537 0.0
H244 H 0.40621 0.00116 0.34823 0.0
H245 H 0.44475 0.00238 0.34504 0.0
H246 H 0.44535 0.9306 0.32851 0.0
H247 H 0.40697 0.92924 0.3314 0.0
H248 H 0.47337 0.97764 0.36988 0.0
H249 H 0.48271 0.95709 0.28153 0.0
H250 H 0.45787 0.96629 0.29294 0.0
H251 H 0.46618 0.93713 0.29501 0.0
C252 C 0.41452 0.9857 0.34365 0.0
C253 C 0.40352 0.9651 0.34006 0.0
C254 C 0.43652 0.98643 0.34183 0.0
C255 C 0.44784 0.96666 0.3362 0.0
C256 C 0.43687 0.94617 0.33237 0.0
H257 H 0.57294 0.91417 0.33711 0.0
H258 H 0.5353 0.92244 0.33289 0.0
C259 C 0.41493 0.9454 0.3342 0.0
C260 C 0.47123 0.96691 0.33594 0.0
H261 H 0.5135 0.95242 0.30445 0.0
C262 C 0.4822 0.97251 0.3555 0.0
C263 C 0.48265 0.96018 0.31713 0.0
C264 C 0.47176 0.95504 0.2954 0.0
C265 C 0.50426 0.97046 0.35706 0.0
C266 C 0.51562 0.96297 0.33845 0.0
C267 C 0.50472 0.9581 0.31869 0.0
C268 C 0.53863 0.95859 0.33962 0.0
C269 C 0.51513 0.97526 0.37889 0.0
C270 C 0.55301 0.97629 0.34434 0.0
C271 C 0.57457 0.97163 0.34683 0.0
C272 C 0.58209 0.94918 0.34455 0.0
C273 C 0.56768 0.93163 0.33908 0.0
C274 C 0.54616 0.93632 0.33661 0.0
H275 H 0.50372 0.97649 0.39252 0.0
H276 H 0.52683 0.96175 0.38258 0.0
H277 H 0.52374 0.99168 0.37826 0.0
H278 H 0.54751 0.99366 0.34636 0.0
H279 H 0.58527 0.98554 0.35089 0.0
H280 H 0.35905 0.33255 0.59363 0.0
H281 H 0.36021 0.29102 0.59222 0.0
H282 H 0.30445 0.28856 0.63188 0.0
H283 H 0.30288 0.33016 0.63298 0.0
H284 H 0.36524 0.26373 0.62723 0.0
H285 H 0.29008 0.24256 0.5832 0.0
H286 H 0.30128 0.27084 0.58379 0.0
H287 H 0.28686 0.26094 0.60685 0.0
C288 C 0.34685 0.32319 0.60182 0.0
C289 C 0.33085 0.33465 0.61341 0.0
C290 C 0.34756 0.29945 0.601 0.0
C291 C 0.33229 0.28669 0.61172 0.0
C292 C 0.31612 0.29805 0.62307 0.0
H293 H 0.32185 0.1435 0.6407 0.0
H294 H 0.31708 0.1847 0.63833 0.0
C295 C 0.31532 0.32184 0.62379 0.0
C296 C 0.33423 0.2616 0.61223 0.0
H297 H 0.30851 0.21178 0.59944 0.0
C298 C 0.35289 0.25237 0.62102 0.0
C299 C 0.31804 0.24684 0.60421 0.0
C300 C 0.29801 0.25575 0.59379 0.0
C301 C 0.35573 0.22879 0.62223 0.0
C302 C 0.33957 0.21406 0.61422 0.0
C303 C 0.32085 0.22321 0.60554 0.0
C304 C 0.34189 0.18907 0.61483 0.0
C305 C 0.37585 0.21978 0.63241 0.0
C306 C 0.35719 0.17794 0.6021 0.0
C307 C 0.35995 0.15442 0.60338 0.0
C308 C 0.34744 0.14166 0.61743 0.0
C309 C 0.33182 0.15285 0.62981 0.0
C310 C 0.32902 0.17636 0.62845 0.0
H311 H 0.38461 0.23322 0.64193 0.0
H312 H 0.37239 0.20554 0.64342 0.0
H313 H 0.38629 0.21319 0.61926 0.0
H314 H 0.36708 0.18748 0.59129 0.0
H315 H 0.37205 0.14632 0.59355 0.0
H316 H 0.06803 0.08475 0.83697 0.0
H317 H 0.02937 0.08601 0.83872 0.0
H318 H 0.03258 0.06751 0.9066 0.0
H319 H 0.07106 0.06595 0.90499 0.0
H320 H 0.00074 0.04434 0.88167 0.0
H321 H -0.00171 0.13816 0.87153 0.0
H322 H 0.01173 0.12211 0.85052 0.0
H323 H 0.02241 0.12318 0.87795 0.0
C324 C 0.06049 0.08076 0.85221 0.0
C325 C 0.07262 0.07545 0.8709 0.0
C326 C 0.03843 0.08159 0.8532 0.0
C327 C 0.02821 0.07718 0.87288 0.0
C328 C 0.04022 0.07104 0.89129 0.0
H329 H 0.90743 0.11647 0.92262 0.0
H330 H 0.94474 0.1101 0.91468 0.0
C331 C 0.06222 0.07022 0.89033 0.0
C332 C 0.00506 0.07976 0.87476 0.0
H333 H 0.96567 0.11942 0.87522 0.0
C334 C 0.993 0.06069 0.8801 0.0
C335 C 0.99514 0.10121 0.87296 0.0
C336 C 0.00751 0.12241 0.8681 0.0
C337 C 0.97124 0.06255 0.88391 0.0
C338 C 0.96134 0.084 0.88208 0.0
C339 C 0.97336 0.103 0.8765 0.0
C340 C 0.93871 0.08735 0.88687 0.0
C341 C 0.95916 0.04177 0.89058 0.0
C342 C 0.92301 0.07673 0.87376 0.0
C343 C 0.90165 0.0803 0.87826 0.0
C344 C 0.89568 0.09465 0.8959 0.0
C345 C 0.91149 0.10528 0.90895 0.0
C346 C 0.93281 0.10171 0.90443 0.0
H347 H 0.96987 0.02782 0.89566 0.0
H348 H 0.94841 0.04602 0.9043 0.0
H349 H 0.94935 0.0354 0.87649 0.0
H350 H 0.92727 0.06587 0.85992 0.0
H351 H 0.88985 0.07195 0.86781 0.0
H352 H 0.13852 0.34811 0.91603 0.0
H353 H 0.13908 0.30662 0.91903 0.0
H354 H 0.16191 0.29999 0.85298 0.0
H355 H 0.16167 0.34128 0.84989 0.0
H356 H 0.11663 0.27509 0.89277 0.0
H357 H 0.20289 0.26001 0.88725 0.0
H358 H 0.19187 0.2878 0.89313 0.0
H359 H 0.19244 0.27674 0.8654 0.0
C360 C 0.14383 0.33782 0.90221 0.0
C361 C 0.15008 0.348 0.88274 0.0
C362 C 0.14414 0.31414 0.90396 0.0
C363 C 0.15085 0.30029 0.88635 0.0
C364 C 0.15712 0.3104 0.86693 0.0
H365 H 0.15283 0.15936 0.84744 0.0
H366 H 0.15598 0.20072 0.85137 0.0
C367 C 0.15682 0.33402 0.86516 0.0
C368 C 0.15023 0.2752 0.88772 0.0
H369 H 0.18053 0.22744 0.88192 0.0
C370 C 0.13062 0.26465 0.8907 0.0
C371 C 0.16854 0.26168 0.88497 0.0
C372 C 0.19016 0.27212 0.88271 0.0
C373 C 0.12868 0.24086 0.89014 0.0
C374 C 0.14691 0.22734 0.88685 0.0
C375 C 0.1666 0.23789 0.88438 0.0
C376 C 0.14571 0.20224 0.88502 0.0
C377 C 0.10704 0.23038 0.8922 0.0
C378 C 0.13925 0.1894 0.90278 0.0
C379 C 0.13739 0.16575 0.90059 0.0
C380 C 0.14205 0.15456 0.88061 0.0
C381 C 0.14902 0.16746 0.86302 0.0
C382 C 0.15087 0.19108 0.86524 0.0
H383 H 0.09422 0.24308 0.88996 0.0
H384 H 0.10469 0.21627 0.87996 0.0
H385 H 0.10555 0.22327 0.90877 0.0
H386 H 0.13555 0.19769 0.9183 0.0
H387 H 0.13211 0.1563 0.91449 0.0
H388 H 0.92606 0.90769 0.16521 0.0
H389 H 0.96454 0.90484 0.16373 0.0
H390 H 0.96627 0.96207 0.12097 0.0
H391 H 0.92772 0.96504 0.12226 0.0
H392 H 0.98728 0.92209 0.10529 0.0
H393 H 0.01215 0.94568 0.19053 0.0
H394 H 0.99149 0.92472 0.18823 0.0
H395 H 0.98658 0.95312 0.17922 0.0
C396 C 0.93462 0.9199 0.15575 0.0
C397 C 0.92382 0.93656 0.14379 0.0
C398 C 0.95663 0.91832 0.15504 0.0
C399 C 0.96822 0.93339 0.14243 0.0
C400 C 0.95756 0.95038 0.13091 0.0
H401 H 0.09931 0.93286 0.10099 0.0
H402 H 0.06227 0.94249 0.10711 0.0
C403 C 0.93555 0.95205 0.13168 0.0
C404 C 0.9912 0.93009 0.13971 0.0
H405 H 0.03833 0.92894 0.16765 0.0
C406 C -0.00149 0.9238 0.11885 0.0
C407 C 0.00568 0.93214 0.15752 0.0
C408 C -0.00133 0.93947 0.18012 0.0
C409 C 0.0199 0.91894 0.11538 0.0
C410 C 0.03443 0.92096 0.13319 0.0
C411 C 0.02715 0.92744 0.15404 0.0
C412 C 0.05721 0.91605 0.1305 0.0
C413 C 0.02662 0.91096 0.09284 0.0
C414 C 0.06684 0.89854 0.14225 0.0
C415 C 0.08809 0.89313 0.13897 0.0
C416 C 0.10005 0.90515 0.12385 0.0
C417 C 0.09047 0.92309 0.11256 0.0
C418 C 0.06929 0.92857 0.11596 0.0
H419 H 0.01299 0.9046 0.08274 0.0
H420 H 0.03375 0.92542 0.08425 0.0
H421 H 0.03859 0.8972 0.09387 0.0
H422 H 0.05779 0.88876 0.15364 0.0
H423 H 0.09502 0.87927 0.14798 0.0
H424 H 0.30391 0.68626 0.33734 0.0
H425 H 0.30618 0.72779 0.34013 0.0
H426 H 0.33159 0.72346 0.40584 0.0
H427 H 0.32951 0.6819 0.40322 0.0
H428 H 0.28828 0.75935 0.37244 0.0
H429 H 0.37624 0.76017 0.37173 0.0
H430 H 0.36092 0.7355 0.36316 0.0
H431 H 0.36434 0.74254 0.39179 0.0
C432 C 0.30988 0.69411 0.35244 0.0
C433 C 0.31669 0.68076 0.37 0.0
C434 C 0.31112 0.71784 0.35401 0.0
C435 C 0.3193 0.7286 0.37307 0.0
C436 C 0.32551 0.7154 0.39087 0.0
H437 H 0.352 0.87052 0.40099 0.0
H438 H 0.3455 0.82967 0.40387 0.0
C439 C 0.32422 0.69167 0.38936 0.0
C440 C 0.32186 0.75361 0.37404 0.0
H441 H 0.35915 0.79561 0.37578 0.0
C442 C 0.30375 0.76733 0.37322 0.0
C443 C 0.34208 0.76387 0.3751 0.0
C444 C 0.36206 0.74984 0.37534 0.0
C445 C 0.30532 0.79117 0.37351 0.0
C446 C 0.32556 0.80143 0.37418 0.0
C447 C 0.34366 0.78768 0.3753 0.0
C448 C 0.32844 0.82638 0.37296 0.0
C449 C 0.28531 0.80512 0.37337 0.0
C450 C 0.3211 0.83802 0.35455 0.0
C451 C 0.32474 0.86134 0.35287 0.0
C452 C 0.33598 0.87343 0.36947 0.0
C453 C 0.34328 0.86172 0.38792 0.0
C454 C 0.33958 0.83839 0.38961 0.0
H455 H 0.27164 0.79528 0.37935 0.0
H456 H 0.28714 0.82085 0.38368 0.0
H457 H 0.28159 0.81013 0.35633 0.0
H458 H 0.3129 0.82898 0.34127 0.0
H459 H 0.31899 0.86982 0.3384 0.0
H460 H 0.5849 0.08508 0.64593 0.0
H461 H 0.5465 0.08271 0.64879 0.0
H462 H 0.54977 0.00952 0.64287 0.0
H463 H 0.58828 0.01167 0.64032 0.0
H464 H 0.51927 0.06415 0.61707 0.0
H465 H 0.51156 0.01966 0.69582 0.0
H466 H 0.5359 0.03292 0.68776 0.0
H467 H 0.52827 0.0057 0.67611 0.0
C468 C 0.5775 0.06844 0.64546 0.0
C469 C 0.58965 0.04855 0.6429 0.0
C470 C 0.55556 0.06714 0.6471 0.0
C471 C 0.54534 0.04594 0.6463 0.0
C472 C 0.5574 0.02602 0.64397 0.0
H473 H 0.41127 0.01111 0.6392 0.0
H474 H 0.44999 0.00942 0.6407 0.0
C475 C 0.57939 0.0273 0.64237 0.0
C476 C 0.52197 0.04492 0.64655 0.0
H477 H 0.47999 0.02545 0.67522 0.0
C478 C 0.51068 0.05573 0.62981 0.0
C479 C 0.51085 0.03378 0.66312 0.0
C480 C 0.52221 0.0225 0.68184 0.0
C481 C 0.48854 0.05574 0.62918 0.0
C482 C 0.47741 0.04491 0.64591 0.0
C483 C 0.48864 0.03376 0.66247 0.0
C484 C 0.45409 0.0456 0.64664 0.0
C485 C 0.47719 0.06719 0.61053 0.0
C486 C 0.4437 0.06641 0.65005 0.0
C487 C 0.42167 0.06746 0.64922 0.0
C488 C 0.40962 0.04766 0.645 0.0
C489 C 0.42009 0.02667 0.64238 0.0
C490 C 0.44218 0.02565 0.64326 0.0
H491 H 0.48777 0.0699 0.59648 0.0
H492 H 0.46335 0.05694 0.60471 0.0
H493 H 0.47133 0.08406 0.61632 0.0
H494 H 0.45267 0.08193 0.653 0.0
H495 H 0.41413 0.08388 0.65145 0.0
H496 H 0.79424 0.17401 0.85942 0.0
H497 H 0.79898 0.21532 0.85986 0.0
H498 H 0.84246 0.21068 0.91467 0.0
H499 H 0.83807 0.16933 0.9142 0.0
H500 H 0.79268 0.24875 0.89323 0.0
H501 H 0.8768 0.24368 0.86855 0.0
H502 H 0.85916 0.21955 0.86646 0.0
H503 H 0.8705 0.22813 0.89255 0.0
C504 C 0.80472 0.18176 0.87166 0.0
C505 C 0.81593 0.16834 0.88664 0.0
C506 C 0.80739 0.20537 0.87189 0.0
C507 C 0.82135 0.21597 0.88704 0.0
C508 C 0.83194 0.20275 0.90256 0.0
H509 H 0.86443 0.35636 0.90263 0.0
H510 H 0.85741 0.31589 0.90778 0.0
C511 C 0.82932 0.17914 0.90233 0.0
C512 C 0.82514 0.24079 0.88625 0.0
H513 H 0.8633 0.2803 0.87685 0.0
C514 C 0.80811 0.25568 0.88966 0.0
C515 C 0.8453 0.24973 0.88158 0.0
C516 C 0.86398 0.23449 0.87688 0.0
C517 C 0.81074 0.27935 0.88868 0.0
C518 C 0.83085 0.28826 0.88382 0.0
C519 C 0.84792 0.27339 0.88064 0.0
C520 C 0.83442 0.31294 0.88124 0.0
C521 C 0.79204 0.29463 0.8931 0.0
C522 C 0.82395 0.32459 0.8645 0.0
C523 C 0.82794 0.34766 0.86148 0.0
C524 C 0.84258 0.3595 0.87511 0.0
C525 C 0.85305 0.34776 0.89188 0.0
C526 C 0.84906 0.32465 0.89486 0.0
H527 H 0.77957 0.28575 0.90225 0.0
H528 H 0.79692 0.31018 0.90258 0.0
H529 H 0.78503 0.29997 0.87726 0.0
H530 H 0.81292 0.31573 0.85352 0.0
H531 H 0.81965 0.35616 0.84836 0.0
H532 H 0.65233 0.65495 0.34354 0.0
H533 H 0.65468 0.69646 0.34573 0.0
H534 H 0.61962 0.69713 0.40577 0.0
H535 H 0.61736 0.65558 0.40387 0.0
H536 H 0.62009 0.72617 0.346 0.0
H537 H 0.6703 0.73873 0.4208 0.0
H538 H 0.66836 0.71174 0.40608 0.0
H539 H 0.64766 0.72075 0.42416 0.0
C540 C 0.6453 0.66388 0.35735 0.0
C541 C 0.63464 0.65196 0.37354 0.0
C542 C 0.64666 0.6876 0.35856 0.0
C543 C 0.63753 0.69981 0.37603 0.0
C544 C 0.62712 0.68797 0.39237 0.0
H545 H 0.61814 0.84353 0.40502 0.0
H546 H 0.61907 0.8019 0.40556 0.0
C547 C 0.62574 0.66424 0.39118 0.0
C548 C 0.63777 0.72498 0.37637 0.0
H549 H 0.6544 0.77178 0.40615 0.0
C550 C 0.62769 0.73616 0.35907 0.0
C551 C 0.6476 0.7379 0.39354 0.0
C552 C 0.65926 0.72672 0.41213 0.0
C553 C 0.62692 0.75998 0.3586 0.0
C554 C 0.63681 0.77292 0.37571 0.0
C555 C 0.64684 0.76176 0.39307 0.0
C556 C 0.63695 0.79809 0.37577 0.0
C557 C 0.61514 0.7711 0.34003 0.0
C558 C 0.64704 0.80966 0.35906 0.0
C559 C 0.64651 0.8334 0.35867 0.0
C560 C 0.63596 0.84599 0.37507 0.0
C561 C 0.62631 0.83434 0.3921 0.0
C562 C 0.62685 0.81057 0.39246 0.0
H563 H 0.60411 0.75905 0.33141 0.0
H564 H 0.60601 0.78605 0.34607 0.0
H565 H 0.62667 0.77708 0.32792 0.0
H566 H 0.65525 0.80032 0.34626 0.0
H567 H 0.65425 0.84184 0.34541 0.0
H568 H 0.8853 0.65781 0.10811 0.0
H569 H 0.88334 0.69936 0.108 0.0
H570 H 0.82339 0.69723 0.14052 0.0
H571 H 0.82516 0.65559 0.14073 0.0
H572 H 0.84891 0.72765 0.08975 0.0
H573 H 0.86256 0.74018 0.1796 0.0
H574 H 0.86938 0.71406 0.16516 0.0
H575 H 0.84226 0.72026 0.17106 0.0
C576 C 0.87168 0.66614 0.11524 0.0
C577 C 0.85543 0.6534 0.12454 0.0
C578 C 0.87057 0.68987 0.11511 0.0
C579 C 0.85333 0.70128 0.12443 0.0
C580 C 0.83694 0.68867 0.13346 0.0
H581 H 0.83288 0.84642 0.14833 0.0
H582 H 0.82863 0.80504 0.14593 0.0
C583 C 0.83796 0.66491 0.1335 0.0
C584 C 0.85267 0.72642 0.1248 0.0
H585 H 0.85694 0.77303 0.15904 0.0
C586 C 0.85059 0.73763 0.10487 0.0
C587 C 0.85477 0.73927 0.14459 0.0
C588 C 0.85751 0.72794 0.16637 0.0
C589 C 0.85057 0.76148 0.10421 0.0
C590 C 0.85321 0.77437 0.12396 0.0
C591 C 0.85492 0.76311 0.14393 0.0
C592 C 0.85502 0.79952 0.12429 0.0
C593 C 0.84748 0.77263 0.08239 0.0
C594 C 0.87129 0.81012 0.11298 0.0
C595 C 0.87371 0.83375 0.11423 0.0
C596 C 0.86004 0.8472 0.12706 0.0
C597 C 0.84368 0.83654 0.13831 0.0
C598 C 0.84122 0.81291 0.13696 0.0
H599 H 0.8393 0.76108 0.07031 0.0
H600 H 0.83818 0.78858 0.08411 0.0
H601 H 0.86316 0.77691 0.0757 0.0
H602 H 0.88244 0.80008 0.10354 0.0
H603 H 0.88656 0.8414 0.10548 0.0
H604 H 0.70625 0.3251 0.60966 0.0
H605 H 0.70364 0.28356 0.60941 0.0
H606 H 0.64262 0.28712 0.57721 0.0
H607 H 0.64509 0.32862 0.57727 0.0
H608 H 0.67068 0.25963 0.63005 0.0
H609 H 0.67429 0.23775 0.54114 0.0
H610 H 0.68324 0.2648 0.55257 0.0
H611 H 0.65549 0.2595 0.54832 0.0
C612 C 0.69241 0.31705 0.60224 0.0
C613 C 0.67586 0.33017 0.59351 0.0
C614 C 0.69095 0.29332 0.60213 0.0
C615 C 0.67305 0.2823 0.59309 0.0
C616 C 0.65673 0.29529 0.58391 0.0
H617 H 0.62352 0.14517 0.58941 0.0
H618 H 0.6306 0.18563 0.58437 0.0
C619 C 0.65813 0.31902 0.58408 0.0
C620 C 0.67067 0.25738 0.5948 0.0
H621 H 0.66413 0.2081 0.56463 0.0
C622 C 0.66944 0.2483 0.61577 0.0
C623 C 0.66888 0.24276 0.57612 0.0
C624 C 0.67071 0.2516 0.55324 0.0
C625 C 0.66599 0.225 0.61859 0.0
C626 C 0.6642 0.21034 0.5999 0.0
C627 C 0.66554 0.2194 0.57891 0.0
C628 C 0.66059 0.18559 0.6019 0.0
C629 C 0.66364 0.21642 0.64153 0.0
C630 C 0.67536 0.17208 0.61297 0.0
C631 C 0.67132 0.14902 0.61599 0.0
C632 C 0.65251 0.13899 0.6078 0.0
C633 C 0.63811 0.15239 0.596 0.0
C634 C 0.64213 0.1755 0.59308 0.0
H635 H 0.65995 0.23043 0.65343 0.0
H636 H 0.65096 0.20339 0.64213 0.0
H637 H 0.67871 0.20847 0.64687 0.0
H638 H 0.68992 0.17944 0.61947 0.0
H639 H 0.68285 0.13913 0.62495 0.0
H640 H 0.08114 0.44215 0.8944 0.0
H641 H 0.04325 0.44683 0.88785 0.0
H642 H 0.05141 0.43063 0.81921 0.0
H643 H 0.08949 0.42571 0.82562 0.0
H644 H 0.02101 0.47618 0.85806 0.0
H645 H 0.00704 0.38393 0.83999 0.0
H646 H 0.03102 0.3943 0.8532 0.0
H647 H 0.02694 0.39773 0.82432 0.0
C648 C 0.07495 0.43967 0.87787 0.0
C649 C 0.08831 0.43337 0.86056 0.0
C650 C 0.05329 0.44242 0.87416 0.0
C651 C 0.04455 0.43881 0.85312 0.0
C652 C 0.05787 0.43317 0.83563 0.0
H653 H 0.90866 0.42974 0.82269 0.0
H654 H 0.947 0.43196 0.81798 0.0
C655 C 0.0796 0.43047 0.83932 0.0
C656 C 0.02138 0.44034 0.84987 0.0
H657 H 0.9773 0.4078 0.84056 0.0
C658 C 0.01144 0.4613 0.85401 0.0
C659 C 0.009 0.4209 0.84448 0.0
C660 C 0.01893 0.39786 0.84036 0.0
C661 C 0.98933 0.46325 0.8534 0.0
C662 C 0.97691 0.44359 0.84899 0.0
C663 C 0.98689 0.42283 0.84396 0.0
C664 C 0.95363 0.44376 0.85124 0.0
C665 C 0.9795 0.48628 0.85768 0.0
C666 C 0.94471 0.44952 0.87153 0.0
C667 C 0.92289 0.44828 0.87427 0.0
C668 C 0.90954 0.44105 0.85683 0.0
C669 C 0.9185 0.43542 0.83644 0.0
C670 C 0.94038 0.43668 0.83371 0.0
H671 H 0.99052 0.50025 0.85367 0.0
H672 H 0.96464 0.4883 0.84799 0.0
H673 H 0.97573 0.48812 0.87533 0.0
H674 H 0.95468 0.45448 0.88543 0.0
H675 H 0.91654 0.45264 0.89022 0.0
H676 H 0.56195 0.5476 0.38619 0.0
H677 H 0.5235 0.55187 0.3846 0.0
H678 H 0.52888 0.59362 0.32787 0.0
H679 H 0.56726 0.58926 0.32913 0.0
H680 H 0.50276 0.59362 0.38837 0.0
H681 H 0.48141 0.5493 0.30974 0.0
H682 H 0.50654 0.54522 0.32354 0.0
H683 H 0.50201 0.57012 0.30762 0.0
C684 C 0.55495 0.55739 0.37316 0.0
C685 C 0.56767 0.56813 0.35781 0.0
C686 C 0.53298 0.55982 0.37229 0.0
C687 C 0.52336 0.57286 0.35598 0.0
C688 C 0.53596 0.58312 0.34032 0.0
H689 H 0.39719 0.62516 0.3324 0.0
H690 H 0.43484 0.61558 0.33097 0.0
C691 C 0.55792 0.58071 0.34117 0.0
C692 C 0.50036 0.5773 0.35645 0.0
H693 H 0.4546 0.57206 0.32633 0.0
C694 C 0.49218 0.58874 0.3749 0.0
C695 C 0.48669 0.57106 0.33875 0.0
C696 C 0.49453 0.55807 0.31886 0.0
C697 C 0.47072 0.59449 0.37599 0.0
C698 C 0.45704 0.58828 0.3583 0.0
C699 C 0.46518 0.5768 0.33984 0.0
C700 C 0.43419 0.59349 0.35877 0.0
C701 C 0.46296 0.60765 0.39585 0.0
C702 C 0.42137 0.58393 0.37465 0.0
C703 C 0.39993 0.58939 0.37556 0.0
C704 C 0.39089 0.60443 0.3605 0.0
C705 C 0.40369 0.61361 0.3443 0.0
C706 C 0.42517 0.60813 0.34342 0.0
H707 H 0.47617 0.61595 0.40523 0.0
H708 H 0.45142 0.62092 0.39104 0.0
H709 H 0.45493 0.59581 0.40689 0.0
H710 H 0.42797 0.57226 0.38638 0.0
H711 H 0.39049 0.58186 0.38813 0.0
H712 H 0.59416 0.43055 0.59683 0.0
H713 H 0.55602 0.43569 0.60073 0.0
H714 H 0.55467 0.38125 0.64677 0.0
H715 H 0.59279 0.3763 0.64333 0.0
H716 H 0.52588 0.40431 0.59033 0.0
H717 H 0.51993 0.42946 0.67802 0.0
H718 H 0.54464 0.42989 0.66362 0.0
H719 H 0.53463 0.40364 0.67397 0.0
C720 C 0.58579 0.41987 0.60802 0.0
C721 C 0.5965 0.403 0.61978 0.0
C722 C 0.56401 0.42285 0.61023 0.0
C723 C 0.55256 0.40909 0.62428 0.0
C724 C 0.56326 0.39245 0.63626 0.0
H725 H 0.42452 0.37093 0.64503 0.0
H726 H 0.46281 0.37647 0.64489 0.0
C727 C 0.58505 0.38953 0.63414 0.0
C728 C 0.52922 0.41081 0.6251 0.0
H729 H 0.48791 0.41628 0.66019 0.0
C730 C 0.51757 0.40728 0.60555 0.0
C731 C 0.51843 0.4147 0.64498 0.0
C732 C 0.53006 0.41987 0.6663 0.0
C733 C 0.49541 0.40658 0.60547 0.0
C734 C 0.48468 0.40971 0.62545 0.0
C735 C 0.49626 0.41383 0.64492 0.0
C736 C 0.46146 0.40745 0.62656 0.0
C737 C 0.48364 0.40161 0.58418 0.0
C738 C 0.44809 0.42331 0.61661 0.0
C739 C 0.42617 0.42023 0.61667 0.0
C740 C 0.41733 0.4012 0.62666 0.0
C741 C 0.43082 0.38569 0.63709 0.0
C742 C 0.45269 0.38884 0.63709 0.0
H743 H 0.49439 0.3959 0.57091 0.0
H744 H 0.47147 0.38828 0.5864 0.0
H745 H 0.47544 0.41726 0.57887 0.0
H746 H 0.45462 0.43791 0.6086 0.0
H747 H 0.4162 0.43253 0.60857 0.0
H748 H 0.08197 0.5158 0.11089 0.0
H749 H 0.04333 0.51564 0.11255 0.0
H750 H 0.04529 0.57554 0.15482 0.0
H751 H 0.08383 0.5761 0.15299 0.0
H752 H 0.01588 0.51368 0.14833 0.0
H753 H 0.00673 0.59452 0.10404 0.0
H754 H 0.03128 0.57891 0.10479 0.0
H755 H 0.02377 0.59668 0.12779 0.0
C756 C 0.07419 0.52889 0.12061 0.0
C757 C 0.08596 0.5461 0.13163 0.0
C758 C 0.05213 0.52875 0.12155 0.0
C759 C 0.04149 0.54581 0.13348 0.0
C760 C 0.05321 0.56252 0.14513 0.0
H761 H 0.9111 0.58242 0.15406 0.0
H762 H 0.94948 0.57818 0.15598 0.0
C763 C 0.07524 0.56274 0.14414 0.0
C764 C 0.01811 0.54641 0.13346 0.0
H765 H 0.97585 0.57946 0.11971 0.0
C766 C 0.00708 0.52799 0.142 0.0
C767 C 0.00674 0.56509 0.1251 0.0
C768 C 0.01769 0.58484 0.11471 0.0
C769 C 0.98491 0.52802 0.14289 0.0
C770 C 0.97358 0.54682 0.13476 0.0
C771 C 0.98462 0.56513 0.12607 0.0
C772 C 0.95022 0.54799 0.13499 0.0
C773 C 0.97382 0.50819 0.15295 0.0
C774 C 0.93793 0.53232 0.12262 0.0
C775 C 0.91595 0.53466 0.1215 0.0
C776 C 0.90593 0.55283 0.1326 0.0
C777 C 0.9183 0.56823 0.1453 0.0
C778 C 0.94024 0.56586 0.14643 0.0
H779 H 0.98478 0.49798 0.16315 0.0
H780 H 0.9605 0.51414 0.16326 0.0
H781 H 0.96727 0.49688 0.13969 0.0
H782 H 0.94538 0.51866 0.11333 0.0
H783 H 0.9069 0.52256 0.11149 0.0
H784 H 0.21366 0.5538 0.07367 0.0
H785 H 0.22129 0.53231 0.03974 0.0
H786 H 0.16035 0.49965 0.04239 0.0
H787 H 0.15272 0.52063 0.07627 0.0
H788 H 0.19359 0.46974 0.03225 0.0
H789 H 0.1933 0.54623 0.98017 0.0
H790 H 0.21122 0.54662 0.00334 0.0
H791 H 0.18323 0.54691 0.00767 0.0
C792 C 0.20193 0.54196 0.06706 0.0
C793 C 0.18252 0.53903 0.07757 0.0
C794 C 0.20629 0.52978 0.04766 0.0
C795 C 0.19127 0.51462 0.03848 0.0
C796 C 0.17214 0.5113 0.04923 0.0
H797 H 0.15562 0.46247 0.9143 0.0
H798 H 0.1626 0.48325 0.94872 0.0
C799 C 0.16779 0.52337 0.06857 0.0
C800 C 0.19489 0.5025 0.01737 0.0
H801 H 0.19675 0.51064 0.96229 0.0
C802 C 0.19462 0.47862 0.01694 0.0
C803 C 0.19609 0.51425 -0.0025 0.0
C804 C 0.19585 0.53991 -0.00299 0.0
C805 C 0.19456 0.46612 -0.00294 0.0
C806 C 0.19516 0.47789 0.97716 0.0
C807 C 0.19639 0.50174 0.97763 0.0
C808 C 0.19204 0.46596 0.95573 0.0
C809 C 0.19262 0.44053 -0.00251 0.0
C810 C 0.20648 0.44958 0.94812 0.0
C811 C 0.20246 0.4375 0.92846 0.0
C812 C 0.18402 0.44179 0.91605 0.0
C813 C 0.16994 0.4587 0.92347 0.0
C814 C 0.17393 0.47065 0.94311 0.0
H815 H 0.18855 0.4345 0.014 0.0
H816 H 0.18035 0.43437 0.98556 0.0
H817 H 0.20792 0.43272 0.99279 0.0
H818 H 0.22072 0.44599 0.95748 0.0
H819 H 0.21369 0.42471 0.92309 0.0
H820 H 0.67641 0.92396 0.29508 0.0
H821 H 0.7052 0.92893 0.26948 0.0
H822 H 0.73512 0.97718 0.31448 0.0
H823 H 0.70604 0.97271 0.34008 0.0
H824 H 0.7371 0.99031 0.27132 0.0
H825 H 0.76326 0.90102 0.27955 0.0
H826 H 0.73596 0.90299 0.27142 0.0
H827 H 0.74448 0.91423 0.29782 0.0
C828 C 0.68904 0.93575 0.2995 0.0
C829 C 0.68909 0.94775 0.31971 0.0
C830 C 0.70552 0.93848 0.2849 0.0
C831 C 0.72252 0.95298 0.29036 0.0
C832 C 0.72221 0.96575 0.31008 0.0
H833 H 0.83705 0.93525 0.21437 0.0
H834 H 0.8136 0.94106 0.24547 0.0
C835 C 0.70559 0.96317 0.32466 0.0
C836 C 0.7408 0.95426 0.27562 0.0
H837 H 0.77703 0.92102 0.2493 0.0
C838 C 0.74602 0.97524 0.26666 0.0
C839 C 0.75275 0.93469 0.27002 0.0
C840 C 0.74899 0.91202 0.28039 0.0
C841 C 0.76227 0.97694 0.25136 0.0
C842 C 0.77318 0.95702 0.24457 0.0
C843 C 0.76855 0.93627 0.25433 0.0
C844 C 0.7886 0.9568 0.22654 0.0
C845 C 0.76755 3e-05 0.24269 0.0
C846 C 0.78251 0.96406 0.20564 0.0
C847 C 0.79598 0.961 0.18791 0.0
C848 C 0.81561 0.95017 0.19066 0.0
C849 C 0.82197 0.94354 0.21172 0.0
C850 C 0.8086 0.94687 0.2295 0.0
H851 H 0.76354 0.01382 0.25471 0.0
H852 H 0.78457 0.00138 0.23874 0.0
H853 H 0.75809 0.00286 0.22754 0.0
H854 H 0.76695 0.97117 0.2028 0.0
H855 H 0.79056 0.96617 0.17187 0.0
H856 H 0.29121 0.46552 0.58886 0.0
H857 H 0.28191 0.4899 0.55817 0.0
H858 H 0.32637 0.45368 0.51738 0.0
H859 H 0.33582 0.42937 0.54783 0.0
H860 H 0.31293 0.51734 0.53707 0.0
H861 H 0.27211 0.45806 0.47844 0.0
H862 H 0.27451 0.45272 0.50741 0.0
H863 H 0.2963 0.44687 0.48956 0.0
C864 C 0.29876 0.46252 0.57325 0.0
C865 C 0.31432 0.4456 0.57077 0.0
C866 C 0.29341 0.47644 0.55577 0.0
C867 C 0.30327 0.47335 0.5355 0.0
C868 C 0.31831 0.45603 0.5328 0.0
H869 H 0.33396 0.52983 0.4166 0.0
H870 H 0.3253 0.50745 0.44826 0.0
C871 C 0.32381 0.44228 0.55027 0.0
C872 C 0.29969 0.48956 0.51774 0.0
H873 H 0.28717 0.4917 0.46333 0.0
C874 C 0.30685 0.51199 0.52103 0.0
C875 C 0.29172 0.4824 0.49696 0.0
C876 C 0.28303 0.45875 0.49288 0.0
C877 C 0.30779 0.527 0.50358 0.0
C878 C 0.30093 0.51942 0.48246 0.0
C879 C 0.2925 0.49743 0.47953 0.0
C880 C 0.30477 0.53293 0.46279 0.0
C881 C 0.31749 0.55024 0.5076 0.0
C882 C 0.29585 0.55459 0.46031 0.0
C883 C 0.30098 0.56761 0.44226 0.0
C884 C 0.3149 0.559 0.42634 0.0
C885 C 0.32324 0.53701 0.42859 0.0
C886 C 0.31825 0.52414 0.44664 0.0
H887 H 0.32549 0.5518 0.5239 0.0
H888 H 0.32918 0.55399 0.49479 0.0
H889 H 0.30489 0.56335 0.50692 0.0
H890 H 0.2851 0.5615 0.4724 0.0
H891 H 0.29414 0.58441 0.44084 0.0
H892 H 0.718 0.02334 0.67051 0.0
H893 H 0.74112 0.02507 0.7031 0.0
H894 H 0.69996 0.07492 0.73309 0.0
H895 H 0.67695 0.07352 0.70067 0.0
H896 H 0.74249 0.08816 0.73145 0.0
H897 H 0.73366 0.00214 0.76613 0.0
H898 H 0.73958 0.00275 0.73743 0.0
H899 H 0.71477 0.0137 0.7469 0.0
C900 C 0.7137 0.03439 0.68419 0.0
C901 C 0.69572 0.04841 0.68295 0.0
C902 C 0.72687 0.03527 0.70282 0.0
C903 C 0.72214 0.05002 0.7205 0.0
C904 C 0.70384 0.06341 0.7196 0.0
H905 H 0.77714 0.07035 0.84953 0.0
H906 H 0.75465 0.06046 0.81772 0.0
C907 C 0.69072 0.06259 0.70104 0.0
C908 C 0.73709 0.05311 0.73918 0.0
H909 H 0.75963 0.02639 0.7827 0.0
C910 C 0.74627 0.07466 0.74265 0.0
C911 C 0.74184 0.03546 0.75376 0.0
C912 C 0.73186 0.01223 0.75106 0.0
C913 C 0.76007 0.0791 0.7604 0.0
C914 C 0.76505 0.06139 0.77484 0.0
C915 C 0.75587 0.03982 0.77143 0.0
C916 C 0.7792 0.06538 0.79402 0.0
C917 C 0.76883 0.10284 0.76386 0.0
C918 C 0.80051 0.07092 0.79115 0.0
C919 C 0.81339 0.07666 0.80924 0.0
C920 C 0.80514 0.07686 0.83051 0.0
C921 C 0.78394 0.07049 0.83335 0.0
C922 C 0.77109 0.06475 0.81523 0.0
H923 H 0.76 0.11552 0.7541 0.0
H924 H 0.76832 0.10815 0.78143 0.0
H925 H 0.78559 0.10309 0.75874 0.0
H926 H 0.80708 0.07121 0.77488 0.0
H927 H 0.82968 0.08131 0.80651 0.0
H928 H 0.83693 0.48306 0.89943 0.0
H929 H 0.83333 0.50587 0.93316 0.0
H930 H 0.79442 0.45366 0.96024 0.0
H931 H 0.79795 0.43055 0.92651 0.0
H932 H 0.79523 0.52157 0.95618 0.0
H933 H 0.84597 0.46231 0.00365 0.0
H934 H 0.84539 0.46208 0.97406 0.0
H935 H 0.82383 0.45011 0.98867 0.0
C936 C 0.82746 0.47645 0.91247 0.0
C937 C 0.81788 0.45489 0.91038 0.0
C938 C 0.82538 0.48956 0.93169 0.0
C939 C 0.8138 0.48131 0.94918 0.0
C940 C 0.80359 0.46017 0.94693 0.0
H941 H 0.81435 0.536 0.08335 0.0
H942 H 0.80533 0.51347 0.05032 0.0
C943 C 0.8056 0.44704 0.92765 0.0
C944 C 0.81345 0.49444 0.97011 0.0
H945 H 0.83378 0.49508 0.02218 0.0
C946 C 0.80348 0.51575 0.97071 0.0
C947 C 0.8242 0.48668 0.98896 0.0
C948 C 0.83561 0.46412 0.98893 0.0
C949 C 0.80422 0.52972 0.98969 0.0
C950 C 0.81563 0.52232 0.00831 0.0
C951 C 0.82505 0.5007 0.00787 0.0
C952 C 0.81911 0.53712 0.028 0.0
C953 C 0.79279 0.55225 0.98964 0.0
C954 C 0.82979 0.55794 0.02638 0.0
C955 C 0.83494 0.57089 0.04521 0.0
C956 C 0.8297 0.56312 0.06602 0.0
C957 C 0.81865 0.54245 0.06756 0.0
C958 C 0.81345 0.52956 0.04872 0.0
H959 H 0.77965 0.55213 0.97733 0.0
H960 H 0.78627 0.55656 0.00601 0.0
H961 H 0.80404 0.56584 0.98529 0.0
H962 H 0.83476 0.56382 0.0106 0.0
H963 H 0.84352 0.58668 0.04347 0.0
H964 H 0.15898 0.04938 0.79353 0.0
H965 H 0.18172 0.03259 0.76516 0.0
H966 H 0.23264 0.07702 0.78659 0.0
H967 H 0.21026 0.09382 0.81477 0.0
H968 H 0.20285 0.05651 0.73108 0.0
H969 H 0.25938 0.01259 0.78563 0.0
H970 H 0.23339 0.02142 0.79433 0.0
H971 H 0.25478 0.04161 0.79413 0.0
C972 C 0.17504 0.05553 0.79219 0.0
C973 C 0.18284 0.0729 0.80642 0.0
C974 C 0.18798 0.04589 0.77605 0.0
C975 C 0.20894 0.05327 0.77416 0.0
C976 C 0.21664 0.07075 0.78815 0.0
H977 H 0.31521 0.06409 0.69965 0.0
H978 H 0.28775 0.06033 0.72687 0.0
C979 C 0.20374 0.08046 0.80413 0.0
C980 C 0.22275 0.0438 0.75691 0.0
H981 H 0.27207 0.02172 0.74977 0.0
C982 C 0.21775 0.04833 0.735 0.0
C983 C 0.24206 0.03302 0.76218 0.0
C984 C 0.24765 0.02665 0.78534 0.0
C985 C 0.23244 0.04415 0.71838 0.0
C986 C 0.25242 0.03493 0.72394 0.0
C987 C 0.25676 0.02886 0.74562 0.0
C988 C 0.26999 0.03475 0.70828 0.0
C989 C 0.22712 0.0512 0.69534 0.0
C990 C 0.26938 0.02109 0.6891 0.0
C991 C 0.28511 0.02322 0.67342 0.0
C992 C 0.3016 0.03907 0.67674 0.0
C993 C 0.30264 0.05187 0.69649 0.0
C994 C 0.287 0.04969 0.71211 0.0
H995 H 0.21191 0.06059 0.69436 0.0
H996 H 0.23984 0.06215 0.689 0.0
H997 H 0.22589 0.03583 0.68445 0.0
H998 H 0.25648 0.00925 0.68603 0.0
H999 H 0.28393 0.01305 0.6584 0.0
H1000 H 0.63797 0.54885 0.41522 0.0
H1001 H 0.64906 0.528 0.44749 0.0
H1002 H 0.71444 0.53869 0.43167 0.0
H1003 H 0.7035 0.55976 0.3992 0.0
H1004 H 0.70204 0.49185 0.44078 0.0
H1005 H 0.67739 0.55421 0.50515 0.0
H1006 H 0.65759 0.54866 0.48426 0.0
H1007 H 0.68202 0.56205 0.47718 0.0
C1008 C 0.65473 0.54692 0.41863 0.0
C1009 C 0.66987 0.55598 0.40467 0.0
C1010 C 0.66101 0.53511 0.43714 0.0
C1011 C 0.68254 0.5321 0.44204 0.0
C1012 C 0.69775 0.54104 0.42819 0.0
H1013 H 0.71246 0.46623 0.56627 0.0
H1014 H 0.71667 0.49111 0.535 0.0
C1015 C 0.69147 0.55306 0.4097 0.0
C1016 C 0.68885 0.51858 0.46112 0.0
H1017 H 0.68245 0.51575 0.51633 0.0
C1018 C 0.69815 0.49721 0.45737 0.0
C1019 C 0.68399 0.52578 0.48272 0.0
C1020 C 0.67488 0.54903 0.48767 0.0
C1021 C 0.70145 0.48218 0.47459 0.0
C1022 C 0.69514 0.48875 0.49594 0.0
C1023 C 0.68714 0.51071 0.49989 0.0
C1024 C 0.69461 0.47242 0.51393 0.0
C1025 C 0.7111 0.45918 0.46973 0.0
C1026 C 0.68088 0.4537 0.51232 0.0
C1027 C 0.67832 0.43961 0.53013 0.0
C1028 C 0.68945 0.444 0.5499 0.0
C1029 C 0.70372 0.46237 0.55124 0.0
C1030 C 0.70614 0.47659 0.53343 0.0
H1031 H 0.72064 0.45931 0.4546 0.0
H1032 H 0.72131 0.45368 0.48358 0.0
H1033 H 0.69828 0.44645 0.4672 0.0
H1034 H 0.67155 0.45046 0.49754 0.0
H1035 H 0.66722 0.42559 0.52856 0.0
H1036 H 0.31505 0.97543 0.28688 0.0
H1037 H 0.29498 0.98336 0.2533 0.0
H1038 H 0.2446 0.93994 0.27435 0.0
H1039 H 0.26421 0.93236 0.30799 0.0
H1040 H 0.28427 0.95245 0.22233 0.0
H1041 H 0.21144 0.99331 0.25234 0.0
H1042 H 0.23485 0.99065 0.26941 0.0
H1043 H 0.21631 0.96743 0.26646 0.0
C1044 C 0.29952 0.96791 0.28451 0.0
C1045 C 0.29123 0.9532 0.30006 0.0
C1046 C 0.28808 0.97249 0.26535 0.0
C1047 C 0.26815 0.96255 0.26149 0.0
C1048 C 0.25967 0.94832 0.27724 0.0
H1049 H 0.20806 0.90501 0.15129 0.0
H1050 H 0.23053 0.91719 0.18215 0.0
C1051 C 0.27103 0.94381 0.2964 0.0
C1052 C 0.25717 0.96474 0.24006 0.0
H1053 H 0.20825 0.97268 0.21724 0.0
C1054 C 0.26778 0.9574 0.22114 0.0
C1055 C 0.23579 0.97163 0.23837 0.0
C1056 C 0.22404 0.98144 0.25773 0.0
C1057 C 0.2571 0.955 0.20093 0.0
C1058 C 0.23519 0.95961 0.19978 0.0
C1059 C 0.22499 0.96875 0.21825 0.0
C1060 C 0.2222 0.95283 0.18035 0.0
C1061 C 0.26926 0.94688 0.18115 0.0
C1062 C 0.20964 0.96876 0.16944 0.0
C1063 C 0.19657 0.9618 0.15182 0.0
C1064 C 0.19576 0.93876 0.14501 0.0
C1065 C 0.20838 0.9229 0.15603 0.0
C1066 C 0.22139 0.92986 0.17357 0.0
H1067 H 0.2862 0.95175 0.18267 0.0
H1068 H 0.26845 0.92803 0.17985 0.0
H1069 H 0.26259 0.95394 0.16582 0.0
H1070 H 0.2099 0.98653 0.1746 0.0
H1071 H 0.18699 0.97441 0.14369 0.0
H1072 H 0.70944 0.05347 0.56852 0.0
H1073 H 0.71348 0.03032 0.53489 0.0
H1074 H 0.65539 0.99514 0.54814 0.0
H1075 H 0.65139 0.01783 0.58182 0.0
H1076 H 0.6878 0.9663 0.53306 0.0
H1077 H 0.67633 0.04138 0.48034 0.0
H1078 H 0.69753 0.04343 0.50023 0.0
H1079 H 0.67066 0.04227 0.50922 0.0
C1080 C 0.69763 0.04067 0.56436 0.0
C1081 C 0.67998 0.03765 0.57772 0.0
C1082 C 0.69993 0.02753 0.54512 0.0
C1083 C 0.68456 0.01129 0.53891 0.0
C1084 C 0.6674 0.00764 0.55264 0.0
H1085 H 0.6395 0.95549 0.41804 0.0
H1086 H 0.64708 0.97543 0.45278 0.0
C1087 C 0.6651 0.02069 0.57185 0.0
C1088 C 0.68557 -0.00124 0.51764 0.0
H1089 H 0.68035 0.00582 0.46251 0.0
C1090 C 0.68643 0.97489 0.51759 0.0
C1091 C 0.68358 0.01011 0.49755 0.0
C1092 C 0.68181 0.03569 0.49669 0.0
C1093 C 0.68475 0.962 0.49797 0.0
C1094 C 0.68243 0.97336 0.47793 0.0
C1095 C 0.68223 0.99722 0.47794 0.0
C1096 C 0.67824 0.96088 0.45697 0.0
C1097 C 0.68446 0.93637 0.4989 0.0
C1098 C 0.69333 0.94613 0.4478 0.0
C1099 C 0.68901 0.93458 0.42791 0.0
C1100 C 0.66959 0.93774 0.41686 0.0
C1101 C 0.6546 0.95263 0.42611 0.0
C1102 C 0.65891 0.96409 0.44595 0.0
H1103 H 0.68254 0.93039 0.51587 0.0
H1104 H 0.67144 0.92919 0.48844 0.0
H1105 H 0.69959 0.92952 0.49257 0.0
H1106 H 0.70847 0.94371 0.45592 0.0
H1107 H 0.70092 0.92331 0.42114 0.0
H1108 H 0.3377 0.38583 0.70013 0.0
H1109 H 0.31282 0.39369 0.72961 0.0
H1110 H 0.28386 0.44655 0.69171 0.0
H1111 H 0.30849 0.43866 0.66199 0.0
H1112 H 0.30324 0.43457 0.75401 0.0
H1113 H 0.23493 0.40229 0.70359 0.0
H1114 H 0.26198 0.39712 0.69594 0.0
H1115 H 0.25028 0.42457 0.69196 0.0
C1116 C 0.32617 0.39926 0.69812 0.0
C1117 C 0.32491 0.41144 0.67862 0.0
C1118 C 0.312 0.40375 0.71499 0.0
C1119 C 0.29635 0.42044 0.71263 0.0
C1120 C 0.29563 0.43334 0.69364 0.0
H1121 H 0.18756 0.44119 0.79835 0.0
H1122 H 0.21362 0.44745 0.7698 0.0
C1123 C 0.30976 0.42884 0.67673 0.0
C1124 C 0.28021 0.42345 0.72969 0.0
H1125 H 0.22801 0.41439 0.73972 0.0
C1126 C 0.28675 0.43037 0.75088 0.0
C1127 C 0.25871 0.41805 0.72545 0.0
C1128 C 0.25097 0.40993 0.70306 0.0
C1129 C 0.27238 0.43154 0.76814 0.0
C1130 C 0.25108 0.42524 0.76408 0.0
C1131 C 0.24437 0.41921 0.74272 0.0
C1132 C 0.23594 0.42275 0.78205 0.0
C1133 C 0.28017 0.43926 0.7906 0.0
C1134 C 0.23982 0.40666 0.79817 0.0
C1135 C 0.22501 0.40298 0.81437 0.0
C1136 C 0.20595 0.41526 0.81469 0.0
C1137 C 0.20211 0.43149 0.79856 0.0
C1138 C 0.21697 0.43512 0.78228 0.0
H1139 H 0.29457 0.45 0.78962 0.0
H1140 H 0.26782 0.44904 0.79949 0.0
H1141 H 0.28431 0.42412 0.80028 0.0
H1142 H 0.25414 0.39656 0.79796 0.0
H1143 H 0.22844 0.39032 0.82651 0.0
H1144 H 0.7791 0.03109 0.92931 0.0
H1145 H 0.77718 0.0076 0.96179 0.0
H1146 H 0.82543 0.04895 0.99379 0.0
H1147 H 0.82724 0.07264 0.96169 0.0
H1148 H 0.81 0.98249 0.97825 0.0
H1149 H 0.78222 0.0437 0.04179 0.0
H1150 H 0.77996 0.04913 0.01286 0.0
H1151 H 0.80451 0.05437 0.02744 0.0
C1152 C 0.78904 0.03542 0.94341 0.0
C1153 C 0.80335 0.05372 0.9429 0.0
C1154 C 0.78792 0.02198 0.96194 0.0
C1155 C 0.80095 0.02673 0.9803 0.0
C1156 C 0.81487 0.0453 0.98001 0.0
H1157 H 0.85194 0.96665 0.09375 0.0
H1158 H 0.8412 0.98947 0.06263 0.0
C1159 C 0.81599 0.05874 0.96155 0.0
C1160 C 0.80156 0.01116 -0.00102 0.0
H1161 H 0.80016 0.01033 0.05482 0.0
C1162 C 0.80744 0.98842 -0.00503 0.0
C1163 C 0.79818 0.01897 0.02075 0.0
C1164 C 0.79065 0.04283 0.02596 0.0
C1165 C 0.81123 0.97362 0.01227 0.0
C1166 C 0.80884 0.98178 0.03407 0.0
C1167 C 0.80209 0.00421 0.03805 0.0
C1168 C 0.81482 0.96784 0.05299 0.0
C1169 C 0.81879 0.94974 0.0072 0.0
C1170 C 0.80342 0.94818 0.05788 0.0
C1171 C 0.80953 0.93504 0.07569 0.0
C1172 C 0.82711 0.94141 0.08885 0.0
C1173 C 0.83837 0.96121 0.08391 0.0
C1174 C 0.83223 0.97432 0.06618 0.0
H1175 H 0.823 0.94726 0.9897 0.0
H1176 H 0.8328 0.94565 0.01756 0.0
H1177 H 0.80609 0.93747 0.01094 0.0
H1178 H 0.78979 0.94307 0.04799 0.0
H1179 H 0.80047 0.91994 0.07913 0.0
H1180 H 0.2118 0.51219 0.1663 0.0
H1181 H 0.23586 0.51023 0.19809 0.0
H1182 H 0.19968 0.56226 0.23158 0.0
H1183 H 0.1756 0.56424 0.20017 0.0
H1184 H 0.25985 0.54725 0.21382 0.0
H1185 H 0.20877 0.51524 0.27898 0.0
H1186 H 0.20202 0.51201 0.2502 0.0
H1187 H 0.19682 0.53839 0.26475 0.0
C1188 C 0.20875 0.52289 0.18062 0.0
C1189 C 0.19185 0.53844 0.18071 0.0
C1190 C 0.2225 0.52174 0.19872 0.0
C1191 C 0.21936 0.53587 0.21725 0.0
C1192 C 0.20212 0.55085 0.21762 0.0
H1193 H 0.27783 0.59678 0.32821 0.0
H1194 H 0.25573 0.58214 0.29789 0.0
C1195 C 0.18846 0.55209 0.19956 0.0
C1196 C 0.23516 0.53696 0.23534 0.0
H1197 H 0.23956 0.53674 0.29108 0.0
C1198 C 0.25563 0.54445 0.23069 0.0
C1199 C 0.22953 0.53327 0.25728 0.0
C1200 C 0.20814 0.52406 0.2631 0.0
C1201 C 0.2702 0.54989 0.24758 0.0
C1202 C 0.26413 0.54743 0.26958 0.0
C1203 C 0.24407 0.53875 0.27417 0.0
C1204 C 0.27764 0.55567 0.28807 0.0
C1205 C 0.29147 0.5595 0.24183 0.0
C1206 C 0.29723 0.54551 0.2926 0.0
C1207 C 0.30997 0.5539 0.3099 0.0
C1208 C 0.30324 0.5725 0.32297 0.0
C1209 C 0.28351 0.58247 0.31844 0.0
C1210 C 0.27082 0.57409 0.30118 0.0
H1211 H 0.29234 0.56378 0.22424 0.0
H1212 H 0.295 0.57507 0.25193 0.0
H1213 H 0.30394 0.54678 0.24536 0.0
H1214 H 0.30261 0.53109 0.2828 0.0
H1215 H 0.32503 0.54577 0.31305 0.0
H1216 H 0.28762 0.06577 0.57126 0.0
H1217 H 0.28071 0.04732 0.53541 0.0
H1218 H 0.34004 0.01153 0.54032 0.0
H1219 H 0.34695 0.02954 0.57613 0.0
H1220 H 0.3047 0.05014 0.4982 0.0
H1221 H 0.29866 0.96066 0.52351 0.0
H1222 H 0.29715 0.98442 0.54279 0.0
H1223 H 0.32243 0.97413 0.53371 0.0
C1224 C 0.2991 0.05381 0.56478 0.0
C1225 C 0.31781 0.04906 0.57656 0.0
C1226 C 0.29512 0.0433 0.54433 0.0
C1227 C 0.3097 0.02779 0.53542 0.0
C1228 C 0.32835 0.02304 0.54714 0.0
H1229 H 0.34117 0.98791 0.40562 0.0
H1230 H 0.336 0.00668 0.44123 0.0
C1231 C 0.33234 0.03348 0.56756 0.0
C1232 C 0.30615 0.01744 0.51334 0.0
H1233 H 0.30574 0.96644 0.48544 0.0
C1234 C 0.30459 0.03184 0.4954 0.0
C1235 C 0.30563 0.99358 0.50978 0.0
C1236 C 0.30583 0.9773 0.5285 0.0
C1237 C 0.30372 0.02297 0.47385 0.0
C1238 C 0.30483 -0.00087 0.47025 0.0
C1239 C 0.30517 0.98473 0.48824 0.0
C1240 C 0.307 0.9888 0.44805 0.0
C1241 C 0.30187 0.03921 0.45518 0.0
C1242 C 0.29261 0.97221 0.44025 0.0
C1243 C 0.29564 0.96125 0.41996 0.0
C1244 C 0.31319 0.96663 0.4072 0.0
C1245 C 0.32743 0.98345 0.41498 0.0
C1246 C 0.32441 0.99434 0.43526 0.0
H1247 H 0.29437 0.05548 0.4605 0.0
H1248 H 0.31792 0.0432 0.44926 0.0
H1249 H 0.2925 0.03166 0.44128 0.0
H1250 H 0.27916 0.96759 0.44997 0.0
H1251 H 0.28439 0.94837 0.41443 0.0
H1252 H 0.76499 0.58761 0.1606 0.0
H1253 H 0.74087 0.57563 0.18893 0.0
H1254 H 0.78974 0.53339 0.21649 0.0
H1255 H 0.81423 0.54578 0.18849 0.0
H1256 H 0.7262 0.5333 0.19961 0.0
H1257 H 0.77272 0.57269 0.26886 0.0
H1258 H 0.7781 0.57855 0.24063 0.0
H1259 H 0.78673 0.55226 0.25224 0.0
C1260 C 0.77064 0.57578 0.17268 0.0
C1261 C 0.79158 0.56783 0.17246 0.0
C1262 C 0.75681 0.56889 0.18881 0.0
C1263 C 0.76361 0.55388 0.20497 0.0
C1264 C 0.78432 0.54537 0.20444 0.0
H1265 H 0.69118 0.52108 0.32167 0.0
H1266 H 0.71651 0.51622 0.2919 0.0
C1267 C 0.79826 0.55241 0.1884 0.0
C1268 C 0.74901 0.54775 0.22258 0.0
H1269 H 0.741 0.5545 0.27753 0.0
C1270 C 0.72952 0.53772 0.21668 0.0
C1271 C 0.75343 0.55345 0.24486 0.0
C1272 C 0.77379 0.56499 0.2521 0.0
C1273 C 0.71404 0.53393 0.23238 0.0
C1274 C 0.71817 0.54047 0.25445 0.0
C1275 C 0.738 0.54944 0.26055 0.0
C1276 C 0.7014 0.54077 0.27101 0.0
C1277 C 0.69321 0.52347 0.22521 0.0
C1278 C 0.6845 0.55602 0.26893 0.0
C1279 C 0.6702 0.55901 0.28591 0.0
C1280 C 0.67253 0.54673 0.30526 0.0
C1281 C 0.68894 0.53071 0.30691 0.0
C1282 C 0.70342 0.52791 0.28997 0.0
H1283 H 0.69461 0.5137 0.20947 0.0
H1284 H 0.68714 0.51199 0.23785 0.0
H1285 H 0.68143 0.5372 0.22279 0.0
H1286 H 0.68291 0.56638 0.25456 0.0
H1287 H 0.65769 0.57144 0.28413 0.0
H1288 H 0.15918 0.9319 0.03302 0.0
H1289 H 0.16292 0.95932 0.00404 0.0
H1290 H 0.22705 0.97314 0.0253 0.0
H1291 H 0.22353 0.94554 0.05456 0.0
H1292 H 0.17563 0.00794 0.01544 0.0
H1293 H 0.22717 0.96238 0.95535 0.0
H1294 H 0.21083 0.94696 0.97395 0.0
H1295 H 0.23368 0.96203 0.98423 0.0
C1296 C 0.1742 0.94051 0.03143 0.0
C1297 C 0.19103 0.93664 0.04618 0.0
C1298 C 0.17629 0.95616 0.01486 0.0
C1299 C 0.19523 0.96815 0.01262 0.0
C1300 C 0.21236 0.96386 0.02676 0.0
H1301 H 0.20606 0.07082 0.91006 0.0
H1302 H 0.21627 0.04766 0.94146 0.0
C1303 C 0.2103 0.94813 0.04343 0.0
C1304 C 0.19617 0.98626 -0.0036 0.0
H1305 H 0.21197 0.99699 0.94449 0.0
C1306 C 0.18388 0.00578 7e-05 0.0
C1307 C 0.20712 0.98337 0.97654 0.0
C1308 C 0.22047 0.96258 0.97207 0.0
C1309 C 0.18134 0.02202 0.98387 0.0
C1310 C 0.1911 0.01839 0.96343 0.0
C1311 C 0.20449 -0.0004 0.96022 0.0
C1312 C 0.18541 0.03235 0.9445 0.0
C1313 C 0.16759 0.04252 0.98842 0.0
C1314 C 0.16481 0.03105 0.93579 0.0
C1315 C 0.15896 0.04407 0.91795 0.0
C1316 C 0.17364 0.05865 0.90845 0.0
C1317 C 0.19438 0.05981 0.91711 0.0
C1318 C 0.20026 0.04661 0.93497 0.0
H1319 H 0.16617 0.04611 0.00629 0.0
H1320 H 0.17399 0.05785 0.98056 0.0
H1321 H 0.15149 0.03922 0.98157 0.0
H1322 H 0.15323 0.01989 0.94281 0.0
H1323 H 0.14289 0.04272 0.91168 0.0
H1324 H 0.68033 0.46754 0.6565 0.0
H1325 H 0.70362 0.47473 0.68842 0.0
H1326 H 0.72495 0.40505 0.68483 0.0
H1327 H 0.7022 0.39785 0.65284 0.0
H1328 H 0.70408 0.45502 0.72836 0.0
H1329 H 0.78032 0.43956 0.68767 0.0
H1330 H 0.75593 0.44353 0.67248 0.0
H1331 H 0.76254 0.41608 0.68313 0.0
C1332 C 0.69008 0.4538 0.66246 0.0
C1333 C 0.68953 0.43217 0.65206 0.0
C1334 C 0.70336 0.45794 0.68067 0.0
C1335 C 0.71633 0.44055 0.68867 0.0
C1336 C 0.71552 0.41888 0.67853 0.0
H1337 H 0.76732 0.41274 0.8141 0.0
H1338 H 0.74545 0.41954 0.78171 0.0
C1339 C 0.70237 0.41476 0.66033 0.0
C1340 C 0.73015 0.44455 0.70818 0.0
H1341 H 0.78054 0.43642 0.72699 0.0
C1342 C 0.72087 0.45133 0.72803 0.0
C1343 C 0.75214 0.44026 0.70763 0.0
C1344 C 0.76335 0.43471 0.68651 0.0
C1345 C 0.73278 0.45255 0.74761 0.0
C1346 C 0.75438 0.44627 0.74735 0.0
C1347 C 0.76391 0.44089 0.72727 0.0
C1348 C 0.76704 0.44362 0.76774 0.0
C1349 C 0.72203 0.46033 0.76838 0.0
C1350 C 0.78672 0.45445 0.77045 0.0
C1351 C 0.79948 0.45026 0.78881 0.0
C1352 C 0.79275 0.43515 0.80478 0.0
C1353 C 0.7729 0.4246 0.80218 0.0
C1354 C 0.76027 0.42864 0.78375 0.0
H1355 H 0.70863 0.47194 0.76477 0.0
H1356 H 0.71551 0.4453 0.77662 0.0
H1357 H 0.73323 0.46922 0.77987 0.0
H1358 H 0.79233 0.46594 0.7582 0.0
H1359 H 0.81468 0.45868 0.79037 0.0
loop_
_geom_bond_atom_site_label_1
_geom_bond_atom_site_label_2
_geom_bond_distance
_geom_bond_site_symmetry_2
_ccdc_geom_bond_type
C0 O1 1.160 . S
C0 O7 1.185 . S
O1 C0 1.160 . S
O2 Zn3 1.899 . S
O2 C10 1.284 . S
Zn3 O2 1.899 . S
Zn3 O4 2.032 . S
Zn3 O7 2.086 . S
Zn3 O12 1.977 . S
O4 Zn3 2.032 . S
O4 C8 1.278 . S
C5 O6 1.203 . S
C5 O12 1.267 . S
O6 C5 1.203 . S
O7 C0 1.185 . S
O7 Zn3 2.086 . S
C8 O4 1.278 . S
C8 O9 1.211 . S
O9 C8 1.211 . S
C10 O2 1.284 . S
C10 O11 1.273 . S
O11 C10 1.273 . S
O12 Zn3 1.977 . S
O12 C5 1.267 . S
C13 O14 1.160 . S
C13 O20 1.185 . S
O14 C13 1.160 . S
O15 Zn16 1.899 . S
O15 C23 1.284 . S
Zn16 O15 1.899 . S
Zn16 O17 2.032 . S
Zn16 O20 2.086 . S
Zn16 O25 1.977 . S
O17 Zn16 2.032 . S
O17 C21 1.278 . S
C18 O19 1.203 . S
C18 O25 1.267 . S
O19 C18 1.203 . S
O20 C13 1.185 . S
O20 Zn16 2.086 . S
C21 O17 1.278 . S
C21 O22 1.211 . S
O22 C21 1.211 . S
C23 O15 1.284 . S
C23 O24 1.273 . S
O24 C23 1.273 . S
O25 Zn16 1.977 . S
O25 C18 1.267 . S
C26 O27 1.160 . S
C26 O33 1.185 . S
O27 C26 1.160 . S
O28 Zn29 1.899 . S
O28 C36 1.284 . S
Zn29 O28 1.899 . S
Zn29 O30 2.032 . S
Zn29 O33 2.086 . S
Zn29 O38 1.977 . S
O30 Zn29 2.032 . S
O30 C34 1.278 . S
C31 O32 1.203 . S
C31 O38 1.267 . S
O32 C31 1.203 . S
O33 C26 1.185 . S
O33 Zn29 2.086 . S
C34 O30 1.278 . S
C34 O35 1.211 . S
O35 C34 1.211 . S
C36 O28 1.284 . S
C36 O37 1.273 . S
O37 C36 1.273 . S
O38 Zn29 1.977 . S
O38 C31 1.267 . S
C39 O40 1.160 . S
C39 O46 1.185 . S
O40 C39 1.160 . S
O41 Zn42 1.899 . S
O41 C49 1.284 . S
Zn42 O41 1.899 . S
Zn42 O43 2.032 . S
Zn42 O46 2.086 . S
Zn42 O51 1.977 . S
O43 Zn42 2.032 . S
O43 C47 1.278 . S
C44 O45 1.203 . S
C44 O51 1.267 . S
O45 C44 1.203 . S
O46 C39 1.185 . S
O46 Zn42 2.086 . S
C47 O43 1.278 . S
C47 O48 1.211 . S
O48 C47 1.211 . S
C49 O41 1.284 . S
C49 O50 1.273 . S
O50 C49 1.273 . S
O51 Zn42 1.977 . S
O51 C44 1.267 . S
C52 O53 1.160 . S
C52 O59 1.185 . S
O53 C52 1.160 . S
O54 Zn55 1.899 . S
O54 C62 1.284 . S
Zn55 O54 1.899 . S
Zn55 O56 2.032 . S
Zn55 O59 2.086 . S
Zn55 O64 1.977 . S
O56 Zn55 2.032 . S
O56 C60 1.278 . S
C57 O58 1.203 . S
C57 O64 1.267 . S
O58 C57 1.203 . S
O59 C52 1.185 . S
O59 Zn55 2.086 . S
C60 O56 1.278 . S
C60 O61 1.211 . S
O61 C60 1.211 . S
C62 O54 1.284 . S
C62 O63 1.273 . S
O63 C62 1.273 . S
O64 Zn55 1.977 . S
O64 C57 1.267 . S
C65 O66 1.160 . S
C65 O72 1.185 . S
O66 C65 1.160 . S
O67 Zn68 1.899 . S
O67 C75 1.284 . S
Zn68 O67 1.899 . S
Zn68 O69 2.032 . S
Zn68 O72 2.086 . S
Zn68 O77 1.977 . S
O69 Zn68 2.032 . S
O69 C73 1.278 . S
C70 O71 1.203 . S
C70 O77 1.267 . S
O71 C70 1.203 . S
O72 C65 1.185 . S
O72 Zn68 2.086 . S
C73 O69 1.278 . S
C73 O74 1.211 . S
O74 C73 1.211 . S
C75 O67 1.284 . S
C75 O76 1.273 . S
O76 C75 1.273 . S
O77 Zn68 1.977 . S
O77 C70 1.267 . S
C78 O79 1.160 . S
C78 O85 1.185 . S
O79 C78 1.160 . S
O80 Zn81 1.899 . S
O80 C88 1.284 . S
Zn81 O80 1.899 . S
Zn81 O82 2.032 . S
Zn81 O85 2.086 . S
Zn81 O90 1.977 . S
O82 Zn81 2.032 . S
O82 C86 1.278 . S
C83 O84 1.203 . S
C83 O90 1.267 . S
O84 C83 1.203 . S
O85 C78 1.185 . S
O85 Zn81 2.086 . S
C86 O82 1.278 . S
C86 O87 1.211 . S
O87 C86 1.211 . S
C88 O80 1.284 . S
C88 O89 1.273 . S
O89 C88 1.273 . S
O90 Zn81 1.977 . S
O90 C83 1.267 . S
C91 O92 1.160 . S
C91 O98 1.185 . S
O92 C91 1.160 . S
O93 Zn94 1.899 . S
O93 C101 1.284 . S
Zn94 O93 1.899 . S
Zn94 O95 2.032 . S
Zn94 O98 2.086 . S
Zn94 O103 1.977 . S
O95 Zn94 2.032 . S
O95 C99 1.278 . S
C96 O97 1.203 . S
C96 O103 1.267 . S
O97 C96 1.203 . S
O98 C91 1.185 . S
O98 Zn94 2.086 . S
C99 O95 1.278 . S
C99 O100 1.211 . S
O100 C99 1.211 . S
C101 O93 1.284 . S
C101 O102 1.273 . S
O102 C101 1.273 . S
O103 Zn94 1.977 . S
O103 C96 1.267 . S
C104 O105 1.160 . S
C104 O111 1.185 . S
O105 C104 1.160 . S
O106 Zn107 1.899 . S
O106 C114 1.284 . S
Zn107 O106 1.899 . S
Zn107 O108 2.032 . S
Zn107 O111 2.086 . S
Zn107 O116 1.977 . S
O108 Zn107 2.032 . S
O108 C112 1.278 . S
C109 O110 1.203 . S
C109 O116 1.267 . S
O110 C109 1.203 . S
O111 C104 1.185 . S
O111 Zn107 2.086 . S
C112 O108 1.278 . S
C112 O113 1.211 . S
O113 C112 1.211 . S
C114 O106 1.284 . S
C114 O115 1.273 . S
O115 C114 1.273 . S
O116 Zn107 1.977 . S
O116 C109 1.267 . S
C117 O118 1.160 . S
C117 O124 1.185 . S
O118 C117 1.160 . S
O119 Zn120 1.899 . S
O119 C127 1.284 . S
Zn120 O119 1.899 . S
Zn120 O121 2.032 . S
Zn120 O124 2.086 . S
Zn120 O129 1.977 . S
O121 Zn120 2.032 . S
O121 C125 1.278 . S
C122 O123 1.203 . S
C122 O129 1.267 . S
O123 C122 1.203 . S
O124 C117 1.185 . S
O124 Zn120 2.086 . S
C125 O121 1.278 . S
C125 O126 1.211 . S
O126 C125 1.211 . S
C127 O119 1.284 . S
C127 O128 1.273 . S
O128 C127 1.273 . S
O129 Zn120 1.977 . S
O129 C122 1.267 . S
C130 O131 1.160 . S
C130 O137 1.185 . S
O131 C130 1.160 . S
O132 Zn133 1.899 . S
O132 C140 1.284 . S
Zn133 O132 1.899 . S
Zn133 O134 2.032 . S
Zn133 O137 2.086 . S
Zn133 O142 1.977 . S
O134 Zn133 2.032 . S
O134 C138 1.278 . S
C135 O136 1.203 . S
C135 O142 1.267 . S
O136 C135 1.203 . S
O137 C130 1.185 . S
O137 Zn133 2.086 . S
C138 O134 1.278 . S
C138 O139 1.211 . S
O139 C138 1.211 . S
C140 O132 1.284 . S
C140 O141 1.273 . S
O141 C140 1.273 . S
O142 Zn133 1.977 . S
O142 C135 1.267 . S
C143 O144 1.160 . S
C143 O150 1.185 . S
O144 C143 1.160 . S
O145 Zn146 1.899 . S
O145 C153 1.284 . S
Zn146 O145 1.899 . S
Zn146 O147 2.032 . S
Zn146 O150 2.086 . S
Zn146 O155 1.977 . S
O147 Zn146 2.032 . S
O147 C151 1.278 . S
C148 O149 1.203 . S
C148 O155 1.267 . S
O149 C148 1.203 . S
O150 C143 1.185 . S
O150 Zn146 2.086 . S
C151 O147 1.278 . S
C151 O152 1.211 . S
O152 C151 1.211 . S
C153 O145 1.284 . S
C153 O154 1.273 . S
O154 C153 1.273 . S
O155 Zn146 1.977 . S
O155 C148 1.267 . S
C156 O157 1.160 . S
C156 O163 1.185 . S
O157 C156 1.160 . S
O158 Zn159 1.899 . S
O158 C166 1.284 . S
Zn159 O158 1.899 . S
Zn159 O160 2.032 . S
Zn159 O163 2.086 . S
Zn159 O168 1.977 . S
O160 Zn159 2.032 . S
O160 C164 1.278 . S
C161 O162 1.203 . S
C161 O168 1.267 . S
O162 C161 1.203 . S
O163 C156 1.185 . S
O163 Zn159 2.086 . S
C164 O160 1.278 . S
C164 O165 1.211 . S
O165 C164 1.211 . S
C166 O158 1.284 . S
C166 O167 1.273 . S
O167 C166 1.273 . S
O168 Zn159 1.977 . S
O168 C161 1.267 . S
C169 O170 1.160 . S
C169 O176 1.185 . S
O170 C169 1.160 . S
O171 Zn172 1.899 . S
O171 C179 1.284 . S
Zn172 O171 1.899 . S
Zn172 O173 2.032 . S
Zn172 O176 2.086 . S
Zn172 O181 1.977 . S
O173 Zn172 2.032 . S
O173 C177 1.278 . S
C174 O175 1.203 . S
C174 O181 1.267 . S
O175 C174 1.203 . S
O176 C169 1.185 . S
O176 Zn172 2.086 . S
C177 O173 1.278 . S
C177 O178 1.211 . S
O178 C177 1.211 . S
C179 O171 1.284 . S
C179 O180 1.273 . S
O180 C179 1.273 . S
O181 Zn172 1.977 . S
O181 C174 1.267 . S
C182 O183 1.160 . S
C182 O189 1.185 . S
O183 C182 1.160 . S
O184 Zn185 1.899 . S
O184 C192 1.284 . S
Zn185 O184 1.899 . S
Zn185 O186 2.032 . S
Zn185 O189 2.086 . S
Zn185 O194 1.977 . S
O186 Zn185 2.032 . S
O186 C190 1.278 . S
C187 O188 1.203 . S
C187 O194 1.267 . S
O188 C187 1.203 . S
O189 C182 1.185 . S
O189 Zn185 2.086 . S
C190 O186 1.278 . S
C190 O191 1.211 . S
O191 C190 1.211 . S
C192 O184 1.284 . S
C192 O193 1.273 . S
O193 C192 1.273 . S
O194 Zn185 1.977 . S
O194 C187 1.267 . S
C195 O196 1.160 . S
C195 O202 1.185 . S
O196 C195 1.160 . S
O197 Zn198 1.899 . S
O197 C205 1.284 . S
Zn198 O197 1.899 . S
Zn198 O199 2.032 . S
Zn198 O202 2.086 . S
Zn198 O207 1.977 . S
O199 Zn198 2.032 . S
O199 C203 1.278 . S
C200 O201 1.203 . S
C200 O207 1.267 . S
O201 C200 1.203 . S
O202 C195 1.185 . S
O202 Zn198 2.086 . S
C203 O199 1.278 . S
C203 O204 1.211 . S
O204 C203 1.211 . S
C205 O197 1.284 . S
C205 O206 1.273 . S
O206 C205 1.273 . S
O207 Zn198 1.977 . S
O207 C200 1.267 . S
H208 C216 0.929 . S
H209 C218 0.930 . S
H210 C220 0.930 . S
H211 C223 0.929 . S
H212 C226 0.930 . S
H213 C228 0.960 . S
H214 C228 0.960 . S
H215 C228 0.960 . S
C216 H208 0.929 . S
C216 C217 1.377 . S
C216 C218 1.384 . S
C217 C216 1.377 . S
C217 C223 1.390 . S
C218 H209 0.930 . S
C218 C216 1.384 . S
C218 C219 1.372 . S
C219 C218 1.372 . S
C219 C220 1.400 . S
C219 C224 1.490 . S
C220 H210 0.930 . S
C220 C219 1.400 . S
C220 C223 1.386 . S
H221 C237 0.930 . S
H222 C238 0.931 . S
C223 H211 0.929 . S
C223 C217 1.390 . S
C223 C220 1.386 . S
C224 C219 1.490 . S
C224 C226 1.395 . S
C224 C227 1.403 . S
H225 C231 0.930 . S
C226 H212 0.930 . S
C226 C224 1.395 . S
C226 C229 1.403 . S
C227 C224 1.403 . S
C227 C228 1.524 . S
C227 C231 1.400 . S
C228 H213 0.960 . S
C228 H214 0.960 . S
C228 H215 0.960 . S
C228 C227 1.524 . S
C229 C226 1.403 . S
C229 C230 1.392 . S
C229 C233 1.495 . S
C230 C229 1.392 . S
C230 C231 1.385 . S
C230 C232 1.478 . S
C231 H225 0.930 . S
C231 C227 1.400 . S
C231 C230 1.385 . S
C232 C230 1.478 . S
C232 C234 1.381 . S
C232 C238 1.383 . S
C233 C229 1.495 . S
C233 H239 0.959 . S
C233 H240 0.961 . S
C233 H241 0.960 . S
C234 C232 1.381 . S
C234 C235 1.394 . S
C234 H242 0.930 . S
C235 C234 1.394 . S
C235 C236 1.383 . S
C235 H243 0.929 . S
C236 C235 1.383 . S
C236 C237 1.377 . S
C237 H221 0.930 . S
C237 C236 1.377 . S
C237 C238 1.379 . S
C238 H222 0.931 . S
C238 C232 1.383 . S
C238 C237 1.379 . S
H239 C233 0.959 . S
H240 C233 0.961 . S
H241 C233 0.960 . S
H242 C234 0.930 . S
H243 C235 0.929 . S
H244 C252 0.929 . S
H245 C254 0.930 . S
H246 C256 0.930 . S
H247 C259 0.929 . S
H248 C262 0.930 . S
H249 C264 0.960 . S
H250 C264 0.960 . S
H251 C264 0.960 . S
C252 H244 0.929 . S
C252 C253 1.377 . S
C252 C254 1.384 . S
C253 C252 1.377 . S
C253 C259 1.390 . S
C254 H245 0.930 . S
C254 C252 1.384 . S
C254 C255 1.372 . S
C255 C254 1.372 . S
C255 C256 1.400 . S
C255 C260 1.490 . S
C256 H246 0.930 . S
C256 C255 1.400 . S
C256 C259 1.386 . S
H257 C273 0.930 . S
H258 C274 0.931 . S
C259 H247 0.929 . S
C259 C253 1.390 . S
C259 C256 1.386 . S
C260 C255 1.490 . S
C260 C262 1.395 . S
C260 C263 1.403 . S
H261 C267 0.930 . S
C262 H248 0.930 . S
C262 C260 1.395 . S
C262 C265 1.403 . S
C263 C260 1.403 . S
C263 C264 1.524 . S
C263 C267 1.400 . S
C264 H249 0.960 . S
C264 H250 0.960 . S
C264 H251 0.960 . S
C264 C263 1.524 . S
C265 C262 1.403 . S
C265 C266 1.392 . S
C265 C269 1.495 . S
C266 C265 1.392 . S
C266 C267 1.385 . S
C266 C268 1.478 . S
C267 H261 0.930 . S
C267 C263 1.400 . S
C267 C266 1.385 . S
C268 C266 1.478 . S
C268 C270 1.381 . S
C268 C274 1.383 . S
C269 C265 1.495 . S
C269 H275 0.959 . S
C269 H276 0.961 . S
C269 H277 0.960 . S
C270 C268 1.381 . S
C270 C271 1.394 . S
C270 H278 0.930 . S
C271 C270 1.394 . S
C271 C272 1.383 . S
C271 H279 0.929 . S
C272 C271 1.383 . S
C272 C273 1.377 . S
C273 H257 0.930 . S
C273 C272 1.377 . S
C273 C274 1.379 . S
C274 H258 0.931 . S
C274 C268 1.383 . S
C274 C273 1.379 . S
H275 C269 0.959 . S
H276 C269 0.961 . S
H277 C269 0.960 . S
H278 C270 0.930 . S
H279 C271 0.929 . S
H280 C288 0.929 . S
H281 C290 0.930 . S
H282 C292 0.930 . S
H283 C295 0.929 . S
H284 C298 0.930 . S
H285 C300 0.960 . S
H286 C300 0.960 . S
H287 C300 0.960 . S
C288 H280 0.929 . S
C288 C289 1.377 . S
C288 C290 1.384 . S
C289 C288 1.377 . S
C289 C295 1.390 . S
C290 H281 0.930 . S
C290 C288 1.384 . S
C290 C291 1.372 . S
C291 C290 1.372 . S
C291 C292 1.400 . S
C291 C296 1.490 . S
C292 H282 0.930 . S
C292 C291 1.400 . S
C292 C295 1.386 . S
H293 C309 0.930 . S
H294 C310 0.931 . S
C295 H283 0.929 . S
C295 C289 1.390 . S
C295 C292 1.386 . S
C296 C291 1.490 . S
C296 C298 1.395 . S
C296 C299 1.403 . S
H297 C303 0.930 . S
C298 H284 0.930 . S
C298 C296 1.395 . S
C298 C301 1.403 . S
C299 C296 1.403 . S
C299 C300 1.524 . S
C299 C303 1.400 . S
C300 H285 0.960 . S
C300 H286 0.960 . S
C300 H287 0.960 . S
C300 C299 1.524 . S
C301 C298 1.403 . S
C301 C302 1.392 . S
C301 C305 1.495 . S
C302 C301 1.392 . S
C302 C303 1.385 . S
C302 C304 1.478 . S
C303 H297 0.930 . S
C303 C299 1.400 . S
C303 C302 1.385 . S
C304 C302 1.478 . S
C304 C306 1.381 . S
C304 C310 1.383 . S
C305 C301 1.495 . S
C305 H311 0.959 . S
C305 H312 0.961 . S
C305 H313 0.960 . S
C306 C304 1.381 . S
C306 C307 1.394 . S
C306 H314 0.930 . S
C307 C306 1.394 . S
C307 C308 1.383 . S
C307 H315 0.929 . S
C308 C307 1.383 . S
C308 C309 1.377 . S
C309 H293 0.930 . S
C309 C308 1.377 . S
C309 C310 1.379 . S
C310 H294 0.931 . S
C310 C304 1.383 . S
C310 C309 1.379 . S
H311 C305 0.959 . S
H312 C305 0.961 . S
H313 C305 0.960 . S
H314 C306 0.930 . S
H315 C307 0.929 . S
H316 C324 0.929 . S
H317 C326 0.930 . S
H318 C328 0.930 . S
H319 C331 0.929 . S
H320 C334 0.930 . S
H321 C336 0.960 1_655 S
H322 C336 0.960 . S
H323 C336 0.960 . S
C324 H316 0.929 . S
C324 C325 1.377 . S
C324 C326 1.384 . S
C325 C324 1.377 . S
C325 C331 1.390 . S
C326 H317 0.930 . S
C326 C324 1.384 . S
C326 C327 1.372 . S
C327 C326 1.372 . S
C327 C328 1.400 . S
C327 C332 1.490 . S
C328 H318 0.930 . S
C328 C327 1.400 . S
C328 C331 1.386 . S
H329 C345 0.930 . S
H330 C346 0.931 . S
C331 H319 0.929 . S
C331 C325 1.390 . S
C331 C328 1.386 . S
C332 C327 1.490 . S
C332 C334 1.395 . S
C332 C335 1.433 . S
H333 C339 0.930 . S
C334 H320 0.930 . S
C334 C332 1.395 . S
C334 C337 1.403 1_455 S
C335 C332 1.433 . S
C335 C336 1.544 . S
C335 C339 1.348 1_455 S
C336 H321 0.960 1_455 S
C336 H322 0.960 . S
C336 H323 0.960 . S
C336 C335 1.544 . S
C337 C334 1.403 1_655 S
C337 C338 1.392 . S
C337 C341 1.495 . S
C338 C337 1.392 . S
C338 C339 1.385 . S
C338 C340 1.478 . S
C339 H333 0.930 . S
C339 C335 1.348 1_655 S
C339 C338 1.385 . S
C340 C338 1.478 . S
C340 C342 1.381 . S
C340 C346 1.383 . S
C341 C337 1.495 . S
C341 H347 0.959 . S
C341 H348 0.961 . S
C341 H349 0.960 . S
C342 C340 1.381 . S
C342 C343 1.394 . S
C342 H350 0.930 . S
C343 C342 1.394 . S
C343 C344 1.383 . S
C343 H351 0.929 . S
C344 C343 1.383 . S
C344 C345 1.377 . S
C345 H329 0.930 . S
C345 C344 1.377 . S
C345 C346 1.379 . S
C346 H330 0.931 . S
C346 C340 1.383 . S
C346 C345 1.379 . S
H347 C341 0.959 . S
H348 C341 0.961 . S
H349 C341 0.960 . S
H350 C342 0.930 . S
H351 C343 0.929 . S
H352 C360 0.929 . S
H353 C362 0.930 . S
H354 C364 0.930 . S
H355 C367 0.929 . S
H356 C370 0.930 . S
H357 C372 0.960 . S
H358 C372 0.960 . S
H359 C372 0.960 . S
C360 H352 0.929 . S
C360 C361 1.377 . S
C360 C362 1.384 . S
C361 C360 1.377 . S
C361 C367 1.390 . S
C362 H353 0.930 . S
C362 C360 1.384 . S
C362 C363 1.372 . S
C363 C362 1.372 . S
C363 C364 1.400 . S
C363 C368 1.490 . S
C364 H354 0.930 . S
C364 C363 1.400 . S
C364 C367 1.386 . S
H365 C381 0.930 . S
H366 C382 0.931 . S
C367 H355 0.929 . S
C367 C361 1.390 . S
C367 C364 1.386 . S
C368 C363 1.490 . S
C368 C370 1.395 . S
C368 C371 1.403 . S
H369 C375 0.930 . S
C370 H356 0.930 . S
C370 C368 1.395 . S
C370 C373 1.403 . S
C371 C368 1.403 . S
C371 C372 1.524 . S
C371 C375 1.400 . S
C372 H357 0.960 . S
C372 H358 0.960 . S
C372 H359 0.960 . S
C372 C371 1.524 . S
C373 C370 1.403 . S
C373 C374 1.392 . S
C373 C377 1.495 . S
C374 C373 1.392 . S
C374 C375 1.385 . S
C374 C376 1.478 . S
C375 H369 0.930 . S
C375 C371 1.400 . S
C375 C374 1.385 . S
C376 C374 1.478 . S
C376 C378 1.381 . S
C376 C382 1.383 . S
C377 C373 1.495 . S
C377 H383 0.959 . S
C377 H384 0.961 . S
C377 H385 0.960 . S
C378 C376 1.381 . S
C378 C379 1.394 . S
C378 H386 0.930 . S
C379 C378 1.394 . S
C379 C380 1.383 . S
C379 H387 0.929 . S
C380 C379 1.383 . S
C380 C381 1.377 . S
C381 H365 0.930 . S
C381 C380 1.377 . S
C381 C382 1.379 . S
C382 H366 0.931 . S
C382 C376 1.383 . S
C382 C381 1.379 . S
H383 C377 0.959 . S
H384 C377 0.961 . S
H385 C377 0.960 . S
H386 C378 0.930 . S
H387 C379 0.929 . S
H388 C396 0.929 . S
H389 C398 0.930 . S
H390 C400 0.930 . S
H391 C403 0.929 . S
H392 C406 0.930 . S
H393 C408 0.960 1_455 S
H394 C408 0.960 . S
H395 C408 0.960 . S
C396 H388 0.929 . S
C396 C397 1.377 . S
C396 C398 1.384 . S
C397 C396 1.377 . S
C397 C403 1.390 . S
C398 H389 0.930 . S
C398 C396 1.384 . S
C398 C399 1.372 . S
C399 C398 1.372 . S
C399 C400 1.400 . S
C399 C404 1.490 . S
C400 H390 0.930 . S
C400 C399 1.400 . S
C400 C403 1.386 . S
H401 C417 0.930 . S
H402 C418 0.931 . S
C403 H391 0.929 . S
C403 C397 1.390 . S
C403 C400 1.386 . S
C404 C399 1.490 . S
C404 C406 1.395 . S
C404 C407 1.400 . S
H405 C411 0.930 . S
C406 H392 0.930 . S
C406 C404 1.395 . S
C406 C409 1.403 1_655 S
C407 C404 1.400 . S
C407 C408 1.522 . S
C407 C411 1.404 1_655 S
C408 H393 0.960 1_655 S
C408 H394 0.960 . S
C408 H395 0.960 . S
C408 C407 1.522 . S
C409 C406 1.403 1_455 S
C409 C410 1.392 . S
C409 C413 1.495 . S
C410 C409 1.392 . S
C410 C411 1.385 . S
C410 C412 1.478 . S
C411 H405 0.930 . S
C411 C407 1.404 1_455 S
C411 C410 1.385 . S
C412 C410 1.478 . S
C412 C414 1.381 . S
C412 C418 1.383 . S
C413 C409 1.495 . S
C413 H419 0.959 . S
C413 H420 0.961 . S
C413 H421 0.960 . S
C414 C412 1.381 . S
C414 C415 1.394 . S
C414 H422 0.930 . S
C415 C414 1.394 . S
C415 C416 1.383 . S
C415 H423 0.929 . S
C416 C415 1.383 . S
C416 C417 1.377 . S
C417 H401 0.930 . S
C417 C416 1.377 . S
C417 C418 1.379 . S
C418 H402 0.931 . S
C418 C412 1.383 . S
C418 C417 1.379 . S
H419 C413 0.959 . S
H420 C413 0.961 . S
H421 C413 0.960 . S
H422 C414 0.930 . S
H423 C415 0.929 . S
H424 C432 0.929 . S
H425 C434 0.930 . S
H426 C436 0.930 . S
H427 C439 0.929 . S
H428 C442 0.930 . S
H429 C444 0.960 . S
H430 C444 0.960 . S
H431 C444 0.960 . S
C432 H424 0.929 . S
C432 C433 1.377 . S
C432 C434 1.384 . S
C433 C432 1.377 . S
C433 C439 1.390 . S
C434 H425 0.930 . S
C434 C432 1.384 . S
C434 C435 1.372 . S
C435 C434 1.372 . S
C435 C436 1.400 . S
C435 C440 1.490 . S
C436 H426 0.930 . S
C436 C435 1.400 . S
C436 C439 1.386 . S
H437 C453 0.930 . S
H438 C454 0.931 . S
C439 H427 0.929 . S
C439 C433 1.390 . S
C439 C436 1.386 . S
C440 C435 1.490 . S
C440 C442 1.395 . S
C440 C443 1.403 . S
H441 C447 0.930 . S
C442 H428 0.930 . S
C442 C440 1.395 . S
C442 C445 1.403 . S
C443 C440 1.403 . S
C443 C444 1.524 . S
C443 C447 1.400 . S
C444 H429 0.960 . S
C444 H430 0.960 . S
C444 H431 0.960 . S
C444 C443 1.524 . S
C445 C442 1.403 . S
C445 C446 1.392 . S
C445 C449 1.495 . S
C446 C445 1.392 . S
C446 C447 1.385 . S
C446 C448 1.478 . S
C447 H441 0.930 . S
C447 C443 1.400 . S
C447 C446 1.385 . S
C448 C446 1.478 . S
C448 C450 1.381 . S
C448 C454 1.383 . S
C449 C445 1.495 . S
C449 H455 0.959 . S
C449 H456 0.961 . S
C449 H457 0.960 . S
C450 C448 1.381 . S
C450 C451 1.394 . S
C450 H458 0.930 . S
C451 C450 1.394 . S
C451 C452 1.383 . S
C451 H459 0.929 . S
C452 C451 1.383 . S
C452 C453 1.377 . S
C453 H437 0.930 . S
C453 C452 1.377 . S
C453 C454 1.379 . S
C454 H438 0.931 . S
C454 C448 1.383 . S
C454 C453 1.379 . S
H455 C449 0.959 . S
H456 C449 0.961 . S
H457 C449 0.960 . S
H458 C450 0.930 . S
H459 C451 0.929 . S
H460 C468 0.929 . S
H461 C470 0.930 . S
H462 C472 0.930 . S
H463 C475 0.929 . S
H464 C478 0.930 . S
H465 C480 0.960 . S
H466 C480 0.960 . S
H467 C480 0.960 . S
C468 H460 0.929 . S
C468 C469 1.377 . S
C468 C470 1.384 . S
C469 C468 1.377 . S
C469 C475 1.390 . S
C470 H461 0.930 . S
C470 C468 1.384 . S
C470 C471 1.372 . S
C471 C470 1.372 . S
C471 C472 1.400 . S
C471 C476 1.490 . S
C472 H462 0.930 . S
C472 C471 1.400 . S
C472 C475 1.386 . S
H473 C489 0.930 . S
H474 C490 0.931 . S
C475 H463 0.929 . S
C475 C469 1.390 . S
C475 C472 1.386 . S
C476 C471 1.490 . S
C476 C478 1.395 . S
C476 C479 1.403 . S
H477 C483 0.930 . S
C478 H464 0.930 . S
C478 C476 1.395 . S
C478 C481 1.403 . S
C479 C476 1.403 . S
C479 C480 1.524 . S
C479 C483 1.400 . S
C480 H465 0.960 . S
C480 H466 0.960 . S
C480 H467 0.960 . S
C480 C479 1.524 . S
C481 C478 1.403 . S
C481 C482 1.392 . S
C481 C485 1.495 . S
C482 C481 1.392 . S
C482 C483 1.385 . S
C482 C484 1.478 . S
C483 H477 0.930 . S
C483 C479 1.400 . S
C483 C482 1.385 . S
C484 C482 1.478 . S
C484 C486 1.381 . S
C484 C490 1.383 . S
C485 C481 1.495 . S
C485 H491 0.959 . S
C485 H492 0.961 . S
C485 H493 0.960 . S
C486 C484 1.381 . S
C486 C487 1.394 . S
C486 H494 0.930 . S
C487 C486 1.394 . S
C487 C488 1.383 . S
C487 H495 0.929 . S
C488 C487 1.383 . S
C488 C489 1.377 . S
C489 H473 0.930 . S
C489 C488 1.377 . S
C489 C490 1.379 . S
C490 H474 0.931 . S
C490 C484 1.383 . S
C490 C489 1.379 . S
H491 C485 0.959 . S
H492 C485 0.961 . S
H493 C485 0.960 . S
H494 C486 0.930 . S
H495 C487 0.929 . S
H496 C504 0.929 . S
H497 C506 0.930 . S
H498 C508 0.930 . S
H499 C511 0.929 . S
H500 C514 0.930 . S
H501 C516 0.960 . S
H502 C516 0.960 . S
H503 C516 0.960 . S
C504 H496 0.929 . S
C504 C505 1.377 . S
C504 C506 1.384 . S
C505 C504 1.377 . S
C505 C511 1.390 . S
C506 H497 0.930 . S
C506 C504 1.384 . S
C506 C507 1.372 . S
C507 C506 1.372 . S
C507 C508 1.400 . S
C507 C512 1.490 . S
C508 H498 0.930 . S
C508 C507 1.400 . S
C508 C511 1.386 . S
H509 C525 0.930 . S
H510 C526 0.931 . S
C511 H499 0.929 . S
C511 C505 1.390 . S
C511 C508 1.386 . S
C512 C507 1.490 . S
C512 C514 1.395 . S
C512 C515 1.403 . S
H513 C519 0.930 . S
C514 H500 0.930 . S
C514 C512 1.395 . S
C514 C517 1.403 . S
C515 C512 1.403 . S
C515 C516 1.524 . S
C515 C519 1.400 . S
C516 H501 0.960 . S
C516 H502 0.960 . S
C516 H503 0.960 . S
C516 C515 1.524 . S
C517 C514 1.403 . S
C517 C518 1.392 . S
C517 C521 1.495 . S
C518 C517 1.392 . S
C518 C519 1.385 . S
C518 C520 1.478 . S
C519 H513 0.930 . S
C519 C515 1.400 . S
C519 C518 1.385 . S
C520 C518 1.478 . S
C520 C522 1.381 . S
C520 C526 1.383 . S
C521 C517 1.495 . S
C521 H527 0.959 . S
C521 H528 0.961 . S
C521 H529 0.960 . S
C522 C520 1.381 . S
C522 C523 1.394 . S
C522 H530 0.930 . S
C523 C522 1.394 . S
C523 C524 1.383 . S
C523 H531 0.929 . S
C524 C523 1.383 . S
C524 C525 1.377 . S
C525 H509 0.930 . S
C525 C524 1.377 . S
C525 C526 1.379 . S
C526 H510 0.931 . S
C526 C520 1.383 . S
C526 C525 1.379 . S
H527 C521 0.959 . S
H528 C521 0.961 . S
H529 C521 0.960 . S
H530 C522 0.930 . S
H531 C523 0.929 . S
H532 C540 0.929 . S
H533 C542 0.930 . S
H534 C544 0.930 . S
H535 C547 0.929 . S
H536 C550 0.930 . S
H537 C552 0.960 . S
H538 C552 0.960 . S
H539 C552 0.960 . S
C540 H532 0.929 . S
C540 C541 1.377 . S
C540 C542 1.384 . S
C541 C540 1.377 . S
C541 C547 1.390 . S
C542 H533 0.930 . S
C542 C540 1.384 . S
C542 C543 1.372 . S
C543 C542 1.372 . S
C543 C544 1.400 . S
C543 C548 1.490 . S
C544 H534 0.930 . S
C544 C543 1.400 . S
C544 C547 1.386 . S
H545 C561 0.930 . S
H546 C562 0.931 . S
C547 H535 0.929 . S
C547 C541 1.390 . S
C547 C544 1.386 . S
C548 C543 1.490 . S
C548 C550 1.395 . S
C548 C551 1.403 . S
H549 C555 0.930 . S
C550 H536 0.930 . S
C550 C548 1.395 . S
C550 C553 1.403 . S
C551 C548 1.403 . S
C551 C552 1.524 . S
C551 C555 1.400 . S
C552 H537 0.960 . S
C552 H538 0.960 . S
C552 H539 0.960 . S
C552 C551 1.524 . S
C553 C550 1.403 . S
C553 C554 1.392 . S
C553 C557 1.495 . S
C554 C553 1.392 . S
C554 C555 1.385 . S
C554 C556 1.478 . S
C555 H549 0.930 . S
C555 C551 1.400 . S
C555 C554 1.385 . S
C556 C554 1.478 . S
C556 C558 1.381 . S
C556 C562 1.383 . S
C557 C553 1.495 . S
C557 H563 0.959 . S
C557 H564 0.961 . S
C557 H565 0.960 . S
C558 C556 1.381 . S
C558 C559 1.394 . S
C558 H566 0.930 . S
C559 C558 1.394 . S
C559 C560 1.383 . S
C559 H567 0.929 . S
C560 C559 1.383 . S
C560 C561 1.377 . S
C561 H545 0.930 . S
C561 C560 1.377 . S
C561 C562 1.379 . S
C562 H546 0.931 . S
C562 C556 1.383 . S
C562 C561 1.379 . S
H563 C557 0.959 . S
H564 C557 0.961 . S
H565 C557 0.960 . S
H566 C558 0.930 . S
H567 C559 0.929 . S
H568 C576 0.929 . S
H569 C578 0.930 . S
H570 C580 0.930 . S
H571 C583 0.929 . S
H572 C586 0.930 . S
H573 C588 0.960 . S
H574 C588 0.960 . S
H575 C588 0.960 . S
C576 H568 0.929 . S
C576 C577 1.377 . S
C576 C578 1.384 . S
C577 C576 1.377 . S
C577 C583 1.390 . S
C578 H569 0.930 . S
C578 C576 1.384 . S
C578 C579 1.372 . S
C579 C578 1.372 . S
C579 C580 1.400 . S
C579 C584 1.490 . S
C580 H570 0.930 . S
C580 C579 1.400 . S
C580 C583 1.386 . S
H581 C597 0.930 . S
H582 C598 0.931 . S
C583 H571 0.929 . S
C583 C577 1.390 . S
C583 C580 1.386 . S
C584 C579 1.490 . S
C584 C586 1.395 . S
C584 C587 1.403 . S
H585 C591 0.930 . S
C586 H572 0.930 . S
C586 C584 1.395 . S
C586 C589 1.403 . S
C587 C584 1.403 . S
C587 C588 1.524 . S
C587 C591 1.400 . S
C588 H573 0.960 . S
C588 H574 0.960 . S
C588 H575 0.960 . S
C588 C587 1.524 . S
C589 C586 1.403 . S
C589 C590 1.392 . S
C589 C593 1.495 . S
C590 C589 1.392 . S
C590 C591 1.385 . S
C590 C592 1.478 . S
C591 H585 0.930 . S
C591 C587 1.400 . S
C591 C590 1.385 . S
C592 C590 1.478 . S
C592 C594 1.381 . S
C592 C598 1.383 . S
C593 C589 1.495 . S
C593 H599 0.959 . S
C593 H600 0.961 . S
C593 H601 0.960 . S
C594 C592 1.381 . S
C594 C595 1.394 . S
C594 H602 0.930 . S
C595 C594 1.394 . S
C595 C596 1.383 . S
C595 H603 0.929 . S
C596 C595 1.383 . S
C596 C597 1.377 . S
C597 H581 0.930 . S
C597 C596 1.377 . S
C597 C598 1.379 . S
C598 H582 0.931 . S
C598 C592 1.383 . S
C598 C597 1.379 . S
H599 C593 0.959 . S
H600 C593 0.961 . S
H601 C593 0.960 . S
H602 C594 0.930 . S
H603 C595 0.929 . S
H604 C612 0.929 . S
H605 C614 0.930 . S
H606 C616 0.930 . S
H607 C619 0.929 . S
H608 C622 0.930 . S
H609 C624 0.960 . S
H610 C624 0.960 . S
H611 C624 0.960 . S
C612 H604 0.929 . S
C612 C613 1.377 . S
C612 C614 1.384 . S
C613 C612 1.377 . S
C613 C619 1.390 . S
C614 H605 0.930 . S
C614 C612 1.384 . S
C614 C615 1.372 . S
C615 C614 1.372 . S
C615 C616 1.400 . S
C615 C620 1.490 . S
C616 H606 0.930 . S
C616 C615 1.400 . S
C616 C619 1.386 . S
H617 C633 0.930 . S
H618 C634 0.931 . S
C619 H607 0.929 . S
C619 C613 1.390 . S
C619 C616 1.386 . S
C620 C615 1.490 . S
C620 C622 1.395 . S
C620 C623 1.403 . S
H621 C627 0.930 . S
C622 H608 0.930 . S
C622 C620 1.395 . S
C622 C625 1.403 . S
C623 C620 1.403 . S
C623 C624 1.524 . S
C623 C627 1.400 . S
C624 H609 0.960 . S
C624 H610 0.960 . S
C624 H611 0.960 . S
C624 C623 1.524 . S
C625 C622 1.403 . S
C625 C626 1.392 . S
C625 C629 1.495 . S
C626 C625 1.392 . S
C626 C627 1.385 . S
C626 C628 1.478 . S
C627 H621 0.930 . S
C627 C623 1.400 . S
C627 C626 1.385 . S
C628 C626 1.478 . S
C628 C630 1.381 . S
C628 C634 1.383 . S
C629 C625 1.495 . S
C629 H635 0.959 . S
C629 H636 0.961 . S
C629 H637 0.960 . S
C630 C628 1.381 . S
C630 C631 1.394 . S
C630 H638 0.930 . S
C631 C630 1.394 . S
C631 C632 1.383 . S
C631 H639 0.929 . S
C632 C631 1.383 . S
C632 C633 1.377 . S
C633 H617 0.930 . S
C633 C632 1.377 . S
C633 C634 1.379 . S
C634 H618 0.931 . S
C634 C628 1.383 . S
C634 C633 1.379 . S
H635 C629 0.959 . S
H636 C629 0.961 . S
H637 C629 0.960 . S
H638 C630 0.930 . S
H639 C631 0.929 . S
H640 C648 0.929 . S
H641 C650 0.930 . S
H642 C652 0.930 . S
H643 C655 0.929 . S
H644 C658 0.930 . S
H645 C660 0.960 . S
H646 C660 0.960 . S
H647 C660 0.960 . S
C648 H640 0.929 . S
C648 C649 1.377 . S
C648 C650 1.384 . S
C649 C648 1.377 . S
C649 C655 1.390 . S
C650 H641 0.930 . S
C650 C648 1.384 . S
C650 C651 1.372 . S
C651 C650 1.372 . S
C651 C652 1.400 . S
C651 C656 1.490 . S
C652 H642 0.930 . S
C652 C651 1.400 . S
C652 C655 1.386 . S
H653 C669 0.930 . S
H654 C670 0.931 . S
C655 H643 0.929 . S
C655 C649 1.390 . S
C655 C652 1.386 . S
C656 C651 1.490 . S
C656 C658 1.395 . S
C656 C659 1.403 . S
H657 C663 0.930 . S
C658 H644 0.930 . S
C658 C656 1.395 . S
C658 C661 1.403 1_455 S
C659 C656 1.403 . S
C659 C660 1.524 . S
C659 C663 1.400 1_455 S
C660 H645 0.960 . S
C660 H646 0.960 . S
C660 H647 0.960 . S
C660 C659 1.524 . S
C661 C658 1.403 1_655 S
C661 C662 1.392 . S
C661 C665 1.495 . S
C662 C661 1.392 . S
C662 C663 1.385 . S
C662 C664 1.478 . S
C663 H657 0.930 . S
C663 C659 1.400 1_655 S
C663 C662 1.385 . S
C664 C662 1.478 . S
C664 C666 1.381 . S
C664 C670 1.383 . S
C665 C661 1.495 . S
C665 H671 0.959 . S
C665 H672 0.961 . S
C665 H673 0.960 . S
C666 C664 1.381 . S
C666 C667 1.394 . S
C666 H674 0.930 . S
C667 C666 1.394 . S
C667 C668 1.383 . S
C667 H675 0.929 . S
C668 C667 1.383 . S
C668 C669 1.377 . S
C669 H653 0.930 . S
C669 C668 1.377 . S
C669 C670 1.379 . S
C670 H654 0.931 . S
C670 C664 1.383 . S
C670 C669 1.379 . S
H671 C665 0.959 . S
H672 C665 0.961 . S
H673 C665 0.960 . S
H674 C666 0.930 . S
H675 C667 0.929 . S
H676 C684 0.929 . S
H677 C686 0.930 . S
H678 C688 0.930 . S
H679 C691 0.929 . S
H680 C694 0.930 . S
H681 C696 0.960 . S
H682 C696 0.960 . S
H683 C696 0.960 . S
C684 H676 0.929 . S
C684 C685 1.377 . S
C684 C686 1.384 . S
C685 C684 1.377 . S
C685 C691 1.390 . S
C686 H677 0.930 . S
C686 C684 1.384 . S
C686 C687 1.372 . S
C687 C686 1.372 . S
C687 C688 1.400 . S
C687 C692 1.490 . S
C688 H678 0.930 . S
C688 C687 1.400 . S
C688 C691 1.386 . S
H689 C705 0.930 . S
H690 C706 0.931 . S
C691 H679 0.929 . S
C691 C685 1.390 . S
C691 C688 1.386 . S
C692 C687 1.490 . S
C692 C694 1.395 . S
C692 C695 1.403 . S
H693 C699 0.930 . S
C694 H680 0.930 . S
C694 C692 1.395 . S
C694 C697 1.403 . S
C695 C692 1.403 . S
C695 C696 1.524 . S
C695 C699 1.400 . S
C696 H681 0.960 . S
C696 H682 0.960 . S
C696 H683 0.960 . S
C696 C695 1.524 . S
C697 C694 1.403 . S
C697 C698 1.392 . S
C697 C701 1.495 . S
C698 C697 1.392 . S
C698 C699 1.385 . S
C698 C700 1.478 . S
C699 H693 0.930 . S
C699 C695 1.400 . S
C699 C698 1.385 . S
C700 C698 1.478 . S
C700 C702 1.381 . S
C700 C706 1.383 . S
C701 C697 1.495 . S
C701 H707 0.959 . S
C701 H708 0.961 . S
C701 H709 0.960 . S
C702 C700 1.381 . S
C702 C703 1.394 . S
C702 H710 0.930 . S
C703 C702 1.394 . S
C703 C704 1.383 . S
C703 H711 0.929 . S
C704 C703 1.383 . S
C704 C705 1.377 . S
C705 H689 0.930 . S
C705 C704 1.377 . S
C705 C706 1.379 . S
C706 H690 0.931 . S
C706 C700 1.383 . S
C706 C705 1.379 . S
H707 C701 0.959 . S
H708 C701 0.961 . S
H709 C701 0.960 . S
H710 C702 0.930 . S
H711 C703 0.929 . S
H712 C720 0.929 . S
H713 C722 0.930 . S
H714 C724 0.930 . S
H715 C727 0.929 . S
H716 C730 0.930 . S
H717 C732 0.960 . S
H718 C732 0.960 . S
H719 C732 0.960 . S
C720 H712 0.929 . S
C720 C721 1.377 . S
C720 C722 1.384 . S
C721 C720 1.377 . S
C721 C727 1.390 . S
C722 H713 0.930 . S
C722 C720 1.384 . S
C722 C723 1.372 . S
C723 C722 1.372 . S
C723 C724 1.400 . S
C723 C728 1.490 . S
C724 H714 0.930 . S
C724 C723 1.400 . S
C724 C727 1.386 . S
H725 C741 0.930 . S
H726 C742 0.931 . S
C727 H715 0.929 . S
C727 C721 1.390 . S
C727 C724 1.386 . S
C728 C723 1.490 . S
C728 C730 1.395 . S
C728 C731 1.403 . S
H729 C735 0.930 . S
C730 H716 0.930 . S
C730 C728 1.395 . S
C730 C733 1.403 . S
C731 C728 1.403 . S
C731 C732 1.524 . S
C731 C735 1.400 . S
C732 H717 0.960 . S
C732 H718 0.960 . S
C732 H719 0.960 . S
C732 C731 1.524 . S
C733 C730 1.403 . S
C733 C734 1.392 . S
C733 C737 1.495 . S
C734 C733 1.392 . S
C734 C735 1.385 . S
C734 C736 1.478 . S
C735 H729 0.930 . S
C735 C731 1.400 . S
C735 C734 1.385 . S
C736 C734 1.478 . S
C736 C738 1.381 . S
C736 C742 1.383 . S
C737 C733 1.495 . S
C737 H743 0.959 . S
C737 H744 0.961 . S
C737 H745 0.960 . S
C738 C736 1.381 . S
C738 C739 1.394 . S
C738 H746 0.930 . S
C739 C738 1.394 . S
C739 C740 1.383 . S
C739 H747 0.929 . S
C740 C739 1.383 . S
C740 C741 1.377 . S
C741 H725 0.930 . S
C741 C740 1.377 . S
C741 C742 1.379 . S
C742 H726 0.931 . S
C742 C736 1.383 . S
C742 C741 1.379 . S
H743 C737 0.959 . S
H744 C737 0.961 . S
H745 C737 0.960 . S
H746 C738 0.930 . S
H747 C739 0.929 . S
H748 C756 0.929 . S
H749 C758 0.930 . S
H750 C760 0.930 . S
H751 C763 0.929 . S
H752 C766 0.930 . S
H753 C768 0.960 . S
H754 C768 0.960 . S
H755 C768 0.960 . S
C756 H748 0.929 . S
C756 C757 1.377 . S
C756 C758 1.384 . S
C757 C756 1.377 . S
C757 C763 1.390 . S
C758 H749 0.930 . S
C758 C756 1.384 . S
C758 C759 1.372 . S
C759 C758 1.372 . S
C759 C760 1.400 . S
C759 C764 1.490 . S
C760 H750 0.930 . S
C760 C759 1.400 . S
C760 C763 1.386 . S
H761 C777 0.930 . S
H762 C778 0.931 . S
C763 H751 0.929 . S
C763 C757 1.390 . S
C763 C760 1.386 . S
C764 C759 1.490 . S
C764 C766 1.395 . S
C764 C767 1.403 . S
H765 C771 0.930 . S
C766 H752 0.930 . S
C766 C764 1.395 . S
C766 C769 1.403 1_455 S
C767 C764 1.403 . S
C767 C768 1.524 . S
C767 C771 1.400 1_455 S
C768 H753 0.960 . S
C768 H754 0.960 . S
C768 H755 0.960 . S
C768 C767 1.524 . S
C769 C766 1.403 1_655 S
C769 C770 1.392 . S
C769 C773 1.495 . S
C770 C769 1.392 . S
C770 C771 1.385 . S
C770 C772 1.478 . S
C771 H765 0.930 . S
C771 C767 1.400 1_655 S
C771 C770 1.385 . S
C772 C770 1.478 . S
C772 C774 1.381 . S
C772 C778 1.383 . S
C773 C769 1.495 . S
C773 H779 0.959 . S
C773 H780 0.961 . S
C773 H781 0.960 . S
C774 C772 1.381 . S
C774 C775 1.394 . S
C774 H782 0.930 . S
C775 C774 1.394 . S
C775 C776 1.383 . S
C775 H783 0.929 . S
C776 C775 1.383 . S
C776 C777 1.377 . S
C777 H761 0.930 . S
C777 C776 1.377 . S
C777 C778 1.379 . S
C778 H762 0.931 . S
C778 C772 1.383 . S
C778 C777 1.379 . S
H779 C773 0.959 . S
H780 C773 0.961 . S
H781 C773 0.960 . S
H782 C774 0.930 . S
H783 C775 0.929 . S
H784 C792 0.929 . S
H785 C794 0.930 . S
H786 C796 0.930 . S
H787 C799 0.929 . S
H788 C802 0.930 . S
H789 C804 0.960 . S
H790 C804 0.960 1_554 S
H791 C804 0.960 1_554 S
C792 H784 0.929 . S
C792 C793 1.377 . S
C792 C794 1.384 . S
C793 C792 1.377 . S
C793 C799 1.390 . S
C794 H785 0.930 . S
C794 C792 1.384 . S
C794 C795 1.372 . S
C795 C794 1.372 . S
C795 C796 1.400 . S
C795 C800 1.490 . S
C796 H786 0.930 . S
C796 C795 1.400 . S
C796 C799 1.386 . S
H797 C813 0.930 . S
H798 C814 0.931 . S
C799 H787 0.929 . S
C799 C793 1.390 . S
C799 C796 1.386 . S
C800 C795 1.490 . S
C800 C802 1.395 . S
C800 C803 1.403 . S
H801 C807 0.930 . S
C802 H788 0.930 . S
C802 C800 1.395 . S
C802 C805 1.403 . S
C803 C800 1.403 . S
C803 C804 1.524 1_554 S
C803 C807 1.400 1_554 S
C804 H789 0.960 . S
C804 H790 0.960 1_556 S
C804 H791 0.960 1_556 S
C804 C803 1.524 1_556 S
C805 C802 1.403 . S
C805 C806 1.392 1_554 S
C805 C809 1.495 . S
C806 C805 1.392 1_556 S
C806 C807 1.385 . S
C806 C808 1.478 . S
C807 H801 0.930 . S
C807 C803 1.400 1_556 S
C807 C806 1.385 . S
C808 C806 1.478 . S
C808 C810 1.381 . S
C808 C814 1.383 . S
C809 C805 1.495 . S
C809 H815 0.959 . S
C809 H816 0.951 1_554 S
C809 H817 0.960 1_554 S
C810 C808 1.381 . S
C810 C811 1.394 . S
C810 H818 0.930 . S
C811 C810 1.394 . S
C811 C812 1.383 . S
C811 H819 0.929 . S
C812 C811 1.383 . S
C812 C813 1.377 . S
C813 H797 0.930 . S
C813 C812 1.377 . S
C813 C814 1.379 . S
C814 H798 0.931 . S
C814 C808 1.383 . S
C814 C813 1.379 . S
H815 C809 0.959 . S
H816 C809 0.951 1_556 S
H817 C809 0.960 1_556 S
H818 C810 0.930 . S
H819 C811 0.929 . S
H820 C828 0.929 . S
H821 C830 0.930 . S
H822 C832 0.930 . S
H823 C835 0.929 . S
H824 C838 0.930 . S
H825 C840 0.960 . S
H826 C840 0.960 . S
H827 C840 0.960 . S
C828 H820 0.929 . S
C828 C829 1.377 . S
C828 C830 1.384 . S
C829 C828 1.377 . S
C829 C835 1.390 . S
C830 H821 0.930 . S
C830 C828 1.384 . S
C830 C831 1.372 . S
C831 C830 1.372 . S
C831 C832 1.400 . S
C831 C836 1.490 . S
C832 H822 0.930 . S
C832 C831 1.400 . S
C832 C835 1.386 . S
H833 C849 0.930 . S
H834 C850 0.931 . S
C835 H823 0.929 . S
C835 C829 1.390 . S
C835 C832 1.386 . S
C836 C831 1.490 . S
C836 C838 1.395 . S
C836 C839 1.403 . S
H837 C843 0.930 . S
C838 H824 0.930 . S
C838 C836 1.395 . S
C838 C841 1.403 . S
C839 C836 1.403 . S
C839 C840 1.524 . S
C839 C843 1.400 . S
C840 H825 0.960 . S
C840 H826 0.960 . S
C840 H827 0.960 . S
C840 C839 1.524 . S
C841 C838 1.403 . S
C841 C842 1.392 . S
C841 C845 1.495 . S
C842 C841 1.392 . S
C842 C843 1.385 . S
C842 C844 1.478 . S
C843 H837 0.930 . S
C843 C839 1.400 . S
C843 C842 1.385 . S
C844 C842 1.478 . S
C844 C846 1.381 . S
C844 C850 1.383 . S
C845 C841 1.495 . S
C845 H851 0.959 . S
C845 H852 0.961 . S
C845 H853 0.960 . S
C846 C844 1.381 . S
C846 C847 1.394 . S
C846 H854 0.930 . S
C847 C846 1.394 . S
C847 C848 1.383 . S
C847 H855 0.929 . S
C848 C847 1.383 . S
C848 C849 1.377 . S
C849 H833 0.930 . S
C849 C848 1.377 . S
C849 C850 1.379 . S
C850 H834 0.931 . S
C850 C844 1.383 . S
C850 C849 1.379 . S
H851 C845 0.959 . S
H852 C845 0.961 . S
H853 C845 0.960 . S
H854 C846 0.930 . S
H855 C847 0.929 . S
H856 C864 0.929 . S
H857 C866 0.930 . S
H858 C868 0.930 . S
H859 C871 0.929 . S
H860 C874 0.930 . S
H861 C876 0.960 . S
H862 C876 0.960 . S
H863 C876 0.960 . S
C864 H856 0.929 . S
C864 C865 1.377 . S
C864 C866 1.384 . S
C865 C864 1.377 . S
C865 C871 1.390 . S
C866 H857 0.930 . S
C866 C864 1.384 . S
C866 C867 1.372 . S
C867 C866 1.372 . S
C867 C868 1.400 . S
C867 C872 1.490 . S
C868 H858 0.930 . S
C868 C867 1.400 . S
C868 C871 1.386 . S
H869 C885 0.930 . S
H870 C886 0.931 . S
C871 H859 0.929 . S
C871 C865 1.390 . S
C871 C868 1.386 . S
C872 C867 1.490 . S
C872 C874 1.395 . S
C872 C875 1.403 . S
H873 C879 0.930 . S
C874 H860 0.930 . S
C874 C872 1.395 . S
C874 C877 1.403 . S
C875 C872 1.403 . S
C875 C876 1.524 . S
C875 C879 1.400 . S
C876 H861 0.960 . S
C876 H862 0.960 . S
C876 H863 0.960 . S
C876 C875 1.524 . S
C877 C874 1.403 . S
C877 C878 1.392 . S
C877 C881 1.495 . S
C878 C877 1.392 . S
C878 C879 1.385 . S
C878 C880 1.478 . S
C879 H873 0.930 . S
C879 C875 1.400 . S
C879 C878 1.385 . S
C880 C878 1.478 . S
C880 C882 1.381 . S
C880 C886 1.383 . S
C881 C877 1.495 . S
C881 H887 0.959 . S
C881 H888 0.961 . S
C881 H889 0.960 . S
C882 C880 1.381 . S
C882 C883 1.394 . S
C882 H890 0.930 . S
C883 C882 1.394 . S
C883 C884 1.383 . S
C883 H891 0.929 . S
C884 C883 1.383 . S
C884 C885 1.377 . S
C885 H869 0.930 . S
C885 C884 1.377 . S
C885 C886 1.379 . S
C886 H870 0.931 . S
C886 C880 1.383 . S
C886 C885 1.379 . S
H887 C881 0.959 . S
H888 C881 0.961 . S
H889 C881 0.960 . S
H890 C882 0.930 . S
H891 C883 0.929 . S
H892 C900 0.929 . S
H893 C902 0.930 . S
H894 C904 0.930 . S
H895 C907 0.929 . S
H896 C910 0.930 . S
H897 C912 0.960 . S
H898 C912 0.960 . S
H899 C912 0.960 . S
C900 H892 0.929 . S
C900 C901 1.377 . S
C900 C902 1.384 . S
C901 C900 1.377 . S
C901 C907 1.390 . S
C902 H893 0.930 . S
C902 C900 1.384 . S
C902 C903 1.372 . S
C903 C902 1.372 . S
C903 C904 1.400 . S
C903 C908 1.490 . S
C904 H894 0.930 . S
C904 C903 1.400 . S
C904 C907 1.386 . S
H905 C921 0.930 . S
H906 C922 0.931 . S
C907 H895 0.929 . S
C907 C901 1.390 . S
C907 C904 1.386 . S
C908 C903 1.490 . S
C908 C910 1.395 . S
C908 C911 1.403 . S
H909 C915 0.930 . S
C910 H896 0.930 . S
C910 C908 1.395 . S
C910 C913 1.403 . S
C911 C908 1.403 . S
C911 C912 1.524 . S
C911 C915 1.400 . S
C912 H897 0.960 . S
C912 H898 0.960 . S
C912 H899 0.960 . S
C912 C911 1.524 . S
C913 C910 1.403 . S
C913 C914 1.392 . S
C913 C917 1.495 . S
C914 C913 1.392 . S
C914 C915 1.385 . S
C914 C916 1.478 . S
C915 H909 0.930 . S
C915 C911 1.400 . S
C915 C914 1.385 . S
C916 C914 1.478 . S
C916 C918 1.381 . S
C916 C922 1.383 . S
C917 C913 1.495 . S
C917 H923 0.959 . S
C917 H924 0.961 . S
C917 H925 0.960 . S
C918 C916 1.381 . S
C918 C919 1.394 . S
C918 H926 0.930 . S
C919 C918 1.394 . S
C919 C920 1.383 . S
C919 H927 0.929 . S
C920 C919 1.383 . S
C920 C921 1.377 . S
C921 H905 0.930 . S
C921 C920 1.377 . S
C921 C922 1.379 . S
C922 H906 0.931 . S
C922 C916 1.383 . S
C922 C921 1.379 . S
H923 C917 0.959 . S
H924 C917 0.961 . S
H925 C917 0.960 . S
H926 C918 0.930 . S
H927 C919 0.929 . S
H928 C936 0.929 . S
H929 C938 0.930 . S
H930 C940 0.930 . S
H931 C943 0.929 . S
H932 C946 0.930 . S
H933 C948 0.960 1_554 S
H934 C948 0.960 . S
H935 C948 0.960 . S
C936 H928 0.929 . S
C936 C937 1.377 . S
C936 C938 1.384 . S
C937 C936 1.377 . S
C937 C943 1.390 . S
C938 H929 0.930 . S
C938 C936 1.384 . S
C938 C939 1.372 . S
C939 C938 1.372 . S
C939 C940 1.400 . S
C939 C944 1.490 . S
C940 H930 0.930 . S
C940 C939 1.400 . S
C940 C943 1.386 . S
H941 C957 0.930 . S
H942 C958 0.931 . S
C943 H931 0.929 . S
C943 C937 1.390 . S
C943 C940 1.386 . S
C944 C939 1.490 . S
C944 C946 1.395 . S
C944 C947 1.403 . S
H945 C951 0.930 . S
C946 H932 0.930 . S
C946 C944 1.395 . S
C946 C949 1.403 . S
C947 C944 1.403 . S
C947 C948 1.524 . S
C947 C951 1.400 1_556 S
C948 H933 0.960 1_556 S
C948 H934 0.960 . S
C948 H935 0.960 . S
C948 C947 1.524 . S
C949 C946 1.403 . S
C949 C950 1.392 1_556 S
C949 C953 1.495 . S
C950 C949 1.392 1_554 S
C950 C951 1.385 . S
C950 C952 1.478 . S
C951 H945 0.930 . S
C951 C947 1.400 1_554 S
C951 C950 1.385 . S
C952 C950 1.478 . S
C952 C954 1.381 . S
C952 C958 1.383 . S
C953 C949 1.495 . S
C953 H959 0.959 . S
C953 H960 0.961 1_556 S
C953 H961 0.963 . S
C954 C952 1.381 . S
C954 C955 1.394 . S
C954 H962 0.930 . S
C955 C954 1.394 . S
C955 C956 1.383 . S
C955 H963 0.929 . S
C956 C955 1.383 . S
C956 C957 1.377 . S
C957 H941 0.930 . S
C957 C956 1.377 . S
C957 C958 1.379 . S
C958 H942 0.931 . S
C958 C952 1.383 . S
C958 C957 1.379 . S
H959 C953 0.959 . S
H960 C953 0.961 1_554 S
H961 C953 0.963 . S
H962 C954 0.930 . S
H963 C955 0.929 . S
H964 C972 0.929 . S
H965 C974 0.930 . S
H966 C976 0.930 . S
H967 C979 0.929 . S
H968 C982 0.930 . S
H969 C984 0.960 . S
H970 C984 0.960 . S
H971 C984 0.960 . S
C972 H964 0.929 . S
C972 C973 1.377 . S
C972 C974 1.384 . S
C973 C972 1.377 . S
C973 C979 1.390 . S
C974 H965 0.930 . S
C974 C972 1.384 . S
C974 C975 1.372 . S
C975 C974 1.372 . S
C975 C976 1.400 . S
C975 C980 1.490 . S
C976 H966 0.930 . S
C976 C975 1.400 . S
C976 C979 1.386 . S
H977 C993 0.930 . S
H978 C994 0.931 . S
C979 H967 0.929 . S
C979 C973 1.390 . S
C979 C976 1.386 . S
C980 C975 1.490 . S
C980 C982 1.395 . S
C980 C983 1.403 . S
H981 C987 0.930 . S
C982 H968 0.930 . S
C982 C980 1.395 . S
C982 C985 1.403 . S
C983 C980 1.403 . S
C983 C984 1.524 . S
C983 C987 1.400 . S
C984 H969 0.960 . S
C984 H970 0.960 . S
C984 H971 0.960 . S
C984 C983 1.524 . S
C985 C982 1.403 . S
C985 C986 1.392 . S
C985 C989 1.495 . S
C986 C985 1.392 . S
C986 C987 1.385 . S
C986 C988 1.478 . S
C987 H981 0.930 . S
C987 C983 1.400 . S
C987 C986 1.385 . S
C988 C986 1.478 . S
C988 C990 1.381 . S
C988 C994 1.383 . S
C989 C985 1.495 . S
C989 H995 0.959 . S
C989 H996 0.961 . S
C989 H997 0.960 . S
C990 C988 1.381 . S
C990 C991 1.394 . S
C990 H998 0.930 . S
C991 C990 1.394 . S
C991 C992 1.383 . S
C991 H999 0.929 . S
C992 C991 1.383 . S
C992 C993 1.377 . S
C993 H977 0.930 . S
C993 C992 1.377 . S
C993 C994 1.379 . S
C994 H978 0.931 . S
C994 C988 1.383 . S
C994 C993 1.379 . S
H995 C989 0.959 . S
H996 C989 0.961 . S
H997 C989 0.960 . S
H998 C990 0.930 . S
H999 C991 0.929 . S
H1000 C1008 0.929 . S
H1001 C1010 0.930 . S
H1002 C1012 0.930 . S
H1003 C1015 0.929 . S
H1004 C1018 0.930 . S
H1005 C1020 0.960 . S
H1006 C1020 0.960 . S
H1007 C1020 0.960 . S
C1008 H1000 0.929 . S
C1008 C1009 1.377 . S
C1008 C1010 1.384 . S
C1009 C1008 1.377 . S
C1009 C1015 1.390 . S
C1010 H1001 0.930 . S
C1010 C1008 1.384 . S
C1010 C1011 1.372 . S
C1011 C1010 1.372 . S
C1011 C1012 1.400 . S
C1011 C1016 1.490 . S
C1012 H1002 0.930 . S
C1012 C1011 1.400 . S
C1012 C1015 1.386 . S
H1013 C1029 0.930 . S
H1014 C1030 0.931 . S
C1015 H1003 0.929 . S
C1015 C1009 1.390 . S
C1015 C1012 1.386 . S
C1016 C1011 1.490 . S
C1016 C1018 1.395 . S
C1016 C1019 1.403 . S
H1017 C1023 0.930 . S
C1018 H1004 0.930 . S
C1018 C1016 1.395 . S
C1018 C1021 1.403 . S
C1019 C1016 1.403 . S
C1019 C1020 1.524 . S
C1019 C1023 1.400 . S
C1020 H1005 0.960 . S
C1020 H1006 0.960 . S
C1020 H1007 0.960 . S
C1020 C1019 1.524 . S
C1021 C1018 1.403 . S
C1021 C1022 1.392 . S
C1021 C1025 1.495 . S
C1022 C1021 1.392 . S
C1022 C1023 1.385 . S
C1022 C1024 1.478 . S
C1023 H1017 0.930 . S
C1023 C1019 1.400 . S
C1023 C1022 1.385 . S
C1024 C1022 1.478 . S
C1024 C1026 1.381 . S
C1024 C1030 1.383 . S
C1025 C1021 1.495 . S
C1025 H1031 0.959 . S
C1025 H1032 0.961 . S
C1025 H1033 0.960 . S
C1026 C1024 1.381 . S
C1026 C1027 1.394 . S
C1026 H1034 0.930 . S
C1027 C1026 1.394 . S
C1027 C1028 1.383 . S
C1027 H1035 0.929 . S
C1028 C1027 1.383 . S
C1028 C1029 1.377 . S
C1029 H1013 0.930 . S
C1029 C1028 1.377 . S
C1029 C1030 1.379 . S
C1030 H1014 0.931 . S
C1030 C1024 1.383 . S
C1030 C1029 1.379 . S
H1031 C1025 0.959 . S
H1032 C1025 0.961 . S
H1033 C1025 0.960 . S
H1034 C1026 0.930 . S
H1035 C1027 0.929 . S
H1036 C1044 0.929 . S
H1037 C1046 0.930 . S
H1038 C1048 0.930 . S
H1039 C1051 0.929 . S
H1040 C1054 0.930 . S
H1041 C1056 0.960 . S
H1042 C1056 0.960 . S
H1043 C1056 0.960 . S
C1044 H1036 0.929 . S
C1044 C1045 1.377 . S
C1044 C1046 1.384 . S
C1045 C1044 1.377 . S
C1045 C1051 1.390 . S
C1046 H1037 0.930 . S
C1046 C1044 1.384 . S
C1046 C1047 1.372 . S
C1047 C1046 1.372 . S
C1047 C1048 1.400 . S
C1047 C1052 1.490 . S
C1048 H1038 0.930 . S
C1048 C1047 1.400 . S
C1048 C1051 1.386 . S
H1049 C1065 0.930 . S
H1050 C1066 0.931 . S
C1051 H1039 0.929 . S
C1051 C1045 1.390 . S
C1051 C1048 1.386 . S
C1052 C1047 1.490 . S
C1052 C1054 1.395 . S
C1052 C1055 1.403 . S
H1053 C1059 0.930 . S
C1054 H1040 0.930 . S
C1054 C1052 1.395 . S
C1054 C1057 1.403 . S
C1055 C1052 1.403 . S
C1055 C1056 1.524 . S
C1055 C1059 1.400 . S
C1056 H1041 0.960 . S
C1056 H1042 0.960 . S
C1056 H1043 0.960 . S
C1056 C1055 1.524 . S
C1057 C1054 1.403 . S
C1057 C1058 1.392 . S
C1057 C1061 1.495 . S
C1058 C1057 1.392 . S
C1058 C1059 1.385 . S
C1058 C1060 1.478 . S
C1059 H1053 0.930 . S
C1059 C1055 1.400 . S
C1059 C1058 1.385 . S
C1060 C1058 1.478 . S
C1060 C1062 1.381 . S
C1060 C1066 1.383 . S
C1061 C1057 1.495 . S
C1061 H1067 0.959 . S
C1061 H1068 0.961 . S
C1061 H1069 0.960 . S
C1062 C1060 1.381 . S
C1062 C1063 1.394 . S
C1062 H1070 0.930 . S
C1063 C1062 1.394 . S
C1063 C1064 1.383 . S
C1063 H1071 0.929 . S
C1064 C1063 1.383 . S
C1064 C1065 1.377 . S
C1065 H1049 0.930 . S
C1065 C1064 1.377 . S
C1065 C1066 1.379 . S
C1066 H1050 0.931 . S
C1066 C1060 1.383 . S
C1066 C1065 1.379 . S
H1067 C1061 0.959 . S
H1068 C1061 0.961 . S
H1069 C1061 0.960 . S
H1070 C1062 0.930 . S
H1071 C1063 0.929 . S
H1072 C1080 0.929 . S
H1073 C1082 0.930 . S
H1074 C1084 0.930 . S
H1075 C1087 0.929 . S
H1076 C1090 0.930 . S
H1077 C1092 0.960 . S
H1078 C1092 0.960 . S
H1079 C1092 0.960 . S
C1080 H1072 0.929 . S
C1080 C1081 1.377 . S
C1080 C1082 1.384 . S
C1081 C1080 1.377 . S
C1081 C1087 1.390 . S
C1082 H1073 0.930 . S
C1082 C1080 1.384 . S
C1082 C1083 1.372 . S
C1083 C1082 1.372 . S
C1083 C1084 1.400 . S
C1083 C1088 1.490 . S
C1084 H1074 0.930 . S
C1084 C1083 1.400 . S
C1084 C1087 1.386 . S
H1085 C1101 0.930 . S
H1086 C1102 0.931 . S
C1087 H1075 0.929 . S
C1087 C1081 1.390 . S
C1087 C1084 1.386 . S
C1088 C1083 1.490 . S
C1088 C1090 1.395 1_545 S
C1088 C1091 1.403 . S
H1089 C1095 0.930 . S
C1090 H1076 0.930 . S
C1090 C1088 1.395 1_565 S
C1090 C1093 1.403 . S
C1091 C1088 1.403 . S
C1091 C1092 1.524 . S
C1091 C1095 1.400 . S
C1092 H1077 0.960 . S
C1092 H1078 0.960 . S
C1092 H1079 0.960 . S
C1092 C1091 1.524 . S
C1093 C1090 1.403 . S
C1093 C1094 1.392 . S
C1093 C1097 1.495 . S
C1094 C1093 1.392 . S
C1094 C1095 1.385 1_565 S
C1094 C1096 1.478 . S
C1095 H1089 0.930 . S
C1095 C1091 1.400 . S
C1095 C1094 1.385 1_545 S
C1096 C1094 1.478 . S
C1096 C1098 1.381 . S
C1096 C1102 1.383 . S
C1097 C1093 1.495 . S
C1097 H1103 0.959 . S
C1097 H1104 0.961 . S
C1097 H1105 0.960 . S
C1098 C1096 1.381 . S
C1098 C1099 1.394 . S
C1098 H1106 0.930 . S
C1099 C1098 1.394 . S
C1099 C1100 1.383 . S
C1099 H1107 0.929 . S
C1100 C1099 1.383 . S
C1100 C1101 1.377 . S
C1101 H1085 0.930 . S
C1101 C1100 1.377 . S
C1101 C1102 1.379 . S
C1102 H1086 0.931 . S
C1102 C1096 1.383 . S
C1102 C1101 1.379 . S
H1103 C1097 0.959 . S
H1104 C1097 0.961 . S
H1105 C1097 0.960 . S
H1106 C1098 0.930 . S
H1107 C1099 0.929 . S
H1108 C1116 0.929 . S
H1109 C1118 0.930 . S
H1110 C1120 0.930 . S
H1111 C1123 0.929 . S
H1112 C1126 0.930 . S
H1113 C1128 0.960 . S
H1114 C1128 0.960 . S
H1115 C1128 0.960 . S
C1116 H1108 0.929 . S
C1116 C1117 1.377 . S
C1116 C1118 1.384 . S
C1117 C1116 1.377 . S
C1117 C1123 1.390 . S
C1118 H1109 0.930 . S
C1118 C1116 1.384 . S
C1118 C1119 1.372 . S
C1119 C1118 1.372 . S
C1119 C1120 1.400 . S
C1119 C1124 1.490 . S
C1120 H1110 0.930 . S
C1120 C1119 1.400 . S
C1120 C1123 1.386 . S
H1121 C1137 0.930 . S
H1122 C1138 0.931 . S
C1123 H1111 0.929 . S
C1123 C1117 1.390 . S
C1123 C1120 1.386 . S
C1124 C1119 1.490 . S
C1124 C1126 1.395 . S
C1124 C1127 1.403 . S
H1125 C1131 0.930 . S
C1126 H1112 0.930 . S
C1126 C1124 1.395 . S
C1126 C1129 1.403 . S
C1127 C1124 1.403 . S
C1127 C1128 1.524 . S
C1127 C1131 1.400 . S
C1128 H1113 0.960 . S
C1128 H1114 0.960 . S
C1128 H1115 0.960 . S
C1128 C1127 1.524 . S
C1129 C1126 1.403 . S
C1129 C1130 1.392 . S
C1129 C1133 1.495 . S
C1130 C1129 1.392 . S
C1130 C1131 1.385 . S
C1130 C1132 1.478 . S
C1131 H1125 0.930 . S
C1131 C1127 1.400 . S
C1131 C1130 1.385 . S
C1132 C1130 1.478 . S
C1132 C1134 1.381 . S
C1132 C1138 1.383 . S
C1133 C1129 1.495 . S
C1133 H1139 0.959 . S
C1133 H1140 0.961 . S
C1133 H1141 0.960 . S
C1134 C1132 1.381 . S
C1134 C1135 1.394 . S
C1134 H1142 0.930 . S
C1135 C1134 1.394 . S
C1135 C1136 1.383 . S
C1135 H1143 0.929 . S
C1136 C1135 1.383 . S
C1136 C1137 1.377 . S
C1137 H1121 0.930 . S
C1137 C1136 1.377 . S
C1137 C1138 1.379 . S
C1138 H1122 0.931 . S
C1138 C1132 1.383 . S
C1138 C1137 1.379 . S
H1139 C1133 0.959 . S
H1140 C1133 0.961 . S
H1141 C1133 0.960 . S
H1142 C1134 0.930 . S
H1143 C1135 0.929 . S
H1144 C1152 0.929 . S
H1145 C1154 0.930 . S
H1146 C1156 0.930 . S
H1147 C1159 0.929 . S
H1148 C1162 0.930 . S
H1149 C1164 0.960 . S
H1150 C1164 0.960 . S
H1151 C1164 0.960 . S
C1152 H1144 0.929 . S
C1152 C1153 1.377 . S
C1152 C1154 1.384 . S
C1153 C1152 1.377 . S
C1153 C1159 1.390 . S
C1154 H1145 0.930 . S
C1154 C1152 1.384 . S
C1154 C1155 1.372 . S
C1155 C1154 1.372 . S
C1155 C1156 1.400 . S
C1155 C1160 1.490 . S
C1156 H1146 0.930 . S
C1156 C1155 1.400 . S
C1156 C1159 1.386 . S
H1157 C1173 0.930 . S
H1158 C1174 0.931 . S
C1159 H1147 0.929 . S
C1159 C1153 1.390 . S
C1159 C1156 1.386 . S
C1160 C1155 1.490 . S
C1160 C1162 1.395 1_545 S
C1160 C1163 1.403 1_556 S
H1161 C1167 0.930 . S
C1162 H1148 0.930 . S
C1162 C1160 1.395 1_565 S
C1162 C1165 1.403 1_556 S
C1163 C1160 1.403 1_554 S
C1163 C1164 1.524 . S
C1163 C1167 1.400 . S
C1164 H1149 0.960 . S
C1164 H1150 0.960 . S
C1164 H1151 0.960 . S
C1164 C1163 1.524 . S
C1165 C1162 1.403 1_554 S
C1165 C1166 1.392 . S
C1165 C1169 1.495 . S
C1166 C1165 1.392 . S
C1166 C1167 1.385 1_565 S
C1166 C1168 1.478 . S
C1167 H1161 0.930 . S
C1167 C1163 1.400 . S
C1167 C1166 1.385 1_545 S
C1168 C1166 1.478 . S
C1168 C1170 1.381 . S
C1168 C1174 1.383 . S
C1169 C1165 1.495 . S
C1169 H1175 0.959 1_554 S
C1169 H1176 0.961 . S
C1169 H1177 0.960 . S
C1170 C1168 1.381 . S
C1170 C1171 1.394 . S
C1170 H1178 0.930 . S
C1171 C1170 1.394 . S
C1171 C1172 1.383 . S
C1171 H1179 0.929 . S
C1172 C1171 1.383 . S
C1172 C1173 1.377 . S
C1173 H1157 0.930 . S
C1173 C1172 1.377 . S
C1173 C1174 1.379 . S
C1174 H1158 0.931 . S
C1174 C1168 1.383 . S
C1174 C1173 1.379 . S
H1175 C1169 0.959 1_556 S
H1176 C1169 0.961 . S
H1177 C1169 0.960 . S
H1178 C1170 0.930 . S
H1179 C1171 0.929 . S
H1180 C1188 0.929 . S
H1181 C1190 0.930 . S
H1182 C1192 0.930 . S
H1183 C1195 0.929 . S
H1184 C1198 0.930 . S
H1185 C1200 0.960 . S
H1186 C1200 0.960 . S
H1187 C1200 0.960 . S
C1188 H1180 0.929 . S
C1188 C1189 1.377 . S
C1188 C1190 1.384 . S
C1189 C1188 1.377 . S
C1189 C1195 1.390 . S
C1190 H1181 0.930 . S
C1190 C1188 1.384 . S
C1190 C1191 1.372 . S
C1191 C1190 1.372 . S
C1191 C1192 1.400 . S
C1191 C1196 1.490 . S
C1192 H1182 0.930 . S
C1192 C1191 1.400 . S
C1192 C1195 1.386 . S
H1193 C1209 0.930 . S
H1194 C1210 0.931 . S
C1195 H1183 0.929 . S
C1195 C1189 1.390 . S
C1195 C1192 1.386 . S
C1196 C1191 1.490 . S
C1196 C1198 1.395 . S
C1196 C1199 1.403 . S
H1197 C1203 0.930 . S
C1198 H1184 0.930 . S
C1198 C1196 1.395 . S
C1198 C1201 1.403 . S
C1199 C1196 1.403 . S
C1199 C1200 1.524 . S
C1199 C1203 1.400 . S
C1200 H1185 0.960 . S
C1200 H1186 0.960 . S
C1200 H1187 0.960 . S
C1200 C1199 1.524 . S
C1201 C1198 1.403 . S
C1201 C1202 1.392 . S
C1201 C1205 1.495 . S
C1202 C1201 1.392 . S
C1202 C1203 1.385 . S
C1202 C1204 1.478 . S
C1203 H1197 0.930 . S
C1203 C1199 1.400 . S
C1203 C1202 1.385 . S
C1204 C1202 1.478 . S
C1204 C1206 1.381 . S
C1204 C1210 1.383 . S
C1205 C1201 1.495 . S
C1205 H1211 0.959 . S
C1205 H1212 0.961 . S
C1205 H1213 0.960 . S
C1206 C1204 1.381 . S
C1206 C1207 1.394 . S
C1206 H1214 0.930 . S
C1207 C1206 1.394 . S
C1207 C1208 1.383 . S
C1207 H1215 0.929 . S
C1208 C1207 1.383 . S
C1208 C1209 1.377 . S
C1209 H1193 0.930 . S
C1209 C1208 1.377 . S
C1209 C1210 1.379 . S
C1210 H1194 0.931 . S
C1210 C1204 1.383 . S
C1210 C1209 1.379 . S
H1211 C1205 0.959 . S
H1212 C1205 0.961 . S
H1213 C1205 0.960 . S
H1214 C1206 0.930 . S
H1215 C1207 0.929 . S
H1216 C1224 0.929 . S
H1217 C1226 0.930 . S
H1218 C1228 0.930 . S
H1219 C1231 0.929 . S
H1220 C1234 0.930 . S
H1221 C1236 0.960 . S
H1222 C1236 0.960 . S
H1223 C1236 0.960 . S
C1224 H1216 0.929 . S
C1224 C1225 1.377 . S
C1224 C1226 1.384 . S
C1225 C1224 1.377 . S
C1225 C1231 1.390 . S
C1226 H1217 0.930 . S
C1226 C1224 1.384 . S
C1226 C1227 1.372 . S
C1227 C1226 1.372 . S
C1227 C1228 1.400 . S
C1227 C1232 1.490 . S
C1228 H1218 0.930 . S
C1228 C1227 1.400 . S
C1228 C1231 1.386 . S
H1229 C1245 0.930 . S
H1230 C1246 0.931 . S
C1231 H1219 0.929 . S
C1231 C1225 1.390 . S
C1231 C1228 1.386 . S
C1232 C1227 1.490 . S
C1232 C1234 1.395 . S
C1232 C1235 1.403 1_545 S
H1233 C1239 0.930 . S
C1234 H1220 0.930 . S
C1234 C1232 1.395 . S
C1234 C1237 1.403 . S
C1235 C1232 1.403 1_565 S
C1235 C1236 1.524 . S
C1235 C1239 1.400 . S
C1236 H1221 0.960 . S
C1236 H1222 0.960 . S
C1236 H1223 0.960 . S
C1236 C1235 1.524 . S
C1237 C1234 1.403 . S
C1237 C1238 1.392 1_545 S
C1237 C1241 1.495 . S
C1238 C1237 1.392 1_565 S
C1238 C1239 1.385 . S
C1238 C1240 1.478 . S
C1239 H1233 0.930 . S
C1239 C1235 1.400 . S
C1239 C1238 1.385 . S
C1240 C1238 1.478 . S
C1240 C1242 1.381 . S
C1240 C1246 1.383 . S
C1241 C1237 1.495 . S
C1241 H1247 0.959 . S
C1241 H1248 0.961 . S
C1241 H1249 0.960 . S
C1242 C1240 1.381 . S
C1242 C1243 1.394 . S
C1242 H1250 0.930 . S
C1243 C1242 1.394 . S
C1243 C1244 1.383 . S
C1243 H1251 0.929 . S
C1244 C1243 1.383 . S
C1244 C1245 1.377 . S
C1245 H1229 0.930 . S
C1245 C1244 1.377 . S
C1245 C1246 1.379 . S
C1246 H1230 0.931 . S
C1246 C1240 1.383 . S
C1246 C1245 1.379 . S
H1247 C1241 0.959 . S
H1248 C1241 0.961 . S
H1249 C1241 0.960 . S
H1250 C1242 0.930 . S
H1251 C1243 0.929 . S
H1252 C1260 0.929 . S
H1253 C1262 0.930 . S
H1254 C1264 0.930 . S
H1255 C1267 0.929 . S
H1256 C1270 0.930 . S
H1257 C1272 0.960 . S
H1258 C1272 0.960 . S
H1259 C1272 0.960 . S
C1260 H1252 0.929 . S
C1260 C1261 1.377 . S
C1260 C1262 1.384 . S
C1261 C1260 1.377 . S
C1261 C1267 1.390 . S
C1262 H1253 0.930 . S
C1262 C1260 1.384 . S
C1262 C1263 1.372 . S
C1263 C1262 1.372 . S
C1263 C1264 1.400 . S
C1263 C1268 1.490 . S
C1264 H1254 0.930 . S
C1264 C1263 1.400 . S
C1264 C1267 1.386 . S
H1265 C1281 0.930 . S
H1266 C1282 0.931 . S
C1267 H1255 0.929 . S
C1267 C1261 1.390 . S
C1267 C1264 1.386 . S
C1268 C1263 1.490 . S
C1268 C1270 1.395 . S
C1268 C1271 1.403 . S
H1269 C1275 0.930 . S
C1270 H1256 0.930 . S
C1270 C1268 1.395 . S
C1270 C1273 1.403 . S
C1271 C1268 1.403 . S
C1271 C1272 1.524 . S
C1271 C1275 1.400 . S
C1272 H1257 0.960 . S
C1272 H1258 0.960 . S
C1272 H1259 0.960 . S
C1272 C1271 1.524 . S
C1273 C1270 1.403 . S
C1273 C1274 1.392 . S
C1273 C1277 1.495 . S
C1274 C1273 1.392 . S
C1274 C1275 1.385 . S
C1274 C1276 1.478 . S
C1275 H1269 0.930 . S
C1275 C1271 1.400 . S
C1275 C1274 1.385 . S
C1276 C1274 1.478 . S
C1276 C1278 1.381 . S
C1276 C1282 1.383 . S
C1277 C1273 1.495 . S
C1277 H1283 0.959 . S
C1277 H1284 0.961 . S
C1277 H1285 0.960 . S
C1278 C1276 1.381 . S
C1278 C1279 1.394 . S
C1278 H1286 0.930 . S
C1279 C1278 1.394 . S
C1279 C1280 1.383 . S
C1279 H1287 0.929 . S
C1280 C1279 1.383 . S
C1280 C1281 1.377 . S
C1281 H1265 0.930 . S
C1281 C1280 1.377 . S
C1281 C1282 1.379 . S
C1282 H1266 0.931 . S
C1282 C1276 1.383 . S
C1282 C1281 1.379 . S
H1283 C1277 0.959 . S
H1284 C1277 0.961 . S
H1285 C1277 0.960 . S
H1286 C1278 0.930 . S
H1287 C1279 0.929 . S
H1288 C1296 0.929 . S
H1289 C1298 0.930 . S
H1290 C1300 0.930 . S
H1291 C1303 0.929 . S
H1292 C1306 0.930 . S
H1293 C1308 0.960 . S
H1294 C1308 0.960 . S
H1295 C1308 0.960 1_554 S
C1296 H1288 0.929 . S
C1296 C1297 1.377 . S
C1296 C1298 1.384 . S
C1297 C1296 1.377 . S
C1297 C1303 1.390 . S
C1298 H1289 0.930 . S
C1298 C1296 1.384 . S
C1298 C1299 1.372 . S
C1299 C1298 1.372 . S
C1299 C1300 1.400 . S
C1299 C1304 1.490 . S
C1300 H1290 0.930 . S
C1300 C1299 1.400 . S
C1300 C1303 1.386 . S
H1301 C1317 0.930 . S
H1302 C1318 0.931 . S
C1303 H1291 0.929 . S
C1303 C1297 1.390 . S
C1303 C1300 1.386 . S
C1304 C1299 1.490 . S
C1304 C1306 1.395 1_565 S
C1304 C1307 1.403 1_554 S
H1305 C1311 0.930 . S
C1306 H1292 0.930 . S
C1306 C1304 1.395 1_545 S
C1306 C1309 1.403 1_554 S
C1307 C1304 1.403 1_556 S
C1307 C1308 1.524 . S
C1307 C1311 1.400 1_565 S
C1308 H1293 0.960 . S
C1308 H1294 0.960 . S
C1308 H1295 0.960 1_556 S
C1308 C1307 1.524 . S
C1309 C1306 1.403 1_556 S
C1309 C1310 1.392 . S
C1309 C1313 1.495 . S
C1310 C1309 1.392 . S
C1310 C1311 1.385 . S
C1310 C1312 1.478 . S
C1311 H1305 0.930 . S
C1311 C1307 1.400 1_545 S
C1311 C1310 1.385 . S
C1312 C1310 1.478 . S
C1312 C1314 1.381 . S
C1312 C1318 1.383 . S
C1313 C1309 1.495 . S
C1313 H1319 0.927 1_556 S
C1313 H1320 0.961 . S
C1313 H1321 0.960 . S
C1314 C1312 1.381 . S
C1314 C1315 1.394 . S
C1314 H1322 0.930 . S
C1315 C1314 1.394 . S
C1315 C1316 1.383 . S
C1315 H1323 0.929 . S
C1316 C1315 1.383 . S
C1316 C1317 1.377 . S
C1317 H1301 0.930 . S
C1317 C1316 1.377 . S
C1317 C1318 1.379 . S
C1318 H1302 0.931 . S
C1318 C1312 1.383 . S
C1318 C1317 1.379 . S
H1319 C1313 0.927 1_554 S
H1320 C1313 0.961 . S
H1321 C1313 0.960 . S
H1322 C1314 0.930 . S
H1323 C1315 0.929 . S
H1324 C1332 0.929 . S
H1325 C1334 0.930 . S
H1326 C1336 0.930 . S
H1327 C1339 0.929 . S
H1328 C1342 0.930 . S
H1329 C1344 0.960 . S
H1330 C1344 0.960 . S
H1331 C1344 0.960 . S
C1332 H1324 0.929 . S
C1332 C1333 1.377 . S
C1332 C1334 1.384 . S
C1333 C1332 1.377 . S
C1333 C1339 1.390 . S
C1334 H1325 0.930 . S
C1334 C1332 1.384 . S
C1334 C1335 1.372 . S
C1335 C1334 1.372 . S
C1335 C1336 1.400 . S
C1335 C1340 1.490 . S
C1336 H1326 0.930 . S
C1336 C1335 1.400 . S
C1336 C1339 1.386 . S
H1337 C1353 0.930 . S
H1338 C1354 0.931 . S
C1339 H1327 0.929 . S
C1339 C1333 1.390 . S
C1339 C1336 1.386 . S
C1340 C1335 1.490 . S
C1340 C1342 1.395 . S
C1340 C1343 1.403 . S
H1341 C1347 0.930 . S
C1342 H1328 0.930 . S
C1342 C1340 1.395 . S
C1342 C1345 1.403 . S
C1343 C1340 1.403 . S
C1343 C1344 1.524 . S
C1343 C1347 1.400 . S
C1344 H1329 0.960 . S
C1344 H1330 0.960 . S
C1344 H1331 0.960 . S
C1344 C1343 1.524 . S
C1345 C1342 1.403 . S
C1345 C1346 1.392 . S
C1345 C1349 1.495 . S
C1346 C1345 1.392 . S
C1346 C1347 1.385 . S
C1346 C1348 1.478 . S
C1347 H1341 0.930 . S
C1347 C1343 1.400 . S
C1347 C1346 1.385 . S
C1348 C1346 1.478 . S
C1348 C1350 1.381 . S
C1348 C1354 1.383 . S
C1349 C1345 1.495 . S
C1349 H1355 0.959 . S
C1349 H1356 0.961 . S
C1349 H1357 0.960 . S
C1350 C1348 1.381 . S
C1350 C1351 1.394 . S
C1350 H1358 0.930 . S
C1351 C1350 1.394 . S
C1351 C1352 1.383 . S
C1351 H1359 0.929 . S
C1352 C1351 1.383 . S
C1352 C1353 1.377 . S
C1353 H1337 0.930 . S
C1353 C1352 1.377 . S
C1353 C1354 1.379 . S
C1354 H1338 0.931 . S
C1354 C1348 1.383 . S
C1354 C1353 1.379 . S
H1355 C1349 0.959 . S
H1356 C1349 0.961 . S
H1357 C1349 0.960 . S
H1358 C1350 0.930 . S
H1359 C1351 0.929 . S
C217 C148 1.386 . S
C236 C8 1.398 . S
C253 C200 1.308 . S
C272 C18 1.280 . S
C289 C31 1.341 . S
C308 C125 1.304 . S
C325 C174 1.285 . S
C344 C47 1.288 . S
C361 C60 1.391 . S
C380 C177 1.366 . S
C397 C70 1.277 . S
C416 C151 1.264 . S
C433 C83 1.312 . S
C452 C203 1.329 . S
C469 C96 1.281 . S
C488 C122 1.244 . S
C505 C44 1.387 . S
C524 C112 1.412 . S
C541 C138 1.389 . S
C560 C21 1.362 . S
C577 C164 1.385 . S
C596 C73 1.388 . S
C613 C187 1.426 . S
C632 C99 1.404 . S
C649 C57 1.379 . S
C668 C109 1.353 . S
C685 C135 1.271 . S
C704 C86 1.243 . S
C721 C190 1.336 . S
C740 C34 1.344 . S
C757 C5 1.311 . S
C776 C161 1.323 . S
C793 C10 1.051 . S
C812 C62 1.037 . S
C829 C13 1.022 . S
C848 C65 1.009 . S
C865 C26 1.034 . S
C884 C78 1.047 . S
C901 C91 0.978 . S
C920 C49 0.975 . S
C937 C114 1.026 . S
C956 C166 1.023 . S
C973 C169 0.927 . S
C992 C117 0.909 . S
C1009 C140 1.194 . S
C1028 C182 1.185 . S
C1045 C195 0.982 . S
C1064 C153 1.001 . S
C1081 C101 1.017 . S
C1100 C23 1.002 . S
C1117 C36 1.082 . S
C1136 C52 1.064 . S
C1153 C39 1.102 . S
C1172 C75 1.080 . S
C1189 C0 0.945 . S
C1208 C88 0.922 . S
C1225 C127 1.006 . S
C1244 C205 1.021 . S
C1261 C156 1.048 . S
C1280 C130 1.065 . S
C1297 C143 1.078 . S
C1316 C179 1.053 . S
C1333 C192 1.024 . S
C1352 C104 0.996 . S
