# Generated by pormake.
# Topology bcu-i, (5)-cn, num edge types: 1
# Building blocks:
#     Node 0, Type 0, BuildingBlock: XOMCOT_clean_sbu_1, # of connection points: 5
#     Node 1, Type 0, BuildingBlock: XOMCOT_clean_sbu_1, # of connection points: 5
#     Node 2, Type 0, BuildingBlock: XOMCOT_clean_sbu_1, # of connection points: 5
#     Node 3, Type 0, BuildingBlock: XOMCOT_clean_sbu_1, # of connection points: 5
#     Node 4, Type 0, BuildingBlock: XOMCOT_clean_sbu_1, # of connection points: 5
#     Node 5, Type 0, BuildingBlock: XOMCOT_clean_sbu_1, # of connection points: 5
#     Node 6, Type 0, BuildingBlock: XOMCOT_clean_sbu_1, # of connection points: 5
#     Node 7, Type 0, BuildingBlock: XOMCOT_clean_sbu_1, # of connection points: 5
#     Node 8, Type 0, BuildingBlock: XOMCOT_clean_sbu_1, # of connection points: 5
#     Node 9, Type 0, BuildingBlock: XOMCOT_clean_sbu_1, # of connection points: 5
#     Node 10, Type 0, BuildingBlock: XOMCOT_clean_sbu_1, # of connection points: 5
#     Node 11, Type 0, BuildingBlock: XOMCOT_clean_sbu_1, # of connection points: 5
#     Node 12, Type 0, BuildingBlock: XOMCOT_clean_sbu_1, # of connection points: 5
#     Node 13, Type 0, BuildingBlock: XOMCOT_clean_sbu_1, # of connection points: 5
#     Node 14, Type 0, BuildingBlock: XOMCOT_clean_sbu_1, # of connection points: 5
#     Node 15, Type 0, BuildingBlock: XOMCOT_clean_sbu_1, # of connection points: 5
#     Edge 16, Type (0, 0), BuildingBlock: XIVTED_clean_linker_0, # of connection points: 2
#     Edge 17, Type (0, 0), BuildingBlock: XIVTED_clean_linker_0, # of connection points: 2
#     Edge 18, Type (0, 0), BuildingBlock: XIVTED_clean_linker_0, # of connection points: 2
#     Edge 19, Type (0, 0), BuildingBlock: XIVTED_clean_linker_0, # of connection points: 2
#     Edge 20, Type (0, 0), BuildingBlock: XIVTED_clean_linker_0, # of connection points: 2
#     Edge 21, Type (0, 0), BuildingBlock: XIVTED_clean_linker_0, # of connection points: 2
#     Edge 22, Type (0, 0), BuildingBlock: XIVTED_clean_linker_0, # of connection points: 2
#     Edge 23, Type (0, 0), BuildingBlock: XIVTED_clean_linker_0, # of connection points: 2
#     Edge 24, Type (0, 0), BuildingBlock: XIVTED_clean_linker_0, # of connection points: 2
#     Edge 25, Type (0, 0), BuildingBlock: XIVTED_clean_linker_0, # of connection points: 2
#     Edge 26, Type (0, 0), BuildingBlock: XIVTED_clean_linker_0, # of connection points: 2
#     Edge 27, Type (0, 0), BuildingBlock: XIVTED_clean_linker_0, # of connection points: 2
#     Edge 28, Type (0, 0), BuildingBlock: XIVTED_clean_linker_0, # of connection points: 2
#     Edge 29, Type (0, 0), BuildingBlock: XIVTED_clean_linker_0, # of connection points: 2
#     Edge 30, Type (0, 0), BuildingBlock: XIVTED_clean_linker_0, # of connection points: 2
#     Edge 31, Type (0, 0), BuildingBlock: XIVTED_clean_linker_0, # of connection points: 2
#     Edge 32, Type (0, 0), BuildingBlock: XIVTED_clean_linker_0, # of connection points: 2
#     Edge 33, Type (0, 0), BuildingBlock: XIVTED_clean_linker_0, # of connection points: 2
#     Edge 34, Type (0, 0), BuildingBlock: XIVTED_clean_linker_0, # of connection points: 2
#     Edge 35, Type (0, 0), BuildingBlock: XIVTED_clean_linker_0, # of connection points: 2
#     Edge 36, Type (0, 0), BuildingBlock: XIVTED_clean_linker_0, # of connection points: 2
#     Edge 37, Type (0, 0), BuildingBlock: XIVTED_clean_linker_0, # of connection points: 2
#     Edge 38, Type (0, 0), BuildingBlock: XIVTED_clean_linker_0, # of connection points: 2
#     Edge 39, Type (0, 0), BuildingBlock: XIVTED_clean_linker_0, # of connection points: 2
#     Edge 40, Type (0, 0), BuildingBlock: XIVTED_clean_linker_0, # of connection points: 2
#     Edge 41, Type (0, 0), BuildingBlock: XIVTED_clean_linker_0, # of connection points: 2
#     Edge 42, Type (0, 0), BuildingBlock: XIVTED_clean_linker_0, # of connection points: 2
#     Edge 43, Type (0, 0), BuildingBlock: XIVTED_clean_linker_0, # of connection points: 2
#     Edge 44, Type (0, 0), BuildingBlock: XIVTED_clean_linker_0, # of connection points: 2
#     Edge 45, Type (0, 0), BuildingBlock: XIVTED_clean_linker_0, # of connection points: 2
#     Edge 46, Type (0, 0), BuildingBlock: XIVTED_clean_linker_0, # of connection points: 2
#     Edge 47, Type (0, 0), BuildingBlock: XIVTED_clean_linker_0, # of connection points: 2
#     Edge 48, Type (0, 0), BuildingBlock: XIVTED_clean_linker_0, # of connection points: 2
#     Edge 49, Type (0, 0), BuildingBlock: XIVTED_clean_linker_0, # of connection points: 2
#     Edge 50, Type (0, 0), BuildingBlock: XIVTED_clean_linker_0, # of connection points: 2
#     Edge 51, Type (0, 0), BuildingBlock: XIVTED_clean_linker_0, # of connection points: 2
#     Edge 52, Type (0, 0), BuildingBlock: XIVTED_clean_linker_0, # of connection points: 2
#     Edge 53, Type (0, 0), BuildingBlock: XIVTED_clean_linker_0, # of connection points: 2
#     Edge 54, Type (0, 0), BuildingBlock: XIVTED_clean_linker_0, # of connection points: 2
#     Edge 55, Type (0, 0), BuildingBlock: XIVTED_clean_linker_0, # of connection points: 2
# Relax obj value: 0.546
# Max RMSD: 0.209
# Mean RMSD: 0.209
data_MOF--net-bcu-i--node1-XOMCOT_clean_sbu_1--edge1-XIVTED_clean_linker_0
_symmetry_space_group_name_H-M    P1
_symmetry_Int_Tables_number       1
_symmetry_cell_setting            triclinic
loop_
_symmetry_equiv_pos_as_xyz
'x, y, z'
_cell_length_a     50.700932
_cell_length_b     50.699043
_cell_length_c     42.355166
_cell_angle_alpha  90.027064
_cell_angle_beta   89.999149
_cell_angle_gamma 89.983754
loop_
_atom_site_label
_atom_site_type_symbol
_atom_site_fract_x
_atom_site_fract_y
_atom_site_fract_z
_atom_type_partial_charge
C0 C 0.16825 0.07333 0.31029 0.0
C1 C 0.14334 0.08291 0.30437 0.0
N2 N 0.13454 0.09486 0.33077 0.0
N3 N 0.17505 0.07937 0.34016 0.0
C4 C 0.15406 0.0923 0.35213 0.0
H5 H 0.18096 0.06331 0.29364 0.0
Co6 Co 0.20782 0.073 0.35742 0.0
C7 C 0.2088 0.10357 0.41708 0.0
O8 O 0.23318 0.11072 0.4109 0.0
N9 N 0.24128 0.06549 0.37444 0.0
C10 C 0.28361 0.05579 0.38338 0.0
C11 C 0.26574 0.0653 0.36157 0.0
C12 C 0.24483 0.05543 0.4036 0.0
N13 N 0.27024 0.05003 0.40984 0.0
O14 O 0.19585 0.0395 0.37071 0.0
H15 H 0.27054 0.07091 0.3377 0.0
H16 H 0.22886 0.05161 0.41995 0.0
O17 O 0.19654 0.08846 0.39782 0.0
C18 C 0.20149 0.02159 0.35083 0.0
O19 O 0.21645 0.02776 0.32658 0.0
N20 N 0.21885 0.10552 0.34154 0.0
C21 C 0.23122 0.15031 0.30675 0.0
C22 C 0.21574 0.15232 0.33395 0.0
C23 C 0.20911 0.12955 0.35052 0.0
C24 C 0.23277 0.10317 0.31421 0.0
C25 C 0.2396 0.12535 0.2967 0.0
H26 H 0.19507 0.1314 0.36948 0.0
H27 H 0.2377 0.08381 0.30529 0.0
H28 H 0.15352 0.10095 0.37545 0.0
H29 H 0.13276 0.08162 0.28223 0.0
H30 H 0.30463 0.05324 0.38009 0.0
H31 H 0.20804 0.17119 0.34165 0.0
H32 H 0.25122 0.12294 0.27544 0.0
C33 C 0.91596 0.17006 0.31432 0.0
C34 C 0.90492 0.14585 0.30789 0.0
N35 N 0.89271 0.13729 0.3342 0.0
N36 N 0.91061 0.17665 0.34447 0.0
C37 C 0.89647 0.15628 0.35598 0.0
H38 H 0.92655 0.18243 0.29785 0.0
Co39 Co 0.91893 0.20855 0.363 0.0
C40 C 0.89662 0.2058 0.42805 0.0
O41 O 0.89214 0.2313 0.42868 0.0
N42 N 0.92787 0.24146 0.38129 0.0
C43 C 0.92999 0.28362 0.39664 0.0
C44 C 0.91614 0.26544 0.37899 0.0
C45 C 0.94881 0.24583 0.40029 0.0
N46 N 0.95067 0.27113 0.40957 0.0
O47 O 0.95313 0.19531 0.37129 0.0
H48 H 0.89838 0.2697 0.36591 0.0
H49 H 0.96229 0.23064 0.40811 0.0
O50 O 0.90709 0.19528 0.40371 0.0
C51 C 0.96984 0.20063 0.34985 0.0
O52 O 0.96264 0.21608 0.32647 0.0
N53 N 0.88574 0.22059 0.35168 0.0
C54 C 0.8399 0.23318 0.31926 0.0
C55 C 0.83851 0.22057 0.34862 0.0
C56 C 0.86183 0.21385 0.36425 0.0
C57 C 0.88728 0.23296 0.32326 0.0
C58 C 0.86462 0.23963 0.30673 0.0
H59 H 0.86041 0.20205 0.38529 0.0
H60 H 0.90643 0.23701 0.31306 0.0
H61 H 0.88792 0.15581 0.37936 0.0
H62 H 0.90555 0.13552 0.28553 0.0
H63 H 0.92537 0.30432 0.39962 0.0
H64 H 0.81968 0.21493 0.35862 0.0
H65 H 0.86643 0.24954 0.28417 0.0
C66 C 0.82079 0.92045 0.31432 0.0
C67 C 0.84531 0.91031 0.30742 0.0
N68 N 0.85446 0.89795 0.33336 0.0
N69 N 0.81457 0.91435 0.34436 0.0
C70 C 0.83554 0.90081 0.3554 0.0
H71 H 0.80789 0.9308 0.2982 0.0
Co72 Co 0.78226 0.92082 0.36293 0.0
C73 C 0.78441 0.89127 0.42357 0.0
O74 O 0.75982 0.88363 0.4199 0.0
N75 N 0.74929 0.92824 0.38122 0.0
C76 C 0.70703 0.93764 0.39092 0.0
C77 C 0.72469 0.92834 0.36877 0.0
C78 C 0.74605 0.93817 0.41051 0.0
N79 N 0.72066 0.9434 0.4172 0.0
O80 O 0.79433 0.9546 0.37508 0.0
H81 H 0.71965 0.92283 0.34493 0.0
H82 H 0.76219 0.94208 0.42659 0.0
O83 O 0.79512 0.90617 0.40288 0.0
C84 C 0.78803 0.97229 0.35521 0.0
O85 O 0.77264 0.96576 0.33149 0.0
N86 N 0.77092 0.88803 0.34814 0.0
C87 C 0.75725 0.84307 0.31433 0.0
C88 C 0.77284 0.84105 0.34145 0.0
C89 C 0.78015 0.86391 0.35752 0.0
C90 C 0.75676 0.89029 0.32099 0.0
C91 C 0.74932 0.86806 0.30396 0.0
H92 H 0.79433 0.862 0.37629 0.0
H93 H 0.7521 0.90963 0.31183 0.0
H94 H 0.83643 0.89185 0.37854 0.0
H95 H 0.85537 0.91147 0.28492 0.0
H96 H 0.68596 0.94005 0.38799 0.0
H97 H 0.78019 0.82211 0.34936 0.0
H98 H 0.73764 0.87044 0.28274 0.0
C99 C 0.06873 0.82709 0.31112 0.0
C100 C 0.0785 0.85195 0.30538 0.0
N101 N 0.0918 0.8599 0.33123 0.0
N102 N 0.076 0.81949 0.34031 0.0
C103 C 0.08987 0.83995 0.35207 0.0
H104 H 0.05788 0.8149 0.29467 0.0
Co105 Co 0.07044 0.78627 0.35666 0.0
C106 C 0.10011 0.78614 0.41739 0.0
O107 O 0.1082 0.76191 0.41203 0.0
N108 N 0.06386 0.7523 0.37257 0.0
C109 C 0.05475 0.70949 0.37838 0.0
C110 C 0.06376 0.72858 0.35785 0.0
C111 C 0.05425 0.74712 0.4016 0.0
N112 N 0.04919 0.72134 0.40592 0.0
O113 O 0.03645 0.79701 0.36987 0.0
H114 H 0.06889 0.72518 0.33349 0.0
H115 H 0.05027 0.76215 0.41914 0.0
O116 O 0.08502 0.79756 0.39742 0.0
C117 C 0.01865 0.79127 0.34988 0.0
O118 O 0.02513 0.77681 0.3253 0.0
N119 N 0.10341 0.77639 0.34089 0.0
C120 C 0.14863 0.76446 0.30664 0.0
C121 C 0.15042 0.77877 0.33478 0.0
C122 C 0.12744 0.78527 0.35109 0.0
C123 C 0.10135 0.76375 0.31265 0.0
C124 C 0.12372 0.7572 0.29533 0.0
H125 H 0.1292 0.79843 0.37091 0.0
H126 H 0.08208 0.75944 0.30304 0.0
H127 H 0.09975 0.83975 0.37469 0.0
H128 H 0.07654 0.86302 0.28367 0.0
H129 H 0.05223 0.68869 0.37345 0.0
H130 H 0.16931 0.78557 0.34352 0.0
H131 H 0.12152 0.7465 0.27335 0.0
C132 C 0.16182 0.91139 0.68723 0.0
C133 C 0.13766 0.90003 0.69298 0.0
N134 N 0.13014 0.88705 0.66673 0.0
N135 N 0.1694 0.90552 0.65756 0.0
C136 C 0.14966 0.89073 0.64562 0.0
H137 H 0.17354 0.92248 0.70393 0.0
Co138 Co 0.20192 0.91371 0.64071 0.0
C139 C 0.20246 0.89095 0.57591 0.0
O140 O 0.22802 0.88703 0.57756 0.0
N141 N 0.2355 0.92264 0.62436 0.0
C142 C 0.27817 0.92497 0.6113 0.0
C143 C 0.25959 0.91161 0.62888 0.0
C144 C 0.24021 0.94277 0.60427 0.0
N145 N 0.2658 0.9447 0.59627 0.0
O146 O 0.18906 0.94792 0.63138 0.0
H147 H 0.26365 0.89456 0.64332 0.0
H148 H 0.22506 0.95543 0.59461 0.0
O149 O 0.19032 0.90147 0.59917 0.0
C150 C 0.19365 0.96471 0.65299 0.0
O151 O 0.20813 0.95755 0.67725 0.0
N152 N 0.21346 0.88053 0.65293 0.0
C153 C 0.2243 0.83452 0.68598 0.0
C154 C 0.21245 0.83333 0.65616 0.0
C155 C 0.20666 0.8567 0.64018 0.0
C156 C 0.2249 0.88194 0.68192 0.0
C157 C 0.23077 0.85918 0.69874 0.0
H158 H 0.19543 0.85538 0.61868 0.0
H159 H 0.2289 0.90103 0.69229 0.0
H160 H 0.15013 0.88163 0.62254 0.0
H161 H 0.1267 0.90093 0.71488 0.0
H162 H 0.29903 0.9206 0.60968 0.0
H163 H 0.20673 0.8146 0.64591 0.0
H164 H 0.24016 0.86091 0.72161 0.0
C165 C 0.07257 0.16844 0.68551 0.0
C166 C 0.07978 0.14283 0.69194 0.0
N167 N 0.0943 0.13386 0.66755 0.0
N168 N 0.08264 0.1755 0.65733 0.0
C169 C 0.09564 0.15399 0.64687 0.0
H170 H 0.06132 0.18137 0.70071 0.0
Co171 Co 0.08021 0.20888 0.64032 0.0
C172 C 0.1139 0.20764 0.58315 0.0
O173 O 0.12282 0.2313 0.59008 0.0
N174 N 0.07673 0.24302 0.62346 0.0
C175 C 0.06959 0.28598 0.61565 0.0
C176 C 0.07745 0.26713 0.63721 0.0
C177 C 0.06811 0.24781 0.59389 0.0
N178 N 0.06411 0.27361 0.5884 0.0
O179 O 0.04665 0.19997 0.62393 0.0
H180 H 0.08205 0.27097 0.66163 0.0
H181 H 0.06361 0.23243 0.57698 0.0
O182 O 0.09696 0.19664 0.60122 0.0
C183 C 0.02812 0.20787 0.6418 0.0
O184 O 0.03412 0.22304 0.66593 0.0
N185 N 0.11236 0.21695 0.6594 0.0
C186 C 0.15477 0.2246 0.70003 0.0
C187 C 0.15806 0.21037 0.67199 0.0
C188 C 0.13638 0.20613 0.65235 0.0
C189 C 0.10873 0.22991 0.68719 0.0
C190 C 0.12971 0.23435 0.70763 0.0
H191 H 0.13888 0.19297 0.63262 0.0
H192 H 0.08911 0.23591 0.69413 0.0
H193 H 0.10701 0.1534 0.62528 0.0
H194 H 0.07506 0.13183 0.71309 0.0
H195 H 0.06739 0.30693 0.61987 0.0
H196 H 0.17695 0.20177 0.66592 0.0
H197 H 0.12628 0.24523 0.72926 0.0
C198 C 0.83593 0.07515 0.68627 0.0
C199 C 0.86035 0.08643 0.69055 0.0
N200 N 0.86616 0.10053 0.66452 0.0
N201 N 0.82651 0.08223 0.65776 0.0
C202 C 0.84539 0.09766 0.64504 0.0
H203 H 0.82529 0.06337 0.7033 0.0
Co204 Co 0.79302 0.07509 0.64315 0.0
C205 C 0.79206 0.09346 0.57584 0.0
O206 O 0.76626 0.09557 0.57561 0.0
N207 N 0.75848 0.06739 0.62913 0.0
C208 C 0.71535 0.06744 0.61818 0.0
C209 C 0.73538 0.08027 0.63399 0.0
C210 C 0.75172 0.04666 0.61082 0.0
N211 N 0.72581 0.04617 0.60408 0.0
O212 O 0.80378 0.03997 0.6348 0.0
H213 H 0.73305 0.09824 0.64739 0.0
H214 H 0.76567 0.03269 0.60114 0.0
O215 O 0.80389 0.08541 0.60067 0.0
C216 C 0.79832 0.02368 0.65666 0.0
O217 O 0.78486 0.03203 0.68124 0.0
N218 N 0.78343 0.10919 0.65416 0.0
C219 C 0.77189 0.15705 0.68281 0.0
C220 C 0.78118 0.15636 0.65169 0.0
C221 C 0.78734 0.13212 0.63787 0.0
C222 C 0.7748 0.10962 0.68456 0.0
C223 C 0.7688 0.13332 0.69934 0.0
H224 H 0.79591 0.13223 0.61467 0.0
H225 H 0.7727 0.09128 0.69736 0.0
H226 H 0.84339 0.10791 0.62278 0.0
H227 H 0.87261 0.08487 0.71138 0.0
H228 H 0.69486 0.07335 0.61687 0.0
H229 H 0.78413 0.17438 0.63843 0.0
H230 H 0.76136 0.13303 0.72331 0.0
C231 C 0.91355 0.81736 0.68243 0.0
C232 C 0.90336 0.84182 0.68932 0.0
N233 N 0.88935 0.85009 0.66417 0.0
N234 N 0.906 0.81033 0.65312 0.0
C235 C 0.89125 0.83065 0.64258 0.0
H236 H 0.92522 0.80518 0.69804 0.0
Co237 Co 0.91306 0.77807 0.63493 0.0
C238 C 0.89607 0.78208 0.56725 0.0
O239 O 0.8949 0.75636 0.56403 0.0
N240 N 0.92082 0.74468 0.61752 0.0
C241 C 0.92099 0.70243 0.60242 0.0
C242 C 0.90794 0.72133 0.61995 0.0
C243 C 0.94176 0.73919 0.59896 0.0
N244 N 0.94238 0.71383 0.58968 0.0
O245 O 0.94818 0.78933 0.62808 0.0
H246 H 0.8899 0.71812 0.63292 0.0
H247 H 0.95578 0.75377 0.59088 0.0
O248 O 0.90313 0.79216 0.59359 0.0
C249 C 0.96486 0.78282 0.64909 0.0
O250 O 0.95725 0.7674 0.6723 0.0
N251 N 0.87878 0.76795 0.64432 0.0
C252 C 0.83017 0.75823 0.672 0.0
C253 C 0.83157 0.76819 0.64126 0.0
C254 C 0.85618 0.7734 0.62794 0.0
C255 C 0.87767 0.75788 0.67404 0.0
C256 C 0.85355 0.75282 0.68837 0.0
H257 H 0.85663 0.78284 0.60524 0.0
H258 H 0.89577 0.75445 0.68694 0.0
H259 H 0.88115 0.83079 0.62008 0.0
H260 H 0.90595 0.85261 0.71116 0.0
H261 H 0.91515 0.68209 0.59907 0.0
H262 H 0.81381 0.77278 0.62813 0.0
H263 H 0.8532 0.74478 0.71206 0.0
C264 C 0.66183 0.57027 0.80889 0.0
C265 C 0.63638 0.57875 0.80382 0.0
N266 N 0.62866 0.59266 0.82931 0.0
N267 N 0.67003 0.57899 0.83728 0.0
C268 C 0.64933 0.59238 0.84925 0.0
H269 H 0.67397 0.55932 0.79247 0.0
Co270 Co 0.70393 0.57557 0.85253 0.0
C271 C 0.70452 0.607 0.91174 0.0
O272 O 0.72822 0.61582 0.90487 0.0
N273 N 0.73857 0.57117 0.8675 0.0
C274 C 0.78174 0.56359 0.87263 0.0
C275 C 0.76212 0.57215 0.85248 0.0
C276 C 0.74443 0.56164 0.89638 0.0
N277 N 0.77039 0.55738 0.90027 0.0
O278 O 0.69529 0.54147 0.86736 0.0
H279 H 0.76504 0.5775 0.82809 0.0
H280 H 0.7297 0.55681 0.91397 0.0
O281 O 0.69308 0.59085 0.89302 0.0
C282 C 0.70231 0.52371 0.84789 0.0
O283 O 0.71641 0.5307 0.82324 0.0
N284 N 0.71166 0.60841 0.83499 0.0
C285 C 0.71838 0.65239 0.79665 0.0
C286 C 0.70531 0.65466 0.8256 0.0
C287 C 0.70149 0.63224 0.84409 0.0
C288 C 0.72345 0.60579 0.80631 0.0
C289 C 0.7274 0.62756 0.78695 0.0
H290 H 0.68914 0.6341 0.86463 0.0
H291 H 0.7289 0.58642 0.79787 0.0
H292 H 0.64982 0.60315 0.87128 0.0
H293 H 0.62473 0.5755 0.78277 0.0
H294 H 0.80251 0.56156 0.86725 0.0
H295 H 0.69732 0.6734 0.83333 0.0
H296 H 0.7374 0.62494 0.76456 0.0
C297 C 0.41328 0.66851 0.81314 0.0
C298 C 0.40207 0.64437 0.80686 0.0
N299 N 0.38837 0.63679 0.83255 0.0
N300 N 0.40663 0.67602 0.8426 0.0
C301 C 0.3915 0.65628 0.85386 0.0
H302 H 0.42487 0.68023 0.79696 0.0
Co303 Co 0.4145 0.70844 0.86001 0.0
C304 C 0.39269 0.70763 0.92535 0.0
O305 O 0.3892 0.73329 0.92493 0.0
N306 N 0.42309 0.74188 0.87691 0.0
C307 C 0.42491 0.78441 0.8907 0.0
C308 C 0.41187 0.7659 0.87264 0.0
C309 C 0.44304 0.74654 0.89728 0.0
N310 N 0.44464 0.77206 0.90577 0.0
O311 O 0.44891 0.6959 0.86878 0.0
H312 H 0.39491 0.76995 0.85804 0.0
H313 H 0.45573 0.73137 0.90684 0.0
O314 O 0.40268 0.69605 0.90137 0.0
C315 C 0.46576 0.70118 0.84749 0.0
O316 O 0.45864 0.7164 0.82385 0.0
N317 N 0.38105 0.71969 0.84839 0.0
C318 C 0.33448 0.72972 0.81607 0.0
C319 C 0.33383 0.71813 0.84605 0.0
C320 C 0.35746 0.71278 0.86167 0.0
C321 C 0.38193 0.73105 0.81933 0.0
C322 C 0.35889 0.73649 0.80286 0.0
H323 H 0.3565 0.70173 0.88331 0.0
H324 H 0.40084 0.73522 0.80859 0.0
H325 H 0.3818 0.65669 0.87659 0.0
H326 H 0.40359 0.63343 0.78499 0.0
H327 H 0.42029 0.80519 0.89266 0.0
H328 H 0.31532 0.71221 0.85667 0.0
H329 H 0.3602 0.74572 0.77985 0.0
C330 C 0.32862 0.42631 0.82426 0.0
C331 C 0.35364 0.41638 0.82011 0.0
N332 N 0.35668 0.39587 0.83991 0.0
N333 N 0.31626 0.41234 0.84698 0.0
C334 C 0.33379 0.39371 0.85577 0.0
H335 H 0.3201 0.44272 0.81159 0.0
Co336 Co 0.28278 0.41806 0.86303 0.0
C337 C 0.28679 0.40378 0.93221 0.0
O338 O 0.26162 0.40724 0.93805 0.0
N339 N 0.24838 0.42431 0.87865 0.0
C340 C 0.20575 0.42201 0.89187 0.0
C341 C 0.22605 0.40982 0.87576 0.0
C342 C 0.24081 0.44547 0.8958 0.0
N343 N 0.21522 0.44456 0.90404 0.0
O344 O 0.29254 0.45352 0.87147 0.0
H345 H 0.22445 0.39132 0.86324 0.0
H346 H 0.2541 0.46065 0.90404 0.0
O347 O 0.2959 0.40766 0.9045 0.0
C348 C 0.2858 0.47051 0.85093 0.0
O349 O 0.27109 0.46295 0.82703 0.0
N350 N 0.27404 0.38358 0.85247 0.0
C351 C 0.26377 0.33428 0.82665 0.0
C352 C 0.26782 0.33707 0.85921 0.0
C353 C 0.27306 0.36198 0.87174 0.0
C354 C 0.26989 0.38123 0.82089 0.0
C355 C 0.2648 0.35676 0.80743 0.0
H356 H 0.27626 0.36357 0.89674 0.0
H357 H 0.27079 0.39859 0.80608 0.0
H358 H 0.33005 0.37912 0.87387 0.0
H359 H 0.36837 0.42349 0.80367 0.0
H360 H 0.1858 0.4148 0.89474 0.0
H361 H 0.26704 0.32016 0.8748 0.0
H362 H 0.26113 0.35556 0.78227 0.0
C363 C 0.57571 0.32608 0.80612 0.0
C364 C 0.58625 0.35067 0.80064 0.0
N365 N 0.59961 0.3581 0.82666 0.0
N366 N 0.5826 0.31814 0.83532 0.0
C367 C 0.59702 0.33811 0.84732 0.0
H368 H 0.56438 0.31436 0.78965 0.0
Co369 Co 0.5754 0.28536 0.85182 0.0
C370 C 0.6014 0.28382 0.91472 0.0
O371 O 0.60613 0.25848 0.91165 0.0
N372 N 0.56737 0.25157 0.86812 0.0
C373 C 0.56421 0.20862 0.8796 0.0
C374 C 0.57687 0.22722 0.86124 0.0
C375 C 0.54904 0.24706 0.89058 0.0
N376 N 0.54654 0.22135 0.89759 0.0
O377 O 0.5418 0.29813 0.86392 0.0
H378 H 0.59212 0.22288 0.84427 0.0
H379 H 0.53787 0.2624 0.90228 0.0
O380 O 0.58937 0.29624 0.89278 0.0
C381 C 0.52184 0.2918 0.84744 0.0
O382 O 0.52463 0.27472 0.82433 0.0
N383 N 0.60813 0.27417 0.83721 0.0
C384 C 0.65338 0.26388 0.80227 0.0
C385 C 0.65514 0.27636 0.83168 0.0
C386 C 0.63218 0.28183 0.84856 0.0
C387 C 0.60609 0.26247 0.80839 0.0
C388 C 0.62848 0.2568 0.79068 0.0
H389 H 0.63397 0.29356 0.86962 0.0
H390 H 0.58678 0.25799 0.79891 0.0
H391 H 0.6066 0.33759 0.87011 0.0
H392 H 0.58455 0.36202 0.77909 0.0
H393 H 0.56739 0.18751 0.87942 0.0
H394 H 0.67398 0.28278 0.84097 0.0
H395 H 0.62628 0.24704 0.76808 0.0
C396 C 0.67435 0.41632 0.17756 0.0
C397 C 0.6498 0.40643 0.18482 0.0
N398 N 0.6409 0.39291 0.15959 0.0
N399 N 0.68081 0.40889 0.14802 0.0
C400 C 0.66002 0.39474 0.13764 0.0
H401 H 0.68695 0.42776 0.19295 0.0
Co402 Co 0.71263 0.4158 0.12875 0.0
C403 C 0.71054 0.38826 0.06681 0.0
O404 O 0.73589 0.38302 0.06796 0.0
N405 N 0.74554 0.42349 0.10952 0.0
C406 C 0.78783 0.4255 0.09451 0.0
C407 C 0.76979 0.41261 0.1134 0.0
C408 C 0.74957 0.44284 0.08815 0.0
N409 N 0.77491 0.44465 0.07913 0.0
O410 O 0.699 0.44903 0.11674 0.0
H411 H 0.77441 0.39621 0.12865 0.0
H412 H 0.73422 0.4554 0.0788 0.0
O413 O 0.6996 0.40095 0.08931 0.0
C414 C 0.70548 0.46879 0.13348 0.0
O415 O 0.72345 0.46589 0.15556 0.0
N416 N 0.72476 0.38358 0.14362 0.0
C417 C 0.73621 0.34002 0.18092 0.0
C418 C 0.72265 0.33691 0.15236 0.0
C419 C 0.7166 0.3591 0.13426 0.0
C420 C 0.73792 0.38686 0.17134 0.0
C421 C 0.74415 0.36533 0.19018 0.0
H422 H 0.70398 0.3565 0.11405 0.0
H423 H 0.74292 0.40655 0.17919 0.0
H424 H 0.65924 0.385 0.11495 0.0
H425 H 0.6394 0.40886 0.20695 0.0
H426 H 0.80874 0.4215 0.09267 0.0
H427 H 0.71569 0.3177 0.14486 0.0
H428 H 0.75481 0.36853 0.21201 0.0
C429 C 0.56467 0.65682 0.1726 0.0
C430 C 0.57415 0.63145 0.17541 0.0
N431 N 0.59387 0.62844 0.15446 0.0
N432 N 0.57823 0.66944 0.14975 0.0
C433 C 0.59591 0.65161 0.13923 0.0
H434 H 0.54885 0.66548 0.18623 0.0
Co435 Co 0.57251 0.70351 0.13582 0.0
C436 C 0.60243 0.70682 0.07529 0.0
O437 O 0.60959 0.73117 0.08169 0.0
N438 N 0.56579 0.73809 0.12197 0.0
C439 C 0.55712 0.78113 0.11762 0.0
C440 C 0.56629 0.7615 0.13738 0.0
C441 C 0.55571 0.74398 0.09337 0.0
N442 N 0.55092 0.76987 0.08992 0.0
O443 O 0.53872 0.69305 0.12125 0.0
H444 H 0.57214 0.7643 0.16164 0.0
H445 H 0.55149 0.7294 0.07537 0.0
O446 O 0.58785 0.69422 0.09476 0.0
C447 C 0.52057 0.69933 0.14057 0.0
O448 O 0.52677 0.71405 0.16503 0.0
N449 N 0.60504 0.71321 0.15301 0.0
C450 C 0.64911 0.72619 0.18889 0.0
C451 C 0.65203 0.71378 0.15959 0.0
C452 C 0.6297 0.70692 0.14226 0.0
C453 C 0.60191 0.72389 0.18224 0.0
C454 C 0.62364 0.73094 0.20042 0.0
H455 H 0.63261 0.69579 0.12095 0.0
H456 H 0.58226 0.72677 0.19158 0.0
H457 H 0.60981 0.65524 0.12037 0.0
H458 H 0.56738 0.61654 0.1918 0.0
H459 H 0.55509 0.80189 0.1231 0.0
H460 H 0.67139 0.70895 0.15042 0.0
H461 H 0.62048 0.74035 0.22306 0.0
C462 C 0.32418 0.56995 0.18211 0.0
C463 C 0.34925 0.57927 0.18764 0.0
N464 N 0.35744 0.59209 0.16157 0.0
N465 N 0.31667 0.57705 0.15282 0.0
C466 C 0.33741 0.59034 0.14081 0.0
H467 H 0.31181 0.5595 0.19873 0.0
Co468 Co 0.28337 0.57183 0.13642 0.0
C469 C 0.28364 0.60209 0.07614 0.0
O470 O 0.25946 0.61039 0.08138 0.0
N471 N 0.24935 0.56561 0.12037 0.0
C472 C 0.20657 0.5563 0.11458 0.0
C473 C 0.22568 0.56518 0.13519 0.0
C474 C 0.2441 0.55637 0.09116 0.0
N475 N 0.21834 0.55118 0.08687 0.0
O476 O 0.29389 0.53793 0.12281 0.0
H477 H 0.22235 0.56987 0.15969 0.0
H478 H 0.2591 0.55257 0.07353 0.0
O479 O 0.29475 0.58666 0.09595 0.0
C480 C 0.2881 0.52006 0.14267 0.0
O481 O 0.2735 0.52644 0.16715 0.0
N482 N 0.27372 0.60473 0.15259 0.0
C483 C 0.26232 0.64977 0.18747 0.0
C484 C 0.2768 0.65162 0.15947 0.0
C485 C 0.28302 0.62872 0.14284 0.0
C486 C 0.26092 0.60257 0.18071 0.0
C487 C 0.25462 0.62485 0.19833 0.0
H488 H 0.29632 0.63048 0.12316 0.0
H489 H 0.25635 0.58327 0.19004 0.0
H490 H 0.3374 0.59994 0.11803 0.0
H491 H 0.36034 0.57732 0.20936 0.0
H492 H 0.18583 0.55346 0.11962 0.0
H493 H 0.28395 0.6705 0.15108 0.0
H494 H 0.24379 0.62258 0.2202 0.0
C495 C 0.42182 0.32631 0.18369 0.0
C496 C 0.4117 0.35098 0.18982 0.0
N497 N 0.39949 0.35962 0.16353 0.0
N498 N 0.41584 0.31948 0.1538 0.0
C499 C 0.40243 0.34026 0.14205 0.0
H500 H 0.4319 0.31365 0.20032 0.0
Co501 Co 0.42169 0.2866 0.13642 0.0
C502 C 0.39217 0.28817 0.07557 0.0
O503 O 0.3837 0.26393 0.07995 0.0
N504 N 0.42848 0.25304 0.11939 0.0
C505 C 0.43784 0.21045 0.11184 0.0
C506 C 0.42897 0.22897 0.13324 0.0
C507 C 0.43779 0.24864 0.09003 0.0
N508 N 0.44294 0.22303 0.08466 0.0
O509 O 0.45574 0.29762 0.12404 0.0
H510 H 0.42416 0.22492 0.15755 0.0
H511 H 0.44146 0.26411 0.07297 0.0
O512 O 0.40745 0.29879 0.09594 0.0
C513 C 0.47319 0.29175 0.1444 0.0
O514 O 0.46626 0.27734 0.16882 0.0
N515 N 0.3886 0.27634 0.15137 0.0
C516 C 0.3431 0.26385 0.18473 0.0
C517 C 0.3416 0.27912 0.15734 0.0
C518 C 0.36472 0.28588 0.14151 0.0
C519 C 0.39038 0.26267 0.17892 0.0
C520 C 0.36786 0.25582 0.19575 0.0
H521 H 0.36321 0.2998 0.12243 0.0
H522 H 0.40955 0.25789 0.1885 0.0
H523 H 0.39344 0.34065 0.11891 0.0
H524 H 0.41259 0.36141 0.2121 0.0
H525 H 0.44051 0.18954 0.11592 0.0
H526 H 0.32283 0.28654 0.1489 0.0
H527 H 0.36984 0.24438 0.21722 0.0
H528 H 0.1678 0.0022 0.39606 0.0
H529 H 0.11891 0.88522 0.28541 0.0
H530 H 0.20405 0.98257 0.30681 0.0
H531 H 0.1013 0.88723 0.385 0.0
H532 H 0.14748 0.92356 0.29209 0.0
H533 H 0.1414 0.96177 0.39251 0.0
C534 C 0.17043 0.98926 0.37595 0.0
C535 C 0.188 0.99584 0.35158 0.0
C536 C 0.1374 0.9156 0.31252 0.0
C537 C 0.15768 0.95005 0.34716 0.0
C538 C 0.12088 0.89393 0.30862 0.0
C539 C 0.10769 0.88317 0.33467 0.0
C540 C 0.14052 0.92681 0.34262 0.0
C541 C 0.11129 0.89491 0.36439 0.0
C542 C 0.15535 0.96626 0.37392 0.0
C543 C 0.19067 0.97838 0.32607 0.0
N544 N 0.12729 0.91624 0.36757 0.0
N545 N 0.17546 0.95645 0.32437 0.0
H546 H 0.10655 0.10199 0.38461 0.0
H547 H 0.00685 0.20323 0.30333 0.0
H548 H 0.10848 0.12235 0.28576 0.0
H549 H 0.99156 0.16755 0.39407 0.0
H550 H 0.04752 0.17787 0.29944 0.0
H551 H 0.06718 0.1295 0.39103 0.0
C552 C 0.09866 0.11225 0.36428 0.0
C553 C 0.1107 0.10985 0.33458 0.0
C554 C 0.03532 0.17564 0.32026 0.0
C555 C 0.06593 0.14135 0.34176 0.0
C556 C 0.01215 0.19022 0.3226 0.0
C557 C 0.99569 0.18735 0.34899 0.0
C558 C 0.04221 0.15815 0.34455 0.0
C559 C 0.00362 0.17024 0.37324 0.0
C560 C 0.0762 0.12785 0.36794 0.0
C561 C 0.0996 0.12337 0.30895 0.0
N562 N 0.02634 0.15619 0.3704 0.0
N563 N 0.07791 0.13864 0.31317 0.0
H564 H 0.82207 0.99257 0.39949 0.0
H565 H 0.86365 0.11286 0.28932 0.0
H566 H 0.78359 0.01125 0.31133 0.0
H567 H 0.88577 0.1086 0.38753 0.0
H568 H 0.83627 0.07369 0.29628 0.0
H569 H 0.84696 0.0339 0.3956 0.0
C570 C 0.81865 0.00547 0.37953 0.0
C571 C 0.80087 -0.00161 0.35559 0.0
C572 C 0.84705 0.08135 0.31635 0.0
C573 C 0.82944 0.04529 0.3508 0.0
C574 C 0.86287 0.10354 0.31229 0.0
C575 C 0.87703 0.11389 0.33785 0.0
C576 C 0.8456 0.06924 0.34612 0.0
C577 C 0.87499 0.10131 0.36728 0.0
C578 C 0.83286 0.029 0.37731 0.0
C579 C 0.79717 0.01583 0.33027 0.0
N580 N 0.85965 0.07951 0.3706 0.0
N581 N 0.81152 0.03833 0.32839 0.0
H582 H 0.87861 0.86988 0.28731 0.0
H583 H -0.00122 0.82429 0.39555 0.0
H584 H 0.8837 0.89003 0.38607 0.0
H585 H 0.97942 0.7882 0.30613 0.0
H586 H 0.9578 0.84984 0.39265 0.0
H587 H 0.91755 0.842 0.29312 0.0
C588 C 0.88809 0.86861 0.31015 0.0
C589 C 0.87801 0.88234 0.33621 0.0
C590 C 0.96247 0.83612 0.37385 0.0
C591 C 0.92239 0.85025 0.34319 0.0
C592 C 0.98579 0.8215 0.37552 0.0
C593 C 0.99261 0.80423 0.35094 0.0
C594 C 0.9461 0.8336 0.34725 0.0
C595 C 0.97505 0.80137 0.32556 0.0
C596 C 0.91014 0.85248 0.31356 0.0
C597 C 0.89078 0.87961 0.36545 0.0
N598 N 0.95276 0.81611 0.32423 0.0
N599 N 0.91243 0.86396 0.36814 0.0
H600 H 0.11422 0.10488 0.71559 0.0
H601 H 0.16498 0.98776 0.60539 0.0
H602 H 0.10583 0.10656 0.61427 0.0
H603 H 0.19208 0.00052 0.70084 0.0
H604 H 0.14041 0.02938 0.60824 0.0
H605 H 0.13923 0.06391 0.71108 0.0
C606 C 0.11743 0.09647 0.69242 0.0
C607 C 0.10795 0.10909 0.66527 0.0
C608 C 0.1519 0.02308 0.62844 0.0
C609 C 0.13677 0.06239 0.65985 0.0
C610 C 0.16591 -0.00061 0.62683 0.0
C611 C 0.18052 0.99066 0.65295 0.0
C612 C 0.1523 0.03787 0.65649 0.0
C613 C 0.18109 0.00647 0.68013 0.0
C614 C 0.13193 0.07324 0.68981 0.0
C615 C 0.11303 0.09754 0.63575 0.0
N616 N 0.16701 0.02919 0.68127 0.0
N617 N 0.12706 0.07476 0.6338 0.0
H618 H 0.89127 0.12972 0.70851 0.0
H619 H 0.00905 0.1728 0.59779 0.0
H620 H 0.89145 0.11015 0.60944 0.0
H621 H 0.98693 0.21566 0.68188 0.0
H622 H 0.96752 0.14812 0.60113 0.0
H623 H 0.92884 0.15899 0.69981 0.0
C624 C 0.89939 0.1315 0.68497 0.0
C625 C 0.88847 0.11745 0.65969 0.0
C626 C 0.97169 0.16321 0.61853 0.0
C627 C 0.93124 0.15091 0.64946 0.0
C628 C 0.99531 0.17732 0.61662 0.0
C629 C 0.00159 0.19608 0.63982 0.0
C630 C 0.95458 0.16771 0.64405 0.0
C631 C 0.98306 0.2012 0.66365 0.0
C632 C 0.9206 0.14839 0.67992 0.0
C633 C 0.89937 0.12076 0.62948 0.0
N634 N 0.96059 0.18681 0.66542 0.0
N635 N 0.9204 0.13701 0.6252 0.0
H636 H 0.87949 0.87802 0.61088 0.0
H637 H 0.79444 0.98638 0.70269 0.0
H638 H 0.86507 0.87676 0.71124 0.0
H639 H 0.82567 -0.0009 0.60907 0.0
H640 H 0.81465 0.94279 0.70327 0.0
H641 H 0.85457 0.91934 0.60714 0.0
C642 C 0.87095 0.88637 0.63207 0.0
C643 C 0.87448 0.8741 0.66146 0.0
C644 C 0.81701 0.95507 0.68254 0.0
C645 C 0.84603 0.92112 0.65737 0.0
C646 C 0.80539 0.97993 0.68212 0.0
C647 C 0.80859 -0.00351 0.65589 0.0
C648 C 0.83185 0.94659 0.65648 0.0
C649 C 0.8229 0.98702 0.62987 0.0
C650 C 0.85686 0.90996 0.62994 0.0
C651 C 0.86319 0.88581 0.68823 0.0
N652 N 0.83412 0.96268 0.63086 0.0
N653 N 0.84944 0.90865 0.68553 0.0
H654 H 0.00214 0.77893 0.69529 0.0
H655 H 0.10329 0.878 0.61251 0.0
H656 H 0.98774 0.81419 0.6041 0.0
H657 H 0.10491 0.85873 0.71168 0.0
H658 H 0.06444 0.84979 0.60615 0.0
H659 H 0.04385 0.80272 0.69842 0.0
C660 C 0.00787 0.79147 0.67576 0.0
C661 C 0.99134 0.79479 0.64952 0.0
C662 C 0.07333 0.85176 0.62928 0.0
C663 C 0.03898 0.82216 0.65307 0.0
C664 C 0.0955 0.86775 0.6329 0.0
C665 C 0.10717 0.87081 0.66271 0.0
C666 C 0.06298 0.83854 0.65562 0.0
C667 C 0.09624 0.85725 0.68841 0.0
C668 C 0.03162 0.80515 0.67766 0.0
C669 C -0.00018 0.81124 0.62489 0.0
N670 N 0.07478 0.84166 0.68426 0.0
N671 N 0.02305 0.82444 0.62732 0.0
H672 H 0.66916 0.50286 0.89281 0.0
H673 H 0.62764 0.38367 0.78189 0.0
H674 H 0.70892 0.48393 0.8055 0.0
H675 H 0.60794 0.3851 0.88092 0.0
H676 H 0.65539 0.42252 0.78957 0.0
H677 H 0.64527 0.46091 0.8893 0.0
C678 C 0.67314 0.48975 0.87318 0.0
C679 C 0.69084 0.49701 0.84923 0.0
C680 C 0.64508 0.41429 0.80967 0.0
C681 C 0.66336 0.44947 0.84485 0.0
C682 C 0.62904 0.39232 0.8052 0.0
C683 C 0.61544 0.38132 0.83077 0.0
C684 C 0.64725 0.42555 0.83986 0.0
C685 C 0.61826 0.39299 0.86065 0.0
C686 C 0.65948 0.46588 0.87117 0.0
C687 C 0.6953 0.47927 0.82437 0.0
N688 N 0.63373 0.41465 0.86438 0.0
N689 N 0.6814 0.45649 0.82261 0.0
H690 H 0.5021 0.70183 0.80013 0.0
H691 H 0.60293 0.60338 0.88384 0.0
H692 H 0.48779 0.66935 0.8928 0.0
H693 H 0.60063 0.61692 0.78336 0.0
H694 H 0.56398 0.6316 0.88999 0.0
H695 H 0.54226 0.67561 0.79642 0.0
C696 C 0.50753 0.68937 0.81986 0.0
C697 C 0.49148 0.68762 0.84674 0.0
C698 C 0.57196 0.62826 0.86661 0.0
C699 C 0.53738 0.65745 0.84251 0.0
C700 C 0.59416 0.61226 0.8631 0.0
C701 C 0.60489 0.60777 0.83303 0.0
C702 C 0.56071 0.64012 0.83988 0.0
C703 C 0.59275 0.61958 0.80688 0.0
C704 C 0.53038 0.67428 0.81761 0.0
C705 C 0.49954 0.67116 0.87158 0.0
N706 N 0.57139 0.63534 0.81093 0.0
N707 N 0.52196 0.65662 0.86884 0.0
H708 H 0.3157 0.49343 0.89737 0.0
H709 H 0.36135 0.61157 0.78647 0.0
H710 H 0.28288 0.50801 0.80493 0.0
H711 H 0.37807 0.60972 0.8863 0.0
H712 H 0.33371 0.57249 0.79259 0.0
H713 H 0.33924 0.53549 0.89416 0.0
C714 C 0.31323 0.5056 0.87656 0.0
C715 C 0.29748 0.49713 0.85126 0.0
C716 C 0.34333 0.58068 0.8132 0.0
C717 C 0.32454 0.54496 0.8473 0.0
C718 C 0.3593 0.60282 0.80965 0.0
C719 C 0.37212 0.61375 0.83588 0.0
C720 C 0.34037 0.5692 0.84316 0.0
C721 C 0.3684 0.60194 0.86552 0.0
C722 C 0.32666 0.52957 0.87474 0.0
C723 C 0.29489 0.5137 0.82493 0.0
N724 N 0.353 0.58015 0.86834 0.0
N725 N 0.30851 0.53669 0.82349 0.0
H726 H 0.35851 0.34313 0.84848 0.0
H727 H 0.51385 0.3399 0.8745 0.0
H728 H 0.40716 0.41251 0.84084 0.0
H729 H 0.47266 0.27536 0.82993 0.0
H730 H 0.47256 0.36494 0.87586 0.0
H731 H 0.39853 0.31613 0.8545 0.0
C732 C 0.37765 0.3526 0.8483 0.0
C733 C 0.37977 0.37993 0.84395 0.0
C734 C 0.4726 0.34519 0.86608 0.0
C735 C 0.42512 0.34957 0.85133 0.0
C736 C 0.49603 0.33085 0.86548 0.0
C737 C 0.4966 0.30563 0.85187 0.0
C738 C 0.44958 0.33401 0.85353 0.0
C739 C 0.47301 0.29485 0.84036 0.0
C740 C 0.40034 0.33728 0.85162 0.0
C741 C 0.40488 0.39143 0.84374 0.0
N742 N 0.45035 0.30913 0.84145 0.0
N743 N 0.42665 0.37619 0.84755 0.0
H744 H 0.57801 0.57757 0.15465 0.0
H745 H 0.72163 0.51811 0.15039 0.0
H746 H 0.64611 0.62741 0.14253 0.0
H747 H 0.6551 0.47545 0.11256 0.0
H748 H 0.69438 0.55801 0.15287 0.0
H749 H 0.60595 0.53872 0.14534 0.0
C750 C 0.59886 0.58023 0.15014 0.0
C751 C 0.6099 0.60553 0.14935 0.0
C752 C 0.6859 0.53996 0.14368 0.0
C753 C 0.64177 0.56162 0.13892 0.0
C754 C 0.70138 0.51726 0.14229 0.0
C755 C 0.69053 0.49357 0.13128 0.0
C756 C 0.65928 0.53867 0.13475 0.0
C757 C 0.66422 0.49342 0.12104 0.0
C758 C 0.61469 0.55821 0.14457 0.0
C759 C 0.63693 0.60815 0.1431 0.0
N760 N 0.64931 0.51559 0.12348 0.0
N761 N 0.65206 0.5864 0.13844 0.0
H762 H 0.50148 0.66463 0.09613 0.0
H763 H 0.38328 0.61939 0.20681 0.0
H764 H 0.48068 0.70392 0.18315 0.0
H765 H 0.38494 0.60026 0.1076 0.0
H766 H 0.422 0.64734 0.19949 0.0
H767 H 0.46073 0.63869 0.0999 0.0
C768 C 0.48821 0.66805 0.11576 0.0
C769 C 0.49458 0.6863 0.13949 0.0
C770 C 0.41389 0.63705 0.17929 0.0
C771 C 0.44846 0.65649 0.1442 0.0
C772 C 0.392 0.62088 0.18355 0.0
C773 C 0.38101 0.60747 0.1578 0.0
C774 C 0.42508 0.6396 0.14911 0.0
C775 C 0.39279 0.61044 0.128 0.0
C776 C 0.46505 0.65322 0.11792 0.0
C777 C 0.4767 0.68996 0.1644 0.0
N778 N 0.41434 0.62612 0.12446 0.0
N779 N 0.45464 0.67496 0.16629 0.0
H780 H 0.32221 0.50084 0.09779 0.0
H781 H 0.37036 0.38359 0.20873 0.0
H782 H 0.28508 0.4808 0.18636 0.0
H783 H 0.39146 0.38799 0.11022 0.0
H784 H 0.34119 0.42144 0.20166 0.0
H785 H 0.349 0.46073 0.10172 0.0
C786 C 0.31944 0.48786 0.11782 0.0
C787 C 0.30155 0.49427 0.14191 0.0
C788 C 0.35217 0.41412 0.18156 0.0
C789 C 0.33235 0.44881 0.14679 0.0
C790 C 0.36905 0.39273 0.18569 0.0
C791 C 0.3834 0.38276 0.16006 0.0
C792 C 0.34983 0.42582 0.15163 0.0
C793 C 0.38059 0.39503 0.13053 0.0
C794 C 0.33477 0.46504 0.12009 0.0
C795 C 0.29873 0.47674 0.16732 0.0
N796 N 0.3642 0.41604 0.12712 0.0
N797 N 0.31419 0.45498 0.16926 0.0
H798 H 0.49459 0.32308 0.09811 0.0
H799 H 0.61512 0.36753 0.20652 0.0
H800 H 0.51148 0.28903 0.18934 0.0
H801 H 0.61218 0.38408 0.10669 0.0
H802 H 0.57505 0.34114 0.20134 0.0
H803 H 0.53637 0.34729 0.10084 0.0
C804 C 0.50719 0.32049 0.11853 0.0
C805 C 0.49949 0.30414 0.14361 0.0
C806 C 0.5832 0.35049 0.18054 0.0
C807 C 0.54691 0.33197 0.14707 0.0
C808 C 0.6059 0.36575 0.18357 0.0
C809 C 0.6169 0.37801 0.15702 0.0
C810 C 0.57125 0.3477 0.1508 0.0
C811 C 0.60441 0.37474 0.12769 0.0
C812 C 0.53097 0.33432 0.12009 0.0
C813 C 0.51656 0.30147 0.16949 0.0
N814 N 0.58214 0.35998 0.12536 0.0
N815 N 0.53933 0.31544 0.17068 0.0
H816 H 0.15842 0.09384 0.43844 0.0
H817 H 0.15663 0.22171 0.5479 0.0
H818 H 0.22617 0.14368 0.45455 0.0
H819 H 0.10015 0.15878 0.56006 0.0
H820 H 0.17931 0.19539 0.50821 0.0
H821 H 0.13416 0.11889 0.47871 0.0
C822 C 0.16825 0.10988 0.45056 0.0
C823 C 0.19437 0.1167 0.44305 0.0
C824 C 0.16194 0.18732 0.51954 0.0
C825 C 0.16666 0.14554 0.48858 0.0
C826 C 0.14886 0.20241 0.5421 0.0
C827 C 0.12648 0.19241 0.55745 0.0
C828 C 0.15251 0.16208 0.51192 0.0
C829 C 0.11738 0.16722 0.54886 0.0
C830 C 0.15439 0.12414 0.47348 0.0
C831 C 0.2061 0.13767 0.45949 0.0
N832 N 0.13043 0.15289 0.52659 0.0
N833 N 0.19211 0.15144 0.48125 0.0
H834 H 0.90863 0.1545 0.44289 0.0
H835 H 0.77477 0.13036 0.53386 0.0
H836 H 0.85475 0.21759 0.46585 0.0
H837 H 0.8448 0.08805 0.56219 0.0
H838 H 0.80159 0.15718 0.49839 0.0
H839 H 0.88363 0.12508 0.47811 0.0
C840 C 0.89175 0.16221 0.45557 0.0
C841 C 0.88382 0.18856 0.45162 0.0
C842 C 0.81101 0.14187 0.51222 0.0
C843 C 0.85492 0.15497 0.4908 0.0
C844 C 0.79571 0.12636 0.53224 0.0
C845 C 0.80758 0.10696 0.5511 0.0
C846 C 0.8383 0.13765 0.51052 0.0
C847 C 0.8349 0.10287 0.54812 0.0
C848 C 0.87754 0.14544 0.47553 0.0
C849 C 0.86171 0.19752 0.4684 0.0
N850 N 0.8494 0.11809 0.52812 0.0
N851 N 0.84783 0.18066 0.48693 0.0
H852 H 0.86293 0.76645 0.52018 0.0
H853 H 0.83329 0.9061 0.44532 0.0
H854 H 0.89826 0.8361 0.56096 0.0
H855 H 0.77424 0.84521 0.45427 0.0
H856 H 0.86257 0.88032 0.47995 0.0
H857 H 0.83627 0.7945 0.48605 0.0
C858 C 0.86542 0.78763 0.52165 0.0
C859 C 0.88278 0.79895 0.54361 0.0
C860 C 0.84309 0.87286 0.47444 0.0
C861 C 0.85222 0.8311 0.50452 0.0
C862 C 0.8264 0.88749 0.4548 0.0
C863 C 0.80126 0.8778 0.44701 0.0
C864 C 0.83476 0.84817 0.48553 0.0
C865 C 0.79335 0.85354 0.45979 0.0
C866 C 0.85 0.8036 0.50234 0.0
C867 C 0.885 0.82658 0.54446 0.0
N868 N 0.81016 0.83941 0.47807 0.0
N869 N 0.86987 0.8418 0.52512 0.0
H870 H 0.08579 0.83493 0.44008 0.0
H871 H 0.22017 0.85469 0.5333 0.0
H872 H 0.14398 0.77346 0.45137 0.0
H873 H 0.14989 0.89688 0.56113 0.0
H874 H 0.1941 0.82958 0.49547 0.0
H875 H 0.11021 0.86206 0.47833 0.0
C876 C 0.10353 0.82706 0.45077 0.0
C877 C 0.11284 0.80187 0.44255 0.0
C878 C 0.18441 0.84441 0.50978 0.0
C879 C 0.141 0.83292 0.48549 0.0
C880 C 0.1993 0.85893 0.53123 0.0
C881 C 0.18719 0.87788 0.55055 0.0
C882 C 0.15722 0.84905 0.50719 0.0
C883 C 0.16001 0.88238 0.54678 0.0
C884 C 0.11741 0.84254 0.47251 0.0
C885 C 0.13598 0.79268 0.45704 0.0
N886 N 0.14588 0.86807 0.52545 0.0
N887 N 0.14938 0.8083 0.47751 0.0
H888 H 0.65573 0.59325 0.9348 0.0
H889 H 0.642 0.72453 0.03709 0.0
H890 H 0.71831 0.65018 0.94649 0.0
H891 H 0.59309 0.65632 0.05436 0.0
H892 H 0.66654 0.6994 0.99781 0.0
H893 H 0.62947 0.61748 0.97392 0.0
C894 C 0.66403 0.61069 0.94575 0.0
C895 C 0.68928 0.6197 0.93735 0.0
C896 C 0.65039 0.68994 0.01014 0.0
C897 C 0.65921 0.64764 0.98151 0.0
C898 C 0.63622 0.70434 0.03244 0.0
C899 C 0.6155 0.69249 0.04918 0.0
C900 C 0.64368 0.66355 0.00421 0.0
C901 C 0.60898 0.66621 0.04206 0.0
C902 C 0.64902 0.62449 0.96799 0.0
C903 C 0.69901 0.64244 0.95223 0.0
N904 N 0.62304 0.65258 0.02007 0.0
N905 N 0.68389 0.65571 0.97336 0.0
H906 H 0.35715 0.7247 0.96918 0.0
H907 H 0.33212 0.58715 0.05324 0.0
H908 H 0.39716 0.65441 0.93709 0.0
H909 H 0.27249 0.64751 0.0444 0.0
H910 H 0.36046 0.61234 0.01708 0.0
H911 H 0.33097 0.69781 0.00508 0.0
C912 C 0.36071 0.70365 0.96993 0.0
C913 C 0.37931 0.69178 0.94992 0.0
C914 C 0.34107 0.61985 0.02294 0.0
C915 C 0.34924 0.66089 0.99102 0.0
C916 C 0.32489 0.60553 0.04348 0.0
C917 C 0.29987 0.61523 0.05179 0.0
C918 C 0.33233 0.64424 0.0113 0.0
C919 C 0.29153 0.63919 0.03856 0.0
C920 C 0.34556 0.68829 0.99026 0.0
C921 C 0.38294 0.66434 0.95199 0.0
N922 N 0.30783 0.65299 0.01927 0.0
N923 N 0.36801 0.64976 0.97223 0.0
H924 H 0.27011 0.37348 0.98149 0.0
H925 H 0.40954 0.33507 0.0508 0.0
H926 H 0.34081 0.40068 0.93493 0.0
H927 H 0.34449 0.28023 0.04756 0.0
H928 H 0.38469 0.36495 0.01595 0.0
H929 H 0.29714 0.3454 0.01541 0.0
C930 C 0.29135 0.37389 0.97872 0.0
C931 C 0.30324 0.38942 0.95531 0.0
C932 C 0.3761 0.34623 0.02274 0.0
C933 C 0.33416 0.35735 0.99409 0.0
C934 C 0.3902 0.32921 0.0425 0.0
C935 C 0.3791 0.30509 0.05191 0.0
C936 C 0.35052 0.33932 0.01319 0.0
C937 C 0.35391 0.2985 0.04068 0.0
C938 C 0.30669 0.35768 -0.00211 0.0
C939 C 0.33088 0.38894 0.95266 0.0
N940 N 0.34033 0.31568 0.02226 0.0
N941 N 0.34549 0.37318 0.97193 0.0
H942 H 0.64139 0.26688 0.95275 0.0
H943 H 0.65926 0.39926 0.05065 0.0
H944 H 0.59331 0.33523 0.933 0.0
H945 H 0.72354 0.34617 0.02978 0.0
H946 H 0.63103 0.37397 0.01446 0.0
H947 H 0.66744 0.29322 0.98949 0.0
C948 C 0.63606 0.28734 0.95642 0.0
C949 C 0.61517 0.2989 0.93966 0.0
C950 C 0.65137 0.36807 0.01774 0.0
C951 C 0.64502 0.32913 0.98172 0.0
C952 C 0.66748 0.38244 0.0383 0.0
C953 C 0.69382 0.37485 0.04314 0.0
C954 C 0.66157 0.34567 0.00256 0.0
C955 C 0.70343 0.35286 0.02664 0.0
C956 C 0.6511 0.3024 0.97721 0.0
C957 C 0.60932 0.32558 0.94535 0.0
N958 N 0.68725 0.33889 0.00735 0.0
N959 N 0.62416 0.33984 0.96599 0.0
H960 H 0.25035 0.19662 0.33014 0.0
H961 H 0.29825 0.24246 0.16016 0.0
H962 H 0.2294 0.15788 0.24295 0.0
H963 H 0.33354 0.26729 0.24795 0.0
H964 H 0.2623 0.22191 0.18989 0.0
H965 H 0.26987 0.23269 0.29977 0.0
C966 C 0.24939 0.19601 0.3046 0.0
C967 C 0.2389 0.17405 0.28892 0.0
C968 C 0.27766 0.23231 0.20259 0.0
C969 C 0.26123 0.21491 0.25422 0.0
C970 C 0.29807 0.24408 0.18567 0.0
C971 C 0.31907 0.25594 0.20179 0.0
C972 C 0.27841 0.23251 0.23573 0.0
C973 C 0.31797 0.25766 0.23478 0.0
C974 C 0.26058 0.21651 0.28731 0.0
C975 C 0.23801 0.17419 0.25584 0.0
N976 N 0.29814 0.2457 0.25074 0.0
N977 N 0.24942 0.19415 0.23953 0.0
H978 H 0.75559 0.29185 0.16341 0.0
H979 H 0.79605 0.25927 0.33997 0.0
H980 H 0.72999 0.33626 0.24476 0.0
H981 H 0.82967 0.22218 0.25764 0.0
H982 H 0.76144 0.27832 0.30666 0.0
H983 H 0.7722 0.25742 0.19859 0.0
C984 C 0.75301 0.29408 0.18866 0.0
C985 C 0.74212 0.31718 0.20132 0.0
C986 C 0.77607 0.26556 0.29599 0.0
C987 C 0.76122 0.27819 0.24159 0.0
C988 C 0.7957 0.25463 0.315 0.0
C989 C 0.81596 0.23979 0.30125 0.0
C990 C 0.77693 0.26156 0.26314 0.0
C991 C 0.81468 0.23416 0.26889 0.0
C992 C 0.76254 0.27449 0.20873 0.0
C993 C 0.73906 0.31906 0.23416 0.0
N994 N 0.79574 0.24543 0.25079 0.0
N995 N 0.74897 0.30002 0.25322 0.0
H996 H 0.73659 0.79731 0.33755 0.0
H997 H 0.69293 0.75092 0.16607 0.0
H998 H 0.76021 0.83508 0.2508 0.0
H999 H 0.65807 0.72229 0.25248 0.0
H1000 H 0.72722 0.77271 0.19692 0.0
H1001 H 0.71736 0.7612 0.30679 0.0
C1002 C 0.73815 0.7977 0.31204 0.0
C1003 C 0.74939 0.81937 0.29654 0.0
C1004 C 0.71231 0.76131 0.20911 0.0
C1005 C 0.72748 0.77848 0.2614 0.0
C1006 C 0.69282 0.74875 0.19151 0.0
C1007 C 0.67234 0.73531 0.20685 0.0
C1008 C 0.71117 0.7605 0.24222 0.0
C1009 C 0.67314 0.73311 0.23984 0.0
C1010 C 0.72713 0.77719 0.29452 0.0
C1011 C 0.75106 0.81899 0.26353 0.0
N1012 N 0.69203 0.74596 0.25651 0.0
N1013 N 0.73989 0.79902 0.247 0.0
H1014 H 0.15841 0.76929 0.24355 0.0
H1015 H 0.26664 0.6587 0.25083 0.0
H1016 H 0.19295 0.74146 0.33043 0.0
H1017 H 0.24051 0.69484 0.16413 0.0
H1018 H 0.24627 0.69462 0.28052 0.0
H1019 H 0.19425 0.74852 0.21416 0.0
C1020 C 0.17381 0.75909 0.25641 0.0
C1021 C 0.17253 0.7565 0.2893 0.0
C1022 C 0.24539 0.69501 0.25498 0.0
C1023 C 0.21335 0.73253 0.25601 0.0
C1024 C 0.2569 0.67446 0.23809 0.0
C1025 C 0.25465 0.67361 0.20513 0.0
C1026 C 0.23117 0.71454 0.23875 0.0
C1027 C 0.24242 0.69471 0.18959 0.0
C1028 C 0.19433 0.74735 0.23969 0.0
C1029 C 0.19318 0.74366 0.305 0.0
N1030 N 0.23063 0.71409 0.2066 0.0
N1031 N 0.2125 0.73165 0.28814 0.0
H1032 H 0.28883 0.75178 0.83805 0.0
H1033 H 0.24736 0.78926 0.66435 0.0
H1034 H 0.32452 0.71963 0.75395 0.0
H1035 H 0.21504 0.82493 0.74836 0.0
H1036 H 0.26575 0.75387 0.69673 0.0
H1037 H 0.25235 0.76842 0.80603 0.0
C1038 C 0.28866 0.74772 0.81293 0.0
C1039 C 0.31001 0.73508 0.79838 0.0
C1040 C 0.25418 0.76915 0.70804 0.0
C1041 C 0.26875 0.75428 0.76166 0.0
C1042 C 0.24361 0.78927 0.68953 0.0
C1043 C 0.23042 0.81037 0.70392 0.0
C1044 C 0.25164 0.77038 0.74106 0.0
C1045 C 0.2259 0.8094 0.73656 0.0
C1046 C 0.2679 0.75727 0.79464 0.0
C1047 C 0.30878 0.73011 0.76585 0.0
N1048 N 0.23695 0.79001 0.75415 0.0
N1049 N 0.28874 0.74017 0.74844 0.0
H1050 H 0.28188 0.31209 0.77191 0.0
H1051 H 0.15637 0.22006 0.76429 0.0
H1052 H 0.22868 0.29824 0.84967 0.0
H1053 H 0.20428 0.24092 0.68392 0.0
H1054 H 0.19051 0.23739 0.79927 0.0
H1055 H 0.26187 0.2752 0.74357 0.0
C1056 C 0.26629 0.30095 0.78322 0.0
C1057 C 0.25638 0.30862 0.81275 0.0
C1058 C 0.1938 0.23774 0.77401 0.0
C1059 C 0.2334 0.26661 0.78055 0.0
C1060 C 0.17428 0.22798 0.75407 0.0
C1061 C 0.17727 0.22982 0.72123 0.0
C1062 C 0.21626 0.24968 0.76094 0.0
C1063 C 0.20111 0.23946 0.70913 0.0
C1064 C 0.25495 0.27987 0.76711 0.0
C1065 C 0.23671 0.29314 0.82679 0.0
N1066 N 0.21951 0.24957 0.72901 0.0
N1067 N 0.22546 0.27318 0.81025 0.0
H1068 H 0.66119 0.27057 0.7389 0.0
H1069 H 0.78392 0.17459 0.74201 0.0
H1070 H 0.70006 0.24376 0.82366 0.0
H1071 H 0.74127 0.19598 0.65771 0.0
H1072 H 0.76173 0.21016 0.77044 0.0
H1073 H 0.69796 0.25358 0.70768 0.0
C1074 C 0.67763 0.26133 0.75093 0.0
C1075 C 0.67731 0.25786 0.78378 0.0
C1076 C 0.75761 0.20745 0.74556 0.0
C1077 C 0.71937 0.23852 0.74835 0.0
C1078 C 0.77023 0.18716 0.72939 0.0
C1079 C 0.76382 0.18202 0.69778 0.0
C1080 C 0.73821 0.22239 0.73006 0.0
C1081 C 0.7465 0.19917 0.6822 0.0
C1082 C 0.69867 0.25181 0.73315 0.0
C1083 C 0.69942 0.24656 0.79833 0.0
N1084 N 0.73381 0.21828 0.69871 0.0
N1085 N 0.71936 0.23683 0.78045 0.0
H1086 H 0.71145 0.65741 0.73295 0.0
H1087 H 0.81383 0.77336 0.73048 0.0
H1088 H 0.73688 0.7004 0.81541 0.0
H1089 H 0.7887 0.73059 0.64779 0.0
H1090 H 0.77604 0.75589 0.75938 0.0
H1091 H 0.72932 0.69234 0.69956 0.0
C1092 C 0.72043 0.67446 0.74399 0.0
C1093 C 0.72347 0.67575 0.77685 0.0
C1094 C 0.77841 0.75072 0.73473 0.0
C1095 C 0.74407 0.71557 0.73899 0.0
C1096 C 0.8 0.76062 0.71832 0.0
C1097 C 0.80462 0.75274 0.6871 0.0
C1098 C 0.76171 0.7324 0.71992 0.0
C1099 C 0.78593 0.73678 0.67203 0.0
C1100 C 0.73051 0.69445 0.72497 0.0
C1101 C 0.7345 0.69853 0.7901 0.0
N1102 N 0.76555 0.7266 0.68884 0.0
N1103 N 0.74497 0.71731 0.77107 0.0
H1104 H 0.30408 0.00919 0.41783 0.0
H1105 H 0.2567 -0.00327 0.59575 0.0
H1106 H 0.25792 0.06692 0.46788 0.0
H1107 H 0.29876 0.93505 0.54731 0.0
H1108 H 0.26749 0.02716 0.55307 0.0
H1109 H 0.31247 0.98623 0.46807 0.0
C1110 C 0.29637 0.01734 0.43958 0.0
C1111 C 0.27997 0.03958 0.43899 0.0
C1112 C 0.2748 0.00711 0.55183 0.0
C1113 C 0.28919 0.01373 0.49598 0.0
C1114 C 0.26864 0.98984 0.57621 0.0
C1115 C 0.27658 0.96346 0.57458 0.0
C1116 C 0.28843 -0.00228 0.52521 0.0
C1117 C 0.29226 0.95533 0.54913 0.0
C1118 C 0.30101 0.00426 0.46814 0.0
C1119 C 0.27029 0.04951 0.46754 0.0
N1120 N 0.29722 0.97229 0.52496 0.0
N1121 N 0.27478 0.03636 0.49482 0.0
H1122 H 0.00268 0.26197 0.40633 0.0
H1123 H 0.02376 0.30838 0.58331 0.0
H1124 H 0.94358 0.30371 0.45956 0.0
H1125 H 0.07892 0.26224 0.52924 0.0
H1126 H -0.00121 0.31741 0.5347 0.0
H1127 H 0.03526 0.27263 0.44675 0.0
C1128 C -0.00322 0.27376 0.42646 0.0
C1129 C 0.97051 0.28163 0.43011 0.0
C1130 C 0.01672 0.30586 0.53335 0.0
C1131 C 0.00732 0.29343 0.47684 0.0
C1132 C 0.03099 0.30089 0.56098 0.0
C1133 C 0.05307 0.28427 0.56002 0.0
C1134 C 0.0248 0.29413 0.50485 0.0
C1135 C 0.06171 0.27482 0.53078 0.0
C1136 C 0.0153 0.27988 0.44952 0.0
C1137 C 0.96372 0.29722 0.4562 0.0
N1138 N 0.04738 0.27959 0.50441 0.0
N1139 N 0.98193 0.30216 0.47905 0.0
H1140 H 0.68584 0.98332 0.42581 0.0
H1141 H 0.73079 0.9936 0.60502 0.0
H1142 H 0.73402 0.92676 0.47504 0.0
H1143 H 0.69368 0.05741 0.55489 0.0
H1144 H 0.71926 0.96364 0.56204 0.0
H1145 H 0.67666 0.00549 0.47639 0.0
C1146 C 0.69388 0.97526 0.44744 0.0
C1147 C 0.71103 0.9536 0.44654 0.0
C1148 C 0.71312 0.98407 0.56057 0.0
C1149 C 0.70076 0.97848 0.50391 0.0
C1150 C 0.71963 0.00105 0.58513 0.0
C1151 C 0.71345 0.02787 0.58303 0.0
C1152 C 0.70092 0.99418 0.53336 0.0
C1153 C 0.6988 0.03677 0.55709 0.0
C1154 C 0.68875 0.98788 0.47617 0.0
C1155 C 0.72108 0.94376 0.47493 0.0
N1156 N 0.69353 0.02005 0.53277 0.0
N1157 N 0.71603 0.95642 0.50242 0.0
H1158 H 0.93189 0.68333 0.53869 0.0
H1159 H 0.06713 0.72905 0.46461 0.0
H1160 H 0.99482 0.72055 0.59037 0.0
H1161 H 0.00766 0.6881 0.41119 0.0
H1162 H 0.04489 0.71649 0.51341 0.0
H1163 H 0.96252 0.67511 0.49479 0.0
C1164 C 0.95239 0.68897 0.5411 0.0
C1165 C 0.96093 0.70299 0.56771 0.0
C1166 C 0.0368 0.70978 0.49115 0.0
C1167 C 0.99577 0.69413 0.51793 0.0
C1168 C 0.04952 0.71699 0.4634 0.0
C1169 C 0.03888 0.70984 0.43418 0.0
C1170 C 0.0128 0.69597 0.48959 0.0
C1171 C 0.01626 0.694 0.43349 0.0
C1172 C 0.96981 0.68446 0.51606 0.0
C1173 C 0.98753 0.71008 0.56987 0.0
N1174 N 0.00354 0.68805 0.46087 0.0
N1175 N 0.00392 0.70593 0.54511 0.0
H1176 H 0.80476 0.51653 0.90278 0.0
H1177 H 0.76809 0.49683 0.08328 0.0
H1178 H 0.76204 0.57212 0.96013 0.0
H1179 H 0.80452 0.43633 0.0269 0.0
H1180 H 0.77749 0.52905 0.04201 0.0
H1181 H 0.81608 0.49146 0.95067 0.0
C1182 C 0.7985 0.52381 0.92562 0.0
C1183 C 0.7822 0.54606 0.92781 0.0
C1184 C 0.7839 0.50886 0.0387 0.0
C1185 C 0.79471 0.51776 0.98218 0.0
C1186 C 0.77856 0.49058 0.06227 0.0
C1187 C 0.78528 0.46407 0.05802 0.0
C1188 C 0.7954 0.50039 0.01027 0.0
C1189 C 0.79901 0.45671 0.03072 0.0
C1190 C 0.80479 0.50951 0.95285 0.0
C1191 C 0.77435 0.55479 0.95768 0.0
N1192 N 0.80313 0.47471 0.0074 0.0
N1193 N 0.7804 0.54045 0.98366 0.0
H1194 H 0.43414 0.80508 0.95447 0.0
H1195 H 0.57115 0.76589 0.03189 0.0
H1196 H 0.49663 0.76266 0.90799 0.0
H1197 H 0.50718 0.80008 0.08461 0.0
H1198 H 0.54858 0.77704 0.98275 0.0
H1199 H 0.46436 0.8151 -0.00164 0.0
C1200 C 0.45445 0.79856 0.95321 0.0
C1201 C 0.463 0.78272 0.92809 0.0
C1202 C 0.53958 0.78264 0.00495 0.0
C1203 C 0.49738 0.79385 0.97769 0.0
C1204 C 0.55253 0.77636 0.03287 0.0
C1205 C 0.54073 0.78191 0.06195 0.0
C1206 C 0.51427 0.79388 0.00621 0.0
C1207 C 0.51671 0.79553 0.0624 0.0
C1208 C 0.47161 0.80413 0.9782 0.0
C1209 C 0.48934 0.77456 0.92734 0.0
N1210 N 0.50387 0.80056 0.03483 0.0
N1211 N 0.50551 0.77996 0.95195 0.0
H1212 H 0.22527 0.56943 0.02819 0.0
H1213 H 0.18523 0.43258 0.95495 0.0
H1214 H 0.18602 0.50894 0.0817 0.0
H1215 H 0.21791 0.49735 0.90223 0.0
H1216 H 0.17534 0.46295 -0.00142 0.0
H1217 H 0.21306 0.54691 0.9794 0.0
C1218 C 0.21362 0.55155 0.02942 0.0
C1219 C 0.20687 0.54071 0.05866 0.0
C1220 C 0.18399 0.47068 0.97712 0.0
C1221 C 0.19344 0.51431 0.00327 0.0
C1222 C 0.18943 0.45339 0.95222 0.0
C1223 C 0.20275 0.46258 0.92541 0.0
C1224 C 0.19208 0.49716 0.97496 0.0
C1225 C 0.208 0.48959 0.92287 0.0
C1226 C 0.20662 0.53867 0.00168 0.0
C1227 C 0.19159 0.51771 0.05939 0.0
N1228 N 0.20307 0.50586 0.94755 0.0
N1229 N 0.18587 0.50485 0.03203 0.0
H1230 H 0.55682 0.18743 0.94538 0.0
H1231 H 0.42329 0.23172 0.02703 0.0
H1232 H 0.4949 0.23179 0.90054 0.0
H1233 H 0.48494 0.19071 0.07669 0.0
H1234 H 0.44465 0.22109 0.977 0.0
H1235 H 0.52692 0.17799 0.9898 0.0
C1236 C 0.53666 0.19446 0.94459 0.0
C1237 C 0.5282 0.21067 0.91982 0.0
C1238 C 0.45342 0.21397 -0.0013 0.0
C1239 C 0.49423 0.20031 0.96999 0.0
C1240 C 0.44118 0.22003 0.02714 0.0
C1241 C 0.45269 0.21233 0.05566 0.0
C1242 C 0.47778 0.20074 -0.00112 0.0
C1243 C 0.47567 0.19701 0.05494 0.0
C1244 C 0.51968 0.18923 0.96988 0.0
C1245 C 0.50208 0.21953 0.91962 0.0
N1246 N 0.48789 0.19218 0.02692 0.0
N1247 N 0.48612 0.21451 0.94451 0.0
loop_
_geom_bond_atom_site_label_1
_geom_bond_atom_site_label_2
_geom_bond_distance
_geom_bond_site_symmetry_2
_ccdc_geom_bond_type
C0 C1 1.351 . S
C0 N3 1.368 . S
C0 H5 0.931 . S
C1 C0 1.351 . S
C1 N2 1.373 . S
C1 H29 0.930 . S
N2 C1 1.373 . S
N2 C4 1.340 . S
N3 C0 1.368 . S
N3 C4 1.321 . S
N3 Co6 2.135 . S
C4 N2 1.340 . S
C4 N3 1.321 . S
C4 H28 0.930 . S
H5 C0 0.931 . S
Co6 N3 2.135 . S
Co6 N9 2.121 . S
Co6 O14 2.055 . S
Co6 O17 2.039 . S
Co6 N20 2.140 . S
C7 O8 1.227 . S
C7 O17 1.265 . S
O8 C7 1.227 . S
N9 Co6 2.121 . S
N9 C11 1.375 . S
N9 C12 1.313 . S
C10 C11 1.338 . S
C10 N13 1.377 . S
C10 H30 0.930 . S
C11 N9 1.375 . S
C11 C10 1.338 . S
C11 H15 0.931 . S
C12 N9 1.313 . S
C12 N13 1.344 . S
C12 H16 0.930 . S
N13 C10 1.377 . S
N13 C12 1.344 . S
O14 Co6 2.055 . S
O14 C18 1.253 . S
H15 C11 0.931 . S
H16 C12 0.930 . S
O17 Co6 2.039 . S
O17 C7 1.265 . S
C18 O14 1.253 . S
C18 O19 1.227 . S
O19 C18 1.227 . S
N20 Co6 2.140 . S
N20 C23 1.346 . S
N20 C24 1.345 . S
C21 C22 1.387 . S
C21 C25 1.391 . S
C22 C21 1.387 . S
C22 C23 1.369 . S
C22 H31 0.929 . S
C23 N20 1.346 . S
C23 C22 1.369 . S
C23 H26 0.928 . S
C24 N20 1.345 . S
C24 C25 1.371 . S
C24 H27 0.931 . S
C25 C21 1.391 . S
C25 C24 1.371 . S
C25 H32 0.930 . S
H26 C23 0.928 . S
H27 C24 0.931 . S
H28 C4 0.930 . S
H29 C1 0.930 . S
H30 C10 0.930 . S
H31 C22 0.929 . S
H32 C25 0.930 . S
C33 C34 1.351 . S
C33 N36 1.368 . S
C33 H38 0.931 . S
C34 C33 1.351 . S
C34 N35 1.373 . S
C34 H62 0.930 . S
N35 C34 1.373 . S
N35 C37 1.340 . S
N36 C33 1.368 . S
N36 C37 1.321 . S
N36 Co39 2.135 . S
C37 N35 1.340 . S
C37 N36 1.321 . S
C37 H61 0.930 . S
H38 C33 0.931 . S
Co39 N36 2.135 . S
Co39 N42 2.121 . S
Co39 O47 2.055 . S
Co39 O50 2.039 . S
Co39 N53 2.140 . S
C40 O41 1.227 . S
C40 O50 1.265 . S
O41 C40 1.227 . S
N42 Co39 2.121 . S
N42 C44 1.375 . S
N42 C45 1.313 . S
C43 C44 1.338 . S
C43 N46 1.377 . S
C43 H63 0.930 . S
C44 N42 1.375 . S
C44 C43 1.338 . S
C44 H48 0.931 . S
C45 N42 1.313 . S
C45 N46 1.344 . S
C45 H49 0.930 . S
N46 C43 1.377 . S
N46 C45 1.344 . S
O47 Co39 2.055 . S
O47 C51 1.253 . S
H48 C44 0.931 . S
H49 C45 0.930 . S
O50 Co39 2.039 . S
O50 C40 1.265 . S
C51 O47 1.253 . S
C51 O52 1.227 . S
O52 C51 1.227 . S
N53 Co39 2.140 . S
N53 C56 1.346 . S
N53 C57 1.345 . S
C54 C55 1.387 . S
C54 C58 1.391 . S
C55 C54 1.387 . S
C55 C56 1.369 . S
C55 H64 0.929 . S
C56 N53 1.346 . S
C56 C55 1.369 . S
C56 H59 0.928 . S
C57 N53 1.345 . S
C57 C58 1.371 . S
C57 H60 0.931 . S
C58 C54 1.391 . S
C58 C57 1.371 . S
C58 H65 0.930 . S
H59 C56 0.928 . S
H60 C57 0.931 . S
H61 C37 0.930 . S
H62 C34 0.930 . S
H63 C43 0.930 . S
H64 C55 0.929 . S
H65 C58 0.930 . S
C66 C67 1.351 . S
C66 N69 1.368 . S
C66 H71 0.931 . S
C67 C66 1.351 . S
C67 N68 1.373 . S
C67 H95 0.930 . S
N68 C67 1.373 . S
N68 C70 1.340 . S
N69 C66 1.368 . S
N69 C70 1.321 . S
N69 Co72 2.135 . S
C70 N68 1.340 . S
C70 N69 1.321 . S
C70 H94 0.930 . S
H71 C66 0.931 . S
Co72 N69 2.135 . S
Co72 N75 2.121 . S
Co72 O80 2.055 . S
Co72 O83 2.039 . S
Co72 N86 2.140 . S
C73 O74 1.227 . S
C73 O83 1.265 . S
O74 C73 1.227 . S
N75 Co72 2.121 . S
N75 C77 1.375 . S
N75 C78 1.313 . S
C76 C77 1.338 . S
C76 N79 1.377 . S
C76 H96 0.930 . S
C77 N75 1.375 . S
C77 C76 1.338 . S
C77 H81 0.931 . S
C78 N75 1.313 . S
C78 N79 1.344 . S
C78 H82 0.930 . S
N79 C76 1.377 . S
N79 C78 1.344 . S
O80 Co72 2.055 . S
O80 C84 1.253 . S
H81 C77 0.931 . S
H82 C78 0.930 . S
O83 Co72 2.039 . S
O83 C73 1.265 . S
C84 O80 1.253 . S
C84 O85 1.227 . S
O85 C84 1.227 . S
N86 Co72 2.140 . S
N86 C89 1.346 . S
N86 C90 1.345 . S
C87 C88 1.387 . S
C87 C91 1.391 . S
C88 C87 1.387 . S
C88 C89 1.369 . S
C88 H97 0.929 . S
C89 N86 1.346 . S
C89 C88 1.369 . S
C89 H92 0.928 . S
C90 N86 1.345 . S
C90 C91 1.371 . S
C90 H93 0.931 . S
C91 C87 1.391 . S
C91 C90 1.371 . S
C91 H98 0.930 . S
H92 C89 0.928 . S
H93 C90 0.931 . S
H94 C70 0.930 . S
H95 C67 0.930 . S
H96 C76 0.930 . S
H97 C88 0.929 . S
H98 C91 0.930 . S
C99 C100 1.351 . S
C99 N102 1.368 . S
C99 H104 0.931 . S
C100 C99 1.351 . S
C100 N101 1.373 . S
C100 H128 0.930 . S
N101 C100 1.373 . S
N101 C103 1.340 . S
N102 C99 1.368 . S
N102 C103 1.321 . S
N102 Co105 2.135 . S
C103 N101 1.340 . S
C103 N102 1.321 . S
C103 H127 0.930 . S
H104 C99 0.931 . S
Co105 N102 2.135 . S
Co105 N108 2.121 . S
Co105 O113 2.055 . S
Co105 O116 2.039 . S
Co105 N119 2.140 . S
C106 O107 1.227 . S
C106 O116 1.265 . S
O107 C106 1.227 . S
N108 Co105 2.121 . S
N108 C110 1.375 . S
N108 C111 1.313 . S
C109 C110 1.338 . S
C109 N112 1.377 . S
C109 H129 0.930 . S
C110 N108 1.375 . S
C110 C109 1.338 . S
C110 H114 0.931 . S
C111 N108 1.313 . S
C111 N112 1.344 . S
C111 H115 0.930 . S
N112 C109 1.377 . S
N112 C111 1.344 . S
O113 Co105 2.055 . S
O113 C117 1.253 . S
H114 C110 0.931 . S
H115 C111 0.930 . S
O116 Co105 2.039 . S
O116 C106 1.265 . S
C117 O113 1.253 . S
C117 O118 1.227 . S
O118 C117 1.227 . S
N119 Co105 2.140 . S
N119 C122 1.346 . S
N119 C123 1.345 . S
C120 C121 1.387 . S
C120 C124 1.391 . S
C121 C120 1.387 . S
C121 C122 1.369 . S
C121 H130 0.929 . S
C122 N119 1.346 . S
C122 C121 1.369 . S
C122 H125 0.928 . S
C123 N119 1.345 . S
C123 C124 1.371 . S
C123 H126 0.931 . S
C124 C120 1.391 . S
C124 C123 1.371 . S
C124 H131 0.930 . S
H125 C122 0.928 . S
H126 C123 0.931 . S
H127 C103 0.930 . S
H128 C100 0.930 . S
H129 C109 0.930 . S
H130 C121 0.929 . S
H131 C124 0.930 . S
C132 C133 1.351 . S
C132 N135 1.368 . S
C132 H137 0.931 . S
C133 C132 1.351 . S
C133 N134 1.373 . S
C133 H161 0.930 . S
N134 C133 1.373 . S
N134 C136 1.340 . S
N135 C132 1.368 . S
N135 C136 1.321 . S
N135 Co138 2.135 . S
C136 N134 1.340 . S
C136 N135 1.321 . S
C136 H160 0.930 . S
H137 C132 0.931 . S
Co138 N135 2.135 . S
Co138 N141 2.121 . S
Co138 O146 2.055 . S
Co138 O149 2.039 . S
Co138 N152 2.140 . S
C139 O140 1.227 . S
C139 O149 1.265 . S
O140 C139 1.227 . S
N141 Co138 2.121 . S
N141 C143 1.375 . S
N141 C144 1.313 . S
C142 C143 1.338 . S
C142 N145 1.377 . S
C142 H162 0.930 . S
C143 N141 1.375 . S
C143 C142 1.338 . S
C143 H147 0.931 . S
C144 N141 1.313 . S
C144 N145 1.344 . S
C144 H148 0.930 . S
N145 C142 1.377 . S
N145 C144 1.344 . S
O146 Co138 2.055 . S
O146 C150 1.253 . S
H147 C143 0.931 . S
H148 C144 0.930 . S
O149 Co138 2.039 . S
O149 C139 1.265 . S
C150 O146 1.253 . S
C150 O151 1.227 . S
O151 C150 1.227 . S
N152 Co138 2.140 . S
N152 C155 1.346 . S
N152 C156 1.345 . S
C153 C154 1.387 . S
C153 C157 1.391 . S
C154 C153 1.387 . S
C154 C155 1.369 . S
C154 H163 0.929 . S
C155 N152 1.346 . S
C155 C154 1.369 . S
C155 H158 0.928 . S
C156 N152 1.345 . S
C156 C157 1.371 . S
C156 H159 0.931 . S
C157 C153 1.391 . S
C157 C156 1.371 . S
C157 H164 0.930 . S
H158 C155 0.928 . S
H159 C156 0.931 . S
H160 C136 0.930 . S
H161 C133 0.930 . S
H162 C142 0.930 . S
H163 C154 0.929 . S
H164 C157 0.930 . S
C165 C166 1.351 . S
C165 N168 1.368 . S
C165 H170 0.931 . S
C166 C165 1.351 . S
C166 N167 1.373 . S
C166 H194 0.930 . S
N167 C166 1.373 . S
N167 C169 1.340 . S
N168 C165 1.368 . S
N168 C169 1.321 . S
N168 Co171 2.135 . S
C169 N167 1.340 . S
C169 N168 1.321 . S
C169 H193 0.930 . S
H170 C165 0.931 . S
Co171 N168 2.135 . S
Co171 N174 2.121 . S
Co171 O179 2.055 . S
Co171 O182 2.039 . S
Co171 N185 2.140 . S
C172 O173 1.227 . S
C172 O182 1.265 . S
O173 C172 1.227 . S
N174 Co171 2.121 . S
N174 C176 1.375 . S
N174 C177 1.313 . S
C175 C176 1.338 . S
C175 N178 1.377 . S
C175 H195 0.930 . S
C176 N174 1.375 . S
C176 C175 1.338 . S
C176 H180 0.931 . S
C177 N174 1.313 . S
C177 N178 1.344 . S
C177 H181 0.930 . S
N178 C175 1.377 . S
N178 C177 1.344 . S
O179 Co171 2.055 . S
O179 C183 1.253 . S
H180 C176 0.931 . S
H181 C177 0.930 . S
O182 Co171 2.039 . S
O182 C172 1.265 . S
C183 O179 1.253 . S
C183 O184 1.227 . S
O184 C183 1.227 . S
N185 Co171 2.140 . S
N185 C188 1.346 . S
N185 C189 1.345 . S
C186 C187 1.387 . S
C186 C190 1.391 . S
C187 C186 1.387 . S
C187 C188 1.369 . S
C187 H196 0.929 . S
C188 N185 1.346 . S
C188 C187 1.369 . S
C188 H191 0.928 . S
C189 N185 1.345 . S
C189 C190 1.371 . S
C189 H192 0.931 . S
C190 C186 1.391 . S
C190 C189 1.371 . S
C190 H197 0.930 . S
H191 C188 0.928 . S
H192 C189 0.931 . S
H193 C169 0.930 . S
H194 C166 0.930 . S
H195 C175 0.930 . S
H196 C187 0.929 . S
H197 C190 0.930 . S
C198 C199 1.351 . S
C198 N201 1.368 . S
C198 H203 0.931 . S
C199 C198 1.351 . S
C199 N200 1.373 . S
C199 H227 0.930 . S
N200 C199 1.373 . S
N200 C202 1.340 . S
N201 C198 1.368 . S
N201 C202 1.321 . S
N201 Co204 2.135 . S
C202 N200 1.340 . S
C202 N201 1.321 . S
C202 H226 0.930 . S
H203 C198 0.931 . S
Co204 N201 2.135 . S
Co204 N207 2.121 . S
Co204 O212 2.055 . S
Co204 O215 2.039 . S
Co204 N218 2.140 . S
C205 O206 1.227 . S
C205 O215 1.265 . S
O206 C205 1.227 . S
N207 Co204 2.121 . S
N207 C209 1.375 . S
N207 C210 1.313 . S
C208 C209 1.338 . S
C208 N211 1.377 . S
C208 H228 0.930 . S
C209 N207 1.375 . S
C209 C208 1.338 . S
C209 H213 0.931 . S
C210 N207 1.313 . S
C210 N211 1.344 . S
C210 H214 0.930 . S
N211 C208 1.377 . S
N211 C210 1.344 . S
O212 Co204 2.055 . S
O212 C216 1.253 . S
H213 C209 0.931 . S
H214 C210 0.930 . S
O215 Co204 2.039 . S
O215 C205 1.265 . S
C216 O212 1.253 . S
C216 O217 1.227 . S
O217 C216 1.227 . S
N218 Co204 2.140 . S
N218 C221 1.346 . S
N218 C222 1.345 . S
C219 C220 1.387 . S
C219 C223 1.391 . S
C220 C219 1.387 . S
C220 C221 1.369 . S
C220 H229 0.929 . S
C221 N218 1.346 . S
C221 C220 1.369 . S
C221 H224 0.928 . S
C222 N218 1.345 . S
C222 C223 1.371 . S
C222 H225 0.931 . S
C223 C219 1.391 . S
C223 C222 1.371 . S
C223 H230 0.930 . S
H224 C221 0.928 . S
H225 C222 0.931 . S
H226 C202 0.930 . S
H227 C199 0.930 . S
H228 C208 0.930 . S
H229 C220 0.929 . S
H230 C223 0.930 . S
C231 C232 1.351 . S
C231 N234 1.368 . S
C231 H236 0.931 . S
C232 C231 1.351 . S
C232 N233 1.373 . S
C232 H260 0.930 . S
N233 C232 1.373 . S
N233 C235 1.340 . S
N234 C231 1.368 . S
N234 C235 1.321 . S
N234 Co237 2.135 . S
C235 N233 1.340 . S
C235 N234 1.321 . S
C235 H259 0.930 . S
H236 C231 0.931 . S
Co237 N234 2.135 . S
Co237 N240 2.121 . S
Co237 O245 2.055 . S
Co237 O248 2.039 . S
Co237 N251 2.140 . S
C238 O239 1.227 . S
C238 O248 1.265 . S
O239 C238 1.227 . S
N240 Co237 2.121 . S
N240 C242 1.375 . S
N240 C243 1.313 . S
C241 C242 1.338 . S
C241 N244 1.377 . S
C241 H261 0.930 . S
C242 N240 1.375 . S
C242 C241 1.338 . S
C242 H246 0.931 . S
C243 N240 1.313 . S
C243 N244 1.344 . S
C243 H247 0.930 . S
N244 C241 1.377 . S
N244 C243 1.344 . S
O245 Co237 2.055 . S
O245 C249 1.253 . S
H246 C242 0.931 . S
H247 C243 0.930 . S
O248 Co237 2.039 . S
O248 C238 1.265 . S
C249 O245 1.253 . S
C249 O250 1.227 . S
O250 C249 1.227 . S
N251 Co237 2.140 . S
N251 C254 1.346 . S
N251 C255 1.345 . S
C252 C253 1.387 . S
C252 C256 1.391 . S
C253 C252 1.387 . S
C253 C254 1.369 . S
C253 H262 0.929 . S
C254 N251 1.346 . S
C254 C253 1.369 . S
C254 H257 0.928 . S
C255 N251 1.345 . S
C255 C256 1.371 . S
C255 H258 0.931 . S
C256 C252 1.391 . S
C256 C255 1.371 . S
C256 H263 0.930 . S
H257 C254 0.928 . S
H258 C255 0.931 . S
H259 C235 0.930 . S
H260 C232 0.930 . S
H261 C241 0.930 . S
H262 C253 0.929 . S
H263 C256 0.930 . S
C264 C265 1.351 . S
C264 N267 1.368 . S
C264 H269 0.931 . S
C265 C264 1.351 . S
C265 N266 1.373 . S
C265 H293 0.930 . S
N266 C265 1.373 . S
N266 C268 1.340 . S
N267 C264 1.368 . S
N267 C268 1.321 . S
N267 Co270 2.135 . S
C268 N266 1.340 . S
C268 N267 1.321 . S
C268 H292 0.930 . S
H269 C264 0.931 . S
Co270 N267 2.135 . S
Co270 N273 2.121 . S
Co270 O278 2.055 . S
Co270 O281 2.039 . S
Co270 N284 2.140 . S
C271 O272 1.227 . S
C271 O281 1.265 . S
O272 C271 1.227 . S
N273 Co270 2.121 . S
N273 C275 1.375 . S
N273 C276 1.313 . S
C274 C275 1.338 . S
C274 N277 1.377 . S
C274 H294 0.930 . S
C275 N273 1.375 . S
C275 C274 1.338 . S
C275 H279 0.931 . S
C276 N273 1.313 . S
C276 N277 1.344 . S
C276 H280 0.930 . S
N277 C274 1.377 . S
N277 C276 1.344 . S
O278 Co270 2.055 . S
O278 C282 1.253 . S
H279 C275 0.931 . S
H280 C276 0.930 . S
O281 Co270 2.039 . S
O281 C271 1.265 . S
C282 O278 1.253 . S
C282 O283 1.227 . S
O283 C282 1.227 . S
N284 Co270 2.140 . S
N284 C287 1.346 . S
N284 C288 1.345 . S
C285 C286 1.387 . S
C285 C289 1.391 . S
C286 C285 1.387 . S
C286 C287 1.369 . S
C286 H295 0.929 . S
C287 N284 1.346 . S
C287 C286 1.369 . S
C287 H290 0.928 . S
C288 N284 1.345 . S
C288 C289 1.371 . S
C288 H291 0.931 . S
C289 C285 1.391 . S
C289 C288 1.371 . S
C289 H296 0.930 . S
H290 C287 0.928 . S
H291 C288 0.931 . S
H292 C268 0.930 . S
H293 C265 0.930 . S
H294 C274 0.930 . S
H295 C286 0.929 . S
H296 C289 0.930 . S
C297 C298 1.351 . S
C297 N300 1.368 . S
C297 H302 0.931 . S
C298 C297 1.351 . S
C298 N299 1.373 . S
C298 H326 0.930 . S
N299 C298 1.373 . S
N299 C301 1.340 . S
N300 C297 1.368 . S
N300 C301 1.321 . S
N300 Co303 2.135 . S
C301 N299 1.340 . S
C301 N300 1.321 . S
C301 H325 0.930 . S
H302 C297 0.931 . S
Co303 N300 2.135 . S
Co303 N306 2.121 . S
Co303 O311 2.055 . S
Co303 O314 2.039 . S
Co303 N317 2.140 . S
C304 O305 1.227 . S
C304 O314 1.265 . S
O305 C304 1.227 . S
N306 Co303 2.121 . S
N306 C308 1.375 . S
N306 C309 1.313 . S
C307 C308 1.338 . S
C307 N310 1.377 . S
C307 H327 0.930 . S
C308 N306 1.375 . S
C308 C307 1.338 . S
C308 H312 0.931 . S
C309 N306 1.313 . S
C309 N310 1.344 . S
C309 H313 0.930 . S
N310 C307 1.377 . S
N310 C309 1.344 . S
O311 Co303 2.055 . S
O311 C315 1.253 . S
H312 C308 0.931 . S
H313 C309 0.930 . S
O314 Co303 2.039 . S
O314 C304 1.265 . S
C315 O311 1.253 . S
C315 O316 1.227 . S
O316 C315 1.227 . S
N317 Co303 2.140 . S
N317 C320 1.346 . S
N317 C321 1.345 . S
C318 C319 1.387 . S
C318 C322 1.391 . S
C319 C318 1.387 . S
C319 C320 1.369 . S
C319 H328 0.929 . S
C320 N317 1.346 . S
C320 C319 1.369 . S
C320 H323 0.928 . S
C321 N317 1.345 . S
C321 C322 1.371 . S
C321 H324 0.931 . S
C322 C318 1.391 . S
C322 C321 1.371 . S
C322 H329 0.930 . S
H323 C320 0.928 . S
H324 C321 0.931 . S
H325 C301 0.930 . S
H326 C298 0.930 . S
H327 C307 0.930 . S
H328 C319 0.929 . S
H329 C322 0.930 . S
C330 C331 1.351 . S
C330 N333 1.368 . S
C330 H335 0.931 . S
C331 C330 1.351 . S
C331 N332 1.373 . S
C331 H359 0.930 . S
N332 C331 1.373 . S
N332 C334 1.340 . S
N333 C330 1.368 . S
N333 C334 1.321 . S
N333 Co336 2.135 . S
C334 N332 1.340 . S
C334 N333 1.321 . S
C334 H358 0.930 . S
H335 C330 0.931 . S
Co336 N333 2.135 . S
Co336 N339 2.121 . S
Co336 O344 2.055 . S
Co336 O347 2.039 . S
Co336 N350 2.140 . S
C337 O338 1.227 . S
C337 O347 1.265 . S
O338 C337 1.227 . S
N339 Co336 2.121 . S
N339 C341 1.375 . S
N339 C342 1.313 . S
C340 C341 1.338 . S
C340 N343 1.377 . S
C340 H360 0.930 . S
C341 N339 1.375 . S
C341 C340 1.338 . S
C341 H345 0.931 . S
C342 N339 1.313 . S
C342 N343 1.344 . S
C342 H346 0.930 . S
N343 C340 1.377 . S
N343 C342 1.344 . S
O344 Co336 2.055 . S
O344 C348 1.253 . S
H345 C341 0.931 . S
H346 C342 0.930 . S
O347 Co336 2.039 . S
O347 C337 1.265 . S
C348 O344 1.253 . S
C348 O349 1.227 . S
O349 C348 1.227 . S
N350 Co336 2.140 . S
N350 C353 1.346 . S
N350 C354 1.345 . S
C351 C352 1.387 . S
C351 C355 1.391 . S
C352 C351 1.387 . S
C352 C353 1.369 . S
C352 H361 0.929 . S
C353 N350 1.346 . S
C353 C352 1.369 . S
C353 H356 0.928 . S
C354 N350 1.345 . S
C354 C355 1.371 . S
C354 H357 0.931 . S
C355 C351 1.391 . S
C355 C354 1.371 . S
C355 H362 0.930 . S
H356 C353 0.928 . S
H357 C354 0.931 . S
H358 C334 0.930 . S
H359 C331 0.930 . S
H360 C340 0.930 . S
H361 C352 0.929 . S
H362 C355 0.930 . S
C363 C364 1.351 . S
C363 N366 1.368 . S
C363 H368 0.931 . S
C364 C363 1.351 . S
C364 N365 1.373 . S
C364 H392 0.930 . S
N365 C364 1.373 . S
N365 C367 1.340 . S
N366 C363 1.368 . S
N366 C367 1.321 . S
N366 Co369 2.135 . S
C367 N365 1.340 . S
C367 N366 1.321 . S
C367 H391 0.930 . S
H368 C363 0.931 . S
Co369 N366 2.135 . S
Co369 N372 2.121 . S
Co369 O377 2.055 . S
Co369 O380 2.039 . S
Co369 N383 2.140 . S
C370 O371 1.227 . S
C370 O380 1.265 . S
O371 C370 1.227 . S
N372 Co369 2.121 . S
N372 C374 1.375 . S
N372 C375 1.313 . S
C373 C374 1.338 . S
C373 N376 1.377 . S
C373 H393 0.930 . S
C374 N372 1.375 . S
C374 C373 1.338 . S
C374 H378 0.931 . S
C375 N372 1.313 . S
C375 N376 1.344 . S
C375 H379 0.930 . S
N376 C373 1.377 . S
N376 C375 1.344 . S
O377 Co369 2.055 . S
O377 C381 1.253 . S
H378 C374 0.931 . S
H379 C375 0.930 . S
O380 Co369 2.039 . S
O380 C370 1.265 . S
C381 O377 1.253 . S
C381 O382 1.227 . S
O382 C381 1.227 . S
N383 Co369 2.140 . S
N383 C386 1.346 . S
N383 C387 1.345 . S
C384 C385 1.387 . S
C384 C388 1.391 . S
C385 C384 1.387 . S
C385 C386 1.369 . S
C385 H394 0.929 . S
C386 N383 1.346 . S
C386 C385 1.369 . S
C386 H389 0.928 . S
C387 N383 1.345 . S
C387 C388 1.371 . S
C387 H390 0.931 . S
C388 C384 1.391 . S
C388 C387 1.371 . S
C388 H395 0.930 . S
H389 C386 0.928 . S
H390 C387 0.931 . S
H391 C367 0.930 . S
H392 C364 0.930 . S
H393 C373 0.930 . S
H394 C385 0.929 . S
H395 C388 0.930 . S
C396 C397 1.351 . S
C396 N399 1.368 . S
C396 H401 0.931 . S
C397 C396 1.351 . S
C397 N398 1.373 . S
C397 H425 0.930 . S
N398 C397 1.373 . S
N398 C400 1.340 . S
N399 C396 1.368 . S
N399 C400 1.321 . S
N399 Co402 2.135 . S
C400 N398 1.340 . S
C400 N399 1.321 . S
C400 H424 0.930 . S
H401 C396 0.931 . S
Co402 N399 2.135 . S
Co402 N405 2.121 . S
Co402 O410 2.055 . S
Co402 O413 2.039 . S
Co402 N416 2.140 . S
C403 O404 1.227 . S
C403 O413 1.265 . S
O404 C403 1.227 . S
N405 Co402 2.121 . S
N405 C407 1.375 . S
N405 C408 1.313 . S
C406 C407 1.338 . S
C406 N409 1.377 . S
C406 H426 0.930 . S
C407 N405 1.375 . S
C407 C406 1.338 . S
C407 H411 0.931 . S
C408 N405 1.313 . S
C408 N409 1.344 . S
C408 H412 0.930 . S
N409 C406 1.377 . S
N409 C408 1.344 . S
O410 Co402 2.055 . S
O410 C414 1.253 . S
H411 C407 0.931 . S
H412 C408 0.930 . S
O413 Co402 2.039 . S
O413 C403 1.265 . S
C414 O410 1.253 . S
C414 O415 1.227 . S
O415 C414 1.227 . S
N416 Co402 2.140 . S
N416 C419 1.346 . S
N416 C420 1.345 . S
C417 C418 1.387 . S
C417 C421 1.391 . S
C418 C417 1.387 . S
C418 C419 1.369 . S
C418 H427 0.929 . S
C419 N416 1.346 . S
C419 C418 1.369 . S
C419 H422 0.928 . S
C420 N416 1.345 . S
C420 C421 1.371 . S
C420 H423 0.931 . S
C421 C417 1.391 . S
C421 C420 1.371 . S
C421 H428 0.930 . S
H422 C419 0.928 . S
H423 C420 0.931 . S
H424 C400 0.930 . S
H425 C397 0.930 . S
H426 C406 0.930 . S
H427 C418 0.929 . S
H428 C421 0.930 . S
C429 C430 1.351 . S
C429 N432 1.368 . S
C429 H434 0.931 . S
C430 C429 1.351 . S
C430 N431 1.373 . S
C430 H458 0.930 . S
N431 C430 1.373 . S
N431 C433 1.340 . S
N432 C429 1.368 . S
N432 C433 1.321 . S
N432 Co435 2.135 . S
C433 N431 1.340 . S
C433 N432 1.321 . S
C433 H457 0.930 . S
H434 C429 0.931 . S
Co435 N432 2.135 . S
Co435 N438 2.121 . S
Co435 O443 2.055 . S
Co435 O446 2.039 . S
Co435 N449 2.140 . S
C436 O437 1.227 . S
C436 O446 1.265 . S
O437 C436 1.227 . S
N438 Co435 2.121 . S
N438 C440 1.375 . S
N438 C441 1.313 . S
C439 C440 1.338 . S
C439 N442 1.377 . S
C439 H459 0.930 . S
C440 N438 1.375 . S
C440 C439 1.338 . S
C440 H444 0.931 . S
C441 N438 1.313 . S
C441 N442 1.344 . S
C441 H445 0.930 . S
N442 C439 1.377 . S
N442 C441 1.344 . S
O443 Co435 2.055 . S
O443 C447 1.253 . S
H444 C440 0.931 . S
H445 C441 0.930 . S
O446 Co435 2.039 . S
O446 C436 1.265 . S
C447 O443 1.253 . S
C447 O448 1.227 . S
O448 C447 1.227 . S
N449 Co435 2.140 . S
N449 C452 1.346 . S
N449 C453 1.345 . S
C450 C451 1.387 . S
C450 C454 1.391 . S
C451 C450 1.387 . S
C451 C452 1.369 . S
C451 H460 0.929 . S
C452 N449 1.346 . S
C452 C451 1.369 . S
C452 H455 0.928 . S
C453 N449 1.345 . S
C453 C454 1.371 . S
C453 H456 0.931 . S
C454 C450 1.391 . S
C454 C453 1.371 . S
C454 H461 0.930 . S
H455 C452 0.928 . S
H456 C453 0.931 . S
H457 C433 0.930 . S
H458 C430 0.930 . S
H459 C439 0.930 . S
H460 C451 0.929 . S
H461 C454 0.930 . S
C462 C463 1.351 . S
C462 N465 1.368 . S
C462 H467 0.931 . S
C463 C462 1.351 . S
C463 N464 1.373 . S
C463 H491 0.930 . S
N464 C463 1.373 . S
N464 C466 1.340 . S
N465 C462 1.368 . S
N465 C466 1.321 . S
N465 Co468 2.135 . S
C466 N464 1.340 . S
C466 N465 1.321 . S
C466 H490 0.930 . S
H467 C462 0.931 . S
Co468 N465 2.135 . S
Co468 N471 2.121 . S
Co468 O476 2.055 . S
Co468 O479 2.039 . S
Co468 N482 2.140 . S
C469 O470 1.227 . S
C469 O479 1.265 . S
O470 C469 1.227 . S
N471 Co468 2.121 . S
N471 C473 1.375 . S
N471 C474 1.313 . S
C472 C473 1.338 . S
C472 N475 1.377 . S
C472 H492 0.930 . S
C473 N471 1.375 . S
C473 C472 1.338 . S
C473 H477 0.931 . S
C474 N471 1.313 . S
C474 N475 1.344 . S
C474 H478 0.930 . S
N475 C472 1.377 . S
N475 C474 1.344 . S
O476 Co468 2.055 . S
O476 C480 1.253 . S
H477 C473 0.931 . S
H478 C474 0.930 . S
O479 Co468 2.039 . S
O479 C469 1.265 . S
C480 O476 1.253 . S
C480 O481 1.227 . S
O481 C480 1.227 . S
N482 Co468 2.140 . S
N482 C485 1.346 . S
N482 C486 1.345 . S
C483 C484 1.387 . S
C483 C487 1.391 . S
C484 C483 1.387 . S
C484 C485 1.369 . S
C484 H493 0.929 . S
C485 N482 1.346 . S
C485 C484 1.369 . S
C485 H488 0.928 . S
C486 N482 1.345 . S
C486 C487 1.371 . S
C486 H489 0.931 . S
C487 C483 1.391 . S
C487 C486 1.371 . S
C487 H494 0.930 . S
H488 C485 0.928 . S
H489 C486 0.931 . S
H490 C466 0.930 . S
H491 C463 0.930 . S
H492 C472 0.930 . S
H493 C484 0.929 . S
H494 C487 0.930 . S
C495 C496 1.351 . S
C495 N498 1.368 . S
C495 H500 0.931 . S
C496 C495 1.351 . S
C496 N497 1.373 . S
C496 H524 0.930 . S
N497 C496 1.373 . S
N497 C499 1.340 . S
N498 C495 1.368 . S
N498 C499 1.321 . S
N498 Co501 2.135 . S
C499 N497 1.340 . S
C499 N498 1.321 . S
C499 H523 0.930 . S
H500 C495 0.931 . S
Co501 N498 2.135 . S
Co501 N504 2.121 . S
Co501 O509 2.055 . S
Co501 O512 2.039 . S
Co501 N515 2.140 . S
C502 O503 1.227 . S
C502 O512 1.265 . S
O503 C502 1.227 . S
N504 Co501 2.121 . S
N504 C506 1.375 . S
N504 C507 1.313 . S
C505 C506 1.338 . S
C505 N508 1.377 . S
C505 H525 0.930 . S
C506 N504 1.375 . S
C506 C505 1.338 . S
C506 H510 0.931 . S
C507 N504 1.313 . S
C507 N508 1.344 . S
C507 H511 0.930 . S
N508 C505 1.377 . S
N508 C507 1.344 . S
O509 Co501 2.055 . S
O509 C513 1.253 . S
H510 C506 0.931 . S
H511 C507 0.930 . S
O512 Co501 2.039 . S
O512 C502 1.265 . S
C513 O509 1.253 . S
C513 O514 1.227 . S
O514 C513 1.227 . S
N515 Co501 2.140 . S
N515 C518 1.346 . S
N515 C519 1.345 . S
C516 C517 1.387 . S
C516 C520 1.391 . S
C517 C516 1.387 . S
C517 C518 1.369 . S
C517 H526 0.929 . S
C518 N515 1.346 . S
C518 C517 1.369 . S
C518 H521 0.928 . S
C519 N515 1.345 . S
C519 C520 1.371 . S
C519 H522 0.931 . S
C520 C516 1.391 . S
C520 C519 1.371 . S
C520 H527 0.930 . S
H521 C518 0.928 . S
H522 C519 0.931 . S
H523 C499 0.930 . S
H524 C496 0.930 . S
H525 C505 0.930 . S
H526 C517 0.929 . S
H527 C520 0.930 . S
H528 C534 0.930 . S
H529 C538 0.930 . S
H530 C543 0.929 1_545 S
H531 C541 0.929 . S
H532 C536 0.929 . S
H533 C542 0.929 . S
C534 H528 0.930 . S
C534 C535 1.367 1_565 S
C534 C542 1.378 . S
C535 C534 1.367 1_545 S
C535 C543 1.433 1_545 S
C536 H532 0.929 . S
C536 C538 1.378 . S
C536 C540 1.350 . S
C537 C540 1.463 . S
C537 C542 1.350 . S
C537 N545 1.427 . S
C538 H529 0.930 . S
C538 C536 1.378 . S
C538 C539 1.367 . S
C539 C538 1.367 . S
C539 C541 1.433 . S
C540 C536 1.350 . S
C540 C537 1.463 . S
C540 N544 1.427 . S
C541 H531 0.929 . S
C541 C539 1.433 . S
C541 N544 1.384 . S
C542 H533 0.929 . S
C542 C534 1.378 . S
C542 C537 1.350 . S
C543 H530 0.929 1_565 S
C543 C535 1.433 1_565 S
C543 N545 1.384 . S
N544 C540 1.427 . S
N544 C541 1.384 . S
N545 C537 1.427 . S
N545 C543 1.384 . S
H546 C552 0.930 . S
H547 C556 0.930 1_655 S
H548 C561 0.929 . S
H549 C559 0.929 . S
H550 C554 0.929 . S
H551 C560 0.929 . S
C552 H546 0.930 . S
C552 C553 1.367 . S
C552 C560 1.378 . S
C553 C552 1.367 . S
C553 C561 1.433 . S
C554 H550 0.929 . S
C554 C556 1.378 . S
C554 C558 1.350 . S
C555 C558 1.463 . S
C555 C560 1.350 . S
C555 N563 1.427 . S
C556 H547 0.930 1_455 S
C556 C554 1.378 . S
C556 C557 1.367 1_455 S
C557 C556 1.367 1_655 S
C557 C559 1.433 1_655 S
C558 C554 1.350 . S
C558 C555 1.463 . S
C558 N562 1.427 . S
C559 H549 0.929 . S
C559 C557 1.433 1_455 S
C559 N562 1.384 . S
C560 H551 0.929 . S
C560 C552 1.378 . S
C560 C555 1.350 . S
C561 H548 0.929 . S
C561 C553 1.433 . S
C561 N563 1.384 . S
N562 C558 1.427 . S
N562 C559 1.384 . S
N563 C555 1.427 . S
N563 C561 1.384 . S
H564 C570 0.930 . S
H565 C574 0.930 . S
H566 C579 0.929 1_565 S
H567 C577 0.929 . S
H568 C572 0.929 . S
H569 C578 0.929 . S
C570 H564 0.930 . S
C570 C571 1.367 1_545 S
C570 C578 1.378 . S
C571 C570 1.367 1_565 S
C571 C579 1.433 1_565 S
C572 H568 0.929 . S
C572 C574 1.378 . S
C572 C576 1.350 . S
C573 C576 1.463 . S
C573 C578 1.350 . S
C573 N581 1.427 . S
C574 H565 0.930 . S
C574 C572 1.378 . S
C574 C575 1.367 . S
C575 C574 1.367 . S
C575 C577 1.433 . S
C576 C572 1.350 . S
C576 C573 1.463 . S
C576 N580 1.427 . S
C577 H567 0.929 . S
C577 C575 1.433 . S
C577 N580 1.384 . S
C578 H569 0.929 . S
C578 C570 1.378 . S
C578 C573 1.350 . S
C579 H566 0.929 1_545 S
C579 C571 1.433 1_545 S
C579 N581 1.384 . S
N580 C576 1.427 . S
N580 C577 1.384 . S
N581 C573 1.427 . S
N581 C579 1.384 . S
H582 C588 0.930 . S
H583 C592 0.930 1_455 S
H584 C597 0.929 . S
H585 C595 0.929 1_455 S
H586 C590 0.929 . S
H587 C596 0.929 . S
C588 H582 0.930 . S
C588 C589 1.367 . S
C588 C596 1.378 . S
C589 C588 1.367 . S
C589 C597 1.433 . S
C590 H586 0.929 . S
C590 C592 1.378 . S
C590 C594 1.350 . S
C591 C594 1.463 . S
C591 C596 1.350 . S
C591 N599 1.427 . S
C592 H583 0.930 1_655 S
C592 C590 1.378 . S
C592 C593 1.367 1_655 S
C593 C592 1.367 1_455 S
C593 C595 1.433 1_455 S
C594 C590 1.350 . S
C594 C591 1.463 . S
C594 N598 1.427 . S
C595 H585 0.929 1_655 S
C595 C593 1.433 1_655 S
C595 N598 1.384 . S
C596 H587 0.929 . S
C596 C588 1.378 . S
C596 C591 1.350 . S
C597 H584 0.929 . S
C597 C589 1.433 . S
C597 N599 1.384 . S
N598 C594 1.427 . S
N598 C595 1.384 . S
N599 C591 1.427 . S
N599 C597 1.384 . S
H600 C606 0.930 . S
H601 C610 0.930 . S
H602 C615 0.929 . S
H603 C613 0.924 1_565 S
H604 C608 0.929 . S
H605 C614 0.929 . S
C606 H600 0.930 . S
C606 C607 1.367 . S
C606 C614 1.378 . S
C607 C606 1.367 . S
C607 C615 1.433 . S
C608 H604 0.929 . S
C608 C610 1.378 . S
C608 C612 1.350 . S
C609 C612 1.463 . S
C609 C614 1.350 . S
C609 N617 1.427 . S
C610 H601 0.930 . S
C610 C608 1.378 . S
C610 C611 1.367 1_545 S
C611 C610 1.367 1_565 S
C611 C613 1.432 1_565 S
C612 C608 1.350 . S
C612 C609 1.463 . S
C612 N616 1.427 . S
C613 H603 0.924 1_545 S
C613 C611 1.432 1_545 S
C613 N616 1.390 . S
C614 H605 0.929 . S
C614 C606 1.378 . S
C614 C609 1.350 . S
C615 H602 0.929 . S
C615 C607 1.433 . S
C615 N617 1.384 . S
N616 C612 1.427 . S
N616 C613 1.390 . S
N617 C609 1.427 . S
N617 C615 1.384 . S
H618 C624 0.930 . S
H619 C628 0.930 . S
H620 C633 0.929 . S
H621 C631 0.900 1_455 S
H622 C626 0.929 . S
H623 C632 0.929 . S
C624 H618 0.930 . S
C624 C625 1.367 . S
C624 C632 1.378 . S
C625 C624 1.367 . S
C625 C633 1.433 . S
C626 H622 0.929 . S
C626 C628 1.378 . S
C626 C630 1.350 . S
C627 C630 1.463 . S
C627 C632 1.350 . S
C627 N635 1.427 . S
C628 H619 0.930 . S
C628 C626 1.378 . S
C628 C629 1.367 1_655 S
C629 C628 1.367 1_455 S
C629 C631 1.424 1_455 S
C630 C626 1.350 . S
C630 C627 1.463 . S
C630 N634 1.427 . S
C631 H621 0.900 1_655 S
C631 C629 1.424 1_655 S
C631 N634 1.424 . S
C632 H623 0.929 . S
C632 C624 1.378 . S
C632 C627 1.350 . S
C633 H620 0.929 . S
C633 C625 1.433 . S
C633 N635 1.384 . S
N634 C630 1.427 . S
N634 C631 1.424 . S
N635 C627 1.427 . S
N635 C633 1.384 . S
H636 C642 0.930 . S
H637 C646 0.924 1_545 S
H638 C651 0.929 . S
H639 C649 0.929 . S
H640 C644 0.929 . S
H641 C650 0.929 . S
C642 H636 0.930 . S
C642 C643 1.367 . S
C642 C650 1.378 . S
C643 C642 1.367 . S
C643 C651 1.433 . S
C644 H640 0.929 . S
C644 C646 1.387 . S
C644 C648 1.350 . S
C645 C648 1.463 . S
C645 C650 1.350 . S
C645 N653 1.427 . S
C646 H637 0.924 1_565 S
C646 C644 1.387 . S
C646 C647 1.365 1_565 S
C647 C646 1.365 1_545 S
C647 C649 1.433 1_545 S
C648 C644 1.350 . S
C648 C645 1.463 . S
C648 N652 1.427 . S
C649 H639 0.929 . S
C649 C647 1.433 1_565 S
C649 N652 1.384 . S
C650 H641 0.929 . S
C650 C642 1.378 . S
C650 C645 1.350 . S
C651 H638 0.929 . S
C651 C643 1.433 . S
C651 N653 1.384 . S
N652 C648 1.427 . S
N652 C649 1.384 . S
N653 C645 1.427 . S
N653 C651 1.384 . S
H654 C660 0.930 . S
H655 C664 0.930 . S
H656 C669 0.929 1_655 S
H657 C667 0.929 . S
H658 C662 0.929 . S
H659 C668 0.929 . S
C660 H654 0.930 . S
C660 C661 1.367 1_455 S
C660 C668 1.378 . S
C661 C660 1.367 1_655 S
C661 C669 1.433 1_655 S
C662 H658 0.929 . S
C662 C664 1.378 . S
C662 C666 1.350 . S
C663 C666 1.463 . S
C663 C668 1.350 . S
C663 N671 1.427 . S
C664 H655 0.930 . S
C664 C662 1.378 . S
C664 C665 1.367 . S
C665 C664 1.367 . S
C665 C667 1.433 . S
C666 C662 1.350 . S
C666 C663 1.463 . S
C666 N670 1.427 . S
C667 H657 0.929 . S
C667 C665 1.433 . S
C667 N670 1.384 . S
C668 H659 0.929 . S
C668 C660 1.378 . S
C668 C663 1.350 . S
C669 H656 0.929 1_455 S
C669 C661 1.433 1_455 S
C669 N671 1.384 . S
N670 C666 1.427 . S
N670 C667 1.384 . S
N671 C663 1.427 . S
N671 C669 1.384 . S
H672 C678 0.930 . S
H673 C682 0.930 . S
H674 C687 0.929 . S
H675 C685 0.929 . S
H676 C680 0.929 . S
H677 C686 0.929 . S
C678 H672 0.930 . S
C678 C679 1.367 . S
C678 C686 1.378 . S
C679 C678 1.367 . S
C679 C687 1.433 . S
C680 H676 0.929 . S
C680 C682 1.378 . S
C680 C684 1.350 . S
C681 C684 1.463 . S
C681 C686 1.350 . S
C681 N689 1.427 . S
C682 H673 0.930 . S
C682 C680 1.378 . S
C682 C683 1.367 . S
C683 C682 1.367 . S
C683 C685 1.433 . S
C684 C680 1.350 . S
C684 C681 1.463 . S
C684 N688 1.427 . S
C685 H675 0.929 . S
C685 C683 1.433 . S
C685 N688 1.384 . S
C686 H677 0.929 . S
C686 C678 1.378 . S
C686 C681 1.350 . S
C687 H674 0.929 . S
C687 C679 1.433 . S
C687 N689 1.384 . S
N688 C684 1.427 . S
N688 C685 1.384 . S
N689 C681 1.427 . S
N689 C687 1.384 . S
H690 C696 0.930 . S
H691 C700 0.930 . S
H692 C705 0.929 . S
H693 C703 0.929 . S
H694 C698 0.929 . S
H695 C704 0.929 . S
C696 H690 0.930 . S
C696 C697 1.367 . S
C696 C704 1.378 . S
C697 C696 1.367 . S
C697 C705 1.433 . S
C698 H694 0.929 . S
C698 C700 1.378 . S
C698 C702 1.350 . S
C699 C702 1.463 . S
C699 C704 1.350 . S
C699 N707 1.427 . S
C700 H691 0.930 . S
C700 C698 1.378 . S
C700 C701 1.367 . S
C701 C700 1.367 . S
C701 C703 1.433 . S
C702 C698 1.350 . S
C702 C699 1.463 . S
C702 N706 1.427 . S
C703 H693 0.929 . S
C703 C701 1.433 . S
C703 N706 1.384 . S
C704 H695 0.929 . S
C704 C696 1.378 . S
C704 C699 1.350 . S
C705 H692 0.929 . S
C705 C697 1.433 . S
C705 N707 1.384 . S
N706 C702 1.427 . S
N706 C703 1.384 . S
N707 C699 1.427 . S
N707 C705 1.384 . S
H708 C714 0.930 . S
H709 C718 0.930 . S
H710 C723 0.929 . S
H711 C721 0.929 . S
H712 C716 0.929 . S
H713 C722 0.929 . S
C714 H708 0.930 . S
C714 C715 1.367 . S
C714 C722 1.378 . S
C715 C714 1.367 . S
C715 C723 1.433 . S
C716 H712 0.929 . S
C716 C718 1.378 . S
C716 C720 1.350 . S
C717 C720 1.463 . S
C717 C722 1.350 . S
C717 N725 1.427 . S
C718 H709 0.930 . S
C718 C716 1.378 . S
C718 C719 1.367 . S
C719 C718 1.367 . S
C719 C721 1.433 . S
C720 C716 1.350 . S
C720 C717 1.463 . S
C720 N724 1.427 . S
C721 H711 0.929 . S
C721 C719 1.433 . S
C721 N724 1.384 . S
C722 H713 0.929 . S
C722 C714 1.378 . S
C722 C717 1.350 . S
C723 H710 0.929 . S
C723 C715 1.433 . S
C723 N725 1.384 . S
N724 C720 1.427 . S
N724 C721 1.384 . S
N725 C717 1.427 . S
N725 C723 1.384 . S
H726 C732 0.930 . S
H727 C736 0.930 . S
H728 C741 0.929 . S
H729 C739 0.929 . S
H730 C734 0.929 . S
H731 C740 0.929 . S
C732 H726 0.930 . S
C732 C733 1.367 . S
C732 C740 1.378 . S
C733 C732 1.367 . S
C733 C741 1.433 . S
C734 H730 0.929 . S
C734 C736 1.378 . S
C734 C738 1.350 . S
C735 C738 1.463 . S
C735 C740 1.350 . S
C735 N743 1.427 . S
C736 H727 0.930 . S
C736 C734 1.378 . S
C736 C737 1.367 . S
C737 C736 1.367 . S
C737 C739 1.433 . S
C738 C734 1.350 . S
C738 C735 1.463 . S
C738 N742 1.427 . S
C739 H729 0.929 . S
C739 C737 1.433 . S
C739 N742 1.384 . S
C740 H731 0.929 . S
C740 C732 1.378 . S
C740 C735 1.350 . S
C741 H728 0.929 . S
C741 C733 1.433 . S
C741 N743 1.384 . S
N742 C738 1.427 . S
N742 C739 1.384 . S
N743 C735 1.427 . S
N743 C741 1.384 . S
H744 C750 0.930 . S
H745 C754 0.930 . S
H746 C759 0.929 . S
H747 C757 0.929 . S
H748 C752 0.929 . S
H749 C758 0.929 . S
C750 H744 0.930 . S
C750 C751 1.367 . S
C750 C758 1.378 . S
C751 C750 1.367 . S
C751 C759 1.433 . S
C752 H748 0.929 . S
C752 C754 1.378 . S
C752 C756 1.350 . S
C753 C756 1.463 . S
C753 C758 1.350 . S
C753 N761 1.427 . S
C754 H745 0.930 . S
C754 C752 1.378 . S
C754 C755 1.367 . S
C755 C754 1.367 . S
C755 C757 1.433 . S
C756 C752 1.350 . S
C756 C753 1.463 . S
C756 N760 1.427 . S
C757 H747 0.929 . S
C757 C755 1.433 . S
C757 N760 1.384 . S
C758 H749 0.929 . S
C758 C750 1.378 . S
C758 C753 1.350 . S
C759 H746 0.929 . S
C759 C751 1.433 . S
C759 N761 1.384 . S
N760 C756 1.427 . S
N760 C757 1.384 . S
N761 C753 1.427 . S
N761 C759 1.384 . S
H762 C768 0.930 . S
H763 C772 0.930 . S
H764 C777 0.929 . S
H765 C775 0.929 . S
H766 C770 0.929 . S
H767 C776 0.929 . S
C768 H762 0.930 . S
C768 C769 1.367 . S
C768 C776 1.378 . S
C769 C768 1.367 . S
C769 C777 1.433 . S
C770 H766 0.929 . S
C770 C772 1.378 . S
C770 C774 1.350 . S
C771 C774 1.463 . S
C771 C776 1.350 . S
C771 N779 1.427 . S
C772 H763 0.930 . S
C772 C770 1.378 . S
C772 C773 1.367 . S
C773 C772 1.367 . S
C773 C775 1.433 . S
C774 C770 1.350 . S
C774 C771 1.463 . S
C774 N778 1.427 . S
C775 H765 0.929 . S
C775 C773 1.433 . S
C775 N778 1.384 . S
C776 H767 0.929 . S
C776 C768 1.378 . S
C776 C771 1.350 . S
C777 H764 0.929 . S
C777 C769 1.433 . S
C777 N779 1.384 . S
N778 C774 1.427 . S
N778 C775 1.384 . S
N779 C771 1.427 . S
N779 C777 1.384 . S
H780 C786 0.930 . S
H781 C790 0.930 . S
H782 C795 0.929 . S
H783 C793 0.929 . S
H784 C788 0.929 . S
H785 C794 0.929 . S
C786 H780 0.930 . S
C786 C787 1.367 . S
C786 C794 1.378 . S
C787 C786 1.367 . S
C787 C795 1.433 . S
C788 H784 0.929 . S
C788 C790 1.378 . S
C788 C792 1.350 . S
C789 C792 1.463 . S
C789 C794 1.350 . S
C789 N797 1.427 . S
C790 H781 0.930 . S
C790 C788 1.378 . S
C790 C791 1.367 . S
C791 C790 1.367 . S
C791 C793 1.433 . S
C792 C788 1.350 . S
C792 C789 1.463 . S
C792 N796 1.427 . S
C793 H783 0.929 . S
C793 C791 1.433 . S
C793 N796 1.384 . S
C794 H785 0.929 . S
C794 C786 1.378 . S
C794 C789 1.350 . S
C795 H782 0.929 . S
C795 C787 1.433 . S
C795 N797 1.384 . S
N796 C792 1.427 . S
N796 C793 1.384 . S
N797 C789 1.427 . S
N797 C795 1.384 . S
H798 C804 0.930 . S
H799 C808 0.930 . S
H800 C813 0.929 . S
H801 C811 0.929 . S
H802 C806 0.929 . S
H803 C812 0.929 . S
C804 H798 0.930 . S
C804 C805 1.367 . S
C804 C812 1.378 . S
C805 C804 1.367 . S
C805 C813 1.433 . S
C806 H802 0.929 . S
C806 C808 1.378 . S
C806 C810 1.350 . S
C807 C810 1.463 . S
C807 C812 1.350 . S
C807 N815 1.427 . S
C808 H799 0.930 . S
C808 C806 1.378 . S
C808 C809 1.367 . S
C809 C808 1.367 . S
C809 C811 1.433 . S
C810 C806 1.350 . S
C810 C807 1.463 . S
C810 N814 1.427 . S
C811 H801 0.929 . S
C811 C809 1.433 . S
C811 N814 1.384 . S
C812 H803 0.929 . S
C812 C804 1.378 . S
C812 C807 1.350 . S
C813 H800 0.929 . S
C813 C805 1.433 . S
C813 N815 1.384 . S
N814 C810 1.427 . S
N814 C811 1.384 . S
N815 C807 1.427 . S
N815 C813 1.384 . S
H816 C822 0.930 . S
H817 C826 0.930 . S
H818 C831 0.929 . S
H819 C829 0.929 . S
H820 C824 0.929 . S
H821 C830 0.929 . S
C822 H816 0.930 . S
C822 C823 1.367 . S
C822 C830 1.378 . S
C823 C822 1.367 . S
C823 C831 1.433 . S
C824 H820 0.929 . S
C824 C826 1.378 . S
C824 C828 1.350 . S
C825 C828 1.463 . S
C825 C830 1.350 . S
C825 N833 1.427 . S
C826 H817 0.930 . S
C826 C824 1.378 . S
C826 C827 1.367 . S
C827 C826 1.367 . S
C827 C829 1.433 . S
C828 C824 1.350 . S
C828 C825 1.463 . S
C828 N832 1.427 . S
C829 H819 0.929 . S
C829 C827 1.433 . S
C829 N832 1.384 . S
C830 H821 0.929 . S
C830 C822 1.378 . S
C830 C825 1.350 . S
C831 H818 0.929 . S
C831 C823 1.433 . S
C831 N833 1.384 . S
N832 C828 1.427 . S
N832 C829 1.384 . S
N833 C825 1.427 . S
N833 C831 1.384 . S
H834 C840 0.930 . S
H835 C844 0.930 . S
H836 C849 0.929 . S
H837 C847 0.929 . S
H838 C842 0.929 . S
H839 C848 0.929 . S
C840 H834 0.930 . S
C840 C841 1.367 . S
C840 C848 1.378 . S
C841 C840 1.367 . S
C841 C849 1.433 . S
C842 H838 0.929 . S
C842 C844 1.378 . S
C842 C846 1.350 . S
C843 C846 1.463 . S
C843 C848 1.350 . S
C843 N851 1.427 . S
C844 H835 0.930 . S
C844 C842 1.378 . S
C844 C845 1.367 . S
C845 C844 1.367 . S
C845 C847 1.433 . S
C846 C842 1.350 . S
C846 C843 1.463 . S
C846 N850 1.427 . S
C847 H837 0.929 . S
C847 C845 1.433 . S
C847 N850 1.384 . S
C848 H839 0.929 . S
C848 C840 1.378 . S
C848 C843 1.350 . S
C849 H836 0.929 . S
C849 C841 1.433 . S
C849 N851 1.384 . S
N850 C846 1.427 . S
N850 C847 1.384 . S
N851 C843 1.427 . S
N851 C849 1.384 . S
H852 C858 0.930 . S
H853 C862 0.930 . S
H854 C867 0.929 . S
H855 C865 0.929 . S
H856 C860 0.929 . S
H857 C866 0.929 . S
C858 H852 0.930 . S
C858 C859 1.367 . S
C858 C866 1.378 . S
C859 C858 1.367 . S
C859 C867 1.433 . S
C860 H856 0.929 . S
C860 C862 1.378 . S
C860 C864 1.350 . S
C861 C864 1.463 . S
C861 C866 1.350 . S
C861 N869 1.427 . S
C862 H853 0.930 . S
C862 C860 1.378 . S
C862 C863 1.367 . S
C863 C862 1.367 . S
C863 C865 1.433 . S
C864 C860 1.350 . S
C864 C861 1.463 . S
C864 N868 1.427 . S
C865 H855 0.929 . S
C865 C863 1.433 . S
C865 N868 1.384 . S
C866 H857 0.929 . S
C866 C858 1.378 . S
C866 C861 1.350 . S
C867 H854 0.929 . S
C867 C859 1.433 . S
C867 N869 1.384 . S
N868 C864 1.427 . S
N868 C865 1.384 . S
N869 C861 1.427 . S
N869 C867 1.384 . S
H870 C876 0.930 . S
H871 C880 0.930 . S
H872 C885 0.929 . S
H873 C883 0.929 . S
H874 C878 0.929 . S
H875 C884 0.929 . S
C876 H870 0.930 . S
C876 C877 1.367 . S
C876 C884 1.378 . S
C877 C876 1.367 . S
C877 C885 1.433 . S
C878 H874 0.929 . S
C878 C880 1.378 . S
C878 C882 1.350 . S
C879 C882 1.463 . S
C879 C884 1.350 . S
C879 N887 1.427 . S
C880 H871 0.930 . S
C880 C878 1.378 . S
C880 C881 1.367 . S
C881 C880 1.367 . S
C881 C883 1.433 . S
C882 C878 1.350 . S
C882 C879 1.463 . S
C882 N886 1.427 . S
C883 H873 0.929 . S
C883 C881 1.433 . S
C883 N886 1.384 . S
C884 H875 0.929 . S
C884 C876 1.378 . S
C884 C879 1.350 . S
C885 H872 0.929 . S
C885 C877 1.433 . S
C885 N887 1.384 . S
N886 C882 1.427 . S
N886 C883 1.384 . S
N887 C879 1.427 . S
N887 C885 1.384 . S
H888 C894 0.930 . S
H889 C898 0.930 . S
H890 C903 0.929 . S
H891 C901 0.929 . S
H892 C896 0.929 1_556 S
H893 C902 0.929 1_554 S
C894 H888 0.930 . S
C894 C895 1.367 . S
C894 C902 1.378 . S
C895 C894 1.367 . S
C895 C903 1.433 . S
C896 H892 0.929 1_554 S
C896 C898 1.378 . S
C896 C900 1.350 . S
C897 C900 1.463 1_556 S
C897 C902 1.350 . S
C897 N905 1.427 . S
C898 H889 0.930 . S
C898 C896 1.378 . S
C898 C899 1.367 . S
C899 C898 1.367 . S
C899 C901 1.433 . S
C900 C896 1.350 . S
C900 C897 1.463 1_554 S
C900 N904 1.427 . S
C901 H891 0.929 . S
C901 C899 1.433 . S
C901 N904 1.384 . S
C902 H893 0.929 1_556 S
C902 C894 1.378 . S
C902 C897 1.350 . S
C903 H890 0.929 . S
C903 C895 1.433 . S
C903 N905 1.384 . S
N904 C900 1.427 . S
N904 C901 1.384 . S
N905 C897 1.427 . S
N905 C903 1.384 . S
H906 C912 0.930 . S
H907 C916 0.930 . S
H908 C921 0.929 . S
H909 C919 0.929 . S
H910 C914 0.929 1_556 S
H911 C920 0.929 1_554 S
C912 H906 0.930 . S
C912 C913 1.367 . S
C912 C920 1.378 . S
C913 C912 1.367 . S
C913 C921 1.433 . S
C914 H910 0.929 1_554 S
C914 C916 1.378 . S
C914 C918 1.350 . S
C915 C918 1.463 1_556 S
C915 C920 1.350 . S
C915 N923 1.427 . S
C916 H907 0.930 . S
C916 C914 1.378 . S
C916 C917 1.367 . S
C917 C916 1.367 . S
C917 C919 1.433 . S
C918 C914 1.350 . S
C918 C915 1.463 1_554 S
C918 N922 1.427 . S
C919 H909 0.929 . S
C919 C917 1.433 . S
C919 N922 1.384 . S
C920 H911 0.929 1_556 S
C920 C912 1.378 . S
C920 C915 1.350 . S
C921 H908 0.929 . S
C921 C913 1.433 . S
C921 N923 1.384 . S
N922 C918 1.427 . S
N922 C919 1.384 . S
N923 C915 1.427 . S
N923 C921 1.384 . S
H924 C930 0.930 . S
H925 C934 0.930 . S
H926 C939 0.929 . S
H927 C937 0.929 . S
H928 C932 0.929 . S
H929 C938 0.929 . S
C930 H924 0.930 . S
C930 C931 1.367 . S
C930 C938 1.378 . S
C931 C930 1.367 . S
C931 C939 1.433 . S
C932 H928 0.929 . S
C932 C934 1.378 . S
C932 C936 1.350 . S
C933 C936 1.463 1_556 S
C933 C938 1.350 . S
C933 N941 1.427 . S
C934 H925 0.930 . S
C934 C932 1.378 . S
C934 C935 1.367 . S
C935 C934 1.367 . S
C935 C937 1.433 . S
C936 C932 1.350 . S
C936 C933 1.463 1_554 S
C936 N940 1.427 . S
C937 H927 0.929 . S
C937 C935 1.433 . S
C937 N940 1.384 . S
C938 H929 0.929 . S
C938 C930 1.378 . S
C938 C933 1.350 . S
C939 H926 0.929 . S
C939 C931 1.433 . S
C939 N941 1.384 . S
N940 C936 1.427 . S
N940 C937 1.384 . S
N941 C933 1.427 . S
N941 C939 1.384 . S
H942 C948 0.930 . S
H943 C952 0.930 . S
H944 C957 0.929 . S
H945 C955 0.929 . S
H946 C950 0.929 . S
H947 C956 0.929 . S
C948 H942 0.930 . S
C948 C949 1.367 . S
C948 C956 1.378 . S
C949 C948 1.367 . S
C949 C957 1.433 . S
C950 H946 0.929 . S
C950 C952 1.378 . S
C950 C954 1.350 . S
C951 C954 1.463 1_556 S
C951 C956 1.350 . S
C951 N959 1.427 . S
C952 H943 0.930 . S
C952 C950 1.378 . S
C952 C953 1.367 . S
C953 C952 1.367 . S
C953 C955 1.433 . S
C954 C950 1.350 . S
C954 C951 1.463 1_554 S
C954 N958 1.427 . S
C955 H945 0.929 . S
C955 C953 1.433 . S
C955 N958 1.384 . S
C956 H947 0.929 . S
C956 C948 1.378 . S
C956 C951 1.350 . S
C957 H944 0.929 . S
C957 C949 1.433 . S
C957 N959 1.384 . S
N958 C954 1.427 . S
N958 C955 1.384 . S
N959 C951 1.427 . S
N959 C957 1.384 . S
H960 C966 0.930 . S
H961 C970 0.930 . S
H962 C975 0.929 . S
H963 C973 0.929 . S
H964 C968 0.929 . S
H965 C974 0.929 . S
C966 H960 0.930 . S
C966 C967 1.367 . S
C966 C974 1.378 . S
C967 C966 1.367 . S
C967 C975 1.433 . S
C968 H964 0.929 . S
C968 C970 1.378 . S
C968 C972 1.350 . S
C969 C972 1.463 . S
C969 C974 1.350 . S
C969 N977 1.427 . S
C970 H961 0.930 . S
C970 C968 1.378 . S
C970 C971 1.367 . S
C971 C970 1.367 . S
C971 C973 1.433 . S
C972 C968 1.350 . S
C972 C969 1.463 . S
C972 N976 1.427 . S
C973 H963 0.929 . S
C973 C971 1.433 . S
C973 N976 1.384 . S
C974 H965 0.929 . S
C974 C966 1.378 . S
C974 C969 1.350 . S
C975 H962 0.929 . S
C975 C967 1.433 . S
C975 N977 1.384 . S
N976 C972 1.427 . S
N976 C973 1.384 . S
N977 C969 1.427 . S
N977 C975 1.384 . S
H978 C984 0.930 . S
H979 C988 0.930 . S
H980 C993 0.929 . S
H981 C991 0.929 . S
H982 C986 0.929 . S
H983 C992 0.929 . S
C984 H978 0.930 . S
C984 C985 1.367 . S
C984 C992 1.378 . S
C985 C984 1.367 . S
C985 C993 1.433 . S
C986 H982 0.929 . S
C986 C988 1.378 . S
C986 C990 1.350 . S
C987 C990 1.463 . S
C987 C992 1.350 . S
C987 N995 1.427 . S
C988 H979 0.930 . S
C988 C986 1.378 . S
C988 C989 1.367 . S
C989 C988 1.367 . S
C989 C991 1.433 . S
C990 C986 1.350 . S
C990 C987 1.463 . S
C990 N994 1.427 . S
C991 H981 0.929 . S
C991 C989 1.433 . S
C991 N994 1.384 . S
C992 H983 0.929 . S
C992 C984 1.378 . S
C992 C987 1.350 . S
C993 H980 0.929 . S
C993 C985 1.433 . S
C993 N995 1.384 . S
N994 C990 1.427 . S
N994 C991 1.384 . S
N995 C987 1.427 . S
N995 C993 1.384 . S
H996 C1002 0.930 . S
H997 C1006 0.930 . S
H998 C1011 0.929 . S
H999 C1009 0.929 . S
H1000 C1004 0.929 . S
H1001 C1010 0.929 . S
C1002 H996 0.930 . S
C1002 C1003 1.367 . S
C1002 C1010 1.378 . S
C1003 C1002 1.367 . S
C1003 C1011 1.433 . S
C1004 H1000 0.929 . S
C1004 C1006 1.378 . S
C1004 C1008 1.350 . S
C1005 C1008 1.463 . S
C1005 C1010 1.350 . S
C1005 N1013 1.427 . S
C1006 H997 0.930 . S
C1006 C1004 1.378 . S
C1006 C1007 1.367 . S
C1007 C1006 1.367 . S
C1007 C1009 1.433 . S
C1008 C1004 1.350 . S
C1008 C1005 1.463 . S
C1008 N1012 1.427 . S
C1009 H999 0.929 . S
C1009 C1007 1.433 . S
C1009 N1012 1.384 . S
C1010 H1001 0.929 . S
C1010 C1002 1.378 . S
C1010 C1005 1.350 . S
C1011 H998 0.929 . S
C1011 C1003 1.433 . S
C1011 N1013 1.384 . S
N1012 C1008 1.427 . S
N1012 C1009 1.384 . S
N1013 C1005 1.427 . S
N1013 C1011 1.384 . S
H1014 C1020 0.930 . S
H1015 C1024 0.930 . S
H1016 C1029 0.929 . S
H1017 C1027 0.929 . S
H1018 C1022 0.929 . S
H1019 C1028 0.929 . S
C1020 H1014 0.930 . S
C1020 C1021 1.367 . S
C1020 C1028 1.378 . S
C1021 C1020 1.367 . S
C1021 C1029 1.433 . S
C1022 H1018 0.929 . S
C1022 C1024 1.378 . S
C1022 C1026 1.350 . S
C1023 C1026 1.463 . S
C1023 C1028 1.350 . S
C1023 N1031 1.427 . S
C1024 H1015 0.930 . S
C1024 C1022 1.378 . S
C1024 C1025 1.367 . S
C1025 C1024 1.367 . S
C1025 C1027 1.433 . S
C1026 C1022 1.350 . S
C1026 C1023 1.463 . S
C1026 N1030 1.427 . S
C1027 H1017 0.929 . S
C1027 C1025 1.433 . S
C1027 N1030 1.384 . S
C1028 H1019 0.929 . S
C1028 C1020 1.378 . S
C1028 C1023 1.350 . S
C1029 H1016 0.929 . S
C1029 C1021 1.433 . S
C1029 N1031 1.384 . S
N1030 C1026 1.427 . S
N1030 C1027 1.384 . S
N1031 C1023 1.427 . S
N1031 C1029 1.384 . S
H1032 C1038 0.930 . S
H1033 C1042 0.930 . S
H1034 C1047 0.929 . S
H1035 C1045 0.929 . S
H1036 C1040 0.929 . S
H1037 C1046 0.929 . S
C1038 H1032 0.930 . S
C1038 C1039 1.367 . S
C1038 C1046 1.378 . S
C1039 C1038 1.367 . S
C1039 C1047 1.433 . S
C1040 H1036 0.929 . S
C1040 C1042 1.378 . S
C1040 C1044 1.350 . S
C1041 C1044 1.463 . S
C1041 C1046 1.350 . S
C1041 N1049 1.427 . S
C1042 H1033 0.930 . S
C1042 C1040 1.378 . S
C1042 C1043 1.367 . S
C1043 C1042 1.367 . S
C1043 C1045 1.433 . S
C1044 C1040 1.350 . S
C1044 C1041 1.463 . S
C1044 N1048 1.427 . S
C1045 H1035 0.929 . S
C1045 C1043 1.433 . S
C1045 N1048 1.384 . S
C1046 H1037 0.929 . S
C1046 C1038 1.378 . S
C1046 C1041 1.350 . S
C1047 H1034 0.929 . S
C1047 C1039 1.433 . S
C1047 N1049 1.384 . S
N1048 C1044 1.427 . S
N1048 C1045 1.384 . S
N1049 C1041 1.427 . S
N1049 C1047 1.384 . S
H1050 C1056 0.930 . S
H1051 C1060 0.930 . S
H1052 C1065 0.929 . S
H1053 C1063 0.929 . S
H1054 C1058 0.929 . S
H1055 C1064 0.929 . S
C1056 H1050 0.930 . S
C1056 C1057 1.367 . S
C1056 C1064 1.378 . S
C1057 C1056 1.367 . S
C1057 C1065 1.433 . S
C1058 H1054 0.929 . S
C1058 C1060 1.378 . S
C1058 C1062 1.350 . S
C1059 C1062 1.463 . S
C1059 C1064 1.350 . S
C1059 N1067 1.427 . S
C1060 H1051 0.930 . S
C1060 C1058 1.378 . S
C1060 C1061 1.367 . S
C1061 C1060 1.367 . S
C1061 C1063 1.433 . S
C1062 C1058 1.350 . S
C1062 C1059 1.463 . S
C1062 N1066 1.427 . S
C1063 H1053 0.929 . S
C1063 C1061 1.433 . S
C1063 N1066 1.384 . S
C1064 H1055 0.929 . S
C1064 C1056 1.378 . S
C1064 C1059 1.350 . S
C1065 H1052 0.929 . S
C1065 C1057 1.433 . S
C1065 N1067 1.384 . S
N1066 C1062 1.427 . S
N1066 C1063 1.384 . S
N1067 C1059 1.427 . S
N1067 C1065 1.384 . S
H1068 C1074 0.930 . S
H1069 C1078 0.930 . S
H1070 C1083 0.929 . S
H1071 C1081 0.929 . S
H1072 C1076 0.929 . S
H1073 C1082 0.929 . S
C1074 H1068 0.930 . S
C1074 C1075 1.367 . S
C1074 C1082 1.378 . S
C1075 C1074 1.367 . S
C1075 C1083 1.433 . S
C1076 H1072 0.929 . S
C1076 C1078 1.378 . S
C1076 C1080 1.350 . S
C1077 C1080 1.463 . S
C1077 C1082 1.350 . S
C1077 N1085 1.427 . S
C1078 H1069 0.930 . S
C1078 C1076 1.378 . S
C1078 C1079 1.367 . S
C1079 C1078 1.367 . S
C1079 C1081 1.433 . S
C1080 C1076 1.350 . S
C1080 C1077 1.463 . S
C1080 N1084 1.427 . S
C1081 H1071 0.929 . S
C1081 C1079 1.433 . S
C1081 N1084 1.384 . S
C1082 H1073 0.929 . S
C1082 C1074 1.378 . S
C1082 C1077 1.350 . S
C1083 H1070 0.929 . S
C1083 C1075 1.433 . S
C1083 N1085 1.384 . S
N1084 C1080 1.427 . S
N1084 C1081 1.384 . S
N1085 C1077 1.427 . S
N1085 C1083 1.384 . S
H1086 C1092 0.930 . S
H1087 C1096 0.930 . S
H1088 C1101 0.929 . S
H1089 C1099 0.929 . S
H1090 C1094 0.929 . S
H1091 C1100 0.929 . S
C1092 H1086 0.930 . S
C1092 C1093 1.367 . S
C1092 C1100 1.378 . S
C1093 C1092 1.367 . S
C1093 C1101 1.433 . S
C1094 H1090 0.929 . S
C1094 C1096 1.378 . S
C1094 C1098 1.350 . S
C1095 C1098 1.463 . S
C1095 C1100 1.350 . S
C1095 N1103 1.427 . S
C1096 H1087 0.930 . S
C1096 C1094 1.378 . S
C1096 C1097 1.367 . S
C1097 C1096 1.367 . S
C1097 C1099 1.433 . S
C1098 C1094 1.350 . S
C1098 C1095 1.463 . S
C1098 N1102 1.427 . S
C1099 H1089 0.929 . S
C1099 C1097 1.433 . S
C1099 N1102 1.384 . S
C1100 H1091 0.929 . S
C1100 C1092 1.378 . S
C1100 C1095 1.350 . S
C1101 H1088 0.929 . S
C1101 C1093 1.433 . S
C1101 N1103 1.384 . S
N1102 C1098 1.427 . S
N1102 C1099 1.384 . S
N1103 C1095 1.427 . S
N1103 C1101 1.384 . S
H1104 C1110 0.930 . S
H1105 C1114 0.930 . S
H1106 C1119 0.929 . S
H1107 C1117 0.929 . S
H1108 C1112 0.929 1_545 S
H1109 C1118 0.929 1_565 S
C1110 H1104 0.930 . S
C1110 C1111 1.367 . S
C1110 C1118 1.378 . S
C1111 C1110 1.367 . S
C1111 C1119 1.433 . S
C1112 H1108 0.929 1_565 S
C1112 C1114 1.378 . S
C1112 C1116 1.350 . S
C1113 C1116 1.463 1_545 S
C1113 C1118 1.350 . S
C1113 N1121 1.427 . S
C1114 H1105 0.930 . S
C1114 C1112 1.378 . S
C1114 C1115 1.367 . S
C1115 C1114 1.367 . S
C1115 C1117 1.433 . S
C1116 C1112 1.350 . S
C1116 C1113 1.463 1_565 S
C1116 N1120 1.427 . S
C1117 H1107 0.929 . S
C1117 C1115 1.433 . S
C1117 N1120 1.384 . S
C1118 H1109 0.929 1_545 S
C1118 C1110 1.378 . S
C1118 C1113 1.350 . S
C1119 H1106 0.929 . S
C1119 C1111 1.433 . S
C1119 N1121 1.384 . S
N1120 C1116 1.427 . S
N1120 C1117 1.384 . S
N1121 C1113 1.427 . S
N1121 C1119 1.384 . S
H1122 C1128 0.930 . S
H1123 C1132 0.930 . S
H1124 C1137 0.929 . S
H1125 C1135 0.929 . S
H1126 C1130 0.929 1_655 S
H1127 C1136 0.929 1_455 S
C1128 H1122 0.930 . S
C1128 C1129 1.367 . S
C1128 C1136 1.378 . S
C1129 C1128 1.367 . S
C1129 C1137 1.433 . S
C1130 H1126 0.929 1_455 S
C1130 C1132 1.378 . S
C1130 C1134 1.350 . S
C1131 C1134 1.463 1_655 S
C1131 C1136 1.350 . S
C1131 N1139 1.427 . S
C1132 H1123 0.930 . S
C1132 C1130 1.378 . S
C1132 C1133 1.367 . S
C1133 C1132 1.367 . S
C1133 C1135 1.433 . S
C1134 C1130 1.350 . S
C1134 C1131 1.463 1_455 S
C1134 N1138 1.427 . S
C1135 H1125 0.929 . S
C1135 C1133 1.433 . S
C1135 N1138 1.384 . S
C1136 H1127 0.929 1_655 S
C1136 C1128 1.378 . S
C1136 C1131 1.350 . S
C1137 H1124 0.929 . S
C1137 C1129 1.433 . S
C1137 N1139 1.384 . S
N1138 C1134 1.427 . S
N1138 C1135 1.384 . S
N1139 C1131 1.427 . S
N1139 C1137 1.384 . S
H1140 C1146 0.931 . S
H1141 C1150 0.931 . S
H1142 C1155 0.929 . S
H1143 C1153 0.929 . S
H1144 C1148 0.929 . S
H1145 C1154 0.929 . S
C1146 H1140 0.931 . S
C1146 C1147 1.367 . S
C1146 C1154 1.378 1_565 S
C1147 C1146 1.367 . S
C1147 C1155 1.433 . S
C1148 H1144 0.929 . S
C1148 C1150 1.378 1_565 S
C1148 C1152 1.350 1_565 S
C1149 C1152 1.463 1_565 S
C1149 C1154 1.350 1_565 S
C1149 N1157 1.427 . S
C1150 H1141 0.931 . S
C1150 C1148 1.378 1_545 S
C1150 C1151 1.367 . S
C1151 C1150 1.367 . S
C1151 C1153 1.433 . S
C1152 C1148 1.350 1_545 S
C1152 C1149 1.463 1_545 S
C1152 N1156 1.427 . S
C1153 H1143 0.929 . S
C1153 C1151 1.433 . S
C1153 N1156 1.384 . S
C1154 H1145 0.929 . S
C1154 C1146 1.378 1_545 S
C1154 C1149 1.350 1_545 S
C1155 H1142 0.929 . S
C1155 C1147 1.433 . S
C1155 N1157 1.384 . S
N1156 C1152 1.427 . S
N1156 C1153 1.384 . S
N1157 C1149 1.427 . S
N1157 C1155 1.384 . S
H1158 C1164 0.930 . S
H1159 C1168 0.930 . S
H1160 C1173 0.929 . S
H1161 C1171 0.929 . S
H1162 C1166 0.929 . S
H1163 C1172 0.929 . S
C1164 H1158 0.930 . S
C1164 C1165 1.367 . S
C1164 C1172 1.378 . S
C1165 C1164 1.367 . S
C1165 C1173 1.433 . S
C1166 H1162 0.929 . S
C1166 C1168 1.378 . S
C1166 C1170 1.350 . S
C1167 C1170 1.463 1_655 S
C1167 C1172 1.350 . S
C1167 N1175 1.427 . S
C1168 H1159 0.930 . S
C1168 C1166 1.378 . S
C1168 C1169 1.367 . S
C1169 C1168 1.367 . S
C1169 C1171 1.433 . S
C1170 C1166 1.350 . S
C1170 C1167 1.463 1_455 S
C1170 N1174 1.427 . S
C1171 H1161 0.929 . S
C1171 C1169 1.433 . S
C1171 N1174 1.384 . S
C1172 H1163 0.929 . S
C1172 C1164 1.378 . S
C1172 C1167 1.350 . S
C1173 H1160 0.929 . S
C1173 C1165 1.433 . S
C1173 N1175 1.384 . S
N1174 C1170 1.427 . S
N1174 C1171 1.384 . S
N1175 C1167 1.427 . S
N1175 C1173 1.384 . S
H1176 C1182 0.930 . S
H1177 C1186 0.930 . S
H1178 C1191 0.929 . S
H1179 C1189 0.929 . S
H1180 C1184 0.929 . S
H1181 C1190 0.929 . S
C1182 H1176 0.930 . S
C1182 C1183 1.367 . S
C1182 C1190 1.378 . S
C1183 C1182 1.367 . S
C1183 C1191 1.433 . S
C1184 H1180 0.929 . S
C1184 C1186 1.378 . S
C1184 C1188 1.350 . S
C1185 C1188 1.463 1_556 S
C1185 C1190 1.350 . S
C1185 N1193 1.427 . S
C1186 H1177 0.930 . S
C1186 C1184 1.378 . S
C1186 C1187 1.367 . S
C1187 C1186 1.367 . S
C1187 C1189 1.433 . S
C1188 C1184 1.350 . S
C1188 C1185 1.463 1_554 S
C1188 N1192 1.427 . S
C1189 H1179 0.929 . S
C1189 C1187 1.433 . S
C1189 N1192 1.384 . S
C1190 H1181 0.929 . S
C1190 C1182 1.378 . S
C1190 C1185 1.350 . S
C1191 H1178 0.929 . S
C1191 C1183 1.433 . S
C1191 N1193 1.384 . S
N1192 C1188 1.427 . S
N1192 C1189 1.384 . S
N1193 C1185 1.427 . S
N1193 C1191 1.384 . S
H1194 C1200 0.930 . S
H1195 C1204 0.930 . S
H1196 C1209 0.929 . S
H1197 C1207 0.929 . S
H1198 C1202 0.929 . S
H1199 C1208 0.929 . S
C1200 H1194 0.930 . S
C1200 C1201 1.367 . S
C1200 C1208 1.378 . S
C1201 C1200 1.367 . S
C1201 C1209 1.433 . S
C1202 H1198 0.929 . S
C1202 C1204 1.378 . S
C1202 C1206 1.350 . S
C1203 C1206 1.463 1_556 S
C1203 C1208 1.350 . S
C1203 N1211 1.427 . S
C1204 H1195 0.930 . S
C1204 C1202 1.378 . S
C1204 C1205 1.367 . S
C1205 C1204 1.367 . S
C1205 C1207 1.433 . S
C1206 C1202 1.350 . S
C1206 C1203 1.463 1_554 S
C1206 N1210 1.427 . S
C1207 H1197 0.929 . S
C1207 C1205 1.433 . S
C1207 N1210 1.384 . S
C1208 H1199 0.929 . S
C1208 C1200 1.378 . S
C1208 C1203 1.350 . S
C1209 H1196 0.929 . S
C1209 C1201 1.433 . S
C1209 N1211 1.384 . S
N1210 C1206 1.427 . S
N1210 C1207 1.384 . S
N1211 C1203 1.427 . S
N1211 C1209 1.384 . S
H1212 C1218 0.930 . S
H1213 C1222 0.930 . S
H1214 C1227 0.929 . S
H1215 C1225 0.929 . S
H1216 C1220 0.919 1_554 S
H1217 C1226 0.919 1_556 S
C1218 H1212 0.930 . S
C1218 C1219 1.367 . S
C1218 C1226 1.378 . S
C1219 C1218 1.367 . S
C1219 C1227 1.433 . S
C1220 H1216 0.919 1_556 S
C1220 C1222 1.378 . S
C1220 C1224 1.350 . S
C1221 C1224 1.463 1_554 S
C1221 C1226 1.350 . S
C1221 N1229 1.427 . S
C1222 H1213 0.930 . S
C1222 C1220 1.378 . S
C1222 C1223 1.367 . S
C1223 C1222 1.367 . S
C1223 C1225 1.433 . S
C1224 C1220 1.350 . S
C1224 C1221 1.463 1_556 S
C1224 N1228 1.427 . S
C1225 H1215 0.929 . S
C1225 C1223 1.433 . S
C1225 N1228 1.384 . S
C1226 H1217 0.919 1_554 S
C1226 C1218 1.378 . S
C1226 C1221 1.350 . S
C1227 H1214 0.929 . S
C1227 C1219 1.433 . S
C1227 N1229 1.384 . S
N1228 C1224 1.427 . S
N1228 C1225 1.384 . S
N1229 C1221 1.427 . S
N1229 C1227 1.384 . S
H1230 C1236 0.930 . S
H1231 C1240 0.930 . S
H1232 C1245 0.929 . S
H1233 C1243 0.929 . S
H1234 C1238 0.929 . S
H1235 C1244 0.929 . S
C1236 H1230 0.930 . S
C1236 C1237 1.367 . S
C1236 C1244 1.378 . S
C1237 C1236 1.367 . S
C1237 C1245 1.433 . S
C1238 H1234 0.929 . S
C1238 C1240 1.378 . S
C1238 C1242 1.350 . S
C1239 C1242 1.463 1_556 S
C1239 C1244 1.350 . S
C1239 N1247 1.427 . S
C1240 H1231 0.930 . S
C1240 C1238 1.378 . S
C1240 C1241 1.367 . S
C1241 C1240 1.367 . S
C1241 C1243 1.433 . S
C1242 C1238 1.350 . S
C1242 C1239 1.463 1_554 S
C1242 N1246 1.427 . S
C1243 H1233 0.929 . S
C1243 C1241 1.433 . S
C1243 N1246 1.384 . S
C1244 H1235 0.929 . S
C1244 C1236 1.378 . S
C1244 C1239 1.350 . S
C1245 H1232 0.929 . S
C1245 C1237 1.433 . S
C1245 N1247 1.384 . S
N1246 C1242 1.427 . S
N1246 C1243 1.384 . S
N1247 C1239 1.427 . S
N1247 C1245 1.384 . S
C535 C18 1.865 . S
C539 N101 1.737 . S
C553 N2 1.728 . S
C557 C51 1.866 . S
C571 C84 1.865 . S
C575 N35 1.736 . S
C589 N68 1.738 . S
C593 C117 1.865 . S
C607 N167 1.730 . S
C611 C150 1.864 . S
C625 N200 1.732 . S
C629 C183 1.864 . S
C643 N233 1.734 . S
C647 C216 1.866 . S
C661 C249 1.864 . S
C665 N134 1.723 . S
C679 C282 1.864 . S
C683 N365 1.729 . S
C697 C315 1.866 . S
C701 N266 1.728 . S
C715 C348 1.865 . S
C719 N299 1.738 . S
C733 N332 1.738 . S
C737 C381 1.867 . S
C751 N431 1.726 . S
C755 C414 1.864 . S
C769 C447 1.866 . S
C773 N464 1.740 . S
C787 C480 1.866 . S
C791 N497 1.740 . S
C805 C513 1.866 . S
C809 N398 1.740 . S
C823 C7 0.971 . S
C827 C172 0.977 . S
C841 C40 0.976 . S
C845 C205 0.978 . S
C859 C238 0.972 . S
C863 C73 0.968 . S
C877 C106 0.969 . S
C881 C139 0.974 . S
C895 C271 0.976 . S
C899 C436 0.978 . S
C913 C304 0.978 . S
C917 C469 0.974 . S
C931 C337 0.970 . S
C935 C502 0.968 . S
C949 C370 0.972 . S
C953 C403 0.968 . S
C967 C21 0.485 . S
C971 C516 0.469 . S
C985 C417 0.478 . S
C989 C54 0.475 . S
C1003 C87 0.472 . S
C1007 C450 0.481 . S
C1021 C120 0.477 . S
C1025 C483 0.480 . S
C1039 C318 0.482 . S
C1043 C153 0.471 . S
C1057 C351 0.485 . S
C1061 C186 0.470 . S
C1075 C384 0.486 . S
C1079 C219 0.469 . S
C1093 C285 0.471 . S
C1097 C252 0.485 . S
C1111 N13 0.853 . S
C1115 N145 0.829 . S
C1129 N46 0.830 . S
C1133 N178 0.853 . S
C1147 N79 0.853 . S
C1151 N211 0.842 . S
C1165 N244 0.838 . S
C1169 N112 0.814 . S
C1183 N277 0.853 . S
C1187 N409 0.841 . S
C1201 N310 0.837 . S
C1205 N442 0.814 . S
C1219 N475 0.813 . S
C1223 N343 0.829 . S
C1237 N376 0.840 . S
C1241 N508 0.815 . S
