# Generated by pormake.
# Topology wjk, (5)-cn, num edge types: 1
# Building blocks:
#     Node 0, Type 0, BuildingBlock: XOMCOT_clean_sbu_1, # of connection points: 5
#     Node 1, Type 0, BuildingBlock: XOMCOT_clean_sbu_1, # of connection points: 5
#     Node 2, Type 0, BuildingBlock: XOMCOT_clean_sbu_1, # of connection points: 5
#     Node 3, Type 0, BuildingBlock: XOMCOT_clean_sbu_1, # of connection points: 5
#     Node 4, Type 0, BuildingBlock: XOMCOT_clean_sbu_1, # of connection points: 5
#     Node 5, Type 0, BuildingBlock: XOMCOT_clean_sbu_1, # of connection points: 5
#     Node 6, Type 0, BuildingBlock: XOMCOT_clean_sbu_1, # of connection points: 5
#     Node 7, Type 0, BuildingBlock: XOMCOT_clean_sbu_1, # of connection points: 5
#     Node 8, Type 0, BuildingBlock: XOMCOT_clean_sbu_1, # of connection points: 5
#     Node 9, Type 0, BuildingBlock: XOMCOT_clean_sbu_1, # of connection points: 5
#     Node 10, Type 0, BuildingBlock: XOMCOT_clean_sbu_1, # of connection points: 5
#     Node 11, Type 0, BuildingBlock: XOMCOT_clean_sbu_1, # of connection points: 5
#     Edge 12, Type (0, 0), BuildingBlock: UVAHIK_clean_linker_0, # of connection points: 2
#     Edge 13, Type (0, 0), BuildingBlock: UVAHIK_clean_linker_0, # of connection points: 2
#     Edge 14, Type (0, 0), BuildingBlock: UVAHIK_clean_linker_0, # of connection points: 2
#     Edge 15, Type (0, 0), BuildingBlock: UVAHIK_clean_linker_0, # of connection points: 2
#     Edge 16, Type (0, 0), BuildingBlock: UVAHIK_clean_linker_0, # of connection points: 2
#     Edge 17, Type (0, 0), BuildingBlock: UVAHIK_clean_linker_0, # of connection points: 2
#     Edge 18, Type (0, 0), BuildingBlock: UVAHIK_clean_linker_0, # of connection points: 2
#     Edge 19, Type (0, 0), BuildingBlock: UVAHIK_clean_linker_0, # of connection points: 2
#     Edge 20, Type (0, 0), BuildingBlock: UVAHIK_clean_linker_0, # of connection points: 2
#     Edge 21, Type (0, 0), BuildingBlock: UVAHIK_clean_linker_0, # of connection points: 2
#     Edge 22, Type (0, 0), BuildingBlock: UVAHIK_clean_linker_0, # of connection points: 2
#     Edge 23, Type (0, 0), BuildingBlock: UVAHIK_clean_linker_0, # of connection points: 2
#     Edge 24, Type (0, 0), BuildingBlock: UVAHIK_clean_linker_0, # of connection points: 2
#     Edge 25, Type (0, 0), BuildingBlock: UVAHIK_clean_linker_0, # of connection points: 2
#     Edge 26, Type (0, 0), BuildingBlock: UVAHIK_clean_linker_0, # of connection points: 2
#     Edge 27, Type (0, 0), BuildingBlock: UVAHIK_clean_linker_0, # of connection points: 2
#     Edge 28, Type (0, 0), BuildingBlock: UVAHIK_clean_linker_0, # of connection points: 2
#     Edge 29, Type (0, 0), BuildingBlock: UVAHIK_clean_linker_0, # of connection points: 2
#     Edge 30, Type (0, 0), BuildingBlock: UVAHIK_clean_linker_0, # of connection points: 2
#     Edge 31, Type (0, 0), BuildingBlock: UVAHIK_clean_linker_0, # of connection points: 2
#     Edge 32, Type (0, 0), BuildingBlock: UVAHIK_clean_linker_0, # of connection points: 2
#     Edge 33, Type (0, 0), BuildingBlock: UVAHIK_clean_linker_0, # of connection points: 2
#     Edge 34, Type (0, 0), BuildingBlock: UVAHIK_clean_linker_0, # of connection points: 2
#     Edge 35, Type (0, 0), BuildingBlock: UVAHIK_clean_linker_0, # of connection points: 2
#     Edge 36, Type (0, 0), BuildingBlock: UVAHIK_clean_linker_0, # of connection points: 2
#     Edge 37, Type (0, 0), BuildingBlock: UVAHIK_clean_linker_0, # of connection points: 2
#     Edge 38, Type (0, 0), BuildingBlock: UVAHIK_clean_linker_0, # of connection points: 2
#     Edge 39, Type (0, 0), BuildingBlock: UVAHIK_clean_linker_0, # of connection points: 2
#     Edge 40, Type (0, 0), BuildingBlock: UVAHIK_clean_linker_0, # of connection points: 2
#     Edge 41, Type (0, 0), BuildingBlock: UVAHIK_clean_linker_0, # of connection points: 2
# Relax obj value: 0.514
# Max RMSD: 0.263
# Mean RMSD: 0.263
data_MOF--net-wjk--node1-XOMCOT_clean_sbu_1--edge1-UVAHIK_clean_linker_0
_symmetry_space_group_name_H-M    P1
_symmetry_Int_Tables_number       1
_symmetry_cell_setting            triclinic
loop_
_symmetry_equiv_pos_as_xyz
'x, y, z'
_cell_length_a     41.282392
_cell_length_b     41.284244
_cell_length_c     92.349346
_cell_angle_alpha  90.034909
_cell_angle_beta   90.032153
_cell_angle_gamma 119.97959
loop_
_atom_site_label
_atom_site_type_symbol
_atom_site_fract_x
_atom_site_fract_y
_atom_site_fract_z
_atom_type_partial_charge
C0 C 0.12453 0.23021 0.2498 0.0
C1 C 0.09239 0.19589 0.25007 0.0
N2 N 0.10199 0.16918 0.24895 0.0
N3 N 0.15417 0.22511 0.24841 0.0
C4 C 0.13965 0.18779 0.24792 0.0
H5 H 0.12637 0.25715 0.251 0.0
Co6 Co 0.20413 0.26164 0.24932 0.0
C7 C 0.23195 0.2401 0.22302 0.0
O8 O 0.24639 0.2744 0.21805 0.0
N9 N 0.25443 0.29858 0.25115 0.0
C10 C 0.30444 0.3485 0.26024 0.0
C11 C 0.26611 0.32734 0.26056 0.0
C12 C 0.28642 0.30171 0.2459 0.0
N13 N 0.31706 0.33236 0.2509 0.0
O14 O 0.21085 0.2372 0.2657 0.0
H15 H 0.2478 0.33247 0.26735 0.0
H16 H 0.28796 0.28142 0.23905 0.0
O17 O 0.2162 0.23193 0.23551 0.0
C18 C 0.19711 0.24418 0.27685 0.0
O19 O 0.18024 0.2638 0.27521 0.0
N20 N 0.19607 0.28768 0.23418 0.0
C21 C 0.17352 0.325 0.21517 0.0
C22 C 0.16655 0.28899 0.21193 0.0
C23 C 0.17712 0.27037 0.22178 0.0
C24 C 0.20268 0.32275 0.23744 0.0
C25 C 0.19179 0.342 0.22805 0.0
H26 H 0.16853 0.2414 0.21973 0.0
H27 H 0.21407 0.33513 0.2478 0.0
H28 H 0.15663 0.17467 0.24713 0.0
H29 H 0.06433 0.19109 0.25156 0.0
H30 H 0.32157 0.37416 0.26617 0.0
H31 H 0.15086 0.27445 0.20234 0.0
H32 H 0.19603 0.36918 0.23113 0.0
C33 C 0.86195 0.10132 0.59454 0.0
C34 C 0.87006 0.07285 0.5944 0.0
N35 N 0.9029 0.08499 0.58749 0.0
N36 N 0.88945 0.13131 0.58776 0.0
C37 C 0.9141 0.12063 0.5836 0.0
H38 H 0.83754 0.10029 0.59931 0.0
Co39 Co 0.88952 0.17593 0.58551 0.0
C40 C 0.94278 0.2143 0.56104 0.0
O41 O 0.92044 0.22527 0.55556 0.0
N42 N 0.88896 0.22103 0.58387 0.0
C43 C 0.87114 0.26377 0.58468 0.0
C44 C 0.8592 0.2262 0.58499 0.0
C45 C 0.91877 0.25611 0.58339 0.0
N46 N 0.90861 0.28248 0.58359 0.0
O47 O 0.92107 0.19568 0.602 0.0
H48 H 0.83055 0.20448 0.58639 0.0
H49 H 0.94752 0.2623 0.58318 0.0
O50 O 0.9335 0.19497 0.57271 0.0
C51 C 0.90065 0.18872 0.6132 0.0
O52 O 0.86417 0.17138 0.61146 0.0
N53 N 0.85534 0.15402 0.57023 0.0
C54 C 0.79621 0.11271 0.55135 0.0
C55 C 0.83308 0.12525 0.54703 0.0
C56 C 0.86225 0.14478 0.55683 0.0
C57 C 0.81938 0.14039 0.57475 0.0
C58 C 0.78933 0.11995 0.56544 0.0
H59 H 0.88973 0.15038 0.55379 0.0
H60 H 0.8139 0.14398 0.5859 0.0
H61 H 0.93951 0.13841 0.57769 0.0
H62 H 0.85326 0.04554 0.59923 0.0
H63 H 0.8536 0.27635 0.58511 0.0
H64 H 0.83907 0.11808 0.53646 0.0
H65 H 0.761 0.10909 0.56933 0.0
C66 C 0.74068 0.87198 0.93315 0.0
C67 C 0.77708 0.87994 0.93436 0.0
N68 N 0.79649 0.90122 0.92298 0.0
N69 N 0.73703 0.88819 0.92109 0.0
C70 C 0.77149 0.90583 0.91508 0.0
H71 H 0.71814 0.85521 0.94054 0.0
Co72 Co 0.69179 0.883 0.91516 0.0
C73 C 0.70941 0.93457 0.88966 0.0
O74 O 0.67594 0.91391 0.88405 0.0
N75 N 0.6452 0.87686 0.90969 0.0
C76 C 0.58544 0.85225 0.90341 0.0
C77 C 0.61429 0.84518 0.90543 0.0
C78 C 0.63413 0.90264 0.91038 0.0
N79 N 0.59796 0.88845 0.90653 0.0
O80 O 0.69667 0.91791 0.92962 0.0
H81 H 0.61228 0.8183 0.904 0.0
H82 H 0.65227 0.93125 0.9138 0.0
O83 O 0.71818 0.92445 0.90143 0.0
C84 C 0.67893 0.90311 0.94125 0.0
O85 O 0.65742 0.86657 0.94177 0.0
N86 N 0.68687 0.84643 0.90198 0.0
C87 C 0.6781 0.78461 0.88667 0.0
C88 C 0.69324 0.81956 0.87994 0.0
C89 C 0.69819 0.85043 0.88789 0.0
C90 C 0.67243 0.81258 0.90869 0.0
C91 C 0.6679 0.7812 0.90124 0.0
H92 H 0.71228 0.87721 0.88269 0.0
H93 H 0.6646 0.81013 0.91999 0.0
H94 H 0.778 0.92107 0.90498 0.0
H95 H 0.78844 0.8711 0.94307 0.0
H96 H 0.55746 0.83224 0.89983 0.0
H97 H 0.70273 0.82327 0.86881 0.0
H98 H 0.65685 0.75468 0.90682 0.0
C99 C 0.82699 0.71589 0.23584 0.0
C100 C 0.85613 0.74669 0.24235 0.0
N101 N 0.85316 0.7769 0.239 0.0
N102 N 0.80611 0.7268 0.22834 0.0
C103 C 0.82248 0.76393 0.23055 0.0
H104 H 0.8212 0.68733 0.23656 0.0
Co105 Co 0.76267 0.69582 0.21827 0.0
C106 C 0.77204 0.74481 0.19277 0.0
O107 O 0.7698 0.7191 0.18376 0.0
N108 N 0.71762 0.66338 0.20886 0.0
C109 C 0.66339 0.63525 0.19695 0.0
C110 C 0.69634 0.66836 0.19895 0.0
C111 C 0.69616 0.62755 0.21312 0.0
N112 N 0.66346 0.60973 0.20595 0.0
O113 O 0.73585 0.70671 0.23232 0.0
H114 H 0.70252 0.69456 0.19411 0.0
H115 H 0.70401 0.61487 0.22165 0.0
O116 O 0.76903 0.73843 0.20641 0.0
C117 C 0.72953 0.6865 0.24354 0.0
O118 O 0.73732 0.6593 0.24303 0.0
N119 N 0.79063 0.68377 0.20539 0.0
C120 C 0.8413 0.66519 0.19355 0.0
C121 C 0.84956 0.70245 0.19394 0.0
C122 C 0.82403 0.7112 0.20002 0.0
C123 C 0.78196 0.64724 0.20473 0.0
C124 C 0.80661 0.63725 0.19859 0.0
H125 H 0.83233 0.74035 0.2013 0.0
H126 H 0.75738 0.62571 0.20996 0.0
H127 H 0.81224 0.78117 0.22592 0.0
H128 H 0.8775 0.74669 0.24913 0.0
H129 H 0.64018 0.63096 0.19016 0.0
H130 H 0.8763 0.72484 0.19019 0.0
H131 H 0.79971 0.60825 0.19874 0.0
C132 C 0.11613 0.84216 0.56134 0.0
C133 C 0.11304 0.87275 0.56517 0.0
N134 N 0.07702 0.86377 0.56357 0.0
N135 N 0.08229 0.81418 0.55725 0.0
C136 C 0.05903 0.82805 0.55881 0.0
H137 H 0.14134 0.84031 0.56161 0.0
Co138 Co 0.07073 0.76661 0.55139 0.0
C139 C 0.99617 0.73637 0.53843 0.0
O140 O 0.98458 0.7058 0.54614 0.0
N141 N 0.05955 0.71875 0.54546 0.0
C142 C 0.04856 0.67005 0.5317 0.0
C143 C 0.05442 0.70589 0.53171 0.0
C144 C 0.05667 0.69025 0.55359 0.0
N145 N 0.0499 0.66031 0.54549 0.0
O146 O 0.03904 0.74676 0.56795 0.0
H147 H 0.05496 0.72164 0.52226 0.0
H148 H 0.06006 0.69141 0.56521 0.0
O149 O 0.02993 0.76288 0.53957 0.0
C150 C 0.05916 0.74878 0.57877 0.0
O151 O 0.09483 0.76062 0.57661 0.0
N152 N 0.10454 0.7873 0.5363 0.0
C153 C 0.167 0.82955 0.51927 0.0
C154 C 0.13299 0.82795 0.51607 0.0
C155 C 0.10191 0.80683 0.52489 0.0
C156 C 0.13662 0.78657 0.53892 0.0
C157 C 0.16836 0.80767 0.53054 0.0
H158 H 0.07679 0.80824 0.5231 0.0
H159 H 0.13821 0.77145 0.54821 0.0
H160 H 0.02945 0.81221 0.55642 0.0
H161 H 0.13547 0.89924 0.56908 0.0
H162 H 0.04312 0.65232 0.52231 0.0
H163 H 0.1313 0.8452 0.50761 0.0
H164 H 0.19429 0.80861 0.53337 0.0
C165 C 0.25483 0.11349 0.91837 0.0
C166 C 0.21882 0.1048 0.92147 0.0
N167 N 0.19519 0.07366 0.91406 0.0
N168 N 0.25401 0.08804 0.90903 0.0
C169 C 0.21731 0.06404 0.90661 0.0
H170 H 0.28013 0.13703 0.92257 0.0
Co171 Co 0.29668 0.08939 0.90193 0.0
C172 C 0.27409 0.04852 0.87414 0.0
O173 O 0.30509 0.07545 0.86852 0.0
N174 N 0.3412 0.09098 0.89501 0.0
C175 C 0.39643 0.1072 0.88496 0.0
C176 C 0.36925 0.11673 0.88666 0.0
C177 C 0.35223 0.06578 0.898 0.0
N178 N 0.38583 0.07522 0.89219 0.0
O179 O 0.2899 0.05286 0.91609 0.0
H180 H 0.37016 0.14069 0.88161 0.0
H181 H 0.3363 0.04115 0.90457 0.0
O182 O 0.26678 0.05023 0.88751 0.0
C183 C 0.3093 0.07042 0.92715 0.0
O184 O 0.33182 0.10673 0.92606 0.0
N185 N 0.30351 0.12847 0.88982 0.0
C186 C 0.30866 0.1941 0.87951 0.0
C187 C 0.28043 0.15928 0.87449 0.0
C188 C 0.27808 0.1266 0.87989 0.0
C189 C 0.33061 0.16224 0.89497 0.0
C190 C 0.33445 0.1955 0.88963 0.0
H191 H 0.25414 0.10011 0.87697 0.0
H192 H 0.34856 0.16322 0.9037 0.0
H193 H 0.20697 0.03974 0.89967 0.0
H194 H 0.21074 0.12059 0.92848 0.0
H195 H 0.42183 0.12249 0.87871 0.0
H196 H 0.25925 0.15739 0.86704 0.0
H197 H 0.35571 0.22194 0.89411 0.0
C198 C 0.75762 0.88315 0.41762 0.0
C199 C 0.79297 0.91374 0.41857 0.0
N200 N 0.81774 0.90155 0.41944 0.0
N201 N 0.76004 0.8518 0.41801 0.0
C202 C 0.79693 0.86386 0.41901 0.0
H203 H 0.73182 0.88374 0.41667 0.0
Co204 Co 0.72096 0.80284 0.41684 0.0
C205 C 0.73817 0.76188 0.43906 0.0
O206 O 0.70251 0.74316 0.44245 0.0
N207 N 0.68147 0.75281 0.41524 0.0
C208 C 0.65207 0.69217 0.4096 0.0
C209 C 0.68554 0.72511 0.40927 0.0
C210 C 0.64502 0.73558 0.41922 0.0
N211 N 0.62668 0.69887 0.4159 0.0
O212 O 0.74242 0.79597 0.39969 0.0
H213 H 0.71155 0.72826 0.40526 0.0
H214 H 0.63177 0.749 0.42464 0.0
O215 O 0.74931 0.7864 0.42899 0.0
C216 C 0.73538 0.81006 0.38871 0.0
O217 O 0.71776 0.82885 0.39068 0.0
N218 N 0.69888 0.81222 0.43281 0.0
C219 C 0.67049 0.84315 0.45241 0.0
C220 C 0.69954 0.83662 0.45644 0.0
C221 C 0.7139 0.82183 0.44638 0.0
C222 C 0.67085 0.81864 0.42873 0.0
C223 C 0.65561 0.8332 0.43843 0.0
H224 H 0.73885 0.82108 0.44922 0.0
H225 H 0.66126 0.81374 0.41761 0.0
H226 H 0.80827 0.84524 0.4191 0.0
H227 H 0.79971 0.94265 0.41875 0.0
H228 H 0.64717 0.66509 0.40605 0.0
H229 H 0.71307 0.84556 0.4669 0.0
H230 H 0.63361 0.83828 0.43478 0.0
C231 C 0.90928 0.76718 0.74796 0.0
C232 C 0.91344 0.80217 0.74616 0.0
N233 N 0.94997 0.82785 0.74775 0.0
N234 N 0.94298 0.77087 0.75076 0.0
C235 C 0.9672 0.80793 0.75026 0.0
H236 H 0.88321 0.74087 0.74792 0.0
Co237 Co 0.95311 0.73365 0.75615 0.0
C238 C 0.02906 0.77899 0.76885 0.0
O239 O 0.04237 0.76243 0.76059 0.0
N240 N 0.96273 0.69601 0.76167 0.0
C241 C 0.97061 0.65672 0.77562 0.0
C242 C 0.97413 0.69152 0.77485 0.0
C243 C 0.95235 0.66361 0.75463 0.0
N244 N 0.95669 0.63919 0.76292 0.0
O245 O 0.98396 0.74425 0.73941 0.0
H246 H 0.98208 0.71121 0.7837 0.0
H247 H 0.93914 0.65684 0.7441 0.0
O248 O 0.99467 0.76969 0.76793 0.0
C249 C 0.9626 0.726 0.72888 0.0
O250 O 0.92652 0.70533 0.73133 0.0
N251 N 0.9202 0.7211 0.77154 0.0
C252 C 0.8629 0.69602 0.79177 0.0
C253 C 0.89611 0.73028 0.79377 0.0
C254 C 0.92451 0.74254 0.78342 0.0
C255 C 0.88835 0.6877 0.76951 0.0
C256 C 0.85939 0.67449 0.77953 0.0
H257 H 0.94927 0.76958 0.78478 0.0
H258 H 0.88524 0.67151 0.75986 0.0
H259 H -0.00311 0.82009 0.75209 0.0
H260 H 0.89098 0.80816 0.74461 0.0
H261 H 0.97637 0.64466 0.78498 0.0
H262 H 0.89951 0.74811 0.80293 0.0
H263 H 0.83428 0.6479 0.7776 0.0
C264 C 0.13284 0.88277 0.09181 0.0
C265 C 0.10387 0.89003 0.09059 0.0
N266 N 0.11625 0.92556 0.09487 0.0
N267 N 0.1633 0.91349 0.0969 0.0
C268 C 0.15244 0.93914 0.09858 0.0
H269 H 0.13189 0.85684 0.08907 0.0
Co270 Co 0.20978 0.918 0.1002 0.0
C271 C 0.23597 0.96422 0.1272 0.0
O272 O 0.24735 0.94214 0.13251 0.0
N273 N 0.25762 0.92234 0.1033 0.0
C274 C 0.30333 0.91177 0.11034 0.0
C275 C 0.26701 0.90277 0.11255 0.0
C276 C 0.28969 0.94386 0.09584 0.0
N277 N 0.31742 0.93749 0.09982 0.0
O278 O 0.22976 0.95369 0.0848 0.0
H279 H 0.24914 0.88333 0.1207 0.0
H280 H 0.2928 0.96332 0.0874 0.0
O281 O 0.22118 0.95777 0.11458 0.0
C282 C 0.22183 0.93444 0.07318 0.0
O283 O 0.20477 0.89782 0.07429 0.0
N284 N 0.18739 0.8795 0.1137 0.0
C285 C 0.14679 0.81303 0.12907 0.0
C286 C 0.14884 0.84633 0.13393 0.0
C287 C 0.16892 0.87926 0.12597 0.0
C288 C 0.18435 0.84717 0.1085 0.0
C289 C 0.16525 0.81395 0.11622 0.0
H290 H 0.16798 0.90387 0.12927 0.0
H291 H 0.1972 0.8474 0.09827 0.0
H292 H 0.17072 0.96719 0.10253 0.0
H293 H 0.07609 0.87079 0.0866 0.0
H294 H 0.31848 0.9007 0.11614 0.0
H295 H 0.13353 0.84663 0.1434 0.0
H296 H 0.16439 0.7891 0.11196 0.0
C297 C 0.27196 0.16821 0.44211 0.0
C298 C 0.2401 0.13604 0.43794 0.0
N299 N 0.21081 0.14161 0.43954 0.0
N300 N 0.26256 0.19357 0.44654 0.0
C301 C 0.22522 0.17669 0.44472 0.0
H302 H 0.30018 0.17292 0.44185 0.0
Co303 Co 0.29447 0.24199 0.45282 0.0
C304 C 0.25616 0.24983 0.47863 0.0
O305 O 0.28746 0.26256 0.48594 0.0
N306 N 0.32734 0.29214 0.45897 0.0
C307 C 0.36973 0.34345 0.4706 0.0
C308 C 0.35276 0.30521 0.46989 0.0
C309 C 0.32997 0.32354 0.45319 0.0
N310 N 0.35539 0.35482 0.46004 0.0
O311 O 0.27752 0.25899 0.43687 0.0
H312 H 0.35849 0.28839 0.47725 0.0
H313 H 0.31356 0.32389 0.44414 0.0
O314 O 0.25479 0.2401 0.46538 0.0
C315 C 0.29832 0.2628 0.42606 0.0
O316 O 0.32824 0.25993 0.42831 0.0
N317 N 0.31257 0.2227 0.46694 0.0
C318 C 0.33776 0.17749 0.47897 0.0
C319 C 0.30319 0.17339 0.48311 0.0
C320 C 0.29068 0.19578 0.47672 0.0
C321 C 0.34703 0.22822 0.46337 0.0
C322 C 0.3604 0.20623 0.4694 0.0
H323 H 0.26205 0.18871 0.47849 0.0
H324 H 0.36299 0.24792 0.45492 0.0
H325 H 0.20888 0.18991 0.44715 0.0
H326 H 0.23868 0.11086 0.43376 0.0
H327 H 0.39164 0.36158 0.47803 0.0
H328 H 0.28431 0.15055 0.49005 0.0
H329 H 0.38694 0.20981 0.46577 0.0
C330 C 0.10615 0.27176 0.78317 0.0
C331 C 0.10974 0.24128 0.77965 0.0
N332 N 0.07519 0.21126 0.77848 0.0
N333 N 0.06952 0.26072 0.7844 0.0
C334 C 0.0514 0.22382 0.78146 0.0
H335 H 0.1287 0.30028 0.78438 0.0
Co336 Co 0.04816 0.2904 0.78742 0.0
C337 C 0.99366 0.25014 0.81116 0.0
O338 O 0.00695 0.28135 0.81855 0.0
N339 N 0.0261 0.32097 0.7901 0.0
C340 C 0.00911 0.36114 0.79836 0.0
C341 C 0.02996 0.34439 0.80111 0.0
C342 C 0.00284 0.32464 0.78074 0.0
N343 N 0.99215 0.3487 0.78551 0.0
O344 O 0.02001 0.27023 0.77009 0.0
H345 H 0.04678 0.34936 0.81071 0.0
H346 H 0.99366 0.31017 0.77051 0.0
O347 O 0.00763 0.24999 0.7988 0.0
C348 C 0.04 0.28583 0.75895 0.0
O349 O 0.0747 0.3128 0.76088 0.0
N350 N 0.07945 0.31162 0.80348 0.0
C351 C 0.13888 0.34517 0.82295 0.0
C352 C 0.11075 0.30767 0.82466 0.0
C353 C 0.08165 0.29122 0.81466 0.0
C354 C 0.10665 0.34798 0.80157 0.0
C355 C 0.13626 0.36556 0.81134 0.0
H356 H 0.06246 0.2615 0.81536 0.0
H357 H 0.1059 0.36307 0.79212 0.0
H358 H 0.02124 0.20666 0.78122 0.0
H359 H 0.13564 0.24149 0.77757 0.0
H360 H 0.00757 0.38184 0.80507 0.0
H361 H 0.11255 0.29029 0.83303 0.0
H362 H 0.15762 0.39434 0.80948 0.0
C363 C 0.88638 0.15627 0.0917 0.0
C364 C 0.91525 0.14912 0.08974 0.0
N365 N 0.90436 0.11456 0.09482 0.0
N366 N 0.85749 0.12646 0.09803 0.0
C367 C 0.86916 0.10144 0.09973 0.0
H368 H 0.88638 0.18158 0.08869 0.0
Co369 Co 0.81233 0.12312 0.1029 0.0
C370 C 0.78398 0.06896 0.1278 0.0
O371 O 0.77111 0.08797 0.13471 0.0
N372 N 0.76607 0.12034 0.10757 0.0
C373 C 0.72208 0.13083 0.11672 0.0
C374 C 0.75864 0.13931 0.1178 0.0
C375 C 0.73302 0.10022 0.10056 0.0
N376 N 0.70607 0.10632 0.10582 0.0
O377 O 0.78949 0.08934 0.08724 0.0
H378 H 0.7781 0.15791 0.12581 0.0
H379 H 0.72859 0.08183 0.09153 0.0
O380 O 0.80053 0.08073 0.11564 0.0
C381 C 0.79389 0.10606 0.07521 0.0
O382 O 0.81192 0.14282 0.07511 0.0
N383 N 0.83727 0.15887 0.11719 0.0
C384 C 0.88579 0.22174 0.1332 0.0
C385 C 0.87789 0.18595 0.13758 0.0
C386 C 0.85402 0.1548 0.12925 0.0
C387 C 0.84435 0.19338 0.11288 0.0
C388 C 0.86825 0.2252 0.1208 0.0
H389 H 0.8511 0.12809 0.132 0.0
H390 H 0.83219 0.19619 0.10291 0.0
H391 H 0.85239 0.0743 0.10464 0.0
H392 H 0.94195 0.16779 0.08478 0.0
H393 H 0.70822 0.14148 0.12357 0.0
H394 H 0.89205 0.18235 0.14679 0.0
H395 H 0.87404 0.25238 0.11698 0.0
C396 C 0.60949 0.55075 0.19756 0.0
C397 C 0.63301 0.57283 0.20881 0.0
C398 C 0.57855 0.51575 0.20053 0.0
C399 C 0.53244 0.44516 0.23009 0.0
H400 H 0.44185 0.42747 0.21059 0.0
C401 C 0.38515 0.37008 0.25487 0.0
C402 C 0.35478 0.34721 0.24586 0.0
C403 C 0.42144 0.38871 0.24932 0.0
C404 C 0.46698 0.43152 0.21594 0.0
H405 H 0.64316 0.57572 0.23191 0.0
H406 H 0.5887 0.51558 0.23723 0.0
H407 H 0.50182 0.47754 0.2023 0.0
H408 H 0.33874 0.32437 0.22418 0.0
H409 H 0.40212 0.35716 0.21449 0.0
H410 H 0.49675 0.40053 0.24439 0.0
C411 C 0.59455 0.52435 0.22603 0.0
C412 C 0.50147 0.4602 0.21116 0.0
C413 C 0.62571 0.559 0.22302 0.0
C414 C 0.3616 0.34164 0.23142 0.0
C415 C 0.3978 0.36053 0.22584 0.0
C416 C 0.4978 0.41676 0.235 0.0
C417 C 0.57022 0.50252 0.21487 0.0
C418 C 0.53455 0.46811 0.21843 0.0
C419 C 0.42787 0.38502 0.23464 0.0
C420 C 0.46476 0.41038 0.22818 0.0
H421 H 0.61497 0.56072 0.18649 0.0
H422 H 0.5608 0.4994 0.19163 0.0
H423 H 0.55744 0.44992 0.23574 0.0
H424 H 0.38069 0.37448 0.26608 0.0
H425 H 0.44416 0.40768 0.25631 0.0
C426 C 0.02575 0.61004 0.56373 0.0
C427 C 0.0441 0.62487 0.55055 0.0
C428 C 0.01811 0.57463 0.56825 0.0
C429 C 0.00775 0.48643 0.55353 0.0
H430 H 0.00167 0.46074 0.59421 0.0
C431 C 0.9629 0.33681 0.57252 0.0
C432 C 0.93227 0.32221 0.58203 0.0
C433 C 0.98311 0.37518 0.56966 0.0
C434 C 0.00343 0.46763 0.58282 0.0
H435 H 0.0705 0.61526 0.5321 0.0
H436 H 0.05827 0.55388 0.54014 0.0
H437 H 0.02577 0.52584 0.58719 0.0
H438 H 0.90011 0.33619 0.59664 0.0
H439 H 0.93572 0.40335 0.59181 0.0
H440 H 0.98536 0.42813 0.54922 0.0
C441 C 0.04863 0.56897 0.5468 0.0
C442 C 0.01698 0.50483 0.57878 0.0
C443 C 0.05576 0.60416 0.54219 0.0
C444 C 0.92341 0.34679 0.58918 0.0
C445 C 0.94395 0.38517 0.5865 0.0
C446 C 0.99472 0.44936 0.55757 0.0
C447 C 0.02914 0.55344 0.55978 0.0
C448 C 0.01851 0.5146 0.56408 0.0
C449 C 0.97342 0.39961 0.57646 0.0
C450 C 0.99169 0.4395 0.57226 0.0
H451 H 0.0161 0.62527 0.5703 0.0
H452 H 0.00244 0.56344 0.57816 0.0
H453 H 0.00788 0.49263 0.54214 0.0
H454 H 0.9701 0.31836 0.56681 0.0
H455 H 0.00581 0.38568 0.56191 0.0
C456 C 0.38877 0.01759 0.89668 0.0
C457 C 0.40689 0.05619 0.89384 0.0
C458 C 0.40943 -0.00062 0.89835 0.0
C459 C 0.50111 0.00894 0.88966 0.0
H460 H 0.4757 0.93521 0.91999 0.0
C461 C 0.59508 0.94647 0.90335 0.0
C462 C 0.57697 0.90773 0.90586 0.0
C463 C 0.5745 0.96487 0.90226 0.0
C464 C 0.48292 0.95547 0.91138 0.0
H465 H 0.46107 0.10597 0.89089 0.0
H466 H 0.49692 0.07429 0.89373 0.0
H467 H 0.43897 0.96628 0.91716 0.0
H468 H 0.52306 0.8582 0.90958 0.0
H469 H 0.48717 0.89011 0.90743 0.0
H470 H 0.54495 -0.0019 0.88383 0.0
C471 C 0.46672 0.05795 0.89442 0.0
C472 C 0.46186 0.97323 0.90975 0.0
C473 C 0.44611 0.07612 0.89277 0.0
C474 C 0.53787 0.88795 0.90746 0.0
C475 C 0.51731 0.90633 0.90639 0.0
C476 C 0.52214 0.99118 0.89128 0.0
C477 C 0.44864 0.01937 0.8972 0.0
C478 C 0.47073 0.00019 0.89888 0.0
C479 C 0.53535 0.94496 0.9037 0.0
C480 C 0.5133 0.96424 0.90215 0.0
H481 H 0.35861 0.0013 0.8974 0.0
H482 H 0.39464 0.96952 0.9003 0.0
H483 H 0.50832 0.02916 0.88103 0.0
H484 H 0.62509 0.96249 0.90194 0.0
H485 H 0.58928 0.99474 0.90034 0.0
C486 C 0.57324 0.67454 0.43275 0.0
C487 C 0.58897 0.67151 0.41969 0.0
C488 C 0.53853 0.64554 0.43731 0.0
C489 C 0.45418 0.55807 0.426 0.0
H490 H 0.46395 0.5215 0.46345 0.0
C491 C 0.37355 0.40317 0.44132 0.0
C492 C 0.36805 0.39282 0.45596 0.0
C493 C 0.39158 0.44087 0.43743 0.0
C494 C 0.45995 0.53159 0.45317 0.0
H495 H 0.57971 0.63731 0.40066 0.0
H496 H 0.51904 0.58652 0.4086 0.0
H497 H 0.51194 0.58258 0.45534 0.0
H498 H 0.37363 0.41297 0.47795 0.0
H499 H 0.40373 0.4789 0.47121 0.0
H500 H 0.40251 0.50663 0.42369 0.0
C501 C 0.53349 0.61126 0.41532 0.0
C502 C 0.48768 0.56671 0.4485 0.0
C503 C 0.56836 0.64006 0.41085 0.0
C504 C 0.37823 0.4205 0.4666 0.0
C505 C 0.39558 0.45817 0.46271 0.0
C506 C 0.42607 0.52305 0.43076 0.0
C507 C 0.51879 0.61323 0.42879 0.0
C508 C 0.48573 0.57971 0.43467 0.0
C509 C 0.40391 0.46893 0.44811 0.0
C510 C 0.42935 0.50876 0.44418 0.0
H511 H 0.58862 0.69839 0.43981 0.0
H512 H 0.52773 0.64774 0.44772 0.0
H513 H 0.45188 0.56771 0.41535 0.0
H514 H 0.36611 0.38225 0.43295 0.0
H515 H 0.39785 0.4479 0.4261 0.0
C516 C 0.9291 0.57373 0.7706 0.0
C517 C 0.94447 0.60079 0.75965 0.0
C518 C 0.91954 0.53688 0.76782 0.0
C519 C 0.89269 0.45747 0.75884 0.0
H520 H 0.98047 0.45538 0.74531 0.0
C521 C 0.97288 0.36562 0.76273 0.0
C522 C 0.97039 0.3616 0.77787 0.0
C523 C 0.95658 0.38381 0.75562 0.0
C524 C 0.9551 0.45488 0.7487 0.0
H525 H 0.96019 0.61043 0.73704 0.0
H526 H 0.94415 0.54559 0.73217 0.0
H527 H 0.97532 0.51068 0.74121 0.0
H528 H 0.94602 0.36998 0.79724 0.0
H529 H 0.91809 0.40214 0.78498 0.0
H530 H 0.87389 0.40266 0.76731 0.0
C531 C 0.93933 0.55302 0.74288 0.0
C532 C 0.95217 0.48669 0.74634 0.0
C533 C 0.9485 0.58998 0.74565 0.0
C534 C 0.94886 0.37334 0.78561 0.0
C535 C 0.9324 0.39125 0.77852 0.0
C536 C 0.8956 0.42562 0.76119 0.0
C537 C 0.9254 0.52629 0.75403 0.0
C538 C 0.9221 0.48915 0.75221 0.0
C539 C 0.93728 0.39797 0.76353 0.0
C540 C 0.92798 0.42503 0.75695 0.0
H541 H 0.92503 0.58122 0.78141 0.0
H542 H 0.90943 0.51714 0.77671 0.0
H543 H 0.86882 0.4584 0.76321 0.0
H544 H 0.98935 0.35684 0.7565 0.0
H545 H 0.96061 0.38843 0.74406 0.0
C546 C 0.37018 0.93185 0.09087 0.0
C547 C 0.35473 0.95435 0.09428 0.0
C548 C 0.40813 0.94799 0.08771 0.0
C549 C 0.49621 0.03903 0.08171 0.0
H550 H 0.54016 0.9873 0.10144 0.0
C551 C 0.64868 0.10983 0.10216 0.0
C552 C 0.66806 0.09005 0.10084 0.0
C553 C 0.61122 0.09337 0.09802 0.0
C554 C 0.52836 0.0018 0.09564 0.0
H555 H 0.36568 0.01105 0.09637 0.0
H556 H 0.43271 0.03974 0.0915 0.0
H557 H 0.47278 0.95825 0.09987 0.0
H558 H 0.66367 0.03789 0.09381 0.0
H559 H 0.59809 0.00904 0.08662 0.0
H560 H 0.55241 0.08354 0.07824 0.0
C561 C 0.41552 0.00962 0.09084 0.0
C562 C 0.48961 0.98509 0.09468 0.0
C563 C 0.37724 0.99334 0.09369 0.0
C564 C 0.64953 0.05387 0.0949 0.0
C565 C 0.61197 0.0373 0.09086 0.0
C566 C 0.53512 0.05596 0.08282 0.0
C567 C 0.43163 0.98703 0.0883 0.0
C568 C 0.47295 0.00364 0.08787 0.0
C569 C 0.59231 0.05669 0.09258 0.0
C570 C 0.5515 0.03766 0.08997 0.0
H571 H 0.35297 0.90167 0.09108 0.0
H572 H 0.41929 0.92976 0.08536 0.0
H573 H 0.48437 0.05389 0.07621 0.0
H574 H 0.66241 0.13795 0.10649 0.0
H575 H 0.59666 0.10884 0.09958 0.0
C576 C 0.31221 0.2707 0.39966 0.0
C577 C 0.28697 0.26433 0.41099 0.0
C578 C 0.30066 0.26654 0.38525 0.0
C579 C 0.22898 0.26315 0.36078 0.0
H580 H 0.25964 0.20742 0.33593 0.0
C581 C 0.17636 0.22925 0.30234 0.0
C582 C 0.20284 0.23481 0.29167 0.0
C583 C 0.18428 0.22823 0.31696 0.0
C584 C 0.25111 0.22332 0.34267 0.0
H585 H 0.2301 0.25011 0.41605 0.0
H586 H 0.2099 0.24326 0.3907 0.0
H587 H 0.27838 0.21725 0.36135 0.0
H588 H 0.25768 0.24186 0.28777 0.0
H589 H 0.27207 0.24078 0.31344 0.0
H590 H 0.20246 0.27006 0.34212 0.0
C591 C 0.23869 0.2514 0.39306 0.0
C592 C 0.26182 0.22893 0.35724 0.0
C593 C 0.25026 0.25545 0.40756 0.0
C594 C 0.23664 0.23712 0.2958 0.0
C595 C 0.24484 0.2366 0.31051 0.0
C596 C 0.21847 0.25776 0.3462 0.0
C597 C 0.26359 0.25602 0.38178 0.0
C598 C 0.25106 0.24911 0.36643 0.0
C599 C 0.21918 0.23338 0.32129 0.0
C600 C 0.22947 0.23784 0.33693 0.0
H601 H 0.34079 0.27788 0.40191 0.0
H602 H 0.32072 0.27113 0.37681 0.0
H603 H 0.22063 0.27917 0.36755 0.0
H604 H 0.14993 0.2271 0.29941 0.0
H605 H 0.16341 0.22457 0.32489 0.0
C606 C 0.95516 0.22073 0.63035 0.0
C607 C 0.91649 0.19872 0.62795 0.0
C608 C 0.9692 0.23007 0.64449 0.0
C609 C 0.93945 0.2359 0.68187 0.0
H610 H 0.0297 0.23547 0.69311 0.0
C611 C 0.98729 0.24918 0.74154 0.0
C612 C 0.02536 0.27429 0.74411 0.0
C613 C 0.97399 0.23919 0.72735 0.0
C614 C 0.00457 0.23592 0.69009 0.0
H615 H 0.86233 0.16859 0.6385 0.0
H616 H 0.88671 0.18415 0.66292 0.0
H617 H 0.00738 0.22059 0.66817 0.0
H618 H 0.07941 0.3082 0.73386 0.0
H619 H 0.05622 0.2908 0.70925 0.0
H620 H 0.93651 0.25094 0.70381 0.0
C621 C 0.90624 0.19504 0.65397 0.0
C622 C 0.99189 0.22757 0.6758 0.0
C623 C 0.89228 0.18593 0.63993 0.0
C624 C 0.04987 0.28882 0.73226 0.0
C625 C 0.03667 0.27867 0.71814 0.0
C626 C 0.95202 0.24404 0.69616 0.0
C627 C 0.9448 0.21744 0.65646 0.0
C628 C 0.95911 0.22737 0.67152 0.0
C629 C -0.0014 0.25389 0.71551 0.0
C630 C 0.9847 0.24415 0.70043 0.0
H631 H 0.97448 0.23101 0.62133 0.0
H632 H -0.00093 0.24763 0.64603 0.0
H633 H 0.91447 0.23669 0.67889 0.0
H634 H 0.96776 0.2375 0.75045 0.0
H635 H 0.94451 0.21978 0.72564 0.0
C636 C 0.75582 0.04618 0.06145 0.0
C637 C 0.7794 0.08519 0.06152 0.0
C638 C 0.7426 0.02692 0.04834 0.0
C639 C 0.76547 0.03476 0.00966 0.0
H640 H 0.66142 0.95888 0.00461 0.0
C641 C 0.70956 0.96459 0.95434 0.0
C642 C 0.68558 0.92567 0.95451 0.0
C643 C 0.71857 0.98511 0.96723 0.0
C644 C 0.69064 0.97977 0.00588 0.0
H645 H 0.80746 0.13458 0.04795 0.0
H646 H 0.78458 0.10101 0.02521 0.0
H647 H 0.68243 0.99158 0.02775 0.0
H648 H 0.65123 0.87794 0.96823 0.0
H649 H 0.66746 0.91348 0.99063 0.0
H650 H 0.77407 0.02259 0.98798 0.0
C651 C 0.77644 0.08529 0.03523 0.0
C652 C 0.70262 -0.00156 0.01914 0.0
C653 C 0.78937 0.10451 0.04828 0.0
C654 C 0.66979 0.90791 0.96772 0.0
C655 C 0.67894 0.92836 0.98058 0.0
C656 C 0.75358 0.01594 0.99646 0.0
C657 C 0.75304 0.04631 0.03511 0.0
C658 C 0.74016 0.02613 0.02114 0.0
C659 C 0.70392 0.96711 0.98054 0.0
C660 C 0.71603 0.98819 0.9944 0.0
H661 H 0.74759 0.03056 0.07149 0.0
H662 H 0.72477 0.9968 0.04854 0.0
H663 H 0.7947 0.05563 0.01096 0.0
H664 H 0.722 0.9791 0.94432 0.0
H665 H 0.73737 0.01504 0.96678 0.0
C666 C 0.74365 0.76936 0.37072 0.0
C667 C 0.74188 0.80172 0.37382 0.0
C668 C 0.74353 0.75854 0.35635 0.0
C669 C 0.71545 0.77237 0.31972 0.0
H670 H 0.76691 0.72023 0.30736 0.0
C671 C 0.72732 0.73396 0.25992 0.0
C672 C 0.72245 0.69808 0.25778 0.0
C673 C 0.72789 0.7471 0.27396 0.0
C674 C 0.75217 0.73455 0.31071 0.0
H675 H 0.74121 0.84949 0.36444 0.0
H676 H 0.74253 0.83153 0.33945 0.0
H677 H 0.77534 0.74411 0.33204 0.0
H678 H 0.71165 0.64691 0.26856 0.0
H679 H 0.71265 0.66986 0.29291 0.0
H680 H 0.69284 0.76319 0.29821 0.0
C681 C 0.74258 0.81366 0.34802 0.0
C682 C 0.75694 0.74817 0.32485 0.0
C683 C 0.74219 0.82417 0.36235 0.0
C684 C 0.71584 0.67484 0.26984 0.0
C685 C 0.71665 0.68802 0.2838 0.0
C686 C 0.71103 0.75908 0.30551 0.0
C687 C 0.74212 0.78015 0.34482 0.0
C688 C 0.73841 0.76701 0.32958 0.0
C689 C 0.72381 0.72462 0.28603 0.0
C690 C 0.72903 0.7397 0.30093 0.0
H691 H 0.74316 0.7514 0.37937 0.0
H692 H 0.74288 0.73239 0.35432 0.0
H693 H 0.70016 0.78611 0.32303 0.0
H694 H 0.73267 0.75257 0.25084 0.0
H695 H 0.73341 0.77546 0.2754 0.0
C696 C 0.01596 0.74687 0.59829 0.0
C697 C 0.04445 0.74013 0.59366 0.0
C698 C 0.00655 0.74394 0.61301 0.0
C699 C 0.01219 0.70213 0.64742 0.0
H700 H 0.00977 0.78567 0.66558 0.0
C701 C 0.95611 0.69636 0.70489 0.0
C702 C 0.97664 0.72707 0.7141 0.0
C703 C 0.9662 0.69772 0.69042 0.0
C704 C 0.01068 0.76232 0.66065 0.0
H705 H 0.08418 0.72343 0.60054 0.0
H706 H 0.06718 0.71745 0.62604 0.0
H707 H 0.02042 0.78655 0.63943 0.0
H708 H 0.02426 0.7831 0.71552 0.0
H709 H 0.04181 0.78578 0.68989 0.0
H710 H 0.00227 0.67776 0.66856 0.0
C711 C 0.05233 0.72529 0.61842 0.0
C712 C 0.01623 0.76258 0.64569 0.0
C713 C 0.06211 0.7288 0.60383 0.0
C714 C 0.00814 0.759 0.70864 0.0
C715 C 0.01792 0.76062 0.694 0.0
C716 C 0.0062 0.70166 0.66231 0.0
C717 C 0.02502 0.73355 0.62323 0.0
C718 C 0.01711 0.7325 0.63894 0.0
C719 C -0.00322 0.73003 0.68475 0.0
C720 C 0.00541 0.73174 0.66909 0.0
H721 H 0.0022 0.75599 0.59067 0.0
H722 H 0.98517 0.75019 0.61644 0.0
H723 H 0.01269 0.67855 0.64249 0.0
H724 H 0.93175 0.67131 0.70883 0.0
H725 H 0.94925 0.67385 0.68354 0.0
C726 C 0.27267 0.0173 0.94444 0.0
C727 C 0.30369 0.0526 0.94153 0.0
C728 C 0.26487 0.00371 0.95867 0.0
C729 C 0.30587 0.01975 0.99586 0.0
H730 H 0.20214 0.97251 0.00782 0.0
C731 C 0.25958 0.98803 0.05613 0.0
C732 C 0.23046 0.95134 0.05859 0.0
C733 C 0.26889 0.00175 0.04192 0.0
C734 C 0.23123 0.98557 0.00463 0.0
H735 H 0.35192 0.1004 0.95113 0.0
H736 H 0.33815 0.07714 0.97572 0.0
H737 H 0.21843 0.99083 0.98262 0.0
H738 H 0.18737 0.90084 0.04824 0.0
H739 H 0.20326 0.92475 0.02374 0.0
H740 H 0.31854 0.01475 0.01799 0.0
C741 C 0.31991 0.05964 0.96713 0.0
C742 C 0.24055 0.99578 0.99015 0.0
C743 C 0.32768 0.07311 0.95298 0.0
C744 C 0.21012 0.92919 0.04671 0.0
C745 C 0.21904 0.94296 0.03264 0.0
C746 C 0.29654 0.00974 0.01037 0.0
C747 C 0.28797 0.02516 0.97024 0.0
C748 C 0.27798 0.01289 0.98555 0.0
C749 C 0.24876 0.97918 0.03004 0.0
C750 C 0.2591 0.99236 0.01489 0.0
H751 H 0.25366 0.00086 0.93584 0.0
H752 H 0.24038 0.97671 0.96064 0.0
H753 H 0.33494 0.03248 0.99269 0.0
H754 H 0.27576 0.00561 0.06509 0.0
H755 H 0.29183 0.0299 0.04022 0.0
C756 C 0.03921 0.11336 0.24633 0.0
C757 C 0.07745 0.12926 0.24959 0.0
C758 C 0.01542 0.07472 0.24702 0.0
C759 C 0.01536 0.98662 0.24437 0.0
H760 H 0.9178 0.94437 0.26245 0.0
C761 C 0.91569 0.8276 0.24648 0.0
C762 C 0.87814 0.81526 0.243 0.0
C763 C 0.94052 0.86538 0.24925 0.0
C764 C 0.94484 0.95574 0.25727 0.0
H765 H 0.12033 0.11664 0.25644 0.0
H766 H 0.07893 0.04929 0.25728 0.0
H767 H 0.96025 0.01185 0.26312 0.0
H768 H 0.83685 0.83279 0.24055 0.0
H769 H 0.88027 0.89858 0.24482 0.0
H770 H -0.00028 0.9309 0.23807 0.0
C771 C 0.06754 0.06687 0.25413 0.0
C772 C 0.96911 0.99433 0.25768 0.0
C773 C 0.09128 0.10551 0.25357 0.0
C774 C 0.86572 0.84136 0.24288 0.0
C775 C 0.89055 0.8791 0.24556 0.0
C776 C 0.991 0.94808 0.24385 0.0
C777 C 0.02941 0.05113 0.25086 0.0
C778 C 0.00443 0.01013 0.2511 0.0
C779 C 0.92837 0.89166 0.24856 0.0
C780 C 0.95529 0.93223 0.25015 0.0
H781 H 0.02765 0.13064 0.24303 0.0
H782 H 0.98619 0.06321 0.24424 0.0
H783 H 0.04231 -0.00184 0.23909 0.0
H784 H 0.92627 0.80834 0.24662 0.0
H785 H 0.96937 0.87406 0.25175 0.0
C786 C 0.90162 0.02478 0.58475 0.0
C787 C 0.92181 0.0641 0.5849 0.0
C788 C 0.91985 0.00438 0.58265 0.0
C789 C 0.00568 0.01072 0.56797 0.0
H790 H 0.97698 0.92341 0.59195 0.0
C791 C 0.08323 0.92641 0.56594 0.0
C792 C 0.06098 0.88722 0.5664 0.0
C793 C 0.06754 0.94907 0.56851 0.0
C794 C 0.98506 0.94747 0.58506 0.0
H795 H 0.97724 0.1127 0.58286 0.0
H796 H 0.00902 0.07697 0.57906 0.0
H797 H 0.94729 0.96102 0.59566 0.0
H798 H 0.00476 0.84126 0.57019 0.0
H799 H 0.97733 0.88059 0.5743 0.0
H800 H 0.04318 0.9969 0.55726 0.0
C801 C 0.97897 0.06203 0.5805 0.0
C802 C 0.96807 0.96905 0.5872 0.0
C803 C 0.96071 0.0825 0.58265 0.0
C804 C 0.0227 0.87127 0.56956 0.0
C805 C 0.00702 0.89388 0.57211 0.0
C806 C 0.02263 0.98904 0.5658 0.0
C807 C 0.95874 0.02273 0.58059 0.0
C808 C 0.97794 0.00073 0.5786 0.0
C809 C 0.02923 0.93306 0.57161 0.0
C810 C 0.01229 0.95698 0.57424 0.0
H811 H 0.87159 0.00962 0.58612 0.0
H812 H 0.90337 0.97413 0.58248 0.0
H813 H 0.01362 0.03476 0.56108 0.0
H814 H 0.11271 0.93968 0.56341 0.0
H815 H 0.08551 0.97915 0.56819 0.0
C816 C 0.1339 0.03366 0.90219 0.0
C817 C 0.15486 0.05488 0.91416 0.0
C818 C 0.0948 0.016 0.90228 0.0
C819 C 0.01465 0.98179 0.92733 0.0
H820 H 0.95999 0.98412 0.89355 0.0
C821 C 0.85666 0.94982 0.91254 0.0
C822 C 0.8358 0.91611 0.92016 0.0
C823 C 0.89534 0.96544 0.91078 0.0
C824 C 0.97488 0.98338 0.90309 0.0
H825 H 0.15096 0.07363 0.93569 0.0
H826 H 0.08311 0.04338 0.93579 0.0
H827 H 0.02823 0.01441 0.89268 0.0
H828 H 0.83893 0.87134 0.93114 0.0
H829 H 0.90604 0.89841 0.92807 0.0
H830 H 0.96166 0.95155 0.93787 0.0
C831 C 0.09681 0.04016 0.92635 0.0
C832 C 0.01392 0.00038 0.90254 0.0
C833 C 0.13579 0.05787 0.92623 0.0
C834 C 0.85425 0.89776 0.92552 0.0
C835 C 0.89277 0.91329 0.92375 0.0
C836 C 0.97574 0.96475 0.92787 0.0
C837 C 0.07581 0.01898 0.9144 0.0
C838 C 0.03426 -3e-05 0.9147 0.0
C839 C 0.91392 0.94764 0.91659 0.0
C840 C 0.95535 0.96538 0.91577 0.0
H841 H 0.1477 0.03109 0.89266 0.0
H842 H 0.07942 -0.00034 0.89294 0.0
H843 H 0.02939 0.98059 0.93684 0.0
H844 H 0.84335 0.96478 0.90836 0.0
H845 H 0.91084 0.99208 0.9053 0.0
C846 C 0.87914 0.90871 0.4261 0.0
C847 C 0.85791 0.92399 0.42055 0.0
C848 C 0.91798 0.93058 0.42729 0.0
C849 C -0.00092 0.01897 0.41419 0.0
H850 H 0.04762 0.009 0.4485 0.0
C851 C 0.14859 0.12891 0.43147 0.0
C852 C 0.1722 0.11576 0.43631 0.0
C853 C 0.11087 0.10398 0.42868 0.0
C854 C 0.0345 0.01176 0.43878 0.0
H855 H 0.86135 0.97434 0.41173 0.0
H856 H 0.92866 0.01266 0.41429 0.0
H857 H 0.9804 0.96839 0.44536 0.0
H858 H 0.17497 0.0663 0.44198 0.0
H859 H 0.1088 0.02256 0.43716 0.0
H860 H 0.05318 0.0631 0.40784 0.0
C861 C 0.91537 0.98356 0.41748 0.0
C862 C 0.996 0.98846 0.43695 0.0
C863 C 0.87658 0.96166 0.4162 0.0
C864 C 0.15743 0.07714 0.43818 0.0
C865 C 0.11957 0.05219 0.43553 0.0
C866 C 0.03751 0.04246 0.41607 0.0
C867 C 0.93656 0.96832 0.42305 0.0
C868 C 0.97777 0.99199 0.42469 0.0
C869 C 0.09592 0.06541 0.4308 0.0
C870 C 0.05554 0.03926 0.42844 0.0
H871 H 0.86582 0.87999 0.42972 0.0
H872 H 0.93345 0.91781 0.43149 0.0
H873 H 0.9861 0.02196 0.40447 0.0
H874 H 0.15933 0.15849 0.42977 0.0
H875 H 0.09322 0.11496 0.42515 0.0
C876 C 0.00023 0.88962 0.75623 0.0
C877 C 0.96635 0.86792 0.74874 0.0
C878 C 0.01474 0.92791 0.75815 0.0
C879 C 0.00742 0.00919 0.74541 0.0
H880 H 0.0476 0.04846 0.7835 0.0
C881 C 0.03227 0.15155 0.76641 0.0
C882 C 0.06549 0.17403 0.77413 0.0
C883 C 0.0225 0.11521 0.76236 0.0
C884 C 0.03693 0.03803 0.77276 0.0
H885 H 0.92206 0.87019 0.73696 0.0
H886 H 0.94678 0.93685 0.74074 0.0
H887 H 0.02613 0.98316 0.77801 0.0
H888 H 0.11462 0.17625 0.78354 0.0
H889 H 0.09753 0.11257 0.77647 0.0
H890 H 0.01746 0.06409 0.74035 0.0
C891 C 0.96235 0.92419 0.74494 0.0
C892 C 0.02467 0.00062 0.76959 0.0
C893 C 0.94791 0.88583 0.74292 0.0
C894 C 0.08896 0.15959 0.77756 0.0
C895 C 0.07904 0.12311 0.7736 0.0
C896 C 0.01948 0.04661 0.74862 0.0
C897 C 0.99565 0.94555 0.75277 0.0
C898 C 0.00966 0.9857 0.75589 0.0
C899 C 0.04562 0.10052 0.76602 0.0
C900 C 0.03422 0.06133 0.76235 0.0
H901 H 0.0152 0.87706 0.76103 0.0
H902 H 0.04079 0.94363 0.76402 0.0
H903 H -0.0035 -0.00128 0.7347 0.0
H904 H 0.01392 0.16211 0.76342 0.0
H905 H -0.00356 0.09835 0.75663 0.0
C906 C 0.96516 0.11629 0.09483 0.0
C907 C 0.92585 0.09572 0.09507 0.0
C908 C 0.98599 0.09809 0.09506 0.0
C909 C 0.9802 0.00882 0.10492 0.0
H910 H 0.06566 0.04278 0.07939 0.0
C911 C 0.05604 0.92482 0.09633 0.0
C912 C 0.09527 0.94491 0.09528 0.0
C913 C 0.03563 0.94347 0.09658 0.0
C914 C 0.04217 0.03324 0.08672 0.0
H915 H 0.87773 0.03964 0.09557 0.0
H916 H 0.91409 0.00797 0.09606 0.0
H917 H 0.02956 0.07482 0.07932 0.0
H918 H 0.14369 0.00057 0.09363 0.0
H919 H 0.10818 0.03309 0.0944 0.0
H920 H 0.99283 0.96729 0.11235 0.0
C921 C 0.92876 0.03825 0.09587 0.0
C922 C 0.02147 0.05159 0.08666 0.0
C923 C 0.90791 0.05645 0.0956 0.0
C924 C 0.11358 0.98417 0.09458 0.0
C925 C 0.09317 0.00283 0.09485 0.0
C926 C 0.00096 0.99052 0.105 0.0
C927 C 0.96804 0.05887 0.09558 0.0
C928 C 0.9902 0.03953 0.09574 0.0
C929 C 0.05394 0.98269 0.09581 0.0
C930 C 0.03215 0.00246 0.09588 0.0
H931 H 0.97995 0.14653 0.09468 0.0
H932 H 0.01623 0.11478 0.09505 0.0
H933 H 0.95658 -0.00079 0.11219 0.0
H934 H 0.041 0.89464 0.09707 0.0
H935 H 0.00542 0.92707 0.09718 0.0
C936 C 0.9449 0.28326 0.13204 0.0
C937 C 0.91597 0.2553 0.14038 0.0
C938 C 0.97732 0.31097 0.1387 0.0
C939 C 0.02323 0.35264 0.17357 0.0
H940 H 0.09981 0.33206 0.15985 0.0
C941 C 0.12425 0.34164 0.21172 0.0
C942 C 0.1559 0.34157 0.20635 0.0
C943 C 0.10216 0.34936 0.20254 0.0
C944 C 0.0797 0.3396 0.16368 0.0
H945 H 0.89651 0.23638 0.16219 0.0
H946 H 0.95324 0.28495 0.17388 0.0
H947 H 0.04457 0.3132 0.14541 0.0
H948 H 0.19179 0.35281 0.18778 0.0
H949 H 0.15458 0.36876 0.1718 0.0
H950 H 0.05801 0.37835 0.19203 0.0
C951 C 0.95084 0.28547 0.16221 0.0
C952 C 0.04773 0.32852 0.15534 0.0
C953 C 0.91859 0.25746 0.15554 0.0
C954 C 0.16721 0.35253 0.19204 0.0
C955 C 0.14565 0.36129 0.18291 0.0
C956 C 0.05571 0.36459 0.18179 0.0
C957 C 0.98112 0.3114 0.15381 0.0
C958 C 0.01838 0.33308 0.16058 0.0
C959 C 0.11168 0.35775 0.18782 0.0
C960 C 0.08331 0.35606 0.17738 0.0
H961 H 0.9437 0.28213 0.12032 0.0
H962 H 0.00035 0.33064 0.13202 0.0
H963 H 0.00106 0.35682 0.17773 0.0
H964 H 0.11505 0.33297 0.22275 0.0
H965 H 0.07616 0.34576 0.20681 0.0
C966 C 0.7412 0.05081 0.54567 0.0
C967 C 0.7651 0.08815 0.54174 0.0
C968 C 0.71594 0.02554 0.53563 0.0
C969 C 0.70888 0.01457 0.49607 0.0
H970 H 0.62399 0.91833 0.50624 0.0
C971 C 0.65706 0.89529 0.45609 0.0
C972 C 0.66011 0.86546 0.46193 0.0
C973 C 0.65512 0.92124 0.46518 0.0
C974 C 0.64734 0.94527 0.50321 0.0
H975 H 0.77953 0.12955 0.52493 0.0
H976 H 0.73392 0.08595 0.50754 0.0
H977 H 0.64783 0.96971 0.52371 0.0
H978 H 0.65969 0.83732 0.48179 0.0
H979 H 0.65695 0.88314 0.49771 0.0
H980 H 0.70908 0.99 0.47579 0.0
C981 C 0.73556 0.0756 0.51813 0.0
C982 C 0.6612 0.97464 0.51322 0.0
C983 C 0.76148 0.10067 0.52807 0.0
C984 C 0.65789 0.86033 0.47701 0.0
C985 C 0.65586 0.88629 0.48611 0.0
C986 C 0.69468 0.98552 0.48604 0.0
C987 C 0.71371 0.03733 0.52154 0.0
C988 C 0.69325 0.00915 0.51001 0.0
C989 C 0.65621 0.9179 0.48027 0.0
C990 C 0.66479 0.95016 0.48971 0.0
H991 H 0.7438 0.04066 0.55618 0.0
H992 H 0.70013 0.99635 0.53868 0.0
H993 H 0.7339 0.04031 0.49318 0.0
H994 H 0.65895 0.90026 0.44453 0.0
H995 H 0.65516 0.94524 0.46042 0.0
C996 C 0.83676 0.68848 0.81682 0.0
C997 C 0.831 0.68422 0.80179 0.0
C998 C 0.80725 0.68149 0.82608 0.0
C999 C 0.72633 0.69212 0.82534 0.0
H1000 H 0.71125 0.65333 0.86447 0.0
C1001 C 0.65701 0.74067 0.86575 0.0
C1002 C 0.67689 0.7531 0.87878 0.0
C1003 C 0.66192 0.71616 0.85682 0.0
C1004 C 0.71504 0.66425 0.85357 0.0
H1005 H 0.78949 0.66752 0.78472 0.0
H1006 H 0.73806 0.65551 0.80092 0.0
H1007 H 0.74828 0.6398 0.84744 0.0
H1008 H 0.71537 0.7483 0.8933 0.0
H1009 H 0.72571 0.7073 0.87748 0.0
H1010 H 0.69637 0.71935 0.83154 0.0
C1011 C 0.76534 0.66411 0.80552 0.0
C1012 C 0.73607 0.65631 0.84382 0.0
C1013 C 0.79476 0.67087 0.79627 0.0
C1014 C 0.69968 0.73881 0.88328 0.0
C1015 C 0.70531 0.71504 0.87422 0.0
C1016 C 0.70589 0.70053 0.83509 0.0
C1017 C 0.77157 0.67041 0.82045 0.0
C1018 C 0.743 0.67136 0.8298 0.0
C1019 C 0.68776 0.70473 0.86057 0.0
C1020 C 0.70127 0.68802 0.84952 0.0
H1021 H 0.86432 0.69829 0.82137 0.0
H1022 H 0.81292 0.68696 0.83755 0.0
H1023 H 0.73155 0.70445 0.81464 0.0
H1024 H 0.639 0.75122 0.86219 0.0
H1025 H 0.64708 0.70795 0.8466 0.0
C1026 C 0.11811 0.77569 0.15163 0.0
C1027 C 0.12244 0.77696 0.13653 0.0
C1028 C 0.09026 0.74348 0.15833 0.0
C1029 C -0.00287 0.67051 0.14854 0.0
H1030 H 0.99301 0.65186 0.1898 0.0
C1031 C 0.8629 0.62869 0.17869 0.0
C1032 C 0.87029 0.65626 0.18914 0.0
C1033 C 0.89196 0.62384 0.17342 0.0
C1034 C 0.99367 0.65608 0.1782 0.0
H1035 H 0.10316 0.74387 0.11679 0.0
H1036 H 0.05577 0.68752 0.12855 0.0
H1037 H 0.05319 0.68059 0.17734 0.0
H1038 H 0.9124 0.69751 0.20339 0.0
H1039 H 0.96304 0.68968 0.19411 0.0
H1040 H 0.93829 0.64886 0.14954 0.0
C1041 C 0.07326 0.71173 0.13519 0.0
C1042 C 0.02811 0.67265 0.17108 0.0
C1043 C 0.10077 0.74409 0.12846 0.0
C1044 C 0.90627 0.67665 0.19509 0.0
C1045 C 0.93511 0.67161 0.18995 0.0
C1046 C 0.96279 0.65387 0.15564 0.0
C1047 C 0.06633 0.7117 0.15007 0.0
C1048 C 0.03044 0.68255 0.1564 0.0
C1049 C 0.92863 0.64621 0.17866 0.0
C1050 C 0.96113 0.64912 0.17072 0.0
H1051 H 0.13501 0.80017 0.15823 0.0
H1052 H 0.08574 0.74468 0.16982 0.0
H1053 H -0.00234 0.6776 0.13723 0.0
H1054 H 0.83518 0.61237 0.17407 0.0
H1055 H 0.88618 0.60397 0.16475 0.0
C1056 C 0.20637 0.86285 0.49769 0.0
C1057 C 0.20198 0.85894 0.51274 0.0
C1058 C 0.23697 0.89454 0.49176 0.0
C1059 C 0.32257 0.98596 0.50235 0.0
H1060 H 0.28827 0.02289 0.47074 0.0
C1061 C 0.34017 0.1318 0.49613 0.0
C1062 C 0.34604 0.1473 0.4822 0.0
C1063 C 0.33878 0.09763 0.49829 0.0
C1064 C 0.29879 0.01281 0.47936 0.0
H1065 H 0.22643 0.8837 0.53344 0.0
H1066 H 0.27807 0.93962 0.52333 0.0
H1067 H 0.25361 0.95736 0.47685 0.0
H1068 H 0.35784 0.14082 0.45983 0.0
H1069 H 0.35456 0.08078 0.46359 0.0
H1070 H 0.36542 0.04307 0.5057 0.0
C1071 C 0.2594 0.91806 0.5159 0.0
C1072 C 0.27896 0.97496 0.48286 0.0
C1073 C 0.22949 0.88601 0.52177 0.0
C1074 C 0.35363 0.1297 0.47072 0.0
C1075 C 0.35168 0.09532 0.47283 0.0
C1076 C 0.34181 0.02413 0.49907 0.0
C1077 C 0.26291 0.9235 0.5008 0.0
C1078 C 0.28951 0.96122 0.49484 0.0
C1079 C 0.34263 0.07829 0.4865 0.0
C1080 C 0.32917 0.03794 0.48788 0.0
H1081 H 0.18554 0.84203 0.49054 0.0
H1082 H 0.23921 0.89704 0.48009 0.0
H1083 H 0.33243 0.97633 0.51131 0.0
H1084 H 0.33432 0.1449 0.50514 0.0
H1085 H 0.33138 0.08481 0.5089 0.0
C1086 C 0.27677 0.23137 0.87995 0.0
C1087 C 0.30789 0.2284 0.87592 0.0
C1088 C 0.27554 0.26372 0.87684 0.0
C1089 C 0.3013 0.33127 0.84936 0.0
H1090 H 0.2576 0.37232 0.87557 0.0
C1091 C 0.20866 0.38013 0.82555 0.0
C1092 C 0.17312 0.36054 0.83201 0.0
C1093 C 0.24033 0.38543 0.83307 0.0
C1094 C 0.27018 0.36156 0.86811 0.0
H1095 H 0.36258 0.25672 0.86591 0.0
H1096 H 0.35959 0.31324 0.85972 0.0
H1097 H 0.2861 0.33737 0.88526 0.0
H1098 H 0.14366 0.33622 0.85204 0.0
H1099 H 0.19807 0.3437 0.86488 0.0
H1100 H 0.28195 0.35137 0.83213 0.0
C1101 C 0.33662 0.29075 0.86556 0.0
C1102 C 0.28667 0.34177 0.87367 0.0
C1103 C 0.3382 0.25853 0.86898 0.0
C1104 C 0.17055 0.35051 0.84665 0.0
C1105 C 0.20206 0.35539 0.8541 0.0
C1106 C 0.28433 0.35051 0.84378 0.0
C1107 C 0.30518 0.29349 0.86945 0.0
C1108 C 0.30022 0.32454 0.86427 0.0
C1109 C 0.23692 0.37074 0.84708 0.0
C1110 C 0.26625 0.36361 0.85306 0.0
H1111 H 0.25334 0.20857 0.88549 0.0
H1112 H 0.25066 0.26483 0.8797 0.0
H1113 H 0.31157 0.31821 0.84189 0.0
H1114 H 0.21173 0.38849 0.8143 0.0
H1115 H 0.26692 0.39829 0.82747 0.0
C1116 C 0.2383 0.21777 0.19861 0.0
C1117 C 0.23207 0.21104 0.21355 0.0
C1118 C 0.23804 0.19085 0.18936 0.0
C1119 C 0.20977 0.08946 0.18725 0.0
H1120 H 0.27376 0.12274 0.15335 0.0
C1121 C 0.23991 0.99156 0.1518 0.0
C1122 C 0.23578 0.99317 0.13673 0.0
C1123 C 0.23857 0.01774 0.16102 0.0
C1124 C 0.25552 0.11304 0.16271 0.0
H1125 H 0.22068 0.17053 0.23049 0.0
H1126 H 0.22187 0.12393 0.21447 0.0
H1127 H 0.2745 0.16872 0.17008 0.0
H1128 H 0.22728 0.02391 0.11955 0.0
H1129 H 0.22608 0.07054 0.13573 0.0
H1130 H 0.19213 0.03363 0.18002 0.0
C1131 C 0.22597 0.14973 0.20978 0.0
C1132 C 0.25573 0.1394 0.17232 0.0
C1133 C 0.22557 0.17657 0.21903 0.0
C1134 C 0.23063 0.02193 0.13109 0.0
C1135 C 0.23001 0.04863 0.14034 0.0
C1136 C 0.2101 0.06311 0.17776 0.0
C1137 C 0.23223 0.15648 0.19476 0.0
C1138 C 0.23267 0.12809 0.18472 0.0
C1139 C 0.23371 0.04662 0.15542 0.0
C1140 C 0.23285 0.07462 0.16535 0.0
H1141 H 0.24281 0.24376 0.19394 0.0
H1142 H 0.2419 0.19699 0.17789 0.0
H1143 H 0.19108 0.0794 0.19646 0.0
H1144 H 0.2437 0.9697 0.15655 0.0
H1145 H 0.2418 0.01564 0.17257 0.0
C1146 C 0.97914 0.22987 0.53788 0.0
C1147 C 0.97556 0.21954 0.55256 0.0
C1148 C 0.00885 0.23288 0.52957 0.0
C1149 C 0.10441 0.25015 0.53213 0.0
H1150 H 0.08489 0.20014 0.49492 0.0
C1151 C 0.22126 0.24237 0.50155 0.0
C1152 C 0.22232 0.24432 0.48636 0.0
C1153 C 0.19046 0.23866 0.50919 0.0
C1154 C 0.091 0.21481 0.50516 0.0
H1155 H 0.00078 0.20481 0.57008 0.0
H1156 H 0.05327 0.211 0.55561 0.0
H1157 H 0.03302 0.19588 0.50914 0.0
H1158 H 0.1915 0.24332 0.46722 0.0
H1159 H 0.13792 0.2382 0.48061 0.0
H1160 H 0.16226 0.27015 0.52812 0.0
C1161 C 0.03283 0.21649 0.55055 0.0
C1162 C 0.0612 0.21218 0.51334 0.0
C1163 C 0.00275 0.21288 0.55881 0.0
C1164 C 0.19145 0.24186 0.47894 0.0
C1165 C 0.16069 0.23874 0.48664 0.0
C1166 C 0.13422 0.25328 0.52388 0.0
C1167 C 0.036 0.22623 0.53581 0.0
C1168 C 0.06759 0.22953 0.52697 0.0
C1169 C 0.15996 0.23747 0.50191 0.0
C1170 C 0.12798 0.23527 0.51035 0.0
H1171 H 0.95862 0.23504 0.53269 0.0
H1172 H 0.01076 0.24074 0.51828 0.0
H1173 H 0.11022 0.26432 0.54249 0.0
H1174 H 0.2443 0.24354 0.50762 0.0
H1175 H 0.19064 0.23657 0.52088 0.0
C1176 C 0.96294 0.21289 0.83329 0.0
C1177 C 0.96553 0.21489 0.8181 0.0
C1178 C 0.93619 0.18033 0.84014 0.0
C1179 C 0.84366 0.10113 0.83602 0.0
H1180 H 0.87162 0.05735 0.86732 0.0
C1181 C 0.73315 0.96949 0.86634 0.0
C1182 C 0.7386 0.96609 0.88116 0.0
C1183 C 0.76116 -0.00182 0.85808 0.0
C1184 C 0.86313 0.06948 0.85877 0.0
H1185 H 0.94222 0.18424 0.79817 0.0
H1186 H 0.89418 0.12723 0.81027 0.0
H1187 H 0.92002 0.10985 0.85373 0.0
H1188 H 0.77758 0.99054 0.899 0.0
H1189 H 0.82578 0.04163 0.88482 0.0
H1190 H 0.78683 0.06236 0.84142 0.0
C1191 C 0.91337 0.15097 0.81678 0.0
C1192 C 0.89097 0.09934 0.85089 0.0
C1193 C 0.94083 0.18344 0.80989 0.0
C1194 C 0.77256 0.99233 0.88759 0.0
C1195 C 0.80038 0.02146 0.87938 0.0
C1196 C 0.81573 0.0717 0.84406 0.0
C1197 C 0.9109 0.14919 0.83199 0.0
C1198 C 0.8815 0.11558 0.8395 0.0
C1199 C 0.7952 0.02469 0.86447 0.0
C1200 C 0.82503 0.05555 0.85564 0.0
H1201 H 0.98174 0.23653 0.83993 0.0
H1202 H 0.93473 0.17978 0.85186 0.0
H1203 H 0.83562 0.11352 0.82741 0.0
H1204 H 0.70748 0.94949 0.86099 0.0
H1205 H 0.75622 -0.00092 0.84662 0.0
C1206 C 0.77142 0.80513 0.19588 0.0
C1207 C 0.7758 0.78001 0.18692 0.0
C1208 C 0.77348 0.83748 0.19006 0.0
C1209 C 0.80919 0.90127 0.15858 0.0
H1210 H 0.73308 0.92603 0.16882 0.0
C1211 C 0.792 0.01249 0.12696 0.0
C1212 C 0.78254 0.03583 0.13477 0.0
C1213 C 0.79166 0.98192 0.13367 0.0
C1214 C 0.75491 0.91991 0.16597 0.0
H1215 H 0.78661 0.76971 0.16489 0.0
H1216 H 0.79036 0.82595 0.15483 0.0
H1217 H 0.73291 0.8727 0.18025 0.0
H1218 H 0.7652 0.04516 0.15579 0.0
H1219 H 0.76524 0.9924 0.16753 0.0
H1220 H 0.83143 0.9485 0.14439 0.0
C1221 C 0.78539 0.82077 0.16634 0.0
C1222 C 0.75476 0.88927 0.17254 0.0
C1223 C 0.783 0.78836 0.17211 0.0
C1224 C 0.77245 0.02768 0.14941 0.0
C1225 C 0.77232 0.99724 0.15615 0.0
C1226 C 0.80951 0.93204 0.15209 0.0
C1227 C 0.7804 0.8456 0.1752 0.0
C1228 C 0.7817 0.87938 0.16882 0.0
C1229 C 0.78203 0.97397 0.14839 0.0
C1230 C 0.78217 0.94163 0.15559 0.0
H1231 H 0.7659 0.79959 0.20734 0.0
H1232 H 0.76984 0.85624 0.1972 0.0
H1233 H 0.83068 0.89473 0.15563 0.0
H1234 H 0.7995 0.01767 0.11563 0.0
H1235 H 0.7986 0.96429 0.12725 0.0
C1236 C 0.75476 0.74234 0.46222 0.0
C1237 C 0.76558 0.75852 0.44842 0.0
C1238 C 0.78045 0.74026 0.47146 0.0
C1239 C 0.83256 0.72086 0.48689 0.0
H1240 H 0.93717 0.79736 0.48634 0.0
C1241 C 0.93997 0.70666 0.52226 0.0
C1242 C 0.97068 0.73914 0.52784 0.0
C1243 C 0.91616 0.70901 0.51207 0.0
C1244 C 0.90799 0.77594 0.48682 0.0
H1245 H 0.812 0.785 0.43344 0.0
H1246 H 0.85661 0.77976 0.44928 0.0
H1247 H 0.89367 0.80207 0.46995 0.0
H1248 H 0.00037 0.79968 0.5272 0.0
H1249 H 0.95783 0.80401 0.51002 0.0
H1250 H 0.84618 0.69593 0.50432 0.0
C1251 C 0.82845 0.76962 0.45319 0.0
C1252 C 0.883 0.7783 0.47718 0.0
C1253 C 0.80278 0.77234 0.44402 0.0
C1254 C 0.97699 0.77412 0.52305 0.0
C1255 C 0.95268 0.77653 0.51307 0.0
C1256 C 0.85732 0.71889 0.4967 0.0
C1257 C 0.81767 0.75359 0.46709 0.0
C1258 C 0.84483 0.75082 0.47708 0.0
C1259 C 0.92186 0.74398 0.50739 0.0
C1260 C 0.89549 0.74633 0.49683 0.0
H1261 H 0.72648 0.73194 0.46608 0.0
H1262 H 0.77106 0.72871 0.48216 0.0
H1263 H 0.80367 0.69863 0.48705 0.0
H1264 H 0.93467 0.67927 0.52558 0.0
H1265 H 0.89351 0.68322 0.50776 0.0
C1266 C 0.21572 0.98612 0.86977 0.0
C1267 C 0.24633 0.01909 0.86438 0.0
C1268 C 0.19002 0.95884 0.86021 0.0
C1269 C 0.15254 0.94737 0.82328 0.0
H1270 H 0.12775 0.84378 0.82619 0.0
C1271 C 0.04211 0.83043 0.78645 0.0
C1272 C 0.05293 0.80636 0.78005 0.0
C1273 C 0.06398 0.8556 0.7973 0.0
C1274 C 0.13442 0.87262 0.82526 0.0
H1275 H 0.27348 0.04936 0.84473 0.0
H1276 H 0.22861 0.00245 0.82827 0.0
H1277 H 0.16829 0.88909 0.84449 0.0
H1278 H 0.09512 0.78974 0.78012 0.0
H1279 H 0.13312 0.83347 0.79921 0.0
H1280 H 0.11898 0.93114 0.80404 0.0
C1281 C 0.22451 -0.0025 0.83982 0.0
C1282 C 0.15732 0.89843 0.83579 0.0
C1283 C 0.25039 0.02429 0.8493 0.0
C1284 C 0.08609 0.808 0.78478 0.0
C1285 C 0.10769 0.83281 0.7958 0.0
C1286 C 0.12924 0.92151 0.81289 0.0
C1287 C 0.19407 0.96446 0.84513 0.0
C1288 C 0.16707 0.9362 0.83478 0.0
C1289 C 0.09691 0.85694 0.80217 0.0
C1290 C 0.12031 0.88394 0.81364 0.0
H1291 H 0.2118 0.9813 0.88133 0.0
H1292 H 0.16671 0.93364 0.8646 0.0
H1293 H 0.15944 0.97626 0.82226 0.0
H1294 H 0.01676 0.82994 0.78304 0.0
H1295 H 0.05486 0.87372 0.80203 0.0
loop_
_geom_bond_atom_site_label_1
_geom_bond_atom_site_label_2
_geom_bond_distance
_geom_bond_site_symmetry_2
_ccdc_geom_bond_type
C0 C1 1.351 . S
C0 N3 1.368 . S
C0 H5 0.931 . S
C1 C0 1.351 . S
C1 N2 1.373 . S
C1 H29 0.930 . S
N2 C1 1.373 . S
N2 C4 1.340 . S
N3 C0 1.368 . S
N3 C4 1.321 . S
N3 Co6 2.135 . S
C4 N2 1.340 . S
C4 N3 1.321 . S
C4 H28 0.930 . S
H5 C0 0.931 . S
Co6 N3 2.135 . S
Co6 N9 2.121 . S
Co6 O14 2.055 . S
Co6 O17 2.039 . S
Co6 N20 2.140 . S
C7 O8 1.227 . S
C7 O17 1.265 . S
O8 C7 1.227 . S
N9 Co6 2.121 . S
N9 C11 1.375 . S
N9 C12 1.313 . S
C10 C11 1.338 . S
C10 N13 1.377 . S
C10 H30 0.930 . S
C11 N9 1.375 . S
C11 C10 1.338 . S
C11 H15 0.931 . S
C12 N9 1.313 . S
C12 N13 1.344 . S
C12 H16 0.930 . S
N13 C10 1.377 . S
N13 C12 1.344 . S
O14 Co6 2.055 . S
O14 C18 1.253 . S
H15 C11 0.931 . S
H16 C12 0.930 . S
O17 Co6 2.039 . S
O17 C7 1.265 . S
C18 O14 1.253 . S
C18 O19 1.227 . S
O19 C18 1.227 . S
N20 Co6 2.140 . S
N20 C23 1.346 . S
N20 C24 1.345 . S
C21 C22 1.387 . S
C21 C25 1.391 . S
C22 C21 1.387 . S
C22 C23 1.369 . S
C22 H31 0.929 . S
C23 N20 1.346 . S
C23 C22 1.369 . S
C23 H26 0.928 . S
C24 N20 1.345 . S
C24 C25 1.371 . S
C24 H27 0.931 . S
C25 C21 1.391 . S
C25 C24 1.371 . S
C25 H32 0.930 . S
H26 C23 0.928 . S
H27 C24 0.931 . S
H28 C4 0.930 . S
H29 C1 0.930 . S
H30 C10 0.930 . S
H31 C22 0.929 . S
H32 C25 0.930 . S
C33 C34 1.351 . S
C33 N36 1.368 . S
C33 H38 0.931 . S
C34 C33 1.351 . S
C34 N35 1.373 . S
C34 H62 0.930 . S
N35 C34 1.373 . S
N35 C37 1.340 . S
N36 C33 1.368 . S
N36 C37 1.321 . S
N36 Co39 2.135 . S
C37 N35 1.340 . S
C37 N36 1.321 . S
C37 H61 0.930 . S
H38 C33 0.931 . S
Co39 N36 2.135 . S
Co39 N42 2.121 . S
Co39 O47 2.055 . S
Co39 O50 2.039 . S
Co39 N53 2.140 . S
C40 O41 1.227 . S
C40 O50 1.265 . S
O41 C40 1.227 . S
N42 Co39 2.121 . S
N42 C44 1.375 . S
N42 C45 1.313 . S
C43 C44 1.338 . S
C43 N46 1.377 . S
C43 H63 0.930 . S
C44 N42 1.375 . S
C44 C43 1.338 . S
C44 H48 0.931 . S
C45 N42 1.313 . S
C45 N46 1.344 . S
C45 H49 0.930 . S
N46 C43 1.377 . S
N46 C45 1.344 . S
O47 Co39 2.055 . S
O47 C51 1.253 . S
H48 C44 0.931 . S
H49 C45 0.930 . S
O50 Co39 2.039 . S
O50 C40 1.265 . S
C51 O47 1.253 . S
C51 O52 1.227 . S
O52 C51 1.227 . S
N53 Co39 2.140 . S
N53 C56 1.346 . S
N53 C57 1.345 . S
C54 C55 1.387 . S
C54 C58 1.391 . S
C55 C54 1.387 . S
C55 C56 1.369 . S
C55 H64 0.929 . S
C56 N53 1.346 . S
C56 C55 1.369 . S
C56 H59 0.928 . S
C57 N53 1.345 . S
C57 C58 1.371 . S
C57 H60 0.931 . S
C58 C54 1.391 . S
C58 C57 1.371 . S
C58 H65 0.930 . S
H59 C56 0.928 . S
H60 C57 0.931 . S
H61 C37 0.930 . S
H62 C34 0.930 . S
H63 C43 0.930 . S
H64 C55 0.929 . S
H65 C58 0.930 . S
C66 C67 1.351 . S
C66 N69 1.368 . S
C66 H71 0.931 . S
C67 C66 1.351 . S
C67 N68 1.373 . S
C67 H95 0.930 . S
N68 C67 1.373 . S
N68 C70 1.340 . S
N69 C66 1.368 . S
N69 C70 1.321 . S
N69 Co72 2.135 . S
C70 N68 1.340 . S
C70 N69 1.321 . S
C70 H94 0.930 . S
H71 C66 0.931 . S
Co72 N69 2.135 . S
Co72 N75 2.121 . S
Co72 O80 2.055 . S
Co72 O83 2.039 . S
Co72 N86 2.140 . S
C73 O74 1.227 . S
C73 O83 1.265 . S
O74 C73 1.227 . S
N75 Co72 2.121 . S
N75 C77 1.375 . S
N75 C78 1.313 . S
C76 C77 1.338 . S
C76 N79 1.377 . S
C76 H96 0.930 . S
C77 N75 1.375 . S
C77 C76 1.338 . S
C77 H81 0.931 . S
C78 N75 1.313 . S
C78 N79 1.344 . S
C78 H82 0.930 . S
N79 C76 1.377 . S
N79 C78 1.344 . S
O80 Co72 2.055 . S
O80 C84 1.253 . S
H81 C77 0.931 . S
H82 C78 0.930 . S
O83 Co72 2.039 . S
O83 C73 1.265 . S
C84 O80 1.253 . S
C84 O85 1.227 . S
O85 C84 1.227 . S
N86 Co72 2.140 . S
N86 C89 1.346 . S
N86 C90 1.345 . S
C87 C88 1.387 . S
C87 C91 1.391 . S
C88 C87 1.387 . S
C88 C89 1.369 . S
C88 H97 0.929 . S
C89 N86 1.346 . S
C89 C88 1.369 . S
C89 H92 0.928 . S
C90 N86 1.345 . S
C90 C91 1.371 . S
C90 H93 0.931 . S
C91 C87 1.391 . S
C91 C90 1.371 . S
C91 H98 0.930 . S
H92 C89 0.928 . S
H93 C90 0.931 . S
H94 C70 0.930 . S
H95 C67 0.930 . S
H96 C76 0.930 . S
H97 C88 0.929 . S
H98 C91 0.930 . S
C99 C100 1.351 . S
C99 N102 1.368 . S
C99 H104 0.931 . S
C100 C99 1.351 . S
C100 N101 1.373 . S
C100 H128 0.930 . S
N101 C100 1.373 . S
N101 C103 1.340 . S
N102 C99 1.368 . S
N102 C103 1.321 . S
N102 Co105 2.135 . S
C103 N101 1.340 . S
C103 N102 1.321 . S
C103 H127 0.930 . S
H104 C99 0.931 . S
Co105 N102 2.135 . S
Co105 N108 2.121 . S
Co105 O113 2.055 . S
Co105 O116 2.039 . S
Co105 N119 2.140 . S
C106 O107 1.227 . S
C106 O116 1.265 . S
O107 C106 1.227 . S
N108 Co105 2.121 . S
N108 C110 1.375 . S
N108 C111 1.313 . S
C109 C110 1.338 . S
C109 N112 1.377 . S
C109 H129 0.930 . S
C110 N108 1.375 . S
C110 C109 1.338 . S
C110 H114 0.931 . S
C111 N108 1.313 . S
C111 N112 1.344 . S
C111 H115 0.930 . S
N112 C109 1.377 . S
N112 C111 1.344 . S
O113 Co105 2.055 . S
O113 C117 1.253 . S
H114 C110 0.931 . S
H115 C111 0.930 . S
O116 Co105 2.039 . S
O116 C106 1.265 . S
C117 O113 1.253 . S
C117 O118 1.227 . S
O118 C117 1.227 . S
N119 Co105 2.140 . S
N119 C122 1.346 . S
N119 C123 1.345 . S
C120 C121 1.387 . S
C120 C124 1.391 . S
C121 C120 1.387 . S
C121 C122 1.369 . S
C121 H130 0.929 . S
C122 N119 1.346 . S
C122 C121 1.369 . S
C122 H125 0.928 . S
C123 N119 1.345 . S
C123 C124 1.371 . S
C123 H126 0.931 . S
C124 C120 1.391 . S
C124 C123 1.371 . S
C124 H131 0.930 . S
H125 C122 0.928 . S
H126 C123 0.931 . S
H127 C103 0.930 . S
H128 C100 0.930 . S
H129 C109 0.930 . S
H130 C121 0.929 . S
H131 C124 0.930 . S
C132 C133 1.351 . S
C132 N135 1.368 . S
C132 H137 0.931 . S
C133 C132 1.351 . S
C133 N134 1.373 . S
C133 H161 0.930 . S
N134 C133 1.373 . S
N134 C136 1.340 . S
N135 C132 1.368 . S
N135 C136 1.321 . S
N135 Co138 2.135 . S
C136 N134 1.340 . S
C136 N135 1.321 . S
C136 H160 0.930 . S
H137 C132 0.931 . S
Co138 N135 2.135 . S
Co138 N141 2.121 . S
Co138 O146 2.055 . S
Co138 O149 2.039 . S
Co138 N152 2.140 . S
C139 O140 1.227 . S
C139 O149 1.265 . S
O140 C139 1.227 . S
N141 Co138 2.121 . S
N141 C143 1.375 . S
N141 C144 1.313 . S
C142 C143 1.338 . S
C142 N145 1.377 . S
C142 H162 0.930 . S
C143 N141 1.375 . S
C143 C142 1.338 . S
C143 H147 0.931 . S
C144 N141 1.313 . S
C144 N145 1.344 . S
C144 H148 0.930 . S
N145 C142 1.377 . S
N145 C144 1.344 . S
O146 Co138 2.055 . S
O146 C150 1.253 . S
H147 C143 0.931 . S
H148 C144 0.930 . S
O149 Co138 2.039 . S
O149 C139 1.265 . S
C150 O146 1.253 . S
C150 O151 1.227 . S
O151 C150 1.227 . S
N152 Co138 2.140 . S
N152 C155 1.346 . S
N152 C156 1.345 . S
C153 C154 1.387 . S
C153 C157 1.391 . S
C154 C153 1.387 . S
C154 C155 1.369 . S
C154 H163 0.929 . S
C155 N152 1.346 . S
C155 C154 1.369 . S
C155 H158 0.928 . S
C156 N152 1.345 . S
C156 C157 1.371 . S
C156 H159 0.931 . S
C157 C153 1.391 . S
C157 C156 1.371 . S
C157 H164 0.930 . S
H158 C155 0.928 . S
H159 C156 0.931 . S
H160 C136 0.930 . S
H161 C133 0.930 . S
H162 C142 0.930 . S
H163 C154 0.929 . S
H164 C157 0.930 . S
C165 C166 1.351 . S
C165 N168 1.368 . S
C165 H170 0.931 . S
C166 C165 1.351 . S
C166 N167 1.373 . S
C166 H194 0.930 . S
N167 C166 1.373 . S
N167 C169 1.340 . S
N168 C165 1.368 . S
N168 C169 1.321 . S
N168 Co171 2.135 . S
C169 N167 1.340 . S
C169 N168 1.321 . S
C169 H193 0.930 . S
H170 C165 0.931 . S
Co171 N168 2.135 . S
Co171 N174 2.121 . S
Co171 O179 2.055 . S
Co171 O182 2.039 . S
Co171 N185 2.140 . S
C172 O173 1.227 . S
C172 O182 1.265 . S
O173 C172 1.227 . S
N174 Co171 2.121 . S
N174 C176 1.375 . S
N174 C177 1.313 . S
C175 C176 1.338 . S
C175 N178 1.377 . S
C175 H195 0.930 . S
C176 N174 1.375 . S
C176 C175 1.338 . S
C176 H180 0.931 . S
C177 N174 1.313 . S
C177 N178 1.344 . S
C177 H181 0.930 . S
N178 C175 1.377 . S
N178 C177 1.344 . S
O179 Co171 2.055 . S
O179 C183 1.253 . S
H180 C176 0.931 . S
H181 C177 0.930 . S
O182 Co171 2.039 . S
O182 C172 1.265 . S
C183 O179 1.253 . S
C183 O184 1.227 . S
O184 C183 1.227 . S
N185 Co171 2.140 . S
N185 C188 1.346 . S
N185 C189 1.345 . S
C186 C187 1.387 . S
C186 C190 1.391 . S
C187 C186 1.387 . S
C187 C188 1.369 . S
C187 H196 0.929 . S
C188 N185 1.346 . S
C188 C187 1.369 . S
C188 H191 0.928 . S
C189 N185 1.345 . S
C189 C190 1.371 . S
C189 H192 0.931 . S
C190 C186 1.391 . S
C190 C189 1.371 . S
C190 H197 0.930 . S
H191 C188 0.928 . S
H192 C189 0.931 . S
H193 C169 0.930 . S
H194 C166 0.930 . S
H195 C175 0.930 . S
H196 C187 0.929 . S
H197 C190 0.930 . S
C198 C199 1.351 . S
C198 N201 1.368 . S
C198 H203 0.931 . S
C199 C198 1.351 . S
C199 N200 1.373 . S
C199 H227 0.930 . S
N200 C199 1.373 . S
N200 C202 1.340 . S
N201 C198 1.368 . S
N201 C202 1.321 . S
N201 Co204 2.135 . S
C202 N200 1.340 . S
C202 N201 1.321 . S
C202 H226 0.930 . S
H203 C198 0.931 . S
Co204 N201 2.135 . S
Co204 N207 2.121 . S
Co204 O212 2.055 . S
Co204 O215 2.039 . S
Co204 N218 2.140 . S
C205 O206 1.227 . S
C205 O215 1.265 . S
O206 C205 1.227 . S
N207 Co204 2.121 . S
N207 C209 1.375 . S
N207 C210 1.313 . S
C208 C209 1.338 . S
C208 N211 1.377 . S
C208 H228 0.930 . S
C209 N207 1.375 . S
C209 C208 1.338 . S
C209 H213 0.931 . S
C210 N207 1.313 . S
C210 N211 1.344 . S
C210 H214 0.930 . S
N211 C208 1.377 . S
N211 C210 1.344 . S
O212 Co204 2.055 . S
O212 C216 1.253 . S
H213 C209 0.931 . S
H214 C210 0.930 . S
O215 Co204 2.039 . S
O215 C205 1.265 . S
C216 O212 1.253 . S
C216 O217 1.227 . S
O217 C216 1.227 . S
N218 Co204 2.140 . S
N218 C221 1.346 . S
N218 C222 1.345 . S
C219 C220 1.387 . S
C219 C223 1.391 . S
C220 C219 1.387 . S
C220 C221 1.369 . S
C220 H229 0.929 . S
C221 N218 1.346 . S
C221 C220 1.369 . S
C221 H224 0.928 . S
C222 N218 1.345 . S
C222 C223 1.371 . S
C222 H225 0.931 . S
C223 C219 1.391 . S
C223 C222 1.371 . S
C223 H230 0.930 . S
H224 C221 0.928 . S
H225 C222 0.931 . S
H226 C202 0.930 . S
H227 C199 0.930 . S
H228 C208 0.930 . S
H229 C220 0.929 . S
H230 C223 0.930 . S
C231 C232 1.351 . S
C231 N234 1.368 . S
C231 H236 0.931 . S
C232 C231 1.351 . S
C232 N233 1.373 . S
C232 H260 0.930 . S
N233 C232 1.373 . S
N233 C235 1.340 . S
N234 C231 1.368 . S
N234 C235 1.321 . S
N234 Co237 2.135 . S
C235 N233 1.340 . S
C235 N234 1.321 . S
C235 H259 0.930 . S
H236 C231 0.931 . S
Co237 N234 2.135 . S
Co237 N240 2.121 . S
Co237 O245 2.055 . S
Co237 O248 2.039 . S
Co237 N251 2.140 . S
C238 O239 1.227 . S
C238 O248 1.265 . S
O239 C238 1.227 . S
N240 Co237 2.121 . S
N240 C242 1.375 . S
N240 C243 1.313 . S
C241 C242 1.338 . S
C241 N244 1.377 . S
C241 H261 0.930 . S
C242 N240 1.375 . S
C242 C241 1.338 . S
C242 H246 0.931 . S
C243 N240 1.313 . S
C243 N244 1.344 . S
C243 H247 0.930 . S
N244 C241 1.377 . S
N244 C243 1.344 . S
O245 Co237 2.055 . S
O245 C249 1.253 . S
H246 C242 0.931 . S
H247 C243 0.930 . S
O248 Co237 2.039 . S
O248 C238 1.265 . S
C249 O245 1.253 . S
C249 O250 1.227 . S
O250 C249 1.227 . S
N251 Co237 2.140 . S
N251 C254 1.346 . S
N251 C255 1.345 . S
C252 C253 1.387 . S
C252 C256 1.391 . S
C253 C252 1.387 . S
C253 C254 1.369 . S
C253 H262 0.929 . S
C254 N251 1.346 . S
C254 C253 1.369 . S
C254 H257 0.928 . S
C255 N251 1.345 . S
C255 C256 1.371 . S
C255 H258 0.931 . S
C256 C252 1.391 . S
C256 C255 1.371 . S
C256 H263 0.930 . S
H257 C254 0.928 . S
H258 C255 0.931 . S
H259 C235 0.930 . S
H260 C232 0.930 . S
H261 C241 0.930 . S
H262 C253 0.929 . S
H263 C256 0.930 . S
C264 C265 1.351 . S
C264 N267 1.368 . S
C264 H269 0.931 . S
C265 C264 1.351 . S
C265 N266 1.373 . S
C265 H293 0.930 . S
N266 C265 1.373 . S
N266 C268 1.340 . S
N267 C264 1.368 . S
N267 C268 1.321 . S
N267 Co270 2.135 . S
C268 N266 1.340 . S
C268 N267 1.321 . S
C268 H292 0.930 . S
H269 C264 0.931 . S
Co270 N267 2.135 . S
Co270 N273 2.121 . S
Co270 O278 2.055 . S
Co270 O281 2.039 . S
Co270 N284 2.140 . S
C271 O272 1.227 . S
C271 O281 1.265 . S
O272 C271 1.227 . S
N273 Co270 2.121 . S
N273 C275 1.375 . S
N273 C276 1.313 . S
C274 C275 1.338 . S
C274 N277 1.377 . S
C274 H294 0.930 . S
C275 N273 1.375 . S
C275 C274 1.338 . S
C275 H279 0.931 . S
C276 N273 1.313 . S
C276 N277 1.344 . S
C276 H280 0.930 . S
N277 C274 1.377 . S
N277 C276 1.344 . S
O278 Co270 2.055 . S
O278 C282 1.253 . S
H279 C275 0.931 . S
H280 C276 0.930 . S
O281 Co270 2.039 . S
O281 C271 1.265 . S
C282 O278 1.253 . S
C282 O283 1.227 . S
O283 C282 1.227 . S
N284 Co270 2.140 . S
N284 C287 1.346 . S
N284 C288 1.345 . S
C285 C286 1.387 . S
C285 C289 1.391 . S
C286 C285 1.387 . S
C286 C287 1.369 . S
C286 H295 0.929 . S
C287 N284 1.346 . S
C287 C286 1.369 . S
C287 H290 0.928 . S
C288 N284 1.345 . S
C288 C289 1.371 . S
C288 H291 0.931 . S
C289 C285 1.391 . S
C289 C288 1.371 . S
C289 H296 0.930 . S
H290 C287 0.928 . S
H291 C288 0.931 . S
H292 C268 0.930 . S
H293 C265 0.930 . S
H294 C274 0.930 . S
H295 C286 0.929 . S
H296 C289 0.930 . S
C297 C298 1.351 . S
C297 N300 1.368 . S
C297 H302 0.931 . S
C298 C297 1.351 . S
C298 N299 1.373 . S
C298 H326 0.930 . S
N299 C298 1.373 . S
N299 C301 1.340 . S
N300 C297 1.368 . S
N300 C301 1.321 . S
N300 Co303 2.135 . S
C301 N299 1.340 . S
C301 N300 1.321 . S
C301 H325 0.930 . S
H302 C297 0.931 . S
Co303 N300 2.135 . S
Co303 N306 2.121 . S
Co303 O311 2.055 . S
Co303 O314 2.039 . S
Co303 N317 2.140 . S
C304 O305 1.227 . S
C304 O314 1.265 . S
O305 C304 1.227 . S
N306 Co303 2.121 . S
N306 C308 1.375 . S
N306 C309 1.313 . S
C307 C308 1.338 . S
C307 N310 1.377 . S
C307 H327 0.930 . S
C308 N306 1.375 . S
C308 C307 1.338 . S
C308 H312 0.931 . S
C309 N306 1.313 . S
C309 N310 1.344 . S
C309 H313 0.930 . S
N310 C307 1.377 . S
N310 C309 1.344 . S
O311 Co303 2.055 . S
O311 C315 1.253 . S
H312 C308 0.931 . S
H313 C309 0.930 . S
O314 Co303 2.039 . S
O314 C304 1.265 . S
C315 O311 1.253 . S
C315 O316 1.227 . S
O316 C315 1.227 . S
N317 Co303 2.140 . S
N317 C320 1.346 . S
N317 C321 1.345 . S
C318 C319 1.387 . S
C318 C322 1.391 . S
C319 C318 1.387 . S
C319 C320 1.369 . S
C319 H328 0.929 . S
C320 N317 1.346 . S
C320 C319 1.369 . S
C320 H323 0.928 . S
C321 N317 1.345 . S
C321 C322 1.371 . S
C321 H324 0.931 . S
C322 C318 1.391 . S
C322 C321 1.371 . S
C322 H329 0.930 . S
H323 C320 0.928 . S
H324 C321 0.931 . S
H325 C301 0.930 . S
H326 C298 0.930 . S
H327 C307 0.930 . S
H328 C319 0.929 . S
H329 C322 0.930 . S
C330 C331 1.351 . S
C330 N333 1.368 . S
C330 H335 0.931 . S
C331 C330 1.351 . S
C331 N332 1.373 . S
C331 H359 0.930 . S
N332 C331 1.373 . S
N332 C334 1.340 . S
N333 C330 1.368 . S
N333 C334 1.321 . S
N333 Co336 2.135 . S
C334 N332 1.340 . S
C334 N333 1.321 . S
C334 H358 0.930 . S
H335 C330 0.931 . S
Co336 N333 2.135 . S
Co336 N339 2.121 . S
Co336 O344 2.055 . S
Co336 O347 2.039 . S
Co336 N350 2.140 . S
C337 O338 1.227 . S
C337 O347 1.265 . S
O338 C337 1.227 . S
N339 Co336 2.121 . S
N339 C341 1.375 . S
N339 C342 1.313 . S
C340 C341 1.338 . S
C340 N343 1.377 . S
C340 H360 0.930 . S
C341 N339 1.375 . S
C341 C340 1.338 . S
C341 H345 0.931 . S
C342 N339 1.313 . S
C342 N343 1.344 . S
C342 H346 0.930 . S
N343 C340 1.377 . S
N343 C342 1.344 . S
O344 Co336 2.055 . S
O344 C348 1.253 . S
H345 C341 0.931 . S
H346 C342 0.930 . S
O347 Co336 2.039 . S
O347 C337 1.265 . S
C348 O344 1.253 . S
C348 O349 1.227 . S
O349 C348 1.227 . S
N350 Co336 2.140 . S
N350 C353 1.346 . S
N350 C354 1.345 . S
C351 C352 1.387 . S
C351 C355 1.391 . S
C352 C351 1.387 . S
C352 C353 1.369 . S
C352 H361 0.929 . S
C353 N350 1.346 . S
C353 C352 1.369 . S
C353 H356 0.928 . S
C354 N350 1.345 . S
C354 C355 1.371 . S
C354 H357 0.931 . S
C355 C351 1.391 . S
C355 C354 1.371 . S
C355 H362 0.930 . S
H356 C353 0.928 . S
H357 C354 0.931 . S
H358 C334 0.930 . S
H359 C331 0.930 . S
H360 C340 0.930 . S
H361 C352 0.929 . S
H362 C355 0.930 . S
C363 C364 1.351 . S
C363 N366 1.368 . S
C363 H368 0.931 . S
C364 C363 1.351 . S
C364 N365 1.373 . S
C364 H392 0.930 . S
N365 C364 1.373 . S
N365 C367 1.340 . S
N366 C363 1.368 . S
N366 C367 1.321 . S
N366 Co369 2.135 . S
C367 N365 1.340 . S
C367 N366 1.321 . S
C367 H391 0.930 . S
H368 C363 0.931 . S
Co369 N366 2.135 . S
Co369 N372 2.121 . S
Co369 O377 2.055 . S
Co369 O380 2.039 . S
Co369 N383 2.140 . S
C370 O371 1.227 . S
C370 O380 1.265 . S
O371 C370 1.227 . S
N372 Co369 2.121 . S
N372 C374 1.375 . S
N372 C375 1.313 . S
C373 C374 1.338 . S
C373 N376 1.377 . S
C373 H393 0.930 . S
C374 N372 1.375 . S
C374 C373 1.338 . S
C374 H378 0.931 . S
C375 N372 1.313 . S
C375 N376 1.344 . S
C375 H379 0.930 . S
N376 C373 1.377 . S
N376 C375 1.344 . S
O377 Co369 2.055 . S
O377 C381 1.253 . S
H378 C374 0.931 . S
H379 C375 0.930 . S
O380 Co369 2.039 . S
O380 C370 1.265 . S
C381 O377 1.253 . S
C381 O382 1.227 . S
O382 C381 1.227 . S
N383 Co369 2.140 . S
N383 C386 1.346 . S
N383 C387 1.345 . S
C384 C385 1.387 . S
C384 C388 1.391 . S
C385 C384 1.387 . S
C385 C386 1.369 . S
C385 H394 0.929 . S
C386 N383 1.346 . S
C386 C385 1.369 . S
C386 H389 0.928 . S
C387 N383 1.345 . S
C387 C388 1.371 . S
C387 H390 0.931 . S
C388 C384 1.391 . S
C388 C387 1.371 . S
C388 H395 0.930 . S
H389 C386 0.928 . S
H390 C387 0.931 . S
H391 C367 0.930 . S
H392 C364 0.930 . S
H393 C373 0.930 . S
H394 C385 0.929 . S
H395 C388 0.930 . S
C396 C397 1.349 . S
C396 C398 1.327 . S
C396 H421 0.950 . S
C397 C396 1.349 . S
C397 C413 1.349 . S
C398 C396 1.327 . S
C398 C417 1.429 . S
C398 H422 0.950 . S
C399 C416 1.574 . S
C399 C418 1.368 . S
C399 H423 0.949 . S
H400 C404 0.949 . S
C401 C402 1.349 . S
C401 C403 1.327 . S
C401 H424 0.950 . S
C402 C401 1.349 . S
C402 C414 1.349 . S
C403 C401 1.327 . S
C403 C419 1.429 . S
C403 H425 0.950 . S
C404 H400 0.949 . S
C404 C412 1.574 . S
C404 C420 1.368 . S
H405 C413 0.950 . S
H406 C411 0.950 . S
H407 C412 0.949 . S
H408 C414 0.950 . S
H409 C415 0.950 . S
H410 C416 0.949 . S
C411 H406 0.950 . S
C411 C413 1.327 . S
C411 C417 1.429 . S
C412 C404 1.574 . S
C412 H407 0.949 . S
C412 C418 1.368 . S
C413 C397 1.349 . S
C413 H405 0.950 . S
C413 C411 1.327 . S
C414 C402 1.349 . S
C414 H408 0.950 . S
C414 C415 1.327 . S
C415 H409 0.950 . S
C415 C414 1.327 . S
C415 C419 1.429 . S
C416 C399 1.574 . S
C416 H410 0.949 . S
C416 C420 1.368 . S
C417 C398 1.429 . S
C417 C411 1.429 . S
C417 C418 1.523 . S
C418 C399 1.368 . S
C418 C412 1.368 . S
C418 C417 1.523 . S
C419 C403 1.429 . S
C419 C415 1.429 . S
C419 C420 1.523 . S
C420 C404 1.368 . S
C420 C416 1.368 . S
C420 C419 1.523 . S
H421 C396 0.950 . S
H422 C398 0.950 . S
H423 C399 0.949 . S
H424 C401 0.950 . S
H425 C403 0.950 . S
C426 C427 1.349 . S
C426 C428 1.327 . S
C426 H451 0.950 . S
C427 C426 1.349 . S
C427 C443 1.349 . S
C428 C426 1.327 . S
C428 C447 1.429 . S
C428 H452 0.950 . S
C429 C446 1.574 . S
C429 C448 1.368 . S
C429 H453 0.949 . S
H430 C434 0.949 . S
C431 C432 1.349 . S
C431 C433 1.327 . S
C431 H454 0.950 . S
C432 C431 1.349 . S
C432 C444 1.349 . S
C433 C431 1.327 . S
C433 C449 1.429 . S
C433 H455 0.950 . S
C434 H430 0.949 . S
C434 C442 1.574 . S
C434 C450 1.368 . S
H435 C443 0.950 . S
H436 C441 0.950 . S
H437 C442 0.949 . S
H438 C444 0.950 . S
H439 C445 0.950 . S
H440 C446 0.949 . S
C441 H436 0.950 . S
C441 C443 1.327 . S
C441 C447 1.429 . S
C442 C434 1.574 . S
C442 H437 0.949 . S
C442 C448 1.368 1_655 S
C443 C427 1.349 . S
C443 H435 0.950 . S
C443 C441 1.327 . S
C444 C432 1.349 . S
C444 H438 0.950 . S
C444 C445 1.327 . S
C445 H439 0.950 . S
C445 C444 1.327 . S
C445 C449 1.429 . S
C446 C429 1.574 . S
C446 H440 0.949 . S
C446 C450 1.368 1_455 S
C447 C428 1.429 . S
C447 C441 1.429 . S
C447 C448 1.523 . S
C448 C429 1.368 . S
C448 C442 1.368 1_455 S
C448 C447 1.523 . S
C449 C433 1.429 . S
C449 C445 1.429 . S
C449 C450 1.523 . S
C450 C434 1.368 . S
C450 C446 1.368 1_655 S
C450 C449 1.523 . S
H451 C426 0.950 . S
H452 C428 0.950 . S
H453 C429 0.949 . S
H454 C431 0.950 . S
H455 C433 0.950 . S
C456 C457 1.349 . S
C456 C458 1.327 . S
C456 H481 0.950 . S
C457 C456 1.349 . S
C457 C473 1.349 . S
C458 C456 1.327 . S
C458 C477 1.429 . S
C458 H482 0.950 . S
C459 C476 1.574 . S
C459 C478 1.368 . S
C459 H483 0.949 . S
H460 C464 0.949 . S
C461 C462 1.349 . S
C461 C463 1.327 . S
C461 H484 0.950 . S
C462 C461 1.349 . S
C462 C474 1.349 . S
C463 C461 1.327 . S
C463 C479 1.429 . S
C463 H485 0.950 . S
C464 H460 0.949 . S
C464 C472 1.574 . S
C464 C480 1.368 . S
H465 C473 0.950 . S
H466 C471 0.950 . S
H467 C472 0.949 . S
H468 C474 0.950 . S
H469 C475 0.950 . S
H470 C476 0.949 . S
C471 H466 0.950 . S
C471 C473 1.327 . S
C471 C477 1.429 . S
C472 C464 1.574 . S
C472 H467 0.949 . S
C472 C478 1.368 1_565 S
C473 C457 1.349 . S
C473 H465 0.950 . S
C473 C471 1.327 . S
C474 C462 1.349 . S
C474 H468 0.950 . S
C474 C475 1.327 . S
C475 H469 0.950 . S
C475 C474 1.327 . S
C475 C479 1.429 . S
C476 C459 1.574 . S
C476 H470 0.949 . S
C476 C480 1.368 1_545 S
C477 C458 1.429 . S
C477 C471 1.429 . S
C477 C478 1.523 . S
C478 C459 1.368 . S
C478 C472 1.368 1_545 S
C478 C477 1.523 . S
C479 C463 1.429 . S
C479 C475 1.429 . S
C479 C480 1.523 . S
C480 C464 1.368 . S
C480 C476 1.368 1_565 S
C480 C479 1.523 . S
H481 C456 0.950 . S
H482 C458 0.950 . S
H483 C459 0.949 . S
H484 C461 0.950 . S
H485 C463 0.950 . S
C486 C487 1.349 . S
C486 C488 1.327 . S
C486 H511 0.950 . S
C487 C486 1.349 . S
C487 C503 1.349 . S
C488 C486 1.327 . S
C488 C507 1.429 . S
C488 H512 0.950 . S
C489 C506 1.574 . S
C489 C508 1.368 . S
C489 H513 0.949 . S
H490 C494 0.949 . S
C491 C492 1.349 . S
C491 C493 1.327 . S
C491 H514 0.950 . S
C492 C491 1.349 . S
C492 C504 1.349 . S
C493 C491 1.327 . S
C493 C509 1.429 . S
C493 H515 0.950 . S
C494 H490 0.949 . S
C494 C502 1.574 . S
C494 C510 1.368 . S
H495 C503 0.950 . S
H496 C501 0.950 . S
H497 C502 0.949 . S
H498 C504 0.950 . S
H499 C505 0.950 . S
H500 C506 0.949 . S
C501 H496 0.950 . S
C501 C503 1.327 . S
C501 C507 1.429 . S
C502 C494 1.574 . S
C502 H497 0.949 . S
C502 C508 1.368 . S
C503 C487 1.349 . S
C503 H495 0.950 . S
C503 C501 1.327 . S
C504 C492 1.349 . S
C504 H498 0.950 . S
C504 C505 1.327 . S
C505 H499 0.950 . S
C505 C504 1.327 . S
C505 C509 1.429 . S
C506 C489 1.574 . S
C506 H500 0.949 . S
C506 C510 1.368 . S
C507 C488 1.429 . S
C507 C501 1.429 . S
C507 C508 1.523 . S
C508 C489 1.368 . S
C508 C502 1.368 . S
C508 C507 1.523 . S
C509 C493 1.429 . S
C509 C505 1.429 . S
C509 C510 1.523 . S
C510 C494 1.368 . S
C510 C506 1.368 . S
C510 C509 1.523 . S
H511 C486 0.950 . S
H512 C488 0.950 . S
H513 C489 0.949 . S
H514 C491 0.950 . S
H515 C493 0.950 . S
C516 C517 1.349 . S
C516 C518 1.327 . S
C516 H541 0.950 . S
C517 C516 1.349 . S
C517 C533 1.349 . S
C518 C516 1.327 . S
C518 C537 1.429 . S
C518 H542 0.950 . S
C519 C536 1.574 . S
C519 C538 1.368 1_455 S
C519 H543 0.949 . S
H520 C524 0.949 . S
C521 C522 1.349 . S
C521 C523 1.327 . S
C521 H544 0.950 . S
C522 C521 1.349 . S
C522 C534 1.349 . S
C523 C521 1.327 . S
C523 C539 1.429 . S
C523 H545 0.950 . S
C524 H520 0.949 . S
C524 C532 1.574 . S
C524 C540 1.368 1_655 S
H525 C533 0.950 . S
H526 C531 0.950 . S
H527 C532 0.949 . S
H528 C534 0.950 . S
H529 C535 0.950 . S
H530 C536 0.949 . S
C531 H526 0.950 . S
C531 C533 1.327 . S
C531 C537 1.429 . S
C532 C524 1.574 . S
C532 H527 0.949 . S
C532 C538 1.368 . S
C533 C517 1.349 . S
C533 H525 0.950 . S
C533 C531 1.327 . S
C534 C522 1.349 . S
C534 H528 0.950 . S
C534 C535 1.327 . S
C535 H529 0.950 . S
C535 C534 1.327 . S
C535 C539 1.429 . S
C536 C519 1.574 . S
C536 H530 0.949 . S
C536 C540 1.368 . S
C537 C518 1.429 . S
C537 C531 1.429 . S
C537 C538 1.523 . S
C538 C519 1.368 1_655 S
C538 C532 1.368 . S
C538 C537 1.523 . S
C539 C523 1.429 . S
C539 C535 1.429 . S
C539 C540 1.523 . S
C540 C524 1.368 1_455 S
C540 C536 1.368 . S
C540 C539 1.523 . S
H541 C516 0.950 . S
H542 C518 0.950 . S
H543 C519 0.949 . S
H544 C521 0.950 . S
H545 C523 0.950 . S
C546 C547 1.349 . S
C546 C548 1.327 . S
C546 H571 0.950 . S
C547 C546 1.349 . S
C547 C563 1.349 . S
C548 C546 1.327 . S
C548 C567 1.429 . S
C548 H572 0.950 . S
C549 C566 1.574 . S
C549 C568 1.368 1_545 S
C549 H573 0.949 . S
H550 C554 0.949 . S
C551 C552 1.349 . S
C551 C553 1.327 . S
C551 H574 0.950 . S
C552 C551 1.349 . S
C552 C564 1.349 . S
C553 C551 1.327 . S
C553 C569 1.429 . S
C553 H575 0.950 . S
C554 H550 0.949 . S
C554 C562 1.574 . S
C554 C570 1.368 1_565 S
H555 C563 0.950 . S
H556 C561 0.950 . S
H557 C562 0.949 . S
H558 C564 0.950 . S
H559 C565 0.950 . S
H560 C566 0.949 . S
C561 H556 0.950 . S
C561 C563 1.327 . S
C561 C567 1.429 . S
C562 C554 1.574 . S
C562 H557 0.949 . S
C562 C568 1.368 . S
C563 C547 1.349 . S
C563 H555 0.950 . S
C563 C561 1.327 . S
C564 C552 1.349 . S
C564 H558 0.950 . S
C564 C565 1.327 . S
C565 H559 0.950 . S
C565 C564 1.327 . S
C565 C569 1.429 . S
C566 C549 1.574 . S
C566 H560 0.949 . S
C566 C570 1.368 . S
C567 C548 1.429 . S
C567 C561 1.429 . S
C567 C568 1.523 . S
C568 C549 1.368 1_565 S
C568 C562 1.368 . S
C568 C567 1.523 . S
C569 C553 1.429 . S
C569 C565 1.429 . S
C569 C570 1.523 . S
C570 C554 1.368 1_545 S
C570 C566 1.368 . S
C570 C569 1.523 . S
H571 C546 0.950 . S
H572 C548 0.950 . S
H573 C549 0.949 . S
H574 C551 0.950 . S
H575 C553 0.950 . S
C576 C577 1.349 . S
C576 C578 1.327 . S
C576 H601 0.950 . S
C577 C576 1.349 . S
C577 C593 1.349 . S
C578 C576 1.327 . S
C578 C597 1.429 . S
C578 H602 0.950 . S
C579 C596 1.574 . S
C579 C598 1.368 . S
C579 H603 0.949 . S
H580 C584 0.949 . S
C581 C582 1.349 . S
C581 C583 1.327 . S
C581 H604 0.950 . S
C582 C581 1.349 . S
C582 C594 1.349 . S
C583 C581 1.327 . S
C583 C599 1.429 . S
C583 H605 0.950 . S
C584 H580 0.949 . S
C584 C592 1.574 . S
C584 C600 1.368 . S
H585 C593 0.950 . S
H586 C591 0.950 . S
H587 C592 0.949 . S
H588 C594 0.950 . S
H589 C595 0.950 . S
H590 C596 0.949 . S
C591 H586 0.950 . S
C591 C593 1.327 . S
C591 C597 1.429 . S
C592 C584 1.574 . S
C592 H587 0.949 . S
C592 C598 1.368 . S
C593 C577 1.349 . S
C593 H585 0.950 . S
C593 C591 1.327 . S
C594 C582 1.349 . S
C594 H588 0.950 . S
C594 C595 1.327 . S
C595 H589 0.950 . S
C595 C594 1.327 . S
C595 C599 1.429 . S
C596 C579 1.574 . S
C596 H590 0.949 . S
C596 C600 1.368 . S
C597 C578 1.429 . S
C597 C591 1.429 . S
C597 C598 1.523 . S
C598 C579 1.368 . S
C598 C592 1.368 . S
C598 C597 1.523 . S
C599 C583 1.429 . S
C599 C595 1.429 . S
C599 C600 1.523 . S
C600 C584 1.368 . S
C600 C596 1.368 . S
C600 C599 1.523 . S
H601 C576 0.950 . S
H602 C578 0.950 . S
H603 C579 0.949 . S
H604 C581 0.950 . S
H605 C583 0.950 . S
C606 C607 1.349 . S
C606 C608 1.327 . S
C606 H631 0.950 . S
C607 C606 1.349 . S
C607 C623 1.349 . S
C608 C606 1.327 . S
C608 C627 1.429 . S
C608 H632 0.950 1_655 S
C609 C626 1.574 . S
C609 C628 1.368 . S
C609 H633 0.949 . S
H610 C614 0.949 . S
C611 C612 1.349 . S
C611 C613 1.327 . S
C611 H634 0.950 . S
C612 C611 1.349 . S
C612 C624 1.349 . S
C613 C611 1.327 . S
C613 C629 1.429 . S
C613 H635 0.950 1_455 S
C614 H610 0.949 . S
C614 C622 1.574 . S
C614 C630 1.368 . S
H615 C623 0.950 . S
H616 C621 0.950 . S
H617 C622 0.949 . S
H618 C624 0.950 . S
H619 C625 0.950 . S
H620 C626 0.949 . S
C621 H616 0.950 . S
C621 C623 1.327 . S
C621 C627 1.429 . S
C622 C614 1.574 . S
C622 H617 0.949 . S
C622 C628 1.368 1_455 S
C623 C607 1.349 . S
C623 H615 0.950 . S
C623 C621 1.327 . S
C624 C612 1.349 . S
C624 H618 0.950 . S
C624 C625 1.327 . S
C625 H619 0.950 . S
C625 C624 1.327 . S
C625 C629 1.429 . S
C626 C609 1.574 . S
C626 H620 0.949 . S
C626 C630 1.368 1_655 S
C627 C608 1.429 . S
C627 C621 1.429 . S
C627 C628 1.523 . S
C628 C609 1.368 . S
C628 C622 1.368 1_655 S
C628 C627 1.523 . S
C629 C613 1.429 . S
C629 C625 1.429 . S
C629 C630 1.523 . S
C630 C614 1.368 . S
C630 C626 1.368 1_455 S
C630 C629 1.523 . S
H631 C606 0.950 . S
H632 C608 0.950 1_455 S
H633 C609 0.949 . S
H634 C611 0.950 . S
H635 C613 0.950 1_655 S
C636 C637 1.349 . S
C636 C638 1.327 . S
C636 H661 0.950 . S
C637 C636 1.349 . S
C637 C653 1.349 . S
C638 C636 1.327 . S
C638 C657 1.429 . S
C638 H662 0.950 1_545 S
C639 C656 1.574 1_554 S
C639 C658 1.368 . S
C639 H663 0.949 . S
H640 C644 0.949 . S
C641 C642 1.349 . S
C641 C643 1.327 . S
C641 H664 0.950 . S
C642 C641 1.349 . S
C642 C654 1.349 . S
C643 C641 1.327 . S
C643 C659 1.429 . S
C643 H665 0.950 1_565 S
C644 H640 0.949 . S
C644 C652 1.574 1_556 S
C644 C660 1.368 . S
H645 C653 0.950 . S
H646 C651 0.950 . S
H647 C652 0.949 . S
H648 C654 0.950 . S
H649 C655 0.950 . S
H650 C656 0.949 . S
C651 H646 0.950 . S
C651 C653 1.327 . S
C651 C657 1.429 . S
C652 C644 1.574 1_554 S
C652 H647 0.949 . S
C652 C658 1.368 1_565 S
C653 C637 1.349 . S
C653 H645 0.950 . S
C653 C651 1.327 . S
C654 C642 1.349 . S
C654 H648 0.950 . S
C654 C655 1.327 . S
C655 H649 0.950 . S
C655 C654 1.327 . S
C655 C659 1.429 . S
C656 C639 1.574 1_556 S
C656 H650 0.949 . S
C656 C660 1.368 1_545 S
C657 C638 1.429 . S
C657 C651 1.429 . S
C657 C658 1.523 . S
C658 C639 1.368 . S
C658 C652 1.368 1_545 S
C658 C657 1.523 . S
C659 C643 1.429 . S
C659 C655 1.429 . S
C659 C660 1.523 . S
C660 C644 1.368 . S
C660 C656 1.368 1_565 S
C660 C659 1.523 . S
H661 C636 0.950 . S
H662 C638 0.950 1_565 S
H663 C639 0.949 . S
H664 C641 0.950 . S
H665 C643 0.950 1_545 S
C666 C667 1.349 . S
C666 C668 1.327 . S
C666 H691 0.950 . S
C667 C666 1.349 . S
C667 C683 1.349 . S
C668 C666 1.327 . S
C668 C687 1.429 . S
C668 H692 0.950 . S
C669 C686 1.574 . S
C669 C688 1.368 . S
C669 H693 0.949 . S
H670 C674 0.949 . S
C671 C672 1.349 . S
C671 C673 1.327 . S
C671 H694 0.950 . S
C672 C671 1.349 . S
C672 C684 1.349 . S
C673 C671 1.327 . S
C673 C689 1.429 . S
C673 H695 0.950 . S
C674 H670 0.949 . S
C674 C682 1.574 . S
C674 C690 1.368 . S
H675 C683 0.950 . S
H676 C681 0.950 . S
H677 C682 0.949 . S
H678 C684 0.950 . S
H679 C685 0.950 . S
H680 C686 0.949 . S
C681 H676 0.950 . S
C681 C683 1.327 . S
C681 C687 1.429 . S
C682 C674 1.574 . S
C682 H677 0.949 . S
C682 C688 1.368 . S
C683 C667 1.349 . S
C683 H675 0.950 . S
C683 C681 1.327 . S
C684 C672 1.349 . S
C684 H678 0.950 . S
C684 C685 1.327 . S
C685 H679 0.950 . S
C685 C684 1.327 . S
C685 C689 1.429 . S
C686 C669 1.574 . S
C686 H680 0.949 . S
C686 C690 1.368 . S
C687 C668 1.429 . S
C687 C681 1.429 . S
C687 C688 1.523 . S
C688 C669 1.368 . S
C688 C682 1.368 . S
C688 C687 1.523 . S
C689 C673 1.429 . S
C689 C685 1.429 . S
C689 C690 1.523 . S
C690 C674 1.368 . S
C690 C686 1.368 . S
C690 C689 1.523 . S
H691 C666 0.950 . S
H692 C668 0.950 . S
H693 C669 0.949 . S
H694 C671 0.950 . S
H695 C673 0.950 . S
C696 C697 1.349 . S
C696 C698 1.327 . S
C696 H721 0.950 . S
C697 C696 1.349 . S
C697 C713 1.349 . S
C698 C696 1.327 . S
C698 C717 1.429 . S
C698 H722 0.950 . S
C699 C716 1.574 1_455 S
C699 C718 1.368 . S
C699 H723 0.949 . S
H700 C704 0.949 . S
C701 C702 1.349 . S
C701 C703 1.327 . S
C701 H724 0.950 . S
C702 C701 1.349 . S
C702 C714 1.349 . S
C703 C701 1.327 . S
C703 C719 1.429 . S
C703 H725 0.950 . S
C704 H700 0.949 . S
C704 C712 1.574 1_655 S
C704 C720 1.368 . S
H705 C713 0.950 . S
H706 C711 0.950 . S
H707 C712 0.949 . S
H708 C714 0.950 . S
H709 C715 0.950 . S
H710 C716 0.949 . S
C711 H706 0.950 . S
C711 C713 1.327 . S
C711 C717 1.429 . S
C712 C704 1.574 1_455 S
C712 H707 0.949 . S
C712 C718 1.368 . S
C713 C697 1.349 . S
C713 H705 0.950 . S
C713 C711 1.327 . S
C714 C702 1.349 . S
C714 H708 0.950 . S
C714 C715 1.327 . S
C715 H709 0.950 . S
C715 C714 1.327 . S
C715 C719 1.429 . S
C716 C699 1.574 1_655 S
C716 H710 0.949 . S
C716 C720 1.368 . S
C717 C698 1.429 . S
C717 C711 1.429 . S
C717 C718 1.523 . S
C718 C699 1.368 . S
C718 C712 1.368 . S
C718 C717 1.523 . S
C719 C703 1.429 . S
C719 C715 1.429 . S
C719 C720 1.523 . S
C720 C704 1.368 . S
C720 C716 1.368 . S
C720 C719 1.523 . S
H721 C696 0.950 . S
H722 C698 0.950 . S
H723 C699 0.949 . S
H724 C701 0.950 . S
H725 C703 0.950 . S
C726 C727 1.349 . S
C726 C728 1.327 . S
C726 H751 0.950 . S
C727 C726 1.349 . S
C727 C743 1.349 . S
C728 C726 1.327 . S
C728 C747 1.429 . S
C728 H752 0.950 1_545 S
C729 C746 1.574 1_556 S
C729 C748 1.368 . S
C729 H753 0.949 . S
H730 C734 0.949 . S
C731 C732 1.349 . S
C731 C733 1.327 . S
C731 H754 0.950 . S
C732 C731 1.349 . S
C732 C744 1.349 . S
C733 C731 1.327 . S
C733 C749 1.429 . S
C733 H755 0.950 1_565 S
C734 H730 0.949 . S
C734 C742 1.574 1_554 S
C734 C750 1.368 . S
H735 C743 0.950 . S
H736 C741 0.950 . S
H737 C742 0.949 . S
H738 C744 0.950 . S
H739 C745 0.950 . S
H740 C746 0.949 . S
C741 H736 0.950 . S
C741 C743 1.327 . S
C741 C747 1.429 . S
C742 C734 1.574 1_556 S
C742 H737 0.949 . S
C742 C748 1.368 1_565 S
C743 C727 1.349 . S
C743 H735 0.950 . S
C743 C741 1.327 . S
C744 C732 1.349 . S
C744 H738 0.950 . S
C744 C745 1.327 . S
C745 H739 0.950 . S
C745 C744 1.327 . S
C745 C749 1.429 . S
C746 C729 1.574 1_554 S
C746 H740 0.949 . S
C746 C750 1.368 1_545 S
C747 C728 1.429 . S
C747 C741 1.429 . S
C747 C748 1.523 . S
C748 C729 1.368 . S
C748 C742 1.368 1_545 S
C748 C747 1.523 . S
C749 C733 1.429 . S
C749 C745 1.429 . S
C749 C750 1.523 . S
C750 C734 1.368 . S
C750 C746 1.368 1_565 S
C750 C749 1.523 . S
H751 C726 0.950 . S
H752 C728 0.950 1_565 S
H753 C729 0.949 . S
H754 C731 0.950 . S
H755 C733 0.950 1_545 S
C756 C757 1.349 . S
C756 C758 1.327 . S
C756 H781 0.950 . S
C757 C756 1.349 . S
C757 C773 1.349 . S
C758 C756 1.327 . S
C758 C777 1.429 . S
C758 H782 0.950 . S
C759 C776 1.577 1_545 S
C759 C778 1.368 . S
C759 H783 0.949 . S
H760 C764 0.949 . S
C761 C762 1.349 . S
C761 C763 1.327 . S
C761 H784 0.950 . S
C762 C761 1.349 . S
C762 C774 1.349 . S
C763 C761 1.327 . S
C763 C779 1.429 . S
C763 H785 0.950 . S
C764 H760 0.949 . S
C764 C772 1.577 1_565 S
C764 C780 1.368 . S
H765 C773 0.950 . S
H766 C771 0.950 . S
H767 C772 0.953 . S
H768 C774 0.950 . S
H769 C775 0.950 . S
H770 C776 0.953 . S
C771 H766 0.950 . S
C771 C773 1.327 . S
C771 C777 1.429 . S
C772 C764 1.577 1_545 S
C772 H767 0.953 . S
C772 C778 1.358 1_655 S
C773 C757 1.349 . S
C773 H765 0.950 . S
C773 C771 1.327 . S
C774 C762 1.349 . S
C774 H768 0.950 . S
C774 C775 1.327 . S
C775 H769 0.950 . S
C775 C774 1.327 . S
C775 C779 1.429 . S
C776 C759 1.577 1_565 S
C776 H770 0.953 . S
C776 C780 1.358 1_455 S
C777 C758 1.429 . S
C777 C771 1.429 . S
C777 C778 1.523 . S
C778 C759 1.368 . S
C778 C772 1.358 1_455 S
C778 C777 1.523 . S
C779 C763 1.429 . S
C779 C775 1.429 . S
C779 C780 1.523 . S
C780 C764 1.368 . S
C780 C776 1.358 1_655 S
C780 C779 1.523 . S
H781 C756 0.950 . S
H782 C758 0.950 . S
H783 C759 0.949 . S
H784 C761 0.950 . S
H785 C763 0.950 . S
C786 C787 1.349 . S
C786 C788 1.327 . S
C786 H811 0.950 . S
C787 C786 1.349 . S
C787 C803 1.349 . S
C788 C786 1.327 . S
C788 C807 1.429 . S
C788 H812 0.950 . S
C789 C806 1.590 . S
C789 C808 1.368 1_455 S
C789 H813 0.949 . S
H790 C794 0.949 . S
C791 C792 1.349 . S
C791 C793 1.327 . S
C791 H814 0.950 . S
C792 C791 1.349 . S
C792 C804 1.349 . S
C793 C791 1.327 . S
C793 C809 1.429 . S
C793 H815 0.950 . S
C794 H790 0.949 . S
C794 C802 1.590 . S
C794 C810 1.368 1_655 S
H795 C803 0.950 . S
H796 C801 0.950 1_455 S
H797 C802 0.945 . S
H798 C804 0.950 . S
H799 C805 0.950 1_655 S
H800 C806 0.945 . S
C801 H796 0.950 1_655 S
C801 C803 1.327 . S
C801 C807 1.429 . S
C802 C794 1.590 . S
C802 H797 0.945 . S
C802 C808 1.359 1_565 S
C803 C787 1.349 . S
C803 H795 0.950 . S
C803 C801 1.327 . S
C804 C792 1.349 . S
C804 H798 0.950 . S
C804 C805 1.327 . S
C805 H799 0.950 1_455 S
C805 C804 1.327 . S
C805 C809 1.429 . S
C806 C789 1.590 . S
C806 H800 0.945 . S
C806 C810 1.359 1_545 S
C807 C788 1.429 . S
C807 C801 1.429 . S
C807 C808 1.523 . S
C808 C789 1.368 1_655 S
C808 C802 1.359 1_545 S
C808 C807 1.523 . S
C809 C793 1.429 . S
C809 C805 1.429 . S
C809 C810 1.523 . S
C810 C794 1.368 1_455 S
C810 C806 1.359 1_565 S
C810 C809 1.523 . S
H811 C786 0.950 . S
H812 C788 0.950 . S
H813 C789 0.949 . S
H814 C791 0.950 . S
H815 C793 0.950 . S
C816 C817 1.349 . S
C816 C818 1.327 . S
C816 H841 0.950 . S
C817 C816 1.349 . S
C817 C833 1.349 . S
C818 C816 1.327 . S
C818 C837 1.429 . S
C818 H842 0.950 1_545 S
C819 C836 1.574 1_455 S
C819 C838 1.368 . S
C819 H843 0.949 . S
H820 C824 0.949 . S
C821 C822 1.349 . S
C821 C823 1.327 . S
C821 H844 0.950 . S
C822 C821 1.349 . S
C822 C834 1.349 . S
C823 C821 1.327 . S
C823 C839 1.429 . S
C823 H845 0.950 1_565 S
C824 H820 0.949 . S
C824 C832 1.574 1_655 S
C824 C840 1.368 . S
H825 C833 0.950 . S
H826 C831 0.950 . S
H827 C832 0.949 . S
H828 C834 0.950 . S
H829 C835 0.950 . S
H830 C836 0.949 . S
C831 H826 0.950 . S
C831 C833 1.327 . S
C831 C837 1.429 . S
C832 C824 1.574 1_455 S
C832 H827 0.949 . S
C832 C838 1.368 1_565 S
C833 C817 1.349 . S
C833 H825 0.950 . S
C833 C831 1.327 . S
C834 C822 1.349 . S
C834 H828 0.950 . S
C834 C835 1.327 . S
C835 H829 0.950 . S
C835 C834 1.327 . S
C835 C839 1.429 . S
C836 C819 1.574 1_655 S
C836 H830 0.949 . S
C836 C840 1.368 1_545 S
C837 C818 1.429 . S
C837 C831 1.429 . S
C837 C838 1.523 . S
C838 C819 1.368 . S
C838 C832 1.368 1_545 S
C838 C837 1.523 . S
C839 C823 1.429 . S
C839 C835 1.429 . S
C839 C840 1.523 . S
C840 C824 1.368 . S
C840 C836 1.368 1_565 S
C840 C839 1.523 . S
H841 C816 0.950 . S
H842 C818 0.950 1_565 S
H843 C819 0.949 . S
H844 C821 0.950 . S
H845 C823 0.950 1_545 S
C846 C847 1.349 . S
C846 C848 1.327 . S
C846 H871 0.950 . S
C847 C846 1.349 . S
C847 C863 1.349 . S
C848 C846 1.327 . S
C848 C867 1.429 . S
C848 H872 0.950 . S
C849 C866 1.577 1_655 S
C849 C868 1.358 1_545 S
C849 H873 0.953 . S
H850 C854 0.953 . S
C851 C852 1.349 . S
C851 C853 1.327 . S
C851 H874 0.950 . S
C852 C851 1.349 . S
C852 C864 1.349 . S
C853 C851 1.327 . S
C853 C869 1.429 . S
C853 H875 0.950 . S
C854 H850 0.953 . S
C854 C862 1.577 1_455 S
C854 C870 1.358 1_565 S
H855 C863 0.950 . S
H856 C861 0.950 . S
H857 C862 0.949 . S
H858 C864 0.950 . S
H859 C865 0.950 . S
H860 C866 0.949 . S
C861 H856 0.950 . S
C861 C863 1.327 . S
C861 C867 1.429 . S
C862 C854 1.577 1_655 S
C862 H857 0.949 . S
C862 C868 1.368 . S
C863 C847 1.349 . S
C863 H855 0.950 . S
C863 C861 1.327 . S
C864 C852 1.349 . S
C864 H858 0.950 . S
C864 C865 1.327 . S
C865 H859 0.950 . S
C865 C864 1.327 . S
C865 C869 1.429 . S
C866 C849 1.577 1_455 S
C866 H860 0.949 . S
C866 C870 1.368 . S
C867 C848 1.429 . S
C867 C861 1.429 . S
C867 C868 1.523 . S
C868 C849 1.358 1_565 S
C868 C862 1.368 . S
C868 C867 1.523 . S
C869 C853 1.429 . S
C869 C865 1.429 . S
C869 C870 1.523 . S
C870 C854 1.358 1_545 S
C870 C866 1.368 . S
C870 C869 1.523 . S
H871 C846 0.950 . S
H872 C848 0.950 . S
H873 C849 0.953 . S
H874 C851 0.950 . S
H875 C853 0.950 . S
C876 C877 1.349 . S
C876 C878 1.327 . S
C876 H901 0.950 . S
C877 C876 1.349 . S
C877 C893 1.349 . S
C878 C876 1.327 . S
C878 C897 1.429 . S
C878 H902 0.950 1_655 S
C879 C896 1.574 1_565 S
C879 C898 1.368 . S
C879 H903 0.949 . S
H880 C884 0.949 . S
C881 C882 1.349 . S
C881 C883 1.327 . S
C881 H904 0.950 . S
C882 C881 1.349 . S
C882 C894 1.349 . S
C883 C881 1.327 . S
C883 C899 1.429 . S
C883 H905 0.950 1_455 S
C884 H880 0.949 . S
C884 C892 1.574 1_545 S
C884 C900 1.368 . S
H885 C893 0.950 . S
H886 C891 0.950 . S
H887 C892 0.949 . S
H888 C894 0.950 . S
H889 C895 0.950 . S
H890 C896 0.949 . S
C891 H886 0.950 . S
C891 C893 1.327 . S
C891 C897 1.429 . S
C892 C884 1.574 1_565 S
C892 H887 0.949 . S
C892 C898 1.368 1_455 S
C893 C877 1.349 . S
C893 H885 0.950 . S
C893 C891 1.327 . S
C894 C882 1.349 . S
C894 H888 0.950 . S
C894 C895 1.327 . S
C895 H889 0.950 . S
C895 C894 1.327 . S
C895 C899 1.429 . S
C896 C879 1.574 1_545 S
C896 H890 0.949 . S
C896 C900 1.368 1_655 S
C897 C878 1.429 . S
C897 C891 1.429 . S
C897 C898 1.523 . S
C898 C879 1.368 . S
C898 C892 1.368 1_655 S
C898 C897 1.523 . S
C899 C883 1.429 . S
C899 C895 1.429 . S
C899 C900 1.523 . S
C900 C884 1.368 . S
C900 C896 1.368 1_455 S
C900 C899 1.523 . S
H901 C876 0.950 . S
H902 C878 0.950 1_455 S
H903 C879 0.949 . S
H904 C881 0.950 . S
H905 C883 0.950 1_655 S
C906 C907 1.349 . S
C906 C908 1.327 . S
C906 H931 0.950 . S
C907 C906 1.349 . S
C907 C923 1.349 . S
C908 C906 1.327 . S
C908 C927 1.429 . S
C908 H932 0.950 . S
C909 C926 1.590 . S
C909 C928 1.368 1_565 S
C909 H933 0.949 . S
H910 C914 0.949 . S
C911 C912 1.349 . S
C911 C913 1.327 . S
C911 H934 0.950 . S
C912 C911 1.349 . S
C912 C924 1.349 . S
C913 C911 1.327 . S
C913 C929 1.429 . S
C913 H935 0.950 . S
C914 H910 0.949 . S
C914 C922 1.590 . S
C914 C930 1.368 1_545 S
H915 C923 0.950 . S
H916 C921 0.950 1_565 S
H917 C922 0.945 . S
H918 C924 0.950 . S
H919 C925 0.950 1_545 S
H920 C926 0.945 . S
C921 H916 0.950 1_545 S
C921 C923 1.327 . S
C921 C927 1.429 . S
C922 C914 1.590 . S
C922 H917 0.945 . S
C922 C928 1.359 1_455 S
C923 C907 1.349 . S
C923 H915 0.950 . S
C923 C921 1.327 . S
C924 C912 1.349 . S
C924 H918 0.950 . S
C924 C925 1.327 . S
C925 H919 0.950 1_565 S
C925 C924 1.327 . S
C925 C929 1.429 . S
C926 C909 1.590 . S
C926 H920 0.945 . S
C926 C930 1.359 1_655 S
C927 C908 1.429 . S
C927 C921 1.429 . S
C927 C928 1.523 . S
C928 C909 1.368 1_545 S
C928 C922 1.359 1_655 S
C928 C927 1.523 . S
C929 C913 1.429 . S
C929 C925 1.429 . S
C929 C930 1.523 . S
C930 C914 1.368 1_565 S
C930 C926 1.359 1_455 S
C930 C929 1.523 . S
H931 C906 0.950 . S
H932 C908 0.950 . S
H933 C909 0.949 . S
H934 C911 0.950 . S
H935 C913 0.950 . S
C936 C937 1.349 . S
C936 C938 1.327 . S
C936 H961 0.950 . S
C937 C936 1.349 . S
C937 C953 1.349 . S
C938 C936 1.327 . S
C938 C957 1.429 . S
C938 H962 0.950 . S
C939 C956 1.574 1_655 S
C939 C958 1.368 . S
C939 H963 0.949 . S
H940 C944 0.949 . S
C941 C942 1.349 . S
C941 C943 1.327 . S
C941 H964 0.950 . S
C942 C941 1.349 . S
C942 C954 1.349 . S
C943 C941 1.327 . S
C943 C959 1.429 . S
C943 H965 0.950 . S
C944 H940 0.949 . S
C944 C952 1.574 1_455 S
C944 C960 1.368 . S
H945 C953 0.950 . S
H946 C951 0.950 . S
H947 C952 0.949 . S
H948 C954 0.950 . S
H949 C955 0.950 . S
H950 C956 0.949 . S
C951 H946 0.950 . S
C951 C953 1.327 . S
C951 C957 1.429 . S
C952 C944 1.574 1_655 S
C952 H947 0.949 . S
C952 C958 1.368 . S
C953 C937 1.349 . S
C953 H945 0.950 . S
C953 C951 1.327 . S
C954 C942 1.349 . S
C954 H948 0.950 . S
C954 C955 1.327 . S
C955 H949 0.950 . S
C955 C954 1.327 . S
C955 C959 1.429 . S
C956 C939 1.574 1_455 S
C956 H950 0.949 . S
C956 C960 1.368 . S
C957 C938 1.429 . S
C957 C951 1.429 . S
C957 C958 1.523 . S
C958 C939 1.368 . S
C958 C952 1.368 . S
C958 C957 1.523 . S
C959 C943 1.429 . S
C959 C955 1.429 . S
C959 C960 1.523 . S
C960 C944 1.368 . S
C960 C956 1.368 . S
C960 C959 1.523 . S
H961 C936 0.950 . S
H962 C938 0.950 . S
H963 C939 0.949 . S
H964 C941 0.950 . S
H965 C943 0.950 . S
C966 C967 1.349 . S
C966 C968 1.327 . S
C966 H991 0.950 . S
C967 C966 1.349 . S
C967 C983 1.349 . S
C968 C966 1.327 . S
C968 C987 1.429 . S
C968 H992 0.950 . S
C969 C986 1.574 1_545 S
C969 C988 1.368 . S
C969 H993 0.949 . S
H970 C974 0.949 . S
C971 C972 1.349 . S
C971 C973 1.327 . S
C971 H994 0.950 . S
C972 C971 1.349 . S
C972 C984 1.349 . S
C973 C971 1.327 . S
C973 C989 1.429 . S
C973 H995 0.950 . S
C974 H970 0.949 . S
C974 C982 1.574 1_565 S
C974 C990 1.368 . S
H975 C983 0.950 . S
H976 C981 0.950 . S
H977 C982 0.949 . S
H978 C984 0.950 . S
H979 C985 0.950 . S
H980 C986 0.949 . S
C981 H976 0.950 . S
C981 C983 1.327 . S
C981 C987 1.429 . S
C982 C974 1.574 1_545 S
C982 H977 0.949 . S
C982 C988 1.368 . S
C983 C967 1.349 . S
C983 H975 0.950 . S
C983 C981 1.327 . S
C984 C972 1.349 . S
C984 H978 0.950 . S
C984 C985 1.327 . S
C985 H979 0.950 . S
C985 C984 1.327 . S
C985 C989 1.429 . S
C986 C969 1.574 1_565 S
C986 H980 0.949 . S
C986 C990 1.368 . S
C987 C968 1.429 . S
C987 C981 1.429 . S
C987 C988 1.523 . S
C988 C969 1.368 . S
C988 C982 1.368 . S
C988 C987 1.523 . S
C989 C973 1.429 . S
C989 C985 1.429 . S
C989 C990 1.523 . S
C990 C974 1.368 . S
C990 C986 1.368 . S
C990 C989 1.523 . S
H991 C966 0.950 . S
H992 C968 0.950 . S
H993 C969 0.949 . S
H994 C971 0.950 . S
H995 C973 0.950 . S
C996 C997 1.349 . S
C996 C998 1.327 . S
C996 H1021 0.950 . S
C997 C996 1.349 . S
C997 C1013 1.349 . S
C998 C996 1.327 . S
C998 C1017 1.429 . S
C998 H1022 0.950 . S
C999 C1016 1.574 . S
C999 C1018 1.368 . S
C999 H1023 0.949 . S
H1000 C1004 0.949 . S
C1001 C1002 1.349 . S
C1001 C1003 1.327 . S
C1001 H1024 0.950 . S
C1002 C1001 1.349 . S
C1002 C1014 1.349 . S
C1003 C1001 1.327 . S
C1003 C1019 1.429 . S
C1003 H1025 0.950 . S
C1004 H1000 0.949 . S
C1004 C1012 1.574 . S
C1004 C1020 1.368 . S
H1005 C1013 0.950 . S
H1006 C1011 0.950 . S
H1007 C1012 0.949 . S
H1008 C1014 0.950 . S
H1009 C1015 0.950 . S
H1010 C1016 0.949 . S
C1011 H1006 0.950 . S
C1011 C1013 1.327 . S
C1011 C1017 1.429 . S
C1012 C1004 1.574 . S
C1012 H1007 0.949 . S
C1012 C1018 1.368 . S
C1013 C997 1.349 . S
C1013 H1005 0.950 . S
C1013 C1011 1.327 . S
C1014 C1002 1.349 . S
C1014 H1008 0.950 . S
C1014 C1015 1.327 . S
C1015 H1009 0.950 . S
C1015 C1014 1.327 . S
C1015 C1019 1.429 . S
C1016 C999 1.574 . S
C1016 H1010 0.949 . S
C1016 C1020 1.368 . S
C1017 C998 1.429 . S
C1017 C1011 1.429 . S
C1017 C1018 1.523 . S
C1018 C999 1.368 . S
C1018 C1012 1.368 . S
C1018 C1017 1.523 . S
C1019 C1003 1.429 . S
C1019 C1015 1.429 . S
C1019 C1020 1.523 . S
C1020 C1004 1.368 . S
C1020 C1016 1.368 . S
C1020 C1019 1.523 . S
H1021 C996 0.950 . S
H1022 C998 0.950 . S
H1023 C999 0.949 . S
H1024 C1001 0.950 . S
H1025 C1003 0.950 . S
C1026 C1027 1.349 . S
C1026 C1028 1.327 . S
C1026 H1051 0.950 . S
C1027 C1026 1.349 . S
C1027 C1043 1.349 . S
C1028 C1026 1.327 . S
C1028 C1047 1.429 . S
C1028 H1052 0.950 . S
C1029 C1046 1.574 . S
C1029 C1048 1.368 1_655 S
C1029 H1053 0.949 . S
H1030 C1034 0.949 . S
C1031 C1032 1.349 . S
C1031 C1033 1.327 . S
C1031 H1054 0.950 . S
C1032 C1031 1.349 . S
C1032 C1044 1.349 . S
C1033 C1031 1.327 . S
C1033 C1049 1.429 . S
C1033 H1055 0.950 . S
C1034 H1030 0.949 . S
C1034 C1042 1.574 . S
C1034 C1050 1.368 1_455 S
H1035 C1043 0.950 . S
H1036 C1041 0.950 . S
H1037 C1042 0.949 . S
H1038 C1044 0.950 . S
H1039 C1045 0.950 . S
H1040 C1046 0.949 . S
C1041 H1036 0.950 . S
C1041 C1043 1.327 . S
C1041 C1047 1.429 . S
C1042 C1034 1.574 . S
C1042 H1037 0.949 . S
C1042 C1048 1.368 . S
C1043 C1027 1.349 . S
C1043 H1035 0.950 . S
C1043 C1041 1.327 . S
C1044 C1032 1.349 . S
C1044 H1038 0.950 . S
C1044 C1045 1.327 . S
C1045 H1039 0.950 . S
C1045 C1044 1.327 . S
C1045 C1049 1.429 . S
C1046 C1029 1.574 . S
C1046 H1040 0.949 . S
C1046 C1050 1.368 . S
C1047 C1028 1.429 . S
C1047 C1041 1.429 . S
C1047 C1048 1.523 . S
C1048 C1029 1.368 1_455 S
C1048 C1042 1.368 . S
C1048 C1047 1.523 . S
C1049 C1033 1.429 . S
C1049 C1045 1.429 . S
C1049 C1050 1.523 . S
C1050 C1034 1.368 1_655 S
C1050 C1046 1.368 . S
C1050 C1049 1.523 . S
H1051 C1026 0.950 . S
H1052 C1028 0.950 . S
H1053 C1029 0.949 . S
H1054 C1031 0.950 . S
H1055 C1033 0.950 . S
C1056 C1057 1.349 . S
C1056 C1058 1.327 . S
C1056 H1081 0.950 . S
C1057 C1056 1.349 . S
C1057 C1073 1.349 . S
C1058 C1056 1.327 . S
C1058 C1077 1.429 . S
C1058 H1082 0.950 . S
C1059 C1076 1.550 1_565 S
C1059 C1078 1.380 . S
C1059 H1083 0.961 . S
H1060 C1064 0.961 . S
C1061 C1062 1.349 . S
C1061 C1063 1.327 . S
C1061 H1084 0.950 . S
C1062 C1061 1.349 . S
C1062 C1074 1.349 . S
C1063 C1061 1.327 . S
C1063 C1079 1.429 . S
C1063 H1085 0.950 . S
C1064 H1060 0.961 . S
C1064 C1072 1.550 1_545 S
C1064 C1080 1.380 . S
H1065 C1073 0.950 . S
H1066 C1071 0.950 . S
H1067 C1072 0.949 . S
H1068 C1074 0.950 . S
H1069 C1075 0.950 . S
H1070 C1076 0.949 . S
C1071 H1066 0.950 . S
C1071 C1073 1.327 . S
C1071 C1077 1.429 . S
C1072 C1064 1.550 1_565 S
C1072 H1067 0.949 . S
C1072 C1078 1.368 . S
C1073 C1057 1.349 . S
C1073 H1065 0.950 . S
C1073 C1071 1.327 . S
C1074 C1062 1.349 . S
C1074 H1068 0.950 . S
C1074 C1075 1.327 . S
C1075 H1069 0.950 . S
C1075 C1074 1.327 . S
C1075 C1079 1.429 . S
C1076 C1059 1.550 1_545 S
C1076 H1070 0.949 . S
C1076 C1080 1.368 . S
C1077 C1058 1.429 . S
C1077 C1071 1.429 . S
C1077 C1078 1.523 . S
C1078 C1059 1.380 . S
C1078 C1072 1.368 . S
C1078 C1077 1.523 . S
C1079 C1063 1.429 . S
C1079 C1075 1.429 . S
C1079 C1080 1.523 . S
C1080 C1064 1.380 . S
C1080 C1076 1.368 . S
C1080 C1079 1.523 . S
H1081 C1056 0.950 . S
H1082 C1058 0.950 . S
H1083 C1059 0.961 . S
H1084 C1061 0.950 . S
H1085 C1063 0.950 . S
C1086 C1087 1.349 . S
C1086 C1088 1.327 . S
C1086 H1111 0.950 . S
C1087 C1086 1.349 . S
C1087 C1103 1.349 . S
C1088 C1086 1.327 . S
C1088 C1107 1.429 . S
C1088 H1112 0.950 . S
C1089 C1106 1.574 . S
C1089 C1108 1.368 . S
C1089 H1113 0.949 . S
H1090 C1094 0.949 . S
C1091 C1092 1.349 . S
C1091 C1093 1.327 . S
C1091 H1114 0.950 . S
C1092 C1091 1.349 . S
C1092 C1104 1.349 . S
C1093 C1091 1.327 . S
C1093 C1109 1.429 . S
C1093 H1115 0.950 . S
C1094 H1090 0.949 . S
C1094 C1102 1.574 . S
C1094 C1110 1.368 . S
H1095 C1103 0.950 . S
H1096 C1101 0.950 . S
H1097 C1102 0.949 . S
H1098 C1104 0.950 . S
H1099 C1105 0.950 . S
H1100 C1106 0.949 . S
C1101 H1096 0.950 . S
C1101 C1103 1.327 . S
C1101 C1107 1.429 . S
C1102 C1094 1.574 . S
C1102 H1097 0.949 . S
C1102 C1108 1.368 . S
C1103 C1087 1.349 . S
C1103 H1095 0.950 . S
C1103 C1101 1.327 . S
C1104 C1092 1.349 . S
C1104 H1098 0.950 . S
C1104 C1105 1.327 . S
C1105 H1099 0.950 . S
C1105 C1104 1.327 . S
C1105 C1109 1.429 . S
C1106 C1089 1.574 . S
C1106 H1100 0.949 . S
C1106 C1110 1.368 . S
C1107 C1088 1.429 . S
C1107 C1101 1.429 . S
C1107 C1108 1.523 . S
C1108 C1089 1.368 . S
C1108 C1102 1.368 . S
C1108 C1107 1.523 . S
C1109 C1093 1.429 . S
C1109 C1105 1.429 . S
C1109 C1110 1.523 . S
C1110 C1094 1.368 . S
C1110 C1106 1.368 . S
C1110 C1109 1.523 . S
H1111 C1086 0.950 . S
H1112 C1088 0.950 . S
H1113 C1089 0.949 . S
H1114 C1091 0.950 . S
H1115 C1093 0.950 . S
C1116 C1117 1.349 . S
C1116 C1118 1.327 . S
C1116 H1141 0.950 . S
C1117 C1116 1.349 . S
C1117 C1133 1.349 . S
C1118 C1116 1.327 . S
C1118 C1137 1.429 . S
C1118 H1142 0.950 . S
C1119 C1136 1.574 . S
C1119 C1138 1.368 . S
C1119 H1143 0.949 . S
H1120 C1124 0.949 . S
C1121 C1122 1.349 1_565 S
C1121 C1123 1.327 1_565 S
C1121 H1144 0.950 . S
C1122 C1121 1.349 1_545 S
C1122 C1134 1.349 . S
C1123 C1121 1.327 1_545 S
C1123 C1139 1.429 . S
C1123 H1145 0.950 . S
C1124 H1120 0.949 . S
C1124 C1132 1.574 . S
C1124 C1140 1.368 . S
H1125 C1133 0.950 . S
H1126 C1131 0.950 . S
H1127 C1132 0.949 . S
H1128 C1134 0.950 . S
H1129 C1135 0.950 . S
H1130 C1136 0.949 . S
C1131 H1126 0.950 . S
C1131 C1133 1.327 . S
C1131 C1137 1.429 . S
C1132 C1124 1.574 . S
C1132 H1127 0.949 . S
C1132 C1138 1.368 . S
C1133 C1117 1.349 . S
C1133 H1125 0.950 . S
C1133 C1131 1.327 . S
C1134 C1122 1.349 . S
C1134 H1128 0.950 . S
C1134 C1135 1.327 . S
C1135 H1129 0.950 . S
C1135 C1134 1.327 . S
C1135 C1139 1.429 . S
C1136 C1119 1.574 . S
C1136 H1130 0.949 . S
C1136 C1140 1.368 . S
C1137 C1118 1.429 . S
C1137 C1131 1.429 . S
C1137 C1138 1.523 . S
C1138 C1119 1.368 . S
C1138 C1132 1.368 . S
C1138 C1137 1.523 . S
C1139 C1123 1.429 . S
C1139 C1135 1.429 . S
C1139 C1140 1.523 . S
C1140 C1124 1.368 . S
C1140 C1136 1.368 . S
C1140 C1139 1.523 . S
H1141 C1116 0.950 . S
H1142 C1118 0.950 . S
H1143 C1119 0.949 . S
H1144 C1121 0.950 . S
H1145 C1123 0.950 . S
C1146 C1147 1.349 1_655 S
C1146 C1148 1.327 1_655 S
C1146 H1171 0.950 . S
C1147 C1146 1.349 1_455 S
C1147 C1163 1.349 . S
C1148 C1146 1.327 1_455 S
C1148 C1167 1.429 . S
C1148 H1172 0.950 . S
C1149 C1166 1.574 . S
C1149 C1168 1.368 . S
C1149 H1173 0.949 . S
H1150 C1154 0.949 . S
C1151 C1152 1.349 . S
C1151 C1153 1.327 . S
C1151 H1174 0.950 . S
C1152 C1151 1.349 . S
C1152 C1164 1.349 . S
C1153 C1151 1.327 . S
C1153 C1169 1.429 . S
C1153 H1175 0.950 . S
C1154 H1150 0.949 . S
C1154 C1162 1.574 . S
C1154 C1170 1.368 . S
H1155 C1163 0.950 . S
H1156 C1161 0.950 . S
H1157 C1162 0.949 . S
H1158 C1164 0.950 . S
H1159 C1165 0.950 . S
H1160 C1166 0.949 . S
C1161 H1156 0.950 . S
C1161 C1163 1.327 . S
C1161 C1167 1.429 . S
C1162 C1154 1.574 . S
C1162 H1157 0.949 . S
C1162 C1168 1.368 . S
C1163 C1147 1.349 . S
C1163 H1155 0.950 . S
C1163 C1161 1.327 . S
C1164 C1152 1.349 . S
C1164 H1158 0.950 . S
C1164 C1165 1.327 . S
C1165 H1159 0.950 . S
C1165 C1164 1.327 . S
C1165 C1169 1.429 . S
C1166 C1149 1.574 . S
C1166 H1160 0.949 . S
C1166 C1170 1.368 . S
C1167 C1148 1.429 . S
C1167 C1161 1.429 . S
C1167 C1168 1.523 . S
C1168 C1149 1.368 . S
C1168 C1162 1.368 . S
C1168 C1167 1.523 . S
C1169 C1153 1.429 . S
C1169 C1165 1.429 . S
C1169 C1170 1.523 . S
C1170 C1154 1.368 . S
C1170 C1166 1.368 . S
C1170 C1169 1.523 . S
H1171 C1146 0.950 . S
H1172 C1148 0.950 . S
H1173 C1149 0.949 . S
H1174 C1151 0.950 . S
H1175 C1153 0.950 . S
C1176 C1177 1.349 1_455 S
C1176 C1178 1.327 1_455 S
C1176 H1201 0.950 . S
C1177 C1176 1.349 1_655 S
C1177 C1193 1.349 . S
C1178 C1176 1.327 1_655 S
C1178 C1197 1.429 . S
C1178 H1202 0.950 . S
C1179 C1196 1.574 . S
C1179 C1198 1.368 . S
C1179 H1203 0.949 . S
H1180 C1184 0.949 . S
C1181 C1182 1.349 . S
C1181 C1183 1.327 . S
C1181 H1204 0.950 . S
C1182 C1181 1.349 . S
C1182 C1194 1.349 . S
C1183 C1181 1.327 . S
C1183 C1199 1.429 . S
C1183 H1205 0.950 . S
C1184 H1180 0.949 . S
C1184 C1192 1.574 . S
C1184 C1200 1.368 . S
H1185 C1193 0.950 . S
H1186 C1191 0.950 . S
H1187 C1192 0.949 . S
H1188 C1194 0.950 . S
H1189 C1195 0.950 . S
H1190 C1196 0.949 . S
C1191 H1186 0.950 . S
C1191 C1193 1.327 . S
C1191 C1197 1.429 . S
C1192 C1184 1.574 . S
C1192 H1187 0.949 . S
C1192 C1198 1.368 . S
C1193 C1177 1.349 . S
C1193 H1185 0.950 . S
C1193 C1191 1.327 . S
C1194 C1182 1.349 . S
C1194 H1188 0.950 . S
C1194 C1195 1.327 . S
C1195 H1189 0.950 . S
C1195 C1194 1.327 . S
C1195 C1199 1.429 . S
C1196 C1179 1.574 . S
C1196 H1190 0.949 . S
C1196 C1200 1.368 . S
C1197 C1178 1.429 . S
C1197 C1191 1.429 . S
C1197 C1198 1.523 . S
C1198 C1179 1.368 . S
C1198 C1192 1.368 . S
C1198 C1197 1.523 . S
C1199 C1183 1.429 . S
C1199 C1195 1.429 . S
C1199 C1200 1.523 . S
C1200 C1184 1.368 . S
C1200 C1196 1.368 . S
C1200 C1199 1.523 . S
H1201 C1176 0.950 . S
H1202 C1178 0.950 . S
H1203 C1179 0.949 . S
H1204 C1181 0.950 . S
H1205 C1183 0.950 . S
C1206 C1207 1.349 . S
C1206 C1208 1.327 . S
C1206 H1231 0.950 . S
C1207 C1206 1.349 . S
C1207 C1223 1.349 . S
C1208 C1206 1.327 . S
C1208 C1227 1.429 . S
C1208 H1232 0.950 . S
C1209 C1226 1.574 . S
C1209 C1228 1.368 . S
C1209 H1233 0.949 . S
H1210 C1214 0.949 . S
C1211 C1212 1.349 . S
C1211 C1213 1.327 . S
C1211 H1234 0.950 . S
C1212 C1211 1.349 . S
C1212 C1224 1.349 . S
C1213 C1211 1.327 . S
C1213 C1229 1.429 . S
C1213 H1235 0.950 . S
C1214 H1210 0.949 . S
C1214 C1222 1.574 . S
C1214 C1230 1.368 . S
H1215 C1223 0.950 . S
H1216 C1221 0.950 . S
H1217 C1222 0.949 . S
H1218 C1224 0.950 1_545 S
H1219 C1225 0.950 . S
H1220 C1226 0.949 . S
C1221 H1216 0.950 . S
C1221 C1223 1.327 . S
C1221 C1227 1.429 . S
C1222 C1214 1.574 . S
C1222 H1217 0.949 . S
C1222 C1228 1.368 . S
C1223 C1207 1.349 . S
C1223 H1215 0.950 . S
C1223 C1221 1.327 . S
C1224 C1212 1.349 . S
C1224 H1218 0.950 1_565 S
C1224 C1225 1.327 . S
C1225 H1219 0.950 . S
C1225 C1224 1.327 . S
C1225 C1229 1.429 . S
C1226 C1209 1.574 . S
C1226 H1220 0.949 . S
C1226 C1230 1.368 . S
C1227 C1208 1.429 . S
C1227 C1221 1.429 . S
C1227 C1228 1.523 . S
C1228 C1209 1.368 . S
C1228 C1222 1.368 . S
C1228 C1227 1.523 . S
C1229 C1213 1.429 . S
C1229 C1225 1.429 . S
C1229 C1230 1.523 . S
C1230 C1214 1.368 . S
C1230 C1226 1.368 . S
C1230 C1229 1.523 . S
H1231 C1206 0.950 . S
H1232 C1208 0.950 . S
H1233 C1209 0.949 . S
H1234 C1211 0.950 . S
H1235 C1213 0.950 . S
C1236 C1237 1.349 . S
C1236 C1238 1.327 . S
C1236 H1261 0.950 . S
C1237 C1236 1.349 . S
C1237 C1253 1.349 . S
C1238 C1236 1.327 . S
C1238 C1257 1.429 . S
C1238 H1262 0.950 . S
C1239 C1256 1.574 . S
C1239 C1258 1.368 . S
C1239 H1263 0.949 . S
H1240 C1244 0.949 . S
C1241 C1242 1.349 . S
C1241 C1243 1.327 . S
C1241 H1264 0.950 . S
C1242 C1241 1.349 . S
C1242 C1254 1.349 . S
C1243 C1241 1.327 . S
C1243 C1259 1.429 . S
C1243 H1265 0.950 . S
C1244 H1240 0.949 . S
C1244 C1252 1.574 . S
C1244 C1260 1.368 . S
H1245 C1253 0.950 . S
H1246 C1251 0.950 . S
H1247 C1252 0.949 . S
H1248 C1254 0.950 . S
H1249 C1255 0.950 . S
H1250 C1256 0.949 . S
C1251 H1246 0.950 . S
C1251 C1253 1.327 . S
C1251 C1257 1.429 . S
C1252 C1244 1.574 . S
C1252 H1247 0.949 . S
C1252 C1258 1.368 . S
C1253 C1237 1.349 . S
C1253 H1245 0.950 . S
C1253 C1251 1.327 . S
C1254 C1242 1.349 . S
C1254 H1248 0.950 . S
C1254 C1255 1.327 . S
C1255 H1249 0.950 . S
C1255 C1254 1.327 . S
C1255 C1259 1.429 . S
C1256 C1239 1.574 . S
C1256 H1250 0.949 . S
C1256 C1260 1.368 . S
C1257 C1238 1.429 . S
C1257 C1251 1.429 . S
C1257 C1258 1.523 . S
C1258 C1239 1.368 . S
C1258 C1252 1.368 . S
C1258 C1257 1.523 . S
C1259 C1243 1.429 . S
C1259 C1255 1.429 . S
C1259 C1260 1.523 . S
C1260 C1244 1.368 . S
C1260 C1256 1.368 . S
C1260 C1259 1.523 . S
H1261 C1236 0.950 . S
H1262 C1238 0.950 . S
H1263 C1239 0.949 . S
H1264 C1241 0.950 . S
H1265 C1243 0.950 . S
C1266 C1267 1.349 . S
C1266 C1268 1.327 . S
C1266 H1291 0.950 . S
C1267 C1266 1.349 . S
C1267 C1283 1.349 . S
C1268 C1266 1.327 . S
C1268 C1287 1.429 . S
C1268 H1292 0.950 . S
C1269 C1286 1.574 . S
C1269 C1288 1.368 . S
C1269 H1293 0.949 . S
H1270 C1274 0.949 . S
C1271 C1272 1.349 . S
C1271 C1273 1.327 . S
C1271 H1294 0.950 . S
C1272 C1271 1.349 . S
C1272 C1284 1.349 . S
C1273 C1271 1.327 . S
C1273 C1289 1.429 . S
C1273 H1295 0.950 . S
C1274 H1270 0.949 . S
C1274 C1282 1.574 . S
C1274 C1290 1.368 . S
H1275 C1283 0.950 1_545 S
H1276 C1281 0.950 . S
H1277 C1282 0.949 . S
H1278 C1284 0.950 1_655 S
H1279 C1285 0.950 . S
H1280 C1286 0.949 . S
C1281 H1276 0.950 . S
C1281 C1283 1.327 . S
C1281 C1287 1.429 . S
C1282 C1274 1.574 . S
C1282 H1277 0.949 . S
C1282 C1288 1.368 . S
C1283 C1267 1.349 . S
C1283 H1275 0.950 1_565 S
C1283 C1281 1.327 . S
C1284 C1272 1.349 . S
C1284 H1278 0.950 1_455 S
C1284 C1285 1.327 . S
C1285 H1279 0.950 . S
C1285 C1284 1.327 . S
C1285 C1289 1.429 . S
C1286 C1269 1.574 . S
C1286 H1280 0.949 . S
C1286 C1290 1.368 . S
C1287 C1268 1.429 . S
C1287 C1281 1.429 . S
C1287 C1288 1.523 . S
C1288 C1269 1.368 . S
C1288 C1282 1.368 . S
C1288 C1287 1.523 . S
C1289 C1273 1.429 . S
C1289 C1285 1.429 . S
C1289 C1290 1.523 . S
C1290 C1274 1.368 . S
C1290 C1286 1.368 . S
C1290 C1289 1.523 . S
H1291 C1266 0.950 . S
H1292 C1268 0.950 . S
H1293 C1269 0.949 . S
H1294 C1271 0.950 . S
H1295 C1273 0.950 . S
C397 N112 1.398 . S
C402 N13 1.398 . S
C427 N145 1.399 . S
C432 N46 1.399 . S
C457 N178 1.398 . S
C462 N79 1.398 . S
C487 N211 1.398 . S
C492 N310 1.398 . S
C517 N244 1.398 . S
C522 N343 1.398 . S
C547 N277 1.399 . S
C552 N376 1.399 . S
C577 C315 1.867 . S
C582 C18 1.867 . S
C607 C51 1.867 . S
C612 C348 1.867 . S
C637 C381 1.867 . S
C642 C84 1.867 . S
C667 C216 1.867 . S
C672 C117 1.867 . S
C697 C150 1.867 . S
C702 C249 1.867 . S
C727 C183 1.867 . S
C732 C282 1.867 . S
C757 N2 0.362 . S
C762 N101 0.362 . S
C787 N35 0.362 . S
C792 N134 0.362 . S
C817 N167 0.362 . S
C822 N68 0.362 . S
C847 N200 0.362 . S
C852 N299 0.362 . S
C877 N233 0.362 . S
C882 N332 0.362 . S
C907 N365 0.362 . S
C912 N266 0.362 . S
C937 C384 0.604 . S
C942 C21 0.604 . S
C967 C54 0.604 . S
C972 C219 0.604 . S
C997 C252 0.604 . S
C1002 C87 0.604 . S
C1027 C285 0.604 . S
C1032 C120 0.604 . S
C1057 C153 0.604 . S
C1062 C318 0.604 . S
C1087 C186 0.604 . S
C1092 C351 0.604 . S
C1117 C7 0.667 . S
C1122 C271 0.667 1_545 S
C1147 C40 0.667 1_455 S
C1152 C304 0.667 . S
C1177 C337 0.667 1_655 S
C1182 C73 0.667 1_545 S
C1207 C106 0.667 . S
C1212 C370 0.667 1_565 S
C1237 C205 0.667 . S
C1242 C139 0.667 1_655 S
C1267 C172 0.667 1_565 S
C1272 C238 0.667 1_455 S
