# Generated by pormake.
# Topology ske, (6)-cn, num edge types: 1
# Building blocks:
#     Node 0, Type 0, BuildingBlock: KUMBOL_clean_sbu_1, # of connection points: 6
#     Node 1, Type 0, BuildingBlock: KUMBOL_clean_sbu_1, # of connection points: 6
#     Node 2, Type 0, BuildingBlock: KUMBOL_clean_sbu_1, # of connection points: 6
#     Node 3, Type 0, BuildingBlock: KUMBOL_clean_sbu_1, # of connection points: 6
#     Node 4, Type 0, BuildingBlock: KUMBOL_clean_sbu_1, # of connection points: 6
#     Node 5, Type 0, BuildingBlock: KUMBOL_clean_sbu_1, # of connection points: 6
#     Node 6, Type 0, BuildingBlock: KUMBOL_clean_sbu_1, # of connection points: 6
#     Node 7, Type 0, BuildingBlock: KUMBOL_clean_sbu_1, # of connection points: 6
#     Edge 8, Type (0, 0), BuildingBlock: ZUJKAS_clean_linker_0, # of connection points: 2
#     Edge 9, Type (0, 0), BuildingBlock: ZUJKAS_clean_linker_0, # of connection points: 2
#     Edge 10, Type (0, 0), BuildingBlock: ZUJKAS_clean_linker_0, # of connection points: 2
#     Edge 11, Type (0, 0), BuildingBlock: ZUJKAS_clean_linker_0, # of connection points: 2
#     Edge 12, Type (0, 0), BuildingBlock: ZUJKAS_clean_linker_0, # of connection points: 2
#     Edge 13, Type (0, 0), BuildingBlock: ZUJKAS_clean_linker_0, # of connection points: 2
#     Edge 14, Type (0, 0), BuildingBlock: ZUJKAS_clean_linker_0, # of connection points: 2
#     Edge 15, Type (0, 0), BuildingBlock: ZUJKAS_clean_linker_0, # of connection points: 2
#     Edge 16, Type (0, 0), BuildingBlock: ZUJKAS_clean_linker_0, # of connection points: 2
#     Edge 17, Type (0, 0), BuildingBlock: ZUJKAS_clean_linker_0, # of connection points: 2
#     Edge 18, Type (0, 0), BuildingBlock: ZUJKAS_clean_linker_0, # of connection points: 2
#     Edge 19, Type (0, 0), BuildingBlock: ZUJKAS_clean_linker_0, # of connection points: 2
#     Edge 20, Type (0, 0), BuildingBlock: ZUJKAS_clean_linker_0, # of connection points: 2
#     Edge 21, Type (0, 0), BuildingBlock: ZUJKAS_clean_linker_0, # of connection points: 2
#     Edge 22, Type (0, 0), BuildingBlock: ZUJKAS_clean_linker_0, # of connection points: 2
#     Edge 23, Type (0, 0), BuildingBlock: ZUJKAS_clean_linker_0, # of connection points: 2
#     Edge 24, Type (0, 0), BuildingBlock: ZUJKAS_clean_linker_0, # of connection points: 2
#     Edge 25, Type (0, 0), BuildingBlock: ZUJKAS_clean_linker_0, # of connection points: 2
#     Edge 26, Type (0, 0), BuildingBlock: ZUJKAS_clean_linker_0, # of connection points: 2
#     Edge 27, Type (0, 0), BuildingBlock: ZUJKAS_clean_linker_0, # of connection points: 2
#     Edge 28, Type (0, 0), BuildingBlock: ZUJKAS_clean_linker_0, # of connection points: 2
#     Edge 29, Type (0, 0), BuildingBlock: ZUJKAS_clean_linker_0, # of connection points: 2
#     Edge 30, Type (0, 0), BuildingBlock: ZUJKAS_clean_linker_0, # of connection points: 2
#     Edge 31, Type (0, 0), BuildingBlock: ZUJKAS_clean_linker_0, # of connection points: 2
# Relax obj value: 0.217
# Max RMSD: 0.228
# Mean RMSD: 0.227
data_MOF--net-ske--node1-KUMBOL_clean_sbu_1--edge1-ZUJKAS_clean_linker_0
_symmetry_space_group_name_H-M    P1
_symmetry_Int_Tables_number       1
_symmetry_cell_setting            triclinic
loop_
_symmetry_equiv_pos_as_xyz
'x, y, z'
_cell_length_a     116.26235
_cell_length_b     38.801789
_cell_length_c     19.57805
_cell_angle_alpha  97.671975
_cell_angle_beta   89.962154
_cell_angle_gamma 90.033877
loop_
_atom_site_label
_atom_site_type_symbol
_atom_site_fract_x
_atom_site_fract_y
_atom_site_fract_z
_atom_type_partial_charge
C0 C 0.1066 0.24581 0.71995 0.0
C1 C 0.10195 0.30241 0.7836 0.0
C2 C 0.10599 0.28198 0.72341 0.0
C3 C 0.09842 0.2862 0.84002 0.0
C4 C 0.10309 0.22963 0.77693 0.0
C5 C 0.09897 0.24997 0.83665 0.0
N6 N 0.11067 0.22658 0.66141 0.0
C7 C 0.11062 0.19112 0.65513 0.0
C8 C 0.10373 0.19338 0.77209 0.0
C9 C 0.10742 0.17406 0.71074 0.0
Gd10 Gd 0.15004 0.25572 0.56125 0.0
Gd11 Gd 0.11501 0.25919 0.57182 0.0
N12 N 0.10981 0.29728 0.669 0.0
C13 C 0.10173 0.33864 0.78562 0.0
C14 C 0.1094 0.33245 0.66988 0.0
C15 C 0.10545 0.3537 0.72849 0.0
H16 H 0.11206 0.34405 0.62523 0.0
H17 H 0.10521 0.38164 0.72943 0.0
H18 H 0.15814 0.17485 0.58223 0.0
H19 H 0.1126 0.17566 0.60686 0.0
H20 H 0.1681 0.12509 0.5155 0.0
H21 H 0.0987 0.3552 0.83101 0.0
H22 H 0.09529 0.30148 0.8867 0.0
H23 H 0.1539 0.32382 0.47519 0.0
H24 H 0.10116 0.18002 0.81484 0.0
H25 H 0.10755 0.14595 0.70571 0.0
H26 H 0.1811 0.16997 0.31184 0.0
H27 H 0.09614 0.23792 0.88058 0.0
H28 H 0.17333 0.2897 0.2928 0.0
H29 H 0.16316 0.33648 0.36757 0.0
N30 N 0.15843 0.27033 0.45992 0.0
C31 C 0.16445 0.2447 0.42144 0.0
C32 C 0.15823 0.30327 0.44255 0.0
C33 C 0.16927 0.28404 0.33991 0.0
C34 C 0.16351 0.3105 0.38186 0.0
C35 C 0.1699 0.25074 0.35979 0.0
H36 H 0.17996 0.22749 0.27237 0.0
N37 N 0.16 0.20769 0.50441 0.0
C38 C 0.16506 0.21226 0.4437 0.0
C39 C 0.17203 0.15308 0.43039 0.0
C40 C 0.17118 0.18501 0.40484 0.0
C41 C 0.16137 0.17731 0.53144 0.0
C42 C 0.1672 0.14934 0.49435 0.0
O43 O 0.12715 0.27922 0.66058 0.0
O44 O 0.14123 0.23858 0.65329 0.0
O45 O 0.16736 0.24827 0.59915 0.0
O46 O 0.15843 0.29662 0.63012 0.0
O47 O 0.12297 0.30431 0.52801 0.0
O48 O 0.14105 0.3083 0.57881 0.0
O49 O 0.14135 0.25508 0.4573 0.0
O50 O 0.1213 0.2499 0.46134 0.0
O51 O 0.10037 0.28743 0.53791 0.0
O52 O 0.09839 0.23393 0.55437 0.0
O53 O 0.14002 0.20866 0.58479 0.0
O54 O 0.12282 0.20764 0.52646 0.0
C55 C 0.13403 0.25902 0.69075 0.0
C56 C 0.13262 0.32113 0.54473 0.0
C57 C 0.17867 0.29924 0.61335 0.0
C58 C 0.19967 0.30514 0.61382 0.0
C59 C 0.18773 0.3451 0.55913 0.0
C60 C 0.17784 0.32811 0.57724 0.0
C61 C 0.19856 0.33369 0.57695 0.0
C62 C 0.18963 0.28806 0.63218 0.0
C63 C 0.16821 0.28007 0.62949 0.0
C64 C 0.17641 0.19066 0.34257 0.0
C65 C 0.17579 0.22344 0.32015 0.0
H66 H 0.17664 0.13146 0.40201 0.0
C67 C 0.13114 0.2511 0.42786 0.0
C68 C 0.13209 0.19192 0.54541 0.0
C69 C 0.08624 0.25409 0.47212 0.0
C70 C 0.06715 0.25051 0.41879 0.0
C71 C 0.08435 0.23744 0.34885 0.0
C72 C 0.09124 0.24391 0.40746 0.0
C73 C 0.0724 0.24071 0.35429 0.0
C74 C 0.0742 0.25721 0.47772 0.0
C75 C 0.09345 0.26088 0.53424 0.0
H76 H 0.187 0.36725 0.53115 0.0
H77 H 0.16956 0.33758 0.56279 0.0
H78 H 0.2061 0.34757 0.56275 0.0
H79 H 0.19034 0.26576 0.65988 0.0
H80 H 0.08827 0.22957 0.29905 0.0
H81 H 0.10046 0.24076 0.40246 0.0
H82 H 0.06726 0.23489 0.30807 0.0
H83 H 0.07036 0.26508 0.52783 0.0
C84 C 0.84833 0.25121 0.44177 0.0
C85 C 0.84355 0.19088 0.40417 0.0
C86 C 0.84874 0.21659 0.4521 0.0
C87 C 0.83842 0.20038 0.34445 0.0
C88 C 0.84264 0.26113 0.38387 0.0
C89 C 0.83792 0.23545 0.33447 0.0
N90 N 0.85312 0.2754 0.48984 0.0
C91 C 0.85188 0.31006 0.48596 0.0
C92 C 0.84165 0.29663 0.37823 0.0
C93 C 0.84617 0.32122 0.42999 0.0
Gd94 Gd 0.89678 0.25438 0.58369 0.0
Gd95 Gd 0.86192 0.25489 0.58397 0.0
N96 N 0.85347 0.20842 0.51135 0.0
C97 C 0.84325 0.15661 0.41909 0.0
C98 C 0.85222 0.17571 0.52887 0.0
C99 C 0.84741 0.14912 0.48232 0.0
H100 H 0.85472 0.17004 0.57922 0.0
H101 H 0.84672 0.12305 0.49584 0.0
H102 H 0.90281 0.3339 0.65895 0.0
H103 H 0.85545 0.32902 0.52567 0.0
H104 H 0.91146 0.36216 0.76805 0.0
H105 H 0.83936 0.13608 0.38357 0.0
H106 H 0.83448 0.18093 0.30678 0.0
H107 H 0.90195 0.16767 0.58092 0.0
H108 H 0.83729 0.30531 0.33471 0.0
H109 H 0.84533 0.34871 0.42657 0.0
H110 H 0.91984 0.26702 0.89393 0.0
H111 H 0.83365 0.2425 0.28917 0.0
H112 H 0.91337 0.15143 0.78111 0.0
H113 H 0.90747 0.12793 0.66272 0.0
N114 N 0.90274 0.21322 0.65491 0.0
C115 C 0.90684 0.22681 0.71795 0.0
C116 C 0.9036 0.1783 0.63368 0.0
C117 C 0.91048 0.16902 0.74611 0.0
C118 C 0.9071 0.15564 0.67946 0.0
C119 C 0.91074 0.20505 0.76541 0.0
H120 H 0.91809 0.2035 0.8667 0.0
N121 N 0.90392 0.28309 0.68737 0.0
C122 C 0.90779 0.26269 0.73376 0.0
C123 C 0.91394 0.31384 0.80914 0.0
C124 C 0.9127 0.27761 0.79666 0.0
C125 C 0.90547 0.31826 0.6979 0.0
C126 C 0.9104 0.33421 0.75926 0.0
O127 O 0.87127 0.26758 0.48777 0.0
O128 O 0.88809 0.23575 0.48155 0.0
O129 O 0.90863 0.28627 0.53333 0.0
O130 O 0.91428 0.23684 0.55978 0.0
O131 O 0.87147 0.20623 0.60401 0.0
O132 O 0.88794 0.20424 0.53824 0.0
O133 O 0.88625 0.27431 0.67978 0.0
O134 O 0.8714 0.23603 0.67201 0.0
O135 O 0.84444 0.2442 0.61569 0.0
O136 O 0.85324 0.29029 0.6627 0.0
O137 O 0.88863 0.30389 0.55799 0.0
O138 O 0.8707 0.30732 0.61148 0.0
C139 C 0.87966 0.25094 0.45183 0.0
C140 C 0.87919 0.18872 0.56432 0.0
C141 C 0.92391 0.2581 0.4678 0.0
C142 C 0.94282 0.25284 0.41206 0.0
C143 C 0.92527 0.24742 0.34328 0.0
C144 C 0.9186 0.2529 0.40307 0.0
C145 C 0.93728 0.24736 0.34756 0.0
C146 C 0.93599 0.25804 0.47214 0.0
C147 C 0.91706 0.2641 0.5315 0.0
C148 C 0.9162 0.25602 0.84489 0.0
C149 C 0.91516 0.21985 0.82947 0.0
H150 H 0.91769 0.32628 0.85681 0.0
C151 C 0.8788 0.25563 0.70966 0.0
C152 C 0.87955 0.32159 0.58329 0.0
C153 C 0.83294 0.29375 0.65018 0.0
C154 C 0.81197 0.29929 0.66047 0.0
C155 C 0.82337 0.34555 0.62139 0.0
C156 C 0.83342 0.32671 0.62811 0.0
C157 C 0.81273 0.33202 0.6373 0.0
C158 C 0.82217 0.28025 0.66672 0.0
C159 C 0.84354 0.27332 0.65661 0.0
H160 H 0.92112 0.24324 0.29338 0.0
H161 H 0.90933 0.25328 0.39894 0.0
H162 H 0.94221 0.2427 0.3003 0.0
H163 H 0.94005 0.26272 0.52237 0.0
H164 H 0.82384 0.37092 0.6043 0.0
H165 H 0.84156 0.3381 0.61644 0.0
H166 H 0.8051 0.34755 0.63281 0.0
H167 H 0.82175 0.25485 0.68392 0.0
C168 C 0.10488 0.77816 0.31438 0.0
C169 C 0.09932 0.72714 0.23538 0.0
C170 C 0.10398 0.74226 0.29886 0.0
C171 C 0.09604 0.74855 0.18637 0.0
C172 C 0.1012 0.79976 0.26607 0.0
C173 C 0.09704 0.78475 0.2015 0.0
N174 N 0.10878 0.79195 0.37778 0.0
C175 C 0.10786 0.82689 0.39851 0.0
C176 C 0.10142 0.83581 0.28496 0.0
C177 C 0.10455 0.84939 0.35197 0.0
Gd178 Gd 0.14941 0.75073 0.45082 0.0
Gd179 Gd 0.11455 0.7511 0.45014 0.0
N180 N 0.10772 0.72204 0.34589 0.0
C181 C 0.09818 0.69088 0.22301 0.0
C182 C 0.10628 0.68683 0.33539 0.0
C183 C 0.10158 0.67068 0.27351 0.0
H184 H 0.10885 0.67133 0.37474 0.0
H185 H 0.10059 0.6427 0.26475 0.0
H186 H 0.15688 0.83536 0.45682 0.0
H187 H 0.10931 0.83762 0.45141 0.0
H188 H 0.16544 0.88152 0.53973 0.0
H189 H 0.09463 0.67828 0.1749 0.0
H190 H 0.09261 0.73739 0.13686 0.0
H191 H 0.1553 0.67589 0.50836 0.0
H192 H 0.0987 0.85328 0.2493 0.0
H193 H 0.10415 0.87713 0.36836 0.0
H194 H 0.17821 0.82184 0.72509 0.0
H195 H 0.0943 0.80096 0.16356 0.0
H196 H 0.17431 0.69773 0.69659 0.0
H197 H 0.16551 0.65521 0.60604 0.0
N198 N 0.15822 0.72928 0.54396 0.0
C199 C 0.16339 0.75298 0.59142 0.0
C200 C 0.15913 0.69451 0.54769 0.0
C201 C 0.16988 0.70687 0.65377 0.0
C202 C 0.16491 0.68278 0.6028 0.0
C203 C 0.16921 0.74246 0.64835 0.0
H204 H 0.17869 0.76011 0.74174 0.0
N205 N 0.15824 0.79647 0.52342 0.0
C206 C 0.16317 0.7877 0.58165 0.0
C207 C 0.1691 0.84728 0.61495 0.0
C208 C 0.16869 0.8129 0.62916 0.0
C209 C 0.15954 0.82929 0.50657 0.0
C210 C 0.16468 0.85537 0.55277 0.0
O211 O 0.12532 0.7313 0.35513 0.0
O212 O 0.14005 0.76994 0.36264 0.0
O213 O 0.16687 0.76124 0.41835 0.0
O214 O 0.158 0.71512 0.37207 0.0
O215 O 0.12273 0.70218 0.47854 0.0
O216 O 0.14048 0.69853 0.42321 0.0
O217 O 0.14015 0.73916 0.54827 0.0
O218 O 0.12302 0.76965 0.55303 0.0
O219 O 0.10242 0.71888 0.49755 0.0
O220 O 0.09709 0.7692 0.47407 0.0
O221 O 0.14 0.79986 0.43203 0.0
O222 O 0.1233 0.8013 0.49589 0.0
C223 C 0.13259 0.75048 0.32517 0.0
C224 C 0.1318 0.68447 0.45323 0.0
C225 C 0.17832 0.71153 0.38421 0.0
C226 C 0.19928 0.70568 0.3736 0.0
C227 C 0.18783 0.65983 0.41391 0.0
C228 C 0.1778 0.67873 0.40699 0.0
C229 C 0.19849 0.67313 0.39749 0.0
C230 C 0.18909 0.7248 0.36713 0.0
C231 C 0.16773 0.73201 0.37772 0.0
C232 C 0.17401 0.80279 0.68779 0.0
C233 C 0.17431 0.76763 0.69721 0.0
H234 H 0.17325 0.86741 0.65017 0.0
C235 C 0.13153 0.75507 0.58338 0.0
C236 C 0.13209 0.81708 0.47085 0.0
C237 C 0.0871 0.74657 0.56346 0.0
C238 C 0.06806 0.75166 0.61747 0.0
C239 C 0.08538 0.75283 0.68788 0.0
C240 C 0.09221 0.74884 0.62868 0.0
C241 C 0.0734 0.75416 0.68248 0.0
C242 C 0.07505 0.74813 0.55805 0.0
C243 C 0.09411 0.74148 0.50027 0.0
H244 H 0.18734 0.63459 0.43154 0.0
H245 H 0.16966 0.66751 0.41906 0.0
H246 H 0.2061 0.65754 0.40216 0.0
H247 H 0.18953 0.75006 0.34939 0.0
H248 H 0.08938 0.75467 0.73816 0.0
H249 H 0.10145 0.74716 0.63363 0.0
H250 H 0.06831 0.75737 0.72927 0.0
H251 H 0.07112 0.74571 0.50743 0.0
C252 C 0.84703 0.69858 0.58106 0.0
C253 C 0.84131 0.73836 0.68176 0.0
C254 C 0.84679 0.73192 0.61708 0.0
C255 C 0.83646 0.71052 0.71087 0.0
C256 C 0.84176 0.67082 0.60885 0.0
C257 C 0.8367 0.67683 0.67456 0.0
N258 N 0.85185 0.69369 0.51727 0.0
C259 C 0.85082 0.66257 0.47618 0.0
C260 C 0.84144 0.63809 0.56885 0.0
C261 C 0.84582 0.63411 0.50178 0.0
Gd262 Gd 0.89564 0.74967 0.47215 0.0
Gd263 Gd 0.86061 0.74252 0.48108 0.0
N264 N 0.85177 0.75821 0.58826 0.0
C265 C 0.84076 0.77266 0.71474 0.0
C266 C 0.85063 0.79197 0.6179 0.0
C267 C 0.8453 0.79962 0.68221 0.0
H268 H 0.85412 0.81277 0.59259 0.0
H269 H 0.84468 0.82628 0.7066 0.0
H270 H 0.89907 0.66165 0.42955 0.0
H271 H 0.85391 0.65972 0.42363 0.0
H272 H 0.90228 0.62055 0.3251 0.0
H273 H 0.83665 0.77867 0.76457 0.0
H274 H 0.83232 0.71487 0.76088 0.0
H275 H 0.89976 0.82832 0.4273 0.0
H276 H 0.83749 0.61605 0.58837 0.0
H277 H 0.84527 0.60922 0.46959 0.0
H278 H 0.90933 0.69282 0.14936 0.0
H279 H 0.8327 0.65576 0.69704 0.0
H280 H 0.90944 0.81634 0.21405 0.0
H281 H 0.9054 0.85439 0.32327 0.0
N282 N 0.90052 0.77651 0.37642 0.0
C283 C 0.90317 0.75497 0.31796 0.0
C284 C 0.90155 0.81171 0.37963 0.0
C285 C 0.90707 0.80484 0.25954 0.0
C286 C 0.90475 0.82643 0.32105 0.0
C287 C 0.90632 0.76867 0.25742 0.0
H288 H 0.9107 0.75603 0.14939 0.0
N289 N 0.89931 0.70662 0.37758 0.0
C290 C 0.90232 0.71915 0.31814 0.0
C291 C 0.90429 0.66052 0.25966 0.0
C292 C 0.90471 0.69637 0.25738 0.0
C293 C 0.89989 0.67173 0.38117 0.0
C294 C 0.90208 0.64819 0.3221 0.0
O295 O 0.86943 0.75218 0.58576 0.0
O296 O 0.88941 0.74433 0.5802 0.0
O297 O 0.91307 0.73007 0.47918 0.0
O298 O 0.90934 0.78351 0.51746 0.0
O299 O 0.86812 0.79693 0.48583 0.0
O300 O 0.8873 0.79895 0.52283 0.0
O301 O 0.88301 0.76631 0.3932 0.0
O302 O 0.86973 0.72326 0.38173 0.0
O303 O 0.85184 0.77768 0.42055 0.0
O304 O 0.84279 0.73339 0.45038 0.0
O305 O 0.88836 0.70144 0.50924 0.0
O306 O 0.87184 0.69607 0.44543 0.0
C307 C 0.87959 0.7489 0.6144 0.0
C308 C 0.87744 0.81384 0.51047 0.0
C309 C 0.92454 0.75651 0.57051 0.0
C310 C 0.94385 0.75324 0.61937 0.0
C311 C 0.92684 0.75093 0.69156 0.0
C312 C 0.91973 0.75357 0.6351 0.0
C313 C 0.93879 0.75083 0.68397 0.0
C314 C 0.93658 0.75628 0.56273 0.0
C315 C 0.91711 0.75917 0.51057 0.0
C316 C 0.90759 0.70997 0.19659 0.0
C317 C 0.90842 0.74599 0.19665 0.0
H318 H 0.90606 0.64219 0.21409 0.0
C319 C 0.87644 0.74449 0.35356 0.0
C320 C 0.87916 0.68369 0.48699 0.0
C321 C 0.83649 0.75372 0.34878 0.0
C322 C 0.81855 0.74938 0.28244 0.0
C323 C 0.83705 0.73942 0.22445 0.0
C324 C 0.84275 0.74553 0.28762 0.0
C325 C 0.82505 0.74133 0.22169 0.0
C326 C 0.82441 0.75555 0.34599 0.0
C327 C 0.84229 0.75981 0.41622 0.0
H328 H 0.92307 0.74892 0.74144 0.0
H329 H 0.9105 0.75324 0.64172 0.0
H330 H 0.94406 0.74916 0.72897 0.0
H331 H 0.94025 0.75783 0.51232 0.0
H332 H 0.84193 0.73293 0.17744 0.0
H333 H 0.85202 0.74373 0.28876 0.0
H334 H 0.82086 0.7359 0.17203 0.0
H335 H 0.8196 0.7621 0.3934 0.0
C336 C 0.60688 0.75447 0.2193 0.0
C337 C 0.60399 0.81392 0.27248 0.0
C338 C 0.60733 0.78995 0.21529 0.0
C339 C 0.60058 0.80179 0.33387 0.0
C340 C 0.60314 0.74215 0.28011 0.0
C341 C 0.60012 0.76601 0.33759 0.0
N342 N 0.61007 0.73193 0.1634 0.0
C343 C 0.60893 0.69687 0.16273 0.0
C344 C 0.60246 0.70616 0.28108 0.0
C345 C 0.60526 0.68344 0.22188 0.0
Gd346 Gd 0.65039 0.75932 0.05375 0.0
Gd347 Gd 0.61572 0.75636 0.06584 0.0
N348 N 0.61048 0.8009 0.15465 0.0
C349 C 0.60379 0.84932 0.26558 0.0
C350 C 0.60926 0.8351 0.14613 0.0
C351 C 0.60623 0.85987 0.20176 0.0
H352 H 0.61027 0.84356 0.09623 0.0
H353 H 0.60554 0.88702 0.19495 0.0
H354 H 0.65669 0.68447 0.95617 0.0
H355 H 0.61099 0.67936 0.11669 0.0
H356 H 0.66319 0.66436 0.83671 0.0
H357 H 0.60129 0.86854 0.30833 0.0
H358 H 0.59805 0.81986 0.37837 0.0
H359 H 0.65844 0.84329 0.08536 0.0
H360 H 0.59964 0.69569 0.32689 0.0
H361 H 0.60457 0.65561 0.22175 0.0
H362 H 0.66961 0.77025 0.73963 0.0
H363 H 0.59729 0.75704 0.38494 0.0
H364 H 0.66768 0.87708 0.89325 0.0
H365 H 0.66442 0.89007 0.01902 0.0
N366 N 0.65723 0.80507 0.99712 0.0
C367 C 0.65997 0.7967 0.92952 0.0
C368 C 0.65943 0.83765 0.03011 0.0
C369 C 0.66482 0.85662 0.9219 0.0
C370 C 0.66297 0.8641 0.99282 0.0
C371 C 0.66369 0.82233 0.88974 0.0
H372 H 0.66948 0.832 0.78874 0.0
N373 N 0.65703 0.7379 0.94287 0.0
C374 C 0.66005 0.76196 0.90177 0.0
C375 C 0.66468 0.71625 0.80965 0.0
C376 C 0.66377 0.75183 0.83355 0.0
C377 C 0.65862 0.70323 0.92161 0.0
C378 C 0.66226 0.69187 0.85423 0.0
O379 O 0.62749 0.74124 0.15062 0.0
O380 O 0.6422 0.78015 0.1563 0.0
O381 O 0.66078 0.72616 0.11026 0.0
O382 O 0.66849 0.77089 0.07442 0.0
O383 O 0.62372 0.805 0.03432 0.0
O384 O 0.64075 0.80888 0.09478 0.0
O385 O 0.63947 0.73919 0.95972 0.0
O386 O 0.623 0.77169 0.96591 0.0
O387 O 0.59776 0.77102 0.05772 0.0
O388 O 0.6037 0.72183 1.00541 0.0
O389 O 0.64265 0.70689 0.06798 0.0
O390 O 0.624 0.70509 0.02361 0.0
C391 C 0.63476 0.76204 0.18739 0.0
C392 C 0.63254 0.82314 0.06173 0.0
C393 C 0.67617 0.75347 0.17579 0.0
C394 C 0.69436 0.75849 0.23952 0.0
C395 C 0.67613 0.77081 0.29947 0.0
C396 C 0.67017 0.76345 0.2374 0.0
C397 C 0.68812 0.76834 0.3007 0.0
C398 C 0.68825 0.75116 0.17699 0.0
C399 C 0.66997 0.74532 0.10996 0.0
C400 C 0.66681 0.77743 0.79239 0.0
C401 C 0.66674 0.81263 0.82037 0.0
H402 H 0.66754 0.70736 0.75763 0.0
C403 C 0.6317 0.75683 0.93017 0.0
C404 C 0.63338 0.68981 0.04311 0.0
C405 C 0.58766 0.74788 0.95772 0.0
C406 C 0.5683 0.75303 0.91047 0.0
C407 C 0.58526 0.756 0.83799 0.0
C408 C 0.59243 0.75178 0.89343 0.0
C409 C 0.57331 0.75652 0.8462 0.0
C410 C 0.57563 0.74867 0.96612 0.0
C411 C 0.59504 0.74309 0.01681 0.0
H412 H 0.67145 0.77853 0.34683 0.0
H413 H 0.66089 0.76549 0.23751 0.0
H414 H 0.69252 0.77464 0.34951 0.0
H415 H 0.69286 0.74317 0.12935 0.0
H416 H 0.58898 0.75874 0.7883 0.0
H417 H 0.60167 0.75144 0.8861 0.0
H418 H 0.568 0.75922 0.80179 0.0
H419 H 0.57202 0.7463 0.01634 0.0
C420 C 0.34634 0.73833 0.9419 0.0
C421 C 0.34003 0.67821 0.92647 0.0
C422 C 0.3461 0.70591 0.96431 0.0
C423 C 0.33452 0.68339 0.86479 0.0
C424 C 0.34055 0.74396 0.88114 0.0
C425 C 0.33476 0.7162 0.84224 0.0
N426 N 0.3522 0.76448 0.97988 0.0
C427 C 0.35193 0.79749 0.96294 0.0
C428 C 0.34069 0.77739 0.8616 0.0
C429 C 0.34631 0.80434 0.90309 0.0
Gd430 Gd 0.39625 0.75342 0.08871 0.0
Gd431 Gd 0.36121 0.75059 0.07973 0.0
N432 N 0.35137 0.70186 0.0246 0.0
C433 C 0.33946 0.64638 0.95264 0.0
C434 C 0.35024 0.67163 0.05243 0.0
C435 C 0.34447 0.64322 0.01634 0.0
H436 H 0.35365 0.66955 0.103 0.0
H437 H 0.34376 0.61909 0.0381 0.0
H438 H 0.40065 0.8358 0.15547 0.0
H439 H 0.35622 0.81837 0.99509 0.0
H440 H 0.40704 0.86855 0.26641 0.0
H441 H 0.3349 0.62444 0.92508 0.0
H442 H 0.32988 0.66237 0.83479 0.0
H443 H 0.39934 0.66753 0.10663 0.0
H444 H 0.33636 0.78277 0.81521 0.0
H445 H 0.3463 0.83039 0.88906 0.0
H446 H 0.41322 0.78027 0.41253 0.0
H447 H 0.33034 0.71993 0.79509 0.0
H448 H 0.40743 0.66145 0.31706 0.0
H449 H 0.40285 0.63256 0.19997 0.0
N450 N 0.40005 0.7161 0.17161 0.0
C451 C 0.40352 0.7325 0.23423 0.0
C452 C 0.40042 0.68067 0.15815 0.0
C453 C 0.4055 0.67706 0.27658 0.0
C454 C 0.40282 0.66066 0.21072 0.0
C455 C 0.40616 0.71335 0.28864 0.0
H456 H 0.41149 0.71656 0.39539 0.0
N457 N 0.4016 0.78673 0.19186 0.0
C458 C 0.40455 0.76864 0.24415 0.0
C459 C 0.409 0.82257 0.31616 0.0
C460 C 0.40815 0.78623 0.30827 0.0
C461 C 0.40268 0.82202 0.19841 0.0
C462 C 0.40632 0.84051 0.26088 0.0
O463 O 0.36976 0.75222 0.97576 0.0
O464 O 0.38981 0.7463 0.97846 0.0
O465 O 0.41072 0.78306 0.05656 0.0
O466 O 0.41302 0.72932 0.06966 0.0
O467 O 0.3716 0.70417 0.10182 0.0
O468 O 0.38819 0.70293 0.03865 0.0
O469 O 0.38412 0.77496 0.17655 0.0
O470 O 0.37037 0.73353 0.17044 0.0
O471 O 0.34393 0.74329 0.11846 0.0
O472 O 0.35328 0.79062 0.15274 0.0
O473 O 0.38853 0.80058 0.05077 0.0
O474 O 0.36973 0.80395 0.09329 0.0
C475 C 0.37994 0.74866 0.94574 0.0
C476 C 0.37896 0.68734 0.05872 0.0
C477 C 0.42501 0.75147 0.98882 0.0
C478 C 0.44407 0.74952 0.93505 0.0
C479 C 0.42685 0.73797 0.86479 0.0
C480 C 0.41998 0.74283 0.92378 0.0
C481 C 0.43879 0.74135 0.8702 0.0
C482 C 0.43706 0.75454 0.9944 0.0
C483 C 0.41781 0.75691 0.05122 0.0
C484 C 0.41057 0.76717 0.36266 0.0
C485 C 0.40954 0.73088 0.35295 0.0
H486 H 0.41171 0.83701 0.36468 0.0
C487 C 0.37723 0.75513 0.20763 0.0
C488 C 0.3788 0.81743 0.06572 0.0
C489 C 0.33296 0.79472 0.14137 0.0
C490 C 0.31205 0.80237 0.15189 0.0
C491 C 0.3237 0.84352 0.09811 0.0
C492 C 0.33362 0.82484 0.10895 0.0
C493 C 0.31301 0.83249 0.11938 0.0
C494 C 0.32215 0.78362 0.16283 0.0
C495 C 0.34342 0.77445 0.15228 0.0
H496 H 0.4229 0.73133 0.81468 0.0
H497 H 0.41077 0.73966 0.91876 0.0
H498 H 0.44392 0.73692 0.82365 0.0
H499 H 0.44094 0.76115 0.04478 0.0
H500 H 0.3243 0.86678 0.07331 0.0
H501 H 0.3418 0.83404 0.09206 0.0
H502 H 0.3055 0.84792 0.1112 0.0
H503 H 0.32161 0.76015 0.18712 0.0
C504 C 0.60753 0.26983 0.79255 0.0
C505 C 0.60285 0.21599 0.71896 0.0
C506 C 0.60646 0.23368 0.78296 0.0
C507 C 0.60043 0.23494 0.66441 0.0
C508 C 0.60492 0.28885 0.73792 0.0
C509 C 0.6015 0.27121 0.67378 0.0
N510 N 0.61106 0.28633 0.85499 0.0
C511 C 0.6108 0.32178 0.868 0.0
C512 C 0.60567 0.32514 0.74956 0.0
C513 C 0.60843 0.34167 0.8152 0.0
Gd514 Gd 0.64981 0.25197 0.94749 0.0
Gd515 Gd 0.61475 0.24919 0.93832 0.0
N516 N 0.60942 0.21568 0.83538 0.0
C517 C 0.602 0.17965 0.71133 0.0
C518 C 0.60835 0.18039 0.82907 0.0
C519 C 0.6047 0.16181 0.76673 0.0
H520 H 0.6104 0.1667 0.87211 0.0
H521 H 0.60398 0.13377 0.76138 0.0
H522 H 0.65736 0.33299 0.92429 0.0
H523 H 0.61197 0.33506 0.91934 0.0
H524 H 0.66729 0.3834 0.98913 0.0
H525 H 0.59927 0.16513 0.66291 0.0
H526 H 0.59777 0.22176 0.61463 0.0
H527 H 0.65471 0.18419 0.03219 0.0
H528 H 0.60376 0.34066 0.70889 0.0
H529 H 0.60848 0.36978 0.82558 0.0
H530 H 0.68119 0.34002 0.19232 0.0
H531 H 0.59957 0.28544 0.63119 0.0
H532 H 0.67459 0.21968 0.2121 0.0
H533 H 0.6646 0.17212 0.13832 0.0
N534 N 0.65879 0.23804 0.04735 0.0
C535 C 0.66468 0.26414 0.08528 0.0
C536 C 0.65901 0.20504 0.06435 0.0
C537 C 0.67027 0.22508 0.16568 0.0
C538 C 0.66462 0.19816 0.12423 0.0
C539 C 0.67045 0.25849 0.14607 0.0
H540 H 0.68068 0.28247 0.23209 0.0
N541 N 0.65967 0.30063 1.00256 0.0
C542 C 0.66495 0.29656 0.06284 0.0
C543 C 0.67161 0.35606 0.0745 0.0
C544 C 0.67103 0.32422 0.10066 0.0
C545 C 0.6608 0.33088 0.97478 0.0
C546 C 0.66658 0.35925 1.01085 0.0
O547 O 0.62689 0.22765 0.85054 0.0
O548 O 0.64066 0.26904 0.85674 0.0
O549 O 0.66702 0.25942 0.9081 0.0
O550 O 0.65779 0.21171 0.87522 0.0
O551 O 0.62245 0.20238 0.97723 0.0
O552 O 0.64119 0.19877 0.93366 0.0
O553 O 0.64128 0.25079 0.05164 0.0
O554 O 0.6212 0.2557 0.04863 0.0
O555 O 0.60016 0.21968 0.96941 0.0
O556 O 0.59805 0.27372 0.95791 0.0
O557 O 0.63936 0.29825 0.92563 0.0
O558 O 0.62278 0.2995 0.98881 0.0
C559 C 0.6338 0.24743 0.81951 0.0
C560 C 0.63219 0.18558 0.96252 0.0
C561 C 0.67812 0.20821 0.88647 0.0
C562 C 0.69907 0.20138 0.87678 0.0
C563 C 0.68755 0.15983 0.93029 0.0
C564 C 0.67756 0.17811 0.919 0.0
C565 C 0.69821 0.17126 0.90937 0.0
C566 C 0.6889 0.21971 0.86538 0.0
C567 C 0.6676 0.22809 0.87511 0.0
C568 C 0.67653 0.31902 0.16234 0.0
C569 C 0.67626 0.28622 0.18493 0.0
H570 H 0.67618 0.37798 0.10205 0.0
C571 C 0.63107 0.25389 0.08152 0.0
C572 C 0.63207 0.31496 0.96938 0.0
C573 C 0.58596 0.25122 0.03779 0.0
C574 C 0.56687 0.25332 0.09107 0.0
C575 C 0.58406 0.26357 0.16197 0.0
C576 C 0.59096 0.25905 0.10309 0.0
C577 C 0.57211 0.26065 0.15618 0.0
C578 C 0.57391 0.24863 0.03186 0.0
C579 C 0.59317 0.24607 0.97547 0.0
H580 H 0.68703 0.13659 0.95518 0.0
H581 H 0.6694 0.16861 0.93565 0.0
H582 H 0.70578 0.15616 0.91791 0.0
H583 H 0.68937 0.24317 0.84102 0.0
H584 H 0.58799 0.26956 0.21228 0.0
H585 H 0.60019 0.26182 0.1084 0.0
H586 H 0.56695 0.26478 0.20265 0.0
H587 H 0.57005 0.24263 0.98128 0.0
C588 C 0.34636 0.20362 0.07274 0.0
C589 C 0.34101 0.24755 0.16762 0.0
C590 C 0.34632 0.23804 0.10312 0.0
C591 C 0.3361 0.2217 0.2023 0.0
C592 C 0.34105 0.17778 0.1062 0.0
C593 C 0.33613 0.18691 0.17169 0.0
N594 N 0.35115 0.19565 1.00928 0.0
C595 C 0.34999 0.16309 0.97381 0.0
C596 C 0.34062 0.14371 0.07211 0.0
C597 C 0.34495 0.13645 1.00517 0.0
Gd598 Gd 0.39489 0.24696 0.95968 0.0
Gd599 Gd 0.36001 0.24182 0.96323 0.0
N600 N 0.35137 0.26234 0.0691 0.0
C601 C 0.34068 0.2828 0.19484 0.0
C602 C 0.3504 0.29696 0.09298 0.0
C603 C 0.34524 0.30765 0.15685 0.0
H604 H 0.35391 0.31613 0.06346 0.0
H605 H 0.34477 0.33502 0.1767 0.0
H606 H 0.39917 0.15922 0.92039 0.0
H607 H 0.3529 0.15765 0.92106 0.0
H608 H 0.40417 0.11804 0.81895 0.0
H609 H 0.3367 0.29115 0.24435 0.0
H610 H 0.33209 0.22843 0.25228 0.0
H611 H 0.39908 0.32563 0.91537 0.0
H612 H 0.33664 0.12309 0.09611 0.0
H613 H 0.34432 0.11046 0.97745 0.0
H614 H 0.41369 0.19006 0.64683 0.0
H615 H 0.33211 0.16736 0.19847 0.0
H616 H 0.41175 0.31367 0.70786 0.0
H617 H 0.40599 0.35174 0.81399 0.0
N618 N 0.40053 0.2738 0.86539 0.0
C619 C 0.40408 0.25227 0.8088 0.0
C620 C 0.40147 0.30903 0.86876 0.0
C621 C 0.4087 0.30217 0.752 0.0
C622 C 0.40542 0.32378 0.81175 0.0
C623 C 0.40813 0.26598 0.75013 0.0
H624 H 0.41462 0.25332 0.64609 0.0
N625 N 0.39983 0.20391 0.86761 0.0
C626 C 0.40349 0.21643 0.80942 0.0
C627 C 0.40687 0.15784 0.75387 0.0
C628 C 0.40704 0.19365 0.75094 0.0
C629 C 0.40059 0.16914 0.87232 0.0
C630 C 0.4038 0.1456 0.81515 0.0
O631 O 0.3689 0.25529 0.06755 0.0
O632 O 0.38786 0.23546 0.06234 0.0
O633 O 0.41253 0.2296 0.96893 0.0
O634 O 0.40767 0.28123 0.01417 0.0
O635 O 0.36798 0.29495 0.9584 0.0
O636 O 0.38618 0.29623 1.00843 0.0
O637 O 0.38318 0.26239 0.87509 0.0
O638 O 0.36932 0.22097 0.86497 0.0
O639 O 0.35086 0.27704 0.90497 0.0
O640 O 0.34246 0.23042 0.92835 0.0
O641 O 0.38715 0.19812 0.99224 0.0
O642 O 0.37055 0.1935 0.92817 0.0
C643 C 0.37835 0.24515 0.09656 0.0
C644 C 0.37691 0.31177 0.9886 0.0
C645 C 0.42332 0.25468 0.06455 0.0
C646 C 0.44271 0.25119 0.11237 0.0
C647 C 0.42577 0.24723 0.18456 0.0
C648 C 0.41859 0.25053 0.12872 0.0
C649 C 0.43772 0.24767 0.1767 0.0
C650 C 0.43535 0.25481 0.05643 0.0
C651 C 0.4159 0.25832 1.0051 0.0
C652 C 0.41094 0.20724 0.6921 0.0
C653 C 0.4115 0.24327 0.69174 0.0
H654 H 0.40951 0.13952 0.70998 0.0
C655 C 0.37653 0.2406 0.83604 0.0
C656 C 0.37811 0.18027 0.96729 0.0
C657 C 0.33635 0.25277 0.82801 0.0
C658 C 0.31913 0.25242 0.75592 0.0
C659 C 0.33803 0.24167 0.70353 0.0
C660 C 0.34313 0.24543 0.76863 0.0
C661 C 0.32613 0.24524 0.69706 0.0
C662 C 0.32435 0.25596 0.82151 0.0
C663 C 0.34165 0.25777 0.89701 0.0
H664 H 0.42206 0.24434 0.23421 0.0
H665 H 0.40936 0.24979 0.13546 0.0
H666 H 0.44304 0.24556 0.22132 0.0
H667 H 0.43894 0.25716 1.00614 0.0
H668 H 0.34332 0.23605 0.6579 0.0
H669 H 0.35234 0.24282 0.77267 0.0
H670 H 0.32239 0.24201 0.64595 0.0
H671 H 0.31912 0.26191 0.86744 0.0
H672 H 0.20717 0.29051 0.73973 0.0
H673 H 0.22698 0.27791 0.77293 0.0
H674 H 0.23829 0.2821 0.56455 0.0
H675 H 0.2186 0.29475 0.53112 0.0
H676 H 0.24668 0.22132 0.64382 0.0
H677 H 0.25366 0.3571 0.77059 0.0
H678 H 0.24055 0.33497 0.78794 0.0
H679 H 0.24301 0.3468 0.70377 0.0
C680 C 0.21386 0.2882 0.70084 0.0
C681 C 0.21134 0.29383 0.63291 0.0
C682 C 0.22516 0.28119 0.71993 0.0
C683 C 0.2341 0.27931 0.67124 0.0
C684 C 0.23153 0.28354 0.6029 0.0
H685 H 0.30775 0.28901 0.66678 0.0
H686 H 0.28695 0.29426 0.65134 0.0
C687 C 0.22028 0.29089 0.58398 0.0
C688 C 0.24623 0.27453 0.69162 0.0
H689 H 0.26943 0.3189 0.76603 0.0
C690 C 0.25164 0.24246 0.67128 0.0
C691 C 0.25268 0.30232 0.7268 0.0
C692 C 0.24727 0.33739 0.74857 0.0
C693 C 0.26337 0.23759 0.68478 0.0
C694 C 0.26985 0.26553 0.71916 0.0
C695 C 0.26442 0.29749 0.74003 0.0
C696 C 0.28243 0.26262 0.73024 0.0
C697 C 0.2689 0.20297 0.66046 0.0
C698 C 0.28679 0.24339 0.78033 0.0
C699 C 0.2987 0.24047 0.78956 0.0
C700 C 0.30646 0.25649 0.74838 0.0
C701 C 0.30202 0.276 0.69873 0.0
C702 C 0.29014 0.27917 0.69006 0.0
H703 H 0.26298 0.18499 0.62862 0.0
H704 H 0.27673 0.20677 0.62978 0.0
H705 H 0.27161 0.19057 0.70576 0.0
H706 H 0.28097 0.23056 0.81211 0.0
H707 H 0.30183 0.2251 0.82792 0.0
H708 H 0.71959 0.20172 0.94593 0.0
H709 H 0.73859 0.21783 0.90705 0.0
H710 H 0.72372 0.24402 0.71904 0.0
H711 H 0.70465 0.22751 0.75713 0.0
H712 H 0.75039 0.18896 0.78698 0.0
H713 H 0.74296 0.3305 0.78936 0.0
H714 H 0.73356 0.30349 0.83302 0.0
H715 H 0.73258 0.30278 0.74126 0.0
C716 C 0.72033 0.2108 0.89616 0.0
C717 C 0.71055 0.21321 0.85462 0.0
C718 C 0.73121 0.22015 0.87416 0.0
C719 C 0.73258 0.23242 0.81042 0.0
C720 C 0.72285 0.23521 0.769 0.0
H721 H 0.7916 0.30119 0.59093 0.0
H722 H 0.77256 0.28326 0.62607 0.0
C723 C 0.71194 0.2258 0.79093 0.0
C724 C 0.74425 0.24125 0.78665 0.0
H725 H 0.76057 0.308 0.74192 0.0
C726 C 0.75264 0.21501 0.77729 0.0
C727 C 0.74716 0.27522 0.77387 0.0
C728 C 0.73864 0.30475 0.78538 0.0
C729 C 0.7638 0.22166 0.75449 0.0
C730 C 0.76674 0.25569 0.74208 0.0
C731 C 0.75833 0.28191 0.75134 0.0
C732 C 0.77847 0.26479 0.71944 0.0
C733 C 0.77225 0.19196 0.74237 0.0
C734 C 0.78819 0.26031 0.76004 0.0
C735 C 0.79912 0.27049 0.73994 0.0
C736 C 0.80054 0.28578 0.67924 0.0
C737 C 0.7908 0.28984 0.63835 0.0
C738 C 0.77991 0.27953 0.65829 0.0
H739 H 0.76781 0.16636 0.73519 0.0
H740 H 0.77767 0.194 0.69638 0.0
H741 H 0.77797 0.19266 0.78785 0.0
H742 H 0.78729 0.24974 0.80823 0.0
H743 H 0.80639 0.26748 0.77316 0.0
H744 H 0.2915 0.80276 0.0833 0.0
H745 H 0.27245 0.7876 0.12284 0.0
H746 H 0.28729 0.76049 0.31019 0.0
H747 H 0.30643 0.77607 0.27142 0.0
H748 H 0.27109 0.71142 0.24684 0.0
H749 H 0.25354 0.84558 0.27456 0.0
H750 H 0.25971 0.83089 0.19166 0.0
H751 H 0.26875 0.83653 0.26676 0.0
C752 C 0.29073 0.79389 0.13325 0.0
C753 C 0.30053 0.79103 0.17446 0.0
C754 C 0.27982 0.78522 0.15577 0.0
C755 C 0.2784 0.77357 0.22008 0.0
C756 C 0.28817 0.76966 0.26055 0.0
H757 H 0.21964 0.70408 0.44324 0.0
H758 H 0.23872 0.72104 0.40704 0.0
C759 C 0.29912 0.77839 0.2381 0.0
C760 C 0.26674 0.76513 0.24459 0.0
H761 H 0.24026 0.80025 0.28596 0.0
C762 C 0.26437 0.73086 0.2558 0.0
C763 C 0.25795 0.7905 0.25595 0.0
C764 C 0.2601 0.82802 0.24725 0.0
C765 C 0.25339 0.72111 0.27669 0.0
C766 C 0.24459 0.7465 0.28824 0.0
C767 C 0.24698 0.78079 0.2771 0.0
C768 C 0.23288 0.73795 0.312 0.0
C769 C 0.25124 0.68346 0.28438 0.0
C770 C 0.22314 0.74323 0.27225 0.0
C771 C 0.21217 0.73376 0.29313 0.0
C772 C 0.21073 0.71884 0.35426 0.0
C773 C 0.22047 0.71482 0.39517 0.0
C774 C 0.2314 0.72441 0.37444 0.0
H775 H 0.25768 0.66603 0.25557 0.0
H776 H 0.25188 0.68006 0.33963 0.0
H777 H 0.24252 0.67515 0.26584 0.0
H778 H 0.22405 0.75388 0.22413 0.0
H779 H 0.20487 0.73704 0.26023 0.0
H780 H 0.71 0.78032 0.1492 0.0
H781 H 0.73102 0.77821 0.15517 0.0
H782 H 0.72878 0.72949 0.3402 0.0
H783 H 0.70778 0.73152 0.33462 0.0
H784 H 0.74424 0.78347 0.35262 0.0
H785 H 0.75233 0.69539 0.11016 0.0
H786 H 0.74387 0.73288 0.09879 0.0
H787 H 0.73823 0.70097 0.14859 0.0
C788 C 0.71397 0.76869 0.19061 0.0
C789 C 0.70717 0.75606 0.24137 0.0
C790 C 0.72601 0.76747 0.19393 0.0
C791 C 0.73151 0.75326 0.24764 0.0
C792 C 0.72475 0.74055 0.29823 0.0
H793 H 0.80282 0.72518 0.36953 0.0
H794 H 0.78182 0.72675 0.36251 0.0
C795 C 0.71273 0.74185 0.29508 0.0
C796 C 0.7443 0.75269 0.25262 0.0
H797 H 0.76867 0.72273 0.16653 0.0
C798 C 0.74958 0.77003 0.31207 0.0
C799 C 0.75129 0.73521 0.19968 0.0
C800 C 0.74616 0.71477 0.13597 0.0
C801 C 0.76161 0.7709 0.3195 0.0
C802 C 0.76859 0.75348 0.26653 0.0
C803 C 0.76333 0.73614 0.20707 0.0
C804 C 0.78138 0.75295 0.27166 0.0
C805 C 0.76675 0.79117 0.38337 0.0
C806 C 0.78816 0.76655 0.22225 0.0
C807 C 0.80018 0.76569 0.22611 0.0
C808 C 0.80572 0.75098 0.2793 0.0
C809 C 0.79888 0.73727 0.32863 0.0
C810 C 0.78685 0.73813 0.32467 0.0
H811 H 0.76055 0.81027 0.40984 0.0
H812 H 0.76917 0.7729 0.41997 0.0
H813 H 0.77462 0.80528 0.3707 0.0
H814 H 0.78414 0.77808 0.18083 0.0
H815 H 0.80514 0.77684 0.18767 0.0
H816 H 0.12287 0.86263 0.57507 0.0
H817 H 0.12275 0.92635 0.58586 0.0
H818 H 0.14113 0.92209 0.39351 0.0
H819 H 0.14131 0.85854 0.38264 0.0
H820 H 0.15019 0.97062 0.49478 0.0
H821 H 0.10293 0.98671 0.47719 0.0
H822 H 0.10733 0.96182 0.54365 0.0
H823 H 0.10996 0.94527 0.45481 0.0
C824 C 0.12686 0.87534 0.53507 0.0
C825 C 0.13215 0.85562 0.47822 0.0
C826 C 0.12673 0.91171 0.54109 0.0
C827 C 0.1318 0.92902 0.49002 0.0
C828 C 0.13716 0.90934 0.4335 0.0
H829 H 0.12251 0.14787 0.44031 0.0
H830 H 0.12261 0.08401 0.42483 0.0
C831 C 0.13729 0.87302 0.4275 0.0
C832 C 0.1317 0.96764 0.49588 0.0
H833 H 0.11386 0.03823 0.50861 0.0
C834 C 0.14225 0.9854 0.49762 0.0
C835 C 0.12133 0.98691 0.4984 0.0
C836 C 0.10974 0.96925 0.49275 0.0
C837 C 0.14272 0.02187 0.50323 0.0
C838 C 0.13236 0.0412 0.50848 0.0
C839 C 0.1218 0.02343 0.50528 0.0
C840 C 0.1323 0.07988 0.51773 0.0
C841 C 0.15431 0.03935 0.5024 0.0
C842 C 0.13754 0.09877 0.57559 0.0
C843 C 0.13751 0.13513 0.58439 0.0
C844 C 0.13221 0.15338 0.53555 0.0
C845 C 0.12674 0.13448 0.47843 0.0
C846 C 0.12679 0.09804 0.46958 0.0
H847 H 0.16102 0.02109 0.47897 0.0
H848 H 0.15397 0.06205 0.47341 0.0
H849 H 0.15696 0.04873 0.55611 0.0
H850 H 0.14156 0.08539 0.61446 0.0
H851 H 0.14146 0.14893 0.63014 0.0
H852 H 0.89366 0.35835 0.50757 0.0
H853 H 0.89286 0.42007 0.49611 0.0
H854 H 0.86394 0.43286 0.63523 0.0
H855 H 0.86445 0.37064 0.64544 0.0
H856 H 0.86042 0.46719 0.52775 0.0
H857 H 0.90391 0.49986 0.63089 0.0
H858 H 0.90435 0.46602 0.55903 0.0
H859 H 0.89717 0.45854 0.63732 0.0
C860 C 0.88716 0.37424 0.53626 0.0
C861 C 0.87918 0.35946 0.57802 0.0
C862 C 0.88676 0.40969 0.52989 0.0
C863 C 0.87851 0.43143 0.56603 0.0
C864 C 0.87045 0.41673 0.60721 0.0
H865 H 0.88396 0.65807 0.60601 0.0
H866 H 0.88299 0.5974 0.62818 0.0
C867 C 0.87077 0.38112 0.61314 0.0
C868 C 0.87818 0.46927 0.55943 0.0
H869 H 0.89487 0.54235 0.57099 0.0
C870 C 0.86794 0.48367 0.53771 0.0
C871 C 0.8879 0.49109 0.57365 0.0
C872 C 0.89891 0.47818 0.60223 0.0
C873 C 0.86725 0.5189 0.52795 0.0
C874 C 0.87717 0.54016 0.53837 0.0
C875 C 0.88731 0.52601 0.56195 0.0
C876 C 0.87726 0.57716 0.5254 0.0
C877 C 0.85585 0.53316 0.5079 0.0
C878 C 0.87446 0.58607 0.46011 0.0
C879 C 0.87495 0.62075 0.4476 0.0
C880 C 0.87834 0.6471 0.49996 0.0
C881 C 0.88129 0.63818 0.56487 0.0
C882 C 0.88072 0.60357 0.57755 0.0
H883 H 0.84856 0.51685 0.52145 0.0
H884 H 0.85454 0.56014 0.53363 0.0
H885 H 0.85567 0.53348 0.45133 0.0
H886 H 0.87211 0.56614 0.41838 0.0
H887 H 0.87288 0.62689 0.39665 0.0
H888 H 0.86254 0.85561 0.45116 0.0
H889 H 0.86299 0.91888 0.45765 0.0
H890 H 0.89181 0.92304 0.59715 0.0
H891 H 0.89172 0.85959 0.5886 0.0
H892 H 0.86 0.96977 0.55633 0.0
H893 H 0.90441 0.97981 0.45964 0.0
H894 H 0.89711 0.93868 0.45737 0.0
H895 H 0.90399 0.95847 0.53533 0.0
C896 C 0.86897 0.86996 0.48343 0.0
C897 C 0.87714 0.85245 0.51904 0.0
C898 C 0.86923 0.90621 0.48696 0.0
C899 C 0.8776 0.92588 0.52659 0.0
C900 C 0.8855 0.90852 0.56432 0.0
H901 H 0.87199 0.14826 0.65934 0.0
H902 H 0.87163 0.0848 0.64882 0.0
C903 C 0.88537 0.8722 0.55993 0.0
C904 C 0.87792 0.96448 0.52909 0.0
H905 H 0.89565 0.03287 0.50972 0.0
C906 C 0.86779 0.98349 0.54573 0.0
C907 C 0.88801 0.98255 0.51378 0.0
C908 C 0.89895 0.96379 0.48979 0.0
C909 C 0.86751 0.0199 0.54885 0.0
C910 C 0.87775 0.03811 0.53753 0.0
C911 C 0.88783 0.01907 0.51944 0.0
C912 C 0.87821 0.07683 0.54437 0.0
C913 C 0.85614 0.03829 0.56268 0.0
C914 C 0.88251 0.09373 0.49043 0.0
C915 C 0.88294 0.13013 0.49697 0.0
C916 C 0.87898 0.15026 0.55734 0.0
C917 C 0.87487 0.13337 0.61165 0.0
C918 C 0.8746 0.09707 0.60551 0.0
H919 H 0.84879 0.02062 0.54734 0.0
H920 H 0.85532 0.04723 0.61872 0.0
H921 H 0.85545 0.06124 0.53459 0.0
H922 H 0.88544 0.07876 0.44293 0.0
H923 H 0.8862 0.14254 0.45447 0.0
H924 H 0.14425 0.63342 0.3755 0.0
H925 H 0.14463 0.57118 0.38596 0.0
H926 H 0.12149 0.58884 0.55946 0.0
H927 H 0.12064 0.65052 0.54708 0.0
H928 H 0.15156 0.53523 0.48073 0.0
H929 H 0.1049 0.51167 0.44876 0.0
H930 H 0.11147 0.55204 0.43362 0.0
H931 H 0.10769 0.54468 0.51986 0.0
C932 C 0.13916 0.62393 0.41545 0.0
C933 C 0.13226 0.64682 0.45967 0.0
C934 C 0.13941 0.58834 0.42153 0.0
C935 C 0.13285 0.57495 0.47242 0.0
C936 C 0.12628 0.59809 0.51809 0.0
H937 H 0.14499 0.37434 0.61615 0.0
H938 H 0.14536 0.43537 0.5971 0.0
C939 C 0.12586 0.63348 0.5112 0.0
C940 C 0.13305 0.53701 0.47866 0.0
H941 H 0.11567 0.46742 0.49408 0.0
C942 C 0.1437 0.52034 0.48303 0.0
C943 C 0.12283 0.51718 0.48029 0.0
C944 C 0.1111 0.53224 0.46959 0.0
C945 C 0.14442 0.48481 0.49042 0.0
C946 C 0.13419 0.46555 0.49633 0.0
C947 C 0.12354 0.48208 0.49058 0.0
C948 C 0.13422 0.42821 0.5076 0.0
C949 C 0.15617 0.46825 0.49007 0.0
C950 C 0.12754 0.40377 0.46536 0.0
C951 C 0.12704 0.36908 0.47753 0.0
C952 C 0.13332 0.35787 0.53176 0.0
C953 C 0.14013 0.38213 0.57358 0.0
C954 C 0.14043 0.41702 0.56227 0.0
H955 H 0.16253 0.48257 0.46216 0.0
H956 H 0.15923 0.46903 0.54391 0.0
H957 H 0.15596 0.44075 0.46559 0.0
H958 H 0.12265 0.41156 0.42287 0.0
H959 H 0.12179 0.35094 0.44406 0.0
H960 H 0.61916 0.64355 0.96612 0.0
H961 H 0.61919 0.58019 0.95845 0.0
H962 H 0.64747 0.58543 0.10197 0.0
H963 H 0.64778 0.64875 0.10788 0.0
H964 H 0.65108 0.53532 1.0011 0.0
H965 H 0.60657 0.52165 0.0934 0.0
H966 H 0.60698 0.54389 0.01888 0.0
H967 H 0.61363 0.56329 0.09792 0.0
C968 C 0.62537 0.63125 0.99621 0.0
C969 C 0.63344 0.65129 0.03782 0.0
C970 C 0.62532 0.59496 0.99221 0.0
C971 C 0.63315 0.57792 0.03092 0.0
C972 C 0.64129 0.59789 0.0719 0.0
H973 H 0.6255 0.35802 0.08455 0.0
H974 H 0.62626 0.42189 0.10351 0.0
C975 C 0.64146 0.63414 0.07517 0.0
C976 C 0.63308 0.53928 0.0272 0.0
H977 H 0.61566 0.46948 0.04053 0.0
C978 C 0.64335 0.52099 1.01026 0.0
C979 C 0.62307 0.52042 0.04052 0.0
C980 C 0.61198 0.53836 0.06444 0.0
C981 C 0.6438 0.48452 1.00448 0.0
C982 C 0.63362 0.46559 0.01366 0.0
C983 C 0.62343 0.48388 0.0325 0.0
C984 C 0.63331 0.42686 1.00286 0.0
C985 C 0.65525 0.46673 0.98979 0.0
C986 C 0.63684 0.40836 0.93975 0.0
C987 C 0.63653 0.37205 0.92929 0.0
C988 C 0.63253 0.3534 0.98137 0.0
C989 C 0.6287 0.37181 0.04384 0.0
C990 C 0.62913 0.40824 0.05461 0.0
H991 H 0.66252 0.48448 1.00636 0.0
H992 H 0.656 0.44326 0.0163 0.0
H993 H 0.65611 0.45866 0.93349 0.0
H994 H 0.6397 0.42203 0.8981 0.0
H995 H 0.63922 0.35855 0.87985 0.0
H996 H 0.36339 0.86752 0.11949 0.0
H997 H 0.36282 0.92864 0.10145 0.0
H998 H 0.39217 0.91239 0.96616 0.0
H999 H 0.39305 0.85162 0.98589 0.0
H1000 H 0.39485 0.97008 0.04949 0.0
H1001 H 0.35093 0.97129 0.94122 0.0
H1002 H 0.35103 0.95754 0.02507 0.0
H1003 H 0.35812 0.93153 0.95431 0.0
C1004 C 0.36971 0.8769 0.0857 0.0
C1005 C 0.37828 0.85455 0.05425 0.0
C1006 C 0.36931 0.91188 0.07492 0.0
C1007 C 0.37731 0.92519 0.03129 0.0
C1008 C 0.38587 0.90287 0.9999 0.0
H1009 H 0.37128 0.12524 0.87357 0.0
H1010 H 0.3711 0.06343 0.88872 0.0
C1011 C 0.38637 0.86805 1.01132 0.0
C1012 C 0.37708 0.96257 0.02024 0.0
H1013 H 0.35979 0.02665 0.97278 0.0
C1014 C 0.38719 0.98233 0.03236 0.0
C1015 C 0.36715 0.97866 0.99679 0.0
C1016 C 0.35624 0.95857 0.97788 0.0
C1017 C 0.38762 0.01758 0.02266 0.0
C1018 C 0.37755 0.03409 1.0024 0.0
C1019 C 0.36748 0.01424 0.98921 0.0
C1020 C 0.37733 0.07177 0.99388 0.0
C1021 C 0.39898 0.03644 0.03263 0.0
C1022 C 0.38066 0.09724 0.04818 0.0
C1023 C 0.38089 0.13243 0.03925 0.0
C1024 C 0.37751 0.14303 0.97644 0.0
C1025 C 0.37385 0.11776 0.92269 0.0
C1026 C 0.37376 0.08247 0.93134 0.0
H1027 H 0.40634 0.01804 0.02643 0.0
H1028 H 0.40004 0.05546 0.99545 0.0
H1029 H 0.39937 0.05068 0.08564 0.0
H1030 H 0.38312 0.08992 0.0976 0.0
H1031 H 0.38362 0.15145 0.08177 0.0
H1032 H 0.36274 0.35385 0.92452 0.0
H1033 H 0.36329 0.41714 0.93157 0.0
H1034 H 0.39119 0.42089 0.07746 0.0
H1035 H 0.39098 0.35744 0.06873 0.0
H1036 H 0.35966 0.46735 0.03198 0.0
H1037 H 0.40453 0.47922 0.94416 0.0
H1038 H 0.39726 0.43788 0.93884 0.0
H1039 H 0.40371 0.45702 0.01865 0.0
C1040 C 0.36901 0.36808 0.95813 0.0
C1041 C 0.37687 0.35043 0.99574 0.0
C1042 C 0.36933 0.40436 0.96204 0.0
C1043 C 0.37745 0.42395 1.00389 0.0
C1044 C 0.38508 0.40645 0.04305 0.0
H1045 H 0.37164 0.64452 0.14939 0.0
H1046 H 0.37117 0.58105 0.1334 0.0
C1047 C 0.38488 0.3701 0.03849 0.0
C1048 C 0.37771 0.46266 1.00769 0.0
H1049 H 0.39546 0.53181 0.99452 0.0
C1050 C 0.36749 0.48137 0.02335 0.0
C1051 C 0.38785 0.48114 0.99501 0.0
C1052 C 0.39892 0.46276 0.97248 0.0
C1053 C 0.36717 0.51786 0.0283 0.0
C1054 C 0.37745 0.53643 0.0196 0.0
C1055 C 0.38761 0.51772 1.00219 0.0
C1056 C 0.37786 0.57522 0.02923 0.0
C1057 C 0.35575 0.53603 0.04144 0.0
C1058 C 0.38221 0.59335 0.97716 0.0
C1059 C 0.38262 0.62981 0.98663 0.0
C1060 C 0.3786 0.6488 0.04812 0.0
C1061 C 0.37447 0.63062 0.10061 0.0
C1062 C 0.37418 0.59428 0.09145 0.0
H1063 H 0.34845 0.51838 0.02475 0.0
H1064 H 0.35476 0.54455 0.09753 0.0
H1065 H 0.35515 0.55925 0.01408 0.0
H1066 H 0.38521 0.57928 0.92893 0.0
H1067 H 0.38594 0.64319 0.94561 0.0
H1068 H 0.6466 0.13411 0.90285 0.0
H1069 H 0.64687 0.07292 0.92121 0.0
H1070 H 0.61975 0.09299 0.07175 0.0
H1071 H 0.6191 0.15369 0.05152 0.0
H1072 H 0.65135 0.0406 0.02728 0.0
H1073 H 0.60611 0.01241 0.95249 0.0
H1074 H 0.61307 0.05252 0.93942 0.0
H1075 H 0.60715 0.04712 0.02243 0.0
C1076 C 0.64064 0.12543 0.93956 0.0
C1077 C 0.63269 0.14867 0.97481 0.0
C1078 C 0.64082 0.09042 0.95015 0.0
C1079 C 0.63313 0.07797 0.99666 0.0
C1080 C 0.62549 0.10151 0.03379 0.0
H1081 H 0.64145 0.87683 0.15198 0.0
H1082 H 0.64187 0.9388 0.1383 0.0
C1083 C 0.62517 0.13633 0.02241 0.0
C1084 C 0.63316 0.04051 1.00669 0.0
H1085 H 0.61575 0.96959 1.0076 0.0
C1086 C 0.64357 0.02502 0.02266 0.0
C1087 C 0.62306 0.01987 0.99949 0.0
C1088 C 0.61175 0.03372 0.97678 0.0
C1089 C 0.64415 0.98974 0.03218 0.0
C1090 C 0.63395 0.96954 0.02811 0.0
C1091 C 0.62356 0.98502 1.01171 0.0
C1092 C 0.63385 0.93196 0.03746 0.0
C1093 C 0.65576 0.97424 0.04394 0.0
C1094 C 0.62882 0.90748 0.98689 0.0
C1095 C 0.62832 0.87236 0.99556 0.0
C1096 C 0.63301 0.86066 0.0544 0.0
C1097 C 0.63797 0.88505 0.10545 0.0
C1098 C 0.63829 0.92043 0.09734 0.0
H1099 H 0.66287 0.99011 0.02647 0.0
H1100 H 0.65696 0.97316 0.09982 0.0
H1101 H 0.65644 0.94747 0.01618 0.0
H1102 H 0.62527 0.91556 0.94041 0.0
H1103 H 0.62432 0.85427 0.95571 0.0
H1104 H 0.14696 0.22308 0.33275 0.0
H1105 H 0.14712 0.22547 0.20839 0.0
H1106 H 0.11418 0.27671 0.22427 0.0
H1107 H 0.11427 0.27605 0.34957 0.0
H1108 H 0.11914 0.21063 0.10901 0.0
H1109 H 0.14868 0.32429 0.12006 0.0
H1110 H 0.15185 0.2907 0.17261 0.0
H1111 H 0.13945 0.31765 0.1915 0.0
C1112 C 0.13986 0.23543 0.31011 0.0
C1113 C 0.1307 0.24982 0.35148 0.0
C1114 C 0.13989 0.23642 0.23881 0.0
C1115 C 0.1307 0.25146 0.20704 0.0
C1116 C 0.12137 0.26498 0.24771 0.0
H1117 H 0.12779 0.31154 0.792 0.0
H1118 H 0.12642 0.30928 0.91645 0.0
C1119 C 0.12139 0.26431 0.31927 0.0
C1120 C 0.13092 0.25335 0.13151 0.0
H1121 H 0.14307 0.29757 1.00984 0.0
C1122 C 0.12434 0.22967 0.08723 0.0
C1123 C 0.13768 0.27824 0.10325 0.0
C1124 C 0.14482 0.30438 0.14895 0.0
C1125 C 0.12444 0.22997 0.0153 0.0
C1126 C 0.13134 0.25462 0.98665 0.0
C1127 C 0.13778 0.27865 0.03138 0.0
C1128 C 0.13206 0.25581 0.91064 0.0
C1129 C 0.11708 0.2039 0.97092 0.0
C1130 C 0.13582 0.22673 0.86555 0.0
C1131 C 0.13653 0.22795 0.7944 0.0
C1132 C 0.13351 0.25829 0.76654 0.0
C1133 C 0.12998 0.28761 0.81173 0.0
C1134 C 0.12926 0.28638 0.88296 0.0
H1135 H 0.10964 0.19545 1.0002 0.0
H1136 H 0.11382 0.21461 0.92494 0.0
H1137 H 0.12233 0.18055 0.95308 0.0
H1138 H 0.13828 0.20306 0.88543 0.0
H1139 H 0.13932 0.20493 0.76103 0.0
H1140 H 0.86617 0.28803 0.37332 0.0
H1141 H 0.8656 0.28567 0.24909 0.0
H1142 H 0.8947 0.21597 0.2319 0.0
H1143 H 0.89404 0.21425 0.35608 0.0
H1144 H 0.87793 0.30628 0.16404 0.0
H1145 H 0.87724 0.1644 0.08426 0.0
H1146 H 0.87569 0.18287 0.17308 0.0
H1147 H 0.88979 0.17658 0.13462 0.0
C1148 C 0.87211 0.27099 0.34318 0.0
C1149 C 0.87987 0.25056 0.37533 0.0
C1150 C 0.87197 0.27019 0.27153 0.0
C1151 C 0.87994 0.24999 0.22946 0.0
C1152 C 0.88809 0.23067 0.2618 0.0
H1153 H 0.8894 0.30191 0.80819 0.0
H1154 H 0.89077 0.29923 0.93153 0.0
C1155 C 0.88787 0.23028 0.3335 0.0
C1156 C 0.87989 0.25055 0.15272 0.0
H1157 H 0.88163 0.19938 0.99649 0.0
C1158 C 0.87859 0.28271 0.12768 0.0
C1159 C 0.88059 0.22001 0.10406 0.0
C1160 C 0.88077 0.18405 0.12542 0.0
C1161 C 0.87784 0.28522 0.05671 0.0
C1162 C 0.87927 0.25496 1.00803 0.0
C1163 C 0.88066 0.22281 0.03298 0.0
C1164 C 0.87905 0.25572 0.9314 0.0
C1165 C 0.87499 0.32026 0.03561 0.0
C1166 C 0.87258 0.23103 0.88809 0.0
C1167 C 0.8725 0.23107 0.81645 0.0
C1168 C 0.87873 0.25616 0.78602 0.0
C1169 C 0.8849 0.28141 0.82936 0.0
C1170 C 0.88539 0.2805 0.90065 0.0
H1171 H 0.87009 0.33659 0.07663 0.0
H1172 H 0.88308 0.3343 0.02733 0.0
H1173 H 0.86981 0.31773 0.9876 0.0
H1174 H 0.86755 0.2116 0.90964 0.0
H1175 H 0.86757 0.21128 0.78491 0.0
H1176 H 0.1424 0.79764 0.25013 0.0
H1177 H 0.14177 0.79807 0.1256 0.0
H1178 H 0.12115 0.70469 0.10351 0.0
H1179 H 0.12309 0.70195 0.22671 0.0
H1180 H 0.13378 0.69834 1.00425 0.0
H1181 H 0.11806 0.83264 0.01314 0.0
H1182 H 0.1316 0.83308 0.05663 0.0
H1183 H 0.11933 0.81199 0.08984 0.0
C1184 C 0.13778 0.77708 0.21864 0.0
C1185 C 0.13241 0.75039 0.24897 0.0
C1186 C 0.13724 0.7777 0.1472 0.0
C1187 C 0.13097 0.75231 0.10432 0.0
C1188 C 0.1259 0.72507 0.13465 0.0
H1189 H 0.11611 0.78842 0.67732 0.0
H1190 H 0.11503 0.78572 0.80125 0.0
C1191 C 0.12683 0.72378 0.20565 0.0
C1192 C 0.13013 0.75311 0.02784 0.0
H1193 H 0.1261 0.807 0.90499 0.0
C1194 C 0.13194 0.72214 0.98292 0.0
C1195 C 0.12741 0.7837 0.99862 0.0
C1196 C 0.12385 0.81705 0.0422 0.0
C1197 C 0.13134 0.72097 0.91081 0.0
C1198 C 0.12971 0.75221 0.88153 0.0
C1199 C 0.12762 0.78305 0.9264 0.0
C1200 C 0.13019 0.75348 0.80506 0.0
C1201 C 0.13205 0.68579 0.86748 0.0
C1202 C 0.13906 0.73669 0.76465 0.0
C1203 C 0.13929 0.73665 0.69318 0.0
C1204 C 0.1311 0.75517 0.65986 0.0
C1205 C 0.1225 0.77338 0.70058 0.0
C1206 C 0.12196 0.77217 0.77199 0.0
H1207 H 0.12865 0.66505 0.896 0.0
H1208 H 0.12713 0.68506 0.81874 0.0
H1209 H 0.14119 0.67947 0.85519 0.0
H1210 H 0.14586 0.72331 0.78812 0.0
H1211 H 0.14586 0.72172 0.66413 0.0
H1212 H 0.89492 0.78074 0.70979 0.0
H1213 H 0.89485 0.77992 0.83525 0.0
H1214 H 0.86459 0.7151 0.81595 0.0
H1215 H 0.865 0.71461 0.69096 0.0
H1216 H 0.86302 0.77349 0.92166 0.0
H1217 H 0.90318 0.69806 0.94297 0.0
H1218 H 0.90441 0.73516 0.89729 0.0
H1219 H 0.89577 0.69873 0.86209 0.0
C1220 C 0.88835 0.76596 0.73229 0.0
C1221 C 0.87981 0.74828 0.69039 0.0
C1222 C 0.8883 0.76557 0.80409 0.0
C1223 C 0.87972 0.74739 0.83545 0.0
C1224 C 0.87125 0.72956 0.79342 0.0
H1225 H 0.8735 0.68984 0.25114 0.0
H1226 H 0.87429 0.69082 0.1258 0.0
C1227 C 0.87138 0.72973 0.72187 0.0
C1228 C 0.87937 0.7473 0.91193 0.0
H1229 H 0.89393 0.72028 0.04738 0.0
C1230 C 0.8698 0.76192 0.94907 0.0
C1231 C 0.88814 0.73192 0.94794 0.0
C1232 C 0.89844 0.71479 0.91074 0.0
C1233 C 0.86884 0.76193 0.02089 0.0
C1234 C 0.87766 0.74686 0.05692 0.0
C1235 C 0.88719 0.73194 0.01985 0.0
C1236 C 0.87709 0.7463 0.13306 0.0
C1237 C 0.85832 0.77764 0.05787 0.0
C1238 C 0.87838 0.77712 0.17898 0.0
C1239 C 0.87799 0.77656 0.25047 0.0
C1240 C 0.87626 0.74519 0.27768 0.0
C1241 C 0.87477 0.71442 0.2317 0.0
C1242 C 0.8753 0.71493 0.16012 0.0
H1243 H 0.85144 0.7831 0.02148 0.0
H1244 H 0.85485 0.75997 0.09306 0.0
H1245 H 0.86072 0.80244 0.08967 0.0
H1246 H 0.87984 0.8016 0.1595 0.0
H1247 H 0.87912 0.80069 0.28457 0.0
H1248 H 0.62954 0.70911 0.26167 0.0
H1249 H 0.62953 0.70996 0.38714 0.0
H1250 H 0.64117 0.81633 0.41267 0.0
H1251 H 0.64114 0.81561 0.28672 0.0
H1252 H 0.6494 0.72839 0.48465 0.0
H1253 H 0.61146 0.81512 0.53841 0.0
H1254 H 0.6139 0.79006 0.4552 0.0
H1255 H 0.62245 0.82786 0.48181 0.0
C1256 C 0.63205 0.73277 0.29393 0.0
C1257 C 0.63523 0.76241 0.26394 0.0
C1258 C 0.63209 0.73317 0.36583 0.0
C1259 C 0.63524 0.7633 0.40991 0.0
C1260 C 0.63858 0.79285 0.3801 0.0
H1261 H 0.63071 0.81348 0.86107 0.0
H1262 H 0.63247 0.81528 0.73685 0.0
C1263 C 0.63863 0.79236 0.30799 0.0
C1264 C 0.63509 0.76353 0.48675 0.0
H1265 H 0.62049 0.79576 0.63336 0.0
C1266 C 0.64309 0.74318 0.51727 0.0
C1267 C 0.62698 0.78309 0.52979 0.0
C1268 C 0.61814 0.80526 0.50011 0.0
C1269 C 0.64329 0.74211 0.58918 0.0
C1270 C 0.6349 0.76075 0.63237 0.0
C1271 C 0.62694 0.7813 0.60141 0.0
C1272 C 0.63416 0.75951 0.70923 0.0
C1273 C 0.65281 0.72185 0.61775 0.0
C1274 C 0.63443 0.72773 0.73684 0.0
C1275 C 0.63374 0.7269 0.80837 0.0
C1276 C 0.63226 0.75766 0.85426 0.0
C1277 C 0.63167 0.78932 0.82701 0.0
C1278 C 0.63271 0.79028 0.75568 0.0
H1279 H 0.66058 0.72064 0.58449 0.0
H1280 H 0.65527 0.73354 0.67042 0.0
H1281 H 0.64989 0.69475 0.61943 0.0
H1282 H 0.63508 0.70334 0.70315 0.0
H1283 H 0.63417 0.70207 0.8278 0.0
H1284 H 0.36396 0.72245 0.84999 0.0
H1285 H 0.364 0.72495 0.7258 0.0
H1286 H 0.39705 0.77573 0.74345 0.0
H1287 H 0.39681 0.77444 0.86838 0.0
H1288 H 0.3654 0.78421 0.65549 0.0
H1289 H 0.40204 0.6943 0.58745 0.0
H1290 H 0.39459 0.69678 0.66894 0.0
H1291 H 0.40486 0.72966 0.6545 0.0
C1292 C 0.37115 0.7346 0.82773 0.0
C1293 C 0.38033 0.7484 0.86948 0.0
C1294 C 0.37123 0.73571 0.75642 0.0
C1295 C 0.38058 0.75022 0.72476 0.0
C1296 C 0.38982 0.76382 0.76621 0.0
H1297 H 0.38159 0.81037 0.30693 0.0
H1298 H 0.38267 0.81021 0.43232 0.0
C1299 C 0.3897 0.76291 0.83773 0.0
C1300 C 0.38047 0.75178 0.64879 0.0
H1301 H 0.39429 0.72238 0.49762 0.0
C1302 C 0.37174 0.77075 0.62106 0.0
C1303 C 0.38868 0.73402 0.60353 0.0
C1304 C 0.39804 0.71227 0.62974 0.0
C1305 C 0.37103 0.77261 0.54976 0.0
C1306 C 0.3793 0.75513 0.50463 0.0
C1307 C 0.388 0.73599 0.5322 0.0
C1308 C 0.37879 0.75543 0.42844 0.0
C1309 C 0.36131 0.79271 0.52291 0.0
C1310 C 0.37637 0.72469 0.38428 0.0
C1311 C 0.37567 0.72482 0.3128 0.0
C1312 C 0.37761 0.75556 0.28371 0.0
C1313 C 0.38008 0.78629 0.32786 0.0
C1314 C 0.38067 0.78624 0.3995 0.0
H1315 H 0.3545 0.79936 0.56231 0.0
H1316 H 0.36471 0.81727 0.50757 0.0
H1317 H 0.35738 0.77755 0.47662 0.0
H1318 H 0.37492 0.70059 0.40524 0.0
H1319 H 0.37383 0.70066 0.28008 0.0
H1320 H 0.61428 0.22766 0.15878 0.0
H1321 H 0.61405 0.22637 0.28371 0.0
H1322 H 0.64698 0.27793 0.3015 0.0
H1323 H 0.64701 0.28044 0.17731 0.0
H1324 H 0.64569 0.21844 0.37171 0.0
H1325 H 0.60891 0.30789 0.43966 0.0
H1326 H 0.60618 0.27254 0.37244 0.0
H1327 H 0.61639 0.3056 0.35829 0.0
C1328 C 0.62136 0.23938 0.18946 0.0
C1329 C 0.63069 0.25413 0.15776 0.0
C1330 C 0.62125 0.23846 0.26097 0.0
C1331 C 0.63046 0.25228 0.30244 0.0
C1332 C 0.63977 0.26701 0.27084 0.0
H1333 H 0.63726 0.30185 0.74702 0.0
H1334 H 0.63618 0.30191 0.62185 0.0
C1335 C 0.63984 0.26814 0.19954 0.0
C1336 C 0.63057 0.25072 0.3784 0.0
H1337 H 0.61672 0.27999 0.52953 0.0
C1338 C 0.63933 0.23184 0.40614 0.0
C1339 C 0.62234 0.26839 0.42363 0.0
C1340 C 0.61296 0.29002 0.39738 0.0
C1341 C 0.64003 0.22998 0.47743 0.0
C1342 C 0.63175 0.24739 0.52254 0.0
C1343 C 0.62303 0.26644 0.49496 0.0
C1344 C 0.63227 0.2471 0.59871 0.0
C1345 C 0.64978 0.20997 0.50433 0.0
C1346 C 0.63036 0.21631 0.62766 0.0
C1347 C 0.63094 0.21626 0.69931 0.0
C1348 C 0.63344 0.24699 0.74343 0.0
C1349 C 0.63541 0.27771 0.71432 0.0
C1350 C 0.63471 0.27782 0.64284 0.0
H1351 H 0.65658 0.20327 0.46488 0.0
H1352 H 0.65372 0.22522 0.55049 0.0
H1353 H 0.64639 0.18544 0.51989 0.0
H1354 H 0.62834 0.19235 0.59486 0.0
H1355 H 0.62941 0.19221 0.72025 0.0
H1356 H 0.36375 0.2094 0.17053 0.0
H1357 H 0.36291 0.20979 0.29568 0.0
H1358 H 0.39265 0.27667 0.31916 0.0
H1359 H 0.39303 0.27796 0.19371 0.0
H1360 H 0.39206 0.20976 0.39177 0.0
H1361 H 0.3547 0.29899 0.44537 0.0
H1362 H 0.35378 0.26516 0.37292 0.0
H1363 H 0.36386 0.29997 0.37101 0.0
C1364 C 0.36986 0.22511 0.20246 0.0
C1365 C 0.37823 0.24444 0.17236 0.0
C1366 C 0.36949 0.2249 0.27402 0.0
C1367 C 0.37763 0.24357 0.31713 0.0
C1368 C 0.38623 0.2622 0.28705 0.0
H1369 H 0.3813 0.29466 0.76393 0.0
H1370 H 0.38161 0.29441 0.63859 0.0
C1371 C 0.38649 0.26275 0.21537 0.0
C1372 C 0.37727 0.24309 0.39332 0.0
H1373 H 0.36233 0.27418 0.53945 0.0
C1374 C 0.38555 0.22377 0.42405 0.0
C1375 C 0.36879 0.26142 0.4355 0.0
C1376 C 0.35977 0.28277 0.40505 0.0
C1377 C 0.38551 0.22211 0.49559 0.0
C1378 C 0.37703 0.24045 0.53796 0.0
C1379 C 0.36881 0.26002 0.50719 0.0
C1380 C 0.37678 0.24033 0.61443 0.0
C1381 C 0.39473 0.20152 0.5259 0.0
C1382 C 0.37386 0.21012 0.64309 0.0
C1383 C 0.37367 0.21022 0.71495 0.0
C1384 C 0.37646 0.2405 0.75976 0.0
C1385 C 0.37925 0.27078 0.73093 0.0
C1386 C 0.37937 0.27073 0.6592 0.0
H1387 H 0.40142 0.19188 0.48751 0.0
H1388 H 0.3989 0.21799 0.56947 0.0
H1389 H 0.39081 0.17886 0.54623 0.0
H1390 H 0.37169 0.18643 0.60982 0.0
H1391 H 0.37146 0.1865 0.73547 0.0
H1392 H 0.05227 0.27852 0.33266 0.0
H1393 H 0.03126 0.27975 0.33724 0.0
H1394 H 0.03196 0.22926 0.52047 0.0
H1395 H 0.05302 0.22797 0.51629 0.0
H1396 H 0.0165 0.22431 0.32919 0.0
H1397 H 0.0101 0.30969 0.57715 0.0
H1398 H 0.02379 0.3058 0.53325 0.0
H1399 H 0.01913 0.27271 0.5832 0.0
C1400 C 0.04797 0.26771 0.37407 0.0
C1401 C 0.05436 0.25312 0.42411 0.0
C1402 C 0.03595 0.26856 0.37674 0.0
C1403 C 0.03 0.25498 0.42963 0.0
C1404 C 0.03634 0.24064 0.48004 0.0
H1405 H 0.95671 0.22549 0.50516 0.0
H1406 H 0.97777 0.22574 0.51029 0.0
C1407 C 0.04839 0.23988 0.47754 0.0
C1408 C 0.01718 0.25442 0.42978 0.0
H1409 H 0.99345 0.28231 0.52479 0.0
C1410 C 0.01147 0.23712 0.37189 0.0
C1411 C 0.0106 0.27096 0.48564 0.0
C1412 C 0.01619 0.29112 0.54811 0.0
C1413 C 0.9994 0.23567 0.36847 0.0
C1414 C 0.99282 0.25245 0.42401 0.0
C1415 C 0.9985 0.26946 0.48226 0.0
C1416 C 0.98002 0.25309 0.42192 0.0
C1417 C 0.9938 0.21567 0.3058 0.0
C1418 C 0.97426 0.26895 0.37136 0.0
C1419 C 0.96224 0.26903 0.36847 0.0
C1420 C 0.95566 0.25335 0.41632 0.0
C1421 C 0.96146 0.23805 0.4678 0.0
C1422 C 0.97351 0.23803 0.47066 0.0
H1423 H 0.99986 0.19693 0.27692 0.0
H1424 H 0.98614 0.20119 0.32046 0.0
H1425 H 0.99095 0.23416 0.27065 0.0
H1426 H 0.97909 0.28145 0.33416 0.0
H1427 H 0.95809 0.28172 0.32906 0.0
H1428 H 0.95749 0.79145 0.54216 0.0
H1429 H 0.9785 0.79045 0.53201 0.0
H1430 H 0.98024 0.71343 0.67131 0.0
H1431 H 0.95931 0.71315 0.67945 0.0
H1432 H 0.99472 0.80666 0.63182 0.0
H1433 H 1.00038 0.6697 0.5156 0.0
H1434 H 0.98656 0.69105 0.52009 0.0
H1435 H 0.99219 0.67354 0.5939 0.0
C1436 C 0.96233 0.77382 0.56967 0.0
C1437 C 0.95665 0.75234 0.61156 0.0
C1438 C 0.97436 0.77348 0.5642 0.0
C1439 C 0.98098 0.75148 0.60004 0.0
C1440 C 0.97534 0.73009 0.64193 0.0
H1441 H 0.05238 0.71834 0.69013 0.0
H1442 H 0.03138 0.71961 0.68249 0.0
C1443 C 0.96334 0.73034 0.6473 0.0
C1444 C 0.99378 0.75179 0.59606 0.0
H1445 H 0.01725 0.69907 0.56313 0.0
C1446 C 0.99964 0.78322 0.616 0.0
C1447 C 1.00024 0.72122 0.5753 0.0
C1448 C 0.99452 0.68705 0.54934 0.0
C1449 C 0.01174 0.78462 0.61816 0.0
C1450 C 0.01816 0.75387 0.59921 0.0
C1451 C 0.01232 0.7226 0.57801 0.0
C1452 C 0.03094 0.75335 0.60311 0.0
C1453 C 0.01755 0.81877 0.64292 0.0
C1454 C 0.0377 0.77162 0.56046 0.0
C1455 C 0.04973 0.77099 0.56475 0.0
C1456 C 0.05525 0.75211 0.61192 0.0
C1457 C 0.04843 0.73359 0.65403 0.0
C1458 C 0.03642 0.73409 0.64942 0.0
H1459 H 0.01142 0.83834 0.66847 0.0
H1460 H 0.02458 0.81504 0.67962 0.0
H1461 H 0.02141 0.82937 0.59821 0.0
H1462 H 0.03366 0.78628 0.52367 0.0
H1463 H 0.05471 0.78567 0.5318 0.0
H1464 H 0.5548 0.7144 0.98791 0.0
H1465 H 0.5338 0.71478 0.99839 0.0
H1466 H 0.53169 0.79288 0.86182 0.0
H1467 H 0.55264 0.79356 0.85252 0.0
H1468 H 0.51809 0.77551 0.04015 0.0
H1469 H 0.51094 0.70923 0.77388 0.0
H1470 H 0.52452 0.70748 0.81805 0.0
H1471 H 0.52052 0.74597 0.78214 0.0
C1472 C 0.54991 0.73206 0.96081 0.0
C1473 C 0.55549 0.75378 0.91891 0.0
C1474 C 0.53789 0.73208 0.96662 0.0
C1475 C 0.53118 0.75355 0.93024 0.0
C1476 C 0.53669 0.77571 0.88951 0.0
H1477 H 0.45868 0.78212 0.85465 0.0
H1478 H 0.4797 0.78371 0.85801 0.0
C1479 C 0.54869 0.7759 0.884 0.0
C1480 C 0.51841 0.75258 0.93391 0.0
H1481 H 0.49449 0.73054 0.8366 0.0
C1482 C 0.5129 0.76553 0.99586 0.0
C1483 C 0.51168 0.73963 0.87599 0.0
C1484 C 0.51717 0.72451 0.80876 0.0
C1485 C 0.50082 0.76675 1.00089 0.0
C1486 C 0.49406 0.75385 0.94279 0.0
C1487 C 0.49962 0.74053 0.88111 0.0
C1488 C 0.48122 0.7543 0.94403 0.0
C1489 C 0.49543 0.7829 0.06768 0.0
C1490 C 0.47501 0.73731 0.99136 0.0
C1491 C 0.46295 0.73654 0.98977 0.0
C1492 C 0.45685 0.75227 0.94011 0.0
C1493 C 0.4631 0.76945 0.89314 0.0
C1494 C 0.47513 0.77044 0.89511 0.0
H1495 H 0.50156 0.80022 0.09944 0.0
H1496 H 0.48766 0.7982 0.05814 0.0
H1497 H 0.49282 0.762 0.09804 0.0
H1498 H 0.47947 0.72387 0.02849 0.0
H1499 H 0.45841 0.72265 0.026 0.0
H1500 H 0.45856 0.21182 0.17156 0.0
H1501 H 0.47947 0.21292 0.16154 0.0
H1502 H 0.47691 0.28905 0.02076 0.0
H1503 H 0.45599 0.28959 0.03341 0.0
H1504 H 0.49344 0.19676 0.05277 0.0
H1505 H 0.49977 0.33557 0.15708 0.0
H1506 H 0.4862 0.31366 0.16299 0.0
H1507 H 0.49036 0.32915 0.08393 0.0
C1508 C 0.46242 0.2293 0.13932 0.0
C1509 C 0.45551 0.25094 0.10399 0.0
C1510 C 0.47441 0.22963 0.13313 0.0
C1511 C 0.47983 0.25153 0.09139 0.0
C1512 C 0.47298 0.27252 0.05462 0.0
H1513 H 0.55278 0.28175 1.00103 0.0
H1514 H 0.53169 0.28027 0.99621 0.0
C1515 C 0.46097 0.27242 0.06117 0.0
C1516 C 0.49263 0.25191 0.08605 0.0
H1517 H 0.51625 0.30472 0.1114 0.0
C1518 C 0.49841 0.22039 0.06568 0.0
C1519 C 0.49916 0.28274 0.10287 0.0
C1520 C 0.49358 0.31714 0.12858 0.0
C1521 C 0.51048 0.21887 0.06158 0.0
C1522 C 0.51698 0.24961 0.07867 0.0
C1523 C 0.51123 0.28121 0.09801 0.0
C1524 C 0.52977 0.24929 0.07951 0.0
C1525 C 0.51621 0.18439 0.03863 0.0
C1526 C 0.53568 0.23244 0.12802 0.0
C1527 C 0.54771 0.23333 0.13104 0.0
C1528 C 0.55409 0.25105 0.08547 0.0
C1529 C 0.54814 0.26756 0.03633 0.0
C1530 C 0.53609 0.26691 0.03375 0.0
H1531 H 0.51007 0.16501 0.01243 0.0
H1532 H 0.52347 0.18755 1.0031 0.0
H1533 H 0.51972 0.17392 0.08436 0.0
H1534 H 0.53098 0.21903 0.16435 0.0
H1535 H 0.55202 0.22015 0.16917 0.0
loop_
_geom_bond_atom_site_label_1
_geom_bond_atom_site_label_2
_geom_bond_distance
_geom_bond_site_symmetry_2
_ccdc_geom_bond_type
C0 C2 1.422 . S
C0 C4 1.415 . S
C0 N6 1.369 . S
C1 C2 1.421 . S
C1 C3 1.417 . S
C1 C13 1.422 . S
C2 C0 1.422 . S
C2 C1 1.421 . S
C2 N12 1.359 . S
C3 C1 1.417 . S
C3 C5 1.329 . S
C3 H22 0.930 . S
C4 C0 1.415 . S
C4 C5 1.437 . S
C4 C8 1.413 . S
C5 C3 1.329 . S
C5 C4 1.437 . S
C5 H27 0.929 . S
N6 C0 1.369 . S
N6 C7 1.338 . S
N6 Gd11 2.622 . S
C7 N6 1.338 . S
C7 C9 1.378 . S
C7 H19 0.929 . S
C8 C4 1.413 . S
C8 C9 1.348 . S
C8 H24 0.931 . S
C9 C7 1.378 . S
C9 C8 1.348 . S
C9 H25 0.930 . S
Gd10 N30 2.622 . S
Gd10 N37 2.570 . S
Gd10 O44 2.353 . S
Gd10 O45 2.468 . S
Gd10 O46 2.427 . S
Gd10 O48 2.388 . S
Gd10 O49 2.386 . S
Gd10 O53 2.307 . S
Gd10 C63 2.805 . S
Gd11 N6 2.622 . S
Gd11 N12 2.570 . S
Gd11 O43 2.386 . S
Gd11 O47 2.307 . S
Gd11 O50 2.353 . S
Gd11 O51 2.468 . S
Gd11 O52 2.427 . S
Gd11 O54 2.388 . S
Gd11 C75 2.805 . S
N12 C2 1.359 . S
N12 Gd11 2.570 . S
N12 C14 1.343 . S
C13 C1 1.422 . S
C13 C15 1.321 . S
C13 H21 0.931 . S
C14 N12 1.343 . S
C14 C15 1.390 . S
C14 H16 0.931 . S
C15 C13 1.321 . S
C15 C14 1.390 . S
C15 H17 0.930 . S
H16 C14 0.931 . S
H17 C15 0.930 . S
H18 C41 0.931 . S
H19 C7 0.929 . S
H20 C42 0.930 . S
H21 C13 0.931 . S
H22 C3 0.930 . S
H23 C32 0.929 . S
H24 C8 0.931 . S
H25 C9 0.930 . S
H26 C64 0.930 . S
H27 C5 0.929 . S
H28 C33 0.931 . S
H29 C34 0.930 . S
N30 Gd10 2.622 . S
N30 C31 1.369 . S
N30 C32 1.338 . S
C31 N30 1.369 . S
C31 C35 1.415 . S
C31 C38 1.422 . S
C32 H23 0.929 . S
C32 N30 1.338 . S
C32 C34 1.378 . S
C33 H28 0.931 . S
C33 C34 1.348 . S
C33 C35 1.413 . S
C34 H29 0.930 . S
C34 C32 1.378 . S
C34 C33 1.348 . S
C35 C31 1.415 . S
C35 C33 1.413 . S
C35 C65 1.437 . S
H36 C65 0.929 . S
N37 Gd10 2.570 . S
N37 C38 1.359 . S
N37 C41 1.343 . S
C38 C31 1.422 . S
C38 N37 1.359 . S
C38 C40 1.421 . S
C39 C40 1.422 . S
C39 C42 1.321 . S
C39 H66 0.931 . S
C40 C38 1.421 . S
C40 C39 1.422 . S
C40 C64 1.417 . S
C41 H18 0.931 . S
C41 N37 1.343 . S
C41 C42 1.390 . S
C42 H20 0.930 . S
C42 C39 1.321 . S
C42 C41 1.390 . S
O43 Gd11 2.386 . S
O43 C55 1.265 . S
O44 Gd10 2.353 . S
O44 C55 1.242 . S
O45 Gd10 2.468 . S
O45 C63 1.263 . S
O46 Gd10 2.427 . S
O46 C63 1.252 . S
O47 Gd11 2.307 . S
O47 C56 1.261 . S
O48 Gd10 2.388 . S
O48 C56 1.252 . S
O49 Gd10 2.386 . S
O49 C67 1.265 . S
O50 Gd11 2.353 . S
O50 C67 1.242 . S
O51 Gd11 2.468 . S
O51 C75 1.263 . S
O52 Gd11 2.427 . S
O52 C75 1.252 . S
O53 Gd10 2.307 . S
O53 C68 1.261 . S
O54 Gd11 2.388 . S
O54 C68 1.252 . S
C55 O43 1.265 . S
C55 O44 1.242 . S
C56 O47 1.261 . S
C56 O48 1.252 . S
C57 C60 1.394 . S
C57 C62 1.370 . S
C57 C63 1.500 . S
C58 C61 1.383 . S
C58 C62 1.395 . S
C59 C60 1.396 . S
C59 C61 1.365 . S
C59 H76 0.929 . S
C60 C57 1.394 . S
C60 C59 1.396 . S
C60 H77 0.930 . S
C61 C58 1.383 . S
C61 C59 1.365 . S
C61 H78 0.931 . S
C62 C57 1.370 . S
C62 C58 1.395 . S
C62 H79 0.930 . S
C63 Gd10 2.805 . S
C63 O45 1.263 . S
C63 O46 1.252 . S
C63 C57 1.500 . S
C64 H26 0.930 . S
C64 C40 1.417 . S
C64 C65 1.329 . S
C65 C35 1.437 . S
C65 H36 0.929 . S
C65 C64 1.329 . S
H66 C39 0.931 . S
C67 O49 1.265 . S
C67 O50 1.242 . S
C68 O53 1.261 . S
C68 O54 1.252 . S
C69 C72 1.394 . S
C69 C74 1.370 . S
C69 C75 1.500 . S
C70 C73 1.383 . S
C70 C74 1.395 . S
C71 C72 1.396 . S
C71 C73 1.365 . S
C71 H80 0.929 . S
C72 C69 1.394 . S
C72 C71 1.396 . S
C72 H81 0.930 . S
C73 C70 1.383 . S
C73 C71 1.365 . S
C73 H82 0.931 . S
C74 C69 1.370 . S
C74 C70 1.395 . S
C74 H83 0.930 . S
C75 Gd11 2.805 . S
C75 O51 1.263 . S
C75 O52 1.252 . S
C75 C69 1.500 . S
H76 C59 0.929 . S
H77 C60 0.930 . S
H78 C61 0.931 . S
H79 C62 0.930 . S
H80 C71 0.929 . S
H81 C72 0.930 . S
H82 C73 0.931 . S
H83 C74 0.930 . S
C84 C86 1.422 . S
C84 C88 1.415 . S
C84 N90 1.369 . S
C85 C86 1.421 . S
C85 C87 1.417 . S
C85 C97 1.422 . S
C86 C84 1.422 . S
C86 C85 1.421 . S
C86 N96 1.359 . S
C87 C85 1.417 . S
C87 C89 1.329 . S
C87 H106 0.930 . S
C88 C84 1.415 . S
C88 C89 1.437 . S
C88 C92 1.413 . S
C89 C87 1.329 . S
C89 C88 1.437 . S
C89 H111 0.929 . S
N90 C84 1.369 . S
N90 C91 1.338 . S
N90 Gd95 2.622 . S
C91 N90 1.338 . S
C91 C93 1.378 . S
C91 H103 0.929 . S
C92 C88 1.413 . S
C92 C93 1.348 . S
C92 H108 0.931 . S
C93 C91 1.378 . S
C93 C92 1.348 . S
C93 H109 0.930 . S
Gd94 N114 2.622 . S
Gd94 N121 2.570 . S
Gd94 O128 2.353 . S
Gd94 O129 2.468 . S
Gd94 O130 2.427 . S
Gd94 O132 2.388 . S
Gd94 O133 2.386 . S
Gd94 O137 2.307 . S
Gd94 C147 2.805 . S
Gd95 N90 2.622 . S
Gd95 N96 2.570 . S
Gd95 O127 2.386 . S
Gd95 O131 2.307 . S
Gd95 O134 2.353 . S
Gd95 O135 2.468 . S
Gd95 O136 2.427 . S
Gd95 O138 2.388 . S
Gd95 C159 2.805 . S
N96 C86 1.359 . S
N96 Gd95 2.570 . S
N96 C98 1.343 . S
C97 C85 1.422 . S
C97 C99 1.321 . S
C97 H105 0.931 . S
C98 N96 1.343 . S
C98 C99 1.390 . S
C98 H100 0.931 . S
C99 C97 1.321 . S
C99 C98 1.390 . S
C99 H101 0.930 . S
H100 C98 0.931 . S
H101 C99 0.930 . S
H102 C125 0.931 . S
H103 C91 0.929 . S
H104 C126 0.930 . S
H105 C97 0.931 . S
H106 C87 0.930 . S
H107 C116 0.929 . S
H108 C92 0.931 . S
H109 C93 0.930 . S
H110 C148 0.930 . S
H111 C89 0.929 . S
H112 C117 0.931 . S
H113 C118 0.930 . S
N114 Gd94 2.622 . S
N114 C115 1.369 . S
N114 C116 1.338 . S
C115 N114 1.369 . S
C115 C119 1.415 . S
C115 C122 1.422 . S
C116 H107 0.929 . S
C116 N114 1.338 . S
C116 C118 1.378 . S
C117 H112 0.931 . S
C117 C118 1.348 . S
C117 C119 1.413 . S
C118 H113 0.930 . S
C118 C116 1.378 . S
C118 C117 1.348 . S
C119 C115 1.415 . S
C119 C117 1.413 . S
C119 C149 1.437 . S
H120 C149 0.929 . S
N121 Gd94 2.570 . S
N121 C122 1.359 . S
N121 C125 1.343 . S
C122 C115 1.422 . S
C122 N121 1.359 . S
C122 C124 1.421 . S
C123 C124 1.422 . S
C123 C126 1.321 . S
C123 H150 0.931 . S
C124 C122 1.421 . S
C124 C123 1.422 . S
C124 C148 1.417 . S
C125 H102 0.931 . S
C125 N121 1.343 . S
C125 C126 1.390 . S
C126 H104 0.930 . S
C126 C123 1.321 . S
C126 C125 1.390 . S
O127 Gd95 2.386 . S
O127 C139 1.265 . S
O128 Gd94 2.353 . S
O128 C139 1.242 . S
O129 Gd94 2.468 . S
O129 C147 1.263 . S
O130 Gd94 2.427 . S
O130 C147 1.252 . S
O131 Gd95 2.307 . S
O131 C140 1.261 . S
O132 Gd94 2.388 . S
O132 C140 1.252 . S
O133 Gd94 2.386 . S
O133 C151 1.265 . S
O134 Gd95 2.353 . S
O134 C151 1.242 . S
O135 Gd95 2.468 . S
O135 C159 1.263 . S
O136 Gd95 2.427 . S
O136 C159 1.252 . S
O137 Gd94 2.307 . S
O137 C152 1.261 . S
O138 Gd95 2.388 . S
O138 C152 1.252 . S
C139 O127 1.265 . S
C139 O128 1.242 . S
C140 O131 1.261 . S
C140 O132 1.252 . S
C141 C144 1.394 . S
C141 C146 1.370 . S
C141 C147 1.500 . S
C142 C145 1.383 . S
C142 C146 1.395 . S
C143 C144 1.396 . S
C143 C145 1.365 . S
C143 H160 0.929 . S
C144 C141 1.394 . S
C144 C143 1.396 . S
C144 H161 0.930 . S
C145 C142 1.383 . S
C145 C143 1.365 . S
C145 H162 0.931 . S
C146 C141 1.370 . S
C146 C142 1.395 . S
C146 H163 0.930 . S
C147 Gd94 2.805 . S
C147 O129 1.263 . S
C147 O130 1.252 . S
C147 C141 1.500 . S
C148 H110 0.930 . S
C148 C124 1.417 . S
C148 C149 1.329 . S
C149 C119 1.437 . S
C149 H120 0.929 . S
C149 C148 1.329 . S
H150 C123 0.931 . S
C151 O133 1.265 . S
C151 O134 1.242 . S
C152 O137 1.261 . S
C152 O138 1.252 . S
C153 C156 1.394 . S
C153 C158 1.370 . S
C153 C159 1.500 . S
C154 C157 1.383 . S
C154 C158 1.395 . S
C155 C156 1.396 . S
C155 C157 1.365 . S
C155 H164 0.929 . S
C156 C153 1.394 . S
C156 C155 1.396 . S
C156 H165 0.930 . S
C157 C154 1.383 . S
C157 C155 1.365 . S
C157 H166 0.931 . S
C158 C153 1.370 . S
C158 C154 1.395 . S
C158 H167 0.930 . S
C159 Gd95 2.805 . S
C159 O135 1.263 . S
C159 O136 1.252 . S
C159 C153 1.500 . S
H160 C143 0.929 . S
H161 C144 0.930 . S
H162 C145 0.931 . S
H163 C146 0.930 . S
H164 C155 0.929 . S
H165 C156 0.930 . S
H166 C157 0.931 . S
H167 C158 0.930 . S
C168 C170 1.422 . S
C168 C172 1.415 . S
C168 N174 1.369 . S
C169 C170 1.421 . S
C169 C171 1.417 . S
C169 C181 1.422 . S
C170 C168 1.422 . S
C170 C169 1.421 . S
C170 N180 1.359 . S
C171 C169 1.417 . S
C171 C173 1.329 . S
C171 H190 0.930 . S
C172 C168 1.415 . S
C172 C173 1.437 . S
C172 C176 1.413 . S
C173 C171 1.329 . S
C173 C172 1.437 . S
C173 H195 0.929 . S
N174 C168 1.369 . S
N174 C175 1.338 . S
N174 Gd179 2.622 . S
C175 N174 1.338 . S
C175 C177 1.378 . S
C175 H187 0.929 . S
C176 C172 1.413 . S
C176 C177 1.348 . S
C176 H192 0.931 . S
C177 C175 1.378 . S
C177 C176 1.348 . S
C177 H193 0.930 . S
Gd178 N198 2.622 . S
Gd178 N205 2.570 . S
Gd178 O212 2.353 . S
Gd178 O213 2.468 . S
Gd178 O214 2.427 . S
Gd178 O216 2.388 . S
Gd178 O217 2.386 . S
Gd178 O221 2.307 . S
Gd178 C231 2.805 . S
Gd179 N174 2.622 . S
Gd179 N180 2.570 . S
Gd179 O211 2.386 . S
Gd179 O215 2.307 . S
Gd179 O218 2.353 . S
Gd179 O219 2.468 . S
Gd179 O220 2.427 . S
Gd179 O222 2.388 . S
Gd179 C243 2.805 . S
N180 C170 1.359 . S
N180 Gd179 2.570 . S
N180 C182 1.343 . S
C181 C169 1.422 . S
C181 C183 1.321 . S
C181 H189 0.931 . S
C182 N180 1.343 . S
C182 C183 1.390 . S
C182 H184 0.931 . S
C183 C181 1.321 . S
C183 C182 1.390 . S
C183 H185 0.930 . S
H184 C182 0.931 . S
H185 C183 0.930 . S
H186 C209 0.931 . S
H187 C175 0.929 . S
H188 C210 0.930 . S
H189 C181 0.931 . S
H190 C171 0.930 . S
H191 C200 0.929 . S
H192 C176 0.931 . S
H193 C177 0.930 . S
H194 C232 0.930 . S
H195 C173 0.929 . S
H196 C201 0.931 . S
H197 C202 0.930 . S
N198 Gd178 2.622 . S
N198 C199 1.369 . S
N198 C200 1.338 . S
C199 N198 1.369 . S
C199 C203 1.415 . S
C199 C206 1.422 . S
C200 H191 0.929 . S
C200 N198 1.338 . S
C200 C202 1.378 . S
C201 H196 0.931 . S
C201 C202 1.348 . S
C201 C203 1.413 . S
C202 H197 0.930 . S
C202 C200 1.378 . S
C202 C201 1.348 . S
C203 C199 1.415 . S
C203 C201 1.413 . S
C203 C233 1.437 . S
H204 C233 0.929 . S
N205 Gd178 2.570 . S
N205 C206 1.359 . S
N205 C209 1.343 . S
C206 C199 1.422 . S
C206 N205 1.359 . S
C206 C208 1.421 . S
C207 C208 1.422 . S
C207 C210 1.321 . S
C207 H234 0.931 . S
C208 C206 1.421 . S
C208 C207 1.422 . S
C208 C232 1.417 . S
C209 H186 0.931 . S
C209 N205 1.343 . S
C209 C210 1.390 . S
C210 H188 0.930 . S
C210 C207 1.321 . S
C210 C209 1.390 . S
O211 Gd179 2.386 . S
O211 C223 1.265 . S
O212 Gd178 2.353 . S
O212 C223 1.242 . S
O213 Gd178 2.468 . S
O213 C231 1.263 . S
O214 Gd178 2.427 . S
O214 C231 1.252 . S
O215 Gd179 2.307 . S
O215 C224 1.261 . S
O216 Gd178 2.388 . S
O216 C224 1.252 . S
O217 Gd178 2.386 . S
O217 C235 1.265 . S
O218 Gd179 2.353 . S
O218 C235 1.242 . S
O219 Gd179 2.468 . S
O219 C243 1.263 . S
O220 Gd179 2.427 . S
O220 C243 1.252 . S
O221 Gd178 2.307 . S
O221 C236 1.261 . S
O222 Gd179 2.388 . S
O222 C236 1.252 . S
C223 O211 1.265 . S
C223 O212 1.242 . S
C224 O215 1.261 . S
C224 O216 1.252 . S
C225 C228 1.394 . S
C225 C230 1.370 . S
C225 C231 1.500 . S
C226 C229 1.383 . S
C226 C230 1.395 . S
C227 C228 1.396 . S
C227 C229 1.365 . S
C227 H244 0.929 . S
C228 C225 1.394 . S
C228 C227 1.396 . S
C228 H245 0.930 . S
C229 C226 1.383 . S
C229 C227 1.365 . S
C229 H246 0.931 . S
C230 C225 1.370 . S
C230 C226 1.395 . S
C230 H247 0.930 . S
C231 Gd178 2.805 . S
C231 O213 1.263 . S
C231 O214 1.252 . S
C231 C225 1.500 . S
C232 H194 0.930 . S
C232 C208 1.417 . S
C232 C233 1.329 . S
C233 C203 1.437 . S
C233 H204 0.929 . S
C233 C232 1.329 . S
H234 C207 0.931 . S
C235 O217 1.265 . S
C235 O218 1.242 . S
C236 O221 1.261 . S
C236 O222 1.252 . S
C237 C240 1.394 . S
C237 C242 1.370 . S
C237 C243 1.500 . S
C238 C241 1.383 . S
C238 C242 1.395 . S
C239 C240 1.396 . S
C239 C241 1.365 . S
C239 H248 0.929 . S
C240 C237 1.394 . S
C240 C239 1.396 . S
C240 H249 0.930 . S
C241 C238 1.383 . S
C241 C239 1.365 . S
C241 H250 0.931 . S
C242 C237 1.370 . S
C242 C238 1.395 . S
C242 H251 0.930 . S
C243 Gd179 2.805 . S
C243 O219 1.263 . S
C243 O220 1.252 . S
C243 C237 1.500 . S
H244 C227 0.929 . S
H245 C228 0.930 . S
H246 C229 0.931 . S
H247 C230 0.930 . S
H248 C239 0.929 . S
H249 C240 0.930 . S
H250 C241 0.931 . S
H251 C242 0.930 . S
C252 C254 1.422 . S
C252 C256 1.415 . S
C252 N258 1.369 . S
C253 C254 1.421 . S
C253 C255 1.417 . S
C253 C265 1.422 . S
C254 C252 1.422 . S
C254 C253 1.421 . S
C254 N264 1.359 . S
C255 C253 1.417 . S
C255 C257 1.329 . S
C255 H274 0.930 . S
C256 C252 1.415 . S
C256 C257 1.437 . S
C256 C260 1.413 . S
C257 C255 1.329 . S
C257 C256 1.437 . S
C257 H279 0.929 . S
N258 C252 1.369 . S
N258 C259 1.338 . S
N258 Gd263 2.622 . S
C259 N258 1.338 . S
C259 C261 1.378 . S
C259 H271 0.929 . S
C260 C256 1.413 . S
C260 C261 1.348 . S
C260 H276 0.931 . S
C261 C259 1.378 . S
C261 C260 1.348 . S
C261 H277 0.930 . S
Gd262 N282 2.622 . S
Gd262 N289 2.570 . S
Gd262 O296 2.353 . S
Gd262 O297 2.468 . S
Gd262 O298 2.427 . S
Gd262 O300 2.388 . S
Gd262 O301 2.386 . S
Gd262 O305 2.307 . S
Gd262 C315 2.805 . S
Gd263 N258 2.622 . S
Gd263 N264 2.570 . S
Gd263 O295 2.386 . S
Gd263 O299 2.307 . S
Gd263 O302 2.353 . S
Gd263 O303 2.468 . S
Gd263 O304 2.427 . S
Gd263 O306 2.388 . S
Gd263 C327 2.805 . S
N264 C254 1.359 . S
N264 Gd263 2.570 . S
N264 C266 1.343 . S
C265 C253 1.422 . S
C265 C267 1.321 . S
C265 H273 0.931 . S
C266 N264 1.343 . S
C266 C267 1.390 . S
C266 H268 0.931 . S
C267 C265 1.321 . S
C267 C266 1.390 . S
C267 H269 0.930 . S
H268 C266 0.931 . S
H269 C267 0.930 . S
H270 C293 0.931 . S
H271 C259 0.929 . S
H272 C294 0.930 . S
H273 C265 0.931 . S
H274 C255 0.930 . S
H275 C284 0.929 . S
H276 C260 0.931 . S
H277 C261 0.930 . S
H278 C316 0.930 . S
H279 C257 0.929 . S
H280 C285 0.931 . S
H281 C286 0.930 . S
N282 Gd262 2.622 . S
N282 C283 1.369 . S
N282 C284 1.338 . S
C283 N282 1.369 . S
C283 C287 1.415 . S
C283 C290 1.422 . S
C284 H275 0.929 . S
C284 N282 1.338 . S
C284 C286 1.378 . S
C285 H280 0.931 . S
C285 C286 1.348 . S
C285 C287 1.413 . S
C286 H281 0.930 . S
C286 C284 1.378 . S
C286 C285 1.348 . S
C287 C283 1.415 . S
C287 C285 1.413 . S
C287 C317 1.437 . S
H288 C317 0.929 . S
N289 Gd262 2.570 . S
N289 C290 1.359 . S
N289 C293 1.343 . S
C290 C283 1.422 . S
C290 N289 1.359 . S
C290 C292 1.421 . S
C291 C292 1.422 . S
C291 C294 1.321 . S
C291 H318 0.931 . S
C292 C290 1.421 . S
C292 C291 1.422 . S
C292 C316 1.417 . S
C293 H270 0.931 . S
C293 N289 1.343 . S
C293 C294 1.390 . S
C294 H272 0.930 . S
C294 C291 1.321 . S
C294 C293 1.390 . S
O295 Gd263 2.386 . S
O295 C307 1.265 . S
O296 Gd262 2.353 . S
O296 C307 1.242 . S
O297 Gd262 2.468 . S
O297 C315 1.263 . S
O298 Gd262 2.427 . S
O298 C315 1.252 . S
O299 Gd263 2.307 . S
O299 C308 1.261 . S
O300 Gd262 2.388 . S
O300 C308 1.252 . S
O301 Gd262 2.386 . S
O301 C319 1.265 . S
O302 Gd263 2.353 . S
O302 C319 1.242 . S
O303 Gd263 2.468 . S
O303 C327 1.263 . S
O304 Gd263 2.427 . S
O304 C327 1.252 . S
O305 Gd262 2.307 . S
O305 C320 1.261 . S
O306 Gd263 2.388 . S
O306 C320 1.252 . S
C307 O295 1.265 . S
C307 O296 1.242 . S
C308 O299 1.261 . S
C308 O300 1.252 . S
C309 C312 1.394 . S
C309 C314 1.370 . S
C309 C315 1.500 . S
C310 C313 1.383 . S
C310 C314 1.395 . S
C311 C312 1.396 . S
C311 C313 1.365 . S
C311 H328 0.929 . S
C312 C309 1.394 . S
C312 C311 1.396 . S
C312 H329 0.930 . S
C313 C310 1.383 . S
C313 C311 1.365 . S
C313 H330 0.931 . S
C314 C309 1.370 . S
C314 C310 1.395 . S
C314 H331 0.930 . S
C315 Gd262 2.805 . S
C315 O297 1.263 . S
C315 O298 1.252 . S
C315 C309 1.500 . S
C316 H278 0.930 . S
C316 C292 1.417 . S
C316 C317 1.329 . S
C317 C287 1.437 . S
C317 H288 0.929 . S
C317 C316 1.329 . S
H318 C291 0.931 . S
C319 O301 1.265 . S
C319 O302 1.242 . S
C320 O305 1.261 . S
C320 O306 1.252 . S
C321 C324 1.394 . S
C321 C326 1.370 . S
C321 C327 1.500 . S
C322 C325 1.383 . S
C322 C326 1.395 . S
C323 C324 1.396 . S
C323 C325 1.365 . S
C323 H332 0.929 . S
C324 C321 1.394 . S
C324 C323 1.396 . S
C324 H333 0.930 . S
C325 C322 1.383 . S
C325 C323 1.365 . S
C325 H334 0.931 . S
C326 C321 1.370 . S
C326 C322 1.395 . S
C326 H335 0.930 . S
C327 Gd263 2.805 . S
C327 O303 1.263 . S
C327 O304 1.252 . S
C327 C321 1.500 . S
H328 C311 0.929 . S
H329 C312 0.930 . S
H330 C313 0.931 . S
H331 C314 0.930 . S
H332 C323 0.929 . S
H333 C324 0.930 . S
H334 C325 0.931 . S
H335 C326 0.930 . S
C336 C338 1.422 . S
C336 C340 1.415 . S
C336 N342 1.369 . S
C337 C338 1.421 . S
C337 C339 1.417 . S
C337 C349 1.422 . S
C338 C336 1.422 . S
C338 C337 1.421 . S
C338 N348 1.359 . S
C339 C337 1.417 . S
C339 C341 1.329 . S
C339 H358 0.930 . S
C340 C336 1.415 . S
C340 C341 1.437 . S
C340 C344 1.413 . S
C341 C339 1.329 . S
C341 C340 1.437 . S
C341 H363 0.929 . S
N342 C336 1.369 . S
N342 C343 1.338 . S
N342 Gd347 2.622 . S
C343 N342 1.338 . S
C343 C345 1.378 . S
C343 H355 0.929 . S
C344 C340 1.413 . S
C344 C345 1.348 . S
C344 H360 0.931 . S
C345 C343 1.378 . S
C345 C344 1.348 . S
C345 H361 0.930 . S
Gd346 N366 2.622 . S
Gd346 N373 2.570 . S
Gd346 O380 2.353 1_556 S
Gd346 O381 2.468 1_556 S
Gd346 O382 2.427 1_556 S
Gd346 O384 2.388 1_556 S
Gd346 O385 2.386 . S
Gd346 O389 2.307 . S
Gd346 C399 2.805 1_556 S
Gd347 N342 2.622 . S
Gd347 N348 2.570 . S
Gd347 O379 2.386 . S
Gd347 O383 2.307 . S
Gd347 O386 2.353 1_554 S
Gd347 O387 2.468 1_554 S
Gd347 O388 2.427 1_554 S
Gd347 O390 2.388 1_554 S
Gd347 C411 2.805 1_554 S
N348 C338 1.359 . S
N348 Gd347 2.570 . S
N348 C350 1.343 . S
C349 C337 1.422 . S
C349 C351 1.321 . S
C349 H357 0.931 . S
C350 N348 1.343 . S
C350 C351 1.390 . S
C350 H352 0.931 . S
C351 C349 1.321 . S
C351 C350 1.390 . S
C351 H353 0.930 . S
H352 C350 0.931 . S
H353 C351 0.930 . S
H354 C377 0.931 . S
H355 C343 0.929 . S
H356 C378 0.930 . S
H357 C349 0.931 . S
H358 C339 0.930 . S
H359 C368 0.929 . S
H360 C344 0.931 . S
H361 C345 0.930 . S
H362 C400 0.930 . S
H363 C341 0.929 . S
H364 C369 0.931 . S
H365 C370 0.930 . S
N366 Gd346 2.622 . S
N366 C367 1.369 . S
N366 C368 1.338 . S
C367 N366 1.369 . S
C367 C371 1.415 . S
C367 C374 1.422 . S
C368 H359 0.929 . S
C368 N366 1.338 . S
C368 C370 1.378 . S
C369 H364 0.931 . S
C369 C370 1.348 . S
C369 C371 1.413 . S
C370 H365 0.930 . S
C370 C368 1.378 . S
C370 C369 1.348 . S
C371 C367 1.415 . S
C371 C369 1.413 . S
C371 C401 1.437 . S
H372 C401 0.929 . S
N373 Gd346 2.570 . S
N373 C374 1.359 . S
N373 C377 1.343 . S
C374 C367 1.422 . S
C374 N373 1.359 . S
C374 C376 1.421 . S
C375 C376 1.422 . S
C375 C378 1.321 . S
C375 H402 0.931 . S
C376 C374 1.421 . S
C376 C375 1.422 . S
C376 C400 1.417 . S
C377 H354 0.931 . S
C377 N373 1.343 . S
C377 C378 1.390 . S
C378 H356 0.930 . S
C378 C375 1.321 . S
C378 C377 1.390 . S
O379 Gd347 2.386 . S
O379 C391 1.265 . S
O380 Gd346 2.353 1_554 S
O380 C391 1.242 . S
O381 Gd346 2.468 1_554 S
O381 C399 1.263 . S
O382 Gd346 2.427 1_554 S
O382 C399 1.252 . S
O383 Gd347 2.307 . S
O383 C392 1.261 . S
O384 Gd346 2.388 1_554 S
O384 C392 1.252 . S
O385 Gd346 2.386 . S
O385 C403 1.265 . S
O386 Gd347 2.353 1_556 S
O386 C403 1.242 . S
O387 Gd347 2.468 1_556 S
O387 C411 1.263 . S
O388 Gd347 2.427 1_556 S
O388 C411 1.252 . S
O389 Gd346 2.307 . S
O389 C404 1.261 . S
O390 Gd347 2.388 1_556 S
O390 C404 1.252 . S
C391 O379 1.265 . S
C391 O380 1.242 . S
C392 O383 1.261 . S
C392 O384 1.252 . S
C393 C396 1.394 . S
C393 C398 1.370 . S
C393 C399 1.500 . S
C394 C397 1.383 . S
C394 C398 1.395 . S
C395 C396 1.396 . S
C395 C397 1.365 . S
C395 H412 0.929 . S
C396 C393 1.394 . S
C396 C395 1.396 . S
C396 H413 0.930 . S
C397 C394 1.383 . S
C397 C395 1.365 . S
C397 H414 0.931 . S
C398 C393 1.370 . S
C398 C394 1.395 . S
C398 H415 0.930 . S
C399 Gd346 2.805 1_554 S
C399 O381 1.263 . S
C399 O382 1.252 . S
C399 C393 1.500 . S
C400 H362 0.930 . S
C400 C376 1.417 . S
C400 C401 1.329 . S
C401 C371 1.437 . S
C401 H372 0.929 . S
C401 C400 1.329 . S
H402 C375 0.931 . S
C403 O385 1.265 . S
C403 O386 1.242 . S
C404 O389 1.261 . S
C404 O390 1.252 . S
C405 C408 1.394 . S
C405 C410 1.370 . S
C405 C411 1.500 . S
C406 C409 1.383 . S
C406 C410 1.395 . S
C407 C408 1.396 . S
C407 C409 1.365 . S
C407 H416 0.929 . S
C408 C405 1.394 . S
C408 C407 1.396 . S
C408 H417 0.930 . S
C409 C406 1.383 . S
C409 C407 1.365 . S
C409 H418 0.931 . S
C410 C405 1.370 . S
C410 C406 1.395 . S
C410 H419 0.930 . S
C411 Gd347 2.805 1_556 S
C411 O387 1.263 . S
C411 O388 1.252 . S
C411 C405 1.500 . S
H412 C395 0.929 . S
H413 C396 0.930 . S
H414 C397 0.931 . S
H415 C398 0.930 . S
H416 C407 0.929 . S
H417 C408 0.930 . S
H418 C409 0.931 . S
H419 C410 0.930 . S
C420 C422 1.422 . S
C420 C424 1.415 . S
C420 N426 1.369 . S
C421 C422 1.421 . S
C421 C423 1.417 . S
C421 C433 1.422 . S
C422 C420 1.422 . S
C422 C421 1.421 . S
C422 N432 1.359 . S
C423 C421 1.417 . S
C423 C425 1.329 . S
C423 H442 0.930 . S
C424 C420 1.415 . S
C424 C425 1.437 . S
C424 C428 1.413 . S
C425 C423 1.329 . S
C425 C424 1.437 . S
C425 H447 0.929 . S
N426 C420 1.369 . S
N426 C427 1.338 . S
N426 Gd431 2.622 . S
C427 N426 1.338 . S
C427 C429 1.378 . S
C427 H439 0.929 . S
C428 C424 1.413 . S
C428 C429 1.348 . S
C428 H444 0.931 . S
C429 C427 1.378 . S
C429 C428 1.348 . S
C429 H445 0.930 . S
Gd430 N450 2.622 . S
Gd430 N457 2.570 . S
Gd430 O464 2.353 1_554 S
Gd430 O465 2.468 1_554 S
Gd430 O466 2.427 1_554 S
Gd430 O468 2.388 1_554 S
Gd430 O469 2.386 . S
Gd430 O473 2.307 . S
Gd430 C483 2.805 1_554 S
Gd431 N426 2.622 . S
Gd431 N432 2.570 . S
Gd431 O463 2.386 . S
Gd431 O467 2.307 . S
Gd431 O470 2.353 1_556 S
Gd431 O471 2.468 1_556 S
Gd431 O472 2.427 1_556 S
Gd431 O474 2.388 1_556 S
Gd431 C495 2.805 1_556 S
N432 C422 1.359 . S
N432 Gd431 2.570 . S
N432 C434 1.343 . S
C433 C421 1.422 . S
C433 C435 1.321 . S
C433 H441 0.931 . S
C434 N432 1.343 . S
C434 C435 1.390 . S
C434 H436 0.931 . S
C435 C433 1.321 . S
C435 C434 1.390 . S
C435 H437 0.930 . S
H436 C434 0.931 . S
H437 C435 0.930 . S
H438 C461 0.931 . S
H439 C427 0.929 . S
H440 C462 0.930 . S
H441 C433 0.931 . S
H442 C423 0.930 . S
H443 C452 0.929 . S
H444 C428 0.931 . S
H445 C429 0.930 . S
H446 C484 0.930 . S
H447 C425 0.929 . S
H448 C453 0.931 . S
H449 C454 0.930 . S
N450 Gd430 2.622 . S
N450 C451 1.369 . S
N450 C452 1.338 . S
C451 N450 1.369 . S
C451 C455 1.415 . S
C451 C458 1.422 . S
C452 H443 0.929 . S
C452 N450 1.338 . S
C452 C454 1.378 . S
C453 H448 0.931 . S
C453 C454 1.348 . S
C453 C455 1.413 . S
C454 H449 0.930 . S
C454 C452 1.378 . S
C454 C453 1.348 . S
C455 C451 1.415 . S
C455 C453 1.413 . S
C455 C485 1.437 . S
H456 C485 0.929 . S
N457 Gd430 2.570 . S
N457 C458 1.359 . S
N457 C461 1.343 . S
C458 C451 1.422 . S
C458 N457 1.359 . S
C458 C460 1.421 . S
C459 C460 1.422 . S
C459 C462 1.321 . S
C459 H486 0.931 . S
C460 C458 1.421 . S
C460 C459 1.422 . S
C460 C484 1.417 . S
C461 H438 0.931 . S
C461 N457 1.343 . S
C461 C462 1.390 . S
C462 H440 0.930 . S
C462 C459 1.321 . S
C462 C461 1.390 . S
O463 Gd431 2.386 . S
O463 C475 1.265 . S
O464 Gd430 2.353 1_556 S
O464 C475 1.242 . S
O465 Gd430 2.468 1_556 S
O465 C483 1.263 . S
O466 Gd430 2.427 1_556 S
O466 C483 1.252 . S
O467 Gd431 2.307 . S
O467 C476 1.261 . S
O468 Gd430 2.388 1_556 S
O468 C476 1.252 . S
O469 Gd430 2.386 . S
O469 C487 1.265 . S
O470 Gd431 2.353 1_554 S
O470 C487 1.242 . S
O471 Gd431 2.468 1_554 S
O471 C495 1.263 . S
O472 Gd431 2.427 1_554 S
O472 C495 1.252 . S
O473 Gd430 2.307 . S
O473 C488 1.261 . S
O474 Gd431 2.388 1_554 S
O474 C488 1.252 . S
C475 O463 1.265 . S
C475 O464 1.242 . S
C476 O467 1.261 . S
C476 O468 1.252 . S
C477 C480 1.394 . S
C477 C482 1.370 . S
C477 C483 1.500 . S
C478 C481 1.383 . S
C478 C482 1.395 . S
C479 C480 1.396 . S
C479 C481 1.365 . S
C479 H496 0.929 . S
C480 C477 1.394 . S
C480 C479 1.396 . S
C480 H497 0.930 . S
C481 C478 1.383 . S
C481 C479 1.365 . S
C481 H498 0.931 . S
C482 C477 1.370 . S
C482 C478 1.395 . S
C482 H499 0.930 . S
C483 Gd430 2.805 1_556 S
C483 O465 1.263 . S
C483 O466 1.252 . S
C483 C477 1.500 . S
C484 H446 0.930 . S
C484 C460 1.417 . S
C484 C485 1.329 . S
C485 C455 1.437 . S
C485 H456 0.929 . S
C485 C484 1.329 . S
H486 C459 0.931 . S
C487 O469 1.265 . S
C487 O470 1.242 . S
C488 O473 1.261 . S
C488 O474 1.252 . S
C489 C492 1.394 . S
C489 C494 1.370 . S
C489 C495 1.500 . S
C490 C493 1.383 . S
C490 C494 1.395 . S
C491 C492 1.396 . S
C491 C493 1.365 . S
C491 H500 0.929 . S
C492 C489 1.394 . S
C492 C491 1.396 . S
C492 H501 0.930 . S
C493 C490 1.383 . S
C493 C491 1.365 . S
C493 H502 0.931 . S
C494 C489 1.370 . S
C494 C490 1.395 . S
C494 H503 0.930 . S
C495 Gd431 2.805 1_554 S
C495 O471 1.263 . S
C495 O472 1.252 . S
C495 C489 1.500 . S
H496 C479 0.929 . S
H497 C480 0.930 . S
H498 C481 0.931 . S
H499 C482 0.930 . S
H500 C491 0.929 . S
H501 C492 0.930 . S
H502 C493 0.931 . S
H503 C494 0.930 . S
C504 C506 1.422 . S
C504 C508 1.415 . S
C504 N510 1.369 . S
C505 C506 1.421 . S
C505 C507 1.417 . S
C505 C517 1.422 . S
C506 C504 1.422 . S
C506 C505 1.421 . S
C506 N516 1.359 . S
C507 C505 1.417 . S
C507 C509 1.329 . S
C507 H526 0.930 . S
C508 C504 1.415 . S
C508 C509 1.437 . S
C508 C512 1.413 . S
C509 C507 1.329 . S
C509 C508 1.437 . S
C509 H531 0.929 . S
N510 C504 1.369 . S
N510 C511 1.338 . S
N510 Gd515 2.622 . S
C511 N510 1.338 . S
C511 C513 1.378 . S
C511 H523 0.929 . S
C512 C508 1.413 . S
C512 C513 1.348 . S
C512 H528 0.931 . S
C513 C511 1.378 . S
C513 C512 1.348 . S
C513 H529 0.930 . S
Gd514 N534 2.622 . S
Gd514 N541 2.570 . S
Gd514 O548 2.353 1_554 S
Gd514 O549 2.468 1_554 S
Gd514 O550 2.427 1_554 S
Gd514 O552 2.388 1_554 S
Gd514 O553 2.386 . S
Gd514 O557 2.307 . S
Gd514 C567 2.805 1_554 S
Gd515 N510 2.622 . S
Gd515 N516 2.570 . S
Gd515 O547 2.386 . S
Gd515 O551 2.307 . S
Gd515 O554 2.353 1_556 S
Gd515 O555 2.468 1_556 S
Gd515 O556 2.427 1_556 S
Gd515 O558 2.388 1_556 S
Gd515 C579 2.805 1_556 S
N516 C506 1.359 . S
N516 Gd515 2.570 . S
N516 C518 1.343 . S
C517 C505 1.422 . S
C517 C519 1.321 . S
C517 H525 0.931 . S
C518 N516 1.343 . S
C518 C519 1.390 . S
C518 H520 0.931 . S
C519 C517 1.321 . S
C519 C518 1.390 . S
C519 H521 0.930 . S
H520 C518 0.931 . S
H521 C519 0.930 . S
H522 C545 0.931 . S
H523 C511 0.929 . S
H524 C546 0.930 . S
H525 C517 0.931 . S
H526 C507 0.930 . S
H527 C536 0.929 . S
H528 C512 0.931 . S
H529 C513 0.930 . S
H530 C568 0.930 . S
H531 C509 0.929 . S
H532 C537 0.931 . S
H533 C538 0.930 . S
N534 Gd514 2.622 . S
N534 C535 1.369 . S
N534 C536 1.338 . S
C535 N534 1.369 . S
C535 C539 1.415 . S
C535 C542 1.422 . S
C536 H527 0.929 . S
C536 N534 1.338 . S
C536 C538 1.378 . S
C537 H532 0.931 . S
C537 C538 1.348 . S
C537 C539 1.413 . S
C538 H533 0.930 . S
C538 C536 1.378 . S
C538 C537 1.348 . S
C539 C535 1.415 . S
C539 C537 1.413 . S
C539 C569 1.437 . S
H540 C569 0.929 . S
N541 Gd514 2.570 . S
N541 C542 1.359 . S
N541 C545 1.343 . S
C542 C535 1.422 . S
C542 N541 1.359 . S
C542 C544 1.421 . S
C543 C544 1.422 . S
C543 C546 1.321 . S
C543 H570 0.931 . S
C544 C542 1.421 . S
C544 C543 1.422 . S
C544 C568 1.417 . S
C545 H522 0.931 . S
C545 N541 1.343 . S
C545 C546 1.390 . S
C546 H524 0.930 . S
C546 C543 1.321 . S
C546 C545 1.390 . S
O547 Gd515 2.386 . S
O547 C559 1.265 . S
O548 Gd514 2.353 1_556 S
O548 C559 1.242 . S
O549 Gd514 2.468 1_556 S
O549 C567 1.263 . S
O550 Gd514 2.427 1_556 S
O550 C567 1.252 . S
O551 Gd515 2.307 . S
O551 C560 1.261 . S
O552 Gd514 2.388 1_556 S
O552 C560 1.252 . S
O553 Gd514 2.386 . S
O553 C571 1.265 . S
O554 Gd515 2.353 1_554 S
O554 C571 1.242 . S
O555 Gd515 2.468 1_554 S
O555 C579 1.263 . S
O556 Gd515 2.427 1_554 S
O556 C579 1.252 . S
O557 Gd514 2.307 . S
O557 C572 1.261 . S
O558 Gd515 2.388 1_554 S
O558 C572 1.252 . S
C559 O547 1.265 . S
C559 O548 1.242 . S
C560 O551 1.261 . S
C560 O552 1.252 . S
C561 C564 1.394 . S
C561 C566 1.370 . S
C561 C567 1.500 . S
C562 C565 1.383 . S
C562 C566 1.395 . S
C563 C564 1.396 . S
C563 C565 1.365 . S
C563 H580 0.929 . S
C564 C561 1.394 . S
C564 C563 1.396 . S
C564 H581 0.930 . S
C565 C562 1.383 . S
C565 C563 1.365 . S
C565 H582 0.931 . S
C566 C561 1.370 . S
C566 C562 1.395 . S
C566 H583 0.930 . S
C567 Gd514 2.805 1_556 S
C567 O549 1.263 . S
C567 O550 1.252 . S
C567 C561 1.500 . S
C568 H530 0.930 . S
C568 C544 1.417 . S
C568 C569 1.329 . S
C569 C539 1.437 . S
C569 H540 0.929 . S
C569 C568 1.329 . S
H570 C543 0.931 . S
C571 O553 1.265 . S
C571 O554 1.242 . S
C572 O557 1.261 . S
C572 O558 1.252 . S
C573 C576 1.394 . S
C573 C578 1.370 . S
C573 C579 1.500 . S
C574 C577 1.383 . S
C574 C578 1.395 . S
C575 C576 1.396 . S
C575 C577 1.365 . S
C575 H584 0.929 . S
C576 C573 1.394 . S
C576 C575 1.396 . S
C576 H585 0.930 . S
C577 C574 1.383 . S
C577 C575 1.365 . S
C577 H586 0.931 . S
C578 C573 1.370 . S
C578 C574 1.395 . S
C578 H587 0.930 . S
C579 Gd515 2.805 1_554 S
C579 O555 1.263 . S
C579 O556 1.252 . S
C579 C573 1.500 . S
H580 C563 0.929 . S
H581 C564 0.930 . S
H582 C565 0.931 . S
H583 C566 0.930 . S
H584 C575 0.929 . S
H585 C576 0.930 . S
H586 C577 0.931 . S
H587 C578 0.930 . S
C588 C590 1.422 . S
C588 C592 1.415 . S
C588 N594 1.369 . S
C589 C590 1.421 . S
C589 C591 1.417 . S
C589 C601 1.422 . S
C590 C588 1.422 . S
C590 C589 1.421 . S
C590 N600 1.359 . S
C591 C589 1.417 . S
C591 C593 1.329 . S
C591 H610 0.930 . S
C592 C588 1.415 . S
C592 C593 1.437 . S
C592 C596 1.413 . S
C593 C591 1.329 . S
C593 C592 1.437 . S
C593 H615 0.929 . S
N594 C588 1.369 . S
N594 C595 1.338 . S
N594 Gd599 2.622 . S
C595 N594 1.338 . S
C595 C597 1.378 . S
C595 H607 0.929 . S
C596 C592 1.413 . S
C596 C597 1.348 . S
C596 H612 0.931 . S
C597 C595 1.378 . S
C597 C596 1.348 . S
C597 H613 0.930 . S
Gd598 N618 2.622 . S
Gd598 N625 2.570 . S
Gd598 O632 2.353 1_556 S
Gd598 O633 2.468 1_556 S
Gd598 O634 2.427 1_556 S
Gd598 O636 2.388 1_556 S
Gd598 O637 2.386 . S
Gd598 O641 2.307 . S
Gd598 C651 2.805 1_556 S
Gd599 N594 2.622 . S
Gd599 N600 2.570 . S
Gd599 O631 2.386 . S
Gd599 O635 2.307 . S
Gd599 O638 2.353 1_554 S
Gd599 O639 2.468 1_554 S
Gd599 O640 2.427 1_554 S
Gd599 O642 2.388 1_554 S
Gd599 C663 2.805 1_554 S
N600 C590 1.359 . S
N600 Gd599 2.570 . S
N600 C602 1.343 . S
C601 C589 1.422 . S
C601 C603 1.321 . S
C601 H609 0.931 . S
C602 N600 1.343 . S
C602 C603 1.390 . S
C602 H604 0.931 . S
C603 C601 1.321 . S
C603 C602 1.390 . S
C603 H605 0.930 . S
H604 C602 0.931 . S
H605 C603 0.930 . S
H606 C629 0.931 . S
H607 C595 0.929 . S
H608 C630 0.930 . S
H609 C601 0.931 . S
H610 C591 0.930 . S
H611 C620 0.929 . S
H612 C596 0.931 . S
H613 C597 0.930 . S
H614 C652 0.930 . S
H615 C593 0.929 . S
H616 C621 0.931 . S
H617 C622 0.930 . S
N618 Gd598 2.622 . S
N618 C619 1.369 . S
N618 C620 1.338 . S
C619 N618 1.369 . S
C619 C623 1.415 . S
C619 C626 1.422 . S
C620 H611 0.929 . S
C620 N618 1.338 . S
C620 C622 1.378 . S
C621 H616 0.931 . S
C621 C622 1.348 . S
C621 C623 1.413 . S
C622 H617 0.930 . S
C622 C620 1.378 . S
C622 C621 1.348 . S
C623 C619 1.415 . S
C623 C621 1.413 . S
C623 C653 1.437 . S
H624 C653 0.929 . S
N625 Gd598 2.570 . S
N625 C626 1.359 . S
N625 C629 1.343 . S
C626 C619 1.422 . S
C626 N625 1.359 . S
C626 C628 1.421 . S
C627 C628 1.422 . S
C627 C630 1.321 . S
C627 H654 0.931 . S
C628 C626 1.421 . S
C628 C627 1.422 . S
C628 C652 1.417 . S
C629 H606 0.931 . S
C629 N625 1.343 . S
C629 C630 1.390 . S
C630 H608 0.930 . S
C630 C627 1.321 . S
C630 C629 1.390 . S
O631 Gd599 2.386 . S
O631 C643 1.265 . S
O632 Gd598 2.353 1_554 S
O632 C643 1.242 . S
O633 Gd598 2.468 1_554 S
O633 C651 1.263 . S
O634 Gd598 2.427 1_554 S
O634 C651 1.252 . S
O635 Gd599 2.307 . S
O635 C644 1.261 . S
O636 Gd598 2.388 1_554 S
O636 C644 1.252 . S
O637 Gd598 2.386 . S
O637 C655 1.265 . S
O638 Gd599 2.353 1_556 S
O638 C655 1.242 . S
O639 Gd599 2.468 1_556 S
O639 C663 1.263 . S
O640 Gd599 2.427 1_556 S
O640 C663 1.252 . S
O641 Gd598 2.307 . S
O641 C656 1.261 . S
O642 Gd599 2.388 1_556 S
O642 C656 1.252 . S
C643 O631 1.265 . S
C643 O632 1.242 . S
C644 O635 1.261 . S
C644 O636 1.252 . S
C645 C648 1.394 . S
C645 C650 1.370 . S
C645 C651 1.500 . S
C646 C649 1.383 . S
C646 C650 1.395 . S
C647 C648 1.396 . S
C647 C649 1.365 . S
C647 H664 0.929 . S
C648 C645 1.394 . S
C648 C647 1.396 . S
C648 H665 0.930 . S
C649 C646 1.383 . S
C649 C647 1.365 . S
C649 H666 0.931 . S
C650 C645 1.370 . S
C650 C646 1.395 . S
C650 H667 0.930 . S
C651 Gd598 2.805 1_554 S
C651 O633 1.263 . S
C651 O634 1.252 . S
C651 C645 1.500 . S
C652 H614 0.930 . S
C652 C628 1.417 . S
C652 C653 1.329 . S
C653 C623 1.437 . S
C653 H624 0.929 . S
C653 C652 1.329 . S
H654 C627 0.931 . S
C655 O637 1.265 . S
C655 O638 1.242 . S
C656 O641 1.261 . S
C656 O642 1.252 . S
C657 C660 1.394 . S
C657 C662 1.370 . S
C657 C663 1.500 . S
C658 C661 1.383 . S
C658 C662 1.395 . S
C659 C660 1.396 . S
C659 C661 1.365 . S
C659 H668 0.929 . S
C660 C657 1.394 . S
C660 C659 1.396 . S
C660 H669 0.930 . S
C661 C658 1.383 . S
C661 C659 1.365 . S
C661 H670 0.931 . S
C662 C657 1.370 . S
C662 C658 1.395 . S
C662 H671 0.930 . S
C663 Gd599 2.805 1_556 S
C663 O639 1.263 . S
C663 O640 1.252 . S
C663 C657 1.500 . S
H664 C647 0.929 . S
H665 C648 0.930 . S
H666 C649 0.931 . S
H667 C650 0.930 . S
H668 C659 0.929 . S
H669 C660 0.930 . S
H670 C661 0.931 . S
H671 C662 0.930 . S
H672 C680 0.929 . S
H673 C682 0.930 . S
H674 C684 0.930 . S
H675 C687 0.929 . S
H676 C690 0.930 . S
H677 C692 0.960 . S
H678 C692 0.960 . S
H679 C692 0.960 . S
C680 H672 0.929 . S
C680 C681 1.377 . S
C680 C682 1.384 . S
C681 C680 1.377 . S
C681 C687 1.390 . S
C682 H673 0.930 . S
C682 C680 1.384 . S
C682 C683 1.372 . S
C683 C682 1.372 . S
C683 C684 1.400 . S
C683 C688 1.490 . S
C684 H674 0.930 . S
C684 C683 1.400 . S
C684 C687 1.386 . S
H685 C701 0.930 . S
H686 C702 0.931 . S
C687 H675 0.929 . S
C687 C681 1.390 . S
C687 C684 1.386 . S
C688 C683 1.490 . S
C688 C690 1.395 . S
C688 C691 1.403 . S
H689 C695 0.930 . S
C690 H676 0.930 . S
C690 C688 1.395 . S
C690 C693 1.403 . S
C691 C688 1.403 . S
C691 C692 1.524 . S
C691 C695 1.400 . S
C692 H677 0.960 . S
C692 H678 0.960 . S
C692 H679 0.960 . S
C692 C691 1.524 . S
C693 C690 1.403 . S
C693 C694 1.392 . S
C693 C697 1.495 . S
C694 C693 1.392 . S
C694 C695 1.385 . S
C694 C696 1.478 . S
C695 H689 0.930 . S
C695 C691 1.400 . S
C695 C694 1.385 . S
C696 C694 1.478 . S
C696 C698 1.381 . S
C696 C702 1.383 . S
C697 C693 1.495 . S
C697 H703 0.959 . S
C697 H704 0.961 . S
C697 H705 0.960 . S
C698 C696 1.381 . S
C698 C699 1.394 . S
C698 H706 0.930 . S
C699 C698 1.394 . S
C699 C700 1.383 . S
C699 H707 0.929 . S
C700 C699 1.383 . S
C700 C701 1.377 . S
C701 H685 0.930 . S
C701 C700 1.377 . S
C701 C702 1.379 . S
C702 H686 0.931 . S
C702 C696 1.383 . S
C702 C701 1.379 . S
H703 C697 0.959 . S
H704 C697 0.961 . S
H705 C697 0.960 . S
H706 C698 0.930 . S
H707 C699 0.929 . S
H708 C716 0.929 . S
H709 C718 0.930 . S
H710 C720 0.930 . S
H711 C723 0.929 . S
H712 C726 0.930 . S
H713 C728 0.960 . S
H714 C728 0.960 . S
H715 C728 0.960 . S
C716 H708 0.929 . S
C716 C717 1.377 . S
C716 C718 1.384 . S
C717 C716 1.377 . S
C717 C723 1.390 . S
C718 H709 0.930 . S
C718 C716 1.384 . S
C718 C719 1.372 . S
C719 C718 1.372 . S
C719 C720 1.400 . S
C719 C724 1.490 . S
C720 H710 0.930 . S
C720 C719 1.400 . S
C720 C723 1.386 . S
H721 C737 0.930 . S
H722 C738 0.931 . S
C723 H711 0.929 . S
C723 C717 1.390 . S
C723 C720 1.386 . S
C724 C719 1.490 . S
C724 C726 1.395 . S
C724 C727 1.403 . S
H725 C731 0.930 . S
C726 H712 0.930 . S
C726 C724 1.395 . S
C726 C729 1.403 . S
C727 C724 1.403 . S
C727 C728 1.524 . S
C727 C731 1.400 . S
C728 H713 0.960 . S
C728 H714 0.960 . S
C728 H715 0.960 . S
C728 C727 1.524 . S
C729 C726 1.403 . S
C729 C730 1.392 . S
C729 C733 1.495 . S
C730 C729 1.392 . S
C730 C731 1.385 . S
C730 C732 1.478 . S
C731 H725 0.930 . S
C731 C727 1.400 . S
C731 C730 1.385 . S
C732 C730 1.478 . S
C732 C734 1.381 . S
C732 C738 1.383 . S
C733 C729 1.495 . S
C733 H739 0.959 . S
C733 H740 0.961 . S
C733 H741 0.960 . S
C734 C732 1.381 . S
C734 C735 1.394 . S
C734 H742 0.930 . S
C735 C734 1.394 . S
C735 C736 1.383 . S
C735 H743 0.929 . S
C736 C735 1.383 . S
C736 C737 1.377 . S
C737 H721 0.930 . S
C737 C736 1.377 . S
C737 C738 1.379 . S
C738 H722 0.931 . S
C738 C732 1.383 . S
C738 C737 1.379 . S
H739 C733 0.959 . S
H740 C733 0.961 . S
H741 C733 0.960 . S
H742 C734 0.930 . S
H743 C735 0.929 . S
H744 C752 0.929 . S
H745 C754 0.930 . S
H746 C756 0.930 . S
H747 C759 0.929 . S
H748 C762 0.930 . S
H749 C764 0.960 . S
H750 C764 0.960 . S
H751 C764 0.960 . S
C752 H744 0.929 . S
C752 C753 1.377 . S
C752 C754 1.384 . S
C753 C752 1.377 . S
C753 C759 1.390 . S
C754 H745 0.930 . S
C754 C752 1.384 . S
C754 C755 1.372 . S
C755 C754 1.372 . S
C755 C756 1.400 . S
C755 C760 1.490 . S
C756 H746 0.930 . S
C756 C755 1.400 . S
C756 C759 1.386 . S
H757 C773 0.930 . S
H758 C774 0.931 . S
C759 H747 0.929 . S
C759 C753 1.390 . S
C759 C756 1.386 . S
C760 C755 1.490 . S
C760 C762 1.395 . S
C760 C763 1.403 . S
H761 C767 0.930 . S
C762 H748 0.930 . S
C762 C760 1.395 . S
C762 C765 1.403 . S
C763 C760 1.403 . S
C763 C764 1.524 . S
C763 C767 1.400 . S
C764 H749 0.960 . S
C764 H750 0.960 . S
C764 H751 0.960 . S
C764 C763 1.524 . S
C765 C762 1.403 . S
C765 C766 1.392 . S
C765 C769 1.495 . S
C766 C765 1.392 . S
C766 C767 1.385 . S
C766 C768 1.478 . S
C767 H761 0.930 . S
C767 C763 1.400 . S
C767 C766 1.385 . S
C768 C766 1.478 . S
C768 C770 1.381 . S
C768 C774 1.383 . S
C769 C765 1.495 . S
C769 H775 0.959 . S
C769 H776 0.961 . S
C769 H777 0.960 . S
C770 C768 1.381 . S
C770 C771 1.394 . S
C770 H778 0.930 . S
C771 C770 1.394 . S
C771 C772 1.383 . S
C771 H779 0.929 . S
C772 C771 1.383 . S
C772 C773 1.377 . S
C773 H757 0.930 . S
C773 C772 1.377 . S
C773 C774 1.379 . S
C774 H758 0.931 . S
C774 C768 1.383 . S
C774 C773 1.379 . S
H775 C769 0.959 . S
H776 C769 0.961 . S
H777 C769 0.960 . S
H778 C770 0.930 . S
H779 C771 0.929 . S
H780 C788 0.929 . S
H781 C790 0.930 . S
H782 C792 0.930 . S
H783 C795 0.929 . S
H784 C798 0.930 . S
H785 C800 0.960 . S
H786 C800 0.960 . S
H787 C800 0.960 . S
C788 H780 0.929 . S
C788 C789 1.377 . S
C788 C790 1.384 . S
C789 C788 1.377 . S
C789 C795 1.390 . S
C790 H781 0.930 . S
C790 C788 1.384 . S
C790 C791 1.372 . S
C791 C790 1.372 . S
C791 C792 1.400 . S
C791 C796 1.490 . S
C792 H782 0.930 . S
C792 C791 1.400 . S
C792 C795 1.386 . S
H793 C809 0.930 . S
H794 C810 0.931 . S
C795 H783 0.929 . S
C795 C789 1.390 . S
C795 C792 1.386 . S
C796 C791 1.490 . S
C796 C798 1.395 . S
C796 C799 1.403 . S
H797 C803 0.930 . S
C798 H784 0.930 . S
C798 C796 1.395 . S
C798 C801 1.403 . S
C799 C796 1.403 . S
C799 C800 1.524 . S
C799 C803 1.400 . S
C800 H785 0.960 . S
C800 H786 0.960 . S
C800 H787 0.960 . S
C800 C799 1.524 . S
C801 C798 1.403 . S
C801 C802 1.392 . S
C801 C805 1.495 . S
C802 C801 1.392 . S
C802 C803 1.385 . S
C802 C804 1.478 . S
C803 H797 0.930 . S
C803 C799 1.400 . S
C803 C802 1.385 . S
C804 C802 1.478 . S
C804 C806 1.381 . S
C804 C810 1.383 . S
C805 C801 1.495 . S
C805 H811 0.959 . S
C805 H812 0.961 . S
C805 H813 0.960 . S
C806 C804 1.381 . S
C806 C807 1.394 . S
C806 H814 0.930 . S
C807 C806 1.394 . S
C807 C808 1.383 . S
C807 H815 0.929 . S
C808 C807 1.383 . S
C808 C809 1.377 . S
C809 H793 0.930 . S
C809 C808 1.377 . S
C809 C810 1.379 . S
C810 H794 0.931 . S
C810 C804 1.383 . S
C810 C809 1.379 . S
H811 C805 0.959 . S
H812 C805 0.961 . S
H813 C805 0.960 . S
H814 C806 0.930 . S
H815 C807 0.929 . S
H816 C824 0.929 . S
H817 C826 0.930 . S
H818 C828 0.930 . S
H819 C831 0.929 . S
H820 C834 0.930 . S
H821 C836 0.960 . S
H822 C836 0.960 . S
H823 C836 0.960 . S
C824 H816 0.929 . S
C824 C825 1.377 . S
C824 C826 1.384 . S
C825 C824 1.377 . S
C825 C831 1.390 . S
C826 H817 0.930 . S
C826 C824 1.384 . S
C826 C827 1.372 . S
C827 C826 1.372 . S
C827 C828 1.400 . S
C827 C832 1.490 . S
C828 H818 0.930 . S
C828 C827 1.400 . S
C828 C831 1.386 . S
H829 C845 0.930 . S
H830 C846 0.931 . S
C831 H819 0.929 . S
C831 C825 1.390 . S
C831 C828 1.386 . S
C832 C827 1.490 . S
C832 C834 1.395 . S
C832 C835 1.403 . S
H833 C839 0.930 . S
C834 H820 0.930 . S
C834 C832 1.395 . S
C834 C837 1.403 1_565 S
C835 C832 1.403 . S
C835 C836 1.524 . S
C835 C839 1.400 1_565 S
C836 H821 0.960 . S
C836 H822 0.960 . S
C836 H823 0.960 . S
C836 C835 1.524 . S
C837 C834 1.403 1_545 S
C837 C838 1.392 . S
C837 C841 1.495 . S
C838 C837 1.392 . S
C838 C839 1.385 . S
C838 C840 1.478 . S
C839 H833 0.930 . S
C839 C835 1.400 1_545 S
C839 C838 1.385 . S
C840 C838 1.478 . S
C840 C842 1.381 . S
C840 C846 1.383 . S
C841 C837 1.495 . S
C841 H847 0.959 . S
C841 H848 0.961 . S
C841 H849 0.960 . S
C842 C840 1.381 . S
C842 C843 1.394 . S
C842 H850 0.930 . S
C843 C842 1.394 . S
C843 C844 1.383 . S
C843 H851 0.929 . S
C844 C843 1.383 . S
C844 C845 1.377 . S
C845 H829 0.930 . S
C845 C844 1.377 . S
C845 C846 1.379 . S
C846 H830 0.931 . S
C846 C840 1.383 . S
C846 C845 1.379 . S
H847 C841 0.959 . S
H848 C841 0.961 . S
H849 C841 0.960 . S
H850 C842 0.930 . S
H851 C843 0.929 . S
H852 C860 0.929 . S
H853 C862 0.930 . S
H854 C864 0.930 . S
H855 C867 0.929 . S
H856 C870 0.930 . S
H857 C872 0.960 . S
H858 C872 0.960 . S
H859 C872 0.960 . S
C860 H852 0.929 . S
C860 C861 1.377 . S
C860 C862 1.384 . S
C861 C860 1.377 . S
C861 C867 1.390 . S
C862 H853 0.930 . S
C862 C860 1.384 . S
C862 C863 1.372 . S
C863 C862 1.372 . S
C863 C864 1.400 . S
C863 C868 1.490 . S
C864 H854 0.930 . S
C864 C863 1.400 . S
C864 C867 1.386 . S
H865 C881 0.930 . S
H866 C882 0.931 . S
C867 H855 0.929 . S
C867 C861 1.390 . S
C867 C864 1.386 . S
C868 C863 1.490 . S
C868 C870 1.395 . S
C868 C871 1.403 . S
H869 C875 0.930 . S
C870 H856 0.930 . S
C870 C868 1.395 . S
C870 C873 1.403 . S
C871 C868 1.403 . S
C871 C872 1.524 . S
C871 C875 1.400 . S
C872 H857 0.960 . S
C872 H858 0.960 . S
C872 H859 0.960 . S
C872 C871 1.524 . S
C873 C870 1.403 . S
C873 C874 1.392 . S
C873 C877 1.495 . S
C874 C873 1.392 . S
C874 C875 1.385 . S
C874 C876 1.478 . S
C875 H869 0.930 . S
C875 C871 1.400 . S
C875 C874 1.385 . S
C876 C874 1.478 . S
C876 C878 1.381 . S
C876 C882 1.383 . S
C877 C873 1.495 . S
C877 H883 0.959 . S
C877 H884 0.961 . S
C877 H885 0.960 . S
C878 C876 1.381 . S
C878 C879 1.394 . S
C878 H886 0.930 . S
C879 C878 1.394 . S
C879 C880 1.383 . S
C879 H887 0.929 . S
C880 C879 1.383 . S
C880 C881 1.377 . S
C881 H865 0.930 . S
C881 C880 1.377 . S
C881 C882 1.379 . S
C882 H866 0.931 . S
C882 C876 1.383 . S
C882 C881 1.379 . S
H883 C877 0.959 . S
H884 C877 0.961 . S
H885 C877 0.960 . S
H886 C878 0.930 . S
H887 C879 0.929 . S
H888 C896 0.929 . S
H889 C898 0.930 . S
H890 C900 0.930 . S
H891 C903 0.929 . S
H892 C906 0.930 . S
H893 C908 0.960 . S
H894 C908 0.960 . S
H895 C908 0.960 . S
C896 H888 0.929 . S
C896 C897 1.377 . S
C896 C898 1.384 . S
C897 C896 1.377 . S
C897 C903 1.390 . S
C898 H889 0.930 . S
C898 C896 1.384 . S
C898 C899 1.372 . S
C899 C898 1.372 . S
C899 C900 1.400 . S
C899 C904 1.490 . S
C900 H890 0.930 . S
C900 C899 1.400 . S
C900 C903 1.386 . S
H901 C917 0.930 . S
H902 C918 0.931 . S
C903 H891 0.929 . S
C903 C897 1.390 . S
C903 C900 1.386 . S
C904 C899 1.490 . S
C904 C906 1.395 . S
C904 C907 1.403 . S
H905 C911 0.930 . S
C906 H892 0.930 . S
C906 C904 1.395 . S
C906 C909 1.403 1_565 S
C907 C904 1.403 . S
C907 C908 1.524 . S
C907 C911 1.400 1_565 S
C908 H893 0.960 . S
C908 H894 0.960 . S
C908 H895 0.960 . S
C908 C907 1.524 . S
C909 C906 1.403 1_545 S
C909 C910 1.392 . S
C909 C913 1.495 . S
C910 C909 1.392 . S
C910 C911 1.385 . S
C910 C912 1.478 . S
C911 H905 0.930 . S
C911 C907 1.400 1_545 S
C911 C910 1.385 . S
C912 C910 1.478 . S
C912 C914 1.381 . S
C912 C918 1.383 . S
C913 C909 1.495 . S
C913 H919 0.959 . S
C913 H920 0.961 . S
C913 H921 0.960 . S
C914 C912 1.381 . S
C914 C915 1.394 . S
C914 H922 0.930 . S
C915 C914 1.394 . S
C915 C916 1.383 . S
C915 H923 0.929 . S
C916 C915 1.383 . S
C916 C917 1.377 . S
C917 H901 0.930 . S
C917 C916 1.377 . S
C917 C918 1.379 . S
C918 H902 0.931 . S
C918 C912 1.383 . S
C918 C917 1.379 . S
H919 C913 0.959 . S
H920 C913 0.961 . S
H921 C913 0.960 . S
H922 C914 0.930 . S
H923 C915 0.929 . S
H924 C932 0.929 . S
H925 C934 0.930 . S
H926 C936 0.930 . S
H927 C939 0.929 . S
H928 C942 0.930 . S
H929 C944 0.960 . S
H930 C944 0.960 . S
H931 C944 0.960 . S
C932 H924 0.929 . S
C932 C933 1.377 . S
C932 C934 1.384 . S
C933 C932 1.377 . S
C933 C939 1.390 . S
C934 H925 0.930 . S
C934 C932 1.384 . S
C934 C935 1.372 . S
C935 C934 1.372 . S
C935 C936 1.400 . S
C935 C940 1.490 . S
C936 H926 0.930 . S
C936 C935 1.400 . S
C936 C939 1.386 . S
H937 C953 0.930 . S
H938 C954 0.931 . S
C939 H927 0.929 . S
C939 C933 1.390 . S
C939 C936 1.386 . S
C940 C935 1.490 . S
C940 C942 1.395 . S
C940 C943 1.403 . S
H941 C947 0.930 . S
C942 H928 0.930 . S
C942 C940 1.395 . S
C942 C945 1.403 . S
C943 C940 1.403 . S
C943 C944 1.524 . S
C943 C947 1.400 . S
C944 H929 0.960 . S
C944 H930 0.960 . S
C944 H931 0.960 . S
C944 C943 1.524 . S
C945 C942 1.403 . S
C945 C946 1.392 . S
C945 C949 1.495 . S
C946 C945 1.392 . S
C946 C947 1.385 . S
C946 C948 1.478 . S
C947 H941 0.930 . S
C947 C943 1.400 . S
C947 C946 1.385 . S
C948 C946 1.478 . S
C948 C950 1.381 . S
C948 C954 1.383 . S
C949 C945 1.495 . S
C949 H955 0.959 . S
C949 H956 0.961 . S
C949 H957 0.960 . S
C950 C948 1.381 . S
C950 C951 1.394 . S
C950 H958 0.930 . S
C951 C950 1.394 . S
C951 C952 1.383 . S
C951 H959 0.929 . S
C952 C951 1.383 . S
C952 C953 1.377 . S
C953 H937 0.930 . S
C953 C952 1.377 . S
C953 C954 1.379 . S
C954 H938 0.931 . S
C954 C948 1.383 . S
C954 C953 1.379 . S
H955 C949 0.959 . S
H956 C949 0.961 . S
H957 C949 0.960 . S
H958 C950 0.930 . S
H959 C951 0.929 . S
H960 C968 0.929 . S
H961 C970 0.930 . S
H962 C972 0.930 . S
H963 C975 0.929 . S
H964 C978 0.930 . S
H965 C980 0.960 . S
H966 C980 0.960 . S
H967 C980 0.960 . S
C968 H960 0.929 . S
C968 C969 1.377 . S
C968 C970 1.384 . S
C969 C968 1.377 . S
C969 C975 1.390 1_556 S
C970 H961 0.930 . S
C970 C968 1.384 . S
C970 C971 1.372 . S
C971 C970 1.372 . S
C971 C972 1.400 1_556 S
C971 C976 1.490 . S
C972 H962 0.930 . S
C972 C971 1.400 1_554 S
C972 C975 1.386 . S
H973 C989 0.930 . S
H974 C990 0.931 . S
C975 H963 0.929 . S
C975 C969 1.390 1_554 S
C975 C972 1.386 . S
C976 C971 1.490 . S
C976 C978 1.395 1_556 S
C976 C979 1.403 . S
H977 C983 0.930 . S
C978 H964 0.930 . S
C978 C976 1.395 1_554 S
C978 C981 1.403 . S
C979 C976 1.403 . S
C979 C980 1.524 . S
C979 C983 1.400 . S
C980 H965 0.960 . S
C980 H966 0.960 . S
C980 H967 0.960 . S
C980 C979 1.524 . S
C981 C978 1.403 . S
C981 C982 1.392 . S
C981 C985 1.495 . S
C982 C981 1.392 . S
C982 C983 1.385 1_554 S
C982 C984 1.478 . S
C983 H977 0.930 . S
C983 C979 1.400 . S
C983 C982 1.385 1_556 S
C984 C982 1.478 . S
C984 C986 1.381 1_554 S
C984 C990 1.383 . S
C985 C981 1.495 . S
C985 H991 0.959 . S
C985 H992 0.961 . S
C985 H993 0.958 . S
C986 C984 1.381 1_556 S
C986 C987 1.394 . S
C986 H994 0.930 . S
C987 C986 1.394 . S
C987 C988 1.383 1_556 S
C987 H995 0.929 . S
C988 C987 1.383 1_554 S
C988 C989 1.377 . S
C989 H973 0.930 . S
C989 C988 1.377 . S
C989 C990 1.379 . S
C990 H974 0.931 . S
C990 C984 1.383 . S
C990 C989 1.379 . S
H991 C985 0.959 . S
H992 C985 0.961 . S
H993 C985 0.958 . S
H994 C986 0.930 . S
H995 C987 0.929 . S
H996 C1004 0.929 . S
H997 C1006 0.930 . S
H998 C1008 0.930 . S
H999 C1011 0.929 . S
H1000 C1014 0.930 . S
H1001 C1016 0.960 . S
H1002 C1016 0.960 . S
H1003 C1016 0.960 . S
C1004 H996 0.929 . S
C1004 C1005 1.377 . S
C1004 C1006 1.384 . S
C1005 C1004 1.377 . S
C1005 C1011 1.390 1_554 S
C1006 H997 0.930 . S
C1006 C1004 1.384 . S
C1006 C1007 1.372 . S
C1007 C1006 1.372 . S
C1007 C1008 1.400 1_554 S
C1007 C1012 1.490 . S
C1008 H998 0.930 . S
C1008 C1007 1.400 1_556 S
C1008 C1011 1.386 . S
H1009 C1025 0.930 . S
H1010 C1026 0.931 . S
C1011 H999 0.929 . S
C1011 C1005 1.390 1_556 S
C1011 C1008 1.386 . S
C1012 C1007 1.490 . S
C1012 C1014 1.395 1_554 S
C1012 C1015 1.403 . S
H1013 C1019 0.930 . S
C1014 H1000 0.930 . S
C1014 C1012 1.395 1_556 S
C1014 C1017 1.403 1_565 S
C1015 C1012 1.403 . S
C1015 C1016 1.524 . S
C1015 C1019 1.400 1_565 S
C1016 H1001 0.960 . S
C1016 H1002 0.960 . S
C1016 H1003 0.960 . S
C1016 C1015 1.524 . S
C1017 C1014 1.403 1_545 S
C1017 C1018 1.392 . S
C1017 C1021 1.495 . S
C1018 C1017 1.392 . S
C1018 C1019 1.385 1_556 S
C1018 C1020 1.478 . S
C1019 H1013 0.930 . S
C1019 C1015 1.400 1_545 S
C1019 C1018 1.385 1_554 S
C1020 C1018 1.478 . S
C1020 C1022 1.381 1_556 S
C1020 C1026 1.383 . S
C1021 C1017 1.495 . S
C1021 H1027 0.959 . S
C1021 H1028 0.961 . S
C1021 H1029 0.960 . S
C1022 C1020 1.381 1_554 S
C1022 C1023 1.394 . S
C1022 H1030 0.930 . S
C1023 C1022 1.394 . S
C1023 C1024 1.383 1_554 S
C1023 H1031 0.929 . S
C1024 C1023 1.383 1_556 S
C1024 C1025 1.377 . S
C1025 H1009 0.930 . S
C1025 C1024 1.377 . S
C1025 C1026 1.379 . S
C1026 H1010 0.931 . S
C1026 C1020 1.383 . S
C1026 C1025 1.379 . S
H1027 C1021 0.959 . S
H1028 C1021 0.961 . S
H1029 C1021 0.960 . S
H1030 C1022 0.930 . S
H1031 C1023 0.929 . S
H1032 C1040 0.929 . S
H1033 C1042 0.930 . S
H1034 C1044 0.930 . S
H1035 C1047 0.929 . S
H1036 C1050 0.930 . S
H1037 C1052 0.960 . S
H1038 C1052 0.960 . S
H1039 C1052 0.960 . S
C1040 H1032 0.929 . S
C1040 C1041 1.377 1_556 S
C1040 C1042 1.384 . S
C1041 C1040 1.377 1_554 S
C1041 C1047 1.390 . S
C1042 H1033 0.930 . S
C1042 C1040 1.384 . S
C1042 C1043 1.372 1_556 S
C1043 C1042 1.372 1_554 S
C1043 C1044 1.400 . S
C1043 C1048 1.490 1_554 S
C1044 H1034 0.930 . S
C1044 C1043 1.400 . S
C1044 C1047 1.386 . S
H1045 C1061 0.930 . S
H1046 C1062 0.931 . S
C1047 H1035 0.929 . S
C1047 C1041 1.390 . S
C1047 C1044 1.386 . S
C1048 C1043 1.490 1_556 S
C1048 C1050 1.395 . S
C1048 C1051 1.403 1_556 S
H1049 C1055 0.930 . S
C1050 H1036 0.930 . S
C1050 C1048 1.395 . S
C1050 C1053 1.403 . S
C1051 C1048 1.403 1_554 S
C1051 C1052 1.524 . S
C1051 C1055 1.400 . S
C1052 H1037 0.960 . S
C1052 H1038 0.960 . S
C1052 H1039 0.960 . S
C1052 C1051 1.524 . S
C1053 C1050 1.403 . S
C1053 C1054 1.392 . S
C1053 C1057 1.495 . S
C1054 C1053 1.392 . S
C1054 C1055 1.385 1_556 S
C1054 C1056 1.478 . S
C1055 H1049 0.930 . S
C1055 C1051 1.400 . S
C1055 C1054 1.385 1_554 S
C1056 C1054 1.478 . S
C1056 C1058 1.381 . S
C1056 C1062 1.383 1_556 S
C1057 C1053 1.495 . S
C1057 H1063 0.959 . S
C1057 H1064 0.961 . S
C1057 H1065 0.960 . S
C1058 C1056 1.381 . S
C1058 C1059 1.394 . S
C1058 H1066 0.930 . S
C1059 C1058 1.394 . S
C1059 C1060 1.383 . S
C1059 H1067 0.929 . S
C1060 C1059 1.383 . S
C1060 C1061 1.377 1_556 S
C1061 H1045 0.930 . S
C1061 C1060 1.377 1_554 S
C1061 C1062 1.379 . S
C1062 H1046 0.931 . S
C1062 C1056 1.383 1_554 S
C1062 C1061 1.379 . S
H1063 C1057 0.959 . S
H1064 C1057 0.961 . S
H1065 C1057 0.960 . S
H1066 C1058 0.930 . S
H1067 C1059 0.929 . S
H1068 C1076 0.929 . S
H1069 C1078 0.930 . S
H1070 C1080 0.930 . S
H1071 C1083 0.929 . S
H1072 C1086 0.930 . S
H1073 C1088 0.960 . S
H1074 C1088 0.960 . S
H1075 C1088 0.960 . S
C1076 H1068 0.929 . S
C1076 C1077 1.377 . S
C1076 C1078 1.384 . S
C1077 C1076 1.377 . S
C1077 C1083 1.390 1_556 S
C1078 H1069 0.930 . S
C1078 C1076 1.384 . S
C1078 C1079 1.372 . S
C1079 C1078 1.372 . S
C1079 C1080 1.400 1_556 S
C1079 C1084 1.490 . S
C1080 H1070 0.930 . S
C1080 C1079 1.400 1_554 S
C1080 C1083 1.386 . S
H1081 C1097 0.930 . S
H1082 C1098 0.931 . S
C1083 H1071 0.929 . S
C1083 C1077 1.390 1_554 S
C1083 C1080 1.386 . S
C1084 C1079 1.490 . S
C1084 C1086 1.395 . S
C1084 C1087 1.403 1_556 S
H1085 C1091 0.930 . S
C1086 H1072 0.930 . S
C1086 C1084 1.395 . S
C1086 C1089 1.403 1_545 S
C1087 C1084 1.403 1_554 S
C1087 C1088 1.524 . S
C1087 C1091 1.400 1_545 S
C1088 H1073 0.960 . S
C1088 H1074 0.960 . S
C1088 H1075 0.960 . S
C1088 C1087 1.524 . S
C1089 C1086 1.403 1_565 S
C1089 C1090 1.392 . S
C1089 C1093 1.495 . S
C1090 C1089 1.392 . S
C1090 C1091 1.385 1_556 S
C1090 C1092 1.478 . S
C1091 H1085 0.930 . S
C1091 C1087 1.400 1_565 S
C1091 C1090 1.385 1_554 S
C1092 C1090 1.478 . S
C1092 C1094 1.381 . S
C1092 C1098 1.383 1_556 S
C1093 C1089 1.495 . S
C1093 H1099 0.959 . S
C1093 H1100 0.961 . S
C1093 H1101 0.960 . S
C1094 C1092 1.381 . S
C1094 C1095 1.394 . S
C1094 H1102 0.930 . S
C1095 C1094 1.394 . S
C1095 C1096 1.383 1_556 S
C1095 H1103 0.929 . S
C1096 C1095 1.383 1_554 S
C1096 C1097 1.377 . S
C1097 H1081 0.930 . S
C1097 C1096 1.377 . S
C1097 C1098 1.379 . S
C1098 H1082 0.931 . S
C1098 C1092 1.383 1_554 S
C1098 C1097 1.379 . S
H1099 C1093 0.959 . S
H1100 C1093 0.961 . S
H1101 C1093 0.960 . S
H1102 C1094 0.930 . S
H1103 C1095 0.929 . S
H1104 C1112 0.929 . S
H1105 C1114 0.930 . S
H1106 C1116 0.930 . S
H1107 C1119 0.929 . S
H1108 C1122 0.930 . S
H1109 C1124 0.960 . S
H1110 C1124 0.960 . S
H1111 C1124 0.960 . S
C1112 H1104 0.929 . S
C1112 C1113 1.377 . S
C1112 C1114 1.384 . S
C1113 C1112 1.377 . S
C1113 C1119 1.390 . S
C1114 H1105 0.930 . S
C1114 C1112 1.384 . S
C1114 C1115 1.372 . S
C1115 C1114 1.372 . S
C1115 C1116 1.400 . S
C1115 C1120 1.490 . S
C1116 H1106 0.930 . S
C1116 C1115 1.400 . S
C1116 C1119 1.386 . S
H1117 C1133 0.930 . S
H1118 C1134 0.931 . S
C1119 H1107 0.929 . S
C1119 C1113 1.390 . S
C1119 C1116 1.386 . S
C1120 C1115 1.490 . S
C1120 C1122 1.395 . S
C1120 C1123 1.403 . S
H1121 C1127 0.930 . S
C1122 H1108 0.930 . S
C1122 C1120 1.395 . S
C1122 C1125 1.403 1_554 S
C1123 C1120 1.403 . S
C1123 C1124 1.524 . S
C1123 C1127 1.400 1_554 S
C1124 H1109 0.960 . S
C1124 H1110 0.960 . S
C1124 H1111 0.960 . S
C1124 C1123 1.524 . S
C1125 C1122 1.403 1_556 S
C1125 C1126 1.392 . S
C1125 C1129 1.495 . S
C1126 C1125 1.392 . S
C1126 C1127 1.385 . S
C1126 C1128 1.478 . S
C1127 H1121 0.930 . S
C1127 C1123 1.400 1_556 S
C1127 C1126 1.385 . S
C1128 C1126 1.478 . S
C1128 C1130 1.381 . S
C1128 C1134 1.383 . S
C1129 C1125 1.495 . S
C1129 H1135 0.959 . S
C1129 H1136 0.961 . S
C1129 H1137 0.960 . S
C1130 C1128 1.381 . S
C1130 C1131 1.394 . S
C1130 H1138 0.930 . S
C1131 C1130 1.394 . S
C1131 C1132 1.383 . S
C1131 H1139 0.929 . S
C1132 C1131 1.383 . S
C1132 C1133 1.377 . S
C1133 H1117 0.930 . S
C1133 C1132 1.377 . S
C1133 C1134 1.379 . S
C1134 H1118 0.931 . S
C1134 C1128 1.383 . S
C1134 C1133 1.379 . S
H1135 C1129 0.959 . S
H1136 C1129 0.961 . S
H1137 C1129 0.960 . S
H1138 C1130 0.930 . S
H1139 C1131 0.929 . S
H1140 C1148 0.929 . S
H1141 C1150 0.930 . S
H1142 C1152 0.930 . S
H1143 C1155 0.929 . S
H1144 C1158 0.930 . S
H1145 C1160 0.960 1_556 S
H1146 C1160 0.960 . S
H1147 C1160 0.960 . S
C1148 H1140 0.929 . S
C1148 C1149 1.377 . S
C1148 C1150 1.384 . S
C1149 C1148 1.377 . S
C1149 C1155 1.390 . S
C1150 H1141 0.930 . S
C1150 C1148 1.384 . S
C1150 C1151 1.372 . S
C1151 C1150 1.372 . S
C1151 C1152 1.400 . S
C1151 C1156 1.490 . S
C1152 H1142 0.930 . S
C1152 C1151 1.400 . S
C1152 C1155 1.386 . S
H1153 C1169 0.930 . S
H1154 C1170 0.931 . S
C1155 H1143 0.929 . S
C1155 C1149 1.390 . S
C1155 C1152 1.386 . S
C1156 C1151 1.490 . S
C1156 C1158 1.395 . S
C1156 C1159 1.403 . S
H1157 C1163 0.930 . S
C1158 H1144 0.930 . S
C1158 C1156 1.395 . S
C1158 C1161 1.403 1_554 S
C1159 C1156 1.403 . S
C1159 C1160 1.524 . S
C1159 C1163 1.400 1_554 S
C1160 H1145 0.960 1_554 S
C1160 H1146 0.960 . S
C1160 H1147 0.960 . S
C1160 C1159 1.524 . S
C1161 C1158 1.403 1_556 S
C1161 C1162 1.392 . S
C1161 C1165 1.495 . S
C1162 C1161 1.392 . S
C1162 C1163 1.385 . S
C1162 C1164 1.478 . S
C1163 H1157 0.930 . S
C1163 C1159 1.400 1_556 S
C1163 C1162 1.385 . S
C1164 C1162 1.478 . S
C1164 C1166 1.381 . S
C1164 C1170 1.383 . S
C1165 C1161 1.495 . S
C1165 H1171 0.959 . S
C1165 H1172 0.961 . S
C1165 H1173 0.960 . S
C1166 C1164 1.381 . S
C1166 C1167 1.394 . S
C1166 H1174 0.930 . S
C1167 C1166 1.394 . S
C1167 C1168 1.383 . S
C1167 H1175 0.929 . S
C1168 C1167 1.383 . S
C1168 C1169 1.377 . S
C1169 H1153 0.930 . S
C1169 C1168 1.377 . S
C1169 C1170 1.379 . S
C1170 H1154 0.931 . S
C1170 C1164 1.383 . S
C1170 C1169 1.379 . S
H1171 C1165 0.959 . S
H1172 C1165 0.961 . S
H1173 C1165 0.960 . S
H1174 C1166 0.930 . S
H1175 C1167 0.929 . S
H1176 C1184 0.929 . S
H1177 C1186 0.930 . S
H1178 C1188 0.930 . S
H1179 C1191 0.929 . S
H1180 C1194 0.930 . S
H1181 C1196 0.960 . S
H1182 C1196 0.960 . S
H1183 C1196 0.960 . S
C1184 H1176 0.929 . S
C1184 C1185 1.377 . S
C1184 C1186 1.384 . S
C1185 C1184 1.377 . S
C1185 C1191 1.390 . S
C1186 H1177 0.930 . S
C1186 C1184 1.384 . S
C1186 C1187 1.372 . S
C1187 C1186 1.372 . S
C1187 C1188 1.400 . S
C1187 C1192 1.490 . S
C1188 H1178 0.930 . S
C1188 C1187 1.400 . S
C1188 C1191 1.386 . S
H1189 C1205 0.930 . S
H1190 C1206 0.931 . S
C1191 H1179 0.929 . S
C1191 C1185 1.390 . S
C1191 C1188 1.386 . S
C1192 C1187 1.490 . S
C1192 C1194 1.395 . S
C1192 C1195 1.403 . S
H1193 C1199 0.930 . S
C1194 H1180 0.930 . S
C1194 C1192 1.395 . S
C1194 C1197 1.403 1_554 S
C1195 C1192 1.403 . S
C1195 C1196 1.524 . S
C1195 C1199 1.400 1_554 S
C1196 H1181 0.960 . S
C1196 H1182 0.960 . S
C1196 H1183 0.960 . S
C1196 C1195 1.524 . S
C1197 C1194 1.403 1_556 S
C1197 C1198 1.392 . S
C1197 C1201 1.495 . S
C1198 C1197 1.392 . S
C1198 C1199 1.385 . S
C1198 C1200 1.478 . S
C1199 H1193 0.930 . S
C1199 C1195 1.400 1_556 S
C1199 C1198 1.385 . S
C1200 C1198 1.478 . S
C1200 C1202 1.381 . S
C1200 C1206 1.383 . S
C1201 C1197 1.495 . S
C1201 H1207 0.959 . S
C1201 H1208 0.961 . S
C1201 H1209 0.960 . S
C1202 C1200 1.381 . S
C1202 C1203 1.394 . S
C1202 H1210 0.930 . S
C1203 C1202 1.394 . S
C1203 C1204 1.383 . S
C1203 H1211 0.929 . S
C1204 C1203 1.383 . S
C1204 C1205 1.377 . S
C1205 H1189 0.930 . S
C1205 C1204 1.377 . S
C1205 C1206 1.379 . S
C1206 H1190 0.931 . S
C1206 C1200 1.383 . S
C1206 C1205 1.379 . S
H1207 C1201 0.959 . S
H1208 C1201 0.961 . S
H1209 C1201 0.960 . S
H1210 C1202 0.930 . S
H1211 C1203 0.929 . S
H1212 C1220 0.929 . S
H1213 C1222 0.930 . S
H1214 C1224 0.930 . S
H1215 C1227 0.929 . S
H1216 C1230 0.930 . S
H1217 C1232 0.960 . S
H1218 C1232 0.960 . S
H1219 C1232 0.960 . S
C1220 H1212 0.929 . S
C1220 C1221 1.377 . S
C1220 C1222 1.384 . S
C1221 C1220 1.377 . S
C1221 C1227 1.390 . S
C1222 H1213 0.930 . S
C1222 C1220 1.384 . S
C1222 C1223 1.372 . S
C1223 C1222 1.372 . S
C1223 C1224 1.400 . S
C1223 C1228 1.490 . S
C1224 H1214 0.930 . S
C1224 C1223 1.400 . S
C1224 C1227 1.386 . S
H1225 C1241 0.930 . S
H1226 C1242 0.931 . S
C1227 H1215 0.929 . S
C1227 C1221 1.390 . S
C1227 C1224 1.386 . S
C1228 C1223 1.490 . S
C1228 C1230 1.395 . S
C1228 C1231 1.403 . S
H1229 C1235 0.930 . S
C1230 H1216 0.930 . S
C1230 C1228 1.395 . S
C1230 C1233 1.403 1_556 S
C1231 C1228 1.403 . S
C1231 C1232 1.524 . S
C1231 C1235 1.400 1_556 S
C1232 H1217 0.960 . S
C1232 H1218 0.960 . S
C1232 H1219 0.960 . S
C1232 C1231 1.524 . S
C1233 C1230 1.403 1_554 S
C1233 C1234 1.392 . S
C1233 C1237 1.495 . S
C1234 C1233 1.392 . S
C1234 C1235 1.385 . S
C1234 C1236 1.478 . S
C1235 H1229 0.930 . S
C1235 C1231 1.400 1_554 S
C1235 C1234 1.385 . S
C1236 C1234 1.478 . S
C1236 C1238 1.381 . S
C1236 C1242 1.383 . S
C1237 C1233 1.495 . S
C1237 H1243 0.959 . S
C1237 H1244 0.961 . S
C1237 H1245 0.960 . S
C1238 C1236 1.381 . S
C1238 C1239 1.394 . S
C1238 H1246 0.930 . S
C1239 C1238 1.394 . S
C1239 C1240 1.383 . S
C1239 H1247 0.929 . S
C1240 C1239 1.383 . S
C1240 C1241 1.377 . S
C1241 H1225 0.930 . S
C1241 C1240 1.377 . S
C1241 C1242 1.379 . S
C1242 H1226 0.931 . S
C1242 C1236 1.383 . S
C1242 C1241 1.379 . S
H1243 C1237 0.959 . S
H1244 C1237 0.961 . S
H1245 C1237 0.960 . S
H1246 C1238 0.930 . S
H1247 C1239 0.929 . S
H1248 C1256 0.929 . S
H1249 C1258 0.930 . S
H1250 C1260 0.930 . S
H1251 C1263 0.929 . S
H1252 C1266 0.930 . S
H1253 C1268 0.960 . S
H1254 C1268 0.960 . S
H1255 C1268 0.960 . S
C1256 H1248 0.929 . S
C1256 C1257 1.377 . S
C1256 C1258 1.384 . S
C1257 C1256 1.377 . S
C1257 C1263 1.390 . S
C1258 H1249 0.930 . S
C1258 C1256 1.384 . S
C1258 C1259 1.372 . S
C1259 C1258 1.372 . S
C1259 C1260 1.400 . S
C1259 C1264 1.490 . S
C1260 H1250 0.930 . S
C1260 C1259 1.400 . S
C1260 C1263 1.386 . S
H1261 C1277 0.930 . S
H1262 C1278 0.931 . S
C1263 H1251 0.929 . S
C1263 C1257 1.390 . S
C1263 C1260 1.386 . S
C1264 C1259 1.490 . S
C1264 C1266 1.395 . S
C1264 C1267 1.403 . S
H1265 C1271 0.930 . S
C1266 H1252 0.930 . S
C1266 C1264 1.395 . S
C1266 C1269 1.403 . S
C1267 C1264 1.403 . S
C1267 C1268 1.524 . S
C1267 C1271 1.400 . S
C1268 H1253 0.960 . S
C1268 H1254 0.960 . S
C1268 H1255 0.960 . S
C1268 C1267 1.524 . S
C1269 C1266 1.403 . S
C1269 C1270 1.392 . S
C1269 C1273 1.495 . S
C1270 C1269 1.392 . S
C1270 C1271 1.385 . S
C1270 C1272 1.478 . S
C1271 H1265 0.930 . S
C1271 C1267 1.400 . S
C1271 C1270 1.385 . S
C1272 C1270 1.478 . S
C1272 C1274 1.381 . S
C1272 C1278 1.383 . S
C1273 C1269 1.495 . S
C1273 H1279 0.959 . S
C1273 H1280 0.961 . S
C1273 H1281 0.960 . S
C1274 C1272 1.381 . S
C1274 C1275 1.394 . S
C1274 H1282 0.930 . S
C1275 C1274 1.394 . S
C1275 C1276 1.383 . S
C1275 H1283 0.929 . S
C1276 C1275 1.383 . S
C1276 C1277 1.377 . S
C1277 H1261 0.930 . S
C1277 C1276 1.377 . S
C1277 C1278 1.379 . S
C1278 H1262 0.931 . S
C1278 C1272 1.383 . S
C1278 C1277 1.379 . S
H1279 C1273 0.959 . S
H1280 C1273 0.961 . S
H1281 C1273 0.960 . S
H1282 C1274 0.930 . S
H1283 C1275 0.929 . S
H1284 C1292 0.929 . S
H1285 C1294 0.930 . S
H1286 C1296 0.930 . S
H1287 C1299 0.929 . S
H1288 C1302 0.930 . S
H1289 C1304 0.960 . S
H1290 C1304 0.960 . S
H1291 C1304 0.960 . S
C1292 H1284 0.929 . S
C1292 C1293 1.377 . S
C1292 C1294 1.384 . S
C1293 C1292 1.377 . S
C1293 C1299 1.390 . S
C1294 H1285 0.930 . S
C1294 C1292 1.384 . S
C1294 C1295 1.372 . S
C1295 C1294 1.372 . S
C1295 C1296 1.400 . S
C1295 C1300 1.490 . S
C1296 H1286 0.930 . S
C1296 C1295 1.400 . S
C1296 C1299 1.386 . S
H1297 C1313 0.930 . S
H1298 C1314 0.931 . S
C1299 H1287 0.929 . S
C1299 C1293 1.390 . S
C1299 C1296 1.386 . S
C1300 C1295 1.490 . S
C1300 C1302 1.395 . S
C1300 C1303 1.403 . S
H1301 C1307 0.930 . S
C1302 H1288 0.930 . S
C1302 C1300 1.395 . S
C1302 C1305 1.403 . S
C1303 C1300 1.403 . S
C1303 C1304 1.524 . S
C1303 C1307 1.400 . S
C1304 H1289 0.960 . S
C1304 H1290 0.960 . S
C1304 H1291 0.960 . S
C1304 C1303 1.524 . S
C1305 C1302 1.403 . S
C1305 C1306 1.392 . S
C1305 C1309 1.495 . S
C1306 C1305 1.392 . S
C1306 C1307 1.385 . S
C1306 C1308 1.478 . S
C1307 H1301 0.930 . S
C1307 C1303 1.400 . S
C1307 C1306 1.385 . S
C1308 C1306 1.478 . S
C1308 C1310 1.381 . S
C1308 C1314 1.383 . S
C1309 C1305 1.495 . S
C1309 H1315 0.959 . S
C1309 H1316 0.961 . S
C1309 H1317 0.960 . S
C1310 C1308 1.381 . S
C1310 C1311 1.394 . S
C1310 H1318 0.930 . S
C1311 C1310 1.394 . S
C1311 C1312 1.383 . S
C1311 H1319 0.929 . S
C1312 C1311 1.383 . S
C1312 C1313 1.377 . S
C1313 H1297 0.930 . S
C1313 C1312 1.377 . S
C1313 C1314 1.379 . S
C1314 H1298 0.931 . S
C1314 C1308 1.383 . S
C1314 C1313 1.379 . S
H1315 C1309 0.959 . S
H1316 C1309 0.961 . S
H1317 C1309 0.960 . S
H1318 C1310 0.930 . S
H1319 C1311 0.929 . S
H1320 C1328 0.929 . S
H1321 C1330 0.930 . S
H1322 C1332 0.930 . S
H1323 C1335 0.929 . S
H1324 C1338 0.930 . S
H1325 C1340 0.960 . S
H1326 C1340 0.960 . S
H1327 C1340 0.960 . S
C1328 H1320 0.929 . S
C1328 C1329 1.377 . S
C1328 C1330 1.384 . S
C1329 C1328 1.377 . S
C1329 C1335 1.390 . S
C1330 H1321 0.930 . S
C1330 C1328 1.384 . S
C1330 C1331 1.372 . S
C1331 C1330 1.372 . S
C1331 C1332 1.400 . S
C1331 C1336 1.490 . S
C1332 H1322 0.930 . S
C1332 C1331 1.400 . S
C1332 C1335 1.386 . S
H1333 C1349 0.930 . S
H1334 C1350 0.931 . S
C1335 H1323 0.929 . S
C1335 C1329 1.390 . S
C1335 C1332 1.386 . S
C1336 C1331 1.490 . S
C1336 C1338 1.395 . S
C1336 C1339 1.403 . S
H1337 C1343 0.930 . S
C1338 H1324 0.930 . S
C1338 C1336 1.395 . S
C1338 C1341 1.403 . S
C1339 C1336 1.403 . S
C1339 C1340 1.524 . S
C1339 C1343 1.400 . S
C1340 H1325 0.960 . S
C1340 H1326 0.960 . S
C1340 H1327 0.960 . S
C1340 C1339 1.524 . S
C1341 C1338 1.403 . S
C1341 C1342 1.392 . S
C1341 C1345 1.495 . S
C1342 C1341 1.392 . S
C1342 C1343 1.385 . S
C1342 C1344 1.478 . S
C1343 H1337 0.930 . S
C1343 C1339 1.400 . S
C1343 C1342 1.385 . S
C1344 C1342 1.478 . S
C1344 C1346 1.381 . S
C1344 C1350 1.383 . S
C1345 C1341 1.495 . S
C1345 H1351 0.959 . S
C1345 H1352 0.961 . S
C1345 H1353 0.960 . S
C1346 C1344 1.381 . S
C1346 C1347 1.394 . S
C1346 H1354 0.930 . S
C1347 C1346 1.394 . S
C1347 C1348 1.383 . S
C1347 H1355 0.929 . S
C1348 C1347 1.383 . S
C1348 C1349 1.377 . S
C1349 H1333 0.930 . S
C1349 C1348 1.377 . S
C1349 C1350 1.379 . S
C1350 H1334 0.931 . S
C1350 C1344 1.383 . S
C1350 C1349 1.379 . S
H1351 C1345 0.959 . S
H1352 C1345 0.961 . S
H1353 C1345 0.960 . S
H1354 C1346 0.930 . S
H1355 C1347 0.929 . S
H1356 C1364 0.929 . S
H1357 C1366 0.930 . S
H1358 C1368 0.930 . S
H1359 C1371 0.929 . S
H1360 C1374 0.930 . S
H1361 C1376 0.960 . S
H1362 C1376 0.960 . S
H1363 C1376 0.960 . S
C1364 H1356 0.929 . S
C1364 C1365 1.377 . S
C1364 C1366 1.384 . S
C1365 C1364 1.377 . S
C1365 C1371 1.390 . S
C1366 H1357 0.930 . S
C1366 C1364 1.384 . S
C1366 C1367 1.372 . S
C1367 C1366 1.372 . S
C1367 C1368 1.400 . S
C1367 C1372 1.490 . S
C1368 H1358 0.930 . S
C1368 C1367 1.400 . S
C1368 C1371 1.386 . S
H1369 C1385 0.930 . S
H1370 C1386 0.931 . S
C1371 H1359 0.929 . S
C1371 C1365 1.390 . S
C1371 C1368 1.386 . S
C1372 C1367 1.490 . S
C1372 C1374 1.395 . S
C1372 C1375 1.403 . S
H1373 C1379 0.930 . S
C1374 H1360 0.930 . S
C1374 C1372 1.395 . S
C1374 C1377 1.403 . S
C1375 C1372 1.403 . S
C1375 C1376 1.524 . S
C1375 C1379 1.400 . S
C1376 H1361 0.960 . S
C1376 H1362 0.960 . S
C1376 H1363 0.960 . S
C1376 C1375 1.524 . S
C1377 C1374 1.403 . S
C1377 C1378 1.392 . S
C1377 C1381 1.495 . S
C1378 C1377 1.392 . S
C1378 C1379 1.385 . S
C1378 C1380 1.478 . S
C1379 H1373 0.930 . S
C1379 C1375 1.400 . S
C1379 C1378 1.385 . S
C1380 C1378 1.478 . S
C1380 C1382 1.381 . S
C1380 C1386 1.383 . S
C1381 C1377 1.495 . S
C1381 H1387 0.959 . S
C1381 H1388 0.961 . S
C1381 H1389 0.960 . S
C1382 C1380 1.381 . S
C1382 C1383 1.394 . S
C1382 H1390 0.930 . S
C1383 C1382 1.394 . S
C1383 C1384 1.383 . S
C1383 H1391 0.929 . S
C1384 C1383 1.383 . S
C1384 C1385 1.377 . S
C1385 H1369 0.930 . S
C1385 C1384 1.377 . S
C1385 C1386 1.379 . S
C1386 H1370 0.931 . S
C1386 C1380 1.383 . S
C1386 C1385 1.379 . S
H1387 C1381 0.959 . S
H1388 C1381 0.961 . S
H1389 C1381 0.960 . S
H1390 C1382 0.930 . S
H1391 C1383 0.929 . S
H1392 C1400 0.929 . S
H1393 C1402 0.930 . S
H1394 C1404 0.930 . S
H1395 C1407 0.929 . S
H1396 C1410 0.930 . S
H1397 C1412 0.960 . S
H1398 C1412 0.960 . S
H1399 C1412 0.960 . S
C1400 H1392 0.929 . S
C1400 C1401 1.377 . S
C1400 C1402 1.384 . S
C1401 C1400 1.377 . S
C1401 C1407 1.390 . S
C1402 H1393 0.930 . S
C1402 C1400 1.384 . S
C1402 C1403 1.372 . S
C1403 C1402 1.372 . S
C1403 C1404 1.400 . S
C1403 C1408 1.490 . S
C1404 H1394 0.930 . S
C1404 C1403 1.400 . S
C1404 C1407 1.386 . S
H1405 C1421 0.930 . S
H1406 C1422 0.931 . S
C1407 H1395 0.929 . S
C1407 C1401 1.390 . S
C1407 C1404 1.386 . S
C1408 C1403 1.490 . S
C1408 C1410 1.395 . S
C1408 C1411 1.403 . S
H1409 C1415 0.930 . S
C1410 H1396 0.930 . S
C1410 C1408 1.395 . S
C1410 C1413 1.403 1_455 S
C1411 C1408 1.403 . S
C1411 C1412 1.524 . S
C1411 C1415 1.400 1_455 S
C1412 H1397 0.960 . S
C1412 H1398 0.960 . S
C1412 H1399 0.960 . S
C1412 C1411 1.524 . S
C1413 C1410 1.403 1_655 S
C1413 C1414 1.392 . S
C1413 C1417 1.495 . S
C1414 C1413 1.392 . S
C1414 C1415 1.385 . S
C1414 C1416 1.478 . S
C1415 H1409 0.930 . S
C1415 C1411 1.400 1_655 S
C1415 C1414 1.385 . S
C1416 C1414 1.478 . S
C1416 C1418 1.381 . S
C1416 C1422 1.383 . S
C1417 C1413 1.495 . S
C1417 H1423 0.959 . S
C1417 H1424 0.961 . S
C1417 H1425 0.960 . S
C1418 C1416 1.381 . S
C1418 C1419 1.394 . S
C1418 H1426 0.930 . S
C1419 C1418 1.394 . S
C1419 C1420 1.383 . S
C1419 H1427 0.929 . S
C1420 C1419 1.383 . S
C1420 C1421 1.377 . S
C1421 H1405 0.930 . S
C1421 C1420 1.377 . S
C1421 C1422 1.379 . S
C1422 H1406 0.931 . S
C1422 C1416 1.383 . S
C1422 C1421 1.379 . S
H1423 C1417 0.959 . S
H1424 C1417 0.961 . S
H1425 C1417 0.960 . S
H1426 C1418 0.930 . S
H1427 C1419 0.929 . S
H1428 C1436 0.929 . S
H1429 C1438 0.930 . S
H1430 C1440 0.930 . S
H1431 C1443 0.929 . S
H1432 C1446 0.930 . S
H1433 C1448 0.960 . S
H1434 C1448 0.960 . S
H1435 C1448 0.960 . S
C1436 H1428 0.929 . S
C1436 C1437 1.377 . S
C1436 C1438 1.384 . S
C1437 C1436 1.377 . S
C1437 C1443 1.390 . S
C1438 H1429 0.930 . S
C1438 C1436 1.384 . S
C1438 C1439 1.372 . S
C1439 C1438 1.372 . S
C1439 C1440 1.400 . S
C1439 C1444 1.490 . S
C1440 H1430 0.930 . S
C1440 C1439 1.400 . S
C1440 C1443 1.386 . S
H1441 C1457 0.930 . S
H1442 C1458 0.931 . S
C1443 H1431 0.929 . S
C1443 C1437 1.390 . S
C1443 C1440 1.386 . S
C1444 C1439 1.490 . S
C1444 C1446 1.395 . S
C1444 C1447 1.403 . S
H1445 C1451 0.930 . S
C1446 H1432 0.930 . S
C1446 C1444 1.395 . S
C1446 C1449 1.403 1_655 S
C1447 C1444 1.403 . S
C1447 C1448 1.524 . S
C1447 C1451 1.400 1_655 S
C1448 H1433 0.960 . S
C1448 H1434 0.960 . S
C1448 H1435 0.960 . S
C1448 C1447 1.524 . S
C1449 C1446 1.403 1_455 S
C1449 C1450 1.392 . S
C1449 C1453 1.495 . S
C1450 C1449 1.392 . S
C1450 C1451 1.385 . S
C1450 C1452 1.478 . S
C1451 H1445 0.930 . S
C1451 C1447 1.400 1_455 S
C1451 C1450 1.385 . S
C1452 C1450 1.478 . S
C1452 C1454 1.381 . S
C1452 C1458 1.383 . S
C1453 C1449 1.495 . S
C1453 H1459 0.959 . S
C1453 H1460 0.961 . S
C1453 H1461 0.960 . S
C1454 C1452 1.381 . S
C1454 C1455 1.394 . S
C1454 H1462 0.930 . S
C1455 C1454 1.394 . S
C1455 C1456 1.383 . S
C1455 H1463 0.929 . S
C1456 C1455 1.383 . S
C1456 C1457 1.377 . S
C1457 H1441 0.930 . S
C1457 C1456 1.377 . S
C1457 C1458 1.379 . S
C1458 H1442 0.931 . S
C1458 C1452 1.383 . S
C1458 C1457 1.379 . S
H1459 C1453 0.959 . S
H1460 C1453 0.961 . S
H1461 C1453 0.960 . S
H1462 C1454 0.930 . S
H1463 C1455 0.929 . S
H1464 C1472 0.929 . S
H1465 C1474 0.930 . S
H1466 C1476 0.930 . S
H1467 C1479 0.929 . S
H1468 C1482 0.930 . S
H1469 C1484 0.960 . S
H1470 C1484 0.960 . S
H1471 C1484 0.960 . S
C1472 H1464 0.929 . S
C1472 C1473 1.377 . S
C1472 C1474 1.384 . S
C1473 C1472 1.377 . S
C1473 C1479 1.390 . S
C1474 H1465 0.930 . S
C1474 C1472 1.384 . S
C1474 C1475 1.372 . S
C1475 C1474 1.372 . S
C1475 C1476 1.400 . S
C1475 C1480 1.490 . S
C1476 H1466 0.930 . S
C1476 C1475 1.400 . S
C1476 C1479 1.386 . S
H1477 C1493 0.930 . S
H1478 C1494 0.931 . S
C1479 H1467 0.929 . S
C1479 C1473 1.390 . S
C1479 C1476 1.386 . S
C1480 C1475 1.490 . S
C1480 C1482 1.395 . S
C1480 C1483 1.403 . S
H1481 C1487 0.930 . S
C1482 H1468 0.930 . S
C1482 C1480 1.395 . S
C1482 C1485 1.403 . S
C1483 C1480 1.403 . S
C1483 C1484 1.524 . S
C1483 C1487 1.400 . S
C1484 H1469 0.960 . S
C1484 H1470 0.960 . S
C1484 H1471 0.960 . S
C1484 C1483 1.524 . S
C1485 C1482 1.403 . S
C1485 C1486 1.392 . S
C1485 C1489 1.495 . S
C1486 C1485 1.392 . S
C1486 C1487 1.385 . S
C1486 C1488 1.478 . S
C1487 H1481 0.930 . S
C1487 C1483 1.400 . S
C1487 C1486 1.385 . S
C1488 C1486 1.478 . S
C1488 C1490 1.381 . S
C1488 C1494 1.383 . S
C1489 C1485 1.495 . S
C1489 H1495 0.959 . S
C1489 H1496 0.961 . S
C1489 H1497 0.960 . S
C1490 C1488 1.381 . S
C1490 C1491 1.394 . S
C1490 H1498 0.930 . S
C1491 C1490 1.394 . S
C1491 C1492 1.383 . S
C1491 H1499 0.929 . S
C1492 C1491 1.383 . S
C1492 C1493 1.377 . S
C1493 H1477 0.930 . S
C1493 C1492 1.377 . S
C1493 C1494 1.379 . S
C1494 H1478 0.931 . S
C1494 C1488 1.383 . S
C1494 C1493 1.379 . S
H1495 C1489 0.959 . S
H1496 C1489 0.961 . S
H1497 C1489 0.960 . S
H1498 C1490 0.930 . S
H1499 C1491 0.929 . S
H1500 C1508 0.929 . S
H1501 C1510 0.930 . S
H1502 C1512 0.930 . S
H1503 C1515 0.929 . S
H1504 C1518 0.930 . S
H1505 C1520 0.960 . S
H1506 C1520 0.960 . S
H1507 C1520 0.960 . S
C1508 H1500 0.929 . S
C1508 C1509 1.377 . S
C1508 C1510 1.384 . S
C1509 C1508 1.377 . S
C1509 C1515 1.390 . S
C1510 H1501 0.930 . S
C1510 C1508 1.384 . S
C1510 C1511 1.372 . S
C1511 C1510 1.372 . S
C1511 C1512 1.400 . S
C1511 C1516 1.490 . S
C1512 H1502 0.930 . S
C1512 C1511 1.400 . S
C1512 C1515 1.386 . S
H1513 C1529 0.930 . S
H1514 C1530 0.931 . S
C1515 H1503 0.929 . S
C1515 C1509 1.390 . S
C1515 C1512 1.386 . S
C1516 C1511 1.490 . S
C1516 C1518 1.395 . S
C1516 C1519 1.403 . S
H1517 C1523 0.930 . S
C1518 H1504 0.930 . S
C1518 C1516 1.395 . S
C1518 C1521 1.403 . S
C1519 C1516 1.403 . S
C1519 C1520 1.524 . S
C1519 C1523 1.400 . S
C1520 H1505 0.960 . S
C1520 H1506 0.960 . S
C1520 H1507 0.960 . S
C1520 C1519 1.524 . S
C1521 C1518 1.403 . S
C1521 C1522 1.392 . S
C1521 C1525 1.495 . S
C1522 C1521 1.392 . S
C1522 C1523 1.385 . S
C1522 C1524 1.478 . S
C1523 H1517 0.930 . S
C1523 C1519 1.400 . S
C1523 C1522 1.385 . S
C1524 C1522 1.478 . S
C1524 C1526 1.381 . S
C1524 C1530 1.383 . S
C1525 C1521 1.495 . S
C1525 H1531 0.959 . S
C1525 H1532 0.961 . S
C1525 H1533 0.960 . S
C1526 C1524 1.381 . S
C1526 C1527 1.394 . S
C1526 H1534 0.930 . S
C1527 C1526 1.394 . S
C1527 C1528 1.383 . S
C1527 H1535 0.929 . S
C1528 C1527 1.383 . S
C1528 C1529 1.377 . S
C1529 H1513 0.930 . S
C1529 C1528 1.377 . S
C1529 C1530 1.379 . S
C1530 H1514 0.931 . S
C1530 C1524 1.383 . S
C1530 C1529 1.379 . S
H1531 C1525 0.959 . S
H1532 C1525 0.961 . S
H1533 C1525 0.960 . S
H1534 C1526 0.930 . S
H1535 C1527 0.929 . S
C681 C58 1.579 . S
C700 C658 1.536 . S
C717 C562 1.587 . S
C736 C154 1.595 . S
C753 C490 1.580 . S
C772 C226 1.540 . S
C789 C394 1.575 . S
C808 C322 1.605 . S
C825 C236 2.582 . S
C844 C68 2.590 . S
C861 C152 0.520 . S
C880 C320 0.452 . S
C897 C308 2.586 . S
C916 C140 2.593 . S
C933 C224 0.519 . S
C952 C56 0.471 . S
C969 C404 2.596 . S
C988 C572 2.602 . S
C1005 C488 0.491 . S
C1024 C656 0.519 . S
C1041 C644 2.594 . S
C1060 C476 2.591 . S
C1077 C560 0.499 . S
C1096 C392 0.447 . S
C1113 C67 1.743 . S
C1132 C55 1.728 . S
C1149 C139 1.746 . S
C1168 C151 1.756 . S
C1185 C223 1.744 . S
C1204 C235 1.727 . S
C1221 C307 1.745 . S
C1240 C319 1.730 . S
C1257 C391 1.745 . S
C1276 C403 1.754 . S
C1293 C475 1.747 . S
C1312 C487 1.755 . S
C1329 C571 1.747 . S
C1348 C559 1.755 . S
C1365 C643 1.743 . S
C1384 C655 1.747 . S
C1401 C70 2.053 . S
C1420 C142 2.011 . S
C1437 C310 2.047 . S
C1456 C238 2.013 . S
C1473 C406 2.040 . S
C1492 C478 2.069 . S
C1509 C646 2.049 . S
C1528 C574 2.069 . S
