# Generated by pormake.
# Topology whj, (6)-cn, num edge types: 1
# Building blocks:
#     Node 0, Type 0, BuildingBlock: IZENUY_clean_sbu_0, # of connection points: 6
#     Node 1, Type 0, BuildingBlock: IZENUY_clean_sbu_0, # of connection points: 6
#     Node 2, Type 0, BuildingBlock: IZENUY_clean_sbu_0, # of connection points: 6
#     Node 3, Type 0, BuildingBlock: IZENUY_clean_sbu_0, # of connection points: 6
#     Node 4, Type 0, BuildingBlock: IZENUY_clean_sbu_0, # of connection points: 6
#     Node 5, Type 0, BuildingBlock: IZENUY_clean_sbu_0, # of connection points: 6
#     Node 6, Type 0, BuildingBlock: IZENUY_clean_sbu_0, # of connection points: 6
#     Node 7, Type 0, BuildingBlock: IZENUY_clean_sbu_0, # of connection points: 6
#     Node 8, Type 0, BuildingBlock: IZENUY_clean_sbu_0, # of connection points: 6
#     Node 9, Type 0, BuildingBlock: IZENUY_clean_sbu_0, # of connection points: 6
#     Node 10, Type 0, BuildingBlock: IZENUY_clean_sbu_0, # of connection points: 6
#     Node 11, Type 0, BuildingBlock: IZENUY_clean_sbu_0, # of connection points: 6
#     Node 12, Type 0, BuildingBlock: IZENUY_clean_sbu_0, # of connection points: 6
#     Node 13, Type 0, BuildingBlock: IZENUY_clean_sbu_0, # of connection points: 6
#     Node 14, Type 0, BuildingBlock: IZENUY_clean_sbu_0, # of connection points: 6
#     Node 15, Type 0, BuildingBlock: IZENUY_clean_sbu_0, # of connection points: 6
#     Edge 16, Type (0, 0), BuildingBlock: CIFDUS_clean_linker_0, # of connection points: 2
#     Edge 17, Type (0, 0), BuildingBlock: CIFDUS_clean_linker_0, # of connection points: 2
#     Edge 18, Type (0, 0), BuildingBlock: CIFDUS_clean_linker_0, # of connection points: 2
#     Edge 19, Type (0, 0), BuildingBlock: CIFDUS_clean_linker_0, # of connection points: 2
#     Edge 20, Type (0, 0), BuildingBlock: CIFDUS_clean_linker_0, # of connection points: 2
#     Edge 21, Type (0, 0), BuildingBlock: CIFDUS_clean_linker_0, # of connection points: 2
#     Edge 22, Type (0, 0), BuildingBlock: CIFDUS_clean_linker_0, # of connection points: 2
#     Edge 23, Type (0, 0), BuildingBlock: CIFDUS_clean_linker_0, # of connection points: 2
#     Edge 24, Type (0, 0), BuildingBlock: CIFDUS_clean_linker_0, # of connection points: 2
#     Edge 25, Type (0, 0), BuildingBlock: CIFDUS_clean_linker_0, # of connection points: 2
#     Edge 26, Type (0, 0), BuildingBlock: CIFDUS_clean_linker_0, # of connection points: 2
#     Edge 27, Type (0, 0), BuildingBlock: CIFDUS_clean_linker_0, # of connection points: 2
#     Edge 28, Type (0, 0), BuildingBlock: CIFDUS_clean_linker_0, # of connection points: 2
#     Edge 29, Type (0, 0), BuildingBlock: CIFDUS_clean_linker_0, # of connection points: 2
#     Edge 30, Type (0, 0), BuildingBlock: CIFDUS_clean_linker_0, # of connection points: 2
#     Edge 31, Type (0, 0), BuildingBlock: CIFDUS_clean_linker_0, # of connection points: 2
#     Edge 32, Type (0, 0), BuildingBlock: CIFDUS_clean_linker_0, # of connection points: 2
#     Edge 33, Type (0, 0), BuildingBlock: CIFDUS_clean_linker_0, # of connection points: 2
#     Edge 34, Type (0, 0), BuildingBlock: CIFDUS_clean_linker_0, # of connection points: 2
#     Edge 35, Type (0, 0), BuildingBlock: CIFDUS_clean_linker_0, # of connection points: 2
#     Edge 36, Type (0, 0), BuildingBlock: CIFDUS_clean_linker_0, # of connection points: 2
#     Edge 37, Type (0, 0), BuildingBlock: CIFDUS_clean_linker_0, # of connection points: 2
#     Edge 38, Type (0, 0), BuildingBlock: CIFDUS_clean_linker_0, # of connection points: 2
#     Edge 39, Type (0, 0), BuildingBlock: CIFDUS_clean_linker_0, # of connection points: 2
#     Edge 40, Type (0, 0), BuildingBlock: CIFDUS_clean_linker_0, # of connection points: 2
#     Edge 41, Type (0, 0), BuildingBlock: CIFDUS_clean_linker_0, # of connection points: 2
#     Edge 42, Type (0, 0), BuildingBlock: CIFDUS_clean_linker_0, # of connection points: 2
#     Edge 43, Type (0, 0), BuildingBlock: CIFDUS_clean_linker_0, # of connection points: 2
#     Edge 44, Type (0, 0), BuildingBlock: CIFDUS_clean_linker_0, # of connection points: 2
#     Edge 45, Type (0, 0), BuildingBlock: CIFDUS_clean_linker_0, # of connection points: 2
#     Edge 46, Type (0, 0), BuildingBlock: CIFDUS_clean_linker_0, # of connection points: 2
#     Edge 47, Type (0, 0), BuildingBlock: CIFDUS_clean_linker_0, # of connection points: 2
#     Edge 48, Type (0, 0), BuildingBlock: CIFDUS_clean_linker_0, # of connection points: 2
#     Edge 49, Type (0, 0), BuildingBlock: CIFDUS_clean_linker_0, # of connection points: 2
#     Edge 50, Type (0, 0), BuildingBlock: CIFDUS_clean_linker_0, # of connection points: 2
#     Edge 51, Type (0, 0), BuildingBlock: CIFDUS_clean_linker_0, # of connection points: 2
#     Edge 52, Type (0, 0), BuildingBlock: CIFDUS_clean_linker_0, # of connection points: 2
#     Edge 53, Type (0, 0), BuildingBlock: CIFDUS_clean_linker_0, # of connection points: 2
#     Edge 54, Type (0, 0), BuildingBlock: CIFDUS_clean_linker_0, # of connection points: 2
#     Edge 55, Type (0, 0), BuildingBlock: CIFDUS_clean_linker_0, # of connection points: 2
#     Edge 56, Type (0, 0), BuildingBlock: CIFDUS_clean_linker_0, # of connection points: 2
#     Edge 57, Type (0, 0), BuildingBlock: CIFDUS_clean_linker_0, # of connection points: 2
#     Edge 58, Type (0, 0), BuildingBlock: CIFDUS_clean_linker_0, # of connection points: 2
#     Edge 59, Type (0, 0), BuildingBlock: CIFDUS_clean_linker_0, # of connection points: 2
#     Edge 60, Type (0, 0), BuildingBlock: CIFDUS_clean_linker_0, # of connection points: 2
#     Edge 61, Type (0, 0), BuildingBlock: CIFDUS_clean_linker_0, # of connection points: 2
#     Edge 62, Type (0, 0), BuildingBlock: CIFDUS_clean_linker_0, # of connection points: 2
#     Edge 63, Type (0, 0), BuildingBlock: CIFDUS_clean_linker_0, # of connection points: 2
# Relax obj value: 0.269
# Max RMSD: 0.261
# Mean RMSD: 0.261
data_MOF--net-whj--node1-IZENUY_clean_sbu_0--edge1-CIFDUS_clean_linker_0
_symmetry_space_group_name_H-M    P1
_symmetry_Int_Tables_number       1
_symmetry_cell_setting            triclinic
loop_
_symmetry_equiv_pos_as_xyz
'x, y, z'
_cell_length_a     32.288703
_cell_length_b     32.403264
_cell_length_c     41.250472
_cell_angle_alpha  90.004653
_cell_angle_beta   89.917312
_cell_angle_gamma 90.302656
loop_
_atom_site_label
_atom_site_type_symbol
_atom_site_fract_x
_atom_site_fract_y
_atom_site_fract_z
_atom_type_partial_charge
Fe0 Fe 0.70203 1.01709 0.08555 0.0
Fe1 Fe 0.63808 0.06351 0.12621 0.0
O2 O 0.69019 0.05767 0.11294 0.0
Fe3 Fe 0.72874 0.09303 0.1264 0.0
O4 O 0.74487 0.10593 0.08611 0.0
O5 O 0.74175 0.04599 0.06166 0.0
O6 O 0.66449 0.03494 0.05603 0.0
C7 C 0.62663 0.03803 0.06252 0.0
C8 C 0.76911 1.01384 0.12713 0.0
O9 O 0.61476 0.03912 0.09145 0.0
C10 C 0.68148 0.09214 0.18111 0.0
O11 O 0.66459 0.98058 0.10497 0.0
O12 O 0.63912 1.0141 0.14731 0.0
O13 O 0.76973 0.05296 0.13088 0.0
O14 O 0.74 0.9961 0.11234 0.0
C15 C 0.65956 0.1416 0.1065 0.0
O16 O 0.64963 0.09053 0.16378 0.0
O17 O 0.71646 0.0847 0.16912 0.0
C18 C 0.64531 0.98051 0.13213 0.0
O19 O 0.63453 0.11164 0.10482 0.0
O20 O 0.6937 0.13848 0.12209 0.0
C21 C 0.75265 0.08371 0.06205 0.0
Fe22 Fe 0.4498 0.7285 0.12481 0.0
Fe23 Fe 0.52322 0.69264 0.08661 0.0
O24 O 0.48112 0.68559 0.11369 0.0
Fe25 Fe 0.46838 0.63558 0.12838 0.0
O26 O 0.41211 0.64422 0.12819 0.0
O27 O 0.4051 0.70431 0.10488 0.0
O28 O 0.45756 0.75693 0.08711 0.0
C29 C 0.46429 0.74295 0.05908 0.0
C30 C 0.45027 0.67923 0.18248 0.0
O31 O 0.4891 0.71339 0.05512 0.0
C32 C 0.55733 0.63534 0.1278 0.0
O33 O 0.49403 0.75593 0.14348 0.0
O34 O 0.53617 0.74404 0.10217 0.0
O35 O 0.47347 0.6525 0.16991 0.0
O36 O 0.43499 0.70766 0.16509 0.0
C37 C 0.48912 0.61609 0.06627 0.0
O38 O 0.56048 0.67113 0.11547 0.0
O39 O 0.52225 0.61784 0.13033 0.0
C40 C 0.52747 0.76353 0.128 0.0
O41 O 0.5178 0.6427 0.06676 0.0
O42 O 0.46215 0.61453 0.08821 0.0
C43 C 0.3925 0.66768 0.10916 0.0
Fe44 Fe 0.81844 0.44431 0.12092 0.0
Fe45 Fe 0.84627 0.52329 0.08473 0.0
O46 O 0.8578 0.47994 0.10944 0.0
Fe47 Fe 0.90973 0.47161 0.12198 0.0
O48 O 0.91182 0.42427 0.09925 0.0
O49 O 0.85249 0.39837 0.1166 0.0
O50 O 0.80446 0.43409 0.07947 0.0
C51 C 0.79574 0.45941 0.05754 0.0
C52 C 0.86459 0.44218 0.17622 0.0
O53 O 0.80491 0.49739 0.06061 0.0
C54 C 0.90583 0.55446 0.13092 0.0
O55 O 0.77736 0.48444 0.12539 0.0
O56 O 0.80965 0.54269 0.11381 0.0
O57 O 0.89686 0.44374 0.15909 0.0
O58 O 0.8297 0.45041 0.16413 0.0
C59 C 0.92039 0.5016 0.05887 0.0
O60 O 0.88543 0.55702 0.10454 0.0
O61 O 0.91112 0.51982 0.14462 0.0
C62 C 0.77855 0.52384 0.12493 0.0
O63 O 0.88251 0.50735 0.05337 0.0
O64 O 0.93316 0.49668 0.08737 0.0
C65 C 0.88653 0.39464 0.10111 0.0
Fe66 Fe 1.01963 0.83805 0.08943 0.0
Fe67 Fe 0.06546 0.90511 0.12743 0.0
O68 O 0.06142 0.85283 0.11505 0.0
Fe69 Fe 0.0994 0.81673 0.12779 0.0
O70 O 0.11122 0.80194 0.08701 0.0
O71 O 0.04909 0.79921 0.0657 0.0
O72 O 0.03401 0.87531 0.05827 0.0
C73 C 0.03619 0.91337 0.06401 0.0
C74 C 0.02199 0.77161 0.13122 0.0
O75 O 0.03912 0.92613 0.09266 0.0
C76 C 0.09645 0.86428 0.1826 0.0
O77 O 0.98256 0.87431 0.10882 0.0
O78 O 1.01713 0.90183 0.14965 0.0
O79 O 0.06149 0.77316 0.13301 0.0
O80 O 1.00186 0.80021 0.11804 0.0
C81 C 0.1445 0.88872 0.10757 0.0
O82 O 0.09339 0.89542 0.16465 0.0
O83 O 0.09235 0.82857 0.17086 0.0
C84 C 0.9832 0.89458 0.13537 0.0
O85 O 0.11299 0.91128 0.10534 0.0
O86 O 0.14316 0.85424 0.12271 0.0
C87 C 0.08763 0.79183 0.06424 0.0
Fe88 Fe 0.20309 0.02542 0.44519 0.0
Fe89 Fe 0.13781 0.97039 0.41261 0.0
O90 O 0.19029 0.98271 0.42027 0.0
Fe91 Fe 0.23002 0.95077 0.40406 0.0
O92 O 0.26583 0.95889 0.43774 0.0
O93 O 0.22945 0.9918 0.47433 0.0
O94 O 0.15699 0.02187 0.47095 0.0
C95 C 0.13023 0.99381 0.4754 0.0
C96 C 0.26419 0.02755 0.39519 0.0
O97 O 0.12611 0.96495 0.45524 0.0
C98 C 0.17026 0.95315 0.35349 0.0
O99 O 0.17657 0.06186 0.41821 0.0
O100 O 0.12025 0.02399 0.41235 0.0
O101 O 0.25324 0.99401 0.38159 0.0
O102 O 0.25117 0.03694 0.42328 0.0
C103 C 0.17306 0.89436 0.42708 0.0
O104 O 0.14573 0.97527 0.36951 0.0
O105 O 0.20086 0.93599 0.36713 0.0
C106 C 0.13865 0.0585 0.41045 0.0
O107 O 0.14586 0.91441 0.41181 0.0
O108 O 0.21019 0.9067 0.42687 0.0
C109 C 0.25759 0.96637 0.46709 0.0
Fe110 Fe 0.50478 0.19825 0.4315 0.0
Fe111 Fe 0.55696 0.13209 0.39763 0.0
O112 O 0.5506 0.18398 0.4107 0.0
Fe113 Fe 0.59094 0.22036 0.40411 0.0
O114 O 0.59597 0.23132 0.44708 0.0
O115 O 0.52977 0.23593 0.45864 0.0
O116 O 0.51374 0.15956 0.46301 0.0
C117 C 0.51794 0.12159 0.45717 0.0
C118 C 0.51695 0.26768 0.39462 0.0
O119 O 0.52472 0.10944 0.42879 0.0
C120 C 0.59638 0.17714 0.34764 0.0
O121 O 0.47155 0.16304 0.40777 0.0
O122 O 0.51224 0.13516 0.37071 0.0
O123 O 0.55585 0.26436 0.39825 0.0
O124 O 0.49286 0.23828 0.40212 0.0
C125 C 0.63207 0.14922 0.42595 0.0
O126 O 0.59104 0.14442 0.36366 0.0
O127 O 0.58965 0.21196 0.36029 0.0
C128 C 0.47622 0.14318 0.38138 0.0
O129 O 0.60078 0.12571 0.4248 0.0
O130 O 0.63284 0.18273 0.41002 0.0
C131 C 0.56736 0.24183 0.4661 0.0
Fe132 Fe 0.40345 0.56372 0.41028 0.0
Fe133 Fe 0.31448 0.59648 0.40665 0.0
O134 O 0.35005 0.55773 0.41879 0.0
Fe135 Fe 0.33268 0.51327 0.44 0.0
O136 O 0.38071 0.50655 0.46405 0.0
O137 O 0.41615 0.56231 0.45259 0.0
O138 O 0.40404 0.62055 0.41446 0.0
C139 C 0.37913 0.64358 0.42979 0.0
C140 C 0.38928 0.47721 0.40028 0.0
O141 O 0.34109 0.63497 0.43065 0.0
C142 C 0.26901 0.52696 0.39343 0.0
O143 O 0.39389 0.56564 0.36746 0.0
O144 O 0.3434 0.61089 0.36906 0.0
O145 O 0.35173 0.47933 0.40851 0.0
O146 O 0.41339 0.50775 0.40501 0.0
C147 C 0.28588 0.57263 0.46951 0.0
O148 O 0.2843 0.56015 0.38242 0.0
O149 O 0.28218 0.51129 0.41961 0.0
C150 C 0.37135 0.59164 0.35347 0.0
O151 O 0.27994 0.58943 0.44207 0.0
O152 O 0.31205 0.54412 0.47292 0.0
C153 C 0.41061 0.531 0.46993 0.0
Fe154 Fe 0.98359 0.41092 0.39506 0.0
Fe155 Fe 0.951 0.32165 0.40315 0.0
O156 O 0.98907 0.36014 0.41107 0.0
Fe157 Fe 0.03254 0.34926 0.43576 0.0
O158 O 1.01815 0.38911 0.46468 0.0
O159 O 1.01162 0.43637 0.42733 0.0
O160 O 0.93689 0.41845 0.41848 0.0
C161 C 0.90612 0.39429 0.42003 0.0
C162 C 0.06582 0.39873 0.38485 0.0
O163 O 0.90716 0.35824 0.40752 0.0
C164 C 0.02907 0.27875 0.39895 0.0
O165 O 0.9533 0.3963 0.35979 0.0
O166 O 0.95466 0.32878 0.35915 0.0
O167 O 0.06716 0.38399 0.41333 0.0
O168 O 0.03137 0.40642 0.37134 0.0
C169 C 0.96895 0.30263 0.4669 0.0
O170 O 0.98949 0.27905 0.39925 0.0
O171 O 0.04975 0.3093 0.40882 0.0
C172 C 0.94817 0.36272 0.34509 0.0
O173 O 0.94238 0.31075 0.44569 0.0
O174 O 1.00663 0.31165 0.4624 0.0
C175 C 1.01446 0.42645 0.45666 0.0
Fe176 Fe 0.3216 0.93406 0.90067 0.0
Fe177 Fe 0.41268 0.96279 0.89755 0.0
O178 O 0.36129 0.96932 0.91217 0.0
Fe179 Fe 0.35067 1.01084 0.93897 0.0
O180 O 0.31041 0.98362 0.96317 0.0
O181 O 0.30892 0.92163 0.94212 0.0
O182 O 0.35608 0.88827 0.90276 0.0
C183 C 0.39177 0.88415 0.9156 0.0
C184 C 0.28226 1.01377 0.89969 0.0
O185 O 0.41674 0.91397 0.91781 0.0
C186 C 0.40722 0.04593 0.89243 0.0
O187 O 0.33089 0.94203 0.85744 0.0
O188 O 0.39842 0.93732 0.85996 0.0
O189 O 0.31309 0.03199 0.91176 0.0
O190 O 0.28064 0.97442 0.89819 0.0
C191 C 0.4259 0.98848 0.96145 0.0
O192 O 0.41215 1.01249 0.87697 0.0
O193 O 0.38877 0.04609 0.91972 0.0
C194 C 0.36529 0.93517 0.84409 0.0
O195 O 0.43745 0.98573 0.93243 0.0
O196 O 0.38815 0.9926 0.96831 0.0
C197 C 0.30098 0.94565 0.96513 0.0
Fe198 Fe 0.54471 0.40225 0.90338 0.0
Fe199 Fe 0.49988 0.33364 0.94015 0.0
O200 O 0.54359 0.35039 0.91743 0.0
Fe201 Fe 0.58567 0.31632 0.90961 0.0
O202 O 0.62589 0.35677 0.91676 0.0
O203 O 0.59004 0.41326 0.92728 0.0
O204 O 0.51432 0.42237 0.93666 0.0
C205 C 0.51147 0.41004 0.96552 0.0
C206 C 0.58656 0.36083 0.85235 0.0
O207 O 0.50944 0.37196 0.97175 0.0
C208 C 0.51157 0.26743 0.8996 0.0
O209 O 0.49815 0.3951 0.87885 0.0
O210 O 0.46302 0.3672 0.91901 0.0
O211 O 0.58478 0.32575 0.8657 0.0
O212 O 0.57618 0.39265 0.86776 0.0
C213 C 0.56518 0.29081 0.9717 0.0
O214 O 0.48791 0.29511 0.91034 0.0
O215 O 0.55098 0.27059 0.90226 0.0
C216 C 0.46388 0.385 0.89162 0.0
O217 O 0.52734 0.29604 0.96533 0.0
O218 O 0.59255 0.30339 0.95232 0.0
C219 C 0.62325 0.39303 0.92876 0.0
Fe220 Fe 0.22726 0.60003 0.89779 0.0
Fe221 Fe 0.13725 0.57045 0.89989 0.0
O222 O 0.1896 0.56343 0.91112 0.0
Fe223 Fe 0.20388 0.52159 0.93638 0.0
O224 O 0.2258 0.55662 0.9672 0.0
O225 O 0.26094 0.59507 0.93317 0.0
O226 O 0.20072 0.64085 0.92 0.0
C227 C 0.1628 0.6494 0.91712 0.0
C228 C 0.26908 0.52724 0.8895 0.0
O229 O 0.14007 0.62704 0.89937 0.0
C230 C 0.14509 0.4827 0.89823 0.0
O231 O 0.2003 0.61259 0.85937 0.0
O232 O 0.15046 0.5664 0.85759 0.0
O233 O 0.25412 0.51471 0.91631 0.0
O234 O 0.25658 0.56035 0.87627 0.0
C235 C 0.12648 0.54712 0.96242 0.0
O236 O 0.12414 0.51553 0.89875 0.0
O237 O 0.18223 0.48276 0.90833 0.0
C238 C 0.17382 0.59184 0.84346 0.0
O239 O 0.12087 0.57462 0.94141 0.0
O240 O 0.1558 0.52152 0.95992 0.0
C241 C 0.25236 0.5847 0.96192 0.0
Fe242 Fe 0.0338 0.18882 0.93938 0.0
Fe243 Fe 0.95775 0.22513 0.90406 0.0
O244 O 0.98996 0.18245 0.9141 0.0
Fe245 Fe 0.9768 0.13248 0.89932 0.0
O246 O 0.96984 0.11217 0.93966 0.0
O247 O 0.02717 0.13927 0.95965 0.0
O248 O 1.00324 0.21116 0.97206 0.0
C249 C 0.97785 0.24047 0.96986 0.0
C250 C 0.0649 0.13016 0.89822 0.0
O251 O 0.96485 0.25256 0.94259 0.0
C252 C 0.96171 0.17767 0.8455 0.0
O253 O 0.04729 0.23954 0.92338 0.0
O254 O 1.00103 0.25434 0.8856 0.0
O255 O 0.02974 0.11302 0.89784 0.0
O256 O 0.06893 0.16638 0.90927 0.0
C257 C 0.90098 0.16348 0.91814 0.0
O258 O 0.94403 0.20475 0.86307 0.0
O259 O 0.98344 0.14986 0.85818 0.0
C260 C 0.03581 0.26089 0.89934 0.0
O261 O 0.91349 0.19976 0.92375 0.0
O262 O 0.92087 0.14157 0.89833 0.0
C263 C 0.99708 0.1142 0.96141 0.0
Fe264 Fe 0.90428 0.07851 0.62068 0.0
Fe265 Fe 0.84284 1.01613 0.59174 0.0
O266 O 0.85253 0.06343 0.61208 0.0
Fe267 Fe 0.81052 0.09602 0.62315 0.0
O268 O 0.83096 0.13749 0.59795 0.0
O269 O 0.89534 0.13389 0.61453 0.0
O270 O 0.91922 0.07631 0.57848 0.0
C271 C 0.91702 0.04405 0.5616 0.0
C272 C 0.86733 0.10541 0.67612 0.0
O273 O 0.89085 1.01622 0.56819 0.0
C274 C 0.77793 0.01986 0.63784 0.0
O275 O 0.92276 0.02572 0.62794 0.0
O276 O 0.86716 0.98659 0.62396 0.0
O277 O 0.83579 0.1169 0.66015 0.0
O278 O 0.89373 0.08191 0.66349 0.0
C279 C 0.78796 0.06675 0.56079 0.0
O280 O 0.79338 1.00682 0.61165 0.0
O281 O 0.78636 0.05574 0.64831 0.0
C282 C 0.90437 0.99158 0.63269 0.0
O283 O 0.81804 0.04227 0.55803 0.0
O284 O 0.77825 0.08206 0.58803 0.0
C285 C 0.86751 0.1515 0.59808 0.0
Fe286 Fe 0.5428 0.84567 0.59147 0.0
Fe287 Fe 0.45922 0.81633 0.61952 0.0
O288 O 0.49678 0.85572 0.61351 0.0
Fe289 Fe 0.48819 0.90631 0.62873 0.0
O290 O 0.51756 0.93247 0.59719 0.0
O291 O 0.52937 0.88436 0.56124 0.0
O292 O 0.52015 0.80636 0.56406 0.0
C293 C 0.48289 0.79768 0.55719 0.0
C294 C 0.56958 0.89943 0.64273 0.0
O295 O 0.45423 0.80665 0.57653 0.0
C296 C 0.45151 0.85653 0.67732 0.0
O297 O 0.55861 0.80657 0.61995 0.0
O298 O 0.49836 0.77452 0.62441 0.0
O299 O 0.53367 0.90378 0.6545 0.0
O300 O 0.57448 0.88266 0.61509 0.0
C301 C 0.41262 0.8879 0.60239 0.0
O302 O 0.45993 0.82285 0.66352 0.0
O303 O 0.45626 0.89041 0.66286 0.0
C304 C 0.53775 0.77489 0.62737 0.0
O305 O 0.4144 0.85158 0.61423 0.0
O306 O 0.44307 0.91228 0.60367 0.0
C307 C 0.52305 0.92174 0.5682 0.0
Fe308 Fe 0.633 0.46037 0.62075 0.0
Fe309 Fe 0.69958 0.51429 0.58826 0.0
O310 O 0.68584 0.47086 0.61229 0.0
Fe311 Fe 0.72472 0.43678 0.62697 0.0
O312 O 0.70247 0.39419 0.60446 0.0
O313 O 0.63839 0.40386 0.61983 0.0
O314 O 0.62001 0.45694 0.57832 0.0
C315 C 0.62438 0.48642 0.55881 0.0
C316 C 0.66651 0.44018 0.67913 0.0
O317 O 0.65234 0.51339 0.56335 0.0
C318 C 0.76361 0.51109 0.63621 0.0
O319 O 0.61766 0.51491 0.62265 0.0
O320 O 0.67544 0.5504 0.61668 0.0
O321 O 0.69641 0.42256 0.66474 0.0
O322 O 0.64211 0.46317 0.6638 0.0
C323 C 0.75164 0.45485 0.56326 0.0
O324 O 0.74901 0.52321 0.60928 0.0
O325 O 0.75085 0.47798 0.64934 0.0
C326 C 0.63755 0.54867 0.62471 0.0
O327 O 0.72405 0.48148 0.55766 0.0
O328 O 0.75945 0.44378 0.59206 0.0
C329 C 0.66514 0.38287 0.6047 0.0
Fe330 Fe 0.99907 0.7044 0.58817 0.0
Fe331 Fe 0.08096 0.72596 0.62329 0.0
O332 O 0.04183 0.6897 0.61241 0.0
Fe333 Fe 0.04588 0.63726 0.62444 0.0
O334 O 1.0175 0.61682 0.5905 0.0
O335 O 1.01319 0.66775 0.55632 0.0
O336 O 0.02641 0.74412 0.56461 0.0
C337 C 0.06448 0.75167 0.56061 0.0
C338 C 0.96367 0.64946 0.63495 0.0
O339 O 0.0905 0.741 0.58157 0.0
C340 C 0.08161 0.67841 0.67815 0.0
O341 O 0.9827 0.74157 0.61789 0.0
O342 O 0.04383 0.76872 0.62982 0.0
O343 O 0.99786 0.63983 0.64815 0.0
O344 O 0.96311 0.66802 0.6078 0.0
C345 C 0.12405 0.65554 0.60101 0.0
O346 O 0.0767 0.71415 0.66662 0.0
O347 O 0.07573 0.64714 0.66069 0.0
C348 C 1.00437 0.76985 0.63044 0.0
O349 O 0.12362 0.68896 0.61725 0.0
O350 O 0.09285 0.63176 0.6005 0.0
C351 C 1.01736 0.62975 0.56189 0.0
H352 H 0.63486 0.15656 0.19943 0.0
H353 H 0.71797 0.06444 0.23678 0.0
H354 H 0.70133 0.08575 0.29242 0.0
H355 H 0.65742 0.12558 0.32988 0.0
H356 H 0.57611 0.21931 0.29254 0.0
H357 H 0.59822 0.20288 0.23706 0.0
C358 C 0.6497 0.14154 0.21982 0.0
C359 C 0.6771 0.10858 0.21426 0.0
C360 C 0.64018 0.15418 0.25148 0.0
C361 C 0.69676 0.08977 0.24063 0.0
C362 C 0.68707 0.10184 0.27233 0.0
C363 C 0.64505 0.14282 0.30956 0.0
C364 C 0.61481 0.17325 0.31504 0.0
C365 C 0.658 0.13323 0.27798 0.0
C366 C 0.59941 0.19585 0.28877 0.0
C367 C 0.61184 0.18622 0.25714 0.0
H368 H 0.451 0.60682 0.21501 0.0
H369 H 0.40989 0.73274 0.22378 0.0
H370 H 0.37867 0.71668 0.27669 0.0
H371 H 0.36431 0.6662 0.32126 0.0
H372 H 0.40477 0.54029 0.30945 0.0
H373 H 0.4341 0.55691 0.25679 0.0
C374 C 0.4356 0.63105 0.22851 0.0
C375 C 0.43348 0.67116 0.21556 0.0
C376 C 0.41696 0.62136 0.25832 0.0
C377 C 0.41244 0.7017 0.23328 0.0
C378 C 0.39436 0.69244 0.26347 0.0
C379 C 0.37887 0.64235 0.30683 0.0
C380 C 0.38238 0.60203 0.31943 0.0
C381 C 0.39634 0.65225 0.27628 0.0
C382 C 0.40176 0.57158 0.30051 0.0
C383 C 0.41878 0.58107 0.27038 0.0
H384 H 0.88497 0.41047 0.32579 0.0
H385 H 0.97239 0.32088 0.29058 0.0
H386 H 0.95146 0.33584 0.23457 0.0
H387 H 0.91385 0.38007 0.19592 0.0
H388 H 0.82481 0.46806 0.23123 0.0
H389 H 0.84046 0.44782 0.28724 0.0
C390 C 0.89889 0.3937 0.30581 0.0
C391 C 0.93045 0.36487 0.31211 0.0
C392 C 0.88665 0.4025 0.2739 0.0
C393 C 0.94798 0.34301 0.28624 0.0
C394 C 0.93623 0.35185 0.25429 0.0
C395 C 0.8975 0.39444 0.21592 0.0
C396 C 0.86864 0.42598 0.20961 0.0
C397 C 0.90649 0.38239 0.24786 0.0
C398 C 0.84713 0.44384 0.23556 0.0
C399 C 0.85626 0.43239 0.26751 0.0
H400 H 0.17613 0.87832 0.32289 0.0
H401 H 0.13576 1.00395 0.30969 0.0
H402 H 0.10766 0.98643 0.25663 0.0
H403 H 0.0931 0.93605 0.21491 0.0
H404 H 0.13158 0.80957 0.22622 0.0
H405 H 0.16085 0.82645 0.27967 0.0
C406 C 0.16179 0.90187 0.30805 0.0
C407 C 0.15841 0.94253 0.31995 0.0
C408 C 0.14463 0.89126 0.27771 0.0
C409 C 0.13892 0.97259 0.30092 0.0
C410 C 0.12264 0.96254 0.2707 0.0
C411 C 0.10784 0.91194 0.22895 0.0
C412 C 0.11027 0.87158 0.21645 0.0
C413 C 0.12494 0.92199 0.25907 0.0
C414 C 0.12905 0.84081 0.23531 0.0
C415 C 0.14612 0.85059 0.26572 0.0
H416 H 0.41041 0.8703 0.82515 0.0
H417 H 0.3268 0.96286 0.78918 0.0
H418 H 0.3431 0.94253 0.73323 0.0
H419 H 0.38816 0.90476 0.69536 0.0
H420 H 0.47147 0.81193 0.73138 0.0
H421 H 0.44779 0.82549 0.78695 0.0
C422 C 0.39526 0.88552 0.80498 0.0
C423 C 0.36795 0.91842 0.81098 0.0
C424 C 0.40496 0.87375 0.77319 0.0
C425 C 0.34791 0.93754 0.78496 0.0
C426 C 0.35747 0.92607 0.75309 0.0
C427 C 0.40058 0.88702 0.7154 0.0
C428 C 0.43193 0.85782 0.70959 0.0
C429 C 0.38698 0.8952 0.74702 0.0
C430 C 0.44737 0.83449 0.73543 0.0
C431 C 0.43404 0.8425 0.76711 0.0
H432 H 0.59409 0.43303 0.82009 0.0
H433 H 0.61947 0.30305 0.80974 0.0
H434 H 0.65015 0.31626 0.75608 0.0
H435 H 0.66805 0.36552 0.71123 0.0
H436 H 0.63982 0.49458 0.72352 0.0
H437 H 0.61281 0.48096 0.77763 0.0
C438 C 0.60626 0.40727 0.80632 0.0
C439 C 0.60417 0.36695 0.81914 0.0
C440 C 0.62387 0.41512 0.77584 0.0
C441 C 0.62032 0.33435 0.80055 0.0
C442 C 0.63807 0.34197 0.76989 0.0
C443 C 0.65671 0.39063 0.72611 0.0
C444 C 0.65628 0.43116 0.71348 0.0
C445 C 0.64001 0.38234 0.75722 0.0
C446 C 0.64067 0.46327 0.73272 0.0
C447 C 0.625 0.45545 0.76361 0.0
H448 H 0.16654 0.66888 0.817 0.0
H449 H 0.15463 0.53903 0.79557 0.0
H450 H 0.1246 0.55507 0.74293 0.0
H451 H 0.09823 0.6047 0.70496 0.0
H452 H 0.10773 0.73538 0.72431 0.0
H453 H 0.14155 0.72029 0.77638 0.0
C454 C 0.15824 0.64429 0.80036 0.0
C455 C 0.16317 0.60278 0.80984 0.0
C456 C 0.13973 0.65381 0.77033 0.0
C457 C 0.1514 0.57109 0.78858 0.0
C458 C 0.13395 0.58026 0.75865 0.0
C459 C 0.10757 0.63024 0.72035 0.0
C460 C 0.10015 0.67124 0.71065 0.0
C461 C 0.12723 0.62137 0.74964 0.0
C462 C 0.11272 0.70355 0.73121 0.0
C463 C 0.13229 0.69489 0.76087 0.0
H464 H 0.88592 0.18622 0.81602 0.0
H465 H 1.01326 0.15382 0.79783 0.0
H466 H 0.99508 0.12924 0.74384 0.0
H467 H 0.94291 0.11163 0.70372 0.0
H468 H 0.8149 0.14284 0.72007 0.0
H469 H 0.83328 0.17295 0.77287 0.0
C470 C 0.90974 0.17483 0.79982 0.0
C471 C 0.951 0.17206 0.81084 0.0
C472 C 0.89881 0.15964 0.76883 0.0
C473 C 0.98141 0.15643 0.78986 0.0
C474 C 0.97098 0.14205 0.75908 0.0
C475 C 0.91882 0.12487 0.71878 0.0
C476 C 0.8774 0.12424 0.70812 0.0
C477 C 0.92969 0.14243 0.74869 0.0
C478 C 0.84695 0.14251 0.72778 0.0
C479 C 0.85751 0.15983 0.75793 0.0
H480 H 0.54537 0.05033 0.07 0.0
H481 H 0.63654 1.00926 1.00043 0.0
H482 H 0.58096 0.98763 0.96376 0.0
H483 H 0.50752 0.97788 0.95322 0.0
H484 H 0.41647 1.01823 0.0232 0.0
H485 H 0.47205 0.0408 0.05942 0.0
C486 C 0.55322 0.03672 0.04675 0.0
C487 C 0.59486 0.03092 0.03792 0.0
C488 C 0.52149 0.02331 0.02659 0.0
C489 C 0.60464 1.01403 1.00761 0.0
C490 C 0.57298 1.00128 0.98692 0.0
C491 C 0.49969 0.99149 0.97646 0.0
C492 C 0.45804 0.99665 0.98558 0.0
C493 C 0.53145 1.00516 0.99653 0.0
C494 C 0.44835 1.01382 0.01582 0.0
C495 C 0.48001 0.0271 0.03627 0.0
H496 H 0.46202 0.53714 0.07425 0.0
H497 H 0.52549 0.61846 1.00741 0.0
H498 H 0.5405 0.56035 0.97198 0.0
H499 H 0.53723 0.48761 0.96074 0.0
H500 H 0.4732 0.40427 0.02547 0.0
H501 H 0.45796 0.46229 0.06208 0.0
C502 C 0.47847 0.54211 0.05163 0.0
C503 C 0.49248 0.58192 0.0432 0.0
C504 C 0.48766 0.50839 0.03163 0.0
C505 C 0.51439 0.58805 0.01422 0.0
C506 C 0.52319 0.5549 0.99413 0.0
C507 C 0.51975 0.48196 0.98282 0.0
C508 C 0.50587 0.44198 0.99034 0.0
C509 C 0.51038 0.51509 1.00282 0.0
C510 C 0.48422 0.43492 0.01933 0.0
C511 C 0.47519 0.46807 0.03996 0.0
H512 H 0.04655 0.57091 0.95704 0.0
H513 H 0.13012 0.50073 0.01714 0.0
H514 H 0.07183 0.47642 0.04977 0.0
H515 H 0.99817 0.47483 0.06072 0.0
H516 H 0.91384 0.546 1.00225 0.0
H517 H 0.97181 0.56877 0.96799 0.0
C518 C 0.05212 0.55084 0.97761 0.0
C519 C 0.09257 0.53786 0.98497 0.0
C520 C 1.01848 0.53631 0.99573 0.0
C521 C 0.09925 0.51129 1.01126 0.0
C522 C 0.06599 0.49712 0.02966 0.0
C523 C 0.99235 0.49517 0.04033 0.0
C524 C 0.95205 0.50911 0.03407 0.0
C525 C 0.02561 0.50916 0.02186 0.0
C526 C 0.94469 0.53476 1.00734 0.0
C527 C 0.97783 0.5482 0.98814 0.0
H528 H 0.97866 0.03333 0.95283 0.0
H529 H 0.02408 0.12194 0.0226 0.0
H530 H 0.04256 0.06629 0.05945 0.0
H531 H 0.04941 0.994 0.07023 0.0
H532 H 1.00359 0.90302 1.00248 0.0
H533 H 0.98307 0.95859 0.96528 0.0
C534 C 0.99165 0.04025 0.97647 0.0
C535 C 0.99987 0.08135 0.98537 0.0
C536 C 1.0032 1.00804 0.99713 0.0
C537 C 1.01744 0.09035 0.01559 0.0
C538 C 0.02832 0.05867 0.03641 0.0
C539 C 0.03475 0.98602 0.04738 0.0
C540 C 0.02775 0.94456 0.03911 0.0
C541 C 0.02211 1.0176 0.02707 0.0
C542 C 1.00947 0.93482 1.00921 0.0
C543 C 0.99735 0.96651 0.98822 0.0
H544 H 0.05191 0.9637 0.47237 0.0
H545 H 0.13108 0.04493 0.52787 0.0
H546 H 0.07103 0.07028 0.55781 0.0
H547 H 0.99603 0.07131 0.56656 0.0
H548 H 0.91692 0.99017 0.51105 0.0
H549 H 0.97718 0.96368 0.48188 0.0
C550 C 0.05622 0.98633 0.49147 0.0
C551 C 0.09593 1.00231 0.498 0.0
C552 C 0.02153 1.00166 0.50782 0.0
C553 C 0.10083 0.03202 0.52253 0.0
C554 C 0.0665 0.04685 0.53938 0.0
C555 C 0.99188 0.04841 0.54764 0.0
C556 C 0.95209 0.03315 0.54054 0.0
C557 C 0.02665 0.03254 0.5317 0.0
C558 C 0.94728 1.00269 0.51659 0.0
C559 C 0.98169 0.98726 0.50019 0.0
H560 H 0.5191 0.03947 0.44787 0.0
H561 H 0.51068 0.13179 0.52322 0.0
H562 H 0.51208 0.07714 0.56435 0.0
H563 H 0.51784 1.004 0.57823 0.0
H564 H 0.52788 0.91249 0.50237 0.0
H565 H 0.52453 0.96702 0.46153 0.0
C566 C 0.51741 0.04795 0.47328 0.0
C567 C 0.51483 0.08974 0.48254 0.0
C568 C 0.51908 1.01676 0.49645 0.0
C569 C 0.51247 0.09989 0.51553 0.0
C570 C 0.51355 0.06872 0.53895 0.0
C571 C 0.51942 0.99583 0.55276 0.0
C572 C 0.5233 0.9542 0.54327 0.0
C573 C 0.5173 0.02717 0.52959 0.0
C574 C 0.52523 0.94426 0.51023 0.0
C575 C 0.52309 0.97536 0.48696 0.0
H576 H 0.54977 0.44682 0.55414 0.0
H577 H 0.62067 0.54837 0.51424 0.0
H578 H 0.55966 0.57234 0.4853 0.0
H579 H 0.48637 0.56658 0.47337 0.0
H580 H 0.41459 0.46466 0.5115 0.0
H581 H 0.47598 0.43939 0.54008 0.0
C582 C 0.55213 0.47383 0.53871 0.0
C583 C 0.58986 0.49586 0.5365 0.0
C584 C 0.51667 0.48796 0.52256 0.0
C585 C 0.59216 0.53081 0.51641 0.0
C586 C 0.55718 0.54478 0.50008 0.0
C587 C 0.48376 0.53897 0.48813 0.0
C588 C 0.44566 0.51777 0.49053 0.0
C589 C 0.51919 0.52408 0.50354 0.0
C590 C 0.44336 0.48182 0.50951 0.0
C591 C 0.47853 0.46718 0.52558 0.0
H592 H 0.04371 0.55255 0.56892 0.0
H593 H 0.99324 0.63643 0.49797 0.0
H594 H 0.98842 0.57947 0.4588 0.0
H595 H 0.99487 0.5059 0.44675 0.0
H596 H 0.04247 0.42221 0.51916 0.0
H597 H 0.05083 0.4799 0.55688 0.0
C598 C 0.03145 0.55856 0.5449 0.0
C599 C 1.01809 0.59837 0.53635 0.0
C600 C 0.02773 0.52589 0.52332 0.0
C601 C 1.00347 0.60593 0.50498 0.0
C602 C 1.00048 0.57341 0.48283 0.0
C603 C 1.00724 0.5002 0.47076 0.0
C604 C 1.0182 0.45995 0.48029 0.0
C605 C 1.01185 0.53325 0.49207 0.0
C606 C 0.0337 0.45291 0.51147 0.0
C607 C 0.03868 0.48582 0.53285 0.0
H608 H 0.66648 0.90012 0.12262 0.0
H609 H 0.56896 0.97584 0.16133 0.0
H610 H 0.52425 0.91494 0.1672 0.0
H611 H 0.51006 0.84039 0.15525 0.0
H612 H 0.60987 0.76577 0.11835 0.0
H613 H 0.65605 0.8252 0.11852 0.0
C614 C 0.63572 0.9032 0.13293 0.0
C615 C 0.62121 0.94267 0.14134 0.0
C616 C 0.61019 0.86794 0.13645 0.0
C617 C 0.58122 0.94591 0.15481 0.0
C618 C 0.55542 0.911 0.15798 0.0
C619 C 0.54219 0.83694 0.14817 0.0
C620 C 0.5561 0.79844 0.13644 0.0
C621 C 0.56913 0.87182 0.14812 0.0
C622 C 0.59797 0.79491 0.12715 0.0
C623 C 0.62456 0.82904 0.1271 0.0
H624 H 0.63908 0.66017 0.13121 0.0
H625 H 0.56087 0.552 0.13722 0.0
H626 H 0.62153 0.50794 0.13966 0.0
H627 H 0.69741 0.499 0.13514 0.0
H628 H 0.77542 0.60752 0.13118 0.0
H629 H 0.71491 0.65163 0.13332 0.0
C630 C 0.63526 0.62703 0.1335 0.0
C631 C 0.59512 0.60979 0.13374 0.0
C632 C 0.67057 0.60143 0.1351 0.0
C633 C 0.59114 0.56657 0.13695 0.0
C634 C 0.62598 0.54107 0.13823 0.0
C635 C 0.70126 0.53226 0.13541 0.0
C636 C 0.74127 0.5495 0.13253 0.0
C637 C 0.66596 0.55799 0.13666 0.0
C638 C 0.74524 0.59293 0.13297 0.0
C639 C 0.71049 0.61847 0.13412 0.0
H640 H 0.04706 0.69002 0.13905 0.0
H641 H 0.93985 0.7689 0.14429 0.0
H642 H 0.89452 0.70913 0.14682 0.0
H643 H 0.88388 0.63438 0.14061 0.0
H644 H 0.98949 0.55394 0.1392 0.0
H645 H 0.03631 0.61366 0.14235 0.0
C646 C 1.01393 0.69412 0.14163 0.0
C647 C 0.99719 0.73428 0.14076 0.0
C648 C 0.98736 0.65909 0.14334 0.0
C649 C 0.95393 0.73861 0.14425 0.0
C650 C 0.92769 0.70432 0.14565 0.0
C651 C 0.91712 0.62995 0.14184 0.0
C652 C 0.93312 0.58983 0.13978 0.0
C653 C 0.94386 0.66442 0.14408 0.0
C654 C 0.97633 0.58453 0.1412 0.0
C655 C 1.00317 0.61876 0.14272 0.0
H656 H 0.90185 0.87282 0.13488 0.0
H657 H 0.98364 0.97588 0.15212 0.0
H658 H 0.92452 0.02277 0.15413 0.0
H659 H 0.8495 0.03546 0.14451 0.0
H660 H 0.76846 0.9303 0.13104 0.0
H661 H 0.82674 0.8839 0.13463 0.0
C662 C 0.90657 0.90539 0.13983 0.0
C663 C 0.947 0.92077 0.14328 0.0
C664 C 0.87239 0.93216 0.14132 0.0
C665 C 0.95272 0.96312 0.1497 0.0
C666 C 0.9189 0.99008 0.15058 0.0
C667 C 0.84449 1.0024 0.1431 0.0
C668 C 0.80449 0.98686 0.13663 0.0
C669 C 0.87853 0.97516 0.14553 0.0
C670 C 0.79883 0.94364 0.13523 0.0
C671 C 0.83225 0.91676 0.13728 0.0
H672 H 0.16323 0.13779 0.39477 0.0
H673 H 0.05452 0.0628 0.41218 0.0
H674 H 1.01045 0.12281 0.40655 0.0
H675 H 1.00243 0.19808 0.40129 0.0
H676 H 0.11063 0.2732 0.38284 0.0
H677 H 0.15433 0.2122 0.38364 0.0
C678 C 0.12991 0.13454 0.39705 0.0
C679 C 0.11261 0.09562 0.40416 0.0
C680 C 0.1042 0.16946 0.39354 0.0
C681 C 0.06911 0.09216 0.40672 0.0
C682 C 0.04361 0.12662 0.40355 0.0
C683 C 0.03538 0.201 0.39663 0.0
C684 C 0.05301 0.2404 0.3923 0.0
C685 C 0.06075 0.16562 0.39748 0.0
C686 C 0.09602 0.24339 0.38652 0.0
C687 C 0.12125 0.20845 0.38713 0.0
H688 H 0.39617 0.16729 0.38184 0.0
H689 H 0.474 0.06473 0.35625 0.0
H690 H 0.41308 0.01953 0.35287 0.0
H691 H 0.33886 1.00686 0.36703 0.0
H692 H 0.26282 0.11036 0.39399 0.0
H693 H 0.32123 0.15728 0.38642 0.0
C694 C 0.39967 0.13533 0.37451 0.0
C695 C 0.43964 0.11946 0.36949 0.0
C696 C 0.3646 0.10939 0.37328 0.0
C697 C 0.44362 0.07794 0.36 0.0
C698 C 0.40873 0.05189 0.35845 0.0
C699 C 0.33483 0.03984 0.37005 0.0
C700 C 0.29654 0.05508 0.38121 0.0
C701 C 0.36918 0.06686 0.36641 0.0
C702 C 0.29198 0.09786 0.38551 0.0
C703 C 0.32546 0.12474 0.38137 0.0
H704 H 0.47043 0.45647 0.3899 0.0
H705 H 0.34698 0.40461 0.39177 0.0
H706 H 0.37536 0.33537 0.38684 0.0
H707 H 0.4353 0.28887 0.38797 0.0
H708 H 0.55879 0.34064 0.38629 0.0
H709 H 0.53024 0.41007 0.38471 0.0
C710 C 0.44964 0.43013 0.38868 0.0
C711 C 0.40657 0.43603 0.39167 0.0
C712 C 0.46618 0.39007 0.38612 0.0
C713 C 0.38026 0.40128 0.38984 0.0
C714 C 0.39647 0.36148 0.38709 0.0
C715 C 0.45605 0.31525 0.3867 0.0
C716 C 0.49924 0.3092 0.38765 0.0
C717 C 0.43942 0.35539 0.38614 0.0
C718 C 0.52545 0.34403 0.38577 0.0
C719 C 0.50913 0.38395 0.38501 0.0
H720 H 0.08453 0.47737 0.36536 0.0
H721 H 0.13659 0.35641 0.3788 0.0
H722 H 0.20636 0.38559 0.37823 0.0
H723 H 0.25113 0.44641 0.38461 0.0
H724 H 0.20052 0.56799 0.37179 0.0
H725 H 0.13193 0.538 0.36113 0.0
C726 C 0.11128 0.45733 0.36661 0.0
C727 C 0.10549 0.41475 0.37196 0.0
C728 C 0.15156 0.47463 0.36728 0.0
C729 C 0.14037 0.3892 0.37437 0.0
C730 C 0.18026 0.40594 0.37447 0.0
C731 C 0.22526 0.46623 0.3786 0.0
C732 C 0.23068 0.50927 0.37928 0.0
C733 C 0.18606 0.44876 0.37263 0.0
C734 C 0.19709 0.53472 0.3713 0.0
C735 C 0.1578 0.51755 0.36544 0.0
H736 H 0.38324 0.12376 0.87763 0.0
H737 H 0.49117 0.04885 0.89256 0.0
H738 H 0.53535 0.11067 0.89286 0.0
H739 H 0.54169 0.18736 0.89576 0.0
H740 H 0.43289 0.26075 0.87763 0.0
H741 H 0.39135 0.19877 0.871 0.0
C742 C 0.41659 0.121 0.87995 0.0
C743 C 0.43398 0.08192 0.88478 0.0
C744 C 0.4418 0.15666 0.87986 0.0
C745 C 0.47718 0.07867 0.88823 0.0
C746 C 0.50241 0.11408 0.88871 0.0
C747 C 0.5092 0.18976 0.88948 0.0
C748 C 0.49053 0.22897 0.88795 0.0
C749 C 0.48495 0.1535 0.88547 0.0
C750 C 0.44821 0.23118 0.87965 0.0
C751 C 0.42417 0.19564 0.87586 0.0
H752 H 0.2813 0.44517 0.88914 0.0
H753 H 0.34031 0.56007 0.86331 0.0
H754 H 0.40653 0.52428 0.85595 0.0
H755 H 0.44951 0.46191 0.866 0.0
H756 H 0.38895 0.3481 0.89319 0.0
H757 H 0.32158 0.38146 0.89015 0.0
C758 C 0.30847 0.4622 0.88109 0.0
C759 C 0.30603 0.50522 0.87705 0.0
C760 C 0.34632 0.44152 0.87736 0.0
C761 C 0.34134 0.5269 0.86643 0.0
C762 C 0.3793 0.50645 0.86251 0.0
C763 C 0.42143 0.44413 0.87004 0.0
C764 C 0.42425 0.40254 0.87992 0.0
C765 C 0.38252 0.46396 0.86912 0.0
C766 C 0.3876 0.38009 0.8856 0.0
C767 C 0.34905 0.39924 0.88411 0.0
H768 H 1.01415 0.3384 0.87735 0.0
H769 H 0.11935 0.26459 0.9042 0.0
H770 H 0.16382 0.32557 0.90396 0.0
H771 H 0.17158 0.40156 0.90258 0.0
H772 H 0.06622 0.47525 0.87531 0.0
H773 H 0.0241 0.41348 0.86918 0.0
C774 C 0.04701 0.3355 0.8822 0.0
C775 C 0.06311 0.29678 0.89094 0.0
C776 C 0.07267 0.37115 0.8826 0.0
C777 C 0.10587 0.29395 0.89756 0.0
C778 C 0.13145 0.32896 0.89761 0.0
C779 C 0.13965 0.40411 0.89477 0.0
C780 C 0.12237 0.4435 0.88997 0.0
C781 C 0.11501 0.36804 0.89124 0.0
C782 C 0.08071 0.4457 0.87967 0.0
C783 C 0.05628 0.41019 0.87609 0.0
H784 H 0.20087 0.99059 0.89027 0.0
H785 H 0.28165 0.09717 0.89186 0.0
H786 H 0.22228 0.14281 0.88961 0.0
H787 H 0.14684 0.15319 0.89283 0.0
H788 H 0.06597 0.04674 0.88952 0.0
H789 H 0.12537 1.00121 0.88653 0.0
C790 C 0.20553 0.02374 0.88944 0.0
C791 C 0.24585 0.04011 0.8918 0.0
C792 C 0.17098 0.05028 0.88823 0.0
C793 C 0.25105 0.08337 0.89059 0.0
C794 C 0.21702 0.10974 0.88935 0.0
C795 C 0.14219 0.1201 0.89101 0.0
C796 C 0.10177 0.10375 0.8918 0.0
C797 C 0.17673 0.09364 0.88914 0.0
C798 C 0.09657 0.06059 0.8891 0.0
C799 C 0.13065 0.03425 0.88748 0.0
H800 H 0.87714 0.91371 0.64692 0.0
H801 H 0.98874 0.98661 0.63702 0.0
H802 H 0.03058 0.92438 0.63992 0.0
H803 H 0.03499 0.84844 0.63745 0.0
H804 H 0.92304 0.77597 0.64683 0.0
H805 H 0.88234 0.83857 0.65241 0.0
C806 C 0.91064 0.91611 0.64601 0.0
C807 C 0.92953 0.95485 0.64124 0.0
C808 C 0.93468 0.88007 0.64729 0.0
C809 C 0.97312 0.95727 0.6405 0.0
C810 C 0.99722 0.92159 0.64198 0.0
C811 C 1.00186 0.84632 0.64154 0.0
C812 C 0.98213 0.8075 0.64114 0.0
C813 C 0.97828 0.88266 0.64424 0.0
C814 C 0.93907 0.80543 0.64652 0.0
C815 C 0.91564 0.84127 0.64965 0.0
H816 H 0.64997 0.87781 0.64911 0.0
H817 H 0.5664 0.97948 0.6627 0.0
H818 H 0.6251 0.02706 0.6685 0.0
H819 H 0.70016 0.04103 0.65948 0.0
H820 H 0.78272 0.93812 0.64691 0.0
H821 H 0.72499 0.8899 0.65197 0.0
C822 C 0.64473 0.91016 0.65443 0.0
C823 C 0.60404 0.92513 0.65532 0.0
C824 C 0.67861 0.93731 0.6577 0.0
C825 C 0.59752 0.96714 0.66217 0.0
C826 C 0.63112 0.99446 0.66518 0.0
C827 C 0.70562 1.00804 0.65928 0.0
C828 C 0.7456 0.99317 0.65254 0.0
C829 C 0.67187 0.98018 0.66164 0.0
C830 C 0.75216 0.95029 0.65193 0.0
C831 C 0.7191 0.92264 0.65453 0.0
H832 H 0.50827 0.69507 0.6319 0.0
H833 H 0.62108 0.76689 0.63688 0.0
H834 H 0.66187 0.70401 0.63824 0.0
H835 H 0.66649 0.62823 0.63321 0.0
H836 H 0.55358 0.55642 0.6295 0.0
H837 H 0.51267 0.61907 0.63267 0.0
C838 C 0.5417 0.69704 0.63389 0.0
C839 C 0.56125 0.73604 0.63393 0.0
C840 C 0.5654 0.66045 0.63455 0.0
C841 C 0.60482 0.73756 0.63652 0.0
C842 C 0.62842 0.70146 0.63721 0.0
C843 C 0.63296 0.6262 0.63351 0.0
C844 C 0.6135 0.58731 0.63083 0.0
C845 C 0.60918 0.66267 0.63543 0.0
C846 C 0.56982 0.58565 0.63145 0.0
C847 C 0.54615 0.62164 0.63318 0.0
H848 H 0.94654 0.57212 0.65974 0.0
H849 H 0.89001 0.68771 0.63365 0.0
H850 H 0.82156 0.65587 0.63593 0.0
H851 H 0.77897 0.59309 0.63623 0.0
H852 H 0.83365 0.47678 0.66218 0.0
H853 H 0.90111 0.51075 0.66948 0.0
C854 C 0.9191 0.59059 0.65577 0.0
C855 C 0.92344 0.63226 0.64636 0.0
C856 C 0.87944 0.5717 0.65645 0.0
C857 C 0.88755 0.65561 0.64083 0.0
C858 C 0.84834 0.63734 0.64189 0.0
C859 C 0.80545 0.57537 0.64431 0.0
C860 C 0.80136 0.53246 0.64842 0.0
C861 C 0.84407 0.59507 0.64824 0.0
C862 C 0.83589 0.5099 0.65902 0.0
C863 C 0.8746 0.52931 0.66292 0.0
H864 H 0.58312 0.16705 0.08908 0.0
H865 H 0.71215 0.19936 0.07922 0.0
H866 H 0.69463 0.2498 0.03702 0.0
H867 H 0.64262 0.2797 0.99901 0.0
H868 H 0.51381 0.2458 1.01047 0.0
H869 H 0.53139 0.20112 0.05563 0.0
C870 C 0.60747 0.18566 0.07819 0.0
C871 C 0.64901 0.17911 0.08727 0.0
C872 C 0.59719 0.21397 0.05369 0.0
C873 C 0.67996 0.20379 0.07292 0.0
C874 C 0.66992 0.23235 0.04848 0.0
C875 C 0.61838 0.26274 1.01153 0.0
C876 C 0.57687 0.26598 1.00084 0.0
C877 C 0.62869 0.23686 0.03797 0.0
C878 C 0.54596 0.24402 0.01778 0.0
C879 C 0.55597 0.21833 0.04375 0.0
H880 H 0.26992 0.55767 0.02436 0.0
H881 H 0.28508 0.66162 0.95994 0.0
H882 H 0.32535 0.69809 1.00075 0.0
H883 H 0.36086 0.69918 0.05312 0.0
H884 H 0.3499 0.59471 0.11729 0.0
H885 H 0.30352 0.56039 0.07876 0.0
C886 C 0.28176 0.5884 0.01941 0.0
C887 C 0.27469 0.60648 0.98878 0.0
C888 C 0.30587 0.60935 0.04308 0.0
C889 C 0.29043 0.64646 0.98296 0.0
C890 C 0.31344 0.66757 1.0064 0.0
C891 C 0.34769 0.66931 0.0591 0.0
C892 C 0.35883 0.64991 0.08837 0.0
C893 C 0.32197 0.64915 0.03635 0.0
C894 C 0.34183 0.61069 0.09513 0.0
C895 C 0.31541 0.59084 0.07295 0.0
H896 H 0.96267 0.36499 0.08632 0.0
H897 H 0.83264 0.33958 0.07301 0.0
H898 H 0.84925 0.2885 0.03112 0.0
H899 H 0.90109 0.25663 0.99412 0.0
H900 H 0.03101 0.27872 1.01084 0.0
H901 H 1.01429 0.32557 0.05553 0.0
C902 C 0.93794 0.34765 0.07476 0.0
C903 C 0.89638 0.35666 0.0824 0.0
C904 C 0.94781 0.31817 0.05096 0.0
C905 C 0.86482 0.3335 0.06746 0.0
C906 C 0.87434 0.30449 0.04332 0.0
C907 C 0.92561 0.27137 1.00791 0.0
C908 C 0.96723 0.26472 0.99909 0.0
C909 C 0.9157 0.29752 0.03415 0.0
C910 C 0.99883 0.28347 0.01725 0.0
C911 C 0.98925 0.3103 0.04273 0.0
H912 H 0.26786 0.98676 0.01774 0.0
H913 H 0.2816 0.86493 0.97681 0.0
H914 H 0.24073 0.83548 0.02056 0.0
H915 H 0.19464 0.8446 0.0676 0.0
H916 H 0.17629 0.96639 0.10652 0.0
H917 H 0.2256 0.99506 0.06739 0.0
C918 C 0.2623 0.95375 0.01856 0.0
C919 C 0.27793 0.92842 0.99365 0.0
C920 C 0.23782 0.93672 0.04377 0.0
C921 C 0.27016 0.88555 0.99538 0.0
C922 C 0.24664 0.86845 0.02052 0.0
C923 C 0.20254 0.87713 0.06817 0.0
C924 C 0.18222 0.90316 0.09023 0.0
C925 C 0.2296 0.89375 0.04455 0.0
C926 C 0.1919 0.94558 0.09003 0.0
C927 C 0.21979 0.96209 0.06739 0.0
H928 H 0.09451 0.8677 0.43962 0.0
H929 H 0.2221 0.84487 0.46478 0.0
H930 H 0.1998 0.79741 0.50747 0.0
H931 H 0.14394 0.76673 0.54052 0.0
H932 H 1.01647 0.79089 0.51569 0.0
H933 H 0.03899 0.83351 0.47016 0.0
C934 C 0.11758 0.85182 0.45399 0.0
C935 C 0.16001 0.86004 0.44887 0.0
C936 C 0.10453 0.82521 0.47898 0.0
C937 C 0.18927 0.83921 0.46802 0.0
C938 C 0.17651 0.81222 0.49264 0.0
C939 C 0.12103 0.78114 0.5251 0.0
C940 C 0.07849 0.77582 0.53187 0.0
C941 C 0.1342 0.80575 0.49885 0.0
C942 C 0.04937 0.79448 0.51128 0.0
C943 C 0.06223 0.81891 0.48517 0.0
H944 H 0.76973 0.14052 0.53423 0.0
H945 H 0.74557 1.01027 0.52487 0.0
H946 H 0.69572 0.02374 0.48129 0.0
H947 H 0.65633 0.07335 0.44784 0.0
H948 H 0.68533 0.20321 0.4545 0.0
H949 H 0.73618 0.18926 0.49674 0.0
C950 C 0.75374 0.11518 0.52236 0.0
C951 C 0.76086 0.07455 0.53271 0.0
C952 C 0.72605 0.12314 0.49683 0.0
C953 C 0.74046 0.04178 0.51712 0.0
C954 C 0.71194 0.04951 0.49232 0.0
C955 C 0.67422 0.09847 0.45824 0.0
C956 C 0.66686 0.13929 0.44808 0.0
C957 C 0.70411 0.09014 0.48221 0.0
C958 C 0.69047 0.1715 0.46169 0.0
C959 C 0.71943 0.16359 0.48603 0.0
H960 H 0.40789 0.78932 0.52833 0.0
H961 H 0.5342 0.74763 0.52142 0.0
H962 H 0.51419 0.69856 0.47892 0.0
H963 H 0.45914 0.66294 0.44736 0.0
H964 H 0.33302 0.70554 0.45561 0.0
H965 H 0.35478 0.75884 0.49354 0.0
C966 C 0.43123 0.76986 0.51732 0.0
C967 C 0.47245 0.77198 0.52835 0.0
C968 C 0.41946 0.74161 0.49311 0.0
C969 C 0.50226 0.74675 0.51345 0.0
C970 C 0.49076 0.71849 0.48923 0.0
C971 C 0.43657 0.6844 0.45695 0.0
C972 C 0.39438 0.67987 0.44862 0.0
C973 C 0.44923 0.71499 0.47933 0.0
C974 C 0.36561 0.70794 0.46157 0.0
C975 C 0.37799 0.73848 0.48342 0.0
H976 H 0.86705 0.35313 0.46846 0.0
H977 H 0.86624 0.46798 0.41605 0.0
H978 H 0.81543 0.49622 0.45417 0.0
H979 H 0.77576 0.49034 0.50555 0.0
H980 H 0.78319 0.37761 0.56075 0.0
H981 H 0.82651 0.34663 0.51885 0.0
C982 C 0.85483 0.3839 0.46494 0.0
C983 C 0.86968 0.40811 0.43907 0.0
C984 C 0.82725 0.40065 0.48797 0.0
C985 C 0.85473 0.44853 0.43547 0.0
C986 C 0.82594 0.46479 0.45744 0.0
C987 C 0.78657 0.45889 0.50819 0.0
C988 C 0.77634 0.43645 0.53639 0.0
C989 C 0.81267 0.44152 0.48429 0.0
C990 C 0.79092 0.39578 0.53952 0.0
C991 C 0.81562 0.37792 0.51547 0.0
H992 H 0.49148 0.75534 0.99648 0.0
H993 H 0.38721 0.77435 0.06013 0.0
H994 H 0.35114 0.81218 0.01785 0.0
H995 H 0.35301 0.84824 0.96575 0.0
H996 H 0.46005 0.8375 0.90429 0.0
H997 H 0.49082 0.78775 0.9419 0.0
C998 C 0.46065 0.76727 1.00079 0.0
C999 C 0.44225 0.76231 0.0315 0.0
C1000 C 0.44049 0.79056 0.97659 0.0
C1001 C 0.40232 0.77817 0.03684 0.0
C1002 C 0.38153 0.79974 1.01263 0.0
C1003 C 0.38221 0.83361 0.96002 0.0
C1004 C 0.40376 0.8456 0.93201 0.0
C1005 C 0.40074 0.80717 0.98275 0.0
C1006 C 0.44253 0.82791 0.92543 0.0
C1007 C 0.46035 0.79992 0.94717 0.0
H1008 H 0.69014 0.35567 0.95717 0.0
H1009 H 0.63528 0.47494 0.94077 0.0
H1010 H 0.68587 0.50713 0.97664 0.0
H1011 H 0.74181 0.50077 0.01727 0.0
H1012 H 0.79515 0.38107 0.0345 0.0
H1013 H 0.74986 0.3503 0.99402 0.0
C1014 C 0.68983 0.3888 0.96087 0.0
C1015 C 0.65872 0.41262 0.94624 0.0
C1016 C 0.71868 0.40727 0.9822 0.0
C1017 C 0.65865 0.4556 0.95175 0.0
C1018 C 0.6876 0.47418 0.97241 0.0
C1019 C 0.74399 0.46814 1.01173 0.0
C1020 C 0.77165 0.44333 0.02934 0.0
C1021 C 0.71717 0.45024 0.98848 0.0
C1022 C 0.77381 0.40095 0.02179 0.0
C1023 C 0.74788 0.38319 0.99851 0.0
H1024 H 0.05044 0.75786 1.00968 0.0
H1025 H 0.16932 0.77532 0.05591 0.0
H1026 H 0.2031 0.73748 1.01305 0.0
H1027 H 0.19951 0.69502 0.96446 0.0
H1028 H 0.08169 0.6745 0.91783 0.0
H1029 H 0.04759 0.71789 0.95821 0.0
C1030 C 0.08371 0.75356 1.01026 0.0
C1031 C 0.1069 0.76951 0.03638 0.0
C1032 C 0.10351 0.73104 0.9853 0.0
C1033 C 0.1502 0.76358 0.03643 0.0
C1034 C 0.16986 0.74178 1.01179 0.0
C1035 C 0.16649 0.7006 0.96268 0.0
C1036 C 0.14339 0.68143 0.93802 0.0
C1037 C 0.14686 0.72487 0.98635 0.0
C1038 C 0.10047 0.68891 0.93644 0.0
C1039 C 0.08079 0.71356 0.95971 0.0
H1040 H 0.78478 0.04945 1.00526 0.0
H1041 H 0.7743 0.16456 0.05754 0.0
H1042 H 0.81503 0.19956 0.01679 0.0
H1043 H 0.8577 0.19803 0.96801 0.0
H1044 H 0.87057 0.0842 0.91489 0.0
H1045 H 0.82498 0.04909 0.95352 0.0
C1046 C 0.79118 0.08218 1.00761 0.0
C1047 C 0.77636 0.10381 0.03494 0.0
C1048 C 0.81528 0.10283 0.98372 0.0
C1049 C 0.78512 0.1465 0.03718 0.0
C1050 C 0.80859 0.16692 0.01372 0.0
C1051 C 0.85005 0.16572 0.96447 0.0
C1052 C 0.86774 0.14406 0.93841 0.0
C1053 C 0.82431 0.14542 0.98711 0.0
C1054 C 0.85741 0.10197 0.93457 0.0
C1055 C 0.83145 0.08166 0.95686 0.0
H1056 H 0.8904 0.28274 0.48641 0.0
H1057 H 1.01873 0.26791 0.5131 0.0
H1058 H 0.99827 0.22308 0.55797 0.0
H1059 H 0.94455 0.1837 0.58696 0.0
H1060 H 0.81629 0.19788 0.55984 0.0
H1061 H 0.8362 0.24779 0.51825 0.0
C1062 C 0.91396 0.27008 0.50219 0.0
C1063 C 0.95616 0.27855 0.49605 0.0
C1064 C 0.902 0.2441 0.52795 0.0
C1065 C 0.98607 0.26193 0.51703 0.0
C1066 C 0.97439 0.23617 0.54273 0.0
C1067 C 0.92079 0.19817 0.57237 0.0
C1068 C 0.87892 0.18671 0.57657 0.0
C1069 C 0.93251 0.22644 0.54807 0.0
C1070 C 0.84873 0.20587 0.55722 0.0
C1071 C 0.86012 0.23436 0.53327 0.0
H1072 H 0.37405 0.85296 0.55122 0.0
H1073 H 0.36989 0.95805 0.61487 0.0
H1074 H 0.31793 0.99076 0.5802 0.0
H1075 H 0.27922 0.99266 0.52832 0.0
H1076 H 0.29018 0.89007 0.46227 0.0
H1077 H 0.33341 0.85339 0.50092 0.0
C1078 C 0.36075 0.88242 0.5579 0.0
C1079 C 0.37504 0.90275 0.58578 0.0
C1080 C 0.33258 0.90195 0.53694 0.0
C1081 C 0.35873 0.94161 0.59372 0.0
C1082 C 0.32934 0.96046 0.57374 0.0
C1083 C 0.29077 0.96213 0.52263 0.0
C1084 C 0.28172 0.94435 0.49232 0.0
C1085 C 0.31689 0.9415 0.54472 0.0
C1086 C 0.29708 0.90476 0.48524 0.0
C1087 C 0.32174 0.8836 0.5074 0.0
H1088 H 0.58669 0.36179 0.58603 0.0
H1089 H 0.71463 0.32641 0.57467 0.0
H1090 H 0.69526 0.27785 0.53208 0.0
H1091 H 0.64312 0.25016 0.49456 0.0
H1092 H 0.51531 0.28627 0.50508 0.0
H1093 H 0.53356 0.32956 0.55142 0.0
C1094 C 0.61025 0.34279 0.57479 0.0
C1095 C 0.6521 0.34791 0.58364 0.0
C1096 C 0.59902 0.31543 0.54973 0.0
C1097 C 0.68219 0.32323 0.56844 0.0
C1098 C 0.67118 0.29556 0.54389 0.0
C1099 C 0.61916 0.26726 0.50709 0.0
C1100 C 0.57795 0.26524 0.49601 0.0
C1101 C 0.62987 0.29224 0.53372 0.0
C1102 C 0.5473 0.28727 0.51291 0.0
C1103 C 0.55772 0.31213 0.53945 0.0
H1104 H 0.14936 0.58009 0.57927 0.0
H1105 H 0.17916 0.70984 0.57433 0.0
H1106 H 0.23145 0.69616 0.53287 0.0
H1107 H 0.26639 0.64742 0.49551 0.0
H1108 H 0.24073 0.51725 0.50394 0.0
H1109 H 0.18938 0.53081 0.54631 0.0
C1110 C 0.16776 0.60528 0.56949 0.0
C1111 C 0.16018 0.64596 0.57991 0.0
C1112 C 0.19836 0.5971 0.54597 0.0
C1113 C 0.18445 0.67821 0.56699 0.0
C1114 C 0.21422 0.67045 0.54305 0.0
C1115 C 0.24965 0.62213 0.50685 0.0
C1116 C 0.25698 0.58144 0.49653 0.0
C1117 C 0.22102 0.63009 0.53195 0.0
C1118 C 0.23558 0.5488 0.51159 0.0
C1119 C 0.20618 0.55656 0.53576 0.0
loop_
_geom_bond_atom_site_label_1
_geom_bond_atom_site_label_2
_geom_bond_distance
_geom_bond_site_symmetry_2
_ccdc_geom_bond_type
Fe0 O2 1.918 1_565 S
Fe0 O5 1.997 1_565 S
Fe0 O6 2.002 . S
Fe0 O11 1.976 . S
Fe0 O14 1.996 . S
Fe1 O2 1.918 . S
Fe1 O9 1.997 . S
Fe1 O12 1.996 1_545 S
Fe1 O16 1.976 . S
Fe1 O19 2.002 . S
O2 Fe0 1.918 1_545 S
O2 Fe1 1.918 . S
O2 Fe3 1.918 . S
Fe3 O2 1.918 . S
Fe3 O4 2.002 . S
Fe3 O13 1.976 . S
Fe3 O17 1.996 . S
Fe3 O20 1.997 . S
O4 Fe3 2.002 . S
O4 C21 1.295 . S
O5 Fe0 1.997 1_545 S
O5 C21 1.235 . S
O6 Fe0 2.002 . S
O6 C7 1.295 1_565 S
C7 O6 1.295 1_545 S
C7 O9 1.235 . S
C8 O13 1.287 1_565 S
C8 O14 1.255 . S
O9 Fe1 1.997 . S
O9 C7 1.235 . S
C10 O16 1.287 . S
C10 O17 1.255 . S
O11 Fe0 1.976 . S
O11 C18 1.287 . S
O12 Fe1 1.996 1_565 S
O12 C18 1.255 . S
O13 Fe3 1.976 . S
O13 C8 1.287 1_545 S
O14 Fe0 1.996 . S
O14 C8 1.255 . S
C15 O19 1.295 . S
C15 O20 1.235 . S
O16 Fe1 1.976 . S
O16 C10 1.287 . S
O17 Fe3 1.996 . S
O17 C10 1.255 . S
C18 O11 1.287 . S
C18 O12 1.255 . S
O19 Fe1 2.002 . S
O19 C15 1.295 . S
O20 Fe3 1.997 . S
O20 C15 1.235 . S
C21 O4 1.295 . S
C21 O5 1.235 . S
Fe22 O24 1.918 . S
Fe22 O27 1.997 . S
Fe22 O28 2.002 . S
Fe22 O33 1.976 . S
Fe22 O36 1.996 . S
Fe23 O24 1.918 . S
Fe23 O31 1.997 . S
Fe23 O34 1.996 . S
Fe23 O38 1.976 . S
Fe23 O41 2.002 . S
O24 Fe22 1.918 . S
O24 Fe23 1.918 . S
O24 Fe25 1.918 . S
Fe25 O24 1.918 . S
Fe25 O26 2.002 . S
Fe25 O35 1.976 . S
Fe25 O39 1.996 . S
Fe25 O42 1.997 . S
O26 Fe25 2.002 . S
O26 C43 1.295 . S
O27 Fe22 1.997 . S
O27 C43 1.235 . S
O28 Fe22 2.002 . S
O28 C29 1.295 . S
C29 O28 1.295 . S
C29 O31 1.235 . S
C30 O35 1.287 . S
C30 O36 1.255 . S
O31 Fe23 1.997 . S
O31 C29 1.235 . S
C32 O38 1.287 . S
C32 O39 1.255 . S
O33 Fe22 1.976 . S
O33 C40 1.287 . S
O34 Fe23 1.996 . S
O34 C40 1.255 . S
O35 Fe25 1.976 . S
O35 C30 1.287 . S
O36 Fe22 1.996 . S
O36 C30 1.255 . S
C37 O41 1.295 . S
C37 O42 1.235 . S
O38 Fe23 1.976 . S
O38 C32 1.287 . S
O39 Fe25 1.996 . S
O39 C32 1.255 . S
C40 O33 1.287 . S
C40 O34 1.255 . S
O41 Fe23 2.002 . S
O41 C37 1.295 . S
O42 Fe25 1.997 . S
O42 C37 1.235 . S
C43 O26 1.295 . S
C43 O27 1.235 . S
Fe44 O46 1.918 . S
Fe44 O49 1.997 . S
Fe44 O50 2.002 . S
Fe44 O55 1.976 . S
Fe44 O58 1.996 . S
Fe45 O46 1.918 . S
Fe45 O53 1.997 . S
Fe45 O56 1.996 . S
Fe45 O60 1.976 . S
Fe45 O63 2.002 . S
O46 Fe44 1.918 . S
O46 Fe45 1.918 . S
O46 Fe47 1.918 . S
Fe47 O46 1.918 . S
Fe47 O48 2.002 . S
Fe47 O57 1.976 . S
Fe47 O61 1.996 . S
Fe47 O64 1.997 . S
O48 Fe47 2.002 . S
O48 C65 1.295 . S
O49 Fe44 1.997 . S
O49 C65 1.235 . S
O50 Fe44 2.002 . S
O50 C51 1.295 . S
C51 O50 1.295 . S
C51 O53 1.235 . S
C52 O57 1.287 . S
C52 O58 1.255 . S
O53 Fe45 1.997 . S
O53 C51 1.235 . S
C54 O60 1.287 . S
C54 O61 1.255 . S
O55 Fe44 1.976 . S
O55 C62 1.287 . S
O56 Fe45 1.996 . S
O56 C62 1.255 . S
O57 Fe47 1.976 . S
O57 C52 1.287 . S
O58 Fe44 1.996 . S
O58 C52 1.255 . S
C59 O63 1.295 . S
C59 O64 1.235 . S
O60 Fe45 1.976 . S
O60 C54 1.287 . S
O61 Fe47 1.996 . S
O61 C54 1.255 . S
C62 O55 1.287 . S
C62 O56 1.255 . S
O63 Fe45 2.002 . S
O63 C59 1.295 . S
O64 Fe47 1.997 . S
O64 C59 1.235 . S
C65 O48 1.295 . S
C65 O49 1.235 . S
Fe66 O68 1.918 1_655 S
Fe66 O71 1.997 1_655 S
Fe66 O72 2.002 . S
Fe66 O77 1.976 . S
Fe66 O80 1.996 . S
Fe67 O68 1.918 . S
Fe67 O75 1.997 . S
Fe67 O78 1.996 1_455 S
Fe67 O82 1.976 . S
Fe67 O85 2.002 . S
O68 Fe66 1.918 1_455 S
O68 Fe67 1.918 . S
O68 Fe69 1.918 . S
Fe69 O68 1.918 . S
Fe69 O70 2.002 . S
Fe69 O79 1.976 . S
Fe69 O83 1.996 . S
Fe69 O86 1.997 . S
O70 Fe69 2.002 . S
O70 C87 1.295 . S
O71 Fe66 1.997 1_455 S
O71 C87 1.235 . S
O72 Fe66 2.002 . S
O72 C73 1.295 1_655 S
C73 O72 1.295 1_455 S
C73 O75 1.235 . S
C74 O79 1.287 1_655 S
C74 O80 1.255 . S
O75 Fe67 1.997 . S
O75 C73 1.235 . S
C76 O82 1.287 . S
C76 O83 1.255 . S
O77 Fe66 1.976 . S
O77 C84 1.287 . S
O78 Fe67 1.996 1_655 S
O78 C84 1.255 . S
O79 Fe69 1.976 . S
O79 C74 1.287 1_455 S
O80 Fe66 1.996 . S
O80 C74 1.255 . S
C81 O85 1.295 . S
C81 O86 1.235 . S
O82 Fe67 1.976 . S
O82 C76 1.287 . S
O83 Fe69 1.996 . S
O83 C76 1.255 . S
C84 O77 1.287 . S
C84 O78 1.255 . S
O85 Fe67 2.002 . S
O85 C81 1.295 . S
O86 Fe69 1.997 . S
O86 C81 1.235 . S
C87 O70 1.295 . S
C87 O71 1.235 . S
Fe88 O90 1.918 1_545 S
Fe88 O93 1.997 1_545 S
Fe88 O94 2.002 . S
Fe88 O99 1.976 . S
Fe88 O102 1.996 . S
Fe89 O90 1.918 . S
Fe89 O97 1.997 . S
Fe89 O100 1.996 1_565 S
Fe89 O104 1.976 . S
Fe89 O107 2.002 . S
O90 Fe88 1.918 1_565 S
O90 Fe89 1.918 . S
O90 Fe91 1.918 . S
Fe91 O90 1.918 . S
Fe91 O92 2.002 . S
Fe91 O101 1.976 . S
Fe91 O105 1.996 . S
Fe91 O108 1.997 . S
O92 Fe91 2.002 . S
O92 C109 1.295 . S
O93 Fe88 1.997 1_565 S
O93 C109 1.235 . S
O94 Fe88 2.002 . S
O94 C95 1.295 1_545 S
C95 O94 1.295 1_565 S
C95 O97 1.235 . S
C96 O101 1.287 1_545 S
C96 O102 1.255 . S
O97 Fe89 1.997 . S
O97 C95 1.235 . S
C98 O104 1.287 . S
C98 O105 1.255 . S
O99 Fe88 1.976 . S
O99 C106 1.287 . S
O100 Fe89 1.996 1_545 S
O100 C106 1.255 . S
O101 Fe91 1.976 . S
O101 C96 1.287 1_565 S
O102 Fe88 1.996 . S
O102 C96 1.255 . S
C103 O107 1.295 . S
C103 O108 1.235 . S
O104 Fe89 1.976 . S
O104 C98 1.287 . S
O105 Fe91 1.996 . S
O105 C98 1.255 . S
C106 O99 1.287 . S
C106 O100 1.255 . S
O107 Fe89 2.002 . S
O107 C103 1.295 . S
O108 Fe91 1.997 . S
O108 C103 1.235 . S
C109 O92 1.295 . S
C109 O93 1.235 . S
Fe110 O112 1.918 . S
Fe110 O115 1.997 . S
Fe110 O116 2.002 . S
Fe110 O121 1.976 . S
Fe110 O124 1.996 . S
Fe111 O112 1.918 . S
Fe111 O119 1.997 . S
Fe111 O122 1.996 . S
Fe111 O126 1.976 . S
Fe111 O129 2.002 . S
O112 Fe110 1.918 . S
O112 Fe111 1.918 . S
O112 Fe113 1.918 . S
Fe113 O112 1.918 . S
Fe113 O114 2.002 . S
Fe113 O123 1.976 . S
Fe113 O127 1.996 . S
Fe113 O130 1.997 . S
O114 Fe113 2.002 . S
O114 C131 1.295 . S
O115 Fe110 1.997 . S
O115 C131 1.235 . S
O116 Fe110 2.002 . S
O116 C117 1.295 . S
C117 O116 1.295 . S
C117 O119 1.235 . S
C118 O123 1.287 . S
C118 O124 1.255 . S
O119 Fe111 1.997 . S
O119 C117 1.235 . S
C120 O126 1.287 . S
C120 O127 1.255 . S
O121 Fe110 1.976 . S
O121 C128 1.287 . S
O122 Fe111 1.996 . S
O122 C128 1.255 . S
O123 Fe113 1.976 . S
O123 C118 1.287 . S
O124 Fe110 1.996 . S
O124 C118 1.255 . S
C125 O129 1.295 . S
C125 O130 1.235 . S
O126 Fe111 1.976 . S
O126 C120 1.287 . S
O127 Fe113 1.996 . S
O127 C120 1.255 . S
C128 O121 1.287 . S
C128 O122 1.255 . S
O129 Fe111 2.002 . S
O129 C125 1.295 . S
O130 Fe113 1.997 . S
O130 C125 1.235 . S
C131 O114 1.295 . S
C131 O115 1.235 . S
Fe132 O134 1.918 . S
Fe132 O137 1.997 . S
Fe132 O138 2.002 . S
Fe132 O143 1.976 . S
Fe132 O146 1.996 . S
Fe133 O134 1.918 . S
Fe133 O141 1.997 . S
Fe133 O144 1.996 . S
Fe133 O148 1.976 . S
Fe133 O151 2.002 . S
O134 Fe132 1.918 . S
O134 Fe133 1.918 . S
O134 Fe135 1.918 . S
Fe135 O134 1.918 . S
Fe135 O136 2.002 . S
Fe135 O145 1.976 . S
Fe135 O149 1.996 . S
Fe135 O152 1.997 . S
O136 Fe135 2.002 . S
O136 C153 1.295 . S
O137 Fe132 1.997 . S
O137 C153 1.235 . S
O138 Fe132 2.002 . S
O138 C139 1.295 . S
C139 O138 1.295 . S
C139 O141 1.235 . S
C140 O145 1.287 . S
C140 O146 1.255 . S
O141 Fe133 1.997 . S
O141 C139 1.235 . S
C142 O148 1.287 . S
C142 O149 1.255 . S
O143 Fe132 1.976 . S
O143 C150 1.287 . S
O144 Fe133 1.996 . S
O144 C150 1.255 . S
O145 Fe135 1.976 . S
O145 C140 1.287 . S
O146 Fe132 1.996 . S
O146 C140 1.255 . S
C147 O151 1.295 . S
C147 O152 1.235 . S
O148 Fe133 1.976 . S
O148 C142 1.287 . S
O149 Fe135 1.996 . S
O149 C142 1.255 . S
C150 O143 1.287 . S
C150 O144 1.255 . S
O151 Fe133 2.002 . S
O151 C147 1.295 . S
O152 Fe135 1.997 . S
O152 C147 1.235 . S
C153 O136 1.295 . S
C153 O137 1.235 . S
Fe154 O156 1.918 . S
Fe154 O159 1.997 . S
Fe154 O160 2.002 . S
Fe154 O165 1.976 . S
Fe154 O168 1.996 1_655 S
Fe155 O156 1.918 . S
Fe155 O163 1.997 . S
Fe155 O166 1.996 . S
Fe155 O170 1.976 . S
Fe155 O173 2.002 . S
O156 Fe154 1.918 . S
O156 Fe155 1.918 . S
O156 Fe157 1.918 1_655 S
Fe157 O156 1.918 1_455 S
Fe157 O158 2.002 . S
Fe157 O167 1.976 . S
Fe157 O171 1.996 . S
Fe157 O174 1.997 1_455 S
O158 Fe157 2.002 . S
O158 C175 1.295 1_455 S
O159 Fe154 1.997 . S
O159 C175 1.235 . S
O160 Fe154 2.002 . S
O160 C161 1.295 . S
C161 O160 1.295 . S
C161 O163 1.235 . S
C162 O167 1.287 . S
C162 O168 1.255 . S
O163 Fe155 1.997 . S
O163 C161 1.235 . S
C164 O170 1.287 1_455 S
C164 O171 1.255 . S
O165 Fe154 1.976 . S
O165 C172 1.287 . S
O166 Fe155 1.996 . S
O166 C172 1.255 . S
O167 Fe157 1.976 . S
O167 C162 1.287 . S
O168 Fe154 1.996 1_455 S
O168 C162 1.255 . S
C169 O173 1.295 . S
C169 O174 1.235 . S
O170 Fe155 1.976 . S
O170 C164 1.287 1_655 S
O171 Fe157 1.996 . S
O171 C164 1.255 . S
C172 O165 1.287 . S
C172 O166 1.255 . S
O173 Fe155 2.002 . S
O173 C169 1.295 . S
O174 Fe157 1.997 1_655 S
O174 C169 1.235 . S
C175 O158 1.295 1_655 S
C175 O159 1.235 . S
Fe176 O178 1.918 . S
Fe176 O181 1.997 . S
Fe176 O182 2.002 . S
Fe176 O187 1.976 . S
Fe176 O190 1.996 . S
Fe177 O178 1.918 . S
Fe177 O185 1.997 . S
Fe177 O188 1.996 . S
Fe177 O192 1.976 1_565 S
Fe177 O195 2.002 . S
O178 Fe176 1.918 . S
O178 Fe177 1.918 . S
O178 Fe179 1.918 1_565 S
Fe179 O178 1.918 1_545 S
Fe179 O180 2.002 1_545 S
Fe179 O189 1.976 . S
Fe179 O193 1.996 . S
Fe179 O196 1.997 . S
O180 Fe179 2.002 1_565 S
O180 C197 1.295 . S
O181 Fe176 1.997 . S
O181 C197 1.235 . S
O182 Fe176 2.002 . S
O182 C183 1.295 . S
C183 O182 1.295 . S
C183 O185 1.235 . S
C184 O189 1.287 . S
C184 O190 1.255 1_545 S
O185 Fe177 1.997 . S
O185 C183 1.235 . S
C186 O192 1.287 . S
C186 O193 1.255 . S
O187 Fe176 1.976 . S
O187 C194 1.287 . S
O188 Fe177 1.996 . S
O188 C194 1.255 . S
O189 Fe179 1.976 . S
O189 C184 1.287 . S
O190 Fe176 1.996 . S
O190 C184 1.255 1_565 S
C191 O195 1.295 . S
C191 O196 1.235 1_565 S
O192 Fe177 1.976 1_545 S
O192 C186 1.287 . S
O193 Fe179 1.996 . S
O193 C186 1.255 . S
C194 O187 1.287 . S
C194 O188 1.255 . S
O195 Fe177 2.002 . S
O195 C191 1.295 . S
O196 Fe179 1.997 . S
O196 C191 1.235 1_545 S
C197 O180 1.295 . S
C197 O181 1.235 . S
Fe198 O200 1.918 . S
Fe198 O203 1.997 . S
Fe198 O204 2.002 . S
Fe198 O209 1.976 . S
Fe198 O212 1.996 . S
Fe199 O200 1.918 . S
Fe199 O207 1.997 . S
Fe199 O210 1.996 . S
Fe199 O214 1.976 . S
Fe199 O217 2.002 . S
O200 Fe198 1.918 . S
O200 Fe199 1.918 . S
O200 Fe201 1.918 . S
Fe201 O200 1.918 . S
Fe201 O202 2.002 . S
Fe201 O211 1.976 . S
Fe201 O215 1.996 . S
Fe201 O218 1.997 . S
O202 Fe201 2.002 . S
O202 C219 1.295 . S
O203 Fe198 1.997 . S
O203 C219 1.235 . S
O204 Fe198 2.002 . S
O204 C205 1.295 . S
C205 O204 1.295 . S
C205 O207 1.235 . S
C206 O211 1.287 . S
C206 O212 1.255 . S
O207 Fe199 1.997 . S
O207 C205 1.235 . S
C208 O214 1.287 . S
C208 O215 1.255 . S
O209 Fe198 1.976 . S
O209 C216 1.287 . S
O210 Fe199 1.996 . S
O210 C216 1.255 . S
O211 Fe201 1.976 . S
O211 C206 1.287 . S
O212 Fe198 1.996 . S
O212 C206 1.255 . S
C213 O217 1.295 . S
C213 O218 1.235 . S
O214 Fe199 1.976 . S
O214 C208 1.287 . S
O215 Fe201 1.996 . S
O215 C208 1.255 . S
C216 O209 1.287 . S
C216 O210 1.255 . S
O217 Fe199 2.002 . S
O217 C213 1.295 . S
O218 Fe201 1.997 . S
O218 C213 1.235 . S
C219 O202 1.295 . S
C219 O203 1.235 . S
Fe220 O222 1.918 . S
Fe220 O225 1.997 . S
Fe220 O226 2.002 . S
Fe220 O231 1.976 . S
Fe220 O234 1.996 . S
Fe221 O222 1.918 . S
Fe221 O229 1.997 . S
Fe221 O232 1.996 . S
Fe221 O236 1.976 . S
Fe221 O239 2.002 . S
O222 Fe220 1.918 . S
O222 Fe221 1.918 . S
O222 Fe223 1.918 . S
Fe223 O222 1.918 . S
Fe223 O224 2.002 . S
Fe223 O233 1.976 . S
Fe223 O237 1.996 . S
Fe223 O240 1.997 . S
O224 Fe223 2.002 . S
O224 C241 1.295 . S
O225 Fe220 1.997 . S
O225 C241 1.235 . S
O226 Fe220 2.002 . S
O226 C227 1.295 . S
C227 O226 1.295 . S
C227 O229 1.235 . S
C228 O233 1.287 . S
C228 O234 1.255 . S
O229 Fe221 1.997 . S
O229 C227 1.235 . S
C230 O236 1.287 . S
C230 O237 1.255 . S
O231 Fe220 1.976 . S
O231 C238 1.287 . S
O232 Fe221 1.996 . S
O232 C238 1.255 . S
O233 Fe223 1.976 . S
O233 C228 1.287 . S
O234 Fe220 1.996 . S
O234 C228 1.255 . S
C235 O239 1.295 . S
C235 O240 1.235 . S
O236 Fe221 1.976 . S
O236 C230 1.287 . S
O237 Fe223 1.996 . S
O237 C230 1.255 . S
C238 O231 1.287 . S
C238 O232 1.255 . S
O239 Fe221 2.002 . S
O239 C235 1.295 . S
O240 Fe223 1.997 . S
O240 C235 1.235 . S
C241 O224 1.295 . S
C241 O225 1.235 . S
Fe242 O244 1.918 1_455 S
Fe242 O247 1.997 . S
Fe242 O248 2.002 1_455 S
Fe242 O253 1.976 . S
Fe242 O256 1.996 . S
Fe243 O244 1.918 . S
Fe243 O251 1.997 . S
Fe243 O254 1.996 . S
Fe243 O258 1.976 . S
Fe243 O261 2.002 . S
O244 Fe242 1.918 1_655 S
O244 Fe243 1.918 . S
O244 Fe245 1.918 . S
Fe245 O244 1.918 . S
Fe245 O246 2.002 . S
Fe245 O255 1.976 1_655 S
Fe245 O259 1.996 . S
Fe245 O262 1.997 . S
O246 Fe245 2.002 . S
O246 C263 1.295 . S
O247 Fe242 1.997 . S
O247 C263 1.235 1_455 S
O248 Fe242 2.002 1_655 S
O248 C249 1.295 . S
C249 O248 1.295 . S
C249 O251 1.235 . S
C250 O255 1.287 . S
C250 O256 1.255 . S
O251 Fe243 1.997 . S
O251 C249 1.235 . S
C252 O258 1.287 . S
C252 O259 1.255 . S
O253 Fe242 1.976 . S
O253 C260 1.287 . S
O254 Fe243 1.996 . S
O254 C260 1.255 1_655 S
O255 Fe245 1.976 1_455 S
O255 C250 1.287 . S
O256 Fe242 1.996 . S
O256 C250 1.255 . S
C257 O261 1.295 . S
C257 O262 1.235 . S
O258 Fe243 1.976 . S
O258 C252 1.287 . S
O259 Fe245 1.996 . S
O259 C252 1.255 . S
C260 O253 1.287 . S
C260 O254 1.255 1_455 S
O261 Fe243 2.002 . S
O261 C257 1.295 . S
O262 Fe245 1.997 . S
O262 C257 1.235 . S
C263 O246 1.295 . S
C263 O247 1.235 1_655 S
Fe264 O266 1.918 . S
Fe264 O269 1.997 . S
Fe264 O270 2.002 . S
Fe264 O275 1.976 1_545 S
Fe264 O278 1.996 . S
Fe265 O266 1.918 1_565 S
Fe265 O273 1.997 . S
Fe265 O276 1.996 . S
Fe265 O280 1.976 . S
Fe265 O283 2.002 1_565 S
O266 Fe264 1.918 . S
O266 Fe265 1.918 1_545 S
O266 Fe267 1.918 . S
Fe267 O266 1.918 . S
Fe267 O268 2.002 . S
Fe267 O277 1.976 . S
Fe267 O281 1.996 . S
Fe267 O284 1.997 . S
O268 Fe267 2.002 . S
O268 C285 1.295 . S
O269 Fe264 1.997 . S
O269 C285 1.235 . S
O270 Fe264 2.002 . S
O270 C271 1.295 . S
C271 O270 1.295 . S
C271 O273 1.235 1_545 S
C272 O277 1.287 . S
C272 O278 1.255 . S
O273 Fe265 1.997 . S
O273 C271 1.235 1_565 S
C274 O280 1.287 . S
C274 O281 1.255 1_565 S
O275 Fe264 1.976 1_565 S
O275 C282 1.287 . S
O276 Fe265 1.996 . S
O276 C282 1.255 . S
O277 Fe267 1.976 . S
O277 C272 1.287 . S
O278 Fe264 1.996 . S
O278 C272 1.255 . S
C279 O283 1.295 . S
C279 O284 1.235 . S
O280 Fe265 1.976 . S
O280 C274 1.287 . S
O281 Fe267 1.996 . S
O281 C274 1.255 1_545 S
C282 O275 1.287 . S
C282 O276 1.255 . S
O283 Fe265 2.002 1_545 S
O283 C279 1.295 . S
O284 Fe267 1.997 . S
O284 C279 1.235 . S
C285 O268 1.295 . S
C285 O269 1.235 . S
Fe286 O288 1.918 . S
Fe286 O291 1.997 . S
Fe286 O292 2.002 . S
Fe286 O297 1.976 . S
Fe286 O300 1.996 . S
Fe287 O288 1.918 . S
Fe287 O295 1.997 . S
Fe287 O298 1.996 . S
Fe287 O302 1.976 . S
Fe287 O305 2.002 . S
O288 Fe286 1.918 . S
O288 Fe287 1.918 . S
O288 Fe289 1.918 . S
Fe289 O288 1.918 . S
Fe289 O290 2.002 . S
Fe289 O299 1.976 . S
Fe289 O303 1.996 . S
Fe289 O306 1.997 . S
O290 Fe289 2.002 . S
O290 C307 1.295 . S
O291 Fe286 1.997 . S
O291 C307 1.235 . S
O292 Fe286 2.002 . S
O292 C293 1.295 . S
C293 O292 1.295 . S
C293 O295 1.235 . S
C294 O299 1.287 . S
C294 O300 1.255 . S
O295 Fe287 1.997 . S
O295 C293 1.235 . S
C296 O302 1.287 . S
C296 O303 1.255 . S
O297 Fe286 1.976 . S
O297 C304 1.287 . S
O298 Fe287 1.996 . S
O298 C304 1.255 . S
O299 Fe289 1.976 . S
O299 C294 1.287 . S
O300 Fe286 1.996 . S
O300 C294 1.255 . S
C301 O305 1.295 . S
C301 O306 1.235 . S
O302 Fe287 1.976 . S
O302 C296 1.287 . S
O303 Fe289 1.996 . S
O303 C296 1.255 . S
C304 O297 1.287 . S
C304 O298 1.255 . S
O305 Fe287 2.002 . S
O305 C301 1.295 . S
O306 Fe289 1.997 . S
O306 C301 1.235 . S
C307 O290 1.295 . S
C307 O291 1.235 . S
Fe308 O310 1.918 . S
Fe308 O313 1.997 . S
Fe308 O314 2.002 . S
Fe308 O319 1.976 . S
Fe308 O322 1.996 . S
Fe309 O310 1.918 . S
Fe309 O317 1.997 . S
Fe309 O320 1.996 . S
Fe309 O324 1.976 . S
Fe309 O327 2.002 . S
O310 Fe308 1.918 . S
O310 Fe309 1.918 . S
O310 Fe311 1.918 . S
Fe311 O310 1.918 . S
Fe311 O312 2.002 . S
Fe311 O321 1.976 . S
Fe311 O325 1.996 . S
Fe311 O328 1.997 . S
O312 Fe311 2.002 . S
O312 C329 1.295 . S
O313 Fe308 1.997 . S
O313 C329 1.235 . S
O314 Fe308 2.002 . S
O314 C315 1.295 . S
C315 O314 1.295 . S
C315 O317 1.235 . S
C316 O321 1.287 . S
C316 O322 1.255 . S
O317 Fe309 1.997 . S
O317 C315 1.235 . S
C318 O324 1.287 . S
C318 O325 1.255 . S
O319 Fe308 1.976 . S
O319 C326 1.287 . S
O320 Fe309 1.996 . S
O320 C326 1.255 . S
O321 Fe311 1.976 . S
O321 C316 1.287 . S
O322 Fe308 1.996 . S
O322 C316 1.255 . S
C323 O327 1.295 . S
C323 O328 1.235 . S
O324 Fe309 1.976 . S
O324 C318 1.287 . S
O325 Fe311 1.996 . S
O325 C318 1.255 . S
C326 O319 1.287 . S
C326 O320 1.255 . S
O327 Fe309 2.002 . S
O327 C323 1.295 . S
O328 Fe311 1.997 . S
O328 C323 1.235 . S
C329 O312 1.295 . S
C329 O313 1.235 . S
Fe330 O332 1.918 1_655 S
Fe330 O335 1.997 . S
Fe330 O336 2.002 1_655 S
Fe330 O341 1.976 . S
Fe330 O344 1.996 . S
Fe331 O332 1.918 . S
Fe331 O339 1.997 . S
Fe331 O342 1.996 . S
Fe331 O346 1.976 . S
Fe331 O349 2.002 . S
O332 Fe330 1.918 1_455 S
O332 Fe331 1.918 . S
O332 Fe333 1.918 . S
Fe333 O332 1.918 . S
Fe333 O334 2.002 . S
Fe333 O343 1.976 1_455 S
Fe333 O347 1.996 . S
Fe333 O350 1.997 . S
O334 Fe333 2.002 . S
O334 C351 1.295 . S
O335 Fe330 1.997 . S
O335 C351 1.235 1_655 S
O336 Fe330 2.002 1_455 S
O336 C337 1.295 . S
C337 O336 1.295 . S
C337 O339 1.235 . S
C338 O343 1.287 . S
C338 O344 1.255 . S
O339 Fe331 1.997 . S
O339 C337 1.235 . S
C340 O346 1.287 . S
C340 O347 1.255 . S
O341 Fe330 1.976 . S
O341 C348 1.287 . S
O342 Fe331 1.996 . S
O342 C348 1.255 1_455 S
O343 Fe333 1.976 1_655 S
O343 C338 1.287 . S
O344 Fe330 1.996 . S
O344 C338 1.255 . S
C345 O349 1.295 . S
C345 O350 1.235 . S
O346 Fe331 1.976 . S
O346 C340 1.287 . S
O347 Fe333 1.996 . S
O347 C340 1.255 . S
C348 O341 1.287 . S
C348 O342 1.255 1_655 S
O349 Fe331 2.002 . S
O349 C345 1.295 . S
O350 Fe333 1.997 . S
O350 C345 1.235 . S
C351 O334 1.295 . S
C351 O335 1.235 1_455 S
H352 C358 0.930 . S
H353 C361 0.930 . S
H354 C362 0.930 . S
H355 C363 0.930 . S
H356 C366 0.930 . S
H357 C367 0.930 . S
C358 H352 0.930 . S
C358 C359 1.355 . S
C358 C360 1.415 . S
C359 C358 1.355 . S
C359 C361 1.419 . S
C360 C358 1.415 . S
C360 C365 1.425 . S
C360 C367 1.409 . S
C361 H353 0.930 . S
C361 C359 1.419 . S
C361 C362 1.362 . S
C362 H354 0.930 . S
C362 C361 1.362 . S
C362 C365 1.409 . S
C363 H355 0.930 . S
C363 C364 1.355 . S
C363 C365 1.415 . S
C364 C363 1.355 . S
C364 C366 1.419 . S
C365 C360 1.425 . S
C365 C362 1.409 . S
C365 C363 1.415 . S
C366 H356 0.930 . S
C366 C364 1.419 . S
C366 C367 1.362 . S
C367 H357 0.930 . S
C367 C360 1.409 . S
C367 C366 1.362 . S
H368 C374 0.930 . S
H369 C377 0.930 . S
H370 C378 0.930 . S
H371 C379 0.930 . S
H372 C382 0.930 . S
H373 C383 0.930 . S
C374 H368 0.930 . S
C374 C375 1.355 . S
C374 C376 1.415 . S
C375 C374 1.355 . S
C375 C377 1.419 . S
C376 C374 1.415 . S
C376 C381 1.425 . S
C376 C383 1.409 . S
C377 H369 0.930 . S
C377 C375 1.419 . S
C377 C378 1.362 . S
C378 H370 0.930 . S
C378 C377 1.362 . S
C378 C381 1.409 . S
C379 H371 0.930 . S
C379 C380 1.355 . S
C379 C381 1.415 . S
C380 C379 1.355 . S
C380 C382 1.419 . S
C381 C376 1.425 . S
C381 C378 1.409 . S
C381 C379 1.415 . S
C382 H372 0.930 . S
C382 C380 1.419 . S
C382 C383 1.362 . S
C383 H373 0.930 . S
C383 C376 1.409 . S
C383 C382 1.362 . S
H384 C390 0.930 . S
H385 C393 0.930 . S
H386 C394 0.930 . S
H387 C395 0.930 . S
H388 C398 0.930 . S
H389 C399 0.930 . S
C390 H384 0.930 . S
C390 C391 1.355 . S
C390 C392 1.415 . S
C391 C390 1.355 . S
C391 C393 1.419 . S
C392 C390 1.415 . S
C392 C397 1.425 . S
C392 C399 1.409 . S
C393 H385 0.930 . S
C393 C391 1.419 . S
C393 C394 1.362 . S
C394 H386 0.930 . S
C394 C393 1.362 . S
C394 C397 1.409 . S
C395 H387 0.930 . S
C395 C396 1.355 . S
C395 C397 1.415 . S
C396 C395 1.355 . S
C396 C398 1.419 . S
C397 C392 1.425 . S
C397 C394 1.409 . S
C397 C395 1.415 . S
C398 H388 0.930 . S
C398 C396 1.419 . S
C398 C399 1.362 . S
C399 H389 0.930 . S
C399 C392 1.409 . S
C399 C398 1.362 . S
H400 C406 0.930 . S
H401 C409 0.930 . S
H402 C410 0.930 . S
H403 C411 0.930 . S
H404 C414 0.930 . S
H405 C415 0.930 . S
C406 H400 0.930 . S
C406 C407 1.355 . S
C406 C408 1.415 . S
C407 C406 1.355 . S
C407 C409 1.419 . S
C408 C406 1.415 . S
C408 C413 1.425 . S
C408 C415 1.409 . S
C409 H401 0.930 . S
C409 C407 1.419 . S
C409 C410 1.362 . S
C410 H402 0.930 . S
C410 C409 1.362 . S
C410 C413 1.409 . S
C411 H403 0.930 . S
C411 C412 1.355 . S
C411 C413 1.415 . S
C412 C411 1.355 . S
C412 C414 1.419 . S
C413 C408 1.425 . S
C413 C410 1.409 . S
C413 C411 1.415 . S
C414 H404 0.930 . S
C414 C412 1.419 . S
C414 C415 1.362 . S
C415 H405 0.930 . S
C415 C408 1.409 . S
C415 C414 1.362 . S
H416 C422 0.930 . S
H417 C425 0.930 . S
H418 C426 0.930 . S
H419 C427 0.930 . S
H420 C430 0.930 . S
H421 C431 0.930 . S
C422 H416 0.930 . S
C422 C423 1.355 . S
C422 C424 1.415 . S
C423 C422 1.355 . S
C423 C425 1.419 . S
C424 C422 1.415 . S
C424 C429 1.425 . S
C424 C431 1.409 . S
C425 H417 0.930 . S
C425 C423 1.419 . S
C425 C426 1.362 . S
C426 H418 0.930 . S
C426 C425 1.362 . S
C426 C429 1.409 . S
C427 H419 0.930 . S
C427 C428 1.355 . S
C427 C429 1.415 . S
C428 C427 1.355 . S
C428 C430 1.419 . S
C429 C424 1.425 . S
C429 C426 1.409 . S
C429 C427 1.415 . S
C430 H420 0.930 . S
C430 C428 1.419 . S
C430 C431 1.362 . S
C431 H421 0.930 . S
C431 C424 1.409 . S
C431 C430 1.362 . S
H432 C438 0.930 . S
H433 C441 0.930 . S
H434 C442 0.930 . S
H435 C443 0.930 . S
H436 C446 0.930 . S
H437 C447 0.930 . S
C438 H432 0.930 . S
C438 C439 1.355 . S
C438 C440 1.415 . S
C439 C438 1.355 . S
C439 C441 1.419 . S
C440 C438 1.415 . S
C440 C445 1.425 . S
C440 C447 1.409 . S
C441 H433 0.930 . S
C441 C439 1.419 . S
C441 C442 1.362 . S
C442 H434 0.930 . S
C442 C441 1.362 . S
C442 C445 1.409 . S
C443 H435 0.930 . S
C443 C444 1.355 . S
C443 C445 1.415 . S
C444 C443 1.355 . S
C444 C446 1.419 . S
C445 C440 1.425 . S
C445 C442 1.409 . S
C445 C443 1.415 . S
C446 H436 0.930 . S
C446 C444 1.419 . S
C446 C447 1.362 . S
C447 H437 0.930 . S
C447 C440 1.409 . S
C447 C446 1.362 . S
H448 C454 0.930 . S
H449 C457 0.930 . S
H450 C458 0.930 . S
H451 C459 0.930 . S
H452 C462 0.930 . S
H453 C463 0.930 . S
C454 H448 0.930 . S
C454 C455 1.355 . S
C454 C456 1.415 . S
C455 C454 1.355 . S
C455 C457 1.419 . S
C456 C454 1.415 . S
C456 C461 1.425 . S
C456 C463 1.409 . S
C457 H449 0.930 . S
C457 C455 1.419 . S
C457 C458 1.362 . S
C458 H450 0.930 . S
C458 C457 1.362 . S
C458 C461 1.409 . S
C459 H451 0.930 . S
C459 C460 1.355 . S
C459 C461 1.415 . S
C460 C459 1.355 . S
C460 C462 1.419 . S
C461 C456 1.425 . S
C461 C458 1.409 . S
C461 C459 1.415 . S
C462 H452 0.930 . S
C462 C460 1.419 . S
C462 C463 1.362 . S
C463 H453 0.930 . S
C463 C456 1.409 . S
C463 C462 1.362 . S
H464 C470 0.930 . S
H465 C473 0.930 . S
H466 C474 0.930 . S
H467 C475 0.930 . S
H468 C478 0.930 . S
H469 C479 0.930 . S
C470 H464 0.930 . S
C470 C471 1.355 . S
C470 C472 1.415 . S
C471 C470 1.355 . S
C471 C473 1.419 . S
C472 C470 1.415 . S
C472 C477 1.425 . S
C472 C479 1.409 . S
C473 H465 0.930 . S
C473 C471 1.419 . S
C473 C474 1.362 . S
C474 H466 0.930 . S
C474 C473 1.362 . S
C474 C477 1.409 . S
C475 H467 0.930 . S
C475 C476 1.355 . S
C475 C477 1.415 . S
C476 C475 1.355 . S
C476 C478 1.419 . S
C477 C472 1.425 . S
C477 C474 1.409 . S
C477 C475 1.415 . S
C478 H468 0.930 . S
C478 C476 1.419 . S
C478 C479 1.362 . S
C479 H469 0.930 . S
C479 C472 1.409 . S
C479 C478 1.362 . S
H480 C486 0.930 . S
H481 C489 0.930 . S
H482 C490 0.930 . S
H483 C491 0.930 . S
H484 C494 0.930 . S
H485 C495 0.930 . S
C486 H480 0.930 . S
C486 C487 1.355 . S
C486 C488 1.415 . S
C487 C486 1.355 . S
C487 C489 1.419 1_544 S
C488 C486 1.415 . S
C488 C493 1.425 1_544 S
C488 C495 1.409 . S
C489 H481 0.930 . S
C489 C487 1.419 1_566 S
C489 C490 1.362 . S
C490 H482 0.930 . S
C490 C489 1.362 . S
C490 C493 1.409 . S
C491 H483 0.930 . S
C491 C492 1.355 . S
C491 C493 1.415 . S
C492 C491 1.355 . S
C492 C494 1.419 1_566 S
C493 C488 1.425 1_566 S
C493 C490 1.409 . S
C493 C491 1.415 . S
C494 H484 0.930 . S
C494 C492 1.419 1_544 S
C494 C495 1.362 . S
C495 H485 0.930 . S
C495 C488 1.409 . S
C495 C494 1.362 . S
H496 C502 0.947 . S
H497 C505 0.930 . S
H498 C506 0.930 . S
H499 C507 0.938 . S
H500 C510 0.930 . S
H501 C511 0.930 . S
C502 H496 0.947 . S
C502 C503 1.330 1_556 S
C502 C504 1.423 . S
C503 C502 1.330 1_554 S
C503 C505 1.419 . S
C504 C502 1.423 . S
C504 C509 1.425 1_556 S
C504 C511 1.409 . S
C505 H497 0.930 . S
C505 C503 1.419 . S
C505 C506 1.362 . S
C506 H498 0.930 . S
C506 C505 1.362 . S
C506 C509 1.409 . S
C507 H499 0.938 . S
C507 C508 1.342 1_554 S
C507 C509 1.419 . S
C508 C507 1.342 1_556 S
C508 C510 1.419 . S
C509 C504 1.425 1_554 S
C509 C506 1.409 . S
C509 C507 1.419 . S
C510 H500 0.930 . S
C510 C508 1.419 . S
C510 C511 1.362 . S
C511 H501 0.930 . S
C511 C504 1.409 . S
C511 C510 1.362 . S
H512 C518 0.930 . S
H513 C521 0.930 . S
H514 C522 0.930 . S
H515 C523 0.930 . S
H516 C526 0.930 . S
H517 C527 0.930 . S
C518 H512 0.930 . S
C518 C519 1.355 . S
C518 C520 1.415 1_455 S
C519 C518 1.355 . S
C519 C521 1.419 1_556 S
C520 C518 1.415 1_655 S
C520 C525 1.425 1_656 S
C520 C527 1.409 . S
C521 H513 0.930 . S
C521 C519 1.419 1_554 S
C521 C522 1.362 . S
C522 H514 0.930 . S
C522 C521 1.362 . S
C522 C525 1.421 . S
C523 H515 0.930 . S
C523 C524 1.355 . S
C523 C525 1.403 1_655 S
C524 C523 1.355 . S
C524 C526 1.419 1_554 S
C525 C520 1.425 1_454 S
C525 C522 1.421 . S
C525 C523 1.403 1_455 S
C526 H516 0.930 . S
C526 C524 1.419 1_556 S
C526 C527 1.362 . S
C527 H517 0.930 . S
C527 C520 1.409 . S
C527 C526 1.362 . S
H528 C534 0.930 . S
H529 C537 0.930 . S
H530 C538 0.930 . S
H531 C539 0.930 . S
H532 C542 0.930 . S
H533 C543 0.930 . S
C534 H528 0.930 . S
C534 C535 1.355 1_455 S
C534 C536 1.415 . S
C535 C534 1.355 1_655 S
C535 C537 1.419 . S
C536 C534 1.415 . S
C536 C541 1.425 1_446 S
C536 C543 1.409 1_545 S
C537 H529 0.930 . S
C537 C535 1.419 . S
C537 C538 1.362 1_556 S
C538 H530 0.930 . S
C538 C537 1.362 1_554 S
C538 C541 1.409 1_545 S
C539 H531 0.930 . S
C539 C540 1.355 1_655 S
C539 C541 1.415 . S
C540 C539 1.355 1_455 S
C540 C542 1.419 . S
C541 C536 1.425 1_664 S
C541 C538 1.409 1_565 S
C541 C539 1.415 . S
C542 H532 0.930 . S
C542 C540 1.419 . S
C542 C543 1.362 1_554 S
C543 H533 0.930 . S
C543 C536 1.409 1_565 S
C543 C542 1.362 1_556 S
H544 C550 0.930 . S
H545 C553 0.930 . S
H546 C554 0.930 1_655 S
H547 C555 0.930 . S
H548 C558 0.930 . S
H549 C559 0.930 1_455 S
C550 H544 0.930 . S
C550 C551 1.355 . S
C550 C552 1.415 . S
C551 C550 1.355 . S
C551 C553 1.419 1_565 S
C552 C550 1.415 . S
C552 C557 1.425 1_465 S
C552 C559 1.409 1_455 S
C553 H545 0.930 . S
C553 C551 1.419 1_545 S
C553 C554 1.362 . S
C554 H546 0.930 1_455 S
C554 C553 1.362 . S
C554 C557 1.409 1_455 S
C555 H547 0.930 . S
C555 C556 1.355 . S
C555 C557 1.415 . S
C556 C555 1.355 . S
C556 C558 1.419 1_545 S
C557 C552 1.425 1_645 S
C557 C554 1.409 1_655 S
C557 C555 1.415 . S
C558 H548 0.930 . S
C558 C556 1.419 1_565 S
C558 C559 1.362 . S
C559 H549 0.930 1_655 S
C559 C552 1.409 1_655 S
C559 C558 1.362 . S
H560 C566 0.930 . S
H561 C569 0.930 . S
H562 C570 0.930 1_565 S
H563 C571 0.930 . S
H564 C574 0.930 . S
H565 C575 0.930 1_545 S
C566 H560 0.930 . S
C566 C567 1.355 . S
C566 C568 1.415 . S
C567 C566 1.355 . S
C567 C569 1.419 . S
C568 C566 1.415 . S
C568 C573 1.425 1_545 S
C568 C575 1.409 1_545 S
C569 H561 0.930 . S
C569 C567 1.419 . S
C569 C570 1.362 . S
C570 H562 0.930 1_545 S
C570 C569 1.362 . S
C570 C573 1.409 1_545 S
C571 H563 0.930 . S
C571 C572 1.355 . S
C571 C573 1.415 . S
C572 C571 1.355 . S
C572 C574 1.419 . S
C573 C568 1.425 1_565 S
C573 C570 1.409 1_565 S
C573 C571 1.415 . S
C574 H564 0.930 . S
C574 C572 1.419 . S
C574 C575 1.362 . S
C575 H565 0.930 1_565 S
C575 C568 1.409 1_565 S
C575 C574 1.362 . S
H576 C582 0.930 . S
H577 C585 0.930 . S
H578 C586 0.930 . S
H579 C587 0.930 . S
H580 C590 0.930 . S
H581 C591 0.930 . S
C582 H576 0.930 . S
C582 C583 1.355 . S
C582 C584 1.415 . S
C583 C582 1.355 . S
C583 C585 1.419 . S
C584 C582 1.415 . S
C584 C589 1.425 . S
C584 C591 1.409 . S
C585 H577 0.930 . S
C585 C583 1.419 . S
C585 C586 1.362 . S
C586 H578 0.930 . S
C586 C585 1.362 . S
C586 C589 1.409 . S
C587 H579 0.930 . S
C587 C588 1.355 . S
C587 C589 1.415 . S
C588 C587 1.355 . S
C588 C590 1.419 . S
C589 C584 1.425 . S
C589 C586 1.409 . S
C589 C587 1.415 . S
C590 H580 0.930 . S
C590 C588 1.419 . S
C590 C591 1.362 . S
C591 H581 0.930 . S
C591 C584 1.409 . S
C591 C590 1.362 . S
H592 C598 0.930 . S
H593 C601 0.930 . S
H594 C602 0.930 . S
H595 C603 0.930 . S
H596 C606 0.930 . S
H597 C607 0.930 . S
C598 H592 0.930 . S
C598 C599 1.355 . S
C598 C600 1.415 . S
C599 C598 1.355 . S
C599 C601 1.419 1_455 S
C600 C598 1.415 . S
C600 C605 1.425 1_455 S
C600 C607 1.409 . S
C601 H593 0.930 . S
C601 C599 1.419 1_655 S
C601 C602 1.362 . S
C602 H594 0.930 . S
C602 C601 1.362 . S
C602 C605 1.409 . S
C603 H595 0.930 . S
C603 C604 1.355 . S
C603 C605 1.415 . S
C604 C603 1.355 . S
C604 C606 1.419 1_655 S
C605 C600 1.425 1_655 S
C605 C602 1.409 . S
C605 C603 1.415 . S
C606 H596 0.930 . S
C606 C604 1.419 1_455 S
C606 C607 1.362 . S
C607 H597 0.930 . S
C607 C600 1.409 . S
C607 C606 1.362 . S
H608 C614 0.930 . S
H609 C617 0.930 . S
H610 C618 0.930 . S
H611 C619 0.930 . S
H612 C622 0.930 . S
H613 C623 0.930 . S
C614 H608 0.930 . S
C614 C615 1.355 . S
C614 C616 1.415 . S
C615 C614 1.355 . S
C615 C617 1.419 . S
C616 C614 1.415 . S
C616 C621 1.425 . S
C616 C623 1.409 . S
C617 H609 0.930 . S
C617 C615 1.419 . S
C617 C618 1.362 . S
C618 H610 0.930 . S
C618 C617 1.362 . S
C618 C621 1.409 . S
C619 H611 0.930 . S
C619 C620 1.355 . S
C619 C621 1.415 . S
C620 C619 1.355 . S
C620 C622 1.419 . S
C621 C616 1.425 . S
C621 C618 1.409 . S
C621 C619 1.415 . S
C622 H612 0.930 . S
C622 C620 1.419 . S
C622 C623 1.362 . S
C623 H613 0.930 . S
C623 C616 1.409 . S
C623 C622 1.362 . S
H624 C630 0.930 . S
H625 C633 0.930 . S
H626 C634 0.930 . S
H627 C635 0.930 . S
H628 C638 0.930 . S
H629 C639 0.930 . S
C630 H624 0.930 . S
C630 C631 1.355 . S
C630 C632 1.415 . S
C631 C630 1.355 . S
C631 C633 1.419 . S
C632 C630 1.415 . S
C632 C637 1.425 . S
C632 C639 1.409 . S
C633 H625 0.930 . S
C633 C631 1.419 . S
C633 C634 1.362 . S
C634 H626 0.930 . S
C634 C633 1.362 . S
C634 C637 1.409 . S
C635 H627 0.930 . S
C635 C636 1.355 . S
C635 C637 1.415 . S
C636 C635 1.355 . S
C636 C638 1.419 . S
C637 C632 1.425 . S
C637 C634 1.409 . S
C637 C635 1.415 . S
C638 H628 0.930 . S
C638 C636 1.419 . S
C638 C639 1.362 . S
C639 H629 0.930 . S
C639 C632 1.409 . S
C639 C638 1.362 . S
H640 C646 0.930 . S
H641 C649 0.930 . S
H642 C650 0.930 . S
H643 C651 0.930 . S
H644 C654 0.930 . S
H645 C655 0.930 . S
C646 H640 0.930 . S
C646 C647 1.355 . S
C646 C648 1.415 . S
C647 C646 1.355 . S
C647 C649 1.419 . S
C648 C646 1.415 . S
C648 C653 1.425 . S
C648 C655 1.409 . S
C649 H641 0.930 . S
C649 C647 1.419 . S
C649 C650 1.362 . S
C650 H642 0.930 . S
C650 C649 1.362 . S
C650 C653 1.409 . S
C651 H643 0.930 . S
C651 C652 1.355 . S
C651 C653 1.415 . S
C652 C651 1.355 . S
C652 C654 1.419 . S
C653 C648 1.425 . S
C653 C650 1.409 . S
C653 C651 1.415 . S
C654 H644 0.930 . S
C654 C652 1.419 . S
C654 C655 1.362 . S
C655 H645 0.930 . S
C655 C648 1.409 . S
C655 C654 1.362 . S
H656 C662 0.930 . S
H657 C665 0.930 . S
H658 C666 0.930 . S
H659 C667 0.930 1_545 S
H660 C670 0.930 . S
H661 C671 0.930 . S
C662 H656 0.930 . S
C662 C663 1.355 . S
C662 C664 1.415 . S
C663 C662 1.355 . S
C663 C665 1.419 . S
C664 C662 1.415 . S
C664 C669 1.425 . S
C664 C671 1.409 . S
C665 H657 0.930 . S
C665 C663 1.419 . S
C665 C666 1.362 . S
C666 H658 0.930 . S
C666 C665 1.362 . S
C666 C669 1.409 . S
C667 H659 0.930 1_565 S
C667 C668 1.355 . S
C667 C669 1.415 . S
C668 C667 1.355 . S
C668 C670 1.419 . S
C669 C664 1.425 . S
C669 C666 1.409 . S
C669 C667 1.415 . S
C670 H660 0.930 . S
C670 C668 1.419 . S
C670 C671 1.362 . S
C671 H661 0.930 . S
C671 C664 1.409 . S
C671 C670 1.362 . S
H672 C678 0.930 . S
H673 C681 0.930 . S
H674 C682 0.930 1_655 S
H675 C683 0.930 1_655 S
H676 C686 0.930 . S
H677 C687 0.930 . S
C678 H672 0.930 . S
C678 C679 1.355 . S
C678 C680 1.415 . S
C679 C678 1.355 . S
C679 C681 1.419 . S
C680 C678 1.415 . S
C680 C685 1.425 . S
C680 C687 1.409 . S
C681 H673 0.930 . S
C681 C679 1.419 . S
C681 C682 1.362 . S
C682 H674 0.930 1_455 S
C682 C681 1.362 . S
C682 C685 1.409 . S
C683 H675 0.930 1_455 S
C683 C684 1.355 . S
C683 C685 1.415 . S
C684 C683 1.355 . S
C684 C686 1.419 . S
C685 C680 1.425 . S
C685 C682 1.409 . S
C685 C683 1.415 . S
C686 H676 0.930 . S
C686 C684 1.419 . S
C686 C687 1.362 . S
C687 H677 0.930 . S
C687 C680 1.409 . S
C687 C686 1.362 . S
H688 C694 0.930 . S
H689 C697 0.930 . S
H690 C698 0.930 1_565 S
H691 C699 0.930 1_565 S
H692 C702 0.930 . S
H693 C703 0.930 . S
C694 H688 0.930 . S
C694 C695 1.355 . S
C694 C696 1.415 . S
C695 C694 1.355 . S
C695 C697 1.419 . S
C696 C694 1.415 . S
C696 C701 1.425 . S
C696 C703 1.409 . S
C697 H689 0.930 . S
C697 C695 1.419 . S
C697 C698 1.362 . S
C698 H690 0.930 1_545 S
C698 C697 1.362 . S
C698 C701 1.409 . S
C699 H691 0.930 1_545 S
C699 C700 1.355 . S
C699 C701 1.415 . S
C700 C699 1.355 . S
C700 C702 1.419 . S
C701 C696 1.425 . S
C701 C698 1.409 . S
C701 C699 1.415 . S
C702 H692 0.930 . S
C702 C700 1.419 . S
C702 C703 1.362 . S
C703 H693 0.930 . S
C703 C696 1.409 . S
C703 C702 1.362 . S
H704 C710 0.930 . S
H705 C713 0.930 . S
H706 C714 0.930 . S
H707 C715 0.930 . S
H708 C718 0.930 . S
H709 C719 0.930 . S
C710 H704 0.930 . S
C710 C711 1.355 . S
C710 C712 1.415 . S
C711 C710 1.355 . S
C711 C713 1.419 . S
C712 C710 1.415 . S
C712 C717 1.425 . S
C712 C719 1.409 . S
C713 H705 0.930 . S
C713 C711 1.419 . S
C713 C714 1.362 . S
C714 H706 0.930 . S
C714 C713 1.362 . S
C714 C717 1.409 . S
C715 H707 0.930 . S
C715 C716 1.355 . S
C715 C717 1.415 . S
C716 C715 1.355 . S
C716 C718 1.419 . S
C717 C712 1.425 . S
C717 C714 1.409 . S
C717 C715 1.415 . S
C718 H708 0.930 . S
C718 C716 1.419 . S
C718 C719 1.362 . S
C719 H709 0.930 . S
C719 C712 1.409 . S
C719 C718 1.362 . S
H720 C726 0.930 . S
H721 C729 0.930 . S
H722 C730 0.930 . S
H723 C731 0.930 . S
H724 C734 0.930 . S
H725 C735 0.930 . S
C726 H720 0.930 . S
C726 C727 1.355 . S
C726 C728 1.415 . S
C727 C726 1.355 . S
C727 C729 1.419 . S
C728 C726 1.415 . S
C728 C733 1.425 . S
C728 C735 1.409 . S
C729 H721 0.930 . S
C729 C727 1.419 . S
C729 C730 1.362 . S
C730 H722 0.930 . S
C730 C729 1.362 . S
C730 C733 1.409 . S
C731 H723 0.930 . S
C731 C732 1.355 . S
C731 C733 1.415 . S
C732 C731 1.355 . S
C732 C734 1.419 . S
C733 C728 1.425 . S
C733 C730 1.409 . S
C733 C731 1.415 . S
C734 H724 0.930 . S
C734 C732 1.419 . S
C734 C735 1.362 . S
C735 H725 0.930 . S
C735 C728 1.409 . S
C735 C734 1.362 . S
H736 C742 0.930 . S
H737 C745 0.930 . S
H738 C746 0.930 . S
H739 C747 0.930 . S
H740 C750 0.930 . S
H741 C751 0.930 . S
C742 H736 0.930 . S
C742 C743 1.355 . S
C742 C744 1.415 . S
C743 C742 1.355 . S
C743 C745 1.419 . S
C744 C742 1.415 . S
C744 C749 1.425 . S
C744 C751 1.409 . S
C745 H737 0.930 . S
C745 C743 1.419 . S
C745 C746 1.362 . S
C746 H738 0.930 . S
C746 C745 1.362 . S
C746 C749 1.409 . S
C747 H739 0.930 . S
C747 C748 1.355 . S
C747 C749 1.415 . S
C748 C747 1.355 . S
C748 C750 1.419 . S
C749 C744 1.425 . S
C749 C746 1.409 . S
C749 C747 1.415 . S
C750 H740 0.930 . S
C750 C748 1.419 . S
C750 C751 1.362 . S
C751 H741 0.930 . S
C751 C744 1.409 . S
C751 C750 1.362 . S
H752 C758 0.930 . S
H753 C761 0.930 . S
H754 C762 0.930 . S
H755 C763 0.930 . S
H756 C766 0.930 . S
H757 C767 0.930 . S
C758 H752 0.930 . S
C758 C759 1.355 . S
C758 C760 1.415 . S
C759 C758 1.355 . S
C759 C761 1.419 . S
C760 C758 1.415 . S
C760 C765 1.425 . S
C760 C767 1.409 . S
C761 H753 0.930 . S
C761 C759 1.419 . S
C761 C762 1.362 . S
C762 H754 0.930 . S
C762 C761 1.362 . S
C762 C765 1.409 . S
C763 H755 0.930 . S
C763 C764 1.355 . S
C763 C765 1.415 . S
C764 C763 1.355 . S
C764 C766 1.419 . S
C765 C760 1.425 . S
C765 C762 1.409 . S
C765 C763 1.415 . S
C766 H756 0.930 . S
C766 C764 1.419 . S
C766 C767 1.362 . S
C767 H757 0.930 . S
C767 C760 1.409 . S
C767 C766 1.362 . S
H768 C774 0.930 1_655 S
H769 C777 0.930 . S
H770 C778 0.930 . S
H771 C779 0.930 . S
H772 C782 0.930 . S
H773 C783 0.930 1_655 S
C774 H768 0.930 1_455 S
C774 C775 1.355 . S
C774 C776 1.415 . S
C775 C774 1.355 . S
C775 C777 1.419 . S
C776 C774 1.415 . S
C776 C781 1.425 . S
C776 C783 1.409 . S
C777 H769 0.930 . S
C777 C775 1.419 . S
C777 C778 1.362 . S
C778 H770 0.930 . S
C778 C777 1.362 . S
C778 C781 1.409 . S
C779 H771 0.930 . S
C779 C780 1.355 . S
C779 C781 1.415 . S
C780 C779 1.355 . S
C780 C782 1.419 . S
C781 C776 1.425 . S
C781 C778 1.409 . S
C781 C779 1.415 . S
C782 H772 0.930 . S
C782 C780 1.419 . S
C782 C783 1.362 . S
C783 H773 0.930 1_455 S
C783 C776 1.409 . S
C783 C782 1.362 . S
H784 C790 0.930 1_565 S
H785 C793 0.930 . S
H786 C794 0.930 . S
H787 C795 0.930 . S
H788 C798 0.930 . S
H789 C799 0.930 1_565 S
C790 H784 0.930 1_545 S
C790 C791 1.355 . S
C790 C792 1.415 . S
C791 C790 1.355 . S
C791 C793 1.419 . S
C792 C790 1.415 . S
C792 C797 1.425 . S
C792 C799 1.409 . S
C793 H785 0.930 . S
C793 C791 1.419 . S
C793 C794 1.362 . S
C794 H786 0.930 . S
C794 C793 1.362 . S
C794 C797 1.409 . S
C795 H787 0.930 . S
C795 C796 1.355 . S
C795 C797 1.415 . S
C796 C795 1.355 . S
C796 C798 1.419 . S
C797 C792 1.425 . S
C797 C794 1.409 . S
C797 C795 1.415 . S
C798 H788 0.930 . S
C798 C796 1.419 . S
C798 C799 1.362 . S
C799 H789 0.930 1_545 S
C799 C792 1.409 . S
C799 C798 1.362 . S
H800 C806 0.930 . S
H801 C809 0.930 . S
H802 C810 0.930 1_455 S
H803 C811 0.930 1_455 S
H804 C814 0.930 . S
H805 C815 0.930 . S
C806 H800 0.930 . S
C806 C807 1.355 . S
C806 C808 1.415 . S
C807 C806 1.355 . S
C807 C809 1.419 . S
C808 C806 1.415 . S
C808 C813 1.425 . S
C808 C815 1.409 . S
C809 H801 0.930 . S
C809 C807 1.419 . S
C809 C810 1.362 . S
C810 H802 0.930 1_655 S
C810 C809 1.362 . S
C810 C813 1.409 . S
C811 H803 0.930 1_655 S
C811 C812 1.355 . S
C811 C813 1.415 . S
C812 C811 1.355 . S
C812 C814 1.419 . S
C813 C808 1.425 . S
C813 C810 1.409 . S
C813 C811 1.415 . S
C814 H804 0.930 . S
C814 C812 1.419 . S
C814 C815 1.362 . S
C815 H805 0.930 . S
C815 C808 1.409 . S
C815 C814 1.362 . S
H816 C822 0.930 . S
H817 C825 0.930 . S
H818 C826 0.930 . S
H819 C827 0.930 1_545 S
H820 C830 0.930 . S
H821 C831 0.930 . S
C822 H816 0.930 . S
C822 C823 1.355 . S
C822 C824 1.415 . S
C823 C822 1.355 . S
C823 C825 1.419 . S
C824 C822 1.415 . S
C824 C829 1.425 . S
C824 C831 1.409 . S
C825 H817 0.930 . S
C825 C823 1.419 . S
C825 C826 1.362 . S
C826 H818 0.930 . S
C826 C825 1.362 . S
C826 C829 1.409 . S
C827 H819 0.930 1_565 S
C827 C828 1.355 . S
C827 C829 1.415 . S
C828 C827 1.355 . S
C828 C830 1.419 . S
C829 C824 1.425 . S
C829 C826 1.409 . S
C829 C827 1.415 . S
C830 H820 0.930 . S
C830 C828 1.419 . S
C830 C831 1.362 . S
C831 H821 0.930 . S
C831 C824 1.409 . S
C831 C830 1.362 . S
H832 C838 0.930 . S
H833 C841 0.930 . S
H834 C842 0.930 . S
H835 C843 0.930 . S
H836 C846 0.930 . S
H837 C847 0.930 . S
C838 H832 0.930 . S
C838 C839 1.355 . S
C838 C840 1.415 . S
C839 C838 1.355 . S
C839 C841 1.419 . S
C840 C838 1.415 . S
C840 C845 1.425 . S
C840 C847 1.409 . S
C841 H833 0.930 . S
C841 C839 1.419 . S
C841 C842 1.362 . S
C842 H834 0.930 . S
C842 C841 1.362 . S
C842 C845 1.409 . S
C843 H835 0.930 . S
C843 C844 1.355 . S
C843 C845 1.415 . S
C844 C843 1.355 . S
C844 C846 1.419 . S
C845 C840 1.425 . S
C845 C842 1.409 . S
C845 C843 1.415 . S
C846 H836 0.930 . S
C846 C844 1.419 . S
C846 C847 1.362 . S
C847 H837 0.930 . S
C847 C840 1.409 . S
C847 C846 1.362 . S
H848 C854 0.930 . S
H849 C857 0.930 . S
H850 C858 0.930 . S
H851 C859 0.930 . S
H852 C862 0.930 . S
H853 C863 0.930 . S
C854 H848 0.930 . S
C854 C855 1.355 . S
C854 C856 1.415 . S
C855 C854 1.355 . S
C855 C857 1.419 . S
C856 C854 1.415 . S
C856 C861 1.425 . S
C856 C863 1.409 . S
C857 H849 0.930 . S
C857 C855 1.419 . S
C857 C858 1.362 . S
C858 H850 0.930 . S
C858 C857 1.362 . S
C858 C861 1.409 . S
C859 H851 0.930 . S
C859 C860 1.355 . S
C859 C861 1.415 . S
C860 C859 1.355 . S
C860 C862 1.419 . S
C861 C856 1.425 . S
C861 C858 1.409 . S
C861 C859 1.415 . S
C862 H852 0.930 . S
C862 C860 1.419 . S
C862 C863 1.362 . S
C863 H853 0.930 . S
C863 C856 1.409 . S
C863 C862 1.362 . S
H864 C870 0.930 . S
H865 C873 0.930 . S
H866 C874 0.930 . S
H867 C875 0.930 . S
H868 C878 0.930 . S
H869 C879 0.930 . S
C870 H864 0.930 . S
C870 C871 1.355 . S
C870 C872 1.415 . S
C871 C870 1.355 . S
C871 C873 1.419 . S
C872 C870 1.415 . S
C872 C877 1.425 . S
C872 C879 1.409 . S
C873 H865 0.930 . S
C873 C871 1.419 . S
C873 C874 1.362 . S
C874 H866 0.930 . S
C874 C873 1.362 . S
C874 C877 1.409 . S
C875 H867 0.930 . S
C875 C876 1.355 1_554 S
C875 C877 1.415 . S
C876 C875 1.355 1_556 S
C876 C878 1.419 . S
C877 C872 1.425 . S
C877 C874 1.409 . S
C877 C875 1.415 . S
C878 H868 0.930 . S
C878 C876 1.419 . S
C878 C879 1.362 1_556 S
C879 H869 0.930 . S
C879 C872 1.409 . S
C879 C878 1.362 1_554 S
H880 C886 0.930 . S
H881 C889 0.930 . S
H882 C890 0.930 . S
H883 C891 0.930 . S
H884 C894 0.930 . S
H885 C895 0.930 . S
C886 H880 0.930 . S
C886 C887 1.355 1_554 S
C886 C888 1.415 . S
C887 C886 1.355 1_556 S
C887 C889 1.419 . S
C888 C886 1.415 . S
C888 C893 1.425 . S
C888 C895 1.409 . S
C889 H881 0.930 . S
C889 C887 1.419 . S
C889 C890 1.362 . S
C890 H882 0.930 . S
C890 C889 1.362 . S
C890 C893 1.409 1_556 S
C891 H883 0.930 . S
C891 C892 1.355 . S
C891 C893 1.415 . S
C892 C891 1.355 . S
C892 C894 1.419 . S
C893 C888 1.425 . S
C893 C890 1.409 1_554 S
C893 C891 1.415 . S
C894 H884 0.930 . S
C894 C892 1.419 . S
C894 C895 1.362 . S
C895 H885 0.930 . S
C895 C888 1.409 . S
C895 C894 1.362 . S
H896 C902 0.930 . S
H897 C905 0.930 . S
H898 C906 0.930 . S
H899 C907 0.930 . S
H900 C910 0.930 . S
H901 C911 0.931 . S
C902 H896 0.930 . S
C902 C903 1.355 . S
C902 C904 1.415 . S
C903 C902 1.355 . S
C903 C905 1.419 . S
C904 C902 1.415 . S
C904 C909 1.425 . S
C904 C911 1.403 1_554 S
C905 H897 0.930 . S
C905 C903 1.419 . S
C905 C906 1.362 . S
C906 H898 0.930 . S
C906 C905 1.362 . S
C906 C909 1.409 . S
C907 H899 0.930 . S
C907 C908 1.355 1_554 S
C907 C909 1.415 . S
C908 C907 1.355 1_556 S
C908 C910 1.419 . S
C909 C904 1.425 . S
C909 C906 1.409 . S
C909 C907 1.415 . S
C910 H900 0.930 . S
C910 C908 1.419 . S
C910 C911 1.367 . S
C911 H901 0.931 . S
C911 C904 1.403 1_556 S
C911 C910 1.367 . S
H912 C918 0.930 . S
H913 C921 0.930 . S
H914 C922 0.930 . S
H915 C923 0.930 . S
H916 C926 0.930 . S
H917 C927 0.930 . S
C918 H912 0.930 . S
C918 C919 1.355 1_554 S
C918 C920 1.415 . S
C919 C918 1.355 1_556 S
C919 C921 1.419 . S
C920 C918 1.415 . S
C920 C925 1.425 . S
C920 C927 1.409 . S
C921 H913 0.930 . S
C921 C919 1.419 . S
C921 C922 1.362 . S
C922 H914 0.930 . S
C922 C921 1.362 . S
C922 C925 1.409 1_556 S
C923 H915 0.930 . S
C923 C924 1.355 . S
C923 C925 1.415 . S
C924 C923 1.355 . S
C924 C926 1.419 . S
C925 C920 1.425 . S
C925 C922 1.409 1_554 S
C925 C923 1.415 . S
C926 H916 0.930 . S
C926 C924 1.419 . S
C926 C927 1.362 . S
C927 H917 0.930 . S
C927 C920 1.409 . S
C927 C926 1.362 . S
H928 C934 0.930 . S
H929 C937 0.930 . S
H930 C938 0.930 . S
H931 C939 0.930 . S
H932 C942 0.930 . S
H933 C943 0.930 . S
C934 H928 0.930 . S
C934 C935 1.355 . S
C934 C936 1.415 . S
C935 C934 1.355 . S
C935 C937 1.419 . S
C936 C934 1.415 . S
C936 C941 1.425 . S
C936 C943 1.409 . S
C937 H929 0.930 . S
C937 C935 1.419 . S
C937 C938 1.362 . S
C938 H930 0.930 . S
C938 C937 1.362 . S
C938 C941 1.409 . S
C939 H931 0.930 . S
C939 C940 1.355 . S
C939 C941 1.415 . S
C940 C939 1.355 . S
C940 C942 1.419 . S
C941 C936 1.425 . S
C941 C938 1.409 . S
C941 C939 1.415 . S
C942 H932 0.930 . S
C942 C940 1.419 . S
C942 C943 1.362 . S
C943 H933 0.930 . S
C943 C936 1.409 . S
C943 C942 1.362 . S
H944 C950 0.930 . S
H945 C953 0.930 . S
H946 C954 0.930 . S
H947 C955 0.930 . S
H948 C958 0.930 . S
H949 C959 0.930 . S
C950 H944 0.930 . S
C950 C951 1.355 . S
C950 C952 1.415 . S
C951 C950 1.355 . S
C951 C953 1.419 . S
C952 C950 1.415 . S
C952 C957 1.425 . S
C952 C959 1.409 . S
C953 H945 0.930 . S
C953 C951 1.419 . S
C953 C954 1.362 . S
C954 H946 0.930 . S
C954 C953 1.362 . S
C954 C957 1.409 . S
C955 H947 0.930 . S
C955 C956 1.355 . S
C955 C957 1.415 . S
C956 C955 1.355 . S
C956 C958 1.419 . S
C957 C952 1.425 . S
C957 C954 1.409 . S
C957 C955 1.415 . S
C958 H948 0.930 . S
C958 C956 1.419 . S
C958 C959 1.362 . S
C959 H949 0.930 . S
C959 C952 1.409 . S
C959 C958 1.362 . S
H960 C966 0.930 . S
H961 C969 0.930 . S
H962 C970 0.930 . S
H963 C971 0.930 . S
H964 C974 0.930 . S
H965 C975 0.930 . S
C966 H960 0.930 . S
C966 C967 1.355 . S
C966 C968 1.415 . S
C967 C966 1.355 . S
C967 C969 1.419 . S
C968 C966 1.415 . S
C968 C973 1.425 . S
C968 C975 1.409 . S
C969 H961 0.930 . S
C969 C967 1.419 . S
C969 C970 1.362 . S
C970 H962 0.930 . S
C970 C969 1.362 . S
C970 C973 1.409 . S
C971 H963 0.930 . S
C971 C972 1.355 . S
C971 C973 1.415 . S
C972 C971 1.355 . S
C972 C974 1.419 . S
C973 C968 1.425 . S
C973 C970 1.409 . S
C973 C971 1.415 . S
C974 H964 0.930 . S
C974 C972 1.419 . S
C974 C975 1.362 . S
C975 H965 0.930 . S
C975 C968 1.409 . S
C975 C974 1.362 . S
H976 C982 0.930 . S
H977 C985 0.930 . S
H978 C986 0.930 . S
H979 C987 0.930 . S
H980 C990 0.930 . S
H981 C991 0.930 . S
C982 H976 0.930 . S
C982 C983 1.355 . S
C982 C984 1.415 . S
C983 C982 1.355 . S
C983 C985 1.419 . S
C984 C982 1.415 . S
C984 C989 1.425 . S
C984 C991 1.409 . S
C985 H977 0.930 . S
C985 C983 1.419 . S
C985 C986 1.362 . S
C986 H978 0.930 . S
C986 C985 1.362 . S
C986 C989 1.409 . S
C987 H979 0.930 . S
C987 C988 1.355 . S
C987 C989 1.415 . S
C988 C987 1.355 . S
C988 C990 1.419 . S
C989 C984 1.425 . S
C989 C986 1.409 . S
C989 C987 1.415 . S
C990 H980 0.930 . S
C990 C988 1.419 . S
C990 C991 1.362 . S
C991 H981 0.930 . S
C991 C984 1.409 . S
C991 C990 1.362 . S
H992 C998 0.930 1_554 S
H993 C1001 0.930 . S
H994 C1002 0.930 . S
H995 C1003 0.930 . S
H996 C1006 0.930 . S
H997 C1007 0.930 . S
C998 H992 0.930 1_556 S
C998 C999 1.355 1_556 S
C998 C1000 1.415 . S
C999 C998 1.355 1_554 S
C999 C1001 1.419 . S
C1000 C998 1.415 . S
C1000 C1005 1.425 . S
C1000 C1007 1.409 . S
C1001 H993 0.930 . S
C1001 C999 1.419 . S
C1001 C1002 1.362 1_554 S
C1002 H994 0.930 . S
C1002 C1001 1.362 1_556 S
C1002 C1005 1.409 . S
C1003 H995 0.930 . S
C1003 C1004 1.355 . S
C1003 C1005 1.415 . S
C1004 C1003 1.355 . S
C1004 C1006 1.419 . S
C1005 C1000 1.425 . S
C1005 C1002 1.409 . S
C1005 C1003 1.415 . S
C1006 H996 0.930 . S
C1006 C1004 1.419 . S
C1006 C1007 1.362 . S
C1007 H997 0.930 . S
C1007 C1000 1.409 . S
C1007 C1006 1.362 . S
H1008 C1014 0.930 . S
H1009 C1017 0.930 . S
H1010 C1018 0.930 . S
H1011 C1019 0.930 . S
H1012 C1022 0.930 . S
H1013 C1023 0.930 . S
C1014 H1008 0.930 . S
C1014 C1015 1.355 . S
C1014 C1016 1.415 . S
C1015 C1014 1.355 . S
C1015 C1017 1.419 . S
C1016 C1014 1.415 . S
C1016 C1021 1.425 . S
C1016 C1023 1.409 1_556 S
C1017 H1009 0.930 . S
C1017 C1015 1.419 . S
C1017 C1018 1.362 . S
C1018 H1010 0.930 . S
C1018 C1017 1.362 . S
C1018 C1021 1.409 . S
C1019 H1011 0.930 . S
C1019 C1020 1.355 1_556 S
C1019 C1021 1.415 . S
C1020 C1019 1.355 1_554 S
C1020 C1022 1.419 . S
C1021 C1016 1.425 . S
C1021 C1018 1.409 . S
C1021 C1019 1.415 . S
C1022 H1012 0.930 . S
C1022 C1020 1.419 . S
C1022 C1023 1.362 . S
C1023 H1013 0.930 . S
C1023 C1016 1.409 1_554 S
C1023 C1022 1.362 . S
H1024 C1030 0.930 . S
H1025 C1033 0.930 . S
H1026 C1034 0.930 . S
H1027 C1035 0.930 . S
H1028 C1038 0.930 . S
H1029 C1039 0.930 . S
C1030 H1024 0.930 . S
C1030 C1031 1.355 1_556 S
C1030 C1032 1.415 . S
C1031 C1030 1.355 1_554 S
C1031 C1033 1.419 . S
C1032 C1030 1.415 . S
C1032 C1037 1.425 . S
C1032 C1039 1.409 . S
C1033 H1025 0.930 . S
C1033 C1031 1.419 . S
C1033 C1034 1.362 . S
C1034 H1026 0.930 . S
C1034 C1033 1.362 . S
C1034 C1037 1.409 1_554 S
C1035 H1027 0.930 . S
C1035 C1036 1.355 . S
C1035 C1037 1.415 . S
C1036 C1035 1.355 . S
C1036 C1038 1.419 . S
C1037 C1032 1.425 . S
C1037 C1034 1.409 1_556 S
C1037 C1035 1.415 . S
C1038 H1028 0.930 . S
C1038 C1036 1.419 . S
C1038 C1039 1.362 . S
C1039 H1029 0.930 . S
C1039 C1032 1.409 . S
C1039 C1038 1.362 . S
H1040 C1046 0.930 . S
H1041 C1049 0.930 . S
H1042 C1050 0.930 . S
H1043 C1051 0.930 . S
H1044 C1054 0.930 . S
H1045 C1055 0.930 . S
C1046 H1040 0.930 . S
C1046 C1047 1.355 . S
C1046 C1048 1.415 1_554 S
C1047 C1046 1.355 . S
C1047 C1049 1.419 . S
C1048 C1046 1.415 1_556 S
C1048 C1053 1.425 . S
C1048 C1055 1.409 . S
C1049 H1041 0.930 . S
C1049 C1047 1.419 . S
C1049 C1050 1.362 1_554 S
C1050 H1042 0.930 . S
C1050 C1049 1.362 1_556 S
C1050 C1053 1.409 . S
C1051 H1043 0.930 . S
C1051 C1052 1.355 . S
C1051 C1053 1.415 . S
C1052 C1051 1.355 . S
C1052 C1054 1.419 . S
C1053 C1048 1.425 . S
C1053 C1050 1.409 . S
C1053 C1051 1.415 . S
C1054 H1044 0.930 . S
C1054 C1052 1.419 . S
C1054 C1055 1.362 . S
C1055 H1045 0.930 . S
C1055 C1048 1.409 . S
C1055 C1054 1.362 . S
H1056 C1062 0.930 . S
H1057 C1065 0.930 . S
H1058 C1066 0.930 . S
H1059 C1067 0.930 . S
H1060 C1070 0.930 . S
H1061 C1071 0.930 . S
C1062 H1056 0.930 . S
C1062 C1063 1.355 . S
C1062 C1064 1.415 . S
C1063 C1062 1.355 . S
C1063 C1065 1.419 . S
C1064 C1062 1.415 . S
C1064 C1069 1.425 . S
C1064 C1071 1.409 . S
C1065 H1057 0.930 . S
C1065 C1063 1.419 . S
C1065 C1066 1.362 . S
C1066 H1058 0.930 . S
C1066 C1065 1.362 . S
C1066 C1069 1.409 . S
C1067 H1059 0.930 . S
C1067 C1068 1.355 . S
C1067 C1069 1.415 . S
C1068 C1067 1.355 . S
C1068 C1070 1.419 . S
C1069 C1064 1.425 . S
C1069 C1066 1.409 . S
C1069 C1067 1.415 . S
C1070 H1060 0.930 . S
C1070 C1068 1.419 . S
C1070 C1071 1.362 . S
C1071 H1061 0.930 . S
C1071 C1064 1.409 . S
C1071 C1070 1.362 . S
H1072 C1078 0.930 . S
H1073 C1081 0.930 . S
H1074 C1082 0.930 . S
H1075 C1083 0.930 . S
H1076 C1086 0.930 . S
H1077 C1087 0.930 . S
C1078 H1072 0.930 . S
C1078 C1079 1.355 . S
C1078 C1080 1.415 . S
C1079 C1078 1.355 . S
C1079 C1081 1.419 . S
C1080 C1078 1.415 . S
C1080 C1085 1.425 . S
C1080 C1087 1.409 . S
C1081 H1073 0.930 . S
C1081 C1079 1.419 . S
C1081 C1082 1.362 . S
C1082 H1074 0.930 . S
C1082 C1081 1.362 . S
C1082 C1085 1.409 . S
C1083 H1075 0.930 . S
C1083 C1084 1.355 . S
C1083 C1085 1.415 . S
C1084 C1083 1.355 . S
C1084 C1086 1.419 . S
C1085 C1080 1.425 . S
C1085 C1082 1.409 . S
C1085 C1083 1.415 . S
C1086 H1076 0.930 . S
C1086 C1084 1.419 . S
C1086 C1087 1.362 . S
C1087 H1077 0.930 . S
C1087 C1080 1.409 . S
C1087 C1086 1.362 . S
H1088 C1094 0.930 . S
H1089 C1097 0.930 . S
H1090 C1098 0.930 . S
H1091 C1099 0.930 . S
H1092 C1102 0.930 . S
H1093 C1103 0.930 . S
C1094 H1088 0.930 . S
C1094 C1095 1.355 . S
C1094 C1096 1.415 . S
C1095 C1094 1.355 . S
C1095 C1097 1.419 . S
C1096 C1094 1.415 . S
C1096 C1101 1.425 . S
C1096 C1103 1.409 . S
C1097 H1089 0.930 . S
C1097 C1095 1.419 . S
C1097 C1098 1.362 . S
C1098 H1090 0.930 . S
C1098 C1097 1.362 . S
C1098 C1101 1.409 . S
C1099 H1091 0.930 . S
C1099 C1100 1.355 . S
C1099 C1101 1.415 . S
C1100 C1099 1.355 . S
C1100 C1102 1.419 . S
C1101 C1096 1.425 . S
C1101 C1098 1.409 . S
C1101 C1099 1.415 . S
C1102 H1092 0.930 . S
C1102 C1100 1.419 . S
C1102 C1103 1.362 . S
C1103 H1093 0.930 . S
C1103 C1096 1.409 . S
C1103 C1102 1.362 . S
H1104 C1110 0.930 . S
H1105 C1113 0.930 . S
H1106 C1114 0.930 . S
H1107 C1115 0.930 . S
H1108 C1118 0.930 . S
H1109 C1119 0.930 . S
C1110 H1104 0.930 . S
C1110 C1111 1.355 . S
C1110 C1112 1.415 . S
C1111 C1110 1.355 . S
C1111 C1113 1.419 . S
C1112 C1110 1.415 . S
C1112 C1117 1.425 . S
C1112 C1119 1.409 . S
C1113 H1105 0.930 . S
C1113 C1111 1.419 . S
C1113 C1114 1.362 . S
C1114 H1106 0.930 . S
C1114 C1113 1.362 . S
C1114 C1117 1.409 . S
C1115 H1107 0.930 . S
C1115 C1116 1.355 . S
C1115 C1117 1.415 . S
C1116 C1115 1.355 . S
C1116 C1118 1.419 . S
C1117 C1112 1.425 . S
C1117 C1114 1.409 . S
C1117 C1115 1.415 . S
C1118 H1108 0.930 . S
C1118 C1116 1.419 . S
C1118 C1119 1.362 . S
C1119 H1109 0.930 . S
C1119 C1112 1.409 . S
C1119 C1118 1.362 . S
C359 C10 1.382 . S
C364 C120 1.377 . S
C375 C30 1.379 . S
C380 C150 1.375 . S
C391 C172 1.391 . S
C396 C52 1.387 . S
C407 C98 1.381 . S
C412 C76 1.385 . S
C423 C194 1.368 . S
C428 C296 1.381 . S
C439 C206 1.391 . S
C444 C316 1.381 . S
C455 C238 1.372 . S
C460 C340 1.385 . S
C471 C252 1.360 . S
C476 C272 1.365 . S
C487 C7 0.957 . S
C492 C191 0.958 . S
C503 C37 0.877 . S
C508 C205 0.869 . S
C519 C235 1.003 . S
C524 C59 1.003 . S
C535 C263 0.945 . S
C540 C73 0.953 . S
C551 C95 0.875 . S
C556 C271 0.866 . S
C567 C117 0.934 . S
C572 C307 0.925 . S
C583 C315 0.871 . S
C588 C153 0.878 . S
C599 C351 1.000 . S
C604 C175 1.000 . S
C615 C18 1.578 . S
C620 C40 1.568 . S
C631 C32 1.574 . S
C636 C62 1.574 . S
C647 C74 1.575 . S
C652 C54 1.573 . S
C663 C84 1.591 . S
C668 C8 1.547 . S
C679 C106 1.586 . S
C684 C164 1.554 . S
C695 C128 1.577 . S
C700 C96 1.570 . S
C711 C140 1.584 . S
C716 C118 1.555 . S
C727 C162 1.589 . S
C732 C142 1.548 . S
C743 C186 1.577 . S
C748 C208 1.559 . S
C759 C228 1.534 . S
C764 C216 1.592 . S
C775 C260 1.565 . S
C780 C230 1.572 . S
C791 C184 1.565 . S
C796 C250 1.572 . S
C807 C282 1.582 . S
C812 C348 1.552 . S
C823 C294 1.593 . S
C828 C274 1.531 . S
C839 C304 1.528 . S
C844 C326 1.594 . S
C855 C338 1.566 . S
C860 C318 1.554 . S
C871 C15 1.583 . S
C876 C213 1.604 . S
C887 C241 1.623 . S
C892 C43 1.596 . S
C903 C65 1.595 . S
C908 C249 1.601 . S
C919 C197 1.620 . S
C924 C81 1.601 . S
C935 C103 1.574 . S
C940 C337 1.608 . S
C951 C279 1.601 . S
C956 C125 1.608 . S
C967 C293 1.603 . S
C972 C139 1.587 . S
C983 C161 1.604 . S
C988 C323 1.618 . S
C999 C29 1.618 . S
C1004 C183 1.599 . S
C1015 C219 1.607 . S
C1020 C51 1.612 . S
C1031 C87 1.611 . S
C1036 C227 1.608 . S
C1047 C21 1.621 . S
C1052 C257 1.594 . S
C1063 C169 1.629 . S
C1068 C285 1.560 . S
C1079 C301 1.596 . S
C1084 C109 1.619 . S
C1095 C329 1.611 . S
C1100 C131 1.603 . S
C1111 C345 1.554 . S
C1116 C147 1.624 . S
